# Generated by pormake.
# Topology why, (6)-cn, num edge types: 1
# Building blocks:
#     Node 0, Type 0, BuildingBlock: HISSIN_clean_sbu_0, # of connection points: 6
#     Node 1, Type 0, BuildingBlock: HISSIN_clean_sbu_0, # of connection points: 6
#     Node 2, Type 0, BuildingBlock: HISSIN_clean_sbu_0, # of connection points: 6
#     Node 3, Type 0, BuildingBlock: HISSIN_clean_sbu_0, # of connection points: 6
#     Node 4, Type 0, BuildingBlock: HISSIN_clean_sbu_0, # of connection points: 6
#     Node 5, Type 0, BuildingBlock: HISSIN_clean_sbu_0, # of connection points: 6
#     Node 6, Type 0, BuildingBlock: HISSIN_clean_sbu_0, # of connection points: 6
#     Node 7, Type 0, BuildingBlock: HISSIN_clean_sbu_0, # of connection points: 6
#     Node 8, Type 0, BuildingBlock: HISSIN_clean_sbu_0, # of connection points: 6
#     Node 9, Type 0, BuildingBlock: HISSIN_clean_sbu_0, # of connection points: 6
#     Node 10, Type 0, BuildingBlock: HISSIN_clean_sbu_0, # of connection points: 6
#     Node 11, Type 0, BuildingBlock: HISSIN_clean_sbu_0, # of connection points: 6
#     Node 12, Type 0, BuildingBlock: HISSIN_clean_sbu_0, # of connection points: 6
#     Node 13, Type 0, BuildingBlock: HISSIN_clean_sbu_0, # of connection points: 6
#     Node 14, Type 0, BuildingBlock: HISSIN_clean_sbu_0, # of connection points: 6
#     Node 15, Type 0, BuildingBlock: HISSIN_clean_sbu_0, # of connection points: 6
#     Edge 16, Type (0, 0), BuildingBlock: MIFKUJ_clean_linker_0, # of connection points: 2
#     Edge 17, Type (0, 0), BuildingBlock: MIFKUJ_clean_linker_0, # of connection points: 2
#     Edge 18, Type (0, 0), BuildingBlock: MIFKUJ_clean_linker_0, # of connection points: 2
#     Edge 19, Type (0, 0), BuildingBlock: MIFKUJ_clean_linker_0, # of connection points: 2
#     Edge 20, Type (0, 0), BuildingBlock: MIFKUJ_clean_linker_0, # of connection points: 2
#     Edge 21, Type (0, 0), BuildingBlock: MIFKUJ_clean_linker_0, # of connection points: 2
#     Edge 22, Type (0, 0), BuildingBlock: MIFKUJ_clean_linker_0, # of connection points: 2
#     Edge 23, Type (0, 0), BuildingBlock: MIFKUJ_clean_linker_0, # of connection points: 2
#     Edge 24, Type (0, 0), BuildingBlock: MIFKUJ_clean_linker_0, # of connection points: 2
#     Edge 25, Type (0, 0), BuildingBlock: MIFKUJ_clean_linker_0, # of connection points: 2
#     Edge 26, Type (0, 0), BuildingBlock: MIFKUJ_clean_linker_0, # of connection points: 2
#     Edge 27, Type (0, 0), BuildingBlock: MIFKUJ_clean_linker_0, # of connection points: 2
#     Edge 28, Type (0, 0), BuildingBlock: MIFKUJ_clean_linker_0, # of connection points: 2
#     Edge 29, Type (0, 0), BuildingBlock: MIFKUJ_clean_linker_0, # of connection points: 2
#     Edge 30, Type (0, 0), BuildingBlock: MIFKUJ_clean_linker_0, # of connection points: 2
#     Edge 31, Type (0, 0), BuildingBlock: MIFKUJ_clean_linker_0, # of connection points: 2
#     Edge 32, Type (0, 0), BuildingBlock: MIFKUJ_clean_linker_0, # of connection points: 2
#     Edge 33, Type (0, 0), BuildingBlock: MIFKUJ_clean_linker_0, # of connection points: 2
#     Edge 34, Type (0, 0), BuildingBlock: MIFKUJ_clean_linker_0, # of connection points: 2
#     Edge 35, Type (0, 0), BuildingBlock: MIFKUJ_clean_linker_0, # of connection points: 2
#     Edge 36, Type (0, 0), BuildingBlock: MIFKUJ_clean_linker_0, # of connection points: 2
#     Edge 37, Type (0, 0), BuildingBlock: MIFKUJ_clean_linker_0, # of connection points: 2
#     Edge 38, Type (0, 0), BuildingBlock: MIFKUJ_clean_linker_0, # of connection points: 2
#     Edge 39, Type (0, 0), BuildingBlock: MIFKUJ_clean_linker_0, # of connection points: 2
#     Edge 40, Type (0, 0), BuildingBlock: MIFKUJ_clean_linker_0, # of connection points: 2
#     Edge 41, Type (0, 0), BuildingBlock: MIFKUJ_clean_linker_0, # of connection points: 2
#     Edge 42, Type (0, 0), BuildingBlock: MIFKUJ_clean_linker_0, # of connection points: 2
#     Edge 43, Type (0, 0), BuildingBlock: MIFKUJ_clean_linker_0, # of connection points: 2
#     Edge 44, Type (0, 0), BuildingBlock: MIFKUJ_clean_linker_0, # of connection points: 2
#     Edge 45, Type (0, 0), BuildingBlock: MIFKUJ_clean_linker_0, # of connection points: 2
#     Edge 46, Type (0, 0), BuildingBlock: MIFKUJ_clean_linker_0, # of connection points: 2
#     Edge 47, Type (0, 0), BuildingBlock: MIFKUJ_clean_linker_0, # of connection points: 2
#     Edge 48, Type (0, 0), BuildingBlock: MIFKUJ_clean_linker_0, # of connection points: 2
#     Edge 49, Type (0, 0), BuildingBlock: MIFKUJ_clean_linker_0, # of connection points: 2
#     Edge 50, Type (0, 0), BuildingBlock: MIFKUJ_clean_linker_0, # of connection points: 2
#     Edge 51, Type (0, 0), BuildingBlock: MIFKUJ_clean_linker_0, # of connection points: 2
#     Edge 52, Type (0, 0), BuildingBlock: MIFKUJ_clean_linker_0, # of connection points: 2
#     Edge 53, Type (0, 0), BuildingBlock: MIFKUJ_clean_linker_0, # of connection points: 2
#     Edge 54, Type (0, 0), BuildingBlock: MIFKUJ_clean_linker_0, # of connection points: 2
#     Edge 55, Type (0, 0), BuildingBlock: MIFKUJ_clean_linker_0, # of connection points: 2
#     Edge 56, Type (0, 0), BuildingBlock: MIFKUJ_clean_linker_0, # of connection points: 2
#     Edge 57, Type (0, 0), BuildingBlock: MIFKUJ_clean_linker_0, # of connection points: 2
#     Edge 58, Type (0, 0), BuildingBlock: MIFKUJ_clean_linker_0, # of connection points: 2
#     Edge 59, Type (0, 0), BuildingBlock: MIFKUJ_clean_linker_0, # of connection points: 2
#     Edge 60, Type (0, 0), BuildingBlock: MIFKUJ_clean_linker_0, # of connection points: 2
#     Edge 61, Type (0, 0), BuildingBlock: MIFKUJ_clean_linker_0, # of connection points: 2
#     Edge 62, Type (0, 0), BuildingBlock: MIFKUJ_clean_linker_0, # of connection points: 2
#     Edge 63, Type (0, 0), BuildingBlock: MIFKUJ_clean_linker_0, # of connection points: 2
# Relax obj value: 0.344
# Max RMSD: 0.223
# Mean RMSD: 0.223
data_MOF--net-why--node1-HISSIN_clean_sbu_0--edge1-MIFKUJ_clean_linker_0
_symmetry_space_group_name_H-M    P1
_symmetry_Int_Tables_number       1
_symmetry_cell_setting            triclinic
loop_
_symmetry_equiv_pos_as_xyz
'x, y, z'
_cell_length_a     65.882916
_cell_length_b     65.969792
_cell_length_c     46.793524
_cell_angle_alpha  89.964237
_cell_angle_beta   89.823018
_cell_angle_gamma 90.375875
loop_
_atom_site_label
_atom_site_type_symbol
_atom_site_fract_x
_atom_site_fract_y
_atom_site_fract_z
_atom_type_partial_charge
Eu0 Eu 0.44327 0.17368 0.05868 0.0
Eu1 Eu 0.41982 0.19681 0.1059 0.0
C2 C 0.42623 0.21846 0.04433 0.0
C3 C 0.47145 0.15551 0.99158 0.0
C4 C 0.47078 0.17442 0.97792 0.0
C5 C 0.48946 0.1416 0.95093 0.0
C6 C 0.47956 0.17694 0.95089 0.0
C7 C 0.4807 0.13912 0.97791 0.0
C8 C 0.4891 0.16055 0.93716 0.0
C9 C 0.46287 0.15264 0.02021 0.0
O10 O 0.39228 0.18862 0.07692 0.0
O11 O 0.41 0.17437 0.03994 0.0
C12 C 0.39241 0.18105 0.05059 0.0
O13 O 0.44189 0.14874 0.09414 0.0
O14 O 0.42292 0.20768 0.14965 0.0
O15 O 0.39403 0.21036 0.12752 0.0
O16 O 0.42177 0.16446 0.12627 0.0
C17 C 0.43172 0.14801 0.11852 0.0
O18 O 0.46778 0.19881 0.07032 0.0
O19 O 0.44917 0.21725 0.10199 0.0
O20 O 0.41826 0.21964 0.07007 0.0
O21 O 0.47171 0.16255 0.04085 0.0
O22 O 0.44316 0.15311 0.0222 0.0
O23 O 0.4367 0.2027 0.03587 0.0
C24 C 0.40225 0.23529 0.16187 0.0
C25 C 0.40307 0.23788 0.19149 0.0
C26 C 0.39259 0.27047 0.15633 0.0
C27 C 0.39788 0.2564 0.2036 0.0
C28 C 0.39792 0.2519 0.14419 0.0
C29 C 0.39161 0.27258 0.18621 0.0
C30 C 0.40451 0.21484 0.15032 0.0
C31 C 0.46607 0.21538 0.08654 0.0
H32 H 0.4636 0.18722 0.98825 0.0
H33 H 0.49696 0.12877 0.94117 0.0
H34 H 0.47887 0.19167 0.94073 0.0
H35 H 0.48137 0.12444 0.98826 0.0
H36 H 0.4066 0.22524 0.20538 0.0
H37 H 0.38799 0.28275 0.14244 0.0
H38 H 0.3971 0.25739 0.22668 0.0
H39 H 0.39761 0.25023 0.12116 0.0
Eu40 Eu 0.67399 0.69789 0.31122 0.0
Eu41 Eu 0.65044 0.67477 0.35906 0.0
C42 C 0.62931 0.68089 0.29797 0.0
C43 C 0.68941 0.72937 0.24591 0.0
C44 C 0.67521 0.72192 0.22608 0.0
C45 C 0.69638 0.75789 0.21452 0.0
C46 C 0.67191 0.73221 0.20043 0.0
C47 C 0.69985 0.74747 0.24003 0.0
C48 C 0.68254 0.75024 0.19436 0.0
C49 C 0.69406 0.71807 0.27219 0.0
O50 O 0.65823 0.64781 0.32848 0.0
O51 O 0.6734 0.6651 0.29172 0.0
C52 C 0.66631 0.6477 0.30236 0.0
O53 O 0.69984 0.69195 0.34408 0.0
O54 O 0.62436 0.6681 0.38657 0.0
O55 O 0.65291 0.65285 0.39353 0.0
O56 O 0.68048 0.68444 0.38256 0.0
C57 C 0.69877 0.68809 0.37174 0.0
O58 O 0.64947 0.72248 0.32482 0.0
O59 O 0.63127 0.70468 0.35818 0.0
O60 O 0.63064 0.66909 0.32048 0.0
O61 O 0.68827 0.7261 0.29635 0.0
O62 O 0.69091 0.69856 0.27137 0.0
O63 O 0.64305 0.69473 0.29218 0.0
C64 C 0.62354 0.63398 0.40165 0.0
C65 C 0.6216 0.62429 0.42811 0.0
C66 C 0.61044 0.60389 0.37802 0.0
C67 C 0.61439 0.6044 0.42954 0.0
C68 C 0.61778 0.62379 0.37659 0.0
C69 C 0.60904 0.5939 0.40449 0.0
C70 C 0.63374 0.6537 0.40019 0.0
C71 C 0.63323 0.72125 0.34208 0.0
H72 H 0.66681 0.70805 0.23025 0.0
H73 H 0.70486 0.77169 0.21028 0.0
H74 H 0.66097 0.72615 0.18539 0.0
H75 H 0.71088 0.75342 0.25503 0.0
H76 H 0.62617 0.63192 0.44758 0.0
H77 H 0.60648 0.59611 0.35841 0.0
H78 H 0.61312 0.59717 0.45027 0.0
H79 H 0.61949 0.63103 0.35592 0.0
Eu80 Eu 0.1524 0.92853 0.56162 0.0
Eu81 Eu 0.1747 0.90645 0.61012 0.0
C82 C 0.16949 0.88395 0.54986 0.0
C83 C 0.11957 0.94544 0.49835 0.0
C84 C 0.12022 0.92686 0.48379 0.0
C85 C 0.09673 0.9586 0.46245 0.0
C86 C 0.10934 0.92427 0.45841 0.0
C87 C 0.10765 0.96119 0.4877 0.0
C88 C 0.0976 0.94019 0.44738 0.0
C89 C 0.13212 0.94911 0.52364 0.0
O90 O 0.20215 0.91624 0.58065 0.0
O91 O 0.18487 0.92711 0.54136 0.0
C92 C 0.20243 0.92219 0.55338 0.0
O93 O 0.16001 0.95462 0.59375 0.0
O94 O 0.18405 0.88119 0.63736 0.0
O95 O 0.19388 0.9118 0.647 0.0
O96 O 0.16159 0.93518 0.63291 0.0
C97 C 0.16063 0.9536 0.6219 0.0
O98 O 0.12755 0.90399 0.57523 0.0
O99 O 0.14521 0.88611 0.60868 0.0
O100 O 0.18084 0.88585 0.57273 0.0
O101 O 0.12453 0.94369 0.54832 0.0
O102 O 0.15125 0.94452 0.52108 0.0
O103 O 0.15583 0.89747 0.54308 0.0
C104 C 0.21709 0.88611 0.65725 0.0
C105 C 0.22961 0.89778 0.67509 0.0
C106 C 0.24555 0.86391 0.64735 0.0
C107 C 0.24993 0.89274 0.67884 0.0
C108 C 0.22521 0.86912 0.64332 0.0
C109 C 0.25813 0.87568 0.66518 0.0
C110 C 0.19599 0.89262 0.65276 0.0
C111 C 0.1287 0.88778 0.59242 0.0
H112 H 0.12937 0.91452 0.49179 0.0
H113 H 0.08803 0.97122 0.45433 0.0
H114 H 0.11011 0.90984 0.44743 0.0
H115 H 0.10711 0.97566 0.49863 0.0
H116 H 0.22372 0.91102 0.68593 0.0
H117 H 0.2513 0.85049 0.63686 0.0
H118 H 0.25923 0.90232 0.69236 0.0
H119 H 0.21592 0.85988 0.62933 0.0
Eu120 Eu 0.91842 0.40347 0.80793 0.0
Eu121 Eu 0.94193 0.42639 0.85488 0.0
C122 C 0.96415 0.41797 0.79493 0.0
C123 C 0.90235 0.37204 0.74362 0.0
C124 C 0.91985 0.37608 0.72729 0.0
C125 C 0.89231 0.34617 0.7098 0.0
C126 C 0.92338 0.36537 0.70204 0.0
C127 C 0.88871 0.35697 0.73487 0.0
C128 C 0.90958 0.3504 0.69307 0.0
C129 C 0.89784 0.38372 0.76939 0.0
O130 O 0.93698 0.45304 0.82268 0.0
O131 O 0.9181 0.43658 0.78898 0.0
C132 C 0.92721 0.45354 0.79786 0.0
O133 O 0.89297 0.40626 0.84244 0.0
O134 O 0.96599 0.42906 0.88651 0.0
O135 O 0.94231 0.45176 0.88443 0.0
O136 O 0.91079 0.42113 0.87799 0.0
C137 C 0.8933 0.41382 0.86856 0.0
O138 O 0.9439 0.37932 0.81927 0.0
O139 O 0.95955 0.39544 0.85634 0.0
O140 O 0.96342 0.42973 0.81751 0.0
O141 O 0.90336 0.37569 0.79364 0.0
O142 O 0.90176 0.40309 0.768 0.0
O143 O 0.94934 0.4055 0.78847 0.0
C144 C 0.97496 0.46331 0.89512 0.0
C145 C 0.97018 0.48117 0.90965 0.0
C146 C 1.00779 0.47755 0.88214 0.0
C147 C 0.98415 0.49699 0.91082 0.0
C148 C 0.99363 0.46174 0.88066 0.0
C149 C 1.00326 0.49515 0.89768 0.0
C150 C 0.95993 0.4469 0.89485 0.0
C151 C 0.9589 0.37966 0.83856 0.0
H152 H 0.93064 0.38761 0.7339 0.0
H153 H 0.88135 0.33481 0.70315 0.0
H154 H 0.9369 0.36869 0.68963 0.0
H155 H 0.87515 0.35371 0.74726 0.0
H156 H 0.95578 0.4827 0.92067 0.0
H157 H 1.02249 0.47577 0.87204 0.0
H158 H 0.9804 0.51016 0.92356 0.0
H159 H 0.99747 0.44819 0.86881 0.0
Eu160 Eu 0.67378 0.90761 0.89815 0.0
Eu161 Eu 0.65238 0.93103 0.94682 0.0
C162 C 0.6611 0.95597 0.88575 0.0
C163 C 0.70715 0.87529 0.84942 0.0
C164 C 0.7134 0.87186 0.82131 0.0
C165 C 0.73212 0.85136 0.86642 0.0
C166 C 0.72922 0.85858 0.81573 0.0
C167 C 0.71625 0.86476 0.87199 0.0
C168 C 0.739 0.84846 0.83824 0.0
C169 C 0.6922 0.89098 0.8548 0.0
O170 O 0.62769 0.90553 0.93576 0.0
O171 O 0.64352 0.88893 0.89933 0.0
C172 C 0.62784 0.89006 0.91716 0.0
O173 O 0.67649 0.88488 0.93422 0.0
O174 O 0.62421 0.94421 0.9628 0.0
O175 O 0.65239 0.94939 0.98545 0.0
O176 O 0.65853 0.90179 0.96893 0.0
C177 C 0.66863 0.88593 0.96006 0.0
O178 O 0.7014 0.91326 0.92898 0.0
O179 O 0.68564 0.93086 0.96471 0.0
O180 O 0.65743 0.95695 0.91347 0.0
O181 O 0.67457 0.88494 0.8643 0.0
O182 O 0.69893 0.90704 0.86802 0.0
O183 O 0.66494 0.93784 0.87501 0.0
C184 C 0.6227 0.94794 0.01297 0.0
C185 C 0.6191 0.9281 0.02262 0.0
C186 C 0.60845 0.96109 0.05695 0.0
C187 C 0.61007 0.92479 0.04933 0.0
C188 C 0.61741 0.96437 0.03027 0.0
C189 C 0.6046 0.94127 0.06677 0.0
C190 C 0.6328 0.95178 0.98555 0.0
C191 C 0.70241 0.92231 0.95443 0.0
H192 H 0.70652 0.88002 0.80375 0.0
H193 H 0.73928 0.84367 0.88413 0.0
H194 H 0.7344 0.85703 0.79386 0.0
H195 H 0.71148 0.86734 0.89386 0.0
H196 H 0.62329 0.91523 0.00954 0.0
H197 H 0.60472 0.9741 0.07001 0.0
H198 H 0.60711 0.90935 0.05613 0.0
H199 H 0.62034 0.97977 0.02322 0.0
Eu200 Eu 0.44413 0.42935 0.64439 0.0
Eu201 Eu 0.42059 0.40684 0.69319 0.0
C202 C 0.39471 0.41799 0.63352 0.0
C203 C 0.48122 0.44404 0.58339 0.0
C204 C 0.48462 0.42823 0.56378 0.0
C205 C 0.51172 0.46091 0.56604 0.0
C206 C 0.50103 0.42911 0.54487 0.0
C207 C 0.49523 0.46011 0.58482 0.0
C208 C 0.51438 0.44574 0.54528 0.0
C209 C 0.46202 0.44508 0.59969 0.0
O210 O 0.44666 0.38309 0.68326 0.0
O211 O 0.46272 0.39896 0.64616 0.0
C212 C 0.46195 0.38342 0.66438 0.0
O213 O 0.46816 0.42793 0.67851 0.0
O214 O 0.40876 0.37822 0.70973 0.0
O215 O 0.40118 0.40631 0.73111 0.0
O216 O 0.44862 0.41668 0.71626 0.0
C217 C 0.46573 0.42375 0.70576 0.0
O218 O 0.43556 0.45702 0.67351 0.0
O219 O 0.42065 0.44004 0.71092 0.0
O220 O 0.39482 0.40979 0.6593 0.0
O221 O 0.45025 0.42911 0.59888 0.0
O222 O 0.46223 0.45367 0.62483 0.0
O223 O 0.41189 0.42599 0.62393 0.0
C224 C 0.40334 0.37701 0.75969 0.0
C225 C 0.42191 0.36795 0.76654 0.0
C226 C 0.3898 0.36685 0.80582 0.0
C227 C 0.42426 0.35803 0.79271 0.0
C228 C 0.38742 0.37663 0.7796 0.0
C229 C 0.40814 0.3572 0.81247 0.0
C230 C 0.40005 0.38661 0.7318 0.0
C231 C 0.42763 0.45734 0.69978 0.0
H232 H 0.47409 0.41562 0.56203 0.0
H233 H 0.52159 0.47411 0.56649 0.0
H234 H 0.50275 0.41725 0.52905 0.0
H235 H 0.4929 0.47259 0.59949 0.0
H236 H 0.43447 0.36829 0.75154 0.0
H237 H 0.37706 0.36628 0.8205 0.0
H238 H 0.43863 0.35089 0.79744 0.0
H239 H 0.37301 0.38362 0.77465 0.0
Eu240 Eu 0.92333 0.19462 0.39756 0.0
Eu241 Eu 0.94368 0.17164 0.44592 0.0
C242 C 0.93505 0.14703 0.38523 0.0
C243 C 0.88816 0.22653 0.35164 0.0
C244 C 0.86777 0.2204 0.35018 0.0
C245 C 0.87818 0.26101 0.3406 0.0
C246 C 0.85282 0.23428 0.34318 0.0
C247 C 0.8932 0.24708 0.34762 0.0
C248 C 0.85797 0.25456 0.33729 0.0
C249 C 0.90409 0.21126 0.3553 0.0
O250 O 0.96837 0.19749 0.43601 0.0
O251 O 0.95316 0.21393 0.3991 0.0
C252 C 0.96846 0.21301 0.41747 0.0
O253 O 0.92029 0.21742 0.43315 0.0
O254 O 0.97174 0.15682 0.45883 0.0
O255 O 0.9444 0.15312 0.48435 0.0
O256 O 0.93716 0.20051 0.46883 0.0
C257 C 0.92741 0.21638 0.45928 0.0
O258 O 0.89523 0.18795 0.42776 0.0
O259 O 0.91108 0.17303 0.46558 0.0
O260 O 0.93549 0.14595 0.41336 0.0
O261 O 0.92174 0.21761 0.36424 0.0
O262 O 0.8986 0.19413 0.36704 0.0
O263 O 0.93462 0.16545 0.37427 0.0
C264 C 0.97544 0.15197 0.50911 0.0
C265 C 0.99413 0.16231 0.50986 0.0
C266 C 0.97844 0.14486 0.55983 0.0
C267 C 1.00491 0.16385 0.53544 0.0
C268 C 0.96777 0.1432 0.53427 0.0
C269 C 0.99717 0.15514 0.56071 0.0
C270 C 0.96381 0.14971 0.48246 0.0
C271 C 0.89419 0.1804 0.45423 0.0
H272 H 0.86341 0.20467 0.3531 0.0
H273 H 0.88253 0.27659 0.33628 0.0
H274 H 0.83747 0.2287 0.34027 0.0
H275 H 0.90882 0.25224 0.3487 0.0
H276 H 1.00049 0.16914 0.49074 0.0
H277 H 0.9719 0.13824 0.57897 0.0
H278 H 1.01944 0.17162 0.53532 0.0
H279 H 0.95342 0.13507 0.53418 0.0
Eu280 Eu 0.15383 0.67693 0.14914 0.0
Eu281 Eu 0.1771 0.69863 0.19721 0.0
C282 C 0.20186 0.68987 0.13589 0.0
C283 C 0.12288 0.63938 0.10678 0.0
C284 C 0.12868 0.62214 0.09153 0.0
C285 C 0.09055 0.62339 0.11802 0.0
C286 C 0.11546 0.60578 0.0891 0.0
C287 C 0.10396 0.63974 0.12076 0.0
C288 C 0.09607 0.60645 0.10167 0.0
C289 C 0.13705 0.65651 0.1081 0.0
O290 O 0.15196 0.72321 0.18583 0.0
O291 O 0.13489 0.70685 0.15019 0.0
C292 C 0.13625 0.7227 0.16767 0.0
O293 O 0.13215 0.67243 0.18586 0.0
O294 O 0.19185 0.72645 0.21197 0.0
O295 O 0.19467 0.69865 0.23644 0.0
O296 O 0.14675 0.69414 0.21826 0.0
C297 C 0.13182 0.68218 0.2103 0.0
O298 O 0.15952 0.64961 0.18019 0.0
O299 O 0.177 0.66561 0.21576 0.0
O300 O 0.20294 0.69332 0.16366 0.0
O301 O 0.13001 0.67379 0.11727 0.0
O302 O 0.15488 0.65229 0.11844 0.0
O303 O 0.18363 0.68634 0.12526 0.0
C304 C 0.1954 0.72903 0.2626 0.0
C305 C 0.18287 0.74611 0.26462 0.0
C306 C 0.20318 0.73201 0.31309 0.0
C307 C 0.18067 0.75618 0.29072 0.0
C308 C 0.20549 0.72209 0.28702 0.0
C309 C 0.19087 0.74926 0.31523 0.0
C310 C 0.19831 0.71808 0.23555 0.0
C311 C 0.1685 0.64876 0.20561 0.0
H312 H 0.1433 0.62155 0.08086 0.0
H313 H 0.07563 0.62426 0.12772 0.0
H314 H 0.11996 0.59313 0.0758 0.0
H315 H 0.09933 0.65278 0.13316 0.0
H316 H 0.17487 0.75176 0.2461 0.0
H317 H 0.21097 0.72607 0.33161 0.0
H318 H 0.17128 0.76957 0.29156 0.0
H319 H 0.21518 0.7089 0.28594 0.0
Eu320 Eu 0.94451 0.67368 0.55803 0.0
Eu321 Eu 0.92123 0.69618 0.6056 0.0
C322 C 0.92782 0.71886 0.54508 0.0
C323 C 0.97117 0.65618 0.4895 0.0
C324 C 0.97104 0.67548 0.4769 0.0
C325 C 0.98722 0.64256 0.44703 0.0
C326 C 0.97924 0.67835 0.44957 0.0
C327 C 0.97907 0.63973 0.47433 0.0
C328 C 0.98761 0.66194 0.43447 0.0
C329 C 0.96373 0.65305 0.51872 0.0
O330 O 0.89351 0.6891 0.57643 0.0
O331 O 0.91099 0.67401 0.53989 0.0
C332 C 0.89349 0.68112 0.55034 0.0
O333 O 0.94474 0.64916 0.5942 0.0
O334 O 0.92418 0.70313 0.65083 0.0
O335 O 0.89677 0.71162 0.62783 0.0
O336 O 0.92106 0.66287 0.623 0.0
C337 C 0.93273 0.64726 0.61674 0.0
O338 O 0.96898 0.69894 0.56924 0.0
O339 O 0.95103 0.71623 0.60288 0.0
O340 O 0.92091 0.72022 0.57137 0.0
O341 O 0.97277 0.66355 0.53858 0.0
O342 O 0.9441 0.65254 0.52212 0.0
O343 O 0.93701 0.70262 0.5355 0.0
C344 C 0.90718 0.73224 0.66655 0.0
C345 C 0.90716 0.73222 0.69641 0.0
C346 C 0.9039 0.76883 0.66663 0.0
C347 C 0.90472 0.75026 0.71136 0.0
C348 C 0.90643 0.75069 0.65164 0.0
C349 C 0.90215 0.76865 0.69661 0.0
C350 C 0.90693 0.71274 0.65174 0.0
C351 C 0.96762 0.71495 0.5866 0.0
H352 H 0.96489 0.68833 0.48835 0.0
H353 H 0.99381 0.62968 0.43616 0.0
H354 H 0.97916 0.69341 0.44035 0.0
H355 H 0.97929 0.62475 0.48384 0.0
H356 H 0.90797 0.71809 0.70818 0.0
H357 H 0.90213 0.78279 0.65474 0.0
H358 H 0.90315 0.74947 0.73438 0.0
H359 H 0.90685 0.75098 0.6285 0.0
Eu360 Eu 0.17264 0.1966 0.81178 0.0
Eu361 Eu 0.14955 0.1743 0.86052 0.0
C362 C 0.128 0.17953 0.79927 0.0
C363 C 0.19086 0.22925 0.74852 0.0
C364 C 0.1713 0.23376 0.73878 0.0
C365 C 0.20531 0.2469 0.70776 0.0
C366 C 0.16876 0.24482 0.71353 0.0
C367 C 0.20781 0.23589 0.73296 0.0
C368 C 0.18577 0.25146 0.6977 0.0
C369 C 0.19394 0.21675 0.77396 0.0
O370 O 0.15794 0.14693 0.83056 0.0
O371 O 0.17177 0.16387 0.7925 0.0
C372 C 0.16529 0.14653 0.80397 0.0
O373 O 0.19854 0.19008 0.84449 0.0
O374 O 0.12338 0.16725 0.88769 0.0
O375 O 0.15236 0.15318 0.89591 0.0
O376 O 0.17937 0.18463 0.88369 0.0
C377 C 0.19764 0.18734 0.87242 0.0
O378 O 0.14719 0.22078 0.82337 0.0
O379 O 0.13092 0.20465 0.86017 0.0
O380 O 0.12922 0.16857 0.82263 0.0
O381 O 0.18827 0.22437 0.79846 0.0
O382 O 0.18897 0.19769 0.77136 0.0
O383 O 0.14196 0.19289 0.79236 0.0
C384 C 0.12355 0.13338 0.90373 0.0
C385 C 0.11987 0.12469 0.93051 0.0
C386 C 0.11342 0.10192 0.8808 0.0
C387 C 0.11324 0.10462 0.9325 0.0
C388 C 0.12009 0.12203 0.87884 0.0
C389 C 0.1103 0.09292 0.9077 0.0
C390 C 0.13307 0.15343 0.90203 0.0
C391 C 0.13179 0.22033 0.84217 0.0
H392 H 0.15805 0.22862 0.75056 0.0
H393 H 0.2187 0.25153 0.69589 0.0
H394 H 0.15352 0.24829 0.70652 0.0
H395 H 0.223 0.23232 0.7401 0.0
H396 H 0.12261 0.13326 0.94989 0.0
H397 H 0.11136 0.09325 0.86137 0.0
H398 H 0.11058 0.09818 0.9535 0.0
H399 H 0.1231 0.12852 0.85797 0.0
Eu400 Eu 0.64915 0.43054 0.05875 0.0
Eu401 Eu 0.67205 0.40697 0.10571 0.0
C402 C 0.6646 0.38532 0.0447 0.0
C403 C 0.61867 0.44741 0.99376 0.0
C404 C 0.62257 0.42995 0.97755 0.0
C405 C 0.59416 0.4582 0.95855 0.0
C406 C 0.61241 0.42674 0.95175 0.0
C407 C 0.6044 0.46145 0.98419 0.0
C408 C 0.5981 0.44085 0.94205 0.0
C409 C 0.62955 0.4514 0.02041 0.0
O410 O 0.69897 0.41275 0.07438 0.0
O411 O 0.68249 0.43099 0.04013 0.0
C412 C 0.69946 0.42223 0.04935 0.0
O413 O 0.6517 0.45569 0.0937 0.0
O414 O 0.67094 0.38729 0.14309 0.0
O415 O 0.69943 0.40131 0.1301 0.0
O416 O 0.66752 0.43813 0.12857 0.0
C417 C 0.65967 0.45539 0.11958 0.0
O418 O 0.62441 0.40551 0.07077 0.0
O419 O 0.64251 0.38689 0.10278 0.0
O420 O 0.6748 0.38529 0.06877 0.0
O421 O 0.62114 0.44448 0.04375 0.0
O422 O 0.64909 0.4485 0.01978 0.0
O423 O 0.65284 0.4004 0.03739 0.0
C424 C 0.70104 0.36814 0.1475 0.0
C425 C 0.72159 0.36801 0.15484 0.0
C426 C 0.70158 0.3315 0.14233 0.0
C427 C 0.73205 0.34984 0.15609 0.0
C428 C 0.69113 0.34982 0.14069 0.0
C429 C 0.72209 0.33139 0.15028 0.0
C430 C 0.69063 0.38767 0.14613 0.0
C431 C 0.6258 0.38892 0.08713 0.0
H432 H 0.63351 0.41889 0.98478 0.0
H433 H 0.58339 0.46944 0.9514 0.0
H434 H 0.61558 0.41317 0.93955 0.0
H435 H 0.60128 0.47501 0.99646 0.0
H436 H 0.72951 0.38198 0.16 0.0
H437 H 0.69358 0.31743 0.13806 0.0
H438 H 0.74772 0.35017 0.16305 0.0
H439 H 0.67529 0.34958 0.13452 0.0
Eu440 Eu 0.42102 0.90533 0.31122 0.0
Eu441 Eu 0.44543 0.92846 0.35808 0.0
C442 C 0.46742 0.91866 0.29765 0.0
C443 C 0.40393 0.87382 0.24627 0.0
C444 C 0.39966 0.88306 0.21993 0.0
C445 C 0.41371 0.84319 0.22098 0.0
C446 C 0.40247 0.87253 0.19437 0.0
C447 C 0.41096 0.85375 0.24654 0.0
C448 C 0.40945 0.85245 0.1946 0.0
C449 C 0.40027 0.88496 0.27318 0.0
O450 O 0.43902 0.95542 0.32699 0.0
O451 O 0.42033 0.93866 0.29314 0.0
C452 C 0.42931 0.9557 0.30209 0.0
O453 O 0.39566 0.90872 0.34565 0.0
O454 O 0.45437 0.92768 0.40275 0.0
O455 O 0.46153 0.95416 0.37682 0.0
O456 O 0.4133 0.92554 0.3797 0.0
C457 C 0.39594 0.91736 0.37109 0.0
O458 O 0.44585 0.88069 0.3235 0.0
O459 O 0.46439 0.89844 0.35625 0.0
O460 O 0.46949 0.92518 0.32403 0.0
O461 O 0.40711 0.87704 0.2968 0.0
O462 O 0.40283 0.90455 0.27241 0.0
O463 O 0.45017 0.91142 0.28799 0.0
C464 C 0.48428 0.94531 0.41391 0.0
C465 C 0.48588 0.94484 0.44367 0.0
C466 C 0.52101 0.94727 0.41005 0.0
C467 C 0.50482 0.94593 0.45663 0.0
C468 C 0.50195 0.94599 0.39704 0.0
C469 C 0.5226 0.94767 0.44003 0.0
C470 C 0.46397 0.94499 0.4013 0.0
C471 C 0.46217 0.88179 0.34047 0.0
H472 H 0.39405 0.89845 0.21905 0.0
H473 H 0.4188 0.82763 0.22192 0.0
H474 H 0.39926 0.88016 0.17441 0.0
H475 H 0.41416 0.84609 0.26649 0.0
H476 H 0.47239 0.94414 0.45698 0.0
H477 H 0.53443 0.94852 0.39673 0.0
H478 H 0.50538 0.94653 0.47973 0.0
H479 H 0.50099 0.94599 0.37393 0.0
Eu480 Eu 0.17347 0.40615 0.39772 0.0
Eu481 Eu 0.15031 0.42937 0.4451 0.0
C482 C 0.16097 0.45482 0.38473 0.0
C483 C 0.2003 0.36855 0.34845 0.0
C484 C 0.20465 0.36384 0.32001 0.0
C485 C 0.21944 0.33935 0.36407 0.0
C486 C 0.21699 0.34742 0.3136 0.0
C487 C 0.20701 0.35582 0.37046 0.0
C488 C 0.22521 0.33551 0.33564 0.0
C489 C 0.19081 0.38795 0.35475 0.0
O490 O 0.12604 0.40374 0.4344 0.0
O491 O 0.14328 0.38678 0.39962 0.0
C492 C 0.12703 0.38793 0.41656 0.0
O493 O 0.1758 0.38376 0.43431 0.0
O494 O 0.12228 0.44245 0.46158 0.0
O495 O 0.15072 0.44794 0.48348 0.0
O496 O 0.15385 0.39912 0.46571 0.0
C497 C 0.16535 0.38386 0.45832 0.0
O498 O 0.2007 0.41286 0.42822 0.0
O499 O 0.1834 0.42888 0.46404 0.0
O500 O 0.1521 0.45455 0.41009 0.0
O501 O 0.17127 0.38775 0.35905 0.0
O502 O 0.20046 0.3995 0.37281 0.0
O503 O 0.16969 0.4379 0.37596 0.0
C504 C 0.1214 0.44526 0.5116 0.0
C505 C 0.12373 0.42613 0.52421 0.0
C506 C 0.1008 0.45587 0.55172 0.0
C507 C 0.11463 0.42189 0.55055 0.0
C508 C 0.10994 0.46009 0.52543 0.0
C509 C 0.10306 0.43673 0.56457 0.0
C510 C 0.13107 0.44995 0.4842 0.0
C511 C 0.20076 0.42133 0.454 0.0
H512 H 0.19954 0.37358 0.30285 0.0
H513 H 0.22548 0.33036 0.38142 0.0
H514 H 0.22141 0.34516 0.29152 0.0
H515 H 0.20359 0.35929 0.39258 0.0
H516 H 0.13262 0.41452 0.51373 0.0
H517 H 0.09168 0.46749 0.56173 0.0
H518 H 0.11678 0.40707 0.56001 0.0
H519 H 0.108 0.47491 0.51585 0.0
Eu520 Eu 0.9462 0.92796 0.14584 0.0
Eu521 Eu 0.92267 0.90494 0.19385 0.0
C522 C 0.89686 0.91669 0.13459 0.0
C523 C 0.98304 0.94259 0.08446 0.0
C524 C 0.98688 0.9266 0.06531 0.0
C525 C 1.01322 0.95992 0.06693 0.0
C526 C 1.00342 0.92757 0.04659 0.0
C527 C 0.99664 0.95902 0.08551 0.0
C528 C 1.01644 0.94448 0.04674 0.0
C529 C 0.96384 0.9434 0.10078 0.0
O530 O 0.9492 0.88172 0.18479 0.0
O531 O 0.9646 0.89737 0.14703 0.0
C532 C 0.96421 0.88199 0.16556 0.0
O533 O 0.9701 0.92701 0.18026 0.0
O534 O 0.9116 0.87606 0.21079 0.0
O535 O 0.90268 0.90414 0.23107 0.0
O536 O 0.95047 0.91509 0.2175 0.0
C537 C 0.96755 0.92256 0.20741 0.0
O538 O 0.93885 0.95532 0.17576 0.0
O539 O 0.92125 0.9384 0.21088 0.0
O540 O 0.89806 0.9054 0.1579 0.0
O541 O 0.9523 0.92724 0.1003 0.0
O542 O 0.964 0.95223 0.12576 0.0
O543 O 0.91305 0.92763 0.12763 0.0
C544 C 0.90604 0.87518 0.26044 0.0
C545 C 0.92077 0.88297 0.27919 0.0
C546 C 0.89847 0.84835 0.29425 0.0
C547 C 0.92427 0.87345 0.30547 0.0
C548 C 0.89488 0.85791 0.2682 0.0
C549 C 0.91328 0.85591 0.31307 0.0
C550 C 0.90236 0.88441 0.2324 0.0
C551 C 0.92945 0.95559 0.201 0.0
H552 H 0.97666 0.91373 0.06385 0.0
H553 H 1.02277 0.97336 0.06715 0.0
H554 H 1.00557 0.91548 0.03125 0.0
H555 H 0.99394 0.97165 0.09979 0.0
H556 H 0.92965 0.89625 0.27343 0.0
H557 H 0.88956 0.83503 0.29975 0.0
H558 H 0.93584 0.87952 0.31953 0.0
H559 H 0.88346 0.85173 0.25398 0.0
Eu560 Eu 0.42065 0.69929 0.89369 0.0
Eu561 Eu 0.44378 0.67618 0.94172 0.0
C562 C 0.43219 0.65011 0.88232 0.0
C563 C 0.4029 0.73317 0.83039 0.0
C564 C 0.3957 0.73074 0.80253 0.0
C565 C 0.40875 0.76894 0.82107 0.0
C566 C 0.39491 0.74722 0.78404 0.0
C567 C 0.40963 0.75228 0.83964 0.0
C568 C 0.40135 0.76652 0.79306 0.0
C569 C 0.4039 0.71516 0.8485 0.0
O570 O 0.4684 0.7011 0.9293 0.0
O571 O 0.45077 0.71884 0.89568 0.0
C572 C 0.46728 0.71721 0.91197 0.0
O573 O 0.42076 0.7231 0.92837 0.0
O574 O 0.4717 0.66255 0.95729 0.0
O575 O 0.44362 0.65832 0.98099 0.0
O576 O 0.43971 0.70643 0.96229 0.0
C577 C 0.42976 0.72239 0.95341 0.0
O578 O 0.39324 0.69009 0.92309 0.0
O579 O 0.41105 0.67815 0.9614 0.0
O580 O 0.43992 0.65009 0.90834 0.0
O581 O 0.42106 0.70547 0.84812 0.0
O582 O 0.3957 0.71585 0.8739 0.0
O583 O 0.42471 0.66736 0.87273 0.0
C584 C 0.4739 0.65864 0.00762 0.0
C585 C 0.48742 0.67493 0.01153 0.0
C586 C 0.48105 0.64698 0.05571 0.0
C587 C 0.49795 0.67702 0.03727 0.0
C588 C 0.47066 0.64483 0.02995 0.0
C589 C 0.49502 0.66295 0.05957 0.0
C590 C 0.46317 0.65548 0.9805 0.0
C591 C 0.39343 0.68389 0.95021 0.0
H592 H 0.39056 0.71602 0.79507 0.0
H593 H 0.41378 0.78365 0.82858 0.0
H594 H 0.38868 0.74491 0.76288 0.0
H595 H 0.41549 0.75429 0.86107 0.0
H596 H 0.49005 0.68587 0.99462 0.0
H597 H 0.47814 0.63611 0.0726 0.0
H598 H 0.50873 0.68938 0.03942 0.0
H599 H 0.46015 0.63226 0.02737 0.0
Eu600 Eu 0.65135 0.17721 0.64646 0.0
Eu601 Eu 0.67399 0.19909 0.69559 0.0
C602 C 0.6997 0.19007 0.6349 0.0
C603 C 0.62262 0.13977 0.5992 0.0
C604 C 0.61607 0.13507 0.57161 0.0
C605 C 0.60935 0.10761 0.61636 0.0
C606 C 0.60652 0.11658 0.56624 0.0
C607 C 0.61891 0.12619 0.62172 0.0
C608 C 0.60339 0.1025 0.58844 0.0
C609 C 0.63484 0.15801 0.60358 0.0
O610 O 0.64882 0.22346 0.68429 0.0
O611 O 0.63321 0.20786 0.64673 0.0
C612 C 0.63382 0.22333 0.66504 0.0
O613 O 0.62977 0.17192 0.68329 0.0
O614 O 0.68809 0.22706 0.71108 0.0
O615 O 0.69097 0.1992 0.73532 0.0
O616 O 0.64306 0.19513 0.7147 0.0
C617 C 0.62866 0.18248 0.70702 0.0
O618 O 0.65861 0.14957 0.67674 0.0
O619 O 0.67222 0.16643 0.7149 0.0
O620 O 0.7003 0.19345 0.66274 0.0
O621 O 0.62613 0.17301 0.61679 0.0
O622 O 0.65328 0.1549 0.61248 0.0
O623 O 0.6816 0.18675 0.6236 0.0
C624 C 0.68976 0.22938 0.76138 0.0
C625 C 0.66983 0.23038 0.77188 0.0
C626 C 0.70187 0.24661 0.80377 0.0
C627 C 0.66594 0.23939 0.79836 0.0
C628 C 0.70571 0.23763 0.77734 0.0
C629 C 0.68197 0.24742 0.81472 0.0
C630 C 0.69432 0.21868 0.73475 0.0
C631 C 0.66563 0.14915 0.70348 0.0
H632 H 0.61899 0.14539 0.55403 0.0
H633 H 0.607 0.09711 0.63388 0.0
H634 H 0.60242 0.11295 0.54442 0.0
H635 H 0.62396 0.12969 0.64319 0.0
H636 H 0.65735 0.22392 0.75981 0.0
H637 H 0.71448 0.25301 0.8156 0.0
H638 H 0.65049 0.23971 0.80629 0.0
H639 H 0.72119 0.23691 0.7695 0.0
H640 H 0.50846 0.21502 0.07251 0.0
H641 H 0.53404 0.24257 0.07273 0.0
H642 H 0.48835 0.2847 0.0994 0.0
H643 H 0.46301 0.25706 0.10035 0.0
H644 H 0.514 0.30388 0.05741 0.0
H645 H 0.52713 0.26816 0.14538 0.0
H646 H 0.53563 0.23829 0.1746 0.0
H647 H 0.59132 0.23116 0.12786 0.0
H648 H 0.58301 0.26084 0.09808 0.0
H649 H 0.583 0.39007 0.07702 0.0
H650 H 0.55736 0.36308 0.07783 0.0
H651 H 0.60391 0.31925 0.09479 0.0
H652 H 0.62914 0.34668 0.09666 0.0
H653 H 0.57729 0.29991 0.11365 0.0
H654 H 0.5659 0.33117 0.02331 0.0
H655 H 0.55857 0.35802 0.98823 0.0
H656 H 0.50212 0.37043 0.03067 0.0
H657 H 0.50923 0.34375 0.06619 0.0
C658 C 0.50362 0.23004 0.0787 0.0
C659 C 0.48289 0.2329 0.08667 0.0
C660 C 0.51863 0.24622 0.07884 0.0
C661 C 0.51406 0.26674 0.08613 0.0
C662 C 0.49326 0.26963 0.09355 0.0
C663 C 0.47841 0.25337 0.09422 0.0
C664 C 0.53047 0.28476 0.08616 0.0
C665 C 0.52768 0.30288 0.07014 0.0
C666 C 0.54933 0.28437 0.10144 0.0
C667 C 0.55435 0.26659 0.11933 0.0
C668 C 0.54111 0.26012 0.14118 0.0
C669 C 0.54591 0.24325 0.15787 0.0
C670 C 0.56398 0.2328 0.15304 0.0
C671 C 0.57731 0.23924 0.13155 0.0
C672 C 0.57257 0.2561 0.11477 0.0
C673 C 0.58801 0.37474 0.08103 0.0
C674 C 0.60895 0.37147 0.08691 0.0
C675 C 0.57293 0.35864 0.08097 0.0
C676 C 0.57755 0.33764 0.0854 0.0
C677 C 0.59861 0.33452 0.09119 0.0
C678 C 0.61356 0.35069 0.0922 0.0
C679 C 0.56106 0.31943 0.08473 0.0
C680 C 0.56375 0.30116 0.10073 0.0
C681 C 0.54241 0.31937 0.06854 0.0
C682 C 0.53822 0.33562 0.0476 0.0
C683 C 0.55199 0.3397 0.02526 0.0
C684 C 0.54787 0.35488 0.00529 0.0
C685 C 0.52992 0.36597 0.00728 0.0
C686 C 0.51604 0.36187 0.02921 0.0
C687 C 0.52011 0.34672 0.04927 0.0
H688 H 0.52674 0.37771 0.99178 0.0
H689 H 0.56767 0.21974 0.16599 0.0
H690 H 0.63427 0.76355 0.3276 0.0
H691 H 0.60709 0.7892 0.32781 0.0
H692 H 0.56424 0.74392 0.35545 0.0
H693 H 0.59152 0.71855 0.35654 0.0
H694 H 0.54591 0.76982 0.31176 0.0
H695 H 0.58039 0.78178 0.40109 0.0
H696 H 0.61 0.78983 0.43123 0.0
H697 H 0.61869 0.84597 0.38621 0.0
H698 H 0.58929 0.83812 0.35552 0.0
H699 H 0.46047 0.83913 0.32907 0.0
H700 H 0.48692 0.81331 0.33062 0.0
H701 H 0.53118 0.85921 0.35145 0.0
H702 H 0.50419 0.88458 0.35252 0.0
H703 H 0.54982 0.83233 0.36984 0.0
H704 H 0.52077 0.82193 0.27771 0.0
H705 H 0.49428 0.81537 0.24165 0.0
H706 H 0.47901 0.75914 0.28298 0.0
H707 H 0.50529 0.76547 0.31944 0.0
C708 C 0.61918 0.75882 0.33405 0.0
C709 C 0.61602 0.7382 0.34238 0.0
C710 C 0.60321 0.77387 0.33414 0.0
C711 C 0.58259 0.76942 0.34165 0.0
C712 C 0.5794 0.74873 0.34942 0.0
C713 C 0.59546 0.73386 0.35019 0.0
C714 C 0.56478 0.78585 0.34156 0.0
C715 C 0.5469 0.78332 0.32488 0.0
C716 C 0.56517 0.80451 0.35735 0.0
C717 C 0.58276 0.80927 0.37583 0.0
C718 C 0.58872 0.79577 0.39746 0.0
C719 C 0.60544 0.80031 0.41468 0.0
C720 C 0.61625 0.81838 0.41059 0.0
C721 C 0.61032 0.83197 0.38932 0.0
C722 C 0.59362 0.82749 0.37203 0.0
C723 C 0.47578 0.84396 0.33406 0.0
C724 C 0.47928 0.86477 0.34072 0.0
C725 C 0.4916 0.82878 0.33444 0.0
C726 C 0.51259 0.83315 0.34014 0.0
C727 C 0.51592 0.85408 0.34681 0.0
C728 C 0.5 0.86912 0.34734 0.0
C729 C 0.53057 0.81656 0.3398 0.0
C730 C 0.54859 0.81897 0.35651 0.0
C731 C 0.53067 0.79813 0.32312 0.0
C732 C 0.5148 0.7943 0.30148 0.0
C733 C 0.51168 0.80823 0.27918 0.0
C734 C 0.49671 0.80454 0.25867 0.0
C735 C 0.48492 0.78688 0.26008 0.0
C736 C 0.48811 0.77284 0.28196 0.0
C737 C 0.50304 0.77646 0.30255 0.0
H738 H 0.47335 0.78406 0.24419 0.0
H739 H 0.6292 0.82187 0.42394 0.0
H740 H 0.08624 0.8887 0.57918 0.0
H741 H 0.06046 0.86133 0.57861 0.0
H742 H 0.10594 0.81829 0.6026 0.0
H743 H 0.13146 0.84575 0.60454 0.0
H744 H 0.07965 0.80069 0.5593 0.0
H745 H 0.06788 0.83337 0.65004 0.0
H746 H 0.05993 0.86231 0.68138 0.0
H747 H 1.00372 0.87124 0.63702 0.0
H748 H 1.01148 0.84252 0.60515 0.0
H749 H 1.01016 0.71428 0.57416 0.0
H750 H 1.03595 0.74105 0.57598 0.0
H751 H 0.99011 0.7842 0.59938 0.0
H752 H 0.96475 0.75683 0.60013 0.0
H753 H 1.01712 0.80294 0.61789 0.0
H754 H 1.02759 0.776 0.52449 0.0
H755 H 1.03434 0.75087 0.48666 0.0
H756 H 0.09053 0.73516 0.52708 0.0
H757 H 0.08387 0.75995 0.56541 0.0
C758 C 0.09099 0.87352 0.58469 0.0
C759 C 0.11171 0.87037 0.59232 0.0
C760 C 0.07586 0.85744 0.58433 0.0
C761 C 0.0803 0.83671 0.5906 0.0
C762 C 0.1011 0.83353 0.59759 0.0
C763 C 0.11607 0.84969 0.59886 0.0
C764 C 0.06374 0.81879 0.58997 0.0
C765 C 0.06618 0.80127 0.5726 0.0
C766 C 1.04505 0.81873 0.60586 0.0
C767 C 1.04035 0.83592 0.62504 0.0
C768 C 0.0539 0.84161 0.64682 0.0
C769 C 1.04941 0.85795 0.66471 0.0
C770 C 1.03136 0.86864 0.66115 0.0
C771 C 1.01772 0.86297 0.63973 0.0
C772 C 1.02215 0.84665 0.62177 0.0
C773 C 1.00532 0.72941 0.57981 0.0
C774 C 0.98453 0.73243 0.5871 0.0
C775 C 1.0205 0.74542 0.58035 0.0
C776 C 1.01617 0.76621 0.58694 0.0
C777 C 0.99523 0.76911 0.59413 0.0
C778 C 0.98019 0.75296 0.59447 0.0
C779 C 1.03282 0.78436 0.58708 0.0
C780 C 1.03048 0.80206 0.60446 0.0
C781 C 0.0513 0.78494 0.57033 0.0
C782 C 0.05509 0.76961 0.54796 0.0
C783 C 1.04126 0.76702 0.52543 0.0
C784 C 1.04509 0.75286 0.5039 0.0
C785 C 0.06282 0.74136 0.50452 0.0
C786 C 0.07677 0.74401 0.52668 0.0
C787 C 0.07296 0.7581 0.54832 0.0
H788 H 0.06579 0.73044 0.4878 0.0
H789 H 1.02791 0.88129 0.67502 0.0
H790 H 0.96629 0.3455 0.80241 0.0
H791 H 0.99348 0.32016 0.80278 0.0
H792 H 1.0198 0.34896 0.87633 0.0
H793 H 0.99239 0.3741 0.87617 0.0
H794 H 1.03004 0.31293 0.8851 0.0
H795 H 1.02615 0.28687 0.76723 0.0
H796 H 1.01748 0.30071 0.71983 0.0
H797 H 1.03066 0.36097 0.74944 0.0
H798 H 1.03962 0.34747 0.79688 0.0
H799 H 0.09664 0.22468 0.87712 0.0
H800 H 0.06906 0.24941 0.87631 0.0
H801 H 0.09806 0.28044 0.80633 0.0
H802 H 0.12553 0.25524 0.80676 0.0
H803 H 0.06143 0.28799 0.7957 0.0
H804 H 0.0913 0.2978 0.88743 0.0
H805 H 0.10365 0.28847 0.93535 0.0
H806 H 1.04407 0.26721 0.95842 0.0
H807 H 1.03142 0.27622 0.9105 0.0
C808 C 0.9777 0.34664 0.81893 0.0
C809 C 0.97611 0.36265 0.83935 0.0
C810 C 0.9939 0.33184 0.81898 0.0
C811 C 1.01012 0.33177 0.83932 0.0
C812 C 1.00831 0.34764 0.85996 0.0
C813 C 0.99215 0.36247 0.85985 0.0
C814 C 1.02839 0.31562 0.83935 0.0
C815 C 1.03651 0.30757 0.8652 0.0
C816 C 1.03848 0.30797 0.8142 0.0
C817 C 1.03329 0.31617 0.7857 0.0
C818 C 1.02723 0.30306 0.7636 0.0
C819 C 1.02226 0.31085 0.73673 0.0
C820 C 1.02341 0.33171 0.73167 0.0
C821 C 1.02966 0.34483 0.75342 0.0
C822 C 1.03467 0.33711 0.7803 0.0
C823 C 0.09756 0.23679 0.86155 0.0
C824 C 0.11446 0.23725 0.84235 0.0
C825 C 0.08133 0.25151 0.86118 0.0
C826 C 0.08049 0.26821 0.84166 0.0
C827 C 0.09727 0.26847 0.82213 0.0
C828 C 0.11354 0.25371 0.82251 0.0
C829 C 0.06258 0.28477 0.84144 0.0
C830 C 0.05469 0.29307 0.81556 0.0
C831 C 0.05296 0.29296 0.86658 0.0
C832 C 0.06048 0.28748 0.89531 0.0
C833 C 0.08087 0.29102 0.90268 0.0
C834 C 0.08792 0.28581 0.92984 0.0
C835 C 0.07467 0.2772 0.94989 0.0
C836 C 0.05433 0.27384 0.94284 0.0
C837 C 1.04721 0.27901 0.9157 0.0
H838 H 0.08016 0.27317 0.9709 0.0
H839 H 1.01953 0.33772 0.71087 0.0
H840 H 0.59046 0.88562 0.94842 0.0
H841 H 0.56486 0.85825 0.94807 0.0
H842 H 0.59957 0.82641 0.8847 0.0
H843 H 0.62514 0.85367 0.8852 0.0
H844 H 0.58418 0.79713 0.91292 0.0
H845 H 0.51471 0.84081 0.95405 0.0
H846 H 0.50058 0.87536 0.95331 0.0
H847 H 0.53336 0.88839 0.87593 0.0
H848 H 0.54751 0.85386 0.87605 0.0
H849 H 0.5051 0.72042 0.94145 0.0
H850 H 0.53048 0.7479 0.94281 0.0
H851 H 0.4944 0.78275 0.88458 0.0
H852 H 0.46896 0.75529 0.88341 0.0
H853 H 0.5104 0.8106 0.9153 0.0
H854 H 0.54638 0.75627 0.87049 0.0
H855 H 0.56044 0.72185 0.86584 0.0
H856 H 0.59455 0.73038 0.943 0.0
H857 H 0.58051 0.76477 0.94826 0.0
C858 C 0.5928 0.87298 0.93406 0.0
C859 C 0.61061 0.8729 0.9166 0.0
C860 C 0.57768 0.85689 0.93372 0.0
C861 C 0.57907 0.83926 0.91597 0.0
C862 C 0.59705 0.83912 0.89886 0.0
C863 C 0.61205 0.85525 0.89904 0.0
C864 C 0.56246 0.8213 0.91524 0.0
C865 C 0.56811 0.80047 0.91373 0.0
C866 C 0.5408 0.82413 0.91562 0.0
C867 C 0.53233 0.84484 0.91526 0.0
C868 C 0.51886 0.85104 0.93686 0.0
C869 C 0.51086 0.87062 0.93655 0.0
C870 C 0.51613 0.88408 0.91464 0.0
C871 C 0.52936 0.87798 0.89294 0.0
C872 C 0.53738 0.85841 0.89314 0.0
C873 C 0.50241 0.73374 0.92853 0.0
C874 C 0.48427 0.73458 0.91196 0.0
C875 C 0.5174 0.74992 0.92921 0.0
C876 C 0.51558 0.76842 0.91343 0.0
C877 C 0.49726 0.76933 0.89722 0.0
C878 C 0.48235 0.75311 0.89639 0.0
C879 C 0.53214 0.78642 0.9139 0.0
C880 C 0.52648 0.80725 0.91502 0.0
C881 C 0.55379 0.7836 0.913 0.0
C882 C 0.56224 0.76299 0.90991 0.0
C883 C 0.55678 0.75075 0.88655 0.0
C884 C 0.56476 0.73126 0.88379 0.0
C885 C 0.57834 0.72391 0.90415 0.0
C886 C 0.58401 0.73607 0.92727 0.0
C887 C 0.57606 0.75557 0.93014 0.0
H888 H 0.58449 0.70882 0.90198 0.0
H889 H 0.50993 0.89924 0.91445 0.0
H890 H 0.49813 0.38033 0.63152 0.0
H891 H 0.52562 0.35556 0.63222 0.0
H892 H 0.49436 0.32193 0.69781 0.0
H893 H 0.46711 0.34734 0.6978 0.0
H894 H 0.52964 0.31254 0.7095 0.0
H895 H 0.50422 0.30836 0.6144 0.0
H896 H 0.49407 0.32054 0.5667 0.0
H897 H 0.5545 0.34298 0.55169 0.0
H898 H 0.56495 0.3311 0.59943 0.0
H899 H 0.62525 0.25563 0.70387 0.0
H900 H 0.59799 0.28093 0.70427 0.0
H901 H 0.5743 0.25599 0.62631 0.0
H902 H 0.60163 0.23075 0.6259 0.0
H903 H 0.56514 0.2929 0.6205 0.0
H904 H 0.56276 0.31135 0.74172 0.0
H905 H 0.56816 0.29439 0.78807 0.0
H906 H 0.55722 0.23644 0.74912 0.0
H907 H 0.55149 0.25306 0.70263 0.0
C908 C 0.49671 0.36764 0.64609 0.0
C909 C 0.47928 0.36654 0.66424 0.0
C910 C 0.51287 0.35287 0.64633 0.0
C911 C 0.51301 0.33538 0.66447 0.0
C912 C 0.4957 0.33449 0.68302 0.0
C913 C 0.47956 0.34938 0.68291 0.0
C914 C 0.53076 0.31865 0.66432 0.0
C915 C 0.53734 0.3087 0.68977 0.0
C916 C 0.54148 0.31189 0.6392 0.0
C917 C 0.5353 0.31904 0.61057 0.0
C918 C 0.51531 0.31599 0.60097 0.0
C919 C 0.50951 0.32283 0.57393 0.0
C920 C 0.52362 0.33258 0.55622 0.0
C921 C 0.54358 0.33546 0.56546 0.0
C922 C 0.54945 0.32866 0.59249 0.0
C923 C 0.61441 0.25534 0.68653 0.0
C924 C 0.61666 0.24036 0.66473 0.0
C925 C 0.59819 0.27011 0.68692 0.0
C926 C 0.58274 0.27125 0.66553 0.0
C927 C 0.58522 0.25643 0.64353 0.0
C928 C 0.60132 0.24155 0.64328 0.0
C929 C 0.56458 0.28746 0.66581 0.0
C930 C 0.55776 0.29711 0.64033 0.0
C931 C 0.55335 0.29358 0.69082 0.0
C932 C 0.55698 0.28346 0.7186 0.0
C933 C 0.56151 0.295 0.74305 0.0
C934 C 0.56461 0.28543 0.76935 0.0
C935 C 0.56311 0.26434 0.77151 0.0
C936 C 0.55846 0.25276 0.74739 0.0
C937 C 0.55532 0.26225 0.72105 0.0
H938 H 0.56549 0.25698 0.79189 0.0
H939 H 0.5191 0.33787 0.53529 0.0
H940 H 0.973 0.24775 0.38244 0.0
H941 H 0.99773 0.27557 0.38289 0.0
H942 H 1.02851 0.24769 0.45341 0.0
H943 H 1.00323 0.2199 0.45335 0.0
H944 H 1.0361 0.28468 0.46309 0.0
H945 H 1.04622 0.25331 0.37248 0.0
H946 H 1.03706 0.23987 0.32502 0.0
H947 H 1.01578 0.29858 0.29975 0.0
H948 H 1.02462 0.31231 0.34719 0.0
H949 H 0.09233 0.38108 0.45224 0.0
H950 H 0.06722 0.35334 0.45288 0.0
H951 H 0.09754 0.3253 0.38188 0.0
H952 H 0.1225 0.35318 0.38108 0.0
H953 H 0.06119 0.3148 0.37266 0.0
H954 H 1.03444 0.32032 0.49022 0.0
H955 H 1.04792 0.33058 0.53722 0.0
H956 H 0.10863 0.31882 0.50832 0.0
H957 H 0.09551 0.30814 0.46133 0.0
C958 C 0.98505 0.24712 0.39807 0.0
C959 C 0.98544 0.23045 0.41753 0.0
C960 C 0.99977 0.26348 0.39821 0.0
C961 C 1.01641 0.26467 0.4177 0.0
C962 C 1.01659 0.24815 0.43757 0.0
C963 C 1.0018 0.23172 0.43744 0.0
C964 C 1.033 0.2827 0.4174 0.0
C965 C 1.04118 0.29116 0.44302 0.0
C966 C 1.04123 0.29194 0.39192 0.0
C967 C 1.03588 0.28377 0.36346 0.0
C968 C 1.03948 0.26332 0.35685 0.0
C969 C 1.03436 0.25565 0.32995 0.0
C970 C 1.02579 0.26835 0.30941 0.0
C971 C 1.02238 0.28876 0.3157 0.0
C972 C 1.02745 0.29649 0.34258 0.0
C973 C 0.09385 0.36916 0.4365 0.0
C974 C 0.11022 0.37037 0.41648 0.0
C975 C 0.07919 0.35268 0.43706 0.0
C976 C 0.07963 0.33587 0.41772 0.0
C977 C 0.09586 0.33729 0.39747 0.0
C978 C 0.11057 0.3537 0.39701 0.0
C979 C 0.06364 0.31735 0.41833 0.0
C980 C 0.05577 0.30862 0.39275 0.0
C981 C 0.05599 0.30765 0.44383 0.0
C982 C 0.06398 0.31368 0.47214 0.0
C983 C 0.05066 0.31984 0.49394 0.0
C984 C 0.05824 0.32572 0.52057 0.0
C985 C 0.07912 0.32541 0.52571 0.0
C986 C 0.09247 0.3191 0.50428 0.0
C987 C 0.08496 0.31313 0.47764 0.0
H988 H 0.08497 0.33003 0.54632 0.0
H989 H 1.02183 0.26239 0.2886 0.0
H990 H 0.13325 0.76094 0.19653 0.0
H991 H 0.10598 0.78632 0.19675 0.0
H992 H 0.07115 0.74922 0.13931 0.0
H993 H 0.09839 0.72394 0.13904 0.0
H994 H 1.04331 0.76556 0.17032 0.0
H995 H 0.08958 0.83678 0.19867 0.0
H996 H 0.1242 0.85071 0.19282 0.0
H997 H 0.13287 0.81416 0.11792 0.0
H998 H 0.09823 0.8002 0.12315 0.0
H999 H 0.96892 0.84596 0.19871 0.0
H1000 H 0.9962 0.82074 0.1997 0.0
H1001 H 1.02794 0.85348 0.13372 0.0
H1002 H 1.00066 0.8788 0.13292 0.0
H1003 H 0.05737 0.83916 0.16282 0.0
H1004 H 0.99993 0.80097 0.12933 0.0
H1005 H 0.96533 0.78647 0.13073 0.0
H1006 H 0.9789 0.75635 0.20972 0.0
H1007 H 1.0135 0.77088 0.20897 0.0
C1008 C 0.11997 0.75802 0.18358 0.0
C1009 C 0.11907 0.73968 0.16743 0.0
C1010 C 0.10393 0.77299 0.1836 0.0
C1011 C 0.08551 0.77085 0.16766 0.0
C1012 C 0.08452 0.75231 0.15199 0.0
C1013 C 0.10062 0.73749 0.15171 0.0
C1014 C 0.06766 0.78733 0.16728 0.0
C1015 C 1.04677 0.78162 0.16891 0.0
C1016 C 0.07067 0.8089 0.16497 0.0
C1017 C 0.09141 0.8173 0.1615 0.0
C1018 C 0.09886 0.83177 0.18092 0.0
C1019 C 0.11849 0.83966 0.17772 0.0
C1020 C 0.13075 0.83327 0.15507 0.0
C1021 C 0.12339 0.81904 0.13551 0.0
C1022 C 0.10377 0.81112 0.1386 0.0
C1023 C 0.98151 0.84795 0.18404 0.0
C1024 C 0.98153 0.86514 0.16545 0.0
C1025 C 0.99756 0.83303 0.18449 0.0
C1026 C 1.01512 0.83396 0.16644 0.0
C1027 C 1.01525 0.85134 0.14818 0.0
C1028 C 0.99913 0.86618 0.14758 0.0
C1029 C 1.03299 0.81745 0.16668 0.0
C1030 C 0.05389 0.82314 0.16471 0.0
C1031 C 1.02999 0.79584 0.16866 0.0
C1032 C 1.00921 0.7872 0.16925 0.0
C1033 C 0.99548 0.79138 0.1471 0.0
C1034 C 0.97588 0.78314 0.14777 0.0
C1035 C 0.9699 0.77055 0.17035 0.0
C1036 C 0.98353 0.76614 0.19228 0.0
C1037 C 1.00314 0.77437 0.19174 0.0
H1038 H 0.95472 0.76418 0.17082 0.0
H1039 H 0.14594 0.83939 0.15264 0.0
H1040 H 0.20298 0.18515 0.93254 0.0
H1041 H 0.23416 0.1841 0.96125 0.0
H1042 H 0.27006 0.18744 0.88449 0.0
H1043 H 0.23888 0.18846 0.8558 0.0
H1044 H 0.29056 0.16349 0.91751 0.0
H1045 H 0.26332 0.22876 0.94015 0.0
H1046 H 0.23762 0.25305 0.95695 0.0
H1047 H 0.23535 0.22316 0.03846 0.0
H1048 H 0.26088 0.19854 0.02201 0.0
H1049 H 0.38694 0.17675 0.99101 0.0
H1050 H 0.35624 0.1785 0.96197 0.0
H1051 H 0.32032 0.18671 0.03802 0.0
H1052 H 0.35137 0.18615 0.06688 0.0
H1053 H 0.29953 0.20497 0.00469 0.0
H1054 H 0.32475 0.13841 0.98216 0.0
H1055 H 0.34988 0.11334 0.96579 0.0
H1056 H 0.35518 0.14427 0.8853 0.0
H1057 H 0.3302 0.16961 0.9013 0.0
C1058 C 0.21741 0.1858 0.92147 0.0
C1059 C 0.21755 0.18706 0.89109 0.0
C1060 C 0.2357 0.1853 0.93828 0.0
C1061 C 0.25555 0.18595 0.926 0.0
C1062 C 0.25564 0.18693 0.8956 0.0
C1063 C 0.23737 0.18761 0.87882 0.0
C1064 C 0.2758 0.18541 0.94427 0.0
C1065 C 0.29234 0.17285 0.93637 0.0
C1066 C 0.27918 0.19695 0.96982 0.0
C1067 C 0.26385 0.21169 0.97974 0.0
C1068 C 0.25723 0.22729 0.96158 0.0
C1069 C 0.24272 0.24113 0.97106 0.0
C1070 C 0.23481 0.23961 0.99873 0.0
C1071 C 0.24146 0.22429 0.01701 0.0
C1072 C 0.25596 0.2104 0.00763 0.0
C1073 C 0.37257 0.17873 0.00188 0.0
C1074 C 0.37245 0.18096 0.03211 0.0
C1075 C 0.35443 0.17958 0.98486 0.0
C1076 C 0.33461 0.18219 0.99673 0.0
C1077 C 0.33462 0.18459 0.02702 0.0
C1078 C 0.35281 0.18411 0.044 0.0
C1079 C 0.31436 0.1828 0.97823 0.0
C1080 C 0.2978 0.19546 0.98598 0.0
C1081 C 0.31086 0.17117 0.9527 0.0
C1082 C 0.32576 0.15597 0.943 0.0
C1083 C 0.33134 0.13988 0.96101 0.0
C1084 C 0.34555 0.12564 0.9518 0.0
C1085 C 0.35415 0.12724 0.92455 0.0
C1086 C 0.34852 0.14306 0.90641 0.0
C1087 C 0.33432 0.15735 0.91552 0.0
H1088 H 0.36516 0.11621 0.91747 0.0
H1089 H 0.22358 0.25035 0.00602 0.0
H1090 H 0.67988 0.46321 0.17165 0.0
H1091 H 0.68145 0.49395 0.2009 0.0
H1092 H 0.64144 0.52395 0.14218 0.0
H1093 H 0.64075 0.49343 0.11218 0.0
H1094 H 0.66067 0.55288 0.15889 0.0
H1095 H 0.63124 0.50447 0.22177 0.0
H1096 H 0.62733 0.47298 0.24975 0.0
H1097 H 0.68297 0.48588 0.29391 0.0
H1098 H 0.68734 0.51734 0.26593 0.0
H1099 H 0.68492 0.63901 0.24924 0.0
H1100 H 0.68427 0.60806 0.22028 0.0
H1101 H 0.64572 0.57922 0.28283 0.0
H1102 H 0.6472 0.60992 0.3124 0.0
H1103 H 0.66366 0.54982 0.26446 0.0
H1104 H 0.68535 0.5852 0.1549 0.0
H1105 H 0.68087 0.61729 0.12856 0.0
H1106 H 0.62817 0.63079 0.17914 0.0
H1107 H 0.6322 0.59869 0.20552 0.0
C1108 C 0.67125 0.47623 0.16476 0.0
C1109 C 0.66004 0.47496 0.13887 0.0
C1110 C 0.67197 0.49423 0.18208 0.0
C1111 C 0.66119 0.51227 0.17523 0.0
C1112 C 0.6501 0.51099 0.14916 0.0
C1113 C 0.64959 0.49306 0.13163 0.0
C1114 C 0.66166 0.53214 0.19441 0.0
C1115 C 0.66146 0.55184 0.18197 0.0
C1116 C 0.66202 0.53222 0.22513 0.0
C1117 C 0.65974 0.51312 0.2415 0.0
C1118 C 0.64274 0.50049 0.23726 0.0
C1119 C 0.64042 0.48267 0.25315 0.0
C1120 C 0.65493 0.4774 0.27353 0.0
C1121 C 0.67177 0.48995 0.27807 0.0
C1122 C 0.67418 0.50778 0.2622 0.0
C1123 C 0.67629 0.62615 0.25714 0.0
C1124 C 0.6662 0.62775 0.28395 0.0
C1125 C 0.67566 0.60807 0.23999 0.0
C1126 C 0.66449 0.59034 0.24799 0.0
C1127 C 0.65459 0.59194 0.27501 0.0
C1128 C 0.65541 0.60994 0.29232 0.0
C1129 C 0.66327 0.57049 0.22889 0.0
C1130 C 0.66317 0.55082 0.24136 0.0
C1131 C 0.66182 0.57044 0.19827 0.0
C1132 C 0.65923 0.58966 0.18238 0.0
C1133 C 0.67278 0.595 0.16033 0.0
C1134 C 0.67032 0.61319 0.1454 0.0
C1135 C 0.65429 0.6261 0.15224 0.0
C1136 C 0.64062 0.62081 0.17393 0.0
C1137 C 0.643 0.60263 0.18889 0.0
H1138 H 0.65243 0.64018 0.14068 0.0
H1139 H 0.65308 0.46362 0.28586 0.0
H1140 H 0.35496 0.90969 0.35695 0.0
H1141 H 0.32405 0.91075 0.38649 0.0
H1142 H 0.35985 0.92688 0.45974 0.0
H1143 H 0.39082 0.92624 0.43001 0.0
H1144 H 0.33005 0.90033 0.47808 0.0
H1145 H 0.32664 0.96156 0.4224 0.0
H1146 H 0.32609 0.98175 0.37804 0.0
H1147 H 0.27359 0.9487 0.34943 0.0
H1148 H 0.27398 0.92814 0.39349 0.0
H1149 H 0.24355 0.92012 0.57079 0.0
H1150 H 0.27489 0.92009 0.54249 0.0
H1151 H 0.23979 0.9229 0.46518 0.0
H1152 H 0.20854 0.92426 0.49373 0.0
H1153 H 0.26997 0.93974 0.44859 0.0
H1154 H 0.27296 0.8772 0.49938 0.0
H1155 H 0.27328 0.85377 0.54048 0.0
H1156 H 0.32526 0.88476 0.5748 0.0
H1157 H 0.32512 0.90853 0.53402 0.0
C1158 C 0.35652 0.91356 0.37932 0.0
C1159 C 0.37621 0.91792 0.39028 0.0
C1160 C 0.33841 0.91426 0.39658 0.0
C1161 C 0.33862 0.91908 0.42624 0.0
C1162 C 0.35835 0.9231 0.43734 0.0
C1163 C 0.37644 0.92278 0.41993 0.0
C1164 C 0.3187 0.91995 0.44525 0.0
C1165 C 0.31711 0.90926 0.47154 0.0
C1166 C 0.30076 0.93081 0.43752 0.0
C1167 C 0.30046 0.94318 0.41111 0.0
C1168 C 0.31506 0.9585 0.40656 0.0
C1169 C 0.31476 0.97003 0.38148 0.0
C1170 C 0.29984 0.96647 0.3609 0.0
C1171 C 0.28515 0.95142 0.36538 0.0
C1172 C 0.2854 0.93984 0.39041 0.0
C1173 C 0.24229 0.9208 0.54775 0.0
C1174 C 0.22268 0.92227 0.53533 0.0
C1175 C 0.26069 0.92045 0.53103 0.0
C1176 C 0.26091 0.92087 0.50049 0.0
C1177 C 0.24121 0.92249 0.4882 0.0
C1178 C 0.22285 0.92324 0.50494 0.0
C1179 C 0.28108 0.92 0.48168 0.0
C1180 C 0.28278 0.93073 0.45533 0.0
C1181 C 0.29896 0.90873 0.48902 0.0
C1182 C 0.29889 0.89477 0.51381 0.0
C1183 C 0.28436 0.87911 0.51581 0.0
C1184 C 0.28453 0.86576 0.53902 0.0
C1185 C 0.29927 0.8678 0.56024 0.0
C1186 C 0.31385 0.88323 0.55835 0.0
C1187 C 0.31373 0.89664 0.53519 0.0
H1188 H 0.29948 0.85735 0.57806 0.0
H1189 H 0.29964 0.97541 0.3415 0.0
H1190 H 0.95695 0.61194 0.61391 0.0
H1191 H 0.95603 0.58078 0.6427 0.0
H1192 H 0.90629 0.60454 0.69172 0.0
H1193 H 0.90717 0.63571 0.66281 0.0
H1194 H 0.89822 0.5662 0.68921 0.0
H1195 H 0.98187 0.5424 0.67776 0.0
H1196 H 1.01574 0.55791 0.67111 0.0
H1197 H 0.9947 0.61319 0.7091 0.0
H1198 H 0.96078 0.59793 0.71629 0.0
H1199 H 0.9062 0.46322 0.74676 0.0
H1200 H 0.90694 0.4942 0.71748 0.0
H1201 H 0.94946 0.52133 0.77578 0.0
H1202 H 0.94871 0.49036 0.80505 0.0
H1203 H 0.96099 0.53503 0.72641 0.0
H1204 H 0.89426 0.53512 0.76687 0.0
H1205 H 0.86014 0.52164 0.77808 0.0
H1206 H 0.84703 0.51671 0.68851 0.0
H1207 H 0.88118 0.52994 0.67677 0.0
C1208 C 0.94576 0.6108 0.63083 0.0
C1209 C 0.93223 0.62725 0.63532 0.0
C1210 C 0.94529 0.59258 0.64785 0.0
C1211 C 0.93123 0.58936 0.67068 0.0
C1212 C 0.91751 0.6057 0.67485 0.0
C1213 C 0.91808 0.62399 0.65798 0.0
C1214 C 0.93074 0.56941 0.68973 0.0
C1215 C 0.91215 0.55952 0.69693 0.0
C1216 C 0.94841 0.55983 0.70131 0.0
C1217 C 0.96874 0.56909 0.69726 0.0
C1218 C 0.98449 0.55785 0.68476 0.0
C1219 C 1.00369 0.5666 0.68088 0.0
C1220 C 1.00735 0.58655 0.68958 0.0
C1221 C 0.99183 0.59777 0.70227 0.0
C1222 C 0.97261 0.58908 0.70622 0.0
C1223 C 0.91568 0.47572 0.75374 0.0
C1224 C 0.92722 0.47351 0.77923 0.0
C1225 C 0.91605 0.49392 0.73666 0.0
C1226 C 0.92808 0.51128 0.74365 0.0
C1227 C 0.93985 0.5089 0.7689 0.0
C1228 C 0.93932 0.4908 0.78612 0.0
C1229 C 0.92853 0.53145 0.72509 0.0
C1230 C 0.94709 0.54151 0.71826 0.0
C1231 C 0.91083 0.54125 0.714 0.0
C1232 C 0.89034 0.53332 0.72096 0.0
C1233 C 0.88415 0.53103 0.74957 0.0
C1234 C 0.8648 0.52346 0.75602 0.0
C1235 C 0.85145 0.51827 0.73402 0.0
C1236 C 0.8574 0.5207 0.70553 0.0
C1237 C 0.87674 0.52825 0.69896 0.0
H1238 H 0.83647 0.51241 0.73906 0.0
H1239 H 1.02222 0.5933 0.68655 0.0
H1240 H 0.73996 0.90297 0.94387 0.0
H1241 H 0.77099 0.90159 0.9726 0.0
H1242 H 0.74335 0.93984 0.03593 0.0
H1243 H 0.71203 0.9406 0.00755 0.0
H1244 H 0.76571 0.9189 0.06632 0.0
H1245 H 0.82271 0.89762 0.97772 0.0
H1246 H 0.82801 0.90274 0.92597 0.0
H1247 H 0.79287 0.95729 0.92918 0.0
H1248 H 0.78755 0.95259 0.98098 0.0
H1249 H 0.85974 0.8951 0.14058 0.0
H1250 H 0.82881 0.89566 0.11157 0.0
H1251 H 0.85609 0.94025 0.05617 0.0
H1252 H 0.88729 0.93922 0.08482 0.0
H1253 H 0.83396 0.92151 0.02192 0.0
H1254 H 0.81211 0.94691 0.11239 0.0
H1255 H 0.80668 0.94701 0.16458 0.0
H1256 H 0.77149 0.89218 0.15826 0.0
H1257 H 0.77691 0.89165 0.10606 0.0
C1258 C 0.7403 0.91132 0.9638 0.0
C1259 C 0.72268 0.92213 0.97242 0.0
C1260 C 0.7586 0.91065 0.98059 0.0
C1261 C 0.76086 0.92098 0.00721 0.0
C1262 C 0.7431 0.93158 0.01595 0.0
C1263 C 0.72475 0.93215 0.99923 0.0
C1264 C 0.7811 0.92058 0.02575 0.0
C1265 C 0.78049 0.91935 0.05612 0.0
C1266 C 0.80132 0.9216 0.01416 0.0
C1267 C 0.80456 0.92462 0.98313 0.0
C1268 C 0.81617 0.91073 0.96738 0.0
C1269 C 0.81916 0.91355 0.93804 0.0
C1270 C 0.81072 0.93029 0.92428 0.0
C1271 C 0.79934 0.94429 0.93984 0.0
C1272 C 0.79631 0.94155 0.96918 0.0
C1273 C 0.85939 0.90517 0.12229 0.0
C1274 C 0.87688 0.91716 0.11594 0.0
C1275 C 0.84114 0.90566 0.1054 0.0
C1276 C 0.83879 0.91837 0.08094 0.0
C1277 C 0.85642 0.93016 0.07441 0.0
C1278 C 0.87471 0.92962 0.09126 0.0
C1279 C 0.81856 0.91928 0.06243 0.0
C1280 C 0.81917 0.92078 0.03208 0.0
C1281 C 0.79834 0.9189 0.07408 0.0
C1282 C 0.7951 0.91913 0.10539 0.0
C1283 C 0.80332 0.93481 0.12217 0.0
C1284 C 0.80024 0.93495 0.15174 0.0
C1285 C 0.7888 0.91958 0.16474 0.0
C1286 C 0.78038 0.90406 0.14817 0.0
C1287 C 0.78344 0.90384 0.11859 0.0
H1288 H 0.78642 0.91971 0.18764 0.0
H1289 H 0.81304 0.93244 0.90156 0.0
H1290 H 0.42906 0.64546 0.82253 0.0
H1291 H 0.4293 0.61506 0.79276 0.0
H1292 H 0.43347 0.5779 0.86816 0.0
H1293 H 0.43493 0.60864 0.89774 0.0
H1294 H 0.44921 0.55523 0.83516 0.0
H1295 H 0.3866 0.587 0.81138 0.0
H1296 H 0.36354 0.61406 0.79548 0.0
H1297 H 0.39519 0.61782 0.71527 0.0
H1298 H 0.41857 0.59092 0.73082 0.0
H1299 H 0.41948 0.46324 0.75836 0.0
H1300 H 0.42019 0.49415 0.78756 0.0
H1301 H 0.436 0.52929 0.71328 0.0
H1302 H 0.43548 0.49823 0.68399 0.0
H1303 H 0.40994 0.55217 0.74522 0.0
H1304 H 0.47091 0.51644 0.77169 0.0
H1305 H 0.48868 0.48583 0.78837 0.0
H1306 H 0.45441 0.48683 0.86654 0.0
H1307 H 0.43622 0.51726 0.85015 0.0
C1308 C 0.43 0.63089 0.83309 0.0
C1309 C 0.43187 0.63035 0.86334 0.0
C1310 C 0.4298 0.61293 0.81564 0.0
C1311 C 0.43061 0.59286 0.82707 0.0
C1312 C 0.43267 0.59241 0.85743 0.0
C1313 C 0.43343 0.61043 0.87484 0.0
C1314 C 0.42966 0.57286 0.80797 0.0
C1315 C 0.44027 0.55491 0.81577 0.0
C1316 C 0.41837 0.57093 0.78179 0.0
C1317 C 0.40446 0.58714 0.7724 0.0
C1318 C 0.38871 0.59369 0.79042 0.0
C1319 C 0.37557 0.60898 0.78147 0.0
C1320 C 0.37794 0.6177 0.75442 0.0
C1321 C 0.39341 0.61109 0.73624 0.0
C1322 C 0.40659 0.59582 0.7451 0.0
C1323 C 0.42308 0.47745 0.74787 0.0
C1324 C 0.42733 0.47742 0.71801 0.0
C1325 C 0.42365 0.49553 0.76502 0.0
C1326 C 0.42841 0.51502 0.75361 0.0
C1327 C 0.43228 0.51506 0.72365 0.0
C1328 C 0.43199 0.4969 0.70653 0.0
C1329 C 0.42941 0.5349 0.77254 0.0
C1330 C 0.41885 0.55272 0.76464 0.0
C1331 C 0.44024 0.53649 0.79898 0.0
C1332 C 0.45207 0.51902 0.80958 0.0
C1333 C 0.46717 0.51013 0.79244 0.0
C1334 C 0.4773 0.4928 0.80182 0.0
C1335 C 0.47257 0.48433 0.82841 0.0
C1336 C 0.45798 0.49337 0.84589 0.0
C1337 C 0.44778 0.51068 0.83659 0.0
H1338 H 0.48016 0.47073 0.83544 0.0
H1339 H 0.36776 0.62953 0.74753 0.0
H1340 H 0.74098 0.19102 0.65132 0.0
H1341 H 0.7721 0.18916 0.62273 0.0
H1342 H 0.73646 0.18683 0.5459 0.0
H1343 H 0.70526 0.18769 0.5748 0.0
H1344 H 0.76563 0.16728 0.5304 0.0
H1345 H 0.77262 0.23105 0.57715 0.0
H1346 H 0.77499 0.25606 0.61618 0.0
H1347 H 0.82554 0.22406 0.6517 0.0
H1348 H 0.82331 0.19871 0.61307 0.0
H1349 H 0.85351 0.18786 0.43737 0.0
H1350 H 0.82213 0.18947 0.46602 0.0
H1351 H 0.85627 0.17698 0.54206 0.0
H1352 H 0.88757 0.17504 0.51339 0.0
H1353 H 0.82825 0.20439 0.55721 0.0
H1354 H 0.82078 0.14134 0.50685 0.0
H1355 H 0.81896 0.11927 0.46439 0.0
H1356 H 0.76893 0.1538 0.43227 0.0
H1357 H 0.77062 0.17624 0.47438 0.0
C1358 C 0.73951 0.19024 0.62831 0.0
C1359 C 0.71972 0.18971 0.61619 0.0
C1360 C 0.75782 0.18937 0.61143 0.0
C1361 C 0.75787 0.18834 0.58094 0.0
C1362 C 0.738 0.18766 0.56888 0.0
C1363 C 0.71968 0.18828 0.58581 0.0
C1364 C 0.77804 0.18754 0.56204 0.0
C1365 C 0.77904 0.17581 0.53652 0.0
C1366 C 0.79666 0.19806 0.56863 0.0
C1367 C 0.79762 0.21283 0.59243 0.0
C1368 C 0.78409 0.22922 0.59346 0.0
C1369 C 0.78544 0.24349 0.61548 0.0
C1370 C 0.80036 0.24161 0.63646 0.0
C1371 C 0.81395 0.22545 0.63549 0.0
C1372 C 0.81265 0.21113 0.61354 0.0
C1373 C 0.85455 0.18525 0.46016 0.0
C1374 C 0.87389 0.18105 0.47224 0.0
C1375 C 0.83618 0.18613 0.47693 0.0
C1376 C 0.83578 0.18319 0.50714 0.0
C1377 C 0.85518 0.17935 0.51923 0.0
C1378 C 0.87348 0.17811 0.50241 0.0
C1379 C 0.81567 0.18421 0.52585 0.0
C1380 C 0.81475 0.19594 0.55127 0.0
C1381 C 0.79703 0.17405 0.51887 0.0
C1382 C 0.79596 0.16058 0.49362 0.0
C1383 C 0.80949 0.14431 0.49062 0.0
C1384 C 0.80846 0.13172 0.46664 0.0
C1385 C 0.79387 0.13517 0.44561 0.0
C1386 C 0.78024 0.15117 0.44855 0.0
C1387 C 0.78121 0.16382 0.47248 0.0
H1388 H 0.79311 0.1254 0.42706 0.0
H1389 H 0.80144 0.25272 0.65341 0.0
H1390 H 0.18105 0.46331 0.33246 0.0
H1391 H 0.1822 0.4944 0.30358 0.0
H1392 H 0.14314 0.52391 0.36419 0.0
H1393 H 0.14192 0.49272 0.39306 0.0
H1394 H 0.13222 0.53928 0.31564 0.0
H1395 H 0.19919 0.53361 0.35349 0.0
H1396 H 0.23206 0.51741 0.36343 0.0
H1397 H 0.24358 0.51197 0.2734 0.0
H1398 H 0.21065 0.52793 0.26293 0.0
H1399 H 0.14384 0.61382 0.20042 0.0
H1400 H 0.14227 0.5828 0.2296 0.0
H1401 H 0.19068 0.60559 0.28215 0.0
H1402 H 0.19193 0.63689 0.25337 0.0
H1403 H 0.19719 0.56532 0.27621 0.0
H1404 H 0.11086 0.54894 0.26916 0.0
H1405 H 0.07876 0.5677 0.26429 0.0
H1406 H 0.10692 0.62086 0.29972 0.0
H1407 H 0.13908 0.60236 0.30522 0.0
C1408 C 0.17261 0.4763 0.33995 0.0
C1409 C 0.16139 0.47466 0.3659 0.0
C1410 C 0.17341 0.49458 0.32314 0.0
C1411 C 0.16303 0.51266 0.33097 0.0
C1412 C 0.15152 0.51089 0.35667 0.0
C1413 C 0.15085 0.49265 0.37361 0.0
C1414 C 0.16418 0.53297 0.31286 0.0
C1415 C 0.14655 0.54461 0.30695 0.0
C1416 C 0.18261 0.54135 0.30125 0.0
C1417 C 0.20237 0.53177 0.30744 0.0
C1418 C 0.20867 0.52883 0.33582 0.0
C1419 C 0.22732 0.51971 0.34155 0.0
C1420 C 0.23987 0.51361 0.31906 0.0
C1421 C 0.23382 0.51667 0.29079 0.0
C1422 C 0.21518 0.52577 0.28495 0.0
C1423 C 0.15429 0.61244 0.21811 0.0
C1424 C 0.1681 0.62863 0.22372 0.0
C1425 C 0.15329 0.59435 0.23527 0.0
C1426 C 0.16625 0.59094 0.25907 0.0
C1427 C 0.1803 0.60698 0.26439 0.0
C1428 C 0.18101 0.62528 0.24759 0.0
C1429 C 0.16514 0.57111 0.27807 0.0
C1430 C 0.1828 0.55973 0.28442 0.0
C1431 C 0.14677 0.5631 0.2903 0.0
C1432 C 0.12746 0.5743 0.28726 0.0
C1433 C 0.11019 0.56462 0.27598 0.0
C1434 C 0.09198 0.57521 0.27312 0.0
C1435 C 0.09083 0.59548 0.28158 0.0
C1436 C 0.10785 0.60519 0.29306 0.0
C1437 C 0.12608 0.59465 0.29602 0.0
H1438 H 0.07674 0.60366 0.27927 0.0
H1439 H 0.2543 0.50655 0.32354 0.0
H1440 H 0.70388 0.68606 0.43201 0.0
H1441 H 0.73501 0.68488 0.46094 0.0
H1442 H 0.77115 0.68726 0.38437 0.0
H1443 H 0.74007 0.68866 0.35548 0.0
H1444 H 0.79066 0.66221 0.41887 0.0
H1445 H 0.76534 0.72895 0.4376 0.0
H1446 H 0.74025 0.75432 0.45301 0.0
H1447 H 0.7373 0.72682 0.53612 0.0
H1448 H 0.76219 0.70112 0.52109 0.0
H1449 H 0.88764 0.67527 0.491 0.0
H1450 H 0.85681 0.67698 0.46205 0.0
H1451 H 0.82145 0.68801 0.53788 0.0
H1452 H 0.85261 0.68752 0.56653 0.0
H1453 H 0.80102 0.70605 0.50343 0.0
H1454 H 0.8243 0.63857 0.48601 0.0
H1455 H 0.84822 0.61178 0.4717 0.0
H1456 H 0.85359 0.6383 0.38816 0.0
H1457 H 0.82985 0.66537 0.40209 0.0
C1458 C 0.71836 0.68648 0.42102 0.0
C1459 C 0.7186 0.68764 0.39063 0.0
C1460 C 0.7366 0.68587 0.43795 0.0
C1461 C 0.75649 0.68616 0.42578 0.0
C1462 C 0.75668 0.68701 0.39538 0.0
C1463 C 0.73847 0.68792 0.37849 0.0
C1464 C 0.77668 0.68546 0.44417 0.0
C1465 C 0.79278 0.6721 0.43712 0.0
C1466 C 0.78041 0.69761 0.46904 0.0
C1467 C 0.76546 0.713 0.47812 0.0
C1468 C 0.75922 0.72823 0.45909 0.0
C1469 C 0.74506 0.74268 0.46777 0.0
C1470 C 0.73714 0.74215 0.4955 0.0
C1471 C 0.74341 0.72719 0.51464 0.0
C1472 C 0.75756 0.71269 0.50605 0.0
C1473 C 0.87336 0.67788 0.50185 0.0
C1474 C 0.87344 0.68095 0.53194 0.0
C1475 C 0.85516 0.67868 0.4849 0.0
C1476 C 0.83545 0.68206 0.49677 0.0
C1477 C 0.83565 0.68527 0.52691 0.0
C1478 C 0.85391 0.68484 0.54378 0.0
C1479 C 0.81515 0.68265 0.47834 0.0
C1480 C 0.79899 0.69605 0.4853 0.0
C1481 C 0.81122 0.67027 0.45364 0.0
C1482 C 0.82549 0.6541 0.4452 0.0
C1483 C 0.83068 0.63874 0.46465 0.0
C1484 C 0.84419 0.6235 0.4566 0.0
C1485 C 0.85247 0.62337 0.42907 0.0
C1486 C 0.8472 0.63845 0.4095 0.0
C1487 C 0.83371 0.65373 0.41745 0.0
H1488 H 0.86293 0.61157 0.42288 0.0
H1489 H 0.72618 0.75335 0.50218 0.0
H1490 H 0.15526 0.10621 0.81987 0.0
H1491 H 0.15417 0.07498 0.79126 0.0
H1492 H 0.17337 0.10859 0.7171 0.0
H1493 H 0.17448 0.13983 0.74574 0.0
H1494 H 0.14704 0.08186 0.69775 0.0
H1495 H 0.20458 0.07071 0.75957 0.0
H1496 H 0.22184 0.06767 0.80609 0.0
H1497 H 0.18031 1.02036 0.83101 0.0
H1498 H 0.1627 1.02326 0.78473 0.0
H1499 H 0.16401 0.99477 0.60622 0.0
H1500 H 0.16507 1.02553 0.63536 0.0
H1501 H 0.15764 0.98947 0.71139 0.0
H1502 H 0.1576 0.95853 0.68207 0.0
H1503 H 0.17738 1.01757 0.73076 0.0
H1504 H 0.11902 1.02756 0.67332 0.0
H1505 H 0.09791 1.03082 0.63014 0.0
H1506 H 0.1357 0.07978 0.60039 0.0
H1507 H 0.1572 0.07665 0.64325 0.0
C1508 C 0.15949 0.10716 0.79755 0.0
C1509 C 0.16524 0.12633 0.78597 0.0
C1510 C 0.15894 0.08886 0.78079 0.0
C1511 C 0.16397 0.08834 0.75113 0.0
C1512 C 0.1694 0.10759 0.73952 0.0
C1513 C 0.17015 0.12584 0.75633 0.0
C1514 C 0.16338 0.06832 0.73241 0.0
C1515 C 0.15405 0.06799 0.70509 0.0
C1516 C 0.17156 1.04919 0.74115 0.0
C1517 C 0.18223 1.04733 0.76881 0.0
C1518 C 0.19908 0.05973 0.77504 0.0
C1519 C 0.20893 0.05802 0.80134 0.0
C1520 C 0.20215 1.04386 0.82151 0.0
C1521 C 0.18554 1.03133 0.81538 0.0
C1522 C 0.17564 1.03299 0.7891 0.0
C1523 C 0.16247 0.99314 0.62913 0.0
C1524 C 0.16055 0.97333 0.64095 0.0
C1525 C 0.16286 1.01123 0.64629 0.0
C1526 C 0.1609 1.01105 0.67667 0.0
C1527 C 0.15915 0.99115 0.68848 0.0
C1528 C 0.15902 0.97301 0.6713 0.0
C1529 C 0.16111 1.03101 0.69576 0.0
C1530 C 0.17038 1.03137 0.72321 0.0
C1531 C 0.1524 0.05007 0.68744 0.0
C1532 C 0.13988 0.05167 0.6613 0.0
C1533 C 0.12295 1.03888 0.65742 0.0
C1534 C 0.11089 1.04074 0.63304 0.0
C1535 C 0.11552 0.05543 0.61247 0.0
C1536 C 0.13219 0.06835 0.61629 0.0
C1537 C 0.14431 0.06654 0.64062 0.0
H1538 H 0.10617 0.05685 0.59362 0.0
H1539 H 0.20979 1.04257 0.84187 0.0
H1540 H 0.73558 0.40054 0.0572 0.0
H1541 H 0.76639 0.39879 0.02813 0.0
H1542 H 0.74125 0.44197 0.9693 0.0
H1543 H 0.70984 0.44293 0.99792 0.0
H1544 H 0.7626 0.42199 0.93681 0.0
H1545 H 0.78604 0.449 0.02526 0.0
H1546 H 0.79138 0.45075 0.07736 0.0
H1547 H 0.82264 0.39385 0.07513 0.0
H1548 H 0.81729 0.39166 0.02304 0.0
H1549 H 0.85464 0.39632 0.85941 0.0
H1550 H 0.82366 0.39735 0.88842 0.0
H1551 H 0.8544 0.43458 0.95037 0.0
H1552 H 0.88571 0.43271 0.92183 0.0
H1553 H 0.83038 0.41656 0.98135 0.0
H1554 H 0.77193 0.39691 0.89352 0.0
H1555 H 0.76707 0.40154 0.84165 0.0
H1556 H 0.80657 0.45358 0.84287 0.0
H1557 H 0.81148 0.44938 0.89478 0.0
C1558 C 0.73642 0.40988 0.03824 0.0
C1559 C 0.71949 0.42209 0.03089 0.0
C1560 C 0.75461 0.40903 0.02127 0.0
C1561 C 0.75752 0.42064 0.99587 0.0
C1562 C 0.74044 0.43269 0.98835 0.0
C1563 C 0.7221 0.43336 0.00519 0.0
C1564 C 0.77775 0.42001 0.97737 0.0
C1565 C 0.77727 0.42068 0.94699 0.0
C1566 C 0.79785 0.41885 0.98908 0.0
C1567 C 0.80108 0.42007 0.02033 0.0
C1568 C 0.79395 0.43681 0.03592 0.0
C1569 C 0.79699 0.43788 0.06544 0.0
C1570 C 0.80729 0.42239 0.07956 0.0
C1571 C 0.81463 0.40582 0.06417 0.0
C1572 C 0.81161 0.40466 0.03465 0.0
C1573 C 0.85504 0.40478 0.87917 0.0
C1574 C 0.87349 0.4144 0.88746 0.0
C1575 C 0.83679 0.40563 0.89608 0.0
C1576 C 0.8354 0.41656 0.9223 0.0
C1577 C 0.85399 0.42596 0.93072 0.0
C1578 C 0.87232 0.42492 0.91396 0.0
C1579 C 0.8152 0.418 0.94076 0.0
C1580 C 0.81569 0.41762 0.97114 0.0
C1581 C 0.79517 0.42001 0.92907 0.0
C1582 C 0.79224 0.42268 0.89794 0.0
C1583 C 0.77953 0.40937 0.88271 0.0
C1584 C 0.77678 0.41191 0.85332 0.0
C1585 C 0.78656 0.4278 0.83896 0.0
C1586 C 0.79906 0.44123 0.85399 0.0
C1587 C 0.80185 0.43877 0.88339 0.0
H1588 H 0.78442 0.42973 0.81621 0.0
H1589 H 0.80963 0.42325 0.1024 0.0
H1590 H 0.45521 0.98994 0.30297 0.0
H1591 H 0.45588 1.0205 0.2728 0.0
H1592 H 0.40362 0.99859 0.22727 0.0
H1593 H 0.40332 0.96767 0.25691 0.0
H1594 H 0.39833 1.03861 0.23223 0.0
H1595 H 0.48537 0.0542 0.22871 0.0
H1596 H 0.51793 1.03624 0.22408 0.0
H1597 H 0.48671 0.98342 0.19292 0.0
H1598 H 0.45398 1.00113 0.19701 0.0
H1599 H 0.41179 0.13975 0.17098 0.0
H1600 H 0.4112 0.10903 0.20058 0.0
H1601 H 0.44999 0.07919 0.1399 0.0
H1602 H 0.45088 0.11011 0.11055 0.0
H1603 H 0.4613 0.0639 0.18615 0.0
H1604 H 0.39285 0.06942 0.15463 0.0
H1605 H 0.35957 0.0855 0.14733 0.0
H1606 H 0.35219 0.09199 0.23806 0.0
H1607 H 0.38555 0.07615 0.24589 0.0
C1608 C 0.44373 0.99141 0.28663 0.0
C1609 C 0.42913 0.97556 0.28328 0.0
C1610 C 0.4442 1.00924 0.26885 0.0
C1611 C 0.42986 1.0128 0.24672 0.0
C1612 C 0.41507 0.9971 0.24366 0.0
C1613 C 0.41491 0.97901 0.26098 0.0
C1614 C 0.43018 1.03253 0.22737 0.0
C1615 C 0.41232 1.04403 0.22258 0.0
C1616 C 0.44791 1.04038 0.21322 0.0
C1617 C 0.46719 1.02896 0.21344 0.0
C1618 C 0.48543 1.0387 0.22109 0.0
C1619 C 0.50392 1.0286 0.21842 0.0
C1620 C 0.50438 1.00879 0.20797 0.0
C1621 C 0.48632 0.99882 0.20089 0.0
C1622 C 0.46777 1.00885 0.20351 0.0
C1623 C 0.42025 0.12674 0.1636 0.0
C1624 C 0.43135 0.12824 0.13752 0.0
C1625 C 0.41977 0.10864 0.18083 0.0
C1626 C 0.43023 0.09056 0.17324 0.0
C1627 C 0.44155 0.09219 0.14732 0.0
C1628 C 0.44202 0.11029 0.13007 0.0
C1629 C 0.42966 0.07046 0.19194 0.0
C1630 C 0.44741 0.05876 0.19637 0.0
C1631 C 0.41178 0.06227 0.20541 0.0
C1632 C 0.39178 0.0718 0.20082 0.0
C1633 C 0.38419 0.0744 0.17301 0.0
C1634 C 0.3653 0.08345 0.16878 0.0
C1635 C 0.3538 0.08982 0.19221 0.0
C1636 C 0.36113 0.08709 0.21993 0.0
C1637 C 0.38002 0.07806 0.22428 0.0
H1638 H 0.33918 0.09682 0.1889 0.0
H1639 H 0.51876 1.00117 0.20533 0.0
H1640 H 0.20601 0.42606 0.51349 0.0
H1641 H 0.23665 0.42476 0.54276 0.0
H1642 H 0.27291 0.41678 0.46695 0.0
H1643 H 0.24191 0.41655 0.43795 0.0
H1644 H 0.29423 0.39959 0.50029 0.0
H1645 H 0.26749 0.46503 0.52188 0.0
H1646 H 0.24226 0.49024 0.53744 0.0
H1647 H 0.2373 0.46076 0.61903 0.0
H1648 H 0.26236 0.43525 0.60384 0.0
H1649 H 0.38921 0.42501 0.57436 0.0
H1650 H 0.35807 0.42541 0.54541 0.0
H1651 H 0.32246 0.41282 0.62052 0.0
H1652 H 0.35365 0.41188 0.64939 0.0
H1653 H 0.3015 0.44071 0.58815 0.0
H1654 H 0.33129 0.37655 0.56465 0.0
H1655 H 0.35823 0.35373 0.54757 0.0
H1656 H 0.35945 0.38462 0.46678 0.0
H1657 H 0.33268 0.4078 0.48351 0.0
C1658 C 0.22045 0.42417 0.50273 0.0
C1659 C 0.22068 0.42168 0.47255 0.0
C1660 C 0.23854 0.42366 0.51987 0.0
C1661 C 0.25843 0.42135 0.50813 0.0
C1662 C 0.25855 0.41872 0.47786 0.0
C1663 C 0.24039 0.41872 0.46079 0.0
C1664 C 0.27861 0.42122 0.52681 0.0
C1665 C 0.29555 0.40901 0.51915 0.0
C1666 C 0.28168 0.43291 0.55242 0.0
C1667 C 0.26661 0.44812 0.5616 0.0
C1668 C 0.26092 0.46387 0.54308 0.0
C1669 C 0.24667 0.47821 0.55183 0.0
C1670 C 0.23813 0.47706 0.57917 0.0
C1671 C 0.24389 0.4616 0.59784 0.0
C1672 C 0.25812 0.44721 0.58918 0.0
C1673 C 0.37486 0.4222 0.58502 0.0
C1674 C 0.37478 0.41831 0.61495 0.0
C1675 C 0.35665 0.42238 0.56807 0.0
C1676 C 0.33695 0.41904 0.57987 0.0
C1677 C 0.33684 0.41549 0.60988 0.0
C1678 C 0.35509 0.41488 0.62672 0.0
C1679 C 0.31687 0.41927 0.56138 0.0
C1680 C 0.30003 0.43143 0.56915 0.0
C1681 C 0.31409 0.40794 0.53555 0.0
C1682 C 0.33013 0.39403 0.52544 0.0
C1683 C 0.33741 0.37857 0.54332 0.0
C1684 C 0.35263 0.36556 0.53369 0.0
C1685 C 0.36058 0.36776 0.50614 0.0
C1686 C 0.35329 0.38295 0.48813 0.0
C1687 C 0.33809 0.39602 0.49767 0.0
H1688 H 0.37236 0.35766 0.49872 0.0
H1689 H 0.2271 0.48818 0.58591 0.0
H1690 H 0.94193 0.14223 0.32594 0.0
H1691 H 0.94172 0.11173 0.29617 0.0
H1692 H 0.92599 0.0756 0.3697 0.0
H1693 H 0.92754 0.10607 0.39975 0.0
H1694 H 0.94415 0.05051 0.34218 0.0
H1695 H 0.89254 0.09161 0.30093 0.0
H1696 H 0.87727 0.12189 0.27898 0.0
H1697 H 0.92024 0.11903 0.20993 0.0
H1698 H 0.93589 0.08885 0.23164 0.0
H1699 H 0.91457 0.96242 0.25685 0.0
H1700 H 0.91501 0.99321 0.28637 0.0
H1701 H 0.94417 1.02598 0.21805 0.0
H1702 H 0.94356 0.99519 0.18837 0.0
H1703 H 0.91911 0.05225 0.24259 0.0
H1704 H 0.96694 1.00659 0.28424 0.0
H1705 H 0.97723 0.97425 0.30595 0.0
H1706 H 0.93693 0.98451 0.37662 0.0
H1707 H 0.92557 1.01645 0.35463 0.0
C1708 C 0.93838 0.12787 0.33605 0.0
C1709 C 0.9347 0.12744 0.366 0.0
C1710 C 0.93796 0.10995 0.31853 0.0
C1711 C 0.93316 0.09025 0.32939 0.0
C1712 C 0.92969 0.08988 0.35948 0.0
C1713 C 0.93052 0.10775 0.3771 0.0
C1714 C 0.93202 0.07044 0.31008 0.0
C1715 C 0.93832 0.05121 0.32059 0.0
C1716 C 0.92479 0.06998 0.28112 0.0
C1717 C 0.91552 0.08813 0.26808 0.0
C1718 C 0.8988 0.09753 0.28115 0.0
C1719 C 0.89007 0.11465 0.26875 0.0
C1720 C 0.89782 0.12242 0.24312 0.0
C1721 C 0.91428 0.11303 0.22981 0.0
C1722 C 0.92308 0.0959 0.24214 0.0
C1723 C 0.92104 0.9761 0.24774 0.0
C1724 C 0.92895 0.97553 0.21943 0.0
C1725 C 0.92146 0.99408 0.2651 0.0
C1726 C 0.92993 1.01283 0.25552 0.0
C1727 C 0.93748 1.01234 0.227 0.0
C1728 C 0.93715 0.99433 0.20967 0.0
C1729 C 0.9311 1.0325 0.27481 0.0
C1730 C 0.92489 0.05166 0.26424 0.0
C1731 C 0.93793 1.03275 0.30391 0.0
C1732 C 0.94525 1.01388 0.31761 0.0
C1733 C 0.96014 1.00191 0.30432 0.0
C1734 C 0.96615 0.98361 0.31665 0.0
C1735 C 0.95783 0.97737 0.34271 0.0
C1736 C 0.94338 0.98937 0.35643 0.0
C1737 C 0.93707 1.00753 0.34396 0.0
H1738 H 0.96258 0.96323 0.35226 0.0
H1739 H 0.89104 0.13568 0.23355 0.0
H1740 H 0.20602 0.68665 0.07588 0.0
H1741 H 0.23645 0.68612 0.04564 0.0
H1742 H 0.27401 0.69115 0.1204 0.0
H1743 H 0.24343 0.69255 0.15053 0.0
H1744 H 0.29507 0.70925 0.08482 0.0
H1745 H 0.26507 0.6441 0.06884 0.0
H1746 H 0.2384 0.61943 0.05569 0.0
H1747 H 0.23456 0.64589 0.97203 0.0
H1748 H 0.26107 0.67087 0.9848 0.0
H1749 H 0.38857 0.68135 0.01001 0.0
H1750 H 0.35788 0.68283 0.03992 0.0
H1751 H 0.3212 0.6883 0.96452 0.0
H1752 H 0.35201 0.68726 0.93457 0.0
H1753 H 0.29994 0.66472 1.00002 0.0
H1754 H 0.33113 0.7293 0.01675 0.0
H1755 H 0.35653 0.75479 0.03165 0.0
H1756 H 0.35853 0.72831 0.11542 0.0
H1757 H 0.33328 0.70253 0.10095 0.0
C1758 C 0.22068 0.68766 0.08621 0.0
C1759 C 0.22145 0.68963 0.11646 0.0
C1760 C 0.23857 0.68708 0.06851 0.0
C1761 C 0.25868 0.68802 0.07971 0.0
C1762 C 0.25938 0.69026 0.10999 0.0
C1763 C 0.24147 0.69103 0.12768 0.0
C1764 C 0.27856 0.68701 0.06044 0.0
C1765 C 0.29594 0.69912 0.06665 0.0
C1766 C 0.28083 0.67439 0.03562 0.0
C1767 C 0.26488 0.65948 0.02788 0.0
C1768 C 0.25844 0.64473 0.0477 0.0
C1769 C 0.24337 0.63069 0.04031 0.0
C1770 C 0.23475 0.63114 0.01308 0.0
C1771 C 0.24122 0.64559 0.99314 0.0
C1772 C 0.25628 0.65969 0.00043 0.0
C1773 C 0.37406 0.68287 0.99946 0.0
C1774 C 0.37358 0.68408 0.96908 0.0
C1775 C 0.3561 0.68388 0.01698 0.0
C1776 C 0.33624 0.6859 0.00544 0.0
C1777 C 0.33572 0.68677 0.97503 0.0
C1778 C 0.35374 0.68617 0.95752 0.0
C1779 C 0.3164 0.68686 0.02459 0.0
C1780 C 0.29905 0.67476 0.01831 0.0
C1781 C 0.31426 0.6993 0.04955 0.0
C1782 C 0.33042 0.71389 0.05769 0.0
C1783 C 0.33718 0.72874 0.03823 0.0
C1784 C 0.35145 0.74332 0.04666 0.0
C1785 C 0.359 0.74325 0.07453 0.0
C1786 C 0.35257 0.7284 0.09389 0.0
C1787 C 0.33829 0.71381 0.08559 0.0
H1788 H 0.36987 0.75469 0.08112 0.0
H1789 H 0.22308 0.62025 0.00739 0.0
H1790 H 0.66919 0.14368 0.7629 0.0
H1791 H 0.66742 0.11306 0.79221 0.0
H1792 H 0.65982 0.07688 0.71647 0.0
H1793 H 0.66031 0.10791 0.68721 0.0
H1794 H 0.64138 0.05588 0.75112 0.0
H1795 H 0.70789 0.08245 0.76991 0.0
H1796 H 0.73354 0.10782 0.78439 0.0
H1797 H 0.70524 0.11282 0.86685 0.0
H1798 H 0.6793 0.08763 0.85274 0.0
H1799 H 0.66326 0.96065 0.82552 0.0
H1800 H 0.66372 0.99146 0.79588 0.0
H1801 H 0.65988 1.02816 0.87155 0.0
H1802 H 0.65928 0.99734 0.90119 0.0
H1803 H 0.68426 1.04845 0.83712 0.0
H1804 H 0.61862 1.01995 0.81743 0.0
H1805 H 0.59421 0.99365 0.80209 0.0
H1806 H 0.62295 0.99109 0.71969 0.0
H1807 H 0.64769 1.01721 0.73467 0.0
C1808 C 0.66731 0.12928 0.7521 0.0
C1809 C 0.66526 0.12909 0.72185 0.0
C1810 C 0.6665 0.11122 0.7693 0.0
C1811 C 0.66419 0.09137 0.7576 0.0
C1812 C 0.66181 0.09125 0.72728 0.0
C1813 C 0.66223 0.10941 0.71008 0.0
C1814 C 0.66393 0.07127 0.77646 0.0
C1815 C 0.65116 0.05448 0.76958 0.0
C1816 C 0.67603 0.06821 0.80162 0.0
C1817 C 0.69155 0.08333 0.81017 0.0
C1818 C 0.70709 0.08905 0.79107 0.0
C1819 C 0.72168 0.10338 0.79922 0.0
C1820 C 0.72099 0.11197 0.8265 0.0
C1821 C 0.70573 0.10619 0.84572 0.0
C1822 C 0.69109 0.09187 0.83767 0.0
C1823 C 0.66238 0.97518 0.83617 0.0
C1824 C 0.66109 0.97566 0.86655 0.0
C1825 C 0.66254 0.99324 0.81881 0.0
C1826 C 0.6616 1.01317 0.83049 0.0
C1827 C 0.6606 1.01362 0.86089 0.0
C1828 C 0.66017 0.99557 0.87823 0.0
C1829 C 0.66185 1.03316 0.8116 0.0
C1830 C 0.67457 0.04991 0.81856 0.0
C1831 C 0.64994 1.03606 0.78632 0.0
C1832 C 0.63513 1.02037 0.77728 0.0
C1833 C 0.61982 1.01366 0.79611 0.0
C1834 C 0.60591 0.99881 0.78747 0.0
C1835 C 0.60706 0.99066 0.75996 0.0
C1836 C 0.6221 0.99739 0.74101 0.0
C1837 C 0.63606 1.01223 0.74956 0.0
H1838 H 0.59628 0.97917 0.75331 0.0
H1839 H 0.7323 0.12307 0.83276 0.0
H1840 H 0.51301 0.19231 0.91989 0.0
H1841 H 0.53211 0.19554 0.87532 0.0
H1842 H 0.50802 0.1381 0.84671 0.0
H1843 H 0.48873 0.13481 0.89126 0.0
H1844 H 0.5485 0.13981 0.84051 0.0
H1845 H 0.49265 0.18245 0.81697 0.0
H1846 H 0.46811 0.21018 0.82299 0.0
H1847 H 0.51683 0.25374 0.82275 0.0
H1848 H 0.5417 0.22626 0.81731 0.0
H1849 H 0.59991 0.15222 0.70701 0.0
H1850 H 0.57166 0.14793 0.7408 0.0
H1851 H 0.58927 0.20324 0.78348 0.0
H1852 H 0.61726 0.20772 0.74994 0.0
H1853 H 0.54839 0.20031 0.77748 0.0
H1854 H 0.6039 0.15856 0.80931 0.0
H1855 H 0.62963 0.13193 0.80304 0.0
H1856 H 0.58258 0.08787 0.78824 0.0
H1857 H 0.55655 0.11435 0.79397 0.0
C1858 C 0.51144 0.18056 0.90389 0.0
C1859 C 0.49938 0.16329 0.90913 0.0
C1860 C 0.52239 0.18242 0.87841 0.0
C1861 C 0.52137 0.16713 0.85759 0.0
C1862 C 0.50904 0.15006 0.86251 0.0
C1863 C 0.49809 0.14818 0.888 0.0
C1864 C 0.53419 0.16843 0.83157 0.0
C1865 C 0.54816 0.15284 0.82637 0.0
C1866 C 0.53403 0.18564 0.81348 0.0
C1867 C 0.51908 0.20223 0.81701 0.0
C1868 C 0.49816 0.19791 0.81851 0.0
C1869 C 0.48418 0.2136 0.82178 0.0
C1870 C 0.49091 0.2337 0.82334 0.0
C1871 C 0.51163 0.23816 0.82161 0.0
C1872 C 0.52568 0.22253 0.81843 0.0
C1873 C 0.59762 0.16354 0.72345 0.0
C1874 C 0.61092 0.18017 0.72605 0.0
C1875 C 0.58153 0.16105 0.74272 0.0
C1876 C 0.57854 0.17518 0.76475 0.0
C1877 C 0.59135 0.19216 0.76665 0.0
C1878 C 0.60743 0.1946 0.74758 0.0
C1879 C 0.56282 0.17194 0.78691 0.0
C1880 C 0.54839 0.18714 0.79138 0.0
C1881 C 0.56269 0.15451 0.80453 0.0
C1882 C 0.57829 0.13848 0.80174 0.0
C1883 C 0.59904 0.14322 0.80453 0.0
C1884 C 0.61368 0.12815 0.80109 0.0
C1885 C 0.60775 0.10823 0.79514 0.0
C1886 C 0.58715 0.10332 0.79278 0.0
C1887 C 0.57245 0.11835 0.79613 0.0
H1888 H 0.61911 0.09659 0.79244 0.0
H1889 H 0.48005 0.24582 0.82583 0.0
H1890 H 0.676 0.79057 0.18655 0.0
H1891 H 0.67172 0.80861 0.14131 0.0
H1892 H 0.67775 0.75238 0.09515 0.0
H1893 H 0.68206 0.73417 0.14053 0.0
H1894 H 0.70202 0.7849 0.07332 0.0
H1895 H 0.63281 0.7712 0.09772 0.0
H1896 H 0.60253 0.76975 0.12879 0.0
H1897 H 0.60487 0.83439 0.13927 0.0
H1898 H 0.63527 0.83621 0.10856 0.0
H1899 H 0.67795 0.84608 0.9487 0.0
H1900 H 0.67882 0.81799 0.98326 0.0
H1901 H 0.66555 0.85985 0.05155 0.0
H1902 H 0.66429 0.88756 0.01755 0.0
H1903 H 0.64173 0.82763 0.05523 0.0
H1904 H 0.7137 0.84076 0.03931 0.0
H1905 H 0.74452 0.8434 0.00944 0.0
H1906 H 0.73757 0.78114 0.98434 0.0
H1907 H 0.70654 0.77822 0.01381 0.0
C1908 C 0.6764 0.78206 0.16676 0.0
C1909 C 0.67935 0.761 0.16699 0.0
C1910 C 0.67385 0.79233 0.14099 0.0
C1911 C 0.67428 0.78177 0.11497 0.0
C1912 C 0.6773 0.76075 0.11505 0.0
C1913 C 0.67963 0.7504 0.14092 0.0
C1914 C 0.67209 0.79302 0.08783 0.0
C1915 C 0.68867 0.79392 0.06894 0.0
C1916 C 0.65473 0.80488 0.08239 0.0
C1917 C 0.63641 0.80382 0.10093 0.0
C1918 C 0.62695 0.78509 0.10681 0.0
C1919 C 0.60973 0.78421 0.12432 0.0
C1920 C 0.60177 0.80196 0.136 0.0
C1921 C 0.61101 0.82064 0.13017 0.0
C1922 C 0.62822 0.82161 0.11268 0.0
C1923 C 0.67539 0.84923 0.97113 0.0
C1924 C 0.67092 0.86898 0.98038 0.0
C1925 C 0.67587 0.8332 0.99082 0.0
C1926 C 0.67215 0.83683 0.01997 0.0
C1927 C 0.66821 0.85664 0.02915 0.0
C1928 C 0.66756 0.8725 0.00962 0.0
C1929 C 0.67203 0.82029 0.04143 0.0
C1930 C 0.65493 0.8183 0.05919 0.0
C1931 C 0.68897 0.80763 0.04597 0.0
C1932 C 0.70768 0.80935 0.02846 0.0
C1933 C 0.71866 0.82768 0.02725 0.0
C1934 C 0.73618 0.82922 0.01042 0.0
C1935 C 0.74296 0.81246 0.99492 0.0
C1936 C 0.73227 0.79412 0.9963 0.0
C1937 C 0.71473 0.79251 0.01307 0.0
H1938 H 0.75652 0.81368 0.9819 0.0
H1939 H 0.58844 0.80125 0.14954 0.0
H1940 H 0.96399 0.93443 0.26252 0.0
H1941 H 0.99114 0.93921 0.29742 0.0
H1942 H 1.03562 0.92333 0.2336 0.0
H1943 H 1.00839 0.91895 0.19813 0.0
H1944 H 1.03592 0.90122 0.2904 0.0
H1945 H 1.03724 0.96627 0.24819 0.0
H1946 H 1.02442 0.99874 0.22996 0.0
H1947 H 1.00574 1.01559 0.31457 0.0
H1948 H 1.01758 0.98284 0.3332 0.0
H1949 H 0.11129 0.92305 0.39768 0.0
H1950 H 0.09348 0.92078 0.3519 0.0
H1951 H 1.04144 0.95003 0.38943 0.0
H1952 H 0.05909 0.9523 0.43511 0.0
H1953 H 0.05119 0.9665 0.33855 0.0
H1954 H 1.04248 0.89882 0.37756 0.0
H1955 H 0.05449 0.86616 0.39656 0.0
H1956 H 0.08714 0.85518 0.31859 0.0
H1957 H 0.07553 0.88793 0.29927 0.0
C1958 C 0.97957 0.93211 0.25585 0.0
C1959 C 0.98417 0.92629 0.22771 0.0
C1960 C 0.99503 0.93497 0.27572 0.0
C1961 C 1.01531 0.93179 0.26793 0.0
C1962 C 1.02001 0.92598 0.23984 0.0
C1963 C 1.00453 0.92355 0.21968 0.0
C1964 C 1.03122 0.93349 0.28994 0.0
C1965 C 1.03965 0.91555 0.30057 0.0
C1966 C 1.03572 0.9522 0.30332 0.0
C1967 C 1.02807 0.97182 0.29206 0.0
C1968 C 1.03002 0.97666 0.26288 0.0
C1969 C 1.02296 0.99518 0.25246 0.0
C1970 C 1.01419 1.00918 0.27107 0.0
C1971 C 1.01252 1.00471 0.30016 0.0
C1972 C 1.01934 0.98612 0.31064 0.0
C1973 C 0.09596 0.92877 0.39622 0.0
C1974 C 0.08658 0.93788 0.41998 0.0
C1975 C 0.08585 0.92753 0.37005 0.0
C1976 C 0.06613 0.93522 0.36729 0.0
C1977 C 0.05671 0.94415 0.39104 0.0
C1978 C 0.06681 0.94544 0.41712 0.0
C1979 C 0.05515 0.93417 0.33974 0.0
C1980 C 1.04769 0.95224 0.32808 0.0
C1981 C 0.0514 0.9156 0.32552 0.0
C1982 C 0.05836 0.89593 0.33713 0.0
C1983 C 0.05237 0.88953 0.36457 0.0
C1984 C 0.05907 0.87098 0.37538 0.0
C1985 C 0.07163 0.85864 0.35883 0.0
C1986 C 0.07746 0.86478 0.33141 0.0
C1987 C 0.07081 0.88333 0.32052 0.0
H1988 H 0.0768 0.84429 0.36723 0.0
H1989 H 1.00875 1.02352 0.26298 0.0
H1990 H 0.92323 0.25664 0.44671 0.0
H1991 H 0.91889 0.28453 0.48111 0.0
H1992 H 0.91914 0.24144 0.5505 0.0
H1993 H 0.92374 0.21378 0.51664 0.0
H1994 H 0.88684 0.271 0.55134 0.0
H1995 H 0.96021 0.26463 0.53728 0.0
H1996 H 0.99095 0.26542 0.50705 0.0
H1997 H 0.97887 0.32721 0.48421 0.0
H1998 H 0.9478 0.32664 0.51386 0.0
H1999 H 0.90752 0.30974 0.68478 0.0
H2000 H 0.90955 0.29155 0.63948 0.0
H2001 H 0.92046 0.34796 0.59503 0.0
H2002 H 0.91887 0.36624 0.64066 0.0
H2003 H 0.94358 0.31826 0.57347 0.0
H2004 H 0.87351 0.32656 0.59444 0.0
H2005 H 0.842 0.32569 0.623 0.0
H2006 H 0.84653 0.26104 0.63098 0.0
H2007 H 0.87826 0.26153 0.60294 0.0
C2008 C 0.92223 0.25321 0.46932 0.0
C2009 C 0.92391 0.23317 0.47916 0.0
C2010 C 0.91983 0.26908 0.48882 0.0
C2011 C 0.91876 0.2649 0.51818 0.0
C2012 C 0.91994 0.24486 0.52787 0.0
C2013 C 0.92267 0.22913 0.50855 0.0
C2014 C 0.91675 0.28118 0.5394 0.0
C2015 C 0.89917 0.28141 0.55624 0.0
C2016 C 0.93265 0.2951 0.54487 0.0
C2017 C 0.95152 0.2955 0.52745 0.0
C2018 C 0.96399 0.27832 0.52559 0.0
C2019 C 0.98149 0.27873 0.50859 0.0
C2020 C 0.98681 0.29633 0.49363 0.0
C2021 C 0.97469 0.31357 0.49574 0.0
C2022 C 0.95713 0.31321 0.51262 0.0
C2023 C 0.91043 0.31823 0.66535 0.0
C2024 C 0.91278 0.33936 0.66605 0.0
C2025 C 0.91153 0.30787 0.63951 0.0
C2026 C 0.91459 0.3185 0.61385 0.0
C2027 C 0.91788 0.33953 0.6146 0.0
C2028 C 0.91702 0.34991 0.64059 0.0
C2029 C 0.91396 0.30745 0.58641 0.0
C2030 C 0.93098 0.30826 0.56829 0.0
C2031 C 0.89745 0.29449 0.57961 0.0
C2032 C 0.87836 0.29412 0.59667 0.0
C2033 C 0.86789 0.31217 0.60247 0.0
C2034 C 0.84996 0.31174 0.61856 0.0
C2035 C 0.84227 0.29332 0.62881 0.0
C2036 C 0.85249 0.27529 0.62301 0.0
C2037 C 0.87045 0.27564 0.60701 0.0
H2038 H 0.82838 0.29301 0.64122 0.0
H2039 H 1.00034 0.29662 0.48046 0.0
H2040 H 0.61329 0.91256 0.10741 0.0
H2041 H 0.5955 0.90654 0.15275 0.0
H2042 H 0.5555 0.95642 0.13474 0.0
H2043 H 0.57294 0.96238 0.08948 0.0
H2044 H 0.56745 0.95636 0.19057 0.0
H2045 H 0.54237 0.90792 0.11988 0.0
H2046 H 0.54597 0.87964 0.08583 0.0
H2047 H 0.56793 0.84138 0.1531 0.0
H2048 H 0.56493 0.8696 0.1874 0.0
H2049 H 0.46723 0.91261 0.24022 0.0
H2050 H 0.49597 0.91318 0.20757 0.0
H2051 H 0.5366 0.92438 0.27806 0.0
H2052 H 0.50762 0.9242 0.31116 0.0
H2053 H 0.5302 0.89128 0.20239 0.0
H2054 H 0.57511 0.95828 0.24835 0.0
H2055 H 0.5706 0.98605 0.28303 0.0
H2056 H 0.50674 0.98714 0.26518 0.0
H2057 H 0.51101 0.96004 0.22949 0.0
C2058 C 0.60068 0.92221 0.11311 0.0
C2059 C 0.59448 0.93791 0.09479 0.0
C2060 C 0.59064 0.91883 0.13909 0.0
C2061 C 0.57418 0.93102 0.14705 0.0
C2062 C 0.56829 0.94697 0.12912 0.0
C2063 C 0.57829 0.95034 0.10324 0.0
C2064 C 0.56208 0.9266 0.17306 0.0
C2065 C 0.55949 0.94205 0.19338 0.0
C2066 C 0.55184 0.90786 0.17681 0.0
C2067 C 0.55372 0.89096 0.1561 0.0
C2068 C 0.54819 0.89355 0.12733 0.0
C2069 C 0.55012 0.87752 0.10799 0.0
C2070 C 0.55731 0.85876 0.11725 0.0
C2071 C 0.56251 0.85596 0.1459 0.0
C2072 C 0.56073 0.87197 0.16529 0.0
C2073 C 0.48225 0.91511 0.24892 0.0
C2074 C 0.48512 0.91863 0.27825 0.0
C2075 C 0.4987 0.91526 0.23021 0.0
C2076 C 0.51839 0.91888 0.24037 0.0
C2077 C 0.52148 0.92171 0.26979 0.0
C2078 C 0.50492 0.92173 0.2886 0.0
C2079 C 0.53512 0.92123 0.21943 0.0
C2080 C 0.5386 0.90539 0.20006 0.0
C2081 C 0.54606 0.93965 0.21649 0.0
C2082 C 0.54336 0.95685 0.23659 0.0
C2083 C 0.56014 0.96458 0.25162 0.0
C2084 C 0.55763 0.98025 0.27141 0.0
C2085 C 0.53838 0.9883 0.27638 0.0
C2086 C 0.52163 0.98084 0.26138 0.0
C2087 C 0.52411 0.96539 0.24125 0.0
H2088 H 0.53645 1.00036 0.29182 0.0
H2089 H 0.55876 0.84636 0.10226 0.0
H2090 H 0.39637 0.36809 0.8665 0.0
H2091 H 0.39722 0.34714 0.90984 0.0
H2092 H 0.42456 0.29859 0.86184 0.0
H2093 H 0.4236 0.3193 0.81855 0.0
H2094 H 0.39127 0.28627 0.89427 0.0
H2095 H 0.4528 0.32602 0.90553 0.0
H2096 H 0.47281 0.35758 0.90995 0.0
H2097 H 0.4382 0.37436 0.98406 0.0
H2098 H 0.41778 0.34301 0.97982 0.0
H2099 H 0.4358 0.2184 0.98776 0.0
H2100 H 0.42955 0.2448 0.95275 0.0
H2101 H 0.40299 0.28242 0.01808 0.0
H2102 H 0.40922 0.25585 0.05375 0.0
H2103 H 0.4305 0.30314 0.98154 0.0
H2104 H 0.37213 0.26096 0.97422 0.0
H2105 H 0.35254 0.22911 0.97022 0.0
H2106 H 0.38063 0.21685 0.88922 0.0
H2107 H 0.40071 0.24841 0.89295 0.0
C2108 C 0.40262 0.35296 0.86528 0.0
C2109 C 0.40995 0.34531 0.83919 0.0
C2110 C 0.40317 0.34108 0.89002 0.0
C2111 C 0.41095 0.32135 0.88896 0.0
C2112 C 0.41848 0.31379 0.86303 0.0
C2113 C 0.41808 0.32568 0.8384 0.0
C2114 C 0.4108 0.30821 0.91457 0.0
C2115 C 0.39992 0.28988 0.91332 0.0
C2116 C 0.42144 0.31338 0.93976 0.0
C2117 C 0.43358 0.33232 0.94212 0.0
C2118 C 0.4493 0.33655 0.92258 0.0
C2119 C 0.46076 0.35437 0.92509 0.0
C2120 C 0.45673 0.368 0.94721 0.0
C2121 C 0.44127 0.36382 0.96689 0.0
C2122 C 0.42975 0.34603 0.96445 0.0
C2123 C 0.42868 0.23227 0.99488 0.0
C2124 C 0.42294 0.23499 0.02359 0.0
C2125 C 0.42504 0.24732 0.97475 0.0
C2126 C 0.41557 0.26539 0.9828 0.0
C2127 C 0.41021 0.26847 0.01151 0.0
C2128 C 0.41374 0.25328 0.03178 0.0
C2129 C 0.41152 0.28091 0.96082 0.0
C2130 C 0.42153 0.29969 0.96273 0.0
C2131 C 0.4 0.27619 0.93622 0.0
C2132 C 0.38802 0.25707 0.93394 0.0
C2133 C 0.37429 0.25139 0.95566 0.0
C2134 C 0.36307 0.23339 0.95343 0.0
C2135 C 0.36533 0.22099 0.92946 0.0
C2136 C 0.37888 0.2265 0.90775 0.0
C2137 C 0.39017 0.24446 0.9099 0.0
H2138 H 0.35652 0.20714 0.92764 0.0
H2139 H 0.46564 0.38178 0.94915 0.0
H2140 H 0.11639 0.20467 0.75649 0.0
H2141 H 0.08987 0.19892 0.72132 0.0
H2142 H 0.07433 0.14209 0.76177 0.0
H2143 H 0.10117 0.14765 0.79724 0.0
H2144 H 0.08061 0.1391 0.70339 0.0
H2145 H 1.04232 0.18078 0.76719 0.0
H2146 H 1.0366 0.21065 0.79775 0.0
H2147 H 1.04172 0.2497 0.72462 0.0
H2148 H 1.04782 0.2201 0.69366 0.0
H2149 H 1.00172 0.12602 0.60191 0.0
H2150 H 1.02004 0.12887 0.64699 0.0
H2151 H 1.03745 0.19022 0.62561 0.0
H2152 H 1.01826 0.18787 0.5812 0.0
H2153 H 1.02658 0.18826 0.67946 0.0
H2154 H 0.06978 0.14971 0.61748 0.0
H2155 H 0.07984 0.12171 0.58567 0.0
H2156 H 0.06939 0.07889 0.65335 0.0
H2157 H 0.05888 0.10662 0.68544 0.0
C2158 C 0.10726 0.191 0.75811 0.0
C2159 C 0.1109 0.17654 0.77953 0.0
C2160 C 0.092 0.18783 0.73812 0.0
C2161 C 0.08004 0.1702 0.7392 0.0
C2162 C 0.08337 0.15585 0.7608 0.0
C2163 C 0.09863 0.15907 0.78101 0.0
C2164 C 0.0652 0.16628 0.7163 0.0
C2165 C 0.06841 0.14952 0.69851 0.0
C2166 C 1.04982 0.18034 0.70961 0.0
C2167 C 1.04563 0.19818 0.72809 0.0
C2168 C 1.04233 0.19574 0.75762 0.0
C2169 C 1.03902 0.21263 0.77503 0.0
C2170 C 1.03883 0.23207 0.76314 0.0
C2171 C 1.04187 0.23464 0.7338 0.0
C2172 C 1.04523 0.21779 0.7163 0.0
C2173 C 1.00922 0.14022 0.60696 0.0
C2174 C 1.00856 0.15672 0.58792 0.0
C2175 C 1.01986 0.14174 0.63261 0.0
C2176 C 1.03029 0.15968 0.6395 0.0
C2177 C 1.02952 0.17623 0.62068 0.0
C2178 C 1.01874 0.17478 0.59515 0.0
C2179 C 1.04222 0.16123 0.66615 0.0
C2180 C 1.03846 0.17756 0.68463 0.0
C2181 C 0.05739 0.14697 0.67321 0.0
C2182 C 0.06322 0.13022 0.65373 0.0
C2183 C 0.06936 0.1343 0.62548 0.0
C2184 C 0.07519 0.11848 0.60742 0.0
C2185 C 0.07516 0.09853 0.61745 0.0
C2186 C 0.06932 0.09435 0.64558 0.0
C2187 C 0.0634 0.11011 0.6637 0.0
H2188 H 0.07971 0.08632 0.60344 0.0
H2189 H 1.03631 0.24513 0.77666 0.0
H2190 H 0.14223 0.86885 0.51197 0.0
H2191 H 0.14724 0.84144 0.47778 0.0
H2192 H 0.20777 0.83222 0.51 0.0
H2193 H 0.20283 0.85974 0.54457 0.0
H2194 H 0.20574 0.8372 0.45087 0.0
H2195 H 0.17374 0.7974 0.523 0.0
H2196 H 0.1477 0.78893 0.55906 0.0
H2197 H 0.10225 0.78609 0.49363 0.0
H2198 H 0.12795 0.79498 0.45716 0.0
H2199 H 0.22078 0.7568 0.3543 0.0
H2200 H 0.21802 0.77532 0.39919 0.0
H2201 H 0.15453 0.78589 0.38298 0.0
H2202 H 0.15689 0.76642 0.33868 0.0
H2203 H 0.16058 0.77738 0.43826 0.0
H2204 H 0.19051 0.82191 0.36805 0.0
H2205 H 0.21544 0.83244 0.33144 0.0
H2206 H 0.26347 0.82801 0.39292 0.0
H2207 H 0.23884 0.81718 0.42981 0.0
C2208 C 0.15656 0.86089 0.51197 0.0
C2209 C 0.1722 0.86646 0.53078 0.0
C2210 C 0.15932 0.84514 0.49259 0.0
C2211 C 0.1778 0.83475 0.4916 0.0
C2212 C 0.19336 0.84003 0.51065 0.0
C2213 C 0.19052 0.85568 0.53035 0.0
C2214 C 0.18125 0.8196 0.46896 0.0
C2215 C 0.19621 0.82383 0.44844 0.0
C2216 C 0.16833 0.80256 0.46553 0.0
C2217 C 0.15279 0.79702 0.48733 0.0
C2218 C 0.15817 0.79515 0.51629 0.0
C2219 C 0.14347 0.79026 0.53681 0.0
C2220 C 0.12334 0.78702 0.52864 0.0
C2221 C 0.11786 0.78863 0.49991 0.0
C2222 C 0.1325 0.79359 0.47929 0.0
C2223 C 0.20612 0.76273 0.36049 0.0
C2224 C 0.18906 0.7602 0.34281 0.0
C2225 C 0.20463 0.77347 0.38605 0.0
C2226 C 0.18615 0.78221 0.3942 0.0
C2227 C 0.16896 0.7793 0.37702 0.0
C2228 C 0.17039 0.7684 0.35154 0.0
C2229 C 0.18493 0.79514 0.41996 0.0
C2230 C 0.17035 0.79054 0.44097 0.0
C2231 C 0.19804 0.81201 0.42376 0.0
C2232 C 0.21287 0.81849 0.40158 0.0
C2233 C 0.20641 0.82301 0.37369 0.0
C2234 C 0.22049 0.82906 0.3529 0.0
C2235 C 0.24104 0.83083 0.35982 0.0
C2236 C 0.24755 0.82659 0.38757 0.0
C2237 C 0.23355 0.8205 0.40843 0.0
H2238 H 0.25191 0.83553 0.3437 0.0
H2239 H 0.11202 0.78322 0.54457 0.0
H2240 H 0.98527 0.6381 0.38662 0.0
H2241 H 1.00521 0.64138 0.34261 0.0
H2242 H 1.0331 0.69597 0.37523 0.0
H2243 H 1.01329 0.69278 0.4192 0.0
H2244 H 1.02507 0.69947 0.31884 0.0
H2245 H 0.05574 0.65002 0.38159 0.0
H2246 H 0.05726 0.61865 0.41016 0.0
H2247 H 1.04479 0.58322 0.3352 0.0
H2248 H 1.04277 0.61444 0.30631 0.0
H2249 H 0.12175 0.70576 0.25587 0.0
H2250 H 0.09252 0.702 0.28756 0.0
H2251 H 0.07243 0.64975 0.23972 0.0
H2252 H 0.10177 0.65336 0.20776 0.0
H2253 H 0.07239 0.64324 0.29739 0.0
H2254 H 1.04704 0.69271 0.23325 0.0
H2255 H 1.04796 0.72411 0.20464 0.0
H2256 H 0.05186 0.75957 0.28133 0.0
H2257 H 0.05135 0.72839 0.31042 0.0
C2258 C 0.99557 0.65087 0.38432 0.0
C2259 C 0.99784 0.66509 0.40649 0.0
C2260 C 1.0069 0.65274 0.35915 0.0
C2261 C 1.02083 0.66877 0.35583 0.0
C2262 C 1.02241 0.6835 0.37733 0.0
C2263 C 1.01104 0.68168 0.40244 0.0
C2264 C 1.03479 0.66955 0.33094 0.0
C2265 C 1.03546 0.68722 0.31416 0.0
C2266 C 1.04796 0.65331 0.32437 0.0
C2267 C 1.04879 0.63458 0.34188 0.0
C2268 C 0.05306 0.63556 0.37128 0.0
C2269 C 0.05405 0.6178 0.38752 0.0
C2270 C 0.05104 0.59896 0.37453 0.0
C2271 C 1.04704 0.59783 0.34526 0.0
C2272 C 1.04594 0.61555 0.32896 0.0
C2273 C 0.11112 0.69347 0.25201 0.0
C2274 C 0.11406 0.67984 0.22933 0.0
C2275 C 0.09433 0.69145 0.27 0.0
C2276 C 0.08018 0.67579 0.26568 0.0
C2277 C 0.08312 0.66205 0.2432 0.0
C2278 C 0.09986 0.66415 0.225 0.0
C2279 C 0.06296 0.67329 0.28573 0.0
C2280 C 0.0617 0.65532 0.30163 0.0
C2281 C 1.04931 0.68926 0.29146 0.0
C2282 C 1.04928 0.70814 0.27405 0.0
C2283 C 1.04823 0.70719 0.24404 0.0
C2284 C 1.04867 0.72496 0.22772 0.0
C2285 C 1.05 0.74382 0.24115 0.0
C2286 C 0.05083 0.74495 0.27094 0.0
C2287 C 0.05045 0.72722 0.28737 0.0
H2288 H 0.05038 0.75755 0.22848 0.0
H2289 H 0.05186 0.58522 0.38713 0.0
H2290 H 0.20765 0.28445 0.67983 0.0
H2291 H 0.20349 0.30382 0.63582 0.0
H2292 H 0.15378 0.2648 0.61111 0.0
H2293 H 0.15828 0.24484 0.65478 0.0
H2294 H 0.17838 0.27377 0.56556 0.0
H2295 H 0.14372 0.3097 0.63973 0.0
H2296 H 0.13964 0.32621 0.68664 0.0
H2297 H 0.18717 0.36856 0.66565 0.0
H2298 H 0.19174 0.3521 0.61875 0.0
H2299 H 0.13656 0.3732 0.49693 0.0
H2300 H 0.13855 0.34731 0.53378 0.0
H2301 H 0.19717 0.32915 0.50177 0.0
H2302 H 0.19518 0.35518 0.46424 0.0
H2303 H 0.16616 0.3476 0.57506 0.0
H2304 H 0.2029 0.27797 0.52014 0.0
H2305 H 0.203 0.2613 0.47294 0.0
H2306 H 0.14424 0.28591 0.45485 0.0
H2307 H 0.14368 0.30247 0.50204 0.0
C2308 C 0.196 0.2798 0.66488 0.0
C2309 C 0.18323 0.26315 0.67086 0.0
C2310 C 0.19356 0.29096 0.63982 0.0
C2311 C 0.17821 0.28584 0.62035 0.0
C2312 C 0.16571 0.26899 0.62589 0.0
C2313 C 0.16815 0.25777 0.65099 0.0
C2314 C 0.17472 0.29867 0.59489 0.0
C2315 C 0.17573 0.28992 0.56757 0.0
C2316 C 0.17084 0.31964 0.5976 0.0
C2317 C 0.1682 0.32954 0.62584 0.0
C2318 C 0.15343 0.32242 0.64522 0.0
C2319 C 0.151 0.33179 0.67179 0.0
C2320 C 0.16318 0.3484 0.67915 0.0
C2321 C 0.17778 0.35568 0.65994 0.0
C2322 C 0.18028 0.34635 0.63335 0.0
C2323 C 0.14985 0.36361 0.49751 0.0
C2324 C 0.16591 0.36643 0.47802 0.0
C2325 C 0.15091 0.34879 0.51857 0.0
C2326 C 0.16806 0.33645 0.52067 0.0
C2327 C 0.18375 0.33848 0.50039 0.0
C2328 C 0.18263 0.35334 0.47904 0.0
C2329 C 0.1701 0.32282 0.54561 0.0
C2330 C 0.16887 0.33146 0.57294 0.0
C2331 C 0.17325 0.30173 0.54282 0.0
C2332 C 0.17337 0.29164 0.51451 0.0
C2333 C 0.18998 0.27977 0.50612 0.0
C2334 C 0.19012 0.27034 0.47936 0.0
C2335 C 0.17367 0.27261 0.46086 0.0
C2336 C 0.15701 0.28424 0.46913 0.0
C2337 C 0.1568 0.29368 0.49586 0.0
H2338 H 0.17382 0.26531 0.44015 0.0
H2339 H 0.16126 0.35565 0.69972 0.0
H2340 H 0.50653 0.42197 0.69481 0.0
H2341 H 0.53417 0.42608 0.72964 0.0
H2342 H 0.49015 0.43784 0.79597 0.0
H2343 H 0.4627 0.43358 0.76165 0.0
H2344 H 0.5235 0.46467 0.79598 0.0
H2345 H 0.50851 0.39217 0.78898 0.0
H2346 H 0.50577 0.36014 0.76206 0.0
H2347 H 0.56891 0.36415 0.73964 0.0
H2348 H 0.57193 0.39645 0.76599 0.0
H2349 H 0.55775 0.44523 0.9321 0.0
H2350 H 0.54016 0.44295 0.88641 0.0
H2351 H 0.5963 0.42719 0.84449 0.0
H2352 H 0.61408 0.42939 0.89046 0.0
H2353 H 0.56369 0.40463 0.82465 0.0
H2354 H 0.58021 0.47432 0.83735 0.0
H2355 H 0.58317 0.50676 0.8632 0.0
H2356 H 0.5184 0.50871 0.87321 0.0
H2357 H 0.51515 0.47607 0.84795 0.0
C2358 C 0.50286 0.42559 0.7168 0.0
C2359 C 0.48256 0.42728 0.7257 0.0
C2360 C 0.51859 0.42788 0.73659 0.0
C2361 C 0.5141 0.43214 0.7653 0.0
C2362 C 0.49387 0.43452 0.77389 0.0
C2363 C 0.47822 0.43194 0.75433 0.0
C2364 C 0.53019 0.43341 0.78706 0.0
C2365 C 0.53235 0.45159 0.80223 0.0
C2366 C 0.54214 0.41647 0.79448 0.0
C2367 C 0.54038 0.39686 0.77913 0.0
C2368 C 0.52177 0.38632 0.77811 0.0
C2369 C 0.52017 0.3681 0.76298 0.0
C2370 C 0.53713 0.36015 0.74906 0.0
C2371 C 0.55576 0.37036 0.75036 0.0
C2372 C 0.55743 0.38862 0.76538 0.0
C2373 C 0.56635 0.44127 0.91317 0.0
C2374 C 0.5873 0.43774 0.91472 0.0
C2375 C 0.55631 0.43996 0.8871 0.0
C2376 C 0.56704 0.43532 0.86203 0.0
C2377 C 0.58781 0.43091 0.86362 0.0
C2378 C 0.5979 0.43213 0.88983 0.0
C2379 C 0.5564 0.43571 0.83428 0.0
C2380 C 0.55527 0.41788 0.81797 0.0
C2381 C 0.54549 0.45304 0.82558 0.0
C2382 C 0.54741 0.47274 0.84074 0.0
C2383 C 0.56661 0.48161 0.8452 0.0
C2384 C 0.56836 0.50003 0.85977 0.0
C2385 C 0.55099 0.5098 0.86985 0.0
C2386 C 0.53185 0.50116 0.86537 0.0
C2387 C 0.53004 0.48271 0.85088 0.0
H2388 H 0.55237 0.52406 0.88111 0.0
H2389 H 0.53586 0.34607 0.73734 0.0
H2390 H 0.45754 0.73275 0.99333 0.0
H2391 H 0.45422 0.7583 0.03058 0.0
H2392 H 0.39702 0.7771 0.99499 0.0
H2393 H 0.4004 0.75153 0.95708 0.0
H2394 H 0.42113 0.80954 0.01744 0.0
H2395 H 0.39715 0.74363 0.04341 0.0
H2396 H 0.39858 0.70673 0.05047 0.0
H2397 H 0.44692 0.7144 0.11092 0.0
H2398 H 0.44579 0.75145 0.10419 0.0
H2399 H 0.38433 0.85231 0.1481 0.0
H2400 H 0.38813 0.83295 0.1039 0.0
H2401 H 0.44367 0.8072 0.13575 0.0
H2402 H 0.44017 0.82674 0.17983 0.0
H2403 H 0.4183 0.77857 0.11411 0.0
H2404 H 0.44527 0.84315 0.08511 0.0
H2405 H 0.44507 0.88019 0.07816 0.0
H2406 H 0.39313 0.87476 0.02343 0.0
H2407 H 0.39285 0.83767 0.03037 0.0
C2408 C 0.44438 0.74252 0.99315 0.0
C2409 C 0.42901 0.73995 0.97271 0.0
C2410 C 0.44256 0.75714 0.01436 0.0
C2411 C 0.4252 0.76925 0.01577 0.0
C2412 C 0.41049 0.7678 0.9942 0.0
C2413 C 0.41241 0.7532 0.97268 0.0
C2414 C 0.42158 0.78171 0.04145 0.0
C2415 C 0.42021 0.8028 0.03857 0.0
C2416 C 0.42077 0.77278 0.06898 0.0
C2417 C 0.42138 0.75042 0.07324 0.0
C2418 C 0.40813 0.7375 0.05817 0.0
C2419 C 0.40888 0.71652 0.06211 0.0
C2420 C 0.42287 0.7082 0.08109 0.0
C2421 C 0.43607 0.72087 0.09624 0.0
C2422 C 0.43532 0.74188 0.09243 0.0
C2423 C 0.39752 0.84276 0.14554 0.0
C2424 C 0.41196 0.84107 0.16749 0.0
C2425 C 0.39963 0.83168 0.1203 0.0
C2426 C 0.41624 0.81875 0.11653 0.0
C2427 C 0.43071 0.81706 0.13832 0.0
C2428 C 0.42864 0.82817 0.16352 0.0
C2429 C 0.41825 0.80648 0.09023 0.0
C2430 C 0.41918 0.78534 0.093 0.0
C2431 C 0.41879 0.81536 0.06269 0.0
C2432 C 0.41889 0.83766 0.05853 0.0
C2433 C 0.43369 0.84987 0.07181 0.0
C2434 C 0.43369 0.87087 0.06783 0.0
C2435 C 0.41906 0.87983 0.05044 0.0
C2436 C 0.40443 0.8678 0.03693 0.0
C2437 C 0.40435 0.84678 0.04087 0.0
H2438 H 0.41909 0.89609 0.04737 0.0
H2439 H 0.42347 0.69195 0.08408 0.0
H2440 H 0.09983 0.46127 0.61141 0.0
H2441 H 0.07993 0.45508 0.65467 0.0
H2442 H 0.06377 0.39555 0.62366 0.0
H2443 H 0.08298 0.40196 0.57979 0.0
H2444 H 1.03124 0.41555 0.63998 0.0
H2445 H 0.09583 0.40157 0.68077 0.0
H2446 H 0.13183 0.40758 0.69247 0.0
H2447 H 0.11581 0.4613 0.7389 0.0
H2448 H 0.07973 0.45577 0.72716 0.0
H2449 H 0.97746 0.38711 0.76193 0.0
H2450 H 1.00528 0.38773 0.72754 0.0
H2451 H 1.0194 0.44942 0.75126 0.0
H2452 H 0.99164 0.44876 0.78648 0.0
H2453 H 0.05397 0.42631 0.7399 0.0
H2454 H 0.98961 0.44113 0.69507 0.0
H2455 H 0.9536 0.43415 0.68431 0.0
H2456 H 0.96982 0.37748 0.64567 0.0
H2457 H 1.00593 0.38402 0.65654 0.0
C2458 C 0.09208 0.44684 0.61384 0.0
C2459 C 0.09283 0.43217 0.59209 0.0
C2460 C 0.08093 0.44323 0.63873 0.0
C2461 C 0.07051 0.4248 0.64246 0.0
C2462 C 0.07177 0.40986 0.62121 0.0
C2463 C 0.08286 0.41349 0.59625 0.0
C2464 C 0.05683 0.42188 0.66727 0.0
C2465 C 1.03633 0.41753 0.66184 0.0
C2466 C 0.06338 0.42494 0.69574 0.0
C2467 C 0.08507 0.42834 0.70286 0.0
C2468 C 0.09999 0.41476 0.69327 0.0
C2469 C 0.12041 0.41806 0.69996 0.0
C2470 C 0.12611 0.43484 0.71636 0.0
C2471 C 0.11138 0.44832 0.72617 0.0
C2472 C 0.09094 0.44509 0.71954 0.0
C2473 C 0.98657 0.40079 0.76 0.0
C2474 C 0.98218 0.41808 0.77636 0.0
C2475 C 1.00251 0.40106 0.74046 0.0
C2476 C 1.01408 0.41874 0.73653 0.0
C2477 C 1.01053 0.43567 0.75399 0.0
C2478 C 0.99467 0.43532 0.77393 0.0
C2479 C 1.02855 0.42006 0.71244 0.0
C2480 C 1.04906 0.42418 0.718 0.0
C2481 C 1.02208 0.41671 0.68402 0.0
C2482 C 1.00044 0.41301 0.67678 0.0
C2483 C 0.98548 0.42715 0.68437 0.0
C2484 C 0.96507 0.42327 0.67825 0.0
C2485 C 0.95943 0.40538 0.66432 0.0
C2486 C 0.97422 0.39134 0.65643 0.0
C2487 C 0.99466 0.39514 0.66253 0.0
H2488 H 0.94362 0.4024 0.65963 0.0
H2489 H 0.14193 0.43737 0.72151 0.0
H2490 H 0.91835 0.81547 0.32065 0.0
H2491 H 0.92084 0.79704 0.36569 0.0
H2492 H 0.91959 0.85344 0.4122 0.0
H2493 H 0.91713 0.87213 0.36683 0.0
H2494 H 0.94686 0.82399 0.43562 0.0
H2495 H 0.87738 0.82929 0.40881 0.0
H2496 H 0.84818 0.82791 0.37602 0.0
H2497 H 0.85778 0.76426 0.36298 0.0
H2498 H 0.88726 0.76533 0.39532 0.0
H2499 H 0.92263 0.7591 0.55786 0.0
H2500 H 0.91947 0.78728 0.5237 0.0
H2501 H 0.92385 0.74504 0.45366 0.0
H2502 H 0.92721 0.71707 0.48729 0.0
H2503 H 0.89148 0.77347 0.44942 0.0
H2504 H 0.96376 0.76995 0.47115 0.0
H2505 H 0.99212 0.77081 0.50535 0.0
H2506 H 0.97626 0.83145 0.52967 0.0
H2507 H 0.94746 0.83075 0.49601 0.0
C2508 C 0.91872 0.82397 0.34044 0.0
C2509 C 0.91719 0.84519 0.34031 0.0
C2510 C 0.92022 0.81345 0.36613 0.0
C2511 C 0.92003 0.82388 0.39224 0.0
C2512 C 0.91969 0.84515 0.39224 0.0
C2513 C 0.91828 0.85576 0.36637 0.0
C2514 C 0.91862 0.81219 0.41919 0.0
C2515 C 0.93455 0.81325 0.43902 0.0
C2516 C 0.9025 0.79823 0.42361 0.0
C2517 C 0.88461 0.79743 0.4044 0.0
C2518 C 0.87334 0.81503 0.39881 0.0
C2519 C 0.85674 0.8143 0.38032 0.0
C2520 C 0.85114 0.79601 0.3674 0.0
C2521 C 0.86213 0.77841 0.373 0.0
C2522 C 0.87878 0.77907 0.39145 0.0
C2523 C 0.92279 0.75589 0.53516 0.0
C2524 C 0.92521 0.73594 0.52518 0.0
C2525 C 0.92106 0.77195 0.51576 0.0
C2526 C 0.92145 0.76815 0.48626 0.0
C2527 C 0.92348 0.74822 0.47637 0.0
C2528 C 0.9255 0.73229 0.49562 0.0
C2529 C 0.92006 0.78471 0.46516 0.0
C2530 C 0.90353 0.78457 0.44642 0.0
C2531 C 0.93554 0.79951 0.46195 0.0
C2532 C 0.95331 0.80021 0.48132 0.0
C2533 C 0.96624 0.78342 0.48392 0.0
C2534 C 0.9824 0.78388 0.50321 0.0
C2535 C 0.98597 0.80116 0.51975 0.0
C2536 C 0.97345 0.81806 0.51689 0.0
C2537 C 0.9572 0.81764 0.49772 0.0
H2538 H 0.99845 0.80147 0.53475 0.0
H2539 H 0.83828 0.79548 0.35308 0.0
H2540 H 0.50526 0.69731 0.08933 0.0
H2541 H 0.52627 0.69979 0.13221 0.0
H2542 H 0.53226 0.63474 0.1338 0.0
H2543 H 0.51176 0.63212 0.09056 0.0
H2544 H 0.52434 0.65158 0.18782 0.0
H2545 H 0.56968 0.66166 0.10784 0.0
H2546 H 0.58167 0.67784 0.06331 0.0
H2547 H 0.58566 0.73528 0.10612 0.0
H2548 H 0.57336 0.7195 0.1508 0.0
H2549 H 0.60976 0.64598 0.28219 0.0
H2550 H 0.5846 0.64229 0.24393 0.0
H2551 H 0.5855 0.70712 0.231 0.0
H2552 H 0.61113 0.71068 0.26818 0.0
H2553 H 0.58948 0.68954 0.18259 0.0
H2554 H 0.54423 0.68077 0.26227 0.0
H2555 H 0.53195 0.66557 0.30732 0.0
H2556 H 0.5271 0.60746 0.26651 0.0
H2557 H 0.53961 0.62228 0.22129 0.0
C2558 C 0.51114 0.68354 0.09868 0.0
C2559 C 0.5069 0.66453 0.08641 0.0
C2560 C 0.52303 0.68498 0.12326 0.0
C2561 C 0.53088 0.66744 0.136 0.0
C2562 C 0.52625 0.64843 0.12431 0.0
C2563 C 0.51448 0.64698 0.09965 0.0
C2564 C 0.54453 0.66898 0.16093 0.0
C2565 C 0.53869 0.65971 0.1867 0.0
C2566 C 0.56302 0.67992 0.15948 0.0
C2567 C 0.57038 0.68944 0.13258 0.0
C2568 C 0.57292 0.67778 0.10769 0.0
C2569 C 0.57981 0.68688 0.08243 0.0
C2570 C 0.58437 0.70759 0.08186 0.0
C2571 C 0.58209 0.71925 0.10657 0.0
C2572 C 0.57516 0.71023 0.13187 0.0
C2573 C 0.60428 0.6594 0.27141 0.0
C2574 C 0.61236 0.67858 0.2779 0.0
C2575 C 0.5899 0.65732 0.24963 0.0
C2576 C 0.58309 0.67446 0.23463 0.0
C2577 C 0.59062 0.69368 0.24209 0.0
C2578 C 0.60521 0.6957 0.26336 0.0
C2579 C 0.56921 0.67245 0.20988 0.0
C2580 C 0.57508 0.68151 0.18395 0.0
C2581 C 0.55067 0.66152 0.21135 0.0
C2582 C 0.54305 0.6526 0.23847 0.0
C2583 C 0.54069 0.66472 0.26296 0.0
C2584 C 0.53366 0.65618 0.28851 0.0
C2585 C 0.5288 0.63555 0.28979 0.0
C2586 C 0.5309 0.62343 0.26549 0.0
C2587 C 0.53793 0.6319 0.23989 0.0
H2588 H 0.52337 0.62896 0.3096 0.0
H2589 H 0.58971 0.7146 0.0623 0.0
H2590 H 0.63952 0.37599 0.00045 0.0
H2591 H 0.6419 0.3473 0.96786 0.0
H2592 H 0.69478 0.32596 0.01263 0.0
H2593 H 0.69252 0.35475 0.04557 0.0
H2594 H 0.70017 0.32799 0.95431 0.0
H2595 H 0.65296 0.29971 0.01941 0.0
H2596 H 0.62272 0.29877 0.05052 0.0
H2597 H 0.58419 0.30521 0.97731 0.0
H2598 H 0.61424 0.30651 0.94571 0.0
H2599 H 0.70394 0.24289 0.8637 0.0
H2600 H 0.69987 0.26128 0.90866 0.0
H2601 H 0.64721 0.29137 0.87483 0.0
H2602 H 0.65128 0.27315 0.82964 0.0
H2603 H 0.64309 0.2809 0.93308 0.0
H2604 H 0.6915 0.31421 0.8699 0.0
H2605 H 0.7222 0.31572 0.83967 0.0
H2606 H 0.75899 0.29967 0.91173 0.0
H2607 H 0.72843 0.29777 0.94229 0.0
C2608 C 0.65165 0.36519 0.00348 0.0
C2609 C 0.66591 0.36768 0.02549 0.0
C2610 C 0.65286 0.34871 0.98498 0.0
C2611 C 0.66838 0.33444 0.98807 0.0
C2612 C 0.68263 0.33679 0.01007 0.0
C2613 C 0.68131 0.35322 0.02882 0.0
C2614 C 0.67033 0.3179 0.96702 0.0
C2615 C 0.6879 0.31736 0.95011 0.0
C2616 C 0.65413 0.30431 0.96137 0.0
C2617 C 0.63591 0.30332 0.98016 0.0
C2618 C 0.63805 0.30107 0.00992 0.0
C2619 C 0.62095 0.30045 0.02766 0.0
C2620 C 0.60155 0.30191 0.0159 0.0
C2621 C 0.59923 0.30403 0.98637 0.0
C2622 C 0.61631 0.30468 0.96852 0.0
C2623 C 0.69143 0.25335 0.86588 0.0
C2624 C 0.67812 0.25683 0.84298 0.0
C2625 C 0.68905 0.26372 0.89163 0.0
C2626 C 0.67338 0.27782 0.89489 0.0
C2627 C 0.65937 0.28049 0.87271 0.0
C2628 C 0.66173 0.2701 0.84691 0.0
C2629 C 0.67281 0.29126 0.92017 0.0
C2630 C 0.65549 0.29127 0.93772 0.0
C2631 C 0.68929 0.30435 0.9266 0.0
C2632 C 0.70767 0.3056 0.90828 0.0
C2633 C 0.70612 0.31084 0.87923 0.0
C2634 C 0.72349 0.31179 0.86205 0.0
C2635 C 0.74253 0.30773 0.87375 0.0
C2636 C 0.74423 0.30277 0.90268 0.0
C2637 C 0.72689 0.30175 0.91994 0.0
H2638 H 0.75597 0.30848 0.86042 0.0
H2639 H 0.58834 0.30133 0.02969 0.0
H2640 H 0.40031 0.29391 0.2351 0.0
H2641 H 0.37468 0.30965 0.26567 0.0
H2642 H 0.33059 0.30368 0.19818 0.0
H2643 H 0.35587 0.28803 0.16778 0.0
H2644 H 0.32126 0.33488 0.23282 0.0
H2645 H 0.33905 0.26395 0.24099 0.0
H2646 H 0.36284 0.23574 0.24848 0.0
H2647 H 0.37745 0.25887 0.33175 0.0
H2648 H 0.35388 0.28738 0.32455 0.0
H2649 H 0.22929 0.30917 0.29088 0.0
H2650 H 0.26176 0.29901 0.27019 0.0
H2651 H 0.29304 0.32196 0.3443 0.0
H2652 H 0.26081 0.33274 0.36479 0.0
H2653 H 0.31114 0.28526 0.31168 0.0
H2654 H 0.28771 0.35514 0.30208 0.0
H2655 H 0.26058 0.37964 0.29183 0.0
H2656 H 0.2541 0.35512 0.20734 0.0
H2657 H 0.28088 0.33013 0.21737 0.0
C2658 C 0.38538 0.29677 0.22642 0.0
C2659 C 0.37992 0.28921 0.1994 0.0
C2660 C 0.37077 0.30573 0.24388 0.0
C2661 C 0.35064 0.30712 0.23444 0.0
C2662 C 0.34602 0.30253 0.20595 0.0
C2663 C 0.36059 0.29363 0.18849 0.0
C2664 C 0.3338 0.30928 0.25506 0.0
C2665 C 0.31916 0.32417 0.2502 0.0
C2666 C 0.33096 0.29511 0.27758 0.0
C2667 C 0.34493 0.27789 0.28211 0.0
C2668 C 0.34743 0.26307 0.26082 0.0
C2669 C 0.36084 0.24702 0.26503 0.0
C2670 C 0.3717 0.24555 0.29054 0.0
C2671 C 0.36907 0.26007 0.31196 0.0
C2672 C 0.35569 0.27616 0.30784 0.0
C2673 C 0.24301 0.31135 0.30325 0.0
C2674 C 0.2426 0.32225 0.32903 0.0
C2675 C 0.26149 0.30548 0.29147 0.0
C2676 C 0.27965 0.31023 0.30556 0.0
C2677 C 0.27908 0.3183 0.33319 0.0
C2678 C 0.26061 0.32437 0.34489 0.0
C2679 C 0.29873 0.31076 0.28924 0.0
C2680 C 0.31362 0.29632 0.29483 0.0
C2681 C 0.30163 0.32509 0.26705 0.0
C2682 C 0.28618 0.34068 0.26056 0.0
C2683 C 0.28042 0.3549 0.28138 0.0
C2684 C 0.2651 0.36887 0.27561 0.0
C2685 C 0.2556 0.36892 0.24896 0.0
C2686 C 0.26146 0.35505 0.22798 0.0
C2687 C 0.27671 0.34099 0.23369 0.0
H2688 H 0.24372 0.37972 0.24456 0.0
H2689 H 0.3821 0.23313 0.29375 0.0
H2690 H 0.62632 0.56346 0.43493 0.0
H2691 H 0.6125 0.52967 0.44372 0.0
H2692 H 0.56276 0.54207 0.38664 0.0
H2693 H 0.57637 0.57625 0.37825 0.0
H2694 H 0.54941 0.53095 0.43724 0.0
H2695 H 0.59566 0.50362 0.37144 0.0
H2696 H 0.6282 0.49817 0.34658 0.0
H2697 H 0.65407 0.47455 0.42373 0.0
H2698 H 0.62177 0.48011 0.44921 0.0
H2699 H 0.50678 0.44258 0.48848 0.0
H2700 H 0.5266 0.4581 0.45007 0.0
H2701 H 0.57406 0.47299 0.50984 0.0
H2702 H 0.55421 0.45753 0.54857 0.0
H2703 H 0.58601 0.46567 0.44589 0.0
H2704 H 0.54247 0.50532 0.51172 0.0
H2705 H 0.50973 0.50995 0.53652 0.0
H2706 H 0.47875 0.50989 0.45589 0.0
H2707 H 0.51135 0.50485 0.43069 0.0
C2708 C 0.61257 0.55888 0.42396 0.0
C2709 C 0.60221 0.57254 0.4063 0.0
C2710 C 0.60485 0.53945 0.42865 0.0
C2711 C 0.58667 0.53328 0.41566 0.0
C2712 C 0.57688 0.54651 0.39673 0.0
C2713 C 0.58466 0.56599 0.39195 0.0
C2714 C 0.57645 0.51453 0.42568 0.0
C2715 C 0.55721 0.51653 0.43822 0.0
C2716 C 0.5867 0.49575 0.42742 0.0
C2717 C 0.60626 0.49238 0.4123 0.0
C2718 C 0.60832 0.4974 0.38319 0.0
C2719 C 0.62672 0.49427 0.36896 0.0
C2720 C 0.64319 0.48604 0.38357 0.0
C2721 C 0.64128 0.48091 0.41244 0.0
C2722 C 0.62291 0.48401 0.42677 0.0
C2723 C 0.52186 0.44826 0.49323 0.0
C2724 C 0.52887 0.44917 0.52155 0.0
C2725 C 0.53318 0.45707 0.47121 0.0
C2726 C 0.55166 0.46676 0.47725 0.0
C2727 C 0.55986 0.46544 0.50481 0.0
C2728 C 0.54844 0.45682 0.52694 0.0
C2729 C 0.55944 0.48251 0.45766 0.0
C2730 C 0.57812 0.47996 0.44377 0.0
C2731 C 0.54871 0.50084 0.4544 0.0
C2732 C 0.52924 0.5045 0.46939 0.0
C2733 C 0.52865 0.50617 0.49933 0.0
C2734 C 0.51013 0.50886 0.51345 0.0
C2735 C 0.49216 0.51016 0.4978 0.0
C2736 C 0.49268 0.50884 0.46799 0.0
C2737 C 0.51116 0.50605 0.45378 0.0
H2738 H 0.47783 0.51223 0.50876 0.0
H2739 H 0.65743 0.48363 0.37252 0.0
H2740 H 0.2858 0.86036 0.62702 0.0
H2741 H 0.31993 0.84779 0.63744 0.0
H2742 H 0.31279 0.86545 0.72562 0.0
H2743 H 0.27875 0.8775 0.71565 0.0
H2744 H 0.3522 0.87253 0.70501 0.0
H2745 H 0.3003 0.81898 0.70679 0.0
H2746 H 0.2732 0.79832 0.6848 0.0
H2747 H 0.31443 0.77938 0.6189 0.0
H2748 H 0.34171 0.80019 0.64035 0.0
H2749 H 0.3858 0.8035 0.80664 0.0
H2750 H 0.37267 0.82853 0.7733 0.0
H2751 H 0.39627 0.79401 0.70245 0.0
H2752 H 0.4097 0.76897 0.73585 0.0
H2753 H 0.35615 0.79757 0.69973 0.0
H2754 H 0.41079 0.84302 0.7098 0.0
H2755 H 0.43739 0.863 0.73398 0.0
H2756 H 0.39185 0.8968 0.77883 0.0
H2757 H 0.36495 0.87683 0.75529 0.0
C2758 C 0.29158 0.86164 0.64857 0.0
C2759 C 0.27948 0.86977 0.67053 0.0
C2760 C 0.31112 0.85466 0.6544 0.0
C2761 C 0.31883 0.85572 0.68229 0.0
C2762 C 0.3072 0.86474 0.70388 0.0
C2763 C 0.28769 0.87159 0.69812 0.0
C2764 C 0.33769 0.84516 0.69027 0.0
C2765 C 0.35326 0.85615 0.70373 0.0
C2766 C 0.33926 0.82388 0.68771 0.0
C2767 C 0.32292 0.81133 0.6749 0.0
C2768 C 0.30352 0.81053 0.68748 0.0
C2769 C 0.28815 0.79878 0.67514 0.0
C2770 C 0.29207 0.7876 0.65041 0.0
C2771 C 0.3114 0.7881 0.63801 0.0
C2772 C 0.32682 0.79987 0.65024 0.0
C2773 C 0.38897 0.80167 0.78407 0.0
C2774 C 0.39843 0.7841 0.77381 0.0
C2775 C 0.38148 0.81603 0.76496 0.0
C2776 C 0.38342 0.81308 0.73535 0.0
C2777 C 0.39456 0.79653 0.7252 0.0
C2778 C 0.40211 0.7822 0.7443 0.0
C2779 C 0.37043 0.82481 0.71568 0.0
C2780 C 0.35578 0.81401 0.70005 0.0
C2781 C 0.36973 0.84622 0.71644 0.0
C2782 C 0.38582 0.85835 0.73078 0.0
C2783 C 0.40643 0.85462 0.72497 0.0
C2784 C 0.42157 0.86596 0.73854 0.0
C2785 C 0.41632 0.88115 0.75793 0.0
C2786 C 0.3959 0.88504 0.76377 0.0
C2787 C 0.38069 0.87373 0.75026 0.0
H2788 H 0.42806 0.88992 0.76842 0.0
H2789 H 0.28015 0.7785 0.64089 0.0
H2790 H 0.0586 0.6141 0.08096 0.0
H2791 H 1.04104 0.59257 0.04687 0.0
H2792 H 0.08203 0.54363 0.06582 0.0
H2793 H 0.09976 0.56527 0.10017 0.0
H2794 H 0.08631 0.55761 0.01185 0.0
H2795 H 1.0314 0.53648 0.07162 0.0
H2796 H 1.00324 0.54035 0.10594 0.0
H2797 H 0.97168 0.57821 0.04634 0.0
H2798 H 0.99979 0.57481 0.01179 0.0
H2799 H 1.04085 0.48666 0.9174 0.0
H2800 H 0.05944 0.50825 0.95034 0.0
H2801 H 1.01985 0.5581 0.93031 0.0
H2802 H 1.00118 0.53647 0.89699 0.0
H2803 H 1.01495 0.54363 0.98473 0.0
H2804 H 0.06994 0.56459 0.92491 0.0
H2805 H 0.09811 0.56053 0.89064 0.0
H2806 H 0.12948 0.52267 0.95044 0.0
H2807 H 0.10136 0.52625 0.98495 0.0
C2808 C 0.06315 0.59839 0.07916 0.0
C2809 C 0.08082 0.59143 0.09255 0.0
C2810 C 0.05312 0.5861 0.05953 0.0
C2811 C 0.06057 0.56671 0.05346 0.0
C2812 C 0.07628 0.55869 0.07006 0.0
C2813 C 0.08632 0.571 0.08969 0.0
C2814 C 0.05513 0.55702 0.02619 0.0
C2815 C 0.07074 0.55411 0.00608 0.0
C2816 C 1.03477 0.5534 0.01842 0.0
C2817 C 1.01781 0.55552 0.03918 0.0
C2818 C 1.01855 0.54578 0.06591 0.0
C2819 C 1.00257 0.54786 0.0854 0.0
C2820 C 0.9857 0.55956 0.07835 0.0
C2821 C 0.98476 0.56917 0.05178 0.0
C2822 C 1.0007 0.56714 0.03221 0.0
C2823 C 1.03686 0.50254 0.91863 0.0
C2824 C 1.01925 0.50981 0.90539 0.0
C2825 C 1.04748 0.51488 0.9376 0.0
C2826 C 1.04063 0.53456 0.94318 0.0
C2827 C 1.02512 0.54282 0.92645 0.0
C2828 C 1.01453 0.53049 0.90742 0.0
C2829 C 1.04612 0.54425 0.9704 0.0
C2830 C 1.03052 0.54714 0.99052 0.0
C2831 C 0.06649 0.5478 0.97818 0.0
C2832 C 0.08343 0.54556 0.95745 0.0
C2833 C 0.08275 0.55524 0.93067 0.0
C2834 C 0.09873 0.55306 0.91122 0.0
C2835 C 0.11555 0.54132 0.91834 0.0
C2836 C 0.11643 0.53176 0.94495 0.0
C2837 C 0.10049 0.53388 0.96448 0.0
H2838 H 0.12791 0.53965 0.90325 0.0
H2839 H 0.97335 0.56114 0.09347 0.0
H2840 H 0.74561 0.82269 0.79369 0.0
H2841 H 0.77816 0.81 0.77747 0.0
H2842 H 0.80685 0.83397 0.85323 0.0
H2843 H 0.77439 0.84804 0.86861 0.0
H2844 H 0.82686 0.84602 0.80915 0.0
H2845 H 0.80342 0.78125 0.83919 0.0
H2846 H 0.77959 0.75254 0.8449 0.0
H2847 H 0.77857 0.74395 0.75397 0.0
H2848 H 0.80215 0.77277 0.74765 0.0
H2849 H 0.9125 0.78365 0.74943 0.0
H2850 H 0.88902 0.80151 0.78121 0.0
H2851 H 0.84781 0.81001 0.71095 0.0
H2852 H 0.87077 0.79206 0.67931 0.0
H2853 H 0.83875 0.77986 0.76202 0.0
H2854 H 0.85836 0.8486 0.73359 0.0
H2855 H 0.88267 0.877 0.72913 0.0
H2856 H 0.89199 0.87651 0.81991 0.0
H2857 H 0.86794 0.84787 0.82485 0.0
C2858 C 0.75879 0.82505 0.80709 0.0
C2859 C 0.7575 0.83663 0.83218 0.0
C2860 C 0.77739 0.81753 0.79799 0.0
C2861 C 0.79497 0.82091 0.81424 0.0
C2862 C 0.79346 0.8312 0.84038 0.0
C2863 C 0.77486 0.83903 0.84929 0.0
C2864 C 0.81502 0.81581 0.80203 0.0
C2865 C 0.82965 0.83136 0.79947 0.0
C2866 C 0.81866 0.79674 0.78926 0.0
C2867 C 0.80455 0.77925 0.79296 0.0
C2868 C 0.79804 0.77331 0.82039 0.0
C2869 C 0.78458 0.75701 0.82374 0.0
C2870 C 0.77756 0.74644 0.79981 0.0
C2871 C 0.78403 0.75214 0.77249 0.0
C2872 C 0.79748 0.76844 0.76902 0.0
C2873 C 0.89883 0.79011 0.74052 0.0
C2874 C 0.89324 0.78602 0.71207 0.0
C2875 C 0.88552 0.80035 0.75866 0.0
C2876 C 0.8667 0.80675 0.74832 0.0
C2877 C 0.86236 0.80514 0.71914 0.0
C2878 C 0.87561 0.79496 0.70104 0.0
C2879 C 0.84984 0.81029 0.76825 0.0
C2880 C 0.83601 0.79432 0.77235 0.0
C2881 C 0.84706 0.82881 0.78259 0.0
C2882 C 0.86161 0.84589 0.77953 0.0
C2883 C 0.8658 0.85436 0.75255 0.0
C2884 C 0.87948 0.87056 0.74995 0.0
C2885 C 0.88894 0.8785 0.7742 0.0
C2886 C 0.8847 0.87031 0.80113 0.0
C2887 C 0.87104 0.8541 0.80384 0.0
H2888 H 0.89951 0.89105 0.77215 0.0
H2889 H 0.76714 0.73383 0.80245 0.0
H2890 H 0.76017 0.31986 0.1347 0.0
H2891 H 0.78171 0.29901 0.16468 0.0
H2892 H 0.72921 0.27934 0.21291 0.0
H2893 H 0.7077 0.3008 0.18355 0.0
H2894 H 0.75347 0.3033 0.24342 0.0
H2895 H 0.76322 0.24481 0.18485 0.0
H2896 H 0.77066 0.22595 0.14062 0.0
H2897 H 0.8301 0.25291 0.13695 0.0
H2898 H 0.82294 0.27216 0.18092 0.0
H2899 H 0.81753 0.25882 0.34925 0.0
H2900 H 0.79188 0.26956 0.31499 0.0
H2901 H 0.83908 0.28995 0.25742 0.0
H2902 H 0.86474 0.27844 0.29085 0.0
H2903 H 0.81554 0.26192 0.2331 0.0
H2904 H 0.80555 0.32301 0.28611 0.0
H2905 H 0.7991 0.34399 0.32872 0.0
H2906 H 0.74133 0.31466 0.34069 0.0
H2907 H 0.74755 0.29327 0.29835 0.0
C2908 C 0.75312 0.31026 0.15076 0.0
C2909 C 0.73248 0.31239 0.15755 0.0
C2910 C 0.76543 0.29824 0.16782 0.0
C2911 C 0.75706 0.28801 0.19142 0.0
C2912 C 0.73592 0.28733 0.19494 0.0
C2913 C 0.72362 0.29951 0.17802 0.0
C2914 C 0.77031 0.28323 0.2158 0.0
C2915 C 0.76675 0.29375 0.24144 0.0
C2916 C 0.7881 0.27163 0.21264 0.0
C2917 C 0.79248 0.26001 0.18617 0.0
C2918 C 0.77783 0.24684 0.17451 0.0
C2919 C 0.78201 0.23605 0.1495 0.0
C2920 C 0.80083 0.23825 0.13597 0.0
C2921 C 0.81553 0.25121 0.14745 0.0
C2922 C 0.81143 0.26204 0.17247 0.0
C2923 C 0.8224 0.26614 0.32964 0.0
C2924 C 0.84309 0.2674 0.32244 0.0
C2925 C 0.80775 0.27233 0.31015 0.0
C2926 C 0.81368 0.28019 0.28354 0.0
C2927 C 0.83429 0.28366 0.27777 0.0
C2928 C 0.84893 0.27732 0.2971 0.0
C2929 C 0.79873 0.28216 0.2604 0.0
C2930 C 0.80205 0.27116 0.23513 0.0
C2931 C 0.78087 0.29359 0.26367 0.0
C2932 C 0.77712 0.30637 0.28924 0.0
C2933 C 0.79155 0.32088 0.29799 0.0
C2934 C 0.78792 0.33289 0.32205 0.0
C2935 C 0.76985 0.33062 0.33745 0.0
C2936 C 0.75534 0.31637 0.32877 0.0
C2937 C 0.7589 0.30432 0.30472 0.0
H2938 H 0.76706 0.33993 0.35607 0.0
H2939 H 0.80403 0.22988 0.11659 0.0
H2940 H 0.12558 0.06476 0.94414 0.0
H2941 H 0.11295 1.03053 0.95268 0.0
H2942 H 0.06927 1.03767 0.88492 0.0
H2943 H 0.0815 0.07239 0.87687 0.0
H2944 H 0.05132 1.02648 0.93226 0.0
H2945 H 0.10669 1.00159 0.87984 0.0
H2946 H 0.14211 0.99876 0.86332 0.0
H2947 H 0.16033 0.97948 0.94699 0.0
H2948 H 0.12509 0.98254 0.96421 0.0
H2949 H 1.01053 0.93917 0.9897 0.0
H2950 H 1.03094 0.95403 0.95134 0.0
H2951 H 0.07598 0.97281 0.01268 0.0
H2952 H 0.05571 0.95779 0.05121 0.0
H2953 H 0.09164 0.96515 0.95444 0.0
H2954 H 1.0388 1.00234 0.00708 0.0
H2955 H 1.00366 1.00568 0.02473 0.0
H2956 H 0.98138 1.00214 0.93871 0.0
H2957 H 1.01642 0.99837 0.92064 0.0
C2958 C 0.11339 0.05899 0.93089 0.0
C2959 C 0.10428 0.07134 0.91018 0.0
C2960 C 0.10641 1.03927 0.93545 0.0
C2961 C 0.0903 1.03143 0.91922 0.0
C2962 C 0.08182 1.04339 0.89754 0.0
C2963 C 0.08881 0.06318 0.89296 0.0
C2964 C 0.08052 1.01215 0.9281 0.0
C2965 C 0.06002 1.01283 0.93611 0.0
C2966 C 0.0919 0.99442 0.93356 0.0
C2967 C 0.11318 0.99236 0.92335 0.0
C2968 C 0.11825 0.99687 0.8948 0.0
C2969 C 0.13831 0.99521 0.88529 0.0
C2970 C 0.15345 0.98895 0.90409 0.0
C2971 C 0.14857 0.98431 0.93244 0.0
C2972 C 0.12854 0.98597 0.94207 0.0
C2973 C 1.02523 0.94559 0.99488 0.0
C2974 C 1.03139 0.9477 0.02348 0.0
C2975 C 1.03688 0.95405 0.9729 0.0
C2976 C 0.05477 0.96473 0.97931 0.0
C2977 C 0.0622 0.96461 0.00736 0.0
C2978 C 0.05052 0.95623 0.02938 0.0
C2979 C 0.06283 0.97995 0.95903 0.0
C2980 C 0.08291 0.97854 0.94928 0.0
C2981 C 0.05113 0.99709 0.95181 0.0
C2982 C 1.03014 0.99982 0.96256 0.0
C2983 C 1.02638 1.00214 0.99197 0.0
C2984 C 1.0065 1.00411 0.00205 0.0
C2985 C 0.99029 1.00407 0.98286 0.0
C2986 C 0.99394 1.00212 0.95355 0.0
C2987 C 1.01381 1.00004 0.94338 0.0
H2988 H 0.9749 1.0056 0.99069 0.0
H2989 H 0.16898 0.98768 0.8967 0.0
H2990 H 0.61711 0.06607 0.60827 0.0
H2991 H 0.60777 1.03234 0.59075 0.0
H2992 H 0.56349 0.05917 0.53469 0.0
H2993 H 0.57208 0.0927 0.55299 0.0
H2994 H 0.54964 1.02451 0.5546 0.0
H2995 H 0.6128 0.04938 0.51248 0.0
H2996 H 0.64818 0.06171 0.51505 0.0
H2997 H 0.66598 1.00623 0.55567 0.0
H2998 H 0.63061 0.99369 0.55362 0.0
H2999 H 0.55035 0.97615 0.42317 0.0
H3000 H 0.57318 0.99427 0.45506 0.0
H3001 H 0.56043 0.95108 0.52195 0.0
H3002 H 0.53811 0.93225 0.48977 0.0
H3003 H 0.60526 0.98868 0.50394 0.0
H3004 H 0.53226 0.97832 0.56185 0.0
H3005 H 0.49647 0.96882 0.55289 0.0
H3006 H 0.49852 0.99977 0.47215 0.0
H3007 H 0.53422 1.00954 0.48082 0.0
C3008 C 0.60495 0.0647 0.59286 0.0
C3009 C 0.59549 0.08202 0.58169 0.0
C3010 C 0.59978 1.04545 0.58268 0.0
C3011 C 0.58525 1.04332 0.56102 0.0
C3012 C 0.57484 0.06048 0.55131 0.0
C3013 C 0.57987 0.07965 0.5616 0.0
C3014 C 0.58187 1.0237 0.54652 0.0
C3015 C 0.5619 1.01648 0.54411 0.0
C3016 C 0.59781 1.01332 0.53241 0.0
C3017 C 0.61908 1.0207 0.53317 0.0
C3018 C 0.62425 1.03987 0.52207 0.0
C3019 C 0.64429 1.04689 0.52343 0.0
C3020 C 0.65931 1.03478 0.53559 0.0
C3021 C 0.65433 1.0156 0.54631 0.0
C3022 C 0.6343 1.00853 0.54505 0.0
C3023 C 0.55334 0.9697 0.44402 0.0
C3024 C 0.5419 0.95316 0.45433 0.0
C3025 C 0.56648 0.98011 0.46225 0.0
C3026 C 0.56811 0.97416 0.4909 0.0
C3027 C 0.55925 0.95587 0.49987 0.0
C3028 C 0.54632 0.9453 0.48155 0.0
C3029 C 0.57316 0.98975 0.51225 0.0
C3030 C 0.59326 0.99626 0.51562 0.0
C3031 C 0.55736 0.99988 0.52677 0.0
C3032 C 0.53579 0.99458 0.52196 0.0
C3033 C 0.52498 0.98317 0.5423 0.0
C3034 C 0.50475 0.97774 0.53726 0.0
C3035 C 0.49521 0.98374 0.512 0.0
C3036 C 0.50589 0.9952 0.49174 0.0
C3037 C 0.5261 1.00068 0.4967 0.0
H3038 H 0.47959 0.97944 0.50808 0.0
H3039 H 0.67482 1.04025 0.53664 0.0
loop_
_geom_bond_atom_site_label_1
_geom_bond_atom_site_label_2
_geom_bond_distance
_geom_bond_site_symmetry_2
_ccdc_geom_bond_type
Eu0 C9 2.828 1_554 S
Eu0 O11 2.392 . S
Eu0 O13 2.418 . S
Eu0 O18 2.373 . S
Eu0 O21 2.488 1_554 S
Eu0 O22 2.471 1_554 S
Eu0 O23 2.349 . S
Eu1 O10 2.373 . S
Eu1 O14 2.488 . S
Eu1 O15 2.471 . S
Eu1 O16 2.349 . S
Eu1 O19 2.392 . S
Eu1 O20 2.418 . S
Eu1 C30 2.828 . S
C2 O20 1.244 . S
C2 O23 1.265 . S
C3 C4 1.379 . S
C3 C7 1.373 . S
C3 C9 1.505 . S
C4 C3 1.379 . S
C4 C6 1.369 . S
C4 H32 0.930 . S
C5 C7 1.383 . S
C5 C8 1.382 . S
C5 H33 0.930 . S
C6 C4 1.369 . S
C6 C8 1.392 . S
C6 H34 0.930 . S
C7 C3 1.373 . S
C7 C5 1.383 . S
C7 H35 0.931 . S
C8 C5 1.382 . S
C8 C6 1.392 . S
C9 Eu0 2.828 1_556 S
C9 C3 1.505 . S
C9 O21 1.249 . S
C9 O22 1.244 . S
O10 Eu1 2.373 . S
O10 C12 1.258 . S
O11 Eu0 2.392 . S
O11 C12 1.242 . S
C12 O10 1.258 . S
C12 O11 1.242 . S
O13 Eu0 2.418 . S
O13 C17 1.244 . S
O14 Eu1 2.488 . S
O14 C30 1.249 . S
O15 Eu1 2.471 . S
O15 C30 1.244 . S
O16 Eu1 2.349 . S
O16 C17 1.265 . S
C17 O13 1.244 . S
C17 O16 1.265 . S
O18 Eu0 2.373 . S
O18 C31 1.258 . S
O19 Eu1 2.392 . S
O19 C31 1.242 . S
O20 Eu1 2.418 . S
O20 C2 1.244 . S
O21 Eu0 2.488 1_556 S
O21 C9 1.249 . S
O22 Eu0 2.471 1_556 S
O22 C9 1.244 . S
O23 Eu0 2.349 . S
O23 C2 1.265 . S
C24 C25 1.379 . S
C24 C28 1.373 . S
C24 C30 1.505 . S
C25 C24 1.379 . S
C25 C27 1.369 . S
C25 H36 0.930 . S
C26 C28 1.383 . S
C26 C29 1.382 . S
C26 H37 0.930 . S
C27 C25 1.369 . S
C27 C29 1.392 . S
C27 H38 0.930 . S
C28 C24 1.373 . S
C28 C26 1.383 . S
C28 H39 0.931 . S
C29 C26 1.382 . S
C29 C27 1.392 . S
C30 Eu1 2.828 . S
C30 O14 1.249 . S
C30 O15 1.244 . S
C30 C24 1.505 . S
C31 O18 1.258 . S
C31 O19 1.242 . S
H32 C4 0.930 . S
H33 C5 0.930 . S
H34 C6 0.930 . S
H35 C7 0.931 . S
H36 C25 0.930 . S
H37 C26 0.930 . S
H38 C27 0.930 . S
H39 C28 0.931 . S
Eu40 C49 2.828 . S
Eu40 O51 2.392 . S
Eu40 O53 2.418 . S
Eu40 O58 2.373 . S
Eu40 O61 2.488 . S
Eu40 O62 2.471 . S
Eu40 O63 2.349 . S
Eu41 O50 2.373 . S
Eu41 O54 2.488 . S
Eu41 O55 2.471 . S
Eu41 O56 2.349 . S
Eu41 O59 2.392 . S
Eu41 O60 2.418 . S
Eu41 C70 2.828 . S
C42 O60 1.244 . S
C42 O63 1.265 . S
C43 C44 1.379 . S
C43 C47 1.373 . S
C43 C49 1.505 . S
C44 C43 1.379 . S
C44 C46 1.369 . S
C44 H72 0.930 . S
C45 C47 1.383 . S
C45 C48 1.382 . S
C45 H73 0.930 . S
C46 C44 1.369 . S
C46 C48 1.392 . S
C46 H74 0.930 . S
C47 C43 1.373 . S
C47 C45 1.383 . S
C47 H75 0.931 . S
C48 C45 1.382 . S
C48 C46 1.392 . S
C49 Eu40 2.828 . S
C49 C43 1.505 . S
C49 O61 1.249 . S
C49 O62 1.244 . S
O50 Eu41 2.373 . S
O50 C52 1.258 . S
O51 Eu40 2.392 . S
O51 C52 1.242 . S
C52 O50 1.258 . S
C52 O51 1.242 . S
O53 Eu40 2.418 . S
O53 C57 1.244 . S
O54 Eu41 2.488 . S
O54 C70 1.249 . S
O55 Eu41 2.471 . S
O55 C70 1.244 . S
O56 Eu41 2.349 . S
O56 C57 1.265 . S
C57 O53 1.244 . S
C57 O56 1.265 . S
O58 Eu40 2.373 . S
O58 C71 1.258 . S
O59 Eu41 2.392 . S
O59 C71 1.242 . S
O60 Eu41 2.418 . S
O60 C42 1.244 . S
O61 Eu40 2.488 . S
O61 C49 1.249 . S
O62 Eu40 2.471 . S
O62 C49 1.244 . S
O63 Eu40 2.349 . S
O63 C42 1.265 . S
C64 C65 1.379 . S
C64 C68 1.373 . S
C64 C70 1.505 . S
C65 C64 1.379 . S
C65 C67 1.369 . S
C65 H76 0.930 . S
C66 C68 1.383 . S
C66 C69 1.382 . S
C66 H77 0.930 . S
C67 C65 1.369 . S
C67 C69 1.392 . S
C67 H78 0.930 . S
C68 C64 1.373 . S
C68 C66 1.383 . S
C68 H79 0.931 . S
C69 C66 1.382 . S
C69 C67 1.392 . S
C70 Eu41 2.828 . S
C70 O54 1.249 . S
C70 O55 1.244 . S
C70 C64 1.505 . S
C71 O58 1.258 . S
C71 O59 1.242 . S
H72 C44 0.930 . S
H73 C45 0.930 . S
H74 C46 0.930 . S
H75 C47 0.931 . S
H76 C65 0.930 . S
H77 C66 0.930 . S
H78 C67 0.930 . S
H79 C68 0.931 . S
Eu80 C89 2.828 . S
Eu80 O91 2.392 . S
Eu80 O93 2.418 . S
Eu80 O98 2.373 . S
Eu80 O101 2.488 . S
Eu80 O102 2.471 . S
Eu80 O103 2.349 . S
Eu81 O90 2.373 . S
Eu81 O94 2.488 . S
Eu81 O95 2.471 . S
Eu81 O96 2.349 . S
Eu81 O99 2.392 . S
Eu81 O100 2.418 . S
Eu81 C110 2.828 . S
C82 O100 1.244 . S
C82 O103 1.265 . S
C83 C84 1.379 . S
C83 C87 1.373 . S
C83 C89 1.505 . S
C84 C83 1.379 . S
C84 C86 1.369 . S
C84 H112 0.930 . S
C85 C87 1.383 . S
C85 C88 1.382 . S
C85 H113 0.930 . S
C86 C84 1.369 . S
C86 C88 1.392 . S
C86 H114 0.930 . S
C87 C83 1.373 . S
C87 C85 1.383 . S
C87 H115 0.931 . S
C88 C85 1.382 . S
C88 C86 1.392 . S
C89 Eu80 2.828 . S
C89 C83 1.505 . S
C89 O101 1.249 . S
C89 O102 1.244 . S
O90 Eu81 2.373 . S
O90 C92 1.258 . S
O91 Eu80 2.392 . S
O91 C92 1.242 . S
C92 O90 1.258 . S
C92 O91 1.242 . S
O93 Eu80 2.418 . S
O93 C97 1.244 . S
O94 Eu81 2.488 . S
O94 C110 1.249 . S
O95 Eu81 2.471 . S
O95 C110 1.244 . S
O96 Eu81 2.349 . S
O96 C97 1.265 . S
C97 O93 1.244 . S
C97 O96 1.265 . S
O98 Eu80 2.373 . S
O98 C111 1.258 . S
O99 Eu81 2.392 . S
O99 C111 1.242 . S
O100 Eu81 2.418 . S
O100 C82 1.244 . S
O101 Eu80 2.488 . S
O101 C89 1.249 . S
O102 Eu80 2.471 . S
O102 C89 1.244 . S
O103 Eu80 2.349 . S
O103 C82 1.265 . S
C104 C105 1.379 . S
C104 C108 1.373 . S
C104 C110 1.505 . S
C105 C104 1.379 . S
C105 C107 1.369 . S
C105 H116 0.930 . S
C106 C108 1.383 . S
C106 C109 1.382 . S
C106 H117 0.930 . S
C107 C105 1.369 . S
C107 C109 1.392 . S
C107 H118 0.930 . S
C108 C104 1.373 . S
C108 C106 1.383 . S
C108 H119 0.931 . S
C109 C106 1.382 . S
C109 C107 1.392 . S
C110 Eu81 2.828 . S
C110 O94 1.249 . S
C110 O95 1.244 . S
C110 C104 1.505 . S
C111 O98 1.258 . S
C111 O99 1.242 . S
H112 C84 0.930 . S
H113 C85 0.930 . S
H114 C86 0.930 . S
H115 C87 0.931 . S
H116 C105 0.930 . S
H117 C106 0.930 . S
H118 C107 0.930 . S
H119 C108 0.931 . S
Eu120 C129 2.828 . S
Eu120 O131 2.392 . S
Eu120 O133 2.418 . S
Eu120 O138 2.373 . S
Eu120 O141 2.488 . S
Eu120 O142 2.471 . S
Eu120 O143 2.349 . S
Eu121 O130 2.373 . S
Eu121 O134 2.488 . S
Eu121 O135 2.471 . S
Eu121 O136 2.349 . S
Eu121 O139 2.392 . S
Eu121 O140 2.418 . S
Eu121 C150 2.828 . S
C122 O140 1.244 . S
C122 O143 1.265 . S
C123 C124 1.379 . S
C123 C127 1.373 . S
C123 C129 1.505 . S
C124 C123 1.379 . S
C124 C126 1.369 . S
C124 H152 0.930 . S
C125 C127 1.383 . S
C125 C128 1.382 . S
C125 H153 0.930 . S
C126 C124 1.369 . S
C126 C128 1.392 . S
C126 H154 0.930 . S
C127 C123 1.373 . S
C127 C125 1.383 . S
C127 H155 0.931 . S
C128 C125 1.382 . S
C128 C126 1.392 . S
C129 Eu120 2.828 . S
C129 C123 1.505 . S
C129 O141 1.249 . S
C129 O142 1.244 . S
O130 Eu121 2.373 . S
O130 C132 1.258 . S
O131 Eu120 2.392 . S
O131 C132 1.242 . S
C132 O130 1.258 . S
C132 O131 1.242 . S
O133 Eu120 2.418 . S
O133 C137 1.244 . S
O134 Eu121 2.488 . S
O134 C150 1.249 . S
O135 Eu121 2.471 . S
O135 C150 1.244 . S
O136 Eu121 2.349 . S
O136 C137 1.265 . S
C137 O133 1.244 . S
C137 O136 1.265 . S
O138 Eu120 2.373 . S
O138 C151 1.258 . S
O139 Eu121 2.392 . S
O139 C151 1.242 . S
O140 Eu121 2.418 . S
O140 C122 1.244 . S
O141 Eu120 2.488 . S
O141 C129 1.249 . S
O142 Eu120 2.471 . S
O142 C129 1.244 . S
O143 Eu120 2.349 . S
O143 C122 1.265 . S
C144 C145 1.379 . S
C144 C148 1.373 . S
C144 C150 1.505 . S
C145 C144 1.379 . S
C145 C147 1.369 . S
C145 H156 0.930 . S
C146 C148 1.383 . S
C146 C149 1.382 . S
C146 H157 0.930 . S
C147 C145 1.369 . S
C147 C149 1.392 . S
C147 H158 0.930 . S
C148 C144 1.373 . S
C148 C146 1.383 . S
C148 H159 0.931 . S
C149 C146 1.382 . S
C149 C147 1.392 . S
C150 Eu121 2.828 . S
C150 O134 1.249 . S
C150 O135 1.244 . S
C150 C144 1.505 . S
C151 O138 1.258 . S
C151 O139 1.242 . S
H152 C124 0.930 . S
H153 C125 0.930 . S
H154 C126 0.930 . S
H155 C127 0.931 . S
H156 C145 0.930 . S
H157 C146 0.930 . S
H158 C147 0.930 . S
H159 C148 0.931 . S
Eu160 C169 2.828 . S
Eu160 O171 2.392 . S
Eu160 O173 2.418 . S
Eu160 O178 2.373 . S
Eu160 O181 2.488 . S
Eu160 O182 2.471 . S
Eu160 O183 2.349 . S
Eu161 O170 2.373 . S
Eu161 O174 2.488 1_556 S
Eu161 O175 2.471 1_556 S
Eu161 O176 2.349 . S
Eu161 O179 2.392 . S
Eu161 O180 2.418 . S
Eu161 C190 2.828 1_556 S
C162 O180 1.244 . S
C162 O183 1.265 . S
C163 C164 1.379 . S
C163 C167 1.373 . S
C163 C169 1.505 . S
C164 C163 1.379 . S
C164 C166 1.369 . S
C164 H192 0.930 . S
C165 C167 1.383 . S
C165 C168 1.382 . S
C165 H193 0.930 . S
C166 C164 1.369 . S
C166 C168 1.392 . S
C166 H194 0.930 . S
C167 C163 1.373 . S
C167 C165 1.383 . S
C167 H195 0.931 . S
C168 C165 1.382 . S
C168 C166 1.392 . S
C169 Eu160 2.828 . S
C169 C163 1.505 . S
C169 O181 1.249 . S
C169 O182 1.244 . S
O170 Eu161 2.373 . S
O170 C172 1.258 . S
O171 Eu160 2.392 . S
O171 C172 1.242 . S
C172 O170 1.258 . S
C172 O171 1.242 . S
O173 Eu160 2.418 . S
O173 C177 1.244 . S
O174 Eu161 2.488 1_554 S
O174 C190 1.249 . S
O175 Eu161 2.471 1_554 S
O175 C190 1.244 . S
O176 Eu161 2.349 . S
O176 C177 1.265 . S
C177 O173 1.244 . S
C177 O176 1.265 . S
O178 Eu160 2.373 . S
O178 C191 1.258 . S
O179 Eu161 2.392 . S
O179 C191 1.242 . S
O180 Eu161 2.418 . S
O180 C162 1.244 . S
O181 Eu160 2.488 . S
O181 C169 1.249 . S
O182 Eu160 2.471 . S
O182 C169 1.244 . S
O183 Eu160 2.349 . S
O183 C162 1.265 . S
C184 C185 1.379 . S
C184 C188 1.373 . S
C184 C190 1.505 . S
C185 C184 1.379 . S
C185 C187 1.369 . S
C185 H196 0.930 . S
C186 C188 1.383 . S
C186 C189 1.382 . S
C186 H197 0.930 . S
C187 C185 1.369 . S
C187 C189 1.392 . S
C187 H198 0.930 . S
C188 C184 1.373 . S
C188 C186 1.383 . S
C188 H199 0.931 . S
C189 C186 1.382 . S
C189 C187 1.392 . S
C190 Eu161 2.828 1_554 S
C190 O174 1.249 . S
C190 O175 1.244 . S
C190 C184 1.505 . S
C191 O178 1.258 . S
C191 O179 1.242 . S
H192 C164 0.930 . S
H193 C165 0.930 . S
H194 C166 0.930 . S
H195 C167 0.931 . S
H196 C185 0.930 . S
H197 C186 0.930 . S
H198 C187 0.930 . S
H199 C188 0.931 . S
Eu200 C209 2.828 . S
Eu200 O211 2.392 . S
Eu200 O213 2.418 . S
Eu200 O218 2.373 . S
Eu200 O221 2.488 . S
Eu200 O222 2.471 . S
Eu200 O223 2.349 . S
Eu201 O210 2.373 . S
Eu201 O214 2.488 . S
Eu201 O215 2.471 . S
Eu201 O216 2.349 . S
Eu201 O219 2.392 . S
Eu201 O220 2.418 . S
Eu201 C230 2.828 . S
C202 O220 1.244 . S
C202 O223 1.265 . S
C203 C204 1.379 . S
C203 C207 1.373 . S
C203 C209 1.505 . S
C204 C203 1.379 . S
C204 C206 1.369 . S
C204 H232 0.930 . S
C205 C207 1.383 . S
C205 C208 1.382 . S
C205 H233 0.930 . S
C206 C204 1.369 . S
C206 C208 1.392 . S
C206 H234 0.930 . S
C207 C203 1.373 . S
C207 C205 1.383 . S
C207 H235 0.931 . S
C208 C205 1.382 . S
C208 C206 1.392 . S
C209 Eu200 2.828 . S
C209 C203 1.505 . S
C209 O221 1.249 . S
C209 O222 1.244 . S
O210 Eu201 2.373 . S
O210 C212 1.258 . S
O211 Eu200 2.392 . S
O211 C212 1.242 . S
C212 O210 1.258 . S
C212 O211 1.242 . S
O213 Eu200 2.418 . S
O213 C217 1.244 . S
O214 Eu201 2.488 . S
O214 C230 1.249 . S
O215 Eu201 2.471 . S
O215 C230 1.244 . S
O216 Eu201 2.349 . S
O216 C217 1.265 . S
C217 O213 1.244 . S
C217 O216 1.265 . S
O218 Eu200 2.373 . S
O218 C231 1.258 . S
O219 Eu201 2.392 . S
O219 C231 1.242 . S
O220 Eu201 2.418 . S
O220 C202 1.244 . S
O221 Eu200 2.488 . S
O221 C209 1.249 . S
O222 Eu200 2.471 . S
O222 C209 1.244 . S
O223 Eu200 2.349 . S
O223 C202 1.265 . S
C224 C225 1.379 . S
C224 C228 1.373 . S
C224 C230 1.505 . S
C225 C224 1.379 . S
C225 C227 1.369 . S
C225 H236 0.930 . S
C226 C228 1.383 . S
C226 C229 1.382 . S
C226 H237 0.930 . S
C227 C225 1.369 . S
C227 C229 1.392 . S
C227 H238 0.930 . S
C228 C224 1.373 . S
C228 C226 1.383 . S
C228 H239 0.931 . S
C229 C226 1.382 . S
C229 C227 1.392 . S
C230 Eu201 2.828 . S
C230 O214 1.249 . S
C230 O215 1.244 . S
C230 C224 1.505 . S
C231 O218 1.258 . S
C231 O219 1.242 . S
H232 C204 0.930 . S
H233 C205 0.930 . S
H234 C206 0.930 . S
H235 C207 0.931 . S
H236 C225 0.930 . S
H237 C226 0.930 . S
H238 C227 0.930 . S
H239 C228 0.931 . S
Eu240 C249 2.828 . S
Eu240 O251 2.392 . S
Eu240 O253 2.418 . S
Eu240 O258 2.373 . S
Eu240 O261 2.488 . S
Eu240 O262 2.471 . S
Eu240 O263 2.349 . S
Eu241 O250 2.373 . S
Eu241 O254 2.488 . S
Eu241 O255 2.471 . S
Eu241 O256 2.349 . S
Eu241 O259 2.392 . S
Eu241 O260 2.418 . S
Eu241 C270 2.828 . S
C242 O260 1.244 . S
C242 O263 1.265 . S
C243 C244 1.379 . S
C243 C247 1.373 . S
C243 C249 1.505 . S
C244 C243 1.379 . S
C244 C246 1.369 . S
C244 H272 0.930 . S
C245 C247 1.383 . S
C245 C248 1.382 . S
C245 H273 0.930 . S
C246 C244 1.369 . S
C246 C248 1.392 . S
C246 H274 0.930 . S
C247 C243 1.373 . S
C247 C245 1.383 . S
C247 H275 0.931 . S
C248 C245 1.382 . S
C248 C246 1.392 . S
C249 Eu240 2.828 . S
C249 C243 1.505 . S
C249 O261 1.249 . S
C249 O262 1.244 . S
O250 Eu241 2.373 . S
O250 C252 1.258 . S
O251 Eu240 2.392 . S
O251 C252 1.242 . S
C252 O250 1.258 . S
C252 O251 1.242 . S
O253 Eu240 2.418 . S
O253 C257 1.244 . S
O254 Eu241 2.488 . S
O254 C270 1.249 . S
O255 Eu241 2.471 . S
O255 C270 1.244 . S
O256 Eu241 2.349 . S
O256 C257 1.265 . S
C257 O253 1.244 . S
C257 O256 1.265 . S
O258 Eu240 2.373 . S
O258 C271 1.258 . S
O259 Eu241 2.392 . S
O259 C271 1.242 . S
O260 Eu241 2.418 . S
O260 C242 1.244 . S
O261 Eu240 2.488 . S
O261 C249 1.249 . S
O262 Eu240 2.471 . S
O262 C249 1.244 . S
O263 Eu240 2.349 . S
O263 C242 1.265 . S
C264 C265 1.379 . S
C264 C268 1.373 . S
C264 C270 1.505 . S
C265 C264 1.379 . S
C265 C267 1.369 . S
C265 H276 0.930 . S
C266 C268 1.383 . S
C266 C269 1.382 . S
C266 H277 0.930 . S
C267 C265 1.369 . S
C267 C269 1.392 . S
C267 H278 0.930 . S
C268 C264 1.373 . S
C268 C266 1.383 . S
C268 H279 0.931 . S
C269 C266 1.382 . S
C269 C267 1.392 . S
C270 Eu241 2.828 . S
C270 O254 1.249 . S
C270 O255 1.244 . S
C270 C264 1.505 . S
C271 O258 1.258 . S
C271 O259 1.242 . S
H272 C244 0.930 . S
H273 C245 0.930 . S
H274 C246 0.930 . S
H275 C247 0.931 . S
H276 C265 0.930 . S
H277 C266 0.930 . S
H278 C267 0.930 . S
H279 C268 0.931 . S
Eu280 C289 2.828 . S
Eu280 O291 2.392 . S
Eu280 O293 2.418 . S
Eu280 O298 2.373 . S
Eu280 O301 2.488 . S
Eu280 O302 2.471 . S
Eu280 O303 2.349 . S
Eu281 O290 2.373 . S
Eu281 O294 2.488 . S
Eu281 O295 2.471 . S
Eu281 O296 2.349 . S
Eu281 O299 2.392 . S
Eu281 O300 2.418 . S
Eu281 C310 2.828 . S
C282 O300 1.244 . S
C282 O303 1.265 . S
C283 C284 1.379 . S
C283 C287 1.373 . S
C283 C289 1.505 . S
C284 C283 1.379 . S
C284 C286 1.369 . S
C284 H312 0.930 . S
C285 C287 1.383 . S
C285 C288 1.382 . S
C285 H313 0.930 . S
C286 C284 1.369 . S
C286 C288 1.392 . S
C286 H314 0.930 . S
C287 C283 1.373 . S
C287 C285 1.383 . S
C287 H315 0.931 . S
C288 C285 1.382 . S
C288 C286 1.392 . S
C289 Eu280 2.828 . S
C289 C283 1.505 . S
C289 O301 1.249 . S
C289 O302 1.244 . S
O290 Eu281 2.373 . S
O290 C292 1.258 . S
O291 Eu280 2.392 . S
O291 C292 1.242 . S
C292 O290 1.258 . S
C292 O291 1.242 . S
O293 Eu280 2.418 . S
O293 C297 1.244 . S
O294 Eu281 2.488 . S
O294 C310 1.249 . S
O295 Eu281 2.471 . S
O295 C310 1.244 . S
O296 Eu281 2.349 . S
O296 C297 1.265 . S
C297 O293 1.244 . S
C297 O296 1.265 . S
O298 Eu280 2.373 . S
O298 C311 1.258 . S
O299 Eu281 2.392 . S
O299 C311 1.242 . S
O300 Eu281 2.418 . S
O300 C282 1.244 . S
O301 Eu280 2.488 . S
O301 C289 1.249 . S
O302 Eu280 2.471 . S
O302 C289 1.244 . S
O303 Eu280 2.349 . S
O303 C282 1.265 . S
C304 C305 1.379 . S
C304 C308 1.373 . S
C304 C310 1.505 . S
C305 C304 1.379 . S
C305 C307 1.369 . S
C305 H316 0.930 . S
C306 C308 1.383 . S
C306 C309 1.382 . S
C306 H317 0.930 . S
C307 C305 1.369 . S
C307 C309 1.392 . S
C307 H318 0.930 . S
C308 C304 1.373 . S
C308 C306 1.383 . S
C308 H319 0.931 . S
C309 C306 1.382 . S
C309 C307 1.392 . S
C310 Eu281 2.828 . S
C310 O294 1.249 . S
C310 O295 1.244 . S
C310 C304 1.505 . S
C311 O298 1.258 . S
C311 O299 1.242 . S
H312 C284 0.930 . S
H313 C285 0.930 . S
H314 C286 0.930 . S
H315 C287 0.931 . S
H316 C305 0.930 . S
H317 C306 0.930 . S
H318 C307 0.930 . S
H319 C308 0.931 . S
Eu320 C329 2.828 . S
Eu320 O331 2.392 . S
Eu320 O333 2.418 . S
Eu320 O338 2.373 . S
Eu320 O341 2.488 . S
Eu320 O342 2.471 . S
Eu320 O343 2.349 . S
Eu321 O330 2.373 . S
Eu321 O334 2.488 . S
Eu321 O335 2.471 . S
Eu321 O336 2.349 . S
Eu321 O339 2.392 . S
Eu321 O340 2.418 . S
Eu321 C350 2.828 . S
C322 O340 1.244 . S
C322 O343 1.265 . S
C323 C324 1.379 . S
C323 C327 1.373 . S
C323 C329 1.505 . S
C324 C323 1.379 . S
C324 C326 1.369 . S
C324 H352 0.930 . S
C325 C327 1.383 . S
C325 C328 1.382 . S
C325 H353 0.930 . S
C326 C324 1.369 . S
C326 C328 1.392 . S
C326 H354 0.930 . S
C327 C323 1.373 . S
C327 C325 1.383 . S
C327 H355 0.931 . S
C328 C325 1.382 . S
C328 C326 1.392 . S
C329 Eu320 2.828 . S
C329 C323 1.505 . S
C329 O341 1.249 . S
C329 O342 1.244 . S
O330 Eu321 2.373 . S
O330 C332 1.258 . S
O331 Eu320 2.392 . S
O331 C332 1.242 . S
C332 O330 1.258 . S
C332 O331 1.242 . S
O333 Eu320 2.418 . S
O333 C337 1.244 . S
O334 Eu321 2.488 . S
O334 C350 1.249 . S
O335 Eu321 2.471 . S
O335 C350 1.244 . S
O336 Eu321 2.349 . S
O336 C337 1.265 . S
C337 O333 1.244 . S
C337 O336 1.265 . S
O338 Eu320 2.373 . S
O338 C351 1.258 . S
O339 Eu321 2.392 . S
O339 C351 1.242 . S
O340 Eu321 2.418 . S
O340 C322 1.244 . S
O341 Eu320 2.488 . S
O341 C329 1.249 . S
O342 Eu320 2.471 . S
O342 C329 1.244 . S
O343 Eu320 2.349 . S
O343 C322 1.265 . S
C344 C345 1.379 . S
C344 C348 1.373 . S
C344 C350 1.505 . S
C345 C344 1.379 . S
C345 C347 1.369 . S
C345 H356 0.930 . S
C346 C348 1.383 . S
C346 C349 1.382 . S
C346 H357 0.930 . S
C347 C345 1.369 . S
C347 C349 1.392 . S
C347 H358 0.930 . S
C348 C344 1.373 . S
C348 C346 1.383 . S
C348 H359 0.931 . S
C349 C346 1.382 . S
C349 C347 1.392 . S
C350 Eu321 2.828 . S
C350 O334 1.249 . S
C350 O335 1.244 . S
C350 C344 1.505 . S
C351 O338 1.258 . S
C351 O339 1.242 . S
H352 C324 0.930 . S
H353 C325 0.930 . S
H354 C326 0.930 . S
H355 C327 0.931 . S
H356 C345 0.930 . S
H357 C346 0.930 . S
H358 C347 0.930 . S
H359 C348 0.931 . S
Eu360 C369 2.828 . S
Eu360 O371 2.392 . S
Eu360 O373 2.418 . S
Eu360 O378 2.373 . S
Eu360 O381 2.488 . S
Eu360 O382 2.471 . S
Eu360 O383 2.349 . S
Eu361 O370 2.373 . S
Eu361 O374 2.488 . S
Eu361 O375 2.471 . S
Eu361 O376 2.349 . S
Eu361 O379 2.392 . S
Eu361 O380 2.418 . S
Eu361 C390 2.828 . S
C362 O380 1.244 . S
C362 O383 1.265 . S
C363 C364 1.379 . S
C363 C367 1.373 . S
C363 C369 1.505 . S
C364 C363 1.379 . S
C364 C366 1.369 . S
C364 H392 0.930 . S
C365 C367 1.383 . S
C365 C368 1.382 . S
C365 H393 0.930 . S
C366 C364 1.369 . S
C366 C368 1.392 . S
C366 H394 0.930 . S
C367 C363 1.373 . S
C367 C365 1.383 . S
C367 H395 0.931 . S
C368 C365 1.382 . S
C368 C366 1.392 . S
C369 Eu360 2.828 . S
C369 C363 1.505 . S
C369 O381 1.249 . S
C369 O382 1.244 . S
O370 Eu361 2.373 . S
O370 C372 1.258 . S
O371 Eu360 2.392 . S
O371 C372 1.242 . S
C372 O370 1.258 . S
C372 O371 1.242 . S
O373 Eu360 2.418 . S
O373 C377 1.244 . S
O374 Eu361 2.488 . S
O374 C390 1.249 . S
O375 Eu361 2.471 . S
O375 C390 1.244 . S
O376 Eu361 2.349 . S
O376 C377 1.265 . S
C377 O373 1.244 . S
C377 O376 1.265 . S
O378 Eu360 2.373 . S
O378 C391 1.258 . S
O379 Eu361 2.392 . S
O379 C391 1.242 . S
O380 Eu361 2.418 . S
O380 C362 1.244 . S
O381 Eu360 2.488 . S
O381 C369 1.249 . S
O382 Eu360 2.471 . S
O382 C369 1.244 . S
O383 Eu360 2.349 . S
O383 C362 1.265 . S
C384 C385 1.379 . S
C384 C388 1.373 . S
C384 C390 1.505 . S
C385 C384 1.379 . S
C385 C387 1.369 . S
C385 H396 0.930 . S
C386 C388 1.383 . S
C386 C389 1.382 . S
C386 H397 0.930 . S
C387 C385 1.369 . S
C387 C389 1.392 . S
C387 H398 0.930 . S
C388 C384 1.373 . S
C388 C386 1.383 . S
C388 H399 0.931 . S
C389 C386 1.382 . S
C389 C387 1.392 . S
C390 Eu361 2.828 . S
C390 O374 1.249 . S
C390 O375 1.244 . S
C390 C384 1.505 . S
C391 O378 1.258 . S
C391 O379 1.242 . S
H392 C364 0.930 . S
H393 C365 0.930 . S
H394 C366 0.930 . S
H395 C367 0.931 . S
H396 C385 0.930 . S
H397 C386 0.930 . S
H398 C387 0.930 . S
H399 C388 0.931 . S
Eu400 C409 2.828 1_554 S
Eu400 O411 2.392 . S
Eu400 O413 2.418 . S
Eu400 O418 2.373 . S
Eu400 O421 2.488 1_554 S
Eu400 O422 2.471 1_554 S
Eu400 O423 2.349 . S
Eu401 O410 2.373 . S
Eu401 O414 2.488 . S
Eu401 O415 2.471 . S
Eu401 O416 2.349 . S
Eu401 O419 2.392 . S
Eu401 O420 2.418 . S
Eu401 C430 2.828 . S
C402 O420 1.244 . S
C402 O423 1.265 . S
C403 C404 1.379 . S
C403 C407 1.373 . S
C403 C409 1.505 . S
C404 C403 1.379 . S
C404 C406 1.369 . S
C404 H432 0.930 . S
C405 C407 1.383 . S
C405 C408 1.382 . S
C405 H433 0.930 . S
C406 C404 1.369 . S
C406 C408 1.392 . S
C406 H434 0.930 . S
C407 C403 1.373 . S
C407 C405 1.383 . S
C407 H435 0.931 . S
C408 C405 1.382 . S
C408 C406 1.392 . S
C409 Eu400 2.828 1_556 S
C409 C403 1.505 . S
C409 O421 1.249 . S
C409 O422 1.244 . S
O410 Eu401 2.373 . S
O410 C412 1.258 . S
O411 Eu400 2.392 . S
O411 C412 1.242 . S
C412 O410 1.258 . S
C412 O411 1.242 . S
O413 Eu400 2.418 . S
O413 C417 1.244 . S
O414 Eu401 2.488 . S
O414 C430 1.249 . S
O415 Eu401 2.471 . S
O415 C430 1.244 . S
O416 Eu401 2.349 . S
O416 C417 1.265 . S
C417 O413 1.244 . S
C417 O416 1.265 . S
O418 Eu400 2.373 . S
O418 C431 1.258 . S
O419 Eu401 2.392 . S
O419 C431 1.242 . S
O420 Eu401 2.418 . S
O420 C402 1.244 . S
O421 Eu400 2.488 1_556 S
O421 C409 1.249 . S
O422 Eu400 2.471 1_556 S
O422 C409 1.244 . S
O423 Eu400 2.349 . S
O423 C402 1.265 . S
C424 C425 1.379 . S
C424 C428 1.373 . S
C424 C430 1.505 . S
C425 C424 1.379 . S
C425 C427 1.369 . S
C425 H436 0.930 . S
C426 C428 1.383 . S
C426 C429 1.382 . S
C426 H437 0.930 . S
C427 C425 1.369 . S
C427 C429 1.392 . S
C427 H438 0.930 . S
C428 C424 1.373 . S
C428 C426 1.383 . S
C428 H439 0.931 . S
C429 C426 1.382 . S
C429 C427 1.392 . S
C430 Eu401 2.828 . S
C430 O414 1.249 . S
C430 O415 1.244 . S
C430 C424 1.505 . S
C431 O418 1.258 . S
C431 O419 1.242 . S
H432 C404 0.930 . S
H433 C405 0.930 . S
H434 C406 0.930 . S
H435 C407 0.931 . S
H436 C425 0.930 . S
H437 C426 0.930 . S
H438 C427 0.930 . S
H439 C428 0.931 . S
Eu440 C449 2.828 . S
Eu440 O451 2.392 . S
Eu440 O453 2.418 . S
Eu440 O458 2.373 . S
Eu440 O461 2.488 . S
Eu440 O462 2.471 . S
Eu440 O463 2.349 . S
Eu441 O450 2.373 . S
Eu441 O454 2.488 . S
Eu441 O455 2.471 . S
Eu441 O456 2.349 . S
Eu441 O459 2.392 . S
Eu441 O460 2.418 . S
Eu441 C470 2.828 . S
C442 O460 1.244 . S
C442 O463 1.265 . S
C443 C444 1.379 . S
C443 C447 1.373 . S
C443 C449 1.505 . S
C444 C443 1.379 . S
C444 C446 1.369 . S
C444 H472 0.930 . S
C445 C447 1.383 . S
C445 C448 1.382 . S
C445 H473 0.930 . S
C446 C444 1.369 . S
C446 C448 1.392 . S
C446 H474 0.930 . S
C447 C443 1.373 . S
C447 C445 1.383 . S
C447 H475 0.931 . S
C448 C445 1.382 . S
C448 C446 1.392 . S
C449 Eu440 2.828 . S
C449 C443 1.505 . S
C449 O461 1.249 . S
C449 O462 1.244 . S
O450 Eu441 2.373 . S
O450 C452 1.258 . S
O451 Eu440 2.392 . S
O451 C452 1.242 . S
C452 O450 1.258 . S
C452 O451 1.242 . S
O453 Eu440 2.418 . S
O453 C457 1.244 . S
O454 Eu441 2.488 . S
O454 C470 1.249 . S
O455 Eu441 2.471 . S
O455 C470 1.244 . S
O456 Eu441 2.349 . S
O456 C457 1.265 . S
C457 O453 1.244 . S
C457 O456 1.265 . S
O458 Eu440 2.373 . S
O458 C471 1.258 . S
O459 Eu441 2.392 . S
O459 C471 1.242 . S
O460 Eu441 2.418 . S
O460 C442 1.244 . S
O461 Eu440 2.488 . S
O461 C449 1.249 . S
O462 Eu440 2.471 . S
O462 C449 1.244 . S
O463 Eu440 2.349 . S
O463 C442 1.265 . S
C464 C465 1.379 . S
C464 C468 1.373 . S
C464 C470 1.505 . S
C465 C464 1.379 . S
C465 C467 1.369 . S
C465 H476 0.930 . S
C466 C468 1.383 . S
C466 C469 1.382 . S
C466 H477 0.930 . S
C467 C465 1.369 . S
C467 C469 1.392 . S
C467 H478 0.930 . S
C468 C464 1.373 . S
C468 C466 1.383 . S
C468 H479 0.931 . S
C469 C466 1.382 . S
C469 C467 1.392 . S
C470 Eu441 2.828 . S
C470 O454 1.249 . S
C470 O455 1.244 . S
C470 C464 1.505 . S
C471 O458 1.258 . S
C471 O459 1.242 . S
H472 C444 0.930 . S
H473 C445 0.930 . S
H474 C446 0.930 . S
H475 C447 0.931 . S
H476 C465 0.930 . S
H477 C466 0.930 . S
H478 C467 0.930 . S
H479 C468 0.931 . S
Eu480 C489 2.828 . S
Eu480 O491 2.392 . S
Eu480 O493 2.418 . S
Eu480 O498 2.373 . S
Eu480 O501 2.488 . S
Eu480 O502 2.471 . S
Eu480 O503 2.349 . S
Eu481 O490 2.373 . S
Eu481 O494 2.488 . S
Eu481 O495 2.471 . S
Eu481 O496 2.349 . S
Eu481 O499 2.392 . S
Eu481 O500 2.418 . S
Eu481 C510 2.828 . S
C482 O500 1.244 . S
C482 O503 1.265 . S
C483 C484 1.379 . S
C483 C487 1.373 . S
C483 C489 1.505 . S
C484 C483 1.379 . S
C484 C486 1.369 . S
C484 H512 0.930 . S
C485 C487 1.383 . S
C485 C488 1.382 . S
C485 H513 0.930 . S
C486 C484 1.369 . S
C486 C488 1.392 . S
C486 H514 0.930 . S
C487 C483 1.373 . S
C487 C485 1.383 . S
C487 H515 0.931 . S
C488 C485 1.382 . S
C488 C486 1.392 . S
C489 Eu480 2.828 . S
C489 C483 1.505 . S
C489 O501 1.249 . S
C489 O502 1.244 . S
O490 Eu481 2.373 . S
O490 C492 1.258 . S
O491 Eu480 2.392 . S
O491 C492 1.242 . S
C492 O490 1.258 . S
C492 O491 1.242 . S
O493 Eu480 2.418 . S
O493 C497 1.244 . S
O494 Eu481 2.488 . S
O494 C510 1.249 . S
O495 Eu481 2.471 . S
O495 C510 1.244 . S
O496 Eu481 2.349 . S
O496 C497 1.265 . S
C497 O493 1.244 . S
C497 O496 1.265 . S
O498 Eu480 2.373 . S
O498 C511 1.258 . S
O499 Eu481 2.392 . S
O499 C511 1.242 . S
O500 Eu481 2.418 . S
O500 C482 1.244 . S
O501 Eu480 2.488 . S
O501 C489 1.249 . S
O502 Eu480 2.471 . S
O502 C489 1.244 . S
O503 Eu480 2.349 . S
O503 C482 1.265 . S
C504 C505 1.379 . S
C504 C508 1.373 . S
C504 C510 1.505 . S
C505 C504 1.379 . S
C505 C507 1.369 . S
C505 H516 0.930 . S
C506 C508 1.383 . S
C506 C509 1.382 . S
C506 H517 0.930 . S
C507 C505 1.369 . S
C507 C509 1.392 . S
C507 H518 0.930 . S
C508 C504 1.373 . S
C508 C506 1.383 . S
C508 H519 0.931 . S
C509 C506 1.382 . S
C509 C507 1.392 . S
C510 Eu481 2.828 . S
C510 O494 1.249 . S
C510 O495 1.244 . S
C510 C504 1.505 . S
C511 O498 1.258 . S
C511 O499 1.242 . S
H512 C484 0.930 . S
H513 C485 0.930 . S
H514 C486 0.930 . S
H515 C487 0.931 . S
H516 C505 0.930 . S
H517 C506 0.930 . S
H518 C507 0.930 . S
H519 C508 0.931 . S
Eu520 C529 2.828 . S
Eu520 O531 2.392 . S
Eu520 O533 2.418 . S
Eu520 O538 2.373 . S
Eu520 O541 2.488 . S
Eu520 O542 2.471 . S
Eu520 O543 2.349 . S
Eu521 O530 2.373 . S
Eu521 O534 2.488 . S
Eu521 O535 2.471 . S
Eu521 O536 2.349 . S
Eu521 O539 2.392 . S
Eu521 O540 2.418 . S
Eu521 C550 2.828 . S
C522 O540 1.244 . S
C522 O543 1.265 . S
C523 C524 1.379 . S
C523 C527 1.373 . S
C523 C529 1.505 . S
C524 C523 1.379 . S
C524 C526 1.369 . S
C524 H552 0.930 . S
C525 C527 1.383 . S
C525 C528 1.382 . S
C525 H553 0.930 . S
C526 C524 1.369 . S
C526 C528 1.392 . S
C526 H554 0.930 . S
C527 C523 1.373 . S
C527 C525 1.383 . S
C527 H555 0.931 . S
C528 C525 1.382 . S
C528 C526 1.392 . S
C529 Eu520 2.828 . S
C529 C523 1.505 . S
C529 O541 1.249 . S
C529 O542 1.244 . S
O530 Eu521 2.373 . S
O530 C532 1.258 . S
O531 Eu520 2.392 . S
O531 C532 1.242 . S
C532 O530 1.258 . S
C532 O531 1.242 . S
O533 Eu520 2.418 . S
O533 C537 1.244 . S
O534 Eu521 2.488 . S
O534 C550 1.249 . S
O535 Eu521 2.471 . S
O535 C550 1.244 . S
O536 Eu521 2.349 . S
O536 C537 1.265 . S
C537 O533 1.244 . S
C537 O536 1.265 . S
O538 Eu520 2.373 . S
O538 C551 1.258 . S
O539 Eu521 2.392 . S
O539 C551 1.242 . S
O540 Eu521 2.418 . S
O540 C522 1.244 . S
O541 Eu520 2.488 . S
O541 C529 1.249 . S
O542 Eu520 2.471 . S
O542 C529 1.244 . S
O543 Eu520 2.349 . S
O543 C522 1.265 . S
C544 C545 1.379 . S
C544 C548 1.373 . S
C544 C550 1.505 . S
C545 C544 1.379 . S
C545 C547 1.369 . S
C545 H556 0.930 . S
C546 C548 1.383 . S
C546 C549 1.382 . S
C546 H557 0.930 . S
C547 C545 1.369 . S
C547 C549 1.392 . S
C547 H558 0.930 . S
C548 C544 1.373 . S
C548 C546 1.383 . S
C548 H559 0.931 . S
C549 C546 1.382 . S
C549 C547 1.392 . S
C550 Eu521 2.828 . S
C550 O534 1.249 . S
C550 O535 1.244 . S
C550 C544 1.505 . S
C551 O538 1.258 . S
C551 O539 1.242 . S
H552 C524 0.930 . S
H553 C525 0.930 . S
H554 C526 0.930 . S
H555 C527 0.931 . S
H556 C545 0.930 . S
H557 C546 0.930 . S
H558 C547 0.930 . S
H559 C548 0.931 . S
Eu560 C569 2.828 . S
Eu560 O571 2.392 . S
Eu560 O573 2.418 . S
Eu560 O578 2.373 . S
Eu560 O581 2.488 . S
Eu560 O582 2.471 . S
Eu560 O583 2.349 . S
Eu561 O570 2.373 . S
Eu561 O574 2.488 1_556 S
Eu561 O575 2.471 1_556 S
Eu561 O576 2.349 . S
Eu561 O579 2.392 . S
Eu561 O580 2.418 . S
Eu561 C590 2.828 1_556 S
C562 O580 1.244 . S
C562 O583 1.265 . S
C563 C564 1.379 . S
C563 C567 1.373 . S
C563 C569 1.505 . S
C564 C563 1.379 . S
C564 C566 1.369 . S
C564 H592 0.930 . S
C565 C567 1.383 . S
C565 C568 1.382 . S
C565 H593 0.930 . S
C566 C564 1.369 . S
C566 C568 1.392 . S
C566 H594 0.930 . S
C567 C563 1.373 . S
C567 C565 1.383 . S
C567 H595 0.931 . S
C568 C565 1.382 . S
C568 C566 1.392 . S
C569 Eu560 2.828 . S
C569 C563 1.505 . S
C569 O581 1.249 . S
C569 O582 1.244 . S
O570 Eu561 2.373 . S
O570 C572 1.258 . S
O571 Eu560 2.392 . S
O571 C572 1.242 . S
C572 O570 1.258 . S
C572 O571 1.242 . S
O573 Eu560 2.418 . S
O573 C577 1.244 . S
O574 Eu561 2.488 1_554 S
O574 C590 1.249 . S
O575 Eu561 2.471 1_554 S
O575 C590 1.244 . S
O576 Eu561 2.349 . S
O576 C577 1.265 . S
C577 O573 1.244 . S
C577 O576 1.265 . S
O578 Eu560 2.373 . S
O578 C591 1.258 . S
O579 Eu561 2.392 . S
O579 C591 1.242 . S
O580 Eu561 2.418 . S
O580 C562 1.244 . S
O581 Eu560 2.488 . S
O581 C569 1.249 . S
O582 Eu560 2.471 . S
O582 C569 1.244 . S
O583 Eu560 2.349 . S
O583 C562 1.265 . S
C584 C585 1.379 . S
C584 C588 1.373 . S
C584 C590 1.505 . S
C585 C584 1.379 . S
C585 C587 1.369 . S
C585 H596 0.930 . S
C586 C588 1.383 . S
C586 C589 1.382 . S
C586 H597 0.930 . S
C587 C585 1.369 . S
C587 C589 1.392 . S
C587 H598 0.930 . S
C588 C584 1.373 . S
C588 C586 1.383 . S
C588 H599 0.931 . S
C589 C586 1.382 . S
C589 C587 1.392 . S
C590 Eu561 2.828 1_554 S
C590 O574 1.249 . S
C590 O575 1.244 . S
C590 C584 1.505 . S
C591 O578 1.258 . S
C591 O579 1.242 . S
H592 C564 0.930 . S
H593 C565 0.930 . S
H594 C566 0.930 . S
H595 C567 0.931 . S
H596 C585 0.930 . S
H597 C586 0.930 . S
H598 C587 0.930 . S
H599 C588 0.931 . S
Eu600 C609 2.828 . S
Eu600 O611 2.392 . S
Eu600 O613 2.418 . S
Eu600 O618 2.373 . S
Eu600 O621 2.488 . S
Eu600 O622 2.471 . S
Eu600 O623 2.349 . S
Eu601 O610 2.373 . S
Eu601 O614 2.488 . S
Eu601 O615 2.471 . S
Eu601 O616 2.349 . S
Eu601 O619 2.392 . S
Eu601 O620 2.418 . S
Eu601 C630 2.828 . S
C602 O620 1.244 . S
C602 O623 1.265 . S
C603 C604 1.379 . S
C603 C607 1.373 . S
C603 C609 1.505 . S
C604 C603 1.379 . S
C604 C606 1.369 . S
C604 H632 0.930 . S
C605 C607 1.383 . S
C605 C608 1.382 . S
C605 H633 0.930 . S
C606 C604 1.369 . S
C606 C608 1.392 . S
C606 H634 0.930 . S
C607 C603 1.373 . S
C607 C605 1.383 . S
C607 H635 0.931 . S
C608 C605 1.382 . S
C608 C606 1.392 . S
C609 Eu600 2.828 . S
C609 C603 1.505 . S
C609 O621 1.249 . S
C609 O622 1.244 . S
O610 Eu601 2.373 . S
O610 C612 1.258 . S
O611 Eu600 2.392 . S
O611 C612 1.242 . S
C612 O610 1.258 . S
C612 O611 1.242 . S
O613 Eu600 2.418 . S
O613 C617 1.244 . S
O614 Eu601 2.488 . S
O614 C630 1.249 . S
O615 Eu601 2.471 . S
O615 C630 1.244 . S
O616 Eu601 2.349 . S
O616 C617 1.265 . S
C617 O613 1.244 . S
C617 O616 1.265 . S
O618 Eu600 2.373 . S
O618 C631 1.258 . S
O619 Eu601 2.392 . S
O619 C631 1.242 . S
O620 Eu601 2.418 . S
O620 C602 1.244 . S
O621 Eu600 2.488 . S
O621 C609 1.249 . S
O622 Eu600 2.471 . S
O622 C609 1.244 . S
O623 Eu600 2.349 . S
O623 C602 1.265 . S
C624 C625 1.379 . S
C624 C628 1.373 . S
C624 C630 1.505 . S
C625 C624 1.379 . S
C625 C627 1.369 . S
C625 H636 0.930 . S
C626 C628 1.383 . S
C626 C629 1.382 . S
C626 H637 0.930 . S
C627 C625 1.369 . S
C627 C629 1.392 . S
C627 H638 0.930 . S
C628 C624 1.373 . S
C628 C626 1.383 . S
C628 H639 0.931 . S
C629 C626 1.382 . S
C629 C627 1.392 . S
C630 Eu601 2.828 . S
C630 O614 1.249 . S
C630 O615 1.244 . S
C630 C624 1.505 . S
C631 O618 1.258 . S
C631 O619 1.242 . S
H632 C604 0.930 . S
H633 C605 0.930 . S
H634 C606 0.930 . S
H635 C607 0.931 . S
H636 C625 0.930 . S
H637 C626 0.930 . S
H638 C627 0.930 . S
H639 C628 0.931 . S
H640 C658 0.951 . S
H641 C660 0.951 . S
H642 C662 0.950 . S
H643 C663 0.950 . S
H644 C665 0.950 . S
H645 C668 0.950 . S
H646 C669 0.950 . S
H647 C671 0.950 . S
H648 C672 0.950 . S
H649 C673 0.951 . S
H650 C675 0.951 . S
H651 C677 0.950 . S
H652 C678 0.950 . S
H653 C680 0.950 . S
H654 C683 0.950 . S
H655 C684 0.950 . S
H656 C686 0.950 . S
H657 C687 0.937 1_554 S
C658 H640 0.951 . S
C658 C659 1.366 . S
C658 C660 1.388 . S
C659 C658 1.366 . S
C659 C663 1.385 . S
C660 H641 0.951 . S
C660 C658 1.388 . S
C660 C661 1.366 . S
C661 C660 1.366 . S
C661 C662 1.414 . S
C661 C664 1.499 . S
C662 H642 0.950 . S
C662 C661 1.414 . S
C662 C663 1.374 . S
C663 H643 0.950 . S
C663 C659 1.385 . S
C663 C662 1.374 . S
C664 C661 1.499 . S
C664 C665 1.373 . S
C664 C666 1.389 . S
C665 H644 0.950 . S
C665 C664 1.373 . S
C665 C681 1.377 . S
C666 C664 1.389 . S
C666 C667 1.524 . S
C666 C680 1.377 . S
C667 C666 1.524 . S
C667 C668 1.397 . S
C667 C672 1.363 . S
C668 H645 0.950 . S
C668 C667 1.397 . S
C668 C669 1.334 . S
C669 H646 0.950 . S
C669 C668 1.334 . S
C669 C670 1.287 . S
C670 C669 1.287 . S
C670 C671 1.524 . S
C670 H689 0.913 . S
C671 H647 0.950 . S
C671 C670 1.524 . S
C671 C672 1.415 . S
C672 H648 0.950 . S
C672 C667 1.363 . S
C672 C671 1.415 . S
C673 H649 0.951 . S
C673 C674 1.366 . S
C673 C675 1.388 . S
C674 C673 1.366 . S
C674 C678 1.385 . S
C675 H650 0.951 . S
C675 C673 1.388 . S
C675 C676 1.366 . S
C676 C675 1.366 . S
C676 C677 1.414 . S
C676 C679 1.499 . S
C677 H651 0.950 . S
C677 C676 1.414 . S
C677 C678 1.374 . S
C678 H652 0.950 . S
C678 C674 1.385 . S
C678 C677 1.374 . S
C679 C676 1.499 . S
C679 C680 1.373 . S
C679 C681 1.389 . S
C680 H653 0.950 . S
C680 C666 1.377 . S
C680 C679 1.373 . S
C681 C665 1.377 . S
C681 C679 1.389 . S
C681 C682 1.524 . S
C682 C681 1.524 . S
C682 C683 1.397 1_554 S
C682 C687 1.357 1_554 S
C683 H654 0.950 . S
C683 C682 1.397 1_556 S
C683 C684 1.334 . S
C684 H655 0.950 . S
C684 C683 1.334 . S
C684 C685 1.287 . S
C685 C684 1.287 . S
C685 C686 1.524 . S
C685 H688 0.999 . S
C686 H656 0.950 . S
C686 C685 1.524 . S
C686 C687 1.434 . S
C687 H657 0.937 1_556 S
C687 C682 1.357 1_556 S
C687 C686 1.434 . S
H688 C685 0.999 . S
H689 C670 0.913 . S
H690 C708 0.951 . S
H691 C710 0.951 . S
H692 C712 0.950 . S
H693 C713 0.950 . S
H694 C715 0.950 . S
H695 C718 0.950 . S
H696 C719 0.950 . S
H697 C721 0.950 . S
H698 C722 0.950 . S
H699 C723 0.951 . S
H700 C725 0.951 . S
H701 C727 0.950 . S
H702 C728 0.950 . S
H703 C730 0.950 . S
H704 C733 0.950 . S
H705 C734 0.950 . S
H706 C736 0.950 . S
H707 C737 0.950 . S
C708 H690 0.951 . S
C708 C709 1.366 . S
C708 C710 1.388 . S
C709 C708 1.366 . S
C709 C713 1.385 . S
C710 H691 0.951 . S
C710 C708 1.388 . S
C710 C711 1.366 . S
C711 C710 1.366 . S
C711 C712 1.414 . S
C711 C714 1.499 . S
C712 H692 0.950 . S
C712 C711 1.414 . S
C712 C713 1.374 . S
C713 H693 0.950 . S
C713 C709 1.385 . S
C713 C712 1.374 . S
C714 C711 1.499 . S
C714 C715 1.373 . S
C714 C716 1.389 . S
C715 H694 0.950 . S
C715 C714 1.373 . S
C715 C731 1.377 . S
C716 C714 1.389 . S
C716 C717 1.524 . S
C716 C730 1.377 . S
C717 C716 1.524 . S
C717 C718 1.397 . S
C717 C722 1.363 . S
C718 H695 0.950 . S
C718 C717 1.397 . S
C718 C719 1.334 . S
C719 H696 0.950 . S
C719 C718 1.334 . S
C719 C720 1.287 . S
C720 C719 1.287 . S
C720 C721 1.524 . S
C720 H739 0.913 . S
C721 H697 0.950 . S
C721 C720 1.524 . S
C721 C722 1.415 . S
C722 H698 0.950 . S
C722 C717 1.363 . S
C722 C721 1.415 . S
C723 H699 0.951 . S
C723 C724 1.366 . S
C723 C725 1.388 . S
C724 C723 1.366 . S
C724 C728 1.385 . S
C725 H700 0.951 . S
C725 C723 1.388 . S
C725 C726 1.366 . S
C726 C725 1.366 . S
C726 C727 1.414 . S
C726 C729 1.499 . S
C727 H701 0.950 . S
C727 C726 1.414 . S
C727 C728 1.374 . S
C728 H702 0.950 . S
C728 C724 1.385 . S
C728 C727 1.374 . S
C729 C726 1.499 . S
C729 C730 1.373 . S
C729 C731 1.389 . S
C730 H703 0.950 . S
C730 C716 1.377 . S
C730 C729 1.373 . S
C731 C715 1.377 . S
C731 C729 1.389 . S
C731 C732 1.524 . S
C732 C731 1.524 . S
C732 C733 1.397 . S
C732 C737 1.363 . S
C733 H704 0.950 . S
C733 C732 1.397 . S
C733 C734 1.334 . S
C734 H705 0.950 . S
C734 C733 1.334 . S
C734 C735 1.287 . S
C735 C734 1.287 . S
C735 C736 1.524 . S
C735 H738 0.999 . S
C736 H706 0.950 . S
C736 C735 1.524 . S
C736 C737 1.415 . S
C737 H707 0.950 . S
C737 C732 1.363 . S
C737 C736 1.415 . S
H738 C735 0.999 . S
H739 C720 0.913 . S
H740 C758 0.951 . S
H741 C760 0.951 . S
H742 C762 0.950 . S
H743 C763 0.950 . S
H744 C765 0.950 . S
H745 C768 0.950 . S
H746 C769 0.950 . S
H747 C771 0.950 . S
H748 C772 0.950 . S
H749 C773 0.951 . S
H750 C775 0.951 . S
H751 C777 0.950 . S
H752 C778 0.950 . S
H753 C780 0.950 . S
H754 C783 0.950 . S
H755 C784 0.950 . S
H756 C786 0.950 . S
H757 C787 0.950 . S
C758 H740 0.951 . S
C758 C759 1.366 . S
C758 C760 1.388 . S
C759 C758 1.366 . S
C759 C763 1.385 . S
C760 H741 0.951 . S
C760 C758 1.388 . S
C760 C761 1.366 . S
C761 C760 1.366 . S
C761 C762 1.414 . S
C761 C764 1.499 . S
C762 H742 0.950 . S
C762 C761 1.414 . S
C762 C763 1.374 . S
C763 H743 0.950 . S
C763 C759 1.385 . S
C763 C762 1.374 . S
C764 C761 1.499 . S
C764 C765 1.373 . S
C764 C766 1.393 1_455 S
C765 H744 0.950 . S
C765 C764 1.373 . S
C765 C781 1.373 . S
C766 C764 1.393 1_655 S
C766 C767 1.524 . S
C766 C780 1.373 . S
C767 C766 1.524 . S
C767 C768 1.377 1_655 S
C767 C772 1.383 . S
C768 H745 0.950 . S
C768 C767 1.377 1_455 S
C768 C769 1.334 . S
C769 H746 0.950 . S
C769 C768 1.334 . S
C769 C770 1.287 . S
C770 C769 1.287 . S
C770 C771 1.524 1_455 S
C770 H789 0.913 . S
C771 H747 0.950 . S
C771 C770 1.524 1_655 S
C771 C772 1.415 . S
C772 H748 0.950 . S
C772 C767 1.383 . S
C772 C771 1.415 . S
C773 H749 0.951 . S
C773 C774 1.366 . S
C773 C775 1.388 . S
C774 C773 1.366 . S
C774 C778 1.385 . S
C775 H750 0.951 . S
C775 C773 1.388 . S
C775 C776 1.366 . S
C776 C775 1.366 . S
C776 C777 1.414 . S
C776 C779 1.499 . S
C777 H751 0.950 . S
C777 C776 1.414 . S
C777 C778 1.374 . S
C778 H752 0.950 . S
C778 C774 1.385 . S
C778 C777 1.374 . S
C779 C776 1.499 . S
C779 C780 1.373 . S
C779 C781 1.393 1_655 S
C780 H753 0.950 . S
C780 C766 1.373 . S
C780 C779 1.373 . S
C781 C765 1.373 . S
C781 C779 1.393 1_455 S
C781 C782 1.524 . S
C782 C781 1.524 . S
C782 C783 1.377 1_455 S
C782 C787 1.383 . S
C783 H754 0.950 . S
C783 C782 1.377 1_655 S
C783 C784 1.334 . S
C784 H755 0.950 . S
C784 C783 1.334 . S
C784 C785 1.287 . S
C785 C784 1.287 . S
C785 C786 1.524 1_655 S
C785 H788 0.999 . S
C786 H756 0.950 . S
C786 C785 1.524 1_455 S
C786 C787 1.415 . S
C787 H757 0.950 . S
C787 C782 1.383 . S
C787 C786 1.415 . S
H788 C785 0.999 . S
H789 C770 0.913 . S
H790 C808 0.951 . S
H791 C810 0.951 . S
H792 C812 0.950 . S
H793 C813 0.950 . S
H794 C815 0.950 . S
H795 C818 0.950 . S
H796 C819 0.950 . S
H797 C821 0.950 . S
H798 C822 0.950 . S
H799 C823 0.951 . S
H800 C825 0.951 . S
H801 C827 0.950 . S
H802 C828 0.950 . S
H803 C830 0.950 . S
H804 C833 0.950 . S
H805 C834 0.950 . S
H806 C836 0.950 . S
H807 C837 0.950 . S
C808 H790 0.951 . S
C808 C809 1.366 . S
C808 C810 1.388 . S
C809 C808 1.366 . S
C809 C813 1.385 . S
C810 H791 0.951 . S
C810 C808 1.388 . S
C810 C811 1.366 . S
C811 C810 1.366 . S
C811 C812 1.414 . S
C811 C814 1.499 . S
C812 H792 0.950 . S
C812 C811 1.414 . S
C812 C813 1.374 . S
C813 H793 0.950 . S
C813 C809 1.385 . S
C813 C812 1.374 . S
C814 C811 1.499 . S
C814 C815 1.373 . S
C814 C816 1.389 . S
C815 H794 0.950 . S
C815 C814 1.373 . S
C815 C831 1.377 1_655 S
C816 C814 1.389 . S
C816 C817 1.524 . S
C816 C830 1.377 1_655 S
C817 C816 1.524 . S
C817 C818 1.397 . S
C817 C822 1.363 1_655 S
C818 H795 0.950 . S
C818 C817 1.397 . S
C818 C819 1.334 . S
C819 H796 0.950 . S
C819 C818 1.334 . S
C819 C820 1.287 . S
C820 C819 1.287 . S
C820 C821 1.524 1_655 S
C820 H839 0.913 . S
C821 H797 0.950 . S
C821 C820 1.524 1_455 S
C821 C822 1.415 . S
C822 H798 0.950 . S
C822 C817 1.363 1_455 S
C822 C821 1.415 . S
C823 H799 0.951 . S
C823 C824 1.366 . S
C823 C825 1.388 . S
C824 C823 1.366 . S
C824 C828 1.385 . S
C825 H800 0.951 . S
C825 C823 1.388 . S
C825 C826 1.366 . S
C826 C825 1.366 . S
C826 C827 1.414 . S
C826 C829 1.499 . S
C827 H801 0.950 . S
C827 C826 1.414 . S
C827 C828 1.374 . S
C828 H802 0.950 . S
C828 C824 1.385 . S
C828 C827 1.374 . S
C829 C826 1.499 . S
C829 C830 1.373 . S
C829 C831 1.389 . S
C830 H803 0.950 . S
C830 C816 1.377 1_455 S
C830 C829 1.373 . S
C831 C815 1.377 1_455 S
C831 C829 1.389 . S
C831 C832 1.524 . S
C832 C831 1.524 . S
C832 C833 1.397 . S
C832 C837 1.363 1_455 S
C833 H804 0.950 . S
C833 C832 1.397 . S
C833 C834 1.334 . S
C834 H805 0.950 . S
C834 C833 1.334 . S
C834 C835 1.287 . S
C835 C834 1.287 . S
C835 C836 1.524 1_455 S
C835 H838 0.999 . S
C836 H806 0.950 . S
C836 C835 1.524 1_655 S
C836 C837 1.415 . S
C837 H807 0.950 . S
C837 C832 1.363 1_655 S
C837 C836 1.415 . S
H838 C835 0.999 . S
H839 C820 0.913 . S
H840 C858 0.951 . S
H841 C860 0.951 . S
H842 C862 0.950 . S
H843 C863 0.950 . S
H844 C865 0.950 . S
H845 C868 0.950 . S
H846 C869 0.950 . S
H847 C871 0.950 . S
H848 C872 0.950 . S
H849 C873 0.951 . S
H850 C875 0.951 . S
H851 C877 0.950 . S
H852 C878 0.950 . S
H853 C880 0.950 . S
H854 C883 0.950 . S
H855 C884 0.950 . S
H856 C886 0.950 . S
H857 C887 0.950 . S
C858 H840 0.951 . S
C858 C859 1.366 . S
C858 C860 1.388 . S
C859 C858 1.366 . S
C859 C863 1.385 . S
C860 H841 0.951 . S
C860 C858 1.388 . S
C860 C861 1.366 . S
C861 C860 1.366 . S
C861 C862 1.414 . S
C861 C864 1.499 . S
C862 H842 0.950 . S
C862 C861 1.414 . S
C862 C863 1.374 . S
C863 H843 0.950 . S
C863 C859 1.385 . S
C863 C862 1.374 . S
C864 C861 1.499 . S
C864 C865 1.373 . S
C864 C866 1.389 . S
C865 H844 0.950 . S
C865 C864 1.373 . S
C865 C881 1.377 . S
C866 C864 1.389 . S
C866 C867 1.524 . S
C866 C880 1.377 . S
C867 C866 1.524 . S
C867 C868 1.397 1_556 S
C867 C872 1.363 . S
C868 H845 0.950 . S
C868 C867 1.397 1_554 S
C868 C869 1.334 . S
C869 H846 0.950 . S
C869 C868 1.334 . S
C869 C870 1.287 . S
C870 C869 1.287 . S
C870 C871 1.524 1_554 S
C870 H889 0.913 . S
C871 H847 0.950 . S
C871 C870 1.524 1_556 S
C871 C872 1.415 . S
C872 H848 0.950 . S
C872 C867 1.363 . S
C872 C871 1.415 . S
C873 H849 0.951 . S
C873 C874 1.366 . S
C873 C875 1.388 . S
C874 C873 1.366 . S
C874 C878 1.385 . S
C875 H850 0.951 . S
C875 C873 1.388 . S
C875 C876 1.366 . S
C876 C875 1.366 . S
C876 C877 1.414 . S
C876 C879 1.499 . S
C877 H851 0.950 . S
C877 C876 1.414 . S
C877 C878 1.374 . S
C878 H852 0.950 . S
C878 C874 1.385 . S
C878 C877 1.374 . S
C879 C876 1.499 . S
C879 C880 1.373 . S
C879 C881 1.389 . S
C880 H853 0.950 . S
C880 C866 1.377 . S
C880 C879 1.373 . S
C881 C865 1.377 . S
C881 C879 1.389 . S
C881 C882 1.524 . S
C882 C881 1.524 . S
C882 C883 1.397 . S
C882 C887 1.363 . S
C883 H854 0.950 . S
C883 C882 1.397 . S
C883 C884 1.334 . S
C884 H855 0.950 . S
C884 C883 1.334 . S
C884 C885 1.287 . S
C885 C884 1.287 . S
C885 C886 1.524 . S
C885 H888 0.999 . S
C886 H856 0.950 . S
C886 C885 1.524 . S
C886 C887 1.415 . S
C887 H857 0.950 . S
C887 C882 1.363 . S
C887 C886 1.415 . S
H888 C885 0.999 . S
H889 C870 0.913 . S
H890 C908 0.951 . S
H891 C910 0.951 . S
H892 C912 0.950 . S
H893 C913 0.950 . S
H894 C915 0.950 . S
H895 C918 0.950 . S
H896 C919 0.950 . S
H897 C921 0.950 . S
H898 C922 0.950 . S
H899 C923 0.951 . S
H900 C925 0.951 . S
H901 C927 0.950 . S
H902 C928 0.950 . S
H903 C930 0.950 . S
H904 C933 0.950 . S
H905 C934 0.950 . S
H906 C936 0.950 . S
H907 C937 0.950 . S
C908 H890 0.951 . S
C908 C909 1.366 . S
C908 C910 1.388 . S
C909 C908 1.366 . S
C909 C913 1.385 . S
C910 H891 0.951 . S
C910 C908 1.388 . S
C910 C911 1.366 . S
C911 C910 1.366 . S
C911 C912 1.414 . S
C911 C914 1.499 . S
C912 H892 0.950 . S
C912 C911 1.414 . S
C912 C913 1.374 . S
C913 H893 0.950 . S
C913 C909 1.385 . S
C913 C912 1.374 . S
C914 C911 1.499 . S
C914 C915 1.373 . S
C914 C916 1.389 . S
C915 H894 0.950 . S
C915 C914 1.373 . S
C915 C931 1.377 . S
C916 C914 1.389 . S
C916 C917 1.524 . S
C916 C930 1.377 . S
C917 C916 1.524 . S
C917 C918 1.397 . S
C917 C922 1.363 . S
C918 H895 0.950 . S
C918 C917 1.397 . S
C918 C919 1.334 . S
C919 H896 0.950 . S
C919 C918 1.334 . S
C919 C920 1.287 . S
C920 C919 1.287 . S
C920 C921 1.524 . S
C920 H939 0.913 . S
C921 H897 0.950 . S
C921 C920 1.524 . S
C921 C922 1.415 . S
C922 H898 0.950 . S
C922 C917 1.363 . S
C922 C921 1.415 . S
C923 H899 0.951 . S
C923 C924 1.366 . S
C923 C925 1.388 . S
C924 C923 1.366 . S
C924 C928 1.385 . S
C925 H900 0.951 . S
C925 C923 1.388 . S
C925 C926 1.366 . S
C926 C925 1.366 . S
C926 C927 1.414 . S
C926 C929 1.499 . S
C927 H901 0.950 . S
C927 C926 1.414 . S
C927 C928 1.374 . S
C928 H902 0.950 . S
C928 C924 1.385 . S
C928 C927 1.374 . S
C929 C926 1.499 . S
C929 C930 1.373 . S
C929 C931 1.389 . S
C930 H903 0.950 . S
C930 C916 1.377 . S
C930 C929 1.373 . S
C931 C915 1.377 . S
C931 C929 1.389 . S
C931 C932 1.524 . S
C932 C931 1.524 . S
C932 C933 1.397 . S
C932 C937 1.363 . S
C933 H904 0.950 . S
C933 C932 1.397 . S
C933 C934 1.334 . S
C934 H905 0.950 . S
C934 C933 1.334 . S
C934 C935 1.287 . S
C935 C934 1.287 . S
C935 C936 1.524 . S
C935 H938 0.999 . S
C936 H906 0.950 . S
C936 C935 1.524 . S
C936 C937 1.415 . S
C937 H907 0.950 . S
C937 C932 1.363 . S
C937 C936 1.415 . S
H938 C935 0.999 . S
H939 C920 0.913 . S
H940 C958 0.951 . S
H941 C960 0.951 . S
H942 C962 0.950 . S
H943 C963 0.950 . S
H944 C965 0.950 . S
H945 C968 0.950 . S
H946 C969 0.950 . S
H947 C971 0.950 . S
H948 C972 0.950 . S
H949 C973 0.951 . S
H950 C975 0.951 . S
H951 C977 0.950 . S
H952 C978 0.950 . S
H953 C980 0.950 . S
H954 C983 0.950 . S
H955 C984 0.950 . S
H956 C986 0.950 . S
H957 C987 0.950 . S
C958 H940 0.951 . S
C958 C959 1.366 . S
C958 C960 1.388 . S
C959 C958 1.366 . S
C959 C963 1.385 . S
C960 H941 0.951 . S
C960 C958 1.388 . S
C960 C961 1.366 . S
C961 C960 1.366 . S
C961 C962 1.414 . S
C961 C964 1.499 . S
C962 H942 0.950 . S
C962 C961 1.414 . S
C962 C963 1.374 . S
C963 H943 0.950 . S
C963 C959 1.385 . S
C963 C962 1.374 . S
C964 C961 1.499 . S
C964 C965 1.373 . S
C964 C966 1.389 . S
C965 H944 0.950 . S
C965 C964 1.373 . S
C965 C981 1.377 1_655 S
C966 C964 1.389 . S
C966 C967 1.524 . S
C966 C980 1.377 1_655 S
C967 C966 1.524 . S
C967 C968 1.397 1_655 S
C967 C972 1.363 . S
C968 H945 0.950 . S
C968 C967 1.397 1_455 S
C968 C969 1.334 . S
C969 H946 0.950 . S
C969 C968 1.334 . S
C969 C970 1.287 . S
C970 C969 1.287 . S
C970 C971 1.524 1_455 S
C970 H989 0.913 . S
C971 H947 0.950 . S
C971 C970 1.524 1_655 S
C971 C972 1.415 . S
C972 H948 0.950 . S
C972 C967 1.363 . S
C972 C971 1.415 . S
C973 H949 0.951 . S
C973 C974 1.366 . S
C973 C975 1.388 . S
C974 C973 1.366 . S
C974 C978 1.385 . S
C975 H950 0.951 . S
C975 C973 1.388 . S
C975 C976 1.366 . S
C976 C975 1.366 . S
C976 C977 1.414 . S
C976 C979 1.499 . S
C977 H951 0.950 . S
C977 C976 1.414 . S
C977 C978 1.374 . S
C978 H952 0.950 . S
C978 C974 1.385 . S
C978 C977 1.374 . S
C979 C976 1.499 . S
C979 C980 1.373 . S
C979 C981 1.389 . S
C980 H953 0.950 . S
C980 C966 1.377 1_455 S
C980 C979 1.373 . S
C981 C965 1.377 1_455 S
C981 C979 1.389 . S
C981 C982 1.524 . S
C982 C981 1.524 . S
C982 C983 1.397 1_455 S
C982 C987 1.363 . S
C983 H954 0.950 . S
C983 C982 1.397 1_655 S
C983 C984 1.334 . S
C984 H955 0.950 . S
C984 C983 1.334 . S
C984 C985 1.287 . S
C985 C984 1.287 . S
C985 C986 1.524 1_655 S
C985 H988 0.999 . S
C986 H956 0.950 . S
C986 C985 1.524 1_455 S
C986 C987 1.415 . S
C987 H957 0.950 . S
C987 C982 1.363 . S
C987 C986 1.415 . S
H988 C985 0.999 . S
H989 C970 0.913 . S
H990 C1008 0.951 . S
H991 C1010 0.951 . S
H992 C1012 0.950 . S
H993 C1013 0.950 . S
H994 C1015 0.950 . S
H995 C1018 0.950 . S
H996 C1019 0.950 . S
H997 C1021 0.950 . S
H998 C1022 0.950 . S
H999 C1023 0.951 . S
H1000 C1025 0.951 . S
H1001 C1027 0.950 . S
H1002 C1028 0.950 . S
H1003 C1030 0.950 . S
H1004 C1033 0.950 . S
H1005 C1034 0.950 . S
H1006 C1036 0.950 . S
H1007 C1037 0.950 . S
C1008 H990 0.951 . S
C1008 C1009 1.366 . S
C1008 C1010 1.388 . S
C1009 C1008 1.366 . S
C1009 C1013 1.385 . S
C1010 H991 0.951 . S
C1010 C1008 1.388 . S
C1010 C1011 1.366 . S
C1011 C1010 1.366 . S
C1011 C1012 1.414 . S
C1011 C1014 1.499 . S
C1012 H992 0.950 . S
C1012 C1011 1.414 . S
C1012 C1013 1.374 . S
C1013 H993 0.950 . S
C1013 C1009 1.385 . S
C1013 C1012 1.374 . S
C1014 C1011 1.499 . S
C1014 C1015 1.373 1_455 S
C1014 C1016 1.389 . S
C1015 H994 0.950 . S
C1015 C1014 1.373 1_655 S
C1015 C1031 1.377 . S
C1016 C1014 1.389 . S
C1016 C1017 1.524 . S
C1016 C1030 1.377 . S
C1017 C1016 1.524 . S
C1017 C1018 1.397 . S
C1017 C1022 1.363 . S
C1018 H995 0.950 . S
C1018 C1017 1.397 . S
C1018 C1019 1.334 . S
C1019 H996 0.950 . S
C1019 C1018 1.334 . S
C1019 C1020 1.287 . S
C1020 C1019 1.287 . S
C1020 C1021 1.524 . S
C1020 H1039 0.913 . S
C1021 H997 0.950 . S
C1021 C1020 1.524 . S
C1021 C1022 1.415 . S
C1022 H998 0.950 . S
C1022 C1017 1.363 . S
C1022 C1021 1.415 . S
C1023 H999 0.951 . S
C1023 C1024 1.366 . S
C1023 C1025 1.388 . S
C1024 C1023 1.366 . S
C1024 C1028 1.385 . S
C1025 H1000 0.951 . S
C1025 C1023 1.388 . S
C1025 C1026 1.366 . S
C1026 C1025 1.366 . S
C1026 C1027 1.414 . S
C1026 C1029 1.499 . S
C1027 H1001 0.950 . S
C1027 C1026 1.414 . S
C1027 C1028 1.374 . S
C1028 H1002 0.950 . S
C1028 C1024 1.385 . S
C1028 C1027 1.374 . S
C1029 C1026 1.499 . S
C1029 C1030 1.373 1_655 S
C1029 C1031 1.389 . S
C1030 H1003 0.950 . S
C1030 C1016 1.377 . S
C1030 C1029 1.373 1_455 S
C1031 C1015 1.377 . S
C1031 C1029 1.389 . S
C1031 C1032 1.524 . S
C1032 C1031 1.524 . S
C1032 C1033 1.397 . S
C1032 C1037 1.363 . S
C1033 H1004 0.950 . S
C1033 C1032 1.397 . S
C1033 C1034 1.334 . S
C1034 H1005 0.950 . S
C1034 C1033 1.334 . S
C1034 C1035 1.287 . S
C1035 C1034 1.287 . S
C1035 C1036 1.524 . S
C1035 H1038 0.999 . S
C1036 H1006 0.950 . S
C1036 C1035 1.524 . S
C1036 C1037 1.415 . S
C1037 H1007 0.950 . S
C1037 C1032 1.363 . S
C1037 C1036 1.415 . S
H1038 C1035 0.999 . S
H1039 C1020 0.913 . S
H1040 C1058 0.951 . S
H1041 C1060 0.951 . S
H1042 C1062 0.950 . S
H1043 C1063 0.950 . S
H1044 C1065 0.950 . S
H1045 C1068 0.950 . S
H1046 C1069 0.950 . S
H1047 C1071 0.950 . S
H1048 C1072 0.950 . S
H1049 C1073 0.951 . S
H1050 C1075 0.951 . S
H1051 C1077 0.950 1_554 S
H1052 C1078 0.950 . S
H1053 C1080 0.950 . S
H1054 C1083 0.950 . S
H1055 C1084 0.950 . S
H1056 C1086 0.950 . S
H1057 C1087 0.950 . S
C1058 H1040 0.951 . S
C1058 C1059 1.366 . S
C1058 C1060 1.388 . S
C1059 C1058 1.366 . S
C1059 C1063 1.385 . S
C1060 H1041 0.951 . S
C1060 C1058 1.388 . S
C1060 C1061 1.366 . S
C1061 C1060 1.366 . S
C1061 C1062 1.414 . S
C1061 C1064 1.499 . S
C1062 H1042 0.950 . S
C1062 C1061 1.414 . S
C1062 C1063 1.374 . S
C1063 H1043 0.950 . S
C1063 C1059 1.385 . S
C1063 C1062 1.374 . S
C1064 C1061 1.499 . S
C1064 C1065 1.373 . S
C1064 C1066 1.389 . S
C1065 H1044 0.950 . S
C1065 C1064 1.373 . S
C1065 C1081 1.377 . S
C1066 C1064 1.389 . S
C1066 C1067 1.524 . S
C1066 C1080 1.377 . S
C1067 C1066 1.524 . S
C1067 C1068 1.397 . S
C1067 C1072 1.363 . S
C1068 H1045 0.950 . S
C1068 C1067 1.397 . S
C1068 C1069 1.334 . S
C1069 H1046 0.950 . S
C1069 C1068 1.334 . S
C1069 C1070 1.287 . S
C1070 C1069 1.287 . S
C1070 C1071 1.524 . S
C1070 H1089 0.913 . S
C1071 H1047 0.950 . S
C1071 C1070 1.524 . S
C1071 C1072 1.415 . S
C1072 H1048 0.950 . S
C1072 C1067 1.363 . S
C1072 C1071 1.415 . S
C1073 H1049 0.951 . S
C1073 C1074 1.366 . S
C1073 C1075 1.388 . S
C1074 C1073 1.366 . S
C1074 C1078 1.385 1_556 S
C1075 H1050 0.951 . S
C1075 C1073 1.388 . S
C1075 C1076 1.366 . S
C1076 C1075 1.366 . S
C1076 C1077 1.414 . S
C1076 C1079 1.499 . S
C1077 H1051 0.950 1_556 S
C1077 C1076 1.414 . S
C1077 C1078 1.374 1_556 S
C1078 H1052 0.950 . S
C1078 C1074 1.385 1_554 S
C1078 C1077 1.374 1_554 S
C1079 C1076 1.499 . S
C1079 C1080 1.373 . S
C1079 C1081 1.389 . S
C1080 H1053 0.950 . S
C1080 C1066 1.377 . S
C1080 C1079 1.373 . S
C1081 C1065 1.377 . S
C1081 C1079 1.389 . S
C1081 C1082 1.524 . S
C1082 C1081 1.524 . S
C1082 C1083 1.397 . S
C1082 C1087 1.363 . S
C1083 H1054 0.950 . S
C1083 C1082 1.397 . S
C1083 C1084 1.334 . S
C1084 H1055 0.950 . S
C1084 C1083 1.334 . S
C1084 C1085 1.287 . S
C1085 C1084 1.287 . S
C1085 C1086 1.524 . S
C1085 H1088 0.999 . S
C1086 H1056 0.950 . S
C1086 C1085 1.524 . S
C1086 C1087 1.415 . S
C1087 H1057 0.950 . S
C1087 C1082 1.363 . S
C1087 C1086 1.415 . S
H1088 C1085 0.999 . S
H1089 C1070 0.913 . S
H1090 C1108 0.951 . S
H1091 C1110 0.951 . S
H1092 C1112 0.950 . S
H1093 C1113 0.950 . S
H1094 C1115 0.950 . S
H1095 C1118 0.950 . S
H1096 C1119 0.950 . S
H1097 C1121 0.950 . S
H1098 C1122 0.950 . S
H1099 C1123 0.951 . S
H1100 C1125 0.951 . S
H1101 C1127 0.950 . S
H1102 C1128 0.950 . S
H1103 C1130 0.950 . S
H1104 C1133 0.950 . S
H1105 C1134 0.950 . S
H1106 C1136 0.950 . S
H1107 C1137 0.950 . S
C1108 H1090 0.951 . S
C1108 C1109 1.366 . S
C1108 C1110 1.388 . S
C1109 C1108 1.366 . S
C1109 C1113 1.385 . S
C1110 H1091 0.951 . S
C1110 C1108 1.388 . S
C1110 C1111 1.366 . S
C1111 C1110 1.366 . S
C1111 C1112 1.414 . S
C1111 C1114 1.499 . S
C1112 H1092 0.950 . S
C1112 C1111 1.414 . S
C1112 C1113 1.374 . S
C1113 H1093 0.950 . S
C1113 C1109 1.385 . S
C1113 C1112 1.374 . S
C1114 C1111 1.499 . S
C1114 C1115 1.373 . S
C1114 C1116 1.389 . S
C1115 H1094 0.950 . S
C1115 C1114 1.373 . S
C1115 C1131 1.377 . S
C1116 C1114 1.389 . S
C1116 C1117 1.524 . S
C1116 C1130 1.377 . S
C1117 C1116 1.524 . S
C1117 C1118 1.397 . S
C1117 C1122 1.363 . S
C1118 H1095 0.950 . S
C1118 C1117 1.397 . S
C1118 C1119 1.334 . S
C1119 H1096 0.950 . S
C1119 C1118 1.334 . S
C1119 C1120 1.287 . S
C1120 C1119 1.287 . S
C1120 C1121 1.524 . S
C1120 H1139 0.913 . S
C1121 H1097 0.950 . S
C1121 C1120 1.524 . S
C1121 C1122 1.415 . S
C1122 H1098 0.950 . S
C1122 C1117 1.363 . S
C1122 C1121 1.415 . S
C1123 H1099 0.951 . S
C1123 C1124 1.366 . S
C1123 C1125 1.388 . S
C1124 C1123 1.366 . S
C1124 C1128 1.385 . S
C1125 H1100 0.951 . S
C1125 C1123 1.388 . S
C1125 C1126 1.366 . S
C1126 C1125 1.366 . S
C1126 C1127 1.414 . S
C1126 C1129 1.499 . S
C1127 H1101 0.950 . S
C1127 C1126 1.414 . S
C1127 C1128 1.374 . S
C1128 H1102 0.950 . S
C1128 C1124 1.385 . S
C1128 C1127 1.374 . S
C1129 C1126 1.499 . S
C1129 C1130 1.373 . S
C1129 C1131 1.389 . S
C1130 H1103 0.950 . S
C1130 C1116 1.377 . S
C1130 C1129 1.373 . S
C1131 C1115 1.377 . S
C1131 C1129 1.389 . S
C1131 C1132 1.524 . S
C1132 C1131 1.524 . S
C1132 C1133 1.397 . S
C1132 C1137 1.363 . S
C1133 H1104 0.950 . S
C1133 C1132 1.397 . S
C1133 C1134 1.334 . S
C1134 H1105 0.950 . S
C1134 C1133 1.334 . S
C1134 C1135 1.287 . S
C1135 C1134 1.287 . S
C1135 C1136 1.524 . S
C1135 H1138 0.999 . S
C1136 H1106 0.950 . S
C1136 C1135 1.524 . S
C1136 C1137 1.415 . S
C1137 H1107 0.950 . S
C1137 C1132 1.363 . S
C1137 C1136 1.415 . S
H1138 C1135 0.999 . S
H1139 C1120 0.913 . S
H1140 C1158 0.951 . S
H1141 C1160 0.951 . S
H1142 C1162 0.950 . S
H1143 C1163 0.950 . S
H1144 C1165 0.950 . S
H1145 C1168 0.950 . S
H1146 C1169 0.950 . S
H1147 C1171 0.950 . S
H1148 C1172 0.950 . S
H1149 C1173 0.951 . S
H1150 C1175 0.951 . S
H1151 C1177 0.950 . S
H1152 C1178 0.950 . S
H1153 C1180 0.950 . S
H1154 C1183 0.950 . S
H1155 C1184 0.950 . S
H1156 C1186 0.950 . S
H1157 C1187 0.950 . S
C1158 H1140 0.951 . S
C1158 C1159 1.366 . S
C1158 C1160 1.388 . S
C1159 C1158 1.366 . S
C1159 C1163 1.385 . S
C1160 H1141 0.951 . S
C1160 C1158 1.388 . S
C1160 C1161 1.366 . S
C1161 C1160 1.366 . S
C1161 C1162 1.414 . S
C1161 C1164 1.499 . S
C1162 H1142 0.950 . S
C1162 C1161 1.414 . S
C1162 C1163 1.374 . S
C1163 H1143 0.950 . S
C1163 C1159 1.385 . S
C1163 C1162 1.374 . S
C1164 C1161 1.499 . S
C1164 C1165 1.373 . S
C1164 C1166 1.389 . S
C1165 H1144 0.950 . S
C1165 C1164 1.373 . S
C1165 C1181 1.377 . S
C1166 C1164 1.389 . S
C1166 C1167 1.524 . S
C1166 C1180 1.377 . S
C1167 C1166 1.524 . S
C1167 C1168 1.397 . S
C1167 C1172 1.363 . S
C1168 H1145 0.950 . S
C1168 C1167 1.397 . S
C1168 C1169 1.334 . S
C1169 H1146 0.950 . S
C1169 C1168 1.334 . S
C1169 C1170 1.287 . S
C1170 C1169 1.287 . S
C1170 C1171 1.524 . S
C1170 H1189 0.913 . S
C1171 H1147 0.950 . S
C1171 C1170 1.524 . S
C1171 C1172 1.415 . S
C1172 H1148 0.950 . S
C1172 C1167 1.363 . S
C1172 C1171 1.415 . S
C1173 H1149 0.951 . S
C1173 C1174 1.366 . S
C1173 C1175 1.388 . S
C1174 C1173 1.366 . S
C1174 C1178 1.385 . S
C1175 H1150 0.951 . S
C1175 C1173 1.388 . S
C1175 C1176 1.366 . S
C1176 C1175 1.366 . S
C1176 C1177 1.414 . S
C1176 C1179 1.499 . S
C1177 H1151 0.950 . S
C1177 C1176 1.414 . S
C1177 C1178 1.374 . S
C1178 H1152 0.950 . S
C1178 C1174 1.385 . S
C1178 C1177 1.374 . S
C1179 C1176 1.499 . S
C1179 C1180 1.373 . S
C1179 C1181 1.389 . S
C1180 H1153 0.950 . S
C1180 C1166 1.377 . S
C1180 C1179 1.373 . S
C1181 C1165 1.377 . S
C1181 C1179 1.389 . S
C1181 C1182 1.524 . S
C1182 C1181 1.524 . S
C1182 C1183 1.397 . S
C1182 C1187 1.363 . S
C1183 H1154 0.950 . S
C1183 C1182 1.397 . S
C1183 C1184 1.334 . S
C1184 H1155 0.950 . S
C1184 C1183 1.334 . S
C1184 C1185 1.287 . S
C1185 C1184 1.287 . S
C1185 C1186 1.524 . S
C1185 H1188 0.999 . S
C1186 H1156 0.950 . S
C1186 C1185 1.524 . S
C1186 C1187 1.415 . S
C1187 H1157 0.950 . S
C1187 C1182 1.363 . S
C1187 C1186 1.415 . S
H1188 C1185 0.999 . S
H1189 C1170 0.913 . S
H1190 C1208 0.951 . S
H1191 C1210 0.951 . S
H1192 C1212 0.950 . S
H1193 C1213 0.950 . S
H1194 C1215 0.950 . S
H1195 C1218 0.950 . S
H1196 C1219 0.950 . S
H1197 C1221 0.950 . S
H1198 C1222 0.950 . S
H1199 C1223 0.951 . S
H1200 C1225 0.951 . S
H1201 C1227 0.950 . S
H1202 C1228 0.950 . S
H1203 C1230 0.950 . S
H1204 C1233 0.950 . S
H1205 C1234 0.950 . S
H1206 C1236 0.950 . S
H1207 C1237 0.950 . S
C1208 H1190 0.951 . S
C1208 C1209 1.366 . S
C1208 C1210 1.388 . S
C1209 C1208 1.366 . S
C1209 C1213 1.385 . S
C1210 H1191 0.951 . S
C1210 C1208 1.388 . S
C1210 C1211 1.366 . S
C1211 C1210 1.366 . S
C1211 C1212 1.414 . S
C1211 C1214 1.499 . S
C1212 H1192 0.950 . S
C1212 C1211 1.414 . S
C1212 C1213 1.374 . S
C1213 H1193 0.950 . S
C1213 C1209 1.385 . S
C1213 C1212 1.374 . S
C1214 C1211 1.499 . S
C1214 C1215 1.373 . S
C1214 C1216 1.389 . S
C1215 H1194 0.950 . S
C1215 C1214 1.373 . S
C1215 C1231 1.377 . S
C1216 C1214 1.389 . S
C1216 C1217 1.524 . S
C1216 C1230 1.377 . S
C1217 C1216 1.524 . S
C1217 C1218 1.397 . S
C1217 C1222 1.363 . S
C1218 H1195 0.950 . S
C1218 C1217 1.397 . S
C1218 C1219 1.334 . S
C1219 H1196 0.950 . S
C1219 C1218 1.334 . S
C1219 C1220 1.287 . S
C1220 C1219 1.287 . S
C1220 C1221 1.524 . S
C1220 H1239 0.913 . S
C1221 H1197 0.950 . S
C1221 C1220 1.524 . S
C1221 C1222 1.415 . S
C1222 H1198 0.950 . S
C1222 C1217 1.363 . S
C1222 C1221 1.415 . S
C1223 H1199 0.951 . S
C1223 C1224 1.366 . S
C1223 C1225 1.388 . S
C1224 C1223 1.366 . S
C1224 C1228 1.385 . S
C1225 H1200 0.951 . S
C1225 C1223 1.388 . S
C1225 C1226 1.366 . S
C1226 C1225 1.366 . S
C1226 C1227 1.414 . S
C1226 C1229 1.499 . S
C1227 H1201 0.950 . S
C1227 C1226 1.414 . S
C1227 C1228 1.374 . S
C1228 H1202 0.950 . S
C1228 C1224 1.385 . S
C1228 C1227 1.374 . S
C1229 C1226 1.499 . S
C1229 C1230 1.373 . S
C1229 C1231 1.389 . S
C1230 H1203 0.950 . S
C1230 C1216 1.377 . S
C1230 C1229 1.373 . S
C1231 C1215 1.377 . S
C1231 C1229 1.389 . S
C1231 C1232 1.524 . S
C1232 C1231 1.524 . S
C1232 C1233 1.397 . S
C1232 C1237 1.363 . S
C1233 H1204 0.950 . S
C1233 C1232 1.397 . S
C1233 C1234 1.334 . S
C1234 H1205 0.950 . S
C1234 C1233 1.334 . S
C1234 C1235 1.287 . S
C1235 C1234 1.287 . S
C1235 C1236 1.524 . S
C1235 H1238 0.999 . S
C1236 H1206 0.950 . S
C1236 C1235 1.524 . S
C1236 C1237 1.415 . S
C1237 H1207 0.950 . S
C1237 C1232 1.363 . S
C1237 C1236 1.415 . S
H1238 C1235 0.999 . S
H1239 C1220 0.913 . S
H1240 C1258 0.951 . S
H1241 C1260 0.951 . S
H1242 C1262 0.950 . S
H1243 C1263 0.950 . S
H1244 C1265 0.950 . S
H1245 C1268 0.950 . S
H1246 C1269 0.950 . S
H1247 C1271 0.950 . S
H1248 C1272 0.950 . S
H1249 C1273 0.951 . S
H1250 C1275 0.951 . S
H1251 C1277 0.950 . S
H1252 C1278 0.950 . S
H1253 C1280 0.950 . S
H1254 C1283 0.950 . S
H1255 C1284 0.950 . S
H1256 C1286 0.950 . S
H1257 C1287 0.950 . S
C1258 H1240 0.951 . S
C1258 C1259 1.366 . S
C1258 C1260 1.388 . S
C1259 C1258 1.366 . S
C1259 C1263 1.385 . S
C1260 H1241 0.951 . S
C1260 C1258 1.388 . S
C1260 C1261 1.366 . S
C1261 C1260 1.366 . S
C1261 C1262 1.414 . S
C1261 C1264 1.499 . S
C1262 H1242 0.950 . S
C1262 C1261 1.414 . S
C1262 C1263 1.374 . S
C1263 H1243 0.950 . S
C1263 C1259 1.385 . S
C1263 C1262 1.374 . S
C1264 C1261 1.499 . S
C1264 C1265 1.373 . S
C1264 C1266 1.389 . S
C1265 H1244 0.950 . S
C1265 C1264 1.373 . S
C1265 C1281 1.377 . S
C1266 C1264 1.389 . S
C1266 C1267 1.524 . S
C1266 C1280 1.377 . S
C1267 C1266 1.524 . S
C1267 C1268 1.397 1_554 S
C1267 C1272 1.363 . S
C1268 H1245 0.950 . S
C1268 C1267 1.397 1_556 S
C1268 C1269 1.334 . S
C1269 H1246 0.950 . S
C1269 C1268 1.334 . S
C1269 C1270 1.287 . S
C1270 C1269 1.287 . S
C1270 C1271 1.524 . S
C1270 H1289 0.913 . S
C1271 H1247 0.950 . S
C1271 C1270 1.524 . S
C1271 C1272 1.415 1_556 S
C1272 H1248 0.950 . S
C1272 C1267 1.363 . S
C1272 C1271 1.415 1_554 S
C1273 H1249 0.951 . S
C1273 C1274 1.366 . S
C1273 C1275 1.388 . S
C1274 C1273 1.366 . S
C1274 C1278 1.385 . S
C1275 H1250 0.951 . S
C1275 C1273 1.388 . S
C1275 C1276 1.366 . S
C1276 C1275 1.366 . S
C1276 C1277 1.414 . S
C1276 C1279 1.499 . S
C1277 H1251 0.950 . S
C1277 C1276 1.414 . S
C1277 C1278 1.374 . S
C1278 H1252 0.950 . S
C1278 C1274 1.385 . S
C1278 C1277 1.374 . S
C1279 C1276 1.499 . S
C1279 C1280 1.373 . S
C1279 C1281 1.389 . S
C1280 H1253 0.950 . S
C1280 C1266 1.377 . S
C1280 C1279 1.373 . S
C1281 C1265 1.377 . S
C1281 C1279 1.389 . S
C1281 C1282 1.524 . S
C1282 C1281 1.524 . S
C1282 C1283 1.397 . S
C1282 C1287 1.363 . S
C1283 H1254 0.950 . S
C1283 C1282 1.397 . S
C1283 C1284 1.334 . S
C1284 H1255 0.950 . S
C1284 C1283 1.334 . S
C1284 C1285 1.287 . S
C1285 C1284 1.287 . S
C1285 C1286 1.524 . S
C1285 H1288 0.999 . S
C1286 H1256 0.950 . S
C1286 C1285 1.524 . S
C1286 C1287 1.415 . S
C1287 H1257 0.950 . S
C1287 C1282 1.363 . S
C1287 C1286 1.415 . S
H1288 C1285 0.999 . S
H1289 C1270 0.913 . S
H1290 C1308 0.951 . S
H1291 C1310 0.951 . S
H1292 C1312 0.950 . S
H1293 C1313 0.950 . S
H1294 C1315 0.950 . S
H1295 C1318 0.950 . S
H1296 C1319 0.950 . S
H1297 C1321 0.950 . S
H1298 C1322 0.950 . S
H1299 C1323 0.951 . S
H1300 C1325 0.951 . S
H1301 C1327 0.950 . S
H1302 C1328 0.950 . S
H1303 C1330 0.950 . S
H1304 C1333 0.950 . S
H1305 C1334 0.950 . S
H1306 C1336 0.950 . S
H1307 C1337 0.950 . S
C1308 H1290 0.951 . S
C1308 C1309 1.366 . S
C1308 C1310 1.388 . S
C1309 C1308 1.366 . S
C1309 C1313 1.385 . S
C1310 H1291 0.951 . S
C1310 C1308 1.388 . S
C1310 C1311 1.366 . S
C1311 C1310 1.366 . S
C1311 C1312 1.414 . S
C1311 C1314 1.499 . S
C1312 H1292 0.950 . S
C1312 C1311 1.414 . S
C1312 C1313 1.374 . S
C1313 H1293 0.950 . S
C1313 C1309 1.385 . S
C1313 C1312 1.374 . S
C1314 C1311 1.499 . S
C1314 C1315 1.373 . S
C1314 C1316 1.389 . S
C1315 H1294 0.950 . S
C1315 C1314 1.373 . S
C1315 C1331 1.377 . S
C1316 C1314 1.389 . S
C1316 C1317 1.524 . S
C1316 C1330 1.377 . S
C1317 C1316 1.524 . S
C1317 C1318 1.397 . S
C1317 C1322 1.363 . S
C1318 H1295 0.950 . S
C1318 C1317 1.397 . S
C1318 C1319 1.334 . S
C1319 H1296 0.950 . S
C1319 C1318 1.334 . S
C1319 C1320 1.287 . S
C1320 C1319 1.287 . S
C1320 C1321 1.524 . S
C1320 H1339 0.913 . S
C1321 H1297 0.950 . S
C1321 C1320 1.524 . S
C1321 C1322 1.415 . S
C1322 H1298 0.950 . S
C1322 C1317 1.363 . S
C1322 C1321 1.415 . S
C1323 H1299 0.951 . S
C1323 C1324 1.366 . S
C1323 C1325 1.388 . S
C1324 C1323 1.366 . S
C1324 C1328 1.385 . S
C1325 H1300 0.951 . S
C1325 C1323 1.388 . S
C1325 C1326 1.366 . S
C1326 C1325 1.366 . S
C1326 C1327 1.414 . S
C1326 C1329 1.499 . S
C1327 H1301 0.950 . S
C1327 C1326 1.414 . S
C1327 C1328 1.374 . S
C1328 H1302 0.950 . S
C1328 C1324 1.385 . S
C1328 C1327 1.374 . S
C1329 C1326 1.499 . S
C1329 C1330 1.373 . S
C1329 C1331 1.389 . S
C1330 H1303 0.950 . S
C1330 C1316 1.377 . S
C1330 C1329 1.373 . S
C1331 C1315 1.377 . S
C1331 C1329 1.389 . S
C1331 C1332 1.524 . S
C1332 C1331 1.524 . S
C1332 C1333 1.397 . S
C1332 C1337 1.363 . S
C1333 H1304 0.950 . S
C1333 C1332 1.397 . S
C1333 C1334 1.334 . S
C1334 H1305 0.950 . S
C1334 C1333 1.334 . S
C1334 C1335 1.287 . S
C1335 C1334 1.287 . S
C1335 C1336 1.524 . S
C1335 H1338 0.999 . S
C1336 H1306 0.950 . S
C1336 C1335 1.524 . S
C1336 C1337 1.415 . S
C1337 H1307 0.950 . S
C1337 C1332 1.363 . S
C1337 C1336 1.415 . S
H1338 C1335 0.999 . S
H1339 C1320 0.913 . S
H1340 C1358 0.951 . S
H1341 C1360 0.951 . S
H1342 C1362 0.950 . S
H1343 C1363 0.950 . S
H1344 C1365 0.950 . S
H1345 C1368 0.950 . S
H1346 C1369 0.950 . S
H1347 C1371 0.950 . S
H1348 C1372 0.950 . S
H1349 C1373 0.951 . S
H1350 C1375 0.951 . S
H1351 C1377 0.950 . S
H1352 C1378 0.950 . S
H1353 C1380 0.950 . S
H1354 C1383 0.950 . S
H1355 C1384 0.950 . S
H1356 C1386 0.950 . S
H1357 C1387 0.950 . S
C1358 H1340 0.951 . S
C1358 C1359 1.366 . S
C1358 C1360 1.388 . S
C1359 C1358 1.366 . S
C1359 C1363 1.385 . S
C1360 H1341 0.951 . S
C1360 C1358 1.388 . S
C1360 C1361 1.366 . S
C1361 C1360 1.366 . S
C1361 C1362 1.414 . S
C1361 C1364 1.499 . S
C1362 H1342 0.950 . S
C1362 C1361 1.414 . S
C1362 C1363 1.374 . S
C1363 H1343 0.950 . S
C1363 C1359 1.385 . S
C1363 C1362 1.374 . S
C1364 C1361 1.499 . S
C1364 C1365 1.373 . S
C1364 C1366 1.389 . S
C1365 H1344 0.950 . S
C1365 C1364 1.373 . S
C1365 C1381 1.377 . S
C1366 C1364 1.389 . S
C1366 C1367 1.524 . S
C1366 C1380 1.377 . S
C1367 C1366 1.524 . S
C1367 C1368 1.397 . S
C1367 C1372 1.363 . S
C1368 H1345 0.950 . S
C1368 C1367 1.397 . S
C1368 C1369 1.334 . S
C1369 H1346 0.950 . S
C1369 C1368 1.334 . S
C1369 C1370 1.287 . S
C1370 C1369 1.287 . S
C1370 C1371 1.524 . S
C1370 H1389 0.913 . S
C1371 H1347 0.950 . S
C1371 C1370 1.524 . S
C1371 C1372 1.415 . S
C1372 H1348 0.950 . S
C1372 C1367 1.363 . S
C1372 C1371 1.415 . S
C1373 H1349 0.951 . S
C1373 C1374 1.366 . S
C1373 C1375 1.388 . S
C1374 C1373 1.366 . S
C1374 C1378 1.385 . S
C1375 H1350 0.951 . S
C1375 C1373 1.388 . S
C1375 C1376 1.366 . S
C1376 C1375 1.366 . S
C1376 C1377 1.414 . S
C1376 C1379 1.499 . S
C1377 H1351 0.950 . S
C1377 C1376 1.414 . S
C1377 C1378 1.374 . S
C1378 H1352 0.950 . S
C1378 C1374 1.385 . S
C1378 C1377 1.374 . S
C1379 C1376 1.499 . S
C1379 C1380 1.373 . S
C1379 C1381 1.389 . S
C1380 H1353 0.950 . S
C1380 C1366 1.377 . S
C1380 C1379 1.373 . S
C1381 C1365 1.377 . S
C1381 C1379 1.389 . S
C1381 C1382 1.524 . S
C1382 C1381 1.524 . S
C1382 C1383 1.397 . S
C1382 C1387 1.363 . S
C1383 H1354 0.950 . S
C1383 C1382 1.397 . S
C1383 C1384 1.334 . S
C1384 H1355 0.950 . S
C1384 C1383 1.334 . S
C1384 C1385 1.287 . S
C1385 C1384 1.287 . S
C1385 C1386 1.524 . S
C1385 H1388 0.999 . S
C1386 H1356 0.950 . S
C1386 C1385 1.524 . S
C1386 C1387 1.415 . S
C1387 H1357 0.950 . S
C1387 C1382 1.363 . S
C1387 C1386 1.415 . S
H1388 C1385 0.999 . S
H1389 C1370 0.913 . S
H1390 C1408 0.951 . S
H1391 C1410 0.951 . S
H1392 C1412 0.950 . S
H1393 C1413 0.950 . S
H1394 C1415 0.950 . S
H1395 C1418 0.950 . S
H1396 C1419 0.950 . S
H1397 C1421 0.950 . S
H1398 C1422 0.950 . S
H1399 C1423 0.951 . S
H1400 C1425 0.951 . S
H1401 C1427 0.950 . S
H1402 C1428 0.950 . S
H1403 C1430 0.950 . S
H1404 C1433 0.950 . S
H1405 C1434 0.950 . S
H1406 C1436 0.950 . S
H1407 C1437 0.950 . S
C1408 H1390 0.951 . S
C1408 C1409 1.366 . S
C1408 C1410 1.388 . S
C1409 C1408 1.366 . S
C1409 C1413 1.385 . S
C1410 H1391 0.951 . S
C1410 C1408 1.388 . S
C1410 C1411 1.366 . S
C1411 C1410 1.366 . S
C1411 C1412 1.414 . S
C1411 C1414 1.499 . S
C1412 H1392 0.950 . S
C1412 C1411 1.414 . S
C1412 C1413 1.374 . S
C1413 H1393 0.950 . S
C1413 C1409 1.385 . S
C1413 C1412 1.374 . S
C1414 C1411 1.499 . S
C1414 C1415 1.373 . S
C1414 C1416 1.389 . S
C1415 H1394 0.950 . S
C1415 C1414 1.373 . S
C1415 C1431 1.377 . S
C1416 C1414 1.389 . S
C1416 C1417 1.524 . S
C1416 C1430 1.377 . S
C1417 C1416 1.524 . S
C1417 C1418 1.397 . S
C1417 C1422 1.363 . S
C1418 H1395 0.950 . S
C1418 C1417 1.397 . S
C1418 C1419 1.334 . S
C1419 H1396 0.950 . S
C1419 C1418 1.334 . S
C1419 C1420 1.287 . S
C1420 C1419 1.287 . S
C1420 C1421 1.524 . S
C1420 H1439 0.913 . S
C1421 H1397 0.950 . S
C1421 C1420 1.524 . S
C1421 C1422 1.415 . S
C1422 H1398 0.950 . S
C1422 C1417 1.363 . S
C1422 C1421 1.415 . S
C1423 H1399 0.951 . S
C1423 C1424 1.366 . S
C1423 C1425 1.388 . S
C1424 C1423 1.366 . S
C1424 C1428 1.385 . S
C1425 H1400 0.951 . S
C1425 C1423 1.388 . S
C1425 C1426 1.366 . S
C1426 C1425 1.366 . S
C1426 C1427 1.414 . S
C1426 C1429 1.499 . S
C1427 H1401 0.950 . S
C1427 C1426 1.414 . S
C1427 C1428 1.374 . S
C1428 H1402 0.950 . S
C1428 C1424 1.385 . S
C1428 C1427 1.374 . S
C1429 C1426 1.499 . S
C1429 C1430 1.373 . S
C1429 C1431 1.389 . S
C1430 H1403 0.950 . S
C1430 C1416 1.377 . S
C1430 C1429 1.373 . S
C1431 C1415 1.377 . S
C1431 C1429 1.389 . S
C1431 C1432 1.524 . S
C1432 C1431 1.524 . S
C1432 C1433 1.397 . S
C1432 C1437 1.363 . S
C1433 H1404 0.950 . S
C1433 C1432 1.397 . S
C1433 C1434 1.334 . S
C1434 H1405 0.950 . S
C1434 C1433 1.334 . S
C1434 C1435 1.287 . S
C1435 C1434 1.287 . S
C1435 C1436 1.524 . S
C1435 H1438 0.999 . S
C1436 H1406 0.950 . S
C1436 C1435 1.524 . S
C1436 C1437 1.415 . S
C1437 H1407 0.950 . S
C1437 C1432 1.363 . S
C1437 C1436 1.415 . S
H1438 C1435 0.999 . S
H1439 C1420 0.913 . S
H1440 C1458 0.951 . S
H1441 C1460 0.951 . S
H1442 C1462 0.950 . S
H1443 C1463 0.950 . S
H1444 C1465 0.950 . S
H1445 C1468 0.950 . S
H1446 C1469 0.950 . S
H1447 C1471 0.950 . S
H1448 C1472 0.950 . S
H1449 C1473 0.951 . S
H1450 C1475 0.951 . S
H1451 C1477 0.950 . S
H1452 C1478 0.950 . S
H1453 C1480 0.950 . S
H1454 C1483 0.950 . S
H1455 C1484 0.950 . S
H1456 C1486 0.950 . S
H1457 C1487 0.950 . S
C1458 H1440 0.951 . S
C1458 C1459 1.366 . S
C1458 C1460 1.388 . S
C1459 C1458 1.366 . S
C1459 C1463 1.385 . S
C1460 H1441 0.951 . S
C1460 C1458 1.388 . S
C1460 C1461 1.366 . S
C1461 C1460 1.366 . S
C1461 C1462 1.414 . S
C1461 C1464 1.499 . S
C1462 H1442 0.950 . S
C1462 C1461 1.414 . S
C1462 C1463 1.374 . S
C1463 H1443 0.950 . S
C1463 C1459 1.385 . S
C1463 C1462 1.374 . S
C1464 C1461 1.499 . S
C1464 C1465 1.373 . S
C1464 C1466 1.389 . S
C1465 H1444 0.950 . S
C1465 C1464 1.373 . S
C1465 C1481 1.377 . S
C1466 C1464 1.389 . S
C1466 C1467 1.524 . S
C1466 C1480 1.377 . S
C1467 C1466 1.524 . S
C1467 C1468 1.397 . S
C1467 C1472 1.363 . S
C1468 H1445 0.950 . S
C1468 C1467 1.397 . S
C1468 C1469 1.334 . S
C1469 H1446 0.950 . S
C1469 C1468 1.334 . S
C1469 C1470 1.287 . S
C1470 C1469 1.287 . S
C1470 C1471 1.524 . S
C1470 H1489 0.913 . S
C1471 H1447 0.950 . S
C1471 C1470 1.524 . S
C1471 C1472 1.415 . S
C1472 H1448 0.950 . S
C1472 C1467 1.363 . S
C1472 C1471 1.415 . S
C1473 H1449 0.951 . S
C1473 C1474 1.366 . S
C1473 C1475 1.388 . S
C1474 C1473 1.366 . S
C1474 C1478 1.385 . S
C1475 H1450 0.951 . S
C1475 C1473 1.388 . S
C1475 C1476 1.366 . S
C1476 C1475 1.366 . S
C1476 C1477 1.414 . S
C1476 C1479 1.499 . S
C1477 H1451 0.950 . S
C1477 C1476 1.414 . S
C1477 C1478 1.374 . S
C1478 H1452 0.950 . S
C1478 C1474 1.385 . S
C1478 C1477 1.374 . S
C1479 C1476 1.499 . S
C1479 C1480 1.373 . S
C1479 C1481 1.389 . S
C1480 H1453 0.950 . S
C1480 C1466 1.377 . S
C1480 C1479 1.373 . S
C1481 C1465 1.377 . S
C1481 C1479 1.389 . S
C1481 C1482 1.524 . S
C1482 C1481 1.524 . S
C1482 C1483 1.397 . S
C1482 C1487 1.363 . S
C1483 H1454 0.950 . S
C1483 C1482 1.397 . S
C1483 C1484 1.334 . S
C1484 H1455 0.950 . S
C1484 C1483 1.334 . S
C1484 C1485 1.287 . S
C1485 C1484 1.287 . S
C1485 C1486 1.524 . S
C1485 H1488 0.999 . S
C1486 H1456 0.950 . S
C1486 C1485 1.524 . S
C1486 C1487 1.415 . S
C1487 H1457 0.950 . S
C1487 C1482 1.363 . S
C1487 C1486 1.415 . S
H1488 C1485 0.999 . S
H1489 C1470 0.913 . S
H1490 C1508 0.951 . S
H1491 C1510 0.955 1_565 S
H1492 C1512 0.950 . S
H1493 C1513 0.950 . S
H1494 C1515 0.950 1_545 S
H1495 C1518 0.950 1_545 S
H1496 C1519 0.950 1_545 S
H1497 C1521 0.950 . S
H1498 C1522 0.950 . S
H1499 C1523 0.951 . S
H1500 C1525 0.951 . S
H1501 C1527 0.950 . S
H1502 C1528 0.950 . S
H1503 C1530 0.950 . S
H1504 C1533 0.950 . S
H1505 C1534 0.950 . S
H1506 C1536 0.950 . S
H1507 C1537 0.950 . S
C1508 H1490 0.951 . S
C1508 C1509 1.366 . S
C1508 C1510 1.388 . S
C1509 C1508 1.366 . S
C1509 C1513 1.385 . S
C1510 H1491 0.955 1_545 S
C1510 C1508 1.388 . S
C1510 C1511 1.366 . S
C1511 C1510 1.366 . S
C1511 C1512 1.414 . S
C1511 C1514 1.499 1_545 S
C1512 H1492 0.950 . S
C1512 C1511 1.414 . S
C1512 C1513 1.374 . S
C1513 H1493 0.950 . S
C1513 C1509 1.385 . S
C1513 C1512 1.374 . S
C1514 C1511 1.499 1_565 S
C1514 C1515 1.373 . S
C1514 C1516 1.389 . S
C1515 H1494 0.950 1_565 S
C1515 C1514 1.373 . S
C1515 C1531 1.377 . S
C1516 C1514 1.389 . S
C1516 C1517 1.524 . S
C1516 C1530 1.377 . S
C1517 C1516 1.524 . S
C1517 C1518 1.397 . S
C1517 C1522 1.363 . S
C1518 H1495 0.950 1_565 S
C1518 C1517 1.397 . S
C1518 C1519 1.334 . S
C1519 H1496 0.950 1_565 S
C1519 C1518 1.334 . S
C1519 C1520 1.287 . S
C1520 C1519 1.287 . S
C1520 C1521 1.524 . S
C1520 H1539 0.913 . S
C1521 H1497 0.950 . S
C1521 C1520 1.524 . S
C1521 C1522 1.415 . S
C1522 H1498 0.950 . S
C1522 C1517 1.363 . S
C1522 C1521 1.415 . S
C1523 H1499 0.951 . S
C1523 C1524 1.366 . S
C1523 C1525 1.388 . S
C1524 C1523 1.366 . S
C1524 C1528 1.385 . S
C1525 H1500 0.951 . S
C1525 C1523 1.388 . S
C1525 C1526 1.366 . S
C1526 C1525 1.366 . S
C1526 C1527 1.414 . S
C1526 C1529 1.499 . S
C1527 H1501 0.950 . S
C1527 C1526 1.414 . S
C1527 C1528 1.374 . S
C1528 H1502 0.950 . S
C1528 C1524 1.385 . S
C1528 C1527 1.374 . S
C1529 C1526 1.499 . S
C1529 C1530 1.373 . S
C1529 C1531 1.389 . S
C1530 H1503 0.950 . S
C1530 C1516 1.377 . S
C1530 C1529 1.373 . S
C1531 C1515 1.377 . S
C1531 C1529 1.389 . S
C1531 C1532 1.524 . S
C1532 C1531 1.524 . S
C1532 C1533 1.397 . S
C1532 C1537 1.363 . S
C1533 H1504 0.950 . S
C1533 C1532 1.397 . S
C1533 C1534 1.334 . S
C1534 H1505 0.950 . S
C1534 C1533 1.334 . S
C1534 C1535 1.287 . S
C1535 C1534 1.287 . S
C1535 C1536 1.524 . S
C1535 H1538 0.999 . S
C1536 H1506 0.950 . S
C1536 C1535 1.524 . S
C1536 C1537 1.415 . S
C1537 H1507 0.950 . S
C1537 C1532 1.363 . S
C1537 C1536 1.415 . S
H1538 C1535 0.999 . S
H1539 C1520 0.913 . S
H1540 C1558 0.951 . S
H1541 C1560 0.951 . S
H1542 C1562 0.950 . S
H1543 C1563 0.950 . S
H1544 C1565 0.950 . S
H1545 C1568 0.950 . S
H1546 C1569 0.950 . S
H1547 C1571 0.950 . S
H1548 C1572 0.950 . S
H1549 C1573 0.951 . S
H1550 C1575 0.951 . S
H1551 C1577 0.950 . S
H1552 C1578 0.950 . S
H1553 C1580 0.950 . S
H1554 C1583 0.950 . S
H1555 C1584 0.950 . S
H1556 C1586 0.950 . S
H1557 C1587 0.950 . S
C1558 H1540 0.951 . S
C1558 C1559 1.366 . S
C1558 C1560 1.388 . S
C1559 C1558 1.366 . S
C1559 C1563 1.385 . S
C1560 H1541 0.951 . S
C1560 C1558 1.388 . S
C1560 C1561 1.366 . S
C1561 C1560 1.366 . S
C1561 C1562 1.414 . S
C1561 C1564 1.499 . S
C1562 H1542 0.950 . S
C1562 C1561 1.414 . S
C1562 C1563 1.374 . S
C1563 H1543 0.950 . S
C1563 C1559 1.385 . S
C1563 C1562 1.374 . S
C1564 C1561 1.499 . S
C1564 C1565 1.373 . S
C1564 C1566 1.389 . S
C1565 H1544 0.950 . S
C1565 C1564 1.373 . S
C1565 C1581 1.377 . S
C1566 C1564 1.389 . S
C1566 C1567 1.524 . S
C1566 C1580 1.377 . S
C1567 C1566 1.524 . S
C1567 C1568 1.397 1_556 S
C1567 C1572 1.363 . S
C1568 H1545 0.950 . S
C1568 C1567 1.397 1_554 S
C1568 C1569 1.334 . S
C1569 H1546 0.950 . S
C1569 C1568 1.334 . S
C1569 C1570 1.287 . S
C1570 C1569 1.287 . S
C1570 C1571 1.524 . S
C1570 H1589 0.913 . S
C1571 H1547 0.950 . S
C1571 C1570 1.524 . S
C1571 C1572 1.415 1_554 S
C1572 H1548 0.950 . S
C1572 C1567 1.363 . S
C1572 C1571 1.415 1_556 S
C1573 H1549 0.951 . S
C1573 C1574 1.366 . S
C1573 C1575 1.388 . S
C1574 C1573 1.366 . S
C1574 C1578 1.385 . S
C1575 H1550 0.951 . S
C1575 C1573 1.388 . S
C1575 C1576 1.366 . S
C1576 C1575 1.366 . S
C1576 C1577 1.414 . S
C1576 C1579 1.499 . S
C1577 H1551 0.950 . S
C1577 C1576 1.414 . S
C1577 C1578 1.374 . S
C1578 H1552 0.950 . S
C1578 C1574 1.385 . S
C1578 C1577 1.374 . S
C1579 C1576 1.499 . S
C1579 C1580 1.373 . S
C1579 C1581 1.389 . S
C1580 H1553 0.950 . S
C1580 C1566 1.377 . S
C1580 C1579 1.373 . S
C1581 C1565 1.377 . S
C1581 C1579 1.389 . S
C1581 C1582 1.524 . S
C1582 C1581 1.524 . S
C1582 C1583 1.397 . S
C1582 C1587 1.363 . S
C1583 H1554 0.950 . S
C1583 C1582 1.397 . S
C1583 C1584 1.334 . S
C1584 H1555 0.950 . S
C1584 C1583 1.334 . S
C1584 C1585 1.287 . S
C1585 C1584 1.287 . S
C1585 C1586 1.524 . S
C1585 H1588 0.999 . S
C1586 H1556 0.950 . S
C1586 C1585 1.524 . S
C1586 C1587 1.415 . S
C1587 H1557 0.950 . S
C1587 C1582 1.363 . S
C1587 C1586 1.415 . S
H1588 C1585 0.999 . S
H1589 C1570 0.913 . S
H1590 C1608 0.951 . S
H1591 C1610 0.951 . S
H1592 C1612 0.950 . S
H1593 C1613 0.950 . S
H1594 C1615 0.950 . S
H1595 C1618 0.950 . S
H1596 C1619 0.950 . S
H1597 C1621 0.950 . S
H1598 C1622 0.950 . S
H1599 C1623 0.951 . S
H1600 C1625 0.951 . S
H1601 C1627 0.950 . S
H1602 C1628 0.950 . S
H1603 C1630 0.950 . S
H1604 C1633 0.950 . S
H1605 C1634 0.950 . S
H1606 C1636 0.950 . S
H1607 C1637 0.950 . S
C1608 H1590 0.951 . S
C1608 C1609 1.366 . S
C1608 C1610 1.388 . S
C1609 C1608 1.366 . S
C1609 C1613 1.385 . S
C1610 H1591 0.951 . S
C1610 C1608 1.388 . S
C1610 C1611 1.366 . S
C1611 C1610 1.366 . S
C1611 C1612 1.414 . S
C1611 C1614 1.499 1_565 S
C1612 H1592 0.950 . S
C1612 C1611 1.414 . S
C1612 C1613 1.374 . S
C1613 H1593 0.950 . S
C1613 C1609 1.385 . S
C1613 C1612 1.374 . S
C1614 C1611 1.499 1_545 S
C1614 C1615 1.373 . S
C1614 C1616 1.389 . S
C1615 H1594 0.950 . S
C1615 C1614 1.373 . S
C1615 C1631 1.377 . S
C1616 C1614 1.389 . S
C1616 C1617 1.524 . S
C1616 C1630 1.377 . S
C1617 C1616 1.524 . S
C1617 C1618 1.397 . S
C1617 C1622 1.363 . S
C1618 H1595 0.950 . S
C1618 C1617 1.397 . S
C1618 C1619 1.334 . S
C1619 H1596 0.950 . S
C1619 C1618 1.334 . S
C1619 C1620 1.287 . S
C1620 C1619 1.287 . S
C1620 C1621 1.524 . S
C1620 H1639 0.913 . S
C1621 H1597 0.950 . S
C1621 C1620 1.524 . S
C1621 C1622 1.415 . S
C1622 H1598 0.950 . S
C1622 C1617 1.363 . S
C1622 C1621 1.415 . S
C1623 H1599 0.951 . S
C1623 C1624 1.366 . S
C1623 C1625 1.388 . S
C1624 C1623 1.366 . S
C1624 C1628 1.385 . S
C1625 H1600 0.951 . S
C1625 C1623 1.388 . S
C1625 C1626 1.366 . S
C1626 C1625 1.366 . S
C1626 C1627 1.414 . S
C1626 C1629 1.499 . S
C1627 H1601 0.950 . S
C1627 C1626 1.414 . S
C1627 C1628 1.374 . S
C1628 H1602 0.950 . S
C1628 C1624 1.385 . S
C1628 C1627 1.374 . S
C1629 C1626 1.499 . S
C1629 C1630 1.373 . S
C1629 C1631 1.389 . S
C1630 H1603 0.950 . S
C1630 C1616 1.377 . S
C1630 C1629 1.373 . S
C1631 C1615 1.377 . S
C1631 C1629 1.389 . S
C1631 C1632 1.524 . S
C1632 C1631 1.524 . S
C1632 C1633 1.397 . S
C1632 C1637 1.363 . S
C1633 H1604 0.950 . S
C1633 C1632 1.397 . S
C1633 C1634 1.334 . S
C1634 H1605 0.950 . S
C1634 C1633 1.334 . S
C1634 C1635 1.287 . S
C1635 C1634 1.287 . S
C1635 C1636 1.524 . S
C1635 H1638 0.999 . S
C1636 H1606 0.950 . S
C1636 C1635 1.524 . S
C1636 C1637 1.415 . S
C1637 H1607 0.950 . S
C1637 C1632 1.363 . S
C1637 C1636 1.415 . S
H1638 C1635 0.999 . S
H1639 C1620 0.913 . S
H1640 C1658 0.951 . S
H1641 C1660 0.951 . S
H1642 C1662 0.950 . S
H1643 C1663 0.950 . S
H1644 C1665 0.950 . S
H1645 C1668 0.950 . S
H1646 C1669 0.950 . S
H1647 C1671 0.950 . S
H1648 C1672 0.950 . S
H1649 C1673 0.951 . S
H1650 C1675 0.951 . S
H1651 C1677 0.950 . S
H1652 C1678 0.950 . S
H1653 C1680 0.950 . S
H1654 C1683 0.950 . S
H1655 C1684 0.950 . S
H1656 C1686 0.950 . S
H1657 C1687 0.950 . S
C1658 H1640 0.951 . S
C1658 C1659 1.366 . S
C1658 C1660 1.388 . S
C1659 C1658 1.366 . S
C1659 C1663 1.385 . S
C1660 H1641 0.951 . S
C1660 C1658 1.388 . S
C1660 C1661 1.366 . S
C1661 C1660 1.366 . S
C1661 C1662 1.414 . S
C1661 C1664 1.499 . S
C1662 H1642 0.950 . S
C1662 C1661 1.414 . S
C1662 C1663 1.374 . S
C1663 H1643 0.950 . S
C1663 C1659 1.385 . S
C1663 C1662 1.374 . S
C1664 C1661 1.499 . S
C1664 C1665 1.373 . S
C1664 C1666 1.389 . S
C1665 H1644 0.950 . S
C1665 C1664 1.373 . S
C1665 C1681 1.377 . S
C1666 C1664 1.389 . S
C1666 C1667 1.524 . S
C1666 C1680 1.377 . S
C1667 C1666 1.524 . S
C1667 C1668 1.397 . S
C1667 C1672 1.363 . S
C1668 H1645 0.950 . S
C1668 C1667 1.397 . S
C1668 C1669 1.334 . S
C1669 H1646 0.950 . S
C1669 C1668 1.334 . S
C1669 C1670 1.287 . S
C1670 C1669 1.287 . S
C1670 C1671 1.524 . S
C1670 H1689 0.913 . S
C1671 H1647 0.950 . S
C1671 C1670 1.524 . S
C1671 C1672 1.415 . S
C1672 H1648 0.950 . S
C1672 C1667 1.363 . S
C1672 C1671 1.415 . S
C1673 H1649 0.951 . S
C1673 C1674 1.366 . S
C1673 C1675 1.388 . S
C1674 C1673 1.366 . S
C1674 C1678 1.385 . S
C1675 H1650 0.951 . S
C1675 C1673 1.388 . S
C1675 C1676 1.366 . S
C1676 C1675 1.366 . S
C1676 C1677 1.414 . S
C1676 C1679 1.499 . S
C1677 H1651 0.950 . S
C1677 C1676 1.414 . S
C1677 C1678 1.374 . S
C1678 H1652 0.950 . S
C1678 C1674 1.385 . S
C1678 C1677 1.374 . S
C1679 C1676 1.499 . S
C1679 C1680 1.373 . S
C1679 C1681 1.389 . S
C1680 H1653 0.950 . S
C1680 C1666 1.377 . S
C1680 C1679 1.373 . S
C1681 C1665 1.377 . S
C1681 C1679 1.389 . S
C1681 C1682 1.524 . S
C1682 C1681 1.524 . S
C1682 C1683 1.397 . S
C1682 C1687 1.363 . S
C1683 H1654 0.950 . S
C1683 C1682 1.397 . S
C1683 C1684 1.334 . S
C1684 H1655 0.950 . S
C1684 C1683 1.334 . S
C1684 C1685 1.287 . S
C1685 C1684 1.287 . S
C1685 C1686 1.524 . S
C1685 H1688 0.999 . S
C1686 H1656 0.950 . S
C1686 C1685 1.524 . S
C1686 C1687 1.415 . S
C1687 H1657 0.950 . S
C1687 C1682 1.363 . S
C1687 C1686 1.415 . S
H1688 C1685 0.999 . S
H1689 C1670 0.913 . S
H1690 C1708 0.951 . S
H1691 C1710 0.951 . S
H1692 C1712 0.950 . S
H1693 C1713 0.950 . S
H1694 C1715 0.950 . S
H1695 C1718 0.950 . S
H1696 C1719 0.950 . S
H1697 C1721 0.950 . S
H1698 C1722 0.950 . S
H1699 C1723 0.951 . S
H1700 C1725 0.951 . S
H1701 C1727 0.950 . S
H1702 C1728 0.950 . S
H1703 C1730 0.950 . S
H1704 C1733 0.950 . S
H1705 C1734 0.950 . S
H1706 C1736 0.950 . S
H1707 C1737 0.950 . S
C1708 H1690 0.951 . S
C1708 C1709 1.366 . S
C1708 C1710 1.388 . S
C1709 C1708 1.366 . S
C1709 C1713 1.385 . S
C1710 H1691 0.951 . S
C1710 C1708 1.388 . S
C1710 C1711 1.366 . S
C1711 C1710 1.366 . S
C1711 C1712 1.414 . S
C1711 C1714 1.499 . S
C1712 H1692 0.950 . S
C1712 C1711 1.414 . S
C1712 C1713 1.374 . S
C1713 H1693 0.950 . S
C1713 C1709 1.385 . S
C1713 C1712 1.374 . S
C1714 C1711 1.499 . S
C1714 C1715 1.373 . S
C1714 C1716 1.389 . S
C1715 H1694 0.950 . S
C1715 C1714 1.373 . S
C1715 C1731 1.377 . S
C1716 C1714 1.389 . S
C1716 C1717 1.524 . S
C1716 C1730 1.377 . S
C1717 C1716 1.524 . S
C1717 C1718 1.397 . S
C1717 C1722 1.363 . S
C1718 H1695 0.950 . S
C1718 C1717 1.397 . S
C1718 C1719 1.334 . S
C1719 H1696 0.950 . S
C1719 C1718 1.334 . S
C1719 C1720 1.287 . S
C1720 C1719 1.287 . S
C1720 C1721 1.524 . S
C1720 H1739 0.913 . S
C1721 H1697 0.950 . S
C1721 C1720 1.524 . S
C1721 C1722 1.415 . S
C1722 H1698 0.950 . S
C1722 C1717 1.363 . S
C1722 C1721 1.415 . S
C1723 H1699 0.951 . S
C1723 C1724 1.366 . S
C1723 C1725 1.388 . S
C1724 C1723 1.366 . S
C1724 C1728 1.385 . S
C1725 H1700 0.951 . S
C1725 C1723 1.388 . S
C1725 C1726 1.366 . S
C1726 C1725 1.366 . S
C1726 C1727 1.414 . S
C1726 C1729 1.499 1_565 S
C1727 H1701 0.950 . S
C1727 C1726 1.414 . S
C1727 C1728 1.374 . S
C1728 H1702 0.950 . S
C1728 C1724 1.385 . S
C1728 C1727 1.374 . S
C1729 C1726 1.499 1_545 S
C1729 C1730 1.373 . S
C1729 C1731 1.389 . S
C1730 H1703 0.950 . S
C1730 C1716 1.377 . S
C1730 C1729 1.373 . S
C1731 C1715 1.377 . S
C1731 C1729 1.389 . S
C1731 C1732 1.524 1_545 S
C1732 C1731 1.524 1_565 S
C1732 C1733 1.397 . S
C1732 C1737 1.363 . S
C1733 H1704 0.950 . S
C1733 C1732 1.397 . S
C1733 C1734 1.334 . S
C1734 H1705 0.950 . S
C1734 C1733 1.334 . S
C1734 C1735 1.287 . S
C1735 C1734 1.287 . S
C1735 C1736 1.524 . S
C1735 H1738 0.999 . S
C1736 H1706 0.950 . S
C1736 C1735 1.524 . S
C1736 C1737 1.415 . S
C1737 H1707 0.950 . S
C1737 C1732 1.363 . S
C1737 C1736 1.415 . S
H1738 C1735 0.999 . S
H1739 C1720 0.913 . S
H1740 C1758 0.951 . S
H1741 C1760 0.951 . S
H1742 C1762 0.950 . S
H1743 C1763 0.950 . S
H1744 C1765 0.950 . S
H1745 C1768 0.950 . S
H1746 C1769 0.950 . S
H1747 C1771 0.950 . S
H1748 C1772 0.950 . S
H1749 C1773 0.951 . S
H1750 C1775 0.951 . S
H1751 C1777 0.950 . S
H1752 C1778 0.950 . S
H1753 C1780 0.950 . S
H1754 C1783 0.950 . S
H1755 C1784 0.950 . S
H1756 C1786 0.950 . S
H1757 C1787 0.950 . S
C1758 H1740 0.951 . S
C1758 C1759 1.366 . S
C1758 C1760 1.388 . S
C1759 C1758 1.366 . S
C1759 C1763 1.385 . S
C1760 H1741 0.951 . S
C1760 C1758 1.388 . S
C1760 C1761 1.366 . S
C1761 C1760 1.366 . S
C1761 C1762 1.414 . S
C1761 C1764 1.499 . S
C1762 H1742 0.950 . S
C1762 C1761 1.414 . S
C1762 C1763 1.374 . S
C1763 H1743 0.950 . S
C1763 C1759 1.385 . S
C1763 C1762 1.374 . S
C1764 C1761 1.499 . S
C1764 C1765 1.373 . S
C1764 C1766 1.389 . S
C1765 H1744 0.950 . S
C1765 C1764 1.373 . S
C1765 C1781 1.377 . S
C1766 C1764 1.389 . S
C1766 C1767 1.524 . S
C1766 C1780 1.377 . S
C1767 C1766 1.524 . S
C1767 C1768 1.397 . S
C1767 C1772 1.363 . S
C1768 H1745 0.950 . S
C1768 C1767 1.397 . S
C1768 C1769 1.334 . S
C1769 H1746 0.950 . S
C1769 C1768 1.334 . S
C1769 C1770 1.287 . S
C1770 C1769 1.287 . S
C1770 C1771 1.524 . S
C1770 H1789 0.913 . S
C1771 H1747 0.950 . S
C1771 C1770 1.524 . S
C1771 C1772 1.415 . S
C1772 H1748 0.950 . S
C1772 C1767 1.363 . S
C1772 C1771 1.415 . S
C1773 H1749 0.951 . S
C1773 C1774 1.366 . S
C1773 C1775 1.388 . S
C1774 C1773 1.366 . S
C1774 C1778 1.385 1_554 S
C1775 H1750 0.951 . S
C1775 C1773 1.388 . S
C1775 C1776 1.366 . S
C1776 C1775 1.366 . S
C1776 C1777 1.414 . S
C1776 C1779 1.499 . S
C1777 H1751 0.950 . S
C1777 C1776 1.414 . S
C1777 C1778 1.374 1_554 S
C1778 H1752 0.950 . S
C1778 C1774 1.385 1_556 S
C1778 C1777 1.374 1_556 S
C1779 C1776 1.499 . S
C1779 C1780 1.373 . S
C1779 C1781 1.389 . S
C1780 H1753 0.950 . S
C1780 C1766 1.377 . S
C1780 C1779 1.373 . S
C1781 C1765 1.377 . S
C1781 C1779 1.389 . S
C1781 C1782 1.524 . S
C1782 C1781 1.524 . S
C1782 C1783 1.397 . S
C1782 C1787 1.363 . S
C1783 H1754 0.950 . S
C1783 C1782 1.397 . S
C1783 C1784 1.334 . S
C1784 H1755 0.950 . S
C1784 C1783 1.334 . S
C1784 C1785 1.287 . S
C1785 C1784 1.287 . S
C1785 C1786 1.524 . S
C1785 H1788 0.999 . S
C1786 H1756 0.950 . S
C1786 C1785 1.524 . S
C1786 C1787 1.415 . S
C1787 H1757 0.950 . S
C1787 C1782 1.363 . S
C1787 C1786 1.415 . S
H1788 C1785 0.999 . S
H1789 C1770 0.913 . S
H1790 C1808 0.951 . S
H1791 C1810 0.951 . S
H1792 C1812 0.950 . S
H1793 C1813 0.950 . S
H1794 C1815 0.950 . S
H1795 C1818 0.950 . S
H1796 C1819 0.950 . S
H1797 C1821 0.950 . S
H1798 C1822 0.950 . S
H1799 C1823 0.951 . S
H1800 C1825 0.951 . S
H1801 C1827 0.950 . S
H1802 C1828 0.950 . S
H1803 C1830 0.950 . S
H1804 C1833 0.950 . S
H1805 C1834 0.950 . S
H1806 C1836 0.950 . S
H1807 C1837 0.950 . S
C1808 H1790 0.951 . S
C1808 C1809 1.366 . S
C1808 C1810 1.388 . S
C1809 C1808 1.366 . S
C1809 C1813 1.385 . S
C1810 H1791 0.951 . S
C1810 C1808 1.388 . S
C1810 C1811 1.366 . S
C1811 C1810 1.366 . S
C1811 C1812 1.414 . S
C1811 C1814 1.499 1_545 S
C1812 H1792 0.950 . S
C1812 C1811 1.414 . S
C1812 C1813 1.374 . S
C1813 H1793 0.950 . S
C1813 C1809 1.385 . S
C1813 C1812 1.374 . S
C1814 C1811 1.499 1_565 S
C1814 C1815 1.373 . S
C1814 C1816 1.389 . S
C1815 H1794 0.950 . S
C1815 C1814 1.373 . S
C1815 C1831 1.377 . S
C1816 C1814 1.389 . S
C1816 C1817 1.524 . S
C1816 C1830 1.377 . S
C1817 C1816 1.524 . S
C1817 C1818 1.397 . S
C1817 C1822 1.363 . S
C1818 H1795 0.950 . S
C1818 C1817 1.397 . S
C1818 C1819 1.334 1_565 S
C1819 H1796 0.950 . S
C1819 C1818 1.334 1_545 S
C1819 C1820 1.287 . S
C1820 C1819 1.287 . S
C1820 C1821 1.524 . S
C1820 H1839 0.913 . S
C1821 H1797 0.950 . S
C1821 C1820 1.524 . S
C1821 C1822 1.415 1_545 S
C1822 H1798 0.950 . S
C1822 C1817 1.363 . S
C1822 C1821 1.415 1_565 S
C1823 H1799 0.951 . S
C1823 C1824 1.366 . S
C1823 C1825 1.388 . S
C1824 C1823 1.366 . S
C1824 C1828 1.385 . S
C1825 H1800 0.951 . S
C1825 C1823 1.388 . S
C1825 C1826 1.366 . S
C1826 C1825 1.366 . S
C1826 C1827 1.414 . S
C1826 C1829 1.499 . S
C1827 H1801 0.950 . S
C1827 C1826 1.414 . S
C1827 C1828 1.374 . S
C1828 H1802 0.950 . S
C1828 C1824 1.385 . S
C1828 C1827 1.374 . S
C1829 C1826 1.499 . S
C1829 C1830 1.373 . S
C1829 C1831 1.389 . S
C1830 H1803 0.950 . S
C1830 C1816 1.377 . S
C1830 C1829 1.373 . S
C1831 C1815 1.377 . S
C1831 C1829 1.389 . S
C1831 C1832 1.524 . S
C1832 C1831 1.524 . S
C1832 C1833 1.397 . S
C1832 C1837 1.363 . S
C1833 H1804 0.950 . S
C1833 C1832 1.397 . S
C1833 C1834 1.334 . S
C1834 H1805 0.950 . S
C1834 C1833 1.334 . S
C1834 C1835 1.287 . S
C1835 C1834 1.287 . S
C1835 C1836 1.524 . S
C1835 H1838 0.999 . S
C1836 H1806 0.950 . S
C1836 C1835 1.524 . S
C1836 C1837 1.415 . S
C1837 H1807 0.950 . S
C1837 C1832 1.363 . S
C1837 C1836 1.415 . S
H1838 C1835 0.999 . S
H1839 C1820 0.913 . S
H1840 C1858 0.951 . S
H1841 C1860 0.951 . S
H1842 C1862 0.950 . S
H1843 C1863 0.950 . S
H1844 C1865 0.950 . S
H1845 C1868 0.950 . S
H1846 C1869 0.950 . S
H1847 C1871 0.950 . S
H1848 C1872 0.950 . S
H1849 C1873 0.951 . S
H1850 C1875 0.951 . S
H1851 C1877 0.950 . S
H1852 C1878 0.950 . S
H1853 C1880 0.950 . S
H1854 C1883 0.950 . S
H1855 C1884 0.950 . S
H1856 C1886 0.950 . S
H1857 C1887 0.950 . S
C1858 H1840 0.951 . S
C1858 C1859 1.366 . S
C1858 C1860 1.388 . S
C1859 C1858 1.366 . S
C1859 C1863 1.385 . S
C1860 H1841 0.951 . S
C1860 C1858 1.388 . S
C1860 C1861 1.366 . S
C1861 C1860 1.366 . S
C1861 C1862 1.414 . S
C1861 C1864 1.499 . S
C1862 H1842 0.950 . S
C1862 C1861 1.414 . S
C1862 C1863 1.374 . S
C1863 H1843 0.950 . S
C1863 C1859 1.385 . S
C1863 C1862 1.374 . S
C1864 C1861 1.499 . S
C1864 C1865 1.373 . S
C1864 C1866 1.389 . S
C1865 H1844 0.950 . S
C1865 C1864 1.373 . S
C1865 C1881 1.377 . S
C1866 C1864 1.389 . S
C1866 C1867 1.524 . S
C1866 C1880 1.377 . S
C1867 C1866 1.524 . S
C1867 C1868 1.397 . S
C1867 C1872 1.363 . S
C1868 H1845 0.950 . S
C1868 C1867 1.397 . S
C1868 C1869 1.334 . S
C1869 H1846 0.950 . S
C1869 C1868 1.334 . S
C1869 C1870 1.287 . S
C1870 C1869 1.287 . S
C1870 C1871 1.524 . S
C1870 H1889 0.913 . S
C1871 H1847 0.950 . S
C1871 C1870 1.524 . S
C1871 C1872 1.415 . S
C1872 H1848 0.950 . S
C1872 C1867 1.363 . S
C1872 C1871 1.415 . S
C1873 H1849 0.951 . S
C1873 C1874 1.366 . S
C1873 C1875 1.388 . S
C1874 C1873 1.366 . S
C1874 C1878 1.385 . S
C1875 H1850 0.951 . S
C1875 C1873 1.388 . S
C1875 C1876 1.366 . S
C1876 C1875 1.366 . S
C1876 C1877 1.414 . S
C1876 C1879 1.499 . S
C1877 H1851 0.950 . S
C1877 C1876 1.414 . S
C1877 C1878 1.374 . S
C1878 H1852 0.950 . S
C1878 C1874 1.385 . S
C1878 C1877 1.374 . S
C1879 C1876 1.499 . S
C1879 C1880 1.373 . S
C1879 C1881 1.389 . S
C1880 H1853 0.950 . S
C1880 C1866 1.377 . S
C1880 C1879 1.373 . S
C1881 C1865 1.377 . S
C1881 C1879 1.389 . S
C1881 C1882 1.524 . S
C1882 C1881 1.524 . S
C1882 C1883 1.397 . S
C1882 C1887 1.363 . S
C1883 H1854 0.950 . S
C1883 C1882 1.397 . S
C1883 C1884 1.334 . S
C1884 H1855 0.950 . S
C1884 C1883 1.334 . S
C1884 C1885 1.287 . S
C1885 C1884 1.287 . S
C1885 C1886 1.524 . S
C1885 H1888 0.999 . S
C1886 H1856 0.950 . S
C1886 C1885 1.524 . S
C1886 C1887 1.415 . S
C1887 H1857 0.950 . S
C1887 C1882 1.363 . S
C1887 C1886 1.415 . S
H1888 C1885 0.999 . S
H1889 C1870 0.913 . S
H1890 C1908 0.951 . S
H1891 C1910 0.951 . S
H1892 C1912 0.950 . S
H1893 C1913 0.950 . S
H1894 C1915 0.950 . S
H1895 C1918 0.950 . S
H1896 C1919 0.950 . S
H1897 C1921 0.950 . S
H1898 C1922 0.950 . S
H1899 C1923 0.951 . S
H1900 C1925 0.951 . S
H1901 C1927 0.950 . S
H1902 C1928 0.950 . S
H1903 C1930 0.950 . S
H1904 C1933 0.950 . S
H1905 C1934 0.950 1_556 S
H1906 C1936 0.950 1_556 S
H1907 C1937 0.950 . S
C1908 H1890 0.951 . S
C1908 C1909 1.366 . S
C1908 C1910 1.388 . S
C1909 C1908 1.366 . S
C1909 C1913 1.385 . S
C1910 H1891 0.951 . S
C1910 C1908 1.388 . S
C1910 C1911 1.366 . S
C1911 C1910 1.366 . S
C1911 C1912 1.414 . S
C1911 C1914 1.499 . S
C1912 H1892 0.950 . S
C1912 C1911 1.414 . S
C1912 C1913 1.374 . S
C1913 H1893 0.950 . S
C1913 C1909 1.385 . S
C1913 C1912 1.374 . S
C1914 C1911 1.499 . S
C1914 C1915 1.373 . S
C1914 C1916 1.389 . S
C1915 H1894 0.950 . S
C1915 C1914 1.373 . S
C1915 C1931 1.377 . S
C1916 C1914 1.389 . S
C1916 C1917 1.524 . S
C1916 C1930 1.377 . S
C1917 C1916 1.524 . S
C1917 C1918 1.397 . S
C1917 C1922 1.363 . S
C1918 H1895 0.950 . S
C1918 C1917 1.397 . S
C1918 C1919 1.334 . S
C1919 H1896 0.950 . S
C1919 C1918 1.334 . S
C1919 C1920 1.287 . S
C1920 C1919 1.287 . S
C1920 C1921 1.524 . S
C1920 H1939 0.913 . S
C1921 H1897 0.950 . S
C1921 C1920 1.524 . S
C1921 C1922 1.415 . S
C1922 H1898 0.950 . S
C1922 C1917 1.363 . S
C1922 C1921 1.415 . S
C1923 H1899 0.951 . S
C1923 C1924 1.366 . S
C1923 C1925 1.388 1_556 S
C1924 C1923 1.366 . S
C1924 C1928 1.385 1_556 S
C1925 H1900 0.951 . S
C1925 C1923 1.388 1_554 S
C1925 C1926 1.366 . S
C1926 C1925 1.366 . S
C1926 C1927 1.414 . S
C1926 C1929 1.499 . S
C1927 H1901 0.950 . S
C1927 C1926 1.414 . S
C1927 C1928 1.374 . S
C1928 H1902 0.950 . S
C1928 C1924 1.385 1_554 S
C1928 C1927 1.374 . S
C1929 C1926 1.499 . S
C1929 C1930 1.373 . S
C1929 C1931 1.389 . S
C1930 H1903 0.950 . S
C1930 C1916 1.377 . S
C1930 C1929 1.373 . S
C1931 C1915 1.377 . S
C1931 C1929 1.389 . S
C1931 C1932 1.524 . S
C1932 C1931 1.524 . S
C1932 C1933 1.397 . S
C1932 C1937 1.363 . S
C1933 H1904 0.950 . S
C1933 C1932 1.397 . S
C1933 C1934 1.334 . S
C1934 H1905 0.950 1_554 S
C1934 C1933 1.334 . S
C1934 C1935 1.287 1_554 S
C1935 C1934 1.287 1_556 S
C1935 C1936 1.524 1_556 S
C1935 H1938 0.999 . S
C1936 H1906 0.950 1_554 S
C1936 C1935 1.524 1_554 S
C1936 C1937 1.415 . S
C1937 H1907 0.950 . S
C1937 C1932 1.363 . S
C1937 C1936 1.415 . S
H1938 C1935 0.999 . S
H1939 C1920 0.913 . S
H1940 C1958 0.951 . S
H1941 C1960 0.951 . S
H1942 C1962 0.950 . S
H1943 C1963 0.950 . S
H1944 C1965 0.950 . S
H1945 C1968 0.950 . S
H1946 C1969 0.950 . S
H1947 C1971 0.950 . S
H1948 C1972 0.950 . S
H1949 C1973 0.951 . S
H1950 C1975 0.951 . S
H1951 C1977 0.950 1_655 S
H1952 C1978 0.950 . S
H1953 C1980 0.950 . S
H1954 C1983 0.950 . S
H1955 C1984 0.950 . S
H1956 C1986 0.941 1_455 S
H1957 C1987 0.950 1_455 S
C1958 H1940 0.951 . S
C1958 C1959 1.366 . S
C1958 C1960 1.388 . S
C1959 C1958 1.366 . S
C1959 C1963 1.385 . S
C1960 H1941 0.951 . S
C1960 C1958 1.388 . S
C1960 C1961 1.366 . S
C1961 C1960 1.366 . S
C1961 C1962 1.414 . S
C1961 C1964 1.499 . S
C1962 H1942 0.950 . S
C1962 C1961 1.414 . S
C1962 C1963 1.374 . S
C1963 H1943 0.950 . S
C1963 C1959 1.385 . S
C1963 C1962 1.374 . S
C1964 C1961 1.499 . S
C1964 C1965 1.373 . S
C1964 C1966 1.389 . S
C1965 H1944 0.950 . S
C1965 C1964 1.373 . S
C1965 C1981 1.377 . S
C1966 C1964 1.389 . S
C1966 C1967 1.524 . S
C1966 C1980 1.377 . S
C1967 C1966 1.524 . S
C1967 C1968 1.397 . S
C1967 C1972 1.363 . S
C1968 H1945 0.950 . S
C1968 C1967 1.397 . S
C1968 C1969 1.334 . S
C1969 H1946 0.950 . S
C1969 C1968 1.334 . S
C1969 C1970 1.287 . S
C1970 C1969 1.287 . S
C1970 C1971 1.524 . S
C1970 H1989 0.913 . S
C1971 H1947 0.950 . S
C1971 C1970 1.524 . S
C1971 C1972 1.415 . S
C1972 H1948 0.950 . S
C1972 C1967 1.363 . S
C1972 C1971 1.415 . S
C1973 H1949 0.951 . S
C1973 C1974 1.366 . S
C1973 C1975 1.388 . S
C1974 C1973 1.366 . S
C1974 C1978 1.385 . S
C1975 H1950 0.951 . S
C1975 C1973 1.388 . S
C1975 C1976 1.366 . S
C1976 C1975 1.366 . S
C1976 C1977 1.414 . S
C1976 C1979 1.499 1_455 S
C1977 H1951 0.950 1_455 S
C1977 C1976 1.414 . S
C1977 C1978 1.374 . S
C1978 H1952 0.950 . S
C1978 C1974 1.385 . S
C1978 C1977 1.374 . S
C1979 C1976 1.499 1_655 S
C1979 C1980 1.373 . S
C1979 C1981 1.389 . S
C1980 H1953 0.950 . S
C1980 C1966 1.377 . S
C1980 C1979 1.373 . S
C1981 C1965 1.377 . S
C1981 C1979 1.389 . S
C1981 C1982 1.524 . S
C1982 C1981 1.524 . S
C1982 C1983 1.397 . S
C1982 C1987 1.363 . S
C1983 H1954 0.950 . S
C1983 C1982 1.397 . S
C1983 C1984 1.334 . S
C1984 H1955 0.950 . S
C1984 C1983 1.334 . S
C1984 C1985 1.287 . S
C1985 C1984 1.287 . S
C1985 C1986 1.532 . S
C1985 H1988 0.999 . S
C1986 H1956 0.941 1_655 S
C1986 C1985 1.532 . S
C1986 C1987 1.417 . S
C1987 H1957 0.950 1_655 S
C1987 C1982 1.363 . S
C1987 C1986 1.417 . S
H1988 C1985 0.999 . S
H1989 C1970 0.913 . S
H1990 C2008 0.951 . S
H1991 C2010 0.951 . S
H1992 C2012 0.950 . S
H1993 C2013 0.950 . S
H1994 C2015 0.950 . S
H1995 C2018 0.950 . S
H1996 C2019 0.950 . S
H1997 C2021 0.950 . S
H1998 C2022 0.950 . S
H1999 C2023 0.951 . S
H2000 C2025 0.951 . S
H2001 C2027 0.950 . S
H2002 C2028 0.950 . S
H2003 C2030 0.950 . S
H2004 C2033 0.950 . S
H2005 C2034 0.950 . S
H2006 C2036 0.950 . S
H2007 C2037 0.950 . S
C2008 H1990 0.951 . S
C2008 C2009 1.366 . S
C2008 C2010 1.388 . S
C2009 C2008 1.366 . S
C2009 C2013 1.385 . S
C2010 H1991 0.951 . S
C2010 C2008 1.388 . S
C2010 C2011 1.366 . S
C2011 C2010 1.366 . S
C2011 C2012 1.414 . S
C2011 C2014 1.499 . S
C2012 H1992 0.950 . S
C2012 C2011 1.414 . S
C2012 C2013 1.374 . S
C2013 H1993 0.950 . S
C2013 C2009 1.385 . S
C2013 C2012 1.374 . S
C2014 C2011 1.499 . S
C2014 C2015 1.373 . S
C2014 C2016 1.389 . S
C2015 H1994 0.950 . S
C2015 C2014 1.373 . S
C2015 C2031 1.377 . S
C2016 C2014 1.389 . S
C2016 C2017 1.524 . S
C2016 C2030 1.377 . S
C2017 C2016 1.524 . S
C2017 C2018 1.397 . S
C2017 C2022 1.363 . S
C2018 H1995 0.950 . S
C2018 C2017 1.397 . S
C2018 C2019 1.334 . S
C2019 H1996 0.950 . S
C2019 C2018 1.334 . S
C2019 C2020 1.287 . S
C2020 C2019 1.287 . S
C2020 C2021 1.524 . S
C2020 H2039 0.913 . S
C2021 H1997 0.950 . S
C2021 C2020 1.524 . S
C2021 C2022 1.415 . S
C2022 H1998 0.950 . S
C2022 C2017 1.363 . S
C2022 C2021 1.415 . S
C2023 H1999 0.951 . S
C2023 C2024 1.366 . S
C2023 C2025 1.388 . S
C2024 C2023 1.366 . S
C2024 C2028 1.385 . S
C2025 H2000 0.951 . S
C2025 C2023 1.388 . S
C2025 C2026 1.366 . S
C2026 C2025 1.366 . S
C2026 C2027 1.414 . S
C2026 C2029 1.499 . S
C2027 H2001 0.950 . S
C2027 C2026 1.414 . S
C2027 C2028 1.374 . S
C2028 H2002 0.950 . S
C2028 C2024 1.385 . S
C2028 C2027 1.374 . S
C2029 C2026 1.499 . S
C2029 C2030 1.373 . S
C2029 C2031 1.389 . S
C2030 H2003 0.950 . S
C2030 C2016 1.377 . S
C2030 C2029 1.373 . S
C2031 C2015 1.377 . S
C2031 C2029 1.389 . S
C2031 C2032 1.524 . S
C2032 C2031 1.524 . S
C2032 C2033 1.397 . S
C2032 C2037 1.363 . S
C2033 H2004 0.950 . S
C2033 C2032 1.397 . S
C2033 C2034 1.334 . S
C2034 H2005 0.950 . S
C2034 C2033 1.334 . S
C2034 C2035 1.287 . S
C2035 C2034 1.287 . S
C2035 C2036 1.524 . S
C2035 H2038 0.999 . S
C2036 H2006 0.950 . S
C2036 C2035 1.524 . S
C2036 C2037 1.415 . S
C2037 H2007 0.950 . S
C2037 C2032 1.363 . S
C2037 C2036 1.415 . S
H2038 C2035 0.999 . S
H2039 C2020 0.913 . S
H2040 C2058 0.951 . S
H2041 C2060 0.951 . S
H2042 C2062 0.950 . S
H2043 C2063 0.950 . S
H2044 C2065 0.950 . S
H2045 C2068 0.950 . S
H2046 C2069 0.950 . S
H2047 C2071 0.950 . S
H2048 C2072 0.950 . S
H2049 C2073 0.951 . S
H2050 C2075 0.951 . S
H2051 C2077 0.950 . S
H2052 C2078 0.950 . S
H2053 C2080 0.950 . S
H2054 C2083 0.950 . S
H2055 C2084 0.950 . S
H2056 C2086 0.950 . S
H2057 C2087 0.950 . S
C2058 H2040 0.951 . S
C2058 C2059 1.366 . S
C2058 C2060 1.388 . S
C2059 C2058 1.366 . S
C2059 C2063 1.385 . S
C2060 H2041 0.951 . S
C2060 C2058 1.388 . S
C2060 C2061 1.366 . S
C2061 C2060 1.366 . S
C2061 C2062 1.414 . S
C2061 C2064 1.499 . S
C2062 H2042 0.950 . S
C2062 C2061 1.414 . S
C2062 C2063 1.374 . S
C2063 H2043 0.950 . S
C2063 C2059 1.385 . S
C2063 C2062 1.374 . S
C2064 C2061 1.499 . S
C2064 C2065 1.373 . S
C2064 C2066 1.389 . S
C2065 H2044 0.950 . S
C2065 C2064 1.373 . S
C2065 C2081 1.377 . S
C2066 C2064 1.389 . S
C2066 C2067 1.524 . S
C2066 C2080 1.377 . S
C2067 C2066 1.524 . S
C2067 C2068 1.397 . S
C2067 C2072 1.363 . S
C2068 H2045 0.950 . S
C2068 C2067 1.397 . S
C2068 C2069 1.334 . S
C2069 H2046 0.950 . S
C2069 C2068 1.334 . S
C2069 C2070 1.287 . S
C2070 C2069 1.287 . S
C2070 C2071 1.524 . S
C2070 H2089 0.913 . S
C2071 H2047 0.950 . S
C2071 C2070 1.524 . S
C2071 C2072 1.415 . S
C2072 H2048 0.950 . S
C2072 C2067 1.363 . S
C2072 C2071 1.415 . S
C2073 H2049 0.951 . S
C2073 C2074 1.366 . S
C2073 C2075 1.388 . S
C2074 C2073 1.366 . S
C2074 C2078 1.385 . S
C2075 H2050 0.951 . S
C2075 C2073 1.388 . S
C2075 C2076 1.366 . S
C2076 C2075 1.366 . S
C2076 C2077 1.414 . S
C2076 C2079 1.499 . S
C2077 H2051 0.950 . S
C2077 C2076 1.414 . S
C2077 C2078 1.374 . S
C2078 H2052 0.950 . S
C2078 C2074 1.385 . S
C2078 C2077 1.374 . S
C2079 C2076 1.499 . S
C2079 C2080 1.373 . S
C2079 C2081 1.389 . S
C2080 H2053 0.950 . S
C2080 C2066 1.377 . S
C2080 C2079 1.373 . S
C2081 C2065 1.377 . S
C2081 C2079 1.389 . S
C2081 C2082 1.524 . S
C2082 C2081 1.524 . S
C2082 C2083 1.397 . S
C2082 C2087 1.363 . S
C2083 H2054 0.950 . S
C2083 C2082 1.397 . S
C2083 C2084 1.334 . S
C2084 H2055 0.950 . S
C2084 C2083 1.334 . S
C2084 C2085 1.287 . S
C2085 C2084 1.287 . S
C2085 C2086 1.524 . S
C2085 H2088 0.999 . S
C2086 H2056 0.950 . S
C2086 C2085 1.524 . S
C2086 C2087 1.415 . S
C2087 H2057 0.950 . S
C2087 C2082 1.363 . S
C2087 C2086 1.415 . S
H2088 C2085 0.999 . S
H2089 C2070 0.913 . S
H2090 C2108 0.951 . S
H2091 C2110 0.951 . S
H2092 C2112 0.950 . S
H2093 C2113 0.950 . S
H2094 C2115 0.950 . S
H2095 C2118 0.950 . S
H2096 C2119 0.950 . S
H2097 C2121 0.950 . S
H2098 C2122 0.950 . S
H2099 C2123 0.951 . S
H2100 C2125 0.951 . S
H2101 C2127 0.950 . S
H2102 C2128 0.950 . S
H2103 C2130 0.950 . S
H2104 C2133 0.950 . S
H2105 C2134 0.950 . S
H2106 C2136 0.950 . S
H2107 C2137 0.950 . S
C2108 H2090 0.951 . S
C2108 C2109 1.366 . S
C2108 C2110 1.388 . S
C2109 C2108 1.366 . S
C2109 C2113 1.385 . S
C2110 H2091 0.951 . S
C2110 C2108 1.388 . S
C2110 C2111 1.366 . S
C2111 C2110 1.366 . S
C2111 C2112 1.414 . S
C2111 C2114 1.499 . S
C2112 H2092 0.950 . S
C2112 C2111 1.414 . S
C2112 C2113 1.374 . S
C2113 H2093 0.950 . S
C2113 C2109 1.385 . S
C2113 C2112 1.374 . S
C2114 C2111 1.499 . S
C2114 C2115 1.373 . S
C2114 C2116 1.389 . S
C2115 H2094 0.950 . S
C2115 C2114 1.373 . S
C2115 C2131 1.377 . S
C2116 C2114 1.389 . S
C2116 C2117 1.524 . S
C2116 C2130 1.377 . S
C2117 C2116 1.524 . S
C2117 C2118 1.397 . S
C2117 C2122 1.363 . S
C2118 H2095 0.950 . S
C2118 C2117 1.397 . S
C2118 C2119 1.334 . S
C2119 H2096 0.950 . S
C2119 C2118 1.334 . S
C2119 C2120 1.287 . S
C2120 C2119 1.287 . S
C2120 C2121 1.524 . S
C2120 H2139 0.913 . S
C2121 H2097 0.950 . S
C2121 C2120 1.524 . S
C2121 C2122 1.415 . S
C2122 H2098 0.950 . S
C2122 C2117 1.363 . S
C2122 C2121 1.415 . S
C2123 H2099 0.951 . S
C2123 C2124 1.366 1_556 S
C2123 C2125 1.388 . S
C2124 C2123 1.366 1_554 S
C2124 C2128 1.385 . S
C2125 H2100 0.951 . S
C2125 C2123 1.388 . S
C2125 C2126 1.366 . S
C2126 C2125 1.366 . S
C2126 C2127 1.414 . S
C2126 C2129 1.499 . S
C2127 H2101 0.950 . S
C2127 C2126 1.414 . S
C2127 C2128 1.374 1_556 S
C2128 H2102 0.950 . S
C2128 C2124 1.385 . S
C2128 C2127 1.374 1_554 S
C2129 C2126 1.499 . S
C2129 C2130 1.373 . S
C2129 C2131 1.389 . S
C2130 H2103 0.950 . S
C2130 C2116 1.377 . S
C2130 C2129 1.373 . S
C2131 C2115 1.377 . S
C2131 C2129 1.389 . S
C2131 C2132 1.524 . S
C2132 C2131 1.524 . S
C2132 C2133 1.397 . S
C2132 C2137 1.363 . S
C2133 H2104 0.950 . S
C2133 C2132 1.397 . S
C2133 C2134 1.334 . S
C2134 H2105 0.950 . S
C2134 C2133 1.334 . S
C2134 C2135 1.287 . S
C2135 C2134 1.287 . S
C2135 C2136 1.524 . S
C2135 H2138 0.999 . S
C2136 H2106 0.950 . S
C2136 C2135 1.524 . S
C2136 C2137 1.415 . S
C2137 H2107 0.950 . S
C2137 C2132 1.363 . S
C2137 C2136 1.415 . S
H2138 C2135 0.999 . S
H2139 C2120 0.913 . S
H2140 C2158 0.951 . S
H2141 C2160 0.951 . S
H2142 C2162 0.950 . S
H2143 C2163 0.950 . S
H2144 C2165 0.950 . S
H2145 C2168 0.950 1_455 S
H2146 C2169 0.950 . S
H2147 C2171 0.950 . S
H2148 C2172 0.950 . S
H2149 C2173 0.951 . S
H2150 C2175 0.951 . S
H2151 C2177 0.950 . S
H2152 C2178 0.950 . S
H2153 C2180 0.950 . S
H2154 C2183 0.950 . S
H2155 C2184 0.950 . S
H2156 C2186 0.950 . S
H2157 C2187 0.950 . S
C2158 H2140 0.951 . S
C2158 C2159 1.366 . S
C2158 C2160 1.388 . S
C2159 C2158 1.366 . S
C2159 C2163 1.385 . S
C2160 H2141 0.951 . S
C2160 C2158 1.388 . S
C2160 C2161 1.366 . S
C2161 C2160 1.366 . S
C2161 C2162 1.414 . S
C2161 C2164 1.499 . S
C2162 H2142 0.950 . S
C2162 C2161 1.414 . S
C2162 C2163 1.374 . S
C2163 H2143 0.950 . S
C2163 C2159 1.385 . S
C2163 C2162 1.374 . S
C2164 C2161 1.499 . S
C2164 C2165 1.373 . S
C2164 C2166 1.389 . S
C2165 H2144 0.950 . S
C2165 C2164 1.373 . S
C2165 C2181 1.377 . S
C2166 C2164 1.389 . S
C2166 C2167 1.524 1_455 S
C2166 C2180 1.377 1_455 S
C2167 C2166 1.524 1_655 S
C2167 C2168 1.397 . S
C2167 C2172 1.363 . S
C2168 H2145 0.950 1_655 S
C2168 C2167 1.397 . S
C2168 C2169 1.334 . S
C2169 H2146 0.950 . S
C2169 C2168 1.334 . S
C2169 C2170 1.287 . S
C2170 C2169 1.287 . S
C2170 C2171 1.524 . S
C2170 H2189 0.913 . S
C2171 H2147 0.950 . S
C2171 C2170 1.524 . S
C2171 C2172 1.415 . S
C2172 H2148 0.950 . S
C2172 C2167 1.363 . S
C2172 C2171 1.415 . S
C2173 H2149 0.951 . S
C2173 C2174 1.366 . S
C2173 C2175 1.388 . S
C2174 C2173 1.366 . S
C2174 C2178 1.385 . S
C2175 H2150 0.951 . S
C2175 C2173 1.388 . S
C2175 C2176 1.366 . S
C2176 C2175 1.366 . S
C2176 C2177 1.414 . S
C2176 C2179 1.499 1_655 S
C2177 H2151 0.950 . S
C2177 C2176 1.414 . S
C2177 C2178 1.374 . S
C2178 H2152 0.950 . S
C2178 C2174 1.385 . S
C2178 C2177 1.374 . S
C2179 C2176 1.499 1_455 S
C2179 C2180 1.373 1_455 S
C2179 C2181 1.389 . S
C2180 H2153 0.950 . S
C2180 C2166 1.377 1_655 S
C2180 C2179 1.373 1_655 S
C2181 C2165 1.377 . S
C2181 C2179 1.389 . S
C2181 C2182 1.524 . S
C2182 C2181 1.524 . S
C2182 C2183 1.397 . S
C2182 C2187 1.363 . S
C2183 H2154 0.950 . S
C2183 C2182 1.397 . S
C2183 C2184 1.334 . S
C2184 H2155 0.950 . S
C2184 C2183 1.334 . S
C2184 C2185 1.287 . S
C2185 C2184 1.287 . S
C2185 C2186 1.524 . S
C2185 H2188 0.999 . S
C2186 H2156 0.950 . S
C2186 C2185 1.524 . S
C2186 C2187 1.415 . S
C2187 H2157 0.950 . S
C2187 C2182 1.363 . S
C2187 C2186 1.415 . S
H2188 C2185 0.999 . S
H2189 C2170 0.913 . S
H2190 C2208 0.951 . S
H2191 C2210 0.951 . S
H2192 C2212 0.950 . S
H2193 C2213 0.950 . S
H2194 C2215 0.950 . S
H2195 C2218 0.950 . S
H2196 C2219 0.950 . S
H2197 C2221 0.950 . S
H2198 C2222 0.950 . S
H2199 C2223 0.951 . S
H2200 C2225 0.951 . S
H2201 C2227 0.950 . S
H2202 C2228 0.950 . S
H2203 C2230 0.950 . S
H2204 C2233 0.950 . S
H2205 C2234 0.950 . S
H2206 C2236 0.950 . S
H2207 C2237 0.950 . S
C2208 H2190 0.951 . S
C2208 C2209 1.366 . S
C2208 C2210 1.388 . S
C2209 C2208 1.366 . S
C2209 C2213 1.385 . S
C2210 H2191 0.951 . S
C2210 C2208 1.388 . S
C2210 C2211 1.366 . S
C2211 C2210 1.366 . S
C2211 C2212 1.414 . S
C2211 C2214 1.499 . S
C2212 H2192 0.950 . S
C2212 C2211 1.414 . S
C2212 C2213 1.374 . S
C2213 H2193 0.950 . S
C2213 C2209 1.385 . S
C2213 C2212 1.374 . S
C2214 C2211 1.499 . S
C2214 C2215 1.373 . S
C2214 C2216 1.389 . S
C2215 H2194 0.950 . S
C2215 C2214 1.373 . S
C2215 C2231 1.377 . S
C2216 C2214 1.389 . S
C2216 C2217 1.524 . S
C2216 C2230 1.377 . S
C2217 C2216 1.524 . S
C2217 C2218 1.397 . S
C2217 C2222 1.363 . S
C2218 H2195 0.950 . S
C2218 C2217 1.397 . S
C2218 C2219 1.334 . S
C2219 H2196 0.950 . S
C2219 C2218 1.334 . S
C2219 C2220 1.287 . S
C2220 C2219 1.287 . S
C2220 C2221 1.524 . S
C2220 H2239 0.913 . S
C2221 H2197 0.950 . S
C2221 C2220 1.524 . S
C2221 C2222 1.415 . S
C2222 H2198 0.950 . S
C2222 C2217 1.363 . S
C2222 C2221 1.415 . S
C2223 H2199 0.951 . S
C2223 C2224 1.366 . S
C2223 C2225 1.388 . S
C2224 C2223 1.366 . S
C2224 C2228 1.385 . S
C2225 H2200 0.951 . S
C2225 C2223 1.388 . S
C2225 C2226 1.366 . S
C2226 C2225 1.366 . S
C2226 C2227 1.414 . S
C2226 C2229 1.499 . S
C2227 H2201 0.950 . S
C2227 C2226 1.414 . S
C2227 C2228 1.374 . S
C2228 H2202 0.950 . S
C2228 C2224 1.385 . S
C2228 C2227 1.374 . S
C2229 C2226 1.499 . S
C2229 C2230 1.373 . S
C2229 C2231 1.389 . S
C2230 H2203 0.950 . S
C2230 C2216 1.377 . S
C2230 C2229 1.373 . S
C2231 C2215 1.377 . S
C2231 C2229 1.389 . S
C2231 C2232 1.524 . S
C2232 C2231 1.524 . S
C2232 C2233 1.397 . S
C2232 C2237 1.363 . S
C2233 H2204 0.950 . S
C2233 C2232 1.397 . S
C2233 C2234 1.334 . S
C2234 H2205 0.950 . S
C2234 C2233 1.334 . S
C2234 C2235 1.287 . S
C2235 C2234 1.287 . S
C2235 C2236 1.524 . S
C2235 H2238 0.999 . S
C2236 H2206 0.950 . S
C2236 C2235 1.524 . S
C2236 C2237 1.415 . S
C2237 H2207 0.950 . S
C2237 C2232 1.363 . S
C2237 C2236 1.415 . S
H2238 C2235 0.999 . S
H2239 C2220 0.913 . S
H2240 C2258 0.951 . S
H2241 C2260 0.951 . S
H2242 C2262 0.950 1_455 S
H2243 C2263 0.950 . S
H2244 C2265 0.950 . S
H2245 C2268 0.950 . S
H2246 C2269 0.950 . S
H2247 C2271 0.950 . S
H2248 C2272 0.940 1_655 S
H2249 C2273 0.951 . S
H2250 C2275 0.951 . S
H2251 C2277 0.950 . S
H2252 C2278 0.950 . S
H2253 C2280 0.950 . S
H2254 C2283 0.950 . S
H2255 C2284 0.950 . S
H2256 C2286 0.950 . S
H2257 C2287 0.950 . S
C2258 H2240 0.951 . S
C2258 C2259 1.366 . S
C2258 C2260 1.388 . S
C2259 C2258 1.366 . S
C2259 C2263 1.385 . S
C2260 H2241 0.951 . S
C2260 C2258 1.388 . S
C2260 C2261 1.366 . S
C2261 C2260 1.366 . S
C2261 C2262 1.414 . S
C2261 C2264 1.499 1_655 S
C2262 H2242 0.950 1_655 S
C2262 C2261 1.414 . S
C2262 C2263 1.374 . S
C2263 H2243 0.950 . S
C2263 C2259 1.385 . S
C2263 C2262 1.374 . S
C2264 C2261 1.499 1_455 S
C2264 C2265 1.373 . S
C2264 C2266 1.389 . S
C2265 H2244 0.950 . S
C2265 C2264 1.373 . S
C2265 C2281 1.377 . S
C2266 C2264 1.389 . S
C2266 C2267 1.524 . S
C2266 C2280 1.377 . S
C2267 C2266 1.524 . S
C2267 C2268 1.397 . S
C2267 C2272 1.379 . S
C2268 H2245 0.950 . S
C2268 C2267 1.397 . S
C2268 C2269 1.334 . S
C2269 H2246 0.950 . S
C2269 C2268 1.334 . S
C2269 C2270 1.287 . S
C2270 C2269 1.287 . S
C2270 C2271 1.524 1_455 S
C2270 H2289 0.913 . S
C2271 H2247 0.950 . S
C2271 C2270 1.524 1_655 S
C2271 C2272 1.410 1_655 S
C2272 H2248 0.940 1_455 S
C2272 C2267 1.379 . S
C2272 C2271 1.410 1_455 S
C2273 H2249 0.951 . S
C2273 C2274 1.366 . S
C2273 C2275 1.388 . S
C2274 C2273 1.366 . S
C2274 C2278 1.385 . S
C2275 H2250 0.951 . S
C2275 C2273 1.388 . S
C2275 C2276 1.366 . S
C2276 C2275 1.366 . S
C2276 C2277 1.414 . S
C2276 C2279 1.499 . S
C2277 H2251 0.950 . S
C2277 C2276 1.414 . S
C2277 C2278 1.374 . S
C2278 H2252 0.950 . S
C2278 C2274 1.385 . S
C2278 C2277 1.374 . S
C2279 C2276 1.499 . S
C2279 C2280 1.373 . S
C2279 C2281 1.389 . S
C2280 H2253 0.950 . S
C2280 C2266 1.377 . S
C2280 C2279 1.373 . S
C2281 C2265 1.377 . S
C2281 C2279 1.389 . S
C2281 C2282 1.524 . S
C2282 C2281 1.524 . S
C2282 C2283 1.397 . S
C2282 C2287 1.363 . S
C2283 H2254 0.950 . S
C2283 C2282 1.397 . S
C2283 C2284 1.334 . S
C2284 H2255 0.950 . S
C2284 C2283 1.334 . S
C2284 C2285 1.287 . S
C2285 C2284 1.287 . S
C2285 C2286 1.524 . S
C2285 H2288 0.999 . S
C2286 H2256 0.950 . S
C2286 C2285 1.524 . S
C2286 C2287 1.415 . S
C2287 H2257 0.950 . S
C2287 C2282 1.363 . S
C2287 C2286 1.415 . S
H2288 C2285 0.999 . S
H2289 C2270 0.913 . S
H2290 C2308 0.951 . S
H2291 C2310 0.951 . S
H2292 C2312 0.950 . S
H2293 C2313 0.950 . S
H2294 C2315 0.950 . S
H2295 C2318 0.950 . S
H2296 C2319 0.950 . S
H2297 C2321 0.950 . S
H2298 C2322 0.950 . S
H2299 C2323 0.951 . S
H2300 C2325 0.951 . S
H2301 C2327 0.950 . S
H2302 C2328 0.950 . S
H2303 C2330 0.950 . S
H2304 C2333 0.950 . S
H2305 C2334 0.950 . S
H2306 C2336 0.950 . S
H2307 C2337 0.950 . S
C2308 H2290 0.951 . S
C2308 C2309 1.366 . S
C2308 C2310 1.388 . S
C2309 C2308 1.366 . S
C2309 C2313 1.385 . S
C2310 H2291 0.951 . S
C2310 C2308 1.388 . S
C2310 C2311 1.366 . S
C2311 C2310 1.366 . S
C2311 C2312 1.414 . S
C2311 C2314 1.499 . S
C2312 H2292 0.950 . S
C2312 C2311 1.414 . S
C2312 C2313 1.374 . S
C2313 H2293 0.950 . S
C2313 C2309 1.385 . S
C2313 C2312 1.374 . S
C2314 C2311 1.499 . S
C2314 C2315 1.373 . S
C2314 C2316 1.389 . S
C2315 H2294 0.950 . S
C2315 C2314 1.373 . S
C2315 C2331 1.377 . S
C2316 C2314 1.389 . S
C2316 C2317 1.524 . S
C2316 C2330 1.377 . S
C2317 C2316 1.524 . S
C2317 C2318 1.397 . S
C2317 C2322 1.363 . S
C2318 H2295 0.950 . S
C2318 C2317 1.397 . S
C2318 C2319 1.334 . S
C2319 H2296 0.950 . S
C2319 C2318 1.334 . S
C2319 C2320 1.287 . S
C2320 C2319 1.287 . S
C2320 C2321 1.524 . S
C2320 H2339 0.913 . S
C2321 H2297 0.950 . S
C2321 C2320 1.524 . S
C2321 C2322 1.415 . S
C2322 H2298 0.950 . S
C2322 C2317 1.363 . S
C2322 C2321 1.415 . S
C2323 H2299 0.951 . S
C2323 C2324 1.366 . S
C2323 C2325 1.388 . S
C2324 C2323 1.366 . S
C2324 C2328 1.385 . S
C2325 H2300 0.951 . S
C2325 C2323 1.388 . S
C2325 C2326 1.366 . S
C2326 C2325 1.366 . S
C2326 C2327 1.414 . S
C2326 C2329 1.499 . S
C2327 H2301 0.950 . S
C2327 C2326 1.414 . S
C2327 C2328 1.374 . S
C2328 H2302 0.950 . S
C2328 C2324 1.385 . S
C2328 C2327 1.374 . S
C2329 C2326 1.499 . S
C2329 C2330 1.373 . S
C2329 C2331 1.389 . S
C2330 H2303 0.950 . S
C2330 C2316 1.377 . S
C2330 C2329 1.373 . S
C2331 C2315 1.377 . S
C2331 C2329 1.389 . S
C2331 C2332 1.524 . S
C2332 C2331 1.524 . S
C2332 C2333 1.397 . S
C2332 C2337 1.363 . S
C2333 H2304 0.950 . S
C2333 C2332 1.397 . S
C2333 C2334 1.334 . S
C2334 H2305 0.950 . S
C2334 C2333 1.334 . S
C2334 C2335 1.287 . S
C2335 C2334 1.287 . S
C2335 C2336 1.524 . S
C2335 H2338 0.999 . S
C2336 H2306 0.950 . S
C2336 C2335 1.524 . S
C2336 C2337 1.415 . S
C2337 H2307 0.950 . S
C2337 C2332 1.363 . S
C2337 C2336 1.415 . S
H2338 C2335 0.999 . S
H2339 C2320 0.913 . S
H2340 C2358 0.951 . S
H2341 C2360 0.951 . S
H2342 C2362 0.950 . S
H2343 C2363 0.950 . S
H2344 C2365 0.950 . S
H2345 C2368 0.950 . S
H2346 C2369 0.950 . S
H2347 C2371 0.950 . S
H2348 C2372 0.950 . S
H2349 C2373 0.951 . S
H2350 C2375 0.951 . S
H2351 C2377 0.950 . S
H2352 C2378 0.950 . S
H2353 C2380 0.950 . S
H2354 C2383 0.950 . S
H2355 C2384 0.950 . S
H2356 C2386 0.950 . S
H2357 C2387 0.950 . S
C2358 H2340 0.951 . S
C2358 C2359 1.366 . S
C2358 C2360 1.388 . S
C2359 C2358 1.366 . S
C2359 C2363 1.385 . S
C2360 H2341 0.951 . S
C2360 C2358 1.388 . S
C2360 C2361 1.366 . S
C2361 C2360 1.366 . S
C2361 C2362 1.414 . S
C2361 C2364 1.499 . S
C2362 H2342 0.950 . S
C2362 C2361 1.414 . S
C2362 C2363 1.374 . S
C2363 H2343 0.950 . S
C2363 C2359 1.385 . S
C2363 C2362 1.374 . S
C2364 C2361 1.499 . S
C2364 C2365 1.373 . S
C2364 C2366 1.389 . S
C2365 H2344 0.950 . S
C2365 C2364 1.373 . S
C2365 C2381 1.377 . S
C2366 C2364 1.389 . S
C2366 C2367 1.524 . S
C2366 C2380 1.377 . S
C2367 C2366 1.524 . S
C2367 C2368 1.397 . S
C2367 C2372 1.363 . S
C2368 H2345 0.950 . S
C2368 C2367 1.397 . S
C2368 C2369 1.334 . S
C2369 H2346 0.950 . S
C2369 C2368 1.334 . S
C2369 C2370 1.287 . S
C2370 C2369 1.287 . S
C2370 C2371 1.524 . S
C2370 H2389 0.913 . S
C2371 H2347 0.950 . S
C2371 C2370 1.524 . S
C2371 C2372 1.415 . S
C2372 H2348 0.950 . S
C2372 C2367 1.363 . S
C2372 C2371 1.415 . S
C2373 H2349 0.951 . S
C2373 C2374 1.366 . S
C2373 C2375 1.388 . S
C2374 C2373 1.366 . S
C2374 C2378 1.385 . S
C2375 H2350 0.951 . S
C2375 C2373 1.388 . S
C2375 C2376 1.366 . S
C2376 C2375 1.366 . S
C2376 C2377 1.414 . S
C2376 C2379 1.499 . S
C2377 H2351 0.950 . S
C2377 C2376 1.414 . S
C2377 C2378 1.374 . S
C2378 H2352 0.950 . S
C2378 C2374 1.385 . S
C2378 C2377 1.374 . S
C2379 C2376 1.499 . S
C2379 C2380 1.373 . S
C2379 C2381 1.389 . S
C2380 H2353 0.950 . S
C2380 C2366 1.377 . S
C2380 C2379 1.373 . S
C2381 C2365 1.377 . S
C2381 C2379 1.389 . S
C2381 C2382 1.524 . S
C2382 C2381 1.524 . S
C2382 C2383 1.397 . S
C2382 C2387 1.363 . S
C2383 H2354 0.950 . S
C2383 C2382 1.397 . S
C2383 C2384 1.334 . S
C2384 H2355 0.950 . S
C2384 C2383 1.334 . S
C2384 C2385 1.287 . S
C2385 C2384 1.287 . S
C2385 C2386 1.524 . S
C2385 H2388 0.999 . S
C2386 H2356 0.950 . S
C2386 C2385 1.524 . S
C2386 C2387 1.415 . S
C2387 H2357 0.950 . S
C2387 C2382 1.363 . S
C2387 C2386 1.415 . S
H2388 C2385 0.999 . S
H2389 C2370 0.913 . S
H2390 C2408 0.951 . S
H2391 C2410 0.951 . S
H2392 C2412 0.950 . S
H2393 C2413 0.950 . S
H2394 C2415 0.950 . S
H2395 C2418 0.950 . S
H2396 C2419 0.950 . S
H2397 C2421 0.950 . S
H2398 C2422 0.950 . S
H2399 C2423 0.951 . S
H2400 C2425 0.951 . S
H2401 C2427 0.950 . S
H2402 C2428 0.950 . S
H2403 C2430 0.950 . S
H2404 C2433 0.950 . S
H2405 C2434 0.950 . S
H2406 C2436 0.950 . S
H2407 C2437 0.950 . S
C2408 H2390 0.951 . S
C2408 C2409 1.366 1_554 S
C2408 C2410 1.388 . S
C2409 C2408 1.366 1_556 S
C2409 C2413 1.385 . S
C2410 H2391 0.951 . S
C2410 C2408 1.388 . S
C2410 C2411 1.366 . S
C2411 C2410 1.366 . S
C2411 C2412 1.414 . S
C2411 C2414 1.499 . S
C2412 H2392 0.950 . S
C2412 C2411 1.414 . S
C2412 C2413 1.374 1_554 S
C2413 H2393 0.950 . S
C2413 C2409 1.385 . S
C2413 C2412 1.374 1_556 S
C2414 C2411 1.499 . S
C2414 C2415 1.373 . S
C2414 C2416 1.389 . S
C2415 H2394 0.950 . S
C2415 C2414 1.373 . S
C2415 C2431 1.377 . S
C2416 C2414 1.389 . S
C2416 C2417 1.524 . S
C2416 C2430 1.377 . S
C2417 C2416 1.524 . S
C2417 C2418 1.397 . S
C2417 C2422 1.363 . S
C2418 H2395 0.950 . S
C2418 C2417 1.397 . S
C2418 C2419 1.334 . S
C2419 H2396 0.950 . S
C2419 C2418 1.334 . S
C2419 C2420 1.287 . S
C2420 C2419 1.287 . S
C2420 C2421 1.524 . S
C2420 H2439 0.913 . S
C2421 H2397 0.950 . S
C2421 C2420 1.524 . S
C2421 C2422 1.415 . S
C2422 H2398 0.950 . S
C2422 C2417 1.363 . S
C2422 C2421 1.415 . S
C2423 H2399 0.951 . S
C2423 C2424 1.366 . S
C2423 C2425 1.388 . S
C2424 C2423 1.366 . S
C2424 C2428 1.385 . S
C2425 H2400 0.951 . S
C2425 C2423 1.388 . S
C2425 C2426 1.366 . S
C2426 C2425 1.366 . S
C2426 C2427 1.414 . S
C2426 C2429 1.499 . S
C2427 H2401 0.950 . S
C2427 C2426 1.414 . S
C2427 C2428 1.374 . S
C2428 H2402 0.950 . S
C2428 C2424 1.385 . S
C2428 C2427 1.374 . S
C2429 C2426 1.499 . S
C2429 C2430 1.373 . S
C2429 C2431 1.389 . S
C2430 H2403 0.950 . S
C2430 C2416 1.377 . S
C2430 C2429 1.373 . S
C2431 C2415 1.377 . S
C2431 C2429 1.389 . S
C2431 C2432 1.524 . S
C2432 C2431 1.524 . S
C2432 C2433 1.397 . S
C2432 C2437 1.363 . S
C2433 H2404 0.950 . S
C2433 C2432 1.397 . S
C2433 C2434 1.334 . S
C2434 H2405 0.950 . S
C2434 C2433 1.334 . S
C2434 C2435 1.287 . S
C2435 C2434 1.287 . S
C2435 C2436 1.524 . S
C2435 H2438 0.999 . S
C2436 H2406 0.950 . S
C2436 C2435 1.524 . S
C2436 C2437 1.415 . S
C2437 H2407 0.950 . S
C2437 C2432 1.363 . S
C2437 C2436 1.415 . S
H2438 C2435 0.999 . S
H2439 C2420 0.913 . S
H2440 C2458 0.951 . S
H2441 C2460 0.951 . S
H2442 C2462 0.950 . S
H2443 C2463 0.950 . S
H2444 C2465 0.950 . S
H2445 C2468 0.950 . S
H2446 C2469 0.950 . S
H2447 C2471 0.950 . S
H2448 C2472 0.950 . S
H2449 C2473 0.951 . S
H2450 C2475 0.951 . S
H2451 C2477 0.950 . S
H2452 C2478 0.950 . S
H2453 C2480 0.950 . S
H2454 C2483 0.950 . S
H2455 C2484 0.950 . S
H2456 C2486 0.950 . S
H2457 C2487 0.950 . S
C2458 H2440 0.951 . S
C2458 C2459 1.366 . S
C2458 C2460 1.388 . S
C2459 C2458 1.366 . S
C2459 C2463 1.385 . S
C2460 H2441 0.951 . S
C2460 C2458 1.388 . S
C2460 C2461 1.366 . S
C2461 C2460 1.366 . S
C2461 C2462 1.414 . S
C2461 C2464 1.499 1_455 S
C2462 H2442 0.950 . S
C2462 C2461 1.414 . S
C2462 C2463 1.374 . S
C2463 H2443 0.950 . S
C2463 C2459 1.385 . S
C2463 C2462 1.374 . S
C2464 C2461 1.499 1_655 S
C2464 C2465 1.373 . S
C2464 C2466 1.375 1_655 S
C2465 H2444 0.950 . S
C2465 C2464 1.373 . S
C2465 C2481 1.377 . S
C2466 C2464 1.375 1_455 S
C2466 C2467 1.581 . S
C2466 C2480 1.338 1_455 S
C2467 C2466 1.581 . S
C2467 C2468 1.397 . S
C2467 C2472 1.363 . S
C2468 H2445 0.950 . S
C2468 C2467 1.397 . S
C2468 C2469 1.334 . S
C2469 H2446 0.950 . S
C2469 C2468 1.334 . S
C2469 C2470 1.287 . S
C2470 C2469 1.287 . S
C2470 C2471 1.524 . S
C2470 H2489 0.913 . S
C2471 H2447 0.950 . S
C2471 C2470 1.524 . S
C2471 C2472 1.415 . S
C2472 H2448 0.950 . S
C2472 C2467 1.363 . S
C2472 C2471 1.415 . S
C2473 H2449 0.951 . S
C2473 C2474 1.366 . S
C2473 C2475 1.388 . S
C2474 C2473 1.366 . S
C2474 C2478 1.385 . S
C2475 H2450 0.951 . S
C2475 C2473 1.388 . S
C2475 C2476 1.366 . S
C2476 C2475 1.366 . S
C2476 C2477 1.414 . S
C2476 C2479 1.499 . S
C2477 H2451 0.950 . S
C2477 C2476 1.414 . S
C2477 C2478 1.374 . S
C2478 H2452 0.950 . S
C2478 C2474 1.385 . S
C2478 C2477 1.374 . S
C2479 C2476 1.499 . S
C2479 C2480 1.373 . S
C2479 C2481 1.389 . S
C2480 H2453 0.950 . S
C2480 C2466 1.338 1_655 S
C2480 C2479 1.373 . S
C2481 C2465 1.377 . S
C2481 C2479 1.389 . S
C2481 C2482 1.524 . S
C2482 C2481 1.524 . S
C2482 C2483 1.397 . S
C2482 C2487 1.363 . S
C2483 H2454 0.950 . S
C2483 C2482 1.397 . S
C2483 C2484 1.334 . S
C2484 H2455 0.950 . S
C2484 C2483 1.334 . S
C2484 C2485 1.287 . S
C2485 C2484 1.287 . S
C2485 C2486 1.524 . S
C2485 H2488 0.999 . S
C2486 H2456 0.950 . S
C2486 C2485 1.524 . S
C2486 C2487 1.415 . S
C2487 H2457 0.950 . S
C2487 C2482 1.363 . S
C2487 C2486 1.415 . S
H2488 C2485 0.999 . S
H2489 C2470 0.913 . S
H2490 C2508 0.951 . S
H2491 C2510 0.951 . S
H2492 C2512 0.950 . S
H2493 C2513 0.950 . S
H2494 C2515 0.950 . S
H2495 C2518 0.950 . S
H2496 C2519 0.950 . S
H2497 C2521 0.950 . S
H2498 C2522 0.950 . S
H2499 C2523 0.951 . S
H2500 C2525 0.951 . S
H2501 C2527 0.950 . S
H2502 C2528 0.950 . S
H2503 C2530 0.950 . S
H2504 C2533 0.950 . S
H2505 C2534 0.950 . S
H2506 C2536 0.950 . S
H2507 C2537 0.950 . S
C2508 H2490 0.951 . S
C2508 C2509 1.366 . S
C2508 C2510 1.388 . S
C2509 C2508 1.366 . S
C2509 C2513 1.385 . S
C2510 H2491 0.951 . S
C2510 C2508 1.388 . S
C2510 C2511 1.366 . S
C2511 C2510 1.366 . S
C2511 C2512 1.414 . S
C2511 C2514 1.499 . S
C2512 H2492 0.950 . S
C2512 C2511 1.414 . S
C2512 C2513 1.374 . S
C2513 H2493 0.950 . S
C2513 C2509 1.385 . S
C2513 C2512 1.374 . S
C2514 C2511 1.499 . S
C2514 C2515 1.373 . S
C2514 C2516 1.389 . S
C2515 H2494 0.950 . S
C2515 C2514 1.373 . S
C2515 C2531 1.377 . S
C2516 C2514 1.389 . S
C2516 C2517 1.524 . S
C2516 C2530 1.377 . S
C2517 C2516 1.524 . S
C2517 C2518 1.397 . S
C2517 C2522 1.363 . S
C2518 H2495 0.950 . S
C2518 C2517 1.397 . S
C2518 C2519 1.334 . S
C2519 H2496 0.950 . S
C2519 C2518 1.334 . S
C2519 C2520 1.287 . S
C2520 C2519 1.287 . S
C2520 C2521 1.524 . S
C2520 H2539 0.913 . S
C2521 H2497 0.950 . S
C2521 C2520 1.524 . S
C2521 C2522 1.415 . S
C2522 H2498 0.950 . S
C2522 C2517 1.363 . S
C2522 C2521 1.415 . S
C2523 H2499 0.951 . S
C2523 C2524 1.366 . S
C2523 C2525 1.388 . S
C2524 C2523 1.366 . S
C2524 C2528 1.385 . S
C2525 H2500 0.951 . S
C2525 C2523 1.388 . S
C2525 C2526 1.366 . S
C2526 C2525 1.366 . S
C2526 C2527 1.414 . S
C2526 C2529 1.499 . S
C2527 H2501 0.950 . S
C2527 C2526 1.414 . S
C2527 C2528 1.374 . S
C2528 H2502 0.950 . S
C2528 C2524 1.385 . S
C2528 C2527 1.374 . S
C2529 C2526 1.499 . S
C2529 C2530 1.373 . S
C2529 C2531 1.389 . S
C2530 H2503 0.950 . S
C2530 C2516 1.377 . S
C2530 C2529 1.373 . S
C2531 C2515 1.377 . S
C2531 C2529 1.389 . S
C2531 C2532 1.524 . S
C2532 C2531 1.524 . S
C2532 C2533 1.397 . S
C2532 C2537 1.363 . S
C2533 H2504 0.950 . S
C2533 C2532 1.397 . S
C2533 C2534 1.334 . S
C2534 H2505 0.950 . S
C2534 C2533 1.334 . S
C2534 C2535 1.287 . S
C2535 C2534 1.287 . S
C2535 C2536 1.524 . S
C2535 H2538 0.999 . S
C2536 H2506 0.950 . S
C2536 C2535 1.524 . S
C2536 C2537 1.415 . S
C2537 H2507 0.950 . S
C2537 C2532 1.363 . S
C2537 C2536 1.415 . S
H2538 C2535 0.999 . S
H2539 C2520 0.913 . S
H2540 C2558 0.951 . S
H2541 C2560 0.951 . S
H2542 C2562 0.950 . S
H2543 C2563 0.950 . S
H2544 C2565 0.950 . S
H2545 C2568 0.950 . S
H2546 C2569 0.950 . S
H2547 C2571 0.950 . S
H2548 C2572 0.950 . S
H2549 C2573 0.951 . S
H2550 C2575 0.951 . S
H2551 C2577 0.950 . S
H2552 C2578 0.950 . S
H2553 C2580 0.950 . S
H2554 C2583 0.950 . S
H2555 C2584 0.950 . S
H2556 C2586 0.950 . S
H2557 C2587 0.950 . S
C2558 H2540 0.951 . S
C2558 C2559 1.366 . S
C2558 C2560 1.388 . S
C2559 C2558 1.366 . S
C2559 C2563 1.385 . S
C2560 H2541 0.951 . S
C2560 C2558 1.388 . S
C2560 C2561 1.366 . S
C2561 C2560 1.366 . S
C2561 C2562 1.414 . S
C2561 C2564 1.499 . S
C2562 H2542 0.950 . S
C2562 C2561 1.414 . S
C2562 C2563 1.374 . S
C2563 H2543 0.950 . S
C2563 C2559 1.385 . S
C2563 C2562 1.374 . S
C2564 C2561 1.499 . S
C2564 C2565 1.373 . S
C2564 C2566 1.389 . S
C2565 H2544 0.950 . S
C2565 C2564 1.373 . S
C2565 C2581 1.377 . S
C2566 C2564 1.389 . S
C2566 C2567 1.524 . S
C2566 C2580 1.377 . S
C2567 C2566 1.524 . S
C2567 C2568 1.397 . S
C2567 C2572 1.363 . S
C2568 H2545 0.950 . S
C2568 C2567 1.397 . S
C2568 C2569 1.334 . S
C2569 H2546 0.950 . S
C2569 C2568 1.334 . S
C2569 C2570 1.287 . S
C2570 C2569 1.287 . S
C2570 C2571 1.524 . S
C2570 H2589 0.913 . S
C2571 H2547 0.950 . S
C2571 C2570 1.524 . S
C2571 C2572 1.415 . S
C2572 H2548 0.950 . S
C2572 C2567 1.363 . S
C2572 C2571 1.415 . S
C2573 H2549 0.951 . S
C2573 C2574 1.366 . S
C2573 C2575 1.388 . S
C2574 C2573 1.366 . S
C2574 C2578 1.385 . S
C2575 H2550 0.951 . S
C2575 C2573 1.388 . S
C2575 C2576 1.366 . S
C2576 C2575 1.366 . S
C2576 C2577 1.414 . S
C2576 C2579 1.499 . S
C2577 H2551 0.950 . S
C2577 C2576 1.414 . S
C2577 C2578 1.374 . S
C2578 H2552 0.950 . S
C2578 C2574 1.385 . S
C2578 C2577 1.374 . S
C2579 C2576 1.499 . S
C2579 C2580 1.373 . S
C2579 C2581 1.389 . S
C2580 H2553 0.950 . S
C2580 C2566 1.377 . S
C2580 C2579 1.373 . S
C2581 C2565 1.377 . S
C2581 C2579 1.389 . S
C2581 C2582 1.524 . S
C2582 C2581 1.524 . S
C2582 C2583 1.397 . S
C2582 C2587 1.363 . S
C2583 H2554 0.950 . S
C2583 C2582 1.397 . S
C2583 C2584 1.334 . S
C2584 H2555 0.950 . S
C2584 C2583 1.334 . S
C2584 C2585 1.287 . S
C2585 C2584 1.287 . S
C2585 C2586 1.524 . S
C2585 H2588 0.999 . S
C2586 H2556 0.950 . S
C2586 C2585 1.524 . S
C2586 C2587 1.415 . S
C2587 H2557 0.950 . S
C2587 C2582 1.363 . S
C2587 C2586 1.415 . S
H2588 C2585 0.999 . S
H2589 C2570 0.913 . S
H2590 C2608 0.951 . S
H2591 C2610 0.951 . S
H2592 C2612 0.950 . S
H2593 C2613 0.950 . S
H2594 C2615 0.950 . S
H2595 C2618 0.950 . S
H2596 C2619 0.950 1_554 S
H2597 C2621 0.950 . S
H2598 C2622 0.950 . S
H2599 C2623 0.951 . S
H2600 C2625 0.951 . S
H2601 C2627 0.950 . S
H2602 C2628 0.950 . S
H2603 C2630 0.950 . S
H2604 C2633 0.950 . S
H2605 C2634 0.950 . S
H2606 C2636 0.950 . S
H2607 C2637 0.950 . S
C2608 H2590 0.951 . S
C2608 C2609 1.366 1_556 S
C2608 C2610 1.388 . S
C2609 C2608 1.366 1_554 S
C2609 C2613 1.385 . S
C2610 H2591 0.951 . S
C2610 C2608 1.388 . S
C2610 C2611 1.366 . S
C2611 C2610 1.366 . S
C2611 C2612 1.414 . S
C2611 C2614 1.499 . S
C2612 H2592 0.950 . S
C2612 C2611 1.414 . S
C2612 C2613 1.374 1_556 S
C2613 H2593 0.950 . S
C2613 C2609 1.385 . S
C2613 C2612 1.374 1_554 S
C2614 C2611 1.499 . S
C2614 C2615 1.373 . S
C2614 C2616 1.389 . S
C2615 H2594 0.950 . S
C2615 C2614 1.373 . S
C2615 C2631 1.377 . S
C2616 C2614 1.389 . S
C2616 C2617 1.524 . S
C2616 C2630 1.377 . S
C2617 C2616 1.524 . S
C2617 C2618 1.397 . S
C2617 C2622 1.363 . S
C2618 H2595 0.950 . S
C2618 C2617 1.397 . S
C2618 C2619 1.334 . S
C2619 H2596 0.950 1_556 S
C2619 C2618 1.334 . S
C2619 C2620 1.287 . S
C2620 C2619 1.287 . S
C2620 C2621 1.524 . S
C2620 H2639 0.913 . S
C2621 H2597 0.950 . S
C2621 C2620 1.524 . S
C2621 C2622 1.415 . S
C2622 H2598 0.950 . S
C2622 C2617 1.363 . S
C2622 C2621 1.415 . S
C2623 H2599 0.951 . S
C2623 C2624 1.366 . S
C2623 C2625 1.388 . S
C2624 C2623 1.366 . S
C2624 C2628 1.385 . S
C2625 H2600 0.951 . S
C2625 C2623 1.388 . S
C2625 C2626 1.366 . S
C2626 C2625 1.366 . S
C2626 C2627 1.414 . S
C2626 C2629 1.499 . S
C2627 H2601 0.950 . S
C2627 C2626 1.414 . S
C2627 C2628 1.374 . S
C2628 H2602 0.950 . S
C2628 C2624 1.385 . S
C2628 C2627 1.374 . S
C2629 C2626 1.499 . S
C2629 C2630 1.373 . S
C2629 C2631 1.389 . S
C2630 H2603 0.950 . S
C2630 C2616 1.377 . S
C2630 C2629 1.373 . S
C2631 C2615 1.377 . S
C2631 C2629 1.389 . S
C2631 C2632 1.524 . S
C2632 C2631 1.524 . S
C2632 C2633 1.397 . S
C2632 C2637 1.363 . S
C2633 H2604 0.950 . S
C2633 C2632 1.397 . S
C2633 C2634 1.334 . S
C2634 H2605 0.950 . S
C2634 C2633 1.334 . S
C2634 C2635 1.287 . S
C2635 C2634 1.287 . S
C2635 C2636 1.524 . S
C2635 H2638 0.999 . S
C2636 H2606 0.950 . S
C2636 C2635 1.524 . S
C2636 C2637 1.415 . S
C2637 H2607 0.950 . S
C2637 C2632 1.363 . S
C2637 C2636 1.415 . S
H2638 C2635 0.999 . S
H2639 C2620 0.913 . S
H2640 C2658 0.951 . S
H2641 C2660 0.951 . S
H2642 C2662 0.950 . S
H2643 C2663 0.950 . S
H2644 C2665 0.950 . S
H2645 C2668 0.950 . S
H2646 C2669 0.950 . S
H2647 C2671 0.950 . S
H2648 C2672 0.950 . S
H2649 C2673 0.951 . S
H2650 C2675 0.951 . S
H2651 C2677 0.950 . S
H2652 C2678 0.950 . S
H2653 C2680 0.950 . S
H2654 C2683 0.950 . S
H2655 C2684 0.950 . S
H2656 C2686 0.950 . S
H2657 C2687 0.950 . S
C2658 H2640 0.951 . S
C2658 C2659 1.366 . S
C2658 C2660 1.388 . S
C2659 C2658 1.366 . S
C2659 C2663 1.385 . S
C2660 H2641 0.951 . S
C2660 C2658 1.388 . S
C2660 C2661 1.366 . S
C2661 C2660 1.366 . S
C2661 C2662 1.414 . S
C2661 C2664 1.499 . S
C2662 H2642 0.950 . S
C2662 C2661 1.414 . S
C2662 C2663 1.374 . S
C2663 H2643 0.950 . S
C2663 C2659 1.385 . S
C2663 C2662 1.374 . S
C2664 C2661 1.499 . S
C2664 C2665 1.373 . S
C2664 C2666 1.389 . S
C2665 H2644 0.950 . S
C2665 C2664 1.373 . S
C2665 C2681 1.377 . S
C2666 C2664 1.389 . S
C2666 C2667 1.524 . S
C2666 C2680 1.377 . S
C2667 C2666 1.524 . S
C2667 C2668 1.397 . S
C2667 C2672 1.363 . S
C2668 H2645 0.950 . S
C2668 C2667 1.397 . S
C2668 C2669 1.334 . S
C2669 H2646 0.950 . S
C2669 C2668 1.334 . S
C2669 C2670 1.287 . S
C2670 C2669 1.287 . S
C2670 C2671 1.524 . S
C2670 H2689 0.913 . S
C2671 H2647 0.950 . S
C2671 C2670 1.524 . S
C2671 C2672 1.415 . S
C2672 H2648 0.950 . S
C2672 C2667 1.363 . S
C2672 C2671 1.415 . S
C2673 H2649 0.951 . S
C2673 C2674 1.366 . S
C2673 C2675 1.388 . S
C2674 C2673 1.366 . S
C2674 C2678 1.385 . S
C2675 H2650 0.951 . S
C2675 C2673 1.388 . S
C2675 C2676 1.366 . S
C2676 C2675 1.366 . S
C2676 C2677 1.414 . S
C2676 C2679 1.499 . S
C2677 H2651 0.950 . S
C2677 C2676 1.414 . S
C2677 C2678 1.374 . S
C2678 H2652 0.950 . S
C2678 C2674 1.385 . S
C2678 C2677 1.374 . S
C2679 C2676 1.499 . S
C2679 C2680 1.373 . S
C2679 C2681 1.389 . S
C2680 H2653 0.950 . S
C2680 C2666 1.377 . S
C2680 C2679 1.373 . S
C2681 C2665 1.377 . S
C2681 C2679 1.389 . S
C2681 C2682 1.524 . S
C2682 C2681 1.524 . S
C2682 C2683 1.397 . S
C2682 C2687 1.363 . S
C2683 H2654 0.950 . S
C2683 C2682 1.397 . S
C2683 C2684 1.334 . S
C2684 H2655 0.950 . S
C2684 C2683 1.334 . S
C2684 C2685 1.287 . S
C2685 C2684 1.287 . S
C2685 C2686 1.524 . S
C2685 H2688 0.999 . S
C2686 H2656 0.950 . S
C2686 C2685 1.524 . S
C2686 C2687 1.415 . S
C2687 H2657 0.950 . S
C2687 C2682 1.363 . S
C2687 C2686 1.415 . S
H2688 C2685 0.999 . S
H2689 C2670 0.913 . S
H2690 C2708 0.951 . S
H2691 C2710 0.951 . S
H2692 C2712 0.950 . S
H2693 C2713 0.950 . S
H2694 C2715 0.950 . S
H2695 C2718 0.950 . S
H2696 C2719 0.950 . S
H2697 C2721 0.950 . S
H2698 C2722 0.950 . S
H2699 C2723 0.951 . S
H2700 C2725 0.951 . S
H2701 C2727 0.950 . S
H2702 C2728 0.950 . S
H2703 C2730 0.950 . S
H2704 C2733 0.950 . S
H2705 C2734 0.950 . S
H2706 C2736 0.950 . S
H2707 C2737 0.950 . S
C2708 H2690 0.951 . S
C2708 C2709 1.366 . S
C2708 C2710 1.388 . S
C2709 C2708 1.366 . S
C2709 C2713 1.385 . S
C2710 H2691 0.951 . S
C2710 C2708 1.388 . S
C2710 C2711 1.366 . S
C2711 C2710 1.366 . S
C2711 C2712 1.414 . S
C2711 C2714 1.499 . S
C2712 H2692 0.950 . S
C2712 C2711 1.414 . S
C2712 C2713 1.374 . S
C2713 H2693 0.950 . S
C2713 C2709 1.385 . S
C2713 C2712 1.374 . S
C2714 C2711 1.499 . S
C2714 C2715 1.373 . S
C2714 C2716 1.389 . S
C2715 H2694 0.950 . S
C2715 C2714 1.373 . S
C2715 C2731 1.377 . S
C2716 C2714 1.389 . S
C2716 C2717 1.524 . S
C2716 C2730 1.377 . S
C2717 C2716 1.524 . S
C2717 C2718 1.397 . S
C2717 C2722 1.363 . S
C2718 H2695 0.950 . S
C2718 C2717 1.397 . S
C2718 C2719 1.334 . S
C2719 H2696 0.950 . S
C2719 C2718 1.334 . S
C2719 C2720 1.287 . S
C2720 C2719 1.287 . S
C2720 C2721 1.524 . S
C2720 H2739 0.913 . S
C2721 H2697 0.950 . S
C2721 C2720 1.524 . S
C2721 C2722 1.415 . S
C2722 H2698 0.950 . S
C2722 C2717 1.363 . S
C2722 C2721 1.415 . S
C2723 H2699 0.951 . S
C2723 C2724 1.366 . S
C2723 C2725 1.388 . S
C2724 C2723 1.366 . S
C2724 C2728 1.385 . S
C2725 H2700 0.951 . S
C2725 C2723 1.388 . S
C2725 C2726 1.366 . S
C2726 C2725 1.366 . S
C2726 C2727 1.414 . S
C2726 C2729 1.499 . S
C2727 H2701 0.950 . S
C2727 C2726 1.414 . S
C2727 C2728 1.374 . S
C2728 H2702 0.950 . S
C2728 C2724 1.385 . S
C2728 C2727 1.374 . S
C2729 C2726 1.499 . S
C2729 C2730 1.373 . S
C2729 C2731 1.389 . S
C2730 H2703 0.950 . S
C2730 C2716 1.377 . S
C2730 C2729 1.373 . S
C2731 C2715 1.377 . S
C2731 C2729 1.389 . S
C2731 C2732 1.524 . S
C2732 C2731 1.524 . S
C2732 C2733 1.397 . S
C2732 C2737 1.363 . S
C2733 H2704 0.950 . S
C2733 C2732 1.397 . S
C2733 C2734 1.334 . S
C2734 H2705 0.950 . S
C2734 C2733 1.334 . S
C2734 C2735 1.287 . S
C2735 C2734 1.287 . S
C2735 C2736 1.524 . S
C2735 H2738 0.999 . S
C2736 H2706 0.950 . S
C2736 C2735 1.524 . S
C2736 C2737 1.415 . S
C2737 H2707 0.950 . S
C2737 C2732 1.363 . S
C2737 C2736 1.415 . S
H2738 C2735 0.999 . S
H2739 C2720 0.913 . S
H2740 C2758 0.951 . S
H2741 C2760 0.951 . S
H2742 C2762 0.950 . S
H2743 C2763 0.950 . S
H2744 C2765 0.950 . S
H2745 C2768 0.950 . S
H2746 C2769 0.950 . S
H2747 C2771 0.950 . S
H2748 C2772 0.950 . S
H2749 C2773 0.951 . S
H2750 C2775 0.951 . S
H2751 C2777 0.950 . S
H2752 C2778 0.950 . S
H2753 C2780 0.950 . S
H2754 C2783 0.950 . S
H2755 C2784 0.950 . S
H2756 C2786 0.950 . S
H2757 C2787 0.950 . S
C2758 H2740 0.951 . S
C2758 C2759 1.366 . S
C2758 C2760 1.388 . S
C2759 C2758 1.366 . S
C2759 C2763 1.385 . S
C2760 H2741 0.951 . S
C2760 C2758 1.388 . S
C2760 C2761 1.366 . S
C2761 C2760 1.366 . S
C2761 C2762 1.414 . S
C2761 C2764 1.499 . S
C2762 H2742 0.950 . S
C2762 C2761 1.414 . S
C2762 C2763 1.374 . S
C2763 H2743 0.950 . S
C2763 C2759 1.385 . S
C2763 C2762 1.374 . S
C2764 C2761 1.499 . S
C2764 C2765 1.373 . S
C2764 C2766 1.389 . S
C2765 H2744 0.950 . S
C2765 C2764 1.373 . S
C2765 C2781 1.377 . S
C2766 C2764 1.389 . S
C2766 C2767 1.524 . S
C2766 C2780 1.377 . S
C2767 C2766 1.524 . S
C2767 C2768 1.397 . S
C2767 C2772 1.363 . S
C2768 H2745 0.950 . S
C2768 C2767 1.397 . S
C2768 C2769 1.334 . S
C2769 H2746 0.950 . S
C2769 C2768 1.334 . S
C2769 C2770 1.287 . S
C2770 C2769 1.287 . S
C2770 C2771 1.524 . S
C2770 H2789 0.913 . S
C2771 H2747 0.950 . S
C2771 C2770 1.524 . S
C2771 C2772 1.415 . S
C2772 H2748 0.950 . S
C2772 C2767 1.363 . S
C2772 C2771 1.415 . S
C2773 H2749 0.951 . S
C2773 C2774 1.366 . S
C2773 C2775 1.388 . S
C2774 C2773 1.366 . S
C2774 C2778 1.385 . S
C2775 H2750 0.951 . S
C2775 C2773 1.388 . S
C2775 C2776 1.366 . S
C2776 C2775 1.366 . S
C2776 C2777 1.414 . S
C2776 C2779 1.499 . S
C2777 H2751 0.950 . S
C2777 C2776 1.414 . S
C2777 C2778 1.374 . S
C2778 H2752 0.950 . S
C2778 C2774 1.385 . S
C2778 C2777 1.374 . S
C2779 C2776 1.499 . S
C2779 C2780 1.373 . S
C2779 C2781 1.389 . S
C2780 H2753 0.950 . S
C2780 C2766 1.377 . S
C2780 C2779 1.373 . S
C2781 C2765 1.377 . S
C2781 C2779 1.389 . S
C2781 C2782 1.524 . S
C2782 C2781 1.524 . S
C2782 C2783 1.397 . S
C2782 C2787 1.363 . S
C2783 H2754 0.950 . S
C2783 C2782 1.397 . S
C2783 C2784 1.334 . S
C2784 H2755 0.950 . S
C2784 C2783 1.334 . S
C2784 C2785 1.287 . S
C2785 C2784 1.287 . S
C2785 C2786 1.524 . S
C2785 H2788 0.999 . S
C2786 H2756 0.950 . S
C2786 C2785 1.524 . S
C2786 C2787 1.415 . S
C2787 H2757 0.950 . S
C2787 C2782 1.363 . S
C2787 C2786 1.415 . S
H2788 C2785 0.999 . S
H2789 C2770 0.913 . S
H2790 C2808 0.951 . S
H2791 C2810 0.951 . S
H2792 C2812 0.950 . S
H2793 C2813 0.950 . S
H2794 C2815 0.950 . S
H2795 C2818 0.950 1_455 S
H2796 C2819 0.950 . S
H2797 C2821 0.950 . S
H2798 C2822 0.950 . S
H2799 C2823 0.951 . S
H2800 C2825 0.951 . S
H2801 C2827 0.950 . S
H2802 C2828 0.950 . S
H2803 C2830 0.950 . S
H2804 C2833 0.950 1_655 S
H2805 C2834 0.950 . S
H2806 C2836 0.950 . S
H2807 C2837 0.950 . S
C2808 H2790 0.951 . S
C2808 C2809 1.366 . S
C2808 C2810 1.388 . S
C2809 C2808 1.366 . S
C2809 C2813 1.385 . S
C2810 H2791 0.951 . S
C2810 C2808 1.388 . S
C2810 C2811 1.366 . S
C2811 C2810 1.366 . S
C2811 C2812 1.414 . S
C2811 C2814 1.499 . S
C2812 H2792 0.950 . S
C2812 C2811 1.414 . S
C2812 C2813 1.374 . S
C2813 H2793 0.950 . S
C2813 C2809 1.385 . S
C2813 C2812 1.374 . S
C2814 C2811 1.499 . S
C2814 C2815 1.373 1_554 S
C2814 C2816 1.389 1_455 S
C2815 H2794 0.950 . S
C2815 C2814 1.373 1_556 S
C2815 C2831 1.377 . S
C2816 C2814 1.389 1_655 S
C2816 C2817 1.524 . S
C2816 C2830 1.377 . S
C2817 C2816 1.524 . S
C2817 C2818 1.397 . S
C2817 C2822 1.363 . S
C2818 H2795 0.950 1_655 S
C2818 C2817 1.397 . S
C2818 C2819 1.334 . S
C2819 H2796 0.950 . S
C2819 C2818 1.334 . S
C2819 C2820 1.287 . S
C2820 C2819 1.287 . S
C2820 C2821 1.524 . S
C2820 H2839 0.913 . S
C2821 H2797 0.950 . S
C2821 C2820 1.524 . S
C2821 C2822 1.415 . S
C2822 H2798 0.950 . S
C2822 C2817 1.363 . S
C2822 C2821 1.415 . S
C2823 H2799 0.951 . S
C2823 C2824 1.366 . S
C2823 C2825 1.388 . S
C2824 C2823 1.366 . S
C2824 C2828 1.385 . S
C2825 H2800 0.951 . S
C2825 C2823 1.388 . S
C2825 C2826 1.366 . S
C2826 C2825 1.366 . S
C2826 C2827 1.414 . S
C2826 C2829 1.499 . S
C2827 H2801 0.950 . S
C2827 C2826 1.414 . S
C2827 C2828 1.374 . S
C2828 H2802 0.950 . S
C2828 C2824 1.385 . S
C2828 C2827 1.374 . S
C2829 C2826 1.499 . S
C2829 C2830 1.373 1_556 S
C2829 C2831 1.389 1_655 S
C2830 H2803 0.950 . S
C2830 C2816 1.377 . S
C2830 C2829 1.373 1_554 S
C2831 C2815 1.377 . S
C2831 C2829 1.389 1_455 S
C2831 C2832 1.524 . S
C2832 C2831 1.524 . S
C2832 C2833 1.397 . S
C2832 C2837 1.363 . S
C2833 H2804 0.950 1_455 S
C2833 C2832 1.397 . S
C2833 C2834 1.334 . S
C2834 H2805 0.950 . S
C2834 C2833 1.334 . S
C2834 C2835 1.287 . S
C2835 C2834 1.287 . S
C2835 C2836 1.524 . S
C2835 H2838 0.999 . S
C2836 H2806 0.950 . S
C2836 C2835 1.524 . S
C2836 C2837 1.415 . S
C2837 H2807 0.950 . S
C2837 C2832 1.363 . S
C2837 C2836 1.415 . S
H2838 C2835 0.999 . S
H2839 C2820 0.913 . S
H2840 C2858 0.951 . S
H2841 C2860 0.951 . S
H2842 C2862 0.950 . S
H2843 C2863 0.950 . S
H2844 C2865 0.950 . S
H2845 C2868 0.950 . S
H2846 C2869 0.950 . S
H2847 C2871 0.950 . S
H2848 C2872 0.950 . S
H2849 C2873 0.951 . S
H2850 C2875 0.951 . S
H2851 C2877 0.950 . S
H2852 C2878 0.950 . S
H2853 C2880 0.950 . S
H2854 C2883 0.950 . S
H2855 C2884 0.950 . S
H2856 C2886 0.950 . S
H2857 C2887 0.950 . S
C2858 H2840 0.951 . S
C2858 C2859 1.366 . S
C2858 C2860 1.388 . S
C2859 C2858 1.366 . S
C2859 C2863 1.385 . S
C2860 H2841 0.951 . S
C2860 C2858 1.388 . S
C2860 C2861 1.366 . S
C2861 C2860 1.366 . S
C2861 C2862 1.414 . S
C2861 C2864 1.499 . S
C2862 H2842 0.950 . S
C2862 C2861 1.414 . S
C2862 C2863 1.374 . S
C2863 H2843 0.950 . S
C2863 C2859 1.385 . S
C2863 C2862 1.374 . S
C2864 C2861 1.499 . S
C2864 C2865 1.373 . S
C2864 C2866 1.389 . S
C2865 H2844 0.950 . S
C2865 C2864 1.373 . S
C2865 C2881 1.377 . S
C2866 C2864 1.389 . S
C2866 C2867 1.524 . S
C2866 C2880 1.377 . S
C2867 C2866 1.524 . S
C2867 C2868 1.397 . S
C2867 C2872 1.363 . S
C2868 H2845 0.950 . S
C2868 C2867 1.397 . S
C2868 C2869 1.334 . S
C2869 H2846 0.950 . S
C2869 C2868 1.334 . S
C2869 C2870 1.287 . S
C2870 C2869 1.287 . S
C2870 C2871 1.524 . S
C2870 H2889 0.913 . S
C2871 H2847 0.950 . S
C2871 C2870 1.524 . S
C2871 C2872 1.415 . S
C2872 H2848 0.950 . S
C2872 C2867 1.363 . S
C2872 C2871 1.415 . S
C2873 H2849 0.951 . S
C2873 C2874 1.366 . S
C2873 C2875 1.388 . S
C2874 C2873 1.366 . S
C2874 C2878 1.385 . S
C2875 H2850 0.951 . S
C2875 C2873 1.388 . S
C2875 C2876 1.366 . S
C2876 C2875 1.366 . S
C2876 C2877 1.414 . S
C2876 C2879 1.499 . S
C2877 H2851 0.950 . S
C2877 C2876 1.414 . S
C2877 C2878 1.374 . S
C2878 H2852 0.950 . S
C2878 C2874 1.385 . S
C2878 C2877 1.374 . S
C2879 C2876 1.499 . S
C2879 C2880 1.373 . S
C2879 C2881 1.389 . S
C2880 H2853 0.950 . S
C2880 C2866 1.377 . S
C2880 C2879 1.373 . S
C2881 C2865 1.377 . S
C2881 C2879 1.389 . S
C2881 C2882 1.524 . S
C2882 C2881 1.524 . S
C2882 C2883 1.397 . S
C2882 C2887 1.363 . S
C2883 H2854 0.950 . S
C2883 C2882 1.397 . S
C2883 C2884 1.334 . S
C2884 H2855 0.950 . S
C2884 C2883 1.334 . S
C2884 C2885 1.287 . S
C2885 C2884 1.287 . S
C2885 C2886 1.524 . S
C2885 H2888 0.999 . S
C2886 H2856 0.950 . S
C2886 C2885 1.524 . S
C2886 C2887 1.415 . S
C2887 H2857 0.950 . S
C2887 C2882 1.363 . S
C2887 C2886 1.415 . S
H2888 C2885 0.999 . S
H2889 C2870 0.913 . S
H2890 C2908 0.951 . S
H2891 C2910 0.951 . S
H2892 C2912 0.950 . S
H2893 C2913 0.950 . S
H2894 C2915 0.950 . S
H2895 C2918 0.950 . S
H2896 C2919 0.950 . S
H2897 C2921 0.950 . S
H2898 C2922 0.950 . S
H2899 C2923 0.951 . S
H2900 C2925 0.951 . S
H2901 C2927 0.950 . S
H2902 C2928 0.950 . S
H2903 C2930 0.950 . S
H2904 C2933 0.950 . S
H2905 C2934 0.950 . S
H2906 C2936 0.950 . S
H2907 C2937 0.950 . S
C2908 H2890 0.951 . S
C2908 C2909 1.366 . S
C2908 C2910 1.388 . S
C2909 C2908 1.366 . S
C2909 C2913 1.385 . S
C2910 H2891 0.951 . S
C2910 C2908 1.388 . S
C2910 C2911 1.366 . S
C2911 C2910 1.366 . S
C2911 C2912 1.414 . S
C2911 C2914 1.499 . S
C2912 H2892 0.950 . S
C2912 C2911 1.414 . S
C2912 C2913 1.374 . S
C2913 H2893 0.950 . S
C2913 C2909 1.385 . S
C2913 C2912 1.374 . S
C2914 C2911 1.499 . S
C2914 C2915 1.373 . S
C2914 C2916 1.389 . S
C2915 H2894 0.950 . S
C2915 C2914 1.373 . S
C2915 C2931 1.377 . S
C2916 C2914 1.389 . S
C2916 C2917 1.524 . S
C2916 C2930 1.377 . S
C2917 C2916 1.524 . S
C2917 C2918 1.397 . S
C2917 C2922 1.363 . S
C2918 H2895 0.950 . S
C2918 C2917 1.397 . S
C2918 C2919 1.334 . S
C2919 H2896 0.950 . S
C2919 C2918 1.334 . S
C2919 C2920 1.287 . S
C2920 C2919 1.287 . S
C2920 C2921 1.524 . S
C2920 H2939 0.913 . S
C2921 H2897 0.950 . S
C2921 C2920 1.524 . S
C2921 C2922 1.415 . S
C2922 H2898 0.950 . S
C2922 C2917 1.363 . S
C2922 C2921 1.415 . S
C2923 H2899 0.951 . S
C2923 C2924 1.366 . S
C2923 C2925 1.388 . S
C2924 C2923 1.366 . S
C2924 C2928 1.385 . S
C2925 H2900 0.951 . S
C2925 C2923 1.388 . S
C2925 C2926 1.366 . S
C2926 C2925 1.366 . S
C2926 C2927 1.414 . S
C2926 C2929 1.499 . S
C2927 H2901 0.950 . S
C2927 C2926 1.414 . S
C2927 C2928 1.374 . S
C2928 H2902 0.950 . S
C2928 C2924 1.385 . S
C2928 C2927 1.374 . S
C2929 C2926 1.499 . S
C2929 C2930 1.373 . S
C2929 C2931 1.389 . S
C2930 H2903 0.950 . S
C2930 C2916 1.377 . S
C2930 C2929 1.373 . S
C2931 C2915 1.377 . S
C2931 C2929 1.389 . S
C2931 C2932 1.524 . S
C2932 C2931 1.524 . S
C2932 C2933 1.397 . S
C2932 C2937 1.363 . S
C2933 H2904 0.950 . S
C2933 C2932 1.397 . S
C2933 C2934 1.334 . S
C2934 H2905 0.950 . S
C2934 C2933 1.334 . S
C2934 C2935 1.287 . S
C2935 C2934 1.287 . S
C2935 C2936 1.524 . S
C2935 H2938 0.999 . S
C2936 H2906 0.950 . S
C2936 C2935 1.524 . S
C2936 C2937 1.415 . S
C2937 H2907 0.950 . S
C2937 C2932 1.363 . S
C2937 C2936 1.415 . S
H2938 C2935 0.999 . S
H2939 C2920 0.913 . S
H2940 C2958 0.951 . S
H2941 C2960 0.951 1_565 S
H2942 C2962 0.950 . S
H2943 C2963 0.950 . S
H2944 C2965 0.950 . S
H2945 C2968 0.950 . S
H2946 C2969 0.950 . S
H2947 C2971 0.950 . S
H2948 C2972 0.950 1_554 S
H2949 C2973 0.951 . S
H2950 C2975 0.951 1_545 S
H2951 C2977 0.950 . S
H2952 C2978 0.950 . S
H2953 C2980 0.950 . S
H2954 C2983 0.950 . S
H2955 C2984 0.950 . S
H2956 C2986 0.950 . S
H2957 C2987 0.950 1_556 S
C2958 H2940 0.951 . S
C2958 C2959 1.366 . S
C2958 C2960 1.388 . S
C2959 C2958 1.366 . S
C2959 C2963 1.385 . S
C2960 H2941 0.951 1_545 S
C2960 C2958 1.388 . S
C2960 C2961 1.366 . S
C2961 C2960 1.366 . S
C2961 C2962 1.414 . S
C2961 C2964 1.499 . S
C2962 H2942 0.950 . S
C2962 C2961 1.414 . S
C2962 C2963 1.374 . S
C2963 H2943 0.950 . S
C2963 C2959 1.385 . S
C2963 C2962 1.374 . S
C2964 C2961 1.499 . S
C2964 C2965 1.373 . S
C2964 C2966 1.389 1_545 S
C2965 H2944 0.950 . S
C2965 C2964 1.373 . S
C2965 C2981 1.377 1_456 S
C2966 C2964 1.389 1_565 S
C2966 C2967 1.524 . S
C2966 C2980 1.377 1_456 S
C2967 C2966 1.524 . S
C2967 C2968 1.397 . S
C2967 C2972 1.363 . S
C2968 H2945 0.950 . S
C2968 C2967 1.397 . S
C2968 C2969 1.334 . S
C2969 H2946 0.950 . S
C2969 C2968 1.334 . S
C2969 C2970 1.287 . S
C2970 C2969 1.287 . S
C2970 C2971 1.524 . S
C2970 H2989 0.913 . S
C2971 H2947 0.950 . S
C2971 C2970 1.524 . S
C2971 C2972 1.415 . S
C2972 H2948 0.950 1_556 S
C2972 C2967 1.363 . S
C2972 C2971 1.415 . S
C2973 H2949 0.951 . S
C2973 C2974 1.366 . S
C2973 C2975 1.388 . S
C2974 C2973 1.366 . S
C2974 C2978 1.385 . S
C2975 H2950 0.951 1_565 S
C2975 C2973 1.388 . S
C2975 C2976 1.366 . S
C2976 C2975 1.366 . S
C2976 C2977 1.414 . S
C2976 C2979 1.499 . S
C2977 H2951 0.950 . S
C2977 C2976 1.414 . S
C2977 C2978 1.374 . S
C2978 H2952 0.950 . S
C2978 C2974 1.385 . S
C2978 C2977 1.374 . S
C2979 C2976 1.499 . S
C2979 C2980 1.373 . S
C2979 C2981 1.389 1_565 S
C2980 H2953 0.950 . S
C2980 C2966 1.377 1_654 S
C2980 C2979 1.373 . S
C2981 C2965 1.377 1_654 S
C2981 C2979 1.389 1_545 S
C2981 C2982 1.524 . S
C2982 C2981 1.524 . S
C2982 C2983 1.397 . S
C2982 C2987 1.363 . S
C2983 H2954 0.950 . S
C2983 C2982 1.397 . S
C2983 C2984 1.334 . S
C2984 H2955 0.950 . S
C2984 C2983 1.334 . S
C2984 C2985 1.287 . S
C2985 C2984 1.287 . S
C2985 C2986 1.524 . S
C2985 H2988 0.999 . S
C2986 H2956 0.950 . S
C2986 C2985 1.524 . S
C2986 C2987 1.415 . S
C2987 H2957 0.950 1_554 S
C2987 C2982 1.363 . S
C2987 C2986 1.415 . S
H2988 C2985 0.999 . S
H2989 C2970 0.913 . S
H2990 C3008 0.951 . S
H2991 C3010 0.951 1_565 S
H2992 C3012 0.950 . S
H2993 C3013 0.950 . S
H2994 C3015 0.950 . S
H2995 C3018 0.950 . S
H2996 C3019 0.950 . S
H2997 C3021 0.950 . S
H2998 C3022 0.950 . S
H2999 C3023 0.951 . S
H3000 C3025 0.951 1_545 S
H3001 C3027 0.950 . S
H3002 C3028 0.950 . S
H3003 C3030 0.950 . S
H3004 C3033 0.950 . S
H3005 C3034 0.950 . S
H3006 C3036 0.950 . S
H3007 C3037 0.950 . S
C3008 H2990 0.951 . S
C3008 C3009 1.366 . S
C3008 C3010 1.388 . S
C3009 C3008 1.366 . S
C3009 C3013 1.385 . S
C3010 H2991 0.951 1_545 S
C3010 C3008 1.388 . S
C3010 C3011 1.366 . S
C3011 C3010 1.366 . S
C3011 C3012 1.414 . S
C3011 C3014 1.499 . S
C3012 H2992 0.950 . S
C3012 C3011 1.414 . S
C3012 C3013 1.374 . S
C3013 H2993 0.950 . S
C3013 C3009 1.385 . S
C3013 C3012 1.374 . S
C3014 C3011 1.499 . S
C3014 C3015 1.373 . S
C3014 C3016 1.389 1_545 S
C3015 H2994 0.950 . S
C3015 C3014 1.373 . S
C3015 C3031 1.377 . S
C3016 C3014 1.389 1_565 S
C3016 C3017 1.524 . S
C3016 C3030 1.377 . S
C3017 C3016 1.524 . S
C3017 C3018 1.397 . S
C3017 C3022 1.363 . S
C3018 H2995 0.950 . S
C3018 C3017 1.397 . S
C3018 C3019 1.334 . S
C3019 H2996 0.950 . S
C3019 C3018 1.334 . S
C3019 C3020 1.287 . S
C3020 C3019 1.287 . S
C3020 C3021 1.524 . S
C3020 H3039 0.913 . S
C3021 H2997 0.950 . S
C3021 C3020 1.524 . S
C3021 C3022 1.415 . S
C3022 H2998 0.950 . S
C3022 C3017 1.363 . S
C3022 C3021 1.415 . S
C3023 H2999 0.951 . S
C3023 C3024 1.366 . S
C3023 C3025 1.388 . S
C3024 C3023 1.366 . S
C3024 C3028 1.385 . S
C3025 H3000 0.951 1_565 S
C3025 C3023 1.388 . S
C3025 C3026 1.366 . S
C3026 C3025 1.366 . S
C3026 C3027 1.414 . S
C3026 C3029 1.499 . S
C3027 H3001 0.950 . S
C3027 C3026 1.414 . S
C3027 C3028 1.374 . S
C3028 H3002 0.950 . S
C3028 C3024 1.385 . S
C3028 C3027 1.374 . S
C3029 C3026 1.499 . S
C3029 C3030 1.373 . S
C3029 C3031 1.389 1_565 S
C3030 H3003 0.950 . S
C3030 C3016 1.377 . S
C3030 C3029 1.373 . S
C3031 C3015 1.377 . S
C3031 C3029 1.389 1_545 S
C3031 C3032 1.524 . S
C3032 C3031 1.524 . S
C3032 C3033 1.397 . S
C3032 C3037 1.363 . S
C3033 H3004 0.950 . S
C3033 C3032 1.397 . S
C3033 C3034 1.334 . S
C3034 H3005 0.950 . S
C3034 C3033 1.334 . S
C3034 C3035 1.287 . S
C3035 C3034 1.287 . S
C3035 C3036 1.524 . S
C3035 H3038 0.999 . S
C3036 H3006 0.950 . S
C3036 C3035 1.524 . S
C3036 C3037 1.415 . S
C3037 H3007 0.950 . S
C3037 C3032 1.363 . S
C3037 C3036 1.415 . S
H3038 C3035 0.999 . S
H3039 C3020 0.913 . S
C659 C31 2.891 . S
C674 C431 2.891 . S
C709 C71 2.891 . S
C724 C471 2.891 . S
C759 C111 2.891 . S
C774 C351 2.891 . S
C809 C151 2.891 . S
C824 C391 2.891 . S
C859 C172 2.891 . S
C874 C572 2.891 . S
C909 C212 2.891 . S
C924 C612 2.891 . S
C959 C252 2.891 . S
C974 C492 2.891 . S
C1009 C292 2.891 . S
C1024 C532 2.891 . S
C1059 C377 3.743 . S
C1074 C12 3.797 1_556 S
C1109 C417 3.743 . S
C1124 C52 3.797 . S
C1159 C457 3.743 . S
C1174 C92 3.797 . S
C1209 C337 3.743 . S
C1224 C132 3.797 . S
C1259 C191 3.797 1_554 S
C1274 C522 3.743 . S
C1309 C562 3.743 . S
C1324 C231 3.797 . S
C1359 C602 3.743 . S
C1374 C271 3.797 . S
C1409 C482 3.743 . S
C1424 C311 3.797 . S
C1459 C57 3.743 . S
C1474 C332 3.797 . S
C1509 C372 3.797 . S
C1524 C97 3.743 . S
C1559 C412 3.797 1_556 S
C1574 C137 3.743 . S
C1609 C452 3.797 . S
C1624 C17 3.743 . S
C1659 C511 3.797 . S
C1674 C202 3.743 . S
C1709 C242 3.743 . S
C1724 C551 3.797 . S
C1759 C282 3.743 . S
C1774 C591 3.797 1_554 S
C1809 C631 3.797 . S
C1824 C162 3.743 . S
C1859 C8 0.353 . S
C1874 C617 0.143 . S
C1909 C48 0.351 . S
C1924 C177 0.145 . S
C1959 C537 0.144 . S
C1974 C88 0.351 . S
C2009 C257 0.143 . S
C2024 C128 0.352 . S
C2059 C189 0.352 . S
C2074 C442 0.144 . S
C2109 C229 0.353 . S
C2124 C2 0.143 . S
C2159 C362 0.145 . S
C2174 C269 0.350 . S
C2209 C82 0.145 . S
C2224 C309 0.350 . S
C2259 C328 0.351 . S
C2274 C297 0.144 . S
C2309 C368 0.350 . S
C2324 C497 0.145 . S
C2359 C217 0.143 . S
C2374 C408 0.352 . S
C2409 C577 0.143 . S
C2424 C448 0.353 . S
C2459 C509 0.354 . S
C2474 C122 0.142 . S
C2509 C549 0.352 . S
C2524 C322 0.143 . S
C2559 C589 0.350 . S
C2574 C42 0.145 . S
C2609 C402 0.144 . S
C2624 C629 0.351 . S
C2659 C29 1.307 . S
C2674 C488 1.307 . S
C2709 C69 1.307 . S
C2724 C208 1.307 . S
C2759 C109 1.309 . S
C2774 C568 1.309 . S
C2809 C288 1.308 . S
C2824 C149 1.308 . S
C2859 C168 1.309 . S
C2874 C349 1.309 . S
C2909 C429 1.308 . S
C2924 C248 1.308 . S
C2959 C389 1.307 . S
C2974 C528 1.307 . S
C3009 C608 1.307 . S
C3024 C469 1.307 . S
