# Generated by pormake.
# Topology snz, (6)-cn, num edge types: 1
# Building blocks:
#     Node 0, Type 0, BuildingBlock: PAMTUU_clean_sbu_0, # of connection points: 6
#     Node 1, Type 0, BuildingBlock: PAMTUU_clean_sbu_0, # of connection points: 6
#     Node 2, Type 0, BuildingBlock: PAMTUU_clean_sbu_0, # of connection points: 6
#     Node 3, Type 0, BuildingBlock: PAMTUU_clean_sbu_0, # of connection points: 6
#     Node 4, Type 0, BuildingBlock: PAMTUU_clean_sbu_0, # of connection points: 6
#     Node 5, Type 0, BuildingBlock: PAMTUU_clean_sbu_0, # of connection points: 6
#     Node 6, Type 0, BuildingBlock: PAMTUU_clean_sbu_0, # of connection points: 6
#     Node 7, Type 0, BuildingBlock: PAMTUU_clean_sbu_0, # of connection points: 6
#     Node 8, Type 0, BuildingBlock: PAMTUU_clean_sbu_0, # of connection points: 6
#     Edge 9, Type (0, 0), BuildingBlock: AJUNOK_clean_linker_0, # of connection points: 2
#     Edge 10, Type (0, 0), BuildingBlock: AJUNOK_clean_linker_0, # of connection points: 2
#     Edge 11, Type (0, 0), BuildingBlock: AJUNOK_clean_linker_0, # of connection points: 2
#     Edge 12, Type (0, 0), BuildingBlock: AJUNOK_clean_linker_0, # of connection points: 2
#     Edge 13, Type (0, 0), BuildingBlock: AJUNOK_clean_linker_0, # of connection points: 2
#     Edge 14, Type (0, 0), BuildingBlock: AJUNOK_clean_linker_0, # of connection points: 2
#     Edge 15, Type (0, 0), BuildingBlock: AJUNOK_clean_linker_0, # of connection points: 2
#     Edge 16, Type (0, 0), BuildingBlock: AJUNOK_clean_linker_0, # of connection points: 2
#     Edge 17, Type (0, 0), BuildingBlock: AJUNOK_clean_linker_0, # of connection points: 2
#     Edge 18, Type (0, 0), BuildingBlock: AJUNOK_clean_linker_0, # of connection points: 2
#     Edge 19, Type (0, 0), BuildingBlock: AJUNOK_clean_linker_0, # of connection points: 2
#     Edge 20, Type (0, 0), BuildingBlock: AJUNOK_clean_linker_0, # of connection points: 2
#     Edge 21, Type (0, 0), BuildingBlock: AJUNOK_clean_linker_0, # of connection points: 2
#     Edge 22, Type (0, 0), BuildingBlock: AJUNOK_clean_linker_0, # of connection points: 2
#     Edge 23, Type (0, 0), BuildingBlock: AJUNOK_clean_linker_0, # of connection points: 2
#     Edge 24, Type (0, 0), BuildingBlock: AJUNOK_clean_linker_0, # of connection points: 2
#     Edge 25, Type (0, 0), BuildingBlock: AJUNOK_clean_linker_0, # of connection points: 2
#     Edge 26, Type (0, 0), BuildingBlock: AJUNOK_clean_linker_0, # of connection points: 2
#     Edge 27, Type (0, 0), BuildingBlock: AJUNOK_clean_linker_0, # of connection points: 2
#     Edge 28, Type (0, 0), BuildingBlock: AJUNOK_clean_linker_0, # of connection points: 2
#     Edge 29, Type (0, 0), BuildingBlock: AJUNOK_clean_linker_0, # of connection points: 2
#     Edge 30, Type (0, 0), BuildingBlock: AJUNOK_clean_linker_0, # of connection points: 2
#     Edge 31, Type (0, 0), BuildingBlock: AJUNOK_clean_linker_0, # of connection points: 2
#     Edge 32, Type (0, 0), BuildingBlock: AJUNOK_clean_linker_0, # of connection points: 2
#     Edge 33, Type (0, 0), BuildingBlock: AJUNOK_clean_linker_0, # of connection points: 2
#     Edge 34, Type (0, 0), BuildingBlock: AJUNOK_clean_linker_0, # of connection points: 2
#     Edge 35, Type (0, 0), BuildingBlock: AJUNOK_clean_linker_0, # of connection points: 2
# Relax obj value: 0.128
# Max RMSD: 0.271
# Mean RMSD: 0.174
data_MOF--net-snz--node1-PAMTUU_clean_sbu_0--edge1-AJUNOK_clean_linker_0
_symmetry_space_group_name_H-M    P1
_symmetry_Int_Tables_number       1
_symmetry_cell_setting            triclinic
loop_
_symmetry_equiv_pos_as_xyz
'x, y, z'
_cell_length_a     66.708758
_cell_length_b     42.99512
_cell_length_c     10.938655
_cell_angle_alpha  101.71184
_cell_angle_beta   103.33845
_cell_angle_gamma 123.44694
loop_
_atom_site_label
_atom_site_type_symbol
_atom_site_fract_x
_atom_site_fract_y
_atom_site_fract_z
_atom_type_partial_charge
Tb0 Tb 0.07966 0.56133 0.96907 0.0
Tb1 Tb 0.12182 0.54075 -0.005 0.0
C2 C 0.1027 0.55051 0.21959 0.0
C3 C 1.03975 0.5996 0.92616 0.0
C4 C 1.01574 0.63159 0.82236 0.0
C5 C 1.01634 0.62667 0.94603 0.0
C6 C 1.02823 0.61085 -0.00278 0.0
C7 C 1.04035 0.60614 0.80596 0.0
C8 C 1.02849 0.62216 0.75468 0.0
C9 C 0.04901 0.57837 0.97505 0.0
O10 O 0.11476 0.61422 0.97108 0.0
O11 O 0.14464 0.60734 0.08532 0.0
O12 O 0.1133 0.54634 0.80146 0.0
O13 O 0.07692 0.54463 0.76297 0.0
O14 O 0.15449 0.5485 0.124 0.0
O15 O 0.13802 0.51795 0.90265 0.0
O16 O 0.08296 0.48063 0.89392 0.0
O17 O 0.05721 0.4973 0.94158 0.0
O18 O 0.10142 0.57624 0.17983 0.0
O19 O 0.10691 0.52805 0.14879 0.0
C20 C 0.13925 0.62969 0.04343 0.0
O21 O 0.04213 0.54564 0.88341 0.0
O22 O 0.07335 0.60076 0.06609 0.0
C23 C 0.09334 0.5426 0.72242 0.0
C24 C 0.16335 0.50368 0.03363 0.0
C25 C 0.18316 0.46077 0.06745 0.0
C26 C 0.18592 0.47827 0.97089 0.0
C27 C 0.17613 0.49935 0.95427 0.0
C28 C 0.16003 0.48569 0.1289 0.0
C29 C 0.16977 0.46423 0.14519 0.0
C30 C 0.15602 0.53002 0.02033 0.0
C31 C 0.06041 0.47008 0.89642 0.0
H32 H 1.00663 0.63345 0.00038 0.0
H33 H 1.02759 0.60604 0.09022 0.0
H34 H 0.04934 0.5979 0.75012 0.0
H35 H 1.02887 0.62647 0.66084 0.0
H36 H 0.1962 0.47642 0.90978 0.0
H37 H 0.17912 0.51323 0.881 0.0
H38 H 0.15021 0.48856 0.19144 0.0
H39 H 0.16674 0.45026 0.21809 0.0
Tb40 Tb 0.58779 0.55447 0.04244 0.0
Tb41 Tb 0.63315 0.54146 0.08943 0.0
C42 C 0.60854 0.54736 0.82222 0.0
C43 C 0.52618 0.53859 0.03088 0.0
C44 C 0.47858 0.50457 0.06312 0.0
C45 C 0.4817 0.51727 0.95555 0.0
C46 C 0.5053 0.53422 0.93995 0.0
C47 C 0.52265 0.52388 0.1342 0.0
C48 C 0.49897 0.50695 0.1501 0.0
C49 C 0.5517 0.56045 0.01963 0.0
O50 O 0.56733 0.48984 0.93147 0.0
O51 O 0.59654 0.48381 0.05878 0.0
O52 O 0.6342 0.56367 0.28881 0.0
O53 O 0.59078 0.53637 0.21112 0.0
O54 O 0.64464 0.5072 0.01773 0.0
O55 O 0.67024 0.55986 0.21085 0.0
O56 O 0.65348 0.60321 0.09827 0.0
O57 O 0.626 0.61619 0.1426 0.0
O58 O 0.6011 0.56595 0.88361 0.0
O59 O 0.61638 0.52913 0.87464 0.0
C60 C 0.57245 0.46736 0.97318 0.0
O61 O 0.573 0.58021 0.1329 0.0
O62 O 0.55269 0.54109 0.91562 0.0
C63 C 0.61301 0.55141 0.30963 0.0
C64 C 0.69041 0.5475 0.07825 0.0
C65 C 0.73067 0.57229 0.98382 0.0
C66 C 0.71929 0.53713 0.01161 0.0
C67 C 0.69935 0.52488 0.05831 0.0
C68 C 0.70215 0.58322 0.05432 0.0
C69 C 0.72223 0.59567 0.00852 0.0
C70 C 0.66819 0.53256 0.11844 0.0
C71 C 0.64868 0.62864 0.13669 0.0
H72 H 0.46608 0.51503 0.88547 0.0
H73 H 0.50751 0.54496 0.85882 0.0
H74 H 0.53841 0.52651 0.20488 0.0
H75 H 0.49701 0.49729 0.23362 0.0
H76 H 0.72528 0.51841 -0.00642 0.0
H77 H 0.69053 0.49725 0.07631 0.0
H78 H 0.69559 0.60123 0.06951 0.0
H79 H 0.73105 0.62347 -0.00824 0.0
Tb80 Tb 0.6614 0.14266 0.2439 0.0
Tb81 Tb 0.59934 0.05958 0.12382 0.0
C82 C 0.63267 0.11081 0.43009 0.0
C83 C 0.72851 0.20287 0.26266 0.0
C84 C 0.76354 0.20788 0.14652 0.0
C85 C 0.77253 0.22619 0.29004 0.0
C86 C 0.75513 0.22353 0.34741 0.0
C87 C 0.7194 0.18404 0.11976 0.0
C88 C 0.73673 0.18673 0.06261 0.0
C89 C 0.71011 0.1996 0.32343 0.0
O90 O 0.65907 0.09076 0.1496 0.0
O91 O 0.62461 0.04329 0.18564 0.0
O92 O 0.60803 0.05664 0.94348 0.0
O93 O 0.6447 0.12446 0.02417 0.0
O94 O 0.57274 1.01095 0.16511 0.0
O95 O 0.55935 1.01854 0.98209 0.0
O96 O 0.5974 0.10635 0.09679 0.0
O97 O 0.63907 0.16552 0.25258 0.0
O98 O 0.65444 0.12497 0.41253 0.0
O99 O 0.61148 0.09836 0.32989 0.0
C100 C 0.64647 0.05713 0.16897 0.0
O101 O 0.69143 0.1995 0.25238 0.0
O102 O 0.70095 0.17161 0.37162 0.0
C103 C 0.62538 0.08838 0.9242 0.0
C104 C 0.5306 0.99461 0.09191 0.0
C105 C 0.4877 0.98028 0.14721 0.0
C106 C 0.48376 0.96134 0.01339 0.0
C107 C 0.50503 0.96847 -0.01383 0.0
C108 C 0.53484 1.01494 0.22484 0.0
C109 C 0.51354 1.00782 0.25215 0.0
C110 C 0.55235 0.99952 0.06159 0.0
C111 C 0.61418 0.14595 0.16857 0.0
H112 H 0.79311 0.24335 0.35801 0.0
H113 H 0.7625 0.23783 0.45801 0.0
H114 H 0.69885 0.16728 0.05196 0.0
H115 H 0.72913 0.17216 0.95215 0.0
H116 H 0.46409 0.94006 0.93036 0.0
H117 H 0.50143 0.95291 0.88279 0.0
H118 H 0.5545 0.03588 0.30793 0.0
H119 H 0.51725 1.02368 0.35538 0.0
Tb120 Tb 0.74968 0.89054 0.31192 0.0
Tb121 Tb 0.79216 0.87038 0.34017 0.0
C122 C 0.77692 0.88646 0.58333 0.0
C123 C 0.71012 0.93008 0.26915 0.0
C124 C 0.69175 0.97458 0.23229 0.0
C125 C 0.69603 0.96831 0.35357 0.0
C126 C 0.70511 0.94635 0.37169 0.0
C127 C 0.70654 0.93719 0.14891 0.0
C128 C 0.69747 0.95934 0.13083 0.0
C129 C 0.71587 0.90207 0.28507 0.0
O130 O 0.78794 0.95107 0.40194 0.0
O131 O 0.81497 0.9349 0.37362 0.0
O132 O 0.76916 0.85224 0.12798 0.0
O133 O 0.76364 0.9004 0.15367 0.0
O134 O 0.82965 0.88667 0.4336 0.0
O135 O 0.80019 0.83366 0.24198 0.0
O136 O 0.75712 0.81645 0.33388 0.0
O137 O 0.72665 0.82386 0.23046 0.0
O138 O 0.75904 0.88763 0.50934 0.0
O139 O 0.79225 0.88164 0.54095 0.0
C140 C 0.81089 0.96155 0.40777 0.0
O141 O 0.71658 0.88169 0.18221 0.0
O142 O 0.73392 0.91433 0.40291 0.0
C143 C 0.76655 0.87608 0.08213 0.0
C144 C 0.83331 0.83419 0.38349 0.0
C145 C 0.85807 0.80247 0.4785 0.0
C146 C 0.85615 0.80677 0.35323 0.0
C147 C 0.84373 0.82219 0.30596 0.0
C148 C 0.83449 0.82903 0.50705 0.0
C149 C 0.84683 0.81327 0.55428 0.0
C150 C 0.82397 0.85568 0.33868 0.0
C151 C 0.73247 0.80148 0.26845 0.0
H152 H 0.69195 0.97988 0.43379 0.0
H153 H 0.70741 0.94096 0.46466 0.0
H154 H 0.70997 0.92467 0.06733 0.0
H155 H 0.69402 0.96327 0.03547 0.0
H156 H 0.8652 0.79979 0.29414 0.0
H157 H 0.84321 0.82631 0.21105 0.0
H158 H 0.82658 0.83822 0.56861 0.0
H159 H 0.84801 0.81018 0.65101 0.0
Tb160 Tb 0.24077 0.8921 0.23452 0.0
Tb161 Tb 0.28367 0.87454 0.25775 0.0
C162 C 0.25809 0.88085 0.00394 0.0
C163 C 0.18265 0.88476 0.23739 0.0
C164 C 0.14025 0.85726 0.31464 0.0
C165 C 0.14965 0.88957 0.27197 0.0
C166 C 0.17064 0.90309 0.23331 0.0
C167 C 0.17298 0.85186 0.27657 0.0
C168 C 0.15189 0.83816 0.31466 0.0
C169 C 0.20653 0.90243 0.21164 0.0
O170 O 0.21782 0.82522 0.15006 0.0
O171 O 0.24924 0.8187 0.24522 0.0
O172 O 0.28653 0.89316 0.46511 0.0
O173 O 0.24676 0.88135 0.41814 0.0
O174 O 0.29645 0.84878 0.14627 0.0
O175 O 0.31694 0.8808 0.36664 0.0
O176 O 0.30513 0.93753 0.28215 0.0
O177 O 0.27989 0.95274 0.34493 0.0
O178 O 0.25461 0.90404 0.07694 0.0
O179 O 0.2597 0.8557 0.04606 0.0
C180 C 0.22437 0.80312 0.1837 0.0
O181 O 0.22861 0.92328 0.32091 0.0
O182 O 0.20543 0.8785 0.11055 0.0
C183 C 0.26806 0.88918 0.50128 0.0
C184 C 0.3431 0.88778 0.24282 0.0
C185 C 0.39205 0.92687 0.22297 0.0
C186 C 0.3911 0.9389 0.3495 0.0
C187 C 0.36689 0.91936 0.35957 0.0
C188 C 0.34402 0.87699 0.11521 0.0
C189 C 0.36824 0.89638 0.10539 0.0
C190 C 0.31757 0.86471 0.25457 0.0
C191 C 0.30232 0.96415 0.33816 0.0
H192 H 0.14154 0.90552 0.27377 0.0
H193 H 0.17806 0.92878 0.20452 0.0
H194 H 0.18217 0.83751 0.28103 0.0
H195 H 0.145 0.81313 0.34662 0.0
H196 H 0.40911 0.96299 0.44123 0.0
H197 H 0.3669 0.92857 0.45939 0.0
H198 H 0.32606 0.8528 0.02335 0.0
H199 H 0.36839 0.88642 0.00655 0.0
Tb200 Tb 0.27259 0.37002 0.17562 0.0
Tb201 Tb 0.21035 0.2881 0.05227 0.0
C202 C 0.2438 0.33633 0.359 0.0
C203 C 0.3434 0.43781 0.2353 0.0
C204 C 0.38691 0.45607 0.17862 0.0
C205 C 0.39035 0.48357 0.29257 0.0
C206 C 0.36878 0.47453 0.32032 0.0
C207 C 0.33984 0.40953 0.12327 0.0
C208 C 0.36153 0.41862 0.09521 0.0
C209 C 0.32113 0.42977 0.26681 0.0
O210 O 0.27093 0.31834 0.08969 0.0
O211 O 0.23541 0.27137 0.12151 0.0
O212 O 0.21953 0.2832 0.8742 0.0
O213 O 0.25607 0.35113 0.95461 0.0
O214 O 0.1827 0.23744 0.08263 0.0
O215 O 0.17001 0.25233 0.92056 0.0
O216 O 0.21084 0.33695 0.02314 0.0
O217 O 0.25061 0.39244 0.20056 0.0
O218 O 0.2654 0.35026 0.34003 0.0
O219 O 0.22285 0.32543 0.26131 0.0
C220 C 0.25816 0.28562 0.11403 0.0
O221 O 0.3024 0.42508 0.17317 0.0
O222 O 0.31165 0.40282 0.31888 0.0
C223 C 0.23722 0.31464 0.85497 0.0
C224 C 0.14324 0.2283 0.04136 0.0
C225 C 0.10772 0.22224 0.15461 0.0
C226 C 0.10179 0.18714 0.06309 0.0
C227 C 0.11939 0.19018 0.00725 0.0
C228 C 0.14896 0.26365 0.12945 0.0
C229 C 0.13126 0.26064 0.18495 0.0
C230 C 0.1626 0.23045 -0.00824 0.0
C231 C 0.22679 0.37532 0.11008 0.0
H232 H 0.40977 0.51234 0.35977 0.0
H233 H 0.37191 0.49642 0.40798 0.0
H234 H 0.32036 0.38076 0.0572 0.0
H235 H 0.3584 0.39695 0.00675 0.0
H236 H 0.08365 0.15719 0.03609 0.0
H237 H 0.11462 0.16261 0.93956 0.0
H238 H 0.16736 0.29346 0.15769 0.0
H239 H 0.1364 0.2882 0.25529 0.0
Tb240 Tb 0.45652 0.20343 0.67738 0.0
Tb241 Tb 0.41725 0.23032 0.63326 0.0
C242 C 0.48027 0.29445 0.77443 0.0
C243 C 0.5074 0.18723 0.8136 0.0
C244 C 0.54781 0.18729 0.97213 0.0
C245 C 0.55425 0.22123 0.94258 0.0
C246 C 0.53431 0.22113 0.86372 0.0
C247 C 0.50101 0.15406 0.84807 0.0
C248 C 0.5209 0.15414 0.92646 0.0
C249 C 0.48618 0.18329 0.71034 0.0
O250 O 0.4429 0.19928 0.83804 0.0
O251 O 0.43299 0.24322 0.85036 0.0
O252 O 0.3909 0.16525 0.58899 0.0
O253 O 0.41623 0.14747 0.54289 0.0
O254 O 0.41163 0.26905 0.57122 0.0
O255 O 0.38558 0.22863 0.64724 0.0
O256 O 0.41209 0.2007 0.43132 0.0
O257 O 0.45274 0.21543 0.49292 0.0
O258 O 0.48169 0.26813 0.81054 0.0
O259 O 0.45792 0.2827 0.6848 0.0
C260 C 0.43704 0.22072 0.89924 0.0
O261 O 0.46268 0.1621 0.70893 0.0
O262 O 0.49199 0.21492 0.68486 0.0
C263 C 0.39369 0.13754 0.54422 0.0
C264 C 0.36884 0.25137 0.49828 0.0
C265 C 0.32821 0.25124 0.34268 0.0
C266 C 0.32192 0.21758 0.37423 0.0
C267 C 0.34202 0.21773 0.45196 0.0
C268 C 0.37501 0.28422 0.46256 0.0
C269 C 0.35506 0.28419 0.38605 0.0
C270 C 0.39081 0.25581 0.5962 0.0
C271 C 0.43151 0.20638 0.40253 0.0
H272 H 0.57473 0.2476 0.9781 0.0
H273 H 0.54004 0.24711 0.83848 0.0
H274 H 0.48056 0.12716 0.80952 0.0
H275 H 0.51514 0.1273 0.94594 0.0
H276 H 0.30148 0.19128 0.34019 0.0
H277 H 0.33655 0.19197 0.47806 0.0
H278 H 0.39545 0.31083 0.49819 0.0
H279 H 0.36075 0.31083 0.36531 0.0
Tb280 Tb 0.95809 0.20732 0.66513 0.0
Tb281 Tb 0.91397 0.22387 0.64352 0.0
C282 C 0.89728 0.135 0.57075 0.0
C283 C 1.0064 0.19988 0.56951 0.0
C284 C 1.0381 0.2078 0.42395 0.0
C285 C 1.01642 0.16913 0.40603 0.0
C286 C 1.00095 0.16527 0.47843 0.0
C287 C 1.02735 0.23863 0.58319 0.0
C288 C 0.04299 0.24251 0.51103 0.0
C289 C 0.99048 0.19454 0.65116 0.0
O290 O 0.93737 0.19357 0.45507 0.0
O291 O 0.92418 0.23315 0.47337 0.0
O292 O 0.95353 0.28339 0.75209 0.0
O293 O 0.97834 0.26945 0.67833 0.0
O294 O 0.87671 0.21005 0.55792 0.0
O295 O 0.90777 0.26179 0.74949 0.0
O296 O 0.91782 0.20426 0.80552 0.0
O297 O 0.95978 0.22406 0.87205 0.0
O298 O 0.92198 0.15086 0.64251 0.0
O299 O 0.89115 0.1576 0.53784 0.0
C300 C 0.93162 0.21478 0.40996 0.0
O301 O 0.99704 0.22709 0.74252 0.0
O302 O 0.96489 0.16709 0.58326 0.0
C303 C 0.97504 0.29555 0.73295 0.0
C304 C 0.8645 0.2312 0.72827 0.0
C305 C 0.833 0.22241 0.87543 0.0
C306 C 0.84417 0.25471 0.83285 0.0
C307 C 0.85963 0.25896 0.7603 0.0
C308 C 0.85361 0.19889 0.77075 0.0
C309 C 0.83785 0.19438 0.84293 0.0
C310 C 0.88313 0.23965 0.66341 0.0
C311 C 0.93929 0.21499 0.89801 0.0
H312 H 1.01154 0.14167 0.33679 0.0
H313 H 0.98483 0.135 0.46445 0.0
H314 H 1.03197 0.266 0.65126 0.0
H315 H 0.05941 0.27275 0.52663 0.0
H316 H 0.84119 0.27716 0.85698 0.0
H317 H 0.86824 0.28458 0.73114 0.0
H318 H 0.85746 0.17742 0.74915 0.0
H319 H 0.82923 0.16871 0.87166 0.0
Tb320 Tb 0.90118 0.66241 0.57256 0.0
Tb321 Tb 0.96983 0.76209 0.73234 0.0
C322 C 0.94481 0.66485 0.61413 0.0
C323 C 0.83663 0.61306 0.59115 0.0
C324 C 0.80573 0.60584 0.73922 0.0
C325 C 0.80764 0.575 0.69374 0.0
C326 C 0.82282 0.5785 0.61996 0.0
C327 C 0.83535 0.64459 0.64019 0.0
C328 C 0.81997 0.64091 0.71315 0.0
C329 C 0.85237 0.61561 0.5116 0.0
O330 O 0.91909 0.68434 0.795 0.0
O331 O 0.95992 0.75185 0.90222 0.0
O332 O 0.95109 0.79018 0.74245 0.0
O333 O 0.91627 0.72449 0.64082 0.0
O334 O 1.00561 0.77186 0.80609 0.0
O335 O 1.0044 0.81852 0.7674 0.0
O336 O 0.95176 0.74292 0.51145 0.0
O337 O 0.91129 0.67475 0.40342 0.0
O338 O 0.91982 0.63384 0.55625 0.0
O339 O 0.94776 0.6983 0.64331 0.0
C340 C 0.93979 0.71826 0.90286 0.0
O341 O 0.86391 0.64736 0.48163 0.0
O342 O 0.86782 0.60654 0.55092 0.0
C343 C 0.92536 0.76222 0.68213 0.0
C344 C 1.03423 0.81097 0.70997 0.0
C345 C 0.06501 0.82099 0.55873 0.0
C346 C 0.05734 0.84548 0.5798 0.0
C347 C 0.04216 0.84057 0.65474 0.0
C348 C 0.04181 0.78633 0.68811 0.0
C349 C 0.05703 0.79133 0.6135 0.0
C350 C 1.0185 0.8063 0.7914 0.0
C351 C 0.93073 0.70932 0.40308 0.0
H352 H 0.79676 0.54757 0.71181 0.0
H353 H 0.82357 0.5539 0.58414 0.0
H354 H 0.84602 0.67196 0.62151 0.0
H355 H 0.81904 0.66533 0.74846 0.0
H356 H 0.06372 0.86925 0.54181 0.0
H357 H 1.0369 0.86034 0.67075 0.0
H358 H 1.03617 0.76335 0.72954 0.0
H359 H 0.06274 0.77211 0.59932 0.0
C360 C 0.09588 0.57311 0.55312 0.0
C361 C 0.09149 0.54065 0.5856 0.0
C362 C 0.09935 0.57591 0.43356 0.0
C363 C 0.09836 0.54615 0.34298 0.0
H364 H 0.09793 0.59745 0.62369 0.0
H365 H 0.1035 0.60214 0.41417 0.0
S366 S 0.08295 0.45173 0.3743 0.0
N367 N 0.08356 0.47621 0.51444 0.0
N368 N 0.0894 0.48062 0.28683 0.0
C369 C 0.09236 0.51223 0.37118 0.0
C370 C 0.08907 0.50968 0.49351 0.0
C371 C 0.58965 0.51567 0.56974 0.0
C372 C 0.60995 0.54916 0.69363 0.0
C373 C 0.59108 0.51665 0.44525 0.0
C374 C 0.61308 0.55081 0.44244 0.0
H375 H 0.57259 0.48879 0.56923 0.0
H376 H 0.57494 0.49045 0.35059 0.0
S377 S 0.67153 0.64561 0.74253 0.0
N378 N 0.65253 0.61694 0.80927 0.0
N379 N 0.65572 0.61861 0.57424 0.0
C380 C 0.63378 0.58416 0.56657 0.0
C381 C 0.63204 0.58338 0.69299 0.0
C382 C 0.60648 0.08836 0.70095 0.0
C383 C 0.62393 0.0852 0.78607 0.0
C384 C 0.60959 0.09688 0.58642 0.0
C385 C 0.63045 0.10298 0.55421 0.0
H386 H 0.59118 0.08627 0.72694 0.0
H387 H 0.59596 0.09979 0.52488 0.0
S388 S 0.67968 0.09354 0.73988 0.0
N389 N 0.66143 0.0858 0.82726 0.0
N390 N 0.66751 0.10183 0.61238 0.0
C391 C 0.64744 0.09838 0.63667 0.0
C392 C 0.64409 0.08943 0.75245 0.0
C393 C 0.78049 0.91656 0.81215 0.0
C394 C 0.77706 0.88525 0.71506 0.0
C395 C 0.77686 0.91315 0.93076 0.0
C396 C 0.76932 0.87804 0.95419 0.0
H397 H 0.78569 0.94357 0.79535 0.0
H398 H 0.78003 0.93823 0.00443 0.0
S399 S 0.7561 0.7864 0.72267 0.0
N400 N 0.76509 0.8179 0.64494 0.0
N401 N 0.75756 0.81061 0.86678 0.0
C402 C 0.76575 0.84639 0.8566 0.0
C403 C 0.76983 0.85026 0.73701 0.0
C404 C 0.26758 0.86068 0.67655 0.0
C405 C 0.27011 0.89151 0.63895 0.0
C406 C 0.26375 0.85753 0.79539 0.0
C407 C 0.26239 0.88519 0.87997 0.0
H408 H 0.26727 0.83778 0.6104 0.0
H409 H 0.26123 0.83266 0.8191 0.0
S410 S 0.27115 0.97424 0.83071 0.0
N411 N 0.27313 0.95186 0.69751 0.0
N412 N 0.26635 0.94668 0.92247 0.0
C413 C 0.2662 0.91735 0.84575 0.0
C414 C 0.26998 0.92032 0.72464 0.0
C415 C 0.21872 0.31494 0.504 0.0
C416 C 0.24158 0.32751 0.48174 0.0
C417 C 0.21611 0.30684 0.61982 0.0
C418 C 0.23622 0.3109 0.71685 0.0
H419 H 0.203 0.31244 0.43368 0.0
H420 H 0.19901 0.29971 0.63755 0.0
S421 S 0.29812 0.33699 0.6991 0.0
N422 N 0.28342 0.33924 0.56116 0.0
N423 N 0.27831 0.3242 0.7785 0.0
C424 C 0.25835 0.32099 0.69228 0.0
C425 C 0.26111 0.32929 0.57486 0.0
C426 C 0.44448 0.24745 0.26582 0.0
C427 C 0.4313 0.20904 0.27175 0.0
C428 C 0.44539 0.25126 0.14264 0.0
C429 C 0.43344 0.21671 0.02364 0.0
H430 H 0.45441 0.27466 0.35739 0.0
H431 H 0.45629 0.28136 0.14179 0.0
S432 S 0.39436 0.10916 0.98428 0.0
N433 N 0.40441 0.1358 0.1479 0.0
N434 N 0.40636 0.14281 0.9161 0.0
C435 C 0.41939 0.17805 0.02771 0.0
C436 C 0.41824 0.1742 0.1523 0.0
C437 C 0.91173 0.19699 0.16314 0.0
C438 C 0.93432 0.2179 0.28437 0.0
C439 C 0.91379 0.19514 0.0386 0.0
C440 C 0.93859 0.21476 0.03145 0.0
H441 H 0.89233 0.18106 0.16403 0.0
H442 H 0.89558 0.1781 0.94713 0.0
S443 S 1.00363 0.27331 0.32574 0.0
N444 N 0.98202 0.25779 0.39427 0.0
N445 N 0.98622 0.25559 0.15916 0.0
C446 C 0.96139 0.23566 0.15334 0.0
C447 C 0.95915 0.23703 0.2803 0.0
C448 C 0.92564 0.67815 0.17111 0.0
C449 C 0.93068 0.71065 0.27136 0.0
C450 C 0.92981 0.68172 0.05396 0.0
C451 C 0.93903 0.7178 0.0342 0.0
H452 H 0.91933 0.65043 0.18542 0.0
H453 H 0.92582 0.6561 0.97822 0.0
S454 S 0.9526 0.80989 0.26148 0.0
N455 N 0.9435 0.77875 0.3406 0.0
N456 N 0.95162 0.78558 0.11949 0.0
C457 C 0.9437 0.75022 0.13259 0.0
C458 C 0.93927 0.74649 0.25131 0.0
C459 C 0.20109 0.3918 0.97573 0.0
C460 C 0.21686 0.39867 0.10422 0.0
C461 C 0.19013 0.41165 0.96559 0.0
C462 C 0.19413 0.43878 0.08361 0.0
H463 H 0.19727 0.37101 0.88181 0.0
H464 H 0.17823 0.4054 0.86404 0.0
S465 S 0.2326 0.46505 0.44507 0.0
N466 N 0.23511 0.43297 0.35212 0.0
N467 N 0.21452 0.47044 0.33402 0.0
C468 C 0.20949 0.44529 0.21317 0.0
C469 C 0.22093 0.42533 0.2232 0.0
C470 C 0.69647 0.69057 0.22777 0.0
C471 C 0.66949 0.67281 0.17079 0.0
C472 C 0.71652 0.73195 0.25966 0.0
C473 C 0.71057 0.75746 0.23372 0.0
H474 H 0.70222 0.67243 0.2494 0.0
H475 H 0.73689 0.74386 0.30444 0.0
S476 S 0.64281 0.72507 0.07669 0.0
N477 N 0.63784 0.68362 0.08526 0.0
N478 N 0.67521 0.7608 0.14217 0.0
C479 C 0.68357 0.73978 0.17447 0.0
C480 C 0.66317 0.69774 0.14395 0.0
C481 C 0.44493 0.96871 0.08724 0.0
C482 C 0.46465 0.97018 0.17649 0.0
C483 C 0.42189 0.95594 0.10552 0.0
C484 C 0.4177 0.94415 0.21377 0.0
H485 H 0.44719 0.9771 0.00156 0.0
H486 H 0.40708 0.95482 0.03329 0.0
S487 S 0.46298 0.94175 0.47481 0.0
N488 N 0.47842 0.95859 0.37712 0.0
N489 N 0.43504 0.9344 0.41091 0.0
C490 C 0.43746 0.94618 0.30539 0.0
C491 C 0.46096 0.95925 0.28694 0.0
C492 C 0.58375 0.16019 0.19503 0.0
C493 C 0.60336 0.16756 0.14901 0.0
C494 C 0.56689 0.16887 0.14345 0.0
C495 C 0.5687 0.18474 0.04201 0.0
H496 H 0.58041 0.14537 0.26565 0.0
H497 H 0.55158 0.16146 0.17915 0.0
S498 S 0.61651 0.2084 0.88521 0.0
N499 N 0.62376 0.19157 -0.00287 0.0
N500 N 0.59205 0.20754 0.89848 0.0
C501 C 0.58892 0.19351 -0.00125 0.0
C502 C 0.60617 0.18488 0.05223 0.0
C503 C 1.02253 0.35554 0.80048 0.0
C504 C 0.99636 0.34016 0.77445 0.0
C505 C 0.04297 0.39729 0.83961 0.0
C506 C 1.03821 0.42573 0.8538 0.0
H507 H 1.02741 0.3352 0.79193 0.0
H508 H 0.06272 0.4073 0.85979 0.0
S509 S 0.97276 0.40093 0.78672 0.0
N510 N 0.96666 0.35674 0.75933 0.0
N511 N 1.0048 0.43473 0.83154 0.0
C512 C 1.01204 0.41065 0.82603 0.0
C513 C 0.99124 0.36813 0.78677 0.0
C514 C 0.78932 0.58986 0.92048 0.0
C515 C 0.78764 0.60013 0.80635 0.0
C516 C 0.77126 0.58191 0.97931 0.0
C517 C 0.75067 0.58356 0.92547 0.0
H518 H 0.80465 0.58781 0.9643 0.0
H519 H 0.77335 0.5742 0.06726 0.0
S520 S 0.73694 0.60676 0.62197 0.0
N521 N 0.76353 0.61052 0.63952 0.0
N522 N 0.72932 0.59493 0.74762 0.0
C523 C 0.74889 0.5939 0.81133 0.0
C524 C 0.7674 0.60229 0.75239 0.0
C525 C 0.98532 0.68462 0.79428 0.0
C526 C 0.96569 0.66116 0.65872 0.0
C527 C 1.00233 0.67613 0.84473 0.0
C528 C 1.00026 0.64391 0.76125 0.0
H529 H 0.98652 0.70798 0.86424 0.0
H530 H 1.01664 0.69409 0.95122 0.0
S531 S 0.95249 0.57485 0.39622 0.0
N532 N 0.94562 0.60577 0.44043 0.0
N533 N 0.9773 0.58942 0.53412 0.0
C534 C 0.98125 0.62132 0.62368 0.0
C535 C 0.96396 0.62994 0.573 0.0
C536 C 0.52473 0.40625 0.82826 0.0
C537 C 0.54985 0.42286 0.92454 0.0
C538 C 0.50269 0.36517 0.78197 0.0
C539 C 0.50446 0.33824 0.82919 0.0
H540 H 0.52184 0.42512 0.78756 0.0
H541 H 0.48404 0.35457 0.70777 0.0
S542 S 0.56555 0.36582 0.08245 0.0
N543 N 0.57511 0.40872 0.06631 0.0
N544 N 0.53372 0.33147 0.97896 0.0
C545 C 0.52946 0.35424 0.92544 0.0
C546 C 0.55206 0.39639 0.97296 0.0
C547 C 0.79676 0.22338 0.89923 0.0
C548 C 0.81553 0.21776 0.94774 0.0
C549 C 0.78042 0.22049 0.96478 0.0
C550 C 0.78187 0.21164 0.08209 0.0
H551 H 0.7945 0.22987 0.80859 0.0
H552 H 0.76658 0.22555 0.92322 0.0
S553 S 0.82745 0.19406 0.25251 0.0
N554 N 0.83478 0.20337 0.12321 0.0
N555 N 0.8034 0.19668 0.24359 0.0
C556 C 0.80045 0.2058 0.13219 0.0
C557 C 0.81729 0.20893 0.06549 0.0
C558 C 0.64651 1.00264 0.2178 0.0
C559 C 0.65773 0.03549 0.17782 0.0
C560 C 0.65756 0.98308 0.23411 0.0
C561 C 0.6802 0.99538 0.21052 0.0
H562 H 0.62924 0.99218 0.23864 0.0
H563 H 0.64824 0.95799 0.2653 0.0
S564 S 0.71764 0.08015 0.10688 0.0
N565 N 0.69312 0.07963 0.11611 0.0
N566 N 0.71374 0.04277 0.14731 0.0
C567 C 0.69156 1.02794 0.16976 0.0
C568 C 0.6804 0.04804 0.15358 0.0
C569 C 0.17649 0.73893 0.06301 0.0
C570 C 0.20301 0.75896 0.15008 0.0
C571 C 0.15618 0.69747 0.0294 0.0
C572 C 0.16132 0.67391 0.08148 0.0
H573 H 0.17129 0.75529 0.01931 0.0
H574 H 0.13624 0.68382 0.96133 0.0
S575 S 0.22715 0.712 0.3201 0.0
N576 N 0.23302 0.75187 0.29163 0.0
N577 N 0.19513 0.67463 0.22908 0.0
C578 C 0.18772 0.69369 0.17002 0.0
C579 C 0.20841 0.73587 0.20403 0.0
C580 C 0.43944 0.45458 0.10296 0.0
C581 C 0.45493 0.4918 0.0901 0.0
C582 C 0.41704 0.44255 0.12865 0.0
C583 C 0.40973 0.46771 0.14459 0.0
H584 H 0.44459 0.43459 0.0922 0.0
H585 H 0.40567 0.41381 0.13858 0.0
S586 S 0.44377 0.56802 0.12106 0.0
N587 N 0.46146 0.55368 0.09657 0.0
N588 N 0.41939 0.53094 0.14307 0.0
C589 C 0.42502 0.50482 0.13151 0.0
C590 C 0.44762 0.5169 0.10481 0.0
C591 C 0.90997 0.80342 0.71787 0.0
C592 C 0.90735 0.77106 0.63281 0.0
C593 C 0.89312 0.81228 0.66911 0.0
C594 C 0.87335 0.78935 0.53318 0.0
H595 H 0.92519 0.82205 0.82226 0.0
H596 H 0.89621 0.83818 0.73683 0.0
S597 S 0.85827 0.70085 0.27007 0.0
N598 N 0.88347 0.7158 0.40637 0.0
N599 N 0.85151 0.73179 0.31643 0.0
C600 C 0.8702 0.75624 0.44835 0.0
C601 C 0.88727 0.74725 0.49779 0.0
C602 C 0.34435 0.07999 0.4483 0.0
C603 C 0.37047 0.09332 0.49245 0.0
C604 C 0.32234 0.03842 0.40009 0.0
C605 C 0.32555 1.00845 0.394 0.0
H606 H 0.34081 0.10178 0.44952 0.0
H607 H 0.30268 1.02966 0.36533 0.0
S608 S 0.38973 1.0276 0.51257 0.0
N609 N 0.39807 0.07304 0.5366 0.0
N610 N 0.35712 0.99569 0.44673 0.0
C611 C 0.35157 1.02156 0.44124 0.0
C612 C 0.37387 0.06368 0.49013 0.0
C613 C 0.0642 0.23786 0.28731 0.0
C614 C 0.05606 0.21165 0.35618 0.0
C615 C 0.08089 0.24127 0.22242 0.0
C616 C 0.09002 0.21851 0.22341 0.0
H617 H 0.05736 0.25549 0.28203 0.0
H618 H 0.08643 0.2615 0.16968 0.0
S619 S 0.07698 0.14907 0.4018 0.0
N620 N 0.06029 0.16508 0.42985 0.0
N621 N 0.09115 0.17112 0.3072 0.0
C622 C 0.08245 0.19288 0.294 0.0
C623 C 0.06564 0.18956 0.36041 0.0
C624 C 0.3095 0.26944 0.16921 0.0
C625 C 0.30733 0.2536 0.27062 0.0
C626 C 0.29245 0.27733 0.11333 0.0
C627 C 0.27225 0.26944 0.15521 0.0
H628 H 0.32503 0.27692 0.13523 0.0
H629 H 0.2957 0.29101 0.03967 0.0
S630 S 0.25759 0.22712 0.41528 0.0
N631 N 0.28293 0.2297 0.40883 0.0
N632 N 0.25059 0.24373 0.3019 0.0
C633 C 0.26904 0.25193 0.25199 0.0
C634 C 0.28661 0.2442 0.30997 0.0
C635 C 0.82943 1.02845 0.3866 0.0
C636 C 0.83303 1.00549 0.45033 0.0
C637 C 0.85025 0.07005 0.42537 0.0
C638 C 0.8755 0.09059 0.53052 0.0
H639 H 0.81045 1.01398 0.30479 0.0
H640 H 0.8465 0.08615 0.37175 0.0
S641 S 0.89395 0.04484 0.74013 0.0
N642 N 0.86304 1.00667 0.62898 0.0
N643 N 0.90192 0.08463 0.70436 0.0
C644 C 0.87903 0.06793 0.59703 0.0
C645 C 0.8579 1.02551 0.55634 0.0
C646 C 0.10584 0.8328 0.55336 0.0
C647 C 0.083 0.82834 0.48937 0.0
C648 C 0.12388 0.84133 0.49471 0.0
C649 C 0.11982 0.84567 0.36927 0.0
H650 H 0.11017 0.83066 0.65165 0.0
H651 H 0.14153 0.84562 0.55011 0.0
S652 S 0.06194 0.83308 0.15284 0.0
N653 N 0.05651 0.82656 0.28893 0.0
N654 N 0.09038 0.84216 0.17791 0.0
C655 C 0.09675 0.84031 0.30211 0.0
C656 C 0.07837 0.83178 0.36228 0.0
loop_
_geom_bond_atom_site_label_1
_geom_bond_atom_site_label_2
_geom_bond_distance
_geom_bond_site_symmetry_2
_ccdc_geom_bond_type
Tb0 C9 2.764 . S
Tb0 O10 2.325 1_556 S
Tb0 O13 2.303 . S
Tb0 O17 2.322 . S
Tb0 O18 2.349 1_556 S
Tb0 O21 2.415 . S
Tb0 O22 2.399 1_556 S
Tb1 O11 2.322 . S
Tb1 O12 2.349 1_554 S
Tb1 O14 2.415 . S
Tb1 O15 2.399 1_554 S
Tb1 O16 2.325 1_554 S
Tb1 O19 2.303 . S
Tb1 C30 2.764 . S
C2 O18 1.261 . S
C2 O19 1.257 . S
C3 C6 1.358 1_456 S
C3 C7 1.332 . S
C3 C9 1.504 . S
C4 C5 1.373 . S
C4 C8 1.308 1_655 S
C5 C4 1.373 . S
C5 C6 1.429 1_556 S
C5 H32 0.932 1_556 S
C6 C3 1.358 1_654 S
C6 C5 1.429 1_554 S
C6 H33 0.930 . S
C7 C3 1.332 . S
C7 C8 1.394 . S
C7 H34 0.932 . S
C8 C4 1.308 1_455 S
C8 C7 1.394 . S
C8 H35 0.929 . S
C9 Tb0 2.764 . S
C9 C3 1.504 . S
C9 O21 1.239 . S
C9 O22 1.263 1_556 S
O10 Tb0 2.325 1_554 S
O10 C20 1.236 . S
O11 Tb1 2.322 . S
O11 C20 1.257 . S
O12 Tb1 2.349 1_556 S
O12 C23 1.261 . S
O13 Tb0 2.303 . S
O13 C23 1.257 . S
O14 Tb1 2.415 . S
O14 C30 1.239 . S
O15 Tb1 2.399 1_556 S
O15 C30 1.263 1_556 S
O16 Tb1 2.325 1_556 S
O16 C31 1.236 . S
O17 Tb0 2.322 . S
O17 C31 1.257 . S
O18 Tb0 2.349 1_554 S
O18 C2 1.261 . S
O19 Tb1 2.303 . S
O19 C2 1.257 . S
C20 O10 1.236 . S
C20 O11 1.257 . S
O21 Tb0 2.415 . S
O21 C9 1.239 . S
O22 Tb0 2.399 1_554 S
O22 C9 1.263 1_554 S
C23 O12 1.261 . S
C23 O13 1.257 . S
C24 C27 1.358 1_554 S
C24 C28 1.332 . S
C24 C30 1.504 . S
C25 C26 1.373 . S
C25 C29 1.308 . S
C26 C25 1.373 . S
C26 C27 1.429 1_554 S
C26 H36 0.932 1_554 S
C27 C24 1.358 1_556 S
C27 C26 1.429 1_556 S
C27 H37 0.930 . S
C28 C24 1.332 . S
C28 C29 1.394 . S
C28 H38 0.932 . S
C29 C25 1.308 . S
C29 C28 1.394 . S
C29 H39 0.929 . S
C30 Tb1 2.764 . S
C30 O14 1.239 . S
C30 O15 1.263 1_554 S
C30 C24 1.504 . S
C31 O16 1.236 . S
C31 O17 1.257 . S
H32 C5 0.932 1_554 S
H33 C6 0.930 . S
H34 C7 0.932 . S
H35 C8 0.929 . S
H36 C26 0.932 1_556 S
H37 C27 0.930 . S
H38 C28 0.932 . S
H39 C29 0.929 . S
Tb40 C49 2.764 . S
Tb40 O50 2.325 1_554 S
Tb40 O53 2.303 . S
Tb40 O57 2.322 . S
Tb40 O58 2.349 1_554 S
Tb40 O61 2.415 . S
Tb40 O62 2.399 1_554 S
Tb41 O51 2.322 . S
Tb41 O52 2.349 . S
Tb41 O54 2.415 . S
Tb41 O55 2.399 . S
Tb41 O56 2.325 . S
Tb41 O59 2.303 1_554 S
Tb41 C70 2.764 . S
C42 O58 1.261 . S
C42 O59 1.257 . S
C43 C46 1.358 1_554 S
C43 C47 1.332 . S
C43 C49 1.504 . S
C44 C45 1.373 1_554 S
C44 C48 1.308 . S
C45 C44 1.373 1_556 S
C45 C46 1.429 . S
C45 H72 0.932 . S
C46 C43 1.358 1_556 S
C46 C45 1.429 . S
C46 H73 0.930 . S
C47 C43 1.332 . S
C47 C48 1.394 . S
C47 H74 0.932 . S
C48 C44 1.308 . S
C48 C47 1.394 . S
C48 H75 0.929 . S
C49 Tb40 2.764 . S
C49 C43 1.504 . S
C49 O61 1.239 . S
C49 O62 1.263 1_554 S
O50 Tb40 2.325 1_556 S
O50 C60 1.236 1_556 S
O51 Tb41 2.322 . S
O51 C60 1.257 . S
O52 Tb41 2.349 . S
O52 C63 1.261 . S
O53 Tb40 2.303 . S
O53 C63 1.257 . S
O54 Tb41 2.415 . S
O54 C70 1.239 . S
O55 Tb41 2.399 . S
O55 C70 1.263 . S
O56 Tb41 2.325 . S
O56 C71 1.236 . S
O57 Tb40 2.322 . S
O57 C71 1.257 . S
O58 Tb40 2.349 1_556 S
O58 C42 1.261 . S
O59 Tb41 2.303 1_556 S
O59 C42 1.257 . S
C60 O50 1.236 1_554 S
C60 O51 1.257 . S
O61 Tb40 2.415 . S
O61 C49 1.239 . S
O62 Tb40 2.399 1_556 S
O62 C49 1.263 1_556 S
C63 O52 1.261 . S
C63 O53 1.257 . S
C64 C67 1.358 . S
C64 C68 1.332 . S
C64 C70 1.504 . S
C65 C66 1.373 . S
C65 C69 1.308 . S
C66 C65 1.373 . S
C66 C67 1.429 . S
C66 H76 0.932 . S
C67 C64 1.358 . S
C67 C66 1.429 . S
C67 H77 0.930 . S
C68 C64 1.332 . S
C68 C69 1.394 . S
C68 H78 0.932 1_554 S
C69 C65 1.308 . S
C69 C68 1.394 . S
C69 H79 0.929 1_554 S
C70 Tb41 2.764 . S
C70 O54 1.239 . S
C70 O55 1.263 . S
C70 C64 1.504 . S
C71 O56 1.236 . S
C71 O57 1.257 . S
H72 C45 0.932 . S
H73 C46 0.930 . S
H74 C47 0.932 . S
H75 C48 0.929 . S
H76 C66 0.932 . S
H77 C67 0.930 . S
H78 C68 0.932 1_556 S
H79 C69 0.929 1_556 S
Tb80 C89 2.764 . S
Tb80 O90 2.325 . S
Tb80 O93 2.303 . S
Tb80 O97 2.322 . S
Tb80 O98 2.349 . S
Tb80 O101 2.415 . S
Tb80 O102 2.399 . S
Tb81 O91 2.322 . S
Tb81 O92 2.349 1_554 S
Tb81 O94 2.415 . S
Tb81 O95 2.399 1_545 S
Tb81 O96 2.325 . S
Tb81 O99 2.303 . S
Tb81 C110 2.764 . S
C82 O98 1.261 . S
C82 O99 1.257 . S
C83 C86 1.358 . S
C83 C87 1.332 . S
C83 C89 1.504 . S
C84 C85 1.373 . S
C84 C88 1.308 . S
C85 C84 1.373 . S
C85 C86 1.429 . S
C85 H112 0.932 . S
C86 C83 1.358 . S
C86 C85 1.429 . S
C86 H113 0.930 . S
C87 C83 1.332 . S
C87 C88 1.394 . S
C87 H114 0.932 . S
C88 C84 1.308 . S
C88 C87 1.394 . S
C88 H115 0.929 . S
C89 Tb80 2.764 . S
C89 C83 1.504 . S
C89 O101 1.239 . S
C89 O102 1.263 . S
O90 Tb80 2.325 . S
O90 C100 1.236 . S
O91 Tb81 2.322 . S
O91 C100 1.257 . S
O92 Tb81 2.349 1_556 S
O92 C103 1.263 1_556 S
O93 Tb80 2.303 . S
O93 C103 1.262 . S
O94 Tb81 2.415 . S
O94 C110 1.239 . S
O95 Tb81 2.399 1_565 S
O95 C110 1.263 1_565 S
O96 Tb81 2.325 . S
O96 C111 1.236 . S
O97 Tb80 2.322 . S
O97 C111 1.257 . S
O98 Tb80 2.349 . S
O98 C82 1.261 . S
O99 Tb81 2.303 . S
O99 C82 1.257 . S
C100 O90 1.236 . S
C100 O91 1.257 . S
O101 Tb80 2.415 . S
O101 C89 1.239 . S
O102 Tb80 2.399 . S
O102 C89 1.263 . S
C103 O92 1.263 1_554 S
C103 O93 1.262 . S
C104 C107 1.358 . S
C104 C108 1.332 1_565 S
C104 C110 1.504 1_565 S
C105 C106 1.373 . S
C105 C109 1.308 . S
C106 C105 1.373 . S
C106 C107 1.429 . S
C106 H116 0.932 1_554 S
C107 C104 1.358 . S
C107 C106 1.429 . S
C107 H117 0.930 1_554 S
C108 C104 1.332 1_545 S
C108 C109 1.394 1_545 S
C108 H118 0.932 . S
C109 C105 1.308 . S
C109 C108 1.394 1_565 S
C109 H119 0.929 . S
C110 Tb81 2.764 . S
C110 O94 1.239 . S
C110 O95 1.263 1_545 S
C110 C104 1.504 1_545 S
C111 O96 1.236 . S
C111 O97 1.257 . S
H112 C85 0.932 . S
H113 C86 0.930 . S
H114 C87 0.932 . S
H115 C88 0.929 . S
H116 C106 0.932 1_556 S
H117 C107 0.930 1_556 S
H118 C108 0.932 . S
H119 C109 0.929 . S
Tb120 C129 2.764 . S
Tb120 O130 2.325 . S
Tb120 O133 2.303 . S
Tb120 O137 2.322 . S
Tb120 O138 2.349 . S
Tb120 O141 2.415 . S
Tb120 O142 2.399 . S
Tb121 O131 2.322 . S
Tb121 O132 2.349 . S
Tb121 O134 2.415 . S
Tb121 O135 2.399 . S
Tb121 O136 2.325 . S
Tb121 O139 2.303 . S
Tb121 C150 2.764 . S
C122 O138 1.261 . S
C122 O139 1.257 . S
C123 C126 1.358 . S
C123 C127 1.332 . S
C123 C129 1.504 . S
C124 C125 1.373 . S
C124 C128 1.308 . S
C125 C124 1.373 . S
C125 C126 1.429 . S
C125 H152 0.932 . S
C126 C123 1.358 . S
C126 C125 1.429 . S
C126 H153 0.930 . S
C127 C123 1.332 . S
C127 C128 1.394 . S
C127 H154 0.932 . S
C128 C124 1.308 . S
C128 C127 1.394 . S
C128 H155 0.929 . S
C129 Tb120 2.764 . S
C129 C123 1.504 . S
C129 O141 1.239 . S
C129 O142 1.263 . S
O130 Tb120 2.325 . S
O130 C140 1.236 . S
O131 Tb121 2.322 . S
O131 C140 1.257 . S
O132 Tb121 2.349 . S
O132 C143 1.261 . S
O133 Tb120 2.303 . S
O133 C143 1.257 . S
O134 Tb121 2.415 . S
O134 C150 1.239 . S
O135 Tb121 2.399 . S
O135 C150 1.263 . S
O136 Tb121 2.325 . S
O136 C151 1.236 . S
O137 Tb120 2.322 . S
O137 C151 1.257 . S
O138 Tb120 2.349 . S
O138 C122 1.261 . S
O139 Tb121 2.303 . S
O139 C122 1.257 . S
C140 O130 1.236 . S
C140 O131 1.257 . S
O141 Tb120 2.415 . S
O141 C129 1.239 . S
O142 Tb120 2.399 . S
O142 C129 1.263 . S
C143 O132 1.261 . S
C143 O133 1.257 . S
C144 C147 1.358 . S
C144 C148 1.332 . S
C144 C150 1.504 . S
C145 C146 1.373 . S
C145 C149 1.308 . S
C146 C145 1.373 . S
C146 C147 1.429 . S
C146 H156 0.932 . S
C147 C144 1.358 . S
C147 C146 1.429 . S
C147 H157 0.930 . S
C148 C144 1.332 . S
C148 C149 1.394 . S
C148 H158 0.932 . S
C149 C145 1.308 . S
C149 C148 1.394 . S
C149 H159 0.929 . S
C150 Tb121 2.764 . S
C150 O134 1.239 . S
C150 O135 1.263 . S
C150 C144 1.504 . S
C151 O136 1.236 . S
C151 O137 1.257 . S
H152 C125 0.932 . S
H153 C126 0.930 . S
H154 C127 0.932 . S
H155 C128 0.929 . S
H156 C146 0.932 . S
H157 C147 0.930 . S
H158 C148 0.932 . S
H159 C149 0.929 . S
Tb160 C169 2.764 . S
Tb160 O170 2.325 . S
Tb160 O173 2.303 . S
Tb160 O177 2.322 . S
Tb160 O178 2.349 1_554 S
Tb160 O181 2.415 . S
Tb160 O182 2.399 . S
Tb161 O171 2.322 . S
Tb161 O172 2.349 . S
Tb161 O174 2.415 . S
Tb161 O175 2.399 . S
Tb161 O176 2.325 . S
Tb161 O179 2.303 . S
Tb161 C190 2.764 . S
C162 O178 1.261 . S
C162 O179 1.257 1_556 S
C163 C166 1.358 . S
C163 C167 1.332 . S
C163 C169 1.504 . S
C164 C165 1.373 . S
C164 C168 1.308 . S
C165 C164 1.373 . S
C165 C166 1.429 . S
C165 H192 0.932 . S
C166 C163 1.358 . S
C166 C165 1.429 . S
C166 H193 0.930 . S
C167 C163 1.332 . S
C167 C168 1.394 . S
C167 H194 0.932 . S
C168 C164 1.308 . S
C168 C167 1.394 . S
C168 H195 0.929 . S
C169 Tb160 2.764 . S
C169 C163 1.504 . S
C169 O181 1.239 . S
C169 O182 1.263 . S
O170 Tb160 2.325 . S
O170 C180 1.236 . S
O171 Tb161 2.322 . S
O171 C180 1.257 . S
O172 Tb161 2.349 . S
O172 C183 1.261 . S
O173 Tb160 2.303 . S
O173 C183 1.257 . S
O174 Tb161 2.415 . S
O174 C190 1.239 . S
O175 Tb161 2.399 . S
O175 C190 1.263 . S
O176 Tb161 2.325 . S
O176 C191 1.236 . S
O177 Tb160 2.322 . S
O177 C191 1.257 . S
O178 Tb160 2.349 1_556 S
O178 C162 1.261 . S
O179 Tb161 2.303 . S
O179 C162 1.257 1_554 S
C180 O170 1.236 . S
C180 O171 1.257 . S
O181 Tb160 2.415 . S
O181 C169 1.239 . S
O182 Tb160 2.399 . S
O182 C169 1.263 . S
C183 O172 1.261 . S
C183 O173 1.257 . S
C184 C187 1.358 . S
C184 C188 1.332 . S
C184 C190 1.504 . S
C185 C186 1.373 . S
C185 C189 1.308 . S
C186 C185 1.373 . S
C186 C187 1.429 . S
C186 H196 0.932 . S
C187 C184 1.358 . S
C187 C186 1.429 . S
C187 H197 0.930 . S
C188 C184 1.332 . S
C188 C189 1.394 . S
C188 H198 0.932 . S
C189 C185 1.308 . S
C189 C188 1.394 . S
C189 H199 0.929 . S
C190 Tb161 2.764 . S
C190 O174 1.239 . S
C190 O175 1.263 . S
C190 C184 1.504 . S
C191 O176 1.236 . S
C191 O177 1.257 . S
H192 C165 0.932 . S
H193 C166 0.930 . S
H194 C167 0.932 . S
H195 C168 0.929 . S
H196 C186 0.932 . S
H197 C187 0.930 . S
H198 C188 0.932 . S
H199 C189 0.929 . S
Tb200 C209 2.764 . S
Tb200 O210 2.325 . S
Tb200 O213 2.303 1_554 S
Tb200 O217 2.322 . S
Tb200 O218 2.349 . S
Tb200 O221 2.415 . S
Tb200 O222 2.399 . S
Tb201 O211 2.322 1_556 S
Tb201 O212 2.349 . S
Tb201 O214 2.415 1_556 S
Tb201 O215 2.399 . S
Tb201 O216 2.325 . S
Tb201 O219 2.303 1_556 S
Tb201 C230 2.764 . S
C202 O218 1.261 . S
C202 O219 1.257 . S
C203 C206 1.358 . S
C203 C207 1.332 . S
C203 C209 1.504 . S
C204 C205 1.373 . S
C204 C208 1.308 . S
C205 C204 1.373 . S
C205 C206 1.429 . S
C205 H232 0.932 . S
C206 C203 1.358 . S
C206 C205 1.429 . S
C206 H233 0.930 . S
C207 C203 1.332 . S
C207 C208 1.394 . S
C207 H234 0.932 1_554 S
C208 C204 1.308 . S
C208 C207 1.394 . S
C208 H235 0.929 1_554 S
C209 Tb200 2.764 . S
C209 C203 1.504 . S
C209 O221 1.239 . S
C209 O222 1.263 . S
O210 Tb200 2.325 . S
O210 C220 1.236 . S
O211 Tb201 2.322 1_554 S
O211 C220 1.257 . S
O212 Tb201 2.349 . S
O212 C223 1.261 . S
O213 Tb200 2.303 1_556 S
O213 C223 1.257 . S
O214 Tb201 2.415 1_554 S
O214 C230 1.239 1_554 S
O215 Tb201 2.399 . S
O215 C230 1.263 . S
O216 Tb201 2.325 . S
O216 C231 1.236 1_556 S
O217 Tb200 2.322 . S
O217 C231 1.257 . S
O218 Tb200 2.349 . S
O218 C202 1.261 . S
O219 Tb201 2.303 1_554 S
O219 C202 1.257 . S
C220 O210 1.236 . S
C220 O211 1.257 . S
O221 Tb200 2.415 . S
O221 C209 1.239 . S
O222 Tb200 2.399 . S
O222 C209 1.263 . S
C223 O212 1.261 . S
C223 O213 1.257 . S
C224 C227 1.358 . S
C224 C228 1.332 1_556 S
C224 C230 1.504 . S
C225 C226 1.373 . S
C225 C229 1.308 1_556 S
C226 C225 1.373 . S
C226 C227 1.429 . S
C226 H236 0.932 . S
C227 C224 1.358 . S
C227 C226 1.429 . S
C227 H237 0.930 . S
C228 C224 1.332 1_554 S
C228 C229 1.394 . S
C228 H238 0.932 . S
C229 C225 1.308 1_554 S
C229 C228 1.394 . S
C229 H239 0.929 . S
C230 Tb201 2.764 . S
C230 O214 1.239 1_556 S
C230 O215 1.263 . S
C230 C224 1.504 . S
C231 O216 1.236 1_554 S
C231 O217 1.257 . S
H232 C205 0.932 . S
H233 C206 0.930 . S
H234 C207 0.932 1_556 S
H235 C208 0.929 1_556 S
H236 C226 0.932 . S
H237 C227 0.930 . S
H238 C228 0.932 . S
H239 C229 0.929 . S
Tb240 C249 2.764 . S
Tb240 O250 2.325 . S
Tb240 O253 2.303 . S
Tb240 O257 2.322 . S
Tb240 O258 2.349 . S
Tb240 O261 2.415 . S
Tb240 O262 2.399 . S
Tb241 O251 2.322 . S
Tb241 O252 2.349 . S
Tb241 O254 2.415 . S
Tb241 O255 2.399 . S
Tb241 O256 2.325 . S
Tb241 O259 2.303 . S
Tb241 C270 2.764 . S
C242 O258 1.261 . S
C242 O259 1.257 . S
C243 C246 1.358 . S
C243 C247 1.332 . S
C243 C249 1.504 . S
C244 C245 1.373 . S
C244 C248 1.308 . S
C245 C244 1.373 . S
C245 C246 1.429 1_554 S
C245 H272 0.932 . S
C246 C243 1.358 . S
C246 C245 1.429 1_556 S
C246 H273 0.930 . S
C247 C243 1.332 . S
C247 C248 1.394 1_556 S
C247 H274 0.932 . S
C248 C244 1.308 . S
C248 C247 1.394 1_554 S
C248 H275 0.929 . S
C249 Tb240 2.764 . S
C249 C243 1.504 . S
C249 O261 1.239 . S
C249 O262 1.263 . S
O250 Tb240 2.325 . S
O250 C260 1.236 . S
O251 Tb241 2.322 . S
O251 C260 1.257 . S
O252 Tb241 2.349 . S
O252 C263 1.261 . S
O253 Tb240 2.303 . S
O253 C263 1.257 . S
O254 Tb241 2.415 . S
O254 C270 1.239 . S
O255 Tb241 2.399 . S
O255 C270 1.263 . S
O256 Tb241 2.325 . S
O256 C271 1.236 . S
O257 Tb240 2.322 . S
O257 C271 1.257 . S
O258 Tb240 2.349 . S
O258 C242 1.261 . S
O259 Tb241 2.303 . S
O259 C242 1.257 . S
C260 O250 1.236 . S
C260 O251 1.257 . S
O261 Tb240 2.415 . S
O261 C249 1.239 . S
O262 Tb240 2.399 . S
O262 C249 1.263 . S
C263 O252 1.261 . S
C263 O253 1.257 . S
C264 C267 1.358 . S
C264 C268 1.332 . S
C264 C270 1.504 . S
C265 C266 1.373 . S
C265 C269 1.308 . S
C266 C265 1.373 . S
C266 C267 1.429 . S
C266 H276 0.932 . S
C267 C264 1.358 . S
C267 C266 1.429 . S
C267 H277 0.930 . S
C268 C264 1.332 . S
C268 C269 1.394 . S
C268 H278 0.932 . S
C269 C265 1.308 . S
C269 C268 1.394 . S
C269 H279 0.929 . S
C270 Tb241 2.764 . S
C270 O254 1.239 . S
C270 O255 1.263 . S
C270 C264 1.504 . S
C271 O256 1.236 . S
C271 O257 1.257 . S
H272 C245 0.932 . S
H273 C246 0.930 . S
H274 C247 0.932 . S
H275 C248 0.929 . S
H276 C266 0.932 . S
H277 C267 0.930 . S
H278 C268 0.932 . S
H279 C269 0.929 . S
Tb280 C289 2.764 . S
Tb280 O290 2.325 . S
Tb280 O293 2.303 . S
Tb280 O297 2.322 . S
Tb280 O298 2.349 . S
Tb280 O301 2.415 . S
Tb280 O302 2.399 . S
Tb281 O291 2.322 . S
Tb281 O292 2.349 . S
Tb281 O294 2.415 . S
Tb281 O295 2.399 . S
Tb281 O296 2.325 . S
Tb281 O299 2.303 . S
Tb281 C310 2.764 . S
C282 O298 1.261 . S
C282 O299 1.257 . S
C283 C286 1.358 . S
C283 C287 1.332 . S
C283 C289 1.504 . S
C284 C285 1.373 1_455 S
C284 C288 1.308 . S
C285 C284 1.373 1_655 S
C285 C286 1.429 . S
C285 H312 0.932 . S
C286 C283 1.358 . S
C286 C285 1.429 . S
C286 H313 0.930 . S
C287 C283 1.332 . S
C287 C288 1.394 1_655 S
C287 H314 0.932 . S
C288 C284 1.308 . S
C288 C287 1.394 1_455 S
C288 H315 0.929 . S
C289 Tb280 2.764 . S
C289 C283 1.504 . S
C289 O301 1.239 . S
C289 O302 1.263 . S
O290 Tb280 2.325 . S
O290 C300 1.236 . S
O291 Tb281 2.322 . S
O291 C300 1.257 . S
O292 Tb281 2.349 . S
O292 C303 1.261 . S
O293 Tb280 2.303 . S
O293 C303 1.257 . S
O294 Tb281 2.415 . S
O294 C310 1.239 . S
O295 Tb281 2.399 . S
O295 C310 1.263 . S
O296 Tb281 2.325 . S
O296 C311 1.236 . S
O297 Tb280 2.322 . S
O297 C311 1.257 . S
O298 Tb280 2.349 . S
O298 C282 1.261 . S
O299 Tb281 2.303 . S
O299 C282 1.257 . S
C300 O290 1.236 . S
C300 O291 1.257 . S
O301 Tb280 2.415 . S
O301 C289 1.239 . S
O302 Tb280 2.399 . S
O302 C289 1.263 . S
C303 O292 1.261 . S
C303 O293 1.257 . S
C304 C307 1.358 . S
C304 C308 1.332 . S
C304 C310 1.504 . S
C305 C306 1.373 . S
C305 C309 1.308 . S
C306 C305 1.373 . S
C306 C307 1.429 . S
C306 H316 0.932 . S
C307 C304 1.358 . S
C307 C306 1.429 . S
C307 H317 0.930 . S
C308 C304 1.332 . S
C308 C309 1.394 . S
C308 H318 0.932 . S
C309 C305 1.308 . S
C309 C308 1.394 . S
C309 H319 0.929 . S
C310 Tb281 2.764 . S
C310 O294 1.239 . S
C310 O295 1.263 . S
C310 C304 1.504 . S
C311 O296 1.236 . S
C311 O297 1.257 . S
H312 C285 0.932 . S
H313 C286 0.930 . S
H314 C287 0.932 . S
H315 C288 0.929 . S
H316 C306 0.932 . S
H317 C307 0.930 . S
H318 C308 0.932 . S
H319 C309 0.929 . S
Tb320 C329 2.764 . S
Tb320 O330 2.325 . S
Tb320 O333 2.303 . S
Tb320 O337 2.322 . S
Tb320 O338 2.349 . S
Tb320 O341 2.415 . S
Tb320 O342 2.399 . S
Tb321 O331 2.322 . S
Tb321 O332 2.349 . S
Tb321 O334 2.415 . S
Tb321 O335 2.399 . S
Tb321 O336 2.325 . S
Tb321 O339 2.303 . S
Tb321 C350 2.764 . S
C322 O338 1.261 . S
C322 O339 1.257 . S
C323 C326 1.358 . S
C323 C327 1.332 . S
C323 C329 1.504 . S
C324 C325 1.373 . S
C324 C328 1.308 . S
C325 C324 1.373 . S
C325 C326 1.429 . S
C325 H352 0.932 . S
C326 C323 1.358 . S
C326 C325 1.429 . S
C326 H353 0.930 . S
C327 C323 1.332 . S
C327 C328 1.394 . S
C327 H354 0.932 . S
C328 C324 1.308 . S
C328 C327 1.394 . S
C328 H355 0.929 . S
C329 Tb320 2.764 . S
C329 C323 1.504 . S
C329 O341 1.239 . S
C329 O342 1.263 . S
O330 Tb320 2.325 . S
O330 C340 1.236 . S
O331 Tb321 2.322 . S
O331 C340 1.257 . S
O332 Tb321 2.349 . S
O332 C343 1.261 . S
O333 Tb320 2.303 . S
O333 C343 1.257 . S
O334 Tb321 2.415 . S
O334 C350 1.239 . S
O335 Tb321 2.399 . S
O335 C350 1.263 . S
O336 Tb321 2.325 . S
O336 C351 1.236 . S
O337 Tb320 2.322 . S
O337 C351 1.257 . S
O338 Tb320 2.349 . S
O338 C322 1.261 . S
O339 Tb321 2.303 . S
O339 C322 1.257 . S
C340 O330 1.236 . S
C340 O331 1.257 . S
O341 Tb320 2.415 . S
O341 C329 1.239 . S
O342 Tb320 2.399 . S
O342 C329 1.263 . S
C343 O332 1.261 . S
C343 O333 1.257 . S
C344 C347 1.358 1_655 S
C344 C348 1.332 . S
C344 C350 1.504 . S
C345 C346 1.373 . S
C345 C349 1.308 . S
C346 C345 1.373 . S
C346 C347 1.429 . S
C346 H356 0.932 . S
C347 C344 1.358 1_455 S
C347 C346 1.429 . S
C347 H357 0.930 1_455 S
C348 C344 1.332 . S
C348 C349 1.394 1_655 S
C348 H358 0.932 . S
C349 C345 1.308 . S
C349 C348 1.394 1_455 S
C349 H359 0.929 . S
C350 Tb321 2.764 . S
C350 O334 1.239 . S
C350 O335 1.263 . S
C350 C344 1.504 . S
C351 O336 1.236 . S
C351 O337 1.257 . S
H352 C325 0.932 . S
H353 C326 0.930 . S
H354 C327 0.932 . S
H355 C328 0.929 . S
H356 C346 0.932 . S
H357 C347 0.930 1_655 S
H358 C348 0.932 . S
H359 C349 0.929 . S
C360 C361 1.369 . S
C360 C362 1.419 . S
C360 H364 0.930 . S
C361 C360 1.369 . S
C361 C370 1.429 . S
C362 C360 1.419 . S
C362 C363 1.363 . S
C362 H365 0.929 . S
C363 C362 1.363 . S
C363 C369 1.428 . S
H364 C360 0.930 . S
H365 C362 0.929 . S
S366 N367 1.613 . S
S366 N368 1.610 . S
N367 S366 1.613 . S
N367 C370 1.350 . S
N368 S366 1.610 . S
N368 C369 1.351 . S
C369 C363 1.428 . S
C369 N368 1.351 . S
C369 C370 1.434 . S
C370 C361 1.429 . S
C370 N367 1.350 . S
C370 C369 1.434 . S
C371 C372 1.369 . S
C371 C373 1.419 . S
C371 H375 0.930 . S
C372 C371 1.369 . S
C372 C381 1.429 . S
C373 C371 1.419 . S
C373 C374 1.363 . S
C373 H376 0.929 . S
C374 C373 1.363 . S
C374 C380 1.428 . S
H375 C371 0.930 . S
H376 C373 0.929 . S
S377 N378 1.613 . S
S377 N379 1.610 . S
N378 S377 1.613 . S
N378 C381 1.350 . S
N379 S377 1.610 . S
N379 C380 1.351 . S
C380 C374 1.428 . S
C380 N379 1.351 . S
C380 C381 1.434 . S
C381 C372 1.429 . S
C381 N378 1.350 . S
C381 C380 1.434 . S
C382 C383 1.369 . S
C382 C384 1.419 . S
C382 H386 0.930 . S
C383 C382 1.369 . S
C383 C392 1.429 . S
C384 C382 1.419 . S
C384 C385 1.363 . S
C384 H387 0.929 . S
C385 C384 1.363 . S
C385 C391 1.428 . S
H386 C382 0.930 . S
H387 C384 0.929 . S
S388 N389 1.613 . S
S388 N390 1.610 . S
N389 S388 1.613 . S
N389 C392 1.350 . S
N390 S388 1.610 . S
N390 C391 1.351 . S
C391 C385 1.428 . S
C391 N390 1.351 . S
C391 C392 1.434 . S
C392 C383 1.429 . S
C392 N389 1.350 . S
C392 C391 1.434 . S
C393 C394 1.369 . S
C393 C395 1.419 . S
C393 H397 0.930 . S
C394 C393 1.369 . S
C394 C403 1.429 . S
C395 C393 1.419 . S
C395 C396 1.363 . S
C395 H398 0.929 1_556 S
C396 C395 1.363 . S
C396 C402 1.428 . S
H397 C393 0.930 . S
H398 C395 0.929 1_554 S
S399 N400 1.613 . S
S399 N401 1.610 . S
N400 S399 1.613 . S
N400 C403 1.350 . S
N401 S399 1.610 . S
N401 C402 1.351 . S
C402 C396 1.428 . S
C402 N401 1.351 . S
C402 C403 1.434 . S
C403 C394 1.429 . S
C403 N400 1.350 . S
C403 C402 1.434 . S
C404 C405 1.369 . S
C404 C406 1.419 . S
C404 H408 0.930 . S
C405 C404 1.369 . S
C405 C414 1.429 . S
C406 C404 1.419 . S
C406 C407 1.363 . S
C406 H409 0.929 . S
C407 C406 1.363 . S
C407 C413 1.428 . S
H408 C404 0.930 . S
H409 C406 0.929 . S
S410 N411 1.613 . S
S410 N412 1.610 . S
N411 S410 1.613 . S
N411 C414 1.350 . S
N412 S410 1.610 . S
N412 C413 1.351 . S
C413 C407 1.428 . S
C413 N412 1.351 . S
C413 C414 1.434 . S
C414 C405 1.429 . S
C414 N411 1.350 . S
C414 C413 1.434 . S
C415 C416 1.369 . S
C415 C417 1.419 . S
C415 H419 0.930 . S
C416 C415 1.369 . S
C416 C425 1.429 . S
C417 C415 1.419 . S
C417 C418 1.363 . S
C417 H420 0.929 . S
C418 C417 1.363 . S
C418 C424 1.428 . S
H419 C415 0.930 . S
H420 C417 0.929 . S
S421 N422 1.613 . S
S421 N423 1.610 . S
N422 S421 1.613 . S
N422 C425 1.350 . S
N423 S421 1.610 . S
N423 C424 1.351 . S
C424 C418 1.428 . S
C424 N423 1.351 . S
C424 C425 1.434 . S
C425 C416 1.429 . S
C425 N422 1.350 . S
C425 C424 1.434 . S
C426 C427 1.369 . S
C426 C428 1.419 . S
C426 H430 0.930 . S
C427 C426 1.369 . S
C427 C436 1.429 . S
C428 C426 1.419 . S
C428 C429 1.363 . S
C428 H431 0.929 . S
C429 C428 1.363 . S
C429 C435 1.428 . S
H430 C426 0.930 . S
H431 C428 0.929 . S
S432 N433 1.613 . S
S432 N434 1.610 1_554 S
N433 S432 1.613 . S
N433 C436 1.350 . S
N434 S432 1.610 1_556 S
N434 C435 1.351 1_556 S
C435 C429 1.428 . S
C435 N434 1.351 1_554 S
C435 C436 1.434 . S
C436 C427 1.429 . S
C436 N433 1.350 . S
C436 C435 1.434 . S
C437 C438 1.369 . S
C437 C439 1.419 . S
C437 H441 0.930 . S
C438 C437 1.369 . S
C438 C447 1.429 . S
C439 C437 1.419 . S
C439 C440 1.363 . S
C439 H442 0.929 1_554 S
C440 C439 1.363 . S
C440 C446 1.428 . S
H441 C437 0.930 . S
H442 C439 0.929 1_556 S
S443 N444 1.613 . S
S443 N445 1.610 . S
N444 S443 1.613 . S
N444 C447 1.350 . S
N445 S443 1.610 . S
N445 C446 1.351 . S
C446 C440 1.428 . S
C446 N445 1.351 . S
C446 C447 1.434 . S
C447 C438 1.429 . S
C447 N444 1.350 . S
C447 C446 1.434 . S
C448 C449 1.369 . S
C448 C450 1.419 . S
C448 H452 0.930 . S
C449 C448 1.369 . S
C449 C458 1.429 . S
C450 C448 1.419 . S
C450 C451 1.363 . S
C450 H453 0.929 1_554 S
C451 C450 1.363 . S
C451 C457 1.428 . S
H452 C448 0.930 . S
H453 C450 0.929 1_556 S
S454 N455 1.613 . S
S454 N456 1.610 . S
N455 S454 1.613 . S
N455 C458 1.350 . S
N456 S454 1.610 . S
N456 C457 1.351 . S
C457 C451 1.428 . S
C457 N456 1.351 . S
C457 C458 1.434 . S
C458 C449 1.429 . S
C458 N455 1.350 . S
C458 C457 1.434 . S
C459 C460 1.369 1_556 S
C459 C461 1.419 . S
C459 H463 0.930 . S
C460 C459 1.369 1_554 S
C460 C469 1.429 . S
C461 C459 1.419 . S
C461 C462 1.363 1_556 S
C461 H464 0.929 . S
C462 C461 1.363 1_554 S
C462 C468 1.428 . S
H463 C459 0.930 . S
H464 C461 0.929 . S
S465 N466 1.613 . S
S465 N467 1.610 . S
N466 S465 1.613 . S
N466 C469 1.350 . S
N467 S465 1.610 . S
N467 C468 1.351 . S
C468 C462 1.428 . S
C468 N467 1.351 . S
C468 C469 1.434 . S
C469 C460 1.429 . S
C469 N466 1.350 . S
C469 C468 1.434 . S
C470 C471 1.369 . S
C470 C472 1.419 . S
C470 H474 0.930 . S
C471 C470 1.369 . S
C471 C480 1.429 . S
C472 C470 1.419 . S
C472 C473 1.363 . S
C472 H475 0.929 . S
C473 C472 1.363 . S
C473 C479 1.428 . S
H474 C470 0.930 . S
H475 C472 0.929 . S
S476 N477 1.613 1_556 S
S476 N478 1.610 1_556 S
N477 S476 1.613 1_554 S
N477 C480 1.350 . S
N478 S476 1.610 1_554 S
N478 C479 1.351 . S
C479 C473 1.428 . S
C479 N478 1.351 . S
C479 C480 1.434 . S
C480 C471 1.429 . S
C480 N477 1.350 . S
C480 C479 1.434 . S
C481 C482 1.369 . S
C481 C483 1.419 . S
C481 H485 0.930 . S
C482 C481 1.369 . S
C482 C491 1.429 . S
C483 C481 1.419 . S
C483 C484 1.363 . S
C483 H486 0.929 . S
C484 C483 1.363 . S
C484 C490 1.428 . S
H485 C481 0.930 . S
H486 C483 0.929 . S
S487 N488 1.613 . S
S487 N489 1.610 . S
N488 S487 1.613 . S
N488 C491 1.350 . S
N489 S487 1.610 . S
N489 C490 1.351 . S
C490 C484 1.428 . S
C490 N489 1.351 . S
C490 C491 1.434 . S
C491 C482 1.429 . S
C491 N488 1.350 . S
C491 C490 1.434 . S
C492 C493 1.369 . S
C492 C494 1.419 . S
C492 H496 0.930 . S
C493 C492 1.369 . S
C493 C502 1.429 . S
C494 C492 1.419 . S
C494 C495 1.363 . S
C494 H497 0.929 . S
C495 C494 1.363 . S
C495 C501 1.428 . S
H496 C492 0.930 . S
H497 C494 0.929 . S
S498 N499 1.613 1_556 S
S498 N500 1.610 . S
N499 S498 1.613 1_554 S
N499 C502 1.350 . S
N500 S498 1.610 . S
N500 C501 1.351 1_556 S
C501 C495 1.428 . S
C501 N500 1.351 1_554 S
C501 C502 1.434 . S
C502 C493 1.429 . S
C502 N499 1.350 . S
C502 C501 1.434 . S
C503 C504 1.369 . S
C503 C505 1.419 . S
C503 H507 0.930 . S
C504 C503 1.369 . S
C504 C513 1.429 . S
C505 C503 1.419 . S
C505 C506 1.363 . S
C505 H508 0.929 1_655 S
C506 C505 1.363 . S
C506 C512 1.428 . S
H507 C503 0.930 . S
H508 C505 0.929 1_455 S
S509 N510 1.613 . S
S509 N511 1.610 . S
N510 S509 1.613 . S
N510 C513 1.350 . S
N511 S509 1.610 . S
N511 C512 1.351 . S
C512 C506 1.428 . S
C512 N511 1.351 . S
C512 C513 1.434 . S
C513 C504 1.429 . S
C513 N510 1.350 . S
C513 C512 1.434 . S
C514 C515 1.369 . S
C514 C516 1.419 1_556 S
C514 H518 0.930 . S
C515 C514 1.369 . S
C515 C524 1.429 . S
C516 C514 1.419 1_554 S
C516 C517 1.363 . S
C516 H519 0.929 . S
C517 C516 1.363 . S
C517 C523 1.428 1_554 S
H518 C514 0.930 . S
H519 C516 0.929 . S
S520 N521 1.613 . S
S520 N522 1.610 . S
N521 S520 1.613 . S
N521 C524 1.350 . S
N522 S520 1.610 . S
N522 C523 1.351 . S
C523 C517 1.428 1_556 S
C523 N522 1.351 . S
C523 C524 1.434 . S
C524 C515 1.429 . S
C524 N521 1.350 . S
C524 C523 1.434 . S
C525 C526 1.369 . S
C525 C527 1.419 . S
C525 H529 0.930 . S
C526 C525 1.369 . S
C526 C535 1.429 . S
C527 C525 1.419 . S
C527 C528 1.363 . S
C527 H530 0.929 1_556 S
C528 C527 1.363 . S
C528 C534 1.428 . S
H529 C525 0.930 . S
H530 C527 0.929 1_554 S
S531 N532 1.613 . S
S531 N533 1.610 . S
N532 S531 1.613 . S
N532 C535 1.350 . S
N533 S531 1.610 . S
N533 C534 1.351 . S
C534 C528 1.428 . S
C534 N533 1.351 . S
C534 C535 1.434 . S
C535 C526 1.429 . S
C535 N532 1.350 . S
C535 C534 1.434 . S
C536 C537 1.369 . S
C536 C538 1.419 . S
C536 H540 0.930 . S
C537 C536 1.369 . S
C537 C546 1.429 1_556 S
C538 C536 1.419 . S
C538 C539 1.363 . S
C538 H541 0.929 . S
C539 C538 1.363 . S
C539 C545 1.428 . S
H540 C536 0.930 . S
H541 C538 0.929 . S
S542 N543 1.613 . S
S542 N544 1.610 . S
N543 S542 1.613 . S
N543 C546 1.350 . S
N544 S542 1.610 . S
N544 C545 1.351 1_554 S
C545 C539 1.428 . S
C545 N544 1.351 1_556 S
C545 C546 1.434 1_556 S
C546 C537 1.429 1_554 S
C546 N543 1.350 . S
C546 C545 1.434 1_554 S
C547 C548 1.369 . S
C547 C549 1.419 . S
C547 H551 0.930 1_554 S
C548 C547 1.369 . S
C548 C557 1.429 . S
C549 C547 1.419 . S
C549 C550 1.363 . S
C549 H552 0.929 . S
C550 C549 1.363 . S
C550 C556 1.428 . S
H551 C547 0.930 1_556 S
H552 C549 0.929 . S
S553 N554 1.613 . S
S553 N555 1.610 . S
N554 S553 1.613 . S
N554 C557 1.350 . S
N555 S553 1.610 . S
N555 C556 1.351 . S
C556 C550 1.428 . S
C556 N555 1.351 . S
C556 C557 1.434 . S
C557 C548 1.429 . S
C557 N554 1.350 . S
C557 C556 1.434 . S
C558 C559 1.369 1_565 S
C558 C560 1.419 . S
C558 H562 0.930 . S
C559 C558 1.369 1_545 S
C559 C568 1.429 . S
C560 C558 1.419 . S
C560 C561 1.357 1_565 S
C560 H563 0.929 . S
C561 C560 1.357 1_545 S
C561 C567 1.458 . S
H562 C558 0.930 . S
H563 C560 0.929 . S
S564 N565 1.613 . S
S564 N566 1.610 . S
N565 S564 1.613 . S
N565 C568 1.350 . S
N566 S564 1.610 . S
N566 C567 1.351 . S
C567 C561 1.458 . S
C567 N566 1.351 . S
C567 C568 1.434 . S
C568 C559 1.429 . S
C568 N565 1.350 . S
C568 C567 1.434 . S
C569 C570 1.369 . S
C569 C571 1.419 . S
C569 H573 0.930 1_554 S
C570 C569 1.369 . S
C570 C579 1.429 . S
C571 C569 1.419 . S
C571 C572 1.363 . S
C571 H574 0.929 1_554 S
C572 C571 1.363 . S
C572 C578 1.428 . S
H573 C569 0.930 1_556 S
H574 C571 0.929 1_556 S
S575 N576 1.613 . S
S575 N577 1.610 . S
N576 S575 1.613 . S
N576 C579 1.350 . S
N577 S575 1.610 . S
N577 C578 1.351 . S
C578 C572 1.428 . S
C578 N577 1.351 . S
C578 C579 1.434 . S
C579 C570 1.429 . S
C579 N576 1.350 . S
C579 C578 1.434 . S
C580 C581 1.369 . S
C580 C582 1.419 . S
C580 H584 0.930 . S
C581 C580 1.369 . S
C581 C590 1.429 . S
C582 C580 1.419 . S
C582 C583 1.363 . S
C582 H585 0.929 . S
C583 C582 1.363 . S
C583 C589 1.428 . S
H584 C580 0.930 . S
H585 C582 0.929 . S
S586 N587 1.613 . S
S586 N588 1.610 . S
N587 S586 1.613 . S
N587 C590 1.350 . S
N588 S586 1.610 . S
N588 C589 1.351 . S
C589 C583 1.428 . S
C589 N588 1.351 . S
C589 C590 1.434 . S
C590 C581 1.429 . S
C590 N587 1.350 . S
C590 C589 1.434 . S
C591 C592 1.369 . S
C591 C593 1.419 . S
C591 H595 0.930 . S
C592 C591 1.369 . S
C592 C601 1.429 . S
C593 C591 1.419 . S
C593 C594 1.363 . S
C593 H596 0.929 . S
C594 C593 1.363 . S
C594 C600 1.428 . S
H595 C591 0.930 . S
H596 C593 0.929 . S
S597 N598 1.613 . S
S597 N599 1.610 . S
N598 S597 1.613 . S
N598 C601 1.350 . S
N599 S597 1.610 . S
N599 C600 1.351 . S
C600 C594 1.428 . S
C600 N599 1.351 . S
C600 C601 1.434 . S
C601 C592 1.429 . S
C601 N598 1.350 . S
C601 C600 1.434 . S
C602 C603 1.369 . S
C602 C604 1.419 . S
C602 H606 0.930 . S
C603 C602 1.369 . S
C603 C612 1.429 . S
C604 C602 1.419 . S
C604 C605 1.363 1_545 S
C604 H607 0.929 . S
C605 C604 1.363 1_565 S
C605 C611 1.428 . S
H606 C602 0.930 . S
H607 C604 0.929 . S
S608 N609 1.613 1_565 S
S608 N610 1.610 . S
N609 S608 1.613 1_545 S
N609 C612 1.350 . S
N610 S608 1.610 . S
N610 C611 1.351 . S
C611 C605 1.428 . S
C611 N610 1.351 . S
C611 C612 1.434 1_565 S
C612 C603 1.429 . S
C612 N609 1.350 . S
C612 C611 1.434 1_545 S
C613 C614 1.369 . S
C613 C615 1.419 . S
C613 H617 0.930 . S
C614 C613 1.369 . S
C614 C623 1.429 . S
C615 C613 1.419 . S
C615 C616 1.363 . S
C615 H618 0.929 1_554 S
C616 C615 1.363 . S
C616 C622 1.428 . S
H617 C613 0.930 . S
H618 C615 0.929 1_556 S
S619 N620 1.613 . S
S619 N621 1.610 . S
N620 S619 1.613 . S
N620 C623 1.350 . S
N621 S619 1.610 . S
N621 C622 1.351 . S
C622 C616 1.428 . S
C622 N621 1.351 . S
C622 C623 1.434 . S
C623 C614 1.429 . S
C623 N620 1.350 . S
C623 C622 1.434 . S
C624 C625 1.369 . S
C624 C626 1.419 . S
C624 H628 0.930 . S
C625 C624 1.369 . S
C625 C634 1.429 . S
C626 C624 1.419 . S
C626 C627 1.363 . S
C626 H629 0.929 1_554 S
C627 C626 1.363 . S
C627 C633 1.428 . S
H628 C624 0.930 . S
H629 C626 0.929 1_556 S
S630 N631 1.613 . S
S630 N632 1.610 . S
N631 S630 1.613 . S
N631 C634 1.350 . S
N632 S630 1.610 . S
N632 C633 1.351 . S
C633 C627 1.428 . S
C633 N632 1.351 . S
C633 C634 1.434 . S
C634 C625 1.429 . S
C634 N631 1.350 . S
C634 C633 1.434 . S
C635 C636 1.369 . S
C635 C637 1.419 1_565 S
C635 H639 0.930 . S
C636 C635 1.369 . S
C636 C645 1.429 1_565 S
C637 C635 1.419 1_545 S
C637 C638 1.363 . S
C637 H640 0.929 . S
C638 C637 1.363 . S
C638 C644 1.428 . S
H639 C635 0.930 . S
H640 C637 0.929 . S
S641 N642 1.613 1_545 S
S641 N643 1.610 . S
N642 S641 1.613 1_565 S
N642 C645 1.350 1_565 S
N643 S641 1.610 . S
N643 C644 1.351 . S
C644 C638 1.428 . S
C644 N643 1.351 . S
C644 C645 1.434 . S
C645 C636 1.429 1_545 S
C645 N642 1.350 1_545 S
C645 C644 1.434 . S
C646 C647 1.369 . S
C646 C648 1.419 . S
C646 H650 0.930 . S
C647 C646 1.369 . S
C647 C656 1.429 . S
C648 C646 1.419 . S
C648 C649 1.363 . S
C648 H651 0.929 . S
C649 C648 1.363 . S
C649 C655 1.428 . S
H650 C646 0.930 . S
H651 C648 0.929 . S
S652 N653 1.613 . S
S652 N654 1.610 . S
N653 S652 1.613 . S
N653 C656 1.350 . S
N654 S652 1.610 . S
N654 C655 1.351 . S
C655 C649 1.428 . S
C655 N654 1.351 . S
C655 C656 1.434 . S
C656 C647 1.429 . S
C656 N653 1.350 . S
C656 C655 1.434 . S
C361 C23 1.345 . S
C363 C2 1.350 . S
C372 C42 1.470 . S
C374 C63 1.471 . S
C383 C103 1.531 1_556 S
C385 C82 1.536 . S
C394 C122 1.346 . S
C396 C143 1.349 1_556 S
C405 C183 1.471 . S
C407 C162 1.470 . S
C416 C202 1.534 . S
C418 C223 1.539 . S
C427 C271 1.274 . S
C429 C260 1.279 1_554 S
C438 C300 1.222 . S
C440 C311 1.222 1_554 S
C449 C351 1.360 . S
C451 C340 1.371 1_554 S
C460 C231 1.983 . S
C462 C25 1.966 . S
C471 C71 2.597 . S
C473 C151 2.586 . S
C482 C105 1.334 . S
C484 C185 1.364 . S
C493 C111 1.769 . S
C495 C244 1.833 . S
C504 C303 1.819 . S
C506 C31 1.808 1_655 S
C515 C324 1.581 . S
C517 C65 1.605 . S
C526 C322 1.589 . S
C528 C4 1.547 . S
C537 C60 1.854 1_556 S
C539 C242 1.780 . S
C548 C305 1.957 1_554 S
C550 C84 1.768 . S
C559 C100 1.982 . S
C561 C124 1.942 1_545 S
C570 C180 2.597 . S
C572 C20 2.585 . S
C581 C44 1.361 . S
C583 C204 1.337 . S
C592 C343 1.580 . S
C594 C145 1.550 . S
C603 C263 1.789 . S
C605 C191 1.851 . S
C614 C284 1.964 . S
C616 C225 1.764 1_554 S
C625 C265 1.831 . S
C627 C220 1.766 . S
C636 C140 1.809 . S
C638 C282 1.820 . S
C647 C345 1.575 . S
C649 C164 1.608 . S
