# Generated by pormake.
# Topology uoa, (4)-cn, num edge types: 1
# Building blocks:
#     Node 0, Type 0, BuildingBlock: QUQFOY_clean_sbu_3, # of connection points: 4
#     Node 1, Type 0, BuildingBlock: QUQFOY_clean_sbu_3, # of connection points: 4
#     Node 2, Type 0, BuildingBlock: QUQFOY_clean_sbu_3, # of connection points: 4
#     Node 3, Type 0, BuildingBlock: QUQFOY_clean_sbu_3, # of connection points: 4
#     Node 4, Type 0, BuildingBlock: QUQFOY_clean_sbu_3, # of connection points: 4
#     Node 5, Type 0, BuildingBlock: QUQFOY_clean_sbu_3, # of connection points: 4
#     Node 6, Type 0, BuildingBlock: QUQFOY_clean_sbu_3, # of connection points: 4
#     Node 7, Type 0, BuildingBlock: QUQFOY_clean_sbu_3, # of connection points: 4
#     Node 8, Type 0, BuildingBlock: QUQFOY_clean_sbu_3, # of connection points: 4
#     Node 9, Type 0, BuildingBlock: QUQFOY_clean_sbu_3, # of connection points: 4
#     Node 10, Type 0, BuildingBlock: QUQFOY_clean_sbu_3, # of connection points: 4
#     Node 11, Type 0, BuildingBlock: QUQFOY_clean_sbu_3, # of connection points: 4
#     Node 12, Type 0, BuildingBlock: QUQFOY_clean_sbu_3, # of connection points: 4
#     Node 13, Type 0, BuildingBlock: QUQFOY_clean_sbu_3, # of connection points: 4
#     Node 14, Type 0, BuildingBlock: QUQFOY_clean_sbu_3, # of connection points: 4
#     Node 15, Type 0, BuildingBlock: QUQFOY_clean_sbu_3, # of connection points: 4
#     Node 16, Type 0, BuildingBlock: QUQFOY_clean_sbu_3, # of connection points: 4
#     Node 17, Type 0, BuildingBlock: QUQFOY_clean_sbu_3, # of connection points: 4
#     Node 18, Type 0, BuildingBlock: QUQFOY_clean_sbu_3, # of connection points: 4
#     Node 19, Type 0, BuildingBlock: QUQFOY_clean_sbu_3, # of connection points: 4
#     Node 20, Type 0, BuildingBlock: QUQFOY_clean_sbu_3, # of connection points: 4
#     Node 21, Type 0, BuildingBlock: QUQFOY_clean_sbu_3, # of connection points: 4
#     Node 22, Type 0, BuildingBlock: QUQFOY_clean_sbu_3, # of connection points: 4
#     Node 23, Type 0, BuildingBlock: QUQFOY_clean_sbu_3, # of connection points: 4
#     Node 24, Type 0, BuildingBlock: QUQFOY_clean_sbu_3, # of connection points: 4
#     Node 25, Type 0, BuildingBlock: QUQFOY_clean_sbu_3, # of connection points: 4
#     Node 26, Type 0, BuildingBlock: QUQFOY_clean_sbu_3, # of connection points: 4
#     Node 27, Type 0, BuildingBlock: QUQFOY_clean_sbu_3, # of connection points: 4
#     Node 28, Type 0, BuildingBlock: QUQFOY_clean_sbu_3, # of connection points: 4
#     Node 29, Type 0, BuildingBlock: QUQFOY_clean_sbu_3, # of connection points: 4
#     Node 30, Type 0, BuildingBlock: QUQFOY_clean_sbu_3, # of connection points: 4
#     Node 31, Type 0, BuildingBlock: QUQFOY_clean_sbu_3, # of connection points: 4
#     Edge 32, Type (0, 0), BuildingBlock: XUDNAN_clean_linker_2, # of connection points: 2
#     Edge 33, Type (0, 0), BuildingBlock: XUDNAN_clean_linker_2, # of connection points: 2
#     Edge 34, Type (0, 0), BuildingBlock: XUDNAN_clean_linker_2, # of connection points: 2
#     Edge 35, Type (0, 0), BuildingBlock: XUDNAN_clean_linker_2, # of connection points: 2
#     Edge 36, Type (0, 0), BuildingBlock: XUDNAN_clean_linker_2, # of connection points: 2
#     Edge 37, Type (0, 0), BuildingBlock: XUDNAN_clean_linker_2, # of connection points: 2
#     Edge 38, Type (0, 0), BuildingBlock: XUDNAN_clean_linker_2, # of connection points: 2
#     Edge 39, Type (0, 0), BuildingBlock: XUDNAN_clean_linker_2, # of connection points: 2
#     Edge 40, Type (0, 0), BuildingBlock: XUDNAN_clean_linker_2, # of connection points: 2
#     Edge 41, Type (0, 0), BuildingBlock: XUDNAN_clean_linker_2, # of connection points: 2
#     Edge 42, Type (0, 0), BuildingBlock: XUDNAN_clean_linker_2, # of connection points: 2
#     Edge 43, Type (0, 0), BuildingBlock: XUDNAN_clean_linker_2, # of connection points: 2
#     Edge 44, Type (0, 0), BuildingBlock: XUDNAN_clean_linker_2, # of connection points: 2
#     Edge 45, Type (0, 0), BuildingBlock: XUDNAN_clean_linker_2, # of connection points: 2
#     Edge 46, Type (0, 0), BuildingBlock: XUDNAN_clean_linker_2, # of connection points: 2
#     Edge 47, Type (0, 0), BuildingBlock: XUDNAN_clean_linker_2, # of connection points: 2
#     Edge 48, Type (0, 0), BuildingBlock: XUDNAN_clean_linker_2, # of connection points: 2
#     Edge 49, Type (0, 0), BuildingBlock: XUDNAN_clean_linker_2, # of connection points: 2
#     Edge 50, Type (0, 0), BuildingBlock: XUDNAN_clean_linker_2, # of connection points: 2
#     Edge 51, Type (0, 0), BuildingBlock: XUDNAN_clean_linker_2, # of connection points: 2
#     Edge 52, Type (0, 0), BuildingBlock: XUDNAN_clean_linker_2, # of connection points: 2
#     Edge 53, Type (0, 0), BuildingBlock: XUDNAN_clean_linker_2, # of connection points: 2
#     Edge 54, Type (0, 0), BuildingBlock: XUDNAN_clean_linker_2, # of connection points: 2
#     Edge 55, Type (0, 0), BuildingBlock: XUDNAN_clean_linker_2, # of connection points: 2
#     Edge 56, Type (0, 0), BuildingBlock: XUDNAN_clean_linker_2, # of connection points: 2
#     Edge 57, Type (0, 0), BuildingBlock: XUDNAN_clean_linker_2, # of connection points: 2
#     Edge 58, Type (0, 0), BuildingBlock: XUDNAN_clean_linker_2, # of connection points: 2
#     Edge 59, Type (0, 0), BuildingBlock: XUDNAN_clean_linker_2, # of connection points: 2
#     Edge 60, Type (0, 0), BuildingBlock: XUDNAN_clean_linker_2, # of connection points: 2
#     Edge 61, Type (0, 0), BuildingBlock: XUDNAN_clean_linker_2, # of connection points: 2
#     Edge 62, Type (0, 0), BuildingBlock: XUDNAN_clean_linker_2, # of connection points: 2
#     Edge 63, Type (0, 0), BuildingBlock: XUDNAN_clean_linker_2, # of connection points: 2
#     Edge 64, Type (0, 0), BuildingBlock: XUDNAN_clean_linker_2, # of connection points: 2
#     Edge 65, Type (0, 0), BuildingBlock: XUDNAN_clean_linker_2, # of connection points: 2
#     Edge 66, Type (0, 0), BuildingBlock: XUDNAN_clean_linker_2, # of connection points: 2
#     Edge 67, Type (0, 0), BuildingBlock: XUDNAN_clean_linker_2, # of connection points: 2
#     Edge 68, Type (0, 0), BuildingBlock: XUDNAN_clean_linker_2, # of connection points: 2
#     Edge 69, Type (0, 0), BuildingBlock: XUDNAN_clean_linker_2, # of connection points: 2
#     Edge 70, Type (0, 0), BuildingBlock: XUDNAN_clean_linker_2, # of connection points: 2
#     Edge 71, Type (0, 0), BuildingBlock: XUDNAN_clean_linker_2, # of connection points: 2
#     Edge 72, Type (0, 0), BuildingBlock: XUDNAN_clean_linker_2, # of connection points: 2
#     Edge 73, Type (0, 0), BuildingBlock: XUDNAN_clean_linker_2, # of connection points: 2
#     Edge 74, Type (0, 0), BuildingBlock: XUDNAN_clean_linker_2, # of connection points: 2
#     Edge 75, Type (0, 0), BuildingBlock: XUDNAN_clean_linker_2, # of connection points: 2
#     Edge 76, Type (0, 0), BuildingBlock: XUDNAN_clean_linker_2, # of connection points: 2
#     Edge 77, Type (0, 0), BuildingBlock: XUDNAN_clean_linker_2, # of connection points: 2
#     Edge 78, Type (0, 0), BuildingBlock: XUDNAN_clean_linker_2, # of connection points: 2
#     Edge 79, Type (0, 0), BuildingBlock: XUDNAN_clean_linker_2, # of connection points: 2
#     Edge 80, Type (0, 0), BuildingBlock: XUDNAN_clean_linker_2, # of connection points: 2
#     Edge 81, Type (0, 0), BuildingBlock: XUDNAN_clean_linker_2, # of connection points: 2
#     Edge 82, Type (0, 0), BuildingBlock: XUDNAN_clean_linker_2, # of connection points: 2
#     Edge 83, Type (0, 0), BuildingBlock: XUDNAN_clean_linker_2, # of connection points: 2
#     Edge 84, Type (0, 0), BuildingBlock: XUDNAN_clean_linker_2, # of connection points: 2
#     Edge 85, Type (0, 0), BuildingBlock: XUDNAN_clean_linker_2, # of connection points: 2
#     Edge 86, Type (0, 0), BuildingBlock: XUDNAN_clean_linker_2, # of connection points: 2
#     Edge 87, Type (0, 0), BuildingBlock: XUDNAN_clean_linker_2, # of connection points: 2
#     Edge 88, Type (0, 0), BuildingBlock: XUDNAN_clean_linker_2, # of connection points: 2
#     Edge 89, Type (0, 0), BuildingBlock: XUDNAN_clean_linker_2, # of connection points: 2
#     Edge 90, Type (0, 0), BuildingBlock: XUDNAN_clean_linker_2, # of connection points: 2
#     Edge 91, Type (0, 0), BuildingBlock: XUDNAN_clean_linker_2, # of connection points: 2
#     Edge 92, Type (0, 0), BuildingBlock: XUDNAN_clean_linker_2, # of connection points: 2
#     Edge 93, Type (0, 0), BuildingBlock: XUDNAN_clean_linker_2, # of connection points: 2
#     Edge 94, Type (0, 0), BuildingBlock: XUDNAN_clean_linker_2, # of connection points: 2
#     Edge 95, Type (0, 0), BuildingBlock: XUDNAN_clean_linker_2, # of connection points: 2
# Relax obj value: 0.145
# Max RMSD: 0.214
# Mean RMSD: 0.214
data_MOF--net-uoa--node1-QUQFOY_clean_sbu_3--edge1-XUDNAN_clean_linker_2
_symmetry_space_group_name_H-M    P1
_symmetry_Int_Tables_number       1
_symmetry_cell_setting            triclinic
loop_
_symmetry_equiv_pos_as_xyz
'x, y, z'
_cell_length_a     78.833723
_cell_length_b     78.170388
_cell_length_c     27.632104
_cell_angle_alpha  90.077425
_cell_angle_beta   89.949232
_cell_angle_gamma 90.021481
loop_
_atom_site_label
_atom_site_type_symbol
_atom_site_fract_x
_atom_site_fract_y
_atom_site_fract_z
_atom_type_partial_charge
C0 C 0.99606 0.09978 0.9777 0.0
O1 O 0.98297 0.10096 -0.01096 0.0
Cd2 Cd 0.98588 0.08921 0.06838 0.0
O3 O 0.00207 0.09526 0.99333 0.0
Cd4 Cd 0.02186 0.0886 0.03979 0.0
C5 C 0.00558 0.05472 0.02898 0.0
O6 O 0.00234 0.1004 0.09984 0.0
O7 O 0.02114 0.08206 0.12323 0.0
O8 O 0.03692 0.11346 0.01597 0.0
C9 C 0.00832 0.09115 0.13324 0.0
O10 O -0.00414 0.06665 0.0426 0.0
C11 C 0.05034 0.10874 0.03728 0.0
O12 O 0.02094 0.05823 0.01899 0.0
O13 O 0.05128 0.09333 0.05146 0.0
C14 C 0.14171 0.74819 0.20905 0.0
O15 O 0.14469 0.73473 0.23351 0.0
Cd16 Cd 0.15752 0.73596 0.31068 0.0
O17 O 0.14462 0.76309 0.22552 0.0
Cd18 Cd 0.1528 0.78148 0.29088 0.0
C19 C 0.18728 0.76971 0.28531 0.0
O20 O 0.14145 0.7583 0.34133 0.0
O21 O 0.15736 0.77737 0.37509 0.0
O22 O 0.12692 0.7963 0.27163 0.0
C23 C 0.14824 0.76411 0.37912 0.0
O24 O 0.17569 0.75905 0.29362 0.0
C25 C 0.13081 0.80899 0.2979 0.0
O26 O 0.18307 0.78475 0.27305 0.0
O27 O 0.14594 0.80996 0.31319 0.0
C28 C 0.49464 0.89359 0.46097 0.0
O29 O 0.50722 0.89433 0.48939 0.0
Cd30 Cd 0.50287 0.90729 0.56517 0.0
O31 O 0.4799 0.89781 0.47499 0.0
Cd32 Cd 0.46397 0.90572 0.54531 0.0
C33 C 0.47637 0.94245 0.53381 0.0
O34 O 0.48134 0.8917 0.60128 0.0
O35 O 0.47135 0.91592 0.62661 0.0
O36 O 0.44572 0.88192 0.53199 0.0
C37 C 0.47881 0.90193 0.6358 0.0
O38 O 0.48956 0.93491 0.5497 0.0
C39 C 0.43359 0.8886 0.55547 0.0
O40 O 0.46333 0.93433 0.52014 0.0
O41 O 0.43487 0.90418 0.56782 0.0
C42 C 0.34381 0.24197 0.71876 0.0
O43 O 0.34192 0.2568 0.73687 0.0
Cd44 Cd 0.3276 0.2596 0.81215 0.0
O45 O 0.3404 0.22873 0.74261 0.0
Cd46 Cd 0.33304 0.21715 0.81571 0.0
C47 C 0.29616 0.22832 0.78773 0.0
O48 O 0.34095 0.24075 0.86329 0.0
O49 O 0.3221 0.22326 0.89288 0.0
O50 O 0.36021 0.20466 0.81644 0.0
C51 C 0.33103 0.23669 0.89723 0.0
O52 O 0.30203 0.24319 0.79683 0.0
C53 C 0.3546 0.1895 0.81889 0.0
O54 O 0.30544 0.21512 0.78599 0.0
O55 O 0.33863 0.18728 0.82139 0.0
C56 C -0.00869 0.89336 0.50587 0.0
O57 O 0.98687 0.89128 0.47899 0.0
Cd58 Cd 0.98737 0.90791 0.4084 0.0
O59 O 0.00476 0.90039 0.48977 0.0
Cd60 Cd 0.02284 0.91056 0.42366 0.0
C61 C 0.00667 0.94267 0.44815 0.0
O62 O 0.0029 0.89688 0.37296 0.0
O63 O 0.01645 0.91793 0.33957 0.0
O64 O 0.03814 0.88678 0.45378 0.0
C65 C 0.00591 0.90573 0.336 0.0
O66 O -0.0029 0.93064 0.4344 0.0
C67 C 0.05025 0.88843 0.42413 0.0
O68 O 0.02253 0.94004 0.45146 0.0
O69 O 0.0507 0.90175 0.39788 0.0
C70 C 0.35029 0.74982 0.76473 0.0
O71 O 0.34733 0.73597 0.74242 0.0
Cd72 Cd 0.32865 0.73549 0.67573 0.0
O73 O 0.34469 0.76394 0.74928 0.0
Cd74 Cd 0.33297 0.77575 0.6782 0.0
C75 C 0.29654 0.76618 0.70212 0.0
O76 O 0.34175 0.75388 0.62329 0.0
O77 O 0.32095 0.7701 0.60047 0.0
O78 O 0.35944 0.78928 0.67748 0.0
C79 C 0.33193 0.75884 0.5902 0.0
O80 O 0.30307 0.75184 0.69069 0.0
C81 C 0.35364 0.80392 0.6676 0.0
O82 O 0.30544 0.77938 0.70949 0.0
O83 O 0.33773 0.80575 0.66266 0.0
C84 C 0.4967 0.09776 0.00359 0.0
O85 O 0.50997 0.09318 0.99563 0.0
Cd86 Cd 0.50561 0.08133 0.91762 0.0
O87 O 0.48186 0.09591 -0.01287 0.0
Cd88 Cd 0.46619 0.08819 0.93468 0.0
C89 C 0.47598 0.04938 0.94674 0.0
O90 O 0.48606 0.10004 0.88211 0.0
O91 O 0.47092 0.07927 0.85241 0.0
O92 O 0.45039 0.11413 0.93917 0.0
C93 C 0.48095 0.09175 0.84592 0.0
O94 O 0.49032 0.05465 0.93135 0.0
C95 C 0.43637 0.10698 0.92931 0.0
O96 O 0.46416 0.05964 0.95751 0.0
O97 O 0.43611 0.09076 0.92707 0.0
C98 C 0.141 0.24703 0.25794 0.0
O99 O 0.14241 0.2608 0.23398 0.0
Cd100 Cd 0.15673 0.25919 0.15944 0.0
O101 O 0.14482 0.23265 0.23981 0.0
Cd102 Cd 0.152 0.21747 0.16781 0.0
C103 C 0.18705 0.2261 0.18962 0.0
O104 O 0.14083 0.23955 0.11675 0.0
O105 O 0.16074 0.22364 0.08668 0.0
O106 O 0.12673 0.20347 0.19317 0.0
C107 C 0.14944 0.23495 0.08059 0.0
O108 O 0.17869 0.2395 0.17968 0.0
C109 C 0.12902 0.19067 0.16595 0.0
O110 O 0.17978 0.21171 0.19182 0.0
O111 O 0.1427 0.18981 0.14188 0.0
C112 C -0.00768 0.89789 -0.00094 0.0
O113 O 0.0057 0.89738 0.98896 0.0
Cd114 Cd 0.00287 0.90875 0.9086 0.0
O115 O 0.98612 0.90057 -0.01784 0.0
Cd116 Cd 0.9688 0.90445 0.93121 0.0
C117 C 0.98338 0.94256 0.94291 0.0
O118 O 0.98845 0.89485 0.87275 0.0
O119 O 0.96785 0.91114 0.8484 0.0
O120 O 0.95554 0.87786 0.94072 0.0
C121 C 0.98157 0.90332 0.83912 0.0
O122 O 0.99718 0.93543 0.9295 0.0
C123 C 0.94069 0.88409 0.94086 0.0
O124 O 0.96977 0.93408 0.94859 0.0
O125 O 0.93901 0.90027 0.9409 0.0
C126 C 0.85188 0.24023 0.77442 0.0
O127 O 0.85836 0.25121 0.74644 0.0
Cd128 Cd 0.83843 0.25645 0.68273 0.0
O129 O 0.83843 0.23272 0.76225 0.0
Cd130 Cd 0.83899 0.22187 0.68411 0.0
C131 C 0.80254 0.22992 0.70054 0.0
O132 O 0.84824 0.24068 0.61702 0.0
O133 O 0.82496 0.22571 0.61136 0.0
O134 O 0.86526 0.20657 0.69031 0.0
C135 C 0.83629 0.2347 0.59127 0.0
O136 O 0.80997 0.24429 0.69464 0.0
C137 C 0.85828 0.19264 0.67746 0.0
O138 O 0.81092 0.21616 0.70267 0.0
O139 O 0.84227 0.19231 0.67324 0.0
C140 C 0.49297 0.09568 0.50654 0.0
O141 O 0.47995 0.09323 0.48058 0.0
Cd142 Cd 0.48581 0.08105 0.40455 0.0
O143 O 0.50787 0.09307 0.49109 0.0
Cd144 Cd 0.52519 0.08642 0.42404 0.0
C145 C 0.51503 0.0489 0.441 0.0
O146 O 0.50574 0.10068 0.37572 0.0
O147 O 0.51791 0.07901 0.34143 0.0
O148 O 0.54153 0.11078 0.44622 0.0
C149 C 0.50891 0.09241 0.33785 0.0
O150 O 0.501 0.05478 0.42526 0.0
C151 C 0.55357 0.10663 0.41821 0.0
O152 O 0.52761 0.05845 0.44957 0.0
O153 O 0.55339 0.09181 0.39943 0.0
C154 C 0.63969 0.75477 0.25899 0.0
O155 O 0.63933 0.74118 0.23395 0.0
Cd156 Cd 0.65838 0.7375 0.16893 0.0
O157 O 0.64823 0.76761 0.24583 0.0
Cd158 Cd 0.65474 0.77803 0.1688 0.0
C159 C 0.6915 0.76796 0.18853 0.0
O160 O 0.64532 0.75545 0.11658 0.0
O161 O 0.66595 0.77162 0.09145 0.0
O162 O 0.6283 0.79118 0.18228 0.0
C163 C 0.65602 0.75913 0.08433 0.0
O164 O 0.68478 0.75333 0.18112 0.0
C165 C 0.63308 0.80555 0.16635 0.0
O166 O 0.68268 0.78142 0.19233 0.0
O167 O 0.6482 0.80716 0.15102 0.0
C168 C -0.00895 0.10242 0.46565 0.0
O169 O 0.00369 0.10207 0.49409 0.0
Cd170 Cd 0.00082 0.08927 0.5722 0.0
O171 O 0.98475 0.09871 0.48051 0.0
Cd172 Cd 0.96815 0.09282 0.55096 0.0
C173 C 0.98243 0.05511 0.53499 0.0
O174 O 0.98679 0.10181 0.61298 0.0
O175 O 0.96859 0.08202 0.63146 0.0
O176 O 0.95511 0.11923 0.54866 0.0
C177 C 0.98099 0.0914 0.64386 0.0
O178 O 0.99615 0.06218 0.5493 0.0
C179 C 0.94017 0.11331 0.54684 0.0
O180 O 0.96879 0.06354 0.52952 0.0
O181 O 0.93804 0.0972 0.54405 0.0
C182 C 0.64586 0.24389 0.21 0.0
O183 O 0.64593 0.2589 0.22753 0.0
Cd184 Cd 0.6587 0.25915 0.30498 0.0
O185 O 0.64963 0.23117 0.23584 0.0
Cd186 Cd 0.65643 0.21648 0.30668 0.0
C187 C 0.69124 0.22739 0.28154 0.0
O188 O 0.64404 0.2392 0.35142 0.0
O189 O 0.66376 0.2245 0.38713 0.0
O190 O 0.63236 0.2019 0.27673 0.0
C191 C 0.65226 0.23582 0.38933 0.0
O192 O 0.68267 0.24093 0.28885 0.0
C193 C 0.63367 0.1897 0.30647 0.0
O194 O 0.68432 0.21278 0.28238 0.0
O195 O 0.64654 0.18929 0.33408 0.0
C196 C 0.49253 0.8966 0.97624 0.0
O197 O 0.4796 0.8967 -0.01203 0.0
Cd198 Cd 0.48324 0.90701 0.0685 0.0
O199 O 0.50733 0.89996 0.99115 0.0
Cd200 Cd 0.52588 0.90627 0.03915 0.0
C201 C 0.50973 0.94276 0.0364 0.0
O202 O 0.50742 0.89415 0.09828 0.0
O203 O 0.52565 0.913 0.12246 0.0
O204 O 0.54239 0.88204 0.01881 0.0
C205 C 0.51314 0.90342 0.13202 0.0
O206 O 0.49705 0.93421 0.05191 0.0
C207 C 0.55585 0.88874 0.03531 0.0
O208 O 0.52322 0.93563 0.02129 0.0
O209 O 0.55577 0.90465 0.04468 0.0
C210 C 0.84702 0.74765 0.71682 0.0
O211 O 0.84638 0.7326 0.73392 0.0
Cd212 Cd 0.8357 0.73384 0.8157 0.0
O213 O 0.84463 0.76031 0.74371 0.0
Cd214 Cd 0.83996 0.77788 0.80673 0.0
C215 C 0.80262 0.76395 0.79078 0.0
O216 O 0.84978 0.75588 0.85704 0.0
O217 O 0.83301 0.77503 0.88835 0.0
O218 O 0.86569 0.79333 0.79562 0.0
C219 C 0.84129 0.76119 0.89285 0.0
O220 O 0.80935 0.74955 0.80117 0.0
C221 C 0.85832 0.80766 0.80077 0.0
O222 O 0.81134 0.77747 0.78567 0.0
O223 O 0.84224 0.80779 0.80381 0.0
C224 C 0.49577 0.60104 0.46759 0.0
O225 O 0.48153 0.59922 0.48877 0.0
Cd226 Cd 0.48184 0.58495 0.5642 0.0
O227 O 0.50959 0.59637 0.48703 0.0
Cd228 Cd 0.5281 0.58644 0.55054 0.0
C229 C 0.51344 0.55446 0.53171 0.0
O230 O 0.50569 0.59784 0.59859 0.0
O231 O 0.52327 0.58119 0.63623 0.0
O232 O 0.53826 0.61314 0.52868 0.0
C233 C 0.51033 0.59083 0.63722 0.0
O234 O 0.50486 0.56734 0.54341 0.0
C235 C 0.55248 0.61104 0.54881 0.0
O236 O 0.52923 0.55644 0.52465 0.0
O237 O 0.5564 0.59624 0.56431 0.0
C238 C 0.647 0.24658 0.7195 0.0
O239 O 0.65004 0.23249 0.74103 0.0
Cd240 Cd 0.66429 0.23269 0.81678 0.0
O241 O 0.65003 0.26103 0.73875 0.0
Cd242 Cd 0.65851 0.27988 0.80331 0.0
C243 C 0.69164 0.26721 0.78983 0.0
O244 O 0.6495 0.25543 0.85152 0.0
O245 O 0.66296 0.27589 0.88799 0.0
O246 O 0.63154 0.29216 0.7867 0.0
C247 C 0.65583 0.26138 0.88974 0.0
O248 O 0.67924 0.25782 0.79994 0.0
C249 C 0.63497 0.30594 0.8087 0.0
O250 O 0.6887 0.28288 0.78134 0.0
O251 O 0.65012 0.30838 0.82255 0.0
C252 C -0.00965 0.39401 0.9725 0.0
O253 O 0.00295 0.39513 -0.01627 0.0
Cd254 Cd -0.00192 0.40856 0.05867 0.0
O255 O 0.98427 0.39844 0.9877 0.0
Cd256 Cd 0.96752 0.40604 0.04125 0.0
C257 C 0.9789 0.44306 0.02685 0.0
O258 O 0.98584 0.3917 0.09463 0.0
O259 O 0.97411 0.41441 0.12432 0.0
O260 O 0.95212 0.38236 0.01358 0.0
C261 C 0.98286 0.401 0.13087 0.0
O262 O 0.99251 0.43592 0.04141 0.0
C263 C 0.93919 0.38558 0.03915 0.0
O264 O 0.96563 0.43462 0.01715 0.0
O265 O 0.93868 0.3997 0.06191 0.0
C266 C 0.85571 0.74477 0.20995 0.0
O267 O 0.85416 0.75861 0.23363 0.0
Cd268 Cd 0.83712 0.7603 0.30339 0.0
O269 O 0.84913 0.73093 0.22448 0.0
Cd270 Cd 0.83636 0.71714 0.29089 0.0
C271 C 0.80179 0.73204 0.27653 0.0
O272 O 0.84756 0.73779 0.34543 0.0
O273 O 0.82612 0.72295 0.37104 0.0
O274 O 0.86107 0.70078 0.27864 0.0
C275 C 0.83684 0.73474 0.378 0.0
O276 O 0.81103 0.74473 0.2885 0.0
C277 C 0.85529 0.688 0.30122 0.0
O278 O 0.80816 0.71788 0.26328 0.0
O279 O 0.83977 0.68806 0.31356 0.0
C280 C 0.49402 0.40105 -0.00221 0.0
O281 O 0.48136 0.40104 0.98662 0.0
Cd282 Cd 0.48684 0.41283 0.91008 0.0
O283 O 0.50885 0.40421 -0.01747 0.0
Cd284 Cd 0.526 0.40913 0.92979 0.0
C285 C 0.51537 0.44548 0.94975 0.0
O286 O 0.50724 0.39343 0.88248 0.0
O287 O 0.51662 0.41668 0.84894 0.0
O288 O 0.54146 0.38536 0.95987 0.0
C289 C 0.50852 0.40268 0.84551 0.0
O290 O 0.50175 0.43829 0.93578 0.0
C291 C 0.55384 0.38759 0.93136 0.0
O292 O 0.52911 0.43732 0.95437 0.0
O293 O 0.55398 0.40103 0.90551 0.0
C294 C 0.85494 0.25431 0.2526 0.0
O295 O 0.85955 0.24341 0.22118 0.0
Cd296 Cd 0.83739 0.2365 0.16745 0.0
O297 O 0.84476 0.26634 0.24185 0.0
Cd298 Cd 0.83458 0.28135 0.17127 0.0
C299 C 0.80387 0.26617 0.20032 0.0
O300 O 0.84433 0.25882 0.11925 0.0
O301 O 0.82486 0.27507 0.0895 0.0
O302 O 0.86133 0.29227 0.18597 0.0
C303 C 0.83426 0.262 0.08532 0.0
O304 O 0.81636 0.25697 0.18876 0.0
C305 C 0.85838 0.30629 0.16495 0.0
O306 O 0.80595 0.28225 0.20353 0.0
O307 O 0.84334 0.30954 0.15091 0.0
C308 C 0.99661 0.60165 0.50725 0.0
O309 O 0.0023 0.59937 0.48613 0.0
Cd310 Cd 0.00126 0.58672 0.40807 0.0
O311 O 0.98268 0.59814 0.48673 0.0
Cd312 Cd 0.96692 0.58967 0.41695 0.0
C313 C 0.98142 0.55304 0.4423 0.0
O314 O 0.98849 0.60254 0.37033 0.0
O315 O 0.97183 0.58517 0.33235 0.0
O316 O 0.95049 0.61256 0.44699 0.0
C317 C 0.98446 0.59522 0.33142 0.0
O318 O 0.9954 0.56039 0.43198 0.0
C319 C 0.93748 0.60844 0.4229 0.0
O320 O 0.96737 0.56087 0.44141 0.0
O321 O 0.93783 0.59473 0.39825 0.0
C322 C 0.64333 0.74753 0.76227 0.0
O323 O 0.64347 0.7628 0.74678 0.0
Cd324 Cd 0.6569 0.7616 0.66904 0.0
O325 O 0.64802 0.73567 0.73479 0.0
Cd326 Cd 0.6568 0.71613 0.67863 0.0
C327 C 0.69124 0.73096 0.69356 0.0
O328 O 0.64509 0.73823 0.62895 0.0
O329 O 0.66362 0.72106 0.59689 0.0
O330 O 0.63183 0.70283 0.70828 0.0
C331 C 0.65382 0.73385 0.59273 0.0
O332 O 0.68149 0.74348 0.68386 0.0
C333 C 0.63372 0.68972 0.68188 0.0
O334 O 0.68538 0.71623 0.70352 0.0
O335 O 0.64768 0.68803 0.65928 0.0
C336 C 0.4948 0.39665 0.50919 0.0
O337 O 0.50795 0.3965 0.48274 0.0
Cd338 Cd 0.50386 0.40943 0.40714 0.0
O339 O 0.4803 0.40058 0.49299 0.0
Cd340 Cd 0.4636 0.4069 0.42446 0.0
C341 C 0.47447 0.44236 0.44344 0.0
O342 O 0.48266 0.39338 0.37124 0.0
O343 O 0.47098 0.41668 0.34449 0.0
O344 O 0.44697 0.38217 0.44203 0.0
C345 C 0.47974 0.40338 0.33661 0.0
O346 O 0.48775 0.43432 0.43044 0.0
C347 C 0.43463 0.38738 0.41668 0.0
O348 O 0.46041 0.43481 0.44871 0.0
O349 O 0.43498 0.40267 0.40138 0.0
C350 C 0.34327 0.7488 0.25911 0.0
O351 O 0.34117 0.76221 0.23393 0.0
Cd352 Cd 0.32894 0.76112 0.15599 0.0
O353 O 0.34057 0.734 0.24223 0.0
Cd354 Cd 0.33453 0.71896 0.1709 0.0
C355 C 0.29655 0.73061 0.18281 0.0
O356 O 0.34532 0.74053 0.11955 0.0
O357 O 0.32749 0.72263 0.08816 0.0
O358 O 0.36114 0.70544 0.17872 0.0
C359 C 0.3371 0.73554 0.08317 0.0
O360 O 0.30339 0.74482 0.17136 0.0
C361 C 0.35514 0.69052 0.1737 0.0
O362 O 0.3054 0.71731 0.19004 0.0
O363 O 0.33918 0.68887 0.16927 0.0
C364 C -0.01002 0.60181 0.00027 0.0
O365 O 0.98464 0.59761 0.99619 0.0
Cd366 Cd 0.98613 0.58525 0.91756 0.0
O367 O 0.00423 0.59847 0.99583 0.0
Cd368 Cd 0.01998 0.59031 0.92635 0.0
C369 C 0.00739 0.55268 0.948 0.0
O370 O -0.00205 0.60204 0.87884 0.0
O371 O 0.01522 0.58478 0.84252 0.0
O372 O 0.03567 0.61367 0.95526 0.0
C373 C 0.00235 0.59449 0.84054 0.0
O374 O -0.00695 0.55892 0.93594 0.0
C375 C 0.04858 0.61033 0.9297 0.0
O376 O 0.02059 0.56181 0.95219 0.0
O377 O 0.0487 0.59661 0.90507 0.0
C378 C 0.14105 0.24761 0.76774 0.0
O379 O 0.14447 0.23395 0.74494 0.0
Cd380 Cd 0.15932 0.23482 0.67076 0.0
O381 O 0.14411 0.2622 0.75005 0.0
Cd382 Cd 0.15207 0.27515 0.67649 0.0
C383 C 0.18984 0.26722 0.69173 0.0
O384 O 0.14254 0.2527 0.6247 0.0
O385 O 0.16093 0.27036 0.59455 0.0
O386 O 0.12475 0.28745 0.67736 0.0
C387 C 0.15046 0.25824 0.58837 0.0
O388 O 0.18408 0.25246 0.68138 0.0
C389 C 0.12989 0.30257 0.67061 0.0
O390 O 0.18026 0.27984 0.70028 0.0
O391 O 0.14574 0.30525 0.66744 0.0
C392 C 0.49678 0.59938 0.97184 0.0
O393 O 0.51012 0.59615 0.99576 0.0
Cd394 Cd 0.50732 0.58553 0.05905 0.0
O395 O 0.48209 0.59784 0.9897 0.0
Cd396 Cd 0.46585 0.59301 0.043 0.0
C397 C 0.47663 0.55388 0.03298 0.0
O398 O 0.48724 0.60324 0.09528 0.0
O399 O 0.46846 0.58659 0.12735 0.0
O400 O 0.44984 0.61838 0.03377 0.0
C401 C 0.48173 0.5956 0.1322 0.0
O402 O 0.49126 0.55913 0.046 0.0
C403 C 0.43576 0.6109 0.04081 0.0
O404 O 0.46447 0.56391 0.02398 0.0
O405 O 0.4358 0.59471 0.04426 0.0
C406 C 0.13626 0.74181 0.7148 0.0
O407 O 0.13613 0.75543 0.73961 0.0
Cd408 Cd 0.15667 0.75828 0.80148 0.0
O409 O 0.14489 0.72907 0.72813 0.0
Cd410 Cd 0.15183 0.72043 0.80719 0.0
C411 C 0.18848 0.72681 0.78104 0.0
O412 O 0.14275 0.74341 0.86051 0.0
O413 O 0.16393 0.728 0.88411 0.0
O414 O 0.12471 0.70765 0.79915 0.0
C415 C 0.15256 0.7389 0.89413 0.0
O416 O 0.18259 0.74186 0.78701 0.0
C417 C 0.1292 0.69368 0.81826 0.0
O418 O 0.17903 0.71377 0.78136 0.0
O419 O 0.14459 0.69201 0.83105 0.0
C420 C 0.99567 0.39444 0.46875 0.0
O421 O 0.98272 0.39632 0.49558 0.0
Cd422 Cd 0.98641 0.40708 0.57568 0.0
O423 O 0.00219 0.39677 0.48395 0.0
Cd424 Cd 0.02063 0.40284 0.54903 0.0
C425 C 0.00545 0.44085 0.54078 0.0
O426 O 0.00106 0.39211 0.60658 0.0
O427 O 0.02094 0.40875 0.63292 0.0
O428 O 0.0376 0.37854 0.53172 0.0
C429 C 0.00758 0.40027 0.64133 0.0
O430 O -0.00828 0.43412 0.55612 0.0
C431 C 0.05108 0.38592 0.54574 0.0
O432 O 0.01866 0.43222 0.53124 0.0
O433 O 0.05061 0.40195 0.55315 0.0
C434 C 0.34369 0.24911 0.21814 0.0
O435 O 0.3424 0.2337 0.23247 0.0
Cd436 Cd 0.32673 0.23351 0.30648 0.0
O437 O 0.33867 0.26109 0.24513 0.0
Cd438 Cd 0.32884 0.28179 0.30105 0.0
C439 C 0.29725 0.26724 0.28152 0.0
O440 O 0.33886 0.25708 0.34617 0.0
O441 O 0.32275 0.27567 0.38257 0.0
O442 O 0.3518 0.29707 0.26577 0.0
C443 C 0.33089 0.26166 0.38355 0.0
O444 O 0.31012 0.25833 0.29055 0.0
C445 C 0.35302 0.30709 0.30167 0.0
O446 O 0.29917 0.28328 0.27616 0.0
O447 O 0.34163 0.30657 0.33408 0.0
H448 H -0.00956 0.114 0.6974 0.0
H449 H 0.98366 0.06084 0.68893 0.0
H450 H 0.99222 0.05657 0.7733 0.0
H451 H 0.02509 0.10739 0.80233 0.0
H452 H 0.01871 0.12769 0.82745 0.0
H453 H 0.01911 0.12468 0.76275 0.0
H454 H 0.99646 0.1347 0.75964 0.0
H455 H 0.99531 0.13666 0.82423 0.0
H456 H 0.98048 0.12304 0.79279 0.0
H457 H 0.98849 0.06112 0.85731 0.0
H458 H 0.98418 0.07121 0.94049 0.0
H459 H -0.00465 0.12115 0.90143 0.0
C460 C -0.01019 0.10132 0.71305 0.0
C461 C 0.99023 0.08788 0.68817 0.0
C462 C 0.98938 0.07138 0.70854 0.0
C463 C 0.99441 0.06881 0.75614 0.0
C464 C -0.00825 0.08288 0.78225 0.0
C465 C -0.00544 0.0987 0.76111 0.0
C466 C -0.0023 0.11236 0.79915 0.0
C467 C 0.01626 0.11837 0.79787 0.0
C468 C 0.99386 0.12757 0.79358 0.0
C469 C -0.00608 0.10219 0.84447 0.0
C470 C -0.00933 0.08522 0.83355 0.0
C471 C 0.99194 0.07408 0.86697 0.0
C472 C 0.989 0.08006 0.91358 0.0
C473 C 0.99358 0.09688 0.92655 0.0
C474 C -0.00821 0.1082 0.8918 0.0
H475 H 0.15166 0.76637 0.95457 0.0
H476 H 0.13925 0.71279 0.94063 0.0
H477 H 0.12425 0.71401 0.00235 0.0
H478 H 0.16637 0.76286 0.04893 0.0
H479 H 0.15962 0.78315 0.07345 0.0
H480 H 0.16266 0.78087 0.00958 0.0
H481 H 0.13192 0.79113 -0.00513 0.0
H482 H 0.12874 0.79328 0.05923 0.0
H483 H 0.11448 0.78029 0.02385 0.0
H484 H 0.11773 0.71733 0.08432 0.0
H485 H 0.12486 0.72115 0.17 0.0
H486 H 0.1435 0.77222 0.13899 0.0
C487 C 0.14546 0.75499 0.96825 0.0
C488 C 0.14601 0.73957 0.94244 0.0
C489 C 0.1384 0.72466 0.9605 0.0
C490 C 0.12961 0.72567 -0.01212 0.0
C491 C 0.12935 0.74095 0.01371 0.0
C492 C 0.13733 0.75564 -0.00298 0.0
C493 C 0.1394 0.76867 0.03694 0.0
C494 C 0.15812 0.77417 0.04257 0.0
C495 C 0.12794 0.78426 0.0282 0.0
C496 C 0.13319 0.75812 0.07938 0.0
C497 C 0.12638 0.74267 0.06451 0.0
C498 C 0.12261 0.7295 0.09672 0.0
C499 C 0.12692 0.73165 0.14512 0.0
C500 C 0.13483 0.74687 0.16041 0.0
C501 C 0.13719 0.76055 0.12785 0.0
H502 H 0.49328 0.88109 0.18131 0.0
H503 H 0.51023 0.93379 0.17752 0.0
H504 H 0.50081 0.93785 0.26099 0.0
H505 H 0.45737 0.88945 0.28533 0.0
H506 H 0.46223 0.86862 0.30951 0.0
H507 H 0.46224 0.872 0.24496 0.0
H508 H 0.49261 0.85978 0.242 0.0
H509 H 0.49332 0.8574 0.30649 0.0
H510 H 0.50922 0.87008 0.27626 0.0
H511 H 0.50506 0.93216 0.34354 0.0
H512 H 0.50897 0.92117 0.42562 0.0
H513 H 0.48592 0.87296 0.38402 0.0
C514 C 0.49405 0.89365 0.19771 0.0
C515 C 0.50298 0.90692 0.17472 0.0
C516 C 0.50391 0.92332 0.19584 0.0
C517 C 0.49837 0.9258 0.24292 0.0
C518 C 0.49182 0.9118 0.26758 0.0
C519 C 0.48857 0.89624 0.24526 0.0
C520 C 0.48436 0.88255 0.28235 0.0
C521 C 0.46542 0.8779 0.28044 0.0
C522 C 0.49556 0.86653 0.27638 0.0
C523 C 0.48858 0.89216 0.32827 0.0
C524 C 0.49273 0.90902 0.31858 0.0
C525 C 0.50078 0.91939 0.35239 0.0
C526 C 0.50351 0.91285 0.39831 0.0
C527 C 0.49771 0.89634 0.4103 0.0
C528 C 0.49033 0.88569 0.37508 0.0
H529 H 0.3413 0.27789 0.46025 0.0
H530 H 0.32812 0.22751 0.4069 0.0
H531 H 0.33438 0.21518 0.48834 0.0
H532 H 0.37501 0.26735 0.54129 0.0
H533 H 0.3678 0.28292 0.58492 0.0
H534 H 0.36404 0.28633 0.5214 0.0
H535 H 0.33169 0.28948 0.53892 0.0
H536 H 0.3353 0.28589 0.60225 0.0
H537 H 0.32069 0.27244 0.56958 0.0
H538 H 0.33995 0.20999 0.57835 0.0
H539 H 0.34193 0.2122 0.667 0.0
H540 H 0.35184 0.26669 0.65512 0.0
C541 C 0.33989 0.26422 0.46565 0.0
C542 C 0.33425 0.25352 0.42885 0.0
C543 C 0.33253 0.23571 0.43591 0.0
C544 C 0.33614 0.2287 0.48149 0.0
C545 C 0.34175 0.23984 0.51772 0.0
C546 C 0.34352 0.2572 0.5098 0.0
C547 C 0.34757 0.26706 0.5546 0.0
C548 C 0.36463 0.27646 0.55025 0.0
C549 C 0.33295 0.27943 0.56707 0.0
C550 C 0.34847 0.25258 0.58961 0.0
C551 C 0.34495 0.23693 0.56819 0.0
C552 C 0.34309 0.22209 0.5952 0.0
C553 C 0.3443 0.22352 0.64545 0.0
C554 C 0.34709 0.23973 0.66746 0.0
C555 C 0.34996 0.25417 0.63911 0.0
H556 H -0.00589 0.88226 0.78868 0.0
H557 H 0.98086 0.9332 0.79138 0.0
H558 H 0.98805 0.93702 0.706 0.0
H559 H 0.02768 0.89269 0.68301 0.0
H560 H 0.0246 0.87133 0.65991 0.0
H561 H 0.02425 0.87518 0.72427 0.0
H562 H -0.00496 0.86046 0.7278 0.0
H563 H -0.00552 0.85758 0.66336 0.0
H564 H 0.98607 0.86906 0.69324 0.0
H565 H 0.98435 0.93051 0.62346 0.0
H566 H 0.98298 0.91951 0.5406 0.0
H567 H 0.00191 0.87388 0.58397 0.0
C568 C -0.00817 0.89449 0.77151 0.0
C569 C 0.9907 0.90722 0.79503 0.0
C570 C 0.98774 0.92315 0.77278 0.0
C571 C 0.99193 0.92549 0.72456 0.0
C572 C -0.00914 0.91186 0.70006 0.0
C573 C -0.00398 0.89699 0.72292 0.0
C574 C 0.00137 0.88354 0.68627 0.0
C575 C 0.02062 0.88052 0.68848 0.0
C576 C -0.00847 0.86668 0.6931 0.0
C577 C -0.00366 0.89249 0.63987 0.0
C578 C -0.00976 0.90875 0.64927 0.0
C579 C 0.9901 0.91832 0.61481 0.0
C580 C 0.98895 0.91177 0.56834 0.0
C581 C 0.99669 0.89607 0.55668 0.0
C582 C -0.00391 0.88606 0.59261 0.0
H583 H 0.33631 0.72845 0.82613 0.0
H584 H 0.37115 0.7712 0.81648 0.0
H585 H 0.36833 0.77597 0.9052 0.0
H586 H 0.30749 0.74953 0.90414 0.0
H587 H 0.30192 0.73009 0.93536 0.0
H588 H 0.30845 0.72929 0.87295 0.0
H589 H 0.33254 0.7077 0.89402 0.0
H590 H 0.32548 0.70791 0.95574 0.0
H591 H 0.34725 0.71293 0.94172 0.0
H592 H 0.36265 0.77363 0.99594 0.0
H593 H 0.35611 0.76401 0.0622 0.0
H594 H 0.31945 0.72821 0.00354 0.0
C595 C 0.34387 0.73841 0.84292 0.0
C596 C 0.35429 0.74915 0.81559 0.0
C597 C 0.36347 0.76257 0.83795 0.0
C598 C 0.3616 0.7656 0.88769 0.0
C599 C 0.34997 0.75554 0.9129 0.0
C600 C 0.34129 0.74229 0.89093 0.0
C601 C 0.32922 0.73347 0.92438 0.0
C602 C 0.31068 0.73575 0.90822 0.0
C603 C 0.33391 0.7144 0.92929 0.0
C604 C 0.33289 0.74329 0.96975 0.0
C605 C 0.34496 0.75597 0.9629 0.0
C606 C 0.35267 0.76479 -0.0147 0.0
C607 C 0.34904 0.75885 0.03191 0.0
C608 C 0.33756 0.7451 0.0383 0.0
C609 C 0.32829 0.73872 -0.00075 0.0
H610 H 0.49121 0.07451 0.07059 0.0
H611 H 0.50301 0.12801 0.04859 0.0
H612 H 0.49847 0.13354 0.13607 0.0
H613 H 0.45962 0.08061 0.17402 0.0
H614 H 0.46744 0.06162 0.20342 0.0
H615 H 0.46722 0.06288 0.13827 0.0
H616 H 0.49938 0.05598 0.13619 0.0
H617 H 0.49952 0.05457 0.20083 0.0
H618 H 0.51384 0.06908 0.17068 0.0
H619 H 0.49654 0.13255 0.22314 0.0
H620 H 0.50466 0.12434 0.30578 0.0
H621 H 0.49516 0.0711 0.27186 0.0
C622 C 0.49283 0.08735 0.0847 0.0
C623 C 0.49778 0.10084 0.05453 0.0
C624 C 0.49962 0.11758 0.07248 0.0
C625 C 0.49655 0.12085 0.1214 0.0
C626 C 0.49133 0.10726 0.15057 0.0
C627 C 0.48973 0.09076 0.13299 0.0
C628 C 0.48736 0.07784 0.1728 0.0
C629 C 0.46933 0.07031 0.17207 0.0
C630 C 0.50084 0.06356 0.16997 0.0
C631 C 0.48987 0.08942 0.2158 0.0
C632 C 0.4909 0.10648 0.20226 0.0
C633 C 0.49541 0.11936 0.23452 0.0
C634 C 0.50011 0.1146 0.28101 0.0
C635 C 0.5007 0.09716 0.29353 0.0
C636 C 0.49476 0.0845 0.26195 0.0
H637 H 0.15531 0.23141 0.52823 0.0
H638 H 0.12872 0.27939 0.54687 0.0
H639 H 0.11519 0.27586 0.46746 0.0
H640 H 0.16858 0.2379 0.41956 0.0
H641 H 0.16605 0.21679 0.39411 0.0
H642 H 0.16838 0.21929 0.45812 0.0
H643 H 0.14028 0.2031 0.47214 0.0
H644 H 0.1378 0.20048 0.40767 0.0
H645 H 0.12113 0.21022 0.44287 0.0
H646 H 0.112 0.27273 0.3836 0.0
H647 H 0.11996 0.27061 0.2979 0.0
H648 H 0.14812 0.22421 0.32823 0.0
C649 C 0.14628 0.2408 0.51537 0.0
C650 C 0.14296 0.25569 0.5419 0.0
C651 C 0.13135 0.26802 0.5256 0.0
C652 C 0.12339 0.26591 0.48129 0.0
C653 C 0.12728 0.25142 0.4542 0.0
C654 C 0.13842 0.23894 0.47055 0.0
C655 C 0.14327 0.22672 0.43053 0.0
C656 C 0.16271 0.22513 0.42527 0.0
C657 C 0.13512 0.20909 0.43879 0.0
C658 C 0.13519 0.23586 0.38811 0.0
C659 C 0.12524 0.24947 0.40308 0.0
C660 C 0.11919 0.2618 0.37108 0.0
C661 C 0.12399 0.26071 0.32273 0.0
C662 C 0.13459 0.2473 0.3072 0.0
C663 C 0.13966 0.23437 0.33963 0.0
H664 H 0.99738 0.92516 0.26964 0.0
H665 H 0.00755 0.87427 0.30146 0.0
H666 H 0.00033 0.86486 0.21943 0.0
H667 H 0.96239 0.90855 0.17597 0.0
H668 H 0.96575 0.92731 0.13935 0.0
H669 H 0.96696 0.9288 0.20438 0.0
H670 H 0.99682 0.94201 0.19685 0.0
H671 H 0.99599 0.94027 0.13221 0.0
H672 H 0.00477 0.93048 0.16493 0.0
H673 H 0.00176 0.86412 0.13328 0.0
H674 H 0.00431 0.86986 0.04555 0.0
H675 H 0.99015 0.91981 0.06685 0.0
C676 C -0.00922 0.91193 0.25927 0.0
C677 C -0.00108 0.90037 0.29039 0.0
C678 C 0.00129 0.88315 0.2772 0.0
C679 C -0.00292 0.87767 0.23105 0.0
C680 C -0.01001 0.88948 0.19955 0.0
C681 C 0.99451 0.90609 0.21342 0.0
C682 C 0.98902 0.91669 0.17041 0.0
C683 C 0.96989 0.92054 0.17267 0.0
C684 C -0.00905 0.93332 0.16587 0.0
C685 C 0.99306 0.90419 0.13019 0.0
C686 C -0.01036 0.88847 0.14788 0.0
C687 C -0.00295 0.87601 0.11846 0.0
C688 C -0.0011 0.87948 0.06921 0.0
C689 C -0.00674 0.8952 0.05062 0.0
C690 C 0.99439 0.90763 0.08108 0.0
H691 H 0.84335 0.27886 0.00734 0.0
H692 H 0.83392 0.22798 0.06278 0.0
H693 H 0.84418 0.21544 -0.01482 0.0
H694 H 0.82953 0.27082 0.90849 0.0
H695 H 0.84497 0.28461 0.88027 0.0
H696 H 0.83844 0.2886 0.9414 0.0
H697 H 0.86989 0.28694 0.97027 0.0
H698 H 0.87645 0.28305 0.90873 0.0
H699 H 0.88234 0.26827 0.95582 0.0
H700 H 0.85132 0.2091 0.91411 0.0
H701 H 0.85278 0.21073 0.82499 0.0
H702 H 0.86168 0.26526 0.83333 0.0
C703 C 0.84333 0.26508 0.00276 0.0
C704 C 0.83748 0.25427 0.03914 0.0
C705 C 0.83804 0.2363 0.03372 0.0
C706 C 0.84413 0.22916 -0.00945 0.0
C707 C 0.85036 0.23965 0.97147 0.0
C708 C 0.85007 0.25721 0.97758 0.0
C709 C 0.85571 0.26669 0.93339 0.0
C710 C 0.84132 0.27834 0.91477 0.0
C711 C 0.87207 0.27683 0.94266 0.0
C712 C 0.85885 0.25182 0.90029 0.0
C713 C 0.85575 0.23624 0.92272 0.0
C714 C 0.85447 0.22107 0.89662 0.0
C715 C 0.85537 0.2221 0.84627 0.0
C716 C 0.85762 0.23814 0.82352 0.0
C717 C 0.86064 0.25287 0.85061 0.0
H718 H 0.49565 0.07145 0.77888 0.0
H719 H 0.47818 0.12292 0.80882 0.0
H720 H 0.48372 0.13114 0.72428 0.0
H721 H 0.52911 0.08494 0.68317 0.0
H722 H 0.52465 0.06608 0.64781 0.0
H723 H 0.52344 0.06524 0.71291 0.0
H724 H 0.49273 0.05383 0.7071 0.0
H725 H 0.4937 0.05475 0.64231 0.0
H726 H 0.47709 0.06595 0.6741 0.0
H727 H 0.48299 0.13132 0.63683 0.0
H728 H 0.48153 0.12488 0.54897 0.0
H729 H 0.50173 0.07425 0.57593 0.0
C730 C 0.49363 0.08454 0.76746 0.0
C731 C 0.4865 0.09666 0.79874 0.0
C732 C 0.48377 0.11368 0.78422 0.0
C733 C 0.48698 0.11845 0.73675 0.0
C734 C 0.49339 0.1061 0.70553 0.0
C735 C 0.49725 0.08961 0.72046 0.0
C736 C 0.50207 0.07831 0.67845 0.0
C737 C 0.52094 0.07337 0.68072 0.0
C738 C 0.49071 0.06229 0.67535 0.0
C739 C 0.49859 0.09056 0.63764 0.0
C740 C 0.49382 0.10658 0.65394 0.0
C741 C 0.48734 0.11911 0.62316 0.0
C742 C 0.48616 0.11528 0.57393 0.0
C743 C 0.49141 0.09914 0.55721 0.0
C744 C 0.49774 0.08672 0.58894 0.0
H745 H 0.65912 0.71911 0.50803 0.0
H746 H 0.6426 0.76657 0.57433 0.0
H747 H 0.63412 0.77756 0.49333 0.0
H748 H 0.67388 0.73546 0.3947 0.0
H749 H 0.66585 0.71701 0.36291 0.0
H750 H 0.67254 0.71506 0.42479 0.0
H751 H 0.64278 0.70269 0.44679 0.0
H752 H 0.63587 0.70517 0.38515 0.0
H753 H 0.62407 0.71508 0.43356 0.0
H754 H 0.62849 0.78255 0.40224 0.0
H755 H 0.62717 0.78127 0.3126 0.0
H756 H 0.64168 0.72785 0.31653 0.0
C757 C 0.65409 0.73198 0.50555 0.0
C758 C 0.65147 0.74207 0.54648 0.0
C759 C 0.64461 0.75874 0.54247 0.0
C760 C 0.63972 0.76499 0.497 0.0
C761 C 0.64147 0.75407 0.45736 0.0
C762 C 0.6485 0.73795 0.46169 0.0
C763 C 0.64802 0.72794 0.41566 0.0
C764 C 0.66614 0.72364 0.39849 0.0
C765 C 0.63703 0.71177 0.42064 0.0
C766 C 0.63968 0.74089 0.38393 0.0
C767 C 0.63622 0.75608 0.4079 0.0
C768 C 0.63073 0.77061 0.38343 0.0
C769 C 0.62985 0.76973 0.3329 0.0
C770 C 0.63411 0.75434 0.30868 0.0
C771 C 0.63784 0.73954 0.33459 0.0
H772 H 0.98888 0.12164 0.38752 0.0
H773 H 0.00684 0.0754 0.4303 0.0
H774 H 0.00383 0.06392 0.34823 0.0
H775 H 0.9615 0.10225 0.2886 0.0
H776 H 0.9649 0.11998 0.24813 0.0
H777 H 0.96456 0.12348 0.31266 0.0
H778 H 0.99443 0.13742 0.30925 0.0
H779 H 0.99421 0.13463 0.2448 0.0
H780 H 0.00306 0.12606 0.27993 0.0
H781 H -0.00056 0.05736 0.26558 0.0
H782 H 0.00745 0.06119 0.18087 0.0
H783 H 0.99617 0.11295 0.1837 0.0
C784 C 0.99416 0.10921 0.37892 0.0
C785 C -0.00612 0.0993 0.4146 0.0
C786 C 0.00077 0.08319 0.40286 0.0
C787 C -0.00141 0.07634 0.3569 0.0
C788 C -0.01014 0.08596 0.32275 0.0
C789 C 0.9928 0.10244 0.33213 0.0
C790 C 0.98781 0.11145 0.28568 0.0
C791 C 0.96855 0.11446 0.28368 0.0
C792 C 0.99759 0.12837 0.27956 0.0
C793 C 0.9932 0.09804 0.24894 0.0
C794 C 0.99757 0.0829 0.27173 0.0
C795 C -0.00383 0.06911 0.24716 0.0
C796 C 0.00085 0.07148 0.19926 0.0
C797 C -0.00127 0.0876 0.17717 0.0
C798 C -0.01056 0.10059 0.2006 0.0
H799 H 0.63299 0.26614 0.14492 0.0
H800 H 0.65352 0.21491 0.15987 0.0
H801 H 0.65452 0.21187 0.07137 0.0
H802 H 0.60878 0.26035 0.03075 0.0
H803 H 0.6156 0.28099 0.00913 0.0
H804 H 0.61272 0.27748 0.07305 0.0
H805 H 0.64376 0.28748 0.08883 0.0
H806 H 0.64671 0.29096 0.0252 0.0
H807 H 0.66087 0.27693 0.0574 0.0
H808 H 0.65851 0.2168 -0.01809 0.0
H809 H 0.66366 0.22859 0.91649 0.0
H810 H 0.64103 0.27621 0.96373 0.0
C811 C 0.63704 0.25405 0.12954 0.0
C812 C 0.64311 0.24084 0.15871 0.0
C813 C 0.64864 0.22522 0.13771 0.0
C814 C 0.64925 0.22332 0.08753 0.0
C815 C 0.64398 0.23703 0.05941 0.0
C816 C 0.6378 0.25201 0.07982 0.0
C817 C 0.6357 0.26592 0.04308 0.0
C818 C 0.61709 0.2715 0.03874 0.0
C819 C 0.64745 0.2812 0.05432 0.0
C820 C 0.64157 0.25654 -0.00109 0.0
C821 C 0.64639 0.23988 0.00848 0.0
C822 C 0.65449 0.22897 0.98999 0.0
C823 C 0.65736 0.23609 0.94417 0.0
C824 C 0.65264 0.25322 0.93528 0.0
C825 C 0.64461 0.26304 0.97054 0.0
H826 H 0.49253 0.92348 0.7038 0.0
H827 H 0.47867 0.87082 0.67361 0.0
H828 H 0.48552 0.86283 0.75688 0.0
H829 H 0.52781 0.91068 0.79889 0.0
H830 H 0.52286 0.92918 0.83525 0.0
H831 H 0.52153 0.93038 0.77021 0.0
H832 H 0.4906 0.94084 0.77714 0.0
H833 H 0.4917 0.93954 0.84189 0.0
H834 H 0.47532 0.92811 0.80981 0.0
H835 H 0.48436 0.86224 0.84286 0.0
H836 H 0.48227 0.86775 0.93081 0.0
H837 H 0.49981 0.91968 0.90813 0.0
C838 C 0.49154 0.91023 0.71485 0.0
C839 C 0.485 0.89768 0.68338 0.0
C840 C 0.48374 0.88047 0.69782 0.0
C841 C 0.48773 0.8758 0.74475 0.0
C842 C 0.49343 0.88844 0.77602 0.0
C843 C 0.49604 0.90522 0.76159 0.0
C844 C 0.50058 0.91647 0.80434 0.0
C845 C 0.51931 0.92199 0.80203 0.0
C846 C 0.48883 0.93214 0.8085 0.0
C847 C 0.49762 0.90382 0.84488 0.0
C848 C 0.49389 0.88767 0.82758 0.0
C849 C 0.48799 0.87457 0.85738 0.0
C850 C 0.4864 0.87786 0.90676 0.0
C851 C 0.49079 0.89406 0.92496 0.0
C852 C 0.49647 0.90717 0.89408 0.0
H853 H 0.85946 0.7266 0.64799 0.0
H854 H 0.83679 0.77653 0.67106 0.0
H855 H 0.83516 0.78108 0.58328 0.0
H856 H 0.88304 0.73576 0.53482 0.0
H857 H 0.87724 0.71519 0.51029 0.0
H858 H 0.88001 0.71775 0.57462 0.0
H859 H 0.84949 0.70587 0.58882 0.0
H860 H 0.84661 0.70344 0.52476 0.0
H861 H 0.83185 0.71614 0.55929 0.0
H862 H 0.83108 0.77757 0.49333 0.0
H863 H 0.82665 0.76631 0.40972 0.0
H864 H 0.8519 0.71924 0.44929 0.0
C865 C 0.85472 0.73869 0.63444 0.0
C866 C 0.8484 0.75115 0.66558 0.0
C867 C 0.84193 0.76682 0.64719 0.0
C868 C 0.84098 0.7696 0.59749 0.0
C869 C 0.84679 0.75669 0.56727 0.0
C870 C 0.85369 0.74164 0.58521 0.0
C871 C 0.85644 0.72861 0.54644 0.0
C872 C 0.87531 0.72408 0.54123 0.0
C873 C 0.84545 0.71259 0.55537 0.0
C874 C 0.85009 0.73851 0.50395 0.0
C875 C 0.84445 0.75471 0.5161 0.0
C876 C 0.83592 0.76513 0.48307 0.0
C877 C 0.83331 0.75867 0.43632 0.0
C878 C 0.83905 0.74206 0.42483 0.0
C879 C 0.84763 0.73205 0.45827 0.0
H880 H 0.47822 0.57298 0.2046 0.0
H881 H 0.50767 0.61677 0.15813 0.0
H882 H 0.5192 0.6199 0.24053 0.0
H883 H 0.46215 0.59035 0.29451 0.0
H884 H 0.46185 0.57315 0.33788 0.0
H885 H 0.46209 0.56836 0.27455 0.0
H886 H 0.4894 0.55027 0.28307 0.0
H887 H 0.48887 0.55413 0.3474 0.0
H888 H 0.50768 0.55918 0.31316 0.0
H889 H 0.5205 0.62356 0.32993 0.0
H890 H 0.51417 0.62486 0.41804 0.0
H891 H 0.48048 0.58144 0.40346 0.0
C892 C 0.48764 0.58277 0.21153 0.0
C893 C 0.49176 0.59494 0.17626 0.0
C894 C 0.50423 0.60749 0.18551 0.0
C895 C 0.51095 0.60925 0.23201 0.0
C896 C 0.50511 0.59821 0.26791 0.0
C897 C 0.49409 0.58481 0.25779 0.0
C898 C 0.48661 0.57723 0.30313 0.0
C899 C 0.46704 0.57731 0.30241 0.0
C900 C 0.49357 0.55913 0.31221 0.0
C901 C 0.49344 0.58968 0.33949 0.0
C902 C 0.50473 0.60117 0.3193 0.0
C903 C 0.51192 0.61442 0.34625 0.0
C904 C 0.50794 0.61538 0.39559 0.0
C905 C 0.49635 0.60364 0.41604 0.0
C906 C 0.48888 0.5909 0.38767 0.0
H907 H 0.65922 0.26224 0.4492 0.0
H908 H 0.6285 0.21687 0.42989 0.0
H909 H 0.61641 0.22056 0.51115 0.0
H910 H 0.67298 0.25421 0.55617 0.0
H911 H 0.67221 0.2753 0.58267 0.0
H912 H 0.67373 0.27301 0.5184 0.0
H913 H 0.64674 0.29128 0.50775 0.0
H914 H 0.64501 0.29363 0.5725 0.0
H915 H 0.6274 0.28532 0.53815 0.0
H916 H 0.61545 0.22258 0.59601 0.0
H917 H 0.62465 0.22382 0.68102 0.0
H918 H 0.65424 0.2692 0.6496 0.0
C919 C 0.64946 0.25362 0.46213 0.0
C920 C 0.6445 0.2394 0.43482 0.0
C921 C 0.63214 0.22789 0.45143 0.0
C922 C 0.62508 0.23004 0.49698 0.0
C923 C 0.63054 0.24384 0.52472 0.0
C924 C 0.64229 0.25566 0.50783 0.0
C925 C 0.64842 0.26724 0.5479 0.0
C926 C 0.66798 0.2674 0.55148 0.0
C927 C 0.64146 0.28544 0.54119 0.0
C928 C 0.6402 0.2584 0.59062 0.0
C929 C 0.62937 0.24543 0.57617 0.0
C930 C 0.62325 0.23312 0.60826 0.0
C931 C 0.62873 0.2337 0.65612 0.0
C932 C 0.63999 0.24663 0.67103 0.0
C933 C 0.64523 0.25948 0.63864 0.0
H934 H 0.99677 0.3783 0.69325 0.0
H935 H 0.00502 0.43099 0.68447 0.0
H936 H -0.00401 0.43588 0.76802 0.0
H937 H 0.96151 0.38655 0.79691 0.0
H938 H 0.96711 0.36617 0.8228 0.0
H939 H 0.96707 0.36889 0.75801 0.0
H940 H 0.99787 0.3578 0.75629 0.0
H941 H -0.00983 0.35614 0.82097 0.0
H942 H 0.0056 0.36908 0.78968 0.0
H943 H -0.00049 0.43157 0.85132 0.0
H944 H 0.00335 0.42177 0.93465 0.0
H945 H 0.99033 0.37239 0.89735 0.0
C946 C 0.99754 0.39103 0.70863 0.0
C947 C -0.00229 0.40415 0.6841 0.0
C948 C -0.00119 0.42072 0.70395 0.0
C949 C -0.00647 0.42365 0.75107 0.0
C950 C 0.99561 0.40986 0.77712 0.0
C951 C 0.99248 0.39402 0.75631 0.0
C952 C 0.98872 0.38066 0.79466 0.0
C953 C 0.96998 0.37526 0.79302 0.0
C954 C -0.00791 0.36502 0.79009 0.0
C955 C 0.99261 0.39094 0.83971 0.0
C956 C 0.99645 0.40774 0.82836 0.0
C957 C -0.00445 0.4188 0.86136 0.0
C958 C -0.00178 0.41297 0.90805 0.0
C959 C -0.00706 0.39644 0.92149 0.0
C960 C 0.99438 0.38514 0.88724 0.0
H961 H 0.84626 0.76931 0.15025 0.0
H962 H 0.87268 0.72075 0.1567 0.0
H963 H 0.86858 0.71697 0.06824 0.0
H964 H 0.81374 0.7544 0.0764 0.0
H965 H 0.81137 0.77437 0.04457 0.0
H966 H 0.81893 0.7743 0.10599 0.0
H967 H 0.84626 0.79077 0.08047 0.0
H968 H 0.83831 0.79155 0.01964 0.0
H969 H 0.85895 0.78258 0.03134 0.0
H970 H 0.86201 0.71923 0.99464 0.0
H971 H 0.85538 0.72979 0.91235 0.0
H972 H 0.8272 0.77206 0.97482 0.0
C973 C 0.85188 0.75825 0.13276 0.0
C974 C 0.86004 0.74549 0.15929 0.0
C975 C 0.8667 0.73083 0.13591 0.0
C976 C 0.86409 0.72841 0.08627 0.0
C977 C 0.8544 0.74056 0.062 0.0
C978 C 0.84849 0.75517 0.08467 0.0
C979 C 0.83771 0.76595 0.05233 0.0
C980 C 0.81935 0.76731 0.07097 0.0
C981 C 0.84579 0.78375 0.0455 0.0
C982 C 0.83871 0.75539 0.00718 0.0
C983 C 0.84853 0.74084 0.01286 0.0
C984 C 0.85399 0.73034 0.98988 0.0
C985 C 0.85019 0.7364 0.94351 0.0
C986 C 0.84111 0.75189 0.93809 0.0
C987 C 0.83417 0.76018 0.97826 0.0
H988 H 0.51191 0.41407 0.07177 0.0
H989 H 0.47229 0.37772 0.03567 0.0
H990 H 0.46974 0.36995 0.12181 0.0
H991 H 0.52982 0.3912 0.18345 0.0
H992 H 0.53228 0.41137 0.21432 0.0
H993 H 0.53493 0.41021 0.14959 0.0
H994 H 0.51244 0.43403 0.13967 0.0
H995 H 0.50957 0.43498 0.20404 0.0
H996 H 0.49159 0.4311 0.16527 0.0
H997 H 0.46789 0.36931 0.20738 0.0
H998 H 0.46415 0.37812 0.2921 0.0
H999 H 0.5031 0.4168 0.27515 0.0
C1000 C 0.50308 0.4041 0.08221 0.0
C1001 C 0.49235 0.39628 0.04801 0.0
C1002 C 0.48052 0.38375 0.06203 0.0
C1003 C 0.47926 0.37907 0.11046 0.0
C1004 C 0.48984 0.38719 0.14371 0.0
C1005 C 0.50144 0.3996 0.13048 0.0
C1006 C 0.50852 0.40899 0.17395 0.0
C1007 C 0.52751 0.4052 0.18072 0.0
C1008 C 0.50531 0.42841 0.17051 0.0
C1009 C 0.49801 0.40073 0.2132 0.0
C1010 C 0.488 0.38765 0.19496 0.0
C1011 C 0.47593 0.37916 0.22259 0.0
C1012 C 0.47378 0.38429 0.27015 0.0
C1013 C 0.4834 0.39794 0.28855 0.0
C1014 C 0.49584 0.40618 0.26075 0.0
H1015 H 0.85959 0.2733 0.33453 0.0
H1016 H 0.84623 0.22288 0.28005 0.0
H1017 H 0.83564 0.2148 0.35991 0.0
H1018 H 0.87584 0.25942 0.44645 0.0
H1019 H 0.8675 0.27685 0.48206 0.0
H1020 H 0.87217 0.28001 0.41899 0.0
H1021 H 0.84134 0.29021 0.40435 0.0
H1022 H 0.83668 0.28708 0.46761 0.0
H1023 H 0.82389 0.27671 0.4222 0.0
H1024 H 0.82721 0.21142 0.44134 0.0
H1025 H 0.82598 0.21056 0.52979 0.0
H1026 H 0.84664 0.26204 0.53717 0.0
C1027 C 0.85481 0.26046 0.34021 0.0
C1028 C 0.85394 0.24855 0.30199 0.0
C1029 C 0.84742 0.23194 0.30957 0.0
C1030 C 0.84095 0.22741 0.35431 0.0
C1031 C 0.84146 0.23951 0.39097 0.0
C1032 C 0.84859 0.25553 0.38526 0.0
C1033 C 0.84905 0.26522 0.43272 0.0
C1034 C 0.86722 0.27068 0.44583 0.0
C1035 C 0.83702 0.28072 0.43162 0.0
C1036 C 0.84235 0.25145 0.4661 0.0
C1037 C 0.8372 0.23719 0.4404 0.0
C1038 C 0.831 0.2225 0.4622 0.0
C1039 C 0.8304 0.22213 0.51223 0.0
C1040 C 0.83625 0.23624 0.53936 0.0
C1041 C 0.84216 0.25117 0.51648 0.0
H1042 H 0.00153 0.5709 0.77011 0.0
H1043 H 0.98757 0.61877 0.81618 0.0
H1044 H 0.97577 0.62298 0.73448 0.0
H1045 H 0.01921 0.5851 0.6791 0.0
H1046 H 0.01674 0.56785 0.6363 0.0
H1047 H 0.01614 0.56342 0.69977 0.0
H1048 H 0.99487 0.54963 0.6933 0.0
H1049 H 0.9957 0.55293 0.6288 0.0
H1050 H 0.97797 0.56093 0.66327 0.0
H1051 H 0.97499 0.62671 0.64579 0.0
H1052 H 0.98172 0.62743 0.558 0.0
H1053 H -0.00045 0.57905 0.57081 0.0
C1054 C -0.00649 0.58188 0.76324 0.0
C1055 C -0.00845 0.59477 0.79803 0.0
C1056 C 0.9893 0.60889 0.78911 0.0
C1057 C 0.98246 0.61129 0.743 0.0
C1058 C 0.98639 0.59932 0.70722 0.0
C1059 C 0.99545 0.58452 0.71728 0.0
C1060 C -0.00696 0.57573 0.67181 0.0
C1061 C 0.01241 0.57289 0.67181 0.0
C1062 C 0.99192 0.55881 0.66382 0.0
C1063 C 0.99633 0.58894 0.63523 0.0
C1064 C 0.98695 0.60203 0.65573 0.0
C1065 C 0.98199 0.61634 0.62917 0.0
C1066 C 0.98622 0.6169 0.57999 0.0
C1067 C 0.9959 0.60361 0.55914 0.0
C1068 C -0.00737 0.5896 0.58695 0.0
H1069 H 0.6458 0.77723 0.01102 0.0
H1070 H 0.661 0.72621 0.05329 0.0
H1071 H 0.65548 0.71508 0.98575 0.0
H1072 H 0.61196 0.7657 0.94821 0.0
H1073 H 0.6173 0.78261 0.90656 0.0
H1074 H 0.62195 0.78499 0.96999 0.0
H1075 H 0.65368 0.79073 0.9496 0.0
H1076 H 0.64924 0.78844 0.88619 0.0
H1077 H 0.66525 0.7753 0.91405 0.0
H1078 H 0.65017 0.71202 0.8946 0.0
H1079 H 0.64749 0.71652 0.80663 0.0
H1080 H 0.63355 0.76951 0.83146 0.0
C1081 C 0.64786 0.76384 0.00242 0.0
C1082 C 0.65387 0.75243 0.03677 0.0
C1083 C 0.6564 0.73497 0.02591 0.0
C1084 C 0.65327 0.72832 0.99534 0.0
C1085 C 0.64703 0.74007 0.96171 0.0
C1086 C 0.64449 0.75709 0.97334 0.0
C1087 C 0.63907 0.76767 0.93122 0.0
C1088 C 0.62152 0.7757 0.93953 0.0
C1089 C 0.65261 0.78132 0.91958 0.0
C1090 C 0.63853 0.75403 0.89341 0.0
C1091 C 0.64333 0.73816 0.91108 0.0
C1092 C 0.646 0.72425 0.88068 0.0
C1093 C 0.64439 0.72695 0.83089 0.0
C1094 C 0.64031 0.74347 0.81282 0.0
C1095 C 0.63645 0.75678 0.84451 0.0
H1096 H 0.48978 0.42062 0.78113 0.0
H1097 H 0.51313 0.37151 0.80972 0.0
H1098 H 0.50728 0.36233 0.72638 0.0
H1099 H 0.45678 0.40278 0.6873 0.0
H1100 H 0.45883 0.422 0.65179 0.0
H1101 H 0.46021 0.42307 0.71684 0.0
H1102 H 0.48926 0.43814 0.70946 0.0
H1103 H 0.48817 0.43692 0.64475 0.0
H1104 H 0.50612 0.42792 0.67603 0.0
H1105 H 0.5084 0.3625 0.63972 0.0
H1106 H 0.50942 0.36912 0.55215 0.0
H1107 H 0.48248 0.41653 0.57887 0.0
C1108 C 0.49291 0.40773 0.76985 0.0
C1109 C 0.50193 0.39668 0.80032 0.0
C1110 C 0.5061 0.37994 0.78592 0.0
C1111 C 0.50275 0.37461 0.73903 0.0
C1112 C 0.49468 0.38605 0.70831 0.0
C1113 C 0.48914 0.40204 0.72341 0.0
C1114 C 0.48281 0.41261 0.68149 0.0
C1115 C 0.4635 0.41525 0.68454 0.0
C1116 C 0.49217 0.42989 0.67775 0.0
C1117 C 0.4875 0.40075 0.64052 0.0
C1118 C 0.49418 0.38546 0.65675 0.0
C1119 C 0.50239 0.37396 0.62603 0.0
C1120 C 0.50327 0.37792 0.57691 0.0
C1121 C 0.49584 0.39312 0.56002 0.0
C1122 C 0.48785 0.40461 0.59177 0.0
H1123 H 0.33845 0.72544 0.32962 0.0
H1124 H 0.36108 0.77486 0.29914 0.0
H1125 H 0.36815 0.77817 0.38496 0.0
H1126 H 0.31608 0.73605 0.41788 0.0
H1127 H 0.31839 0.71808 0.45818 0.0
H1128 H 0.32178 0.71523 0.39465 0.0
H1129 H 0.3518 0.70333 0.41085 0.0
H1130 H 0.34836 0.70592 0.47497 0.0
H1131 H 0.36662 0.71552 0.44666 0.0
H1132 H 0.36304 0.78159 0.46737 0.0
H1133 H 0.34881 0.78347 0.54617 0.0
H1134 H 0.32981 0.73181 0.52946 0.0
C1135 C 0.34557 0.73657 0.34107 0.0
C1136 C 0.34924 0.74998 0.30856 0.0
C1137 C 0.3581 0.76459 0.32404 0.0
C1138 C 0.36244 0.76639 0.37245 0.0
C1139 C 0.3577 0.7535 0.40449 0.0
C1140 C 0.34974 0.7386 0.38955 0.0
C1141 C 0.34254 0.72866 0.43195 0.0
C1142 C 0.32358 0.72429 0.42521 0.0
C1143 C 0.35297 0.71241 0.44168 0.0
C1144 C 0.34526 0.74172 0.47135 0.0
C1145 C 0.35476 0.75551 0.4551 0.0
C1146 C 0.35622 0.77064 0.48129 0.0
C1147 C 0.34778 0.77179 0.52512 0.0
C1148 C 0.33825 0.75784 0.54204 0.0
C1149 C 0.33718 0.74251 0.51603 0.0
H1150 H 0.9894 0.5784 0.06426 0.0
H1151 H 0.00302 0.62882 0.05005 0.0
H1152 H 0.01038 0.6287 0.13739 0.0
H1153 H 0.96969 0.58293 0.17017 0.0
H1154 H 0.97439 0.5618 0.19269 0.0
H1155 H 0.97389 0.56553 0.12892 0.0
H1156 H -0.00389 0.55343 0.12282 0.0
H1157 H -0.0033 0.55036 0.18747 0.0
H1158 H 0.01285 0.56296 0.15812 0.0
H1159 H 0.0099 0.6253 0.22578 0.0
H1160 H -0.00235 0.62093 0.30692 0.0
H1161 H 0.98774 0.57109 0.26312 0.0
C1162 C 0.99557 0.58947 0.08005 0.0
C1163 C -0.00917 0.60391 0.05205 0.0
C1164 C -0.00042 0.61795 0.07227 0.0
C1165 C 0.00423 0.61773 0.12113 0.0
C1166 C 0.00068 0.60305 0.14796 0.0
C1167 C -0.00763 0.58915 0.12791 0.0
C1168 C 0.9966 0.57577 0.16504 0.0
C1169 C 0.97752 0.57129 0.16418 0.0
C1170 C -0.00088 0.55969 0.15793 0.0
C1171 C -0.00679 0.58535 0.21015 0.0
C1172 C 0.00131 0.60068 0.19958 0.0
C1173 C 0.00402 0.6132 0.23473 0.0
C1174 C -0.00307 0.6107 0.28052 0.0
C1175 C 0.99565 0.59591 0.28973 0.0
C1176 C 0.99501 0.58257 0.25591 0.0
H1177 H 0.14586 0.27056 0.83899 0.0
H1178 H 0.12072 0.22279 0.8042 0.0
H1179 H 0.11278 0.2193 0.88952 0.0
H1180 H 0.16713 0.25713 0.92654 0.0
H1181 H 0.1662 0.27491 0.96813 0.0
H1182 H 0.16322 0.27853 0.90478 0.0
H1183 H 0.13416 0.29268 0.92087 0.0
H1184 H 0.13726 0.28952 0.98489 0.0
H1185 H 0.11835 0.28155 0.95598 0.0
H1186 H 0.11672 0.21517 0.97258 0.0
H1187 H 0.12986 0.21257 0.03594 0.0
H1188 H 0.15312 0.26252 0.02228 0.0
C1189 C 0.13797 0.25983 0.8494 0.0
C1190 C 0.13388 0.24686 0.81596 0.0
C1191 C 0.12401 0.23272 0.82995 0.0
C1192 C 0.11924 0.23082 0.87807 0.0
C1193 C 0.12461 0.24311 0.91127 0.0
C1194 C 0.13354 0.2576 0.89764 0.0
C1195 C 0.14132 0.26659 0.94087 0.0
C1196 C 0.1606 0.26941 0.93466 0.0
C1197 C 0.13221 0.28359 0.95127 0.0
C1198 C 0.13742 0.25353 0.97946 0.0
C1199 C 0.12708 0.24057 0.96194 0.0
C1200 C 0.12417 0.22554 0.98751 0.0
C1201 C 0.1318 0.22428 0.01568 0.0
C1202 C 0.14228 0.23734 0.03371 0.0
C1203 C 0.14485 0.25261 0.00828 0.0
H1204 H 0.49569 0.57036 0.7044 0.0
H1205 H 0.50797 0.6228 0.66843 0.0
H1206 H 0.49976 0.63205 0.75014 0.0
H1207 H 0.45943 0.58295 0.79902 0.0
H1208 H 0.46548 0.56503 0.83617 0.0
H1209 H 0.46637 0.5633 0.77114 0.0
H1210 H 0.49781 0.5542 0.77717 0.0
H1211 H 0.49719 0.55623 0.84171 0.0
H1212 H 0.51275 0.56804 0.80747 0.0
H1213 H 0.50087 0.63373 0.8368 0.0
H1214 H 0.50452 0.6288 0.92476 0.0
H1215 H 0.48936 0.57597 0.90591 0.0
C1216 C 0.49585 0.58382 0.71374 0.0
C1217 C 0.50249 0.59598 0.68174 0.0
C1218 C 0.5028 0.61349 0.6935 0.0
C1219 C 0.49802 0.61884 0.73941 0.0
C1220 C 0.49248 0.6065 0.77194 0.0
C1221 C 0.49062 0.5894 0.75924 0.0
C1222 C 0.48691 0.57844 0.80294 0.0
C1223 C 0.46845 0.57207 0.80227 0.0
C1224 C 0.49943 0.56337 0.80754 0.0
C1225 C 0.48959 0.5916 0.84213 0.0
C1226 C 0.49231 0.60779 0.82357 0.0
C1227 C 0.49802 0.62134 0.85221 0.0
C1228 C 0.50052 0.61839 0.90149 0.0
C1229 C 0.49746 0.60201 0.92055 0.0
C1230 C 0.49182 0.58856 0.89104 0.0
H1231 H 0.15516 0.77804 0.46453 0.0
H1232 H 0.13606 0.73168 0.39756 0.0
H1233 H 0.12881 0.72017 0.47886 0.0
H1234 H 0.17118 0.75982 0.5765 0.0
H1235 H 0.16421 0.77835 0.60987 0.0
H1236 H 0.17045 0.78046 0.54756 0.0
H1237 H 0.14107 0.79435 0.52929 0.0
H1238 H 0.1345 0.7915 0.5911 0.0
H1239 H 0.12197 0.78256 0.54271 0.0
H1240 H 0.12416 0.71459 0.57068 0.0
H1241 H 0.12306 0.71566 0.66054 0.0
H1242 H 0.13941 0.76856 0.65724 0.0
C1243 C 0.14982 0.76529 0.46682 0.0
C1244 C 0.1461 0.75572 0.4255 0.0
C1245 C 0.13891 0.73917 0.42954 0.0
C1246 C 0.13477 0.73258 0.47528 0.0
C1247 C 0.13769 0.74297 0.51548 0.0
C1248 C 0.14509 0.75894 0.51122 0.0
C1249 C 0.1455 0.76857 0.55795 0.0
C1250 C 0.16392 0.77198 0.57391 0.0
C1251 C 0.13514 0.78522 0.55504 0.0
C1252 C 0.13699 0.75571 0.58968 0.0
C1253 C 0.13293 0.74076 0.56542 0.0
C1254 C 0.12695 0.72636 0.58974 0.0
C1255 C 0.12616 0.72713 0.64039 0.0
C1256 C 0.13088 0.74233 0.66487 0.0
C1257 C 0.1352 0.75701 0.63907 0.0
H1258 H 0.99327 0.42358 0.1999 0.0
H1259 H 0.99022 0.36971 0.16364 0.0
H1260 H -0.01007 0.36214 0.24648 0.0
H1261 H 0.02085 0.41694 0.29994 0.0
H1262 H 0.01149 0.43377 0.33569 0.0
H1263 H 0.01155 0.43525 0.27058 0.0
H1264 H 0.98755 0.43947 0.27205 0.0
H1265 H 0.98719 0.43751 0.33667 0.0
H1266 H 0.97427 0.4235 0.30018 0.0
H1267 H 0.99629 0.36034 0.33314 0.0
H1268 H 0.9918 0.36448 0.42109 0.0
H1269 H 0.99758 0.4192 0.40306 0.0
C1270 C 0.99503 0.41027 0.20939 0.0
C1271 C 0.99087 0.39714 0.17664 0.0
C1272 C 0.99332 0.37984 0.18895 0.0
C1273 C -0.01036 0.37543 0.23566 0.0
C1274 C -0.0076 0.38856 0.26867 0.0
C1275 C -0.00823 0.4057 0.2558 0.0
C1276 C -0.00704 0.41717 0.2998 0.0
C1277 C 0.01025 0.42631 0.30161 0.0
C1278 C 0.98672 0.43015 0.30227 0.0
C1279 C -0.00841 0.4038 0.33898 0.0
C1280 C -0.00818 0.38739 0.32033 0.0
C1281 C 0.99679 0.37305 0.34865 0.0
C1282 C 0.99375 0.37549 0.39795 0.0
C1283 C 0.99399 0.39211 0.41742 0.0
C1284 C 0.99711 0.4064 0.38794 0.0
H1285 H 0.35433 0.22708 0.14964 0.0
H1286 H 0.33955 0.27994 0.17311 0.0
H1287 H 0.3372 0.28421 0.08515 0.0
H1288 H 0.37683 0.23147 0.03399 0.0
H1289 H 0.36746 0.21202 0.01122 0.0
H1290 H 0.37153 0.21435 0.07501 0.0
H1291 H 0.33971 0.20782 0.09376 0.0
H1292 H 0.33574 0.20539 0.03015 0.0
H1293 H 0.32355 0.22054 0.06492 0.0
H1294 H 0.33161 0.28093 -0.00493 0.0
H1295 H 0.32566 0.26957 0.92806 0.0
H1296 H 0.3432 0.21919 0.96923 0.0
C1297 C 0.35138 0.23976 0.13628 0.0
C1298 C 0.34722 0.25311 0.16772 0.0
C1299 C 0.34299 0.26951 0.14919 0.0
C1300 C 0.34155 0.27209 0.09936 0.0
C1301 C 0.34465 0.25821 0.06922 0.0
C1302 C 0.34964 0.24244 0.08714 0.0
C1303 C 0.34963 0.22883 0.04905 0.0
C1304 C 0.36743 0.22123 0.04187 0.0
C1305 C 0.33638 0.21484 0.06017 0.0
C1306 C 0.34423 0.23937 0.00678 0.0
C1307 C 0.3412 0.25629 0.0185 0.0
C1308 C 0.33432 0.26781 -0.01475 0.0
C1309 C 0.33093 0.26103 0.95499 0.0
C1310 C 0.33392 0.24367 0.94409 0.0
C1311 C 0.34082 0.23252 0.97787 0.0
H1312 H 0.022 0.02437 0.00935 0.0
H1313 H 0.98064 0.04703 0.03135 0.0
H1314 H 0.96715 0.01984 0.01053 0.0
H1315 H 0.01318 -0.00079 0.92595 0.0
H1316 H 0.02505 0.98332 0.94353 0.0
H1317 H 0.0312 0.001 0.96587 0.0
H1318 H 0.02877 0.99372 0.03773 0.0
H1319 H 0.0225 0.97297 0.01562 0.0
H1320 H 0.00919 0.9842 0.05807 0.0
H1321 H 0.95917 0.99384 0.99483 0.0
H1322 H 0.95685 0.96453 0.96124 0.0
H1323 H 0.00341 0.96053 0.96133 0.0
C1324 C 0.00829 0.02348 0.0104 0.0
C1325 C -0.00184 0.0378 0.02122 0.0
C1326 C 0.98869 0.0362 0.02282 0.0
C1327 C 0.98084 0.02082 0.01116 0.0
C1328 C 0.99109 0.00708 -0.00102 0.0
C1329 C 0.00019 0.00807 -0.00042 0.0
C1330 C 0.00835 0.99432 -0.01601 0.0
C1331 C 0.02029 0.99593 0.95629 0.0
C1332 C 0.01775 0.98581 0.02639 0.0
C1333 C -0.00726 0.98381 0.98746 0.0
C1334 C 0.98641 0.99356 -0.01907 0.0
C1335 C 0.97048 0.98642 0.98756 0.0
C1336 C 0.96928 0.9699 0.96824 0.0
C1337 C 0.98417 0.96038 0.95861 0.0
C1338 C -0.00821 0.96756 0.96789 0.0
H1339 H 0.21372 0.78242 0.23301 0.0
H1340 H 0.19941 0.74271 0.33483 0.0
H1341 H 0.2257 0.72702 0.31665 0.0
H1342 H 0.22915 0.75739 0.14408 0.0
H1343 H 0.24732 0.77021 0.12815 0.0
H1344 H 0.229 0.78017 0.15477 0.0
H1345 H 0.24738 0.79279 0.22402 0.0
H1346 H 0.26588 0.78338 0.19654 0.0
H1347 H 0.26083 0.77879 0.25877 0.0
H1348 H 0.2516 0.71401 0.28007 0.0
H1349 H 0.27886 0.70767 0.23917 0.0
H1350 H 0.27427 0.75493 0.1577 0.0
C1351 C 0.21647 0.77077 0.25267 0.0
C1352 C 0.20464 0.76355 0.28454 0.0
C1353 C 0.20842 0.74824 0.3097 0.0
C1354 C 0.22323 0.73922 0.29959 0.0
C1355 C 0.23405 0.74591 0.26485 0.0
C1356 C 0.23118 0.76158 0.24294 0.0
C1357 C 0.24459 0.76562 0.20593 0.0
C1358 C 0.23704 0.7685 0.15526 0.0
C1359 C 0.2553 0.78105 0.22231 0.0
C1360 C 0.25467 0.74931 0.20824 0.0
C1361 C 0.24866 0.73819 0.24297 0.0
C1362 C 0.25657 0.72265 0.25298 0.0
C1363 C 0.27184 0.71903 0.22914 0.0
C1364 C 0.27865 0.73097 0.19594 0.0
C1365 C 0.26938 0.74565 0.18327 0.0
H1366 H 0.50476 0.02079 0.39323 0.0
H1367 H 0.5236 0.03933 0.53104 0.0
H1368 H 0.51229 0.01363 0.57146 0.0
H1369 H 0.46714 0.00523 0.42991 0.0
H1370 H 0.46715 0.98886 0.39418 0.0
H1371 H 0.47878 0.00419 0.37378 0.0
H1372 H 0.50665 0.98945 0.36918 0.0
H1373 H 0.49474 0.97081 0.38675 0.0
H1374 H 0.51324 0.97704 0.42077 0.0
H1375 H 0.49554 0.99222 0.59785 0.0
H1376 H 0.48196 0.96401 0.60706 0.0
H1377 H 0.47422 0.9611 0.45198 0.0
C1378 C 0.50716 0.01893 0.43148 0.0
C1379 C 0.51492 0.0317 0.45946 0.0
C1380 C 0.51784 0.02933 0.50938 0.0
C1381 C 0.51121 0.01501 0.53262 0.0
C1382 C 0.50218 0.00333 0.50472 0.0
C1383 C 0.50087 0.00462 0.455 0.0
C1384 C 0.49085 0.99313 0.43363 0.0
C1385 C 0.47493 -0.0032 0.4063 0.0
C1386 C 0.50204 0.98193 0.40068 0.0
C1387 C 0.48597 0.98394 0.47957 0.0
C1388 C 0.49262 0.99194 0.52006 0.0
C1389 C 0.49038 0.98568 0.56661 0.0
C1390 C 0.48247 0.96989 0.57157 0.0
C1391 C 0.47713 0.9608 0.53016 0.0
C1392 C 0.47791 0.96821 0.48399 0.0
H1393 H 0.26834 0.23845 0.83545 0.0
H1394 H 0.28675 0.21851 0.69878 0.0
H1395 H 0.26191 0.23078 0.6571 0.0
H1396 H 0.22177 0.23268 0.80792 0.0
H1397 H 0.21668 0.25201 0.84049 0.0
H1398 H 0.23442 0.23914 0.85912 0.0
H1399 H 0.25357 0.26588 0.85254 0.0
H1400 H 0.23612 0.27863 0.8312 0.0
H1401 H 0.25523 0.27699 0.79559 0.0
H1402 H 0.23903 0.24936 0.62927 0.0
H1403 H 0.21161 0.2639 0.61861 0.0
H1404 H 0.20774 0.27149 0.77354 0.0
C1405 C 0.26651 0.23587 0.79726 0.0
C1406 C 0.27908 0.22762 0.76984 0.0
C1407 C 0.27686 0.2246 0.71994 0.0
C1408 C 0.26307 0.23182 0.69601 0.0
C1409 C 0.25177 0.24153 0.72326 0.0
C1410 C 0.25277 0.24282 0.77305 0.0
C1411 C 0.23902 0.25415 0.79353 0.0
C1412 C 0.22726 0.24388 0.8272 0.0
C1413 C 0.24645 0.26984 0.81974 0.0
C1414 C 0.23033 0.25925 0.74712 0.0
C1415 C 0.23824 0.25219 0.70708 0.0
C1416 C 0.23255 0.25483 0.66017 0.0
C1417 C 0.21725 0.26341 0.65435 0.0
C1418 C 0.20795 0.2687 0.69537 0.0
C1419 C 0.21501 0.26784 0.74186 0.0
H1420 H 0.02182 0.97427 0.45273 0.0
H1421 H 0.98207 0.94777 0.46797 0.0
H1422 H 0.96783 0.97494 0.48532 0.0
H1423 H 0.01652 -0.00017 0.54694 0.0
H1424 H 0.02561 0.01819 0.51723 0.0
H1425 H 0.03214 -0.00298 0.49987 0.0
H1426 H 0.02397 0.00315 0.41084 0.0
H1427 H 0.01755 0.02448 0.4276 0.0
H1428 H 0.00287 0.01054 0.39689 0.0
H1429 H 0.95889 0.0012 0.50825 0.0
H1430 H 0.95652 0.03158 0.53347 0.0
H1431 H 0.00167 0.03867 0.50293 0.0
C1432 C 0.00829 0.97428 0.45961 0.0
C1433 C -0.00118 0.95905 0.45939 0.0
C1434 C 0.98955 0.95941 0.46802 0.0
C1435 C 0.98129 0.97474 0.47764 0.0
C1436 C 0.99093 0.98956 0.478 0.0
C1437 C -0.00024 0.98955 0.46873 0.0
C1438 C 0.00694 0.0043 0.47348 0.0
C1439 C 0.02113 0.00485 0.51168 0.0
C1440 C 0.0132 0.011 0.42427 0.0
C1441 C -0.00864 0.01384 0.48994 0.0
C1442 C 0.9856 0.00356 0.49125 0.0
C1443 C 0.96984 0.00953 0.50675 0.0
C1444 C 0.96862 0.02667 0.52107 0.0
C1445 C 0.98317 0.03725 0.52021 0.0
C1446 C -0.00961 0.03075 0.50433 0.0
H1447 H 0.21554 0.7358 0.83417 0.0
H1448 H 0.19964 0.71646 0.69441 0.0
H1449 H 0.22558 0.72819 0.65719 0.0
H1450 H 0.23012 0.77344 0.8016 0.0
H1451 H 0.24908 0.77459 0.8379 0.0
H1452 H 0.23155 0.76158 0.8574 0.0
H1453 H 0.25047 0.73464 0.8615 0.0
H1454 H 0.26836 0.74774 0.84521 0.0
H1455 H 0.26343 0.72893 0.81017 0.0
H1456 H 0.24864 0.7473 0.63318 0.0
H1457 H 0.27581 0.76267 0.62656 0.0
H1458 H 0.27731 0.76903 0.78224 0.0
C1459 C 0.21817 0.73315 0.7964 0.0
C1460 C 0.20594 0.7254 0.7666 0.0
C1461 C 0.20922 0.72224 0.71731 0.0
C1462 C 0.22369 0.72912 0.6959 0.0
C1463 C 0.23465 0.73848 0.72516 0.0
C1464 C 0.23272 0.7396 0.77479 0.0
C1465 C 0.2463 0.75063 0.79756 0.0
C1466 C 0.23879 0.76596 0.82521 0.0
C1467 C 0.25783 0.73984 0.83051 0.0
C1468 C 0.25549 0.75632 0.7525 0.0
C1469 C 0.24835 0.74935 0.71122 0.0
C1470 C 0.25459 0.7526 0.66515 0.0
C1471 C 0.26973 0.76166 0.66164 0.0
C1472 C 0.27832 0.76684 0.70404 0.0
C1473 C 0.27062 0.76538 0.74957 0.0
H1474 H 0.51813 0.96228 0.9757 0.0
H1475 H 0.49538 0.96298 0.10274 0.0
H1476 H 0.48094 0.9901 0.08476 0.0
H1477 H 0.52368 0.00723 0.97062 0.0
H1478 H 0.51928 0.00764 0.90665 0.0
H1479 H 0.52951 0.99215 0.93307 0.0
H1480 H 0.50569 0.97339 0.89619 0.0
H1481 H 0.49515 0.99197 0.87225 0.0
H1482 H 0.48388 0.97762 0.9119 0.0
H1483 H 0.46525 0.01064 0.04842 0.0
H1484 H 0.4581 0.03744 0.00656 0.0
H1485 H 0.49139 0.02249 0.90385 0.0
C1486 C 0.51057 0.96913 -0.01251 0.0
C1487 C 0.50738 0.96102 0.03202 0.0
C1488 C 0.49766 0.96917 0.06825 0.0
C1489 C 0.48927 0.98435 0.05819 0.0
C1490 C 0.49112 0.99116 0.01219 0.0
C1491 C 0.50239 0.98379 0.99454 0.0
C1492 C 0.50232 0.99424 0.94851 0.0
C1493 C 0.51962 -0.00067 0.93922 0.0
C1494 C 0.4964 0.98366 0.90466 0.0
C1495 C 0.48907 0.00463 0.96227 0.0
C1496 C 0.48236 0.00253 -0.00837 0.0
C1497 C 0.47039 0.01322 0.01284 0.0
C1498 C 0.46622 0.02824 -0.01144 0.0
C1499 C 0.47463 0.0316 0.96092 0.0
C1500 C 0.48511 0.01955 0.93773 0.0
H1501 H 0.20354 0.25605 0.19509 0.0
H1502 H 0.2099 0.20123 0.21583 0.0
H1503 H 0.23876 0.20652 0.24793 0.0
H1504 H 0.24458 0.26627 0.15751 0.0
H1505 H 0.24503 0.28625 0.1902 0.0
H1506 H 0.22517 0.27777 0.16914 0.0
H1507 H 0.21332 0.27916 0.25661 0.0
H1508 H 0.23328 0.28739 0.27822 0.0
H1509 H 0.22438 0.26832 0.30467 0.0
H1510 H 0.26564 0.21774 0.27843 0.0
H1511 H 0.29158 0.23362 0.29629 0.0
H1512 H 0.26685 0.28125 0.25566 0.0
C1513 C 0.21093 0.24504 0.2061 0.0
C1514 C 0.20459 0.22823 0.20362 0.0
C1515 C 0.21467 0.21421 0.21797 0.0
C1516 C 0.23089 0.2171 0.23645 0.0
C1517 C 0.23638 0.23398 0.24029 0.0
C1518 C 0.22679 0.24767 0.22508 0.0
C1519 C 0.23554 0.26457 0.23256 0.0
C1520 C 0.23772 0.27427 0.18448 0.0
C1521 C 0.22607 0.2755 0.27026 0.0
C1522 C 0.25211 0.25815 0.25209 0.0
C1523 C 0.25207 0.24053 0.25752 0.0
C1524 C 0.26593 0.2315 0.27428 0.0
C1525 C 0.28056 0.24068 0.28409 0.0
C1526 C 0.28114 0.2586 0.27626 0.0
C1527 C 0.26666 0.26755 0.26147 0.0
H1528 H 0.78129 0.25475 0.6724 0.0
H1529 H 0.78273 0.20474 0.7404 0.0
H1530 H 0.75291 0.20835 0.76611 0.0
H1531 H 0.76284 0.27419 0.76507 0.0
H1532 H 0.74995 0.28899 0.73123 0.0
H1533 H 0.7693 0.28093 0.70547 0.0
H1534 H 0.75334 0.26921 0.63041 0.0
H1535 H 0.73402 0.2781 0.65453 0.0
H1536 H 0.735 0.25573 0.63875 0.0
H1537 H 0.72638 0.22003 0.79954 0.0
H1538 H 0.70143 0.23662 0.82501 0.0
H1539 H 0.71834 0.27965 0.73807 0.0
C1540 C 0.77517 0.24433 0.69145 0.0
C1541 C 0.7842 0.2297 0.70568 0.0
C1542 C 0.77589 0.21615 0.7298 0.0
C1543 C 0.75904 0.21809 0.74446 0.0
C1544 C 0.75099 0.2335 0.73389 0.0
C1545 C 0.7586 0.2462 0.70677 0.0
C1546 C 0.74831 0.26243 0.7059 0.0
C1547 C 0.75819 0.27751 0.72826 0.0
C1548 C 0.7423 0.2666 0.65433 0.0
C1549 C 0.73386 0.25705 0.73785 0.0
C1550 C 0.73565 0.24034 0.75361 0.0
C1551 C 0.72451 0.23291 0.78624 0.0
C1552 C 0.71055 0.24249 0.80079 0.0
C1553 C 0.70798 0.2592 0.78238 0.0
C1554 C 0.72003 0.26682 0.75206 0.0
H1555 H 0.71547 0.74851 0.14636 0.0
H1556 H 0.70737 0.78802 0.25442 0.0
H1557 H 0.73469 0.78066 0.29248 0.0
H1558 H 0.73032 0.71823 0.22067 0.0
H1559 H 0.74656 0.70947 0.18192 0.0
H1560 H 0.7283 0.71973 0.15582 0.0
H1561 H 0.74711 0.7411 0.10859 0.0
H1562 H 0.76547 0.73016 0.13171 0.0
H1563 H 0.76333 0.75292 0.14024 0.0
H1564 H 0.75811 0.76497 0.32868 0.0
H1565 H 0.78486 0.74981 0.34379 0.0
H1566 H 0.77845 0.72089 0.21084 0.0
C1567 C 0.71987 0.75605 0.17683 0.0
C1568 C 0.70946 0.76847 0.19861 0.0
C1569 C 0.71535 0.77836 0.23784 0.0
C1570 C 0.73065 0.77413 0.25993 0.0
C1571 C 0.7397 0.76037 0.24107 0.0
C1572 C 0.73511 0.75208 0.19892 0.0
C1573 C 0.74691 0.73743 0.18716 0.0
C1574 C 0.73745 0.7202 0.18638 0.0
C1575 C 0.75627 0.74061 0.1391 0.0
C1576 C 0.75867 0.73864 0.23 0.0
C1577 C 0.75388 0.75165 0.26118 0.0
C1578 C 0.76236 0.75512 0.30396 0.0
C1579 C 0.77735 0.74633 0.31242 0.0
C1580 C 0.78369 0.73478 0.27739 0.0
C1581 C 0.77375 0.72983 0.23768 0.0
H1582 H 0.70833 0.25713 0.27845 0.0
H1583 H 0.71422 0.20215 0.25979 0.0
H1584 H 0.744 0.20674 0.23482 0.0
H1585 H 0.73149 0.26926 0.17647 0.0
H1586 H 0.74076 0.28791 0.20435 0.0
H1587 H 0.72032 0.28034 0.224 0.0
H1588 H 0.73087 0.27787 0.31244 0.0
H1589 H 0.75117 0.28607 0.29364 0.0
H1590 H 0.74991 0.26593 0.32517 0.0
H1591 H 0.77135 0.21729 0.20682 0.0
H1592 H 0.79756 0.23255 0.18843 0.0
H1593 H 0.77357 0.28092 0.22632 0.0
C1594 C 0.71583 0.24596 0.26943 0.0
C1595 C 0.70907 0.2293 0.27031 0.0
C1596 C 0.71928 0.21503 0.25876 0.0
C1597 C 0.73608 0.21751 0.24454 0.0
C1598 C 0.74208 0.23425 0.24233 0.0
C1599 C 0.73239 0.24818 0.25518 0.0
C1600 C 0.74174 0.26486 0.24929 0.0
C1601 C 0.73307 0.27626 0.21125 0.0
C1602 C 0.74353 0.27422 0.29805 0.0
C1603 C 0.75846 0.25806 0.23146 0.0
C1604 C 0.75819 0.2404 0.22709 0.0
C1605 C 0.77192 0.23105 0.21079 0.0
C1606 C 0.78671 0.23989 0.20059 0.0
C1607 C 0.78762 0.25785 0.20748 0.0
C1608 C 0.77322 0.26716 0.22172 0.0
H1609 H 0.71527 0.71774 0.75399 0.0
H1610 H 0.7073 0.75223 0.63316 0.0
H1611 H 0.73498 0.76564 0.64809 0.0
H1612 H 0.73246 0.74494 0.83249 0.0
H1613 H 0.74923 0.73176 0.85642 0.0
H1614 H 0.73047 0.72195 0.83195 0.0
H1615 H 0.74821 0.70415 0.77113 0.0
H1616 H 0.76713 0.71312 0.79741 0.0
H1617 H 0.76356 0.71478 0.73321 0.0
H1618 H 0.76009 0.77878 0.68478 0.0
H1619 H 0.78712 0.78516 0.72614 0.0
H1620 H 0.77865 0.74227 0.82298 0.0
C1621 C 0.71976 0.7276 0.72962 0.0
C1622 C 0.70926 0.73438 0.69342 0.0
C1623 C 0.71526 0.74725 0.66183 0.0
C1624 C 0.73086 0.75496 0.67001 0.0
C1625 C 0.74026 0.74925 0.70914 0.0
C1626 C 0.73544 0.73535 0.73702 0.0
C1627 C 0.74794 0.7321 0.77727 0.0
C1628 C 0.7395 0.73274 0.82748 0.0
C1629 C 0.75726 0.71503 0.76924 0.0
C1630 C 0.75967 0.74706 0.76947 0.0
C1631 C 0.75506 0.75675 0.72994 0.0
C1632 C 0.76412 0.77113 0.71529 0.0
C1633 C 0.77924 0.77481 0.73937 0.0
C1634 C 0.78489 0.76395 0.77693 0.0
C1635 C 0.77455 0.75061 0.79395 0.0
H1636 H 0.52761 0.5231 0.51564 0.0
H1637 H 0.47958 0.54974 0.53415 0.0
H1638 H 0.46412 0.52328 0.51748 0.0
H1639 H 0.5166 0.49844 0.41907 0.0
H1640 H 0.52696 0.47901 0.43796 0.0
H1641 H 0.53488 0.49935 0.45822 0.0
H1642 H 0.53198 0.48992 0.54782 0.0
H1643 H 0.52447 0.46933 0.52773 0.0
H1644 H 0.51195 0.4818 0.56938 0.0
H1645 H 0.45378 0.49557 0.48935 0.0
H1646 H 0.44937 0.46603 0.45941 0.0
H1647 H 0.504 0.45814 0.46019 0.0
C1648 C 0.51387 0.52324 0.51675 0.0
C1649 C 0.50475 0.53833 0.52529 0.0
C1650 C 0.48678 0.5382 0.52712 0.0
C1651 C 0.47785 0.52329 0.51796 0.0
C1652 C 0.48714 0.50872 0.50792 0.0
C1653 C 0.50472 0.5084 0.50826 0.0
C1654 C 0.51149 0.49111 0.49441 0.0
C1655 C 0.52316 0.49205 0.44974 0.0
C1656 C 0.5205 0.48254 0.53741 0.0
C1657 C 0.49499 0.48235 0.4832 0.0
C1658 C 0.48108 0.49255 0.49198 0.0
C1659 C 0.46451 0.48722 0.4831 0.0
C1660 C 0.46213 0.4706 0.46598 0.0
C1661 C 0.47635 0.46 0.45781 0.0
C1662 C 0.49289 0.46604 0.46596 0.0
H1663 H 0.97876 0.4599 0.95919 0.0
H1664 H 0.98149 0.46575 0.09874 0.0
H1665 H 0.993 0.49491 0.08975 0.0
H1666 H 0.00805 0.47794 0.93365 0.0
H1667 H 0.00214 0.48965 0.88012 0.0
H1668 H -0.00935 0.47064 0.89668 0.0
H1669 H 0.97068 0.48724 0.89806 0.0
H1670 H 0.98199 0.50604 0.87867 0.0
H1671 H 0.96908 0.50679 0.93251 0.0
H1672 H 0.00075 0.52003 0.06488 0.0
H1673 H 0.01285 0.54538 0.02441 0.0
H1674 H -0.00057 0.52359 0.90097 0.0
C1675 C 0.98095 0.46765 0.99114 0.0
C1676 C 0.97912 0.46138 0.02142 0.0
C1677 C 0.98258 0.47127 0.06291 0.0
C1678 C 0.98925 0.48766 0.05812 0.0
C1679 C 0.99222 0.49368 0.0116 0.0
C1680 C 0.98766 0.48404 0.98688 0.0
C1681 C 0.99322 0.49313 0.94128 0.0
C1682 C -0.00286 0.48218 0.91121 0.0
C1683 C 0.97782 0.49864 0.91088 0.0
C1684 C -0.00631 0.50831 0.96348 0.0
C1685 C -0.00685 0.50845 -0.0029 0.0
C1686 C 0.00092 0.5208 0.02578 0.0
C1687 C 0.00807 0.5349 0.00261 0.0
C1688 C 0.00716 0.53572 0.96817 0.0
C1689 C 0.00054 0.52237 0.9399 0.0
H1690 H 0.51196 0.47618 0.90724 0.0
H1691 H 0.51142 0.45017 0.02825 0.0
H1692 H 0.49474 0.47354 0.06486 0.0
H1693 H 0.5174 0.51835 0.95885 0.0
H1694 H 0.50453 0.52832 0.91293 0.0
H1695 H 0.51606 0.5091 0.89918 0.0
H1696 H 0.48797 0.49503 0.87147 0.0
H1697 H 0.47627 0.51402 0.88727 0.0
H1698 H 0.47037 0.49368 0.91299 0.0
H1699 H 0.47817 0.49873 0.08567 0.0
H1700 H 0.47012 0.52897 0.09752 0.0
H1701 H 0.4811 0.53869 0.96311 0.0
C1702 C 0.50893 0.47574 0.94549 0.0
C1703 C 0.51316 0.46153 0.97378 0.0
C1704 C 0.5086 0.46146 0.00693 0.0
C1705 C 0.49872 0.47433 0.02744 0.0
C1706 C 0.49365 0.4877 -0.00232 0.0
C1707 C 0.49926 0.48854 0.9666 0.0
C1708 C 0.49342 0.50501 0.94395 0.0
C1709 C 0.50876 0.51585 0.92786 0.0
C1710 C 0.48128 0.50172 0.90142 0.0
C1711 C 0.48427 0.51274 0.98677 0.0
C1712 C 0.48393 0.50249 0.00984 0.0
C1713 C 0.47793 0.50739 0.05516 0.0
C1714 C 0.4733 0.52444 0.06155 0.0
C1715 C 0.47475 0.53596 0.02267 0.0
C1716 C 0.47943 0.52968 0.99252 0.0
H1717 H -0.00888 0.45454 0.46263 0.0
H1718 H 0.01753 0.46672 0.59576 0.0
H1719 H 0.00917 0.49713 0.58719 0.0
H1720 H 0.00025 0.49429 0.39651 0.0
H1721 H 0.98785 0.49458 0.36974 0.0
H1722 H 0.99761 0.47451 0.38506 0.0
H1723 H 0.97102 0.46702 0.4359 0.0
H1724 H 0.96162 0.48748 0.42262 0.0
H1725 H 0.96463 0.48098 0.48458 0.0
H1726 H -0.00476 0.52438 0.57018 0.0
H1727 H 0.99185 0.55035 0.53288 0.0
H1728 H 0.97504 0.52076 0.40906 0.0
C1729 C -0.00439 0.46383 0.48881 0.0
C1730 C 0.00501 0.45878 0.52945 0.0
C1731 C 0.0105 0.47078 0.56411 0.0
C1732 C 0.00563 0.48787 0.55983 0.0
C1733 C -0.00463 0.49233 0.52082 0.0
C1734 C -0.00911 0.48085 0.48499 0.0
C1735 C 0.98797 0.48891 0.44738 0.0
C1736 C 0.99603 0.48803 0.39669 0.0
C1737 C 0.97027 0.4806 0.44767 0.0
C1738 C 0.9873 0.50695 0.46686 0.0
C1739 C 0.99598 0.50836 0.51027 0.0
C1740 C 0.99704 0.52357 0.536 0.0
C1741 C 0.99016 0.53812 0.51493 0.0
C1742 C 0.98271 0.53721 0.4686 0.0
C1743 C 0.98057 0.52147 0.44488 0.0
H1744 H 0.07198 0.13248 0.00038 0.0
H1745 H 0.04866 0.11406 0.13241 0.0
H1746 H 0.0632 0.13657 0.17937 0.0
H1747 H 0.11124 0.13794 0.04703 0.0
H1748 H 0.11666 0.15714 0.01436 0.0
H1749 H 0.10142 0.14248 -0.01046 0.0
H1750 H 0.07916 0.16672 -0.01626 0.0
H1751 H 0.09445 0.1816 0.00791 0.0
H1752 H 0.07407 0.17918 0.03674 0.0
H1753 H 0.08249 0.15837 0.21279 0.0
H1754 H 0.10698 0.17716 0.23132 0.0
H1755 H 0.11949 0.17931 0.07861 0.0
C1756 C 0.06995 0.13341 0.03907 0.0
C1757 C 0.05975 0.12159 0.06344 0.0
C1758 C 0.05697 0.12295 0.11386 0.0
C1759 C 0.06485 0.13582 0.14054 0.0
C1760 C 0.07541 0.14706 0.1159 0.0
C1761 C 0.07801 0.14599 0.06634 0.0
C1762 C 0.09177 0.15799 0.04981 0.0
C1763 C 0.10612 0.1483 0.0237 0.0
C1764 C 0.08442 0.17222 0.01768 0.0
C1765 C 0.09739 0.16488 0.09824 0.0
C1766 C 0.0873 0.15904 0.13565 0.0
C1767 C 0.09043 0.16318 0.1839 0.0
C1768 C 0.10439 0.17359 0.19416 0.0
C1769 C 0.11513 0.17905 0.15635 0.0
C1770 C 0.11156 0.17481 0.10801 0.0
H1771 H 0.10299 0.82537 0.2609 0.0
H1772 H 0.12867 0.81159 0.39392 0.0
H1773 H 0.10632 0.82557 0.44153 0.0
H1774 H 0.09468 0.8655 0.29016 0.0
H1775 H 0.07373 0.86745 0.26457 0.0
H1776 H 0.08822 0.85188 0.24074 0.0
H1777 H 0.06642 0.82783 0.25609 0.0
H1778 H 0.05169 0.84344 0.27948 0.0
H1779 H 0.05742 0.82515 0.31557 0.0
H1780 H 0.08518 0.84445 0.47427 0.0
H1781 H 0.06725 0.86975 0.49038 0.0
H1782 H 0.05659 0.87418 0.33703 0.0
C1783 C 0.10359 0.82518 0.30005 0.0
C1784 C 0.11752 0.8179 0.32408 0.0
C1785 C 0.11819 0.81763 0.37517 0.0
C1786 C 0.10539 0.82515 0.40248 0.0
C1787 C 0.09209 0.83291 0.37804 0.0
C1788 C 0.09103 0.83306 0.32795 0.0
C1789 C 0.07714 0.84496 0.31093 0.0
C1790 C 0.08387 0.85824 0.27451 0.0
C1791 C 0.06229 0.83473 0.28927 0.0
C1792 C 0.07225 0.853 0.35889 0.0
C1793 C 0.08023 0.84502 0.39722 0.0
C1794 C 0.07864 0.85072 0.44481 0.0
C1795 C 0.06875 0.86518 0.45359 0.0
C1796 C 0.06126 0.87398 0.41468 0.0
C1797 C 0.06272 0.86773 0.36697 0.0
H1798 H 0.36744 0.81304 0.58276 0.0
H1799 H 0.36649 0.82463 0.73612 0.0
H1800 H 0.38872 0.84665 0.72416 0.0
H1801 H 0.41337 0.81899 0.56618 0.0
H1802 H 0.41099 0.82848 0.50717 0.0
H1803 H 0.39584 0.81288 0.52799 0.0
H1804 H 0.3714 0.83431 0.51296 0.0
H1805 H 0.38647 0.84992 0.49192 0.0
H1806 H 0.3722 0.8552 0.5407 0.0
H1807 H 0.40836 0.86866 0.69484 0.0
H1808 H 0.42592 0.88937 0.64996 0.0
H1809 H 0.41549 0.86246 0.51585 0.0
C1810 C 0.37192 0.8204 0.61347 0.0
C1811 C 0.36527 0.81782 0.66002 0.0
C1812 C 0.37141 0.82704 0.70013 0.0
C1813 C 0.38407 0.8393 0.69373 0.0
C1814 C 0.39039 0.84175 0.64718 0.0
C1815 C 0.38465 0.83252 0.60772 0.0
C1816 C 0.39311 0.83818 0.56132 0.0
C1817 C 0.40398 0.82377 0.53942 0.0
C1818 C 0.38 0.8448 0.52459 0.0
C1819 C 0.40395 0.85252 0.58071 0.0
C1820 C 0.40225 0.85425 0.63033 0.0
C1821 C 0.40992 0.86741 0.65608 0.0
C1822 C 0.41956 0.87923 0.63027 0.0
C1823 C 0.42149 0.87759 0.57959 0.0
C1824 C 0.41388 0.86397 0.55456 0.0
H1825 H 0.43444 0.14178 0.92197 0.0
H1826 H 0.40649 0.09478 0.89471 0.0
H1827 H 0.38479 0.11111 0.85086 0.0
H1828 H 0.39909 0.16755 0.946 0.0
H1829 H 0.40739 0.18641 0.91686 0.0
H1830 H 0.42168 0.17088 0.942 0.0
H1831 H 0.43665 0.16811 0.85895 0.0
H1832 H 0.42222 0.18355 0.83351 0.0
H1833 H 0.42439 0.16274 0.80602 0.0
H1834 H 0.36585 0.13159 0.81397 0.0
H1835 H 0.34765 0.15645 0.79703 0.0
H1836 H 0.3875 0.19043 0.84756 0.0
C1837 C 0.42368 0.13496 0.90704 0.0
C1838 C 0.42209 0.11704 0.91156 0.0
C1839 C 0.40788 0.10853 0.89175 0.0
C1840 C 0.39566 0.11762 0.8661 0.0
C1841 C 0.3979 0.13514 0.86075 0.0
C1842 C 0.41136 0.14383 0.88125 0.0
C1843 C 0.40982 0.16293 0.87379 0.0
C1844 C 0.40945 0.17249 0.92256 0.0
C1845 C 0.42412 0.16972 0.8411 0.0
C1846 C 0.39287 0.16352 0.84824 0.0
C1847 C 0.38657 0.14729 0.83971 0.0
C1848 C 0.37061 0.1444 0.81996 0.0
C1849 C 0.36036 0.15852 0.81074 0.0
C1850 C 0.36624 0.17514 0.82151 0.0
C1851 C 0.38287 0.17776 0.83867 0.0
H1852 H 0.8924 0.81336 0.78977 0.0
H1853 H 0.84596 0.83476 0.84959 0.0
H1854 H 0.86255 0.85565 0.89547 0.0
H1855 H 0.91824 0.81693 0.89276 0.0
H1856 H 0.93697 0.82384 0.86081 0.0
H1857 H 0.92149 0.81073 0.83053 0.0
H1858 H 0.91907 0.83351 0.76313 0.0
H1859 H 0.93441 0.84676 0.79362 0.0
H1860 H 0.91382 0.85526 0.77871 0.0
H1861 H 0.88321 0.87263 0.93892 0.0
H1862 H 0.90811 0.88828 0.97055 0.0
H1863 H 0.94122 0.85638 0.88304 0.0
C1864 C 0.88577 0.82281 0.81138 0.0
C1865 C 0.86795 0.82259 0.81599 0.0
C1866 C 0.85961 0.83494 0.8449 0.0
C1867 C 0.8689 0.84671 0.87164 0.0
C1868 C 0.88642 0.84618 0.868 0.0
C1869 C 0.89485 0.83489 0.83785 0.0
C1870 C 0.91384 0.83749 0.84023 0.0
C1871 C 0.92316 0.82127 0.85711 0.0
C1872 C 0.92069 0.84364 0.79102 0.0
C1873 C 0.91456 0.85147 0.87811 0.0
C1874 C 0.89858 0.85628 0.89336 0.0
C1875 C 0.89586 0.8691 0.92749 0.0
C1876 C 0.90996 0.87776 0.94553 0.0
C1877 C 0.92635 0.87319 0.92984 0.0
C1878 C 0.92874 0.85971 0.89653 0.0
H1879 H 0.93788 0.13373 0.62364 0.0
H1880 H 0.91164 0.11789 0.49316 0.0
H1881 H 0.88829 0.13807 0.51223 0.0
H1882 H 0.9016 0.13626 0.69848 0.0
H1883 H 0.90879 0.15467 0.73202 0.0
H1884 H 0.92399 0.14011 0.7062 0.0
H1885 H 0.9382 0.16517 0.6609 0.0
H1886 H 0.92302 0.17985 0.68638 0.0
H1887 H 0.9257 0.17857 0.62166 0.0
H1888 H 0.86769 0.15743 0.54729 0.0
H1889 H 0.84983 0.1765 0.59592 0.0
H1890 H 0.88949 0.18038 0.70445 0.0
C1891 C 0.92722 0.13473 0.59903 0.0
C1892 C 0.92625 0.12464 0.55693 0.0
C1893 C 0.91226 0.12569 0.52554 0.0
C1894 C 0.89915 0.1371 0.53596 0.0
C1895 C 0.9004 0.14687 0.57806 0.0
C1896 C 0.914 0.14579 0.60929 0.0
C1897 C 0.91174 0.15703 0.65345 0.0
C1898 C 0.91151 0.14637 0.70027 0.0
C1899 C 0.92547 0.17099 0.65568 0.0
C1900 C 0.89445 0.16435 0.6424 0.0
C1901 C 0.88829 0.1583 0.59869 0.0
C1902 C 0.87229 0.16233 0.5815 0.0
C1903 C 0.86218 0.1729 0.60973 0.0
C1904 C 0.86828 0.17947 0.65412 0.0
C1905 C 0.88462 0.17528 0.67074 0.0
H1906 H 0.62253 0.17814 0.39221 0.0
H1907 H 0.61246 0.17697 0.23795 0.0
H1908 H 0.58745 0.15854 0.25239 0.0
H1909 H 0.61409 0.13727 0.41974 0.0
H1910 H 0.60323 0.14097 0.47624 0.0
H1911 H 0.61848 0.15624 0.45482 0.0
H1912 H 0.5959 0.18022 0.45975 0.0
H1913 H 0.58054 0.16494 0.48142 0.0
H1914 H 0.57596 0.17766 0.4287 0.0
H1915 H 0.56797 0.1366 0.2812 0.0
H1916 H 0.55326 0.11319 0.32362 0.0
H1917 H 0.57406 0.13038 0.46048 0.0
C1918 C 0.61498 0.17397 0.36164 0.0
C1919 C 0.61944 0.17834 0.31399 0.0
C1920 C 0.6092 0.1733 0.2746 0.0
C1921 C 0.59493 0.16313 0.28254 0.0
C1922 C 0.59096 0.15879 0.33009 0.0
C1923 C 0.60045 0.16431 0.36913 0.0
C1924 C 0.59416 0.15685 0.41623 0.0
C1925 C 0.60834 0.14726 0.44327 0.0
C1926 C 0.58616 0.17075 0.44839 0.0
C1927 C 0.58087 0.14481 0.39685 0.0
C1928 C 0.57893 0.14651 0.34723 0.0
C1929 C 0.56904 0.13538 0.32009 0.0
C1930 C 0.56107 0.12199 0.34422 0.0
C1931 C 0.56308 0.12003 0.39472 0.0
C1932 C 0.5726 0.13177 0.42171 0.0
H1933 H 0.57533 0.86275 0.00067 0.0
H1934 H 0.56015 0.88961 0.13103 0.0
H1935 H 0.57585 0.86882 0.18094 0.0
H1936 H 0.57592 0.81913 0.05152 0.0
H1937 H 0.59469 0.81339 0.01793 0.0
H1938 H 0.58006 0.82884 -0.00644 0.0
H1939 H 0.60466 0.85063 -0.01495 0.0
H1940 H 0.61928 0.83533 0.00988 0.0
H1941 H 0.61713 0.85613 0.0375 0.0
H1942 H 0.5941 0.84625 0.21604 0.0
H1943 H 0.61636 0.82461 0.23335 0.0
H1944 H 0.62153 0.81455 0.07983 0.0
C1945 C 0.57552 0.86421 0.03966 0.0
C1946 C 0.56715 0.87782 0.06235 0.0
C1947 C 0.56715 0.87943 0.11336 0.0
C1948 C 0.57569 0.86756 0.14194 0.0
C1949 C 0.58416 0.85435 0.11857 0.0
C1950 C 0.58432 0.85271 0.06862 0.0
C1951 C 0.596 0.83861 0.05233 0.0
C1952 C 0.58606 0.82413 0.0274 0.0
C1953 C 0.6101 0.8456 0.01928 0.0
C1954 C 0.60283 0.83308 0.10078 0.0
C1955 C 0.59544 0.84191 0.13868 0.0
C1956 C 0.60001 0.83921 0.18681 0.0
C1957 C 0.61266 0.82714 0.1963 0.0
C1958 C 0.62064 0.8186 0.15754 0.0
C1959 C 0.61566 0.82141 0.10956 0.0
H1960 H 0.58477 0.62037 0.53008 0.0
H1961 H 0.53942 0.63412 0.60968 0.0
H1962 H 0.55493 0.65751 0.65068 0.0
H1963 H 0.61362 0.62572 0.6197 0.0
H1964 H 0.62996 0.63518 0.5827 0.0
H1965 H 0.61457 0.62117 0.55574 0.0
H1966 H 0.60641 0.6449 0.49448 0.0
H1967 H 0.62183 0.65907 0.52124 0.0
H1968 H 0.59998 0.66563 0.51637 0.0
H1969 H 0.57636 0.67631 0.69022 0.0
H1970 H 0.60182 0.69127 0.72077 0.0
H1971 H 0.63255 0.66532 0.61266 0.0
C1972 C 0.57814 0.62866 0.5552 0.0
C1973 C 0.56116 0.62589 0.56688 0.0
C1974 C 0.55255 0.63656 0.60018 0.0
C1975 C 0.56118 0.64977 0.62351 0.0
C1976 C 0.57818 0.65213 0.6119 0.0
C1977 C 0.58645 0.6421 0.57786 0.0
C1978 C 0.60486 0.64673 0.57345 0.0
C1979 C 0.61642 0.63128 0.58353 0.0
C1980 C 0.60848 0.65456 0.52344 0.0
C1981 C 0.60599 0.6599 0.61308 0.0
C1982 C 0.59044 0.66312 0.63425 0.0
C1983 C 0.5886 0.67411 0.67356 0.0
C1984 C 0.60312 0.68229 0.69112 0.0
C1985 C 0.61913 0.67915 0.66952 0.0
C1986 C 0.62052 0.66776 0.63031 0.0
H1987 H 0.57038 0.38131 0.8477 0.0
H1988 H 0.56283 0.36212 0.99349 0.0
H1989 H 0.58084 0.33708 0.97441 0.0
H1990 H 0.5698 0.33904 0.78834 0.0
H1991 H 0.58562 0.34523 0.74461 0.0
H1992 H 0.57122 0.36099 0.7687 0.0
H1993 H 0.59675 0.37955 0.79587 0.0
H1994 H 0.61116 0.36387 0.77188 0.0
H1995 H 0.61278 0.37032 0.83437 0.0
H1996 H 0.60154 0.31618 0.9422 0.0
H1997 H 0.62366 0.30007 0.898 0.0
H1998 H 0.61631 0.33211 0.77198 0.0
C1999 C 0.57269 0.37192 0.87574 0.0
C2000 C 0.56573 0.37372 0.92238 0.0
C2001 C 0.56844 0.36099 0.95783 0.0
C2002 C 0.57842 0.3467 0.94715 0.0
C2003 C 0.58509 0.3453 0.90064 0.0
C2004 C 0.58223 0.35747 0.86536 0.0
C2005 C 0.59134 0.35326 0.81875 0.0
C2006 C 0.57873 0.34939 0.7777 0.0
C2007 C 0.60375 0.3676 0.80443 0.0
C2008 C 0.60058 0.33734 0.83423 0.0
C2009 C 0.59659 0.33282 0.88136 0.0
C2010 C 0.60454 0.31937 0.90507 0.0
C2011 C 0.61708 0.31044 0.87998 0.0
C2012 C 0.6214 0.31513 0.83216 0.0
C2013 C 0.61294 0.32843 0.80853 0.0
H2014 H 0.87639 0.3327 0.20192 0.0
H2015 H 0.87182 0.29811 0.08008 0.0
H2016 H 0.89573 0.31243 0.03923 0.0
H2017 H 0.88139 0.3685 0.14017 0.0
H2018 H 0.89714 0.37866 0.1778 0.0
H2019 H 0.88308 0.36305 0.2034 0.0
H2020 H 0.90854 0.34508 0.23284 0.0
H2021 H 0.92285 0.36083 0.20825 0.0
H2022 H 0.92477 0.33871 0.19054 0.0
H2023 H 0.91533 0.33297 0.00589 0.0
H2024 H 0.93123 0.35874 -0.01833 0.0
H2025 H 0.92246 0.38094 0.12365 0.0
C2026 C 0.88078 0.32814 0.16706 0.0
C2027 C 0.87248 0.31482 0.14308 0.0
C2028 C 0.87819 0.30868 0.09791 0.0
C2029 C 0.89183 0.31649 0.07501 0.0
C2030 C 0.8995 0.33017 0.09844 0.0
C2031 C 0.89438 0.33586 0.1437 0.0
C2032 C 0.90321 0.35221 0.15776 0.0
C2033 C 0.89044 0.36643 0.17046 0.0
C2034 C 0.91559 0.34901 0.19981 0.0
C2035 C 0.9125 0.3558 0.11102 0.0
C2036 C 0.91077 0.34254 0.07826 0.0
C2037 C 0.91712 0.34334 0.03135 0.0
C2038 C 0.92577 0.35808 0.01763 0.0
C2039 C 0.92758 0.3718 0.05051 0.0
C2040 C 0.92084 0.3707 0.09762 0.0
H2041 H 0.92698 0.61926 0.33635 0.0
H2042 H 0.9205 0.62671 0.4908 0.0
H2043 H 0.90073 0.65067 0.47487 0.0
H2044 H 0.92528 0.66588 0.30575 0.0
H2045 H 0.91444 0.66187 0.24947 0.0
H2046 H 0.92924 0.64638 0.27275 0.0
H2047 H 0.90604 0.62301 0.26883 0.0
H2048 H 0.89126 0.63841 0.24545 0.0
H2049 H 0.88607 0.62647 0.29924 0.0
H2050 H 0.87934 0.66995 0.44324 0.0
H2051 H 0.85765 0.68557 0.3969 0.0
H2052 H 0.88003 0.66798 0.26233 0.0
C2053 C 0.92121 0.62592 0.3666 0.0
C2054 C 0.92454 0.62109 0.41465 0.0
C2055 C 0.91754 0.63022 0.45384 0.0
C2056 C 0.90662 0.64389 0.44511 0.0
C2057 C 0.90356 0.64841 0.39717 0.0
C2058 C 0.91081 0.63991 0.35848 0.0
C2059 C 0.90479 0.64689 0.31049 0.0
C2060 C 0.9193 0.6558 0.28304 0.0
C2061 C 0.89655 0.63285 0.27922 0.0
C2062 C 0.89187 0.65961 0.32851 0.0
C2063 C 0.89165 0.66047 0.3786 0.0
C2064 C 0.87953 0.66968 0.40409 0.0
C2065 C 0.86712 0.67813 0.37766 0.0
C2066 C 0.86713 0.6773 0.32664 0.0
C2067 C 0.87984 0.66842 0.30152 0.0
H2068 H 0.36897 0.31281 0.38639 0.0
H2069 H 0.37119 0.32332 0.23242 0.0
H2070 H 0.39623 0.3417 0.24548 0.0
H2071 H 0.37668 0.35085 0.43032 0.0
H2072 H 0.39097 0.34549 0.47893 0.0
H2073 H 0.37607 0.32987 0.45747 0.0
H2074 H 0.40043 0.3086 0.44097 0.0
H2075 H 0.41547 0.32413 0.46306 0.0
H2076 H 0.4181 0.31497 0.40366 0.0
H2077 H 0.41446 0.36376 0.27588 0.0
H2078 H 0.42913 0.38627 0.32151 0.0
H2079 H 0.41784 0.36017 0.45623 0.0
C2080 C 0.375 0.31882 0.35554 0.0
C2081 C 0.36817 0.31726 0.30863 0.0
C2082 C 0.3763 0.32476 0.26858 0.0
C2083 C 0.39058 0.33496 0.27562 0.0
C2084 C 0.39672 0.33683 0.32258 0.0
C2085 C 0.38959 0.32856 0.36185 0.0
C2086 C 0.39775 0.33408 0.40899 0.0
C2087 C 0.38457 0.34046 0.44603 0.0
C2088 C 0.40859 0.31958 0.43039 0.0
C2089 C 0.4088 0.34842 0.39038 0.0
C2090 C 0.40834 0.34936 0.34033 0.0
C2091 C 0.41543 0.36288 0.31486 0.0
C2092 C 0.42332 0.37578 0.3411 0.0
C2093 C 0.42415 0.37491 0.3921 0.0
C2094 C 0.41716 0.36096 0.41715 0.0
H2095 H 0.38814 0.69167 0.14572 0.0
H2096 H 0.34702 0.65702 0.18263 0.0
H2097 H 0.36404 0.63268 0.15358 0.0
H2098 H 0.39923 0.67344 0.03759 0.0
H2099 H 0.42186 0.67582 0.04375 0.0
H2100 H 0.40787 0.69042 0.07438 0.0
H2101 H 0.42219 0.68303 0.15589 0.0
H2102 H 0.43624 0.66837 0.1254 0.0
H2103 H 0.4234 0.66106 0.17527 0.0
H2104 H 0.38246 0.61344 0.10925 0.0
H2105 H 0.40463 0.59828 0.06358 0.0
H2106 H 0.43399 0.6453 0.05525 0.0
C2107 C 0.38301 0.67888 0.1493 0.0
C2108 C 0.36638 0.67602 0.16643 0.0
C2109 C 0.35979 0.65929 0.16962 0.0
C2110 C 0.36932 0.64546 0.15323 0.0
C2111 C 0.38529 0.64875 0.13406 0.0
C2112 C 0.39232 0.66494 0.13282 0.0
C2113 C 0.40936 0.66496 0.10756 0.0
C2114 C 0.40956 0.67687 0.0632 0.0
C2115 C 0.42364 0.66962 0.14316 0.0
C2116 C 0.41019 0.6464 0.09259 0.0
C2117 C 0.39625 0.63733 0.10857 0.0
C2118 C 0.39366 0.62022 0.09724 0.0
C2119 C 0.40615 0.61182 0.07066 0.0
C2120 C 0.42096 0.62064 0.05612 0.0
C2121 C 0.42275 0.63826 0.06586 0.0
H2122 H 0.06234 0.61893 0.84373 0.0
H2123 H 0.0608 0.63287 -0.02006 0.0
H2124 H 0.07873 0.65753 0.97998 0.0
H2125 H 0.10349 0.62923 0.81777 0.0
H2126 H 0.09984 0.6392 0.7599 0.0
H2127 H 0.08538 0.62319 0.78171 0.0
H2128 H 0.06034 0.64425 0.77252 0.0
H2129 H 0.07477 0.66029 0.75011 0.0
H2130 H 0.06133 0.66494 0.80124 0.0
H2131 H 0.09893 0.67773 0.95159 0.0
H2132 H 0.1211 0.6941 0.91057 0.0
H2133 H 0.10844 0.67013 0.77386 0.0
C2134 C 0.06603 0.62713 0.87356 0.0
C2135 C 0.06094 0.62361 0.92142 0.0
C2136 C 0.06527 0.63471 0.95968 0.0
C2137 C 0.075 0.64918 0.95061 0.0
C2138 C 0.07976 0.65241 0.90302 0.0
C2139 C 0.07533 0.64191 0.86485 0.0
C2140 C 0.08289 0.64811 0.81756 0.0
C2141 C 0.09354 0.6341 0.79284 0.0
C2142 C 0.069 0.6548 0.78337 0.0
C2143 C 0.09376 0.66259 0.8365 0.0
C2144 C 0.09122 0.66504 0.88564 0.0
C2145 C 0.1008 0.67631 0.913 0.0
C2146 C 0.1135 0.68532 0.88969 0.0
C2147 C 0.11637 0.68306 0.83985 0.0
C2148 C 0.10628 0.67188 0.81227 0.0
H2149 H 0.06669 0.35718 0.51229 0.0
H2150 H 0.06236 0.39117 0.63588 0.0
H2151 H 0.07957 0.37143 0.68486 0.0
H2152 H 0.06682 0.31665 0.57826 0.0
H2153 H 0.08267 0.30733 0.53922 0.0
H2154 H 0.06834 0.32326 0.51592 0.0
H2155 H 0.09395 0.34145 0.48802 0.0
H2156 H 0.10837 0.3257 0.51164 0.0
H2157 H 0.10988 0.34764 0.53142 0.0
H2158 H 0.09842 0.34953 0.7186 0.0
H2159 H 0.11984 0.32694 0.7339 0.0
H2160 H 0.11271 0.30759 0.58829 0.0
C2161 C 0.06964 0.36047 0.54944 0.0
C2162 C 0.06378 0.37574 0.57021 0.0
C2163 C 0.06741 0.37971 0.6191 0.0
C2164 C 0.07681 0.36846 0.64742 0.0
C2165 C 0.08257 0.35349 0.62592 0.0
C2166 C 0.07932 0.34953 0.57796 0.0
C2167 C 0.08843 0.33348 0.56245 0.0
C2168 C 0.07581 0.31934 0.54817 0.0
C2169 C 0.1009 0.3373 0.52096 0.0
C2170 C 0.09758 0.3293 0.609 0.0
C2171 C 0.09378 0.34084 0.64536 0.0
C2172 C 0.10147 0.34029 0.69073 0.0
C2173 C 0.11363 0.32765 0.69899 0.0
C2174 C 0.11773 0.31597 0.66197 0.0
C2175 C 0.10956 0.31658 0.61683 0.0
loop_
_geom_bond_atom_site_label_1
_geom_bond_atom_site_label_2
_geom_bond_distance
_geom_bond_site_symmetry_2
_ccdc_geom_bond_type
C0 O1 1.306 1_455 S
C0 O3 1.160 . S
O1 C0 1.306 1_655 S
O1 Cd2 2.228 1_556 S
Cd2 O1 2.228 1_554 S
Cd2 O6 2.273 1_655 S
Cd2 O10 2.277 1_655 S
O3 C0 1.160 . S
O3 Cd4 2.203 1_556 S
Cd4 O3 2.203 1_554 S
Cd4 O6 2.411 . S
Cd4 O7 2.333 . S
Cd4 O8 2.352 . S
Cd4 O12 2.277 . S
Cd4 O13 2.356 . S
C5 O10 1.209 . S
C5 O12 1.226 . S
O6 Cd2 2.273 1_455 S
O6 Cd4 2.411 . S
O6 C9 1.320 . S
O7 Cd4 2.333 . S
O7 C9 1.214 . S
O8 Cd4 2.352 . S
O8 C11 1.258 . S
C9 O6 1.320 . S
C9 O7 1.214 . S
O10 Cd2 2.277 1_455 S
O10 C5 1.209 . S
C11 O8 1.258 . S
C11 O13 1.282 . S
O12 Cd4 2.277 . S
O12 C5 1.226 . S
O13 Cd4 2.356 . S
O13 C11 1.282 . S
C14 O15 1.306 . S
C14 O17 1.160 . S
O15 C14 1.306 . S
O15 Cd16 2.228 . S
Cd16 O15 2.228 . S
Cd16 O20 2.273 . S
Cd16 O24 2.277 . S
O17 C14 1.160 . S
O17 Cd18 2.203 . S
Cd18 O17 2.203 . S
Cd18 O20 2.411 . S
Cd18 O21 2.333 . S
Cd18 O22 2.352 . S
Cd18 O26 2.277 . S
Cd18 O27 2.356 . S
C19 O24 1.209 . S
C19 O26 1.226 . S
O20 Cd16 2.273 . S
O20 Cd18 2.411 . S
O20 C23 1.320 . S
O21 Cd18 2.333 . S
O21 C23 1.214 . S
O22 Cd18 2.352 . S
O22 C25 1.258 . S
C23 O20 1.320 . S
C23 O21 1.214 . S
O24 Cd16 2.277 . S
O24 C19 1.209 . S
C25 O22 1.258 . S
C25 O27 1.282 . S
O26 Cd18 2.277 . S
O26 C19 1.226 . S
O27 Cd18 2.356 . S
O27 C25 1.282 . S
C28 O29 1.306 . S
C28 O31 1.160 . S
O29 C28 1.306 . S
O29 Cd30 2.228 . S
Cd30 O29 2.228 . S
Cd30 O34 2.273 . S
Cd30 O38 2.277 . S
O31 C28 1.160 . S
O31 Cd32 2.203 . S
Cd32 O31 2.203 . S
Cd32 O34 2.411 . S
Cd32 O35 2.333 . S
Cd32 O36 2.352 . S
Cd32 O40 2.277 . S
Cd32 O41 2.356 . S
C33 O38 1.209 . S
C33 O40 1.226 . S
O34 Cd30 2.273 . S
O34 Cd32 2.411 . S
O34 C37 1.320 . S
O35 Cd32 2.333 . S
O35 C37 1.214 . S
O36 Cd32 2.352 . S
O36 C39 1.258 . S
C37 O34 1.320 . S
C37 O35 1.214 . S
O38 Cd30 2.277 . S
O38 C33 1.209 . S
C39 O36 1.258 . S
C39 O41 1.282 . S
O40 Cd32 2.277 . S
O40 C33 1.226 . S
O41 Cd32 2.356 . S
O41 C39 1.282 . S
C42 O43 1.306 . S
C42 O45 1.160 . S
O43 C42 1.306 . S
O43 Cd44 2.228 . S
Cd44 O43 2.228 . S
Cd44 O48 2.273 . S
Cd44 O52 2.277 . S
O45 C42 1.160 . S
O45 Cd46 2.203 . S
Cd46 O45 2.203 . S
Cd46 O48 2.411 . S
Cd46 O49 2.333 . S
Cd46 O50 2.352 . S
Cd46 O54 2.277 . S
Cd46 O55 2.356 . S
C47 O52 1.209 . S
C47 O54 1.226 . S
O48 Cd44 2.273 . S
O48 Cd46 2.411 . S
O48 C51 1.320 . S
O49 Cd46 2.333 . S
O49 C51 1.214 . S
O50 Cd46 2.352 . S
O50 C53 1.258 . S
C51 O48 1.320 . S
C51 O49 1.214 . S
O52 Cd44 2.277 . S
O52 C47 1.209 . S
C53 O50 1.258 . S
C53 O55 1.282 . S
O54 Cd46 2.277 . S
O54 C47 1.226 . S
O55 Cd46 2.356 . S
O55 C53 1.282 . S
C56 O57 1.306 1_455 S
C56 O59 1.160 . S
O57 C56 1.306 1_655 S
O57 Cd58 2.228 . S
Cd58 O57 2.228 . S
Cd58 O62 2.273 1_655 S
Cd58 O66 2.277 1_655 S
O59 C56 1.160 . S
O59 Cd60 2.203 . S
Cd60 O59 2.203 . S
Cd60 O62 2.411 . S
Cd60 O63 2.333 . S
Cd60 O64 2.352 . S
Cd60 O68 2.277 . S
Cd60 O69 2.356 . S
C61 O66 1.209 . S
C61 O68 1.226 . S
O62 Cd58 2.273 1_455 S
O62 Cd60 2.411 . S
O62 C65 1.320 . S
O63 Cd60 2.333 . S
O63 C65 1.214 . S
O64 Cd60 2.352 . S
O64 C67 1.258 . S
C65 O62 1.320 . S
C65 O63 1.214 . S
O66 Cd58 2.277 1_455 S
O66 C61 1.209 . S
C67 O64 1.258 . S
C67 O69 1.282 . S
O68 Cd60 2.277 . S
O68 C61 1.226 . S
O69 Cd60 2.356 . S
O69 C67 1.282 . S
C70 O71 1.306 . S
C70 O73 1.160 . S
O71 C70 1.306 . S
O71 Cd72 2.228 . S
Cd72 O71 2.228 . S
Cd72 O76 2.273 . S
Cd72 O80 2.277 . S
O73 C70 1.160 . S
O73 Cd74 2.203 . S
Cd74 O73 2.203 . S
Cd74 O76 2.411 . S
Cd74 O77 2.333 . S
Cd74 O78 2.352 . S
Cd74 O82 2.277 . S
Cd74 O83 2.356 . S
C75 O80 1.209 . S
C75 O82 1.226 . S
O76 Cd72 2.273 . S
O76 Cd74 2.411 . S
O76 C79 1.320 . S
O77 Cd74 2.333 . S
O77 C79 1.214 . S
O78 Cd74 2.352 . S
O78 C81 1.258 . S
C79 O76 1.320 . S
C79 O77 1.214 . S
O80 Cd72 2.277 . S
O80 C75 1.209 . S
C81 O78 1.258 . S
C81 O83 1.282 . S
O82 Cd74 2.277 . S
O82 C75 1.226 . S
O83 Cd74 2.356 . S
O83 C81 1.282 . S
C84 O85 1.306 . S
C84 O87 1.160 . S
O85 C84 1.306 . S
O85 Cd86 2.228 1_554 S
Cd86 O85 2.228 1_556 S
Cd86 O90 2.273 . S
Cd86 O94 2.277 . S
O87 C84 1.160 . S
O87 Cd88 2.203 1_554 S
Cd88 O87 2.203 1_556 S
Cd88 O90 2.411 . S
Cd88 O91 2.333 . S
Cd88 O92 2.352 . S
Cd88 O96 2.277 . S
Cd88 O97 2.356 . S
C89 O94 1.209 . S
C89 O96 1.226 . S
O90 Cd86 2.273 . S
O90 Cd88 2.411 . S
O90 C93 1.320 . S
O91 Cd88 2.333 . S
O91 C93 1.214 . S
O92 Cd88 2.352 . S
O92 C95 1.258 . S
C93 O90 1.320 . S
C93 O91 1.214 . S
O94 Cd86 2.277 . S
O94 C89 1.209 . S
C95 O92 1.258 . S
C95 O97 1.282 . S
O96 Cd88 2.277 . S
O96 C89 1.226 . S
O97 Cd88 2.356 . S
O97 C95 1.282 . S
C98 O99 1.306 . S
C98 O101 1.160 . S
O99 C98 1.306 . S
O99 Cd100 2.228 . S
Cd100 O99 2.228 . S
Cd100 O104 2.273 . S
Cd100 O108 2.277 . S
O101 C98 1.160 . S
O101 Cd102 2.203 . S
Cd102 O101 2.203 . S
Cd102 O104 2.411 . S
Cd102 O105 2.333 . S
Cd102 O106 2.352 . S
Cd102 O110 2.277 . S
Cd102 O111 2.356 . S
C103 O108 1.209 . S
C103 O110 1.226 . S
O104 Cd100 2.273 . S
O104 Cd102 2.411 . S
O104 C107 1.320 . S
O105 Cd102 2.333 . S
O105 C107 1.214 . S
O106 Cd102 2.352 . S
O106 C109 1.258 . S
C107 O104 1.320 . S
C107 O105 1.214 . S
O108 Cd100 2.277 . S
O108 C103 1.209 . S
C109 O106 1.258 . S
C109 O111 1.282 . S
O110 Cd102 2.277 . S
O110 C103 1.226 . S
O111 Cd102 2.356 . S
O111 C109 1.282 . S
C112 O113 1.306 1_655 S
C112 O115 1.160 . S
O113 C112 1.306 1_455 S
O113 Cd114 2.228 1_554 S
Cd114 O113 2.228 1_556 S
Cd114 O118 2.273 1_455 S
Cd114 O122 2.277 1_455 S
O115 C112 1.160 . S
O115 Cd116 2.203 1_554 S
Cd116 O115 2.203 1_556 S
Cd116 O118 2.411 . S
Cd116 O119 2.333 . S
Cd116 O120 2.352 . S
Cd116 O124 2.277 . S
Cd116 O125 2.356 . S
C117 O122 1.209 . S
C117 O124 1.226 . S
O118 Cd114 2.273 1_655 S
O118 Cd116 2.411 . S
O118 C121 1.320 . S
O119 Cd116 2.333 . S
O119 C121 1.214 . S
O120 Cd116 2.352 . S
O120 C123 1.258 . S
C121 O118 1.320 . S
C121 O119 1.214 . S
O122 Cd114 2.277 1_655 S
O122 C117 1.209 . S
C123 O120 1.258 . S
C123 O125 1.282 . S
O124 Cd116 2.277 . S
O124 C117 1.226 . S
O125 Cd116 2.356 . S
O125 C123 1.282 . S
C126 O127 1.306 . S
C126 O129 1.160 . S
O127 C126 1.306 . S
O127 Cd128 2.228 . S
Cd128 O127 2.228 . S
Cd128 O132 2.273 . S
Cd128 O136 2.277 . S
O129 C126 1.160 . S
O129 Cd130 2.203 . S
Cd130 O129 2.203 . S
Cd130 O132 2.411 . S
Cd130 O133 2.333 . S
Cd130 O134 2.352 . S
Cd130 O138 2.277 . S
Cd130 O139 2.356 . S
C131 O136 1.209 . S
C131 O138 1.226 . S
O132 Cd128 2.273 . S
O132 Cd130 2.411 . S
O132 C135 1.320 . S
O133 Cd130 2.333 . S
O133 C135 1.214 . S
O134 Cd130 2.352 . S
O134 C137 1.258 . S
C135 O132 1.320 . S
C135 O133 1.214 . S
O136 Cd128 2.277 . S
O136 C131 1.209 . S
C137 O134 1.258 . S
C137 O139 1.282 . S
O138 Cd130 2.277 . S
O138 C131 1.226 . S
O139 Cd130 2.356 . S
O139 C137 1.282 . S
C140 O141 1.306 . S
C140 O143 1.160 . S
O141 C140 1.306 . S
O141 Cd142 2.228 . S
Cd142 O141 2.228 . S
Cd142 O146 2.273 . S
Cd142 O150 2.277 . S
O143 C140 1.160 . S
O143 Cd144 2.203 . S
Cd144 O143 2.203 . S
Cd144 O146 2.411 . S
Cd144 O147 2.333 . S
Cd144 O148 2.352 . S
Cd144 O152 2.277 . S
Cd144 O153 2.356 . S
C145 O150 1.209 . S
C145 O152 1.226 . S
O146 Cd142 2.273 . S
O146 Cd144 2.411 . S
O146 C149 1.320 . S
O147 Cd144 2.333 . S
O147 C149 1.214 . S
O148 Cd144 2.352 . S
O148 C151 1.258 . S
C149 O146 1.320 . S
C149 O147 1.214 . S
O150 Cd142 2.277 . S
O150 C145 1.209 . S
C151 O148 1.258 . S
C151 O153 1.282 . S
O152 Cd144 2.277 . S
O152 C145 1.226 . S
O153 Cd144 2.356 . S
O153 C151 1.282 . S
C154 O155 1.306 . S
C154 O157 1.160 . S
O155 C154 1.306 . S
O155 Cd156 2.228 . S
Cd156 O155 2.228 . S
Cd156 O160 2.273 . S
Cd156 O164 2.277 . S
O157 C154 1.160 . S
O157 Cd158 2.203 . S
Cd158 O157 2.203 . S
Cd158 O160 2.411 . S
Cd158 O161 2.333 . S
Cd158 O162 2.352 . S
Cd158 O166 2.277 . S
Cd158 O167 2.356 . S
C159 O164 1.209 . S
C159 O166 1.226 . S
O160 Cd156 2.273 . S
O160 Cd158 2.411 . S
O160 C163 1.320 . S
O161 Cd158 2.333 . S
O161 C163 1.214 . S
O162 Cd158 2.352 . S
O162 C165 1.258 . S
C163 O160 1.320 . S
C163 O161 1.214 . S
O164 Cd156 2.277 . S
O164 C159 1.209 . S
C165 O162 1.258 . S
C165 O167 1.282 . S
O166 Cd158 2.277 . S
O166 C159 1.226 . S
O167 Cd158 2.356 . S
O167 C165 1.282 . S
C168 O169 1.306 1_655 S
C168 O171 1.160 . S
O169 C168 1.306 1_455 S
O169 Cd170 2.228 . S
Cd170 O169 2.228 . S
Cd170 O174 2.273 1_455 S
Cd170 O178 2.277 1_455 S
O171 C168 1.160 . S
O171 Cd172 2.203 . S
Cd172 O171 2.203 . S
Cd172 O174 2.411 . S
Cd172 O175 2.333 . S
Cd172 O176 2.352 . S
Cd172 O180 2.277 . S
Cd172 O181 2.356 . S
C173 O178 1.209 . S
C173 O180 1.226 . S
O174 Cd170 2.273 1_655 S
O174 Cd172 2.411 . S
O174 C177 1.320 . S
O175 Cd172 2.333 . S
O175 C177 1.214 . S
O176 Cd172 2.352 . S
O176 C179 1.258 . S
C177 O174 1.320 . S
C177 O175 1.214 . S
O178 Cd170 2.277 1_655 S
O178 C173 1.209 . S
C179 O176 1.258 . S
C179 O181 1.282 . S
O180 Cd172 2.277 . S
O180 C173 1.226 . S
O181 Cd172 2.356 . S
O181 C179 1.282 . S
C182 O183 1.306 . S
C182 O185 1.160 . S
O183 C182 1.306 . S
O183 Cd184 2.228 . S
Cd184 O183 2.228 . S
Cd184 O188 2.273 . S
Cd184 O192 2.277 . S
O185 C182 1.160 . S
O185 Cd186 2.203 . S
Cd186 O185 2.203 . S
Cd186 O188 2.411 . S
Cd186 O189 2.333 . S
Cd186 O190 2.352 . S
Cd186 O194 2.277 . S
Cd186 O195 2.356 . S
C187 O192 1.209 . S
C187 O194 1.226 . S
O188 Cd184 2.273 . S
O188 Cd186 2.411 . S
O188 C191 1.320 . S
O189 Cd186 2.333 . S
O189 C191 1.214 . S
O190 Cd186 2.352 . S
O190 C193 1.258 . S
C191 O188 1.320 . S
C191 O189 1.214 . S
O192 Cd184 2.277 . S
O192 C187 1.209 . S
C193 O190 1.258 . S
C193 O195 1.282 . S
O194 Cd186 2.277 . S
O194 C187 1.226 . S
O195 Cd186 2.356 . S
O195 C193 1.282 . S
C196 O197 1.306 . S
C196 O199 1.160 . S
O197 C196 1.306 . S
O197 Cd198 2.228 1_556 S
Cd198 O197 2.228 1_554 S
Cd198 O202 2.273 . S
Cd198 O206 2.277 . S
O199 C196 1.160 . S
O199 Cd200 2.203 1_556 S
Cd200 O199 2.203 1_554 S
Cd200 O202 2.411 . S
Cd200 O203 2.333 . S
Cd200 O204 2.352 . S
Cd200 O208 2.277 . S
Cd200 O209 2.356 . S
C201 O206 1.209 . S
C201 O208 1.226 . S
O202 Cd198 2.273 . S
O202 Cd200 2.411 . S
O202 C205 1.320 . S
O203 Cd200 2.333 . S
O203 C205 1.214 . S
O204 Cd200 2.352 . S
O204 C207 1.258 . S
C205 O202 1.320 . S
C205 O203 1.214 . S
O206 Cd198 2.277 . S
O206 C201 1.209 . S
C207 O204 1.258 . S
C207 O209 1.282 . S
O208 Cd200 2.277 . S
O208 C201 1.226 . S
O209 Cd200 2.356 . S
O209 C207 1.282 . S
C210 O211 1.306 . S
C210 O213 1.160 . S
O211 C210 1.306 . S
O211 Cd212 2.228 . S
Cd212 O211 2.228 . S
Cd212 O216 2.273 . S
Cd212 O220 2.277 . S
O213 C210 1.160 . S
O213 Cd214 2.203 . S
Cd214 O213 2.203 . S
Cd214 O216 2.411 . S
Cd214 O217 2.333 . S
Cd214 O218 2.352 . S
Cd214 O222 2.277 . S
Cd214 O223 2.356 . S
C215 O220 1.209 . S
C215 O222 1.226 . S
O216 Cd212 2.273 . S
O216 Cd214 2.411 . S
O216 C219 1.320 . S
O217 Cd214 2.333 . S
O217 C219 1.214 . S
O218 Cd214 2.352 . S
O218 C221 1.258 . S
C219 O216 1.320 . S
C219 O217 1.214 . S
O220 Cd212 2.277 . S
O220 C215 1.209 . S
C221 O218 1.258 . S
C221 O223 1.282 . S
O222 Cd214 2.277 . S
O222 C215 1.226 . S
O223 Cd214 2.356 . S
O223 C221 1.282 . S
C224 O225 1.306 . S
C224 O227 1.160 . S
O225 C224 1.306 . S
O225 Cd226 2.228 . S
Cd226 O225 2.228 . S
Cd226 O230 2.273 . S
Cd226 O234 2.277 . S
O227 C224 1.160 . S
O227 Cd228 2.203 . S
Cd228 O227 2.203 . S
Cd228 O230 2.411 . S
Cd228 O231 2.333 . S
Cd228 O232 2.352 . S
Cd228 O236 2.277 . S
Cd228 O237 2.356 . S
C229 O234 1.209 . S
C229 O236 1.226 . S
O230 Cd226 2.273 . S
O230 Cd228 2.411 . S
O230 C233 1.320 . S
O231 Cd228 2.333 . S
O231 C233 1.214 . S
O232 Cd228 2.352 . S
O232 C235 1.258 . S
C233 O230 1.320 . S
C233 O231 1.214 . S
O234 Cd226 2.277 . S
O234 C229 1.209 . S
C235 O232 1.258 . S
C235 O237 1.282 . S
O236 Cd228 2.277 . S
O236 C229 1.226 . S
O237 Cd228 2.356 . S
O237 C235 1.282 . S
C238 O239 1.306 . S
C238 O241 1.160 . S
O239 C238 1.306 . S
O239 Cd240 2.228 . S
Cd240 O239 2.228 . S
Cd240 O244 2.273 . S
Cd240 O248 2.277 . S
O241 C238 1.160 . S
O241 Cd242 2.203 . S
Cd242 O241 2.203 . S
Cd242 O244 2.411 . S
Cd242 O245 2.333 . S
Cd242 O246 2.352 . S
Cd242 O250 2.277 . S
Cd242 O251 2.356 . S
C243 O248 1.209 . S
C243 O250 1.226 . S
O244 Cd240 2.273 . S
O244 Cd242 2.411 . S
O244 C247 1.320 . S
O245 Cd242 2.333 . S
O245 C247 1.214 . S
O246 Cd242 2.352 . S
O246 C249 1.258 . S
C247 O244 1.320 . S
C247 O245 1.214 . S
O248 Cd240 2.277 . S
O248 C243 1.209 . S
C249 O246 1.258 . S
C249 O251 1.282 . S
O250 Cd242 2.277 . S
O250 C243 1.226 . S
O251 Cd242 2.356 . S
O251 C249 1.282 . S
C252 O253 1.306 1_655 S
C252 O255 1.160 . S
O253 C252 1.306 1_455 S
O253 Cd254 2.228 1_556 S
Cd254 O253 2.228 1_554 S
Cd254 O258 2.273 1_455 S
Cd254 O262 2.277 1_455 S
O255 C252 1.160 . S
O255 Cd256 2.203 1_556 S
Cd256 O255 2.203 1_554 S
Cd256 O258 2.411 . S
Cd256 O259 2.333 . S
Cd256 O260 2.352 . S
Cd256 O264 2.277 . S
Cd256 O265 2.356 . S
C257 O262 1.209 . S
C257 O264 1.226 . S
O258 Cd254 2.273 1_655 S
O258 Cd256 2.411 . S
O258 C261 1.320 . S
O259 Cd256 2.333 . S
O259 C261 1.214 . S
O260 Cd256 2.352 . S
O260 C263 1.258 . S
C261 O258 1.320 . S
C261 O259 1.214 . S
O262 Cd254 2.277 1_655 S
O262 C257 1.209 . S
C263 O260 1.258 . S
C263 O265 1.282 . S
O264 Cd256 2.277 . S
O264 C257 1.226 . S
O265 Cd256 2.356 . S
O265 C263 1.282 . S
C266 O267 1.306 . S
C266 O269 1.160 . S
O267 C266 1.306 . S
O267 Cd268 2.228 . S
Cd268 O267 2.228 . S
Cd268 O272 2.273 . S
Cd268 O276 2.277 . S
O269 C266 1.160 . S
O269 Cd270 2.203 . S
Cd270 O269 2.203 . S
Cd270 O272 2.411 . S
Cd270 O273 2.333 . S
Cd270 O274 2.352 . S
Cd270 O278 2.277 . S
Cd270 O279 2.356 . S
C271 O276 1.209 . S
C271 O278 1.226 . S
O272 Cd268 2.273 . S
O272 Cd270 2.411 . S
O272 C275 1.320 . S
O273 Cd270 2.333 . S
O273 C275 1.214 . S
O274 Cd270 2.352 . S
O274 C277 1.258 . S
C275 O272 1.320 . S
C275 O273 1.214 . S
O276 Cd268 2.277 . S
O276 C271 1.209 . S
C277 O274 1.258 . S
C277 O279 1.282 . S
O278 Cd270 2.277 . S
O278 C271 1.226 . S
O279 Cd270 2.356 . S
O279 C277 1.282 . S
C280 O281 1.306 . S
C280 O283 1.160 . S
O281 C280 1.306 . S
O281 Cd282 2.228 1_554 S
Cd282 O281 2.228 1_556 S
Cd282 O286 2.273 . S
Cd282 O290 2.277 . S
O283 C280 1.160 . S
O283 Cd284 2.203 1_554 S
Cd284 O283 2.203 1_556 S
Cd284 O286 2.411 . S
Cd284 O287 2.333 . S
Cd284 O288 2.352 . S
Cd284 O292 2.277 . S
Cd284 O293 2.356 . S
C285 O290 1.209 . S
C285 O292 1.226 . S
O286 Cd282 2.273 . S
O286 Cd284 2.411 . S
O286 C289 1.320 . S
O287 Cd284 2.333 . S
O287 C289 1.214 . S
O288 Cd284 2.352 . S
O288 C291 1.258 . S
C289 O286 1.320 . S
C289 O287 1.214 . S
O290 Cd282 2.277 . S
O290 C285 1.209 . S
C291 O288 1.258 . S
C291 O293 1.282 . S
O292 Cd284 2.277 . S
O292 C285 1.226 . S
O293 Cd284 2.356 . S
O293 C291 1.282 . S
C294 O295 1.306 . S
C294 O297 1.160 . S
O295 C294 1.306 . S
O295 Cd296 2.228 . S
Cd296 O295 2.228 . S
Cd296 O300 2.273 . S
Cd296 O304 2.277 . S
O297 C294 1.160 . S
O297 Cd298 2.203 . S
Cd298 O297 2.203 . S
Cd298 O300 2.411 . S
Cd298 O301 2.333 . S
Cd298 O302 2.352 . S
Cd298 O306 2.277 . S
Cd298 O307 2.356 . S
C299 O304 1.209 . S
C299 O306 1.226 . S
O300 Cd296 2.273 . S
O300 Cd298 2.411 . S
O300 C303 1.320 . S
O301 Cd298 2.333 . S
O301 C303 1.214 . S
O302 Cd298 2.352 . S
O302 C305 1.258 . S
C303 O300 1.320 . S
C303 O301 1.214 . S
O304 Cd296 2.277 . S
O304 C299 1.209 . S
C305 O302 1.258 . S
C305 O307 1.282 . S
O306 Cd298 2.277 . S
O306 C299 1.226 . S
O307 Cd298 2.356 . S
O307 C305 1.282 . S
C308 O309 1.306 1_655 S
C308 O311 1.160 . S
O309 C308 1.306 1_455 S
O309 Cd310 2.228 . S
Cd310 O309 2.228 . S
Cd310 O314 2.273 1_455 S
Cd310 O318 2.277 1_455 S
O311 C308 1.160 . S
O311 Cd312 2.203 . S
Cd312 O311 2.203 . S
Cd312 O314 2.411 . S
Cd312 O315 2.333 . S
Cd312 O316 2.352 . S
Cd312 O320 2.277 . S
Cd312 O321 2.356 . S
C313 O318 1.209 . S
C313 O320 1.226 . S
O314 Cd310 2.273 1_655 S
O314 Cd312 2.411 . S
O314 C317 1.320 . S
O315 Cd312 2.333 . S
O315 C317 1.214 . S
O316 Cd312 2.352 . S
O316 C319 1.258 . S
C317 O314 1.320 . S
C317 O315 1.214 . S
O318 Cd310 2.277 1_655 S
O318 C313 1.209 . S
C319 O316 1.258 . S
C319 O321 1.282 . S
O320 Cd312 2.277 . S
O320 C313 1.226 . S
O321 Cd312 2.356 . S
O321 C319 1.282 . S
C322 O323 1.306 . S
C322 O325 1.160 . S
O323 C322 1.306 . S
O323 Cd324 2.228 . S
Cd324 O323 2.228 . S
Cd324 O328 2.273 . S
Cd324 O332 2.277 . S
O325 C322 1.160 . S
O325 Cd326 2.203 . S
Cd326 O325 2.203 . S
Cd326 O328 2.411 . S
Cd326 O329 2.333 . S
Cd326 O330 2.352 . S
Cd326 O334 2.277 . S
Cd326 O335 2.356 . S
C327 O332 1.209 . S
C327 O334 1.226 . S
O328 Cd324 2.273 . S
O328 Cd326 2.411 . S
O328 C331 1.320 . S
O329 Cd326 2.333 . S
O329 C331 1.214 . S
O330 Cd326 2.352 . S
O330 C333 1.258 . S
C331 O328 1.320 . S
C331 O329 1.214 . S
O332 Cd324 2.277 . S
O332 C327 1.209 . S
C333 O330 1.258 . S
C333 O335 1.282 . S
O334 Cd326 2.277 . S
O334 C327 1.226 . S
O335 Cd326 2.356 . S
O335 C333 1.282 . S
C336 O337 1.306 . S
C336 O339 1.160 . S
O337 C336 1.306 . S
O337 Cd338 2.228 . S
Cd338 O337 2.228 . S
Cd338 O342 2.273 . S
Cd338 O346 2.277 . S
O339 C336 1.160 . S
O339 Cd340 2.203 . S
Cd340 O339 2.203 . S
Cd340 O342 2.411 . S
Cd340 O343 2.333 . S
Cd340 O344 2.352 . S
Cd340 O348 2.277 . S
Cd340 O349 2.356 . S
C341 O346 1.209 . S
C341 O348 1.226 . S
O342 Cd338 2.273 . S
O342 Cd340 2.411 . S
O342 C345 1.320 . S
O343 Cd340 2.333 . S
O343 C345 1.214 . S
O344 Cd340 2.352 . S
O344 C347 1.258 . S
C345 O342 1.320 . S
C345 O343 1.214 . S
O346 Cd338 2.277 . S
O346 C341 1.209 . S
C347 O344 1.258 . S
C347 O349 1.282 . S
O348 Cd340 2.277 . S
O348 C341 1.226 . S
O349 Cd340 2.356 . S
O349 C347 1.282 . S
C350 O351 1.306 . S
C350 O353 1.160 . S
O351 C350 1.306 . S
O351 Cd352 2.228 . S
Cd352 O351 2.228 . S
Cd352 O356 2.273 . S
Cd352 O360 2.277 . S
O353 C350 1.160 . S
O353 Cd354 2.203 . S
Cd354 O353 2.203 . S
Cd354 O356 2.411 . S
Cd354 O357 2.333 . S
Cd354 O358 2.352 . S
Cd354 O362 2.277 . S
Cd354 O363 2.356 . S
C355 O360 1.209 . S
C355 O362 1.226 . S
O356 Cd352 2.273 . S
O356 Cd354 2.411 . S
O356 C359 1.320 . S
O357 Cd354 2.333 . S
O357 C359 1.214 . S
O358 Cd354 2.352 . S
O358 C361 1.258 . S
C359 O356 1.320 . S
C359 O357 1.214 . S
O360 Cd352 2.277 . S
O360 C355 1.209 . S
C361 O358 1.258 . S
C361 O363 1.282 . S
O362 Cd354 2.277 . S
O362 C355 1.226 . S
O363 Cd354 2.356 . S
O363 C361 1.282 . S
C364 O365 1.306 1_455 S
C364 O367 1.160 . S
O365 C364 1.306 1_655 S
O365 Cd366 2.228 1_554 S
Cd366 O365 2.228 1_556 S
Cd366 O370 2.273 1_655 S
Cd366 O374 2.277 1_655 S
O367 C364 1.160 . S
O367 Cd368 2.203 1_554 S
Cd368 O367 2.203 1_556 S
Cd368 O370 2.411 . S
Cd368 O371 2.333 . S
Cd368 O372 2.352 . S
Cd368 O376 2.277 . S
Cd368 O377 2.356 . S
C369 O374 1.209 . S
C369 O376 1.226 . S
O370 Cd366 2.273 1_455 S
O370 Cd368 2.411 . S
O370 C373 1.320 . S
O371 Cd368 2.333 . S
O371 C373 1.214 . S
O372 Cd368 2.352 . S
O372 C375 1.258 . S
C373 O370 1.320 . S
C373 O371 1.214 . S
O374 Cd366 2.277 1_455 S
O374 C369 1.209 . S
C375 O372 1.258 . S
C375 O377 1.282 . S
O376 Cd368 2.277 . S
O376 C369 1.226 . S
O377 Cd368 2.356 . S
O377 C375 1.282 . S
C378 O379 1.306 . S
C378 O381 1.160 . S
O379 C378 1.306 . S
O379 Cd380 2.228 . S
Cd380 O379 2.228 . S
Cd380 O384 2.273 . S
Cd380 O388 2.277 . S
O381 C378 1.160 . S
O381 Cd382 2.203 . S
Cd382 O381 2.203 . S
Cd382 O384 2.411 . S
Cd382 O385 2.333 . S
Cd382 O386 2.352 . S
Cd382 O390 2.277 . S
Cd382 O391 2.356 . S
C383 O388 1.209 . S
C383 O390 1.226 . S
O384 Cd380 2.273 . S
O384 Cd382 2.411 . S
O384 C387 1.320 . S
O385 Cd382 2.333 . S
O385 C387 1.214 . S
O386 Cd382 2.352 . S
O386 C389 1.258 . S
C387 O384 1.320 . S
C387 O385 1.214 . S
O388 Cd380 2.277 . S
O388 C383 1.209 . S
C389 O386 1.258 . S
C389 O391 1.282 . S
O390 Cd382 2.277 . S
O390 C383 1.226 . S
O391 Cd382 2.356 . S
O391 C389 1.282 . S
C392 O393 1.306 . S
C392 O395 1.160 . S
O393 C392 1.306 . S
O393 Cd394 2.228 1_556 S
Cd394 O393 2.228 1_554 S
Cd394 O398 2.273 . S
Cd394 O402 2.277 . S
O395 C392 1.160 . S
O395 Cd396 2.203 1_556 S
Cd396 O395 2.203 1_554 S
Cd396 O398 2.411 . S
Cd396 O399 2.333 . S
Cd396 O400 2.352 . S
Cd396 O404 2.277 . S
Cd396 O405 2.356 . S
C397 O402 1.209 . S
C397 O404 1.226 . S
O398 Cd394 2.273 . S
O398 Cd396 2.411 . S
O398 C401 1.320 . S
O399 Cd396 2.333 . S
O399 C401 1.214 . S
O400 Cd396 2.352 . S
O400 C403 1.258 . S
C401 O398 1.320 . S
C401 O399 1.214 . S
O402 Cd394 2.277 . S
O402 C397 1.209 . S
C403 O400 1.258 . S
C403 O405 1.282 . S
O404 Cd396 2.277 . S
O404 C397 1.226 . S
O405 Cd396 2.356 . S
O405 C403 1.282 . S
C406 O407 1.306 . S
C406 O409 1.160 . S
O407 C406 1.306 . S
O407 Cd408 2.228 . S
Cd408 O407 2.228 . S
Cd408 O412 2.273 . S
Cd408 O416 2.277 . S
O409 C406 1.160 . S
O409 Cd410 2.203 . S
Cd410 O409 2.203 . S
Cd410 O412 2.411 . S
Cd410 O413 2.333 . S
Cd410 O414 2.352 . S
Cd410 O418 2.277 . S
Cd410 O419 2.356 . S
C411 O416 1.209 . S
C411 O418 1.226 . S
O412 Cd408 2.273 . S
O412 Cd410 2.411 . S
O412 C415 1.320 . S
O413 Cd410 2.333 . S
O413 C415 1.214 . S
O414 Cd410 2.352 . S
O414 C417 1.258 . S
C415 O412 1.320 . S
C415 O413 1.214 . S
O416 Cd408 2.277 . S
O416 C411 1.209 . S
C417 O414 1.258 . S
C417 O419 1.282 . S
O418 Cd410 2.277 . S
O418 C411 1.226 . S
O419 Cd410 2.356 . S
O419 C417 1.282 . S
C420 O421 1.306 1_455 S
C420 O423 1.160 . S
O421 C420 1.306 1_655 S
O421 Cd422 2.228 . S
Cd422 O421 2.228 . S
Cd422 O426 2.273 1_655 S
Cd422 O430 2.277 1_655 S
O423 C420 1.160 . S
O423 Cd424 2.203 . S
Cd424 O423 2.203 . S
Cd424 O426 2.411 . S
Cd424 O427 2.333 . S
Cd424 O428 2.352 . S
Cd424 O432 2.277 . S
Cd424 O433 2.356 . S
C425 O430 1.209 . S
C425 O432 1.226 . S
O426 Cd422 2.273 1_455 S
O426 Cd424 2.411 . S
O426 C429 1.320 . S
O427 Cd424 2.333 . S
O427 C429 1.214 . S
O428 Cd424 2.352 . S
O428 C431 1.258 . S
C429 O426 1.320 . S
C429 O427 1.214 . S
O430 Cd422 2.277 1_455 S
O430 C425 1.209 . S
C431 O428 1.258 . S
C431 O433 1.282 . S
O432 Cd424 2.277 . S
O432 C425 1.226 . S
O433 Cd424 2.356 . S
O433 C431 1.282 . S
C434 O435 1.306 . S
C434 O437 1.160 . S
O435 C434 1.306 . S
O435 Cd436 2.228 . S
Cd436 O435 2.228 . S
Cd436 O440 2.273 . S
Cd436 O444 2.277 . S
O437 C434 1.160 . S
O437 Cd438 2.203 . S
Cd438 O437 2.203 . S
Cd438 O440 2.411 . S
Cd438 O441 2.333 . S
Cd438 O442 2.352 . S
Cd438 O446 2.277 . S
Cd438 O447 2.356 . S
C439 O444 1.209 . S
C439 O446 1.226 . S
O440 Cd436 2.273 . S
O440 Cd438 2.411 . S
O440 C443 1.320 . S
O441 Cd438 2.333 . S
O441 C443 1.214 . S
O442 Cd438 2.352 . S
O442 C445 1.258 . S
C443 O440 1.320 . S
C443 O441 1.214 . S
O444 Cd436 2.277 . S
O444 C439 1.209 . S
C445 O442 1.258 . S
C445 O447 1.282 . S
O446 Cd438 2.277 . S
O446 C439 1.226 . S
O447 Cd438 2.356 . S
O447 C445 1.282 . S
H448 C460 0.930 . S
H449 C462 0.930 . S
H450 C463 0.930 . S
H451 C467 0.959 . S
H452 C467 0.959 . S
H453 C467 0.961 . S
H454 C468 0.960 . S
H455 C468 0.961 . S
H456 C468 0.959 . S
H457 C471 0.929 . S
H458 C472 0.931 . S
H459 C474 0.930 . S
C460 H448 0.930 . S
C460 C461 1.399 1_455 S
C460 C465 1.399 . S
C461 C460 1.399 1_655 S
C461 C462 1.376 . S
C462 H449 0.930 . S
C462 C461 1.376 . S
C462 C463 1.388 . S
C463 H450 0.930 . S
C463 C462 1.388 . S
C463 C464 1.390 . S
C464 C463 1.390 . S
C464 C465 1.394 1_655 S
C464 C470 1.465 . S
C465 C460 1.399 . S
C465 C464 1.394 1_455 S
C465 C466 1.516 . S
C466 C465 1.516 . S
C466 C467 1.502 . S
C466 C468 1.561 1_455 S
C466 C469 1.526 . S
C467 H451 0.959 . S
C467 H452 0.959 . S
C467 H453 0.961 . S
C467 C466 1.502 . S
C468 H454 0.960 . S
C468 H455 0.961 . S
C468 H456 0.959 . S
C468 C466 1.561 1_655 S
C469 C466 1.526 . S
C469 C470 1.396 1_455 S
C469 C474 1.390 . S
C470 C464 1.465 . S
C470 C469 1.396 1_655 S
C470 C471 1.399 . S
C471 H457 0.929 . S
C471 C470 1.399 . S
C471 C472 1.385 . S
C472 H458 0.931 . S
C472 C471 1.385 . S
C472 C473 1.389 1_655 S
C473 C472 1.389 1_455 S
C473 C474 1.387 . S
C474 H459 0.930 . S
C474 C469 1.390 . S
C474 C473 1.387 . S
H475 C487 0.930 . S
H476 C489 0.930 . S
H477 C490 0.930 . S
H478 C494 0.959 . S
H479 C494 0.959 . S
H480 C494 0.961 . S
H481 C495 0.960 . S
H482 C495 0.961 . S
H483 C495 0.959 . S
H484 C498 0.929 . S
H485 C499 0.931 . S
H486 C501 0.930 . S
C487 H475 0.930 . S
C487 C488 1.399 . S
C487 C492 1.399 1_556 S
C488 C487 1.399 . S
C488 C489 1.376 . S
C489 H476 0.930 . S
C489 C488 1.376 . S
C489 C490 1.388 1_556 S
C490 H477 0.930 . S
C490 C489 1.388 1_554 S
C490 C491 1.390 . S
C491 C490 1.390 . S
C491 C492 1.394 . S
C491 C497 1.465 . S
C492 C487 1.399 1_554 S
C492 C491 1.394 . S
C492 C493 1.516 . S
C493 C492 1.516 . S
C493 C494 1.502 . S
C493 C495 1.561 . S
C493 C496 1.526 . S
C494 H478 0.959 . S
C494 H479 0.959 . S
C494 H480 0.961 . S
C494 C493 1.502 . S
C495 H481 0.960 . S
C495 H482 0.961 . S
C495 H483 0.959 . S
C495 C493 1.561 . S
C496 C493 1.526 . S
C496 C497 1.396 . S
C496 C501 1.390 . S
C497 C491 1.465 . S
C497 C496 1.396 . S
C497 C498 1.399 . S
C498 H484 0.929 . S
C498 C497 1.399 . S
C498 C499 1.385 . S
C499 H485 0.931 . S
C499 C498 1.385 . S
C499 C500 1.389 . S
C500 C499 1.389 . S
C500 C501 1.387 . S
C501 H486 0.930 . S
C501 C496 1.390 . S
C501 C500 1.387 . S
H502 C514 0.930 . S
H503 C516 0.930 . S
H504 C517 0.930 . S
H505 C521 0.959 . S
H506 C521 0.959 . S
H507 C521 0.961 . S
H508 C522 0.960 . S
H509 C522 0.961 . S
H510 C522 0.959 . S
H511 C525 0.929 . S
H512 C526 0.931 . S
H513 C528 0.930 . S
C514 H502 0.930 . S
C514 C515 1.399 . S
C514 C519 1.399 . S
C515 C514 1.399 . S
C515 C516 1.376 . S
C516 H503 0.930 . S
C516 C515 1.376 . S
C516 C517 1.388 . S
C517 H504 0.930 . S
C517 C516 1.388 . S
C517 C518 1.390 . S
C518 C517 1.390 . S
C518 C519 1.394 . S
C518 C524 1.465 . S
C519 C514 1.399 . S
C519 C518 1.394 . S
C519 C520 1.516 . S
C520 C519 1.516 . S
C520 C521 1.502 . S
C520 C522 1.561 . S
C520 C523 1.526 . S
C521 H505 0.959 . S
C521 H506 0.959 . S
C521 H507 0.961 . S
C521 C520 1.502 . S
C522 H508 0.960 . S
C522 H509 0.961 . S
C522 H510 0.959 . S
C522 C520 1.561 . S
C523 C520 1.526 . S
C523 C524 1.396 . S
C523 C528 1.390 . S
C524 C518 1.465 . S
C524 C523 1.396 . S
C524 C525 1.399 . S
C525 H511 0.929 . S
C525 C524 1.399 . S
C525 C526 1.385 . S
C526 H512 0.931 . S
C526 C525 1.385 . S
C526 C527 1.389 . S
C527 C526 1.389 . S
C527 C528 1.387 . S
C528 H513 0.930 . S
C528 C523 1.390 . S
C528 C527 1.387 . S
H529 C541 0.930 . S
H530 C543 0.930 . S
H531 C544 0.930 . S
H532 C548 0.959 . S
H533 C548 0.959 . S
H534 C548 0.961 . S
H535 C549 0.960 . S
H536 C549 0.961 . S
H537 C549 0.959 . S
H538 C552 0.929 . S
H539 C553 0.931 . S
H540 C555 0.930 . S
C541 H529 0.930 . S
C541 C542 1.399 . S
C541 C546 1.399 . S
C542 C541 1.399 . S
C542 C543 1.376 . S
C543 H530 0.930 . S
C543 C542 1.376 . S
C543 C544 1.388 . S
C544 H531 0.930 . S
C544 C543 1.388 . S
C544 C545 1.390 . S
C545 C544 1.390 . S
C545 C546 1.394 . S
C545 C551 1.465 . S
C546 C541 1.399 . S
C546 C545 1.394 . S
C546 C547 1.516 . S
C547 C546 1.516 . S
C547 C548 1.502 . S
C547 C549 1.561 . S
C547 C550 1.526 . S
C548 H532 0.959 . S
C548 H533 0.959 . S
C548 H534 0.961 . S
C548 C547 1.502 . S
C549 H535 0.960 . S
C549 H536 0.961 . S
C549 H537 0.959 . S
C549 C547 1.561 . S
C550 C547 1.526 . S
C550 C551 1.396 . S
C550 C555 1.390 . S
C551 C545 1.465 . S
C551 C550 1.396 . S
C551 C552 1.399 . S
C552 H538 0.929 . S
C552 C551 1.399 . S
C552 C553 1.385 . S
C553 H539 0.931 . S
C553 C552 1.385 . S
C553 C554 1.389 . S
C554 C553 1.389 . S
C554 C555 1.387 . S
C555 H540 0.930 . S
C555 C550 1.390 . S
C555 C554 1.387 . S
H556 C568 0.930 . S
H557 C570 0.930 . S
H558 C571 0.930 . S
H559 C575 0.959 . S
H560 C575 0.959 . S
H561 C575 0.961 . S
H562 C576 0.960 . S
H563 C576 0.961 . S
H564 C576 0.959 1_655 S
H565 C579 0.929 . S
H566 C580 0.931 . S
H567 C582 0.930 . S
C568 H556 0.930 . S
C568 C569 1.399 1_455 S
C568 C573 1.399 . S
C569 C568 1.399 1_655 S
C569 C570 1.376 . S
C570 H557 0.930 . S
C570 C569 1.376 . S
C570 C571 1.388 . S
C571 H558 0.930 . S
C571 C570 1.388 . S
C571 C572 1.390 . S
C572 C571 1.390 . S
C572 C573 1.394 1_655 S
C572 C578 1.465 . S
C573 C568 1.399 . S
C573 C572 1.394 1_455 S
C573 C574 1.516 . S
C574 C573 1.516 . S
C574 C575 1.502 . S
C574 C576 1.561 . S
C574 C577 1.526 . S
C575 H559 0.959 . S
C575 H560 0.959 . S
C575 H561 0.961 . S
C575 C574 1.502 . S
C576 H562 0.960 . S
C576 H563 0.961 . S
C576 H564 0.959 1_455 S
C576 C574 1.561 . S
C577 C574 1.526 . S
C577 C578 1.396 1_455 S
C577 C582 1.390 . S
C578 C572 1.465 . S
C578 C577 1.396 1_655 S
C578 C579 1.399 . S
C579 H565 0.929 . S
C579 C578 1.399 . S
C579 C580 1.385 . S
C580 H566 0.931 . S
C580 C579 1.385 . S
C580 C581 1.389 1_655 S
C581 C580 1.389 1_455 S
C581 C582 1.387 . S
C582 H567 0.930 . S
C582 C577 1.390 . S
C582 C581 1.387 . S
H583 C595 0.930 . S
H584 C597 0.930 . S
H585 C598 0.930 . S
H586 C602 0.959 . S
H587 C602 0.959 . S
H588 C602 0.961 . S
H589 C603 0.960 . S
H590 C603 0.961 . S
H591 C603 0.959 . S
H592 C606 0.929 . S
H593 C607 0.931 . S
H594 C609 0.930 . S
C595 H583 0.930 . S
C595 C596 1.399 . S
C595 C600 1.399 . S
C596 C595 1.399 . S
C596 C597 1.376 . S
C597 H584 0.930 . S
C597 C596 1.376 . S
C597 C598 1.388 . S
C598 H585 0.930 . S
C598 C597 1.388 . S
C598 C599 1.390 . S
C599 C598 1.390 . S
C599 C600 1.394 . S
C599 C605 1.465 . S
C600 C595 1.399 . S
C600 C599 1.394 . S
C600 C601 1.516 . S
C601 C600 1.516 . S
C601 C602 1.502 . S
C601 C603 1.561 . S
C601 C604 1.526 . S
C602 H586 0.959 . S
C602 H587 0.959 . S
C602 H588 0.961 . S
C602 C601 1.502 . S
C603 H589 0.960 . S
C603 H590 0.961 . S
C603 H591 0.959 . S
C603 C601 1.561 . S
C604 C601 1.526 . S
C604 C605 1.396 . S
C604 C609 1.390 1_556 S
C605 C599 1.465 . S
C605 C604 1.396 . S
C605 C606 1.399 1_556 S
C606 H592 0.929 . S
C606 C605 1.399 1_554 S
C606 C607 1.385 . S
C607 H593 0.931 . S
C607 C606 1.385 . S
C607 C608 1.389 . S
C608 C607 1.389 . S
C608 C609 1.387 . S
C609 H594 0.930 . S
C609 C604 1.390 1_554 S
C609 C608 1.387 . S
H610 C622 0.930 . S
H611 C624 0.930 . S
H612 C625 0.930 . S
H613 C629 0.959 . S
H614 C629 0.959 . S
H615 C629 0.961 . S
H616 C630 0.960 . S
H617 C630 0.961 . S
H618 C630 0.959 . S
H619 C633 0.929 . S
H620 C634 0.931 . S
H621 C636 0.930 . S
C622 H610 0.930 . S
C622 C623 1.399 . S
C622 C627 1.399 . S
C623 C622 1.399 . S
C623 C624 1.376 . S
C624 H611 0.930 . S
C624 C623 1.376 . S
C624 C625 1.388 . S
C625 H612 0.930 . S
C625 C624 1.388 . S
C625 C626 1.390 . S
C626 C625 1.390 . S
C626 C627 1.394 . S
C626 C632 1.465 . S
C627 C622 1.399 . S
C627 C626 1.394 . S
C627 C628 1.516 . S
C628 C627 1.516 . S
C628 C629 1.502 . S
C628 C630 1.561 . S
C628 C631 1.526 . S
C629 H613 0.959 . S
C629 H614 0.959 . S
C629 H615 0.961 . S
C629 C628 1.502 . S
C630 H616 0.960 . S
C630 H617 0.961 . S
C630 H618 0.959 . S
C630 C628 1.561 . S
C631 C628 1.526 . S
C631 C632 1.396 . S
C631 C636 1.390 . S
C632 C626 1.465 . S
C632 C631 1.396 . S
C632 C633 1.399 . S
C633 H619 0.929 . S
C633 C632 1.399 . S
C633 C634 1.385 . S
C634 H620 0.931 . S
C634 C633 1.385 . S
C634 C635 1.389 . S
C635 C634 1.389 . S
C635 C636 1.387 . S
C636 H621 0.930 . S
C636 C631 1.390 . S
C636 C635 1.387 . S
H637 C649 0.930 . S
H638 C651 0.930 . S
H639 C652 0.930 . S
H640 C656 0.959 . S
H641 C656 0.959 . S
H642 C656 0.961 . S
H643 C657 0.960 . S
H644 C657 0.961 . S
H645 C657 0.959 . S
H646 C660 0.929 . S
H647 C661 0.931 . S
H648 C663 0.930 . S
C649 H637 0.930 . S
C649 C650 1.399 . S
C649 C654 1.399 . S
C650 C649 1.399 . S
C650 C651 1.376 . S
C651 H638 0.930 . S
C651 C650 1.376 . S
C651 C652 1.388 . S
C652 H639 0.930 . S
C652 C651 1.388 . S
C652 C653 1.390 . S
C653 C652 1.390 . S
C653 C654 1.394 . S
C653 C659 1.465 . S
C654 C649 1.399 . S
C654 C653 1.394 . S
C654 C655 1.516 . S
C655 C654 1.516 . S
C655 C656 1.502 . S
C655 C657 1.561 . S
C655 C658 1.526 . S
C656 H640 0.959 . S
C656 H641 0.959 . S
C656 H642 0.961 . S
C656 C655 1.502 . S
C657 H643 0.960 . S
C657 H644 0.961 . S
C657 H645 0.959 . S
C657 C655 1.561 . S
C658 C655 1.526 . S
C658 C659 1.396 . S
C658 C663 1.390 . S
C659 C653 1.465 . S
C659 C658 1.396 . S
C659 C660 1.399 . S
C660 H646 0.929 . S
C660 C659 1.399 . S
C660 C661 1.385 . S
C661 H647 0.931 . S
C661 C660 1.385 . S
C661 C662 1.389 . S
C662 C661 1.389 . S
C662 C663 1.387 . S
C663 H648 0.930 . S
C663 C658 1.390 . S
C663 C662 1.387 . S
H664 C676 0.930 . S
H665 C678 0.930 . S
H666 C679 0.930 . S
H667 C683 0.959 . S
H668 C683 0.959 . S
H669 C683 0.961 . S
H670 C684 0.966 . S
H671 C684 0.961 1_655 S
H672 C684 0.959 . S
H673 C687 0.929 . S
H674 C688 0.931 . S
H675 C690 0.930 . S
C676 H664 0.930 . S
C676 C677 1.399 1_655 S
C676 C681 1.399 . S
C677 C676 1.399 1_455 S
C677 C678 1.376 . S
C678 H665 0.930 . S
C678 C677 1.376 . S
C678 C679 1.388 . S
C679 H666 0.930 . S
C679 C678 1.388 . S
C679 C680 1.390 . S
C680 C679 1.390 . S
C680 C681 1.394 1_455 S
C680 C686 1.465 . S
C681 C676 1.399 . S
C681 C680 1.394 1_655 S
C681 C682 1.516 . S
C682 C681 1.516 . S
C682 C683 1.502 . S
C682 C684 1.561 1_655 S
C682 C685 1.526 . S
C683 H667 0.959 . S
C683 H668 0.959 . S
C683 H669 0.961 . S
C683 C682 1.502 . S
C684 H670 0.966 . S
C684 H671 0.961 1_455 S
C684 H672 0.959 . S
C684 C682 1.561 1_455 S
C685 C682 1.526 . S
C685 C686 1.396 1_655 S
C685 C690 1.390 . S
C686 C680 1.465 . S
C686 C685 1.396 1_455 S
C686 C687 1.399 . S
C687 H673 0.929 . S
C687 C686 1.399 . S
C687 C688 1.385 . S
C688 H674 0.931 . S
C688 C687 1.385 . S
C688 C689 1.389 1_455 S
C689 C688 1.389 1_655 S
C689 C690 1.387 . S
C690 H675 0.930 . S
C690 C685 1.390 . S
C690 C689 1.387 . S
H691 C703 0.930 . S
H692 C705 0.930 . S
H693 C706 0.930 . S
H694 C710 0.959 . S
H695 C710 0.959 . S
H696 C710 0.961 . S
H697 C711 0.960 . S
H698 C711 0.961 . S
H699 C711 0.959 . S
H700 C714 0.929 . S
H701 C715 0.931 . S
H702 C717 0.930 . S
C703 H691 0.930 . S
C703 C704 1.399 . S
C703 C708 1.399 1_554 S
C704 C703 1.399 . S
C704 C705 1.376 . S
C705 H692 0.930 . S
C705 C704 1.376 . S
C705 C706 1.388 . S
C706 H693 0.930 . S
C706 C705 1.388 . S
C706 C707 1.390 1_554 S
C707 C706 1.390 1_556 S
C707 C708 1.394 . S
C707 C713 1.465 . S
C708 C703 1.399 1_556 S
C708 C707 1.394 . S
C708 C709 1.516 . S
C709 C708 1.516 . S
C709 C710 1.502 . S
C709 C711 1.561 . S
C709 C712 1.526 . S
C710 H694 0.959 . S
C710 H695 0.959 . S
C710 H696 0.961 . S
C710 C709 1.502 . S
C711 H697 0.960 . S
C711 H698 0.961 . S
C711 H699 0.959 . S
C711 C709 1.561 . S
C712 C709 1.526 . S
C712 C713 1.396 . S
C712 C717 1.390 . S
C713 C707 1.465 . S
C713 C712 1.396 . S
C713 C714 1.399 . S
C714 H700 0.929 . S
C714 C713 1.399 . S
C714 C715 1.385 . S
C715 H701 0.931 . S
C715 C714 1.385 . S
C715 C716 1.389 . S
C716 C715 1.389 . S
C716 C717 1.387 . S
C717 H702 0.930 . S
C717 C712 1.390 . S
C717 C716 1.387 . S
H718 C730 0.930 . S
H719 C732 0.930 . S
H720 C733 0.930 . S
H721 C737 0.959 . S
H722 C737 0.959 . S
H723 C737 0.961 . S
H724 C738 0.960 . S
H725 C738 0.961 . S
H726 C738 0.959 . S
H727 C741 0.929 . S
H728 C742 0.931 . S
H729 C744 0.930 . S
C730 H718 0.930 . S
C730 C731 1.399 . S
C730 C735 1.399 . S
C731 C730 1.399 . S
C731 C732 1.376 . S
C732 H719 0.930 . S
C732 C731 1.376 . S
C732 C733 1.388 . S
C733 H720 0.930 . S
C733 C732 1.388 . S
C733 C734 1.390 . S
C734 C733 1.390 . S
C734 C735 1.394 . S
C734 C740 1.465 . S
C735 C730 1.399 . S
C735 C734 1.394 . S
C735 C736 1.516 . S
C736 C735 1.516 . S
C736 C737 1.502 . S
C736 C738 1.561 . S
C736 C739 1.526 . S
C737 H721 0.959 . S
C737 H722 0.959 . S
C737 H723 0.961 . S
C737 C736 1.502 . S
C738 H724 0.960 . S
C738 H725 0.961 . S
C738 H726 0.959 . S
C738 C736 1.561 . S
C739 C736 1.526 . S
C739 C740 1.396 . S
C739 C744 1.390 . S
C740 C734 1.465 . S
C740 C739 1.396 . S
C740 C741 1.399 . S
C741 H727 0.929 . S
C741 C740 1.399 . S
C741 C742 1.385 . S
C742 H728 0.931 . S
C742 C741 1.385 . S
C742 C743 1.389 . S
C743 C742 1.389 . S
C743 C744 1.387 . S
C744 H729 0.930 . S
C744 C739 1.390 . S
C744 C743 1.387 . S
H745 C757 0.930 . S
H746 C759 0.930 . S
H747 C760 0.930 . S
H748 C764 0.959 . S
H749 C764 0.959 . S
H750 C764 0.961 . S
H751 C765 0.960 . S
H752 C765 0.961 . S
H753 C765 0.959 . S
H754 C768 0.929 . S
H755 C769 0.931 . S
H756 C771 0.930 . S
C757 H745 0.930 . S
C757 C758 1.399 . S
C757 C762 1.399 . S
C758 C757 1.399 . S
C758 C759 1.376 . S
C759 H746 0.930 . S
C759 C758 1.376 . S
C759 C760 1.388 . S
C760 H747 0.930 . S
C760 C759 1.388 . S
C760 C761 1.390 . S
C761 C760 1.390 . S
C761 C762 1.394 . S
C761 C767 1.465 . S
C762 C757 1.399 . S
C762 C761 1.394 . S
C762 C763 1.516 . S
C763 C762 1.516 . S
C763 C764 1.502 . S
C763 C765 1.561 . S
C763 C766 1.526 . S
C764 H748 0.959 . S
C764 H749 0.959 . S
C764 H750 0.961 . S
C764 C763 1.502 . S
C765 H751 0.960 . S
C765 H752 0.961 . S
C765 H753 0.959 . S
C765 C763 1.561 . S
C766 C763 1.526 . S
C766 C767 1.396 . S
C766 C771 1.390 . S
C767 C761 1.465 . S
C767 C766 1.396 . S
C767 C768 1.399 . S
C768 H754 0.929 . S
C768 C767 1.399 . S
C768 C769 1.385 . S
C769 H755 0.931 . S
C769 C768 1.385 . S
C769 C770 1.389 . S
C770 C769 1.389 . S
C770 C771 1.387 . S
C771 H756 0.930 . S
C771 C766 1.390 . S
C771 C770 1.387 . S
H772 C784 0.930 . S
H773 C786 0.930 . S
H774 C787 0.930 . S
H775 C791 0.959 . S
H776 C791 0.959 . S
H777 C791 0.961 . S
H778 C792 0.973 . S
H779 C792 0.971 . S
H780 C792 0.918 1_455 S
H781 C795 0.929 . S
H782 C796 0.931 . S
H783 C798 0.930 . S
C784 H772 0.930 . S
C784 C785 1.399 . S
C784 C789 1.399 . S
C785 C784 1.399 . S
C785 C786 1.376 1_655 S
C786 H773 0.930 . S
C786 C785 1.376 1_455 S
C786 C787 1.388 . S
C787 H774 0.930 . S
C787 C786 1.388 . S
C787 C788 1.390 . S
C788 C787 1.390 . S
C788 C789 1.394 1_455 S
C788 C794 1.465 . S
C789 C784 1.399 . S
C789 C788 1.394 1_655 S
C789 C790 1.516 . S
C790 C789 1.516 . S
C790 C791 1.502 . S
C790 C792 1.582 . S
C790 C793 1.526 . S
C791 H775 0.959 . S
C791 H776 0.959 . S
C791 H777 0.961 . S
C791 C790 1.502 . S
C792 H778 0.973 . S
C792 H779 0.971 . S
C792 H780 0.918 1_655 S
C792 C790 1.582 . S
C793 C790 1.526 . S
C793 C794 1.396 1_655 S
C793 C798 1.390 . S
C794 C788 1.465 . S
C794 C793 1.396 1_455 S
C794 C795 1.399 . S
C795 H781 0.929 . S
C795 C794 1.399 . S
C795 C796 1.385 . S
C796 H782 0.931 . S
C796 C795 1.385 . S
C796 C797 1.389 . S
C797 C796 1.389 . S
C797 C798 1.387 1_455 S
C798 H783 0.930 . S
C798 C793 1.390 . S
C798 C797 1.387 1_655 S
H799 C811 0.930 . S
H800 C813 0.930 . S
H801 C814 0.930 . S
H802 C818 0.959 . S
H803 C818 0.959 . S
H804 C818 0.961 . S
H805 C819 0.960 . S
H806 C819 0.961 . S
H807 C819 0.959 . S
H808 C822 0.929 1_554 S
H809 C823 0.931 . S
H810 C825 0.930 . S
C811 H799 0.930 . S
C811 C812 1.399 . S
C811 C816 1.399 . S
C812 C811 1.399 . S
C812 C813 1.376 . S
C813 H800 0.930 . S
C813 C812 1.376 . S
C813 C814 1.388 . S
C814 H801 0.930 . S
C814 C813 1.388 . S
C814 C815 1.390 . S
C815 C814 1.390 . S
C815 C816 1.394 . S
C815 C821 1.465 . S
C816 C811 1.399 . S
C816 C815 1.394 . S
C816 C817 1.516 . S
C817 C816 1.516 . S
C817 C818 1.502 . S
C817 C819 1.561 . S
C817 C820 1.526 . S
C818 H802 0.959 . S
C818 H803 0.959 . S
C818 H804 0.961 . S
C818 C817 1.502 . S
C819 H805 0.960 . S
C819 H806 0.961 . S
C819 H807 0.959 . S
C819 C817 1.561 . S
C820 C817 1.526 . S
C820 C821 1.396 . S
C820 C825 1.390 1_554 S
C821 C815 1.465 . S
C821 C820 1.396 . S
C821 C822 1.399 1_554 S
C822 H808 0.929 1_556 S
C822 C821 1.399 1_556 S
C822 C823 1.385 . S
C823 H809 0.931 . S
C823 C822 1.385 . S
C823 C824 1.389 . S
C824 C823 1.389 . S
C824 C825 1.387 . S
C825 H810 0.930 . S
C825 C820 1.390 1_556 S
C825 C824 1.387 . S
H826 C838 0.930 . S
H827 C840 0.930 . S
H828 C841 0.930 . S
H829 C845 0.959 . S
H830 C845 0.959 . S
H831 C845 0.961 . S
H832 C846 0.960 . S
H833 C846 0.961 . S
H834 C846 0.959 . S
H835 C849 0.929 . S
H836 C850 0.931 . S
H837 C852 0.930 . S
C838 H826 0.930 . S
C838 C839 1.399 . S
C838 C843 1.399 . S
C839 C838 1.399 . S
C839 C840 1.376 . S
C840 H827 0.930 . S
C840 C839 1.376 . S
C840 C841 1.388 . S
C841 H828 0.930 . S
C841 C840 1.388 . S
C841 C842 1.390 . S
C842 C841 1.390 . S
C842 C843 1.394 . S
C842 C848 1.465 . S
C843 C838 1.399 . S
C843 C842 1.394 . S
C843 C844 1.516 . S
C844 C843 1.516 . S
C844 C845 1.502 . S
C844 C846 1.561 . S
C844 C847 1.526 . S
C845 H829 0.959 . S
C845 H830 0.959 . S
C845 H831 0.961 . S
C845 C844 1.502 . S
C846 H832 0.960 . S
C846 H833 0.961 . S
C846 H834 0.959 . S
C846 C844 1.561 . S
C847 C844 1.526 . S
C847 C848 1.396 . S
C847 C852 1.390 . S
C848 C842 1.465 . S
C848 C847 1.396 . S
C848 C849 1.399 . S
C849 H835 0.929 . S
C849 C848 1.399 . S
C849 C850 1.385 . S
C850 H836 0.931 . S
C850 C849 1.385 . S
C850 C851 1.389 . S
C851 C850 1.389 . S
C851 C852 1.387 . S
C852 H837 0.930 . S
C852 C847 1.390 . S
C852 C851 1.387 . S
H853 C865 0.930 . S
H854 C867 0.930 . S
H855 C868 0.930 . S
H856 C872 0.959 . S
H857 C872 0.959 . S
H858 C872 0.961 . S
H859 C873 0.960 . S
H860 C873 0.961 . S
H861 C873 0.959 . S
H862 C876 0.929 . S
H863 C877 0.931 . S
H864 C879 0.930 . S
C865 H853 0.930 . S
C865 C866 1.399 . S
C865 C870 1.399 . S
C866 C865 1.399 . S
C866 C867 1.376 . S
C867 H854 0.930 . S
C867 C866 1.376 . S
C867 C868 1.388 . S
C868 H855 0.930 . S
C868 C867 1.388 . S
C868 C869 1.390 . S
C869 C868 1.390 . S
C869 C870 1.394 . S
C869 C875 1.465 . S
C870 C865 1.399 . S
C870 C869 1.394 . S
C870 C871 1.516 . S
C871 C870 1.516 . S
C871 C872 1.502 . S
C871 C873 1.561 . S
C871 C874 1.526 . S
C872 H856 0.959 . S
C872 H857 0.959 . S
C872 H858 0.961 . S
C872 C871 1.502 . S
C873 H859 0.960 . S
C873 H860 0.961 . S
C873 H861 0.959 . S
C873 C871 1.561 . S
C874 C871 1.526 . S
C874 C875 1.396 . S
C874 C879 1.390 . S
C875 C869 1.465 . S
C875 C874 1.396 . S
C875 C876 1.399 . S
C876 H862 0.929 . S
C876 C875 1.399 . S
C876 C877 1.385 . S
C877 H863 0.931 . S
C877 C876 1.385 . S
C877 C878 1.389 . S
C878 C877 1.389 . S
C878 C879 1.387 . S
C879 H864 0.930 . S
C879 C874 1.390 . S
C879 C878 1.387 . S
H880 C892 0.930 . S
H881 C894 0.930 . S
H882 C895 0.930 . S
H883 C899 0.959 . S
H884 C899 0.959 . S
H885 C899 0.961 . S
H886 C900 0.960 . S
H887 C900 0.961 . S
H888 C900 0.959 . S
H889 C903 0.929 . S
H890 C904 0.931 . S
H891 C906 0.930 . S
C892 H880 0.930 . S
C892 C893 1.399 . S
C892 C897 1.399 . S
C893 C892 1.399 . S
C893 C894 1.376 . S
C894 H881 0.930 . S
C894 C893 1.376 . S
C894 C895 1.388 . S
C895 H882 0.930 . S
C895 C894 1.388 . S
C895 C896 1.390 . S
C896 C895 1.390 . S
C896 C897 1.394 . S
C896 C902 1.465 . S
C897 C892 1.399 . S
C897 C896 1.394 . S
C897 C898 1.516 . S
C898 C897 1.516 . S
C898 C899 1.502 . S
C898 C900 1.561 . S
C898 C901 1.526 . S
C899 H883 0.959 . S
C899 H884 0.959 . S
C899 H885 0.961 . S
C899 C898 1.502 . S
C900 H886 0.960 . S
C900 H887 0.961 . S
C900 H888 0.959 . S
C900 C898 1.561 . S
C901 C898 1.526 . S
C901 C902 1.396 . S
C901 C906 1.390 . S
C902 C896 1.465 . S
C902 C901 1.396 . S
C902 C903 1.399 . S
C903 H889 0.929 . S
C903 C902 1.399 . S
C903 C904 1.385 . S
C904 H890 0.931 . S
C904 C903 1.385 . S
C904 C905 1.389 . S
C905 C904 1.389 . S
C905 C906 1.387 . S
C906 H891 0.930 . S
C906 C901 1.390 . S
C906 C905 1.387 . S
H907 C919 0.930 . S
H908 C921 0.930 . S
H909 C922 0.930 . S
H910 C926 0.959 . S
H911 C926 0.959 . S
H912 C926 0.961 . S
H913 C927 0.960 . S
H914 C927 0.961 . S
H915 C927 0.959 . S
H916 C930 0.929 . S
H917 C931 0.931 . S
H918 C933 0.930 . S
C919 H907 0.930 . S
C919 C920 1.399 . S
C919 C924 1.399 . S
C920 C919 1.399 . S
C920 C921 1.376 . S
C921 H908 0.930 . S
C921 C920 1.376 . S
C921 C922 1.388 . S
C922 H909 0.930 . S
C922 C921 1.388 . S
C922 C923 1.390 . S
C923 C922 1.390 . S
C923 C924 1.394 . S
C923 C929 1.465 . S
C924 C919 1.399 . S
C924 C923 1.394 . S
C924 C925 1.516 . S
C925 C924 1.516 . S
C925 C926 1.502 . S
C925 C927 1.561 . S
C925 C928 1.526 . S
C926 H910 0.959 . S
C926 H911 0.959 . S
C926 H912 0.961 . S
C926 C925 1.502 . S
C927 H913 0.960 . S
C927 H914 0.961 . S
C927 H915 0.959 . S
C927 C925 1.561 . S
C928 C925 1.526 . S
C928 C929 1.396 . S
C928 C933 1.390 . S
C929 C923 1.465 . S
C929 C928 1.396 . S
C929 C930 1.399 . S
C930 H916 0.929 . S
C930 C929 1.399 . S
C930 C931 1.385 . S
C931 H917 0.931 . S
C931 C930 1.385 . S
C931 C932 1.389 . S
C932 C931 1.389 . S
C932 C933 1.387 . S
C933 H918 0.930 . S
C933 C928 1.390 . S
C933 C932 1.387 . S
H934 C946 0.930 . S
H935 C948 0.930 . S
H936 C949 0.930 . S
H937 C953 0.959 . S
H938 C953 0.959 . S
H939 C953 0.961 . S
H940 C954 0.960 . S
H941 C954 0.960 . S
H942 C954 0.959 . S
H943 C957 0.929 . S
H944 C958 0.931 . S
H945 C960 0.930 . S
C946 H934 0.930 . S
C946 C947 1.399 1_655 S
C946 C951 1.399 . S
C947 C946 1.399 1_455 S
C947 C948 1.376 . S
C948 H935 0.930 . S
C948 C947 1.376 . S
C948 C949 1.388 . S
C949 H936 0.930 . S
C949 C948 1.388 . S
C949 C950 1.390 . S
C950 C949 1.390 . S
C950 C951 1.394 1_455 S
C950 C956 1.465 . S
C951 C946 1.399 . S
C951 C950 1.394 1_655 S
C951 C952 1.516 . S
C952 C951 1.516 . S
C952 C953 1.502 . S
C952 C954 1.561 1_655 S
C952 C955 1.526 . S
C953 H937 0.959 . S
C953 H938 0.959 . S
C953 H939 0.961 . S
C953 C952 1.502 . S
C954 H940 0.960 . S
C954 H941 0.960 . S
C954 H942 0.959 . S
C954 C952 1.561 1_455 S
C955 C952 1.526 . S
C955 C956 1.396 1_655 S
C955 C960 1.390 . S
C956 C950 1.465 . S
C956 C955 1.396 1_455 S
C956 C957 1.399 . S
C957 H943 0.929 . S
C957 C956 1.399 . S
C957 C958 1.385 . S
C958 H944 0.931 . S
C958 C957 1.385 . S
C958 C959 1.389 1_455 S
C959 C958 1.389 1_655 S
C959 C960 1.387 . S
C960 H945 0.930 . S
C960 C955 1.390 . S
C960 C959 1.387 . S
H961 C973 0.930 . S
H962 C975 0.930 . S
H963 C976 0.930 . S
H964 C980 0.959 . S
H965 C980 0.959 . S
H966 C980 0.961 . S
H967 C981 0.960 . S
H968 C981 0.961 . S
H969 C981 0.959 . S
H970 C984 0.929 . S
H971 C985 0.931 . S
H972 C987 0.930 . S
C973 H961 0.930 . S
C973 C974 1.399 . S
C973 C978 1.399 . S
C974 C973 1.399 . S
C974 C975 1.376 . S
C975 H962 0.930 . S
C975 C974 1.376 . S
C975 C976 1.388 . S
C976 H963 0.930 . S
C976 C975 1.388 . S
C976 C977 1.390 . S
C977 C976 1.390 . S
C977 C978 1.394 . S
C977 C983 1.465 . S
C978 C973 1.399 . S
C978 C977 1.394 . S
C978 C979 1.516 . S
C979 C978 1.516 . S
C979 C980 1.502 . S
C979 C981 1.561 . S
C979 C982 1.526 . S
C980 H964 0.959 . S
C980 H965 0.959 . S
C980 H966 0.961 . S
C980 C979 1.502 . S
C981 H967 0.960 . S
C981 H968 0.961 . S
C981 H969 0.959 . S
C981 C979 1.561 . S
C982 C979 1.526 . S
C982 C983 1.396 . S
C982 C987 1.390 1_554 S
C983 C977 1.465 . S
C983 C982 1.396 . S
C983 C984 1.399 1_554 S
C984 H970 0.929 . S
C984 C983 1.399 1_556 S
C984 C985 1.385 . S
C985 H971 0.931 . S
C985 C984 1.385 . S
C985 C986 1.389 . S
C986 C985 1.389 . S
C986 C987 1.387 . S
C987 H972 0.930 . S
C987 C982 1.390 1_556 S
C987 C986 1.387 . S
H988 C1000 0.930 . S
H989 C1002 0.930 . S
H990 C1003 0.930 . S
H991 C1007 0.959 . S
H992 C1007 0.959 . S
H993 C1007 0.961 . S
H994 C1008 0.960 . S
H995 C1008 0.961 . S
H996 C1008 0.959 . S
H997 C1011 0.929 . S
H998 C1012 0.931 . S
H999 C1014 0.930 . S
C1000 H988 0.930 . S
C1000 C1001 1.399 . S
C1000 C1005 1.399 . S
C1001 C1000 1.399 . S
C1001 C1002 1.376 . S
C1002 H989 0.930 . S
C1002 C1001 1.376 . S
C1002 C1003 1.388 . S
C1003 H990 0.930 . S
C1003 C1002 1.388 . S
C1003 C1004 1.390 . S
C1004 C1003 1.390 . S
C1004 C1005 1.394 . S
C1004 C1010 1.465 . S
C1005 C1000 1.399 . S
C1005 C1004 1.394 . S
C1005 C1006 1.516 . S
C1006 C1005 1.516 . S
C1006 C1007 1.502 . S
C1006 C1008 1.561 . S
C1006 C1009 1.526 . S
C1007 H991 0.959 . S
C1007 H992 0.959 . S
C1007 H993 0.961 . S
C1007 C1006 1.502 . S
C1008 H994 0.960 . S
C1008 H995 0.961 . S
C1008 H996 0.959 . S
C1008 C1006 1.561 . S
C1009 C1006 1.526 . S
C1009 C1010 1.396 . S
C1009 C1014 1.390 . S
C1010 C1004 1.465 . S
C1010 C1009 1.396 . S
C1010 C1011 1.399 . S
C1011 H997 0.929 . S
C1011 C1010 1.399 . S
C1011 C1012 1.385 . S
C1012 H998 0.931 . S
C1012 C1011 1.385 . S
C1012 C1013 1.389 . S
C1013 C1012 1.389 . S
C1013 C1014 1.387 . S
C1014 H999 0.930 . S
C1014 C1009 1.390 . S
C1014 C1013 1.387 . S
H1015 C1027 0.930 . S
H1016 C1029 0.930 . S
H1017 C1030 0.930 . S
H1018 C1034 0.959 . S
H1019 C1034 0.959 . S
H1020 C1034 0.961 . S
H1021 C1035 0.960 . S
H1022 C1035 0.961 . S
H1023 C1035 0.959 . S
H1024 C1038 0.929 . S
H1025 C1039 0.931 . S
H1026 C1041 0.930 . S
C1027 H1015 0.930 . S
C1027 C1028 1.399 . S
C1027 C1032 1.399 . S
C1028 C1027 1.399 . S
C1028 C1029 1.376 . S
C1029 H1016 0.930 . S
C1029 C1028 1.376 . S
C1029 C1030 1.388 . S
C1030 H1017 0.930 . S
C1030 C1029 1.388 . S
C1030 C1031 1.390 . S
C1031 C1030 1.390 . S
C1031 C1032 1.394 . S
C1031 C1037 1.465 . S
C1032 C1027 1.399 . S
C1032 C1031 1.394 . S
C1032 C1033 1.516 . S
C1033 C1032 1.516 . S
C1033 C1034 1.502 . S
C1033 C1035 1.561 . S
C1033 C1036 1.526 . S
C1034 H1018 0.959 . S
C1034 H1019 0.959 . S
C1034 H1020 0.961 . S
C1034 C1033 1.502 . S
C1035 H1021 0.960 . S
C1035 H1022 0.961 . S
C1035 H1023 0.959 . S
C1035 C1033 1.561 . S
C1036 C1033 1.526 . S
C1036 C1037 1.396 . S
C1036 C1041 1.390 . S
C1037 C1031 1.465 . S
C1037 C1036 1.396 . S
C1037 C1038 1.399 . S
C1038 H1024 0.929 . S
C1038 C1037 1.399 . S
C1038 C1039 1.385 . S
C1039 H1025 0.931 . S
C1039 C1038 1.385 . S
C1039 C1040 1.389 . S
C1040 C1039 1.389 . S
C1040 C1041 1.387 . S
C1041 H1026 0.930 . S
C1041 C1036 1.390 . S
C1041 C1040 1.387 . S
H1042 C1054 0.930 . S
H1043 C1056 0.930 . S
H1044 C1057 0.930 . S
H1045 C1061 0.959 . S
H1046 C1061 0.959 . S
H1047 C1061 0.961 . S
H1048 C1062 0.960 . S
H1049 C1062 0.961 . S
H1050 C1062 0.959 . S
H1051 C1065 0.929 . S
H1052 C1066 0.931 . S
H1053 C1068 0.928 1_455 S
C1054 H1042 0.930 . S
C1054 C1055 1.399 . S
C1054 C1059 1.399 . S
C1055 C1054 1.399 . S
C1055 C1056 1.376 1_455 S
C1056 H1043 0.930 . S
C1056 C1055 1.376 1_655 S
C1056 C1057 1.388 . S
C1057 H1044 0.930 . S
C1057 C1056 1.388 . S
C1057 C1058 1.390 . S
C1058 C1057 1.390 . S
C1058 C1059 1.394 1_655 S
C1058 C1064 1.465 . S
C1059 C1054 1.399 . S
C1059 C1058 1.394 1_455 S
C1059 C1060 1.516 . S
C1060 C1059 1.516 . S
C1060 C1061 1.502 . S
C1060 C1062 1.561 1_455 S
C1060 C1063 1.515 1_455 S
C1061 H1045 0.959 . S
C1061 H1046 0.959 . S
C1061 H1047 0.961 . S
C1061 C1060 1.502 . S
C1062 H1048 0.960 . S
C1062 H1049 0.961 . S
C1062 H1050 0.959 . S
C1062 C1060 1.561 1_655 S
C1063 C1060 1.515 1_655 S
C1063 C1064 1.409 . S
C1063 C1068 1.389 . S
C1064 C1058 1.465 . S
C1064 C1063 1.409 . S
C1064 C1065 1.399 . S
C1065 H1051 0.929 . S
C1065 C1064 1.399 . S
C1065 C1066 1.385 . S
C1066 H1052 0.931 . S
C1066 C1065 1.385 . S
C1066 C1067 1.389 . S
C1067 C1066 1.389 . S
C1067 C1068 1.388 . S
C1068 H1053 0.928 1_655 S
C1068 C1063 1.389 . S
C1068 C1067 1.388 . S
H1069 C1081 0.930 . S
H1070 C1083 0.930 . S
H1071 C1084 0.925 1_556 S
H1072 C1088 0.959 . S
H1073 C1088 0.959 . S
H1074 C1088 0.961 . S
H1075 C1089 0.960 . S
H1076 C1089 0.961 . S
H1077 C1089 0.959 . S
H1078 C1092 0.929 . S
H1079 C1093 0.931 . S
H1080 C1095 0.930 . S
C1081 H1069 0.930 . S
C1081 C1082 1.399 . S
C1081 C1086 1.399 1_554 S
C1082 C1081 1.399 . S
C1082 C1083 1.376 . S
C1083 H1070 0.930 . S
C1083 C1082 1.376 . S
C1083 C1084 1.388 . S
C1084 H1071 0.925 1_554 S
C1084 C1083 1.388 . S
C1084 C1085 1.390 1_554 S
C1085 C1084 1.390 1_556 S
C1085 C1086 1.394 . S
C1085 C1091 1.465 . S
C1086 C1081 1.399 1_556 S
C1086 C1085 1.394 . S
C1086 C1087 1.516 . S
C1087 C1086 1.516 . S
C1087 C1088 1.502 . S
C1087 C1089 1.561 . S
C1087 C1090 1.526 . S
C1088 H1072 0.959 . S
C1088 H1073 0.959 . S
C1088 H1074 0.961 . S
C1088 C1087 1.502 . S
C1089 H1075 0.960 . S
C1089 H1076 0.961 . S
C1089 H1077 0.959 . S
C1089 C1087 1.561 . S
C1090 C1087 1.526 . S
C1090 C1091 1.396 . S
C1090 C1095 1.390 . S
C1091 C1085 1.465 . S
C1091 C1090 1.396 . S
C1091 C1092 1.399 . S
C1092 H1078 0.929 . S
C1092 C1091 1.399 . S
C1092 C1093 1.385 . S
C1093 H1079 0.931 . S
C1093 C1092 1.385 . S
C1093 C1094 1.389 . S
C1094 C1093 1.389 . S
C1094 C1095 1.387 . S
C1095 H1080 0.930 . S
C1095 C1090 1.390 . S
C1095 C1094 1.387 . S
H1096 C1108 0.930 . S
H1097 C1110 0.930 . S
H1098 C1111 0.930 . S
H1099 C1115 0.959 . S
H1100 C1115 0.959 . S
H1101 C1115 0.961 . S
H1102 C1116 0.960 . S
H1103 C1116 0.961 . S
H1104 C1116 0.959 . S
H1105 C1119 0.929 . S
H1106 C1120 0.931 . S
H1107 C1122 0.930 . S
C1108 H1096 0.930 . S
C1108 C1109 1.399 . S
C1108 C1113 1.399 . S
C1109 C1108 1.399 . S
C1109 C1110 1.376 . S
C1110 H1097 0.930 . S
C1110 C1109 1.376 . S
C1110 C1111 1.388 . S
C1111 H1098 0.930 . S
C1111 C1110 1.388 . S
C1111 C1112 1.390 . S
C1112 C1111 1.390 . S
C1112 C1113 1.394 . S
C1112 C1118 1.465 . S
C1113 C1108 1.399 . S
C1113 C1112 1.394 . S
C1113 C1114 1.516 . S
C1114 C1113 1.516 . S
C1114 C1115 1.502 . S
C1114 C1116 1.561 . S
C1114 C1117 1.526 . S
C1115 H1099 0.959 . S
C1115 H1100 0.959 . S
C1115 H1101 0.961 . S
C1115 C1114 1.502 . S
C1116 H1102 0.960 . S
C1116 H1103 0.961 . S
C1116 H1104 0.959 . S
C1116 C1114 1.561 . S
C1117 C1114 1.526 . S
C1117 C1118 1.396 . S
C1117 C1122 1.390 . S
C1118 C1112 1.465 . S
C1118 C1117 1.396 . S
C1118 C1119 1.399 . S
C1119 H1105 0.929 . S
C1119 C1118 1.399 . S
C1119 C1120 1.385 . S
C1120 H1106 0.931 . S
C1120 C1119 1.385 . S
C1120 C1121 1.389 . S
C1121 C1120 1.389 . S
C1121 C1122 1.387 . S
C1122 H1107 0.930 . S
C1122 C1117 1.390 . S
C1122 C1121 1.387 . S
H1123 C1135 0.930 . S
H1124 C1137 0.930 . S
H1125 C1138 0.930 . S
H1126 C1142 0.959 . S
H1127 C1142 0.959 . S
H1128 C1142 0.961 . S
H1129 C1143 0.960 . S
H1130 C1143 0.961 . S
H1131 C1143 0.959 . S
H1132 C1146 0.929 . S
H1133 C1147 0.931 . S
H1134 C1149 0.930 . S
C1135 H1123 0.930 . S
C1135 C1136 1.399 . S
C1135 C1140 1.399 . S
C1136 C1135 1.399 . S
C1136 C1137 1.376 . S
C1137 H1124 0.930 . S
C1137 C1136 1.376 . S
C1137 C1138 1.388 . S
C1138 H1125 0.930 . S
C1138 C1137 1.388 . S
C1138 C1139 1.390 . S
C1139 C1138 1.390 . S
C1139 C1140 1.394 . S
C1139 C1145 1.465 . S
C1140 C1135 1.399 . S
C1140 C1139 1.394 . S
C1140 C1141 1.516 . S
C1141 C1140 1.516 . S
C1141 C1142 1.502 . S
C1141 C1143 1.561 . S
C1141 C1144 1.526 . S
C1142 H1126 0.959 . S
C1142 H1127 0.959 . S
C1142 H1128 0.961 . S
C1142 C1141 1.502 . S
C1143 H1129 0.960 . S
C1143 H1130 0.961 . S
C1143 H1131 0.959 . S
C1143 C1141 1.561 . S
C1144 C1141 1.526 . S
C1144 C1145 1.396 . S
C1144 C1149 1.390 . S
C1145 C1139 1.465 . S
C1145 C1144 1.396 . S
C1145 C1146 1.399 . S
C1146 H1132 0.929 . S
C1146 C1145 1.399 . S
C1146 C1147 1.385 . S
C1147 H1133 0.931 . S
C1147 C1146 1.385 . S
C1147 C1148 1.389 . S
C1148 C1147 1.389 . S
C1148 C1149 1.387 . S
C1149 H1134 0.930 . S
C1149 C1144 1.390 . S
C1149 C1148 1.387 . S
H1150 C1162 0.906 1_655 S
H1151 C1164 0.930 . S
H1152 C1165 0.930 . S
H1153 C1169 0.959 . S
H1154 C1169 0.959 . S
H1155 C1169 0.961 . S
H1156 C1170 0.960 . S
H1157 C1170 0.961 . S
H1158 C1170 0.959 . S
H1159 C1173 0.929 . S
H1160 C1174 0.931 . S
H1161 C1176 0.930 . S
C1162 H1150 0.906 1_455 S
C1162 C1163 1.425 . S
C1162 C1167 1.401 . S
C1163 C1162 1.425 . S
C1163 C1164 1.376 . S
C1164 H1151 0.930 . S
C1164 C1163 1.376 . S
C1164 C1165 1.388 . S
C1165 H1152 0.930 . S
C1165 C1164 1.388 . S
C1165 C1166 1.390 . S
C1166 C1165 1.390 . S
C1166 C1167 1.394 . S
C1166 C1172 1.465 . S
C1167 C1162 1.401 . S
C1167 C1166 1.394 . S
C1167 C1168 1.516 1_455 S
C1168 C1167 1.516 1_655 S
C1168 C1169 1.502 . S
C1168 C1170 1.561 1_655 S
C1168 C1171 1.526 . S
C1169 H1153 0.959 . S
C1169 H1154 0.959 . S
C1169 H1155 0.961 . S
C1169 C1168 1.502 . S
C1170 H1156 0.960 . S
C1170 H1157 0.961 . S
C1170 H1158 0.959 . S
C1170 C1168 1.561 1_455 S
C1171 C1168 1.526 . S
C1171 C1172 1.396 1_655 S
C1171 C1176 1.390 . S
C1172 C1166 1.465 . S
C1172 C1171 1.396 1_455 S
C1172 C1173 1.399 . S
C1173 H1159 0.929 . S
C1173 C1172 1.399 . S
C1173 C1174 1.385 . S
C1174 H1160 0.931 . S
C1174 C1173 1.385 . S
C1174 C1175 1.389 1_455 S
C1175 C1174 1.389 1_655 S
C1175 C1176 1.387 . S
C1176 H1161 0.930 . S
C1176 C1171 1.390 . S
C1176 C1175 1.387 . S
H1177 C1189 0.930 . S
H1178 C1191 0.930 . S
H1179 C1192 0.930 . S
H1180 C1196 0.959 . S
H1181 C1196 0.959 . S
H1182 C1196 0.961 . S
H1183 C1197 0.960 . S
H1184 C1197 0.961 . S
H1185 C1197 0.959 . S
H1186 C1200 0.929 . S
H1187 C1201 0.931 . S
H1188 C1203 0.930 . S
C1189 H1177 0.930 . S
C1189 C1190 1.399 . S
C1189 C1194 1.399 . S
C1190 C1189 1.399 . S
C1190 C1191 1.376 . S
C1191 H1178 0.930 . S
C1191 C1190 1.376 . S
C1191 C1192 1.388 . S
C1192 H1179 0.930 . S
C1192 C1191 1.388 . S
C1192 C1193 1.390 . S
C1193 C1192 1.390 . S
C1193 C1194 1.394 . S
C1193 C1199 1.465 . S
C1194 C1189 1.399 . S
C1194 C1193 1.394 . S
C1194 C1195 1.516 . S
C1195 C1194 1.516 . S
C1195 C1196 1.502 . S
C1195 C1197 1.561 . S
C1195 C1198 1.526 . S
C1196 H1180 0.959 . S
C1196 H1181 0.959 . S
C1196 H1182 0.961 . S
C1196 C1195 1.502 . S
C1197 H1183 0.960 . S
C1197 H1184 0.961 . S
C1197 H1185 0.959 . S
C1197 C1195 1.561 . S
C1198 C1195 1.526 . S
C1198 C1199 1.396 . S
C1198 C1203 1.390 1_556 S
C1199 C1193 1.465 . S
C1199 C1198 1.396 . S
C1199 C1200 1.399 . S
C1200 H1186 0.929 . S
C1200 C1199 1.399 . S
C1200 C1201 1.385 1_556 S
C1201 H1187 0.931 . S
C1201 C1200 1.385 1_554 S
C1201 C1202 1.389 . S
C1202 C1201 1.389 . S
C1202 C1203 1.387 . S
C1203 H1188 0.930 . S
C1203 C1198 1.390 1_554 S
C1203 C1202 1.387 . S
H1204 C1216 0.930 . S
H1205 C1218 0.930 . S
H1206 C1219 0.930 . S
H1207 C1223 0.959 . S
H1208 C1223 0.959 . S
H1209 C1223 0.961 . S
H1210 C1224 0.960 . S
H1211 C1224 0.961 . S
H1212 C1224 0.959 . S
H1213 C1227 0.929 . S
H1214 C1228 0.931 . S
H1215 C1230 0.930 . S
C1216 H1204 0.930 . S
C1216 C1217 1.399 . S
C1216 C1221 1.399 . S
C1217 C1216 1.399 . S
C1217 C1218 1.376 . S
C1218 H1205 0.930 . S
C1218 C1217 1.376 . S
C1218 C1219 1.388 . S
C1219 H1206 0.930 . S
C1219 C1218 1.388 . S
C1219 C1220 1.390 . S
C1220 C1219 1.390 . S
C1220 C1221 1.394 . S
C1220 C1226 1.465 . S
C1221 C1216 1.399 . S
C1221 C1220 1.394 . S
C1221 C1222 1.516 . S
C1222 C1221 1.516 . S
C1222 C1223 1.502 . S
C1222 C1224 1.561 . S
C1222 C1225 1.526 . S
C1223 H1207 0.959 . S
C1223 H1208 0.959 . S
C1223 H1209 0.961 . S
C1223 C1222 1.502 . S
C1224 H1210 0.960 . S
C1224 H1211 0.961 . S
C1224 H1212 0.959 . S
C1224 C1222 1.561 . S
C1225 C1222 1.526 . S
C1225 C1226 1.396 . S
C1225 C1230 1.390 . S
C1226 C1220 1.465 . S
C1226 C1225 1.396 . S
C1226 C1227 1.399 . S
C1227 H1213 0.929 . S
C1227 C1226 1.399 . S
C1227 C1228 1.385 . S
C1228 H1214 0.931 . S
C1228 C1227 1.385 . S
C1228 C1229 1.389 . S
C1229 C1228 1.389 . S
C1229 C1230 1.387 . S
C1230 H1215 0.930 . S
C1230 C1225 1.390 . S
C1230 C1229 1.387 . S
H1231 C1243 0.930 . S
H1232 C1245 0.930 . S
H1233 C1246 0.930 . S
H1234 C1250 0.959 . S
H1235 C1250 0.959 . S
H1236 C1250 0.961 . S
H1237 C1251 0.960 . S
H1238 C1251 0.961 . S
H1239 C1251 0.959 . S
H1240 C1254 0.929 . S
H1241 C1255 0.931 . S
H1242 C1257 0.930 . S
C1243 H1231 0.930 . S
C1243 C1244 1.399 . S
C1243 C1248 1.399 . S
C1244 C1243 1.399 . S
C1244 C1245 1.376 . S
C1245 H1232 0.930 . S
C1245 C1244 1.376 . S
C1245 C1246 1.388 . S
C1246 H1233 0.930 . S
C1246 C1245 1.388 . S
C1246 C1247 1.390 . S
C1247 C1246 1.390 . S
C1247 C1248 1.394 . S
C1247 C1253 1.465 . S
C1248 C1243 1.399 . S
C1248 C1247 1.394 . S
C1248 C1249 1.516 . S
C1249 C1248 1.516 . S
C1249 C1250 1.502 . S
C1249 C1251 1.561 . S
C1249 C1252 1.526 . S
C1250 H1234 0.959 . S
C1250 H1235 0.959 . S
C1250 H1236 0.961 . S
C1250 C1249 1.502 . S
C1251 H1237 0.960 . S
C1251 H1238 0.961 . S
C1251 H1239 0.959 . S
C1251 C1249 1.561 . S
C1252 C1249 1.526 . S
C1252 C1253 1.396 . S
C1252 C1257 1.390 . S
C1253 C1247 1.465 . S
C1253 C1252 1.396 . S
C1253 C1254 1.399 . S
C1254 H1240 0.929 . S
C1254 C1253 1.399 . S
C1254 C1255 1.385 . S
C1255 H1241 0.931 . S
C1255 C1254 1.385 . S
C1255 C1256 1.389 . S
C1256 C1255 1.389 . S
C1256 C1257 1.387 . S
C1257 H1242 0.930 . S
C1257 C1252 1.390 . S
C1257 C1256 1.387 . S
H1258 C1270 0.926 1_455 S
H1259 C1272 0.930 . S
H1260 C1273 0.930 . S
H1261 C1277 0.959 . S
H1262 C1277 0.959 . S
H1263 C1277 0.961 . S
H1264 C1278 0.960 . S
H1265 C1278 0.961 . S
H1266 C1278 0.959 . S
H1267 C1281 0.929 . S
H1268 C1282 0.934 . S
H1269 C1284 0.930 . S
C1270 H1258 0.926 1_655 S
C1270 C1271 1.403 . S
C1270 C1275 1.399 1_655 S
C1271 C1270 1.403 . S
C1271 C1272 1.376 . S
C1272 H1259 0.930 . S
C1272 C1271 1.376 . S
C1272 C1273 1.388 . S
C1273 H1260 0.930 . S
C1273 C1272 1.388 . S
C1273 C1274 1.390 . S
C1274 C1273 1.390 . S
C1274 C1275 1.394 1_655 S
C1274 C1280 1.473 . S
C1275 C1270 1.399 1_455 S
C1275 C1274 1.394 1_455 S
C1275 C1276 1.516 . S
C1276 C1275 1.516 . S
C1276 C1277 1.502 . S
C1276 C1278 1.561 1_455 S
C1276 C1279 1.526 . S
C1277 H1261 0.959 . S
C1277 H1262 0.959 . S
C1277 H1263 0.961 . S
C1277 C1276 1.502 . S
C1278 H1264 0.960 . S
C1278 H1265 0.961 . S
C1278 H1266 0.959 . S
C1278 C1276 1.561 1_655 S
C1279 C1276 1.526 . S
C1279 C1280 1.384 1_455 S
C1279 C1284 1.390 . S
C1280 C1274 1.473 . S
C1280 C1279 1.384 1_655 S
C1280 C1281 1.404 . S
C1281 H1267 0.929 . S
C1281 C1280 1.404 . S
C1281 C1282 1.385 1_655 S
C1282 H1268 0.934 . S
C1282 C1281 1.385 1_455 S
C1282 C1283 1.389 . S
C1283 C1282 1.389 . S
C1283 C1284 1.387 . S
C1284 H1269 0.930 . S
C1284 C1279 1.390 . S
C1284 C1283 1.387 . S
H1285 C1297 0.930 . S
H1286 C1299 0.930 . S
H1287 C1300 0.930 . S
H1288 C1304 0.959 . S
H1289 C1304 0.959 . S
H1290 C1304 0.961 . S
H1291 C1305 0.960 . S
H1292 C1305 0.961 . S
H1293 C1305 0.959 . S
H1294 C1308 0.929 1_554 S
H1295 C1309 0.931 . S
H1296 C1311 0.930 . S
C1297 H1285 0.930 . S
C1297 C1298 1.399 . S
C1297 C1302 1.399 . S
C1298 C1297 1.399 . S
C1298 C1299 1.376 . S
C1299 H1286 0.930 . S
C1299 C1298 1.376 . S
C1299 C1300 1.388 . S
C1300 H1287 0.930 . S
C1300 C1299 1.388 . S
C1300 C1301 1.390 . S
C1301 C1300 1.390 . S
C1301 C1302 1.394 . S
C1301 C1307 1.465 . S
C1302 C1297 1.399 . S
C1302 C1301 1.394 . S
C1302 C1303 1.516 . S
C1303 C1302 1.516 . S
C1303 C1304 1.502 . S
C1303 C1305 1.561 . S
C1303 C1306 1.526 . S
C1304 H1288 0.959 . S
C1304 H1289 0.959 . S
C1304 H1290 0.961 . S
C1304 C1303 1.502 . S
C1305 H1291 0.960 . S
C1305 H1292 0.961 . S
C1305 H1293 0.959 . S
C1305 C1303 1.561 . S
C1306 C1303 1.526 . S
C1306 C1307 1.396 . S
C1306 C1311 1.390 1_554 S
C1307 C1301 1.465 . S
C1307 C1306 1.396 . S
C1307 C1308 1.399 1_554 S
C1308 H1294 0.929 1_556 S
C1308 C1307 1.399 1_556 S
C1308 C1309 1.385 . S
C1309 H1295 0.931 . S
C1309 C1308 1.385 . S
C1309 C1310 1.389 . S
C1310 C1309 1.389 . S
C1310 C1311 1.387 . S
C1311 H1296 0.930 . S
C1311 C1306 1.390 1_556 S
C1311 C1310 1.387 . S
H1312 C1324 0.930 . S
H1313 C1326 0.930 . S
H1314 C1327 0.930 . S
H1315 C1331 0.959 . S
H1316 C1331 0.959 . S
H1317 C1331 0.961 . S
H1318 C1332 0.960 . S
H1319 C1332 0.961 . S
H1320 C1332 0.959 . S
H1321 C1335 0.925 1_554 S
H1322 C1336 0.931 . S
H1323 C1338 0.930 1_455 S
C1324 H1312 0.930 . S
C1324 C1325 1.399 . S
C1324 C1329 1.399 . S
C1325 C1324 1.399 . S
C1325 C1326 1.376 1_455 S
C1326 H1313 0.930 . S
C1326 C1325 1.376 1_655 S
C1326 C1327 1.388 . S
C1327 H1314 0.930 . S
C1327 C1326 1.388 . S
C1327 C1328 1.390 . S
C1328 C1327 1.390 . S
C1328 C1329 1.394 1_655 S
C1328 C1334 1.459 1_544 S
C1329 C1324 1.399 . S
C1329 C1328 1.394 1_455 S
C1329 C1330 1.516 1_545 S
C1330 C1329 1.516 1_565 S
C1330 C1331 1.503 1_554 S
C1330 C1332 1.560 . S
C1330 C1333 1.526 1_554 S
C1331 H1315 0.959 . S
C1331 H1316 0.959 . S
C1331 H1317 0.961 . S
C1331 C1330 1.503 1_556 S
C1332 H1318 0.960 . S
C1332 H1319 0.961 . S
C1332 H1320 0.959 . S
C1332 C1330 1.560 . S
C1333 C1330 1.526 1_556 S
C1333 C1334 1.401 1_455 S
C1333 C1338 1.390 1_455 S
C1334 C1328 1.459 1_566 S
C1334 C1333 1.401 1_655 S
C1334 C1335 1.401 . S
C1335 H1321 0.925 1_556 S
C1335 C1334 1.401 . S
C1335 C1336 1.385 . S
C1336 H1322 0.931 . S
C1336 C1335 1.385 . S
C1336 C1337 1.389 . S
C1337 C1336 1.389 . S
C1337 C1338 1.387 . S
C1338 H1323 0.930 1_655 S
C1338 C1333 1.390 1_655 S
C1338 C1337 1.387 . S
H1339 C1351 0.930 . S
H1340 C1353 0.930 . S
H1341 C1354 0.930 . S
H1342 C1358 0.959 . S
H1343 C1358 0.959 . S
H1344 C1358 0.961 . S
H1345 C1359 0.960 . S
H1346 C1359 0.961 . S
H1347 C1359 0.959 . S
H1348 C1362 0.929 . S
H1349 C1363 0.931 . S
H1350 C1365 0.930 . S
C1351 H1339 0.930 . S
C1351 C1352 1.399 . S
C1351 C1356 1.399 . S
C1352 C1351 1.399 . S
C1352 C1353 1.376 . S
C1353 H1340 0.930 . S
C1353 C1352 1.376 . S
C1353 C1354 1.388 . S
C1354 H1341 0.930 . S
C1354 C1353 1.388 . S
C1354 C1355 1.390 . S
C1355 C1354 1.390 . S
C1355 C1356 1.394 . S
C1355 C1361 1.465 . S
C1356 C1351 1.399 . S
C1356 C1355 1.394 . S
C1356 C1357 1.516 . S
C1357 C1356 1.516 . S
C1357 C1358 1.502 . S
C1357 C1359 1.561 . S
C1357 C1360 1.526 . S
C1358 H1342 0.959 . S
C1358 H1343 0.959 . S
C1358 H1344 0.961 . S
C1358 C1357 1.502 . S
C1359 H1345 0.960 . S
C1359 H1346 0.961 . S
C1359 H1347 0.959 . S
C1359 C1357 1.561 . S
C1360 C1357 1.526 . S
C1360 C1361 1.396 . S
C1360 C1365 1.390 . S
C1361 C1355 1.465 . S
C1361 C1360 1.396 . S
C1361 C1362 1.399 . S
C1362 H1348 0.929 . S
C1362 C1361 1.399 . S
C1362 C1363 1.385 . S
C1363 H1349 0.931 . S
C1363 C1362 1.385 . S
C1363 C1364 1.389 . S
C1364 C1363 1.389 . S
C1364 C1365 1.387 . S
C1365 H1350 0.930 . S
C1365 C1360 1.390 . S
C1365 C1364 1.387 . S
H1366 C1378 0.930 . S
H1367 C1380 0.930 . S
H1368 C1381 0.930 . S
H1369 C1385 0.959 1_545 S
H1370 C1385 0.959 . S
H1371 C1385 0.961 1_545 S
H1372 C1386 0.960 . S
H1373 C1386 0.961 . S
H1374 C1386 0.959 . S
H1375 C1389 0.929 . S
H1376 C1390 0.931 . S
H1377 C1392 0.930 . S
C1378 H1366 0.930 . S
C1378 C1379 1.399 . S
C1378 C1383 1.399 . S
C1379 C1378 1.399 . S
C1379 C1380 1.376 . S
C1380 H1367 0.930 . S
C1380 C1379 1.376 . S
C1380 C1381 1.388 . S
C1381 H1368 0.930 . S
C1381 C1380 1.388 . S
C1381 C1382 1.390 . S
C1382 C1381 1.390 . S
C1382 C1383 1.394 . S
C1382 C1388 1.465 1_545 S
C1383 C1378 1.399 . S
C1383 C1382 1.394 . S
C1383 C1384 1.516 1_545 S
C1384 C1383 1.516 1_565 S
C1384 C1385 1.502 . S
C1384 C1386 1.561 . S
C1384 C1387 1.526 . S
C1385 H1369 0.959 1_565 S
C1385 H1370 0.959 . S
C1385 H1371 0.961 1_565 S
C1385 C1384 1.502 . S
C1386 H1372 0.960 . S
C1386 H1373 0.961 . S
C1386 H1374 0.959 . S
C1386 C1384 1.561 . S
C1387 C1384 1.526 . S
C1387 C1388 1.396 . S
C1387 C1392 1.390 . S
C1388 C1382 1.465 1_565 S
C1388 C1387 1.396 . S
C1388 C1389 1.399 . S
C1389 H1375 0.929 . S
C1389 C1388 1.399 . S
C1389 C1390 1.385 . S
C1390 H1376 0.931 . S
C1390 C1389 1.385 . S
C1390 C1391 1.389 . S
C1391 C1390 1.389 . S
C1391 C1392 1.387 . S
C1392 H1377 0.930 . S
C1392 C1387 1.390 . S
C1392 C1391 1.387 . S
H1393 C1405 0.930 . S
H1394 C1407 0.930 . S
H1395 C1408 0.930 . S
H1396 C1412 0.959 . S
H1397 C1412 0.959 . S
H1398 C1412 0.961 . S
H1399 C1413 0.960 . S
H1400 C1413 0.961 . S
H1401 C1413 0.959 . S
H1402 C1416 0.929 . S
H1403 C1417 0.931 . S
H1404 C1419 0.930 . S
C1405 H1393 0.930 . S
C1405 C1406 1.399 . S
C1405 C1410 1.399 . S
C1406 C1405 1.399 . S
C1406 C1407 1.376 . S
C1407 H1394 0.930 . S
C1407 C1406 1.376 . S
C1407 C1408 1.388 . S
C1408 H1395 0.930 . S
C1408 C1407 1.388 . S
C1408 C1409 1.390 . S
C1409 C1408 1.390 . S
C1409 C1410 1.394 . S
C1409 C1415 1.465 . S
C1410 C1405 1.399 . S
C1410 C1409 1.394 . S
C1410 C1411 1.516 . S
C1411 C1410 1.516 . S
C1411 C1412 1.502 . S
C1411 C1413 1.561 . S
C1411 C1414 1.526 . S
C1412 H1396 0.959 . S
C1412 H1397 0.959 . S
C1412 H1398 0.961 . S
C1412 C1411 1.502 . S
C1413 H1399 0.960 . S
C1413 H1400 0.961 . S
C1413 H1401 0.959 . S
C1413 C1411 1.561 . S
C1414 C1411 1.526 . S
C1414 C1415 1.396 . S
C1414 C1419 1.390 . S
C1415 C1409 1.465 . S
C1415 C1414 1.396 . S
C1415 C1416 1.399 . S
C1416 H1402 0.929 . S
C1416 C1415 1.399 . S
C1416 C1417 1.385 . S
C1417 H1403 0.931 . S
C1417 C1416 1.385 . S
C1417 C1418 1.389 . S
C1418 C1417 1.389 . S
C1418 C1419 1.387 . S
C1419 H1404 0.930 . S
C1419 C1414 1.390 . S
C1419 C1418 1.387 . S
H1420 C1432 0.930 . S
H1421 C1434 0.930 . S
H1422 C1435 0.930 . S
H1423 C1439 0.959 . S
H1424 C1439 0.959 . S
H1425 C1439 0.961 . S
H1426 C1440 0.960 . S
H1427 C1440 0.961 . S
H1428 C1440 0.959 . S
H1429 C1443 0.929 . S
H1430 C1444 0.931 . S
H1431 C1446 0.930 1_455 S
C1432 H1420 0.930 . S
C1432 C1433 1.399 . S
C1432 C1437 1.399 . S
C1433 C1432 1.399 . S
C1433 C1434 1.376 1_455 S
C1434 H1421 0.930 . S
C1434 C1433 1.376 1_655 S
C1434 C1435 1.388 . S
C1435 H1422 0.930 . S
C1435 C1434 1.388 . S
C1435 C1436 1.390 . S
C1436 C1435 1.390 . S
C1436 C1437 1.394 1_655 S
C1436 C1442 1.465 1_565 S
C1437 C1432 1.399 . S
C1437 C1436 1.394 1_455 S
C1437 C1438 1.516 1_565 S
C1438 C1437 1.516 1_545 S
C1438 C1439 1.502 . S
C1438 C1440 1.561 . S
C1438 C1441 1.526 . S
C1439 H1423 0.959 . S
C1439 H1424 0.959 . S
C1439 H1425 0.961 . S
C1439 C1438 1.502 . S
C1440 H1426 0.960 . S
C1440 H1427 0.961 . S
C1440 H1428 0.959 . S
C1440 C1438 1.561 . S
C1441 C1438 1.526 . S
C1441 C1442 1.396 1_455 S
C1441 C1446 1.390 1_455 S
C1442 C1436 1.465 1_545 S
C1442 C1441 1.396 1_655 S
C1442 C1443 1.399 . S
C1443 H1429 0.929 . S
C1443 C1442 1.399 . S
C1443 C1444 1.385 . S
C1444 H1430 0.931 . S
C1444 C1443 1.385 . S
C1444 C1445 1.389 . S
C1445 C1444 1.389 . S
C1445 C1446 1.387 . S
C1446 H1431 0.930 1_655 S
C1446 C1441 1.390 1_655 S
C1446 C1445 1.387 . S
H1447 C1459 0.930 . S
H1448 C1461 0.930 . S
H1449 C1462 0.930 . S
H1450 C1466 0.959 . S
H1451 C1466 0.959 . S
H1452 C1466 0.961 . S
H1453 C1467 0.960 . S
H1454 C1467 0.961 . S
H1455 C1467 0.959 . S
H1456 C1470 0.929 . S
H1457 C1471 0.931 . S
H1458 C1473 0.930 . S
C1459 H1447 0.930 . S
C1459 C1460 1.399 . S
C1459 C1464 1.399 . S
C1460 C1459 1.399 . S
C1460 C1461 1.376 . S
C1461 H1448 0.930 . S
C1461 C1460 1.376 . S
C1461 C1462 1.388 . S
C1462 H1449 0.930 . S
C1462 C1461 1.388 . S
C1462 C1463 1.390 . S
C1463 C1462 1.390 . S
C1463 C1464 1.394 . S
C1463 C1469 1.465 . S
C1464 C1459 1.399 . S
C1464 C1463 1.394 . S
C1464 C1465 1.516 . S
C1465 C1464 1.516 . S
C1465 C1466 1.502 . S
C1465 C1467 1.561 . S
C1465 C1468 1.526 . S
C1466 H1450 0.959 . S
C1466 H1451 0.959 . S
C1466 H1452 0.961 . S
C1466 C1465 1.502 . S
C1467 H1453 0.960 . S
C1467 H1454 0.961 . S
C1467 H1455 0.959 . S
C1467 C1465 1.561 . S
C1468 C1465 1.526 . S
C1468 C1469 1.396 . S
C1468 C1473 1.390 . S
C1469 C1463 1.465 . S
C1469 C1468 1.396 . S
C1469 C1470 1.399 . S
C1470 H1456 0.929 . S
C1470 C1469 1.399 . S
C1470 C1471 1.385 . S
C1471 H1457 0.931 . S
C1471 C1470 1.385 . S
C1471 C1472 1.389 . S
C1472 C1471 1.389 . S
C1472 C1473 1.387 . S
C1473 H1458 0.930 . S
C1473 C1468 1.390 . S
C1473 C1472 1.387 . S
H1474 C1486 0.930 . S
H1475 C1488 0.930 . S
H1476 C1489 0.930 . S
H1477 C1493 0.959 . S
H1478 C1493 0.959 . S
H1479 C1493 0.961 1_565 S
H1480 C1494 0.960 . S
H1481 C1494 0.961 . S
H1482 C1494 0.959 . S
H1483 C1497 0.929 . S
H1484 C1498 0.931 . S
H1485 C1500 0.930 . S
C1486 H1474 0.930 . S
C1486 C1487 1.399 1_556 S
C1486 C1491 1.399 . S
C1487 C1486 1.399 1_554 S
C1487 C1488 1.376 . S
C1488 H1475 0.930 . S
C1488 C1487 1.376 . S
C1488 C1489 1.388 . S
C1489 H1476 0.930 . S
C1489 C1488 1.388 . S
C1489 C1490 1.390 . S
C1490 C1489 1.390 . S
C1490 C1491 1.394 1_554 S
C1490 C1496 1.465 1_565 S
C1491 C1486 1.399 . S
C1491 C1490 1.394 1_556 S
C1491 C1492 1.516 . S
C1492 C1491 1.516 . S
C1492 C1493 1.502 1_565 S
C1492 C1494 1.561 . S
C1492 C1495 1.526 1_565 S
C1493 H1477 0.959 . S
C1493 H1478 0.959 . S
C1493 H1479 0.961 1_545 S
C1493 C1492 1.502 1_545 S
C1494 H1480 0.960 . S
C1494 H1481 0.961 . S
C1494 H1482 0.959 . S
C1494 C1492 1.561 . S
C1495 C1492 1.526 1_545 S
C1495 C1496 1.396 1_556 S
C1495 C1500 1.390 . S
C1496 C1490 1.465 1_545 S
C1496 C1495 1.396 1_554 S
C1496 C1497 1.399 . S
C1497 H1483 0.929 . S
C1497 C1496 1.399 . S
C1497 C1498 1.385 . S
C1498 H1484 0.931 . S
C1498 C1497 1.385 . S
C1498 C1499 1.389 1_554 S
C1499 C1498 1.389 1_556 S
C1499 C1500 1.387 . S
C1500 H1485 0.930 . S
C1500 C1495 1.390 . S
C1500 C1499 1.387 . S
H1501 C1513 0.930 . S
H1502 C1515 0.930 . S
H1503 C1516 0.930 . S
H1504 C1520 0.959 . S
H1505 C1520 0.959 . S
H1506 C1520 0.961 . S
H1507 C1521 0.960 . S
H1508 C1521 0.961 . S
H1509 C1521 0.959 . S
H1510 C1524 0.929 . S
H1511 C1525 0.931 . S
H1512 C1527 0.930 . S
C1513 H1501 0.930 . S
C1513 C1514 1.399 . S
C1513 C1518 1.399 . S
C1514 C1513 1.399 . S
C1514 C1515 1.376 . S
C1515 H1502 0.930 . S
C1515 C1514 1.376 . S
C1515 C1516 1.388 . S
C1516 H1503 0.930 . S
C1516 C1515 1.388 . S
C1516 C1517 1.390 . S
C1517 C1516 1.390 . S
C1517 C1518 1.394 . S
C1517 C1523 1.465 . S
C1518 C1513 1.399 . S
C1518 C1517 1.394 . S
C1518 C1519 1.516 . S
C1519 C1518 1.516 . S
C1519 C1520 1.502 . S
C1519 C1521 1.561 . S
C1519 C1522 1.526 . S
C1520 H1504 0.959 . S
C1520 H1505 0.959 . S
C1520 H1506 0.961 . S
C1520 C1519 1.502 . S
C1521 H1507 0.960 . S
C1521 H1508 0.961 . S
C1521 H1509 0.959 . S
C1521 C1519 1.561 . S
C1522 C1519 1.526 . S
C1522 C1523 1.396 . S
C1522 C1527 1.390 . S
C1523 C1517 1.465 . S
C1523 C1522 1.396 . S
C1523 C1524 1.399 . S
C1524 H1510 0.929 . S
C1524 C1523 1.399 . S
C1524 C1525 1.385 . S
C1525 H1511 0.931 . S
C1525 C1524 1.385 . S
C1525 C1526 1.389 . S
C1526 C1525 1.389 . S
C1526 C1527 1.387 . S
C1527 H1512 0.930 . S
C1527 C1522 1.390 . S
C1527 C1526 1.387 . S
H1528 C1540 0.930 . S
H1529 C1542 0.930 . S
H1530 C1543 0.930 . S
H1531 C1547 0.959 . S
H1532 C1547 0.959 . S
H1533 C1547 0.961 . S
H1534 C1548 0.960 . S
H1535 C1548 0.961 . S
H1536 C1548 0.959 . S
H1537 C1551 0.929 . S
H1538 C1552 0.931 . S
H1539 C1554 0.930 . S
C1540 H1528 0.930 . S
C1540 C1541 1.399 . S
C1540 C1545 1.399 . S
C1541 C1540 1.399 . S
C1541 C1542 1.376 . S
C1542 H1529 0.930 . S
C1542 C1541 1.376 . S
C1542 C1543 1.388 . S
C1543 H1530 0.930 . S
C1543 C1542 1.388 . S
C1543 C1544 1.390 . S
C1544 C1543 1.390 . S
C1544 C1545 1.394 . S
C1544 C1550 1.465 . S
C1545 C1540 1.399 . S
C1545 C1544 1.394 . S
C1545 C1546 1.516 . S
C1546 C1545 1.516 . S
C1546 C1547 1.502 . S
C1546 C1548 1.561 . S
C1546 C1549 1.526 . S
C1547 H1531 0.959 . S
C1547 H1532 0.959 . S
C1547 H1533 0.961 . S
C1547 C1546 1.502 . S
C1548 H1534 0.960 . S
C1548 H1535 0.961 . S
C1548 H1536 0.959 . S
C1548 C1546 1.561 . S
C1549 C1546 1.526 . S
C1549 C1550 1.396 . S
C1549 C1554 1.390 . S
C1550 C1544 1.465 . S
C1550 C1549 1.396 . S
C1550 C1551 1.399 . S
C1551 H1537 0.929 . S
C1551 C1550 1.399 . S
C1551 C1552 1.385 . S
C1552 H1538 0.931 . S
C1552 C1551 1.385 . S
C1552 C1553 1.389 . S
C1553 C1552 1.389 . S
C1553 C1554 1.387 . S
C1554 H1539 0.930 . S
C1554 C1549 1.390 . S
C1554 C1553 1.387 . S
H1555 C1567 0.930 . S
H1556 C1569 0.930 . S
H1557 C1570 0.930 . S
H1558 C1574 0.959 . S
H1559 C1574 0.959 . S
H1560 C1574 0.961 . S
H1561 C1575 0.960 . S
H1562 C1575 0.961 . S
H1563 C1575 0.959 . S
H1564 C1578 0.929 . S
H1565 C1579 0.931 . S
H1566 C1581 0.930 . S
C1567 H1555 0.930 . S
C1567 C1568 1.399 . S
C1567 C1572 1.399 . S
C1568 C1567 1.399 . S
C1568 C1569 1.376 . S
C1569 H1556 0.930 . S
C1569 C1568 1.376 . S
C1569 C1570 1.388 . S
C1570 H1557 0.930 . S
C1570 C1569 1.388 . S
C1570 C1571 1.390 . S
C1571 C1570 1.390 . S
C1571 C1572 1.394 . S
C1571 C1577 1.465 . S
C1572 C1567 1.399 . S
C1572 C1571 1.394 . S
C1572 C1573 1.516 . S
C1573 C1572 1.516 . S
C1573 C1574 1.502 . S
C1573 C1575 1.561 . S
C1573 C1576 1.526 . S
C1574 H1558 0.959 . S
C1574 H1559 0.959 . S
C1574 H1560 0.961 . S
C1574 C1573 1.502 . S
C1575 H1561 0.960 . S
C1575 H1562 0.961 . S
C1575 H1563 0.959 . S
C1575 C1573 1.561 . S
C1576 C1573 1.526 . S
C1576 C1577 1.396 . S
C1576 C1581 1.390 . S
C1577 C1571 1.465 . S
C1577 C1576 1.396 . S
C1577 C1578 1.399 . S
C1578 H1564 0.929 . S
C1578 C1577 1.399 . S
C1578 C1579 1.385 . S
C1579 H1565 0.931 . S
C1579 C1578 1.385 . S
C1579 C1580 1.389 . S
C1580 C1579 1.389 . S
C1580 C1581 1.387 . S
C1581 H1566 0.930 . S
C1581 C1576 1.390 . S
C1581 C1580 1.387 . S
H1582 C1594 0.930 . S
H1583 C1596 0.930 . S
H1584 C1597 0.930 . S
H1585 C1601 0.959 . S
H1586 C1601 0.959 . S
H1587 C1601 0.961 . S
H1588 C1602 0.960 . S
H1589 C1602 0.961 . S
H1590 C1602 0.959 . S
H1591 C1605 0.929 . S
H1592 C1606 0.931 . S
H1593 C1608 0.930 . S
C1594 H1582 0.930 . S
C1594 C1595 1.399 . S
C1594 C1599 1.399 . S
C1595 C1594 1.399 . S
C1595 C1596 1.376 . S
C1596 H1583 0.930 . S
C1596 C1595 1.376 . S
C1596 C1597 1.388 . S
C1597 H1584 0.930 . S
C1597 C1596 1.388 . S
C1597 C1598 1.390 . S
C1598 C1597 1.390 . S
C1598 C1599 1.394 . S
C1598 C1604 1.465 . S
C1599 C1594 1.399 . S
C1599 C1598 1.394 . S
C1599 C1600 1.516 . S
C1600 C1599 1.516 . S
C1600 C1601 1.502 . S
C1600 C1602 1.561 . S
C1600 C1603 1.526 . S
C1601 H1585 0.959 . S
C1601 H1586 0.959 . S
C1601 H1587 0.961 . S
C1601 C1600 1.502 . S
C1602 H1588 0.960 . S
C1602 H1589 0.961 . S
C1602 H1590 0.959 . S
C1602 C1600 1.561 . S
C1603 C1600 1.526 . S
C1603 C1604 1.396 . S
C1603 C1608 1.390 . S
C1604 C1598 1.465 . S
C1604 C1603 1.396 . S
C1604 C1605 1.399 . S
C1605 H1591 0.929 . S
C1605 C1604 1.399 . S
C1605 C1606 1.385 . S
C1606 H1592 0.931 . S
C1606 C1605 1.385 . S
C1606 C1607 1.389 . S
C1607 C1606 1.389 . S
C1607 C1608 1.387 . S
C1608 H1593 0.930 . S
C1608 C1603 1.390 . S
C1608 C1607 1.387 . S
H1609 C1621 0.930 . S
H1610 C1623 0.930 . S
H1611 C1624 0.930 . S
H1612 C1628 0.959 . S
H1613 C1628 0.959 . S
H1614 C1628 0.961 . S
H1615 C1629 0.960 . S
H1616 C1629 0.961 . S
H1617 C1629 0.959 . S
H1618 C1632 0.929 . S
H1619 C1633 0.931 . S
H1620 C1635 0.930 . S
C1621 H1609 0.930 . S
C1621 C1622 1.399 . S
C1621 C1626 1.399 . S
C1622 C1621 1.399 . S
C1622 C1623 1.376 . S
C1623 H1610 0.930 . S
C1623 C1622 1.376 . S
C1623 C1624 1.388 . S
C1624 H1611 0.930 . S
C1624 C1623 1.388 . S
C1624 C1625 1.390 . S
C1625 C1624 1.390 . S
C1625 C1626 1.394 . S
C1625 C1631 1.465 . S
C1626 C1621 1.399 . S
C1626 C1625 1.394 . S
C1626 C1627 1.516 . S
C1627 C1626 1.516 . S
C1627 C1628 1.502 . S
C1627 C1629 1.561 . S
C1627 C1630 1.526 . S
C1628 H1612 0.959 . S
C1628 H1613 0.959 . S
C1628 H1614 0.961 . S
C1628 C1627 1.502 . S
C1629 H1615 0.960 . S
C1629 H1616 0.961 . S
C1629 H1617 0.959 . S
C1629 C1627 1.561 . S
C1630 C1627 1.526 . S
C1630 C1631 1.396 . S
C1630 C1635 1.390 . S
C1631 C1625 1.465 . S
C1631 C1630 1.396 . S
C1631 C1632 1.399 . S
C1632 H1618 0.929 . S
C1632 C1631 1.399 . S
C1632 C1633 1.385 . S
C1633 H1619 0.931 . S
C1633 C1632 1.385 . S
C1633 C1634 1.389 . S
C1634 C1633 1.389 . S
C1634 C1635 1.387 . S
C1635 H1620 0.930 . S
C1635 C1630 1.390 . S
C1635 C1634 1.387 . S
H1636 C1648 0.930 . S
H1637 C1650 0.930 . S
H1638 C1651 0.930 . S
H1639 C1655 0.959 . S
H1640 C1655 0.959 . S
H1641 C1655 0.961 . S
H1642 C1656 0.960 . S
H1643 C1656 0.961 . S
H1644 C1656 0.959 . S
H1645 C1659 0.929 . S
H1646 C1660 0.931 . S
H1647 C1662 0.930 . S
C1648 H1636 0.930 . S
C1648 C1649 1.399 . S
C1648 C1653 1.399 . S
C1649 C1648 1.399 . S
C1649 C1650 1.376 . S
C1650 H1637 0.930 . S
C1650 C1649 1.376 . S
C1650 C1651 1.388 . S
C1651 H1638 0.930 . S
C1651 C1650 1.388 . S
C1651 C1652 1.390 . S
C1652 C1651 1.390 . S
C1652 C1653 1.394 . S
C1652 C1658 1.465 . S
C1653 C1648 1.399 . S
C1653 C1652 1.394 . S
C1653 C1654 1.516 . S
C1654 C1653 1.516 . S
C1654 C1655 1.502 . S
C1654 C1656 1.561 . S
C1654 C1657 1.526 . S
C1655 H1639 0.959 . S
C1655 H1640 0.959 . S
C1655 H1641 0.961 . S
C1655 C1654 1.502 . S
C1656 H1642 0.960 . S
C1656 H1643 0.961 . S
C1656 H1644 0.959 . S
C1656 C1654 1.561 . S
C1657 C1654 1.526 . S
C1657 C1658 1.396 . S
C1657 C1662 1.390 . S
C1658 C1652 1.465 . S
C1658 C1657 1.396 . S
C1658 C1659 1.399 . S
C1659 H1645 0.929 . S
C1659 C1658 1.399 . S
C1659 C1660 1.385 . S
C1660 H1646 0.931 . S
C1660 C1659 1.385 . S
C1660 C1661 1.389 . S
C1661 C1660 1.389 . S
C1661 C1662 1.387 . S
C1662 H1647 0.930 . S
C1662 C1657 1.390 . S
C1662 C1661 1.387 . S
H1663 C1675 0.930 . S
H1664 C1677 0.930 . S
H1665 C1678 0.930 . S
H1666 C1682 0.959 . S
H1667 C1682 0.959 . S
H1668 C1682 0.961 . S
H1669 C1683 0.960 . S
H1670 C1683 0.961 . S
H1671 C1683 0.959 . S
H1672 C1686 0.929 . S
H1673 C1687 0.931 . S
H1674 C1689 0.930 . S
C1675 H1663 0.930 . S
C1675 C1676 1.399 1_556 S
C1675 C1680 1.399 . S
C1676 C1675 1.399 1_554 S
C1676 C1677 1.376 . S
C1677 H1664 0.930 . S
C1677 C1676 1.376 . S
C1677 C1678 1.388 . S
C1678 H1665 0.930 . S
C1678 C1677 1.388 . S
C1678 C1679 1.390 . S
C1679 C1678 1.390 . S
C1679 C1680 1.394 1_554 S
C1679 C1685 1.465 1_655 S
C1680 C1675 1.399 . S
C1680 C1679 1.394 1_556 S
C1680 C1681 1.516 . S
C1681 C1680 1.516 . S
C1681 C1682 1.502 1_655 S
C1681 C1683 1.561 . S
C1681 C1684 1.526 1_655 S
C1682 H1666 0.959 . S
C1682 H1667 0.959 . S
C1682 H1668 0.961 . S
C1682 C1681 1.502 1_455 S
C1683 H1669 0.960 . S
C1683 H1670 0.961 . S
C1683 H1671 0.959 . S
C1683 C1681 1.561 . S
C1684 C1681 1.526 1_455 S
C1684 C1685 1.396 1_556 S
C1684 C1689 1.390 . S
C1685 C1679 1.465 1_455 S
C1685 C1684 1.396 1_554 S
C1685 C1686 1.399 . S
C1686 H1672 0.929 . S
C1686 C1685 1.399 . S
C1686 C1687 1.385 . S
C1687 H1673 0.931 . S
C1687 C1686 1.385 . S
C1687 C1688 1.389 1_554 S
C1688 C1687 1.389 1_556 S
C1688 C1689 1.387 . S
C1689 H1674 0.930 . S
C1689 C1684 1.390 . S
C1689 C1688 1.387 . S
H1690 C1702 0.930 . S
H1691 C1704 0.930 . S
H1692 C1705 0.930 . S
H1693 C1709 0.959 . S
H1694 C1709 0.959 . S
H1695 C1709 0.961 . S
H1696 C1710 0.960 . S
H1697 C1710 0.961 . S
H1698 C1710 0.959 . S
H1699 C1713 0.929 . S
H1700 C1714 0.931 . S
H1701 C1716 0.930 . S
C1702 H1690 0.930 . S
C1702 C1703 1.399 . S
C1702 C1707 1.399 . S
C1703 C1702 1.399 . S
C1703 C1704 1.376 1_556 S
C1704 H1691 0.930 . S
C1704 C1703 1.376 1_554 S
C1704 C1705 1.388 . S
C1705 H1692 0.930 . S
C1705 C1704 1.388 . S
C1705 C1706 1.390 . S
C1706 C1705 1.390 . S
C1706 C1707 1.394 1_554 S
C1706 C1712 1.465 . S
C1707 C1702 1.399 . S
C1707 C1706 1.394 1_556 S
C1707 C1708 1.516 . S
C1708 C1707 1.516 . S
C1708 C1709 1.502 . S
C1708 C1710 1.561 . S
C1708 C1711 1.526 . S
C1709 H1693 0.959 . S
C1709 H1694 0.959 . S
C1709 H1695 0.961 . S
C1709 C1708 1.502 . S
C1710 H1696 0.960 . S
C1710 H1697 0.961 . S
C1710 H1698 0.959 . S
C1710 C1708 1.561 . S
C1711 C1708 1.526 . S
C1711 C1712 1.396 1_556 S
C1711 C1716 1.390 . S
C1712 C1706 1.465 . S
C1712 C1711 1.396 1_554 S
C1712 C1713 1.399 . S
C1713 H1699 0.929 . S
C1713 C1712 1.399 . S
C1713 C1714 1.385 . S
C1714 H1700 0.931 . S
C1714 C1713 1.385 . S
C1714 C1715 1.389 . S
C1715 C1714 1.389 . S
C1715 C1716 1.387 1_554 S
C1716 H1701 0.930 . S
C1716 C1711 1.390 . S
C1716 C1715 1.387 1_556 S
H1717 C1729 0.930 . S
H1718 C1731 0.930 . S
H1719 C1732 0.930 . S
H1720 C1736 0.959 1_455 S
H1721 C1736 0.959 . S
H1722 C1736 0.961 . S
H1723 C1737 0.960 . S
H1724 C1737 0.961 . S
H1725 C1737 0.959 . S
H1726 C1740 0.921 1_455 S
H1727 C1741 0.931 . S
H1728 C1743 0.930 . S
C1729 H1717 0.930 . S
C1729 C1730 1.399 . S
C1729 C1734 1.399 . S
C1730 C1729 1.399 . S
C1730 C1731 1.376 . S
C1731 H1718 0.930 . S
C1731 C1730 1.376 . S
C1731 C1732 1.388 . S
C1732 H1719 0.930 . S
C1732 C1731 1.388 . S
C1732 C1733 1.390 . S
C1733 C1732 1.390 . S
C1733 C1734 1.394 . S
C1733 C1739 1.465 1_455 S
C1734 C1729 1.399 . S
C1734 C1733 1.394 . S
C1734 C1735 1.516 1_455 S
C1735 C1734 1.516 1_655 S
C1735 C1736 1.502 . S
C1735 C1737 1.561 . S
C1735 C1738 1.526 . S
C1736 H1720 0.959 1_655 S
C1736 H1721 0.959 . S
C1736 H1722 0.961 . S
C1736 C1735 1.502 . S
C1737 H1723 0.960 . S
C1737 H1724 0.961 . S
C1737 H1725 0.959 . S
C1737 C1735 1.561 . S
C1738 C1735 1.526 . S
C1738 C1739 1.396 . S
C1738 C1743 1.390 . S
C1739 C1733 1.465 1_655 S
C1739 C1738 1.396 . S
C1739 C1740 1.400 . S
C1740 H1726 0.921 1_655 S
C1740 C1739 1.400 . S
C1740 C1741 1.393 . S
C1741 H1727 0.931 . S
C1741 C1740 1.393 . S
C1741 C1742 1.389 . S
C1742 C1741 1.389 . S
C1742 C1743 1.387 . S
C1743 H1728 0.930 . S
C1743 C1738 1.390 . S
C1743 C1742 1.387 . S
H1744 C1756 0.930 . S
H1745 C1758 0.930 . S
H1746 C1759 0.930 . S
H1747 C1763 0.959 . S
H1748 C1763 0.959 . S
H1749 C1763 0.961 . S
H1750 C1764 0.960 . S
H1751 C1764 0.961 . S
H1752 C1764 0.959 . S
H1753 C1767 0.929 . S
H1754 C1768 0.931 . S
H1755 C1770 0.930 . S
C1756 H1744 0.930 . S
C1756 C1757 1.399 . S
C1756 C1761 1.399 . S
C1757 C1756 1.399 . S
C1757 C1758 1.376 . S
C1758 H1745 0.930 . S
C1758 C1757 1.376 . S
C1758 C1759 1.388 . S
C1759 H1746 0.930 . S
C1759 C1758 1.388 . S
C1759 C1760 1.390 . S
C1760 C1759 1.390 . S
C1760 C1761 1.394 . S
C1760 C1766 1.465 . S
C1761 C1756 1.399 . S
C1761 C1760 1.394 . S
C1761 C1762 1.516 . S
C1762 C1761 1.516 . S
C1762 C1763 1.502 . S
C1762 C1764 1.561 . S
C1762 C1765 1.526 . S
C1763 H1747 0.959 . S
C1763 H1748 0.959 . S
C1763 H1749 0.961 . S
C1763 C1762 1.502 . S
C1764 H1750 0.960 . S
C1764 H1751 0.961 . S
C1764 H1752 0.959 . S
C1764 C1762 1.561 . S
C1765 C1762 1.526 . S
C1765 C1766 1.396 . S
C1765 C1770 1.390 . S
C1766 C1760 1.465 . S
C1766 C1765 1.396 . S
C1766 C1767 1.399 . S
C1767 H1753 0.929 . S
C1767 C1766 1.399 . S
C1767 C1768 1.385 . S
C1768 H1754 0.931 . S
C1768 C1767 1.385 . S
C1768 C1769 1.389 . S
C1769 C1768 1.389 . S
C1769 C1770 1.387 . S
C1770 H1755 0.930 . S
C1770 C1765 1.390 . S
C1770 C1769 1.387 . S
H1771 C1783 0.930 . S
H1772 C1785 0.930 . S
H1773 C1786 0.930 . S
H1774 C1790 0.959 . S
H1775 C1790 0.959 . S
H1776 C1790 0.961 . S
H1777 C1791 0.960 . S
H1778 C1791 0.961 . S
H1779 C1791 0.959 . S
H1780 C1794 0.929 . S
H1781 C1795 0.931 . S
H1782 C1797 0.930 . S
C1783 H1771 0.930 . S
C1783 C1784 1.399 . S
C1783 C1788 1.399 . S
C1784 C1783 1.399 . S
C1784 C1785 1.376 . S
C1785 H1772 0.930 . S
C1785 C1784 1.376 . S
C1785 C1786 1.388 . S
C1786 H1773 0.930 . S
C1786 C1785 1.388 . S
C1786 C1787 1.390 . S
C1787 C1786 1.390 . S
C1787 C1788 1.394 . S
C1787 C1793 1.465 . S
C1788 C1783 1.399 . S
C1788 C1787 1.394 . S
C1788 C1789 1.516 . S
C1789 C1788 1.516 . S
C1789 C1790 1.502 . S
C1789 C1791 1.561 . S
C1789 C1792 1.526 . S
C1790 H1774 0.959 . S
C1790 H1775 0.959 . S
C1790 H1776 0.961 . S
C1790 C1789 1.502 . S
C1791 H1777 0.960 . S
C1791 H1778 0.961 . S
C1791 H1779 0.959 . S
C1791 C1789 1.561 . S
C1792 C1789 1.526 . S
C1792 C1793 1.396 . S
C1792 C1797 1.390 . S
C1793 C1787 1.465 . S
C1793 C1792 1.396 . S
C1793 C1794 1.399 . S
C1794 H1780 0.929 . S
C1794 C1793 1.399 . S
C1794 C1795 1.385 . S
C1795 H1781 0.931 . S
C1795 C1794 1.385 . S
C1795 C1796 1.389 . S
C1796 C1795 1.389 . S
C1796 C1797 1.387 . S
C1797 H1782 0.930 . S
C1797 C1792 1.390 . S
C1797 C1796 1.387 . S
H1798 C1810 0.930 . S
H1799 C1812 0.930 . S
H1800 C1813 0.930 . S
H1801 C1817 0.959 . S
H1802 C1817 0.959 . S
H1803 C1817 0.961 . S
H1804 C1818 0.960 . S
H1805 C1818 0.961 . S
H1806 C1818 0.959 . S
H1807 C1821 0.929 . S
H1808 C1822 0.931 . S
H1809 C1824 0.930 . S
C1810 H1798 0.930 . S
C1810 C1811 1.399 . S
C1810 C1815 1.399 . S
C1811 C1810 1.399 . S
C1811 C1812 1.376 . S
C1812 H1799 0.930 . S
C1812 C1811 1.376 . S
C1812 C1813 1.388 . S
C1813 H1800 0.930 . S
C1813 C1812 1.388 . S
C1813 C1814 1.390 . S
C1814 C1813 1.390 . S
C1814 C1815 1.394 . S
C1814 C1820 1.465 . S
C1815 C1810 1.399 . S
C1815 C1814 1.394 . S
C1815 C1816 1.516 . S
C1816 C1815 1.516 . S
C1816 C1817 1.502 . S
C1816 C1818 1.561 . S
C1816 C1819 1.526 . S
C1817 H1801 0.959 . S
C1817 H1802 0.959 . S
C1817 H1803 0.961 . S
C1817 C1816 1.502 . S
C1818 H1804 0.960 . S
C1818 H1805 0.961 . S
C1818 H1806 0.959 . S
C1818 C1816 1.561 . S
C1819 C1816 1.526 . S
C1819 C1820 1.396 . S
C1819 C1824 1.390 . S
C1820 C1814 1.465 . S
C1820 C1819 1.396 . S
C1820 C1821 1.399 . S
C1821 H1807 0.929 . S
C1821 C1820 1.399 . S
C1821 C1822 1.385 . S
C1822 H1808 0.931 . S
C1822 C1821 1.385 . S
C1822 C1823 1.389 . S
C1823 C1822 1.389 . S
C1823 C1824 1.387 . S
C1824 H1809 0.930 . S
C1824 C1819 1.390 . S
C1824 C1823 1.387 . S
H1825 C1837 0.930 . S
H1826 C1839 0.930 . S
H1827 C1840 0.930 . S
H1828 C1844 0.959 . S
H1829 C1844 0.959 . S
H1830 C1844 0.961 . S
H1831 C1845 0.960 . S
H1832 C1845 0.961 . S
H1833 C1845 0.959 . S
H1834 C1848 0.929 . S
H1835 C1849 0.931 . S
H1836 C1851 0.930 . S
C1837 H1825 0.930 . S
C1837 C1838 1.399 . S
C1837 C1842 1.399 . S
C1838 C1837 1.399 . S
C1838 C1839 1.376 . S
C1839 H1826 0.930 . S
C1839 C1838 1.376 . S
C1839 C1840 1.388 . S
C1840 H1827 0.930 . S
C1840 C1839 1.388 . S
C1840 C1841 1.390 . S
C1841 C1840 1.390 . S
C1841 C1842 1.394 . S
C1841 C1847 1.465 . S
C1842 C1837 1.399 . S
C1842 C1841 1.394 . S
C1842 C1843 1.516 . S
C1843 C1842 1.516 . S
C1843 C1844 1.502 . S
C1843 C1845 1.561 . S
C1843 C1846 1.526 . S
C1844 H1828 0.959 . S
C1844 H1829 0.959 . S
C1844 H1830 0.961 . S
C1844 C1843 1.502 . S
C1845 H1831 0.960 . S
C1845 H1832 0.961 . S
C1845 H1833 0.959 . S
C1845 C1843 1.561 . S
C1846 C1843 1.526 . S
C1846 C1847 1.396 . S
C1846 C1851 1.390 . S
C1847 C1841 1.465 . S
C1847 C1846 1.396 . S
C1847 C1848 1.399 . S
C1848 H1834 0.929 . S
C1848 C1847 1.399 . S
C1848 C1849 1.385 . S
C1849 H1835 0.931 . S
C1849 C1848 1.385 . S
C1849 C1850 1.389 . S
C1850 C1849 1.389 . S
C1850 C1851 1.387 . S
C1851 H1836 0.930 . S
C1851 C1846 1.390 . S
C1851 C1850 1.387 . S
H1852 C1864 0.930 . S
H1853 C1866 0.930 . S
H1854 C1867 0.930 . S
H1855 C1871 0.959 . S
H1856 C1871 0.959 . S
H1857 C1871 0.961 . S
H1858 C1872 0.960 . S
H1859 C1872 0.961 . S
H1860 C1872 0.959 . S
H1861 C1875 0.929 . S
H1862 C1876 0.931 . S
H1863 C1878 0.930 . S
C1864 H1852 0.930 . S
C1864 C1865 1.399 . S
C1864 C1869 1.399 . S
C1865 C1864 1.399 . S
C1865 C1866 1.376 . S
C1866 H1853 0.930 . S
C1866 C1865 1.376 . S
C1866 C1867 1.388 . S
C1867 H1854 0.930 . S
C1867 C1866 1.388 . S
C1867 C1868 1.390 . S
C1868 C1867 1.390 . S
C1868 C1869 1.394 . S
C1868 C1874 1.465 . S
C1869 C1864 1.399 . S
C1869 C1868 1.394 . S
C1869 C1870 1.516 . S
C1870 C1869 1.516 . S
C1870 C1871 1.502 . S
C1870 C1872 1.561 . S
C1870 C1873 1.526 . S
C1871 H1855 0.959 . S
C1871 H1856 0.959 . S
C1871 H1857 0.961 . S
C1871 C1870 1.502 . S
C1872 H1858 0.960 . S
C1872 H1859 0.961 . S
C1872 H1860 0.959 . S
C1872 C1870 1.561 . S
C1873 C1870 1.526 . S
C1873 C1874 1.396 . S
C1873 C1878 1.390 . S
C1874 C1868 1.465 . S
C1874 C1873 1.396 . S
C1874 C1875 1.399 . S
C1875 H1861 0.929 . S
C1875 C1874 1.399 . S
C1875 C1876 1.385 . S
C1876 H1862 0.931 . S
C1876 C1875 1.385 . S
C1876 C1877 1.389 . S
C1877 C1876 1.389 . S
C1877 C1878 1.387 . S
C1878 H1863 0.930 . S
C1878 C1873 1.390 . S
C1878 C1877 1.387 . S
H1879 C1891 0.930 . S
H1880 C1893 0.930 . S
H1881 C1894 0.930 . S
H1882 C1898 0.959 . S
H1883 C1898 0.959 . S
H1884 C1898 0.961 . S
H1885 C1899 0.960 . S
H1886 C1899 0.961 . S
H1887 C1899 0.959 . S
H1888 C1902 0.929 . S
H1889 C1903 0.931 . S
H1890 C1905 0.930 . S
C1891 H1879 0.930 . S
C1891 C1892 1.399 . S
C1891 C1896 1.399 . S
C1892 C1891 1.399 . S
C1892 C1893 1.376 . S
C1893 H1880 0.930 . S
C1893 C1892 1.376 . S
C1893 C1894 1.388 . S
C1894 H1881 0.930 . S
C1894 C1893 1.388 . S
C1894 C1895 1.390 . S
C1895 C1894 1.390 . S
C1895 C1896 1.394 . S
C1895 C1901 1.465 . S
C1896 C1891 1.399 . S
C1896 C1895 1.394 . S
C1896 C1897 1.516 . S
C1897 C1896 1.516 . S
C1897 C1898 1.502 . S
C1897 C1899 1.561 . S
C1897 C1900 1.526 . S
C1898 H1882 0.959 . S
C1898 H1883 0.959 . S
C1898 H1884 0.961 . S
C1898 C1897 1.502 . S
C1899 H1885 0.960 . S
C1899 H1886 0.961 . S
C1899 H1887 0.959 . S
C1899 C1897 1.561 . S
C1900 C1897 1.526 . S
C1900 C1901 1.396 . S
C1900 C1905 1.390 . S
C1901 C1895 1.465 . S
C1901 C1900 1.396 . S
C1901 C1902 1.399 . S
C1902 H1888 0.929 . S
C1902 C1901 1.399 . S
C1902 C1903 1.385 . S
C1903 H1889 0.931 . S
C1903 C1902 1.385 . S
C1903 C1904 1.389 . S
C1904 C1903 1.389 . S
C1904 C1905 1.387 . S
C1905 H1890 0.930 . S
C1905 C1900 1.390 . S
C1905 C1904 1.387 . S
H1906 C1918 0.930 . S
H1907 C1920 0.930 . S
H1908 C1921 0.930 . S
H1909 C1925 0.959 . S
H1910 C1925 0.959 . S
H1911 C1925 0.961 . S
H1912 C1926 0.960 . S
H1913 C1926 0.961 . S
H1914 C1926 0.959 . S
H1915 C1929 0.929 . S
H1916 C1930 0.931 . S
H1917 C1932 0.930 . S
C1918 H1906 0.930 . S
C1918 C1919 1.399 . S
C1918 C1923 1.399 . S
C1919 C1918 1.399 . S
C1919 C1920 1.376 . S
C1920 H1907 0.930 . S
C1920 C1919 1.376 . S
C1920 C1921 1.388 . S
C1921 H1908 0.930 . S
C1921 C1920 1.388 . S
C1921 C1922 1.390 . S
C1922 C1921 1.390 . S
C1922 C1923 1.394 . S
C1922 C1928 1.465 . S
C1923 C1918 1.399 . S
C1923 C1922 1.394 . S
C1923 C1924 1.516 . S
C1924 C1923 1.516 . S
C1924 C1925 1.502 . S
C1924 C1926 1.561 . S
C1924 C1927 1.526 . S
C1925 H1909 0.959 . S
C1925 H1910 0.959 . S
C1925 H1911 0.961 . S
C1925 C1924 1.502 . S
C1926 H1912 0.960 . S
C1926 H1913 0.961 . S
C1926 H1914 0.959 . S
C1926 C1924 1.561 . S
C1927 C1924 1.526 . S
C1927 C1928 1.396 . S
C1927 C1932 1.390 . S
C1928 C1922 1.465 . S
C1928 C1927 1.396 . S
C1928 C1929 1.399 . S
C1929 H1915 0.929 . S
C1929 C1928 1.399 . S
C1929 C1930 1.385 . S
C1930 H1916 0.931 . S
C1930 C1929 1.385 . S
C1930 C1931 1.389 . S
C1931 C1930 1.389 . S
C1931 C1932 1.387 . S
C1932 H1917 0.930 . S
C1932 C1927 1.390 . S
C1932 C1931 1.387 . S
H1933 C1945 0.930 . S
H1934 C1947 0.930 . S
H1935 C1948 0.930 . S
H1936 C1952 0.959 . S
H1937 C1952 0.959 . S
H1938 C1952 0.961 . S
H1939 C1953 0.960 . S
H1940 C1953 0.961 . S
H1941 C1953 0.959 . S
H1942 C1956 0.929 . S
H1943 C1957 0.931 . S
H1944 C1959 0.930 . S
C1945 H1933 0.930 . S
C1945 C1946 1.399 . S
C1945 C1950 1.399 . S
C1946 C1945 1.399 . S
C1946 C1947 1.376 . S
C1947 H1934 0.930 . S
C1947 C1946 1.376 . S
C1947 C1948 1.388 . S
C1948 H1935 0.930 . S
C1948 C1947 1.388 . S
C1948 C1949 1.390 . S
C1949 C1948 1.390 . S
C1949 C1950 1.394 . S
C1949 C1955 1.465 . S
C1950 C1945 1.399 . S
C1950 C1949 1.394 . S
C1950 C1951 1.516 . S
C1951 C1950 1.516 . S
C1951 C1952 1.502 . S
C1951 C1953 1.561 . S
C1951 C1954 1.526 . S
C1952 H1936 0.959 . S
C1952 H1937 0.959 . S
C1952 H1938 0.961 . S
C1952 C1951 1.502 . S
C1953 H1939 0.960 . S
C1953 H1940 0.961 . S
C1953 H1941 0.959 . S
C1953 C1951 1.561 . S
C1954 C1951 1.526 . S
C1954 C1955 1.396 . S
C1954 C1959 1.390 . S
C1955 C1949 1.465 . S
C1955 C1954 1.396 . S
C1955 C1956 1.399 . S
C1956 H1942 0.929 . S
C1956 C1955 1.399 . S
C1956 C1957 1.385 . S
C1957 H1943 0.931 . S
C1957 C1956 1.385 . S
C1957 C1958 1.389 . S
C1958 C1957 1.389 . S
C1958 C1959 1.387 . S
C1959 H1944 0.930 . S
C1959 C1954 1.390 . S
C1959 C1958 1.387 . S
H1960 C1972 0.930 . S
H1961 C1974 0.930 . S
H1962 C1975 0.930 . S
H1963 C1979 0.959 . S
H1964 C1979 0.959 . S
H1965 C1979 0.961 . S
H1966 C1980 0.960 . S
H1967 C1980 0.961 . S
H1968 C1980 0.959 . S
H1969 C1983 0.929 . S
H1970 C1984 0.931 . S
H1971 C1986 0.930 . S
C1972 H1960 0.930 . S
C1972 C1973 1.399 . S
C1972 C1977 1.399 . S
C1973 C1972 1.399 . S
C1973 C1974 1.376 . S
C1974 H1961 0.930 . S
C1974 C1973 1.376 . S
C1974 C1975 1.388 . S
C1975 H1962 0.930 . S
C1975 C1974 1.388 . S
C1975 C1976 1.390 . S
C1976 C1975 1.390 . S
C1976 C1977 1.394 . S
C1976 C1982 1.465 . S
C1977 C1972 1.399 . S
C1977 C1976 1.394 . S
C1977 C1978 1.516 . S
C1978 C1977 1.516 . S
C1978 C1979 1.502 . S
C1978 C1980 1.561 . S
C1978 C1981 1.526 . S
C1979 H1963 0.959 . S
C1979 H1964 0.959 . S
C1979 H1965 0.961 . S
C1979 C1978 1.502 . S
C1980 H1966 0.960 . S
C1980 H1967 0.961 . S
C1980 H1968 0.959 . S
C1980 C1978 1.561 . S
C1981 C1978 1.526 . S
C1981 C1982 1.396 . S
C1981 C1986 1.390 . S
C1982 C1976 1.465 . S
C1982 C1981 1.396 . S
C1982 C1983 1.399 . S
C1983 H1969 0.929 . S
C1983 C1982 1.399 . S
C1983 C1984 1.385 . S
C1984 H1970 0.931 . S
C1984 C1983 1.385 . S
C1984 C1985 1.389 . S
C1985 C1984 1.389 . S
C1985 C1986 1.387 . S
C1986 H1971 0.930 . S
C1986 C1981 1.390 . S
C1986 C1985 1.387 . S
H1987 C1999 0.930 . S
H1988 C2001 0.930 . S
H1989 C2002 0.930 . S
H1990 C2006 0.959 . S
H1991 C2006 0.959 . S
H1992 C2006 0.961 . S
H1993 C2007 0.960 . S
H1994 C2007 0.961 . S
H1995 C2007 0.959 . S
H1996 C2010 0.929 . S
H1997 C2011 0.931 . S
H1998 C2013 0.930 . S
C1999 H1987 0.930 . S
C1999 C2000 1.399 . S
C1999 C2004 1.399 . S
C2000 C1999 1.399 . S
C2000 C2001 1.376 . S
C2001 H1988 0.930 . S
C2001 C2000 1.376 . S
C2001 C2002 1.388 . S
C2002 H1989 0.930 . S
C2002 C2001 1.388 . S
C2002 C2003 1.390 . S
C2003 C2002 1.390 . S
C2003 C2004 1.394 . S
C2003 C2009 1.465 . S
C2004 C1999 1.399 . S
C2004 C2003 1.394 . S
C2004 C2005 1.516 . S
C2005 C2004 1.516 . S
C2005 C2006 1.502 . S
C2005 C2007 1.561 . S
C2005 C2008 1.526 . S
C2006 H1990 0.959 . S
C2006 H1991 0.959 . S
C2006 H1992 0.961 . S
C2006 C2005 1.502 . S
C2007 H1993 0.960 . S
C2007 H1994 0.961 . S
C2007 H1995 0.959 . S
C2007 C2005 1.561 . S
C2008 C2005 1.526 . S
C2008 C2009 1.396 . S
C2008 C2013 1.390 . S
C2009 C2003 1.465 . S
C2009 C2008 1.396 . S
C2009 C2010 1.399 . S
C2010 H1996 0.929 . S
C2010 C2009 1.399 . S
C2010 C2011 1.385 . S
C2011 H1997 0.931 . S
C2011 C2010 1.385 . S
C2011 C2012 1.389 . S
C2012 C2011 1.389 . S
C2012 C2013 1.387 . S
C2013 H1998 0.930 . S
C2013 C2008 1.390 . S
C2013 C2012 1.387 . S
H2014 C2026 0.930 . S
H2015 C2028 0.930 . S
H2016 C2029 0.930 . S
H2017 C2033 0.959 . S
H2018 C2033 0.959 . S
H2019 C2033 0.961 . S
H2020 C2034 0.960 . S
H2021 C2034 0.961 . S
H2022 C2034 0.959 . S
H2023 C2037 0.929 . S
H2024 C2038 0.931 . S
H2025 C2040 0.930 . S
C2026 H2014 0.930 . S
C2026 C2027 1.399 . S
C2026 C2031 1.399 . S
C2027 C2026 1.399 . S
C2027 C2028 1.376 . S
C2028 H2015 0.930 . S
C2028 C2027 1.376 . S
C2028 C2029 1.388 . S
C2029 H2016 0.930 . S
C2029 C2028 1.388 . S
C2029 C2030 1.390 . S
C2030 C2029 1.390 . S
C2030 C2031 1.394 . S
C2030 C2036 1.465 . S
C2031 C2026 1.399 . S
C2031 C2030 1.394 . S
C2031 C2032 1.516 . S
C2032 C2031 1.516 . S
C2032 C2033 1.502 . S
C2032 C2034 1.561 . S
C2032 C2035 1.526 . S
C2033 H2017 0.959 . S
C2033 H2018 0.959 . S
C2033 H2019 0.961 . S
C2033 C2032 1.502 . S
C2034 H2020 0.960 . S
C2034 H2021 0.961 . S
C2034 H2022 0.959 . S
C2034 C2032 1.561 . S
C2035 C2032 1.526 . S
C2035 C2036 1.396 . S
C2035 C2040 1.390 . S
C2036 C2030 1.465 . S
C2036 C2035 1.396 . S
C2036 C2037 1.399 . S
C2037 H2023 0.929 . S
C2037 C2036 1.399 . S
C2037 C2038 1.385 . S
C2038 H2024 0.931 . S
C2038 C2037 1.385 . S
C2038 C2039 1.389 . S
C2039 C2038 1.389 . S
C2039 C2040 1.387 . S
C2040 H2025 0.930 . S
C2040 C2035 1.390 . S
C2040 C2039 1.387 . S
H2041 C2053 0.930 . S
H2042 C2055 0.930 . S
H2043 C2056 0.930 . S
H2044 C2060 0.959 . S
H2045 C2060 0.959 . S
H2046 C2060 0.961 . S
H2047 C2061 0.960 . S
H2048 C2061 0.961 . S
H2049 C2061 0.959 . S
H2050 C2064 0.929 . S
H2051 C2065 0.931 . S
H2052 C2067 0.930 . S
C2053 H2041 0.930 . S
C2053 C2054 1.399 . S
C2053 C2058 1.399 . S
C2054 C2053 1.399 . S
C2054 C2055 1.376 . S
C2055 H2042 0.930 . S
C2055 C2054 1.376 . S
C2055 C2056 1.388 . S
C2056 H2043 0.930 . S
C2056 C2055 1.388 . S
C2056 C2057 1.390 . S
C2057 C2056 1.390 . S
C2057 C2058 1.394 . S
C2057 C2063 1.465 . S
C2058 C2053 1.399 . S
C2058 C2057 1.394 . S
C2058 C2059 1.516 . S
C2059 C2058 1.516 . S
C2059 C2060 1.502 . S
C2059 C2061 1.561 . S
C2059 C2062 1.526 . S
C2060 H2044 0.959 . S
C2060 H2045 0.959 . S
C2060 H2046 0.961 . S
C2060 C2059 1.502 . S
C2061 H2047 0.960 . S
C2061 H2048 0.961 . S
C2061 H2049 0.959 . S
C2061 C2059 1.561 . S
C2062 C2059 1.526 . S
C2062 C2063 1.396 . S
C2062 C2067 1.390 . S
C2063 C2057 1.465 . S
C2063 C2062 1.396 . S
C2063 C2064 1.399 . S
C2064 H2050 0.929 . S
C2064 C2063 1.399 . S
C2064 C2065 1.385 . S
C2065 H2051 0.931 . S
C2065 C2064 1.385 . S
C2065 C2066 1.389 . S
C2066 C2065 1.389 . S
C2066 C2067 1.387 . S
C2067 H2052 0.930 . S
C2067 C2062 1.390 . S
C2067 C2066 1.387 . S
H2068 C2080 0.930 . S
H2069 C2082 0.930 . S
H2070 C2083 0.930 . S
H2071 C2087 0.959 . S
H2072 C2087 0.959 . S
H2073 C2087 0.961 . S
H2074 C2088 0.960 . S
H2075 C2088 0.961 . S
H2076 C2088 0.959 . S
H2077 C2091 0.929 . S
H2078 C2092 0.931 . S
H2079 C2094 0.930 . S
C2080 H2068 0.930 . S
C2080 C2081 1.399 . S
C2080 C2085 1.399 . S
C2081 C2080 1.399 . S
C2081 C2082 1.376 . S
C2082 H2069 0.930 . S
C2082 C2081 1.376 . S
C2082 C2083 1.388 . S
C2083 H2070 0.930 . S
C2083 C2082 1.388 . S
C2083 C2084 1.390 . S
C2084 C2083 1.390 . S
C2084 C2085 1.394 . S
C2084 C2090 1.465 . S
C2085 C2080 1.399 . S
C2085 C2084 1.394 . S
C2085 C2086 1.516 . S
C2086 C2085 1.516 . S
C2086 C2087 1.502 . S
C2086 C2088 1.561 . S
C2086 C2089 1.526 . S
C2087 H2071 0.959 . S
C2087 H2072 0.959 . S
C2087 H2073 0.961 . S
C2087 C2086 1.502 . S
C2088 H2074 0.960 . S
C2088 H2075 0.961 . S
C2088 H2076 0.959 . S
C2088 C2086 1.561 . S
C2089 C2086 1.526 . S
C2089 C2090 1.396 . S
C2089 C2094 1.390 . S
C2090 C2084 1.465 . S
C2090 C2089 1.396 . S
C2090 C2091 1.399 . S
C2091 H2077 0.929 . S
C2091 C2090 1.399 . S
C2091 C2092 1.385 . S
C2092 H2078 0.931 . S
C2092 C2091 1.385 . S
C2092 C2093 1.389 . S
C2093 C2092 1.389 . S
C2093 C2094 1.387 . S
C2094 H2079 0.930 . S
C2094 C2089 1.390 . S
C2094 C2093 1.387 . S
H2095 C2107 0.930 . S
H2096 C2109 0.930 . S
H2097 C2110 0.930 . S
H2098 C2114 0.959 . S
H2099 C2114 0.959 . S
H2100 C2114 0.961 . S
H2101 C2115 0.960 . S
H2102 C2115 0.961 . S
H2103 C2115 0.959 . S
H2104 C2118 0.929 . S
H2105 C2119 0.931 . S
H2106 C2121 0.930 . S
C2107 H2095 0.930 . S
C2107 C2108 1.399 . S
C2107 C2112 1.399 . S
C2108 C2107 1.399 . S
C2108 C2109 1.376 . S
C2109 H2096 0.930 . S
C2109 C2108 1.376 . S
C2109 C2110 1.388 . S
C2110 H2097 0.930 . S
C2110 C2109 1.388 . S
C2110 C2111 1.390 . S
C2111 C2110 1.390 . S
C2111 C2112 1.394 . S
C2111 C2117 1.465 . S
C2112 C2107 1.399 . S
C2112 C2111 1.394 . S
C2112 C2113 1.516 . S
C2113 C2112 1.516 . S
C2113 C2114 1.502 . S
C2113 C2115 1.561 . S
C2113 C2116 1.526 . S
C2114 H2098 0.959 . S
C2114 H2099 0.959 . S
C2114 H2100 0.961 . S
C2114 C2113 1.502 . S
C2115 H2101 0.960 . S
C2115 H2102 0.961 . S
C2115 H2103 0.959 . S
C2115 C2113 1.561 . S
C2116 C2113 1.526 . S
C2116 C2117 1.396 . S
C2116 C2121 1.390 . S
C2117 C2111 1.465 . S
C2117 C2116 1.396 . S
C2117 C2118 1.399 . S
C2118 H2104 0.929 . S
C2118 C2117 1.399 . S
C2118 C2119 1.385 . S
C2119 H2105 0.931 . S
C2119 C2118 1.385 . S
C2119 C2120 1.389 . S
C2120 C2119 1.389 . S
C2120 C2121 1.387 . S
C2121 H2106 0.930 . S
C2121 C2116 1.390 . S
C2121 C2120 1.387 . S
H2122 C2134 0.930 . S
H2123 C2136 0.930 . S
H2124 C2137 0.930 . S
H2125 C2141 0.959 . S
H2126 C2141 0.959 . S
H2127 C2141 0.961 . S
H2128 C2142 0.960 . S
H2129 C2142 0.961 . S
H2130 C2142 0.959 . S
H2131 C2145 0.929 . S
H2132 C2146 0.931 . S
H2133 C2148 0.930 . S
C2134 H2122 0.930 . S
C2134 C2135 1.399 . S
C2134 C2139 1.399 . S
C2135 C2134 1.399 . S
C2135 C2136 1.376 . S
C2136 H2123 0.930 . S
C2136 C2135 1.376 . S
C2136 C2137 1.388 . S
C2137 H2124 0.930 . S
C2137 C2136 1.388 . S
C2137 C2138 1.390 . S
C2138 C2137 1.390 . S
C2138 C2139 1.394 . S
C2138 C2144 1.465 . S
C2139 C2134 1.399 . S
C2139 C2138 1.394 . S
C2139 C2140 1.516 . S
C2140 C2139 1.516 . S
C2140 C2141 1.502 . S
C2140 C2142 1.561 . S
C2140 C2143 1.526 . S
C2141 H2125 0.959 . S
C2141 H2126 0.959 . S
C2141 H2127 0.961 . S
C2141 C2140 1.502 . S
C2142 H2128 0.960 . S
C2142 H2129 0.961 . S
C2142 H2130 0.959 . S
C2142 C2140 1.561 . S
C2143 C2140 1.526 . S
C2143 C2144 1.396 . S
C2143 C2148 1.390 . S
C2144 C2138 1.465 . S
C2144 C2143 1.396 . S
C2144 C2145 1.399 . S
C2145 H2131 0.929 . S
C2145 C2144 1.399 . S
C2145 C2146 1.385 . S
C2146 H2132 0.931 . S
C2146 C2145 1.385 . S
C2146 C2147 1.389 . S
C2147 C2146 1.389 . S
C2147 C2148 1.387 . S
C2148 H2133 0.930 . S
C2148 C2143 1.390 . S
C2148 C2147 1.387 . S
H2149 C2161 0.930 . S
H2150 C2163 0.930 . S
H2151 C2164 0.930 . S
H2152 C2168 0.959 . S
H2153 C2168 0.959 . S
H2154 C2168 0.961 . S
H2155 C2169 0.960 . S
H2156 C2169 0.961 . S
H2157 C2169 0.959 . S
H2158 C2172 0.929 . S
H2159 C2173 0.931 . S
H2160 C2175 0.930 . S
C2161 H2149 0.930 . S
C2161 C2162 1.399 . S
C2161 C2166 1.399 . S
C2162 C2161 1.399 . S
C2162 C2163 1.376 . S
C2163 H2150 0.930 . S
C2163 C2162 1.376 . S
C2163 C2164 1.388 . S
C2164 H2151 0.930 . S
C2164 C2163 1.388 . S
C2164 C2165 1.390 . S
C2165 C2164 1.390 . S
C2165 C2166 1.394 . S
C2165 C2171 1.465 . S
C2166 C2161 1.399 . S
C2166 C2165 1.394 . S
C2166 C2167 1.516 . S
C2167 C2166 1.516 . S
C2167 C2168 1.502 . S
C2167 C2169 1.561 . S
C2167 C2170 1.526 . S
C2168 H2152 0.959 . S
C2168 H2153 0.959 . S
C2168 H2154 0.961 . S
C2168 C2167 1.502 . S
C2169 H2155 0.960 . S
C2169 H2156 0.961 . S
C2169 H2157 0.959 . S
C2169 C2167 1.561 . S
C2170 C2167 1.526 . S
C2170 C2171 1.396 . S
C2170 C2175 1.390 . S
C2171 C2165 1.465 . S
C2171 C2170 1.396 . S
C2171 C2172 1.399 . S
C2172 H2158 0.929 . S
C2172 C2171 1.399 . S
C2172 C2173 1.385 . S
C2173 H2159 0.931 . S
C2173 C2172 1.385 . S
C2173 C2174 1.389 . S
C2174 C2173 1.389 . S
C2174 C2175 1.387 . S
C2175 H2160 0.930 . S
C2175 C2170 1.390 . S
C2175 C2174 1.387 . S
C461 C177 0.999 . S
C473 C0 1.006 . S
C488 C415 0.997 . S
C500 C14 1.067 . S
C515 C205 0.996 . S
C527 C28 1.009 . S
C542 C443 1.076 . S
C554 C42 1.013 . S
C569 C121 0.993 . S
C581 C56 1.013 . S
C596 C70 1.077 . S
C608 C359 1.068 . S
C623 C84 1.081 . S
C635 C149 1.015 . S
C650 C387 1.005 . S
C662 C98 1.074 . S
C677 C65 0.995 . S
C689 C112 1.082 . S
C704 C303 1.083 . S
C716 C126 1.030 . S
C731 C93 0.996 . S
C743 C140 1.083 . S
C758 C331 1.072 . S
C770 C154 1.051 . S
C785 C168 1.025 . S
C797 C9 1.005 . S
C812 C182 0.996 . S
C824 C247 1.078 . S
C839 C37 0.998 . S
C851 C196 1.084 . S
C866 C210 0.995 . S
C878 C275 1.077 . S
C893 C401 1.081 . S
C905 C224 1.063 . S
C920 C191 1.007 . S
C932 C238 1.076 . S
C947 C429 0.997 . S
C959 C252 1.008 . S
C974 C266 1.071 . S
C986 C219 1.075 . S
C1001 C280 1.060 . S
C1013 C345 0.992 . S
C1028 C294 1.015 . S
C1040 C135 0.992 . S
C1055 C373 1.077 . S
C1067 C308 1.069 . S
C1082 C163 1.073 . S
C1094 C322 1.010 . S
C1109 C289 0.992 . S
C1121 C336 1.081 . S
C1136 C350 1.080 . S
C1148 C79 0.991 . S
C1163 C364 1.061 . S
C1175 C317 1.062 . S
C1190 C378 1.081 . S
C1202 C107 0.992 . S
C1217 C233 0.999 . S
C1229 C392 1.084 . S
C1244 C23 1.070 . S
C1256 C406 1.053 . S
C1271 C261 1.006 . S
C1283 C420 1.085 . S
C1298 C434 0.998 . S
C1310 C51 1.080 . S
C1325 C5 1.359 . S
C1337 C117 1.404 . S
C1352 C19 1.376 . S
C1364 C355 1.390 . S
C1379 C145 1.384 . S
C1391 C33 1.382 . S
C1406 C47 1.356 . S
C1418 C383 1.392 . S
C1433 C61 1.354 . S
C1445 C173 1.408 . S
C1460 C411 1.385 . S
C1472 C75 1.382 . S
C1487 C201 1.361 . S
C1499 C89 1.386 . S
C1514 C103 1.394 . S
C1526 C439 1.354 . S
C1541 C131 1.408 . S
C1553 C243 1.355 . S
C1568 C159 1.400 . S
C1580 C271 1.365 . S
C1595 C187 1.410 . S
C1607 C299 1.348 . S
C1622 C327 1.382 . S
C1634 C215 1.385 . S
C1649 C229 1.358 . S
C1661 C341 1.405 . S
C1676 C257 1.403 . S
C1688 C369 1.361 . S
C1703 C285 1.347 . S
C1715 C397 1.403 . S
C1730 C425 1.395 . S
C1742 C313 1.354 . S
C1757 C11 1.324 . S
C1769 C109 1.362 . S
C1784 C25 1.321 . S
C1796 C67 1.363 . S
C1811 C81 1.361 . S
C1823 C39 1.324 . S
C1838 C95 1.330 . S
C1850 C53 1.353 . S
C1865 C221 1.342 . S
C1877 C123 1.353 . S
C1892 C179 1.364 . S
C1904 C137 1.324 . S
C1919 C193 1.360 . S
C1931 C151 1.322 . S
C1946 C207 1.326 . S
C1958 C165 1.363 . S
C1973 C235 1.335 . S
C1985 C333 1.352 . S
C2000 C291 1.364 . S
C2012 C249 1.322 . S
C2027 C305 1.327 . S
C2039 C263 1.359 . S
C2054 C319 1.362 . S
C2066 C277 1.323 . S
C2081 C445 1.362 . S
C2093 C347 1.322 . S
C2108 C361 1.357 . S
C2120 C403 1.338 . S
C2135 C375 1.359 . S
C2147 C417 1.322 . S
C2162 C431 1.329 . S
C2174 C389 1.362 . S
