# Generated by pormake.
# Topology zfv, (5)-cn, num edge types: 1
# Building blocks:
#     Node 0, Type 0, BuildingBlock: XOMCOT_clean_sbu_0, # of connection points: 5
#     Node 1, Type 0, BuildingBlock: XOMCOT_clean_sbu_0, # of connection points: 5
#     Node 2, Type 0, BuildingBlock: XOMCOT_clean_sbu_0, # of connection points: 5
#     Node 3, Type 0, BuildingBlock: XOMCOT_clean_sbu_0, # of connection points: 5
#     Node 4, Type 0, BuildingBlock: XOMCOT_clean_sbu_0, # of connection points: 5
#     Node 5, Type 0, BuildingBlock: XOMCOT_clean_sbu_0, # of connection points: 5
#     Node 6, Type 0, BuildingBlock: XOMCOT_clean_sbu_0, # of connection points: 5
#     Node 7, Type 0, BuildingBlock: XOMCOT_clean_sbu_0, # of connection points: 5
#     Node 8, Type 0, BuildingBlock: XOMCOT_clean_sbu_0, # of connection points: 5
#     Node 9, Type 0, BuildingBlock: XOMCOT_clean_sbu_0, # of connection points: 5
#     Node 10, Type 0, BuildingBlock: XOMCOT_clean_sbu_0, # of connection points: 5
#     Node 11, Type 0, BuildingBlock: XOMCOT_clean_sbu_0, # of connection points: 5
#     Node 12, Type 0, BuildingBlock: XOMCOT_clean_sbu_0, # of connection points: 5
#     Node 13, Type 0, BuildingBlock: XOMCOT_clean_sbu_0, # of connection points: 5
#     Node 14, Type 0, BuildingBlock: XOMCOT_clean_sbu_0, # of connection points: 5
#     Node 15, Type 0, BuildingBlock: XOMCOT_clean_sbu_0, # of connection points: 5
#     Edge 16, Type (0, 0), BuildingBlock: XIVTED_clean_linker_0, # of connection points: 2
#     Edge 17, Type (0, 0), BuildingBlock: XIVTED_clean_linker_0, # of connection points: 2
#     Edge 18, Type (0, 0), BuildingBlock: XIVTED_clean_linker_0, # of connection points: 2
#     Edge 19, Type (0, 0), BuildingBlock: XIVTED_clean_linker_0, # of connection points: 2
#     Edge 20, Type (0, 0), BuildingBlock: XIVTED_clean_linker_0, # of connection points: 2
#     Edge 21, Type (0, 0), BuildingBlock: XIVTED_clean_linker_0, # of connection points: 2
#     Edge 22, Type (0, 0), BuildingBlock: XIVTED_clean_linker_0, # of connection points: 2
#     Edge 23, Type (0, 0), BuildingBlock: XIVTED_clean_linker_0, # of connection points: 2
#     Edge 24, Type (0, 0), BuildingBlock: XIVTED_clean_linker_0, # of connection points: 2
#     Edge 25, Type (0, 0), BuildingBlock: XIVTED_clean_linker_0, # of connection points: 2
#     Edge 26, Type (0, 0), BuildingBlock: XIVTED_clean_linker_0, # of connection points: 2
#     Edge 27, Type (0, 0), BuildingBlock: XIVTED_clean_linker_0, # of connection points: 2
#     Edge 28, Type (0, 0), BuildingBlock: XIVTED_clean_linker_0, # of connection points: 2
#     Edge 29, Type (0, 0), BuildingBlock: XIVTED_clean_linker_0, # of connection points: 2
#     Edge 30, Type (0, 0), BuildingBlock: XIVTED_clean_linker_0, # of connection points: 2
#     Edge 31, Type (0, 0), BuildingBlock: XIVTED_clean_linker_0, # of connection points: 2
#     Edge 32, Type (0, 0), BuildingBlock: XIVTED_clean_linker_0, # of connection points: 2
#     Edge 33, Type (0, 0), BuildingBlock: XIVTED_clean_linker_0, # of connection points: 2
#     Edge 34, Type (0, 0), BuildingBlock: XIVTED_clean_linker_0, # of connection points: 2
#     Edge 35, Type (0, 0), BuildingBlock: XIVTED_clean_linker_0, # of connection points: 2
#     Edge 36, Type (0, 0), BuildingBlock: XIVTED_clean_linker_0, # of connection points: 2
#     Edge 37, Type (0, 0), BuildingBlock: XIVTED_clean_linker_0, # of connection points: 2
#     Edge 38, Type (0, 0), BuildingBlock: XIVTED_clean_linker_0, # of connection points: 2
#     Edge 39, Type (0, 0), BuildingBlock: XIVTED_clean_linker_0, # of connection points: 2
#     Edge 40, Type (0, 0), BuildingBlock: XIVTED_clean_linker_0, # of connection points: 2
#     Edge 41, Type (0, 0), BuildingBlock: XIVTED_clean_linker_0, # of connection points: 2
#     Edge 42, Type (0, 0), BuildingBlock: XIVTED_clean_linker_0, # of connection points: 2
#     Edge 43, Type (0, 0), BuildingBlock: XIVTED_clean_linker_0, # of connection points: 2
#     Edge 44, Type (0, 0), BuildingBlock: XIVTED_clean_linker_0, # of connection points: 2
#     Edge 45, Type (0, 0), BuildingBlock: XIVTED_clean_linker_0, # of connection points: 2
#     Edge 46, Type (0, 0), BuildingBlock: XIVTED_clean_linker_0, # of connection points: 2
#     Edge 47, Type (0, 0), BuildingBlock: XIVTED_clean_linker_0, # of connection points: 2
#     Edge 48, Type (0, 0), BuildingBlock: XIVTED_clean_linker_0, # of connection points: 2
#     Edge 49, Type (0, 0), BuildingBlock: XIVTED_clean_linker_0, # of connection points: 2
#     Edge 50, Type (0, 0), BuildingBlock: XIVTED_clean_linker_0, # of connection points: 2
#     Edge 51, Type (0, 0), BuildingBlock: XIVTED_clean_linker_0, # of connection points: 2
#     Edge 52, Type (0, 0), BuildingBlock: XIVTED_clean_linker_0, # of connection points: 2
#     Edge 53, Type (0, 0), BuildingBlock: XIVTED_clean_linker_0, # of connection points: 2
#     Edge 54, Type (0, 0), BuildingBlock: XIVTED_clean_linker_0, # of connection points: 2
#     Edge 55, Type (0, 0), BuildingBlock: XIVTED_clean_linker_0, # of connection points: 2
# Relax obj value: 0.143
# Max RMSD: 0.143
# Mean RMSD: 0.143
data_MOF--net-zfv--node1-XOMCOT_clean_sbu_0--edge1-XIVTED_clean_linker_0
_symmetry_space_group_name_H-M    P1
_symmetry_Int_Tables_number       1
_symmetry_cell_setting            triclinic
loop_
_symmetry_equiv_pos_as_xyz
'x, y, z'
_cell_length_a     76.805893
_cell_length_b     76.995532
_cell_length_c     17.792628
_cell_angle_alpha  89.973569
_cell_angle_beta   90.019653
_cell_angle_gamma 89.950858
loop_
_atom_site_label
_atom_site_type_symbol
_atom_site_fract_x
_atom_site_fract_y
_atom_site_fract_z
_atom_type_partial_charge
Co0 Co 0.06473 0.58584 0.1019 0.0
C1 C 0.0646 0.5898 0.93588 0.0
C2 C 0.08932 0.59646 0.98421 0.0
C3 C 0.09057 0.59788 0.90743 0.0
N4 N 0.07302 0.59153 1.00213 0.0
N5 N 0.07507 0.59362 0.87699 0.0
H6 H 0.05123 0.58553 0.93092 0.0
H7 H 0.09984 0.59828 0.02376 0.0
C8 C 0.08272 0.61476 0.18846 0.0
O9 O 0.06821 0.61935 0.22226 0.0
N10 N 0.05667 0.57962 0.20287 0.0
C11 C 0.04236 0.5702 0.21984 0.0
C12 C 0.04118 0.56828 0.29638 0.0
C13 C 0.06445 0.58243 0.27008 0.0
N14 N 0.05502 0.57609 0.32818 0.0
C15 C 0.03049 0.6008 0.10706 0.0
C16 C 0.04078 0.63488 0.08796 0.0
C17 C 0.02369 0.63146 0.11168 0.0
C18 C 0.01837 0.61408 0.11676 0.0
C19 C 0.05244 0.62109 0.07793 0.0
N20 N 0.04761 0.60447 0.09483 0.0
H21 H 0.02612 0.58757 0.11098 0.0
H22 H 0.06567 0.62393 0.06125 0.0
H23 H 0.03337 0.56472 0.1797 0.0
H24 H 0.07703 0.58844 0.27682 0.0
O25 O 0.05122 0.56702 0.06025 0.0
O26 O 0.07859 0.56507 0.09987 0.0
O27 O 0.08306 0.6018 0.14386 0.0
C28 C 0.06507 0.55752 0.07036 0.0
H29 H 0.10226 0.60101 0.87626 0.0
H30 H 0.03076 0.5618 0.32611 0.0
H31 H 0.04542 0.64805 0.08097 0.0
H32 H 0.00502 0.61073 0.12994 0.0
Co33 Co 0.70512 0.76071 0.29557 0.0
C34 C 0.70323 0.76222 0.12902 0.0
C35 C 0.69804 0.78689 0.18054 0.0
C36 C 0.69765 0.78897 0.10388 0.0
N37 N 0.70143 0.77013 0.19626 0.0
N38 N 0.70103 0.77349 0.07126 0.0
H39 H 0.70669 0.74867 0.12284 0.0
H40 H 0.69641 0.79704 0.22194 0.0
C41 C 0.67459 0.77605 0.38064 0.0
O42 O 0.67207 0.76136 0.41665 0.0
N43 N 0.70937 0.75153 0.39649 0.0
C44 C 0.71684 0.73614 0.41375 0.0
C45 C 0.71825 0.73464 0.49033 0.0
C46 C 0.70744 0.75961 0.46359 0.0
N47 N 0.71218 0.74933 0.52187 0.0
C48 C 0.69178 0.72601 0.27889 0.0
C49 C 0.65713 0.73535 0.27051 0.0
C50 C 0.66139 0.71805 0.2876 0.0
C51 C 0.67901 0.71325 0.28608 0.0
C52 C 0.67043 0.74763 0.26277 0.0
N53 N 0.68735 0.74314 0.27636 0.0
H54 H 0.70523 0.72212 0.27807 0.0
H55 H 0.66696 0.76094 0.2508 0.0
H56 H 0.72177 0.72679 0.37403 0.0
H57 H 0.70266 0.77273 0.46988 0.0
O58 O 0.7254 0.7484 0.25989 0.0
O59 O 0.7255 0.77516 0.3062 0.0
O60 O 0.68718 0.7777 0.33427 0.0
C61 C 0.73422 0.7622 0.2781 0.0
H62 H 0.6952 0.80105 0.07469 0.0
H63 H 0.72381 0.72374 0.52034 0.0
H64 H 0.64373 0.73965 0.26782 0.0
H65 H 0.68295 0.69984 0.29329 0.0
Co66 Co 0.52794 0.40399 0.58449 0.0
C67 C 0.52665 0.40188 0.4183 0.0
C68 C 0.50187 0.39638 0.46888 0.0
C69 C 0.50011 0.39531 0.39209 0.0
N70 N 0.51851 0.40038 0.48517 0.0
N71 N 0.51567 0.3988 0.36032 0.0
H72 H 0.54028 0.40515 0.41239 0.0
H73 H 0.49162 0.39466 0.50986 0.0
C74 C 0.51332 0.3726 0.66403 0.0
O75 O 0.52859 0.3695 0.6946 0.0
N76 N 0.5371 0.40807 0.68552 0.0
C77 C 0.55185 0.41668 0.70338 0.0
C78 C 0.55305 0.41822 0.78 0.0
C79 C 0.52913 0.40531 0.75236 0.0
N80 N 0.53878 0.41103 0.81104 0.0
C81 C 0.5628 0.39102 0.5682 0.0
C82 C 0.55393 0.35677 0.54286 0.0
C83 C 0.57136 0.36099 0.55714 0.0
C84 C 0.57586 0.37847 0.56595 0.0
C85 C 0.54133 0.36988 0.5438 0.0
N86 N 0.54567 0.38645 0.56418 0.0
H87 H 0.56653 0.40439 0.57414 0.0
H88 H 0.52796 0.36653 0.53166 0.0
H89 H 0.56087 0.42237 0.66402 0.0
H90 H 0.51623 0.39989 0.75804 0.0
O91 O 0.54029 0.42409 0.54872 0.0
O92 O 0.51349 0.42445 0.59529 0.0
O93 O 0.51099 0.38607 0.62327 0.0
C94 C 0.52656 0.43302 0.56694 0.0
H95 H 0.48816 0.39269 0.36195 0.0
H96 H 0.5636 0.42434 0.81025 0.0
H97 H 0.55007 0.34346 0.53241 0.0
H98 H 0.58928 0.38235 0.57432 0.0
Co99 Co 0.89219 0.23022 0.80886 0.0
C100 C 0.89413 0.22887 0.64278 0.0
C101 C 0.89788 0.20382 0.69344 0.0
C102 C 0.89829 0.20191 0.6167 0.0
N103 N 0.89538 0.2207 0.70964 0.0
N104 N 0.89583 0.21763 0.58469 0.0
H105 H 0.89145 0.2426 0.63712 0.0
H106 H 0.89892 0.19353 0.73455 0.0
C107 C 0.92238 0.21392 0.89195 0.0
O108 O 0.92545 0.22858 0.92733 0.0
N109 N 0.88839 0.23947 0.90981 0.0
C110 C 0.88123 0.25496 0.92774 0.0
C111 C 0.87989 0.25629 1.00442 0.0
C112 C 0.89019 0.23118 0.97647 0.0
N113 N 0.88566 0.24139 0.03517 0.0
C114 C 0.90724 0.26426 0.79439 0.0
C115 C 0.94121 0.2531 0.77815 0.0
C116 C 0.93808 0.27049 0.79734 0.0
C117 C 0.92076 0.27626 0.80003 0.0
C118 C 0.9272 0.2416 0.77226 0.0
N119 N 0.9107 0.24694 0.78937 0.0
H120 H 0.89404 0.26888 0.79638 0.0
H121 H 0.9298 0.22816 0.75886 0.0
H122 H 0.87639 0.26446 0.88844 0.0
H123 H 0.89465 0.21794 0.98214 0.0
O124 O 0.87249 0.24342 0.77323 0.0
O125 O 0.87122 0.21667 0.81953 0.0
O126 O 0.90947 0.21252 0.84708 0.0
C127 C 0.86309 0.22999 0.7911 0.0
H128 H 0.90013 0.18979 0.58704 0.0
H129 H 0.87452 0.2672 0.03501 0.0
H130 H 0.95433 0.24813 0.77235 0.0
H131 H 0.91767 0.28982 0.8092 0.0
Co132 Co 0.06918 0.40227 0.92164 0.0
C133 C 0.07066 0.40005 0.08781 0.0
C134 C 0.09589 0.39715 0.03733 0.0
C135 C 0.09774 0.39637 0.11415 0.0
N136 N 0.07892 0.39935 0.02094 0.0
N137 N 0.08189 0.39823 0.14591 0.0
H138 H 0.05676 0.40194 0.09364 0.0
H139 H 0.10628 0.39656 0.99642 0.0
C140 C 0.08786 0.37347 0.8384 0.0
O141 O 0.07323 0.36807 0.80802 0.0
N142 N 0.05963 0.40564 0.8208 0.0
C143 C 0.04377 0.41205 0.80311 0.0
C144 C 0.04237 0.41349 0.72646 0.0
C145 C 0.06791 0.40413 0.75392 0.0
N146 N 0.05753 0.40844 0.6953 0.0
C147 C 0.03599 0.38593 0.94057 0.0
C148 C 0.04817 0.35243 0.95882 0.0
C149 C 0.03029 0.35518 0.94854 0.0
C150 C 0.02417 0.37226 0.94309 0.0
C151 C 0.05952 0.36664 0.95749 0.0
N152 N 0.05348 0.3829 0.94083 0.0
H153 H 0.031 0.39895 0.93746 0.0
H154 H 0.07323 0.36442 0.96707 0.0
H155 H 0.03399 0.41621 0.84259 0.0
H156 H 0.08145 0.40056 0.74816 0.0
O157 O 0.0548 0.42096 0.95848 0.0
O158 O 0.08146 0.42396 0.91202 0.0
O159 O 0.08807 0.38666 0.88172 0.0
C160 C 0.0677 0.43115 0.94139 0.0
H161 H 0.10992 0.39512 0.1443 0.0
H162 H 0.031 0.418 0.69629 0.0
H163 H 0.05333 0.33946 0.96665 0.0
H164 H 0.0104 0.37503 0.93751 0.0
Co165 Co 0.8937 0.76524 0.23126 0.0
C166 C 0.89462 0.76721 0.39767 0.0
C167 C 0.89829 0.79211 0.34567 0.0
C168 C 0.89843 0.79427 0.42235 0.0
N169 N 0.89597 0.77516 0.33033 0.0
N170 N 0.89606 0.77864 0.45523 0.0
H171 H 0.89219 0.75345 0.40404 0.0
H172 H 0.89953 0.80225 0.30396 0.0
C173 C 0.92435 0.78094 0.14959 0.0
O174 O 0.92733 0.76612 0.11531 0.0
N175 N 0.89091 0.75553 0.13046 0.0
C176 C 0.88489 0.73957 0.11272 0.0
C177 C 0.88381 0.73804 0.03605 0.0
C178 C 0.89236 0.7638 0.06352 0.0
N179 N 0.88866 0.75322 1.0049 0.0
C180 C 0.9077 0.73111 0.25822 0.0
C181 C 0.94197 0.74128 0.27373 0.0
C182 C 0.93824 0.72362 0.26357 0.0
C183 C 0.92075 0.7185 0.26023 0.0
C184 C 0.92842 0.75341 0.27237 0.0
N185 N 0.91178 0.74833 0.25618 0.0
H186 H 0.89434 0.72695 0.2565 0.0
H187 H 0.93147 0.76693 0.28136 0.0
H188 H 0.8806 0.72984 0.152 0.0
H189 H 0.89608 0.77727 0.05773 0.0
O190 O 0.87348 0.75243 0.26375 0.0
O191 O 0.87297 0.77897 0.2151 0.0
O192 O 0.91149 0.78257 0.19457 0.0
C193 C 0.8644 0.76583 0.24252 0.0
H194 H 0.90019 0.80649 0.4514 0.0
H195 H 0.87921 0.72676 1.00572 0.0
H196 H 0.95525 0.74572 0.28081 0.0
H197 H 0.91718 0.70495 0.25538 0.0
Co198 Co 0.52816 0.59101 0.47669 0.0
C199 C 0.52768 0.59427 0.64291 0.0
C200 C 0.5028 0.59981 0.59327 0.0
C201 C 0.50122 0.60098 0.67002 0.0
N202 N 0.51939 0.59577 0.57629 0.0
N203 N 0.51683 0.59744 0.70129 0.0
H204 H 0.54125 0.59067 0.64843 0.0
H205 H 0.49238 0.60118 0.55283 0.0
C206 C 0.51264 0.62093 0.38863 0.0
O207 O 0.52727 0.62321 0.35166 0.0
N208 N 0.53665 0.58566 0.37561 0.0
C209 C 0.55159 0.57736 0.35789 0.0
C210 C 0.55255 0.57528 0.2814 0.0
C211 C 0.52828 0.58751 0.30907 0.0
N212 N 0.53794 0.5818 0.25047 0.0
C213 C 0.56316 0.60411 0.48614 0.0
C214 C 0.55424 0.63876 0.49701 0.0
C215 C 0.57154 0.63434 0.48063 0.0
C216 C 0.57611 0.61671 0.47956 0.0
C217 C 0.54175 0.62565 0.50412 0.0
N218 N 0.54605 0.60871 0.49058 0.0
H219 H 0.56692 0.59066 0.48571 0.0
H220 H 0.52849 0.62925 0.51686 0.0
H221 H 0.56103 0.57241 0.39735 0.0
H222 H 0.5152 0.59253 0.30349 0.0
O223 O 0.54053 0.57108 0.51494 0.0
O224 O 0.51342 0.57074 0.47173 0.0
O225 O 0.51108 0.60866 0.43653 0.0
C226 C 0.52651 0.56223 0.50021 0.0
H227 H 0.48929 0.60346 0.70055 0.0
H228 H 0.56329 0.56948 0.2511 0.0
H229 H 0.55031 0.65222 0.50229 0.0
H230 H 0.58942 0.61263 0.46988 0.0
Co231 Co 0.7055 0.22749 0.67727 0.0
C232 C 0.70975 0.22221 0.84477 0.0
C233 C 0.6834 0.21942 0.80684 0.0
C234 C 0.68379 0.21671 0.88313 0.0
N235 N 0.69966 0.22271 0.78214 0.0
N236 N 0.70034 0.21845 0.90715 0.0
H237 H 0.72362 0.22453 0.84529 0.0
H238 H 0.67188 0.21946 0.77192 0.0
C239 C 0.68138 0.20134 0.59368 0.0
O240 O 0.68468 0.20686 0.52548 0.0
N241 N 0.71153 0.23289 0.57317 0.0
C242 C 0.71308 0.24932 0.54773 0.0
C243 C 0.71776 0.24904 0.47341 0.0
C244 C 0.71623 0.22278 0.51414 0.0
N245 N 0.71953 0.23238 0.45173 0.0
C246 C 0.68661 0.25775 0.72631 0.0
C247 C 0.66325 0.25799 0.60785 0.0
C248 C 0.66252 0.27131 0.66099 0.0
C249 C 0.67415 0.27103 0.72168 0.0
C250 C 0.67557 0.24488 0.61539 0.0
N251 N 0.68716 0.24489 0.67351 0.0
H252 H 0.69599 0.25788 0.77162 0.0
H253 H 0.67628 0.23525 0.57203 0.0
H254 H 0.71064 0.26083 0.58095 0.0
H255 H 0.71697 0.20875 0.51626 0.0
O256 O 0.72485 0.24191 0.70713 0.0
O257 O 0.72618 0.2135 0.68573 0.0
O258 O 0.6884 0.2084 0.65116 0.0
C259 C 0.73422 0.22782 0.70328 0.0
H260 H 0.67262 0.21422 0.91861 0.0
H261 H 0.71894 0.26026 0.43708 0.0
H262 H 0.65447 0.25784 0.56015 0.0
H263 H 0.67398 0.28124 0.76354 0.0
Co264 Co 0.39554 0.26105 0.68136 0.0
C265 C 0.39833 0.26183 0.84751 0.0
C266 C 0.40392 0.28661 0.79767 0.0
C267 C 0.40513 0.28821 0.87443 0.0
N268 N 0.39979 0.27007 0.78088 0.0
N269 N 0.40158 0.27265 0.90575 0.0
H270 H 0.39487 0.24827 0.85311 0.0
H271 H 0.40553 0.29695 0.75712 0.0
C272 C 0.42637 0.27699 0.60024 0.0
O273 O 0.43022 0.26209 0.5683 0.0
N274 N 0.39082 0.25229 0.58024 0.0
C275 C 0.38179 0.23779 0.56266 0.0
C276 C 0.38017 0.23659 0.48609 0.0
C277 C 0.39375 0.26012 0.51329 0.0
N278 N 0.38773 0.25061 0.45483 0.0
C279 C 0.40924 0.22642 0.68927 0.0
C280 C 0.44367 0.23564 0.70885 0.0
C281 C 0.4397 0.21852 0.68765 0.0
C282 C 0.42212 0.21376 0.68309 0.0
C283 C 0.43023 0.24785 0.71559 0.0
N284 N 0.41351 0.24349 0.69731 0.0
H285 H 0.39584 0.22249 0.68549 0.0
H286 H 0.43346 0.26107 0.73038 0.0
H287 H 0.37604 0.22888 0.6023 0.0
H288 H 0.39951 0.27283 0.50726 0.0
O289 O 0.37566 0.24841 0.71882 0.0
O290 O 0.37494 0.27532 0.67426 0.0
O291 O 0.41291 0.27846 0.64185 0.0
C292 C 0.36655 0.26218 0.70266 0.0
H293 H 0.4078 0.30007 0.90491 0.0
H294 H 0.37381 0.22616 0.45603 0.0
H295 H 0.45701 0.23985 0.71593 0.0
H296 H 0.41832 0.20045 0.67236 0.0
Co297 Co 0.20117 0.72781 0.21884 0.0
C298 C 0.19995 0.72681 0.38594 0.0
C299 C 0.20045 0.70139 0.33685 0.0
C300 C 0.20041 0.69961 0.41352 0.0
N301 N 0.2 0.71841 0.31939 0.0
N302 N 0.20015 0.71559 0.44449 0.0
H303 H 0.20039 0.74076 0.39156 0.0
H304 H 0.20126 0.69088 0.29696 0.0
C305 C 0.18525 0.69487 0.16357 0.0
O306 O 0.20085 0.6889 0.14779 0.0
N307 N 0.20239 0.7372 0.11853 0.0
C308 C 0.20524 0.75401 0.10147 0.0
C309 C 0.20515 0.75586 0.02472 0.0
C310 C 0.20077 0.72898 0.05204 0.0
N311 N 0.20233 0.74013 0.99371 0.0
C312 C 0.18722 0.76022 0.2731 0.0
C313 C 0.15434 0.75595 0.21291 0.0
C314 C 0.15892 0.77216 0.24187 0.0
C315 C 0.17549 0.77418 0.27372 0.0
C316 C 0.16647 0.74256 0.21177 0.0
N317 N 0.18285 0.74472 0.24066 0.0
H318 H 0.2002 0.76229 0.2945 0.0
H319 H 0.16267 0.73102 0.18225 0.0
H320 H 0.2074 0.76422 0.14204 0.0
H321 H 0.19838 0.71523 0.04629 0.0
O322 O 0.22153 0.74122 0.24575 0.0
O323 O 0.22204 0.71438 0.20122 0.0
O324 O 0.18333 0.71028 0.18809 0.0
C325 C 0.23064 0.72779 0.22539 0.0
H326 H 0.20062 0.68744 0.44392 0.0
H327 H 0.20735 0.76781 0.99414 0.0
H328 H 0.14184 0.75393 0.18598 0.0
H329 H 0.17955 0.78658 0.29643 0.0
Co330 Co 0.20977 0.26448 0.83517 0.0
C331 C 0.2103 0.26905 0.66786 0.0
C332 C 0.18468 0.27139 0.71448 0.0
C333 C 0.18357 0.27358 0.63793 0.0
N334 N 0.20144 0.26857 0.73347 0.0
N335 N 0.19969 0.27209 0.60856 0.0
H336 H 0.2242 0.26726 0.66317 0.0
H337 H 0.17391 0.27162 0.75364 0.0
C338 C 0.19453 0.29899 0.84989 0.0
O339 O 0.20809 0.30439 0.81157 0.0
N340 N 0.21779 0.26017 0.93676 0.0
C341 C 0.22559 0.24541 0.95974 0.0
C342 C 0.22809 0.2462 0.03598 0.0
C343 C 0.21549 0.26973 0.9997 0.0
N344 N 0.22169 0.26142 0.06127 0.0
C345 C 0.19022 0.23357 0.80278 0.0
C346 C 0.16779 0.23676 0.92382 0.0
C347 C 0.16583 0.22255 0.87532 0.0
C348 C 0.17729 0.22102 0.81403 0.0
C349 C 0.18071 0.24901 0.91022 0.0
N350 N 0.19166 0.24738 0.85028 0.0
H351 H 0.19904 0.23232 0.75573 0.0
H352 H 0.18206 0.25972 0.94895 0.0
H353 H 0.22861 0.23446 0.92405 0.0
H354 H 0.20901 0.28221 1.00084 0.0
O355 O 0.22834 0.24974 0.79797 0.0
O356 O 0.23041 0.27812 0.81655 0.0
O357 O 0.19354 0.28315 0.87005 0.0
C358 C 0.23795 0.26367 0.79743 0.0
H359 H 0.17171 0.27563 0.6063 0.0
H360 H 0.23336 0.23591 0.07068 0.0
H361 H 0.15963 0.2383 0.97297 0.0
H362 H 0.17621 0.21034 0.77475 0.0
Co363 Co 0.38996 0.72767 0.27612 0.0
C364 C 0.39194 0.72667 0.11002 0.0
C365 C 0.39679 0.70171 0.15977 0.0
C366 C 0.39729 0.69998 0.0829 0.0
N367 N 0.39354 0.71844 0.17662 0.0
N368 N 0.3942 0.71565 0.05157 0.0
H369 H 0.38897 0.74036 0.10468 0.0
H370 H 0.39814 0.69137 0.20046 0.0
C371 C 0.41922 0.71137 0.36593 0.0
O372 O 0.4212 0.72572 0.40494 0.0
N373 N 0.38589 0.73671 0.37694 0.0
C374 C 0.38102 0.75297 0.39608 0.0
C375 C 0.37891 0.75384 0.47263 0.0
C376 C 0.38572 0.72773 0.44229 0.0
N377 N 0.38203 0.738 0.50186 0.0
C378 C 0.40345 0.76206 0.25126 0.0
C379 C 0.43811 0.75301 0.26228 0.0
C380 C 0.43348 0.77057 0.2713 0.0
C381 C 0.41597 0.77508 0.25859 0.0
C382 C 0.42515 0.74053 0.25204 0.0
N383 N 0.408 0.745 0.25737 0.0
H384 H 0.39001 0.76575 0.24424 0.0
H385 H 0.429 0.72718 0.24432 0.0
H386 H 0.37866 0.76353 0.35774 0.0
H387 H 0.38829 0.71394 0.44617 0.0
O388 O 0.36987 0.74039 0.24111 0.0
O389 O 0.36936 0.71353 0.28624 0.0
O390 O 0.40752 0.71029 0.31502 0.0
C391 C 0.36083 0.72671 0.25886 0.0
H392 H 0.39911 0.68794 0.05252 0.0
H393 H 0.37562 0.76538 0.50429 0.0
H394 H 0.45141 0.74858 0.26735 0.0
H395 H 0.41174 0.78848 0.25753 0.0
Co396 Co 0.56904 0.08287 0.58602 0.0
C397 C 0.57101 0.08402 0.41947 0.0
C398 C 0.59622 0.08425 0.47165 0.0
C399 C 0.59843 0.08431 0.39504 0.0
N400 N 0.57907 0.08418 0.48685 0.0
N401 N 0.58259 0.08409 0.36203 0.0
H402 H 0.55702 0.08338 0.41296 0.0
H403 H 0.60643 0.08394 0.51347 0.0
C404 C 0.58733 0.11283 0.66352 0.0
O405 O 0.573 0.11732 0.69889 0.0
N406 N 0.55923 0.08107 0.68694 0.0
C407 C 0.54297 0.07592 0.70516 0.0
C408 C 0.54137 0.07536 0.7819 0.0
C409 C 0.56757 0.08256 0.75371 0.0
N410 N 0.55679 0.07966 0.81255 0.0
C411 C 0.53569 0.09873 0.55897 0.0
C412 C 0.54782 0.13224 0.54169 0.0
C413 C 0.52994 0.12957 0.55231 0.0
C414 C 0.52383 0.11245 0.55665 0.0
C415 C 0.55918 0.11805 0.54338 0.0
N416 N 0.55317 0.10181 0.56032 0.0
H417 H 0.53077 0.08567 0.5615 0.0
H418 H 0.57287 0.12028 0.53381 0.0
H419 H 0.53304 0.07187 0.66623 0.0
H420 H 0.58124 0.08565 0.75926 0.0
O421 O 0.55508 0.06332 0.55471 0.0
O422 O 0.58165 0.06161 0.60326 0.0
O423 O 0.58759 0.09951 0.6208 0.0
C424 C 0.56814 0.05367 0.57561 0.0
H425 H 0.61082 0.08448 0.36616 0.0
H426 H 0.52987 0.07145 0.81272 0.0
H427 H 0.55301 0.14519 0.53379 0.0
H428 H 0.51006 0.10967 0.56192 0.0
Co429 Co 0.03039 0.90407 0.0511 0.0
C430 C 0.03043 0.90033 0.88498 0.0
C431 C 0.00566 0.89406 0.93387 0.0
C432 C 0.00428 0.89264 0.85715 0.0
N433 N 0.02207 0.8987 0.95134 0.0
N434 N 0.01982 0.89664 0.82637 0.0
H435 H 0.04385 0.90442 0.87976 0.0
H436 H 0.99519 0.89249 0.97387 0.0
C437 C 0.01535 0.87378 0.1381 0.0
O438 O 0.03001 0.87167 0.17512 0.0
N439 N 0.03837 0.91008 0.15242 0.0
C440 C 0.05251 0.9197 0.17006 0.0
C441 C 0.05337 0.9218 0.24651 0.0
C442 C 0.03026 0.90749 0.21909 0.0
N443 N 0.03944 0.914 0.27758 0.0
C444 C 0.06557 0.89138 0.05108 0.0
C445 C 0.05728 0.85675 0.03401 0.0
C446 C 0.07414 0.86122 0.05753 0.0
C447 C 0.07847 0.87888 0.06159 0.0
C448 C 0.04479 0.86977 0.02402 0.0
N449 N 0.04865 0.88666 0.0404 0.0
H450 H 0.06915 0.90484 0.05414 0.0
H451 H 0.03175 0.86613 1.00758 0.0
H452 H 0.06145 0.92543 0.13047 0.0
H453 H 0.01765 0.90146 0.22496 0.0
O454 O 0.04265 0.92386 1.01185 0.0
O455 O 0.01535 0.92421 0.05301 0.0
O456 O 0.0135 0.88624 0.09131 0.0
C457 C 0.02852 0.93268 0.02496 0.0
H458 H 0.99251 0.88971 0.82622 0.0
H459 H 0.06358 0.9285 0.27669 0.0
H460 H 0.05358 0.8433 0.02613 0.0
H461 H 0.09144 0.88308 0.07693 0.0
Co462 Co 0.56389 0.89549 0.49195 0.0
C463 C 0.5655 0.89411 0.65849 0.0
C464 C 0.59044 0.88976 0.60732 0.0
C465 C 0.59252 0.88977 0.68406 0.0
N466 N 0.57352 0.89241 0.59136 0.0
N467 N 0.57687 0.89259 0.71641 0.0
H468 H 0.55179 0.89703 0.6645 0.0
H469 H 0.60067 0.88839 0.56602 0.0
C470 C 0.58097 0.86633 0.40316 0.0
O471 O 0.56681 0.8638 0.36323 0.0
N472 N 0.55433 0.89906 0.39139 0.0
C473 C 0.5378 0.90355 0.37445 0.0
C474 C 0.53615 0.90508 0.29796 0.0
C475 C 0.56272 0.89892 0.32441 0.0
N476 N 0.55176 0.90194 0.26616 0.0
C477 C 0.52973 0.88208 0.52258 0.0
C478 C 0.53828 0.84751 0.5059 0.0
C479 C 0.52066 0.85238 0.50064 0.0
C480 C 0.51647 0.86978 0.5163 0.0
C481 C 0.55104 0.86024 0.51536 0.0
N482 N 0.54671 0.87743 0.51289 0.0
H483 H 0.5262 0.89549 0.53111 0.0
H484 H 0.56441 0.85619 0.52062 0.0
H485 H 0.52758 0.9061 0.41438 0.0
H486 H 0.57647 0.89623 0.31831 0.0
O487 O 0.55104 0.9155 0.52644 0.0
O488 O 0.5778 0.91618 0.47974 0.0
O489 O 0.5815 0.87812 0.45367 0.0
C490 C 0.56462 0.9246 0.50784 0.0
H491 H 0.60471 0.88794 0.71354 0.0
H492 H 0.52434 0.90851 0.26822 0.0
H493 H 0.54248 0.83422 0.49855 0.0
H494 H 0.50311 0.87414 0.5202 0.0
Co495 Co 0.02993 0.09132 0.96604 0.0
C496 C 0.02848 0.09285 0.13261 0.0
C497 C 0.00353 0.09722 0.08142 0.0
C498 C 0.00157 0.0979 0.15813 0.0
N499 N 0.02039 0.09419 0.06552 0.0
N500 N 0.01724 0.09513 0.19037 0.0
H501 H 0.04226 0.09023 0.13884 0.0
H502 H 0.99329 0.09851 0.04008 0.0
C503 C 0.0143 0.12186 0.8819 0.0
O504 O 0.02858 0.12405 0.84244 0.0
N505 N 0.03922 0.08802 0.86502 0.0
C506 C 0.05535 0.08253 0.84642 0.0
C507 C 0.05639 0.08063 0.76988 0.0
C508 C 0.03045 0.08858 0.79905 0.0
N509 N 0.04076 0.08453 0.73989 0.0
C510 C 0.06467 0.10318 0.99647 0.0
C511 C 0.05712 0.13821 0.99876 0.0
C512 C 0.0746 0.13298 0.99349 0.0
C513 C 0.07828 0.11516 0.99731 0.0
C514 C 0.04394 0.1257 0.999 0.0
N515 N 0.04782 0.10853 0.98927 0.0
H516 H 0.0678 0.08955 0.99939 0.0
H517 H 0.03064 0.12998 1.00472 0.0
H518 H 0.06565 0.07939 0.88512 0.0
H519 H 0.01674 0.09164 0.79453 0.0
O520 O 0.04196 0.07065 0.99814 0.0
O521 O 0.01519 0.07127 0.9513 0.0
O522 O 0.01312 0.10963 0.93011 0.0
C523 C 0.02808 0.06218 0.97807 0.0
H524 H 0.98942 0.09974 0.18785 0.0
H525 H 0.06785 0.07675 0.73882 0.0
H526 H 0.0535 0.15179 0.99925 0.0
H527 H 0.09156 0.11044 0.99894 0.0
H528 H 0.08944 0.61202 0.76304 0.0
H529 H 0.04271 0.55603 0.44256 0.0
H530 H 0.05243 0.57134 0.80978 0.0
H531 H 0.0748 0.6008 0.39668 0.0
H532 H 0.04687 0.56078 0.57684 0.0
H533 H 0.08482 0.60761 0.62861 0.0
C534 C 0.08032 0.60216 0.74499 0.0
C535 C 0.07136 0.59199 0.79783 0.0
C536 C 0.05301 0.56956 0.53739 0.0
C537 C 0.06599 0.58684 0.64364 0.0
C538 C 0.05061 0.56688 0.46047 0.0
C539 C 0.05835 0.57806 0.40769 0.0
C540 C 0.06328 0.5835 0.56216 0.0
C541 C 0.06872 0.59172 0.43485 0.0
C542 C 0.07764 0.59968 0.66817 0.0
C543 C 0.05949 0.57958 0.77114 0.0
N544 N 0.07085 0.59406 0.51007 0.0
N545 N 0.05724 0.57728 0.69592 0.0
H546 H 0.7078 0.79694 0.96027 0.0
H547 H 0.70832 0.7257 0.6337 0.0
H548 H 0.69836 0.74238 0.9989 0.0
H549 H 0.71207 0.78079 0.59226 0.0
H550 H 0.70575 0.73149 0.76784 0.0
H551 H 0.71023 0.7912 0.82629 0.0
C552 C 0.7061 0.78375 0.94086 0.0
C553 C 0.70274 0.77014 0.99162 0.0
C554 C 0.70714 0.74233 0.72952 0.0
C555 C 0.70582 0.76345 0.83715 0.0
C556 C 0.70875 0.73903 0.65276 0.0
C557 C 0.71056 0.75277 0.60134 0.0
C558 C 0.70739 0.75952 0.7556 0.0
C559 C 0.7106 0.7698 0.62957 0.0
C560 C 0.70759 0.78048 0.86401 0.0
C561 C 0.70109 0.75327 0.96241 0.0
N562 N 0.7091 0.77268 0.70479 0.0
N563 N 0.70264 0.75042 0.88722 0.0
H564 H 0.49974 0.38108 0.24793 0.0
H565 H 0.55144 0.43125 0.92396 0.0
H566 H 0.53983 0.41899 0.29098 0.0
H567 H 0.51731 0.38787 0.88049 0.0
H568 H 0.54622 0.42782 0.05802 0.0
H569 H 0.50497 0.38416 0.11309 0.0
C570 C 0.50963 0.39008 0.22902 0.0
C571 C 0.51932 0.39985 0.28093 0.0
C572 C 0.53987 0.41904 0.01922 0.0
C573 C 0.5254 0.40343 0.12641 0.0
C574 C 0.54289 0.42094 0.94237 0.0
C575 C 0.53492 0.40975 0.89034 0.0
C576 C 0.5287 0.40589 0.04478 0.0
C577 C 0.52364 0.3969 0.91815 0.0
C578 C 0.51266 0.39178 0.152 0.0
C579 C 0.53217 0.4111 0.25315 0.0
N580 N 0.5209 0.39531 0.99343 0.0
N581 N 0.53476 0.41265 0.17783 0.0
H582 H 0.90035 0.2488 0.51469 0.0
H583 H 0.88475 0.20967 0.10287 0.0
H584 H 0.8881 0.19496 0.47205 0.0
H585 H 0.89013 0.26444 0.14868 0.0
H586 H 0.88748 0.20377 0.23749 0.0
H587 H 0.89783 0.25463 0.38021 0.0
C588 C 0.89707 0.2382 0.47738 0.0
C589 C 0.89448 0.22134 0.50529 0.0
C590 C 0.88802 0.21709 0.21803 0.0
C591 C 0.89177 0.22791 0.35071 0.0
C592 C 0.88655 0.22045 0.14109 0.0
C593 C 0.88711 0.23758 0.11431 0.0
C594 C 0.8902 0.23095 0.26858 0.0
C595 C 0.88932 0.25105 0.16675 0.0
C596 C 0.89571 0.24154 0.40041 0.0
C597 C 0.89049 0.20811 0.45356 0.0
N598 N 0.89081 0.24745 0.2412 0.0
N599 N 0.88928 0.21168 0.37897 0.0
H600 H 0.09996 0.38293 0.25916 0.0
H601 H 0.04185 0.42631 0.58169 0.0
H602 H 0.0554 0.4155 0.21467 0.0
H603 H 0.08218 0.38859 0.62629 0.0
H604 H 0.04746 0.42341 0.44761 0.0
H605 H 0.09441 0.38567 0.39382 0.0
C606 C 0.08902 0.39069 0.27768 0.0
C607 C 0.07817 0.39905 0.22535 0.0
C608 C 0.0551 0.41576 0.48668 0.0
C609 C 0.0717 0.4022 0.37984 0.0
C610 C 0.05187 0.41736 0.56354 0.0
C611 C 0.06148 0.4076 0.61592 0.0
C612 C 0.0681 0.40436 0.46146 0.0
C613 C 0.07454 0.3965 0.5884 0.0
C614 C 0.08581 0.39218 0.35465 0.0
C615 C 0.06401 0.4087 0.25276 0.0
N616 N 0.07744 0.39517 0.51315 0.0
N617 N 0.06124 0.41008 0.32806 0.0
H618 H 0.88808 0.80153 0.56687 0.0
H619 H 0.89434 0.73016 0.89236 0.0
H620 H 0.90122 0.74777 0.52712 0.0
H621 H 0.88609 0.7847 0.9353 0.0
H622 H 0.89601 0.7363 0.75829 0.0
H623 H 0.88664 0.79556 0.70112 0.0
C624 C 0.89078 0.78848 0.58609 0.0
C625 C 0.89487 0.77515 0.53495 0.0
C626 C 0.89384 0.74695 0.79691 0.0
C627 C 0.89298 0.7682 0.68961 0.0
C628 C 0.89275 0.74344 0.87366 0.0
C629 C 0.88992 0.75691 0.92549 0.0
C630 C 0.89205 0.76409 0.77121 0.0
C631 C 0.88838 0.77392 0.89765 0.0
C632 C 0.88986 0.78507 0.66306 0.0
C633 C 0.89786 0.75843 0.56388 0.0
N634 N 0.8894 0.77701 0.82241 0.0
N635 N 0.89686 0.75545 0.63914 0.0
H636 H 0.50108 0.6149 0.81468 0.0
H637 H 0.55105 0.56211 0.13674 0.0
H638 H 0.54059 0.57647 0.76954 0.0
H639 H 0.51635 0.60499 0.1819 0.0
H640 H 0.54641 0.56633 1.00244 0.0
H641 H 0.50572 0.6108 0.94933 0.0
C642 C 0.51074 0.60559 0.83312 0.0
C643 C 0.52041 0.59597 0.78064 0.0
C644 C 0.53979 0.57481 0.0417 0.0
C645 C 0.52582 0.59118 0.93508 0.0
C646 C 0.54246 0.57243 0.11861 0.0
C647 C 0.53416 0.58327 0.17115 0.0
C648 C 0.52868 0.5881 0.01666 0.0
C649 C 0.5229 0.5962 0.14382 0.0
C650 C 0.51343 0.60329 0.91006 0.0
C651 C 0.53296 0.58428 0.80785 0.0
N652 N 0.52054 0.59828 0.06855 0.0
N653 N 0.53523 0.58215 0.88316 0.0
H654 H 0.73868 0.24751 0.34222 0.0
H655 H 0.68696 0.19827 0.01775 0.0
H656 H 0.70365 0.20494 0.38424 0.0
H657 H 0.72683 0.23629 0.97366 0.0
H658 H 0.69459 0.19887 0.15103 0.0
H659 H 0.73662 0.2418 0.20725 0.0
C660 C 0.73078 0.23675 0.32297 0.0
C661 C 0.72123 0.22676 0.37459 0.0
C662 C 0.70182 0.20697 0.11228 0.0
C663 C 0.71856 0.22028 0.21967 0.0
C664 C 0.69739 0.2067 0.0361 0.0
C665 C 0.70612 0.2174 0.98441 0.0
C666 C 0.71499 0.21817 0.13765 0.0
C667 C 0.71977 0.22781 1.01135 0.0
C668 C 0.72958 0.23351 0.24586 0.0
C669 C 0.71129 0.21291 0.34659 0.0
N670 N 0.72363 0.2281 0.08616 0.0
N671 N 0.71 0.21025 0.27103 0.0
H672 H 0.36737 0.23827 0.34159 0.0
H673 H 0.41954 0.28815 0.01839 0.0
H674 H 0.41161 0.2713 0.38559 0.0
H675 H 0.38082 0.2489 0.97454 0.0
H676 H 0.41607 0.28313 0.15316 0.0
H677 H 0.37123 0.24312 0.20745 0.0
C678 C 0.37795 0.24651 0.32328 0.0
C679 C 0.38925 0.25429 0.37547 0.0
C680 C 0.40838 0.27556 0.11411 0.0
C681 C 0.39363 0.26005 0.22103 0.0
C682 C 0.4103 0.27847 0.03714 0.0
C683 C 0.4004 0.26897 0.98505 0.0
C684 C 0.39637 0.26314 0.13946 0.0
C685 C 0.38882 0.2564 1.01256 0.0
C686 C 0.38011 0.24931 0.2464 0.0
C687 C 0.40248 0.26514 0.34781 0.0
N688 N 0.38705 0.25393 0.08787 0.0
N689 N 0.40431 0.26768 0.27253 0.0
H690 H 0.18882 0.74512 0.51287 0.0
H691 H 0.21049 0.70965 0.92566 0.0
H692 H 0.21239 0.69524 0.55761 0.0
H693 H 0.19233 0.76169 0.88106 0.0
H694 H 0.2098 0.70363 0.79092 0.0
H695 H 0.18908 0.75122 0.6477 0.0
C696 C 0.19413 0.73549 0.55081 0.0
C697 C 0.20052 0.7196 0.52361 0.0
C698 C 0.20596 0.71637 0.81061 0.0
C699 C 0.20065 0.7264 0.6781 0.0
C700 C 0.20624 0.71977 0.88761 0.0
C701 C 0.20152 0.73621 0.91469 0.0
C702 C 0.20084 0.72949 0.76028 0.0
C703 C 0.19633 0.74891 0.8626 0.0
C704 C 0.19419 0.73894 0.62786 0.0
C705 C 0.20704 0.70753 0.57576 0.0
N706 N 0.19612 0.74529 0.78793 0.0
N707 N 0.20691 0.71117 0.65035 0.0
H708 H 0.22807 0.25763 0.54143 0.0
H709 H 0.19627 0.28114 0.12537 0.0
H710 H 0.18201 0.28799 0.49504 0.0
H711 H 0.2432 0.25261 0.17553 0.0
H712 H 0.19195 0.28598 0.26021 0.0
H713 H 0.23487 0.25763 0.40778 0.0
C714 C 0.21946 0.26447 0.50345 0.0
C715 C 0.20436 0.27274 0.52995 0.0
C716 C 0.20328 0.27879 0.24162 0.0
C717 C 0.21199 0.27258 0.37584 0.0
C718 C 0.20581 0.27614 0.16459 0.0
C719 C 0.22003 0.2663 0.13917 0.0
C720 C 0.21506 0.27155 0.29348 0.0
C721 C 0.23189 0.25998 0.19269 0.0
C722 C 0.22331 0.26439 0.42681 0.0
C723 C 0.19361 0.28117 0.47731 0.0
N724 N 0.22907 0.2626 0.26714 0.0
N725 N 0.19759 0.2808 0.40284 0.0
H726 H 0.40104 0.71231 0.56753 0.0
H727 H 0.3752 0.74134 0.98557 0.0
H728 H 0.36506 0.75384 0.61705 0.0
H729 H 0.40927 0.69826 0.93588 0.0
H730 H 0.37166 0.74641 0.8508 0.0
H731 H 0.40394 0.70669 0.70212 0.0
C732 C 0.39357 0.72011 0.60652 0.0
C733 C 0.38281 0.73361 0.58068 0.0
C734 C 0.37991 0.73584 0.8694 0.0
C735 C 0.38632 0.72745 0.73527 0.0
C736 C 0.38205 0.73303 0.94646 0.0
C737 C 0.39252 0.71932 0.97232 0.0
C738 C 0.38835 0.72491 0.81763 0.0
C739 C 0.40088 0.70882 0.91869 0.0
C740 C 0.39535 0.717 0.68352 0.0
C741 C 0.3737 0.74348 0.63423 0.0
N742 N 0.39861 0.71183 0.84406 0.0
N743 N 0.3757 0.74024 0.70883 0.0
H744 H 0.53425 0.0876 0.92449 0.0
H745 H 0.60445 0.07354 0.2504 0.0
H746 H 0.58801 0.07466 0.88203 0.0
H747 H 0.55258 0.09318 0.29004 0.0
H748 H 0.59847 0.07311 0.11616 0.0
H749 H 0.54049 0.0888 0.05875 0.0
C750 C 0.54737 0.08492 0.94342 0.0
C751 C 0.5606 0.08088 0.89178 0.0
C752 C 0.5884 0.07755 0.15418 0.0
C753 C 0.56789 0.08239 0.04596 0.0
C754 C 0.59183 0.07789 0.23117 0.0
C755 C 0.57904 0.08351 0.28227 0.0
C756 C 0.57202 0.08276 0.12756 0.0
C757 C 0.5628 0.0886 0.25327 0.0
C758 C 0.55095 0.08572 0.02018 0.0
C759 C 0.57744 0.07791 0.91964 0.0
N760 N 0.55977 0.0881 0.17796 0.0
N761 N 0.58059 0.07863 0.99487 0.0
H762 H 0.00527 0.87818 0.71315 0.0
H763 H 0.05099 0.93457 0.39149 0.0
H764 H 0.04237 0.91886 0.75842 0.0
H765 H 0.01996 0.88905 0.346 0.0
H766 H 0.04688 0.92984 0.52575 0.0
H767 H 0.00964 0.88257 0.57846 0.0
C768 C 0.01437 0.88803 0.69469 0.0
C769 C 0.02342 0.89821 0.74715 0.0
C770 C 0.04095 0.92089 0.48642 0.0
C771 C 0.02847 0.90336 0.59283 0.0
C772 C 0.04332 0.92356 0.40953 0.0
C773 C 0.0359 0.91215 0.35691 0.0
C774 C 0.03103 0.90672 0.51132 0.0
C775 C 0.02579 0.8983 0.38414 0.0
C776 C 0.01689 0.8905 0.61777 0.0
C777 C 0.03524 0.91062 0.72005 0.0
N778 N 0.02369 0.89596 0.45939 0.0
N779 N 0.03734 0.91292 0.64476 0.0
H780 H 0.52878 0.8948 0.15428 0.0
H781 H 0.59979 0.90146 0.82682 0.0
H782 H 0.58296 0.90628 0.19506 0.0
H783 H 0.54597 0.8879 0.78891 0.0
H784 H 0.59386 0.90376 0.96095 0.0
H785 H 0.53481 0.89296 0.02036 0.0
C786 C 0.54194 0.89711 0.13521 0.0
C787 C 0.55535 0.90087 0.18652 0.0
C788 C 0.58334 0.90027 0.92335 0.0
C789 C 0.56241 0.89848 0.03206 0.0
C790 C 0.58673 0.89884 0.84648 0.0
C791 C 0.57338 0.89435 0.79594 0.0
C792 C 0.56647 0.89722 0.95041 0.0
C793 C 0.55665 0.89152 0.82528 0.0
C794 C 0.5454 0.89592 0.05843 0.0
C795 C 0.57223 0.90327 0.15794 0.0
N796 N 0.55369 0.89297 0.90045 0.0
N797 N 0.57526 0.90208 0.08267 0.0
H798 H -0.00031 0.1112 0.30297 0.0
H799 H 0.05601 0.06611 0.62752 0.0
H800 H 0.0427 0.07653 0.26006 0.0
H801 H 0.01596 0.10415 0.67085 0.0
H802 H 0.05045 0.06886 0.49318 0.0
H803 H 0.00474 0.10807 0.43776 0.0
C804 C 0.01018 0.10288 0.32186 0.0
C805 C 0.02074 0.09405 0.26993 0.0
C806 C 0.04284 0.07659 0.53199 0.0
C807 C 0.02665 0.09045 0.42465 0.0
C808 C 0.04604 0.07506 0.60889 0.0
C809 C 0.03653 0.08501 0.66084 0.0
C810 C 0.03 0.08815 0.50637 0.0
C811 C 0.02352 0.09612 0.63309 0.0
C812 C 0.0131 0.10116 0.39894 0.0
C813 C 0.03433 0.0837 0.29785 0.0
N814 N 0.02069 0.09744 0.55777 0.0
N815 N 0.03685 0.08213 0.37326 0.0
H816 H 0.0935 0.53646 0.06038 0.0
H817 H 0.03918 0.45041 0.97939 0.0
H818 H 0.0377 0.53664 0.03185 0.0
H819 H 0.09438 0.45455 0.93775 0.0
H820 H 0.03832 0.48147 1.00829 0.0
H821 H 0.09408 0.50577 0.02556 0.0
C822 C 0.08137 0.53002 0.04683 0.0
C823 C 0.06552 0.53906 0.04903 0.0
C824 C 0.05059 0.47558 0.99246 0.0
C825 C 0.06608 0.50399 1.00948 0.0
C826 C 0.0511 0.45787 0.9762 0.0
C827 C 0.06688 0.44994 0.95631 0.0
C828 C 0.06601 0.48534 0.98975 0.0
C829 C 0.08194 0.46019 0.95275 0.0
C830 C 0.08172 0.51254 0.02666 0.0
C831 C 0.05019 0.53013 0.03067 0.0
N832 N 0.08115 0.47736 0.96984 0.0
N833 N 0.05083 0.51303 1.01204 0.0
H834 H 0.84214 0.79345 0.22767 0.0
H835 H 0.7563 0.73523 0.24949 0.0
H836 H 0.84304 0.73818 0.26794 0.0
H837 H 0.75561 0.79056 0.28804 0.0
H838 H 0.78803 0.73627 0.23993 0.0
H839 H 0.81024 0.79285 0.23457 0.0
C840 C 0.83562 0.7812 0.23795 0.0
C841 C 0.84522 0.76585 0.24745 0.0
C842 C 0.78094 0.74818 0.25046 0.0
C843 C 0.80886 0.76505 0.25459 0.0
C844 C 0.76283 0.74761 0.25556 0.0
C845 C 0.75333 0.76283 0.26971 0.0
C846 C 0.78961 0.76412 0.25864 0.0
C847 C 0.76246 0.77851 0.27736 0.0
C848 C 0.81746 0.78088 0.24205 0.0
C849 C 0.83614 0.75034 0.26068 0.0
N850 N 0.78011 0.77877 0.27148 0.0
N851 N 0.81847 0.75032 0.26347 0.0
H852 H 0.49796 0.5409 0.49561 0.0
H853 H 0.554 0.45424 0.53749 0.0
H854 H 0.55347 0.54051 0.53329 0.0
H855 H 0.49851 0.45511 0.57563 0.0
H856 H 0.55368 0.48573 0.52325 0.0
H857 H 0.4975 0.50929 0.51344 0.0
C858 C 0.51003 0.53417 0.50777 0.0
C859 C 0.52578 0.54331 0.51297 0.0
C860 C 0.54156 0.47906 0.53488 0.0
C861 C 0.52536 0.50729 0.53264 0.0
C862 C 0.54172 0.46107 0.54267 0.0
C863 C 0.52624 0.45206 0.55772 0.0
C864 C 0.52579 0.48815 0.54129 0.0
C865 C 0.51073 0.46159 0.5642 0.0
C866 C 0.50974 0.51617 0.51811 0.0
C867 C 0.54103 0.53398 0.52897 0.0
N868 N 0.51087 0.47916 0.55556 0.0
N869 N 0.54045 0.51648 0.53775 0.0
H870 H 0.8422 0.25733 0.75289 0.0
H871 H 0.75596 0.19996 0.71906 0.0
H872 H 0.84069 0.20254 0.80379 0.0
H873 H 0.75541 0.25601 0.72273 0.0
H874 H 0.78732 0.20047 0.74239 0.0
H875 H 0.81067 0.25695 0.73367 0.0
C876 C 0.83523 0.24521 0.75996 0.0
C877 C 0.84406 0.22993 0.77985 0.0
C878 C 0.78033 0.21265 0.73835 0.0
C879 C 0.80803 0.22939 0.75772 0.0
C880 C 0.76244 0.21238 0.72485 0.0
C881 C 0.75309 0.22797 0.71889 0.0
C882 C 0.78896 0.22864 0.7452 0.0
C883 C 0.76213 0.24368 0.72704 0.0
C884 C 0.81723 0.24502 0.74923 0.0
C885 C 0.83438 0.21462 0.78857 0.0
N886 N 0.7796 0.24362 0.73942 0.0
N887 N 0.81689 0.21472 0.77711 0.0
H888 H 0.25846 0.23505 0.77533 0.0
H889 H 0.34465 0.29006 0.68963 0.0
H890 H 0.25989 0.29107 0.77488 0.0
H891 H 0.34514 0.2353 0.74133 0.0
H892 H 0.31308 0.2904 0.70828 0.0
H893 H 0.28976 0.23457 0.7494 0.0
C894 C 0.26534 0.24724 0.76927 0.0
C895 C 0.2566 0.26312 0.77748 0.0
C896 C 0.32011 0.27831 0.7156 0.0
C897 C 0.29236 0.26268 0.74797 0.0
C898 C 0.33811 0.27811 0.7049 0.0
C899 C 0.34752 0.26265 0.71425 0.0
C900 C 0.31143 0.2629 0.73513 0.0
C901 C 0.3384 0.24753 0.73395 0.0
C902 C 0.28321 0.24696 0.75481 0.0
C903 C 0.26614 0.27854 0.76926 0.0
N904 N 0.32085 0.24803 0.74358 0.0
N905 N 0.28351 0.27794 0.75497 0.0
H906 H 0.25221 0.7555 0.24769 0.0
H907 H 0.33902 0.69875 0.26952 0.0
H908 H 0.25267 0.70006 0.21194 0.0
H909 H 0.33918 0.75408 0.23073 0.0
H910 H 0.3072 0.69887 0.25998 0.0
H911 H 0.28404 0.75518 0.25371 0.0
C912 C 0.25902 0.74326 0.24122 0.0
C913 C 0.24982 0.72778 0.22927 0.0
C914 C 0.31423 0.71096 0.25324 0.0
C915 C 0.28616 0.72732 0.23646 0.0
C916 C 0.33236 0.71091 0.25884 0.0
C917 C 0.34172 0.72643 0.25083 0.0
C918 C 0.30541 0.72668 0.24062 0.0
C919 C 0.33246 0.74181 0.23699 0.0
C920 C 0.27717 0.7431 0.24436 0.0
C921 C 0.25928 0.7123 0.22103 0.0
N922 N 0.3148 0.74157 0.23279 0.0
N923 N 0.27695 0.71244 0.22517 0.0
H924 H 0.59544 0.03106 0.58651 0.0
H925 H 0.53722 0.94608 0.53779 0.0
H926 H 0.5401 0.03301 0.54522 0.0
H927 H 0.59277 0.9463 0.50138 0.0
H928 H 0.538 0.97759 0.55501 0.0
H929 H 0.59468 -0.00049 0.57007 0.0
C930 C 0.58312 0.02483 0.57423 0.0
C931 C 0.5678 0.03463 0.56712 0.0
C932 C 0.55 0.97074 0.54312 0.0
C933 C 0.56684 -0.00139 0.54864 0.0
C934 C 0.54959 0.95276 0.53355 0.0
C935 C 0.56496 0.9436 0.5181 0.0
C936 C 0.56594 0.97956 0.53821 0.0
C937 C 0.58061 0.9529 0.51296 0.0
C938 C 0.58272 0.00686 0.56454 0.0
C939 C 0.55221 0.02593 0.55091 0.0
N940 N 0.58072 0.97038 0.52339 0.0
N941 N 0.55211 0.00838 0.54253 0.0
H942 H 0.05562 0.9539 0.98996 0.0
H943 H -0.00048 0.04102 0.96523 0.0
H944 H 0.00028 0.95453 0.03222 0.0
H945 H 0.05503 0.03996 1.00261 0.0
H946 H -0.00095 0.00917 0.97331 0.0
H947 H 0.05511 0.9854 0.97617 0.0
C948 C 0.04332 0.96066 0.99587 0.0
C949 C 0.02797 0.95161 1.01252 0.0
C950 C 0.01129 0.01596 0.97984 0.0
C951 C 0.02731 0.98769 0.99685 0.0
C952 C 0.01158 0.03408 0.97509 0.0
C953 C 0.02733 0.0431 0.98348 0.0
C954 C 0.02691 0.00687 0.99187 0.0
C955 C 0.04259 0.03353 0.99621 0.0
C956 C 0.04306 0.97866 0.98835 0.0
C957 C 0.01242 0.96105 0.01967 0.0
N958 N 0.04201 0.01594 0.99966 0.0
N959 N 0.01247 0.97863 1.01171 0.0
H960 H 0.15203 0.70249 0.20786 0.0
H961 H 0.1158 0.60643 0.14552 0.0
H962 H 0.18366 0.66037 0.12361 0.0
H963 H 0.08549 0.64808 0.24181 0.0
H964 H 0.14089 0.62573 0.13889 0.0
H965 H 0.12756 0.68274 0.21908 0.0
C966 C 0.15384 0.68912 0.19089 0.0
C967 C 0.16999 0.68313 0.16431 0.0
C968 C 0.1288 0.63064 0.1619 0.0
C969 C 0.14187 0.66028 0.17832 0.0
C970 C 0.11445 0.61962 0.16584 0.0
C971 C 0.09846 0.6257 0.19379 0.0
C972 C 0.12718 0.64791 0.18581 0.0
C973 C 0.09755 0.64284 0.21995 0.0
C974 C 0.13982 0.67779 0.19793 0.0
C975 C 0.17146 0.66558 0.14411 0.0
N976 N 0.11168 0.6534 0.21478 0.0
N977 N 0.15757 0.65476 0.15161 0.0
H978 H 0.60243 0.85627 0.51702 0.0
H979 H 0.66496 0.79826 0.26913 0.0
H980 H 0.59185 0.84723 0.28208 0.0
H981 H 0.6539 0.78503 0.49986 0.0
H982 H 0.64218 0.82049 0.27377 0.0
H983 H 0.62544 0.83429 0.51242 0.0
C984 C 0.60508 0.84979 0.46424 0.0
C985 C 0.5953 0.85361 0.3996 0.0
C986 C 0.6448 0.81274 0.32334 0.0
C987 C 0.62162 0.82861 0.39418 0.0
C988 C 0.65787 0.80018 0.32106 0.0
C989 C 0.66136 0.7899 0.38448 0.0
C990 C 0.63543 0.81529 0.38999 0.0
C991 C 0.65158 0.79271 0.44986 0.0
C992 C 0.61809 0.83717 0.46194 0.0
C993 C 0.5991 0.84463 0.33306 0.0
N994 N 0.63913 0.80529 0.45122 0.0
N995 N 0.61211 0.83262 0.33182 0.0
H996 H 0.47848 0.37636 0.63815 0.0
H997 H 0.46164 0.27514 0.57875 0.0
H998 H 0.51777 0.33757 0.68223 0.0
H999 H 0.42017 0.31136 0.62598 0.0
H1000 H 0.48283 0.29856 0.59769 0.0
H1001 H 0.45714 0.3532 0.61857 0.0
C1002 C 0.48256 0.36297 0.64462 0.0
C1003 C 0.49988 0.35888 0.66239 0.0
C1004 C 0.46908 0.30137 0.60342 0.0
C1005 C 0.47568 0.33235 0.63803 0.0
C1006 C 0.45698 0.28808 0.59172 0.0
C1007 C 0.43913 0.29135 0.60061 0.0
C1008 C 0.46324 0.31806 0.623 0.0
C1009 C 0.43382 0.3083 0.61864 0.0
C1010 C 0.4704 0.34978 0.6332 0.0
C1011 C 0.5045 0.34131 0.66954 0.0
N1012 N 0.44582 0.32103 0.6291 0.0
N1013 N 0.4925 0.32867 0.65656 0.0
H1014 H 0.00373 0.14225 0.76398 0.0
H1015 H 0.94408 0.20462 1.00731 0.0
H1016 H 0.99407 0.13219 0.9989 0.0
H1017 H 0.93093 0.19197 0.77803 0.0
H1018 H 0.96671 0.18198 1.00452 0.0
H1019 H 0.98097 0.1648 0.76665 0.0
C1020 C -0.00317 0.1448 0.81591 0.0
C1021 C 0.00061 0.13528 0.88105 0.0
C1022 C 0.95877 0.18418 0.95509 0.0
C1023 C 0.9751 0.16111 0.88494 0.0
C1024 C 0.94593 0.19704 0.95665 0.0
C1025 C 0.93553 0.19997 0.89319 0.0
C1026 C 0.96149 0.17461 0.88891 0.0
C1027 C 0.93848 0.1899 0.82861 0.0
C1028 C 0.98388 0.15757 0.81738 0.0
C1029 C 0.99136 0.13909 0.94714 0.0
N1030 N 0.95132 0.17777 0.82783 0.0
N1031 N 0.97913 0.15182 0.94761 0.0
H1032 H 0.16098 0.28924 0.8795 0.0
H1033 H 0.12128 0.3845 0.85524 0.0
H1034 H 0.1926 0.33421 0.83105 0.0
H1035 H 0.09079 0.33857 0.81115 0.0
H1036 H 0.14752 0.36653 0.86082 0.0
H1037 H 0.13495 0.3075 0.87269 0.0
C1038 C 0.16248 0.303 0.8685 0.0
C1039 C 0.179 0.31023 0.85575 0.0
C1040 C 0.13511 0.36042 0.84927 0.0
C1041 C 0.14927 0.3311 0.84745 0.0
C1042 C 0.12015 0.37064 0.84596 0.0
C1043 C 0.10387 0.36299 0.83243 0.0
C1044 C 0.13374 0.34237 0.84047 0.0
C1045 C 0.10312 0.34499 0.82099 0.0
C1046 C 0.1476 0.31335 0.86384 0.0
C1047 C 0.18013 0.3281 0.84109 0.0
N1048 N 0.11785 0.33523 0.82609 0.0
N1049 N 0.16545 0.33794 0.83746 0.0
H1050 H 0.00509 0.85481 0.26058 0.0
H1051 H 0.94588 0.78918 0.03242 0.0
H1052 H 0.99503 0.86201 0.02412 0.0
H1053 H 0.93275 0.80419 0.25904 0.0
H1054 H 0.96817 0.81209 0.03006 0.0
H1055 H 0.9825 0.83212 0.26356 0.0
C1056 C -0.00189 0.85162 0.20951 0.0
C1057 C 0.0017 0.86039 0.14228 0.0
C1058 C 0.96033 0.81035 0.08007 0.0
C1059 C 0.97641 0.83439 0.14479 0.0
C1060 C 0.94768 0.79731 0.08147 0.0
C1061 C 0.93739 0.79495 0.14567 0.0
C1062 C 0.96297 0.82068 0.14407 0.0
C1063 C 0.94026 0.80577 0.20802 0.0
C1064 C 0.98526 0.83877 0.21125 0.0
C1065 C 0.9924 0.85576 0.07739 0.0
N1066 N 0.95291 0.81807 0.20597 0.0
N1067 N 0.98028 0.84295 0.08005 0.0
H1068 H 0.50311 0.64024 0.26593 0.0
H1069 H 0.43861 0.70208 0.48845 0.0
H1070 H 0.49062 0.63142 0.4992 0.0
H1071 H 0.43013 0.68957 0.25493 0.0
H1072 H 0.46142 0.6797 0.4936 0.0
H1073 H 0.47984 0.6622 0.26022 0.0
C1074 C 0.49546 0.64292 0.31574 0.0
C1075 C 0.4986 0.63392 0.38285 0.0
C1076 C 0.45447 0.68185 0.44145 0.0
C1077 C 0.47245 0.65908 0.37725 0.0
C1078 C 0.44153 0.69459 0.43847 0.0
C1079 C 0.43242 0.69752 0.37142 0.0
C1080 C 0.45858 0.67237 0.37639 0.0
C1081 C 0.4367 0.68753 0.30804 0.0
C1082 C 0.48221 0.65536 0.31243 0.0
C1083 C 0.4884 0.63787 0.44602 0.0
N1084 N 0.44961 0.6755 0.31184 0.0
N1085 N 0.47587 0.65028 0.4419 0.0
H1086 H 0.66654 0.18014 0.48787 0.0
H1087 H 0.59532 0.13967 0.75952 0.0
H1088 H 0.66641 0.19084 0.72608 0.0
H1089 H 0.61309 0.11381 0.55837 0.0
H1090 H 0.61902 0.16086 0.74485 0.0
H1091 H 0.6443 0.1579 0.50837 0.0
C1092 C 0.66185 0.17786 0.54442 0.0
C1093 C 0.66829 0.18749 0.60524 0.0
C1094 C 0.61775 0.15041 0.70448 0.0
C1095 C 0.64276 0.16221 0.62886 0.0
C1096 C 0.60426 0.13836 0.71277 0.0
C1097 C 0.60226 0.12492 0.66033 0.0
C1098 C 0.629 0.14917 0.64245 0.0
C1099 C 0.61418 0.12385 0.60059 0.0
C1100 C 0.64921 0.16513 0.55608 0.0
C1101 C 0.66176 0.18387 0.6774 0.0
N1102 N 0.62691 0.13591 0.59287 0.0
N1103 N 0.64923 0.17163 0.68715 0.0
H1104 H -0.00164 0.35065 0.0136 0.0
H1105 H 0.97128 0.27312 0.73844 0.0
H1106 H 0.0342 0.32674 0.85828 0.0
H1107 H 0.93792 0.29418 0.91124 0.0
H1108 H 0.99486 0.29191 0.78296 0.0
H1109 H 0.97649 0.32901 0.98001 0.0
C1110 C 0.00167 0.34069 0.97301 0.0
C1111 C 0.01805 0.34052 0.93834 0.0
C1112 C 0.98236 0.29238 0.81104 0.0
C1113 C 0.99302 0.31584 0.89866 0.0
C1114 C 0.9689 0.28166 0.78565 0.0
C1115 C 0.95249 0.2822 0.82047 0.0
C1116 C 0.9794 0.30369 0.87172 0.0
C1117 C 0.95017 0.2936 0.88129 0.0
C1118 C 0.98918 0.32835 0.95372 0.0
C1119 C 0.02174 0.32725 0.88662 0.0
N1120 N 0.96343 0.30388 0.90474 0.0
N1121 N 0.00924 0.31554 0.86762 0.0
H1122 H 0.53505 0.15852 0.63849 0.0
H1123 H 0.43859 0.1948 0.57369 0.0
H1124 H 0.49714 0.13412 0.49409 0.0
H1125 H 0.47258 0.21392 0.74842 0.0
H1126 H 0.46105 0.17435 0.53574 0.0
H1127 H 0.51373 0.1811 0.66895 0.0
C1128 C 0.52234 0.15807 0.61222 0.0
C1129 C 0.51785 0.14438 0.5638 0.0
C1130 C 0.46362 0.18298 0.58251 0.0
C1131 C 0.49333 0.17003 0.59929 0.0
C1132 C 0.45071 0.19459 0.60482 0.0
C1133 C 0.45353 0.20597 0.66534 0.0
C1134 C 0.47962 0.18272 0.62046 0.0
C1135 C 0.4698 0.20544 0.70146 0.0
C1136 C 0.51012 0.17087 0.63024 0.0
C1137 C 0.5011 0.14432 0.53232 0.0
N1138 N 0.48221 0.19396 0.6786 0.0
N1139 N 0.48945 0.1569 0.55076 0.0
H1140 H 0.62739 0.71446 0.23856 0.0
H1141 H 0.60583 0.63675 0.52321 0.0
H1142 H 0.66436 0.69329 0.39706 0.0
H1143 H 0.56683 0.66226 0.38782 0.0
H1144 H 0.62759 0.65711 0.4756 0.0
H1145 H 0.60515 0.69498 0.28947 0.0
C1146 C 0.63087 0.70573 0.28386 0.0
C1147 C 0.64787 0.7055 0.3131 0.0
C1148 C 0.61425 0.65835 0.45664 0.0
C1149 C 0.62244 0.68313 0.37155 0.0
C1150 C 0.60183 0.64671 0.4838 0.0
C1151 C 0.58449 0.64779 0.45943 0.0
C1152 C 0.60936 0.6711 0.40414 0.0
C1153 C 0.58001 0.66107 0.40879 0.0
C1154 C 0.61816 0.69459 0.31287 0.0
C1155 C 0.65159 0.69373 0.37141 0.0
N1156 N 0.59238 0.67212 0.3824 0.0
N1157 N 0.63902 0.68306 0.39859 0.0
H1158 H 0.06708 0.83203 0.13956 0.0
H1159 H 0.16699 0.80429 0.18632 0.0
H1160 H 0.10977 0.86002 0.03834 0.0
H1161 H 0.1238 0.77364 0.26612 0.0
H1162 H 0.14646 0.82652 0.1434 0.0
H1163 H 0.08782 0.81147 0.19282 0.0
C1164 C 0.0808 0.83373 0.12751 0.0
C1165 C 0.08664 0.84778 0.08395 0.0
C1166 C 0.14148 0.81501 0.17101 0.0
C1167 C 0.11057 0.82446 0.14682 0.0
C1168 C 0.15321 0.80243 0.1964 0.0
C1169 C 0.14706 0.78709 0.22958 0.0
C1170 C 0.1235 0.81221 0.17904 0.0
C1171 C 0.12906 0.78522 0.24016 0.0
C1172 C 0.09266 0.82208 0.15881 0.0
C1173 C 0.10465 0.84951 0.0721 0.0
N1174 N 0.11791 0.79757 0.21449 0.0
N1175 N 0.11597 0.83801 0.10342 0.0
H1176 H 0.94132 0.69073 0.32182 0.0
H1177 H 0.01996 0.66426 0.05054 0.0
H1178 H 0.96697 0.72712 0.1744 0.0
H1179 H 0.00036 0.63131 0.22783 0.0
H1180 H 0.00049 0.6874 0.09347 0.0
H1181 H 0.96278 0.66868 0.28714 0.0
C1182 C 0.95156 0.69411 0.2826 0.0
C1183 C 0.95234 0.71077 0.25087 0.0
C1184 C 0.00049 0.67509 0.12292 0.0
C1185 C 0.97687 0.68556 0.21029 0.0
C1186 C 0.01162 0.66187 0.09851 0.0
C1187 C 0.01173 0.64569 0.13504 0.0
C1188 C 0.98933 0.67212 0.18418 0.0
C1189 C 0.00048 0.64337 0.1966 0.0
C1190 C 0.96382 0.68153 0.26285 0.0
C1191 C 0.96598 0.71449 0.20079 0.0
N1192 N 0.98974 0.65638 0.21895 0.0
N1193 N 0.97761 0.70194 0.18149 0.0
H1194 H 0.13274 0.22791 0.92904 0.0
H1195 H 0.10391 0.12879 0.90736 0.0
H1196 H 0.1674 0.1871 0.85557 0.0
H1197 H 0.07756 0.16664 0.04606 0.0
H1198 H 0.12616 0.1503 0.87865 0.0
H1199 H 0.11102 0.20605 0.96103 0.0
C1200 C 0.13585 0.21436 0.91988 0.0
C1201 C 0.15207 0.20938 0.89014 0.0
C1202 C 0.11556 0.15385 0.91571 0.0
C1203 C 0.12702 0.18427 0.92558 0.0
C1204 C 0.10288 0.14152 0.93281 0.0
C1205 C 0.08876 0.1458 0.97968 0.0
C1206 C 0.11408 0.17071 0.94474 0.0
C1207 C 0.088 0.16274 1.0089 0.0
C1208 C 0.1234 0.20189 0.93801 0.0
C1209 C 0.15507 0.19161 0.87765 0.0
N1210 N 0.10042 0.17458 0.99065 0.0
N1211 N 0.14267 0.1797 0.89544 0.0
H1212 H 0.63672 0.28197 0.75638 0.0
H1213 H 0.6035 0.35875 0.49159 0.0
H1214 H 0.65969 0.29267 0.54029 0.0
H1215 H 0.56967 0.33269 0.64866 0.0
H1216 H 0.62637 0.33745 0.51945 0.0
H1217 H 0.61418 0.3039 0.73016 0.0
C1218 C 0.63711 0.28913 0.70398 0.0
C1219 C 0.64996 0.28561 0.65028 0.0
C1220 C 0.6139 0.33634 0.54742 0.0
C1221 C 0.62446 0.31047 0.62 0.0
C1222 C 0.60089 0.34845 0.53151 0.0
C1223 C 0.58469 0.34734 0.56751 0.0
C1224 C 0.6108 0.32327 0.60083 0.0
C1225 C 0.58193 0.33381 0.61902 0.0
C1226 C 0.62422 0.30147 0.68875 0.0
C1227 C 0.6499 0.29505 0.58286 0.0
N1228 N 0.59492 0.32237 0.6347 0.0
N1229 N 0.63736 0.3071 0.56966 0.0
H1230 H 0.52008 0.8162 0.50808 0.0
H1231 H 0.42684 0.80062 0.35118 0.0
H1232 H 0.48999 0.85994 0.42647 0.0
H1233 H 0.4697 0.77064 0.26035 0.0
H1234 H 0.44773 0.82048 0.40675 0.0
H1235 H 0.49937 0.79672 0.44705 0.0
C1236 C 0.50925 0.82185 0.47785 0.0
C1237 C 0.50708 0.83999 0.47273 0.0
C1238 C 0.45243 0.80952 0.37438 0.0
C1239 C 0.48301 0.8175 0.40534 0.0
C1240 C 0.44053 0.7982 0.34141 0.0
C1241 C 0.44627 0.78369 0.29995 0.0
C1242 C 0.47024 0.80611 0.3683 0.0
C1243 C 0.4644 0.78125 0.29282 0.0
C1244 C 0.49742 0.81063 0.4433 0.0
C1245 C 0.49226 0.8462 0.43419 0.0
N1246 N 0.47573 0.79221 0.32751 0.0
N1247 N 0.48078 0.83499 0.40254 0.0
loop_
_geom_bond_atom_site_label_1
_geom_bond_atom_site_label_2
_geom_bond_distance
_geom_bond_site_symmetry_2
_ccdc_geom_bond_type
Co0 N4 2.148 1_554 S
Co0 N10 2.128 . S
Co0 N20 2.194 . S
Co0 O25 2.351 . S
Co0 O26 2.155 . S
Co0 O27 2.096 . S
C1 N4 1.301 . S
C1 N5 1.328 . S
C1 H6 0.930 . S
C2 C3 1.333 . S
C2 N4 1.317 . S
C2 H7 0.930 . S
C3 C2 1.333 . S
C3 N5 1.350 . S
C3 H29 0.931 . S
N4 Co0 2.148 1_556 S
N4 C1 1.301 . S
N4 C2 1.317 . S
N5 C1 1.328 . S
N5 C3 1.350 . S
H6 C1 0.930 . S
H7 C2 0.930 . S
C8 O9 1.224 . S
C8 O27 1.247 . S
O9 C8 1.224 . S
N10 Co0 2.128 . S
N10 C11 1.355 . S
N10 C13 1.311 . S
C11 N10 1.355 . S
C11 C12 1.363 . S
C11 H23 0.929 . S
C12 C11 1.363 . S
C12 N14 1.375 . S
C12 H30 0.931 . S
C13 N10 1.311 . S
C13 N14 1.347 . S
C13 H24 0.929 . S
N14 C12 1.375 . S
N14 C13 1.347 . S
C15 C18 1.365 . S
C15 N20 1.328 . S
C15 H21 0.929 . S
C16 C17 1.362 . S
C16 C19 1.378 . S
C16 H31 0.929 . S
C17 C16 1.362 . S
C17 C18 1.366 . S
C18 C15 1.365 . S
C18 C17 1.366 . S
C18 H32 0.930 . S
C19 C16 1.378 . S
C19 N20 1.315 . S
C19 H22 0.930 . S
N20 Co0 2.194 . S
N20 C15 1.328 . S
N20 C19 1.315 . S
H21 C15 0.929 . S
H22 C19 0.930 . S
H23 C11 0.929 . S
H24 C13 0.929 . S
O25 Co0 2.351 . S
O25 C28 1.244 . S
O26 Co0 2.155 . S
O26 C28 1.240 . S
O27 Co0 2.096 . S
O27 C8 1.247 . S
C28 O25 1.244 . S
C28 O26 1.240 . S
H29 C3 0.931 . S
H30 C12 0.931 . S
H31 C16 0.929 . S
H32 C18 0.930 . S
Co33 N37 2.148 . S
Co33 N43 2.128 . S
Co33 N53 2.194 . S
Co33 O58 2.351 . S
Co33 O59 2.155 . S
Co33 O60 2.096 . S
C34 N37 1.301 . S
C34 N38 1.328 . S
C34 H39 0.930 . S
C35 C36 1.333 . S
C35 N37 1.317 . S
C35 H40 0.930 . S
C36 C35 1.333 . S
C36 N38 1.350 . S
C36 H62 0.931 . S
N37 Co33 2.148 . S
N37 C34 1.301 . S
N37 C35 1.317 . S
N38 C34 1.328 . S
N38 C36 1.350 . S
H39 C34 0.930 . S
H40 C35 0.930 . S
C41 O42 1.224 . S
C41 O60 1.247 . S
O42 C41 1.224 . S
N43 Co33 2.128 . S
N43 C44 1.355 . S
N43 C46 1.311 . S
C44 N43 1.355 . S
C44 C45 1.363 . S
C44 H56 0.929 . S
C45 C44 1.363 . S
C45 N47 1.375 . S
C45 H63 0.931 . S
C46 N43 1.311 . S
C46 N47 1.347 . S
C46 H57 0.929 . S
N47 C45 1.375 . S
N47 C46 1.347 . S
C48 C51 1.365 . S
C48 N53 1.328 . S
C48 H54 0.929 . S
C49 C50 1.362 . S
C49 C52 1.378 . S
C49 H64 0.929 . S
C50 C49 1.362 . S
C50 C51 1.366 . S
C51 C48 1.365 . S
C51 C50 1.366 . S
C51 H65 0.930 . S
C52 C49 1.378 . S
C52 N53 1.315 . S
C52 H55 0.930 . S
N53 Co33 2.194 . S
N53 C48 1.328 . S
N53 C52 1.315 . S
H54 C48 0.929 . S
H55 C52 0.930 . S
H56 C44 0.929 . S
H57 C46 0.929 . S
O58 Co33 2.351 . S
O58 C61 1.244 . S
O59 Co33 2.155 . S
O59 C61 1.240 . S
O60 Co33 2.096 . S
O60 C41 1.247 . S
C61 O58 1.244 . S
C61 O59 1.240 . S
H62 C36 0.931 . S
H63 C45 0.931 . S
H64 C49 0.929 . S
H65 C51 0.930 . S
Co66 N70 2.148 . S
Co66 N76 2.128 . S
Co66 N86 2.194 . S
Co66 O91 2.351 . S
Co66 O92 2.155 . S
Co66 O93 2.096 . S
C67 N70 1.301 . S
C67 N71 1.328 . S
C67 H72 0.930 . S
C68 C69 1.333 . S
C68 N70 1.317 . S
C68 H73 0.930 . S
C69 C68 1.333 . S
C69 N71 1.350 . S
C69 H95 0.931 . S
N70 Co66 2.148 . S
N70 C67 1.301 . S
N70 C68 1.317 . S
N71 C67 1.328 . S
N71 C69 1.350 . S
H72 C67 0.930 . S
H73 C68 0.930 . S
C74 O75 1.224 . S
C74 O93 1.247 . S
O75 C74 1.224 . S
N76 Co66 2.128 . S
N76 C77 1.355 . S
N76 C79 1.311 . S
C77 N76 1.355 . S
C77 C78 1.363 . S
C77 H89 0.929 . S
C78 C77 1.363 . S
C78 N80 1.375 . S
C78 H96 0.931 . S
C79 N76 1.311 . S
C79 N80 1.347 . S
C79 H90 0.929 . S
N80 C78 1.375 . S
N80 C79 1.347 . S
C81 C84 1.365 . S
C81 N86 1.328 . S
C81 H87 0.929 . S
C82 C83 1.362 . S
C82 C85 1.378 . S
C82 H97 0.929 . S
C83 C82 1.362 . S
C83 C84 1.366 . S
C84 C81 1.365 . S
C84 C83 1.366 . S
C84 H98 0.930 . S
C85 C82 1.378 . S
C85 N86 1.315 . S
C85 H88 0.930 . S
N86 Co66 2.194 . S
N86 C81 1.328 . S
N86 C85 1.315 . S
H87 C81 0.929 . S
H88 C85 0.930 . S
H89 C77 0.929 . S
H90 C79 0.929 . S
O91 Co66 2.351 . S
O91 C94 1.244 . S
O92 Co66 2.155 . S
O92 C94 1.240 . S
O93 Co66 2.096 . S
O93 C74 1.247 . S
C94 O91 1.244 . S
C94 O92 1.240 . S
H95 C69 0.931 . S
H96 C78 0.931 . S
H97 C82 0.929 . S
H98 C84 0.930 . S
Co99 N103 2.148 . S
Co99 N109 2.128 . S
Co99 N119 2.194 . S
Co99 O124 2.351 . S
Co99 O125 2.155 . S
Co99 O126 2.096 . S
C100 N103 1.301 . S
C100 N104 1.328 . S
C100 H105 0.930 . S
C101 C102 1.333 . S
C101 N103 1.317 . S
C101 H106 0.930 . S
C102 C101 1.333 . S
C102 N104 1.350 . S
C102 H128 0.931 . S
N103 Co99 2.148 . S
N103 C100 1.301 . S
N103 C101 1.317 . S
N104 C100 1.328 . S
N104 C102 1.350 . S
H105 C100 0.930 . S
H106 C101 0.930 . S
C107 O108 1.224 . S
C107 O126 1.247 . S
O108 C107 1.224 . S
N109 Co99 2.128 . S
N109 C110 1.355 . S
N109 C112 1.311 1_556 S
C110 N109 1.355 . S
C110 C111 1.363 1_556 S
C110 H122 0.929 . S
C111 C110 1.363 1_554 S
C111 N113 1.375 . S
C111 H129 0.931 . S
C112 N109 1.311 1_554 S
C112 N113 1.347 . S
C112 H123 0.928 1_554 S
N113 C111 1.375 . S
N113 C112 1.347 . S
C114 C117 1.365 . S
C114 N119 1.328 . S
C114 H120 0.929 . S
C115 C116 1.362 . S
C115 C118 1.378 . S
C115 H130 0.929 . S
C116 C115 1.362 . S
C116 C117 1.366 . S
C117 C114 1.365 . S
C117 C116 1.366 . S
C117 H131 0.930 . S
C118 C115 1.378 . S
C118 N119 1.315 . S
C118 H121 0.930 . S
N119 Co99 2.194 . S
N119 C114 1.328 . S
N119 C118 1.315 . S
H120 C114 0.929 . S
H121 C118 0.930 . S
H122 C110 0.929 . S
H123 C112 0.928 1_556 S
O124 Co99 2.351 . S
O124 C127 1.244 . S
O125 Co99 2.155 . S
O125 C127 1.240 . S
O126 Co99 2.096 . S
O126 C107 1.247 . S
C127 O124 1.244 . S
C127 O125 1.240 . S
H128 C102 0.931 . S
H129 C111 0.931 . S
H130 C115 0.929 . S
H131 C117 0.930 . S
Co132 N136 2.148 1_556 S
Co132 N142 2.128 . S
Co132 N152 2.194 . S
Co132 O157 2.351 . S
Co132 O158 2.155 . S
Co132 O159 2.096 . S
C133 N136 1.301 . S
C133 N137 1.328 . S
C133 H138 0.930 . S
C134 C135 1.333 . S
C134 N136 1.317 . S
C134 H139 0.930 . S
C135 C134 1.333 . S
C135 N137 1.350 . S
C135 H161 0.931 . S
N136 Co132 2.148 1_554 S
N136 C133 1.301 . S
N136 C134 1.317 . S
N137 C133 1.328 . S
N137 C135 1.350 . S
H138 C133 0.930 . S
H139 C134 0.930 . S
C140 O141 1.224 . S
C140 O159 1.247 . S
O141 C140 1.224 . S
N142 Co132 2.128 . S
N142 C143 1.355 . S
N142 C145 1.311 . S
C143 N142 1.355 . S
C143 C144 1.363 . S
C143 H155 0.929 . S
C144 C143 1.363 . S
C144 N146 1.375 . S
C144 H162 0.931 . S
C145 N142 1.311 . S
C145 N146 1.347 . S
C145 H156 0.929 . S
N146 C144 1.375 . S
N146 C145 1.347 . S
C147 C150 1.365 . S
C147 N152 1.328 . S
C147 H153 0.929 . S
C148 C149 1.362 . S
C148 C151 1.378 . S
C148 H163 0.929 . S
C149 C148 1.362 . S
C149 C150 1.366 . S
C150 C147 1.365 . S
C150 C149 1.366 . S
C150 H164 0.930 . S
C151 C148 1.378 . S
C151 N152 1.315 . S
C151 H154 0.930 . S
N152 Co132 2.194 . S
N152 C147 1.328 . S
N152 C151 1.315 . S
H153 C147 0.929 . S
H154 C151 0.930 . S
H155 C143 0.929 . S
H156 C145 0.929 . S
O157 Co132 2.351 . S
O157 C160 1.244 . S
O158 Co132 2.155 . S
O158 C160 1.240 . S
O159 Co132 2.096 . S
O159 C140 1.247 . S
C160 O157 1.244 . S
C160 O158 1.240 . S
H161 C135 0.931 . S
H162 C144 0.931 . S
H163 C148 0.929 . S
H164 C150 0.930 . S
Co165 N169 2.148 . S
Co165 N175 2.128 . S
Co165 N185 2.194 . S
Co165 O190 2.351 . S
Co165 O191 2.155 . S
Co165 O192 2.096 . S
C166 N169 1.301 . S
C166 N170 1.328 . S
C166 H171 0.930 . S
C167 C168 1.333 . S
C167 N169 1.317 . S
C167 H172 0.930 . S
C168 C167 1.333 . S
C168 N170 1.350 . S
C168 H194 0.931 . S
N169 Co165 2.148 . S
N169 C166 1.301 . S
N169 C167 1.317 . S
N170 C166 1.328 . S
N170 C168 1.350 . S
H171 C166 0.930 . S
H172 C167 0.930 . S
C173 O174 1.224 . S
C173 O192 1.247 . S
O174 C173 1.224 . S
N175 Co165 2.128 . S
N175 C176 1.355 . S
N175 C178 1.311 1_554 S
C176 N175 1.355 . S
C176 C177 1.363 1_554 S
C176 H188 0.929 . S
C177 C176 1.363 1_556 S
C177 N179 1.375 . S
C177 H195 0.931 . S
C178 N175 1.311 1_556 S
C178 N179 1.347 . S
C178 H189 0.928 1_556 S
N179 C177 1.375 . S
N179 C178 1.347 . S
C180 C183 1.365 . S
C180 N185 1.328 . S
C180 H186 0.929 . S
C181 C182 1.362 . S
C181 C184 1.378 . S
C181 H196 0.929 . S
C182 C181 1.362 . S
C182 C183 1.366 . S
C183 C180 1.365 . S
C183 C182 1.366 . S
C183 H197 0.930 . S
C184 C181 1.378 . S
C184 N185 1.315 . S
C184 H187 0.930 . S
N185 Co165 2.194 . S
N185 C180 1.328 . S
N185 C184 1.315 . S
H186 C180 0.929 . S
H187 C184 0.930 . S
H188 C176 0.929 . S
H189 C178 0.928 1_554 S
O190 Co165 2.351 . S
O190 C193 1.244 . S
O191 Co165 2.155 . S
O191 C193 1.240 . S
O192 Co165 2.096 . S
O192 C173 1.247 . S
C193 O190 1.244 . S
C193 O191 1.240 . S
H194 C168 0.931 . S
H195 C177 0.931 . S
H196 C181 0.929 . S
H197 C183 0.930 . S
Co198 N202 2.148 . S
Co198 N208 2.128 . S
Co198 N218 2.194 . S
Co198 O223 2.351 . S
Co198 O224 2.155 . S
Co198 O225 2.096 . S
C199 N202 1.301 . S
C199 N203 1.328 . S
C199 H204 0.930 . S
C200 C201 1.333 . S
C200 N202 1.317 . S
C200 H205 0.930 . S
C201 C200 1.333 . S
C201 N203 1.350 . S
C201 H227 0.931 . S
N202 Co198 2.148 . S
N202 C199 1.301 . S
N202 C200 1.317 . S
N203 C199 1.328 . S
N203 C201 1.350 . S
H204 C199 0.930 . S
H205 C200 0.930 . S
C206 O207 1.224 . S
C206 O225 1.247 . S
O207 C206 1.224 . S
N208 Co198 2.128 . S
N208 C209 1.355 . S
N208 C211 1.311 . S
C209 N208 1.355 . S
C209 C210 1.363 . S
C209 H221 0.929 . S
C210 C209 1.363 . S
C210 N212 1.375 . S
C210 H228 0.931 . S
C211 N208 1.311 . S
C211 N212 1.347 . S
C211 H222 0.929 . S
N212 C210 1.375 . S
N212 C211 1.347 . S
C213 C216 1.365 . S
C213 N218 1.328 . S
C213 H219 0.929 . S
C214 C215 1.362 . S
C214 C217 1.378 . S
C214 H229 0.929 . S
C215 C214 1.362 . S
C215 C216 1.366 . S
C216 C213 1.365 . S
C216 C215 1.366 . S
C216 H230 0.930 . S
C217 C214 1.378 . S
C217 N218 1.315 . S
C217 H220 0.930 . S
N218 Co198 2.194 . S
N218 C213 1.328 . S
N218 C217 1.315 . S
H219 C213 0.929 . S
H220 C217 0.930 . S
H221 C209 0.929 . S
H222 C211 0.929 . S
O223 Co198 2.351 . S
O223 C226 1.244 . S
O224 Co198 2.155 . S
O224 C226 1.240 . S
O225 Co198 2.096 . S
O225 C206 1.247 . S
C226 O223 1.244 . S
C226 O224 1.240 . S
H227 C201 0.931 . S
H228 C210 0.931 . S
H229 C214 0.929 . S
H230 C216 0.930 . S
Co231 N235 2.148 . S
Co231 N241 2.128 . S
Co231 N251 2.194 . S
Co231 O256 2.351 . S
Co231 O257 2.155 . S
Co231 O258 2.096 . S
C232 N235 1.301 . S
C232 N236 1.328 . S
C232 H237 0.930 . S
C233 C234 1.333 . S
C233 N235 1.317 . S
C233 H238 0.930 . S
C234 C233 1.333 . S
C234 N236 1.350 . S
C234 H260 0.931 . S
N235 Co231 2.148 . S
N235 C232 1.301 . S
N235 C233 1.317 . S
N236 C232 1.328 . S
N236 C234 1.350 . S
H237 C232 0.930 . S
H238 C233 0.930 . S
C239 O240 1.224 . S
C239 O258 1.247 . S
O240 C239 1.224 . S
N241 Co231 2.128 . S
N241 C242 1.355 . S
N241 C244 1.311 . S
C242 N241 1.355 . S
C242 C243 1.363 . S
C242 H254 0.929 . S
C243 C242 1.363 . S
C243 N245 1.375 . S
C243 H261 0.931 . S
C244 N241 1.311 . S
C244 N245 1.347 . S
C244 H255 0.929 . S
N245 C243 1.375 . S
N245 C244 1.347 . S
C246 C249 1.365 . S
C246 N251 1.328 . S
C246 H252 0.929 . S
C247 C248 1.362 . S
C247 C250 1.378 . S
C247 H262 0.929 . S
C248 C247 1.362 . S
C248 C249 1.366 . S
C249 C246 1.365 . S
C249 C248 1.366 . S
C249 H263 0.930 . S
C250 C247 1.378 . S
C250 N251 1.315 . S
C250 H253 0.930 . S
N251 Co231 2.194 . S
N251 C246 1.328 . S
N251 C250 1.315 . S
H252 C246 0.929 . S
H253 C250 0.930 . S
H254 C242 0.929 . S
H255 C244 0.929 . S
O256 Co231 2.351 . S
O256 C259 1.244 . S
O257 Co231 2.155 . S
O257 C259 1.240 . S
O258 Co231 2.096 . S
O258 C239 1.247 . S
C259 O256 1.244 . S
C259 O257 1.240 . S
H260 C234 0.931 . S
H261 C243 0.931 . S
H262 C247 0.929 . S
H263 C249 0.930 . S
Co264 N268 2.148 . S
Co264 N274 2.128 . S
Co264 N284 2.194 . S
Co264 O289 2.351 . S
Co264 O290 2.155 . S
Co264 O291 2.096 . S
C265 N268 1.301 . S
C265 N269 1.328 . S
C265 H270 0.930 . S
C266 C267 1.333 . S
C266 N268 1.317 . S
C266 H271 0.930 . S
C267 C266 1.333 . S
C267 N269 1.350 . S
C267 H293 0.931 . S
N268 Co264 2.148 . S
N268 C265 1.301 . S
N268 C266 1.317 . S
N269 C265 1.328 . S
N269 C267 1.350 . S
H270 C265 0.930 . S
H271 C266 0.930 . S
C272 O273 1.224 . S
C272 O291 1.247 . S
O273 C272 1.224 . S
N274 Co264 2.128 . S
N274 C275 1.355 . S
N274 C277 1.311 . S
C275 N274 1.355 . S
C275 C276 1.363 . S
C275 H287 0.929 . S
C276 C275 1.363 . S
C276 N278 1.375 . S
C276 H294 0.931 . S
C277 N274 1.311 . S
C277 N278 1.347 . S
C277 H288 0.929 . S
N278 C276 1.375 . S
N278 C277 1.347 . S
C279 C282 1.365 . S
C279 N284 1.328 . S
C279 H285 0.929 . S
C280 C281 1.362 . S
C280 C283 1.378 . S
C280 H295 0.929 . S
C281 C280 1.362 . S
C281 C282 1.366 . S
C282 C279 1.365 . S
C282 C281 1.366 . S
C282 H296 0.930 . S
C283 C280 1.378 . S
C283 N284 1.315 . S
C283 H286 0.930 . S
N284 Co264 2.194 . S
N284 C279 1.328 . S
N284 C283 1.315 . S
H285 C279 0.929 . S
H286 C283 0.930 . S
H287 C275 0.929 . S
H288 C277 0.929 . S
O289 Co264 2.351 . S
O289 C292 1.244 . S
O290 Co264 2.155 . S
O290 C292 1.240 . S
O291 Co264 2.096 . S
O291 C272 1.247 . S
C292 O289 1.244 . S
C292 O290 1.240 . S
H293 C267 0.931 . S
H294 C276 0.931 . S
H295 C280 0.929 . S
H296 C282 0.930 . S
Co297 N301 2.148 . S
Co297 N307 2.128 . S
Co297 N317 2.194 . S
Co297 O322 2.351 . S
Co297 O323 2.155 . S
Co297 O324 2.096 . S
C298 N301 1.301 . S
C298 N302 1.328 . S
C298 H303 0.930 . S
C299 C300 1.333 . S
C299 N301 1.317 . S
C299 H304 0.930 . S
C300 C299 1.333 . S
C300 N302 1.350 . S
C300 H326 0.931 . S
N301 Co297 2.148 . S
N301 C298 1.301 . S
N301 C299 1.317 . S
N302 C298 1.328 . S
N302 C300 1.350 . S
H303 C298 0.930 . S
H304 C299 0.930 . S
C305 O306 1.224 . S
C305 O324 1.247 . S
O306 C305 1.224 . S
N307 Co297 2.128 . S
N307 C308 1.355 . S
N307 C310 1.311 1_554 S
C308 N307 1.355 . S
C308 C309 1.363 1_554 S
C308 H320 0.929 . S
C309 C308 1.363 1_556 S
C309 N311 1.375 . S
C309 H327 0.931 . S
C310 N307 1.311 1_556 S
C310 N311 1.347 . S
C310 H321 0.928 1_556 S
N311 C309 1.375 . S
N311 C310 1.347 . S
C312 C315 1.365 . S
C312 N317 1.328 . S
C312 H318 0.929 . S
C313 C314 1.362 . S
C313 C316 1.378 . S
C313 H328 0.929 . S
C314 C313 1.362 . S
C314 C315 1.366 . S
C315 C312 1.365 . S
C315 C314 1.366 . S
C315 H329 0.930 . S
C316 C313 1.378 . S
C316 N317 1.315 . S
C316 H319 0.930 . S
N317 Co297 2.194 . S
N317 C312 1.328 . S
N317 C316 1.315 . S
H318 C312 0.929 . S
H319 C316 0.930 . S
H320 C308 0.929 . S
H321 C310 0.928 1_554 S
O322 Co297 2.351 . S
O322 C325 1.244 . S
O323 Co297 2.155 . S
O323 C325 1.240 . S
O324 Co297 2.096 . S
O324 C305 1.247 . S
C325 O322 1.244 . S
C325 O323 1.240 . S
H326 C300 0.931 . S
H327 C309 0.931 . S
H328 C313 0.929 . S
H329 C315 0.930 . S
Co330 N334 2.148 . S
Co330 N340 2.128 . S
Co330 N350 2.194 . S
Co330 O355 2.351 . S
Co330 O356 2.155 . S
Co330 O357 2.096 . S
C331 N334 1.301 . S
C331 N335 1.328 . S
C331 H336 0.930 . S
C332 C333 1.333 . S
C332 N334 1.317 . S
C332 H337 0.930 . S
C333 C332 1.333 . S
C333 N335 1.350 . S
C333 H359 0.931 . S
N334 Co330 2.148 . S
N334 C331 1.301 . S
N334 C332 1.317 . S
N335 C331 1.328 . S
N335 C333 1.350 . S
H336 C331 0.930 . S
H337 C332 0.930 . S
C338 O339 1.224 . S
C338 O357 1.247 . S
O339 C338 1.224 . S
N340 Co330 2.128 . S
N340 C341 1.355 . S
N340 C343 1.311 1_556 S
C341 N340 1.355 . S
C341 C342 1.363 1_556 S
C341 H353 0.929 . S
C342 C341 1.363 1_554 S
C342 N344 1.375 . S
C342 H360 0.931 . S
C343 N340 1.311 1_554 S
C343 N344 1.347 . S
C343 H354 0.928 1_554 S
N344 C342 1.375 . S
N344 C343 1.347 . S
C345 C348 1.365 . S
C345 N350 1.328 . S
C345 H351 0.929 . S
C346 C347 1.362 . S
C346 C349 1.378 . S
C346 H361 0.929 . S
C347 C346 1.362 . S
C347 C348 1.366 . S
C348 C345 1.365 . S
C348 C347 1.366 . S
C348 H362 0.930 . S
C349 C346 1.378 . S
C349 N350 1.315 . S
C349 H352 0.930 . S
N350 Co330 2.194 . S
N350 C345 1.328 . S
N350 C349 1.315 . S
H351 C345 0.929 . S
H352 C349 0.930 . S
H353 C341 0.929 . S
H354 C343 0.928 1_556 S
O355 Co330 2.351 . S
O355 C358 1.244 . S
O356 Co330 2.155 . S
O356 C358 1.240 . S
O357 Co330 2.096 . S
O357 C338 1.247 . S
C358 O355 1.244 . S
C358 O356 1.240 . S
H359 C333 0.931 . S
H360 C342 0.931 . S
H361 C346 0.929 . S
H362 C348 0.930 . S
Co363 N367 2.148 . S
Co363 N373 2.128 . S
Co363 N383 2.194 . S
Co363 O388 2.351 . S
Co363 O389 2.155 . S
Co363 O390 2.096 . S
C364 N367 1.301 . S
C364 N368 1.328 . S
C364 H369 0.930 . S
C365 C366 1.333 . S
C365 N367 1.317 . S
C365 H370 0.930 . S
C366 C365 1.333 . S
C366 N368 1.350 . S
C366 H392 0.931 . S
N367 Co363 2.148 . S
N367 C364 1.301 . S
N367 C365 1.317 . S
N368 C364 1.328 . S
N368 C366 1.350 . S
H369 C364 0.930 . S
H370 C365 0.930 . S
C371 O372 1.224 . S
C371 O390 1.247 . S
O372 C371 1.224 . S
N373 Co363 2.128 . S
N373 C374 1.355 . S
N373 C376 1.311 . S
C374 N373 1.355 . S
C374 C375 1.363 . S
C374 H386 0.929 . S
C375 C374 1.363 . S
C375 N377 1.375 . S
C375 H393 0.931 . S
C376 N373 1.311 . S
C376 N377 1.347 . S
C376 H387 0.929 . S
N377 C375 1.375 . S
N377 C376 1.347 . S
C378 C381 1.365 . S
C378 N383 1.328 . S
C378 H384 0.929 . S
C379 C380 1.362 . S
C379 C382 1.378 . S
C379 H394 0.929 . S
C380 C379 1.362 . S
C380 C381 1.366 . S
C381 C378 1.365 . S
C381 C380 1.366 . S
C381 H395 0.930 . S
C382 C379 1.378 . S
C382 N383 1.315 . S
C382 H385 0.930 . S
N383 Co363 2.194 . S
N383 C378 1.328 . S
N383 C382 1.315 . S
H384 C378 0.929 . S
H385 C382 0.930 . S
H386 C374 0.929 . S
H387 C376 0.929 . S
O388 Co363 2.351 . S
O388 C391 1.244 . S
O389 Co363 2.155 . S
O389 C391 1.240 . S
O390 Co363 2.096 . S
O390 C371 1.247 . S
C391 O388 1.244 . S
C391 O389 1.240 . S
H392 C366 0.931 . S
H393 C375 0.931 . S
H394 C379 0.929 . S
H395 C381 0.930 . S
Co396 N400 2.148 . S
Co396 N406 2.128 . S
Co396 N416 2.194 . S
Co396 O421 2.351 . S
Co396 O422 2.155 . S
Co396 O423 2.096 . S
C397 N400 1.301 . S
C397 N401 1.328 . S
C397 H402 0.930 . S
C398 C399 1.333 . S
C398 N400 1.317 . S
C398 H403 0.930 . S
C399 C398 1.333 . S
C399 N401 1.350 . S
C399 H425 0.931 . S
N400 Co396 2.148 . S
N400 C397 1.301 . S
N400 C398 1.317 . S
N401 C397 1.328 . S
N401 C399 1.350 . S
H402 C397 0.930 . S
H403 C398 0.930 . S
C404 O405 1.224 . S
C404 O423 1.247 . S
O405 C404 1.224 . S
N406 Co396 2.128 . S
N406 C407 1.355 . S
N406 C409 1.311 . S
C407 N406 1.355 . S
C407 C408 1.363 . S
C407 H419 0.929 . S
C408 C407 1.363 . S
C408 N410 1.375 . S
C408 H426 0.931 . S
C409 N406 1.311 . S
C409 N410 1.347 . S
C409 H420 0.929 . S
N410 C408 1.375 . S
N410 C409 1.347 . S
C411 C414 1.365 . S
C411 N416 1.328 . S
C411 H417 0.929 . S
C412 C413 1.362 . S
C412 C415 1.378 . S
C412 H427 0.929 . S
C413 C412 1.362 . S
C413 C414 1.366 . S
C414 C411 1.365 . S
C414 C413 1.366 . S
C414 H428 0.930 . S
C415 C412 1.378 . S
C415 N416 1.315 . S
C415 H418 0.930 . S
N416 Co396 2.194 . S
N416 C411 1.328 . S
N416 C415 1.315 . S
H417 C411 0.929 . S
H418 C415 0.930 . S
H419 C407 0.929 . S
H420 C409 0.929 . S
O421 Co396 2.351 . S
O421 C424 1.244 . S
O422 Co396 2.155 . S
O422 C424 1.240 . S
O423 Co396 2.096 . S
O423 C404 1.247 . S
C424 O421 1.244 . S
C424 O422 1.240 . S
H425 C399 0.931 . S
H426 C408 0.931 . S
H427 C412 0.929 . S
H428 C414 0.930 . S
Co429 N433 2.148 1_554 S
Co429 N439 2.128 . S
Co429 N449 2.194 . S
Co429 O454 2.351 . S
Co429 O455 2.155 . S
Co429 O456 2.096 . S
C430 N433 1.301 . S
C430 N434 1.328 . S
C430 H435 0.930 . S
C431 C432 1.333 . S
C431 N433 1.317 . S
C431 H436 0.930 . S
C432 C431 1.333 . S
C432 N434 1.350 . S
C432 H458 0.931 . S
N433 Co429 2.148 1_556 S
N433 C430 1.301 . S
N433 C431 1.317 . S
N434 C430 1.328 . S
N434 C432 1.350 . S
H435 C430 0.930 . S
H436 C431 0.930 . S
C437 O438 1.224 . S
C437 O456 1.247 . S
O438 C437 1.224 . S
N439 Co429 2.128 . S
N439 C440 1.355 . S
N439 C442 1.311 . S
C440 N439 1.355 . S
C440 C441 1.363 . S
C440 H452 0.929 . S
C441 C440 1.363 . S
C441 N443 1.375 . S
C441 H459 0.931 . S
C442 N439 1.311 . S
C442 N443 1.347 . S
C442 H453 0.929 . S
N443 C441 1.375 . S
N443 C442 1.347 . S
C444 C447 1.365 . S
C444 N449 1.328 . S
C444 H450 0.929 . S
C445 C446 1.362 . S
C445 C448 1.378 . S
C445 H460 0.929 . S
C446 C445 1.362 . S
C446 C447 1.366 . S
C447 C444 1.365 . S
C447 C446 1.366 . S
C447 H461 0.930 . S
C448 C445 1.378 . S
C448 N449 1.315 . S
C448 H451 0.930 . S
N449 Co429 2.194 . S
N449 C444 1.328 . S
N449 C448 1.315 . S
H450 C444 0.929 . S
H451 C448 0.930 . S
H452 C440 0.929 . S
H453 C442 0.929 . S
O454 Co429 2.351 . S
O454 C457 1.244 . S
O455 Co429 2.155 . S
O455 C457 1.240 . S
O456 Co429 2.096 . S
O456 C437 1.247 . S
C457 O454 1.244 . S
C457 O455 1.240 . S
H458 C432 0.931 . S
H459 C441 0.931 . S
H460 C445 0.929 . S
H461 C447 0.930 . S
Co462 N466 2.148 . S
Co462 N472 2.128 . S
Co462 N482 2.194 . S
Co462 O487 2.351 . S
Co462 O488 2.155 . S
Co462 O489 2.096 . S
C463 N466 1.301 . S
C463 N467 1.328 . S
C463 H468 0.930 . S
C464 C465 1.333 . S
C464 N466 1.317 . S
C464 H469 0.930 . S
C465 C464 1.333 . S
C465 N467 1.350 . S
C465 H491 0.931 . S
N466 Co462 2.148 . S
N466 C463 1.301 . S
N466 C464 1.317 . S
N467 C463 1.328 . S
N467 C465 1.350 . S
H468 C463 0.930 . S
H469 C464 0.930 . S
C470 O471 1.224 . S
C470 O489 1.247 . S
O471 C470 1.224 . S
N472 Co462 2.128 . S
N472 C473 1.355 . S
N472 C475 1.311 . S
C473 N472 1.355 . S
C473 C474 1.363 . S
C473 H485 0.929 . S
C474 C473 1.363 . S
C474 N476 1.375 . S
C474 H492 0.931 . S
C475 N472 1.311 . S
C475 N476 1.347 . S
C475 H486 0.929 . S
N476 C474 1.375 . S
N476 C475 1.347 . S
C477 C480 1.365 . S
C477 N482 1.328 . S
C477 H483 0.929 . S
C478 C479 1.362 . S
C478 C481 1.378 . S
C478 H493 0.929 . S
C479 C478 1.362 . S
C479 C480 1.366 . S
C480 C477 1.365 . S
C480 C479 1.366 . S
C480 H494 0.930 . S
C481 C478 1.378 . S
C481 N482 1.315 . S
C481 H484 0.930 . S
N482 Co462 2.194 . S
N482 C477 1.328 . S
N482 C481 1.315 . S
H483 C477 0.929 . S
H484 C481 0.930 . S
H485 C473 0.929 . S
H486 C475 0.929 . S
O487 Co462 2.351 . S
O487 C490 1.244 . S
O488 Co462 2.155 . S
O488 C490 1.240 . S
O489 Co462 2.096 . S
O489 C470 1.247 . S
C490 O487 1.244 . S
C490 O488 1.240 . S
H491 C465 0.931 . S
H492 C474 0.931 . S
H493 C478 0.929 . S
H494 C480 0.930 . S
Co495 N499 2.148 1_556 S
Co495 N505 2.128 . S
Co495 N515 2.194 . S
Co495 O520 2.351 . S
Co495 O521 2.155 . S
Co495 O522 2.096 . S
C496 N499 1.301 . S
C496 N500 1.328 . S
C496 H501 0.930 . S
C497 C498 1.333 . S
C497 N499 1.317 . S
C497 H502 0.930 . S
C498 C497 1.333 . S
C498 N500 1.350 . S
C498 H524 0.931 . S
N499 Co495 2.148 1_554 S
N499 C496 1.301 . S
N499 C497 1.317 . S
N500 C496 1.328 . S
N500 C498 1.350 . S
H501 C496 0.930 . S
H502 C497 0.930 . S
C503 O504 1.224 . S
C503 O522 1.247 . S
O504 C503 1.224 . S
N505 Co495 2.128 . S
N505 C506 1.355 . S
N505 C508 1.311 . S
C506 N505 1.355 . S
C506 C507 1.363 . S
C506 H518 0.929 . S
C507 C506 1.363 . S
C507 N509 1.375 . S
C507 H525 0.931 . S
C508 N505 1.311 . S
C508 N509 1.347 . S
C508 H519 0.929 . S
N509 C507 1.375 . S
N509 C508 1.347 . S
C510 C513 1.365 . S
C510 N515 1.328 . S
C510 H516 0.929 . S
C511 C512 1.362 . S
C511 C514 1.378 . S
C511 H526 0.929 . S
C512 C511 1.362 . S
C512 C513 1.366 . S
C513 C510 1.365 . S
C513 C512 1.366 . S
C513 H527 0.930 . S
C514 C511 1.378 . S
C514 N515 1.315 . S
C514 H517 0.930 . S
N515 Co495 2.194 . S
N515 C510 1.328 . S
N515 C514 1.315 . S
H516 C510 0.929 . S
H517 C514 0.930 . S
H518 C506 0.929 . S
H519 C508 0.929 . S
O520 Co495 2.351 . S
O520 C523 1.244 . S
O521 Co495 2.155 . S
O521 C523 1.240 . S
O522 Co495 2.096 . S
O522 C503 1.247 . S
C523 O520 1.244 . S
C523 O521 1.240 . S
H524 C498 0.931 . S
H525 C507 0.931 . S
H526 C511 0.929 . S
H527 C513 0.930 . S
H528 C534 0.930 . S
H529 C538 0.930 . S
H530 C543 0.929 . S
H531 C541 0.929 . S
H532 C536 0.929 . S
H533 C542 0.929 . S
C534 H528 0.930 . S
C534 C535 1.367 . S
C534 C542 1.378 . S
C535 C534 1.367 . S
C535 C543 1.433 . S
C536 H532 0.929 . S
C536 C538 1.378 . S
C536 C540 1.350 . S
C537 C540 1.463 . S
C537 C542 1.350 . S
C537 N545 1.427 . S
C538 H529 0.930 . S
C538 C536 1.378 . S
C538 C539 1.367 . S
C539 C538 1.367 . S
C539 C541 1.433 . S
C540 C536 1.350 . S
C540 C537 1.463 . S
C540 N544 1.427 . S
C541 H531 0.929 . S
C541 C539 1.433 . S
C541 N544 1.384 . S
C542 H533 0.929 . S
C542 C534 1.378 . S
C542 C537 1.350 . S
C543 H530 0.929 . S
C543 C535 1.433 . S
C543 N545 1.384 . S
N544 C540 1.427 . S
N544 C541 1.384 . S
N545 C537 1.427 . S
N545 C543 1.384 . S
H546 C552 0.930 1_554 S
H547 C556 0.930 . S
H548 C561 0.929 1_554 S
H549 C559 0.929 . S
H550 C554 0.929 . S
H551 C560 0.929 . S
C552 H546 0.930 1_556 S
C552 C553 1.367 1_556 S
C552 C560 1.378 . S
C553 C552 1.367 1_554 S
C553 C561 1.433 1_554 S
C554 H550 0.929 . S
C554 C556 1.378 . S
C554 C558 1.350 . S
C555 C558 1.463 . S
C555 C560 1.350 . S
C555 N563 1.427 . S
C556 H547 0.930 . S
C556 C554 1.378 . S
C556 C557 1.367 . S
C557 C556 1.367 . S
C557 C559 1.433 . S
C558 C554 1.350 . S
C558 C555 1.463 . S
C558 N562 1.427 . S
C559 H549 0.929 . S
C559 C557 1.433 . S
C559 N562 1.384 . S
C560 H551 0.929 . S
C560 C552 1.378 . S
C560 C555 1.350 . S
C561 H548 0.929 1_556 S
C561 C553 1.433 1_556 S
C561 N563 1.384 . S
N562 C558 1.427 . S
N562 C559 1.384 . S
N563 C555 1.427 . S
N563 C561 1.384 . S
H564 C570 0.930 . S
H565 C574 0.930 . S
H566 C579 0.929 . S
H567 C577 0.929 . S
H568 C572 0.929 . S
H569 C578 0.929 . S
C570 H564 0.930 . S
C570 C571 1.367 . S
C570 C578 1.378 . S
C571 C570 1.367 . S
C571 C579 1.433 . S
C572 H568 0.929 . S
C572 C574 1.378 1_554 S
C572 C576 1.350 . S
C573 C576 1.463 . S
C573 C578 1.350 . S
C573 N581 1.427 . S
C574 H565 0.930 . S
C574 C572 1.378 1_556 S
C574 C575 1.367 . S
C575 C574 1.367 . S
C575 C577 1.433 . S
C576 C572 1.350 . S
C576 C573 1.463 . S
C576 N580 1.427 . S
C577 H567 0.929 . S
C577 C575 1.433 . S
C577 N580 1.384 1_556 S
C578 H569 0.929 . S
C578 C570 1.378 . S
C578 C573 1.350 . S
C579 H566 0.929 . S
C579 C571 1.433 . S
C579 N581 1.384 . S
N580 C576 1.427 . S
N580 C577 1.384 1_554 S
N581 C573 1.427 . S
N581 C579 1.384 . S
H582 C588 0.930 . S
H583 C592 0.930 . S
H584 C597 0.929 . S
H585 C595 0.929 . S
H586 C590 0.929 . S
H587 C596 0.929 . S
C588 H582 0.930 . S
C588 C589 1.367 . S
C588 C596 1.378 . S
C589 C588 1.367 . S
C589 C597 1.433 . S
C590 H586 0.929 . S
C590 C592 1.378 . S
C590 C594 1.350 . S
C591 C594 1.463 . S
C591 C596 1.350 . S
C591 N599 1.427 . S
C592 H583 0.930 . S
C592 C590 1.378 . S
C592 C593 1.367 . S
C593 C592 1.367 . S
C593 C595 1.433 . S
C594 C590 1.350 . S
C594 C591 1.463 . S
C594 N598 1.427 . S
C595 H585 0.929 . S
C595 C593 1.433 . S
C595 N598 1.384 . S
C596 H587 0.929 . S
C596 C588 1.378 . S
C596 C591 1.350 . S
C597 H584 0.929 . S
C597 C589 1.433 . S
C597 N599 1.384 . S
N598 C594 1.427 . S
N598 C595 1.384 . S
N599 C591 1.427 . S
N599 C597 1.384 . S
H600 C606 0.930 . S
H601 C610 0.930 . S
H602 C615 0.929 . S
H603 C613 0.929 . S
H604 C608 0.929 . S
H605 C614 0.929 . S
C606 H600 0.930 . S
C606 C607 1.367 . S
C606 C614 1.378 . S
C607 C606 1.367 . S
C607 C615 1.433 . S
C608 H604 0.929 . S
C608 C610 1.378 . S
C608 C612 1.350 . S
C609 C612 1.463 . S
C609 C614 1.350 . S
C609 N617 1.427 . S
C610 H601 0.930 . S
C610 C608 1.378 . S
C610 C611 1.367 . S
C611 C610 1.367 . S
C611 C613 1.433 . S
C612 C608 1.350 . S
C612 C609 1.463 . S
C612 N616 1.427 . S
C613 H603 0.929 . S
C613 C611 1.433 . S
C613 N616 1.384 . S
C614 H605 0.929 . S
C614 C606 1.378 . S
C614 C609 1.350 . S
C615 H602 0.929 . S
C615 C607 1.433 . S
C615 N617 1.384 . S
N616 C612 1.427 . S
N616 C613 1.384 . S
N617 C609 1.427 . S
N617 C615 1.384 . S
H618 C624 0.930 . S
H619 C628 0.930 . S
H620 C633 0.929 . S
H621 C631 0.929 . S
H622 C626 0.929 . S
H623 C632 0.929 . S
C624 H618 0.930 . S
C624 C625 1.367 . S
C624 C632 1.378 . S
C625 C624 1.367 . S
C625 C633 1.433 . S
C626 H622 0.929 . S
C626 C628 1.378 . S
C626 C630 1.350 . S
C627 C630 1.463 . S
C627 C632 1.350 . S
C627 N635 1.427 . S
C628 H619 0.930 . S
C628 C626 1.378 . S
C628 C629 1.367 . S
C629 C628 1.367 . S
C629 C631 1.433 . S
C630 C626 1.350 . S
C630 C627 1.463 . S
C630 N634 1.427 . S
C631 H621 0.929 . S
C631 C629 1.433 . S
C631 N634 1.384 . S
C632 H623 0.929 . S
C632 C624 1.378 . S
C632 C627 1.350 . S
C633 H620 0.929 . S
C633 C625 1.433 . S
C633 N635 1.384 . S
N634 C630 1.427 . S
N634 C631 1.384 . S
N635 C627 1.427 . S
N635 C633 1.384 . S
H636 C642 0.930 . S
H637 C646 0.930 . S
H638 C651 0.929 . S
H639 C649 0.929 . S
H640 C644 0.929 . S
H641 C650 0.929 . S
C642 H636 0.930 . S
C642 C643 1.367 . S
C642 C650 1.378 . S
C643 C642 1.367 . S
C643 C651 1.433 . S
C644 H640 0.929 . S
C644 C646 1.378 1_556 S
C644 C648 1.350 . S
C645 C648 1.463 . S
C645 C650 1.350 . S
C645 N653 1.427 . S
C646 H637 0.930 . S
C646 C644 1.378 1_554 S
C646 C647 1.367 . S
C647 C646 1.367 . S
C647 C649 1.433 . S
C648 C644 1.350 . S
C648 C645 1.463 . S
C648 N652 1.427 . S
C649 H639 0.929 . S
C649 C647 1.433 . S
C649 N652 1.384 1_554 S
C650 H641 0.929 . S
C650 C642 1.378 . S
C650 C645 1.350 . S
C651 H638 0.929 . S
C651 C643 1.433 . S
C651 N653 1.384 . S
N652 C648 1.427 . S
N652 C649 1.384 1_556 S
N653 C645 1.427 . S
N653 C651 1.384 . S
H654 C660 0.930 . S
H655 C664 0.930 1_556 S
H656 C669 0.929 . S
H657 C667 0.929 1_556 S
H658 C662 0.929 . S
H659 C668 0.929 . S
C660 H654 0.930 . S
C660 C661 1.367 . S
C660 C668 1.378 . S
C661 C660 1.367 . S
C661 C669 1.433 . S
C662 H658 0.929 . S
C662 C664 1.378 . S
C662 C666 1.350 . S
C663 C666 1.463 . S
C663 C668 1.350 . S
C663 N671 1.427 . S
C664 H655 0.930 1_554 S
C664 C662 1.378 . S
C664 C665 1.367 1_554 S
C665 C664 1.367 1_556 S
C665 C667 1.433 1_556 S
C666 C662 1.350 . S
C666 C663 1.463 . S
C666 N670 1.427 . S
C667 H657 0.929 1_554 S
C667 C665 1.433 1_554 S
C667 N670 1.384 . S
C668 H659 0.929 . S
C668 C660 1.378 . S
C668 C663 1.350 . S
C669 H656 0.929 . S
C669 C661 1.433 . S
C669 N671 1.384 . S
N670 C666 1.427 . S
N670 C667 1.384 . S
N671 C663 1.427 . S
N671 C669 1.384 . S
H672 C678 0.930 . S
H673 C682 0.930 1_556 S
H674 C687 0.929 . S
H675 C685 0.929 1_556 S
H676 C680 0.929 . S
H677 C686 0.929 . S
C678 H672 0.930 . S
C678 C679 1.367 . S
C678 C686 1.378 . S
C679 C678 1.367 . S
C679 C687 1.433 . S
C680 H676 0.929 . S
C680 C682 1.378 . S
C680 C684 1.350 . S
C681 C684 1.463 . S
C681 C686 1.350 . S
C681 N689 1.427 . S
C682 H673 0.930 1_554 S
C682 C680 1.378 . S
C682 C683 1.367 1_554 S
C683 C682 1.367 1_556 S
C683 C685 1.433 1_556 S
C684 C680 1.350 . S
C684 C681 1.463 . S
C684 N688 1.427 . S
C685 H675 0.929 1_554 S
C685 C683 1.433 1_554 S
C685 N688 1.384 . S
C686 H677 0.929 . S
C686 C678 1.378 . S
C686 C681 1.350 . S
C687 H674 0.929 . S
C687 C679 1.433 . S
C687 N689 1.384 . S
N688 C684 1.427 . S
N688 C685 1.384 . S
N689 C681 1.427 . S
N689 C687 1.384 . S
H690 C696 0.930 . S
H691 C700 0.930 . S
H692 C705 0.929 . S
H693 C703 0.929 . S
H694 C698 0.929 . S
H695 C704 0.929 . S
C696 H690 0.930 . S
C696 C697 1.367 . S
C696 C704 1.378 . S
C697 C696 1.367 . S
C697 C705 1.433 . S
C698 H694 0.929 . S
C698 C700 1.378 . S
C698 C702 1.350 . S
C699 C702 1.463 . S
C699 C704 1.350 . S
C699 N707 1.427 . S
C700 H691 0.930 . S
C700 C698 1.378 . S
C700 C701 1.367 . S
C701 C700 1.367 . S
C701 C703 1.433 . S
C702 C698 1.350 . S
C702 C699 1.463 . S
C702 N706 1.427 . S
C703 H693 0.929 . S
C703 C701 1.433 . S
C703 N706 1.384 . S
C704 H695 0.929 . S
C704 C696 1.378 . S
C704 C699 1.350 . S
C705 H692 0.929 . S
C705 C697 1.433 . S
C705 N707 1.384 . S
N706 C702 1.427 . S
N706 C703 1.384 . S
N707 C699 1.427 . S
N707 C705 1.384 . S
H708 C714 0.930 . S
H709 C718 0.930 . S
H710 C723 0.929 . S
H711 C721 0.929 . S
H712 C716 0.929 . S
H713 C722 0.929 . S
C714 H708 0.930 . S
C714 C715 1.367 . S
C714 C722 1.378 . S
C715 C714 1.367 . S
C715 C723 1.433 . S
C716 H712 0.929 . S
C716 C718 1.378 . S
C716 C720 1.350 . S
C717 C720 1.463 . S
C717 C722 1.350 . S
C717 N725 1.427 . S
C718 H709 0.930 . S
C718 C716 1.378 . S
C718 C719 1.367 . S
C719 C718 1.367 . S
C719 C721 1.433 . S
C720 C716 1.350 . S
C720 C717 1.463 . S
C720 N724 1.427 . S
C721 H711 0.929 . S
C721 C719 1.433 . S
C721 N724 1.384 . S
C722 H713 0.929 . S
C722 C714 1.378 . S
C722 C717 1.350 . S
C723 H710 0.929 . S
C723 C715 1.433 . S
C723 N725 1.384 . S
N724 C720 1.427 . S
N724 C721 1.384 . S
N725 C717 1.427 . S
N725 C723 1.384 . S
H726 C732 0.930 . S
H727 C736 0.930 1_554 S
H728 C741 0.929 . S
H729 C739 0.929 1_554 S
H730 C734 0.929 . S
H731 C740 0.929 . S
C732 H726 0.930 . S
C732 C733 1.367 . S
C732 C740 1.378 . S
C733 C732 1.367 . S
C733 C741 1.433 . S
C734 H730 0.929 . S
C734 C736 1.378 . S
C734 C738 1.350 . S
C735 C738 1.463 . S
C735 C740 1.350 . S
C735 N743 1.427 . S
C736 H727 0.930 1_556 S
C736 C734 1.378 . S
C736 C737 1.367 1_556 S
C737 C736 1.367 1_554 S
C737 C739 1.433 1_554 S
C738 C734 1.350 . S
C738 C735 1.463 . S
C738 N742 1.427 . S
C739 H729 0.929 1_556 S
C739 C737 1.433 1_556 S
C739 N742 1.384 . S
C740 H731 0.929 . S
C740 C732 1.378 . S
C740 C735 1.350 . S
C741 H728 0.929 . S
C741 C733 1.433 . S
C741 N743 1.384 . S
N742 C738 1.427 . S
N742 C739 1.384 . S
N743 C735 1.427 . S
N743 C741 1.384 . S
H744 C750 0.930 . S
H745 C754 0.930 . S
H746 C759 0.929 . S
H747 C757 0.929 . S
H748 C752 0.929 . S
H749 C758 0.929 . S
C750 H744 0.930 . S
C750 C751 1.367 . S
C750 C758 1.378 1_556 S
C751 C750 1.367 . S
C751 C759 1.433 . S
C752 H748 0.929 . S
C752 C754 1.378 . S
C752 C756 1.350 . S
C753 C756 1.463 . S
C753 C758 1.350 . S
C753 N761 1.427 . S
C754 H745 0.930 . S
C754 C752 1.378 . S
C754 C755 1.367 . S
C755 C754 1.367 . S
C755 C757 1.433 . S
C756 C752 1.350 . S
C756 C753 1.463 . S
C756 N760 1.427 . S
C757 H747 0.929 . S
C757 C755 1.433 . S
C757 N760 1.384 . S
C758 H749 0.929 . S
C758 C750 1.378 1_554 S
C758 C753 1.350 . S
C759 H746 0.929 . S
C759 C751 1.433 . S
C759 N761 1.384 1_556 S
N760 C756 1.427 . S
N760 C757 1.384 . S
N761 C753 1.427 . S
N761 C759 1.384 1_554 S
H762 C768 0.930 . S
H763 C772 0.930 . S
H764 C777 0.929 . S
H765 C775 0.929 . S
H766 C770 0.929 . S
H767 C776 0.929 . S
C768 H762 0.930 . S
C768 C769 1.367 . S
C768 C776 1.378 . S
C769 C768 1.367 . S
C769 C777 1.433 . S
C770 H766 0.929 . S
C770 C772 1.378 . S
C770 C774 1.350 . S
C771 C774 1.463 . S
C771 C776 1.350 . S
C771 N779 1.427 . S
C772 H763 0.930 . S
C772 C770 1.378 . S
C772 C773 1.367 . S
C773 C772 1.367 . S
C773 C775 1.433 . S
C774 C770 1.350 . S
C774 C771 1.463 . S
C774 N778 1.427 . S
C775 H765 0.929 . S
C775 C773 1.433 . S
C775 N778 1.384 . S
C776 H767 0.929 . S
C776 C768 1.378 . S
C776 C771 1.350 . S
C777 H764 0.929 . S
C777 C769 1.433 . S
C777 N779 1.384 . S
N778 C774 1.427 . S
N778 C775 1.384 . S
N779 C771 1.427 . S
N779 C777 1.384 . S
H780 C786 0.930 . S
H781 C790 0.930 . S
H782 C795 0.929 . S
H783 C793 0.929 . S
H784 C788 0.929 . S
H785 C794 0.929 . S
C786 H780 0.930 . S
C786 C787 1.367 . S
C786 C794 1.378 1_554 S
C787 C786 1.367 . S
C787 C795 1.433 . S
C788 H784 0.929 . S
C788 C790 1.378 . S
C788 C792 1.350 . S
C789 C792 1.463 . S
C789 C794 1.350 . S
C789 N797 1.427 . S
C790 H781 0.930 . S
C790 C788 1.378 . S
C790 C791 1.367 . S
C791 C790 1.367 . S
C791 C793 1.433 . S
C792 C788 1.350 . S
C792 C789 1.463 . S
C792 N796 1.427 . S
C793 H783 0.929 . S
C793 C791 1.433 . S
C793 N796 1.384 . S
C794 H785 0.929 . S
C794 C786 1.378 1_556 S
C794 C789 1.350 . S
C795 H782 0.929 . S
C795 C787 1.433 . S
C795 N797 1.384 1_554 S
N796 C792 1.427 . S
N796 C793 1.384 . S
N797 C789 1.427 . S
N797 C795 1.384 1_556 S
H798 C804 0.930 . S
H799 C808 0.930 . S
H800 C813 0.929 . S
H801 C811 0.929 . S
H802 C806 0.929 . S
H803 C812 0.929 . S
C804 H798 0.930 . S
C804 C805 1.367 . S
C804 C812 1.378 . S
C805 C804 1.367 . S
C805 C813 1.433 . S
C806 H802 0.929 . S
C806 C808 1.378 . S
C806 C810 1.350 . S
C807 C810 1.463 . S
C807 C812 1.350 . S
C807 N815 1.427 . S
C808 H799 0.930 . S
C808 C806 1.378 . S
C808 C809 1.367 . S
C809 C808 1.367 . S
C809 C811 1.433 . S
C810 C806 1.350 . S
C810 C807 1.463 . S
C810 N814 1.427 . S
C811 H801 0.929 . S
C811 C809 1.433 . S
C811 N814 1.384 . S
C812 H803 0.929 . S
C812 C804 1.378 . S
C812 C807 1.350 . S
C813 H800 0.929 . S
C813 C805 1.433 . S
C813 N815 1.384 . S
N814 C810 1.427 . S
N814 C811 1.384 . S
N815 C807 1.427 . S
N815 C813 1.384 . S
H816 C822 0.930 . S
H817 C826 0.930 . S
H818 C831 0.929 . S
H819 C829 0.929 . S
H820 C824 0.929 . S
H821 C830 0.929 . S
C822 H816 0.930 . S
C822 C823 1.367 1_556 S
C822 C830 1.378 . S
C823 C822 1.367 1_554 S
C823 C831 1.433 . S
C824 H820 0.929 . S
C824 C826 1.378 . S
C824 C828 1.350 1_554 S
C825 C828 1.463 1_554 S
C825 C830 1.350 1_554 S
C825 N833 1.427 . S
C826 H817 0.930 . S
C826 C824 1.378 . S
C826 C827 1.367 1_554 S
C827 C826 1.367 1_556 S
C827 C829 1.433 . S
C828 C824 1.350 1_556 S
C828 C825 1.463 1_556 S
C828 N832 1.427 . S
C829 H819 0.929 . S
C829 C827 1.433 . S
C829 N832 1.384 . S
C830 H821 0.929 . S
C830 C822 1.378 . S
C830 C825 1.350 1_556 S
C831 H818 0.929 . S
C831 C823 1.433 . S
C831 N833 1.384 . S
N832 C828 1.427 . S
N832 C829 1.384 . S
N833 C825 1.427 . S
N833 C831 1.384 . S
H834 C840 0.930 . S
H835 C844 0.930 . S
H836 C849 0.929 . S
H837 C847 0.929 . S
H838 C842 0.929 . S
H839 C848 0.929 . S
C840 H834 0.930 . S
C840 C841 1.367 . S
C840 C848 1.378 . S
C841 C840 1.367 . S
C841 C849 1.433 . S
C842 H838 0.929 . S
C842 C844 1.378 . S
C842 C846 1.350 . S
C843 C846 1.463 . S
C843 C848 1.350 . S
C843 N851 1.427 . S
C844 H835 0.930 . S
C844 C842 1.378 . S
C844 C845 1.367 . S
C845 C844 1.367 . S
C845 C847 1.433 . S
C846 C842 1.350 . S
C846 C843 1.463 . S
C846 N850 1.427 . S
C847 H837 0.929 . S
C847 C845 1.433 . S
C847 N850 1.384 . S
C848 H839 0.929 . S
C848 C840 1.378 . S
C848 C843 1.350 . S
C849 H836 0.929 . S
C849 C841 1.433 . S
C849 N851 1.384 . S
N850 C846 1.427 . S
N850 C847 1.384 . S
N851 C843 1.427 . S
N851 C849 1.384 . S
H852 C858 0.930 . S
H853 C862 0.930 . S
H854 C867 0.929 . S
H855 C865 0.929 . S
H856 C860 0.929 . S
H857 C866 0.929 . S
C858 H852 0.930 . S
C858 C859 1.367 . S
C858 C866 1.378 . S
C859 C858 1.367 . S
C859 C867 1.433 . S
C860 H856 0.929 . S
C860 C862 1.378 . S
C860 C864 1.350 . S
C861 C864 1.463 . S
C861 C866 1.350 . S
C861 N869 1.427 . S
C862 H853 0.930 . S
C862 C860 1.378 . S
C862 C863 1.367 . S
C863 C862 1.367 . S
C863 C865 1.433 . S
C864 C860 1.350 . S
C864 C861 1.463 . S
C864 N868 1.427 . S
C865 H855 0.929 . S
C865 C863 1.433 . S
C865 N868 1.384 . S
C866 H857 0.929 . S
C866 C858 1.378 . S
C866 C861 1.350 . S
C867 H854 0.929 . S
C867 C859 1.433 . S
C867 N869 1.384 . S
N868 C864 1.427 . S
N868 C865 1.384 . S
N869 C861 1.427 . S
N869 C867 1.384 . S
H870 C876 0.930 . S
H871 C880 0.930 . S
H872 C885 0.929 . S
H873 C883 0.929 . S
H874 C878 0.929 . S
H875 C884 0.929 . S
C876 H870 0.930 . S
C876 C877 1.367 . S
C876 C884 1.378 . S
C877 C876 1.367 . S
C877 C885 1.433 . S
C878 H874 0.929 . S
C878 C880 1.378 . S
C878 C882 1.350 . S
C879 C882 1.463 . S
C879 C884 1.350 . S
C879 N887 1.427 . S
C880 H871 0.930 . S
C880 C878 1.378 . S
C880 C881 1.367 . S
C881 C880 1.367 . S
C881 C883 1.433 . S
C882 C878 1.350 . S
C882 C879 1.463 . S
C882 N886 1.427 . S
C883 H873 0.929 . S
C883 C881 1.433 . S
C883 N886 1.384 . S
C884 H875 0.929 . S
C884 C876 1.378 . S
C884 C879 1.350 . S
C885 H872 0.929 . S
C885 C877 1.433 . S
C885 N887 1.384 . S
N886 C882 1.427 . S
N886 C883 1.384 . S
N887 C879 1.427 . S
N887 C885 1.384 . S
H888 C894 0.930 . S
H889 C898 0.930 . S
H890 C903 0.929 . S
H891 C901 0.929 . S
H892 C896 0.929 . S
H893 C902 0.929 . S
C894 H888 0.930 . S
C894 C895 1.367 . S
C894 C902 1.378 . S
C895 C894 1.367 . S
C895 C903 1.433 . S
C896 H892 0.929 . S
C896 C898 1.378 . S
C896 C900 1.350 . S
C897 C900 1.463 . S
C897 C902 1.350 . S
C897 N905 1.427 . S
C898 H889 0.930 . S
C898 C896 1.378 . S
C898 C899 1.367 . S
C899 C898 1.367 . S
C899 C901 1.433 . S
C900 C896 1.350 . S
C900 C897 1.463 . S
C900 N904 1.427 . S
C901 H891 0.929 . S
C901 C899 1.433 . S
C901 N904 1.384 . S
C902 H893 0.929 . S
C902 C894 1.378 . S
C902 C897 1.350 . S
C903 H890 0.929 . S
C903 C895 1.433 . S
C903 N905 1.384 . S
N904 C900 1.427 . S
N904 C901 1.384 . S
N905 C897 1.427 . S
N905 C903 1.384 . S
H906 C912 0.930 . S
H907 C916 0.930 . S
H908 C921 0.929 . S
H909 C919 0.929 . S
H910 C914 0.929 . S
H911 C920 0.929 . S
C912 H906 0.930 . S
C912 C913 1.367 . S
C912 C920 1.378 . S
C913 C912 1.367 . S
C913 C921 1.433 . S
C914 H910 0.929 . S
C914 C916 1.378 . S
C914 C918 1.350 . S
C915 C918 1.463 . S
C915 C920 1.350 . S
C915 N923 1.427 . S
C916 H907 0.930 . S
C916 C914 1.378 . S
C916 C917 1.367 . S
C917 C916 1.367 . S
C917 C919 1.433 . S
C918 C914 1.350 . S
C918 C915 1.463 . S
C918 N922 1.427 . S
C919 H909 0.929 . S
C919 C917 1.433 . S
C919 N922 1.384 . S
C920 H911 0.929 . S
C920 C912 1.378 . S
C920 C915 1.350 . S
C921 H908 0.929 . S
C921 C913 1.433 . S
C921 N923 1.384 . S
N922 C918 1.427 . S
N922 C919 1.384 . S
N923 C915 1.427 . S
N923 C921 1.384 . S
H924 C930 0.930 . S
H925 C934 0.930 . S
H926 C939 0.929 . S
H927 C937 0.929 . S
H928 C932 0.929 . S
H929 C938 0.929 . S
C930 H924 0.930 . S
C930 C931 1.367 . S
C930 C938 1.378 . S
C931 C930 1.367 . S
C931 C939 1.433 . S
C932 H928 0.929 . S
C932 C934 1.378 . S
C932 C936 1.350 . S
C933 C936 1.463 1_545 S
C933 C938 1.350 . S
C933 N941 1.427 . S
C934 H925 0.930 . S
C934 C932 1.378 . S
C934 C935 1.367 . S
C935 C934 1.367 . S
C935 C937 1.433 . S
C936 C932 1.350 . S
C936 C933 1.463 1_565 S
C936 N940 1.427 . S
C937 H927 0.929 . S
C937 C935 1.433 . S
C937 N940 1.384 . S
C938 H929 0.929 . S
C938 C930 1.378 . S
C938 C933 1.350 . S
C939 H926 0.929 . S
C939 C931 1.433 . S
C939 N941 1.384 . S
N940 C936 1.427 . S
N940 C937 1.384 . S
N941 C933 1.427 . S
N941 C939 1.384 . S
H942 C948 0.930 . S
H943 C952 0.930 . S
H944 C957 0.929 . S
H945 C955 0.929 . S
H946 C950 0.929 . S
H947 C956 0.929 . S
C948 H942 0.930 . S
C948 C949 1.367 . S
C948 C956 1.378 . S
C949 C948 1.367 . S
C949 C957 1.433 1_554 S
C950 H946 0.929 . S
C950 C952 1.378 . S
C950 C954 1.350 . S
C951 C954 1.463 1_564 S
C951 C956 1.350 . S
C951 N959 1.427 1_554 S
C952 H943 0.930 . S
C952 C950 1.378 . S
C952 C953 1.367 . S
C953 C952 1.367 . S
C953 C955 1.433 1_556 S
C954 C950 1.350 . S
C954 C951 1.463 1_546 S
C954 N958 1.427 1_556 S
C955 H945 0.929 . S
C955 C953 1.433 1_554 S
C955 N958 1.384 . S
C956 H947 0.929 . S
C956 C948 1.378 . S
C956 C951 1.350 . S
C957 H944 0.929 . S
C957 C949 1.433 1_556 S
C957 N959 1.384 . S
N958 C954 1.427 1_554 S
N958 C955 1.384 . S
N959 C951 1.427 1_556 S
N959 C957 1.384 . S
H960 C966 0.930 . S
H961 C970 0.930 . S
H962 C975 0.929 . S
H963 C973 0.929 . S
H964 C968 0.929 . S
H965 C974 0.929 . S
C966 H960 0.930 . S
C966 C967 1.367 . S
C966 C974 1.378 . S
C967 C966 1.367 . S
C967 C975 1.433 . S
C968 H964 0.929 . S
C968 C970 1.378 . S
C968 C972 1.350 . S
C969 C972 1.463 . S
C969 C974 1.350 . S
C969 N977 1.427 . S
C970 H961 0.930 . S
C970 C968 1.378 . S
C970 C971 1.367 . S
C971 C970 1.367 . S
C971 C973 1.433 . S
C972 C968 1.350 . S
C972 C969 1.463 . S
C972 N976 1.427 . S
C973 H963 0.929 . S
C973 C971 1.433 . S
C973 N976 1.384 . S
C974 H965 0.929 . S
C974 C966 1.378 . S
C974 C969 1.350 . S
C975 H962 0.929 . S
C975 C967 1.433 . S
C975 N977 1.384 . S
N976 C972 1.427 . S
N976 C973 1.384 . S
N977 C969 1.427 . S
N977 C975 1.384 . S
H978 C984 0.930 . S
H979 C988 0.930 . S
H980 C993 0.929 . S
H981 C991 0.929 . S
H982 C986 0.929 . S
H983 C992 0.929 . S
C984 H978 0.930 . S
C984 C985 1.367 . S
C984 C992 1.378 . S
C985 C984 1.367 . S
C985 C993 1.433 . S
C986 H982 0.929 . S
C986 C988 1.378 . S
C986 C990 1.350 . S
C987 C990 1.463 . S
C987 C992 1.350 . S
C987 N995 1.427 . S
C988 H979 0.930 . S
C988 C986 1.378 . S
C988 C989 1.367 . S
C989 C988 1.367 . S
C989 C991 1.433 . S
C990 C986 1.350 . S
C990 C987 1.463 . S
C990 N994 1.427 . S
C991 H981 0.929 . S
C991 C989 1.433 . S
C991 N994 1.384 . S
C992 H983 0.929 . S
C992 C984 1.378 . S
C992 C987 1.350 . S
C993 H980 0.929 . S
C993 C985 1.433 . S
C993 N995 1.384 . S
N994 C990 1.427 . S
N994 C991 1.384 . S
N995 C987 1.427 . S
N995 C993 1.384 . S
H996 C1002 0.930 . S
H997 C1006 0.930 . S
H998 C1011 0.929 . S
H999 C1009 0.929 . S
H1000 C1004 0.929 . S
H1001 C1010 0.929 . S
C1002 H996 0.930 . S
C1002 C1003 1.367 . S
C1002 C1010 1.378 . S
C1003 C1002 1.367 . S
C1003 C1011 1.433 . S
C1004 H1000 0.929 . S
C1004 C1006 1.378 . S
C1004 C1008 1.350 . S
C1005 C1008 1.463 . S
C1005 C1010 1.350 . S
C1005 N1013 1.427 . S
C1006 H997 0.930 . S
C1006 C1004 1.378 . S
C1006 C1007 1.367 . S
C1007 C1006 1.367 . S
C1007 C1009 1.433 . S
C1008 C1004 1.350 . S
C1008 C1005 1.463 . S
C1008 N1012 1.427 . S
C1009 H999 0.929 . S
C1009 C1007 1.433 . S
C1009 N1012 1.384 . S
C1010 H1001 0.929 . S
C1010 C1002 1.378 . S
C1010 C1005 1.350 . S
C1011 H998 0.929 . S
C1011 C1003 1.433 . S
C1011 N1013 1.384 . S
N1012 C1008 1.427 . S
N1012 C1009 1.384 . S
N1013 C1005 1.427 . S
N1013 C1011 1.384 . S
H1014 C1020 0.930 . S
H1015 C1024 0.930 . S
H1016 C1029 0.929 . S
H1017 C1027 0.929 . S
H1018 C1022 0.929 . S
H1019 C1028 0.929 . S
C1020 H1014 0.930 . S
C1020 C1021 1.367 . S
C1020 C1028 1.378 . S
C1021 C1020 1.367 . S
C1021 C1029 1.433 . S
C1022 H1018 0.929 . S
C1022 C1024 1.378 . S
C1022 C1026 1.350 . S
C1023 C1026 1.463 . S
C1023 C1028 1.350 . S
C1023 N1031 1.427 . S
C1024 H1015 0.930 . S
C1024 C1022 1.378 . S
C1024 C1025 1.367 . S
C1025 C1024 1.367 . S
C1025 C1027 1.433 . S
C1026 C1022 1.350 . S
C1026 C1023 1.463 . S
C1026 N1030 1.427 . S
C1027 H1017 0.929 . S
C1027 C1025 1.433 . S
C1027 N1030 1.384 . S
C1028 H1019 0.929 . S
C1028 C1020 1.378 . S
C1028 C1023 1.350 . S
C1029 H1016 0.929 . S
C1029 C1021 1.433 . S
C1029 N1031 1.384 . S
N1030 C1026 1.427 . S
N1030 C1027 1.384 . S
N1031 C1023 1.427 . S
N1031 C1029 1.384 . S
H1032 C1038 0.930 . S
H1033 C1042 0.930 . S
H1034 C1047 0.929 . S
H1035 C1045 0.929 . S
H1036 C1040 0.929 . S
H1037 C1046 0.929 . S
C1038 H1032 0.930 . S
C1038 C1039 1.367 . S
C1038 C1046 1.378 . S
C1039 C1038 1.367 . S
C1039 C1047 1.433 . S
C1040 H1036 0.929 . S
C1040 C1042 1.378 . S
C1040 C1044 1.350 . S
C1041 C1044 1.463 . S
C1041 C1046 1.350 . S
C1041 N1049 1.427 . S
C1042 H1033 0.930 . S
C1042 C1040 1.378 . S
C1042 C1043 1.367 . S
C1043 C1042 1.367 . S
C1043 C1045 1.433 . S
C1044 C1040 1.350 . S
C1044 C1041 1.463 . S
C1044 N1048 1.427 . S
C1045 H1035 0.929 . S
C1045 C1043 1.433 . S
C1045 N1048 1.384 . S
C1046 H1037 0.929 . S
C1046 C1038 1.378 . S
C1046 C1041 1.350 . S
C1047 H1034 0.929 . S
C1047 C1039 1.433 . S
C1047 N1049 1.384 . S
N1048 C1044 1.427 . S
N1048 C1045 1.384 . S
N1049 C1041 1.427 . S
N1049 C1047 1.384 . S
H1050 C1056 0.930 1_455 S
H1051 C1060 0.930 . S
H1052 C1065 0.929 . S
H1053 C1063 0.929 . S
H1054 C1058 0.929 . S
H1055 C1064 0.929 . S
C1056 H1050 0.930 1_655 S
C1056 C1057 1.367 . S
C1056 C1064 1.378 . S
C1057 C1056 1.367 . S
C1057 C1065 1.433 . S
C1058 H1054 0.929 . S
C1058 C1060 1.378 . S
C1058 C1062 1.350 . S
C1059 C1062 1.463 . S
C1059 C1064 1.350 . S
C1059 N1067 1.427 . S
C1060 H1051 0.930 . S
C1060 C1058 1.378 . S
C1060 C1061 1.367 . S
C1061 C1060 1.367 . S
C1061 C1063 1.433 . S
C1062 C1058 1.350 . S
C1062 C1059 1.463 . S
C1062 N1066 1.427 . S
C1063 H1053 0.929 . S
C1063 C1061 1.433 . S
C1063 N1066 1.384 . S
C1064 H1055 0.929 . S
C1064 C1056 1.378 . S
C1064 C1059 1.350 . S
C1065 H1052 0.929 . S
C1065 C1057 1.433 . S
C1065 N1067 1.384 . S
N1066 C1062 1.427 . S
N1066 C1063 1.384 . S
N1067 C1059 1.427 . S
N1067 C1065 1.384 . S
H1068 C1074 0.930 . S
H1069 C1078 0.930 . S
H1070 C1083 0.929 . S
H1071 C1081 0.929 . S
H1072 C1076 0.929 . S
H1073 C1082 0.929 . S
C1074 H1068 0.930 . S
C1074 C1075 1.367 . S
C1074 C1082 1.378 . S
C1075 C1074 1.367 . S
C1075 C1083 1.433 . S
C1076 H1072 0.929 . S
C1076 C1078 1.378 . S
C1076 C1080 1.350 . S
C1077 C1080 1.463 . S
C1077 C1082 1.350 . S
C1077 N1085 1.427 . S
C1078 H1069 0.930 . S
C1078 C1076 1.378 . S
C1078 C1079 1.367 . S
C1079 C1078 1.367 . S
C1079 C1081 1.433 . S
C1080 C1076 1.350 . S
C1080 C1077 1.463 . S
C1080 N1084 1.427 . S
C1081 H1071 0.929 . S
C1081 C1079 1.433 . S
C1081 N1084 1.384 . S
C1082 H1073 0.929 . S
C1082 C1074 1.378 . S
C1082 C1077 1.350 . S
C1083 H1070 0.929 . S
C1083 C1075 1.433 . S
C1083 N1085 1.384 . S
N1084 C1080 1.427 . S
N1084 C1081 1.384 . S
N1085 C1077 1.427 . S
N1085 C1083 1.384 . S
H1086 C1092 0.930 . S
H1087 C1096 0.930 . S
H1088 C1101 0.929 . S
H1089 C1099 0.929 . S
H1090 C1094 0.929 . S
H1091 C1100 0.929 . S
C1092 H1086 0.930 . S
C1092 C1093 1.367 . S
C1092 C1100 1.378 . S
C1093 C1092 1.367 . S
C1093 C1101 1.433 . S
C1094 H1090 0.929 . S
C1094 C1096 1.378 . S
C1094 C1098 1.350 . S
C1095 C1098 1.463 . S
C1095 C1100 1.350 . S
C1095 N1103 1.427 . S
C1096 H1087 0.930 . S
C1096 C1094 1.378 . S
C1096 C1097 1.367 . S
C1097 C1096 1.367 . S
C1097 C1099 1.433 . S
C1098 C1094 1.350 . S
C1098 C1095 1.463 . S
C1098 N1102 1.427 . S
C1099 H1089 0.929 . S
C1099 C1097 1.433 . S
C1099 N1102 1.384 . S
C1100 H1091 0.929 . S
C1100 C1092 1.378 . S
C1100 C1095 1.350 . S
C1101 H1088 0.929 . S
C1101 C1093 1.433 . S
C1101 N1103 1.384 . S
N1102 C1098 1.427 . S
N1102 C1099 1.384 . S
N1103 C1095 1.427 . S
N1103 C1101 1.384 . S
H1104 C1110 0.930 . S
H1105 C1114 0.930 . S
H1106 C1119 0.929 . S
H1107 C1117 0.929 . S
H1108 C1112 0.929 . S
H1109 C1118 0.929 . S
C1110 H1104 0.930 . S
C1110 C1111 1.367 1_655 S
C1110 C1118 1.378 . S
C1111 C1110 1.367 1_455 S
C1111 C1119 1.433 . S
C1112 H1108 0.929 . S
C1112 C1114 1.378 . S
C1112 C1116 1.350 . S
C1113 C1116 1.463 . S
C1113 C1118 1.350 . S
C1113 N1121 1.427 . S
C1114 H1105 0.930 . S
C1114 C1112 1.378 . S
C1114 C1115 1.367 . S
C1115 C1114 1.367 . S
C1115 C1117 1.433 . S
C1116 C1112 1.350 . S
C1116 C1113 1.463 . S
C1116 N1120 1.427 . S
C1117 H1107 0.929 . S
C1117 C1115 1.433 . S
C1117 N1120 1.384 . S
C1118 H1109 0.929 . S
C1118 C1110 1.378 . S
C1118 C1113 1.350 . S
C1119 H1106 0.929 . S
C1119 C1111 1.433 . S
C1119 N1121 1.384 1_455 S
N1120 C1116 1.427 . S
N1120 C1117 1.384 . S
N1121 C1113 1.427 . S
N1121 C1119 1.384 1_655 S
H1122 C1128 0.930 . S
H1123 C1132 0.930 . S
H1124 C1137 0.929 . S
H1125 C1135 0.929 . S
H1126 C1130 0.929 . S
H1127 C1136 0.929 . S
C1128 H1122 0.930 . S
C1128 C1129 1.367 . S
C1128 C1136 1.378 . S
C1129 C1128 1.367 . S
C1129 C1137 1.433 . S
C1130 H1126 0.929 . S
C1130 C1132 1.378 . S
C1130 C1134 1.350 . S
C1131 C1134 1.463 . S
C1131 C1136 1.350 . S
C1131 N1139 1.427 . S
C1132 H1123 0.930 . S
C1132 C1130 1.378 . S
C1132 C1133 1.367 . S
C1133 C1132 1.367 . S
C1133 C1135 1.433 . S
C1134 C1130 1.350 . S
C1134 C1131 1.463 . S
C1134 N1138 1.427 . S
C1135 H1125 0.929 . S
C1135 C1133 1.433 . S
C1135 N1138 1.384 . S
C1136 H1127 0.929 . S
C1136 C1128 1.378 . S
C1136 C1131 1.350 . S
C1137 H1124 0.929 . S
C1137 C1129 1.433 . S
C1137 N1139 1.384 . S
N1138 C1134 1.427 . S
N1138 C1135 1.384 . S
N1139 C1131 1.427 . S
N1139 C1137 1.384 . S
H1140 C1146 0.930 . S
H1141 C1150 0.930 . S
H1142 C1155 0.929 . S
H1143 C1153 0.929 . S
H1144 C1148 0.929 . S
H1145 C1154 0.929 . S
C1146 H1140 0.930 . S
C1146 C1147 1.367 . S
C1146 C1154 1.378 . S
C1147 C1146 1.367 . S
C1147 C1155 1.433 . S
C1148 H1144 0.929 . S
C1148 C1150 1.378 . S
C1148 C1152 1.350 . S
C1149 C1152 1.463 . S
C1149 C1154 1.350 . S
C1149 N1157 1.427 . S
C1150 H1141 0.930 . S
C1150 C1148 1.378 . S
C1150 C1151 1.367 . S
C1151 C1150 1.367 . S
C1151 C1153 1.433 . S
C1152 C1148 1.350 . S
C1152 C1149 1.463 . S
C1152 N1156 1.427 . S
C1153 H1143 0.929 . S
C1153 C1151 1.433 . S
C1153 N1156 1.384 . S
C1154 H1145 0.929 . S
C1154 C1146 1.378 . S
C1154 C1149 1.350 . S
C1155 H1142 0.929 . S
C1155 C1147 1.433 . S
C1155 N1157 1.384 . S
N1156 C1152 1.427 . S
N1156 C1153 1.384 . S
N1157 C1149 1.427 . S
N1157 C1155 1.384 . S
H1158 C1164 0.930 . S
H1159 C1168 0.930 . S
H1160 C1173 0.929 . S
H1161 C1171 0.929 . S
H1162 C1166 0.929 . S
H1163 C1172 0.929 . S
C1164 H1158 0.930 . S
C1164 C1165 1.367 . S
C1164 C1172 1.378 . S
C1165 C1164 1.367 . S
C1165 C1173 1.433 . S
C1166 H1162 0.929 . S
C1166 C1168 1.378 . S
C1166 C1170 1.350 . S
C1167 C1170 1.463 . S
C1167 C1172 1.350 . S
C1167 N1175 1.427 . S
C1168 H1159 0.930 . S
C1168 C1166 1.378 . S
C1168 C1169 1.367 . S
C1169 C1168 1.367 . S
C1169 C1171 1.433 . S
C1170 C1166 1.350 . S
C1170 C1167 1.463 . S
C1170 N1174 1.427 . S
C1171 H1161 0.929 . S
C1171 C1169 1.433 . S
C1171 N1174 1.384 . S
C1172 H1163 0.929 . S
C1172 C1164 1.378 . S
C1172 C1167 1.350 . S
C1173 H1160 0.929 . S
C1173 C1165 1.433 . S
C1173 N1175 1.384 . S
N1174 C1170 1.427 . S
N1174 C1171 1.384 . S
N1175 C1167 1.427 . S
N1175 C1173 1.384 . S
H1176 C1182 0.930 . S
H1177 C1186 0.929 1_455 S
H1178 C1191 0.929 . S
H1179 C1189 0.929 . S
H1180 C1184 0.929 . S
H1181 C1190 0.929 . S
C1182 H1176 0.930 . S
C1182 C1183 1.367 . S
C1182 C1190 1.378 . S
C1183 C1182 1.367 . S
C1183 C1191 1.433 . S
C1184 H1180 0.929 . S
C1184 C1186 1.380 . S
C1184 C1188 1.350 . S
C1185 C1188 1.463 . S
C1185 C1190 1.350 . S
C1185 N1193 1.427 . S
C1186 H1177 0.929 1_655 S
C1186 C1184 1.380 . S
C1186 C1187 1.366 1_655 S
C1187 C1186 1.366 1_455 S
C1187 C1189 1.433 1_455 S
C1188 C1184 1.350 . S
C1188 C1185 1.463 . S
C1188 N1192 1.427 . S
C1189 H1179 0.929 . S
C1189 C1187 1.433 1_655 S
C1189 N1192 1.384 . S
C1190 H1181 0.929 . S
C1190 C1182 1.378 . S
C1190 C1185 1.350 . S
C1191 H1178 0.929 . S
C1191 C1183 1.433 . S
C1191 N1193 1.384 . S
N1192 C1188 1.427 . S
N1192 C1189 1.384 . S
N1193 C1185 1.427 . S
N1193 C1191 1.384 . S
H1194 C1200 0.930 . S
H1195 C1204 0.930 . S
H1196 C1209 0.929 . S
H1197 C1207 0.929 . S
H1198 C1202 0.929 . S
H1199 C1208 0.929 . S
C1200 H1194 0.930 . S
C1200 C1201 1.367 . S
C1200 C1208 1.378 . S
C1201 C1200 1.367 . S
C1201 C1209 1.433 . S
C1202 H1198 0.929 . S
C1202 C1204 1.378 . S
C1202 C1206 1.350 . S
C1203 C1206 1.463 . S
C1203 C1208 1.350 . S
C1203 N1211 1.427 . S
C1204 H1195 0.930 . S
C1204 C1202 1.378 . S
C1204 C1205 1.367 . S
C1205 C1204 1.367 . S
C1205 C1207 1.433 . S
C1206 C1202 1.350 . S
C1206 C1203 1.463 . S
C1206 N1210 1.427 . S
C1207 H1197 0.929 . S
C1207 C1205 1.433 . S
C1207 N1210 1.384 . S
C1208 H1199 0.929 . S
C1208 C1200 1.378 . S
C1208 C1203 1.350 . S
C1209 H1196 0.929 . S
C1209 C1201 1.433 . S
C1209 N1211 1.384 . S
N1210 C1206 1.427 . S
N1210 C1207 1.384 . S
N1211 C1203 1.427 . S
N1211 C1209 1.384 . S
H1212 C1218 0.930 . S
H1213 C1222 0.930 . S
H1214 C1227 0.929 . S
H1215 C1225 0.929 . S
H1216 C1220 0.929 . S
H1217 C1226 0.929 . S
C1218 H1212 0.930 . S
C1218 C1219 1.367 . S
C1218 C1226 1.378 . S
C1219 C1218 1.367 . S
C1219 C1227 1.433 . S
C1220 H1216 0.929 . S
C1220 C1222 1.378 . S
C1220 C1224 1.350 . S
C1221 C1224 1.463 . S
C1221 C1226 1.350 . S
C1221 N1229 1.427 . S
C1222 H1213 0.930 . S
C1222 C1220 1.378 . S
C1222 C1223 1.367 . S
C1223 C1222 1.367 . S
C1223 C1225 1.433 . S
C1224 C1220 1.350 . S
C1224 C1221 1.463 . S
C1224 N1228 1.427 . S
C1225 H1215 0.929 . S
C1225 C1223 1.433 . S
C1225 N1228 1.384 . S
C1226 H1217 0.929 . S
C1226 C1218 1.378 . S
C1226 C1221 1.350 . S
C1227 H1214 0.929 . S
C1227 C1219 1.433 . S
C1227 N1229 1.384 . S
N1228 C1224 1.427 . S
N1228 C1225 1.384 . S
N1229 C1221 1.427 . S
N1229 C1227 1.384 . S
H1230 C1236 0.930 . S
H1231 C1240 0.930 . S
H1232 C1245 0.929 . S
H1233 C1243 0.929 . S
H1234 C1238 0.929 . S
H1235 C1244 0.929 . S
C1236 H1230 0.930 . S
C1236 C1237 1.367 . S
C1236 C1244 1.378 . S
C1237 C1236 1.367 . S
C1237 C1245 1.433 . S
C1238 H1234 0.929 . S
C1238 C1240 1.378 . S
C1238 C1242 1.350 . S
C1239 C1242 1.463 . S
C1239 C1244 1.350 . S
C1239 N1247 1.427 . S
C1240 H1231 0.930 . S
C1240 C1238 1.378 . S
C1240 C1241 1.367 . S
C1241 C1240 1.367 . S
C1241 C1243 1.433 . S
C1242 C1238 1.350 . S
C1242 C1239 1.463 . S
C1242 N1246 1.427 . S
C1243 H1233 0.929 . S
C1243 C1241 1.433 . S
C1243 N1246 1.384 . S
C1244 H1235 0.929 . S
C1244 C1236 1.378 . S
C1244 C1239 1.350 . S
C1245 H1232 0.929 . S
C1245 C1237 1.433 . S
C1245 N1247 1.384 . S
N1246 C1242 1.427 . S
N1246 C1243 1.384 . S
N1247 C1239 1.427 . S
N1247 C1245 1.384 . S
C535 N5 1.441 . S
C539 N14 1.433 . S
C553 N38 1.442 . S
C557 N47 1.434 . S
C571 N71 1.440 . S
C575 N80 1.432 . S
C589 N104 1.450 . S
C593 N113 1.443 . S
C607 N137 1.442 . S
C611 N146 1.434 . S
C625 N170 1.442 . S
C629 N179 1.433 . S
C643 N203 1.440 . S
C647 N212 1.431 . S
C661 N245 1.431 . S
C665 N236 1.440 . S
C679 N278 1.431 . S
C683 N269 1.440 . S
C697 N302 1.450 . S
C701 N311 1.443 . S
C715 N335 1.453 . S
C719 N344 1.446 . S
C733 N377 1.443 . S
C737 N368 1.451 . S
C751 N410 1.438 . S
C755 N401 1.447 . S
C769 N434 1.441 . S
C773 N443 1.432 . S
C787 N476 1.434 . S
C791 N467 1.443 . S
C805 N500 1.443 . S
C809 N509 1.436 . S
C823 C28 0.988 . S
C827 C160 0.990 . S
C841 C193 0.991 . S
C845 C61 0.992 . S
C859 C226 0.988 . S
C863 C94 0.990 . S
C877 C127 0.991 . S
C881 C259 0.989 . S
C895 C358 0.990 . S
C899 C292 0.989 . S
C913 C325 0.992 . S
C917 C391 0.990 . S
C931 C424 0.989 . S
C935 C490 0.989 . S
C949 C457 0.992 . S
C953 C523 0.991 . S
C967 C305 1.416 . S
C971 C8 1.423 . S
C985 C470 1.422 . S
C989 C41 1.416 . S
C1003 C74 1.426 . S
C1007 C272 1.416 . S
C1021 C503 1.423 1_655 S
C1025 C107 1.423 . S
C1039 C338 1.418 . S
C1043 C140 1.420 . S
C1057 C437 1.419 1_655 S
C1061 C173 1.425 . S
C1075 C206 1.425 . S
C1079 C371 1.419 . S
C1093 C239 1.419 . S
C1097 C404 1.425 . S
C1111 C149 1.526 . S
C1115 C116 1.522 . S
C1129 C413 1.522 . S
C1133 C281 1.526 . S
C1147 C50 1.522 . S
C1151 C215 1.526 . S
C1165 C446 1.522 . S
C1169 C314 1.526 . S
C1183 C182 1.525 . S
C1187 C17 1.523 . S
C1201 C347 1.521 . S
C1205 C512 1.527 . S
C1219 C248 1.523 . S
C1223 C83 1.525 . S
C1237 C479 1.521 . S
C1241 C380 1.527 . S
