# Generated by pormake.
# Topology snx, (6)-cn, num edge types: 1
# Building blocks:
#     Node 0, Type 0, BuildingBlock: OJICUG_clean_sbu_0, # of connection points: 6
#     Node 1, Type 0, BuildingBlock: OJICUG_clean_sbu_0, # of connection points: 6
#     Node 2, Type 0, BuildingBlock: OJICUG_clean_sbu_0, # of connection points: 6
#     Node 3, Type 0, BuildingBlock: OJICUG_clean_sbu_0, # of connection points: 6
#     Node 4, Type 0, BuildingBlock: OJICUG_clean_sbu_0, # of connection points: 6
#     Node 5, Type 0, BuildingBlock: OJICUG_clean_sbu_0, # of connection points: 6
#     Edge 6, Type (0, 0), BuildingBlock: CIFDUS_clean_linker_0, # of connection points: 2
#     Edge 7, Type (0, 0), BuildingBlock: CIFDUS_clean_linker_0, # of connection points: 2
#     Edge 8, Type (0, 0), BuildingBlock: CIFDUS_clean_linker_0, # of connection points: 2
#     Edge 9, Type (0, 0), BuildingBlock: CIFDUS_clean_linker_0, # of connection points: 2
#     Edge 10, Type (0, 0), BuildingBlock: CIFDUS_clean_linker_0, # of connection points: 2
#     Edge 11, Type (0, 0), BuildingBlock: CIFDUS_clean_linker_0, # of connection points: 2
#     Edge 12, Type (0, 0), BuildingBlock: CIFDUS_clean_linker_0, # of connection points: 2
#     Edge 13, Type (0, 0), BuildingBlock: CIFDUS_clean_linker_0, # of connection points: 2
#     Edge 14, Type (0, 0), BuildingBlock: CIFDUS_clean_linker_0, # of connection points: 2
#     Edge 15, Type (0, 0), BuildingBlock: CIFDUS_clean_linker_0, # of connection points: 2
#     Edge 16, Type (0, 0), BuildingBlock: CIFDUS_clean_linker_0, # of connection points: 2
#     Edge 17, Type (0, 0), BuildingBlock: CIFDUS_clean_linker_0, # of connection points: 2
#     Edge 18, Type (0, 0), BuildingBlock: CIFDUS_clean_linker_0, # of connection points: 2
#     Edge 19, Type (0, 0), BuildingBlock: CIFDUS_clean_linker_0, # of connection points: 2
#     Edge 20, Type (0, 0), BuildingBlock: CIFDUS_clean_linker_0, # of connection points: 2
#     Edge 21, Type (0, 0), BuildingBlock: CIFDUS_clean_linker_0, # of connection points: 2
#     Edge 22, Type (0, 0), BuildingBlock: CIFDUS_clean_linker_0, # of connection points: 2
#     Edge 23, Type (0, 0), BuildingBlock: CIFDUS_clean_linker_0, # of connection points: 2
# Relax obj value: 0.060
# Max RMSD: 0.112
# Mean RMSD: 0.112
data_MOF--net-snx--node1-OJICUG_clean_sbu_0--edge1-CIFDUS_clean_linker_0
_symmetry_space_group_name_H-M    P1
_symmetry_Int_Tables_number       1
_symmetry_cell_setting            triclinic
loop_
_symmetry_equiv_pos_as_xyz
'x, y, z'
_cell_length_a     34.132045
_cell_length_b     34.115257
_cell_length_c     18.982355
_cell_angle_alpha  89.674162
_cell_angle_beta   90.270779
_cell_angle_gamma 120.23941
loop_
_atom_site_label
_atom_site_type_symbol
_atom_site_fract_x
_atom_site_fract_y
_atom_site_fract_z
_atom_type_partial_charge
Sc0 Sc 0.19247 0.41286 0.15964 0.0
Sc1 Sc 0.1947 0.39984 0.34324 0.0
Sc2 Sc 0.14764 0.30465 0.23498 0.0
O3 O 0.17829 0.37263 0.24584 0.0
C4 C 0.09279 0.3289 0.12621 0.0
C5 C 0.16351 0.46405 0.26697 0.0
C6 C 0.10059 0.31415 0.37353 0.0
C7 C 0.28121 0.46829 0.25683 0.0
C8 C 0.21505 0.34008 0.10322 0.0
C9 C 0.21848 0.31997 0.35256 0.0
O10 O 0.12702 0.36733 0.11027 0.0
O11 O 0.17645 0.45071 0.32028 0.0
O12 O 0.10655 0.29066 0.32773 0.0
O13 O 0.25902 0.46219 0.1997 0.0
O14 O 0.185 0.30904 0.14176 0.0
O15 O 0.21565 0.35265 0.37921 0.0
O16 O 0.22471 0.38112 0.10658 0.0
O17 O 0.26334 0.44557 0.31264 0.0
O18 O 0.1995 0.30132 0.29477 0.0
O19 O 0.16307 0.44989 0.20494 0.0
O20 O 0.09361 0.30345 0.17469 0.0
O21 O 0.12712 0.3565 0.3809 0.0
Sc22 Sc 0.83192 0.14833 0.73703 0.0
Sc23 Sc 0.78289 0.20167 0.64403 0.0
Sc24 Sc 0.78274 0.20219 0.83008 0.0
O25 O 0.79903 0.184 0.73728 0.0
C26 C 0.76245 0.10224 0.86434 0.0
C27 C 0.76551 0.1024 0.60844 0.0
C28 C 0.69414 0.1721 0.73359 0.0
C29 C 0.88143 0.22047 0.61336 0.0
C30 C 0.88273 0.21972 0.86079 0.0
C31 C 0.80917 0.28966 0.73693 0.0
O32 O 0.78925 0.10271 0.8178 0.0
O33 O 0.76383 0.13789 0.59367 0.0
O34 O 0.7149 0.18218 0.79273 0.0
O35 O 0.87781 0.18942 0.65484 0.0
O36 O 0.84921 0.22476 0.87611 0.0
O37 O 0.79996 0.26797 0.67944 0.0
O38 O 0.88155 0.19408 0.81144 0.0
O39 O 0.85091 0.23104 0.60624 0.0
O40 O 0.80686 0.27127 0.7964 0.0
O41 O 0.78612 0.09935 0.66214 0.0
O42 O 0.75606 0.1353 0.87528 0.0
O43 O 0.71373 0.17473 0.67544 0.0
Sc44 Sc 0.6825 0.83868 0.24598 0.0
Sc45 Sc 0.57959 0.79368 0.15196 0.0
Sc46 Sc 0.57842 0.77729 0.33573 0.0
O47 O 0.61347 0.80321 0.24457 0.0
C48 C 0.65991 0.75847 0.35596 0.0
C49 C 0.66002 0.77677 0.1087 0.0
C50 C 0.51649 0.69856 0.2279 0.0
C51 C 0.66214 0.89494 0.13225 0.0
C52 C 0.65916 0.87418 0.3853 0.0
C53 C 0.52056 0.81503 0.2582 0.0
O54 O 0.68674 0.79049 0.31524 0.0
O55 O 0.62011 0.77017 0.10077 0.0
O56 O 0.53128 0.71272 0.28959 0.0
O57 O 0.68704 0.89174 0.17901 0.0
O58 O 0.62075 0.83867 0.39446 0.0
O59 O 0.53507 0.81482 0.19651 0.0
O60 O 0.68474 0.87959 0.33334 0.0
O61 O 0.62329 0.86224 0.11569 0.0
O62 O 0.53338 0.80263 0.31277 0.0
O63 O 0.68694 0.80153 0.15717 0.0
O64 O 0.61931 0.74872 0.36706 0.0
O65 O 0.53089 0.72405 0.17401 0.0
Sc66 Sc 0.84931 0.68834 0.74268 0.0
Sc67 Sc 0.78935 0.58301 0.65741 0.0
Sc68 Sc 0.78286 0.58955 0.84144 0.0
O69 O 0.80691 0.62029 0.74715 0.0
C70 C 0.88367 0.66161 0.88139 0.0
C71 C 0.89435 0.65641 0.62952 0.0
C72 C 0.80512 0.51998 0.76263 0.0
C73 C 0.78586 0.66921 0.60683 0.0
C74 C 0.77951 0.68157 0.85772 0.0
C75 C 0.69646 0.5322 0.74699 0.0
O76 O 0.88685 0.68965 0.83435 0.0
O77 O 0.8568 0.62221 0.61074 0.0
O78 O 0.79324 0.53385 0.81609 0.0
O79 O 0.81704 0.69533 0.64928 0.0
O80 O 0.76964 0.64192 0.87766 0.0
O81 O 0.71962 0.53822 0.69127 0.0
O82 O 0.80574 0.70213 0.80624 0.0
O83 O 0.76837 0.62629 0.60718 0.0
O84 O 0.71432 0.55254 0.80428 0.0
O85 O 0.8979 0.68147 0.68107 0.0
O86 O 0.84914 0.62238 0.88835 0.0
O87 O 0.80889 0.53683 0.70126 0.0
Sc88 Sc 0.15928 0.84771 0.24898 0.0
Sc89 Sc 0.20231 0.78536 0.33466 0.0
Sc90 Sc 0.19647 0.7872 0.14944 0.0
O91 O 0.18625 0.80679 0.24465 0.0
C92 C 0.10375 0.78188 0.12194 0.0
C93 C 0.10459 0.77352 0.36742 0.0
C94 C 0.16675 0.69715 0.24007 0.0
C95 C 0.22879 0.88527 0.37834 0.0
C96 C 0.22416 0.89101 0.11997 0.0
C97 C 0.2867 0.81083 0.23244 0.0
O98 O 0.11367 0.81505 0.16252 0.0
O99 O 0.13733 0.76694 0.38282 0.0
O100 O 0.17543 0.71916 0.18263 0.0
O101 O 0.20087 0.88672 0.33563 0.0
O102 O 0.21867 0.8527 0.10182 0.0
O103 O 0.26785 0.80152 0.29295 0.0
O104 O 0.20932 0.89703 0.17789 0.0
O105 O 0.2354 0.85189 0.38186 0.0
O106 O 0.26572 0.80905 0.17581 0.0
O107 O 0.10695 0.80053 0.31879 0.0
O108 O 0.12788 0.76339 0.11662 0.0
O109 O 0.17251 0.71595 0.2998 0.0
Sc110 Sc 0.30515 0.15194 0.75354 0.0
Sc111 Sc 0.40825 0.21756 0.83846 0.0
Sc112 Sc 0.4047 0.19962 0.65471 0.0
O113 O 0.37316 0.18986 0.74865 0.0
C114 C 0.32329 0.10146 0.62795 0.0
C115 C 0.33251 0.11593 0.88437 0.0
C116 C 0.46796 0.18274 0.76143 0.0
C117 C 0.3237 0.2252 0.87193 0.0
C118 C 0.32149 0.21663 0.62455 0.0
C119 C 0.46614 0.29641 0.72633 0.0
O120 O 0.29788 0.10762 0.66911 0.0
O121 O 0.36551 0.15557 0.89838 0.0
O122 O 0.45426 0.18446 0.69937 0.0
O123 O 0.29872 0.1888 0.83885 0.0
O124 O 0.35713 0.21641 0.60439 0.0
O125 O 0.45484 0.28194 0.7892 0.0
O126 O 0.30002 0.19736 0.68082 0.0
O127 O 0.36664 0.24584 0.86858 0.0
O128 O 0.44941 0.27087 0.67298 0.0
O129 O 0.30973 0.10655 0.82734 0.0
O130 O 0.36539 0.12946 0.62263 0.0
O131 O 0.45338 0.19245 0.81643 0.0
H132 H 0.14108 0.50653 0.16589 0.0
H133 H 0.16422 0.50627 0.38979 0.0
H134 H 0.16164 0.57597 0.40258 0.0
H135 H 0.16263 0.64196 0.34815 0.0
H136 H 0.14189 0.64303 0.12364 0.0
H137 H 0.13327 0.56797 0.1137 0.0
C138 C 0.14484 0.52121 0.21775 0.0
C139 C 0.15362 0.5014 0.27649 0.0
C140 C 0.14422 0.56184 0.22469 0.0
C141 C 0.15791 0.52088 0.34335 0.0
C142 C 0.15659 0.56092 0.35079 0.0
C143 C 0.15541 0.6255 0.29721 0.0
C144 C 0.15371 0.64861 0.23664 0.0
C145 C 0.15129 0.58251 0.29148 0.0
C146 C 0.14405 0.62646 0.17113 0.0
C147 C 0.13915 0.58345 0.16527 0.0
H148 H 0.64247 0.17396 0.84147 0.0
H149 H 0.6383 0.14762 0.61839 0.0
H150 H 0.56561 0.14439 0.60854 0.0
H151 H 0.50763 0.15768 0.66021 0.0
H152 H 0.51238 0.18496 0.88304 0.0
H153 H 0.57997 0.17869 0.89561 0.0
C154 C 0.62539 0.16674 0.79086 0.0
C155 C 0.64642 0.16185 0.73067 0.0
C156 C 0.58376 0.16557 0.78514 0.0
C157 C 0.62336 0.15212 0.66566 0.0
C158 C 0.58173 0.15037 0.65979 0.0
C159 C 0.52308 0.16174 0.71172 0.0
C160 C 0.50519 0.17256 0.7702 0.0
C161 C 0.56234 0.15851 0.71872 0.0
C162 C 0.52548 0.17706 0.83673 0.0
C163 C 0.56431 0.17356 0.84411 0.0
H164 H 0.3343 0.52181 0.14922 0.0
H165 H 0.33617 0.4986 0.37292 0.0
H166 H 0.41149 0.5652 0.3822 0.0
H167 H 0.4734 0.63414 0.32948 0.0
H168 H 0.47131 0.65801 0.10607 0.0
H169 H 0.39996 0.58675 0.0943 0.0
C170 C 0.35129 0.53101 0.19993 0.0
C171 C 0.32911 0.50551 0.26035 0.0
C172 C 0.39462 0.56965 0.20521 0.0
C173 C 0.35209 0.5177 0.32545 0.0
C174 C 0.39525 0.55591 0.33097 0.0
C175 C 0.45775 0.62355 0.27798 0.0
C176 C 0.4775 0.65192 0.21908 0.0
C177 C 0.41633 0.58277 0.27155 0.0
C178 C 0.45681 0.6372 0.15263 0.0
C179 C 0.41582 0.59645 0.14576 0.0
H180 H 0.82837 0.47829 0.66257 0.0
H181 H 0.79768 0.47307 0.88414 0.0
H182 H 0.80113 0.40382 0.89741 0.0
H183 H 0.8057 0.34081 0.84408 0.0
H184 H 0.83445 0.34531 0.62193 0.0
H185 H 0.83943 0.41888 0.6115 0.0
C186 C 0.82286 0.46234 0.71398 0.0
C187 C 0.81218 0.48073 0.77193 0.0
C188 C 0.82437 0.42215 0.72126 0.0
C189 C 0.80557 0.45961 0.83827 0.0
C190 C 0.8075 0.41988 0.84603 0.0
C191 C 0.81384 0.35822 0.79365 0.0
C192 C 0.81916 0.33723 0.73381 0.0
C193 C 0.81584 0.40027 0.78758 0.0
C194 C 0.82966 0.36037 0.66881 0.0
C195 C 0.83246 0.40248 0.66267 0.0
H196 H 0.47475 0.83079 0.15427 0.0
H197 H 0.48156 0.82078 0.38051 0.0
H198 H 0.41161 0.82281 0.39285 0.0
H199 H 0.34418 0.81858 0.33895 0.0
H200 H 0.33675 0.82684 0.11246 0.0
H201 H 0.41134 0.83467 0.10122 0.0
C202 C 0.46146 0.82983 0.20643 0.0
C203 C 0.48317 0.82489 0.26618 0.0
C204 C 0.42069 0.83013 0.21325 0.0
C205 C 0.46542 0.82406 0.33336 0.0
C206 C 0.42525 0.82506 0.34057 0.0
C207 C 0.359 0.82257 0.28712 0.0
C208 C 0.33434 0.8213 0.2267 0.0
C209 C 0.40184 0.82659 0.28075 0.0
C210 C 0.35455 0.82715 0.16004 0.0
C211 C 0.3973 0.83161 0.1534 0.0
H212 H 0.64545 0.47499 0.64059 0.0
H213 H 0.63786 0.50684 0.85827 0.0
H214 H 0.5638 0.43877 0.8693 0.0
H215 H 0.50531 0.36551 0.82179 0.0
H216 H 0.51254 0.33369 0.60407 0.0
H217 H 0.58194 0.40639 0.58873 0.0
C218 C 0.62732 0.46756 0.69012 0.0
C219 C 0.6479 0.49584 0.74872 0.0
C220 C 0.58464 0.42792 0.69658 0.0
C221 C 0.62339 0.48564 0.81226 0.0
C222 C 0.58092 0.4465 0.81886 0.0
C223 C 0.52167 0.37468 0.77069 0.0
C224 C 0.5039 0.34363 0.71465 0.0
C225 C 0.5619 0.4166 0.76209 0.0
C226 C 0.52539 0.35658 0.64851 0.0
C227 C 0.56533 0.39821 0.63961 0.0
H228 H 0.34819 0.31283 0.90482 0.0
H229 H 0.24694 0.17289 0.94383 0.0
H230 H 0.20423 0.19634 0.0168 0.0
H231 H 0.19468 0.25547 0.06826 0.0
H232 H 0.29357 0.39628 0.03054 0.0
H233 H 0.33776 0.37361 0.9574 0.0
C234 C 0.31698 0.28771 0.92988 0.0
C235 C 0.30066 0.24129 0.91895 0.0
C236 C 0.29191 0.30144 0.97122 0.0
C237 C 0.25997 0.20887 0.95103 0.0
C238 C 0.23549 0.22218 0.99278 0.0
C239 C 0.22588 0.2814 0.04415 0.0
C240 C 0.24079 0.32746 0.05505 0.0
C241 C 0.25095 0.26825 0.00279 0.0
C242 C 0.28116 0.36049 0.02274 0.0
C243 C 0.30659 0.34757 0.98125 0.0
H244 H 0.93348 0.18788 0.56439 0.0
H245 H 0.92128 0.30775 0.56657 0.0
H246 H 0.98967 0.34827 0.49471 0.0
H247 H 0.052 0.34893 0.4296 0.0
H248 H 0.06075 0.22722 0.42072 0.0
H249 H -0.00547 0.18794 0.49716 0.0
C250 C 0.94602 0.22296 0.54943 0.0
C251 C 0.92274 0.24496 0.57077 0.0
C252 C 0.98455 0.24557 0.50692 0.0
C253 C 0.93874 0.29016 0.55034 0.0
C254 C 0.9778 0.31333 0.50949 0.0
C255 C 0.03947 0.3139 0.44485 0.0
C256 C 0.06107 0.29094 0.42008 0.0
C257 C 0.00084 0.29128 0.48727 0.0
C258 C 0.04435 0.2454 0.43911 0.0
C259 C 0.00665 0.22301 0.48283 0.0
H260 H 0.76089 0.09341 0.00622 0.0
H261 H 0.70798 0.01795 0.81403 0.0
H262 H 0.66848 0.94693 0.88098 0.0
H263 H 0.65265 0.90606 0.99356 0.0
H264 H 0.71258 0.98034 0.18469 0.0
H265 H 0.74569 0.05211 0.11937 0.0
C266 C 0.74023 0.06134 0.9795 0.0
C267 C 0.73677 0.06049 0.90581 0.0
C268 C 0.71921 0.02058 0.01812 0.0
C269 C 0.7108 0.01901 0.87097 0.0
C270 C 0.68833 0.97854 0.90913 0.0
C271 C 0.67255 0.93805 0.02085 0.0
C272 C 0.68005 0.93816 0.09362 0.0
C273 C 0.69279 0.97886 0.98261 0.0
C274 C 0.70653 0.97963 0.12849 0.0
C275 C 0.72539 0.02057 0.09124 0.0
H276 H 0.7463 0.78944 0.39846 0.0
H277 H 0.61229 0.67133 0.40457 0.0
H278 H 0.64014 0.63181 0.47921 0.0
H279 H 0.70183 0.63258 0.54825 0.0
H280 H 0.83418 0.75324 0.54883 0.0
H281 H 0.80781 0.78997 0.46602 0.0
C282 C 0.72335 0.75483 0.41535 0.0
C283 C 0.67741 0.73325 0.39592 0.0
C284 C 0.73924 0.73292 0.45995 0.0
C285 C 0.64784 0.68866 0.41908 0.0
C286 C 0.66372 0.66608 0.46175 0.0
C287 C 0.72491 0.66676 0.52971 0.0
C288 C 0.76979 0.69022 0.55467 0.0
C289 C 0.70921 0.68814 0.48341 0.0
C290 C 0.79932 0.73465 0.53082 0.0
C291 C 0.78433 0.75563 0.48333 0.0
H292 H 0.93992 0.74611 0.92761 0.0
H293 H 0.913 0.60856 0.94351 0.0
H294 H 0.9799 0.63377 0.01894 0.0
H295 H 0.04691 0.69566 0.07825 0.0
H296 H 0.07008 0.83213 0.0668 0.0
H297 H 0.00367 0.80663 0.99135 0.0
C298 C 0.94876 0.72169 0.94763 0.0
C299 C 0.9221 0.67576 0.92984 0.0
C300 C 0.98653 0.73625 0.99145 0.0
C301 C 0.93321 0.64417 0.95688 0.0
C302 C 0.97145 0.65857 -0.00038 0.0
C303 C 0.03731 0.71966 0.05897 0.0
C304 C 0.06326 0.76563 0.07743 0.0
C305 C -0.00147 0.70461 0.01683 0.0
C306 C 0.05037 0.7965 0.05328 0.0
C307 C 0.01255 0.78202 0.0101 0.0
H308 H 0.35634 0.04795 0.58012 0.0
H309 H 0.24058 0.06692 0.56947 0.0
H310 H 0.20181 0.00229 0.49103 0.0
H311 H 0.2001 0.94048 0.42599 0.0
H312 H 0.3124 0.91642 0.43979 0.0
H313 H 0.3531 0.9826 0.51694 0.0
C314 C 0.32271 0.03782 0.56032 0.0
C315 C 0.30132 0.06209 0.58043 0.0
C316 C 0.29994 -0.0003 0.51618 0.0
C317 C 0.25757 0.04851 0.55513 0.0
C318 C 0.23538 0.01165 0.51014 0.0
C319 C 0.23358 0.94975 0.44564 0.0
C320 C 0.25341 0.92393 0.42681 0.0
C321 C 0.25617 0.98702 0.49048 0.0
C322 C 0.29643 0.93584 0.45372 0.0
C323 C 0.31973 0.97372 0.49756 0.0
H324 H 0.74136 0.81153 0.04354 0.0
H325 H 0.61187 0.68911 0.0665 0.0
H326 H 0.63721 0.64826 0.99094 0.0
H327 H 0.69711 0.6471 0.92035 0.0
H328 H 0.82401 0.77137 0.88871 0.0
H329 H 0.79884 0.81189 0.96495 0.0
C330 C 0.71882 0.77593 0.03176 0.0
C331 C 0.67509 0.75312 0.06081 0.0
C332 C 0.73313 0.75309 0.98661 0.0
C333 C 0.64573 0.70724 0.0445 0.0
C334 C 0.66022 0.6839 0.00151 0.0
C335 C 0.71905 0.68309 0.93 0.0
C336 C 0.76238 0.7062 0.89941 0.0
C337 C 0.70394 0.70641 0.97254 0.0
C338 C 0.79039 0.75294 0.91148 0.0
C339 C 0.77613 0.77607 0.95532 0.0
H340 H 0.90513 0.67345 0.48955 0.0
H341 H 0.97636 0.67314 0.67719 0.0
H342 H 0.04779 0.70652 0.6116 0.0
H343 H 0.09091 0.74098 0.50248 0.0
H344 H 0.02018 0.74803 0.31821 0.0
H345 H 0.94804 0.70726 0.38041 0.0
C346 C 0.93621 0.67987 0.51543 0.0
C347 C 0.9356 0.67026 0.58755 0.0
C348 C 0.97743 0.701 0.47815 0.0
C349 C 0.97616 0.67988 0.62137 0.0
C350 C 0.01697 0.69918 0.58401 0.0
C351 C 0.05965 0.73328 0.4759 0.0
C352 C 0.06103 0.74772 0.4059 0.0
C353 C 0.01821 0.71075 0.51265 0.0
C354 C 0.0202 0.73777 0.37233 0.0
C355 C 0.97883 0.71424 0.40775 0.0
H356 H 0.26916 0.98238 0.14578 0.0
H357 H 0.22722 0.88428 0.97802 0.0
H358 H 0.25783 0.94503 0.89082 0.0
H359 H 0.29374 0.02573 0.86129 0.0
H360 H 0.33975 0.12489 0.02754 0.0
H361 H 0.31073 0.06422 0.11602 0.0
C362 C 0.26694 0.97441 0.09015 0.0
C363 C 0.24569 0.92883 0.06856 0.0
C364 C 0.28531 0.00968 0.03991 0.0
C365 C 0.24353 0.91904 -0.00374 0.0
C366 C 0.26088 0.95376 0.94618 0.0
C367 C 0.29758 0.03404 0.91692 0.0
C368 C 0.31849 0.07963 0.93786 0.0
C369 C 0.28142 -0.00087 0.96732 0.0
C370 C 0.32385 0.08999 0.01011 0.0
C371 C 0.30708 0.05532 0.0607 0.0
H372 H 0.31937 0.22307 0.48136 0.0
H373 H 0.28469 0.26509 0.67379 0.0
H374 H 0.25268 0.30347 0.60649 0.0
H375 H 0.23134 0.3222 0.49356 0.0
H376 H 0.25996 0.27545 0.30046 0.0
H377 H 0.29751 0.24192 0.36708 0.0
C378 C 0.30513 0.24101 0.50826 0.0
C379 C 0.30437 0.24133 0.58228 0.0
C380 C 0.2855 0.26195 0.46915 0.0
C381 C 0.28537 0.26417 0.61677 0.0
C382 C 0.26712 0.28617 0.57838 0.0
C383 C 0.2462 0.30507 0.46597 0.0
C384 C 0.24304 0.30147 0.39224 0.0
C385 C 0.26654 0.28486 0.50463 0.0
C386 C 0.26184 0.27855 0.35731 0.0
C387 C 0.28335 0.25942 0.39534 0.0
H388 H 0.89388 0.23534 0.00215 0.0
H389 H 0.968 0.26123 0.80788 0.0
H390 H 0.03985 0.3015 0.87196 0.0
H391 H 0.08192 0.32603 0.98423 0.0
H392 H 0.00789 0.29258 0.17946 0.0
H393 H 0.93602 0.25905 0.1147 0.0
C394 C 0.92583 0.2502 0.97402 0.0
C395 C 0.92572 0.2455 0.90049 0.0
C396 C 0.9671 0.27192 0.01156 0.0
C397 C 0.96729 0.26428 0.86459 0.0
C398 C 0.00838 0.28737 0.90116 0.0
C399 C 0.05 0.31192 0.0123 0.0
C400 C 0.05004 0.31212 0.08628 0.0
C401 C 0.00876 0.29098 0.97474 0.0
C402 C 0.00854 0.29288 0.12238 0.0
C403 C 0.96748 0.27366 0.08541 0.0
H404 H 0.69971 0.96369 0.35678 0.0
H405 H 0.65274 0.86757 0.52841 0.0
H406 H 0.68182 0.92988 0.6136 0.0
H407 H 0.72249 0.01213 0.63874 0.0
H408 H 0.76316 0.10736 0.46606 0.0
H409 H 0.73446 0.04508 0.38163 0.0
C410 C 0.69588 0.95652 0.4129 0.0
C411 C 0.67471 0.91138 0.43662 0.0
C412 C 0.71147 0.99232 0.46117 0.0
C413 C 0.66905 0.90222 0.50922 0.0
C414 C 0.68573 0.93777 0.55779 0.0
C415 C 0.72483 0.01907 0.5826 0.0
C416 C 0.74512 0.06416 0.55849 0.0
C417 C 0.70728 0.983 0.53435 0.0
C418 C 0.74749 0.07285 0.48575 0.0
C419 C 0.73129 0.03732 0.43749 0.0
loop_
_geom_bond_atom_site_label_1
_geom_bond_atom_site_label_2
_geom_bond_distance
_geom_bond_site_symmetry_2
_ccdc_geom_bond_type
Sc0 O3 2.025 . S
Sc0 O10 2.105 . S
Sc0 O13 2.105 . S
Sc0 O16 2.105 . S
Sc0 O19 2.105 . S
Sc1 O3 2.025 . S
Sc1 O11 2.105 . S
Sc1 O15 2.105 . S
Sc1 O17 2.105 . S
Sc1 O21 2.105 . S
Sc2 O3 2.025 . S
Sc2 O12 2.105 . S
Sc2 O14 2.105 . S
Sc2 O18 2.105 . S
Sc2 O20 2.105 . S
O3 Sc0 2.025 . S
O3 Sc1 2.025 . S
O3 Sc2 2.025 . S
C4 O10 1.268 . S
C4 O20 1.268 . S
C5 O11 1.268 . S
C5 O19 1.268 . S
C6 O12 1.268 . S
C6 O21 1.268 . S
C7 O13 1.268 . S
C7 O17 1.268 . S
C8 O14 1.268 . S
C8 O16 1.268 . S
C9 O15 1.268 . S
C9 O18 1.268 . S
O10 Sc0 2.105 . S
O10 C4 1.268 . S
O11 Sc1 2.105 . S
O11 C5 1.268 . S
O12 Sc2 2.105 . S
O12 C6 1.268 . S
O13 Sc0 2.105 . S
O13 C7 1.268 . S
O14 Sc2 2.105 . S
O14 C8 1.268 . S
O15 Sc1 2.105 . S
O15 C9 1.268 . S
O16 Sc0 2.105 . S
O16 C8 1.268 . S
O17 Sc1 2.105 . S
O17 C7 1.268 . S
O18 Sc2 2.105 . S
O18 C9 1.268 . S
O19 Sc0 2.105 . S
O19 C5 1.268 . S
O20 Sc2 2.105 . S
O20 C4 1.268 . S
O21 Sc1 2.105 . S
O21 C6 1.268 . S
Sc22 O25 2.025 . S
Sc22 O32 2.105 . S
Sc22 O35 2.105 . S
Sc22 O38 2.105 . S
Sc22 O41 2.105 . S
Sc23 O25 2.025 . S
Sc23 O33 2.105 . S
Sc23 O37 2.105 . S
Sc23 O39 2.105 . S
Sc23 O43 2.105 . S
Sc24 O25 2.025 . S
Sc24 O34 2.105 . S
Sc24 O36 2.105 . S
Sc24 O40 2.105 . S
Sc24 O42 2.105 . S
O25 Sc22 2.025 . S
O25 Sc23 2.025 . S
O25 Sc24 2.025 . S
C26 O32 1.268 . S
C26 O42 1.268 . S
C27 O33 1.268 . S
C27 O41 1.268 . S
C28 O34 1.268 . S
C28 O43 1.268 . S
C29 O35 1.268 . S
C29 O39 1.268 . S
C30 O36 1.268 . S
C30 O38 1.268 . S
C31 O37 1.268 . S
C31 O40 1.268 . S
O32 Sc22 2.105 . S
O32 C26 1.268 . S
O33 Sc23 2.105 . S
O33 C27 1.268 . S
O34 Sc24 2.105 . S
O34 C28 1.268 . S
O35 Sc22 2.105 . S
O35 C29 1.268 . S
O36 Sc24 2.105 . S
O36 C30 1.268 . S
O37 Sc23 2.105 . S
O37 C31 1.268 . S
O38 Sc22 2.105 . S
O38 C30 1.268 . S
O39 Sc23 2.105 . S
O39 C29 1.268 . S
O40 Sc24 2.105 . S
O40 C31 1.268 . S
O41 Sc22 2.105 . S
O41 C27 1.268 . S
O42 Sc24 2.105 . S
O42 C26 1.268 . S
O43 Sc23 2.105 . S
O43 C28 1.268 . S
Sc44 O47 2.025 . S
Sc44 O54 2.105 . S
Sc44 O57 2.105 . S
Sc44 O60 2.105 . S
Sc44 O63 2.105 . S
Sc45 O47 2.025 . S
Sc45 O55 2.105 . S
Sc45 O59 2.105 . S
Sc45 O61 2.105 . S
Sc45 O65 2.105 . S
Sc46 O47 2.025 . S
Sc46 O56 2.105 . S
Sc46 O58 2.105 . S
Sc46 O62 2.105 . S
Sc46 O64 2.105 . S
O47 Sc44 2.025 . S
O47 Sc45 2.025 . S
O47 Sc46 2.025 . S
C48 O54 1.268 . S
C48 O64 1.268 . S
C49 O55 1.268 . S
C49 O63 1.268 . S
C50 O56 1.268 . S
C50 O65 1.268 . S
C51 O57 1.268 . S
C51 O61 1.268 . S
C52 O58 1.268 . S
C52 O60 1.268 . S
C53 O59 1.268 . S
C53 O62 1.268 . S
O54 Sc44 2.105 . S
O54 C48 1.268 . S
O55 Sc45 2.105 . S
O55 C49 1.268 . S
O56 Sc46 2.105 . S
O56 C50 1.268 . S
O57 Sc44 2.105 . S
O57 C51 1.268 . S
O58 Sc46 2.105 . S
O58 C52 1.268 . S
O59 Sc45 2.105 . S
O59 C53 1.268 . S
O60 Sc44 2.105 . S
O60 C52 1.268 . S
O61 Sc45 2.105 . S
O61 C51 1.268 . S
O62 Sc46 2.105 . S
O62 C53 1.268 . S
O63 Sc44 2.105 . S
O63 C49 1.268 . S
O64 Sc46 2.105 . S
O64 C48 1.268 . S
O65 Sc45 2.105 . S
O65 C50 1.268 . S
Sc66 O69 2.025 . S
Sc66 O76 2.105 . S
Sc66 O79 2.105 . S
Sc66 O82 2.105 . S
Sc66 O85 2.105 . S
Sc67 O69 2.025 . S
Sc67 O77 2.105 . S
Sc67 O81 2.105 . S
Sc67 O83 2.105 . S
Sc67 O87 2.105 . S
Sc68 O69 2.025 . S
Sc68 O78 2.105 . S
Sc68 O80 2.105 . S
Sc68 O84 2.105 . S
Sc68 O86 2.105 . S
O69 Sc66 2.025 . S
O69 Sc67 2.025 . S
O69 Sc68 2.025 . S
C70 O76 1.268 . S
C70 O86 1.268 . S
C71 O77 1.268 . S
C71 O85 1.268 . S
C72 O78 1.268 . S
C72 O87 1.268 . S
C73 O79 1.268 . S
C73 O83 1.268 . S
C74 O80 1.268 . S
C74 O82 1.268 . S
C75 O81 1.268 . S
C75 O84 1.268 . S
O76 Sc66 2.105 . S
O76 C70 1.268 . S
O77 Sc67 2.105 . S
O77 C71 1.268 . S
O78 Sc68 2.105 . S
O78 C72 1.268 . S
O79 Sc66 2.105 . S
O79 C73 1.268 . S
O80 Sc68 2.105 . S
O80 C74 1.268 . S
O81 Sc67 2.105 . S
O81 C75 1.268 . S
O82 Sc66 2.105 . S
O82 C74 1.268 . S
O83 Sc67 2.105 . S
O83 C73 1.268 . S
O84 Sc68 2.105 . S
O84 C75 1.268 . S
O85 Sc66 2.105 . S
O85 C71 1.268 . S
O86 Sc68 2.105 . S
O86 C70 1.268 . S
O87 Sc67 2.105 . S
O87 C72 1.268 . S
Sc88 O91 2.025 . S
Sc88 O98 2.105 . S
Sc88 O101 2.105 . S
Sc88 O104 2.105 . S
Sc88 O107 2.105 . S
Sc89 O91 2.025 . S
Sc89 O99 2.105 . S
Sc89 O103 2.105 . S
Sc89 O105 2.105 . S
Sc89 O109 2.105 . S
Sc90 O91 2.025 . S
Sc90 O100 2.105 . S
Sc90 O102 2.105 . S
Sc90 O106 2.105 . S
Sc90 O108 2.105 . S
O91 Sc88 2.025 . S
O91 Sc89 2.025 . S
O91 Sc90 2.025 . S
C92 O98 1.268 . S
C92 O108 1.268 . S
C93 O99 1.268 . S
C93 O107 1.268 . S
C94 O100 1.268 . S
C94 O109 1.268 . S
C95 O101 1.268 . S
C95 O105 1.268 . S
C96 O102 1.268 . S
C96 O104 1.268 . S
C97 O103 1.268 . S
C97 O106 1.268 . S
O98 Sc88 2.105 . S
O98 C92 1.268 . S
O99 Sc89 2.105 . S
O99 C93 1.268 . S
O100 Sc90 2.105 . S
O100 C94 1.268 . S
O101 Sc88 2.105 . S
O101 C95 1.268 . S
O102 Sc90 2.105 . S
O102 C96 1.268 . S
O103 Sc89 2.105 . S
O103 C97 1.268 . S
O104 Sc88 2.105 . S
O104 C96 1.268 . S
O105 Sc89 2.105 . S
O105 C95 1.268 . S
O106 Sc90 2.105 . S
O106 C97 1.268 . S
O107 Sc88 2.105 . S
O107 C93 1.268 . S
O108 Sc90 2.105 . S
O108 C92 1.268 . S
O109 Sc89 2.105 . S
O109 C94 1.268 . S
Sc110 O113 2.025 . S
Sc110 O120 2.105 . S
Sc110 O123 2.105 . S
Sc110 O126 2.105 . S
Sc110 O129 2.105 . S
Sc111 O113 2.025 . S
Sc111 O121 2.105 . S
Sc111 O125 2.105 . S
Sc111 O127 2.105 . S
Sc111 O131 2.105 . S
Sc112 O113 2.025 . S
Sc112 O122 2.105 . S
Sc112 O124 2.105 . S
Sc112 O128 2.105 . S
Sc112 O130 2.105 . S
O113 Sc110 2.025 . S
O113 Sc111 2.025 . S
O113 Sc112 2.025 . S
C114 O120 1.268 . S
C114 O130 1.268 . S
C115 O121 1.268 . S
C115 O129 1.268 . S
C116 O122 1.268 . S
C116 O131 1.268 . S
C117 O123 1.268 . S
C117 O127 1.268 . S
C118 O124 1.268 . S
C118 O126 1.268 . S
C119 O125 1.268 . S
C119 O128 1.268 . S
O120 Sc110 2.105 . S
O120 C114 1.268 . S
O121 Sc111 2.105 . S
O121 C115 1.268 . S
O122 Sc112 2.105 . S
O122 C116 1.268 . S
O123 Sc110 2.105 . S
O123 C117 1.268 . S
O124 Sc112 2.105 . S
O124 C118 1.268 . S
O125 Sc111 2.105 . S
O125 C119 1.268 . S
O126 Sc110 2.105 . S
O126 C118 1.268 . S
O127 Sc111 2.105 . S
O127 C117 1.268 . S
O128 Sc112 2.105 . S
O128 C119 1.268 . S
O129 Sc110 2.105 . S
O129 C115 1.268 . S
O130 Sc112 2.105 . S
O130 C114 1.268 . S
O131 Sc111 2.105 . S
O131 C116 1.268 . S
H132 C138 0.930 . S
H133 C141 0.930 . S
H134 C142 0.930 . S
H135 C143 0.930 . S
H136 C146 0.930 . S
H137 C147 0.930 . S
C138 H132 0.930 . S
C138 C139 1.355 . S
C138 C140 1.415 . S
C139 C138 1.355 . S
C139 C141 1.419 . S
C140 C138 1.415 . S
C140 C145 1.425 . S
C140 C147 1.409 . S
C141 H133 0.930 . S
C141 C139 1.419 . S
C141 C142 1.362 . S
C142 H134 0.930 . S
C142 C141 1.362 . S
C142 C145 1.409 . S
C143 H135 0.930 . S
C143 C144 1.355 . S
C143 C145 1.415 . S
C144 C143 1.355 . S
C144 C146 1.419 . S
C145 C140 1.425 . S
C145 C142 1.409 . S
C145 C143 1.415 . S
C146 H136 0.930 . S
C146 C144 1.419 . S
C146 C147 1.362 . S
C147 H137 0.930 . S
C147 C140 1.409 . S
C147 C146 1.362 . S
H148 C154 0.930 . S
H149 C157 0.930 . S
H150 C158 0.930 . S
H151 C159 0.930 . S
H152 C162 0.930 . S
H153 C163 0.930 . S
C154 H148 0.930 . S
C154 C155 1.355 . S
C154 C156 1.415 . S
C155 C154 1.355 . S
C155 C157 1.419 . S
C156 C154 1.415 . S
C156 C161 1.425 . S
C156 C163 1.409 . S
C157 H149 0.930 . S
C157 C155 1.419 . S
C157 C158 1.362 . S
C158 H150 0.930 . S
C158 C157 1.362 . S
C158 C161 1.409 . S
C159 H151 0.930 . S
C159 C160 1.355 . S
C159 C161 1.415 . S
C160 C159 1.355 . S
C160 C162 1.419 . S
C161 C156 1.425 . S
C161 C158 1.409 . S
C161 C159 1.415 . S
C162 H152 0.930 . S
C162 C160 1.419 . S
C162 C163 1.362 . S
C163 H153 0.930 . S
C163 C156 1.409 . S
C163 C162 1.362 . S
H164 C170 0.930 . S
H165 C173 0.930 . S
H166 C174 0.930 . S
H167 C175 0.930 . S
H168 C178 0.930 . S
H169 C179 0.930 . S
C170 H164 0.930 . S
C170 C171 1.355 . S
C170 C172 1.415 . S
C171 C170 1.355 . S
C171 C173 1.419 . S
C172 C170 1.415 . S
C172 C177 1.425 . S
C172 C179 1.409 . S
C173 H165 0.930 . S
C173 C171 1.419 . S
C173 C174 1.362 . S
C174 H166 0.930 . S
C174 C173 1.362 . S
C174 C177 1.409 . S
C175 H167 0.930 . S
C175 C176 1.355 . S
C175 C177 1.415 . S
C176 C175 1.355 . S
C176 C178 1.419 . S
C177 C172 1.425 . S
C177 C174 1.409 . S
C177 C175 1.415 . S
C178 H168 0.930 . S
C178 C176 1.419 . S
C178 C179 1.362 . S
C179 H169 0.930 . S
C179 C172 1.409 . S
C179 C178 1.362 . S
H180 C186 0.930 . S
H181 C189 0.930 . S
H182 C190 0.930 . S
H183 C191 0.930 . S
H184 C194 0.930 . S
H185 C195 0.930 . S
C186 H180 0.930 . S
C186 C187 1.355 . S
C186 C188 1.415 . S
C187 C186 1.355 . S
C187 C189 1.419 . S
C188 C186 1.415 . S
C188 C193 1.425 . S
C188 C195 1.409 . S
C189 H181 0.930 . S
C189 C187 1.419 . S
C189 C190 1.362 . S
C190 H182 0.930 . S
C190 C189 1.362 . S
C190 C193 1.409 . S
C191 H183 0.930 . S
C191 C192 1.355 . S
C191 C193 1.415 . S
C192 C191 1.355 . S
C192 C194 1.419 . S
C193 C188 1.425 . S
C193 C190 1.409 . S
C193 C191 1.415 . S
C194 H184 0.930 . S
C194 C192 1.419 . S
C194 C195 1.362 . S
C195 H185 0.930 . S
C195 C188 1.409 . S
C195 C194 1.362 . S
H196 C202 0.930 . S
H197 C205 0.930 . S
H198 C206 0.930 . S
H199 C207 0.930 . S
H200 C210 0.930 . S
H201 C211 0.930 . S
C202 H196 0.930 . S
C202 C203 1.355 . S
C202 C204 1.415 . S
C203 C202 1.355 . S
C203 C205 1.419 . S
C204 C202 1.415 . S
C204 C209 1.425 . S
C204 C211 1.409 . S
C205 H197 0.930 . S
C205 C203 1.419 . S
C205 C206 1.362 . S
C206 H198 0.930 . S
C206 C205 1.362 . S
C206 C209 1.409 . S
C207 H199 0.930 . S
C207 C208 1.355 . S
C207 C209 1.415 . S
C208 C207 1.355 . S
C208 C210 1.419 . S
C209 C204 1.425 . S
C209 C206 1.409 . S
C209 C207 1.415 . S
C210 H200 0.930 . S
C210 C208 1.419 . S
C210 C211 1.362 . S
C211 H201 0.930 . S
C211 C204 1.409 . S
C211 C210 1.362 . S
H212 C218 0.930 . S
H213 C221 0.930 . S
H214 C222 0.930 . S
H215 C223 0.930 . S
H216 C226 0.930 . S
H217 C227 0.930 . S
C218 H212 0.930 . S
C218 C219 1.355 . S
C218 C220 1.415 . S
C219 C218 1.355 . S
C219 C221 1.419 . S
C220 C218 1.415 . S
C220 C225 1.425 . S
C220 C227 1.409 . S
C221 H213 0.930 . S
C221 C219 1.419 . S
C221 C222 1.362 . S
C222 H214 0.930 . S
C222 C221 1.362 . S
C222 C225 1.409 . S
C223 H215 0.930 . S
C223 C224 1.355 . S
C223 C225 1.415 . S
C224 C223 1.355 . S
C224 C226 1.419 . S
C225 C220 1.425 . S
C225 C222 1.409 . S
C225 C223 1.415 . S
C226 H216 0.930 . S
C226 C224 1.419 . S
C226 C227 1.362 . S
C227 H217 0.930 . S
C227 C220 1.409 . S
C227 C226 1.362 . S
H228 C234 0.930 . S
H229 C237 0.930 . S
H230 C238 0.930 . S
H231 C239 0.930 . S
H232 C242 0.930 . S
H233 C243 0.930 . S
C234 H228 0.930 . S
C234 C235 1.355 . S
C234 C236 1.415 . S
C235 C234 1.355 . S
C235 C237 1.419 . S
C236 C234 1.415 . S
C236 C241 1.425 1_556 S
C236 C243 1.409 . S
C237 H229 0.930 . S
C237 C235 1.419 . S
C237 C238 1.362 1_556 S
C238 H230 0.930 . S
C238 C237 1.362 1_554 S
C238 C241 1.409 . S
C239 H231 0.930 . S
C239 C240 1.355 . S
C239 C241 1.415 . S
C240 C239 1.355 . S
C240 C242 1.419 . S
C241 C236 1.425 1_554 S
C241 C238 1.409 . S
C241 C239 1.415 . S
C242 H232 0.930 . S
C242 C240 1.419 . S
C242 C243 1.362 1_554 S
C243 H233 0.930 . S
C243 C236 1.409 . S
C243 C242 1.362 1_556 S
H244 C250 0.930 . S
H245 C253 0.930 . S
H246 C254 0.930 . S
H247 C255 0.930 . S
H248 C258 0.930 . S
H249 C259 0.930 . S
C250 H244 0.930 . S
C250 C251 1.355 . S
C250 C252 1.415 1_655 S
C251 C250 1.355 . S
C251 C253 1.419 . S
C252 C250 1.415 1_455 S
C252 C257 1.425 1_455 S
C252 C259 1.409 . S
C253 H245 0.930 . S
C253 C251 1.419 . S
C253 C254 1.362 . S
C254 H246 0.930 . S
C254 C253 1.362 . S
C254 C257 1.409 . S
C255 H247 0.930 . S
C255 C256 1.355 . S
C255 C257 1.415 1_455 S
C256 C255 1.355 . S
C256 C258 1.419 . S
C257 C252 1.425 1_655 S
C257 C254 1.409 . S
C257 C255 1.415 1_655 S
C258 H248 0.930 . S
C258 C256 1.419 . S
C258 C259 1.362 . S
C259 H249 0.930 . S
C259 C252 1.409 . S
C259 C258 1.362 . S
H260 C266 0.930 1_554 S
H261 C269 0.930 . S
H262 C270 0.930 . S
H263 C271 0.930 1_556 S
H264 C274 0.930 . S
H265 C275 0.930 . S
C266 H260 0.930 1_556 S
C266 C267 1.355 . S
C266 C268 1.415 1_556 S
C267 C266 1.355 . S
C267 C269 1.419 . S
C268 C266 1.415 1_554 S
C268 C273 1.425 1_544 S
C268 C275 1.409 . S
C269 H261 0.930 . S
C269 C267 1.419 . S
C269 C270 1.362 1_545 S
C270 H262 0.930 . S
C270 C269 1.362 1_565 S
C270 C273 1.409 . S
C271 H263 0.930 1_554 S
C271 C272 1.355 . S
C271 C273 1.415 1_554 S
C272 C271 1.355 . S
C272 C274 1.419 . S
C273 C268 1.425 1_566 S
C273 C270 1.409 . S
C273 C271 1.415 1_556 S
C274 H264 0.930 . S
C274 C272 1.419 . S
C274 C275 1.362 1_565 S
C275 H265 0.930 . S
C275 C268 1.409 . S
C275 C274 1.362 1_545 S
H276 C282 0.930 . S
H277 C285 0.930 . S
H278 C286 0.930 . S
H279 C287 0.930 . S
H280 C290 0.930 . S
H281 C291 0.930 . S
C282 H276 0.930 . S
C282 C283 1.355 . S
C282 C284 1.415 . S
C283 C282 1.355 . S
C283 C285 1.419 . S
C284 C282 1.415 . S
C284 C289 1.425 . S
C284 C291 1.409 . S
C285 H277 0.930 . S
C285 C283 1.419 . S
C285 C286 1.362 . S
C286 H278 0.930 . S
C286 C285 1.362 . S
C286 C289 1.409 . S
C287 H279 0.930 . S
C287 C288 1.355 . S
C287 C289 1.415 . S
C288 C287 1.355 . S
C288 C290 1.419 . S
C289 C284 1.425 . S
C289 C286 1.409 . S
C289 C287 1.415 . S
C290 H280 0.930 . S
C290 C288 1.419 . S
C290 C291 1.362 . S
C291 H281 0.930 . S
C291 C284 1.409 . S
C291 C290 1.362 . S
H292 C298 0.930 . S
H293 C301 0.930 . S
H294 C302 0.930 . S
H295 C303 0.930 . S
H296 C306 0.930 . S
H297 C307 0.930 . S
C298 H292 0.930 . S
C298 C299 1.355 . S
C298 C300 1.415 1_556 S
C299 C298 1.355 . S
C299 C301 1.419 . S
C300 C298 1.415 1_554 S
C300 C305 1.425 1_654 S
C300 C307 1.409 . S
C301 H293 0.930 . S
C301 C299 1.419 . S
C301 C302 1.362 1_655 S
C302 H294 0.930 . S
C302 C301 1.362 1_455 S
C302 C305 1.409 . S
C303 H295 0.930 . S
C303 C304 1.355 . S
C303 C305 1.415 1_554 S
C304 C303 1.355 . S
C304 C306 1.419 . S
C305 C300 1.425 1_456 S
C305 C302 1.409 . S
C305 C303 1.415 1_556 S
C306 H296 0.930 . S
C306 C304 1.419 . S
C306 C307 1.362 1_455 S
C307 H297 0.930 . S
C307 C300 1.409 . S
C307 C306 1.362 1_655 S
H308 C314 0.930 . S
H309 C317 0.930 . S
H310 C318 0.930 . S
H311 C319 0.930 . S
H312 C322 0.930 . S
H313 C323 0.930 . S
C314 H308 0.930 . S
C314 C315 1.355 . S
C314 C316 1.415 1_545 S
C315 C314 1.355 . S
C315 C317 1.419 . S
C316 C314 1.415 1_565 S
C316 C321 1.425 1_565 S
C316 C323 1.409 . S
C317 H309 0.930 . S
C317 C315 1.419 . S
C317 C318 1.362 . S
C318 H310 0.930 . S
C318 C317 1.362 . S
C318 C321 1.409 . S
C319 H311 0.930 . S
C319 C320 1.355 . S
C319 C321 1.415 1_565 S
C320 C319 1.355 . S
C320 C322 1.419 . S
C321 C316 1.425 1_545 S
C321 C318 1.409 . S
C321 C319 1.415 1_545 S
C322 H312 0.930 . S
C322 C320 1.419 . S
C322 C323 1.362 . S
C323 H313 0.930 . S
C323 C316 1.409 . S
C323 C322 1.362 . S
H324 C330 0.930 . S
H325 C333 0.930 . S
H326 C334 0.930 . S
H327 C335 0.930 . S
H328 C338 0.930 . S
H329 C339 0.930 . S
C330 H324 0.930 . S
C330 C331 1.355 . S
C330 C332 1.415 . S
C331 C330 1.355 . S
C331 C333 1.419 . S
C332 C330 1.415 . S
C332 C337 1.425 1_554 S
C332 C339 1.409 1_554 S
C333 H325 0.930 . S
C333 C331 1.419 . S
C333 C334 1.362 . S
C334 H326 0.930 . S
C334 C333 1.362 . S
C334 C337 1.409 1_554 S
C335 H327 0.930 . S
C335 C336 1.355 . S
C335 C337 1.415 . S
C336 C335 1.355 . S
C336 C338 1.419 . S
C337 C332 1.425 1_556 S
C337 C334 1.409 1_556 S
C337 C335 1.415 . S
C338 H328 0.930 . S
C338 C336 1.419 . S
C338 C339 1.362 . S
C339 H329 0.930 . S
C339 C332 1.409 1_556 S
C339 C338 1.362 . S
H340 C346 0.930 . S
H341 C349 0.930 . S
H342 C350 0.930 . S
H343 C351 0.930 . S
H344 C354 0.930 . S
H345 C355 0.930 . S
C346 H340 0.930 . S
C346 C347 1.355 . S
C346 C348 1.415 . S
C347 C346 1.355 . S
C347 C349 1.419 . S
C348 C346 1.415 . S
C348 C353 1.425 1_655 S
C348 C355 1.409 . S
C349 H341 0.930 . S
C349 C347 1.419 . S
C349 C350 1.362 1_655 S
C350 H342 0.930 . S
C350 C349 1.362 1_455 S
C350 C353 1.409 . S
C351 H343 0.930 . S
C351 C352 1.355 . S
C351 C353 1.415 . S
C352 C351 1.355 . S
C352 C354 1.419 . S
C353 C348 1.425 1_455 S
C353 C350 1.409 . S
C353 C351 1.415 . S
C354 H344 0.930 . S
C354 C352 1.419 . S
C354 C355 1.362 1_455 S
C355 H345 0.930 . S
C355 C348 1.409 . S
C355 C354 1.362 1_655 S
H356 C362 0.930 . S
H357 C365 0.930 1_556 S
H358 C366 0.930 . S
H359 C367 0.930 . S
H360 C370 0.930 1_554 S
H361 C371 0.930 . S
C362 H356 0.930 . S
C362 C363 1.355 . S
C362 C364 1.415 1_565 S
C363 C362 1.355 . S
C363 C365 1.419 . S
C364 C362 1.415 1_545 S
C364 C369 1.425 1_544 S
C364 C371 1.409 . S
C365 H357 0.930 1_554 S
C365 C363 1.419 . S
C365 C366 1.362 1_554 S
C366 H358 0.930 . S
C366 C365 1.362 1_556 S
C366 C369 1.409 . S
C367 H359 0.930 . S
C367 C368 1.355 . S
C367 C369 1.415 1_545 S
C368 C367 1.355 . S
C368 C370 1.419 . S
C369 C364 1.425 1_566 S
C369 C366 1.409 . S
C369 C367 1.415 1_565 S
C370 H360 0.930 1_556 S
C370 C368 1.419 . S
C370 C371 1.362 1_556 S
C371 H361 0.930 . S
C371 C364 1.409 . S
C371 C370 1.362 1_554 S
H372 C378 0.930 . S
H373 C381 0.930 . S
H374 C382 0.930 . S
H375 C383 0.930 . S
H376 C386 0.930 . S
H377 C387 0.930 . S
C378 H372 0.930 . S
C378 C379 1.355 . S
C378 C380 1.415 . S
C379 C378 1.355 . S
C379 C381 1.419 . S
C380 C378 1.415 . S
C380 C385 1.425 . S
C380 C387 1.409 . S
C381 H373 0.930 . S
C381 C379 1.419 . S
C381 C382 1.362 . S
C382 H374 0.930 . S
C382 C381 1.362 . S
C382 C385 1.409 . S
C383 H375 0.930 . S
C383 C384 1.355 . S
C383 C385 1.415 . S
C384 C383 1.355 . S
C384 C386 1.419 . S
C385 C380 1.425 . S
C385 C382 1.409 . S
C385 C383 1.415 . S
C386 H376 0.930 . S
C386 C384 1.419 . S
C386 C387 1.362 . S
C387 H377 0.930 . S
C387 C380 1.409 . S
C387 C386 1.362 . S
H388 C394 0.930 . S
H389 C397 0.930 . S
H390 C398 0.930 . S
H391 C399 0.930 . S
H392 C402 0.930 . S
H393 C403 0.930 . S
C394 H388 0.930 . S
C394 C395 1.355 . S
C394 C396 1.415 1_556 S
C395 C394 1.355 . S
C395 C397 1.419 . S
C396 C394 1.415 1_554 S
C396 C401 1.425 1_654 S
C396 C403 1.409 . S
C397 H389 0.930 . S
C397 C395 1.419 . S
C397 C398 1.362 1_655 S
C398 H390 0.930 . S
C398 C397 1.362 1_455 S
C398 C401 1.409 . S
C399 H391 0.930 . S
C399 C400 1.355 . S
C399 C401 1.415 1_554 S
C400 C399 1.355 . S
C400 C402 1.419 . S
C401 C396 1.425 1_456 S
C401 C398 1.409 . S
C401 C399 1.415 1_556 S
C402 H392 0.930 . S
C402 C400 1.419 . S
C402 C403 1.362 1_455 S
C403 H393 0.930 . S
C403 C396 1.409 . S
C403 C402 1.362 1_655 S
H404 C410 0.930 . S
H405 C413 0.930 . S
H406 C414 0.930 . S
H407 C415 0.930 . S
H408 C418 0.930 . S
H409 C419 0.930 . S
C410 H404 0.930 . S
C410 C411 1.355 . S
C410 C412 1.415 1_565 S
C411 C410 1.355 . S
C411 C413 1.419 . S
C412 C410 1.415 1_545 S
C412 C417 1.425 1_545 S
C412 C419 1.409 . S
C413 H405 0.930 . S
C413 C411 1.419 . S
C413 C414 1.362 . S
C414 H406 0.930 . S
C414 C413 1.362 . S
C414 C417 1.409 . S
C415 H407 0.930 . S
C415 C416 1.355 . S
C415 C417 1.415 1_545 S
C416 C415 1.355 . S
C416 C418 1.419 . S
C417 C412 1.425 1_565 S
C417 C414 1.409 . S
C417 C415 1.415 1_565 S
C418 H408 0.930 . S
C418 C416 1.419 . S
C418 C419 1.362 . S
C419 H409 0.930 . S
C419 C412 1.409 . S
C419 C418 1.362 . S
C139 C5 1.358 . S
C144 C94 1.360 . S
C155 C28 1.392 . S
C160 C116 1.325 . S
C171 C7 1.388 . S
C176 C50 1.330 . S
C187 C72 1.373 . S
C192 C31 1.345 . S
C203 C53 1.323 . S
C208 C97 1.394 . S
C219 C75 1.396 . S
C224 C119 1.321 . S
C235 C117 1.526 . S
C240 C8 1.533 . S
C251 C29 1.550 . S
C256 C6 1.524 . S
C267 C26 1.558 . S
C272 C51 1.557 . S
C283 C48 1.548 . S
C288 C73 1.523 . S
C299 C70 1.560 . S
C304 C92 1.554 . S
C315 C114 1.525 . S
C320 C95 1.535 . S
C331 C49 1.554 . S
C336 C74 1.526 . S
C347 C71 1.561 . S
C352 C93 1.552 . S
C363 C96 1.525 . S
C368 C115 1.535 . S
C379 C118 1.560 . S
C384 C9 1.554 . S
C395 C30 1.552 . S
C400 C4 1.561 . S
C411 C52 1.524 . S
C416 C27 1.536 . S
