# Generated by pormake.
# Topology can, (4)-cn, num edge types: 1
# Building blocks:
#     Node 0, Type 0, BuildingBlock: AZAVOO_clean_sbu_0, # of connection points: 4
#     Node 1, Type 0, BuildingBlock: AZAVOO_clean_sbu_0, # of connection points: 4
#     Node 2, Type 0, BuildingBlock: AZAVOO_clean_sbu_0, # of connection points: 4
#     Node 3, Type 0, BuildingBlock: AZAVOO_clean_sbu_0, # of connection points: 4
#     Node 4, Type 0, BuildingBlock: AZAVOO_clean_sbu_0, # of connection points: 4
#     Node 5, Type 0, BuildingBlock: AZAVOO_clean_sbu_0, # of connection points: 4
#     Node 6, Type 0, BuildingBlock: AZAVOO_clean_sbu_0, # of connection points: 4
#     Node 7, Type 0, BuildingBlock: AZAVOO_clean_sbu_0, # of connection points: 4
#     Node 8, Type 0, BuildingBlock: AZAVOO_clean_sbu_0, # of connection points: 4
#     Node 9, Type 0, BuildingBlock: AZAVOO_clean_sbu_0, # of connection points: 4
#     Node 10, Type 0, BuildingBlock: AZAVOO_clean_sbu_0, # of connection points: 4
#     Node 11, Type 0, BuildingBlock: AZAVOO_clean_sbu_0, # of connection points: 4
#     Edge 12, Type (0, 0), BuildingBlock: AJUNOK_clean_linker_0, # of connection points: 2
#     Edge 13, Type (0, 0), BuildingBlock: AJUNOK_clean_linker_0, # of connection points: 2
#     Edge 14, Type (0, 0), BuildingBlock: AJUNOK_clean_linker_0, # of connection points: 2
#     Edge 15, Type (0, 0), BuildingBlock: AJUNOK_clean_linker_0, # of connection points: 2
#     Edge 16, Type (0, 0), BuildingBlock: AJUNOK_clean_linker_0, # of connection points: 2
#     Edge 17, Type (0, 0), BuildingBlock: AJUNOK_clean_linker_0, # of connection points: 2
#     Edge 18, Type (0, 0), BuildingBlock: AJUNOK_clean_linker_0, # of connection points: 2
#     Edge 19, Type (0, 0), BuildingBlock: AJUNOK_clean_linker_0, # of connection points: 2
#     Edge 20, Type (0, 0), BuildingBlock: AJUNOK_clean_linker_0, # of connection points: 2
#     Edge 21, Type (0, 0), BuildingBlock: AJUNOK_clean_linker_0, # of connection points: 2
#     Edge 22, Type (0, 0), BuildingBlock: AJUNOK_clean_linker_0, # of connection points: 2
#     Edge 23, Type (0, 0), BuildingBlock: AJUNOK_clean_linker_0, # of connection points: 2
#     Edge 24, Type (0, 0), BuildingBlock: AJUNOK_clean_linker_0, # of connection points: 2
#     Edge 25, Type (0, 0), BuildingBlock: AJUNOK_clean_linker_0, # of connection points: 2
#     Edge 26, Type (0, 0), BuildingBlock: AJUNOK_clean_linker_0, # of connection points: 2
#     Edge 27, Type (0, 0), BuildingBlock: AJUNOK_clean_linker_0, # of connection points: 2
#     Edge 28, Type (0, 0), BuildingBlock: AJUNOK_clean_linker_0, # of connection points: 2
#     Edge 29, Type (0, 0), BuildingBlock: AJUNOK_clean_linker_0, # of connection points: 2
#     Edge 30, Type (0, 0), BuildingBlock: AJUNOK_clean_linker_0, # of connection points: 2
#     Edge 31, Type (0, 0), BuildingBlock: AJUNOK_clean_linker_0, # of connection points: 2
#     Edge 32, Type (0, 0), BuildingBlock: AJUNOK_clean_linker_0, # of connection points: 2
#     Edge 33, Type (0, 0), BuildingBlock: AJUNOK_clean_linker_0, # of connection points: 2
#     Edge 34, Type (0, 0), BuildingBlock: AJUNOK_clean_linker_0, # of connection points: 2
#     Edge 35, Type (0, 0), BuildingBlock: AJUNOK_clean_linker_0, # of connection points: 2
# Relax obj value: 0.085
# Max RMSD: 0.100
# Mean RMSD: 0.100
data_MOF--net-can--node1-AZAVOO_clean_sbu_0--edge1-AJUNOK_clean_linker_0
_symmetry_space_group_name_H-M    P1
_symmetry_Int_Tables_number       1
_symmetry_cell_setting            triclinic
loop_
_symmetry_equiv_pos_as_xyz
'x, y, z'
_cell_length_a     43.327791
_cell_length_b     43.4337
_cell_length_c     19.978418
_cell_angle_alpha  89.880769
_cell_angle_beta   90.044429
_cell_angle_gamma 119.96124
loop_
_atom_site_label
_atom_site_type_symbol
_atom_site_fract_x
_atom_site_fract_y
_atom_site_fract_z
_atom_type_partial_charge
Mg0 Mg 0.06135 0.39264 0.25734 0.0
O1 O 0.06368 0.44608 0.25578 0.0
O2 O 0.086 0.47463 0.35183 0.0
Mg3 Mg 0.09896 0.43886 0.41653 0.0
C4 C 0.07316 0.47292 0.29353 0.0
C5 C 0.01653 0.36119 0.12981 0.0
O6 O -0.00333 0.33908 0.17701 0.0
O7 O 0.12167 0.42033 0.24086 0.0
O8 O 0.14148 0.44458 0.34181 0.0
O9 O 0.00859 0.36875 0.30847 0.0
O10 O 0.06026 0.39178 0.36126 0.0
C11 C 0.1471 0.4377 0.28242 0.0
C12 C 0.02629 0.37756 0.36404 0.0
O13 O 0.04714 0.38677 0.14566 0.0
Mg14 Mg 0.65159 0.07139 0.75553 0.0
O15 O 0.6038 0.07969 0.7467 0.0
O16 O 0.6002 0.10587 0.84022 0.0
Mg17 Mg 0.6453 0.11301 0.91036 0.0
C18 C 0.58886 0.09297 0.78207 0.0
C19 C 0.64348 0.02915 0.62633 0.0
O20 O 0.63992 0.00631 0.67312 0.0
O21 O 0.68918 0.13035 0.74015 0.0
O22 O 0.68812 0.15345 0.8396 0.0
O23 O 0.61841 0.01844 0.80261 0.0
O24 O 0.64663 0.06884 0.85903 0.0
C25 C 0.70041 0.1566 0.78035 0.0
C26 C 0.62573 0.03493 0.85937 0.0
O27 O 0.64891 0.05961 0.64381 0.0
Mg28 Mg 0.61393 0.66769 0.26732 0.0
O29 O 0.55457 0.6276 0.25825 0.0
O30 O 0.52711 0.62789 0.3526 0.0
Mg31 Mg 0.56916 0.66959 0.42227 0.0
C32 C 0.5265 0.61613 0.2938 0.0
C33 C 0.6146 0.63105 0.13487 0.0
O34 O 0.60313 0.60467 0.17789 0.0
O35 O 0.6027 0.71312 0.25089 0.0
O36 O 0.57839 0.71412 0.34913 0.0
O37 O 0.62249 0.62645 0.31664 0.0
O38 O 0.61029 0.66338 0.37073 0.0
C39 C 0.58991 0.72688 0.2909 0.0
C40 C 0.61522 0.63659 0.37241 0.0
O41 O 0.62098 0.66134 0.15569 0.0
Mg42 Mg 0.91708 0.59559 0.7649 0.0
O43 O 0.91553 0.54239 0.76634 0.0
O44 O 0.89364 0.51513 0.86402 0.0
Mg45 Mg 0.88108 0.55141 0.92674 0.0
C46 C 0.90627 0.51614 0.80589 0.0
C47 C 0.96048 0.62457 0.63365 0.0
O48 O 0.98168 0.64767 0.67823 0.0
O49 O 0.85665 0.56647 0.75009 0.0
O50 O 0.83775 0.5439 0.85248 0.0
O51 O 0.97046 0.62241 0.81328 0.0
O52 O 0.91993 0.59813 0.86946 0.0
C53 C 0.83158 0.54951 0.79252 0.0
C54 C 0.95416 0.61435 0.87033 0.0
O55 O 0.92998 0.59988 0.65258 0.0
Mg56 Mg 0.3311 0.91048 0.24639 0.0
O57 O 0.37973 0.90339 0.24053 0.0
O58 O 0.38443 0.87996 0.33695 0.0
Mg59 Mg 0.33975 0.87385 0.40672 0.0
C60 C 0.39529 0.89143 0.27781 0.0
C61 C 0.33439 0.94987 0.11797 0.0
O62 O 0.33014 0.96808 0.16587 0.0
O63 O 0.29422 0.85078 0.23626 0.0
O64 O 0.29697 0.8315 0.33895 0.0
O65 O 0.36309 0.96441 0.29048 0.0
O66 O 0.33561 0.91494 0.34984 0.0
C67 C 0.28368 0.82604 0.28016 0.0
C68 C 0.35536 0.94895 0.34839 0.0
O69 O 0.33466 0.92159 0.13378 0.0
Mg70 Mg 0.3625 0.31233 0.76303 0.0
O71 O 0.42214 0.35287 0.76151 0.0
O72 O 0.44558 0.35055 0.85988 0.0
Mg73 Mg 0.40147 0.30693 0.92342 0.0
C74 C 0.44854 0.36377 0.8015 0.0
C75 C 0.3621 0.35046 0.63127 0.0
O76 O 0.36954 0.37536 0.67594 0.0
O77 O 0.37495 0.2676 0.74721 0.0
O78 O 0.39591 0.2648 0.84816 0.0
O79 O 0.35215 0.35243 0.81212 0.0
O80 O 0.36248 0.31427 0.86677 0.0
C81 C 0.38675 0.25334 0.7885 0.0
C82 C 0.35774 0.34116 0.86831 0.0
O83 O 0.35862 0.32095 0.65074 0.0
Mg84 Mg 0.61397 0.93849 0.22162 0.0
O85 O 0.55418 0.91847 0.22405 0.0
O86 O 0.53003 0.89058 0.12783 0.0
Mg87 Mg 0.57415 0.89037 0.06522 0.0
C88 C 0.52743 0.90196 0.18524 0.0
C89 C 0.6331 0.98574 0.34722 0.0
O90 O 0.64638 0.00915 0.29855 0.0
O91 O 0.60317 0.88244 0.24236 0.0
O92 O 0.58131 0.8559 0.14389 0.0
O93 O 0.62216 0.98719 0.16924 0.0
O94 O 0.61304 0.93839 0.11768 0.0
C95 C 0.5912 0.85537 0.20396 0.0
C96 C 0.61665 0.96957 0.1142 0.0
O97 O 0.61795 0.95285 0.33265 0.0
Mg98 Mg 0.64493 0.56653 0.73407 0.0
O99 O 0.59694 0.51083 0.74264 0.0
O100 O 0.59471 0.48018 0.65143 0.0
Mg101 Mg 0.64072 0.51731 0.58245 0.0
C102 C 0.58247 0.48233 0.70827 0.0
C103 C 0.64094 0.60535 0.85942 0.0
O104 O 0.6464 0.62802 0.811 0.0
O105 O 0.68255 0.54539 0.7545 0.0
O106 O 0.68281 0.52078 0.65635 0.0
O107 O 0.61263 0.58605 0.68251 0.0
O108 O 0.64189 0.56377 0.62976 0.0
C109 C 0.6945 0.53036 0.71578 0.0
C110 C 0.62109 0.57697 0.62678 0.0
O111 O 0.63961 0.57622 0.84475 0.0
Mg112 Mg 0.0616 0.66815 0.23531 0.0
O113 O 0.06109 0.61512 0.23684 0.0
O114 O 0.08468 0.61033 0.14074 0.0
Mg115 Mg 0.09987 0.6593 0.07666 0.0
C116 C 0.07071 0.59819 0.19787 0.0
C117 C 0.01541 0.63543 0.36196 0.0
O118 O -0.00413 0.61342 0.31449 0.0
O119 O 0.12168 0.69747 0.25439 0.0
O120 O 0.1421 0.694 0.15328 0.0
O121 O 0.0094 0.64406 0.18155 0.0
O122 O 0.06156 0.66871 0.13113 0.0
C123 C 0.14735 0.70517 0.21362 0.0
C124 C 0.0275 0.65232 0.12642 0.0
O125 O 0.04599 0.66128 0.34654 0.0
Mg126 Mg 0.37023 0.04596 0.71287 0.0
O127 O 0.42977 0.06454 0.71993 0.0
O128 O 0.45632 0.09532 0.62725 0.0
Mg129 Mg 0.41428 0.09746 0.56146 0.0
C130 C 0.45747 0.08213 0.68371 0.0
C131 C 0.36175 0.00096 0.84143 0.0
O132 O 0.36595 0.98157 0.79593 0.0
O133 O 0.38146 0.10186 0.7363 0.0
O134 O 0.40504 0.1304 0.64002 0.0
O135 O 0.36085 -0.00235 0.65711 0.0
O136 O 0.37333 0.04835 0.60903 0.0
C137 C 0.39391 0.12965 0.69953 0.0
C138 C 0.36748 0.01644 0.60307 0.0
O139 O 0.36292 0.02964 0.82332 0.0
Mg140 Mg 0.33087 0.41423 0.22916 0.0
O141 O 0.37959 0.46991 0.2333 0.0
O142 O 0.38121 0.49838 0.13885 0.0
Mg143 Mg 0.33407 0.4605 0.07305 0.0
C144 C 0.3941 0.49738 0.19578 0.0
C145 C 0.33651 0.37695 0.35523 0.0
O146 O 0.33129 0.35443 0.30685 0.0
O147 O 0.29411 0.43671 0.2479 0.0
O148 O 0.29344 0.45943 0.14757 0.0
O149 O 0.36181 0.39277 0.17844 0.0
O150 O 0.33282 0.41514 0.12482 0.0
C151 C 0.28222 0.45129 0.20767 0.0
C152 C 0.35303 0.40131 0.12238 0.0
O153 O 0.33706 0.40576 0.34048 0.0
Mg154 Mg 0.91969 0.32305 0.72571 0.0
O155 O 0.91585 0.37327 0.73715 0.0
O156 O 0.89016 0.3795 0.64512 0.0
Mg157 Mg 0.87847 0.33397 0.57349 0.0
C158 C 0.90409 0.39004 0.70289 0.0
C159 C 0.96264 0.35163 0.85767 0.0
O160 O 0.98222 0.37711 0.81514 0.0
O161 O 0.85975 0.28859 0.74413 0.0
O162 O 0.83784 0.29386 0.64624 0.0
O163 O 0.97254 0.35343 0.67596 0.0
O164 O 0.92135 0.32883 0.62153 0.0
C165 C 0.83356 0.2802 0.70441 0.0
C166 C 0.95554 0.3481 0.62003 0.0
O167 O 0.93372 0.32524 0.83693 0.0
C168 C 0.02171 0.38408 0.01245 0.0
C169 C 0.00241 0.3576 0.06051 0.0
C170 C 0.00845 0.38197 0.94752 0.0
C171 C 0.97531 0.35326 0.92759 0.0
H172 H 0.04724 0.40687 0.02508 0.0
H173 H 0.0245 0.40314 0.91267 0.0
S174 S 0.91413 0.2767 0.03416 0.0
N175 N 0.94825 0.3015 0.08334 0.0
N176 N 0.92346 0.29766 0.96159 0.0
C177 C 0.9557 0.32654 0.97508 0.0
C178 C 0.9692 0.32867 0.04132 0.0
C179 C 0.6278 0.97322 0.47039 0.0
C180 C 0.63579 -0.0024 0.41775 0.0
C181 C 0.63045 0.98376 0.53739 0.0
C182 C 0.64093 0.01908 0.55467 0.0
H183 H 0.61967 0.94573 0.45994 0.0
H184 H 0.62409 0.96388 0.57589 0.0
S185 S 0.66406 0.09331 0.43571 0.0
N186 N 0.65421 0.05878 0.38753 0.0
N187 N 0.65899 0.07845 0.51331 0.0
C188 C 0.64873 0.04374 0.50254 0.0
C189 C 0.64624 0.03305 0.43421 0.0
C190 C 0.61694 0.5924 0.04442 0.0
C191 C 0.62128 0.62547 0.06409 0.0
C192 C 0.62367 0.5863 0.97857 0.0
C193 C 0.63488 0.61295 0.92927 0.0
H194 H 0.60838 0.57089 0.08022 0.0
H195 H 0.61978 0.56032 0.96626 0.0
S196 S 0.65039 0.7044 0.95445 0.0
N197 N 0.6376 0.68533 0.02856 0.0
N198 N 0.65018 0.67393 0.90493 0.0
C199 C 0.63932 0.6462 0.94813 0.0
C200 C 0.63254 0.65243 0.01538 0.0
C201 C 0.02005 0.65772 0.47948 0.0
C202 C 0.00096 0.63146 0.43111 0.0
C203 C 0.0065 0.65534 0.54423 0.0
C204 C 0.97325 0.62659 0.56368 0.0
H205 H 0.04564 0.68054 0.46728 0.0
H206 H 0.0224 0.67636 0.5793 0.0
S207 S 0.9129 0.5501 0.45667 0.0
N208 N 0.94709 0.57525 0.40778 0.0
N209 N 0.92178 0.57089 0.52924 0.0
C210 C 0.95389 0.60001 0.51597 0.0
C211 C 0.96771 0.6024 0.44991 0.0
C212 C 0.35319 0.95667 0.93072 0.0
C213 C 0.35475 0.98877 0.91234 0.0
C214 C 0.34629 0.94416 -0.00308 0.0
C215 C 0.3406 0.96318 0.04772 0.0
H216 H 0.35735 0.94091 0.89372 0.0
H217 H 0.34557 0.91941 0.00826 0.0
S218 S 0.34171 0.04883 0.02621 0.0
N219 N 0.34994 0.03933 0.95073 0.0
N220 N 0.33691 0.01594 0.07476 0.0
C221 C 0.34197 -0.00469 0.03004 0.0
C222 C 0.34906 0.00807 0.96259 0.0
C223 C 0.35101 0.39477 0.47566 0.0
C224 C 0.34278 0.36932 0.4251 0.0
C225 C 0.35754 0.3885 0.54166 0.0
C226 C 0.35607 0.35646 0.5602 0.0
H227 H 0.35251 0.41988 0.46433 0.0
H228 H 0.36362 0.40902 0.57847 0.0
S229 S 0.33579 0.28098 0.4469 0.0
N230 N 0.33365 0.31063 0.39833 0.0
N231 N 0.34589 0.29896 0.52213 0.0
C232 C 0.34797 0.33076 0.51016 0.0
C233 C 0.34133 0.33715 0.44281 0.0
C234 C 0.95544 0.60927 -0.00503 0.0
C235 C 0.97389 0.62323 0.93445 0.0
C236 C 0.97306 0.61841 0.05659 0.0
C237 C 0.00982 0.64232 0.06037 0.0
H238 H 0.92704 0.5914 -0.00457 0.0
H239 H 0.9576 0.60682 0.10163 0.0
S240 S 0.07016 0.68896 0.91714 0.0
N241 N 0.03094 0.66325 0.88244 0.0
N242 N 0.06388 0.68167 -0.00161 0.0
C243 C 0.02862 0.65705 0.00038 0.0
C244 C 0.01072 0.64723 0.93745 0.0
C245 C 0.36725 0.95393 0.47109 0.0
C246 C 0.36476 0.96946 0.41105 0.0
C247 C 0.3694 0.96996 0.53292 0.0
C248 C 0.36885 0.00199 0.53692 0.0
H249 H 0.36664 0.92874 0.47064 0.0
H250 H 0.37055 0.95662 0.57794 0.0
S251 S 0.36325 0.05369 0.39358 0.0
N252 N 0.36316 0.01922 0.35886 0.0
N253 N 0.36614 0.04896 0.4749 0.0
C254 C 0.36758 0.01843 0.47691 0.0
C255 C 0.36589 0.00229 0.41395 0.0
C256 C 0.35703 0.34091 0.99272 0.0
C257 C 0.36037 0.35912 0.9324 0.0
C258 C 0.35715 0.35601 0.05446 0.0
C259 C 0.36044 0.38979 0.05814 0.0
H260 H 0.35296 0.3142 0.99237 0.0
H261 H 0.35271 0.34028 0.09934 0.0
S262 S 0.3766 0.4511 0.91608 0.0
N263 N 0.37151 0.41451 0.88073 0.0
N264 N 0.37215 0.44304 -0.00265 0.0
C265 C 0.36607 0.40922 -0.00129 0.0
C266 C 0.36589 0.39382 0.93562 0.0
C267 C 0.00668 0.3592 0.54821 0.0
C268 C 0.97498 0.3602 0.55611 0.0
C269 C 0.02339 0.36552 0.48585 0.0
C270 C 0.00881 0.37277 0.42919 0.0
H271 H 0.01793 0.3521 0.58987 0.0
H272 H 0.04729 0.36357 0.48157 0.0
S273 S 0.93065 0.38573 0.42607 0.0
N274 N 0.93311 0.37483 0.50432 0.0
N275 N 0.9637 0.38512 0.3862 0.0
C276 C 0.97827 0.37572 0.43693 0.0
C277 C 0.96155 0.36985 0.50075 0.0
C278 C 0.61881 0.98436 0.9276 0.0
C279 C 0.61597 0.01509 0.92278 0.0
C280 C 0.61772 0.96909 0.98981 0.0
C281 C 0.61365 0.984 0.04927 0.0
H282 H 0.62414 0.97328 0.8835 0.0
H283 H 0.62179 0.94644 0.99135 0.0
S284 S 0.59705 0.0597 0.06163 0.0
N285 N 0.603 0.05637 0.98092 0.0
N286 N 0.60142 0.02802 0.09845 0.0
C287 C 0.60799 0.01309 0.04459 0.0
C288 C 0.60901 0.02856 0.98108 0.0
C289 C 0.61254 0.63492 0.49679 0.0
C290 C 0.61198 0.6181 0.43631 0.0
C291 C 0.61288 0.61992 0.5585 0.0
C292 C 0.61289 0.58764 0.5621 0.0
H293 H 0.61427 0.66067 0.49672 0.0
H294 H 0.61524 0.63482 0.60352 0.0
S295 S 0.60452 0.52963 0.41909 0.0
N296 N 0.60668 0.56513 0.38408 0.0
N297 N 0.60696 0.53677 0.50056 0.0
C298 C 0.6098 0.56931 0.50234 0.0
C299 C 0.60947 0.5846 0.43927 0.0
C300 C 0.0711 0.5594 0.29002 0.0
C301 C 0.06795 0.56459 0.2214 0.0
C302 C 0.07234 0.52952 0.31295 0.0
C303 C 0.06993 0.50337 0.26824 0.0
H304 H 0.07386 0.57917 0.3262 0.0
H305 H 0.07556 0.52712 0.36614 0.0
S306 S 0.05796 0.50299 0.08383 0.0
N307 N 0.06018 0.54017 0.10927 0.0
N308 N 0.06205 0.48381 0.15202 0.0
C309 C 0.06529 0.50759 0.19961 0.0
C310 C 0.06445 0.53824 0.17629 0.0
C311 C 0.49827 0.08653 0.77645 0.0
C312 C 0.49183 0.08655 0.70741 0.0
C313 C 0.53016 0.08963 0.80019 0.0
C314 C 0.55649 0.09211 0.75575 0.0
H315 H 0.47854 0.08415 0.81254 0.0
H316 H 0.53378 0.08917 0.85377 0.0
S317 S 0.55284 0.09366 0.5702 0.0
N318 N 0.51473 0.08988 0.59482 0.0
N319 N 0.57435 0.09509 0.63942 0.0
C320 C 0.5505 0.09239 0.68658 0.0
C321 C 0.51829 0.08981 0.66243 0.0
C322 C 0.46516 0.56459 0.31141 0.0
C323 C 0.49237 0.58718 0.26705 0.0
C324 C 0.43342 0.53576 0.28783 0.0
C325 C 0.42735 0.52879 0.21892 0.0
H326 H 0.46867 0.56865 0.36499 0.0
H327 H 0.41346 0.51881 0.32397 0.0
S328 S 0.48969 0.58029 0.08161 0.0
N329 N 0.51092 0.60081 0.15062 0.0
N330 N 0.451 0.54694 0.10638 0.0
C331 C 0.45399 0.55153 0.17385 0.0
C332 C 0.48657 0.58059 0.19788 0.0
C333 C 0.90509 0.47769 0.71236 0.0
C334 C 0.90797 0.48492 0.78139 0.0
C335 C 0.90409 0.4471 0.68763 0.0
C336 C 0.90647 0.42274 0.7308 0.0
H337 H 0.90264 0.49533 0.67707 0.0
H338 H 0.90133 0.44255 0.63411 0.0
S339 S 0.91687 0.43067 0.91563 0.0
N340 N 0.91478 0.4661 0.89251 0.0
N341 N 0.91338 0.40873 0.84604 0.0
C342 C 0.91047 0.43018 0.79989 0.0
C343 C 0.91103 0.46119 0.82517 0.0
C344 C 0.45321 0.89342 0.29811 0.0
C345 C 0.42777 0.89209 0.25259 0.0
C346 C 0.48513 0.89619 0.2758 0.0
C347 C 0.49262 0.89708 0.20708 0.0
H348 H 0.44889 0.89324 0.35155 0.0
H349 H 0.50416 0.89776 0.31281 0.0
S350 S 0.43423 0.89293 0.06717 0.0
N351 N 0.41182 0.89092 0.13539 0.0
N352 N 0.47165 0.89569 0.0935 0.0
C353 C 0.46705 0.89487 0.16092 0.0
C354 C 0.43472 0.89254 0.18365 0.0
C355 C 0.5246 0.4265 0.68863 0.0
C356 C 0.54948 0.4513 0.73381 0.0
C357 C 0.49211 0.39821 0.71103 0.0
C358 C 0.48355 0.39321 0.77958 0.0
H359 H 0.5298 0.42944 0.63529 0.0
H360 H 0.47356 0.3801 0.67428 0.0
S361 S 0.54002 0.45 0.91867 0.0
N362 N 0.56364 0.46861 0.85053 0.0
N363 N 0.50282 0.41514 0.89267 0.0
C364 C 0.50851 0.41734 0.82548 0.0
C365 C 0.54138 0.44647 0.80259 0.0
C366 C 0.19284 0.44655 0.19657 0.0
C367 C 0.18391 0.44695 0.26404 0.0
C368 C 0.2258 0.45034 0.17865 0.0
C369 C 0.25087 0.45408 0.22759 0.0
H370 H 0.17383 0.44217 0.15728 0.0
H371 H 0.23078 0.44835 0.12615 0.0
S372 S 0.2425 0.46098 0.41075 0.0
N373 N 0.20452 0.45492 0.37986 0.0
N374 N 0.2661 0.46134 0.34564 0.0
C375 C 0.24319 0.4565 0.29489 0.0
C376 C 0.20983 0.45317 0.31324 0.0
C377 C 0.78933 0.24149 0.79098 0.0
C378 C 0.7975 0.25145 0.72348 0.0
C379 C 0.75682 0.21187 0.80928 0.0
C380 C 0.73156 0.19077 0.76064 0.0
H381 H 0.80852 0.25614 0.82991 0.0
H382 H 0.75225 0.20448 0.86168 0.0
S383 S 0.7383 0.20702 0.57768 0.0
N384 N 0.77618 0.23916 0.60809 0.0
N385 N 0.71548 0.18324 0.64297 0.0
C386 C 0.73861 0.20125 0.69337 0.0
C387 C 0.77145 0.23168 0.67468 0.0
C388 C 0.59037 0.76767 0.20202 0.0
C389 C 0.58932 0.75935 0.27028 0.0
C390 C 0.59042 0.79849 0.18129 0.0
C391 C 0.58996 0.82252 0.22799 0.0
H392 H 0.59101 0.75018 0.16415 0.0
H393 H 0.59143 0.80376 0.12807 0.0
S394 S 0.58718 0.81317 0.41283 0.0
N395 N 0.58767 0.77769 0.38486 0.0
N396 N 0.58805 0.83574 0.3456 0.0
C397 C 0.58888 0.81457 0.29643 0.0
C398 C 0.58843 0.78295 0.31763 0.0
C399 C 0.78512 0.53792 0.70628 0.0
C400 C 0.79443 0.53892 0.77398 0.0
C401 C 0.75166 0.53268 0.68786 0.0
C402 C 0.72644 0.52883 0.73646 0.0
H403 H 0.80419 0.5423 0.66714 0.0
H404 H 0.74634 0.53365 0.63513 0.0
S405 S 0.73572 0.52519 0.92025 0.0
N406 N 0.77409 0.5321 0.88984 0.0
N407 N 0.71153 0.52293 0.85463 0.0
C408 C 0.73454 0.52777 0.8041 0.0
C409 C 0.76842 0.5326 0.823 0.0
C410 C 0.2419 0.78132 0.19843 0.0
C411 C 0.2519 0.79125 0.26526 0.0
C412 C 0.20885 0.75197 0.1826 0.0
C413 C 0.1842 0.73168 0.23296 0.0
H414 H 0.25915 0.79713 0.15784 0.0
H415 H 0.20191 0.74646 0.13017 0.0
S416 S 0.19921 0.74362 0.41605 0.0
N417 N 0.23597 0.77611 0.38265 0.0
N418 N 0.17354 0.72119 0.35239 0.0
C419 C 0.19471 0.73987 0.30005 0.0
C420 C 0.22866 0.76954 0.31632 0.0
C421 C 0.3918 0.2159 0.69918 0.0
C422 C 0.38939 0.22207 0.76745 0.0
C423 C 0.39405 0.18639 0.67805 0.0
C424 C 0.39346 0.16154 0.72428 0.0
H425 H 0.3921 0.23409 0.66163 0.0
H426 H 0.39557 0.18273 0.62478 0.0
S427 S 0.38745 0.16539 0.90902 0.0
N428 N 0.38669 0.20088 0.88159 0.0
N429 N 0.39065 0.14529 0.84158 0.0
C430 C 0.39116 0.1674 0.79277 0.0
C431 C 0.38923 0.19768 0.81441 0.0
loop_
_geom_bond_atom_site_label_1
_geom_bond_atom_site_label_2
_geom_bond_distance
_geom_bond_site_symmetry_2
_ccdc_geom_bond_type
Mg0 O1 2.028 . S
Mg0 O7 1.986 . S
Mg0 O9 2.114 . S
Mg0 O10 2.251 . S
Mg0 O13 2.010 . S
O1 Mg0 2.028 . S
O1 C4 1.250 . S
O2 Mg3 2.028 . S
O2 C4 1.248 . S
Mg3 O2 2.028 . S
Mg3 O8 2.032 . S
Mg3 O10 2.079 . S
C4 O1 1.250 . S
C4 O2 1.248 . S
C5 O6 1.264 . S
C5 O13 1.249 . S
O6 C5 1.264 . S
O7 Mg0 1.986 . S
O7 C11 1.246 . S
O8 Mg3 2.032 . S
O8 C11 1.259 . S
O9 Mg0 2.114 . S
O9 C12 1.252 . S
O10 Mg0 2.251 . S
O10 Mg3 2.079 . S
O10 C12 1.273 . S
C11 O7 1.246 . S
C11 O8 1.259 . S
C12 O9 1.252 . S
C12 O10 1.273 . S
O13 Mg0 2.010 . S
O13 C5 1.249 . S
Mg14 O15 2.028 . S
Mg14 O21 1.986 . S
Mg14 O23 2.114 . S
Mg14 O24 2.251 . S
Mg14 O27 2.010 . S
O15 Mg14 2.028 . S
O15 C18 1.250 . S
O16 Mg17 2.028 . S
O16 C18 1.248 . S
Mg17 O16 2.028 . S
Mg17 O22 2.032 . S
Mg17 O24 2.079 . S
C18 O15 1.250 . S
C18 O16 1.248 . S
C19 O20 1.264 . S
C19 O27 1.249 . S
O20 C19 1.264 . S
O21 Mg14 1.986 . S
O21 C25 1.246 . S
O22 Mg17 2.032 . S
O22 C25 1.259 . S
O23 Mg14 2.114 . S
O23 C26 1.252 . S
O24 Mg14 2.251 . S
O24 Mg17 2.079 . S
O24 C26 1.273 . S
C25 O21 1.246 . S
C25 O22 1.259 . S
C26 O23 1.252 . S
C26 O24 1.273 . S
O27 Mg14 2.010 . S
O27 C19 1.249 . S
Mg28 O29 2.028 . S
Mg28 O35 1.986 . S
Mg28 O37 2.114 . S
Mg28 O38 2.251 . S
Mg28 O41 2.010 . S
O29 Mg28 2.028 . S
O29 C32 1.250 . S
O30 Mg31 2.028 . S
O30 C32 1.248 . S
Mg31 O30 2.028 . S
Mg31 O36 2.032 . S
Mg31 O38 2.079 . S
C32 O29 1.250 . S
C32 O30 1.248 . S
C33 O34 1.264 . S
C33 O41 1.249 . S
O34 C33 1.264 . S
O35 Mg28 1.986 . S
O35 C39 1.246 . S
O36 Mg31 2.032 . S
O36 C39 1.259 . S
O37 Mg28 2.114 . S
O37 C40 1.252 . S
O38 Mg28 2.251 . S
O38 Mg31 2.079 . S
O38 C40 1.273 . S
C39 O35 1.246 . S
C39 O36 1.259 . S
C40 O37 1.252 . S
C40 O38 1.273 . S
O41 Mg28 2.010 . S
O41 C33 1.249 . S
Mg42 O43 2.028 . S
Mg42 O49 1.986 . S
Mg42 O51 2.114 . S
Mg42 O52 2.251 . S
Mg42 O55 2.010 . S
O43 Mg42 2.028 . S
O43 C46 1.250 . S
O44 Mg45 2.028 . S
O44 C46 1.248 . S
Mg45 O44 2.028 . S
Mg45 O50 2.032 . S
Mg45 O52 2.079 . S
C46 O43 1.250 . S
C46 O44 1.248 . S
C47 O48 1.264 . S
C47 O55 1.249 . S
O48 C47 1.264 . S
O49 Mg42 1.986 . S
O49 C53 1.246 . S
O50 Mg45 2.032 . S
O50 C53 1.259 . S
O51 Mg42 2.114 . S
O51 C54 1.252 . S
O52 Mg42 2.251 . S
O52 Mg45 2.079 . S
O52 C54 1.273 . S
C53 O49 1.246 . S
C53 O50 1.259 . S
C54 O51 1.252 . S
C54 O52 1.273 . S
O55 Mg42 2.010 . S
O55 C47 1.249 . S
Mg56 O57 2.028 . S
Mg56 O63 1.986 . S
Mg56 O65 2.114 . S
Mg56 O66 2.251 . S
Mg56 O69 2.010 . S
O57 Mg56 2.028 . S
O57 C60 1.250 . S
O58 Mg59 2.028 . S
O58 C60 1.248 . S
Mg59 O58 2.028 . S
Mg59 O64 2.032 . S
Mg59 O66 2.079 . S
C60 O57 1.250 . S
C60 O58 1.248 . S
C61 O62 1.264 . S
C61 O69 1.249 . S
O62 C61 1.264 . S
O63 Mg56 1.986 . S
O63 C67 1.246 . S
O64 Mg59 2.032 . S
O64 C67 1.259 . S
O65 Mg56 2.114 . S
O65 C68 1.252 . S
O66 Mg56 2.251 . S
O66 Mg59 2.079 . S
O66 C68 1.273 . S
C67 O63 1.246 . S
C67 O64 1.259 . S
C68 O65 1.252 . S
C68 O66 1.273 . S
O69 Mg56 2.010 . S
O69 C61 1.249 . S
Mg70 O71 2.028 . S
Mg70 O77 1.986 . S
Mg70 O79 2.114 . S
Mg70 O80 2.251 . S
Mg70 O83 2.010 . S
O71 Mg70 2.028 . S
O71 C74 1.250 . S
O72 Mg73 2.028 . S
O72 C74 1.248 . S
Mg73 O72 2.028 . S
Mg73 O78 2.032 . S
Mg73 O80 2.079 . S
C74 O71 1.250 . S
C74 O72 1.248 . S
C75 O76 1.264 . S
C75 O83 1.249 . S
O76 C75 1.264 . S
O77 Mg70 1.986 . S
O77 C81 1.246 . S
O78 Mg73 2.032 . S
O78 C81 1.259 . S
O79 Mg70 2.114 . S
O79 C82 1.252 . S
O80 Mg70 2.251 . S
O80 Mg73 2.079 . S
O80 C82 1.273 . S
C81 O77 1.246 . S
C81 O78 1.259 . S
C82 O79 1.252 . S
C82 O80 1.273 . S
O83 Mg70 2.010 . S
O83 C75 1.249 . S
Mg84 O85 2.028 . S
Mg84 O91 1.986 . S
Mg84 O93 2.114 . S
Mg84 O94 2.251 . S
Mg84 O97 2.010 . S
O85 Mg84 2.028 . S
O85 C88 1.250 . S
O86 Mg87 2.028 . S
O86 C88 1.248 . S
Mg87 O86 2.028 . S
Mg87 O92 2.032 . S
Mg87 O94 2.079 . S
C88 O85 1.250 . S
C88 O86 1.248 . S
C89 O90 1.264 . S
C89 O97 1.249 . S
O90 C89 1.264 . S
O91 Mg84 1.986 . S
O91 C95 1.246 . S
O92 Mg87 2.032 . S
O92 C95 1.259 . S
O93 Mg84 2.114 . S
O93 C96 1.252 . S
O94 Mg84 2.251 . S
O94 Mg87 2.079 . S
O94 C96 1.273 . S
C95 O91 1.246 . S
C95 O92 1.259 . S
C96 O93 1.252 . S
C96 O94 1.273 . S
O97 Mg84 2.010 . S
O97 C89 1.249 . S
Mg98 O99 2.028 . S
Mg98 O105 1.986 . S
Mg98 O107 2.114 . S
Mg98 O108 2.251 . S
Mg98 O111 2.010 . S
O99 Mg98 2.028 . S
O99 C102 1.250 . S
O100 Mg101 2.028 . S
O100 C102 1.248 . S
Mg101 O100 2.028 . S
Mg101 O106 2.032 . S
Mg101 O108 2.079 . S
C102 O99 1.250 . S
C102 O100 1.248 . S
C103 O104 1.264 . S
C103 O111 1.249 . S
O104 C103 1.264 . S
O105 Mg98 1.986 . S
O105 C109 1.246 . S
O106 Mg101 2.032 . S
O106 C109 1.259 . S
O107 Mg98 2.114 . S
O107 C110 1.252 . S
O108 Mg98 2.251 . S
O108 Mg101 2.079 . S
O108 C110 1.273 . S
C109 O105 1.246 . S
C109 O106 1.259 . S
C110 O107 1.252 . S
C110 O108 1.273 . S
O111 Mg98 2.010 . S
O111 C103 1.249 . S
Mg112 O113 2.028 . S
Mg112 O119 1.986 . S
Mg112 O121 2.114 . S
Mg112 O122 2.251 . S
Mg112 O125 2.010 . S
O113 Mg112 2.028 . S
O113 C116 1.250 . S
O114 Mg115 2.028 . S
O114 C116 1.248 . S
Mg115 O114 2.028 . S
Mg115 O120 2.032 . S
Mg115 O122 2.079 . S
C116 O113 1.250 . S
C116 O114 1.248 . S
C117 O118 1.264 . S
C117 O125 1.249 . S
O118 C117 1.264 . S
O119 Mg112 1.986 . S
O119 C123 1.246 . S
O120 Mg115 2.032 . S
O120 C123 1.259 . S
O121 Mg112 2.114 . S
O121 C124 1.252 . S
O122 Mg112 2.251 . S
O122 Mg115 2.079 . S
O122 C124 1.273 . S
C123 O119 1.246 . S
C123 O120 1.259 . S
C124 O121 1.252 . S
C124 O122 1.273 . S
O125 Mg112 2.010 . S
O125 C117 1.249 . S
Mg126 O127 2.028 . S
Mg126 O133 1.986 . S
Mg126 O135 2.114 . S
Mg126 O136 2.251 . S
Mg126 O139 2.010 . S
O127 Mg126 2.028 . S
O127 C130 1.250 . S
O128 Mg129 2.028 . S
O128 C130 1.248 . S
Mg129 O128 2.028 . S
Mg129 O134 2.032 . S
Mg129 O136 2.079 . S
C130 O127 1.250 . S
C130 O128 1.248 . S
C131 O132 1.264 . S
C131 O139 1.249 . S
O132 C131 1.264 . S
O133 Mg126 1.986 . S
O133 C137 1.246 . S
O134 Mg129 2.032 . S
O134 C137 1.259 . S
O135 Mg126 2.114 . S
O135 C138 1.252 . S
O136 Mg126 2.251 . S
O136 Mg129 2.079 . S
O136 C138 1.273 . S
C137 O133 1.246 . S
C137 O134 1.259 . S
C138 O135 1.252 . S
C138 O136 1.273 . S
O139 Mg126 2.010 . S
O139 C131 1.249 . S
Mg140 O141 2.028 . S
Mg140 O147 1.986 . S
Mg140 O149 2.114 . S
Mg140 O150 2.251 . S
Mg140 O153 2.010 . S
O141 Mg140 2.028 . S
O141 C144 1.250 . S
O142 Mg143 2.028 . S
O142 C144 1.248 . S
Mg143 O142 2.028 . S
Mg143 O148 2.032 . S
Mg143 O150 2.079 . S
C144 O141 1.250 . S
C144 O142 1.248 . S
C145 O146 1.264 . S
C145 O153 1.249 . S
O146 C145 1.264 . S
O147 Mg140 1.986 . S
O147 C151 1.246 . S
O148 Mg143 2.032 . S
O148 C151 1.259 . S
O149 Mg140 2.114 . S
O149 C152 1.252 . S
O150 Mg140 2.251 . S
O150 Mg143 2.079 . S
O150 C152 1.273 . S
C151 O147 1.246 . S
C151 O148 1.259 . S
C152 O149 1.252 . S
C152 O150 1.273 . S
O153 Mg140 2.010 . S
O153 C145 1.249 . S
Mg154 O155 2.028 . S
Mg154 O161 1.986 . S
Mg154 O163 2.114 . S
Mg154 O164 2.251 . S
Mg154 O167 2.010 . S
O155 Mg154 2.028 . S
O155 C158 1.250 . S
O156 Mg157 2.028 . S
O156 C158 1.248 . S
Mg157 O156 2.028 . S
Mg157 O162 2.032 . S
Mg157 O164 2.079 . S
C158 O155 1.250 . S
C158 O156 1.248 . S
C159 O160 1.264 . S
C159 O167 1.249 . S
O160 C159 1.264 . S
O161 Mg154 1.986 . S
O161 C165 1.246 . S
O162 Mg157 2.032 . S
O162 C165 1.259 . S
O163 Mg154 2.114 . S
O163 C166 1.252 . S
O164 Mg154 2.251 . S
O164 Mg157 2.079 . S
O164 C166 1.273 . S
C165 O161 1.246 . S
C165 O162 1.259 . S
C166 O163 1.252 . S
C166 O164 1.273 . S
O167 Mg154 2.010 . S
O167 C159 1.249 . S
C168 C169 1.369 . S
C168 C170 1.419 1_554 S
C168 H172 0.930 . S
C169 C168 1.369 . S
C169 C178 1.429 1_455 S
C170 C168 1.419 1_556 S
C170 C171 1.363 1_455 S
C170 H173 0.929 . S
C171 C170 1.363 1_655 S
C171 C177 1.428 . S
H172 C168 0.930 . S
H173 C170 0.929 . S
S174 N175 1.613 . S
S174 N176 1.610 1_554 S
N175 S174 1.613 . S
N175 C178 1.350 . S
N176 S174 1.610 1_556 S
N176 C177 1.351 . S
C177 C171 1.428 . S
C177 N176 1.351 . S
C177 C178 1.434 1_556 S
C178 C169 1.429 1_655 S
C178 N175 1.350 . S
C178 C177 1.434 1_554 S
C179 C180 1.369 . S
C179 C181 1.419 . S
C179 H183 0.930 . S
C180 C179 1.369 . S
C180 C189 1.429 1_565 S
C181 C179 1.419 . S
C181 C182 1.363 1_565 S
C181 H184 0.929 . S
C182 C181 1.363 1_545 S
C182 C188 1.428 . S
H183 C179 0.930 . S
H184 C181 0.929 . S
S185 N186 1.613 . S
S185 N187 1.610 . S
N186 S185 1.613 . S
N186 C189 1.350 . S
N187 S185 1.610 . S
N187 C188 1.351 . S
C188 C182 1.428 . S
C188 N187 1.351 . S
C188 C189 1.434 . S
C189 C180 1.429 1_545 S
C189 N186 1.350 . S
C189 C188 1.434 . S
C190 C191 1.369 . S
C190 C192 1.419 1_554 S
C190 H194 0.930 . S
C191 C190 1.369 . S
C191 C200 1.429 . S
C192 C190 1.419 1_556 S
C192 C193 1.363 . S
C192 H195 0.929 . S
C193 C192 1.363 . S
C193 C199 1.428 . S
H194 C190 0.930 . S
H195 C192 0.929 . S
S196 N197 1.613 1_556 S
S196 N198 1.610 . S
N197 S196 1.613 1_554 S
N197 C200 1.350 . S
N198 S196 1.610 . S
N198 C199 1.351 . S
C199 C193 1.428 . S
C199 N198 1.351 . S
C199 C200 1.434 1_556 S
C200 C191 1.429 . S
C200 N197 1.350 . S
C200 C199 1.434 1_554 S
C201 C202 1.369 . S
C201 C203 1.419 . S
C201 H205 0.930 . S
C202 C201 1.369 . S
C202 C211 1.429 1_455 S
C203 C201 1.419 . S
C203 C204 1.363 1_455 S
C203 H206 0.929 . S
C204 C203 1.363 1_655 S
C204 C210 1.428 . S
H205 C201 0.930 . S
H206 C203 0.929 . S
S207 N208 1.613 . S
S207 N209 1.610 . S
N208 S207 1.613 . S
N208 C211 1.350 . S
N209 S207 1.610 . S
N209 C210 1.351 . S
C210 C204 1.428 . S
C210 N209 1.351 . S
C210 C211 1.434 . S
C211 C202 1.429 1_655 S
C211 N208 1.350 . S
C211 C210 1.434 . S
C212 C213 1.369 1_565 S
C212 C214 1.419 1_556 S
C212 H216 0.930 . S
C213 C212 1.369 1_545 S
C213 C222 1.429 . S
C214 C212 1.419 1_554 S
C214 C215 1.363 . S
C214 H217 0.929 . S
C215 C214 1.363 . S
C215 C221 1.428 1_565 S
H216 C212 0.930 . S
H217 C214 0.929 . S
S218 N219 1.612 1_554 S
S218 N220 1.610 . S
N219 S218 1.612 1_556 S
N219 C222 1.350 . S
N220 S218 1.610 . S
N220 C221 1.351 . S
C221 C215 1.428 1_545 S
C221 N220 1.351 . S
C221 C222 1.434 1_554 S
C222 C213 1.429 . S
C222 N219 1.350 . S
C222 C221 1.434 1_556 S
C223 C224 1.369 . S
C223 C225 1.419 . S
C223 H227 0.930 . S
C224 C223 1.369 . S
C224 C233 1.429 . S
C225 C223 1.419 . S
C225 C226 1.363 . S
C225 H228 0.929 . S
C226 C225 1.363 . S
C226 C232 1.428 . S
H227 C223 0.930 . S
H228 C225 0.929 . S
S229 N230 1.613 . S
S229 N231 1.610 . S
N230 S229 1.613 . S
N230 C233 1.350 . S
N231 S229 1.610 . S
N231 C232 1.351 . S
C232 C226 1.428 . S
C232 N231 1.351 . S
C232 C233 1.434 . S
C233 C224 1.429 . S
C233 N230 1.350 . S
C233 C232 1.434 . S
C234 C235 1.369 . S
C234 C236 1.419 1_556 S
C234 H238 0.930 1_556 S
C235 C234 1.369 . S
C235 C244 1.429 1_655 S
C236 C234 1.419 1_554 S
C236 C237 1.363 1_655 S
C236 H239 0.929 . S
C237 C236 1.363 1_455 S
C237 C243 1.428 1_554 S
H238 C234 0.930 1_554 S
H239 C236 0.929 . S
S240 N241 1.613 . S
S240 N242 1.610 . S
N241 S240 1.613 . S
N241 C244 1.350 . S
N242 S240 1.610 . S
N242 C243 1.351 . S
C243 C237 1.428 1_556 S
C243 N242 1.351 . S
C243 C244 1.434 . S
C244 C235 1.429 1_455 S
C244 N241 1.350 . S
C244 C243 1.434 . S
C245 C246 1.369 . S
C245 C247 1.419 . S
C245 H249 0.930 . S
C246 C245 1.369 . S
C246 C255 1.429 1_565 S
C247 C245 1.419 . S
C247 C248 1.363 1_565 S
C247 H250 0.929 . S
C248 C247 1.363 1_545 S
C248 C254 1.428 . S
H249 C245 0.930 . S
H250 C247 0.929 . S
S251 N252 1.613 . S
S251 N253 1.610 . S
N252 S251 1.613 . S
N252 C255 1.350 . S
N253 S251 1.610 . S
N253 C254 1.351 . S
C254 C248 1.428 . S
C254 N253 1.351 . S
C254 C255 1.434 . S
C255 C246 1.429 1_545 S
C255 N252 1.350 . S
C255 C254 1.434 . S
C256 C257 1.369 . S
C256 C258 1.419 1_556 S
C256 H260 0.930 . S
C257 C256 1.369 . S
C257 C266 1.429 . S
C258 C256 1.419 1_554 S
C258 C259 1.363 . S
C258 H261 0.929 . S
C259 C258 1.363 . S
C259 C265 1.428 . S
H260 C256 0.930 . S
H261 C258 0.929 . S
S262 N263 1.613 . S
S262 N264 1.610 1_556 S
N263 S262 1.613 . S
N263 C266 1.350 . S
N264 S262 1.610 1_554 S
N264 C265 1.351 . S
C265 C259 1.428 . S
C265 N264 1.351 . S
C265 C266 1.434 1_554 S
C266 C257 1.429 . S
C266 N263 1.350 . S
C266 C265 1.434 1_556 S
C267 C268 1.369 1_455 S
C267 C269 1.419 . S
C267 H271 0.930 . S
C268 C267 1.369 1_655 S
C268 C277 1.429 . S
C269 C267 1.419 . S
C269 C270 1.363 . S
C269 H272 0.929 . S
C270 C269 1.363 . S
C270 C276 1.428 1_455 S
H271 C267 0.930 . S
H272 C269 0.929 . S
S273 N274 1.613 . S
S273 N275 1.610 . S
N274 S273 1.613 . S
N274 C277 1.350 . S
N275 S273 1.610 . S
N275 C276 1.351 . S
C276 C270 1.428 1_655 S
C276 N275 1.351 . S
C276 C277 1.434 . S
C277 C268 1.429 . S
C277 N274 1.350 . S
C277 C276 1.434 . S
C278 C279 1.369 1_565 S
C278 C280 1.419 1_556 S
C278 H282 0.930 . S
C279 C278 1.369 1_545 S
C279 C288 1.429 . S
C280 C278 1.419 1_554 S
C280 C281 1.363 . S
C280 H283 0.929 . S
C281 C280 1.363 . S
C281 C287 1.428 1_565 S
H282 C278 0.930 . S
H283 C280 0.929 . S
S284 N285 1.617 . S
S284 N286 1.610 . S
N285 S284 1.617 . S
N285 C288 1.350 1_554 S
N286 S284 1.610 . S
N286 C287 1.351 . S
C287 C281 1.428 1_545 S
C287 N286 1.351 . S
C287 C288 1.434 1_554 S
C288 C279 1.429 . S
C288 N285 1.350 1_556 S
C288 C287 1.434 1_556 S
C289 C290 1.369 . S
C289 C291 1.419 . S
C289 H293 0.930 . S
C290 C289 1.369 . S
C290 C299 1.429 . S
C291 C289 1.419 . S
C291 C292 1.363 . S
C291 H294 0.929 . S
C292 C291 1.363 . S
C292 C298 1.428 . S
H293 C289 0.930 . S
H294 C291 0.929 . S
S295 N296 1.613 . S
S295 N297 1.610 . S
N296 S295 1.613 . S
N296 C299 1.350 . S
N297 S295 1.610 . S
N297 C298 1.351 . S
C298 C292 1.428 . S
C298 N297 1.351 . S
C298 C299 1.434 . S
C299 C290 1.429 . S
C299 N296 1.350 . S
C299 C298 1.434 . S
C300 C301 1.369 . S
C300 C302 1.419 . S
C300 H304 0.930 . S
C301 C300 1.369 . S
C301 C310 1.429 . S
C302 C300 1.419 . S
C302 C303 1.363 . S
C302 H305 0.929 . S
C303 C302 1.363 . S
C303 C309 1.428 . S
H304 C300 0.930 . S
H305 C302 0.929 . S
S306 N307 1.613 . S
S306 N308 1.610 . S
N307 S306 1.613 . S
N307 C310 1.350 . S
N308 S306 1.610 . S
N308 C309 1.351 . S
C309 C303 1.428 . S
C309 N308 1.351 . S
C309 C310 1.434 . S
C310 C301 1.429 . S
C310 N307 1.350 . S
C310 C309 1.434 . S
C311 C312 1.369 . S
C311 C313 1.419 . S
C311 H315 0.930 . S
C312 C311 1.369 . S
C312 C321 1.429 . S
C313 C311 1.419 . S
C313 C314 1.363 . S
C313 H316 0.929 . S
C314 C313 1.363 . S
C314 C320 1.428 . S
H315 C311 0.930 . S
H316 C313 0.929 . S
S317 N318 1.613 . S
S317 N319 1.610 . S
N318 S317 1.613 . S
N318 C321 1.350 . S
N319 S317 1.610 . S
N319 C320 1.351 . S
C320 C314 1.428 . S
C320 N319 1.351 . S
C320 C321 1.434 . S
C321 C312 1.429 . S
C321 N318 1.350 . S
C321 C320 1.434 . S
C322 C323 1.369 . S
C322 C324 1.419 . S
C322 H326 0.930 . S
C323 C322 1.369 . S
C323 C332 1.429 . S
C324 C322 1.419 . S
C324 C325 1.363 . S
C324 H327 0.929 . S
C325 C324 1.363 . S
C325 C331 1.428 . S
H326 C322 0.930 . S
H327 C324 0.929 . S
S328 N329 1.613 . S
S328 N330 1.610 . S
N329 S328 1.613 . S
N329 C332 1.350 . S
N330 S328 1.610 . S
N330 C331 1.351 . S
C331 C325 1.428 . S
C331 N330 1.351 . S
C331 C332 1.434 . S
C332 C323 1.429 . S
C332 N329 1.350 . S
C332 C331 1.434 . S
C333 C334 1.369 . S
C333 C335 1.419 . S
C333 H337 0.930 . S
C334 C333 1.369 . S
C334 C343 1.429 . S
C335 C333 1.419 . S
C335 C336 1.363 . S
C335 H338 0.929 . S
C336 C335 1.363 . S
C336 C342 1.428 . S
H337 C333 0.930 . S
H338 C335 0.929 . S
S339 N340 1.613 . S
S339 N341 1.610 . S
N340 S339 1.613 . S
N340 C343 1.350 . S
N341 S339 1.610 . S
N341 C342 1.351 . S
C342 C336 1.428 . S
C342 N341 1.351 . S
C342 C343 1.434 . S
C343 C334 1.429 . S
C343 N340 1.350 . S
C343 C342 1.434 . S
C344 C345 1.369 . S
C344 C346 1.419 . S
C344 H348 0.930 . S
C345 C344 1.369 . S
C345 C354 1.429 . S
C346 C344 1.419 . S
C346 C347 1.363 . S
C346 H349 0.929 . S
C347 C346 1.363 . S
C347 C353 1.428 . S
H348 C344 0.930 . S
H349 C346 0.929 . S
S350 N351 1.613 . S
S350 N352 1.610 . S
N351 S350 1.613 . S
N351 C354 1.350 . S
N352 S350 1.610 . S
N352 C353 1.351 . S
C353 C347 1.428 . S
C353 N352 1.351 . S
C353 C354 1.434 . S
C354 C345 1.429 . S
C354 N351 1.350 . S
C354 C353 1.434 . S
C355 C356 1.369 . S
C355 C357 1.419 . S
C355 H359 0.930 . S
C356 C355 1.369 . S
C356 C365 1.429 . S
C357 C355 1.419 . S
C357 C358 1.363 . S
C357 H360 0.929 . S
C358 C357 1.363 . S
C358 C364 1.428 . S
H359 C355 0.930 . S
H360 C357 0.929 . S
S361 N362 1.613 . S
S361 N363 1.610 . S
N362 S361 1.613 . S
N362 C365 1.350 . S
N363 S361 1.610 . S
N363 C364 1.351 . S
C364 C358 1.428 . S
C364 N363 1.351 . S
C364 C365 1.434 . S
C365 C356 1.429 . S
C365 N362 1.350 . S
C365 C364 1.434 . S
C366 C367 1.369 . S
C366 C368 1.419 . S
C366 H370 0.930 . S
C367 C366 1.369 . S
C367 C376 1.429 . S
C368 C366 1.419 . S
C368 C369 1.363 . S
C368 H371 0.929 . S
C369 C368 1.363 . S
C369 C375 1.428 . S
H370 C366 0.930 . S
H371 C368 0.929 . S
S372 N373 1.613 . S
S372 N374 1.610 . S
N373 S372 1.613 . S
N373 C376 1.350 . S
N374 S372 1.610 . S
N374 C375 1.351 . S
C375 C369 1.428 . S
C375 N374 1.351 . S
C375 C376 1.434 . S
C376 C367 1.429 . S
C376 N373 1.350 . S
C376 C375 1.434 . S
C377 C378 1.369 . S
C377 C379 1.419 . S
C377 H381 0.930 . S
C378 C377 1.369 . S
C378 C387 1.429 . S
C379 C377 1.419 . S
C379 C380 1.363 . S
C379 H382 0.929 . S
C380 C379 1.363 . S
C380 C386 1.428 . S
H381 C377 0.930 . S
H382 C379 0.929 . S
S383 N384 1.613 . S
S383 N385 1.610 . S
N384 S383 1.613 . S
N384 C387 1.350 . S
N385 S383 1.610 . S
N385 C386 1.351 . S
C386 C380 1.428 . S
C386 N385 1.351 . S
C386 C387 1.434 . S
C387 C378 1.429 . S
C387 N384 1.350 . S
C387 C386 1.434 . S
C388 C389 1.369 . S
C388 C390 1.419 . S
C388 H392 0.930 . S
C389 C388 1.369 . S
C389 C398 1.429 . S
C390 C388 1.419 . S
C390 C391 1.363 . S
C390 H393 0.929 . S
C391 C390 1.363 . S
C391 C397 1.428 . S
H392 C388 0.930 . S
H393 C390 0.929 . S
S394 N395 1.613 . S
S394 N396 1.610 . S
N395 S394 1.613 . S
N395 C398 1.350 . S
N396 S394 1.610 . S
N396 C397 1.351 . S
C397 C391 1.428 . S
C397 N396 1.351 . S
C397 C398 1.434 . S
C398 C389 1.429 . S
C398 N395 1.350 . S
C398 C397 1.434 . S
C399 C400 1.369 . S
C399 C401 1.419 . S
C399 H403 0.930 . S
C400 C399 1.369 . S
C400 C409 1.429 . S
C401 C399 1.419 . S
C401 C402 1.363 . S
C401 H404 0.929 . S
C402 C401 1.363 . S
C402 C408 1.428 . S
H403 C399 0.930 . S
H404 C401 0.929 . S
S405 N406 1.613 . S
S405 N407 1.610 . S
N406 S405 1.613 . S
N406 C409 1.350 . S
N407 S405 1.610 . S
N407 C408 1.351 . S
C408 C402 1.428 . S
C408 N407 1.351 . S
C408 C409 1.434 . S
C409 C400 1.429 . S
C409 N406 1.350 . S
C409 C408 1.434 . S
C410 C411 1.369 . S
C410 C412 1.419 . S
C410 H414 0.930 . S
C411 C410 1.369 . S
C411 C420 1.429 . S
C412 C410 1.419 . S
C412 C413 1.363 . S
C412 H415 0.929 . S
C413 C412 1.363 . S
C413 C419 1.428 . S
H414 C410 0.930 . S
H415 C412 0.929 . S
S416 N417 1.613 . S
S416 N418 1.610 . S
N417 S416 1.613 . S
N417 C420 1.350 . S
N418 S416 1.610 . S
N418 C419 1.351 . S
C419 C413 1.428 . S
C419 N418 1.351 . S
C419 C420 1.434 . S
C420 C411 1.429 . S
C420 N417 1.350 . S
C420 C419 1.434 . S
C421 C422 1.369 . S
C421 C423 1.419 . S
C421 H425 0.930 . S
C422 C421 1.369 . S
C422 C431 1.429 . S
C423 C421 1.419 . S
C423 C424 1.363 . S
C423 H426 0.929 . S
C424 C423 1.363 . S
C424 C430 1.428 . S
H425 C421 0.930 . S
H426 C423 0.929 . S
S427 N428 1.613 . S
S427 N429 1.610 . S
N428 S427 1.613 . S
N428 C431 1.350 . S
N429 S427 1.610 . S
N429 C430 1.351 . S
C430 C424 1.428 . S
C430 N429 1.351 . S
C430 C431 1.434 . S
C431 C422 1.429 . S
C431 N428 1.350 . S
C431 C430 1.434 . S
C169 C5 1.200 . S
C171 C159 1.204 . S
C180 C89 1.202 . S
C182 C19 1.206 . S
C191 C33 1.205 . S
C193 C103 1.203 . S
C202 C117 1.208 . S
C204 C47 1.211 . S
C213 C131 1.215 . S
C215 C61 1.211 . S
C224 C145 1.200 . S
C226 C75 1.203 . S
C235 C54 1.607 . S
C237 C124 1.608 . S
C246 C68 1.608 . S
C248 C138 1.608 . S
C257 C82 1.606 . S
C259 C152 1.607 . S
C268 C166 1.607 . S
C270 C12 1.607 . S
C279 C26 1.607 . S
C281 C96 1.607 . S
C290 C40 1.606 . S
C292 C110 1.607 . S
C301 C116 1.395 . S
C303 C4 1.396 . S
C312 C130 1.392 . S
C314 C18 1.397 . S
C323 C32 1.396 . S
C325 C144 1.394 . S
C334 C46 1.393 . S
C336 C158 1.396 . S
C345 C60 1.398 . S
C347 C88 1.392 . S
C356 C102 1.397 . S
C358 C74 1.393 . S
C367 C11 1.331 . S
C369 C151 1.334 . S
C378 C165 1.331 . S
C380 C25 1.333 . S
C389 C39 1.332 . S
C391 C95 1.335 . S
C400 C53 1.332 . S
C402 C109 1.333 . S
C411 C67 1.333 . S
C413 C123 1.335 . S
C422 C81 1.334 . S
C424 C137 1.335 . S
