# Generated by pormake.
# Topology unr, (4)-cn, num edge types: 1
# Building blocks:
#     Node 0, Type 0, BuildingBlock: CEKHIL_clean_sbu_0, # of connection points: 4
#     Node 1, Type 0, BuildingBlock: CEKHIL_clean_sbu_0, # of connection points: 4
#     Node 2, Type 0, BuildingBlock: CEKHIL_clean_sbu_0, # of connection points: 4
#     Node 3, Type 0, BuildingBlock: CEKHIL_clean_sbu_0, # of connection points: 4
#     Node 4, Type 0, BuildingBlock: CEKHIL_clean_sbu_0, # of connection points: 4
#     Node 5, Type 0, BuildingBlock: CEKHIL_clean_sbu_0, # of connection points: 4
#     Node 6, Type 0, BuildingBlock: CEKHIL_clean_sbu_0, # of connection points: 4
#     Node 7, Type 0, BuildingBlock: CEKHIL_clean_sbu_0, # of connection points: 4
#     Node 8, Type 0, BuildingBlock: CEKHIL_clean_sbu_0, # of connection points: 4
#     Node 9, Type 0, BuildingBlock: CEKHIL_clean_sbu_0, # of connection points: 4
#     Node 10, Type 0, BuildingBlock: CEKHIL_clean_sbu_0, # of connection points: 4
#     Node 11, Type 0, BuildingBlock: CEKHIL_clean_sbu_0, # of connection points: 4
#     Node 12, Type 0, BuildingBlock: CEKHIL_clean_sbu_0, # of connection points: 4
#     Node 13, Type 0, BuildingBlock: CEKHIL_clean_sbu_0, # of connection points: 4
#     Node 14, Type 0, BuildingBlock: CEKHIL_clean_sbu_0, # of connection points: 4
#     Node 15, Type 0, BuildingBlock: CEKHIL_clean_sbu_0, # of connection points: 4
#     Node 16, Type 0, BuildingBlock: CEKHIL_clean_sbu_0, # of connection points: 4
#     Node 17, Type 0, BuildingBlock: CEKHIL_clean_sbu_0, # of connection points: 4
#     Node 18, Type 0, BuildingBlock: CEKHIL_clean_sbu_0, # of connection points: 4
#     Node 19, Type 0, BuildingBlock: CEKHIL_clean_sbu_0, # of connection points: 4
#     Node 20, Type 0, BuildingBlock: CEKHIL_clean_sbu_0, # of connection points: 4
#     Node 21, Type 0, BuildingBlock: CEKHIL_clean_sbu_0, # of connection points: 4
#     Node 22, Type 0, BuildingBlock: CEKHIL_clean_sbu_0, # of connection points: 4
#     Node 23, Type 0, BuildingBlock: CEKHIL_clean_sbu_0, # of connection points: 4
#     Node 24, Type 0, BuildingBlock: CEKHIL_clean_sbu_0, # of connection points: 4
#     Node 25, Type 0, BuildingBlock: CEKHIL_clean_sbu_0, # of connection points: 4
#     Node 26, Type 0, BuildingBlock: CEKHIL_clean_sbu_0, # of connection points: 4
#     Node 27, Type 0, BuildingBlock: CEKHIL_clean_sbu_0, # of connection points: 4
#     Node 28, Type 0, BuildingBlock: CEKHIL_clean_sbu_0, # of connection points: 4
#     Node 29, Type 0, BuildingBlock: CEKHIL_clean_sbu_0, # of connection points: 4
#     Node 30, Type 0, BuildingBlock: CEKHIL_clean_sbu_0, # of connection points: 4
#     Node 31, Type 0, BuildingBlock: CEKHIL_clean_sbu_0, # of connection points: 4
#     Node 32, Type 0, BuildingBlock: CEKHIL_clean_sbu_0, # of connection points: 4
#     Node 33, Type 0, BuildingBlock: CEKHIL_clean_sbu_0, # of connection points: 4
#     Node 34, Type 0, BuildingBlock: CEKHIL_clean_sbu_0, # of connection points: 4
#     Node 35, Type 0, BuildingBlock: CEKHIL_clean_sbu_0, # of connection points: 4
#     Edge 36, Type (0, 0), BuildingBlock: ZUJKAS_clean_linker_0, # of connection points: 2
#     Edge 37, Type (0, 0), BuildingBlock: ZUJKAS_clean_linker_0, # of connection points: 2
#     Edge 38, Type (0, 0), BuildingBlock: ZUJKAS_clean_linker_0, # of connection points: 2
#     Edge 39, Type (0, 0), BuildingBlock: ZUJKAS_clean_linker_0, # of connection points: 2
#     Edge 40, Type (0, 0), BuildingBlock: ZUJKAS_clean_linker_0, # of connection points: 2
#     Edge 41, Type (0, 0), BuildingBlock: ZUJKAS_clean_linker_0, # of connection points: 2
#     Edge 42, Type (0, 0), BuildingBlock: ZUJKAS_clean_linker_0, # of connection points: 2
#     Edge 43, Type (0, 0), BuildingBlock: ZUJKAS_clean_linker_0, # of connection points: 2
#     Edge 44, Type (0, 0), BuildingBlock: ZUJKAS_clean_linker_0, # of connection points: 2
#     Edge 45, Type (0, 0), BuildingBlock: ZUJKAS_clean_linker_0, # of connection points: 2
#     Edge 46, Type (0, 0), BuildingBlock: ZUJKAS_clean_linker_0, # of connection points: 2
#     Edge 47, Type (0, 0), BuildingBlock: ZUJKAS_clean_linker_0, # of connection points: 2
#     Edge 48, Type (0, 0), BuildingBlock: ZUJKAS_clean_linker_0, # of connection points: 2
#     Edge 49, Type (0, 0), BuildingBlock: ZUJKAS_clean_linker_0, # of connection points: 2
#     Edge 50, Type (0, 0), BuildingBlock: ZUJKAS_clean_linker_0, # of connection points: 2
#     Edge 51, Type (0, 0), BuildingBlock: ZUJKAS_clean_linker_0, # of connection points: 2
#     Edge 52, Type (0, 0), BuildingBlock: ZUJKAS_clean_linker_0, # of connection points: 2
#     Edge 53, Type (0, 0), BuildingBlock: ZUJKAS_clean_linker_0, # of connection points: 2
#     Edge 54, Type (0, 0), BuildingBlock: ZUJKAS_clean_linker_0, # of connection points: 2
#     Edge 55, Type (0, 0), BuildingBlock: ZUJKAS_clean_linker_0, # of connection points: 2
#     Edge 56, Type (0, 0), BuildingBlock: ZUJKAS_clean_linker_0, # of connection points: 2
#     Edge 57, Type (0, 0), BuildingBlock: ZUJKAS_clean_linker_0, # of connection points: 2
#     Edge 58, Type (0, 0), BuildingBlock: ZUJKAS_clean_linker_0, # of connection points: 2
#     Edge 59, Type (0, 0), BuildingBlock: ZUJKAS_clean_linker_0, # of connection points: 2
#     Edge 60, Type (0, 0), BuildingBlock: ZUJKAS_clean_linker_0, # of connection points: 2
#     Edge 61, Type (0, 0), BuildingBlock: ZUJKAS_clean_linker_0, # of connection points: 2
#     Edge 62, Type (0, 0), BuildingBlock: ZUJKAS_clean_linker_0, # of connection points: 2
#     Edge 63, Type (0, 0), BuildingBlock: ZUJKAS_clean_linker_0, # of connection points: 2
#     Edge 64, Type (0, 0), BuildingBlock: ZUJKAS_clean_linker_0, # of connection points: 2
#     Edge 65, Type (0, 0), BuildingBlock: ZUJKAS_clean_linker_0, # of connection points: 2
#     Edge 66, Type (0, 0), BuildingBlock: ZUJKAS_clean_linker_0, # of connection points: 2
#     Edge 67, Type (0, 0), BuildingBlock: ZUJKAS_clean_linker_0, # of connection points: 2
#     Edge 68, Type (0, 0), BuildingBlock: ZUJKAS_clean_linker_0, # of connection points: 2
#     Edge 69, Type (0, 0), BuildingBlock: ZUJKAS_clean_linker_0, # of connection points: 2
#     Edge 70, Type (0, 0), BuildingBlock: ZUJKAS_clean_linker_0, # of connection points: 2
#     Edge 71, Type (0, 0), BuildingBlock: ZUJKAS_clean_linker_0, # of connection points: 2
#     Edge 72, Type (0, 0), BuildingBlock: ZUJKAS_clean_linker_0, # of connection points: 2
#     Edge 73, Type (0, 0), BuildingBlock: ZUJKAS_clean_linker_0, # of connection points: 2
#     Edge 74, Type (0, 0), BuildingBlock: ZUJKAS_clean_linker_0, # of connection points: 2
#     Edge 75, Type (0, 0), BuildingBlock: ZUJKAS_clean_linker_0, # of connection points: 2
#     Edge 76, Type (0, 0), BuildingBlock: ZUJKAS_clean_linker_0, # of connection points: 2
#     Edge 77, Type (0, 0), BuildingBlock: ZUJKAS_clean_linker_0, # of connection points: 2
#     Edge 78, Type (0, 0), BuildingBlock: ZUJKAS_clean_linker_0, # of connection points: 2
#     Edge 79, Type (0, 0), BuildingBlock: ZUJKAS_clean_linker_0, # of connection points: 2
#     Edge 80, Type (0, 0), BuildingBlock: ZUJKAS_clean_linker_0, # of connection points: 2
#     Edge 81, Type (0, 0), BuildingBlock: ZUJKAS_clean_linker_0, # of connection points: 2
#     Edge 82, Type (0, 0), BuildingBlock: ZUJKAS_clean_linker_0, # of connection points: 2
#     Edge 83, Type (0, 0), BuildingBlock: ZUJKAS_clean_linker_0, # of connection points: 2
#     Edge 84, Type (0, 0), BuildingBlock: ZUJKAS_clean_linker_0, # of connection points: 2
#     Edge 85, Type (0, 0), BuildingBlock: ZUJKAS_clean_linker_0, # of connection points: 2
#     Edge 86, Type (0, 0), BuildingBlock: ZUJKAS_clean_linker_0, # of connection points: 2
#     Edge 87, Type (0, 0), BuildingBlock: ZUJKAS_clean_linker_0, # of connection points: 2
#     Edge 88, Type (0, 0), BuildingBlock: ZUJKAS_clean_linker_0, # of connection points: 2
#     Edge 89, Type (0, 0), BuildingBlock: ZUJKAS_clean_linker_0, # of connection points: 2
#     Edge 90, Type (0, 0), BuildingBlock: ZUJKAS_clean_linker_0, # of connection points: 2
#     Edge 91, Type (0, 0), BuildingBlock: ZUJKAS_clean_linker_0, # of connection points: 2
#     Edge 92, Type (0, 0), BuildingBlock: ZUJKAS_clean_linker_0, # of connection points: 2
#     Edge 93, Type (0, 0), BuildingBlock: ZUJKAS_clean_linker_0, # of connection points: 2
#     Edge 94, Type (0, 0), BuildingBlock: ZUJKAS_clean_linker_0, # of connection points: 2
#     Edge 95, Type (0, 0), BuildingBlock: ZUJKAS_clean_linker_0, # of connection points: 2
#     Edge 96, Type (0, 0), BuildingBlock: ZUJKAS_clean_linker_0, # of connection points: 2
#     Edge 97, Type (0, 0), BuildingBlock: ZUJKAS_clean_linker_0, # of connection points: 2
#     Edge 98, Type (0, 0), BuildingBlock: ZUJKAS_clean_linker_0, # of connection points: 2
#     Edge 99, Type (0, 0), BuildingBlock: ZUJKAS_clean_linker_0, # of connection points: 2
#     Edge 100, Type (0, 0), BuildingBlock: ZUJKAS_clean_linker_0, # of connection points: 2
#     Edge 101, Type (0, 0), BuildingBlock: ZUJKAS_clean_linker_0, # of connection points: 2
#     Edge 102, Type (0, 0), BuildingBlock: ZUJKAS_clean_linker_0, # of connection points: 2
#     Edge 103, Type (0, 0), BuildingBlock: ZUJKAS_clean_linker_0, # of connection points: 2
#     Edge 104, Type (0, 0), BuildingBlock: ZUJKAS_clean_linker_0, # of connection points: 2
#     Edge 105, Type (0, 0), BuildingBlock: ZUJKAS_clean_linker_0, # of connection points: 2
#     Edge 106, Type (0, 0), BuildingBlock: ZUJKAS_clean_linker_0, # of connection points: 2
#     Edge 107, Type (0, 0), BuildingBlock: ZUJKAS_clean_linker_0, # of connection points: 2
# Relax obj value: 0.393
# Max RMSD: 0.180
# Mean RMSD: 0.174
data_MOF--net-unr--node1-CEKHIL_clean_sbu_0--edge1-ZUJKAS_clean_linker_0
_symmetry_space_group_name_H-M    P1
_symmetry_Int_Tables_number       1
_symmetry_cell_setting            triclinic
loop_
_symmetry_equiv_pos_as_xyz
'x, y, z'
_cell_length_a     62.690333
_cell_length_b     62.664795
_cell_length_c     128.96812
_cell_angle_alpha  89.990289
_cell_angle_beta   89.99747
_cell_angle_gamma 119.97605
loop_
_atom_site_label
_atom_site_type_symbol
_atom_site_fract_x
_atom_site_fract_y
_atom_site_fract_z
_atom_type_partial_charge
Co0 Co 0.19059 0.14272 0.18491 0.0
O1 O 0.21703 0.13575 0.18476 0.0
O2 O 0.20404 0.14767 0.17111 0.0
C3 C 0.20232 0.16492 0.19968 0.0
O4 O 0.16441 0.15206 0.18206 0.0
Co5 Co 0.15251 0.12484 0.20282 0.0
O6 O 0.14229 0.1471 0.19644 0.0
C7 C 0.15021 0.08942 0.18704 0.0
C8 C 0.21889 0.14082 0.17493 0.0
C9 C 0.14804 0.15444 0.18711 0.0
O10 O 0.16679 0.10715 0.18161 0.0
O11 O 0.14323 0.09256 0.19597 0.0
O12 O 0.21228 0.1754 0.1909 0.0
O13 O 0.18707 0.14157 0.19926 0.0
Co14 Co 0.86733 0.05214 0.18263 0.0
O15 O 0.87798 0.08641 0.18346 0.0
O16 O 0.8602 0.06299 0.16966 0.0
C17 C 0.84891 0.04233 0.19829 0.0
O18 O 0.85403 0.01578 0.17931 0.0
Co19 Co 0.88829 0.03031 0.19869 0.0
O20 O 0.86104 -0.0012 0.19334 0.0
C21 C 0.91968 0.0616 0.1816 0.0
C22 C 0.87056 0.0847 0.17397 0.0
C23 C 0.85119 0.99692 0.18448 0.0
O24 O 0.90084 0.06086 0.17731 0.0
O25 O 0.91885 0.05209 0.19049 0.0
O26 O 0.83707 0.04374 0.19029 0.0
O27 O 0.87166 0.04886 0.19669 0.0
Co28 Co 0.94208 0.80491 0.18057 0.0
O29 O 0.91027 0.77633 0.18167 0.0
O30 O 0.93164 0.78979 0.16705 0.0
C31 C 0.95775 0.79697 0.19483 0.0
O32 O 0.97577 0.83361 0.17675 0.0
Co33 Co 0.95987 0.84412 0.19812 0.0
O34 O 0.99222 0.85616 0.19118 0.0
C35 C 0.92175 0.83943 0.18342 0.0
C36 C 0.91145 0.77392 0.17174 0.0
C37 C 0.99394 0.85067 0.18182 0.0
O38 O 0.92623 0.82538 0.17768 0.0
O39 O 0.93163 0.84712 0.19235 0.0
O40 O 0.95754 0.78662 0.18606 0.0
O41 O 0.94686 0.80979 0.19477 0.0
Co42 Co 0.13674 0.19336 0.3131 0.0
O43 O 0.13392 0.22222 0.31372 0.0
O44 O 0.14228 0.20558 0.32719 0.0
C45 C 0.15981 0.20416 0.29857 0.0
O46 O 0.14123 0.16363 0.31515 0.0
Co47 Co 0.11409 0.15827 0.29426 0.0
O48 O 0.13222 0.14263 0.30013 0.0
C49 C 0.08164 0.15982 0.31041 0.0
C50 C 0.13786 0.22243 0.3236 0.0
C51 C 0.14022 0.1463 0.30943 0.0
O52 O 0.10056 0.17279 0.31613 0.0
O53 O 0.08322 0.15384 0.30106 0.0
O54 O 0.17028 0.21232 0.30752 0.0
O55 O 0.13608 0.19169 0.29869 0.0
Co56 Co 0.81354 0.94684 0.31498 0.0
O57 O 0.78726 0.91351 0.31414 0.0
O58 O 0.79671 0.93705 0.32816 0.0
C59 C 0.80582 0.95919 0.29974 0.0
O60 O 0.83919 0.9823 0.31849 0.0
Co61 Co 0.85553 0.9665 0.29862 0.0
O62 O 0.86247 -0.00122 0.30427 0.0
C63 C 0.85366 0.93302 0.31514 0.0
C64 C 0.783 0.91568 0.32381 0.0
C65 C 0.85545 0.00089 0.31329 0.0
O66 O 0.83623 0.93468 0.3196 0.0
O67 O 0.86283 0.94306 0.30637 0.0
O68 O 0.79352 0.95852 0.30797 0.0
O69 O 0.82038 0.95037 0.30084 0.0
Co70 Co 0.041 0.85455 0.31055 0.0
O71 O 0.07514 0.86411 0.31012 0.0
O72 O 0.05104 0.8489 0.32394 0.0
C73 C 0.0313 0.83417 0.29531 0.0
O74 O 0.00498 0.84234 0.31388 0.0
Co75 Co 0.0181 0.87235 0.29374 0.0
O76 O 0.98643 0.8475 0.3 0.0
C77 C 0.05034 0.90688 0.30994 0.0
C78 C 0.07279 0.85777 0.31982 0.0
C79 C 0.9856 0.83921 0.30911 0.0
O80 O 0.05033 0.889 0.31483 0.0
O81 O 0.04007 0.90428 0.30108 0.0
O82 O 0.03209 0.82318 0.30374 0.0
O83 O 0.0378 0.85709 0.29631 0.0
Co84 Co 0.81147 0.88128 0.81531 0.0
O85 O 0.77892 0.8719 0.81086 0.0
O86 O 0.78937 0.84725 0.81906 0.0
C87 C 0.82066 0.91765 0.82249 0.0
O88 O 0.84343 0.88528 0.82122 0.0
Co89 Co 0.8556 0.92831 0.80578 0.0
O90 O 0.87389 0.92344 0.81723 0.0
C91 C 0.82873 0.88333 0.7932 0.0
C92 C 0.77243 0.85034 0.81465 0.0
C93 C 0.86577 0.90313 0.82212 0.0
O94 O 0.81786 0.87091 0.80139 0.0
O95 O 0.84269 0.90678 0.7932 0.0
O96 O 0.80812 0.8974 0.82775 0.0
O97 O 0.82446 0.91475 0.8129 0.0
Co98 Co 0.12874 0.95226 0.82081 0.0
O99 O 0.12897 0.92497 0.8143 0.0
O100 O 0.15817 0.95166 0.82481 0.0
C101 C 0.08923 0.9313 0.82608 0.0
O102 O 0.13405 0.98228 0.8291 0.0
Co103 Co 0.09412 0.97046 0.81234 0.0
O104 O 0.10193 0.98796 0.8258 0.0
C105 C 0.13883 0.98084 0.80068 0.0
C106 C 0.14994 0.93236 0.81885 0.0
C107 C 0.12091 0.99234 0.83104 0.0
O108 O 0.14618 0.97306 0.80835 0.0
O109 O 0.11794 0.97989 0.8005 0.0
O110 O 0.10627 0.93072 0.83161 0.0
O111 O 0.09636 0.94253 0.81729 0.0
Co112 Co 0.06866 0.18496 0.82539 0.0
O113 O 0.09101 0.21884 0.82246 0.0
O114 O 0.05184 0.20354 0.82713 0.0
C115 C 0.09422 0.17811 0.83525 0.0
O116 O 0.04052 0.15103 0.82924 0.0
Co117 Co 0.08063 0.14544 0.8173 0.0
O118 O 0.05167 0.12274 0.82582 0.0
C119 C 0.06381 0.16988 0.80265 0.0
C120 C 0.07265 0.22237 0.82426 0.0
C121 C 0.03661 0.12883 0.82954 0.0
O122 O 0.0587 0.17957 0.81035 0.0
O123 O 0.07465 0.15727 0.80372 0.0
O124 O 0.08219 0.18793 0.83935 0.0
O125 O 0.09239 0.17536 0.82531 0.0
Co126 Co 0.87384 0.81674 0.67259 0.0
O127 O 0.8693 0.78606 0.67751 0.0
O128 O 0.83981 0.79136 0.67058 0.0
C129 C 0.90897 0.82762 0.66392 0.0
O130 O 0.87236 0.84609 0.66665 0.0
Co131 Co 0.92006 0.86525 0.67953 0.0
O132 O 0.91028 0.87932 0.66788 0.0
C133 C 0.87951 0.83718 0.69433 0.0
C134 C 0.84639 0.77679 0.67492 0.0
C135 C 0.88827 0.86858 0.66445 0.0
O136 O 0.86593 0.82362 0.68687 0.0
O137 O 0.90221 0.85358 0.69315 0.0
O138 O 0.88788 0.8134 0.65949 0.0
O139 O 0.908 0.83305 0.67348 0.0
Co140 Co 0.1707 0.0442 0.67819 0.0
O141 O 0.20126 0.07176 0.68252 0.0
O142 O 0.19764 0.04032 0.67322 0.0
C143 C 0.15321 0.066 0.67266 0.0
O144 O 0.14212 0.01303 0.672 0.0
Co145 Co 0.12219 0.03363 0.68926 0.0
O146 O 0.10653 0.00867 0.67822 0.0
C147 C 0.15702 0.02244 0.6999 0.0
C148 C 0.21185 0.06118 0.67784 0.0
C149 C 0.11843 0.00208 0.67226 0.0
O150 O 0.16964 0.02678 0.69152 0.0
O151 O 0.13855 0.02578 0.70077 0.0
O152 O 0.16826 0.06321 0.66664 0.0
O153 O 0.1513 0.05774 0.68198 0.0
Co154 Co 0.9272 0.11538 0.68495 0.0
O155 O 0.90594 0.126 0.69062 0.0
O156 O 0.94111 0.15031 0.68242 0.0
C157 C 0.89813 0.08126 0.67695 0.0
O158 O 0.9534 0.11021 0.67795 0.0
Co159 Co 0.92132 0.06559 0.69245 0.0
O160 O 0.9434 0.07077 0.68052 0.0
C161 C 0.94453 0.10889 0.70617 0.0
C162 C 0.92191 0.14784 0.68737 0.0
C163 C 0.95646 0.09167 0.67617 0.0
O164 O 0.94489 0.1225 0.69864 0.0
O165 O 0.93414 0.08539 0.70553 0.0
O166 O 0.90689 0.10262 0.67248 0.0
O167 O 0.90495 0.08181 0.68643 0.0
Co168 Co 0.8521 0.47642 0.51622 0.0
O169 O 0.87487 0.4655 0.51944 0.0
O170 O 0.87064 0.47829 0.50393 0.0
C171 C 0.8603 0.50029 0.5304 0.0
O172 O 0.83032 0.48896 0.51017 0.0
Co173 Co 0.80819 0.46372 0.53098 0.0
O174 O 0.80729 0.49053 0.52316 0.0
C175 C 0.80699 0.42534 0.51721 0.0
C176 C 0.88132 0.46941 0.50976 0.0
C177 C 0.81556 0.49565 0.51393 0.0
O178 O 0.82666 0.44163 0.51265 0.0
O179 O 0.79763 0.43016 0.52508 0.0
O180 O 0.87432 0.50889 0.52227 0.0
O181 O 0.84333 0.47746 0.52992 0.0
Co182 Co 0.52846 0.38522 0.51879 0.0
O183 O 0.53458 0.41827 0.51932 0.0
O184 O 0.52266 0.39466 0.50527 0.0
C185 C 0.50689 0.37296 0.5337 0.0
O186 O 0.51981 0.34995 0.51554 0.0
Co187 Co 0.54972 0.36652 0.53598 0.0
O188 O 0.52633 0.33394 0.52998 0.0
C189 C 0.58273 0.40066 0.51997 0.0
C190 C 0.52929 0.41594 0.50952 0.0
C191 C 0.51789 0.33161 0.5208 0.0
O192 O 0.56394 0.39816 0.51494 0.0
O193 O 0.58111 0.39085 0.52886 0.0
O194 O 0.49596 0.37302 0.52514 0.0
O195 O 0.53039 0.38204 0.53306 0.0
Co196 Co 0.60344 0.13686 0.51837 0.0
O197 O 0.5727 0.10688 0.51772 0.0
O198 O 0.59774 0.1244 0.50433 0.0
C199 C 0.61666 0.12782 0.53309 0.0
O200 O 0.63688 0.16759 0.51638 0.0
Co201 Co 0.61351 0.17206 0.53704 0.0
O202 O 0.6475 0.18889 0.53134 0.0
C203 C 0.57871 0.16764 0.5207 0.0
C204 C 0.57691 0.10671 0.50789 0.0
C205 C 0.65251 0.1853 0.52214 0.0
O206 O 0.58616 0.15579 0.51504 0.0
O207 O 0.58567 0.17379 0.53011 0.0
O208 O 0.61955 0.11958 0.52425 0.0
O209 O 0.60414 0.13902 0.53274 0.0
Co210 Co 0.80718 0.51861 0.64778 0.0
O211 O 0.79768 0.54315 0.64669 0.0
O212 O 0.81274 0.53551 0.66089 0.0
C213 C 0.82765 0.52791 0.63258 0.0
O214 O 0.81932 0.49497 0.65169 0.0
Co215 Co 0.78896 0.47644 0.63167 0.0
O216 O 0.81517 0.47156 0.63782 0.0
C217 C 0.75481 0.47548 0.64771 0.0
C218 C 0.80384 0.54797 0.65637 0.0
C219 C 0.82323 0.47919 0.64693 0.0
O220 O 0.77269 0.49409 0.65222 0.0
O221 O 0.75719 0.46652 0.63914 0.0
O222 O 0.83857 0.54039 0.64088 0.0
O223 O 0.80468 0.51167 0.63364 0.0
Co224 Co 0.47533 0.28577 0.64866 0.0
O225 O 0.4514 0.25229 0.6457 0.0
O226 O 0.45715 0.27002 0.66114 0.0
C227 C 0.46727 0.3018 0.63456 0.0
O228 O 0.49851 0.31999 0.65447 0.0
Co229 Co 0.51879 0.3152 0.63346 0.0
O230 O 0.52129 0.34369 0.64123 0.0
C231 C 0.51918 0.2777 0.64731 0.0
C232 C 0.44548 0.25036 0.65542 0.0
C233 C 0.51373 0.34113 0.65056 0.0
O234 O 0.49998 0.27517 0.65201 0.0
O235 O 0.52852 0.29154 0.63933 0.0
O236 O 0.45374 0.29705 0.64282 0.0
O237 O 0.48358 0.29502 0.63486 0.0
Co238 Co 0.7244 0.19901 0.64711 0.0
O239 O 0.75673 0.20321 0.64756 0.0
O240 O 0.73108 0.19201 0.66094 0.0
C241 C 0.71327 0.17804 0.63205 0.0
O242 O 0.68946 0.19244 0.64938 0.0
Co243 Co 0.71015 0.22256 0.62918 0.0
O244 O 0.67638 0.20098 0.63456 0.0
C245 C 0.74185 0.25385 0.64619 0.0
C246 C 0.75268 0.19768 0.65733 0.0
C247 C 0.67243 0.19229 0.64375 0.0
O248 O 0.7384 0.23455 0.65109 0.0
O249 O 0.73346 0.25314 0.63706 0.0
O250 O 0.71142 0.16649 0.64068 0.0
O251 O 0.72354 0.20166 0.63277 0.0
Co252 Co 0.482 0.19605 0.15067 0.0
O253 O 0.45521 0.1958 0.14344 0.0
O254 O 0.45159 0.16703 0.15452 0.0
C255 C 0.50072 0.23578 0.15559 0.0
O256 O 0.50555 0.19079 0.15979 0.0
Co257 Co 0.53561 0.2295 0.1428 0.0
O258 O 0.54394 0.22204 0.15664 0.0
C259 C 0.50152 0.18484 0.13113 0.0
C260 C 0.44115 0.17507 0.14812 0.0
C261 C 0.5286 0.20368 0.162 0.0
O262 O 0.48608 0.17781 0.13868 0.0
O263 O 0.52159 0.20559 0.13098 0.0
O264 O 0.48239 0.21917 0.16098 0.0
O265 O 0.50534 0.22815 0.14705 0.0
Co266 Co 0.7765 0.26972 0.15912 0.0
O267 O 0.78047 0.24222 0.15595 0.0
O268 O 0.81033 0.27816 0.16171 0.0
C269 C 0.74107 0.24856 0.16804 0.0
O270 O 0.77802 0.30176 0.16344 0.0
Co271 Co 0.7306 0.26965 0.1498 0.0
O272 O 0.74154 0.29831 0.15922 0.0
C273 C 0.77193 0.27867 0.13629 0.0
C274 C 0.80337 0.25587 0.15854 0.0
C275 C 0.76263 0.30973 0.16357 0.0
O276 O 0.78521 0.28155 0.14434 0.0
O277 O 0.74887 0.27126 0.13677 0.0
O278 O 0.76197 0.25556 0.17266 0.0
O279 O 0.74242 0.25222 0.15817 0.0
Co280 Co 0.73348 0.51863 0.15503 0.0
O281 O 0.75445 0.55249 0.15159 0.0
O282 O 0.71644 0.53661 0.15789 0.0
C283 C 0.76181 0.51312 0.1635 0.0
O284 O 0.70679 0.48453 0.1596 0.0
Co285 Co 0.74501 0.47948 0.14598 0.0
O286 O 0.71885 0.45715 0.15576 0.0
C287 C 0.72549 0.50348 0.1324 0.0
C288 C 0.73626 0.55557 0.15432 0.0
C289 C 0.70391 0.46271 0.16002 0.0
O290 O 0.72046 0.51238 0.14041 0.0
O291 O 0.7373 0.49173 0.13293 0.0
O292 O 0.75036 0.52268 0.16835 0.0
O293 O 0.75756 0.50981 0.15369 0.0
Co294 Co 0.53502 0.15074 0.00885 0.0
O295 O 0.52747 0.11862 0.0133 0.0
O296 O 0.50319 0.12661 0.00349 0.0
C297 C 0.5741 0.1636 0.00398 0.0
O298 O 0.53723 0.18159 0.00249 0.0
Co299 Co 0.57613 0.19721 0.01994 0.0
O300 O 0.57301 0.21415 0.00757 0.0
C301 C 0.52814 0.16679 0.03023 0.0
C302 C 0.50685 0.11049 0.00833 0.0
C303 C 0.55384 0.20451 0.00186 0.0
O304 O 0.51922 0.15417 0.02188 0.0
O305 O 0.5507 0.18367 0.03119 0.0
O306 O 0.55606 0.15036 0.99768 0.0
O307 O 0.56771 0.16652 0.01314 0.0
Co308 Co 0.85027 0.39791 0.0151 0.0
O309 O 0.88361 0.42127 0.0185 0.0
O310 O 0.87102 0.38394 0.01212 0.0
C311 C 0.84155 0.42387 0.00648 0.0
O312 O 0.81737 0.36936 0.0104 0.0
Co313 Co 0.80828 0.40508 0.02415 0.0
O314 O 0.78777 0.37846 0.01417 0.0
C315 C 0.83512 0.38878 0.03771 0.0
C316 C 0.88902 0.40481 0.01546 0.0
C317 C 0.795 0.36487 0.00983 0.0
O318 O 0.84479 0.38466 0.02971 0.0
O319 O 0.82209 0.39926 0.03721 0.0
O320 O 0.85291 0.41407 0.00178 0.0
O321 O 0.83859 0.41991 0.01633 0.0
Co322 Co 0.6044 0.45112 0.01244 0.0
O323 O 0.57935 0.45564 0.01872 0.0
O324 O 0.6119 0.48478 0.01036 0.0
C325 C 0.57871 0.41517 0.00458 0.0
O326 O 0.63369 0.45248 0.00493 0.0
Co327 Co 0.60919 0.40577 0.01874 0.0
O328 O 0.62938 0.41464 0.00591 0.0
C329 C 0.62505 0.44756 0.0332 0.0
C330 C 0.59184 0.47832 0.01562 0.0
C331 C 0.63956 0.43635 0.00214 0.0
O332 O 0.62286 0.46041 0.02595 0.0
O333 O 0.61875 0.42483 0.03211 0.0
O334 O 0.58376 0.43583 0.00018 0.0
O335 O 0.58748 0.41707 0.0138 0.0
Co336 Co 0.51736 0.80171 0.8539 0.0
O337 O 0.54384 0.79489 0.8545 0.0
O338 O 0.53293 0.80762 0.84047 0.0
C339 C 0.52653 0.82305 0.86886 0.0
O340 O 0.49117 0.81084 0.85052 0.0
Co341 Co 0.47692 0.78077 0.87091 0.0
O342 O 0.46781 0.80406 0.8647 0.0
C343 C 0.47709 0.74783 0.85459 0.0
C344 C 0.54713 0.80043 0.84472 0.0
C345 C 0.47423 0.81241 0.85552 0.0
O346 O 0.49434 0.76652 0.84986 0.0
O347 O 0.46867 0.74939 0.86345 0.0
O348 O 0.53796 0.834 0.86037 0.0
O349 O 0.51183 0.7996 0.86815 0.0
Co350 Co 0.18592 0.70767 0.84894 0.0
O351 O 0.19326 0.74108 0.85018 0.0
O352 O 0.18146 0.71916 0.83566 0.0
C353 C 0.16306 0.69408 0.86347 0.0
O354 O 0.17632 0.6726 0.84485 0.0
Co355 Co 0.20406 0.68493 0.86575 0.0
O356 O 0.18061 0.65362 0.85882 0.0
C357 C 0.23936 0.72048 0.85064 0.0
C358 C 0.18832 0.73999 0.84036 0.0
C359 C 0.17334 0.65316 0.84954 0.0
O360 O 0.22144 0.71965 0.84547 0.0
O361 O 0.23639 0.70937 0.85932 0.0
O362 O 0.15314 0.69595 0.85491 0.0
O363 O 0.18645 0.70232 0.86312 0.0
Co364 Co 0.27647 0.4738 0.8491 0.0
O365 O 0.24333 0.44736 0.84989 0.0
O366 O 0.2666 0.45748 0.83577 0.0
C367 C 0.28856 0.46533 0.86425 0.0
O368 O 0.31175 0.49996 0.84565 0.0
Co369 Co 0.29569 0.51491 0.86581 0.0
O370 O 0.32811 0.52299 0.85994 0.0
C371 C 0.26262 0.51393 0.84929 0.0
C372 C 0.2453 0.44357 0.84015 0.0
C373 C 0.33022 0.51651 0.8508 0.0
O374 O 0.26412 0.4965 0.84475 0.0
O375 O 0.27258 0.52279 0.85809 0.0
O376 O 0.28842 0.45371 0.85587 0.0
O377 O 0.27972 0.4799 0.86329 0.0
Co378 Co 0.47104 0.85019 0.98421 0.0
O379 O 0.46061 0.87269 0.97988 0.0
O380 O 0.47224 0.87016 0.99588 0.0
C381 C 0.49585 0.85669 0.97053 0.0
O382 O 0.48297 0.82899 0.99133 0.0
Co383 Co 0.45806 0.80446 0.97066 0.0
O384 O 0.4843 0.80409 0.97913 0.0
C385 C 0.41939 0.80587 0.9832 0.0
C386 C 0.46383 0.88018 0.98942 0.0
C387 C 0.48953 0.81366 0.98814 0.0
O388 O 0.43595 0.82553 0.98765 0.0
O389 O 0.42416 0.79536 0.97575 0.0
O390 O 0.50388 0.87156 0.97843 0.0
O391 O 0.4729 0.8399 0.97086 0.0
Co392 Co 0.14085 0.6169 0.97921 0.0
O393 O 0.11748 0.58317 0.97638 0.0
O394 O 0.12296 0.60112 0.99175 0.0
C395 C 0.13231 0.6323 0.96506 0.0
O396 O 0.16353 0.65142 0.98486 0.0
Co397 Co 0.18419 0.64615 0.96397 0.0
O398 O 0.18648 0.67476 0.97157 0.0
C399 C 0.18546 0.6099 0.97824 0.0
C400 C 0.11177 0.58124 0.98613 0.0
C401 C 0.17875 0.67245 0.98086 0.0
O402 O 0.16595 0.6071 0.98273 0.0
O403 O 0.1949 0.62353 0.97022 0.0
O404 O 0.11874 0.62738 0.97332 0.0
O405 O 0.14892 0.6259 0.96538 0.0
Co406 Co 0.38853 0.53193 0.97948 0.0
O407 O 0.42088 0.53616 0.97977 0.0
O408 O 0.39531 0.52436 0.99319 0.0
C409 C 0.37743 0.51143 0.96429 0.0
O410 O 0.35359 0.52514 0.98193 0.0
Co411 Co 0.3735 0.55556 0.96189 0.0
O412 O 0.33983 0.53332 0.96723 0.0
C413 C 0.40602 0.58673 0.97877 0.0
C414 C 0.41685 0.5301 0.98949 0.0
C415 C 0.33624 0.52457 0.97639 0.0
O416 O 0.40259 0.56738 0.98364 0.0
O417 O 0.3973 0.58604 0.96972 0.0
O418 O 0.37554 0.49964 0.97285 0.0
O419 O 0.38753 0.53503 0.96514 0.0
Co420 Co 0.15421 0.54709 0.48891 0.0
O421 O 0.12262 0.54141 0.48458 0.0
O422 O 0.12927 0.51392 0.49257 0.0
C423 C 0.16676 0.58438 0.496 0.0
O424 O 0.18427 0.54682 0.49476 0.0
Co425 Co 0.20196 0.59127 0.47997 0.0
O426 O 0.21778 0.58362 0.49159 0.0
C427 C 0.17171 0.54734 0.467 0.0
C428 C 0.11374 0.51941 0.48837 0.0
C429 C 0.20724 0.56266 0.49606 0.0
O430 O 0.15884 0.53551 0.47495 0.0
O431 O 0.1883 0.57016 0.46728 0.0
O432 O 0.15301 0.56456 0.50135 0.0
O433 O 0.1706 0.58085 0.48651 0.0
Co434 Co 0.45152 0.59612 0.48754 0.0
O435 O 0.46223 0.5738 0.48335 0.0
O436 O 0.48683 0.61164 0.48937 0.0
C437 C 0.41891 0.56906 0.49692 0.0
O438 O 0.44658 0.62398 0.49278 0.0
Co439 Co 0.40037 0.58691 0.48031 0.0
O440 O 0.40715 0.61385 0.4902 0.0
C441 C 0.44132 0.60508 0.46539 0.0
C442 C 0.48428 0.59122 0.48561 0.0
C443 C 0.42851 0.62803 0.49394 0.0
O444 O 0.45631 0.60884 0.47289 0.0
O445 O 0.41796 0.59455 0.46662 0.0
O446 O 0.4407 0.5801 0.50109 0.0
O447 O 0.41802 0.57294 0.48716 0.0
Co448 Co 0.39601 0.84473 0.48368 0.0
O449 O 0.41995 0.87563 0.47796 0.0
O450 O 0.38736 0.8695 0.48716 0.0
C451 C 0.42258 0.83401 0.49025 0.0
O452 O 0.36781 0.8151 0.49089 0.0
Co453 Co 0.39272 0.79693 0.47489 0.0
O454 O 0.3712 0.78184 0.48714 0.0
C455 C 0.3761 0.82507 0.46229 0.0
C456 C 0.40677 0.88438 0.48179 0.0
C457 C 0.36148 0.7923 0.49221 0.0
O458 O 0.37685 0.83743 0.47037 0.0
O459 O 0.38373 0.80954 0.46229 0.0
O460 O 0.41737 0.84855 0.49549 0.0
O461 O 0.41373 0.82888 0.48099 0.0
Co462 Co 0.21821 0.48659 0.34658 0.0
O463 O 0.21197 0.45576 0.35209 0.0
O464 O 0.18469 0.46161 0.34338 0.0
C465 C 0.25513 0.49771 0.33949 0.0
O466 O 0.21899 0.51628 0.33966 0.0
Co467 Co 0.26293 0.53427 0.35531 0.0
O468 O 0.2557 0.54952 0.34334 0.0
C469 C 0.21907 0.50547 0.36826 0.0
C470 C 0.18981 0.44683 0.34852 0.0
C471 C 0.23535 0.53914 0.33839 0.0
O472 O 0.20704 0.49353 0.36017 0.0
O473 O 0.24219 0.52102 0.36811 0.0
O474 O 0.2351 0.48304 0.33444 0.0
O475 O 0.25192 0.50265 0.34887 0.0
Co476 Co 0.51509 0.7315 0.3451 0.0
O477 O 0.54649 0.75445 0.35072 0.0
O478 O 0.53787 0.71961 0.34274 0.0
C479 C 0.50821 0.75929 0.33697 0.0
O480 O 0.48464 0.70375 0.33818 0.0
Co481 Co 0.46912 0.73422 0.35218 0.0
O482 O 0.45309 0.71069 0.3406 0.0
C483 C 0.49168 0.71415 0.36634 0.0
C484 C 0.55376 0.73947 0.34759 0.0
C485 C 0.46237 0.69871 0.33643 0.0
O486 O 0.50541 0.71422 0.35892 0.0
O487 O 0.47744 0.72322 0.36544 0.0
O488 O 0.52147 0.7513 0.33251 0.0
O489 O 0.50188 0.75221 0.34642 0.0
Co490 Co 0.27199 0.78552 0.34172 0.0
O491 O 0.24476 0.78777 0.34705 0.0
O492 O 0.27662 0.8178 0.33869 0.0
C493 C 0.24924 0.74802 0.33447 0.0
O494 O 0.30322 0.78945 0.33506 0.0
Co495 Co 0.2813 0.74383 0.34952 0.0
O496 O 0.30465 0.75463 0.3377 0.0
C497 C 0.29139 0.78578 0.36318 0.0
C498 C 0.25587 0.81017 0.34356 0.0
C499 C 0.3125 0.77552 0.33337 0.0
O500 O 0.28909 0.79747 0.35547 0.0
O501 O 0.28702 0.76354 0.36254 0.0
O502 O 0.25296 0.76755 0.32942 0.0
O503 O 0.2577 0.75179 0.3438 0.0
H504 H 0.1117 0.16155 0.19502 0.0
H505 H 0.07715 0.15865 0.18542 0.0
H506 H 0.11322 0.16132 0.15656 0.0
H507 H 0.14773 0.16315 0.16619 0.0
H508 H 0.06314 0.1788 0.17001 0.0
H509 H 0.05718 0.09142 0.15625 0.0
H510 H 0.07993 0.11042 0.16569 0.0
H511 H 0.08306 0.12034 0.15241 0.0
C512 C 0.11271 0.16217 0.18663 0.0
C513 C 0.132 0.1615 0.18139 0.0
C514 C 0.09293 0.1607 0.18112 0.0
C515 C 0.09216 0.15878 0.17026 0.0
C516 C 0.11307 0.16191 0.16494 0.0
H517 H 0.93145 0.09095 0.16426 0.0
H518 H 0.97244 0.11638 0.15662 0.0
C519 C 0.13285 0.1631 0.17048 0.0
C520 C 0.06781 0.14855 0.16514 0.0
H521 H 0.02071 0.0918 0.15836 0.0
C522 C 0.05392 0.1601 0.16704 0.0
C523 C 0.05587 0.12422 0.16112 0.0
C524 C 0.06964 0.11074 0.15874 0.0
C525 C 0.02809 0.14678 0.16658 0.0
C526 C 0.01613 0.12152 0.16396 0.0
C527 C 0.03011 0.11113 0.16049 0.0
C528 C 0.99072 0.10448 0.16747 0.0
C529 C 0.01377 0.15896 0.17007 0.0
C530 C 0.98739 0.08886 0.17586 0.0
C531 C 0.96419 0.07434 0.1802 0.0
C532 C 0.94372 0.0751 0.17624 0.0
C533 C 0.94687 0.08999 0.16752 0.0
C534 C 0.97026 0.10462 0.16317 0.0
H535 H 0.02595 0.17874 0.17197 0.0
H536 H 0.00088 0.15752 0.16386 0.0
H537 H 0.00265 0.1494 0.17704 0.0
H538 H 0.00301 0.08853 0.17929 0.0
H539 H 0.96246 0.06298 0.18684 0.0
H540 H 0.83221 0.95251 0.19402 0.0
H541 H 0.82971 0.91589 0.18656 0.0
H542 H 0.84146 0.94807 0.15603 0.0
H543 H 0.84549 0.9858 0.16363 0.0
H544 H 0.80916 0.88048 0.17252 0.0
H545 H 0.90468 0.94837 0.15964 0.0
H546 H 0.88697 0.95794 0.1673 0.0
H547 H 0.87963 0.95018 0.15384 0.0
C548 C 0.83362 0.95164 0.18568 0.0
C549 C 0.84009 0.97243 0.17947 0.0
C550 C 0.83202 0.93052 0.18138 0.0
C551 C 0.83655 0.92964 0.17078 0.0
C552 C 0.83894 0.94877 0.1643 0.0
H553 H 0.90928 0.84142 0.16322 0.0
H554 H 0.88331 0.8576 0.15673 0.0
C555 C 0.84094 0.97022 0.16864 0.0
C556 C 0.84346 0.91126 0.16732 0.0
H557 H 0.89549 0.90828 0.16248 0.0
C558 C 0.8278 0.88641 0.16998 0.0
C559 C 0.86779 0.91887 0.16392 0.0
C560 C 0.88585 0.94526 0.16104 0.0
C561 C 0.83668 0.86985 0.17055 0.0
C562 C 0.86165 0.87829 0.16827 0.0
C563 C 0.87637 0.90207 0.1643 0.0
C564 C 0.8742 0.86508 0.17196 0.0
C565 C 0.81989 0.84397 0.17435 0.0
C566 C 0.87775 0.86416 0.18266 0.0
C567 C 0.89294 0.85552 0.18637 0.0
C568 C 0.90471 0.84741 0.17946 0.0
C569 C 0.90043 0.84753 0.16874 0.0
C570 C 0.88553 0.85662 0.16501 0.0
H571 H 0.80025 0.83809 0.17288 0.0
H572 H 0.82435 0.83078 0.17055 0.0
H573 H 0.8224 0.84324 0.18284 0.0
H574 H 0.86954 0.87109 0.18813 0.0
H575 H 0.89571 0.8555 0.19466 0.0
H576 H 0.10685 0.04974 0.19293 0.0
H577 H 0.09007 0.00705 0.18761 0.0
H578 H 0.15136 0.02831 0.16684 0.0
H579 H 0.16822 0.07156 0.17199 0.0
H580 H 0.10583 0.99176 0.15849 0.0
H581 H 0.1207 0.96637 0.19761 0.0
H582 H 0.10411 0.98275 0.19839 0.0
H583 H 0.13503 0.99798 0.1933 0.0
C584 C 0.11677 0.04545 0.18719 0.0
C585 C 0.13906 0.06398 0.18301 0.0
C586 C 0.10718 0.02102 0.18418 0.0
C587 C 0.11984 0.01448 0.17705 0.0
C588 C 0.14148 0.033 0.17244 0.0
H589 H 0.0401 0.85807 0.18477 0.0
H590 H 0.07834 0.89521 0.1798 0.0
C591 C 0.15104 0.05764 0.17539 0.0
C592 C 0.11039 0.98809 0.17483 0.0
H593 H 0.08733 0.93382 0.18777 0.0
C594 C 0.10224 0.97897 0.16481 0.0
C595 C 0.10679 0.97148 0.18295 0.0
C596 C 0.11742 0.9802 0.19363 0.0
C597 C 0.08811 0.95347 0.16297 0.0
C598 C 0.0813 0.93694 0.17146 0.0
C599 C 0.09194 0.94619 0.18121 0.0
C600 C 0.06024 0.91119 0.17103 0.0
C601 C 0.08019 0.94471 0.15202 0.0
C602 C 0.03744 0.90674 0.1671 0.0
C603 C 0.01578 0.88506 0.16958 0.0
C604 C 0.01649 0.86784 0.17628 0.0
C605 C 0.03927 0.87111 0.1795 0.0
C606 C 0.06106 0.8924 0.17671 0.0
H607 H 0.0953 0.95601 0.1465 0.0
H608 H 0.07484 0.92506 0.15102 0.0
H609 H 0.06435 0.94714 0.14994 0.0
H610 H 0.03589 0.92097 0.16299 0.0
H611 H -0.00171 0.88304 0.16718 0.0
H612 H 0.14737 0.11212 0.29943 0.0
H613 H 0.14223 0.07415 0.30675 0.0
H614 H 0.13853 0.09921 0.33749 0.0
H615 H 0.14292 0.13728 0.33014 0.0
H616 H 0.16137 0.05649 0.32159 0.0
H617 H 0.06924 0.04175 0.33339 0.0
H618 H 0.0897 0.06759 0.32543 0.0
H619 H 0.09624 0.06716 0.33897 0.0
C620 C 0.14606 0.10991 0.30777 0.0
C621 C 0.14475 0.12739 0.31416 0.0
C622 C 0.14328 0.0882 0.31197 0.0
C623 C 0.13925 0.08353 0.32264 0.0
C624 C 0.141 0.10221 0.32921 0.0
H625 H 0.08027 0.92238 0.32717 0.0
H626 H 0.10351 0.96445 0.33407 0.0
C627 C 0.14367 0.12403 0.32499 0.0
C628 C 0.12908 0.05778 0.32625 0.0
H629 H 0.07309 0.00711 0.33107 0.0
C630 C 0.14231 0.04569 0.32403 0.0
C631 C 0.10418 0.04376 0.32947 0.0
C632 C 0.08886 0.05557 0.33193 0.0
C633 C 0.13058 0.01985 0.32382 0.0
C634 C 0.10511 0.00595 0.32598 0.0
C635 C 0.09261 0.01798 0.32936 0.0
C636 C 0.09018 0.98006 0.32256 0.0
C637 C 0.14484 0.00764 0.32029 0.0
C638 C 0.07465 0.97493 0.31397 0.0
C639 C 0.0614 0.95111 0.31003 0.0
C640 C 0.06333 0.9318 0.31461 0.0
C641 C 0.0784 0.93684 0.32343 0.0
C642 C 0.09177 0.96085 0.32737 0.0
H643 H 0.16441 0.0212 0.31857 0.0
H644 H 0.14428 0.99492 0.32641 0.0
H645 H 0.13624 0.99653 0.31321 0.0
H646 H 0.0732 0.98956 0.31015 0.0
H647 H 0.0499 0.94795 0.30328 0.0
H648 H 0.86478 0.01106 0.33403 0.0
H649 H 0.89846 0.04918 0.3413 0.0
H650 H 0.91244 0.0829 0.31101 0.0
H651 H 0.87876 0.0455 0.30388 0.0
H652 H 0.94202 0.06079 0.33533 0.0
H653 H 0.93519 0.14293 0.32786 0.0
H654 H 0.90815 0.11259 0.328 0.0
H655 H 0.92556 0.12516 0.31619 0.0
C656 C 0.8743 0.02705 0.32906 0.0
C657 C 0.86954 0.0252 0.31834 0.0
C658 C 0.89357 0.04883 0.33322 0.0
C659 C 0.90811 0.06902 0.32673 0.0
C660 C 0.90135 0.06794 0.31628 0.0
H661 H 0.03731 0.13713 0.3004 0.0
H662 H 0.99643 0.12046 0.30801 0.0
C663 C 0.88221 0.04631 0.31214 0.0
C664 C 0.93334 0.08812 0.32985 0.0
H665 H 0.97629 0.14677 0.32309 0.0
C666 C 0.94942 0.07991 0.33313 0.0
C667 C 0.94318 0.1132 0.32716 0.0
C668 C 0.92693 0.12392 0.32473 0.0
C669 C 0.975 0.09507 0.33229 0.0
C670 C 0.98458 0.11891 0.32807 0.0
C671 C 0.96878 0.12823 0.32611 0.0
C672 C 0.00963 0.13187 0.32365 0.0
C673 C 0.99149 0.08463 0.33479 0.0
C674 C 0.03052 0.144 0.32997 0.0
C675 C 0.05403 0.15359 0.32564 0.0
C676 C 0.0569 0.15096 0.31495 0.0
C677 C 0.03582 0.13933 0.30866 0.0
C678 C 0.01244 0.12995 0.31297 0.0
H679 H 0.98122 0.06608 0.3384 0.0
H680 H 0.00043 0.08325 0.32759 0.0
H681 H 0.00628 0.09714 0.34019 0.0
H682 H 0.02862 0.14552 0.33824 0.0
H683 H 0.06988 0.16251 0.33071 0.0
H684 H 0.83212 0.89891 0.33071 0.0
H685 H 0.84657 0.87217 0.338 0.0
H686 H 0.91049 0.90671 0.31818 0.0
H687 H 0.89639 0.93333 0.31092 0.0
H688 H 0.85451 0.83853 0.32668 0.0
H689 H 0.9399 0.90529 0.34633 0.0
H690 H 0.91552 0.91185 0.34342 0.0
H691 H 0.9385 0.91696 0.33381 0.0
C692 C 0.84948 0.90107 0.32804 0.0
C693 C 0.86312 0.91823 0.32021 0.0
C694 C 0.85765 0.88577 0.33222 0.0
C695 C 0.87978 0.88777 0.32876 0.0
C696 C 0.89363 0.90526 0.32114 0.0
H697 H 0.93998 0.82538 0.30143 0.0
H698 H 0.90711 0.82617 0.31088 0.0
C699 C 0.88542 0.92032 0.31691 0.0
C700 C 0.88772 0.87027 0.33215 0.0
H701 H 0.94141 0.87141 0.33723 0.0
C702 C 0.87323 0.8454 0.32935 0.0
C703 C 0.91166 0.87883 0.33608 0.0
C704 C 0.92714 0.90466 0.3402 0.0
C705 C 0.88351 0.83001 0.32884 0.0
C706 C 0.90892 0.84006 0.3309 0.0
C707 C 0.92208 0.86367 0.33534 0.0
C708 C 0.92353 0.82996 0.32607 0.0
C709 C 0.86749 0.80371 0.32538 0.0
C710 C 0.94332 0.83046 0.33141 0.0
C711 C 0.96261 0.83052 0.32592 0.0
C712 C 0.96237 0.83017 0.31501 0.0
C713 C 0.94096 0.82613 0.30982 0.0
C714 C 0.92183 0.82621 0.31528 0.0
H715 H 0.84909 0.7956 0.3291 0.0
H716 H 0.86458 0.80326 0.31687 0.0
H717 H 0.87581 0.79217 0.32729 0.0
H718 H 0.94502 0.83324 0.33973 0.0
H719 H 0.9787 0.83333 0.33018 0.0
H720 H 0.91319 0.9375 0.82662 0.0
H721 H 0.94482 0.93057 0.8339 0.0
H722 H 0.89094 0.85443 0.83966 0.0
H723 H 0.85896 0.86098 0.83188 0.0
H724 H 0.95485 0.91439 0.85169 0.0
H725 H 0.9362 0.84724 0.81969 0.0
H726 H 0.9214 0.86555 0.82003 0.0
H727 H 0.9121 0.84028 0.8289 0.0
C728 C 0.90786 0.91926 0.8295 0.0
C729 C 0.88363 0.8996 0.82835 0.0
C730 C 0.92601 0.91538 0.83378 0.0
C731 C 0.92041 0.89183 0.8371 0.0
C732 C 0.89581 0.87261 0.83688 0.0
H733 H 0.06861 0.90784 0.84451 0.0
H734 H 0.02561 0.8913 0.85011 0.0
C735 C 0.87754 0.87643 0.83248 0.0
C736 C 0.94115 0.88754 0.83941 0.0
H737 H 0.97478 0.86558 0.82738 0.0
C738 C 0.95897 0.9031 0.84662 0.0
C739 C 0.94638 0.8726 0.83284 0.0
C740 C 0.92814 0.85551 0.82489 0.0
C741 C 0.98284 0.90641 0.84655 0.0
C742 C 0.98873 0.89344 0.83921 0.0
C743 C 0.97009 0.87558 0.83294 0.0
C744 C 0.01452 0.90222 0.83612 0.0
C745 C 0.00224 0.92558 0.85354 0.0
C746 C 0.02232 0.91354 0.82641 0.0
C747 C 0.04655 0.92282 0.82321 0.0
C748 C 0.0636 0.92102 0.82966 0.0
C749 C 0.05583 0.90952 0.8394 0.0
C750 C 0.03136 0.90013 0.84261 0.0
H751 H 0.99471 0.93451 0.85865 0.0
H752 H 0.01027 0.91689 0.85849 0.0
H753 H 0.01736 0.94002 0.84881 0.0
H754 H 0.00963 0.91545 0.82131 0.0
H755 H 0.0519 0.93153 0.81567 0.0
H756 H 0.08195 0.15898 0.85485 0.0
H757 H 0.09454 0.13168 0.86314 0.0
H758 H 0.14384 0.14369 0.83764 0.0
H759 H 0.13119 0.17051 0.82935 0.0
H760 H 0.08433 0.0897 0.85222 0.0
H761 H 0.18288 0.13974 0.86226 0.0
H762 H 0.16476 0.15482 0.86119 0.0
H763 H 0.17776 0.14908 0.84979 0.0
C764 C 0.09614 0.15647 0.85124 0.0
C765 C 0.10553 0.16665 0.84144 0.0
C766 C 0.10334 0.14094 0.85598 0.0
C767 C 0.1204 0.13593 0.85109 0.0
C768 C 0.13114 0.14773 0.8417 0.0
H769 H 0.15432 0.03984 0.82774 0.0
H770 H 0.15678 0.07462 0.83728 0.0
C771 C 0.12369 0.16285 0.8369 0.0
C772 C 0.12305 0.11468 0.85429 0.0
H773 H 0.16664 0.09745 0.85586 0.0
C774 C 0.10217 0.09124 0.85341 0.0
C775 C 0.14633 0.11683 0.85587 0.0
C776 C 0.16916 0.14153 0.85744 0.0
C777 C 0.10429 0.07005 0.8527 0.0
C778 C 0.12798 0.07239 0.85328 0.0
C779 C 0.14853 0.09562 0.85535 0.0
C780 C 0.13219 0.05233 0.8496 0.0
C781 C 0.08141 0.04588 0.85019 0.0
C782 C 0.11901 0.0284 0.85372 0.0
C783 C 0.11721 0.00843 0.84812 0.0
C784 C 0.12943 0.01238 0.83859 0.0
C785 C 0.14506 0.0365 0.83516 0.0
C786 C 0.1464 0.05635 0.84061 0.0
H787 H 0.06531 0.04819 0.84848 0.0
H788 H 0.08461 0.03701 0.84338 0.0
H789 H 0.07651 0.03324 0.85691 0.0
H790 H 0.10846 0.02493 0.86079 0.0
H791 H 0.10487 0.98986 0.85083 0.0
H792 H 0.84655 0.96155 0.81282 0.0
H793 H 0.8775 0.00016 0.82038 0.0
H794 H 0.85795 0.96821 0.85099 0.0
H795 H 0.82734 0.92872 0.84332 0.0
H796 H 0.8806 0.03336 0.83416 0.0
H797 H 0.92878 0.98526 0.84929 0.0
H798 H 0.90242 0.97001 0.84088 0.0
H799 H 0.89851 0.97554 0.85423 0.0
C800 C 0.84852 0.96276 0.82118 0.0
C801 C 0.83493 0.94198 0.82746 0.0
C802 C 0.86618 0.98495 0.82551 0.0
C803 C 0.87051 0.98695 0.83624 0.0
C804 C 0.85537 0.96688 0.84266 0.0
H805 H 0.00435 0.13322 0.8426 0.0
H806 H 0.96347 0.10042 0.84804 0.0
C807 C 0.83775 0.94442 0.83829 0.0
C808 C 0.89271 0.00919 0.84018 0.0
H809 H 0.95133 0.02794 0.8482 0.0
C810 C 0.89599 0.03234 0.83745 0.0
C811 C 0.91268 0.0077 0.84452 0.0
C812 C 0.91063 0.98335 0.84737 0.0
C813 C 0.91929 0.05365 0.83783 0.0
C814 C 0.93965 0.05185 0.84149 0.0
C815 C 0.93573 0.02919 0.84532 0.0
C816 C 0.96544 0.0716 0.83958 0.0
C817 C 0.92219 0.07725 0.83338 0.0
C818 C 0.98068 0.06611 0.83351 0.0
C819 C 0.00414 0.08457 0.83064 0.0
C820 C 0.01283 0.1091 0.83363 0.0
C821 C -0.00201 0.11453 0.84005 0.0
C822 C 0.97458 0.09584 0.84311 0.0
H823 H 0.90536 0.07429 0.82926 0.0
H824 H 0.92592 0.09055 0.83975 0.0
H825 H 0.93787 0.08567 0.82786 0.0
H826 H 0.97409 0.04757 0.83067 0.0
H827 H 0.01504 0.07972 0.8257 0.0
H828 H 0.87145 0.03499 0.68461 0.0
H829 H 0.86116 0.99669 0.67564 0.0
H830 H 0.88989 0.03676 0.6471 0.0
H831 H 0.9 0.0753 0.65601 0.0
H832 H 0.83596 0.9726 0.65342 0.0
H833 H 0.93651 0.00893 0.65945 0.0
H834 H 0.92007 0.01969 0.66737 0.0
H835 H 0.92583 0.02838 0.65399 0.0
C836 C 0.87482 0.03554 0.67635 0.0
C837 C 0.88674 0.05808 0.67102 0.0
C838 C 0.8688 0.01365 0.67123 0.0
C839 C 0.87482 0.01401 0.66074 0.0
C840 C 0.88495 0.03619 0.65518 0.0
H841 H 0.91115 0.9007 0.64864 0.0
H842 H 0.90389 0.93398 0.64323 0.0
C843 C 0.89074 0.05815 0.66029 0.0
C844 C 0.87494 0.99228 0.65643 0.0
H845 H 0.91208 0.96721 0.65569 0.0
C846 C 0.85264 0.97144 0.65363 0.0
C847 C 0.8968 0.99103 0.65661 0.0
C848 C 0.92125 0.0131 0.65951 0.0
C849 C 0.85146 0.94884 0.65153 0.0
C850 C 0.87296 0.94697 0.65269 0.0
C851 C 0.89551 0.96841 0.65478 0.0
C852 C 0.87237 0.92295 0.65329 0.0
C853 C 0.8271 0.92724 0.6483 0.0
C854 C 0.85618 0.9047 0.66023 0.0
C855 C 0.85982 0.88519 0.66301 0.0
C856 C 0.88018 0.8841 0.65917 0.0
C857 C 0.89531 0.90123 0.65168 0.0
C858 C 0.89118 0.92025 0.64863 0.0
H859 H 0.81671 0.93348 0.64338 0.0
H860 H 0.82948 0.91328 0.64394 0.0
H861 H 0.81577 0.91847 0.6553 0.0
H862 H 0.84201 0.90656 0.66422 0.0
H863 H 0.84815 0.87238 0.66893 0.0
H864 H 0.12606 0.99419 0.65193 0.0
H865 H 0.09729 0.95929 0.64089 0.0
H866 H 0.04948 0.92627 0.66723 0.0
H867 H 0.07747 0.96079 0.67807 0.0
H868 H 0.06288 0.89422 0.65091 0.0
H869 H 0.02146 0.94898 0.63649 0.0
H870 H 0.05438 0.96141 0.63737 0.0
H871 H 0.03677 0.95793 0.64887 0.0
C872 C 0.10961 0.97917 0.65534 0.0
C873 C 0.10377 0.98015 0.6658 0.0
C874 C 0.09328 0.95937 0.64905 0.0
C875 C 0.07137 0.94033 0.65329 0.0
C876 C 0.06635 0.94081 0.66385 0.0
H877 H 0.95308 0.8426 0.67271 0.0
H878 H 0.99335 0.86434 0.66462 0.0
C879 C 0.08228 0.96056 0.67002 0.0
C880 C 0.05188 0.92071 0.64694 0.0
H881 H 0.99369 0.90645 0.64036 0.0
C882 C 0.04805 0.89679 0.64804 0.0
C883 C 0.03275 0.92406 0.64298 0.0
C884 C 0.03646 0.94949 0.64126 0.0
C885 C 0.0244 0.87626 0.64694 0.0
C886 C 0.00433 0.88003 0.64498 0.0
C887 C 0.00901 0.90356 0.64206 0.0
C888 C 0.97949 0.86264 0.64907 0.0
C889 C 0.02064 0.85097 0.64908 0.0
C890 C 0.95812 0.85452 0.64304 0.0
C891 C 0.9348 0.84189 0.64773 0.0
C892 C 0.93276 0.83791 0.6585 0.0
C893 C 0.95413 0.84546 0.6644 0.0
C894 C 0.97718 0.85761 0.65974 0.0
H895 H 0.03639 0.84941 0.64604 0.0
H896 H 0.0198 0.84792 0.65758 0.0
H897 H 0.00332 0.83635 0.64553 0.0
H898 H 0.95953 0.85867 0.63484 0.0
H899 H 0.91853 0.83635 0.64304 0.0
H900 H 0.9693 0.0572 0.67144 0.0
H901 H 0.00782 0.06421 0.66413 0.0
H902 H 0.02973 0.14026 0.65829 0.0
H903 H 0.9913 0.13367 0.66617 0.0
H904 H 0.03421 0.07977 0.64674 0.0
H905 H 0.08236 0.14885 0.67812 0.0
H906 H 0.04929 0.13053 0.67774 0.0
H907 H 0.06535 0.15542 0.6687 0.0
C908 C 0.98209 0.07543 0.66852 0.0
C909 C 0.97751 0.09508 0.66972 0.0
C910 C 0.00414 0.07936 0.66424 0.0
C911 C 0.02205 0.10295 0.66093 0.0
C912 C 0.01652 0.12209 0.6611 0.0
H913 H 0.15332 0.0856 0.65355 0.0
H914 H 0.12653 0.1016 0.6478 0.0
C915 C 0.99448 0.11824 0.66556 0.0
C916 C 0.04719 0.10738 0.65871 0.0
H917 H 0.10314 0.131 0.67055 0.0
C918 C 0.04961 0.09149 0.65173 0.0
C919 C 0.06738 0.12293 0.66515 0.0
C920 C 0.06611 0.14035 0.67289 0.0
C921 C 0.07031 0.08841 0.65195 0.0
C922 C 0.08931 0.10215 0.65916 0.0
C923 C 0.08834 0.12034 0.66513 0.0
C924 C 0.10693 0.09419 0.66238 0.0
C925 C 0.07055 0.06878 0.64527 0.0
C926 C 0.10514 0.08527 0.6725 0.0
C927 C 0.12043 0.07647 0.67581 0.0
C928 C 0.13782 0.07622 0.66904 0.0
C929 C 0.13995 0.08545 0.65891 0.0
C930 C 0.12463 0.0945 0.65561 0.0
H931 H 0.05336 0.05841 0.64068 0.0
H932 H 0.0863 0.07743 0.6398 0.0
H933 H 0.07294 0.05553 0.65015 0.0
H934 H 0.09154 0.08474 0.67785 0.0
H935 H 0.11835 0.06956 0.68366 0.0
H936 H 0.62553 0.40226 0.5254 0.0
H937 H 0.66692 0.43074 0.51917 0.0
H938 H 0.63784 0.46363 0.49825 0.0
H939 H 0.59601 0.43471 0.50432 0.0
H940 H 0.67637 0.45871 0.48945 0.0
H941 H 0.70245 0.50325 0.52776 0.0
H942 H 0.68928 0.47058 0.5291 0.0
H943 H 0.67078 0.48291 0.52412 0.0
C944 C 0.62784 0.41542 0.51944 0.0
C945 C 0.6075 0.41643 0.51547 0.0
C946 C 0.65152 0.43174 0.51589 0.0
C947 C 0.65546 0.44969 0.50844 0.0
C948 C 0.63517 0.45006 0.50408 0.0
H949 H 0.80951 0.53576 0.5151 0.0
H950 H 0.7726 0.53581 0.50904 0.0
C951 C 0.61132 0.43352 0.50756 0.0
C952 C 0.68101 0.46837 0.50566 0.0
H953 H 0.73572 0.5053 0.51745 0.0
C954 C 0.68942 0.46943 0.49548 0.0
C955 C 0.6978 0.48337 0.51337 0.0
C956 C 0.68953 0.48521 0.52417 0.0
C957 C 0.71471 0.48295 0.49314 0.0
C958 C 0.7319 0.49479 0.50127 0.0
C959 C 0.72298 0.49599 0.51114 0.0
C960 C 0.7583 0.50156 0.5005 0.0
C961 C 0.72263 0.48376 0.48204 0.0
C962 C 0.76417 0.48406 0.4967 0.0
C963 C 0.78596 0.48488 0.4997 0.0
C964 C 0.80169 0.5026 0.50686 0.0
C965 C 0.79763 0.52196 0.50954 0.0
C966 C 0.77635 0.52179 0.50615 0.0
H967 H 0.71001 0.48613 0.47674 0.0
H968 H 0.74173 0.49897 0.48067 0.0
H969 H 0.72138 0.46595 0.48003 0.0
H970 H 0.7507 0.46795 0.49253 0.0
H971 H 0.78856 0.46956 0.49764 0.0
H972 H 0.50218 0.28747 0.53023 0.0
H973 H 0.4984 0.25059 0.52239 0.0
H974 H 0.50812 0.28305 0.49201 0.0
H975 H 0.5129 0.32082 0.49992 0.0
H976 H 0.47279 0.21555 0.50759 0.0
H977 H 0.5697 0.27827 0.49473 0.0
H978 H 0.55424 0.2894 0.50301 0.0
H979 H 0.54565 0.28283 0.4896 0.0
C980 C 0.50303 0.28669 0.52186 0.0
C981 C 0.50867 0.30738 0.51573 0.0
C982 C 0.50065 0.26543 0.51736 0.0
C983 C 0.50373 0.26432 0.50664 0.0
C984 C 0.50636 0.28379 0.50034 0.0
H985 H 0.57128 0.17247 0.50008 0.0
H986 H 0.54704 0.18963 0.49264 0.0
C987 C 0.50891 0.30529 0.50487 0.0
C988 C 0.5084 0.24478 0.50272 0.0
H989 H 0.55785 0.23743 0.49787 0.0
C990 C 0.49113 0.22017 0.50509 0.0
C991 C 0.53222 0.25068 0.49929 0.0
C992 C 0.55163 0.27668 0.49652 0.0
C993 C 0.49804 0.20206 0.50544 0.0
C994 C 0.52275 0.20883 0.50339 0.0
C995 C 0.53897 0.23245 0.49957 0.0
C996 C 0.53359 0.19426 0.50743 0.0
C997 C 0.47941 0.17634 0.50882 0.0
C998 C 0.53404 0.19121 0.51819 0.0
C999 C 0.54816 0.18192 0.52247 0.0
C1000 C 0.56206 0.17535 0.51605 0.0
C1001 C 0.56074 0.17735 0.50522 0.0
C1002 C 0.54683 0.18703 0.50095 0.0
H1003 H 0.46053 0.17162 0.50642 0.0
H1004 H 0.4837 0.16252 0.50552 0.0
H1005 H 0.47961 0.17521 0.5174 0.0
H1006 H 0.52447 0.19726 0.52335 0.0
H1007 H 0.54866 0.18047 0.53082 0.0
H1008 H 0.69222 0.22123 0.53239 0.0
H1009 H 0.72608 0.25822 0.52492 0.0
H1010 H 0.70112 0.22969 0.49415 0.0
H1011 H 0.6664 0.19258 0.5016 0.0
H1012 H 0.7647 0.27291 0.51106 0.0
H1013 H 0.69099 0.28885 0.49511 0.0
H1014 H 0.68375 0.26384 0.50393 0.0
H1015 H 0.69235 0.26231 0.49078 0.0
C1016 C 0.6941 0.2225 0.52403 0.0
C1017 C 0.67615 0.20428 0.51759 0.0
C1018 C 0.71364 0.24364 0.51976 0.0
C1019 C 0.71574 0.247 0.50898 0.0
C1020 C 0.69947 0.22769 0.50249 0.0
H1021 H 0.8228 0.40618 0.50178 0.0
H1022 H 0.80346 0.36311 0.49615 0.0
C1023 C 0.67972 0.20644 0.50678 0.0
C1024 C 0.73238 0.27213 0.50496 0.0
H1025 H 0.72969 0.32307 0.49765 0.0
C1026 C 0.75734 0.28384 0.50779 0.0
C1027 C 0.72266 0.28628 0.50064 0.0
C1028 C 0.69598 0.27484 0.49745 0.0
C1029 C 0.77208 0.30961 0.5075 0.0
C1030 C 0.76155 0.32381 0.5042 0.0
C1031 C 0.73752 0.31198 0.50025 0.0
C1032 C 0.77292 0.3502 0.50685 0.0
C1033 C 0.798 0.32155 0.51169 0.0
C1034 C 0.76182 0.35719 0.51455 0.0
C1035 C 0.77267 0.38162 0.51776 0.0
C1036 C 0.79489 0.39967 0.51333 0.0
C1037 C 0.8057 0.39273 0.50539 0.0
C1038 C 0.79477 0.36815 0.50218 0.0
H1039 H 0.803 0.30781 0.51442 0.0
H1040 H 0.81118 0.3329 0.50553 0.0
H1041 H 0.80014 0.33399 0.51823 0.0
H1042 H 0.74493 0.34355 0.51825 0.0
H1043 H 0.76374 0.38624 0.52384 0.0
H1044 H 0.82451 0.474 0.66801 0.0
H1045 H 0.82572 0.43997 0.67671 0.0
H1046 H 0.84341 0.41858 0.64757 0.0
H1047 H 0.84303 0.45271 0.63902 0.0
H1048 H 0.79062 0.39771 0.6717 0.0
H1049 H 0.87297 0.39048 0.66605 0.0
H1050 H 0.87419 0.41987 0.66513 0.0
H1051 H 0.8675 0.40041 0.65384 0.0
C1052 C 0.82994 0.46281 0.66359 0.0
C1053 C 0.83294 0.46554 0.65277 0.0
C1054 C 0.83062 0.44331 0.66858 0.0
C1055 C 0.83441 0.42643 0.66282 0.0
C1056 C 0.8408 0.43137 0.6523 0.0
H1057 H 0.74379 0.29689 0.64092 0.0
H1058 H 0.76754 0.33694 0.64921 0.0
C1059 C 0.84022 0.45082 0.64734 0.0
C1060 C 0.82496 0.40088 0.66663 0.0
H1061 H 0.83258 0.35183 0.66123 0.0
C1062 C 0.80024 0.38784 0.66986 0.0
C1063 C 0.83736 0.38766 0.66457 0.0
C1064 C 0.86458 0.40053 0.66232 0.0
C1065 C 0.78671 0.36209 0.6694 0.0
C1066 C 0.79812 0.34922 0.66551 0.0
C1067 C 0.82366 0.36186 0.66389 0.0
C1068 C 0.78321 0.32435 0.66103 0.0
C1069 C 0.75971 0.34902 0.67213 0.0
C1070 C 0.7845 0.30409 0.66485 0.0
C1071 C 0.7708 0.281 0.66012 0.0
C1072 C 0.75602 0.27803 0.65139 0.0
C1073 C 0.75499 0.2985 0.64759 0.0
C1074 C 0.76842 0.32138 0.65238 0.0
H1075 H 0.75584 0.35935 0.67813 0.0
H1076 H 0.74888 0.34778 0.66511 0.0
H1077 H 0.75337 0.33007 0.67499 0.0
H1078 H 0.79604 0.30614 0.67146 0.0
H1079 H 0.77207 0.26559 0.6632 0.0
H1080 H 0.52638 0.38937 0.64837 0.0
H1081 H 0.56644 0.4233 0.65382 0.0
H1082 H 0.57776 0.37287 0.67259 0.0
H1083 H 0.53709 0.33952 0.66784 0.0
H1084 H 0.60904 0.42061 0.67845 0.0
H1085 H 0.61055 0.40964 0.63562 0.0
H1086 H 0.59123 0.42133 0.64 0.0
H1087 H 0.58376 0.3904 0.64328 0.0
C1088 C 0.53671 0.38596 0.65423 0.0
C1089 C 0.52901 0.36181 0.65751 0.0
C1090 C 0.55973 0.40528 0.65726 0.0
C1091 C 0.57558 0.40025 0.66313 0.0
C1092 C 0.56604 0.3771 0.66788 0.0
H1093 H 0.71643 0.4288 0.64531 0.0
H1094 H 0.67394 0.4127 0.65092 0.0
C1095 C 0.54266 0.35798 0.66518 0.0
C1096 C 0.60268 0.41577 0.66199 0.0
H1097 H 0.648 0.43322 0.64382 0.0
C1098 C 0.61764 0.42372 0.67088 0.0
C1099 C 0.61386 0.41929 0.65209 0.0
C1100 C 0.5991 0.40957 0.64221 0.0
C1101 C 0.6434 0.43439 0.67015 0.0
C1102 C 0.65434 0.43752 0.66026 0.0
C1103 C 0.63948 0.43064 0.65139 0.0
C1104 C 0.68085 0.44617 0.65872 0.0
C1105 C 0.65854 0.4411 0.67994 0.0
C1106 C 0.69902 0.47007 0.66153 0.0
C1107 C 0.72347 0.47922 0.65843 0.0
C1108 C 0.72996 0.46474 0.65231 0.0
C1109 C 0.71193 0.44046 0.64992 0.0
C1110 C 0.68768 0.43124 0.65315 0.0
H1111 H 0.64691 0.43282 0.68693 0.0
H1112 H 0.67238 0.435 0.67952 0.0
H1113 H 0.66858 0.46142 0.68088 0.0
H1114 H 0.69412 0.48207 0.66565 0.0
H1115 H 0.73699 0.49807 0.66035 0.0
H1116 H 0.63029 0.18287 0.63381 0.0
H1117 H 0.59636 0.18585 0.64129 0.0
H1118 H 0.62541 0.18951 0.67197 0.0
H1119 H 0.66025 0.18745 0.66446 0.0
H1120 H 0.55964 0.1659 0.65586 0.0
H1121 H 0.63549 0.25809 0.66852 0.0
H1122 H 0.64158 0.23832 0.66044 0.0
H1123 H 0.63438 0.23116 0.67394 0.0
C1124 C 0.62923 0.18369 0.64218 0.0
C1125 C 0.64845 0.18584 0.64851 0.0
C1126 C 0.60966 0.18522 0.64646 0.0
C1127 C 0.6088 0.18877 0.65716 0.0
C1128 C 0.62612 0.1875 0.66365 0.0
H1129 H 0.50408 0.24436 0.66338 0.0
H1130 H 0.52315 0.22054 0.66926 0.0
C1131 C 0.64594 0.18615 0.65935 0.0
C1132 C 0.59273 0.19827 0.66087 0.0
H1133 H 0.59666 0.25339 0.66641 0.0
C1134 C 0.56749 0.18478 0.65851 0.0
C1135 C 0.60308 0.22294 0.66436 0.0
C1136 C 0.6301 0.23861 0.66694 0.0
C1137 C 0.55297 0.19608 0.65845 0.0
C1138 C 0.56401 0.22136 0.66095 0.0
C1139 C 0.58843 0.23404 0.66443 0.0
C1140 C 0.55253 0.2361 0.65795 0.0
C1141 C 0.52664 0.18162 0.65478 0.0
C1142 C 0.56303 0.25302 0.64979 0.0
C1143 C 0.55236 0.26667 0.64644 0.0
C1144 C 0.53088 0.26373 0.65119 0.0
C1145 C 0.52058 0.24703 0.65952 0.0
C1146 C 0.53135 0.23332 0.66288 0.0
H1147 H 0.52125 0.16242 0.6526 0.0
H1148 H 0.51416 0.18097 0.66103 0.0
H1149 H 0.52392 0.19085 0.64797 0.0
H1150 H 0.5794 0.2554 0.64589 0.0
H1151 H 0.56088 0.27936 0.64005 0.0
H1152 H 0.69593 0.23049 0.15951 0.0
H1153 H 0.65699 0.21722 0.16832 0.0
H1154 H 0.69339 0.23199 0.19798 0.0
H1155 H 0.73301 0.24541 0.18913 0.0
H1156 H 0.63686 0.1789 0.18997 0.0
H1157 H 0.65212 0.2741 0.1903 0.0
H1158 H 0.66549 0.2667 0.17951 0.0
H1159 H 0.67664 0.26729 0.19239 0.0
C1160 C 0.69575 0.23073 0.16791 0.0
C1161 C 0.71753 0.23907 0.17363 0.0
C1162 C 0.67346 0.22305 0.17292 0.0
C1163 C 0.67243 0.22357 0.18376 0.0
C1164 C 0.69394 0.23135 0.18959 0.0
H1165 H 0.53674 0.22052 0.18179 0.0
H1166 H 0.56694 0.21961 0.19361 0.0
C1167 C 0.71646 0.23902 0.18454 0.0
C1168 C 0.6487 0.21748 0.18854 0.0
H1169 H 0.61071 0.24144 0.18768 0.0
C1170 C 0.63109 0.19258 0.18995 0.0
C1171 C 0.64137 0.23538 0.1888 0.0
C1172 C 0.65989 0.26244 0.18776 0.0
C1173 C 0.60587 0.1849 0.19016 0.0
C1174 C 0.59834 0.20251 0.18851 0.0
C1175 C 0.6162 0.22769 0.18874 0.0
C1176 C 0.57403 0.19567 0.18387 0.0
C1177 C 0.5876 0.15785 0.19138 0.0
C1178 C 0.56673 0.18128 0.17478 0.0
C1179 C 0.5492 0.18145 0.16819 0.0
C1180 C 0.53885 0.19615 0.1705 0.0
C1181 C 0.54427 0.20871 0.17999 0.0
C1182 C 0.56159 0.20826 0.1867 0.0
H1183 H 0.594 0.14971 0.19743 0.0
H1184 H 0.56902 0.1545 0.19352 0.0
H1185 H 0.58634 0.14817 0.184 0.0
H1186 H 0.57643 0.17204 0.17216 0.0
H1187 H 0.54565 0.17212 0.16077 0.0
H1188 H 0.80313 0.33881 0.17587 0.0
H1189 H 0.81383 0.37861 0.18384 0.0
H1190 H 0.74885 0.37429 0.17031 0.0
H1191 H 0.73782 0.33493 0.16268 0.0
H1192 H 0.82484 0.42128 0.17526 0.0
H1193 H 0.74296 0.39417 0.19897 0.0
H1194 H 0.75038 0.37168 0.19401 0.0
H1195 H 0.73228 0.38109 0.1864 0.0
C1196 C 0.791 0.34626 0.17473 0.0
C1197 C 0.76949 0.33351 0.1687 0.0
C1198 C 0.7971 0.36895 0.17932 0.0
C1199 C 0.78172 0.37909 0.17797 0.0
C1200 C 0.76049 0.36643 0.17186 0.0
H1201 H 0.78868 0.49535 0.15458 0.0
H1202 H 0.80197 0.46891 0.16234 0.0
C1203 C 0.75433 0.34392 0.16738 0.0
C1204 C 0.78841 0.40391 0.18192 0.0
H1205 H 0.75868 0.4342 0.18949 0.0
C1206 C 0.81076 0.42422 0.17873 0.0
C1207 C 0.77079 0.40811 0.18697 0.0
C1208 C 0.74793 0.3875 0.19189 0.0
C1209 C 0.81412 0.44811 0.17894 0.0
C1210 C 0.79424 0.45144 0.18198 0.0
C1211 C 0.77369 0.43177 0.18676 0.0
C1212 C 0.79164 0.47235 0.17805 0.0
C1213 C 0.83834 0.46925 0.17529 0.0
C1214 C 0.78129 0.48343 0.18421 0.0
C1215 C 0.77293 0.49824 0.17965 0.0
C1216 C 0.77479 0.5021 0.16887 0.0
C1217 C 0.78684 0.4926 0.1629 0.0
C1218 C 0.79492 0.47773 0.1674 0.0
H1219 H 0.85383 0.46736 0.17841 0.0
H1220 H 0.83934 0.46875 0.1667 0.0
H1221 H 0.84081 0.48735 0.17772 0.0
H1222 H 0.77839 0.47948 0.19243 0.0
H1223 H 0.76373 0.50539 0.18444 0.0
H1224 H 0.53895 0.27276 0.1453 0.0
H1225 H 0.56692 0.31434 0.15137 0.0
H1226 H 0.52693 0.29848 0.18021 0.0
H1227 H 0.49872 0.25625 0.17418 0.0
H1228 H 0.55585 0.35124 0.15808 0.0
H1229 H 0.59972 0.3235 0.18884 0.0
H1230 H 0.58137 0.3024 0.17872 0.0
H1231 H 0.56676 0.31021 0.1888 0.0
C1232 C 0.53599 0.27804 0.15293 0.0
C1233 C 0.51672 0.26121 0.15929 0.0
C1234 C 0.55195 0.30186 0.15637 0.0
C1235 C 0.54905 0.30942 0.16625 0.0
C1236 C 0.52957 0.29288 0.17259 0.0
H1237 H 0.66556 0.46535 0.16916 0.0
H1238 H 0.62559 0.43071 0.17437 0.0
C1239 C 0.51347 0.26886 0.16913 0.0
C1240 C 0.56729 0.33453 0.16972 0.0
H1241 H 0.62068 0.36474 0.18353 0.0
C1242 C 0.56973 0.35446 0.16385 0.0
C1243 C 0.58519 0.33849 0.1773 0.0
C1244 C 0.58336 0.31761 0.1838 0.0
C1245 C 0.59086 0.37779 0.16459 0.0
C1246 C 0.60978 0.38131 0.17157 0.0
C1247 C 0.60616 0.36195 0.17818 0.0
C1248 C 0.63498 0.40277 0.17058 0.0
C1249 C 0.59371 0.39771 0.15717 0.0
C1250 C 0.65398 0.39862 0.16735 0.0
C1251 C 0.67682 0.41826 0.1645 0.0
C1252 C 0.68118 0.44256 0.16475 0.0
C1253 C 0.66272 0.44685 0.16872 0.0
C1254 C 0.63982 0.42708 0.17167 0.0
H1255 H 0.57864 0.39082 0.15135 0.0
H1256 H 0.59351 0.4128 0.16158 0.0
H1257 H 0.61153 0.40554 0.15298 0.0
H1258 H 0.65071 0.38003 0.16648 0.0
H1259 H 0.69064 0.41421 0.16162 0.0
H1260 H 0.56706 0.37098 0.01271 0.0
H1261 H 0.54972 0.33163 0.00396 0.0
H1262 H 0.54374 0.36485 0.97559 0.0
H1263 H 0.56203 0.4051 0.98439 0.0
H1264 H 0.50514 0.30299 0.99365 0.0
H1265 H 0.58508 0.33387 0.96687 0.0
H1266 H 0.5869 0.3529 0.9777 0.0
H1267 H 0.56729 0.34922 0.9669 0.0
C1268 C 0.562 0.37004 0.00463 0.0
C1269 C 0.56616 0.39119 0.99921 0.0
C1270 C 0.55188 0.34743 0.99963 0.0
C1271 C 0.54551 0.34527 0.98911 0.0
C1272 C 0.54877 0.36616 0.9837 0.0
H1273 H 0.51338 0.19383 0.98971 0.0
H1274 H 0.50499 0.22361 0.98092 0.0
C1275 C 0.55912 0.38906 0.98873 0.0
C1276 C 0.53735 0.3212 0.98403 0.0
H1277 H 0.56418 0.29245 0.97179 0.0
C1278 C 0.51743 0.30041 0.98854 0.0
C1279 C 0.55307 0.31798 0.97716 0.0
C1280 C 0.57432 0.33958 0.97184 0.0
C1281 C 0.51551 0.27716 0.98794 0.0
C1282 C 0.53359 0.27469 0.98233 0.0
C1283 C 0.55068 0.29455 0.97626 0.0
C1284 C 0.53978 0.25544 0.98517 0.0
C1285 C 0.49619 0.25648 0.99444 0.0
C1286 C 0.56277 0.26316 0.9898 0.0
C1287 C 0.56777 0.2463 0.99461 0.0
C1288 C 0.54978 0.22122 0.99505 0.0
C1289 C 0.52747 0.2131 0.98968 0.0
C1290 C 0.52258 0.23011 0.9847 0.0
H1291 H 0.48456 0.26214 0.99882 0.0
H1292 H 0.48395 0.24081 0.98936 0.0
H1293 H 0.50505 0.24995 8e-05 0.0
H1294 H 0.57645 0.28256 0.99026 0.0
H1295 H 0.58535 0.25326 0.99847 0.0
H1296 H 0.74542 0.34667 0.00903 0.0
H1297 H 0.71422 0.30778 0.00177 0.0
H1298 H 0.77059 0.29322 0.99061 0.0
H1299 H 0.80227 0.33207 0.99827 0.0
H1300 H 0.70357 0.28769 0.9826 0.0
H1301 H 0.73033 0.23348 0.00841 0.0
H1302 H 0.74323 0.26619 0.01007 0.0
H1303 H 0.75286 0.25458 0.9994 0.0
C1304 C 0.75135 0.33536 0.005 0.0
C1305 C 0.77639 0.34234 0.00441 0.0
C1306 C 0.73342 0.31312 0.00078 0.0
C1307 C 0.74 0.29736 0.99578 0.0
C1308 C 0.76505 0.30481 0.99464 0.0
H1309 H 0.59338 0.16756 0.98441 0.0
H1310 H 0.6364 0.19487 0.97909 0.0
C1311 C 0.78312 0.32707 0.99899 0.0
C1312 C 0.7201 0.27256 0.99262 0.0
H1313 H 0.69134 0.21297 0.001 0.0
C1314 C 0.70107 0.27113 0.98637 0.0
C1315 C 0.71712 0.25094 0.99744 0.0
C1316 C 0.73685 0.2512 0.00425 0.0
C1317 C 0.67804 0.24952 0.9859 0.0
C1318 C 0.67428 0.22862 0.9916 0.0
C1319 C 0.6943 0.22913 0.99671 0.0
C1320 C 0.64918 0.20904 0.99454 0.0
C1321 C 0.65727 0.25009 0.98022 0.0
C1322 C 0.64241 0.20712 0.00501 0.0
C1323 C 0.61819 0.19152 0.00804 0.0
C1324 C 0.60007 0.17751 0.00067 0.0
C1325 C 0.60698 0.17835 0.99024 0.0
C1326 C 0.63147 0.194 0.98719 0.0
H1327 H 0.6629 0.26856 0.97695 0.0
H1328 H 0.65092 0.23665 0.97375 0.0
H1329 H 0.64144 0.24479 0.98552 0.0
H1330 H 0.65571 0.21855 0.01083 0.0
H1331 H 0.61354 0.19111 0.01616 0.0
H1332 H 0.82438 0.45253 0.01428 0.0
H1333 H 0.79464 0.46172 0.00622 0.0
H1334 H 0.79728 0.426 0.97808 0.0
H1335 H 0.82742 0.4169 0.98609 0.0
H1336 H 0.79119 0.48338 0.98436 0.0
H1337 H 0.72599 0.38412 0.99284 0.0
H1338 H 0.75516 0.40052 0.99947 0.0
H1339 H 0.7543 0.393 0.98602 0.0
C1340 C 0.81919 0.44726 0.00627 0.0
C1341 C 0.82798 0.43381 0.00083 0.0
C1342 C 0.80233 0.45266 0.00166 0.0
C1343 C 0.79381 0.44449 0.99158 0.0
C1344 C 0.80383 0.43257 0.98585 0.0
H1345 H 0.64384 0.41213 0.98554 0.0
H1346 H 0.68237 0.41775 0.97828 0.0
C1347 C 0.82098 0.42738 0.99043 0.0
C1348 C 0.77154 0.4447 0.98802 0.0
H1349 H 0.70925 0.40926 0.98961 0.0
C1350 C 0.77319 0.46709 0.98522 0.0
C1351 C 0.7482 0.42335 0.98905 0.0
C1352 C 0.74555 0.39881 0.99202 0.0
C1353 C 0.75189 0.46897 0.98398 0.0
C1354 C 0.72853 0.44811 0.98601 0.0
C1355 C 0.72702 0.42535 0.98806 0.0
C1356 C 0.70588 0.44976 0.98762 0.0
C1357 C 0.7548 0.49339 0.98073 0.0
C1358 C 0.70609 0.46682 0.99478 0.0
C1359 C 0.68403 0.4641 0.99864 0.0
C1360 C 0.66147 0.44384 0.99566 0.0
C1361 C 0.66109 0.42794 0.98792 0.0
C1362 C 0.68311 0.43111 0.98381 0.0
H1363 H 0.77033 0.50288 0.97518 0.0
H1364 H 0.73781 0.49124 0.97706 0.0
H1365 H 0.75928 0.50546 0.98764 0.0
H1366 H 0.7232 0.48094 0.99812 0.0
H1367 H 0.68474 0.47635 0.00474 0.0
H1368 H 0.28148 0.72429 0.85854 0.0
H1369 H 0.32332 0.74939 0.85217 0.0
H1370 H 0.2971 0.77514 0.82688 0.0
H1371 H 0.25475 0.75006 0.83328 0.0
H1372 H 0.34154 0.74771 0.83144 0.0
H1373 H 0.35229 0.83898 0.84172 0.0
H1374 H 0.32837 0.81109 0.84761 0.0
H1375 H 0.32626 0.81714 0.83418 0.0
C1376 C 0.28444 0.73521 0.85162 0.0
C1377 C 0.26468 0.73518 0.84646 0.0
C1378 C 0.30841 0.74952 0.84797 0.0
C1379 C 0.31327 0.76418 0.8391 0.0
C1380 C 0.2937 0.76408 0.83379 0.0
H1381 H 0.46969 0.81612 0.83445 0.0
H1382 H 0.43363 0.81338 0.82578 0.0
C1383 C 0.26954 0.74967 0.83745 0.0
C1384 C 0.33914 0.77954 0.83573 0.0
H1385 H 0.38842 0.83688 0.83966 0.0
C1386 C 0.35189 0.7674 0.83287 0.0
C1387 C 0.35232 0.80521 0.8375 0.0
C1388 C 0.33927 0.81906 0.84043 0.0
C1389 C 0.37768 0.77958 0.83301 0.0
C1390 C 0.39101 0.8048 0.83589 0.0
C1391 C 0.37819 0.8176 0.83748 0.0
C1392 C 0.41648 0.81573 0.83997 0.0
C1393 C 0.39013 0.76455 0.83124 0.0
C1394 C 0.42008 0.82081 0.85063 0.0
C1395 C 0.44078 0.82285 0.85556 0.0
C1396 C 0.45815 0.8196 0.84993 0.0
C1397 C 0.45638 0.81821 0.83904 0.0
C1398 C 0.43567 0.81644 0.83408 0.0
H1399 H 0.37672 0.74471 0.82998 0.0
H1400 H 0.4021 0.77152 0.82429 0.0
H1401 H 0.4018 0.76613 0.838 0.0
H1402 H 0.40573 0.82073 0.85534 0.0
H1403 H 0.4419 0.82458 0.86393 0.0
H1404 H 0.17391 0.64777 0.82844 0.0
H1405 H 0.17514 0.61387 0.81962 0.0
H1406 H 0.15787 0.57379 0.84851 0.0
H1407 H 0.15578 0.60689 0.85717 0.0
H1408 H 0.21108 0.60813 0.82464 0.0
H1409 H 0.13063 0.5169 0.82966 0.0
H1410 H 0.12822 0.54438 0.83076 0.0
H1411 H 0.13531 0.53171 0.84197 0.0
C1412 C 0.16913 0.63117 0.83278 0.0
C1413 C 0.16545 0.63027 0.84357 0.0
C1414 C 0.16986 0.61177 0.82772 0.0
C1415 C 0.16681 0.59124 0.83337 0.0
C1416 C 0.1599 0.58908 0.84385 0.0
H1417 H 0.26212 0.55602 0.85418 0.0
H1418 H 0.23798 0.57214 0.84611 0.0
C1419 C 0.15908 0.60832 0.84888 0.0
C1420 C 0.17724 0.57603 0.82951 0.0
H1421 H 0.17159 0.51999 0.83446 0.0
C1422 C 0.20202 0.58858 0.82635 0.0
C1423 C 0.16558 0.55038 0.83139 0.0
C1424 C 0.13836 0.53514 0.83351 0.0
C1425 C 0.21628 0.57711 0.82668 0.0
C1426 C 0.20556 0.55271 0.8304 0.0
C1427 C 0.18 0.53903 0.83195 0.0
C1428 C 0.22104 0.54312 0.83464 0.0
C1429 C 0.24321 0.59187 0.8239 0.0
C1430 C 0.21914 0.52118 0.831 0.0
C1431 C 0.23298 0.51183 0.83564 0.0
C1432 C 0.24858 0.52412 0.8441 0.0
C1433 C 0.25033 0.54608 0.8477 0.0
C1434 C 0.23669 0.55545 0.84302 0.0
H1435 H 0.2464 0.60571 0.81781 0.0
H1436 H 0.2539 0.60199 0.83086 0.0
H1437 H 0.25029 0.57981 0.82111 0.0
H1438 H 0.20691 0.51127 0.82463 0.0
H1439 H 0.23111 0.49478 0.83271 0.0
H1440 H 0.33844 0.52613 0.83 0.0
H1441 H 0.3737 0.56254 0.82251 0.0
H1442 H 0.40996 0.57935 0.85228 0.0
H1443 H 0.37537 0.54297 0.85964 0.0
H1444 H 0.37947 0.60372 0.82914 0.0
H1445 H 0.46915 0.61055 0.83447 0.0
H1446 H 0.44101 0.58106 0.8345 0.0
H1447 H 0.45266 0.59858 0.84634 0.0
C1448 C 0.3545 0.5369 0.83479 0.0
C1449 C 0.35394 0.53209 0.84547 0.0
C1450 C 0.37467 0.55776 0.8305 0.0
C1451 C 0.39452 0.57389 0.83681 0.0
C1452 C 0.39521 0.56716 0.84715 0.0
H1453 H 0.43513 0.70562 0.85998 0.0
H1454 H 0.41782 0.66519 0.85192 0.0
C1455 C 0.37517 0.54641 0.85142 0.0
C1456 C 0.4106 0.60006 0.83379 0.0
H1457 H 0.46724 0.64851 0.8397 0.0
C1458 C 0.39893 0.61343 0.83103 0.0
C1459 C 0.43613 0.61301 0.83599 0.0
C1460 C 0.45041 0.59989 0.83787 0.0
C1461 C 0.41118 0.63912 0.83189 0.0
C1462 C 0.4355 0.65164 0.83574 0.0
C1463 C 0.44828 0.63875 0.83706 0.0
C1464 C 0.44608 0.67666 0.84015 0.0
C1465 C 0.39733 0.65247 0.82947 0.0
C1466 C 0.46799 0.69639 0.83632 0.0
C1467 C 0.478 0.71967 0.84093 0.0
C1468 C 0.46641 0.7234 0.84955 0.0
C1469 C 0.44454 0.70345 0.85337 0.0
C1470 C 0.43452 0.68035 0.84872 0.0
H1471 H 0.38309 0.64255 0.82344 0.0
H1472 H 0.38783 0.65336 0.83658 0.0
H1473 H 0.40998 0.67156 0.82677 0.0
H1474 H 0.4773 0.69379 0.82977 0.0
H1475 H 0.49496 0.73463 0.83782 0.0
H1476 H 0.40909 0.63029 0.97349 0.0
H1477 H 0.43613 0.67084 0.98084 0.0
H1478 H 0.46482 0.63925 0.00262 0.0
H1479 H 0.43729 0.59819 0.99541 0.0
H1480 H 0.4574 0.67613 0.0115 0.0
H1481 H 0.51015 0.70851 0.97519 0.0
H1482 H 0.47791 0.69496 0.9725 0.0
H1483 H 0.48963 0.67623 0.97784 0.0
C1484 C 0.42107 0.63185 0.97985 0.0
C1485 C 0.42127 0.61104 0.98375 0.0
C1486 C 0.43657 0.65507 0.98404 0.0
C1487 C 0.45291 0.65809 0.99209 0.0
C1488 C 0.45251 0.6373 0.99633 0.0
H1489 H 0.53223 0.81217 0.98859 0.0
H1490 H 0.5346 0.77667 0.99493 0.0
C1491 C 0.43678 0.6139 0.99219 0.0
C1492 C 0.47057 0.68328 0.99573 0.0
H1493 H 0.5082 0.73985 0.98557 0.0
C1494 C 0.46907 0.69014 0.00594 0.0
C1495 C 0.48685 0.70134 0.9887 0.0
C1496 C 0.49147 0.6948 0.97798 0.0
C1497 C 0.4811 0.71511 0.00887 0.0
C1498 C 0.49399 0.73349 0.00127 0.0
C1499 C 0.49798 0.72619 0.99147 0.0
C1500 C 0.49867 0.75922 0.00227 0.0
C1501 C 0.47915 0.7214 0.01998 0.0
C1502 C 0.47925 0.76293 0.0054 0.0
C1503 C 0.47865 0.78396 0.00228 0.0
C1504 C 0.49694 0.80105 0.99566 0.0
C1505 C 0.51797 0.79922 0.99375 0.0
C1506 C 0.51914 0.77873 0.99729 0.0
H1507 H 0.48153 0.70878 0.02529 0.0
H1508 H 0.49313 0.74068 0.02193 0.0
H1509 H 0.46046 0.7186 0.0214 0.0
H1510 H 0.46293 0.74833 0.00904 0.0
H1511 H 0.46208 0.78485 0.00373 0.0
H1512 H 0.20138 0.67193 0.99853 0.0
H1513 H 0.24069 0.70597 0.004 0.0
H1514 H 0.22984 0.75517 0.9841 0.0
H1515 H 0.19123 0.72038 0.97796 0.0
H1516 H 0.26575 0.75314 0.97742 0.0
H1517 H 0.28287 0.76663 0.01921 0.0
H1518 H 0.26867 0.73426 0.01684 0.0
H1519 H 0.25192 0.75017 0.0141 0.0
C1520 C 0.20667 0.69026 0.99578 0.0
C1521 C 0.19355 0.69353 0.98771 0.0
C1522 C 0.2293 0.70992 0.99895 0.0
C1523 C 0.23863 0.73327 0.99436 0.0
C1524 C 0.22327 0.7373 0.98766 0.0
H1525 H 0.40057 0.82759 0.99586 0.0
H1526 H 0.35719 0.81319 0.99956 0.0
C1527 C 0.20107 0.71745 0.9842 0.0
C1528 C 0.26574 0.75036 0.99414 0.0
H1529 H 0.31794 0.77026 0.00864 0.0
C1530 C 0.277 0.75749 0.98434 0.0
C1531 C 0.28084 0.75642 0.00307 0.0
C1532 C 0.27032 0.75165 0.01388 0.0
C1533 C 0.30251 0.76858 0.98316 0.0
C1534 C 0.31725 0.77194 0.99197 0.0
C1535 C 0.30646 0.76687 0.00186 0.0
C1536 C 0.34356 0.77941 0.99083 0.0
C1537 C 0.31335 0.77587 0.97242 0.0
C1538 C 0.35024 0.76474 0.985 0.0
C1539 C 0.37493 0.77294 0.98279 0.0
C1540 C 0.39347 0.79586 0.98648 0.0
C1541 C 0.38677 0.80986 0.99285 0.0
C1542 C 0.362 0.80169 0.995 0.0
H1543 H 0.30132 0.77945 0.96724 0.0
H1544 H 0.33189 0.79261 0.97262 0.0
H1545 H 0.31512 0.76059 0.96898 0.0
H1546 H 0.33624 0.74721 0.9819 0.0
H1547 H 0.37943 0.76154 0.97798 0.0
H1548 H 0.16741 0.57377 0.99312 0.0
H1549 H 0.1863 0.55032 0.99958 0.0
H1550 H 0.2486 0.59161 0.97943 0.0
H1551 H 0.23008 0.61518 0.97297 0.0
H1552 H 0.19872 0.52066 0.9879 0.0
H1553 H 0.28089 0.59416 0.00736 0.0
H1554 H 0.25427 0.59708 0.0044 0.0
H1555 H 0.27758 0.60404 0.99471 0.0
C1556 C 0.18528 0.57808 0.99014 0.0
C1557 C 0.19726 0.5964 0.98251 0.0
C1558 C 0.19601 0.56464 0.99386 0.0
C1559 C 0.219 0.56954 0.99012 0.0
C1560 C 0.23107 0.58794 0.9826 0.0
H1561 H 0.29291 0.51152 0.96666 0.0
H1562 H 0.25824 0.51324 0.97402 0.0
C1563 C 0.22035 0.60126 0.97884 0.0
C1564 C 0.22989 0.5544 0.99333 0.0
H1565 H 0.2857 0.56127 0.9995 0.0
C1566 C 0.2175 0.52928 0.99074 0.0
C1567 C 0.25397 0.56533 0.99742 0.0
C1568 C 0.26731 0.59158 0.00125 0.0
C1569 C 0.2298 0.51573 0.99086 0.0
C1570 C 0.25513 0.52784 0.99341 0.0
C1571 C 0.2664 0.55197 0.99734 0.0
C1572 C 0.27151 0.51855 0.98986 0.0
C1573 C 0.21594 0.48903 0.98767 0.0
C1574 C 0.29021 0.51995 0.99633 0.0
C1575 C 0.3104 0.51928 0.99206 0.0
C1576 C 0.31224 0.51747 0.98126 0.0
C1577 C 0.29219 0.51327 0.97499 0.0
C1578 C 0.27209 0.51391 0.97924 0.0
H1579 H 0.19675 0.47999 0.99065 0.0
H1580 H 0.21489 0.48781 0.97909 0.0
H1581 H 0.22498 0.4788 0.99056 0.0
H1582 H 0.29018 0.52359 0.00454 0.0
H1583 H 0.32551 0.52244 0.99712 0.0
H1584 H 0.25232 0.59313 0.50449 0.0
H1585 H 0.28206 0.58169 0.5106 0.0
H1586 H 0.22806 0.50485 0.50697 0.0
H1587 H 0.19799 0.51611 0.50082 0.0
H1588 H 0.28282 0.54474 0.5263 0.0
H1589 H 0.28408 0.52452 0.48421 0.0
H1590 H 0.2708 0.54257 0.48872 0.0
H1591 H 0.25515 0.50998 0.49101 0.0
C1592 C 0.24651 0.57376 0.50524 0.0
C1593 C 0.22297 0.55553 0.50196 0.0
C1594 C 0.26348 0.56726 0.50883 0.0
C1595 C 0.25727 0.54247 0.50915 0.0
C1596 C 0.23313 0.5241 0.50677 0.0
H1597 H 0.38045 0.5228 0.49504 0.0
H1598 H 0.33862 0.50812 0.5014 0.0
C1599 C 0.21601 0.53058 0.50324 0.0
C1600 C 0.27732 0.53665 0.50997 0.0
H1601 H 0.31621 0.52819 0.49437 0.0
C1602 C 0.2899 0.5405 0.5194 0.0
C1603 C 0.28634 0.53098 0.50097 0.0
C1604 C 0.27356 0.52682 0.49062 0.0
C1605 C 0.31203 0.53994 0.51994 0.0
C1606 C 0.32216 0.53634 0.51073 0.0
C1607 C 0.30859 0.53091 0.50147 0.0
C1608 C 0.34797 0.54139 0.50999 0.0
C1609 C 0.32442 0.54362 0.53033 0.0
C1610 C 0.36754 0.56429 0.51325 0.0
C1611 C 0.3916 0.5722 0.50995 0.0
C1612 C 0.39625 0.55769 0.50308 0.0
C1613 C 0.37718 0.53414 0.50042 0.0
C1614 C 0.3533 0.52584 0.50402 0.0
H1615 H 0.3105 0.53525 0.5366 0.0
H1616 H 0.33658 0.53546 0.53055 0.0
H1617 H 0.3356 0.56364 0.53197 0.0
H1618 H 0.36404 0.57704 0.51756 0.0
H1619 H 0.40605 0.59064 0.51192 0.0
H1620 H 0.46987 0.66185 0.5045 0.0
H1621 H 0.47825 0.70175 0.51138 0.0
H1622 H 0.40603 0.68617 0.5016 0.0
H1623 H 0.39724 0.64632 0.49515 0.0
H1624 H 0.48283 0.73825 0.5009 0.0
H1625 H 0.40848 0.71765 0.52832 0.0
H1626 H 0.41504 0.69408 0.52405 0.0
H1627 H 0.39416 0.7005 0.51682 0.0
C1628 C 0.45558 0.66673 0.50404 0.0
C1629 C 0.43292 0.6509 0.49921 0.0
C1630 C 0.46038 0.68952 0.50801 0.0
C1631 C 0.44262 0.69687 0.50722 0.0
C1632 C 0.41976 0.6807 0.50269 0.0
H1633 H 0.43915 0.80751 0.48009 0.0
H1634 H 0.45174 0.77995 0.48744 0.0
C1635 C 0.41485 0.65792 0.49885 0.0
C1636 C 0.44881 0.72256 0.50955 0.0
H1637 H 0.42026 0.75429 0.51687 0.0
C1638 C 0.46958 0.7419 0.50473 0.0
C1639 C 0.43227 0.72786 0.5149 0.0
C1640 C 0.41145 0.70886 0.52141 0.0
C1641 C 0.47225 0.76541 0.50387 0.0
C1642 C 0.45328 0.76936 0.50759 0.0
C1643 C 0.43446 0.75113 0.5137 0.0
C1644 C 0.44974 0.78945 0.50344 0.0
C1645 C 0.49461 0.78532 0.49838 0.0
C1646 C 0.44413 0.80397 0.50995 0.0
C1647 C 0.43652 0.81969 0.5057 0.0
C1648 C 0.43416 0.8208 0.49491 0.0
C1649 C 0.4408 0.80706 0.48844 0.0
C1650 C 0.44835 0.79149 0.49265 0.0
H1651 H 0.51116 0.78394 0.5003 0.0
H1652 H 0.49182 0.78283 0.48987 0.0
H1653 H 0.49818 0.804 0.50048 0.0
H1654 H 0.44477 0.80246 0.5183 0.0
H1655 H 0.43138 0.83001 0.51086 0.0
H1656 H 0.33072 0.80439 0.50281 0.0
H1657 H 0.29302 0.7761 0.51222 0.0
H1658 H 0.30746 0.71664 0.50641 0.0
H1659 H 0.3451 0.74457 0.49753 0.0
H1660 H 0.25492 0.74104 0.50415 0.0
H1661 H 0.27957 0.6963 0.53423 0.0
H1662 H 0.30255 0.72495 0.52847 0.0
H1663 H 0.29584 0.69567 0.52297 0.0
C1664 C 0.32618 0.78543 0.50383 0.0
C1665 C 0.34081 0.77672 0.49929 0.0
C1666 C 0.30464 0.76928 0.50923 0.0
C1667 C 0.29746 0.74422 0.51022 0.0
C1668 C 0.31282 0.73595 0.50614 0.0
H1669 H 0.19298 0.62716 0.48563 0.0
H1670 H 0.21821 0.66801 0.49269 0.0
C1671 C 0.33429 0.75199 0.50085 0.0
C1672 C 0.27226 0.72563 0.51366 0.0
H1673 H 0.24309 0.66695 0.52301 0.0
C1674 C 0.25218 0.72524 0.50865 0.0
C1675 C 0.268 0.70531 0.51992 0.0
C1676 C 0.28772 0.70584 0.52679 0.0
C1677 C 0.22917 0.70363 0.5083 0.0
C1678 C 0.22659 0.6818 0.51272 0.0
C1679 C 0.24528 0.68339 0.51922 0.0
C1680 C 0.2081 0.6572 0.50872 0.0
C1681 C 0.20848 0.70392 0.50246 0.0
C1682 C 0.19426 0.63712 0.51536 0.0
C1683 C 0.17992 0.61331 0.51128 0.0
C1684 C 0.17954 0.60934 0.50053 0.0
C1685 C 0.19285 0.62957 0.49394 0.0
C1686 C 0.20705 0.65312 0.49798 0.0
H1687 H 0.20853 0.7214 0.50395 0.0
H1688 H 0.21128 0.70304 0.494 0.0
H1689 H 0.19024 0.6882 0.50467 0.0
H1690 H 0.19509 0.63976 0.52368 0.0
H1691 H 0.16987 0.59799 0.51653 0.0
H1692 H 0.23807 0.73424 0.31397 0.0
H1693 H 0.22162 0.69241 0.30684 0.0
H1694 H 0.21847 0.66458 0.33775 0.0
H1695 H 0.23423 0.70549 0.3448 0.0
H1696 H 0.243 0.66486 0.3075 0.0
H1697 H 0.15411 0.61153 0.32684 0.0
H1698 H 0.16916 0.6447 0.32579 0.0
H1699 H 0.17559 0.6304 0.33659 0.0
C1700 C 0.23332 0.719 0.31921 0.0
C1701 C 0.23747 0.72309 0.32993 0.0
C1702 C 0.2239 0.69517 0.31514 0.0
C1703 C 0.21817 0.67519 0.32178 0.0
C1704 C 0.22185 0.67941 0.33248 0.0
H1705 H 0.26662 0.58694 0.33319 0.0
H1706 H 0.25704 0.61503 0.32438 0.0
C1707 C 0.23126 0.70298 0.3365 0.0
C1708 C 0.2117 0.65048 0.31779 0.0
H1709 H 0.18036 0.59144 0.32658 0.0
C1710 C 0.22867 0.64856 0.31133 0.0
C1711 C 0.19236 0.62886 0.32229 0.0
C1712 C 0.17164 0.62903 0.32815 0.0
C1713 C 0.22922 0.62648 0.31073 0.0
C1714 C 0.21304 0.60634 0.31706 0.0
C1715 C 0.19349 0.60708 0.32203 0.0
C1716 C 0.21943 0.58763 0.32059 0.0
C1717 C 0.2483 0.6256 0.30392 0.0
C1718 C 0.20144 0.56262 0.32162 0.0
C1719 C 0.20676 0.54635 0.32699 0.0
C1720 C 0.23013 0.5549 0.33146 0.0
C1721 C 0.24837 0.57962 0.32992 0.0
C1722 C 0.24302 0.59576 0.32467 0.0
H1723 H 0.24981 0.63505 0.29644 0.0
H1724 H 0.26658 0.63567 0.30774 0.0
H1725 H 0.24384 0.6064 0.30231 0.0
H1726 H 0.18301 0.55591 0.31864 0.0
H1727 H 0.19229 0.52741 0.32801 0.0
H1728 H 0.29807 0.52973 0.34872 0.0
H1729 H 0.33761 0.55576 0.3406 0.0
H1730 H 0.30806 0.52144 0.31101 0.0
H1731 H 0.26756 0.49564 0.31915 0.0
H1732 H 0.37004 0.54756 0.32989 0.0
H1733 H 0.33256 0.59297 0.30438 0.0
H1734 H 0.314 0.57226 0.31454 0.0
H1735 H 0.32086 0.56041 0.30312 0.0
C1736 C 0.29989 0.52752 0.34049 0.0
C1737 C 0.2796 0.51091 0.33454 0.0
C1738 C 0.32263 0.54233 0.33586 0.0
C1739 C 0.3258 0.54081 0.32516 0.0
C1740 C 0.30594 0.52326 0.31924 0.0
H1741 H 0.47406 0.66878 0.32493 0.0
H1742 H 0.44507 0.62905 0.31702 0.0
C1743 C 0.28289 0.50846 0.3239 0.0
C1744 C 0.34955 0.55937 0.3205 0.0
H1745 H 0.37413 0.61535 0.30863 0.0
C1746 C 0.37121 0.56216 0.32497 0.0
C1747 C 0.35098 0.57805 0.31388 0.0
C1748 C 0.32844 0.57598 0.30869 0.0
C1749 C 0.39339 0.58468 0.32448 0.0
C1750 C 0.39404 0.60454 0.31894 0.0
C1751 C 0.37343 0.60025 0.31303 0.0
C1752 C 0.41249 0.63051 0.32144 0.0
C1753 C 0.41486 0.58775 0.33092 0.0
C1754 C 0.404 0.64537 0.32585 0.0
C1755 C 0.4204 0.66817 0.33012 0.0
C1756 C 0.44581 0.67662 0.33023 0.0
C1757 C 0.45455 0.66259 0.32515 0.0
C1758 C 0.438 0.6398 0.32068 0.0
H1759 H 0.41028 0.57102 0.33554 0.0
H1760 H 0.4305 0.5915 0.32575 0.0
H1761 H 0.42096 0.6035 0.33634 0.0
H1762 H 0.38444 0.63875 0.32654 0.0
H1763 H 0.41292 0.67849 0.33384 0.0
H1764 H 0.31962 0.76579 0.31346 0.0
H1765 H 0.35909 0.77404 0.30595 0.0
H1766 H 0.39644 0.81306 0.3338 0.0
H1767 H 0.35746 0.80624 0.34091 0.0
H1768 H 0.42652 0.83182 0.31764 0.0
H1769 H 0.38172 0.72925 0.31653 0.0
H1770 H 0.36923 0.74295 0.30807 0.0
H1771 H 0.36627 0.74438 0.3219 0.0
C1772 C 0.3365 0.77696 0.31774 0.0
C1773 C 0.33578 0.78546 0.32771 0.0
C1774 C 0.35896 0.78142 0.31352 0.0
C1775 C 0.38064 0.79345 0.31945 0.0
C1776 C 0.38002 0.80367 0.32907 0.0
H1777 H 0.49292 0.78915 0.345 0.0
H1778 H 0.46727 0.80311 0.33657 0.0
C1779 C 0.35776 0.79977 0.33315 0.0
C1780 C 0.4031 0.7924 0.31665 0.0
H1781 H 0.4242 0.75165 0.31599 0.0
C1782 C 0.42599 0.81431 0.317 0.0
C1783 C 0.40251 0.76954 0.31572 0.0
C1784 C 0.37869 0.74516 0.31559 0.0
C1785 C 0.44811 0.8138 0.31747 0.0
C1786 C 0.44725 0.79086 0.31752 0.0
C1787 C 0.4247 0.76921 0.31597 0.0
C1788 C 0.4679 0.78815 0.32151 0.0
C1789 C 0.47208 0.83768 0.31859 0.0
C1790 C 0.47716 0.77546 0.3158 0.0
C1791 C 0.49205 0.76759 0.32062 0.0
C1792 C 0.49726 0.7718 0.33127 0.0
C1793 C 0.48913 0.78568 0.33679 0.0
C1794 C 0.47468 0.79388 0.33194 0.0
H1795 H 0.47107 0.85309 0.31482 0.0
H1796 H 0.47594 0.84215 0.32695 0.0
H1797 H 0.48762 0.83631 0.31518 0.0
H1798 H 0.47177 0.77051 0.30778 0.0
H1799 H 0.49797 0.75674 0.31623 0.0
H1800 H 0.21003 0.22852 0.29565 0.0
H1801 H 0.23205 0.23683 0.279 0.0
H1802 H 0.16251 0.19959 0.26288 0.0
H1803 H 0.14066 0.19138 0.27926 0.0
H1804 H 0.229 0.20231 0.26462 0.0
H1805 H 0.2001 0.26304 0.2462 0.0
H1806 H 0.19854 0.25813 0.26006 0.0
H1807 H 0.17393 0.2368 0.25176 0.0
C1808 C 0.19953 0.2223 0.28852 0.0
C1809 C 0.17363 0.20935 0.28874 0.0
C1810 C 0.21211 0.22715 0.27905 0.0
C1811 C 0.1989 0.21943 0.2697 0.0
C1812 C 0.17309 0.20642 0.26997 0.0
H1813 H 0.18572 0.14477 0.21856 0.0
H1814 H 0.19427 0.16529 0.23522 0.0
C1815 C 0.1606 0.20148 0.27937 0.0
C1816 C 0.21138 0.22255 0.25961 0.0
H1817 H 0.20537 0.23502 0.23439 0.0
C1818 C 0.22464 0.21025 0.25804 0.0
C1819 C 0.20637 0.23349 0.25105 0.0
C1820 C 0.1942 0.24886 0.25238 0.0
C1821 C 0.23008 0.20583 0.248 0.0
C1822 C 0.22165 0.21354 0.23938 0.0
C1823 C 0.21138 0.22865 0.24099 0.0
C1824 C 0.21839 0.20179 0.22911 0.0
C1825 C 0.24321 0.19136 0.24668 0.0
C1826 C 0.22851 0.21563 0.22003 0.0
C1827 C 0.22351 0.20383 0.21035 0.0
C1828 C 0.20801 0.17815 0.20967 0.0
C1829 C 0.19781 0.16456 0.21879 0.0
C1830 C 0.2029 0.17624 0.22837 0.0
H1831 H 0.25627 0.19506 0.25316 0.0
H1832 H 0.22949 0.17137 0.24677 0.0
H1833 H 0.25345 0.19584 0.23923 0.0
H1834 H 0.24017 0.23546 0.22044 0.0
H1835 H 0.23156 0.21474 0.20343 0.0
H1836 H 0.87022 0.03618 0.21544 0.0
H1837 H 0.85288 0.02442 0.23277 0.0
H1838 H 0.78503 0.01881 0.22214 0.0
H1839 H 0.80233 0.03047 0.20455 0.0
H1840 H 0.83403 0.04991 0.24528 0.0
H1841 H 0.76456 0.95176 0.23707 0.0
H1842 H 0.79015 0.96927 0.22842 0.0
H1843 H 0.76535 0.9757 0.22905 0.0
C1844 C 0.85156 0.03236 0.21673 0.0
C1845 C 0.83762 0.03423 0.20863 0.0
C1846 C 0.84172 0.02573 0.22666 0.0
C1847 C 0.81773 0.02079 0.22872 0.0
C1848 C 0.80355 0.02242 0.22066 0.0
H1849 H 0.77372 0.97517 0.29427 0.0
H1850 H 0.77115 0.99211 0.27735 0.0
C1851 C 0.81344 0.02908 0.21065 0.0
C1852 C 0.80815 0.01392 0.2394 0.0
H1853 H 0.77409 0.96333 0.2545 0.0
C1854 C 0.82034 0.03118 0.24732 0.0
C1855 C 0.79027 0.98948 0.24199 0.0
C1856 C 0.77677 0.97033 0.23373 0.0
C1857 C 0.81655 0.0241 0.25777 0.0
C1858 C 0.80024 -0.00077 0.2603 0.0
C1859 C 0.7865 0.98243 0.25247 0.0
C1860 C 0.8013 0.98949 0.27057 0.0
C1861 C 0.83146 0.0427 0.26601 0.0
C1862 C 0.81909 0.98259 0.27224 0.0
C1863 C 0.82053 0.97293 0.28175 0.0
C1864 C 0.80424 0.97006 0.28982 0.0
C1865 C 0.78651 0.97722 0.28818 0.0
C1866 C 0.78498 0.98682 0.27856 0.0
H1867 H 0.84009 0.06189 0.26305 0.0
H1868 H 0.81966 0.04075 0.27278 0.0
H1869 H 0.84626 0.03925 0.26874 0.0
H1870 H 0.83184 0.98461 0.26613 0.0
H1871 H 0.83443 0.96765 0.28276 0.0
H1872 H 0.01754 0.78622 0.29026 0.0
H1873 H 0.00883 0.76791 0.27276 0.0
H1874 H 0.0222 0.83705 0.2599 0.0
H1875 H 0.03068 0.85522 0.2771 0.0
H1876 H 0.97187 0.76599 0.25808 0.0
H1877 H 0.06632 0.81839 0.24237 0.0
H1878 H 0.05995 0.81346 0.25612 0.0
H1879 H 0.05798 0.83773 0.2495 0.0
C1880 C 0.01858 0.79742 0.28367 0.0
C1881 C 0.0249 0.82217 0.28504 0.0
C1882 C 0.01373 0.787 0.27371 0.0
C1883 C 0.01551 0.80136 0.26504 0.0
C1884 C 0.02137 0.82586 0.26646 0.0
H1885 H 0.96237 0.81987 0.21315 0.0
H1886 H 0.97766 0.81348 0.2295 0.0
C1887 C 0.02601 0.83615 0.27633 0.0
C1888 C 0.00993 0.79105 0.25443 0.0
H1889 H 0.03291 0.80742 0.22993 0.0
C1890 C 0.98537 0.77421 0.25193 0.0
C1891 C 0.02762 0.80157 0.24642 0.0
C1892 C 0.05451 0.81861 0.24875 0.0
C1893 C 0.97757 0.77001 0.24155 0.0
C1894 C 0.99474 0.78303 0.23361 0.0
C1895 C 0.01976 0.79757 0.23606 0.0
C1896 C 0.9863 0.78655 0.22342 0.0
C1897 C 0.95063 0.75351 0.23916 0.0
C1898 C 0.98666 0.77383 0.21453 0.0
C1899 C 0.97786 0.77747 0.20506 0.0
C1900 C 0.96875 0.79391 0.20445 0.0
C1901 C 0.96911 0.80698 0.21335 0.0
C1902 C 0.97779 0.80333 0.22272 0.0
H1903 H 0.94081 0.74059 0.24564 0.0
H1904 H 0.94199 0.76503 0.23787 0.0
H1905 H 0.94825 0.74276 0.23198 0.0
H1906 H 0.99335 0.76092 0.21495 0.0
H1907 H 0.97777 0.76715 0.19831 0.0
H1908 H 0.90196 0.86134 0.71223 0.0
H1909 H 0.88362 0.85597 0.72935 0.0
H1910 H 0.81372 0.7995 0.71744 0.0
H1911 H 0.83186 0.80481 0.70016 0.0
H1912 H 0.81008 0.83465 0.72883 0.0
H1913 H 0.86318 0.80122 0.75074 0.0
H1914 H 0.88331 0.82812 0.74335 0.0
H1915 H 0.86151 0.80034 0.73675 0.0
C1916 C 0.88273 0.84763 0.71322 0.0
C1917 C 0.8684 0.83357 0.70479 0.0
C1918 C 0.87233 0.8444 0.72306 0.0
C1919 C 0.84746 0.82696 0.7247 0.0
C1920 C 0.83303 0.81284 0.71634 0.0
H1921 H 0.81038 0.83373 0.79013 0.0
H1922 H 0.80764 0.81292 0.77363 0.0
C1923 C 0.84344 0.816 0.70647 0.0
C1924 C 0.83637 0.82536 0.735 0.0
H1925 H 0.8481 0.82412 0.76074 0.0
C1926 C 0.81789 0.83168 0.73581 0.0
C1927 C 0.84606 0.82083 0.7441 0.0
C1928 C 0.86441 0.81196 0.74369 0.0
C1929 C 0.81077 0.83614 0.74551 0.0
C1930 C 0.82273 0.83459 0.75453 0.0
C1931 C 0.83925 0.82571 0.75378 0.0
C1932 C 0.82167 0.84605 0.76438 0.0
C1933 C 0.79144 0.84373 0.74597 0.0
C1934 C 0.83061 0.87149 0.76461 0.0
C1935 C 0.83244 0.8834 0.77395 0.0
C1936 C 0.82541 0.87012 0.7833 0.0
C1937 C 0.81591 0.84446 0.78305 0.0
C1938 C 0.81429 0.83255 0.77365 0.0
H1939 H 0.77828 0.83571 0.73941 0.0
H1940 H 0.78103 0.83792 0.75338 0.0
H1941 H 0.80051 0.86408 0.74537 0.0
H1942 H 0.83694 0.88234 0.75757 0.0
H1943 H 0.83972 0.90313 0.77383 0.0
H1944 H 0.17435 0.97038 0.79439 0.0
H1945 H 0.19463 0.97935 0.7774 0.0
H1946 H 0.15803 0.01949 0.76874 0.0
H1947 H 0.1378 0.01066 0.78557 0.0
H1948 H 0.16717 0.96236 0.75933 0.0
H1949 H 0.22715 0.06308 0.75706 0.0
H1950 H 0.21746 0.04682 0.76929 0.0
H1951 H 0.19782 0.05546 0.76246 0.0
C1952 C 0.1712 0.98172 0.78896 0.0
C1953 C 0.15435 0.9897 0.79128 0.0
C1954 C 0.18279 0.9868 0.77927 0.0
C1955 C 0.1781 0.00036 0.77187 0.0
C1956 C 0.16237 0.00947 0.77442 0.0
H1957 H 0.12757 0.99399 0.7155 0.0
H1958 H 0.14024 0.98571 0.73215 0.0
C1959 C 0.1506 0.00419 0.78401 0.0
C1960 C 0.18612 0.00188 0.76098 0.0
H1961 H 0.20649 0.04244 0.74082 0.0
C1962 C 0.17658 0.97988 0.7553 0.0
C1963 C 0.19886 0.02468 0.75572 0.0
C1964 C 0.21114 0.04883 0.76149 0.0
C1965 C 0.17667 0.98014 0.74443 0.0
C1966 C 0.18633 0.00291 0.73919 0.0
C1967 C 0.19871 0.02493 0.74485 0.0
C1968 C 0.1791 0.00427 0.72841 0.0
C1969 C 0.16479 0.956 0.73866 0.0
C1970 C 0.19676 0.01732 0.72073 0.0
C1971 C 0.18948 0.02198 0.71111 0.0
C1972 C 0.16455 0.01417 0.7092 0.0
C1973 C 0.14691 0.0003 0.71677 0.0
C1974 C 0.15412 0.99535 0.72626 0.0
H1975 H 0.16668 0.94176 0.74304 0.0
H1976 H 0.14483 0.94933 0.73775 0.0
H1977 H 0.17301 0.95806 0.73083 0.0
H1978 H 0.21615 0.02461 0.72231 0.0
H1979 H 0.20346 0.03285 0.70542 0.0
H1980 H 0.94573 0.08672 0.72425 0.0
H1981 H 0.96724 0.10646 0.74023 0.0
H1982 H 0.9934 0.17799 0.72646 0.0
H1983 H 0.97197 0.15842 0.71031 0.0
H1984 H 0.03034 0.17225 0.73644 0.0
H1985 H 0.94934 0.14326 0.76184 0.0
H1986 H 0.94779 0.11792 0.75471 0.0
H1987 H 0.94727 0.14268 0.74785 0.0
C1988 C 0.9559 0.10665 0.72459 0.0
C1989 C 0.95707 0.12095 0.71597 0.0
C1990 C 0.96806 0.1179 0.73377 0.0
C1991 C 0.98155 0.14366 0.73456 0.0
C1992 C 0.98288 0.15807 0.72601 0.0
H1993 H 0.03965 0.19451 0.79707 0.0
H1994 H 0.02248 0.19475 0.78008 0.0
C1995 C 0.97062 0.14683 0.7168 0.0
C1996 C 0.99521 0.15518 0.74421 0.0
H1997 H 0.98756 0.15375 0.77041 0.0
C1998 C 0.02102 0.16866 0.74387 0.0
C1999 C 0.98301 0.15097 0.75384 0.0
C2000 C 0.95531 0.13814 0.7546 0.0
C2001 C 0.03499 0.17638 0.75301 0.0
C2002 C 0.02275 0.17005 0.76269 0.0
C2003 C 0.99695 0.15829 0.76298 0.0
C2004 C 0.03601 0.17298 0.77256 0.0
C2005 C 0.0627 0.19068 0.75223 0.0
C2006 C 0.04949 0.16083 0.77393 0.0
C2007 C 0.05928 0.16057 0.78362 0.0
C2008 C 0.05558 0.17228 0.79216 0.0
C2009 C 0.04276 0.18517 0.79068 0.0
C2010 C 0.03297 0.18541 0.78097 0.0
H2011 H 0.06875 0.20132 0.74487 0.0
H2012 H 0.07104 0.2036 0.75884 0.0
H2013 H 0.0698 0.17763 0.75227 0.0
H2014 H 0.05156 0.15061 0.76762 0.0
H2015 H 0.06903 0.15047 0.78446 0.0
H2016 H 0.90154 0.54289 0.53664 0.0
H2017 H 0.90835 0.56293 0.55372 0.0
H2018 H 0.83389 0.51002 0.56251 0.0
H2019 H 0.82707 0.49007 0.5457 0.0
H2020 H 0.85204 0.5625 0.56817 0.0
H2021 H 0.91238 0.52508 0.58041 0.0
H2022 H 0.91851 0.54228 0.5685 0.0
H2023 H 0.89198 0.51211 0.56944 0.0
C2024 C 0.88656 0.53589 0.54217 0.0
C2025 C 0.86385 0.51481 0.5399 0.0
C2026 C 0.8905 0.54726 0.55191 0.0
C2027 C 0.87166 0.53777 0.55937 0.0
C2028 C 0.84865 0.51759 0.55685 0.0
H2029 H 0.80773 0.50336 0.6147 0.0
H2030 H 0.82538 0.51342 0.59736 0.0
C2031 C 0.84481 0.50616 0.54724 0.0
C2032 C 0.8757 0.54706 0.57013 0.0
H2033 H 0.89336 0.53564 0.59356 0.0
C2034 C 0.86186 0.55754 0.57371 0.0
C2035 C 0.88854 0.54056 0.57732 0.0
C2036 C 0.90374 0.52936 0.57381 0.0
C2037 C 0.85864 0.55952 0.58435 0.0
C2038 C 0.86931 0.55055 0.59153 0.0
C2039 C 0.8852 0.54244 0.58799 0.0
C2040 C 0.85993 0.54458 0.60225 0.0
C2041 C 0.84218 0.56927 0.58786 0.0
C2042 C 0.8739 0.55843 0.61077 0.0
C2043 C 0.86378 0.55272 0.62078 0.0
C2044 C 0.8397 0.533 0.62233 0.0
C2045 C 0.82626 0.51874 0.61378 0.0
C2046 C 0.83628 0.52449 0.60385 0.0
H2047 H 0.84077 0.58124 0.58187 0.0
H2048 H 0.82342 0.55355 0.58934 0.0
H2049 H 0.84911 0.57988 0.59518 0.0
H2050 H 0.89229 0.5739 0.60964 0.0
H2051 H 0.87455 0.564 0.62724 0.0
H2052 H 0.52601 0.36794 0.55174 0.0
H2053 H 0.50652 0.3572 0.56872 0.0
H2054 H 0.43924 0.3482 0.55561 0.0
H2055 H 0.45878 0.35897 0.53836 0.0
H2056 H 0.48275 0.38508 0.5784 0.0
H2057 H 0.42203 0.28354 0.5739 0.0
H2058 H 0.4494 0.29973 0.56604 0.0
H2059 H 0.42391 0.30461 0.56391 0.0
C2060 C 0.50701 0.36352 0.5524 0.0
C2061 C 0.49395 0.3644 0.54372 0.0
C2062 C 0.49592 0.35743 0.56212 0.0
C2063 C 0.47154 0.35205 0.56339 0.0
C2064 C 0.45809 0.35228 0.55474 0.0
H2065 H 0.42563 0.30156 0.62781 0.0
H2066 H 0.41987 0.31632 0.61089 0.0
C2067 C 0.46925 0.35838 0.54492 0.0
C2068 C 0.4611 0.34695 0.57396 0.0
H2069 H 0.43213 0.29916 0.59094 0.0
C2070 C 0.47095 0.36639 0.58113 0.0
C2071 C 0.44558 0.32261 0.57746 0.0
C2072 C 0.43448 0.30128 0.56997 0.0
C2073 C 0.46763 0.36181 0.59181 0.0
C2074 C 0.45437 0.33722 0.59535 0.0
C2075 C 0.44232 0.31801 0.58817 0.0
C2076 C 0.45766 0.33083 0.60603 0.0
C2077 C 0.47996 0.38312 0.59926 0.0
C2078 C 0.48076 0.33426 0.60884 0.0
C2079 C 0.48395 0.32557 0.61831 0.0
C2080 C 0.46416 0.31351 0.62522 0.0
C2081 C 0.44122 0.31098 0.62263 0.0
C2082 C 0.43789 0.31932 0.613 0.0
H2083 H 0.48266 0.40045 0.5957 0.0
H2084 H 0.46898 0.37941 0.60648 0.0
H2085 H 0.49834 0.3859 0.60137 0.0
H2086 H 0.49615 0.3428 0.6035 0.0
H2087 H 0.50182 0.3278 0.62009 0.0
H2088 H 0.61352 0.14533 0.55186 0.0
H2089 H 0.63096 0.1422 0.56822 0.0
H2090 H 0.66079 0.10124 0.55325 0.0
H2091 H 0.64352 0.10468 0.53659 0.0
H2092 H 0.62281 0.0998 0.57923 0.0
H2093 H 0.72094 0.15919 0.56745 0.0
H2094 H 0.69612 0.15812 0.55996 0.0
H2095 H 0.70145 0.13254 0.55972 0.0
C2096 C 0.62378 0.13564 0.55199 0.0
C2097 C 0.62728 0.12536 0.54292 0.0
C2098 C 0.63363 0.13375 0.56138 0.0
C2099 C 0.64719 0.12154 0.56194 0.0
C2100 C 0.65055 0.11093 0.55294 0.0
H2101 H 0.6934 0.12876 0.62759 0.0
H2102 H 0.67864 0.10876 0.61062 0.0
C2103 C 0.64067 0.11288 0.54346 0.0
C2104 C 0.6583 0.12115 0.57202 0.0
H2105 H 0.71264 0.15163 0.58516 0.0
C2106 C 0.64252 0.11055 0.58054 0.0
C2107 C 0.684 0.13513 0.57364 0.0
C2108 C 0.70174 0.14703 0.56476 0.0
C2109 C 0.65154 0.11547 0.59074 0.0
C2110 C 0.67707 0.13106 0.59239 0.0
C2111 C 0.69306 0.13973 0.58383 0.0
C2112 C 0.68687 0.14241 0.60263 0.0
C2113 C 0.63352 0.10576 0.59964 0.0
C2114 C 0.69666 0.16788 0.60369 0.0
C2115 C 0.70515 0.17925 0.61326 0.0
C2116 C 0.704 0.16539 0.62202 0.0
C2117 C 0.69435 0.13985 0.62098 0.0
C2118 C 0.6859 0.12842 0.61131 0.0
H2119 H 0.61408 0.09608 0.59696 0.0
H2120 H 0.63662 0.09259 0.60424 0.0
H2121 H 0.63637 0.12107 0.60485 0.0
H2122 H 0.69744 0.179 0.59711 0.0
H2123 H 0.7125 0.19896 0.61378 0.0
H2124 H 0.48867 0.12215 0.03551 0.0
H2125 H 0.46731 0.1109 0.05231 0.0
H2126 H 0.51073 0.18631 0.06246 0.0
H2127 H 0.53216 0.19755 0.04587 0.0
H2128 H 0.49458 0.11792 0.07089 0.0
H2129 H 0.44107 0.1659 0.0731 0.0
H2130 H 0.4499 0.15827 0.06091 0.0
H2131 H 0.47125 0.18558 0.0679 0.0
C2132 C 0.49312 0.13641 0.04123 0.0
C2133 C 0.51216 0.1607 0.03943 0.0
C2134 C 0.48094 0.12995 0.05081 0.0
C2135 C 0.48725 0.14783 0.05856 0.0
C2136 C 0.50524 0.17233 0.05651 0.0
H2137 H 0.53257 0.18424 0.11654 0.0
H2138 H 0.52151 0.16501 0.09948 0.0
C2139 C 0.51763 0.1787 0.04706 0.0
C2140 C 0.47821 0.14091 0.0693 0.0
H2141 H 0.45867 0.16191 0.08944 0.0
C2142 C 0.48591 0.12679 0.07493 0.0
C2143 C 0.46652 0.15208 0.07452 0.0
C2144 C 0.45647 0.16609 0.06876 0.0
C2145 C 0.48491 0.12608 0.08579 0.0
C2146 C 0.47618 0.13996 0.09107 0.0
C2147 C 0.4657 0.15154 0.08539 0.0
C2148 C 0.48216 0.14684 0.10209 0.0
C2149 C 0.49475 0.11188 0.09155 0.0
C2150 C 0.46369 0.14272 0.10928 0.0
C2151 C 0.47 0.15366 0.11909 0.0
C2152 C 0.49488 0.16932 0.12174 0.0
C2153 C 0.51328 0.17234 0.11471 0.0
C2154 C 0.50697 0.16116 0.10499 0.0
H2155 H 0.49228 0.09582 0.08694 0.0
H2156 H 0.51478 0.12404 0.09291 0.0
H2157 H 0.4855 0.10528 0.09917 0.0
H2158 H 0.44445 0.13196 0.10713 0.0
H2159 H 0.45541 0.15114 0.12433 0.0
H2160 H 0.83694 0.40898 0.05653 0.0
H2161 H 0.83474 0.39086 0.07353 0.0
H2162 H 0.83503 0.32903 0.05893 0.0
H2163 H 0.83843 0.34776 0.04189 0.0
H2164 H 0.7962 0.34985 0.07896 0.0
H2165 H 0.87763 0.33826 0.08368 0.0
H2166 H 0.87596 0.3578 0.07381 0.0
H2167 H 0.86125 0.32503 0.07186 0.0
C2168 C 0.83715 0.39182 0.05697 0.0
C2169 C 0.83763 0.37965 0.04792 0.0
C2170 C 0.83595 0.3815 0.06668 0.0
C2171 C 0.83477 0.35859 0.06753 0.0
C2172 C 0.83647 0.34695 0.05851 0.0
H2173 H 0.75141 0.26068 0.11741 0.0
H2174 H 0.76897 0.27775 0.10044 0.0
C2175 C 0.83821 0.35758 0.04877 0.0
C2176 C 0.82809 0.3455 0.07763 0.0
H2177 H 0.84394 0.31532 0.0954 0.0
C2178 C 0.80683 0.34252 0.08257 0.0
C2179 C 0.84194 0.33595 0.08237 0.0
C2180 C 0.8656 0.33962 0.07771 0.0
C2181 C 0.79895 0.33029 0.09207 0.0
C2182 C 0.81215 0.31982 0.09661 0.0
C2183 C 0.83364 0.323 0.09179 0.0
C2184 C 0.8039 0.30614 0.10652 0.0
C2185 C 0.77675 0.32912 0.09723 0.0
C2186 C 0.8184 0.31535 0.11547 0.0
C2187 C 0.80855 0.30532 0.12519 0.0
C2188 C 0.78398 0.28616 0.12605 0.0
C2189 C 0.77023 0.27577 0.11699 0.0
C2190 C 0.78023 0.28548 0.10729 0.0
H2191 H 0.77301 0.34355 0.09423 0.0
H2192 H 0.76028 0.31093 0.09564 0.0
H2193 H 0.77928 0.33139 0.10576 0.0
H2194 H 0.83678 0.33121 0.11502 0.0
H2195 H 0.81961 0.3136 0.13205 0.0
H2196 H 0.73567 0.49089 0.11355 0.0
H2197 H 0.71901 0.49266 0.09676 0.0
H2198 H 0.67876 0.52418 0.11094 0.0
H2199 H 0.69529 0.52236 0.12793 0.0
H2200 H 0.64975 0.48365 0.09884 0.0
H2201 H 0.73266 0.54871 0.07694 0.0
H2202 H 0.73739 0.5261 0.08344 0.0
H2203 H 0.73205 0.54723 0.09094 0.0
C2204 C 0.72351 0.49848 0.11313 0.0
C2205 C 0.71669 0.50631 0.12212 0.0
C2206 C 0.71421 0.49974 0.10348 0.0
C2207 C 0.69801 0.50896 0.10258 0.0
C2208 C 0.69147 0.51726 0.11148 0.0
H2209 H 0.64322 0.49607 0.03856 0.0
H2210 H 0.65899 0.51519 0.0555 0.0
C2211 C 0.70088 0.51612 0.12117 0.0
C2212 C 0.68596 0.50709 0.0925 0.0
H2213 H 0.69887 0.51713 0.06668 0.0
C2214 C 0.66038 0.4915 0.09183 0.0
C2215 C 0.69975 0.51772 0.08338 0.0
C2216 C 0.72696 0.5361 0.08372 0.0
C2217 C 0.64862 0.4844 0.08218 0.0
C2218 C 0.66289 0.49286 0.07303 0.0
C2219 C 0.68805 0.5103 0.07372 0.0
C2220 C 0.65272 0.48153 0.06286 0.0
C2221 C 0.62117 0.46707 0.08184 0.0
C2222 C 0.64445 0.45642 0.06138 0.0
C2223 C 0.63563 0.44548 0.05175 0.0
C2224 C 0.63495 0.45946 0.04336 0.0
C2225 C 0.64344 0.48474 0.04485 0.0
C2226 C 0.65241 0.49571 0.05452 0.0
H2227 H 0.61207 0.46878 0.08894 0.0
H2228 H 0.61279 0.47063 0.07494 0.0
H2229 H 0.61745 0.44782 0.08142 0.0
H2230 H 0.64509 0.4453 0.06768 0.0
H2231 H 0.62931 0.42602 0.0509 0.0
H2232 H 0.4894 0.82192 0.95646 0.0
H2233 H 0.5095 0.82834 0.93964 0.0
H2234 H 0.55528 0.90571 0.9464 0.0
H2235 H 0.53542 0.89925 0.96347 0.0
H2236 H 0.5245 0.89199 0.92739 0.0
H2237 H 0.58052 0.84638 0.92991 0.0
H2238 H 0.5508 0.82892 0.9359 0.0
H2239 H 0.57279 0.85848 0.94114 0.0
C2240 C 0.50415 0.84018 0.95448 0.0
C2241 C 0.51084 0.8601 0.96123 0.0
C2242 C 0.51572 0.84382 0.9449 0.0
C2243 C 0.53399 0.86746 0.94183 0.0
C2244 C 0.54138 0.8873 0.9487 0.0
H2245 H 0.56448 0.86869 0.87439 0.0
H2246 H 0.57274 0.88736 0.89182 0.0
C2247 C 0.53009 0.88357 0.95842 0.0
C2248 C 0.54258 0.87132 0.93097 0.0
H2249 H 0.5638 0.84665 0.91295 0.0
C2250 C 0.53397 0.88294 0.92422 0.0
C2251 C 0.55495 0.85955 0.92689 0.0
C2252 C 0.56552 0.84782 0.93385 0.0
C2253 C 0.5351 0.88076 0.91343 0.0
C2254 C 0.54519 0.8668 0.90939 0.0
C2255 C 0.55602 0.85733 0.91611 0.0
C2256 C 0.53996 0.8574 0.89868 0.0
C2257 C 0.52355 0.89141 0.90642 0.0
C2258 C 0.51871 0.8347 0.89685 0.0
C2259 C 0.51408 0.82402 0.88705 0.0
C2260 C 0.53056 0.83593 0.87886 0.0
C2261 C 0.55145 0.85918 0.88058 0.0
C2262 C 0.55622 0.86981 0.89049 0.0
H2263 H 0.51985 0.90478 0.91055 0.0
H2264 H 0.53574 0.90072 0.89968 0.0
H2265 H 0.50587 0.87626 0.90337 0.0
H2266 H 0.50597 0.82493 0.90311 0.0
H2267 H 0.49777 0.80618 0.88596 0.0
H2268 H 0.16583 0.6583 0.9502 0.0
H2269 H 0.15825 0.67076 0.93332 0.0
H2270 H 0.08184 0.64161 0.94129 0.0
H2271 H 0.0895 0.62953 0.95845 0.0
H2272 H 0.09496 0.62233 0.92206 0.0
H2273 H 0.13916 0.72408 0.92367 0.0
H2274 H 0.15658 0.71196 0.92985 0.0
H2275 H 0.12709 0.70471 0.93504 0.0
C2276 C 0.14754 0.65503 0.94847 0.0
C2277 C 0.12823 0.6429 0.9556 0.0
C2278 C 0.14326 0.66227 0.93884 0.0
C2279 C 0.11955 0.65725 0.93612 0.0
C2280 C 0.10031 0.64585 0.94333 0.0
H2281 H 0.12086 0.6934 0.8696 0.0
H2282 H 0.10174 0.68235 0.88693 0.0
C2283 C 0.10472 0.63901 0.9531 0.0
C2284 C 0.11489 0.66126 0.92527 0.0
H2285 H 0.13745 0.70626 0.90683 0.0
C2286 C 0.1034 0.64066 0.91873 0.0
C2287 C 0.1259 0.68517 0.92098 0.0
C2288 C 0.13771 0.70779 0.92776 0.0
C2289 C 0.10492 0.64344 0.90791 0.0
C2290 C 0.11808 0.66732 0.90363 0.0
C2291 C 0.12736 0.68794 0.91017 0.0
C2292 C 0.12695 0.67117 0.89283 0.0
C2293 C 0.09424 0.62087 0.90111 0.0
C2294 C 0.14717 0.66826 0.89049 0.0
C2295 C 0.15827 0.67489 0.88077 0.0
C2296 C 0.14914 0.68425 0.87317 0.0
C2297 C 0.12812 0.68607 0.87533 0.0
C2298 C 0.11724 0.67984 0.88519 0.0
H2299 H 0.08006 0.60429 0.90528 0.0
H2300 H 0.08592 0.62373 0.89402 0.0
H2301 H 0.1092 0.61739 0.89865 0.0
H2302 H 0.15498 0.66175 0.89634 0.0
H2303 H 0.17438 0.67322 0.87931 0.0
H2304 H 0.31215 0.43929 0.86864 0.0
H2305 H 0.32698 0.43461 0.88572 0.0
H2306 H 0.30032 0.47959 0.8995 0.0
H2307 H 0.28569 0.48436 0.88268 0.0
H2308 H 0.36147 0.47362 0.89882 0.0
H2309 H 0.272 0.41843 0.9185 0.0
H2310 H 0.27507 0.42009 0.90454 0.0
H2311 H 0.27331 0.44394 0.91161 0.0
C2312 C 0.30937 0.44802 0.87535 0.0
C2313 C 0.29772 0.46213 0.87435 0.0
C2314 C 0.31777 0.44528 0.88507 0.0
C2315 C 0.31421 0.45629 0.89389 0.0
C2316 C 0.30268 0.47042 0.89284 0.0
H2317 H 0.38191 0.53337 0.94569 0.0
H2318 H 0.36811 0.51392 0.92883 0.0
C2319 C 0.29452 0.47331 0.88319 0.0
C2320 C 0.32389 0.45491 0.90417 0.0
H2321 H 0.30652 0.44576 0.92958 0.0
C2322 C 0.34947 0.46686 0.90554 0.0
C2323 C 0.30824 0.44561 0.91291 0.0
C2324 C 0.28061 0.43105 0.91181 0.0
C2325 C 0.35981 0.47209 0.91551 0.0
C2326 C 0.34411 0.46552 0.92425 0.0
C2327 C 0.31856 0.45118 0.92287 0.0
C2328 C 0.35353 0.47671 0.93455 0.0
C2329 C 0.38746 0.4858 0.91659 0.0
C2330 C 0.34923 0.46218 0.94344 0.0
C2331 C 0.35703 0.47333 0.95319 0.0
C2332 C 0.36891 0.49912 0.95415 0.0
C2333 C 0.37292 0.51348 0.94522 0.0
C2334 C 0.36527 0.50239 0.93554 0.0
H2335 H 0.39623 0.48157 0.91002 0.0
H2336 H 0.39432 0.50591 0.91647 0.0
H2337 H 0.39329 0.48116 0.92398 0.0
H2338 H 0.33984 0.44229 0.94284 0.0
H2339 H 0.35365 0.46182 0.95995 0.0
H2340 H 0.1404 0.49809 0.46282 0.0
H2341 H 0.13444 0.47703 0.44609 0.0
H2342 H 0.18715 0.54581 0.43195 0.0
H2343 H 0.19319 0.56691 0.4484 0.0
H2344 H 0.13991 0.51524 0.42068 0.0
H2345 H 0.18965 0.46594 0.43228 0.0
H2346 H 0.16528 0.46432 0.44027 0.0
H2347 H 0.19406 0.4926 0.43944 0.0
C2348 C 0.15065 0.50872 0.45613 0.0
C2349 C 0.16739 0.5342 0.45698 0.0
C2350 C 0.1472 0.49665 0.44661 0.0
C2351 C 0.16037 0.50993 0.43784 0.0
C2352 C 0.17672 0.5353 0.43865 0.0
H2353 H 0.23823 0.52616 0.38704 0.0
H2354 H 0.21674 0.51887 0.40349 0.0
C2355 C 0.18023 0.54731 0.44809 0.0
C2356 C 0.15848 0.49794 0.42776 0.0
H2357 H 0.18659 0.47179 0.41447 0.0
C2358 C 0.14929 0.50492 0.41929 0.0
C2359 C 0.17066 0.48442 0.42606 0.0
C2360 C 0.18054 0.47628 0.43495 0.0
C2361 C 0.15424 0.50099 0.40908 0.0
C2362 C 0.16866 0.48976 0.40739 0.0
C2363 C 0.17561 0.48048 0.41585 0.0
C2364 C 0.18105 0.49234 0.39736 0.0
C2365 C 0.14615 0.51101 0.40022 0.0
C2366 C 0.16803 0.47974 0.38845 0.0
C2367 C 0.1803 0.48395 0.37894 0.0
C2368 C 0.20575 0.50088 0.37823 0.0
C2369 C 0.21864 0.51314 0.38725 0.0
C2370 C 0.20642 0.50888 0.39669 0.0
H2371 H 0.13578 0.52007 0.40292 0.0
H2372 H 0.16245 0.52459 0.39574 0.0
H2373 H 0.13418 0.49579 0.39489 0.0
H2374 H 0.14843 0.46681 0.38885 0.0
H2375 H 0.16984 0.47402 0.37217 0.0
H2376 H 0.51815 0.69151 0.37156 0.0
H2377 H 0.51775 0.67222 0.38816 0.0
H2378 H 0.46573 0.69176 0.40033 0.0
H2379 H 0.46603 0.71111 0.38393 0.0
H2380 H 0.50714 0.70274 0.41362 0.0
H2381 H 0.45839 0.60616 0.3989 0.0
H2382 H 0.48567 0.62855 0.3922 0.0
H2383 H 0.4584 0.63103 0.39182 0.0
C2384 C 0.50663 0.69172 0.37777 0.0
C2385 C 0.49202 0.70278 0.37637 0.0
C2386 C 0.50641 0.68064 0.38723 0.0
C2387 C 0.49158 0.68046 0.39541 0.0
C2388 C 0.4773 0.69175 0.39409 0.0
H2389 H 0.416 0.60203 0.44768 0.0
H2390 H 0.43283 0.61933 0.43072 0.0
C2391 C 0.47746 0.70275 0.38468 0.0
C2392 C 0.49033 0.6683 0.40539 0.0
H2393 H 0.46398 0.61173 0.41688 0.0
C2394 C 0.49817 0.68286 0.41436 0.0
C2395 C 0.47857 0.64238 0.40625 0.0
C2396 C 0.46961 0.62597 0.39681 0.0
C2397 C 0.4933 0.67214 0.42425 0.0
C2398 C 0.48049 0.64617 0.42513 0.0
C2399 C 0.47386 0.63163 0.41614 0.0
C2400 C 0.47085 0.63389 0.43522 0.0
C2401 C 0.50048 0.68861 0.43367 0.0
C2402 C 0.48668 0.63593 0.44332 0.0
C2403 C 0.47712 0.62614 0.4531 0.0
C2404 C 0.45154 0.61409 0.4549 0.0
C2405 C 0.43577 0.61131 0.44662 0.0
C2406 C 0.44534 0.6211 0.43689 0.0
H2407 H 0.50714 0.70815 0.43158 0.0
H2408 H 0.48459 0.6823 0.43903 0.0
H2409 H 0.51544 0.68773 0.43789 0.0
H2410 H 0.50642 0.64546 0.44213 0.0
H2411 H 0.4898 0.62839 0.45927 0.0
H2412 H 0.35723 0.85579 0.4588 0.0
H2413 H 0.34206 0.86276 0.44231 0.0
H2414 H 0.35846 0.81126 0.42722 0.0
H2415 H 0.37351 0.8041 0.44347 0.0
H2416 H 0.37575 0.86119 0.41699 0.0
H2417 H 0.27621 0.80723 0.42751 0.0
H2418 H 0.29832 0.83017 0.4362 0.0
H2419 H 0.29836 0.80188 0.43424 0.0
C2420 C 0.35756 0.84591 0.45197 0.0
C2421 C 0.36647 0.82925 0.45249 0.0
C2422 C 0.34896 0.84999 0.44258 0.0
C2423 C 0.34926 0.83755 0.43361 0.0
C2424 C 0.35825 0.82111 0.43408 0.0
H2425 H 0.29542 0.76616 0.38142 0.0
H2426 H 0.30813 0.78625 0.39819 0.0
C2427 C 0.36671 0.81695 0.44341 0.0
C2428 C 0.33953 0.84048 0.42363 0.0
H2429 H 0.28618 0.81272 0.40976 0.0
C2430 C 0.35614 0.85145 0.4154 0.0
C2431 C 0.31395 0.82782 0.42167 0.0
C2432 C 0.29551 0.81606 0.43033 0.0
C2433 C 0.34787 0.84786 0.40511 0.0
C2434 C 0.32244 0.8329 0.4031 0.0
C2435 C 0.30569 0.82416 0.41138 0.0
C2436 C 0.31369 0.82138 0.39285 0.0
C2437 C 0.36644 0.85789 0.39642 0.0
C2438 C 0.31264 0.8346 0.38429 0.0
C2439 C 0.30536 0.82313 0.37458 0.0
C2440 C 0.29917 0.79833 0.37335 0.0
C2441 C 0.30013 0.78526 0.38203 0.0
C2442 C 0.30727 0.79667 0.39166 0.0
H2443 H 0.38555 0.86956 0.39931 0.0
H2444 H 0.36553 0.84243 0.39186 0.0
H2445 H 0.36202 0.86907 0.3911 0.0
H2446 H 0.31754 0.85372 0.3851 0.0
H2447 H 0.30471 0.83369 0.36807 0.0
H2448 H 0.25139 0.12685 0.1812 0.0
H2449 H 0.2824 0.12424 0.17081 0.0
H2450 H 0.25762 0.14547 0.14355 0.0
H2451 H 0.2265 0.14853 0.15399 0.0
H2452 H 0.2798 0.09719 0.15237 0.0
H2453 H 0.33048 0.19922 0.14683 0.0
H2454 H 0.30605 0.1845 0.15622 0.0
H2455 H 0.29895 0.18206 0.14264 0.0
C2456 C 0.2524 0.13088 0.17299 0.0
C2457 C 0.23679 0.13828 0.16843 0.0
C2458 C 0.26999 0.12915 0.16704 0.0
C2459 C 0.27232 0.13478 0.15645 0.0
C2460 C 0.25617 0.14127 0.15175 0.0
H2461 H 0.41686 0.17945 0.13158 0.0
H2462 H 0.37259 0.16337 0.13001 0.0
C2463 C 0.23851 0.14307 0.15772 0.0
C2464 C 0.29337 0.13612 0.15078 0.0
H2465 H 0.35139 0.17825 0.14315 0.0
C2466 C 0.29531 0.1148 0.15008 0.0
C2467 C 0.3134 0.15908 0.14773 0.0
C2468 C 0.31235 0.1826 0.14841 0.0
C2469 C 0.31746 0.11613 0.14711 0.0
C2470 C 0.33817 0.13942 0.145 0.0
C2471 C 0.33551 0.16038 0.14482 0.0
C2472 C 0.36348 0.14342 0.14453 0.0
C2473 C 0.31868 0.09272 0.14665 0.0
C2474 C 0.37297 0.13679 0.15304 0.0
C2475 C 0.39825 0.14578 0.15391 0.0
C2476 C 0.4144 0.16195 0.14639 0.0
C2477 C 0.40477 0.16727 0.13756 0.0
C2478 C 0.37949 0.15798 0.13662 0.0
H2479 H 0.30065 0.07691 0.14427 0.0
H2480 H 0.33307 0.09436 0.14116 0.0
H2481 H 0.32299 0.08855 0.15448 0.0
H2482 H 0.3611 0.12613 0.15939 0.0
H2483 H 0.40525 0.14144 0.16079 0.0
H2484 H 0.84162 0.08859 0.15904 0.0
H2485 H 0.84422 0.12693 0.153 0.0
H2486 H 0.9111 0.16909 0.17058 0.0
H2487 H 0.90806 0.13096 0.17688 0.0
H2488 H 0.87702 0.17942 0.17625 0.0
H2489 H 0.88316 0.18396 0.13357 0.0
H2490 H 0.85883 0.15451 0.13777 0.0
H2491 H 0.89025 0.16393 0.14107 0.0
C2492 C 0.8572 0.10607 0.16135 0.0
C2493 C 0.87439 0.10695 0.16854 0.0
C2494 C 0.85883 0.12798 0.15783 0.0
C2495 C 0.87798 0.15091 0.16129 0.0
C2496 C 0.89622 0.15164 0.16781 0.0
H2497 H 0.85228 0.27763 0.16421 0.0
H2498 H 0.87839 0.25857 0.16368 0.0
C2499 C 0.89437 0.12986 0.17144 0.0
C2500 C 0.87638 0.17349 0.15976 0.0
H2501 H 0.86356 0.20508 0.14165 0.0
C2502 C 0.8748 0.18555 0.16866 0.0
C2503 C 0.8737 0.18156 0.14988 0.0
C2504 C 0.87685 0.17044 0.14004 0.0
C2505 C 0.86827 0.20385 0.16801 0.0
C2506 C 0.86354 0.21049 0.15815 0.0
C2507 C 0.86715 0.1999 0.1492 0.0
C2508 C 0.85003 0.22411 0.15717 0.0
C2509 C 0.86439 0.21434 0.1779 0.0
C2510 C 0.8259 0.21137 0.15338 0.0
C2511 C 0.81116 0.2221 0.15366 0.0
C2512 C 0.82021 0.24588 0.15774 0.0
C2513 C 0.84478 0.25918 0.16113 0.0
C2514 C 0.85966 0.24834 0.16082 0.0
H2515 H 0.86625 0.20511 0.18492 0.0
H2516 H 0.87824 0.23424 0.17841 0.0
H2517 H 0.84582 0.21249 0.17796 0.0
H2518 H 0.81807 0.19263 0.15057 0.0
H2519 H 0.79241 0.21141 0.15088 0.0
H2520 H 0.87205 0.73447 0.18014 0.0
H2521 H 0.83436 0.70462 0.17153 0.0
H2522 H 0.86303 0.74102 0.14222 0.0
H2523 H 0.90146 0.77111 0.15086 0.0
H2524 H 0.80031 0.71255 0.15969 0.0
H2525 H 0.844 0.66892 0.13678 0.0
H2526 H 0.86008 0.68934 0.14743 0.0
H2527 H 0.85561 0.70149 0.13555 0.0
C2528 C 0.87048 0.73613 0.17184 0.0
C2529 C 0.88974 0.755 0.16615 0.0
C2530 C 0.84882 0.71918 0.16695 0.0
C2531 C 0.84587 0.72073 0.15626 0.0
C2532 C 0.86505 0.7395 0.15048 0.0
H2533 H 0.73841 0.57724 0.13607 0.0
H2534 H 0.75664 0.6216 0.13331 0.0
C2535 C 0.88698 0.75652 0.1554 0.0
C2536 C 0.82302 0.70141 0.1514 0.0
H2537 H 0.80182 0.646 0.13957 0.0
C2538 C 0.80046 0.69826 0.155 0.0
C2539 C 0.82325 0.68309 0.14512 0.0
C2540 C 0.84695 0.68566 0.14098 0.0
C2541 C 0.77843 0.67601 0.15346 0.0
C2542 C 0.77919 0.65651 0.14833 0.0
C2543 C 0.80123 0.66089 0.1436 0.0
C2544 C 0.75966 0.63047 0.14965 0.0
C2545 C 0.7549 0.67313 0.15791 0.0
C2546 C 0.75373 0.62058 0.15974 0.0
C2547 C 0.74297 0.59521 0.1613 0.0
C2548 C 0.73831 0.57962 0.1528 0.0
C2549 C 0.74177 0.58912 0.14271 0.0
C2550 C 0.75216 0.61441 0.14113 0.0
H2551 H 0.75467 0.6907 0.15731 0.0
H2552 H 0.73842 0.65838 0.15391 0.0
H2553 H 0.75379 0.66846 0.16627 0.0
H2554 H 0.75984 0.63253 0.16646 0.0
H2555 H 0.74078 0.58817 0.16913 0.0
H2556 H 0.1818 0.42219 0.36653 0.0
H2557 H 0.16028 0.3774 0.36869 0.0
H2558 H 0.13731 0.36838 0.33669 0.0
H2559 H 0.15791 0.41327 0.33465 0.0
H2560 H 0.1036 0.32945 0.35007 0.0
H2561 H 0.20081 0.35076 0.35493 0.0
H2562 H 0.18922 0.36361 0.3643 0.0
H2563 H 0.19347 0.37397 0.35107 0.0
C2564 C 0.17139 0.41055 0.36007 0.0
C2565 C 0.17174 0.42089 0.35037 0.0
C2566 C 0.15916 0.38506 0.36132 0.0
C2567 C 0.14788 0.36969 0.35278 0.0
C2568 C 0.14605 0.38001 0.34337 0.0
H2569 H 0.12317 0.25451 0.3178 0.0
H2570 H 0.12025 0.2849 0.32834 0.0
C2571 C 0.15782 0.40558 0.34219 0.0
C2572 C 0.14225 0.34383 0.35294 0.0
H2573 H 0.17133 0.31022 0.35155 0.0
C2574 C 0.11826 0.32507 0.35064 0.0
C2575 C 0.1614 0.33814 0.35383 0.0
C2576 C 0.18771 0.35761 0.35611 0.0
C2577 C 0.1133 0.30112 0.34842 0.0
C2578 C 0.13294 0.2961 0.34831 0.0
C2579 C 0.15635 0.31419 0.35163 0.0
C2580 C 0.13119 0.27485 0.34261 0.0
C2581 C 0.08736 0.28174 0.34565 0.0
C2582 C 0.13895 0.2594 0.34708 0.0
C2583 C 0.14097 0.242 0.34098 0.0
C2584 C 0.13562 0.2402 0.33032 0.0
C2585 C 0.12754 0.25547 0.32597 0.0
C2586 C 0.12541 0.27261 0.33204 0.0
H2587 H 0.07376 0.28467 0.35003 0.0
H2588 H 0.08422 0.28314 0.33727 0.0
H2589 H 0.08397 0.26289 0.34728 0.0
H2590 H 0.14397 0.26122 0.3552 0.0
H2591 H 0.14714 0.23036 0.34453 0.0
H2592 H 0.58059 0.75747 0.36504 0.0
H2593 H 0.62557 0.78069 0.36603 0.0
H2594 H 0.6299 0.76166 0.33426 0.0
H2595 H 0.58482 0.73745 0.33341 0.0
H2596 H 0.67165 0.77028 0.3471 0.0
H2597 H 0.64762 0.84465 0.34963 0.0
H2598 H 0.63616 0.82225 0.35987 0.0
H2599 H 0.6249 0.81315 0.34687 0.0
C2600 C 0.59123 0.7574 0.35843 0.0
C2601 C 0.57951 0.74612 0.3491 0.0
C2602 C 0.61684 0.77065 0.359 0.0
C2603 C 0.63092 0.77342 0.35013 0.0
C2604 C 0.61927 0.75979 0.34117 0.0
H2605 H 0.75391 0.86945 0.3164 0.0
H2606 H 0.72099 0.83432 0.32536 0.0
C2607 C 0.59358 0.746 0.34068 0.0
C2608 C 0.65648 0.79408 0.34943 0.0
H2609 H 0.68882 0.85666 0.34718 0.0
C2610 C 0.67557 0.78921 0.3473 0.0
C2611 C 0.66147 0.81876 0.3497 0.0
C2612 C 0.6415 0.82515 0.35156 0.0
C2613 C 0.69942 0.80843 0.34503 0.0
C2614 C 0.70398 0.83294 0.34472 0.0
C2615 C 0.68526 0.83785 0.34748 0.0
C2616 C 0.72647 0.85325 0.34001 0.0
C2617 C 0.7193 0.80226 0.34272 0.0
C2618 C 0.74024 0.87581 0.34521 0.0
C2619 C 0.75894 0.8962 0.34002 0.0
C2620 C 0.76393 0.89431 0.32955 0.0
C2621 C 0.75048 0.87154 0.32447 0.0
C2622 C 0.73188 0.85127 0.32963 0.0
H2623 H 0.71599 0.78546 0.34697 0.0
H2624 H 0.71916 0.79848 0.33431 0.0
H2625 H 0.73781 0.81769 0.34482 0.0
H2626 H 0.73605 0.87778 0.35318 0.0
H2627 H 0.76912 0.9135 0.34414 0.0
H2628 H 0.07364 0.84315 0.33976 0.0
H2629 H 0.10891 0.84506 0.34886 0.0
H2630 H 0.15499 0.88061 0.32229 0.0
H2631 H 0.1202 0.87909 0.31327 0.0
H2632 H 0.13102 0.82081 0.34125 0.0
H2633 H 0.20119 0.91892 0.3458 0.0
H2634 H 0.16911 0.90877 0.34338 0.0
H2635 H 0.18941 0.91231 0.33281 0.0
C2636 C 0.09142 0.85179 0.33596 0.0
C2637 C 0.09414 0.8607 0.32577 0.0
C2638 C 0.11155 0.85302 0.34119 0.0
C2639 C 0.13465 0.86339 0.33632 0.0
C2640 C 0.13753 0.87318 0.32631 0.0
H2641 H 0.25648 0.84423 0.33018 0.0
H2642 H 0.2292 0.86181 0.33094 0.0
C2643 C 0.1175 0.87193 0.3211 0.0
C2644 C 0.15456 0.86018 0.34078 0.0
H2645 H 0.21671 0.8902 0.34476 0.0
C2646 C 0.14964 0.83601 0.34231 0.0
C2647 C 0.17883 0.88007 0.34206 0.0
C2648 C 0.18489 0.90648 0.34102 0.0
C2649 C 0.1686 0.83098 0.34432 0.0
C2650 C 0.19311 0.85079 0.3451 0.0
C2651 C 0.19791 0.8751 0.34413 0.0
C2652 C 0.21387 0.84609 0.34594 0.0
C2653 C 0.16238 0.80438 0.34487 0.0
C2654 C 0.21521 0.83272 0.35438 0.0
C2655 C 0.23022 0.82223 0.35383 0.0
C2656 C 0.2446 0.82561 0.34498 0.0
C2657 C 0.24543 0.84134 0.33706 0.0
C2658 C 0.22995 0.85141 0.33751 0.0
H2659 H 0.14348 0.79153 0.34202 0.0
H2660 H 0.1756 0.80143 0.34023 0.0
H2661 H 0.1635 0.79951 0.35305 0.0
H2662 H 0.2033 0.82886 0.36104 0.0
H2663 H 0.22967 0.81048 0.36011 0.0
H2664 H 0.74205 0.83786 0.79817 0.0
H2665 H 0.69702 0.81576 0.79881 0.0
H2666 H 0.69947 0.79923 0.83111 0.0
H2667 H 0.74458 0.82039 0.83035 0.0
H2668 H 0.65542 0.76339 0.82021 0.0
H2669 H 0.67776 0.86065 0.81453 0.0
H2670 H 0.68723 0.84766 0.80436 0.0
H2671 H 0.70123 0.85268 0.81695 0.0
C2672 C 0.73287 0.82856 0.80527 0.0
C2673 C 0.74651 0.83102 0.81426 0.0
C2674 C 0.70722 0.816 0.80563 0.0
C2675 C 0.69507 0.80655 0.81508 0.0
C2676 C 0.7086 0.80653 0.82376 0.0
H2677 H 0.57826 0.78568 0.85205 0.0
H2678 H 0.60986 0.78216 0.84257 0.0
C2679 C 0.73431 0.81862 0.82334 0.0
C2680 C 0.66966 0.80166 0.81651 0.0
H2681 H 0.63733 0.83192 0.8187 0.0
C2682 C 0.65126 0.77822 0.81971 0.0
C2683 C 0.66436 0.82111 0.81583 0.0
C2684 C 0.68366 0.84699 0.81281 0.0
C2685 C 0.62788 0.77395 0.82265 0.0
C2686 C 0.62312 0.79377 0.82253 0.0
C2687 C 0.64103 0.81676 0.81873 0.0
C2688 C 0.60148 0.79242 0.82773 0.0
C2689 C 0.60873 0.74845 0.82609 0.0
C2690 C 0.58658 0.79993 0.82259 0.0
C2691 C 0.56866 0.8024 0.82806 0.0
C2692 C 0.56557 0.79756 0.83875 0.0
C2693 C 0.5802 0.78959 0.84381 0.0
C2694 C 0.59804 0.78716 0.83837 0.0
H2695 H 0.61139 0.73417 0.82215 0.0
H2696 H 0.61059 0.74665 0.83455 0.0
H2697 H 0.58979 0.7448 0.82448 0.0
H2698 H 0.58924 0.80445 0.81441 0.0
H2699 H 0.55754 0.80844 0.82395 0.0
H2700 H 0.20322 0.78513 0.84856 0.0
H2701 H 0.20449 0.82048 0.84012 0.0
H2702 H 0.18071 0.78001 0.81139 0.0
H2703 H 0.17898 0.74409 0.81988 0.0
H2704 H 0.22909 0.84896 0.82221 0.0
H2705 H 0.12676 0.79697 0.81836 0.0
H2706 H 0.14291 0.78598 0.82633 0.0
H2707 H 0.14349 0.78377 0.81246 0.0
C2708 C 0.19838 0.78371 0.84043 0.0
C2709 C 0.19059 0.7617 0.83491 0.0
C2710 C 0.19933 0.80402 0.8356 0.0
C2711 C 0.1925 0.80274 0.82518 0.0
C2712 C 0.18578 0.7812 0.81949 0.0
H2713 H 0.14603 0.90338 0.80257 0.0
H2714 H 0.16199 0.87504 0.80136 0.0
C2715 C 0.18477 0.76074 0.82434 0.0
C2716 C 0.19023 0.82325 0.82078 0.0
H2717 H 0.14697 0.83902 0.8149 0.0
C2718 C 0.21123 0.84681 0.8204 0.0
C2719 C 0.16689 0.82028 0.81842 0.0
C2720 C 0.14365 0.79547 0.81895 0.0
C2721 C 0.20932 0.86771 0.81816 0.0
C2722 C 0.18578 0.86488 0.81645 0.0
C2723 C 0.16503 0.84115 0.81621 0.0
C2724 C 0.18149 0.88603 0.81598 0.0
C2725 C 0.23242 0.89259 0.81787 0.0
C2726 C 0.18789 0.90226 0.82443 0.0
C2727 C 0.17897 0.91869 0.82509 0.0
C2728 C 0.16311 0.91866 0.81741 0.0
C2729 C 0.15798 0.9035 0.80867 0.0
C2730 C 0.16718 0.88741 0.80793 0.0
H2731 H 0.24859 0.89093 0.81554 0.0
H2732 H 0.23056 0.90528 0.81242 0.0
H2733 H 0.23611 0.90083 0.82574 0.0
H2734 H 0.19841 0.90113 0.83085 0.0
H2735 H 0.18312 0.93018 0.83192 0.0
H2736 H 0.24043 0.43421 0.81915 0.0
H2737 H 0.20307 0.40371 0.80999 0.0
H2738 H 0.16424 0.3814 0.83915 0.0
H2739 H 0.20076 0.41159 0.84819 0.0
H2740 H 0.1805 0.35531 0.8126 0.0
H2741 H 0.11265 0.38342 0.82161 0.0
H2742 H 0.14539 0.40436 0.82285 0.0
H2743 H 0.12808 0.38406 0.83338 0.0
C2744 C 0.2238 0.42288 0.82355 0.0
C2745 C 0.22351 0.42522 0.83438 0.0
C2746 C 0.20247 0.4057 0.81831 0.0
C2747 C 0.18062 0.39087 0.82385 0.0
C2748 C 0.1805 0.39331 0.83465 0.0
H2749 H 0.08163 0.25759 0.83845 0.0
H2750 H 0.10183 0.30174 0.83468 0.0
C2751 C 0.20161 0.41035 0.83984 0.0
C2752 C 0.15886 0.37019 0.81886 0.0
H2753 H 0.09647 0.33793 0.82182 0.0
C2754 C 0.16202 0.3518 0.81417 0.0
C2755 C 0.13477 0.3658 0.82077 0.0
C2756 C 0.1301 0.38567 0.82483 0.0
C2757 C 0.14201 0.32801 0.81275 0.0
C2758 C 0.11828 0.32275 0.81601 0.0
C2759 C 0.11472 0.34194 0.81947 0.0
C2760 C 0.09887 0.29708 0.818 0.0
C2761 C 0.14689 0.3081 0.80886 0.0
C2762 C 0.08907 0.27995 0.80989 0.0
C2763 C 0.0777 0.25479 0.81206 0.0
C2764 C 0.07562 0.24665 0.82235 0.0
C2765 C 0.08277 0.26359 0.83049 0.0
C2766 C 0.0943 0.28875 0.82832 0.0
H2767 H 0.16676 0.31506 0.80741 0.0
H2768 H 0.1402 0.29282 0.81456 0.0
H2769 H 0.13681 0.30048 0.80148 0.0
H2770 H 0.09227 0.28606 0.8019 0.0
H2771 H 0.07249 0.24185 0.80569 0.0
H2772 H 0.81754 0.56505 0.67624 0.0
H2773 H 0.81388 0.59821 0.68466 0.0
H2774 H 0.77871 0.60577 0.65726 0.0
H2775 H 0.78194 0.57275 0.64893 0.0
H2776 H 0.83685 0.64417 0.67694 0.0
H2777 H 0.73773 0.61283 0.67967 0.0
H2778 H 0.74917 0.59173 0.67782 0.0
H2779 H 0.74549 0.60757 0.66691 0.0
C2780 C 0.80865 0.57353 0.67211 0.0
C2781 C 0.80028 0.56653 0.6619 0.0
C2782 C 0.80641 0.59231 0.67694 0.0
C2783 C 0.79556 0.60409 0.67166 0.0
C2784 C 0.78645 0.59646 0.6616 0.0
H2785 H 0.81324 0.74252 0.66159 0.0
H2786 H 0.79515 0.69775 0.66345 0.0
C2787 C 0.7887 0.57781 0.65679 0.0
C2788 C 0.79744 0.62699 0.67576 0.0
H2789 H 0.76513 0.65737 0.67798 0.0
C2790 C 0.82112 0.64692 0.67748 0.0
C2791 C 0.77686 0.6305 0.67639 0.0
C2792 C 0.75088 0.6094 0.6752 0.0
C2793 C 0.82504 0.67071 0.67899 0.0
C2794 C 0.80459 0.67451 0.67902 0.0
C2795 C 0.78073 0.65435 0.67792 0.0
C2796 C 0.80832 0.6997 0.67914 0.0
C2797 C 0.85123 0.69181 0.67981 0.0
C2798 C 0.82022 0.71524 0.68758 0.0
C2799 C 0.83093 0.74064 0.68643 0.0
C2800 C 0.82922 0.75069 0.67695 0.0
C2801 C 0.81466 0.73504 0.66897 0.0
C2802 C 0.80434 0.70954 0.67004 0.0
H2803 H 0.86491 0.68618 0.67772 0.0
H2804 H 0.85414 0.70725 0.67466 0.0
H2805 H 0.85494 0.69873 0.6879 0.0
H2806 H 0.82312 0.70789 0.6947 0.0
H2807 H 0.84197 0.75252 0.69271 0.0
H2808 H 0.43109 0.20513 0.64757 0.0
H2809 H 0.39626 0.16587 0.65309 0.0
H2810 H 0.38152 0.20258 0.67802 0.0
H2811 H 0.41705 0.24202 0.67272 0.0
H2812 H 0.37312 0.15459 0.68323 0.0
H2813 H 0.32818 0.15549 0.64613 0.0
H2814 H 0.35729 0.15679 0.64477 0.0
H2815 H 0.3559 0.18198 0.65075 0.0
C2816 C 0.42061 0.20479 0.65431 0.0
C2817 C 0.42636 0.22661 0.65961 0.0
C2818 C 0.40078 0.18236 0.65746 0.0
C2819 C 0.38606 0.18148 0.6658 0.0
C2820 C 0.39267 0.20297 0.67152 0.0
H2821 H 0.24434 0.09953 0.68964 0.0
H2822 H 0.28882 0.12352 0.68757 0.0
C2823 C 0.41283 0.22545 0.66848 0.0
C2824 C 0.36241 0.15883 0.66784 0.0
H2825 H 0.30561 0.12232 0.65732 0.0
C2826 C 0.35839 0.14734 0.67755 0.0
C2827 C 0.34332 0.14942 0.66037 0.0
C2828 C 0.34621 0.16162 0.64995 0.0
C2829 C 0.33546 0.12693 0.68008 0.0
C2830 C 0.31615 0.11814 0.67273 0.0
C2831 C 0.32056 0.12898 0.66288 0.0
C2832 C 0.29035 0.10038 0.67547 0.0
C2833 C 0.33194 0.11526 0.69063 0.0
C2834 C 0.27643 0.07924 0.66941 0.0
C2835 C 0.25084 0.06553 0.67052 0.0
C2836 C 0.23889 0.07307 0.67761 0.0
C2837 C 0.25304 0.09342 0.68405 0.0
C2838 C 0.27853 0.10697 0.68298 0.0
H2839 H 0.34965 0.11806 0.69379 0.0
H2840 H 0.32485 0.124 0.69606 0.0
H2841 H 0.31849 0.0952 0.69034 0.0
H2842 H 0.28525 0.07406 0.66348 0.0
H2843 H 0.24036 0.04986 0.66548 0.0
H2844 H 0.79656 0.20372 0.65106 0.0
H2845 H 0.83025 0.20769 0.66178 0.0
H2846 H 0.78841 0.20095 0.68938 0.0
H2847 H 0.75405 0.19641 0.67859 0.0
H2848 H 0.8584 0.24157 0.67757 0.0
H2849 H 0.80366 0.14488 0.69202 0.0
H2850 H 0.7932 0.15573 0.6813 0.0
H2851 H 0.79178 0.1653 0.69428 0.0
C2852 C 0.79443 0.20303 0.65941 0.0
C2853 C 0.77256 0.19943 0.66399 0.0
C2854 C 0.81381 0.20555 0.66552 0.0
C2855 C 0.81179 0.2046 0.67635 0.0
C2856 C 0.79019 0.20151 0.68102 0.0
H2857 H 0.90528 0.15845 0.7048 0.0
H2858 H 0.88461 0.18269 0.70573 0.0
C2859 C 0.77059 0.1988 0.67486 0.0
C2860 C 0.83179 0.20481 0.68247 0.0
H2861 H 0.84596 0.16496 0.69426 0.0
C2862 C 0.85571 0.22507 0.68148 0.0
C2863 C 0.82815 0.1834 0.68767 0.0
C2864 C 0.80288 0.16099 0.68888 0.0
C2865 C 0.87631 0.22371 0.6848 0.0
C2866 C 0.87278 0.2014 0.68906 0.0
C2867 C 0.84872 0.18208 0.69097 0.0
C2868 C 0.89291 0.1956 0.68988 0.0
C2869 C 0.90161 0.24575 0.6833 0.0
C2870 C 0.90603 0.19632 0.6809 0.0
C2871 C 0.91832 0.18288 0.68044 0.0
C2872 C 0.91706 0.1682 0.68887 0.0
C2873 C 0.90627 0.16959 0.69818 0.0
C2874 C 0.89453 0.18347 0.69873 0.0
H2875 H 0.90116 0.26313 0.68432 0.0
H2876 H 0.91517 0.24564 0.6888 0.0
H2877 H 0.90789 0.24565 0.67526 0.0
H2878 H 0.90467 0.20507 0.67389 0.0
H2879 H 0.9264 0.18186 0.67317 0.0
H2880 H 0.07938 0.52427 0.47755 0.0
H2881 H 0.03492 0.5006 0.47972 0.0
H2882 H 0.04271 0.45173 0.50095 0.0
H2883 H 0.08766 0.47578 0.49895 0.0
H2884 H 0.99618 0.45055 0.47831 0.0
H2885 H 0.0153 0.4872 0.51874 0.0
H2886 H 0.03905 0.49832 0.50899 0.0
H2887 H 0.02824 0.46858 0.51477 0.0
C2888 C 0.07168 0.50825 0.48256 0.0
C2889 C 0.08698 0.50221 0.48829 0.0
C2890 C 0.04623 0.4946 0.48371 0.0
C2891 C 0.03562 0.47471 0.49062 0.0
C2892 C 0.05066 0.46727 0.49568 0.0
H2893 H 0.89585 0.43956 0.51862 0.0
H2894 H 0.9294 0.43301 0.51319 0.0
C2895 C 0.07627 0.48098 0.49453 0.0
C2896 C 0.00961 0.46479 0.4936 0.0
H2897 H 0.9751 0.4699 0.51278 0.0
C2898 C 0.99136 0.45422 0.48592 0.0
C2899 C 0.00347 0.46971 0.50352 0.0
C2900 C 0.02247 0.48169 0.51199 0.0
C2901 C 0.9673 0.44948 0.48777 0.0
C2902 C 0.96166 0.45594 0.49747 0.0
C2903 C 0.97951 0.46502 0.50534 0.0
C2904 C 0.93836 0.45581 0.49947 0.0
C2905 C 0.94838 0.43817 0.47927 0.0
C2906 C 0.9319 0.47042 0.49344 0.0
C2907 C 0.91257 0.47409 0.4965 0.0
C2908 C 0.89981 0.4636 0.50575 0.0
C2909 C 0.90562 0.44816 0.51152 0.0
C2910 C 0.92466 0.44425 0.50839 0.0
H2911 H 0.95256 0.42662 0.47405 0.0
H2912 H 0.92956 0.42668 0.48248 0.0
H2913 H 0.94867 0.45307 0.47451 0.0
H2914 H 0.94262 0.48004 0.48667 0.0
H2915 H 0.90844 0.48607 0.49192 0.0
H2916 H 0.53597 0.45899 0.51723 0.0
H2917 H 0.54146 0.49484 0.50769 0.0
H2918 H 0.536 0.45782 0.47876 0.0
H2919 H 0.52982 0.42126 0.48836 0.0
H2920 H 0.57644 0.52549 0.49298 0.0
H2921 H 0.48135 0.47479 0.4766 0.0
H2922 H 0.49095 0.46188 0.48684 0.0
H2923 H 0.50172 0.46312 0.47383 0.0
C2924 C 0.53589 0.45838 0.50884 0.0
C2925 C 0.53214 0.43722 0.50353 0.0
C2926 C 0.53928 0.47899 0.50339 0.0
C2927 C 0.53909 0.47896 0.49253 0.0
C2928 C 0.53593 0.45807 0.48716 0.0
H2929 H 0.4971 0.57904 0.46761 0.0
H2930 H 0.5214 0.55854 0.46587 0.0
C2931 C 0.5323 0.43722 0.49264 0.0
C2932 C 0.54018 0.50025 0.48712 0.0
H2933 H 0.50205 0.5174 0.47583 0.0
C2934 C 0.56045 0.52379 0.48897 0.0
C2935 C 0.51945 0.49794 0.48179 0.0
C2936 C 0.49704 0.47314 0.47965 0.0
C2937 C 0.55965 0.54515 0.48642 0.0
C2938 C 0.53793 0.54276 0.48203 0.0
C2939 C 0.51872 0.51927 0.47923 0.0
C2940 C 0.5324 0.56314 0.48199 0.0
C2941 C 0.5816 0.56994 0.48889 0.0
C2942 C 0.53204 0.57416 0.49146 0.0
C2943 C 0.51858 0.58635 0.49239 0.0
C2944 C 0.50506 0.58718 0.48392 0.0
C2945 C 0.50752 0.57854 0.47423 0.0
C2946 C 0.52139 0.56687 0.47323 0.0
H2947 H 0.599 0.56953 0.4879 0.0
H2948 H 0.58224 0.58468 0.4839 0.0
H2949 H 0.5806 0.57454 0.49712 0.0
H2950 H 0.53987 0.5711 0.49839 0.0
H2951 H 0.51659 0.59266 0.49996 0.0
H2952 H 0.53497 0.06633 0.51403 0.0
H2953 H 0.50181 0.0362 0.50328 0.0
H2954 H 0.54131 0.07475 0.47573 0.0
H2955 H 0.57516 0.10529 0.48657 0.0
H2956 H 0.47235 0.0433 0.4877 0.0
H2957 H 0.528 0.00325 0.47223 0.0
H2958 H 0.53828 0.02326 0.4834 0.0
H2959 H 0.53908 0.03569 0.47078 0.0
C2960 C 0.53674 0.06848 0.50569 0.0
C2961 C 0.55775 0.08806 0.50113 0.0
C2962 C 0.51764 0.05135 0.49956 0.0
C2963 C 0.51908 0.05338 0.48874 0.0
C2964 C 0.53995 0.07292 0.48408 0.0
H2965 H 0.42409 0.90953 0.46393 0.0
H2966 H 0.44544 0.95424 0.46176 0.0
C2967 C 0.55927 0.09019 0.49026 0.0
C2968 C 0.49916 0.03357 0.48263 0.0
H2969 H 0.48539 0.97867 0.47187 0.0
C2970 C 0.47512 0.02941 0.48391 0.0
C2971 C 0.50292 0.01577 0.47756 0.0
C2972 C 0.5284 0.01951 0.47588 0.0
C2973 C 0.45461 0.00675 0.48122 0.0
C2974 C 0.45839 0.98781 0.47735 0.0
C2975 C 0.48243 0.9931 0.47495 0.0
C2976 C 0.43884 0.96155 0.47749 0.0
C2977 C 0.4292 0.00298 0.48305 0.0
C2978 C 0.42678 0.95071 0.48687 0.0
C2979 C 0.41414 0.92511 0.48805 0.0
C2980 C 0.41404 0.91021 0.47994 0.0
C2981 C 0.42426 0.92085 0.47032 0.0
C2982 C 0.43634 0.94633 0.46906 0.0
H2983 H 0.42888 0.02026 0.4815 0.0
H2984 H 0.41519 0.98808 0.47809 0.0
H2985 H 0.42411 0.9981 0.49131 0.0
H2986 H 0.42892 0.96198 0.49359 0.0
H2987 H 0.40644 0.9172 0.49554 0.0
H2988 H 0.46885 0.0855 0.99467 0.0
H2989 H 0.44483 0.04064 0.9924 0.0
H2990 H 0.48133 0.0312 0.01891 0.0
H2991 H 0.50499 0.07557 0.02124 0.0
H2992 H 0.47041 0.01771 0.98784 0.0
H2993 H 0.41293 0.97253 0.02213 0.0
H2994 H 0.42393 0.00451 0.01904 0.0
H2995 H 0.44326 0.99568 0.026 0.0
C2996 C 0.47112 0.07375 0.00018 0.0
C2997 C 0.48905 0.08392 0.008 0.0
C2998 C 0.45734 0.04819 0.99892 0.0
C2999 C 0.46111 0.03259 0.00556 0.0
C3000 C 0.47766 0.04278 0.01384 0.0
H3001 H 0.47979 0.90994 0.00655 0.0
H3002 H 0.47265 0.94424 0.01043 0.0
C3003 C 0.49148 0.06821 0.01506 0.0
C3004 C 0.45234 0.00671 0.00267 0.0
H3005 H 0.42968 0.94947 0.01322 0.0
C3006 C 0.4608 0.00257 0.99323 0.0
C3007 C 0.43999 0.98709 0.00977 0.0
C3008 C 0.42931 0.99016 0.01975 0.0
C3009 C 0.45918 0.97993 0.99109 0.0
C3010 C 0.44823 0.96075 0.99849 0.0
C3011 C 0.43825 0.96432 0.00762 0.0
C3012 C 0.44899 0.93776 0.99716 0.0
C3013 C 0.47084 0.97737 0.98126 0.0
C3014 C 0.43738 0.92243 0.98865 0.0
C3015 C 0.44181 0.90329 0.98633 0.0
C3016 C 0.45756 0.8989 0.9926 0.0
C3017 C 0.46775 0.91312 0.00156 0.0
C3018 C 0.46358 0.93256 0.0038 0.0
H3019 H 0.48269 0.99541 0.97743 0.0
H3020 H 0.48219 0.96869 0.9829 0.0
H3021 H 0.45616 0.96541 0.97571 0.0
H3022 H 0.42571 0.92592 0.98356 0.0
H3023 H 0.43328 0.89225 0.97949 0.0
H3024 H 0.90991 0.38464 0.00313 0.0
H3025 H 0.95412 0.40256 -0.00028 0.0
H3026 H 0.97014 0.45685 0.02356 0.0
H3027 H 0.92644 0.43904 0.02701 0.0
H3028 H 0.97609 0.44872 0.99237 0.0
H3029 H 0.02927 0.44808 0.02619 0.0
H3030 H 0.9967 0.42651 0.02483 0.0
H3031 H 0.00729 0.45681 0.03013 0.0
C3032 C 0.92298 0.39976 0.0079 0.0
C3033 C 0.91488 0.41081 0.01518 0.0
C3034 C 0.94819 0.40993 0.00598 0.0
C3035 C 0.96545 0.43097 0.01142 0.0
C3036 C 0.9573 0.44035 0.01941 0.0
H3037 H 0.08549 0.57167 0.00417 0.0
H3038 H 0.05287 0.53131 0.01027 0.0
C3039 C 0.93224 0.43035 0.02127 0.0
C3040 C 0.99055 0.44677 0.00727 0.0
H3041 H 0.04964 0.48516 0.01517 0.0
C3042 C 0.99239 0.45612 0.99722 0.0
C3043 C 0.0117 0.45653 0.01364 0.0
C3044 C 0.01114 0.44622 0.02426 0.0
C3045 C 0.01417 0.47651 0.99373 0.0
C3046 C 0.03488 0.4874 0.00038 0.0
C3047 C 0.03364 0.47691 0.01014 0.0
C3048 C 0.05701 0.51091 0.99763 0.0
C3049 C 0.01417 0.48737 0.98326 0.0
C3050 C 0.07052 0.5126 0.98871 0.0
C3051 C 0.08865 0.53554 0.98512 0.0
C3052 C 0.09392 0.55713 0.99051 0.0
C3053 C 0.08159 0.55531 -0.00017 0.0
C3054 C 0.06312 0.5323 0.00334 0.0
H3055 H 0.9953 0.47969 0.98005 0.0
H3056 H 0.02266 0.5077 0.98378 0.0
H3057 H 0.02511 0.4832 0.97771 0.0
H3058 H 0.06639 0.49625 0.98432 0.0
H3059 H 0.09827 0.53639 0.97802 0.0
H3060 H 0.46238 0.54087 0.98321 0.0
H3061 H 0.495 0.54132 0.99355 0.0
H3062 H 0.44927 0.52235 0.02084 0.0
H3063 H 0.416 0.52145 0.01042 0.0
H3064 H 0.52053 0.56791 0.01168 0.0
H3065 H 0.46497 0.46627 0.01793 0.0
H3066 H 0.45607 0.48166 0.00852 0.0
H3067 H 0.45216 0.48489 0.02211 0.0
C3068 C 0.45918 0.53683 0.99142 0.0
C3069 C 0.4365 0.53076 0.99598 0.0
C3070 C 0.47796 0.53733 0.99734 0.0
C3071 C 0.47449 0.5318 0.00793 0.0
C3072 C 0.45216 0.52647 0.01264 0.0
H3073 H 0.56717 0.47886 0.03268 0.0
H3074 H 0.54277 0.49918 0.03449 0.0
C3075 C 0.43321 0.52589 0.00668 0.0
C3076 C 0.49367 0.52946 0.01359 0.0
H3077 H 0.50682 0.4855 0.02145 0.0
C3078 C 0.51752 0.55002 0.01409 0.0
C3079 C 0.48959 0.50615 0.01678 0.0
C3080 C 0.46439 0.48339 0.0163 0.0
C3081 C 0.53772 0.54751 0.017 0.0
C3082 C 0.5339 0.52381 0.01929 0.0
C3083 C 0.50977 0.50369 0.01966 0.0
C3084 C 0.55431 0.51837 0.01981 0.0
C3085 C 0.56299 0.5701 0.01722 0.0
C3086 C 0.56998 0.52351 0.01122 0.0
C3087 C 0.58427 0.51219 0.01025 0.0
C3088 C 0.58253 0.49521 0.01775 0.0
C3089 C 0.56854 0.49173 0.02674 0.0
C3090 C 0.55469 0.50339 0.02781 0.0
H3091 H 0.5619 0.58665 0.01945 0.0
H3092 H 0.5754 0.56791 0.02271 0.0
H3093 H 0.57117 0.57341 0.00934 0.0
H3094 H 0.5696 0.53453 0.00484 0.0
H3095 H 0.59487 0.51502 0.00324 0.0
loop_
_geom_bond_atom_site_label_1
_geom_bond_atom_site_label_2
_geom_bond_distance
_geom_bond_site_symmetry_2
_ccdc_geom_bond_type
Co0 O1 2.216 . S
Co0 O2 2.091 . S
Co0 O4 2.004 . S
Co0 O10 2.021 . S
Co0 O12 2.137 . S
Co0 O13 2.244 . S
O1 Co0 2.216 . S
O1 C8 1.247 . S
O2 Co0 2.091 . S
O2 C8 1.261 . S
C3 O12 1.247 . S
C3 O13 1.272 . S
O4 Co0 2.004 . S
O4 C9 1.259 . S
Co5 O6 2.061 . S
Co5 O11 2.052 . S
Co5 O13 2.135 . S
O6 Co5 2.061 . S
O6 C9 1.235 . S
C7 O10 1.238 . S
C7 O11 1.241 . S
C8 O1 1.247 . S
C8 O2 1.261 . S
C9 O4 1.259 . S
C9 O6 1.235 . S
O10 Co0 2.021 . S
O10 C7 1.238 . S
O11 Co5 2.052 . S
O11 C7 1.241 . S
O12 Co0 2.137 . S
O12 C3 1.247 . S
O13 Co0 2.244 . S
O13 C3 1.272 . S
O13 Co5 2.135 . S
Co14 O15 2.216 . S
Co14 O16 2.091 . S
Co14 O18 2.004 1_545 S
Co14 O24 2.021 . S
Co14 O26 2.137 . S
Co14 O27 2.244 . S
O15 Co14 2.216 . S
O15 C22 1.247 . S
O16 Co14 2.091 . S
O16 C22 1.261 . S
C17 O26 1.247 . S
C17 O27 1.272 . S
O18 Co14 2.004 1_565 S
O18 C23 1.259 . S
Co19 O20 2.061 1_545 S
Co19 O25 2.052 . S
Co19 O27 2.135 . S
O20 Co19 2.061 1_565 S
O20 C23 1.235 . S
C21 O24 1.238 . S
C21 O25 1.241 . S
C22 O15 1.247 . S
C22 O16 1.261 . S
C23 O18 1.259 . S
C23 O20 1.235 . S
O24 Co14 2.021 . S
O24 C21 1.238 . S
O25 Co19 2.052 . S
O25 C21 1.241 . S
O26 Co14 2.137 . S
O26 C17 1.247 . S
O27 Co14 2.244 . S
O27 C17 1.272 . S
O27 Co19 2.135 . S
Co28 O29 2.216 . S
Co28 O30 2.091 . S
Co28 O32 2.004 1_655 S
Co28 O38 2.021 . S
Co28 O40 2.137 . S
Co28 O41 2.244 . S
O29 Co28 2.216 . S
O29 C36 1.247 . S
O30 Co28 2.091 . S
O30 C36 1.261 . S
C31 O40 1.247 . S
C31 O41 1.272 . S
O32 Co28 2.004 1_455 S
O32 C37 1.259 . S
Co33 O34 2.061 1_655 S
Co33 O39 2.052 . S
Co33 O41 2.135 . S
O34 Co33 2.061 1_455 S
O34 C37 1.235 . S
C35 O38 1.238 . S
C35 O39 1.241 . S
C36 O29 1.247 . S
C36 O30 1.261 . S
C37 O32 1.259 . S
C37 O34 1.235 . S
O38 Co28 2.021 . S
O38 C35 1.238 . S
O39 Co33 2.052 . S
O39 C35 1.241 . S
O40 Co28 2.137 . S
O40 C31 1.247 . S
O41 Co28 2.244 . S
O41 C31 1.272 . S
O41 Co33 2.135 . S
Co42 O43 2.216 . S
Co42 O44 2.091 . S
Co42 O46 2.004 . S
Co42 O52 2.021 . S
Co42 O54 2.137 . S
Co42 O55 2.244 . S
O43 Co42 2.216 . S
O43 C50 1.247 . S
O44 Co42 2.091 . S
O44 C50 1.261 . S
C45 O54 1.247 . S
C45 O55 1.272 . S
O46 Co42 2.004 . S
O46 C51 1.259 . S
Co47 O48 2.061 . S
Co47 O53 2.052 . S
Co47 O55 2.135 . S
O48 Co47 2.061 . S
O48 C51 1.235 . S
C49 O52 1.238 . S
C49 O53 1.241 . S
C50 O43 1.247 . S
C50 O44 1.261 . S
C51 O46 1.259 . S
C51 O48 1.235 . S
O52 Co42 2.021 . S
O52 C49 1.238 . S
O53 Co47 2.052 . S
O53 C49 1.241 . S
O54 Co42 2.137 . S
O54 C45 1.247 . S
O55 Co42 2.244 . S
O55 C45 1.272 . S
O55 Co47 2.135 . S
Co56 O57 2.216 . S
Co56 O58 2.091 . S
Co56 O60 2.004 1_565 S
Co56 O66 2.021 . S
Co56 O68 2.137 . S
Co56 O69 2.244 . S
O57 Co56 2.216 . S
O57 C64 1.247 . S
O58 Co56 2.091 . S
O58 C64 1.261 . S
C59 O68 1.247 . S
C59 O69 1.272 . S
O60 Co56 2.004 1_545 S
O60 C65 1.259 . S
Co61 O62 2.061 1_565 S
Co61 O67 2.052 . S
Co61 O69 2.135 . S
O62 Co61 2.061 1_545 S
O62 C65 1.235 . S
C63 O66 1.238 . S
C63 O67 1.241 . S
C64 O57 1.247 . S
C64 O58 1.261 . S
C65 O60 1.259 . S
C65 O62 1.235 . S
O66 Co56 2.021 . S
O66 C63 1.238 . S
O67 Co61 2.052 . S
O67 C63 1.241 . S
O68 Co56 2.137 . S
O68 C59 1.247 . S
O69 Co56 2.244 . S
O69 C59 1.272 . S
O69 Co61 2.135 . S
Co70 O71 2.216 . S
Co70 O72 2.091 . S
Co70 O74 2.004 1_455 S
Co70 O80 2.021 . S
Co70 O82 2.137 . S
Co70 O83 2.244 . S
O71 Co70 2.216 . S
O71 C78 1.247 . S
O72 Co70 2.091 . S
O72 C78 1.261 . S
C73 O82 1.247 . S
C73 O83 1.272 . S
O74 Co70 2.004 1_655 S
O74 C79 1.259 . S
Co75 O76 2.061 1_455 S
Co75 O81 2.052 . S
Co75 O83 2.135 . S
O76 Co75 2.061 1_655 S
O76 C79 1.235 . S
C77 O80 1.238 . S
C77 O81 1.241 . S
C78 O71 1.247 . S
C78 O72 1.261 . S
C79 O74 1.259 . S
C79 O76 1.235 . S
O80 Co70 2.021 . S
O80 C77 1.238 . S
O81 Co75 2.052 . S
O81 C77 1.241 . S
O82 Co70 2.137 . S
O82 C73 1.247 . S
O83 Co70 2.244 . S
O83 C73 1.272 . S
O83 Co75 2.135 . S
Co84 O85 2.216 . S
Co84 O86 2.091 . S
Co84 O88 2.004 . S
Co84 O94 2.021 . S
Co84 O96 2.137 . S
Co84 O97 2.244 . S
O85 Co84 2.216 . S
O85 C92 1.247 . S
O86 Co84 2.091 . S
O86 C92 1.261 . S
C87 O96 1.247 . S
C87 O97 1.272 . S
O88 Co84 2.004 . S
O88 C93 1.259 . S
Co89 O90 2.061 . S
Co89 O95 2.052 . S
Co89 O97 2.135 . S
O90 Co89 2.061 . S
O90 C93 1.235 . S
C91 O94 1.238 . S
C91 O95 1.241 . S
C92 O85 1.247 . S
C92 O86 1.261 . S
C93 O88 1.259 . S
C93 O90 1.235 . S
O94 Co84 2.021 . S
O94 C91 1.238 . S
O95 Co89 2.052 . S
O95 C91 1.241 . S
O96 Co84 2.137 . S
O96 C87 1.247 . S
O97 Co84 2.244 . S
O97 C87 1.272 . S
O97 Co89 2.135 . S
Co98 O99 2.216 . S
Co98 O100 2.091 . S
Co98 O102 2.004 1_565 S
Co98 O108 2.021 . S
Co98 O110 2.137 . S
Co98 O111 2.244 . S
O99 Co98 2.216 . S
O99 C106 1.247 . S
O100 Co98 2.091 . S
O100 C106 1.261 . S
C101 O110 1.247 . S
C101 O111 1.272 . S
O102 Co98 2.004 1_545 S
O102 C107 1.259 . S
Co103 O104 2.061 1_565 S
Co103 O109 2.052 . S
Co103 O111 2.135 . S
O104 Co103 2.061 1_545 S
O104 C107 1.235 . S
C105 O108 1.238 . S
C105 O109 1.241 . S
C106 O99 1.247 . S
C106 O100 1.261 . S
C107 O102 1.259 . S
C107 O104 1.235 . S
O108 Co98 2.021 . S
O108 C105 1.238 . S
O109 Co103 2.052 . S
O109 C105 1.241 . S
O110 Co98 2.137 . S
O110 C101 1.247 . S
O111 Co98 2.244 . S
O111 C101 1.272 . S
O111 Co103 2.135 . S
Co112 O113 2.216 . S
Co112 O114 2.091 . S
Co112 O116 2.004 1_455 S
Co112 O122 2.021 . S
Co112 O124 2.137 . S
Co112 O125 2.244 . S
O113 Co112 2.216 . S
O113 C120 1.247 . S
O114 Co112 2.091 . S
O114 C120 1.261 . S
C115 O124 1.247 . S
C115 O125 1.272 . S
O116 Co112 2.004 1_655 S
O116 C121 1.259 . S
Co117 O118 2.061 1_455 S
Co117 O123 2.052 . S
Co117 O125 2.135 . S
O118 Co117 2.061 1_655 S
O118 C121 1.235 . S
C119 O122 1.238 . S
C119 O123 1.241 . S
C120 O113 1.247 . S
C120 O114 1.261 . S
C121 O116 1.259 . S
C121 O118 1.235 . S
O122 Co112 2.021 . S
O122 C119 1.238 . S
O123 Co117 2.052 . S
O123 C119 1.241 . S
O124 Co112 2.137 . S
O124 C115 1.247 . S
O125 Co112 2.244 . S
O125 C115 1.272 . S
O125 Co117 2.135 . S
Co126 O127 2.216 . S
Co126 O128 2.091 . S
Co126 O130 2.004 . S
Co126 O136 2.021 . S
Co126 O138 2.137 . S
Co126 O139 2.244 . S
O127 Co126 2.216 . S
O127 C134 1.247 . S
O128 Co126 2.091 . S
O128 C134 1.261 . S
C129 O138 1.247 . S
C129 O139 1.272 . S
O130 Co126 2.004 . S
O130 C135 1.259 . S
Co131 O132 2.061 . S
Co131 O137 2.052 . S
Co131 O139 2.135 . S
O132 Co131 2.061 . S
O132 C135 1.235 . S
C133 O136 1.238 . S
C133 O137 1.241 . S
C134 O127 1.247 . S
C134 O128 1.261 . S
C135 O130 1.259 . S
C135 O132 1.235 . S
O136 Co126 2.021 . S
O136 C133 1.238 . S
O137 Co131 2.052 . S
O137 C133 1.241 . S
O138 Co126 2.137 . S
O138 C129 1.247 . S
O139 Co126 2.244 . S
O139 C129 1.272 . S
O139 Co131 2.135 . S
Co140 O141 2.216 . S
Co140 O142 2.091 . S
Co140 O144 2.004 1_545 S
Co140 O150 2.021 . S
Co140 O152 2.137 . S
Co140 O153 2.244 . S
O141 Co140 2.216 . S
O141 C148 1.247 . S
O142 Co140 2.091 . S
O142 C148 1.261 . S
C143 O152 1.247 . S
C143 O153 1.272 . S
O144 Co140 2.004 1_565 S
O144 C149 1.259 . S
Co145 O146 2.061 1_545 S
Co145 O151 2.052 . S
Co145 O153 2.135 . S
O146 Co145 2.061 1_565 S
O146 C149 1.235 . S
C147 O150 1.238 . S
C147 O151 1.241 . S
C148 O141 1.247 . S
C148 O142 1.261 . S
C149 O144 1.259 . S
C149 O146 1.235 . S
O150 Co140 2.021 . S
O150 C147 1.238 . S
O151 Co145 2.052 . S
O151 C147 1.241 . S
O152 Co140 2.137 . S
O152 C143 1.247 . S
O153 Co140 2.244 . S
O153 C143 1.272 . S
O153 Co145 2.135 . S
Co154 O155 2.216 . S
Co154 O156 2.091 . S
Co154 O158 2.004 1_655 S
Co154 O164 2.021 . S
Co154 O166 2.137 . S
Co154 O167 2.244 . S
O155 Co154 2.216 . S
O155 C162 1.247 . S
O156 Co154 2.091 . S
O156 C162 1.261 . S
C157 O166 1.247 . S
C157 O167 1.272 . S
O158 Co154 2.004 1_455 S
O158 C163 1.259 . S
Co159 O160 2.061 1_655 S
Co159 O165 2.052 . S
Co159 O167 2.135 . S
O160 Co159 2.061 1_455 S
O160 C163 1.235 . S
C161 O164 1.238 . S
C161 O165 1.241 . S
C162 O155 1.247 . S
C162 O156 1.261 . S
C163 O158 1.259 . S
C163 O160 1.235 . S
O164 Co154 2.021 . S
O164 C161 1.238 . S
O165 Co159 2.052 . S
O165 C161 1.241 . S
O166 Co154 2.137 . S
O166 C157 1.247 . S
O167 Co154 2.244 . S
O167 C157 1.272 . S
O167 Co159 2.135 . S
Co168 O169 2.216 . S
Co168 O170 2.091 . S
Co168 O172 2.004 . S
Co168 O178 2.021 . S
Co168 O180 2.137 . S
Co168 O181 2.244 . S
O169 Co168 2.216 . S
O169 C176 1.247 . S
O170 Co168 2.091 . S
O170 C176 1.261 . S
C171 O180 1.247 . S
C171 O181 1.272 . S
O172 Co168 2.004 . S
O172 C177 1.259 . S
Co173 O174 2.061 . S
Co173 O179 2.052 . S
Co173 O181 2.135 . S
O174 Co173 2.061 . S
O174 C177 1.235 . S
C175 O178 1.238 . S
C175 O179 1.241 . S
C176 O169 1.247 . S
C176 O170 1.261 . S
C177 O172 1.259 . S
C177 O174 1.235 . S
O178 Co168 2.021 . S
O178 C175 1.238 . S
O179 Co173 2.052 . S
O179 C175 1.241 . S
O180 Co168 2.137 . S
O180 C171 1.247 . S
O181 Co168 2.244 . S
O181 C171 1.272 . S
O181 Co173 2.135 . S
Co182 O183 2.216 . S
Co182 O184 2.091 . S
Co182 O186 2.004 . S
Co182 O192 2.021 . S
Co182 O194 2.137 . S
Co182 O195 2.244 . S
O183 Co182 2.216 . S
O183 C190 1.247 . S
O184 Co182 2.091 . S
O184 C190 1.261 . S
C185 O194 1.247 . S
C185 O195 1.272 . S
O186 Co182 2.004 . S
O186 C191 1.259 . S
Co187 O188 2.061 . S
Co187 O193 2.052 . S
Co187 O195 2.135 . S
O188 Co187 2.061 . S
O188 C191 1.235 . S
C189 O192 1.238 . S
C189 O193 1.241 . S
C190 O183 1.247 . S
C190 O184 1.261 . S
C191 O186 1.259 . S
C191 O188 1.235 . S
O192 Co182 2.021 . S
O192 C189 1.238 . S
O193 Co187 2.052 . S
O193 C189 1.241 . S
O194 Co182 2.137 . S
O194 C185 1.247 . S
O195 Co182 2.244 . S
O195 C185 1.272 . S
O195 Co187 2.135 . S
Co196 O197 2.216 . S
Co196 O198 2.091 . S
Co196 O200 2.004 . S
Co196 O206 2.021 . S
Co196 O208 2.137 . S
Co196 O209 2.244 . S
O197 Co196 2.216 . S
O197 C204 1.247 . S
O198 Co196 2.091 . S
O198 C204 1.261 . S
C199 O208 1.247 . S
C199 O209 1.272 . S
O200 Co196 2.004 . S
O200 C205 1.259 . S
Co201 O202 2.061 . S
Co201 O207 2.052 . S
Co201 O209 2.135 . S
O202 Co201 2.061 . S
O202 C205 1.235 . S
C203 O206 1.238 . S
C203 O207 1.241 . S
C204 O197 1.247 . S
C204 O198 1.261 . S
C205 O200 1.259 . S
C205 O202 1.235 . S
O206 Co196 2.021 . S
O206 C203 1.238 . S
O207 Co201 2.052 . S
O207 C203 1.241 . S
O208 Co196 2.137 . S
O208 C199 1.247 . S
O209 Co196 2.244 . S
O209 C199 1.272 . S
O209 Co201 2.135 . S
Co210 O211 2.216 . S
Co210 O212 2.091 . S
Co210 O214 2.004 . S
Co210 O220 2.021 . S
Co210 O222 2.137 . S
Co210 O223 2.244 . S
O211 Co210 2.216 . S
O211 C218 1.247 . S
O212 Co210 2.091 . S
O212 C218 1.261 . S
C213 O222 1.247 . S
C213 O223 1.272 . S
O214 Co210 2.004 . S
O214 C219 1.259 . S
Co215 O216 2.061 . S
Co215 O221 2.052 . S
Co215 O223 2.135 . S
O216 Co215 2.061 . S
O216 C219 1.235 . S
C217 O220 1.238 . S
C217 O221 1.241 . S
C218 O211 1.247 . S
C218 O212 1.261 . S
C219 O214 1.259 . S
C219 O216 1.235 . S
O220 Co210 2.021 . S
O220 C217 1.238 . S
O221 Co215 2.052 . S
O221 C217 1.241 . S
O222 Co210 2.137 . S
O222 C213 1.247 . S
O223 Co210 2.244 . S
O223 C213 1.272 . S
O223 Co215 2.135 . S
Co224 O225 2.216 . S
Co224 O226 2.091 . S
Co224 O228 2.004 . S
Co224 O234 2.021 . S
Co224 O236 2.137 . S
Co224 O237 2.244 . S
O225 Co224 2.216 . S
O225 C232 1.247 . S
O226 Co224 2.091 . S
O226 C232 1.261 . S
C227 O236 1.247 . S
C227 O237 1.272 . S
O228 Co224 2.004 . S
O228 C233 1.259 . S
Co229 O230 2.061 . S
Co229 O235 2.052 . S
Co229 O237 2.135 . S
O230 Co229 2.061 . S
O230 C233 1.235 . S
C231 O234 1.238 . S
C231 O235 1.241 . S
C232 O225 1.247 . S
C232 O226 1.261 . S
C233 O228 1.259 . S
C233 O230 1.235 . S
O234 Co224 2.021 . S
O234 C231 1.238 . S
O235 Co229 2.052 . S
O235 C231 1.241 . S
O236 Co224 2.137 . S
O236 C227 1.247 . S
O237 Co224 2.244 . S
O237 C227 1.272 . S
O237 Co229 2.135 . S
Co238 O239 2.216 . S
Co238 O240 2.091 . S
Co238 O242 2.004 . S
Co238 O248 2.021 . S
Co238 O250 2.137 . S
Co238 O251 2.244 . S
O239 Co238 2.216 . S
O239 C246 1.247 . S
O240 Co238 2.091 . S
O240 C246 1.261 . S
C241 O250 1.247 . S
C241 O251 1.272 . S
O242 Co238 2.004 . S
O242 C247 1.259 . S
Co243 O244 2.061 . S
Co243 O249 2.052 . S
Co243 O251 2.135 . S
O244 Co243 2.061 . S
O244 C247 1.235 . S
C245 O248 1.238 . S
C245 O249 1.241 . S
C246 O239 1.247 . S
C246 O240 1.261 . S
C247 O242 1.259 . S
C247 O244 1.235 . S
O248 Co238 2.021 . S
O248 C245 1.238 . S
O249 Co243 2.052 . S
O249 C245 1.241 . S
O250 Co238 2.137 . S
O250 C241 1.247 . S
O251 Co238 2.244 . S
O251 C241 1.272 . S
O251 Co243 2.135 . S
Co252 O253 2.216 . S
Co252 O254 2.091 . S
Co252 O256 2.004 . S
Co252 O262 2.021 . S
Co252 O264 2.137 . S
Co252 O265 2.244 . S
O253 Co252 2.216 . S
O253 C260 1.247 . S
O254 Co252 2.091 . S
O254 C260 1.261 . S
C255 O264 1.247 . S
C255 O265 1.272 . S
O256 Co252 2.004 . S
O256 C261 1.259 . S
Co257 O258 2.061 . S
Co257 O263 2.052 . S
Co257 O265 2.135 . S
O258 Co257 2.061 . S
O258 C261 1.235 . S
C259 O262 1.238 . S
C259 O263 1.241 . S
C260 O253 1.247 . S
C260 O254 1.261 . S
C261 O256 1.259 . S
C261 O258 1.235 . S
O262 Co252 2.021 . S
O262 C259 1.238 . S
O263 Co257 2.052 . S
O263 C259 1.241 . S
O264 Co252 2.137 . S
O264 C255 1.247 . S
O265 Co252 2.244 . S
O265 C255 1.272 . S
O265 Co257 2.135 . S
Co266 O267 2.216 . S
Co266 O268 2.091 . S
Co266 O270 2.004 . S
Co266 O276 2.021 . S
Co266 O278 2.137 . S
Co266 O279 2.244 . S
O267 Co266 2.216 . S
O267 C274 1.247 . S
O268 Co266 2.091 . S
O268 C274 1.261 . S
C269 O278 1.247 . S
C269 O279 1.272 . S
O270 Co266 2.004 . S
O270 C275 1.259 . S
Co271 O272 2.061 . S
Co271 O277 2.052 . S
Co271 O279 2.135 . S
O272 Co271 2.061 . S
O272 C275 1.235 . S
C273 O276 1.238 . S
C273 O277 1.241 . S
C274 O267 1.247 . S
C274 O268 1.261 . S
C275 O270 1.259 . S
C275 O272 1.235 . S
O276 Co266 2.021 . S
O276 C273 1.238 . S
O277 Co271 2.052 . S
O277 C273 1.241 . S
O278 Co266 2.137 . S
O278 C269 1.247 . S
O279 Co266 2.244 . S
O279 C269 1.272 . S
O279 Co271 2.135 . S
Co280 O281 2.216 . S
Co280 O282 2.091 . S
Co280 O284 2.004 . S
Co280 O290 2.021 . S
Co280 O292 2.137 . S
Co280 O293 2.244 . S
O281 Co280 2.216 . S
O281 C288 1.247 . S
O282 Co280 2.091 . S
O282 C288 1.261 . S
C283 O292 1.247 . S
C283 O293 1.272 . S
O284 Co280 2.004 . S
O284 C289 1.259 . S
Co285 O286 2.061 . S
Co285 O291 2.052 . S
Co285 O293 2.135 . S
O286 Co285 2.061 . S
O286 C289 1.235 . S
C287 O290 1.238 . S
C287 O291 1.241 . S
C288 O281 1.247 . S
C288 O282 1.261 . S
C289 O284 1.259 . S
C289 O286 1.235 . S
O290 Co280 2.021 . S
O290 C287 1.238 . S
O291 Co285 2.052 . S
O291 C287 1.241 . S
O292 Co280 2.137 . S
O292 C283 1.247 . S
O293 Co280 2.244 . S
O293 C283 1.272 . S
O293 Co285 2.135 . S
Co294 O295 2.216 . S
Co294 O296 2.091 1_554 S
Co294 O298 1.968 1_554 S
Co294 O304 2.021 . S
Co294 O306 2.137 1_554 S
Co294 O307 2.244 . S
O295 Co294 2.216 . S
O295 C302 1.317 . S
O296 Co294 2.091 1_556 S
O296 C302 1.220 1_556 S
C297 O306 1.247 1_554 S
C297 O307 1.272 . S
O298 Co294 1.968 1_556 S
O298 C303 1.218 1_556 S
Co299 O300 2.061 . S
Co299 O305 2.052 . S
Co299 O307 2.135 . S
O300 Co299 2.061 . S
O300 C303 1.235 . S
C301 O304 1.238 . S
C301 O305 1.241 . S
C302 O295 1.317 . S
C302 O296 1.220 1_554 S
C303 O298 1.218 1_554 S
C303 O300 1.235 . S
O304 Co294 2.021 . S
O304 C301 1.238 . S
O305 Co299 2.052 . S
O305 C301 1.241 . S
O306 Co294 2.137 1_556 S
O306 C297 1.247 1_556 S
O307 Co294 2.244 . S
O307 C297 1.272 . S
O307 Co299 2.135 . S
Co308 O309 2.216 . S
Co308 O310 2.091 1_554 S
Co308 O312 1.967 1_554 S
Co308 O318 2.021 . S
Co308 O320 2.137 1_554 S
Co308 O321 2.244 . S
O309 Co308 2.216 . S
O309 C316 1.316 . S
O310 Co308 2.091 1_556 S
O310 C316 1.220 1_556 S
C311 O320 1.247 1_554 S
C311 O321 1.272 . S
O312 Co308 1.967 1_556 S
O312 C317 1.217 1_556 S
Co313 O314 2.061 . S
Co313 O319 2.052 . S
Co313 O321 2.135 . S
O314 Co313 2.061 . S
O314 C317 1.235 . S
C315 O318 1.238 . S
C315 O319 1.241 . S
C316 O309 1.316 . S
C316 O310 1.220 1_554 S
C317 O312 1.217 1_554 S
C317 O314 1.235 . S
O318 Co308 2.021 . S
O318 C315 1.238 . S
O319 Co313 2.052 . S
O319 C315 1.241 . S
O320 Co308 2.137 1_556 S
O320 C311 1.247 1_556 S
O321 Co308 2.244 . S
O321 C311 1.272 . S
O321 Co313 2.135 . S
Co322 O323 2.216 . S
Co322 O324 2.091 1_554 S
Co322 O326 1.968 1_554 S
Co322 O332 2.021 . S
Co322 O334 2.137 1_554 S
Co322 O335 2.244 . S
O323 Co322 2.216 . S
O323 C330 1.318 . S
O324 Co322 2.091 1_556 S
O324 C330 1.219 1_556 S
C325 O334 1.247 1_554 S
C325 O335 1.272 . S
O326 Co322 1.968 1_556 S
O326 C331 1.218 1_556 S
Co327 O328 2.061 . S
Co327 O333 2.052 . S
Co327 O335 2.135 . S
O328 Co327 2.061 . S
O328 C331 1.235 . S
C329 O332 1.238 . S
C329 O333 1.241 . S
C330 O323 1.318 . S
C330 O324 1.219 1_554 S
C331 O326 1.218 1_554 S
C331 O328 1.235 . S
O332 Co322 2.021 . S
O332 C329 1.238 . S
O333 Co327 2.052 . S
O333 C329 1.241 . S
O334 Co322 2.137 1_556 S
O334 C325 1.247 1_556 S
O335 Co322 2.244 . S
O335 C325 1.272 . S
O335 Co327 2.135 . S
Co336 O337 2.216 . S
Co336 O338 2.091 . S
Co336 O340 2.004 . S
Co336 O346 2.021 . S
Co336 O348 2.137 . S
Co336 O349 2.244 . S
O337 Co336 2.216 . S
O337 C344 1.247 . S
O338 Co336 2.091 . S
O338 C344 1.261 . S
C339 O348 1.247 . S
C339 O349 1.272 . S
O340 Co336 2.004 . S
O340 C345 1.259 . S
Co341 O342 2.061 . S
Co341 O347 2.052 . S
Co341 O349 2.135 . S
O342 Co341 2.061 . S
O342 C345 1.235 . S
C343 O346 1.238 . S
C343 O347 1.241 . S
C344 O337 1.247 . S
C344 O338 1.261 . S
C345 O340 1.259 . S
C345 O342 1.235 . S
O346 Co336 2.021 . S
O346 C343 1.238 . S
O347 Co341 2.052 . S
O347 C343 1.241 . S
O348 Co336 2.137 . S
O348 C339 1.247 . S
O349 Co336 2.244 . S
O349 C339 1.272 . S
O349 Co341 2.135 . S
Co350 O351 2.216 . S
Co350 O352 2.091 . S
Co350 O354 2.004 . S
Co350 O360 2.021 . S
Co350 O362 2.137 . S
Co350 O363 2.244 . S
O351 Co350 2.216 . S
O351 C358 1.247 . S
O352 Co350 2.091 . S
O352 C358 1.261 . S
C353 O362 1.247 . S
C353 O363 1.272 . S
O354 Co350 2.004 . S
O354 C359 1.259 . S
Co355 O356 2.061 . S
Co355 O361 2.052 . S
Co355 O363 2.135 . S
O356 Co355 2.061 . S
O356 C359 1.235 . S
C357 O360 1.238 . S
C357 O361 1.241 . S
C358 O351 1.247 . S
C358 O352 1.261 . S
C359 O354 1.259 . S
C359 O356 1.235 . S
O360 Co350 2.021 . S
O360 C357 1.238 . S
O361 Co355 2.052 . S
O361 C357 1.241 . S
O362 Co350 2.137 . S
O362 C353 1.247 . S
O363 Co350 2.244 . S
O363 C353 1.272 . S
O363 Co355 2.135 . S
Co364 O365 2.216 . S
Co364 O366 2.091 . S
Co364 O368 2.004 . S
Co364 O374 2.021 . S
Co364 O376 2.137 . S
Co364 O377 2.244 . S
O365 Co364 2.216 . S
O365 C372 1.247 . S
O366 Co364 2.091 . S
O366 C372 1.261 . S
C367 O376 1.247 . S
C367 O377 1.272 . S
O368 Co364 2.004 . S
O368 C373 1.259 . S
Co369 O370 2.061 . S
Co369 O375 2.052 . S
Co369 O377 2.135 . S
O370 Co369 2.061 . S
O370 C373 1.235 . S
C371 O374 1.238 . S
C371 O375 1.241 . S
C372 O365 1.247 . S
C372 O366 1.261 . S
C373 O368 1.259 . S
C373 O370 1.235 . S
O374 Co364 2.021 . S
O374 C371 1.238 . S
O375 Co369 2.052 . S
O375 C371 1.241 . S
O376 Co364 2.137 . S
O376 C367 1.247 . S
O377 Co364 2.244 . S
O377 C367 1.272 . S
O377 Co369 2.135 . S
Co378 O379 2.216 . S
Co378 O380 2.091 1_556 S
Co378 O382 2.004 . S
Co378 O388 2.021 . S
Co378 O390 2.137 . S
Co378 O391 2.244 . S
O379 Co378 2.216 . S
O379 C386 1.247 . S
O380 Co378 2.091 1_554 S
O380 C386 1.261 1_554 S
C381 O390 1.247 . S
C381 O391 1.272 . S
O382 Co378 2.004 . S
O382 C387 1.259 . S
Co383 O384 2.061 . S
Co383 O389 2.052 . S
Co383 O391 2.135 . S
O384 Co383 2.061 . S
O384 C387 1.235 . S
C385 O388 1.238 . S
C385 O389 1.241 . S
C386 O379 1.247 . S
C386 O380 1.261 1_556 S
C387 O382 1.259 . S
C387 O384 1.235 . S
O388 Co378 2.021 . S
O388 C385 1.238 . S
O389 Co383 2.052 . S
O389 C385 1.241 . S
O390 Co378 2.137 . S
O390 C381 1.247 . S
O391 Co378 2.244 . S
O391 C381 1.272 . S
O391 Co383 2.135 . S
Co392 O393 2.216 . S
Co392 O394 2.091 1_556 S
Co392 O396 2.004 . S
Co392 O402 2.021 . S
Co392 O404 2.137 . S
Co392 O405 2.244 . S
O393 Co392 2.216 . S
O393 C400 1.247 . S
O394 Co392 2.091 1_554 S
O394 C400 1.261 1_554 S
C395 O404 1.247 . S
C395 O405 1.272 . S
O396 Co392 2.004 . S
O396 C401 1.259 . S
Co397 O398 2.061 . S
Co397 O403 2.052 . S
Co397 O405 2.135 . S
O398 Co397 2.061 . S
O398 C401 1.235 . S
C399 O402 1.238 . S
C399 O403 1.241 . S
C400 O393 1.247 . S
C400 O394 1.261 1_556 S
C401 O396 1.259 . S
C401 O398 1.235 . S
O402 Co392 2.021 . S
O402 C399 1.238 . S
O403 Co397 2.052 . S
O403 C399 1.241 . S
O404 Co392 2.137 . S
O404 C395 1.247 . S
O405 Co392 2.244 . S
O405 C395 1.272 . S
O405 Co397 2.135 . S
Co406 O407 2.216 . S
Co406 O408 2.091 1_556 S
Co406 O410 2.004 . S
Co406 O416 2.021 . S
Co406 O418 2.137 . S
Co406 O419 2.244 . S
O407 Co406 2.216 . S
O407 C414 1.247 . S
O408 Co406 2.091 1_554 S
O408 C414 1.261 1_554 S
C409 O418 1.247 . S
C409 O419 1.272 . S
O410 Co406 2.004 . S
O410 C415 1.259 . S
Co411 O412 2.061 . S
Co411 O417 2.052 . S
Co411 O419 2.135 . S
O412 Co411 2.061 . S
O412 C415 1.235 . S
C413 O416 1.238 . S
C413 O417 1.241 . S
C414 O407 1.247 . S
C414 O408 1.261 1_556 S
C415 O410 1.259 . S
C415 O412 1.235 . S
O416 Co406 2.021 . S
O416 C413 1.238 . S
O417 Co411 2.052 . S
O417 C413 1.241 . S
O418 Co406 2.137 . S
O418 C409 1.247 . S
O419 Co406 2.244 . S
O419 C409 1.272 . S
O419 Co411 2.135 . S
Co420 O421 2.216 . S
Co420 O422 2.091 . S
Co420 O424 2.004 . S
Co420 O430 2.021 . S
Co420 O432 2.137 . S
Co420 O433 2.244 . S
O421 Co420 2.216 . S
O421 C428 1.247 . S
O422 Co420 2.091 . S
O422 C428 1.261 . S
C423 O432 1.247 . S
C423 O433 1.272 . S
O424 Co420 2.004 . S
O424 C429 1.259 . S
Co425 O426 2.061 . S
Co425 O431 2.052 . S
Co425 O433 2.135 . S
O426 Co425 2.061 . S
O426 C429 1.235 . S
C427 O430 1.238 . S
C427 O431 1.241 . S
C428 O421 1.247 . S
C428 O422 1.261 . S
C429 O424 1.259 . S
C429 O426 1.235 . S
O430 Co420 2.021 . S
O430 C427 1.238 . S
O431 Co425 2.052 . S
O431 C427 1.241 . S
O432 Co420 2.137 . S
O432 C423 1.247 . S
O433 Co420 2.244 . S
O433 C423 1.272 . S
O433 Co425 2.135 . S
Co434 O435 2.216 . S
Co434 O436 2.091 . S
Co434 O438 2.004 . S
Co434 O444 2.021 . S
Co434 O446 2.137 . S
Co434 O447 2.244 . S
O435 Co434 2.216 . S
O435 C442 1.247 . S
O436 Co434 2.091 . S
O436 C442 1.261 . S
C437 O446 1.247 . S
C437 O447 1.272 . S
O438 Co434 2.004 . S
O438 C443 1.259 . S
Co439 O440 2.061 . S
Co439 O445 2.052 . S
Co439 O447 2.135 . S
O440 Co439 2.061 . S
O440 C443 1.235 . S
C441 O444 1.238 . S
C441 O445 1.241 . S
C442 O435 1.247 . S
C442 O436 1.261 . S
C443 O438 1.259 . S
C443 O440 1.235 . S
O444 Co434 2.021 . S
O444 C441 1.238 . S
O445 Co439 2.052 . S
O445 C441 1.241 . S
O446 Co434 2.137 . S
O446 C437 1.247 . S
O447 Co434 2.244 . S
O447 C437 1.272 . S
O447 Co439 2.135 . S
Co448 O449 2.216 . S
Co448 O450 2.091 . S
Co448 O452 2.004 . S
Co448 O458 2.021 . S
Co448 O460 2.137 . S
Co448 O461 2.244 . S
O449 Co448 2.216 . S
O449 C456 1.247 . S
O450 Co448 2.091 . S
O450 C456 1.261 . S
C451 O460 1.247 . S
C451 O461 1.272 . S
O452 Co448 2.004 . S
O452 C457 1.259 . S
Co453 O454 2.061 . S
Co453 O459 2.052 . S
Co453 O461 2.135 . S
O454 Co453 2.061 . S
O454 C457 1.235 . S
C455 O458 1.238 . S
C455 O459 1.241 . S
C456 O449 1.247 . S
C456 O450 1.261 . S
C457 O452 1.259 . S
C457 O454 1.235 . S
O458 Co448 2.021 . S
O458 C455 1.238 . S
O459 Co453 2.052 . S
O459 C455 1.241 . S
O460 Co448 2.137 . S
O460 C451 1.247 . S
O461 Co448 2.244 . S
O461 C451 1.272 . S
O461 Co453 2.135 . S
Co462 O463 2.216 . S
Co462 O464 2.091 . S
Co462 O466 2.004 . S
Co462 O472 2.021 . S
Co462 O474 2.137 . S
Co462 O475 2.244 . S
O463 Co462 2.216 . S
O463 C470 1.247 . S
O464 Co462 2.091 . S
O464 C470 1.261 . S
C465 O474 1.247 . S
C465 O475 1.272 . S
O466 Co462 2.004 . S
O466 C471 1.259 . S
Co467 O468 2.061 . S
Co467 O473 2.052 . S
Co467 O475 2.135 . S
O468 Co467 2.061 . S
O468 C471 1.235 . S
C469 O472 1.238 . S
C469 O473 1.241 . S
C470 O463 1.247 . S
C470 O464 1.261 . S
C471 O466 1.259 . S
C471 O468 1.235 . S
O472 Co462 2.021 . S
O472 C469 1.238 . S
O473 Co467 2.052 . S
O473 C469 1.241 . S
O474 Co462 2.137 . S
O474 C465 1.247 . S
O475 Co462 2.244 . S
O475 C465 1.272 . S
O475 Co467 2.135 . S
Co476 O477 2.216 . S
Co476 O478 2.091 . S
Co476 O480 2.004 . S
Co476 O486 2.021 . S
Co476 O488 2.137 . S
Co476 O489 2.244 . S
O477 Co476 2.216 . S
O477 C484 1.247 . S
O478 Co476 2.091 . S
O478 C484 1.261 . S
C479 O488 1.247 . S
C479 O489 1.272 . S
O480 Co476 2.004 . S
O480 C485 1.259 . S
Co481 O482 2.061 . S
Co481 O487 2.052 . S
Co481 O489 2.135 . S
O482 Co481 2.061 . S
O482 C485 1.235 . S
C483 O486 1.238 . S
C483 O487 1.241 . S
C484 O477 1.247 . S
C484 O478 1.261 . S
C485 O480 1.259 . S
C485 O482 1.235 . S
O486 Co476 2.021 . S
O486 C483 1.238 . S
O487 Co481 2.052 . S
O487 C483 1.241 . S
O488 Co476 2.137 . S
O488 C479 1.247 . S
O489 Co476 2.244 . S
O489 C479 1.272 . S
O489 Co481 2.135 . S
Co490 O491 2.216 . S
Co490 O492 2.091 . S
Co490 O494 2.004 . S
Co490 O500 2.021 . S
Co490 O502 2.137 . S
Co490 O503 2.244 . S
O491 Co490 2.216 . S
O491 C498 1.247 . S
O492 Co490 2.091 . S
O492 C498 1.261 . S
C493 O502 1.247 . S
C493 O503 1.272 . S
O494 Co490 2.004 . S
O494 C499 1.259 . S
Co495 O496 2.061 . S
Co495 O501 2.052 . S
Co495 O503 2.135 . S
O496 Co495 2.061 . S
O496 C499 1.235 . S
C497 O500 1.238 . S
C497 O501 1.241 . S
C498 O491 1.247 . S
C498 O492 1.261 . S
C499 O494 1.259 . S
C499 O496 1.235 . S
O500 Co490 2.021 . S
O500 C497 1.238 . S
O501 Co495 2.052 . S
O501 C497 1.241 . S
O502 Co490 2.137 . S
O502 C493 1.247 . S
O503 Co490 2.244 . S
O503 C493 1.272 . S
O503 Co495 2.135 . S
H504 C512 0.929 . S
H505 C514 0.930 . S
H506 C516 0.930 . S
H507 C519 0.929 . S
H508 C522 0.930 . S
H509 C524 0.960 . S
H510 C524 0.960 . S
H511 C524 0.960 . S
C512 H504 0.929 . S
C512 C513 1.377 . S
C512 C514 1.384 . S
C513 C512 1.377 . S
C513 C519 1.390 . S
C514 H505 0.930 . S
C514 C512 1.384 . S
C514 C515 1.372 . S
C515 C514 1.372 . S
C515 C516 1.400 . S
C515 C520 1.490 . S
C516 H506 0.930 . S
C516 C515 1.400 . S
C516 C519 1.386 . S
H517 C533 0.930 . S
H518 C534 0.931 . S
C519 H507 0.929 . S
C519 C513 1.390 . S
C519 C516 1.386 . S
C520 C515 1.490 . S
C520 C522 1.395 . S
C520 C523 1.403 . S
H521 C527 0.928 1_655 S
C522 H508 0.930 . S
C522 C520 1.395 . S
C522 C525 1.403 . S
C523 C520 1.403 . S
C523 C524 1.524 . S
C523 C527 1.423 . S
C524 H509 0.960 . S
C524 H510 0.960 . S
C524 H511 0.960 . S
C524 C523 1.524 . S
C525 C522 1.403 . S
C525 C526 1.392 1_455 S
C525 C529 1.495 1_455 S
C526 C525 1.392 1_655 S
C526 C527 1.365 1_655 S
C526 C528 1.478 . S
C527 H521 0.928 1_455 S
C527 C523 1.423 . S
C527 C526 1.365 1_455 S
C528 C526 1.478 . S
C528 C530 1.381 . S
C528 C534 1.383 . S
C529 C525 1.495 1_655 S
C529 H535 0.959 1_655 S
C529 H536 0.961 . S
C529 H537 0.960 . S
C530 C528 1.381 . S
C530 C531 1.394 . S
C530 H538 0.930 . S
C531 C530 1.394 . S
C531 C532 1.383 . S
C531 H539 0.929 . S
C532 C531 1.383 . S
C532 C533 1.377 . S
C533 H517 0.930 . S
C533 C532 1.377 . S
C533 C534 1.379 . S
C534 H518 0.931 . S
C534 C528 1.383 . S
C534 C533 1.379 . S
H535 C529 0.959 1_455 S
H536 C529 0.961 . S
H537 C529 0.960 . S
H538 C530 0.930 . S
H539 C531 0.929 . S
H540 C548 0.929 . S
H541 C550 0.930 . S
H542 C552 0.930 . S
H543 C555 0.929 . S
H544 C558 0.930 . S
H545 C560 0.960 . S
H546 C560 0.960 . S
H547 C560 0.960 . S
C548 H540 0.929 . S
C548 C549 1.377 . S
C548 C550 1.384 . S
C549 C548 1.377 . S
C549 C555 1.390 . S
C550 H541 0.930 . S
C550 C548 1.384 . S
C550 C551 1.372 . S
C551 C550 1.372 . S
C551 C552 1.400 . S
C551 C556 1.490 . S
C552 H542 0.930 . S
C552 C551 1.400 . S
C552 C555 1.386 . S
H553 C569 0.930 . S
H554 C570 0.931 . S
C555 H543 0.929 . S
C555 C549 1.390 . S
C555 C552 1.386 . S
C556 C551 1.490 . S
C556 C558 1.395 . S
C556 C559 1.403 . S
H557 C563 0.930 . S
C558 H544 0.930 . S
C558 C556 1.395 . S
C558 C561 1.403 . S
C559 C556 1.403 . S
C559 C560 1.524 . S
C559 C563 1.400 . S
C560 H545 0.960 . S
C560 H546 0.960 . S
C560 H547 0.960 . S
C560 C559 1.524 . S
C561 C558 1.403 . S
C561 C562 1.392 . S
C561 C565 1.495 . S
C562 C561 1.392 . S
C562 C563 1.385 . S
C562 C564 1.478 . S
C563 H557 0.930 . S
C563 C559 1.400 . S
C563 C562 1.385 . S
C564 C562 1.478 . S
C564 C566 1.381 . S
C564 C570 1.383 . S
C565 C561 1.495 . S
C565 H571 0.959 . S
C565 H572 0.961 . S
C565 H573 0.960 . S
C566 C564 1.381 . S
C566 C567 1.394 . S
C566 H574 0.930 . S
C567 C566 1.394 . S
C567 C568 1.383 . S
C567 H575 0.929 . S
C568 C567 1.383 . S
C568 C569 1.377 . S
C569 H553 0.930 . S
C569 C568 1.377 . S
C569 C570 1.379 . S
C570 H554 0.931 . S
C570 C564 1.383 . S
C570 C569 1.379 . S
H571 C565 0.959 . S
H572 C565 0.961 . S
H573 C565 0.960 . S
H574 C566 0.930 . S
H575 C567 0.929 . S
H576 C584 0.929 . S
H577 C586 0.930 . S
H578 C588 0.930 . S
H579 C591 0.929 . S
H580 C594 0.915 1_545 S
H581 C596 0.960 1_565 S
H582 C596 0.960 . S
H583 C596 0.960 . S
C584 H576 0.929 . S
C584 C585 1.377 . S
C584 C586 1.384 . S
C585 C584 1.377 . S
C585 C591 1.390 . S
C586 H577 0.930 . S
C586 C584 1.384 . S
C586 C587 1.372 . S
C587 C586 1.372 . S
C587 C588 1.400 . S
C587 C592 1.490 . S
C588 H578 0.930 . S
C588 C587 1.400 . S
C588 C591 1.386 . S
H589 C605 0.930 . S
H590 C606 0.931 . S
C591 H579 0.929 . S
C591 C585 1.390 . S
C591 C588 1.386 . S
C592 C587 1.490 . S
C592 C594 1.379 1_545 S
C592 C595 1.403 1_545 S
H593 C599 0.930 . S
C594 H580 0.915 1_565 S
C594 C592 1.379 1_565 S
C594 C597 1.435 . S
C595 C592 1.403 1_565 S
C595 C596 1.524 1_565 S
C595 C599 1.400 . S
C596 H581 0.960 1_545 S
C596 H582 0.960 . S
C596 H583 0.960 . S
C596 C595 1.524 1_545 S
C597 C594 1.435 . S
C597 C598 1.392 . S
C597 C601 1.495 . S
C598 C597 1.392 . S
C598 C599 1.385 . S
C598 C600 1.478 . S
C599 H593 0.930 . S
C599 C595 1.400 . S
C599 C598 1.385 . S
C600 C598 1.478 . S
C600 C602 1.381 . S
C600 C606 1.383 . S
C601 C597 1.495 . S
C601 H607 0.959 . S
C601 H608 0.961 . S
C601 H609 0.960 . S
C602 C600 1.381 . S
C602 C603 1.394 . S
C602 H610 0.930 . S
C603 C602 1.394 . S
C603 C604 1.383 . S
C603 H611 0.929 . S
C604 C603 1.383 . S
C604 C605 1.377 . S
C605 H589 0.930 . S
C605 C604 1.377 . S
C605 C606 1.379 . S
C606 H590 0.931 . S
C606 C600 1.383 . S
C606 C605 1.379 . S
H607 C601 0.959 . S
H608 C601 0.961 . S
H609 C601 0.960 . S
H610 C602 0.930 . S
H611 C603 0.929 . S
H612 C620 0.929 . S
H613 C622 0.930 . S
H614 C624 0.930 . S
H615 C627 0.929 . S
H616 C630 0.930 . S
H617 C632 0.960 . S
H618 C632 0.960 . S
H619 C632 0.960 . S
C620 H612 0.929 . S
C620 C621 1.377 . S
C620 C622 1.384 . S
C621 C620 1.377 . S
C621 C627 1.390 . S
C622 H613 0.930 . S
C622 C620 1.384 . S
C622 C623 1.372 . S
C623 C622 1.372 . S
C623 C624 1.400 . S
C623 C628 1.490 . S
C624 H614 0.930 . S
C624 C623 1.400 . S
C624 C627 1.386 . S
H625 C641 0.930 . S
H626 C642 0.931 . S
C627 H615 0.929 . S
C627 C621 1.390 . S
C627 C624 1.386 . S
C628 C623 1.490 . S
C628 C630 1.395 . S
C628 C631 1.403 . S
H629 C635 0.927 1_565 S
C630 H616 0.930 . S
C630 C628 1.395 . S
C630 C633 1.403 . S
C631 C628 1.403 . S
C631 C632 1.524 . S
C631 C635 1.410 . S
C632 H617 0.960 . S
C632 H618 0.960 . S
C632 H619 0.960 . S
C632 C631 1.524 . S
C633 C630 1.403 . S
C633 C634 1.392 1_545 S
C633 C637 1.495 1_545 S
C634 C633 1.392 1_565 S
C634 C635 1.378 1_565 S
C634 C636 1.478 . S
C635 H629 0.927 1_545 S
C635 C631 1.410 . S
C635 C634 1.378 1_545 S
C636 C634 1.478 . S
C636 C638 1.381 . S
C636 C642 1.383 . S
C637 C633 1.495 1_565 S
C637 H643 0.959 1_565 S
C637 H644 0.961 . S
C637 H645 0.960 . S
C638 C636 1.381 . S
C638 C639 1.394 . S
C638 H646 0.930 . S
C639 C638 1.394 . S
C639 C640 1.383 . S
C639 H647 0.929 . S
C640 C639 1.383 . S
C640 C641 1.377 . S
C641 H625 0.930 . S
C641 C640 1.377 . S
C641 C642 1.379 . S
C642 H626 0.931 . S
C642 C636 1.383 . S
C642 C641 1.379 . S
H643 C637 0.959 1_545 S
H644 C637 0.961 . S
H645 C637 0.960 . S
H646 C638 0.930 . S
H647 C639 0.929 . S
H648 C656 0.929 . S
H649 C658 0.930 . S
H650 C660 0.930 . S
H651 C663 0.929 . S
H652 C666 0.930 . S
H653 C668 0.960 . S
H654 C668 0.960 . S
H655 C668 0.960 . S
C656 H648 0.929 . S
C656 C657 1.377 . S
C656 C658 1.384 . S
C657 C656 1.377 . S
C657 C663 1.390 . S
C658 H649 0.930 . S
C658 C656 1.384 . S
C658 C659 1.372 . S
C659 C658 1.372 . S
C659 C660 1.400 . S
C659 C664 1.490 . S
C660 H650 0.930 . S
C660 C659 1.400 . S
C660 C663 1.386 . S
H661 C677 0.930 . S
H662 C678 0.931 . S
C663 H651 0.929 . S
C663 C657 1.390 . S
C663 C660 1.386 . S
C664 C659 1.490 . S
C664 C666 1.395 . S
C664 C667 1.403 . S
H665 C671 0.929 1_455 S
C666 H652 0.930 . S
C666 C664 1.395 . S
C666 C669 1.403 . S
C667 C664 1.403 . S
C667 C668 1.524 . S
C667 C671 1.413 . S
C668 H653 0.960 . S
C668 H654 0.960 . S
C668 H655 0.960 . S
C668 C667 1.524 . S
C669 C666 1.403 . S
C669 C670 1.392 1_655 S
C669 C673 1.495 1_655 S
C670 C669 1.392 1_455 S
C670 C671 1.373 1_455 S
C670 C672 1.478 . S
C671 H665 0.929 1_655 S
C671 C667 1.413 . S
C671 C670 1.373 1_655 S
C672 C670 1.478 . S
C672 C674 1.381 . S
C672 C678 1.383 . S
C673 C669 1.495 1_455 S
C673 H679 0.959 1_455 S
C673 H680 0.961 . S
C673 H681 0.960 . S
C674 C672 1.381 . S
C674 C675 1.394 . S
C674 H682 0.930 . S
C675 C674 1.394 . S
C675 C676 1.383 . S
C675 H683 0.929 . S
C676 C675 1.383 . S
C676 C677 1.377 . S
C677 H661 0.930 . S
C677 C676 1.377 . S
C677 C678 1.379 . S
C678 H662 0.931 . S
C678 C672 1.383 . S
C678 C677 1.379 . S
H679 C673 0.959 1_655 S
H680 C673 0.961 . S
H681 C673 0.960 . S
H682 C674 0.930 . S
H683 C675 0.929 . S
H684 C692 0.929 . S
H685 C694 0.930 . S
H686 C696 0.930 . S
H687 C699 0.929 . S
H688 C702 0.930 . S
H689 C704 0.960 . S
H690 C704 0.960 . S
H691 C704 0.960 . S
C692 H684 0.929 . S
C692 C693 1.377 . S
C692 C694 1.384 . S
C693 C692 1.377 . S
C693 C699 1.390 . S
C694 H685 0.930 . S
C694 C692 1.384 . S
C694 C695 1.372 . S
C695 C694 1.372 . S
C695 C696 1.400 . S
C695 C700 1.490 . S
C696 H686 0.930 . S
C696 C695 1.400 . S
C696 C699 1.386 . S
H697 C713 0.930 . S
H698 C714 0.931 . S
C699 H687 0.929 . S
C699 C693 1.390 . S
C699 C696 1.386 . S
C700 C695 1.490 . S
C700 C702 1.395 . S
C700 C703 1.403 . S
H701 C707 0.930 . S
C702 H688 0.930 . S
C702 C700 1.395 . S
C702 C705 1.403 . S
C703 C700 1.403 . S
C703 C704 1.524 . S
C703 C707 1.400 . S
C704 H689 0.960 . S
C704 H690 0.960 . S
C704 H691 0.960 . S
C704 C703 1.524 . S
C705 C702 1.403 . S
C705 C706 1.392 . S
C705 C709 1.495 . S
C706 C705 1.392 . S
C706 C707 1.385 . S
C706 C708 1.478 . S
C707 H701 0.930 . S
C707 C703 1.400 . S
C707 C706 1.385 . S
C708 C706 1.478 . S
C708 C710 1.381 . S
C708 C714 1.383 . S
C709 C705 1.495 . S
C709 H715 0.959 . S
C709 H716 0.961 . S
C709 H717 0.960 . S
C710 C708 1.381 . S
C710 C711 1.394 . S
C710 H718 0.930 . S
C711 C710 1.394 . S
C711 C712 1.383 . S
C711 H719 0.929 . S
C712 C711 1.383 . S
C712 C713 1.377 . S
C713 H697 0.930 . S
C713 C712 1.377 . S
C713 C714 1.379 . S
C714 H698 0.931 . S
C714 C708 1.383 . S
C714 C713 1.379 . S
H715 C709 0.959 . S
H716 C709 0.961 . S
H717 C709 0.960 . S
H718 C710 0.930 . S
H719 C711 0.929 . S
H720 C728 0.929 . S
H721 C730 0.930 . S
H722 C732 0.930 . S
H723 C735 0.929 . S
H724 C738 0.930 . S
H725 C740 0.960 . S
H726 C740 0.960 . S
H727 C740 0.960 . S
C728 H720 0.929 . S
C728 C729 1.377 . S
C728 C730 1.384 . S
C729 C728 1.377 . S
C729 C735 1.390 . S
C730 H721 0.930 . S
C730 C728 1.384 . S
C730 C731 1.372 . S
C731 C730 1.372 . S
C731 C732 1.400 . S
C731 C736 1.490 . S
C732 H722 0.930 . S
C732 C731 1.400 . S
C732 C735 1.386 . S
H733 C749 0.930 . S
H734 C750 0.931 . S
C735 H723 0.929 . S
C735 C729 1.390 . S
C735 C732 1.386 . S
C736 C731 1.490 . S
C736 C738 1.395 . S
C736 C739 1.403 . S
H737 C743 0.958 . S
C738 H724 0.930 . S
C738 C736 1.395 . S
C738 C741 1.403 . S
C739 C736 1.403 . S
C739 C740 1.524 . S
C739 C743 1.374 1_655 S
C740 H725 0.960 . S
C740 H726 0.960 . S
C740 H727 0.960 . S
C740 C739 1.524 . S
C741 C738 1.403 . S
C741 C742 1.392 1_655 S
C741 C745 1.495 1_655 S
C742 C741 1.392 1_455 S
C742 C743 1.385 . S
C742 C744 1.478 . S
C743 H737 0.958 . S
C743 C739 1.374 1_455 S
C743 C742 1.385 . S
C744 C742 1.478 . S
C744 C746 1.381 . S
C744 C750 1.383 . S
C745 C741 1.495 1_455 S
C745 H751 0.959 1_455 S
C745 H752 0.961 . S
C745 H753 0.960 . S
C746 C744 1.381 . S
C746 C747 1.394 . S
C746 H754 0.930 . S
C747 C746 1.394 . S
C747 C748 1.383 . S
C747 H755 0.929 . S
C748 C747 1.383 . S
C748 C749 1.377 . S
C749 H733 0.930 . S
C749 C748 1.377 . S
C749 C750 1.379 . S
C750 H734 0.931 . S
C750 C744 1.383 . S
C750 C749 1.379 . S
H751 C745 0.959 1_655 S
H752 C745 0.961 . S
H753 C745 0.960 . S
H754 C746 0.930 . S
H755 C747 0.929 . S
H756 C764 0.929 . S
H757 C766 0.930 . S
H758 C768 0.930 . S
H759 C771 0.929 . S
H760 C774 0.930 . S
H761 C776 0.960 . S
H762 C776 0.960 . S
H763 C776 0.960 . S
C764 H756 0.929 . S
C764 C765 1.377 . S
C764 C766 1.384 . S
C765 C764 1.377 . S
C765 C771 1.390 . S
C766 H757 0.930 . S
C766 C764 1.384 . S
C766 C767 1.372 . S
C767 C766 1.372 . S
C767 C768 1.400 . S
C767 C772 1.490 . S
C768 H758 0.930 . S
C768 C767 1.400 . S
C768 C771 1.386 . S
H769 C785 0.930 . S
H770 C786 0.931 . S
C771 H759 0.929 . S
C771 C765 1.390 . S
C771 C768 1.386 . S
C772 C767 1.490 . S
C772 C774 1.395 . S
C772 C775 1.403 . S
H773 C779 0.930 . S
C774 H760 0.930 . S
C774 C772 1.395 . S
C774 C777 1.403 . S
C775 C772 1.403 . S
C775 C776 1.524 . S
C775 C779 1.400 . S
C776 H761 0.960 . S
C776 H762 0.960 . S
C776 H763 0.960 . S
C776 C775 1.524 . S
C777 C774 1.403 . S
C777 C778 1.392 . S
C777 C781 1.495 . S
C778 C777 1.392 . S
C778 C779 1.385 . S
C778 C780 1.478 . S
C779 H773 0.930 . S
C779 C775 1.400 . S
C779 C778 1.385 . S
C780 C778 1.478 . S
C780 C782 1.381 . S
C780 C786 1.383 . S
C781 C777 1.495 . S
C781 H787 0.959 . S
C781 H788 0.961 . S
C781 H789 0.960 . S
C782 C780 1.381 . S
C782 C783 1.394 . S
C782 H790 0.930 . S
C783 C782 1.394 . S
C783 C784 1.383 . S
C783 H791 0.929 . S
C784 C783 1.383 . S
C784 C785 1.377 . S
C785 H769 0.930 . S
C785 C784 1.377 . S
C785 C786 1.379 . S
C786 H770 0.931 . S
C786 C780 1.383 . S
C786 C785 1.379 . S
H787 C781 0.959 . S
H788 C781 0.961 . S
H789 C781 0.960 . S
H790 C782 0.930 . S
H791 C783 0.929 . S
H792 C800 0.929 . S
H793 C802 0.930 . S
H794 C804 0.930 . S
H795 C807 0.929 . S
H796 C810 0.910 1_565 S
H797 C812 0.960 1_545 S
H798 C812 0.960 . S
H799 C812 0.960 . S
C800 H792 0.929 . S
C800 C801 1.377 . S
C800 C802 1.384 . S
C801 C800 1.377 . S
C801 C807 1.390 . S
C802 H793 0.930 . S
C802 C800 1.384 . S
C802 C803 1.372 . S
C803 C802 1.372 . S
C803 C804 1.400 . S
C803 C808 1.490 . S
C804 H794 0.930 . S
C804 C803 1.400 . S
C804 C807 1.386 . S
H805 C821 0.930 . S
H806 C822 0.931 . S
C807 H795 0.929 . S
C807 C801 1.390 . S
C807 C804 1.386 . S
C808 C803 1.490 . S
C808 C810 1.379 1_565 S
C808 C811 1.403 1_565 S
H809 C815 0.930 . S
C810 H796 0.910 1_545 S
C810 C808 1.379 1_545 S
C810 C813 1.439 . S
C811 C808 1.403 1_545 S
C811 C812 1.524 1_545 S
C811 C815 1.400 . S
C812 H797 0.960 1_565 S
C812 H798 0.960 . S
C812 H799 0.960 . S
C812 C811 1.524 1_565 S
C813 C810 1.439 . S
C813 C814 1.392 . S
C813 C817 1.495 . S
C814 C813 1.392 . S
C814 C815 1.385 . S
C814 C816 1.478 . S
C815 H809 0.930 . S
C815 C811 1.400 . S
C815 C814 1.385 . S
C816 C814 1.478 . S
C816 C818 1.381 . S
C816 C822 1.383 . S
C817 C813 1.495 . S
C817 H823 0.959 . S
C817 H824 0.961 . S
C817 H825 0.960 . S
C818 C816 1.381 . S
C818 C819 1.394 . S
C818 H826 0.930 . S
C819 C818 1.394 . S
C819 C820 1.383 . S
C819 H827 0.929 . S
C820 C819 1.383 . S
C820 C821 1.377 . S
C821 H805 0.930 . S
C821 C820 1.377 . S
C821 C822 1.379 . S
C822 H806 0.931 . S
C822 C816 1.383 . S
C822 C821 1.379 . S
H823 C817 0.959 . S
H824 C817 0.961 . S
H825 C817 0.960 . S
H826 C818 0.930 . S
H827 C819 0.929 . S
H828 C836 0.929 . S
H829 C838 0.930 . S
H830 C840 0.930 . S
H831 C843 0.929 . S
H832 C846 0.932 . S
H833 C848 0.960 1_565 S
H834 C848 0.960 . S
H835 C848 0.960 . S
C836 H828 0.929 . S
C836 C837 1.377 . S
C836 C838 1.384 . S
C837 C836 1.377 . S
C837 C843 1.390 . S
C838 H829 0.930 . S
C838 C836 1.384 . S
C838 C839 1.372 . S
C839 C838 1.372 . S
C839 C840 1.400 . S
C839 C844 1.490 . S
C840 H830 0.930 . S
C840 C839 1.400 . S
C840 C843 1.386 . S
H841 C857 0.930 . S
H842 C858 0.931 . S
C843 H831 0.929 . S
C843 C837 1.390 . S
C843 C840 1.386 . S
C844 C839 1.490 . S
C844 C846 1.394 . S
C844 C847 1.403 1_545 S
H845 C851 0.930 . S
C846 H832 0.932 . S
C846 C844 1.394 . S
C846 C849 1.401 1_545 S
C847 C844 1.403 1_565 S
C847 C848 1.524 1_565 S
C847 C851 1.400 . S
C848 H833 0.960 1_545 S
C848 H834 0.960 . S
C848 H835 0.960 . S
C848 C847 1.524 1_545 S
C849 C846 1.401 1_565 S
C849 C850 1.392 . S
C849 C853 1.495 . S
C850 C849 1.392 . S
C850 C851 1.385 . S
C850 C852 1.478 . S
C851 H845 0.930 . S
C851 C847 1.400 . S
C851 C850 1.385 . S
C852 C850 1.478 . S
C852 C854 1.381 . S
C852 C858 1.383 . S
C853 C849 1.495 . S
C853 H859 0.959 . S
C853 H860 0.961 . S
C853 H861 0.960 . S
C854 C852 1.381 . S
C854 C855 1.394 . S
C854 H862 0.930 . S
C855 C854 1.394 . S
C855 C856 1.383 . S
C855 H863 0.929 . S
C856 C855 1.383 . S
C856 C857 1.377 . S
C857 H841 0.930 . S
C857 C856 1.377 . S
C857 C858 1.379 . S
C858 H842 0.931 . S
C858 C852 1.383 . S
C858 C857 1.379 . S
H859 C853 0.959 . S
H860 C853 0.961 . S
H861 C853 0.960 . S
H862 C854 0.930 . S
H863 C855 0.929 . S
H864 C872 0.929 . S
H865 C874 0.930 . S
H866 C876 0.930 . S
H867 C879 0.929 . S
H868 C882 0.930 . S
H869 C884 0.960 . S
H870 C884 0.960 . S
H871 C884 0.960 . S
C872 H864 0.929 . S
C872 C873 1.377 . S
C872 C874 1.384 . S
C873 C872 1.377 . S
C873 C879 1.390 . S
C874 H865 0.930 . S
C874 C872 1.384 . S
C874 C875 1.372 . S
C875 C874 1.372 . S
C875 C876 1.400 . S
C875 C880 1.490 . S
C876 H866 0.930 . S
C876 C875 1.400 . S
C876 C879 1.386 . S
H877 C893 0.930 . S
H878 C894 0.931 . S
C879 H867 0.929 . S
C879 C873 1.390 . S
C879 C876 1.386 . S
C880 C875 1.490 . S
C880 C882 1.395 . S
C880 C883 1.403 . S
H881 C887 0.932 1_655 S
C882 H868 0.930 . S
C882 C880 1.395 . S
C882 C885 1.403 . S
C883 C880 1.403 . S
C883 C884 1.524 . S
C883 C887 1.398 . S
C884 H869 0.960 . S
C884 H870 0.960 . S
C884 H871 0.960 . S
C884 C883 1.524 . S
C885 C882 1.403 . S
C885 C886 1.392 1_455 S
C885 C889 1.495 1_455 S
C886 C885 1.392 1_655 S
C886 C887 1.385 1_655 S
C886 C888 1.478 . S
C887 H881 0.932 1_455 S
C887 C883 1.398 . S
C887 C886 1.385 1_455 S
C888 C886 1.478 . S
C888 C890 1.381 . S
C888 C894 1.383 . S
C889 C885 1.495 1_655 S
C889 H895 0.959 1_655 S
C889 H896 0.961 . S
C889 H897 0.960 . S
C890 C888 1.381 . S
C890 C891 1.394 . S
C890 H898 0.930 . S
C891 C890 1.394 . S
C891 C892 1.383 . S
C891 H899 0.929 . S
C892 C891 1.383 . S
C892 C893 1.377 . S
C893 H877 0.930 . S
C893 C892 1.377 . S
C893 C894 1.379 . S
C894 H878 0.931 . S
C894 C888 1.383 . S
C894 C893 1.379 . S
H895 C889 0.959 1_455 S
H896 C889 0.961 . S
H897 C889 0.960 . S
H898 C890 0.930 . S
H899 C891 0.929 . S
H900 C908 0.929 . S
H901 C910 0.930 . S
H902 C912 0.930 . S
H903 C915 0.929 . S
H904 C918 0.930 . S
H905 C920 0.960 . S
H906 C920 0.960 . S
H907 C920 0.960 . S
C908 H900 0.929 . S
C908 C909 1.377 . S
C908 C910 1.384 . S
C909 C908 1.377 . S
C909 C915 1.390 . S
C910 H901 0.930 . S
C910 C908 1.384 . S
C910 C911 1.372 . S
C911 C910 1.372 . S
C911 C912 1.400 . S
C911 C916 1.490 . S
C912 H902 0.930 . S
C912 C911 1.400 . S
C912 C915 1.386 . S
H913 C929 0.930 . S
H914 C930 0.931 . S
C915 H903 0.929 . S
C915 C909 1.390 . S
C915 C912 1.386 . S
C916 C911 1.490 . S
C916 C918 1.395 . S
C916 C919 1.403 . S
H917 C923 0.930 . S
C918 H904 0.930 . S
C918 C916 1.395 . S
C918 C921 1.403 . S
C919 C916 1.403 . S
C919 C920 1.524 . S
C919 C923 1.400 . S
C920 H905 0.960 . S
C920 H906 0.960 . S
C920 H907 0.960 . S
C920 C919 1.524 . S
C921 C918 1.403 . S
C921 C922 1.392 . S
C921 C925 1.495 . S
C922 C921 1.392 . S
C922 C923 1.385 . S
C922 C924 1.478 . S
C923 H917 0.930 . S
C923 C919 1.400 . S
C923 C922 1.385 . S
C924 C922 1.478 . S
C924 C926 1.381 . S
C924 C930 1.383 . S
C925 C921 1.495 . S
C925 H931 0.959 . S
C925 H932 0.961 . S
C925 H933 0.960 . S
C926 C924 1.381 . S
C926 C927 1.394 . S
C926 H934 0.930 . S
C927 C926 1.394 . S
C927 C928 1.383 . S
C927 H935 0.929 . S
C928 C927 1.383 . S
C928 C929 1.377 . S
C929 H913 0.930 . S
C929 C928 1.377 . S
C929 C930 1.379 . S
C930 H914 0.931 . S
C930 C924 1.383 . S
C930 C929 1.379 . S
H931 C925 0.959 . S
H932 C925 0.961 . S
H933 C925 0.960 . S
H934 C926 0.930 . S
H935 C927 0.929 . S
H936 C944 0.929 . S
H937 C946 0.930 . S
H938 C948 0.930 . S
H939 C951 0.929 . S
H940 C954 0.930 . S
H941 C956 0.960 . S
H942 C956 0.960 . S
H943 C956 0.960 . S
C944 H936 0.929 . S
C944 C945 1.377 . S
C944 C946 1.384 . S
C945 C944 1.377 . S
C945 C951 1.390 . S
C946 H937 0.930 . S
C946 C944 1.384 . S
C946 C947 1.372 . S
C947 C946 1.372 . S
C947 C948 1.400 . S
C947 C952 1.490 . S
C948 H938 0.930 . S
C948 C947 1.400 . S
C948 C951 1.386 . S
H949 C965 0.930 . S
H950 C966 0.931 . S
C951 H939 0.929 . S
C951 C945 1.390 . S
C951 C948 1.386 . S
C952 C947 1.490 . S
C952 C954 1.395 . S
C952 C955 1.403 . S
H953 C959 0.930 . S
C954 H940 0.930 . S
C954 C952 1.395 . S
C954 C957 1.403 . S
C955 C952 1.403 . S
C955 C956 1.524 . S
C955 C959 1.400 . S
C956 H941 0.960 . S
C956 H942 0.960 . S
C956 H943 0.960 . S
C956 C955 1.524 . S
C957 C954 1.403 . S
C957 C958 1.392 . S
C957 C961 1.495 . S
C958 C957 1.392 . S
C958 C959 1.385 . S
C958 C960 1.478 . S
C959 H953 0.930 . S
C959 C955 1.400 . S
C959 C958 1.385 . S
C960 C958 1.478 . S
C960 C962 1.381 . S
C960 C966 1.383 . S
C961 C957 1.495 . S
C961 H967 0.959 . S
C961 H968 0.961 . S
C961 H969 0.960 . S
C962 C960 1.381 . S
C962 C963 1.394 . S
C962 H970 0.930 . S
C963 C962 1.394 . S
C963 C964 1.383 . S
C963 H971 0.929 . S
C964 C963 1.383 . S
C964 C965 1.377 . S
C965 H949 0.930 . S
C965 C964 1.377 . S
C965 C966 1.379 . S
C966 H950 0.931 . S
C966 C960 1.383 . S
C966 C965 1.379 . S
H967 C961 0.959 . S
H968 C961 0.961 . S
H969 C961 0.960 . S
H970 C962 0.930 . S
H971 C963 0.929 . S
H972 C980 0.929 . S
H973 C982 0.930 . S
H974 C984 0.930 . S
H975 C987 0.929 . S
H976 C990 0.930 . S
H977 C992 0.960 . S
H978 C992 0.960 . S
H979 C992 0.960 . S
C980 H972 0.929 . S
C980 C981 1.377 . S
C980 C982 1.384 . S
C981 C980 1.377 . S
C981 C987 1.390 . S
C982 H973 0.930 . S
C982 C980 1.384 . S
C982 C983 1.372 . S
C983 C982 1.372 . S
C983 C984 1.400 . S
C983 C988 1.490 . S
C984 H974 0.930 . S
C984 C983 1.400 . S
C984 C987 1.386 . S
H985 C1001 0.930 . S
H986 C1002 0.931 . S
C987 H975 0.929 . S
C987 C981 1.390 . S
C987 C984 1.386 . S
C988 C983 1.490 . S
C988 C990 1.395 . S
C988 C991 1.403 . S
H989 C995 0.930 . S
C990 H976 0.930 . S
C990 C988 1.395 . S
C990 C993 1.403 . S
C991 C988 1.403 . S
C991 C992 1.524 . S
C991 C995 1.400 . S
C992 H977 0.960 . S
C992 H978 0.960 . S
C992 H979 0.960 . S
C992 C991 1.524 . S
C993 C990 1.403 . S
C993 C994 1.392 . S
C993 C997 1.495 . S
C994 C993 1.392 . S
C994 C995 1.385 . S
C994 C996 1.478 . S
C995 H989 0.930 . S
C995 C991 1.400 . S
C995 C994 1.385 . S
C996 C994 1.478 . S
C996 C998 1.381 . S
C996 C1002 1.383 . S
C997 C993 1.495 . S
C997 H1003 0.959 . S
C997 H1004 0.961 . S
C997 H1005 0.960 . S
C998 C996 1.381 . S
C998 C999 1.394 . S
C998 H1006 0.930 . S
C999 C998 1.394 . S
C999 C1000 1.383 . S
C999 H1007 0.929 . S
C1000 C999 1.383 . S
C1000 C1001 1.377 . S
C1001 H985 0.930 . S
C1001 C1000 1.377 . S
C1001 C1002 1.379 . S
C1002 H986 0.931 . S
C1002 C996 1.383 . S
C1002 C1001 1.379 . S
H1003 C997 0.959 . S
H1004 C997 0.961 . S
H1005 C997 0.960 . S
H1006 C998 0.930 . S
H1007 C999 0.929 . S
H1008 C1016 0.929 . S
H1009 C1018 0.930 . S
H1010 C1020 0.930 . S
H1011 C1023 0.929 . S
H1012 C1026 0.930 . S
H1013 C1028 0.960 . S
H1014 C1028 0.960 . S
H1015 C1028 0.960 . S
C1016 H1008 0.929 . S
C1016 C1017 1.377 . S
C1016 C1018 1.384 . S
C1017 C1016 1.377 . S
C1017 C1023 1.390 . S
C1018 H1009 0.930 . S
C1018 C1016 1.384 . S
C1018 C1019 1.372 . S
C1019 C1018 1.372 . S
C1019 C1020 1.400 . S
C1019 C1024 1.490 . S
C1020 H1010 0.930 . S
C1020 C1019 1.400 . S
C1020 C1023 1.386 . S
H1021 C1037 0.930 . S
H1022 C1038 0.931 . S
C1023 H1011 0.929 . S
C1023 C1017 1.390 . S
C1023 C1020 1.386 . S
C1024 C1019 1.490 . S
C1024 C1026 1.395 . S
C1024 C1027 1.403 . S
H1025 C1031 0.930 . S
C1026 H1012 0.930 . S
C1026 C1024 1.395 . S
C1026 C1029 1.403 . S
C1027 C1024 1.403 . S
C1027 C1028 1.524 . S
C1027 C1031 1.400 . S
C1028 H1013 0.960 . S
C1028 H1014 0.960 . S
C1028 H1015 0.960 . S
C1028 C1027 1.524 . S
C1029 C1026 1.403 . S
C1029 C1030 1.392 . S
C1029 C1033 1.495 . S
C1030 C1029 1.392 . S
C1030 C1031 1.385 . S
C1030 C1032 1.478 . S
C1031 H1025 0.930 . S
C1031 C1027 1.400 . S
C1031 C1030 1.385 . S
C1032 C1030 1.478 . S
C1032 C1034 1.381 . S
C1032 C1038 1.383 . S
C1033 C1029 1.495 . S
C1033 H1039 0.959 . S
C1033 H1040 0.961 . S
C1033 H1041 0.960 . S
C1034 C1032 1.381 . S
C1034 C1035 1.394 . S
C1034 H1042 0.930 . S
C1035 C1034 1.394 . S
C1035 C1036 1.383 . S
C1035 H1043 0.929 . S
C1036 C1035 1.383 . S
C1036 C1037 1.377 . S
C1037 H1021 0.930 . S
C1037 C1036 1.377 . S
C1037 C1038 1.379 . S
C1038 H1022 0.931 . S
C1038 C1032 1.383 . S
C1038 C1037 1.379 . S
H1039 C1033 0.959 . S
H1040 C1033 0.961 . S
H1041 C1033 0.960 . S
H1042 C1034 0.930 . S
H1043 C1035 0.929 . S
H1044 C1052 0.929 . S
H1045 C1054 0.930 . S
H1046 C1056 0.930 . S
H1047 C1059 0.929 . S
H1048 C1062 0.930 . S
H1049 C1064 0.960 . S
H1050 C1064 0.960 . S
H1051 C1064 0.960 . S
C1052 H1044 0.929 . S
C1052 C1053 1.377 . S
C1052 C1054 1.384 . S
C1053 C1052 1.377 . S
C1053 C1059 1.390 . S
C1054 H1045 0.930 . S
C1054 C1052 1.384 . S
C1054 C1055 1.372 . S
C1055 C1054 1.372 . S
C1055 C1056 1.400 . S
C1055 C1060 1.490 . S
C1056 H1046 0.930 . S
C1056 C1055 1.400 . S
C1056 C1059 1.386 . S
H1057 C1073 0.930 . S
H1058 C1074 0.931 . S
C1059 H1047 0.929 . S
C1059 C1053 1.390 . S
C1059 C1056 1.386 . S
C1060 C1055 1.490 . S
C1060 C1062 1.395 . S
C1060 C1063 1.403 . S
H1061 C1067 0.930 . S
C1062 H1048 0.930 . S
C1062 C1060 1.395 . S
C1062 C1065 1.403 . S
C1063 C1060 1.403 . S
C1063 C1064 1.524 . S
C1063 C1067 1.400 . S
C1064 H1049 0.960 . S
C1064 H1050 0.960 . S
C1064 H1051 0.960 . S
C1064 C1063 1.524 . S
C1065 C1062 1.403 . S
C1065 C1066 1.392 . S
C1065 C1069 1.495 . S
C1066 C1065 1.392 . S
C1066 C1067 1.385 . S
C1066 C1068 1.478 . S
C1067 H1061 0.930 . S
C1067 C1063 1.400 . S
C1067 C1066 1.385 . S
C1068 C1066 1.478 . S
C1068 C1070 1.381 . S
C1068 C1074 1.383 . S
C1069 C1065 1.495 . S
C1069 H1075 0.959 . S
C1069 H1076 0.961 . S
C1069 H1077 0.960 . S
C1070 C1068 1.381 . S
C1070 C1071 1.394 . S
C1070 H1078 0.930 . S
C1071 C1070 1.394 . S
C1071 C1072 1.383 . S
C1071 H1079 0.929 . S
C1072 C1071 1.383 . S
C1072 C1073 1.377 . S
C1073 H1057 0.930 . S
C1073 C1072 1.377 . S
C1073 C1074 1.379 . S
C1074 H1058 0.931 . S
C1074 C1068 1.383 . S
C1074 C1073 1.379 . S
H1075 C1069 0.959 . S
H1076 C1069 0.961 . S
H1077 C1069 0.960 . S
H1078 C1070 0.930 . S
H1079 C1071 0.929 . S
H1080 C1088 0.929 . S
H1081 C1090 0.930 . S
H1082 C1092 0.930 . S
H1083 C1095 0.929 . S
H1084 C1098 0.930 . S
H1085 C1100 0.960 . S
H1086 C1100 0.960 . S
H1087 C1100 0.960 . S
C1088 H1080 0.929 . S
C1088 C1089 1.377 . S
C1088 C1090 1.384 . S
C1089 C1088 1.377 . S
C1089 C1095 1.390 . S
C1090 H1081 0.930 . S
C1090 C1088 1.384 . S
C1090 C1091 1.372 . S
C1091 C1090 1.372 . S
C1091 C1092 1.400 . S
C1091 C1096 1.490 . S
C1092 H1082 0.930 . S
C1092 C1091 1.400 . S
C1092 C1095 1.386 . S
H1093 C1109 0.930 . S
H1094 C1110 0.931 . S
C1095 H1083 0.929 . S
C1095 C1089 1.390 . S
C1095 C1092 1.386 . S
C1096 C1091 1.490 . S
C1096 C1098 1.395 . S
C1096 C1099 1.403 . S
H1097 C1103 0.930 . S
C1098 H1084 0.930 . S
C1098 C1096 1.395 . S
C1098 C1101 1.403 . S
C1099 C1096 1.403 . S
C1099 C1100 1.524 . S
C1099 C1103 1.400 . S
C1100 H1085 0.960 . S
C1100 H1086 0.960 . S
C1100 H1087 0.960 . S
C1100 C1099 1.524 . S
C1101 C1098 1.403 . S
C1101 C1102 1.392 . S
C1101 C1105 1.495 . S
C1102 C1101 1.392 . S
C1102 C1103 1.385 . S
C1102 C1104 1.478 . S
C1103 H1097 0.930 . S
C1103 C1099 1.400 . S
C1103 C1102 1.385 . S
C1104 C1102 1.478 . S
C1104 C1106 1.381 . S
C1104 C1110 1.383 . S
C1105 C1101 1.495 . S
C1105 H1111 0.959 . S
C1105 H1112 0.961 . S
C1105 H1113 0.960 . S
C1106 C1104 1.381 . S
C1106 C1107 1.394 . S
C1106 H1114 0.930 . S
C1107 C1106 1.394 . S
C1107 C1108 1.383 . S
C1107 H1115 0.929 . S
C1108 C1107 1.383 . S
C1108 C1109 1.377 . S
C1109 H1093 0.930 . S
C1109 C1108 1.377 . S
C1109 C1110 1.379 . S
C1110 H1094 0.931 . S
C1110 C1104 1.383 . S
C1110 C1109 1.379 . S
H1111 C1105 0.959 . S
H1112 C1105 0.961 . S
H1113 C1105 0.960 . S
H1114 C1106 0.930 . S
H1115 C1107 0.929 . S
H1116 C1124 0.929 . S
H1117 C1126 0.930 . S
H1118 C1128 0.930 . S
H1119 C1131 0.929 . S
H1120 C1134 0.930 . S
H1121 C1136 0.960 . S
H1122 C1136 0.960 . S
H1123 C1136 0.960 . S
C1124 H1116 0.929 . S
C1124 C1125 1.377 . S
C1124 C1126 1.384 . S
C1125 C1124 1.377 . S
C1125 C1131 1.390 . S
C1126 H1117 0.930 . S
C1126 C1124 1.384 . S
C1126 C1127 1.372 . S
C1127 C1126 1.372 . S
C1127 C1128 1.400 . S
C1127 C1132 1.490 . S
C1128 H1118 0.930 . S
C1128 C1127 1.400 . S
C1128 C1131 1.386 . S
H1129 C1145 0.930 . S
H1130 C1146 0.931 . S
C1131 H1119 0.929 . S
C1131 C1125 1.390 . S
C1131 C1128 1.386 . S
C1132 C1127 1.490 . S
C1132 C1134 1.395 . S
C1132 C1135 1.403 . S
H1133 C1139 0.930 . S
C1134 H1120 0.930 . S
C1134 C1132 1.395 . S
C1134 C1137 1.403 . S
C1135 C1132 1.403 . S
C1135 C1136 1.524 . S
C1135 C1139 1.400 . S
C1136 H1121 0.960 . S
C1136 H1122 0.960 . S
C1136 H1123 0.960 . S
C1136 C1135 1.524 . S
C1137 C1134 1.403 . S
C1137 C1138 1.392 . S
C1137 C1141 1.495 . S
C1138 C1137 1.392 . S
C1138 C1139 1.385 . S
C1138 C1140 1.478 . S
C1139 H1133 0.930 . S
C1139 C1135 1.400 . S
C1139 C1138 1.385 . S
C1140 C1138 1.478 . S
C1140 C1142 1.381 . S
C1140 C1146 1.383 . S
C1141 C1137 1.495 . S
C1141 H1147 0.959 . S
C1141 H1148 0.961 . S
C1141 H1149 0.960 . S
C1142 C1140 1.381 . S
C1142 C1143 1.394 . S
C1142 H1150 0.930 . S
C1143 C1142 1.394 . S
C1143 C1144 1.383 . S
C1143 H1151 0.929 . S
C1144 C1143 1.383 . S
C1144 C1145 1.377 . S
C1145 H1129 0.930 . S
C1145 C1144 1.377 . S
C1145 C1146 1.379 . S
C1146 H1130 0.931 . S
C1146 C1140 1.383 . S
C1146 C1145 1.379 . S
H1147 C1141 0.959 . S
H1148 C1141 0.961 . S
H1149 C1141 0.960 . S
H1150 C1142 0.930 . S
H1151 C1143 0.929 . S
H1152 C1160 0.929 . S
H1153 C1162 0.930 . S
H1154 C1164 0.930 . S
H1155 C1167 0.929 . S
H1156 C1170 0.930 . S
H1157 C1172 0.960 . S
H1158 C1172 0.960 . S
H1159 C1172 0.960 . S
C1160 H1152 0.929 . S
C1160 C1161 1.377 . S
C1160 C1162 1.384 . S
C1161 C1160 1.377 . S
C1161 C1167 1.390 . S
C1162 H1153 0.930 . S
C1162 C1160 1.384 . S
C1162 C1163 1.372 . S
C1163 C1162 1.372 . S
C1163 C1164 1.400 . S
C1163 C1168 1.490 . S
C1164 H1154 0.930 . S
C1164 C1163 1.400 . S
C1164 C1167 1.386 . S
H1165 C1181 0.930 . S
H1166 C1182 0.931 . S
C1167 H1155 0.929 . S
C1167 C1161 1.390 . S
C1167 C1164 1.386 . S
C1168 C1163 1.490 . S
C1168 C1170 1.395 . S
C1168 C1171 1.403 . S
H1169 C1175 0.930 . S
C1170 H1156 0.930 . S
C1170 C1168 1.395 . S
C1170 C1173 1.403 . S
C1171 C1168 1.403 . S
C1171 C1172 1.524 . S
C1171 C1175 1.400 . S
C1172 H1157 0.960 . S
C1172 H1158 0.960 . S
C1172 H1159 0.960 . S
C1172 C1171 1.524 . S
C1173 C1170 1.403 . S
C1173 C1174 1.392 . S
C1173 C1177 1.495 . S
C1174 C1173 1.392 . S
C1174 C1175 1.385 . S
C1174 C1176 1.478 . S
C1175 H1169 0.930 . S
C1175 C1171 1.400 . S
C1175 C1174 1.385 . S
C1176 C1174 1.478 . S
C1176 C1178 1.381 . S
C1176 C1182 1.383 . S
C1177 C1173 1.495 . S
C1177 H1183 0.959 . S
C1177 H1184 0.961 . S
C1177 H1185 0.960 . S
C1178 C1176 1.381 . S
C1178 C1179 1.394 . S
C1178 H1186 0.930 . S
C1179 C1178 1.394 . S
C1179 C1180 1.383 . S
C1179 H1187 0.929 . S
C1180 C1179 1.383 . S
C1180 C1181 1.377 . S
C1181 H1165 0.930 . S
C1181 C1180 1.377 . S
C1181 C1182 1.379 . S
C1182 H1166 0.931 . S
C1182 C1176 1.383 . S
C1182 C1181 1.379 . S
H1183 C1177 0.959 . S
H1184 C1177 0.961 . S
H1185 C1177 0.960 . S
H1186 C1178 0.930 . S
H1187 C1179 0.929 . S
H1188 C1196 0.929 . S
H1189 C1198 0.930 . S
H1190 C1200 0.930 . S
H1191 C1203 0.929 . S
H1192 C1206 0.930 . S
H1193 C1208 0.960 . S
H1194 C1208 0.960 . S
H1195 C1208 0.960 . S
C1196 H1188 0.929 . S
C1196 C1197 1.377 . S
C1196 C1198 1.384 . S
C1197 C1196 1.377 . S
C1197 C1203 1.390 . S
C1198 H1189 0.930 . S
C1198 C1196 1.384 . S
C1198 C1199 1.372 . S
C1199 C1198 1.372 . S
C1199 C1200 1.400 . S
C1199 C1204 1.490 . S
C1200 H1190 0.930 . S
C1200 C1199 1.400 . S
C1200 C1203 1.386 . S
H1201 C1217 0.930 . S
H1202 C1218 0.931 . S
C1203 H1191 0.929 . S
C1203 C1197 1.390 . S
C1203 C1200 1.386 . S
C1204 C1199 1.490 . S
C1204 C1206 1.395 . S
C1204 C1207 1.403 . S
H1205 C1211 0.930 . S
C1206 H1192 0.930 . S
C1206 C1204 1.395 . S
C1206 C1209 1.403 . S
C1207 C1204 1.403 . S
C1207 C1208 1.524 . S
C1207 C1211 1.400 . S
C1208 H1193 0.960 . S
C1208 H1194 0.960 . S
C1208 H1195 0.960 . S
C1208 C1207 1.524 . S
C1209 C1206 1.403 . S
C1209 C1210 1.392 . S
C1209 C1213 1.495 . S
C1210 C1209 1.392 . S
C1210 C1211 1.385 . S
C1210 C1212 1.478 . S
C1211 H1205 0.930 . S
C1211 C1207 1.400 . S
C1211 C1210 1.385 . S
C1212 C1210 1.478 . S
C1212 C1214 1.381 . S
C1212 C1218 1.383 . S
C1213 C1209 1.495 . S
C1213 H1219 0.959 . S
C1213 H1220 0.961 . S
C1213 H1221 0.960 . S
C1214 C1212 1.381 . S
C1214 C1215 1.394 . S
C1214 H1222 0.930 . S
C1215 C1214 1.394 . S
C1215 C1216 1.383 . S
C1215 H1223 0.929 . S
C1216 C1215 1.383 . S
C1216 C1217 1.377 . S
C1217 H1201 0.930 . S
C1217 C1216 1.377 . S
C1217 C1218 1.379 . S
C1218 H1202 0.931 . S
C1218 C1212 1.383 . S
C1218 C1217 1.379 . S
H1219 C1213 0.959 . S
H1220 C1213 0.961 . S
H1221 C1213 0.960 . S
H1222 C1214 0.930 . S
H1223 C1215 0.929 . S
H1224 C1232 0.929 . S
H1225 C1234 0.930 . S
H1226 C1236 0.930 . S
H1227 C1239 0.929 . S
H1228 C1242 0.930 . S
H1229 C1244 0.960 . S
H1230 C1244 0.960 . S
H1231 C1244 0.960 . S
C1232 H1224 0.929 . S
C1232 C1233 1.377 . S
C1232 C1234 1.384 . S
C1233 C1232 1.377 . S
C1233 C1239 1.390 . S
C1234 H1225 0.930 . S
C1234 C1232 1.384 . S
C1234 C1235 1.372 . S
C1235 C1234 1.372 . S
C1235 C1236 1.400 . S
C1235 C1240 1.490 . S
C1236 H1226 0.930 . S
C1236 C1235 1.400 . S
C1236 C1239 1.386 . S
H1237 C1253 0.930 . S
H1238 C1254 0.931 . S
C1239 H1227 0.929 . S
C1239 C1233 1.390 . S
C1239 C1236 1.386 . S
C1240 C1235 1.490 . S
C1240 C1242 1.395 . S
C1240 C1243 1.403 . S
H1241 C1247 0.930 . S
C1242 H1228 0.930 . S
C1242 C1240 1.395 . S
C1242 C1245 1.403 . S
C1243 C1240 1.403 . S
C1243 C1244 1.524 . S
C1243 C1247 1.400 . S
C1244 H1229 0.960 . S
C1244 H1230 0.960 . S
C1244 H1231 0.960 . S
C1244 C1243 1.524 . S
C1245 C1242 1.403 . S
C1245 C1246 1.392 . S
C1245 C1249 1.495 . S
C1246 C1245 1.392 . S
C1246 C1247 1.385 . S
C1246 C1248 1.478 . S
C1247 H1241 0.930 . S
C1247 C1243 1.400 . S
C1247 C1246 1.385 . S
C1248 C1246 1.478 . S
C1248 C1250 1.381 . S
C1248 C1254 1.383 . S
C1249 C1245 1.495 . S
C1249 H1255 0.959 . S
C1249 H1256 0.961 . S
C1249 H1257 0.960 . S
C1250 C1248 1.381 . S
C1250 C1251 1.394 . S
C1250 H1258 0.930 . S
C1251 C1250 1.394 . S
C1251 C1252 1.383 . S
C1251 H1259 0.929 . S
C1252 C1251 1.383 . S
C1252 C1253 1.377 . S
C1253 H1237 0.930 . S
C1253 C1252 1.377 . S
C1253 C1254 1.379 . S
C1254 H1238 0.931 . S
C1254 C1248 1.383 . S
C1254 C1253 1.379 . S
H1255 C1249 0.959 . S
H1256 C1249 0.961 . S
H1257 C1249 0.960 . S
H1258 C1250 0.930 . S
H1259 C1251 0.929 . S
H1260 C1268 0.929 . S
H1261 C1270 0.930 . S
H1262 C1272 0.930 . S
H1263 C1275 0.929 . S
H1264 C1278 0.930 . S
H1265 C1280 0.960 . S
H1266 C1280 0.960 . S
H1267 C1280 0.960 . S
C1268 H1260 0.929 . S
C1268 C1269 1.377 . S
C1268 C1270 1.384 . S
C1269 C1268 1.377 . S
C1269 C1275 1.390 1_554 S
C1270 H1261 0.930 . S
C1270 C1268 1.384 . S
C1270 C1271 1.372 . S
C1271 C1270 1.372 . S
C1271 C1272 1.400 1_554 S
C1271 C1276 1.490 . S
C1272 H1262 0.930 . S
C1272 C1271 1.400 1_556 S
C1272 C1275 1.386 . S
H1273 C1289 0.930 . S
H1274 C1290 0.931 . S
C1275 H1263 0.929 . S
C1275 C1269 1.390 1_556 S
C1275 C1272 1.386 . S
C1276 C1271 1.490 . S
C1276 C1278 1.395 . S
C1276 C1279 1.403 1_554 S
H1277 C1283 0.930 . S
C1278 H1264 0.930 . S
C1278 C1276 1.395 . S
C1278 C1281 1.403 . S
C1279 C1276 1.403 1_556 S
C1279 C1280 1.524 . S
C1279 C1283 1.400 . S
C1280 H1265 0.960 . S
C1280 H1266 0.960 . S
C1280 H1267 0.960 . S
C1280 C1279 1.524 . S
C1281 C1278 1.403 . S
C1281 C1282 1.392 . S
C1281 C1285 1.495 . S
C1282 C1281 1.392 . S
C1282 C1283 1.385 1_554 S
C1282 C1284 1.478 . S
C1283 H1277 0.930 . S
C1283 C1279 1.400 . S
C1283 C1282 1.385 1_556 S
C1284 C1282 1.478 . S
C1284 C1286 1.381 . S
C1284 C1290 1.383 1_554 S
C1285 C1281 1.495 . S
C1285 H1291 0.959 . S
C1285 H1292 0.961 . S
C1285 H1293 0.960 . S
C1286 C1284 1.381 . S
C1286 C1287 1.394 . S
C1286 H1294 0.930 . S
C1287 C1286 1.394 . S
C1287 C1288 1.383 . S
C1287 H1295 0.929 . S
C1288 C1287 1.383 . S
C1288 C1289 1.377 1_554 S
C1289 H1273 0.930 . S
C1289 C1288 1.377 1_556 S
C1289 C1290 1.379 . S
C1290 H1274 0.931 . S
C1290 C1284 1.383 1_556 S
C1290 C1289 1.379 . S
H1291 C1285 0.959 . S
H1292 C1285 0.961 . S
H1293 C1285 0.960 . S
H1294 C1286 0.930 . S
H1295 C1287 0.929 . S
H1296 C1304 0.929 . S
H1297 C1306 0.930 . S
H1298 C1308 0.930 . S
H1299 C1311 0.929 . S
H1300 C1314 0.923 1_556 S
H1301 C1316 0.960 . S
H1302 C1316 0.960 . S
H1303 C1316 0.957 1_556 S
C1304 H1296 0.929 . S
C1304 C1305 1.453 . S
C1304 C1306 1.384 . S
C1305 C1304 1.453 . S
C1305 C1311 1.321 1_554 S
C1306 H1297 0.930 . S
C1306 C1304 1.384 . S
C1306 C1307 1.372 . S
C1307 C1306 1.372 . S
C1307 C1308 1.400 1_554 S
C1307 C1312 1.490 . S
C1308 H1298 0.930 . S
C1308 C1307 1.400 1_556 S
C1308 C1311 1.386 . S
H1309 C1325 0.930 . S
H1310 C1326 0.931 . S
C1311 H1299 0.929 . S
C1311 C1305 1.321 1_556 S
C1311 C1308 1.386 . S
C1312 C1307 1.490 . S
C1312 C1314 1.395 . S
C1312 C1315 1.403 . S
H1313 C1319 0.930 . S
C1314 H1300 0.923 1_554 S
C1314 C1312 1.395 . S
C1314 C1317 1.404 1_554 S
C1315 C1312 1.403 . S
C1315 C1316 1.524 . S
C1315 C1319 1.400 . S
C1316 H1301 0.960 . S
C1316 H1302 0.960 . S
C1316 H1303 0.957 1_554 S
C1316 C1315 1.524 . S
C1317 C1314 1.404 1_556 S
C1317 C1318 1.394 1_556 S
C1317 C1321 1.494 . S
C1318 C1317 1.394 1_554 S
C1318 C1319 1.385 . S
C1318 C1320 1.478 . S
C1319 H1313 0.930 . S
C1319 C1315 1.400 . S
C1319 C1318 1.385 . S
C1320 C1318 1.478 . S
C1320 C1322 1.381 . S
C1320 C1326 1.383 1_554 S
C1321 C1317 1.494 . S
C1321 H1327 0.959 . S
C1321 H1328 0.961 . S
C1321 H1329 0.960 1_556 S
C1322 C1320 1.381 . S
C1322 C1323 1.394 . S
C1322 H1330 0.930 . S
C1323 C1322 1.394 . S
C1323 C1324 1.383 . S
C1323 H1331 0.929 . S
C1324 C1323 1.383 . S
C1324 C1325 1.377 1_554 S
C1325 H1309 0.930 . S
C1325 C1324 1.377 1_556 S
C1325 C1326 1.379 . S
C1326 H1310 0.931 . S
C1326 C1320 1.383 1_556 S
C1326 C1325 1.379 . S
H1327 C1321 0.959 . S
H1328 C1321 0.961 . S
H1329 C1321 0.960 1_554 S
H1330 C1322 0.930 . S
H1331 C1323 0.929 . S
H1332 C1340 0.929 . S
H1333 C1342 0.930 . S
H1334 C1344 0.930 . S
H1335 C1347 0.929 . S
H1336 C1350 0.930 . S
H1337 C1352 0.960 . S
H1338 C1352 0.960 1_554 S
H1339 C1352 0.960 . S
C1340 H1332 0.929 . S
C1340 C1341 1.377 . S
C1340 C1342 1.384 . S
C1341 C1340 1.377 . S
C1341 C1347 1.390 1_554 S
C1342 H1333 0.930 . S
C1342 C1340 1.384 . S
C1342 C1343 1.372 . S
C1343 C1342 1.372 . S
C1343 C1344 1.400 1_554 S
C1343 C1348 1.490 . S
C1344 H1334 0.930 . S
C1344 C1343 1.400 1_556 S
C1344 C1347 1.386 . S
H1345 C1361 0.930 . S
H1346 C1362 0.931 . S
C1347 H1335 0.929 . S
C1347 C1341 1.390 1_556 S
C1347 C1344 1.386 . S
C1348 C1343 1.490 . S
C1348 C1350 1.395 . S
C1348 C1351 1.404 . S
H1349 C1355 0.932 1_556 S
C1350 H1336 0.930 . S
C1350 C1348 1.395 . S
C1350 C1353 1.403 . S
C1351 C1348 1.404 . S
C1351 C1352 1.522 1_554 S
C1351 C1355 1.400 . S
C1352 H1337 0.960 . S
C1352 H1338 0.960 1_556 S
C1352 H1339 0.960 . S
C1352 C1351 1.522 1_556 S
C1353 C1350 1.403 . S
C1353 C1354 1.392 . S
C1353 C1357 1.495 . S
C1354 C1353 1.392 . S
C1354 C1355 1.384 . S
C1354 C1356 1.478 . S
C1355 H1349 0.932 1_554 S
C1355 C1351 1.400 . S
C1355 C1354 1.384 . S
C1356 C1354 1.478 . S
C1356 C1358 1.381 . S
C1356 C1362 1.383 1_554 S
C1357 C1353 1.495 . S
C1357 H1363 0.959 . S
C1357 H1364 0.954 . S
C1357 H1365 0.960 . S
C1358 C1356 1.381 . S
C1358 C1359 1.394 . S
C1358 H1366 0.930 . S
C1359 C1358 1.394 . S
C1359 C1360 1.472 . S
C1359 H1367 0.929 . S
C1360 C1359 1.472 . S
C1360 C1361 1.294 1_554 S
C1361 H1345 0.930 . S
C1361 C1360 1.294 1_556 S
C1361 C1362 1.379 . S
C1362 H1346 0.931 . S
C1362 C1356 1.383 1_556 S
C1362 C1361 1.379 . S
H1363 C1357 0.959 . S
H1364 C1357 0.954 . S
H1365 C1357 0.960 . S
H1366 C1358 0.930 . S
H1367 C1359 0.929 . S
H1368 C1376 0.929 . S
H1369 C1378 0.930 . S
H1370 C1380 0.930 . S
H1371 C1383 0.929 . S
H1372 C1386 0.930 . S
H1373 C1388 0.960 . S
H1374 C1388 0.960 . S
H1375 C1388 0.960 . S
C1376 H1368 0.929 . S
C1376 C1377 1.377 . S
C1376 C1378 1.384 . S
C1377 C1376 1.377 . S
C1377 C1383 1.390 . S
C1378 H1369 0.930 . S
C1378 C1376 1.384 . S
C1378 C1379 1.372 . S
C1379 C1378 1.372 . S
C1379 C1380 1.400 . S
C1379 C1384 1.490 . S
C1380 H1370 0.930 . S
C1380 C1379 1.400 . S
C1380 C1383 1.386 . S
H1381 C1397 0.930 . S
H1382 C1398 0.931 . S
C1383 H1371 0.929 . S
C1383 C1377 1.390 . S
C1383 C1380 1.386 . S
C1384 C1379 1.490 . S
C1384 C1386 1.395 . S
C1384 C1387 1.403 . S
H1385 C1391 0.930 . S
C1386 H1372 0.930 . S
C1386 C1384 1.395 . S
C1386 C1389 1.403 . S
C1387 C1384 1.403 . S
C1387 C1388 1.524 . S
C1387 C1391 1.400 . S
C1388 H1373 0.960 . S
C1388 H1374 0.960 . S
C1388 H1375 0.960 . S
C1388 C1387 1.524 . S
C1389 C1386 1.403 . S
C1389 C1390 1.392 . S
C1389 C1393 1.495 . S
C1390 C1389 1.392 . S
C1390 C1391 1.385 . S
C1390 C1392 1.478 . S
C1391 H1385 0.930 . S
C1391 C1387 1.400 . S
C1391 C1390 1.385 . S
C1392 C1390 1.478 . S
C1392 C1394 1.381 . S
C1392 C1398 1.383 . S
C1393 C1389 1.495 . S
C1393 H1399 0.959 . S
C1393 H1400 0.961 . S
C1393 H1401 0.960 . S
C1394 C1392 1.381 . S
C1394 C1395 1.394 . S
C1394 H1402 0.930 . S
C1395 C1394 1.394 . S
C1395 C1396 1.383 . S
C1395 H1403 0.929 . S
C1396 C1395 1.383 . S
C1396 C1397 1.377 . S
C1397 H1381 0.930 . S
C1397 C1396 1.377 . S
C1397 C1398 1.379 . S
C1398 H1382 0.931 . S
C1398 C1392 1.383 . S
C1398 C1397 1.379 . S
H1399 C1393 0.959 . S
H1400 C1393 0.961 . S
H1401 C1393 0.960 . S
H1402 C1394 0.930 . S
H1403 C1395 0.929 . S
H1404 C1412 0.929 . S
H1405 C1414 0.930 . S
H1406 C1416 0.930 . S
H1407 C1419 0.929 . S
H1408 C1422 0.930 . S
H1409 C1424 0.960 . S
H1410 C1424 0.960 . S
H1411 C1424 0.960 . S
C1412 H1404 0.929 . S
C1412 C1413 1.377 . S
C1412 C1414 1.384 . S
C1413 C1412 1.377 . S
C1413 C1419 1.390 . S
C1414 H1405 0.930 . S
C1414 C1412 1.384 . S
C1414 C1415 1.372 . S
C1415 C1414 1.372 . S
C1415 C1416 1.400 . S
C1415 C1420 1.490 . S
C1416 H1406 0.930 . S
C1416 C1415 1.400 . S
C1416 C1419 1.386 . S
H1417 C1433 0.930 . S
H1418 C1434 0.931 . S
C1419 H1407 0.929 . S
C1419 C1413 1.390 . S
C1419 C1416 1.386 . S
C1420 C1415 1.490 . S
C1420 C1422 1.395 . S
C1420 C1423 1.403 . S
H1421 C1427 0.930 . S
C1422 H1408 0.930 . S
C1422 C1420 1.395 . S
C1422 C1425 1.403 . S
C1423 C1420 1.403 . S
C1423 C1424 1.524 . S
C1423 C1427 1.400 . S
C1424 H1409 0.960 . S
C1424 H1410 0.960 . S
C1424 H1411 0.960 . S
C1424 C1423 1.524 . S
C1425 C1422 1.403 . S
C1425 C1426 1.392 . S
C1425 C1429 1.495 . S
C1426 C1425 1.392 . S
C1426 C1427 1.385 . S
C1426 C1428 1.478 . S
C1427 H1421 0.930 . S
C1427 C1423 1.400 . S
C1427 C1426 1.385 . S
C1428 C1426 1.478 . S
C1428 C1430 1.381 . S
C1428 C1434 1.383 . S
C1429 C1425 1.495 . S
C1429 H1435 0.959 . S
C1429 H1436 0.961 . S
C1429 H1437 0.960 . S
C1430 C1428 1.381 . S
C1430 C1431 1.394 . S
C1430 H1438 0.930 . S
C1431 C1430 1.394 . S
C1431 C1432 1.383 . S
C1431 H1439 0.929 . S
C1432 C1431 1.383 . S
C1432 C1433 1.377 . S
C1433 H1417 0.930 . S
C1433 C1432 1.377 . S
C1433 C1434 1.379 . S
C1434 H1418 0.931 . S
C1434 C1428 1.383 . S
C1434 C1433 1.379 . S
H1435 C1429 0.959 . S
H1436 C1429 0.961 . S
H1437 C1429 0.960 . S
H1438 C1430 0.930 . S
H1439 C1431 0.929 . S
H1440 C1448 0.929 . S
H1441 C1450 0.930 . S
H1442 C1452 0.930 . S
H1443 C1455 0.929 . S
H1444 C1458 0.930 . S
H1445 C1460 0.960 . S
H1446 C1460 0.960 . S
H1447 C1460 0.960 . S
C1448 H1440 0.929 . S
C1448 C1449 1.377 . S
C1448 C1450 1.384 . S
C1449 C1448 1.377 . S
C1449 C1455 1.390 . S
C1450 H1441 0.930 . S
C1450 C1448 1.384 . S
C1450 C1451 1.372 . S
C1451 C1450 1.372 . S
C1451 C1452 1.400 . S
C1451 C1456 1.490 . S
C1452 H1442 0.930 . S
C1452 C1451 1.400 . S
C1452 C1455 1.386 . S
H1453 C1469 0.930 . S
H1454 C1470 0.931 . S
C1455 H1443 0.929 . S
C1455 C1449 1.390 . S
C1455 C1452 1.386 . S
C1456 C1451 1.490 . S
C1456 C1458 1.395 . S
C1456 C1459 1.403 . S
H1457 C1463 0.930 . S
C1458 H1444 0.930 . S
C1458 C1456 1.395 . S
C1458 C1461 1.403 . S
C1459 C1456 1.403 . S
C1459 C1460 1.524 . S
C1459 C1463 1.400 . S
C1460 H1445 0.960 . S
C1460 H1446 0.960 . S
C1460 H1447 0.960 . S
C1460 C1459 1.524 . S
C1461 C1458 1.403 . S
C1461 C1462 1.392 . S
C1461 C1465 1.495 . S
C1462 C1461 1.392 . S
C1462 C1463 1.385 . S
C1462 C1464 1.478 . S
C1463 H1457 0.930 . S
C1463 C1459 1.400 . S
C1463 C1462 1.385 . S
C1464 C1462 1.478 . S
C1464 C1466 1.381 . S
C1464 C1470 1.383 . S
C1465 C1461 1.495 . S
C1465 H1471 0.959 . S
C1465 H1472 0.961 . S
C1465 H1473 0.960 . S
C1466 C1464 1.381 . S
C1466 C1467 1.394 . S
C1466 H1474 0.930 . S
C1467 C1466 1.394 . S
C1467 C1468 1.383 . S
C1467 H1475 0.929 . S
C1468 C1467 1.383 . S
C1468 C1469 1.377 . S
C1469 H1453 0.930 . S
C1469 C1468 1.377 . S
C1469 C1470 1.379 . S
C1470 H1454 0.931 . S
C1470 C1464 1.383 . S
C1470 C1469 1.379 . S
H1471 C1465 0.959 . S
H1472 C1465 0.961 . S
H1473 C1465 0.960 . S
H1474 C1466 0.930 . S
H1475 C1467 0.929 . S
H1476 C1484 0.929 1_554 S
H1477 C1486 0.931 . S
H1478 C1488 0.930 . S
H1479 C1491 0.929 . S
H1480 C1494 0.930 . S
H1481 C1496 0.960 . S
H1482 C1496 0.960 . S
H1483 C1496 0.960 . S
C1484 H1476 0.929 1_556 S
C1484 C1485 1.378 . S
C1484 C1486 1.384 1_556 S
C1485 C1484 1.378 . S
C1485 C1491 1.390 . S
C1486 H1477 0.931 . S
C1486 C1484 1.384 1_554 S
C1486 C1487 1.371 1_554 S
C1487 C1486 1.371 1_556 S
C1487 C1488 1.400 . S
C1487 C1492 1.490 . S
C1488 H1478 0.930 . S
C1488 C1487 1.400 . S
C1488 C1491 1.386 . S
H1489 C1505 0.930 . S
H1490 C1506 0.931 . S
C1491 H1479 0.929 . S
C1491 C1485 1.390 . S
C1491 C1488 1.386 . S
C1492 C1487 1.490 . S
C1492 C1494 1.395 1_556 S
C1492 C1495 1.403 . S
H1493 C1499 0.930 . S
C1494 H1480 0.930 . S
C1494 C1492 1.395 1_554 S
C1494 C1497 1.403 . S
C1495 C1492 1.403 . S
C1495 C1496 1.524 . S
C1495 C1499 1.400 . S
C1496 H1481 0.960 . S
C1496 H1482 0.960 . S
C1496 H1483 0.960 . S
C1496 C1495 1.524 . S
C1497 C1494 1.403 . S
C1497 C1498 1.352 1_554 S
C1497 C1501 1.495 . S
C1498 C1497 1.352 1_556 S
C1498 C1499 1.428 . S
C1498 C1500 1.477 . S
C1499 H1493 0.930 . S
C1499 C1495 1.400 . S
C1499 C1498 1.428 . S
C1500 C1498 1.477 . S
C1500 C1502 1.377 1_556 S
C1500 C1506 1.388 . S
C1501 C1497 1.495 . S
C1501 H1507 0.959 . S
C1501 H1508 0.961 . S
C1501 H1509 0.960 . S
C1502 C1500 1.377 1_554 S
C1502 C1503 1.401 . S
C1502 H1510 0.930 . S
C1503 C1502 1.401 . S
C1503 C1504 1.369 1_554 S
C1503 H1511 0.944 . S
C1504 C1503 1.369 1_556 S
C1504 C1505 1.377 . S
C1505 H1489 0.930 . S
C1505 C1504 1.377 . S
C1505 C1506 1.379 . S
C1506 H1490 0.931 . S
C1506 C1500 1.388 . S
C1506 C1505 1.379 . S
H1507 C1501 0.959 . S
H1508 C1501 0.961 . S
H1509 C1501 0.960 . S
H1510 C1502 0.930 . S
H1511 C1503 0.944 . S
H1512 C1520 0.929 . S
H1513 C1522 0.930 . S
H1514 C1524 0.930 . S
H1515 C1527 0.929 . S
H1516 C1530 0.930 . S
H1517 C1532 0.960 . S
H1518 C1532 0.960 . S
H1519 C1532 0.960 . S
C1520 H1512 0.929 . S
C1520 C1521 1.377 . S
C1520 C1522 1.384 . S
C1521 C1520 1.377 . S
C1521 C1527 1.390 1_556 S
C1522 H1513 0.930 . S
C1522 C1520 1.384 . S
C1522 C1523 1.372 . S
C1523 C1522 1.372 . S
C1523 C1524 1.400 1_556 S
C1523 C1528 1.490 . S
C1524 H1514 0.930 . S
C1524 C1523 1.400 1_554 S
C1524 C1527 1.386 . S
H1525 C1541 0.904 1_554 S
H1526 C1542 0.916 1_554 S
C1527 H1515 0.929 . S
C1527 C1521 1.390 1_554 S
C1527 C1524 1.386 . S
C1528 C1523 1.490 . S
C1528 C1530 1.395 . S
C1528 C1531 1.403 1_556 S
H1529 C1535 0.930 . S
C1530 H1516 0.930 . S
C1530 C1528 1.395 . S
C1530 C1533 1.403 . S
C1531 C1528 1.403 1_554 S
C1531 C1532 1.524 . S
C1531 C1535 1.400 . S
C1532 H1517 0.960 . S
C1532 H1518 0.960 . S
C1532 H1519 0.960 . S
C1532 C1531 1.524 . S
C1533 C1530 1.403 . S
C1533 C1534 1.392 . S
C1533 C1537 1.495 . S
C1534 C1533 1.392 . S
C1534 C1535 1.385 1_556 S
C1534 C1536 1.478 . S
C1535 H1529 0.930 . S
C1535 C1531 1.400 . S
C1535 C1534 1.385 1_554 S
C1536 C1534 1.478 . S
C1536 C1538 1.381 . S
C1536 C1542 1.383 . S
C1537 C1533 1.495 . S
C1537 H1543 0.959 . S
C1537 H1544 0.961 . S
C1537 H1545 0.960 . S
C1538 C1536 1.381 . S
C1538 C1539 1.394 . S
C1538 H1546 0.930 . S
C1539 C1538 1.394 . S
C1539 C1540 1.383 . S
C1539 H1547 0.929 . S
C1540 C1539 1.383 . S
C1540 C1541 1.403 . S
C1541 H1525 0.904 1_556 S
C1541 C1540 1.403 . S
C1541 C1542 1.387 . S
C1542 H1526 0.916 1_556 S
C1542 C1536 1.383 . S
C1542 C1541 1.387 . S
H1543 C1537 0.959 . S
H1544 C1537 0.961 . S
H1545 C1537 0.960 . S
H1546 C1538 0.930 . S
H1547 C1539 0.929 . S
H1548 C1556 0.929 . S
H1549 C1558 0.930 . S
H1550 C1560 0.930 . S
H1551 C1563 0.929 . S
H1552 C1566 0.930 . S
H1553 C1568 0.960 . S
H1554 C1568 0.960 . S
H1555 C1568 0.960 . S
C1556 H1548 0.929 . S
C1556 C1557 1.377 1_554 S
C1556 C1558 1.384 . S
C1557 C1556 1.377 1_556 S
C1557 C1563 1.390 . S
C1558 H1549 0.930 . S
C1558 C1556 1.384 . S
C1558 C1559 1.372 1_554 S
C1559 C1558 1.372 1_556 S
C1559 C1560 1.400 . S
C1559 C1564 1.490 . S
C1560 H1550 0.930 . S
C1560 C1559 1.400 . S
C1560 C1563 1.386 . S
H1561 C1577 0.930 . S
H1562 C1578 0.931 . S
C1563 H1551 0.929 . S
C1563 C1557 1.390 . S
C1563 C1560 1.386 . S
C1564 C1559 1.490 . S
C1564 C1566 1.395 1_556 S
C1564 C1567 1.403 . S
H1565 C1571 0.930 . S
C1566 H1552 0.930 . S
C1566 C1564 1.395 1_554 S
C1566 C1569 1.403 . S
C1567 C1564 1.403 . S
C1567 C1568 1.524 . S
C1567 C1571 1.400 . S
C1568 H1553 0.960 . S
C1568 H1554 0.960 . S
C1568 H1555 0.960 . S
C1568 C1567 1.524 . S
C1569 C1566 1.403 . S
C1569 C1570 1.342 1_554 S
C1569 C1573 1.495 . S
C1570 C1569 1.342 1_556 S
C1570 C1571 1.442 . S
C1570 C1572 1.478 . S
C1571 H1565 0.930 . S
C1571 C1567 1.400 . S
C1571 C1570 1.442 . S
C1572 C1570 1.478 . S
C1572 C1574 1.309 1_556 S
C1572 C1578 1.461 . S
C1573 C1569 1.495 . S
C1573 H1579 0.959 . S
C1573 H1580 0.961 . S
C1573 H1581 0.960 . S
C1574 C1572 1.309 1_554 S
C1574 C1575 1.394 . S
C1574 H1582 0.930 . S
C1575 C1574 1.394 . S
C1575 C1576 1.383 1_554 S
C1575 H1583 0.929 . S
C1576 C1575 1.383 1_556 S
C1576 C1577 1.377 . S
C1577 H1561 0.930 . S
C1577 C1576 1.377 . S
C1577 C1578 1.379 . S
C1578 H1562 0.931 . S
C1578 C1572 1.461 . S
C1578 C1577 1.379 . S
H1579 C1573 0.959 . S
H1580 C1573 0.961 . S
H1581 C1573 0.960 . S
H1582 C1574 0.930 . S
H1583 C1575 0.929 . S
H1584 C1592 0.929 . S
H1585 C1594 0.930 . S
H1586 C1596 0.930 . S
H1587 C1599 0.929 . S
H1588 C1602 0.930 . S
H1589 C1604 0.960 . S
H1590 C1604 0.960 . S
H1591 C1604 0.960 . S
C1592 H1584 0.929 . S
C1592 C1593 1.377 . S
C1592 C1594 1.384 . S
C1593 C1592 1.377 . S
C1593 C1599 1.390 . S
C1594 H1585 0.930 . S
C1594 C1592 1.384 . S
C1594 C1595 1.372 . S
C1595 C1594 1.372 . S
C1595 C1596 1.400 . S
C1595 C1600 1.490 . S
C1596 H1586 0.930 . S
C1596 C1595 1.400 . S
C1596 C1599 1.386 . S
H1597 C1613 0.930 . S
H1598 C1614 0.931 . S
C1599 H1587 0.929 . S
C1599 C1593 1.390 . S
C1599 C1596 1.386 . S
C1600 C1595 1.490 . S
C1600 C1602 1.395 . S
C1600 C1603 1.403 . S
H1601 C1607 0.930 . S
C1602 H1588 0.930 . S
C1602 C1600 1.395 . S
C1602 C1605 1.403 . S
C1603 C1600 1.403 . S
C1603 C1604 1.524 . S
C1603 C1607 1.400 . S
C1604 H1589 0.960 . S
C1604 H1590 0.960 . S
C1604 H1591 0.960 . S
C1604 C1603 1.524 . S
C1605 C1602 1.403 . S
C1605 C1606 1.392 . S
C1605 C1609 1.495 . S
C1606 C1605 1.392 . S
C1606 C1607 1.385 . S
C1606 C1608 1.478 . S
C1607 H1601 0.930 . S
C1607 C1603 1.400 . S
C1607 C1606 1.385 . S
C1608 C1606 1.478 . S
C1608 C1610 1.381 . S
C1608 C1614 1.383 . S
C1609 C1605 1.495 . S
C1609 H1615 0.959 . S
C1609 H1616 0.961 . S
C1609 H1617 0.960 . S
C1610 C1608 1.381 . S
C1610 C1611 1.394 . S
C1610 H1618 0.930 . S
C1611 C1610 1.394 . S
C1611 C1612 1.383 . S
C1611 H1619 0.929 . S
C1612 C1611 1.383 . S
C1612 C1613 1.377 . S
C1613 H1597 0.930 . S
C1613 C1612 1.377 . S
C1613 C1614 1.379 . S
C1614 H1598 0.931 . S
C1614 C1608 1.383 . S
C1614 C1613 1.379 . S
H1615 C1609 0.959 . S
H1616 C1609 0.961 . S
H1617 C1609 0.960 . S
H1618 C1610 0.930 . S
H1619 C1611 0.929 . S
H1620 C1628 0.929 . S
H1621 C1630 0.930 . S
H1622 C1632 0.930 . S
H1623 C1635 0.929 . S
H1624 C1638 0.930 . S
H1625 C1640 0.960 . S
H1626 C1640 0.960 . S
H1627 C1640 0.960 . S
C1628 H1620 0.929 . S
C1628 C1629 1.377 . S
C1628 C1630 1.384 . S
C1629 C1628 1.377 . S
C1629 C1635 1.390 . S
C1630 H1621 0.930 . S
C1630 C1628 1.384 . S
C1630 C1631 1.372 . S
C1631 C1630 1.372 . S
C1631 C1632 1.400 . S
C1631 C1636 1.490 . S
C1632 H1622 0.930 . S
C1632 C1631 1.400 . S
C1632 C1635 1.386 . S
H1633 C1649 0.930 . S
H1634 C1650 0.931 . S
C1635 H1623 0.929 . S
C1635 C1629 1.390 . S
C1635 C1632 1.386 . S
C1636 C1631 1.490 . S
C1636 C1638 1.395 . S
C1636 C1639 1.403 . S
H1637 C1643 0.930 . S
C1638 H1624 0.930 . S
C1638 C1636 1.395 . S
C1638 C1641 1.403 . S
C1639 C1636 1.403 . S
C1639 C1640 1.524 . S
C1639 C1643 1.400 . S
C1640 H1625 0.960 . S
C1640 H1626 0.960 . S
C1640 H1627 0.960 . S
C1640 C1639 1.524 . S
C1641 C1638 1.403 . S
C1641 C1642 1.392 . S
C1641 C1645 1.495 . S
C1642 C1641 1.392 . S
C1642 C1643 1.385 . S
C1642 C1644 1.478 . S
C1643 H1637 0.930 . S
C1643 C1639 1.400 . S
C1643 C1642 1.385 . S
C1644 C1642 1.478 . S
C1644 C1646 1.381 . S
C1644 C1650 1.383 . S
C1645 C1641 1.495 . S
C1645 H1651 0.959 . S
C1645 H1652 0.961 . S
C1645 H1653 0.960 . S
C1646 C1644 1.381 . S
C1646 C1647 1.394 . S
C1646 H1654 0.930 . S
C1647 C1646 1.394 . S
C1647 C1648 1.383 . S
C1647 H1655 0.929 . S
C1648 C1647 1.383 . S
C1648 C1649 1.377 . S
C1649 H1633 0.930 . S
C1649 C1648 1.377 . S
C1649 C1650 1.379 . S
C1650 H1634 0.931 . S
C1650 C1644 1.383 . S
C1650 C1649 1.379 . S
H1651 C1645 0.959 . S
H1652 C1645 0.961 . S
H1653 C1645 0.960 . S
H1654 C1646 0.930 . S
H1655 C1647 0.929 . S
H1656 C1664 0.929 . S
H1657 C1666 0.930 . S
H1658 C1668 0.930 . S
H1659 C1671 0.929 . S
H1660 C1674 0.930 . S
H1661 C1676 0.960 . S
H1662 C1676 0.960 . S
H1663 C1676 0.960 . S
C1664 H1656 0.929 . S
C1664 C1665 1.377 . S
C1664 C1666 1.384 . S
C1665 C1664 1.377 . S
C1665 C1671 1.390 . S
C1666 H1657 0.930 . S
C1666 C1664 1.384 . S
C1666 C1667 1.372 . S
C1667 C1666 1.372 . S
C1667 C1668 1.400 . S
C1667 C1672 1.490 . S
C1668 H1658 0.930 . S
C1668 C1667 1.400 . S
C1668 C1671 1.386 . S
H1669 C1685 0.930 . S
H1670 C1686 0.931 . S
C1671 H1659 0.929 . S
C1671 C1665 1.390 . S
C1671 C1668 1.386 . S
C1672 C1667 1.490 . S
C1672 C1674 1.395 . S
C1672 C1675 1.403 . S
H1673 C1679 0.930 . S
C1674 H1660 0.930 . S
C1674 C1672 1.395 . S
C1674 C1677 1.403 . S
C1675 C1672 1.403 . S
C1675 C1676 1.524 . S
C1675 C1679 1.400 . S
C1676 H1661 0.960 . S
C1676 H1662 0.960 . S
C1676 H1663 0.960 . S
C1676 C1675 1.524 . S
C1677 C1674 1.403 . S
C1677 C1678 1.392 . S
C1677 C1681 1.495 . S
C1678 C1677 1.392 . S
C1678 C1679 1.385 . S
C1678 C1680 1.478 . S
C1679 H1673 0.930 . S
C1679 C1675 1.400 . S
C1679 C1678 1.385 . S
C1680 C1678 1.478 . S
C1680 C1682 1.381 . S
C1680 C1686 1.383 . S
C1681 C1677 1.495 . S
C1681 H1687 0.959 . S
C1681 H1688 0.961 . S
C1681 H1689 0.960 . S
C1682 C1680 1.381 . S
C1682 C1683 1.394 . S
C1682 H1690 0.930 . S
C1683 C1682 1.394 . S
C1683 C1684 1.383 . S
C1683 H1691 0.929 . S
C1684 C1683 1.383 . S
C1684 C1685 1.377 . S
C1685 H1669 0.930 . S
C1685 C1684 1.377 . S
C1685 C1686 1.379 . S
C1686 H1670 0.931 . S
C1686 C1680 1.383 . S
C1686 C1685 1.379 . S
H1687 C1681 0.959 . S
H1688 C1681 0.961 . S
H1689 C1681 0.960 . S
H1690 C1682 0.930 . S
H1691 C1683 0.929 . S
H1692 C1700 0.929 . S
H1693 C1702 0.930 . S
H1694 C1704 0.930 . S
H1695 C1707 0.929 . S
H1696 C1710 0.930 . S
H1697 C1712 0.960 . S
H1698 C1712 0.960 . S
H1699 C1712 0.960 . S
C1700 H1692 0.929 . S
C1700 C1701 1.377 . S
C1700 C1702 1.384 . S
C1701 C1700 1.377 . S
C1701 C1707 1.390 . S
C1702 H1693 0.930 . S
C1702 C1700 1.384 . S
C1702 C1703 1.372 . S
C1703 C1702 1.372 . S
C1703 C1704 1.400 . S
C1703 C1708 1.490 . S
C1704 H1694 0.930 . S
C1704 C1703 1.400 . S
C1704 C1707 1.386 . S
H1705 C1721 0.930 . S
H1706 C1722 0.931 . S
C1707 H1695 0.929 . S
C1707 C1701 1.390 . S
C1707 C1704 1.386 . S
C1708 C1703 1.490 . S
C1708 C1710 1.395 . S
C1708 C1711 1.403 . S
H1709 C1715 0.930 . S
C1710 H1696 0.930 . S
C1710 C1708 1.395 . S
C1710 C1713 1.403 . S
C1711 C1708 1.403 . S
C1711 C1712 1.524 . S
C1711 C1715 1.400 . S
C1712 H1697 0.960 . S
C1712 H1698 0.960 . S
C1712 H1699 0.960 . S
C1712 C1711 1.524 . S
C1713 C1710 1.403 . S
C1713 C1714 1.392 . S
C1713 C1717 1.495 . S
C1714 C1713 1.392 . S
C1714 C1715 1.385 . S
C1714 C1716 1.478 . S
C1715 H1709 0.930 . S
C1715 C1711 1.400 . S
C1715 C1714 1.385 . S
C1716 C1714 1.478 . S
C1716 C1718 1.381 . S
C1716 C1722 1.383 . S
C1717 C1713 1.495 . S
C1717 H1723 0.959 . S
C1717 H1724 0.961 . S
C1717 H1725 0.960 . S
C1718 C1716 1.381 . S
C1718 C1719 1.394 . S
C1718 H1726 0.930 . S
C1719 C1718 1.394 . S
C1719 C1720 1.383 . S
C1719 H1727 0.929 . S
C1720 C1719 1.383 . S
C1720 C1721 1.377 . S
C1721 H1705 0.930 . S
C1721 C1720 1.377 . S
C1721 C1722 1.379 . S
C1722 H1706 0.931 . S
C1722 C1716 1.383 . S
C1722 C1721 1.379 . S
H1723 C1717 0.959 . S
H1724 C1717 0.961 . S
H1725 C1717 0.960 . S
H1726 C1718 0.930 . S
H1727 C1719 0.929 . S
H1728 C1736 0.929 . S
H1729 C1738 0.930 . S
H1730 C1740 0.930 . S
H1731 C1743 0.929 . S
H1732 C1746 0.930 . S
H1733 C1748 0.960 . S
H1734 C1748 0.960 . S
H1735 C1748 0.960 . S
C1736 H1728 0.929 . S
C1736 C1737 1.377 . S
C1736 C1738 1.384 . S
C1737 C1736 1.377 . S
C1737 C1743 1.390 . S
C1738 H1729 0.930 . S
C1738 C1736 1.384 . S
C1738 C1739 1.372 . S
C1739 C1738 1.372 . S
C1739 C1740 1.400 . S
C1739 C1744 1.490 . S
C1740 H1730 0.930 . S
C1740 C1739 1.400 . S
C1740 C1743 1.386 . S
H1741 C1757 0.930 . S
H1742 C1758 0.931 . S
C1743 H1731 0.929 . S
C1743 C1737 1.390 . S
C1743 C1740 1.386 . S
C1744 C1739 1.490 . S
C1744 C1746 1.395 . S
C1744 C1747 1.403 . S
H1745 C1751 0.930 . S
C1746 H1732 0.930 . S
C1746 C1744 1.395 . S
C1746 C1749 1.403 . S
C1747 C1744 1.403 . S
C1747 C1748 1.524 . S
C1747 C1751 1.400 . S
C1748 H1733 0.960 . S
C1748 H1734 0.960 . S
C1748 H1735 0.960 . S
C1748 C1747 1.524 . S
C1749 C1746 1.403 . S
C1749 C1750 1.392 . S
C1749 C1753 1.495 . S
C1750 C1749 1.392 . S
C1750 C1751 1.385 . S
C1750 C1752 1.478 . S
C1751 H1745 0.930 . S
C1751 C1747 1.400 . S
C1751 C1750 1.385 . S
C1752 C1750 1.478 . S
C1752 C1754 1.381 . S
C1752 C1758 1.383 . S
C1753 C1749 1.495 . S
C1753 H1759 0.959 . S
C1753 H1760 0.961 . S
C1753 H1761 0.960 . S
C1754 C1752 1.381 . S
C1754 C1755 1.394 . S
C1754 H1762 0.930 . S
C1755 C1754 1.394 . S
C1755 C1756 1.383 . S
C1755 H1763 0.929 . S
C1756 C1755 1.383 . S
C1756 C1757 1.377 . S
C1757 H1741 0.930 . S
C1757 C1756 1.377 . S
C1757 C1758 1.379 . S
C1758 H1742 0.931 . S
C1758 C1752 1.383 . S
C1758 C1757 1.379 . S
H1759 C1753 0.959 . S
H1760 C1753 0.961 . S
H1761 C1753 0.960 . S
H1762 C1754 0.930 . S
H1763 C1755 0.929 . S
H1764 C1772 0.929 . S
H1765 C1774 0.930 . S
H1766 C1776 0.930 . S
H1767 C1779 0.929 . S
H1768 C1782 0.930 . S
H1769 C1784 0.960 . S
H1770 C1784 0.960 . S
H1771 C1784 0.960 . S
C1772 H1764 0.929 . S
C1772 C1773 1.377 . S
C1772 C1774 1.384 . S
C1773 C1772 1.377 . S
C1773 C1779 1.390 . S
C1774 H1765 0.930 . S
C1774 C1772 1.384 . S
C1774 C1775 1.372 . S
C1775 C1774 1.372 . S
C1775 C1776 1.400 . S
C1775 C1780 1.490 . S
C1776 H1766 0.930 . S
C1776 C1775 1.400 . S
C1776 C1779 1.386 . S
H1777 C1793 0.930 . S
H1778 C1794 0.931 . S
C1779 H1767 0.929 . S
C1779 C1773 1.390 . S
C1779 C1776 1.386 . S
C1780 C1775 1.490 . S
C1780 C1782 1.395 . S
C1780 C1783 1.403 . S
H1781 C1787 0.930 . S
C1782 H1768 0.930 . S
C1782 C1780 1.395 . S
C1782 C1785 1.403 . S
C1783 C1780 1.403 . S
C1783 C1784 1.524 . S
C1783 C1787 1.400 . S
C1784 H1769 0.960 . S
C1784 H1770 0.960 . S
C1784 H1771 0.960 . S
C1784 C1783 1.524 . S
C1785 C1782 1.403 . S
C1785 C1786 1.392 . S
C1785 C1789 1.495 . S
C1786 C1785 1.392 . S
C1786 C1787 1.385 . S
C1786 C1788 1.478 . S
C1787 H1781 0.930 . S
C1787 C1783 1.400 . S
C1787 C1786 1.385 . S
C1788 C1786 1.478 . S
C1788 C1790 1.381 . S
C1788 C1794 1.383 . S
C1789 C1785 1.495 . S
C1789 H1795 0.959 . S
C1789 H1796 0.961 . S
C1789 H1797 0.960 . S
C1790 C1788 1.381 . S
C1790 C1791 1.394 . S
C1790 H1798 0.930 . S
C1791 C1790 1.394 . S
C1791 C1792 1.383 . S
C1791 H1799 0.929 . S
C1792 C1791 1.383 . S
C1792 C1793 1.377 . S
C1793 H1777 0.930 . S
C1793 C1792 1.377 . S
C1793 C1794 1.379 . S
C1794 H1778 0.931 . S
C1794 C1788 1.383 . S
C1794 C1793 1.379 . S
H1795 C1789 0.959 . S
H1796 C1789 0.961 . S
H1797 C1789 0.960 . S
H1798 C1790 0.930 . S
H1799 C1791 0.929 . S
H1800 C1808 0.929 . S
H1801 C1810 0.930 . S
H1802 C1812 0.930 . S
H1803 C1815 0.929 . S
H1804 C1818 0.930 . S
H1805 C1820 0.960 . S
H1806 C1820 0.960 . S
H1807 C1820 0.960 . S
C1808 H1800 0.929 . S
C1808 C1809 1.377 . S
C1808 C1810 1.384 . S
C1809 C1808 1.377 . S
C1809 C1815 1.390 . S
C1810 H1801 0.930 . S
C1810 C1808 1.384 . S
C1810 C1811 1.372 . S
C1811 C1810 1.372 . S
C1811 C1812 1.400 . S
C1811 C1816 1.490 . S
C1812 H1802 0.930 . S
C1812 C1811 1.400 . S
C1812 C1815 1.386 . S
H1813 C1829 0.930 . S
H1814 C1830 0.931 . S
C1815 H1803 0.929 . S
C1815 C1809 1.390 . S
C1815 C1812 1.386 . S
C1816 C1811 1.490 . S
C1816 C1818 1.395 . S
C1816 C1819 1.403 . S
H1817 C1823 0.930 . S
C1818 H1804 0.930 . S
C1818 C1816 1.395 . S
C1818 C1821 1.403 . S
C1819 C1816 1.403 . S
C1819 C1820 1.524 . S
C1819 C1823 1.400 . S
C1820 H1805 0.960 . S
C1820 H1806 0.960 . S
C1820 H1807 0.960 . S
C1820 C1819 1.524 . S
C1821 C1818 1.403 . S
C1821 C1822 1.392 . S
C1821 C1825 1.495 . S
C1822 C1821 1.392 . S
C1822 C1823 1.385 . S
C1822 C1824 1.478 . S
C1823 H1817 0.930 . S
C1823 C1819 1.400 . S
C1823 C1822 1.385 . S
C1824 C1822 1.478 . S
C1824 C1826 1.381 . S
C1824 C1830 1.383 . S
C1825 C1821 1.495 . S
C1825 H1831 0.959 . S
C1825 H1832 0.961 . S
C1825 H1833 0.960 . S
C1826 C1824 1.381 . S
C1826 C1827 1.394 . S
C1826 H1834 0.930 . S
C1827 C1826 1.394 . S
C1827 C1828 1.383 . S
C1827 H1835 0.929 . S
C1828 C1827 1.383 . S
C1828 C1829 1.377 . S
C1829 H1813 0.930 . S
C1829 C1828 1.377 . S
C1829 C1830 1.379 . S
C1830 H1814 0.931 . S
C1830 C1824 1.383 . S
C1830 C1829 1.379 . S
H1831 C1825 0.959 . S
H1832 C1825 0.961 . S
H1833 C1825 0.960 . S
H1834 C1826 0.930 . S
H1835 C1827 0.929 . S
H1836 C1844 0.929 . S
H1837 C1846 0.930 . S
H1838 C1848 0.930 . S
H1839 C1851 0.929 . S
H1840 C1854 0.930 . S
H1841 C1856 0.960 . S
H1842 C1856 0.960 . S
H1843 C1856 0.960 1_545 S
C1844 H1836 0.929 . S
C1844 C1845 1.377 1_565 S
C1844 C1846 1.384 . S
C1845 C1844 1.377 1_545 S
C1845 C1851 1.390 . S
C1846 H1837 0.930 . S
C1846 C1844 1.384 . S
C1846 C1847 1.372 1_565 S
C1847 C1846 1.372 1_545 S
C1847 C1848 1.400 . S
C1847 C1852 1.490 1_545 S
C1848 H1838 0.930 . S
C1848 C1847 1.400 . S
C1848 C1851 1.386 . S
H1849 C1865 0.930 . S
H1850 C1866 0.931 . S
C1851 H1839 0.929 . S
C1851 C1845 1.390 . S
C1851 C1848 1.386 . S
C1852 C1847 1.490 1_565 S
C1852 C1854 1.371 . S
C1852 C1855 1.416 . S
H1853 C1859 0.930 . S
C1854 H1840 0.930 . S
C1854 C1852 1.371 . S
C1854 C1857 1.408 . S
C1855 C1852 1.416 . S
C1855 C1856 1.511 . S
C1855 C1859 1.402 . S
C1856 H1841 0.960 . S
C1856 H1842 0.960 . S
C1856 H1843 0.960 1_565 S
C1856 C1855 1.511 . S
C1857 C1854 1.408 . S
C1857 C1858 1.392 . S
C1857 C1861 1.495 . S
C1858 C1857 1.392 . S
C1858 C1859 1.385 . S
C1858 C1860 1.478 . S
C1859 H1853 0.930 . S
C1859 C1855 1.402 . S
C1859 C1858 1.385 . S
C1860 C1858 1.478 . S
C1860 C1862 1.381 . S
C1860 C1866 1.383 1_565 S
C1861 C1857 1.495 . S
C1861 H1867 0.959 . S
C1861 H1868 0.961 1_565 S
C1861 H1869 0.960 . S
C1862 C1860 1.381 . S
C1862 C1863 1.394 . S
C1862 H1870 0.930 . S
C1863 C1862 1.394 . S
C1863 C1864 1.383 . S
C1863 H1871 0.929 . S
C1864 C1863 1.383 . S
C1864 C1865 1.377 1_565 S
C1865 H1849 0.930 . S
C1865 C1864 1.377 1_545 S
C1865 C1866 1.379 . S
C1866 H1850 0.931 . S
C1866 C1860 1.383 1_545 S
C1866 C1865 1.379 . S
H1867 C1861 0.959 . S
H1868 C1861 0.961 1_545 S
H1869 C1861 0.960 . S
H1870 C1862 0.930 . S
H1871 C1863 0.929 . S
H1872 C1880 0.929 . S
H1873 C1882 0.930 . S
H1874 C1884 0.930 . S
H1875 C1887 0.929 . S
H1876 C1890 0.930 . S
H1877 C1892 0.960 . S
H1878 C1892 0.960 1_455 S
H1879 C1892 0.960 . S
C1880 H1872 0.929 . S
C1880 C1881 1.377 . S
C1880 C1882 1.384 . S
C1881 C1880 1.377 . S
C1881 C1887 1.390 1_455 S
C1882 H1873 0.930 . S
C1882 C1880 1.384 . S
C1882 C1883 1.372 . S
C1883 C1882 1.372 . S
C1883 C1884 1.400 1_455 S
C1883 C1888 1.490 . S
C1884 H1874 0.930 . S
C1884 C1883 1.400 1_655 S
C1884 C1887 1.386 . S
H1885 C1901 0.930 . S
H1886 C1902 0.931 . S
C1887 H1875 0.929 . S
C1887 C1881 1.390 1_655 S
C1887 C1884 1.386 . S
C1888 C1883 1.490 . S
C1888 C1890 1.395 . S
C1888 C1891 1.403 1_455 S
H1889 C1895 0.930 . S
C1890 H1876 0.930 . S
C1890 C1888 1.395 . S
C1890 C1893 1.403 . S
C1891 C1888 1.403 1_655 S
C1891 C1892 1.524 . S
C1891 C1895 1.400 . S
C1892 H1877 0.960 . S
C1892 H1878 0.960 1_655 S
C1892 H1879 0.960 . S
C1892 C1891 1.524 . S
C1893 C1890 1.403 . S
C1893 C1894 1.392 . S
C1893 C1897 1.495 . S
C1894 C1893 1.392 . S
C1894 C1895 1.385 1_455 S
C1894 C1896 1.476 1_455 S
C1895 H1889 0.930 . S
C1895 C1891 1.400 . S
C1895 C1894 1.385 1_655 S
C1896 C1894 1.476 1_655 S
C1896 C1898 1.362 1_655 S
C1896 C1902 1.404 . S
C1897 C1893 1.495 . S
C1897 H1903 0.959 . S
C1897 H1904 0.961 . S
C1897 H1905 0.960 . S
C1898 C1896 1.362 1_455 S
C1898 C1899 1.394 . S
C1898 H1906 0.930 . S
C1899 C1898 1.394 . S
C1899 C1900 1.383 1_455 S
C1899 H1907 0.929 . S
C1900 C1899 1.383 1_655 S
C1900 C1901 1.377 . S
C1901 H1885 0.930 . S
C1901 C1900 1.377 . S
C1901 C1902 1.379 . S
C1902 H1886 0.931 . S
C1902 C1896 1.404 . S
C1902 C1901 1.379 . S
H1903 C1897 0.959 . S
H1904 C1897 0.961 . S
H1905 C1897 0.960 . S
H1906 C1898 0.930 . S
H1907 C1899 0.929 . S
H1908 C1916 0.929 . S
H1909 C1918 0.930 . S
H1910 C1920 0.930 . S
H1911 C1923 0.929 . S
H1912 C1926 0.930 . S
H1913 C1928 0.960 . S
H1914 C1928 0.960 . S
H1915 C1928 0.960 . S
C1916 H1908 0.929 . S
C1916 C1917 1.377 . S
C1916 C1918 1.384 . S
C1917 C1916 1.377 . S
C1917 C1923 1.390 . S
C1918 H1909 0.930 . S
C1918 C1916 1.384 . S
C1918 C1919 1.372 . S
C1919 C1918 1.372 . S
C1919 C1920 1.400 . S
C1919 C1924 1.490 . S
C1920 H1910 0.930 . S
C1920 C1919 1.400 . S
C1920 C1923 1.386 . S
H1921 C1937 0.930 . S
H1922 C1938 0.931 . S
C1923 H1911 0.929 . S
C1923 C1917 1.390 . S
C1923 C1920 1.386 . S
C1924 C1919 1.490 . S
C1924 C1926 1.395 . S
C1924 C1927 1.403 . S
H1925 C1931 0.930 . S
C1926 H1912 0.930 . S
C1926 C1924 1.395 . S
C1926 C1929 1.403 . S
C1927 C1924 1.403 . S
C1927 C1928 1.524 . S
C1927 C1931 1.400 . S
C1928 H1913 0.960 . S
C1928 H1914 0.960 . S
C1928 H1915 0.960 . S
C1928 C1927 1.524 . S
C1929 C1926 1.403 . S
C1929 C1930 1.392 . S
C1929 C1933 1.495 . S
C1930 C1929 1.392 . S
C1930 C1931 1.385 . S
C1930 C1932 1.478 . S
C1931 H1925 0.930 . S
C1931 C1927 1.400 . S
C1931 C1930 1.385 . S
C1932 C1930 1.478 . S
C1932 C1934 1.381 . S
C1932 C1938 1.383 . S
C1933 C1929 1.495 . S
C1933 H1939 0.959 . S
C1933 H1940 0.961 . S
C1933 H1941 0.960 . S
C1934 C1932 1.381 . S
C1934 C1935 1.394 . S
C1934 H1942 0.930 . S
C1935 C1934 1.394 . S
C1935 C1936 1.383 . S
C1935 H1943 0.929 . S
C1936 C1935 1.383 . S
C1936 C1937 1.377 . S
C1937 H1921 0.930 . S
C1937 C1936 1.377 . S
C1937 C1938 1.379 . S
C1938 H1922 0.931 . S
C1938 C1932 1.383 . S
C1938 C1937 1.379 . S
H1939 C1933 0.959 . S
H1940 C1933 0.961 . S
H1941 C1933 0.960 . S
H1942 C1934 0.930 . S
H1943 C1935 0.929 . S
H1944 C1952 0.929 . S
H1945 C1954 0.930 . S
H1946 C1956 0.930 . S
H1947 C1959 0.929 . S
H1948 C1962 0.930 . S
H1949 C1964 0.960 . S
H1950 C1964 0.960 . S
H1951 C1964 0.960 . S
C1952 H1944 0.929 . S
C1952 C1953 1.377 . S
C1952 C1954 1.384 . S
C1953 C1952 1.377 . S
C1953 C1959 1.390 1_565 S
C1954 H1945 0.930 . S
C1954 C1952 1.384 . S
C1954 C1955 1.372 . S
C1955 C1954 1.372 . S
C1955 C1956 1.400 1_565 S
C1955 C1960 1.490 . S
C1956 H1946 0.930 . S
C1956 C1955 1.400 1_545 S
C1956 C1959 1.386 . S
H1957 C1973 0.930 . S
H1958 C1974 0.931 . S
C1959 H1947 0.929 . S
C1959 C1953 1.390 1_545 S
C1959 C1956 1.386 . S
C1960 C1955 1.490 . S
C1960 C1962 1.395 . S
C1960 C1963 1.403 1_565 S
H1961 C1967 0.930 . S
C1962 H1948 0.930 . S
C1962 C1960 1.395 . S
C1962 C1965 1.403 . S
C1963 C1960 1.403 1_545 S
C1963 C1964 1.524 . S
C1963 C1967 1.400 . S
C1964 H1949 0.960 . S
C1964 H1950 0.960 . S
C1964 H1951 0.960 . S
C1964 C1963 1.524 . S
C1965 C1962 1.403 . S
C1965 C1966 1.392 . S
C1965 C1969 1.495 . S
C1966 C1965 1.392 . S
C1966 C1967 1.385 1_565 S
C1966 C1968 1.478 . S
C1967 H1961 0.930 . S
C1967 C1963 1.400 . S
C1967 C1966 1.385 1_545 S
C1968 C1966 1.478 . S
C1968 C1970 1.381 . S
C1968 C1974 1.383 1_565 S
C1969 C1965 1.495 . S
C1969 H1975 0.959 . S
C1969 H1976 0.961 . S
C1969 H1977 0.960 . S
C1970 C1968 1.381 . S
C1970 C1971 1.394 . S
C1970 H1978 0.930 . S
C1971 C1970 1.394 . S
C1971 C1972 1.383 1_565 S
C1971 H1979 0.929 . S
C1972 C1971 1.383 1_545 S
C1972 C1973 1.377 . S
C1973 H1957 0.930 . S
C1973 C1972 1.377 . S
C1973 C1974 1.379 . S
C1974 H1958 0.931 . S
C1974 C1968 1.383 1_545 S
C1974 C1973 1.379 . S
H1975 C1969 0.959 . S
H1976 C1969 0.961 . S
H1977 C1969 0.960 . S
H1978 C1970 0.930 . S
H1979 C1971 0.929 . S
H1980 C1988 0.929 . S
H1981 C1990 0.930 . S
H1982 C1992 0.930 . S
H1983 C1995 0.929 . S
H1984 C1998 0.930 . S
H1985 C2000 0.960 . S
H1986 C2000 0.960 . S
H1987 C2000 0.960 . S
C1988 H1980 0.929 . S
C1988 C1989 1.377 1_455 S
C1988 C1990 1.384 . S
C1989 C1988 1.377 1_655 S
C1989 C1995 1.390 . S
C1990 H1981 0.930 . S
C1990 C1988 1.384 . S
C1990 C1991 1.372 1_455 S
C1991 C1990 1.372 1_655 S
C1991 C1992 1.400 . S
C1991 C1996 1.488 1_655 S
C1992 H1982 0.930 . S
C1992 C1991 1.400 . S
C1992 C1995 1.386 . S
H1993 C2009 0.930 . S
H1994 C2010 0.931 . S
C1995 H1983 0.929 . S
C1995 C1989 1.390 . S
C1995 C1992 1.386 . S
C1996 C1991 1.488 1_455 S
C1996 C1998 1.422 . S
C1996 C1999 1.379 1_455 S
H1997 C2003 0.930 . S
C1998 H1984 0.930 . S
C1998 C1996 1.422 . S
C1998 C2001 1.403 . S
C1999 C1996 1.379 1_655 S
C1999 C2000 1.524 . S
C1999 C2003 1.400 . S
C2000 H1985 0.960 . S
C2000 H1986 0.960 . S
C2000 H1987 0.960 . S
C2000 C1999 1.524 . S
C2001 C1998 1.403 . S
C2001 C2002 1.392 . S
C2001 C2005 1.495 . S
C2002 C2001 1.392 . S
C2002 C2003 1.385 1_455 S
C2002 C2004 1.478 . S
C2003 H1997 0.930 . S
C2003 C1999 1.400 . S
C2003 C2002 1.385 1_655 S
C2004 C2002 1.478 . S
C2004 C2006 1.381 . S
C2004 C2010 1.383 1_455 S
C2005 C2001 1.495 . S
C2005 H2011 0.959 . S
C2005 H2012 0.961 . S
C2005 H2013 0.960 . S
C2006 C2004 1.381 . S
C2006 C2007 1.394 . S
C2006 H2014 0.930 . S
C2007 C2006 1.394 . S
C2007 C2008 1.383 . S
C2007 H2015 0.929 . S
C2008 C2007 1.383 . S
C2008 C2009 1.377 1_455 S
C2009 H1993 0.930 . S
C2009 C2008 1.377 1_655 S
C2009 C2010 1.379 . S
C2010 H1994 0.931 . S
C2010 C2004 1.383 1_655 S
C2010 C2009 1.379 . S
H2011 C2005 0.959 . S
H2012 C2005 0.961 . S
H2013 C2005 0.960 . S
H2014 C2006 0.930 . S
H2015 C2007 0.929 . S
H2016 C2024 0.929 . S
H2017 C2026 0.930 . S
H2018 C2028 0.930 . S
H2019 C2031 0.929 . S
H2020 C2034 0.930 . S
H2021 C2036 0.960 . S
H2022 C2036 0.960 . S
H2023 C2036 0.960 . S
C2024 H2016 0.929 . S
C2024 C2025 1.377 . S
C2024 C2026 1.384 . S
C2025 C2024 1.377 . S
C2025 C2031 1.390 . S
C2026 H2017 0.930 . S
C2026 C2024 1.384 . S
C2026 C2027 1.372 . S
C2027 C2026 1.372 . S
C2027 C2028 1.400 . S
C2027 C2032 1.490 . S
C2028 H2018 0.930 . S
C2028 C2027 1.400 . S
C2028 C2031 1.386 . S
H2029 C2045 0.930 . S
H2030 C2046 0.931 . S
C2031 H2019 0.929 . S
C2031 C2025 1.390 . S
C2031 C2028 1.386 . S
C2032 C2027 1.490 . S
C2032 C2034 1.395 . S
C2032 C2035 1.403 . S
H2033 C2039 0.930 . S
C2034 H2020 0.930 . S
C2034 C2032 1.395 . S
C2034 C2037 1.403 . S
C2035 C2032 1.403 . S
C2035 C2036 1.524 . S
C2035 C2039 1.400 . S
C2036 H2021 0.960 . S
C2036 H2022 0.960 . S
C2036 H2023 0.960 . S
C2036 C2035 1.524 . S
C2037 C2034 1.403 . S
C2037 C2038 1.392 . S
C2037 C2041 1.495 . S
C2038 C2037 1.392 . S
C2038 C2039 1.385 . S
C2038 C2040 1.478 . S
C2039 H2033 0.930 . S
C2039 C2035 1.400 . S
C2039 C2038 1.385 . S
C2040 C2038 1.478 . S
C2040 C2042 1.381 . S
C2040 C2046 1.383 . S
C2041 C2037 1.495 . S
C2041 H2047 0.959 . S
C2041 H2048 0.961 . S
C2041 H2049 0.960 . S
C2042 C2040 1.381 . S
C2042 C2043 1.394 . S
C2042 H2050 0.930 . S
C2043 C2042 1.394 . S
C2043 C2044 1.383 . S
C2043 H2051 0.929 . S
C2044 C2043 1.383 . S
C2044 C2045 1.377 . S
C2045 H2029 0.930 . S
C2045 C2044 1.377 . S
C2045 C2046 1.379 . S
C2046 H2030 0.931 . S
C2046 C2040 1.383 . S
C2046 C2045 1.379 . S
H2047 C2041 0.959 . S
H2048 C2041 0.961 . S
H2049 C2041 0.960 . S
H2050 C2042 0.930 . S
H2051 C2043 0.929 . S
H2052 C2060 0.929 . S
H2053 C2062 0.930 . S
H2054 C2064 0.930 . S
H2055 C2067 0.929 . S
H2056 C2070 0.930 . S
H2057 C2072 0.960 . S
H2058 C2072 0.960 . S
H2059 C2072 0.960 . S
C2060 H2052 0.929 . S
C2060 C2061 1.377 . S
C2060 C2062 1.384 . S
C2061 C2060 1.377 . S
C2061 C2067 1.390 . S
C2062 H2053 0.930 . S
C2062 C2060 1.384 . S
C2062 C2063 1.372 . S
C2063 C2062 1.372 . S
C2063 C2064 1.400 . S
C2063 C2068 1.490 . S
C2064 H2054 0.930 . S
C2064 C2063 1.400 . S
C2064 C2067 1.386 . S
H2065 C2081 0.930 . S
H2066 C2082 0.931 . S
C2067 H2055 0.929 . S
C2067 C2061 1.390 . S
C2067 C2064 1.386 . S
C2068 C2063 1.490 . S
C2068 C2070 1.395 . S
C2068 C2071 1.403 . S
H2069 C2075 0.930 . S
C2070 H2056 0.930 . S
C2070 C2068 1.395 . S
C2070 C2073 1.403 . S
C2071 C2068 1.403 . S
C2071 C2072 1.524 . S
C2071 C2075 1.400 . S
C2072 H2057 0.960 . S
C2072 H2058 0.960 . S
C2072 H2059 0.960 . S
C2072 C2071 1.524 . S
C2073 C2070 1.403 . S
C2073 C2074 1.392 . S
C2073 C2077 1.495 . S
C2074 C2073 1.392 . S
C2074 C2075 1.385 . S
C2074 C2076 1.478 . S
C2075 H2069 0.930 . S
C2075 C2071 1.400 . S
C2075 C2074 1.385 . S
C2076 C2074 1.478 . S
C2076 C2078 1.381 . S
C2076 C2082 1.383 . S
C2077 C2073 1.495 . S
C2077 H2083 0.959 . S
C2077 H2084 0.961 . S
C2077 H2085 0.960 . S
C2078 C2076 1.381 . S
C2078 C2079 1.394 . S
C2078 H2086 0.930 . S
C2079 C2078 1.394 . S
C2079 C2080 1.383 . S
C2079 H2087 0.929 . S
C2080 C2079 1.383 . S
C2080 C2081 1.377 . S
C2081 H2065 0.930 . S
C2081 C2080 1.377 . S
C2081 C2082 1.379 . S
C2082 H2066 0.931 . S
C2082 C2076 1.383 . S
C2082 C2081 1.379 . S
H2083 C2077 0.959 . S
H2084 C2077 0.961 . S
H2085 C2077 0.960 . S
H2086 C2078 0.930 . S
H2087 C2079 0.929 . S
H2088 C2096 0.929 . S
H2089 C2098 0.930 . S
H2090 C2100 0.930 . S
H2091 C2103 0.929 . S
H2092 C2106 0.930 . S
H2093 C2108 0.960 . S
H2094 C2108 0.960 . S
H2095 C2108 0.960 . S
C2096 H2088 0.929 . S
C2096 C2097 1.377 . S
C2096 C2098 1.384 . S
C2097 C2096 1.377 . S
C2097 C2103 1.390 . S
C2098 H2089 0.930 . S
C2098 C2096 1.384 . S
C2098 C2099 1.372 . S
C2099 C2098 1.372 . S
C2099 C2100 1.400 . S
C2099 C2104 1.490 . S
C2100 H2090 0.930 . S
C2100 C2099 1.400 . S
C2100 C2103 1.386 . S
H2101 C2117 0.930 . S
H2102 C2118 0.931 . S
C2103 H2091 0.929 . S
C2103 C2097 1.390 . S
C2103 C2100 1.386 . S
C2104 C2099 1.490 . S
C2104 C2106 1.395 . S
C2104 C2107 1.403 . S
H2105 C2111 0.930 . S
C2106 H2092 0.930 . S
C2106 C2104 1.395 . S
C2106 C2109 1.403 . S
C2107 C2104 1.403 . S
C2107 C2108 1.524 . S
C2107 C2111 1.400 . S
C2108 H2093 0.960 . S
C2108 H2094 0.960 . S
C2108 H2095 0.960 . S
C2108 C2107 1.524 . S
C2109 C2106 1.403 . S
C2109 C2110 1.392 . S
C2109 C2113 1.495 . S
C2110 C2109 1.392 . S
C2110 C2111 1.385 . S
C2110 C2112 1.478 . S
C2111 H2105 0.930 . S
C2111 C2107 1.400 . S
C2111 C2110 1.385 . S
C2112 C2110 1.478 . S
C2112 C2114 1.381 . S
C2112 C2118 1.383 . S
C2113 C2109 1.495 . S
C2113 H2119 0.959 . S
C2113 H2120 0.961 . S
C2113 H2121 0.960 . S
C2114 C2112 1.381 . S
C2114 C2115 1.394 . S
C2114 H2122 0.930 . S
C2115 C2114 1.394 . S
C2115 C2116 1.383 . S
C2115 H2123 0.929 . S
C2116 C2115 1.383 . S
C2116 C2117 1.377 . S
C2117 H2101 0.930 . S
C2117 C2116 1.377 . S
C2117 C2118 1.379 . S
C2118 H2102 0.931 . S
C2118 C2112 1.383 . S
C2118 C2117 1.379 . S
H2119 C2113 0.959 . S
H2120 C2113 0.961 . S
H2121 C2113 0.960 . S
H2122 C2114 0.930 . S
H2123 C2115 0.929 . S
H2124 C2132 0.929 . S
H2125 C2134 0.930 . S
H2126 C2136 0.930 . S
H2127 C2139 0.929 . S
H2128 C2142 0.930 . S
H2129 C2144 0.960 . S
H2130 C2144 0.960 . S
H2131 C2144 0.960 . S
C2132 H2124 0.929 . S
C2132 C2133 1.377 . S
C2132 C2134 1.384 . S
C2133 C2132 1.377 . S
C2133 C2139 1.390 . S
C2134 H2125 0.930 . S
C2134 C2132 1.384 . S
C2134 C2135 1.372 . S
C2135 C2134 1.372 . S
C2135 C2136 1.400 . S
C2135 C2140 1.490 . S
C2136 H2126 0.930 . S
C2136 C2135 1.400 . S
C2136 C2139 1.386 . S
H2137 C2153 0.930 . S
H2138 C2154 0.931 . S
C2139 H2127 0.929 . S
C2139 C2133 1.390 . S
C2139 C2136 1.386 . S
C2140 C2135 1.490 . S
C2140 C2142 1.395 . S
C2140 C2143 1.403 . S
H2141 C2147 0.930 . S
C2142 H2128 0.930 . S
C2142 C2140 1.395 . S
C2142 C2145 1.403 . S
C2143 C2140 1.403 . S
C2143 C2144 1.524 . S
C2143 C2147 1.400 . S
C2144 H2129 0.960 . S
C2144 H2130 0.960 . S
C2144 H2131 0.960 . S
C2144 C2143 1.524 . S
C2145 C2142 1.403 . S
C2145 C2146 1.392 . S
C2145 C2149 1.495 . S
C2146 C2145 1.392 . S
C2146 C2147 1.385 . S
C2146 C2148 1.478 . S
C2147 H2141 0.930 . S
C2147 C2143 1.400 . S
C2147 C2146 1.385 . S
C2148 C2146 1.478 . S
C2148 C2150 1.381 . S
C2148 C2154 1.383 . S
C2149 C2145 1.495 . S
C2149 H2155 0.959 . S
C2149 H2156 0.961 . S
C2149 H2157 0.960 . S
C2150 C2148 1.381 . S
C2150 C2151 1.394 . S
C2150 H2158 0.930 . S
C2151 C2150 1.394 . S
C2151 C2152 1.383 . S
C2151 H2159 0.929 . S
C2152 C2151 1.383 . S
C2152 C2153 1.377 . S
C2153 H2137 0.930 . S
C2153 C2152 1.377 . S
C2153 C2154 1.379 . S
C2154 H2138 0.931 . S
C2154 C2148 1.383 . S
C2154 C2153 1.379 . S
H2155 C2149 0.959 . S
H2156 C2149 0.961 . S
H2157 C2149 0.960 . S
H2158 C2150 0.930 . S
H2159 C2151 0.929 . S
H2160 C2168 0.929 . S
H2161 C2170 0.930 . S
H2162 C2172 0.930 . S
H2163 C2175 0.929 . S
H2164 C2178 0.930 . S
H2165 C2180 0.960 . S
H2166 C2180 0.960 . S
H2167 C2180 0.960 . S
C2168 H2160 0.929 . S
C2168 C2169 1.377 . S
C2168 C2170 1.384 . S
C2169 C2168 1.377 . S
C2169 C2175 1.390 . S
C2170 H2161 0.930 . S
C2170 C2168 1.384 . S
C2170 C2171 1.372 . S
C2171 C2170 1.372 . S
C2171 C2172 1.400 . S
C2171 C2176 1.490 . S
C2172 H2162 0.930 . S
C2172 C2171 1.400 . S
C2172 C2175 1.386 . S
H2173 C2189 0.930 . S
H2174 C2190 0.931 . S
C2175 H2163 0.929 . S
C2175 C2169 1.390 . S
C2175 C2172 1.386 . S
C2176 C2171 1.490 . S
C2176 C2178 1.395 . S
C2176 C2179 1.403 . S
H2177 C2183 0.930 . S
C2178 H2164 0.930 . S
C2178 C2176 1.395 . S
C2178 C2181 1.403 . S
C2179 C2176 1.403 . S
C2179 C2180 1.524 . S
C2179 C2183 1.400 . S
C2180 H2165 0.960 . S
C2180 H2166 0.960 . S
C2180 H2167 0.960 . S
C2180 C2179 1.524 . S
C2181 C2178 1.403 . S
C2181 C2182 1.392 . S
C2181 C2185 1.495 . S
C2182 C2181 1.392 . S
C2182 C2183 1.385 . S
C2182 C2184 1.478 . S
C2183 H2177 0.930 . S
C2183 C2179 1.400 . S
C2183 C2182 1.385 . S
C2184 C2182 1.478 . S
C2184 C2186 1.381 . S
C2184 C2190 1.383 . S
C2185 C2181 1.495 . S
C2185 H2191 0.959 . S
C2185 H2192 0.961 . S
C2185 H2193 0.960 . S
C2186 C2184 1.381 . S
C2186 C2187 1.394 . S
C2186 H2194 0.930 . S
C2187 C2186 1.394 . S
C2187 C2188 1.383 . S
C2187 H2195 0.929 . S
C2188 C2187 1.383 . S
C2188 C2189 1.377 . S
C2189 H2173 0.930 . S
C2189 C2188 1.377 . S
C2189 C2190 1.379 . S
C2190 H2174 0.931 . S
C2190 C2184 1.383 . S
C2190 C2189 1.379 . S
H2191 C2185 0.959 . S
H2192 C2185 0.961 . S
H2193 C2185 0.960 . S
H2194 C2186 0.930 . S
H2195 C2187 0.929 . S
H2196 C2204 0.929 . S
H2197 C2206 0.930 . S
H2198 C2208 0.930 . S
H2199 C2211 0.929 . S
H2200 C2214 0.930 . S
H2201 C2216 0.960 . S
H2202 C2216 0.960 . S
H2203 C2216 0.960 . S
C2204 H2196 0.929 . S
C2204 C2205 1.377 . S
C2204 C2206 1.384 . S
C2205 C2204 1.377 . S
C2205 C2211 1.390 . S
C2206 H2197 0.930 . S
C2206 C2204 1.384 . S
C2206 C2207 1.372 . S
C2207 C2206 1.372 . S
C2207 C2208 1.400 . S
C2207 C2212 1.490 . S
C2208 H2198 0.930 . S
C2208 C2207 1.400 . S
C2208 C2211 1.386 . S
H2209 C2225 0.930 . S
H2210 C2226 0.931 . S
C2211 H2199 0.929 . S
C2211 C2205 1.390 . S
C2211 C2208 1.386 . S
C2212 C2207 1.490 . S
C2212 C2214 1.395 . S
C2212 C2215 1.403 . S
H2213 C2219 0.930 . S
C2214 H2200 0.930 . S
C2214 C2212 1.395 . S
C2214 C2217 1.403 . S
C2215 C2212 1.403 . S
C2215 C2216 1.524 . S
C2215 C2219 1.400 . S
C2216 H2201 0.960 . S
C2216 H2202 0.960 . S
C2216 H2203 0.960 . S
C2216 C2215 1.524 . S
C2217 C2214 1.403 . S
C2217 C2218 1.392 . S
C2217 C2221 1.495 . S
C2218 C2217 1.392 . S
C2218 C2219 1.385 . S
C2218 C2220 1.478 . S
C2219 H2213 0.930 . S
C2219 C2215 1.400 . S
C2219 C2218 1.385 . S
C2220 C2218 1.478 . S
C2220 C2222 1.381 . S
C2220 C2226 1.383 . S
C2221 C2217 1.495 . S
C2221 H2227 0.959 . S
C2221 H2228 0.961 . S
C2221 H2229 0.960 . S
C2222 C2220 1.381 . S
C2222 C2223 1.394 . S
C2222 H2230 0.930 . S
C2223 C2222 1.394 . S
C2223 C2224 1.383 . S
C2223 H2231 0.929 . S
C2224 C2223 1.383 . S
C2224 C2225 1.377 . S
C2225 H2209 0.930 . S
C2225 C2224 1.377 . S
C2225 C2226 1.379 . S
C2226 H2210 0.931 . S
C2226 C2220 1.383 . S
C2226 C2225 1.379 . S
H2227 C2221 0.959 . S
H2228 C2221 0.961 . S
H2229 C2221 0.960 . S
H2230 C2222 0.930 . S
H2231 C2223 0.929 . S
H2232 C2240 0.929 . S
H2233 C2242 0.930 . S
H2234 C2244 0.930 . S
H2235 C2247 0.929 . S
H2236 C2250 0.930 . S
H2237 C2252 0.960 . S
H2238 C2252 0.960 . S
H2239 C2252 0.960 . S
C2240 H2232 0.929 . S
C2240 C2241 1.377 . S
C2240 C2242 1.384 . S
C2241 C2240 1.377 . S
C2241 C2247 1.390 . S
C2242 H2233 0.930 . S
C2242 C2240 1.384 . S
C2242 C2243 1.372 . S
C2243 C2242 1.372 . S
C2243 C2244 1.400 . S
C2243 C2248 1.490 . S
C2244 H2234 0.930 . S
C2244 C2243 1.400 . S
C2244 C2247 1.386 . S
H2245 C2261 0.930 . S
H2246 C2262 0.931 . S
C2247 H2235 0.929 . S
C2247 C2241 1.390 . S
C2247 C2244 1.386 . S
C2248 C2243 1.490 . S
C2248 C2250 1.395 . S
C2248 C2251 1.403 . S
H2249 C2255 0.930 . S
C2250 H2236 0.930 . S
C2250 C2248 1.395 . S
C2250 C2253 1.403 . S
C2251 C2248 1.403 . S
C2251 C2252 1.524 . S
C2251 C2255 1.400 . S
C2252 H2237 0.960 . S
C2252 H2238 0.960 . S
C2252 H2239 0.960 . S
C2252 C2251 1.524 . S
C2253 C2250 1.403 . S
C2253 C2254 1.392 . S
C2253 C2257 1.495 . S
C2254 C2253 1.392 . S
C2254 C2255 1.385 . S
C2254 C2256 1.478 . S
C2255 H2249 0.930 . S
C2255 C2251 1.400 . S
C2255 C2254 1.385 . S
C2256 C2254 1.478 . S
C2256 C2258 1.381 . S
C2256 C2262 1.383 . S
C2257 C2253 1.495 . S
C2257 H2263 0.959 . S
C2257 H2264 0.961 . S
C2257 H2265 0.960 . S
C2258 C2256 1.381 . S
C2258 C2259 1.394 . S
C2258 H2266 0.930 . S
C2259 C2258 1.394 . S
C2259 C2260 1.383 . S
C2259 H2267 0.929 . S
C2260 C2259 1.383 . S
C2260 C2261 1.377 . S
C2261 H2245 0.930 . S
C2261 C2260 1.377 . S
C2261 C2262 1.379 . S
C2262 H2246 0.931 . S
C2262 C2256 1.383 . S
C2262 C2261 1.379 . S
H2263 C2257 0.959 . S
H2264 C2257 0.961 . S
H2265 C2257 0.960 . S
H2266 C2258 0.930 . S
H2267 C2259 0.929 . S
H2268 C2276 0.929 . S
H2269 C2278 0.930 . S
H2270 C2280 0.930 . S
H2271 C2283 0.929 . S
H2272 C2286 0.930 . S
H2273 C2288 0.960 . S
H2274 C2288 0.960 . S
H2275 C2288 0.960 . S
C2276 H2268 0.929 . S
C2276 C2277 1.377 . S
C2276 C2278 1.384 . S
C2277 C2276 1.377 . S
C2277 C2283 1.390 . S
C2278 H2269 0.930 . S
C2278 C2276 1.384 . S
C2278 C2279 1.372 . S
C2279 C2278 1.372 . S
C2279 C2280 1.400 . S
C2279 C2284 1.490 . S
C2280 H2270 0.930 . S
C2280 C2279 1.400 . S
C2280 C2283 1.386 . S
H2281 C2297 0.930 . S
H2282 C2298 0.931 . S
C2283 H2271 0.929 . S
C2283 C2277 1.390 . S
C2283 C2280 1.386 . S
C2284 C2279 1.490 . S
C2284 C2286 1.395 . S
C2284 C2287 1.403 . S
H2285 C2291 0.930 . S
C2286 H2272 0.930 . S
C2286 C2284 1.395 . S
C2286 C2289 1.403 . S
C2287 C2284 1.403 . S
C2287 C2288 1.524 . S
C2287 C2291 1.400 . S
C2288 H2273 0.960 . S
C2288 H2274 0.960 . S
C2288 H2275 0.960 . S
C2288 C2287 1.524 . S
C2289 C2286 1.403 . S
C2289 C2290 1.392 . S
C2289 C2293 1.495 . S
C2290 C2289 1.392 . S
C2290 C2291 1.385 . S
C2290 C2292 1.478 . S
C2291 H2285 0.930 . S
C2291 C2287 1.400 . S
C2291 C2290 1.385 . S
C2292 C2290 1.478 . S
C2292 C2294 1.381 . S
C2292 C2298 1.383 . S
C2293 C2289 1.495 . S
C2293 H2299 0.959 . S
C2293 H2300 0.961 . S
C2293 H2301 0.960 . S
C2294 C2292 1.381 . S
C2294 C2295 1.394 . S
C2294 H2302 0.930 . S
C2295 C2294 1.394 . S
C2295 C2296 1.383 . S
C2295 H2303 0.929 . S
C2296 C2295 1.383 . S
C2296 C2297 1.377 . S
C2297 H2281 0.930 . S
C2297 C2296 1.377 . S
C2297 C2298 1.379 . S
C2298 H2282 0.931 . S
C2298 C2292 1.383 . S
C2298 C2297 1.379 . S
H2299 C2293 0.959 . S
H2300 C2293 0.961 . S
H2301 C2293 0.960 . S
H2302 C2294 0.930 . S
H2303 C2295 0.929 . S
H2304 C2312 0.929 . S
H2305 C2314 0.930 . S
H2306 C2316 0.930 . S
H2307 C2319 0.929 . S
H2308 C2322 0.930 . S
H2309 C2324 0.960 . S
H2310 C2324 0.960 . S
H2311 C2324 0.960 . S
C2312 H2304 0.929 . S
C2312 C2313 1.377 . S
C2312 C2314 1.384 . S
C2313 C2312 1.377 . S
C2313 C2319 1.390 . S
C2314 H2305 0.930 . S
C2314 C2312 1.384 . S
C2314 C2315 1.372 . S
C2315 C2314 1.372 . S
C2315 C2316 1.400 . S
C2315 C2320 1.490 . S
C2316 H2306 0.930 . S
C2316 C2315 1.400 . S
C2316 C2319 1.386 . S
H2317 C2333 0.930 . S
H2318 C2334 0.931 . S
C2319 H2307 0.929 . S
C2319 C2313 1.390 . S
C2319 C2316 1.386 . S
C2320 C2315 1.490 . S
C2320 C2322 1.395 . S
C2320 C2323 1.403 . S
H2321 C2327 0.930 . S
C2322 H2308 0.930 . S
C2322 C2320 1.395 . S
C2322 C2325 1.403 . S
C2323 C2320 1.403 . S
C2323 C2324 1.524 . S
C2323 C2327 1.400 . S
C2324 H2309 0.960 . S
C2324 H2310 0.960 . S
C2324 H2311 0.960 . S
C2324 C2323 1.524 . S
C2325 C2322 1.403 . S
C2325 C2326 1.392 . S
C2325 C2329 1.495 . S
C2326 C2325 1.392 . S
C2326 C2327 1.385 . S
C2326 C2328 1.478 . S
C2327 H2321 0.930 . S
C2327 C2323 1.400 . S
C2327 C2326 1.385 . S
C2328 C2326 1.478 . S
C2328 C2330 1.381 . S
C2328 C2334 1.383 . S
C2329 C2325 1.495 . S
C2329 H2335 0.959 . S
C2329 H2336 0.961 . S
C2329 H2337 0.960 . S
C2330 C2328 1.381 . S
C2330 C2331 1.394 . S
C2330 H2338 0.930 . S
C2331 C2330 1.394 . S
C2331 C2332 1.383 . S
C2331 H2339 0.929 . S
C2332 C2331 1.383 . S
C2332 C2333 1.377 . S
C2333 H2317 0.930 . S
C2333 C2332 1.377 . S
C2333 C2334 1.379 . S
C2334 H2318 0.931 . S
C2334 C2328 1.383 . S
C2334 C2333 1.379 . S
H2335 C2329 0.959 . S
H2336 C2329 0.961 . S
H2337 C2329 0.960 . S
H2338 C2330 0.930 . S
H2339 C2331 0.929 . S
H2340 C2348 0.929 . S
H2341 C2350 0.930 . S
H2342 C2352 0.930 . S
H2343 C2355 0.929 . S
H2344 C2358 0.930 . S
H2345 C2360 0.960 . S
H2346 C2360 0.960 . S
H2347 C2360 0.960 . S
C2348 H2340 0.929 . S
C2348 C2349 1.377 . S
C2348 C2350 1.384 . S
C2349 C2348 1.377 . S
C2349 C2355 1.390 . S
C2350 H2341 0.930 . S
C2350 C2348 1.384 . S
C2350 C2351 1.372 . S
C2351 C2350 1.372 . S
C2351 C2352 1.400 . S
C2351 C2356 1.490 . S
C2352 H2342 0.930 . S
C2352 C2351 1.400 . S
C2352 C2355 1.386 . S
H2353 C2369 0.930 . S
H2354 C2370 0.931 . S
C2355 H2343 0.929 . S
C2355 C2349 1.390 . S
C2355 C2352 1.386 . S
C2356 C2351 1.490 . S
C2356 C2358 1.395 . S
C2356 C2359 1.403 . S
H2357 C2363 0.930 . S
C2358 H2344 0.930 . S
C2358 C2356 1.395 . S
C2358 C2361 1.403 . S
C2359 C2356 1.403 . S
C2359 C2360 1.524 . S
C2359 C2363 1.400 . S
C2360 H2345 0.960 . S
C2360 H2346 0.960 . S
C2360 H2347 0.960 . S
C2360 C2359 1.524 . S
C2361 C2358 1.403 . S
C2361 C2362 1.392 . S
C2361 C2365 1.495 . S
C2362 C2361 1.392 . S
C2362 C2363 1.385 . S
C2362 C2364 1.478 . S
C2363 H2357 0.930 . S
C2363 C2359 1.400 . S
C2363 C2362 1.385 . S
C2364 C2362 1.478 . S
C2364 C2366 1.381 . S
C2364 C2370 1.383 . S
C2365 C2361 1.495 . S
C2365 H2371 0.959 . S
C2365 H2372 0.961 . S
C2365 H2373 0.960 . S
C2366 C2364 1.381 . S
C2366 C2367 1.394 . S
C2366 H2374 0.930 . S
C2367 C2366 1.394 . S
C2367 C2368 1.383 . S
C2367 H2375 0.929 . S
C2368 C2367 1.383 . S
C2368 C2369 1.377 . S
C2369 H2353 0.930 . S
C2369 C2368 1.377 . S
C2369 C2370 1.379 . S
C2370 H2354 0.931 . S
C2370 C2364 1.383 . S
C2370 C2369 1.379 . S
H2371 C2365 0.959 . S
H2372 C2365 0.961 . S
H2373 C2365 0.960 . S
H2374 C2366 0.930 . S
H2375 C2367 0.929 . S
H2376 C2384 0.929 . S
H2377 C2386 0.930 . S
H2378 C2388 0.930 . S
H2379 C2391 0.929 . S
H2380 C2394 0.930 . S
H2381 C2396 0.960 . S
H2382 C2396 0.960 . S
H2383 C2396 0.960 . S
C2384 H2376 0.929 . S
C2384 C2385 1.377 . S
C2384 C2386 1.384 . S
C2385 C2384 1.377 . S
C2385 C2391 1.390 . S
C2386 H2377 0.930 . S
C2386 C2384 1.384 . S
C2386 C2387 1.372 . S
C2387 C2386 1.372 . S
C2387 C2388 1.400 . S
C2387 C2392 1.490 . S
C2388 H2378 0.930 . S
C2388 C2387 1.400 . S
C2388 C2391 1.386 . S
H2389 C2405 0.930 . S
H2390 C2406 0.931 . S
C2391 H2379 0.929 . S
C2391 C2385 1.390 . S
C2391 C2388 1.386 . S
C2392 C2387 1.490 . S
C2392 C2394 1.395 . S
C2392 C2395 1.403 . S
H2393 C2399 0.930 . S
C2394 H2380 0.930 . S
C2394 C2392 1.395 . S
C2394 C2397 1.403 . S
C2395 C2392 1.403 . S
C2395 C2396 1.524 . S
C2395 C2399 1.400 . S
C2396 H2381 0.960 . S
C2396 H2382 0.960 . S
C2396 H2383 0.960 . S
C2396 C2395 1.524 . S
C2397 C2394 1.403 . S
C2397 C2398 1.392 . S
C2397 C2401 1.495 . S
C2398 C2397 1.392 . S
C2398 C2399 1.385 . S
C2398 C2400 1.478 . S
C2399 H2393 0.930 . S
C2399 C2395 1.400 . S
C2399 C2398 1.385 . S
C2400 C2398 1.478 . S
C2400 C2402 1.381 . S
C2400 C2406 1.383 . S
C2401 C2397 1.495 . S
C2401 H2407 0.959 . S
C2401 H2408 0.961 . S
C2401 H2409 0.960 . S
C2402 C2400 1.381 . S
C2402 C2403 1.394 . S
C2402 H2410 0.930 . S
C2403 C2402 1.394 . S
C2403 C2404 1.383 . S
C2403 H2411 0.929 . S
C2404 C2403 1.383 . S
C2404 C2405 1.377 . S
C2405 H2389 0.930 . S
C2405 C2404 1.377 . S
C2405 C2406 1.379 . S
C2406 H2390 0.931 . S
C2406 C2400 1.383 . S
C2406 C2405 1.379 . S
H2407 C2401 0.959 . S
H2408 C2401 0.961 . S
H2409 C2401 0.960 . S
H2410 C2402 0.930 . S
H2411 C2403 0.929 . S
H2412 C2420 0.929 . S
H2413 C2422 0.930 . S
H2414 C2424 0.930 . S
H2415 C2427 0.929 . S
H2416 C2430 0.930 . S
H2417 C2432 0.960 . S
H2418 C2432 0.960 . S
H2419 C2432 0.960 . S
C2420 H2412 0.929 . S
C2420 C2421 1.377 . S
C2420 C2422 1.384 . S
C2421 C2420 1.377 . S
C2421 C2427 1.390 . S
C2422 H2413 0.930 . S
C2422 C2420 1.384 . S
C2422 C2423 1.372 . S
C2423 C2422 1.372 . S
C2423 C2424 1.400 . S
C2423 C2428 1.490 . S
C2424 H2414 0.930 . S
C2424 C2423 1.400 . S
C2424 C2427 1.386 . S
H2425 C2441 0.930 . S
H2426 C2442 0.931 . S
C2427 H2415 0.929 . S
C2427 C2421 1.390 . S
C2427 C2424 1.386 . S
C2428 C2423 1.490 . S
C2428 C2430 1.395 . S
C2428 C2431 1.403 . S
H2429 C2435 0.930 . S
C2430 H2416 0.930 . S
C2430 C2428 1.395 . S
C2430 C2433 1.403 . S
C2431 C2428 1.403 . S
C2431 C2432 1.524 . S
C2431 C2435 1.400 . S
C2432 H2417 0.960 . S
C2432 H2418 0.960 . S
C2432 H2419 0.960 . S
C2432 C2431 1.524 . S
C2433 C2430 1.403 . S
C2433 C2434 1.392 . S
C2433 C2437 1.495 . S
C2434 C2433 1.392 . S
C2434 C2435 1.385 . S
C2434 C2436 1.478 . S
C2435 H2429 0.930 . S
C2435 C2431 1.400 . S
C2435 C2434 1.385 . S
C2436 C2434 1.478 . S
C2436 C2438 1.381 . S
C2436 C2442 1.383 . S
C2437 C2433 1.495 . S
C2437 H2443 0.959 . S
C2437 H2444 0.961 . S
C2437 H2445 0.960 . S
C2438 C2436 1.381 . S
C2438 C2439 1.394 . S
C2438 H2446 0.930 . S
C2439 C2438 1.394 . S
C2439 C2440 1.383 . S
C2439 H2447 0.929 . S
C2440 C2439 1.383 . S
C2440 C2441 1.377 . S
C2441 H2425 0.930 . S
C2441 C2440 1.377 . S
C2441 C2442 1.379 . S
C2442 H2426 0.931 . S
C2442 C2436 1.383 . S
C2442 C2441 1.379 . S
H2443 C2437 0.959 . S
H2444 C2437 0.961 . S
H2445 C2437 0.960 . S
H2446 C2438 0.930 . S
H2447 C2439 0.929 . S
H2448 C2456 0.929 . S
H2449 C2458 0.930 . S
H2450 C2460 0.930 . S
H2451 C2463 0.929 . S
H2452 C2466 0.930 . S
H2453 C2468 0.960 . S
H2454 C2468 0.960 . S
H2455 C2468 0.960 . S
C2456 H2448 0.929 . S
C2456 C2457 1.377 . S
C2456 C2458 1.384 . S
C2457 C2456 1.377 . S
C2457 C2463 1.390 . S
C2458 H2449 0.930 . S
C2458 C2456 1.384 . S
C2458 C2459 1.372 . S
C2459 C2458 1.372 . S
C2459 C2460 1.400 . S
C2459 C2464 1.490 . S
C2460 H2450 0.930 . S
C2460 C2459 1.400 . S
C2460 C2463 1.386 . S
H2461 C2477 0.930 . S
H2462 C2478 0.931 . S
C2463 H2451 0.929 . S
C2463 C2457 1.390 . S
C2463 C2460 1.386 . S
C2464 C2459 1.490 . S
C2464 C2466 1.395 . S
C2464 C2467 1.403 . S
H2465 C2471 0.930 . S
C2466 H2452 0.930 . S
C2466 C2464 1.395 . S
C2466 C2469 1.403 . S
C2467 C2464 1.403 . S
C2467 C2468 1.524 . S
C2467 C2471 1.400 . S
C2468 H2453 0.960 . S
C2468 H2454 0.960 . S
C2468 H2455 0.960 . S
C2468 C2467 1.524 . S
C2469 C2466 1.403 . S
C2469 C2470 1.392 . S
C2469 C2473 1.495 . S
C2470 C2469 1.392 . S
C2470 C2471 1.385 . S
C2470 C2472 1.478 . S
C2471 H2465 0.930 . S
C2471 C2467 1.400 . S
C2471 C2470 1.385 . S
C2472 C2470 1.478 . S
C2472 C2474 1.381 . S
C2472 C2478 1.383 . S
C2473 C2469 1.495 . S
C2473 H2479 0.959 . S
C2473 H2480 0.961 . S
C2473 H2481 0.960 . S
C2474 C2472 1.381 . S
C2474 C2475 1.394 . S
C2474 H2482 0.930 . S
C2475 C2474 1.394 . S
C2475 C2476 1.383 . S
C2475 H2483 0.929 . S
C2476 C2475 1.383 . S
C2476 C2477 1.377 . S
C2477 H2461 0.930 . S
C2477 C2476 1.377 . S
C2477 C2478 1.379 . S
C2478 H2462 0.931 . S
C2478 C2472 1.383 . S
C2478 C2477 1.379 . S
H2479 C2473 0.959 . S
H2480 C2473 0.961 . S
H2481 C2473 0.960 . S
H2482 C2474 0.930 . S
H2483 C2475 0.929 . S
H2484 C2492 0.929 . S
H2485 C2494 0.930 . S
H2486 C2496 0.930 . S
H2487 C2499 0.929 . S
H2488 C2502 0.930 . S
H2489 C2504 0.960 . S
H2490 C2504 0.960 . S
H2491 C2504 0.960 . S
C2492 H2484 0.929 . S
C2492 C2493 1.377 . S
C2492 C2494 1.384 . S
C2493 C2492 1.377 . S
C2493 C2499 1.390 . S
C2494 H2485 0.930 . S
C2494 C2492 1.384 . S
C2494 C2495 1.372 . S
C2495 C2494 1.372 . S
C2495 C2496 1.400 . S
C2495 C2500 1.490 . S
C2496 H2486 0.930 . S
C2496 C2495 1.400 . S
C2496 C2499 1.386 . S
H2497 C2513 0.930 . S
H2498 C2514 0.931 . S
C2499 H2487 0.929 . S
C2499 C2493 1.390 . S
C2499 C2496 1.386 . S
C2500 C2495 1.490 . S
C2500 C2502 1.395 . S
C2500 C2503 1.403 . S
H2501 C2507 0.930 . S
C2502 H2488 0.930 . S
C2502 C2500 1.395 . S
C2502 C2505 1.403 . S
C2503 C2500 1.403 . S
C2503 C2504 1.524 . S
C2503 C2507 1.400 . S
C2504 H2489 0.960 . S
C2504 H2490 0.960 . S
C2504 H2491 0.960 . S
C2504 C2503 1.524 . S
C2505 C2502 1.403 . S
C2505 C2506 1.392 . S
C2505 C2509 1.495 . S
C2506 C2505 1.392 . S
C2506 C2507 1.385 . S
C2506 C2508 1.478 . S
C2507 H2501 0.930 . S
C2507 C2503 1.400 . S
C2507 C2506 1.385 . S
C2508 C2506 1.478 . S
C2508 C2510 1.381 . S
C2508 C2514 1.383 . S
C2509 C2505 1.495 . S
C2509 H2515 0.959 . S
C2509 H2516 0.961 . S
C2509 H2517 0.960 . S
C2510 C2508 1.381 . S
C2510 C2511 1.394 . S
C2510 H2518 0.930 . S
C2511 C2510 1.394 . S
C2511 C2512 1.383 . S
C2511 H2519 0.929 . S
C2512 C2511 1.383 . S
C2512 C2513 1.377 . S
C2513 H2497 0.930 . S
C2513 C2512 1.377 . S
C2513 C2514 1.379 . S
C2514 H2498 0.931 . S
C2514 C2508 1.383 . S
C2514 C2513 1.379 . S
H2515 C2509 0.959 . S
H2516 C2509 0.961 . S
H2517 C2509 0.960 . S
H2518 C2510 0.930 . S
H2519 C2511 0.929 . S
H2520 C2528 0.929 . S
H2521 C2530 0.930 . S
H2522 C2532 0.930 . S
H2523 C2535 0.929 . S
H2524 C2538 0.930 . S
H2525 C2540 0.960 . S
H2526 C2540 0.960 . S
H2527 C2540 0.960 . S
C2528 H2520 0.929 . S
C2528 C2529 1.377 . S
C2528 C2530 1.384 . S
C2529 C2528 1.377 . S
C2529 C2535 1.390 . S
C2530 H2521 0.930 . S
C2530 C2528 1.384 . S
C2530 C2531 1.372 . S
C2531 C2530 1.372 . S
C2531 C2532 1.400 . S
C2531 C2536 1.490 . S
C2532 H2522 0.930 . S
C2532 C2531 1.400 . S
C2532 C2535 1.386 . S
H2533 C2549 0.930 . S
H2534 C2550 0.931 . S
C2535 H2523 0.929 . S
C2535 C2529 1.390 . S
C2535 C2532 1.386 . S
C2536 C2531 1.490 . S
C2536 C2538 1.395 . S
C2536 C2539 1.403 . S
H2537 C2543 0.930 . S
C2538 H2524 0.930 . S
C2538 C2536 1.395 . S
C2538 C2541 1.403 . S
C2539 C2536 1.403 . S
C2539 C2540 1.524 . S
C2539 C2543 1.400 . S
C2540 H2525 0.960 . S
C2540 H2526 0.960 . S
C2540 H2527 0.960 . S
C2540 C2539 1.524 . S
C2541 C2538 1.403 . S
C2541 C2542 1.392 . S
C2541 C2545 1.495 . S
C2542 C2541 1.392 . S
C2542 C2543 1.385 . S
C2542 C2544 1.478 . S
C2543 H2537 0.930 . S
C2543 C2539 1.400 . S
C2543 C2542 1.385 . S
C2544 C2542 1.478 . S
C2544 C2546 1.381 . S
C2544 C2550 1.383 . S
C2545 C2541 1.495 . S
C2545 H2551 0.959 . S
C2545 H2552 0.961 . S
C2545 H2553 0.960 . S
C2546 C2544 1.381 . S
C2546 C2547 1.394 . S
C2546 H2554 0.930 . S
C2547 C2546 1.394 . S
C2547 C2548 1.383 . S
C2547 H2555 0.929 . S
C2548 C2547 1.383 . S
C2548 C2549 1.377 . S
C2549 H2533 0.930 . S
C2549 C2548 1.377 . S
C2549 C2550 1.379 . S
C2550 H2534 0.931 . S
C2550 C2544 1.383 . S
C2550 C2549 1.379 . S
H2551 C2545 0.959 . S
H2552 C2545 0.961 . S
H2553 C2545 0.960 . S
H2554 C2546 0.930 . S
H2555 C2547 0.929 . S
H2556 C2564 0.929 . S
H2557 C2566 0.930 . S
H2558 C2568 0.930 . S
H2559 C2571 0.929 . S
H2560 C2574 0.930 . S
H2561 C2576 0.960 . S
H2562 C2576 0.960 . S
H2563 C2576 0.960 . S
C2564 H2556 0.929 . S
C2564 C2565 1.377 . S
C2564 C2566 1.384 . S
C2565 C2564 1.377 . S
C2565 C2571 1.390 . S
C2566 H2557 0.930 . S
C2566 C2564 1.384 . S
C2566 C2567 1.372 . S
C2567 C2566 1.372 . S
C2567 C2568 1.400 . S
C2567 C2572 1.490 . S
C2568 H2558 0.930 . S
C2568 C2567 1.400 . S
C2568 C2571 1.386 . S
H2569 C2585 0.930 . S
H2570 C2586 0.931 . S
C2571 H2559 0.929 . S
C2571 C2565 1.390 . S
C2571 C2568 1.386 . S
C2572 C2567 1.490 . S
C2572 C2574 1.395 . S
C2572 C2575 1.403 . S
H2573 C2579 0.930 . S
C2574 H2560 0.930 . S
C2574 C2572 1.395 . S
C2574 C2577 1.403 . S
C2575 C2572 1.403 . S
C2575 C2576 1.524 . S
C2575 C2579 1.400 . S
C2576 H2561 0.960 . S
C2576 H2562 0.960 . S
C2576 H2563 0.960 . S
C2576 C2575 1.524 . S
C2577 C2574 1.403 . S
C2577 C2578 1.392 . S
C2577 C2581 1.495 . S
C2578 C2577 1.392 . S
C2578 C2579 1.385 . S
C2578 C2580 1.478 . S
C2579 H2573 0.930 . S
C2579 C2575 1.400 . S
C2579 C2578 1.385 . S
C2580 C2578 1.478 . S
C2580 C2582 1.381 . S
C2580 C2586 1.383 . S
C2581 C2577 1.495 . S
C2581 H2587 0.959 . S
C2581 H2588 0.961 . S
C2581 H2589 0.960 . S
C2582 C2580 1.381 . S
C2582 C2583 1.394 . S
C2582 H2590 0.930 . S
C2583 C2582 1.394 . S
C2583 C2584 1.383 . S
C2583 H2591 0.929 . S
C2584 C2583 1.383 . S
C2584 C2585 1.377 . S
C2585 H2569 0.930 . S
C2585 C2584 1.377 . S
C2585 C2586 1.379 . S
C2586 H2570 0.931 . S
C2586 C2580 1.383 . S
C2586 C2585 1.379 . S
H2587 C2581 0.959 . S
H2588 C2581 0.961 . S
H2589 C2581 0.960 . S
H2590 C2582 0.930 . S
H2591 C2583 0.929 . S
H2592 C2600 0.929 . S
H2593 C2602 0.930 . S
H2594 C2604 0.930 . S
H2595 C2607 0.929 . S
H2596 C2610 0.930 . S
H2597 C2612 0.960 . S
H2598 C2612 0.960 . S
H2599 C2612 0.960 . S
C2600 H2592 0.929 . S
C2600 C2601 1.377 . S
C2600 C2602 1.384 . S
C2601 C2600 1.377 . S
C2601 C2607 1.390 . S
C2602 H2593 0.930 . S
C2602 C2600 1.384 . S
C2602 C2603 1.372 . S
C2603 C2602 1.372 . S
C2603 C2604 1.400 . S
C2603 C2608 1.490 . S
C2604 H2594 0.930 . S
C2604 C2603 1.400 . S
C2604 C2607 1.386 . S
H2605 C2621 0.930 . S
H2606 C2622 0.931 . S
C2607 H2595 0.929 . S
C2607 C2601 1.390 . S
C2607 C2604 1.386 . S
C2608 C2603 1.490 . S
C2608 C2610 1.395 . S
C2608 C2611 1.403 . S
H2609 C2615 0.930 . S
C2610 H2596 0.930 . S
C2610 C2608 1.395 . S
C2610 C2613 1.403 . S
C2611 C2608 1.403 . S
C2611 C2612 1.524 . S
C2611 C2615 1.400 . S
C2612 H2597 0.960 . S
C2612 H2598 0.960 . S
C2612 H2599 0.960 . S
C2612 C2611 1.524 . S
C2613 C2610 1.403 . S
C2613 C2614 1.392 . S
C2613 C2617 1.495 . S
C2614 C2613 1.392 . S
C2614 C2615 1.385 . S
C2614 C2616 1.478 . S
C2615 H2609 0.930 . S
C2615 C2611 1.400 . S
C2615 C2614 1.385 . S
C2616 C2614 1.478 . S
C2616 C2618 1.381 . S
C2616 C2622 1.383 . S
C2617 C2613 1.495 . S
C2617 H2623 0.959 . S
C2617 H2624 0.961 . S
C2617 H2625 0.960 . S
C2618 C2616 1.381 . S
C2618 C2619 1.394 . S
C2618 H2626 0.930 . S
C2619 C2618 1.394 . S
C2619 C2620 1.383 . S
C2619 H2627 0.929 . S
C2620 C2619 1.383 . S
C2620 C2621 1.377 . S
C2621 H2605 0.930 . S
C2621 C2620 1.377 . S
C2621 C2622 1.379 . S
C2622 H2606 0.931 . S
C2622 C2616 1.383 . S
C2622 C2621 1.379 . S
H2623 C2617 0.959 . S
H2624 C2617 0.961 . S
H2625 C2617 0.960 . S
H2626 C2618 0.930 . S
H2627 C2619 0.929 . S
H2628 C2636 0.929 . S
H2629 C2638 0.930 . S
H2630 C2640 0.930 . S
H2631 C2643 0.929 . S
H2632 C2646 0.930 . S
H2633 C2648 0.960 . S
H2634 C2648 0.960 . S
H2635 C2648 0.960 . S
C2636 H2628 0.929 . S
C2636 C2637 1.377 . S
C2636 C2638 1.384 . S
C2637 C2636 1.377 . S
C2637 C2643 1.390 . S
C2638 H2629 0.930 . S
C2638 C2636 1.384 . S
C2638 C2639 1.372 . S
C2639 C2638 1.372 . S
C2639 C2640 1.400 . S
C2639 C2644 1.490 . S
C2640 H2630 0.930 . S
C2640 C2639 1.400 . S
C2640 C2643 1.386 . S
H2641 C2657 0.930 . S
H2642 C2658 0.931 . S
C2643 H2631 0.929 . S
C2643 C2637 1.390 . S
C2643 C2640 1.386 . S
C2644 C2639 1.490 . S
C2644 C2646 1.395 . S
C2644 C2647 1.403 . S
H2645 C2651 0.930 . S
C2646 H2632 0.930 . S
C2646 C2644 1.395 . S
C2646 C2649 1.403 . S
C2647 C2644 1.403 . S
C2647 C2648 1.524 . S
C2647 C2651 1.400 . S
C2648 H2633 0.960 . S
C2648 H2634 0.960 . S
C2648 H2635 0.960 . S
C2648 C2647 1.524 . S
C2649 C2646 1.403 . S
C2649 C2650 1.392 . S
C2649 C2653 1.495 . S
C2650 C2649 1.392 . S
C2650 C2651 1.385 . S
C2650 C2652 1.478 . S
C2651 H2645 0.930 . S
C2651 C2647 1.400 . S
C2651 C2650 1.385 . S
C2652 C2650 1.478 . S
C2652 C2654 1.381 . S
C2652 C2658 1.383 . S
C2653 C2649 1.495 . S
C2653 H2659 0.959 . S
C2653 H2660 0.961 . S
C2653 H2661 0.960 . S
C2654 C2652 1.381 . S
C2654 C2655 1.394 . S
C2654 H2662 0.930 . S
C2655 C2654 1.394 . S
C2655 C2656 1.383 . S
C2655 H2663 0.929 . S
C2656 C2655 1.383 . S
C2656 C2657 1.377 . S
C2657 H2641 0.930 . S
C2657 C2656 1.377 . S
C2657 C2658 1.379 . S
C2658 H2642 0.931 . S
C2658 C2652 1.383 . S
C2658 C2657 1.379 . S
H2659 C2653 0.959 . S
H2660 C2653 0.961 . S
H2661 C2653 0.960 . S
H2662 C2654 0.930 . S
H2663 C2655 0.929 . S
H2664 C2672 0.929 . S
H2665 C2674 0.930 . S
H2666 C2676 0.930 . S
H2667 C2679 0.929 . S
H2668 C2682 0.930 . S
H2669 C2684 0.960 . S
H2670 C2684 0.960 . S
H2671 C2684 0.960 . S
C2672 H2664 0.929 . S
C2672 C2673 1.377 . S
C2672 C2674 1.384 . S
C2673 C2672 1.377 . S
C2673 C2679 1.390 . S
C2674 H2665 0.930 . S
C2674 C2672 1.384 . S
C2674 C2675 1.372 . S
C2675 C2674 1.372 . S
C2675 C2676 1.400 . S
C2675 C2680 1.490 . S
C2676 H2666 0.930 . S
C2676 C2675 1.400 . S
C2676 C2679 1.386 . S
H2677 C2693 0.930 . S
H2678 C2694 0.931 . S
C2679 H2667 0.929 . S
C2679 C2673 1.390 . S
C2679 C2676 1.386 . S
C2680 C2675 1.490 . S
C2680 C2682 1.395 . S
C2680 C2683 1.403 . S
H2681 C2687 0.930 . S
C2682 H2668 0.930 . S
C2682 C2680 1.395 . S
C2682 C2685 1.403 . S
C2683 C2680 1.403 . S
C2683 C2684 1.524 . S
C2683 C2687 1.400 . S
C2684 H2669 0.960 . S
C2684 H2670 0.960 . S
C2684 H2671 0.960 . S
C2684 C2683 1.524 . S
C2685 C2682 1.403 . S
C2685 C2686 1.392 . S
C2685 C2689 1.495 . S
C2686 C2685 1.392 . S
C2686 C2687 1.385 . S
C2686 C2688 1.478 . S
C2687 H2681 0.930 . S
C2687 C2683 1.400 . S
C2687 C2686 1.385 . S
C2688 C2686 1.478 . S
C2688 C2690 1.381 . S
C2688 C2694 1.383 . S
C2689 C2685 1.495 . S
C2689 H2695 0.959 . S
C2689 H2696 0.961 . S
C2689 H2697 0.960 . S
C2690 C2688 1.381 . S
C2690 C2691 1.394 . S
C2690 H2698 0.930 . S
C2691 C2690 1.394 . S
C2691 C2692 1.383 . S
C2691 H2699 0.929 . S
C2692 C2691 1.383 . S
C2692 C2693 1.377 . S
C2693 H2677 0.930 . S
C2693 C2692 1.377 . S
C2693 C2694 1.379 . S
C2694 H2678 0.931 . S
C2694 C2688 1.383 . S
C2694 C2693 1.379 . S
H2695 C2689 0.959 . S
H2696 C2689 0.961 . S
H2697 C2689 0.960 . S
H2698 C2690 0.930 . S
H2699 C2691 0.929 . S
H2700 C2708 0.929 . S
H2701 C2710 0.930 . S
H2702 C2712 0.930 . S
H2703 C2715 0.929 . S
H2704 C2718 0.930 . S
H2705 C2720 0.960 . S
H2706 C2720 0.960 . S
H2707 C2720 0.960 . S
C2708 H2700 0.929 . S
C2708 C2709 1.377 . S
C2708 C2710 1.384 . S
C2709 C2708 1.377 . S
C2709 C2715 1.390 . S
C2710 H2701 0.930 . S
C2710 C2708 1.384 . S
C2710 C2711 1.372 . S
C2711 C2710 1.372 . S
C2711 C2712 1.400 . S
C2711 C2716 1.490 . S
C2712 H2702 0.930 . S
C2712 C2711 1.400 . S
C2712 C2715 1.386 . S
H2713 C2729 0.930 . S
H2714 C2730 0.931 . S
C2715 H2703 0.929 . S
C2715 C2709 1.390 . S
C2715 C2712 1.386 . S
C2716 C2711 1.490 . S
C2716 C2718 1.395 . S
C2716 C2719 1.403 . S
H2717 C2723 0.930 . S
C2718 H2704 0.930 . S
C2718 C2716 1.395 . S
C2718 C2721 1.403 . S
C2719 C2716 1.403 . S
C2719 C2720 1.524 . S
C2719 C2723 1.400 . S
C2720 H2705 0.960 . S
C2720 H2706 0.960 . S
C2720 H2707 0.960 . S
C2720 C2719 1.524 . S
C2721 C2718 1.403 . S
C2721 C2722 1.392 . S
C2721 C2725 1.495 . S
C2722 C2721 1.392 . S
C2722 C2723 1.385 . S
C2722 C2724 1.478 . S
C2723 H2717 0.930 . S
C2723 C2719 1.400 . S
C2723 C2722 1.385 . S
C2724 C2722 1.478 . S
C2724 C2726 1.381 . S
C2724 C2730 1.383 . S
C2725 C2721 1.495 . S
C2725 H2731 0.959 . S
C2725 H2732 0.961 . S
C2725 H2733 0.960 . S
C2726 C2724 1.381 . S
C2726 C2727 1.394 . S
C2726 H2734 0.930 . S
C2727 C2726 1.394 . S
C2727 C2728 1.383 . S
C2727 H2735 0.929 . S
C2728 C2727 1.383 . S
C2728 C2729 1.377 . S
C2729 H2713 0.930 . S
C2729 C2728 1.377 . S
C2729 C2730 1.379 . S
C2730 H2714 0.931 . S
C2730 C2724 1.383 . S
C2730 C2729 1.379 . S
H2731 C2725 0.959 . S
H2732 C2725 0.961 . S
H2733 C2725 0.960 . S
H2734 C2726 0.930 . S
H2735 C2727 0.929 . S
H2736 C2744 0.929 . S
H2737 C2746 0.930 . S
H2738 C2748 0.930 . S
H2739 C2751 0.929 . S
H2740 C2754 0.930 . S
H2741 C2756 0.960 . S
H2742 C2756 0.960 . S
H2743 C2756 0.960 . S
C2744 H2736 0.929 . S
C2744 C2745 1.377 . S
C2744 C2746 1.384 . S
C2745 C2744 1.377 . S
C2745 C2751 1.390 . S
C2746 H2737 0.930 . S
C2746 C2744 1.384 . S
C2746 C2747 1.372 . S
C2747 C2746 1.372 . S
C2747 C2748 1.400 . S
C2747 C2752 1.490 . S
C2748 H2738 0.930 . S
C2748 C2747 1.400 . S
C2748 C2751 1.386 . S
H2749 C2765 0.930 . S
H2750 C2766 0.931 . S
C2751 H2739 0.929 . S
C2751 C2745 1.390 . S
C2751 C2748 1.386 . S
C2752 C2747 1.490 . S
C2752 C2754 1.395 . S
C2752 C2755 1.403 . S
H2753 C2759 0.930 . S
C2754 H2740 0.930 . S
C2754 C2752 1.395 . S
C2754 C2757 1.403 . S
C2755 C2752 1.403 . S
C2755 C2756 1.524 . S
C2755 C2759 1.400 . S
C2756 H2741 0.960 . S
C2756 H2742 0.960 . S
C2756 H2743 0.960 . S
C2756 C2755 1.524 . S
C2757 C2754 1.403 . S
C2757 C2758 1.392 . S
C2757 C2761 1.495 . S
C2758 C2757 1.392 . S
C2758 C2759 1.385 . S
C2758 C2760 1.478 . S
C2759 H2753 0.930 . S
C2759 C2755 1.400 . S
C2759 C2758 1.385 . S
C2760 C2758 1.478 . S
C2760 C2762 1.381 . S
C2760 C2766 1.383 . S
C2761 C2757 1.495 . S
C2761 H2767 0.959 . S
C2761 H2768 0.961 . S
C2761 H2769 0.960 . S
C2762 C2760 1.381 . S
C2762 C2763 1.394 . S
C2762 H2770 0.930 . S
C2763 C2762 1.394 . S
C2763 C2764 1.383 . S
C2763 H2771 0.929 . S
C2764 C2763 1.383 . S
C2764 C2765 1.377 . S
C2765 H2749 0.930 . S
C2765 C2764 1.377 . S
C2765 C2766 1.379 . S
C2766 H2750 0.931 . S
C2766 C2760 1.383 . S
C2766 C2765 1.379 . S
H2767 C2761 0.959 . S
H2768 C2761 0.961 . S
H2769 C2761 0.960 . S
H2770 C2762 0.930 . S
H2771 C2763 0.929 . S
H2772 C2780 0.929 . S
H2773 C2782 0.930 . S
H2774 C2784 0.930 . S
H2775 C2787 0.929 . S
H2776 C2790 0.930 . S
H2777 C2792 0.960 . S
H2778 C2792 0.960 . S
H2779 C2792 0.960 . S
C2780 H2772 0.929 . S
C2780 C2781 1.377 . S
C2780 C2782 1.384 . S
C2781 C2780 1.377 . S
C2781 C2787 1.390 . S
C2782 H2773 0.930 . S
C2782 C2780 1.384 . S
C2782 C2783 1.372 . S
C2783 C2782 1.372 . S
C2783 C2784 1.400 . S
C2783 C2788 1.490 . S
C2784 H2774 0.930 . S
C2784 C2783 1.400 . S
C2784 C2787 1.386 . S
H2785 C2801 0.930 . S
H2786 C2802 0.931 . S
C2787 H2775 0.929 . S
C2787 C2781 1.390 . S
C2787 C2784 1.386 . S
C2788 C2783 1.490 . S
C2788 C2790 1.395 . S
C2788 C2791 1.403 . S
H2789 C2795 0.930 . S
C2790 H2776 0.930 . S
C2790 C2788 1.395 . S
C2790 C2793 1.403 . S
C2791 C2788 1.403 . S
C2791 C2792 1.524 . S
C2791 C2795 1.400 . S
C2792 H2777 0.960 . S
C2792 H2778 0.960 . S
C2792 H2779 0.960 . S
C2792 C2791 1.524 . S
C2793 C2790 1.403 . S
C2793 C2794 1.392 . S
C2793 C2797 1.495 . S
C2794 C2793 1.392 . S
C2794 C2795 1.385 . S
C2794 C2796 1.478 . S
C2795 H2789 0.930 . S
C2795 C2791 1.400 . S
C2795 C2794 1.385 . S
C2796 C2794 1.478 . S
C2796 C2798 1.381 . S
C2796 C2802 1.383 . S
C2797 C2793 1.495 . S
C2797 H2803 0.959 . S
C2797 H2804 0.961 . S
C2797 H2805 0.960 . S
C2798 C2796 1.381 . S
C2798 C2799 1.394 . S
C2798 H2806 0.930 . S
C2799 C2798 1.394 . S
C2799 C2800 1.383 . S
C2799 H2807 0.929 . S
C2800 C2799 1.383 . S
C2800 C2801 1.377 . S
C2801 H2785 0.930 . S
C2801 C2800 1.377 . S
C2801 C2802 1.379 . S
C2802 H2786 0.931 . S
C2802 C2796 1.383 . S
C2802 C2801 1.379 . S
H2803 C2797 0.959 . S
H2804 C2797 0.961 . S
H2805 C2797 0.960 . S
H2806 C2798 0.930 . S
H2807 C2799 0.929 . S
H2808 C2816 0.929 . S
H2809 C2818 0.930 . S
H2810 C2820 0.930 . S
H2811 C2823 0.929 . S
H2812 C2826 0.930 . S
H2813 C2828 0.960 . S
H2814 C2828 0.960 . S
H2815 C2828 0.960 . S
C2816 H2808 0.929 . S
C2816 C2817 1.377 . S
C2816 C2818 1.384 . S
C2817 C2816 1.377 . S
C2817 C2823 1.390 . S
C2818 H2809 0.930 . S
C2818 C2816 1.384 . S
C2818 C2819 1.372 . S
C2819 C2818 1.372 . S
C2819 C2820 1.400 . S
C2819 C2824 1.490 . S
C2820 H2810 0.930 . S
C2820 C2819 1.400 . S
C2820 C2823 1.386 . S
H2821 C2837 0.930 . S
H2822 C2838 0.931 . S
C2823 H2811 0.929 . S
C2823 C2817 1.390 . S
C2823 C2820 1.386 . S
C2824 C2819 1.490 . S
C2824 C2826 1.395 . S
C2824 C2827 1.403 . S
H2825 C2831 0.930 . S
C2826 H2812 0.930 . S
C2826 C2824 1.395 . S
C2826 C2829 1.403 . S
C2827 C2824 1.403 . S
C2827 C2828 1.524 . S
C2827 C2831 1.400 . S
C2828 H2813 0.960 . S
C2828 H2814 0.960 . S
C2828 H2815 0.960 . S
C2828 C2827 1.524 . S
C2829 C2826 1.403 . S
C2829 C2830 1.392 . S
C2829 C2833 1.495 . S
C2830 C2829 1.392 . S
C2830 C2831 1.385 . S
C2830 C2832 1.478 . S
C2831 H2825 0.930 . S
C2831 C2827 1.400 . S
C2831 C2830 1.385 . S
C2832 C2830 1.478 . S
C2832 C2834 1.381 . S
C2832 C2838 1.383 . S
C2833 C2829 1.495 . S
C2833 H2839 0.959 . S
C2833 H2840 0.961 . S
C2833 H2841 0.960 . S
C2834 C2832 1.381 . S
C2834 C2835 1.394 . S
C2834 H2842 0.930 . S
C2835 C2834 1.394 . S
C2835 C2836 1.383 . S
C2835 H2843 0.929 . S
C2836 C2835 1.383 . S
C2836 C2837 1.377 . S
C2837 H2821 0.930 . S
C2837 C2836 1.377 . S
C2837 C2838 1.379 . S
C2838 H2822 0.931 . S
C2838 C2832 1.383 . S
C2838 C2837 1.379 . S
H2839 C2833 0.959 . S
H2840 C2833 0.961 . S
H2841 C2833 0.960 . S
H2842 C2834 0.930 . S
H2843 C2835 0.929 . S
H2844 C2852 0.929 . S
H2845 C2854 0.930 . S
H2846 C2856 0.930 . S
H2847 C2859 0.929 . S
H2848 C2862 0.930 . S
H2849 C2864 0.960 . S
H2850 C2864 0.960 . S
H2851 C2864 0.960 . S
C2852 H2844 0.929 . S
C2852 C2853 1.377 . S
C2852 C2854 1.384 . S
C2853 C2852 1.377 . S
C2853 C2859 1.390 . S
C2854 H2845 0.930 . S
C2854 C2852 1.384 . S
C2854 C2855 1.372 . S
C2855 C2854 1.372 . S
C2855 C2856 1.400 . S
C2855 C2860 1.490 . S
C2856 H2846 0.930 . S
C2856 C2855 1.400 . S
C2856 C2859 1.386 . S
H2857 C2873 0.930 . S
H2858 C2874 0.931 . S
C2859 H2847 0.929 . S
C2859 C2853 1.390 . S
C2859 C2856 1.386 . S
C2860 C2855 1.490 . S
C2860 C2862 1.395 . S
C2860 C2863 1.403 . S
H2861 C2867 0.930 . S
C2862 H2848 0.930 . S
C2862 C2860 1.395 . S
C2862 C2865 1.403 . S
C2863 C2860 1.403 . S
C2863 C2864 1.524 . S
C2863 C2867 1.400 . S
C2864 H2849 0.960 . S
C2864 H2850 0.960 . S
C2864 H2851 0.960 . S
C2864 C2863 1.524 . S
C2865 C2862 1.403 . S
C2865 C2866 1.392 . S
C2865 C2869 1.495 . S
C2866 C2865 1.392 . S
C2866 C2867 1.385 . S
C2866 C2868 1.478 . S
C2867 H2861 0.930 . S
C2867 C2863 1.400 . S
C2867 C2866 1.385 . S
C2868 C2866 1.478 . S
C2868 C2870 1.381 . S
C2868 C2874 1.383 . S
C2869 C2865 1.495 . S
C2869 H2875 0.959 . S
C2869 H2876 0.961 . S
C2869 H2877 0.960 . S
C2870 C2868 1.381 . S
C2870 C2871 1.394 . S
C2870 H2878 0.930 . S
C2871 C2870 1.394 . S
C2871 C2872 1.383 . S
C2871 H2879 0.929 . S
C2872 C2871 1.383 . S
C2872 C2873 1.377 . S
C2873 H2857 0.930 . S
C2873 C2872 1.377 . S
C2873 C2874 1.379 . S
C2874 H2858 0.931 . S
C2874 C2868 1.383 . S
C2874 C2873 1.379 . S
H2875 C2869 0.959 . S
H2876 C2869 0.961 . S
H2877 C2869 0.960 . S
H2878 C2870 0.930 . S
H2879 C2871 0.929 . S
H2880 C2888 0.929 . S
H2881 C2890 0.930 . S
H2882 C2892 0.930 . S
H2883 C2895 0.929 . S
H2884 C2898 0.947 . S
H2885 C2900 0.960 . S
H2886 C2900 0.960 . S
H2887 C2900 0.960 . S
C2888 H2880 0.929 . S
C2888 C2889 1.377 . S
C2888 C2890 1.384 . S
C2889 C2888 1.377 . S
C2889 C2895 1.390 . S
C2890 H2881 0.930 . S
C2890 C2888 1.384 . S
C2890 C2891 1.372 . S
C2891 C2890 1.372 . S
C2891 C2892 1.400 . S
C2891 C2896 1.490 . S
C2892 H2882 0.930 . S
C2892 C2891 1.400 . S
C2892 C2895 1.386 . S
H2893 C2909 0.930 . S
H2894 C2910 0.931 . S
C2895 H2883 0.929 . S
C2895 C2889 1.390 . S
C2895 C2892 1.386 . S
C2896 C2891 1.490 . S
C2896 C2898 1.395 1_455 S
C2896 C2899 1.403 . S
H2897 C2903 0.930 . S
C2898 H2884 0.947 . S
C2898 C2896 1.395 1_655 S
C2898 C2901 1.403 . S
C2899 C2896 1.403 . S
C2899 C2900 1.524 . S
C2899 C2903 1.400 1_455 S
C2900 H2885 0.960 . S
C2900 H2886 0.960 . S
C2900 H2887 0.960 . S
C2900 C2899 1.524 . S
C2901 C2898 1.403 . S
C2901 C2902 1.392 . S
C2901 C2905 1.495 . S
C2902 C2901 1.392 . S
C2902 C2903 1.385 . S
C2902 C2904 1.478 . S
C2903 H2897 0.930 . S
C2903 C2899 1.400 1_655 S
C2903 C2902 1.385 . S
C2904 C2902 1.478 . S
C2904 C2906 1.381 . S
C2904 C2910 1.383 . S
C2905 C2901 1.495 . S
C2905 H2911 0.959 . S
C2905 H2912 0.961 . S
C2905 H2913 0.960 . S
C2906 C2904 1.381 . S
C2906 C2907 1.394 . S
C2906 H2914 0.930 . S
C2907 C2906 1.394 . S
C2907 C2908 1.383 . S
C2907 H2915 0.929 . S
C2908 C2907 1.383 . S
C2908 C2909 1.377 . S
C2909 H2893 0.930 . S
C2909 C2908 1.377 . S
C2909 C2910 1.379 . S
C2910 H2894 0.931 . S
C2910 C2904 1.383 . S
C2910 C2909 1.379 . S
H2911 C2905 0.959 . S
H2912 C2905 0.961 . S
H2913 C2905 0.960 . S
H2914 C2906 0.930 . S
H2915 C2907 0.929 . S
H2916 C2924 0.929 . S
H2917 C2926 0.930 . S
H2918 C2928 0.930 . S
H2919 C2931 0.929 . S
H2920 C2934 0.930 . S
H2921 C2936 0.960 . S
H2922 C2936 0.960 . S
H2923 C2936 0.960 . S
C2924 H2916 0.929 . S
C2924 C2925 1.377 . S
C2924 C2926 1.384 . S
C2925 C2924 1.377 . S
C2925 C2931 1.390 . S
C2926 H2917 0.930 . S
C2926 C2924 1.384 . S
C2926 C2927 1.372 . S
C2927 C2926 1.372 . S
C2927 C2928 1.400 . S
C2927 C2932 1.490 . S
C2928 H2918 0.930 . S
C2928 C2927 1.400 . S
C2928 C2931 1.386 . S
H2929 C2945 0.930 . S
H2930 C2946 0.931 . S
C2931 H2919 0.929 . S
C2931 C2925 1.390 . S
C2931 C2928 1.386 . S
C2932 C2927 1.490 . S
C2932 C2934 1.395 . S
C2932 C2935 1.403 . S
H2933 C2939 0.930 . S
C2934 H2920 0.930 . S
C2934 C2932 1.395 . S
C2934 C2937 1.403 . S
C2935 C2932 1.403 . S
C2935 C2936 1.524 . S
C2935 C2939 1.400 . S
C2936 H2921 0.960 . S
C2936 H2922 0.960 . S
C2936 H2923 0.960 . S
C2936 C2935 1.524 . S
C2937 C2934 1.403 . S
C2937 C2938 1.392 . S
C2937 C2941 1.495 . S
C2938 C2937 1.392 . S
C2938 C2939 1.385 . S
C2938 C2940 1.478 . S
C2939 H2933 0.930 . S
C2939 C2935 1.400 . S
C2939 C2938 1.385 . S
C2940 C2938 1.478 . S
C2940 C2942 1.381 . S
C2940 C2946 1.383 . S
C2941 C2937 1.495 . S
C2941 H2947 0.959 . S
C2941 H2948 0.961 . S
C2941 H2949 0.960 . S
C2942 C2940 1.381 . S
C2942 C2943 1.394 . S
C2942 H2950 0.930 . S
C2943 C2942 1.394 . S
C2943 C2944 1.383 . S
C2943 H2951 0.929 . S
C2944 C2943 1.383 . S
C2944 C2945 1.377 . S
C2945 H2929 0.930 . S
C2945 C2944 1.377 . S
C2945 C2946 1.379 . S
C2946 H2930 0.931 . S
C2946 C2940 1.383 . S
C2946 C2945 1.379 . S
H2947 C2941 0.959 . S
H2948 C2941 0.961 . S
H2949 C2941 0.960 . S
H2950 C2942 0.930 . S
H2951 C2943 0.929 . S
H2952 C2960 0.929 . S
H2953 C2962 0.930 . S
H2954 C2964 0.930 . S
H2955 C2967 0.929 . S
H2956 C2970 0.930 . S
H2957 C2972 0.960 . S
H2958 C2972 0.960 . S
H2959 C2972 0.960 1_545 S
C2960 H2952 0.929 . S
C2960 C2961 1.377 . S
C2960 C2962 1.384 . S
C2961 C2960 1.377 . S
C2961 C2967 1.390 . S
C2962 H2953 0.930 . S
C2962 C2960 1.384 . S
C2962 C2963 1.372 . S
C2963 C2962 1.372 . S
C2963 C2964 1.400 . S
C2963 C2968 1.490 . S
C2964 H2954 0.930 . S
C2964 C2963 1.400 . S
C2964 C2967 1.386 . S
H2965 C2981 0.930 . S
H2966 C2982 0.931 . S
C2967 H2955 0.929 . S
C2967 C2961 1.390 . S
C2967 C2964 1.386 . S
C2968 C2963 1.490 . S
C2968 C2970 1.395 . S
C2968 C2971 1.403 1_545 S
H2969 C2975 0.930 . S
C2970 H2956 0.930 . S
C2970 C2968 1.395 . S
C2970 C2973 1.403 . S
C2971 C2968 1.403 1_565 S
C2971 C2972 1.524 . S
C2971 C2975 1.400 . S
C2972 H2957 0.960 . S
C2972 H2958 0.960 . S
C2972 H2959 0.960 1_565 S
C2972 C2971 1.524 . S
C2973 C2970 1.403 . S
C2973 C2974 1.392 1_545 S
C2973 C2977 1.495 . S
C2974 C2973 1.392 1_565 S
C2974 C2975 1.385 . S
C2974 C2976 1.478 . S
C2975 H2969 0.930 . S
C2975 C2971 1.400 . S
C2975 C2974 1.385 . S
C2976 C2974 1.478 . S
C2976 C2978 1.381 . S
C2976 C2982 1.383 . S
C2977 C2973 1.495 . S
C2977 H2983 0.959 . S
C2977 H2984 0.961 . S
C2977 H2985 0.960 1_545 S
C2978 C2976 1.381 . S
C2978 C2979 1.394 . S
C2978 H2986 0.930 . S
C2979 C2978 1.394 . S
C2979 C2980 1.383 . S
C2979 H2987 0.929 . S
C2980 C2979 1.383 . S
C2980 C2981 1.377 . S
C2981 H2965 0.930 . S
C2981 C2980 1.377 . S
C2981 C2982 1.379 . S
C2982 H2966 0.931 . S
C2982 C2976 1.383 . S
C2982 C2981 1.379 . S
H2983 C2977 0.959 . S
H2984 C2977 0.961 . S
H2985 C2977 0.960 1_565 S
H2986 C2978 0.930 . S
H2987 C2979 0.929 . S
H2988 C2996 0.929 . S
H2989 C2998 0.930 . S
H2990 C3000 0.930 . S
H2991 C3003 0.929 . S
H2992 C3006 0.930 . S
H2993 C3008 0.960 . S
H2994 C3008 0.960 . S
H2995 C3008 0.960 1_545 S
C2996 H2988 0.929 . S
C2996 C2997 1.430 . S
C2996 C2998 1.384 . S
C2997 C2996 1.430 . S
C2997 C3003 1.338 1_556 S
C2998 H2989 0.930 . S
C2998 C2996 1.384 . S
C2998 C2999 1.465 . S
C2999 C2998 1.465 . S
C2999 C3000 1.307 1_556 S
C2999 C3004 1.496 . S
C3000 H2990 0.930 . S
C3000 C2999 1.307 1_554 S
C3000 C3003 1.386 . S
H3001 C3017 0.930 . S
H3002 C3018 0.931 . S
C3003 H2991 0.929 . S
C3003 C2997 1.338 1_554 S
C3003 C3000 1.386 . S
C3004 C2999 1.496 . S
C3004 C3006 1.395 . S
C3004 C3007 1.387 1_546 S
H3005 C3011 0.930 . S
C3006 H2992 0.930 . S
C3006 C3004 1.395 . S
C3006 C3009 1.454 . S
C3007 C3004 1.387 1_564 S
C3007 C3008 1.515 . S
C3007 C3011 1.426 . S
C3008 H2993 0.960 . S
C3008 H2994 0.960 . S
C3008 H2995 0.960 1_565 S
C3008 C3007 1.515 . S
C3009 C3006 1.454 . S
C3009 C3010 1.362 1_545 S
C3009 C3013 1.478 . S
C3010 C3009 1.362 1_565 S
C3010 C3011 1.385 1_556 S
C3010 C3012 1.478 . S
C3011 H3005 0.930 . S
C3011 C3007 1.426 . S
C3011 C3010 1.385 1_554 S
C3012 C3010 1.478 . S
C3012 C3014 1.381 . S
C3012 C3018 1.383 1_556 S
C3013 C3009 1.478 . S
C3013 H3019 0.959 . S
C3013 H3020 0.961 . S
C3013 H3021 0.960 1_545 S
C3014 C3012 1.381 . S
C3014 C3015 1.394 . S
C3014 H3022 0.930 . S
C3015 C3014 1.394 . S
C3015 C3016 1.437 . S
C3015 H3023 0.929 . S
C3016 C3015 1.437 . S
C3016 C3017 1.327 1_556 S
C3017 H3001 0.930 . S
C3017 C3016 1.327 1_554 S
C3017 C3018 1.379 . S
C3018 H3002 0.931 . S
C3018 C3012 1.383 1_554 S
C3018 C3017 1.379 . S
H3019 C3013 0.959 . S
H3020 C3013 0.961 . S
H3021 C3013 0.960 1_565 S
H3022 C3014 0.930 . S
H3023 C3015 0.929 . S
H3024 C3032 0.929 . S
H3025 C3034 0.930 . S
H3026 C3036 0.930 . S
H3027 C3039 0.929 . S
H3028 C3042 0.930 . S
H3029 C3044 0.960 1_455 S
H3030 C3044 0.960 . S
H3031 C3044 0.960 . S
C3032 H3024 0.929 . S
C3032 C3033 1.422 . S
C3032 C3034 1.384 . S
C3033 C3032 1.422 . S
C3033 C3039 1.346 1_556 S
C3034 H3025 0.930 . S
C3034 C3032 1.384 . S
C3034 C3035 1.449 . S
C3035 C3034 1.449 . S
C3035 C3036 1.323 1_556 S
C3035 C3040 1.496 . S
C3036 H3026 0.930 . S
C3036 C3035 1.323 1_554 S
C3036 C3039 1.386 . S
H3037 C3053 0.930 . S
H3038 C3054 0.931 . S
C3039 H3027 0.929 . S
C3039 C3033 1.346 1_554 S
C3039 C3036 1.386 . S
C3040 C3035 1.496 . S
C3040 C3042 1.395 . S
C3040 C3043 1.403 1_556 S
H3041 C3047 0.930 . S
C3042 H3028 0.930 . S
C3042 C3040 1.395 . S
C3042 C3045 1.403 1_655 S
C3043 C3040 1.403 1_554 S
C3043 C3044 1.524 . S
C3043 C3047 1.400 1_655 S
C3044 H3029 0.960 1_655 S
C3044 H3030 0.960 . S
C3044 H3031 0.960 . S
C3044 C3043 1.524 . S
C3045 C3042 1.403 1_455 S
C3045 C3046 1.392 . S
C3045 C3049 1.495 . S
C3046 C3045 1.392 . S
C3046 C3047 1.385 1_556 S
C3046 C3048 1.478 . S
C3047 H3041 0.930 . S
C3047 C3043 1.400 1_455 S
C3047 C3046 1.385 1_554 S
C3048 C3046 1.478 . S
C3048 C3050 1.381 . S
C3048 C3054 1.383 1_556 S
C3049 C3045 1.495 . S
C3049 H3055 0.959 1_455 S
C3049 H3056 0.961 . S
C3049 H3057 0.960 . S
C3050 C3048 1.381 . S
C3050 C3051 1.394 . S
C3050 H3058 0.930 . S
C3051 C3050 1.394 . S
C3051 C3052 1.449 . S
C3051 H3059 0.929 . S
C3052 C3051 1.449 . S
C3052 C3053 1.320 1_556 S
C3053 H3037 0.930 . S
C3053 C3052 1.320 1_554 S
C3053 C3054 1.379 . S
C3054 H3038 0.931 . S
C3054 C3048 1.383 1_554 S
C3054 C3053 1.379 . S
H3055 C3049 0.959 1_655 S
H3056 C3049 0.961 . S
H3057 C3049 0.960 . S
H3058 C3050 0.930 . S
H3059 C3051 0.929 . S
H3060 C3068 0.929 . S
H3061 C3070 0.930 . S
H3062 C3072 0.930 . S
H3063 C3075 0.929 . S
H3064 C3078 0.930 . S
H3065 C3080 0.960 . S
H3066 C3080 0.960 1_556 S
H3067 C3080 0.960 . S
C3068 H3060 0.929 . S
C3068 C3069 1.396 . S
C3068 C3070 1.384 . S
C3069 C3068 1.396 . S
C3069 C3075 1.371 1_556 S
C3070 H3061 0.930 . S
C3070 C3068 1.384 . S
C3070 C3071 1.445 . S
C3071 C3070 1.445 . S
C3071 C3072 1.327 1_556 S
C3071 C3076 1.490 . S
C3072 H3062 0.930 . S
C3072 C3071 1.327 1_554 S
C3072 C3075 1.386 . S
H3073 C3089 0.930 . S
H3074 C3090 0.931 . S
C3075 H3063 0.929 . S
C3075 C3069 1.371 1_554 S
C3075 C3072 1.386 . S
C3076 C3071 1.490 . S
C3076 C3078 1.413 . S
C3076 C3079 1.392 1_556 S
H3077 C3083 0.938 . S
C3078 H3064 0.930 . S
C3078 C3076 1.413 . S
C3078 C3081 1.403 . S
C3079 C3076 1.392 1_554 S
C3079 C3080 1.528 . S
C3079 C3083 1.400 . S
C3080 H3065 0.960 . S
C3080 H3066 0.960 1_554 S
C3080 H3067 0.960 . S
C3080 C3079 1.528 . S
C3081 C3078 1.403 . S
C3081 C3082 1.413 . S
C3081 C3085 1.495 . S
C3082 C3081 1.413 . S
C3082 C3083 1.373 1_556 S
C3082 C3084 1.477 . S
C3083 H3077 0.938 . S
C3083 C3079 1.400 . S
C3083 C3082 1.373 1_554 S
C3084 C3082 1.477 . S
C3084 C3086 1.454 . S
C3084 C3090 1.311 1_556 S
C3085 C3081 1.495 . S
C3085 H3091 0.959 . S
C3085 H3092 0.961 1_556 S
C3085 H3093 0.960 . S
C3086 C3084 1.454 . S
C3086 C3087 1.394 . S
C3086 H3094 0.930 . S
C3087 C3086 1.394 . S
C3087 C3088 1.433 . S
C3087 H3095 0.929 . S
C3088 C3087 1.433 . S
C3088 C3089 1.329 1_556 S
C3089 H3073 0.930 . S
C3089 C3088 1.329 1_554 S
C3089 C3090 1.379 . S
C3090 H3074 0.931 . S
C3090 C3084 1.311 1_554 S
C3090 C3089 1.379 . S
H3091 C3085 0.959 . S
H3092 C3085 0.961 1_554 S
H3093 C3085 0.960 . S
H3094 C3086 0.930 . S
H3095 C3087 0.929 . S
C513 C9 0.954 . S
C532 C21 1.053 . S
C549 C23 0.958 . S
C568 C35 1.059 . S
C585 C7 1.011 . S
C604 C37 1.013 . S
C621 C51 0.953 . S
C640 C77 1.011 . S
C657 C65 0.976 . S
C676 C49 0.984 . S
C693 C63 1.025 . S
C712 C79 0.994 . S
C729 C93 0.977 . S
C748 C101 1.094 . S
C765 C115 1.096 . S
C784 C107 0.955 . S
C801 C87 1.095 . S
C820 C121 0.951 . S
C837 C157 1.093 . S
C856 C135 1.045 . S
C873 C149 0.979 . S
C892 C129 1.100 . S
C909 C163 0.976 . S
C928 C143 1.095 . S
C945 C189 1.009 . S
C964 C177 0.979 . S
C981 C191 0.953 . S
C1000 C203 1.046 . S
C1017 C205 0.954 . S
C1036 C175 1.050 . S
C1053 C219 0.978 . S
C1072 C245 0.997 . S
C1089 C233 0.973 . S
C1108 C217 1.046 . S
C1125 C247 0.952 . S
C1144 C231 1.039 . S
C1161 C269 1.093 . S
C1180 C261 1.035 . S
C1197 C275 0.986 . S
C1216 C283 1.095 . S
C1233 C255 1.096 . S
C1252 C289 0.934 . S
C1269 C325 1.094 . S
C1288 C303 0.983 . S
C1305 C317 1.017 . S
C1324 C297 1.092 . S
C1341 C311 1.093 . S
C1360 C331 1.068 . S
C1377 C357 1.012 . S
C1396 C345 0.926 . S
C1413 C359 0.973 . S
C1432 C371 0.974 . S
C1449 C373 0.977 . S
C1468 C343 1.027 . S
C1485 C413 1.009 . S
C1504 C387 0.997 . S
C1521 C401 0.959 . S
C1540 C385 0.984 . S
C1557 C399 1.015 . S
C1576 C415 1.027 . S
C1593 C429 0.970 . S
C1612 C437 1.102 . S
C1629 C443 0.990 . S
C1648 C451 1.092 . S
C1665 C457 0.986 . S
C1684 C423 1.095 . S
C1701 C493 1.097 . S
C1720 C471 0.928 . S
C1737 C465 1.096 . S
C1756 C485 0.926 . S
C1773 C499 0.985 . S
C1792 C479 1.096 . S
C1809 C45 1.709 . S
C1828 C3 1.691 . S
C1845 C17 1.708 . S
C1864 C59 1.693 . S
C1881 C73 1.704 . S
C1900 C31 1.714 . S
C1917 C133 1.607 . S
C1936 C91 1.632 . S
C1953 C105 1.619 . S
C1972 C147 1.601 . S
C1989 C161 1.607 . S
C2008 C119 1.613 . S
C2025 C171 1.708 . S
C2044 C213 1.691 . S
C2061 C185 1.708 . S
C2080 C227 1.698 . S
C2097 C199 1.704 . S
C2116 C241 1.715 . S
C2133 C301 1.619 . S
C2152 C259 1.608 . S
C2169 C315 1.615 . S
C2188 C273 1.578 . S
C2205 C287 1.613 . S
C2224 C329 1.580 . S
C2241 C381 1.709 . S
C2260 C339 1.692 . S
C2277 C395 1.706 . S
C2296 C353 1.709 . S
C2313 C367 1.709 . S
C2332 C409 1.691 . S
C2349 C427 1.617 . S
C2368 C469 1.582 . S
C2385 C483 1.619 . S
C2404 C441 1.610 . S
C2421 C455 1.611 . S
C2440 C497 1.640 . S
C2457 C8 1.543 . S
C2476 C260 1.555 . S
C2493 C22 1.547 . S
C2512 C274 1.529 . S
C2529 C36 1.544 . S
C2548 C288 1.554 . S
C2565 C470 1.531 . S
C2584 C50 1.514 . S
C2601 C484 1.532 . S
C2620 C64 1.515 . S
C2637 C78 1.544 . S
C2656 C498 1.507 . S
C2673 C92 1.528 . S
C2692 C344 1.517 . S
C2709 C358 1.540 . S
C2728 C106 1.551 . S
C2745 C372 1.537 . S
C2764 C120 1.514 . S
C2781 C218 1.545 . S
C2800 C134 1.510 . S
C2817 C232 1.537 . S
C2836 C148 1.533 . S
C2853 C246 1.541 . S
C2872 C162 1.553 . S
C2889 C428 1.526 . S
C2908 C176 1.528 . S
C2925 C190 1.545 . S
C2944 C442 1.553 . S
C2961 C204 1.542 . S
C2980 C456 1.555 . S
C2997 C302 1.526 1_556 S
C3016 C386 1.552 . S
C3033 C316 1.527 1_556 S
C3052 C400 1.549 . S
C3069 C414 1.545 . S
C3088 C330 1.542 1_556 S
