# Generated by pormake.
# Topology umq, (4)-cn, num edge types: 1
# Building blocks:
#     Node 0, Type 0, BuildingBlock: CEKHIL_clean_sbu_0, # of connection points: 4
#     Node 1, Type 0, BuildingBlock: CEKHIL_clean_sbu_0, # of connection points: 4
#     Node 2, Type 0, BuildingBlock: CEKHIL_clean_sbu_0, # of connection points: 4
#     Node 3, Type 0, BuildingBlock: CEKHIL_clean_sbu_0, # of connection points: 4
#     Node 4, Type 0, BuildingBlock: CEKHIL_clean_sbu_0, # of connection points: 4
#     Node 5, Type 0, BuildingBlock: CEKHIL_clean_sbu_0, # of connection points: 4
#     Node 6, Type 0, BuildingBlock: CEKHIL_clean_sbu_0, # of connection points: 4
#     Node 7, Type 0, BuildingBlock: CEKHIL_clean_sbu_0, # of connection points: 4
#     Node 8, Type 0, BuildingBlock: CEKHIL_clean_sbu_0, # of connection points: 4
#     Node 9, Type 0, BuildingBlock: CEKHIL_clean_sbu_0, # of connection points: 4
#     Node 10, Type 0, BuildingBlock: CEKHIL_clean_sbu_0, # of connection points: 4
#     Node 11, Type 0, BuildingBlock: CEKHIL_clean_sbu_0, # of connection points: 4
#     Node 12, Type 0, BuildingBlock: CEKHIL_clean_sbu_0, # of connection points: 4
#     Node 13, Type 0, BuildingBlock: CEKHIL_clean_sbu_0, # of connection points: 4
#     Node 14, Type 0, BuildingBlock: CEKHIL_clean_sbu_0, # of connection points: 4
#     Node 15, Type 0, BuildingBlock: CEKHIL_clean_sbu_0, # of connection points: 4
#     Node 16, Type 0, BuildingBlock: CEKHIL_clean_sbu_0, # of connection points: 4
#     Node 17, Type 0, BuildingBlock: CEKHIL_clean_sbu_0, # of connection points: 4
#     Node 18, Type 0, BuildingBlock: CEKHIL_clean_sbu_0, # of connection points: 4
#     Node 19, Type 0, BuildingBlock: CEKHIL_clean_sbu_0, # of connection points: 4
#     Node 20, Type 0, BuildingBlock: CEKHIL_clean_sbu_0, # of connection points: 4
#     Node 21, Type 0, BuildingBlock: CEKHIL_clean_sbu_0, # of connection points: 4
#     Node 22, Type 0, BuildingBlock: CEKHIL_clean_sbu_0, # of connection points: 4
#     Node 23, Type 0, BuildingBlock: CEKHIL_clean_sbu_0, # of connection points: 4
#     Node 24, Type 0, BuildingBlock: CEKHIL_clean_sbu_0, # of connection points: 4
#     Node 25, Type 0, BuildingBlock: CEKHIL_clean_sbu_0, # of connection points: 4
#     Node 26, Type 0, BuildingBlock: CEKHIL_clean_sbu_0, # of connection points: 4
#     Node 27, Type 0, BuildingBlock: CEKHIL_clean_sbu_0, # of connection points: 4
#     Node 28, Type 0, BuildingBlock: CEKHIL_clean_sbu_0, # of connection points: 4
#     Node 29, Type 0, BuildingBlock: CEKHIL_clean_sbu_0, # of connection points: 4
#     Node 30, Type 0, BuildingBlock: CEKHIL_clean_sbu_0, # of connection points: 4
#     Node 31, Type 0, BuildingBlock: CEKHIL_clean_sbu_0, # of connection points: 4
#     Edge 32, Type (0, 0), BuildingBlock: XIVTED_clean_linker_0, # of connection points: 2
#     Edge 33, Type (0, 0), BuildingBlock: XIVTED_clean_linker_0, # of connection points: 2
#     Edge 34, Type (0, 0), BuildingBlock: XIVTED_clean_linker_0, # of connection points: 2
#     Edge 35, Type (0, 0), BuildingBlock: XIVTED_clean_linker_0, # of connection points: 2
#     Edge 36, Type (0, 0), BuildingBlock: XIVTED_clean_linker_0, # of connection points: 2
#     Edge 37, Type (0, 0), BuildingBlock: XIVTED_clean_linker_0, # of connection points: 2
#     Edge 38, Type (0, 0), BuildingBlock: XIVTED_clean_linker_0, # of connection points: 2
#     Edge 39, Type (0, 0), BuildingBlock: XIVTED_clean_linker_0, # of connection points: 2
#     Edge 40, Type (0, 0), BuildingBlock: XIVTED_clean_linker_0, # of connection points: 2
#     Edge 41, Type (0, 0), BuildingBlock: XIVTED_clean_linker_0, # of connection points: 2
#     Edge 42, Type (0, 0), BuildingBlock: XIVTED_clean_linker_0, # of connection points: 2
#     Edge 43, Type (0, 0), BuildingBlock: XIVTED_clean_linker_0, # of connection points: 2
#     Edge 44, Type (0, 0), BuildingBlock: XIVTED_clean_linker_0, # of connection points: 2
#     Edge 45, Type (0, 0), BuildingBlock: XIVTED_clean_linker_0, # of connection points: 2
#     Edge 46, Type (0, 0), BuildingBlock: XIVTED_clean_linker_0, # of connection points: 2
#     Edge 47, Type (0, 0), BuildingBlock: XIVTED_clean_linker_0, # of connection points: 2
#     Edge 48, Type (0, 0), BuildingBlock: XIVTED_clean_linker_0, # of connection points: 2
#     Edge 49, Type (0, 0), BuildingBlock: XIVTED_clean_linker_0, # of connection points: 2
#     Edge 50, Type (0, 0), BuildingBlock: XIVTED_clean_linker_0, # of connection points: 2
#     Edge 51, Type (0, 0), BuildingBlock: XIVTED_clean_linker_0, # of connection points: 2
#     Edge 52, Type (0, 0), BuildingBlock: XIVTED_clean_linker_0, # of connection points: 2
#     Edge 53, Type (0, 0), BuildingBlock: XIVTED_clean_linker_0, # of connection points: 2
#     Edge 54, Type (0, 0), BuildingBlock: XIVTED_clean_linker_0, # of connection points: 2
#     Edge 55, Type (0, 0), BuildingBlock: XIVTED_clean_linker_0, # of connection points: 2
#     Edge 56, Type (0, 0), BuildingBlock: XIVTED_clean_linker_0, # of connection points: 2
#     Edge 57, Type (0, 0), BuildingBlock: XIVTED_clean_linker_0, # of connection points: 2
#     Edge 58, Type (0, 0), BuildingBlock: XIVTED_clean_linker_0, # of connection points: 2
#     Edge 59, Type (0, 0), BuildingBlock: XIVTED_clean_linker_0, # of connection points: 2
#     Edge 60, Type (0, 0), BuildingBlock: XIVTED_clean_linker_0, # of connection points: 2
#     Edge 61, Type (0, 0), BuildingBlock: XIVTED_clean_linker_0, # of connection points: 2
#     Edge 62, Type (0, 0), BuildingBlock: XIVTED_clean_linker_0, # of connection points: 2
#     Edge 63, Type (0, 0), BuildingBlock: XIVTED_clean_linker_0, # of connection points: 2
#     Edge 64, Type (0, 0), BuildingBlock: XIVTED_clean_linker_0, # of connection points: 2
#     Edge 65, Type (0, 0), BuildingBlock: XIVTED_clean_linker_0, # of connection points: 2
#     Edge 66, Type (0, 0), BuildingBlock: XIVTED_clean_linker_0, # of connection points: 2
#     Edge 67, Type (0, 0), BuildingBlock: XIVTED_clean_linker_0, # of connection points: 2
#     Edge 68, Type (0, 0), BuildingBlock: XIVTED_clean_linker_0, # of connection points: 2
#     Edge 69, Type (0, 0), BuildingBlock: XIVTED_clean_linker_0, # of connection points: 2
#     Edge 70, Type (0, 0), BuildingBlock: XIVTED_clean_linker_0, # of connection points: 2
#     Edge 71, Type (0, 0), BuildingBlock: XIVTED_clean_linker_0, # of connection points: 2
#     Edge 72, Type (0, 0), BuildingBlock: XIVTED_clean_linker_0, # of connection points: 2
#     Edge 73, Type (0, 0), BuildingBlock: XIVTED_clean_linker_0, # of connection points: 2
#     Edge 74, Type (0, 0), BuildingBlock: XIVTED_clean_linker_0, # of connection points: 2
#     Edge 75, Type (0, 0), BuildingBlock: XIVTED_clean_linker_0, # of connection points: 2
#     Edge 76, Type (0, 0), BuildingBlock: XIVTED_clean_linker_0, # of connection points: 2
#     Edge 77, Type (0, 0), BuildingBlock: XIVTED_clean_linker_0, # of connection points: 2
#     Edge 78, Type (0, 0), BuildingBlock: XIVTED_clean_linker_0, # of connection points: 2
#     Edge 79, Type (0, 0), BuildingBlock: XIVTED_clean_linker_0, # of connection points: 2
#     Edge 80, Type (0, 0), BuildingBlock: XIVTED_clean_linker_0, # of connection points: 2
#     Edge 81, Type (0, 0), BuildingBlock: XIVTED_clean_linker_0, # of connection points: 2
#     Edge 82, Type (0, 0), BuildingBlock: XIVTED_clean_linker_0, # of connection points: 2
#     Edge 83, Type (0, 0), BuildingBlock: XIVTED_clean_linker_0, # of connection points: 2
#     Edge 84, Type (0, 0), BuildingBlock: XIVTED_clean_linker_0, # of connection points: 2
#     Edge 85, Type (0, 0), BuildingBlock: XIVTED_clean_linker_0, # of connection points: 2
#     Edge 86, Type (0, 0), BuildingBlock: XIVTED_clean_linker_0, # of connection points: 2
#     Edge 87, Type (0, 0), BuildingBlock: XIVTED_clean_linker_0, # of connection points: 2
#     Edge 88, Type (0, 0), BuildingBlock: XIVTED_clean_linker_0, # of connection points: 2
#     Edge 89, Type (0, 0), BuildingBlock: XIVTED_clean_linker_0, # of connection points: 2
#     Edge 90, Type (0, 0), BuildingBlock: XIVTED_clean_linker_0, # of connection points: 2
#     Edge 91, Type (0, 0), BuildingBlock: XIVTED_clean_linker_0, # of connection points: 2
#     Edge 92, Type (0, 0), BuildingBlock: XIVTED_clean_linker_0, # of connection points: 2
#     Edge 93, Type (0, 0), BuildingBlock: XIVTED_clean_linker_0, # of connection points: 2
#     Edge 94, Type (0, 0), BuildingBlock: XIVTED_clean_linker_0, # of connection points: 2
#     Edge 95, Type (0, 0), BuildingBlock: XIVTED_clean_linker_0, # of connection points: 2
# Relax obj value: 0.078
# Max RMSD: 0.062
# Mean RMSD: 0.062
data_MOF--net-umq--node1-CEKHIL_clean_sbu_0--edge1-XIVTED_clean_linker_0
_symmetry_space_group_name_H-M    P1
_symmetry_Int_Tables_number       1
_symmetry_cell_setting            triclinic
loop_
_symmetry_equiv_pos_as_xyz
'x, y, z'
_cell_length_a     65.797645
_cell_length_b     65.780318
_cell_length_c     44.354686
_cell_angle_alpha  90.006176
_cell_angle_beta   90.012007
_cell_angle_gamma 89.994082
loop_
_atom_site_label
_atom_site_type_symbol
_atom_site_fract_x
_atom_site_fract_y
_atom_site_fract_z
_atom_type_partial_charge
Co0 Co 0.2451 0.09654 0.16054 0.0
O1 O 0.22971 0.07259 0.17095 0.0
O2 O 0.25612 0.084 0.19671 0.0
C3 C 0.24826 0.08893 0.11105 0.0
O4 O 0.26532 0.12014 0.15579 0.0
Co5 Co 0.22845 0.12779 0.11363 0.0
O6 O 0.25706 0.13716 0.11351 0.0
C7 C 0.21145 0.12685 0.17542 0.0
C8 C 0.24228 0.07007 0.19316 0.0
C9 C 0.26927 0.13338 0.13511 0.0
O10 O 0.22544 0.11436 0.18432 0.0
O11 O 0.20935 0.13234 0.14791 0.0
O12 O 0.26065 0.08086 0.13046 0.0
O13 O 0.23383 0.09967 0.12241 0.0
Co14 Co 0.91196 0.24299 0.16338 0.0
O15 O 0.93557 0.22767 0.17555 0.0
O16 O 0.92393 0.25475 0.19948 0.0
C17 C 0.92094 0.24461 0.11425 0.0
O18 O 0.88866 0.26329 0.15677 0.0
Co19 Co 0.88158 0.22605 0.11553 0.0
O20 O 0.87238 0.25471 0.11401 0.0
C21 C 0.88117 0.20992 0.17802 0.0
C22 C 0.93784 0.24076 0.19713 0.0
C23 C 0.87583 0.26711 0.13549 0.0
O24 O 0.89353 0.22395 0.18718 0.0
O25 O 0.87626 0.20752 0.15031 0.0
O26 O 0.92837 0.25769 0.13322 0.0
O27 O 0.90958 0.23074 0.12578 0.0
Co28 Co 0.76311 0.91195 0.16366 0.0
O29 O 0.77876 0.93541 0.17548 0.0
O30 O 0.7516 0.92429 0.19971 0.0
C31 C 0.76142 0.92073 0.11449 0.0
O32 O 0.74255 0.88882 0.15724 0.0
Co33 Co 0.77981 0.88122 0.11611 0.0
O34 O 0.75102 0.87252 0.11443 0.0
C35 C 0.79593 0.88093 0.17859 0.0
C36 C 0.76579 0.93798 0.19712 0.0
C37 C 0.73861 0.87609 0.13586 0.0
O38 O 0.782 0.89345 0.18758 0.0
O39 O 0.79829 0.87584 0.15094 0.0
O40 O 0.74851 0.92842 0.13348 0.0
O41 O 0.77522 0.90929 0.12605 0.0
Co42 Co 0.09695 0.76522 0.16228 0.0
O43 O 0.07332 0.78055 0.17435 0.0
O44 O 0.08483 0.75339 0.19822 0.0
C45 C 0.08818 0.76371 0.11306 0.0
O46 O 0.12027 0.74493 0.15571 0.0
Co47 Co 0.12753 0.78241 0.11493 0.0
O48 O 0.13677 0.75377 0.11326 0.0
C49 C 0.12778 0.79814 0.17764 0.0
C50 C 0.07096 0.76742 0.19585 0.0
C51 C 0.13323 0.74125 0.13456 0.0
O52 O 0.1153 0.78413 0.18643 0.0
O53 O 0.13285 0.8007 0.15002 0.0
O54 O 0.08062 0.75064 0.13192 0.0
O55 O 0.09949 0.77756 0.12476 0.0
Co56 Co 0.24423 0.91115 0.33813 0.0
O57 O 0.22909 0.93478 0.32552 0.0
O58 O 0.2563 0.92296 0.30214 0.0
C59 C 0.24552 0.92024 0.38721 0.0
O60 O 0.26437 0.88778 0.3453 0.0
Co61 Co 0.22671 0.88096 0.38572 0.0
O62 O 0.2553 0.87164 0.38794 0.0
C63 C 0.2112 0.88042 0.3229 0.0
C64 C 0.24232 0.9369 0.30411 0.0
C65 C 0.26794 0.87499 0.36673 0.0
O66 O 0.22532 0.89276 0.31406 0.0
O67 O 0.20853 0.87552 0.35056 0.0
O68 O 0.25877 0.92758 0.36841 0.0
O69 O 0.23167 0.90893 0.37552 0.0
Co70 Co 0.09872 0.24254 0.33767 0.0
O71 O 0.07487 0.22718 0.32677 0.0
O72 O 0.08578 0.25435 0.30233 0.0
C73 C 0.09123 0.24412 0.38736 0.0
O74 O 0.12214 0.26287 0.34322 0.0
Co75 Co 0.13036 0.22523 0.38351 0.0
O76 O 0.13932 0.25395 0.38507 0.0
C77 C 0.12888 0.20931 0.32099 0.0
C78 C 0.07203 0.24026 0.30533 0.0
C79 C 0.13535 0.26656 0.36405 0.0
O80 O 0.11652 0.22358 0.31267 0.0
O81 O 0.13443 0.2067 0.34838 0.0
O82 O 0.08308 0.25713 0.36892 0.0
O83 O 0.10217 0.23025 0.37497 0.0
Co84 Co 0.76403 0.09829 0.33851 0.0
O85 O 0.77925 0.0746 0.32642 0.0
O86 O 0.75227 0.08634 0.30238 0.0
C87 C 0.76229 0.08931 0.3876 0.0
O88 O 0.74382 0.12169 0.34513 0.0
Co89 Co 0.78103 0.12858 0.38646 0.0
O90 O 0.75238 0.13774 0.38809 0.0
C91 C 0.79731 0.1289 0.32404 0.0
C92 C 0.76618 0.07235 0.30483 0.0
C93 C 0.73998 0.1344 0.36657 0.0
O94 O 0.78323 0.11662 0.31479 0.0
O95 O 0.79964 0.1338 0.35177 0.0
O96 O 0.74921 0.08193 0.36859 0.0
O97 O 0.77622 0.10061 0.37613 0.0
Co98 Co 0.91099 0.76579 0.33817 0.0
O99 O 0.93451 0.78139 0.32642 0.0
O100 O 0.92341 0.75415 0.30231 0.0
C101 C 0.91955 0.76427 0.38749 0.0
O102 O 0.88787 0.74522 0.34437 0.0
Co103 Co 0.87999 0.78246 0.38534 0.0
O104 O 0.87113 0.7537 0.38678 0.0
C105 C 0.87997 0.79849 0.3228 0.0
C106 C 0.93711 0.76832 0.30488 0.0
C107 C 0.8749 0.7413 0.36541 0.0
O108 O 0.89256 0.78458 0.31396 0.0
O109 O 0.87478 0.80089 0.35039 0.0
O110 O 0.92735 0.75132 0.36865 0.0
O111 O 0.90813 0.77801 0.37572 0.0
Co112 Co 0.76475 0.91193 0.83991 0.0
O113 O 0.77955 0.93634 0.83022 0.0
O114 O 0.75364 0.92455 0.80374 0.0
C115 C 0.76213 0.9196 0.88941 0.0
O116 O 0.74487 0.888 0.84435 0.0
Co117 Co 0.78168 0.88067 0.8865 0.0
O118 O 0.75311 0.87117 0.8868 0.0
C119 C 0.7988 0.88228 0.8247 0.0
C120 C 0.76699 0.93887 0.80803 0.0
C121 C 0.74092 0.87481 0.86512 0.0
O122 O 0.78467 0.89462 0.81584 0.0
O123 O 0.80088 0.87663 0.85216 0.0
O124 O 0.74913 0.9272 0.87044 0.0
O125 O 0.77636 0.90879 0.87774 0.0
Co126 Co 0.09654 0.76676 0.83875 0.0
O127 O 0.07305 0.7824 0.82699 0.0
O128 O 0.0842 0.75526 0.80272 0.0
C129 C 0.08779 0.76517 0.88797 0.0
O130 O 0.11966 0.74613 0.84492 0.0
Co131 Co 0.12742 0.7831 0.88631 0.0
O132 O 0.13623 0.75433 0.88759 0.0
C133 C 0.1275 0.7996 0.82399 0.0
C134 C 0.0705 0.76943 0.80532 0.0
C135 C 0.13253 0.74205 0.86604 0.0
O136 O 0.11499 0.7857 0.81484 0.0
O137 O 0.13263 0.80177 0.85165 0.0
O138 O 0.08012 0.75219 0.86904 0.0
O139 O 0.0993 0.77889 0.87638 0.0
Co140 Co 0.24472 0.09755 0.83757 0.0
O141 O 0.23248 0.07121 0.83156 0.0
O142 O 0.25506 0.08502 0.80087 0.0
C143 C 0.25162 0.09308 0.8871 0.0
O144 O 0.26161 0.1239 0.83774 0.0
Co145 Co 0.2249 0.12801 0.88302 0.0
O146 O 0.25009 0.14365 0.87563 0.0
C147 C 0.20592 0.12156 0.82383 0.0
C148 C 0.24368 0.06948 0.80767 0.0
C149 C 0.26269 0.13996 0.85446 0.0
O150 O 0.22162 0.11143 0.81463 0.0
O151 O 0.20361 0.12726 0.85117 0.0
O152 O 0.26385 0.08553 0.867 0.0
O153 O 0.23522 0.10103 0.87664 0.0
Co154 Co 0.91261 0.24334 0.83941 0.0
O155 O 0.93711 0.22856 0.8301 0.0
O156 O 0.92536 0.25433 0.80329 0.0
C157 C 0.91987 0.24628 0.88906 0.0
O158 O 0.8886 0.26318 0.84339 0.0
Co159 Co 0.8811 0.22644 0.88565 0.0
O160 O 0.87176 0.25508 0.88588 0.0
C161 C 0.88301 0.20923 0.82393 0.0
C162 C 0.93969 0.24102 0.8078 0.0
C163 C 0.87543 0.2672 0.86413 0.0
O164 O 0.89548 0.22329 0.81525 0.0
O165 O 0.87713 0.20723 0.85129 0.0
O166 O 0.92766 0.25912 0.87002 0.0
O167 O 0.90924 0.23192 0.87734 0.0
Co168 Co 0.76609 0.09793 0.6624 0.0
O169 O 0.78047 0.07326 0.67202 0.0
O170 O 0.75467 0.08537 0.69839 0.0
C171 C 0.76343 0.09056 0.61279 0.0
O172 O 0.7466 0.12219 0.65791 0.0
Co173 Co 0.78382 0.12907 0.61629 0.0
O174 O 0.7554 0.13899 0.61569 0.0
C175 C 0.80056 0.12699 0.67826 0.0
C176 C 0.76782 0.07086 0.6941 0.0
C177 C 0.74299 0.13548 0.63714 0.0
O178 O 0.78619 0.11483 0.68681 0.0
O179 O 0.80289 0.13271 0.65089 0.0
O180 O 0.75032 0.08303 0.63164 0.0
O181 O 0.77785 0.10103 0.62467 0.0
Co182 Co 0.91087 0.76744 0.66191 0.0
O183 O 0.93464 0.78259 0.67388 0.0
O184 O 0.92295 0.75556 0.69785 0.0
C185 C 0.9196 0.76587 0.61267 0.0
O186 O 0.88741 0.74726 0.6555 0.0
Co187 Co 0.88031 0.78458 0.6145 0.0
O188 O 0.87088 0.756 0.61303 0.0
C189 C 0.88045 0.80073 0.67699 0.0
C190 C 0.93692 0.76947 0.69542 0.0
C191 C 0.87441 0.74355 0.63442 0.0
O192 O 0.89271 0.78657 0.68598 0.0
O193 O 0.87539 0.80317 0.64935 0.0
O194 O 0.92705 0.7527 0.63151 0.0
O195 O 0.90835 0.77976 0.62438 0.0
Co196 Co 0.2437 0.91047 0.6617 0.0
O197 O 0.22971 0.93524 0.67206 0.0
O198 O 0.25527 0.92235 0.69812 0.0
C199 C 0.24658 0.91841 0.61228 0.0
O200 O 0.26274 0.88591 0.65653 0.0
Co201 Co 0.22527 0.88032 0.61468 0.0
O202 O 0.2534 0.8696 0.61412 0.0
C203 C 0.20866 0.88187 0.6767 0.0
C204 C 0.24234 0.93712 0.69429 0.0
C205 C 0.26594 0.87265 0.63557 0.0
O206 O 0.22331 0.89358 0.68556 0.0
O207 O 0.20611 0.87664 0.64915 0.0
O208 O 0.25976 0.92549 0.63141 0.0
O209 O 0.23193 0.90809 0.62383 0.0
Co210 Co 0.09922 0.23998 0.66282 0.0
O211 O 0.0733 0.22739 0.67042 0.0
O212 O 0.08686 0.2513 0.69907 0.0
C213 C 0.09346 0.24474 0.613 0.0
O214 O 0.12518 0.25741 0.66061 0.0
Co215 Co 0.12943 0.22002 0.61709 0.0
O216 O 0.14361 0.24639 0.62107 0.0
C217 C 0.12435 0.20228 0.67778 0.0
C218 C 0.0715 0.23941 0.69339 0.0
C219 C 0.14037 0.25907 0.6423 0.0
O220 O 0.1139 0.21785 0.6867 0.0
O221 O 0.12985 0.19968 0.65038 0.0
O222 O 0.08635 0.25779 0.63232 0.0
O223 O 0.10218 0.22912 0.62456 0.0
Co224 Co 0.74335 0.59922 0.6623 0.0
O225 O 0.72897 0.57456 0.67202 0.0
O226 O 0.75474 0.58677 0.69838 0.0
C227 C 0.74608 0.59181 0.61271 0.0
O228 O 0.76283 0.62347 0.65775 0.0
Co229 Co 0.72566 0.63026 0.61592 0.0
O230 O 0.75408 0.64019 0.61544 0.0
C231 C 0.70879 0.62826 0.67779 0.0
C232 C 0.74161 0.57224 0.69415 0.0
C233 C 0.76646 0.63672 0.63694 0.0
O234 O 0.72322 0.61622 0.68654 0.0
O235 O 0.70646 0.63383 0.65035 0.0
O236 O 0.75915 0.58425 0.6316 0.0
O237 O 0.73166 0.60227 0.62457 0.0
Co238 Co 0.41038 0.74122 0.66324 0.0
O239 O 0.43426 0.72615 0.6749 0.0
O240 O 0.42255 0.75301 0.69924 0.0
C241 C 0.41898 0.74307 0.61397 0.0
O242 O 0.38672 0.76125 0.65711 0.0
Co243 Co 0.37992 0.72384 0.61585 0.0
O244 O 0.36984 0.75219 0.61507 0.0
C245 C 0.38045 0.70745 0.67816 0.0
C246 C 0.43657 0.73916 0.69656 0.0
C247 C 0.37339 0.76473 0.63636 0.0
O248 O 0.39242 0.72184 0.68724 0.0
O249 O 0.37549 0.70495 0.65048 0.0
O250 O 0.42638 0.75621 0.63289 0.0
O251 O 0.40789 0.72904 0.62562 0.0
Co252 Co 0.26529 0.41019 0.66251 0.0
O253 O 0.27751 0.43615 0.67097 0.0
O254 O 0.25386 0.42185 0.69925 0.0
C255 C 0.26044 0.41689 0.61299 0.0
O256 O 0.24839 0.38393 0.65937 0.0
Co257 Co 0.28577 0.3813 0.61532 0.0
O258 O 0.2598 0.36637 0.61917 0.0
C259 C 0.30322 0.38516 0.67647 0.0
C260 C 0.26552 0.43746 0.69401 0.0
C261 C 0.24714 0.36893 0.64062 0.0
O262 O 0.28763 0.39544 0.68573 0.0
O263 O 0.30592 0.38018 0.64886 0.0
O264 O 0.24721 0.42329 0.63259 0.0
O265 O 0.27618 0.40817 0.62417 0.0
Co266 Co 0.59836 0.26609 0.66188 0.0
O267 O 0.57457 0.28118 0.67396 0.0
O268 O 0.58638 0.25419 0.69788 0.0
C269 C 0.58947 0.26454 0.61269 0.0
O270 O 0.62186 0.24596 0.65541 0.0
Co271 Co 0.62875 0.28318 0.61421 0.0
O272 O 0.63831 0.25465 0.61286 0.0
C273 C 0.6286 0.29958 0.67659 0.0
C274 C 0.57236 0.26806 0.69551 0.0
C275 C 0.63486 0.24223 0.63432 0.0
O276 O 0.61652 0.28533 0.6858 0.0
O277 O 0.63352 0.30195 0.64888 0.0
O278 O 0.58213 0.25132 0.63153 0.0
O279 O 0.60075 0.27841 0.62435 0.0
Co280 Co 0.74479 0.41206 0.83669 0.0
O281 O 0.73016 0.4366 0.82714 0.0
O282 O 0.75572 0.42447 0.80026 0.0
C283 C 0.74795 0.4197 0.88615 0.0
O284 O 0.76443 0.38792 0.84095 0.0
Co285 Co 0.72781 0.38112 0.88379 0.0
O286 O 0.75631 0.37139 0.88371 0.0
C287 C 0.71034 0.38266 0.82222 0.0
C288 C 0.74255 0.43894 0.8047 0.0
C289 C 0.76839 0.3748 0.86181 0.0
O290 O 0.72449 0.39487 0.81306 0.0
O291 O 0.70838 0.37714 0.84974 0.0
O292 O 0.76083 0.42721 0.86693 0.0
O293 O 0.73349 0.4091 0.8747 0.0
Co294 Co 0.59661 0.74395 0.83898 0.0
O295 O 0.57297 0.7285 0.82725 0.0
O296 O 0.5844 0.75544 0.80282 0.0
C297 C 0.58781 0.74584 0.88818 0.0
O298 O 0.61991 0.76437 0.84513 0.0
Co299 Co 0.62723 0.72739 0.88678 0.0
O300 O 0.63627 0.75609 0.88796 0.0
C301 C 0.62736 0.71079 0.82453 0.0
C302 C 0.57054 0.74143 0.80551 0.0
C303 C 0.63275 0.76837 0.86634 0.0
O304 O 0.61495 0.72475 0.81527 0.0
O305 O 0.63241 0.70863 0.85222 0.0
O306 O 0.58027 0.75878 0.8691 0.0
O307 O 0.59918 0.73195 0.87672 0.0
Co308 Co 0.26274 0.59693 0.83861 0.0
O309 O 0.27714 0.57231 0.82869 0.0
O310 O 0.25154 0.58472 0.8022 0.0
C311 C 0.25977 0.58907 0.888 0.0
O312 O 0.24324 0.62117 0.84321 0.0
Co313 Co 0.27996 0.62763 0.88581 0.0
O314 O 0.25153 0.63753 0.88604 0.0
C315 C 0.29732 0.62615 0.82414 0.0
C316 C 0.26462 0.57013 0.80639 0.0
C317 C 0.23938 0.63424 0.86418 0.0
O318 O 0.28307 0.61405 0.81495 0.0
O319 O 0.29933 0.6316 0.85169 0.0
O320 O 0.24673 0.58177 0.86883 0.0
O321 O 0.27423 0.59967 0.87655 0.0
Co322 Co 0.41181 0.26737 0.83744 0.0
O323 O 0.43676 0.28134 0.82805 0.0
O324 O 0.4243 0.25578 0.80151 0.0
C325 C 0.41873 0.26393 0.8872 0.0
O326 O 0.38676 0.24879 0.84113 0.0
Co327 Co 0.3814 0.28637 0.88382 0.0
O328 O 0.36792 0.2596 0.88038 0.0
C329 C 0.38486 0.30356 0.82239 0.0
C330 C 0.43888 0.26889 0.80564 0.0
C331 C 0.37157 0.24685 0.85939 0.0
O332 O 0.3957 0.28829 0.81336 0.0
O333 O 0.37976 0.30624 0.84995 0.0
O334 O 0.42607 0.25083 0.86815 0.0
O335 O 0.40897 0.27883 0.87538 0.0
Co336 Co 0.26499 0.41205 0.33904 0.0
O337 O 0.2794 0.43665 0.32921 0.0
O338 O 0.25401 0.42409 0.30237 0.0
C339 C 0.26161 0.42011 0.38826 0.0
O340 O 0.2456 0.38778 0.34355 0.0
Co341 Co 0.28217 0.38164 0.38657 0.0
O342 O 0.25379 0.37158 0.38653 0.0
C343 C 0.29957 0.38267 0.32495 0.0
C344 C 0.26703 0.43872 0.30669 0.0
C345 C 0.24173 0.37474 0.36453 0.0
O346 O 0.28546 0.3949 0.31573 0.0
O347 O 0.30154 0.37724 0.35252 0.0
O348 O 0.24866 0.42722 0.36882 0.0
O349 O 0.27627 0.40956 0.37721 0.0
Co350 Co 0.59687 0.26637 0.3383 0.0
O351 O 0.57315 0.28165 0.32648 0.0
O352 O 0.58474 0.25464 0.30232 0.0
C353 C 0.58828 0.26458 0.38757 0.0
O354 O 0.62024 0.24608 0.34455 0.0
Co355 Co 0.62759 0.28337 0.38557 0.0
O356 O 0.63695 0.25476 0.38689 0.0
C357 C 0.62749 0.29952 0.32312 0.0
C358 C 0.57082 0.26861 0.30485 0.0
C359 C 0.6333 0.24231 0.36554 0.0
O360 O 0.61507 0.28547 0.31425 0.0
O361 O 0.63267 0.30193 0.35073 0.0
O362 O 0.58068 0.25159 0.3686 0.0
O363 O 0.5995 0.27854 0.37594 0.0
Co364 Co 0.74351 0.5975 0.3378 0.0
O365 O 0.72885 0.57301 0.3282 0.0
O366 O 0.75456 0.585 0.30152 0.0
C367 C 0.74651 0.58995 0.3873 0.0
O368 O 0.76321 0.62156 0.34219 0.0
Co369 Co 0.72638 0.62858 0.38457 0.0
O370 O 0.75493 0.63814 0.38485 0.0
C371 C 0.70916 0.62694 0.32286 0.0
C372 C 0.74133 0.57058 0.30591 0.0
C373 C 0.76712 0.63465 0.36312 0.0
O374 O 0.72337 0.61471 0.31391 0.0
O375 O 0.70707 0.63252 0.35034 0.0
O376 O 0.7594 0.58235 0.36818 0.0
O377 O 0.73208 0.60055 0.37572 0.0
Co378 Co 0.41119 0.74302 0.33949 0.0
O379 O 0.43492 0.72775 0.32768 0.0
O380 O 0.42337 0.7548 0.30358 0.0
C381 C 0.41976 0.74467 0.38879 0.0
O382 O 0.38781 0.76331 0.34576 0.0
Co383 Co 0.38043 0.726 0.38669 0.0
O384 O 0.37102 0.75459 0.388 0.0
C385 C 0.38074 0.70976 0.32427 0.0
C386 C 0.43728 0.74082 0.3061 0.0
C387 C 0.37471 0.76706 0.3667 0.0
O388 O 0.39301 0.72393 0.31534 0.0
O389 O 0.37562 0.70734 0.35189 0.0
O390 O 0.42736 0.75773 0.36994 0.0
O391 O 0.40851 0.73078 0.37705 0.0
Co392 Co 0.26517 0.59798 0.16221 0.0
O393 O 0.27973 0.57352 0.17233 0.0
O394 O 0.25406 0.5859 0.19874 0.0
C395 C 0.26216 0.58985 0.11294 0.0
O396 O 0.24556 0.62206 0.15733 0.0
Co397 Co 0.28236 0.62852 0.11487 0.0
O398 O 0.25388 0.63831 0.11445 0.0
C399 C 0.29946 0.6276 0.17669 0.0
C400 C 0.26722 0.57137 0.19466 0.0
C401 C 0.24169 0.63503 0.13625 0.0
O402 O 0.28534 0.61532 0.18577 0.0
O403 O 0.30154 0.63301 0.14914 0.0
O404 O 0.24919 0.5826 0.13225 0.0
O405 O 0.27664 0.60055 0.12418 0.0
Co406 Co 0.41087 0.26669 0.16227 0.0
O407 O 0.43452 0.28223 0.17362 0.0
O408 O 0.42347 0.25509 0.198 0.0
C409 C 0.41899 0.26505 0.11281 0.0
O410 O 0.38767 0.24615 0.15644 0.0
Co411 Co 0.37955 0.28337 0.11555 0.0
O412 O 0.37087 0.25456 0.11404 0.0
C413 C 0.38037 0.29982 0.17784 0.0
C414 C 0.43719 0.26922 0.19521 0.0
C415 C 0.37474 0.24215 0.13535 0.0
O416 O 0.39272 0.28568 0.18667 0.0
O417 O 0.37502 0.30214 0.15029 0.0
O418 O 0.42693 0.2521 0.13154 0.0
O419 O 0.40773 0.27884 0.12478 0.0
Co420 Co 0.7443 0.4111 0.16133 0.0
O421 O 0.72965 0.43571 0.17032 0.0
O422 O 0.75542 0.42403 0.19721 0.0
C423 C 0.74724 0.41788 0.11157 0.0
O424 O 0.764 0.38698 0.1575 0.0
Co425 Co 0.72692 0.37937 0.11569 0.0
O426 O 0.75547 0.36981 0.11546 0.0
C427 C 0.70999 0.38188 0.17746 0.0
C428 C 0.74215 0.43838 0.19254 0.0
C429 C 0.76779 0.3736 0.13693 0.0
O430 O 0.72425 0.39421 0.18586 0.0
O431 O 0.70775 0.37592 0.15018 0.0
O432 O 0.76009 0.42586 0.13042 0.0
O433 O 0.73281 0.40749 0.12356 0.0
Co434 Co 0.59666 0.74287 0.16235 0.0
O435 O 0.57319 0.7272 0.17415 0.0
O436 O 0.58441 0.7543 0.19847 0.0
C437 C 0.5878 0.74458 0.11318 0.0
O438 O 0.6197 0.76355 0.15623 0.0
Co439 Co 0.62751 0.72677 0.11463 0.0
O440 O 0.63644 0.75551 0.11366 0.0
C441 C 0.62766 0.71 0.17678 0.0
C442 C 0.5707 0.74015 0.19587 0.0
C443 C 0.63265 0.76772 0.13525 0.0
O444 O 0.61518 0.72388 0.18608 0.0
O445 O 0.63274 0.70792 0.14908 0.0
O446 O 0.58017 0.75751 0.13221 0.0
O447 O 0.59936 0.73084 0.12463 0.0
H448 H 0.35824 0.22248 0.08751 0.0
H449 H 0.29301 0.14327 0.18463 0.0
H450 H 0.36429 0.218 0.18413 0.0
H451 H 0.28858 0.15171 0.08838 0.0
H452 H 0.32174 0.16733 0.18554 0.0
H453 H 0.33564 0.19335 0.08795 0.0
C454 C 0.35488 0.21527 0.10889 0.0
C455 C 0.363 0.22289 0.13586 0.0
C456 C 0.31457 0.1637 0.16424 0.0
C457 C 0.33668 0.18934 0.13664 0.0
C458 C 0.29824 0.14992 0.16369 0.0
C459 C 0.28819 0.14566 0.13644 0.0
C460 C 0.3209 0.17308 0.13732 0.0
C461 C 0.2956 0.15474 0.11 0.0
C462 C 0.34193 0.19855 0.10915 0.0
C463 C 0.35831 0.21265 0.16282 0.0
N464 N 0.31133 0.16802 0.11116 0.0
N465 N 0.34522 0.19653 0.1626 0.0
H466 H 0.85842 0.2863 0.08786 0.0
H467 H 0.79234 0.36443 0.18594 0.0
H468 H 0.86508 0.29101 0.18438 0.0
H469 H 0.78647 0.35475 0.09011 0.0
H470 H 0.82154 0.34091 0.18637 0.0
H471 H 0.83495 0.31475 0.08871 0.0
C472 C 0.85502 0.29343 0.10931 0.0
C473 C 0.86357 0.28606 0.13614 0.0
C474 C 0.81392 0.34413 0.16527 0.0
C475 C 0.83626 0.31881 0.13738 0.0
C476 C 0.79732 0.35759 0.16499 0.0
C477 C 0.78676 0.36137 0.13801 0.0
C478 C 0.82003 0.33461 0.13833 0.0
C479 C 0.79388 0.35209 0.11155 0.0
C480 C 0.84156 0.30974 0.10979 0.0
C481 C 0.85879 0.29617 0.16317 0.0
N482 N 0.80991 0.33916 0.11244 0.0
N483 N 0.84523 0.31189 0.16318 0.0
H484 H 0.64133 0.79225 0.18437 0.0
H485 H 0.71912 0.85962 0.0878 0.0
H486 H 0.65146 0.78679 0.08859 0.0
H487 H 0.71474 0.86482 0.18453 0.0
H488 H 0.69065 0.83616 0.08804 0.0
H489 H 0.66455 0.82164 0.18529 0.0
C490 C 0.64818 0.79737 0.16352 0.0
C491 C 0.64461 0.78687 0.13642 0.0
C492 C 0.69574 0.84245 0.1093 0.0
C493 C 0.67107 0.82038 0.13731 0.0
C494 C 0.71205 0.85591 0.10916 0.0
C495 C 0.71953 0.86403 0.13623 0.0
C496 C 0.68678 0.83672 0.13675 0.0
C497 C 0.70949 0.85887 0.16315 0.0
C498 C 0.66149 0.81408 0.16409 0.0
C499 C 0.65394 0.79417 0.1101 0.0
N500 N 0.69377 0.84531 0.1628 0.0
N501 N 0.66674 0.81032 0.11128 0.0
H502 H 0.21693 0.64413 0.18503 0.0
H503 H 0.15099 0.72236 0.08694 0.0
H504 H 0.22338 0.65432 0.08939 0.0
H505 H 0.14387 0.71719 0.18333 0.0
H506 H 0.17468 0.69411 0.08779 0.0
H507 H 0.1877 0.66759 0.18533 0.0
C508 C 0.21209 0.65108 0.16409 0.0
C509 C 0.22281 0.64742 0.13721 0.0
C510 C 0.16792 0.69897 0.10884 0.0
C511 C 0.18949 0.67413 0.13739 0.0
C512 C 0.15433 0.71517 0.10836 0.0
C513 C 0.14558 0.72236 0.13515 0.0
C514 C 0.17315 0.68983 0.13639 0.0
C515 C 0.1503 0.71217 0.16214 0.0
C516 C 0.19547 0.6645 0.1643 0.0
C517 C 0.21585 0.65686 0.11077 0.0
N518 N 0.164 0.69656 0.16216 0.0
N519 N 0.19979 0.66976 0.11159 0.0
H520 H 0.28612 0.85688 0.41473 0.0
H521 H 0.36633 0.79231 0.31824 0.0
H522 H 0.2928 0.86475 0.31866 0.0
H523 H 0.35493 0.78506 0.41345 0.0
H524 H 0.34273 0.82139 0.31773 0.0
H525 H 0.31458 0.83342 0.41453 0.0
C526 C 0.29367 0.85375 0.39352 0.0
C527 C 0.28685 0.86265 0.36661 0.0
C528 C 0.34559 0.8135 0.33873 0.0
C529 C 0.31964 0.83536 0.36613 0.0
C530 C 0.3591 0.79696 0.33907 0.0
C531 C 0.36246 0.78604 0.36586 0.0
C532 C 0.33553 0.8192 0.36542 0.0
C533 C 0.35265 0.79276 0.39215 0.0
C534 C 0.30999 0.84029 0.39341 0.0
C535 C 0.29751 0.85819 0.33993 0.0
N536 N 0.33964 0.80875 0.39119 0.0
N537 N 0.31325 0.84464 0.34028 0.0
H538 H 0.21768 0.36516 0.31517 0.0
H539 H 0.15235 0.28574 0.41191 0.0
H540 H 0.22314 0.35537 0.41104 0.0
H541 H 0.14584 0.29085 0.31543 0.0
H542 H 0.17543 0.31449 0.41154 0.0
H543 H 0.18888 0.34119 0.31423 0.0
C544 C 0.2127 0.35819 0.33602 0.0
C545 C 0.22303 0.3621 0.36317 0.0
C546 C 0.16894 0.30951 0.39035 0.0
C547 C 0.1902 0.33481 0.36226 0.0
C548 C 0.15571 0.29302 0.39057 0.0
C549 C 0.14732 0.28568 0.36361 0.0
C550 C 0.17419 0.31878 0.36291 0.0
C551 C 0.15201 0.29599 0.33672 0.0
C552 C 0.19632 0.34448 0.33545 0.0
C553 C 0.21591 0.35264 0.38949 0.0
N554 N 0.16537 0.31189 0.33697 0.0
N555 N 0.2001 0.33945 0.38831 0.0
H556 H 0.72108 0.15192 0.41438 0.0
H557 H 0.64198 0.21726 0.317 0.0
H558 H 0.71574 0.14504 0.31796 0.0
H559 H 0.65269 0.2241 0.41245 0.0
H560 H 0.66553 0.18813 0.3166 0.0
H561 H 0.6926 0.17535 0.41384 0.0
C562 C 0.71382 0.15527 0.39302 0.0
C563 C 0.72102 0.14666 0.36612 0.0
C564 C 0.66253 0.19594 0.33762 0.0
C565 C 0.68822 0.17391 0.36526 0.0
C566 C 0.64904 0.2125 0.33789 0.0
C567 C 0.64552 0.22331 0.36474 0.0
C568 C 0.67237 0.19011 0.36443 0.0
C569 C 0.65512 0.21647 0.39112 0.0
C570 C 0.69748 0.1687 0.39272 0.0
C571 C 0.71072 0.15137 0.33922 0.0
N572 N 0.66809 0.20046 0.39023 0.0
N573 N 0.69497 0.1649 0.3394 0.0
H574 H 0.79148 0.64422 0.3141 0.0
H575 H 0.85782 0.72169 0.41289 0.0
H576 H 0.78597 0.65316 0.41013 0.0
H577 H 0.8642 0.71761 0.31628 0.0
H578 H 0.83445 0.69317 0.41181 0.0
H579 H 0.8207 0.66771 0.31384 0.0
C580 C 0.79654 0.65089 0.33512 0.0
C581 C 0.78608 0.6469 0.36212 0.0
C582 C 0.84098 0.69833 0.39076 0.0
C583 C 0.81937 0.67364 0.362 0.0
C584 C 0.85439 0.71468 0.39138 0.0
C585 C 0.86282 0.72224 0.3646 0.0
C586 C 0.8356 0.68944 0.36308 0.0
C587 C 0.858 0.71229 0.33746 0.0
C588 C 0.81315 0.66433 0.33494 0.0
C589 C 0.7933 0.65598 0.38868 0.0
N590 N 0.84447 0.69653 0.33732 0.0
N591 N 0.80934 0.66891 0.38789 0.0
H592 H 0.7166 0.86547 0.81591 0.0
H593 H 0.64965 0.78803 0.91391 0.0
H594 H 0.72202 0.85603 0.91185 0.0
H595 H 0.64393 0.79187 0.81718 0.0
H596 H 0.67317 0.81642 0.91303 0.0
H597 H 0.68738 0.84197 0.81529 0.0
C598 C 0.71152 0.85869 0.83684 0.0
C599 C 0.72195 0.86256 0.86392 0.0
C600 C 0.66676 0.81124 0.8919 0.0
C601 C 0.68865 0.8358 0.86338 0.0
C602 C 0.65327 0.79496 0.8924 0.0
C603 C 0.64496 0.78736 0.86554 0.0
C604 C 0.67236 0.82004 0.86427 0.0
C605 C 0.65002 0.79722 0.83843 0.0
C606 C 0.69491 0.84524 0.83646 0.0
C607 C 0.7147 0.85333 0.89035 0.0
N608 N 0.66362 0.81292 0.83841 0.0
N609 N 0.69867 0.84041 0.88935 0.0
H610 H 0.14943 0.72227 0.91351 0.0
H611 H 0.21529 0.64419 0.81498 0.0
H612 H 0.14327 0.7184 0.81685 0.0
H613 H 0.22063 0.65302 0.91106 0.0
H614 H 0.18639 0.66807 0.81454 0.0
H615 H 0.17262 0.6936 0.91247 0.0
C616 C 0.15288 0.71528 0.89199 0.0
C617 C 0.14455 0.72294 0.86519 0.0
C618 C 0.19383 0.66459 0.83569 0.0
C619 C 0.17156 0.68994 0.86372 0.0
C620 C 0.21026 0.65092 0.83598 0.0
C621 C 0.22059 0.64677 0.86304 0.0
C622 C 0.18764 0.67396 0.86271 0.0
C623 C 0.21341 0.65594 0.88956 0.0
C624 C 0.16619 0.69884 0.89138 0.0
C625 C 0.14939 0.713 0.83804 0.0
N626 N 0.19754 0.66908 0.88866 0.0
N627 N 0.16281 0.69715 0.83793 0.0
H628 H 0.37415 0.21169 0.82427 0.0
H629 H 0.26038 0.17999 0.86768 0.0
H630 H 0.33436 0.24374 0.88545 0.0
H631 H 0.30145 0.13568 0.82978 0.0
H632 H 0.28699 0.20527 0.86555 0.0
H633 H 0.34784 0.18504 0.81898 0.0
C634 C 0.36 0.21317 0.83655 0.0
C635 C 0.35659 0.23005 0.85543 0.0
C636 C 0.29035 0.19006 0.85764 0.0
C637 C 0.32652 0.19992 0.84912 0.0
C638 C 0.27507 0.17554 0.85881 0.0
C639 C 0.27872 0.15552 0.84938 0.0
C640 C 0.30974 0.18475 0.84711 0.0
C641 C 0.29801 0.15092 0.83744 0.0
C642 C 0.34504 0.19796 0.83353 0.0
C643 C 0.33794 0.2311 0.87076 0.0
N644 N 0.31295 0.1654 0.83692 0.0
N645 N 0.32375 0.2164 0.86716 0.0
H646 H 0.85869 0.28734 0.91127 0.0
H647 H 0.79205 0.36448 0.81232 0.0
H648 H 0.86423 0.29028 0.81446 0.0
H649 H 0.78766 0.35661 0.90868 0.0
H650 H 0.82095 0.34058 0.81178 0.0
H651 H 0.83549 0.31597 0.90997 0.0
C652 C 0.85508 0.2941 0.88965 0.0
C653 C 0.86325 0.28619 0.8629 0.0
C654 C 0.81373 0.34429 0.83301 0.0
C655 C 0.83623 0.31918 0.86114 0.0
C656 C 0.7973 0.35796 0.83335 0.0
C657 C 0.78723 0.36237 0.86054 0.0
C658 C 0.82016 0.33517 0.86009 0.0
C659 C 0.79468 0.35347 0.8871 0.0
C660 C 0.84178 0.31053 0.8889 0.0
C661 C 0.85823 0.29587 0.83562 0.0
N662 N 0.81053 0.34032 0.88614 0.0
N663 N 0.84481 0.31172 0.83537 0.0
H664 H 0.65311 0.22344 0.58701 0.0
H665 H 0.718 0.14462 0.68572 0.0
H666 H 0.64521 0.21813 0.68325 0.0
H667 H 0.72501 0.15494 0.5902 0.0
H668 H 0.68894 0.16832 0.68578 0.0
H669 H 0.67673 0.19515 0.58816 0.0
C670 C 0.65627 0.21623 0.60846 0.0
C671 C 0.64731 0.22338 0.63512 0.0
C672 C 0.69679 0.16521 0.66483 0.0
C673 C 0.6748 0.19077 0.63672 0.0
C674 C 0.71332 0.15164 0.66476 0.0
C675 C 0.72415 0.14795 0.63798 0.0
C676 C 0.69103 0.17494 0.63789 0.0
C677 C 0.71739 0.15749 0.6115 0.0
C678 C 0.66983 0.19999 0.60912 0.0
C679 C 0.65182 0.21314 0.66216 0.0
N680 N 0.70143 0.17052 0.6122 0.0
N681 N 0.66547 0.19748 0.66235 0.0
H682 H 0.79138 0.64589 0.68558 0.0
H683 H 0.85631 0.72471 0.58702 0.0
H684 H 0.78451 0.6561 0.59001 0.0
H685 H 0.86407 0.71942 0.68329 0.0
H686 H 0.83277 0.69634 0.58808 0.0
H687 H 0.82043 0.66959 0.6857 0.0
C688 C 0.79609 0.65289 0.66462 0.0
C689 C 0.7853 0.64918 0.63781 0.0
C690 C 0.83962 0.70121 0.60907 0.0
C691 C 0.81842 0.67615 0.63778 0.0
C692 C 0.85313 0.71748 0.60846 0.0
C693 C 0.86203 0.72466 0.63516 0.0
C694 C 0.83463 0.69199 0.63665 0.0
C695 C 0.85751 0.71441 0.66218 0.0
C696 C 0.81262 0.66645 0.66472 0.0
C697 C 0.7921 0.65868 0.61133 0.0
N698 N 0.8439 0.69873 0.66232 0.0
N699 N 0.80806 0.6717 0.61205 0.0
H700 H 0.283 0.85268 0.58837 0.0
H701 H 0.36491 0.79012 0.68475 0.0
H702 H 0.29115 0.86288 0.68373 0.0
H703 H 0.3527 0.78199 0.5899 0.0
H704 H 0.34071 0.81876 0.68533 0.0
H705 H 0.31113 0.82895 0.58896 0.0
C706 C 0.29077 0.84997 0.60954 0.0
C707 C 0.28447 0.85968 0.63612 0.0
C708 C 0.34352 0.81076 0.6644 0.0
C709 C 0.31703 0.83208 0.63702 0.0
C710 C 0.35738 0.79448 0.66402 0.0
C711 C 0.36072 0.78345 0.6373 0.0
C712 C 0.3331 0.81608 0.63783 0.0
C713 C 0.35048 0.78978 0.61115 0.0
C714 C 0.30694 0.83636 0.60985 0.0
C715 C 0.29544 0.85571 0.66271 0.0
N716 N 0.33718 0.8055 0.61215 0.0
N717 N 0.31109 0.84203 0.66258 0.0
H718 H 0.13813 0.29468 0.67649 0.0
H719 H 0.24642 0.33171 0.61437 0.0
H720 H 0.17747 0.26165 0.61586 0.0
H721 H 0.21132 0.36957 0.67452 0.0
H722 H 0.2207 0.30583 0.61746 0.0
H723 H 0.16388 0.32204 0.67883 0.0
C724 C 0.15211 0.29311 0.66381 0.0
C725 C 0.15547 0.27582 0.64575 0.0
C726 C 0.21841 0.31972 0.63009 0.0
C727 C 0.18485 0.3069 0.6484 0.0
C728 C 0.23321 0.33469 0.62826 0.0
C729 C 0.23108 0.3531 0.64398 0.0
C730 C 0.20096 0.32288 0.64768 0.0
C731 C 0.2136 0.35566 0.66194 0.0
C732 C 0.16676 0.30873 0.66513 0.0
C733 C 0.1739 0.27464 0.62986 0.0
N734 N 0.1991 0.34074 0.66319 0.0
N735 N 0.18769 0.28986 0.63157 0.0
H736 H 0.27832 0.06939 0.07797 0.0
H737 H 0.23859 0.12132 0.9267 0.0
H738 H 0.2253 0.1076 0.06896 0.0
H739 H 0.27443 0.06651 0.92179 0.0
H740 H 0.24087 0.1205 0.98094 0.0
H741 H 0.28281 0.07083 0.0226 0.0
C742 C 0.26769 0.07804 0.06445 0.0
C743 C 0.25149 0.0885 0.07811 0.0
C744 C 0.24832 0.1086 0.96817 0.0
C745 C 0.25671 0.09045 0.01559 0.0
C746 C 0.24707 0.1091 0.93704 0.0
C747 C 0.25601 0.09376 0.91968 0.0
C748 C 0.25836 0.09246 0.98245 0.0
C749 C 0.26721 0.07855 0.93451 0.0
C750 C 0.27027 0.07885 0.03301 0.0
C751 C 0.23811 0.09942 0.05964 0.0
N752 N 0.26785 0.07808 0.9653 0.0
N753 N 0.2411 0.10017 0.02953 0.0
H754 H 0.93686 0.27706 0.92388 0.0
H755 H 0.91416 0.21437 0.07485 0.0
H756 H 0.90795 0.21827 0.92955 0.0
H757 H 0.93419 0.27678 0.07875 0.0
H758 H 0.91596 0.21544 0.02057 0.0
H759 H 0.93942 0.27752 0.97953 0.0
C760 C 0.93112 0.26431 0.93675 0.0
C761 C 0.92213 0.24764 0.92211 0.0
C762 C 0.92 0.22901 0.03303 0.0
C763 C 0.92512 0.24799 0.98505 0.0
C764 C 0.91899 0.22838 0.06419 0.0
C765 C 0.92382 0.24557 0.08132 0.0
C766 C 0.92574 0.24706 0.01846 0.0
C767 C 0.93028 0.26321 0.06623 0.0
C768 C 0.93257 0.26459 0.96837 0.0
C769 C 0.91492 0.23151 0.93973 0.0
N770 N 0.9309 0.26359 0.03545 0.0
N771 N 0.91659 0.23212 0.97005 0.0
H772 H 0.79215 0.91183 0.92877 0.0
H773 H 0.72979 0.93571 0.07952 0.0
H774 H 0.73037 0.93376 0.92503 0.0
H775 H 0.79082 0.9119 0.07451 0.0
H776 H 0.72913 0.93769 0.02386 0.0
H777 H 0.79152 0.91449 0.9829 0.0
C778 C 0.77835 0.91722 0.93943 0.0
C779 C 0.76122 0.9224 0.92236 0.0
C780 C 0.74263 0.93215 0.03513 0.0
C781 C 0.76029 0.92543 0.98515 0.0
C782 C 0.74303 0.93107 0.06677 0.0
C783 C 0.76033 0.92349 0.08155 0.0
C784 C 0.75971 0.92574 0.01859 0.0
C785 C 0.77707 0.91765 0.06414 0.0
C786 C 0.77799 0.91878 0.97053 0.0
C787 C 0.74388 0.92956 0.93749 0.0
N788 N 0.7763 0.91887 0.03377 0.0
N789 N 0.74377 0.93074 0.96824 0.0
H790 H 0.09492 0.79547 0.92718 0.0
H791 H 0.0723 0.73257 0.07799 0.0
H792 H 0.07387 0.73338 0.92362 0.0
H793 H 0.09767 0.79298 0.07309 0.0
H794 H 0.06973 0.73225 0.02239 0.0
H795 H 0.09259 0.79473 0.98144 0.0
C796 C 0.08976 0.7816 0.93791 0.0
C797 C 0.08477 0.76439 0.92088 0.0
C798 C 0.07576 0.74554 0.03368 0.0
C799 C 0.0822 0.76332 0.98372 0.0
C800 C 0.07719 0.74575 0.06529 0.0
C801 C 0.08533 0.76278 0.0801 0.0
C802 C 0.08238 0.76256 0.01716 0.0
C803 C 0.09146 0.77944 0.06271 0.0
C804 C 0.08841 0.78117 0.96906 0.0
C805 C 0.0779 0.74695 0.93606 0.0
N806 N 0.08988 0.77887 0.03235 0.0
N807 N 0.07697 0.74677 0.96682 0.0
H808 H 0.21485 0.91437 0.42619 0.0
H809 H 0.27824 0.93374 0.57763 0.0
H810 H 0.27779 0.93268 0.42307 0.0
H811 H 0.21755 0.90912 0.57183 0.0
H812 H 0.27877 0.93667 0.52205 0.0
H813 H 0.21568 0.9162 0.48052 0.0
C814 C 0.22892 0.91884 0.43704 0.0
C815 C 0.24633 0.92318 0.42013 0.0
C816 C 0.26539 0.9307 0.53315 0.0
C817 C 0.24753 0.92512 0.483 0.0
C818 C 0.26507 0.92905 0.56474 0.0
C819 C 0.24787 0.92108 0.57931 0.0
C820 C 0.24831 0.92448 0.51642 0.0
C821 C 0.23122 0.91522 0.56167 0.0
C822 C 0.22941 0.91988 0.46822 0.0
C823 C 0.26405 0.92916 0.43543 0.0
N824 N 0.23189 0.91703 0.53136 0.0
N825 N 0.26428 0.92979 0.46621 0.0
H826 H 0.07489 0.27491 0.57863 0.0
H827 H 0.10458 0.21618 0.42689 0.0
H828 H 0.11 0.21963 0.57184 0.0
H829 H 0.07523 0.27484 0.42339 0.0
H830 H 0.1046 0.21777 0.48104 0.0
H831 H 0.07326 0.27616 0.5229 0.0
C832 C 0.0823 0.26317 0.56552 0.0
C833 C 0.09256 0.24713 0.57991 0.0
C834 C 0.09813 0.23043 0.46874 0.0
C835 C 0.09068 0.24839 0.51688 0.0
C836 C 0.0981 0.2295 0.43758 0.0
C837 C 0.09 0.24546 0.42053 0.0
C838 C 0.09001 0.24748 0.48345 0.0
C839 C 0.08164 0.26221 0.43582 0.0
C840 C 0.08135 0.26387 0.53385 0.0
C841 C 0.10189 0.2323 0.56197 0.0
N842 N 0.0819 0.26285 0.46661 0.0
N843 N 0.10067 0.23331 0.53164 0.0
H844 H 0.79271 0.1002 0.57304 0.0
H845 H 0.7303 0.07526 0.42277 0.0
H846 H 0.73199 0.07553 0.57734 0.0
H847 H 0.79209 0.09707 0.42737 0.0
H848 H 0.72967 0.07358 0.47846 0.0
H849 H 0.79187 0.09771 0.51893 0.0
C850 C 0.77909 0.09423 0.56252 0.0
C851 C 0.76234 0.08817 0.57976 0.0
C852 C 0.74334 0.07859 0.46709 0.0
C853 C 0.7612 0.08525 0.51695 0.0
C854 C 0.74372 0.07951 0.43543 0.0
C855 C 0.76122 0.08649 0.42053 0.0
C856 C 0.76062 0.08462 0.48352 0.0
C857 C 0.77818 0.09182 0.43784 0.0
C858 C 0.77863 0.09275 0.53141 0.0
C859 C 0.74522 0.08038 0.56476 0.0
N860 N 0.7774 0.09082 0.46822 0.0
N861 N 0.745 0.07924 0.53401 0.0
H862 H 0.91197 0.796 0.57334 0.0
H863 H 0.93574 0.73333 0.42265 0.0
H864 H 0.93374 0.73416 0.57705 0.0
H865 H 0.90941 0.79335 0.42742 0.0
H866 H 0.93809 0.73302 0.47828 0.0
H867 H 0.91427 0.7952 0.51908 0.0
C868 C 0.91728 0.78217 0.56265 0.0
C869 C 0.92249 0.76505 0.57972 0.0
C870 C 0.9319 0.74622 0.46696 0.0
C871 C 0.92505 0.76391 0.51688 0.0
C872 C 0.93059 0.74642 0.43534 0.0
C873 C 0.92226 0.76334 0.42047 0.0
C874 C 0.92496 0.76313 0.48344 0.0
C875 C 0.91579 0.7799 0.43784 0.0
C876 C 0.91861 0.78171 0.5315 0.0
C877 C 0.92953 0.74766 0.56458 0.0
N878 N 0.91726 0.77933 0.46821 0.0
N879 N 0.93047 0.74745 0.53382 0.0
H880 H 0.71757 0.6032 0.57278 0.0
H881 H 0.77845 0.57532 0.42226 0.0
H882 H 0.77712 0.57579 0.57729 0.0
H883 H 0.71772 0.59989 0.42757 0.0
H884 H 0.7795 0.57417 0.47802 0.0
H885 H 0.71856 0.60114 0.51874 0.0
C886 C 0.73097 0.59671 0.56234 0.0
C887 C 0.74734 0.58974 0.57964 0.0
C888 C 0.76599 0.57971 0.46676 0.0
C889 C 0.74862 0.58726 0.51679 0.0
C890 C 0.76538 0.58034 0.43508 0.0
C891 C 0.74803 0.58786 0.42033 0.0
C892 C 0.74911 0.58659 0.48336 0.0
C893 C 0.7315 0.59417 0.43785 0.0
C894 C 0.73152 0.59548 0.53123 0.0
C895 C 0.76419 0.58135 0.56466 0.0
N896 N 0.73251 0.59341 0.46821 0.0
N897 N 0.76447 0.58039 0.53388 0.0
H898 H 0.43496 0.77605 0.4241 0.0
H899 H 0.41162 0.71295 0.57451 0.0
H900 H 0.41063 0.71519 0.42857 0.0
H901 H 0.43299 0.77492 0.5785 0.0
H902 H 0.41417 0.71377 0.52029 0.0
H903 H 0.43709 0.7764 0.47975 0.0
C904 C 0.43022 0.76278 0.43673 0.0
C905 C 0.42248 0.74562 0.42178 0.0
C906 C 0.41837 0.72729 0.53275 0.0
C907 C 0.42492 0.74588 0.48476 0.0
C908 C 0.41688 0.72682 0.56388 0.0
C909 C 0.42192 0.74396 0.58103 0.0
C910 C 0.42479 0.74512 0.51821 0.0
C911 C 0.42891 0.7614 0.56597 0.0
C912 C 0.4314 0.763 0.46836 0.0
C913 C 0.41652 0.72884 0.43906 0.0
N914 N 0.43 0.76162 0.53522 0.0
N915 N 0.41785 0.72944 0.46944 0.0
H916 H 0.29241 0.41789 0.42758 0.0
H917 H 0.22817 0.4321 0.57917 0.0
H918 H 0.22785 0.42906 0.42352 0.0
H919 H 0.28843 0.40657 0.5716 0.0
H920 H 0.22715 0.43539 0.52355 0.0
H921 H 0.291 0.41928 0.48188 0.0
C922 C 0.27785 0.42067 0.43824 0.0
C923 C 0.26018 0.42307 0.42109 0.0
C924 C 0.2405 0.42908 0.53432 0.0
C925 C 0.25831 0.42439 0.48389 0.0
C926 C 0.2411 0.42721 0.56591 0.0
C927 C 0.2584 0.41905 0.58001 0.0
C928 C 0.25742 0.42294 0.51721 0.0
C929 C 0.27473 0.41292 0.5619 0.0
C930 C 0.27703 0.42143 0.46937 0.0
C931 C 0.2418 0.42704 0.43611 0.0
N932 N 0.27381 0.41503 0.53168 0.0
N933 N 0.24125 0.42737 0.46691 0.0
H934 H 0.5963 0.29507 0.57378 0.0
H935 H 0.57294 0.23306 0.42238 0.0
H936 H 0.5755 0.23289 0.57675 0.0
H937 H 0.59767 0.29372 0.42781 0.0
H938 H 0.57081 0.23232 0.47802 0.0
H939 H 0.5936 0.29468 0.51957 0.0
C940 C 0.59112 0.28125 0.56293 0.0
C941 C 0.5863 0.26392 0.57979 0.0
C942 C 0.5766 0.24576 0.46684 0.0
C943 C 0.58328 0.26325 0.51697 0.0
C944 C 0.57777 0.2462 0.43522 0.0
C945 C 0.58561 0.26343 0.42054 0.0
C946 C 0.58317 0.26273 0.48352 0.0
C947 C 0.59169 0.28004 0.43809 0.0
C948 C 0.58955 0.28102 0.5318 0.0
C949 C 0.57941 0.24655 0.56446 0.0
N950 N 0.59036 0.27923 0.46846 0.0
N951 N 0.57825 0.24657 0.53371 0.0
H952 H 0.78014 0.4339 0.92109 0.0
H953 H 0.72066 0.40291 0.07123 0.0
H954 H 0.71902 0.4103 0.92643 0.0
H955 H 0.77726 0.43596 0.0764 0.0
H956 H 0.72199 0.40463 0.01718 0.0
H957 H 0.78135 0.43468 0.97688 0.0
C958 C 0.76701 0.42903 0.93392 0.0
C959 C 0.74953 0.42182 0.91917 0.0
C960 C 0.7342 0.41163 0.02984 0.0
C961 C 0.75081 0.42263 0.9822 0.0
C962 C 0.73347 0.41058 0.06095 0.0
C963 C 0.74887 0.41932 0.07845 0.0
C964 C 0.75046 0.42153 0.0156 0.0
C965 C 0.76505 0.42906 0.06363 0.0
C966 C 0.76771 0.42945 0.96561 0.0
C967 C 0.73293 0.41573 0.9367 0.0
N968 N 0.76547 0.42991 0.03285 0.0
N969 N 0.73404 0.41623 0.96706 0.0
H970 H 0.59427 0.71414 0.07399 0.0
H971 H 0.57254 0.77736 0.92316 0.0
H972 H 0.57413 0.77652 0.0776 0.0
H973 H 0.59634 0.71631 0.92814 0.0
H974 H 0.56995 0.77776 0.97877 0.0
H975 H 0.59168 0.71484 0.01976 0.0
C976 C 0.58925 0.72807 0.06327 0.0
C977 C 0.5846 0.74536 0.0803 0.0
C978 C 0.57562 0.76431 0.9675 0.0
C979 C 0.58174 0.74641 0.01748 0.0
C980 C 0.57706 0.76406 0.93588 0.0
C981 C 0.5848 0.74683 0.9211 0.0
C982 C 0.58183 0.74714 0.98403 0.0
C983 C 0.59047 0.73001 0.93851 0.0
C984 C 0.58775 0.72848 0.03213 0.0
C985 C 0.5779 0.76288 0.06515 0.0
N986 N 0.58889 0.73063 0.96886 0.0
N987 N 0.57683 0.76305 0.03439 0.0
H988 H 0.29235 0.59542 0.07315 0.0
H989 H 0.22761 0.57533 0.92326 0.0
H990 H 0.22938 0.57739 0.078 0.0
H991 H 0.28956 0.5967 0.92775 0.0
H992 H 0.22723 0.57311 0.97897 0.0
H993 H 0.29111 0.59276 0.01903 0.0
C994 C 0.27817 0.59087 0.06273 0.0
C995 C 0.26089 0.58682 0.08008 0.0
C996 C 0.24086 0.57818 0.96754 0.0
C997 C 0.25922 0.58385 0.01733 0.0
C998 C 0.24109 0.57941 0.93589 0.0
C999 C 0.25859 0.58635 0.92095 0.0
C1000 C 0.25831 0.5838 0.98391 0.0
C1001 C 0.27565 0.59146 0.93822 0.0
C1002 C 0.27745 0.58932 0.03164 0.0
C1003 C 0.24302 0.5807 0.06528 0.0
N1004 N 0.27503 0.5901 0.96856 0.0
N1005 N 0.24255 0.57956 0.03454 0.0
H1006 H 0.4355 0.23303 0.92216 0.0
H1007 H 0.40807 0.2939 0.07313 0.0
H1008 H 0.40568 0.29138 0.92775 0.0
H1009 H 0.43451 0.23391 0.07717 0.0
H1010 H 0.40933 0.29269 0.01894 0.0
H1011 H 0.4372 0.23223 0.9779 0.0
C1012 C 0.42935 0.2456 0.93502 0.0
C1013 C 0.42038 0.26226 0.92031 0.0
C1014 C 0.41491 0.27968 0.03138 0.0
C1015 C 0.42233 0.2615 0.98336 0.0
C1016 C 0.41419 0.28038 0.06253 0.0
C1017 C 0.42107 0.26392 0.07973 0.0
C1018 C 0.42251 0.26232 0.01681 0.0
C1019 C 0.42903 0.24691 0.06462 0.0
C1020 C 0.43032 0.24514 0.9667 0.0
C1021 C 0.41266 0.27816 0.93793 0.0
N1022 N 0.42945 0.24647 0.03382 0.0
N1023 N 0.41383 0.27734 0.96828 0.0
H1024 H 0.20992 0.045 0.20282 0.0
H1025 H 0.27439 0.95446 0.27422 0.0
H1026 H 0.27352 0.05181 0.22406 0.0
H1027 H 0.21035 0.96194 0.29168 0.0
H1028 H 0.27452 0.98745 0.24808 0.0
H1029 H 0.20988 0.01211 0.22874 0.0
C1030 C 0.22385 0.03964 0.21317 0.0
C1031 C 0.24172 0.05122 0.21148 0.0
C1032 C 0.26045 0.98177 0.25753 0.0
C1033 C 0.2419 0.01332 0.24042 0.0
C1034 C 0.26031 0.96288 0.27214 0.0
C1035 C 0.24232 0.95544 0.28507 0.0
C1036 C 0.24238 0.99308 0.25534 0.0
C1037 C 0.22456 0.96711 0.28205 0.0
C1038 C 0.22381 0.02086 0.22789 0.0
C1039 C 0.25935 0.04347 0.22514 0.0
N1040 N 0.22501 0.98527 0.2674 0.0
N1041 N 0.25907 0.02489 0.23876 0.0
H1042 H 0.95544 0.27263 0.22751 0.0
H1043 H 0.04733 0.20782 0.29446 0.0
H1044 H 0.96322 0.20884 0.20824 0.0
H1045 H 0.05311 0.27196 0.2763 0.0
H1046 H 0.01422 0.20791 0.26927 0.0
H1047 H 0.98869 0.27273 0.25291 0.0
C1048 C 0.96398 0.25859 0.22905 0.0
C1049 C 0.95654 0.24068 0.21582 0.0
C1050 C 0.02278 0.22194 0.27062 0.0
C1051 C 0.99449 0.24071 0.24469 0.0
C1052 C 0.0417 0.2219 0.28493 0.0
C1053 C 0.05306 0.23989 0.28729 0.0
C1054 C 0.01489 0.2402 0.25915 0.0
C1055 C 0.04495 0.25772 0.27468 0.0
C1056 C 0.98302 0.25871 0.24323 0.0
C1057 C 0.96838 0.22299 0.21812 0.0
N1058 N 0.02624 0.25748 0.26142 0.0
N1059 N 0.98669 0.22342 0.23235 0.0
H1060 H 0.73424 0.05488 0.27443 0.0
H1061 H 0.79848 0.96209 0.209 0.0
H1062 H 0.79789 0.04664 0.29418 0.0
H1063 H 0.73415 0.95711 0.22598 0.0
H1064 H 0.79861 0.99519 0.23423 0.0
H1065 H 0.73392 0.02147 0.24947 0.0
C1066 C 0.74821 0.0462 0.27309 0.0
C1067 C 0.76614 0.05357 0.28632 0.0
C1068 C 0.78449 0.9868 0.23265 0.0
C1069 C 0.76585 0.01543 0.25798 0.0
C1070 C 0.78441 0.96789 0.21833 0.0
C1071 C 0.7663 0.95676 0.21559 0.0
C1072 C 0.76624 0.99495 0.24373 0.0
C1073 C 0.74848 0.96508 0.22792 0.0
C1074 C 0.74795 0.02707 0.25916 0.0
C1075 C 0.78373 0.04156 0.28428 0.0
N1076 N 0.74884 0.9838 0.24117 0.0
N1077 N 0.78317 0.02316 0.2703 0.0
H1078 H 0.05327 0.73563 0.22628 0.0
H1079 H 0.96168 0.80077 0.29335 0.0
H1080 H 0.04563 0.7994 0.20682 0.0
H1081 H 0.9558 0.73657 0.27568 0.0
H1082 H 0.99467 0.80059 0.2678 0.0
H1083 H 0.02004 0.73566 0.25171 0.0
C1084 C 0.04476 0.74969 0.22777 0.0
C1085 C 0.05224 0.76756 0.21449 0.0
C1086 C 0.9861 0.78657 0.26932 0.0
C1087 C 0.01431 0.76768 0.24339 0.0
C1088 C 0.96726 0.78666 0.28383 0.0
C1089 C 0.95591 0.76868 0.28645 0.0
C1090 C 0.99395 0.76827 0.25793 0.0
C1091 C 0.96395 0.75082 0.27385 0.0
C1092 C 0.02574 0.74964 0.24197 0.0
C1093 C 0.04045 0.78529 0.21674 0.0
N1094 N 0.98259 0.751 0.26042 0.0
N1095 N 0.02215 0.78493 0.23099 0.0
H1096 H 0.77783 0.9762 0.82852 0.0
H1097 H 0.77809 0.03339 0.67352 0.0
H1098 H 0.75546 0.94572 0.74909 0.0
H1099 H 0.75621 0.06413 0.75302 0.0
H1100 H 0.77673 1.001 0.70078 0.0
H1101 H 0.77686 0.0086 0.80123 0.0
C1102 C 0.77285 0.97631 0.80523 0.0
C1103 C 0.76679 0.95823 0.79096 0.0
C1104 C 0.77222 0.01484 0.71219 0.0
C1105 C 0.76596 0.9952 0.75964 0.0
C1106 C 0.77313 0.03334 0.69681 0.0
C1107 C 0.76733 0.05149 0.71112 0.0
C1108 C 0.76606 0.01452 0.74241 0.0
C1109 C 0.76081 0.05049 0.7412 0.0
C1110 C 0.77216 0.99481 0.78984 0.0
C1111 C 0.76026 0.9593 0.76088 0.0
N1112 N 0.76062 0.03232 0.75604 0.0
N1113 N 0.76028 0.97746 0.74603 0.0
H1114 H 0.95433 0.73758 0.72598 0.0
H1115 H 0.04616 0.80203 0.79367 0.0
H1116 H 0.96254 0.80125 0.70628 0.0
H1117 H 0.05174 0.73783 0.77586 0.0
H1118 H 0.01327 0.80209 0.76781 0.0
H1119 H 0.98751 0.73738 0.75156 0.0
C1120 C 0.96296 0.75157 0.72744 0.0
C1121 C 0.95565 0.76948 0.71406 0.0
C1122 C 0.02176 0.78802 0.76936 0.0
C1123 C 0.99352 0.76933 0.74315 0.0
C1124 C 0.04054 0.78798 0.78405 0.0
C1125 C 0.05177 0.76993 0.78672 0.0
C1126 C 0.01384 0.76978 0.75785 0.0
C1127 C 0.04368 0.75212 0.774 0.0
C1128 C 0.98196 0.75139 0.74173 0.0
C1129 C 0.96759 0.78711 0.71628 0.0
N1130 N 0.02509 0.75244 0.76039 0.0
N1131 N 0.98585 0.78662 0.73063 0.0
H1132 H 0.25528 0.94288 0.75286 0.0
H1133 H 0.25247 0.06362 0.74764 0.0
H1134 H 0.23123 0.97488 0.67585 0.0
H1135 H 0.23629 0.03133 0.82876 0.0
H1136 H 0.25264 0.03106 0.72014 0.0
H1137 H 0.25617 0.97532 0.78083 0.0
C1138 C 0.25024 0.9567 0.74187 0.0
C1139 C 0.24299 0.95618 0.71213 0.0
C1140 C 0.2491 0.03119 0.74399 0.0
C1141 C 0.24455 0.99318 0.74347 0.0
C1142 C 0.24905 0.0497 0.75965 0.0
C1143 C 0.24419 0.05017 0.79042 0.0
C1144 C 0.24488 0.01301 0.75945 0.0
C1145 C 0.2399 0.03166 0.80495 0.0
C1146 C 0.25072 0.97513 0.75779 0.0
C1147 C 0.2367 0.97455 0.69887 0.0
N1148 N 0.24052 0.01382 0.78943 0.0
N1149 N 0.23781 0.99231 0.71449 0.0
H1150 H 0.97687 0.22901 0.82763 0.0
H1151 H 0.0336 0.23191 0.6719 0.0
H1152 H 0.94666 0.25346 0.74932 0.0
H1153 H 0.0652 0.24919 0.75314 0.0
H1154 H 1.00131 0.23344 0.69935 0.0
H1155 H 0.0092 0.22989 0.80024 0.0
C1156 C 0.97701 0.23443 0.80456 0.0
C1157 C 0.95903 0.2411 0.79064 0.0
C1158 C 0.01531 0.23694 0.71111 0.0
C1159 C 0.99595 0.24188 0.75919 0.0
C1160 C 0.03375 0.23594 0.69559 0.0
C1161 C 0.05212 0.24038 0.71034 0.0
C1162 C 0.01524 0.24181 0.74185 0.0
C1163 C 0.05138 0.24569 0.74095 0.0
C1164 C 0.99549 0.23507 0.78911 0.0
C1165 C 0.96017 0.24818 0.76085 0.0
N1166 N 0.03325 0.24598 0.75586 0.0
N1167 N 0.9783 0.24813 0.74593 0.0
H1168 H 0.75347 0.56579 0.75298 0.0
H1169 H 0.75375 0.44538 0.74558 0.0
H1170 H 0.73127 0.53466 0.674 0.0
H1171 H 0.73223 0.47647 0.825 0.0
H1172 H 0.75392 0.47816 0.71849 0.0
H1173 H 0.75412 0.53299 0.77998 0.0
C1174 C 0.74879 0.55208 0.74136 0.0
C1175 C 0.74211 0.55293 0.71136 0.0
C1176 C 0.7492 0.47769 0.74187 0.0
C1177 C 0.74344 0.51555 0.74159 0.0
C1178 C 0.74912 0.45907 0.75728 0.0
C1179 C 0.74277 0.45822 0.78743 0.0
C1180 C 0.74357 0.49558 0.7571 0.0
C1181 C 0.73699 0.47643 0.80163 0.0
C1182 C 0.74914 0.53345 0.75671 0.0
C1183 C 0.73628 0.5347 0.69725 0.0
N1184 N 0.73772 0.49439 0.78647 0.0
N1185 N 0.73728 0.51673 0.71236 0.0
H1186 H 0.55263 0.77299 0.77475 0.0
H1187 H 0.4614 0.707 0.70846 0.0
H1188 H 0.5453 0.7093 0.79508 0.0
H1189 H 0.45498 0.77121 0.72555 0.0
H1190 H 0.49437 0.70753 0.73405 0.0
H1191 H 0.51934 0.77267 0.74944 0.0
C1192 C 0.54418 0.75888 0.77348 0.0
C1193 C 0.55177 0.74112 0.78696 0.0
C1194 C 0.48569 0.72148 0.73241 0.0
C1195 C 0.51377 0.74068 0.75819 0.0
C1196 C 0.46685 0.72118 0.71787 0.0
C1197 C 0.45535 0.73906 0.71507 0.0
C1198 C 0.49339 0.73989 0.74364 0.0
C1199 C 0.46325 0.75704 0.72752 0.0
C1200 C 0.52512 0.75877 0.75934 0.0
C1201 C 0.54004 0.72334 0.78499 0.0
N1202 N 0.48189 0.75706 0.74098 0.0
N1203 N 0.52171 0.72354 0.77079 0.0
H1204 H 0.25584 0.44303 0.754 0.0
H1205 H 0.2518 0.56381 0.74796 0.0
H1206 H 0.27226 0.47566 0.67328 0.0
H1207 H 0.27598 0.53257 0.82556 0.0
H1208 H 0.25112 0.53118 0.72057 0.0
H1209 H 0.25497 0.47563 0.78156 0.0
C1210 C 0.25913 0.45702 0.74209 0.0
C1211 C 0.2643 0.45666 0.71143 0.0
C1212 C 0.25653 0.53157 0.74362 0.0
C1213 C 0.26281 0.49379 0.74239 0.0
C1214 C 0.25691 0.55012 0.7592 0.0
C1215 C 0.26416 0.55091 0.78892 0.0
C1216 C 0.26281 0.51366 0.75824 0.0
C1217 C 0.27052 0.53268 0.80253 0.0
C1218 C 0.25869 0.47554 0.75778 0.0
C1219 C 0.26843 0.47525 0.69701 0.0
N1220 N 0.26953 0.51478 0.78721 0.0
N1221 N 0.26742 0.49305 0.71252 0.0
H1222 H 0.46426 0.30087 0.79592 0.0
H1223 H 0.55466 0.236 0.7253 0.0
H1224 H 0.45688 0.23729 0.77492 0.0
H1225 H 0.54715 0.29998 0.70732 0.0
H1226 H 0.52152 0.23588 0.75107 0.0
H1227 H 0.49712 0.30061 0.77008 0.0
C1228 C 0.4695 0.28687 0.78565 0.0
C1229 C 0.45775 0.2691 0.78739 0.0
C1230 C 0.52723 0.24994 0.74158 0.0
C1231 C 0.49566 0.26858 0.75847 0.0
C1232 C 0.5462 0.25007 0.72718 0.0
C1233 C 0.55369 0.26805 0.71424 0.0
C1234 C 0.5159 0.268 0.74356 0.0
C1235 C 0.54196 0.28579 0.71698 0.0
C1236 C 0.48826 0.28674 0.77095 0.0
C1237 C 0.46536 0.25137 0.7738 0.0
N1238 N 0.52374 0.28534 0.73145 0.0
N1239 N 0.48395 0.25149 0.76018 0.0
H1240 H 0.25546 0.56525 0.25361 0.0
H1241 H 0.25581 0.44478 0.24748 0.0
H1242 H 0.27767 0.53373 0.17497 0.0
H1243 H 0.27698 0.47642 0.32665 0.0
H1244 H 0.2554 0.47743 0.22007 0.0
H1245 H 0.25493 0.5326 0.28101 0.0
C1246 C 0.26017 0.5515 0.24215 0.0
C1247 C 0.26682 0.55219 0.21214 0.0
C1248 C 0.2601 0.47711 0.24347 0.0
C1249 C 0.26562 0.51498 0.2428 0.0
C1250 C 0.26031 0.45856 0.25905 0.0
C1251 C 0.26664 0.4579 0.28923 0.0
C1252 C 0.26558 0.4951 0.25853 0.0
C1253 C 0.27224 0.47623 0.30327 0.0
C1254 C 0.25988 0.53295 0.25773 0.0
C1255 C 0.27269 0.5339 0.19824 0.0
N1256 N 0.27139 0.4941 0.28793 0.0
N1257 N 0.27176 0.51602 0.21356 0.0
H1258 H 0.55333 0.23687 0.2741 0.0
H1259 H 0.46178 0.30171 0.20647 0.0
H1260 H 0.54536 0.30053 0.2941 0.0
H1261 H 0.45588 0.23758 0.22461 0.0
H1262 H 0.49471 0.30164 0.23221 0.0
H1263 H 0.52017 0.23685 0.24846 0.0
C1264 C 0.54476 0.25089 0.27269 0.0
C1265 C 0.55212 0.26874 0.28618 0.0
C1266 C 0.48615 0.28761 0.23074 0.0
C1267 C 0.51429 0.26881 0.25701 0.0
C1268 C 0.46734 0.28764 0.21612 0.0
C1269 C 0.45601 0.26965 0.21359 0.0
C1270 C 0.49397 0.26935 0.24233 0.0
C1271 C 0.46402 0.25183 0.22636 0.0
C1272 C 0.52578 0.25082 0.25836 0.0
C1273 C 0.54026 0.28643 0.28402 0.0
N1274 N 0.48263 0.25207 0.2399 0.0
N1275 N 0.522 0.28605 0.26962 0.0
H1276 H 0.73065 0.53321 0.32639 0.0
H1277 H 0.73148 0.47566 0.1716 0.0
H1278 H 0.75295 0.56377 0.247 0.0
H1279 H 0.7534 0.44543 0.2515 0.0
H1280 H 0.73232 0.50815 0.19868 0.0
H1281 H 0.73192 0.5008 0.29918 0.0
C1282 C 0.73567 0.53312 0.30312 0.0
C1283 C 0.74163 0.55122 0.28884 0.0
C1284 C 0.73695 0.4944 0.21022 0.0
C1285 C 0.74281 0.51423 0.25762 0.0
C1286 C 0.73633 0.47584 0.19494 0.0
C1287 C 0.74231 0.45781 0.20942 0.0
C1288 C 0.74299 0.49487 0.24049 0.0
C1289 C 0.74868 0.45898 0.23955 0.0
C1290 C 0.73652 0.51461 0.28777 0.0
C1291 C 0.74822 0.55017 0.2588 0.0
N1292 N 0.74858 0.47718 0.25428 0.0
N1293 N 0.74838 0.53199 0.24399 0.0
H1294 H 0.45482 0.77257 0.27541 0.0
H1295 H 0.54619 0.70764 0.20746 0.0
H1296 H 0.46275 0.7089 0.29537 0.0
H1297 H 0.55216 0.77178 0.22551 0.0
H1298 H 0.51335 0.70773 0.23344 0.0
H1299 H 0.48796 0.77256 0.24974 0.0
C1300 C 0.46338 0.75853 0.27399 0.0
C1301 C 0.456 0.74069 0.28747 0.0
C1302 C 0.52191 0.72176 0.23191 0.0
C1303 C 0.49383 0.74059 0.25827 0.0
C1304 C 0.54067 0.72171 0.21715 0.0
C1305 C 0.55199 0.7397 0.21451 0.0
C1306 C 0.51412 0.74002 0.24352 0.0
C1307 C 0.54403 0.75753 0.22733 0.0
C1308 C 0.48235 0.7586 0.25965 0.0
C1309 C 0.46786 0.72299 0.2853 0.0
N1310 N 0.52546 0.7573 0.24099 0.0
N1311 N 0.4861 0.72336 0.27088 0.0
H1312 H 0.21091 0.1234 0.23763 0.0
H1313 H 0.1272 0.21097 0.2586 0.0
H1314 H 0.1798 0.15254 0.1635 0.0
H1315 H 0.15217 0.17578 0.33206 0.0
H1316 H 0.14569 0.18913 0.22308 0.0
H1317 H 0.18887 0.14194 0.27273 0.0
C1318 C 0.19941 0.13353 0.2287 0.0
C1319 C 0.19741 0.13646 0.19751 0.0
C1320 C 0.14697 0.18616 0.24702 0.0
C1321 C 0.17221 0.15786 0.23751 0.0
C1322 C 0.13638 0.19862 0.26728 0.0
C1323 C 0.13823 0.19544 0.29843 0.0
C1324 C 0.15954 0.17047 0.25801 0.0
C1325 C 0.15038 0.17909 0.30831 0.0
C1326 C 0.18683 0.14415 0.24873 0.0
C1327 C 0.18214 0.14983 0.18731 0.0
N1328 N 0.16064 0.16739 0.28825 0.0
N1329 N 0.17029 0.16009 0.20719 0.0
H1330 H 0.85716 0.1771 0.16544 0.0
H1331 H 0.82944 0.15373 0.33693 0.0
H1332 H 0.8818 0.21098 0.24049 0.0
H1333 H 0.79756 0.12694 0.26157 0.0
H1334 H 0.85122 0.17192 0.30208 0.0
H1335 H 0.83816 0.15607 0.20043 0.0
C1336 C 0.8587 0.18014 0.18933 0.0
C1337 C 0.87106 0.1961 0.19993 0.0
C1338 C 0.83952 0.16204 0.2931 0.0
C1339 C 0.84909 0.17174 0.24031 0.0
C1340 C 0.82699 0.15155 0.313 0.0
C1341 C 0.81138 0.13879 0.30227 0.0
C1342 C 0.83664 0.15985 0.26201 0.0
C1343 C 0.80927 0.13661 0.27095 0.0
C1344 C 0.84775 0.16804 0.20931 0.0
C1345 C 0.87246 0.19896 0.23121 0.0
N1346 N 0.82171 0.14711 0.25192 0.0
N1347 N 0.86152 0.18695 0.25029 0.0
H1348 H 0.88173 0.79762 0.26042 0.0
H1349 H 0.79609 0.88362 0.24092 0.0
H1350 H 0.85512 0.83079 0.33467 0.0
H1351 H 0.82755 0.85526 0.16645 0.0
H1352 H 0.81818 0.86493 0.27582 0.0
H1353 H 0.86259 0.81923 0.22538 0.0
C1354 C 0.87203 0.80948 0.26938 0.0
C1355 C 0.86998 0.81219 0.3006 0.0
C1356 C 0.82026 0.86291 0.25179 0.0
C1357 C 0.84792 0.83689 0.26071 0.0
C1358 C 0.80765 0.87361 0.23188 0.0
C1359 C 0.80977 0.87098 0.20065 0.0
C1360 C 0.83504 0.84944 0.2404 0.0
C1361 C 0.82512 0.85776 0.1903 0.0
C1362 C 0.86107 0.8218 0.24939 0.0
C1363 C 0.85713 0.82789 0.31084 0.0
N1364 N 0.83702 0.84745 0.21006 0.0
N1365 N 0.84655 0.8395 0.29102 0.0
H1366 H 0.21163 0.88288 0.26056 0.0
H1367 H 0.1257 0.79732 0.23998 0.0
H1368 H 0.17935 0.85495 0.3346 0.0
H1369 H 0.153 0.8302 0.16602 0.0
H1370 H 0.14474 0.81884 0.27523 0.0
H1371 H 0.18978 0.86417 0.22536 0.0
C1372 C 0.19994 0.87296 0.26945 0.0
C1373 C 0.19752 0.87045 0.30065 0.0
C1374 C 0.14644 0.82137 0.25124 0.0
C1375 C 0.17252 0.8489 0.26055 0.0
C1376 C 0.13553 0.80909 0.23113 0.0
C1377 C 0.13779 0.81175 0.19993 0.0
C1378 C 0.15974 0.83637 0.24007 0.0
C1379 C 0.15081 0.82735 0.18983 0.0
C1380 C 0.18746 0.86226 0.24935 0.0
C1381 C 0.18201 0.85735 0.31079 0.0
N1382 N 0.16133 0.83892 0.20977 0.0
N1383 N 0.17024 0.84703 0.29086 0.0
H1384 H 0.85589 0.8332 0.66474 0.0
H1385 H 0.83224 0.85903 0.83682 0.0
H1386 H 0.88252 0.80049 0.73943 0.0
H1387 H 0.79802 0.8839 0.7623 0.0
H1388 H 0.85365 0.8408 0.80141 0.0
H1389 H 0.83779 0.85474 0.70007 0.0
C1390 C 0.85806 0.83052 0.68862 0.0
C1391 C 0.87072 0.81473 0.69903 0.0
C1392 C 0.84154 0.85029 0.79274 0.0
C1393 C 0.84978 0.83971 0.73981 0.0
C1394 C 0.82922 0.8608 0.81296 0.0
C1395 C 0.81302 0.87295 0.80263 0.0
C1396 C 0.83781 0.85188 0.76177 0.0
C1397 C 0.81021 0.8747 0.77137 0.0
C1398 C 0.84762 0.84292 0.70879 0.0
C1399 C 0.87291 0.81234 0.7303 0.0
N1400 N 0.82242 0.86418 0.75206 0.0
N1401 N 0.86246 0.82464 0.74959 0.0
H1402 H 0.17403 0.86034 0.66493 0.0
H1403 H 0.15348 0.83086 0.83659 0.0
H1404 H 0.2107 0.88206 0.73903 0.0
H1405 H 0.12424 0.80073 0.76165 0.0
H1406 H 0.1714 0.8527 0.80153 0.0
H1407 H 0.15277 0.84191 0.70039 0.0
C1408 C 0.1776 0.86139 0.68871 0.0
C1409 C 0.19445 0.87268 0.6989 0.0
C1410 C 0.16104 0.84138 0.79269 0.0
C1411 C 0.16988 0.85139 0.73978 0.0
C1412 C 0.1507 0.8288 0.81272 0.0
C1413 C 0.13734 0.81366 0.80215 0.0
C1414 C 0.15808 0.839 0.76165 0.0
C1415 C 0.13441 0.81206 0.7709 0.0
C1416 C 0.16539 0.85077 0.70895 0.0
C1417 C 0.19799 0.87354 0.73007 0.0
N1418 N 0.14477 0.82453 0.75174 0.0
N1419 N 0.18588 0.86292 0.74938 0.0
H1420 H 0.14398 0.16664 0.66544 0.0
H1421 H 0.17026 0.14109 0.83657 0.0
H1422 H 0.12298 0.2031 0.74026 0.0
H1423 H 0.20616 0.11968 0.76144 0.0
H1424 H 0.14763 0.15829 0.80155 0.0
H1425 H 0.16123 0.14419 0.70056 0.0
C1426 C 0.14278 0.1699 0.68931 0.0
C1427 C 0.13217 0.18711 0.69979 0.0
C1428 C 0.16035 0.14969 0.79271 0.0
C1429 C 0.15203 0.16109 0.74025 0.0
C1430 C 0.17333 0.13976 0.81266 0.0
C1431 C 0.19046 0.12907 0.80204 0.0
C1432 C 0.16427 0.14887 0.76174 0.0
C1433 C 0.19329 0.12779 0.77074 0.0
C1434 C 0.15273 0.157 0.70933 0.0
C1435 C 0.13103 0.19016 0.73107 0.0
N1436 N 0.18041 0.13771 0.75169 0.0
N1437 N 0.14098 0.17734 0.7502 0.0
H1438 H 0.88629 0.20913 0.76168 0.0
H1439 H 0.79966 0.1246 0.74059 0.0
H1440 H 0.85839 0.17672 0.8356 0.0
H1441 H 0.83403 0.15034 0.6669 0.0
H1442 H 0.82179 0.1428 0.77601 0.0
H1443 H 0.868 0.18697 0.7264 0.0
C1444 C 0.87651 0.1973 0.77053 0.0
C1445 C 0.8738 0.19501 0.80171 0.0
C1446 C 0.82453 0.14431 0.75205 0.0
C1447 C 0.85268 0.16969 0.76153 0.0
C1448 C 0.81191 0.13387 0.73183 0.0
C1449 C 0.81477 0.13603 0.70065 0.0
C1450 C 0.84005 0.15706 0.74099 0.0
C1451 C 0.83099 0.14831 0.69069 0.0
C1452 C 0.86603 0.18466 0.75039 0.0
C1453 C 0.86088 0.17932 0.8118 0.0
N1454 N 0.84284 0.15844 0.71071 0.0
N1455 N 0.85073 0.16743 0.79184 0.0
H1456 H 0.67427 0.64989 0.6659 0.0
H1457 H 0.65306 0.67933 0.83739 0.0
H1458 H 0.71064 0.62795 0.7402 0.0
H1459 H 0.62444 0.70971 0.76215 0.0
H1460 H 0.67108 0.65743 0.80249 0.0
H1461 H 0.65298 0.66837 0.70122 0.0
C1462 C 0.67778 0.64881 0.6897 0.0
C1463 C 0.69455 0.63744 0.69998 0.0
C1464 C 0.66084 0.66882 0.79356 0.0
C1465 C 0.66992 0.65881 0.74072 0.0
C1466 C 0.65044 0.68143 0.81349 0.0
C1467 C 0.63722 0.69666 0.80279 0.0
C1468 C 0.65807 0.67125 0.76249 0.0
C1469 C 0.63449 0.69831 0.7715 0.0
C1470 C 0.66554 0.65946 0.70986 0.0
C1471 C 0.69798 0.63653 0.73117 0.0
N1472 N 0.6449 0.68581 0.75245 0.0
N1473 N 0.68585 0.64719 0.75042 0.0
H1474 H 0.33047 0.64962 0.83706 0.0
H1475 H 0.35739 0.67396 0.66562 0.0
H1476 H 0.29749 0.6242 0.76169 0.0
H1477 H 0.38126 0.70841 0.74064 0.0
H1478 H 0.33895 0.65245 0.70063 0.0
H1479 H 0.35239 0.66767 0.80218 0.0
C1480 C 0.32782 0.64768 0.81313 0.0
C1481 C 0.31182 0.63543 0.80239 0.0
C1482 C 0.34826 0.66465 0.70949 0.0
C1483 C 0.33722 0.6563 0.76215 0.0
C1484 C 0.35889 0.67702 0.68951 0.0
C1485 C 0.37083 0.69331 0.70009 0.0
C1486 C 0.34952 0.66838 0.74049 0.0
C1487 C 0.37222 0.69616 0.73138 0.0
C1488 C 0.34043 0.6581 0.79322 0.0
C1489 C 0.30951 0.63349 0.77107 0.0
N1490 N 0.3616 0.68388 0.75047 0.0
N1491 N 0.32201 0.64392 0.75205 0.0
H1492 H 0.3639 0.3384 0.83492 0.0
H1493 H 0.33834 0.36464 0.66381 0.0
H1494 H 0.38607 0.30282 0.7599 0.0
H1495 H 0.30253 0.38632 0.73889 0.0
H1496 H 0.36053 0.34691 0.6988 0.0
H1497 H 0.34632 0.36063 0.7999 0.0
C1498 C 0.36526 0.33526 0.81103 0.0
C1499 C 0.37636 0.31839 0.80045 0.0
C1500 C 0.34791 0.35565 0.70764 0.0
C1501 C 0.35609 0.34417 0.7601 0.0
C1502 C 0.33517 0.36589 0.6877 0.0
C1503 C 0.31823 0.37688 0.69832 0.0
C1504 C 0.34393 0.35644 0.73859 0.0
C1505 C 0.31526 0.378 0.7296 0.0
C1506 C 0.35511 0.34804 0.79107 0.0
C1507 C 0.37764 0.31549 0.76916 0.0
N1508 N 0.32792 0.36779 0.74863 0.0
N1509 N 0.36751 0.3282 0.75008 0.0
H1510 H 0.65248 0.33241 0.66367 0.0
H1511 H 0.6769 0.35958 0.83503 0.0
H1512 H 0.62703 0.29954 0.73909 0.0
H1513 H 0.71082 0.38384 0.75977 0.0
H1514 H 0.65542 0.34097 0.80013 0.0
H1515 H 0.67053 0.35436 0.69849 0.0
C1516 C 0.65056 0.32977 0.6876 0.0
C1517 C 0.63826 0.31381 0.69837 0.0
C1518 C 0.66748 0.35042 0.7912 0.0
C1519 C 0.65913 0.33928 0.73856 0.0
C1520 C 0.67983 0.36115 0.81111 0.0
C1521 C 0.69598 0.37323 0.80042 0.0
C1522 C 0.67111 0.35172 0.76017 0.0
C1523 C 0.69867 0.37471 0.76912 0.0
C1524 C 0.66097 0.34241 0.70748 0.0
C1525 C 0.63636 0.31151 0.72969 0.0
N1526 N 0.68643 0.36397 0.75011 0.0
N1527 N 0.64677 0.32405 0.74869 0.0
H1528 H 0.35669 0.3329 0.16561 0.0
H1529 H 0.33249 0.35873 0.33754 0.0
H1530 H 0.38224 0.29937 0.24033 0.0
H1531 H 0.29934 0.38444 0.26258 0.0
H1532 H 0.35382 0.34016 0.30235 0.0
H1533 H 0.33892 0.35473 0.20088 0.0
C1534 C 0.35868 0.33009 0.18948 0.0
C1535 C 0.37092 0.31399 0.19991 0.0
C1536 C 0.34196 0.34992 0.29355 0.0
C1537 C 0.35036 0.33931 0.24065 0.0
C1538 C 0.3297 0.36063 0.31364 0.0
C1539 C 0.31382 0.37312 0.3031 0.0
C1540 C 0.3385 0.35165 0.26253 0.0
C1541 C 0.31128 0.37499 0.27181 0.0
C1542 C 0.34844 0.34266 0.20963 0.0
C1543 C 0.37294 0.31147 0.23119 0.0
N1544 N 0.32342 0.36427 0.25265 0.0
N1545 N 0.36267 0.32394 0.25046 0.0
H1546 H 0.62408 0.29994 0.26088 0.0
H1547 H 0.71138 0.38387 0.23978 0.0
H1548 H 0.65343 0.33099 0.33488 0.0
H1549 H 0.67624 0.3589 0.16627 0.0
H1550 H 0.68954 0.3654 0.27527 0.0
H1551 H 0.64248 0.32205 0.22569 0.0
C1552 C 0.63424 0.31142 0.26977 0.0
C1553 C 0.63725 0.3134 0.30094 0.0
C1554 C 0.68657 0.36411 0.25134 0.0
C1555 C 0.65845 0.33871 0.26086 0.0
C1556 C 0.69901 0.37472 0.23109 0.0
C1557 C 0.69587 0.37283 0.19993 0.0
C1558 C 0.67093 0.35149 0.24033 0.0
C1559 C 0.67951 0.3607 0.19004 0.0
C1560 C 0.64476 0.32406 0.24968 0.0
C1561 C 0.65064 0.32867 0.31108 0.0
N1562 N 0.66783 0.35041 0.21009 0.0
N1563 N 0.66079 0.34058 0.29116 0.0
H1564 H 0.67519 0.64933 0.33519 0.0
H1565 H 0.653 0.67827 0.16376 0.0
H1566 H 0.71043 0.62631 0.26044 0.0
H1567 H 0.62509 0.70909 0.23918 0.0
H1568 H 0.67104 0.6563 0.19856 0.0
H1569 H 0.65388 0.66796 0.30007 0.0
C1570 C 0.67844 0.64804 0.31133 0.0
C1571 C 0.69491 0.63631 0.30086 0.0
C1572 C 0.66094 0.66781 0.20756 0.0
C1573 C 0.67026 0.65786 0.26035 0.0
C1574 C 0.65054 0.68046 0.18768 0.0
C1575 C 0.63752 0.69583 0.19846 0.0
C1576 C 0.65839 0.67034 0.23865 0.0
C1577 C 0.63498 0.69758 0.22977 0.0
C1578 C 0.66619 0.65879 0.29129 0.0
C1579 C 0.69802 0.63517 0.26961 0.0
N1580 N 0.6454 0.68504 0.24877 0.0
N1581 N 0.68589 0.64592 0.25047 0.0
H1582 H 0.33248 0.65142 0.16437 0.0
H1583 H 0.35649 0.67706 0.33646 0.0
H1584 H 0.29896 0.6259 0.23908 0.0
H1585 H 0.38267 0.71015 0.26181 0.0
H1586 H 0.33848 0.65546 0.30112 0.0
H1587 H 0.35382 0.66985 0.19971 0.0
C1588 C 0.32961 0.64954 0.18825 0.0
C1589 C 0.31363 0.63714 0.19867 0.0
C1590 C 0.34819 0.66738 0.2924 0.0
C1591 C 0.33832 0.65844 0.23943 0.0
C1592 C 0.35858 0.67982 0.31259 0.0
C1593 C 0.37108 0.69573 0.3022 0.0
C1594 C 0.35025 0.67067 0.26138 0.0
C1595 C 0.37319 0.6982 0.27093 0.0
C1596 C 0.34187 0.66017 0.20842 0.0
C1597 C 0.31098 0.63529 0.22994 0.0
N1598 N 0.36279 0.68586 0.25162 0.0
N1599 N 0.32313 0.64592 0.2492 0.0
loop_
_geom_bond_atom_site_label_1
_geom_bond_atom_site_label_2
_geom_bond_distance
_geom_bond_site_symmetry_2
_ccdc_geom_bond_type
Co0 O1 2.216 . S
Co0 O2 2.091 . S
Co0 O4 2.004 . S
Co0 O10 2.021 . S
Co0 O12 2.137 . S
Co0 O13 2.244 . S
O1 Co0 2.216 . S
O1 C8 1.247 . S
O2 Co0 2.091 . S
O2 C8 1.261 . S
C3 O12 1.247 . S
C3 O13 1.272 . S
O4 Co0 2.004 . S
O4 C9 1.259 . S
Co5 O6 2.061 . S
Co5 O11 2.052 . S
Co5 O13 2.135 . S
O6 Co5 2.061 . S
O6 C9 1.235 . S
C7 O10 1.238 . S
C7 O11 1.241 . S
C8 O1 1.247 . S
C8 O2 1.261 . S
C9 O4 1.259 . S
C9 O6 1.235 . S
O10 Co0 2.021 . S
O10 C7 1.238 . S
O11 Co5 2.052 . S
O11 C7 1.241 . S
O12 Co0 2.137 . S
O12 C3 1.247 . S
O13 Co0 2.244 . S
O13 C3 1.272 . S
O13 Co5 2.135 . S
Co14 O15 2.216 . S
Co14 O16 2.091 . S
Co14 O18 2.004 . S
Co14 O24 2.021 . S
Co14 O26 2.137 . S
Co14 O27 2.244 . S
O15 Co14 2.216 . S
O15 C22 1.247 . S
O16 Co14 2.091 . S
O16 C22 1.261 . S
C17 O26 1.247 . S
C17 O27 1.272 . S
O18 Co14 2.004 . S
O18 C23 1.259 . S
Co19 O20 2.061 . S
Co19 O25 2.052 . S
Co19 O27 2.135 . S
O20 Co19 2.061 . S
O20 C23 1.235 . S
C21 O24 1.238 . S
C21 O25 1.241 . S
C22 O15 1.247 . S
C22 O16 1.261 . S
C23 O18 1.259 . S
C23 O20 1.235 . S
O24 Co14 2.021 . S
O24 C21 1.238 . S
O25 Co19 2.052 . S
O25 C21 1.241 . S
O26 Co14 2.137 . S
O26 C17 1.247 . S
O27 Co14 2.244 . S
O27 C17 1.272 . S
O27 Co19 2.135 . S
Co28 O29 2.216 . S
Co28 O30 2.091 . S
Co28 O32 2.004 . S
Co28 O38 2.021 . S
Co28 O40 2.137 . S
Co28 O41 2.244 . S
O29 Co28 2.216 . S
O29 C36 1.247 . S
O30 Co28 2.091 . S
O30 C36 1.261 . S
C31 O40 1.247 . S
C31 O41 1.272 . S
O32 Co28 2.004 . S
O32 C37 1.259 . S
Co33 O34 2.061 . S
Co33 O39 2.052 . S
Co33 O41 2.135 . S
O34 Co33 2.061 . S
O34 C37 1.235 . S
C35 O38 1.238 . S
C35 O39 1.241 . S
C36 O29 1.247 . S
C36 O30 1.261 . S
C37 O32 1.259 . S
C37 O34 1.235 . S
O38 Co28 2.021 . S
O38 C35 1.238 . S
O39 Co33 2.052 . S
O39 C35 1.241 . S
O40 Co28 2.137 . S
O40 C31 1.247 . S
O41 Co28 2.244 . S
O41 C31 1.272 . S
O41 Co33 2.135 . S
Co42 O43 2.216 . S
Co42 O44 2.091 . S
Co42 O46 2.004 . S
Co42 O52 2.021 . S
Co42 O54 2.137 . S
Co42 O55 2.244 . S
O43 Co42 2.216 . S
O43 C50 1.247 . S
O44 Co42 2.091 . S
O44 C50 1.261 . S
C45 O54 1.247 . S
C45 O55 1.272 . S
O46 Co42 2.004 . S
O46 C51 1.259 . S
Co47 O48 2.061 . S
Co47 O53 2.052 . S
Co47 O55 2.135 . S
O48 Co47 2.061 . S
O48 C51 1.235 . S
C49 O52 1.238 . S
C49 O53 1.241 . S
C50 O43 1.247 . S
C50 O44 1.261 . S
C51 O46 1.259 . S
C51 O48 1.235 . S
O52 Co42 2.021 . S
O52 C49 1.238 . S
O53 Co47 2.052 . S
O53 C49 1.241 . S
O54 Co42 2.137 . S
O54 C45 1.247 . S
O55 Co42 2.244 . S
O55 C45 1.272 . S
O55 Co47 2.135 . S
Co56 O57 2.216 . S
Co56 O58 2.091 . S
Co56 O60 2.004 . S
Co56 O66 2.021 . S
Co56 O68 2.137 . S
Co56 O69 2.244 . S
O57 Co56 2.216 . S
O57 C64 1.247 . S
O58 Co56 2.091 . S
O58 C64 1.261 . S
C59 O68 1.247 . S
C59 O69 1.272 . S
O60 Co56 2.004 . S
O60 C65 1.259 . S
Co61 O62 2.061 . S
Co61 O67 2.052 . S
Co61 O69 2.135 . S
O62 Co61 2.061 . S
O62 C65 1.235 . S
C63 O66 1.238 . S
C63 O67 1.241 . S
C64 O57 1.247 . S
C64 O58 1.261 . S
C65 O60 1.259 . S
C65 O62 1.235 . S
O66 Co56 2.021 . S
O66 C63 1.238 . S
O67 Co61 2.052 . S
O67 C63 1.241 . S
O68 Co56 2.137 . S
O68 C59 1.247 . S
O69 Co56 2.244 . S
O69 C59 1.272 . S
O69 Co61 2.135 . S
Co70 O71 2.216 . S
Co70 O72 2.091 . S
Co70 O74 2.004 . S
Co70 O80 2.021 . S
Co70 O82 2.137 . S
Co70 O83 2.244 . S
O71 Co70 2.216 . S
O71 C78 1.247 . S
O72 Co70 2.091 . S
O72 C78 1.261 . S
C73 O82 1.247 . S
C73 O83 1.272 . S
O74 Co70 2.004 . S
O74 C79 1.259 . S
Co75 O76 2.061 . S
Co75 O81 2.052 . S
Co75 O83 2.135 . S
O76 Co75 2.061 . S
O76 C79 1.235 . S
C77 O80 1.238 . S
C77 O81 1.241 . S
C78 O71 1.247 . S
C78 O72 1.261 . S
C79 O74 1.259 . S
C79 O76 1.235 . S
O80 Co70 2.021 . S
O80 C77 1.238 . S
O81 Co75 2.052 . S
O81 C77 1.241 . S
O82 Co70 2.137 . S
O82 C73 1.247 . S
O83 Co70 2.244 . S
O83 C73 1.272 . S
O83 Co75 2.135 . S
Co84 O85 2.216 . S
Co84 O86 2.091 . S
Co84 O88 2.004 . S
Co84 O94 2.021 . S
Co84 O96 2.137 . S
Co84 O97 2.244 . S
O85 Co84 2.216 . S
O85 C92 1.247 . S
O86 Co84 2.091 . S
O86 C92 1.261 . S
C87 O96 1.247 . S
C87 O97 1.272 . S
O88 Co84 2.004 . S
O88 C93 1.259 . S
Co89 O90 2.061 . S
Co89 O95 2.052 . S
Co89 O97 2.135 . S
O90 Co89 2.061 . S
O90 C93 1.235 . S
C91 O94 1.238 . S
C91 O95 1.241 . S
C92 O85 1.247 . S
C92 O86 1.261 . S
C93 O88 1.259 . S
C93 O90 1.235 . S
O94 Co84 2.021 . S
O94 C91 1.238 . S
O95 Co89 2.052 . S
O95 C91 1.241 . S
O96 Co84 2.137 . S
O96 C87 1.247 . S
O97 Co84 2.244 . S
O97 C87 1.272 . S
O97 Co89 2.135 . S
Co98 O99 2.216 . S
Co98 O100 2.091 . S
Co98 O102 2.004 . S
Co98 O108 2.021 . S
Co98 O110 2.137 . S
Co98 O111 2.244 . S
O99 Co98 2.216 . S
O99 C106 1.247 . S
O100 Co98 2.091 . S
O100 C106 1.261 . S
C101 O110 1.247 . S
C101 O111 1.272 . S
O102 Co98 2.004 . S
O102 C107 1.259 . S
Co103 O104 2.061 . S
Co103 O109 2.052 . S
Co103 O111 2.135 . S
O104 Co103 2.061 . S
O104 C107 1.235 . S
C105 O108 1.238 . S
C105 O109 1.241 . S
C106 O99 1.247 . S
C106 O100 1.261 . S
C107 O102 1.259 . S
C107 O104 1.235 . S
O108 Co98 2.021 . S
O108 C105 1.238 . S
O109 Co103 2.052 . S
O109 C105 1.241 . S
O110 Co98 2.137 . S
O110 C101 1.247 . S
O111 Co98 2.244 . S
O111 C101 1.272 . S
O111 Co103 2.135 . S
Co112 O113 2.216 . S
Co112 O114 2.091 . S
Co112 O116 2.004 . S
Co112 O122 2.021 . S
Co112 O124 2.137 . S
Co112 O125 2.244 . S
O113 Co112 2.216 . S
O113 C120 1.247 . S
O114 Co112 2.091 . S
O114 C120 1.261 . S
C115 O124 1.247 . S
C115 O125 1.272 . S
O116 Co112 2.004 . S
O116 C121 1.259 . S
Co117 O118 2.061 . S
Co117 O123 2.052 . S
Co117 O125 2.135 . S
O118 Co117 2.061 . S
O118 C121 1.235 . S
C119 O122 1.238 . S
C119 O123 1.241 . S
C120 O113 1.247 . S
C120 O114 1.261 . S
C121 O116 1.259 . S
C121 O118 1.235 . S
O122 Co112 2.021 . S
O122 C119 1.238 . S
O123 Co117 2.052 . S
O123 C119 1.241 . S
O124 Co112 2.137 . S
O124 C115 1.247 . S
O125 Co112 2.244 . S
O125 C115 1.272 . S
O125 Co117 2.135 . S
Co126 O127 2.216 . S
Co126 O128 2.091 . S
Co126 O130 2.004 . S
Co126 O136 2.021 . S
Co126 O138 2.137 . S
Co126 O139 2.244 . S
O127 Co126 2.216 . S
O127 C134 1.247 . S
O128 Co126 2.091 . S
O128 C134 1.261 . S
C129 O138 1.247 . S
C129 O139 1.272 . S
O130 Co126 2.004 . S
O130 C135 1.259 . S
Co131 O132 2.061 . S
Co131 O137 2.052 . S
Co131 O139 2.135 . S
O132 Co131 2.061 . S
O132 C135 1.235 . S
C133 O136 1.238 . S
C133 O137 1.241 . S
C134 O127 1.247 . S
C134 O128 1.261 . S
C135 O130 1.259 . S
C135 O132 1.235 . S
O136 Co126 2.021 . S
O136 C133 1.238 . S
O137 Co131 2.052 . S
O137 C133 1.241 . S
O138 Co126 2.137 . S
O138 C129 1.247 . S
O139 Co126 2.244 . S
O139 C129 1.272 . S
O139 Co131 2.135 . S
Co140 O141 2.216 . S
Co140 O142 2.091 . S
Co140 O144 2.004 . S
Co140 O150 2.021 . S
Co140 O152 2.137 . S
Co140 O153 2.244 . S
O141 Co140 2.216 . S
O141 C148 1.247 . S
O142 Co140 2.091 . S
O142 C148 1.261 . S
C143 O152 1.247 . S
C143 O153 1.272 . S
O144 Co140 2.004 . S
O144 C149 1.259 . S
Co145 O146 2.061 . S
Co145 O151 2.052 . S
Co145 O153 2.135 . S
O146 Co145 2.061 . S
O146 C149 1.235 . S
C147 O150 1.238 . S
C147 O151 1.241 . S
C148 O141 1.247 . S
C148 O142 1.261 . S
C149 O144 1.259 . S
C149 O146 1.235 . S
O150 Co140 2.021 . S
O150 C147 1.238 . S
O151 Co145 2.052 . S
O151 C147 1.241 . S
O152 Co140 2.137 . S
O152 C143 1.247 . S
O153 Co140 2.244 . S
O153 C143 1.272 . S
O153 Co145 2.135 . S
Co154 O155 2.216 . S
Co154 O156 2.091 . S
Co154 O158 2.004 . S
Co154 O164 2.021 . S
Co154 O166 2.137 . S
Co154 O167 2.244 . S
O155 Co154 2.216 . S
O155 C162 1.247 . S
O156 Co154 2.091 . S
O156 C162 1.261 . S
C157 O166 1.247 . S
C157 O167 1.272 . S
O158 Co154 2.004 . S
O158 C163 1.259 . S
Co159 O160 2.061 . S
Co159 O165 2.052 . S
Co159 O167 2.135 . S
O160 Co159 2.061 . S
O160 C163 1.235 . S
C161 O164 1.238 . S
C161 O165 1.241 . S
C162 O155 1.247 . S
C162 O156 1.261 . S
C163 O158 1.259 . S
C163 O160 1.235 . S
O164 Co154 2.021 . S
O164 C161 1.238 . S
O165 Co159 2.052 . S
O165 C161 1.241 . S
O166 Co154 2.137 . S
O166 C157 1.247 . S
O167 Co154 2.244 . S
O167 C157 1.272 . S
O167 Co159 2.135 . S
Co168 O169 2.216 . S
Co168 O170 2.091 . S
Co168 O172 2.004 . S
Co168 O178 2.021 . S
Co168 O180 2.137 . S
Co168 O181 2.244 . S
O169 Co168 2.216 . S
O169 C176 1.247 . S
O170 Co168 2.091 . S
O170 C176 1.261 . S
C171 O180 1.247 . S
C171 O181 1.272 . S
O172 Co168 2.004 . S
O172 C177 1.259 . S
Co173 O174 2.061 . S
Co173 O179 2.052 . S
Co173 O181 2.135 . S
O174 Co173 2.061 . S
O174 C177 1.235 . S
C175 O178 1.238 . S
C175 O179 1.241 . S
C176 O169 1.247 . S
C176 O170 1.261 . S
C177 O172 1.259 . S
C177 O174 1.235 . S
O178 Co168 2.021 . S
O178 C175 1.238 . S
O179 Co173 2.052 . S
O179 C175 1.241 . S
O180 Co168 2.137 . S
O180 C171 1.247 . S
O181 Co168 2.244 . S
O181 C171 1.272 . S
O181 Co173 2.135 . S
Co182 O183 2.216 . S
Co182 O184 2.091 . S
Co182 O186 2.004 . S
Co182 O192 2.021 . S
Co182 O194 2.137 . S
Co182 O195 2.244 . S
O183 Co182 2.216 . S
O183 C190 1.247 . S
O184 Co182 2.091 . S
O184 C190 1.261 . S
C185 O194 1.247 . S
C185 O195 1.272 . S
O186 Co182 2.004 . S
O186 C191 1.259 . S
Co187 O188 2.061 . S
Co187 O193 2.052 . S
Co187 O195 2.135 . S
O188 Co187 2.061 . S
O188 C191 1.235 . S
C189 O192 1.238 . S
C189 O193 1.241 . S
C190 O183 1.247 . S
C190 O184 1.261 . S
C191 O186 1.259 . S
C191 O188 1.235 . S
O192 Co182 2.021 . S
O192 C189 1.238 . S
O193 Co187 2.052 . S
O193 C189 1.241 . S
O194 Co182 2.137 . S
O194 C185 1.247 . S
O195 Co182 2.244 . S
O195 C185 1.272 . S
O195 Co187 2.135 . S
Co196 O197 2.216 . S
Co196 O198 2.091 . S
Co196 O200 2.004 . S
Co196 O206 2.021 . S
Co196 O208 2.137 . S
Co196 O209 2.244 . S
O197 Co196 2.216 . S
O197 C204 1.247 . S
O198 Co196 2.091 . S
O198 C204 1.261 . S
C199 O208 1.247 . S
C199 O209 1.272 . S
O200 Co196 2.004 . S
O200 C205 1.259 . S
Co201 O202 2.061 . S
Co201 O207 2.052 . S
Co201 O209 2.135 . S
O202 Co201 2.061 . S
O202 C205 1.235 . S
C203 O206 1.238 . S
C203 O207 1.241 . S
C204 O197 1.247 . S
C204 O198 1.261 . S
C205 O200 1.259 . S
C205 O202 1.235 . S
O206 Co196 2.021 . S
O206 C203 1.238 . S
O207 Co201 2.052 . S
O207 C203 1.241 . S
O208 Co196 2.137 . S
O208 C199 1.247 . S
O209 Co196 2.244 . S
O209 C199 1.272 . S
O209 Co201 2.135 . S
Co210 O211 2.216 . S
Co210 O212 2.091 . S
Co210 O214 2.004 . S
Co210 O220 2.021 . S
Co210 O222 2.137 . S
Co210 O223 2.244 . S
O211 Co210 2.216 . S
O211 C218 1.247 . S
O212 Co210 2.091 . S
O212 C218 1.261 . S
C213 O222 1.247 . S
C213 O223 1.272 . S
O214 Co210 2.004 . S
O214 C219 1.259 . S
Co215 O216 2.061 . S
Co215 O221 2.052 . S
Co215 O223 2.135 . S
O216 Co215 2.061 . S
O216 C219 1.235 . S
C217 O220 1.238 . S
C217 O221 1.241 . S
C218 O211 1.247 . S
C218 O212 1.261 . S
C219 O214 1.259 . S
C219 O216 1.235 . S
O220 Co210 2.021 . S
O220 C217 1.238 . S
O221 Co215 2.052 . S
O221 C217 1.241 . S
O222 Co210 2.137 . S
O222 C213 1.247 . S
O223 Co210 2.244 . S
O223 C213 1.272 . S
O223 Co215 2.135 . S
Co224 O225 2.216 . S
Co224 O226 2.091 . S
Co224 O228 2.004 . S
Co224 O234 2.021 . S
Co224 O236 2.137 . S
Co224 O237 2.244 . S
O225 Co224 2.216 . S
O225 C232 1.247 . S
O226 Co224 2.091 . S
O226 C232 1.261 . S
C227 O236 1.247 . S
C227 O237 1.272 . S
O228 Co224 2.004 . S
O228 C233 1.259 . S
Co229 O230 2.061 . S
Co229 O235 2.052 . S
Co229 O237 2.135 . S
O230 Co229 2.061 . S
O230 C233 1.235 . S
C231 O234 1.238 . S
C231 O235 1.241 . S
C232 O225 1.247 . S
C232 O226 1.261 . S
C233 O228 1.259 . S
C233 O230 1.235 . S
O234 Co224 2.021 . S
O234 C231 1.238 . S
O235 Co229 2.052 . S
O235 C231 1.241 . S
O236 Co224 2.137 . S
O236 C227 1.247 . S
O237 Co224 2.244 . S
O237 C227 1.272 . S
O237 Co229 2.135 . S
Co238 O239 2.216 . S
Co238 O240 2.091 . S
Co238 O242 2.004 . S
Co238 O248 2.021 . S
Co238 O250 2.137 . S
Co238 O251 2.244 . S
O239 Co238 2.216 . S
O239 C246 1.247 . S
O240 Co238 2.091 . S
O240 C246 1.261 . S
C241 O250 1.247 . S
C241 O251 1.272 . S
O242 Co238 2.004 . S
O242 C247 1.259 . S
Co243 O244 2.061 . S
Co243 O249 2.052 . S
Co243 O251 2.135 . S
O244 Co243 2.061 . S
O244 C247 1.235 . S
C245 O248 1.238 . S
C245 O249 1.241 . S
C246 O239 1.247 . S
C246 O240 1.261 . S
C247 O242 1.259 . S
C247 O244 1.235 . S
O248 Co238 2.021 . S
O248 C245 1.238 . S
O249 Co243 2.052 . S
O249 C245 1.241 . S
O250 Co238 2.137 . S
O250 C241 1.247 . S
O251 Co238 2.244 . S
O251 C241 1.272 . S
O251 Co243 2.135 . S
Co252 O253 2.216 . S
Co252 O254 2.091 . S
Co252 O256 2.004 . S
Co252 O262 2.021 . S
Co252 O264 2.137 . S
Co252 O265 2.244 . S
O253 Co252 2.216 . S
O253 C260 1.247 . S
O254 Co252 2.091 . S
O254 C260 1.261 . S
C255 O264 1.247 . S
C255 O265 1.272 . S
O256 Co252 2.004 . S
O256 C261 1.259 . S
Co257 O258 2.061 . S
Co257 O263 2.052 . S
Co257 O265 2.135 . S
O258 Co257 2.061 . S
O258 C261 1.235 . S
C259 O262 1.238 . S
C259 O263 1.241 . S
C260 O253 1.247 . S
C260 O254 1.261 . S
C261 O256 1.259 . S
C261 O258 1.235 . S
O262 Co252 2.021 . S
O262 C259 1.238 . S
O263 Co257 2.052 . S
O263 C259 1.241 . S
O264 Co252 2.137 . S
O264 C255 1.247 . S
O265 Co252 2.244 . S
O265 C255 1.272 . S
O265 Co257 2.135 . S
Co266 O267 2.216 . S
Co266 O268 2.091 . S
Co266 O270 2.004 . S
Co266 O276 2.021 . S
Co266 O278 2.137 . S
Co266 O279 2.244 . S
O267 Co266 2.216 . S
O267 C274 1.247 . S
O268 Co266 2.091 . S
O268 C274 1.261 . S
C269 O278 1.247 . S
C269 O279 1.272 . S
O270 Co266 2.004 . S
O270 C275 1.259 . S
Co271 O272 2.061 . S
Co271 O277 2.052 . S
Co271 O279 2.135 . S
O272 Co271 2.061 . S
O272 C275 1.235 . S
C273 O276 1.238 . S
C273 O277 1.241 . S
C274 O267 1.247 . S
C274 O268 1.261 . S
C275 O270 1.259 . S
C275 O272 1.235 . S
O276 Co266 2.021 . S
O276 C273 1.238 . S
O277 Co271 2.052 . S
O277 C273 1.241 . S
O278 Co266 2.137 . S
O278 C269 1.247 . S
O279 Co266 2.244 . S
O279 C269 1.272 . S
O279 Co271 2.135 . S
Co280 O281 2.216 . S
Co280 O282 2.091 . S
Co280 O284 2.004 . S
Co280 O290 2.021 . S
Co280 O292 2.137 . S
Co280 O293 2.244 . S
O281 Co280 2.216 . S
O281 C288 1.247 . S
O282 Co280 2.091 . S
O282 C288 1.261 . S
C283 O292 1.247 . S
C283 O293 1.272 . S
O284 Co280 2.004 . S
O284 C289 1.259 . S
Co285 O286 2.061 . S
Co285 O291 2.052 . S
Co285 O293 2.135 . S
O286 Co285 2.061 . S
O286 C289 1.235 . S
C287 O290 1.238 . S
C287 O291 1.241 . S
C288 O281 1.247 . S
C288 O282 1.261 . S
C289 O284 1.259 . S
C289 O286 1.235 . S
O290 Co280 2.021 . S
O290 C287 1.238 . S
O291 Co285 2.052 . S
O291 C287 1.241 . S
O292 Co280 2.137 . S
O292 C283 1.247 . S
O293 Co280 2.244 . S
O293 C283 1.272 . S
O293 Co285 2.135 . S
Co294 O295 2.216 . S
Co294 O296 2.091 . S
Co294 O298 2.004 . S
Co294 O304 2.021 . S
Co294 O306 2.137 . S
Co294 O307 2.244 . S
O295 Co294 2.216 . S
O295 C302 1.247 . S
O296 Co294 2.091 . S
O296 C302 1.261 . S
C297 O306 1.247 . S
C297 O307 1.272 . S
O298 Co294 2.004 . S
O298 C303 1.259 . S
Co299 O300 2.061 . S
Co299 O305 2.052 . S
Co299 O307 2.135 . S
O300 Co299 2.061 . S
O300 C303 1.235 . S
C301 O304 1.238 . S
C301 O305 1.241 . S
C302 O295 1.247 . S
C302 O296 1.261 . S
C303 O298 1.259 . S
C303 O300 1.235 . S
O304 Co294 2.021 . S
O304 C301 1.238 . S
O305 Co299 2.052 . S
O305 C301 1.241 . S
O306 Co294 2.137 . S
O306 C297 1.247 . S
O307 Co294 2.244 . S
O307 C297 1.272 . S
O307 Co299 2.135 . S
Co308 O309 2.216 . S
Co308 O310 2.091 . S
Co308 O312 2.004 . S
Co308 O318 2.021 . S
Co308 O320 2.137 . S
Co308 O321 2.244 . S
O309 Co308 2.216 . S
O309 C316 1.247 . S
O310 Co308 2.091 . S
O310 C316 1.261 . S
C311 O320 1.247 . S
C311 O321 1.272 . S
O312 Co308 2.004 . S
O312 C317 1.259 . S
Co313 O314 2.061 . S
Co313 O319 2.052 . S
Co313 O321 2.135 . S
O314 Co313 2.061 . S
O314 C317 1.235 . S
C315 O318 1.238 . S
C315 O319 1.241 . S
C316 O309 1.247 . S
C316 O310 1.261 . S
C317 O312 1.259 . S
C317 O314 1.235 . S
O318 Co308 2.021 . S
O318 C315 1.238 . S
O319 Co313 2.052 . S
O319 C315 1.241 . S
O320 Co308 2.137 . S
O320 C311 1.247 . S
O321 Co308 2.244 . S
O321 C311 1.272 . S
O321 Co313 2.135 . S
Co322 O323 2.216 . S
Co322 O324 2.091 . S
Co322 O326 2.004 . S
Co322 O332 2.021 . S
Co322 O334 2.137 . S
Co322 O335 2.244 . S
O323 Co322 2.216 . S
O323 C330 1.247 . S
O324 Co322 2.091 . S
O324 C330 1.261 . S
C325 O334 1.247 . S
C325 O335 1.272 . S
O326 Co322 2.004 . S
O326 C331 1.259 . S
Co327 O328 2.061 . S
Co327 O333 2.052 . S
Co327 O335 2.135 . S
O328 Co327 2.061 . S
O328 C331 1.235 . S
C329 O332 1.238 . S
C329 O333 1.241 . S
C330 O323 1.247 . S
C330 O324 1.261 . S
C331 O326 1.259 . S
C331 O328 1.235 . S
O332 Co322 2.021 . S
O332 C329 1.238 . S
O333 Co327 2.052 . S
O333 C329 1.241 . S
O334 Co322 2.137 . S
O334 C325 1.247 . S
O335 Co322 2.244 . S
O335 C325 1.272 . S
O335 Co327 2.135 . S
Co336 O337 2.216 . S
Co336 O338 2.091 . S
Co336 O340 2.004 . S
Co336 O346 2.021 . S
Co336 O348 2.137 . S
Co336 O349 2.244 . S
O337 Co336 2.216 . S
O337 C344 1.247 . S
O338 Co336 2.091 . S
O338 C344 1.261 . S
C339 O348 1.247 . S
C339 O349 1.272 . S
O340 Co336 2.004 . S
O340 C345 1.259 . S
Co341 O342 2.061 . S
Co341 O347 2.052 . S
Co341 O349 2.135 . S
O342 Co341 2.061 . S
O342 C345 1.235 . S
C343 O346 1.238 . S
C343 O347 1.241 . S
C344 O337 1.247 . S
C344 O338 1.261 . S
C345 O340 1.259 . S
C345 O342 1.235 . S
O346 Co336 2.021 . S
O346 C343 1.238 . S
O347 Co341 2.052 . S
O347 C343 1.241 . S
O348 Co336 2.137 . S
O348 C339 1.247 . S
O349 Co336 2.244 . S
O349 C339 1.272 . S
O349 Co341 2.135 . S
Co350 O351 2.216 . S
Co350 O352 2.091 . S
Co350 O354 2.004 . S
Co350 O360 2.021 . S
Co350 O362 2.137 . S
Co350 O363 2.244 . S
O351 Co350 2.216 . S
O351 C358 1.247 . S
O352 Co350 2.091 . S
O352 C358 1.261 . S
C353 O362 1.247 . S
C353 O363 1.272 . S
O354 Co350 2.004 . S
O354 C359 1.259 . S
Co355 O356 2.061 . S
Co355 O361 2.052 . S
Co355 O363 2.135 . S
O356 Co355 2.061 . S
O356 C359 1.235 . S
C357 O360 1.238 . S
C357 O361 1.241 . S
C358 O351 1.247 . S
C358 O352 1.261 . S
C359 O354 1.259 . S
C359 O356 1.235 . S
O360 Co350 2.021 . S
O360 C357 1.238 . S
O361 Co355 2.052 . S
O361 C357 1.241 . S
O362 Co350 2.137 . S
O362 C353 1.247 . S
O363 Co350 2.244 . S
O363 C353 1.272 . S
O363 Co355 2.135 . S
Co364 O365 2.216 . S
Co364 O366 2.091 . S
Co364 O368 2.004 . S
Co364 O374 2.021 . S
Co364 O376 2.137 . S
Co364 O377 2.244 . S
O365 Co364 2.216 . S
O365 C372 1.247 . S
O366 Co364 2.091 . S
O366 C372 1.261 . S
C367 O376 1.247 . S
C367 O377 1.272 . S
O368 Co364 2.004 . S
O368 C373 1.259 . S
Co369 O370 2.061 . S
Co369 O375 2.052 . S
Co369 O377 2.135 . S
O370 Co369 2.061 . S
O370 C373 1.235 . S
C371 O374 1.238 . S
C371 O375 1.241 . S
C372 O365 1.247 . S
C372 O366 1.261 . S
C373 O368 1.259 . S
C373 O370 1.235 . S
O374 Co364 2.021 . S
O374 C371 1.238 . S
O375 Co369 2.052 . S
O375 C371 1.241 . S
O376 Co364 2.137 . S
O376 C367 1.247 . S
O377 Co364 2.244 . S
O377 C367 1.272 . S
O377 Co369 2.135 . S
Co378 O379 2.216 . S
Co378 O380 2.091 . S
Co378 O382 2.004 . S
Co378 O388 2.021 . S
Co378 O390 2.137 . S
Co378 O391 2.244 . S
O379 Co378 2.216 . S
O379 C386 1.247 . S
O380 Co378 2.091 . S
O380 C386 1.261 . S
C381 O390 1.247 . S
C381 O391 1.272 . S
O382 Co378 2.004 . S
O382 C387 1.259 . S
Co383 O384 2.061 . S
Co383 O389 2.052 . S
Co383 O391 2.135 . S
O384 Co383 2.061 . S
O384 C387 1.235 . S
C385 O388 1.238 . S
C385 O389 1.241 . S
C386 O379 1.247 . S
C386 O380 1.261 . S
C387 O382 1.259 . S
C387 O384 1.235 . S
O388 Co378 2.021 . S
O388 C385 1.238 . S
O389 Co383 2.052 . S
O389 C385 1.241 . S
O390 Co378 2.137 . S
O390 C381 1.247 . S
O391 Co378 2.244 . S
O391 C381 1.272 . S
O391 Co383 2.135 . S
Co392 O393 2.216 . S
Co392 O394 2.091 . S
Co392 O396 2.004 . S
Co392 O402 2.021 . S
Co392 O404 2.137 . S
Co392 O405 2.244 . S
O393 Co392 2.216 . S
O393 C400 1.247 . S
O394 Co392 2.091 . S
O394 C400 1.261 . S
C395 O404 1.247 . S
C395 O405 1.272 . S
O396 Co392 2.004 . S
O396 C401 1.259 . S
Co397 O398 2.061 . S
Co397 O403 2.052 . S
Co397 O405 2.135 . S
O398 Co397 2.061 . S
O398 C401 1.235 . S
C399 O402 1.238 . S
C399 O403 1.241 . S
C400 O393 1.247 . S
C400 O394 1.261 . S
C401 O396 1.259 . S
C401 O398 1.235 . S
O402 Co392 2.021 . S
O402 C399 1.238 . S
O403 Co397 2.052 . S
O403 C399 1.241 . S
O404 Co392 2.137 . S
O404 C395 1.247 . S
O405 Co392 2.244 . S
O405 C395 1.272 . S
O405 Co397 2.135 . S
Co406 O407 2.216 . S
Co406 O408 2.091 . S
Co406 O410 2.004 . S
Co406 O416 2.021 . S
Co406 O418 2.137 . S
Co406 O419 2.244 . S
O407 Co406 2.216 . S
O407 C414 1.247 . S
O408 Co406 2.091 . S
O408 C414 1.261 . S
C409 O418 1.247 . S
C409 O419 1.272 . S
O410 Co406 2.004 . S
O410 C415 1.259 . S
Co411 O412 2.061 . S
Co411 O417 2.052 . S
Co411 O419 2.135 . S
O412 Co411 2.061 . S
O412 C415 1.235 . S
C413 O416 1.238 . S
C413 O417 1.241 . S
C414 O407 1.247 . S
C414 O408 1.261 . S
C415 O410 1.259 . S
C415 O412 1.235 . S
O416 Co406 2.021 . S
O416 C413 1.238 . S
O417 Co411 2.052 . S
O417 C413 1.241 . S
O418 Co406 2.137 . S
O418 C409 1.247 . S
O419 Co406 2.244 . S
O419 C409 1.272 . S
O419 Co411 2.135 . S
Co420 O421 2.216 . S
Co420 O422 2.091 . S
Co420 O424 2.004 . S
Co420 O430 2.021 . S
Co420 O432 2.137 . S
Co420 O433 2.244 . S
O421 Co420 2.216 . S
O421 C428 1.247 . S
O422 Co420 2.091 . S
O422 C428 1.261 . S
C423 O432 1.247 . S
C423 O433 1.272 . S
O424 Co420 2.004 . S
O424 C429 1.259 . S
Co425 O426 2.061 . S
Co425 O431 2.052 . S
Co425 O433 2.135 . S
O426 Co425 2.061 . S
O426 C429 1.235 . S
C427 O430 1.238 . S
C427 O431 1.241 . S
C428 O421 1.247 . S
C428 O422 1.261 . S
C429 O424 1.259 . S
C429 O426 1.235 . S
O430 Co420 2.021 . S
O430 C427 1.238 . S
O431 Co425 2.052 . S
O431 C427 1.241 . S
O432 Co420 2.137 . S
O432 C423 1.247 . S
O433 Co420 2.244 . S
O433 C423 1.272 . S
O433 Co425 2.135 . S
Co434 O435 2.216 . S
Co434 O436 2.091 . S
Co434 O438 2.004 . S
Co434 O444 2.021 . S
Co434 O446 2.137 . S
Co434 O447 2.244 . S
O435 Co434 2.216 . S
O435 C442 1.247 . S
O436 Co434 2.091 . S
O436 C442 1.261 . S
C437 O446 1.247 . S
C437 O447 1.272 . S
O438 Co434 2.004 . S
O438 C443 1.259 . S
Co439 O440 2.061 . S
Co439 O445 2.052 . S
Co439 O447 2.135 . S
O440 Co439 2.061 . S
O440 C443 1.235 . S
C441 O444 1.238 . S
C441 O445 1.241 . S
C442 O435 1.247 . S
C442 O436 1.261 . S
C443 O438 1.259 . S
C443 O440 1.235 . S
O444 Co434 2.021 . S
O444 C441 1.238 . S
O445 Co439 2.052 . S
O445 C441 1.241 . S
O446 Co434 2.137 . S
O446 C437 1.247 . S
O447 Co434 2.244 . S
O447 C437 1.272 . S
O447 Co439 2.135 . S
H448 C454 0.930 . S
H449 C458 0.930 . S
H450 C463 0.929 . S
H451 C461 0.929 . S
H452 C456 0.929 . S
H453 C462 0.929 . S
C454 H448 0.930 . S
C454 C455 1.367 . S
C454 C462 1.378 . S
C455 C454 1.367 . S
C455 C463 1.433 . S
C456 H452 0.929 . S
C456 C458 1.378 . S
C456 C460 1.350 . S
C457 C460 1.463 . S
C457 C462 1.350 . S
C457 N465 1.427 . S
C458 H449 0.930 . S
C458 C456 1.378 . S
C458 C459 1.367 . S
C459 C458 1.367 . S
C459 C461 1.433 . S
C460 C456 1.350 . S
C460 C457 1.463 . S
C460 N464 1.427 . S
C461 H451 0.929 . S
C461 C459 1.433 . S
C461 N464 1.384 . S
C462 H453 0.929 . S
C462 C454 1.378 . S
C462 C457 1.350 . S
C463 H450 0.929 . S
C463 C455 1.433 . S
C463 N465 1.384 . S
N464 C460 1.427 . S
N464 C461 1.384 . S
N465 C457 1.427 . S
N465 C463 1.384 . S
H466 C472 0.930 . S
H467 C476 0.930 . S
H468 C481 0.929 . S
H469 C479 0.929 . S
H470 C474 0.929 . S
H471 C480 0.929 . S
C472 H466 0.930 . S
C472 C473 1.367 . S
C472 C480 1.378 . S
C473 C472 1.367 . S
C473 C481 1.433 . S
C474 H470 0.929 . S
C474 C476 1.378 . S
C474 C478 1.350 . S
C475 C478 1.463 . S
C475 C480 1.350 . S
C475 N483 1.427 . S
C476 H467 0.930 . S
C476 C474 1.378 . S
C476 C477 1.367 . S
C477 C476 1.367 . S
C477 C479 1.433 . S
C478 C474 1.350 . S
C478 C475 1.463 . S
C478 N482 1.427 . S
C479 H469 0.929 . S
C479 C477 1.433 . S
C479 N482 1.384 . S
C480 H471 0.929 . S
C480 C472 1.378 . S
C480 C475 1.350 . S
C481 H468 0.929 . S
C481 C473 1.433 . S
C481 N483 1.384 . S
N482 C478 1.427 . S
N482 C479 1.384 . S
N483 C475 1.427 . S
N483 C481 1.384 . S
H484 C490 0.930 . S
H485 C494 0.930 . S
H486 C499 0.929 . S
H487 C497 0.929 . S
H488 C492 0.929 . S
H489 C498 0.929 . S
C490 H484 0.930 . S
C490 C491 1.367 . S
C490 C498 1.378 . S
C491 C490 1.367 . S
C491 C499 1.433 . S
C492 H488 0.929 . S
C492 C494 1.378 . S
C492 C496 1.350 . S
C493 C496 1.463 . S
C493 C498 1.350 . S
C493 N501 1.427 . S
C494 H485 0.930 . S
C494 C492 1.378 . S
C494 C495 1.367 . S
C495 C494 1.367 . S
C495 C497 1.433 . S
C496 C492 1.350 . S
C496 C493 1.463 . S
C496 N500 1.427 . S
C497 H487 0.929 . S
C497 C495 1.433 . S
C497 N500 1.384 . S
C498 H489 0.929 . S
C498 C490 1.378 . S
C498 C493 1.350 . S
C499 H486 0.929 . S
C499 C491 1.433 . S
C499 N501 1.384 . S
N500 C496 1.427 . S
N500 C497 1.384 . S
N501 C493 1.427 . S
N501 C499 1.384 . S
H502 C508 0.930 . S
H503 C512 0.930 . S
H504 C517 0.929 . S
H505 C515 0.929 . S
H506 C510 0.929 . S
H507 C516 0.929 . S
C508 H502 0.930 . S
C508 C509 1.367 . S
C508 C516 1.378 . S
C509 C508 1.367 . S
C509 C517 1.433 . S
C510 H506 0.929 . S
C510 C512 1.378 . S
C510 C514 1.350 . S
C511 C514 1.463 . S
C511 C516 1.350 . S
C511 N519 1.427 . S
C512 H503 0.930 . S
C512 C510 1.378 . S
C512 C513 1.367 . S
C513 C512 1.367 . S
C513 C515 1.433 . S
C514 C510 1.350 . S
C514 C511 1.463 . S
C514 N518 1.427 . S
C515 H505 0.929 . S
C515 C513 1.433 . S
C515 N518 1.384 . S
C516 H507 0.929 . S
C516 C508 1.378 . S
C516 C511 1.350 . S
C517 H504 0.929 . S
C517 C509 1.433 . S
C517 N519 1.384 . S
N518 C514 1.427 . S
N518 C515 1.384 . S
N519 C511 1.427 . S
N519 C517 1.384 . S
H520 C526 0.930 . S
H521 C530 0.930 . S
H522 C535 0.929 . S
H523 C533 0.929 . S
H524 C528 0.929 . S
H525 C534 0.929 . S
C526 H520 0.930 . S
C526 C527 1.367 . S
C526 C534 1.378 . S
C527 C526 1.367 . S
C527 C535 1.433 . S
C528 H524 0.929 . S
C528 C530 1.378 . S
C528 C532 1.350 . S
C529 C532 1.463 . S
C529 C534 1.350 . S
C529 N537 1.427 . S
C530 H521 0.930 . S
C530 C528 1.378 . S
C530 C531 1.367 . S
C531 C530 1.367 . S
C531 C533 1.433 . S
C532 C528 1.350 . S
C532 C529 1.463 . S
C532 N536 1.427 . S
C533 H523 0.929 . S
C533 C531 1.433 . S
C533 N536 1.384 . S
C534 H525 0.929 . S
C534 C526 1.378 . S
C534 C529 1.350 . S
C535 H522 0.929 . S
C535 C527 1.433 . S
C535 N537 1.384 . S
N536 C532 1.427 . S
N536 C533 1.384 . S
N537 C529 1.427 . S
N537 C535 1.384 . S
H538 C544 0.930 . S
H539 C548 0.930 . S
H540 C553 0.929 . S
H541 C551 0.929 . S
H542 C546 0.929 . S
H543 C552 0.929 . S
C544 H538 0.930 . S
C544 C545 1.367 . S
C544 C552 1.378 . S
C545 C544 1.367 . S
C545 C553 1.433 . S
C546 H542 0.929 . S
C546 C548 1.378 . S
C546 C550 1.350 . S
C547 C550 1.463 . S
C547 C552 1.350 . S
C547 N555 1.427 . S
C548 H539 0.930 . S
C548 C546 1.378 . S
C548 C549 1.367 . S
C549 C548 1.367 . S
C549 C551 1.433 . S
C550 C546 1.350 . S
C550 C547 1.463 . S
C550 N554 1.427 . S
C551 H541 0.929 . S
C551 C549 1.433 . S
C551 N554 1.384 . S
C552 H543 0.929 . S
C552 C544 1.378 . S
C552 C547 1.350 . S
C553 H540 0.929 . S
C553 C545 1.433 . S
C553 N555 1.384 . S
N554 C550 1.427 . S
N554 C551 1.384 . S
N555 C547 1.427 . S
N555 C553 1.384 . S
H556 C562 0.930 . S
H557 C566 0.930 . S
H558 C571 0.929 . S
H559 C569 0.929 . S
H560 C564 0.929 . S
H561 C570 0.929 . S
C562 H556 0.930 . S
C562 C563 1.367 . S
C562 C570 1.378 . S
C563 C562 1.367 . S
C563 C571 1.433 . S
C564 H560 0.929 . S
C564 C566 1.378 . S
C564 C568 1.350 . S
C565 C568 1.463 . S
C565 C570 1.350 . S
C565 N573 1.427 . S
C566 H557 0.930 . S
C566 C564 1.378 . S
C566 C567 1.367 . S
C567 C566 1.367 . S
C567 C569 1.433 . S
C568 C564 1.350 . S
C568 C565 1.463 . S
C568 N572 1.427 . S
C569 H559 0.929 . S
C569 C567 1.433 . S
C569 N572 1.384 . S
C570 H561 0.929 . S
C570 C562 1.378 . S
C570 C565 1.350 . S
C571 H558 0.929 . S
C571 C563 1.433 . S
C571 N573 1.384 . S
N572 C568 1.427 . S
N572 C569 1.384 . S
N573 C565 1.427 . S
N573 C571 1.384 . S
H574 C580 0.930 . S
H575 C584 0.930 . S
H576 C589 0.929 . S
H577 C587 0.929 . S
H578 C582 0.929 . S
H579 C588 0.929 . S
C580 H574 0.930 . S
C580 C581 1.367 . S
C580 C588 1.378 . S
C581 C580 1.367 . S
C581 C589 1.433 . S
C582 H578 0.929 . S
C582 C584 1.378 . S
C582 C586 1.350 . S
C583 C586 1.463 . S
C583 C588 1.350 . S
C583 N591 1.427 . S
C584 H575 0.930 . S
C584 C582 1.378 . S
C584 C585 1.367 . S
C585 C584 1.367 . S
C585 C587 1.433 . S
C586 C582 1.350 . S
C586 C583 1.463 . S
C586 N590 1.427 . S
C587 H577 0.929 . S
C587 C585 1.433 . S
C587 N590 1.384 . S
C588 H579 0.929 . S
C588 C580 1.378 . S
C588 C583 1.350 . S
C589 H576 0.929 . S
C589 C581 1.433 . S
C589 N591 1.384 . S
N590 C586 1.427 . S
N590 C587 1.384 . S
N591 C583 1.427 . S
N591 C589 1.384 . S
H592 C598 0.930 . S
H593 C602 0.930 . S
H594 C607 0.929 . S
H595 C605 0.929 . S
H596 C600 0.929 . S
H597 C606 0.929 . S
C598 H592 0.930 . S
C598 C599 1.367 . S
C598 C606 1.378 . S
C599 C598 1.367 . S
C599 C607 1.433 . S
C600 H596 0.929 . S
C600 C602 1.378 . S
C600 C604 1.350 . S
C601 C604 1.463 . S
C601 C606 1.350 . S
C601 N609 1.427 . S
C602 H593 0.930 . S
C602 C600 1.378 . S
C602 C603 1.367 . S
C603 C602 1.367 . S
C603 C605 1.433 . S
C604 C600 1.350 . S
C604 C601 1.463 . S
C604 N608 1.427 . S
C605 H595 0.929 . S
C605 C603 1.433 . S
C605 N608 1.384 . S
C606 H597 0.929 . S
C606 C598 1.378 . S
C606 C601 1.350 . S
C607 H594 0.929 . S
C607 C599 1.433 . S
C607 N609 1.384 . S
N608 C604 1.427 . S
N608 C605 1.384 . S
N609 C601 1.427 . S
N609 C607 1.384 . S
H610 C616 0.930 . S
H611 C620 0.930 . S
H612 C625 0.929 . S
H613 C623 0.929 . S
H614 C618 0.929 . S
H615 C624 0.929 . S
C616 H610 0.930 . S
C616 C617 1.367 . S
C616 C624 1.378 . S
C617 C616 1.367 . S
C617 C625 1.433 . S
C618 H614 0.929 . S
C618 C620 1.378 . S
C618 C622 1.350 . S
C619 C622 1.463 . S
C619 C624 1.350 . S
C619 N627 1.427 . S
C620 H611 0.930 . S
C620 C618 1.378 . S
C620 C621 1.367 . S
C621 C620 1.367 . S
C621 C623 1.433 . S
C622 C618 1.350 . S
C622 C619 1.463 . S
C622 N626 1.427 . S
C623 H613 0.929 . S
C623 C621 1.433 . S
C623 N626 1.384 . S
C624 H615 0.929 . S
C624 C616 1.378 . S
C624 C619 1.350 . S
C625 H612 0.929 . S
C625 C617 1.433 . S
C625 N627 1.384 . S
N626 C622 1.427 . S
N626 C623 1.384 . S
N627 C619 1.427 . S
N627 C625 1.384 . S
H628 C634 0.930 . S
H629 C638 0.930 . S
H630 C643 0.929 . S
H631 C641 0.929 . S
H632 C636 0.929 . S
H633 C642 0.929 . S
C634 H628 0.930 . S
C634 C635 1.367 . S
C634 C642 1.378 . S
C635 C634 1.367 . S
C635 C643 1.433 . S
C636 H632 0.929 . S
C636 C638 1.378 . S
C636 C640 1.350 . S
C637 C640 1.463 . S
C637 C642 1.350 . S
C637 N645 1.427 . S
C638 H629 0.930 . S
C638 C636 1.378 . S
C638 C639 1.367 . S
C639 C638 1.367 . S
C639 C641 1.433 . S
C640 C636 1.350 . S
C640 C637 1.463 . S
C640 N644 1.427 . S
C641 H631 0.929 . S
C641 C639 1.433 . S
C641 N644 1.384 . S
C642 H633 0.929 . S
C642 C634 1.378 . S
C642 C637 1.350 . S
C643 H630 0.929 . S
C643 C635 1.433 . S
C643 N645 1.384 . S
N644 C640 1.427 . S
N644 C641 1.384 . S
N645 C637 1.427 . S
N645 C643 1.384 . S
H646 C652 0.930 . S
H647 C656 0.930 . S
H648 C661 0.929 . S
H649 C659 0.929 . S
H650 C654 0.929 . S
H651 C660 0.929 . S
C652 H646 0.930 . S
C652 C653 1.367 . S
C652 C660 1.378 . S
C653 C652 1.367 . S
C653 C661 1.433 . S
C654 H650 0.929 . S
C654 C656 1.378 . S
C654 C658 1.350 . S
C655 C658 1.463 . S
C655 C660 1.350 . S
C655 N663 1.427 . S
C656 H647 0.930 . S
C656 C654 1.378 . S
C656 C657 1.367 . S
C657 C656 1.367 . S
C657 C659 1.433 . S
C658 C654 1.350 . S
C658 C655 1.463 . S
C658 N662 1.427 . S
C659 H649 0.929 . S
C659 C657 1.433 . S
C659 N662 1.384 . S
C660 H651 0.929 . S
C660 C652 1.378 . S
C660 C655 1.350 . S
C661 H648 0.929 . S
C661 C653 1.433 . S
C661 N663 1.384 . S
N662 C658 1.427 . S
N662 C659 1.384 . S
N663 C655 1.427 . S
N663 C661 1.384 . S
H664 C670 0.930 . S
H665 C674 0.930 . S
H666 C679 0.929 . S
H667 C677 0.929 . S
H668 C672 0.929 . S
H669 C678 0.929 . S
C670 H664 0.930 . S
C670 C671 1.367 . S
C670 C678 1.378 . S
C671 C670 1.367 . S
C671 C679 1.433 . S
C672 H668 0.929 . S
C672 C674 1.378 . S
C672 C676 1.350 . S
C673 C676 1.463 . S
C673 C678 1.350 . S
C673 N681 1.427 . S
C674 H665 0.930 . S
C674 C672 1.378 . S
C674 C675 1.367 . S
C675 C674 1.367 . S
C675 C677 1.433 . S
C676 C672 1.350 . S
C676 C673 1.463 . S
C676 N680 1.427 . S
C677 H667 0.929 . S
C677 C675 1.433 . S
C677 N680 1.384 . S
C678 H669 0.929 . S
C678 C670 1.378 . S
C678 C673 1.350 . S
C679 H666 0.929 . S
C679 C671 1.433 . S
C679 N681 1.384 . S
N680 C676 1.427 . S
N680 C677 1.384 . S
N681 C673 1.427 . S
N681 C679 1.384 . S
H682 C688 0.930 . S
H683 C692 0.930 . S
H684 C697 0.929 . S
H685 C695 0.929 . S
H686 C690 0.929 . S
H687 C696 0.929 . S
C688 H682 0.930 . S
C688 C689 1.367 . S
C688 C696 1.378 . S
C689 C688 1.367 . S
C689 C697 1.433 . S
C690 H686 0.929 . S
C690 C692 1.378 . S
C690 C694 1.350 . S
C691 C694 1.463 . S
C691 C696 1.350 . S
C691 N699 1.427 . S
C692 H683 0.930 . S
C692 C690 1.378 . S
C692 C693 1.367 . S
C693 C692 1.367 . S
C693 C695 1.433 . S
C694 C690 1.350 . S
C694 C691 1.463 . S
C694 N698 1.427 . S
C695 H685 0.929 . S
C695 C693 1.433 . S
C695 N698 1.384 . S
C696 H687 0.929 . S
C696 C688 1.378 . S
C696 C691 1.350 . S
C697 H684 0.929 . S
C697 C689 1.433 . S
C697 N699 1.384 . S
N698 C694 1.427 . S
N698 C695 1.384 . S
N699 C691 1.427 . S
N699 C697 1.384 . S
H700 C706 0.930 . S
H701 C710 0.930 . S
H702 C715 0.929 . S
H703 C713 0.929 . S
H704 C708 0.929 . S
H705 C714 0.929 . S
C706 H700 0.930 . S
C706 C707 1.367 . S
C706 C714 1.378 . S
C707 C706 1.367 . S
C707 C715 1.433 . S
C708 H704 0.929 . S
C708 C710 1.378 . S
C708 C712 1.350 . S
C709 C712 1.463 . S
C709 C714 1.350 . S
C709 N717 1.427 . S
C710 H701 0.930 . S
C710 C708 1.378 . S
C710 C711 1.367 . S
C711 C710 1.367 . S
C711 C713 1.433 . S
C712 C708 1.350 . S
C712 C709 1.463 . S
C712 N716 1.427 . S
C713 H703 0.929 . S
C713 C711 1.433 . S
C713 N716 1.384 . S
C714 H705 0.929 . S
C714 C706 1.378 . S
C714 C709 1.350 . S
C715 H702 0.929 . S
C715 C707 1.433 . S
C715 N717 1.384 . S
N716 C712 1.427 . S
N716 C713 1.384 . S
N717 C709 1.427 . S
N717 C715 1.384 . S
H718 C724 0.930 . S
H719 C728 0.930 . S
H720 C733 0.929 . S
H721 C731 0.929 . S
H722 C726 0.929 . S
H723 C732 0.929 . S
C724 H718 0.930 . S
C724 C725 1.367 . S
C724 C732 1.378 . S
C725 C724 1.367 . S
C725 C733 1.433 . S
C726 H722 0.929 . S
C726 C728 1.378 . S
C726 C730 1.350 . S
C727 C730 1.463 . S
C727 C732 1.350 . S
C727 N735 1.427 . S
C728 H719 0.930 . S
C728 C726 1.378 . S
C728 C729 1.367 . S
C729 C728 1.367 . S
C729 C731 1.433 . S
C730 C726 1.350 . S
C730 C727 1.463 . S
C730 N734 1.427 . S
C731 H721 0.929 . S
C731 C729 1.433 . S
C731 N734 1.384 . S
C732 H723 0.929 . S
C732 C724 1.378 . S
C732 C727 1.350 . S
C733 H720 0.929 . S
C733 C725 1.433 . S
C733 N735 1.384 . S
N734 C730 1.427 . S
N734 C731 1.384 . S
N735 C727 1.427 . S
N735 C733 1.384 . S
H736 C742 0.930 . S
H737 C746 0.930 . S
H738 C751 0.929 . S
H739 C749 0.929 . S
H740 C744 0.929 . S
H741 C750 0.929 . S
C742 H736 0.930 . S
C742 C743 1.367 . S
C742 C750 1.378 . S
C743 C742 1.367 . S
C743 C751 1.433 . S
C744 H740 0.929 . S
C744 C746 1.378 . S
C744 C748 1.350 . S
C745 C748 1.463 1_554 S
C745 C750 1.350 . S
C745 N753 1.427 . S
C746 H737 0.930 . S
C746 C744 1.378 . S
C746 C747 1.367 . S
C747 C746 1.367 . S
C747 C749 1.433 . S
C748 C744 1.350 . S
C748 C745 1.463 1_556 S
C748 N752 1.427 . S
C749 H739 0.929 . S
C749 C747 1.433 . S
C749 N752 1.384 . S
C750 H741 0.929 . S
C750 C742 1.378 . S
C750 C745 1.350 . S
C751 H738 0.929 . S
C751 C743 1.433 . S
C751 N753 1.384 . S
N752 C748 1.427 . S
N752 C749 1.384 . S
N753 C745 1.427 . S
N753 C751 1.384 . S
H754 C760 0.930 . S
H755 C764 0.930 . S
H756 C769 0.929 . S
H757 C767 0.929 . S
H758 C762 0.929 . S
H759 C768 0.929 . S
C760 H754 0.930 . S
C760 C761 1.367 . S
C760 C768 1.378 . S
C761 C760 1.367 . S
C761 C769 1.433 . S
C762 H758 0.929 . S
C762 C764 1.378 . S
C762 C766 1.350 . S
C763 C766 1.463 1_556 S
C763 C768 1.350 . S
C763 N771 1.427 . S
C764 H755 0.930 . S
C764 C762 1.378 . S
C764 C765 1.367 . S
C765 C764 1.367 . S
C765 C767 1.433 . S
C766 C762 1.350 . S
C766 C763 1.463 1_554 S
C766 N770 1.427 . S
C767 H757 0.929 . S
C767 C765 1.433 . S
C767 N770 1.384 . S
C768 H759 0.929 . S
C768 C760 1.378 . S
C768 C763 1.350 . S
C769 H756 0.929 . S
C769 C761 1.433 . S
C769 N771 1.384 . S
N770 C766 1.427 . S
N770 C767 1.384 . S
N771 C763 1.427 . S
N771 C769 1.384 . S
H772 C778 0.930 . S
H773 C782 0.930 . S
H774 C787 0.929 . S
H775 C785 0.929 . S
H776 C780 0.929 . S
H777 C786 0.929 . S
C778 H772 0.930 . S
C778 C779 1.367 . S
C778 C786 1.378 . S
C779 C778 1.367 . S
C779 C787 1.433 . S
C780 H776 0.929 . S
C780 C782 1.378 . S
C780 C784 1.350 . S
C781 C784 1.463 1_556 S
C781 C786 1.350 . S
C781 N789 1.427 . S
C782 H773 0.930 . S
C782 C780 1.378 . S
C782 C783 1.367 . S
C783 C782 1.367 . S
C783 C785 1.433 . S
C784 C780 1.350 . S
C784 C781 1.463 1_554 S
C784 N788 1.427 . S
C785 H775 0.929 . S
C785 C783 1.433 . S
C785 N788 1.384 . S
C786 H777 0.929 . S
C786 C778 1.378 . S
C786 C781 1.350 . S
C787 H774 0.929 . S
C787 C779 1.433 . S
C787 N789 1.384 . S
N788 C784 1.427 . S
N788 C785 1.384 . S
N789 C781 1.427 . S
N789 C787 1.384 . S
H790 C796 0.930 . S
H791 C800 0.930 . S
H792 C805 0.929 . S
H793 C803 0.929 . S
H794 C798 0.929 . S
H795 C804 0.929 . S
C796 H790 0.930 . S
C796 C797 1.367 . S
C796 C804 1.378 . S
C797 C796 1.367 . S
C797 C805 1.433 . S
C798 H794 0.929 . S
C798 C800 1.378 . S
C798 C802 1.350 . S
C799 C802 1.463 1_556 S
C799 C804 1.350 . S
C799 N807 1.427 . S
C800 H791 0.930 . S
C800 C798 1.378 . S
C800 C801 1.367 . S
C801 C800 1.367 . S
C801 C803 1.433 . S
C802 C798 1.350 . S
C802 C799 1.463 1_554 S
C802 N806 1.427 . S
C803 H793 0.929 . S
C803 C801 1.433 . S
C803 N806 1.384 . S
C804 H795 0.929 . S
C804 C796 1.378 . S
C804 C799 1.350 . S
C805 H792 0.929 . S
C805 C797 1.433 . S
C805 N807 1.384 . S
N806 C802 1.427 . S
N806 C803 1.384 . S
N807 C799 1.427 . S
N807 C805 1.384 . S
H808 C814 0.930 . S
H809 C818 0.930 . S
H810 C823 0.929 . S
H811 C821 0.929 . S
H812 C816 0.929 . S
H813 C822 0.929 . S
C814 H808 0.930 . S
C814 C815 1.367 . S
C814 C822 1.378 . S
C815 C814 1.367 . S
C815 C823 1.433 . S
C816 H812 0.929 . S
C816 C818 1.378 . S
C816 C820 1.350 . S
C817 C820 1.463 . S
C817 C822 1.350 . S
C817 N825 1.427 . S
C818 H809 0.930 . S
C818 C816 1.378 . S
C818 C819 1.367 . S
C819 C818 1.367 . S
C819 C821 1.433 . S
C820 C816 1.350 . S
C820 C817 1.463 . S
C820 N824 1.427 . S
C821 H811 0.929 . S
C821 C819 1.433 . S
C821 N824 1.384 . S
C822 H813 0.929 . S
C822 C814 1.378 . S
C822 C817 1.350 . S
C823 H810 0.929 . S
C823 C815 1.433 . S
C823 N825 1.384 . S
N824 C820 1.427 . S
N824 C821 1.384 . S
N825 C817 1.427 . S
N825 C823 1.384 . S
H826 C832 0.930 . S
H827 C836 0.930 . S
H828 C841 0.929 . S
H829 C839 0.929 . S
H830 C834 0.929 . S
H831 C840 0.929 . S
C832 H826 0.930 . S
C832 C833 1.367 . S
C832 C840 1.378 . S
C833 C832 1.367 . S
C833 C841 1.433 . S
C834 H830 0.929 . S
C834 C836 1.378 . S
C834 C838 1.350 . S
C835 C838 1.463 . S
C835 C840 1.350 . S
C835 N843 1.427 . S
C836 H827 0.930 . S
C836 C834 1.378 . S
C836 C837 1.367 . S
C837 C836 1.367 . S
C837 C839 1.433 . S
C838 C834 1.350 . S
C838 C835 1.463 . S
C838 N842 1.427 . S
C839 H829 0.929 . S
C839 C837 1.433 . S
C839 N842 1.384 . S
C840 H831 0.929 . S
C840 C832 1.378 . S
C840 C835 1.350 . S
C841 H828 0.929 . S
C841 C833 1.433 . S
C841 N843 1.384 . S
N842 C838 1.427 . S
N842 C839 1.384 . S
N843 C835 1.427 . S
N843 C841 1.384 . S
H844 C850 0.930 . S
H845 C854 0.930 . S
H846 C859 0.929 . S
H847 C857 0.929 . S
H848 C852 0.929 . S
H849 C858 0.929 . S
C850 H844 0.930 . S
C850 C851 1.367 . S
C850 C858 1.378 . S
C851 C850 1.367 . S
C851 C859 1.433 . S
C852 H848 0.929 . S
C852 C854 1.378 . S
C852 C856 1.350 . S
C853 C856 1.463 . S
C853 C858 1.350 . S
C853 N861 1.427 . S
C854 H845 0.930 . S
C854 C852 1.378 . S
C854 C855 1.367 . S
C855 C854 1.367 . S
C855 C857 1.433 . S
C856 C852 1.350 . S
C856 C853 1.463 . S
C856 N860 1.427 . S
C857 H847 0.929 . S
C857 C855 1.433 . S
C857 N860 1.384 . S
C858 H849 0.929 . S
C858 C850 1.378 . S
C858 C853 1.350 . S
C859 H846 0.929 . S
C859 C851 1.433 . S
C859 N861 1.384 . S
N860 C856 1.427 . S
N860 C857 1.384 . S
N861 C853 1.427 . S
N861 C859 1.384 . S
H862 C868 0.930 . S
H863 C872 0.930 . S
H864 C877 0.929 . S
H865 C875 0.929 . S
H866 C870 0.929 . S
H867 C876 0.929 . S
C868 H862 0.930 . S
C868 C869 1.367 . S
C868 C876 1.378 . S
C869 C868 1.367 . S
C869 C877 1.433 . S
C870 H866 0.929 . S
C870 C872 1.378 . S
C870 C874 1.350 . S
C871 C874 1.463 . S
C871 C876 1.350 . S
C871 N879 1.427 . S
C872 H863 0.930 . S
C872 C870 1.378 . S
C872 C873 1.367 . S
C873 C872 1.367 . S
C873 C875 1.433 . S
C874 C870 1.350 . S
C874 C871 1.463 . S
C874 N878 1.427 . S
C875 H865 0.929 . S
C875 C873 1.433 . S
C875 N878 1.384 . S
C876 H867 0.929 . S
C876 C868 1.378 . S
C876 C871 1.350 . S
C877 H864 0.929 . S
C877 C869 1.433 . S
C877 N879 1.384 . S
N878 C874 1.427 . S
N878 C875 1.384 . S
N879 C871 1.427 . S
N879 C877 1.384 . S
H880 C886 0.930 . S
H881 C890 0.930 . S
H882 C895 0.929 . S
H883 C893 0.929 . S
H884 C888 0.929 . S
H885 C894 0.929 . S
C886 H880 0.930 . S
C886 C887 1.367 . S
C886 C894 1.378 . S
C887 C886 1.367 . S
C887 C895 1.433 . S
C888 H884 0.929 . S
C888 C890 1.378 . S
C888 C892 1.350 . S
C889 C892 1.463 . S
C889 C894 1.350 . S
C889 N897 1.427 . S
C890 H881 0.930 . S
C890 C888 1.378 . S
C890 C891 1.367 . S
C891 C890 1.367 . S
C891 C893 1.433 . S
C892 C888 1.350 . S
C892 C889 1.463 . S
C892 N896 1.427 . S
C893 H883 0.929 . S
C893 C891 1.433 . S
C893 N896 1.384 . S
C894 H885 0.929 . S
C894 C886 1.378 . S
C894 C889 1.350 . S
C895 H882 0.929 . S
C895 C887 1.433 . S
C895 N897 1.384 . S
N896 C892 1.427 . S
N896 C893 1.384 . S
N897 C889 1.427 . S
N897 C895 1.384 . S
H898 C904 0.930 . S
H899 C908 0.930 . S
H900 C913 0.929 . S
H901 C911 0.929 . S
H902 C906 0.929 . S
H903 C912 0.929 . S
C904 H898 0.930 . S
C904 C905 1.367 . S
C904 C912 1.378 . S
C905 C904 1.367 . S
C905 C913 1.433 . S
C906 H902 0.929 . S
C906 C908 1.378 . S
C906 C910 1.350 . S
C907 C910 1.463 . S
C907 C912 1.350 . S
C907 N915 1.427 . S
C908 H899 0.930 . S
C908 C906 1.378 . S
C908 C909 1.367 . S
C909 C908 1.367 . S
C909 C911 1.433 . S
C910 C906 1.350 . S
C910 C907 1.463 . S
C910 N914 1.427 . S
C911 H901 0.929 . S
C911 C909 1.433 . S
C911 N914 1.384 . S
C912 H903 0.929 . S
C912 C904 1.378 . S
C912 C907 1.350 . S
C913 H900 0.929 . S
C913 C905 1.433 . S
C913 N915 1.384 . S
N914 C910 1.427 . S
N914 C911 1.384 . S
N915 C907 1.427 . S
N915 C913 1.384 . S
H916 C922 0.930 . S
H917 C926 0.930 . S
H918 C931 0.929 . S
H919 C929 0.929 . S
H920 C924 0.929 . S
H921 C930 0.929 . S
C922 H916 0.930 . S
C922 C923 1.367 . S
C922 C930 1.378 . S
C923 C922 1.367 . S
C923 C931 1.433 . S
C924 H920 0.929 . S
C924 C926 1.378 . S
C924 C928 1.350 . S
C925 C928 1.463 . S
C925 C930 1.350 . S
C925 N933 1.427 . S
C926 H917 0.930 . S
C926 C924 1.378 . S
C926 C927 1.367 . S
C927 C926 1.367 . S
C927 C929 1.433 . S
C928 C924 1.350 . S
C928 C925 1.463 . S
C928 N932 1.427 . S
C929 H919 0.929 . S
C929 C927 1.433 . S
C929 N932 1.384 . S
C930 H921 0.929 . S
C930 C922 1.378 . S
C930 C925 1.350 . S
C931 H918 0.929 . S
C931 C923 1.433 . S
C931 N933 1.384 . S
N932 C928 1.427 . S
N932 C929 1.384 . S
N933 C925 1.427 . S
N933 C931 1.384 . S
H934 C940 0.930 . S
H935 C944 0.930 . S
H936 C949 0.929 . S
H937 C947 0.929 . S
H938 C942 0.929 . S
H939 C948 0.929 . S
C940 H934 0.930 . S
C940 C941 1.367 . S
C940 C948 1.378 . S
C941 C940 1.367 . S
C941 C949 1.433 . S
C942 H938 0.929 . S
C942 C944 1.378 . S
C942 C946 1.350 . S
C943 C946 1.463 . S
C943 C948 1.350 . S
C943 N951 1.427 . S
C944 H935 0.930 . S
C944 C942 1.378 . S
C944 C945 1.367 . S
C945 C944 1.367 . S
C945 C947 1.433 . S
C946 C942 1.350 . S
C946 C943 1.463 . S
C946 N950 1.427 . S
C947 H937 0.929 . S
C947 C945 1.433 . S
C947 N950 1.384 . S
C948 H939 0.929 . S
C948 C940 1.378 . S
C948 C943 1.350 . S
C949 H936 0.929 . S
C949 C941 1.433 . S
C949 N951 1.384 . S
N950 C946 1.427 . S
N950 C947 1.384 . S
N951 C943 1.427 . S
N951 C949 1.384 . S
H952 C958 0.930 . S
H953 C962 0.930 . S
H954 C967 0.929 . S
H955 C965 0.929 . S
H956 C960 0.929 . S
H957 C966 0.929 . S
C958 H952 0.930 . S
C958 C959 1.367 . S
C958 C966 1.378 . S
C959 C958 1.367 . S
C959 C967 1.433 . S
C960 H956 0.929 . S
C960 C962 1.378 . S
C960 C964 1.350 . S
C961 C964 1.463 1_556 S
C961 C966 1.350 . S
C961 N969 1.427 . S
C962 H953 0.930 . S
C962 C960 1.378 . S
C962 C963 1.367 . S
C963 C962 1.367 . S
C963 C965 1.433 . S
C964 C960 1.350 . S
C964 C961 1.463 1_554 S
C964 N968 1.427 . S
C965 H955 0.929 . S
C965 C963 1.433 . S
C965 N968 1.384 . S
C966 H957 0.929 . S
C966 C958 1.378 . S
C966 C961 1.350 . S
C967 H954 0.929 . S
C967 C959 1.433 . S
C967 N969 1.384 . S
N968 C964 1.427 . S
N968 C965 1.384 . S
N969 C961 1.427 . S
N969 C967 1.384 . S
H970 C976 0.930 . S
H971 C980 0.930 . S
H972 C985 0.929 . S
H973 C983 0.929 . S
H974 C978 0.929 . S
H975 C984 0.929 . S
C976 H970 0.930 . S
C976 C977 1.367 . S
C976 C984 1.378 . S
C977 C976 1.367 . S
C977 C985 1.433 . S
C978 H974 0.929 . S
C978 C980 1.378 . S
C978 C982 1.350 . S
C979 C982 1.463 1_554 S
C979 C984 1.350 . S
C979 N987 1.427 . S
C980 H971 0.930 . S
C980 C978 1.378 . S
C980 C981 1.367 . S
C981 C980 1.367 . S
C981 C983 1.433 . S
C982 C978 1.350 . S
C982 C979 1.463 1_556 S
C982 N986 1.427 . S
C983 H973 0.929 . S
C983 C981 1.433 . S
C983 N986 1.384 . S
C984 H975 0.929 . S
C984 C976 1.378 . S
C984 C979 1.350 . S
C985 H972 0.929 . S
C985 C977 1.433 . S
C985 N987 1.384 . S
N986 C982 1.427 . S
N986 C983 1.384 . S
N987 C979 1.427 . S
N987 C985 1.384 . S
H988 C994 0.930 . S
H989 C998 0.930 . S
H990 C1003 0.929 . S
H991 C1001 0.929 . S
H992 C996 0.929 . S
H993 C1002 0.929 . S
C994 H988 0.930 . S
C994 C995 1.367 . S
C994 C1002 1.378 . S
C995 C994 1.367 . S
C995 C1003 1.433 . S
C996 H992 0.929 . S
C996 C998 1.378 . S
C996 C1000 1.350 . S
C997 C1000 1.463 1_554 S
C997 C1002 1.350 . S
C997 N1005 1.427 . S
C998 H989 0.930 . S
C998 C996 1.378 . S
C998 C999 1.367 . S
C999 C998 1.367 . S
C999 C1001 1.433 . S
C1000 C996 1.350 . S
C1000 C997 1.463 1_556 S
C1000 N1004 1.427 . S
C1001 H991 0.929 . S
C1001 C999 1.433 . S
C1001 N1004 1.384 . S
C1002 H993 0.929 . S
C1002 C994 1.378 . S
C1002 C997 1.350 . S
C1003 H990 0.929 . S
C1003 C995 1.433 . S
C1003 N1005 1.384 . S
N1004 C1000 1.427 . S
N1004 C1001 1.384 . S
N1005 C997 1.427 . S
N1005 C1003 1.384 . S
H1006 C1012 0.930 . S
H1007 C1016 0.930 . S
H1008 C1021 0.929 . S
H1009 C1019 0.929 . S
H1010 C1014 0.929 . S
H1011 C1020 0.929 . S
C1012 H1006 0.930 . S
C1012 C1013 1.367 . S
C1012 C1020 1.378 . S
C1013 C1012 1.367 . S
C1013 C1021 1.433 . S
C1014 H1010 0.929 . S
C1014 C1016 1.378 . S
C1014 C1018 1.350 . S
C1015 C1018 1.463 1_556 S
C1015 C1020 1.350 . S
C1015 N1023 1.427 . S
C1016 H1007 0.930 . S
C1016 C1014 1.378 . S
C1016 C1017 1.367 . S
C1017 C1016 1.367 . S
C1017 C1019 1.433 . S
C1018 C1014 1.350 . S
C1018 C1015 1.463 1_554 S
C1018 N1022 1.427 . S
C1019 H1009 0.929 . S
C1019 C1017 1.433 . S
C1019 N1022 1.384 . S
C1020 H1011 0.929 . S
C1020 C1012 1.378 . S
C1020 C1015 1.350 . S
C1021 H1008 0.929 . S
C1021 C1013 1.433 . S
C1021 N1023 1.384 . S
N1022 C1018 1.427 . S
N1022 C1019 1.384 . S
N1023 C1015 1.427 . S
N1023 C1021 1.384 . S
H1024 C1030 0.930 . S
H1025 C1034 0.930 . S
H1026 C1039 0.929 . S
H1027 C1037 0.929 . S
H1028 C1032 0.929 . S
H1029 C1038 0.929 . S
C1030 H1024 0.930 . S
C1030 C1031 1.367 . S
C1030 C1038 1.378 . S
C1031 C1030 1.367 . S
C1031 C1039 1.433 . S
C1032 H1028 0.929 . S
C1032 C1034 1.378 . S
C1032 C1036 1.350 . S
C1033 C1036 1.463 1_545 S
C1033 C1038 1.350 . S
C1033 N1041 1.427 . S
C1034 H1025 0.930 . S
C1034 C1032 1.378 . S
C1034 C1035 1.367 . S
C1035 C1034 1.367 . S
C1035 C1037 1.433 . S
C1036 C1032 1.350 . S
C1036 C1033 1.463 1_565 S
C1036 N1040 1.427 . S
C1037 H1027 0.929 . S
C1037 C1035 1.433 . S
C1037 N1040 1.384 . S
C1038 H1029 0.929 . S
C1038 C1030 1.378 . S
C1038 C1033 1.350 . S
C1039 H1026 0.929 . S
C1039 C1031 1.433 . S
C1039 N1041 1.384 . S
N1040 C1036 1.427 . S
N1040 C1037 1.384 . S
N1041 C1033 1.427 . S
N1041 C1039 1.384 . S
H1042 C1048 0.930 . S
H1043 C1052 0.930 . S
H1044 C1057 0.929 . S
H1045 C1055 0.929 . S
H1046 C1050 0.929 . S
H1047 C1056 0.929 . S
C1048 H1042 0.930 . S
C1048 C1049 1.367 . S
C1048 C1056 1.378 . S
C1049 C1048 1.367 . S
C1049 C1057 1.433 . S
C1050 H1046 0.929 . S
C1050 C1052 1.378 . S
C1050 C1054 1.350 . S
C1051 C1054 1.463 1_655 S
C1051 C1056 1.350 . S
C1051 N1059 1.427 . S
C1052 H1043 0.930 . S
C1052 C1050 1.378 . S
C1052 C1053 1.367 . S
C1053 C1052 1.367 . S
C1053 C1055 1.433 . S
C1054 C1050 1.350 . S
C1054 C1051 1.463 1_455 S
C1054 N1058 1.427 . S
C1055 H1045 0.929 . S
C1055 C1053 1.433 . S
C1055 N1058 1.384 . S
C1056 H1047 0.929 . S
C1056 C1048 1.378 . S
C1056 C1051 1.350 . S
C1057 H1044 0.929 . S
C1057 C1049 1.433 . S
C1057 N1059 1.384 . S
N1058 C1054 1.427 . S
N1058 C1055 1.384 . S
N1059 C1051 1.427 . S
N1059 C1057 1.384 . S
H1060 C1066 0.930 . S
H1061 C1070 0.930 . S
H1062 C1075 0.929 . S
H1063 C1073 0.929 . S
H1064 C1068 0.884 1_545 S
H1065 C1074 0.884 1_565 S
C1066 H1060 0.930 . S
C1066 C1067 1.367 . S
C1066 C1074 1.378 . S
C1067 C1066 1.367 . S
C1067 C1075 1.433 . S
C1068 H1064 0.884 1_565 S
C1068 C1070 1.378 . S
C1068 C1072 1.350 . S
C1069 C1072 1.463 1_545 S
C1069 C1074 1.350 . S
C1069 N1077 1.427 . S
C1070 H1061 0.930 . S
C1070 C1068 1.378 . S
C1070 C1071 1.367 . S
C1071 C1070 1.367 . S
C1071 C1073 1.433 . S
C1072 C1068 1.350 . S
C1072 C1069 1.463 1_565 S
C1072 N1076 1.427 . S
C1073 H1063 0.929 . S
C1073 C1071 1.433 . S
C1073 N1076 1.384 . S
C1074 H1065 0.884 1_545 S
C1074 C1066 1.378 . S
C1074 C1069 1.350 . S
C1075 H1062 0.929 . S
C1075 C1067 1.433 . S
C1075 N1077 1.384 . S
N1076 C1072 1.427 . S
N1076 C1073 1.384 . S
N1077 C1069 1.427 . S
N1077 C1075 1.384 . S
H1078 C1084 0.930 . S
H1079 C1088 0.930 . S
H1080 C1093 0.929 . S
H1081 C1091 0.929 . S
H1082 C1086 0.929 . S
H1083 C1092 0.929 . S
C1084 H1078 0.930 . S
C1084 C1085 1.367 . S
C1084 C1092 1.378 . S
C1085 C1084 1.367 . S
C1085 C1093 1.433 . S
C1086 H1082 0.929 . S
C1086 C1088 1.378 . S
C1086 C1090 1.350 . S
C1087 C1090 1.463 1_455 S
C1087 C1092 1.350 . S
C1087 N1095 1.427 . S
C1088 H1079 0.930 . S
C1088 C1086 1.378 . S
C1088 C1089 1.367 . S
C1089 C1088 1.367 . S
C1089 C1091 1.433 . S
C1090 C1086 1.350 . S
C1090 C1087 1.463 1_655 S
C1090 N1094 1.427 . S
C1091 H1081 0.929 . S
C1091 C1089 1.433 . S
C1091 N1094 1.384 . S
C1092 H1083 0.929 . S
C1092 C1084 1.378 . S
C1092 C1087 1.350 . S
C1093 H1080 0.929 . S
C1093 C1085 1.433 . S
C1093 N1095 1.384 . S
N1094 C1090 1.427 . S
N1094 C1091 1.384 . S
N1095 C1087 1.427 . S
N1095 C1093 1.384 . S
H1096 C1102 0.930 . S
H1097 C1106 0.930 . S
H1098 C1111 0.929 . S
H1099 C1109 0.929 . S
H1100 C1104 0.929 1_565 S
H1101 C1110 0.929 1_545 S
C1102 H1096 0.930 . S
C1102 C1103 1.367 . S
C1102 C1110 1.378 . S
C1103 C1102 1.367 . S
C1103 C1111 1.433 . S
C1104 H1100 0.929 1_545 S
C1104 C1106 1.378 . S
C1104 C1108 1.350 . S
C1105 C1108 1.463 1_565 S
C1105 C1110 1.350 . S
C1105 N1113 1.427 . S
C1106 H1097 0.930 . S
C1106 C1104 1.378 . S
C1106 C1107 1.367 . S
C1107 C1106 1.367 . S
C1107 C1109 1.433 . S
C1108 C1104 1.350 . S
C1108 C1105 1.463 1_545 S
C1108 N1112 1.427 . S
C1109 H1099 0.929 . S
C1109 C1107 1.433 . S
C1109 N1112 1.384 . S
C1110 H1101 0.929 1_565 S
C1110 C1102 1.378 . S
C1110 C1105 1.350 . S
C1111 H1098 0.929 . S
C1111 C1103 1.433 . S
C1111 N1113 1.384 . S
N1112 C1108 1.427 . S
N1112 C1109 1.384 . S
N1113 C1105 1.427 . S
N1113 C1111 1.384 . S
H1114 C1120 0.930 . S
H1115 C1124 0.930 . S
H1116 C1129 0.929 . S
H1117 C1127 0.929 . S
H1118 C1122 0.929 . S
H1119 C1128 0.929 . S
C1120 H1114 0.930 . S
C1120 C1121 1.367 . S
C1120 C1128 1.378 . S
C1121 C1120 1.367 . S
C1121 C1129 1.433 . S
C1122 H1118 0.929 . S
C1122 C1124 1.378 . S
C1122 C1126 1.350 . S
C1123 C1126 1.463 1_655 S
C1123 C1128 1.350 . S
C1123 N1131 1.427 . S
C1124 H1115 0.930 . S
C1124 C1122 1.378 . S
C1124 C1125 1.367 . S
C1125 C1124 1.367 . S
C1125 C1127 1.433 . S
C1126 C1122 1.350 . S
C1126 C1123 1.463 1_455 S
C1126 N1130 1.427 . S
C1127 H1117 0.929 . S
C1127 C1125 1.433 . S
C1127 N1130 1.384 . S
C1128 H1119 0.929 . S
C1128 C1120 1.378 . S
C1128 C1123 1.350 . S
C1129 H1116 0.929 . S
C1129 C1121 1.433 . S
C1129 N1131 1.384 . S
N1130 C1126 1.427 . S
N1130 C1127 1.384 . S
N1131 C1123 1.427 . S
N1131 C1129 1.384 . S
H1132 C1138 0.930 . S
H1133 C1142 0.930 . S
H1134 C1147 0.929 . S
H1135 C1145 0.929 . S
H1136 C1140 0.929 . S
H1137 C1146 0.929 . S
C1138 H1132 0.930 . S
C1138 C1139 1.367 . S
C1138 C1146 1.378 . S
C1139 C1138 1.367 . S
C1139 C1147 1.433 . S
C1140 H1136 0.929 . S
C1140 C1142 1.378 . S
C1140 C1144 1.350 . S
C1141 C1144 1.463 1_565 S
C1141 C1146 1.350 . S
C1141 N1149 1.427 . S
C1142 H1133 0.930 . S
C1142 C1140 1.378 . S
C1142 C1143 1.367 . S
C1143 C1142 1.367 . S
C1143 C1145 1.433 . S
C1144 C1140 1.350 . S
C1144 C1141 1.463 1_545 S
C1144 N1148 1.427 . S
C1145 H1135 0.929 . S
C1145 C1143 1.433 . S
C1145 N1148 1.384 . S
C1146 H1137 0.929 . S
C1146 C1138 1.378 . S
C1146 C1141 1.350 . S
C1147 H1134 0.929 . S
C1147 C1139 1.433 . S
C1147 N1149 1.384 . S
N1148 C1144 1.427 . S
N1148 C1145 1.384 . S
N1149 C1141 1.427 . S
N1149 C1147 1.384 . S
H1150 C1156 0.930 . S
H1151 C1160 0.930 . S
H1152 C1165 0.929 . S
H1153 C1163 0.929 . S
H1154 C1158 0.929 1_655 S
H1155 C1164 0.929 1_455 S
C1156 H1150 0.930 . S
C1156 C1157 1.367 . S
C1156 C1164 1.378 . S
C1157 C1156 1.367 . S
C1157 C1165 1.433 . S
C1158 H1154 0.929 1_455 S
C1158 C1160 1.378 . S
C1158 C1162 1.350 . S
C1159 C1162 1.463 1_655 S
C1159 C1164 1.350 . S
C1159 N1167 1.427 . S
C1160 H1151 0.930 . S
C1160 C1158 1.378 . S
C1160 C1161 1.367 . S
C1161 C1160 1.367 . S
C1161 C1163 1.433 . S
C1162 C1158 1.350 . S
C1162 C1159 1.463 1_455 S
C1162 N1166 1.427 . S
C1163 H1153 0.929 . S
C1163 C1161 1.433 . S
C1163 N1166 1.384 . S
C1164 H1155 0.929 1_655 S
C1164 C1156 1.378 . S
C1164 C1159 1.350 . S
C1165 H1152 0.929 . S
C1165 C1157 1.433 . S
C1165 N1167 1.384 . S
N1166 C1162 1.427 . S
N1166 C1163 1.384 . S
N1167 C1159 1.427 . S
N1167 C1165 1.384 . S
H1168 C1174 0.930 . S
H1169 C1178 0.930 . S
H1170 C1183 0.929 . S
H1171 C1181 0.929 . S
H1172 C1176 0.929 . S
H1173 C1182 0.929 . S
C1174 H1168 0.930 . S
C1174 C1175 1.367 . S
C1174 C1182 1.378 . S
C1175 C1174 1.367 . S
C1175 C1183 1.433 . S
C1176 H1172 0.929 . S
C1176 C1178 1.378 . S
C1176 C1180 1.350 . S
C1177 C1180 1.463 . S
C1177 C1182 1.350 . S
C1177 N1185 1.427 . S
C1178 H1169 0.930 . S
C1178 C1176 1.378 . S
C1178 C1179 1.367 . S
C1179 C1178 1.367 . S
C1179 C1181 1.433 . S
C1180 C1176 1.350 . S
C1180 C1177 1.463 . S
C1180 N1184 1.427 . S
C1181 H1171 0.929 . S
C1181 C1179 1.433 . S
C1181 N1184 1.384 . S
C1182 H1173 0.929 . S
C1182 C1174 1.378 . S
C1182 C1177 1.350 . S
C1183 H1170 0.929 . S
C1183 C1175 1.433 . S
C1183 N1185 1.384 . S
N1184 C1180 1.427 . S
N1184 C1181 1.384 . S
N1185 C1177 1.427 . S
N1185 C1183 1.384 . S
H1186 C1192 0.930 . S
H1187 C1196 0.930 . S
H1188 C1201 0.929 . S
H1189 C1199 0.929 . S
H1190 C1194 0.929 . S
H1191 C1200 0.929 . S
C1192 H1186 0.930 . S
C1192 C1193 1.367 . S
C1192 C1200 1.378 . S
C1193 C1192 1.367 . S
C1193 C1201 1.433 . S
C1194 H1190 0.929 . S
C1194 C1196 1.378 . S
C1194 C1198 1.350 . S
C1195 C1198 1.463 . S
C1195 C1200 1.350 . S
C1195 N1203 1.427 . S
C1196 H1187 0.930 . S
C1196 C1194 1.378 . S
C1196 C1197 1.367 . S
C1197 C1196 1.367 . S
C1197 C1199 1.433 . S
C1198 C1194 1.350 . S
C1198 C1195 1.463 . S
C1198 N1202 1.427 . S
C1199 H1189 0.929 . S
C1199 C1197 1.433 . S
C1199 N1202 1.384 . S
C1200 H1191 0.929 . S
C1200 C1192 1.378 . S
C1200 C1195 1.350 . S
C1201 H1188 0.929 . S
C1201 C1193 1.433 . S
C1201 N1203 1.384 . S
N1202 C1198 1.427 . S
N1202 C1199 1.384 . S
N1203 C1195 1.427 . S
N1203 C1201 1.384 . S
H1204 C1210 0.930 . S
H1205 C1214 0.930 . S
H1206 C1219 0.929 . S
H1207 C1217 0.929 . S
H1208 C1212 0.929 . S
H1209 C1218 0.929 . S
C1210 H1204 0.930 . S
C1210 C1211 1.367 . S
C1210 C1218 1.378 . S
C1211 C1210 1.367 . S
C1211 C1219 1.433 . S
C1212 H1208 0.929 . S
C1212 C1214 1.378 . S
C1212 C1216 1.350 . S
C1213 C1216 1.463 . S
C1213 C1218 1.350 . S
C1213 N1221 1.427 . S
C1214 H1205 0.930 . S
C1214 C1212 1.378 . S
C1214 C1215 1.367 . S
C1215 C1214 1.367 . S
C1215 C1217 1.433 . S
C1216 C1212 1.350 . S
C1216 C1213 1.463 . S
C1216 N1220 1.427 . S
C1217 H1207 0.929 . S
C1217 C1215 1.433 . S
C1217 N1220 1.384 . S
C1218 H1209 0.929 . S
C1218 C1210 1.378 . S
C1218 C1213 1.350 . S
C1219 H1206 0.929 . S
C1219 C1211 1.433 . S
C1219 N1221 1.384 . S
N1220 C1216 1.427 . S
N1220 C1217 1.384 . S
N1221 C1213 1.427 . S
N1221 C1219 1.384 . S
H1222 C1228 0.930 . S
H1223 C1232 0.930 . S
H1224 C1237 0.929 . S
H1225 C1235 0.929 . S
H1226 C1230 0.929 . S
H1227 C1236 0.929 . S
C1228 H1222 0.930 . S
C1228 C1229 1.367 . S
C1228 C1236 1.378 . S
C1229 C1228 1.367 . S
C1229 C1237 1.433 . S
C1230 H1226 0.929 . S
C1230 C1232 1.378 . S
C1230 C1234 1.350 . S
C1231 C1234 1.463 . S
C1231 C1236 1.350 . S
C1231 N1239 1.427 . S
C1232 H1223 0.930 . S
C1232 C1230 1.378 . S
C1232 C1233 1.367 . S
C1233 C1232 1.367 . S
C1233 C1235 1.433 . S
C1234 C1230 1.350 . S
C1234 C1231 1.463 . S
C1234 N1238 1.427 . S
C1235 H1225 0.929 . S
C1235 C1233 1.433 . S
C1235 N1238 1.384 . S
C1236 H1227 0.929 . S
C1236 C1228 1.378 . S
C1236 C1231 1.350 . S
C1237 H1224 0.929 . S
C1237 C1229 1.433 . S
C1237 N1239 1.384 . S
N1238 C1234 1.427 . S
N1238 C1235 1.384 . S
N1239 C1231 1.427 . S
N1239 C1237 1.384 . S
H1240 C1246 0.930 . S
H1241 C1250 0.930 . S
H1242 C1255 0.929 . S
H1243 C1253 0.929 . S
H1244 C1248 0.929 . S
H1245 C1254 0.929 . S
C1246 H1240 0.930 . S
C1246 C1247 1.367 . S
C1246 C1254 1.378 . S
C1247 C1246 1.367 . S
C1247 C1255 1.433 . S
C1248 H1244 0.929 . S
C1248 C1250 1.378 . S
C1248 C1252 1.350 . S
C1249 C1252 1.463 . S
C1249 C1254 1.350 . S
C1249 N1257 1.427 . S
C1250 H1241 0.930 . S
C1250 C1248 1.378 . S
C1250 C1251 1.367 . S
C1251 C1250 1.367 . S
C1251 C1253 1.433 . S
C1252 C1248 1.350 . S
C1252 C1249 1.463 . S
C1252 N1256 1.427 . S
C1253 H1243 0.929 . S
C1253 C1251 1.433 . S
C1253 N1256 1.384 . S
C1254 H1245 0.929 . S
C1254 C1246 1.378 . S
C1254 C1249 1.350 . S
C1255 H1242 0.929 . S
C1255 C1247 1.433 . S
C1255 N1257 1.384 . S
N1256 C1252 1.427 . S
N1256 C1253 1.384 . S
N1257 C1249 1.427 . S
N1257 C1255 1.384 . S
H1258 C1264 0.930 . S
H1259 C1268 0.930 . S
H1260 C1273 0.929 . S
H1261 C1271 0.929 . S
H1262 C1266 0.929 . S
H1263 C1272 0.929 . S
C1264 H1258 0.930 . S
C1264 C1265 1.367 . S
C1264 C1272 1.378 . S
C1265 C1264 1.367 . S
C1265 C1273 1.433 . S
C1266 H1262 0.929 . S
C1266 C1268 1.378 . S
C1266 C1270 1.350 . S
C1267 C1270 1.463 . S
C1267 C1272 1.350 . S
C1267 N1275 1.427 . S
C1268 H1259 0.930 . S
C1268 C1266 1.378 . S
C1268 C1269 1.367 . S
C1269 C1268 1.367 . S
C1269 C1271 1.433 . S
C1270 C1266 1.350 . S
C1270 C1267 1.463 . S
C1270 N1274 1.427 . S
C1271 H1261 0.929 . S
C1271 C1269 1.433 . S
C1271 N1274 1.384 . S
C1272 H1263 0.929 . S
C1272 C1264 1.378 . S
C1272 C1267 1.350 . S
C1273 H1260 0.929 . S
C1273 C1265 1.433 . S
C1273 N1275 1.384 . S
N1274 C1270 1.427 . S
N1274 C1271 1.384 . S
N1275 C1267 1.427 . S
N1275 C1273 1.384 . S
H1276 C1282 0.930 . S
H1277 C1286 0.930 . S
H1278 C1291 0.929 . S
H1279 C1289 0.929 . S
H1280 C1284 0.929 . S
H1281 C1290 0.929 . S
C1282 H1276 0.930 . S
C1282 C1283 1.367 . S
C1282 C1290 1.378 . S
C1283 C1282 1.367 . S
C1283 C1291 1.433 . S
C1284 H1280 0.929 . S
C1284 C1286 1.378 . S
C1284 C1288 1.350 . S
C1285 C1288 1.463 . S
C1285 C1290 1.350 . S
C1285 N1293 1.427 . S
C1286 H1277 0.930 . S
C1286 C1284 1.378 . S
C1286 C1287 1.367 . S
C1287 C1286 1.367 . S
C1287 C1289 1.433 . S
C1288 C1284 1.350 . S
C1288 C1285 1.463 . S
C1288 N1292 1.427 . S
C1289 H1279 0.929 . S
C1289 C1287 1.433 . S
C1289 N1292 1.384 . S
C1290 H1281 0.929 . S
C1290 C1282 1.378 . S
C1290 C1285 1.350 . S
C1291 H1278 0.929 . S
C1291 C1283 1.433 . S
C1291 N1293 1.384 . S
N1292 C1288 1.427 . S
N1292 C1289 1.384 . S
N1293 C1285 1.427 . S
N1293 C1291 1.384 . S
H1294 C1300 0.930 . S
H1295 C1304 0.930 . S
H1296 C1309 0.929 . S
H1297 C1307 0.929 . S
H1298 C1302 0.929 . S
H1299 C1308 0.929 . S
C1300 H1294 0.930 . S
C1300 C1301 1.367 . S
C1300 C1308 1.378 . S
C1301 C1300 1.367 . S
C1301 C1309 1.433 . S
C1302 H1298 0.929 . S
C1302 C1304 1.378 . S
C1302 C1306 1.350 . S
C1303 C1306 1.463 . S
C1303 C1308 1.350 . S
C1303 N1311 1.427 . S
C1304 H1295 0.930 . S
C1304 C1302 1.378 . S
C1304 C1305 1.367 . S
C1305 C1304 1.367 . S
C1305 C1307 1.433 . S
C1306 C1302 1.350 . S
C1306 C1303 1.463 . S
C1306 N1310 1.427 . S
C1307 H1297 0.929 . S
C1307 C1305 1.433 . S
C1307 N1310 1.384 . S
C1308 H1299 0.929 . S
C1308 C1300 1.378 . S
C1308 C1303 1.350 . S
C1309 H1296 0.929 . S
C1309 C1301 1.433 . S
C1309 N1311 1.384 . S
N1310 C1306 1.427 . S
N1310 C1307 1.384 . S
N1311 C1303 1.427 . S
N1311 C1309 1.384 . S
H1312 C1318 0.930 . S
H1313 C1322 0.930 . S
H1314 C1327 0.929 . S
H1315 C1325 0.929 . S
H1316 C1320 0.929 . S
H1317 C1326 0.929 . S
C1318 H1312 0.930 . S
C1318 C1319 1.367 . S
C1318 C1326 1.378 . S
C1319 C1318 1.367 . S
C1319 C1327 1.433 . S
C1320 H1316 0.929 . S
C1320 C1322 1.378 . S
C1320 C1324 1.350 . S
C1321 C1324 1.463 . S
C1321 C1326 1.350 . S
C1321 N1329 1.427 . S
C1322 H1313 0.930 . S
C1322 C1320 1.378 . S
C1322 C1323 1.367 . S
C1323 C1322 1.367 . S
C1323 C1325 1.433 . S
C1324 C1320 1.350 . S
C1324 C1321 1.463 . S
C1324 N1328 1.427 . S
C1325 H1315 0.929 . S
C1325 C1323 1.433 . S
C1325 N1328 1.384 . S
C1326 H1317 0.929 . S
C1326 C1318 1.378 . S
C1326 C1321 1.350 . S
C1327 H1314 0.929 . S
C1327 C1319 1.433 . S
C1327 N1329 1.384 . S
N1328 C1324 1.427 . S
N1328 C1325 1.384 . S
N1329 C1321 1.427 . S
N1329 C1327 1.384 . S
H1330 C1336 0.930 . S
H1331 C1340 0.930 . S
H1332 C1345 0.929 . S
H1333 C1343 0.929 . S
H1334 C1338 0.929 . S
H1335 C1344 0.929 . S
C1336 H1330 0.930 . S
C1336 C1337 1.367 . S
C1336 C1344 1.378 . S
C1337 C1336 1.367 . S
C1337 C1345 1.433 . S
C1338 H1334 0.929 . S
C1338 C1340 1.378 . S
C1338 C1342 1.350 . S
C1339 C1342 1.463 . S
C1339 C1344 1.350 . S
C1339 N1347 1.427 . S
C1340 H1331 0.930 . S
C1340 C1338 1.378 . S
C1340 C1341 1.367 . S
C1341 C1340 1.367 . S
C1341 C1343 1.433 . S
C1342 C1338 1.350 . S
C1342 C1339 1.463 . S
C1342 N1346 1.427 . S
C1343 H1333 0.929 . S
C1343 C1341 1.433 . S
C1343 N1346 1.384 . S
C1344 H1335 0.929 . S
C1344 C1336 1.378 . S
C1344 C1339 1.350 . S
C1345 H1332 0.929 . S
C1345 C1337 1.433 . S
C1345 N1347 1.384 . S
N1346 C1342 1.427 . S
N1346 C1343 1.384 . S
N1347 C1339 1.427 . S
N1347 C1345 1.384 . S
H1348 C1354 0.930 . S
H1349 C1358 0.930 . S
H1350 C1363 0.929 . S
H1351 C1361 0.929 . S
H1352 C1356 0.929 . S
H1353 C1362 0.929 . S
C1354 H1348 0.930 . S
C1354 C1355 1.367 . S
C1354 C1362 1.378 . S
C1355 C1354 1.367 . S
C1355 C1363 1.433 . S
C1356 H1352 0.929 . S
C1356 C1358 1.378 . S
C1356 C1360 1.350 . S
C1357 C1360 1.463 . S
C1357 C1362 1.350 . S
C1357 N1365 1.427 . S
C1358 H1349 0.930 . S
C1358 C1356 1.378 . S
C1358 C1359 1.367 . S
C1359 C1358 1.367 . S
C1359 C1361 1.433 . S
C1360 C1356 1.350 . S
C1360 C1357 1.463 . S
C1360 N1364 1.427 . S
C1361 H1351 0.929 . S
C1361 C1359 1.433 . S
C1361 N1364 1.384 . S
C1362 H1353 0.929 . S
C1362 C1354 1.378 . S
C1362 C1357 1.350 . S
C1363 H1350 0.929 . S
C1363 C1355 1.433 . S
C1363 N1365 1.384 . S
N1364 C1360 1.427 . S
N1364 C1361 1.384 . S
N1365 C1357 1.427 . S
N1365 C1363 1.384 . S
H1366 C1372 0.930 . S
H1367 C1376 0.930 . S
H1368 C1381 0.929 . S
H1369 C1379 0.929 . S
H1370 C1374 0.929 . S
H1371 C1380 0.929 . S
C1372 H1366 0.930 . S
C1372 C1373 1.367 . S
C1372 C1380 1.378 . S
C1373 C1372 1.367 . S
C1373 C1381 1.433 . S
C1374 H1370 0.929 . S
C1374 C1376 1.378 . S
C1374 C1378 1.350 . S
C1375 C1378 1.463 . S
C1375 C1380 1.350 . S
C1375 N1383 1.427 . S
C1376 H1367 0.930 . S
C1376 C1374 1.378 . S
C1376 C1377 1.367 . S
C1377 C1376 1.367 . S
C1377 C1379 1.433 . S
C1378 C1374 1.350 . S
C1378 C1375 1.463 . S
C1378 N1382 1.427 . S
C1379 H1369 0.929 . S
C1379 C1377 1.433 . S
C1379 N1382 1.384 . S
C1380 H1371 0.929 . S
C1380 C1372 1.378 . S
C1380 C1375 1.350 . S
C1381 H1368 0.929 . S
C1381 C1373 1.433 . S
C1381 N1383 1.384 . S
N1382 C1378 1.427 . S
N1382 C1379 1.384 . S
N1383 C1375 1.427 . S
N1383 C1381 1.384 . S
H1384 C1390 0.930 . S
H1385 C1394 0.930 . S
H1386 C1399 0.929 . S
H1387 C1397 0.929 . S
H1388 C1392 0.929 . S
H1389 C1398 0.929 . S
C1390 H1384 0.930 . S
C1390 C1391 1.367 . S
C1390 C1398 1.378 . S
C1391 C1390 1.367 . S
C1391 C1399 1.433 . S
C1392 H1388 0.929 . S
C1392 C1394 1.378 . S
C1392 C1396 1.350 . S
C1393 C1396 1.463 . S
C1393 C1398 1.350 . S
C1393 N1401 1.427 . S
C1394 H1385 0.930 . S
C1394 C1392 1.378 . S
C1394 C1395 1.367 . S
C1395 C1394 1.367 . S
C1395 C1397 1.433 . S
C1396 C1392 1.350 . S
C1396 C1393 1.463 . S
C1396 N1400 1.427 . S
C1397 H1387 0.929 . S
C1397 C1395 1.433 . S
C1397 N1400 1.384 . S
C1398 H1389 0.929 . S
C1398 C1390 1.378 . S
C1398 C1393 1.350 . S
C1399 H1386 0.929 . S
C1399 C1391 1.433 . S
C1399 N1401 1.384 . S
N1400 C1396 1.427 . S
N1400 C1397 1.384 . S
N1401 C1393 1.427 . S
N1401 C1399 1.384 . S
H1402 C1408 0.930 . S
H1403 C1412 0.930 . S
H1404 C1417 0.929 . S
H1405 C1415 0.929 . S
H1406 C1410 0.929 . S
H1407 C1416 0.929 . S
C1408 H1402 0.930 . S
C1408 C1409 1.367 . S
C1408 C1416 1.378 . S
C1409 C1408 1.367 . S
C1409 C1417 1.433 . S
C1410 H1406 0.929 . S
C1410 C1412 1.378 . S
C1410 C1414 1.350 . S
C1411 C1414 1.463 . S
C1411 C1416 1.350 . S
C1411 N1419 1.427 . S
C1412 H1403 0.930 . S
C1412 C1410 1.378 . S
C1412 C1413 1.367 . S
C1413 C1412 1.367 . S
C1413 C1415 1.433 . S
C1414 C1410 1.350 . S
C1414 C1411 1.463 . S
C1414 N1418 1.427 . S
C1415 H1405 0.929 . S
C1415 C1413 1.433 . S
C1415 N1418 1.384 . S
C1416 H1407 0.929 . S
C1416 C1408 1.378 . S
C1416 C1411 1.350 . S
C1417 H1404 0.929 . S
C1417 C1409 1.433 . S
C1417 N1419 1.384 . S
N1418 C1414 1.427 . S
N1418 C1415 1.384 . S
N1419 C1411 1.427 . S
N1419 C1417 1.384 . S
H1420 C1426 0.930 . S
H1421 C1430 0.930 . S
H1422 C1435 0.929 . S
H1423 C1433 0.929 . S
H1424 C1428 0.929 . S
H1425 C1434 0.929 . S
C1426 H1420 0.930 . S
C1426 C1427 1.367 . S
C1426 C1434 1.378 . S
C1427 C1426 1.367 . S
C1427 C1435 1.433 . S
C1428 H1424 0.929 . S
C1428 C1430 1.378 . S
C1428 C1432 1.350 . S
C1429 C1432 1.463 . S
C1429 C1434 1.350 . S
C1429 N1437 1.427 . S
C1430 H1421 0.930 . S
C1430 C1428 1.378 . S
C1430 C1431 1.367 . S
C1431 C1430 1.367 . S
C1431 C1433 1.433 . S
C1432 C1428 1.350 . S
C1432 C1429 1.463 . S
C1432 N1436 1.427 . S
C1433 H1423 0.929 . S
C1433 C1431 1.433 . S
C1433 N1436 1.384 . S
C1434 H1425 0.929 . S
C1434 C1426 1.378 . S
C1434 C1429 1.350 . S
C1435 H1422 0.929 . S
C1435 C1427 1.433 . S
C1435 N1437 1.384 . S
N1436 C1432 1.427 . S
N1436 C1433 1.384 . S
N1437 C1429 1.427 . S
N1437 C1435 1.384 . S
H1438 C1444 0.930 . S
H1439 C1448 0.930 . S
H1440 C1453 0.929 . S
H1441 C1451 0.929 . S
H1442 C1446 0.929 . S
H1443 C1452 0.929 . S
C1444 H1438 0.930 . S
C1444 C1445 1.367 . S
C1444 C1452 1.378 . S
C1445 C1444 1.367 . S
C1445 C1453 1.433 . S
C1446 H1442 0.929 . S
C1446 C1448 1.378 . S
C1446 C1450 1.350 . S
C1447 C1450 1.463 . S
C1447 C1452 1.350 . S
C1447 N1455 1.427 . S
C1448 H1439 0.930 . S
C1448 C1446 1.378 . S
C1448 C1449 1.367 . S
C1449 C1448 1.367 . S
C1449 C1451 1.433 . S
C1450 C1446 1.350 . S
C1450 C1447 1.463 . S
C1450 N1454 1.427 . S
C1451 H1441 0.929 . S
C1451 C1449 1.433 . S
C1451 N1454 1.384 . S
C1452 H1443 0.929 . S
C1452 C1444 1.378 . S
C1452 C1447 1.350 . S
C1453 H1440 0.929 . S
C1453 C1445 1.433 . S
C1453 N1455 1.384 . S
N1454 C1450 1.427 . S
N1454 C1451 1.384 . S
N1455 C1447 1.427 . S
N1455 C1453 1.384 . S
H1456 C1462 0.930 . S
H1457 C1466 0.930 . S
H1458 C1471 0.929 . S
H1459 C1469 0.929 . S
H1460 C1464 0.929 . S
H1461 C1470 0.929 . S
C1462 H1456 0.930 . S
C1462 C1463 1.367 . S
C1462 C1470 1.378 . S
C1463 C1462 1.367 . S
C1463 C1471 1.433 . S
C1464 H1460 0.929 . S
C1464 C1466 1.378 . S
C1464 C1468 1.350 . S
C1465 C1468 1.463 . S
C1465 C1470 1.350 . S
C1465 N1473 1.427 . S
C1466 H1457 0.930 . S
C1466 C1464 1.378 . S
C1466 C1467 1.367 . S
C1467 C1466 1.367 . S
C1467 C1469 1.433 . S
C1468 C1464 1.350 . S
C1468 C1465 1.463 . S
C1468 N1472 1.427 . S
C1469 H1459 0.929 . S
C1469 C1467 1.433 . S
C1469 N1472 1.384 . S
C1470 H1461 0.929 . S
C1470 C1462 1.378 . S
C1470 C1465 1.350 . S
C1471 H1458 0.929 . S
C1471 C1463 1.433 . S
C1471 N1473 1.384 . S
N1472 C1468 1.427 . S
N1472 C1469 1.384 . S
N1473 C1465 1.427 . S
N1473 C1471 1.384 . S
H1474 C1480 0.930 . S
H1475 C1484 0.930 . S
H1476 C1489 0.929 . S
H1477 C1487 0.929 . S
H1478 C1482 0.929 . S
H1479 C1488 0.929 . S
C1480 H1474 0.930 . S
C1480 C1481 1.367 . S
C1480 C1488 1.378 . S
C1481 C1480 1.367 . S
C1481 C1489 1.433 . S
C1482 H1478 0.929 . S
C1482 C1484 1.378 . S
C1482 C1486 1.350 . S
C1483 C1486 1.463 . S
C1483 C1488 1.350 . S
C1483 N1491 1.427 . S
C1484 H1475 0.930 . S
C1484 C1482 1.378 . S
C1484 C1485 1.367 . S
C1485 C1484 1.367 . S
C1485 C1487 1.433 . S
C1486 C1482 1.350 . S
C1486 C1483 1.463 . S
C1486 N1490 1.427 . S
C1487 H1477 0.929 . S
C1487 C1485 1.433 . S
C1487 N1490 1.384 . S
C1488 H1479 0.929 . S
C1488 C1480 1.378 . S
C1488 C1483 1.350 . S
C1489 H1476 0.929 . S
C1489 C1481 1.433 . S
C1489 N1491 1.384 . S
N1490 C1486 1.427 . S
N1490 C1487 1.384 . S
N1491 C1483 1.427 . S
N1491 C1489 1.384 . S
H1492 C1498 0.930 . S
H1493 C1502 0.930 . S
H1494 C1507 0.929 . S
H1495 C1505 0.929 . S
H1496 C1500 0.929 . S
H1497 C1506 0.929 . S
C1498 H1492 0.930 . S
C1498 C1499 1.367 . S
C1498 C1506 1.378 . S
C1499 C1498 1.367 . S
C1499 C1507 1.433 . S
C1500 H1496 0.929 . S
C1500 C1502 1.378 . S
C1500 C1504 1.350 . S
C1501 C1504 1.463 . S
C1501 C1506 1.350 . S
C1501 N1509 1.427 . S
C1502 H1493 0.930 . S
C1502 C1500 1.378 . S
C1502 C1503 1.367 . S
C1503 C1502 1.367 . S
C1503 C1505 1.433 . S
C1504 C1500 1.350 . S
C1504 C1501 1.463 . S
C1504 N1508 1.427 . S
C1505 H1495 0.929 . S
C1505 C1503 1.433 . S
C1505 N1508 1.384 . S
C1506 H1497 0.929 . S
C1506 C1498 1.378 . S
C1506 C1501 1.350 . S
C1507 H1494 0.929 . S
C1507 C1499 1.433 . S
C1507 N1509 1.384 . S
N1508 C1504 1.427 . S
N1508 C1505 1.384 . S
N1509 C1501 1.427 . S
N1509 C1507 1.384 . S
H1510 C1516 0.930 . S
H1511 C1520 0.930 . S
H1512 C1525 0.929 . S
H1513 C1523 0.929 . S
H1514 C1518 0.929 . S
H1515 C1524 0.929 . S
C1516 H1510 0.930 . S
C1516 C1517 1.367 . S
C1516 C1524 1.378 . S
C1517 C1516 1.367 . S
C1517 C1525 1.433 . S
C1518 H1514 0.929 . S
C1518 C1520 1.378 . S
C1518 C1522 1.350 . S
C1519 C1522 1.463 . S
C1519 C1524 1.350 . S
C1519 N1527 1.427 . S
C1520 H1511 0.930 . S
C1520 C1518 1.378 . S
C1520 C1521 1.367 . S
C1521 C1520 1.367 . S
C1521 C1523 1.433 . S
C1522 C1518 1.350 . S
C1522 C1519 1.463 . S
C1522 N1526 1.427 . S
C1523 H1513 0.929 . S
C1523 C1521 1.433 . S
C1523 N1526 1.384 . S
C1524 H1515 0.929 . S
C1524 C1516 1.378 . S
C1524 C1519 1.350 . S
C1525 H1512 0.929 . S
C1525 C1517 1.433 . S
C1525 N1527 1.384 . S
N1526 C1522 1.427 . S
N1526 C1523 1.384 . S
N1527 C1519 1.427 . S
N1527 C1525 1.384 . S
H1528 C1534 0.930 . S
H1529 C1538 0.930 . S
H1530 C1543 0.929 . S
H1531 C1541 0.929 . S
H1532 C1536 0.929 . S
H1533 C1542 0.929 . S
C1534 H1528 0.930 . S
C1534 C1535 1.367 . S
C1534 C1542 1.378 . S
C1535 C1534 1.367 . S
C1535 C1543 1.433 . S
C1536 H1532 0.929 . S
C1536 C1538 1.378 . S
C1536 C1540 1.350 . S
C1537 C1540 1.463 . S
C1537 C1542 1.350 . S
C1537 N1545 1.427 . S
C1538 H1529 0.930 . S
C1538 C1536 1.378 . S
C1538 C1539 1.367 . S
C1539 C1538 1.367 . S
C1539 C1541 1.433 . S
C1540 C1536 1.350 . S
C1540 C1537 1.463 . S
C1540 N1544 1.427 . S
C1541 H1531 0.929 . S
C1541 C1539 1.433 . S
C1541 N1544 1.384 . S
C1542 H1533 0.929 . S
C1542 C1534 1.378 . S
C1542 C1537 1.350 . S
C1543 H1530 0.929 . S
C1543 C1535 1.433 . S
C1543 N1545 1.384 . S
N1544 C1540 1.427 . S
N1544 C1541 1.384 . S
N1545 C1537 1.427 . S
N1545 C1543 1.384 . S
H1546 C1552 0.930 . S
H1547 C1556 0.930 . S
H1548 C1561 0.929 . S
H1549 C1559 0.929 . S
H1550 C1554 0.929 . S
H1551 C1560 0.929 . S
C1552 H1546 0.930 . S
C1552 C1553 1.367 . S
C1552 C1560 1.378 . S
C1553 C1552 1.367 . S
C1553 C1561 1.433 . S
C1554 H1550 0.929 . S
C1554 C1556 1.378 . S
C1554 C1558 1.350 . S
C1555 C1558 1.463 . S
C1555 C1560 1.350 . S
C1555 N1563 1.427 . S
C1556 H1547 0.930 . S
C1556 C1554 1.378 . S
C1556 C1557 1.367 . S
C1557 C1556 1.367 . S
C1557 C1559 1.433 . S
C1558 C1554 1.350 . S
C1558 C1555 1.463 . S
C1558 N1562 1.427 . S
C1559 H1549 0.929 . S
C1559 C1557 1.433 . S
C1559 N1562 1.384 . S
C1560 H1551 0.929 . S
C1560 C1552 1.378 . S
C1560 C1555 1.350 . S
C1561 H1548 0.929 . S
C1561 C1553 1.433 . S
C1561 N1563 1.384 . S
N1562 C1558 1.427 . S
N1562 C1559 1.384 . S
N1563 C1555 1.427 . S
N1563 C1561 1.384 . S
H1564 C1570 0.930 . S
H1565 C1574 0.930 . S
H1566 C1579 0.929 . S
H1567 C1577 0.929 . S
H1568 C1572 0.929 . S
H1569 C1578 0.929 . S
C1570 H1564 0.930 . S
C1570 C1571 1.367 . S
C1570 C1578 1.378 . S
C1571 C1570 1.367 . S
C1571 C1579 1.433 . S
C1572 H1568 0.929 . S
C1572 C1574 1.378 . S
C1572 C1576 1.350 . S
C1573 C1576 1.463 . S
C1573 C1578 1.350 . S
C1573 N1581 1.427 . S
C1574 H1565 0.930 . S
C1574 C1572 1.378 . S
C1574 C1575 1.367 . S
C1575 C1574 1.367 . S
C1575 C1577 1.433 . S
C1576 C1572 1.350 . S
C1576 C1573 1.463 . S
C1576 N1580 1.427 . S
C1577 H1567 0.929 . S
C1577 C1575 1.433 . S
C1577 N1580 1.384 . S
C1578 H1569 0.929 . S
C1578 C1570 1.378 . S
C1578 C1573 1.350 . S
C1579 H1566 0.929 . S
C1579 C1571 1.433 . S
C1579 N1581 1.384 . S
N1580 C1576 1.427 . S
N1580 C1577 1.384 . S
N1581 C1573 1.427 . S
N1581 C1579 1.384 . S
H1582 C1588 0.930 . S
H1583 C1592 0.930 . S
H1584 C1597 0.929 . S
H1585 C1595 0.929 . S
H1586 C1590 0.929 . S
H1587 C1596 0.929 . S
C1588 H1582 0.930 . S
C1588 C1589 1.367 . S
C1588 C1596 1.378 . S
C1589 C1588 1.367 . S
C1589 C1597 1.433 . S
C1590 H1586 0.929 . S
C1590 C1592 1.378 . S
C1590 C1594 1.350 . S
C1591 C1594 1.463 . S
C1591 C1596 1.350 . S
C1591 N1599 1.427 . S
C1592 H1583 0.930 . S
C1592 C1590 1.378 . S
C1592 C1593 1.367 . S
C1593 C1592 1.367 . S
C1593 C1595 1.433 . S
C1594 C1590 1.350 . S
C1594 C1591 1.463 . S
C1594 N1598 1.427 . S
C1595 H1585 0.929 . S
C1595 C1593 1.433 . S
C1595 N1598 1.384 . S
C1596 H1587 0.929 . S
C1596 C1588 1.378 . S
C1596 C1591 1.350 . S
C1597 H1584 0.929 . S
C1597 C1589 1.433 . S
C1597 N1599 1.384 . S
N1598 C1594 1.427 . S
N1598 C1595 1.384 . S
N1599 C1591 1.427 . S
N1599 C1597 1.384 . S
C455 C415 1.563 . S
C459 C9 1.561 . S
C473 C23 1.558 . S
C477 C429 1.566 . S
C491 C443 1.565 . S
C495 C37 1.559 . S
C509 C401 1.562 . S
C513 C51 1.562 . S
C527 C65 1.559 . S
C531 C387 1.565 . S
C545 C345 1.561 . S
C549 C79 1.563 . S
C563 C93 1.558 . S
C567 C359 1.566 . S
C581 C373 1.562 . S
C585 C107 1.562 . S
C599 C121 1.561 . S
C603 C303 1.563 . S
C617 C135 1.561 . S
C621 C317 1.563 . S
C635 C331 1.564 . S
C639 C149 1.560 . S
C653 C163 1.562 . S
C657 C289 1.563 . S
C671 C275 1.558 . S
C675 C177 1.566 . S
C689 C233 1.566 . S
C693 C191 1.558 . S
C707 C205 1.560 . S
C711 C247 1.564 . S
C725 C219 1.566 . S
C729 C261 1.558 . S
C743 C3 1.404 . S
C747 C143 1.399 . S
C761 C157 1.400 . S
C765 C17 1.404 . S
C779 C115 1.404 . S
C783 C31 1.399 . S
C797 C129 1.404 . S
C801 C45 1.399 . S
C815 C59 1.404 . S
C819 C199 1.399 . S
C833 C213 1.402 . S
C837 C73 1.401 . S
C851 C171 1.401 . S
C855 C87 1.402 . S
C869 C185 1.402 . S
C873 C101 1.401 . S
C887 C227 1.399 . S
C891 C367 1.404 . S
C905 C381 1.399 . S
C909 C241 1.404 . S
C923 C339 1.404 . S
C927 C255 1.399 . S
C941 C269 1.403 . S
C945 C353 1.400 . S
C959 C283 1.403 . S
C963 C423 1.400 . S
C977 C437 1.404 . S
C981 C297 1.399 . S
C995 C395 1.402 . S
C999 C311 1.402 . S
C1013 C325 1.404 . S
C1017 C409 1.399 . S
C1031 C8 1.519 . S
C1035 C64 1.516 . S
C1049 C22 1.516 . S
C1053 C78 1.519 . S
C1067 C92 1.519 . S
C1071 C36 1.522 . S
C1085 C50 1.517 . S
C1089 C106 1.521 . S
C1103 C120 1.520 . S
C1107 C176 1.522 . S
C1121 C190 1.516 . S
C1125 C134 1.519 . S
C1139 C204 1.516 . S
C1143 C148 1.518 . S
C1157 C162 1.520 . S
C1161 C218 1.522 . S
C1175 C232 1.518 . S
C1179 C288 1.516 . S
C1193 C302 1.517 . S
C1197 C246 1.522 . S
C1211 C260 1.518 . S
C1215 C316 1.516 . S
C1229 C330 1.521 . S
C1233 C274 1.517 . S
C1247 C400 1.516 . S
C1251 C344 1.518 . S
C1265 C358 1.517 . S
C1269 C414 1.521 . S
C1283 C372 1.521 . S
C1287 C428 1.521 . S
C1301 C386 1.518 . S
C1305 C442 1.522 . S
C1319 C7 1.344 . S
C1323 C77 1.340 . S
C1337 C21 1.336 . S
C1341 C91 1.328 . S
C1355 C105 1.333 . S
C1359 C35 1.343 . S
C1373 C63 1.344 . S
C1377 C49 1.340 . S
C1391 C189 1.328 . S
C1395 C119 1.333 . S
C1409 C203 1.328 . S
C1413 C133 1.337 . S
C1427 C217 1.331 . S
C1431 C147 1.329 . S
C1445 C161 1.344 . S
C1449 C175 1.336 . S
C1463 C231 1.332 . S
C1467 C301 1.329 . S
C1481 C315 1.328 . S
C1485 C245 1.333 . S
C1499 C329 1.336 . S
C1503 C259 1.328 . S
C1517 C273 1.334 . S
C1521 C287 1.328 . S
C1535 C413 1.328 . S
C1539 C343 1.337 . S
C1553 C357 1.338 . S
C1557 C427 1.345 . S
C1571 C371 1.331 . S
C1575 C441 1.341 . S
C1589 C399 1.329 . S
C1593 C385 1.337 . S
