# Generated by pormake.
# Topology soi, (5)-cn, num edge types: 1
# Building blocks:
#     Node 0, Type 0, BuildingBlock: XOMCOT_clean_sbu_0, # of connection points: 5
#     Node 1, Type 0, BuildingBlock: XOMCOT_clean_sbu_0, # of connection points: 5
#     Node 2, Type 0, BuildingBlock: XOMCOT_clean_sbu_0, # of connection points: 5
#     Node 3, Type 0, BuildingBlock: XOMCOT_clean_sbu_0, # of connection points: 5
#     Node 4, Type 0, BuildingBlock: XOMCOT_clean_sbu_0, # of connection points: 5
#     Node 5, Type 0, BuildingBlock: XOMCOT_clean_sbu_0, # of connection points: 5
#     Node 6, Type 0, BuildingBlock: XOMCOT_clean_sbu_0, # of connection points: 5
#     Node 7, Type 0, BuildingBlock: XOMCOT_clean_sbu_0, # of connection points: 5
#     Node 8, Type 0, BuildingBlock: XOMCOT_clean_sbu_0, # of connection points: 5
#     Node 9, Type 0, BuildingBlock: XOMCOT_clean_sbu_0, # of connection points: 5
#     Node 10, Type 0, BuildingBlock: XOMCOT_clean_sbu_0, # of connection points: 5
#     Node 11, Type 0, BuildingBlock: XOMCOT_clean_sbu_0, # of connection points: 5
#     Node 12, Type 0, BuildingBlock: XOMCOT_clean_sbu_0, # of connection points: 5
#     Node 13, Type 0, BuildingBlock: XOMCOT_clean_sbu_0, # of connection points: 5
#     Node 14, Type 0, BuildingBlock: XOMCOT_clean_sbu_0, # of connection points: 5
#     Node 15, Type 0, BuildingBlock: XOMCOT_clean_sbu_0, # of connection points: 5
#     Edge 16, Type (0, 0), BuildingBlock: AJUNOK_clean_linker_0, # of connection points: 2
#     Edge 17, Type (0, 0), BuildingBlock: AJUNOK_clean_linker_0, # of connection points: 2
#     Edge 18, Type (0, 0), BuildingBlock: AJUNOK_clean_linker_0, # of connection points: 2
#     Edge 19, Type (0, 0), BuildingBlock: AJUNOK_clean_linker_0, # of connection points: 2
#     Edge 20, Type (0, 0), BuildingBlock: AJUNOK_clean_linker_0, # of connection points: 2
#     Edge 21, Type (0, 0), BuildingBlock: AJUNOK_clean_linker_0, # of connection points: 2
#     Edge 22, Type (0, 0), BuildingBlock: AJUNOK_clean_linker_0, # of connection points: 2
#     Edge 23, Type (0, 0), BuildingBlock: AJUNOK_clean_linker_0, # of connection points: 2
#     Edge 24, Type (0, 0), BuildingBlock: AJUNOK_clean_linker_0, # of connection points: 2
#     Edge 25, Type (0, 0), BuildingBlock: AJUNOK_clean_linker_0, # of connection points: 2
#     Edge 26, Type (0, 0), BuildingBlock: AJUNOK_clean_linker_0, # of connection points: 2
#     Edge 27, Type (0, 0), BuildingBlock: AJUNOK_clean_linker_0, # of connection points: 2
#     Edge 28, Type (0, 0), BuildingBlock: AJUNOK_clean_linker_0, # of connection points: 2
#     Edge 29, Type (0, 0), BuildingBlock: AJUNOK_clean_linker_0, # of connection points: 2
#     Edge 30, Type (0, 0), BuildingBlock: AJUNOK_clean_linker_0, # of connection points: 2
#     Edge 31, Type (0, 0), BuildingBlock: AJUNOK_clean_linker_0, # of connection points: 2
#     Edge 32, Type (0, 0), BuildingBlock: AJUNOK_clean_linker_0, # of connection points: 2
#     Edge 33, Type (0, 0), BuildingBlock: AJUNOK_clean_linker_0, # of connection points: 2
#     Edge 34, Type (0, 0), BuildingBlock: AJUNOK_clean_linker_0, # of connection points: 2
#     Edge 35, Type (0, 0), BuildingBlock: AJUNOK_clean_linker_0, # of connection points: 2
#     Edge 36, Type (0, 0), BuildingBlock: AJUNOK_clean_linker_0, # of connection points: 2
#     Edge 37, Type (0, 0), BuildingBlock: AJUNOK_clean_linker_0, # of connection points: 2
#     Edge 38, Type (0, 0), BuildingBlock: AJUNOK_clean_linker_0, # of connection points: 2
#     Edge 39, Type (0, 0), BuildingBlock: AJUNOK_clean_linker_0, # of connection points: 2
#     Edge 40, Type (0, 0), BuildingBlock: AJUNOK_clean_linker_0, # of connection points: 2
#     Edge 41, Type (0, 0), BuildingBlock: AJUNOK_clean_linker_0, # of connection points: 2
#     Edge 42, Type (0, 0), BuildingBlock: AJUNOK_clean_linker_0, # of connection points: 2
#     Edge 43, Type (0, 0), BuildingBlock: AJUNOK_clean_linker_0, # of connection points: 2
#     Edge 44, Type (0, 0), BuildingBlock: AJUNOK_clean_linker_0, # of connection points: 2
#     Edge 45, Type (0, 0), BuildingBlock: AJUNOK_clean_linker_0, # of connection points: 2
#     Edge 46, Type (0, 0), BuildingBlock: AJUNOK_clean_linker_0, # of connection points: 2
#     Edge 47, Type (0, 0), BuildingBlock: AJUNOK_clean_linker_0, # of connection points: 2
#     Edge 48, Type (0, 0), BuildingBlock: AJUNOK_clean_linker_0, # of connection points: 2
#     Edge 49, Type (0, 0), BuildingBlock: AJUNOK_clean_linker_0, # of connection points: 2
#     Edge 50, Type (0, 0), BuildingBlock: AJUNOK_clean_linker_0, # of connection points: 2
#     Edge 51, Type (0, 0), BuildingBlock: AJUNOK_clean_linker_0, # of connection points: 2
#     Edge 52, Type (0, 0), BuildingBlock: AJUNOK_clean_linker_0, # of connection points: 2
#     Edge 53, Type (0, 0), BuildingBlock: AJUNOK_clean_linker_0, # of connection points: 2
#     Edge 54, Type (0, 0), BuildingBlock: AJUNOK_clean_linker_0, # of connection points: 2
#     Edge 55, Type (0, 0), BuildingBlock: AJUNOK_clean_linker_0, # of connection points: 2
# Relax obj value: 0.105
# Max RMSD: 0.163
# Mean RMSD: 0.163
data_MOF--net-soi--node1-XOMCOT_clean_sbu_0--edge1-AJUNOK_clean_linker_0
_symmetry_space_group_name_H-M    P1
_symmetry_Int_Tables_number       1
_symmetry_cell_setting            triclinic
loop_
_symmetry_equiv_pos_as_xyz
'x, y, z'
_cell_length_a     37.998158
_cell_length_b     19.238058
_cell_length_c     51.673396
_cell_angle_alpha  90.264229
_cell_angle_beta   90.148866
_cell_angle_gamma 89.999002
loop_
_atom_site_label
_atom_site_type_symbol
_atom_site_fract_x
_atom_site_fract_y
_atom_site_fract_z
_atom_type_partial_charge
Co0 Co 0.32459 0.09914 0.15396 0.0
C1 C 0.32168 0.05416 0.20942 0.0
C2 C 0.3237 0.16489 0.20587 0.0
C3 C 0.32278 0.14841 0.23173 0.0
N4 N 0.32322 0.10584 0.19171 0.0
N5 N 0.32101 0.07866 0.23405 0.0
H6 H 0.32064 -0.00043 0.2045 0.0
H7 H 0.32472 0.21689 0.19816 0.0
C8 C 0.30685 0.23988 0.13376 0.0
O9 O 0.32958 0.23154 0.1149 0.0
N10 N 0.32529 0.09189 0.11618 0.0
C11 C 0.35281 0.08011 0.10028 0.0
C12 C 0.34104 0.0795 0.07506 0.0
C13 C 0.29707 0.09699 0.10022 0.0
N14 N 0.30601 0.09057 0.07494 0.0
C15 C 0.40013 0.08434 0.15338 0.0
C16 C 0.41612 0.22265 0.16208 0.0
C17 C 0.44363 0.17526 0.15901 0.0
C18 C 0.43543 0.1052 0.15462 0.0
C19 C 0.38137 0.19994 0.16031 0.0
N20 N 0.37345 0.13181 0.15518 0.0
H21 H 0.39427 0.02999 0.15033 0.0
H22 H 0.36125 0.23802 0.16367 0.0
H23 H 0.37974 0.07265 0.10613 0.0
H24 H 0.27052 0.10482 0.10711 0.0
O25 O 0.33154 -0.0006 0.15571 0.0
O26 O 0.27997 0.05371 0.15415 0.0
O27 O 0.3044 0.1948 0.15163 0.0
C28 C 0.29724 -0.00428 0.15516 0.0
H29 H 0.32417 0.18549 0.24748 0.0
H30 H 0.35723 0.07235 0.05805 0.0
H31 H 0.42142 0.27721 0.16565 0.0
H32 H 0.45611 0.06687 0.15244 0.0
Co33 Co 0.7022 0.37587 0.14835 0.0
C34 C 0.69262 0.42104 0.20405 0.0
C35 C 0.74267 0.37435 0.19634 0.0
C36 C 0.74273 0.39842 0.22138 0.0
N37 N 0.71113 0.38742 0.18539 0.0
N38 N 0.71135 0.42824 0.22634 0.0
H39 H 0.66653 0.44133 0.20133 0.0
H40 H 0.76486 0.35158 0.18633 0.0
C41 C 0.72351 0.2358 0.16631 0.0
O42 O 0.70221 0.24259 0.18616 0.0
N43 N 0.69527 0.36583 0.11136 0.0
C44 C 0.66595 0.37933 0.09757 0.0
C45 C 0.6742 0.37724 0.0716 0.0
C46 C 0.72089 0.35609 0.09367 0.0
N47 N 0.70893 0.36372 0.06919 0.0
C48 C 0.62862 0.37844 0.16252 0.0
C49 C 0.61429 0.24305 0.1477 0.0
C50 C 0.58688 0.28363 0.15767 0.0
C51 C 0.5943 0.35262 0.16483 0.0
C52 C 0.64794 0.27113 0.1454 0.0
N53 N 0.65534 0.33698 0.15391 0.0
H54 H 0.63332 0.43271 0.16656 0.0
H55 H 0.66766 0.24017 0.13579 0.0
H56 H 0.64065 0.39254 0.10576 0.0
H57 H 0.74824 0.34791 0.09873 0.0
O58 O 0.69109 0.4739 0.14565 0.0
O59 O 0.74427 0.42628 0.14168 0.0
O60 O 0.72502 0.28249 0.149 0.0
C61 C 0.72462 0.48128 0.14097 0.0
H62 H 0.76497 0.39723 0.23451 0.0
H63 H 0.65603 0.38619 0.05582 0.0
H64 H 0.60972 0.19015 0.14126 0.0
H65 H 0.57358 0.38721 0.17125 0.0
Co66 Co 0.31239 0.88074 0.40508 0.0
C67 C 0.32236 0.92371 0.35004 0.0
C68 C 0.28766 0.8367 0.35293 0.0
C69 C 0.28877 0.85708 0.32746 0.0
N70 N 0.30993 0.87644 0.36715 0.0
N71 N 0.31053 0.91183 0.32577 0.0
H72 H 0.33751 0.96916 0.35533 0.0
H73 H 0.2695 0.79894 0.36063 0.0
C74 C 0.30661 0.72993 0.39487 0.0
O75 O 0.33303 0.73586 0.37866 0.0
N76 N 0.31327 0.8876 0.44259 0.0
C77 C 0.33985 0.91262 0.45718 0.0
C78 C 0.32928 0.91475 0.4826 0.0
C79 C 0.28654 0.87642 0.45929 0.0
N80 N 0.29549 0.89319 0.48398 0.0
C81 C 0.38635 0.88407 0.39092 0.0
C82 C 0.40525 0.77034 0.42045 0.0
C83 C 0.43026 0.79997 0.40405 0.0
C84 C 0.4208 0.85859 0.3896 0.0
C85 C 0.37122 0.79712 0.42107 0.0
N86 N 0.36156 0.85118 0.40547 0.0
H87 H 0.37987 0.93039 0.3804 0.0
H88 H 0.35225 0.77318 0.43378 0.0
H89 H 0.36513 0.929 0.44983 0.0
H90 H 0.26071 0.85884 0.45331 0.0
O91 O 0.31777 0.98015 0.40331 0.0
O92 O 0.267 0.92232 0.40471 0.0
O93 O 0.29581 0.7826 0.40759 0.0
C94 C 0.28339 0.98133 0.40326 0.0
H95 H 0.27271 0.83698 0.31179 0.0
H96 H 0.3456 0.93058 0.49874 0.0
H97 H 0.41173 0.72589 0.43234 0.0
H98 H 0.43992 0.88487 0.3776 0.0
Co99 Co 0.6897 0.6072 0.40104 0.0
C100 C 0.6902 0.55839 0.34576 0.0
C101 C 0.68325 0.66857 0.34898 0.0
C102 C 0.68336 0.65073 0.32316 0.0
N103 N 0.68795 0.61091 0.36328 0.0
N104 N 0.68737 0.58122 0.32105 0.0
H105 H 0.69351 0.50436 0.35085 0.0
H106 H 0.67987 0.72035 0.35667 0.0
C107 C 0.71837 0.7466 0.41884 0.0
O108 O 0.71467 0.7315 0.44334 0.0
N109 N 0.69115 0.60058 0.43881 0.0
C110 C 0.66378 0.59019 0.45494 0.0
C111 C 0.67628 0.5838 0.47987 0.0
C112 C 0.72004 0.59607 0.45415 0.0
N113 N 0.71167 0.58848 0.47941 0.0
C114 C 0.61598 0.60027 0.38895 0.0
C115 C 0.59751 0.72097 0.41493 0.0
C116 C 0.57158 0.68446 0.40129 0.0
C117 C 0.58099 0.62315 0.38821 0.0
C118 C 0.63198 0.69674 0.41501 0.0
N119 N 0.64097 0.63735 0.40206 0.0
H120 H 0.62323 0.55317 0.37878 0.0
H121 H 0.65116 0.72531 0.42604 0.0
H122 H 0.6365 0.58639 0.44914 0.0
H123 H 0.74664 0.59972 0.44693 0.0
O124 O 0.68438 0.50696 0.40041 0.0
O125 O 0.73491 0.56526 0.3994 0.0
O126 O 0.70718 0.70632 0.40091 0.0
C127 C 0.71881 0.50595 0.40043 0.0
H128 H 0.68166 0.68694 0.30727 0.0
H129 H 0.66045 0.57711 0.49706 0.0
H130 H 0.59124 0.76838 0.42534 0.0
H131 H 0.5615 0.593 0.37774 0.0
Co132 Co 0.69693 0.87381 0.89803 0.0
C133 C 0.68861 0.92118 0.84338 0.0
C134 C 0.72318 0.83339 0.84645 0.0
C135 C 0.72134 0.85281 0.8209 0.0
N136 N 0.70262 0.87604 0.86062 0.0
N137 N 0.69982 0.90823 0.81892 0.0
H138 H 0.67081 0.96272 0.84868 0.0
H139 H 0.73923 0.79187 0.85405 0.0
C140 C 0.71051 0.72737 0.91378 0.0
O141 O 0.68449 0.73052 0.93044 0.0
N142 N 0.69255 0.87171 0.93588 0.0
C143 C 0.664 0.87976 0.95115 0.0
C144 C 0.67449 0.8806 0.97668 0.0
C145 C 0.71991 0.86715 0.95269 0.0
N146 N 0.70976 0.87382 0.97767 0.0
C147 C 0.62164 0.88635 0.89749 0.0
C148 C 0.60757 0.75325 0.88006 0.0
C149 C 0.57941 0.79581 0.88756 0.0
C150 C 0.58675 0.86388 0.89574 0.0
C151 C 0.64204 0.77767 0.88236 0.0
N152 N 0.64882 0.84173 0.89276 0.0
H153 H 0.62682 0.93871 0.90408 0.0
H154 H 0.66314 0.74468 0.87572 0.0
H155 H 0.63719 0.88518 0.94484 0.0
H156 H 0.74701 0.86136 0.94668 0.0
O157 O 0.68923 0.97316 0.89865 0.0
O158 O 0.74111 0.92002 0.90218 0.0
O159 O 0.71664 0.77775 0.89861 0.0
C160 C 0.72316 0.97731 0.90198 0.0
H161 H 0.73593 0.82961 0.8051 0.0
H162 H 0.65724 0.88547 0.99321 0.0
H163 H 0.603 0.70128 0.87262 0.0
H164 H 0.56591 0.89879 0.90167 0.0
Co165 Co 0.32307 0.58903 0.90209 0.0
C166 C 0.31879 0.54152 0.84667 0.0
C167 C 0.32394 0.65208 0.85026 0.0
C168 C 0.32255 0.63522 0.82436 0.0
N169 N 0.32122 0.59353 0.86438 0.0
N170 N 0.31915 0.56574 0.82212 0.0
H171 H 0.31701 0.48697 0.85139 0.0
H172 H 0.32771 0.70357 0.85818 0.0
C173 C 0.28854 0.72209 0.9213 0.0
O174 O 0.29516 0.70813 0.94558 0.0
N175 N 0.32514 0.58288 0.93983 0.0
C176 C 0.3538 0.58747 0.95524 0.0
C177 C 0.34332 0.58394 0.98071 0.0
C178 C 0.29789 0.57227 0.95625 0.0
N179 N 0.30813 0.5754 0.98129 0.0
C180 C 0.39559 0.59125 0.88872 0.0
C181 C 0.41081 0.72283 0.90741 0.0
C182 C 0.43732 0.68461 0.89507 0.0
C183 C 0.42953 0.6178 0.88587 0.0
C184 C 0.37725 0.69412 0.91007 0.0
N185 N 0.36994 0.62918 0.90067 0.0
H186 H 0.38967 0.54037 0.88093 0.0
H187 H 0.35758 0.72397 0.92009 0.0
H188 H 0.38056 0.59391 0.94867 0.0
H189 H 0.27071 0.56824 0.95011 0.0
O190 O 0.33507 0.49168 0.90079 0.0
O191 O 0.28087 0.5346 0.90225 0.0
O192 O 0.29983 0.68358 0.9029 0.0
C193 C 0.30127 0.48038 0.90163 0.0
H194 H 0.32511 0.67113 0.80841 0.0
H195 H 0.36019 0.5885 0.99755 0.0
H196 H 0.4161 0.77412 0.91524 0.0
H197 H 0.44936 0.58681 0.87617 0.0
Co198 Co 0.69429 0.09206 0.64474 0.0
C199 C 0.68654 0.04798 0.70005 0.0
C200 C 0.72485 0.1288 0.69509 0.0
C201 C 0.72377 0.11154 0.72082 0.0
N202 N 0.70138 0.08955 0.682 0.0
N203 N 0.69958 0.06107 0.72407 0.0
H204 H 0.66711 0.00846 0.69569 0.0
H205 H 0.74255 0.16604 0.68651 0.0
C206 C 0.70539 0.24023 0.62999 0.0
O207 O 0.67882 0.23794 0.61368 0.0
N208 N 0.68901 0.0951 0.60696 0.0
C209 C 0.66098 0.08144 0.59158 0.0
C210 C 0.67104 0.08615 0.56603 0.0
C211 C 0.71575 0.10705 0.59023 0.0
N212 N 0.70548 0.10232 0.56521 0.0
C213 C 0.61869 0.07781 0.64511 0.0
C214 C 0.60468 0.20977 0.66365 0.0
C215 C 0.57662 0.16912 0.65452 0.0
C216 C 0.58381 0.10101 0.64626 0.0
C217 C 0.63906 0.18481 0.66181 0.0
N218 N 0.6459 0.12182 0.65059 0.0
H219 H 0.62393 0.02544 0.63853 0.0
H220 H 0.66012 0.21674 0.66929 0.0
H221 H 0.63507 0.06688 0.5978 0.0
H222 H 0.74242 0.11849 0.5963 0.0
O223 O 0.68839 -0.00782 0.6439 0.0
O224 O 0.73901 0.04934 0.63998 0.0
O225 O 0.71248 0.18889 0.64444 0.0
C226 C 0.72235 -0.00942 0.64018 0.0
H227 H 0.7408 0.13223 0.73581 0.0
H228 H 0.65458 0.0754 0.54936 0.0
H229 H 0.60017 0.26082 0.67192 0.0
H230 H 0.56286 0.06676 0.63989 0.0
Co231 Co 0.31919 0.37506 0.64807 0.0
C232 C 0.31791 0.42672 0.70297 0.0
C233 C 0.32254 0.31586 0.70053 0.0
C234 C 0.32225 0.33494 0.72624 0.0
N235 N 0.31944 0.37327 0.68585 0.0
N236 N 0.31917 0.40468 0.72781 0.0
H237 H 0.31713 0.48078 0.6975 0.0
H238 H 0.32526 0.2635 0.69311 0.0
C239 C 0.26664 0.26609 0.65518 0.0
O240 O 0.24709 0.3155 0.66526 0.0
N241 N 0.31854 0.37591 0.61052 0.0
C242 C 0.34588 0.38536 0.59432 0.0
C243 C 0.33345 0.38518 0.5692 0.0
C244 C 0.28984 0.37136 0.59511 0.0
N245 N 0.29825 0.3769 0.56981 0.0
C246 C 0.39206 0.37079 0.6609 0.0
C247 C 0.40706 0.24505 0.63711 0.0
C248 C 0.43406 0.28089 0.65002 0.0
C249 C 0.42626 0.34448 0.66201 0.0
C250 C 0.37323 0.27359 0.63623 0.0
N251 N 0.36609 0.33537 0.64823 0.0
H252 H 0.38623 0.41963 0.67039 0.0
H253 H 0.35298 0.24678 0.62544 0.0
H254 H 0.37288 0.39331 0.60031 0.0
H255 H 0.26327 0.36518 0.60227 0.0
O256 O 0.33122 0.47278 0.64817 0.0
O257 O 0.27702 0.43044 0.64817 0.0
O258 O 0.29753 0.2803 0.64728 0.0
C259 C 0.29747 0.48452 0.64795 0.0
H260 H 0.32408 0.29999 0.74254 0.0
H261 H 0.34884 0.39319 0.55186 0.0
H262 H 0.41226 0.19616 0.62736 0.0
H263 H 0.44638 0.37335 0.67235 0.0
Co264 Co 0.81457 0.59329 0.64889 0.0
C265 C 0.81848 0.54533 0.70361 0.0
C266 C 0.79709 0.64825 0.70089 0.0
C267 C 0.79854 0.63006 0.72659 0.0
N268 N 0.80971 0.59528 0.68639 0.0
N269 N 0.812 0.56551 0.72826 0.0
H270 H 0.82947 0.49536 0.69836 0.0
H271 H 0.78725 0.697 0.69354 0.0
C272 C 0.80397 0.73851 0.63104 0.0
O273 O 0.82968 0.73074 0.61434 0.0
N274 N 0.81838 0.59108 0.61105 0.0
C275 C 0.84698 0.58573 0.59562 0.0
C276 C 0.83635 0.58584 0.57012 0.0
C277 C 0.7908 0.59392 0.59441 0.0
N278 N 0.80106 0.59105 0.56943 0.0
C279 C 0.88981 0.57554 0.64886 0.0
C280 C 0.90613 0.70796 0.66608 0.0
C281 C 0.93346 0.66306 0.65904 0.0
C282 C 0.92511 0.59563 0.65078 0.0
C283 C 0.87128 0.68619 0.66341 0.0
N284 N 0.8634 0.62218 0.65334 0.0
H285 H 0.88368 0.52332 0.64251 0.0
H286 H 0.85078 0.72119 0.66958 0.0
H287 H 0.87395 0.58254 0.60177 0.0
H288 H 0.76365 0.59897 0.60041 0.0
O289 O 0.82 0.4935 0.64924 0.0
O290 O 0.76938 0.55053 0.64596 0.0
O291 O 0.79675 0.69049 0.64699 0.0
C292 C 0.78588 0.49155 0.6464 0.0
H293 H 0.78951 0.66116 0.74277 0.0
H294 H 0.85327 0.58128 0.55338 0.0
H295 H 0.91163 0.76 0.6731 0.0
H296 H 0.94567 0.559 0.64576 0.0
Co297 Co 0.18942 0.87486 0.65253 0.0
C298 C 0.19342 0.92277 0.70789 0.0
C299 C 0.18814 0.81215 0.70436 0.0
C300 C 0.18962 0.82912 0.73026 0.0
N301 N 0.19089 0.8707 0.69024 0.0
N302 N 0.19306 0.8986 0.73244 0.0
H303 H 0.19533 0.97728 0.70312 0.0
H304 H 0.18457 0.76052 0.69642 0.0
C305 C 0.24246 0.76553 0.65728 0.0
O306 O 0.26288 0.81414 0.66704 0.0
N307 N 0.18834 0.87773 0.61503 0.0
C308 C 0.16033 0.88812 0.59943 0.0
C309 C 0.17163 0.88809 0.57406 0.0
C310 C 0.2163 0.87278 0.59905 0.0
N311 N 0.20677 0.87888 0.57396 0.0
C312 C 0.11697 0.86781 0.66671 0.0
C313 C 0.10243 0.74269 0.64229 0.0
C314 C 0.07569 0.77552 0.65649 0.0
C315 C 0.0832 0.83954 0.66845 0.0
C316 C 0.13569 0.77324 0.64073 0.0
N317 N 0.14274 0.83433 0.65323 0.0
H318 H 0.12262 0.91664 0.67629 0.0
H319 H 0.15564 0.7482 0.62916 0.0
H320 H 0.13364 0.89635 0.606 0.0
H321 H 0.24313 0.86585 0.60563 0.0
O322 O 0.17725 0.97257 0.65361 0.0
O323 O 0.23148 0.93046 0.6521 0.0
O324 O 0.21114 0.78044 0.6505 0.0
C325 C 0.21096 0.98443 0.65243 0.0
H326 H 0.18721 0.7933 0.74625 0.0
H327 H 0.15554 0.89673 0.55705 0.0
H328 H 0.09778 0.69358 0.63254 0.0
H329 H 0.06311 0.86807 0.67885 0.0
Co330 Co 0.81976 0.37211 0.90124 0.0
C331 C 0.81932 0.42552 0.84678 0.0
C332 C 0.81987 0.31428 0.8482 0.0
C333 C 0.82039 0.33431 0.82273 0.0
N334 N 0.81942 0.37133 0.86345 0.0
N335 N 0.82002 0.40434 0.8217 0.0
H336 H 0.81782 0.47916 0.85287 0.0
H337 H 0.81976 0.2612 0.85487 0.0
C338 C 0.80358 0.22752 0.91787 0.0
O339 O 0.82587 0.23382 0.93719 0.0
N340 N 0.81941 0.37291 0.93913 0.0
C341 C 0.84662 0.37543 0.95604 0.0
C342 C 0.83371 0.37288 0.98089 0.0
C343 C 0.79033 0.36973 0.95419 0.0
N344 N 0.79838 0.36969 0.97966 0.0
C345 C 0.89478 0.39003 0.90471 0.0
C346 C 0.91297 0.25425 0.89327 0.0
C347 C 0.93946 0.30152 0.89978 0.0
C348 C 0.93024 0.37047 0.9052 0.0
C349 C 0.87793 0.27553 0.89348 0.0
N350 N 0.8689 0.34203 0.90024 0.0
H351 H 0.88806 0.44329 0.90911 0.0
H352 H 0.85845 0.23775 0.88801 0.0
H353 H 0.87411 0.3776 0.95121 0.0
H354 H 0.7638 0.36562 0.94667 0.0
O355 O 0.82592 0.47192 0.90189 0.0
O356 O 0.77469 0.4163 0.90153 0.0
O357 O 0.80065 0.27543 0.90109 0.0
C358 C 0.79164 0.47473 0.90265 0.0
H359 H 0.82121 0.29954 0.80623 0.0
H360 H 0.84908 0.37375 0.99856 0.0
H361 H 0.91926 0.20077 0.88851 0.0
H362 H 0.95023 0.40872 0.90984 0.0
Co363 Co 0.19509 0.09016 0.90657 0.0
C364 C 0.19545 0.03745 0.85171 0.0
C365 C 0.18883 0.14794 0.85409 0.0
C366 C 0.1887 0.12865 0.82842 0.0
N367 N 0.19343 0.09095 0.8688 0.0
N368 N 0.193 0.05915 0.82686 0.0
H369 H 0.1975 0.98357 0.85727 0.0
H370 H 0.18543 0.20016 0.86151 0.0
C371 C 0.24656 0.19922 0.89736 0.0
O372 O 0.26583 0.15019 0.88674 0.0
N373 N 0.19671 0.09023 0.94412 0.0
C374 C 0.16966 0.07737 0.96024 0.0
C375 C 0.1817 0.08067 0.98539 0.0
C376 C 0.22503 0.09972 0.95964 0.0
N377 N 0.21644 0.09466 0.98496 0.0
C378 C 0.12156 0.09534 0.89523 0.0
C379 C 0.109 0.22264 0.91867 0.0
C380 C 0.08113 0.18838 0.90614 0.0
C381 C 0.08774 0.12368 0.89442 0.0
C382 C 0.14226 0.19201 0.91936 0.0
N383 N 0.14829 0.12982 0.90735 0.0
H384 H 0.12654 0.04591 0.8859 0.0
H385 H 0.16315 0.21823 0.92969 0.0
H386 H 0.14309 0.06533 0.95416 0.0
H387 H 0.25135 0.10955 0.95259 0.0
O388 O 0.18363 -0.00781 0.90731 0.0
O389 O 0.23757 0.03682 0.90577 0.0
O390 O 0.21639 0.18468 0.90646 0.0
C391 C 0.21756 0.98233 0.90678 0.0
H392 H 0.18579 0.16336 0.81213 0.0
H393 H 0.16638 0.07123 1.00266 0.0
H394 H 0.10535 0.27316 0.92759 0.0
H395 H 0.06693 0.09511 0.88475 0.0
Co396 Co 0.19214 0.38195 0.40116 0.0
C397 C 0.18302 0.4192 0.34523 0.0
C398 C 0.21911 0.33515 0.35035 0.0
C399 C 0.21912 0.35339 0.32467 0.0
N400 N 0.19549 0.37453 0.36334 0.0
N401 N 0.19663 0.40661 0.32148 0.0
H402 H 0.1665 0.46339 0.34951 0.0
H403 H 0.23754 0.29953 0.35912 0.0
C404 C 0.19959 0.22964 0.39272 0.0
O405 O 0.17397 0.23102 0.37558 0.0
N406 N 0.19059 0.39079 0.4386 0.0
C407 C 0.16373 0.41455 0.45309 0.0
C408 C 0.17412 0.41578 0.47865 0.0
C409 C 0.21716 0.37915 0.4555 0.0
N410 N 0.20798 0.39455 0.48022 0.0
C411 C 0.11841 0.39255 0.38756 0.0
C412 C 0.09757 0.27467 0.41389 0.0
C413 C 0.07291 0.31014 0.39881 0.0
C414 C 0.08332 0.37082 0.38605 0.0
C415 C 0.13212 0.29872 0.41517 0.0
N416 N 0.14272 0.3546 0.40089 0.0
H417 H 0.12587 0.44014 0.37821 0.0
H418 H 0.15051 0.27181 0.42755 0.0
H419 H 0.13833 0.43019 0.44563 0.0
H420 H 0.24301 0.3616 0.44963 0.0
O421 O 0.18794 0.48165 0.39832 0.0
O422 O 0.23789 0.42143 0.40121 0.0
O423 O 0.20821 0.28418 0.40517 0.0
C424 C 0.22233 0.481 0.39879 0.0
H425 H 0.2366 0.33323 0.30991 0.0
H426 H 0.15753 0.43035 0.49474 0.0
H427 H 0.09012 0.22892 0.42473 0.0
H428 H 0.06464 0.40056 0.37474 0.0
Co429 Co 0.81475 0.10754 0.39594 0.0
C430 C 0.81999 0.04944 0.34239 0.0
C431 C 0.80487 0.15681 0.34204 0.0
C432 C 0.80656 0.13328 0.31686 0.0
N433 N 0.81347 0.10438 0.35817 0.0
N434 N 0.81576 0.06575 0.31717 0.0
H435 H 0.82763 -0.0016 0.34905 0.0
H436 H 0.79749 0.20873 0.34794 0.0
C437 C 0.79924 0.25249 0.41119 0.0
O438 O 0.8245 0.24763 0.42847 0.0
N439 N 0.81496 0.10977 0.43401 0.0
C440 C 0.84235 0.11097 0.45075 0.0
C441 C 0.82979 0.11179 0.47567 0.0
C442 C 0.78605 0.10958 0.4494 0.0
N443 N 0.79437 0.11091 0.47493 0.0
C444 C 0.89037 0.10243 0.40021 0.0
C445 C 0.90289 0.23515 0.38226 0.0
C446 C 0.93119 0.19651 0.39193 0.0
C447 C 0.92478 0.12827 0.40016 0.0
C448 C 0.86895 0.20773 0.38307 0.0
N449 N 0.86263 0.144 0.39371 0.0
H450 H 0.88584 0.05007 0.40689 0.0
H451 H 0.84793 0.2384 0.37504 0.0
H452 H 0.8698 0.11261 0.44591 0.0
H453 H 0.75947 0.10721 0.44195 0.0
O454 O 0.82478 0.00932 0.39737 0.0
O455 O 0.77142 0.05728 0.3967 0.0
O456 O 0.79297 0.20226 0.39571 0.0
C457 C 0.79071 0.00169 0.39766 0.0
H458 H 0.80053 0.16292 0.29965 0.0
H459 H 0.84571 0.11383 0.49306 0.0
H460 H 0.90686 0.28627 0.37407 0.0
H461 H 0.94598 0.09569 0.40715 0.0
Co462 Co 0.20114 0.59589 0.14829 0.0
C463 C 0.19016 0.55617 0.20426 0.0
C464 C 0.23384 0.6246 0.19863 0.0
C465 C 0.23276 0.60671 0.22428 0.0
N466 N 0.20642 0.59522 0.186 0.0
N467 N 0.20523 0.56392 0.22791 0.0
H468 H 0.16925 0.51969 0.20032 0.0
H469 H 0.25467 0.65388 0.18955 0.0
C470 C 0.21494 0.74368 0.16152 0.0
O471 O 0.19011 0.73984 0.17914 0.0
N472 N 0.19799 0.59519 0.11086 0.0
C473 C 0.17151 0.5703 0.09615 0.0
C474 C 0.1827 0.56713 0.07079 0.0
C475 C 0.22487 0.60639 0.09438 0.0
N476 N 0.21635 0.58958 0.06969 0.0
C477 C 0.12698 0.59268 0.16108 0.0
C478 C 0.11038 0.71762 0.13777 0.0
C479 C 0.08365 0.68097 0.1504 0.0
C480 C 0.0922 0.61682 0.16168 0.0
C481 C 0.14452 0.69107 0.13724 0.0
N482 N 0.153 0.63118 0.14998 0.0
H483 H 0.13263 0.5419 0.16869 0.0
H484 H 0.16413 0.71869 0.12624 0.0
H485 H 0.14648 0.55241 0.10349 0.0
H486 H 0.25095 0.62127 0.10078 0.0
O487 O 0.19228 0.49694 0.14839 0.0
O488 O 0.24487 0.54797 0.14569 0.0
O489 O 0.2214 0.69185 0.14688 0.0
C490 C 0.22631 0.4914 0.14579 0.0
H491 H 0.25224 0.62015 0.23879 0.0
H492 H 0.16756 0.54759 0.05454 0.0
H493 H 0.10504 0.76653 0.12824 0.0
H494 H 0.0721 0.58457 0.17031 0.0
Co495 Co 0.82262 0.87313 0.1455 0.0
C496 C 0.8238 0.91794 0.20115 0.0
C497 C 0.81912 0.8075 0.19731 0.0
C498 C 0.81885 0.82436 0.22323 0.0
N499 N 0.82231 0.86614 0.18329 0.0
N500 N 0.82128 0.89404 0.22569 0.0
H501 H 0.8259 0.97243 0.19643 0.0
H502 H 0.81687 0.75557 0.18946 0.0
C503 C 0.80287 0.73331 0.12509 0.0
O504 O 0.82574 0.74047 0.10629 0.0
N505 N 0.82199 0.88071 0.10769 0.0
C506 C 0.84915 0.88623 0.09097 0.0
C507 C 0.83626 0.88669 0.06603 0.0
C508 C 0.7929 0.87916 0.09243 0.0
N509 N 0.80094 0.88247 0.06697 0.0
C510 C 0.89818 0.88236 0.14265 0.0
C511 C 0.91221 0.7446 0.15359 0.0
C512 C 0.94033 0.78965 0.14911 0.0
C513 C 0.93314 0.85938 0.14358 0.0
C514 C 0.87775 0.76929 0.15199 0.0
N515 N 0.87082 0.83703 0.14577 0.0
H516 H 0.89312 0.93658 0.13881 0.0
H517 H 0.85699 0.73339 0.15643 0.0
H518 H 0.87661 0.88853 0.09598 0.0
H519 H 0.76644 0.87318 0.09978 0.0
O520 O 0.83182 0.97189 0.14781 0.0
O521 O 0.77899 0.92225 0.14692 0.0
O522 O 0.8007 0.77896 0.14293 0.0
C523 C 0.79766 0.97854 0.14837 0.0
H524 H 0.81744 0.78757 0.23894 0.0
H525 H 0.85169 0.88997 0.04849 0.0
H526 H 0.91683 0.6905 0.15825 0.0
H527 H 0.95434 0.89594 0.14037 0.0
C528 C 0.24453 0.93006 0.16871 0.0
C529 C 0.27791 0.92993 0.15705 0.0
C530 C 0.22445 0.86946 0.17015 0.0
C531 C 0.23678 0.80676 0.15956 0.0
H532 H 0.23383 0.97742 0.17696 0.0
H533 H 0.19891 0.8721 0.17937 0.0
S534 S 0.3226 0.77942 0.12665 0.0
N535 N 0.32266 0.86254 0.13479 0.0
N536 N 0.28475 0.74804 0.13702 0.0
C537 C 0.27023 0.80591 0.14776 0.0
C538 C 0.29091 0.86766 0.14668 0.0
C539 C 0.73428 0.6068 0.14953 0.0
C540 C 0.74052 0.54788 0.13427 0.0
C541 C 0.75422 0.66715 0.14599 0.0
C542 C 0.7807 0.67051 0.1269 0.0
H543 H 0.71521 0.60512 0.16507 0.0
H544 H 0.7493 0.71088 0.15876 0.0
S545 S 0.80315 0.53143 0.0797 0.0
N546 N 0.77217 0.49731 0.098 0.0
N547 N 0.80935 0.61099 0.09094 0.0
C548 C 0.78554 0.61279 0.11053 0.0
C549 C 0.7655 0.55129 0.11435 0.0
C550 C 0.22822 0.04212 0.39155 0.0
C551 C 0.26316 0.04572 0.40058 0.0
C552 C 0.2078 0.10197 0.38895 0.0
C553 C 0.22148 0.16725 0.39567 0.0
H554 H 0.21655 -0.00733 0.38624 0.0
H555 H 0.18104 0.09691 0.3819 0.0
S556 S 0.31185 0.20458 0.4198 0.0
N557 N 0.31086 0.11943 0.4158 0.0
N558 N 0.27248 0.23253 0.41119 0.0
C559 C 0.25652 0.17166 0.40463 0.0
C560 C 0.27741 0.11067 0.40698 0.0
C561 C 0.74499 0.31623 0.39796 0.0
C562 C 0.77915 0.31743 0.40862 0.0
C563 C 0.72523 0.37737 0.39554 0.0
C564 C 0.73935 0.44163 0.40322 0.0
H565 H 0.73328 0.26761 0.39171 0.0
H566 H 0.69901 0.3744 0.38734 0.0
S567 S 0.82767 0.47261 0.4322 0.0
N568 N 0.82614 0.38802 0.42695 0.0
N569 N 0.78943 0.5029 0.42212 0.0
C570 C 0.77355 0.44347 0.41381 0.0
C571 C 0.79336 0.3813 0.4166 0.0
C572 C 0.74304 0.09328 0.88769 0.0
C573 C 0.74082 0.04311 0.9071 0.0
C574 C 0.76353 0.15289 0.89139 0.0
C575 C 0.7822 0.16411 0.9147 0.0
H576 H 0.72981 0.08534 0.86931 0.0
H577 H 0.76507 0.18984 0.87568 0.0
S578 S 0.78116 0.04983 0.9724 0.0
N579 N 0.75654 0.0091 0.95078 0.0
N580 N 0.79458 0.12176 0.95816 0.0
C581 C 0.779 0.11489 0.93457 0.0
C582 C 0.75838 0.0541 0.93064 0.0
C583 C 0.30896 0.35259 0.89591 0.0
C584 C 0.28669 0.40939 0.90094 0.0
C585 C 0.29568 0.28483 0.89462 0.0
C586 C 0.25971 0.27138 0.89848 0.0
H587 H 0.33685 0.3604 0.89277 0.0
H588 H 0.31387 0.24271 0.89077 0.0
S589 S 0.19022 0.40236 0.91199 0.0
N590 N 0.22686 0.44794 0.90975 0.0
N591 N 0.20189 0.32078 0.90711 0.0
C592 C 0.23713 0.32781 0.90349 0.0
C593 C 0.25063 0.39679 0.90476 0.0
C594 C 0.73159 0.86508 0.64884 0.0
C595 C 0.74179 0.92574 0.63604 0.0
C596 C 0.75193 0.80475 0.64696 0.0
C597 C 0.78289 0.80285 0.63192 0.0
H598 H 0.70842 0.86483 0.66102 0.0
H599 H 0.74333 0.7594 0.65756 0.0
S600 S 0.81864 0.94736 0.59264 0.0
N601 N 0.78328 0.98007 0.60662 0.0
N602 N 0.82131 0.86624 0.60271 0.0
C603 C 0.79253 0.86273 0.61823 0.0
C604 C 0.77203 0.92436 0.62041 0.0
C605 C 0.29178 0.67942 0.65811 0.0
C606 C 0.25576 0.69346 0.6544 0.0
C607 C 0.30515 0.6119 0.65551 0.0
C608 C 0.28301 0.55573 0.64925 0.0
H609 H 0.30992 0.72086 0.66305 0.0
H610 H 0.333 0.60366 0.65881 0.0
S611 S 0.18675 0.56419 0.63719 0.0
N612 N 0.1982 0.64496 0.64398 0.0
N613 N 0.22341 0.51848 0.63891 0.0
C614 C 0.24701 0.56891 0.6453 0.0
C615 C 0.23337 0.63763 0.64791 0.0
C616 C 0.73153 0.42936 0.63276 0.0
C617 C 0.7664 0.42643 0.64208 0.0
C618 C 0.71214 0.36881 0.62814 0.0
C619 C 0.72684 0.30334 0.63296 0.0
H620 H 0.71902 0.47886 0.62891 0.0
H621 H 0.68524 0.37342 0.62135 0.0
S622 S 0.81769 0.26702 0.65601 0.0
N623 N 0.81524 0.35262 0.655 0.0
N624 N 0.77888 0.23848 0.64626 0.0
C625 C 0.76192 0.29952 0.64178 0.0
C626 C 0.7817 0.36118 0.64636 0.0
C627 C 0.21793 0.17984 0.66073 0.0
C628 C 0.25304 0.19384 0.65375 0.0
C629 C 0.20438 0.11213 0.65992 0.0
C630 C 0.22545 0.05569 0.65228 0.0
H631 H 0.20066 0.22144 0.66695 0.0
H632 H 0.17731 0.10392 0.66569 0.0
S633 S 0.31868 0.06392 0.63118 0.0
N634 N 0.30832 0.14503 0.63831 0.0
N635 N 0.28282 0.01812 0.63678 0.0
C636 C 0.26044 0.06879 0.64496 0.0
C637 C 0.27423 0.13774 0.64569 0.0
C638 C 0.7385 0.53911 0.91686 0.0
C639 C 0.77225 0.54027 0.90572 0.0
C640 C 0.71892 0.60009 0.9199 0.0
C641 C 0.73222 0.66418 0.91153 0.0
H642 H 0.7271 0.49068 0.92343 0.0
H643 H 0.69296 0.59668 0.92841 0.0
S644 S 0.81979 0.69511 0.88177 0.0
N645 N 0.81858 0.61051 0.88687 0.0
N646 N 0.78184 0.72561 0.89239 0.0
C647 C 0.76621 0.66615 0.90063 0.0
C648 C 0.78626 0.60404 0.8978 0.0
C649 C 0.2201 0.86343 0.92496 0.0
C650 C 0.23327 0.91298 0.90769 0.0
C651 C 0.23808 0.80092 0.92901 0.0
C652 C 0.26907 0.78563 0.91533 0.0
H653 H 0.1968 0.87444 0.93631 0.0
H654 H 0.22794 0.76463 0.94313 0.0
S655 S 0.31287 0.8967 0.86676 0.0
N656 N 0.27824 0.94211 0.87614 0.0
N657 N 0.31142 0.82336 0.88321 0.0
C658 C 0.28159 0.83342 0.89718 0.0
C659 C 0.26379 0.89762 0.89349 0.0
C660 C 0.23024 0.60776 0.40567 0.0
C661 C 0.24343 0.54428 0.39657 0.0
C662 C 0.2512 0.66738 0.40543 0.0
C663 C 0.28583 0.66553 0.3957 0.0
H664 H 0.20389 0.61108 0.41355 0.0
H665 H 0.23999 0.71536 0.41273 0.0
S666 S 0.33167 0.51192 0.36828 0.0
N667 N 0.29249 0.48281 0.37668 0.0
N668 N 0.3319 0.59518 0.37611 0.0
C669 C 0.29901 0.60245 0.38606 0.0
C670 C 0.27777 0.54167 0.38652 0.0
C671 C 0.78686 0.88788 0.41943 0.0
C672 C 0.77418 0.93377 0.40059 0.0
C673 C 0.76833 0.82722 0.42528 0.0
C674 C 0.73718 0.81017 0.41198 0.0
H675 H 0.81035 0.90037 0.43045 0.0
H676 H 0.77842 0.79347 0.44031 0.0
S677 S 0.69446 0.91185 0.35996 0.0
N678 N 0.72952 0.95787 0.36811 0.0
N679 N 0.6951 0.84245 0.37866 0.0
C680 C 0.72497 0.85446 0.39246 0.0
C681 C 0.74342 0.91685 0.38689 0.0
C682 C 0.2616 0.31149 0.15649 0.0
C683 C 0.28484 0.30297 0.13541 0.0
C684 C 0.24114 0.37149 0.1592 0.0
C685 C 0.24361 0.42496 0.14108 0.0
H686 H 0.25953 0.2721 0.17132 0.0
H687 H 0.22442 0.37727 0.17604 0.0
S688 S 0.29679 0.42646 0.0811 0.0
N689 N 0.30634 0.35153 0.09492 0.0
N690 N 0.26842 0.46501 0.10057 0.0
C691 C 0.26556 0.41658 0.11952 0.0
C692 C 0.28607 0.35528 0.11652 0.0
C693 C 0.731 0.10864 0.17219 0.0
C694 C 0.74397 0.17174 0.16266 0.0
C695 C 0.74873 0.04638 0.16734 0.0
C696 C 0.78037 0.04539 0.15326 0.0
H697 H 0.70652 0.10701 0.18288 0.0
H698 H 0.73761 -0.00137 0.17478 0.0
S699 S 0.82622 0.19704 0.12521 0.0
N700 N 0.79081 0.23007 0.13906 0.0
N701 N 0.82456 0.11249 0.1305 0.0
C702 C 0.7942 0.1082 0.14425 0.0
C703 C 0.77582 0.1716 0.14877 0.0
C704 C 0.29169 0.05465 0.02995 0.0
C705 C 0.28345 0.09376 0.05231 0.0
C706 C 0.2703 0.05669 1.00773 0.0
C707 C 0.2396 0.09727 1.00709 0.0
H708 H 0.31455 0.0211 0.02974 0.0
H709 H 0.27721 0.0248 0.99118 0.0
S710 S 0.20795 0.21511 0.05895 0.0
N711 N 0.24378 0.1793 0.07119 0.0
N712 N 0.20307 0.18082 0.0298 0.0
C713 C 0.23132 0.13761 0.02897 0.0
C714 C 0.25332 0.1364 0.05148 0.0
C715 C 0.78199 0.32271 1.02233 0.0
C716 C 0.77459 0.36645 1.00129 0.0
C717 C 0.76004 0.32114 0.04413 0.0
C718 C 0.72998 0.36375 0.04587 0.0
H719 H 0.80493 0.28934 1.02186 0.0
H720 H 0.7667 0.28628 0.05979 0.0
S721 S 0.70101 0.49201 0.9966 0.0
N722 N 0.73619 0.45527 0.98379 0.0
N723 N 0.69533 0.4541 1.0249 0.0
C724 C 0.7225 0.40824 1.02493 0.0
C725 C 0.74471 0.40914 1.00262 0.0
C726 C 0.24561 0.84193 0.50837 0.0
C727 C 0.27336 0.89047 0.50682 0.0
C728 C 0.22393 0.83826 0.53035 0.0
C729 C 0.22955 0.88208 0.55179 0.0
H730 H 0.24076 0.80601 0.49258 0.0
H731 H 0.20285 0.80041 0.53078 0.0
S732 S 0.29554 0.02284 0.55707 0.0
N733 N 0.30271 -0.01224 0.52833 0.0
N734 N 0.26298 0.97784 0.56982 0.0
C735 C 0.25672 0.93111 0.55056 0.0
C736 C 0.27837 0.93604 0.52805 0.0
C737 C 0.74803 0.55111 0.54592 0.0
C738 C 0.77893 0.59124 0.54672 0.0
C739 C 0.72656 0.54962 0.52375 0.0
C740 C 0.735 0.58864 0.50159 0.0
H741 H 0.74074 0.51985 0.56244 0.0
H742 H 0.70326 0.51725 0.52391 0.0
S743 S 0.81136 0.70778 0.49508 0.0
N744 N 0.81595 0.67385 0.52418 0.0
N745 N 0.7754 0.67245 0.48277 0.0
C746 C 0.76559 0.62998 0.5024 0.0
C747 C 0.78757 0.63097 0.5249 0.0
C748 C 0.76342 0.83702 1.00139 0.0
C749 C 0.73213 0.87621 1.00044 0.0
C750 C 0.7856 0.83897 1.02321 0.0
C751 C 0.77729 0.87975 0.04505 0.0
H752 H 0.77067 0.80406 0.98523 0.0
H753 H 0.80932 0.80779 1.02313 0.0
S754 S 0.70076 -0.00233 0.05157 0.0
N755 N 0.69569 0.96152 1.02276 0.0
N756 N 0.73697 0.96342 0.06381 0.0
C757 C 0.74643 0.91973 0.04431 0.0
C758 C 0.72399 0.91843 1.02202 0.0
C759 C 0.235 0.53611 0.02809 0.0
C760 C 0.23951 0.58729 0.04747 0.0
C761 C 0.25745 0.53245 1.00653 0.0
C762 C 0.28559 0.57914 1.00369 0.0
H763 H 0.21425 0.49788 0.02971 0.0
H764 H 0.25312 0.49227 0.99213 0.0
S765 S 0.30706 0.72671 0.04742 0.0
N766 N 0.27299 0.68875 0.06119 0.0
N767 N 0.31549 0.68071 1.0211 0.0
C768 C 0.29021 0.63098 1.02268 0.0
C769 C 0.26716 0.63527 0.04446 0.0
C770 C 0.76122 0.07673 0.54252 0.0
C771 C 0.72742 0.10629 0.54243 0.0
C772 C 0.78255 0.07781 0.52039 0.0
C773 C 0.7712 0.10922 0.4972 0.0
H774 H 0.77099 0.0513 0.55972 0.0
H775 H 0.80806 0.05296 0.52143 0.0
S776 S 0.68584 0.19964 0.48764 0.0
N777 N 0.68406 0.1708 0.51766 0.0
N778 N 0.72436 0.17444 0.47623 0.0
C779 C 0.73757 0.14009 0.49699 0.0
C780 C 0.71569 0.13831 0.51954 0.0
C781 C 0.28042 0.33843 0.52599 0.0
C782 C 0.27461 0.38008 0.54798 0.0
C783 C 0.25838 0.34287 0.50414 0.0
C784 C 0.23001 0.39018 0.5032 0.0
H785 H 0.30205 0.30178 0.52583 0.0
H786 H 0.26358 0.30864 0.48793 0.0
S787 S 0.20653 0.51628 0.55526 0.0
N788 N 0.23996 0.47213 0.56731 0.0
N789 N 0.19946 0.48346 0.52612 0.0
C790 C 0.22456 0.43327 0.52508 0.0
C791 C 0.24663 0.42752 0.54746 0.0
C792 C 0.33149 0.96925 0.2582 0.0
C793 C 0.31894 0.03831 0.25768 0.0
C794 C 0.32903 0.92847 0.2806 0.0
C795 C 0.31466 0.95551 0.3035 0.0
H796 H 0.34343 0.94635 0.2412 0.0
H797 H 0.33851 0.87539 0.28011 0.0
S798 S 0.27574 0.13009 0.31271 0.0
N799 N 0.28929 0.12958 0.28236 0.0
N800 N 0.28651 0.05336 0.32452 0.0
C801 C 0.30213 0.02395 0.30352 0.0
C802 C 0.30387 0.06527 0.28063 0.0
C803 C 0.71732 0.44336 0.2738 0.0
C804 C 0.70214 0.46427 0.25014 0.0
C805 C 0.71171 0.48063 0.29685 0.0
C806 C 0.69051 0.54059 0.29742 0.0
H807 H 0.73416 0.39803 0.2745 0.0
H808 H 0.72502 0.46331 0.3142 0.0
S809 S 0.64211 0.6148 0.24136 0.0
N810 N 0.66382 0.54817 0.22907 0.0
N811 N 0.65178 0.61584 0.27252 0.0
C812 C 0.67392 0.56058 0.27414 0.0
C813 C 0.67998 0.52298 0.25054 0.0
C814 C 0.69201 0.91366 0.77134 0.0
C815 C 0.69385 0.94782 0.79554 0.0
C816 C 0.69158 0.95097 0.74799 0.0
C817 C 0.6934 0.02395 0.74791 0.0
H818 H 0.69197 0.85742 0.77047 0.0
H819 H 0.6918 0.92243 0.72988 0.0
S820 S 0.69547 0.13875 0.80583 0.0
N821 N 0.69531 0.05931 0.81779 0.0
N822 N 0.69402 0.12923 0.77407 0.0
C823 C 0.69335 0.05883 0.77195 0.0
C824 C 0.69364 0.02089 0.7957 0.0
C825 C 0.33704 0.42369 0.77348 0.0
C826 C 0.31865 0.44614 0.75129 0.0
C827 C 0.33674 0.46246 0.79658 0.0
C828 C 0.31827 0.5256 0.79843 0.0
H829 H 0.35225 0.37616 0.77292 0.0
H830 H 0.35167 0.44358 0.81298 0.0
S831 S 0.26332 0.60488 0.74694 0.0
N832 N 0.27947 0.53382 0.73342 0.0
N833 N 0.2795 0.60703 0.77663 0.0
C834 C 0.29941 0.54837 0.77658 0.0
C835 C 0.29947 0.50865 0.75309 0.0
C836 C 0.80486 0.4178 0.77526 0.0
C837 C 0.819 0.44594 0.79835 0.0
C838 C 0.80358 0.45637 0.75229 0.0
C839 C 0.81581 0.52511 0.75151 0.0
H840 H 0.79403 0.36582 0.77492 0.0
H841 H 0.79198 0.43298 0.73518 0.0
S842 S 0.85779 0.62242 0.80542 0.0
N843 N 0.84788 0.54622 0.81804 0.0
N844 N 0.84403 0.61916 0.7751 0.0
C845 C 0.83035 0.55396 0.77417 0.0
C846 C 0.83224 0.51438 0.79752 0.0
C847 C 0.17439 0.03937 0.78139 0.0
C848 C 0.19354 0.01774 0.80335 0.0
C849 C 0.17475 0.00085 0.75823 0.0
C850 C 0.19399 0.93871 0.75612 0.0
H851 H 0.15854 0.08605 0.78215 0.0
H852 H 0.15926 0.01905 0.742 0.0
S853 S 0.25102 0.86183 0.80685 0.0
N854 N 0.23427 0.93196 0.82064 0.0
N855 N 0.23421 0.85906 0.77736 0.0
C856 C 0.21358 0.91673 0.77772 0.0
C857 C 0.21351 0.95626 0.80126 0.0
C858 C 0.19046 0.4158 0.27399 0.0
C859 C 0.19378 0.44821 0.29838 0.0
C860 C 0.19213 0.45435 0.25095 0.0
C861 C 0.19789 0.52656 0.25148 0.0
H862 H 0.18744 0.35991 0.27278 0.0
H863 H 0.19073 0.42704 0.2326 0.0
S864 S 0.20729 0.63651 0.3103 0.0
N865 N 0.20211 0.55701 0.3216 0.0
N866 N 0.20526 0.62935 0.27846 0.0
C867 C 0.20015 0.55979 0.27577 0.0
C868 C 0.19807 0.52071 0.29918 0.0
C869 C 0.83646 0.04195 0.27275 0.0
C870 C 0.81838 0.02031 0.29499 0.0
C871 C 0.83777 1e-05 0.25045 0.0
C872 C 0.82055 0.93512 0.24931 0.0
H873 H 0.84979 0.0917 0.27269 0.0
H874 H 0.85249 0.01866 0.23398 0.0
S875 S 0.7668 0.85821 0.30205 0.0
N876 N 0.78178 0.93174 0.31444 0.0
N877 N 0.7829 0.85376 0.27243 0.0
C878 C 0.80195 0.91343 0.2715 0.0
C879 C 0.80118 0.95581 0.29433 0.0
C880 C 0.53701 0.2155 0.13807 0.0
C881 C 0.55048 0.25494 0.15893 0.0
C882 C 0.5028 0.18817 0.13858 0.0
C883 C 0.4806 0.19982 0.15984 0.0
H884 H 0.55277 0.20671 0.12093 0.0
H885 H 0.49331 0.15932 0.12191 0.0
S886 S 0.50364 0.29449 0.2202 0.0
N887 N 0.53937 0.30011 0.2022 0.0
N888 N 0.47476 0.25018 0.20279 0.0
C889 C 0.49376 0.23808 0.18098 0.0
C890 C 0.52872 0.26537 0.1806 0.0
C891 C 0.48498 0.75708 0.42559 0.0
C892 C 0.46618 0.7702 0.40265 0.0
C893 C 0.51879 0.72826 0.42492 0.0
C894 C 0.53494 0.7108 0.4013 0.0
H895 H 0.47362 0.76999 0.44421 0.0
H896 H 0.53245 0.71962 0.44305 0.0
S897 S 0.49655 0.73318 0.33584 0.0
N898 N 0.4658 0.76219 0.35569 0.0
N899 N 0.52962 0.7083 0.35443 0.0
C900 C 0.51631 0.7228 0.37823 0.0
C901 C 0.48191 0.75266 0.3789 0.0
C902 C 0.53661 0.70213 0.89906 0.0
C903 C 0.54293 0.76788 0.88813 0.0
C904 C 0.50243 0.67538 0.90099 0.0
C905 C 0.47324 0.71356 0.89226 0.0
H906 H 0.55819 0.67159 0.90669 0.0
H907 H 0.49875 0.62499 0.90986 0.0
S908 S 0.47553 0.8853 0.86007 0.0
N909 N 0.51715 0.86838 0.86686 0.0
N910 N 0.4528 0.81841 0.87095 0.0
C911 C 0.47911 0.77874 0.8809 0.0
C912 C 0.51396 0.80583 0.87873 0.0
C913 C 0.47686 0.1854 0.66008 0.0
C914 C 0.47038 0.25272 0.65069 0.0
C915 C 0.51122 0.15867 0.66138 0.0
C916 C 0.54031 0.19817 0.65317 0.0
H917 H 0.45524 0.15363 0.66685 0.0
H918 H 0.51506 0.10704 0.66917 0.0
S919 S 0.53667 0.37471 0.62445 0.0
N920 N 0.49537 0.35664 0.63164 0.0
N921 N 0.55976 0.30623 0.63347 0.0
C922 C 0.53393 0.26499 0.64314 0.0
C923 C 0.49905 0.29228 0.64204 0.0
C924 C 0.99002 0.68761 0.63639 0.0
C925 C 0.97035 0.68777 0.65938 0.0
C926 C 0.02408 0.71556 0.6357 0.0
C927 C 0.0399 0.74412 0.65804 0.0
H928 H 0.97858 0.66751 0.61864 0.0
H929 H 0.03779 0.71622 0.61735 0.0
S930 S 1.00043 0.74978 0.7237 0.0
N931 N 0.96951 0.71482 0.70528 0.0
N932 N 0.03398 0.76538 0.70432 0.0
C933 C 0.02079 0.74236 0.68136 0.0
C934 C 0.98594 0.71464 0.68195 0.0
C935 C 0.02642 0.21876 0.88143 0.0
C936 C 0.04547 0.22016 0.90485 0.0
C937 C 0.99241 0.24659 0.87978 0.0
C938 C 0.97638 0.27769 0.90139 0.0
H939 H 0.03785 0.19592 0.8642 0.0
H940 H 0.97845 0.24353 0.8615 0.0
S941 S 0.0139 0.29235 0.96741 0.0
N942 N 0.04489 0.25308 0.95042 0.0
N943 N 0.98134 0.30724 0.94695 0.0
C944 C 0.99508 0.28026 0.92482 0.0
C945 C 0.02954 0.2511 0.92664 0.0
C946 C 0.03069 0.21529 0.38748 0.0
C947 C 0.03654 0.28334 0.39654 0.0
C948 C 0.99659 0.18782 0.3858 0.0
C949 C 0.9671 0.22719 0.39338 0.0
H950 H 0.05269 0.18321 0.38151 0.0
H951 H 0.99331 0.13548 0.37837 0.0
S952 S 0.96897 0.40654 0.42036 0.0
N953 N 0.01059 0.38869 0.41402 0.0
N954 N 0.94648 0.33677 0.41166 0.0
C955 C 0.97278 0.2952 0.40279 0.0
C956 C 1.00749 0.32333 0.40418 0.0
C957 C 0.99835 0.76662 0.12808 0.0
C958 C 0.97697 0.76349 0.15015 0.0
C959 C 0.03258 0.7393 0.12829 0.0
C960 C 0.04694 0.70862 0.15071 0.0
H961 H 0.98827 0.78912 0.11036 0.0
H962 H 0.04773 0.74149 0.11059 0.0
S963 S 1.00212 0.69314 0.21421 0.0
N964 N 0.97255 0.72997 0.19523 0.0
N965 N 0.0373 0.68079 0.19606 0.0
C966 C 0.02586 0.70653 0.17308 0.0
C967 C 0.99083 0.73352 0.17271 0.0
loop_
_geom_bond_atom_site_label_1
_geom_bond_atom_site_label_2
_geom_bond_distance
_geom_bond_site_symmetry_2
_ccdc_geom_bond_type
Co0 N4 2.148 . S
Co0 N10 2.128 . S
Co0 N20 2.194 . S
Co0 O25 2.351 . S
Co0 O26 2.155 . S
Co0 O27 2.096 . S
C1 N4 1.301 . S
C1 N5 1.328 . S
C1 H6 0.930 . S
C2 C3 1.333 . S
C2 N4 1.317 . S
C2 H7 0.930 . S
C3 C2 1.333 . S
C3 N5 1.350 . S
C3 H29 0.931 . S
N4 Co0 2.148 . S
N4 C1 1.301 . S
N4 C2 1.317 . S
N5 C1 1.328 . S
N5 C3 1.350 . S
H6 C1 0.930 . S
H7 C2 0.930 . S
C8 O9 1.224 . S
C8 O27 1.247 . S
O9 C8 1.224 . S
N10 Co0 2.128 . S
N10 C11 1.355 . S
N10 C13 1.311 . S
C11 N10 1.355 . S
C11 C12 1.363 . S
C11 H23 0.929 . S
C12 C11 1.363 . S
C12 N14 1.375 . S
C12 H30 0.931 . S
C13 N10 1.311 . S
C13 N14 1.347 . S
C13 H24 0.929 . S
N14 C12 1.375 . S
N14 C13 1.347 . S
C15 C18 1.365 . S
C15 N20 1.328 . S
C15 H21 0.929 . S
C16 C17 1.362 . S
C16 C19 1.378 . S
C16 H31 0.929 . S
C17 C16 1.362 . S
C17 C18 1.366 . S
C18 C15 1.365 . S
C18 C17 1.366 . S
C18 H32 0.930 . S
C19 C16 1.378 . S
C19 N20 1.315 . S
C19 H22 0.930 . S
N20 Co0 2.194 . S
N20 C15 1.328 . S
N20 C19 1.315 . S
H21 C15 0.929 . S
H22 C19 0.930 . S
H23 C11 0.929 . S
H24 C13 0.929 . S
O25 Co0 2.351 . S
O25 C28 1.244 . S
O26 Co0 2.155 . S
O26 C28 1.240 . S
O27 Co0 2.096 . S
O27 C8 1.247 . S
C28 O25 1.244 . S
C28 O26 1.240 . S
H29 C3 0.931 . S
H30 C12 0.931 . S
H31 C16 0.929 . S
H32 C18 0.930 . S
Co33 N37 2.148 . S
Co33 N43 2.128 . S
Co33 N53 2.194 . S
Co33 O58 2.351 . S
Co33 O59 2.155 . S
Co33 O60 2.096 . S
C34 N37 1.301 . S
C34 N38 1.328 . S
C34 H39 0.930 . S
C35 C36 1.333 . S
C35 N37 1.317 . S
C35 H40 0.930 . S
C36 C35 1.333 . S
C36 N38 1.350 . S
C36 H62 0.931 . S
N37 Co33 2.148 . S
N37 C34 1.301 . S
N37 C35 1.317 . S
N38 C34 1.328 . S
N38 C36 1.350 . S
H39 C34 0.930 . S
H40 C35 0.930 . S
C41 O42 1.224 . S
C41 O60 1.247 . S
O42 C41 1.224 . S
N43 Co33 2.128 . S
N43 C44 1.355 . S
N43 C46 1.311 . S
C44 N43 1.355 . S
C44 C45 1.363 . S
C44 H56 0.929 . S
C45 C44 1.363 . S
C45 N47 1.375 . S
C45 H63 0.931 . S
C46 N43 1.311 . S
C46 N47 1.347 . S
C46 H57 0.929 . S
N47 C45 1.375 . S
N47 C46 1.347 . S
C48 C51 1.365 . S
C48 N53 1.328 . S
C48 H54 0.929 . S
C49 C50 1.362 . S
C49 C52 1.378 . S
C49 H64 0.929 . S
C50 C49 1.362 . S
C50 C51 1.366 . S
C51 C48 1.365 . S
C51 C50 1.366 . S
C51 H65 0.930 . S
C52 C49 1.378 . S
C52 N53 1.315 . S
C52 H55 0.930 . S
N53 Co33 2.194 . S
N53 C48 1.328 . S
N53 C52 1.315 . S
H54 C48 0.929 . S
H55 C52 0.930 . S
H56 C44 0.929 . S
H57 C46 0.929 . S
O58 Co33 2.351 . S
O58 C61 1.244 . S
O59 Co33 2.155 . S
O59 C61 1.240 . S
O60 Co33 2.096 . S
O60 C41 1.247 . S
C61 O58 1.244 . S
C61 O59 1.240 . S
H62 C36 0.931 . S
H63 C45 0.931 . S
H64 C49 0.929 . S
H65 C51 0.930 . S
Co66 N70 2.148 . S
Co66 N76 2.128 . S
Co66 N86 2.194 . S
Co66 O91 2.351 . S
Co66 O92 2.155 . S
Co66 O93 2.096 . S
C67 N70 1.301 . S
C67 N71 1.328 . S
C67 H72 0.930 . S
C68 C69 1.333 . S
C68 N70 1.317 . S
C68 H73 0.930 . S
C69 C68 1.333 . S
C69 N71 1.350 . S
C69 H95 0.931 . S
N70 Co66 2.148 . S
N70 C67 1.301 . S
N70 C68 1.317 . S
N71 C67 1.328 . S
N71 C69 1.350 . S
H72 C67 0.930 . S
H73 C68 0.930 . S
C74 O75 1.224 . S
C74 O93 1.247 . S
O75 C74 1.224 . S
N76 Co66 2.128 . S
N76 C77 1.355 . S
N76 C79 1.311 . S
C77 N76 1.355 . S
C77 C78 1.363 . S
C77 H89 0.929 . S
C78 C77 1.363 . S
C78 N80 1.375 . S
C78 H96 0.931 . S
C79 N76 1.311 . S
C79 N80 1.347 . S
C79 H90 0.929 . S
N80 C78 1.375 . S
N80 C79 1.347 . S
C81 C84 1.365 . S
C81 N86 1.328 . S
C81 H87 0.929 . S
C82 C83 1.362 . S
C82 C85 1.378 . S
C82 H97 0.929 . S
C83 C82 1.362 . S
C83 C84 1.366 . S
C84 C81 1.365 . S
C84 C83 1.366 . S
C84 H98 0.930 . S
C85 C82 1.378 . S
C85 N86 1.315 . S
C85 H88 0.930 . S
N86 Co66 2.194 . S
N86 C81 1.328 . S
N86 C85 1.315 . S
H87 C81 0.929 . S
H88 C85 0.930 . S
H89 C77 0.929 . S
H90 C79 0.929 . S
O91 Co66 2.351 . S
O91 C94 1.244 . S
O92 Co66 2.155 . S
O92 C94 1.240 . S
O93 Co66 2.096 . S
O93 C74 1.247 . S
C94 O91 1.244 . S
C94 O92 1.240 . S
H95 C69 0.931 . S
H96 C78 0.931 . S
H97 C82 0.929 . S
H98 C84 0.930 . S
Co99 N103 2.148 . S
Co99 N109 2.128 . S
Co99 N119 2.194 . S
Co99 O124 2.351 . S
Co99 O125 2.155 . S
Co99 O126 2.096 . S
C100 N103 1.301 . S
C100 N104 1.328 . S
C100 H105 0.930 . S
C101 C102 1.333 . S
C101 N103 1.317 . S
C101 H106 0.930 . S
C102 C101 1.333 . S
C102 N104 1.350 . S
C102 H128 0.931 . S
N103 Co99 2.148 . S
N103 C100 1.301 . S
N103 C101 1.317 . S
N104 C100 1.328 . S
N104 C102 1.350 . S
H105 C100 0.930 . S
H106 C101 0.930 . S
C107 O108 1.224 . S
C107 O126 1.247 . S
O108 C107 1.224 . S
N109 Co99 2.128 . S
N109 C110 1.355 . S
N109 C112 1.311 . S
C110 N109 1.355 . S
C110 C111 1.363 . S
C110 H122 0.929 . S
C111 C110 1.363 . S
C111 N113 1.375 . S
C111 H129 0.931 . S
C112 N109 1.311 . S
C112 N113 1.347 . S
C112 H123 0.929 . S
N113 C111 1.375 . S
N113 C112 1.347 . S
C114 C117 1.365 . S
C114 N119 1.328 . S
C114 H120 0.929 . S
C115 C116 1.362 . S
C115 C118 1.378 . S
C115 H130 0.929 . S
C116 C115 1.362 . S
C116 C117 1.366 . S
C117 C114 1.365 . S
C117 C116 1.366 . S
C117 H131 0.930 . S
C118 C115 1.378 . S
C118 N119 1.315 . S
C118 H121 0.930 . S
N119 Co99 2.194 . S
N119 C114 1.328 . S
N119 C118 1.315 . S
H120 C114 0.929 . S
H121 C118 0.930 . S
H122 C110 0.929 . S
H123 C112 0.929 . S
O124 Co99 2.351 . S
O124 C127 1.244 . S
O125 Co99 2.155 . S
O125 C127 1.240 . S
O126 Co99 2.096 . S
O126 C107 1.247 . S
C127 O124 1.244 . S
C127 O125 1.240 . S
H128 C102 0.931 . S
H129 C111 0.931 . S
H130 C115 0.929 . S
H131 C117 0.930 . S
Co132 N136 2.148 . S
Co132 N142 2.128 . S
Co132 N152 2.194 . S
Co132 O157 2.351 . S
Co132 O158 2.155 . S
Co132 O159 2.096 . S
C133 N136 1.301 . S
C133 N137 1.328 . S
C133 H138 0.930 . S
C134 C135 1.333 . S
C134 N136 1.317 . S
C134 H139 0.930 . S
C135 C134 1.333 . S
C135 N137 1.350 . S
C135 H161 0.931 . S
N136 Co132 2.148 . S
N136 C133 1.301 . S
N136 C134 1.317 . S
N137 C133 1.328 . S
N137 C135 1.350 . S
H138 C133 0.930 . S
H139 C134 0.930 . S
C140 O141 1.224 . S
C140 O159 1.247 . S
O141 C140 1.224 . S
N142 Co132 2.128 . S
N142 C143 1.355 . S
N142 C145 1.311 . S
C143 N142 1.355 . S
C143 C144 1.363 . S
C143 H155 0.929 . S
C144 C143 1.363 . S
C144 N146 1.375 . S
C144 H162 0.931 . S
C145 N142 1.311 . S
C145 N146 1.347 . S
C145 H156 0.929 . S
N146 C144 1.375 . S
N146 C145 1.347 . S
C147 C150 1.365 . S
C147 N152 1.328 . S
C147 H153 0.929 . S
C148 C149 1.362 . S
C148 C151 1.378 . S
C148 H163 0.929 . S
C149 C148 1.362 . S
C149 C150 1.366 . S
C150 C147 1.365 . S
C150 C149 1.366 . S
C150 H164 0.930 . S
C151 C148 1.378 . S
C151 N152 1.315 . S
C151 H154 0.930 . S
N152 Co132 2.194 . S
N152 C147 1.328 . S
N152 C151 1.315 . S
H153 C147 0.929 . S
H154 C151 0.930 . S
H155 C143 0.929 . S
H156 C145 0.929 . S
O157 Co132 2.351 . S
O157 C160 1.244 . S
O158 Co132 2.155 . S
O158 C160 1.240 . S
O159 Co132 2.096 . S
O159 C140 1.247 . S
C160 O157 1.244 . S
C160 O158 1.240 . S
H161 C135 0.931 . S
H162 C144 0.931 . S
H163 C148 0.929 . S
H164 C150 0.930 . S
Co165 N169 2.148 . S
Co165 N175 2.128 . S
Co165 N185 2.194 . S
Co165 O190 2.351 . S
Co165 O191 2.155 . S
Co165 O192 2.096 . S
C166 N169 1.301 . S
C166 N170 1.328 . S
C166 H171 0.930 . S
C167 C168 1.333 . S
C167 N169 1.317 . S
C167 H172 0.930 . S
C168 C167 1.333 . S
C168 N170 1.350 . S
C168 H194 0.931 . S
N169 Co165 2.148 . S
N169 C166 1.301 . S
N169 C167 1.317 . S
N170 C166 1.328 . S
N170 C168 1.350 . S
H171 C166 0.930 . S
H172 C167 0.930 . S
C173 O174 1.224 . S
C173 O192 1.247 . S
O174 C173 1.224 . S
N175 Co165 2.128 . S
N175 C176 1.355 . S
N175 C178 1.311 . S
C176 N175 1.355 . S
C176 C177 1.363 . S
C176 H188 0.929 . S
C177 C176 1.363 . S
C177 N179 1.375 . S
C177 H195 0.931 . S
C178 N175 1.311 . S
C178 N179 1.347 . S
C178 H189 0.929 . S
N179 C177 1.375 . S
N179 C178 1.347 . S
C180 C183 1.365 . S
C180 N185 1.328 . S
C180 H186 0.929 . S
C181 C182 1.362 . S
C181 C184 1.378 . S
C181 H196 0.929 . S
C182 C181 1.362 . S
C182 C183 1.366 . S
C183 C180 1.365 . S
C183 C182 1.366 . S
C183 H197 0.930 . S
C184 C181 1.378 . S
C184 N185 1.315 . S
C184 H187 0.930 . S
N185 Co165 2.194 . S
N185 C180 1.328 . S
N185 C184 1.315 . S
H186 C180 0.929 . S
H187 C184 0.930 . S
H188 C176 0.929 . S
H189 C178 0.929 . S
O190 Co165 2.351 . S
O190 C193 1.244 . S
O191 Co165 2.155 . S
O191 C193 1.240 . S
O192 Co165 2.096 . S
O192 C173 1.247 . S
C193 O190 1.244 . S
C193 O191 1.240 . S
H194 C168 0.931 . S
H195 C177 0.931 . S
H196 C181 0.929 . S
H197 C183 0.930 . S
Co198 N202 2.148 . S
Co198 N208 2.128 . S
Co198 N218 2.194 . S
Co198 O223 2.351 . S
Co198 O224 2.155 . S
Co198 O225 2.096 . S
C199 N202 1.301 . S
C199 N203 1.328 . S
C199 H204 0.930 . S
C200 C201 1.333 . S
C200 N202 1.317 . S
C200 H205 0.930 . S
C201 C200 1.333 . S
C201 N203 1.350 . S
C201 H227 0.931 . S
N202 Co198 2.148 . S
N202 C199 1.301 . S
N202 C200 1.317 . S
N203 C199 1.328 . S
N203 C201 1.350 . S
H204 C199 0.930 . S
H205 C200 0.930 . S
C206 O207 1.224 . S
C206 O225 1.247 . S
O207 C206 1.224 . S
N208 Co198 2.128 . S
N208 C209 1.355 . S
N208 C211 1.311 . S
C209 N208 1.355 . S
C209 C210 1.363 . S
C209 H221 0.929 . S
C210 C209 1.363 . S
C210 N212 1.375 . S
C210 H228 0.931 . S
C211 N208 1.311 . S
C211 N212 1.347 . S
C211 H222 0.929 . S
N212 C210 1.375 . S
N212 C211 1.347 . S
C213 C216 1.365 . S
C213 N218 1.328 . S
C213 H219 0.929 . S
C214 C215 1.362 . S
C214 C217 1.378 . S
C214 H229 0.929 . S
C215 C214 1.362 . S
C215 C216 1.366 . S
C216 C213 1.365 . S
C216 C215 1.366 . S
C216 H230 0.930 . S
C217 C214 1.378 . S
C217 N218 1.315 . S
C217 H220 0.930 . S
N218 Co198 2.194 . S
N218 C213 1.328 . S
N218 C217 1.315 . S
H219 C213 0.929 . S
H220 C217 0.930 . S
H221 C209 0.929 . S
H222 C211 0.929 . S
O223 Co198 2.351 . S
O223 C226 1.244 . S
O224 Co198 2.155 . S
O224 C226 1.240 . S
O225 Co198 2.096 . S
O225 C206 1.247 . S
C226 O223 1.244 . S
C226 O224 1.240 . S
H227 C201 0.931 . S
H228 C210 0.931 . S
H229 C214 0.929 . S
H230 C216 0.930 . S
Co231 N235 2.148 . S
Co231 N241 2.128 . S
Co231 N251 2.194 . S
Co231 O256 2.351 . S
Co231 O257 2.155 . S
Co231 O258 2.096 . S
C232 N235 1.301 . S
C232 N236 1.328 . S
C232 H237 0.930 . S
C233 C234 1.333 . S
C233 N235 1.317 . S
C233 H238 0.930 . S
C234 C233 1.333 . S
C234 N236 1.350 . S
C234 H260 0.931 . S
N235 Co231 2.148 . S
N235 C232 1.301 . S
N235 C233 1.317 . S
N236 C232 1.328 . S
N236 C234 1.350 . S
H237 C232 0.930 . S
H238 C233 0.930 . S
C239 O240 1.224 . S
C239 O258 1.247 . S
O240 C239 1.224 . S
N241 Co231 2.128 . S
N241 C242 1.355 . S
N241 C244 1.311 . S
C242 N241 1.355 . S
C242 C243 1.363 . S
C242 H254 0.929 . S
C243 C242 1.363 . S
C243 N245 1.375 . S
C243 H261 0.931 . S
C244 N241 1.311 . S
C244 N245 1.347 . S
C244 H255 0.929 . S
N245 C243 1.375 . S
N245 C244 1.347 . S
C246 C249 1.365 . S
C246 N251 1.328 . S
C246 H252 0.929 . S
C247 C248 1.362 . S
C247 C250 1.378 . S
C247 H262 0.929 . S
C248 C247 1.362 . S
C248 C249 1.366 . S
C249 C246 1.365 . S
C249 C248 1.366 . S
C249 H263 0.930 . S
C250 C247 1.378 . S
C250 N251 1.315 . S
C250 H253 0.930 . S
N251 Co231 2.194 . S
N251 C246 1.328 . S
N251 C250 1.315 . S
H252 C246 0.929 . S
H253 C250 0.930 . S
H254 C242 0.929 . S
H255 C244 0.929 . S
O256 Co231 2.351 . S
O256 C259 1.244 . S
O257 Co231 2.155 . S
O257 C259 1.240 . S
O258 Co231 2.096 . S
O258 C239 1.247 . S
C259 O256 1.244 . S
C259 O257 1.240 . S
H260 C234 0.931 . S
H261 C243 0.931 . S
H262 C247 0.929 . S
H263 C249 0.930 . S
Co264 N268 2.148 . S
Co264 N274 2.128 . S
Co264 N284 2.194 . S
Co264 O289 2.351 . S
Co264 O290 2.155 . S
Co264 O291 2.096 . S
C265 N268 1.301 . S
C265 N269 1.328 . S
C265 H270 0.930 . S
C266 C267 1.333 . S
C266 N268 1.317 . S
C266 H271 0.930 . S
C267 C266 1.333 . S
C267 N269 1.350 . S
C267 H293 0.931 . S
N268 Co264 2.148 . S
N268 C265 1.301 . S
N268 C266 1.317 . S
N269 C265 1.328 . S
N269 C267 1.350 . S
H270 C265 0.930 . S
H271 C266 0.930 . S
C272 O273 1.224 . S
C272 O291 1.247 . S
O273 C272 1.224 . S
N274 Co264 2.128 . S
N274 C275 1.355 . S
N274 C277 1.311 . S
C275 N274 1.355 . S
C275 C276 1.363 . S
C275 H287 0.929 . S
C276 C275 1.363 . S
C276 N278 1.375 . S
C276 H294 0.931 . S
C277 N274 1.311 . S
C277 N278 1.347 . S
C277 H288 0.929 . S
N278 C276 1.375 . S
N278 C277 1.347 . S
C279 C282 1.365 . S
C279 N284 1.328 . S
C279 H285 0.929 . S
C280 C281 1.362 . S
C280 C283 1.378 . S
C280 H295 0.929 . S
C281 C280 1.362 . S
C281 C282 1.366 . S
C282 C279 1.365 . S
C282 C281 1.366 . S
C282 H296 0.930 . S
C283 C280 1.378 . S
C283 N284 1.315 . S
C283 H286 0.930 . S
N284 Co264 2.194 . S
N284 C279 1.328 . S
N284 C283 1.315 . S
H285 C279 0.929 . S
H286 C283 0.930 . S
H287 C275 0.929 . S
H288 C277 0.929 . S
O289 Co264 2.351 . S
O289 C292 1.244 . S
O290 Co264 2.155 . S
O290 C292 1.240 . S
O291 Co264 2.096 . S
O291 C272 1.247 . S
C292 O289 1.244 . S
C292 O290 1.240 . S
H293 C267 0.931 . S
H294 C276 0.931 . S
H295 C280 0.929 . S
H296 C282 0.930 . S
Co297 N301 2.148 . S
Co297 N307 2.128 . S
Co297 N317 2.194 . S
Co297 O322 2.351 . S
Co297 O323 2.155 . S
Co297 O324 2.096 . S
C298 N301 1.301 . S
C298 N302 1.328 . S
C298 H303 0.930 . S
C299 C300 1.333 . S
C299 N301 1.317 . S
C299 H304 0.930 . S
C300 C299 1.333 . S
C300 N302 1.350 . S
C300 H326 0.931 . S
N301 Co297 2.148 . S
N301 C298 1.301 . S
N301 C299 1.317 . S
N302 C298 1.328 . S
N302 C300 1.350 . S
H303 C298 0.930 . S
H304 C299 0.930 . S
C305 O306 1.224 . S
C305 O324 1.247 . S
O306 C305 1.224 . S
N307 Co297 2.128 . S
N307 C308 1.355 . S
N307 C310 1.311 . S
C308 N307 1.355 . S
C308 C309 1.363 . S
C308 H320 0.929 . S
C309 C308 1.363 . S
C309 N311 1.375 . S
C309 H327 0.931 . S
C310 N307 1.311 . S
C310 N311 1.347 . S
C310 H321 0.929 . S
N311 C309 1.375 . S
N311 C310 1.347 . S
C312 C315 1.365 . S
C312 N317 1.328 . S
C312 H318 0.929 . S
C313 C314 1.362 . S
C313 C316 1.378 . S
C313 H328 0.929 . S
C314 C313 1.362 . S
C314 C315 1.366 . S
C315 C312 1.365 . S
C315 C314 1.366 . S
C315 H329 0.930 . S
C316 C313 1.378 . S
C316 N317 1.315 . S
C316 H319 0.930 . S
N317 Co297 2.194 . S
N317 C312 1.328 . S
N317 C316 1.315 . S
H318 C312 0.929 . S
H319 C316 0.930 . S
H320 C308 0.929 . S
H321 C310 0.929 . S
O322 Co297 2.351 . S
O322 C325 1.244 . S
O323 Co297 2.155 . S
O323 C325 1.240 . S
O324 Co297 2.096 . S
O324 C305 1.247 . S
C325 O322 1.244 . S
C325 O323 1.240 . S
H326 C300 0.931 . S
H327 C309 0.931 . S
H328 C313 0.929 . S
H329 C315 0.930 . S
Co330 N334 2.148 . S
Co330 N340 2.128 . S
Co330 N350 2.194 . S
Co330 O355 2.351 . S
Co330 O356 2.155 . S
Co330 O357 2.096 . S
C331 N334 1.301 . S
C331 N335 1.328 . S
C331 H336 0.930 . S
C332 C333 1.333 . S
C332 N334 1.317 . S
C332 H337 0.930 . S
C333 C332 1.333 . S
C333 N335 1.350 . S
C333 H359 0.931 . S
N334 Co330 2.148 . S
N334 C331 1.301 . S
N334 C332 1.317 . S
N335 C331 1.328 . S
N335 C333 1.350 . S
H336 C331 0.930 . S
H337 C332 0.930 . S
C338 O339 1.224 . S
C338 O357 1.247 . S
O339 C338 1.224 . S
N340 Co330 2.128 . S
N340 C341 1.355 . S
N340 C343 1.311 . S
C341 N340 1.355 . S
C341 C342 1.363 . S
C341 H353 0.929 . S
C342 C341 1.363 . S
C342 N344 1.375 . S
C342 H360 0.931 . S
C343 N340 1.311 . S
C343 N344 1.347 . S
C343 H354 0.929 . S
N344 C342 1.375 . S
N344 C343 1.347 . S
C345 C348 1.365 . S
C345 N350 1.328 . S
C345 H351 0.929 . S
C346 C347 1.362 . S
C346 C349 1.378 . S
C346 H361 0.929 . S
C347 C346 1.362 . S
C347 C348 1.366 . S
C348 C345 1.365 . S
C348 C347 1.366 . S
C348 H362 0.930 . S
C349 C346 1.378 . S
C349 N350 1.315 . S
C349 H352 0.930 . S
N350 Co330 2.194 . S
N350 C345 1.328 . S
N350 C349 1.315 . S
H351 C345 0.929 . S
H352 C349 0.930 . S
H353 C341 0.929 . S
H354 C343 0.929 . S
O355 Co330 2.351 . S
O355 C358 1.244 . S
O356 Co330 2.155 . S
O356 C358 1.240 . S
O357 Co330 2.096 . S
O357 C338 1.247 . S
C358 O355 1.244 . S
C358 O356 1.240 . S
H359 C333 0.931 . S
H360 C342 0.931 . S
H361 C346 0.929 . S
H362 C348 0.930 . S
Co363 N367 2.148 . S
Co363 N373 2.128 . S
Co363 N383 2.194 . S
Co363 O388 2.351 . S
Co363 O389 2.155 . S
Co363 O390 2.096 . S
C364 N367 1.301 . S
C364 N368 1.328 . S
C364 H369 0.930 . S
C365 C366 1.333 . S
C365 N367 1.317 . S
C365 H370 0.930 . S
C366 C365 1.333 . S
C366 N368 1.350 . S
C366 H392 0.931 . S
N367 Co363 2.148 . S
N367 C364 1.301 . S
N367 C365 1.317 . S
N368 C364 1.328 . S
N368 C366 1.350 . S
H369 C364 0.930 . S
H370 C365 0.930 . S
C371 O372 1.224 . S
C371 O390 1.247 . S
O372 C371 1.224 . S
N373 Co363 2.128 . S
N373 C374 1.355 . S
N373 C376 1.311 . S
C374 N373 1.355 . S
C374 C375 1.363 . S
C374 H386 0.929 . S
C375 C374 1.363 . S
C375 N377 1.375 . S
C375 H393 0.931 . S
C376 N373 1.311 . S
C376 N377 1.347 . S
C376 H387 0.929 . S
N377 C375 1.375 . S
N377 C376 1.347 . S
C378 C381 1.365 . S
C378 N383 1.328 . S
C378 H384 0.929 . S
C379 C380 1.362 . S
C379 C382 1.378 . S
C379 H394 0.929 . S
C380 C379 1.362 . S
C380 C381 1.366 . S
C381 C378 1.365 . S
C381 C380 1.366 . S
C381 H395 0.930 . S
C382 C379 1.378 . S
C382 N383 1.315 . S
C382 H385 0.930 . S
N383 Co363 2.194 . S
N383 C378 1.328 . S
N383 C382 1.315 . S
H384 C378 0.929 . S
H385 C382 0.930 . S
H386 C374 0.929 . S
H387 C376 0.929 . S
O388 Co363 2.351 . S
O388 C391 1.244 . S
O389 Co363 2.155 . S
O389 C391 1.240 . S
O390 Co363 2.096 . S
O390 C371 1.247 . S
C391 O388 1.244 . S
C391 O389 1.240 . S
H392 C366 0.931 . S
H393 C375 0.931 . S
H394 C379 0.929 . S
H395 C381 0.930 . S
Co396 N400 2.148 . S
Co396 N406 2.128 . S
Co396 N416 2.194 . S
Co396 O421 2.351 . S
Co396 O422 2.155 . S
Co396 O423 2.096 . S
C397 N400 1.301 . S
C397 N401 1.328 . S
C397 H402 0.930 . S
C398 C399 1.333 . S
C398 N400 1.317 . S
C398 H403 0.930 . S
C399 C398 1.333 . S
C399 N401 1.350 . S
C399 H425 0.931 . S
N400 Co396 2.148 . S
N400 C397 1.301 . S
N400 C398 1.317 . S
N401 C397 1.328 . S
N401 C399 1.350 . S
H402 C397 0.930 . S
H403 C398 0.930 . S
C404 O405 1.224 . S
C404 O423 1.247 . S
O405 C404 1.224 . S
N406 Co396 2.128 . S
N406 C407 1.355 . S
N406 C409 1.311 . S
C407 N406 1.355 . S
C407 C408 1.363 . S
C407 H419 0.929 . S
C408 C407 1.363 . S
C408 N410 1.375 . S
C408 H426 0.931 . S
C409 N406 1.311 . S
C409 N410 1.347 . S
C409 H420 0.929 . S
N410 C408 1.375 . S
N410 C409 1.347 . S
C411 C414 1.365 . S
C411 N416 1.328 . S
C411 H417 0.929 . S
C412 C413 1.362 . S
C412 C415 1.378 . S
C412 H427 0.929 . S
C413 C412 1.362 . S
C413 C414 1.366 . S
C414 C411 1.365 . S
C414 C413 1.366 . S
C414 H428 0.930 . S
C415 C412 1.378 . S
C415 N416 1.315 . S
C415 H418 0.930 . S
N416 Co396 2.194 . S
N416 C411 1.328 . S
N416 C415 1.315 . S
H417 C411 0.929 . S
H418 C415 0.930 . S
H419 C407 0.929 . S
H420 C409 0.929 . S
O421 Co396 2.351 . S
O421 C424 1.244 . S
O422 Co396 2.155 . S
O422 C424 1.240 . S
O423 Co396 2.096 . S
O423 C404 1.247 . S
C424 O421 1.244 . S
C424 O422 1.240 . S
H425 C399 0.931 . S
H426 C408 0.931 . S
H427 C412 0.929 . S
H428 C414 0.930 . S
Co429 N433 2.148 . S
Co429 N439 2.128 . S
Co429 N449 2.194 . S
Co429 O454 2.351 . S
Co429 O455 2.155 . S
Co429 O456 2.096 . S
C430 N433 1.301 . S
C430 N434 1.328 . S
C430 H435 0.930 . S
C431 C432 1.333 . S
C431 N433 1.317 . S
C431 H436 0.930 . S
C432 C431 1.333 . S
C432 N434 1.350 . S
C432 H458 0.931 . S
N433 Co429 2.148 . S
N433 C430 1.301 . S
N433 C431 1.317 . S
N434 C430 1.328 . S
N434 C432 1.350 . S
H435 C430 0.930 . S
H436 C431 0.930 . S
C437 O438 1.224 . S
C437 O456 1.247 . S
O438 C437 1.224 . S
N439 Co429 2.128 . S
N439 C440 1.355 . S
N439 C442 1.311 . S
C440 N439 1.355 . S
C440 C441 1.363 . S
C440 H452 0.929 . S
C441 C440 1.363 . S
C441 N443 1.375 . S
C441 H459 0.931 . S
C442 N439 1.311 . S
C442 N443 1.347 . S
C442 H453 0.929 . S
N443 C441 1.375 . S
N443 C442 1.347 . S
C444 C447 1.365 . S
C444 N449 1.328 . S
C444 H450 0.929 . S
C445 C446 1.362 . S
C445 C448 1.378 . S
C445 H460 0.929 . S
C446 C445 1.362 . S
C446 C447 1.366 . S
C447 C444 1.365 . S
C447 C446 1.366 . S
C447 H461 0.930 . S
C448 C445 1.378 . S
C448 N449 1.315 . S
C448 H451 0.930 . S
N449 Co429 2.194 . S
N449 C444 1.328 . S
N449 C448 1.315 . S
H450 C444 0.929 . S
H451 C448 0.930 . S
H452 C440 0.929 . S
H453 C442 0.929 . S
O454 Co429 2.351 . S
O454 C457 1.244 . S
O455 Co429 2.155 . S
O455 C457 1.240 . S
O456 Co429 2.096 . S
O456 C437 1.247 . S
C457 O454 1.244 . S
C457 O455 1.240 . S
H458 C432 0.931 . S
H459 C441 0.931 . S
H460 C445 0.929 . S
H461 C447 0.930 . S
Co462 N466 2.148 . S
Co462 N472 2.128 . S
Co462 N482 2.194 . S
Co462 O487 2.351 . S
Co462 O488 2.155 . S
Co462 O489 2.096 . S
C463 N466 1.301 . S
C463 N467 1.328 . S
C463 H468 0.930 . S
C464 C465 1.333 . S
C464 N466 1.317 . S
C464 H469 0.930 . S
C465 C464 1.333 . S
C465 N467 1.350 . S
C465 H491 0.931 . S
N466 Co462 2.148 . S
N466 C463 1.301 . S
N466 C464 1.317 . S
N467 C463 1.328 . S
N467 C465 1.350 . S
H468 C463 0.930 . S
H469 C464 0.930 . S
C470 O471 1.224 . S
C470 O489 1.247 . S
O471 C470 1.224 . S
N472 Co462 2.128 . S
N472 C473 1.355 . S
N472 C475 1.311 . S
C473 N472 1.355 . S
C473 C474 1.363 . S
C473 H485 0.929 . S
C474 C473 1.363 . S
C474 N476 1.375 . S
C474 H492 0.931 . S
C475 N472 1.311 . S
C475 N476 1.347 . S
C475 H486 0.929 . S
N476 C474 1.375 . S
N476 C475 1.347 . S
C477 C480 1.365 . S
C477 N482 1.328 . S
C477 H483 0.929 . S
C478 C479 1.362 . S
C478 C481 1.378 . S
C478 H493 0.929 . S
C479 C478 1.362 . S
C479 C480 1.366 . S
C480 C477 1.365 . S
C480 C479 1.366 . S
C480 H494 0.930 . S
C481 C478 1.378 . S
C481 N482 1.315 . S
C481 H484 0.930 . S
N482 Co462 2.194 . S
N482 C477 1.328 . S
N482 C481 1.315 . S
H483 C477 0.929 . S
H484 C481 0.930 . S
H485 C473 0.929 . S
H486 C475 0.929 . S
O487 Co462 2.351 . S
O487 C490 1.244 . S
O488 Co462 2.155 . S
O488 C490 1.240 . S
O489 Co462 2.096 . S
O489 C470 1.247 . S
C490 O487 1.244 . S
C490 O488 1.240 . S
H491 C465 0.931 . S
H492 C474 0.931 . S
H493 C478 0.929 . S
H494 C480 0.930 . S
Co495 N499 2.148 . S
Co495 N505 2.128 . S
Co495 N515 2.194 . S
Co495 O520 2.351 . S
Co495 O521 2.155 . S
Co495 O522 2.096 . S
C496 N499 1.301 . S
C496 N500 1.328 . S
C496 H501 0.930 . S
C497 C498 1.333 . S
C497 N499 1.317 . S
C497 H502 0.930 . S
C498 C497 1.333 . S
C498 N500 1.350 . S
C498 H524 0.931 . S
N499 Co495 2.148 . S
N499 C496 1.301 . S
N499 C497 1.317 . S
N500 C496 1.328 . S
N500 C498 1.350 . S
H501 C496 0.930 . S
H502 C497 0.930 . S
C503 O504 1.224 . S
C503 O522 1.247 . S
O504 C503 1.224 . S
N505 Co495 2.128 . S
N505 C506 1.355 . S
N505 C508 1.311 . S
C506 N505 1.355 . S
C506 C507 1.363 . S
C506 H518 0.929 . S
C507 C506 1.363 . S
C507 N509 1.375 . S
C507 H525 0.931 . S
C508 N505 1.311 . S
C508 N509 1.347 . S
C508 H519 0.929 . S
N509 C507 1.375 . S
N509 C508 1.347 . S
C510 C513 1.365 . S
C510 N515 1.328 . S
C510 H516 0.929 . S
C511 C512 1.362 . S
C511 C514 1.378 . S
C511 H526 0.929 . S
C512 C511 1.362 . S
C512 C513 1.366 . S
C513 C510 1.365 . S
C513 C512 1.366 . S
C513 H527 0.930 . S
C514 C511 1.378 . S
C514 N515 1.315 . S
C514 H517 0.930 . S
N515 Co495 2.194 . S
N515 C510 1.328 . S
N515 C514 1.315 . S
H516 C510 0.929 . S
H517 C514 0.930 . S
H518 C506 0.929 . S
H519 C508 0.929 . S
O520 Co495 2.351 . S
O520 C523 1.244 . S
O521 Co495 2.155 . S
O521 C523 1.240 . S
O522 Co495 2.096 . S
O522 C503 1.247 . S
C523 O520 1.244 . S
C523 O521 1.240 . S
H524 C498 0.931 . S
H525 C507 0.931 . S
H526 C511 0.929 . S
H527 C513 0.930 . S
C528 C529 1.369 . S
C528 C530 1.419 . S
C528 H532 0.930 . S
C529 C528 1.369 . S
C529 C538 1.429 . S
C530 C528 1.419 . S
C530 C531 1.363 . S
C530 H533 0.929 . S
C531 C530 1.363 . S
C531 C537 1.428 . S
H532 C528 0.930 . S
H533 C530 0.929 . S
S534 N535 1.613 . S
S534 N536 1.610 . S
N535 S534 1.613 . S
N535 C538 1.350 . S
N536 S534 1.610 . S
N536 C537 1.351 . S
C537 C531 1.428 . S
C537 N536 1.351 . S
C537 C538 1.434 . S
C538 C529 1.429 . S
C538 N535 1.350 . S
C538 C537 1.434 . S
C539 C540 1.369 . S
C539 C541 1.419 . S
C539 H543 0.930 . S
C540 C539 1.369 . S
C540 C549 1.429 . S
C541 C539 1.419 . S
C541 C542 1.363 . S
C541 H544 0.929 . S
C542 C541 1.363 . S
C542 C548 1.428 . S
H543 C539 0.930 . S
H544 C541 0.929 . S
S545 N546 1.613 . S
S545 N547 1.610 . S
N546 S545 1.613 . S
N546 C549 1.350 . S
N547 S545 1.610 . S
N547 C548 1.351 . S
C548 C542 1.428 . S
C548 N547 1.351 . S
C548 C549 1.434 . S
C549 C540 1.429 . S
C549 N546 1.350 . S
C549 C548 1.434 . S
C550 C551 1.369 . S
C550 C552 1.419 . S
C550 H554 0.930 . S
C551 C550 1.369 . S
C551 C560 1.429 . S
C552 C550 1.419 . S
C552 C553 1.363 . S
C552 H555 0.929 . S
C553 C552 1.363 . S
C553 C559 1.428 . S
H554 C550 0.930 . S
H555 C552 0.929 . S
S556 N557 1.613 . S
S556 N558 1.610 . S
N557 S556 1.613 . S
N557 C560 1.350 . S
N558 S556 1.610 . S
N558 C559 1.351 . S
C559 C553 1.428 . S
C559 N558 1.351 . S
C559 C560 1.434 . S
C560 C551 1.429 . S
C560 N557 1.350 . S
C560 C559 1.434 . S
C561 C562 1.369 . S
C561 C563 1.419 . S
C561 H565 0.930 . S
C562 C561 1.369 . S
C562 C571 1.429 . S
C563 C561 1.419 . S
C563 C564 1.363 . S
C563 H566 0.929 . S
C564 C563 1.363 . S
C564 C570 1.428 . S
H565 C561 0.930 . S
H566 C563 0.929 . S
S567 N568 1.613 . S
S567 N569 1.610 . S
N568 S567 1.613 . S
N568 C571 1.350 . S
N569 S567 1.610 . S
N569 C570 1.351 . S
C570 C564 1.428 . S
C570 N569 1.351 . S
C570 C571 1.434 . S
C571 C562 1.429 . S
C571 N568 1.350 . S
C571 C570 1.434 . S
C572 C573 1.369 . S
C572 C574 1.419 . S
C572 H576 0.930 . S
C573 C572 1.369 . S
C573 C582 1.429 . S
C574 C572 1.419 . S
C574 C575 1.363 . S
C574 H577 0.929 . S
C575 C574 1.363 . S
C575 C581 1.428 . S
H576 C572 0.930 . S
H577 C574 0.929 . S
S578 N579 1.613 . S
S578 N580 1.610 . S
N579 S578 1.613 . S
N579 C582 1.350 . S
N580 S578 1.610 . S
N580 C581 1.351 . S
C581 C575 1.428 . S
C581 N580 1.351 . S
C581 C582 1.434 . S
C582 C573 1.429 . S
C582 N579 1.350 . S
C582 C581 1.434 . S
C583 C584 1.369 . S
C583 C585 1.419 . S
C583 H587 0.930 . S
C584 C583 1.369 . S
C584 C593 1.429 . S
C585 C583 1.419 . S
C585 C586 1.363 . S
C585 H588 0.929 . S
C586 C585 1.363 . S
C586 C592 1.428 . S
H587 C583 0.930 . S
H588 C585 0.929 . S
S589 N590 1.613 . S
S589 N591 1.610 . S
N590 S589 1.613 . S
N590 C593 1.350 . S
N591 S589 1.610 . S
N591 C592 1.351 . S
C592 C586 1.428 . S
C592 N591 1.351 . S
C592 C593 1.434 . S
C593 C584 1.429 . S
C593 N590 1.350 . S
C593 C592 1.434 . S
C594 C595 1.369 . S
C594 C596 1.419 . S
C594 H598 0.930 . S
C595 C594 1.369 . S
C595 C604 1.429 . S
C596 C594 1.419 . S
C596 C597 1.363 . S
C596 H599 0.929 . S
C597 C596 1.363 . S
C597 C603 1.428 . S
H598 C594 0.930 . S
H599 C596 0.929 . S
S600 N601 1.613 . S
S600 N602 1.610 . S
N601 S600 1.613 . S
N601 C604 1.350 . S
N602 S600 1.610 . S
N602 C603 1.351 . S
C603 C597 1.428 . S
C603 N602 1.351 . S
C603 C604 1.434 . S
C604 C595 1.429 . S
C604 N601 1.350 . S
C604 C603 1.434 . S
C605 C606 1.369 . S
C605 C607 1.419 . S
C605 H609 0.930 . S
C606 C605 1.369 . S
C606 C615 1.429 . S
C607 C605 1.419 . S
C607 C608 1.363 . S
C607 H610 0.929 . S
C608 C607 1.363 . S
C608 C614 1.428 . S
H609 C605 0.930 . S
H610 C607 0.929 . S
S611 N612 1.613 . S
S611 N613 1.610 . S
N612 S611 1.613 . S
N612 C615 1.350 . S
N613 S611 1.610 . S
N613 C614 1.351 . S
C614 C608 1.428 . S
C614 N613 1.351 . S
C614 C615 1.434 . S
C615 C606 1.429 . S
C615 N612 1.350 . S
C615 C614 1.434 . S
C616 C617 1.369 . S
C616 C618 1.419 . S
C616 H620 0.930 . S
C617 C616 1.369 . S
C617 C626 1.429 . S
C618 C616 1.419 . S
C618 C619 1.363 . S
C618 H621 0.929 . S
C619 C618 1.363 . S
C619 C625 1.428 . S
H620 C616 0.930 . S
H621 C618 0.929 . S
S622 N623 1.613 . S
S622 N624 1.610 . S
N623 S622 1.613 . S
N623 C626 1.350 . S
N624 S622 1.610 . S
N624 C625 1.351 . S
C625 C619 1.428 . S
C625 N624 1.351 . S
C625 C626 1.434 . S
C626 C617 1.429 . S
C626 N623 1.350 . S
C626 C625 1.434 . S
C627 C628 1.369 . S
C627 C629 1.419 . S
C627 H631 0.930 . S
C628 C627 1.369 . S
C628 C637 1.429 . S
C629 C627 1.419 . S
C629 C630 1.363 . S
C629 H632 0.929 . S
C630 C629 1.363 . S
C630 C636 1.428 . S
H631 C627 0.930 . S
H632 C629 0.929 . S
S633 N634 1.613 . S
S633 N635 1.610 . S
N634 S633 1.613 . S
N634 C637 1.350 . S
N635 S633 1.610 . S
N635 C636 1.351 . S
C636 C630 1.428 . S
C636 N635 1.351 . S
C636 C637 1.434 . S
C637 C628 1.429 . S
C637 N634 1.350 . S
C637 C636 1.434 . S
C638 C639 1.369 . S
C638 C640 1.419 . S
C638 H642 0.930 . S
C639 C638 1.369 . S
C639 C648 1.429 . S
C640 C638 1.419 . S
C640 C641 1.363 . S
C640 H643 0.929 . S
C641 C640 1.363 . S
C641 C647 1.428 . S
H642 C638 0.930 . S
H643 C640 0.929 . S
S644 N645 1.613 . S
S644 N646 1.610 . S
N645 S644 1.613 . S
N645 C648 1.350 . S
N646 S644 1.610 . S
N646 C647 1.351 . S
C647 C641 1.428 . S
C647 N646 1.351 . S
C647 C648 1.434 . S
C648 C639 1.429 . S
C648 N645 1.350 . S
C648 C647 1.434 . S
C649 C650 1.369 . S
C649 C651 1.419 . S
C649 H653 0.930 . S
C650 C649 1.369 . S
C650 C659 1.429 . S
C651 C649 1.419 . S
C651 C652 1.363 . S
C651 H654 0.929 . S
C652 C651 1.363 . S
C652 C658 1.428 . S
H653 C649 0.930 . S
H654 C651 0.929 . S
S655 N656 1.613 . S
S655 N657 1.610 . S
N656 S655 1.613 . S
N656 C659 1.350 . S
N657 S655 1.610 . S
N657 C658 1.351 . S
C658 C652 1.428 . S
C658 N657 1.351 . S
C658 C659 1.434 . S
C659 C650 1.429 . S
C659 N656 1.350 . S
C659 C658 1.434 . S
C660 C661 1.369 . S
C660 C662 1.419 . S
C660 H664 0.930 . S
C661 C660 1.369 . S
C661 C670 1.429 . S
C662 C660 1.419 . S
C662 C663 1.363 . S
C662 H665 0.929 . S
C663 C662 1.363 . S
C663 C669 1.428 . S
H664 C660 0.930 . S
H665 C662 0.929 . S
S666 N667 1.613 . S
S666 N668 1.610 . S
N667 S666 1.613 . S
N667 C670 1.350 . S
N668 S666 1.610 . S
N668 C669 1.351 . S
C669 C663 1.428 . S
C669 N668 1.351 . S
C669 C670 1.434 . S
C670 C661 1.429 . S
C670 N667 1.350 . S
C670 C669 1.434 . S
C671 C672 1.369 . S
C671 C673 1.419 . S
C671 H675 0.930 . S
C672 C671 1.369 . S
C672 C681 1.429 . S
C673 C671 1.419 . S
C673 C674 1.363 . S
C673 H676 0.929 . S
C674 C673 1.363 . S
C674 C680 1.428 . S
H675 C671 0.930 . S
H676 C673 0.929 . S
S677 N678 1.613 . S
S677 N679 1.610 . S
N678 S677 1.613 . S
N678 C681 1.350 . S
N679 S677 1.610 . S
N679 C680 1.351 . S
C680 C674 1.428 . S
C680 N679 1.351 . S
C680 C681 1.434 . S
C681 C672 1.429 . S
C681 N678 1.350 . S
C681 C680 1.434 . S
C682 C683 1.369 . S
C682 C684 1.419 . S
C682 H686 0.930 . S
C683 C682 1.369 . S
C683 C692 1.429 . S
C684 C682 1.419 . S
C684 C685 1.363 . S
C684 H687 0.929 . S
C685 C684 1.363 . S
C685 C691 1.428 . S
H686 C682 0.930 . S
H687 C684 0.929 . S
S688 N689 1.613 . S
S688 N690 1.610 . S
N689 S688 1.613 . S
N689 C692 1.350 . S
N690 S688 1.610 . S
N690 C691 1.351 . S
C691 C685 1.428 . S
C691 N690 1.351 . S
C691 C692 1.434 . S
C692 C683 1.429 . S
C692 N689 1.350 . S
C692 C691 1.434 . S
C693 C694 1.369 . S
C693 C695 1.419 . S
C693 H697 0.930 . S
C694 C693 1.369 . S
C694 C703 1.429 . S
C695 C693 1.419 . S
C695 C696 1.363 . S
C695 H698 0.929 . S
C696 C695 1.363 . S
C696 C702 1.428 . S
H697 C693 0.930 . S
H698 C695 0.929 . S
S699 N700 1.613 . S
S699 N701 1.610 . S
N700 S699 1.613 . S
N700 C703 1.350 . S
N701 S699 1.610 . S
N701 C702 1.351 . S
C702 C696 1.428 . S
C702 N701 1.351 . S
C702 C703 1.434 . S
C703 C694 1.429 . S
C703 N700 1.350 . S
C703 C702 1.434 . S
C704 C705 1.335 1_556 S
C704 C706 1.449 . S
C704 H708 0.934 . S
C705 C704 1.335 1_554 S
C705 C714 1.429 . S
C706 C704 1.449 . S
C706 C707 1.363 . S
C706 H709 0.929 . S
C707 C706 1.363 . S
C707 C713 1.428 1_556 S
H708 C704 0.934 . S
H709 C706 0.929 . S
S710 N711 1.613 . S
S710 N712 1.610 . S
N711 S710 1.613 . S
N711 C714 1.350 . S
N712 S710 1.610 . S
N712 C713 1.351 . S
C713 C707 1.428 1_554 S
C713 N712 1.351 . S
C713 C714 1.434 . S
C714 C705 1.429 . S
C714 N711 1.350 . S
C714 C713 1.434 . S
C715 C716 1.369 . S
C715 C717 1.419 1_556 S
C715 H719 0.930 . S
C716 C715 1.369 . S
C716 C725 1.429 . S
C717 C715 1.419 1_554 S
C717 C718 1.363 . S
C717 H720 0.929 . S
C718 C717 1.363 . S
C718 C724 1.428 . S
H719 C715 0.930 . S
H720 C717 0.929 . S
S721 N722 1.613 . S
S721 N723 1.610 1_556 S
N722 S721 1.613 . S
N722 C725 1.350 . S
N723 S721 1.610 1_554 S
N723 C724 1.351 . S
C724 C718 1.428 . S
C724 N723 1.351 . S
C724 C725 1.434 1_554 S
C725 C716 1.429 . S
C725 N722 1.350 . S
C725 C724 1.434 1_556 S
C726 C727 1.369 . S
C726 C728 1.419 . S
C726 H730 0.930 . S
C727 C726 1.369 . S
C727 C736 1.429 . S
C728 C726 1.419 . S
C728 C729 1.363 . S
C728 H731 0.929 . S
C729 C728 1.363 . S
C729 C735 1.428 . S
H730 C726 0.930 . S
H731 C728 0.929 . S
S732 N733 1.613 . S
S732 N734 1.610 . S
N733 S732 1.613 . S
N733 C736 1.350 . S
N734 S732 1.610 . S
N734 C735 1.351 . S
C735 C729 1.428 . S
C735 N734 1.351 . S
C735 C736 1.434 . S
C736 C727 1.429 . S
C736 N733 1.350 . S
C736 C735 1.434 . S
C737 C738 1.369 . S
C737 C739 1.419 . S
C737 H741 0.930 . S
C738 C737 1.369 . S
C738 C747 1.429 . S
C739 C737 1.419 . S
C739 C740 1.363 . S
C739 H742 0.929 . S
C740 C739 1.363 . S
C740 C746 1.428 . S
H741 C737 0.930 . S
H742 C739 0.929 . S
S743 N744 1.613 . S
S743 N745 1.610 . S
N744 S743 1.613 . S
N744 C747 1.350 . S
N745 S743 1.610 . S
N745 C746 1.351 . S
C746 C740 1.428 . S
C746 N745 1.351 . S
C746 C747 1.434 . S
C747 C738 1.429 . S
C747 N744 1.350 . S
C747 C746 1.434 . S
C748 C749 1.369 . S
C748 C750 1.419 1_556 S
C748 H752 0.930 . S
C749 C748 1.369 . S
C749 C758 1.429 . S
C750 C748 1.419 1_554 S
C750 C751 1.363 . S
C750 H753 0.929 . S
C751 C750 1.363 . S
C751 C757 1.428 . S
H752 C748 0.930 . S
H753 C750 0.929 . S
S754 N755 1.598 1_554 S
S754 N756 1.610 . S
N755 S754 1.598 1_556 S
N755 C758 1.351 . S
N756 S754 1.610 . S
N756 C757 1.351 . S
C757 C751 1.428 . S
C757 N756 1.351 . S
C757 C758 1.434 1_554 S
C758 C749 1.429 . S
C758 N755 1.351 . S
C758 C757 1.434 1_556 S
C759 C760 1.368 1_556 S
C759 C761 1.419 . S
C759 H763 0.930 . S
C760 C759 1.368 1_554 S
C760 C769 1.429 . S
C761 C759 1.419 . S
C761 C762 1.363 . S
C761 H764 0.929 . S
C762 C761 1.363 . S
C762 C768 1.428 1_556 S
H763 C759 0.930 . S
H764 C761 0.929 . S
S765 N766 1.613 . S
S765 N767 1.610 . S
N766 S765 1.613 . S
N766 C769 1.350 . S
N767 S765 1.610 . S
N767 C768 1.351 . S
C768 C762 1.428 1_554 S
C768 N767 1.351 . S
C768 C769 1.434 . S
C769 C760 1.429 . S
C769 N766 1.350 . S
C769 C768 1.434 . S
C770 C771 1.369 . S
C770 C772 1.419 . S
C770 H774 0.930 . S
C771 C770 1.369 . S
C771 C780 1.429 . S
C772 C770 1.419 . S
C772 C773 1.363 . S
C772 H775 0.929 . S
C773 C772 1.363 . S
C773 C779 1.428 . S
H774 C770 0.930 . S
H775 C772 0.929 . S
S776 N777 1.613 . S
S776 N778 1.610 . S
N777 S776 1.613 . S
N777 C780 1.350 . S
N778 S776 1.610 . S
N778 C779 1.351 . S
C779 C773 1.428 . S
C779 N778 1.351 . S
C779 C780 1.434 . S
C780 C771 1.429 . S
C780 N777 1.350 . S
C780 C779 1.434 . S
C781 C782 1.369 . S
C781 C783 1.419 . S
C781 H785 0.930 . S
C782 C781 1.369 . S
C782 C791 1.429 . S
C783 C781 1.419 . S
C783 C784 1.363 . S
C783 H786 0.929 . S
C784 C783 1.363 . S
C784 C790 1.428 . S
H785 C781 0.930 . S
H786 C783 0.929 . S
S787 N788 1.613 . S
S787 N789 1.610 . S
N788 S787 1.613 . S
N788 C791 1.350 . S
N789 S787 1.610 . S
N789 C790 1.351 . S
C790 C784 1.428 . S
C790 N789 1.351 . S
C790 C791 1.434 . S
C791 C782 1.429 . S
C791 N788 1.350 . S
C791 C790 1.434 . S
C792 C793 1.369 1_565 S
C792 C794 1.419 . S
C792 H796 0.930 . S
C793 C792 1.369 1_545 S
C793 C802 1.429 . S
C794 C792 1.419 . S
C794 C795 1.363 . S
C794 H797 0.929 . S
C795 C794 1.363 . S
C795 C801 1.428 1_565 S
H796 C792 0.930 . S
H797 C794 0.929 . S
S798 N799 1.613 . S
S798 N800 1.610 . S
N799 S798 1.613 . S
N799 C802 1.350 . S
N800 S798 1.610 . S
N800 C801 1.351 . S
C801 C795 1.428 1_545 S
C801 N800 1.351 . S
C801 C802 1.434 . S
C802 C793 1.429 . S
C802 N799 1.350 . S
C802 C801 1.434 . S
C803 C804 1.369 . S
C803 C805 1.419 . S
C803 H807 0.930 . S
C804 C803 1.369 . S
C804 C813 1.429 . S
C805 C803 1.419 . S
C805 C806 1.363 . S
C805 H808 0.929 . S
C806 C805 1.363 . S
C806 C812 1.428 . S
H807 C803 0.930 . S
H808 C805 0.929 . S
S809 N810 1.613 . S
S809 N811 1.610 . S
N810 S809 1.613 . S
N810 C813 1.350 . S
N811 S809 1.610 . S
N811 C812 1.351 . S
C812 C806 1.428 . S
C812 N811 1.351 . S
C812 C813 1.434 . S
C813 C804 1.429 . S
C813 N810 1.350 . S
C813 C812 1.434 . S
C814 C815 1.369 . S
C814 C816 1.419 . S
C814 H818 0.930 . S
C815 C814 1.369 . S
C815 C824 1.429 1_565 S
C816 C814 1.419 . S
C816 C817 1.363 1_565 S
C816 H819 0.929 . S
C817 C816 1.363 1_545 S
C817 C823 1.428 . S
H818 C814 0.930 . S
H819 C816 0.929 . S
S820 N821 1.613 . S
S820 N822 1.610 . S
N821 S820 1.613 . S
N821 C824 1.350 . S
N822 S820 1.610 . S
N822 C823 1.351 . S
C823 C817 1.428 . S
C823 N822 1.351 . S
C823 C824 1.434 . S
C824 C815 1.429 1_545 S
C824 N821 1.350 . S
C824 C823 1.434 . S
C825 C826 1.369 . S
C825 C827 1.419 . S
C825 H829 0.930 . S
C826 C825 1.369 . S
C826 C835 1.429 . S
C827 C825 1.419 . S
C827 C828 1.363 . S
C827 H830 0.929 . S
C828 C827 1.363 . S
C828 C834 1.428 . S
H829 C825 0.930 . S
H830 C827 0.929 . S
S831 N832 1.613 . S
S831 N833 1.610 . S
N832 S831 1.613 . S
N832 C835 1.350 . S
N833 S831 1.610 . S
N833 C834 1.351 . S
C834 C828 1.428 . S
C834 N833 1.351 . S
C834 C835 1.434 . S
C835 C826 1.429 . S
C835 N832 1.350 . S
C835 C834 1.434 . S
C836 C837 1.369 . S
C836 C838 1.419 . S
C836 H840 0.930 . S
C837 C836 1.369 . S
C837 C846 1.429 . S
C838 C836 1.419 . S
C838 C839 1.363 . S
C838 H841 0.929 . S
C839 C838 1.363 . S
C839 C845 1.428 . S
H840 C836 0.930 . S
H841 C838 0.929 . S
S842 N843 1.613 . S
S842 N844 1.610 . S
N843 S842 1.613 . S
N843 C846 1.350 . S
N844 S842 1.610 . S
N844 C845 1.351 . S
C845 C839 1.428 . S
C845 N844 1.351 . S
C845 C846 1.434 . S
C846 C837 1.429 . S
C846 N843 1.350 . S
C846 C845 1.434 . S
C847 C848 1.369 . S
C847 C849 1.419 . S
C847 H851 0.930 . S
C848 C847 1.369 . S
C848 C857 1.429 1_545 S
C849 C847 1.419 . S
C849 C850 1.363 1_545 S
C849 H852 0.929 . S
C850 C849 1.363 1_565 S
C850 C856 1.428 . S
H851 C847 0.930 . S
H852 C849 0.929 . S
S853 N854 1.613 . S
S853 N855 1.610 . S
N854 S853 1.613 . S
N854 C857 1.350 . S
N855 S853 1.610 . S
N855 C856 1.351 . S
C856 C850 1.428 . S
C856 N855 1.351 . S
C856 C857 1.434 . S
C857 C848 1.429 1_565 S
C857 N854 1.350 . S
C857 C856 1.434 . S
C858 C859 1.369 . S
C858 C860 1.419 . S
C858 H862 0.930 . S
C859 C858 1.369 . S
C859 C868 1.429 . S
C860 C858 1.419 . S
C860 C861 1.363 . S
C860 H863 0.929 . S
C861 C860 1.363 . S
C861 C867 1.428 . S
H862 C858 0.930 . S
H863 C860 0.929 . S
S864 N865 1.613 . S
S864 N866 1.610 . S
N865 S864 1.613 . S
N865 C868 1.350 . S
N866 S864 1.610 . S
N866 C867 1.351 . S
C867 C861 1.428 . S
C867 N866 1.351 . S
C867 C868 1.434 . S
C868 C859 1.429 . S
C868 N865 1.350 . S
C868 C867 1.434 . S
C869 C870 1.369 . S
C869 C871 1.419 1_545 S
C869 H873 0.930 . S
C870 C869 1.369 . S
C870 C879 1.429 . S
C871 C869 1.419 1_565 S
C871 C872 1.363 . S
C871 H874 0.929 . S
C872 C871 1.363 . S
C872 C878 1.428 . S
H873 C869 0.930 . S
H874 C871 0.929 . S
S875 N876 1.613 1_565 S
S875 N877 1.610 . S
N876 S875 1.613 1_545 S
N876 C879 1.350 . S
N877 S875 1.610 . S
N877 C878 1.351 . S
C878 C872 1.428 . S
C878 N877 1.351 . S
C878 C879 1.434 1_565 S
C879 C870 1.429 . S
C879 N876 1.350 . S
C879 C878 1.434 1_545 S
C880 C881 1.369 . S
C880 C882 1.419 . S
C880 H884 0.930 . S
C881 C880 1.369 . S
C881 C890 1.429 . S
C882 C880 1.419 . S
C882 C883 1.363 . S
C882 H885 0.929 . S
C883 C882 1.363 . S
C883 C889 1.428 . S
H884 C880 0.930 . S
H885 C882 0.929 . S
S886 N887 1.613 . S
S886 N888 1.610 . S
N887 S886 1.613 . S
N887 C890 1.350 . S
N888 S886 1.610 . S
N888 C889 1.351 . S
C889 C883 1.428 . S
C889 N888 1.351 . S
C889 C890 1.434 . S
C890 C881 1.429 . S
C890 N887 1.350 . S
C890 C889 1.434 . S
C891 C892 1.369 . S
C891 C893 1.419 . S
C891 H895 0.930 . S
C892 C891 1.369 . S
C892 C901 1.429 . S
C893 C891 1.419 . S
C893 C894 1.363 . S
C893 H896 0.929 . S
C894 C893 1.363 . S
C894 C900 1.428 . S
H895 C891 0.930 . S
H896 C893 0.929 . S
S897 N898 1.613 . S
S897 N899 1.610 . S
N898 S897 1.613 . S
N898 C901 1.350 . S
N899 S897 1.610 . S
N899 C900 1.351 . S
C900 C894 1.428 . S
C900 N899 1.351 . S
C900 C901 1.434 . S
C901 C892 1.429 . S
C901 N898 1.350 . S
C901 C900 1.434 . S
C902 C903 1.369 . S
C902 C904 1.419 . S
C902 H906 0.930 . S
C903 C902 1.369 . S
C903 C912 1.429 . S
C904 C902 1.419 . S
C904 C905 1.363 . S
C904 H907 0.929 . S
C905 C904 1.363 . S
C905 C911 1.428 . S
H906 C902 0.930 . S
H907 C904 0.929 . S
S908 N909 1.613 . S
S908 N910 1.610 . S
N909 S908 1.613 . S
N909 C912 1.350 . S
N910 S908 1.610 . S
N910 C911 1.351 . S
C911 C905 1.428 . S
C911 N910 1.351 . S
C911 C912 1.434 . S
C912 C903 1.429 . S
C912 N909 1.350 . S
C912 C911 1.434 . S
C913 C914 1.369 . S
C913 C915 1.419 . S
C913 H917 0.930 . S
C914 C913 1.369 . S
C914 C923 1.429 . S
C915 C913 1.419 . S
C915 C916 1.363 . S
C915 H918 0.929 . S
C916 C915 1.363 . S
C916 C922 1.428 . S
H917 C913 0.930 . S
H918 C915 0.929 . S
S919 N920 1.613 . S
S919 N921 1.610 . S
N920 S919 1.613 . S
N920 C923 1.350 . S
N921 S919 1.610 . S
N921 C922 1.351 . S
C922 C916 1.428 . S
C922 N921 1.351 . S
C922 C923 1.434 . S
C923 C914 1.429 . S
C923 N920 1.350 . S
C923 C922 1.434 . S
C924 C925 1.369 . S
C924 C926 1.419 1_655 S
C924 H928 0.930 . S
C925 C924 1.369 . S
C925 C934 1.429 . S
C926 C924 1.419 1_455 S
C926 C927 1.363 . S
C926 H929 0.929 . S
C927 C926 1.363 . S
C927 C933 1.428 . S
H928 C924 0.930 . S
H929 C926 0.929 . S
S930 N931 1.613 . S
S930 N932 1.610 1_655 S
N931 S930 1.613 . S
N931 C934 1.350 . S
N932 S930 1.610 1_455 S
N932 C933 1.351 . S
C933 C927 1.428 . S
C933 N932 1.351 . S
C933 C934 1.434 1_455 S
C934 C925 1.429 . S
C934 N931 1.350 . S
C934 C933 1.434 1_655 S
C935 C936 1.369 . S
C935 C937 1.419 1_455 S
C935 H939 0.931 . S
C936 C935 1.369 . S
C936 C945 1.429 . S
C937 C935 1.419 1_655 S
C937 C938 1.363 . S
C937 H940 0.929 . S
C938 C937 1.363 . S
C938 C944 1.431 . S
H939 C935 0.931 . S
H940 C937 0.929 . S
S941 N942 1.613 . S
S941 N943 1.610 . S
N942 S941 1.613 . S
N942 C945 1.350 . S
N943 S941 1.610 . S
N943 C944 1.351 1_455 S
C944 C938 1.431 . S
C944 N943 1.351 1_655 S
C944 C945 1.432 1_655 S
C945 C936 1.429 . S
C945 N942 1.350 . S
C945 C944 1.432 1_455 S
C946 C947 1.369 . S
C946 C948 1.419 1_455 S
C946 H950 0.930 . S
C947 C946 1.369 . S
C947 C956 1.429 . S
C948 C946 1.419 1_655 S
C948 C949 1.363 . S
C948 H951 0.929 . S
C949 C948 1.363 . S
C949 C955 1.428 . S
H950 C946 0.930 . S
H951 C948 0.929 . S
S952 N953 1.613 1_655 S
S952 N954 1.610 . S
N953 S952 1.613 1_455 S
N953 C956 1.350 . S
N954 S952 1.610 . S
N954 C955 1.351 . S
C955 C949 1.428 . S
C955 N954 1.351 . S
C955 C956 1.434 1_655 S
C956 C947 1.429 . S
C956 N953 1.350 . S
C956 C955 1.434 1_455 S
C957 C958 1.369 . S
C957 C959 1.419 1_655 S
C957 H961 0.930 . S
C958 C957 1.369 . S
C958 C967 1.429 . S
C959 C957 1.419 1_455 S
C959 C960 1.363 . S
C959 H962 0.929 . S
C960 C959 1.363 . S
C960 C966 1.428 . S
H961 C957 0.930 . S
H962 C959 0.929 . S
S963 N964 1.613 1_455 S
S963 N965 1.610 . S
N964 S963 1.613 1_655 S
N964 C967 1.350 . S
N965 S963 1.610 . S
N965 C966 1.351 . S
C966 C960 1.428 . S
C966 N965 1.351 . S
C966 C967 1.434 1_455 S
C967 C958 1.429 . S
C967 N964 1.350 . S
C967 C966 1.434 1_655 S
C529 C28 0.950 1_565 S
C531 C470 0.944 . S
C540 C61 0.950 . S
C542 C503 0.946 . S
C551 C94 0.952 1_545 S
C553 C404 0.949 . S
C562 C437 0.943 . S
C564 C127 0.950 . S
C573 C160 0.951 1_545 S
C575 C338 0.947 . S
C584 C193 0.951 . S
C586 C371 0.946 . S
C595 C226 0.951 1_565 S
C597 C272 0.947 . S
C606 C305 0.945 . S
C608 C259 0.951 . S
C617 C292 0.951 . S
C619 C206 0.947 . S
C628 C239 0.944 . S
C630 C325 0.951 1_545 S
C639 C358 0.951 . S
C641 C140 0.947 . S
C650 C391 0.951 1_565 S
C652 C173 0.946 . S
C661 C424 0.950 . S
C663 C74 0.944 . S
C672 C457 0.951 1_565 S
C674 C107 0.946 . S
C683 C8 0.945 . S
C685 C490 0.950 . S
C694 C41 0.950 . S
C696 C523 0.952 1_545 S
C705 N14 1.790 . S
C707 N377 1.792 . S
C716 N344 1.788 . S
C718 N47 1.789 . S
C727 N80 1.791 . S
C729 N311 1.789 . S
C738 N278 1.796 . S
C740 N113 1.794 . S
C749 N146 1.789 . S
C751 N509 1.789 . S
C760 N476 1.791 . S
C762 N179 1.793 . S
C771 N212 1.790 . S
C773 N443 1.789 . S
C782 N245 1.788 . S
C784 N410 1.789 . S
C793 N5 1.882 . S
C795 N71 1.879 . S
C804 N38 1.879 . S
C806 N104 1.882 . S
C815 N137 1.879 . S
C817 N203 1.882 . S
C826 N236 1.879 . S
C828 N170 1.881 . S
C837 N335 1.879 . S
C839 N269 1.881 . S
C848 N368 1.878 . S
C850 N302 1.879 . S
C859 N401 1.879 . S
C861 N467 1.881 . S
C870 N434 1.878 . S
C872 N500 1.880 . S
C881 C50 1.584 . S
C883 C17 1.584 . S
C892 C83 1.583 . S
C894 C116 1.584 . S
C903 C149 1.586 . S
C905 C182 1.583 . S
C914 C248 1.588 . S
C916 C215 1.584 . S
C925 C281 1.582 . S
C927 C314 1.585 . S
C936 C380 1.583 . S
C938 C347 1.588 . S
C947 C413 1.587 . S
C949 C446 1.585 . S
C958 C512 1.585 . S
C960 C479 1.583 . S
