# Generated by pormake.
# Topology bcu, (8)-cn, num edge types: 1
# Building blocks:
#     Node 0, Type 0, BuildingBlock: VETTIZ_charged_sbu_0, # of connection points: 8
#     Node 1, Type 0, BuildingBlock: VETTIZ_charged_sbu_0, # of connection points: 8
#     Edge 2, Type (0, 0), BuildingBlock: MIFKUJ_clean_linker_0, # of connection points: 2
#     Edge 3, Type (0, 0), BuildingBlock: MIFKUJ_clean_linker_0, # of connection points: 2
#     Edge 4, Type (0, 0), BuildingBlock: MIFKUJ_clean_linker_0, # of connection points: 2
#     Edge 5, Type (0, 0), BuildingBlock: MIFKUJ_clean_linker_0, # of connection points: 2
#     Edge 6, Type (0, 0), BuildingBlock: MIFKUJ_clean_linker_0, # of connection points: 2
#     Edge 7, Type (0, 0), BuildingBlock: MIFKUJ_clean_linker_0, # of connection points: 2
#     Edge 8, Type (0, 0), BuildingBlock: MIFKUJ_clean_linker_0, # of connection points: 2
#     Edge 9, Type (0, 0), BuildingBlock: MIFKUJ_clean_linker_0, # of connection points: 2
# Relax obj value: 0.000
# Max RMSD: 0.009
# Mean RMSD: 0.009
data_MOF--net-bcu--node1-VETTIZ_charged_sbu_0--edge1-MIFKUJ_clean_linker_0
_symmetry_space_group_name_H-M    P1
_symmetry_Int_Tables_number       1
_symmetry_cell_setting            triclinic
loop_
_symmetry_equiv_pos_as_xyz
'x, y, z'
_cell_length_a     24.985816
_cell_length_b     24.48379
_cell_length_c     24.895161
_cell_angle_alpha  88.370421
_cell_angle_beta   91.056887
_cell_angle_gamma 88.824029
loop_
_atom_site_label
_atom_site_type_symbol
_atom_site_fract_x
_atom_site_fract_y
_atom_site_fract_z
_atom_type_partial_charge
Fe0 Fe 0.95788 0.90542 0.01069 0.0
O1 O 0.96653 0.9852 0.00973 0.0
Fe2 Fe 0.0095 1.01949 0.94542 0.0
Fe3 Fe 1.00079 0.02475 0.07019 0.0
O4 O 0.96812 0.98414 1.00432 0.0
O5 O 0.04389 0.05895 1.00576 0.0
O6 O 0.04283 0.05961 0.01133 0.0
Fe7 Fe 0.05284 0.13855 1.00433 0.0
C8 C 0.91026 0.9499 0.11262 0.0
O9 O 0.01173 0.8899 0.07418 0.0
O10 O 0.05973 0.96519 0.07976 0.0
O11 O 0.10699 0.11915 0.94611 0.0
O12 O 0.058 0.06332 0.89136 0.0
O13 O 0.06887 0.95932 0.94997 0.0
O14 O 0.01687 0.8868 0.95738 0.0
O15 O 0.04462 0.07134 0.12533 0.0
O16 O 0.10051 0.12268 0.07172 0.0
C17 C 0.05982 0.90908 0.94224 0.0
O18 O 0.99758 0.15402 0.94198 0.0
O19 O 0.95006 0.07827 0.93673 0.0
O20 O 0.90319 0.92517 0.0677 0.0
O21 O 0.95027 0.98168 0.12359 0.0
C22 C 0.05348 0.91453 0.08981 0.0
C23 C 0.08569 0.10283 0.11808 0.0
C24 C 0.95103 0.13602 0.07231 0.0
O25 O 0.94194 0.08565 0.06512 0.0
O26 O 0.99463 0.15754 0.05815 0.0
C27 C 0.09781 0.09552 0.90098 0.0
O28 O 0.96672 0.97277 0.89005 0.0
O29 O 0.91066 0.9209 0.94274 0.0
C30 C 0.95557 0.12913 0.92739 0.0
C31 C 0.92627 0.94054 0.89665 0.0
Fe32 Fe 0.51052 0.64219 0.54422 0.0
O33 O 0.50632 0.56233 0.54281 0.0
Fe34 Fe 0.5677 0.52035 0.50211 0.0
Fe35 Fe 0.44264 0.52335 0.51453 0.0
O36 O 0.51213 0.56225 0.5419 0.0
O37 O 0.504 0.48145 0.47357 0.0
O38 O 0.4982 0.48118 0.47502 0.0
Fe39 Fe 0.50028 0.40123 0.47309 0.0
C40 C 0.40611 0.60952 0.59703 0.0
O41 O 0.44863 0.65667 0.48856 0.0
O42 O 0.43411 0.5771 0.44986 0.0
O43 O 0.55587 0.41243 0.41479 0.0
O44 O 0.61668 0.4698 0.45372 0.0
O45 O 0.5641 0.57578 0.43776 0.0
O46 O 0.56489 0.65194 0.48433 0.0
O47 O 0.38346 0.47558 0.47812 0.0
O48 O 0.43218 0.41589 0.42662 0.0
C49 C 0.57613 0.62569 0.44263 0.0
O50 O 0.56456 0.3874 0.52575 0.0
O51 O 0.57589 0.46603 0.56655 0.0
O52 O 0.45253 0.63197 0.60074 0.0
O53 O 0.39301 0.57383 0.56129 0.0
C54 C 0.42911 0.6289 0.45057 0.0
C55 C 0.38789 0.44008 0.44023 0.0
C56 C 0.43874 0.4183 0.57736 0.0
O57 O 0.44657 0.46936 0.5794 0.0
O58 O 0.4492 0.39085 0.53617 0.0
C59 C 0.6025 0.43461 0.41761 0.0
O60 O 0.62668 0.56762 0.54063 0.0
O61 O 0.57674 0.62593 0.59269 0.0
C62 C 0.58273 0.41453 0.56473 0.0
C63 C 0.62143 0.60195 0.57969 0.0
H64 H 0.05115 0.10795 0.22235 0.0
H65 H 0.09287 0.15827 0.29546 0.0
H66 H 0.22511 0.19719 0.19304 0.0
H67 H 0.18501 0.14601 0.12125 0.0
H68 H 0.26107 0.1785 0.29056 0.0
H69 H 0.10942 0.28603 0.20903 0.0
H70 H 0.01361 0.30261 0.18721 0.0
H71 H 0.97607 0.28416 0.35436 0.0
H72 H 0.07163 0.26761 0.37702 0.0
H73 H 0.3725 0.4231 0.33457 0.0
H74 H 0.30737 0.36199 0.29557 0.0
H75 H 0.23088 0.34484 0.44883 0.0
H76 H 0.29609 0.40705 0.48813 0.0
H77 H 0.15918 0.34125 0.35059 0.0
H78 H 0.31544 0.2548 0.43176 0.0
H79 H 0.41241 0.24615 0.45118 0.0
H80 H 0.44202 0.22519 0.28359 0.0
H81 H 0.34528 0.2348 0.26302 0.0
C82 C 0.08981 0.12603 0.21602 0.0
C83 C 0.11446 0.12348 0.16572 0.0
C84 C 0.11331 0.15529 0.25764 0.0
C85 C 0.1616 0.18256 0.24942 0.0
C86 C 0.18775 0.17681 0.20044 0.0
C87 C 0.16457 0.1476 0.1592 0.0
C88 C 0.18421 0.22012 0.28946 0.0
C89 C 0.2386 0.21384 0.3039 0.0
C90 C 0.15471 0.26552 0.30848 0.0
C91 C 0.09741 0.2751 0.29462 0.0
C92 C 0.0806 0.28526 0.24102 0.0
C93 C 0.02637 0.29475 0.22852 0.0
C94 C 0.98871 0.29442 0.26937 0.0
C95 C 1.0052 0.28452 0.32275 0.0
C96 C 0.05938 0.27517 0.33546 0.0
C97 C 0.34047 0.40809 0.35939 0.0
C98 C 0.33926 0.41949 0.41426 0.0
C99 C 0.30347 0.37303 0.33719 0.0
C100 C 0.26514 0.34811 0.36966 0.0
C101 C 0.26031 0.36365 0.42324 0.0
C102 C 0.2973 0.39937 0.44552 0.0
C103 C 0.23626 0.30065 0.34895 0.0
C104 C 0.18106 0.30503 0.33851 0.0
C105 C 0.26496 0.2534 0.33345 0.0
C106 C 0.32307 0.24575 0.34584 0.0
C107 C 0.34264 0.24859 0.39901 0.0
C108 C 0.39758 0.24354 0.41023 0.0
C109 C 0.43336 0.23516 0.36864 0.0
C110 C 0.41425 0.23165 0.31577 0.0
C111 C 0.35935 0.23683 0.30432 0.0
H112 H 0.47589 0.23134 0.37738 0.0
H113 H 0.94682 0.30211 0.25973 0.0
H114 H 0.8482 0.11338 0.10485 0.0
H115 H 0.79025 0.17066 0.16039 0.0
H116 H 0.91209 0.29231 0.16649 0.0
H117 H 0.96963 0.23668 0.11145 0.0
H118 H 0.86173 0.24944 0.27313 0.0
H119 H 0.82752 0.33096 0.0946 0.0
H120 H 0.80115 0.32666 0.99888 0.0
H121 H 0.64844 0.26358 0.04275 0.0
H122 H 0.67434 0.26659 0.13878 0.0
H123 H 0.71173 0.4535 0.41029 0.0
H124 H 0.77435 0.41143 0.34761 0.0
H125 H 0.64365 0.32619 0.27432 0.0
H126 H 0.58171 0.36928 0.33345 0.0
H127 H 0.70377 0.3546 0.19973 0.0
H128 H 0.73603 0.26426 0.37411 0.0
H129 H 0.75987 0.26068 0.47084 0.0
H130 H 0.91132 0.33269 0.43698 0.0
H131 H 0.88787 0.33747 0.34014 0.0
C132 C 0.86248 0.15243 0.11782 0.0
C133 C 0.91358 0.17028 0.10344 0.0
C134 C 0.82945 0.18498 0.14959 0.0
C135 C 0.84739 0.23535 0.16793 0.0
C136 C 0.89799 0.25324 0.1534 0.0
C137 C 0.93056 0.22137 0.12136 0.0
C138 C 0.81382 0.26988 0.2024 0.0
C139 C 0.82749 0.27299 0.25712 0.0
C140 C 0.76887 0.29977 0.18151 0.0
C141 C 0.75313 0.29837 0.12384 0.0
C142 C 0.78856 0.31561 0.08383 0.0
C143 C 0.77365 0.31353 0.02951 0.0
C144 C 0.72321 0.29472 0.01472 0.0
C145 C 0.68753 0.27806 0.05425 0.0
C146 C 0.7023 0.27996 0.10862 0.0
C147 C 0.69641 0.42643 0.38027 0.0
C148 C 0.64159 0.41455 0.37772 0.0
C149 C 0.73228 0.40196 0.34471 0.0
C150 C 0.71398 0.36466 0.30662 0.0
C151 C 0.65912 0.35464 0.30304 0.0
C152 C 0.62356 0.37933 0.33761 0.0
C153 C 0.751 0.33404 0.27129 0.0
C154 C 0.73816 0.33155 0.21608 0.0
C155 C 0.79626 0.30399 0.29196 0.0
C156 C 0.81019 0.30139 0.35006 0.0
C157 C 0.7743 0.27955 0.3874 0.0
C158 C 0.7877 0.27733 0.44221 0.0
C159 C 0.83706 0.29648 0.46006 0.0
C160 C 0.87311 0.31787 0.42312 0.0
C161 C 0.85981 0.32029 0.36829 0.0
H162 H 0.84738 0.2947 0.5025 0.0
H163 H 0.71173 0.2932 0.97265 0.0
H164 H 0.92778 0.93507 0.22166 0.0
H165 H 0.86905 0.8856 0.28352 0.0
H166 H 0.74843 0.87844 0.15767 0.0
H167 H 0.80539 0.92951 0.09729 0.0
H168 H 0.70026 0.88258 0.24683 0.0
H169 H 0.84832 0.77583 0.18129 0.0
H170 H 0.94388 0.75452 0.16719 0.0
H171 H 0.97145 0.74168 0.33789 0.0
H172 H 0.87616 0.76384 0.353 0.0
H173 H 0.56879 0.63934 0.3325 0.0
H174 H 0.62687 0.69692 0.27626 0.0
H175 H 0.72616 0.72787 0.41527 0.0
H176 H 0.66821 0.67195 0.47099 0.0
H177 H 0.78518 0.71095 0.3212 0.0
H178 H 0.63228 0.81626 0.38308 0.0
H179 H 0.53523 0.8329 0.39232 0.0
H180 H 0.51553 0.84255 0.22058 0.0
H181 H 0.61243 0.82503 0.21033 0.0
C182 C 0.8879 0.9248 0.20808 0.0
C183 C 0.87146 0.93533 0.15448 0.0
C184 C 0.85462 0.89586 0.24313 0.0
C185 C 0.80497 0.87659 0.22469 0.0
C186 C 0.78664 0.89215 0.17285 0.0
C187 C 0.81942 0.92131 0.13824 0.0
C188 C 0.77418 0.83592 0.25646 0.0
C189 C 0.71892 0.84497 0.26274 0.0
C190 C 0.7982 0.78654 0.27725 0.0
C191 C 0.85526 0.77208 0.26827 0.0
C192 C 0.87483 0.76872 0.21581 0.0
C193 C 0.92893 0.75652 0.20764 0.0
C194 C 0.96375 0.74692 0.25162 0.0
C195 C 0.94446 0.74926 0.30386 0.0
C196 C 0.89041 0.76164 0.31226 0.0
C197 C 0.60373 0.65755 0.35044 0.0
C198 C 0.61419 0.6515 0.40585 0.0
C199 C 0.63665 0.6905 0.31856 0.0
C200 C 0.68059 0.7169 0.34183 0.0
C201 C 0.69264 0.70787 0.39652 0.0
C202 C 0.65947 0.676 0.42827 0.0
C203 C 0.71162 0.75772 0.31104 0.0
C204 C 0.76679 0.74865 0.30516 0.0
C205 C 0.6874 0.80657 0.28977 0.0
C206 C 0.62948 0.81882 0.29594 0.0
C207 C 0.60721 0.82165 0.34729 0.0
C208 C 0.55224 0.83123 0.35271 0.0
C209 C 0.51921 0.83862 0.30706 0.0
C210 C 0.54115 0.83673 0.2559 0.0
C211 C 0.59609 0.827 0.25026 0.0
H212 H 0.47664 0.8459 0.31134 0.0
H213 H 0.00564 0.73756 0.24521 0.0
H214 H 0.14699 0.95305 0.13254 0.0
H215 H 0.2131 0.90379 0.18992 0.0
H216 H 0.12059 0.75747 0.18035 0.0
H217 H 0.05366 0.80667 0.12361 0.0
H218 H 0.15271 0.77129 0.28073 0.0
H219 H 0.23762 0.77421 0.11022 0.0
H220 H 0.2721 0.81571 0.02671 0.0
H221 H 0.38097 0.9112 0.11865 0.0
H222 H 0.34651 0.87093 0.2028 0.0
H223 H 0.35278 0.58535 0.38526 0.0
H224 H 0.29249 0.63382 0.32075 0.0
H225 H 0.36953 0.7854 0.35425 0.0
H226 H 0.42963 0.73735 0.41965 0.0
H227 H 0.34674 0.76836 0.24134 0.0
H228 H 0.25963 0.7657 0.41177 0.0
H229 H 0.22597 0.72203 0.4946 0.0
H230 H 0.12153 0.62345 0.40079 0.0
H231 H 0.15531 0.66589 0.31729 0.0
C232 C 0.14071 0.9103 0.14229 0.0
C233 C 0.09491 0.88389 0.12306 0.0
C234 C 0.17879 0.88206 0.17504 0.0
C235 C 0.17234 0.82661 0.18906 0.0
C236 C 0.12664 0.80016 0.17005 0.0
C237 C 0.08845 0.82838 0.13735 0.0
C238 C 0.21257 0.79662 0.22452 0.0
C239 C 0.19499 0.77005 0.27157 0.0
C240 C 0.26807 0.79581 0.21343 0.0
C241 C 0.28906 0.81996 0.16287 0.0
C242 C 0.26859 0.8044 0.11267 0.0
C243 C 0.28819 0.82765 0.0652 0.0
C244 C 0.3286 0.86618 0.06738 0.0
C245 C 0.3496 0.88142 0.11703 0.0
C246 C 0.33007 0.85838 0.16463 0.0
C247 C 0.35737 0.62891 0.37857 0.0
C248 C 0.39586 0.65753 0.40793 0.0
C249 C 0.32272 0.65656 0.34177 0.0
C250 C 0.32623 0.71327 0.333 0.0
C251 C 0.36606 0.74165 0.36049 0.0
C252 C 0.40021 0.71416 0.39801 0.0
C253 C 0.28665 0.74313 0.29707 0.0
C254 C 0.30438 0.76964 0.25017 0.0
C255 C 0.23127 0.74371 0.30808 0.0
C256 C 0.21045 0.71853 0.35824 0.0
C257 C 0.22985 0.73435 0.40876 0.0
C258 C 0.21069 0.70988 0.45585 0.0
C259 C 0.17175 0.66987 0.45295 0.0
C260 C 0.15177 0.65438 0.40296 0.0
C261 C 0.17089 0.67864 0.35574 0.0
H262 H 0.15696 0.65097 0.48944 0.0
H263 H 0.34373 0.88412 0.03059 0.0
H264 H 0.03058 0.8265 0.87879 0.0
H265 H 0.08563 0.77318 0.81951 0.0
H266 H 0.22424 0.86403 0.86657 0.0
H267 H 0.16807 0.91982 0.925 0.0
H268 H 0.2254 0.84935 0.76323 0.0
H269 H 0.19915 0.72923 0.91539 0.0
H270 H 0.14743 0.67928 0.98364 0.0
H271 H 0.06553 0.59375 0.85945 0.0
H272 H 0.11624 0.64377 0.79039 0.0
H273 H 0.4249 0.66458 0.68849 0.0
H274 H 0.36061 0.71107 0.7439 0.0
H275 H 0.23072 0.64794 0.64955 0.0
H276 H 0.2956 0.60141 0.59202 0.0
H277 H 0.22147 0.64659 0.77208 0.0
H278 H 0.25231 0.76667 0.62018 0.0
H279 H 0.3084 0.81496 0.55452 0.0
H280 H 0.38642 0.89882 0.68229 0.0
H281 H 0.33125 0.85046 0.74883 0.0
C282 C 0.07293 0.83497 0.87711 0.0
C283 C 0.09522 0.87681 0.90745 0.0
C284 C 0.10444 0.80421 0.84312 0.0
C285 C 0.15947 0.81337 0.8395 0.0
C286 C 0.18191 0.85582 0.86902 0.0
C287 C 0.14994 0.88756 0.90251 0.0
C288 C 0.19295 0.77905 0.80414 0.0
C289 C 0.22489 0.80506 0.76574 0.0
C290 C 0.19142 0.72105 0.80618 0.0
C291 C 0.16115 0.69065 0.84769 0.0
C292 C 0.16985 0.70005 0.90261 0.0
C293 C 0.14075 0.67168 0.94145 0.0
C294 C 0.10313 0.63347 0.92588 0.0
C295 C 0.09464 0.62341 0.87145 0.0
C296 C 0.12359 0.65173 0.83244 0.0
C297 C 0.38273 0.66 0.67928 0.0
C298 C 0.36554 0.62979 0.63501 0.0
C299 C 0.34602 0.6867 0.71125 0.0
C300 C 0.29112 0.68365 0.70027 0.0
C301 C 0.27315 0.65094 0.65834 0.0
C302 C 0.3102 0.62429 0.62568 0.0
C303 C 0.25362 0.71707 0.73177 0.0
C304 C 0.22129 0.69092 0.7695 0.0
C305 C 0.25513 0.77485 0.72951 0.0
C306 C 0.28796 0.80453 0.68955 0.0
C307 C 0.28173 0.79506 0.63434 0.0
C308 C 0.31329 0.82254 0.59694 0.0
C309 C 0.35103 0.85986 0.61423 0.0
C310 C 0.35721 0.86985 0.66896 0.0
C311 C 0.32573 0.84249 0.70653 0.0
H312 H 0.37543 0.8811 0.58523 0.0
H313 H 0.08062 0.61156 0.95601 0.0
H314 H 0.33357 0.43558 0.59269 0.0
H315 H 0.27396 0.37701 0.64413 0.0
H316 H 0.41046 0.28101 0.70415 0.0
H317 H 0.46956 0.33766 0.64921 0.0
H318 H 0.34035 0.21541 0.67533 0.0
H319 H 0.33005 0.37423 0.78337 0.0
H320 H 0.31623 0.47196 0.80158 0.0
H321 H 0.15432 0.46536 0.74167 0.0
H322 H 0.16738 0.36775 0.72239 0.0
H323 H 0.20607 0.09301 0.90053 0.0
H324 H 0.26304 0.14379 0.83847 0.0
H325 H 0.12378 0.19357 0.743 0.0
H326 H 0.06671 0.14122 0.80436 0.0
H327 H 0.19104 0.28109 0.78678 0.0
H328 H 0.20348 0.11841 0.68434 0.0
H329 H 0.2194 1.01987 0.67212 0.0
H330 H 0.38129 0.03384 0.73011 0.0
H331 H 0.36611 0.1324 0.7435 0.0
C332 C 0.35076 0.4029 0.61821 0.0
C333 C 0.40599 0.39164 0.61829 0.0
C334 C 0.31672 0.36933 0.64762 0.0
C335 C 0.33752 0.3248 0.67894 0.0
C336 C 0.39325 0.31498 0.68043 0.0
C337 C 0.42713 0.34768 0.64973 0.0
C338 C 0.30104 0.28652 0.70722 0.0
C339 C 0.30828 0.22999 0.70033 0.0
C340 C 0.25803 0.30515 0.73881 0.0
C341 C 0.24988 0.36375 0.75097 0.0
C342 C 0.2916 0.39369 0.77377 0.0
C343 C 0.28388 0.44907 0.78432 0.0
C344 C 0.23448 0.4749 0.77265 0.0
C345 C 0.1926 0.44533 0.75061 0.0
C346 C 0.20012 0.38996 0.73992 0.0
C347 C 0.18799 0.11304 0.86509 0.0
C348 C 0.13229 0.11276 0.85663 0.0
C349 C 0.22043 0.14225 0.82992 0.0
C350 C 0.19751 0.17258 0.78641 0.0
C351 C 0.14211 0.17026 0.77637 0.0
C352 C 0.10971 0.13993 0.81096 0.0
C353 C 0.231 0.21068 0.75506 0.0
C354 C 0.22317 0.26699 0.76155 0.0
C355 C 0.27397 0.19188 0.724 0.0
C356 C 0.28348 0.13274 0.7154 0.0
C357 C 0.24235 0.10041 0.69492 0.0
C358 C 0.25127 0.04457 0.6877 0.0
C359 C 0.30127 1.0206 0.70048 0.0
C360 C 0.34255 0.05247 0.72029 0.0
C361 C 0.33383 0.10835 0.72765 0.0
H362 H 0.30802 0.97736 0.69495 0.0
H363 H 0.2286 0.51779 0.78078 0.0
H364 H 0.87426 0.08665 0.86758 0.0
H365 H 0.80747 0.13609 0.81101 0.0
H366 H 0.87303 0.28941 0.85817 0.0
H367 H 0.94051 0.24022 0.91482 0.0
H368 H 0.75837 0.28792 0.85614 0.0
H369 H 0.9066 0.24385 0.74284 0.0
H370 H 0.9733 0.18189 0.70351 0.0
H371 H 0.84718 0.08847 0.63448 0.0
H372 H 0.77963 0.14919 0.67445 0.0
H373 H 0.64218 0.45891 0.64598 0.0
H374 H 0.70099 0.41085 0.71203 0.0
H375 H 0.65676 0.25645 0.64673 0.0
H376 H 0.59871 0.30414 0.58002 0.0
H377 H 0.76037 0.2582 0.65985 0.0
H378 H 0.61166 0.30036 0.76944 0.0
H379 H 0.54262 0.35776 0.81107 0.0
H380 H 0.6648 0.44968 0.88878 0.0
H381 H 0.73466 0.39342 0.84684 0.0
C382 C 0.87436 0.13091 0.86636 0.0
C383 C 0.9131 0.15945 0.89553 0.0
C384 C 0.83615 0.15909 0.83386 0.0
C385 C 0.83554 0.21641 0.83004 0.0
C386 C 0.87286 0.24516 0.86049 0.0
C387 C 0.91156 0.21697 0.89262 0.0
C388 C 0.79742 0.24604 0.79243 0.0
C389 C 0.75914 0.28211 0.81311 0.0
C390 C 0.79755 0.23713 0.73652 0.0
C391 C 0.83806 0.20079 0.71207 0.0
C392 C 0.89307 0.20981 0.71969 0.0
C393 C 0.93102 0.17492 0.69726 0.0
C394 C 0.91447 0.13115 0.66667 0.0
C395 C 0.85991 0.12227 0.65835 0.0
C396 C 0.82177 0.15692 0.68087 0.0
C397 C 0.64453 0.41468 0.64593 0.0
C398 C 0.61568 0.38548 0.60745 0.0
C399 C 0.67812 0.38719 0.68394 0.0
C400 C 0.68318 0.32987 0.68475 0.0
C401 C 0.65374 0.30065 0.64693 0.0
C402 C 0.6204 0.32806 0.6088 0.0
C403 C 0.72083 0.3004 0.72332 0.0
C404 C 0.75927 0.26424 0.70282 0.0
C405 C 0.72035 0.30883 0.77945 0.0
C406 C 0.67844 0.34308 0.80441 0.0
C407 C 0.62385 0.33319 0.79493 0.0
C408 C 0.58455 0.36545 0.81868 0.0
C409 C 0.59931 0.40746 0.85241 0.0
C410 C 0.65342 0.41721 0.86254 0.0
C411 C 0.6929 0.38514 0.83878 0.0
H412 H 0.56883 0.43235 0.87081 0.0
H413 H 0.94391 0.10421 0.6493 0.0
H414 H 0.72248 0.61771 0.5403 0.0
H415 H 0.79068 0.67643 0.58019 0.0
H416 H 0.69516 0.69144 0.72165 0.0
H417 H 0.6278 0.63313 0.68276 0.0
H418 H 0.71891 0.79353 0.65628 0.0
H419 H 0.79819 0.62744 0.74114 0.0
H420 H 0.84274 0.53674 0.7393 0.0
H421 H 0.97195 0.60516 0.65004 0.0
H422 H 0.92764 0.69619 0.65062 0.0
H423 H 0.82308 0.90936 0.88562 0.0
H424 H 0.78502 0.85525 0.81421 0.0
H425 H 0.93352 0.86305 0.72888 0.0
H426 H 0.97207 0.91762 0.80073 0.0
H427 H 0.89751 0.75714 0.7416 0.0
H428 H 0.8278 0.92655 0.67385 0.0
H429 H 0.78468 1.01782 0.67703 0.0
H430 H 0.63909 0.94567 0.73036 0.0
H431 H 0.68155 0.85399 0.72854 0.0
C432 C 0.7171 0.63199 0.58066 0.0
C433 C 0.66944 0.62168 0.60809 0.0
C434 C 0.75585 0.66574 0.60319 0.0
C435 C 0.74725 0.6889 0.65337 0.0
C436 C 0.70212 0.6744 0.68262 0.0
C437 C 0.66379 0.64091 0.66039 0.0
C438 C 0.78102 0.73303 0.67364 0.0
C439 C 0.7581 0.7858 0.67476 0.0
C440 C 0.83288 0.72315 0.69572 0.0
C441 C 0.85917 0.6684 0.69512 0.0
C442 C 0.83572 0.62301 0.72047 0.0
C443 C 0.86103 0.57158 0.71984 0.0
C444 C 0.91003 0.56513 0.69435 0.0
C445 C 0.9339 0.61017 0.6696 0.0
C446 C 0.90871 0.66168 0.67007 0.0
C447 C 0.84723 0.90071 0.85105 0.0
C448 C 0.90039 0.91795 0.84859 0.0
C449 C 0.82545 0.8698 0.81021 0.0
C450 C 0.8564 0.85525 0.76613 0.0
C451 C 0.90896 0.874 0.76249 0.0
C452 C 0.93067 0.90563 0.80322 0.0
C453 C 0.83421 0.81717 0.72656 0.0
C454 C 0.85913 0.76559 0.72166 0.0
C455 C 0.78417 0.82818 0.70062 0.0
C456 C 0.75801 0.88326 0.70119 0.0
C457 C 0.78668 0.93011 0.68656 0.0
C458 C 0.76235 0.98195 0.68811 0.0
C459 C 0.7092 0.98754 0.70388 0.0
C460 C 0.68025 0.94127 0.71809 0.0
C461 C 0.70442 0.88932 0.71673 0.0
H462 H 0.69046 0.02773 0.70507 0.0
H463 H 0.92959 0.5253 0.69396 0.0
loop_
_geom_bond_atom_site_label_1
_geom_bond_atom_site_label_2
_geom_bond_distance
_geom_bond_site_symmetry_2
_ccdc_geom_bond_type
Fe0 O1 1.886 . S
Fe0 O4 1.715 1_554 S
Fe0 O9 2.077 . S
Fe0 O14 1.935 1_554 S
Fe0 O20 2.077 1_455 S
Fe0 O29 1.935 1_454 S
O1 Fe0 1.886 . S
O1 Fe3 1.715 1_565 S
Fe2 O4 1.886 . S
Fe2 O5 1.715 1_565 S
Fe2 O12 1.935 1_565 S
Fe2 O13 2.077 . S
Fe2 O19 1.935 1_465 S
Fe2 O28 2.077 1_455 S
Fe3 O1 1.715 1_545 S
Fe3 O6 1.886 . S
Fe3 O10 1.935 1_545 S
Fe3 O15 2.077 . S
Fe3 O21 1.935 1_445 S
Fe3 O25 2.077 1_455 S
O4 Fe0 1.715 1_556 S
O4 Fe2 1.886 . S
O5 Fe2 1.715 1_545 S
O5 Fe7 1.886 . S
O6 Fe3 1.886 . S
O6 Fe7 1.715 1_554 S
Fe7 O5 1.886 . S
Fe7 O6 1.715 1_556 S
Fe7 O11 2.077 . S
Fe7 O16 1.935 1_556 S
Fe7 O18 2.077 1_455 S
Fe7 O26 1.935 1_456 S
C8 O20 1.381 . S
C8 O21 1.421 . S
O9 Fe0 2.077 . S
O9 C22 1.381 . S
O10 Fe3 1.935 1_565 S
O10 C22 1.421 . S
O11 Fe7 2.077 . S
O11 C27 1.381 . S
O12 Fe2 1.935 1_545 S
O12 C27 1.421 . S
O13 Fe2 2.077 . S
O13 C17 1.381 . S
O14 Fe0 1.935 1_556 S
O14 C17 1.421 . S
O15 Fe3 2.077 . S
O15 C23 1.381 . S
O16 Fe7 1.935 1_554 S
O16 C23 1.421 . S
C17 O13 1.381 . S
C17 O14 1.421 . S
O18 Fe7 2.077 1_655 S
O18 C30 1.381 . S
O19 Fe2 1.935 1_645 S
O19 C30 1.421 . S
O20 Fe0 2.077 1_655 S
O20 C8 1.381 . S
O21 Fe3 1.935 1_665 S
O21 C8 1.421 . S
C22 O9 1.381 . S
C22 O10 1.421 . S
C23 O15 1.381 . S
C23 O16 1.421 . S
C24 O25 1.381 . S
C24 O26 1.421 . S
O25 Fe3 2.077 1_655 S
O25 C24 1.381 . S
O26 Fe7 1.935 1_654 S
O26 C24 1.421 . S
C27 O11 1.381 . S
C27 O12 1.421 . S
O28 Fe2 2.077 1_655 S
O28 C31 1.381 . S
O29 Fe0 1.935 1_656 S
O29 C31 1.421 . S
C30 O18 1.381 . S
C30 O19 1.421 . S
C31 O28 1.381 . S
C31 O29 1.421 . S
Fe32 O33 1.886 . S
Fe32 O36 1.715 . S
Fe32 O41 2.077 . S
Fe32 O46 1.935 . S
Fe32 O52 2.077 . S
Fe32 O61 1.935 . S
O33 Fe32 1.886 . S
O33 Fe35 1.715 . S
Fe34 O36 1.886 . S
Fe34 O37 1.715 . S
Fe34 O44 1.935 . S
Fe34 O45 2.077 . S
Fe34 O51 1.935 . S
Fe34 O60 2.077 . S
Fe35 O33 1.715 . S
Fe35 O38 1.886 . S
Fe35 O42 1.935 . S
Fe35 O47 2.077 . S
Fe35 O53 1.935 . S
Fe35 O57 2.077 . S
O36 Fe32 1.715 . S
O36 Fe34 1.886 . S
O37 Fe34 1.715 . S
O37 Fe39 1.886 . S
O38 Fe35 1.886 . S
O38 Fe39 1.715 . S
Fe39 O37 1.886 . S
Fe39 O38 1.715 . S
Fe39 O43 2.077 . S
Fe39 O48 1.935 . S
Fe39 O50 2.077 . S
Fe39 O58 1.935 . S
C40 O52 1.381 . S
C40 O53 1.421 . S
O41 Fe32 2.077 . S
O41 C54 1.381 . S
O42 Fe35 1.935 . S
O42 C54 1.421 . S
O43 Fe39 2.077 . S
O43 C59 1.381 . S
O44 Fe34 1.935 . S
O44 C59 1.421 . S
O45 Fe34 2.077 . S
O45 C49 1.381 . S
O46 Fe32 1.935 . S
O46 C49 1.421 . S
O47 Fe35 2.077 . S
O47 C55 1.381 . S
O48 Fe39 1.935 . S
O48 C55 1.421 . S
C49 O45 1.381 . S
C49 O46 1.421 . S
O50 Fe39 2.077 . S
O50 C62 1.381 . S
O51 Fe34 1.935 . S
O51 C62 1.421 . S
O52 Fe32 2.077 . S
O52 C40 1.381 . S
O53 Fe35 1.935 . S
O53 C40 1.421 . S
C54 O41 1.381 . S
C54 O42 1.421 . S
C55 O47 1.381 . S
C55 O48 1.421 . S
C56 O57 1.381 . S
C56 O58 1.421 . S
O57 Fe35 2.077 . S
O57 C56 1.381 . S
O58 Fe39 1.935 . S
O58 C56 1.421 . S
C59 O43 1.381 . S
C59 O44 1.421 . S
O60 Fe34 2.077 . S
O60 C63 1.381 . S
O61 Fe32 1.935 . S
O61 C63 1.421 . S
C62 O50 1.381 . S
C62 O51 1.421 . S
C63 O60 1.381 . S
C63 O61 1.421 . S
H64 C82 0.951 . S
H65 C84 0.951 . S
H66 C86 0.950 . S
H67 C87 0.950 . S
H68 C89 0.950 . S
H69 C92 0.950 . S
H70 C93 0.950 . S
H71 C95 0.950 . S
H72 C96 0.950 . S
H73 C97 0.951 . S
H74 C99 0.951 . S
H75 C101 0.950 . S
H76 C102 0.950 . S
H77 C104 0.950 . S
H78 C107 0.950 . S
H79 C108 0.950 . S
H80 C110 0.950 . S
H81 C111 0.950 . S
C82 H64 0.951 . S
C82 C83 1.366 . S
C82 C84 1.388 . S
C83 C82 1.366 . S
C83 C87 1.385 . S
C84 H65 0.951 . S
C84 C82 1.388 . S
C84 C85 1.366 . S
C85 C84 1.366 . S
C85 C86 1.414 . S
C85 C88 1.499 . S
C86 H66 0.950 . S
C86 C85 1.414 . S
C86 C87 1.374 . S
C87 H67 0.950 . S
C87 C83 1.385 . S
C87 C86 1.374 . S
C88 C85 1.499 . S
C88 C89 1.373 . S
C88 C90 1.389 . S
C89 H68 0.950 . S
C89 C88 1.373 . S
C89 C105 1.377 . S
C90 C88 1.389 . S
C90 C91 1.524 . S
C90 C104 1.377 . S
C91 C90 1.524 . S
C91 C92 1.397 . S
C91 C96 1.363 . S
C92 H69 0.950 . S
C92 C91 1.397 . S
C92 C93 1.334 . S
C93 H70 0.950 . S
C93 C92 1.334 . S
C93 C94 1.287 . S
C94 C93 1.287 . S
C94 C95 1.524 . S
C94 H113 0.913 1_455 S
C95 H71 0.950 . S
C95 C94 1.524 . S
C95 C96 1.415 . S
C96 H72 0.950 . S
C96 C91 1.363 . S
C96 C95 1.415 . S
C97 H73 0.951 . S
C97 C98 1.366 . S
C97 C99 1.388 . S
C98 C97 1.366 . S
C98 C102 1.385 . S
C99 H74 0.951 . S
C99 C97 1.388 . S
C99 C100 1.366 . S
C100 C99 1.366 . S
C100 C101 1.414 . S
C100 C103 1.499 . S
C101 H75 0.950 . S
C101 C100 1.414 . S
C101 C102 1.374 . S
C102 H76 0.950 . S
C102 C98 1.385 . S
C102 C101 1.374 . S
C103 C100 1.499 . S
C103 C104 1.373 . S
C103 C105 1.389 . S
C104 H77 0.950 . S
C104 C90 1.377 . S
C104 C103 1.373 . S
C105 C89 1.377 . S
C105 C103 1.389 . S
C105 C106 1.524 . S
C106 C105 1.524 . S
C106 C107 1.397 . S
C106 C111 1.363 . S
C107 H78 0.950 . S
C107 C106 1.397 . S
C107 C108 1.334 . S
C108 H79 0.950 . S
C108 C107 1.334 . S
C108 C109 1.287 . S
C109 C108 1.287 . S
C109 C110 1.524 . S
C109 H112 0.999 . S
C110 H80 0.950 . S
C110 C109 1.524 . S
C110 C111 1.415 . S
C111 H81 0.950 . S
C111 C106 1.363 . S
C111 C110 1.415 . S
H112 C109 0.999 . S
H113 C94 0.913 1_655 S
H114 C132 0.951 . S
H115 C134 0.951 . S
H116 C136 0.950 . S
H117 C137 0.950 . S
H118 C139 0.950 . S
H119 C142 0.950 . S
H120 C143 0.950 . S
H121 C145 0.950 . S
H122 C146 0.950 . S
H123 C147 0.951 . S
H124 C149 0.951 . S
H125 C151 0.950 . S
H126 C152 0.950 . S
H127 C154 0.950 . S
H128 C157 0.950 . S
H129 C158 0.950 . S
H130 C160 0.950 . S
H131 C161 0.950 . S
C132 H114 0.951 . S
C132 C133 1.366 . S
C132 C134 1.388 . S
C133 C132 1.366 . S
C133 C137 1.385 . S
C134 H115 0.951 . S
C134 C132 1.388 . S
C134 C135 1.366 . S
C135 C134 1.366 . S
C135 C136 1.414 . S
C135 C138 1.499 . S
C136 H116 0.950 . S
C136 C135 1.414 . S
C136 C137 1.374 . S
C137 H117 0.950 . S
C137 C133 1.385 . S
C137 C136 1.374 . S
C138 C135 1.499 . S
C138 C139 1.373 . S
C138 C140 1.389 . S
C139 H118 0.950 . S
C139 C138 1.373 . S
C139 C155 1.377 . S
C140 C138 1.389 . S
C140 C141 1.524 . S
C140 C154 1.377 . S
C141 C140 1.524 . S
C141 C142 1.397 . S
C141 C146 1.363 . S
C142 H119 0.950 . S
C142 C141 1.397 . S
C142 C143 1.334 . S
C143 H120 0.950 . S
C143 C142 1.334 . S
C143 C144 1.287 . S
C144 C143 1.287 . S
C144 C145 1.524 . S
C144 H163 0.913 . S
C145 H121 0.950 . S
C145 C144 1.524 . S
C145 C146 1.415 . S
C146 H122 0.950 . S
C146 C141 1.363 . S
C146 C145 1.415 . S
C147 H123 0.951 . S
C147 C148 1.366 . S
C147 C149 1.388 . S
C148 C147 1.366 . S
C148 C152 1.385 . S
C149 H124 0.951 . S
C149 C147 1.388 . S
C149 C150 1.366 . S
C150 C149 1.366 . S
C150 C151 1.414 . S
C150 C153 1.499 . S
C151 H125 0.950 . S
C151 C150 1.414 . S
C151 C152 1.374 . S
C152 H126 0.950 . S
C152 C148 1.385 . S
C152 C151 1.374 . S
C153 C150 1.499 . S
C153 C154 1.373 . S
C153 C155 1.389 . S
C154 H127 0.950 . S
C154 C140 1.377 . S
C154 C153 1.373 . S
C155 C139 1.377 . S
C155 C153 1.389 . S
C155 C156 1.524 . S
C156 C155 1.524 . S
C156 C157 1.397 . S
C156 C161 1.363 . S
C157 H128 0.950 . S
C157 C156 1.397 . S
C157 C158 1.334 . S
C158 H129 0.950 . S
C158 C157 1.334 . S
C158 C159 1.287 . S
C159 C158 1.287 . S
C159 C160 1.524 . S
C159 H162 0.999 . S
C160 H130 0.950 . S
C160 C159 1.524 . S
C160 C161 1.415 . S
C161 H131 0.950 . S
C161 C156 1.363 . S
C161 C160 1.415 . S
H162 C159 0.999 . S
H163 C144 0.913 . S
H164 C182 0.951 . S
H165 C184 0.951 . S
H166 C186 0.950 . S
H167 C187 0.950 . S
H168 C189 0.950 . S
H169 C192 0.950 . S
H170 C193 0.950 . S
H171 C195 0.950 . S
H172 C196 0.950 . S
H173 C197 0.951 . S
H174 C199 0.951 . S
H175 C201 0.950 . S
H176 C202 0.950 . S
H177 C204 0.950 . S
H178 C207 0.950 . S
H179 C208 0.950 . S
H180 C210 0.950 . S
H181 C211 0.950 . S
C182 H164 0.951 . S
C182 C183 1.366 . S
C182 C184 1.388 . S
C183 C182 1.366 . S
C183 C187 1.385 . S
C184 H165 0.951 . S
C184 C182 1.388 . S
C184 C185 1.366 . S
C185 C184 1.366 . S
C185 C186 1.414 . S
C185 C188 1.499 . S
C186 H166 0.950 . S
C186 C185 1.414 . S
C186 C187 1.374 . S
C187 H167 0.950 . S
C187 C183 1.385 . S
C187 C186 1.374 . S
C188 C185 1.499 . S
C188 C189 1.373 . S
C188 C190 1.389 . S
C189 H168 0.950 . S
C189 C188 1.373 . S
C189 C205 1.377 . S
C190 C188 1.389 . S
C190 C191 1.524 . S
C190 C204 1.377 . S
C191 C190 1.524 . S
C191 C192 1.397 . S
C191 C196 1.363 . S
C192 H169 0.950 . S
C192 C191 1.397 . S
C192 C193 1.334 . S
C193 H170 0.950 . S
C193 C192 1.334 . S
C193 C194 1.287 . S
C194 C193 1.287 . S
C194 C195 1.524 . S
C194 H213 0.913 . S
C195 H171 0.950 . S
C195 C194 1.524 . S
C195 C196 1.415 . S
C196 H172 0.950 . S
C196 C191 1.363 . S
C196 C195 1.415 . S
C197 H173 0.951 . S
C197 C198 1.366 . S
C197 C199 1.388 . S
C198 C197 1.366 . S
C198 C202 1.385 . S
C199 H174 0.951 . S
C199 C197 1.388 . S
C199 C200 1.366 . S
C200 C199 1.366 . S
C200 C201 1.414 . S
C200 C203 1.499 . S
C201 H175 0.950 . S
C201 C200 1.414 . S
C201 C202 1.374 . S
C202 H176 0.950 . S
C202 C198 1.385 . S
C202 C201 1.374 . S
C203 C200 1.499 . S
C203 C204 1.373 . S
C203 C205 1.389 . S
C204 H177 0.950 . S
C204 C190 1.377 . S
C204 C203 1.373 . S
C205 C189 1.377 . S
C205 C203 1.389 . S
C205 C206 1.524 . S
C206 C205 1.524 . S
C206 C207 1.397 . S
C206 C211 1.363 . S
C207 H178 0.950 . S
C207 C206 1.397 . S
C207 C208 1.334 . S
C208 H179 0.950 . S
C208 C207 1.334 . S
C208 C209 1.287 . S
C209 C208 1.287 . S
C209 C210 1.524 . S
C209 H212 0.999 . S
C210 H180 0.950 . S
C210 C209 1.524 . S
C210 C211 1.415 . S
C211 H181 0.950 . S
C211 C206 1.363 . S
C211 C210 1.415 . S
H212 C209 0.999 . S
H213 C194 0.913 . S
H214 C232 0.951 . S
H215 C234 0.951 . S
H216 C236 0.950 . S
H217 C237 0.950 . S
H218 C239 0.950 . S
H219 C242 0.950 . S
H220 C243 0.950 . S
H221 C245 0.950 . S
H222 C246 0.950 . S
H223 C247 0.951 . S
H224 C249 0.951 . S
H225 C251 0.950 . S
H226 C252 0.950 . S
H227 C254 0.950 . S
H228 C257 0.950 . S
H229 C258 0.950 . S
H230 C260 0.950 . S
H231 C261 0.950 . S
C232 H214 0.951 . S
C232 C233 1.366 . S
C232 C234 1.388 . S
C233 C232 1.366 . S
C233 C237 1.385 . S
C234 H215 0.951 . S
C234 C232 1.388 . S
C234 C235 1.366 . S
C235 C234 1.366 . S
C235 C236 1.414 . S
C235 C238 1.499 . S
C236 H216 0.950 . S
C236 C235 1.414 . S
C236 C237 1.374 . S
C237 H217 0.950 . S
C237 C233 1.385 . S
C237 C236 1.374 . S
C238 C235 1.499 . S
C238 C239 1.373 . S
C238 C240 1.389 . S
C239 H218 0.950 . S
C239 C238 1.373 . S
C239 C255 1.377 . S
C240 C238 1.389 . S
C240 C241 1.524 . S
C240 C254 1.377 . S
C241 C240 1.524 . S
C241 C242 1.397 . S
C241 C246 1.363 . S
C242 H219 0.950 . S
C242 C241 1.397 . S
C242 C243 1.334 . S
C243 H220 0.950 . S
C243 C242 1.334 . S
C243 C244 1.287 . S
C244 C243 1.287 . S
C244 C245 1.524 . S
C244 H263 0.913 . S
C245 H221 0.950 . S
C245 C244 1.524 . S
C245 C246 1.415 . S
C246 H222 0.950 . S
C246 C241 1.363 . S
C246 C245 1.415 . S
C247 H223 0.951 . S
C247 C248 1.366 . S
C247 C249 1.388 . S
C248 C247 1.366 . S
C248 C252 1.385 . S
C249 H224 0.951 . S
C249 C247 1.388 . S
C249 C250 1.366 . S
C250 C249 1.366 . S
C250 C251 1.414 . S
C250 C253 1.499 . S
C251 H225 0.950 . S
C251 C250 1.414 . S
C251 C252 1.374 . S
C252 H226 0.950 . S
C252 C248 1.385 . S
C252 C251 1.374 . S
C253 C250 1.499 . S
C253 C254 1.373 . S
C253 C255 1.389 . S
C254 H227 0.950 . S
C254 C240 1.377 . S
C254 C253 1.373 . S
C255 C239 1.377 . S
C255 C253 1.389 . S
C255 C256 1.524 . S
C256 C255 1.524 . S
C256 C257 1.397 . S
C256 C261 1.363 . S
C257 H228 0.950 . S
C257 C256 1.397 . S
C257 C258 1.334 . S
C258 H229 0.950 . S
C258 C257 1.334 . S
C258 C259 1.287 . S
C259 C258 1.287 . S
C259 C260 1.524 . S
C259 H262 0.999 . S
C260 H230 0.950 . S
C260 C259 1.524 . S
C260 C261 1.415 . S
C261 H231 0.950 . S
C261 C256 1.363 . S
C261 C260 1.415 . S
H262 C259 0.999 . S
H263 C244 0.913 . S
H264 C282 0.951 . S
H265 C284 0.951 . S
H266 C286 0.950 . S
H267 C287 0.950 . S
H268 C289 0.950 . S
H269 C292 0.950 . S
H270 C293 0.950 . S
H271 C295 0.950 . S
H272 C296 0.950 . S
H273 C297 0.951 . S
H274 C299 0.951 . S
H275 C301 0.950 . S
H276 C302 0.950 . S
H277 C304 0.950 . S
H278 C307 0.950 . S
H279 C308 0.950 . S
H280 C310 0.950 . S
H281 C311 0.950 . S
C282 H264 0.951 . S
C282 C283 1.366 . S
C282 C284 1.388 . S
C283 C282 1.366 . S
C283 C287 1.385 . S
C284 H265 0.951 . S
C284 C282 1.388 . S
C284 C285 1.366 . S
C285 C284 1.366 . S
C285 C286 1.414 . S
C285 C288 1.499 . S
C286 H266 0.950 . S
C286 C285 1.414 . S
C286 C287 1.374 . S
C287 H267 0.950 . S
C287 C283 1.385 . S
C287 C286 1.374 . S
C288 C285 1.499 . S
C288 C289 1.373 . S
C288 C290 1.389 . S
C289 H268 0.950 . S
C289 C288 1.373 . S
C289 C305 1.377 . S
C290 C288 1.389 . S
C290 C291 1.524 . S
C290 C304 1.377 . S
C291 C290 1.524 . S
C291 C292 1.397 . S
C291 C296 1.363 . S
C292 H269 0.950 . S
C292 C291 1.397 . S
C292 C293 1.334 . S
C293 H270 0.950 . S
C293 C292 1.334 . S
C293 C294 1.287 . S
C294 C293 1.287 . S
C294 C295 1.524 . S
C294 H313 0.913 . S
C295 H271 0.950 . S
C295 C294 1.524 . S
C295 C296 1.415 . S
C296 H272 0.950 . S
C296 C291 1.363 . S
C296 C295 1.415 . S
C297 H273 0.951 . S
C297 C298 1.366 . S
C297 C299 1.388 . S
C298 C297 1.366 . S
C298 C302 1.385 . S
C299 H274 0.951 . S
C299 C297 1.388 . S
C299 C300 1.366 . S
C300 C299 1.366 . S
C300 C301 1.414 . S
C300 C303 1.499 . S
C301 H275 0.950 . S
C301 C300 1.414 . S
C301 C302 1.374 . S
C302 H276 0.950 . S
C302 C298 1.385 . S
C302 C301 1.374 . S
C303 C300 1.499 . S
C303 C304 1.373 . S
C303 C305 1.389 . S
C304 H277 0.950 . S
C304 C290 1.377 . S
C304 C303 1.373 . S
C305 C289 1.377 . S
C305 C303 1.389 . S
C305 C306 1.524 . S
C306 C305 1.524 . S
C306 C307 1.397 . S
C306 C311 1.363 . S
C307 H278 0.950 . S
C307 C306 1.397 . S
C307 C308 1.334 . S
C308 H279 0.950 . S
C308 C307 1.334 . S
C308 C309 1.287 . S
C309 C308 1.287 . S
C309 C310 1.524 . S
C309 H312 0.999 . S
C310 H280 0.950 . S
C310 C309 1.524 . S
C310 C311 1.415 . S
C311 H281 0.950 . S
C311 C306 1.363 . S
C311 C310 1.415 . S
H312 C309 0.999 . S
H313 C294 0.913 . S
H314 C332 0.951 . S
H315 C334 0.951 . S
H316 C336 0.950 . S
H317 C337 0.950 . S
H318 C339 0.950 . S
H319 C342 0.950 . S
H320 C343 0.950 . S
H321 C345 0.950 . S
H322 C346 0.950 . S
H323 C347 0.951 . S
H324 C349 0.951 . S
H325 C351 0.950 . S
H326 C352 0.950 . S
H327 C354 0.950 . S
H328 C357 0.950 . S
H329 C358 0.950 . S
H330 C360 0.950 . S
H331 C361 0.950 . S
C332 H314 0.951 . S
C332 C333 1.366 . S
C332 C334 1.388 . S
C333 C332 1.366 . S
C333 C337 1.385 . S
C334 H315 0.951 . S
C334 C332 1.388 . S
C334 C335 1.366 . S
C335 C334 1.366 . S
C335 C336 1.414 . S
C335 C338 1.499 . S
C336 H316 0.950 . S
C336 C335 1.414 . S
C336 C337 1.374 . S
C337 H317 0.950 . S
C337 C333 1.385 . S
C337 C336 1.374 . S
C338 C335 1.499 . S
C338 C339 1.373 . S
C338 C340 1.389 . S
C339 H318 0.950 . S
C339 C338 1.373 . S
C339 C355 1.377 . S
C340 C338 1.389 . S
C340 C341 1.524 . S
C340 C354 1.377 . S
C341 C340 1.524 . S
C341 C342 1.397 . S
C341 C346 1.363 . S
C342 H319 0.950 . S
C342 C341 1.397 . S
C342 C343 1.334 . S
C343 H320 0.950 . S
C343 C342 1.334 . S
C343 C344 1.287 . S
C344 C343 1.287 . S
C344 C345 1.524 . S
C344 H363 0.913 . S
C345 H321 0.950 . S
C345 C344 1.524 . S
C345 C346 1.415 . S
C346 H322 0.950 . S
C346 C341 1.363 . S
C346 C345 1.415 . S
C347 H323 0.951 . S
C347 C348 1.366 . S
C347 C349 1.388 . S
C348 C347 1.366 . S
C348 C352 1.385 . S
C349 H324 0.951 . S
C349 C347 1.388 . S
C349 C350 1.366 . S
C350 C349 1.366 . S
C350 C351 1.414 . S
C350 C353 1.499 . S
C351 H325 0.950 . S
C351 C350 1.414 . S
C351 C352 1.374 . S
C352 H326 0.950 . S
C352 C348 1.385 . S
C352 C351 1.374 . S
C353 C350 1.499 . S
C353 C354 1.373 . S
C353 C355 1.389 . S
C354 H327 0.950 . S
C354 C340 1.377 . S
C354 C353 1.373 . S
C355 C339 1.377 . S
C355 C353 1.389 . S
C355 C356 1.524 . S
C356 C355 1.524 . S
C356 C357 1.397 . S
C356 C361 1.363 . S
C357 H328 0.950 . S
C357 C356 1.397 . S
C357 C358 1.334 . S
C358 H329 0.950 . S
C358 C357 1.334 . S
C358 C359 1.287 . S
C359 C358 1.287 . S
C359 C360 1.524 . S
C359 H362 1.001 1_545 S
C360 H330 0.950 . S
C360 C359 1.524 . S
C360 C361 1.415 . S
C361 H331 0.950 . S
C361 C356 1.363 . S
C361 C360 1.415 . S
H362 C359 1.001 1_565 S
H363 C344 0.913 . S
H364 C382 0.951 . S
H365 C384 0.951 . S
H366 C386 0.950 . S
H367 C387 0.950 . S
H368 C389 0.950 . S
H369 C392 0.950 . S
H370 C393 0.950 . S
H371 C395 0.950 . S
H372 C396 0.950 . S
H373 C397 0.951 . S
H374 C399 0.951 . S
H375 C401 0.950 . S
H376 C402 0.950 . S
H377 C404 0.950 . S
H378 C407 0.950 . S
H379 C408 0.950 . S
H380 C410 0.950 . S
H381 C411 0.950 . S
C382 H364 0.951 . S
C382 C383 1.366 . S
C382 C384 1.388 . S
C383 C382 1.366 . S
C383 C387 1.385 . S
C384 H365 0.951 . S
C384 C382 1.388 . S
C384 C385 1.366 . S
C385 C384 1.366 . S
C385 C386 1.414 . S
C385 C388 1.499 . S
C386 H366 0.950 . S
C386 C385 1.414 . S
C386 C387 1.374 . S
C387 H367 0.950 . S
C387 C383 1.385 . S
C387 C386 1.374 . S
C388 C385 1.499 . S
C388 C389 1.373 . S
C388 C390 1.389 . S
C389 H368 0.950 . S
C389 C388 1.373 . S
C389 C405 1.377 . S
C390 C388 1.389 . S
C390 C391 1.524 . S
C390 C404 1.377 . S
C391 C390 1.524 . S
C391 C392 1.397 . S
C391 C396 1.363 . S
C392 H369 0.950 . S
C392 C391 1.397 . S
C392 C393 1.334 . S
C393 H370 0.950 . S
C393 C392 1.334 . S
C393 C394 1.287 . S
C394 C393 1.287 . S
C394 C395 1.524 . S
C394 H413 0.913 . S
C395 H371 0.950 . S
C395 C394 1.524 . S
C395 C396 1.415 . S
C396 H372 0.950 . S
C396 C391 1.363 . S
C396 C395 1.415 . S
C397 H373 0.951 . S
C397 C398 1.366 . S
C397 C399 1.388 . S
C398 C397 1.366 . S
C398 C402 1.385 . S
C399 H374 0.951 . S
C399 C397 1.388 . S
C399 C400 1.366 . S
C400 C399 1.366 . S
C400 C401 1.414 . S
C400 C403 1.499 . S
C401 H375 0.950 . S
C401 C400 1.414 . S
C401 C402 1.374 . S
C402 H376 0.950 . S
C402 C398 1.385 . S
C402 C401 1.374 . S
C403 C400 1.499 . S
C403 C404 1.373 . S
C403 C405 1.389 . S
C404 H377 0.950 . S
C404 C390 1.377 . S
C404 C403 1.373 . S
C405 C389 1.377 . S
C405 C403 1.389 . S
C405 C406 1.524 . S
C406 C405 1.524 . S
C406 C407 1.397 . S
C406 C411 1.363 . S
C407 H378 0.950 . S
C407 C406 1.397 . S
C407 C408 1.334 . S
C408 H379 0.950 . S
C408 C407 1.334 . S
C408 C409 1.287 . S
C409 C408 1.287 . S
C409 C410 1.524 . S
C409 H412 0.999 . S
C410 H380 0.950 . S
C410 C409 1.524 . S
C410 C411 1.415 . S
C411 H381 0.950 . S
C411 C406 1.363 . S
C411 C410 1.415 . S
H412 C409 0.999 . S
H413 C394 0.913 . S
H414 C432 0.951 . S
H415 C434 0.951 . S
H416 C436 0.950 . S
H417 C437 0.950 . S
H418 C439 0.950 . S
H419 C442 0.950 . S
H420 C443 0.950 . S
H421 C445 0.950 . S
H422 C446 0.950 . S
H423 C447 0.951 . S
H424 C449 0.951 . S
H425 C451 0.950 . S
H426 C452 0.950 . S
H427 C454 0.950 . S
H428 C457 0.950 . S
H429 C458 0.950 . S
H430 C460 0.950 . S
H431 C461 0.950 . S
C432 H414 0.951 . S
C432 C433 1.366 . S
C432 C434 1.388 . S
C433 C432 1.366 . S
C433 C437 1.385 . S
C434 H415 0.951 . S
C434 C432 1.388 . S
C434 C435 1.366 . S
C435 C434 1.366 . S
C435 C436 1.414 . S
C435 C438 1.499 . S
C436 H416 0.950 . S
C436 C435 1.414 . S
C436 C437 1.374 . S
C437 H417 0.950 . S
C437 C433 1.385 . S
C437 C436 1.374 . S
C438 C435 1.499 . S
C438 C439 1.373 . S
C438 C440 1.389 . S
C439 H418 0.950 . S
C439 C438 1.373 . S
C439 C455 1.377 . S
C440 C438 1.389 . S
C440 C441 1.524 . S
C440 C454 1.377 . S
C441 C440 1.524 . S
C441 C442 1.397 . S
C441 C446 1.363 . S
C442 H419 0.950 . S
C442 C441 1.397 . S
C442 C443 1.334 . S
C443 H420 0.950 . S
C443 C442 1.334 . S
C443 C444 1.287 . S
C444 C443 1.287 . S
C444 C445 1.524 . S
C444 H463 0.913 . S
C445 H421 0.950 . S
C445 C444 1.524 . S
C445 C446 1.415 . S
C446 H422 0.950 . S
C446 C441 1.363 . S
C446 C445 1.415 . S
C447 H423 0.951 . S
C447 C448 1.366 . S
C447 C449 1.388 . S
C448 C447 1.366 . S
C448 C452 1.385 . S
C449 H424 0.951 . S
C449 C447 1.388 . S
C449 C450 1.366 . S
C450 C449 1.366 . S
C450 C451 1.414 . S
C450 C453 1.499 . S
C451 H425 0.950 . S
C451 C450 1.414 . S
C451 C452 1.374 . S
C452 H426 0.950 . S
C452 C448 1.385 . S
C452 C451 1.374 . S
C453 C450 1.499 . S
C453 C454 1.373 . S
C453 C455 1.389 . S
C454 H427 0.950 . S
C454 C440 1.377 . S
C454 C453 1.373 . S
C455 C439 1.377 . S
C455 C453 1.389 . S
C455 C456 1.524 . S
C456 C455 1.524 . S
C456 C457 1.397 . S
C456 C461 1.363 . S
C457 H428 0.950 . S
C457 C456 1.397 . S
C457 C458 1.334 . S
C458 H429 0.950 . S
C458 C457 1.334 . S
C458 C459 1.287 . S
C459 C458 1.287 . S
C459 C460 1.524 . S
C459 H462 0.999 . S
C460 H430 0.950 . S
C460 C459 1.524 . S
C460 C461 1.415 . S
C461 H431 0.950 . S
C461 C456 1.363 . S
C461 C460 1.415 . S
H462 C459 0.999 . S
H463 C444 0.913 . S
C83 C23 1.452 . S
C98 C55 1.447 . S
C133 C24 1.451 . S
C148 C59 1.450 . S
C183 C8 1.452 . S
C198 C49 1.452 . S
C233 C22 1.452 . S
C248 C54 1.451 . S
C283 C17 1.452 . S
C298 C40 1.454 . S
C333 C56 1.451 . S
C348 C27 1.450 . S
C383 C30 1.452 . S
C398 C62 1.453 . S
C433 C63 1.451 . S
C448 C31 1.455 . S
