# Generated by pormake.
# Topology upa, (4)-cn, num edge types: 1
# Building blocks:
#     Node 0, Type 0, BuildingBlock: CEKHIL_clean_sbu_0, # of connection points: 4
#     Node 1, Type 0, BuildingBlock: CEKHIL_clean_sbu_0, # of connection points: 4
#     Node 2, Type 0, BuildingBlock: CEKHIL_clean_sbu_0, # of connection points: 4
#     Node 3, Type 0, BuildingBlock: CEKHIL_clean_sbu_0, # of connection points: 4
#     Node 4, Type 0, BuildingBlock: CEKHIL_clean_sbu_0, # of connection points: 4
#     Node 5, Type 0, BuildingBlock: CEKHIL_clean_sbu_0, # of connection points: 4
#     Node 6, Type 0, BuildingBlock: CEKHIL_clean_sbu_0, # of connection points: 4
#     Node 7, Type 0, BuildingBlock: CEKHIL_clean_sbu_0, # of connection points: 4
#     Edge 8, Type (0, 0), BuildingBlock: ZUJKAS_clean_linker_0, # of connection points: 2
#     Edge 9, Type (0, 0), BuildingBlock: ZUJKAS_clean_linker_0, # of connection points: 2
#     Edge 10, Type (0, 0), BuildingBlock: ZUJKAS_clean_linker_0, # of connection points: 2
#     Edge 11, Type (0, 0), BuildingBlock: ZUJKAS_clean_linker_0, # of connection points: 2
#     Edge 12, Type (0, 0), BuildingBlock: ZUJKAS_clean_linker_0, # of connection points: 2
#     Edge 13, Type (0, 0), BuildingBlock: ZUJKAS_clean_linker_0, # of connection points: 2
#     Edge 14, Type (0, 0), BuildingBlock: ZUJKAS_clean_linker_0, # of connection points: 2
#     Edge 15, Type (0, 0), BuildingBlock: ZUJKAS_clean_linker_0, # of connection points: 2
#     Edge 16, Type (0, 0), BuildingBlock: ZUJKAS_clean_linker_0, # of connection points: 2
#     Edge 17, Type (0, 0), BuildingBlock: ZUJKAS_clean_linker_0, # of connection points: 2
#     Edge 18, Type (0, 0), BuildingBlock: ZUJKAS_clean_linker_0, # of connection points: 2
#     Edge 19, Type (0, 0), BuildingBlock: ZUJKAS_clean_linker_0, # of connection points: 2
#     Edge 20, Type (0, 0), BuildingBlock: ZUJKAS_clean_linker_0, # of connection points: 2
#     Edge 21, Type (0, 0), BuildingBlock: ZUJKAS_clean_linker_0, # of connection points: 2
#     Edge 22, Type (0, 0), BuildingBlock: ZUJKAS_clean_linker_0, # of connection points: 2
#     Edge 23, Type (0, 0), BuildingBlock: ZUJKAS_clean_linker_0, # of connection points: 2
# Relax obj value: 0.234
# Max RMSD: 0.138
# Mean RMSD: 0.138
data_MOF--net-upa--node1-CEKHIL_clean_sbu_0--edge1-ZUJKAS_clean_linker_0
_symmetry_space_group_name_H-M    P1
_symmetry_Int_Tables_number       1
_symmetry_cell_setting            triclinic
loop_
_symmetry_equiv_pos_as_xyz
'x, y, z'
_cell_length_a     33.370705
_cell_length_b     33.368804
_cell_length_c     56.195125
_cell_angle_alpha  90.001105
_cell_angle_beta   90.005472
_cell_angle_gamma 89.999394
loop_
_atom_site_label
_atom_site_type_symbol
_atom_site_fract_x
_atom_site_fract_y
_atom_site_fract_z
_atom_type_partial_charge
Co0 Co 0.17599 0.23925 0.33426 0.0
O1 O 0.2196 0.27276 0.32322 0.0
O2 O 0.22399 0.20755 0.32958 0.0
C3 C 0.12751 0.26179 0.30924 0.0
O4 O 0.13784 0.19438 0.3437 0.0
Co5 Co 0.10056 0.27628 0.35828 0.0
O6 O 0.07932 0.2209 0.35606 0.0
C7 C 0.17432 0.26746 0.38653 0.0
C8 C 0.24118 0.24035 0.32243 0.0
C9 C 0.10118 0.19099 0.35057 0.0
O10 O 0.19097 0.24864 0.36904 0.0
O11 O 0.13976 0.28389 0.38491 0.0
O12 O 0.15437 0.23646 0.30193 0.0
O13 O 0.1341 0.2767 0.33015 0.0
Co14 Co 0.26376 0.67895 0.83317 0.0
O15 O 0.23154 0.72374 0.82243 0.0
O16 O 0.29685 0.72605 0.82871 0.0
C17 C 0.24027 0.63146 0.80784 0.0
O18 O 0.3074 0.63935 0.84243 0.0
Co19 Co 0.2244 0.60421 0.85659 0.0
O20 O 0.279 0.58116 0.85382 0.0
C21 C 0.23551 0.67709 0.88541 0.0
C22 C 0.26456 0.74437 0.8217 0.0
C23 C 0.30962 0.60231 0.84872 0.0
O24 O 0.25466 0.69359 0.868 0.0
O25 O 0.21818 0.64299 0.88358 0.0
O26 O 0.26631 0.6578 0.80078 0.0
O27 O 0.2251 0.63826 0.82867 0.0
Co28 Co 0.82553 0.76195 0.33207 0.0
O29 O 0.78079 0.72912 0.32183 0.0
O30 O 0.77791 0.79442 0.32802 0.0
C31 C 0.8725 0.73879 0.30623 0.0
O32 O 0.8647 0.80636 0.34094 0.0
Co33 Co 0.90235 0.72431 0.3543 0.0
O34 O 0.92402 0.77934 0.35145 0.0
C35 C 0.83137 0.73729 0.38481 0.0
C36 C 0.75976 0.7619 0.32124 0.0
C37 C 0.90186 0.80946 0.34686 0.0
O38 O 0.81205 0.75273 0.36711 0.0
O39 O 0.86658 0.72243 0.38287 0.0
O40 O 0.84573 0.7646 0.29944 0.0
O41 O 0.86662 0.72377 0.32718 0.0
Co42 Co 0.73969 0.32749 0.83373 0.0
O43 O 0.77359 0.28405 0.8228 0.0
O44 O 0.70836 0.2793 0.82904 0.0
C45 C 0.76186 0.37628 0.80882 0.0
O46 O 0.69442 0.36524 0.84302 0.0
Co47 Co 0.77581 0.40309 0.858 0.0
O48 O 0.72031 0.42389 0.85564 0.0
C49 C 0.76667 0.32945 0.8863 0.0
C50 C 0.74132 0.26225 0.82204 0.0
C51 C 0.69065 0.40182 0.84996 0.0
O52 O 0.74889 0.31252 0.86852 0.0
O53 O 0.78251 0.36431 0.88493 0.0
O54 O 0.73696 0.3491 0.80142 0.0
O55 O 0.77678 0.36977 0.82974 0.0
Co56 Co 0.67619 0.26256 0.18056 0.0
O57 O 0.72001 0.22931 0.19158 0.0
O58 O 0.72414 0.29448 0.18499 0.0
C59 C 0.62809 0.23999 0.20585 0.0
O60 O 0.63776 0.30718 0.17099 0.0
Co61 Co 0.60056 0.22522 0.15704 0.0
O62 O 0.57816 0.27968 0.16188 0.0
C63 C 0.67382 0.2345 0.12828 0.0
C64 C 0.74149 0.26178 0.1922 0.0
C65 C 0.60014 0.3101 0.1661 0.0
O66 O 0.69091 0.25285 0.1458 0.0
O67 O 0.63908 0.21846 0.12996 0.0
O68 O 0.65485 0.26559 0.21295 0.0
O69 O 0.63455 0.22495 0.18496 0.0
Co70 Co 0.23878 0.17897 0.68142 0.0
O71 O 0.27099 0.22377 0.69218 0.0
O72 O 0.20573 0.22613 0.68573 0.0
C73 C 0.26187 0.13154 0.70688 0.0
O74 O 0.19508 0.13944 0.67211 0.0
Co75 Co 0.27796 0.10398 0.65823 0.0
O76 O 0.22337 0.08098 0.66112 0.0
C77 C 0.26705 0.17663 0.62915 0.0
C78 C 0.23798 0.24443 0.69281 0.0
C79 C 0.19279 0.1023 0.66604 0.0
O80 O 0.2483 0.19347 0.6466 0.0
O81 O 0.28392 0.14231 0.63099 0.0
O82 O 0.23582 0.15797 0.7138 0.0
O83 O 0.27732 0.13819 0.68611 0.0
Co84 Co 0.32545 0.73867 0.18065 0.0
O85 O 0.28034 0.77079 0.19102 0.0
O86 O 0.27818 0.70556 0.18446 0.0
C87 C 0.372 0.76191 0.20668 0.0
O88 O 0.3654 0.69513 0.17151 0.0
Co89 Co 0.40126 0.77777 0.15848 0.0
O90 O 0.42513 0.72444 0.16511 0.0
C91 C 0.32971 0.76636 0.12834 0.0
C92 C 0.25967 0.73779 0.1914 0.0
C93 C 0.40359 0.69336 0.16831 0.0
O94 O 0.31193 0.74836 0.14574 0.0
O95 O 0.36431 0.7826 0.13045 0.0
O96 O 0.3455 0.73568 0.21327 0.0
O97 O 0.36595 0.77728 0.18582 0.0
Co98 Co 0.76147 0.82793 0.67996 0.0
O99 O 0.72733 0.78426 0.69033 0.0
O100 O 0.79261 0.7795 0.68436 0.0
C101 C 0.73894 0.87585 0.7054 0.0
O102 O 0.80711 0.86579 0.67131 0.0
Co103 Co 0.7264 0.90531 0.65693 0.0
O104 O 0.78191 0.92553 0.66005 0.0
C105 C 0.73778 0.83347 0.62701 0.0
C106 C 0.75957 0.76242 0.69119 0.0
C107 C 0.8113 0.90275 0.66518 0.0
O108 O 0.75263 0.81416 0.6449 0.0
O109 O 0.72362 0.86899 0.62868 0.0
O110 O 0.76383 0.84848 0.71255 0.0
O111 O 0.72439 0.87017 0.68432 0.0
H112 H 0.04476 0.16471 0.38177 0.0
H113 H 0.01228 0.09908 0.38271 0.0
H114 H 0.08161 0.06237 0.32161 0.0
H115 H 0.11587 0.1272 0.32157 0.0
H116 H 0.96553 0.06532 0.35281 0.0
H117 H 0.09813 0.96728 0.36222 0.0
H118 H 0.10131 0.02093 0.36533 0.0
H119 H 0.10195 0.99813 0.33624 0.0
C120 C 0.05344 0.14235 0.36877 0.0
C121 C 0.08304 0.15078 0.35173 0.0
C122 C 0.03481 0.10492 0.36927 0.0
C123 C 0.04489 0.07542 0.35248 0.0
C124 C 0.07422 0.08403 0.33526 0.0
H125 H 0.88622 0.87499 0.31933 0.0
H126 H 0.92021 0.94001 0.32062 0.0
C127 C 0.09362 0.12116 0.33515 0.0
C128 C 0.02333 0.03647 0.3524 0.0
H129 H 0.0371 0.93522 0.3508 0.0
C130 C 0.98122 0.03685 0.3526 0.0
C131 C 0.04369 0.99925 0.35248 0.0
C132 C 0.08873 0.99633 0.35432 0.0
C133 C 0.95893 1.0012 0.35274 0.0
C134 C 0.97929 0.96403 0.35151 0.0
C135 C 0.0214 0.96366 0.35146 0.0
C136 C 0.95779 0.92506 0.35081 0.0
C137 C 0.91392 0.00394 0.35489 0.0
C138 C 0.96842 0.8945 0.36679 0.0
C139 C 0.94999 0.85704 0.36555 0.0
C140 C 0.92002 0.8496 0.34858 0.0
C141 C 0.90884 0.88024 0.33281 0.0
C142 C 0.92806 0.91747 0.33365 0.0
H143 H 0.90461 0.03241 0.36353 0.0
H144 H 0.90043 0.00334 0.33684 0.0
H145 H 0.90155 0.97858 0.36535 0.0
H146 H 0.99123 0.89954 0.38019 0.0
H147 H 0.95906 0.83391 0.37797 0.0
H148 H 0.37441 0.61795 0.82072 0.0
H149 H 0.43843 0.58215 0.82016 0.0
H150 H 0.39878 0.50869 0.87885 0.0
H151 H 0.33401 0.54283 0.87851 0.0
H152 H 0.49602 0.57482 0.84999 0.0
H153 H 0.43446 0.42316 0.83503 0.0
H154 H 0.4038 0.46751 0.8332 0.0
H155 H 0.4144 0.44482 0.86164 0.0
C156 C 0.37945 0.59413 0.83347 0.0
C157 C 0.34924 0.58287 0.84952 0.0
C158 C 0.41596 0.57364 0.83312 0.0
C159 C 0.42311 0.54196 0.84905 0.0
C160 C 0.39349 0.53192 0.86577 0.0
H161 H 0.66274 0.4567 0.88162 0.0
H162 H 0.59728 0.48954 0.88164 0.0
C163 C 0.35664 0.55171 0.86573 0.0
C164 C 0.46184 0.52009 0.8485 0.0
H165 H 0.50294 0.42642 0.84749 0.0
C166 C 0.4975 0.54237 0.84923 0.0
C167 C 0.46391 0.47775 0.847 0.0
C168 C 0.42708 0.452 0.8439 0.0
C169 C 0.53508 0.52357 0.8489 0.0
C170 C 0.53709 0.48116 0.849 0.0
C171 C 0.50145 0.45889 0.84783 0.0
C172 C 0.57581 0.4593 0.84998 0.0
C173 C 0.57208 0.54956 0.84782 0.0
C174 C 0.58464 0.42949 0.83311 0.0
C175 C 0.62152 0.40964 0.83361 0.0
C176 C 0.65037 0.41977 0.85076 0.0
C177 C 0.64116 0.4488 0.868 0.0
C178 C 0.60393 0.46785 0.86787 0.0
H179 H 0.5654 0.57925 0.83978 0.0
H180 H 0.58324 0.55493 0.86614 0.0
H181 H 0.59626 0.53514 0.8373 0.0
H182 H 0.56333 0.42213 0.81924 0.0
H183 H 0.62801 0.38745 0.82007 0.0
H184 H 0.52121 0.32778 0.1584 0.0
H185 H 0.48938 0.39353 0.1585 0.0
H186 H 0.60331 0.44921 0.17316 0.0
H187 H 0.63579 0.38342 0.17294 0.0
H188 H 0.48901 0.44952 0.1969 0.0
H189 H 0.55902 0.5117 0.11502 0.0
H190 H 0.55866 0.45872 0.12162 0.0
H191 H 0.5931 0.49138 0.13667 0.0
C192 C 0.53971 0.35394 0.16149 0.0
C193 C 0.58119 0.35025 0.16557 0.0
C194 C 0.52137 0.39149 0.16158 0.0
C195 C 0.54407 0.42614 0.16559 0.0
C196 C 0.58542 0.42278 0.16966 0.0
H197 H 0.48375 0.67816 0.17191 0.0
H198 H 0.51715 0.61312 0.17202 0.0
C199 C 0.60387 0.38514 0.16962 0.0
C200 C 0.52404 0.46563 0.16619 0.0
H201 H 0.51833 0.55556 0.13753 0.0
C202 C 0.49532 0.47275 0.18392 0.0
C203 C 0.5325 0.49574 0.14924 0.0
C204 C 0.56225 0.48909 0.12941 0.0
C205 C 0.4751 0.50952 0.18537 0.0
C206 C 0.48325 0.53955 0.16827 0.0
C207 C 0.51211 0.53244 0.15058 0.0
C208 C 0.46248 0.57877 0.16851 0.0
C209 C 0.4459 0.51614 0.2055 0.0
C210 C 0.42063 0.58103 0.16632 0.0
C211 C 0.40133 0.61822 0.16641 0.0
C212 C 0.42365 0.65381 0.16831 0.0
C213 C 0.46563 0.65137 0.17027 0.0
C214 C 0.48481 0.61422 0.17036 0.0
H215 H 0.45135 0.4951 0.22048 0.0
H216 H 0.44776 0.5473 0.21235 0.0
H217 H 0.41497 0.51097 0.19893 0.0
H218 H 0.40291 0.55405 0.16432 0.0
H219 H 0.36901 0.61907 0.1647 0.0
H220 H 0.12831 0.11801 0.69426 0.0
H221 H 0.06433 0.08216 0.69513 0.0
H222 H 0.10328 0.00867 0.63628 0.0
H223 H 0.16805 0.04284 0.63633 0.0
H224 H 0.00639 0.07481 0.66572 0.0
H225 H 0.06804 0.92307 0.68008 0.0
H226 H 0.09879 0.96737 0.68179 0.0
H227 H 0.08775 0.94475 0.65339 0.0
C228 C 0.12312 0.09417 0.68154 0.0
C229 C 0.15313 0.08291 0.66537 0.0
C230 C 0.08663 0.07365 0.68206 0.0
C231 C 0.07931 0.04194 0.66618 0.0
C232 C 0.10872 0.03191 0.64933 0.0
H233 H 0.83959 0.95776 0.63383 0.0
H234 H 0.90521 0.99022 0.63396 0.0
C235 C 0.14556 0.05172 0.6492 0.0
C236 C 0.04057 0.02006 0.6669 0.0
H237 H 0.99943 0.92639 0.66778 0.0
C238 C 0.00491 0.04235 0.6664 0.0
C239 C 0.03849 0.97771 0.66831 0.0
C240 C 0.07534 0.95191 0.6712 0.0
C241 C 0.96733 0.02357 0.66681 0.0
C242 C 0.96529 0.98116 0.66655 0.0
C243 C 1.00092 0.95886 0.66756 0.0
C244 C 0.92654 0.95936 0.66543 0.0
C245 C 0.93036 0.04958 0.66813 0.0
C246 C 0.9176 0.92925 0.68211 0.0
C247 C 0.8806 0.9096 0.68151 0.0
C248 C 0.85178 0.92024 0.66445 0.0
C249 C 0.86115 0.94948 0.64738 0.0
C250 C 0.89846 0.96833 0.6476 0.0
H251 H 0.93712 0.07909 0.67637 0.0
H252 H 0.91914 0.05536 0.64986 0.0
H253 H 0.9062 0.03499 0.67858 0.0
H254 H 0.9389 0.92154 0.69592 0.0
H255 H 0.87398 0.8872 0.6949 0.0
H256 H 0.23496 0.21853 0.40297 0.0
H257 H 0.25694 0.21026 0.44438 0.0
H258 H 0.17862 0.3063 0.46594 0.0
H259 H 0.15624 0.31453 0.42492 0.0
H260 H 0.29061 0.26275 0.47975 0.0
H261 H 0.13859 0.21025 0.50503 0.0
H262 H 0.15447 0.21448 0.47445 0.0
H263 H 0.1395 0.25836 0.49074 0.0
C264 C 0.22295 0.2384 0.41644 0.0
C265 C 0.19341 0.26687 0.41055 0.0
C266 C 0.23547 0.23354 0.44014 0.0
C267 C 0.21872 0.25702 0.45839 0.0
C268 C 0.19128 0.28718 0.4523 0.0
H269 H 0.22263 0.24144 0.61389 0.0
H270 H 0.21416 0.26512 0.57289 0.0
C271 C 0.17866 0.29195 0.42873 0.0
C272 C 0.22805 0.24875 0.48388 0.0
H273 H 0.18487 0.21971 0.53631 0.0
C274 C 0.26753 0.2533 0.49212 0.0
C275 C 0.19794 0.23643 0.50008 0.0
C276 C 0.15531 0.22921 0.49216 0.0
C277 C 0.27754 0.24641 0.51616 0.0
C278 C 0.24741 0.23395 0.53233 0.0
C279 C 0.20794 0.2296 0.52405 0.0
C280 C 0.25624 0.22305 0.55757 0.0
C281 C 0.3202 0.25318 0.52407 0.0
C282 C 0.28307 0.19187 0.56276 0.0
C283 C 0.28806 0.17836 0.58615 0.0
C284 C 0.26608 0.19544 0.60503 0.0
C285 C 0.24024 0.22767 0.59992 0.0
C286 C 0.23523 0.24115 0.57643 0.0
H287 H 0.33611 0.27424 0.51201 0.0
H288 H 0.32141 0.26523 0.54247 0.0
H289 H 0.33653 0.22422 0.52371 0.0
H290 H 0.29901 0.17675 0.54858 0.0
H291 H 0.30819 0.15345 0.58926 0.0
H292 H 0.28647 0.73571 0.90214 0.0
H293 H 0.29555 0.75681 0.94363 0.0
H294 H 0.19686 0.68159 0.96487 0.0
H295 H 0.18791 0.65997 0.92374 0.0
H296 H 0.2456 0.79214 0.97878 0.0
H297 H 0.28993 0.63769 1.00433 0.0
H298 H 0.28614 0.65347 0.9737 0.0
H299 H 0.24175 0.64094 0.99025 0.0
C300 C 0.26623 0.72419 0.91556 0.0
C301 C 0.23676 0.69571 0.90954 0.0
C302 C 0.27156 0.73619 0.93932 0.0
C303 C 0.24754 0.72001 0.9575 0.0
C304 C 0.21645 0.6937 0.95129 0.0
H305 H 0.26302 0.72476 0.11311 0.0
H306 H 0.23921 0.71675 0.07211 0.0
C307 C 0.21124 0.68155 0.92766 0.0
C308 C 0.25611 0.72892 0.98302 0.0
H309 H 0.28283 0.68452 0.03555 0.0
C310 C 0.25377 0.76863 0.99119 0.0
C311 C 0.26678 0.69825 0.99929 0.0
C312 C 0.2717 0.65524 0.99148 0.0
C313 C 0.26129 0.7784 0.01519 0.0
C314 C 0.27214 0.74773 0.03141 0.0
C315 C 0.27421 0.70802 0.02323 0.0
C316 C 0.28362 0.75615 0.05661 0.0
C317 C 0.25696 0.82143 0.023 0.0
C318 C 0.31626 0.78125 0.06169 0.0
C319 C 0.32987 0.78598 0.08508 0.0
C320 C 0.31142 0.76544 0.10408 0.0
C321 C 0.2779 0.74123 0.09905 0.0
C322 C 0.26432 0.73649 0.07556 0.0
H323 H 0.23682 0.83843 0.01092 0.0
H324 H 0.24502 0.82343 0.0414 0.0
H325 H 0.28679 0.83609 0.0226 0.0
H326 H 0.3323 0.79607 0.04743 0.0
H327 H 0.35581 0.80479 0.08812 0.0
H328 H 0.73461 0.75403 0.61265 0.0
H329 H 0.74009 0.72831 0.57174 0.0
H330 H 0.75627 0.84908 0.54592 0.0
H331 H 0.74812 0.87463 0.58603 0.0
H332 H 0.71156 0.81374 0.51672 0.0
H333 H 0.83787 0.70983 0.53455 0.0
H334 H 0.79327 0.69779 0.55081 0.0
H335 H 0.8194 0.74396 0.55679 0.0
C336 C 0.73913 0.77493 0.59815 0.0
C337 C 0.74073 0.81637 0.60261 0.0
C338 C 0.74266 0.76022 0.57475 0.0
C339 C 0.74938 0.78657 0.55551 0.0
C340 C 0.75089 0.82789 0.56018 0.0
H341 H 0.87323 0.74803 0.4255 0.0
H342 H 0.84829 0.75647 0.46575 0.0
C343 C 0.74627 0.84255 0.58327 0.0
C344 C 0.75522 0.7722 0.53046 0.0
H345 H 0.81361 0.7122 0.49538 0.0
C346 C 0.73393 0.79148 0.51209 0.0
C347 C 0.78436 0.74314 0.52419 0.0
C348 C 0.81031 0.72274 0.54257 0.0
C349 C 0.74239 0.7844 0.4879 0.0
C350 C 0.7716 0.75541 0.48163 0.0
C351 C 0.79125 0.73446 0.5 0.0
C352 C 0.78565 0.74932 0.45653 0.0
C353 C 0.72161 0.81003 0.46952 0.0
C354 C 0.75902 0.74232 0.43746 0.0
C355 C 0.77337 0.73867 0.41399 0.0
C356 C 0.81471 0.74036 0.40929 0.0
C357 C 0.8412 0.74612 0.42846 0.0
C358 C 0.8269 0.7509 0.45162 0.0
H359 H 0.70871 0.83764 0.47749 0.0
H360 H 0.74257 0.81905 0.45514 0.0
H361 H 0.6966 0.7928 0.4615 0.0
H362 H 0.72717 0.73966 0.44065 0.0
H363 H 0.75225 0.73397 0.39962 0.0
H364 H 0.72566 0.26152 0.90024 0.0
H365 H 0.71628 0.23663 0.94091 0.0
H366 H 0.79419 0.32941 0.96749 0.0
H367 H 0.80443 0.35393 0.9271 0.0
H368 H 0.80602 0.2574 0.99079 0.0
H369 H 0.64414 0.29583 0.98764 0.0
H370 H 0.66025 0.26158 0.96494 0.0
H371 H 0.679 0.31209 0.9651 0.0
C372 C 0.74136 0.27625 0.91466 0.0
C373 C 0.76546 0.3101 0.91026 0.0
C374 C 0.73567 0.26217 0.93797 0.0
C375 C 0.75377 0.28172 0.95738 0.0
C376 C 0.77963 0.31397 0.95289 0.0
H377 H 0.73578 0.28196 0.11217 0.0
H378 H 0.75834 0.29017 0.07096 0.0
C379 C 0.78538 0.32801 0.92968 0.0
C380 C 0.74436 0.27023 0.98245 0.0
H381 H 0.66774 0.26534 0.02272 0.0
C382 C 0.77576 0.25898 0.99776 0.0
C383 C 0.70493 0.27261 0.99167 0.0
C384 C 0.67014 0.28652 0.9766 0.0
C385 C 0.76873 0.24965 0.02187 0.0
C386 C 0.72931 0.25221 0.03107 0.0
C387 C 0.69794 0.26318 0.0157 0.0
C388 C 0.71954 0.24415 0.05656 0.0
C389 C 0.80348 0.23659 0.03717 0.0
C390 C 0.6904 0.21544 0.06237 0.0
C391 C 0.67728 0.21088 0.08586 0.0
C392 C 0.69284 0.23502 0.10424 0.0
C393 C 0.72335 0.26259 0.09859 0.0
C394 C 0.73638 0.26726 0.07497 0.0
H395 H 0.82887 0.22539 0.02625 0.0
H396 H 0.81434 0.2626 0.04765 0.0
H397 H 0.79431 0.2127 0.04981 0.0
H398 H 0.67693 0.19722 0.04856 0.0
H399 H 0.65388 0.18921 0.08945 0.0
H400 H 0.5565 0.21083 0.18894 0.0
H401 H 0.49163 0.21081 0.20921 0.0
H402 H 0.54818 0.25525 0.27301 0.0
H403 H 0.61252 0.25785 0.25229 0.0
H404 H 0.46008 0.17502 0.2448 0.0
H405 H 0.46241 0.33593 0.26782 0.0
H406 H 0.49942 0.3137 0.24858 0.0
H407 H 0.50454 0.31045 0.28048 0.0
C408 C 0.55511 0.2207 0.20726 0.0
C409 C 0.58961 0.235 0.21886 0.0
C410 C 0.51791 0.22063 0.2189 0.0
C411 C 0.51445 0.23422 0.24252 0.0
C412 C 0.54944 0.2462 0.25453 0.0
H413 H 0.30029 0.18434 0.32862 0.0
H414 H 0.3667 0.18281 0.31013 0.0
C415 C 0.58642 0.2472 0.24273 0.0
C416 C 0.4744 0.23579 0.25453 0.0
H417 H 0.41252 0.29644 0.28707 0.0
C418 C 0.44964 0.2017 0.25392 0.0
C419 C 0.46002 0.2708 0.26605 0.0
C420 C 0.4828 0.30988 0.26555 0.0
C421 C 0.41148 0.20144 0.26464 0.0
C422 C 0.39814 0.23568 0.27736 0.0
C423 C 0.42272 0.26989 0.27772 0.0
C424 C 0.35837 0.23728 0.28972 0.0
C425 C 0.38548 0.16483 0.26141 0.0
C426 C 0.33207 0.26952 0.28564 0.0
C427 C 0.29461 0.27112 0.29686 0.0
C428 C 0.28225 0.24025 0.31222 0.0
C429 C 0.30877 0.20839 0.31669 0.0
C430 C 0.34664 0.20726 0.30587 0.0
H431 H 0.39401 0.14779 0.24519 0.0
H432 H 0.38946 0.14459 0.2769 0.0
H433 H 0.35331 0.17298 0.26001 0.0
H434 H 0.34021 0.29326 0.2734 0.0
H435 H 0.27484 0.29602 0.29295 0.0
H436 H 0.20308 0.78693 0.80161 0.0
H437 H 0.20621 0.85301 0.78276 0.0
H438 H 0.3318 0.86136 0.80002 0.0
H439 H 0.32889 0.7953 0.81903 0.0
H440 H 0.2889 0.93237 0.80928 0.0
H441 H 0.2591 0.87644 0.71804 0.0
H442 H 0.22242 0.86132 0.73964 0.0
H443 H 0.27314 0.84371 0.74222 0.0
C444 C 0.23135 0.80288 0.80153 0.0
C445 C 0.26578 0.78569 0.81178 0.0
C446 C 0.23315 0.84057 0.79057 0.0
C447 C 0.26941 0.86191 0.78957 0.0
C448 C 0.30355 0.84537 0.80041 0.0
H449 H 0.31059 0.0679 0.69548 0.0
H450 H 0.31543 0.00313 0.71602 0.0
C451 C 0.30182 0.80758 0.81129 0.0
C452 C 0.27166 0.90145 0.77728 0.0
H453 H 0.25757 0.94709 0.72342 0.0
C454 C 0.28223 0.93557 0.79049 0.0
C455 C 0.26363 0.9056 0.75265 0.0
C456 C 0.2543 0.86981 0.7372 0.0
C457 C 0.28392 0.9738 0.77992 0.0
C458 C 0.2742 0.97822 0.7555 0.0
C459 C 0.26471 0.94389 0.74216 0.0
C460 C 0.27272 0.01821 0.7436 0.0
C461 C 0.29653 0.009 0.79501 0.0
C462 C 0.24703 0.0483 0.75212 0.0
C463 C 0.24446 0.08534 0.74053 0.0
C464 C 0.26716 0.09311 0.71993 0.0
C465 C 0.2929 0.06301 0.71137 0.0
C466 C 0.29558 0.02591 0.72306 0.0
H467 H 0.31453 0.99926 0.81061 0.0
H468 H 0.31436 0.03087 0.78455 0.0
H469 H 0.26941 0.02443 0.80183 0.0
H470 H 0.22827 0.04288 0.7675 0.0
H471 H 0.22396 0.10762 0.74747 0.0
H472 H 0.71021 0.82679 0.316 0.0
H473 H 0.6437 0.82876 0.29768 0.0
H474 H 0.6485 0.70106 0.28636 0.0
H475 H 0.71532 0.69894 0.30435 0.0
H476 H 0.62391 0.74162 0.2464 0.0
H477 H 0.53658 0.79268 0.32467 0.0
H478 H 0.57819 0.82458 0.31752 0.0
H479 H 0.58716 0.77396 0.32713 0.0
C480 C 0.69697 0.79902 0.30986 0.0
C481 C 0.7181 0.76266 0.31177 0.0
C482 C 0.65879 0.80018 0.29945 0.0
C483 C 0.64072 0.76499 0.29087 0.0
C484 C 0.66167 0.72861 0.2929 0.0
H485 H 0.39314 0.72737 0.2489 0.0
H486 H 0.45818 0.72955 0.26887 0.0
C487 C 0.69986 0.72742 0.30329 0.0
C488 C 0.60069 0.76626 0.27901 0.0
H489 H 0.50257 0.79236 0.28751 0.0
C490 C 0.59738 0.75268 0.25541 0.0
C491 C 0.56589 0.78029 0.2908 0.0
C492 C 0.56689 0.79336 0.3165 0.0
C493 C 0.56049 0.75311 0.24325 0.0
C494 C 0.52592 0.76817 0.25483 0.0
C495 C 0.52912 0.78133 0.27851 0.0
C496 C 0.48586 0.76881 0.24303 0.0
C497 C 0.55865 0.73649 0.2183 0.0
C498 C 0.47927 0.79095 0.2221 0.0
C499 C 0.44193 0.78984 0.21061 0.0
C500 C 0.41038 0.76662 0.21987 0.0
C501 C 0.41673 0.74554 0.24124 0.0
C502 C 0.45397 0.74672 0.2527 0.0
H503 H 0.58506 0.71744 0.21417 0.0
H504 H 0.53104 0.71845 0.21563 0.0
H505 H 0.55817 0.76167 0.2054 0.0
H506 H 0.50313 0.80888 0.21453 0.0
H507 H 0.43805 0.80653 0.19425 0.0
H508 H 0.68532 0.20335 0.82854 0.0
H509 H 0.68424 0.13622 0.81095 0.0
H510 H 0.79488 0.16185 0.77424 0.0
H511 H 0.79714 0.22802 0.79284 0.0
H512 H 0.6773 0.11191 0.76804 0.0
H513 H 0.82358 0.0557 0.7996 0.0
H514 H 0.80224 0.10177 0.81051 0.0
H515 H 0.82961 0.10093 0.78284 0.0
C516 C 0.70974 0.19439 0.81701 0.0
C517 C 0.74155 0.22085 0.81231 0.0
C518 C 0.70904 0.156 0.80686 0.0
C519 C 0.73987 0.1433 0.79152 0.0
C520 C 0.77142 0.17004 0.78661 0.0
H521 H 0.71139 0.94818 0.68877 0.0
H522 H 0.71069 0.01235 0.70967 0.0
C523 C 0.77256 0.2081 0.79716 0.0
C524 C 0.73803 0.10291 0.77994 0.0
H525 H 0.79306 0.01887 0.76792 0.0
C526 C 0.70256 0.09145 0.76824 0.0
C527 C 0.77059 0.07561 0.78039 0.0
C528 C 0.80844 0.08396 0.79424 0.0
C529 C 0.69892 0.05407 0.7568 0.0
C530 C 0.73227 0.02776 0.75611 0.0
C531 C 0.76753 0.03898 0.7681 0.0
C532 C 0.73137 0.98835 0.74334 0.0
C533 C 0.65891 0.04297 0.74616 0.0
C534 C 0.74432 0.95324 0.75487 0.0
C535 C 0.74588 0.91664 0.74267 0.0
C536 C 0.73406 0.91407 0.71871 0.0
C537 C 0.72032 0.94895 0.70728 0.0
C538 C 0.71959 0.98575 0.71934 0.0
H539 H 0.63399 0.0591 0.75512 0.0
H540 H 0.65849 0.05168 0.72711 0.0
H541 H 0.65317 0.01028 0.74749 0.0
H542 H 0.75364 0.95416 0.77332 0.0
H543 H 0.75668 0.89037 0.752 0.0
H544 H 0.11286 0.24635 0.26244 0.0
H545 H 0.04906 0.25047 0.24122 0.0
H546 H 0.991 0.29031 0.30563 0.0
H547 H 0.05528 0.28859 0.32646 0.0
H548 H 0.98483 0.21062 0.24597 0.0
H549 H 0.94337 0.3687 0.26158 0.0
H550 H 0.99233 0.34951 0.26888 0.0
H551 H 0.95094 0.34279 0.28912 0.0
C552 C 0.08661 0.25671 0.27197 0.0
C553 C 0.08925 0.26736 0.29612 0.0
C554 C 0.05001 0.2589 0.25983 0.0
C555 C 0.01492 0.27126 0.2716 0.0
C556 C 0.01758 0.28191 0.29579 0.0
H557 H 0.77618 0.20568 0.22095 0.0
H558 H 0.84212 0.20814 0.23975 0.0
C559 C 0.05443 0.2806 0.30781 0.0
C560 C 0.97549 0.27074 0.25884 0.0
H561 H 0.89097 0.32568 0.24772 0.0
C562 C 0.96455 0.23602 0.24621 0.0
C563 C 0.94893 0.30393 0.25869 0.0
C564 C 0.95969 0.34345 0.27008 0.0
C565 C 0.92801 0.23333 0.23381 0.0
C566 C 0.90047 0.26564 0.23479 0.0
C567 C 0.91163 0.30061 0.24712 0.0
C568 C 0.86011 0.26395 0.22318 0.0
C569 C 0.92002 0.19613 0.21927 0.0
C570 C 0.84714 0.29517 0.2082 0.0
C571 C 0.80885 0.29431 0.1979 0.0
C572 C 0.78278 0.26198 0.20212 0.0
C573 C 0.79579 0.23067 0.21698 0.0
C574 C 0.83372 0.23194 0.22766 0.0
H575 H 0.94841 0.1815 0.21367 0.0
H576 H 0.90318 0.17424 0.23027 0.0
H577 H 0.9022 0.20301 0.20309 0.0
H578 H 0.86665 0.32034 0.20448 0.0
H579 H 0.79966 0.31898 0.18663 0.0
H580 H 0.30033 0.28894 0.71037 0.0
H581 H 0.29735 0.355 0.72924 0.0
H582 H 0.16984 0.35934 0.71716 0.0
H583 H 0.17266 0.29348 0.69797 0.0
H584 H 0.20692 0.43121 0.70675 0.0
H585 H 0.25399 0.37729 0.79578 0.0
H586 H 0.28859 0.36466 0.7725 0.0
H587 H 0.23896 0.34364 0.77227 0.0
C588 C 0.27166 0.30401 0.7116 0.0
C589 C 0.2367 0.28577 0.70273 0.0
C590 C 0.26995 0.34169 0.72259 0.0
C591 C 0.23323 0.36189 0.72509 0.0
C592 C 0.19848 0.34428 0.71561 0.0
H593 H 0.19539 0.56602 0.82106 0.0
H594 H 0.19071 0.50112 0.80068 0.0
C595 C 0.20015 0.30659 0.70461 0.0
C596 C 0.23108 0.40136 0.73753 0.0
H597 H 0.2515 0.44799 0.79038 0.0
C598 C 0.21651 0.43482 0.72507 0.0
C599 C 0.24291 0.40607 0.76159 0.0
C600 C 0.25662 0.37096 0.77643 0.0
C601 C 0.2145 0.47294 0.73576 0.0
C602 C 0.22794 0.47798 0.75949 0.0
C603 C 0.2415 0.4443 0.77215 0.0
C604 C 0.22913 0.51802 0.77131 0.0
C605 C 0.19754 0.50739 0.72158 0.0
C606 C 0.25232 0.54917 0.7617 0.0
C607 C 0.25494 0.58624 0.77327 0.0
C608 C 0.23465 0.59302 0.79485 0.0
C609 C 0.21119 0.56191 0.80441 0.0
C610 C 0.2086 0.52474 0.79281 0.0
H611 H 0.17802 0.49668 0.70688 0.0
H612 H 0.17992 0.52793 0.73308 0.0
H613 H 0.22254 0.52466 0.71357 0.0
H614 H 0.26918 0.54457 0.74546 0.0
H615 H 0.27356 0.60936 0.76548 0.0
H616 H 0.2145 0.80032 0.20806 0.0
H617 H 0.14811 0.7975 0.2265 0.0
H618 H 0.14449 0.66971 0.21542 0.0
H619 H 0.21072 0.67236 0.19664 0.0
H620 H 0.07237 0.70645 0.2045 0.0
H621 H 0.12573 0.75538 0.29331 0.0
H622 H 0.13835 0.78951 0.26978 0.0
H623 H 0.15954 0.73996 0.26998 0.0
C624 C 0.19952 0.77162 0.2094 0.0
C625 C 0.21809 0.73653 0.20095 0.0
C626 C 0.16164 0.77001 0.22013 0.0
C627 C 0.14155 0.73327 0.22282 0.0
C628 C 0.15946 0.69838 0.21372 0.0
H629 H 0.93845 0.69443 0.31895 0.0
H630 H 0.00305 0.6904 0.29826 0.0
C631 C 0.19735 0.69995 0.20296 0.0
C632 C 0.10201 0.73122 0.23518 0.0
H633 H 0.05514 0.75217 0.28788 0.0
C634 C 0.06865 0.71632 0.22276 0.0
C635 C 0.09716 0.74344 0.25916 0.0
C636 C 0.13214 0.75761 0.27395 0.0
C637 C 0.03051 0.71426 0.23342 0.0
C638 C 0.02536 0.72797 0.25709 0.0
C639 C 0.05892 0.74195 0.26969 0.0
C640 C 0.98539 0.72869 0.269 0.0
C641 C 0.99616 0.69694 0.21932 0.0
C642 C 0.95385 0.75154 0.25952 0.0
C643 C 0.91692 0.75384 0.27129 0.0
C644 C 0.91068 0.73351 0.29292 0.0
C645 C 0.94214 0.7103 0.30229 0.0
C646 C 0.97915 0.70807 0.29051 0.0
H647 H 0.00696 0.6776 0.20456 0.0
H648 H 0.97595 0.67903 0.23087 0.0
H649 H 0.97849 0.72176 0.21141 0.0
H650 H 0.95808 0.76843 0.24326 0.0
H651 H 0.8935 0.77225 0.26364 0.0
H652 H 0.78771 0.44874 0.82634 0.0
H653 H 0.78715 0.51361 0.80599 0.0
H654 H 0.74784 0.45578 0.74142 0.0
H655 H 0.74602 0.39139 0.7621 0.0
H656 H 0.82431 0.54579 0.77082 0.0
H657 H 0.66469 0.53963 0.74509 0.0
H658 H 0.68681 0.50331 0.76483 0.0
H659 H 0.69173 0.49797 0.73302 0.0
C660 C 0.77893 0.44985 0.80781 0.0
C661 C 0.76637 0.41494 0.79594 0.0
C662 C 0.77861 0.48704 0.79615 0.0
C663 C 0.76627 0.4901 0.77226 0.0
C664 C 0.75592 0.45478 0.76006 0.0
H665 H 0.81608 0.7036 0.6858 0.0
H666 H 0.81759 0.63746 0.70462 0.0
C667 C 0.75536 0.4178 0.77185 0.0
C668 C 0.76437 0.53005 0.76014 0.0
H669 H 0.70399 0.59022 0.72629 0.0
C670 C 0.79786 0.55554 0.76121 0.0
C671 C 0.72963 0.54353 0.74796 0.0
C672 C 0.69107 0.51986 0.74788 0.0
C673 C 0.79786 0.59353 0.75026 0.0
C674 C 0.76398 0.60597 0.73689 0.0
C675 C 0.73029 0.5807 0.73612 0.0
C676 C 0.76224 0.64545 0.72422 0.0
C677 C 0.83379 0.62031 0.7539 0.0
C678 C 0.72952 0.67141 0.72768 0.0
C679 C 0.72797 0.70874 0.71628 0.0
C680 C 0.75936 0.72127 0.70134 0.0
C681 C 0.79162 0.69499 0.69739 0.0
C682 C 0.79273 0.65729 0.70841 0.0
H683 H 0.85027 0.61238 0.77042 0.0
H684 H 0.85477 0.61649 0.73875 0.0
H685 H 0.82494 0.65233 0.75497 0.0
H686 H 0.70541 0.66314 0.73962 0.0
H687 H 0.70276 0.72831 0.71977 0.0
loop_
_geom_bond_atom_site_label_1
_geom_bond_atom_site_label_2
_geom_bond_distance
_geom_bond_site_symmetry_2
_ccdc_geom_bond_type
Co0 O1 2.216 . S
Co0 O2 2.091 . S
Co0 O4 2.004 . S
Co0 O10 2.021 . S
Co0 O12 2.137 . S
Co0 O13 2.244 . S
O1 Co0 2.216 . S
O1 C8 1.247 . S
O2 Co0 2.091 . S
O2 C8 1.261 . S
C3 O12 1.247 . S
C3 O13 1.272 . S
O4 Co0 2.004 . S
O4 C9 1.259 . S
Co5 O6 2.061 . S
Co5 O11 2.052 . S
Co5 O13 2.135 . S
O6 Co5 2.061 . S
O6 C9 1.235 . S
C7 O10 1.238 . S
C7 O11 1.241 . S
C8 O1 1.247 . S
C8 O2 1.261 . S
C9 O4 1.259 . S
C9 O6 1.235 . S
O10 Co0 2.021 . S
O10 C7 1.238 . S
O11 Co5 2.052 . S
O11 C7 1.241 . S
O12 Co0 2.137 . S
O12 C3 1.247 . S
O13 Co0 2.244 . S
O13 C3 1.272 . S
O13 Co5 2.135 . S
Co14 O15 2.216 . S
Co14 O16 2.091 . S
Co14 O18 2.004 . S
Co14 O24 2.021 . S
Co14 O26 2.137 . S
Co14 O27 2.244 . S
O15 Co14 2.216 . S
O15 C22 1.247 . S
O16 Co14 2.091 . S
O16 C22 1.261 . S
C17 O26 1.247 . S
C17 O27 1.272 . S
O18 Co14 2.004 . S
O18 C23 1.259 . S
Co19 O20 2.061 . S
Co19 O25 2.052 . S
Co19 O27 2.135 . S
O20 Co19 2.061 . S
O20 C23 1.235 . S
C21 O24 1.238 . S
C21 O25 1.241 . S
C22 O15 1.247 . S
C22 O16 1.261 . S
C23 O18 1.259 . S
C23 O20 1.235 . S
O24 Co14 2.021 . S
O24 C21 1.238 . S
O25 Co19 2.052 . S
O25 C21 1.241 . S
O26 Co14 2.137 . S
O26 C17 1.247 . S
O27 Co14 2.244 . S
O27 C17 1.272 . S
O27 Co19 2.135 . S
Co28 O29 2.216 . S
Co28 O30 2.091 . S
Co28 O32 2.004 . S
Co28 O38 2.021 . S
Co28 O40 2.137 . S
Co28 O41 2.244 . S
O29 Co28 2.216 . S
O29 C36 1.247 . S
O30 Co28 2.091 . S
O30 C36 1.261 . S
C31 O40 1.247 . S
C31 O41 1.272 . S
O32 Co28 2.004 . S
O32 C37 1.259 . S
Co33 O34 2.061 . S
Co33 O39 2.052 . S
Co33 O41 2.135 . S
O34 Co33 2.061 . S
O34 C37 1.235 . S
C35 O38 1.238 . S
C35 O39 1.241 . S
C36 O29 1.247 . S
C36 O30 1.261 . S
C37 O32 1.259 . S
C37 O34 1.235 . S
O38 Co28 2.021 . S
O38 C35 1.238 . S
O39 Co33 2.052 . S
O39 C35 1.241 . S
O40 Co28 2.137 . S
O40 C31 1.247 . S
O41 Co28 2.244 . S
O41 C31 1.272 . S
O41 Co33 2.135 . S
Co42 O43 2.216 . S
Co42 O44 2.091 . S
Co42 O46 2.004 . S
Co42 O52 2.021 . S
Co42 O54 2.137 . S
Co42 O55 2.244 . S
O43 Co42 2.216 . S
O43 C50 1.247 . S
O44 Co42 2.091 . S
O44 C50 1.261 . S
C45 O54 1.247 . S
C45 O55 1.272 . S
O46 Co42 2.004 . S
O46 C51 1.259 . S
Co47 O48 2.061 . S
Co47 O53 2.052 . S
Co47 O55 2.135 . S
O48 Co47 2.061 . S
O48 C51 1.235 . S
C49 O52 1.238 . S
C49 O53 1.241 . S
C50 O43 1.247 . S
C50 O44 1.261 . S
C51 O46 1.259 . S
C51 O48 1.235 . S
O52 Co42 2.021 . S
O52 C49 1.238 . S
O53 Co47 2.052 . S
O53 C49 1.241 . S
O54 Co42 2.137 . S
O54 C45 1.247 . S
O55 Co42 2.244 . S
O55 C45 1.272 . S
O55 Co47 2.135 . S
Co56 O57 2.216 . S
Co56 O58 2.091 . S
Co56 O60 2.004 . S
Co56 O66 2.021 . S
Co56 O68 2.137 . S
Co56 O69 2.244 . S
O57 Co56 2.216 . S
O57 C64 1.247 . S
O58 Co56 2.091 . S
O58 C64 1.261 . S
C59 O68 1.247 . S
C59 O69 1.272 . S
O60 Co56 2.004 . S
O60 C65 1.259 . S
Co61 O62 2.061 . S
Co61 O67 2.052 . S
Co61 O69 2.135 . S
O62 Co61 2.061 . S
O62 C65 1.235 . S
C63 O66 1.238 . S
C63 O67 1.241 . S
C64 O57 1.247 . S
C64 O58 1.261 . S
C65 O60 1.259 . S
C65 O62 1.235 . S
O66 Co56 2.021 . S
O66 C63 1.238 . S
O67 Co61 2.052 . S
O67 C63 1.241 . S
O68 Co56 2.137 . S
O68 C59 1.247 . S
O69 Co56 2.244 . S
O69 C59 1.272 . S
O69 Co61 2.135 . S
Co70 O71 2.216 . S
Co70 O72 2.091 . S
Co70 O74 2.004 . S
Co70 O80 2.021 . S
Co70 O82 2.137 . S
Co70 O83 2.244 . S
O71 Co70 2.216 . S
O71 C78 1.247 . S
O72 Co70 2.091 . S
O72 C78 1.261 . S
C73 O82 1.247 . S
C73 O83 1.272 . S
O74 Co70 2.004 . S
O74 C79 1.259 . S
Co75 O76 2.061 . S
Co75 O81 2.052 . S
Co75 O83 2.135 . S
O76 Co75 2.061 . S
O76 C79 1.235 . S
C77 O80 1.238 . S
C77 O81 1.241 . S
C78 O71 1.247 . S
C78 O72 1.261 . S
C79 O74 1.259 . S
C79 O76 1.235 . S
O80 Co70 2.021 . S
O80 C77 1.238 . S
O81 Co75 2.052 . S
O81 C77 1.241 . S
O82 Co70 2.137 . S
O82 C73 1.247 . S
O83 Co70 2.244 . S
O83 C73 1.272 . S
O83 Co75 2.135 . S
Co84 O85 2.216 . S
Co84 O86 2.091 . S
Co84 O88 2.004 . S
Co84 O94 2.021 . S
Co84 O96 2.137 . S
Co84 O97 2.244 . S
O85 Co84 2.216 . S
O85 C92 1.247 . S
O86 Co84 2.091 . S
O86 C92 1.261 . S
C87 O96 1.247 . S
C87 O97 1.272 . S
O88 Co84 2.004 . S
O88 C93 1.259 . S
Co89 O90 2.061 . S
Co89 O95 2.052 . S
Co89 O97 2.135 . S
O90 Co89 2.061 . S
O90 C93 1.235 . S
C91 O94 1.238 . S
C91 O95 1.241 . S
C92 O85 1.247 . S
C92 O86 1.261 . S
C93 O88 1.259 . S
C93 O90 1.235 . S
O94 Co84 2.021 . S
O94 C91 1.238 . S
O95 Co89 2.052 . S
O95 C91 1.241 . S
O96 Co84 2.137 . S
O96 C87 1.247 . S
O97 Co84 2.244 . S
O97 C87 1.272 . S
O97 Co89 2.135 . S
Co98 O99 2.216 . S
Co98 O100 2.091 . S
Co98 O102 2.004 . S
Co98 O108 2.021 . S
Co98 O110 2.137 . S
Co98 O111 2.244 . S
O99 Co98 2.216 . S
O99 C106 1.247 . S
O100 Co98 2.091 . S
O100 C106 1.261 . S
C101 O110 1.247 . S
C101 O111 1.272 . S
O102 Co98 2.004 . S
O102 C107 1.259 . S
Co103 O104 2.061 . S
Co103 O109 2.052 . S
Co103 O111 2.135 . S
O104 Co103 2.061 . S
O104 C107 1.235 . S
C105 O108 1.238 . S
C105 O109 1.241 . S
C106 O99 1.247 . S
C106 O100 1.261 . S
C107 O102 1.259 . S
C107 O104 1.235 . S
O108 Co98 2.021 . S
O108 C105 1.238 . S
O109 Co103 2.052 . S
O109 C105 1.241 . S
O110 Co98 2.137 . S
O110 C101 1.247 . S
O111 Co98 2.244 . S
O111 C101 1.272 . S
O111 Co103 2.135 . S
H112 C120 0.929 . S
H113 C122 0.930 . S
H114 C124 0.930 . S
H115 C127 0.929 . S
H116 C130 0.930 . S
H117 C132 0.960 . S
H118 C132 0.960 . S
H119 C132 0.960 1_545 S
C120 H112 0.929 . S
C120 C121 1.377 . S
C120 C122 1.384 . S
C121 C120 1.377 . S
C121 C127 1.390 . S
C122 H113 0.930 . S
C122 C120 1.384 . S
C122 C123 1.372 . S
C123 C122 1.372 . S
C123 C124 1.400 . S
C123 C128 1.490 . S
C124 H114 0.930 . S
C124 C123 1.400 . S
C124 C127 1.386 . S
H125 C141 0.930 . S
H126 C142 0.931 . S
C127 H115 0.929 . S
C127 C121 1.390 . S
C127 C124 1.386 . S
C128 C123 1.490 . S
C128 C130 1.395 1_455 S
C128 C131 1.403 1_545 S
H129 C135 0.930 . S
C130 H116 0.930 . S
C130 C128 1.395 1_655 S
C130 C133 1.403 . S
C131 C128 1.403 1_565 S
C131 C132 1.524 . S
C131 C135 1.400 . S
C132 H117 0.960 . S
C132 H118 0.960 . S
C132 H119 0.960 1_565 S
C132 C131 1.524 . S
C133 C130 1.403 . S
C133 C134 1.392 1_545 S
C133 C137 1.495 . S
C134 C133 1.392 1_565 S
C134 C135 1.385 1_655 S
C134 C136 1.478 . S
C135 H129 0.930 . S
C135 C131 1.400 . S
C135 C134 1.385 1_455 S
C136 C134 1.478 . S
C136 C138 1.381 . S
C136 C142 1.383 . S
C137 C133 1.495 . S
C137 H143 0.959 . S
C137 H144 0.961 . S
C137 H145 0.970 . S
C138 C136 1.381 . S
C138 C139 1.394 . S
C138 H146 0.930 . S
C139 C138 1.394 . S
C139 C140 1.383 . S
C139 H147 0.929 . S
C140 C139 1.383 . S
C140 C141 1.377 . S
C141 H125 0.930 . S
C141 C140 1.377 . S
C141 C142 1.379 . S
C142 H126 0.931 . S
C142 C136 1.383 . S
C142 C141 1.379 . S
H143 C137 0.959 . S
H144 C137 0.961 . S
H145 C137 0.970 . S
H146 C138 0.930 . S
H147 C139 0.929 . S
H148 C156 0.929 . S
H149 C158 0.930 . S
H150 C160 0.930 . S
H151 C163 0.929 . S
H152 C166 0.930 . S
H153 C168 0.960 . S
H154 C168 0.960 . S
H155 C168 0.960 . S
C156 H148 0.929 . S
C156 C157 1.377 . S
C156 C158 1.384 . S
C157 C156 1.377 . S
C157 C163 1.390 . S
C158 H149 0.930 . S
C158 C156 1.384 . S
C158 C159 1.372 . S
C159 C158 1.372 . S
C159 C160 1.400 . S
C159 C164 1.490 . S
C160 H150 0.930 . S
C160 C159 1.400 . S
C160 C163 1.386 . S
H161 C177 0.930 . S
H162 C178 0.931 . S
C163 H151 0.929 . S
C163 C157 1.390 . S
C163 C160 1.386 . S
C164 C159 1.490 . S
C164 C166 1.395 . S
C164 C167 1.403 . S
H165 C171 0.930 . S
C166 H152 0.930 . S
C166 C164 1.395 . S
C166 C169 1.403 . S
C167 C164 1.403 . S
C167 C168 1.524 . S
C167 C171 1.400 . S
C168 H153 0.960 . S
C168 H154 0.960 . S
C168 H155 0.960 . S
C168 C167 1.524 . S
C169 C166 1.403 . S
C169 C170 1.392 . S
C169 C173 1.495 . S
C170 C169 1.392 . S
C170 C171 1.385 . S
C170 C172 1.478 . S
C171 H165 0.930 . S
C171 C167 1.400 . S
C171 C170 1.385 . S
C172 C170 1.478 . S
C172 C174 1.381 . S
C172 C178 1.383 . S
C173 C169 1.495 . S
C173 H179 0.959 . S
C173 H180 0.961 . S
C173 H181 0.960 . S
C174 C172 1.381 . S
C174 C175 1.394 . S
C174 H182 0.930 . S
C175 C174 1.394 . S
C175 C176 1.383 . S
C175 H183 0.929 . S
C176 C175 1.383 . S
C176 C177 1.377 . S
C177 H161 0.930 . S
C177 C176 1.377 . S
C177 C178 1.379 . S
C178 H162 0.931 . S
C178 C172 1.383 . S
C178 C177 1.379 . S
H179 C173 0.959 . S
H180 C173 0.961 . S
H181 C173 0.960 . S
H182 C174 0.930 . S
H183 C175 0.929 . S
H184 C192 0.929 . S
H185 C194 0.930 . S
H186 C196 0.930 . S
H187 C199 0.929 . S
H188 C202 0.930 . S
H189 C204 0.960 . S
H190 C204 0.960 . S
H191 C204 0.960 . S
C192 H184 0.929 . S
C192 C193 1.377 . S
C192 C194 1.384 . S
C193 C192 1.377 . S
C193 C199 1.390 . S
C194 H185 0.930 . S
C194 C192 1.384 . S
C194 C195 1.372 . S
C195 C194 1.372 . S
C195 C196 1.400 . S
C195 C200 1.490 . S
C196 H186 0.930 . S
C196 C195 1.400 . S
C196 C199 1.386 . S
H197 C213 0.930 . S
H198 C214 0.931 . S
C199 H187 0.929 . S
C199 C193 1.390 . S
C199 C196 1.386 . S
C200 C195 1.490 . S
C200 C202 1.395 . S
C200 C203 1.403 . S
H201 C207 0.930 . S
C202 H188 0.930 . S
C202 C200 1.395 . S
C202 C205 1.403 . S
C203 C200 1.403 . S
C203 C204 1.524 . S
C203 C207 1.400 . S
C204 H189 0.960 . S
C204 H190 0.960 . S
C204 H191 0.960 . S
C204 C203 1.524 . S
C205 C202 1.403 . S
C205 C206 1.392 . S
C205 C209 1.495 . S
C206 C205 1.392 . S
C206 C207 1.385 . S
C206 C208 1.478 . S
C207 H201 0.930 . S
C207 C203 1.400 . S
C207 C206 1.385 . S
C208 C206 1.478 . S
C208 C210 1.381 . S
C208 C214 1.383 . S
C209 C205 1.495 . S
C209 H215 0.959 . S
C209 H216 0.961 . S
C209 H217 0.960 . S
C210 C208 1.381 . S
C210 C211 1.394 . S
C210 H218 0.930 . S
C211 C210 1.394 . S
C211 C212 1.383 . S
C211 H219 0.929 . S
C212 C211 1.383 . S
C212 C213 1.377 . S
C213 H197 0.930 . S
C213 C212 1.377 . S
C213 C214 1.379 . S
C214 H198 0.931 . S
C214 C208 1.383 . S
C214 C213 1.379 . S
H215 C209 0.959 . S
H216 C209 0.961 . S
H217 C209 0.960 . S
H218 C210 0.930 . S
H219 C211 0.929 . S
H220 C228 0.929 . S
H221 C230 0.930 . S
H222 C232 0.930 . S
H223 C235 0.929 . S
H224 C238 0.930 . S
H225 C240 0.960 . S
H226 C240 0.960 . S
H227 C240 0.960 . S
C228 H220 0.929 . S
C228 C229 1.377 . S
C228 C230 1.384 . S
C229 C228 1.377 . S
C229 C235 1.390 . S
C230 H221 0.930 . S
C230 C228 1.384 . S
C230 C231 1.372 . S
C231 C230 1.372 . S
C231 C232 1.400 . S
C231 C236 1.490 . S
C232 H222 0.930 . S
C232 C231 1.400 . S
C232 C235 1.386 . S
H233 C249 0.930 . S
H234 C250 0.931 . S
C235 H223 0.929 . S
C235 C229 1.390 . S
C235 C232 1.386 . S
C236 C231 1.490 . S
C236 C238 1.395 1_455 S
C236 C239 1.403 1_545 S
H237 C243 0.930 . S
C238 H224 0.930 . S
C238 C236 1.395 1_655 S
C238 C241 1.403 . S
C239 C236 1.403 1_565 S
C239 C240 1.524 . S
C239 C243 1.400 1_455 S
C240 H225 0.960 . S
C240 H226 0.960 . S
C240 H227 0.960 . S
C240 C239 1.524 . S
C241 C238 1.403 . S
C241 C242 1.392 1_545 S
C241 C245 1.495 . S
C242 C241 1.392 1_565 S
C242 C243 1.385 . S
C242 C244 1.478 . S
C243 H237 0.930 . S
C243 C239 1.400 1_655 S
C243 C242 1.385 . S
C244 C242 1.478 . S
C244 C246 1.381 . S
C244 C250 1.383 . S
C245 C241 1.495 . S
C245 H251 0.959 . S
C245 H252 0.961 . S
C245 H253 0.960 . S
C246 C244 1.381 . S
C246 C247 1.394 . S
C246 H254 0.930 . S
C247 C246 1.394 . S
C247 C248 1.383 . S
C247 H255 0.929 . S
C248 C247 1.383 . S
C248 C249 1.377 . S
C249 H233 0.930 . S
C249 C248 1.377 . S
C249 C250 1.379 . S
C250 H234 0.931 . S
C250 C244 1.383 . S
C250 C249 1.379 . S
H251 C245 0.959 . S
H252 C245 0.961 . S
H253 C245 0.960 . S
H254 C246 0.930 . S
H255 C247 0.929 . S
H256 C264 0.929 . S
H257 C266 0.930 . S
H258 C268 0.930 . S
H259 C271 0.929 . S
H260 C274 0.930 . S
H261 C276 0.960 . S
H262 C276 0.960 . S
H263 C276 0.960 . S
C264 H256 0.929 . S
C264 C265 1.377 . S
C264 C266 1.384 . S
C265 C264 1.377 . S
C265 C271 1.390 . S
C266 H257 0.930 . S
C266 C264 1.384 . S
C266 C267 1.372 . S
C267 C266 1.372 . S
C267 C268 1.400 . S
C267 C272 1.490 . S
C268 H258 0.930 . S
C268 C267 1.400 . S
C268 C271 1.386 . S
H269 C285 0.930 . S
H270 C286 0.931 . S
C271 H259 0.929 . S
C271 C265 1.390 . S
C271 C268 1.386 . S
C272 C267 1.490 . S
C272 C274 1.395 . S
C272 C275 1.403 . S
H273 C279 0.930 . S
C274 H260 0.930 . S
C274 C272 1.395 . S
C274 C277 1.403 . S
C275 C272 1.403 . S
C275 C276 1.524 . S
C275 C279 1.400 . S
C276 H261 0.960 . S
C276 H262 0.960 . S
C276 H263 0.960 . S
C276 C275 1.524 . S
C277 C274 1.403 . S
C277 C278 1.392 . S
C277 C281 1.495 . S
C278 C277 1.392 . S
C278 C279 1.385 . S
C278 C280 1.478 . S
C279 H273 0.930 . S
C279 C275 1.400 . S
C279 C278 1.385 . S
C280 C278 1.478 . S
C280 C282 1.381 . S
C280 C286 1.383 . S
C281 C277 1.495 . S
C281 H287 0.959 . S
C281 H288 0.961 . S
C281 H289 0.960 . S
C282 C280 1.381 . S
C282 C283 1.394 . S
C282 H290 0.930 . S
C283 C282 1.394 . S
C283 C284 1.383 . S
C283 H291 0.929 . S
C284 C283 1.383 . S
C284 C285 1.377 . S
C285 H269 0.930 . S
C285 C284 1.377 . S
C285 C286 1.379 . S
C286 H270 0.931 . S
C286 C280 1.383 . S
C286 C285 1.379 . S
H287 C281 0.959 . S
H288 C281 0.961 . S
H289 C281 0.960 . S
H290 C282 0.930 . S
H291 C283 0.929 . S
H292 C300 0.929 . S
H293 C302 0.930 . S
H294 C304 0.930 . S
H295 C307 0.929 . S
H296 C310 0.930 . S
H297 C312 0.960 1_554 S
H298 C312 0.960 . S
H299 C312 0.960 . S
C300 H292 0.929 . S
C300 C301 1.377 . S
C300 C302 1.384 . S
C301 C300 1.377 . S
C301 C307 1.390 . S
C302 H293 0.930 . S
C302 C300 1.384 . S
C302 C303 1.372 . S
C303 C302 1.372 . S
C303 C304 1.400 . S
C303 C308 1.490 . S
C304 H294 0.930 . S
C304 C303 1.400 . S
C304 C307 1.386 . S
H305 C321 0.930 . S
H306 C322 0.931 . S
C307 H295 0.929 . S
C307 C301 1.390 . S
C307 C304 1.386 . S
C308 C303 1.490 . S
C308 C310 1.395 . S
C308 C311 1.403 . S
H309 C315 0.930 . S
C310 H296 0.930 . S
C310 C308 1.395 . S
C310 C313 1.403 1_556 S
C311 C308 1.403 . S
C311 C312 1.524 . S
C311 C315 1.400 1_556 S
C312 H297 0.960 1_556 S
C312 H298 0.960 . S
C312 H299 0.960 . S
C312 C311 1.524 . S
C313 C310 1.403 1_554 S
C313 C314 1.392 . S
C313 C317 1.495 . S
C314 C313 1.392 . S
C314 C315 1.385 . S
C314 C316 1.478 . S
C315 H309 0.930 . S
C315 C311 1.400 1_554 S
C315 C314 1.385 . S
C316 C314 1.478 . S
C316 C318 1.381 . S
C316 C322 1.383 . S
C317 C313 1.495 . S
C317 H323 0.959 1_554 S
C317 H324 0.961 . S
C317 H325 0.960 . S
C318 C316 1.381 . S
C318 C319 1.394 . S
C318 H326 0.930 . S
C319 C318 1.394 . S
C319 C320 1.383 . S
C319 H327 0.929 . S
C320 C319 1.383 . S
C320 C321 1.377 . S
C321 H305 0.930 . S
C321 C320 1.377 . S
C321 C322 1.379 . S
C322 H306 0.931 . S
C322 C316 1.383 . S
C322 C321 1.379 . S
H323 C317 0.959 1_556 S
H324 C317 0.961 . S
H325 C317 0.960 . S
H326 C318 0.930 . S
H327 C319 0.929 . S
H328 C336 0.929 . S
H329 C338 0.930 . S
H330 C340 0.930 . S
H331 C343 0.929 . S
H332 C346 0.930 . S
H333 C348 0.960 . S
H334 C348 0.960 . S
H335 C348 0.960 . S
C336 H328 0.929 . S
C336 C337 1.377 . S
C336 C338 1.384 . S
C337 C336 1.377 . S
C337 C343 1.390 . S
C338 H329 0.930 . S
C338 C336 1.384 . S
C338 C339 1.372 . S
C339 C338 1.372 . S
C339 C340 1.400 . S
C339 C344 1.490 . S
C340 H330 0.930 . S
C340 C339 1.400 . S
C340 C343 1.386 . S
H341 C357 0.930 . S
H342 C358 0.931 . S
C343 H331 0.929 . S
C343 C337 1.390 . S
C343 C340 1.386 . S
C344 C339 1.490 . S
C344 C346 1.395 . S
C344 C347 1.403 . S
H345 C351 0.930 . S
C346 H332 0.930 . S
C346 C344 1.395 . S
C346 C349 1.403 . S
C347 C344 1.403 . S
C347 C348 1.524 . S
C347 C351 1.400 . S
C348 H333 0.960 . S
C348 H334 0.960 . S
C348 H335 0.960 . S
C348 C347 1.524 . S
C349 C346 1.403 . S
C349 C350 1.392 . S
C349 C353 1.495 . S
C350 C349 1.392 . S
C350 C351 1.385 . S
C350 C352 1.478 . S
C351 H345 0.930 . S
C351 C347 1.400 . S
C351 C350 1.385 . S
C352 C350 1.478 . S
C352 C354 1.381 . S
C352 C358 1.383 . S
C353 C349 1.495 . S
C353 H359 0.959 . S
C353 H360 0.961 . S
C353 H361 0.960 . S
C354 C352 1.381 . S
C354 C355 1.394 . S
C354 H362 0.930 . S
C355 C354 1.394 . S
C355 C356 1.383 . S
C355 H363 0.929 . S
C356 C355 1.383 . S
C356 C357 1.377 . S
C357 H341 0.930 . S
C357 C356 1.377 . S
C357 C358 1.379 . S
C358 H342 0.931 . S
C358 C352 1.383 . S
C358 C357 1.379 . S
H359 C353 0.959 . S
H360 C353 0.961 . S
H361 C353 0.960 . S
H362 C354 0.930 . S
H363 C355 0.929 . S
H364 C372 0.929 . S
H365 C374 0.930 . S
H366 C376 0.930 . S
H367 C379 0.929 . S
H368 C382 0.930 . S
H369 C384 0.960 . S
H370 C384 0.960 . S
H371 C384 0.960 . S
C372 H364 0.929 . S
C372 C373 1.377 . S
C372 C374 1.384 . S
C373 C372 1.377 . S
C373 C379 1.390 . S
C374 H365 0.930 . S
C374 C372 1.384 . S
C374 C375 1.372 . S
C375 C374 1.372 . S
C375 C376 1.400 . S
C375 C380 1.490 . S
C376 H366 0.930 . S
C376 C375 1.400 . S
C376 C379 1.386 . S
H377 C393 0.930 . S
H378 C394 0.931 . S
C379 H367 0.929 . S
C379 C373 1.390 . S
C379 C376 1.386 . S
C380 C375 1.490 . S
C380 C382 1.395 . S
C380 C383 1.403 . S
H381 C387 0.930 . S
C382 H368 0.930 . S
C382 C380 1.395 . S
C382 C385 1.403 1_556 S
C383 C380 1.403 . S
C383 C384 1.524 . S
C383 C387 1.400 1_556 S
C384 H369 0.960 . S
C384 H370 0.960 . S
C384 H371 0.960 . S
C384 C383 1.524 . S
C385 C382 1.403 1_554 S
C385 C386 1.392 . S
C385 C389 1.495 . S
C386 C385 1.392 . S
C386 C387 1.385 . S
C386 C388 1.478 . S
C387 H381 0.930 . S
C387 C383 1.400 1_554 S
C387 C386 1.385 . S
C388 C386 1.478 . S
C388 C390 1.381 . S
C388 C394 1.383 . S
C389 C385 1.495 . S
C389 H395 0.959 . S
C389 H396 0.961 . S
C389 H397 0.960 . S
C390 C388 1.381 . S
C390 C391 1.394 . S
C390 H398 0.930 . S
C391 C390 1.394 . S
C391 C392 1.383 . S
C391 H399 0.929 . S
C392 C391 1.383 . S
C392 C393 1.377 . S
C393 H377 0.930 . S
C393 C392 1.377 . S
C393 C394 1.379 . S
C394 H378 0.931 . S
C394 C388 1.383 . S
C394 C393 1.379 . S
H395 C389 0.959 . S
H396 C389 0.961 . S
H397 C389 0.960 . S
H398 C390 0.930 . S
H399 C391 0.929 . S
H400 C408 0.929 . S
H401 C410 0.930 . S
H402 C412 0.930 . S
H403 C415 0.929 . S
H404 C418 0.930 . S
H405 C420 0.960 . S
H406 C420 0.960 . S
H407 C420 0.960 . S
C408 H400 0.929 . S
C408 C409 1.377 . S
C408 C410 1.384 . S
C409 C408 1.377 . S
C409 C415 1.390 . S
C410 H401 0.930 . S
C410 C408 1.384 . S
C410 C411 1.372 . S
C411 C410 1.372 . S
C411 C412 1.400 . S
C411 C416 1.490 . S
C412 H402 0.930 . S
C412 C411 1.400 . S
C412 C415 1.386 . S
H413 C429 0.930 . S
H414 C430 0.931 . S
C415 H403 0.929 . S
C415 C409 1.390 . S
C415 C412 1.386 . S
C416 C411 1.490 . S
C416 C418 1.395 . S
C416 C419 1.403 . S
H417 C423 0.930 . S
C418 H404 0.930 . S
C418 C416 1.395 . S
C418 C421 1.403 . S
C419 C416 1.403 . S
C419 C420 1.524 . S
C419 C423 1.400 . S
C420 H405 0.960 . S
C420 H406 0.960 . S
C420 H407 0.960 . S
C420 C419 1.524 . S
C421 C418 1.403 . S
C421 C422 1.392 . S
C421 C425 1.495 . S
C422 C421 1.392 . S
C422 C423 1.385 . S
C422 C424 1.478 . S
C423 H417 0.930 . S
C423 C419 1.400 . S
C423 C422 1.385 . S
C424 C422 1.478 . S
C424 C426 1.381 . S
C424 C430 1.383 . S
C425 C421 1.495 . S
C425 H431 0.959 . S
C425 H432 0.961 . S
C425 H433 0.960 . S
C426 C424 1.381 . S
C426 C427 1.394 . S
C426 H434 0.930 . S
C427 C426 1.394 . S
C427 C428 1.383 . S
C427 H435 0.929 . S
C428 C427 1.383 . S
C428 C429 1.377 . S
C429 H413 0.930 . S
C429 C428 1.377 . S
C429 C430 1.379 . S
C430 H414 0.931 . S
C430 C424 1.383 . S
C430 C429 1.379 . S
H431 C425 0.959 . S
H432 C425 0.961 . S
H433 C425 0.960 . S
H434 C426 0.930 . S
H435 C427 0.929 . S
H436 C444 0.929 . S
H437 C446 0.930 . S
H438 C448 0.930 . S
H439 C451 0.929 . S
H440 C454 0.930 . S
H441 C456 0.960 . S
H442 C456 0.960 . S
H443 C456 0.960 . S
C444 H436 0.929 . S
C444 C445 1.377 . S
C444 C446 1.384 . S
C445 C444 1.377 . S
C445 C451 1.390 . S
C446 H437 0.930 . S
C446 C444 1.384 . S
C446 C447 1.372 . S
C447 C446 1.372 . S
C447 C448 1.400 . S
C447 C452 1.490 . S
C448 H438 0.930 . S
C448 C447 1.400 . S
C448 C451 1.386 . S
H449 C465 0.930 . S
H450 C466 0.931 . S
C451 H439 0.929 . S
C451 C445 1.390 . S
C451 C448 1.386 . S
C452 C447 1.490 . S
C452 C454 1.395 . S
C452 C455 1.403 . S
H453 C459 0.930 . S
C454 H440 0.930 . S
C454 C452 1.395 . S
C454 C457 1.403 . S
C455 C452 1.403 . S
C455 C456 1.524 . S
C455 C459 1.400 . S
C456 H441 0.960 . S
C456 H442 0.960 . S
C456 H443 0.960 . S
C456 C455 1.524 . S
C457 C454 1.403 . S
C457 C458 1.392 . S
C457 C461 1.495 . S
C458 C457 1.392 . S
C458 C459 1.385 . S
C458 C460 1.478 . S
C459 H453 0.930 . S
C459 C455 1.400 . S
C459 C458 1.385 . S
C460 C458 1.478 . S
C460 C462 1.381 . S
C460 C466 1.383 . S
C461 C457 1.495 . S
C461 H467 0.959 . S
C461 H468 0.961 . S
C461 H469 0.960 . S
C462 C460 1.381 . S
C462 C463 1.394 1_565 S
C462 H470 0.930 . S
C463 C462 1.394 1_545 S
C463 C464 1.383 . S
C463 H471 0.929 . S
C464 C463 1.383 . S
C464 C465 1.377 . S
C465 H449 0.930 . S
C465 C464 1.377 . S
C465 C466 1.379 1_545 S
C466 H450 0.931 . S
C466 C460 1.383 . S
C466 C465 1.379 1_565 S
H467 C461 0.959 . S
H468 C461 0.961 . S
H469 C461 0.960 . S
H470 C462 0.930 . S
H471 C463 0.929 . S
H472 C480 0.929 . S
H473 C482 0.930 . S
H474 C484 0.930 . S
H475 C487 0.929 . S
H476 C490 0.930 . S
H477 C492 0.960 . S
H478 C492 0.960 . S
H479 C492 0.960 . S
C480 H472 0.929 . S
C480 C481 1.377 . S
C480 C482 1.384 . S
C481 C480 1.377 . S
C481 C487 1.390 . S
C482 H473 0.930 . S
C482 C480 1.384 . S
C482 C483 1.372 . S
C483 C482 1.372 . S
C483 C484 1.400 . S
C483 C488 1.490 . S
C484 H474 0.930 . S
C484 C483 1.400 . S
C484 C487 1.386 . S
H485 C501 0.930 . S
H486 C502 0.931 . S
C487 H475 0.929 . S
C487 C481 1.390 . S
C487 C484 1.386 . S
C488 C483 1.490 . S
C488 C490 1.395 . S
C488 C491 1.403 . S
H489 C495 0.930 . S
C490 H476 0.930 . S
C490 C488 1.395 . S
C490 C493 1.403 . S
C491 C488 1.403 . S
C491 C492 1.524 . S
C491 C495 1.400 . S
C492 H477 0.960 . S
C492 H478 0.960 . S
C492 H479 0.960 . S
C492 C491 1.524 . S
C493 C490 1.403 . S
C493 C494 1.392 . S
C493 C497 1.495 . S
C494 C493 1.392 . S
C494 C495 1.385 . S
C494 C496 1.478 . S
C495 H489 0.930 . S
C495 C491 1.400 . S
C495 C494 1.385 . S
C496 C494 1.478 . S
C496 C498 1.381 . S
C496 C502 1.383 . S
C497 C493 1.495 . S
C497 H503 0.959 . S
C497 H504 0.961 . S
C497 H505 0.960 . S
C498 C496 1.381 . S
C498 C499 1.394 . S
C498 H506 0.930 . S
C499 C498 1.394 . S
C499 C500 1.383 . S
C499 H507 0.929 . S
C500 C499 1.383 . S
C500 C501 1.377 . S
C501 H485 0.930 . S
C501 C500 1.377 . S
C501 C502 1.379 . S
C502 H486 0.931 . S
C502 C496 1.383 . S
C502 C501 1.379 . S
H503 C497 0.959 . S
H504 C497 0.961 . S
H505 C497 0.960 . S
H506 C498 0.930 . S
H507 C499 0.929 . S
H508 C516 0.929 . S
H509 C518 0.930 . S
H510 C520 0.930 . S
H511 C523 0.929 . S
H512 C526 0.930 . S
H513 C528 0.960 . S
H514 C528 0.960 . S
H515 C528 0.960 . S
C516 H508 0.929 . S
C516 C517 1.377 . S
C516 C518 1.384 . S
C517 C516 1.377 . S
C517 C523 1.390 . S
C518 H509 0.930 . S
C518 C516 1.384 . S
C518 C519 1.372 . S
C519 C518 1.372 . S
C519 C520 1.400 . S
C519 C524 1.490 . S
C520 H510 0.930 . S
C520 C519 1.400 . S
C520 C523 1.386 . S
H521 C537 0.930 . S
H522 C538 0.931 . S
C523 H511 0.929 . S
C523 C517 1.390 . S
C523 C520 1.386 . S
C524 C519 1.490 . S
C524 C526 1.395 . S
C524 C527 1.403 . S
H525 C531 0.930 . S
C526 H512 0.930 . S
C526 C524 1.395 . S
C526 C529 1.403 . S
C527 C524 1.403 . S
C527 C528 1.524 . S
C527 C531 1.400 . S
C528 H513 0.960 . S
C528 H514 0.960 . S
C528 H515 0.960 . S
C528 C527 1.524 . S
C529 C526 1.403 . S
C529 C530 1.392 . S
C529 C533 1.495 . S
C530 C529 1.392 . S
C530 C531 1.385 . S
C530 C532 1.478 . S
C531 H525 0.930 . S
C531 C527 1.400 . S
C531 C530 1.385 . S
C532 C530 1.478 . S
C532 C534 1.381 1_545 S
C532 C538 1.383 . S
C533 C529 1.495 . S
C533 H539 0.959 . S
C533 H540 0.961 . S
C533 H541 0.960 . S
C534 C532 1.381 1_565 S
C534 C535 1.394 . S
C534 H542 0.930 . S
C535 C534 1.394 . S
C535 C536 1.383 . S
C535 H543 0.929 . S
C536 C535 1.383 . S
C536 C537 1.377 . S
C537 H521 0.930 . S
C537 C536 1.377 . S
C537 C538 1.379 1_565 S
C538 H522 0.931 . S
C538 C532 1.383 . S
C538 C537 1.379 1_545 S
H539 C533 0.959 . S
H540 C533 0.961 . S
H541 C533 0.960 . S
H542 C534 0.930 . S
H543 C535 0.929 . S
H544 C552 0.929 . S
H545 C554 0.930 . S
H546 C556 0.930 . S
H547 C559 0.929 . S
H548 C562 0.930 . S
H549 C564 0.960 . S
H550 C564 0.960 . S
H551 C564 0.960 . S
C552 H544 0.929 . S
C552 C553 1.377 . S
C552 C554 1.384 . S
C553 C552 1.377 . S
C553 C559 1.390 . S
C554 H545 0.930 . S
C554 C552 1.384 . S
C554 C555 1.372 1_455 S
C555 C554 1.372 1_655 S
C555 C556 1.400 . S
C555 C560 1.490 . S
C556 H546 0.930 . S
C556 C555 1.400 . S
C556 C559 1.386 1_655 S
H557 C573 0.930 . S
H558 C574 0.931 . S
C559 H547 0.929 . S
C559 C553 1.390 . S
C559 C556 1.386 1_455 S
C560 C555 1.490 . S
C560 C562 1.395 . S
C560 C563 1.403 . S
H561 C567 0.930 . S
C562 H548 0.930 . S
C562 C560 1.395 . S
C562 C565 1.403 . S
C563 C560 1.403 . S
C563 C564 1.524 . S
C563 C567 1.400 . S
C564 H549 0.960 . S
C564 H550 0.960 . S
C564 H551 0.960 . S
C564 C563 1.524 . S
C565 C562 1.403 . S
C565 C566 1.392 . S
C565 C569 1.495 . S
C566 C565 1.392 . S
C566 C567 1.385 . S
C566 C568 1.478 . S
C567 H561 0.930 . S
C567 C563 1.400 . S
C567 C566 1.385 . S
C568 C566 1.478 . S
C568 C570 1.381 . S
C568 C574 1.383 . S
C569 C565 1.495 . S
C569 H575 0.959 . S
C569 H576 0.961 . S
C569 H577 0.960 . S
C570 C568 1.381 . S
C570 C571 1.394 . S
C570 H578 0.930 . S
C571 C570 1.394 . S
C571 C572 1.383 . S
C571 H579 0.929 . S
C572 C571 1.383 . S
C572 C573 1.377 . S
C573 H557 0.930 . S
C573 C572 1.377 . S
C573 C574 1.379 . S
C574 H558 0.931 . S
C574 C568 1.383 . S
C574 C573 1.379 . S
H575 C569 0.959 . S
H576 C569 0.961 . S
H577 C569 0.960 . S
H578 C570 0.930 . S
H579 C571 0.929 . S
H580 C588 0.929 . S
H581 C590 0.930 . S
H582 C592 0.930 . S
H583 C595 0.929 . S
H584 C598 0.930 . S
H585 C600 0.960 . S
H586 C600 0.960 . S
H587 C600 0.960 . S
C588 H580 0.929 . S
C588 C589 1.377 . S
C588 C590 1.384 . S
C589 C588 1.377 . S
C589 C595 1.390 . S
C590 H581 0.930 . S
C590 C588 1.384 . S
C590 C591 1.372 . S
C591 C590 1.372 . S
C591 C592 1.400 . S
C591 C596 1.490 . S
C592 H582 0.930 . S
C592 C591 1.400 . S
C592 C595 1.386 . S
H593 C609 0.930 . S
H594 C610 0.931 . S
C595 H583 0.929 . S
C595 C589 1.390 . S
C595 C592 1.386 . S
C596 C591 1.490 . S
C596 C598 1.395 . S
C596 C599 1.403 . S
H597 C603 0.930 . S
C598 H584 0.930 . S
C598 C596 1.395 . S
C598 C601 1.403 . S
C599 C596 1.403 . S
C599 C600 1.524 . S
C599 C603 1.400 . S
C600 H585 0.960 . S
C600 H586 0.960 . S
C600 H587 0.960 . S
C600 C599 1.524 . S
C601 C598 1.403 . S
C601 C602 1.392 . S
C601 C605 1.495 . S
C602 C601 1.392 . S
C602 C603 1.385 . S
C602 C604 1.478 . S
C603 H597 0.930 . S
C603 C599 1.400 . S
C603 C602 1.385 . S
C604 C602 1.478 . S
C604 C606 1.381 . S
C604 C610 1.383 . S
C605 C601 1.495 . S
C605 H611 0.959 . S
C605 H612 0.961 . S
C605 H613 0.960 . S
C606 C604 1.381 . S
C606 C607 1.394 . S
C606 H614 0.930 . S
C607 C606 1.394 . S
C607 C608 1.383 . S
C607 H615 0.929 . S
C608 C607 1.383 . S
C608 C609 1.377 . S
C609 H593 0.930 . S
C609 C608 1.377 . S
C609 C610 1.379 . S
C610 H594 0.931 . S
C610 C604 1.383 . S
C610 C609 1.379 . S
H611 C605 0.959 . S
H612 C605 0.961 . S
H613 C605 0.960 . S
H614 C606 0.930 . S
H615 C607 0.929 . S
H616 C624 0.929 . S
H617 C626 0.930 . S
H618 C628 0.930 . S
H619 C631 0.929 . S
H620 C634 0.930 . S
H621 C636 0.960 . S
H622 C636 0.960 . S
H623 C636 0.960 . S
C624 H616 0.929 . S
C624 C625 1.377 . S
C624 C626 1.384 . S
C625 C624 1.377 . S
C625 C631 1.390 . S
C626 H617 0.930 . S
C626 C624 1.384 . S
C626 C627 1.372 . S
C627 C626 1.372 . S
C627 C628 1.400 . S
C627 C632 1.490 . S
C628 H618 0.930 . S
C628 C627 1.400 . S
C628 C631 1.386 . S
H629 C645 0.930 . S
H630 C646 0.931 . S
C631 H619 0.929 . S
C631 C625 1.390 . S
C631 C628 1.386 . S
C632 C627 1.490 . S
C632 C634 1.395 . S
C632 C635 1.403 . S
H633 C639 0.930 . S
C634 H620 0.930 . S
C634 C632 1.395 . S
C634 C637 1.403 . S
C635 C632 1.403 . S
C635 C636 1.524 . S
C635 C639 1.400 . S
C636 H621 0.960 . S
C636 H622 0.960 . S
C636 H623 0.960 . S
C636 C635 1.524 . S
C637 C634 1.403 . S
C637 C638 1.392 . S
C637 C641 1.495 . S
C638 C637 1.392 . S
C638 C639 1.385 . S
C638 C640 1.478 . S
C639 H633 0.930 . S
C639 C635 1.400 . S
C639 C638 1.385 . S
C640 C638 1.478 . S
C640 C642 1.381 1_455 S
C640 C646 1.383 . S
C641 C637 1.495 . S
C641 H647 0.959 . S
C641 H648 0.961 . S
C641 H649 0.960 . S
C642 C640 1.381 1_655 S
C642 C643 1.394 . S
C642 H650 0.930 . S
C643 C642 1.394 . S
C643 C644 1.383 . S
C643 H651 0.929 . S
C644 C643 1.383 . S
C644 C645 1.377 . S
C645 H629 0.930 . S
C645 C644 1.377 . S
C645 C646 1.379 1_655 S
C646 H630 0.931 . S
C646 C640 1.383 . S
C646 C645 1.379 1_455 S
H647 C641 0.959 . S
H648 C641 0.961 . S
H649 C641 0.960 . S
H650 C642 0.930 . S
H651 C643 0.929 . S
H652 C660 0.929 . S
H653 C662 0.930 . S
H654 C664 0.930 . S
H655 C667 0.929 . S
H656 C670 0.930 . S
H657 C672 0.960 . S
H658 C672 0.960 . S
H659 C672 0.960 . S
C660 H652 0.929 . S
C660 C661 1.377 . S
C660 C662 1.384 . S
C661 C660 1.377 . S
C661 C667 1.390 . S
C662 H653 0.930 . S
C662 C660 1.384 . S
C662 C663 1.372 . S
C663 C662 1.372 . S
C663 C664 1.400 . S
C663 C668 1.490 . S
C664 H654 0.930 . S
C664 C663 1.400 . S
C664 C667 1.386 . S
H665 C681 0.930 . S
H666 C682 0.931 . S
C667 H655 0.929 . S
C667 C661 1.390 . S
C667 C664 1.386 . S
C668 C663 1.490 . S
C668 C670 1.395 . S
C668 C671 1.403 . S
H669 C675 0.930 . S
C670 H656 0.930 . S
C670 C668 1.395 . S
C670 C673 1.403 . S
C671 C668 1.403 . S
C671 C672 1.524 . S
C671 C675 1.400 . S
C672 H657 0.960 . S
C672 H658 0.960 . S
C672 H659 0.960 . S
C672 C671 1.524 . S
C673 C670 1.403 . S
C673 C674 1.392 . S
C673 C677 1.495 . S
C674 C673 1.392 . S
C674 C675 1.385 . S
C674 C676 1.478 . S
C675 H669 0.930 . S
C675 C671 1.400 . S
C675 C674 1.385 . S
C676 C674 1.478 . S
C676 C678 1.381 . S
C676 C682 1.383 . S
C677 C673 1.495 . S
C677 H683 0.959 . S
C677 H684 0.961 . S
C677 H685 0.960 . S
C678 C676 1.381 . S
C678 C679 1.394 . S
C678 H686 0.930 . S
C679 C678 1.394 . S
C679 C680 1.383 . S
C679 H687 0.929 . S
C680 C679 1.383 . S
C680 C681 1.377 . S
C681 H665 0.930 . S
C681 C680 1.377 . S
C681 C682 1.379 . S
C682 H666 0.931 . S
C682 C676 1.383 . S
C682 C681 1.379 . S
H683 C677 0.959 . S
H684 C677 0.961 . S
H685 C677 0.960 . S
H686 C678 0.930 . S
H687 C679 0.929 . S
C121 C9 0.325 . S
C140 C37 0.407 . S
C157 C23 0.313 . S
C176 C51 0.221 . S
C193 C65 0.315 . S
C212 C93 0.407 . S
C229 C79 0.312 . S
C248 C107 0.220 . S
C265 C7 1.267 . S
C284 C77 1.290 . S
C301 C21 1.266 . S
C320 C91 1.266 . S
C337 C105 1.278 . S
C356 C35 1.285 . S
C373 C49 1.277 . S
C392 C63 1.293 . S
C409 C59 1.709 . S
C428 C8 1.735 . S
C445 C22 1.750 . S
C464 C73 1.697 . S
C481 C36 1.747 . S
C500 C87 1.711 . S
C517 C50 1.752 . S
C536 C101 1.733 . S
C553 C3 1.718 . S
C572 C64 1.762 . S
C589 C78 1.751 . S
C608 C17 1.709 . S
C625 C92 1.752 . S
C644 C31 1.723 . S
C661 C45 1.709 . S
C680 C106 1.735 . S
