# Generated by pormake.
# Topology sxk, (6)-cn, num edge types: 1
# Building blocks:
#     Node 0, Type 0, BuildingBlock: OJICUG_clean_sbu_0, # of connection points: 6
#     Node 1, Type 0, BuildingBlock: OJICUG_clean_sbu_0, # of connection points: 6
#     Node 2, Type 0, BuildingBlock: OJICUG_clean_sbu_0, # of connection points: 6
#     Node 3, Type 0, BuildingBlock: OJICUG_clean_sbu_0, # of connection points: 6
#     Node 4, Type 0, BuildingBlock: OJICUG_clean_sbu_0, # of connection points: 6
#     Node 5, Type 0, BuildingBlock: OJICUG_clean_sbu_0, # of connection points: 6
#     Node 6, Type 0, BuildingBlock: OJICUG_clean_sbu_0, # of connection points: 6
#     Node 7, Type 0, BuildingBlock: OJICUG_clean_sbu_0, # of connection points: 6
#     Node 8, Type 0, BuildingBlock: OJICUG_clean_sbu_0, # of connection points: 6
#     Node 9, Type 0, BuildingBlock: OJICUG_clean_sbu_0, # of connection points: 6
#     Node 10, Type 0, BuildingBlock: OJICUG_clean_sbu_0, # of connection points: 6
#     Node 11, Type 0, BuildingBlock: OJICUG_clean_sbu_0, # of connection points: 6
#     Node 12, Type 0, BuildingBlock: OJICUG_clean_sbu_0, # of connection points: 6
#     Node 13, Type 0, BuildingBlock: OJICUG_clean_sbu_0, # of connection points: 6
#     Node 14, Type 0, BuildingBlock: OJICUG_clean_sbu_0, # of connection points: 6
#     Node 15, Type 0, BuildingBlock: OJICUG_clean_sbu_0, # of connection points: 6
#     Node 16, Type 0, BuildingBlock: OJICUG_clean_sbu_0, # of connection points: 6
#     Node 17, Type 0, BuildingBlock: OJICUG_clean_sbu_0, # of connection points: 6
#     Node 18, Type 0, BuildingBlock: OJICUG_clean_sbu_0, # of connection points: 6
#     Node 19, Type 0, BuildingBlock: OJICUG_clean_sbu_0, # of connection points: 6
#     Node 20, Type 0, BuildingBlock: OJICUG_clean_sbu_0, # of connection points: 6
#     Node 21, Type 0, BuildingBlock: OJICUG_clean_sbu_0, # of connection points: 6
#     Node 22, Type 0, BuildingBlock: OJICUG_clean_sbu_0, # of connection points: 6
#     Node 23, Type 0, BuildingBlock: OJICUG_clean_sbu_0, # of connection points: 6
#     Node 24, Type 0, BuildingBlock: OJICUG_clean_sbu_0, # of connection points: 6
#     Node 25, Type 0, BuildingBlock: OJICUG_clean_sbu_0, # of connection points: 6
#     Node 26, Type 0, BuildingBlock: OJICUG_clean_sbu_0, # of connection points: 6
#     Node 27, Type 0, BuildingBlock: OJICUG_clean_sbu_0, # of connection points: 6
#     Node 28, Type 0, BuildingBlock: OJICUG_clean_sbu_0, # of connection points: 6
#     Node 29, Type 0, BuildingBlock: OJICUG_clean_sbu_0, # of connection points: 6
#     Node 30, Type 0, BuildingBlock: OJICUG_clean_sbu_0, # of connection points: 6
#     Node 31, Type 0, BuildingBlock: OJICUG_clean_sbu_0, # of connection points: 6
#     Node 32, Type 0, BuildingBlock: OJICUG_clean_sbu_0, # of connection points: 6
#     Node 33, Type 0, BuildingBlock: OJICUG_clean_sbu_0, # of connection points: 6
#     Node 34, Type 0, BuildingBlock: OJICUG_clean_sbu_0, # of connection points: 6
#     Node 35, Type 0, BuildingBlock: OJICUG_clean_sbu_0, # of connection points: 6
#     Node 36, Type 0, BuildingBlock: OJICUG_clean_sbu_0, # of connection points: 6
#     Node 37, Type 0, BuildingBlock: OJICUG_clean_sbu_0, # of connection points: 6
#     Node 38, Type 0, BuildingBlock: OJICUG_clean_sbu_0, # of connection points: 6
#     Node 39, Type 0, BuildingBlock: OJICUG_clean_sbu_0, # of connection points: 6
#     Node 40, Type 0, BuildingBlock: OJICUG_clean_sbu_0, # of connection points: 6
#     Node 41, Type 0, BuildingBlock: OJICUG_clean_sbu_0, # of connection points: 6
#     Node 42, Type 0, BuildingBlock: OJICUG_clean_sbu_0, # of connection points: 6
#     Node 43, Type 0, BuildingBlock: OJICUG_clean_sbu_0, # of connection points: 6
#     Node 44, Type 0, BuildingBlock: OJICUG_clean_sbu_0, # of connection points: 6
#     Node 45, Type 0, BuildingBlock: OJICUG_clean_sbu_0, # of connection points: 6
#     Node 46, Type 0, BuildingBlock: OJICUG_clean_sbu_0, # of connection points: 6
#     Node 47, Type 0, BuildingBlock: OJICUG_clean_sbu_0, # of connection points: 6
#     Edge 48, Type (0, 0), None
#     Edge 49, Type (0, 0), None
#     Edge 50, Type (0, 0), None
#     Edge 51, Type (0, 0), None
#     Edge 52, Type (0, 0), None
#     Edge 53, Type (0, 0), None
#     Edge 54, Type (0, 0), None
#     Edge 55, Type (0, 0), None
#     Edge 56, Type (0, 0), None
#     Edge 57, Type (0, 0), None
#     Edge 58, Type (0, 0), None
#     Edge 59, Type (0, 0), None
#     Edge 60, Type (0, 0), None
#     Edge 61, Type (0, 0), None
#     Edge 62, Type (0, 0), None
#     Edge 63, Type (0, 0), None
#     Edge 64, Type (0, 0), None
#     Edge 65, Type (0, 0), None
#     Edge 66, Type (0, 0), None
#     Edge 67, Type (0, 0), None
#     Edge 68, Type (0, 0), None
#     Edge 69, Type (0, 0), None
#     Edge 70, Type (0, 0), None
#     Edge 71, Type (0, 0), None
#     Edge 72, Type (0, 0), None
#     Edge 73, Type (0, 0), None
#     Edge 74, Type (0, 0), None
#     Edge 75, Type (0, 0), None
#     Edge 76, Type (0, 0), None
#     Edge 77, Type (0, 0), None
#     Edge 78, Type (0, 0), None
#     Edge 79, Type (0, 0), None
#     Edge 80, Type (0, 0), None
#     Edge 81, Type (0, 0), None
#     Edge 82, Type (0, 0), None
#     Edge 83, Type (0, 0), None
#     Edge 84, Type (0, 0), None
#     Edge 85, Type (0, 0), None
#     Edge 86, Type (0, 0), None
#     Edge 87, Type (0, 0), None
#     Edge 88, Type (0, 0), None
#     Edge 89, Type (0, 0), None
#     Edge 90, Type (0, 0), None
#     Edge 91, Type (0, 0), None
#     Edge 92, Type (0, 0), None
#     Edge 93, Type (0, 0), None
#     Edge 94, Type (0, 0), None
#     Edge 95, Type (0, 0), None
#     Edge 96, Type (0, 0), None
#     Edge 97, Type (0, 0), None
#     Edge 98, Type (0, 0), None
#     Edge 99, Type (0, 0), None
#     Edge 100, Type (0, 0), None
#     Edge 101, Type (0, 0), None
#     Edge 102, Type (0, 0), None
#     Edge 103, Type (0, 0), None
#     Edge 104, Type (0, 0), None
#     Edge 105, Type (0, 0), None
#     Edge 106, Type (0, 0), None
#     Edge 107, Type (0, 0), None
#     Edge 108, Type (0, 0), None
#     Edge 109, Type (0, 0), None
#     Edge 110, Type (0, 0), None
#     Edge 111, Type (0, 0), None
#     Edge 112, Type (0, 0), None
#     Edge 113, Type (0, 0), None
#     Edge 114, Type (0, 0), None
#     Edge 115, Type (0, 0), None
#     Edge 116, Type (0, 0), None
#     Edge 117, Type (0, 0), None
#     Edge 118, Type (0, 0), None
#     Edge 119, Type (0, 0), None
#     Edge 120, Type (0, 0), None
#     Edge 121, Type (0, 0), None
#     Edge 122, Type (0, 0), None
#     Edge 123, Type (0, 0), None
#     Edge 124, Type (0, 0), None
#     Edge 125, Type (0, 0), None
#     Edge 126, Type (0, 0), None
#     Edge 127, Type (0, 0), None
#     Edge 128, Type (0, 0), None
#     Edge 129, Type (0, 0), None
#     Edge 130, Type (0, 0), None
#     Edge 131, Type (0, 0), None
#     Edge 132, Type (0, 0), None
#     Edge 133, Type (0, 0), None
#     Edge 134, Type (0, 0), None
#     Edge 135, Type (0, 0), None
#     Edge 136, Type (0, 0), None
#     Edge 137, Type (0, 0), None
#     Edge 138, Type (0, 0), None
#     Edge 139, Type (0, 0), None
#     Edge 140, Type (0, 0), None
#     Edge 141, Type (0, 0), None
#     Edge 142, Type (0, 0), None
#     Edge 143, Type (0, 0), None
#     Edge 144, Type (0, 0), None
#     Edge 145, Type (0, 0), None
#     Edge 146, Type (0, 0), None
#     Edge 147, Type (0, 0), None
#     Edge 148, Type (0, 0), None
#     Edge 149, Type (0, 0), None
#     Edge 150, Type (0, 0), None
#     Edge 151, Type (0, 0), None
#     Edge 152, Type (0, 0), None
#     Edge 153, Type (0, 0), None
#     Edge 154, Type (0, 0), None
#     Edge 155, Type (0, 0), None
#     Edge 156, Type (0, 0), None
#     Edge 157, Type (0, 0), None
#     Edge 158, Type (0, 0), None
#     Edge 159, Type (0, 0), None
#     Edge 160, Type (0, 0), None
#     Edge 161, Type (0, 0), None
#     Edge 162, Type (0, 0), None
#     Edge 163, Type (0, 0), None
#     Edge 164, Type (0, 0), None
#     Edge 165, Type (0, 0), None
#     Edge 166, Type (0, 0), None
#     Edge 167, Type (0, 0), None
#     Edge 168, Type (0, 0), None
#     Edge 169, Type (0, 0), None
#     Edge 170, Type (0, 0), None
#     Edge 171, Type (0, 0), None
#     Edge 172, Type (0, 0), None
#     Edge 173, Type (0, 0), None
#     Edge 174, Type (0, 0), None
#     Edge 175, Type (0, 0), None
#     Edge 176, Type (0, 0), None
#     Edge 177, Type (0, 0), None
#     Edge 178, Type (0, 0), None
#     Edge 179, Type (0, 0), None
#     Edge 180, Type (0, 0), None
#     Edge 181, Type (0, 0), None
#     Edge 182, Type (0, 0), None
#     Edge 183, Type (0, 0), None
#     Edge 184, Type (0, 0), None
#     Edge 185, Type (0, 0), None
#     Edge 186, Type (0, 0), None
#     Edge 187, Type (0, 0), None
#     Edge 188, Type (0, 0), None
#     Edge 189, Type (0, 0), None
#     Edge 190, Type (0, 0), None
#     Edge 191, Type (0, 0), None
# Relax obj value: 0.344
# Max RMSD: 0.295
# Mean RMSD: 0.295
data_MOF--net-sxk--node1-OJICUG_clean_sbu_0--edge1-none
_symmetry_space_group_name_H-M    P1
_symmetry_Int_Tables_number       1
_symmetry_cell_setting            triclinic
loop_
_symmetry_equiv_pos_as_xyz
'x, y, z'
_cell_length_a     27.787549
_cell_length_b     27.787641
_cell_length_c     27.787272
_cell_angle_alpha  90.000069
_cell_angle_beta   89.9987
_cell_angle_gamma 89.999402
loop_
_atom_site_label
_atom_site_type_symbol
_atom_site_fract_x
_atom_site_fract_y
_atom_site_fract_z
_atom_type_partial_charge
Sc0 Sc 0.1097 0.1938 0.27904 0.0
Sc1 Sc 0.0136 0.13341 0.24433 0.0
Sc2 Sc 0.08102 0.09068 0.33643 0.0
O3 O 0.06603 0.1391 0.28874 0.0
C4 C 0.15152 0.09686 0.24261 0.0
C5 C 0.06936 0.21226 0.18643 0.0
C6 C 0.03767 0.02512 0.25734 0.0
C7 C 0.01239 0.22788 0.30998 0.0
C8 C 0.14306 0.17477 0.37524 0.0
C9 C 0.96973 0.10293 0.34669 0.0
O10 O 0.14451 0.14154 0.23161 0.0
O11 O 0.05835 0.16725 0.18335 0.0
O12 O 0.04948 0.03218 0.30039 0.0
O13 O 0.05699 0.22836 0.32337 0.0
O14 O 0.10903 0.14623 0.3849 0.0
O15 O 0.96614 0.10639 0.30085 0.0
O16 O 0.15915 0.17376 0.3333 0.0
O17 O 0.99602 0.20168 0.27536 0.0
O18 O 0.01042 0.10117 0.3689 0.0
O19 O 0.0685 0.22989 0.22695 0.0
O20 O 0.14413 0.08119 0.28647 0.0
O21 O 0.03272 0.0593 0.22636 0.0
Sc22 Sc 0.44381 0.64039 0.97111 0.0
Sc23 Sc 0.38342 0.7365 0.0058 0.0
Sc24 Sc 0.34068 0.66908 0.9137 0.0
O25 O 0.38911 0.68407 0.9614 0.0
C26 C 0.42478 0.60705 0.8749 0.0
C27 C 0.47789 0.7377 0.94014 0.0
C28 C 0.35295 0.78037 0.90345 0.0
C29 C 0.46226 0.6808 0.06373 0.0
C30 C 0.34686 0.59859 0.00752 0.0
C31 C 0.27512 0.71243 0.99279 0.0
O32 O 0.42378 0.59095 0.91683 0.0
O33 O 0.4517 0.75407 0.97478 0.0
O34 O 0.35118 0.73968 0.88123 0.0
O35 O 0.47989 0.6816 0.02321 0.0
O36 O 0.33119 0.60598 0.96366 0.0
O37 O 0.3093 0.71739 0.02377 0.0
O38 O 0.39154 0.60558 0.01853 0.0
O39 O 0.41724 0.69173 0.06678 0.0
O40 O 0.28218 0.70063 0.94974 0.0
O41 O 0.47838 0.69309 0.92677 0.0
O42 O 0.39623 0.64107 0.86523 0.0
O43 O 0.35641 0.78396 0.94928 0.0
Sc44 Sc 0.91908 0.40943 0.33642 0.0
Sc45 Sc 0.98651 0.36672 0.24432 0.0
Sc46 Sc 0.89042 0.30629 0.27902 0.0
O47 O 0.93408 0.36101 0.28872 0.0
C48 C 0.85704 0.32533 0.37522 0.0
C49 C 0.03037 0.3972 0.34668 0.0
C50 C 0.98775 0.27234 0.31003 0.0
C51 C 0.96242 0.475 0.25733 0.0
C52 C 0.8486 0.40323 0.24259 0.0
C53 C 0.93077 0.28786 0.18642 0.0
O54 O 0.89107 0.35388 0.38488 0.0
O55 O 0.03396 0.39376 0.30084 0.0
O56 O 0.94313 0.27173 0.32337 0.0
O57 O 0.95061 0.46794 0.30037 0.0
O58 O 0.85561 0.35856 0.23159 0.0
O59 O 0.94176 0.33287 0.18333 0.0
O60 O 0.85598 0.41891 0.28645 0.0
O61 O 0.96736 0.44082 0.22634 0.0
O62 O 0.93165 0.27023 0.22694 0.0
O63 O 0.98967 0.39894 0.36889 0.0
O64 O 0.84096 0.32633 0.33328 0.0
O65 O 0.00411 0.29848 0.27536 0.0
Sc66 Sc 0.55628 0.8597 0.97112 0.0
Sc67 Sc 0.61671 0.76361 0.0058 0.0
Sc68 Sc 0.65942 0.83103 0.9137 0.0
O69 O 0.611 0.81604 0.9614 0.0
C70 C 0.57531 0.89306 0.8749 0.0
C71 C 0.52233 0.76238 0.94009 0.0
C72 C 0.64717 0.71974 0.90345 0.0
C73 C 0.53785 0.8193 0.06373 0.0
C74 C 0.65323 0.90152 0.00752 0.0
C75 C 0.725 0.78772 0.99279 0.0
O76 O 0.5763 0.90915 0.91684 0.0
O77 O 0.54846 0.74602 0.97478 0.0
O78 O 0.64892 0.76043 0.88123 0.0
O79 O 0.52022 0.81847 0.02321 0.0
O80 O 0.6689 0.89414 0.96366 0.0
O81 O 0.69082 0.78276 0.02377 0.0
O82 O 0.60856 0.89452 0.01854 0.0
O83 O 0.58288 0.80838 0.06678 0.0
O84 O 0.71793 0.7995 0.94973 0.0
O85 O 0.52172 0.807 0.92678 0.0
O86 O 0.60387 0.85904 0.86524 0.0
O87 O 0.64374 0.71615 0.94929 0.0
Sc88 Sc 0.10971 0.80632 0.2211 0.0
Sc89 Sc 0.0136 0.86671 0.25579 0.0
Sc90 Sc 0.08104 0.90945 0.1637 0.0
O91 O 0.06604 0.86102 0.2114 0.0
C92 C 0.15153 0.90326 0.25752 0.0
C93 C 0.06935 0.78786 0.3137 0.0
C94 C 0.03765 0.975 0.24278 0.0
C95 C 0.0124 0.77224 0.19014 0.0
C96 C 0.14307 0.82535 0.1249 0.0
C97 C 0.96975 0.8972 0.15343 0.0
O98 O 0.14452 0.85859 0.26853 0.0
O99 O 0.05835 0.83287 0.31679 0.0
O100 O 0.0495 0.96795 0.19974 0.0
O101 O 0.05701 0.77176 0.17676 0.0
O102 O 0.10905 0.8539 0.11523 0.0
O103 O 0.96616 0.89373 0.19927 0.0
O104 O 0.15916 0.82636 0.16683 0.0
O105 O 0.99603 0.79844 0.22476 0.0
O106 O 0.01045 0.89896 0.13122 0.0
O107 O 0.0685 0.77023 0.27318 0.0
O108 O 0.14415 0.91893 0.21366 0.0
O109 O 0.03272 0.94082 0.27377 0.0
Sc110 Sc 0.05631 0.6404 0.02901 0.0
Sc111 Sc 0.1167 0.73651 0.99433 0.0
Sc112 Sc 0.15943 0.66909 0.08643 0.0
O113 O 0.11101 0.68408 0.03873 0.0
C114 C 0.07533 0.60705 0.12523 0.0
C115 C 0.02223 0.73771 0.05999 0.0
C116 C 0.14718 0.78038 0.09668 0.0
C117 C 0.03785 0.68083 0.9364 0.0
C118 C 0.15326 0.59859 0.99261 0.0
C119 C 0.225 0.71245 0.00735 0.0
O120 O 0.07633 0.59096 0.08329 0.0
O121 O 0.04842 0.75408 0.02535 0.0
O122 O 0.14893 0.73969 0.1189 0.0
O123 O 0.02022 0.68162 0.97692 0.0
O124 O 0.16893 0.60598 0.03647 0.0
O125 O 0.19082 0.71739 0.97636 0.0
O126 O 0.10859 0.60559 0.98159 0.0
O127 O 0.08287 0.69175 0.93335 0.0
O128 O 0.21794 0.70063 0.05039 0.0
O129 O 0.02174 0.6931 0.07335 0.0
O130 O 0.10388 0.64108 0.13489 0.0
O131 O 0.14371 0.78397 0.05085 0.0
Sc132 Sc 0.91908 0.5907 0.16369 0.0
Sc133 Sc 0.98652 0.63339 0.25579 0.0
Sc134 Sc 0.89043 0.69383 0.22111 0.0
O135 O 0.93409 0.63911 0.2114 0.0
C136 C 0.85705 0.67481 0.12491 0.0
C137 C 0.03037 0.6029 0.15344 0.0
C138 C 0.98776 0.72778 0.19009 0.0
C139 C 0.96243 0.52512 0.24277 0.0
C140 C 0.84859 0.59689 0.25752 0.0
C141 C 0.93079 0.71226 0.3137 0.0
O142 O 0.89107 0.64626 0.11523 0.0
O143 O 0.03396 0.60635 0.19928 0.0
O144 O 0.94314 0.72839 0.17676 0.0
O145 O 0.95061 0.53218 0.19973 0.0
O146 O 0.85561 0.64156 0.26854 0.0
O147 O 0.94178 0.66725 0.31679 0.0
O148 O 0.85597 0.58122 0.21366 0.0
O149 O 0.96736 0.55929 0.27377 0.0
O150 O 0.93167 0.72989 0.27319 0.0
O151 O 0.98968 0.60118 0.13122 0.0
O152 O 0.84097 0.67381 0.16684 0.0
O153 O 0.00413 0.70164 0.22476 0.0
Sc154 Sc 0.84069 0.83105 0.08643 0.0
Sc155 Sc 0.8834 0.76362 0.99433 0.0
Sc156 Sc 0.94384 0.85971 0.029 0.0
O157 O 0.88911 0.81605 0.03873 0.0
C158 C 0.84688 0.90154 0.9926 0.0
C159 C 0.77512 0.78771 0.00735 0.0
C160 C 0.96227 0.81929 0.93639 0.0
C161 C 0.85292 0.71976 0.09668 0.0
C162 C 0.9248 0.89307 0.12521 0.0
C163 C 0.97779 0.76239 0.06004 0.0
O164 O 0.83121 0.89416 0.03646 0.0
O165 O 0.80929 0.78277 0.97636 0.0
O166 O 0.97989 0.81846 0.97692 0.0
O167 O 0.85118 0.76046 0.1189 0.0
O168 O 0.92384 0.90918 0.08328 0.0
O169 O 0.95166 0.74603 0.02536 0.0
O170 O 0.89624 0.85906 0.13489 0.0
O171 O 0.85637 0.71618 0.05085 0.0
O172 O 0.97841 0.80702 0.07335 0.0
O173 O 0.78218 0.79952 0.05039 0.0
O174 O 0.89155 0.89453 0.98158 0.0
O175 O 0.91724 0.80838 0.93335 0.0
Sc176 Sc 0.27905 0.1097 0.19381 0.0
Sc177 Sc 0.24434 0.01359 0.13343 0.0
Sc178 Sc 0.33643 0.08102 0.09068 0.0
O179 O 0.28874 0.06603 0.13911 0.0
C180 C 0.2426 0.15151 0.09688 0.0
C181 C 0.18646 0.06937 0.21226 0.0
C182 C 0.25734 0.03767 0.02513 0.0
C183 C 0.31001 0.01239 0.22789 0.0
C184 C 0.37524 0.14306 0.17477 0.0
C185 C 0.34669 0.96973 0.10293 0.0
O186 O 0.23161 0.14451 0.14155 0.0
O187 O 0.18335 0.05833 0.16727 0.0
O188 O 0.30038 0.04948 0.03218 0.0
O189 O 0.3234 0.05699 0.22836 0.0
O190 O 0.38491 0.10903 0.14622 0.0
O191 O 0.30086 0.96614 0.10639 0.0
O192 O 0.33331 0.15915 0.17375 0.0
O193 O 0.27538 0.99602 0.20169 0.0
O194 O 0.36891 0.01043 0.10117 0.0
O195 O 0.22697 0.0685 0.2299 0.0
O196 O 0.28646 0.14412 0.0812 0.0
O197 O 0.22636 0.03271 0.05931 0.0
Sc198 Sc 0.35972 0.47108 0.05632 0.0
Sc199 Sc 0.26359 0.50578 0.1167 0.0
Sc200 Sc 0.33101 0.41369 0.15945 0.0
O201 O 0.31603 0.46138 0.11102 0.0
C202 C 0.39306 0.37487 0.07536 0.0
C203 C 0.26241 0.4401 0.02223 0.0
C204 C 0.21972 0.40343 0.14718 0.0
C205 C 0.31932 0.56368 0.03786 0.0
C206 C 0.40151 0.50751 0.15327 0.0
C207 C 0.28767 0.49278 0.225 0.0
O208 O 0.40916 0.4168 0.07637 0.0
O209 O 0.24604 0.47474 0.04842 0.0
O210 O 0.26041 0.38122 0.14894 0.0
O211 O 0.3185 0.52316 0.02023 0.0
O212 O 0.39412 0.46365 0.16894 0.0
O213 O 0.28271 0.52376 0.19082 0.0
O214 O 0.39452 0.51851 0.10859 0.0
O215 O 0.30835 0.56676 0.08287 0.0
O216 O 0.29947 0.44973 0.21794 0.0
O217 O 0.30702 0.42674 0.02176 0.0
O218 O 0.35903 0.36521 0.1039 0.0
O219 O 0.21613 0.44927 0.14372 0.0
Sc220 Sc 0.66369 0.41908 0.09067 0.0
Sc221 Sc 0.75578 0.48652 0.13341 0.0
Sc222 Sc 0.72107 0.3904 0.19381 0.0
O223 O 0.71138 0.43408 0.1391 0.0
C224 C 0.62488 0.35705 0.17477 0.0
C225 C 0.65342 0.53037 0.10293 0.0
C226 C 0.69012 0.48772 0.22789 0.0
C227 C 0.74278 0.46244 0.02512 0.0
C228 C 0.75752 0.3486 0.09687 0.0
C229 C 0.81366 0.43072 0.21224 0.0
O230 O 0.61521 0.39108 0.14622 0.0
O231 O 0.69926 0.53396 0.10639 0.0
O232 O 0.67673 0.44312 0.22836 0.0
O233 O 0.69974 0.45062 0.03218 0.0
O234 O 0.76851 0.3556 0.14154 0.0
O235 O 0.81677 0.44177 0.16725 0.0
O236 O 0.71366 0.35598 0.08119 0.0
O237 O 0.77376 0.4674 0.0593 0.0
O238 O 0.77315 0.43161 0.22988 0.0
O239 O 0.63121 0.48968 0.10117 0.0
O240 O 0.66681 0.34096 0.17376 0.0
O241 O 0.72474 0.50409 0.20168 0.0
Sc242 Sc 0.6404 0.02903 0.05632 0.0
Sc243 Sc 0.73652 0.99433 0.11669 0.0
Sc244 Sc 0.66911 0.08642 0.15945 0.0
O245 O 0.68409 0.03873 0.11102 0.0
C246 C 0.60706 0.12524 0.07536 0.0
C247 C 0.73771 0.06001 0.02223 0.0
C248 C 0.78039 0.09668 0.14717 0.0
C249 C 0.68078 0.93643 0.03786 0.0
C250 C 0.59861 0.9926 0.15327 0.0
C251 C 0.71245 0.00733 0.225 0.0
O252 O 0.59096 0.08331 0.07637 0.0
O253 O 0.75408 0.02536 0.04842 0.0
O254 O 0.7397 0.11889 0.14894 0.0
O255 O 0.68161 0.97695 0.02022 0.0
O256 O 0.606 0.03646 0.16894 0.0
O257 O 0.71741 0.97636 0.19082 0.0
O258 O 0.6056 0.9816 0.10859 0.0
O259 O 0.69175 0.93335 0.08287 0.0
O260 O 0.70065 0.05038 0.21794 0.0
O261 O 0.6931 0.07338 0.02176 0.0
O262 O 0.64109 0.1349 0.10391 0.0
O263 O 0.78398 0.05084 0.1437 0.0
Sc264 Sc 0.27904 0.89043 0.3063 0.0
Sc265 Sc 0.24433 0.98654 0.36673 0.0
Sc266 Sc 0.33642 0.9191 0.40945 0.0
O267 O 0.28873 0.9341 0.36103 0.0
C268 C 0.2426 0.84861 0.40324 0.0
C269 C 0.18646 0.93076 0.28788 0.0
C270 C 0.25733 0.96245 0.47501 0.0
C271 C 0.31006 0.98776 0.27235 0.0
C272 C 0.37523 0.85706 0.32535 0.0
C273 C 0.34668 0.03039 0.39721 0.0
O274 O 0.2316 0.85562 0.35856 0.0
O275 O 0.18334 0.94179 0.33287 0.0
O276 O 0.30038 0.95064 0.46795 0.0
O277 O 0.32339 0.94314 0.27175 0.0
O278 O 0.3849 0.89109 0.3539 0.0
O279 O 0.30084 0.03398 0.39377 0.0
O280 O 0.3333 0.84098 0.32636 0.0
O281 O 0.27538 0.00413 0.29848 0.0
O282 O 0.3689 0.9897 0.39895 0.0
O283 O 0.22697 0.93167 0.27024 0.0
O284 O 0.28645 0.856 0.41893 0.0
O285 O 0.22635 0.96739 0.44083 0.0
Sc286 Sc 0.16911 0.4137 0.84069 0.0
Sc287 Sc 0.23654 0.50579 0.88341 0.0
Sc288 Sc 0.14043 0.47109 0.94383 0.0
O289 O 0.1841 0.46139 0.88911 0.0
C290 C 0.09862 0.50752 0.84689 0.0
C291 C 0.21245 0.49278 0.77512 0.0
C292 C 0.18082 0.56369 0.96227 0.0
C293 C 0.2804 0.40344 0.85295 0.0
C294 C 0.10707 0.37489 0.92479 0.0
C295 C 0.23775 0.44005 0.97779 0.0
O296 O 0.10601 0.46366 0.83121 0.0
O297 O 0.2174 0.52376 0.8093 0.0
O298 O 0.18167 0.52317 0.9799 0.0
O299 O 0.23971 0.38122 0.85119 0.0
O300 O 0.09098 0.41683 0.92379 0.0
O301 O 0.25411 0.47474 0.95167 0.0
O302 O 0.14109 0.36523 0.89623 0.0
O303 O 0.28399 0.44927 0.85638 0.0
O304 O 0.19312 0.42674 0.97839 0.0
O305 O 0.20065 0.44973 0.78218 0.0
O306 O 0.10562 0.51853 0.89156 0.0
O307 O 0.19178 0.56677 0.91725 0.0
Sc308 Sc 0.72107 0.60968 0.3063 0.0
Sc309 Sc 0.75579 0.51359 0.36672 0.0
Sc310 Sc 0.66369 0.58102 0.40944 0.0
O311 O 0.71139 0.56602 0.36102 0.0
C312 C 0.75752 0.6515 0.40323 0.0
C313 C 0.81366 0.56938 0.28788 0.0
C314 C 0.74278 0.53767 0.47501 0.0
C315 C 0.69007 0.51235 0.27234 0.0
C316 C 0.62488 0.64305 0.32535 0.0
C317 C 0.65344 0.46973 0.39721 0.0
O318 O 0.76851 0.6445 0.35856 0.0
O319 O 0.81678 0.55834 0.33287 0.0
O320 O 0.69973 0.54948 0.46795 0.0
O321 O 0.67673 0.55697 0.27174 0.0
O322 O 0.61522 0.60903 0.35389 0.0
O323 O 0.69927 0.46614 0.39376 0.0
O324 O 0.66681 0.65914 0.32635 0.0
O325 O 0.72475 0.49599 0.29848 0.0
O326 O 0.63122 0.51042 0.39895 0.0
O327 O 0.77316 0.56846 0.27023 0.0
O328 O 0.71366 0.64412 0.41892 0.0
O329 O 0.77376 0.53273 0.44083 0.0
Sc330 Sc 0.83102 0.08642 0.84069 0.0
Sc331 Sc 0.7636 0.99433 0.88341 0.0
Sc332 Sc 0.8597 0.02903 0.94382 0.0
O333 O 0.81603 0.03873 0.88911 0.0
C334 C 0.90151 0.9926 0.84688 0.0
C335 C 0.78768 0.00734 0.77512 0.0
C336 C 0.81932 0.93643 0.96226 0.0
C337 C 0.71972 0.09668 0.85294 0.0
C338 C 0.89306 0.12523 0.92478 0.0
C339 C 0.76237 0.06006 0.97779 0.0
O340 O 0.89412 0.03646 0.8312 0.0
O341 O 0.78273 0.97636 0.8093 0.0
O342 O 0.81846 0.97695 0.97989 0.0
O343 O 0.76042 0.11889 0.85119 0.0
O344 O 0.90915 0.08329 0.92378 0.0
O345 O 0.74601 0.02537 0.95167 0.0
O346 O 0.85903 0.13489 0.89623 0.0
O347 O 0.71614 0.05084 0.85638 0.0
O348 O 0.807 0.07338 0.97839 0.0
O349 O 0.79947 0.05039 0.78218 0.0
O350 O 0.89451 0.9816 0.89155 0.0
O351 O 0.80836 0.93335 0.91724 0.0
Sc352 Sc 0.09067 0.33643 0.08103 0.0
Sc353 Sc 0.13342 0.24433 0.0136 0.0
Sc354 Sc 0.19381 0.27903 0.10972 0.0
O355 O 0.1391 0.28873 0.06604 0.0
C356 C 0.17476 0.37522 0.14307 0.0
C357 C 0.10292 0.34668 0.96974 0.0
C358 C 0.22789 0.30998 0.0124 0.0
C359 C 0.02513 0.25733 0.03768 0.0
C360 C 0.09686 0.2426 0.15149 0.0
C361 C 0.21225 0.18644 0.06939 0.0
O362 O 0.14621 0.3849 0.10904 0.0
O363 O 0.10639 0.30085 0.96616 0.0
O364 O 0.22837 0.32337 0.057 0.0
O365 O 0.03218 0.30038 0.04948 0.0
O366 O 0.14154 0.23159 0.14453 0.0
O367 O 0.16726 0.18333 0.05835 0.0
O368 O 0.08118 0.28646 0.14413 0.0
O369 O 0.05931 0.22635 0.03273 0.0
O370 O 0.22989 0.22695 0.0685 0.0
O371 O 0.10117 0.3689 0.01043 0.0
O372 O 0.17377 0.33329 0.15917 0.0
O373 O 0.20168 0.27536 0.99602 0.0
Sc374 Sc 0.19379 0.72107 0.39041 0.0
Sc375 Sc 0.13341 0.75579 0.48653 0.0
Sc376 Sc 0.09066 0.66369 0.41912 0.0
O377 O 0.13909 0.71139 0.4341 0.0
C378 C 0.09685 0.75751 0.34864 0.0
C379 C 0.21224 0.81367 0.43072 0.0
C380 C 0.02511 0.74278 0.46248 0.0
C381 C 0.22788 0.69013 0.48772 0.0
C382 C 0.17475 0.62487 0.35706 0.0
C383 C 0.10292 0.65344 0.53041 0.0
O384 O 0.14153 0.76851 0.3556 0.0
O385 O 0.16725 0.81678 0.44178 0.0
O386 O 0.03217 0.69973 0.45067 0.0
O387 O 0.22835 0.67674 0.44312 0.0
O388 O 0.14621 0.61521 0.3911 0.0
O389 O 0.10639 0.69927 0.53399 0.0
O390 O 0.17373 0.6668 0.34097 0.0
O391 O 0.20168 0.72476 0.5041 0.0
O392 O 0.10117 0.63122 0.48972 0.0
O393 O 0.22988 0.77316 0.4316 0.0
O394 O 0.08116 0.71366 0.35601 0.0
O395 O 0.0593 0.77376 0.46741 0.0
Sc396 Sc 0.91369 0.65944 0.83101 0.0
Sc397 Sc 0.0058 0.61669 0.76361 0.0
Sc398 Sc 0.9711 0.55632 0.85973 0.0
O399 O 0.96139 0.61101 0.81604 0.0
C400 C 0.00751 0.65327 0.90149 0.0
C401 C 0.99279 0.72499 0.78768 0.0
C402 C 0.0637 0.53786 0.81935 0.0
C403 C 0.90345 0.64716 0.71972 0.0
C404 C 0.87489 0.57536 0.89307 0.0
C405 C 0.94013 0.52223 0.76242 0.0
O406 O 0.96366 0.66895 0.89412 0.0
O407 O 0.02377 0.69081 0.78272 0.0
O408 O 0.02319 0.52022 0.81853 0.0
O409 O 0.88123 0.64893 0.76041 0.0
O410 O 0.91682 0.57636 0.90917 0.0
O411 O 0.97477 0.54841 0.74605 0.0
O412 O 0.86523 0.6039 0.85904 0.0
O413 O 0.94929 0.6437 0.71614 0.0
O414 O 0.92676 0.52175 0.80703 0.0
O415 O 0.94973 0.71793 0.79946 0.0
O416 O 0.01853 0.60859 0.89454 0.0
O417 O 0.06678 0.58287 0.80837 0.0
Sc418 Sc 0.80633 0.77904 0.3904 0.0
Sc419 Sc 0.8667 0.74432 0.48652 0.0
Sc420 Sc 0.90945 0.83643 0.41911 0.0
O421 O 0.86103 0.78873 0.43409 0.0
C422 C 0.90328 0.74261 0.34863 0.0
C423 C 0.78787 0.68645 0.43072 0.0
C424 C 0.975 0.75734 0.46249 0.0
C425 C 0.77223 0.80998 0.48771 0.0
C426 C 0.82537 0.87524 0.35706 0.0
C427 C 0.89719 0.84667 0.5304 0.0
O428 O 0.8586 0.7316 0.35559 0.0
O429 O 0.83286 0.68333 0.44177 0.0
O430 O 0.96795 0.80038 0.45066 0.0
O431 O 0.77176 0.82337 0.44311 0.0
O432 O 0.85391 0.8849 0.39109 0.0
O433 O 0.89372 0.80084 0.53398 0.0
O434 O 0.82639 0.83331 0.34096 0.0
O435 O 0.79843 0.77536 0.50409 0.0
O436 O 0.89895 0.86889 0.48971 0.0
O437 O 0.77023 0.72696 0.43159 0.0
O438 O 0.91896 0.78646 0.356 0.0
O439 O 0.94082 0.72635 0.46741 0.0
Sc440 Sc 0.52901 0.44381 0.35973 0.0
Sc441 Sc 0.49432 0.38343 0.26362 0.0
Sc442 Sc 0.58642 0.34068 0.33102 0.0
O443 O 0.53873 0.38911 0.31605 0.0
C444 C 0.62522 0.42477 0.39306 0.0
C445 C 0.55998 0.47789 0.26243 0.0
C446 C 0.59667 0.35294 0.21973 0.0
C447 C 0.43639 0.46227 0.31932 0.0
C448 C 0.4926 0.34685 0.40153 0.0
C449 C 0.50733 0.27512 0.28768 0.0
O450 O 0.58329 0.42379 0.40918 0.0
O451 O 0.52535 0.4517 0.24606 0.0
O452 O 0.61889 0.35118 0.26042 0.0
O453 O 0.47691 0.4799 0.31852 0.0
O454 O 0.53646 0.33118 0.39414 0.0
O455 O 0.47635 0.3093 0.28273 0.0
O456 O 0.48159 0.39153 0.39454 0.0
O457 O 0.43334 0.41725 0.3084 0.0
O458 O 0.55038 0.28218 0.29948 0.0
O459 O 0.57335 0.47838 0.30704 0.0
O460 O 0.63489 0.39622 0.35904 0.0
O461 O 0.55083 0.35642 0.21615 0.0
Sc462 Sc 0.30629 0.72109 0.60969 0.0
Sc463 Sc 0.36672 0.75579 0.51359 0.0
Sc464 Sc 0.40943 0.6637 0.58103 0.0
O465 O 0.36101 0.7114 0.56603 0.0
C466 C 0.40323 0.75752 0.65152 0.0
C467 C 0.28785 0.81369 0.56933 0.0
C468 C 0.475 0.74279 0.53769 0.0
C469 C 0.27234 0.69008 0.51236 0.0
C470 C 0.32533 0.6249 0.64306 0.0
C471 C 0.39719 0.65344 0.46974 0.0
O472 O 0.35856 0.76853 0.64451 0.0
O473 O 0.33286 0.81678 0.55834 0.0
O474 O 0.46793 0.69974 0.54949 0.0
O475 O 0.27173 0.67675 0.55698 0.0
O476 O 0.35388 0.61523 0.60904 0.0
O477 O 0.39376 0.69928 0.46615 0.0
O478 O 0.32633 0.66683 0.65915 0.0
O479 O 0.29847 0.72475 0.49599 0.0
O480 O 0.39893 0.63123 0.51043 0.0
O481 O 0.27022 0.77317 0.56846 0.0
O482 O 0.41891 0.71366 0.64414 0.0
O483 O 0.44082 0.77377 0.53275 0.0
Sc484 Sc 0.97112 0.44382 0.64043 0.0
Sc485 Sc 0.00579 0.3834 0.73653 0.0
Sc486 Sc 0.9137 0.34069 0.6691 0.0
O487 O 0.9614 0.38911 0.6841 0.0
C488 C 0.87491 0.42479 0.60706 0.0
C489 C 0.94008 0.47779 0.73775 0.0
C490 C 0.90344 0.35295 0.78039 0.0
C491 C 0.06372 0.46227 0.68086 0.0
C492 C 0.00752 0.34687 0.59861 0.0
C493 C 0.99278 0.27511 0.71244 0.0
O494 O 0.91685 0.4238 0.59097 0.0
O495 O 0.97476 0.45166 0.75412 0.0
O496 O 0.88123 0.35119 0.7397 0.0
O497 O 0.0232 0.47989 0.68168 0.0
O498 O 0.96367 0.3312 0.606 0.0
O499 O 0.02376 0.30929 0.71739 0.0
O500 O 0.01854 0.39154 0.60562 0.0
O501 O 0.06677 0.41724 0.69177 0.0
O502 O 0.94973 0.28218 0.70064 0.0
O503 O 0.92677 0.47839 0.69313 0.0
O504 O 0.86525 0.39624 0.64108 0.0
O505 O 0.94928 0.35638 0.78398 0.0
Sc506 Sc 0.08642 0.15943 0.6691 0.0
Sc507 Sc 0.99433 0.11669 0.73653 0.0
Sc508 Sc 0.02901 0.0563 0.64041 0.0
O509 O 0.03872 0.111 0.68409 0.0
C510 C 0.99259 0.15325 0.59861 0.0
C511 C 0.00734 0.22499 0.71246 0.0
C512 C 0.9364 0.03784 0.68084 0.0
C513 C 0.09668 0.14716 0.78039 0.0
C514 C 0.12522 0.07533 0.60706 0.0
C515 C 0.05999 0.02222 0.73772 0.0
O516 O 0.03645 0.16892 0.606 0.0
O517 O 0.97635 0.19081 0.71741 0.0
O518 O 0.97692 0.02021 0.68163 0.0
O519 O 0.11889 0.14892 0.7397 0.0
O520 O 0.08329 0.07633 0.59097 0.0
O521 O 0.02535 0.04841 0.75409 0.0
O522 O 0.13488 0.10389 0.64108 0.0
O523 O 0.05084 0.1437 0.78398 0.0
O524 O 0.07335 0.02174 0.69311 0.0
O525 O 0.05038 0.21793 0.70065 0.0
O526 O 0.98158 0.10858 0.60561 0.0
O527 O 0.93335 0.08286 0.69176 0.0
Sc528 Sc 0.60972 0.69381 0.77904 0.0
Sc529 Sc 0.51362 0.63342 0.74434 0.0
Sc530 Sc 0.58104 0.59068 0.83644 0.0
O531 O 0.56605 0.63911 0.78875 0.0
C532 C 0.65153 0.59687 0.74261 0.0
C533 C 0.56938 0.71225 0.68643 0.0
C534 C 0.53768 0.52512 0.75735 0.0
C535 C 0.51241 0.72789 0.80999 0.0
C536 C 0.64306 0.67477 0.87524 0.0
C537 C 0.46975 0.60291 0.84669 0.0
O538 O 0.64453 0.64155 0.73161 0.0
O539 O 0.55838 0.66725 0.68335 0.0
O540 O 0.5495 0.53218 0.80039 0.0
O541 O 0.55701 0.72837 0.82338 0.0
O542 O 0.60904 0.64623 0.88492 0.0
O543 O 0.46616 0.6064 0.80085 0.0
O544 O 0.65917 0.67379 0.83331 0.0
O545 O 0.49604 0.70168 0.77536 0.0
O546 O 0.51043 0.60117 0.86891 0.0
O547 O 0.56851 0.72989 0.72695 0.0
O548 O 0.64414 0.5812 0.78647 0.0
O549 O 0.53274 0.5593 0.72637 0.0
Sc550 Sc 0.94381 0.1404 0.4711 0.0
Sc551 Sc 0.88342 0.23652 0.50579 0.0
Sc552 Sc 0.84067 0.16909 0.4137 0.0
O553 O 0.8891 0.18408 0.46139 0.0
C554 C 0.92477 0.10706 0.3749 0.0
C555 C 0.97789 0.23771 0.44012 0.0
C556 C 0.85292 0.28038 0.40344 0.0
C557 C 0.96225 0.1808 0.5637 0.0
C558 C 0.84687 0.0986 0.50752 0.0
C559 C 0.77511 0.21244 0.49279 0.0
O560 O 0.92379 0.09095 0.41683 0.0
O561 O 0.95169 0.25408 0.47476 0.0
O562 O 0.85117 0.23969 0.38122 0.0
O563 O 0.97989 0.18163 0.52319 0.0
O564 O 0.83119 0.10599 0.46367 0.0
O565 O 0.80929 0.21741 0.52376 0.0
O566 O 0.89154 0.1056 0.51853 0.0
O567 O 0.91724 0.19176 0.56678 0.0
O568 O 0.78217 0.20063 0.44974 0.0
O569 O 0.97837 0.1931 0.42675 0.0
O570 O 0.89621 0.14108 0.36522 0.0
O571 O 0.8564 0.28397 0.44927 0.0
Sc572 Sc 0.41907 0.90943 0.83643 0.0
Sc573 Sc 0.48651 0.86673 0.74433 0.0
Sc574 Sc 0.39043 0.80627 0.77904 0.0
O575 O 0.43408 0.86101 0.78873 0.0
C576 C 0.35706 0.82533 0.87522 0.0
C577 C 0.53036 0.89722 0.84668 0.0
C578 C 0.48776 0.77234 0.81004 0.0
C579 C 0.46241 0.975 0.75734 0.0
C580 C 0.3486 0.90321 0.7426 0.0
C581 C 0.43074 0.78788 0.68645 0.0
O582 O 0.39107 0.85388 0.8849 0.0
O583 O 0.53395 0.89376 0.80085 0.0
O584 O 0.44314 0.77173 0.82338 0.0
O585 O 0.4506 0.96794 0.80038 0.0
O586 O 0.35561 0.85854 0.7316 0.0
O587 O 0.44176 0.83287 0.68333 0.0
O588 O 0.35597 0.9189 0.78646 0.0
O589 O 0.46736 0.94083 0.72635 0.0
O590 O 0.43167 0.77023 0.72695 0.0
O591 O 0.48967 0.89895 0.8689 0.0
O592 O 0.34096 0.8263 0.83329 0.0
O593 O 0.50412 0.79848 0.77537 0.0
Sc594 Sc 0.05627 0.3597 0.4711 0.0
Sc595 Sc 0.11671 0.26361 0.5058 0.0
Sc596 Sc 0.15942 0.33102 0.41369 0.0
O597 O 0.111 0.31603 0.46139 0.0
C598 C 0.07532 0.39305 0.3749 0.0
C599 C 0.02232 0.26238 0.44007 0.0
C600 C 0.14719 0.21973 0.40345 0.0
C601 C 0.03786 0.31932 0.5637 0.0
C602 C 0.15322 0.40151 0.50752 0.0
C603 C 0.225 0.28771 0.49279 0.0
O604 O 0.07628 0.40916 0.41683 0.0
O605 O 0.04845 0.24602 0.47476 0.0
O606 O 0.14893 0.26042 0.38123 0.0
O607 O 0.02022 0.31846 0.52319 0.0
O608 O 0.1689 0.39413 0.46366 0.0
O609 O 0.19082 0.28275 0.52377 0.0
O610 O 0.10855 0.39452 0.51853 0.0
O611 O 0.08288 0.30837 0.56678 0.0
O612 O 0.21793 0.29949 0.44973 0.0
O613 O 0.02171 0.307 0.42676 0.0
O614 O 0.10387 0.35904 0.36523 0.0
O615 O 0.14374 0.21615 0.44929 0.0
Sc616 Sc 0.60971 0.30632 0.7211 0.0
Sc617 Sc 0.5136 0.36671 0.7558 0.0
Sc618 Sc 0.58103 0.40945 0.6637 0.0
O619 O 0.56604 0.36102 0.7114 0.0
C620 C 0.65152 0.40326 0.75753 0.0
C621 C 0.56935 0.28786 0.81371 0.0
C622 C 0.53766 0.475 0.74279 0.0
C623 C 0.5124 0.27224 0.69015 0.0
C624 C 0.64306 0.32535 0.6249 0.0
C625 C 0.46975 0.3972 0.65344 0.0
O626 O 0.64452 0.35859 0.76853 0.0
O627 O 0.55835 0.33287 0.81679 0.0
O628 O 0.5495 0.46795 0.69975 0.0
O629 O 0.557 0.27176 0.67677 0.0
O630 O 0.60904 0.35389 0.61523 0.0
O631 O 0.46615 0.39373 0.69928 0.0
O632 O 0.65916 0.32636 0.66683 0.0
O633 O 0.49602 0.29844 0.72477 0.0
O634 O 0.51044 0.39895 0.63123 0.0
O635 O 0.5685 0.27023 0.77319 0.0
O636 O 0.64414 0.41893 0.71367 0.0
O637 O 0.53273 0.44083 0.77377 0.0
Sc638 Sc 0.55631 0.14039 0.52902 0.0
Sc639 Sc 0.61669 0.23651 0.49434 0.0
Sc640 Sc 0.65943 0.16909 0.58644 0.0
O641 O 0.61101 0.18408 0.53874 0.0
C642 C 0.57534 0.10705 0.62524 0.0
C643 C 0.52222 0.23769 0.56 0.0
C644 C 0.64718 0.28038 0.59669 0.0
C645 C 0.53784 0.18082 0.43641 0.0
C646 C 0.65327 0.09859 0.49261 0.0
C647 C 0.72499 0.21246 0.50735 0.0
O648 O 0.57634 0.09095 0.58331 0.0
O649 O 0.54841 0.25407 0.52537 0.0
O650 O 0.64893 0.2397 0.61891 0.0
O651 O 0.52022 0.1816 0.47693 0.0
O652 O 0.66893 0.10599 0.53647 0.0
O653 O 0.69081 0.2174 0.47637 0.0
O654 O 0.6086 0.10559 0.4816 0.0
O655 O 0.58287 0.19175 0.43336 0.0
O656 O 0.71794 0.20064 0.5504 0.0
O657 O 0.52174 0.19308 0.57336 0.0
O658 O 0.60389 0.14108 0.6349 0.0
O659 O 0.6437 0.28397 0.55085 0.0
Sc660 Sc 0.41908 0.09069 0.6637 0.0
Sc661 Sc 0.48651 0.13339 0.75581 0.0
Sc662 Sc 0.39042 0.19383 0.72111 0.0
O663 O 0.43408 0.13911 0.7114 0.0
C664 C 0.35704 0.1748 0.62491 0.0
C665 C 0.53037 0.1029 0.65345 0.0
C666 C 0.48775 0.22778 0.6901 0.0
C667 C 0.46243 0.02512 0.74278 0.0
C668 C 0.3486 0.09688 0.75753 0.0
C669 C 0.43078 0.21225 0.81371 0.0
O670 O 0.39107 0.14625 0.61524 0.0
O671 O 0.53396 0.10635 0.69929 0.0
O672 O 0.44313 0.22839 0.67677 0.0
O673 O 0.45062 0.03218 0.69974 0.0
O674 O 0.35561 0.14155 0.76854 0.0
O675 O 0.44176 0.16724 0.81679 0.0
O676 O 0.35598 0.08121 0.71367 0.0
O677 O 0.46736 0.05929 0.77377 0.0
O678 O 0.43166 0.22988 0.7732 0.0
O679 O 0.48968 0.10118 0.63123 0.0
O680 O 0.34096 0.1738 0.66685 0.0
O681 O 0.50412 0.20164 0.72477 0.0
Sc682 Sc 0.34069 0.33104 0.58643 0.0
Sc683 Sc 0.3834 0.2636 0.49434 0.0
Sc684 Sc 0.44383 0.3597 0.52902 0.0
O685 O 0.38911 0.31604 0.53874 0.0
C686 C 0.34689 0.40152 0.4926 0.0
C687 C 0.27511 0.2877 0.50735 0.0
C688 C 0.46226 0.31929 0.43643 0.0
C689 C 0.35291 0.21975 0.59669 0.0
C690 C 0.42479 0.39306 0.62522 0.0
C691 C 0.47778 0.26237 0.56006 0.0
O692 O 0.33121 0.39414 0.53646 0.0
O693 O 0.30929 0.28275 0.47636 0.0
O694 O 0.47989 0.31844 0.47694 0.0
O695 O 0.35117 0.26045 0.61891 0.0
O696 O 0.42383 0.40916 0.58329 0.0
O697 O 0.45165 0.24601 0.52538 0.0
O698 O 0.39623 0.35905 0.6349 0.0
O699 O 0.35636 0.21616 0.55086 0.0
O700 O 0.47839 0.30699 0.57337 0.0
O701 O 0.28217 0.29951 0.55039 0.0
O702 O 0.39156 0.39451 0.48159 0.0
O703 O 0.41724 0.30835 0.43335 0.0
Sc704 Sc 0.77905 0.60972 0.69381 0.0
Sc705 Sc 0.74435 0.5136 0.63342 0.0
Sc706 Sc 0.83644 0.58103 0.59067 0.0
O707 O 0.78874 0.56604 0.6391 0.0
C708 C 0.74261 0.65152 0.59687 0.0
C709 C 0.68646 0.56938 0.71226 0.0
C710 C 0.75734 0.53766 0.52513 0.0
C711 C 0.81 0.51241 0.72789 0.0
C712 C 0.87524 0.64306 0.67476 0.0
C713 C 0.8467 0.46975 0.60291 0.0
O714 O 0.73161 0.64452 0.64154 0.0
O715 O 0.68335 0.55834 0.66726 0.0
O716 O 0.80039 0.5495 0.53218 0.0
O717 O 0.82339 0.55701 0.72836 0.0
O718 O 0.88491 0.60904 0.64621 0.0
O719 O 0.80086 0.46616 0.60639 0.0
O720 O 0.83331 0.65917 0.67377 0.0
O721 O 0.77538 0.49603 0.70168 0.0
O722 O 0.86891 0.51044 0.60116 0.0
O723 O 0.72697 0.5685 0.72989 0.0
O724 O 0.78647 0.64414 0.58119 0.0
O725 O 0.72636 0.53273 0.55931 0.0
Sc726 Sc 0.85974 0.97109 0.55632 0.0
Sc727 Sc 0.76361 0.00578 0.6167 0.0
Sc728 Sc 0.83102 0.91368 0.65945 0.0
O729 O 0.81605 0.96138 0.61102 0.0
C730 C 0.89306 0.87488 0.57536 0.0
C731 C 0.76243 0.94011 0.52223 0.0
C732 C 0.71974 0.90343 0.64717 0.0
C733 C 0.81933 0.06369 0.53786 0.0
C734 C 0.90149 0.0075 0.65328 0.0
C735 C 0.78766 0.99277 0.725 0.0
O736 O 0.90918 0.91681 0.57634 0.0
O737 O 0.74606 0.97475 0.54842 0.0
O738 O 0.76043 0.88121 0.64894 0.0
O739 O 0.81852 0.02317 0.52023 0.0
O740 O 0.89412 0.96364 0.66895 0.0
O741 O 0.78272 0.02375 0.69082 0.0
O742 O 0.89454 0.01852 0.6086 0.0
O743 O 0.80837 0.06677 0.58288 0.0
O744 O 0.79947 0.94973 0.71795 0.0
O745 O 0.80704 0.92675 0.52175 0.0
O746 O 0.85904 0.86521 0.60392 0.0
O747 O 0.71615 0.94927 0.64371 0.0
Sc748 Sc 0.16367 0.91909 0.59067 0.0
Sc749 Sc 0.25578 0.9865 0.63342 0.0
Sc750 Sc 0.22107 0.89038 0.6938 0.0
O751 O 0.21137 0.93407 0.6391 0.0
C752 C 0.12487 0.85704 0.67476 0.0
C753 C 0.15343 0.03037 0.60292 0.0
C754 C 0.19013 0.9877 0.72789 0.0
C755 C 0.24277 0.96246 0.52513 0.0
C756 C 0.2575 0.84861 0.59685 0.0
C757 C 0.31366 0.9307 0.71224 0.0
O758 O 0.1152 0.89107 0.64622 0.0
O759 O 0.19926 0.03395 0.6064 0.0
O760 O 0.17673 0.9431 0.72837 0.0
O761 O 0.19972 0.95063 0.53218 0.0
O762 O 0.2685 0.85557 0.64153 0.0
O763 O 0.31677 0.94175 0.66725 0.0
O764 O 0.21364 0.85598 0.58117 0.0
O765 O 0.27375 0.96738 0.5593 0.0
O766 O 0.27315 0.93158 0.72989 0.0
O767 O 0.13121 0.98968 0.60117 0.0
O768 O 0.1668 0.84095 0.67374 0.0
O769 O 0.22475 0.00407 0.70169 0.0
Sc770 Sc 0.14037 0.52902 0.55632 0.0
Sc771 Sc 0.2365 0.49433 0.6167 0.0
Sc772 Sc 0.16909 0.58643 0.65945 0.0
O773 O 0.18406 0.53873 0.61102 0.0
C774 C 0.10705 0.62523 0.57537 0.0
C775 C 0.23769 0.55999 0.52223 0.0
C776 C 0.28037 0.59668 0.64718 0.0
C777 C 0.18076 0.43642 0.53786 0.0
C778 C 0.09862 0.49261 0.65328 0.0
C779 C 0.21246 0.50734 0.725 0.0
O780 O 0.09093 0.5833 0.57635 0.0
O781 O 0.25406 0.52535 0.54842 0.0
O782 O 0.23968 0.6189 0.64894 0.0
O783 O 0.18159 0.47694 0.52023 0.0
O784 O 0.10599 0.53647 0.66896 0.0
O785 O 0.21739 0.47636 0.69082 0.0
O786 O 0.10557 0.48159 0.6086 0.0
O787 O 0.19173 0.43334 0.58288 0.0
O788 O 0.20064 0.55039 0.71795 0.0
O789 O 0.19308 0.57336 0.52175 0.0
O790 O 0.14107 0.6349 0.60392 0.0
O791 O 0.28396 0.55084 0.6437 0.0
Sc792 Sc 0.77904 0.39044 0.80629 0.0
Sc793 Sc 0.74433 0.48654 0.86673 0.0
Sc794 Sc 0.83643 0.41911 0.90944 0.0
O795 O 0.78873 0.4341 0.86102 0.0
C796 C 0.7426 0.34862 0.90323 0.0
C797 C 0.68645 0.43077 0.78788 0.0
C798 C 0.75734 0.46247 0.975 0.0
C799 C 0.81005 0.48777 0.77234 0.0
C800 C 0.87522 0.35707 0.82535 0.0
C801 C 0.84668 0.5304 0.89722 0.0
O802 O 0.7316 0.35563 0.85856 0.0
O803 O 0.68334 0.44179 0.83288 0.0
O804 O 0.80038 0.45064 0.96795 0.0
O805 O 0.82338 0.44315 0.77174 0.0
O806 O 0.8849 0.39109 0.85389 0.0
O807 O 0.80084 0.53398 0.89377 0.0
O808 O 0.83329 0.34097 0.82632 0.0
O809 O 0.77538 0.50414 0.79848 0.0
O810 O 0.8689 0.48971 0.89895 0.0
O811 O 0.72696 0.43168 0.77024 0.0
O812 O 0.78646 0.356 0.91892 0.0
O813 O 0.72635 0.46739 0.94083 0.0
Sc814 Sc 0.66912 0.9137 0.3407 0.0
Sc815 Sc 0.73654 0.0058 0.38341 0.0
Sc816 Sc 0.64044 0.9711 0.44383 0.0
O817 O 0.68411 0.9614 0.38911 0.0
C818 C 0.59862 0.00752 0.34689 0.0
C819 C 0.71247 0.99277 0.27512 0.0
C820 C 0.68083 0.0637 0.46227 0.0
C821 C 0.78041 0.90345 0.35293 0.0
C822 C 0.60707 0.8749 0.42479 0.0
C823 C 0.73776 0.94006 0.47779 0.0
O824 O 0.60602 0.96367 0.33121 0.0
O825 O 0.7174 0.02376 0.30929 0.0
O826 O 0.68168 0.02318 0.4799 0.0
O827 O 0.73972 0.88123 0.35119 0.0
O828 O 0.59099 0.91684 0.4238 0.0
O829 O 0.75413 0.97475 0.45166 0.0
O830 O 0.6411 0.86524 0.39625 0.0
O831 O 0.784 0.94929 0.35638 0.0
O832 O 0.69314 0.92675 0.47839 0.0
O833 O 0.70066 0.94973 0.28218 0.0
O834 O 0.60563 0.01853 0.39157 0.0
O835 O 0.69178 0.06678 0.41725 0.0
Sc836 Sc 0.22109 0.10968 0.80629 0.0
Sc837 Sc 0.25579 0.01358 0.86673 0.0
Sc838 Sc 0.1637 0.08102 0.90945 0.0
O839 O 0.21139 0.06602 0.86102 0.0
C840 C 0.25753 0.15151 0.90324 0.0
C841 C 0.31368 0.06936 0.78789 0.0
C842 C 0.24278 0.03765 0.97501 0.0
C843 C 0.19008 0.01234 0.77235 0.0
C844 C 0.1249 0.14304 0.82534 0.0
C845 C 0.15344 0.96973 0.89721 0.0
O846 O 0.26852 0.1445 0.85856 0.0
O847 O 0.31679 0.05833 0.83289 0.0
O848 O 0.19974 0.04948 0.96796 0.0
O849 O 0.17675 0.05696 0.77174 0.0
O850 O 0.11523 0.10903 0.8539 0.0
O851 O 0.19927 0.96614 0.89377 0.0
O852 O 0.16683 0.15914 0.82631 0.0
O853 O 0.22476 0.99598 0.79849 0.0
O854 O 0.13122 0.01042 0.89895 0.0
O855 O 0.27317 0.06843 0.77024 0.0
O856 O 0.21367 0.14412 0.91892 0.0
O857 O 0.27377 0.03273 0.94084 0.0
Sc858 Sc 0.33101 0.58643 0.34069 0.0
Sc859 Sc 0.2636 0.49432 0.38341 0.0
Sc860 Sc 0.3597 0.52902 0.44383 0.0
O861 O 0.31603 0.53873 0.38911 0.0
C862 C 0.40148 0.49261 0.34688 0.0
C863 C 0.28766 0.50735 0.27512 0.0
C864 C 0.31933 0.43642 0.46226 0.0
C865 C 0.21971 0.59667 0.35294 0.0
C866 C 0.39304 0.62522 0.42478 0.0
C867 C 0.26236 0.56004 0.47779 0.0
O868 O 0.39411 0.53647 0.3312 0.0
O869 O 0.28274 0.47636 0.30929 0.0
O870 O 0.31846 0.47693 0.47989 0.0
O871 O 0.2604 0.61889 0.3512 0.0
O872 O 0.40915 0.58329 0.42382 0.0
O873 O 0.24601 0.52535 0.45167 0.0
O874 O 0.35902 0.6349 0.39623 0.0
O875 O 0.21614 0.55083 0.35639 0.0
O876 O 0.30699 0.57336 0.4784 0.0
O877 O 0.29946 0.55039 0.28218 0.0
O878 O 0.39452 0.4816 0.39156 0.0
O879 O 0.30837 0.43334 0.41724 0.0
Sc880 Sc 0.59068 0.83643 0.58103 0.0
Sc881 Sc 0.63339 0.74433 0.5136 0.0
Sc882 Sc 0.69383 0.77903 0.60969 0.0
O883 O 0.6391 0.78873 0.56604 0.0
C884 C 0.67478 0.87521 0.64306 0.0
C885 C 0.60291 0.84668 0.46975 0.0
C886 C 0.72778 0.81004 0.51235 0.0
C887 C 0.52511 0.75735 0.53768 0.0
C888 C 0.59689 0.7426 0.65149 0.0
C889 C 0.71225 0.68645 0.56936 0.0
O890 O 0.64623 0.8849 0.60905 0.0
O891 O 0.60635 0.80085 0.46616 0.0
O892 O 0.72838 0.82337 0.55697 0.0
O893 O 0.53218 0.80039 0.5495 0.0
O894 O 0.64156 0.73159 0.64452 0.0
O895 O 0.66725 0.68333 0.55834 0.0
O896 O 0.5812 0.78646 0.64414 0.0
O897 O 0.55929 0.72635 0.53275 0.0
O898 O 0.72989 0.72695 0.56845 0.0
O899 O 0.60118 0.8689 0.51044 0.0
O900 O 0.6738 0.83328 0.65916 0.0
O901 O 0.70164 0.77537 0.49599 0.0
Sc902 Sc 0.69381 0.22109 0.89041 0.0
Sc903 Sc 0.63342 0.2558 0.98652 0.0
Sc904 Sc 0.59068 0.16369 0.91911 0.0
O905 O 0.63911 0.21139 0.93409 0.0
C906 C 0.59686 0.25752 0.84864 0.0
C907 C 0.71225 0.31368 0.93072 0.0
C908 C 0.52513 0.24279 0.96246 0.0
C909 C 0.72789 0.19014 0.98772 0.0
C910 C 0.67476 0.12489 0.85706 0.0
C911 C 0.60292 0.15345 0.0304 0.0
O912 O 0.64154 0.26852 0.8556 0.0
O913 O 0.66725 0.31679 0.94177 0.0
O914 O 0.53219 0.19974 0.95066 0.0
O915 O 0.72837 0.17675 0.94312 0.0
O916 O 0.64622 0.11522 0.89109 0.0
O917 O 0.6064 0.19928 0.03398 0.0
O918 O 0.67378 0.16682 0.84096 0.0
O919 O 0.70169 0.22477 0.0041 0.0
O920 O 0.60118 0.13122 0.98971 0.0
O921 O 0.72989 0.27317 0.93161 0.0
O922 O 0.58118 0.21366 0.85601 0.0
O923 O 0.55931 0.27377 0.9674 0.0
Sc924 Sc 0.41369 0.15944 0.33102 0.0
Sc925 Sc 0.5058 0.1167 0.26362 0.0
Sc926 Sc 0.47111 0.05631 0.35973 0.0
O927 O 0.46139 0.11101 0.31605 0.0
C928 C 0.50751 0.15326 0.4015 0.0
C929 C 0.49277 0.225 0.28766 0.0
C930 C 0.56371 0.03786 0.31935 0.0
C931 C 0.40345 0.14718 0.21973 0.0
C932 C 0.3749 0.07535 0.39306 0.0
C933 C 0.44014 0.02223 0.26242 0.0
O934 O 0.46365 0.16894 0.39413 0.0
O935 O 0.52376 0.19082 0.28273 0.0
O936 O 0.5232 0.02023 0.31852 0.0
O937 O 0.38123 0.14893 0.26042 0.0
O938 O 0.41682 0.07633 0.40918 0.0
O939 O 0.47478 0.04842 0.24605 0.0
O940 O 0.36522 0.1039 0.35904 0.0
O941 O 0.44929 0.1437 0.21615 0.0
O942 O 0.42677 0.02174 0.30703 0.0
O943 O 0.44973 0.21794 0.29947 0.0
O944 O 0.51853 0.10859 0.39455 0.0
O945 O 0.56679 0.08288 0.30838 0.0
Sc946 Sc 0.3063 0.27902 0.89042 0.0
Sc947 Sc 0.36673 0.24432 0.98652 0.0
Sc948 Sc 0.40945 0.33643 0.91911 0.0
O949 O 0.36102 0.28872 0.93409 0.0
C950 C 0.40326 0.2426 0.84864 0.0
C951 C 0.28789 0.18644 0.93074 0.0
C952 C 0.47501 0.25734 0.96247 0.0
C953 C 0.27234 0.31003 0.98775 0.0
C954 C 0.32536 0.37521 0.85706 0.0
C955 C 0.39721 0.34667 0.0304 0.0
O956 O 0.35858 0.23159 0.8556 0.0
O957 O 0.33288 0.18332 0.94177 0.0
O958 O 0.46795 0.30039 0.95065 0.0
O959 O 0.27174 0.32336 0.94313 0.0
O960 O 0.3539 0.38489 0.89109 0.0
O961 O 0.39376 0.30083 0.03398 0.0
O962 O 0.32634 0.33329 0.84096 0.0
O963 O 0.29848 0.27535 0.00412 0.0
O964 O 0.39894 0.36889 0.98971 0.0
O965 O 0.27024 0.22694 0.93165 0.0
O966 O 0.41894 0.28646 0.856 0.0
O967 O 0.44084 0.22635 0.96738 0.0
Sc968 Sc 0.02901 0.94382 0.85972 0.0
Sc969 Sc 0.99432 0.8834 0.76361 0.0
Sc970 Sc 0.08643 0.84068 0.83102 0.0
O971 O 0.03872 0.8891 0.81604 0.0
C972 C 0.12522 0.92478 0.89306 0.0
C973 C 0.06004 0.97778 0.76239 0.0
C974 C 0.09666 0.85292 0.71973 0.0
C975 C 0.93641 0.96225 0.81933 0.0
C976 C 0.99261 0.84686 0.9015 0.0
C977 C 0.00735 0.77511 0.78767 0.0
O978 O 0.08329 0.92381 0.90917 0.0
O979 O 0.02535 0.95166 0.74603 0.0
O980 O 0.11889 0.85119 0.76042 0.0
O981 O 0.97693 0.97989 0.81848 0.0
O982 O 0.03647 0.83118 0.89413 0.0
O983 O 0.97635 0.80929 0.78275 0.0
O984 O 0.98159 0.89154 0.89454 0.0
O985 O 0.93334 0.91724 0.80838 0.0
O986 O 0.05039 0.78217 0.79948 0.0
O987 O 0.07335 0.97839 0.80702 0.0
O988 O 0.13489 0.89623 0.85904 0.0
O989 O 0.05082 0.85638 0.71615 0.0
Sc990 Sc 0.8063 0.22109 0.1097 0.0
Sc991 Sc 0.86673 0.25579 0.0136 0.0
Sc992 Sc 0.90945 0.16369 0.08102 0.0
O993 O 0.86102 0.21139 0.06603 0.0
C994 C 0.90325 0.25751 0.15149 0.0
C995 C 0.78788 0.31367 0.06937 0.0
C996 C 0.97501 0.24277 0.03766 0.0
C997 C 0.77234 0.19008 0.01236 0.0
C998 C 0.82535 0.1249 0.14306 0.0
C999 C 0.89722 0.15344 0.96974 0.0
O1000 O 0.85858 0.26852 0.14452 0.0
O1001 O 0.83288 0.31679 0.05834 0.0
O1002 O 0.96795 0.19973 0.04948 0.0
O1003 O 0.77174 0.17675 0.05698 0.0
O1004 O 0.8539 0.11522 0.10904 0.0
O1005 O 0.89377 0.19928 0.96615 0.0
O1006 O 0.82633 0.16683 0.15916 0.0
O1007 O 0.79849 0.22475 0.996 0.0
O1008 O 0.89895 0.13122 0.01043 0.0
O1009 O 0.77024 0.27316 0.06846 0.0
O1010 O 0.91894 0.21365 0.14413 0.0
O1011 O 0.94084 0.27376 0.03274 0.0
Sc1012 Sc 0.47112 0.94383 0.14042 0.0
Sc1013 Sc 0.5058 0.8834 0.23652 0.0
Sc1014 Sc 0.4137 0.84069 0.1691 0.0
O1015 O 0.4614 0.88911 0.18409 0.0
C1016 C 0.37491 0.92478 0.10707 0.0
C1017 C 0.44008 0.97779 0.23775 0.0
C1018 C 0.40345 0.85293 0.28039 0.0
C1019 C 0.56371 0.96226 0.18082 0.0
C1020 C 0.50752 0.84687 0.09863 0.0
C1021 C 0.49278 0.77511 0.21243 0.0
O1022 O 0.41684 0.92382 0.09096 0.0
O1023 O 0.47476 0.95166 0.25411 0.0
O1024 O 0.38123 0.85119 0.2397 0.0
O1025 O 0.52319 0.97989 0.18166 0.0
O1026 O 0.46366 0.83119 0.106 0.0
O1027 O 0.52377 0.80929 0.21738 0.0
O1028 O 0.51854 0.89154 0.1056 0.0
O1029 O 0.56678 0.91724 0.19176 0.0
O1030 O 0.44973 0.78218 0.20065 0.0
O1031 O 0.42677 0.9784 0.19312 0.0
O1032 O 0.36523 0.89623 0.14108 0.0
O1033 O 0.44929 0.85638 0.28398 0.0
Sc1034 Sc 0.58642 0.65942 0.1691 0.0
Sc1035 Sc 0.49431 0.61671 0.23652 0.0
Sc1036 Sc 0.529 0.55628 0.14042 0.0
O1037 O 0.53872 0.611 0.18409 0.0
C1038 C 0.49259 0.65323 0.09864 0.0
C1039 C 0.50734 0.72499 0.21245 0.0
C1040 C 0.43641 0.53785 0.18082 0.0
C1041 C 0.59666 0.64718 0.28039 0.0
C1042 C 0.6252 0.57532 0.10707 0.0
C1043 C 0.56004 0.52233 0.23775 0.0
O1044 O 0.53645 0.66891 0.106 0.0
O1045 O 0.47635 0.69082 0.21738 0.0
O1046 O 0.47692 0.52022 0.18167 0.0
O1047 O 0.61889 0.64892 0.2397 0.0
O1048 O 0.58327 0.57629 0.09096 0.0
O1049 O 0.52535 0.54846 0.25411 0.0
O1050 O 0.63488 0.60388 0.14108 0.0
O1051 O 0.55083 0.64374 0.28397 0.0
O1052 O 0.57335 0.52172 0.19312 0.0
O1053 O 0.55039 0.71793 0.20064 0.0
O1054 O 0.48158 0.60856 0.1056 0.0
O1055 O 0.43333 0.58287 0.19177 0.0
loop_
_geom_bond_atom_site_label_1
_geom_bond_atom_site_label_2
_geom_bond_distance
_geom_bond_site_symmetry_2
_ccdc_geom_bond_type
Sc0 O3 2.025 . S
Sc0 O10 2.105 . S
Sc0 O13 2.105 . S
Sc0 O16 2.105 . S
Sc0 O19 2.105 . S
Sc1 O3 2.025 1_655 S
Sc1 O11 2.105 1_655 S
Sc1 O15 2.105 . S
Sc1 O17 2.105 . S
Sc1 O21 2.105 . S
Sc2 O3 2.025 . S
Sc2 O12 2.105 . S
Sc2 O14 2.105 . S
Sc2 O18 2.105 . S
Sc2 O20 2.105 . S
O3 Sc0 2.025 . S
O3 Sc1 2.025 1_455 S
O3 Sc2 2.025 . S
C4 O10 1.268 . S
C4 O20 1.268 . S
C5 O11 1.268 . S
C5 O19 1.268 . S
C6 O12 1.268 . S
C6 O21 1.268 1_455 S
C7 O13 1.268 1_655 S
C7 O17 1.268 . S
C8 O14 1.268 . S
C8 O16 1.268 . S
C9 O15 1.268 . S
C9 O18 1.268 1_655 S
O10 Sc0 2.105 . S
O10 C4 1.268 . S
O11 Sc1 2.105 1_455 S
O11 C5 1.268 . S
O12 Sc2 2.105 . S
O12 C6 1.268 . S
O13 Sc0 2.105 . S
O13 C7 1.268 1_455 S
O14 Sc2 2.105 . S
O14 C8 1.268 . S
O15 Sc1 2.105 . S
O15 C9 1.268 . S
O16 Sc0 2.105 . S
O16 C8 1.268 . S
O17 Sc1 2.105 . S
O17 C7 1.268 . S
O18 Sc2 2.105 . S
O18 C9 1.268 1_455 S
O19 Sc0 2.105 . S
O19 C5 1.268 . S
O20 Sc2 2.105 . S
O20 C4 1.268 . S
O21 Sc1 2.105 . S
O21 C6 1.268 1_655 S
Sc22 O25 2.026 . S
Sc22 O32 2.106 . S
Sc22 O35 2.104 1_556 S
Sc22 O38 2.105 1_556 S
Sc22 O41 2.105 . S
Sc23 O25 2.025 1_554 S
Sc23 O33 2.105 . S
Sc23 O37 2.105 . S
Sc23 O39 2.105 . S
Sc23 O43 2.105 1_554 S
Sc24 O25 2.025 . S
Sc24 O34 2.105 . S
Sc24 O36 2.105 . S
Sc24 O40 2.105 . S
Sc24 O42 2.105 . S
O25 Sc22 2.026 . S
O25 Sc23 2.025 1_556 S
O25 Sc24 2.025 . S
C26 O32 1.268 . S
C26 O42 1.268 . S
C27 O33 1.268 1_556 S
C27 O41 1.268 . S
C28 O34 1.268 . S
C28 O43 1.268 . S
C29 O35 1.268 . S
C29 O39 1.268 . S
C30 O36 1.268 . S
C30 O38 1.268 1_556 S
C31 O37 1.268 . S
C31 O40 1.268 1_554 S
O32 Sc22 2.106 . S
O32 C26 1.268 . S
O33 Sc23 2.105 . S
O33 C27 1.268 1_554 S
O34 Sc24 2.105 . S
O34 C28 1.268 . S
O35 Sc22 2.104 1_554 S
O35 C29 1.268 . S
O36 Sc24 2.105 . S
O36 C30 1.268 . S
O37 Sc23 2.105 . S
O37 C31 1.268 . S
O38 Sc22 2.105 1_554 S
O38 C30 1.268 1_554 S
O39 Sc23 2.105 . S
O39 C29 1.268 . S
O40 Sc24 2.105 . S
O40 C31 1.268 1_556 S
O41 Sc22 2.105 . S
O41 C27 1.268 . S
O42 Sc24 2.105 . S
O42 C26 1.268 . S
O43 Sc23 2.105 1_556 S
O43 C28 1.268 . S
Sc44 O47 2.025 . S
Sc44 O54 2.105 . S
Sc44 O57 2.105 . S
Sc44 O60 2.105 . S
Sc44 O63 2.105 . S
Sc45 O47 2.025 1_455 S
Sc45 O55 2.105 . S
Sc45 O59 2.105 1_455 S
Sc45 O61 2.105 . S
Sc45 O65 2.105 . S
Sc46 O47 2.025 . S
Sc46 O56 2.105 . S
Sc46 O58 2.105 . S
Sc46 O62 2.105 . S
Sc46 O64 2.105 . S
O47 Sc44 2.025 . S
O47 Sc45 2.025 1_655 S
O47 Sc46 2.025 . S
C48 O54 1.268 . S
C48 O64 1.268 . S
C49 O55 1.268 . S
C49 O63 1.268 1_455 S
C50 O56 1.268 1_455 S
C50 O65 1.268 . S
C51 O57 1.268 . S
C51 O61 1.268 1_655 S
C52 O58 1.268 . S
C52 O60 1.268 . S
C53 O59 1.268 . S
C53 O62 1.268 . S
O54 Sc44 2.105 . S
O54 C48 1.268 . S
O55 Sc45 2.105 . S
O55 C49 1.268 . S
O56 Sc46 2.105 . S
O56 C50 1.268 1_655 S
O57 Sc44 2.105 . S
O57 C51 1.268 . S
O58 Sc46 2.105 . S
O58 C52 1.268 . S
O59 Sc45 2.105 1_655 S
O59 C53 1.268 . S
O60 Sc44 2.105 . S
O60 C52 1.268 . S
O61 Sc45 2.105 . S
O61 C51 1.268 1_455 S
O62 Sc46 2.105 . S
O62 C53 1.268 . S
O63 Sc44 2.105 . S
O63 C49 1.268 1_655 S
O64 Sc46 2.105 . S
O64 C48 1.268 . S
O65 Sc45 2.105 . S
O65 C50 1.268 . S
Sc66 O69 2.026 . S
Sc66 O76 2.106 . S
Sc66 O79 2.103 1_556 S
Sc66 O82 2.105 1_556 S
Sc66 O85 2.105 . S
Sc67 O69 2.025 1_554 S
Sc67 O77 2.105 . S
Sc67 O81 2.105 . S
Sc67 O83 2.105 . S
Sc67 O87 2.105 1_554 S
Sc68 O69 2.025 . S
Sc68 O78 2.105 . S
Sc68 O80 2.105 . S
Sc68 O84 2.105 . S
Sc68 O86 2.105 . S
O69 Sc66 2.026 . S
O69 Sc67 2.025 1_556 S
O69 Sc68 2.025 . S
C70 O76 1.268 . S
C70 O86 1.268 . S
C71 O77 1.268 1_556 S
C71 O85 1.268 . S
C72 O78 1.268 . S
C72 O87 1.268 . S
C73 O79 1.268 . S
C73 O83 1.268 . S
C74 O80 1.268 . S
C74 O82 1.268 1_556 S
C75 O81 1.268 . S
C75 O84 1.268 1_554 S
O76 Sc66 2.106 . S
O76 C70 1.268 . S
O77 Sc67 2.105 . S
O77 C71 1.268 1_554 S
O78 Sc68 2.105 . S
O78 C72 1.268 . S
O79 Sc66 2.103 1_554 S
O79 C73 1.268 . S
O80 Sc68 2.105 . S
O80 C74 1.268 . S
O81 Sc67 2.105 . S
O81 C75 1.268 . S
O82 Sc66 2.105 1_554 S
O82 C74 1.268 1_554 S
O83 Sc67 2.105 . S
O83 C73 1.268 . S
O84 Sc68 2.105 . S
O84 C75 1.268 1_556 S
O85 Sc66 2.105 . S
O85 C71 1.268 . S
O86 Sc68 2.105 . S
O86 C70 1.268 . S
O87 Sc67 2.105 1_556 S
O87 C72 1.268 . S
Sc88 O91 2.025 . S
Sc88 O98 2.105 . S
Sc88 O101 2.105 . S
Sc88 O104 2.105 . S
Sc88 O107 2.105 . S
Sc89 O91 2.025 1_655 S
Sc89 O99 2.105 1_655 S
Sc89 O103 2.105 . S
Sc89 O105 2.105 . S
Sc89 O109 2.105 . S
Sc90 O91 2.025 . S
Sc90 O100 2.105 . S
Sc90 O102 2.105 . S
Sc90 O106 2.105 . S
Sc90 O108 2.105 . S
O91 Sc88 2.025 . S
O91 Sc89 2.025 1_455 S
O91 Sc90 2.025 . S
C92 O98 1.268 . S
C92 O108 1.268 . S
C93 O99 1.268 . S
C93 O107 1.268 . S
C94 O100 1.268 . S
C94 O109 1.268 1_455 S
C95 O101 1.268 1_655 S
C95 O105 1.268 . S
C96 O102 1.268 . S
C96 O104 1.268 . S
C97 O103 1.268 . S
C97 O106 1.268 1_655 S
O98 Sc88 2.105 . S
O98 C92 1.268 . S
O99 Sc89 2.105 1_455 S
O99 C93 1.268 . S
O100 Sc90 2.105 . S
O100 C94 1.268 . S
O101 Sc88 2.105 . S
O101 C95 1.268 1_455 S
O102 Sc90 2.105 . S
O102 C96 1.268 . S
O103 Sc89 2.105 . S
O103 C97 1.268 . S
O104 Sc88 2.105 . S
O104 C96 1.268 . S
O105 Sc89 2.105 . S
O105 C95 1.268 . S
O106 Sc90 2.105 . S
O106 C97 1.268 1_455 S
O107 Sc88 2.105 . S
O107 C93 1.268 . S
O108 Sc90 2.105 . S
O108 C92 1.268 . S
O109 Sc89 2.105 . S
O109 C94 1.268 1_655 S
Sc110 O113 2.026 1_556 S
Sc110 O120 2.107 1_556 S
Sc110 O123 2.102 . S
Sc110 O126 2.105 . S
Sc110 O129 2.110 1_556 S
Sc111 O113 2.025 1_556 S
Sc111 O121 2.105 . S
Sc111 O125 2.105 . S
Sc111 O127 2.105 . S
Sc111 O131 2.105 1_556 S
Sc112 O113 2.025 . S
Sc112 O122 2.105 . S
Sc112 O124 2.105 . S
Sc112 O128 2.105 . S
Sc112 O130 2.105 . S
O113 Sc110 2.026 1_554 S
O113 Sc111 2.025 1_554 S
O113 Sc112 2.025 . S
C114 O120 1.268 . S
C114 O130 1.268 . S
C115 O121 1.268 1_554 S
C115 O129 1.268 . S
C116 O122 1.268 . S
C116 O131 1.268 . S
C117 O123 1.268 . S
C117 O127 1.268 . S
C118 O124 1.268 . S
C118 O126 1.268 1_554 S
C119 O125 1.268 . S
C119 O128 1.268 1_556 S
O120 Sc110 2.107 1_554 S
O120 C114 1.268 . S
O121 Sc111 2.105 . S
O121 C115 1.268 1_556 S
O122 Sc112 2.105 . S
O122 C116 1.268 . S
O123 Sc110 2.102 . S
O123 C117 1.268 . S
O124 Sc112 2.105 . S
O124 C118 1.268 . S
O125 Sc111 2.105 . S
O125 C119 1.268 . S
O126 Sc110 2.105 . S
O126 C118 1.268 1_556 S
O127 Sc111 2.105 . S
O127 C117 1.268 . S
O128 Sc112 2.105 . S
O128 C119 1.268 1_554 S
O129 Sc110 2.110 1_554 S
O129 C115 1.268 . S
O130 Sc112 2.105 . S
O130 C114 1.268 . S
O131 Sc111 2.105 1_554 S
O131 C116 1.268 . S
Sc132 O135 2.025 . S
Sc132 O142 2.105 . S
Sc132 O145 2.105 . S
Sc132 O148 2.105 . S
Sc132 O151 2.105 . S
Sc133 O135 2.025 1_455 S
Sc133 O143 2.105 . S
Sc133 O147 2.105 1_455 S
Sc133 O149 2.105 . S
Sc133 O153 2.105 . S
Sc134 O135 2.025 . S
Sc134 O144 2.105 . S
Sc134 O146 2.105 . S
Sc134 O150 2.105 . S
Sc134 O152 2.105 . S
O135 Sc132 2.025 . S
O135 Sc133 2.025 1_655 S
O135 Sc134 2.025 . S
C136 O142 1.268 . S
C136 O152 1.268 . S
C137 O143 1.268 . S
C137 O151 1.268 1_455 S
C138 O144 1.268 1_455 S
C138 O153 1.268 . S
C139 O145 1.268 . S
C139 O149 1.268 1_655 S
C140 O146 1.268 . S
C140 O148 1.268 . S
C141 O147 1.268 . S
C141 O150 1.268 . S
O142 Sc132 2.105 . S
O142 C136 1.268 . S
O143 Sc133 2.105 . S
O143 C137 1.268 . S
O144 Sc134 2.105 . S
O144 C138 1.268 1_655 S
O145 Sc132 2.105 . S
O145 C139 1.268 . S
O146 Sc134 2.105 . S
O146 C140 1.268 . S
O147 Sc133 2.105 1_655 S
O147 C141 1.268 . S
O148 Sc132 2.105 . S
O148 C140 1.268 . S
O149 Sc133 2.105 . S
O149 C139 1.268 1_455 S
O150 Sc134 2.105 . S
O150 C141 1.268 . S
O151 Sc132 2.105 . S
O151 C137 1.268 1_655 S
O152 Sc134 2.105 . S
O152 C136 1.268 . S
O153 Sc133 2.105 . S
O153 C138 1.268 . S
Sc154 O157 2.025 . S
Sc154 O164 2.105 . S
Sc154 O167 2.105 . S
Sc154 O170 2.105 . S
Sc154 O173 2.105 . S
Sc155 O157 2.025 1_556 S
Sc155 O165 2.105 . S
Sc155 O169 2.105 . S
Sc155 O171 2.105 1_556 S
Sc155 O175 2.105 . S
Sc156 O157 2.026 1_556 S
Sc156 O166 2.102 . S
Sc156 O168 2.107 1_556 S
Sc156 O172 2.113 1_556 S
Sc156 O174 2.105 . S
O157 Sc154 2.025 . S
O157 Sc155 2.025 1_554 S
O157 Sc156 2.026 1_554 S
C158 O164 1.268 . S
C158 O174 1.268 1_554 S
C159 O165 1.268 . S
C159 O173 1.268 1_556 S
C160 O166 1.268 . S
C160 O175 1.268 . S
C161 O167 1.268 . S
C161 O171 1.268 . S
C162 O168 1.268 . S
C162 O170 1.268 . S
C163 O169 1.268 1_554 S
C163 O172 1.269 . S
O164 Sc154 2.105 . S
O164 C158 1.268 . S
O165 Sc155 2.105 . S
O165 C159 1.268 . S
O166 Sc156 2.102 . S
O166 C160 1.268 . S
O167 Sc154 2.105 . S
O167 C161 1.268 . S
O168 Sc156 2.107 1_554 S
O168 C162 1.268 . S
O169 Sc155 2.105 . S
O169 C163 1.268 1_556 S
O170 Sc154 2.105 . S
O170 C162 1.268 . S
O171 Sc155 2.105 1_554 S
O171 C161 1.268 . S
O172 Sc156 2.113 1_554 S
O172 C163 1.269 . S
O173 Sc154 2.105 . S
O173 C159 1.268 1_554 S
O174 Sc156 2.105 . S
O174 C158 1.268 1_556 S
O175 Sc155 2.105 . S
O175 C160 1.268 . S
Sc176 O179 2.025 . S
Sc176 O186 2.105 . S
Sc176 O189 2.105 . S
Sc176 O192 2.105 . S
Sc176 O195 2.105 . S
Sc177 O179 2.025 1_565 S
Sc177 O187 2.105 1_565 S
Sc177 O191 2.105 . S
Sc177 O193 2.105 . S
Sc177 O197 2.105 . S
Sc178 O179 2.025 . S
Sc178 O188 2.105 . S
Sc178 O190 2.105 . S
Sc178 O194 2.105 . S
Sc178 O196 2.105 . S
O179 Sc176 2.025 . S
O179 Sc177 2.025 1_545 S
O179 Sc178 2.025 . S
C180 O186 1.268 . S
C180 O196 1.268 . S
C181 O187 1.268 . S
C181 O195 1.268 . S
C182 O188 1.268 . S
C182 O197 1.268 1_545 S
C183 O189 1.268 1_565 S
C183 O193 1.268 . S
C184 O190 1.268 . S
C184 O192 1.268 . S
C185 O191 1.268 . S
C185 O194 1.268 1_565 S
O186 Sc176 2.105 . S
O186 C180 1.268 . S
O187 Sc177 2.105 1_545 S
O187 C181 1.268 . S
O188 Sc178 2.105 . S
O188 C182 1.268 . S
O189 Sc176 2.105 . S
O189 C183 1.268 1_545 S
O190 Sc178 2.105 . S
O190 C184 1.268 . S
O191 Sc177 2.105 . S
O191 C185 1.268 . S
O192 Sc176 2.105 . S
O192 C184 1.268 . S
O193 Sc177 2.105 . S
O193 C183 1.268 . S
O194 Sc178 2.105 . S
O194 C185 1.268 1_545 S
O195 Sc176 2.105 . S
O195 C181 1.268 . S
O196 Sc178 2.105 . S
O196 C180 1.268 . S
O197 Sc177 2.105 . S
O197 C182 1.268 1_565 S
Sc198 O201 2.025 . S
Sc198 O208 2.105 . S
Sc198 O211 2.105 . S
Sc198 O214 2.105 . S
Sc198 O217 2.110 . S
Sc199 O201 2.025 . S
Sc199 O209 2.105 . S
Sc199 O213 2.105 . S
Sc199 O215 2.105 . S
Sc199 O219 2.105 . S
Sc200 O201 2.025 . S
Sc200 O210 2.105 . S
Sc200 O212 2.105 . S
Sc200 O216 2.105 . S
Sc200 O218 2.105 . S
O201 Sc198 2.025 . S
O201 Sc199 2.025 . S
O201 Sc200 2.025 . S
C202 O208 1.268 . S
C202 O218 1.268 . S
C203 O209 1.268 . S
C203 O217 1.268 . S
C204 O210 1.268 . S
C204 O219 1.268 . S
C205 O211 1.268 . S
C205 O215 1.268 . S
C206 O212 1.268 . S
C206 O214 1.268 . S
C207 O213 1.268 . S
C207 O216 1.268 . S
O208 Sc198 2.105 . S
O208 C202 1.268 . S
O209 Sc199 2.105 . S
O209 C203 1.268 . S
O210 Sc200 2.105 . S
O210 C204 1.268 . S
O211 Sc198 2.105 . S
O211 C205 1.268 . S
O212 Sc200 2.105 . S
O212 C206 1.268 . S
O213 Sc199 2.105 . S
O213 C207 1.268 . S
O214 Sc198 2.105 . S
O214 C206 1.268 . S
O215 Sc199 2.105 . S
O215 C205 1.268 . S
O216 Sc200 2.105 . S
O216 C207 1.268 . S
O217 Sc198 2.110 . S
O217 C203 1.268 . S
O218 Sc200 2.105 . S
O218 C202 1.268 . S
O219 Sc199 2.105 . S
O219 C204 1.268 . S
Sc220 O223 2.025 . S
Sc220 O230 2.105 . S
Sc220 O233 2.105 . S
Sc220 O236 2.105 . S
Sc220 O239 2.105 . S
Sc221 O223 2.025 . S
Sc221 O231 2.105 . S
Sc221 O235 2.105 . S
Sc221 O237 2.105 . S
Sc221 O241 2.105 . S
Sc222 O223 2.025 . S
Sc222 O232 2.105 . S
Sc222 O234 2.105 . S
Sc222 O238 2.105 . S
Sc222 O240 2.105 . S
O223 Sc220 2.025 . S
O223 Sc221 2.025 . S
O223 Sc222 2.025 . S
C224 O230 1.268 . S
C224 O240 1.268 . S
C225 O231 1.268 . S
C225 O239 1.268 . S
C226 O232 1.268 . S
C226 O241 1.268 . S
C227 O233 1.268 . S
C227 O237 1.268 . S
C228 O234 1.268 . S
C228 O236 1.268 . S
C229 O235 1.268 . S
C229 O238 1.268 . S
O230 Sc220 2.105 . S
O230 C224 1.268 . S
O231 Sc221 2.105 . S
O231 C225 1.268 . S
O232 Sc222 2.105 . S
O232 C226 1.268 . S
O233 Sc220 2.105 . S
O233 C227 1.268 . S
O234 Sc222 2.105 . S
O234 C228 1.268 . S
O235 Sc221 2.105 . S
O235 C229 1.268 . S
O236 Sc220 2.105 . S
O236 C228 1.268 . S
O237 Sc221 2.105 . S
O237 C227 1.268 . S
O238 Sc222 2.105 . S
O238 C229 1.268 . S
O239 Sc220 2.105 . S
O239 C225 1.268 . S
O240 Sc222 2.105 . S
O240 C224 1.268 . S
O241 Sc221 2.105 . S
O241 C226 1.268 . S
Sc242 O245 2.026 1_565 S
Sc242 O252 2.107 1_565 S
Sc242 O255 2.102 . S
Sc242 O258 2.105 . S
Sc242 O261 2.110 1_565 S
Sc243 O245 2.025 1_565 S
Sc243 O253 2.105 . S
Sc243 O257 2.105 . S
Sc243 O259 2.105 . S
Sc243 O263 2.105 1_565 S
Sc244 O245 2.025 . S
Sc244 O254 2.105 . S
Sc244 O256 2.105 . S
Sc244 O260 2.105 . S
Sc244 O262 2.105 . S
O245 Sc242 2.026 1_545 S
O245 Sc243 2.025 1_545 S
O245 Sc244 2.025 . S
C246 O252 1.268 . S
C246 O262 1.268 . S
C247 O253 1.268 1_545 S
C247 O261 1.268 . S
C248 O254 1.268 . S
C248 O263 1.268 . S
C249 O255 1.268 . S
C249 O259 1.268 . S
C250 O256 1.268 . S
C250 O258 1.268 1_545 S
C251 O257 1.268 . S
C251 O260 1.268 1_565 S
O252 Sc242 2.107 1_545 S
O252 C246 1.268 . S
O253 Sc243 2.105 . S
O253 C247 1.268 1_565 S
O254 Sc244 2.105 . S
O254 C248 1.268 . S
O255 Sc242 2.102 . S
O255 C249 1.268 . S
O256 Sc244 2.105 . S
O256 C250 1.268 . S
O257 Sc243 2.105 . S
O257 C251 1.268 . S
O258 Sc242 2.105 . S
O258 C250 1.268 1_565 S
O259 Sc243 2.105 . S
O259 C249 1.268 . S
O260 Sc244 2.105 . S
O260 C251 1.268 1_545 S
O261 Sc242 2.110 1_545 S
O261 C247 1.268 . S
O262 Sc244 2.105 . S
O262 C246 1.268 . S
O263 Sc243 2.105 1_545 S
O263 C248 1.268 . S
Sc264 O267 2.025 . S
Sc264 O274 2.105 . S
Sc264 O277 2.105 . S
Sc264 O280 2.105 . S
Sc264 O283 2.105 . S
Sc265 O267 2.025 1_545 S
Sc265 O275 2.105 1_545 S
Sc265 O279 2.105 . S
Sc265 O281 2.105 . S
Sc265 O285 2.105 . S
Sc266 O267 2.025 . S
Sc266 O276 2.105 . S
Sc266 O278 2.105 . S
Sc266 O282 2.105 . S
Sc266 O284 2.105 . S
O267 Sc264 2.025 . S
O267 Sc265 2.025 1_565 S
O267 Sc266 2.025 . S
C268 O274 1.268 . S
C268 O284 1.268 . S
C269 O275 1.268 . S
C269 O283 1.268 . S
C270 O276 1.268 . S
C270 O285 1.268 1_565 S
C271 O277 1.268 1_545 S
C271 O281 1.268 . S
C272 O278 1.268 . S
C272 O280 1.268 . S
C273 O279 1.268 . S
C273 O282 1.268 1_545 S
O274 Sc264 2.105 . S
O274 C268 1.268 . S
O275 Sc265 2.105 1_565 S
O275 C269 1.268 . S
O276 Sc266 2.105 . S
O276 C270 1.268 . S
O277 Sc264 2.105 . S
O277 C271 1.268 1_565 S
O278 Sc266 2.105 . S
O278 C272 1.268 . S
O279 Sc265 2.105 . S
O279 C273 1.268 . S
O280 Sc264 2.105 . S
O280 C272 1.268 . S
O281 Sc265 2.105 . S
O281 C271 1.268 . S
O282 Sc266 2.105 . S
O282 C273 1.268 1_565 S
O283 Sc264 2.105 . S
O283 C269 1.268 . S
O284 Sc266 2.105 . S
O284 C268 1.268 . S
O285 Sc265 2.105 . S
O285 C270 1.268 1_545 S
Sc286 O289 2.025 . S
Sc286 O296 2.105 . S
Sc286 O299 2.105 . S
Sc286 O302 2.105 . S
Sc286 O305 2.105 . S
Sc287 O289 2.025 . S
Sc287 O297 2.105 . S
Sc287 O301 2.105 . S
Sc287 O303 2.105 . S
Sc287 O307 2.105 . S
Sc288 O289 2.025 . S
Sc288 O298 2.105 . S
Sc288 O300 2.105 . S
Sc288 O304 2.113 . S
Sc288 O306 2.105 . S
O289 Sc286 2.025 . S
O289 Sc287 2.025 . S
O289 Sc288 2.025 . S
C290 O296 1.268 . S
C290 O306 1.268 . S
C291 O297 1.268 . S
C291 O305 1.268 . S
C292 O298 1.268 . S
C292 O307 1.268 . S
C293 O299 1.268 . S
C293 O303 1.268 . S
C294 O300 1.268 . S
C294 O302 1.268 . S
C295 O301 1.268 . S
C295 O304 1.269 . S
O296 Sc286 2.105 . S
O296 C290 1.268 . S
O297 Sc287 2.105 . S
O297 C291 1.268 . S
O298 Sc288 2.105 . S
O298 C292 1.268 . S
O299 Sc286 2.105 . S
O299 C293 1.268 . S
O300 Sc288 2.105 . S
O300 C294 1.268 . S
O301 Sc287 2.105 . S
O301 C295 1.268 . S
O302 Sc286 2.105 . S
O302 C294 1.268 . S
O303 Sc287 2.105 . S
O303 C293 1.268 . S
O304 Sc288 2.113 . S
O304 C295 1.269 . S
O305 Sc286 2.105 . S
O305 C291 1.268 . S
O306 Sc288 2.105 . S
O306 C290 1.268 . S
O307 Sc287 2.105 . S
O307 C292 1.268 . S
Sc308 O311 2.025 . S
Sc308 O318 2.105 . S
Sc308 O321 2.105 . S
Sc308 O324 2.105 . S
Sc308 O327 2.105 . S
Sc309 O311 2.025 . S
Sc309 O319 2.105 . S
Sc309 O323 2.105 . S
Sc309 O325 2.105 . S
Sc309 O329 2.105 . S
Sc310 O311 2.025 . S
Sc310 O320 2.105 . S
Sc310 O322 2.105 . S
Sc310 O326 2.105 . S
Sc310 O328 2.105 . S
O311 Sc308 2.025 . S
O311 Sc309 2.025 . S
O311 Sc310 2.025 . S
C312 O318 1.268 . S
C312 O328 1.268 . S
C313 O319 1.268 . S
C313 O327 1.268 . S
C314 O320 1.268 . S
C314 O329 1.268 . S
C315 O321 1.268 . S
C315 O325 1.268 . S
C316 O322 1.268 . S
C316 O324 1.268 . S
C317 O323 1.268 . S
C317 O326 1.268 . S
O318 Sc308 2.105 . S
O318 C312 1.268 . S
O319 Sc309 2.105 . S
O319 C313 1.268 . S
O320 Sc310 2.105 . S
O320 C314 1.268 . S
O321 Sc308 2.105 . S
O321 C315 1.268 . S
O322 Sc310 2.105 . S
O322 C316 1.268 . S
O323 Sc309 2.105 . S
O323 C317 1.268 . S
O324 Sc308 2.105 . S
O324 C316 1.268 . S
O325 Sc309 2.105 . S
O325 C315 1.268 . S
O326 Sc310 2.105 . S
O326 C317 1.268 . S
O327 Sc308 2.105 . S
O327 C313 1.268 . S
O328 Sc310 2.105 . S
O328 C312 1.268 . S
O329 Sc309 2.105 . S
O329 C314 1.268 . S
Sc330 O333 2.025 . S
Sc330 O340 2.105 . S
Sc330 O343 2.105 . S
Sc330 O346 2.105 . S
Sc330 O349 2.105 . S
Sc331 O333 2.025 1_565 S
Sc331 O341 2.105 . S
Sc331 O345 2.105 . S
Sc331 O347 2.105 1_565 S
Sc331 O351 2.105 . S
Sc332 O333 2.026 1_565 S
Sc332 O342 2.102 . S
Sc332 O344 2.107 1_565 S
Sc332 O348 2.113 1_565 S
Sc332 O350 2.105 . S
O333 Sc330 2.025 . S
O333 Sc331 2.025 1_545 S
O333 Sc332 2.026 1_545 S
C334 O340 1.268 . S
C334 O350 1.268 1_545 S
C335 O341 1.268 . S
C335 O349 1.268 1_565 S
C336 O342 1.268 . S
C336 O351 1.268 . S
C337 O343 1.268 . S
C337 O347 1.268 . S
C338 O344 1.268 . S
C338 O346 1.268 . S
C339 O345 1.268 1_545 S
C339 O348 1.269 . S
O340 Sc330 2.105 . S
O340 C334 1.268 . S
O341 Sc331 2.105 . S
O341 C335 1.268 . S
O342 Sc332 2.102 . S
O342 C336 1.268 . S
O343 Sc330 2.105 . S
O343 C337 1.268 . S
O344 Sc332 2.107 1_545 S
O344 C338 1.268 . S
O345 Sc331 2.105 . S
O345 C339 1.268 1_565 S
O346 Sc330 2.105 . S
O346 C338 1.268 . S
O347 Sc331 2.105 1_545 S
O347 C337 1.268 . S
O348 Sc332 2.113 1_545 S
O348 C339 1.269 . S
O349 Sc330 2.105 . S
O349 C335 1.268 1_545 S
O350 Sc332 2.105 . S
O350 C334 1.268 1_565 S
O351 Sc331 2.105 . S
O351 C336 1.268 . S
Sc352 O355 2.025 . S
Sc352 O362 2.105 . S
Sc352 O365 2.105 . S
Sc352 O368 2.105 . S
Sc352 O371 2.105 . S
Sc353 O355 2.025 1_556 S
Sc353 O363 2.105 . S
Sc353 O367 2.105 1_556 S
Sc353 O369 2.105 . S
Sc353 O373 2.105 . S
Sc354 O355 2.025 . S
Sc354 O364 2.105 . S
Sc354 O366 2.105 . S
Sc354 O370 2.105 . S
Sc354 O372 2.105 . S
O355 Sc352 2.025 . S
O355 Sc353 2.025 1_554 S
O355 Sc354 2.025 . S
C356 O362 1.268 . S
C356 O372 1.268 . S
C357 O363 1.268 . S
C357 O371 1.268 1_556 S
C358 O364 1.268 1_556 S
C358 O373 1.268 . S
C359 O365 1.268 . S
C359 O369 1.268 1_554 S
C360 O366 1.268 . S
C360 O368 1.268 . S
C361 O367 1.268 . S
C361 O370 1.268 . S
O362 Sc352 2.105 . S
O362 C356 1.268 . S
O363 Sc353 2.105 . S
O363 C357 1.268 . S
O364 Sc354 2.105 . S
O364 C358 1.268 1_554 S
O365 Sc352 2.105 . S
O365 C359 1.268 . S
O366 Sc354 2.105 . S
O366 C360 1.268 . S
O367 Sc353 2.105 1_554 S
O367 C361 1.268 . S
O368 Sc352 2.105 . S
O368 C360 1.268 . S
O369 Sc353 2.105 . S
O369 C359 1.268 1_556 S
O370 Sc354 2.105 . S
O370 C361 1.268 . S
O371 Sc352 2.105 . S
O371 C357 1.268 1_554 S
O372 Sc354 2.105 . S
O372 C356 1.268 . S
O373 Sc353 2.105 . S
O373 C358 1.268 . S
Sc374 O377 2.025 . S
Sc374 O384 2.105 . S
Sc374 O387 2.105 . S
Sc374 O390 2.105 . S
Sc374 O393 2.105 . S
Sc375 O377 2.025 . S
Sc375 O385 2.105 . S
Sc375 O389 2.105 . S
Sc375 O391 2.105 . S
Sc375 O395 2.105 . S
Sc376 O377 2.025 . S
Sc376 O386 2.105 . S
Sc376 O388 2.105 . S
Sc376 O392 2.105 . S
Sc376 O394 2.105 . S
O377 Sc374 2.025 . S
O377 Sc375 2.025 . S
O377 Sc376 2.025 . S
C378 O384 1.268 . S
C378 O394 1.268 . S
C379 O385 1.268 . S
C379 O393 1.268 . S
C380 O386 1.268 . S
C380 O395 1.268 . S
C381 O387 1.268 . S
C381 O391 1.268 . S
C382 O388 1.268 . S
C382 O390 1.268 . S
C383 O389 1.268 . S
C383 O392 1.268 . S
O384 Sc374 2.105 . S
O384 C378 1.268 . S
O385 Sc375 2.105 . S
O385 C379 1.268 . S
O386 Sc376 2.105 . S
O386 C380 1.268 . S
O387 Sc374 2.105 . S
O387 C381 1.268 . S
O388 Sc376 2.105 . S
O388 C382 1.268 . S
O389 Sc375 2.105 . S
O389 C383 1.268 . S
O390 Sc374 2.105 . S
O390 C382 1.268 . S
O391 Sc375 2.105 . S
O391 C381 1.268 . S
O392 Sc376 2.105 . S
O392 C383 1.268 . S
O393 Sc374 2.105 . S
O393 C379 1.268 . S
O394 Sc376 2.105 . S
O394 C378 1.268 . S
O395 Sc375 2.105 . S
O395 C380 1.268 . S
Sc396 O399 2.025 . S
Sc396 O406 2.105 . S
Sc396 O409 2.105 . S
Sc396 O412 2.105 . S
Sc396 O415 2.105 . S
Sc397 O399 2.025 1_455 S
Sc397 O407 2.105 . S
Sc397 O411 2.105 . S
Sc397 O413 2.105 1_455 S
Sc397 O417 2.105 . S
Sc398 O399 2.026 . S
Sc398 O408 2.103 1_655 S
Sc398 O410 2.106 . S
Sc398 O414 2.105 . S
Sc398 O416 2.105 1_655 S
O399 Sc396 2.025 . S
O399 Sc397 2.025 1_655 S
O399 Sc398 2.026 . S
C400 O406 1.268 . S
C400 O416 1.268 1_655 S
C401 O407 1.268 . S
C401 O415 1.268 1_455 S
C402 O408 1.268 . S
C402 O417 1.268 . S
C403 O409 1.268 . S
C403 O413 1.268 . S
C404 O410 1.268 . S
C404 O412 1.268 . S
C405 O411 1.268 1_655 S
C405 O414 1.268 . S
O406 Sc396 2.105 . S
O406 C400 1.268 . S
O407 Sc397 2.105 . S
O407 C401 1.268 . S
O408 Sc398 2.103 1_455 S
O408 C402 1.268 . S
O409 Sc396 2.105 . S
O409 C403 1.268 . S
O410 Sc398 2.106 . S
O410 C404 1.268 . S
O411 Sc397 2.105 . S
O411 C405 1.268 1_455 S
O412 Sc396 2.105 . S
O412 C404 1.268 . S
O413 Sc397 2.105 1_655 S
O413 C403 1.268 . S
O414 Sc398 2.105 . S
O414 C405 1.268 . S
O415 Sc396 2.105 . S
O415 C401 1.268 1_655 S
O416 Sc398 2.105 1_455 S
O416 C400 1.268 1_455 S
O417 Sc397 2.105 . S
O417 C402 1.268 . S
Sc418 O421 2.025 . S
Sc418 O428 2.105 . S
Sc418 O431 2.105 . S
Sc418 O434 2.105 . S
Sc418 O437 2.105 . S
Sc419 O421 2.025 . S
Sc419 O429 2.105 . S
Sc419 O433 2.105 . S
Sc419 O435 2.105 . S
Sc419 O439 2.105 . S
Sc420 O421 2.025 . S
Sc420 O430 2.105 . S
Sc420 O432 2.105 . S
Sc420 O436 2.105 . S
Sc420 O438 2.105 . S
O421 Sc418 2.025 . S
O421 Sc419 2.025 . S
O421 Sc420 2.025 . S
C422 O428 1.268 . S
C422 O438 1.268 . S
C423 O429 1.268 . S
C423 O437 1.268 . S
C424 O430 1.268 . S
C424 O439 1.268 . S
C425 O431 1.268 . S
C425 O435 1.268 . S
C426 O432 1.268 . S
C426 O434 1.268 . S
C427 O433 1.268 . S
C427 O436 1.268 . S
O428 Sc418 2.105 . S
O428 C422 1.268 . S
O429 Sc419 2.105 . S
O429 C423 1.268 . S
O430 Sc420 2.105 . S
O430 C424 1.268 . S
O431 Sc418 2.105 . S
O431 C425 1.268 . S
O432 Sc420 2.105 . S
O432 C426 1.268 . S
O433 Sc419 2.105 . S
O433 C427 1.268 . S
O434 Sc418 2.105 . S
O434 C426 1.268 . S
O435 Sc419 2.105 . S
O435 C425 1.268 . S
O436 Sc420 2.105 . S
O436 C427 1.268 . S
O437 Sc418 2.105 . S
O437 C423 1.268 . S
O438 Sc420 2.105 . S
O438 C422 1.268 . S
O439 Sc419 2.105 . S
O439 C424 1.268 . S
Sc440 O443 2.025 . S
Sc440 O450 2.105 . S
Sc440 O453 2.105 . S
Sc440 O456 2.105 . S
Sc440 O459 2.105 . S
Sc441 O443 2.025 . S
Sc441 O451 2.105 . S
Sc441 O455 2.105 . S
Sc441 O457 2.105 . S
Sc441 O461 2.105 . S
Sc442 O443 2.025 . S
Sc442 O452 2.105 . S
Sc442 O454 2.105 . S
Sc442 O458 2.105 . S
Sc442 O460 2.105 . S
O443 Sc440 2.025 . S
O443 Sc441 2.025 . S
O443 Sc442 2.025 . S
C444 O450 1.268 . S
C444 O460 1.268 . S
C445 O451 1.268 . S
C445 O459 1.268 . S
C446 O452 1.268 . S
C446 O461 1.268 . S
C447 O453 1.268 . S
C447 O457 1.268 . S
C448 O454 1.268 . S
C448 O456 1.268 . S
C449 O455 1.268 . S
C449 O458 1.268 . S
O450 Sc440 2.105 . S
O450 C444 1.268 . S
O451 Sc441 2.105 . S
O451 C445 1.268 . S
O452 Sc442 2.105 . S
O452 C446 1.268 . S
O453 Sc440 2.105 . S
O453 C447 1.268 . S
O454 Sc442 2.105 . S
O454 C448 1.268 . S
O455 Sc441 2.105 . S
O455 C449 1.268 . S
O456 Sc440 2.105 . S
O456 C448 1.268 . S
O457 Sc441 2.105 . S
O457 C447 1.268 . S
O458 Sc442 2.105 . S
O458 C449 1.268 . S
O459 Sc440 2.105 . S
O459 C445 1.268 . S
O460 Sc442 2.105 . S
O460 C444 1.268 . S
O461 Sc441 2.105 . S
O461 C446 1.268 . S
Sc462 O465 2.025 . S
Sc462 O472 2.105 . S
Sc462 O475 2.105 . S
Sc462 O478 2.105 . S
Sc462 O481 2.105 . S
Sc463 O465 2.025 . S
Sc463 O473 2.105 . S
Sc463 O477 2.105 . S
Sc463 O479 2.105 . S
Sc463 O483 2.105 . S
Sc464 O465 2.025 . S
Sc464 O474 2.105 . S
Sc464 O476 2.105 . S
Sc464 O480 2.105 . S
Sc464 O482 2.105 . S
O465 Sc462 2.025 . S
O465 Sc463 2.025 . S
O465 Sc464 2.025 . S
C466 O472 1.268 . S
C466 O482 1.268 . S
C467 O473 1.268 . S
C467 O481 1.268 . S
C468 O474 1.268 . S
C468 O483 1.268 . S
C469 O475 1.268 . S
C469 O479 1.268 . S
C470 O476 1.268 . S
C470 O478 1.268 . S
C471 O477 1.268 . S
C471 O480 1.268 . S
O472 Sc462 2.105 . S
O472 C466 1.268 . S
O473 Sc463 2.105 . S
O473 C467 1.268 . S
O474 Sc464 2.105 . S
O474 C468 1.268 . S
O475 Sc462 2.105 . S
O475 C469 1.268 . S
O476 Sc464 2.105 . S
O476 C470 1.268 . S
O477 Sc463 2.105 . S
O477 C471 1.268 . S
O478 Sc462 2.105 . S
O478 C470 1.268 . S
O479 Sc463 2.105 . S
O479 C469 1.268 . S
O480 Sc464 2.105 . S
O480 C471 1.268 . S
O481 Sc462 2.105 . S
O481 C467 1.268 . S
O482 Sc464 2.105 . S
O482 C466 1.268 . S
O483 Sc463 2.105 . S
O483 C468 1.268 . S
Sc484 O487 2.026 . S
Sc484 O494 2.106 . S
Sc484 O497 2.104 1_655 S
Sc484 O500 2.105 1_655 S
Sc484 O503 2.105 . S
Sc485 O487 2.025 1_455 S
Sc485 O495 2.105 . S
Sc485 O499 2.105 . S
Sc485 O501 2.105 . S
Sc485 O505 2.105 1_455 S
Sc486 O487 2.025 . S
Sc486 O496 2.105 . S
Sc486 O498 2.105 . S
Sc486 O502 2.105 . S
Sc486 O504 2.105 . S
O487 Sc484 2.026 . S
O487 Sc485 2.025 1_655 S
O487 Sc486 2.025 . S
C488 O494 1.268 . S
C488 O504 1.268 . S
C489 O495 1.268 1_655 S
C489 O503 1.268 . S
C490 O496 1.268 . S
C490 O505 1.268 . S
C491 O497 1.268 . S
C491 O501 1.268 . S
C492 O498 1.268 . S
C492 O500 1.268 1_655 S
C493 O499 1.268 . S
C493 O502 1.268 1_455 S
O494 Sc484 2.106 . S
O494 C488 1.268 . S
O495 Sc485 2.105 . S
O495 C489 1.268 1_455 S
O496 Sc486 2.105 . S
O496 C490 1.268 . S
O497 Sc484 2.104 1_455 S
O497 C491 1.268 . S
O498 Sc486 2.105 . S
O498 C492 1.268 . S
O499 Sc485 2.105 . S
O499 C493 1.268 . S
O500 Sc484 2.105 1_455 S
O500 C492 1.268 1_455 S
O501 Sc485 2.105 . S
O501 C491 1.268 . S
O502 Sc486 2.105 . S
O502 C493 1.268 1_655 S
O503 Sc484 2.105 . S
O503 C489 1.268 . S
O504 Sc486 2.105 . S
O504 C488 1.268 . S
O505 Sc485 2.105 1_655 S
O505 C490 1.268 . S
Sc506 O509 2.025 . S
Sc506 O516 2.105 . S
Sc506 O519 2.105 . S
Sc506 O522 2.105 . S
Sc506 O525 2.105 . S
Sc507 O509 2.025 1_655 S
Sc507 O517 2.105 . S
Sc507 O521 2.105 . S
Sc507 O523 2.105 1_655 S
Sc507 O527 2.105 . S
Sc508 O509 2.026 1_655 S
Sc508 O518 2.102 . S
Sc508 O520 2.107 1_655 S
Sc508 O524 2.110 1_655 S
Sc508 O526 2.105 . S
O509 Sc506 2.025 . S
O509 Sc507 2.025 1_455 S
O509 Sc508 2.026 1_455 S
C510 O516 1.268 . S
C510 O526 1.268 1_455 S
C511 O517 1.268 . S
C511 O525 1.268 1_655 S
C512 O518 1.268 . S
C512 O527 1.268 . S
C513 O519 1.268 . S
C513 O523 1.268 . S
C514 O520 1.268 . S
C514 O522 1.268 . S
C515 O521 1.268 1_455 S
C515 O524 1.268 . S
O516 Sc506 2.105 . S
O516 C510 1.268 . S
O517 Sc507 2.105 . S
O517 C511 1.268 . S
O518 Sc508 2.102 . S
O518 C512 1.268 . S
O519 Sc506 2.105 . S
O519 C513 1.268 . S
O520 Sc508 2.107 1_455 S
O520 C514 1.268 . S
O521 Sc507 2.105 . S
O521 C515 1.268 1_655 S
O522 Sc506 2.105 . S
O522 C514 1.268 . S
O523 Sc507 2.105 1_455 S
O523 C513 1.268 . S
O524 Sc508 2.110 1_455 S
O524 C515 1.268 . S
O525 Sc506 2.105 . S
O525 C511 1.268 1_455 S
O526 Sc508 2.105 . S
O526 C510 1.268 1_655 S
O527 Sc507 2.105 . S
O527 C512 1.268 . S
Sc528 O531 2.025 . S
Sc528 O538 2.105 . S
Sc528 O541 2.105 . S
Sc528 O544 2.105 . S
Sc528 O547 2.105 . S
Sc529 O531 2.025 . S
Sc529 O539 2.105 . S
Sc529 O543 2.105 . S
Sc529 O545 2.105 . S
Sc529 O549 2.105 . S
Sc530 O531 2.025 . S
Sc530 O540 2.105 . S
Sc530 O542 2.105 . S
Sc530 O546 2.105 . S
Sc530 O548 2.105 . S
O531 Sc528 2.025 . S
O531 Sc529 2.025 . S
O531 Sc530 2.025 . S
C532 O538 1.268 . S
C532 O548 1.268 . S
C533 O539 1.268 . S
C533 O547 1.268 . S
C534 O540 1.268 . S
C534 O549 1.268 . S
C535 O541 1.268 . S
C535 O545 1.268 . S
C536 O542 1.268 . S
C536 O544 1.268 . S
C537 O543 1.268 . S
C537 O546 1.268 . S
O538 Sc528 2.105 . S
O538 C532 1.268 . S
O539 Sc529 2.105 . S
O539 C533 1.268 . S
O540 Sc530 2.105 . S
O540 C534 1.268 . S
O541 Sc528 2.105 . S
O541 C535 1.268 . S
O542 Sc530 2.105 . S
O542 C536 1.268 . S
O543 Sc529 2.105 . S
O543 C537 1.268 . S
O544 Sc528 2.105 . S
O544 C536 1.268 . S
O545 Sc529 2.105 . S
O545 C535 1.268 . S
O546 Sc530 2.105 . S
O546 C537 1.268 . S
O547 Sc528 2.105 . S
O547 C533 1.268 . S
O548 Sc530 2.105 . S
O548 C532 1.268 . S
O549 Sc529 2.105 . S
O549 C534 1.268 . S
Sc550 O553 2.025 . S
Sc550 O560 2.105 . S
Sc550 O563 2.105 . S
Sc550 O566 2.105 . S
Sc550 O569 2.113 . S
Sc551 O553 2.025 . S
Sc551 O561 2.105 . S
Sc551 O565 2.105 . S
Sc551 O567 2.105 . S
Sc551 O571 2.105 . S
Sc552 O553 2.025 . S
Sc552 O562 2.105 . S
Sc552 O564 2.105 . S
Sc552 O568 2.105 . S
Sc552 O570 2.105 . S
O553 Sc550 2.025 . S
O553 Sc551 2.025 . S
O553 Sc552 2.025 . S
C554 O560 1.268 . S
C554 O570 1.268 . S
C555 O561 1.268 . S
C555 O569 1.269 . S
C556 O562 1.268 . S
C556 O571 1.268 . S
C557 O563 1.268 . S
C557 O567 1.268 . S
C558 O564 1.268 . S
C558 O566 1.268 . S
C559 O565 1.268 . S
C559 O568 1.268 . S
O560 Sc550 2.105 . S
O560 C554 1.268 . S
O561 Sc551 2.105 . S
O561 C555 1.268 . S
O562 Sc552 2.105 . S
O562 C556 1.268 . S
O563 Sc550 2.105 . S
O563 C557 1.268 . S
O564 Sc552 2.105 . S
O564 C558 1.268 . S
O565 Sc551 2.105 . S
O565 C559 1.268 . S
O566 Sc550 2.105 . S
O566 C558 1.268 . S
O567 Sc551 2.105 . S
O567 C557 1.268 . S
O568 Sc552 2.105 . S
O568 C559 1.268 . S
O569 Sc550 2.113 . S
O569 C555 1.269 . S
O570 Sc552 2.105 . S
O570 C554 1.268 . S
O571 Sc551 2.105 . S
O571 C556 1.268 . S
Sc572 O575 2.025 . S
Sc572 O582 2.105 . S
Sc572 O585 2.105 . S
Sc572 O588 2.105 . S
Sc572 O591 2.105 . S
Sc573 O575 2.025 . S
Sc573 O583 2.105 . S
Sc573 O587 2.105 . S
Sc573 O589 2.105 . S
Sc573 O593 2.105 . S
Sc574 O575 2.025 . S
Sc574 O584 2.105 . S
Sc574 O586 2.105 . S
Sc574 O590 2.105 . S
Sc574 O592 2.105 . S
O575 Sc572 2.025 . S
O575 Sc573 2.025 . S
O575 Sc574 2.025 . S
C576 O582 1.268 . S
C576 O592 1.268 . S
C577 O583 1.268 . S
C577 O591 1.268 . S
C578 O584 1.268 . S
C578 O593 1.268 . S
C579 O585 1.268 . S
C579 O589 1.268 . S
C580 O586 1.268 . S
C580 O588 1.268 . S
C581 O587 1.268 . S
C581 O590 1.268 . S
O582 Sc572 2.105 . S
O582 C576 1.268 . S
O583 Sc573 2.105 . S
O583 C577 1.268 . S
O584 Sc574 2.105 . S
O584 C578 1.268 . S
O585 Sc572 2.105 . S
O585 C579 1.268 . S
O586 Sc574 2.105 . S
O586 C580 1.268 . S
O587 Sc573 2.105 . S
O587 C581 1.268 . S
O588 Sc572 2.105 . S
O588 C580 1.268 . S
O589 Sc573 2.105 . S
O589 C579 1.268 . S
O590 Sc574 2.105 . S
O590 C581 1.268 . S
O591 Sc572 2.105 . S
O591 C577 1.268 . S
O592 Sc574 2.105 . S
O592 C576 1.268 . S
O593 Sc573 2.105 . S
O593 C578 1.268 . S
Sc594 O597 2.025 . S
Sc594 O604 2.105 . S
Sc594 O607 2.105 . S
Sc594 O610 2.105 . S
Sc594 O613 2.110 . S
Sc595 O597 2.025 . S
Sc595 O605 2.105 . S
Sc595 O609 2.105 . S
Sc595 O611 2.105 . S
Sc595 O615 2.105 . S
Sc596 O597 2.025 . S
Sc596 O606 2.105 . S
Sc596 O608 2.105 . S
Sc596 O612 2.105 . S
Sc596 O614 2.105 . S
O597 Sc594 2.025 . S
O597 Sc595 2.025 . S
O597 Sc596 2.025 . S
C598 O604 1.268 . S
C598 O614 1.268 . S
C599 O605 1.268 . S
C599 O613 1.268 . S
C600 O606 1.268 . S
C600 O615 1.268 . S
C601 O607 1.268 . S
C601 O611 1.268 . S
C602 O608 1.268 . S
C602 O610 1.268 . S
C603 O609 1.268 . S
C603 O612 1.268 . S
O604 Sc594 2.105 . S
O604 C598 1.268 . S
O605 Sc595 2.105 . S
O605 C599 1.268 . S
O606 Sc596 2.105 . S
O606 C600 1.268 . S
O607 Sc594 2.105 . S
O607 C601 1.268 . S
O608 Sc596 2.105 . S
O608 C602 1.268 . S
O609 Sc595 2.105 . S
O609 C603 1.268 . S
O610 Sc594 2.105 . S
O610 C602 1.268 . S
O611 Sc595 2.105 . S
O611 C601 1.268 . S
O612 Sc596 2.105 . S
O612 C603 1.268 . S
O613 Sc594 2.110 . S
O613 C599 1.268 . S
O614 Sc596 2.105 . S
O614 C598 1.268 . S
O615 Sc595 2.105 . S
O615 C600 1.268 . S
Sc616 O619 2.025 . S
Sc616 O626 2.105 . S
Sc616 O629 2.105 . S
Sc616 O632 2.105 . S
Sc616 O635 2.105 . S
Sc617 O619 2.025 . S
Sc617 O627 2.105 . S
Sc617 O631 2.105 . S
Sc617 O633 2.105 . S
Sc617 O637 2.105 . S
Sc618 O619 2.025 . S
Sc618 O628 2.105 . S
Sc618 O630 2.105 . S
Sc618 O634 2.105 . S
Sc618 O636 2.105 . S
O619 Sc616 2.025 . S
O619 Sc617 2.025 . S
O619 Sc618 2.025 . S
C620 O626 1.268 . S
C620 O636 1.268 . S
C621 O627 1.268 . S
C621 O635 1.268 . S
C622 O628 1.268 . S
C622 O637 1.268 . S
C623 O629 1.268 . S
C623 O633 1.268 . S
C624 O630 1.268 . S
C624 O632 1.268 . S
C625 O631 1.268 . S
C625 O634 1.268 . S
O626 Sc616 2.105 . S
O626 C620 1.268 . S
O627 Sc617 2.105 . S
O627 C621 1.268 . S
O628 Sc618 2.105 . S
O628 C622 1.268 . S
O629 Sc616 2.105 . S
O629 C623 1.268 . S
O630 Sc618 2.105 . S
O630 C624 1.268 . S
O631 Sc617 2.105 . S
O631 C625 1.268 . S
O632 Sc616 2.105 . S
O632 C624 1.268 . S
O633 Sc617 2.105 . S
O633 C623 1.268 . S
O634 Sc618 2.105 . S
O634 C625 1.268 . S
O635 Sc616 2.105 . S
O635 C621 1.268 . S
O636 Sc618 2.105 . S
O636 C620 1.268 . S
O637 Sc617 2.105 . S
O637 C622 1.268 . S
Sc638 O641 2.025 . S
Sc638 O648 2.105 . S
Sc638 O651 2.105 . S
Sc638 O654 2.105 . S
Sc638 O657 2.105 . S
Sc639 O641 2.025 . S
Sc639 O649 2.105 . S
Sc639 O653 2.105 . S
Sc639 O655 2.105 . S
Sc639 O659 2.105 . S
Sc640 O641 2.025 . S
Sc640 O650 2.105 . S
Sc640 O652 2.105 . S
Sc640 O656 2.105 . S
Sc640 O658 2.105 . S
O641 Sc638 2.025 . S
O641 Sc639 2.025 . S
O641 Sc640 2.025 . S
C642 O648 1.268 . S
C642 O658 1.268 . S
C643 O649 1.268 . S
C643 O657 1.268 . S
C644 O650 1.268 . S
C644 O659 1.268 . S
C645 O651 1.268 . S
C645 O655 1.268 . S
C646 O652 1.268 . S
C646 O654 1.268 . S
C647 O653 1.268 . S
C647 O656 1.268 . S
O648 Sc638 2.105 . S
O648 C642 1.268 . S
O649 Sc639 2.105 . S
O649 C643 1.268 . S
O650 Sc640 2.105 . S
O650 C644 1.268 . S
O651 Sc638 2.105 . S
O651 C645 1.268 . S
O652 Sc640 2.105 . S
O652 C646 1.268 . S
O653 Sc639 2.105 . S
O653 C647 1.268 . S
O654 Sc638 2.105 . S
O654 C646 1.268 . S
O655 Sc639 2.105 . S
O655 C645 1.268 . S
O656 Sc640 2.105 . S
O656 C647 1.268 . S
O657 Sc638 2.105 . S
O657 C643 1.268 . S
O658 Sc640 2.105 . S
O658 C642 1.268 . S
O659 Sc639 2.105 . S
O659 C644 1.268 . S
Sc660 O663 2.025 . S
Sc660 O670 2.105 . S
Sc660 O673 2.105 . S
Sc660 O676 2.105 . S
Sc660 O679 2.105 . S
Sc661 O663 2.025 . S
Sc661 O671 2.105 . S
Sc661 O675 2.105 . S
Sc661 O677 2.105 . S
Sc661 O681 2.105 . S
Sc662 O663 2.025 . S
Sc662 O672 2.105 . S
Sc662 O674 2.105 . S
Sc662 O678 2.105 . S
Sc662 O680 2.105 . S
O663 Sc660 2.025 . S
O663 Sc661 2.025 . S
O663 Sc662 2.025 . S
C664 O670 1.268 . S
C664 O680 1.268 . S
C665 O671 1.268 . S
C665 O679 1.268 . S
C666 O672 1.268 . S
C666 O681 1.268 . S
C667 O673 1.268 . S
C667 O677 1.268 . S
C668 O674 1.268 . S
C668 O676 1.268 . S
C669 O675 1.268 . S
C669 O678 1.268 . S
O670 Sc660 2.105 . S
O670 C664 1.268 . S
O671 Sc661 2.105 . S
O671 C665 1.268 . S
O672 Sc662 2.105 . S
O672 C666 1.268 . S
O673 Sc660 2.105 . S
O673 C667 1.268 . S
O674 Sc662 2.105 . S
O674 C668 1.268 . S
O675 Sc661 2.105 . S
O675 C669 1.268 . S
O676 Sc660 2.105 . S
O676 C668 1.268 . S
O677 Sc661 2.105 . S
O677 C667 1.268 . S
O678 Sc662 2.105 . S
O678 C669 1.268 . S
O679 Sc660 2.105 . S
O679 C665 1.268 . S
O680 Sc662 2.105 . S
O680 C664 1.268 . S
O681 Sc661 2.105 . S
O681 C666 1.268 . S
Sc682 O685 2.025 . S
Sc682 O692 2.105 . S
Sc682 O695 2.105 . S
Sc682 O698 2.105 . S
Sc682 O701 2.105 . S
Sc683 O685 2.025 . S
Sc683 O693 2.105 . S
Sc683 O697 2.105 . S
Sc683 O699 2.105 . S
Sc683 O703 2.105 . S
Sc684 O685 2.025 . S
Sc684 O694 2.105 . S
Sc684 O696 2.105 . S
Sc684 O700 2.105 . S
Sc684 O702 2.105 . S
O685 Sc682 2.025 . S
O685 Sc683 2.025 . S
O685 Sc684 2.025 . S
C686 O692 1.268 . S
C686 O702 1.268 . S
C687 O693 1.268 . S
C687 O701 1.268 . S
C688 O694 1.268 . S
C688 O703 1.268 . S
C689 O695 1.268 . S
C689 O699 1.268 . S
C690 O696 1.268 . S
C690 O698 1.268 . S
C691 O697 1.268 . S
C691 O700 1.268 . S
O692 Sc682 2.105 . S
O692 C686 1.268 . S
O693 Sc683 2.105 . S
O693 C687 1.268 . S
O694 Sc684 2.105 . S
O694 C688 1.268 . S
O695 Sc682 2.105 . S
O695 C689 1.268 . S
O696 Sc684 2.105 . S
O696 C690 1.268 . S
O697 Sc683 2.105 . S
O697 C691 1.268 . S
O698 Sc682 2.105 . S
O698 C690 1.268 . S
O699 Sc683 2.105 . S
O699 C689 1.268 . S
O700 Sc684 2.105 . S
O700 C691 1.268 . S
O701 Sc682 2.105 . S
O701 C687 1.268 . S
O702 Sc684 2.105 . S
O702 C686 1.268 . S
O703 Sc683 2.105 . S
O703 C688 1.268 . S
Sc704 O707 2.025 . S
Sc704 O714 2.105 . S
Sc704 O717 2.105 . S
Sc704 O720 2.105 . S
Sc704 O723 2.105 . S
Sc705 O707 2.025 . S
Sc705 O715 2.105 . S
Sc705 O719 2.105 . S
Sc705 O721 2.105 . S
Sc705 O725 2.105 . S
Sc706 O707 2.025 . S
Sc706 O716 2.105 . S
Sc706 O718 2.105 . S
Sc706 O722 2.105 . S
Sc706 O724 2.105 . S
O707 Sc704 2.025 . S
O707 Sc705 2.025 . S
O707 Sc706 2.025 . S
C708 O714 1.268 . S
C708 O724 1.268 . S
C709 O715 1.268 . S
C709 O723 1.268 . S
C710 O716 1.268 . S
C710 O725 1.268 . S
C711 O717 1.268 . S
C711 O721 1.268 . S
C712 O718 1.268 . S
C712 O720 1.268 . S
C713 O719 1.268 . S
C713 O722 1.268 . S
O714 Sc704 2.105 . S
O714 C708 1.268 . S
O715 Sc705 2.105 . S
O715 C709 1.268 . S
O716 Sc706 2.105 . S
O716 C710 1.268 . S
O717 Sc704 2.105 . S
O717 C711 1.268 . S
O718 Sc706 2.105 . S
O718 C712 1.268 . S
O719 Sc705 2.105 . S
O719 C713 1.268 . S
O720 Sc704 2.105 . S
O720 C712 1.268 . S
O721 Sc705 2.105 . S
O721 C711 1.268 . S
O722 Sc706 2.105 . S
O722 C713 1.268 . S
O723 Sc704 2.105 . S
O723 C709 1.268 . S
O724 Sc706 2.105 . S
O724 C708 1.268 . S
O725 Sc705 2.105 . S
O725 C710 1.268 . S
Sc726 O729 2.026 . S
Sc726 O736 2.106 . S
Sc726 O739 2.103 1_565 S
Sc726 O742 2.105 1_565 S
Sc726 O745 2.105 . S
Sc727 O729 2.025 1_545 S
Sc727 O737 2.105 . S
Sc727 O741 2.105 . S
Sc727 O743 2.105 . S
Sc727 O747 2.105 1_545 S
Sc728 O729 2.025 . S
Sc728 O738 2.105 . S
Sc728 O740 2.105 . S
Sc728 O744 2.105 . S
Sc728 O746 2.105 . S
O729 Sc726 2.026 . S
O729 Sc727 2.025 1_565 S
O729 Sc728 2.025 . S
C730 O736 1.268 . S
C730 O746 1.268 . S
C731 O737 1.268 1_565 S
C731 O745 1.268 . S
C732 O738 1.268 . S
C732 O747 1.268 . S
C733 O739 1.268 . S
C733 O743 1.268 . S
C734 O740 1.268 . S
C734 O742 1.268 1_565 S
C735 O741 1.268 . S
C735 O744 1.268 1_545 S
O736 Sc726 2.106 . S
O736 C730 1.268 . S
O737 Sc727 2.105 . S
O737 C731 1.268 1_545 S
O738 Sc728 2.105 . S
O738 C732 1.268 . S
O739 Sc726 2.103 1_545 S
O739 C733 1.268 . S
O740 Sc728 2.105 . S
O740 C734 1.268 . S
O741 Sc727 2.105 . S
O741 C735 1.268 . S
O742 Sc726 2.105 1_545 S
O742 C734 1.268 1_545 S
O743 Sc727 2.105 . S
O743 C733 1.268 . S
O744 Sc728 2.105 . S
O744 C735 1.268 1_565 S
O745 Sc726 2.105 . S
O745 C731 1.268 . S
O746 Sc728 2.105 . S
O746 C730 1.268 . S
O747 Sc727 2.105 1_565 S
O747 C732 1.268 . S
Sc748 O751 2.025 . S
Sc748 O758 2.105 . S
Sc748 O761 2.105 . S
Sc748 O764 2.105 . S
Sc748 O767 2.105 . S
Sc749 O751 2.025 1_545 S
Sc749 O759 2.105 . S
Sc749 O763 2.105 1_545 S
Sc749 O765 2.105 . S
Sc749 O769 2.105 . S
Sc750 O751 2.025 . S
Sc750 O760 2.105 . S
Sc750 O762 2.105 . S
Sc750 O766 2.105 . S
Sc750 O768 2.105 . S
O751 Sc748 2.025 . S
O751 Sc749 2.025 1_565 S
O751 Sc750 2.025 . S
C752 O758 1.268 . S
C752 O768 1.268 . S
C753 O759 1.268 . S
C753 O767 1.268 1_545 S
C754 O760 1.268 1_545 S
C754 O769 1.268 . S
C755 O761 1.268 . S
C755 O765 1.268 1_565 S
C756 O762 1.268 . S
C756 O764 1.268 . S
C757 O763 1.268 . S
C757 O766 1.268 . S
O758 Sc748 2.105 . S
O758 C752 1.268 . S
O759 Sc749 2.105 . S
O759 C753 1.268 . S
O760 Sc750 2.105 . S
O760 C754 1.268 1_565 S
O761 Sc748 2.105 . S
O761 C755 1.268 . S
O762 Sc750 2.105 . S
O762 C756 1.268 . S
O763 Sc749 2.105 1_565 S
O763 C757 1.268 . S
O764 Sc748 2.105 . S
O764 C756 1.268 . S
O765 Sc749 2.105 . S
O765 C755 1.268 1_545 S
O766 Sc750 2.105 . S
O766 C757 1.268 . S
O767 Sc748 2.105 . S
O767 C753 1.268 1_565 S
O768 Sc750 2.105 . S
O768 C752 1.268 . S
O769 Sc749 2.105 . S
O769 C754 1.268 . S
Sc770 O773 2.025 . S
Sc770 O780 2.105 . S
Sc770 O783 2.105 . S
Sc770 O786 2.105 . S
Sc770 O789 2.105 . S
Sc771 O773 2.025 . S
Sc771 O781 2.105 . S
Sc771 O785 2.105 . S
Sc771 O787 2.105 . S
Sc771 O791 2.105 . S
Sc772 O773 2.025 . S
Sc772 O782 2.105 . S
Sc772 O784 2.105 . S
Sc772 O788 2.105 . S
Sc772 O790 2.105 . S
O773 Sc770 2.025 . S
O773 Sc771 2.025 . S
O773 Sc772 2.025 . S
C774 O780 1.268 . S
C774 O790 1.268 . S
C775 O781 1.268 . S
C775 O789 1.268 . S
C776 O782 1.268 . S
C776 O791 1.268 . S
C777 O783 1.268 . S
C777 O787 1.268 . S
C778 O784 1.268 . S
C778 O786 1.268 . S
C779 O785 1.268 . S
C779 O788 1.268 . S
O780 Sc770 2.105 . S
O780 C774 1.268 . S
O781 Sc771 2.105 . S
O781 C775 1.268 . S
O782 Sc772 2.105 . S
O782 C776 1.268 . S
O783 Sc770 2.105 . S
O783 C777 1.268 . S
O784 Sc772 2.105 . S
O784 C778 1.268 . S
O785 Sc771 2.105 . S
O785 C779 1.268 . S
O786 Sc770 2.105 . S
O786 C778 1.268 . S
O787 Sc771 2.105 . S
O787 C777 1.268 . S
O788 Sc772 2.105 . S
O788 C779 1.268 . S
O789 Sc770 2.105 . S
O789 C775 1.268 . S
O790 Sc772 2.105 . S
O790 C774 1.268 . S
O791 Sc771 2.105 . S
O791 C776 1.268 . S
Sc792 O795 2.025 . S
Sc792 O802 2.105 . S
Sc792 O805 2.105 . S
Sc792 O808 2.105 . S
Sc792 O811 2.105 . S
Sc793 O795 2.025 . S
Sc793 O803 2.105 . S
Sc793 O807 2.105 . S
Sc793 O809 2.105 . S
Sc793 O813 2.105 . S
Sc794 O795 2.025 . S
Sc794 O804 2.105 . S
Sc794 O806 2.105 . S
Sc794 O810 2.105 . S
Sc794 O812 2.105 . S
O795 Sc792 2.025 . S
O795 Sc793 2.025 . S
O795 Sc794 2.025 . S
C796 O802 1.268 . S
C796 O812 1.268 . S
C797 O803 1.268 . S
C797 O811 1.268 . S
C798 O804 1.268 . S
C798 O813 1.268 . S
C799 O805 1.268 . S
C799 O809 1.268 . S
C800 O806 1.268 . S
C800 O808 1.268 . S
C801 O807 1.268 . S
C801 O810 1.268 . S
O802 Sc792 2.105 . S
O802 C796 1.268 . S
O803 Sc793 2.105 . S
O803 C797 1.268 . S
O804 Sc794 2.105 . S
O804 C798 1.268 . S
O805 Sc792 2.105 . S
O805 C799 1.268 . S
O806 Sc794 2.105 . S
O806 C800 1.268 . S
O807 Sc793 2.105 . S
O807 C801 1.268 . S
O808 Sc792 2.105 . S
O808 C800 1.268 . S
O809 Sc793 2.105 . S
O809 C799 1.268 . S
O810 Sc794 2.105 . S
O810 C801 1.268 . S
O811 Sc792 2.105 . S
O811 C797 1.268 . S
O812 Sc794 2.105 . S
O812 C796 1.268 . S
O813 Sc793 2.105 . S
O813 C798 1.268 . S
Sc814 O817 2.025 . S
Sc814 O824 2.105 . S
Sc814 O827 2.105 . S
Sc814 O830 2.105 . S
Sc814 O833 2.105 . S
Sc815 O817 2.025 1_545 S
Sc815 O825 2.105 . S
Sc815 O829 2.105 . S
Sc815 O831 2.105 1_545 S
Sc815 O835 2.105 . S
Sc816 O817 2.026 . S
Sc816 O826 2.104 1_565 S
Sc816 O828 2.106 . S
Sc816 O832 2.105 . S
Sc816 O834 2.105 1_565 S
O817 Sc814 2.025 . S
O817 Sc815 2.025 1_565 S
O817 Sc816 2.026 . S
C818 O824 1.268 . S
C818 O834 1.268 1_565 S
C819 O825 1.268 . S
C819 O833 1.268 1_545 S
C820 O826 1.268 . S
C820 O835 1.268 . S
C821 O827 1.268 . S
C821 O831 1.268 . S
C822 O828 1.268 . S
C822 O830 1.268 . S
C823 O829 1.268 1_565 S
C823 O832 1.268 . S
O824 Sc814 2.105 . S
O824 C818 1.268 . S
O825 Sc815 2.105 . S
O825 C819 1.268 . S
O826 Sc816 2.104 1_545 S
O826 C820 1.268 . S
O827 Sc814 2.105 . S
O827 C821 1.268 . S
O828 Sc816 2.106 . S
O828 C822 1.268 . S
O829 Sc815 2.105 . S
O829 C823 1.268 1_545 S
O830 Sc814 2.105 . S
O830 C822 1.268 . S
O831 Sc815 2.105 1_565 S
O831 C821 1.268 . S
O832 Sc816 2.105 . S
O832 C823 1.268 . S
O833 Sc814 2.105 . S
O833 C819 1.268 1_565 S
O834 Sc816 2.105 1_545 S
O834 C818 1.268 1_545 S
O835 Sc815 2.105 . S
O835 C820 1.268 . S
Sc836 O839 2.025 . S
Sc836 O846 2.105 . S
Sc836 O849 2.105 . S
Sc836 O852 2.105 . S
Sc836 O855 2.105 . S
Sc837 O839 2.025 1_565 S
Sc837 O847 2.105 1_565 S
Sc837 O851 2.105 . S
Sc837 O853 2.105 . S
Sc837 O857 2.105 . S
Sc838 O839 2.025 . S
Sc838 O848 2.105 . S
Sc838 O850 2.105 . S
Sc838 O854 2.105 . S
Sc838 O856 2.105 . S
O839 Sc836 2.025 . S
O839 Sc837 2.025 1_545 S
O839 Sc838 2.025 . S
C840 O846 1.268 . S
C840 O856 1.268 . S
C841 O847 1.268 . S
C841 O855 1.268 . S
C842 O848 1.268 . S
C842 O857 1.268 1_545 S
C843 O849 1.268 1_565 S
C843 O853 1.268 . S
C844 O850 1.268 . S
C844 O852 1.268 . S
C845 O851 1.268 . S
C845 O854 1.268 1_565 S
O846 Sc836 2.105 . S
O846 C840 1.268 . S
O847 Sc837 2.105 1_545 S
O847 C841 1.268 . S
O848 Sc838 2.105 . S
O848 C842 1.268 . S
O849 Sc836 2.105 . S
O849 C843 1.268 1_545 S
O850 Sc838 2.105 . S
O850 C844 1.268 . S
O851 Sc837 2.105 . S
O851 C845 1.268 . S
O852 Sc836 2.105 . S
O852 C844 1.268 . S
O853 Sc837 2.105 . S
O853 C843 1.268 . S
O854 Sc838 2.105 . S
O854 C845 1.268 1_545 S
O855 Sc836 2.105 . S
O855 C841 1.268 . S
O856 Sc838 2.105 . S
O856 C840 1.268 . S
O857 Sc837 2.105 . S
O857 C842 1.268 1_565 S
Sc858 O861 2.025 . S
Sc858 O868 2.105 . S
Sc858 O871 2.105 . S
Sc858 O874 2.105 . S
Sc858 O877 2.105 . S
Sc859 O861 2.025 . S
Sc859 O869 2.105 . S
Sc859 O873 2.105 . S
Sc859 O875 2.105 . S
Sc859 O879 2.105 . S
Sc860 O861 2.025 . S
Sc860 O870 2.105 . S
Sc860 O872 2.105 . S
Sc860 O876 2.105 . S
Sc860 O878 2.105 . S
O861 Sc858 2.025 . S
O861 Sc859 2.025 . S
O861 Sc860 2.025 . S
C862 O868 1.268 . S
C862 O878 1.268 . S
C863 O869 1.268 . S
C863 O877 1.268 . S
C864 O870 1.268 . S
C864 O879 1.268 . S
C865 O871 1.268 . S
C865 O875 1.268 . S
C866 O872 1.268 . S
C866 O874 1.268 . S
C867 O873 1.268 . S
C867 O876 1.268 . S
O868 Sc858 2.105 . S
O868 C862 1.268 . S
O869 Sc859 2.105 . S
O869 C863 1.268 . S
O870 Sc860 2.105 . S
O870 C864 1.268 . S
O871 Sc858 2.105 . S
O871 C865 1.268 . S
O872 Sc860 2.105 . S
O872 C866 1.268 . S
O873 Sc859 2.105 . S
O873 C867 1.268 . S
O874 Sc858 2.105 . S
O874 C866 1.268 . S
O875 Sc859 2.105 . S
O875 C865 1.268 . S
O876 Sc860 2.105 . S
O876 C867 1.268 . S
O877 Sc858 2.105 . S
O877 C863 1.268 . S
O878 Sc860 2.105 . S
O878 C862 1.268 . S
O879 Sc859 2.105 . S
O879 C864 1.268 . S
Sc880 O883 2.025 . S
Sc880 O890 2.105 . S
Sc880 O893 2.105 . S
Sc880 O896 2.105 . S
Sc880 O899 2.105 . S
Sc881 O883 2.025 . S
Sc881 O891 2.105 . S
Sc881 O895 2.105 . S
Sc881 O897 2.105 . S
Sc881 O901 2.105 . S
Sc882 O883 2.025 . S
Sc882 O892 2.105 . S
Sc882 O894 2.105 . S
Sc882 O898 2.105 . S
Sc882 O900 2.105 . S
O883 Sc880 2.025 . S
O883 Sc881 2.025 . S
O883 Sc882 2.025 . S
C884 O890 1.268 . S
C884 O900 1.268 . S
C885 O891 1.268 . S
C885 O899 1.268 . S
C886 O892 1.268 . S
C886 O901 1.268 . S
C887 O893 1.268 . S
C887 O897 1.268 . S
C888 O894 1.268 . S
C888 O896 1.268 . S
C889 O895 1.268 . S
C889 O898 1.268 . S
O890 Sc880 2.105 . S
O890 C884 1.268 . S
O891 Sc881 2.105 . S
O891 C885 1.268 . S
O892 Sc882 2.105 . S
O892 C886 1.268 . S
O893 Sc880 2.105 . S
O893 C887 1.268 . S
O894 Sc882 2.105 . S
O894 C888 1.268 . S
O895 Sc881 2.105 . S
O895 C889 1.268 . S
O896 Sc880 2.105 . S
O896 C888 1.268 . S
O897 Sc881 2.105 . S
O897 C887 1.268 . S
O898 Sc882 2.105 . S
O898 C889 1.268 . S
O899 Sc880 2.105 . S
O899 C885 1.268 . S
O900 Sc882 2.105 . S
O900 C884 1.268 . S
O901 Sc881 2.105 . S
O901 C886 1.268 . S
Sc902 O905 2.025 . S
Sc902 O912 2.105 . S
Sc902 O915 2.105 . S
Sc902 O918 2.105 . S
Sc902 O921 2.105 . S
Sc903 O905 2.025 1_554 S
Sc903 O913 2.105 1_554 S
Sc903 O917 2.105 . S
Sc903 O919 2.105 . S
Sc903 O923 2.105 . S
Sc904 O905 2.025 . S
Sc904 O914 2.105 . S
Sc904 O916 2.105 . S
Sc904 O920 2.105 . S
Sc904 O922 2.105 . S
O905 Sc902 2.025 . S
O905 Sc903 2.025 1_556 S
O905 Sc904 2.025 . S
C906 O912 1.268 . S
C906 O922 1.268 . S
C907 O913 1.268 . S
C907 O921 1.268 . S
C908 O914 1.268 . S
C908 O923 1.268 1_556 S
C909 O915 1.268 1_554 S
C909 O919 1.268 . S
C910 O916 1.268 . S
C910 O918 1.268 . S
C911 O917 1.268 . S
C911 O920 1.268 1_554 S
O912 Sc902 2.105 . S
O912 C906 1.268 . S
O913 Sc903 2.105 1_556 S
O913 C907 1.268 . S
O914 Sc904 2.105 . S
O914 C908 1.268 . S
O915 Sc902 2.105 . S
O915 C909 1.268 1_556 S
O916 Sc904 2.105 . S
O916 C910 1.268 . S
O917 Sc903 2.105 . S
O917 C911 1.268 . S
O918 Sc902 2.105 . S
O918 C910 1.268 . S
O919 Sc903 2.105 . S
O919 C909 1.268 . S
O920 Sc904 2.105 . S
O920 C911 1.268 1_556 S
O921 Sc902 2.105 . S
O921 C907 1.268 . S
O922 Sc904 2.105 . S
O922 C906 1.268 . S
O923 Sc903 2.105 . S
O923 C908 1.268 1_554 S
Sc924 O927 2.025 . S
Sc924 O934 2.105 . S
Sc924 O937 2.105 . S
Sc924 O940 2.105 . S
Sc924 O943 2.105 . S
Sc925 O927 2.025 . S
Sc925 O935 2.105 . S
Sc925 O939 2.105 . S
Sc925 O941 2.105 . S
Sc925 O945 2.105 . S
Sc926 O927 2.025 . S
Sc926 O936 2.105 . S
Sc926 O938 2.105 . S
Sc926 O942 2.110 . S
Sc926 O944 2.105 . S
O927 Sc924 2.025 . S
O927 Sc925 2.025 . S
O927 Sc926 2.025 . S
C928 O934 1.268 . S
C928 O944 1.268 . S
C929 O935 1.268 . S
C929 O943 1.268 . S
C930 O936 1.268 . S
C930 O945 1.268 . S
C931 O937 1.268 . S
C931 O941 1.268 . S
C932 O938 1.268 . S
C932 O940 1.268 . S
C933 O939 1.268 . S
C933 O942 1.268 . S
O934 Sc924 2.105 . S
O934 C928 1.268 . S
O935 Sc925 2.105 . S
O935 C929 1.268 . S
O936 Sc926 2.105 . S
O936 C930 1.268 . S
O937 Sc924 2.105 . S
O937 C931 1.268 . S
O938 Sc926 2.105 . S
O938 C932 1.268 . S
O939 Sc925 2.105 . S
O939 C933 1.268 . S
O940 Sc924 2.105 . S
O940 C932 1.268 . S
O941 Sc925 2.105 . S
O941 C931 1.268 . S
O942 Sc926 2.110 . S
O942 C933 1.268 . S
O943 Sc924 2.105 . S
O943 C929 1.268 . S
O944 Sc926 2.105 . S
O944 C928 1.268 . S
O945 Sc925 2.105 . S
O945 C930 1.268 . S
Sc946 O949 2.025 . S
Sc946 O956 2.105 . S
Sc946 O959 2.105 . S
Sc946 O962 2.105 . S
Sc946 O965 2.105 . S
Sc947 O949 2.025 1_554 S
Sc947 O957 2.105 1_554 S
Sc947 O961 2.105 . S
Sc947 O963 2.105 . S
Sc947 O967 2.105 . S
Sc948 O949 2.025 . S
Sc948 O958 2.105 . S
Sc948 O960 2.105 . S
Sc948 O964 2.105 . S
Sc948 O966 2.105 . S
O949 Sc946 2.025 . S
O949 Sc947 2.025 1_556 S
O949 Sc948 2.025 . S
C950 O956 1.268 . S
C950 O966 1.268 . S
C951 O957 1.268 . S
C951 O965 1.268 . S
C952 O958 1.268 . S
C952 O967 1.268 1_556 S
C953 O959 1.268 1_554 S
C953 O963 1.268 . S
C954 O960 1.268 . S
C954 O962 1.268 . S
C955 O961 1.268 . S
C955 O964 1.268 1_554 S
O956 Sc946 2.105 . S
O956 C950 1.268 . S
O957 Sc947 2.105 1_556 S
O957 C951 1.268 . S
O958 Sc948 2.105 . S
O958 C952 1.268 . S
O959 Sc946 2.105 . S
O959 C953 1.268 1_556 S
O960 Sc948 2.105 . S
O960 C954 1.268 . S
O961 Sc947 2.105 . S
O961 C955 1.268 . S
O962 Sc946 2.105 . S
O962 C954 1.268 . S
O963 Sc947 2.105 . S
O963 C953 1.268 . S
O964 Sc948 2.105 . S
O964 C955 1.268 1_556 S
O965 Sc946 2.105 . S
O965 C951 1.268 . S
O966 Sc948 2.105 . S
O966 C950 1.268 . S
O967 Sc947 2.105 . S
O967 C952 1.268 1_554 S
Sc968 O971 2.026 1_655 S
Sc968 O978 2.107 1_655 S
Sc968 O981 2.102 . S
Sc968 O984 2.105 . S
Sc968 O987 2.113 1_655 S
Sc969 O971 2.025 1_655 S
Sc969 O979 2.105 . S
Sc969 O983 2.105 . S
Sc969 O985 2.105 . S
Sc969 O989 2.105 1_655 S
Sc970 O971 2.025 . S
Sc970 O980 2.105 . S
Sc970 O982 2.105 . S
Sc970 O986 2.105 . S
Sc970 O988 2.105 . S
O971 Sc968 2.026 1_455 S
O971 Sc969 2.025 1_455 S
O971 Sc970 2.025 . S
C972 O978 1.268 . S
C972 O988 1.268 . S
C973 O979 1.268 1_455 S
C973 O987 1.269 . S
C974 O980 1.268 . S
C974 O989 1.268 . S
C975 O981 1.268 . S
C975 O985 1.268 . S
C976 O982 1.268 . S
C976 O984 1.268 1_455 S
C977 O983 1.268 . S
C977 O986 1.268 1_655 S
O978 Sc968 2.107 1_455 S
O978 C972 1.268 . S
O979 Sc969 2.105 . S
O979 C973 1.268 1_655 S
O980 Sc970 2.105 . S
O980 C974 1.268 . S
O981 Sc968 2.102 . S
O981 C975 1.268 . S
O982 Sc970 2.105 . S
O982 C976 1.268 . S
O983 Sc969 2.105 . S
O983 C977 1.268 . S
O984 Sc968 2.105 . S
O984 C976 1.268 1_655 S
O985 Sc969 2.105 . S
O985 C975 1.268 . S
O986 Sc970 2.105 . S
O986 C977 1.268 1_455 S
O987 Sc968 2.113 1_455 S
O987 C973 1.269 . S
O988 Sc970 2.105 . S
O988 C972 1.268 . S
O989 Sc969 2.105 1_455 S
O989 C974 1.268 . S
Sc990 O993 2.025 . S
Sc990 O1000 2.105 . S
Sc990 O1003 2.105 . S
Sc990 O1006 2.105 . S
Sc990 O1009 2.105 . S
Sc991 O993 2.025 1_556 S
Sc991 O1001 2.105 1_556 S
Sc991 O1005 2.105 . S
Sc991 O1007 2.105 . S
Sc991 O1011 2.105 . S
Sc992 O993 2.025 . S
Sc992 O1002 2.105 . S
Sc992 O1004 2.105 . S
Sc992 O1008 2.105 . S
Sc992 O1010 2.105 . S
O993 Sc990 2.025 . S
O993 Sc991 2.025 1_554 S
O993 Sc992 2.025 . S
C994 O1000 1.268 . S
C994 O1010 1.268 . S
C995 O1001 1.268 . S
C995 O1009 1.268 . S
C996 O1002 1.268 . S
C996 O1011 1.268 1_554 S
C997 O1003 1.268 1_556 S
C997 O1007 1.268 . S
C998 O1004 1.268 . S
C998 O1006 1.268 . S
C999 O1005 1.268 . S
C999 O1008 1.268 1_556 S
O1000 Sc990 2.105 . S
O1000 C994 1.268 . S
O1001 Sc991 2.105 1_554 S
O1001 C995 1.268 . S
O1002 Sc992 2.105 . S
O1002 C996 1.268 . S
O1003 Sc990 2.105 . S
O1003 C997 1.268 1_554 S
O1004 Sc992 2.105 . S
O1004 C998 1.268 . S
O1005 Sc991 2.105 . S
O1005 C999 1.268 . S
O1006 Sc990 2.105 . S
O1006 C998 1.268 . S
O1007 Sc991 2.105 . S
O1007 C997 1.268 . S
O1008 Sc992 2.105 . S
O1008 C999 1.268 1_554 S
O1009 Sc990 2.105 . S
O1009 C995 1.268 . S
O1010 Sc992 2.105 . S
O1010 C994 1.268 . S
O1011 Sc991 2.105 . S
O1011 C996 1.268 1_556 S
Sc1012 O1015 2.025 . S
Sc1012 O1022 2.105 . S
Sc1012 O1025 2.105 . S
Sc1012 O1028 2.105 . S
Sc1012 O1031 2.113 . S
Sc1013 O1015 2.025 . S
Sc1013 O1023 2.105 . S
Sc1013 O1027 2.105 . S
Sc1013 O1029 2.105 . S
Sc1013 O1033 2.105 . S
Sc1014 O1015 2.025 . S
Sc1014 O1024 2.105 . S
Sc1014 O1026 2.105 . S
Sc1014 O1030 2.105 . S
Sc1014 O1032 2.105 . S
O1015 Sc1012 2.025 . S
O1015 Sc1013 2.025 . S
O1015 Sc1014 2.025 . S
C1016 O1022 1.268 . S
C1016 O1032 1.268 . S
C1017 O1023 1.268 . S
C1017 O1031 1.269 . S
C1018 O1024 1.268 . S
C1018 O1033 1.268 . S
C1019 O1025 1.268 . S
C1019 O1029 1.268 . S
C1020 O1026 1.268 . S
C1020 O1028 1.268 . S
C1021 O1027 1.268 . S
C1021 O1030 1.268 . S
O1022 Sc1012 2.105 . S
O1022 C1016 1.268 . S
O1023 Sc1013 2.105 . S
O1023 C1017 1.268 . S
O1024 Sc1014 2.105 . S
O1024 C1018 1.268 . S
O1025 Sc1012 2.105 . S
O1025 C1019 1.268 . S
O1026 Sc1014 2.105 . S
O1026 C1020 1.268 . S
O1027 Sc1013 2.105 . S
O1027 C1021 1.268 . S
O1028 Sc1012 2.105 . S
O1028 C1020 1.268 . S
O1029 Sc1013 2.105 . S
O1029 C1019 1.268 . S
O1030 Sc1014 2.105 . S
O1030 C1021 1.268 . S
O1031 Sc1012 2.113 . S
O1031 C1017 1.269 . S
O1032 Sc1014 2.105 . S
O1032 C1016 1.268 . S
O1033 Sc1013 2.105 . S
O1033 C1018 1.268 . S
Sc1034 O1037 2.025 . S
Sc1034 O1044 2.105 . S
Sc1034 O1047 2.105 . S
Sc1034 O1050 2.105 . S
Sc1034 O1053 2.105 . S
Sc1035 O1037 2.025 . S
Sc1035 O1045 2.105 . S
Sc1035 O1049 2.105 . S
Sc1035 O1051 2.105 . S
Sc1035 O1055 2.105 . S
Sc1036 O1037 2.025 . S
Sc1036 O1046 2.105 . S
Sc1036 O1048 2.105 . S
Sc1036 O1052 2.105 . S
Sc1036 O1054 2.105 . S
O1037 Sc1034 2.025 . S
O1037 Sc1035 2.025 . S
O1037 Sc1036 2.025 . S
C1038 O1044 1.268 . S
C1038 O1054 1.268 . S
C1039 O1045 1.268 . S
C1039 O1053 1.268 . S
C1040 O1046 1.268 . S
C1040 O1055 1.268 . S
C1041 O1047 1.268 . S
C1041 O1051 1.268 . S
C1042 O1048 1.268 . S
C1042 O1050 1.268 . S
C1043 O1049 1.268 . S
C1043 O1052 1.268 . S
O1044 Sc1034 2.105 . S
O1044 C1038 1.268 . S
O1045 Sc1035 2.105 . S
O1045 C1039 1.268 . S
O1046 Sc1036 2.105 . S
O1046 C1040 1.268 . S
O1047 Sc1034 2.105 . S
O1047 C1041 1.268 . S
O1048 Sc1036 2.105 . S
O1048 C1042 1.268 . S
O1049 Sc1035 2.105 . S
O1049 C1043 1.268 . S
O1050 Sc1034 2.105 . S
O1050 C1042 1.268 . S
O1051 Sc1035 2.105 . S
O1051 C1041 1.268 . S
O1052 Sc1036 2.105 . S
O1052 C1043 1.268 . S
O1053 Sc1034 2.105 . S
O1053 C1039 1.268 . S
O1054 Sc1036 2.105 . S
O1054 C1038 1.268 . S
O1055 Sc1035 2.105 . S
O1055 C1040 1.268 . S
C7 C50 0.195 1_655 S
C27 C71 0.195 . S
C138 C95 0.195 1_455 S
C163 C115 0.195 1_655 S
C271 C183 0.195 1_545 S
C203 C295 0.195 1_554 S
C226 C315 0.195 . S
C247 C339 0.195 1_554 S
C358 C953 0.195 1_556 S
C381 C469 0.195 . S
C405 C489 0.195 . S
C425 C886 0.195 . S
C1043 C445 0.195 . S
C973 C515 0.195 1_565 S
C578 C535 0.195 . S
C555 C599 0.195 1_655 S
C623 C666 0.195 . S
C643 C691 0.195 . S
C711 C799 0.195 . S
C731 C823 0.195 . S
C754 C843 0.195 1_545 S
C775 C867 0.195 . S
C997 C909 0.195 1_556 S
C933 C1017 0.195 1_545 S
C94 C6 1.740 1_565 S
C119 C31 1.740 1_556 S
C51 C139 1.740 . S
C75 C159 1.740 1_554 S
C182 C842 1.740 1_554 S
C207 C863 1.740 . S
C227 C798 1.740 1_554 S
C251 C819 1.740 1_565 S
C755 C270 1.740 . S
C779 C291 1.740 . S
C314 C710 1.740 . S
C335 C735 1.740 1_565 S
C996 C359 1.740 1_655 S
C424 C380 1.740 1_655 S
C401 C977 1.740 1_455 S
C449 C929 1.740 . S
C468 C887 1.740 . S
C493 C511 1.740 1_455 S
C534 C622 1.740 . S
C559 C647 1.740 . S
C579 C667 1.740 1_565 S
C603 C687 1.740 . S
C952 C908 1.740 . S
C1039 C1021 1.740 . S
C5 C360 3.073 . S
C29 C1038 3.073 . S
C53 C994 3.073 . S
C73 C1020 3.072 . S
C93 C378 3.072 . S
C400 C117 3.073 1_655 S
C141 C422 3.073 . S
C976 C160 3.073 1_455 S
C181 C4 3.073 . S
C30 C205 3.072 1_556 S
C229 C52 3.073 . S
C249 C74 3.073 1_554 S
C92 C269 3.073 . S
C292 C118 3.073 1_556 S
C313 C140 3.073 . S
C336 C158 3.073 1_556 S
C180 C361 3.073 . S
C379 C268 3.073 . S
C290 C402 3.072 . S
C312 C423 3.073 . S
C447 C862 3.073 . S
C467 C756 3.073 . S
C491 C778 3.073 . S
C512 C734 3.073 1_545 S
C888 C533 3.073 . S
C557 C510 3.073 1_655 S
C581 C466 3.073 . S
C601 C492 3.072 1_455 S
C906 C621 3.073 . S
C645 C928 3.073 . S
C950 C669 3.073 . S
C448 C688 3.073 . S
C532 C709 3.073 . S
C558 C733 3.072 . S
C580 C757 3.073 . S
C602 C777 3.073 . S
C620 C797 3.073 . S
C820 C646 3.073 . S
C668 C841 3.072 . S
C864 C686 3.073 . S
C889 C708 3.073 . S
C907 C796 3.073 . S
C818 C930 3.072 1_565 S
C951 C840 3.073 . S
C334 C975 3.073 1_545 S
C995 C228 3.072 . S
C1019 C250 3.073 1_565 S
C206 C1040 3.073 . S
C8 C600 1.530 . S
C26 C537 1.529 . S
C556 C48 1.529 . S
C70 C577 1.530 . S
C116 C96 1.529 . S
C137 C114 1.529 . S
C161 C136 1.529 . S
C162 C97 1.530 . S
C931 C184 1.530 . S
C202 C955 1.530 . S
C224 C446 1.529 . S
C911 C246 1.529 . S
C272 C1018 1.529 . S
C294 C357 1.529 . S
C316 C1041 1.530 . S
C999 C338 1.530 . S
C356 C204 1.530 . S
C382 C865 1.529 . S
C801 C404 1.530 . S
C426 C821 1.529 . S
C444 C317 1.530 . S
C776 C470 1.530 . S
C488 C713 1.529 . S
C753 C514 1.529 . S
C72 C536 1.530 . S
C9 C554 1.529 . S
C28 C576 1.529 . S
C49 C598 1.530 . S
C644 C624 1.530 . S
C665 C642 1.530 . S
C689 C664 1.529 . S
C625 C690 1.530 . S
C403 C712 1.530 . S
C427 C730 1.530 . S
C752 C974 1.529 . S
C383 C774 1.530 . S
C800 C490 1.529 . S
C885 C822 1.529 . S
C844 C513 1.529 . S
C866 C471 1.530 . S
C732 C884 1.530 . S
C337 C910 1.529 . S
C273 C932 1.530 . S
C293 C954 1.529 . S
C845 C972 1.530 . S
C248 C998 1.529 . S
C1016 C185 1.529 . S
C1042 C225 1.530 . S
