# Generated by pormake.
# Topology cab, (5)-cn, num edge types: 1
# Building blocks:
#     Node 0, Type 0, BuildingBlock: XOMCOT_clean_sbu_0, # of connection points: 5
#     Node 1, Type 0, BuildingBlock: XOMCOT_clean_sbu_0, # of connection points: 5
#     Node 2, Type 0, BuildingBlock: XOMCOT_clean_sbu_0, # of connection points: 5
#     Node 3, Type 0, BuildingBlock: XOMCOT_clean_sbu_0, # of connection points: 5
#     Node 4, Type 0, BuildingBlock: XOMCOT_clean_sbu_0, # of connection points: 5
#     Node 5, Type 0, BuildingBlock: XOMCOT_clean_sbu_0, # of connection points: 5
#     Edge 6, Type (0, 0), BuildingBlock: FUNLAD_clean_linker_0, # of connection points: 2
#     Edge 7, Type (0, 0), BuildingBlock: FUNLAD_clean_linker_0, # of connection points: 2
#     Edge 8, Type (0, 0), BuildingBlock: FUNLAD_clean_linker_0, # of connection points: 2
#     Edge 9, Type (0, 0), BuildingBlock: FUNLAD_clean_linker_0, # of connection points: 2
#     Edge 10, Type (0, 0), BuildingBlock: FUNLAD_clean_linker_0, # of connection points: 2
#     Edge 11, Type (0, 0), BuildingBlock: FUNLAD_clean_linker_0, # of connection points: 2
#     Edge 12, Type (0, 0), BuildingBlock: FUNLAD_clean_linker_0, # of connection points: 2
#     Edge 13, Type (0, 0), BuildingBlock: FUNLAD_clean_linker_0, # of connection points: 2
#     Edge 14, Type (0, 0), BuildingBlock: FUNLAD_clean_linker_0, # of connection points: 2
#     Edge 15, Type (0, 0), BuildingBlock: FUNLAD_clean_linker_0, # of connection points: 2
#     Edge 16, Type (0, 0), BuildingBlock: FUNLAD_clean_linker_0, # of connection points: 2
#     Edge 17, Type (0, 0), BuildingBlock: FUNLAD_clean_linker_0, # of connection points: 2
#     Edge 18, Type (0, 0), BuildingBlock: FUNLAD_clean_linker_0, # of connection points: 2
#     Edge 19, Type (0, 0), BuildingBlock: FUNLAD_clean_linker_0, # of connection points: 2
#     Edge 20, Type (0, 0), BuildingBlock: FUNLAD_clean_linker_0, # of connection points: 2
# Relax obj value: 0.831
# Max RMSD: 0.223
# Mean RMSD: 0.220
data_MOF--net-cab--node1-XOMCOT_clean_sbu_0--edge1-FUNLAD_clean_linker_0
_symmetry_space_group_name_H-M    P1
_symmetry_Int_Tables_number       1
_symmetry_cell_setting            triclinic
loop_
_symmetry_equiv_pos_as_xyz
'x, y, z'
_cell_length_a     41.399712
_cell_length_b     41.45591
_cell_length_c     41.199893
_cell_angle_alpha  78.937956
_cell_angle_beta   77.77109
_cell_angle_gamma 79.135818
loop_
_atom_site_label
_atom_site_type_symbol
_atom_site_fract_x
_atom_site_fract_y
_atom_site_fract_z
_atom_type_partial_charge
Co0 Co 0.01208 0.97136 0.35456 0.0
C1 C 0.02144 0.89912 0.3829 0.0
C2 C 0.97621 0.91473 0.36322 0.0
C3 C 0.98011 0.88088 0.37256 0.0
N4 N 0.00158 0.92655 0.37055 0.0
N5 N 0.00872 0.87089 0.38476 0.0
H6 H 0.04604 0.8994 0.38761 0.0
H7 H 0.9577 0.92905 0.34905 0.0
C8 C 0.93698 0.98605 0.3727 0.0
O9 O 0.93687 0.96625 0.40172 0.0
N10 N 0.02187 0.01568 0.33691 0.0
C11 C 0.0419 0.0331 0.34597 0.0
C12 C 0.04095 0.06368 0.32539 0.0
C13 C 0.00951 0.03534 0.31099 0.0
N14 N 0.02048 0.06502 0.30336 0.0
C15 C 0.02542 0.96247 0.42151 0.0
C16 C 0.98462 0.01975 0.43903 0.0
C17 C 0.00529 0.00119 0.46108 0.0
C18 C 0.02541 0.97185 0.45226 0.0
C19 C 0.98555 0.00959 0.40847 0.0
N20 N 0.0056 0.9811 0.40003 0.0
H21 H 0.04307 0.94142 0.41415 0.0
H22 H 0.97151 0.02581 0.39078 0.0
H23 H 0.05602 0.02429 0.36608 0.0
H24 H 0.99328 0.02746 0.29765 0.0
O25 O 0.05936 0.95473 0.34821 0.0
O26 O 0.02753 0.96036 0.30976 0.0
O27 O 0.96408 0.98915 0.35162 0.0
C28 C 0.05724 0.95282 0.3176 0.0
H29 H 0.9649 0.86465 0.36725 0.0
H30 H 0.05419 0.08334 0.32683 0.0
H31 H 0.9688 0.04268 0.44469 0.0
H32 H 0.04261 0.95731 0.46797 0.0
Co33 Co 0.14264 0.14875 0.75646 0.0
C34 C 0.07868 0.16886 0.80278 0.0
C35 C 0.07672 0.1275 0.77937 0.0
C36 C 0.0471 0.13374 0.80129 0.0
N37 N 0.09649 0.14974 0.77988 0.0
N38 N 0.04839 0.15967 0.81608 0.0
H39 H 0.08765 0.18866 0.81022 0.0
H40 H 0.08377 0.10726 0.76493 0.0
C41 C 0.17584 0.0782 0.78015 0.0
O42 O 0.20442 0.0818 0.75984 0.0
N43 N 0.18882 0.14777 0.7335 0.0
C44 C 0.20172 0.14964 0.7003 0.0
C45 C 0.23564 0.15051 0.69556 0.0
C46 C 0.21472 0.14878 0.74813 0.0
N47 N 0.24341 0.15033 0.72571 0.0
C48 C 0.10693 0.15699 0.70293 0.0
C49 C 0.13146 0.09556 0.68321 0.0
C50 C 0.10643 0.11666 0.66782 0.0
C51 C 0.09454 0.14797 0.67757 0.0
C52 C 0.14317 0.10555 0.70845 0.0
N53 N 0.1304 0.13564 0.71851 0.0
H54 H 0.09671 0.18069 0.71108 0.0
H55 H 0.16257 0.08906 0.71961 0.0
H56 H 0.18761 0.15093 0.68069 0.0
H57 H 0.21288 0.14754 0.77493 0.0
O58 O 0.13572 0.19649 0.74294 0.0
O59 O 0.15238 0.16987 0.79016 0.0
O60 O 0.15068 0.10136 0.77981 0.0
C61 C 0.14518 0.19793 0.77075 0.0
H62 H 0.02681 0.11929 0.80704 0.0
H63 H 0.25306 0.15182 0.67187 0.0
H64 H 0.14193 0.07151 0.6758 0.0
H65 H 0.07504 0.16494 0.6665 0.0
Co66 Co 0.36281 0.01926 0.02195 0.0
C67 C 0.38926 0.03706 0.94885 0.0
C68 C 0.37914 0.98706 0.9613 0.0
C69 C 0.38724 0.99472 0.92696 0.0
N70 N 0.38133 0.01323 0.9754 0.0
N71 N 0.39335 0.02631 0.91905 0.0
H72 H 0.38929 0.06259 0.95107 0.0
H73 H 0.36897 0.96502 0.97445 0.0
C74 C 0.39035 0.94685 0.03178 0.0
O75 O 0.41892 0.9536 0.01309 0.0
N76 N 0.34246 0.02483 0.06756 0.0
C77 C 0.34428 0.04899 0.08449 0.0
C78 C 0.32086 0.04666 0.11388 0.0
C79 C 0.31826 0.00824 0.08661 0.0
N80 N 0.3046 0.02099 0.11505 0.0
C81 C 0.42797 0.03778 0.01218 0.0
C82 C 0.44526 0.00027 0.0709 0.0
C83 C 0.46763 0.01999 0.04974 0.0
C84 C 0.45882 0.03877 0.02002 0.0
C85 C 0.41485 -0.0005 0.06177 0.0
N86 N 0.40671 0.01776 0.03243 0.0
H87 H 0.42084 0.0541 0.99043 0.0
H88 H 0.39755 0.98461 0.07862 0.0
H89 H 0.36031 0.06784 0.07536 0.0
H90 H 0.30921 0.98872 0.07862 0.0
O91 O 0.35258 0.06641 0.00823 0.0
O92 O 0.31859 0.03021 0.01041 0.0
O93 O 0.3653 0.96985 0.03639 0.0
C94 C 0.32371 0.06108 0.00455 0.0
H95 H 0.38516 0.97941 0.90918 0.0
H96 H 0.31547 0.0632 0.13237 0.0
H97 H 0.45112 0.98581 0.09434 0.0
H98 H 0.47508 0.05517 0.00364 0.0
Co99 Co 0.00488 0.34922 0.04094 0.0
C100 C 0.93478 0.38208 0.05455 0.0
C101 C 0.94724 0.36498 0.00677 0.0
C102 C 0.91438 0.3799 0.01133 0.0
N103 N 0.95995 0.3664 0.03386 0.0
N104 N 0.90651 0.39058 0.0414 0.0
H105 H 0.93701 0.38658 0.07894 0.0
H106 H 0.96057 0.35314 0.98554 0.0
C107 C 0.04778 0.36135 0.97372 0.0
O108 O 0.06788 0.37251 0.98825 0.0
N109 N 0.05036 0.33062 0.04722 0.0
C110 C 0.07226 0.34037 0.06206 0.0
C111 C 0.10136 0.31766 0.05966 0.0
C112 C 0.0665 0.30216 0.0363 0.0
N113 N 0.09749 0.29362 0.0436 0.0
C114 C 0.01396 0.40323 0.06983 0.0
C115 C 0.01049 0.45149 0.01365 0.0
C116 C 0.01565 0.46016 0.04318 0.0
C117 C 0.01685 0.43566 0.07165 0.0
C118 C 0.00752 0.41862 0.01303 0.0
N119 N 0.01128 0.39454 0.04034 0.0
H120 H 0.01426 0.38493 0.0923 0.0
H121 H 0.00163 0.41277 0.99074 0.0
H122 H 0.0682 0.36216 0.07384 0.0
H123 H 0.05581 0.28817 0.02272 0.0
O124 O 0.98909 0.33784 0.08844 0.0
O125 O 0.99432 0.30422 0.05128 0.0
O126 O 0.02074 0.35189 0.99097 0.0
C127 C 0.98718 0.30865 0.08264 0.0
H128 H 0.89709 0.38104 0.99462 0.0
H129 H 0.12339 0.31847 0.06951 0.0
H130 H 0.00821 0.47002 0.99148 0.0
H131 H 0.02051 0.44132 0.09509 0.0
Co132 Co 0.80656 0.1569 0.1056 0.0
C133 C 0.77022 0.22507 0.10723 0.0
C134 C 0.78862 0.20457 0.15299 0.0
C135 C 0.77327 0.23674 0.15499 0.0
N136 N 0.78673 0.1974 0.12304 0.0
N137 N 0.76182 0.24976 0.12612 0.0
H138 H 0.76557 0.22732 0.08197 0.0
H139 H 0.80158 0.18817 0.1715 0.0
C140 C 0.79601 0.10268 0.16382 0.0
O141 O 0.7887 0.08542 0.14345 0.0
N142 N 0.82787 0.11589 0.08864 0.0
C143 C 0.82235 0.10167 0.06389 0.0
C144 C 0.84515 0.07307 0.06102 0.0
C145 C 0.85451 0.09612 0.09967 0.0
N146 N 0.86543 0.06949 0.08361 0.0
C147 C 0.7535 0.1525 0.0726 0.0
C148 C 0.70759 0.13704 0.13027 0.0
C149 C 0.70055 0.13461 0.0991 0.0
C150 C 0.72321 0.14421 0.06989 0.0
C151 C 0.73815 0.14575 0.13169 0.0
N152 N 0.76196 0.15003 0.10331 0.0
H153 H 0.7706 0.15996 0.04988 0.0
H154 H 0.74282 0.14824 0.15582 0.0
H155 H 0.8037 0.11099 0.0484 0.0
H156 H 0.86562 0.10153 0.11912 0.0
O157 O 0.81793 0.18173 0.06129 0.0
O158 O 0.85073 0.16901 0.09945 0.0
O159 O 0.80347 0.13189 0.15294 0.0
C160 C 0.84656 0.18254 0.06906 0.0
H161 H 0.77274 0.25015 0.17523 0.0
H162 H 0.84631 0.05623 0.04361 0.0
H163 H 0.69034 0.13106 0.15348 0.0
H164 H 0.7179 0.14469 0.04515 0.0
Co165 Co 0.13806 0.80247 0.11009 0.0
C166 C 0.13505 0.76736 0.18187 0.0
C167 C 0.16901 0.80291 0.16674 0.0
C168 C 0.17024 0.78885 0.19948 0.0
N169 N 0.14738 0.78919 0.15538 0.0
N170 N 0.14893 0.76646 0.20901 0.0
H171 H 0.11608 0.75281 0.18192 0.0
H172 H 0.18283 0.82219 0.15212 0.0
C173 C 0.21049 0.77476 0.10163 0.0
O174 O 0.20293 0.74981 0.12535 0.0
N175 N 0.12976 0.8172 0.06495 0.0
C176 C 0.10792 0.80805 0.04972 0.0
C177 C 0.10853 0.82733 0.01838 0.0
C178 C 0.14299 0.84192 0.04315 0.0
N179 N 0.13042 0.84871 0.01454 0.0
C180 C 0.10868 0.74337 0.12185 0.0
C181 C 0.15188 0.71335 0.07148 0.0
C182 C 0.12372 0.69896 0.08848 0.0
C183 C 0.10224 0.71413 0.11431 0.0
C184 C 0.15719 0.74283 0.07959 0.0
N185 N 0.13611 0.75724 0.10502 0.0
H186 H 0.09016 0.75602 0.13971 0.0
H187 H 0.17695 0.7551 0.06363 0.0
H188 H 0.09195 0.78948 0.06095 0.0
H189 H 0.16084 0.85526 0.04855 0.0
O190 O 0.09141 0.816 0.12723 0.0
O191 O 0.13028 0.84858 0.11679 0.0
O192 O 0.18754 0.79767 0.09206 0.0
C193 C 0.09883 0.8453 0.12623 0.0
H194 H 0.18454 0.79575 0.21552 0.0
H195 H 0.09292 0.8268 0.00052 0.0
H196 H 0.16898 0.70275 0.0511 0.0
H197 H 0.07943 0.70475 0.12725 0.0
C198 C 0.98823 0.2478 0.10506 0.0
C199 C 0.98256 0.2809 0.11082 0.0
C200 C 0.99005 0.22148 0.13195 0.0
C201 C 0.98621 0.22791 0.16503 0.0
C202 C 0.97897 0.26098 0.17077 0.0
C203 C 0.97694 0.28717 0.14404 0.0
C204 C 0.99264 0.20124 0.19365 0.0
C205 C 0.98908 0.16938 0.19517 0.0
C206 C -0.00298 0.14328 0.22371 0.0
C207 C 0.97798 0.11738 0.23442 0.0
C208 C 0.98519 0.09222 0.2609 0.0
C209 C 0.01228 0.09186 0.27683 0.0
H210 H 0.03964 0.16251 0.23138 0.0
C211 C 0.03148 0.11784 0.26583 0.0
C212 C 0.0239 0.14329 0.23965 0.0
H213 H 0.05279 0.11836 0.27692 0.0
H214 H 0.99298 0.2422 0.0797 0.0
H215 H 0.99626 0.19631 0.12645 0.0
H216 H 0.97588 0.26664 0.19596 0.0
H217 H 0.97249 0.3124 0.14936 0.0
H218 H -4e-05 0.20842 0.21476 0.0
H219 H 0.97863 0.1624 0.17593 0.0
H220 H 0.95717 0.1168 0.22252 0.0
H221 H 0.96927 0.07322 0.2688 0.0
C222 C 0.79909 0.05382 0.20966 0.0
C223 C 0.79535 0.08841 0.19951 0.0
C224 C 0.80221 0.04015 0.24277 0.0
C225 C 0.80153 0.06077 0.26636 0.0
C226 C 0.79472 0.09552 0.25681 0.0
C227 C 0.79212 0.10916 0.22357 0.0
C228 C 0.81232 0.04508 0.29873 0.0
C229 C 0.82644 0.06139 0.31599 0.0
C230 C 0.85123 0.04367 0.33696 0.0
C231 C 0.88019 0.05769 0.33407 0.0
C232 C 0.90754 0.03919 0.34713 0.0
C233 C 0.9061 0.00664 0.36418 0.0
H234 H 0.82651 0.00075 0.35927 0.0
C235 C 0.87617 0.99353 0.36989 0.0
C236 C 0.84886 0.01188 0.35608 0.0
H237 H 0.8746 0.9685 0.38318 0.0
H238 H 0.80125 0.03723 0.19168 0.0
H239 H 0.80707 0.01333 0.24942 0.0
H240 H 0.79237 0.1124 0.27446 0.0
H241 H 0.78818 0.13597 0.21661 0.0
H242 H 0.81488 0.01812 0.30461 0.0
H243 H 0.82615 0.088 0.30896 0.0
H244 H 0.88258 0.08217 0.31963 0.0
H245 H 0.9303 0.04993 0.34284 0.0
C246 C 0.06088 0.8302 0.38159 0.0
C247 C 0.0258 0.83705 0.38909 0.0
C248 C 0.07699 0.79833 0.3766 0.0
C249 C 0.0583 0.77255 0.3789 0.0
C250 C 0.02365 0.77849 0.39054 0.0
C251 C 0.00757 0.81036 0.39578 0.0
C252 C 0.07234 0.74317 0.36164 0.0
C253 C 0.10509 0.73642 0.34866 0.0
C254 C 0.11736 0.73278 0.31262 0.0
C255 C 0.09543 0.73568 0.28985 0.0
C256 C 0.10649 0.74408 0.25528 0.0
C257 C 0.13958 0.74964 0.24279 0.0
H258 H 0.169 0.73162 0.31627 0.0
C259 C 0.16235 0.74255 0.26503 0.0
C260 C 0.15136 0.73414 0.29956 0.0
H261 H 0.18828 0.74562 0.25596 0.0
H262 H 0.07592 0.8499 0.37645 0.0
H263 H 0.10372 0.79523 0.36766 0.0
H264 H 0.00858 0.75916 0.39285 0.0
H265 H 0.98058 0.81459 0.40267 0.0
H266 H 0.05445 0.73289 0.35239 0.0
H267 H 0.12291 0.74281 0.36138 0.0
H268 H 0.06912 0.73432 0.29835 0.0
H269 H 0.08839 0.74899 0.23878 0.0
C270 C 0.26981 0.9786 0.14603 0.0
C271 C 0.27558 0.01181 0.13878 0.0
C272 C 0.24047 0.96997 0.1672 0.0
C273 C 0.21617 0.99451 0.18132 0.0
C274 C 0.22205 0.02764 0.17415 0.0
C275 C 0.25157 0.03617 0.15338 0.0
C276 C 0.18385 0.98681 0.20237 0.0
C277 C 0.18007 0.95736 0.22217 0.0
C278 C 0.148 0.95201 0.24506 0.0
C279 C 0.14842 0.93531 0.27802 0.0
C280 C 0.11857 0.93384 0.30136 0.0
C281 C 0.08775 0.94823 0.29181 0.0
H282 H 0.11598 0.977 0.20947 0.0
C283 C 0.08717 0.9626 0.25812 0.0
C284 C 0.11705 0.9647 0.23499 0.0
H285 H 0.06378 0.974 0.25008 0.0
H286 H 0.28792 0.95934 0.13508 0.0
H287 H 0.23651 0.9443 0.17163 0.0
H288 H 0.20364 0.04705 0.18453 0.0
H289 H 0.25507 0.06201 0.14784 0.0
H290 H 0.16284 0.00701 0.2033 0.0
H291 H 0.20164 0.93809 0.22428 0.0
H292 H 0.17196 0.92501 0.28623 0.0
H293 H 0.1197 0.92255 0.32717 0.0
C294 C 0.13617 0.87243 0.95421 0.0
C295 C 0.13622 0.87576 0.98749 0.0
C296 C 0.14108 0.89914 0.92811 0.0
C297 C 0.14571 0.92974 0.93502 0.0
C298 C 0.14552 0.93302 0.96831 0.0
C299 C 0.14116 0.90624 0.99423 0.0
C300 C 0.14875 0.95933 0.90861 0.0
C301 C 0.16283 0.95772 0.87625 0.0
C302 C 0.16546 0.98819 0.85086 0.0
C303 C 0.19379 0.98966 0.82526 0.0
C304 C 0.19727 0.01882 0.80204 0.0
C305 C 0.17211 0.04678 0.80368 0.0
H306 H 0.11733 0.01514 0.87076 0.0
C307 C 0.14322 0.04475 0.82862 0.0
C308 C 0.13995 0.01583 0.85195 0.0
H309 H 0.1232 0.06569 0.83048 0.0
H310 H 0.13238 0.84917 0.94844 0.0
H311 H 0.14033 0.89604 0.90279 0.0
H312 H 0.14867 0.95644 0.97432 0.0
H313 H 0.14075 0.90966 0.01972 0.0
H314 H 0.14046 0.98354 0.91659 0.0
H315 H 0.17441 0.9339 0.86863 0.0
H316 H 0.21361 0.96851 0.82372 0.0
H317 H 0.2197 0.0195 0.78296 0.0
C318 C 0.38062 0.07992 0.88227 0.0
C319 C 0.39487 0.04616 0.88609 0.0
C320 C 0.37582 0.09732 0.85068 0.0
C321 C 0.38533 0.08135 0.82206 0.0
C322 C 0.40198 0.04844 0.82555 0.0
C323 C 0.40684 0.03107 0.85716 0.0
C324 C 0.37269 0.09568 0.79031 0.0
C325 C 0.36021 0.12804 0.78244 0.0
C326 C 0.33407 0.13882 0.76126 0.0
C327 C 0.30733 0.16327 0.77128 0.0
C328 C 0.27818 0.16853 0.75794 0.0
C329 C 0.27553 0.14999 0.73376 0.0
H330 H 0.35319 0.10403 0.72584 0.0
C331 C 0.30347 0.12807 0.72105 0.0
C332 C 0.33259 0.12237 0.73481 0.0
H333 H 0.30192 0.11366 0.70227 0.0
H334 H 0.37077 0.09234 0.90392 0.0
H335 H 0.36224 0.12235 0.84957 0.0
H336 H 0.40955 0.03546 0.80404 0.0
H337 H 0.41847 0.00526 0.85921 0.0
H338 H 0.36906 0.07787 0.77572 0.0
H339 H 0.36403 0.14598 0.79674 0.0
H340 H 0.30791 0.1765 0.79138 0.0
H341 H 0.25699 0.18589 0.76771 0.0
C342 C 0.12412 0.25858 0.76969 0.0
C343 C 0.14466 0.22972 0.78179 0.0
C344 C 0.11895 0.28701 0.78485 0.0
C345 C 0.13453 0.28689 0.8121 0.0
C346 C 0.15745 0.25905 0.82193 0.0
C347 C 0.16222 0.23056 0.80716 0.0
C348 C 0.12463 0.31324 0.83355 0.0
C349 C 0.09254 0.32761 0.84114 0.0
C350 C 0.07959 0.34236 0.87231 0.0
C351 C 0.09976 0.35704 0.88695 0.0
C352 C 0.08877 0.36467 0.91946 0.0
C353 C 0.05741 0.35789 0.9378 0.0
H354 H 0.03105 0.3272 0.87873 0.0
C355 C 0.03626 0.3457 0.92209 0.0
C356 C 0.04721 0.33818 0.88958 0.0
H357 H 0.01175 0.34066 0.93535 0.0
H358 H 0.11054 0.25859 0.74993 0.0
H359 H 0.10181 0.30848 0.77613 0.0
H360 H 0.16998 0.25848 0.84267 0.0
H361 H 0.1786 0.20874 0.81656 0.0
H362 H 0.14248 0.31549 0.84857 0.0
H363 H 0.07413 0.32269 0.82817 0.0
H364 H 0.12443 0.36166 0.87385 0.0
H365 H 0.10542 0.37464 0.93064 0.0
C366 C 0.86756 0.21195 0.01195 0.0
C367 C 0.87428 0.19373 0.04285 0.0
C368 C 0.89351 0.21665 0.98451 0.0
C369 C 0.92674 0.20261 0.98726 0.0
C370 C 0.93369 0.18698 0.01899 0.0
C371 C 0.90769 0.18253 0.04658 0.0
C372 C 0.95412 0.20148 0.95727 0.0
C373 C 0.94828 0.20085 0.92639 0.0
C374 C 0.97477 0.19292 0.89717 0.0
C375 C 0.96559 0.18094 0.87131 0.0
C376 C 0.98962 0.17079 0.84445 0.0
C377 C 0.02349 0.17267 0.84252 0.0
H378 H 0.01655 0.20605 0.91353 0.0
C379 C 0.03263 0.18606 0.86756 0.0
C380 C 0.00853 0.19608 0.89467 0.0
H381 H 0.05853 0.18785 0.8668 0.0
H382 H 0.84206 0.22143 0.00853 0.0
H383 H 0.88723 0.23031 0.96095 0.0
H384 H 0.95909 0.17641 0.022 0.0
H385 H 0.91363 0.16849 0.07016 0.0
H386 H 0.97963 0.19685 0.96169 0.0
H387 H 0.92267 0.20265 0.923 0.0
H388 H 0.93976 0.17856 0.87229 0.0
H389 H 0.98167 0.16121 0.82525 0.0
C390 C 0.26349 0.08506 0.00418 0.0
C391 C 0.29723 0.08934 0.99758 0.0
C392 C 0.23824 0.11276 0.00289 0.0
C393 C 0.24642 0.14523 0.99497 0.0
C394 C 0.28024 0.14919 0.98609 0.0
C395 C 0.30537 0.12161 0.98756 0.0
C396 C 0.2209 0.17564 0.99709 0.0
C397 C 0.19015 0.17587 0.0162 0.0
C398 C 0.16676 0.20701 0.0218 0.0
C399 C 0.13223 0.20623 0.02894 0.0
C400 C 0.10955 0.23469 0.03579 0.0
C401 C 0.12096 0.26444 0.03626 0.0
H402 H 0.2047 0.23807 0.01806 0.0
C403 C 0.15553 0.26516 0.02956 0.0
C404 C 0.17823 0.23678 0.02234 0.0
H405 H 0.165 0.28774 0.02972 0.0
H406 H 0.25652 0.06044 0.01174 0.0
H407 H 0.21252 0.10852 0.00866 0.0
H408 H 0.28732 0.17381 0.97942 0.0
H409 H 0.3312 0.12567 0.98196 0.0
H410 H 0.22872 0.1991 0.98419 0.0
H411 H 0.18169 0.1527 0.02893 0.0
H412 H 0.12276 0.18351 0.02921 0.0
H413 H 0.08307 0.23323 0.0414 0.0
C414 C 0.40137 0.8862 0.02808 0.0
C415 C 0.386 0.91234 0.04599 0.0
C416 C 0.39271 0.85438 0.03934 0.0
C417 C 0.36911 0.84836 0.06898 0.0
C418 C 0.35619 0.87384 0.08831 0.0
C419 C 0.36417 0.90571 0.07667 0.0
C420 C 0.35339 0.81792 0.07789 0.0
C421 C 0.34213 0.80669 0.05446 0.0
C422 C 0.3111 0.79169 0.0635 0.0
C423 C 0.28638 0.80382 0.04372 0.0
C424 C 0.25383 0.79708 0.05552 0.0
C425 C 0.2457 0.77741 0.08696 0.0
H426 H 0.32248 0.7597 0.10919 0.0
C427 C 0.27115 0.7626 0.1053 0.0
C428 C 0.30366 0.76984 0.09374 0.0
H429 H 0.26556 0.74707 0.12949 0.0
H430 H 0.41844 0.8908 0.00442 0.0
H431 H 0.40327 0.83495 0.02422 0.0
H432 H 0.33798 0.86974 0.11124 0.0
H433 H 0.3524 0.92545 0.09111 0.0
H434 H 0.3431 0.81081 0.10433 0.0
H435 H 0.34994 0.81643 0.02806 0.0
H436 H 0.29158 0.82061 0.02027 0.0
H437 H 0.23475 0.80835 0.04064 0.0
C438 C 0.73796 0.30625 0.13904 0.0
C439 C 0.75044 0.28453 0.11531 0.0
C440 C 0.73533 0.34069 0.12901 0.0
C441 C 0.74517 0.35393 0.09501 0.0
C442 C 0.75298 0.33248 0.07096 0.0
C443 C 0.7558 0.29811 0.08097 0.0
C444 C 0.75459 0.38774 0.08433 0.0
C445 C 0.77136 0.39946 0.10317 0.0
C446 C 0.80526 0.40824 0.08873 0.0
C447 C 0.81464 0.42107 0.05451 0.0
C448 C 0.84839 0.41782 0.03935 0.0
C449 C 0.87327 0.40209 0.05817 0.0
H450 H 0.82389 0.38724 0.13485 0.0
C451 C 0.86403 0.39367 0.09318 0.0
C452 C 0.83032 0.39687 0.10832 0.0
H453 H 0.88251 0.38181 0.10852 0.0
H454 H 0.73219 0.29665 0.1656 0.0
H455 H 0.7278 0.35664 0.14811 0.0
H456 H 0.76026 0.342 0.04451 0.0
H457 H 0.76499 0.2824 0.06182 0.0
H458 H 0.75871 0.39612 0.05736 0.0
H459 H 0.76674 0.39141 0.1302 0.0
H460 H 0.79604 0.43145 0.0389 0.0
H461 H 0.85491 0.42573 0.0125 0.0
C462 C 0.0385 0.86998 0.13567 0.0
C463 C 0.07218 0.87411 0.1311 0.0
C464 C 0.01328 0.89753 0.135 0.0
C465 C 0.02116 0.92986 0.12988 0.0
C466 C 0.05451 0.93394 0.12764 0.0
C467 C 0.07991 0.90631 0.12792 0.0
C468 C 0.99504 0.95949 0.12568 0.0
C469 C 0.97054 0.96008 0.10853 0.0
C470 C 0.94461 0.98938 0.10215 0.0
C471 C 0.93035 0.99347 0.07337 0.0
C472 C 0.90494 0.01993 0.067 0.0
C473 C 0.89259 0.04274 0.08967 0.0
H474 H 0.94254 0.00928 0.14768 0.0
C475 C 0.90692 0.03846 0.11867 0.0
C476 C 0.93271 0.01219 0.12477 0.0
H477 H 0.89794 0.0549 0.13718 0.0
H478 H 0.03164 0.8455 0.13849 0.0
H479 H 0.98765 0.89351 0.1379 0.0
H480 H 0.06112 0.95862 0.12412 0.0
H481 H 0.10562 0.91026 0.1245 0.0
H482 H -0.00239 0.98183 0.13443 0.0
H483 H 0.97048 0.93866 0.0969 0.0
H484 H 0.93901 0.97615 0.05558 0.0
H485 H 0.89513 0.02228 0.04422 0.0
C486 C 0.08498 0.0732 0.64716 0.0
C487 C 0.09227 0.10573 0.64234 0.0
C488 C 0.07144 0.06285 0.62333 0.0
C489 C 0.06473 0.08494 0.59419 0.0
C490 C 0.07229 0.11735 0.58929 0.0
C491 C 0.08574 0.12773 0.61318 0.0
C492 C 0.05159 0.07473 0.56753 0.0
C493 C 0.03419 0.04922 0.57281 0.0
C494 C 0.0235 0.03809 0.54514 0.0
C495 C 0.02037 0.0045 0.54794 0.0
C496 C 0.01326 0.99258 0.52112 0.0
C497 C 0.00881 0.01418 0.49109 0.0
H498 H 0.01808 0.08634 0.51317 0.0
C499 C 0.01018 0.04815 0.48903 0.0
C500 C 0.01723 0.06003 0.5158 0.0
H501 H 0.00705 0.06549 0.46623 0.0
H502 H 0.08956 0.05575 0.6695 0.0
H503 H 0.067 0.03736 0.62763 0.0
H504 H 0.06777 0.13473 0.56688 0.0
H505 H 0.09149 0.15282 0.60857 0.0
H506 H 0.05697 0.08881 0.54245 0.0
H507 H 0.02894 0.03484 0.59775 0.0
H508 H 0.02457 0.98718 0.57049 0.0
H509 H 0.01183 0.96637 0.52368 0.0
C510 C 0.67372 0.09856 0.07404 0.0
C511 C 0.67089 0.12039 0.09704 0.0
C512 C 0.64658 0.08379 0.07269 0.0
C513 C 0.61593 0.09014 0.09472 0.0
C514 C 0.61293 0.11234 0.11739 0.0
C515 C 0.64014 0.12726 0.11865 0.0
C516 C 0.58616 0.07552 0.09358 0.0
C517 C 0.58778 0.0486 0.07911 0.0
C518 C 0.55751 0.0377 0.07397 0.0
C519 C 0.55838 0.02642 0.04377 0.0
C520 C 0.5293 0.01954 0.03633 0.0
C521 C 0.49909 0.02305 0.05938 0.0
H522 H 0.52648 0.0475 0.12165 0.0
C523 C 0.49864 0.03227 0.09054 0.0
C524 C 0.52762 0.03971 0.09776 0.0
H525 H 0.47556 0.03512 0.10868 0.0
H526 H 0.69716 0.09242 0.05728 0.0
H527 H 0.64987 0.06789 0.05393 0.0
H528 H 0.58947 0.11811 0.13427 0.0
H529 H 0.637 0.1443 0.13637 0.0
H530 H 0.56187 0.08817 0.10421 0.0
H531 H 0.61168 0.03567 0.06812 0.0
H532 H 0.58124 0.0244 0.02524 0.0
H533 H 0.5302 0.0122 0.01225 0.0
C534 C 0.09939 0.646 0.10102 0.0
C535 C 0.11485 0.6703 0.0774 0.0
C536 C 0.08802 0.62089 0.09043 0.0
C537 C 0.09205 0.61946 0.05597 0.0
C538 C 0.10888 0.64265 0.03241 0.0
C539 C 0.11986 0.66809 0.04296 0.0
C540 C 0.07952 0.59345 0.04429 0.0
C541 C 0.05027 0.58319 0.05952 0.0
C542 C 0.03855 0.55422 0.05206 0.0
C543 C 0.01467 0.53896 0.07662 0.0
C544 C 0.00592 0.5092 0.07295 0.0
C545 C 0.02075 0.49418 0.04449 0.0
H546 H 0.06906 0.55205 0.00222 0.0
C547 C 0.04277 0.51063 0.01871 0.0
C548 C 0.05158 0.54045 0.02238 0.0
H549 H 0.05442 0.49967 0.9964 0.0
H550 H 0.09587 0.64649 0.12774 0.0
H551 H 0.07623 0.60251 0.10925 0.0
H552 H 0.11258 0.64171 0.00575 0.0
H553 H 0.13127 0.68661 0.02401 0.0
H554 H 0.09497 0.58273 0.02309 0.0
H555 H 0.0352 0.59517 0.08022 0.0
H556 H 0.00379 0.5493 0.09946 0.0
H557 H 0.98827 0.4974 0.09289 0.0
loop_
_geom_bond_atom_site_label_1
_geom_bond_atom_site_label_2
_geom_bond_distance
_geom_bond_site_symmetry_2
_ccdc_geom_bond_type
Co0 N4 2.148 1_545 S
Co0 N10 2.128 . S
Co0 N20 2.194 . S
Co0 O25 2.351 . S
Co0 O26 2.155 . S
Co0 O27 2.096 1_455 S
C1 N4 1.301 . S
C1 N5 1.328 . S
C1 H6 0.930 . S
C2 C3 1.333 . S
C2 N4 1.317 . S
C2 H7 0.930 1_455 S
C3 C2 1.333 . S
C3 N5 1.350 . S
C3 H29 0.931 1_455 S
N4 Co0 2.148 1_565 S
N4 C1 1.301 . S
N4 C2 1.317 . S
N5 C1 1.328 . S
N5 C3 1.350 . S
H6 C1 0.930 . S
H7 C2 0.930 1_655 S
C8 O9 1.224 . S
C8 O27 1.247 . S
O9 C8 1.224 . S
N10 Co0 2.128 . S
N10 C11 1.355 . S
N10 C13 1.311 . S
C11 N10 1.355 . S
C11 C12 1.363 . S
C11 H23 0.929 . S
C12 C11 1.363 . S
C12 N14 1.375 . S
C12 H30 0.931 . S
C13 N10 1.311 . S
C13 N14 1.347 . S
C13 H24 0.929 1_455 S
N14 C12 1.375 . S
N14 C13 1.347 . S
C15 C18 1.365 . S
C15 N20 1.328 . S
C15 H21 0.929 1_545 S
C16 C17 1.362 . S
C16 C19 1.378 . S
C16 H31 0.929 1_455 S
C17 C16 1.362 . S
C17 C18 1.366 . S
C18 C15 1.365 . S
C18 C17 1.366 . S
C18 H32 0.930 . S
C19 C16 1.378 . S
C19 N20 1.315 . S
C19 H22 0.930 1_455 S
N20 Co0 2.194 . S
N20 C15 1.328 . S
N20 C19 1.315 . S
H21 C15 0.929 1_565 S
H22 C19 0.930 1_655 S
H23 C11 0.929 . S
H24 C13 0.929 1_655 S
O25 Co0 2.351 . S
O25 C28 1.244 . S
O26 Co0 2.155 . S
O26 C28 1.240 . S
O27 Co0 2.096 1_655 S
O27 C8 1.247 . S
C28 O25 1.244 . S
C28 O26 1.240 . S
H29 C3 0.931 1_655 S
H30 C12 0.931 . S
H31 C16 0.929 1_655 S
H32 C18 0.930 . S
Co33 N37 2.148 . S
Co33 N43 2.128 . S
Co33 N53 2.194 . S
Co33 O58 2.351 . S
Co33 O59 2.155 . S
Co33 O60 2.096 . S
C34 N37 1.301 . S
C34 N38 1.328 . S
C34 H39 0.930 . S
C35 C36 1.333 . S
C35 N37 1.317 . S
C35 H40 0.930 . S
C36 C35 1.333 . S
C36 N38 1.350 . S
C36 H62 0.931 . S
N37 Co33 2.148 . S
N37 C34 1.301 . S
N37 C35 1.317 . S
N38 C34 1.328 . S
N38 C36 1.350 . S
H39 C34 0.930 . S
H40 C35 0.930 . S
C41 O42 1.224 . S
C41 O60 1.247 . S
O42 C41 1.224 . S
N43 Co33 2.128 . S
N43 C44 1.355 . S
N43 C46 1.311 . S
C44 N43 1.355 . S
C44 C45 1.363 . S
C44 H56 0.929 . S
C45 C44 1.363 . S
C45 N47 1.375 . S
C45 H63 0.931 . S
C46 N43 1.311 . S
C46 N47 1.347 . S
C46 H57 0.929 . S
N47 C45 1.375 . S
N47 C46 1.347 . S
C48 C51 1.365 . S
C48 N53 1.328 . S
C48 H54 0.929 . S
C49 C50 1.362 . S
C49 C52 1.378 . S
C49 H64 0.929 . S
C50 C49 1.362 . S
C50 C51 1.366 . S
C51 C48 1.365 . S
C51 C50 1.366 . S
C51 H65 0.930 . S
C52 C49 1.378 . S
C52 N53 1.315 . S
C52 H55 0.930 . S
N53 Co33 2.194 . S
N53 C48 1.328 . S
N53 C52 1.315 . S
H54 C48 0.929 . S
H55 C52 0.930 . S
H56 C44 0.929 . S
H57 C46 0.929 . S
O58 Co33 2.351 . S
O58 C61 1.244 . S
O59 Co33 2.155 . S
O59 C61 1.240 . S
O60 Co33 2.096 . S
O60 C41 1.247 . S
C61 O58 1.244 . S
C61 O59 1.240 . S
H62 C36 0.931 . S
H63 C45 0.931 . S
H64 C49 0.929 . S
H65 C51 0.930 . S
Co66 N70 2.148 1_554 S
Co66 N76 2.128 . S
Co66 N86 2.194 . S
Co66 O91 2.351 . S
Co66 O92 2.155 . S
Co66 O93 2.096 1_545 S
C67 N70 1.301 . S
C67 N71 1.328 . S
C67 H72 0.930 . S
C68 C69 1.333 . S
C68 N70 1.317 . S
C68 H73 0.930 1_545 S
C69 C68 1.333 . S
C69 N71 1.350 . S
C69 H95 0.931 . S
N70 Co66 2.148 1_556 S
N70 C67 1.301 . S
N70 C68 1.317 . S
N71 C67 1.328 . S
N71 C69 1.350 . S
H72 C67 0.930 . S
H73 C68 0.930 1_565 S
C74 O75 1.224 . S
C74 O93 1.247 . S
O75 C74 1.224 . S
N76 Co66 2.128 . S
N76 C77 1.355 . S
N76 C79 1.311 . S
C77 N76 1.355 . S
C77 C78 1.363 . S
C77 H89 0.929 . S
C78 C77 1.363 . S
C78 N80 1.375 . S
C78 H96 0.931 . S
C79 N76 1.311 . S
C79 N80 1.347 . S
C79 H90 0.929 1_545 S
N80 C78 1.375 . S
N80 C79 1.347 . S
C81 C84 1.374 . S
C81 N86 1.328 . S
C81 H87 0.922 1_554 S
C82 C83 1.362 . S
C82 C85 1.378 . S
C82 H97 0.929 1_545 S
C83 C82 1.362 . S
C83 C84 1.366 . S
C84 C81 1.374 . S
C84 C83 1.366 . S
C84 H98 0.930 1_554 S
C85 C82 1.378 . S
C85 N86 1.315 . S
C85 H88 0.930 1_545 S
N86 Co66 2.194 . S
N86 C81 1.328 . S
N86 C85 1.315 . S
H87 C81 0.922 1_556 S
H88 C85 0.930 1_565 S
H89 C77 0.929 . S
H90 C79 0.929 1_565 S
O91 Co66 2.351 . S
O91 C94 1.244 . S
O92 Co66 2.155 . S
O92 C94 1.239 . S
O93 Co66 2.096 1_565 S
O93 C74 1.247 . S
C94 O91 1.244 . S
C94 O92 1.239 . S
H95 C69 0.931 . S
H96 C78 0.931 . S
H97 C82 0.929 1_565 S
H98 C84 0.930 1_556 S
Co99 N103 2.148 1_455 S
Co99 N109 2.128 . S
Co99 N119 2.194 . S
Co99 O124 2.351 . S
Co99 O125 2.155 . S
Co99 O126 2.096 1_554 S
C100 N103 1.301 . S
C100 N104 1.328 . S
C100 H105 0.930 . S
C101 C102 1.333 1_556 S
C101 N103 1.308 1_556 S
C101 H106 0.938 . S
C102 C101 1.333 1_554 S
C102 N104 1.350 . S
C102 H128 0.931 1_554 S
N103 Co99 2.148 1_655 S
N103 C100 1.301 . S
N103 C101 1.308 1_554 S
N104 C100 1.328 . S
N104 C102 1.350 . S
H105 C100 0.930 . S
H106 C101 0.938 . S
C107 O108 1.224 . S
C107 O126 1.247 . S
O108 C107 1.224 . S
N109 Co99 2.128 . S
N109 C110 1.355 . S
N109 C112 1.311 . S
C110 N109 1.355 . S
C110 C111 1.363 . S
C110 H122 0.929 . S
C111 C110 1.363 . S
C111 N113 1.375 . S
C111 H129 0.931 . S
C112 N109 1.311 . S
C112 N113 1.347 . S
C112 H123 0.929 1_554 S
N113 C111 1.375 . S
N113 C112 1.347 . S
C114 C117 1.365 . S
C114 N119 1.328 . S
C114 H120 0.929 . S
C115 C116 1.362 . S
C115 C118 1.378 . S
C115 H130 0.929 1_554 S
C116 C115 1.362 . S
C116 C117 1.366 . S
C117 C114 1.365 . S
C117 C116 1.366 . S
C117 H131 0.930 . S
C118 C115 1.378 . S
C118 N119 1.315 . S
C118 H121 0.930 1_554 S
N119 Co99 2.194 . S
N119 C114 1.328 . S
N119 C118 1.315 . S
H120 C114 0.929 . S
H121 C118 0.930 1_556 S
H122 C110 0.929 . S
H123 C112 0.929 1_556 S
O124 Co99 2.351 . S
O124 C127 1.244 . S
O125 Co99 2.155 . S
O125 C127 1.240 . S
O126 Co99 2.096 1_556 S
O126 C107 1.247 . S
C127 O124 1.244 . S
C127 O125 1.240 . S
H128 C102 0.931 1_556 S
H129 C111 0.931 . S
H130 C115 0.929 1_556 S
H131 C117 0.930 . S
Co132 N136 2.148 . S
Co132 N142 2.128 . S
Co132 N152 2.194 . S
Co132 O157 2.351 . S
Co132 O158 2.155 . S
Co132 O159 2.096 . S
C133 N136 1.301 . S
C133 N137 1.328 . S
C133 H138 0.930 . S
C134 C135 1.333 . S
C134 N136 1.317 . S
C134 H139 0.930 . S
C135 C134 1.333 . S
C135 N137 1.350 . S
C135 H161 0.931 . S
N136 Co132 2.148 . S
N136 C133 1.301 . S
N136 C134 1.317 . S
N137 C133 1.328 . S
N137 C135 1.350 . S
H138 C133 0.930 . S
H139 C134 0.930 . S
C140 O141 1.224 . S
C140 O159 1.247 . S
O141 C140 1.224 . S
N142 Co132 2.128 . S
N142 C143 1.355 . S
N142 C145 1.311 . S
C143 N142 1.355 . S
C143 C144 1.363 . S
C143 H155 0.929 . S
C144 C143 1.363 . S
C144 N146 1.375 . S
C144 H162 0.931 . S
C145 N142 1.311 . S
C145 N146 1.347 . S
C145 H156 0.929 . S
N146 C144 1.375 . S
N146 C145 1.347 . S
C147 C150 1.365 . S
C147 N152 1.328 . S
C147 H153 0.929 . S
C148 C149 1.362 . S
C148 C151 1.378 . S
C148 H163 0.929 . S
C149 C148 1.362 . S
C149 C150 1.366 . S
C150 C147 1.365 . S
C150 C149 1.366 . S
C150 H164 0.930 . S
C151 C148 1.378 . S
C151 N152 1.315 . S
C151 H154 0.930 . S
N152 Co132 2.194 . S
N152 C147 1.328 . S
N152 C151 1.315 . S
H153 C147 0.929 . S
H154 C151 0.930 . S
H155 C143 0.929 . S
H156 C145 0.929 . S
O157 Co132 2.351 . S
O157 C160 1.244 . S
O158 Co132 2.155 . S
O158 C160 1.240 . S
O159 Co132 2.096 . S
O159 C140 1.247 . S
C160 O157 1.244 . S
C160 O158 1.240 . S
H161 C135 0.931 . S
H162 C144 0.931 . S
H163 C148 0.929 . S
H164 C150 0.930 . S
Co165 N169 2.148 . S
Co165 N175 2.128 . S
Co165 N185 2.194 . S
Co165 O190 2.351 . S
Co165 O191 2.155 . S
Co165 O192 2.096 . S
C166 N169 1.301 . S
C166 N170 1.328 . S
C166 H171 0.930 . S
C167 C168 1.333 . S
C167 N169 1.317 . S
C167 H172 0.930 . S
C168 C167 1.333 . S
C168 N170 1.350 . S
C168 H194 0.931 . S
N169 Co165 2.148 . S
N169 C166 1.301 . S
N169 C167 1.317 . S
N170 C166 1.328 . S
N170 C168 1.350 . S
H171 C166 0.930 . S
H172 C167 0.930 . S
C173 O174 1.224 . S
C173 O192 1.247 . S
O174 C173 1.224 . S
N175 Co165 2.128 . S
N175 C176 1.355 . S
N175 C178 1.311 . S
C176 N175 1.355 . S
C176 C177 1.363 . S
C176 H188 0.929 . S
C177 C176 1.363 . S
C177 N179 1.375 . S
C177 H195 0.931 . S
C178 N175 1.311 . S
C178 N179 1.347 . S
C178 H189 0.929 . S
N179 C177 1.375 . S
N179 C178 1.347 . S
C180 C183 1.365 . S
C180 N185 1.328 . S
C180 H186 0.929 . S
C181 C182 1.362 . S
C181 C184 1.378 . S
C181 H196 0.929 . S
C182 C181 1.362 . S
C182 C183 1.366 . S
C183 C180 1.365 . S
C183 C182 1.366 . S
C183 H197 0.930 . S
C184 C181 1.378 . S
C184 N185 1.315 . S
C184 H187 0.930 . S
N185 Co165 2.194 . S
N185 C180 1.328 . S
N185 C184 1.315 . S
H186 C180 0.929 . S
H187 C184 0.930 . S
H188 C176 0.929 . S
H189 C178 0.929 . S
O190 Co165 2.351 . S
O190 C193 1.244 . S
O191 Co165 2.155 . S
O191 C193 1.240 . S
O192 Co165 2.096 . S
O192 C173 1.247 . S
C193 O190 1.244 . S
C193 O191 1.240 . S
H194 C168 0.931 . S
H195 C177 0.931 . S
H196 C181 0.929 . S
H197 C183 0.930 . S
C198 C199 1.386 1_655 S
C198 C200 1.383 1_655 S
C198 H214 0.951 . S
C199 C198 1.386 1_455 S
C199 C203 1.383 . S
C200 C198 1.383 1_455 S
C200 C201 1.402 . S
C200 H215 0.951 1_455 S
C201 C200 1.402 . S
C201 C202 1.375 . S
C201 C204 1.481 . S
C202 C201 1.375 . S
C202 C203 1.367 . S
C202 H216 0.951 . S
C203 C199 1.383 . S
C203 C202 1.367 . S
C203 H217 0.950 . S
C204 C201 1.481 . S
C204 C205 1.297 . S
C204 H218 0.950 . S
C205 C204 1.297 . S
C205 C206 1.479 . S
C205 H219 0.950 . S
C206 C205 1.479 . S
C206 C207 1.380 . S
C206 C212 1.404 . S
C207 C206 1.380 . S
C207 C208 1.368 1_455 S
C207 H220 0.946 1_455 S
C208 C207 1.368 1_655 S
C208 C209 1.392 1_655 S
C208 H221 0.951 . S
C209 C208 1.392 1_455 S
C209 C211 1.384 . S
H210 C212 0.949 . S
C211 C209 1.384 . S
C211 C212 1.385 . S
C211 H213 0.950 . S
C212 C206 1.404 . S
C212 H210 0.949 . S
C212 C211 1.385 . S
H213 C211 0.950 . S
H214 C198 0.951 . S
H215 C200 0.951 1_655 S
H216 C202 0.951 . S
H217 C203 0.950 . S
H218 C204 0.950 . S
H219 C205 0.950 . S
H220 C207 0.946 1_655 S
H221 C208 0.951 . S
C222 C223 1.386 . S
C222 C224 1.383 . S
C222 H238 0.951 . S
C223 C222 1.386 . S
C223 C227 1.383 . S
C224 C222 1.383 . S
C224 C225 1.402 . S
C224 H239 0.951 . S
C225 C224 1.402 . S
C225 C226 1.375 . S
C225 C228 1.481 . S
C226 C225 1.375 . S
C226 C227 1.367 . S
C226 H240 0.951 . S
C227 C223 1.383 . S
C227 C226 1.367 . S
C227 H241 0.950 . S
C228 C225 1.481 . S
C228 C229 1.297 . S
C228 H242 0.950 . S
C229 C228 1.297 . S
C229 C230 1.479 . S
C229 H243 0.950 . S
C230 C229 1.479 . S
C230 C231 1.375 . S
C230 C236 1.404 . S
C231 C230 1.375 . S
C231 C232 1.369 . S
C231 H244 0.950 . S
C232 C231 1.369 . S
C232 C233 1.392 . S
C232 H245 0.951 1_545 S
C233 C232 1.392 . S
C233 C235 1.384 . S
H234 C236 0.949 . S
C235 C233 1.384 . S
C235 C236 1.385 . S
C235 H237 0.950 . S
C236 C230 1.404 . S
C236 H234 0.949 . S
C236 C235 1.385 . S
H237 C235 0.950 . S
H238 C222 0.951 . S
H239 C224 0.951 . S
H240 C226 0.951 . S
H241 C227 0.950 . S
H242 C228 0.950 . S
H243 C229 0.950 . S
H244 C231 0.950 . S
H245 C232 0.951 1_565 S
C246 C247 1.386 . S
C246 C248 1.383 . S
C246 H262 0.951 . S
C247 C246 1.386 . S
C247 C251 1.383 . S
C248 C246 1.383 . S
C248 C249 1.402 . S
C248 H263 0.951 . S
C249 C248 1.402 . S
C249 C250 1.375 . S
C249 C252 1.481 . S
C250 C249 1.375 . S
C250 C251 1.367 . S
C250 H264 0.951 . S
C251 C247 1.383 . S
C251 C250 1.367 . S
C251 H265 0.950 . S
C252 C249 1.481 . S
C252 C253 1.297 . S
C252 H266 0.950 . S
C253 C252 1.297 . S
C253 C254 1.479 . S
C253 H267 0.950 . S
C254 C253 1.479 . S
C254 C255 1.375 . S
C254 C260 1.404 . S
C255 C254 1.375 . S
C255 C256 1.369 . S
C255 H268 0.950 . S
C256 C255 1.369 . S
C256 C257 1.392 . S
C256 H269 0.951 . S
C257 C256 1.392 . S
C257 C259 1.384 . S
H258 C260 0.949 . S
C259 C257 1.384 . S
C259 C260 1.385 . S
C259 H261 0.950 . S
C260 C254 1.404 . S
C260 H258 0.949 . S
C260 C259 1.385 . S
H261 C259 0.950 . S
H262 C246 0.951 . S
H263 C248 0.951 . S
H264 C250 0.951 . S
H265 C251 0.950 . S
H266 C252 0.950 . S
H267 C253 0.950 . S
H268 C255 0.950 . S
H269 C256 0.951 . S
C270 C271 1.386 1_565 S
C270 C272 1.383 . S
C270 H286 0.951 . S
C271 C270 1.386 1_545 S
C271 C275 1.383 . S
C272 C270 1.383 . S
C272 C273 1.402 1_565 S
C272 H287 0.951 . S
C273 C272 1.402 1_545 S
C273 C274 1.375 . S
C273 C276 1.481 . S
C274 C273 1.375 . S
C274 C275 1.367 . S
C274 H288 0.951 . S
C275 C271 1.383 . S
C275 C274 1.367 . S
C275 H289 0.950 . S
C276 C273 1.481 . S
C276 C277 1.297 1_545 S
C276 H290 0.950 . S
C277 C276 1.297 1_565 S
C277 C278 1.479 1_565 S
C277 H291 0.950 . S
C278 C277 1.479 1_545 S
C278 C279 1.353 1_545 S
C278 C284 1.425 . S
C279 C278 1.353 1_565 S
C279 C280 1.369 . S
C279 H292 0.950 . S
C280 C279 1.369 . S
C280 C281 1.371 1_565 S
C280 H293 0.951 . S
C281 C280 1.371 1_545 S
C281 C283 1.409 . S
H282 C284 0.949 . S
C283 C281 1.409 . S
C283 C284 1.385 . S
C283 H285 0.950 . S
C284 C278 1.425 . S
C284 H282 0.949 . S
C284 C283 1.385 . S
H285 C283 0.950 . S
H286 C270 0.951 . S
H287 C272 0.951 . S
H288 C274 0.951 . S
H289 C275 0.950 . S
H290 C276 0.950 . S
H291 C277 0.950 . S
H292 C279 0.950 . S
H293 C280 0.951 . S
C294 C295 1.386 . S
C294 C296 1.383 . S
C294 H310 0.951 . S
C295 C294 1.386 . S
C295 C299 1.364 1_556 S
C296 C294 1.383 . S
C296 C297 1.402 . S
C296 H311 0.951 . S
C297 C296 1.402 . S
C297 C298 1.375 . S
C297 C300 1.481 . S
C298 C297 1.375 . S
C298 C299 1.355 1_556 S
C298 H312 0.951 . S
C299 C295 1.364 1_554 S
C299 C298 1.355 1_554 S
C299 H313 0.982 . S
C300 C297 1.481 . S
C300 C301 1.297 . S
C300 H314 0.950 . S
C301 C300 1.297 . S
C301 C302 1.479 . S
C301 H315 0.950 . S
C302 C301 1.479 . S
C302 C303 1.375 . S
C302 C308 1.423 . S
C303 C302 1.375 . S
C303 C304 1.369 1_565 S
C303 H316 0.950 . S
C304 C303 1.369 1_545 S
C304 C305 1.392 . S
C304 H317 0.951 . S
C305 C304 1.392 . S
C305 C307 1.384 . S
H306 C308 0.946 . S
C307 C305 1.384 . S
C307 C308 1.370 1_545 S
C307 H309 0.950 . S
C308 C302 1.423 . S
C308 H306 0.946 . S
C308 C307 1.370 1_565 S
H309 C307 0.950 . S
H310 C294 0.951 . S
H311 C296 0.951 . S
H312 C298 0.951 . S
H313 C299 0.982 . S
H314 C300 0.950 . S
H315 C301 0.950 . S
H316 C303 0.950 . S
H317 C304 0.951 . S
C318 C319 1.386 . S
C318 C320 1.383 . S
C318 H334 0.951 . S
C319 C318 1.386 . S
C319 C323 1.383 . S
C320 C318 1.383 . S
C320 C321 1.402 . S
C320 H335 0.951 . S
C321 C320 1.402 . S
C321 C322 1.375 . S
C321 C324 1.481 . S
C322 C321 1.375 . S
C322 C323 1.367 . S
C322 H336 0.951 . S
C323 C319 1.383 . S
C323 C322 1.367 . S
C323 H337 0.950 . S
C324 C321 1.481 . S
C324 C325 1.297 . S
C324 H338 0.950 . S
C325 C324 1.297 . S
C325 C326 1.479 . S
C325 H339 0.950 . S
C326 C325 1.479 . S
C326 C327 1.375 . S
C326 C332 1.404 . S
C327 C326 1.375 . S
C327 C328 1.369 . S
C327 H340 0.950 . S
C328 C327 1.369 . S
C328 C329 1.392 . S
C328 H341 0.951 . S
C329 C328 1.392 . S
C329 C331 1.384 . S
H330 C332 0.949 . S
C331 C329 1.384 . S
C331 C332 1.385 . S
C331 H333 0.950 . S
C332 C326 1.404 . S
C332 H330 0.949 . S
C332 C331 1.385 . S
H333 C331 0.950 . S
H334 C318 0.951 . S
H335 C320 0.951 . S
H336 C322 0.951 . S
H337 C323 0.950 . S
H338 C324 0.950 . S
H339 C325 0.950 . S
H340 C327 0.950 . S
H341 C328 0.951 . S
C342 C343 1.386 . S
C342 C344 1.383 . S
C342 H358 0.951 . S
C343 C342 1.386 . S
C343 C347 1.383 . S
C344 C342 1.383 . S
C344 C345 1.402 . S
C344 H359 0.951 . S
C345 C344 1.402 . S
C345 C346 1.375 . S
C345 C348 1.481 . S
C346 C345 1.375 . S
C346 C347 1.367 . S
C346 H360 0.951 . S
C347 C343 1.383 . S
C347 C346 1.367 . S
C347 H361 0.950 . S
C348 C345 1.481 . S
C348 C349 1.297 . S
C348 H362 0.950 . S
C349 C348 1.297 . S
C349 C350 1.479 . S
C349 H363 0.950 . S
C350 C349 1.479 . S
C350 C351 1.375 . S
C350 C356 1.404 . S
C351 C350 1.375 . S
C351 C352 1.369 . S
C351 H364 0.950 . S
C352 C351 1.369 . S
C352 C353 1.392 . S
C352 H365 0.951 . S
C353 C352 1.392 . S
C353 C355 1.384 . S
H354 C356 0.949 . S
C355 C353 1.384 . S
C355 C356 1.385 . S
C355 H357 0.950 . S
C356 C350 1.404 . S
C356 H354 0.949 . S
C356 C355 1.385 . S
H357 C355 0.950 . S
H358 C342 0.951 . S
H359 C344 0.951 . S
H360 C346 0.951 . S
H361 C347 0.950 . S
H362 C348 0.950 . S
H363 C349 0.950 . S
H364 C351 0.950 . S
H365 C352 0.951 . S
C366 C367 1.386 1_556 S
C366 C368 1.383 . S
C366 H382 0.951 . S
C367 C366 1.386 1_554 S
C367 C371 1.383 . S
C368 C366 1.383 . S
C368 C369 1.402 . S
C368 H383 0.951 . S
C369 C368 1.402 . S
C369 C370 1.375 . S
C369 C372 1.481 . S
C370 C369 1.375 . S
C370 C371 1.367 1_556 S
C370 H384 0.951 . S
C371 C367 1.383 . S
C371 C370 1.367 1_554 S
C371 H385 0.950 . S
C372 C369 1.481 . S
C372 C373 1.297 . S
C372 H386 0.950 . S
C373 C372 1.297 . S
C373 C374 1.479 . S
C373 H387 0.950 . S
C374 C373 1.479 . S
C374 C375 1.375 . S
C374 C380 1.404 . S
C375 C374 1.375 . S
C375 C376 1.369 . S
C375 H388 0.950 . S
C376 C375 1.369 . S
C376 C377 1.392 1_655 S
C376 H389 0.951 . S
C377 C376 1.392 1_455 S
C377 C379 1.384 . S
H378 C380 0.949 . S
C379 C377 1.384 . S
C379 C380 1.385 1_455 S
C379 H381 0.950 . S
C380 C374 1.404 . S
C380 H378 0.949 . S
C380 C379 1.385 1_655 S
H381 C379 0.950 . S
H382 C366 0.951 . S
H383 C368 0.951 . S
H384 C370 0.951 . S
H385 C371 0.950 . S
H386 C372 0.950 . S
H387 C373 0.950 . S
H388 C375 0.950 . S
H389 C376 0.951 . S
C390 C391 1.386 1_554 S
C390 C392 1.383 . S
C390 H406 0.951 . S
C391 C390 1.386 1_556 S
C391 C395 1.383 . S
C392 C390 1.383 . S
C392 C393 1.402 . S
C392 H407 0.951 . S
C393 C392 1.402 . S
C393 C394 1.375 1_554 S
C393 C396 1.481 . S
C394 C393 1.375 1_556 S
C394 C395 1.367 . S
C394 H408 0.951 . S
C395 C391 1.383 . S
C395 C394 1.367 . S
C395 H409 0.950 . S
C396 C393 1.481 . S
C396 C397 1.297 . S
C396 H410 0.950 . S
C397 C396 1.297 . S
C397 C398 1.479 . S
C397 H411 0.950 . S
C398 C397 1.479 . S
C398 C399 1.375 . S
C398 C404 1.404 . S
C399 C398 1.375 . S
C399 C400 1.369 . S
C399 H412 0.950 . S
C400 C399 1.369 . S
C400 C401 1.392 . S
C400 H413 0.951 . S
C401 C400 1.392 . S
C401 C403 1.384 . S
H402 C404 0.949 . S
C403 C401 1.384 . S
C403 C404 1.385 . S
C403 H405 0.950 . S
C404 C398 1.404 . S
C404 H402 0.949 . S
C404 C403 1.385 . S
H405 C403 0.950 . S
H406 C390 0.951 . S
H407 C392 0.951 . S
H408 C394 0.951 . S
H409 C395 0.950 . S
H410 C396 0.950 . S
H411 C397 0.950 . S
H412 C399 0.950 . S
H413 C400 0.951 . S
C414 C415 1.386 . S
C414 C416 1.383 . S
C414 H430 0.951 1_554 S
C415 C414 1.386 . S
C415 C419 1.383 . S
C416 C414 1.383 . S
C416 C417 1.402 . S
C416 H431 0.951 . S
C417 C416 1.402 . S
C417 C418 1.375 . S
C417 C420 1.481 . S
C418 C417 1.375 . S
C418 C419 1.367 . S
C418 H432 0.951 . S
C419 C415 1.383 . S
C419 C418 1.367 . S
C419 H433 0.950 . S
C420 C417 1.481 . S
C420 C421 1.297 . S
C420 H434 0.950 . S
C421 C420 1.297 . S
C421 C422 1.479 . S
C421 H435 0.950 . S
C422 C421 1.479 . S
C422 C423 1.375 . S
C422 C428 1.404 . S
C423 C422 1.375 . S
C423 C424 1.369 . S
C423 H436 0.950 . S
C424 C423 1.369 . S
C424 C425 1.392 . S
C424 H437 0.951 . S
C425 C424 1.392 . S
C425 C427 1.384 . S
H426 C428 0.949 . S
C427 C425 1.384 . S
C427 C428 1.385 . S
C427 H429 0.950 . S
C428 C422 1.404 . S
C428 H426 0.949 . S
C428 C427 1.385 . S
H429 C427 0.950 . S
H430 C414 0.951 1_556 S
H431 C416 0.951 . S
H432 C418 0.951 . S
H433 C419 0.950 . S
H434 C420 0.950 . S
H435 C421 0.950 . S
H436 C423 0.950 . S
H437 C424 0.951 . S
C438 C439 1.386 . S
C438 C440 1.383 . S
C438 H454 0.951 . S
C439 C438 1.386 . S
C439 C443 1.383 . S
C440 C438 1.383 . S
C440 C441 1.402 . S
C440 H455 0.951 . S
C441 C440 1.402 . S
C441 C442 1.375 . S
C441 C444 1.481 . S
C442 C441 1.375 . S
C442 C443 1.367 . S
C442 H456 0.951 . S
C443 C439 1.383 . S
C443 C442 1.367 . S
C443 H457 0.950 . S
C444 C441 1.481 . S
C444 C445 1.297 . S
C444 H458 0.950 . S
C445 C444 1.297 . S
C445 C446 1.479 . S
C445 H459 0.950 . S
C446 C445 1.479 . S
C446 C447 1.375 . S
C446 C452 1.404 . S
C447 C446 1.375 . S
C447 C448 1.369 . S
C447 H460 0.950 . S
C448 C447 1.369 . S
C448 C449 1.392 . S
C448 H461 0.951 . S
C449 C448 1.392 . S
C449 C451 1.384 . S
H450 C452 0.949 . S
C451 C449 1.384 . S
C451 C452 1.385 . S
C451 H453 0.950 . S
C452 C446 1.404 . S
C452 H450 0.949 . S
C452 C451 1.385 . S
H453 C451 0.950 . S
H454 C438 0.951 . S
H455 C440 0.951 . S
H456 C442 0.951 . S
H457 C443 0.950 . S
H458 C444 0.950 . S
H459 C445 0.950 . S
H460 C447 0.950 . S
H461 C448 0.951 . S
C462 C463 1.386 . S
C462 C464 1.383 1_455 S
C462 H478 0.951 . S
C463 C462 1.386 . S
C463 C467 1.383 . S
C464 C462 1.383 1_655 S
C464 C465 1.402 . S
C464 H479 0.951 . S
C465 C464 1.402 . S
C465 C466 1.375 . S
C465 C468 1.481 . S
C466 C465 1.375 . S
C466 C467 1.367 1_655 S
C466 H480 0.951 . S
C467 C463 1.383 . S
C467 C466 1.367 1_455 S
C467 H481 0.950 . S
C468 C465 1.481 . S
C468 C469 1.297 . S
C468 H482 0.950 . S
C469 C468 1.297 . S
C469 C470 1.479 . S
C469 H483 0.950 . S
C470 C469 1.479 . S
C470 C471 1.375 . S
C470 C476 1.404 . S
C471 C470 1.375 . S
C471 C472 1.369 . S
C471 H484 0.950 . S
C472 C471 1.369 . S
C472 C473 1.392 . S
C472 H485 0.951 . S
C473 C472 1.392 . S
C473 C475 1.384 . S
H474 C476 0.949 . S
C475 C473 1.384 . S
C475 C476 1.385 . S
C475 H477 0.948 1_565 S
C476 C470 1.404 . S
C476 H474 0.949 . S
C476 C475 1.385 . S
H477 C475 0.948 1_545 S
H478 C462 0.951 . S
H479 C464 0.951 . S
H480 C466 0.951 . S
H481 C467 0.950 . S
H482 C468 0.950 . S
H483 C469 0.950 . S
H484 C471 0.950 . S
H485 C472 0.951 . S
C486 C487 1.386 . S
C486 C488 1.383 . S
C486 H502 0.951 . S
C487 C486 1.386 . S
C487 C491 1.383 . S
C488 C486 1.383 . S
C488 C489 1.402 . S
C488 H503 0.951 . S
C489 C488 1.402 . S
C489 C490 1.375 . S
C489 C492 1.481 . S
C490 C489 1.375 . S
C490 C491 1.367 . S
C490 H504 0.951 . S
C491 C487 1.383 . S
C491 C490 1.367 . S
C491 H505 0.950 . S
C492 C489 1.481 . S
C492 C493 1.297 . S
C492 H506 0.950 . S
C493 C492 1.297 . S
C493 C494 1.479 . S
C493 H507 0.950 . S
C494 C493 1.479 . S
C494 C495 1.375 . S
C494 C500 1.404 . S
C495 C494 1.375 . S
C495 C496 1.369 . S
C495 H508 0.950 . S
C496 C495 1.369 . S
C496 C497 1.392 . S
C496 H509 0.951 1_455 S
C497 C496 1.392 . S
C497 C499 1.384 . S
H498 C500 0.949 . S
C499 C497 1.384 . S
C499 C500 1.385 . S
C499 H501 0.950 . S
C500 C494 1.404 . S
C500 H498 0.949 . S
C500 C499 1.385 . S
H501 C499 0.950 . S
H502 C486 0.951 . S
H503 C488 0.951 . S
H504 C490 0.951 . S
H505 C491 0.950 . S
H506 C492 0.950 . S
H507 C493 0.950 . S
H508 C495 0.950 . S
H509 C496 0.951 1_655 S
C510 C511 1.386 . S
C510 C512 1.383 . S
C510 H526 0.951 . S
C511 C510 1.386 . S
C511 C515 1.383 . S
C512 C510 1.383 . S
C512 C513 1.402 . S
C512 H527 0.951 . S
C513 C512 1.402 . S
C513 C514 1.375 . S
C513 C516 1.481 . S
C514 C513 1.375 . S
C514 C515 1.367 . S
C514 H528 0.951 . S
C515 C511 1.383 . S
C515 C514 1.367 . S
C515 H529 0.950 . S
C516 C513 1.481 . S
C516 C517 1.297 . S
C516 H530 0.950 . S
C517 C516 1.297 . S
C517 C518 1.479 . S
C517 H531 0.950 . S
C518 C517 1.479 . S
C518 C519 1.375 . S
C518 C524 1.404 . S
C519 C518 1.375 . S
C519 C520 1.369 1_554 S
C519 H532 0.950 1_554 S
C520 C519 1.369 1_556 S
C520 C521 1.392 1_556 S
C520 H533 0.951 . S
C521 C520 1.392 1_554 S
C521 C523 1.384 . S
H522 C524 0.949 . S
C523 C521 1.384 . S
C523 C524 1.385 . S
C523 H525 0.950 . S
C524 C518 1.404 . S
C524 H522 0.949 . S
C524 C523 1.385 . S
H525 C523 0.950 . S
H526 C510 0.951 . S
H527 C512 0.951 . S
H528 C514 0.951 . S
H529 C515 0.950 . S
H530 C516 0.950 . S
H531 C517 0.950 . S
H532 C519 0.950 1_556 S
H533 C520 0.951 . S
C534 C535 1.386 . S
C534 C536 1.383 . S
C534 H550 0.951 . S
C535 C534 1.386 . S
C535 C539 1.383 . S
C536 C534 1.383 . S
C536 C537 1.402 . S
C536 H551 0.951 . S
C537 C536 1.402 . S
C537 C538 1.375 . S
C537 C540 1.481 . S
C538 C537 1.375 . S
C538 C539 1.367 . S
C538 H552 0.951 . S
C539 C535 1.383 . S
C539 C538 1.367 . S
C539 H553 0.950 . S
C540 C537 1.481 . S
C540 C541 1.297 . S
C540 H554 0.950 . S
C541 C540 1.297 . S
C541 C542 1.479 . S
C541 H555 0.950 . S
C542 C541 1.479 . S
C542 C543 1.375 . S
C542 C548 1.404 . S
C543 C542 1.375 . S
C543 C544 1.369 . S
C543 H556 0.950 . S
C544 C543 1.369 . S
C544 C545 1.392 . S
C544 H557 0.951 . S
C545 C544 1.392 . S
C545 C547 1.384 . S
H546 C548 0.949 . S
C547 C545 1.384 . S
C547 C548 1.385 . S
C547 H549 0.950 1_554 S
C548 C542 1.404 . S
C548 H546 0.949 . S
C548 C547 1.385 . S
H549 C547 0.950 1_556 S
H550 C534 0.951 . S
H551 C536 0.951 . S
H552 C538 0.951 . S
H553 C539 0.950 . S
H554 C540 0.950 . S
H555 C541 0.950 . S
H556 C543 0.950 . S
H557 C544 0.951 . S
C199 C127 1.412 . S
C209 N14 1.252 . S
C223 C140 0.659 . S
C233 C8 0.532 . S
C247 N5 0.830 . S
C257 N170 0.643 . S
C271 N80 1.326 . S
C281 C28 1.424 . S
C295 N179 1.340 1_556 S
C305 C41 1.450 . S
C319 N71 0.816 . S
C329 N47 0.380 . S
C343 C61 0.577 . S
C353 C107 0.624 . S
C367 C160 1.418 . S
C377 N38 1.290 . S
C391 C94 1.395 1_556 S
C401 N113 1.257 . S
C415 C74 0.502 . S
C425 C173 0.627 . S
C439 N137 0.674 . S
C449 N104 0.871 . S
C463 C193 1.466 . S
C473 N146 1.418 1_565 S
C487 C50 1.070 . S
C497 C17 1.044 . S
C511 C149 0.909 . S
C521 C83 0.944 . S
C535 C182 0.869 . S
C545 C116 0.960 . S
