# Generated by pormake.
# Topology yfg, (5)-cn, num edge types: 1
# Building blocks:
#     Node 0, Type 0, BuildingBlock: XOMCOT_clean_sbu_0, # of connection points: 5
#     Node 1, Type 0, BuildingBlock: XOMCOT_clean_sbu_0, # of connection points: 5
#     Node 2, Type 0, BuildingBlock: XOMCOT_clean_sbu_0, # of connection points: 5
#     Node 3, Type 0, BuildingBlock: XOMCOT_clean_sbu_0, # of connection points: 5
#     Node 4, Type 0, BuildingBlock: XOMCOT_clean_sbu_0, # of connection points: 5
#     Node 5, Type 0, BuildingBlock: XOMCOT_clean_sbu_0, # of connection points: 5
#     Node 6, Type 0, BuildingBlock: XOMCOT_clean_sbu_0, # of connection points: 5
#     Node 7, Type 0, BuildingBlock: XOMCOT_clean_sbu_0, # of connection points: 5
#     Edge 8, Type (0, 0), BuildingBlock: CIFDUS_clean_linker_0, # of connection points: 2
#     Edge 9, Type (0, 0), BuildingBlock: CIFDUS_clean_linker_0, # of connection points: 2
#     Edge 10, Type (0, 0), BuildingBlock: CIFDUS_clean_linker_0, # of connection points: 2
#     Edge 11, Type (0, 0), BuildingBlock: CIFDUS_clean_linker_0, # of connection points: 2
#     Edge 12, Type (0, 0), BuildingBlock: CIFDUS_clean_linker_0, # of connection points: 2
#     Edge 13, Type (0, 0), BuildingBlock: CIFDUS_clean_linker_0, # of connection points: 2
#     Edge 14, Type (0, 0), BuildingBlock: CIFDUS_clean_linker_0, # of connection points: 2
#     Edge 15, Type (0, 0), BuildingBlock: CIFDUS_clean_linker_0, # of connection points: 2
#     Edge 16, Type (0, 0), BuildingBlock: CIFDUS_clean_linker_0, # of connection points: 2
#     Edge 17, Type (0, 0), BuildingBlock: CIFDUS_clean_linker_0, # of connection points: 2
#     Edge 18, Type (0, 0), BuildingBlock: CIFDUS_clean_linker_0, # of connection points: 2
#     Edge 19, Type (0, 0), BuildingBlock: CIFDUS_clean_linker_0, # of connection points: 2
#     Edge 20, Type (0, 0), BuildingBlock: CIFDUS_clean_linker_0, # of connection points: 2
#     Edge 21, Type (0, 0), BuildingBlock: CIFDUS_clean_linker_0, # of connection points: 2
#     Edge 22, Type (0, 0), BuildingBlock: CIFDUS_clean_linker_0, # of connection points: 2
#     Edge 23, Type (0, 0), BuildingBlock: CIFDUS_clean_linker_0, # of connection points: 2
#     Edge 24, Type (0, 0), BuildingBlock: CIFDUS_clean_linker_0, # of connection points: 2
#     Edge 25, Type (0, 0), BuildingBlock: CIFDUS_clean_linker_0, # of connection points: 2
#     Edge 26, Type (0, 0), BuildingBlock: CIFDUS_clean_linker_0, # of connection points: 2
#     Edge 27, Type (0, 0), BuildingBlock: CIFDUS_clean_linker_0, # of connection points: 2
# Relax obj value: 0.349
# Max RMSD: 0.196
# Mean RMSD: 0.196
data_MOF--net-yfg--node1-XOMCOT_clean_sbu_0--edge1-CIFDUS_clean_linker_0
_symmetry_space_group_name_H-M    P1
_symmetry_Int_Tables_number       1
_symmetry_cell_setting            triclinic
loop_
_symmetry_equiv_pos_as_xyz
'x, y, z'
_cell_length_a     30.711969
_cell_length_b     30.563167
_cell_length_c     38.427072
_cell_angle_alpha  89.848464
_cell_angle_beta   89.85283
_cell_angle_gamma 89.579209
loop_
_atom_site_label
_atom_site_type_symbol
_atom_site_fract_x
_atom_site_fract_y
_atom_site_fract_z
_atom_type_partial_charge
Co0 Co 0.28246 0.49065 0.05309 0.0
C1 C 0.31537 0.54136 0.99097 0.0
C2 C 0.31304 0.4723 0.9816 0.0
C3 C 0.32943 0.49244 0.95246 0.0
N4 N 0.30422 0.50271 1.00606 0.0
N5 N 0.33127 0.53587 0.95825 0.0
H6 H 0.31314 0.57271 1.00387 0.0
H7 H 0.30835 0.4375 0.98441 0.0
C8 C 0.3032 0.39391 0.062 0.0
O9 O 0.29917 0.35441 0.0491 0.0
N10 N 0.26025 0.47763 0.09943 0.0
C11 C 0.22593 0.45162 0.10611 0.0
C12 C 0.21986 0.44889 0.14141 0.0
C13 C 0.27496 0.4899 0.13109 0.0
N14 N 0.2508 0.47278 0.15718 0.0
C15 C 0.19509 0.52284 0.04953 0.0
C16 C 0.16291 0.45944 1.00554 0.0
C17 C 0.13353 0.48929 0.02078 0.0
C18 C 0.1505 0.52193 0.04239 0.0
C19 C 0.20742 0.46154 0.01331 0.0
N20 N 0.22278 0.49218 0.03591 0.0
H21 H 0.20714 0.54706 0.06744 0.0
H22 H 0.22909 0.43753 1.002 0.0
H23 H 0.20672 0.43522 0.08664 0.0
H24 H 0.30319 0.51004 0.13523 0.0
O25 O 0.28837 0.55152 0.06517 0.0
O26 O 0.33989 0.50099 0.0715 0.0
O27 O 0.28741 0.42595 0.04447 0.0
C28 C 0.32773 0.54165 0.07498 0.0
H29 H 0.33931 0.4761 0.92874 0.0
H30 H 0.19422 0.43095 0.15432 0.0
H31 H 0.15151 0.43362 0.98869 0.0
H32 H 0.12946 0.54637 0.05414 0.0
Co33 Co 0.4959 0.28417 0.3038 0.0
C34 C 0.45845 0.33657 0.24466 0.0
C35 C 0.52824 0.33536 0.24443 0.0
C36 C 0.51405 0.35831 0.21573 0.0
N37 N 0.4935 0.32179 0.26278 0.0
N38 N 0.47 0.35929 0.21565 0.0
H39 H 0.42523 0.33004 0.25216 0.0
H40 H 0.56176 0.32777 0.25071 0.0
C41 C 0.58145 0.30106 0.34076 0.0
O42 O 0.58292 0.26137 0.3539 0.0
N43 N 0.49689 0.24584 0.34424 0.0
C44 C 0.49126 0.20209 0.34405 0.0
C45 C 0.49149 0.18692 0.37763 0.0
C46 C 0.49831 0.25691 0.37828 0.0
N47 N 0.49616 0.22131 0.39909 0.0
C48 C 0.48995 0.21447 0.2551 0.0
C49 C 0.56881 0.17574 0.27155 0.0
C50 C 0.5366 0.15015 0.25586 0.0
C51 C 0.49791 0.17099 0.24539 0.0
C52 C 0.55965 0.21927 0.28042 0.0
N53 N 0.51909 0.23662 0.27512 0.0
H54 H 0.45842 0.22872 0.24958 0.0
H55 H 0.58425 0.23746 0.29369 0.0
H56 H 0.48638 0.18223 0.32127 0.0
H57 H 0.50218 0.29007 0.38754 0.0
O58 O 0.43384 0.27182 0.30045 0.0
O59 O 0.46364 0.32621 0.33015 0.0
O60 O 0.55494 0.31032 0.31599 0.0
C61 C 0.42904 0.30473 0.32166 0.0
H62 H 0.53505 0.37159 0.19577 0.0
H63 H 0.48781 0.15319 0.38571 0.0
H64 H 0.59993 0.16153 0.27874 0.0
H65 H 0.47234 0.15286 0.23267 0.0
Co66 Co 0.7437 0.51745 0.56454 0.0
C67 C 0.70677 0.467 0.50561 0.0
C68 C 0.68834 0.53459 0.50237 0.0
C69 C 0.66996 0.51246 0.47475 0.0
N70 N 0.71123 0.50594 0.52192 0.0
N71 N 0.68145 0.46979 0.47688 0.0
H72 H 0.72211 0.43706 0.51437 0.0
H73 H 0.68487 0.56913 0.50776 0.0
C74 C 0.7198 0.60681 0.59261 0.0
O75 O 0.75912 0.61178 0.60527 0.0
N76 N 0.7764 0.52682 0.60687 0.0
C77 C 0.82002 0.52633 0.61091 0.0
C78 C 0.82933 0.52888 0.64587 0.0
C79 C 0.75985 0.52833 0.63942 0.0
N80 N 0.79143 0.52998 0.66363 0.0
C81 C 0.8156 0.50936 0.51891 0.0
C82 C 0.84938 0.59197 0.5281 0.0
C83 C 0.87668 0.55883 0.51482 0.0
C84 C 0.85793 0.51805 0.50781 0.0
C85 C 0.80654 0.58206 0.53802 0.0
N86 N 0.79178 0.54005 0.53647 0.0
H87 H 0.80314 0.47672 0.51552 0.0
H88 H 0.78658 0.60785 0.54827 0.0
H89 H 0.84361 0.52268 0.59021 0.0
H90 H 0.72536 0.5281 0.64525 0.0
O91 O 0.76224 0.45652 0.56753 0.0
O92 O 0.70193 0.48473 0.59072 0.0
O93 O 0.71188 0.57593 0.57087 0.0
C94 C 0.72741 0.45116 0.58635 0.0
H95 H 0.64894 0.5267 0.45514 0.0
H96 H 0.86144 0.52814 0.6574 0.0
H97 H 0.86155 0.62455 0.53284 0.0
H98 H 0.87655 0.49206 0.49559 0.0
Co99 Co 0.50255 0.75237 0.80934 0.0
C100 C 0.53927 0.70608 0.74737 0.0
C101 C 0.47093 0.69421 0.75328 0.0
C102 C 0.48565 0.6727 0.72394 0.0
N103 N 0.50461 0.71494 0.76824 0.0
N104 N 0.52866 0.6802 0.72015 0.0
H105 H 0.57174 0.7181 0.75197 0.0
H106 H 0.43768 0.69508 0.76254 0.0
C107 C 0.41647 0.73895 0.84676 0.0
O108 O 0.41688 0.77879 0.85946 0.0
N109 N 0.50241 0.79031 0.84969 0.0
C110 C 0.51043 0.83361 0.84982 0.0
C111 C 0.51564 0.84709 0.8836 0.0
C112 C 0.50385 0.77794 0.88344 0.0
N113 N 0.51157 0.81207 0.9048 0.0
C114 C 0.51017 0.81973 0.75904 0.0
C115 C 0.43205 0.8617 0.77275 0.0
C116 C 0.46433 0.88431 0.75421 0.0
C117 C 0.50292 0.86175 0.7459 0.0
C118 C 0.4406 0.81934 0.78525 0.0
N119 N 0.48056 0.8003 0.78051 0.0
H120 H 0.54125 0.80421 0.75412 0.0
H121 H 0.4157 0.80326 0.79997 0.0
H122 H 0.51475 0.8538 0.82699 0.0
H123 H 0.50006 0.74442 0.89194 0.0
O124 O 0.5648 0.76352 0.80565 0.0
O125 O 0.53432 0.70942 0.83551 0.0
O126 O 0.44296 0.72788 0.82232 0.0
C127 C 0.56928 0.73018 0.82652 0.0
H128 H 0.46586 0.65371 0.70637 0.0
H129 H 0.52417 0.87983 0.89161 0.0
H130 H 0.40105 0.87712 0.77862 0.0
H131 H 0.52883 0.87742 0.73147 0.0
Co132 Co 0.27493 0.50964 0.45868 0.0
C133 C 0.31925 0.4755 0.52243 0.0
C134 C 0.32369 0.54532 0.51879 0.0
C135 C 0.34407 0.53165 0.54897 0.0
N136 N 0.30829 0.51006 0.50195 0.0
N137 N 0.34109 0.4877 0.55131 0.0
H138 H 0.31144 0.44193 0.51652 0.0
H139 H 0.31984 0.57882 0.51016 0.0
C140 C 0.29535 0.59331 0.41874 0.0
O141 O 0.25941 0.59061 0.40053 0.0
N142 N 0.24149 0.50681 0.41595 0.0
C143 C 0.19959 0.49404 0.41381 0.0
C144 C 0.19033 0.48367 0.37988 0.0
C145 C 0.25738 0.5029 0.38323 0.0
N146 N 0.22668 0.48929 0.3608 0.0
C147 C 0.20924 0.51073 0.5106 0.0
C148 C 0.15675 0.5737 0.48007 0.0
C149 C 0.13846 0.54595 0.50535 0.0
C150 C 0.16664 0.5166 0.52252 0.0
C151 C 0.20032 0.56796 0.46993 0.0
N152 N 0.22481 0.53442 0.48322 0.0
H153 H 0.22853 0.48447 0.52159 0.0
H154 H 0.21239 0.58767 0.44901 0.0
H155 H 0.17811 0.4891 0.43578 0.0
H156 H 0.29135 0.50702 0.37644 0.0
O157 O 0.26183 0.44791 0.46466 0.0
O158 O 0.31947 0.47511 0.43705 0.0
O159 O 0.30132 0.56865 0.44548 0.0
C160 C 0.29693 0.44119 0.44625 0.0
H161 H 0.35908 0.55262 0.56808 0.0
H162 H 0.15986 0.47096 0.37023 0.0
H163 H 0.13706 0.59737 0.46612 0.0
H164 H 0.15529 0.49599 0.54356 0.0
Co165 Co 0.50845 0.27843 0.70322 0.0
C166 C 0.56199 0.31841 0.75931 0.0
C167 C 0.49374 0.32795 0.76845 0.0
C168 C 0.51659 0.34685 0.79537 0.0
N169 N 0.52223 0.31035 0.74564 0.0
N170 N 0.55964 0.34095 0.7896 0.0
H171 H 0.59218 0.30746 0.74767 0.0
H172 H 0.45871 0.32705 0.76588 0.0
C173 C 0.41691 0.29836 0.68098 0.0
O174 O 0.41091 0.25737 0.67207 0.0
N175 N 0.49598 0.24621 0.66094 0.0
C176 C 0.49635 0.20246 0.6564 0.0
C177 C 0.4913 0.19363 0.62163 0.0
C178 C 0.49091 0.26331 0.62873 0.0
N179 N 0.48819 0.2319 0.60425 0.0
C180 C 0.52138 0.19972 0.74141 0.0
C181 C 0.435 0.17692 0.74892 0.0
C182 C 0.46732 0.14484 0.75356 0.0
C183 C 0.51094 0.15729 0.75166 0.0
C184 C 0.44698 0.21922 0.73838 0.0
N185 N 0.48963 0.22879 0.73167 0.0
H186 H 0.5553 0.20775 0.73861 0.0
H187 H 0.42174 0.24329 0.73452 0.0
H188 H 0.50127 0.17823 0.67646 0.0
H189 H 0.49108 0.29804 0.62316 0.0
O190 O 0.5694 0.26231 0.69658 0.0
O191 O 0.53719 0.32203 0.67572 0.0
O192 O 0.44921 0.30859 0.70039 0.0
C193 C 0.57174 0.29756 0.67769 0.0
H194 H 0.50241 0.3642 0.81718 0.0
H195 H 0.49086 0.16142 0.61001 0.0
H196 H 0.40088 0.16878 0.75149 0.0
H197 H 0.53683 0.13371 0.75625 0.0
Co198 Co 0.74058 0.53135 0.96257 0.0
C199 C 0.69747 0.56321 0.02723 0.0
C200 C 0.67265 0.50072 0.01222 0.0
C201 C 0.65111 0.51435 0.04186 0.0
N202 N 0.70191 0.53132 1.00299 0.0
N203 N 0.66666 0.55377 0.05133 0.0
H204 H 0.71672 0.59266 0.02749 0.0
H205 H 0.66683 0.47057 0.99847 0.0
C206 C 0.72828 0.44681 0.92265 0.0
O207 O 0.767 0.44925 0.90826 0.0
N208 N 0.77961 0.53387 0.92276 0.0
C209 C 0.82289 0.54113 0.92362 0.0
C210 C 0.83785 0.54683 0.89027 0.0
C211 C 0.76869 0.53687 0.88878 0.0
N212 N 0.80378 0.54418 0.86837 0.0
C213 C 0.80704 0.53865 0.01373 0.0
C214 C 0.85076 0.46213 0.99714 0.0
C215 C 0.87227 0.4938 0.01693 0.0
C216 C 0.84894 0.5314 0.02676 0.0
C217 C 0.80841 0.47034 0.98515 0.0
N218 N 0.78831 0.50958 0.99148 0.0
H219 H 0.79127 0.56952 0.01921 0.0
H220 H 0.79352 0.44631 0.96882 0.0
H221 H 0.84242 0.54371 0.94681 0.0
H222 H 0.73564 0.53448 0.87932 0.0
O223 O 0.74919 0.5942 0.96735 0.0
O224 O 0.69733 0.56219 0.93646 0.0
O225 O 0.71851 0.47085 0.94894 0.0
C226 C 0.71598 0.59787 0.9465 0.0
H227 H 0.6255 0.49669 0.05508 0.0
H228 H 0.87131 0.5527 0.88281 0.0
H229 H 0.86721 0.43208 0.98973 0.0
H230 H 0.86412 0.55667 0.04216 0.0
Co231 Co 0.53867 0.73762 0.20627 0.0
C232 C 0.48054 0.71775 0.266 0.0
C233 C 0.54475 0.6914 0.27353 0.0
C234 C 0.51872 0.67814 0.30082 0.0
N235 N 0.52083 0.71628 0.25173 0.0
N236 N 0.47815 0.69446 0.29607 0.0
H237 H 0.45328 0.7344 0.25393 0.0
H238 H 0.57823 0.68167 0.26911 0.0
C239 C 0.63527 0.72132 0.20764 0.0
O240 O 0.67293 0.72757 0.22284 0.0
N241 N 0.55669 0.75984 0.16112 0.0
C242 C 0.58124 0.79583 0.15622 0.0
C243 C 0.58392 0.80467 0.12124 0.0
C244 C 0.54529 0.74692 0.12878 0.0
N245 N 0.56145 0.77384 0.10417 0.0
C246 C 0.49697 0.82122 0.20514 0.0
C247 C 0.55569 0.86428 0.24707 0.0
C248 C 0.52487 0.88931 0.22843 0.0
C249 C 0.49402 0.86663 0.20859 0.0
C250 C 0.55691 0.81856 0.24351 0.0
N251 N 0.52919 0.79792 0.22126 0.0
H252 H 0.47477 0.8051 0.18771 0.0
H253 H 0.58167 0.80026 0.25728 0.0
H254 H 0.59577 0.81488 0.17673 0.0
H255 H 0.52434 0.71966 0.12306 0.0
O256 O 0.48129 0.725 0.18832 0.0
O257 O 0.53683 0.6785 0.18893 0.0
O258 O 0.60117 0.73813 0.22168 0.0
C259 C 0.49631 0.6861 0.18129 0.0
H260 H 0.52848 0.65602 0.32144 0.0
H261 H 0.60067 0.83188 0.10923 0.0
H262 H 0.58013 0.87978 0.26297 0.0
H263 H 0.46841 0.88381 0.19477 0.0
H264 H 0.26965 0.53526 0.31218 0.0
H265 H 0.19699 0.41714 0.32932 0.0
H266 H 0.20181 0.39934 0.26745 0.0
H267 H 0.22262 0.41964 0.20839 0.0
H268 H 0.29049 0.54064 0.18974 0.0
H269 H 0.29283 0.55451 0.25226 0.0
C270 C 0.25536 0.50549 0.30219 0.0
C271 C 0.23257 0.47773 0.32491 0.0
C272 C 0.2574 0.49606 0.26642 0.0
C273 C 0.21398 0.43925 0.31202 0.0
C274 C 0.21689 0.42904 0.27676 0.0
C275 C 0.23765 0.44925 0.21783 0.0
C276 C 0.25568 0.47932 0.19416 0.0
C277 C 0.23767 0.45769 0.25364 0.0
C278 C 0.27638 0.51679 0.2072 0.0
C279 C 0.27747 0.52494 0.24301 0.0
H280 H 0.46598 0.27998 0.44591 0.0
H281 H 0.53582 0.15776 0.43571 0.0
H282 H 0.53998 0.15072 0.49876 0.0
H283 H 0.52279 0.17819 0.55648 0.0
H284 H 0.45166 0.29936 0.56838 0.0
H285 H 0.4495 0.30846 0.50498 0.0
C286 C 0.48236 0.25211 0.45764 0.0
C287 C 0.50019 0.21919 0.4363 0.0
C288 C 0.48434 0.24808 0.49409 0.0
C289 C 0.5212 0.18306 0.45167 0.0
C290 C 0.52375 0.17911 0.48768 0.0
C291 C 0.50635 0.20635 0.54528 0.0
C292 C 0.48701 0.23776 0.56708 0.0
C293 C 0.50501 0.2111 0.50908 0.0
C294 C 0.46694 0.27476 0.5521 0.0
C295 C 0.46557 0.27988 0.51589 0.0
H296 H 0.84221 0.57073 0.70959 0.0
H297 H 0.72816 0.49025 0.70098 0.0
H298 H 0.72059 0.48886 0.76437 0.0
H299 H 0.74862 0.50803 0.82228 0.0
H300 H 0.86208 0.58986 0.83028 0.0
H301 H 0.868 0.59284 0.76713 0.0
C302 C 0.81583 0.55283 0.72168 0.0
C303 C 0.78599 0.53046 0.70078 0.0
C304 C 0.8117 0.55227 0.75799 0.0
C305 C 0.75138 0.50799 0.71659 0.0
C306 C 0.74716 0.50702 0.7528 0.0
C307 C 0.77423 0.52702 0.81021 0.0
C308 C 0.80512 0.54829 0.83105 0.0
C309 C 0.77734 0.52883 0.77377 0.0
C310 C 0.83841 0.57242 0.81493 0.0
C311 C 0.8417 0.57437 0.77879 0.0
H312 H 0.53198 0.74176 0.94516 0.0
H313 H 0.5047 0.8806 0.94904 0.0
H314 H 0.51906 0.88088 0.01116 0.0
H315 H 0.5398 0.84217 0.0645 0.0
H316 H 0.56307 0.70319 0.06226 0.0
H317 H 0.54926 0.70221 0.99928 0.0
C318 C 0.52861 0.77203 0.95949 0.0
C319 C 0.51773 0.81124 0.94203 0.0
C320 C 0.53624 0.77191 0.99553 0.0
C321 C 0.51393 0.8501 0.96139 0.0
C322 C 0.52188 0.8503 0.99706 0.0
C323 C 0.54198 0.8118 0.05005 0.0
C324 C 0.5527 0.7729 0.06755 0.0
C325 C 0.53335 0.81153 0.01431 0.0
C326 C 0.55469 0.73343 0.04903 0.0
C327 C 0.54691 0.73296 0.01317 0.0
H328 H 0.06775 0.5025 0.06784 0.0
H329 H 0.09089 0.46828 0.96041 0.0
H330 H 0.01256 0.46319 0.95068 0.0
H331 H 0.93719 0.47178 0.97186 0.0
H332 H 0.91405 0.50907 0.0785 0.0
H333 H 0.99256 0.5101 0.08921 0.0
C334 C 0.05577 0.49433 0.04217 0.0
C335 C 0.08552 0.48598 0.01489 0.0
C336 C 0.01055 0.49199 0.0366 0.0
C337 C 0.06905 0.47447 0.98204 0.0
C338 C 0.02414 0.47176 0.97638 0.0
C339 C 0.94933 0.47938 0.99761 0.0
C340 C 0.91974 0.49007 0.02442 0.0
C341 C 0.99457 0.48066 1.0034 0.0
C342 C 0.93609 0.50078 0.05743 0.0
C343 C 0.98098 0.50142 0.06354 0.0
H344 H 0.51556 0.09483 0.20247 0.0
H345 H 0.56598 0.09583 0.30711 0.0
H346 H 0.56683 0.01599 0.30821 0.0
H347 H 0.54994 0.94566 0.28062 0.0
H348 H 0.50344 0.94475 0.17457 0.0
H349 H 0.50321 0.02419 0.17346 0.0
C350 C 0.52696 0.07755 0.22543 0.0
C351 C 0.54089 0.10147 0.25456 0.0
C352 C 0.52735 0.03141 0.22596 0.0
C353 C 0.55577 0.07841 0.28404 0.0
C354 C 0.55588 0.03264 0.28485 0.0
C355 C 0.54025 0.96258 0.25704 0.0
C356 C 0.52593 0.93848 0.22801 0.0
C357 C 0.54136 1.00872 0.25607 0.0
C358 C 0.51325 0.96179 0.19789 0.0
C359 C 0.5136 1.00752 0.19698 0.0
H360 H 0.0757 0.61131 0.49809 0.0
H361 H 0.09064 0.47389 0.5233 0.0
H362 H 0.01283 0.46718 0.52973 0.0
H363 H 0.94027 0.49855 0.52708 0.0
H364 H 0.92222 0.63319 0.4957 0.0
H365 H 1.00127 0.64226 0.49259 0.0
C366 C 0.06216 0.57976 0.50476 0.0
C367 C 0.09007 0.5435 0.5108 0.0
C368 C 0.0165 0.57532 0.50707 0.0
C369 C 0.07105 0.50309 0.51972 0.0
C370 C 0.02609 0.49885 0.52291 0.0
C371 C 0.95325 0.52977 0.51877 0.0
C372 C 0.92482 0.5649 0.51122 0.0
C373 C 0.99854 0.53455 0.51638 0.0
C374 C 0.94298 0.60547 0.50185 0.0
C375 C 0.98831 0.61066 0.49993 0.0
H376 H 0.48688 0.08112 0.70808 0.0
H377 H 0.42418 0.10378 0.80681 0.0
H378 H 0.41416 0.02457 0.81455 0.0
H379 H 0.4294 0.94885 0.79519 0.0
H380 H 0.49025 0.92739 0.69519 0.0
H381 H 0.49472 1.00617 0.6859 0.0
C382 C 0.47061 0.06858 0.73111 0.0
C383 C 0.45661 0.09786 0.75703 0.0
C384 C 0.46491 0.02331 0.73518 0.0
C385 C 0.43521 0.08163 0.78661 0.0
C386 C 0.42965 0.03644 0.79102 0.0
C387 C 0.44266 0.96132 0.77098 0.0
C388 C 0.46 0.93197 0.74613 0.0
C389 C 0.44511 1.0069 0.76573 0.0
C390 C 0.47746 0.94901 0.71508 0.0
C391 C 0.47996 0.99413 0.70969 0.0
H392 H 0.41721 0.69877 0.15188 0.0
H393 H 0.51677 0.60061 0.16846 0.0
H394 H 0.47389 0.54727 0.13617 0.0
H395 H 0.40781 0.52856 0.10345 0.0
H396 H 0.3093 0.62767 0.08602 0.0
H397 H 0.35229 0.68069 0.11817 0.0
C398 C 0.42943 0.66564 0.14859 0.0
C399 C 0.46986 0.65352 0.16277 0.0
C400 C 0.40496 0.63542 0.12961 0.0
C401 C 0.48555 0.61065 0.15794 0.0
C402 C 0.46114 0.58018 0.1394 0.0
C403 C 0.39595 0.56186 0.10646 0.0
C404 C 0.35547 0.57419 0.09233 0.0
C405 C 0.42081 0.59223 0.12507 0.0
C406 C 0.3404 0.61737 0.09659 0.0
C407 C 0.36489 0.6477 0.11507 0.0
H408 H 0.41512 0.29637 0.38948 0.0
H409 H 0.35372 0.33769 0.2942 0.0
H410 H 0.29736 0.37673 0.3276 0.0
H411 H 0.27739 0.41214 0.38286 0.0
H412 H 0.34531 0.37758 0.47699 0.0
H413 H 0.38677 0.32136 0.44558 0.0
C414 C 0.3884 0.3126 0.37618 0.0
C415 C 0.38822 0.31461 0.33971 0.0
C416 C 0.35774 0.33631 0.3955 0.0
C417 C 0.35393 0.33566 0.32235 0.0
C418 C 0.32214 0.35827 0.34145 0.0
C419 C 0.30008 0.39102 0.3966 0.0
C420 C 0.30856 0.39849 0.43197 0.0
C421 C 0.3253 0.36077 0.37791 0.0
C422 C 0.33815 0.37167 0.44982 0.0
C423 C 0.36214 0.34004 0.43175 0.0
H424 H 0.64822 0.33196 0.69804 0.0
H425 H 0.57706 0.28775 0.60853 0.0
H426 H 0.62777 0.32502 0.56973 0.0
H427 H 0.68148 0.3834 0.56266 0.0
H428 H 0.74983 0.43158 0.65214 0.0
H429 H 0.71222 0.37917 0.68967 0.0
C430 C 0.64515 0.32917 0.67001 0.0
C431 C 0.60931 0.30758 0.65588 0.0
C432 C 0.67366 0.35192 0.64796 0.0
C433 C 0.60467 0.30442 0.61969 0.0
C434 C 0.63348 0.32589 0.59755 0.0
C435 C 0.68945 0.38076 0.59009 0.0
C436 C 0.71814 0.41066 0.60488 0.0
C437 C 0.66659 0.35167 0.6115 0.0
C438 C 0.72792 0.40823 0.64046 0.0
C439 C 0.70613 0.37864 0.6619 0.0
H440 H 0.72699 0.62417 0.88097 0.0
H441 H 0.66904 0.66138 0.97877 0.0
H442 H 0.62201 0.71452 0.94881 0.0
H443 H 0.5874 0.73706 0.89402 0.0
H444 H 0.64188 0.69598 0.79596 0.0
H445 H 0.70123 0.65789 0.82654 0.0
C446 C 0.70532 0.64537 0.89572 0.0
C447 C 0.70124 0.63945 0.93181 0.0
C448 C 0.67745 0.67429 0.87812 0.0
C449 C 0.67289 0.66622 0.95098 0.0
C450 C 0.64569 0.69602 0.93379 0.0
C451 C 0.61314 0.72091 0.87946 0.0
C452 C 0.61061 0.71874 0.84306 0.0
C453 C 0.64612 0.69842 0.89726 0.0
C454 C 0.64372 0.69799 0.82407 0.0
C455 C 0.67728 0.67603 0.84156 0.0
H456 H 0.38282 0.42735 0.0775 0.0
H457 H 0.27184 0.36344 0.12281 0.0
H458 H 0.3124 0.35024 0.17652 0.0
H459 H 0.38236 0.34793 0.20716 0.0
H460 H 0.49346 0.41321 0.16197 0.0
H461 H 0.4499 0.43506 0.11228 0.0
C462 C 0.36694 0.41247 0.09976 0.0
C463 C 0.32386 0.39779 0.09663 0.0
C464 C 0.39097 0.40397 0.13035 0.0
C465 C 0.30457 0.37614 0.12498 0.0
C466 C 0.32795 0.36812 0.15557 0.0
C467 C 0.39725 0.36741 0.18689 0.0
C468 C 0.4421 0.37724 0.18839 0.0
C469 C 0.37175 0.38044 0.15808 0.0
C470 C 0.45978 0.40332 0.16153 0.0
C471 C 0.43467 0.41632 0.13291 0.0
H472 H 0.62346 0.29627 0.40292 0.0
H473 H 0.59013 0.38724 0.32098 0.0
H474 H 0.61946 0.44752 0.35541 0.0
H475 H 0.65121 0.47495 0.4103 0.0
H476 H 0.68022 0.38309 0.49283 0.0
H477 H 0.65634 0.32306 0.45656 0.0
C478 C 0.62316 0.32913 0.3922 0.0
C479 C 0.60469 0.33693 0.35917 0.0
C480 C 0.6391 0.36379 0.41247 0.0
C481 C 0.60427 0.38003 0.34617 0.0
C482 C 0.62085 0.41463 0.36598 0.0
C483 C 0.65224 0.44189 0.42047 0.0
C484 C 0.66788 0.4341 0.45453 0.0
C485 C 0.63767 0.40704 0.39948 0.0
C486 C 0.66923 0.3906 0.46678 0.0
C487 C 0.65524 0.35598 0.44603 0.0
H488 H 0.60299 0.71674 0.69571 0.0
H489 H 0.51876 0.60569 0.68277 0.0
H490 H 0.56743 0.57599 0.63831 0.0
H491 H 0.63717 0.57842 0.6061 0.0
H492 H 0.72265 0.68802 0.62097 0.0
H493 H 0.67035 0.72139 0.66107 0.0
C494 C 0.59527 0.686 0.68327 0.0
C495 C 0.55715 0.66352 0.69296 0.0
C496 C 0.62367 0.66883 0.65771 0.0
C497 C 0.54752 0.62404 0.67587 0.0
C498 C 0.57551 0.60686 0.65041 0.0
C499 C 0.64376 0.6102 0.61733 0.0
C500 C 0.68369 0.63086 0.6102 0.0
C501 C 0.61397 0.62868 0.64134 0.0
C502 C 0.69209 0.67154 0.62576 0.0
C503 C 0.66231 0.6905 0.64897 0.0
H504 H 0.30975 0.62217 0.95306 0.0
H505 H 0.39417 0.52265 0.9099 0.0
H506 H 0.42428 0.57531 0.86907 0.0
H507 H 0.42954 0.65046 0.84688 0.0
H508 H 0.34752 0.75131 0.8909 0.0
H509 H 0.31362 0.69764 0.92946 0.0
C510 C 0.33482 0.61209 0.93481 0.0
C511 C 0.3493 0.5682 0.93464 0.0
C512 C 0.3524 0.64287 0.91119 0.0
C513 C 0.38168 0.55583 0.91046 0.0
C514 C 0.39918 0.58607 0.88705 0.0
C515 C 0.40363 0.66061 0.86438 0.0
C516 C 0.39102 0.70497 0.86569 0.0
C517 C 0.38492 0.62971 0.88717 0.0
C518 C 0.35786 0.71743 0.88912 0.0
C519 C 0.33858 0.68674 0.91141 0.0
H520 H 0.29709 0.6386 0.3576 0.0
H521 H 0.3777 0.6039 0.44546 0.0
H522 H 0.4411 0.63508 0.41602 0.0
H523 H 0.4747 0.66687 0.36335 0.0
H524 H 0.39379 0.69756 0.2747 0.0
H525 H 0.32969 0.67385 0.30667 0.0
C526 C 0.32832 0.63837 0.37071 0.0
C527 C 0.33237 0.61867 0.40383 0.0
C528 C 0.36486 0.65542 0.35328 0.0
C529 C 0.37337 0.6188 0.42009 0.0
C530 C 0.40978 0.63643 0.40313 0.0
C531 C 0.44312 0.66841 0.35092 0.0
C532 C 0.43962 0.68388 0.31631 0.0
C533 C 0.40612 0.65387 0.36935 0.0
C534 C 0.39796 0.68633 0.30119 0.0
C535 C 0.36108 0.67242 0.31946 0.0
H536 H 0.30871 0.40991 0.57265 0.0
H537 H 0.41121 0.50217 0.59239 0.0
H538 H 0.44113 0.45399 0.63735 0.0
H539 H 0.44115 0.38314 0.66847 0.0
H540 H 0.33938 0.29036 0.64746 0.0
H541 H 0.30626 0.34117 0.60602 0.0
C542 C 0.33767 0.41947 0.58667 0.0
C543 C 0.35776 0.45964 0.5788 0.0
C544 C 0.35483 0.39147 0.61253 0.0
C545 C 0.39482 0.4717 0.5979 0.0
C546 C 0.41208 0.44402 0.62361 0.0
C547 C 0.41115 0.37443 0.65547 0.0
C548 C 0.39276 0.33288 0.66132 0.0
C549 C 0.39264 0.40358 0.63095 0.0
C550 C 0.35426 0.32205 0.64365 0.0
C551 C 0.33538 0.35103 0.61971 0.0
H552 H 0.73129 0.41297 0.85723 0.0
H553 H 0.64628 0.42587 0.94625 0.0
H554 H 0.5869 0.39293 0.91328 0.0
H555 H 0.55813 0.36347 0.85816 0.0
H556 H 0.64307 0.35469 0.76864 0.0
H557 H 0.70318 0.38255 0.80292 0.0
C558 C 0.70003 0.40799 0.86976 0.0
C559 C 0.69359 0.42174 0.90444 0.0
C560 C 0.66571 0.38994 0.85037 0.0
C561 C 0.65244 0.41551 0.91977 0.0
C562 C 0.61833 0.39681 0.90081 0.0
C563 C 0.58967 0.36773 0.84601 0.0
C564 C 0.59558 0.35665 0.81059 0.0
C565 C 0.62437 0.38452 0.86588 0.0
C566 C 0.6372 0.36209 0.79576 0.0
C567 C 0.67178 0.37836 0.81538 0.0
H568 H 0.61354 0.63648 0.19575 0.0
H569 H 0.66324 0.7519 0.14563 0.0
H570 H 0.67443 0.7112 0.09159 0.0
H571 H 0.67481 0.64149 0.05981 0.0
H572 H 0.62923 0.52466 0.11118 0.0
H573 H 0.61084 0.56707 0.16286 0.0
C574 C 0.62547 0.65289 0.17259 0.0
C575 C 0.63528 0.69772 0.17403 0.0
C576 C 0.63312 0.62878 0.14187 0.0
C577 C 0.65342 0.71796 0.14458 0.0
C578 C 0.66034 0.69454 0.11381 0.0
C579 C 0.66105 0.62514 0.08228 0.0
C580 C 0.65392 0.57961 0.08138 0.0
C581 C 0.65107 0.6497 0.11232 0.0
C582 C 0.63501 0.55952 0.11075 0.0
C583 C 0.62465 0.58378 0.14055 0.0
loop_
_geom_bond_atom_site_label_1
_geom_bond_atom_site_label_2
_geom_bond_distance
_geom_bond_site_symmetry_2
_ccdc_geom_bond_type
Co0 N4 2.148 . S
Co0 N10 2.128 . S
Co0 N20 2.194 . S
Co0 O25 2.351 . S
Co0 O26 2.155 . S
Co0 O27 2.096 . S
C1 N4 1.301 . S
C1 N5 1.328 1_554 S
C1 H6 0.930 . S
C2 C3 1.333 1_554 S
C2 N4 1.317 . S
C2 H7 0.930 . S
C3 C2 1.333 1_556 S
C3 N5 1.350 . S
C3 H29 0.931 . S
N4 Co0 2.148 . S
N4 C1 1.301 . S
N4 C2 1.317 . S
N5 C1 1.328 1_556 S
N5 C3 1.350 . S
H6 C1 0.930 . S
H7 C2 0.930 . S
C8 O9 1.224 . S
C8 O27 1.247 . S
O9 C8 1.224 . S
N10 Co0 2.128 . S
N10 C11 1.355 . S
N10 C13 1.311 . S
C11 N10 1.355 . S
C11 C12 1.363 . S
C11 H23 0.929 . S
C12 C11 1.363 . S
C12 N14 1.375 . S
C12 H30 0.931 . S
C13 N10 1.311 . S
C13 N14 1.347 . S
C13 H24 0.929 . S
N14 C12 1.375 . S
N14 C13 1.347 . S
C15 C18 1.365 . S
C15 N20 1.328 . S
C15 H21 0.929 . S
C16 C17 1.362 . S
C16 C19 1.378 . S
C16 H31 0.929 . S
C17 C16 1.362 . S
C17 C18 1.366 . S
C18 C15 1.365 . S
C18 C17 1.366 . S
C18 H32 0.930 . S
C19 C16 1.378 . S
C19 N20 1.315 . S
C19 H22 0.930 . S
N20 Co0 2.194 . S
N20 C15 1.328 . S
N20 C19 1.315 . S
H21 C15 0.929 . S
H22 C19 0.930 . S
H23 C11 0.929 . S
H24 C13 0.929 . S
O25 Co0 2.351 . S
O25 C28 1.244 . S
O26 Co0 2.155 . S
O26 C28 1.240 . S
O27 Co0 2.096 . S
O27 C8 1.247 . S
C28 O25 1.244 . S
C28 O26 1.240 . S
H29 C3 0.931 . S
H30 C12 0.931 . S
H31 C16 0.929 . S
H32 C18 0.930 . S
Co33 N37 2.148 . S
Co33 N43 2.128 . S
Co33 N53 2.194 . S
Co33 O58 2.351 . S
Co33 O59 2.155 . S
Co33 O60 2.096 . S
C34 N37 1.301 . S
C34 N38 1.328 . S
C34 H39 0.930 . S
C35 C36 1.333 . S
C35 N37 1.317 . S
C35 H40 0.930 . S
C36 C35 1.333 . S
C36 N38 1.350 . S
C36 H62 0.931 . S
N37 Co33 2.148 . S
N37 C34 1.301 . S
N37 C35 1.317 . S
N38 C34 1.328 . S
N38 C36 1.350 . S
H39 C34 0.930 . S
H40 C35 0.930 . S
C41 O42 1.224 . S
C41 O60 1.247 . S
O42 C41 1.224 . S
N43 Co33 2.128 . S
N43 C44 1.355 . S
N43 C46 1.311 . S
C44 N43 1.355 . S
C44 C45 1.363 . S
C44 H56 0.929 . S
C45 C44 1.363 . S
C45 N47 1.375 . S
C45 H63 0.931 . S
C46 N43 1.311 . S
C46 N47 1.347 . S
C46 H57 0.929 . S
N47 C45 1.375 . S
N47 C46 1.347 . S
C48 C51 1.365 . S
C48 N53 1.328 . S
C48 H54 0.929 . S
C49 C50 1.362 . S
C49 C52 1.378 . S
C49 H64 0.929 . S
C50 C49 1.362 . S
C50 C51 1.366 . S
C51 C48 1.365 . S
C51 C50 1.366 . S
C51 H65 0.930 . S
C52 C49 1.378 . S
C52 N53 1.315 . S
C52 H55 0.930 . S
N53 Co33 2.194 . S
N53 C48 1.328 . S
N53 C52 1.315 . S
H54 C48 0.929 . S
H55 C52 0.930 . S
H56 C44 0.929 . S
H57 C46 0.929 . S
O58 Co33 2.351 . S
O58 C61 1.244 . S
O59 Co33 2.155 . S
O59 C61 1.240 . S
O60 Co33 2.096 . S
O60 C41 1.247 . S
C61 O58 1.244 . S
C61 O59 1.240 . S
H62 C36 0.931 . S
H63 C45 0.931 . S
H64 C49 0.929 . S
H65 C51 0.930 . S
Co66 N70 2.148 . S
Co66 N76 2.128 . S
Co66 N86 2.194 . S
Co66 O91 2.351 . S
Co66 O92 2.155 . S
Co66 O93 2.096 . S
C67 N70 1.301 . S
C67 N71 1.328 . S
C67 H72 0.930 . S
C68 C69 1.333 . S
C68 N70 1.317 . S
C68 H73 0.930 . S
C69 C68 1.333 . S
C69 N71 1.350 . S
C69 H95 0.931 . S
N70 Co66 2.148 . S
N70 C67 1.301 . S
N70 C68 1.317 . S
N71 C67 1.328 . S
N71 C69 1.350 . S
H72 C67 0.930 . S
H73 C68 0.930 . S
C74 O75 1.224 . S
C74 O93 1.247 . S
O75 C74 1.224 . S
N76 Co66 2.128 . S
N76 C77 1.355 . S
N76 C79 1.311 . S
C77 N76 1.355 . S
C77 C78 1.363 . S
C77 H89 0.929 . S
C78 C77 1.363 . S
C78 N80 1.375 . S
C78 H96 0.931 . S
C79 N76 1.311 . S
C79 N80 1.347 . S
C79 H90 0.929 . S
N80 C78 1.375 . S
N80 C79 1.347 . S
C81 C84 1.365 . S
C81 N86 1.328 . S
C81 H87 0.929 . S
C82 C83 1.362 . S
C82 C85 1.378 . S
C82 H97 0.929 . S
C83 C82 1.362 . S
C83 C84 1.366 . S
C84 C81 1.365 . S
C84 C83 1.366 . S
C84 H98 0.930 . S
C85 C82 1.378 . S
C85 N86 1.315 . S
C85 H88 0.930 . S
N86 Co66 2.194 . S
N86 C81 1.328 . S
N86 C85 1.315 . S
H87 C81 0.929 . S
H88 C85 0.930 . S
H89 C77 0.929 . S
H90 C79 0.929 . S
O91 Co66 2.351 . S
O91 C94 1.244 . S
O92 Co66 2.155 . S
O92 C94 1.240 . S
O93 Co66 2.096 . S
O93 C74 1.247 . S
C94 O91 1.244 . S
C94 O92 1.240 . S
H95 C69 0.931 . S
H96 C78 0.931 . S
H97 C82 0.929 . S
H98 C84 0.930 . S
Co99 N103 2.148 . S
Co99 N109 2.128 . S
Co99 N119 2.194 . S
Co99 O124 2.351 . S
Co99 O125 2.155 . S
Co99 O126 2.096 . S
C100 N103 1.301 . S
C100 N104 1.328 . S
C100 H105 0.930 . S
C101 C102 1.333 . S
C101 N103 1.317 . S
C101 H106 0.930 . S
C102 C101 1.333 . S
C102 N104 1.350 . S
C102 H128 0.931 . S
N103 Co99 2.148 . S
N103 C100 1.301 . S
N103 C101 1.317 . S
N104 C100 1.328 . S
N104 C102 1.350 . S
H105 C100 0.930 . S
H106 C101 0.930 . S
C107 O108 1.224 . S
C107 O126 1.247 . S
O108 C107 1.224 . S
N109 Co99 2.128 . S
N109 C110 1.355 . S
N109 C112 1.311 . S
C110 N109 1.355 . S
C110 C111 1.363 . S
C110 H122 0.929 . S
C111 C110 1.363 . S
C111 N113 1.375 . S
C111 H129 0.931 . S
C112 N109 1.311 . S
C112 N113 1.347 . S
C112 H123 0.929 . S
N113 C111 1.375 . S
N113 C112 1.347 . S
C114 C117 1.365 . S
C114 N119 1.328 . S
C114 H120 0.929 . S
C115 C116 1.362 . S
C115 C118 1.378 . S
C115 H130 0.929 . S
C116 C115 1.362 . S
C116 C117 1.366 . S
C117 C114 1.365 . S
C117 C116 1.366 . S
C117 H131 0.930 . S
C118 C115 1.378 . S
C118 N119 1.315 . S
C118 H121 0.930 . S
N119 Co99 2.194 . S
N119 C114 1.328 . S
N119 C118 1.315 . S
H120 C114 0.929 . S
H121 C118 0.930 . S
H122 C110 0.929 . S
H123 C112 0.929 . S
O124 Co99 2.351 . S
O124 C127 1.244 . S
O125 Co99 2.155 . S
O125 C127 1.240 . S
O126 Co99 2.096 . S
O126 C107 1.247 . S
C127 O124 1.244 . S
C127 O125 1.240 . S
H128 C102 0.931 . S
H129 C111 0.931 . S
H130 C115 0.929 . S
H131 C117 0.930 . S
Co132 N136 2.148 . S
Co132 N142 2.128 . S
Co132 N152 2.194 . S
Co132 O157 2.351 . S
Co132 O158 2.155 . S
Co132 O159 2.096 . S
C133 N136 1.301 . S
C133 N137 1.328 . S
C133 H138 0.930 . S
C134 C135 1.333 . S
C134 N136 1.317 . S
C134 H139 0.930 . S
C135 C134 1.333 . S
C135 N137 1.350 . S
C135 H161 0.931 . S
N136 Co132 2.148 . S
N136 C133 1.301 . S
N136 C134 1.317 . S
N137 C133 1.328 . S
N137 C135 1.350 . S
H138 C133 0.930 . S
H139 C134 0.930 . S
C140 O141 1.224 . S
C140 O159 1.247 . S
O141 C140 1.224 . S
N142 Co132 2.128 . S
N142 C143 1.355 . S
N142 C145 1.311 . S
C143 N142 1.355 . S
C143 C144 1.363 . S
C143 H155 0.929 . S
C144 C143 1.363 . S
C144 N146 1.375 . S
C144 H162 0.931 . S
C145 N142 1.311 . S
C145 N146 1.347 . S
C145 H156 0.929 . S
N146 C144 1.375 . S
N146 C145 1.347 . S
C147 C150 1.365 . S
C147 N152 1.328 . S
C147 H153 0.929 . S
C148 C149 1.362 . S
C148 C151 1.378 . S
C148 H163 0.929 . S
C149 C148 1.362 . S
C149 C150 1.366 . S
C150 C147 1.365 . S
C150 C149 1.366 . S
C150 H164 0.930 . S
C151 C148 1.378 . S
C151 N152 1.315 . S
C151 H154 0.930 . S
N152 Co132 2.194 . S
N152 C147 1.328 . S
N152 C151 1.315 . S
H153 C147 0.929 . S
H154 C151 0.930 . S
H155 C143 0.929 . S
H156 C145 0.929 . S
O157 Co132 2.351 . S
O157 C160 1.244 . S
O158 Co132 2.155 . S
O158 C160 1.240 . S
O159 Co132 2.096 . S
O159 C140 1.247 . S
C160 O157 1.244 . S
C160 O158 1.240 . S
H161 C135 0.931 . S
H162 C144 0.931 . S
H163 C148 0.929 . S
H164 C150 0.930 . S
Co165 N169 2.148 . S
Co165 N175 2.128 . S
Co165 N185 2.194 . S
Co165 O190 2.351 . S
Co165 O191 2.155 . S
Co165 O192 2.096 . S
C166 N169 1.301 . S
C166 N170 1.328 . S
C166 H171 0.930 . S
C167 C168 1.333 . S
C167 N169 1.317 . S
C167 H172 0.930 . S
C168 C167 1.333 . S
C168 N170 1.350 . S
C168 H194 0.931 . S
N169 Co165 2.148 . S
N169 C166 1.301 . S
N169 C167 1.317 . S
N170 C166 1.328 . S
N170 C168 1.350 . S
H171 C166 0.930 . S
H172 C167 0.930 . S
C173 O174 1.224 . S
C173 O192 1.247 . S
O174 C173 1.224 . S
N175 Co165 2.128 . S
N175 C176 1.355 . S
N175 C178 1.311 . S
C176 N175 1.355 . S
C176 C177 1.363 . S
C176 H188 0.929 . S
C177 C176 1.363 . S
C177 N179 1.375 . S
C177 H195 0.931 . S
C178 N175 1.311 . S
C178 N179 1.347 . S
C178 H189 0.929 . S
N179 C177 1.375 . S
N179 C178 1.347 . S
C180 C183 1.365 . S
C180 N185 1.328 . S
C180 H186 0.929 . S
C181 C182 1.362 . S
C181 C184 1.378 . S
C181 H196 0.929 . S
C182 C181 1.362 . S
C182 C183 1.366 . S
C183 C180 1.365 . S
C183 C182 1.366 . S
C183 H197 0.930 . S
C184 C181 1.378 . S
C184 N185 1.315 . S
C184 H187 0.930 . S
N185 Co165 2.194 . S
N185 C180 1.328 . S
N185 C184 1.315 . S
H186 C180 0.929 . S
H187 C184 0.930 . S
H188 C176 0.929 . S
H189 C178 0.929 . S
O190 Co165 2.351 . S
O190 C193 1.244 . S
O191 Co165 2.155 . S
O191 C193 1.240 . S
O192 Co165 2.096 . S
O192 C173 1.247 . S
C193 O190 1.244 . S
C193 O191 1.240 . S
H194 C168 0.931 . S
H195 C177 0.931 . S
H196 C181 0.929 . S
H197 C183 0.930 . S
Co198 N202 2.148 . S
Co198 N208 2.128 . S
Co198 N218 2.194 . S
Co198 O223 2.351 . S
Co198 O224 2.155 . S
Co198 O225 2.096 . S
C199 N202 1.301 . S
C199 N203 1.328 1_556 S
C199 H204 0.930 . S
C200 C201 1.333 1_556 S
C200 N202 1.317 . S
C200 H205 0.930 . S
C201 C200 1.333 1_554 S
C201 N203 1.350 . S
C201 H227 0.931 . S
N202 Co198 2.148 . S
N202 C199 1.301 . S
N202 C200 1.317 . S
N203 C199 1.328 1_554 S
N203 C201 1.350 . S
H204 C199 0.930 . S
H205 C200 0.930 . S
C206 O207 1.224 . S
C206 O225 1.247 . S
O207 C206 1.224 . S
N208 Co198 2.128 . S
N208 C209 1.355 . S
N208 C211 1.311 . S
C209 N208 1.355 . S
C209 C210 1.363 . S
C209 H221 0.929 . S
C210 C209 1.363 . S
C210 N212 1.375 . S
C210 H228 0.931 . S
C211 N208 1.311 . S
C211 N212 1.347 . S
C211 H222 0.929 . S
N212 C210 1.375 . S
N212 C211 1.347 . S
C213 C216 1.365 . S
C213 N218 1.328 . S
C213 H219 0.929 . S
C214 C215 1.362 . S
C214 C217 1.378 . S
C214 H229 0.929 . S
C215 C214 1.362 . S
C215 C216 1.366 . S
C216 C213 1.365 . S
C216 C215 1.366 . S
C216 H230 0.930 . S
C217 C214 1.378 . S
C217 N218 1.315 . S
C217 H220 0.930 . S
N218 Co198 2.194 . S
N218 C213 1.328 . S
N218 C217 1.315 . S
H219 C213 0.929 . S
H220 C217 0.930 . S
H221 C209 0.929 . S
H222 C211 0.929 . S
O223 Co198 2.351 . S
O223 C226 1.244 . S
O224 Co198 2.155 . S
O224 C226 1.240 . S
O225 Co198 2.096 . S
O225 C206 1.247 . S
C226 O223 1.244 . S
C226 O224 1.240 . S
H227 C201 0.931 . S
H228 C210 0.931 . S
H229 C214 0.929 . S
H230 C216 0.930 . S
Co231 N235 2.148 . S
Co231 N241 2.128 . S
Co231 N251 2.194 . S
Co231 O256 2.351 . S
Co231 O257 2.155 . S
Co231 O258 2.096 . S
C232 N235 1.301 . S
C232 N236 1.328 . S
C232 H237 0.930 . S
C233 C234 1.333 . S
C233 N235 1.317 . S
C233 H238 0.930 . S
C234 C233 1.333 . S
C234 N236 1.350 . S
C234 H260 0.931 . S
N235 Co231 2.148 . S
N235 C232 1.301 . S
N235 C233 1.317 . S
N236 C232 1.328 . S
N236 C234 1.350 . S
H237 C232 0.930 . S
H238 C233 0.930 . S
C239 O240 1.224 . S
C239 O258 1.247 . S
O240 C239 1.224 . S
N241 Co231 2.128 . S
N241 C242 1.355 . S
N241 C244 1.311 . S
C242 N241 1.355 . S
C242 C243 1.363 . S
C242 H254 0.929 . S
C243 C242 1.363 . S
C243 N245 1.375 . S
C243 H261 0.931 . S
C244 N241 1.311 . S
C244 N245 1.347 . S
C244 H255 0.929 . S
N245 C243 1.375 . S
N245 C244 1.347 . S
C246 C249 1.365 . S
C246 N251 1.328 . S
C246 H252 0.929 . S
C247 C248 1.362 . S
C247 C250 1.378 . S
C247 H262 0.929 . S
C248 C247 1.362 . S
C248 C249 1.366 . S
C249 C246 1.365 . S
C249 C248 1.366 . S
C249 H263 0.930 . S
C250 C247 1.378 . S
C250 N251 1.315 . S
C250 H253 0.930 . S
N251 Co231 2.194 . S
N251 C246 1.328 . S
N251 C250 1.315 . S
H252 C246 0.929 . S
H253 C250 0.930 . S
H254 C242 0.929 . S
H255 C244 0.929 . S
O256 Co231 2.351 . S
O256 C259 1.244 . S
O257 Co231 2.155 . S
O257 C259 1.240 . S
O258 Co231 2.096 . S
O258 C239 1.247 . S
C259 O256 1.244 . S
C259 O257 1.240 . S
H260 C234 0.931 . S
H261 C243 0.931 . S
H262 C247 0.929 . S
H263 C249 0.930 . S
H264 C270 0.930 . S
H265 C273 0.930 . S
H266 C274 0.930 . S
H267 C275 0.930 . S
H268 C278 0.930 . S
H269 C279 0.930 . S
C270 H264 0.930 . S
C270 C271 1.355 . S
C270 C272 1.415 . S
C271 C270 1.355 . S
C271 C273 1.419 . S
C272 C270 1.415 . S
C272 C277 1.425 . S
C272 C279 1.409 . S
C273 H265 0.930 . S
C273 C271 1.419 . S
C273 C274 1.362 . S
C274 H266 0.930 . S
C274 C273 1.362 . S
C274 C277 1.409 . S
C275 H267 0.930 . S
C275 C276 1.355 . S
C275 C277 1.415 . S
C276 C275 1.355 . S
C276 C278 1.419 . S
C277 C272 1.425 . S
C277 C274 1.409 . S
C277 C275 1.415 . S
C278 H268 0.930 . S
C278 C276 1.419 . S
C278 C279 1.362 . S
C279 H269 0.930 . S
C279 C272 1.409 . S
C279 C278 1.362 . S
H280 C286 0.930 . S
H281 C289 0.930 . S
H282 C290 0.930 . S
H283 C291 0.930 . S
H284 C294 0.930 . S
H285 C295 0.930 . S
C286 H280 0.930 . S
C286 C287 1.355 . S
C286 C288 1.415 . S
C287 C286 1.355 . S
C287 C289 1.419 . S
C288 C286 1.415 . S
C288 C293 1.425 . S
C288 C295 1.409 . S
C289 H281 0.930 . S
C289 C287 1.419 . S
C289 C290 1.362 . S
C290 H282 0.930 . S
C290 C289 1.362 . S
C290 C293 1.409 . S
C291 H283 0.930 . S
C291 C292 1.355 . S
C291 C293 1.415 . S
C292 C291 1.355 . S
C292 C294 1.419 . S
C293 C288 1.425 . S
C293 C290 1.409 . S
C293 C291 1.415 . S
C294 H284 0.930 . S
C294 C292 1.419 . S
C294 C295 1.362 . S
C295 H285 0.930 . S
C295 C288 1.409 . S
C295 C294 1.362 . S
H296 C302 0.930 . S
H297 C305 0.930 . S
H298 C306 0.930 . S
H299 C307 0.930 . S
H300 C310 0.930 . S
H301 C311 0.930 . S
C302 H296 0.930 . S
C302 C303 1.355 . S
C302 C304 1.415 . S
C303 C302 1.355 . S
C303 C305 1.419 . S
C304 C302 1.415 . S
C304 C309 1.425 . S
C304 C311 1.409 . S
C305 H297 0.930 . S
C305 C303 1.419 . S
C305 C306 1.362 . S
C306 H298 0.930 . S
C306 C305 1.362 . S
C306 C309 1.409 . S
C307 H299 0.930 . S
C307 C308 1.355 . S
C307 C309 1.415 . S
C308 C307 1.355 . S
C308 C310 1.419 . S
C309 C304 1.425 . S
C309 C306 1.409 . S
C309 C307 1.415 . S
C310 H300 0.930 . S
C310 C308 1.419 . S
C310 C311 1.362 . S
C311 H301 0.930 . S
C311 C304 1.409 . S
C311 C310 1.362 . S
H312 C318 0.930 . S
H313 C321 0.930 . S
H314 C322 0.930 . S
H315 C323 0.930 . S
H316 C326 0.930 . S
H317 C327 0.930 . S
C318 H312 0.930 . S
C318 C319 1.355 . S
C318 C320 1.415 . S
C319 C318 1.355 . S
C319 C321 1.419 . S
C320 C318 1.415 . S
C320 C325 1.425 1_556 S
C320 C327 1.409 1_556 S
C321 H313 0.930 . S
C321 C319 1.419 . S
C321 C322 1.362 . S
C322 H314 0.930 . S
C322 C321 1.362 . S
C322 C325 1.409 1_556 S
C323 H315 0.930 . S
C323 C324 1.355 . S
C323 C325 1.415 . S
C324 C323 1.355 . S
C324 C326 1.419 . S
C325 C320 1.425 1_554 S
C325 C322 1.409 1_554 S
C325 C323 1.415 . S
C326 H316 0.930 . S
C326 C324 1.419 . S
C326 C327 1.362 . S
C327 H317 0.930 . S
C327 C320 1.409 1_554 S
C327 C326 1.362 . S
H328 C334 0.930 . S
H329 C337 0.930 . S
H330 C338 0.930 . S
H331 C339 0.930 . S
H332 C342 0.930 . S
H333 C343 0.930 . S
C334 H328 0.930 . S
C334 C335 1.355 . S
C334 C336 1.415 . S
C335 C334 1.355 . S
C335 C337 1.419 1_554 S
C336 C334 1.415 . S
C336 C341 1.425 1_454 S
C336 C343 1.409 1_455 S
C337 H329 0.930 . S
C337 C335 1.419 1_556 S
C337 C338 1.362 . S
C338 H330 0.930 . S
C338 C337 1.362 . S
C338 C341 1.409 1_455 S
C339 H331 0.930 . S
C339 C340 1.355 . S
C339 C341 1.415 . S
C340 C339 1.355 . S
C340 C342 1.419 1_556 S
C341 C336 1.425 1_656 S
C341 C338 1.409 1_655 S
C341 C339 1.415 . S
C342 H332 0.930 . S
C342 C340 1.419 1_554 S
C342 C343 1.362 . S
C343 H333 0.930 . S
C343 C336 1.409 1_655 S
C343 C342 1.362 . S
H344 C350 0.930 . S
H345 C353 0.930 . S
H346 C354 0.930 . S
H347 C355 0.930 . S
H348 C358 0.930 . S
H349 C359 0.930 . S
C350 H344 0.930 . S
C350 C351 1.355 . S
C350 C352 1.415 . S
C351 C350 1.355 . S
C351 C353 1.419 . S
C352 C350 1.415 . S
C352 C357 1.425 1_545 S
C352 C359 1.409 1_545 S
C353 H345 0.930 . S
C353 C351 1.419 . S
C353 C354 1.362 . S
C354 H346 0.930 . S
C354 C353 1.362 . S
C354 C357 1.409 1_545 S
C355 H347 0.930 . S
C355 C356 1.355 . S
C355 C357 1.415 . S
C356 C355 1.355 . S
C356 C358 1.419 . S
C357 C352 1.425 1_565 S
C357 C354 1.409 1_565 S
C357 C355 1.415 . S
C358 H348 0.930 . S
C358 C356 1.419 . S
C358 C359 1.362 . S
C359 H349 0.930 . S
C359 C352 1.409 1_565 S
C359 C358 1.362 . S
H360 C366 0.930 . S
H361 C369 0.930 . S
H362 C370 0.930 . S
H363 C371 0.930 . S
H364 C374 0.930 . S
H365 C375 0.930 . S
C366 H360 0.930 . S
C366 C367 1.355 . S
C366 C368 1.415 . S
C367 C366 1.355 . S
C367 C369 1.419 . S
C368 C366 1.415 . S
C368 C373 1.425 1_455 S
C368 C375 1.409 1_455 S
C369 H361 0.930 . S
C369 C367 1.419 . S
C369 C370 1.362 . S
C370 H362 0.930 . S
C370 C369 1.362 . S
C370 C373 1.409 1_455 S
C371 H363 0.930 . S
C371 C372 1.355 . S
C371 C373 1.415 . S
C372 C371 1.355 . S
C372 C374 1.419 . S
C373 C368 1.425 1_655 S
C373 C370 1.409 1_655 S
C373 C371 1.415 . S
C374 H364 0.930 . S
C374 C372 1.419 . S
C374 C375 1.362 . S
C375 H365 0.930 . S
C375 C368 1.409 1_655 S
C375 C374 1.362 . S
H376 C382 0.930 . S
H377 C385 0.930 . S
H378 C386 0.930 . S
H379 C387 0.930 . S
H380 C390 0.930 . S
H381 C391 0.930 . S
C382 H376 0.930 . S
C382 C383 1.355 . S
C382 C384 1.415 . S
C383 C382 1.355 . S
C383 C385 1.419 . S
C384 C382 1.415 . S
C384 C389 1.425 1_545 S
C384 C391 1.409 1_545 S
C385 H377 0.930 . S
C385 C383 1.419 . S
C385 C386 1.362 . S
C386 H378 0.930 . S
C386 C385 1.362 . S
C386 C389 1.409 1_545 S
C387 H379 0.930 . S
C387 C388 1.355 . S
C387 C389 1.415 . S
C388 C387 1.355 . S
C388 C390 1.419 . S
C389 C384 1.425 1_565 S
C389 C386 1.409 1_565 S
C389 C387 1.415 . S
C390 H380 0.930 . S
C390 C388 1.419 . S
C390 C391 1.362 . S
C391 H381 0.930 . S
C391 C384 1.409 1_565 S
C391 C390 1.362 . S
H392 C398 0.930 . S
H393 C401 0.930 . S
H394 C402 0.930 . S
H395 C403 0.930 . S
H396 C406 0.930 . S
H397 C407 0.930 . S
C398 H392 0.930 . S
C398 C399 1.355 . S
C398 C400 1.415 . S
C399 C398 1.355 . S
C399 C401 1.419 . S
C400 C398 1.415 . S
C400 C405 1.425 . S
C400 C407 1.409 . S
C401 H393 0.930 . S
C401 C399 1.419 . S
C401 C402 1.362 . S
C402 H394 0.930 . S
C402 C401 1.362 . S
C402 C405 1.409 . S
C403 H395 0.930 . S
C403 C404 1.355 . S
C403 C405 1.415 . S
C404 C403 1.355 . S
C404 C406 1.419 . S
C405 C400 1.425 . S
C405 C402 1.409 . S
C405 C403 1.415 . S
C406 H396 0.930 . S
C406 C404 1.419 . S
C406 C407 1.362 . S
C407 H397 0.930 . S
C407 C400 1.409 . S
C407 C406 1.362 . S
H408 C414 0.930 . S
H409 C417 0.930 . S
H410 C418 0.930 . S
H411 C419 0.930 . S
H412 C422 0.930 . S
H413 C423 0.930 . S
C414 H408 0.930 . S
C414 C415 1.355 . S
C414 C416 1.415 . S
C415 C414 1.355 . S
C415 C417 1.419 . S
C416 C414 1.415 . S
C416 C421 1.425 . S
C416 C423 1.409 . S
C417 H409 0.930 . S
C417 C415 1.419 . S
C417 C418 1.362 . S
C418 H410 0.930 . S
C418 C417 1.362 . S
C418 C421 1.409 . S
C419 H411 0.930 . S
C419 C420 1.355 . S
C419 C421 1.415 . S
C420 C419 1.355 . S
C420 C422 1.419 . S
C421 C416 1.425 . S
C421 C418 1.409 . S
C421 C419 1.415 . S
C422 H412 0.930 . S
C422 C420 1.419 . S
C422 C423 1.362 . S
C423 H413 0.930 . S
C423 C416 1.409 . S
C423 C422 1.362 . S
H424 C430 0.930 . S
H425 C433 0.930 . S
H426 C434 0.930 . S
H427 C435 0.930 . S
H428 C438 0.930 . S
H429 C439 0.930 . S
C430 H424 0.930 . S
C430 C431 1.355 . S
C430 C432 1.415 . S
C431 C430 1.355 . S
C431 C433 1.419 . S
C432 C430 1.415 . S
C432 C437 1.425 . S
C432 C439 1.409 . S
C433 H425 0.930 . S
C433 C431 1.419 . S
C433 C434 1.362 . S
C434 H426 0.930 . S
C434 C433 1.362 . S
C434 C437 1.409 . S
C435 H427 0.930 . S
C435 C436 1.355 . S
C435 C437 1.415 . S
C436 C435 1.355 . S
C436 C438 1.419 . S
C437 C432 1.425 . S
C437 C434 1.409 . S
C437 C435 1.415 . S
C438 H428 0.930 . S
C438 C436 1.419 . S
C438 C439 1.362 . S
C439 H429 0.930 . S
C439 C432 1.409 . S
C439 C438 1.362 . S
H440 C446 0.930 . S
H441 C449 0.930 . S
H442 C450 0.930 . S
H443 C451 0.930 . S
H444 C454 0.930 . S
H445 C455 0.930 . S
C446 H440 0.930 . S
C446 C447 1.355 . S
C446 C448 1.415 . S
C447 C446 1.355 . S
C447 C449 1.419 . S
C448 C446 1.415 . S
C448 C453 1.425 . S
C448 C455 1.409 . S
C449 H441 0.930 . S
C449 C447 1.419 . S
C449 C450 1.362 . S
C450 H442 0.930 . S
C450 C449 1.362 . S
C450 C453 1.409 . S
C451 H443 0.930 . S
C451 C452 1.355 . S
C451 C453 1.415 . S
C452 C451 1.355 . S
C452 C454 1.419 . S
C453 C448 1.425 . S
C453 C450 1.409 . S
C453 C451 1.415 . S
C454 H444 0.930 . S
C454 C452 1.419 . S
C454 C455 1.362 . S
C455 H445 0.930 . S
C455 C448 1.409 . S
C455 C454 1.362 . S
H456 C462 0.930 . S
H457 C465 0.930 . S
H458 C466 0.930 . S
H459 C467 0.930 . S
H460 C470 0.930 . S
H461 C471 0.930 . S
C462 H456 0.930 . S
C462 C463 1.355 . S
C462 C464 1.415 . S
C463 C462 1.355 . S
C463 C465 1.419 . S
C464 C462 1.415 . S
C464 C469 1.425 . S
C464 C471 1.409 . S
C465 H457 0.930 . S
C465 C463 1.419 . S
C465 C466 1.362 . S
C466 H458 0.930 . S
C466 C465 1.362 . S
C466 C469 1.409 . S
C467 H459 0.930 . S
C467 C468 1.355 . S
C467 C469 1.415 . S
C468 C467 1.355 . S
C468 C470 1.419 . S
C469 C464 1.425 . S
C469 C466 1.409 . S
C469 C467 1.415 . S
C470 H460 0.930 . S
C470 C468 1.419 . S
C470 C471 1.362 . S
C471 H461 0.930 . S
C471 C464 1.409 . S
C471 C470 1.362 . S
H472 C478 0.930 . S
H473 C481 0.930 . S
H474 C482 0.930 . S
H475 C483 0.930 . S
H476 C486 0.930 . S
H477 C487 0.930 . S
C478 H472 0.930 . S
C478 C479 1.355 . S
C478 C480 1.415 . S
C479 C478 1.355 . S
C479 C481 1.419 . S
C480 C478 1.415 . S
C480 C485 1.425 . S
C480 C487 1.409 . S
C481 H473 0.930 . S
C481 C479 1.419 . S
C481 C482 1.362 . S
C482 H474 0.930 . S
C482 C481 1.362 . S
C482 C485 1.409 . S
C483 H475 0.930 . S
C483 C484 1.355 . S
C483 C485 1.415 . S
C484 C483 1.355 . S
C484 C486 1.419 . S
C485 C480 1.425 . S
C485 C482 1.409 . S
C485 C483 1.415 . S
C486 H476 0.930 . S
C486 C484 1.419 . S
C486 C487 1.362 . S
C487 H477 0.930 . S
C487 C480 1.409 . S
C487 C486 1.362 . S
H488 C494 0.930 . S
H489 C497 0.930 . S
H490 C498 0.930 . S
H491 C499 0.930 . S
H492 C502 0.930 . S
H493 C503 0.930 . S
C494 H488 0.930 . S
C494 C495 1.355 . S
C494 C496 1.415 . S
C495 C494 1.355 . S
C495 C497 1.419 . S
C496 C494 1.415 . S
C496 C501 1.425 . S
C496 C503 1.409 . S
C497 H489 0.930 . S
C497 C495 1.419 . S
C497 C498 1.362 . S
C498 H490 0.930 . S
C498 C497 1.362 . S
C498 C501 1.409 . S
C499 H491 0.930 . S
C499 C500 1.355 . S
C499 C501 1.415 . S
C500 C499 1.355 . S
C500 C502 1.419 . S
C501 C496 1.425 . S
C501 C498 1.409 . S
C501 C499 1.415 . S
C502 H492 0.930 . S
C502 C500 1.419 . S
C502 C503 1.362 . S
C503 H493 0.930 . S
C503 C496 1.409 . S
C503 C502 1.362 . S
H504 C510 0.930 . S
H505 C513 0.930 . S
H506 C514 0.930 . S
H507 C515 0.930 . S
H508 C518 0.930 . S
H509 C519 0.930 . S
C510 H504 0.930 . S
C510 C511 1.355 . S
C510 C512 1.415 . S
C511 C510 1.355 . S
C511 C513 1.419 . S
C512 C510 1.415 . S
C512 C517 1.425 . S
C512 C519 1.409 . S
C513 H505 0.930 . S
C513 C511 1.419 . S
C513 C514 1.362 . S
C514 H506 0.930 . S
C514 C513 1.362 . S
C514 C517 1.409 . S
C515 H507 0.930 . S
C515 C516 1.355 . S
C515 C517 1.415 . S
C516 C515 1.355 . S
C516 C518 1.419 . S
C517 C512 1.425 . S
C517 C514 1.409 . S
C517 C515 1.415 . S
C518 H508 0.930 . S
C518 C516 1.419 . S
C518 C519 1.362 . S
C519 H509 0.930 . S
C519 C512 1.409 . S
C519 C518 1.362 . S
H520 C526 0.930 . S
H521 C529 0.930 . S
H522 C530 0.930 . S
H523 C531 0.930 . S
H524 C534 0.930 . S
H525 C535 0.930 . S
C526 H520 0.930 . S
C526 C527 1.355 . S
C526 C528 1.415 . S
C527 C526 1.355 . S
C527 C529 1.419 . S
C528 C526 1.415 . S
C528 C533 1.425 . S
C528 C535 1.409 . S
C529 H521 0.930 . S
C529 C527 1.419 . S
C529 C530 1.362 . S
C530 H522 0.930 . S
C530 C529 1.362 . S
C530 C533 1.409 . S
C531 H523 0.930 . S
C531 C532 1.355 . S
C531 C533 1.415 . S
C532 C531 1.355 . S
C532 C534 1.419 . S
C533 C528 1.425 . S
C533 C530 1.409 . S
C533 C531 1.415 . S
C534 H524 0.930 . S
C534 C532 1.419 . S
C534 C535 1.362 . S
C535 H525 0.930 . S
C535 C528 1.409 . S
C535 C534 1.362 . S
H536 C542 0.930 . S
H537 C545 0.930 . S
H538 C546 0.930 . S
H539 C547 0.930 . S
H540 C550 0.930 . S
H541 C551 0.930 . S
C542 H536 0.930 . S
C542 C543 1.355 . S
C542 C544 1.415 . S
C543 C542 1.355 . S
C543 C545 1.419 . S
C544 C542 1.415 . S
C544 C549 1.425 . S
C544 C551 1.409 . S
C545 H537 0.930 . S
C545 C543 1.419 . S
C545 C546 1.362 . S
C546 H538 0.930 . S
C546 C545 1.362 . S
C546 C549 1.409 . S
C547 H539 0.930 . S
C547 C548 1.355 . S
C547 C549 1.415 . S
C548 C547 1.355 . S
C548 C550 1.419 . S
C549 C544 1.425 . S
C549 C546 1.409 . S
C549 C547 1.415 . S
C550 H540 0.930 . S
C550 C548 1.419 . S
C550 C551 1.362 . S
C551 H541 0.930 . S
C551 C544 1.409 . S
C551 C550 1.362 . S
H552 C558 0.930 . S
H553 C561 0.930 . S
H554 C562 0.930 . S
H555 C563 0.930 . S
H556 C566 0.930 . S
H557 C567 0.930 . S
C558 H552 0.930 . S
C558 C559 1.355 . S
C558 C560 1.415 . S
C559 C558 1.355 . S
C559 C561 1.419 . S
C560 C558 1.415 . S
C560 C565 1.425 . S
C560 C567 1.409 . S
C561 H553 0.930 . S
C561 C559 1.419 . S
C561 C562 1.362 . S
C562 H554 0.930 . S
C562 C561 1.362 . S
C562 C565 1.409 . S
C563 H555 0.930 . S
C563 C564 1.355 . S
C563 C565 1.415 . S
C564 C563 1.355 . S
C564 C566 1.419 . S
C565 C560 1.425 . S
C565 C562 1.409 . S
C565 C563 1.415 . S
C566 H556 0.930 . S
C566 C564 1.419 . S
C566 C567 1.362 . S
C567 H557 0.930 . S
C567 C560 1.409 . S
C567 C566 1.362 . S
H568 C574 0.930 . S
H569 C577 0.930 . S
H570 C578 0.930 . S
H571 C579 0.930 . S
H572 C582 0.930 . S
H573 C583 0.930 . S
C574 H568 0.930 . S
C574 C575 1.355 . S
C574 C576 1.415 . S
C575 C574 1.355 . S
C575 C577 1.419 . S
C576 C574 1.415 . S
C576 C581 1.425 . S
C576 C583 1.409 . S
C577 H569 0.930 . S
C577 C575 1.419 . S
C577 C578 1.362 . S
C578 H570 0.930 . S
C578 C577 1.362 . S
C578 C581 1.409 . S
C579 H571 0.930 . S
C579 C580 1.355 . S
C579 C581 1.415 . S
C580 C579 1.355 . S
C580 C582 1.419 . S
C581 C576 1.425 . S
C581 C578 1.409 . S
C581 C579 1.415 . S
C582 H572 0.930 . S
C582 C580 1.419 . S
C582 C583 1.362 . S
C583 H573 0.930 . S
C583 C576 1.409 . S
C583 C582 1.362 . S
C271 N146 0.672 . S
C276 N14 0.632 . S
C287 N47 0.731 . S
C292 N179 0.725 . S
C303 N80 0.590 . S
C308 N212 0.588 . S
C319 N113 0.730 . S
C324 N245 0.727 . S
C335 C17 1.125 . S
C340 C215 1.118 . S
C351 C50 1.106 . S
C356 C248 1.100 . S
C367 C149 1.110 . S
C372 C83 1.118 . S
C383 C182 1.126 . S
C388 C116 1.121 . S
C399 C259 0.375 . S
C404 C28 0.455 . S
C415 C61 0.600 . S
C420 C160 0.475 . S
C431 C193 0.376 . S
C436 C94 0.445 . S
C447 C226 0.626 . S
C452 C127 0.533 . S
C463 C8 1.892 . S
C468 N38 1.929 . S
C479 C41 1.908 . S
C484 N71 1.905 . S
C495 N104 1.912 . S
C500 C74 1.912 . S
C511 N5 1.920 . S
C516 C107 1.904 . S
C527 C140 1.883 . S
C532 N236 1.925 . S
C543 N137 1.919 . S
C548 C173 1.905 . S
C559 C206 1.883 . S
C564 N170 1.925 . S
C575 C239 1.915 . S
C580 N203 1.910 . S
