# Generated by pormake.
# Topology ukm, (4)-cn, num edge types: 1
# Building blocks:
#     Node 0, Type 0, BuildingBlock: QUQFOY_clean_sbu_3, # of connection points: 4
#     Node 1, Type 0, BuildingBlock: QUQFOY_clean_sbu_3, # of connection points: 4
#     Node 2, Type 0, BuildingBlock: QUQFOY_clean_sbu_3, # of connection points: 4
#     Node 3, Type 0, BuildingBlock: QUQFOY_clean_sbu_3, # of connection points: 4
#     Node 4, Type 0, BuildingBlock: QUQFOY_clean_sbu_3, # of connection points: 4
#     Node 5, Type 0, BuildingBlock: QUQFOY_clean_sbu_3, # of connection points: 4
#     Node 6, Type 0, BuildingBlock: QUQFOY_clean_sbu_3, # of connection points: 4
#     Node 7, Type 0, BuildingBlock: QUQFOY_clean_sbu_3, # of connection points: 4
#     Node 8, Type 0, BuildingBlock: QUQFOY_clean_sbu_3, # of connection points: 4
#     Node 9, Type 0, BuildingBlock: QUQFOY_clean_sbu_3, # of connection points: 4
#     Node 10, Type 0, BuildingBlock: QUQFOY_clean_sbu_3, # of connection points: 4
#     Node 11, Type 0, BuildingBlock: QUQFOY_clean_sbu_3, # of connection points: 4
#     Node 12, Type 0, BuildingBlock: QUQFOY_clean_sbu_3, # of connection points: 4
#     Node 13, Type 0, BuildingBlock: QUQFOY_clean_sbu_3, # of connection points: 4
#     Node 14, Type 0, BuildingBlock: QUQFOY_clean_sbu_3, # of connection points: 4
#     Node 15, Type 0, BuildingBlock: QUQFOY_clean_sbu_3, # of connection points: 4
#     Node 16, Type 0, BuildingBlock: QUQFOY_clean_sbu_3, # of connection points: 4
#     Node 17, Type 0, BuildingBlock: QUQFOY_clean_sbu_3, # of connection points: 4
#     Node 18, Type 0, BuildingBlock: QUQFOY_clean_sbu_3, # of connection points: 4
#     Node 19, Type 0, BuildingBlock: QUQFOY_clean_sbu_3, # of connection points: 4
#     Node 20, Type 0, BuildingBlock: QUQFOY_clean_sbu_3, # of connection points: 4
#     Node 21, Type 0, BuildingBlock: QUQFOY_clean_sbu_3, # of connection points: 4
#     Node 22, Type 0, BuildingBlock: QUQFOY_clean_sbu_3, # of connection points: 4
#     Node 23, Type 0, BuildingBlock: QUQFOY_clean_sbu_3, # of connection points: 4
#     Node 24, Type 0, BuildingBlock: QUQFOY_clean_sbu_3, # of connection points: 4
#     Node 25, Type 0, BuildingBlock: QUQFOY_clean_sbu_3, # of connection points: 4
#     Node 26, Type 0, BuildingBlock: QUQFOY_clean_sbu_3, # of connection points: 4
#     Node 27, Type 0, BuildingBlock: QUQFOY_clean_sbu_3, # of connection points: 4
#     Node 28, Type 0, BuildingBlock: QUQFOY_clean_sbu_3, # of connection points: 4
#     Node 29, Type 0, BuildingBlock: QUQFOY_clean_sbu_3, # of connection points: 4
#     Node 30, Type 0, BuildingBlock: QUQFOY_clean_sbu_3, # of connection points: 4
#     Node 31, Type 0, BuildingBlock: QUQFOY_clean_sbu_3, # of connection points: 4
#     Edge 32, Type (0, 0), BuildingBlock: UVAHIK_clean_linker_0, # of connection points: 2
#     Edge 33, Type (0, 0), BuildingBlock: UVAHIK_clean_linker_0, # of connection points: 2
#     Edge 34, Type (0, 0), BuildingBlock: UVAHIK_clean_linker_0, # of connection points: 2
#     Edge 35, Type (0, 0), BuildingBlock: UVAHIK_clean_linker_0, # of connection points: 2
#     Edge 36, Type (0, 0), BuildingBlock: UVAHIK_clean_linker_0, # of connection points: 2
#     Edge 37, Type (0, 0), BuildingBlock: UVAHIK_clean_linker_0, # of connection points: 2
#     Edge 38, Type (0, 0), BuildingBlock: UVAHIK_clean_linker_0, # of connection points: 2
#     Edge 39, Type (0, 0), BuildingBlock: UVAHIK_clean_linker_0, # of connection points: 2
#     Edge 40, Type (0, 0), BuildingBlock: UVAHIK_clean_linker_0, # of connection points: 2
#     Edge 41, Type (0, 0), BuildingBlock: UVAHIK_clean_linker_0, # of connection points: 2
#     Edge 42, Type (0, 0), BuildingBlock: UVAHIK_clean_linker_0, # of connection points: 2
#     Edge 43, Type (0, 0), BuildingBlock: UVAHIK_clean_linker_0, # of connection points: 2
#     Edge 44, Type (0, 0), BuildingBlock: UVAHIK_clean_linker_0, # of connection points: 2
#     Edge 45, Type (0, 0), BuildingBlock: UVAHIK_clean_linker_0, # of connection points: 2
#     Edge 46, Type (0, 0), BuildingBlock: UVAHIK_clean_linker_0, # of connection points: 2
#     Edge 47, Type (0, 0), BuildingBlock: UVAHIK_clean_linker_0, # of connection points: 2
#     Edge 48, Type (0, 0), BuildingBlock: UVAHIK_clean_linker_0, # of connection points: 2
#     Edge 49, Type (0, 0), BuildingBlock: UVAHIK_clean_linker_0, # of connection points: 2
#     Edge 50, Type (0, 0), BuildingBlock: UVAHIK_clean_linker_0, # of connection points: 2
#     Edge 51, Type (0, 0), BuildingBlock: UVAHIK_clean_linker_0, # of connection points: 2
#     Edge 52, Type (0, 0), BuildingBlock: UVAHIK_clean_linker_0, # of connection points: 2
#     Edge 53, Type (0, 0), BuildingBlock: UVAHIK_clean_linker_0, # of connection points: 2
#     Edge 54, Type (0, 0), BuildingBlock: UVAHIK_clean_linker_0, # of connection points: 2
#     Edge 55, Type (0, 0), BuildingBlock: UVAHIK_clean_linker_0, # of connection points: 2
#     Edge 56, Type (0, 0), BuildingBlock: UVAHIK_clean_linker_0, # of connection points: 2
#     Edge 57, Type (0, 0), BuildingBlock: UVAHIK_clean_linker_0, # of connection points: 2
#     Edge 58, Type (0, 0), BuildingBlock: UVAHIK_clean_linker_0, # of connection points: 2
#     Edge 59, Type (0, 0), BuildingBlock: UVAHIK_clean_linker_0, # of connection points: 2
#     Edge 60, Type (0, 0), BuildingBlock: UVAHIK_clean_linker_0, # of connection points: 2
#     Edge 61, Type (0, 0), BuildingBlock: UVAHIK_clean_linker_0, # of connection points: 2
#     Edge 62, Type (0, 0), BuildingBlock: UVAHIK_clean_linker_0, # of connection points: 2
#     Edge 63, Type (0, 0), BuildingBlock: UVAHIK_clean_linker_0, # of connection points: 2
#     Edge 64, Type (0, 0), BuildingBlock: UVAHIK_clean_linker_0, # of connection points: 2
#     Edge 65, Type (0, 0), BuildingBlock: UVAHIK_clean_linker_0, # of connection points: 2
#     Edge 66, Type (0, 0), BuildingBlock: UVAHIK_clean_linker_0, # of connection points: 2
#     Edge 67, Type (0, 0), BuildingBlock: UVAHIK_clean_linker_0, # of connection points: 2
#     Edge 68, Type (0, 0), BuildingBlock: UVAHIK_clean_linker_0, # of connection points: 2
#     Edge 69, Type (0, 0), BuildingBlock: UVAHIK_clean_linker_0, # of connection points: 2
#     Edge 70, Type (0, 0), BuildingBlock: UVAHIK_clean_linker_0, # of connection points: 2
#     Edge 71, Type (0, 0), BuildingBlock: UVAHIK_clean_linker_0, # of connection points: 2
#     Edge 72, Type (0, 0), BuildingBlock: UVAHIK_clean_linker_0, # of connection points: 2
#     Edge 73, Type (0, 0), BuildingBlock: UVAHIK_clean_linker_0, # of connection points: 2
#     Edge 74, Type (0, 0), BuildingBlock: UVAHIK_clean_linker_0, # of connection points: 2
#     Edge 75, Type (0, 0), BuildingBlock: UVAHIK_clean_linker_0, # of connection points: 2
#     Edge 76, Type (0, 0), BuildingBlock: UVAHIK_clean_linker_0, # of connection points: 2
#     Edge 77, Type (0, 0), BuildingBlock: UVAHIK_clean_linker_0, # of connection points: 2
#     Edge 78, Type (0, 0), BuildingBlock: UVAHIK_clean_linker_0, # of connection points: 2
#     Edge 79, Type (0, 0), BuildingBlock: UVAHIK_clean_linker_0, # of connection points: 2
#     Edge 80, Type (0, 0), BuildingBlock: UVAHIK_clean_linker_0, # of connection points: 2
#     Edge 81, Type (0, 0), BuildingBlock: UVAHIK_clean_linker_0, # of connection points: 2
#     Edge 82, Type (0, 0), BuildingBlock: UVAHIK_clean_linker_0, # of connection points: 2
#     Edge 83, Type (0, 0), BuildingBlock: UVAHIK_clean_linker_0, # of connection points: 2
#     Edge 84, Type (0, 0), BuildingBlock: UVAHIK_clean_linker_0, # of connection points: 2
#     Edge 85, Type (0, 0), BuildingBlock: UVAHIK_clean_linker_0, # of connection points: 2
#     Edge 86, Type (0, 0), BuildingBlock: UVAHIK_clean_linker_0, # of connection points: 2
#     Edge 87, Type (0, 0), BuildingBlock: UVAHIK_clean_linker_0, # of connection points: 2
#     Edge 88, Type (0, 0), BuildingBlock: UVAHIK_clean_linker_0, # of connection points: 2
#     Edge 89, Type (0, 0), BuildingBlock: UVAHIK_clean_linker_0, # of connection points: 2
#     Edge 90, Type (0, 0), BuildingBlock: UVAHIK_clean_linker_0, # of connection points: 2
#     Edge 91, Type (0, 0), BuildingBlock: UVAHIK_clean_linker_0, # of connection points: 2
#     Edge 92, Type (0, 0), BuildingBlock: UVAHIK_clean_linker_0, # of connection points: 2
#     Edge 93, Type (0, 0), BuildingBlock: UVAHIK_clean_linker_0, # of connection points: 2
#     Edge 94, Type (0, 0), BuildingBlock: UVAHIK_clean_linker_0, # of connection points: 2
#     Edge 95, Type (0, 0), BuildingBlock: UVAHIK_clean_linker_0, # of connection points: 2
# Relax obj value: 0.272
# Max RMSD: 0.197
# Mean RMSD: 0.197
data_MOF--net-ukm--node1-QUQFOY_clean_sbu_3--edge1-UVAHIK_clean_linker_0
_symmetry_space_group_name_H-M    P1
_symmetry_Int_Tables_number       1
_symmetry_cell_setting            triclinic
loop_
_symmetry_equiv_pos_as_xyz
'x, y, z'
_cell_length_a     33.162832
_cell_length_b     134.33694
_cell_length_c     54.063541
_cell_angle_alpha  89.973937
_cell_angle_beta   90.003862
_cell_angle_gamma 89.96997
loop_
_atom_site_label
_atom_site_type_symbol
_atom_site_fract_x
_atom_site_fract_y
_atom_site_fract_z
_atom_type_partial_charge
C0 C 0.0214 0.2802 0.32294 0.0
O1 O 0.00315 0.28845 0.32024 0.0
Cd2 Cd 0.03865 0.30412 0.31703 0.0
O3 O 0.05959 0.27992 0.32468 0.0
Cd4 Cd 0.11922 0.29031 0.32454 0.0
C5 C 0.09493 0.29767 0.26622 0.0
O6 O 0.09307 0.3047 0.34628 0.0
O7 O 0.14952 0.30654 0.32682 0.0
O8 O 0.15367 0.28022 0.35572 0.0
C9 C 0.12203 0.31035 0.34011 0.0
O10 O 0.06754 0.30325 0.27531 0.0
C11 C 0.18308 0.27804 0.34162 0.0
O12 O 0.11559 0.2919 0.27997 0.0
O13 O 0.18246 0.28162 0.31988 0.0
C14 C 0.22425 0.9407 0.30969 0.0
O15 O 0.24617 0.93298 0.30814 0.0
Cd16 Cd 0.21603 0.91661 0.30496 0.0
O17 O 0.1861 0.94003 0.30898 0.0
Cd18 Cd 0.13168 0.92823 0.30497 0.0
C19 C 0.16725 0.9198 0.24987 0.0
O20 O 0.15848 0.91547 0.33217 0.0
O21 O 0.10616 0.91165 0.31015 0.0
O22 O 0.08984 0.93773 0.33335 0.0
C23 C 0.13135 0.90917 0.32668 0.0
O24 O 0.19504 0.91528 0.26166 0.0
C25 C 0.06229 0.93953 0.31764 0.0
O26 O 0.14235 0.92542 0.26111 0.0
O27 O 0.06716 0.93607 0.29599 0.0
C28 C 0.05918 0.94374 0.94116 0.0
O29 O 0.03569 0.93627 0.94089 0.0
Cd30 Cd 0.06022 0.91948 0.93614 0.0
O31 O 0.09694 0.94263 0.93824 0.0
Cd32 Cd 0.1484 0.93007 0.93143 0.0
C33 C 0.12276 0.91977 0.98673 0.0
O34 O 0.11017 0.91936 0.90407 0.0
O35 O 0.1662 0.91346 0.91804 0.0
O36 O 0.18396 0.94187 0.90488 0.0
C37 C 0.13507 0.9122 0.90481 0.0
O38 O 0.09132 0.91622 0.97644 0.0
C39 C 0.21737 0.94096 0.91618 0.0
O40 O 0.14676 0.92542 0.97483 0.0
O41 O 0.21836 0.935 0.93441 0.0
C42 C 0.2308 0.27773 0.94425 0.0
O43 O 0.25825 0.28411 0.94814 0.0
Cd44 Cd 0.24032 0.30135 0.95496 0.0
O45 O 0.19414 0.28038 0.94327 0.0
Cd46 Cd 0.15144 0.29488 0.94613 0.0
C47 C 0.17973 0.29772 0.0053 0.0
O48 O 0.19188 0.30767 0.92543 0.0
O49 O 0.14324 0.31247 0.94941 0.0
O50 O 0.11156 0.2878 0.91267 0.0
C51 C 0.17042 0.31473 0.93393 0.0
O52 O 0.21213 0.30153 0.99688 0.0
C53 C 0.07831 0.28838 0.92423 0.0
O54 O 0.1537 0.29396 0.99076 0.0
O55 O 0.07912 0.29214 0.94577 0.0
C56 C 0.96593 0.68876 0.68579 0.0
O57 O 0.98693 0.68088 0.68419 0.0
Cd58 Cd 0.95486 0.66505 0.6752 0.0
O59 O 0.92789 0.68849 0.68329 0.0
Cd60 Cd 0.8707 0.67782 0.67595 0.0
C61 C 0.89476 0.66388 0.72673 0.0
O62 O 0.90325 0.66778 0.64453 0.0
O63 O 0.84397 0.66313 0.65656 0.0
O64 O 0.83995 0.69138 0.6528 0.0
C65 C 0.87421 0.66167 0.64268 0.0
O66 O 0.92443 0.6603 0.71468 0.0
C67 C 0.80787 0.6916 0.66563 0.0
O68 O 0.87244 0.67063 0.71738 0.0
O69 O 0.80517 0.68539 0.68329 0.0
C70 C 0.78197 0.03058 0.70178 0.0
O71 O 0.75321 0.0368 0.70296 0.0
Cd72 Cd 0.76567 0.05446 0.70152 0.0
O73 O 0.81805 0.0335 0.69876 0.0
Cd74 Cd 0.85933 0.04821 0.69307 0.0
C75 C 0.83147 0.05538 0.75067 0.0
O76 O 0.81224 0.05799 0.66848 0.0
O77 O 0.86466 0.06555 0.68307 0.0
O78 O 0.89899 0.03833 0.66403 0.0
C79 C 0.83253 0.06596 0.67044 0.0
O80 O 0.79671 0.05745 0.74201 0.0
C81 C 0.93247 0.0402 0.67447 0.0
O82 O 0.85876 0.0516 0.73704 0.0
O83 O 0.93178 0.04598 0.69304 0.0
C84 C 0.97051 0.03243 0.06727 0.0
O85 O 0.99047 0.04049 0.06657 0.0
Cd86 Cd 0.95679 0.05644 0.06514 0.0
O87 O 0.9322 0.03256 0.06734 0.0
Cd88 Cd 0.87364 0.04337 0.0667 0.0
C89 C 0.90319 0.05312 0.01142 0.0
O90 O 0.90051 0.05621 0.09326 0.0
O91 O 0.8442 0.05944 0.07479 0.0
O92 O 0.83627 0.03269 0.09498 0.0
C93 C 0.87195 0.0623 0.08928 0.0
O94 O 0.9322 0.05748 0.02246 0.0
C95 C 0.80899 0.03051 0.07939 0.0
O96 O 0.87926 0.04738 0.02307 0.0
O97 O 0.81179 0.0344 0.05804 0.0
C98 C 0.80796 0.68896 0.01759 0.0
O99 O 0.778 0.68309 0.0187 0.0
Cd100 Cd 0.78579 0.66591 0.0308 0.0
O101 O 0.843 0.68598 0.02351 0.0
Cd102 Cd 0.87822 0.67125 0.03786 0.0
C103 C 0.85143 0.6592 0.98517 0.0
O104 O 0.82769 0.66533 0.06713 0.0
O105 O 0.87777 0.65549 0.05905 0.0
O106 O 0.91795 0.68186 0.06484 0.0
C107 C 0.84655 0.65732 0.07182 0.0
O108 O 0.81637 0.6582 0.99444 0.0
C109 C 0.9518 0.67929 0.05594 0.0
O110 O 0.87869 0.66402 0.99661 0.0
O111 O 0.95139 0.67299 0.0384 0.0
C112 C 0.02367 0.77903 0.80944 0.0
O113 O 0.00087 0.78656 0.80686 0.0
Cd114 Cd 0.02817 0.80321 0.8047 0.0
O115 O 0.06159 0.78009 0.81138 0.0
Cd116 Cd 0.11478 0.79243 0.81261 0.0
C117 C 0.08973 0.79947 0.75436 0.0
O118 O 0.07907 0.80513 0.83598 0.0
O119 O 0.1352 0.80943 0.81868 0.0
O120 O 0.14826 0.78198 0.84328 0.0
C121 C 0.10528 0.81182 0.83198 0.0
O122 O 0.05896 0.80383 0.76346 0.0
C123 C 0.1818 0.78181 0.83193 0.0
O124 O 0.1132 0.79434 0.76798 0.0
O125 O 0.18401 0.78665 0.81179 0.0
C126 C 0.20455 0.44237 0.79189 0.0
O127 O 0.22927 0.43514 0.79217 0.0
Cd128 Cd 0.20649 0.41827 0.79869 0.0
O129 O 0.16708 0.44093 0.79509 0.0
Cd130 Cd 0.11691 0.42821 0.80248 0.0
C131 C 0.14387 0.41721 0.74819 0.0
O132 O 0.15671 0.41838 0.83098 0.0
O133 O 0.10052 0.41196 0.81834 0.0
O134 O 0.08214 0.43974 0.82983 0.0
C135 C 0.13171 0.41124 0.83181 0.0
O136 O 0.17586 0.41417 0.75886 0.0
C137 C 0.04882 0.43939 0.81827 0.0
O138 O 0.11881 0.42278 0.75949 0.0
O139 O 0.04728 0.43381 0.79931 0.0
C140 C 0.03108 0.44137 0.44432 0.0
O141 O 0.01054 0.43342 0.44272 0.0
Cd142 Cd 0.04285 0.41756 0.43477 0.0
O143 O 0.06902 0.44123 0.44118 0.0
Cd144 Cd 0.12545 0.43041 0.43252 0.0
C145 C 0.10367 0.4182 0.48604 0.0
O146 O 0.09394 0.41901 0.40331 0.0
O147 O 0.15175 0.41482 0.41875 0.0
O148 O 0.15618 0.44268 0.40521 0.0
C149 C 0.12306 0.41285 0.40406 0.0
O150 O 0.07424 0.41412 0.47478 0.0
C151 C 0.18891 0.44324 0.41736 0.0
O152 O 0.12548 0.42472 0.47535 0.0
O153 O 0.1916 0.43796 0.4368 0.0
C154 C 0.21619 0.77741 0.43027 0.0
O155 O 0.237 0.78526 0.43308 0.0
Cd156 Cd 0.20637 0.80147 0.43778 0.0
O157 O 0.17791 0.77776 0.43045 0.0
Cd158 Cd 0.12237 0.78929 0.43536 0.0
C159 C 0.15591 0.79699 0.49177 0.0
O160 O 0.14952 0.80262 0.41028 0.0
O161 O 0.09634 0.80599 0.4319 0.0
O162 O 0.07893 0.78046 0.40628 0.0
C163 C 0.12235 0.80882 0.41624 0.0
O164 O 0.1837 0.80188 0.48094 0.0
C165 C 0.05229 0.77833 0.42232 0.0
O166 O 0.13198 0.79147 0.47951 0.0
O167 O 0.05867 0.78121 0.44433 0.0
C168 C 0.95372 0.19585 0.18155 0.0
O169 O 0.97514 0.18801 0.18125 0.0
Cd170 Cd 0.94556 0.17156 0.18017 0.0
O171 O 0.91549 0.19532 0.1811 0.0
Cd172 Cd 0.85985 0.18367 0.18007 0.0
C173 C 0.89244 0.1737 0.23446 0.0
O174 O 0.88881 0.17134 0.15267 0.0
O175 O 0.83468 0.16719 0.17249 0.0
O176 O 0.82066 0.19384 0.15159 0.0
C177 C 0.862 0.16483 0.15716 0.0
O178 O 0.9208 0.16947 0.22249 0.0
C179 C 0.79173 0.19529 0.16658 0.0
O180 O 0.86804 0.17964 0.22374 0.0
O181 O 0.79479 0.19139 0.18791 0.0
C182 C 0.77116 0.53077 0.18812 0.0
O183 O 0.73986 0.5358 0.19326 0.0
Cd184 Cd 0.74497 0.55253 0.2087 0.0
O185 O 0.8058 0.53477 0.18938 0.0
Cd186 Cd 0.8368 0.55078 0.1988 0.0
C187 C 0.80711 0.5483 0.25793 0.0
O188 O 0.78754 0.56262 0.1825 0.0
O189 O 0.83072 0.56818 0.20916 0.0
O190 O 0.88465 0.54942 0.16449 0.0
C191 C 0.80273 0.56999 0.19384 0.0
O192 O 0.77169 0.55066 0.25093 0.0
C193 C 0.91559 0.54924 0.17836 0.0
O194 O 0.83548 0.54732 0.24234 0.0
O195 O 0.90966 0.55004 0.20146 0.0
C196 C 0.97648 0.52691 0.57958 0.0
O197 O 0.99785 0.53443 0.57403 0.0
Cd198 Cd 0.96804 0.55029 0.5636 0.0
O199 O 0.93832 0.52761 0.58055 0.0
Cd200 Cd 0.88336 0.53934 0.57544 0.0
C201 C 0.90902 0.54239 0.51528 0.0
O202 O 0.91438 0.55435 0.59184 0.0
O203 O 0.85942 0.55609 0.57068 0.0
O204 O 0.84536 0.53218 0.60985 0.0
C205 C 0.88748 0.56009 0.58309 0.0
O206 O 0.93925 0.54752 0.52231 0.0
C207 C 0.8155 0.52969 0.59647 0.0
O208 O 0.88595 0.53818 0.5309 0.0
O209 O 0.81733 0.53185 0.57364 0.0
C210 C 0.79977 0.19411 0.54256 0.0
O211 O 0.77208 0.18758 0.54207 0.0
Cd212 Cd 0.78704 0.17009 0.54682 0.0
O213 O 0.83627 0.19164 0.54615 0.0
Cd214 Cd 0.88123 0.17777 0.55376 0.0
C215 C 0.85268 0.16877 0.49753 0.0
O216 O 0.83534 0.16853 0.57954 0.0
O217 O 0.88981 0.16089 0.56883 0.0
O218 O 0.91796 0.18935 0.58006 0.0
C219 C 0.85629 0.16064 0.58009 0.0
O220 O 0.81895 0.16629 0.50704 0.0
C221 C 0.95202 0.18757 0.57024 0.0
O222 O 0.87917 0.17338 0.51016 0.0
O223 O 0.95313 0.18101 0.55332 0.0
C224 C 0.53724 0.27605 0.81224 0.0
O225 O 0.51186 0.28303 0.80936 0.0
Cd226 Cd 0.53443 0.29975 0.80015 0.0
O227 O 0.57469 0.27769 0.80976 0.0
Cd228 Cd 0.62194 0.29087 0.8006 0.0
C229 C 0.58109 0.29567 0.74475 0.0
O230 O 0.59156 0.30398 0.82578 0.0
O231 O 0.63867 0.30821 0.80015 0.0
O232 O 0.66718 0.28243 0.82914 0.0
C233 C 0.61492 0.31068 0.81742 0.0
O234 O 0.55254 0.30005 0.75618 0.0
C235 C 0.69735 0.28263 0.81469 0.0
O236 O 0.6083 0.29099 0.75661 0.0
O237 O 0.69222 0.28659 0.7936 0.0
C238 C 0.7383 0.93547 0.79949 0.0
O239 O 0.7565 0.92718 0.79801 0.0
Cd240 Cd 0.71643 0.91229 0.79292 0.0
O241 O 0.70017 0.93593 0.79765 0.0
Cd242 Cd 0.63915 0.92628 0.79226 0.0
C243 C 0.67133 0.91721 0.73726 0.0
O244 O 0.65853 0.91299 0.82045 0.0
O245 O 0.60455 0.91079 0.79861 0.0
O246 O 0.6073 0.93861 0.81905 0.0
C247 C 0.62782 0.9077 0.81552 0.0
O248 O 0.69732 0.91211 0.74912 0.0
C249 C 0.57666 0.93984 0.80531 0.0
O250 O 0.64811 0.92327 0.74842 0.0
O251 O 0.57549 0.93487 0.78535 0.0
C252 C 0.5358 0.94884 0.45111 0.0
O253 O 0.50718 0.94255 0.45103 0.0
Cd254 Cd 0.51712 0.9255 0.43774 0.0
O255 O 0.57062 0.94646 0.44332 0.0
Cd256 Cd 0.60997 0.93298 0.42626 0.0
C257 C 0.59182 0.9201 0.47971 0.0
O258 O 0.55725 0.92573 0.40073 0.0
O259 O 0.6144 0.91793 0.40265 0.0
O260 O 0.64532 0.94449 0.39897 0.0
C261 C 0.57878 0.91837 0.3942 0.0
O262 O 0.55543 0.91895 0.47272 0.0
C263 C 0.67979 0.94274 0.40828 0.0
O264 O 0.61688 0.92498 0.4666 0.0
O265 O 0.68146 0.93645 0.4258 0.0
C266 C 0.72596 0.28374 0.42583 0.0
O267 O 0.7402 0.29243 0.42874 0.0
Cd268 Cd 0.69767 0.30699 0.4305 0.0
O269 O 0.6881 0.28232 0.42442 0.0
Cd270 Cd 0.62433 0.29123 0.42618 0.0
C271 C 0.64513 0.30133 0.48275 0.0
O272 O 0.64517 0.30484 0.4001 0.0
O273 O 0.5874 0.30655 0.41795 0.0
O274 O 0.58804 0.27987 0.39853 0.0
C275 C 0.61368 0.31003 0.40328 0.0
O276 O 0.67072 0.30716 0.4728 0.0
C277 C 0.56329 0.27707 0.4151 0.0
O278 O 0.62693 0.29479 0.46995 0.0
O279 O 0.56749 0.28081 0.43649 0.0
C280 C 0.48498 0.69637 0.19298 0.0
O281 O 0.51345 0.69019 0.19637 0.0
Cd282 Cd 0.50291 0.67249 0.19909 0.0
O283 O 0.44885 0.69339 0.1904 0.0
Cd284 Cd 0.40909 0.67818 0.18956 0.0
C285 C 0.43738 0.67256 0.24832 0.0
O286 O 0.45656 0.66778 0.16734 0.0
O287 O 0.40606 0.66034 0.18463 0.0
O288 O 0.36672 0.68398 0.15567 0.0
C289 C 0.43751 0.65975 0.17137 0.0
O290 O 0.47179 0.67013 0.23973 0.0
C291 C 0.33441 0.6841 0.16828 0.0
O292 O 0.41029 0.67623 0.23431 0.0
O293 O 0.33691 0.68145 0.19078 0.0
C294 C 0.28488 0.03167 0.19581 0.0
O295 O 0.26722 0.04003 0.19742 0.0
Cd296 Cd 0.30631 0.05521 0.19676 0.0
O297 O 0.323 0.03117 0.19394 0.0
Cd298 Cd 0.38419 0.04091 0.1917 0.0
C299 C 0.36409 0.05061 0.24826 0.0
O300 O 0.35782 0.05394 0.16541 0.0
O301 O 0.41589 0.05662 0.1824 0.0
O302 O 0.41167 0.02917 0.16183 0.0
C303 C 0.38837 0.05954 0.16784 0.0
O304 O 0.33636 0.05578 0.23815 0.0
C305 C 0.44336 0.02733 0.17421 0.0
O306 O 0.38423 0.04431 0.23576 0.0
O307 O 0.44715 0.03177 0.19483 0.0
C308 C 0.47803 0.03521 0.57917 0.0
O309 O 0.49503 0.04363 0.57682 0.0
Cd310 Cd 0.45752 0.05851 0.56715 0.0
O311 O 0.4401 0.03433 0.57646 0.0
Cd312 Cd 0.37956 0.04393 0.56749 0.0
C313 C 0.41703 0.05096 0.51178 0.0
O314 O 0.39699 0.05852 0.59153 0.0
O315 O 0.34589 0.05986 0.56699 0.0
O316 O 0.34069 0.03345 0.59565 0.0
C317 C 0.36834 0.06381 0.58318 0.0
O318 O 0.44063 0.0569 0.52311 0.0
C319 C 0.3128 0.03171 0.58012 0.0
O320 O 0.39418 0.04505 0.52368 0.0
O321 O 0.3168 0.03543 0.55867 0.0
C322 C 0.2789 0.69093 0.56021 0.0
O323 O 0.26289 0.68237 0.55828 0.0
Cd324 Cd 0.30206 0.6672 0.56046 0.0
O325 O 0.31676 0.69187 0.56307 0.0
Cd326 Cd 0.3796 0.6828 0.56629 0.0
C327 C 0.36172 0.67195 0.5099 0.0
O328 O 0.35281 0.66972 0.59138 0.0
O329 O 0.41427 0.6677 0.5792 0.0
O330 O 0.40958 0.69439 0.59574 0.0
C331 C 0.38422 0.66434 0.59106 0.0
O332 O 0.33399 0.66667 0.51961 0.0
C333 C 0.43795 0.69701 0.58133 0.0
O334 O 0.38074 0.67841 0.52258 0.0
O335 O 0.43859 0.69311 0.55994 0.0
C336 C 0.51149 0.7882 0.31449 0.0
O337 O 0.48854 0.79576 0.31285 0.0
Cd338 Cd 0.51274 0.81264 0.31742 0.0
O339 O 0.54884 0.78918 0.31923 0.0
Cd340 Cd 0.60253 0.80099 0.32756 0.0
C341 C 0.58319 0.81112 0.27047 0.0
O342 O 0.561 0.81232 0.35005 0.0
O343 O 0.62152 0.81735 0.3431 0.0
O344 O 0.63529 0.78959 0.35652 0.0
C345 C 0.58654 0.81931 0.35127 0.0
O346 O 0.55023 0.81475 0.27866 0.0
C347 C 0.66803 0.7892 0.34428 0.0
O348 O 0.60568 0.80571 0.2841 0.0
O349 O 0.67007 0.79441 0.3247 0.0
C350 C 0.72317 0.44055 0.29877 0.0
O351 O 0.74142 0.43226 0.30007 0.0
Cd352 Cd 0.70404 0.41685 0.30105 0.0
O353 O 0.68487 0.44092 0.29935 0.0
Cd354 Cd 0.62428 0.43083 0.30257 0.0
C355 C 0.65017 0.42065 0.24746 0.0
O356 O 0.64831 0.41768 0.32961 0.0
O357 O 0.59293 0.41503 0.3094 0.0
O358 O 0.59017 0.44154 0.33237 0.0
C359 C 0.61854 0.41199 0.3251 0.0
O360 O 0.67849 0.41607 0.25862 0.0
C361 C 0.56128 0.44379 0.31796 0.0
O362 O 0.62711 0.42667 0.25892 0.0
O363 O 0.56231 0.44017 0.29627 0.0
C364 C 0.5096 0.43898 0.93205 0.0
O365 O 0.49276 0.4305 0.93315 0.0
Cd366 Cd 0.53145 0.41538 0.93351 0.0
O367 O 0.5478 0.43974 0.93081 0.0
Cd368 Cd 0.60965 0.42987 0.92939 0.0
C369 C 0.58816 0.41975 0.9855 0.0
O370 O 0.58378 0.41688 0.90302 0.0
O371 O 0.64146 0.4141 0.92036 0.0
O372 O 0.64361 0.44051 0.89932 0.0
C373 C 0.61404 0.4112 0.9057 0.0
O374 O 0.55943 0.41495 0.97541 0.0
C375 C 0.6722 0.44291 0.91377 0.0
O376 O 0.60967 0.42581 0.97311 0.0
O377 O 0.67094 0.43945 0.9356 0.0
C378 C 0.70268 0.78473 0.9459 0.0
O379 O 0.72066 0.79307 0.94657 0.0
Cd380 Cd 0.6832 0.80824 0.95217 0.0
O381 O 0.66469 0.78419 0.94885 0.0
Cd382 Cd 0.60464 0.79426 0.95587 0.0
C383 C 0.64148 0.80389 0.0092 0.0
O384 O 0.62473 0.80665 0.92603 0.0
O385 O 0.57179 0.81014 0.94758 0.0
O386 O 0.57015 0.78148 0.93185 0.0
C387 C 0.59559 0.81251 0.93023 0.0
O388 O 0.6658 0.80906 0.99624 0.0
C389 C 0.53954 0.78107 0.94591 0.0
O390 O 0.61825 0.79755 -0.00092 0.0
O391 O 0.53966 0.78666 0.96483 0.0
C392 C 0.48048 0.19089 0.68501 0.0
O393 O 0.494 0.18204 0.6848 0.0
Cd394 Cd 0.45122 0.16772 0.67803 0.0
O395 O 0.44314 0.19261 0.6818 0.0
Cd396 Cd 0.37961 0.18407 0.67608 0.0
C397 C 0.39578 0.1715 0.73006 0.0
O398 O 0.40203 0.17164 0.64672 0.0
O399 O 0.34322 0.16947 0.66302 0.0
O400 O 0.35012 0.19739 0.65091 0.0
C401 C 0.36971 0.1666 0.64772 0.0
O402 O 0.41965 0.16562 0.71875 0.0
C403 C 0.31956 0.19844 0.66489 0.0
O404 O 0.38014 0.17894 0.71906 0.0
O405 O 0.31825 0.19307 0.68421 0.0
C406 C 0.2673 0.53367 0.67788 0.0
O407 O 0.25017 0.542 0.68163 0.0
Cd408 Cd 0.28801 0.5574 0.68457 0.0
O409 O 0.3055 0.53298 0.67722 0.0
Cd410 Cd 0.3661 0.54278 0.68203 0.0
C411 C 0.33862 0.5528 0.73795 0.0
O412 O 0.34314 0.55613 0.65566 0.0
O413 O 0.40183 0.55805 0.67231 0.0
O414 O 0.40565 0.53154 0.656 0.0
C415 C 0.37435 0.56145 0.65838 0.0
O416 O 0.31243 0.55825 0.72726 0.0
C417 C 0.43043 0.52932 0.67308 0.0
O418 O 0.35906 0.54647 0.72576 0.0
O419 O 0.4247 0.53328 0.69409 0.0
C420 C 0.45864 0.52876 0.05063 0.0
O421 O 0.4893 0.53432 0.04789 0.0
Cd422 Cd 0.48628 0.55219 0.0471 0.0
O423 O 0.42391 0.53252 0.05407 0.0
Cd424 Cd 0.39218 0.54882 0.05725 0.0
C425 C 0.42078 0.55405 -0.00155 0.0
O426 O 0.44387 0.5578 0.08014 0.0
O427 O 0.39767 0.56658 0.06224 0.0
O428 O 0.34622 0.54351 0.09 0.0
C429 C 0.42835 0.56628 0.0762 0.0
O430 O 0.4561 0.55581 0.00665 0.0
C431 C 0.31447 0.54528 0.07758 0.0
O432 O 0.39319 0.55084 0.01273 0.0
O433 O 0.31916 0.54866 0.05583 0.0
C434 C 0.26283 0.18503 0.04795 0.0
O435 O 0.24772 0.1764 0.04566 0.0
Cd436 Cd 0.2908 0.16186 0.04522 0.0
O437 O 0.30077 0.18621 0.04943 0.0
Cd438 Cd 0.3644 0.17736 0.04929 0.0
C439 C 0.34302 0.16784 0.99277 0.0
O440 O 0.34324 0.16381 0.07562 0.0
O441 O 0.39987 0.1619 0.05634 0.0
O442 O 0.39102 0.18917 0.07928 0.0
C443 C 0.37462 0.15861 0.07194 0.0
O444 O 0.3192 0.16176 0.00342 0.0
C445 C 0.4222 0.19134 0.06675 0.0
O446 O 0.36068 0.1747 0.00488 0.0
O447 O 0.42599 0.18713 0.04584 0.0
C448 C 0.15395 0.39653 0.39398 0.0
C449 C 0.12169 0.4032 0.39121 0.0
C450 C 0.15196 0.38703 0.38385 0.0
C451 C 0.14965 0.36876 0.35253 0.0
H452 H 0.05051 0.35392 0.36154 0.0
C453 C 0.14132 0.32745 0.32723 0.0
C454 C 0.11972 0.3212 0.34327 0.0
C455 C 0.13831 0.33775 0.32936 0.0
C456 C 0.07849 0.35795 0.35905 0.0
H457 H 0.06256 0.40531 0.3749 0.0
H458 H 0.05934 0.38864 0.35666 0.0
H459 H 0.05215 0.37162 0.37134 0.0
H460 H 0.07793 0.32075 0.37401 0.0
H461 H 0.0743 0.33881 0.37874 0.0
H462 H 0.17691 0.35506 0.34197 0.0
C463 C 0.0859 0.39076 0.36707 0.0
C464 C 0.07923 0.36813 0.36426 0.0
C465 C 0.08784 0.4003 0.37735 0.0
C466 C 0.09495 0.32543 0.36147 0.0
C467 C 0.09255 0.33576 0.36395 0.0
C468 C 0.14907 0.35859 0.34768 0.0
C469 C 0.11781 0.38399 0.3705 0.0
C470 C 0.11512 0.37358 0.36161 0.0
C471 C 0.11433 0.34205 0.34794 0.0
C472 C 0.1137 0.35301 0.35129 0.0
H473 H 0.18047 0.39852 0.40456 0.0
H474 H 0.17675 0.38197 0.38729 0.0
H475 H 0.17759 0.37279 0.34987 0.0
H476 H 0.1601 0.32439 0.31269 0.0
H477 H 0.15477 0.34233 0.31634 0.0
C478 C 0.15819 0.89643 0.35613 0.0
C479 C 0.13068 0.89914 0.33756 0.0
C480 C 0.1577 0.88681 0.36595 0.0
C481 C 0.16542 0.86436 0.37155 0.0
H482 H 0.06267 0.85136 0.38289 0.0
C483 C 0.15179 0.82224 0.38985 0.0
C484 C 0.12353 0.81921 0.40766 0.0
C485 C 0.15329 0.83215 0.38222 0.0
C486 C 0.09161 0.85491 0.38008 0.0
H487 H 0.08123 0.89396 0.31463 0.0
H488 H 0.08086 0.8772 0.3314 0.0
H489 H 0.06399 0.86857 0.36908 0.0
H490 H 0.07498 0.82414 0.43163 0.0
H491 H 0.07808 0.84144 0.41863 0.0
H492 H 0.19301 0.85073 0.38308 0.0
C493 C 0.10229 0.88251 0.33874 0.0
C494 C 0.09236 0.86473 0.37189 0.0
C495 C 0.10267 0.8921 0.32903 0.0
C496 C 0.0969 0.82625 0.41773 0.0
C497 C 0.09857 0.83615 0.41022 0.0
C498 C 0.16467 0.85453 0.37988 0.0
C499 C 0.12974 0.87977 0.3573 0.0
C500 C 0.12923 0.86953 0.3673 0.0
C501 C 0.12669 0.83921 0.39235 0.0
C502 C 0.12774 0.84969 0.38405 0.0
H503 H 0.18007 0.90172 0.36307 0.0
H504 H 0.17894 0.88492 0.38043 0.0
H505 H 0.19429 0.86784 0.36797 0.0
H506 H 0.17265 0.81695 0.38176 0.0
H507 H 0.17491 0.83427 0.36815 0.0
C508 C 0.14724 0.89395 0.903 0.0
C509 C 0.12444 0.90224 0.89554 0.0
C510 C 0.13564 0.8844 0.89613 0.0
C511 C 0.08842 0.86516 0.89192 0.0
H512 H 0.07951 0.8587 0.82224 0.0
C513 C 0.0685 0.82485 0.85624 0.0
C514 C 0.09858 0.82226 0.83911 0.0
C515 C 0.0625 0.83482 0.86269 0.0
C516 C 0.08137 0.86044 0.84177 0.0
H517 H 0.07224 0.90707 0.87454 0.0
H518 H 0.05258 0.89022 0.86183 0.0
H519 H 0.08633 0.87611 0.83496 0.0
H520 H 0.14528 0.82803 0.81488 0.0
H521 H 0.13461 0.84535 0.82603 0.0
H522 H 0.0852 0.84948 0.8987 0.0
C523 C 0.07905 0.89121 0.87332 0.0
C524 C 0.08504 0.87036 0.84902 0.0
C525 C 0.09034 0.9008 0.88052 0.0
C526 C 0.122 0.82979 0.82824 0.0
C527 C 0.11561 0.83972 0.83439 0.0
C528 C 0.08429 0.85525 0.8847 0.0
C529 C 0.10133 0.88294 0.88141 0.0
C530 C 0.09007 0.87275 0.87408 0.0
C531 C 0.08601 0.84232 0.85175 0.0
C532 C 0.0822 0.8528 0.85952 0.0
H533 H 0.17366 0.89481 0.91459 0.0
H534 H 0.15372 0.87813 0.90219 0.0
H535 H 0.09191 0.86687 0.91139 0.0
H536 H 0.04998 0.81918 0.86483 0.0
H537 H 0.03958 0.83668 0.8762 0.0
C538 C 0.17726 0.40073 0.85791 0.0
C539 C 0.14014 0.40208 0.84582 0.0
C540 C 0.18551 0.39182 0.87027 0.0
C541 C 0.20182 0.36967 0.87996 0.0
H542 H 0.11646 0.35742 0.91836 0.0
C543 C 0.1959 0.32782 0.90496 0.0
C544 C 0.17744 0.3252 0.92737 0.0
C545 C 0.19769 0.33781 0.89774 0.0
C546 C 0.14093 0.36079 0.90807 0.0
H547 H 0.08246 0.39526 0.83734 0.0
H548 H 0.09689 0.37977 0.85874 0.0
H549 H 0.10651 0.37394 0.9013 0.0
H550 H 0.14963 0.33089 0.96083 0.0
H551 H 0.15378 0.34826 0.94861 0.0
H552 H 0.23617 0.35642 0.88676 0.0
C553 C 0.11947 0.38559 0.85892 0.0
C554 C 0.13499 0.37021 0.89804 0.0
C555 C 0.1113 0.39445 0.84654 0.0
C556 C 0.16331 0.33271 0.94319 0.0
C557 C 0.1656 0.34265 0.93618 0.0
C558 C 0.20783 0.3602 0.89007 0.0
C559 C 0.15664 0.38418 0.87086 0.0
C560 C 0.165 0.37465 0.8835 0.0
C561 C 0.18144 0.34528 0.91301 0.0
C562 C 0.17718 0.35562 0.90394 0.0
H563 H 0.20007 0.40649 0.8576 0.0
H564 H 0.2143 0.39093 0.87948 0.0
H565 H 0.22537 0.37293 0.8687 0.0
H566 H 0.20711 0.32214 0.89251 0.0
H567 H 0.20988 0.33961 0.8797 0.0
C568 C 0.87361 0.57675 0.56504 0.0
C569 C 0.89191 0.57097 0.58355 0.0
C570 C 0.87701 0.58707 0.56535 0.0
C571 C 0.93064 0.60813 0.59598 0.0
H572 H 0.83181 0.62222 0.5803 0.0
C573 C 0.84545 0.64568 0.62782 0.0
C574 C 0.87754 0.65247 0.628 0.0
C575 C 0.84976 0.63644 0.61652 0.0
C576 C 0.85969 0.61841 0.58471 0.0
H577 H 0.92885 0.57136 0.61654 0.0
H578 H 0.933 0.58949 0.61799 0.0
H579 H 0.83587 0.60447 0.57307 0.0
H580 H 0.93862 0.65519 0.61532 0.0
H581 H 0.94598 0.639 0.59512 0.0
H582 H 0.95315 0.62202 0.60947 0.0
C583 C 0.91708 0.58605 0.60274 0.0
C584 C 0.86226 0.60822 0.58026 0.0
C585 C 0.91439 0.57567 0.60212 0.0
C586 C 0.91344 0.65006 0.61557 0.0
C587 C 0.91773 0.64078 0.60414 0.0
C588 C 0.92784 0.61832 0.60076 0.0
C589 C 0.89799 0.59188 0.5845 0.0
C590 C 0.89739 0.6029 0.58644 0.0
C591 C 0.88618 0.6338 0.60497 0.0
C592 C 0.89186 0.6235 0.59587 0.0
H593 H 0.85676 0.57328 0.55019 0.0
H594 H 0.86278 0.59129 0.55066 0.0
H595 H 0.95846 0.60431 0.60045 0.0
H596 H 0.81736 0.64733 0.63719 0.0
H597 H 0.82506 0.6312 0.6179 0.0
C598 C 0.78733 0.0761 0.64307 0.0
C599 C 0.81722 0.07558 0.66143 0.0
C600 C 0.77464 0.08536 0.63405 0.0
C601 C 0.78796 0.10519 0.60678 0.0
H602 H 0.78002 0.12826 0.64968 0.0
C603 C 0.85949 0.1422 0.58356 0.0
C604 C 0.83937 0.15114 0.58887 0.0
C605 C 0.84289 0.13312 0.5906 0.0
C606 C 0.78117 0.12191 0.63738 0.0
H607 H 0.85579 0.08424 0.68568 0.0
H608 H 0.83368 0.10027 0.67013 0.0
H609 H 0.77279 0.11159 0.66711 0.0
H610 H 0.78614 0.15762 0.60575 0.0
H611 H 0.75752 0.14162 0.61876 0.0
H612 H 0.79896 0.11548 0.57732 0.0
C613 C 0.81989 0.0936 0.66269 0.0
C614 C 0.77722 0.11238 0.64735 0.0
C615 C 0.83296 0.08441 0.67135 0.0
C616 C 0.80234 0.15083 0.6015 0.0
C617 C 0.78589 0.14171 0.60883 0.0
C618 C 0.79208 0.11471 0.59682 0.0
C619 C 0.7911 0.09417 0.64371 0.0
C620 C 0.78275 0.10395 0.63235 0.0
C621 C 0.80597 0.13278 0.60328 0.0
C622 C 0.79085 0.12311 0.61229 0.0
H623 H 0.77464 0.06938 0.63522 0.0
H624 H 0.75257 0.08563 0.6193 0.0
H625 H 0.79241 0.09881 0.59482 0.0
H626 H 0.88802 0.14219 0.5738 0.0
H627 H 0.85948 0.12636 0.5866 0.0
C628 C 0.89592 0.1518 0.13142 0.0
C629 C 0.86632 0.15446 0.1488 0.0
C630 C 0.90122 0.14184 0.12478 0.0
C631 C 0.88298 0.12093 0.10416 0.0
H632 H 0.88674 0.101 0.15617 0.0
C633 C 0.84724 0.07978 0.08767 0.0
C634 C 0.87414 0.07272 0.09747 0.0
C635 C 0.8509 0.0898 0.09385 0.0
C636 C 0.88618 0.1065 0.1415 0.0
H637 H 0.81887 0.14883 0.17264 0.0
H638 H 0.82836 0.13149 0.16116 0.0
H639 H 0.88525 0.11868 0.16702 0.0
H640 H 0.92534 0.07056 0.12184 0.0
H641 H 0.93115 0.08816 0.13312 0.0
H642 H 0.88268 0.10874 0.07866 0.0
C643 C 0.84754 0.13708 0.15282 0.0
C644 C 0.88506 0.11657 0.14768 0.0
C645 C 0.8419 0.14702 0.15921 0.0
C646 C 0.90421 0.07584 0.11403 0.0
C647 C 0.90756 0.08588 0.12047 0.0
C648 C 0.88361 0.11085 0.09799 0.0
C649 C 0.87737 0.1344 0.13569 0.0
C650 C 0.88275 0.12385 0.12907 0.0
C651 C 0.88121 0.09294 0.11016 0.0
C652 C 0.88452 0.10356 0.11663 0.0
H653 H 0.91517 0.1574 0.12313 0.0
H654 H 0.92437 0.13991 0.11148 0.0
H655 H 0.88105 0.12642 0.08952 0.0
H656 H 0.82373 0.0776 0.07483 0.0
H657 H 0.82981 0.09509 0.08599 0.0
C658 C 0.77066 0.58285 0.16697 0.0
C659 C 0.78914 0.58026 0.18939 0.0
C660 C 0.76401 0.59285 0.16118 0.0
C661 C 0.81191 0.61657 0.1753 0.0
H662 H 0.73665 0.62612 0.12578 0.0
C663 C 0.79425 0.65118 0.10161 0.0
C664 C 0.83289 0.65037 0.0911 0.0
C665 C 0.78133 0.64428 0.11931 0.0
C666 C 0.75735 0.62366 0.14003 0.0
H667 H 0.81099 0.58586 0.22452 0.0
H668 H 0.79817 0.60328 0.21478 0.0
H669 H 0.72235 0.61065 0.14793 0.0
H670 H 0.88864 0.64191 0.09123 0.0
H671 H 0.86628 0.62996 0.12196 0.0
H672 H 0.84755 0.62936 0.1668 0.0
C673 C 0.79016 0.59767 0.20126 0.0
C674 C 0.74941 0.61476 0.15252 0.0
C675 C 0.79748 0.58771 0.20685 0.0
C676 C 0.85866 0.64271 0.09895 0.0
C677 C 0.846 0.63593 0.11674 0.0
C678 C 0.81969 0.62544 0.16293 0.0
C679 C 0.7752 0.60039 0.17789 0.0
C680 C 0.77763 0.61088 0.1694 0.0
C681 C 0.80718 0.6366 0.12699 0.0
C682 C 0.79357 0.62879 0.1443 0.0
H683 H 0.76377 0.57722 0.15326 0.0
H684 H 0.75277 0.59465 0.14291 0.0
H685 H 0.83452 0.61382 0.18803 0.0
H686 H 0.77379 0.65703 0.09585 0.0
H687 H 0.75123 0.64492 0.12693 0.0
C688 C 0.58359 0.39793 0.87938 0.0
C689 C 0.61472 0.40112 0.89509 0.0
C690 C 0.58324 0.38819 0.87041 0.0
C691 C 0.57687 0.36572 0.86761 0.0
H692 H 0.67667 0.35319 0.84691 0.0
C693 C 0.58962 0.32367 0.84669 0.0
C694 C 0.61334 0.32102 0.82622 0.0
C695 C 0.58897 0.33351 0.85499 0.0
C696 C 0.64849 0.35661 0.85243 0.0
H697 H 0.67011 0.39673 0.91358 0.0
H698 H 0.66907 0.37972 0.89821 0.0
H699 H 0.6773 0.37045 0.86038 0.0
H700 H 0.65424 0.32656 0.79804 0.0
H701 H 0.65246 0.34369 0.8122 0.0
H702 H 0.54793 0.35192 0.85901 0.0
C703 C 0.64529 0.38475 0.89252 0.0
C704 C 0.64894 0.36646 0.86041 0.0
C705 C 0.64574 0.39448 0.90139 0.0
C706 C 0.63593 0.32837 0.81402 0.0
C707 C 0.63509 0.33817 0.8222 0.0
C708 C 0.57638 0.35586 0.85951 0.0
C709 C 0.61393 0.38149 0.87705 0.0
C710 C 0.61317 0.37111 0.86812 0.0
C711 C 0.6119 0.34084 0.84287 0.0
C712 C 0.6122 0.35123 0.85182 0.0
H713 H 0.55939 0.4029 0.87417 0.0
H714 H 0.559 0.38592 0.85821 0.0
H715 H 0.5489 0.36908 0.87374 0.0
H716 H 0.57196 0.31814 0.85643 0.0
H717 H 0.5711 0.33534 0.87113 0.0
C718 C 0.56583 0.8295 0.92605 0.0
C719 C 0.59233 0.82212 0.91739 0.0
C720 C 0.56491 0.83885 0.91482 0.0
C721 C 0.59055 0.85211 0.85782 0.0
H722 H 0.60251 0.87518 0.90039 0.0
C723 C 0.64419 0.89511 0.84805 0.0
C724 C 0.61994 0.89821 0.8282 0.0
C725 C 0.63692 0.886 0.85959 0.0
C726 C 0.59914 0.86879 0.88834 0.0
H727 H 0.63758 0.81857 0.88977 0.0
H728 H 0.6357 0.83489 0.87007 0.0
H729 H 0.59579 0.85862 0.91875 0.0
H730 H 0.56875 0.89433 0.80509 0.0
H731 H 0.55637 0.87839 0.82517 0.0
H732 H 0.59469 0.86224 0.8274 0.0
C733 C 0.61572 0.83344 0.88551 0.0
C734 C 0.59491 0.85936 0.8988 0.0
C735 C 0.61694 0.82413 0.89687 0.0
C736 C 0.58805 0.89211 0.82029 0.0
C737 C 0.581 0.88298 0.8317 0.0
C738 C 0.59441 0.86154 0.84737 0.0
C739 C 0.5901 0.84091 0.89461 0.0
C740 C 0.59114 0.85094 0.8836 0.0
C741 C 0.60551 0.87982 0.85133 0.0
C742 C 0.59924 0.86994 0.86254 0.0
H743 H 0.54649 0.82813 0.94183 0.0
H744 H 0.54469 0.84448 0.92201 0.0
H745 H 0.58746 0.84572 0.84575 0.0
H746 H 0.66891 0.89969 0.85454 0.0
H747 H 0.65646 0.88366 0.87458 0.0
C748 C 0.53358 0.83204 0.36092 0.0
C749 C 0.57369 0.82972 0.35468 0.0
C750 C 0.52045 0.84194 0.36097 0.0
C751 C 0.54435 0.86607 0.33338 0.0
H752 H 0.5029 0.8781 0.39337 0.0
C753 C 0.58852 0.90409 0.36605 0.0
C754 C 0.56232 0.90993 0.38026 0.0
C755 C 0.57578 0.89498 0.35668 0.0
C756 C 0.51314 0.87484 0.37616 0.0
H757 H 0.63176 0.83594 0.34445 0.0
H758 H 0.60881 0.85312 0.34447 0.0
H759 H 0.50809 0.86 0.39046 0.0
H760 H 0.50154 0.91126 0.39459 0.0
H761 H 0.47928 0.89507 0.37855 0.0
H762 H 0.55173 0.88088 0.3196 0.0
C763 C 0.58744 0.8473 0.34899 0.0
C764 C 0.5163 0.86448 0.37458 0.0
C765 C 0.60065 0.83747 0.34925 0.0
C766 C 0.5222 0.90686 0.38357 0.0
C767 C 0.50956 0.89762 0.37451 0.0
C768 C 0.54099 0.87638 0.33489 0.0
C769 C 0.54712 0.8496 0.35441 0.0
C770 C 0.53402 0.86009 0.35371 0.0
C771 C 0.53671 0.89147 0.36165 0.0
C772 C 0.52757 0.88088 0.35684 0.0
H773 H 0.51215 0.8262 0.36516 0.0
H774 H 0.48933 0.84359 0.36546 0.0
H775 H 0.5574 0.86279 0.31691 0.0
H776 H 0.61956 0.90634 0.3632 0.0
H777 H 0.59762 0.89038 0.34713 0.0
C778 C 0.5816 0.32681 0.40314 0.0
C779 C 0.61108 0.32029 0.39394 0.0
C780 C 0.58134 0.33678 0.39597 0.0
C781 C 0.57496 0.35634 0.36883 0.0
H782 H 0.67769 0.36976 0.36097 0.0
C783 C 0.58723 0.39518 0.32564 0.0
C784 C 0.61624 0.4018 0.33498 0.0
C785 C 0.58597 0.38536 0.3338 0.0
C786 C 0.64875 0.36616 0.36341 0.0
H787 H 0.66238 0.31893 0.36931 0.0
H788 H 0.66119 0.33628 0.35614 0.0
H789 H 0.67635 0.35231 0.37295 0.0
H790 H 0.66606 0.40343 0.36061 0.0
H791 H 0.66318 0.38626 0.37546 0.0
H792 H 0.54734 0.37027 0.36013 0.0
C793 C 0.63898 0.33377 0.36945 0.0
C794 C 0.64798 0.35611 0.36987 0.0
C795 C 0.63948 0.32382 0.37682 0.0
C796 C 0.6435 0.39847 0.35303 0.0
C797 C 0.642 0.38863 0.3614 0.0
C798 C 0.57573 0.3664 0.3626 0.0
C799 C 0.6103 0.34039 0.37925 0.0
C800 C 0.61108 0.35107 0.37248 0.0
C801 C 0.6134 0.38196 0.35169 0.0
C802 C 0.61263 0.3714 0.35962 0.0
H803 H 0.5594 0.32429 0.41649 0.0
H804 H 0.55913 0.3417 0.4041 0.0
H805 H 0.54604 0.35266 0.37049 0.0
H806 H 0.56593 0.39751 0.31159 0.0
H807 H 0.56405 0.38038 0.32561 0.0
C808 C 0.43404 0.58471 0.076 0.0
C809 C 0.44736 0.5755 0.0851 0.0
C810 C 0.45059 0.59352 0.08486 0.0
C811 C 0.49219 0.60365 0.14073 0.0
H812 H 0.5001 0.62723 0.09958 0.0
C813 C 0.43433 0.64126 0.17105 0.0
C814 C 0.45347 0.65004 0.1634 0.0
C815 C 0.44868 0.63204 0.1633 0.0
C816 C 0.49909 0.62072 0.11139 0.0
H817 H 0.48939 0.56822 0.10998 0.0
H818 H 0.51797 0.58377 0.12595 0.0
H819 H 0.50027 0.61082 0.08041 0.0
H820 H 0.5033 0.6561 0.1422 0.0
H821 H 0.52815 0.63988 0.12829 0.0
H822 H 0.48899 0.61356 0.17162 0.0
C823 C 0.49483 0.58411 0.11183 0.0
C824 C 0.49886 0.61133 0.10039 0.0
C825 C 0.47844 0.57524 0.10276 0.0
C826 C 0.48783 0.64944 0.14826 0.0
C827 C 0.50211 0.64018 0.14036 0.0
C828 C 0.49248 0.61303 0.15174 0.0
C829 C 0.48069 0.59333 0.10312 0.0
C830 C 0.4931 0.60276 0.11487 0.0
C831 C 0.48242 0.6314 0.14766 0.0
C832 C 0.49363 0.62165 0.13703 0.0
H833 H 0.41029 0.58515 0.06228 0.0
H834 H 0.43847 0.60051 0.07815 0.0
H835 H 0.48777 0.59717 0.15236 0.0
H836 H 0.40787 0.64148 0.18279 0.0
H837 H 0.43232 0.62542 0.16881 0.0
C838 C 0.3533 0.14552 0.1019 0.0
C839 C 0.379 0.14864 0.08278 0.0
C840 C 0.35631 0.13589 0.11137 0.0
C841 C 0.38826 0.117 0.1363 0.0
H842 H 0.38697 0.09508 0.08954 0.0
C843 C 0.41879 0.07643 0.16452 0.0
C844 C 0.3897 0.06952 0.15669 0.0
C845 C 0.41876 0.08608 0.15509 0.0
C846 C 0.3873 0.10115 0.10273 0.0
H847 H 0.42831 0.14423 0.05874 0.0
H848 H 0.43312 0.12734 0.07514 0.0
H849 H 0.3848 0.11224 0.07433 0.0
H850 H 0.3385 0.06715 0.13243 0.0
H851 H 0.33889 0.08405 0.11562 0.0
H852 H 0.39082 0.10591 0.16471 0.0
C853 C 0.41075 0.13236 0.08274 0.0
C854 C 0.38636 0.11092 0.09408 0.0
C855 C 0.4081 0.14202 0.07349 0.0
C856 C 0.3612 0.07234 0.1388 0.0
C857 C 0.3615 0.08197 0.12914 0.0
C858 C 0.38975 0.10723 0.14495 0.0
C859 C 0.38473 0.12921 0.10164 0.0
C860 C 0.38664 0.11891 0.11081 0.0
C861 C 0.38997 0.08893 0.13746 0.0
C862 C 0.3891 0.09924 0.12822 0.0
H863 H 0.33067 0.15049 0.10942 0.0
H864 H 0.33581 0.13359 0.12588 0.0
H865 H 0.38868 0.12307 0.1495 0.0
H866 H 0.44114 0.07445 0.17829 0.0
H867 H 0.44122 0.09132 0.16158 0.0
C868 C 0.34023 0.08064 0.57438 0.0
C869 C 0.36558 0.07451 0.5886 0.0
C870 C 0.33969 0.09089 0.57817 0.0
C871 C 0.40028 0.11117 0.60537 0.0
H872 H 0.29956 0.12578 0.60198 0.0
C873 C 0.33331 0.15065 0.64084 0.0
C874 C 0.36607 0.15689 0.63536 0.0
C875 C 0.33195 0.141 0.63158 0.0
C876 C 0.32792 0.1218 0.60304 0.0
H877 H 0.40927 0.07423 0.61842 0.0
H878 H 0.40735 0.09213 0.62565 0.0
H879 H 0.29966 0.10791 0.59489 0.0
H880 H 0.42185 0.15817 0.61468 0.0
H881 H 0.419 0.14131 0.59792 0.0
H882 H 0.42821 0.12496 0.61483 0.0
C883 C 0.38877 0.08904 0.61108 0.0
C884 C 0.32805 0.11158 0.59873 0.0
C885 C 0.38961 0.07879 0.60711 0.0
C886 C 0.39642 0.15347 0.61938 0.0
C887 C 0.3949 0.14382 0.60992 0.0
C888 C 0.40008 0.12138 0.60991 0.0
C889 C 0.36416 0.09522 0.59644 0.0
C890 C 0.36417 0.10613 0.60014 0.0
C891 C 0.36313 0.1374 0.61643 0.0
C892 C 0.36382 0.12679 0.60911 0.0
H893 H 0.32151 0.07755 0.55988 0.0
H894 H 0.32076 0.09544 0.5664 0.0
H895 H 0.42872 0.10722 0.60613 0.0
H896 H 0.30941 0.15309 0.65309 0.0
H897 H 0.30731 0.13622 0.63722 0.0
C898 C 0.41993 0.64869 0.60249 0.0
C899 C 0.38374 0.65404 0.60018 0.0
C900 C 0.4193 0.63867 0.60914 0.0
C901 C 0.35652 0.61674 0.60504 0.0
H902 H 0.42455 0.60613 0.6571 0.0
C903 C 0.34137 0.57656 0.64086 0.0
C904 C 0.37651 0.57164 0.64859 0.0
C905 C 0.34286 0.58655 0.63392 0.0
C906 C 0.40588 0.60894 0.64221 0.0
H907 H 0.3186 0.65322 0.60344 0.0
H908 H 0.31758 0.63561 0.61479 0.0
H909 H 0.42592 0.62391 0.64804 0.0
H910 H 0.44103 0.57307 0.65398 0.0
H911 H 0.44395 0.59041 0.641 0.0
H912 H 0.33707 0.60179 0.59871 0.0
C913 C 0.34631 0.63921 0.61146 0.0
C914 C 0.40652 0.61911 0.63719 0.0
C915 C 0.34695 0.64927 0.60515 0.0
C916 C 0.41342 0.57674 0.64832 0.0
C917 C 0.41502 0.58668 0.64106 0.0
C918 C 0.35625 0.60654 0.60983 0.0
C919 C 0.38245 0.63382 0.61325 0.0
C920 C 0.38168 0.62308 0.61866 0.0
C921 C 0.37962 0.59176 0.63428 0.0
C922 C 0.3808 0.60253 0.62855 0.0
H923 H 0.44869 0.65222 0.59879 0.0
H924 H 0.44752 0.63463 0.61033 0.0
H925 H 0.33753 0.61965 0.59041 0.0
H926 H 0.31247 0.5728 0.64104 0.0
H927 H 0.31496 0.59026 0.6291 0.0
C928 C 0.50479 0.2668 0.42873 0.0
C929 C 0.52862 0.2706 0.40943 0.0
C930 C 0.46756 0.26242 0.42368 0.0
C931 C 0.39755 0.2549 0.37282 0.0
H932 H 0.31939 0.26908 0.41285 0.0
C933 C 0.25086 0.2705 0.33469 0.0
C934 C 0.21774 0.27211 0.35037 0.0
C935 C 0.28595 0.26609 0.3437 0.0
C936 C 0.34041 0.26479 0.40183 0.0
H937 H 0.53415 0.27194 0.36963 0.0
H938 H 0.46867 0.26458 0.36079 0.0
H939 H 0.38903 0.26854 0.42579 0.0
H940 H 0.19405 0.26958 0.38723 0.0
H941 H 0.25541 0.26176 0.40299 0.0
H942 H 0.34881 0.25167 0.3481 0.0
C943 C 0.47881 0.26483 0.37983 0.0
C944 C 0.38059 0.26448 0.40928 0.0
C945 C 0.51626 0.26913 0.38488 0.0
C946 C 0.21934 0.26856 0.3748 0.0
C947 C 0.25446 0.2641 0.38382 0.0
C948 C 0.35719 0.25519 0.36537 0.0
C949 C 0.45325 0.26186 0.39925 0.0
C950 C 0.40994 0.25993 0.39431 0.0
C951 C 0.28865 0.26313 0.36859 0.0
C952 C 0.32857 0.26055 0.37923 0.0
H953 H 0.51393 0.26766 0.44785 0.0
H954 H 0.44894 0.26 0.43901 0.0
H955 H 0.41936 0.25118 0.36113 0.0
H956 H 0.25045 0.27308 0.3157 0.0
H957 H 0.31178 0.26559 0.33151 0.0
C958 C 0.99738 0.94787 0.30651 0.0
C959 C 0.02512 0.94484 0.32465 0.0
C960 C 0.96007 0.95183 0.31335 0.0
C961 C 0.8994 0.96024 0.36796 0.0
H962 H 0.81209 0.94754 0.33221 0.0
C963 C 0.75285 0.94679 0.4119 0.0
C964 C 0.7167 0.94739 0.39847 0.0
C965 C 0.78884 0.95017 0.40158 0.0
C966 C 0.83596 0.95136 0.34206 0.0
H967 H 0.03665 0.94411 0.36408 0.0
H968 H 0.97125 0.95063 0.37605 0.0
H969 H 0.88002 0.94677 0.31575 0.0
H970 H 0.68932 0.95249 0.3643 0.0
H971 H 0.75272 0.95821 0.34598 0.0
H972 H 0.85522 0.96412 0.39525 0.0
C973 C 0.97836 0.95019 0.35653 0.0
C974 C 0.87502 0.95094 0.33261 0.0
C975 C 0.01581 0.94635 0.34969 0.0
C976 C 0.71682 0.9519 0.37502 0.0
C977 C 0.753 0.95517 0.36453 0.0
C978 C 0.86032 0.96055 0.37756 0.0
C979 C 0.94957 0.95272 0.33846 0.0
C980 C 0.90748 0.95504 0.34591 0.0
C981 C 0.78944 0.95412 0.37752 0.0
C982 C 0.82855 0.9558 0.36511 0.0
H983 H 0.00402 0.94692 0.28704 0.0
H984 H 0.93896 0.95389 0.29895 0.0
H985 H 0.92354 0.96368 0.37838 0.0
H986 H 0.75358 0.94341 0.4301 0.0
H987 H 0.81656 0.94916 0.41189 0.0
C988 C 0.54596 0.95257 0.83335 0.0
C989 C 0.54219 0.94597 0.81336 0.0
C990 C 0.51182 0.95713 0.84347 0.0
C991 C 0.39905 0.95903 0.83592 0.0
H992 H 0.40142 0.95689 0.90735 0.0
C993 C 0.25201 0.95374 0.88991 0.0
C994 C 0.25407 0.94614 0.90773 0.0
C995 C 0.28732 0.95791 0.8803 0.0
C996 C 0.40013 0.95752 0.88739 0.0
H997 H 0.50035 0.93948 0.78716 0.0
H998 H 0.44097 0.9469 0.80534 0.0
H999 H 0.46401 0.9566 0.88449 0.0
H1000 H 0.29446 0.93727 0.93029 0.0
H1001 H 0.35558 0.94411 0.9129 0.0
H1002 H 0.33494 0.95878 0.8387 0.0
C1003 C 0.47002 0.9489 0.81299 0.0
C1004 C 0.43627 0.95754 0.8742 0.0
C1005 C 0.50417 0.94452 0.80262 0.0
C1006 C 0.29189 0.94312 0.91656 0.0
C1007 C 0.32708 0.94716 0.90672 0.0
C1008 C 0.36285 0.95874 0.84908 0.0
C1009 C 0.47315 0.95498 0.83412 0.0
C1010 C 0.43612 0.95774 0.84817 0.0
C1011 C 0.32537 0.95446 0.88805 0.0
C1012 C 0.36294 0.95743 0.8749 0.0
H1013 H 0.5751 0.95394 0.84175 0.0
H1014 H 0.51564 0.96198 0.85928 0.0
H1015 H 0.39773 0.95959 0.81596 0.0
H1016 H 0.22316 0.95631 0.88301 0.0
H1017 H 0.28476 0.96365 0.86631 0.0
C1018 C 0.74103 0.27281 0.84334 0.0
C1019 C 0.73728 0.27913 0.82281 0.0
C1020 C 0.77906 0.2705 0.85284 0.0
C1021 C 0.88985 0.27389 0.84124 0.0
H1022 H 0.89361 0.27512 0.91281 0.0
C1023 C 0.04079 0.27828 0.89298 0.0
C1024 C 0.04034 0.28485 0.91316 0.0
C1025 C 0.00467 0.27505 0.88237 0.0
C1026 C 0.89317 0.27483 0.89279 0.0
H1027 H 0.77012 0.28763 0.79535 0.0
H1028 H 0.83608 0.28408 0.81251 0.0
H1029 H 0.82907 0.27395 0.89217 0.0
H1030 H 0.00206 0.29318 0.93818 0.0
H1031 H 0.9393 0.288 0.91905 0.0
H1032 H 0.95375 0.2757 0.84185 0.0
C1033 C 0.81011 0.28059 0.82097 0.0
C1034 C 0.85604 0.27395 0.8809 0.0
C1035 C 0.77217 0.28272 0.8112 0.0
C1036 C 0.00326 0.28807 0.9227 0.0
C1037 C 0.96723 0.285 0.91185 0.0
C1038 C 0.92695 0.27498 0.85313 0.0
C1039 C 0.81403 0.27466 0.84232 0.0
C1040 C 0.85377 0.27379 0.85492 0.0
C1041 C 0.96741 0.27847 0.89148 0.0
C1042 C 0.92893 0.27579 0.87904 0.0
H1043 H 0.71452 0.26983 0.85242 0.0
H1044 H 0.78091 0.2657 0.86889 0.0
H1045 H 0.88942 0.27352 0.82124 0.0
H1046 H 0.06904 0.27559 0.88545 0.0
H1047 H 0.00602 0.2699 0.86699 0.0
C1048 C 0.7387 0.69825 0.6735 0.0
C1049 C 0.77408 0.69828 0.65922 0.0
C1050 C 0.70456 0.7034 0.66547 0.0
C1051 C 0.658 0.70926 0.60719 0.0
H1052 H 0.57353 0.72005 0.64888 0.0
C1053 C 0.49758 0.70776 0.57264 0.0
C1054 C 0.47131 0.70338 0.58984 0.0
C1055 C 0.53376 0.71203 0.58049 0.0
C1056 C 0.59684 0.71709 0.63693 0.0
H1057 H 0.80263 0.70441 0.62648 0.0
H1058 H 0.74278 0.71334 0.61237 0.0
H1059 H 0.64209 0.71852 0.66504 0.0
H1060 H 0.46028 0.70081 0.62882 0.0
H1061 H 0.52401 0.70777 0.64245 0.0
H1062 H 0.61291 0.70701 0.57982 0.0
C1063 C 0.74141 0.70927 0.62965 0.0
C1064 C 0.63609 0.71626 0.64617 0.0
C1065 C 0.77562 0.70415 0.63772 0.0
C1066 C 0.48011 0.7041 0.61515 0.0
C1067 C 0.51665 0.70819 0.62297 0.0
C1068 C 0.61885 0.70999 0.59806 0.0
C1069 C 0.70512 0.70865 0.64298 0.0
C1070 C 0.66662 0.71193 0.63172 0.0
C1071 C 0.5448 0.71177 0.60561 0.0
C1072 C 0.58736 0.71349 0.61319 0.0
H1073 H 0.73672 0.69386 0.69027 0.0
H1074 H 0.67697 0.70268 0.67604 0.0
H1075 H 0.68073 0.7058 0.59565 0.0
H1076 H 0.4911 0.70747 0.55302 0.0
H1077 H 0.55415 0.71499 0.56668 0.0
C1078 C 0.0075 0.03969 0.67364 0.0
C1079 C 0.97054 0.03576 0.66571 0.0
C1080 C 0.04368 0.03559 0.66541 0.0
C1081 C 0.08617 0.02045 0.61477 0.0
H1082 H 0.18175 0.02328 0.65535 0.0
C1083 C 0.24013 0.02805 0.57337 0.0
C1084 C 0.27517 0.02669 0.58751 0.0
C1085 C 0.20269 0.0252 0.58269 0.0
C1086 C 0.15552 0.02213 0.64379 0.0
H1087 H 0.94226 0.02428 0.64353 0.0
H1088 H 0.00564 0.01689 0.62964 0.0
H1089 H 0.11607 0.0257 0.67367 0.0
H1090 H 0.29935 0.02024 0.62112 0.0
H1091 H 0.23412 0.01479 0.63696 0.0
H1092 H 0.12565 0.01666 0.585 0.0
C1093 C 0.00671 0.02331 0.64175 0.0
C1094 C 0.11767 0.02374 0.65427 0.0
C1095 C 0.9704 0.02752 0.64972 0.0
C1096 C 0.27264 0.02153 0.61004 0.0
C1097 C 0.23519 0.01848 0.61916 0.0
C1098 C 0.12404 0.01862 0.6044 0.0
C1099 C 0.04384 0.02734 0.64938 0.0
C1100 C 0.08273 0.02347 0.63958 0.0
C1101 C 0.1995 0.02075 0.6062 0.0
C1102 C 0.15936 0.01999 0.61843 0.0
H1103 H 0.00853 0.04607 0.68586 0.0
H1104 H 0.07152 0.0391 0.67118 0.0
H1105 H 0.05997 0.02009 0.60286 0.0
H1106 H 0.24116 0.03198 0.55588 0.0
H1107 H 0.17616 0.0272 0.57215 0.0
C1108 C 0.51208 0.01988 0.17739 0.0
C1109 C 0.47609 0.02111 0.16407 0.0
C1110 C 0.5458 0.01565 0.16611 0.0
C1111 C 0.58851 0.0155 0.10483 0.0
H1112 H 0.67804 0.00276 0.13839 0.0
C1113 C 0.74719 0.02095 0.06792 0.0
C1114 C 0.77418 0.02426 0.08616 0.0
C1115 C 0.71144 0.01617 0.0746 0.0
C1116 C 0.65326 0.00628 0.12868 0.0
H1117 H 0.44577 0.01795 0.12939 0.0
H1118 H 0.5048 0.01054 0.10967 0.0
H1119 H 0.61045 0.00185 0.15627 0.0
H1120 H 0.78648 0.02454 0.12553 0.0
H1121 H 0.72358 0.01657 0.13728 0.0
H1122 H 0.63119 0.02057 0.07826 0.0
C1123 C 0.50709 0.01299 0.12871 0.0
C1124 C 0.61458 0.00572 0.13888 0.0
C1125 C 0.47333 0.01722 0.14 0.0
C1126 C 0.7661 0.02212 0.11108 0.0
C1127 C 0.73015 0.01745 0.11778 0.0
C1128 C 0.62706 0.01609 0.09473 0.0
C1129 C 0.54416 0.01257 0.14128 0.0
C1130 C 0.58219 0.01073 0.12762 0.0
C1131 C 0.70174 0.01473 0.09966 0.0
C1132 C 0.66021 0.01189 0.10714 0.0
H1133 H 0.515 0.02271 0.19606 0.0
H1134 H 0.57393 0.01552 0.17628 0.0
H1135 H 0.56437 0.01954 0.09579 0.0
H1136 H 0.753 0.02235 0.04851 0.0
H1137 H 0.69059 0.01399 0.06016 0.0
C1138 C 0.02667 0.68129 0.05422 0.0
C1139 C 0.98994 0.68306 0.06637 0.0
C1140 C 0.06305 0.68412 0.06516 0.0
C1141 C 0.10712 0.68663 0.12566 0.0
H1142 H 0.19707 0.69872 0.0911 0.0
C1143 C 0.2622 0.68917 0.17207 0.0
C1144 C 0.29541 0.68683 0.15707 0.0
C1145 C 0.22454 0.69106 0.1615 0.0
C1146 C 0.17234 0.69528 0.10098 0.0
H1147 H 0.96226 0.68952 0.09901 0.0
H1148 H 0.02603 0.69426 0.11834 0.0
H1149 H 0.13124 0.69774 0.07094 0.0
H1150 H 0.31574 0.68492 0.11927 0.0
H1151 H 0.24985 0.68776 0.10086 0.0
H1152 H 0.14813 0.68357 0.15505 0.0
C1153 C 0.02655 0.69073 0.10033 0.0
C1154 C 0.13466 0.69477 0.08946 0.0
C1155 C 0.99014 0.68803 0.08924 0.0
C1156 C 0.29063 0.68672 0.13128 0.0
C1157 C 0.25284 0.68844 0.12072 0.0
C1158 C 0.14483 0.68699 0.13702 0.0
C1159 C 0.06332 0.68865 0.08856 0.0
C1160 C 0.10193 0.6903 0.10158 0.0
C1161 C 0.21913 0.69046 0.13572 0.0
C1162 C 0.17815 0.69115 0.12466 0.0
H1163 H 0.0274 0.67752 0.03651 0.0
H1164 H 0.09105 0.68235 0.05582 0.0
H1165 H 0.08246 0.68302 0.13527 0.0
H1166 H 0.26519 0.68944 0.19201 0.0
H1167 H 0.19953 0.69282 0.17361 0.0
C1168 C 0.4661 0.77756 0.94938 0.0
C1169 C 0.5037 0.77518 0.93912 0.0
C1170 C 0.43092 0.77345 0.93968 0.0
C1171 C 0.39566 0.76363 0.87993 0.0
H1172 H 0.2937 0.76522 0.91463 0.0
C1173 C 0.25584 0.77881 0.83323 0.0
C1174 C 0.2172 0.77661 0.84219 0.0
C1175 C 0.28984 0.77468 0.84437 0.0
C1176 C 0.3217 0.76447 0.90453 0.0
H1177 H 0.53462 0.76583 0.91254 0.0
H1178 H 0.47329 0.75825 0.89629 0.0
H1179 H 0.35574 0.76402 0.93803 0.0
H1180 H 0.18346 0.76782 0.86868 0.0
H1181 H 0.24288 0.76029 0.88768 0.0
H1182 H 0.3616 0.76387 0.84644 0.0
C1183 C 0.47066 0.76363 0.91111 0.0
C1184 C 0.35752 0.76395 0.91804 0.0
C1185 C 0.50586 0.76792 0.92051 0.0
C1186 C 0.21302 0.76975 0.86164 0.0
C1187 C 0.24709 0.76547 0.87255 0.0
C1188 C 0.35982 0.76389 0.86644 0.0
C1189 C 0.43258 0.7667 0.91975 0.0
C1190 C 0.39505 0.7642 0.90592 0.0
C1191 C 0.28603 0.76809 0.8645 0.0
C1192 C 0.32256 0.76499 0.87854 0.0
H1193 H 0.46352 0.78313 0.96378 0.0
H1194 H 0.40243 0.77615 0.94675 0.0
H1195 H 0.42375 0.76376 0.86975 0.0
H1196 H 0.26 0.78408 0.81827 0.0
H1197 H 0.31913 0.77709 0.83788 0.0
C1198 C 0.71535 0.44928 0.87944 0.0
C1199 C 0.70761 0.44851 0.90489 0.0
C1200 C 0.75264 0.45272 0.87106 0.0
C1201 C 0.85695 0.4529 0.89323 0.0
H1202 H 0.87743 0.46323 0.82745 0.0
C1203 C 0.01375 0.44975 0.85011 0.0
C1204 C 0.01292 0.44479 0.82723 0.0
C1205 C 0.97851 0.45385 0.85994 0.0
C1206 C 0.87217 0.46042 0.84595 0.0
H1207 H 0.73089 0.45175 0.94148 0.0
H1208 H 0.79548 0.45809 0.92685 0.0
H1209 H 0.80975 0.46447 0.84508 0.0
H1210 H 0.97529 0.44083 0.79595 0.0
H1211 H 0.91378 0.44791 0.81318 0.0
H1212 H 0.91884 0.44854 0.89381 0.0
C1213 C 0.77341 0.4557 0.91335 0.0
C1214 C 0.83344 0.4611 0.85603 0.0
C1215 C 0.73633 0.45211 0.92174 0.0
C1216 C 0.97679 0.44454 0.8137 0.0
C1217 C 0.94163 0.44868 0.82347 0.0
C1218 C 0.89563 0.45231 0.88327 0.0
C1219 C 0.78275 0.45559 0.88797 0.0
C1220 C 0.825 0.45697 0.8794 0.0
C1221 C 0.94189 0.45312 0.84701 0.0
C1222 C 0.90328 0.45571 0.85917 0.0
H1223 H 0.69372 0.44658 0.86602 0.0
H1224 H 0.75871 0.45244 0.85139 0.0
H1225 H 0.85168 0.4495 0.9111 0.0
H1226 H 0.04124 0.45014 0.86088 0.0
H1227 H 0.9796 0.4573 0.87804 0.0
C1228 C 0.51916 0.45072 0.35213 0.0
C1229 C 0.52609 0.44952 0.32669 0.0
C1230 C 0.48242 0.45449 0.36058 0.0
C1231 C 0.37741 0.45508 0.33978 0.0
H1232 H 0.36051 0.46708 0.40416 0.0
C1233 C 0.22224 0.45354 0.38466 0.0
C1234 C 0.22364 0.44902 0.4081 0.0
C1235 C 0.25718 0.4575 0.37412 0.0
C1236 C 0.36476 0.46381 0.38604 0.0
H1237 H 0.50186 0.45226 0.29007 0.0
H1238 H 0.43821 0.45915 0.30477 0.0
H1239 H 0.42777 0.46727 0.38567 0.0
H1240 H 0.26179 0.44589 0.43975 0.0
H1241 H 0.32273 0.4527 0.42129 0.0
H1242 H 0.31499 0.45126 0.3405 0.0
C1243 C 0.46052 0.45686 0.31825 0.0
C1244 C 0.40325 0.46388 0.37548 0.0
C1245 C 0.49705 0.45295 0.30981 0.0
C1246 C 0.25984 0.44925 0.42157 0.0
C1247 C 0.29472 0.45323 0.41106 0.0
C1248 C 0.339 0.45507 0.35022 0.0
C1249 C 0.45206 0.45726 0.34373 0.0
C1250 C 0.41033 0.45916 0.35265 0.0
C1251 C 0.29408 0.45705 0.38686 0.0
C1252 C 0.33256 0.45909 0.37387 0.0
H1253 H 0.54105 0.44816 0.36558 0.0
H1254 H 0.47696 0.4546 0.38032 0.0
H1255 H 0.38163 0.45124 0.32237 0.0
H1256 H 0.19466 0.45356 0.37392 0.0
H1257 H 0.25572 0.46051 0.35554 0.0
C1258 C 0.70278 0.77864 0.37602 0.0
C1259 C 0.70279 0.78322 0.35265 0.0
C1260 C 0.73733 0.77379 0.38469 0.0
C1261 C 0.83856 0.76445 0.36607 0.0
H1262 H 0.87172 0.77525 0.42932 0.0
C1263 C 0.00212 0.77306 0.3905 0.0
C1264 C 0.0139 0.77354 0.4154 0.0
C1265 C 0.96288 0.77026 0.38426 0.0
C1266 C 0.8628 0.77189 0.41197 0.0
H1267 H 0.73795 0.78576 0.3194 0.0
H1268 H 0.79814 0.77744 0.33458 0.0
H1269 H 0.80293 0.77754 0.41551 0.0
H1270 H 0.99547 0.77048 0.45313 0.0
H1271 H 0.92727 0.76535 0.44219 0.0
H1272 H 0.89918 0.75919 0.3621 0.0
C1273 C 0.7715 0.7775 0.34618 0.0
C1274 C 0.82319 0.77323 0.40402 0.0
C1275 C 0.73713 0.78238 0.33759 0.0
C1276 C 0.98694 0.77034 0.43379 0.0
C1277 C 0.94785 0.76743 0.42753 0.0
C1278 C 0.87823 0.76306 0.37409 0.0
C1279 C 0.77234 0.77338 0.37006 0.0
C1280 C 0.81113 0.7699 0.38056 0.0
C1281 C 0.93481 0.7678 0.4028 0.0
C1282 C 0.89123 0.76714 0.39668 0.0
H1283 H 0.67661 0.77909 0.38795 0.0
H1284 H 0.73706 0.77062 0.40311 0.0
H1285 H 0.82985 0.76167 0.34805 0.0
H1286 H 0.02234 0.77545 0.37592 0.0
H1287 H 0.95389 0.77072 0.36504 0.0
C1288 C 0.72525 0.2031 0.17646 0.0
C1289 C 0.7548 0.20059 0.15894 0.0
C1290 C 0.68783 0.20675 0.16884 0.0
C1291 C 0.62863 0.2148 0.11323 0.0
H1292 H 0.54381 0.19975 0.14536 0.0
C1293 C 0.49032 0.19919 0.06378 0.0
C1294 C 0.45445 0.19767 0.07707 0.0
C1295 C 0.5236 0.20359 0.07516 0.0
C1296 C 0.56675 0.20425 0.13649 0.0
H1297 H 0.76956 0.2006 0.11988 0.0
H1298 H 0.70398 0.20659 0.1065 0.0
H1299 H 0.61027 0.20019 0.16364 0.0
H1300 H 0.424 0.20045 0.11191 0.0
H1301 H 0.48219 0.20816 0.13178 0.0
H1302 H 0.58518 0.21825 0.08513 0.0
C1303 C 0.7097 0.20596 0.12615 0.0
C1304 C 0.60507 0.20451 0.14703 0.0
C1305 C 0.74727 0.20243 0.1338 0.0
C1306 C 0.45142 0.2014 0.10129 0.0
C1307 C 0.48473 0.2058 0.11268 0.0
C1308 C 0.59022 0.21448 0.10258 0.0
C1309 C 0.67902 0.20783 0.14353 0.0
C1310 C 0.6369 0.20946 0.13505 0.0
C1311 C 0.52165 0.20656 0.10006 0.0
C1312 C 0.55932 0.20888 0.11366 0.0
H1313 H 0.73048 0.20191 0.19602 0.0
H1314 H 0.6652 0.20833 0.18275 0.0
H1315 H 0.65227 0.21886 0.10379 0.0
H1316 H 0.49348 0.19646 0.04502 0.0
H1317 H 0.55168 0.20399 0.06497 0.0
C1318 C 0.23952 0.54508 0.0732 0.0
C1319 C 0.27386 0.54382 0.08811 0.0
C1320 C 0.20099 0.54433 0.08339 0.0
C1321 C 0.14824 0.54774 0.14186 0.0
H1322 H 0.05936 0.53477 0.10821 0.0
C1323 C 0.98931 0.54635 0.18433 0.0
C1324 C 0.9566 0.5479 0.16828 0.0
C1325 C 0.02809 0.54493 0.17496 0.0
C1326 C 0.0838 0.5385 0.11771 0.0
H1327 H 0.29482 0.54046 0.12519 0.0
H1328 H 0.22731 0.53919 0.14304 0.0
H1329 H 0.12735 0.5336 0.09109 0.0
H1330 H 0.93876 0.54917 0.12982 0.0
H1331 H 0.00672 0.54696 0.11343 0.0
H1332 H 0.10485 0.5529 0.16807 0.0
C1333 C 0.23033 0.54083 0.12351 0.0
C1334 C 0.1227 0.5378 0.10796 0.0
C1335 C 0.26891 0.54151 0.11327 0.0
C1336 C 0.96341 0.54798 0.14264 0.0
C1337 C 0.00229 0.54663 0.13326 0.0
C1338 C 0.10936 0.5485 0.15152 0.0
C1339 C 0.19602 0.54235 0.10872 0.0
C1340 C 0.15524 0.54247 0.11985 0.0
C1341 C 0.0351 0.54511 0.14933 0.0
C1342 C 0.07662 0.54396 0.13946 0.0
H1343 H 0.24237 0.54683 0.05372 0.0
H1344 H 0.17511 0.54563 0.0716 0.0
H1345 H 0.17264 0.55156 0.1512 0.0
H1346 H 0.98497 0.54615 0.20418 0.0
H1347 H 0.05254 0.54362 0.18784 0.0
C1348 C 0.74624 0.52274 0.59175 0.0
C1349 C 0.7796 0.52476 0.60693 0.0
C1350 C 0.71084 0.5189 0.60183 0.0
C1351 C 0.65602 0.51958 0.66 0.0
H1352 H 0.57889 0.50379 0.62302 0.0
C1353 C 0.4917 0.52039 0.68804 0.0
C1354 C 0.46666 0.52325 0.66832 0.0
C1355 C 0.52986 0.51643 0.68345 0.0
C1356 C 0.60021 0.50813 0.63367 0.0
H1357 H 0.80308 0.52373 0.64428 0.0
H1358 H 0.74114 0.51693 0.66194 0.0
H1359 H 0.64917 0.50446 0.60951 0.0
H1360 H 0.46018 0.52334 0.62842 0.0
H1361 H 0.52714 0.51668 0.62036 0.0
H1362 H 0.60706 0.5237 0.68335 0.0
C1363 C 0.7422 0.51847 0.64229 0.0
C1364 C 0.64039 0.50854 0.62594 0.0
C1365 C 0.77764 0.52236 0.63219 0.0
C1366 C 0.47897 0.52126 0.64398 0.0
C1367 C 0.51728 0.51737 0.63938 0.0
C1368 C 0.616 0.51916 0.66774 0.0
C1369 C 0.70807 0.51695 0.62732 0.0
C1370 C 0.6683 0.51461 0.63843 0.0
C1371 C 0.5438 0.51534 0.65907 0.0
C1372 C 0.5873 0.51377 0.65408 0.0
H1373 H 0.74689 0.52446 0.57217 0.0
H1374 H 0.68499 0.51796 0.58981 0.0
H1375 H 0.67652 0.52442 0.66991 0.0
H1376 H 0.48269 0.52168 0.70703 0.0
H1377 H 0.54931 0.51474 0.699 0.0
C1378 C 0.02675 0.18943 0.5708 0.0
C1379 C 0.98868 0.19297 0.57785 0.0
C1380 C 0.06159 0.1944 0.57819 0.0
C1381 C 0.09866 0.21152 0.62632 0.0
H1382 H 0.19648 0.20833 0.588 0.0
C1383 C 0.24842 0.20374 0.67101 0.0
C1384 C 0.28432 0.20444 0.65739 0.0
C1385 C 0.21222 0.20713 0.66104 0.0
C1386 C 0.16958 0.20961 0.59887 0.0
H1387 H 0.95698 0.20469 0.59741 0.0
H1388 H 0.01796 0.21355 0.60985 0.0
H1389 H 0.132 0.20507 0.56888 0.0
H1390 H 0.3116 0.21051 0.62422 0.0
H1391 H 0.24848 0.21683 0.60714 0.0
H1392 H 0.13625 0.2162 0.65623 0.0
C1393 C 0.02098 0.2068 0.59909 0.0
C1394 C 0.13244 0.20753 0.58796 0.0
C1395 C 0.98604 0.20173 0.59196 0.0
C1396 C 0.28419 0.20969 0.63493 0.0
C1397 C 0.24793 0.21325 0.62507 0.0
C1398 C 0.13578 0.21384 0.63709 0.0
C1399 C 0.05925 0.20314 0.5925 0.0
C1400 C 0.09681 0.20782 0.60202 0.0
C1401 C 0.21115 0.21145 0.63732 0.0
C1402 C 0.17193 0.21226 0.62401 0.0
H1403 H 0.02972 0.18268 0.56 0.0
H1404 H 0.09042 0.19117 0.57329 0.0
H1405 H 0.07188 0.21196 0.63773 0.0
H1406 H 0.24758 0.19983 0.68854 0.0
H1407 H 0.18482 0.20553 0.67114 0.0
C1408 C 0.94998 0.21425 0.18313 0.0
C1409 C 0.9715 0.20549 0.18831 0.0
C1410 C 0.95687 0.22283 0.19693 0.0
C1411 C 0.02115 0.23427 0.2453 0.0
H1412 H 0.91867 0.24448 0.2691 0.0
C1413 C 0.01955 0.26177 0.32417 0.0
C1414 C 0.00063 0.27076 0.31766 0.0
C1415 C 0.0111 0.25309 0.31108 0.0
C1416 C 0.94744 0.24171 0.2626 0.0
H1417 H 0.02049 0.19914 0.20967 0.0
H1418 H 0.03243 0.21412 0.23393 0.0
H1419 H 0.91967 0.23183 0.23678 0.0
H1420 H 0.95374 0.27743 0.29513 0.0
H1421 H 0.93888 0.26225 0.2723 0.0
H1422 H 0.04889 0.24412 0.27119 0.0
C1423 C 0.01018 0.21438 0.21927 0.0
C1424 C 0.94813 0.23455 0.24391 0.0
C1425 C 0.00352 0.20581 0.20527 0.0
C1426 C 0.96888 0.27061 0.30048 0.0
C1427 C 0.96053 0.26192 0.28729 0.0
C1428 C 0.02045 0.24139 0.26404 0.0
C1429 C 0.9852 0.22276 0.21624 0.0
C1430 C 0.985 0.23078 0.235 0.0
C1431 C 0.98359 0.25329 0.29136 0.0
C1432 C 0.98359 0.24517 0.27289 0.0
H1433 H 0.92543 0.21422 0.1699 0.0
H1434 H 0.93808 0.2293 0.19365 0.0
H1435 H 0.04998 0.23155 0.23872 0.0
H1436 H 0.04373 0.26166 0.33765 0.0
H1437 H 0.02841 0.24644 0.31507 0.0
C1438 C 0.27302 0.95219 0.2899 0.0
C1439 C 0.24158 0.95069 0.30685 0.0
C1440 C 0.27864 0.96156 0.2793 0.0
C1441 C 0.24878 -0.01199 0.2806 0.0
H1442 H 0.24099 0.98472 0.20943 0.0
C1443 C 0.23295 0.02207 0.21885 0.0
C1444 C 0.26324 0.02235 0.20074 0.0
C1445 C 0.22322 0.01305 0.23028 0.0
C1446 C 0.24323 0.98576 0.22925 0.0
H1447 H 0.19543 0.95793 0.32879 0.0
H1448 H 0.20586 0.97433 0.31071 0.0
H1449 H 0.24817 0.97012 0.23584 0.0
H1450 H 0.30297 0.01345 0.17789 0.0
H1451 H 0.28606 -0.0022 0.1976 0.0
H1452 H 0.24469 0.00366 0.27403 0.0
C1453 C 0.22564 0.9683 0.30524 0.0
C1454 C 0.24777 0.97742 0.24434 0.0
C1455 C 0.21974 0.95892 0.31562 0.0
C1456 C 0.27971 0.0134 0.19198 0.0
C1457 C 0.26993 0.00442 0.20328 0.0
C1458 C 0.24459 -0.00363 0.26549 0.0
C1459 C 0.25328 0.96952 0.28585 0.0
C1460 C 0.25101 0.97848 0.27011 0.0
C1461 C 0.24347 0.00425 0.22356 0.0
C1462 C 0.24212 -0.00467 0.23962 0.0
H1463 H 0.29021 0.94595 0.28281 0.0
H1464 H 0.3007 0.96241 0.26467 0.0
H1465 H 0.25093 -0.011 0.30045 0.0
H1466 H 0.21981 0.02888 0.2259 0.0
H1467 H 0.20198 0.01308 0.2455 0.0
C1468 C 0.96984 0.01401 0.06943 0.0
C1469 C 0.99046 0.02279 0.06322 0.0
C1470 C 0.9807 0.005 0.05861 0.0
C1471 C 0.055 -0.00792 0.01932 0.0
H1472 H 0.95926 0.98069 0.98917 0.0
C1473 C 0.06864 0.962 0.9454 0.0
C1474 C 0.0444 0.95356 0.94909 0.0
C1475 C 0.0607 0.97078 0.9582 0.0
C1476 C 0.98621 0.98372 -0.00239 0.0
H1477 H 0.04155 0.02888 0.04331 0.0
H1478 H 0.06057 0.01309 0.02429 0.0
H1479 H 0.95262 -0.00543 0.01783 0.0
H1480 H 0.99088 0.94791 0.96735 0.0
H1481 H 0.97716 0.96323 0.98991 0.0
H1482 H 0.0886 0.98121 -0.00086 0.0
C1483 C 0.03594 0.01318 0.03745 0.0
C1484 C 0.98244 -0.00838 0.01413 0.0
C1485 C 0.02515 0.02222 0.0484 0.0
C1486 C 0.01001 0.95431 0.96411 0.0
C1487 C 0.00222 0.96309 0.97708 0.0
C1488 C 0.05877 0.98413 0.00287 0.0
C1489 C 0.01228 0.00464 0.04137 0.0
C1490 C 0.01678 -0.00413 0.02515 0.0
C1491 C 0.02853 0.97126 0.97503 0.0
C1492 C 0.02441 0.9799 0.99179 0.0
H1493 H 0.9433 0.01424 0.08112 0.0
H1494 H 0.96268 -0.00154 0.06244 0.0
H1495 H 0.08188 -0.00479 0.02761 0.0
H1496 H 0.09508 0.96166 0.93366 0.0
H1497 H 0.08077 0.97706 0.9557 0.0
C1498 C 0.25157 0.20298 0.05452 0.0
C1499 C 0.23823 0.19399 0.04424 0.0
C1500 C 0.23966 0.21201 0.04426 0.0
C1501 C 0.21646 0.22072 0.98231 0.0
H1502 H 0.2206 0.24643 0.01471 0.0
C1503 C 0.21146 0.26015 0.93674 0.0
C1504 C 0.23909 0.26702 0.94662 0.0
C1505 C 0.20947 0.25048 0.94611 0.0
C1506 C 0.21961 0.23927 0.00548 0.0
H1507 H 0.19782 0.1873 0.01752 0.0
H1508 H 0.17622 0.20317 -0.00029 0.0
H1509 H 0.20851 0.2315 0.03928 0.0
H1510 H 0.28927 0.26891 0.97187 0.0
H1511 H 0.2856 0.252 0.98834 0.0
H1512 H 0.22739 0.22862 0.94845 0.0
C1513 C 0.19666 0.20323 0.01533 0.0
C1514 C 0.21243 0.23075 0.01948 0.0
C1515 C 0.20856 0.19416 0.02573 0.0
C1516 C 0.26778 0.26376 0.96389 0.0
C1517 C 0.26536 0.25414 0.97352 0.0
C1518 C 0.22302 0.22929 0.96824 0.0
C1519 C 0.21416 0.21219 0.02348 0.0
C1520 C 0.21215 0.22133 0.00819 0.0
C1521 C 0.23481 0.24765 0.96561 0.0
C1522 C 0.22598 0.23857 0.97988 0.0
H1523 H 0.2743 0.20302 0.06893 0.0
H1524 H 0.2538 0.21873 0.05107 0.0
H1525 H 0.21703 0.21357 0.97303 0.0
H1526 H 0.18909 0.2625 0.92334 0.0
H1527 H 0.18588 0.24555 0.93965 0.0
C1528 C 0.01431 0.6984 0.71178 0.0
C1529 C 0.98372 0.69823 0.69385 0.0
C1530 C 0.02252 0.7072 0.72466 0.0
C1531 C 0.00053 0.73434 0.72607 0.0
H1532 H 0.0004 0.73064 0.79727 0.0
C1533 C 0.97557 0.76743 0.78911 0.0
C1534 C 0.00819 0.76892 0.80522 0.0
C1535 C 0.9697 0.75813 0.77817 0.0
C1536 C 0.00043 0.73175 0.77743 0.0
H1537 H 0.94072 0.70718 0.67343 0.0
H1538 H 0.95498 0.72244 0.69562 0.0
H1539 H 0.00408 0.71613 0.77006 0.0
H1540 H 0.05663 0.76165 0.82526 0.0
H1541 H 0.04597 0.7454 0.8064 0.0
H1542 H 0.99614 0.74992 0.73341 0.0
C1543 C 0.97264 0.71588 0.69997 0.0
C1544 C 0.00309 0.72348 0.76185 0.0
C1545 C 0.96436 0.70713 0.68728 0.0
C1546 C 0.03149 0.7607 0.81266 0.0
C1547 C 0.02539 0.7514 0.80191 0.0
C1548 C 0.9975 0.74257 0.7416 0.0
C1549 C 0.00048 0.71591 0.71954 0.0
C1550 C 0.00279 0.72469 0.736 0.0
C1551 C 0.99605 0.75022 0.78347 0.0
C1552 C 0.99701 0.74135 0.76739 0.0
H1553 H 0.02952 0.6916 0.71722 0.0
H1554 H 0.04465 0.70706 0.73938 0.0
H1555 H 0.00078 0.73552 0.70625 0.0
H1556 H 0.95707 0.77362 0.7831 0.0
H1557 H 0.94634 0.75731 0.7643 0.0
C1558 C 0.79192 0.94639 0.78251 0.0
C1559 C 0.76037 0.94491 0.79942 0.0
C1560 C 0.80155 0.95605 0.7748 0.0
C1561 C 0.74188 0.97749 0.76237 0.0
H1562 H 0.84093 -0.00867 0.7464 0.0
C1563 C 0.74351 0.01727 0.72345 0.0
C1564 C 0.77528 0.02003 0.70778 0.0
C1565 C 0.74283 0.0078 0.73402 0.0
C1566 C 0.81304 -0.01254 0.75037 0.0
H1567 H 0.71859 0.95214 0.82441 0.0
H1568 H 0.73593 0.96896 0.81132 0.0
H1569 H 0.84373 0.97579 0.77002 0.0
H1570 H 0.82913 0.01485 0.68898 0.0
H1571 H 0.82696 -0.00183 0.70658 0.0
H1572 H 0.71105 -0.01119 0.74218 0.0
C1573 C 0.7525 0.96274 0.80359 0.0
C1574 C 0.81474 0.97865 0.7641 0.0
C1575 C 0.74278 0.95315 0.81116 0.0
C1576 C 0.80448 0.01293 0.70124 0.0
C1577 C 0.80351 0.00342 0.71154 0.0
C1578 C 0.7402 0.98618 0.74841 0.0
C1579 C 0.77977 0.9642 0.78411 0.0
C1580 C 0.77909 0.97369 0.77045 0.0
C1581 C 0.77358 0.00088 0.7288 0.0
C1582 C 0.77568 -0.00868 0.74241 0.0
H1583 H 0.80573 0.94013 0.77316 0.0
H1584 H 0.82283 0.95703 0.7598 0.0
H1585 H 0.714 0.97362 0.76647 0.0
H1586 H 0.72081 0.02263 0.72896 0.0
H1587 H 0.71944 0.00612 0.74736 0.0
C1588 C 0.76651 0.7749 0.9499 0.0
C1589 C 0.72558 0.7754 0.94336 0.0
C1590 C 0.78564 0.76565 0.9519 0.0
C1591 C 0.77204 0.7385 0.94043 0.0
H1592 H 0.81829 0.73583 0.00599 0.0
C1593 C 0.76812 0.70197 0.99519 0.0
C1594 C 0.80333 0.69913 0.00777 0.0
C1595 C 0.76556 0.71132 0.98407 0.0
C1596 C 0.8061 0.73647 0.98747 0.0
H1597 H 0.67373 0.76683 0.93132 0.0
H1598 H 0.7067 0.75082 0.93502 0.0
H1599 H 0.80504 0.75234 0.98936 0.0
H1600 H 0.8631 0.70395 0.01909 0.0
H1601 H 0.85829 0.7203 -9e-05 0.0
H1602 H 0.7712 0.72258 0.93921 0.0
C1603 C 0.72426 0.75746 0.93861 0.0
C1604 C 0.79878 0.74593 0.97785 0.0
C1605 C 0.70518 0.76665 0.93676 0.0
C1606 C 0.83553 0.70591 0.0095 0.0
C1607 C 0.83285 0.71527 -0.00145 0.0
C1608 C 0.77914 0.72905 0.95013 0.0
C1609 C 0.76415 0.75684 0.94716 0.0
C1610 C 0.7804 0.74703 0.95458 0.0
C1611 C 0.79803 0.71802 0.98552 0.0
C1612 C 0.79505 0.72796 0.97404 0.0
H1613 H 0.78301 0.78155 0.95492 0.0
H1614 H 0.81659 0.76537 0.95826 0.0
H1615 H 0.75839 0.73915 0.9223 0.0
H1616 H 0.74288 0.6969 0.99349 0.0
H1617 H 0.73808 0.71335 0.97448 0.0
C1618 C 0.21361 0.52325 0.69666 0.0
C1619 C 0.24446 0.52434 0.6791 0.0
C1620 C 0.20332 0.51377 0.70522 0.0
C1621 C 0.25997 0.49141 0.71668 0.0
H1622 H 0.15937 0.48066 0.74133 0.0
C1623 C 0.2472 0.45332 0.76558 0.0
C1624 C 0.21723 0.45231 0.78371 0.0
C1625 C 0.25101 0.46225 0.75257 0.0
C1626 C 0.18778 0.48366 0.73484 0.0
H1627 H 0.28396 0.51652 0.65377 0.0
H1628 H 0.2653 0.49998 0.66829 0.0
H1629 H 0.15841 0.49539 0.71486 0.0
H1630 H 0.17077 0.46002 0.80441 0.0
H1631 H 0.17861 0.47573 0.78247 0.0
H1632 H 0.28956 0.47993 0.73717 0.0
C1633 C 0.25003 0.5064 0.67601 0.0
C1634 C 0.18709 0.49201 0.7195 0.0
C1635 C 0.26047 0.51584 0.6676 0.0
C1636 C 0.19387 0.46061 0.7903 0.0
C1637 C 0.19799 0.46955 0.77753 0.0
C1638 C 0.2607 0.48312 0.73215 0.0
C1639 C 0.22363 0.50535 0.69611 0.0
C1640 C 0.2232 0.49596 0.71031 0.0
C1641 C 0.22522 0.47031 0.75774 0.0
C1642 C 0.22465 0.47919 0.74153 0.0
H1643 H 0.20088 0.5297 0.70581 0.0
H1644 H 0.18267 0.51315 0.72067 0.0
H1645 H 0.2884 0.49447 0.71036 0.0
H1646 H 0.26535 0.447 0.76004 0.0
H1647 H 0.27232 0.46261 0.73742 0.0
C1648 C 0.98417 0.44971 0.47374 0.0
C1649 C 0.01371 0.45045 0.4552 0.0
C1650 C 0.97851 0.45756 0.49039 0.0
C1651 C 0.04049 0.47687 0.51805 0.0
H1652 H 0.94088 0.488 0.54317 0.0
C1653 C 0.02739 0.51493 0.56376 0.0
C1654 C 0.99392 0.51683 0.57892 0.0
C1655 C 0.03404 0.50536 0.55463 0.0
C1656 C 0.96901 0.48479 0.53686 0.0
H1657 H 0.05647 0.46032 0.43737 0.0
H1658 H 0.04597 0.47404 0.46606 0.0
H1659 H 0.93842 0.47489 0.51205 0.0
H1660 H 0.94561 0.51002 0.6 0.0
H1661 H 0.95804 0.49325 0.58467 0.0
H1662 H 0.0712 0.48681 0.54252 0.0
C1663 C 0.0282 0.46733 0.46826 0.0
C1664 C 0.96748 0.47735 0.51885 0.0
C1665 C 0.03384 0.45953 0.45169 0.0
C1666 C 0.97118 0.50878 0.58791 0.0
C1667 C 0.97804 0.4992 0.57896 0.0
C1668 C 0.04204 0.48424 0.53617 0.0
C1669 C 0.00226 0.46618 0.48855 0.0
C1670 C 0.00323 0.47355 0.5088 0.0
C1671 C 0.0076 0.49755 0.56082 0.0
C1672 C 0.00634 0.48847 0.54531 0.0
H1673 H 0.96837 0.44277 0.47691 0.0
H1674 H 0.95802 0.45655 0.5058 0.0
H1675 H 0.06853 0.47384 0.51103 0.0
H1676 H 0.04556 0.52099 0.55661 0.0
H1677 H 0.05728 0.50435 0.54079 0.0
C1678 C 0.22829 0.69943 0.53378 0.0
C1679 C 0.25639 0.69991 0.55319 0.0
C1680 C 0.22024 0.7079 0.51961 0.0
C1681 C 0.27946 0.72877 0.49919 0.0
H1682 H 0.18147 0.73871 0.46906 0.0
C1683 C 0.26656 0.76626 0.44968 0.0
C1684 C 0.23491 0.76756 0.43277 0.0
C1685 C 0.27316 0.75694 0.46036 0.0
C1686 C 0.20925 0.73585 0.47686 0.0
H1687 H 0.29269 0.70979 0.57571 0.0
H1688 H 0.27801 0.72459 0.55127 0.0
H1689 H 0.17753 0.72539 0.49964 0.0
H1690 H 0.19006 0.75999 0.41054 0.0
H1691 H 0.20281 0.74363 0.42835 0.0
H1692 H 0.31135 0.73912 0.47641 0.0
C1693 C 0.26332 0.71765 0.54649 0.0
C1694 C 0.20681 0.72833 0.49459 0.0
C1695 C 0.27136 0.70922 0.56059 0.0
C1696 C 0.21426 0.75917 0.42385 0.0
C1697 C 0.22121 0.74984 0.43428 0.0
C1698 C 0.28196 0.73621 0.48132 0.0
C1699 C 0.24005 0.71688 0.52491 0.0
C1700 C 0.24183 0.72487 0.50622 0.0
C1701 C 0.24857 0.74881 0.45393 0.0
C1702 C 0.24685 0.73995 0.47021 0.0
H1703 H 0.21632 0.69233 0.52771 0.0
H1704 H 0.20185 0.70716 0.50315 0.0
H1705 H 0.30707 0.72601 0.50744 0.0
H1706 H 0.28291 0.77261 0.45687 0.0
H1707 H 0.29468 0.7564 0.47537 0.0
C1708 C 0.72525 0.45885 0.29341 0.0
C1709 C 0.74471 0.44961 0.291 0.0
C1710 C 0.7368 0.46685 0.27872 0.0
C1711 C 0.80666 0.47953 0.24145 0.0
H1712 H 0.7163 0.48409 0.19711 0.0
C1713 C 0.80384 0.51424 0.18164 0.0
C1714 C 0.76863 0.51984 0.18585 0.0
C1715 C 0.80483 0.50411 0.18727 0.0
C1716 C 0.74188 0.48288 0.20921 0.0
H1717 H 0.79475 0.44186 0.27373 0.0
H1718 H 0.81545 0.45607 0.24821 0.0
H1719 H 0.71503 0.46998 0.22559 0.0
H1720 H 0.70546 0.51895 0.19602 0.0
H1721 H 0.70724 0.50138 0.20608 0.0
H1722 H 0.83237 0.4928 0.22648 0.0
C1723 C 0.79094 0.45697 0.26127 0.0
C1724 C 0.74116 0.47482 0.22542 0.0
C1725 C 0.77925 0.4489 0.27598 0.0
C1726 C 0.73316 0.51487 0.19279 0.0
C1727 C 0.7342 0.50475 0.1985 0.0
C1728 C 0.80724 0.48768 0.22539 0.0
C1729 C 0.76825 0.46578 0.26164 0.0
C1730 C 0.7729 0.4733 0.24216 0.0
C1731 C 0.77065 0.49941 0.19716 0.0
C1732 C 0.77415 0.48964 0.20973 0.0
H1733 H 0.69882 0.45964 0.30504 0.0
H1734 H 0.71935 0.47367 0.27942 0.0
H1735 H 0.83136 0.47844 0.25429 0.0
H1736 H 0.83153 0.51783 0.17585 0.0
H1737 H 0.83305 0.50012 0.18543 0.0
C1738 C 0.81937 0.21194 0.54069 0.0
C1739 C 0.79166 0.20439 0.53472 0.0
C1740 C 0.81836 0.22103 0.52827 0.0
C1741 C 0.79214 0.23051 0.46782 0.0
H1742 H 0.79692 0.25672 0.49761 0.0
C1743 C 0.73761 0.26565 0.4207 0.0
C1744 C 0.75197 0.27494 0.4286 0.0
C1745 C 0.75415 0.25692 0.43015 0.0
C1746 C 0.79679 0.24945 0.48894 0.0
H1747 H 0.73931 0.20067 0.51256 0.0
H1748 H 0.73758 0.21662 0.49079 0.0
H1749 H 0.79724 0.242 0.52399 0.0
H1750 H 0.79838 0.28244 0.44981 0.0
H1751 H 0.82783 0.26712 0.46615 0.0
H1752 H 0.79133 0.2379 0.4328 0.0
C1753 C 0.76027 0.21542 0.5049 0.0
C1754 C 0.79645 0.24105 0.50409 0.0
C1755 C 0.76093 0.20637 0.51756 0.0
C1756 C 0.78653 0.27536 0.44357 0.0
C1757 C 0.80311 0.2666 0.45312 0.0
C1758 C 0.79295 0.2389 0.45266 0.0
C1759 C 0.78991 0.22265 0.50953 0.0
C1760 C 0.79284 0.23154 0.49366 0.0
C1761 C 0.78542 0.25734 0.44767 0.0
C1762 C 0.79396 0.24847 0.46307 0.0
H1763 H 0.84329 0.2106 0.55394 0.0
H1764 H 0.84136 0.22652 0.53223 0.0
H1765 H 0.79044 0.22321 0.45937 0.0
H1766 H 0.71129 0.26512 0.40889 0.0
H1767 H 0.73973 0.24994 0.42551 0.0
C1768 C 0.48994 0.26256 0.80042 0.0
C1769 C 0.52416 0.26562 0.81358 0.0
C1770 C 0.48596 0.25263 0.79332 0.0
C1771 C 0.55654 0.23307 0.77613 0.0
H1772 H 0.45853 0.22009 0.75428 0.0
C1773 C 0.53201 0.19709 0.71461 0.0
C1774 C 0.50484 0.19905 0.69522 0.0
C1775 C 0.5415 0.20459 0.73157 0.0
C1776 C 0.48612 0.22363 0.76045 0.0
H1777 H 0.57734 0.26059 0.83329 0.0
H1778 H 0.56959 0.24318 0.82165 0.0
H1779 H 0.45466 0.23319 0.78546 0.0
H1780 H 0.47166 0.21059 0.67593 0.0
H1781 H 0.48851 0.22365 0.70543 0.0
H1782 H 0.58768 0.2235 0.75064 0.0
C1783 C 0.54679 0.24847 0.81589 0.0
C1784 C 0.48393 0.2311 0.77825 0.0
C1785 C 0.55102 0.25841 0.82272 0.0
C1786 C 0.49228 0.20888 0.6909 0.0
C1787 C 0.50162 0.21632 0.70783 0.0
C1788 C 0.55873 0.22548 0.75852 0.0
C1789 C 0.5159 0.24563 0.7996 0.0
C1790 C 0.51892 0.23618 0.78557 0.0
C1791 C 0.52406 0.21404 0.72905 0.0
C1792 C 0.52334 0.22102 0.74993 0.0
H1793 H 0.46877 0.26798 0.79319 0.0
H1794 H 0.46167 0.25071 0.78081 0.0
H1795 H 0.58408 0.2369 0.78108 0.0
H1796 H 0.54207 0.18957 0.71837 0.0
H1797 H 0.55917 0.20276 0.74781 0.0
C1798 C 0.48338 0.01703 0.58623 0.0
C1799 C 0.50224 0.02603 0.57989 0.0
C1800 C 0.49927 0.00802 0.57805 0.0
C1801 C 0.54897 0.00085 0.5218 0.0
H1802 H 0.528 0.97416 0.54583 0.0
C1803 C 0.56109 0.96583 0.46054 0.0
C1804 C 0.53143 0.95847 0.46382 0.0
C1805 C 0.56274 0.97403 0.47622 0.0
C1806 C 0.53375 0.98159 0.53888 0.0
H1807 H 0.5559 0.03262 0.56387 0.0
H1808 H 0.58398 0.01682 0.54977 0.0
H1809 H 0.53009 -0.01197 0.57505 0.0
H1810 H 0.47872 0.95424 0.4851 0.0
H1811 H 0.48114 0.96875 0.51232 0.0
H1812 H 0.55126 -0.0055 0.4856 0.0
C1813 C 0.55635 0.01675 0.56047 0.0
C1814 C 0.53537 -0.01051 0.55561 0.0
C1815 C 0.54044 0.02579 0.56872 0.0
C1816 C 0.50185 0.9598 0.48209 0.0
C1817 C 0.50362 0.96802 0.4979 0.0
C1818 C 0.54743 -0.00704 0.50513 0.0
C1819 C 0.53427 0.0079 0.56342 0.0
C1820 C 0.54192 -0.00076 0.54715 0.0
C1821 C 0.53478 0.97505 0.49552 0.0
C1822 C 0.53877 0.9833 0.51342 0.0
H1823 H 0.4542 0.017 0.59526 0.0
H1824 H 0.48159 0.00133 0.58082 0.0
H1825 H 0.55318 0.00829 0.51455 0.0
H1826 H 0.58425 0.96502 0.44654 0.0
H1827 H 0.58705 0.97934 0.47392 0.0
C1828 C 0.46544 0.77752 0.28931 0.0
C1829 C 0.49754 0.77835 0.30618 0.0
C1830 C 0.46044 0.76879 0.27558 0.0
C1831 C 0.52487 0.74982 0.24965 0.0
H1832 H 0.42764 0.73483 0.23601 0.0
C1833 C 0.52571 0.7104 0.20975 0.0
C1834 C 0.49205 0.7071 0.19635 0.0
C1835 C 0.52691 0.7201 0.21892 0.0
C1836 C 0.4549 0.73908 0.23916 0.0
H1837 H 0.5462 0.77033 0.32422 0.0
H1838 H 0.53722 0.75514 0.30037 0.0
H1839 H 0.42454 0.74926 0.26343 0.0
H1840 H 0.43568 0.71165 0.17936 0.0
H1841 H 0.4384 0.72867 0.19476 0.0
H1842 H 0.55538 0.73975 0.22546 0.0
C1843 C 0.51669 0.7613 0.29732 0.0
C1844 C 0.45308 0.74727 0.25503 0.0
C1845 C 0.5216 0.76996 0.31105 0.0
C1846 C 0.46172 0.71396 0.19001 0.0
C1847 C 0.4631 0.72368 0.19899 0.0
C1848 C 0.52664 0.74173 0.23361 0.0
C1849 C 0.48747 0.76084 0.27862 0.0
C1850 C 0.48826 0.75253 0.26085 0.0
C1851 C 0.49468 0.72668 0.21458 0.0
C1852 C 0.49187 0.73612 0.22862 0.0
H1853 H 0.44642 0.78387 0.28519 0.0
H1854 H 0.43747 0.76855 0.26134 0.0
H1855 H 0.55226 0.75394 0.25344 0.0
H1856 H 0.54956 0.70529 0.21491 0.0
H1857 H 0.55167 0.72216 0.23093 0.0
C1858 C 0.50302 0.45733 0.9303 0.0
C1859 C 0.48608 0.44809 0.93642 0.0
C1860 C 0.4878 0.46603 0.94063 0.0
C1861 C 0.44213 0.47318 -0.00116 0.0
H1862 H 0.4561 0.49959 0.97122 0.0
C1863 C 0.42827 0.51178 0.04922 0.0
C1864 C 0.46138 0.51808 0.04472 0.0
C1865 C 0.42571 0.50253 0.03755 0.0
C1866 C 0.45199 0.49224 0.9791 0.0
H1867 H 0.43707 0.44075 0.95572 0.0
H1868 H 0.41006 0.45606 0.9737 0.0
H1869 H 0.45313 0.48524 0.94364 0.0
H1870 H 0.51957 0.51922 0.02655 0.0
H1871 H 0.51473 0.50312 0.00603 0.0
H1872 H 0.44141 0.4803 0.03439 0.0
C1873 C 0.43561 0.45653 0.96128 0.0
C1874 C 0.45014 0.48405 0.96337 0.0
C1875 C 0.45082 0.44779 0.9508 0.0
C1876 C 0.49361 0.51457 0.03031 0.0
C1877 C 0.49074 0.50541 0.0184 0.0
C1878 C 0.44338 0.48142 0.01458 0.0
C1879 C 0.4553 0.46565 0.95729 0.0
C1880 C 0.44689 0.4744 0.97313 0.0
C1881 C 0.45601 0.49955 0.02111 0.0
C1882 C 0.44991 0.49093 0.0048 0.0
H1883 H 0.52999 0.45777 0.91903 0.0
H1884 H 0.50386 0.47291 0.9372 0.0
H1885 H 0.44005 0.46583 0.00699 0.0
H1886 H 0.40312 0.51426 0.06043 0.0
H1887 H 0.39884 0.49805 0.03999 0.0
C1888 C 0.13138 0.2913 0.22896 0.0
C1889 C 0.10328 0.29792 0.23936 0.0
C1890 C 0.13973 0.29155 0.20369 0.0
C1891 C 0.16915 0.29753 0.15292 0.0
H1892 H 0.08206 0.30091 0.1058 0.0
C1893 C 0.19778 0.30283 0.04847 0.0
C1894 C 0.17174 0.29781 0.03219 0.0
C1895 C 0.18957 0.3031 0.07379 0.0
C1896 C 0.10667 0.29989 0.11872 0.0
H1897 H 0.06195 0.31003 0.23133 0.0
H1898 H 0.07697 0.31056 0.1872 0.0
H1899 H 0.06721 0.30076 0.14994 0.0
H1900 H 0.11693 0.28903 0.02981 0.0
H1901 H 0.10309 0.28936 0.07398 0.0
H1902 H 0.20846 0.29638 0.1217 0.0
C1903 C 0.09211 0.30507 0.19859 0.0
C1904 C 0.09823 0.29993 0.14401 0.0
C1905 C 0.08365 0.3048 0.2239 0.0
C1906 C 0.13752 0.29301 0.04181 0.0
C1907 C 0.12941 0.29325 0.06712 0.0
C1908 C 0.17758 0.29748 0.12763 0.0
C1909 C 0.1203 0.29846 0.18823 0.0
C1910 C 0.12935 0.2987 0.16138 0.0
C1911 C 0.15524 0.29833 0.08338 0.0
C1912 C 0.14641 0.29861 0.11025 0.0
H1913 H 0.14691 0.28587 0.2403 0.0
H1914 H 0.16109 0.28625 0.19622 0.0
H1915 H 0.19387 0.29669 0.16584 0.0
H1916 H 0.2243 0.30665 0.04164 0.0
H1917 H 0.20981 0.30718 0.08581 0.0
C1918 C 0.16231 0.92253 0.02555 0.0
C1919 C 0.13046 0.91774 0.01321 0.0
C1920 C 0.16776 0.92125 0.05094 0.0
C1921 C 0.18351 0.91417 0.10322 0.0
H1922 H 0.08697 0.91528 0.14359 0.0
C1923 C 0.18872 0.91182 0.21002 0.0
C1924 C 0.16355 0.9185 0.2228 0.0
C1925 C 0.18497 0.91062 0.18444 0.0
C1926 C 0.11423 0.91499 0.13258 0.0
H1927 H 0.08037 0.90751 0.01772 0.0
H1928 H 0.0903 0.90516 0.06201 0.0
H1929 H 0.08094 0.91509 0.09875 0.0
H1930 H 0.11481 0.92917 0.21867 0.0
H1931 H 0.1088 0.9272 0.17417 0.0
H1932 H 0.21681 0.91452 0.1371 0.0
C1933 C 0.11058 0.91006 0.05209 0.0
C1934 C 0.11076 0.91474 0.10687 0.0
C1935 C 0.10502 0.91137 0.02669 0.0
C1936 C 0.13458 0.92393 0.20945 0.0
C1937 C 0.13091 0.92275 0.18393 0.0
C1938 C 0.18697 0.91445 0.12896 0.0
C1939 C 0.14161 0.91511 0.06457 0.0
C1940 C 0.14537 0.91448 0.09188 0.0
C1941 C 0.15601 0.91608 0.17113 0.0
C1942 C 0.15237 0.91502 0.1439 0.0
H1943 H 0.18246 0.9275 0.01575 0.0
H1944 H 0.19164 0.92536 0.06002 0.0
H1945 H 0.21073 0.91384 0.0922 0.0
H1946 H 0.21125 0.90749 0.21976 0.0
H1947 H 0.20449 0.90536 0.17514 0.0
C1948 C 0.90934 0.65253 0.76248 0.0
C1949 C 0.88724 0.66048 0.75236 0.0
C1950 C 0.9041 0.64978 0.78721 0.0
C1951 C 0.83645 0.65331 0.84146 0.0
H1952 H 0.93401 0.64852 0.87916 0.0
C1953 C 0.89372 0.65881 0.94689 0.0
C1954 C 0.85911 0.65567 0.95968 0.0
C1955 C 0.89796 0.65687 0.92167 0.0
C1956 C 0.90646 0.64983 0.86891 0.0
H1957 H 0.84156 0.67163 0.76013 0.0
H1958 H 0.83316 0.66701 0.80325 0.0
H1959 H 0.93792 0.65027 0.83443 0.0
H1960 H 0.80331 0.64734 0.95646 0.0
H1961 H 0.81122 0.64374 0.91255 0.0
H1962 H 0.80534 0.65355 0.87602 0.0
C1963 C 0.85398 0.66274 0.79203 0.0
C1964 C 0.90862 0.65072 0.8432 0.0
C1965 C 0.85901 0.66545 0.7673 0.0
C1966 C 0.83013 0.64996 0.94708 0.0
C1967 C 0.83454 0.64795 0.92187 0.0
C1968 C 0.83434 0.65251 0.86717 0.0
C1969 C 0.8768 0.65496 0.80238 0.0
C1970 C 0.87377 0.65272 0.82924 0.0
C1971 C 0.86786 0.65166 0.90869 0.0
C1972 C 0.86947 0.65101 0.88127 0.0
H1973 H 0.9311 0.64849 0.75141 0.0
H1974 H 0.92173 0.64366 0.7945 0.0
H1975 H 0.80891 0.65467 0.83123 0.0
H1976 H 0.91664 0.66322 0.95603 0.0
H1977 H 0.92382 0.65994 0.91213 0.0
C1978 C 0.87988 0.05766 0.78561 0.0
C1979 C 0.83993 0.05702 0.77714 0.0
C1980 C 0.88804 0.05862 0.81082 0.0
C1981 C 0.83958 0.06408 0.87162 0.0
H1982 H 0.9309 0.04923 0.89717 0.0
C1983 C 0.85922 0.0528 0.97393 0.0
C1984 C 0.89698 0.05475 0.98469 0.0
C1985 C 0.8533 0.0542 0.94861 0.0
C1986 C 0.90558 0.05349 0.89022 0.0
H1987 H 0.77717 0.05702 0.78833 0.0
H1988 H 0.79131 0.05828 0.83236 0.0
H1989 H 0.9184 0.04957 0.8528 0.0
H1990 H 0.95811 0.0597 0.97744 0.0
H1991 H 0.94789 0.06189 0.93292 0.0
H1992 H 0.8259 0.06755 0.9094 0.0
C1993 C 0.81643 0.05834 0.81957 0.0
C1994 C 0.89846 0.05375 0.86479 0.0
C1995 C 0.80827 0.05755 0.79432 0.0
C1996 C 0.92867 0.05816 0.96965 0.0
C1997 C 0.92291 0.05938 0.94423 0.0
C1998 C 0.84637 0.06368 0.89709 0.0
C1999 C 0.85645 0.05878 0.82818 0.0
C2000 C 0.86519 0.05898 0.85516 0.0
C2001 C 0.88518 0.05741 0.93354 0.0
C2002 C 0.87928 0.05833 0.90658 0.0
H2003 H 0.9049 0.05738 0.77275 0.0
H2004 H 0.91918 0.05917 0.81667 0.0
H2005 H 0.81416 0.06835 0.86488 0.0
H2006 H 0.83417 0.05022 0.98507 0.0
H2007 H 0.82402 0.05255 0.94071 0.0
C2008 C 0.13027 0.79493 0.71695 0.0
C2009 C 0.09809 0.80025 0.72754 0.0
C2010 C 0.13756 0.79543 0.69155 0.0
C2011 C 0.15892 0.80165 0.63927 0.0
H2012 H 0.06698 0.80026 0.59509 0.0
C2013 C 0.1744 0.80444 0.53282 0.0
C2014 C 0.15063 0.79785 0.51886 0.0
C2015 C 0.16854 0.80535 0.55833 0.0
C2016 C 0.09299 0.8006 0.60718 0.0
H2017 H 0.04885 0.81043 0.71978 0.0
H2018 H 0.06191 0.81138 0.67548 0.0
H2019 H 0.05611 0.8007 0.6396 0.0
H2020 H 0.1024 0.78694 0.52085 0.0
H2021 H 0.09269 0.78843 0.56523 0.0
H2022 H 0.19582 0.80121 0.60681 0.0
C2023 C 0.08111 0.80671 0.6868 0.0
C2024 C 0.08674 0.80098 0.63269 0.0
C2025 C 0.07374 0.8062 0.7122 0.0
C2026 C 0.12112 0.79214 0.53099 0.0
C2027 C 0.11534 0.79303 0.55644 0.0
C2028 C 0.16518 0.80125 0.61373 0.0
C2029 C 0.11292 0.80127 0.67616 0.0
C2030 C 0.11963 0.80142 0.64903 0.0
C2031 C 0.13881 0.79968 0.57038 0.0
C2032 C 0.13228 0.80061 0.59743 0.0
H2033 H 0.14959 0.79026 0.7282 0.0
H2034 H 0.16196 0.79104 0.6839 0.0
H2035 H 0.18488 0.8021 0.65137 0.0
H2036 H 0.19731 0.80897 0.52404 0.0
H2037 H 0.18688 0.8106 0.56854 0.0
C2038 C 0.10527 0.41921 0.70868 0.0
C2039 C 0.13718 0.41479 0.72181 0.0
C2040 C 0.10126 0.4177 0.68326 0.0
C2041 C 0.08948 0.41024 0.63092 0.0
H2042 H 0.18797 0.41207 0.59251 0.0
C2043 C 0.08748 0.40856 0.52447 0.0
C2044 C 0.111 0.41577 0.51236 0.0
C2045 C 0.09205 0.40687 0.54981 0.0
C2046 C 0.16019 0.41156 0.60297 0.0
H2047 H 0.18879 0.40492 0.71868 0.0
H2048 H 0.18137 0.40218 0.67438 0.0
H2049 H 0.19153 0.41202 0.63749 0.0
H2050 H 0.15867 0.42666 0.51728 0.0
H2051 H 0.1662 0.42383 0.56146 0.0
H2052 H 0.05802 0.41025 0.59641 0.0
C2053 C 0.15994 0.40697 0.68368 0.0
C2054 C 0.16225 0.4114 0.62876 0.0
C2055 C 0.16404 0.40851 0.70911 0.0
C2056 C 0.14009 0.42104 0.526 0.0
C2057 C 0.14458 0.41937 0.55134 0.0
C2058 C 0.08742 0.41042 0.60513 0.0
C2059 C 0.12896 0.41171 0.67039 0.0
C2060 C 0.12687 0.41091 0.64304 0.0
C2061 C 0.1202 0.41237 0.5636 0.0
C2062 C 0.12272 0.41125 0.59087 0.0
H2063 H 0.08405 0.4241 0.71787 0.0
H2064 H 0.07733 0.42156 0.67354 0.0
H2065 H 0.06171 0.40972 0.64138 0.0
H2066 H 0.06496 0.40432 0.51449 0.0
H2067 H 0.07325 0.40132 0.55865 0.0
C2068 C 0.91189 0.16452 0.27305 0.0
C2069 C 0.8881 0.17178 0.26128 0.0
C2070 C 0.90822 0.16284 0.29846 0.0
C2071 C 0.84002 0.16727 0.35164 0.0
H2072 H 0.93715 0.16346 0.39045 0.0
C2073 C 0.8933 0.17124 0.459 0.0
C2074 C 0.85993 0.16693 0.47092 0.0
C2075 C 0.89789 0.17043 0.43343 0.0
C2076 C 0.90975 0.16454 0.37988 0.0
H2077 H 0.84178 0.18297 0.267 0.0
H2078 H 0.836 0.18018 0.31129 0.0
H2079 H 0.94206 0.16513 0.34568 0.0
H2080 H 0.80637 0.15792 0.46546 0.0
H2081 H 0.81488 0.15632 0.42088 0.0
H2082 H 0.80788 0.16715 0.38586 0.0
C2083 C 0.85692 0.17564 0.30084 0.0
C2084 C 0.91251 0.16538 0.35418 0.0
C2085 C 0.86043 0.17728 0.27544 0.0
C2086 C 0.83222 0.16141 0.45683 0.0
C2087 C 0.83696 0.16054 0.43125 0.0
C2088 C 0.83728 0.16648 0.37732 0.0
C2089 C 0.88082 0.16842 0.31266 0.0
C2090 C 0.87771 0.16689 0.3398 0.0
C2091 C 0.86938 0.16522 0.41919 0.0
C2092 C 0.87216 0.16523 0.39177 0.0
H2093 H 0.93336 0.16011 0.26267 0.0
H2094 H 0.9267 0.15713 0.30693 0.0
H2095 H 0.81257 0.16827 0.34107 0.0
H2096 H 0.91519 0.17556 0.46928 0.0
H2097 H 0.92296 0.17422 0.42472 0.0
C2098 C 0.86032 0.53868 0.48129 0.0
C2099 C 0.89905 0.54172 0.48872 0.0
C2100 C 0.84974 0.53864 0.45633 0.0
C2101 C 0.89022 0.53737 0.39388 0.0
H2102 H 0.79351 0.55173 0.37491 0.0
C2103 C 0.85636 0.5469 0.29258 0.0
C2104 C 0.81613 0.54688 0.28443 0.0
C2105 C 0.86544 0.54568 0.31755 0.0
C2106 C 0.82018 0.54753 0.37988 0.0
H2107 H 0.95741 0.54682 0.47576 0.0
H2108 H 0.93898 0.54656 0.43194 0.0
H2109 H 0.81172 0.55043 0.41849 0.0
H2110 H 0.75383 0.54542 0.29603 0.0
H2111 H 0.76974 0.54299 0.33971 0.0
H2112 H 0.89852 0.53429 0.35547 0.0
C2113 C 0.91688 0.54428 0.44557 0.0
C2114 C 0.83067 0.54684 0.40483 0.0
C2115 C 0.92733 0.54446 0.4706 0.0
C2116 C 0.78511 0.54553 0.30179 0.0
C2117 C 0.79425 0.54419 0.32682 0.0
C2118 C 0.87947 0.53794 0.36897 0.0
C2119 C 0.87783 0.54149 0.43829 0.0
C2120 C 0.866 0.54185 0.41198 0.0
C2121 C 0.83456 0.54428 0.335 0.0
C2122 C 0.84459 0.54314 0.36163 0.0
H2123 H 0.83779 0.53655 0.49479 0.0
H2124 H 0.81953 0.5364 0.45111 0.0
H2125 H 0.91735 0.53338 0.39903 0.0
H2126 H 0.88097 0.54801 0.2797 0.0
H2127 H 0.89674 0.54603 0.32319 0.0
C2128 C 0.60709 0.29576 0.52016 0.0
C2129 C 0.63627 0.30203 0.50952 0.0
C2130 C 0.59922 0.29612 0.54546 0.0
C2131 C 0.57408 0.30166 0.59742 0.0
H2132 H 0.66567 0.30229 0.64195 0.0
C2133 C 0.55747 0.30256 0.7041 0.0
C2134 C 0.58431 0.29652 0.71754 0.0
C2135 C 0.5625 0.30388 0.67864 0.0
C2136 C 0.6398 0.30207 0.62974 0.0
H2137 H 0.67951 0.31376 0.51711 0.0
H2138 H 0.66557 0.31441 0.56147 0.0
H2139 H 0.67664 0.30369 0.59753 0.0
H2140 H 0.63679 0.28691 0.71462 0.0
H2141 H 0.64509 0.28912 0.67029 0.0
H2142 H 0.53737 0.29971 0.62962 0.0
C2143 C 0.6491 0.30915 0.55014 0.0
C2144 C 0.64604 0.303 0.60432 0.0
C2145 C 0.65697 0.3088 0.52474 0.0
C2146 C 0.61569 0.29166 0.70489 0.0
C2147 C 0.62068 0.29299 0.67949 0.0
C2148 C 0.56784 0.30073 0.62286 0.0
C2149 C 0.6203 0.30276 0.56077 0.0
C2150 C 0.61331 0.30266 0.58786 0.0
C2151 C 0.59446 0.2992 0.66613 0.0
C2152 C 0.60069 0.30077 0.63926 0.0
H2153 H 0.59053 0.29046 0.50901 0.0
H2154 H 0.57731 0.291 0.55312 0.0
H2155 H 0.54821 0.30149 0.5852 0.0
H2156 H 0.53304 0.30642 0.71329 0.0
H2157 H 0.54193 0.30876 0.66886 0.0
C2158 C 0.64479 0.91616 0.51132 0.0
C2159 C 0.60392 0.91666 0.5046 0.0
C2160 C 0.65586 0.91412 0.53576 0.0
C2161 C 0.61405 0.9061 0.59704 0.0
H2162 H 0.70202 0.92206 0.62279 0.0
C2163 C 0.63009 0.91803 0.69875 0.0
C2164 C 0.66703 0.91588 0.71031 0.0
C2165 C 0.62543 0.91662 0.67336 0.0
C2166 C 0.67774 0.91747 0.61574 0.0
H2167 H 0.54262 0.91511 0.51807 0.0
H2168 H 0.56164 0.91197 0.5606 0.0
H2169 H 0.68834 0.92203 0.57849 0.0
H2170 H 0.72821 0.91069 0.70437 0.0
H2171 H 0.72033 0.90858 0.65954 0.0
H2172 H 0.60207 0.90211 0.63474 0.0
C2173 C 0.58541 0.91284 0.54705 0.0
C2174 C 0.66996 0.91739 0.59034 0.0
C2175 C 0.57441 0.91471 0.52259 0.0
C2176 C 0.69938 0.91238 0.69593 0.0
C2177 C 0.69495 0.91119 0.67037 0.0
C2178 C 0.62137 0.90635 0.62246 0.0
C2179 C 0.62627 0.91271 0.5541 0.0
C2180 C 0.63751 0.91185 0.58069 0.0
C2181 C 0.65785 0.91324 0.65897 0.0
C2182 C 0.65285 0.91215 0.632 0.0
H2183 H 0.66824 0.91754 0.49781 0.0
H2184 H 0.68762 0.91385 0.54034 0.0
H2185 H 0.58946 0.90155 0.5903 0.0
H2186 H 0.60457 0.92068 0.70939 0.0
H2187 H 0.59665 0.91833 0.66486 0.0
C2188 C 0.35192 0.66348 0.46895 0.0
C2189 C 0.37112 0.67082 0.48328 0.0
C2190 C 0.35975 0.66272 0.44362 0.0
C2191 C 0.43313 0.67024 0.39541 0.0
H2192 H 0.3434 0.66584 0.35075 0.0
C2193 C 0.39357 0.67514 0.28553 0.0
C2194 C 0.42903 0.67127 0.27501 0.0
C2195 C 0.38636 0.67423 0.31087 0.0
C2196 C 0.36875 0.66712 0.36297 0.0
H2197 H 0.41385 0.68305 0.48219 0.0
H2198 H 0.42692 0.68181 0.43809 0.0
H2199 H 0.33171 0.66602 0.39525 0.0
H2200 H 0.48422 0.66317 0.28281 0.0
H2201 H 0.47129 0.66143 0.32693 0.0
H2202 H 0.4699 0.67174 0.36318 0.0
C2203 C 0.40635 0.67654 0.44646 0.0
C2204 C 0.36214 0.6671 0.38849 0.0
C2205 C 0.39865 0.67728 0.47176 0.0
C2206 C 0.45675 0.66631 0.29034 0.0
C2207 C 0.44943 0.66535 0.31566 0.0
C2208 C 0.43971 0.6703 0.36992 0.0
C2209 C 0.38687 0.66928 0.43206 0.0
C2210 C 0.3942 0.66875 0.405 0.0
C2211 C 0.41434 0.66938 0.32627 0.0
C2212 C 0.40755 0.66883 0.35339 0.0
H2213 H 0.33066 0.65836 0.47725 0.0
H2214 H 0.34465 0.65696 0.43311 0.0
H2215 H 0.45858 0.6714 0.40762 0.0
H2216 H 0.37162 0.67904 0.27426 0.0
H2217 H 0.3593 0.67755 0.31848 0.0
C2218 C 0.38722 0.04502 0.47194 0.0
C2219 C 0.41472 0.05119 0.48445 0.0
C2220 C 0.38334 0.04555 0.4463 0.0
C2221 C 0.43541 0.05343 0.38964 0.0
H2222 H 0.32754 0.05296 0.36189 0.0
C2223 C 0.34882 0.05818 0.2896 0.0
C2224 C 0.37237 0.05176 0.275 0.0
C2225 C 0.35551 0.05888 0.31504 0.0
C2226 C 0.35784 0.0532 0.36935 0.0
H2227 H 0.46027 0.06263 0.47969 0.0
H2228 H 0.45338 0.06354 0.43478 0.0
H2229 H 0.33638 0.05268 0.40662 0.0
H2230 H 0.42206 0.04122 0.27563 0.0
H2231 H 0.43344 0.04242 0.32 0.0
H2232 H 0.45682 0.05398 0.3523 0.0
C2233 C 0.43499 0.05828 0.44491 0.0
C2234 C 0.36291 0.05292 0.39495 0.0
C2235 C 0.43881 0.05777 0.47064 0.0
C2236 C 0.40332 0.04623 0.28632 0.0
C2237 C 0.41005 0.04697 0.31174 0.0
C2238 C 0.43034 0.05367 0.36399 0.0
C2239 C 0.4069 0.05224 0.43253 0.0
C2240 C 0.40174 0.05294 0.40536 0.0
C2241 C 0.38595 0.05322 0.3264 0.0
C2242 C 0.3915 0.05349 0.35359 0.0
H2243 H 0.36829 0.03984 0.48196 0.0
H2244 H 0.36193 0.04068 0.43722 0.0
H2245 H 0.46569 0.0534 0.39715 0.0
H2246 H 0.32484 0.06257 0.28146 0.0
H2247 H 0.33677 0.06386 0.32584 0.0
C2248 C 0.66247 0.81279 0.04795 0.0
C2249 C 0.63903 0.80545 0.03624 0.0
C2250 C 0.6586 0.8145 0.07336 0.0
C2251 C 0.65954 0.81234 0.12973 0.0
H2252 H 0.5519 0.81173 0.15774 0.0
C2253 C 0.62777 0.80773 0.23403 0.0
C2254 C 0.59413 0.81262 0.24419 0.0
C2255 C 0.63565 0.80826 0.20869 0.0
C2256 C 0.58213 0.81207 0.15021 0.0
H2257 H 0.59382 0.79401 0.04218 0.0
H2258 H 0.58749 0.79692 0.08634 0.0
H2259 H 0.56071 0.80987 0.11334 0.0
H2260 H 0.54371 0.82237 0.23587 0.0
H2261 H 0.5578 0.82339 0.19172 0.0
H2262 H 0.68088 0.81457 0.16671 0.0
C2263 C 0.60832 0.80147 0.07585 0.0
C2264 C 0.58721 0.81087 0.12479 0.0
C2265 C 0.61218 0.79976 0.05054 0.0
C2266 C 0.56965 0.81843 0.22863 0.0
C2267 C 0.5776 0.81899 0.2033 0.0
C2268 C 0.65446 0.81355 0.15523 0.0
C2269 C 0.63117 0.80892 0.08751 0.0
C2270 C 0.62597 0.81084 0.11432 0.0
C2271 C 0.61014 0.81372 0.19297 0.0
C2272 C 0.6157 0.8133 0.16577 0.0
H2273 H 0.68342 0.81731 0.03747 0.0
H2274 H 0.67645 0.82033 0.08182 0.0
H2275 H 0.6898 0.81231 0.12219 0.0
H2276 H 0.64732 0.80319 0.24547 0.0
H2277 H 0.66074 0.80404 0.2013 0.0
C2278 C 0.56509 0.41582 0.02837 0.0
C2279 C 0.59628 0.41845 0.0121 0.0
C2280 C 0.57233 0.41517 0.05376 0.0
C2281 C 0.64648 0.42318 0.10149 0.0
H2282 H 0.58502 0.40517 0.14298 0.0
C2283 C 0.67756 0.41653 0.20567 0.0
C2284 C 0.64466 0.41919 0.22067 0.0
C2285 C 0.67281 0.41569 0.1801 0.0
C2286 C 0.60236 0.41021 0.13151 0.0
H2287 H 0.65982 0.42202 0.00933 0.0
H2288 H 0.67309 0.42037 0.05339 0.0
H2289 H 0.57579 0.40475 0.09819 0.0
H2290 H 0.58084 0.42272 0.22091 0.0
H2291 H 0.57235 0.42091 0.17614 0.0
H2292 H 0.67381 0.42837 0.13502 0.0
C2293 C 0.64259 0.41922 0.04685 0.0
C2294 C 0.59692 0.41005 0.1059 0.0
C2295 C 0.63511 0.4201 0.02154 0.0
C2296 C 0.60671 0.42071 0.20975 0.0
C2297 C 0.60179 0.41963 0.18425 0.0
C2298 C 0.65251 0.42317 0.12702 0.0
C2299 C 0.61116 0.41691 0.06338 0.0
C2300 C 0.61852 0.41664 0.09054 0.0
C2301 C 0.63491 0.41724 0.16925 0.0
C2302 C 0.63015 0.41677 0.1422 0.0
H2303 H 0.53478 0.41458 0.02156 0.0
H2304 H 0.54714 0.41356 0.06584 0.0
H2305 H 0.66306 0.42852 0.09046 0.0
H2306 H 0.70718 0.41537 0.21362 0.0
H2307 H 0.69869 0.41384 0.16876 0.0
C2308 C 0.3938 0.16077 0.76805 0.0
C2309 C 0.38749 0.17004 0.75664 0.0
C2310 C 0.38669 0.15959 0.7934 0.0
C2311 C 0.33729 0.1722 0.84705 0.0
H2312 H 0.40892 0.15551 0.8858 0.0
C2313 C 0.35984 0.17571 0.95227 0.0
C2314 C 0.34897 0.16719 0.96579 0.0
C2315 C 0.36335 0.17528 0.92659 0.0
C2316 C 0.38861 0.16013 0.87507 0.0
H2317 H 0.36948 0.18536 0.76282 0.0
H2318 H 0.35886 0.18345 0.80686 0.0
H2319 H 0.41684 0.15624 0.84086 0.0
H2320 H 0.33448 0.15148 0.9632 0.0
H2321 H 0.34204 0.15069 0.91808 0.0
H2322 H 0.31068 0.17646 0.88158 0.0
C2323 C 0.36772 0.17696 0.79632 0.0
C2324 C 0.39287 0.16051 0.84936 0.0
C2325 C 0.3741 0.17809 0.77101 0.0
C2326 C 0.34273 0.15816 0.9532 0.0
C2327 C 0.34715 0.15769 0.92751 0.0
C2328 C 0.33364 0.17196 0.87273 0.0
C2329 C 0.37379 0.1677 0.80789 0.0
C2330 C 0.36757 0.16667 0.83503 0.0
C2331 C 0.35693 0.16628 0.91406 0.0
C2332 C 0.3595 0.16601 0.8869 0.0
H2333 H 0.40395 0.15443 0.75738 0.0
H2334 H 0.39114 0.15231 0.80156 0.0
H2335 H 0.31651 0.17681 0.83666 0.0
H2336 H 0.36465 0.18277 0.96148 0.0
H2337 H 0.37105 0.18198 0.91646 0.0
C2338 C 0.37483 0.55225 0.96204 0.0
C2339 C 0.41182 0.55548 0.97188 0.0
C2340 C 0.36684 0.55317 0.93681 0.0
C2341 C 0.41866 0.55556 0.8769 0.0
H2342 H 0.31069 0.56109 0.85297 0.0
C2343 C 0.32863 0.56169 0.77836 0.0
C2344 C 0.34624 0.5539 0.76477 0.0
C2345 C 0.33694 0.56279 0.80358 0.0
C2346 C 0.34112 0.55966 0.85931 0.0
H2347 H 0.46899 0.56246 0.963 0.0
H2348 H 0.45472 0.56423 0.91898 0.0
H2349 H 0.32471 0.56191 0.89716 0.0
H2350 H 0.38584 0.54106 0.76713 0.0
H2351 H 0.39952 0.54284 0.81099 0.0
H2352 H 0.43526 0.55345 0.83907 0.0
C2353 C 0.4322 0.56081 0.93074 0.0
C2354 C 0.34905 0.56001 0.88467 0.0
C2355 C 0.44031 0.55984 0.95599 0.0
C2356 C 0.37197 0.54719 0.77697 0.0
C2357 C 0.38009 0.54825 0.80213 0.0
C2358 C 0.41079 0.55526 0.85156 0.0
C2359 C 0.39553 0.55739 0.92082 0.0
C2360 C 0.38777 0.55781 0.89379 0.0
C2361 C 0.36289 0.55609 0.81571 0.0
C2362 C 0.37178 0.55714 0.8425 0.0
H2363 H 0.35224 0.54882 0.97374 0.0
H2364 H 0.33857 0.55031 0.92976 0.0
H2365 H 0.44874 0.55374 0.88328 0.0
H2366 H 0.3088 0.56701 0.76949 0.0
H2367 H 0.32348 0.56896 0.81348 0.0
loop_
_geom_bond_atom_site_label_1
_geom_bond_atom_site_label_2
_geom_bond_distance
_geom_bond_site_symmetry_2
_ccdc_geom_bond_type
C0 O1 1.306 . S
C0 O3 1.160 . S
O1 C0 1.306 . S
O1 Cd2 2.228 . S
Cd2 O1 2.228 . S
Cd2 O6 2.273 . S
Cd2 O10 2.277 . S
O3 C0 1.160 . S
O3 Cd4 2.203 . S
Cd4 O3 2.203 . S
Cd4 O6 2.411 . S
Cd4 O7 2.333 . S
Cd4 O8 2.352 . S
Cd4 O12 2.277 . S
Cd4 O13 2.356 . S
C5 O10 1.209 . S
C5 O12 1.226 . S
O6 Cd2 2.273 . S
O6 Cd4 2.411 . S
O6 C9 1.320 . S
O7 Cd4 2.333 . S
O7 C9 1.214 . S
O8 Cd4 2.352 . S
O8 C11 1.258 . S
C9 O6 1.320 . S
C9 O7 1.214 . S
O10 Cd2 2.277 . S
O10 C5 1.209 . S
C11 O8 1.258 . S
C11 O13 1.282 . S
O12 Cd4 2.277 . S
O12 C5 1.226 . S
O13 Cd4 2.356 . S
O13 C11 1.282 . S
C14 O15 1.306 . S
C14 O17 1.160 . S
O15 C14 1.306 . S
O15 Cd16 2.228 . S
Cd16 O15 2.228 . S
Cd16 O20 2.273 . S
Cd16 O24 2.277 . S
O17 C14 1.160 . S
O17 Cd18 2.203 . S
Cd18 O17 2.203 . S
Cd18 O20 2.411 . S
Cd18 O21 2.333 . S
Cd18 O22 2.352 . S
Cd18 O26 2.277 . S
Cd18 O27 2.356 . S
C19 O24 1.209 . S
C19 O26 1.226 . S
O20 Cd16 2.273 . S
O20 Cd18 2.411 . S
O20 C23 1.320 . S
O21 Cd18 2.333 . S
O21 C23 1.214 . S
O22 Cd18 2.352 . S
O22 C25 1.258 . S
C23 O20 1.320 . S
C23 O21 1.214 . S
O24 Cd16 2.277 . S
O24 C19 1.209 . S
C25 O22 1.258 . S
C25 O27 1.282 . S
O26 Cd18 2.277 . S
O26 C19 1.226 . S
O27 Cd18 2.356 . S
O27 C25 1.282 . S
C28 O29 1.306 . S
C28 O31 1.160 . S
O29 C28 1.306 . S
O29 Cd30 2.228 . S
Cd30 O29 2.228 . S
Cd30 O34 2.273 . S
Cd30 O38 2.277 . S
O31 C28 1.160 . S
O31 Cd32 2.203 . S
Cd32 O31 2.203 . S
Cd32 O34 2.411 . S
Cd32 O35 2.333 . S
Cd32 O36 2.352 . S
Cd32 O40 2.277 . S
Cd32 O41 2.356 . S
C33 O38 1.209 1_554 S
C33 O40 1.226 1_554 S
O34 Cd30 2.273 . S
O34 Cd32 2.411 . S
O34 C37 1.320 . S
O35 Cd32 2.333 . S
O35 C37 1.214 . S
O36 Cd32 2.352 . S
O36 C39 1.258 . S
C37 O34 1.320 . S
C37 O35 1.214 . S
O38 Cd30 2.277 . S
O38 C33 1.209 1_556 S
C39 O36 1.258 . S
C39 O41 1.282 . S
O40 Cd32 2.277 . S
O40 C33 1.226 1_556 S
O41 Cd32 2.356 . S
O41 C39 1.282 . S
C42 O43 1.306 . S
C42 O45 1.160 . S
O43 C42 1.306 . S
O43 Cd44 2.228 . S
Cd44 O43 2.228 . S
Cd44 O48 2.273 . S
Cd44 O52 2.277 . S
O45 C42 1.160 . S
O45 Cd46 2.203 . S
Cd46 O45 2.203 . S
Cd46 O48 2.411 . S
Cd46 O49 2.333 . S
Cd46 O50 2.352 . S
Cd46 O54 2.277 . S
Cd46 O55 2.356 . S
C47 O52 1.209 1_554 S
C47 O54 1.226 1_554 S
O48 Cd44 2.273 . S
O48 Cd46 2.411 . S
O48 C51 1.320 . S
O49 Cd46 2.333 . S
O49 C51 1.214 . S
O50 Cd46 2.352 . S
O50 C53 1.258 . S
C51 O48 1.320 . S
C51 O49 1.214 . S
O52 Cd44 2.277 . S
O52 C47 1.209 1_556 S
C53 O50 1.258 . S
C53 O55 1.282 . S
O54 Cd46 2.277 . S
O54 C47 1.226 1_556 S
O55 Cd46 2.356 . S
O55 C53 1.282 . S
C56 O57 1.306 . S
C56 O59 1.160 . S
O57 C56 1.306 . S
O57 Cd58 2.228 . S
Cd58 O57 2.228 . S
Cd58 O62 2.273 . S
Cd58 O66 2.277 . S
O59 C56 1.160 . S
O59 Cd60 2.203 . S
Cd60 O59 2.203 . S
Cd60 O62 2.411 . S
Cd60 O63 2.333 . S
Cd60 O64 2.352 . S
Cd60 O68 2.277 . S
Cd60 O69 2.356 . S
C61 O66 1.209 . S
C61 O68 1.226 . S
O62 Cd58 2.273 . S
O62 Cd60 2.411 . S
O62 C65 1.320 . S
O63 Cd60 2.333 . S
O63 C65 1.214 . S
O64 Cd60 2.352 . S
O64 C67 1.258 . S
C65 O62 1.320 . S
C65 O63 1.214 . S
O66 Cd58 2.277 . S
O66 C61 1.209 . S
C67 O64 1.258 . S
C67 O69 1.282 . S
O68 Cd60 2.277 . S
O68 C61 1.226 . S
O69 Cd60 2.356 . S
O69 C67 1.282 . S
C70 O71 1.306 . S
C70 O73 1.160 . S
O71 C70 1.306 . S
O71 Cd72 2.228 . S
Cd72 O71 2.228 . S
Cd72 O76 2.273 . S
Cd72 O80 2.277 . S
O73 C70 1.160 . S
O73 Cd74 2.203 . S
Cd74 O73 2.203 . S
Cd74 O76 2.411 . S
Cd74 O77 2.333 . S
Cd74 O78 2.352 . S
Cd74 O82 2.277 . S
Cd74 O83 2.356 . S
C75 O80 1.209 . S
C75 O82 1.226 . S
O76 Cd72 2.273 . S
O76 Cd74 2.411 . S
O76 C79 1.320 . S
O77 Cd74 2.333 . S
O77 C79 1.214 . S
O78 Cd74 2.352 . S
O78 C81 1.258 . S
C79 O76 1.320 . S
C79 O77 1.214 . S
O80 Cd72 2.277 . S
O80 C75 1.209 . S
C81 O78 1.258 . S
C81 O83 1.282 . S
O82 Cd74 2.277 . S
O82 C75 1.226 . S
O83 Cd74 2.356 . S
O83 C81 1.282 . S
C84 O85 1.306 . S
C84 O87 1.160 . S
O85 C84 1.306 . S
O85 Cd86 2.228 . S
Cd86 O85 2.228 . S
Cd86 O90 2.273 . S
Cd86 O94 2.277 . S
O87 C84 1.160 . S
O87 Cd88 2.203 . S
Cd88 O87 2.203 . S
Cd88 O90 2.411 . S
Cd88 O91 2.333 . S
Cd88 O92 2.352 . S
Cd88 O96 2.277 . S
Cd88 O97 2.356 . S
C89 O94 1.209 1_556 S
C89 O96 1.226 1_556 S
O90 Cd86 2.273 . S
O90 Cd88 2.411 . S
O90 C93 1.320 . S
O91 Cd88 2.333 . S
O91 C93 1.214 . S
O92 Cd88 2.352 . S
O92 C95 1.258 . S
C93 O90 1.320 . S
C93 O91 1.214 . S
O94 Cd86 2.277 . S
O94 C89 1.209 1_554 S
C95 O92 1.258 . S
C95 O97 1.282 . S
O96 Cd88 2.277 . S
O96 C89 1.226 1_554 S
O97 Cd88 2.356 . S
O97 C95 1.282 . S
C98 O99 1.306 . S
C98 O101 1.160 . S
O99 C98 1.306 . S
O99 Cd100 2.228 . S
Cd100 O99 2.228 . S
Cd100 O104 2.273 . S
Cd100 O108 2.277 . S
O101 C98 1.160 . S
O101 Cd102 2.203 . S
Cd102 O101 2.203 . S
Cd102 O104 2.411 . S
Cd102 O105 2.333 . S
Cd102 O106 2.352 . S
Cd102 O110 2.277 . S
Cd102 O111 2.356 . S
C103 O108 1.209 1_556 S
C103 O110 1.226 1_556 S
O104 Cd100 2.273 . S
O104 Cd102 2.411 . S
O104 C107 1.320 . S
O105 Cd102 2.333 . S
O105 C107 1.214 . S
O106 Cd102 2.352 . S
O106 C109 1.258 . S
C107 O104 1.320 . S
C107 O105 1.214 . S
O108 Cd100 2.277 . S
O108 C103 1.209 1_554 S
C109 O106 1.258 . S
C109 O111 1.282 . S
O110 Cd102 2.277 . S
O110 C103 1.226 1_554 S
O111 Cd102 2.356 . S
O111 C109 1.282 . S
C112 O113 1.306 . S
C112 O115 1.160 . S
O113 C112 1.306 . S
O113 Cd114 2.228 . S
Cd114 O113 2.228 . S
Cd114 O118 2.273 . S
Cd114 O122 2.277 . S
O115 C112 1.160 . S
O115 Cd116 2.203 . S
Cd116 O115 2.203 . S
Cd116 O118 2.411 . S
Cd116 O119 2.333 . S
Cd116 O120 2.352 . S
Cd116 O124 2.277 . S
Cd116 O125 2.356 . S
C117 O122 1.209 . S
C117 O124 1.226 . S
O118 Cd114 2.273 . S
O118 Cd116 2.411 . S
O118 C121 1.320 . S
O119 Cd116 2.333 . S
O119 C121 1.214 . S
O120 Cd116 2.352 . S
O120 C123 1.258 . S
C121 O118 1.320 . S
C121 O119 1.214 . S
O122 Cd114 2.277 . S
O122 C117 1.209 . S
C123 O120 1.258 . S
C123 O125 1.282 . S
O124 Cd116 2.277 . S
O124 C117 1.226 . S
O125 Cd116 2.356 . S
O125 C123 1.282 . S
C126 O127 1.306 . S
C126 O129 1.160 . S
O127 C126 1.306 . S
O127 Cd128 2.228 . S
Cd128 O127 2.228 . S
Cd128 O132 2.273 . S
Cd128 O136 2.277 . S
O129 C126 1.160 . S
O129 Cd130 2.203 . S
Cd130 O129 2.203 . S
Cd130 O132 2.411 . S
Cd130 O133 2.333 . S
Cd130 O134 2.352 . S
Cd130 O138 2.277 . S
Cd130 O139 2.356 . S
C131 O136 1.209 . S
C131 O138 1.226 . S
O132 Cd128 2.273 . S
O132 Cd130 2.411 . S
O132 C135 1.320 . S
O133 Cd130 2.333 . S
O133 C135 1.214 . S
O134 Cd130 2.352 . S
O134 C137 1.258 . S
C135 O132 1.320 . S
C135 O133 1.214 . S
O136 Cd128 2.277 . S
O136 C131 1.209 . S
C137 O134 1.258 . S
C137 O139 1.282 . S
O138 Cd130 2.277 . S
O138 C131 1.226 . S
O139 Cd130 2.356 . S
O139 C137 1.282 . S
C140 O141 1.306 . S
C140 O143 1.160 . S
O141 C140 1.306 . S
O141 Cd142 2.228 . S
Cd142 O141 2.228 . S
Cd142 O146 2.273 . S
Cd142 O150 2.277 . S
O143 C140 1.160 . S
O143 Cd144 2.203 . S
Cd144 O143 2.203 . S
Cd144 O146 2.411 . S
Cd144 O147 2.333 . S
Cd144 O148 2.352 . S
Cd144 O152 2.277 . S
Cd144 O153 2.356 . S
C145 O150 1.209 . S
C145 O152 1.226 . S
O146 Cd142 2.273 . S
O146 Cd144 2.411 . S
O146 C149 1.320 . S
O147 Cd144 2.333 . S
O147 C149 1.214 . S
O148 Cd144 2.352 . S
O148 C151 1.258 . S
C149 O146 1.320 . S
C149 O147 1.214 . S
O150 Cd142 2.277 . S
O150 C145 1.209 . S
C151 O148 1.258 . S
C151 O153 1.282 . S
O152 Cd144 2.277 . S
O152 C145 1.226 . S
O153 Cd144 2.356 . S
O153 C151 1.282 . S
C154 O155 1.306 . S
C154 O157 1.160 . S
O155 C154 1.306 . S
O155 Cd156 2.228 . S
Cd156 O155 2.228 . S
Cd156 O160 2.273 . S
Cd156 O164 2.277 . S
O157 C154 1.160 . S
O157 Cd158 2.203 . S
Cd158 O157 2.203 . S
Cd158 O160 2.411 . S
Cd158 O161 2.333 . S
Cd158 O162 2.352 . S
Cd158 O166 2.277 . S
Cd158 O167 2.356 . S
C159 O164 1.209 . S
C159 O166 1.226 . S
O160 Cd156 2.273 . S
O160 Cd158 2.411 . S
O160 C163 1.320 . S
O161 Cd158 2.333 . S
O161 C163 1.214 . S
O162 Cd158 2.352 . S
O162 C165 1.258 . S
C163 O160 1.320 . S
C163 O161 1.214 . S
O164 Cd156 2.277 . S
O164 C159 1.209 . S
C165 O162 1.258 . S
C165 O167 1.282 . S
O166 Cd158 2.277 . S
O166 C159 1.226 . S
O167 Cd158 2.356 . S
O167 C165 1.282 . S
C168 O169 1.306 . S
C168 O171 1.160 . S
O169 C168 1.306 . S
O169 Cd170 2.228 . S
Cd170 O169 2.228 . S
Cd170 O174 2.273 . S
Cd170 O178 2.277 . S
O171 C168 1.160 . S
O171 Cd172 2.203 . S
Cd172 O171 2.203 . S
Cd172 O174 2.411 . S
Cd172 O175 2.333 . S
Cd172 O176 2.352 . S
Cd172 O180 2.277 . S
Cd172 O181 2.356 . S
C173 O178 1.209 . S
C173 O180 1.226 . S
O174 Cd170 2.273 . S
O174 Cd172 2.411 . S
O174 C177 1.320 . S
O175 Cd172 2.333 . S
O175 C177 1.214 . S
O176 Cd172 2.352 . S
O176 C179 1.258 . S
C177 O174 1.320 . S
C177 O175 1.214 . S
O178 Cd170 2.277 . S
O178 C173 1.209 . S
C179 O176 1.258 . S
C179 O181 1.282 . S
O180 Cd172 2.277 . S
O180 C173 1.226 . S
O181 Cd172 2.356 . S
O181 C179 1.282 . S
C182 O183 1.306 . S
C182 O185 1.160 . S
O183 C182 1.306 . S
O183 Cd184 2.228 . S
Cd184 O183 2.228 . S
Cd184 O188 2.273 . S
Cd184 O192 2.277 . S
O185 C182 1.160 . S
O185 Cd186 2.203 . S
Cd186 O185 2.203 . S
Cd186 O188 2.411 . S
Cd186 O189 2.333 . S
Cd186 O190 2.352 . S
Cd186 O194 2.277 . S
Cd186 O195 2.356 . S
C187 O192 1.209 . S
C187 O194 1.226 . S
O188 Cd184 2.273 . S
O188 Cd186 2.411 . S
O188 C191 1.320 . S
O189 Cd186 2.333 . S
O189 C191 1.214 . S
O190 Cd186 2.352 . S
O190 C193 1.258 . S
C191 O188 1.320 . S
C191 O189 1.214 . S
O192 Cd184 2.277 . S
O192 C187 1.209 . S
C193 O190 1.258 . S
C193 O195 1.282 . S
O194 Cd186 2.277 . S
O194 C187 1.226 . S
O195 Cd186 2.356 . S
O195 C193 1.282 . S
C196 O197 1.306 . S
C196 O199 1.160 . S
O197 C196 1.306 . S
O197 Cd198 2.228 . S
Cd198 O197 2.228 . S
Cd198 O202 2.273 . S
Cd198 O206 2.277 . S
O199 C196 1.160 . S
O199 Cd200 2.203 . S
Cd200 O199 2.203 . S
Cd200 O202 2.411 . S
Cd200 O203 2.333 . S
Cd200 O204 2.352 . S
Cd200 O208 2.277 . S
Cd200 O209 2.356 . S
C201 O206 1.209 . S
C201 O208 1.226 . S
O202 Cd198 2.273 . S
O202 Cd200 2.411 . S
O202 C205 1.320 . S
O203 Cd200 2.333 . S
O203 C205 1.214 . S
O204 Cd200 2.352 . S
O204 C207 1.258 . S
C205 O202 1.320 . S
C205 O203 1.214 . S
O206 Cd198 2.277 . S
O206 C201 1.209 . S
C207 O204 1.258 . S
C207 O209 1.282 . S
O208 Cd200 2.277 . S
O208 C201 1.226 . S
O209 Cd200 2.356 . S
O209 C207 1.282 . S
C210 O211 1.306 . S
C210 O213 1.160 . S
O211 C210 1.306 . S
O211 Cd212 2.228 . S
Cd212 O211 2.228 . S
Cd212 O216 2.273 . S
Cd212 O220 2.277 . S
O213 C210 1.160 . S
O213 Cd214 2.203 . S
Cd214 O213 2.203 . S
Cd214 O216 2.411 . S
Cd214 O217 2.333 . S
Cd214 O218 2.352 . S
Cd214 O222 2.277 . S
Cd214 O223 2.356 . S
C215 O220 1.209 . S
C215 O222 1.226 . S
O216 Cd212 2.273 . S
O216 Cd214 2.411 . S
O216 C219 1.320 . S
O217 Cd214 2.333 . S
O217 C219 1.214 . S
O218 Cd214 2.352 . S
O218 C221 1.258 . S
C219 O216 1.320 . S
C219 O217 1.214 . S
O220 Cd212 2.277 . S
O220 C215 1.209 . S
C221 O218 1.258 . S
C221 O223 1.282 . S
O222 Cd214 2.277 . S
O222 C215 1.226 . S
O223 Cd214 2.356 . S
O223 C221 1.282 . S
C224 O225 1.306 . S
C224 O227 1.160 . S
O225 C224 1.306 . S
O225 Cd226 2.228 . S
Cd226 O225 2.228 . S
Cd226 O230 2.273 . S
Cd226 O234 2.277 . S
O227 C224 1.160 . S
O227 Cd228 2.203 . S
Cd228 O227 2.203 . S
Cd228 O230 2.411 . S
Cd228 O231 2.333 . S
Cd228 O232 2.352 . S
Cd228 O236 2.277 . S
Cd228 O237 2.356 . S
C229 O234 1.209 . S
C229 O236 1.226 . S
O230 Cd226 2.273 . S
O230 Cd228 2.411 . S
O230 C233 1.320 . S
O231 Cd228 2.333 . S
O231 C233 1.214 . S
O232 Cd228 2.352 . S
O232 C235 1.258 . S
C233 O230 1.320 . S
C233 O231 1.214 . S
O234 Cd226 2.277 . S
O234 C229 1.209 . S
C235 O232 1.258 . S
C235 O237 1.282 . S
O236 Cd228 2.277 . S
O236 C229 1.226 . S
O237 Cd228 2.356 . S
O237 C235 1.282 . S
C238 O239 1.306 . S
C238 O241 1.160 . S
O239 C238 1.306 . S
O239 Cd240 2.228 . S
Cd240 O239 2.228 . S
Cd240 O244 2.273 . S
Cd240 O248 2.277 . S
O241 C238 1.160 . S
O241 Cd242 2.203 . S
Cd242 O241 2.203 . S
Cd242 O244 2.411 . S
Cd242 O245 2.333 . S
Cd242 O246 2.352 . S
Cd242 O250 2.277 . S
Cd242 O251 2.356 . S
C243 O248 1.209 . S
C243 O250 1.226 . S
O244 Cd240 2.273 . S
O244 Cd242 2.411 . S
O244 C247 1.320 . S
O245 Cd242 2.333 . S
O245 C247 1.214 . S
O246 Cd242 2.352 . S
O246 C249 1.258 . S
C247 O244 1.320 . S
C247 O245 1.214 . S
O248 Cd240 2.277 . S
O248 C243 1.209 . S
C249 O246 1.258 . S
C249 O251 1.282 . S
O250 Cd242 2.277 . S
O250 C243 1.226 . S
O251 Cd242 2.356 . S
O251 C249 1.282 . S
C252 O253 1.306 . S
C252 O255 1.160 . S
O253 C252 1.306 . S
O253 Cd254 2.228 . S
Cd254 O253 2.228 . S
Cd254 O258 2.273 . S
Cd254 O262 2.277 . S
O255 C252 1.160 . S
O255 Cd256 2.203 . S
Cd256 O255 2.203 . S
Cd256 O258 2.411 . S
Cd256 O259 2.333 . S
Cd256 O260 2.352 . S
Cd256 O264 2.277 . S
Cd256 O265 2.356 . S
C257 O262 1.209 . S
C257 O264 1.226 . S
O258 Cd254 2.273 . S
O258 Cd256 2.411 . S
O258 C261 1.320 . S
O259 Cd256 2.333 . S
O259 C261 1.214 . S
O260 Cd256 2.352 . S
O260 C263 1.258 . S
C261 O258 1.320 . S
C261 O259 1.214 . S
O262 Cd254 2.277 . S
O262 C257 1.209 . S
C263 O260 1.258 . S
C263 O265 1.282 . S
O264 Cd256 2.277 . S
O264 C257 1.226 . S
O265 Cd256 2.356 . S
O265 C263 1.282 . S
C266 O267 1.306 . S
C266 O269 1.160 . S
O267 C266 1.306 . S
O267 Cd268 2.228 . S
Cd268 O267 2.228 . S
Cd268 O272 2.273 . S
Cd268 O276 2.277 . S
O269 C266 1.160 . S
O269 Cd270 2.203 . S
Cd270 O269 2.203 . S
Cd270 O272 2.411 . S
Cd270 O273 2.333 . S
Cd270 O274 2.352 . S
Cd270 O278 2.277 . S
Cd270 O279 2.356 . S
C271 O276 1.209 . S
C271 O278 1.226 . S
O272 Cd268 2.273 . S
O272 Cd270 2.411 . S
O272 C275 1.320 . S
O273 Cd270 2.333 . S
O273 C275 1.214 . S
O274 Cd270 2.352 . S
O274 C277 1.258 . S
C275 O272 1.320 . S
C275 O273 1.214 . S
O276 Cd268 2.277 . S
O276 C271 1.209 . S
C277 O274 1.258 . S
C277 O279 1.282 . S
O278 Cd270 2.277 . S
O278 C271 1.226 . S
O279 Cd270 2.356 . S
O279 C277 1.282 . S
C280 O281 1.306 . S
C280 O283 1.160 . S
O281 C280 1.306 . S
O281 Cd282 2.228 . S
Cd282 O281 2.228 . S
Cd282 O286 2.273 . S
Cd282 O290 2.277 . S
O283 C280 1.160 . S
O283 Cd284 2.203 . S
Cd284 O283 2.203 . S
Cd284 O286 2.411 . S
Cd284 O287 2.333 . S
Cd284 O288 2.352 . S
Cd284 O292 2.277 . S
Cd284 O293 2.356 . S
C285 O290 1.209 . S
C285 O292 1.226 . S
O286 Cd282 2.273 . S
O286 Cd284 2.411 . S
O286 C289 1.320 . S
O287 Cd284 2.333 . S
O287 C289 1.214 . S
O288 Cd284 2.352 . S
O288 C291 1.258 . S
C289 O286 1.320 . S
C289 O287 1.214 . S
O290 Cd282 2.277 . S
O290 C285 1.209 . S
C291 O288 1.258 . S
C291 O293 1.282 . S
O292 Cd284 2.277 . S
O292 C285 1.226 . S
O293 Cd284 2.356 . S
O293 C291 1.282 . S
C294 O295 1.306 . S
C294 O297 1.160 . S
O295 C294 1.306 . S
O295 Cd296 2.228 . S
Cd296 O295 2.228 . S
Cd296 O300 2.273 . S
Cd296 O304 2.277 . S
O297 C294 1.160 . S
O297 Cd298 2.203 . S
Cd298 O297 2.203 . S
Cd298 O300 2.411 . S
Cd298 O301 2.333 . S
Cd298 O302 2.352 . S
Cd298 O306 2.277 . S
Cd298 O307 2.356 . S
C299 O304 1.209 . S
C299 O306 1.226 . S
O300 Cd296 2.273 . S
O300 Cd298 2.411 . S
O300 C303 1.320 . S
O301 Cd298 2.333 . S
O301 C303 1.214 . S
O302 Cd298 2.352 . S
O302 C305 1.258 . S
C303 O300 1.320 . S
C303 O301 1.214 . S
O304 Cd296 2.277 . S
O304 C299 1.209 . S
C305 O302 1.258 . S
C305 O307 1.282 . S
O306 Cd298 2.277 . S
O306 C299 1.226 . S
O307 Cd298 2.356 . S
O307 C305 1.282 . S
C308 O309 1.306 . S
C308 O311 1.160 . S
O309 C308 1.306 . S
O309 Cd310 2.228 . S
Cd310 O309 2.228 . S
Cd310 O314 2.273 . S
Cd310 O318 2.277 . S
O311 C308 1.160 . S
O311 Cd312 2.203 . S
Cd312 O311 2.203 . S
Cd312 O314 2.411 . S
Cd312 O315 2.333 . S
Cd312 O316 2.352 . S
Cd312 O320 2.277 . S
Cd312 O321 2.356 . S
C313 O318 1.209 . S
C313 O320 1.226 . S
O314 Cd310 2.273 . S
O314 Cd312 2.411 . S
O314 C317 1.320 . S
O315 Cd312 2.333 . S
O315 C317 1.214 . S
O316 Cd312 2.352 . S
O316 C319 1.258 . S
C317 O314 1.320 . S
C317 O315 1.214 . S
O318 Cd310 2.277 . S
O318 C313 1.209 . S
C319 O316 1.258 . S
C319 O321 1.282 . S
O320 Cd312 2.277 . S
O320 C313 1.226 . S
O321 Cd312 2.356 . S
O321 C319 1.282 . S
C322 O323 1.306 . S
C322 O325 1.160 . S
O323 C322 1.306 . S
O323 Cd324 2.228 . S
Cd324 O323 2.228 . S
Cd324 O328 2.273 . S
Cd324 O332 2.277 . S
O325 C322 1.160 . S
O325 Cd326 2.203 . S
Cd326 O325 2.203 . S
Cd326 O328 2.411 . S
Cd326 O329 2.333 . S
Cd326 O330 2.352 . S
Cd326 O334 2.277 . S
Cd326 O335 2.356 . S
C327 O332 1.209 . S
C327 O334 1.226 . S
O328 Cd324 2.273 . S
O328 Cd326 2.411 . S
O328 C331 1.320 . S
O329 Cd326 2.333 . S
O329 C331 1.214 . S
O330 Cd326 2.352 . S
O330 C333 1.258 . S
C331 O328 1.320 . S
C331 O329 1.214 . S
O332 Cd324 2.277 . S
O332 C327 1.209 . S
C333 O330 1.258 . S
C333 O335 1.282 . S
O334 Cd326 2.277 . S
O334 C327 1.226 . S
O335 Cd326 2.356 . S
O335 C333 1.282 . S
C336 O337 1.306 . S
C336 O339 1.160 . S
O337 C336 1.306 . S
O337 Cd338 2.228 . S
Cd338 O337 2.228 . S
Cd338 O342 2.273 . S
Cd338 O346 2.277 . S
O339 C336 1.160 . S
O339 Cd340 2.203 . S
Cd340 O339 2.203 . S
Cd340 O342 2.411 . S
Cd340 O343 2.333 . S
Cd340 O344 2.352 . S
Cd340 O348 2.277 . S
Cd340 O349 2.356 . S
C341 O346 1.209 . S
C341 O348 1.226 . S
O342 Cd338 2.273 . S
O342 Cd340 2.411 . S
O342 C345 1.320 . S
O343 Cd340 2.333 . S
O343 C345 1.214 . S
O344 Cd340 2.352 . S
O344 C347 1.258 . S
C345 O342 1.320 . S
C345 O343 1.214 . S
O346 Cd338 2.277 . S
O346 C341 1.209 . S
C347 O344 1.258 . S
C347 O349 1.282 . S
O348 Cd340 2.277 . S
O348 C341 1.226 . S
O349 Cd340 2.356 . S
O349 C347 1.282 . S
C350 O351 1.306 . S
C350 O353 1.160 . S
O351 C350 1.306 . S
O351 Cd352 2.228 . S
Cd352 O351 2.228 . S
Cd352 O356 2.273 . S
Cd352 O360 2.277 . S
O353 C350 1.160 . S
O353 Cd354 2.203 . S
Cd354 O353 2.203 . S
Cd354 O356 2.411 . S
Cd354 O357 2.333 . S
Cd354 O358 2.352 . S
Cd354 O362 2.277 . S
Cd354 O363 2.356 . S
C355 O360 1.209 . S
C355 O362 1.226 . S
O356 Cd352 2.273 . S
O356 Cd354 2.411 . S
O356 C359 1.320 . S
O357 Cd354 2.333 . S
O357 C359 1.214 . S
O358 Cd354 2.352 . S
O358 C361 1.258 . S
C359 O356 1.320 . S
C359 O357 1.214 . S
O360 Cd352 2.277 . S
O360 C355 1.209 . S
C361 O358 1.258 . S
C361 O363 1.282 . S
O362 Cd354 2.277 . S
O362 C355 1.226 . S
O363 Cd354 2.356 . S
O363 C361 1.282 . S
C364 O365 1.306 . S
C364 O367 1.160 . S
O365 C364 1.306 . S
O365 Cd366 2.228 . S
Cd366 O365 2.228 . S
Cd366 O370 2.273 . S
Cd366 O374 2.277 . S
O367 C364 1.160 . S
O367 Cd368 2.203 . S
Cd368 O367 2.203 . S
Cd368 O370 2.411 . S
Cd368 O371 2.333 . S
Cd368 O372 2.352 . S
Cd368 O376 2.277 . S
Cd368 O377 2.356 . S
C369 O374 1.209 1_554 S
C369 O376 1.226 1_554 S
O370 Cd366 2.273 . S
O370 Cd368 2.411 . S
O370 C373 1.320 . S
O371 Cd368 2.333 . S
O371 C373 1.214 . S
O372 Cd368 2.352 . S
O372 C375 1.258 . S
C373 O370 1.320 . S
C373 O371 1.214 . S
O374 Cd366 2.277 . S
O374 C369 1.209 1_556 S
C375 O372 1.258 . S
C375 O377 1.282 . S
O376 Cd368 2.277 . S
O376 C369 1.226 1_556 S
O377 Cd368 2.356 . S
O377 C375 1.282 . S
C378 O379 1.306 . S
C378 O381 1.160 . S
O379 C378 1.306 . S
O379 Cd380 2.228 . S
Cd380 O379 2.228 . S
Cd380 O384 2.273 . S
Cd380 O388 2.277 . S
O381 C378 1.160 . S
O381 Cd382 2.203 . S
Cd382 O381 2.203 . S
Cd382 O384 2.411 . S
Cd382 O385 2.333 . S
Cd382 O386 2.352 . S
Cd382 O390 2.277 . S
Cd382 O391 2.356 . S
C383 O388 1.209 1_554 S
C383 O390 1.226 1_554 S
O384 Cd380 2.273 . S
O384 Cd382 2.411 . S
O384 C387 1.320 . S
O385 Cd382 2.333 . S
O385 C387 1.214 . S
O386 Cd382 2.352 . S
O386 C389 1.258 . S
C387 O384 1.320 . S
C387 O385 1.214 . S
O388 Cd380 2.277 . S
O388 C383 1.209 1_556 S
C389 O386 1.258 . S
C389 O391 1.282 . S
O390 Cd382 2.277 . S
O390 C383 1.226 1_556 S
O391 Cd382 2.356 . S
O391 C389 1.282 . S
C392 O393 1.306 . S
C392 O395 1.160 . S
O393 C392 1.306 . S
O393 Cd394 2.228 . S
Cd394 O393 2.228 . S
Cd394 O398 2.273 . S
Cd394 O402 2.277 . S
O395 C392 1.160 . S
O395 Cd396 2.203 . S
Cd396 O395 2.203 . S
Cd396 O398 2.411 . S
Cd396 O399 2.333 . S
Cd396 O400 2.352 . S
Cd396 O404 2.277 . S
Cd396 O405 2.356 . S
C397 O402 1.209 . S
C397 O404 1.226 . S
O398 Cd394 2.273 . S
O398 Cd396 2.411 . S
O398 C401 1.320 . S
O399 Cd396 2.333 . S
O399 C401 1.214 . S
O400 Cd396 2.352 . S
O400 C403 1.258 . S
C401 O398 1.320 . S
C401 O399 1.214 . S
O402 Cd394 2.277 . S
O402 C397 1.209 . S
C403 O400 1.258 . S
C403 O405 1.282 . S
O404 Cd396 2.277 . S
O404 C397 1.226 . S
O405 Cd396 2.356 . S
O405 C403 1.282 . S
C406 O407 1.306 . S
C406 O409 1.160 . S
O407 C406 1.306 . S
O407 Cd408 2.228 . S
Cd408 O407 2.228 . S
Cd408 O412 2.273 . S
Cd408 O416 2.277 . S
O409 C406 1.160 . S
O409 Cd410 2.203 . S
Cd410 O409 2.203 . S
Cd410 O412 2.411 . S
Cd410 O413 2.333 . S
Cd410 O414 2.352 . S
Cd410 O418 2.277 . S
Cd410 O419 2.356 . S
C411 O416 1.209 . S
C411 O418 1.226 . S
O412 Cd408 2.273 . S
O412 Cd410 2.411 . S
O412 C415 1.320 . S
O413 Cd410 2.333 . S
O413 C415 1.214 . S
O414 Cd410 2.352 . S
O414 C417 1.258 . S
C415 O412 1.320 . S
C415 O413 1.214 . S
O416 Cd408 2.277 . S
O416 C411 1.209 . S
C417 O414 1.258 . S
C417 O419 1.282 . S
O418 Cd410 2.277 . S
O418 C411 1.226 . S
O419 Cd410 2.356 . S
O419 C417 1.282 . S
C420 O421 1.306 . S
C420 O423 1.160 . S
O421 C420 1.306 . S
O421 Cd422 2.228 . S
Cd422 O421 2.228 . S
Cd422 O426 2.273 . S
Cd422 O430 2.277 . S
O423 C420 1.160 . S
O423 Cd424 2.203 . S
Cd424 O423 2.203 . S
Cd424 O426 2.411 . S
Cd424 O427 2.333 . S
Cd424 O428 2.352 . S
Cd424 O432 2.277 . S
Cd424 O433 2.356 . S
C425 O430 1.209 1_556 S
C425 O432 1.226 1_556 S
O426 Cd422 2.273 . S
O426 Cd424 2.411 . S
O426 C429 1.320 . S
O427 Cd424 2.333 . S
O427 C429 1.214 . S
O428 Cd424 2.352 . S
O428 C431 1.258 . S
C429 O426 1.320 . S
C429 O427 1.214 . S
O430 Cd422 2.277 . S
O430 C425 1.209 1_554 S
C431 O428 1.258 . S
C431 O433 1.282 . S
O432 Cd424 2.277 . S
O432 C425 1.226 1_554 S
O433 Cd424 2.356 . S
O433 C431 1.282 . S
C434 O435 1.306 . S
C434 O437 1.160 . S
O435 C434 1.306 . S
O435 Cd436 2.228 . S
Cd436 O435 2.228 . S
Cd436 O440 2.273 . S
Cd436 O444 2.277 . S
O437 C434 1.160 . S
O437 Cd438 2.203 . S
Cd438 O437 2.203 . S
Cd438 O440 2.411 . S
Cd438 O441 2.333 . S
Cd438 O442 2.352 . S
Cd438 O446 2.277 . S
Cd438 O447 2.356 . S
C439 O444 1.209 1_556 S
C439 O446 1.226 1_556 S
O440 Cd436 2.273 . S
O440 Cd438 2.411 . S
O440 C443 1.320 . S
O441 Cd438 2.333 . S
O441 C443 1.214 . S
O442 Cd438 2.352 . S
O442 C445 1.258 . S
C443 O440 1.320 . S
C443 O441 1.214 . S
O444 Cd436 2.277 . S
O444 C439 1.209 1_554 S
C445 O442 1.258 . S
C445 O447 1.282 . S
O446 Cd438 2.277 . S
O446 C439 1.226 1_554 S
O447 Cd438 2.356 . S
O447 C445 1.282 . S
C448 C449 1.349 . S
C448 C450 1.327 . S
C448 H473 0.950 . S
C449 C448 1.349 . S
C449 C465 1.349 . S
C450 C448 1.327 . S
C450 C469 1.429 . S
C450 H474 0.950 . S
C451 C468 1.574 . S
C451 C470 1.368 . S
C451 H475 0.949 . S
H452 C456 0.949 . S
C453 C454 1.349 . S
C453 C455 1.327 . S
C453 H476 0.950 . S
C454 C453 1.349 . S
C454 C466 1.349 . S
C455 C453 1.327 . S
C455 C471 1.429 . S
C455 H477 0.950 . S
C456 H452 0.949 . S
C456 C464 1.574 . S
C456 C472 1.368 . S
H457 C465 0.950 . S
H458 C463 0.950 . S
H459 C464 0.949 . S
H460 C466 0.950 . S
H461 C467 0.950 . S
H462 C468 0.949 . S
C463 H458 0.950 . S
C463 C465 1.327 . S
C463 C469 1.429 . S
C464 C456 1.574 . S
C464 H459 0.949 . S
C464 C470 1.368 . S
C465 C449 1.349 . S
C465 H457 0.950 . S
C465 C463 1.327 . S
C466 C454 1.349 . S
C466 H460 0.950 . S
C466 C467 1.327 . S
C467 H461 0.950 . S
C467 C466 1.327 . S
C467 C471 1.429 . S
C468 C451 1.574 . S
C468 H462 0.949 . S
C468 C472 1.368 . S
C469 C450 1.429 . S
C469 C463 1.429 . S
C469 C470 1.523 . S
C470 C451 1.368 . S
C470 C464 1.368 . S
C470 C469 1.523 . S
C471 C455 1.429 . S
C471 C467 1.429 . S
C471 C472 1.523 . S
C472 C456 1.368 . S
C472 C468 1.368 . S
C472 C471 1.523 . S
H473 C448 0.950 . S
H474 C450 0.950 . S
H475 C451 0.949 . S
H476 C453 0.950 . S
H477 C455 0.950 . S
C478 C479 1.349 . S
C478 C480 1.327 . S
C478 H503 0.950 . S
C479 C478 1.349 . S
C479 C495 1.349 . S
C480 C478 1.327 . S
C480 C499 1.429 . S
C480 H504 0.950 . S
C481 C498 1.574 . S
C481 C500 1.368 . S
C481 H505 0.949 . S
H482 C486 0.949 . S
C483 C484 1.349 . S
C483 C485 1.327 . S
C483 H506 0.950 . S
C484 C483 1.349 . S
C484 C496 1.349 . S
C485 C483 1.327 . S
C485 C501 1.429 . S
C485 H507 0.950 . S
C486 H482 0.949 . S
C486 C494 1.574 . S
C486 C502 1.368 . S
H487 C495 0.950 . S
H488 C493 0.950 . S
H489 C494 0.949 . S
H490 C496 0.950 . S
H491 C497 0.950 . S
H492 C498 0.949 . S
C493 H488 0.950 . S
C493 C495 1.327 . S
C493 C499 1.429 . S
C494 C486 1.574 . S
C494 H489 0.949 . S
C494 C500 1.368 . S
C495 C479 1.349 . S
C495 H487 0.950 . S
C495 C493 1.327 . S
C496 C484 1.349 . S
C496 H490 0.950 . S
C496 C497 1.327 . S
C497 H491 0.950 . S
C497 C496 1.327 . S
C497 C501 1.429 . S
C498 C481 1.574 . S
C498 H492 0.949 . S
C498 C502 1.368 . S
C499 C480 1.429 . S
C499 C493 1.429 . S
C499 C500 1.523 . S
C500 C481 1.368 . S
C500 C494 1.368 . S
C500 C499 1.523 . S
C501 C485 1.429 . S
C501 C497 1.429 . S
C501 C502 1.523 . S
C502 C486 1.368 . S
C502 C498 1.368 . S
C502 C501 1.523 . S
H503 C478 0.950 . S
H504 C480 0.950 . S
H505 C481 0.949 . S
H506 C483 0.950 . S
H507 C485 0.950 . S
C508 C509 1.349 . S
C508 C510 1.327 . S
C508 H533 0.950 . S
C509 C508 1.349 . S
C509 C525 1.349 . S
C510 C508 1.327 . S
C510 C529 1.429 . S
C510 H534 0.950 . S
C511 C528 1.574 . S
C511 C530 1.368 . S
C511 H535 0.949 . S
H512 C516 0.949 . S
C513 C514 1.349 . S
C513 C515 1.327 . S
C513 H536 0.950 . S
C514 C513 1.349 . S
C514 C526 1.349 . S
C515 C513 1.327 . S
C515 C531 1.429 . S
C515 H537 0.950 . S
C516 H512 0.949 . S
C516 C524 1.574 . S
C516 C532 1.368 . S
H517 C525 0.950 . S
H518 C523 0.950 . S
H519 C524 0.949 . S
H520 C526 0.950 . S
H521 C527 0.950 . S
H522 C528 0.949 . S
C523 H518 0.950 . S
C523 C525 1.327 . S
C523 C529 1.429 . S
C524 C516 1.574 . S
C524 H519 0.949 . S
C524 C530 1.368 . S
C525 C509 1.349 . S
C525 H517 0.950 . S
C525 C523 1.327 . S
C526 C514 1.349 . S
C526 H520 0.950 . S
C526 C527 1.327 . S
C527 H521 0.950 . S
C527 C526 1.327 . S
C527 C531 1.429 . S
C528 C511 1.574 . S
C528 H522 0.949 . S
C528 C532 1.368 . S
C529 C510 1.429 . S
C529 C523 1.429 . S
C529 C530 1.523 . S
C530 C511 1.368 . S
C530 C524 1.368 . S
C530 C529 1.523 . S
C531 C515 1.429 . S
C531 C527 1.429 . S
C531 C532 1.523 . S
C532 C516 1.368 . S
C532 C528 1.368 . S
C532 C531 1.523 . S
H533 C508 0.950 . S
H534 C510 0.950 . S
H535 C511 0.949 . S
H536 C513 0.950 . S
H537 C515 0.950 . S
C538 C539 1.349 . S
C538 C540 1.327 . S
C538 H563 0.950 . S
C539 C538 1.349 . S
C539 C555 1.349 . S
C540 C538 1.327 . S
C540 C559 1.429 . S
C540 H564 0.950 . S
C541 C558 1.574 . S
C541 C560 1.368 . S
C541 H565 0.949 . S
H542 C546 0.949 . S
C543 C544 1.349 . S
C543 C545 1.327 . S
C543 H566 0.950 . S
C544 C543 1.349 . S
C544 C556 1.349 . S
C545 C543 1.327 . S
C545 C561 1.429 . S
C545 H567 0.950 . S
C546 H542 0.949 . S
C546 C554 1.574 . S
C546 C562 1.368 . S
H547 C555 0.950 . S
H548 C553 0.950 . S
H549 C554 0.949 . S
H550 C556 0.950 . S
H551 C557 0.950 . S
H552 C558 0.949 . S
C553 H548 0.950 . S
C553 C555 1.327 . S
C553 C559 1.429 . S
C554 C546 1.574 . S
C554 H549 0.949 . S
C554 C560 1.368 . S
C555 C539 1.349 . S
C555 H547 0.950 . S
C555 C553 1.327 . S
C556 C544 1.349 . S
C556 H550 0.950 . S
C556 C557 1.327 . S
C557 H551 0.950 . S
C557 C556 1.327 . S
C557 C561 1.429 . S
C558 C541 1.574 . S
C558 H552 0.949 . S
C558 C562 1.368 . S
C559 C540 1.429 . S
C559 C553 1.429 . S
C559 C560 1.523 . S
C560 C541 1.368 . S
C560 C554 1.368 . S
C560 C559 1.523 . S
C561 C545 1.429 . S
C561 C557 1.429 . S
C561 C562 1.523 . S
C562 C546 1.368 . S
C562 C558 1.368 . S
C562 C561 1.523 . S
H563 C538 0.950 . S
H564 C540 0.950 . S
H565 C541 0.949 . S
H566 C543 0.950 . S
H567 C545 0.950 . S
C568 C569 1.349 . S
C568 C570 1.327 . S
C568 H593 0.950 . S
C569 C568 1.349 . S
C569 C585 1.349 . S
C570 C568 1.327 . S
C570 C589 1.429 . S
C570 H594 0.950 . S
C571 C588 1.574 . S
C571 C590 1.368 . S
C571 H595 0.949 . S
H572 C576 0.949 . S
C573 C574 1.349 . S
C573 C575 1.327 . S
C573 H596 0.950 . S
C574 C573 1.349 . S
C574 C586 1.349 . S
C575 C573 1.327 . S
C575 C591 1.429 . S
C575 H597 0.950 . S
C576 H572 0.949 . S
C576 C584 1.574 . S
C576 C592 1.368 . S
H577 C585 0.950 . S
H578 C583 0.950 . S
H579 C584 0.949 . S
H580 C586 0.950 . S
H581 C587 0.950 . S
H582 C588 0.949 . S
C583 H578 0.950 . S
C583 C585 1.327 . S
C583 C589 1.429 . S
C584 C576 1.574 . S
C584 H579 0.949 . S
C584 C590 1.368 . S
C585 C569 1.349 . S
C585 H577 0.950 . S
C585 C583 1.327 . S
C586 C574 1.349 . S
C586 H580 0.950 . S
C586 C587 1.327 . S
C587 H581 0.950 . S
C587 C586 1.327 . S
C587 C591 1.429 . S
C588 C571 1.574 . S
C588 H582 0.949 . S
C588 C592 1.368 . S
C589 C570 1.429 . S
C589 C583 1.429 . S
C589 C590 1.523 . S
C590 C571 1.368 . S
C590 C584 1.368 . S
C590 C589 1.523 . S
C591 C575 1.429 . S
C591 C587 1.429 . S
C591 C592 1.523 . S
C592 C576 1.368 . S
C592 C588 1.368 . S
C592 C591 1.523 . S
H593 C568 0.950 . S
H594 C570 0.950 . S
H595 C571 0.949 . S
H596 C573 0.950 . S
H597 C575 0.950 . S
C598 C599 1.349 . S
C598 C600 1.327 . S
C598 H623 0.950 . S
C599 C598 1.349 . S
C599 C615 1.349 . S
C600 C598 1.327 . S
C600 C619 1.429 . S
C600 H624 0.950 . S
C601 C618 1.574 . S
C601 C620 1.368 . S
C601 H625 0.949 . S
H602 C606 0.949 . S
C603 C604 1.349 . S
C603 C605 1.327 . S
C603 H626 0.950 . S
C604 C603 1.349 . S
C604 C616 1.349 . S
C605 C603 1.327 . S
C605 C621 1.429 . S
C605 H627 0.950 . S
C606 H602 0.949 . S
C606 C614 1.574 . S
C606 C622 1.368 . S
H607 C615 0.950 . S
H608 C613 0.950 . S
H609 C614 0.949 . S
H610 C616 0.950 . S
H611 C617 0.950 . S
H612 C618 0.949 . S
C613 H608 0.950 . S
C613 C615 1.327 . S
C613 C619 1.429 . S
C614 C606 1.574 . S
C614 H609 0.949 . S
C614 C620 1.368 . S
C615 C599 1.349 . S
C615 H607 0.950 . S
C615 C613 1.327 . S
C616 C604 1.349 . S
C616 H610 0.950 . S
C616 C617 1.327 . S
C617 H611 0.950 . S
C617 C616 1.327 . S
C617 C621 1.429 . S
C618 C601 1.574 . S
C618 H612 0.949 . S
C618 C622 1.368 . S
C619 C600 1.429 . S
C619 C613 1.429 . S
C619 C620 1.523 . S
C620 C601 1.368 . S
C620 C614 1.368 . S
C620 C619 1.523 . S
C621 C605 1.429 . S
C621 C617 1.429 . S
C621 C622 1.523 . S
C622 C606 1.368 . S
C622 C618 1.368 . S
C622 C621 1.523 . S
H623 C598 0.950 . S
H624 C600 0.950 . S
H625 C601 0.949 . S
H626 C603 0.950 . S
H627 C605 0.950 . S
C628 C629 1.349 . S
C628 C630 1.327 . S
C628 H653 0.950 . S
C629 C628 1.349 . S
C629 C645 1.349 . S
C630 C628 1.327 . S
C630 C649 1.429 . S
C630 H654 0.950 . S
C631 C648 1.574 . S
C631 C650 1.368 . S
C631 H655 0.949 . S
H632 C636 0.949 . S
C633 C634 1.349 . S
C633 C635 1.327 . S
C633 H656 0.950 . S
C634 C633 1.349 . S
C634 C646 1.349 . S
C635 C633 1.327 . S
C635 C651 1.429 . S
C635 H657 0.950 . S
C636 H632 0.949 . S
C636 C644 1.574 . S
C636 C652 1.368 . S
H637 C645 0.950 . S
H638 C643 0.950 . S
H639 C644 0.949 . S
H640 C646 0.950 . S
H641 C647 0.950 . S
H642 C648 0.949 . S
C643 H638 0.950 . S
C643 C645 1.327 . S
C643 C649 1.429 . S
C644 C636 1.574 . S
C644 H639 0.949 . S
C644 C650 1.368 . S
C645 C629 1.349 . S
C645 H637 0.950 . S
C645 C643 1.327 . S
C646 C634 1.349 . S
C646 H640 0.950 . S
C646 C647 1.327 . S
C647 H641 0.950 . S
C647 C646 1.327 . S
C647 C651 1.429 . S
C648 C631 1.574 . S
C648 H642 0.949 . S
C648 C652 1.368 . S
C649 C630 1.429 . S
C649 C643 1.429 . S
C649 C650 1.523 . S
C650 C631 1.368 . S
C650 C644 1.368 . S
C650 C649 1.523 . S
C651 C635 1.429 . S
C651 C647 1.429 . S
C651 C652 1.523 . S
C652 C636 1.368 . S
C652 C648 1.368 . S
C652 C651 1.523 . S
H653 C628 0.950 . S
H654 C630 0.950 . S
H655 C631 0.949 . S
H656 C633 0.950 . S
H657 C635 0.950 . S
C658 C659 1.349 . S
C658 C660 1.327 . S
C658 H683 0.950 . S
C659 C658 1.349 . S
C659 C675 1.349 . S
C660 C658 1.327 . S
C660 C679 1.429 . S
C660 H684 0.950 . S
C661 C678 1.574 . S
C661 C680 1.368 . S
C661 H685 0.949 . S
H662 C666 0.949 . S
C663 C664 1.349 . S
C663 C665 1.327 . S
C663 H686 0.950 . S
C664 C663 1.349 . S
C664 C676 1.349 . S
C665 C663 1.327 . S
C665 C681 1.429 . S
C665 H687 0.950 . S
C666 H662 0.949 . S
C666 C674 1.574 . S
C666 C682 1.368 . S
H667 C675 0.950 . S
H668 C673 0.950 . S
H669 C674 0.949 . S
H670 C676 0.950 . S
H671 C677 0.950 . S
H672 C678 0.949 . S
C673 H668 0.950 . S
C673 C675 1.327 . S
C673 C679 1.429 . S
C674 C666 1.574 . S
C674 H669 0.949 . S
C674 C680 1.368 . S
C675 C659 1.349 . S
C675 H667 0.950 . S
C675 C673 1.327 . S
C676 C664 1.349 . S
C676 H670 0.950 . S
C676 C677 1.327 . S
C677 H671 0.950 . S
C677 C676 1.327 . S
C677 C681 1.429 . S
C678 C661 1.574 . S
C678 H672 0.949 . S
C678 C682 1.368 . S
C679 C660 1.429 . S
C679 C673 1.429 . S
C679 C680 1.523 . S
C680 C661 1.368 . S
C680 C674 1.368 . S
C680 C679 1.523 . S
C681 C665 1.429 . S
C681 C677 1.429 . S
C681 C682 1.523 . S
C682 C666 1.368 . S
C682 C678 1.368 . S
C682 C681 1.523 . S
H683 C658 0.950 . S
H684 C660 0.950 . S
H685 C661 0.949 . S
H686 C663 0.950 . S
H687 C665 0.950 . S
C688 C689 1.349 . S
C688 C690 1.327 . S
C688 H713 0.950 . S
C689 C688 1.349 . S
C689 C705 1.349 . S
C690 C688 1.327 . S
C690 C709 1.429 . S
C690 H714 0.950 . S
C691 C708 1.574 . S
C691 C710 1.368 . S
C691 H715 0.949 . S
H692 C696 0.949 . S
C693 C694 1.349 . S
C693 C695 1.327 . S
C693 H716 0.950 . S
C694 C693 1.349 . S
C694 C706 1.349 . S
C695 C693 1.327 . S
C695 C711 1.429 . S
C695 H717 0.950 . S
C696 H692 0.949 . S
C696 C704 1.574 . S
C696 C712 1.368 . S
H697 C705 0.950 . S
H698 C703 0.950 . S
H699 C704 0.949 . S
H700 C706 0.950 . S
H701 C707 0.950 . S
H702 C708 0.949 . S
C703 H698 0.950 . S
C703 C705 1.327 . S
C703 C709 1.429 . S
C704 C696 1.574 . S
C704 H699 0.949 . S
C704 C710 1.368 . S
C705 C689 1.349 . S
C705 H697 0.950 . S
C705 C703 1.327 . S
C706 C694 1.349 . S
C706 H700 0.950 . S
C706 C707 1.327 . S
C707 H701 0.950 . S
C707 C706 1.327 . S
C707 C711 1.429 . S
C708 C691 1.574 . S
C708 H702 0.949 . S
C708 C712 1.368 . S
C709 C690 1.429 . S
C709 C703 1.429 . S
C709 C710 1.523 . S
C710 C691 1.368 . S
C710 C704 1.368 . S
C710 C709 1.523 . S
C711 C695 1.429 . S
C711 C707 1.429 . S
C711 C712 1.523 . S
C712 C696 1.368 . S
C712 C708 1.368 . S
C712 C711 1.523 . S
H713 C688 0.950 . S
H714 C690 0.950 . S
H715 C691 0.949 . S
H716 C693 0.950 . S
H717 C695 0.950 . S
C718 C719 1.349 . S
C718 C720 1.327 . S
C718 H743 0.950 . S
C719 C718 1.349 . S
C719 C735 1.349 . S
C720 C718 1.327 . S
C720 C739 1.429 . S
C720 H744 0.950 . S
C721 C738 1.574 . S
C721 C740 1.368 . S
C721 H745 0.949 . S
H722 C726 0.949 . S
C723 C724 1.349 . S
C723 C725 1.327 . S
C723 H746 0.950 . S
C724 C723 1.349 . S
C724 C736 1.349 . S
C725 C723 1.327 . S
C725 C741 1.429 . S
C725 H747 0.950 . S
C726 H722 0.949 . S
C726 C734 1.574 . S
C726 C742 1.368 . S
H727 C735 0.950 . S
H728 C733 0.950 . S
H729 C734 0.949 . S
H730 C736 0.950 . S
H731 C737 0.950 . S
H732 C738 0.949 . S
C733 H728 0.950 . S
C733 C735 1.327 . S
C733 C739 1.429 . S
C734 C726 1.574 . S
C734 H729 0.949 . S
C734 C740 1.368 . S
C735 C719 1.349 . S
C735 H727 0.950 . S
C735 C733 1.327 . S
C736 C724 1.349 . S
C736 H730 0.950 . S
C736 C737 1.327 . S
C737 H731 0.950 . S
C737 C736 1.327 . S
C737 C741 1.429 . S
C738 C721 1.574 . S
C738 H732 0.949 . S
C738 C742 1.368 . S
C739 C720 1.429 . S
C739 C733 1.429 . S
C739 C740 1.523 . S
C740 C721 1.368 . S
C740 C734 1.368 . S
C740 C739 1.523 . S
C741 C725 1.429 . S
C741 C737 1.429 . S
C741 C742 1.523 . S
C742 C726 1.368 . S
C742 C738 1.368 . S
C742 C741 1.523 . S
H743 C718 0.950 . S
H744 C720 0.950 . S
H745 C721 0.949 . S
H746 C723 0.950 . S
H747 C725 0.950 . S
C748 C749 1.349 . S
C748 C750 1.327 . S
C748 H773 0.950 . S
C749 C748 1.349 . S
C749 C765 1.349 . S
C750 C748 1.327 . S
C750 C769 1.429 . S
C750 H774 0.950 . S
C751 C768 1.574 . S
C751 C770 1.368 . S
C751 H775 0.949 . S
H752 C756 0.949 . S
C753 C754 1.349 . S
C753 C755 1.327 . S
C753 H776 0.950 . S
C754 C753 1.349 . S
C754 C766 1.349 . S
C755 C753 1.327 . S
C755 C771 1.429 . S
C755 H777 0.950 . S
C756 H752 0.949 . S
C756 C764 1.574 . S
C756 C772 1.368 . S
H757 C765 0.950 . S
H758 C763 0.950 . S
H759 C764 0.949 . S
H760 C766 0.950 . S
H761 C767 0.950 . S
H762 C768 0.949 . S
C763 H758 0.950 . S
C763 C765 1.327 . S
C763 C769 1.429 . S
C764 C756 1.574 . S
C764 H759 0.949 . S
C764 C770 1.368 . S
C765 C749 1.349 . S
C765 H757 0.950 . S
C765 C763 1.327 . S
C766 C754 1.349 . S
C766 H760 0.950 . S
C766 C767 1.327 . S
C767 H761 0.950 . S
C767 C766 1.327 . S
C767 C771 1.429 . S
C768 C751 1.574 . S
C768 H762 0.949 . S
C768 C772 1.368 . S
C769 C750 1.429 . S
C769 C763 1.429 . S
C769 C770 1.523 . S
C770 C751 1.368 . S
C770 C764 1.368 . S
C770 C769 1.523 . S
C771 C755 1.429 . S
C771 C767 1.429 . S
C771 C772 1.523 . S
C772 C756 1.368 . S
C772 C768 1.368 . S
C772 C771 1.523 . S
H773 C748 0.950 . S
H774 C750 0.950 . S
H775 C751 0.949 . S
H776 C753 0.950 . S
H777 C755 0.950 . S
C778 C779 1.349 . S
C778 C780 1.327 . S
C778 H803 0.950 . S
C779 C778 1.349 . S
C779 C795 1.349 . S
C780 C778 1.327 . S
C780 C799 1.429 . S
C780 H804 0.950 . S
C781 C798 1.574 . S
C781 C800 1.368 . S
C781 H805 0.949 . S
H782 C786 0.949 . S
C783 C784 1.349 . S
C783 C785 1.327 . S
C783 H806 0.950 . S
C784 C783 1.349 . S
C784 C796 1.349 . S
C785 C783 1.327 . S
C785 C801 1.429 . S
C785 H807 0.950 . S
C786 H782 0.949 . S
C786 C794 1.574 . S
C786 C802 1.368 . S
H787 C795 0.950 . S
H788 C793 0.950 . S
H789 C794 0.949 . S
H790 C796 0.950 . S
H791 C797 0.950 . S
H792 C798 0.949 . S
C793 H788 0.950 . S
C793 C795 1.327 . S
C793 C799 1.429 . S
C794 C786 1.574 . S
C794 H789 0.949 . S
C794 C800 1.368 . S
C795 C779 1.349 . S
C795 H787 0.950 . S
C795 C793 1.327 . S
C796 C784 1.349 . S
C796 H790 0.950 . S
C796 C797 1.327 . S
C797 H791 0.950 . S
C797 C796 1.327 . S
C797 C801 1.429 . S
C798 C781 1.574 . S
C798 H792 0.949 . S
C798 C802 1.368 . S
C799 C780 1.429 . S
C799 C793 1.429 . S
C799 C800 1.523 . S
C800 C781 1.368 . S
C800 C794 1.368 . S
C800 C799 1.523 . S
C801 C785 1.429 . S
C801 C797 1.429 . S
C801 C802 1.523 . S
C802 C786 1.368 . S
C802 C798 1.368 . S
C802 C801 1.523 . S
H803 C778 0.950 . S
H804 C780 0.950 . S
H805 C781 0.949 . S
H806 C783 0.950 . S
H807 C785 0.950 . S
C808 C809 1.349 . S
C808 C810 1.327 . S
C808 H833 0.950 . S
C809 C808 1.349 . S
C809 C825 1.349 . S
C810 C808 1.327 . S
C810 C829 1.429 . S
C810 H834 0.950 . S
C811 C828 1.574 . S
C811 C830 1.368 . S
C811 H835 0.949 . S
H812 C816 0.949 . S
C813 C814 1.349 . S
C813 C815 1.327 . S
C813 H836 0.950 . S
C814 C813 1.349 . S
C814 C826 1.349 . S
C815 C813 1.327 . S
C815 C831 1.429 . S
C815 H837 0.950 . S
C816 H812 0.949 . S
C816 C824 1.574 . S
C816 C832 1.368 . S
H817 C825 0.950 . S
H818 C823 0.950 . S
H819 C824 0.949 . S
H820 C826 0.950 . S
H821 C827 0.950 . S
H822 C828 0.949 . S
C823 H818 0.950 . S
C823 C825 1.327 . S
C823 C829 1.429 . S
C824 C816 1.574 . S
C824 H819 0.949 . S
C824 C830 1.368 . S
C825 C809 1.349 . S
C825 H817 0.950 . S
C825 C823 1.327 . S
C826 C814 1.349 . S
C826 H820 0.950 . S
C826 C827 1.327 . S
C827 H821 0.950 . S
C827 C826 1.327 . S
C827 C831 1.429 . S
C828 C811 1.574 . S
C828 H822 0.949 . S
C828 C832 1.368 . S
C829 C810 1.429 . S
C829 C823 1.429 . S
C829 C830 1.523 . S
C830 C811 1.368 . S
C830 C824 1.368 . S
C830 C829 1.523 . S
C831 C815 1.429 . S
C831 C827 1.429 . S
C831 C832 1.523 . S
C832 C816 1.368 . S
C832 C828 1.368 . S
C832 C831 1.523 . S
H833 C808 0.950 . S
H834 C810 0.950 . S
H835 C811 0.949 . S
H836 C813 0.950 . S
H837 C815 0.950 . S
C838 C839 1.349 . S
C838 C840 1.327 . S
C838 H863 0.950 . S
C839 C838 1.349 . S
C839 C855 1.349 . S
C840 C838 1.327 . S
C840 C859 1.429 . S
C840 H864 0.950 . S
C841 C858 1.574 . S
C841 C860 1.368 . S
C841 H865 0.949 . S
H842 C846 0.949 . S
C843 C844 1.349 . S
C843 C845 1.327 . S
C843 H866 0.950 . S
C844 C843 1.349 . S
C844 C856 1.349 . S
C845 C843 1.327 . S
C845 C861 1.429 . S
C845 H867 0.950 . S
C846 H842 0.949 . S
C846 C854 1.574 . S
C846 C862 1.368 . S
H847 C855 0.950 . S
H848 C853 0.950 . S
H849 C854 0.949 . S
H850 C856 0.950 . S
H851 C857 0.950 . S
H852 C858 0.949 . S
C853 H848 0.950 . S
C853 C855 1.327 . S
C853 C859 1.429 . S
C854 C846 1.574 . S
C854 H849 0.949 . S
C854 C860 1.368 . S
C855 C839 1.349 . S
C855 H847 0.950 . S
C855 C853 1.327 . S
C856 C844 1.349 . S
C856 H850 0.950 . S
C856 C857 1.327 . S
C857 H851 0.950 . S
C857 C856 1.327 . S
C857 C861 1.429 . S
C858 C841 1.574 . S
C858 H852 0.949 . S
C858 C862 1.368 . S
C859 C840 1.429 . S
C859 C853 1.429 . S
C859 C860 1.523 . S
C860 C841 1.368 . S
C860 C854 1.368 . S
C860 C859 1.523 . S
C861 C845 1.429 . S
C861 C857 1.429 . S
C861 C862 1.523 . S
C862 C846 1.368 . S
C862 C858 1.368 . S
C862 C861 1.523 . S
H863 C838 0.950 . S
H864 C840 0.950 . S
H865 C841 0.949 . S
H866 C843 0.950 . S
H867 C845 0.950 . S
C868 C869 1.349 . S
C868 C870 1.327 . S
C868 H893 0.950 . S
C869 C868 1.349 . S
C869 C885 1.349 . S
C870 C868 1.327 . S
C870 C889 1.429 . S
C870 H894 0.950 . S
C871 C888 1.574 . S
C871 C890 1.368 . S
C871 H895 0.949 . S
H872 C876 0.949 . S
C873 C874 1.349 . S
C873 C875 1.327 . S
C873 H896 0.950 . S
C874 C873 1.349 . S
C874 C886 1.349 . S
C875 C873 1.327 . S
C875 C891 1.429 . S
C875 H897 0.950 . S
C876 H872 0.949 . S
C876 C884 1.574 . S
C876 C892 1.368 . S
H877 C885 0.950 . S
H878 C883 0.950 . S
H879 C884 0.949 . S
H880 C886 0.950 . S
H881 C887 0.950 . S
H882 C888 0.949 . S
C883 H878 0.950 . S
C883 C885 1.327 . S
C883 C889 1.429 . S
C884 C876 1.574 . S
C884 H879 0.949 . S
C884 C890 1.368 . S
C885 C869 1.349 . S
C885 H877 0.950 . S
C885 C883 1.327 . S
C886 C874 1.349 . S
C886 H880 0.950 . S
C886 C887 1.327 . S
C887 H881 0.950 . S
C887 C886 1.327 . S
C887 C891 1.429 . S
C888 C871 1.574 . S
C888 H882 0.949 . S
C888 C892 1.368 . S
C889 C870 1.429 . S
C889 C883 1.429 . S
C889 C890 1.523 . S
C890 C871 1.368 . S
C890 C884 1.368 . S
C890 C889 1.523 . S
C891 C875 1.429 . S
C891 C887 1.429 . S
C891 C892 1.523 . S
C892 C876 1.368 . S
C892 C888 1.368 . S
C892 C891 1.523 . S
H893 C868 0.950 . S
H894 C870 0.950 . S
H895 C871 0.949 . S
H896 C873 0.950 . S
H897 C875 0.950 . S
C898 C899 1.349 . S
C898 C900 1.327 . S
C898 H923 0.950 . S
C899 C898 1.349 . S
C899 C915 1.349 . S
C900 C898 1.327 . S
C900 C919 1.429 . S
C900 H924 0.950 . S
C901 C918 1.574 . S
C901 C920 1.368 . S
C901 H925 0.949 . S
H902 C906 0.949 . S
C903 C904 1.349 . S
C903 C905 1.327 . S
C903 H926 0.950 . S
C904 C903 1.349 . S
C904 C916 1.349 . S
C905 C903 1.327 . S
C905 C921 1.429 . S
C905 H927 0.950 . S
C906 H902 0.949 . S
C906 C914 1.574 . S
C906 C922 1.368 . S
H907 C915 0.950 . S
H908 C913 0.950 . S
H909 C914 0.949 . S
H910 C916 0.950 . S
H911 C917 0.950 . S
H912 C918 0.949 . S
C913 H908 0.950 . S
C913 C915 1.327 . S
C913 C919 1.429 . S
C914 C906 1.574 . S
C914 H909 0.949 . S
C914 C920 1.368 . S
C915 C899 1.349 . S
C915 H907 0.950 . S
C915 C913 1.327 . S
C916 C904 1.349 . S
C916 H910 0.950 . S
C916 C917 1.327 . S
C917 H911 0.950 . S
C917 C916 1.327 . S
C917 C921 1.429 . S
C918 C901 1.574 . S
C918 H912 0.949 . S
C918 C922 1.368 . S
C919 C900 1.429 . S
C919 C913 1.429 . S
C919 C920 1.523 . S
C920 C901 1.368 . S
C920 C914 1.368 . S
C920 C919 1.523 . S
C921 C905 1.429 . S
C921 C917 1.429 . S
C921 C922 1.523 . S
C922 C906 1.368 . S
C922 C918 1.368 . S
C922 C921 1.523 . S
H923 C898 0.950 . S
H924 C900 0.950 . S
H925 C901 0.949 . S
H926 C903 0.950 . S
H927 C905 0.950 . S
C928 C929 1.349 . S
C928 C930 1.327 . S
C928 H953 0.950 . S
C929 C928 1.349 . S
C929 C945 1.349 . S
C930 C928 1.327 . S
C930 C949 1.429 . S
C930 H954 0.950 . S
C931 C948 1.574 . S
C931 C950 1.368 . S
C931 H955 0.949 . S
H932 C936 0.949 . S
C933 C934 1.349 . S
C933 C935 1.327 . S
C933 H956 0.950 . S
C934 C933 1.349 . S
C934 C946 1.349 . S
C935 C933 1.327 . S
C935 C951 1.429 . S
C935 H957 0.950 . S
C936 H932 0.949 . S
C936 C944 1.574 . S
C936 C952 1.368 . S
H937 C945 0.950 . S
H938 C943 0.950 . S
H939 C944 0.949 . S
H940 C946 0.950 . S
H941 C947 0.950 . S
H942 C948 0.949 . S
C943 H938 0.950 . S
C943 C945 1.327 . S
C943 C949 1.429 . S
C944 C936 1.574 . S
C944 H939 0.949 . S
C944 C950 1.368 . S
C945 C929 1.349 . S
C945 H937 0.950 . S
C945 C943 1.327 . S
C946 C934 1.349 . S
C946 H940 0.950 . S
C946 C947 1.327 . S
C947 H941 0.950 . S
C947 C946 1.327 . S
C947 C951 1.429 . S
C948 C931 1.574 . S
C948 H942 0.949 . S
C948 C952 1.368 . S
C949 C930 1.429 . S
C949 C943 1.429 . S
C949 C950 1.523 . S
C950 C931 1.368 . S
C950 C944 1.368 . S
C950 C949 1.523 . S
C951 C935 1.429 . S
C951 C947 1.429 . S
C951 C952 1.523 . S
C952 C936 1.368 . S
C952 C948 1.368 . S
C952 C951 1.523 . S
H953 C928 0.950 . S
H954 C930 0.950 . S
H955 C931 0.949 . S
H956 C933 0.950 . S
H957 C935 0.950 . S
C958 C959 1.349 . S
C958 C960 1.327 1_455 S
C958 H983 0.950 . S
C959 C958 1.349 . S
C959 C975 1.349 . S
C960 C958 1.327 1_655 S
C960 C979 1.429 . S
C960 H984 0.950 . S
C961 C978 1.574 . S
C961 C980 1.368 . S
C961 H985 0.949 . S
H962 C966 0.949 . S
C963 C964 1.349 . S
C963 C965 1.327 . S
C963 H986 0.950 . S
C964 C963 1.349 . S
C964 C976 1.349 . S
C965 C963 1.327 . S
C965 C981 1.429 . S
C965 H987 0.950 . S
C966 H962 0.949 . S
C966 C974 1.574 . S
C966 C982 1.368 . S
H967 C975 0.950 . S
H968 C973 0.950 . S
H969 C974 0.949 . S
H970 C976 0.950 . S
H971 C977 0.950 . S
H972 C978 0.949 . S
C973 H968 0.950 . S
C973 C975 1.327 1_655 S
C973 C979 1.429 . S
C974 C966 1.574 . S
C974 H969 0.949 . S
C974 C980 1.368 . S
C975 C959 1.349 . S
C975 H967 0.950 . S
C975 C973 1.327 1_455 S
C976 C964 1.349 . S
C976 H970 0.950 . S
C976 C977 1.327 . S
C977 H971 0.950 . S
C977 C976 1.327 . S
C977 C981 1.429 . S
C978 C961 1.574 . S
C978 H972 0.949 . S
C978 C982 1.368 . S
C979 C960 1.429 . S
C979 C973 1.429 . S
C979 C980 1.523 . S
C980 C961 1.368 . S
C980 C974 1.368 . S
C980 C979 1.523 . S
C981 C965 1.429 . S
C981 C977 1.429 . S
C981 C982 1.523 . S
C982 C966 1.368 . S
C982 C978 1.368 . S
C982 C981 1.523 . S
H983 C958 0.950 . S
H984 C960 0.950 . S
H985 C961 0.949 . S
H986 C963 0.950 . S
H987 C965 0.950 . S
C988 C989 1.349 . S
C988 C990 1.327 . S
C988 H1013 0.950 . S
C989 C988 1.349 . S
C989 C1005 1.349 . S
C990 C988 1.327 . S
C990 C1009 1.429 . S
C990 H1014 0.950 . S
C991 C1008 1.574 . S
C991 C1010 1.368 . S
C991 H1015 0.949 . S
H992 C996 0.949 . S
C993 C994 1.349 . S
C993 C995 1.327 . S
C993 H1016 0.950 . S
C994 C993 1.349 . S
C994 C1006 1.349 . S
C995 C993 1.327 . S
C995 C1011 1.429 . S
C995 H1017 0.950 . S
C996 H992 0.949 . S
C996 C1004 1.574 . S
C996 C1012 1.368 . S
H997 C1005 0.950 . S
H998 C1003 0.950 . S
H999 C1004 0.949 . S
H1000 C1006 0.950 . S
H1001 C1007 0.950 . S
H1002 C1008 0.949 . S
C1003 H998 0.950 . S
C1003 C1005 1.327 . S
C1003 C1009 1.429 . S
C1004 C996 1.574 . S
C1004 H999 0.949 . S
C1004 C1010 1.368 . S
C1005 C989 1.349 . S
C1005 H997 0.950 . S
C1005 C1003 1.327 . S
C1006 C994 1.349 . S
C1006 H1000 0.950 . S
C1006 C1007 1.327 . S
C1007 H1001 0.950 . S
C1007 C1006 1.327 . S
C1007 C1011 1.429 . S
C1008 C991 1.574 . S
C1008 H1002 0.949 . S
C1008 C1012 1.368 . S
C1009 C990 1.429 . S
C1009 C1003 1.429 . S
C1009 C1010 1.523 . S
C1010 C991 1.368 . S
C1010 C1004 1.368 . S
C1010 C1009 1.523 . S
C1011 C995 1.429 . S
C1011 C1007 1.429 . S
C1011 C1012 1.523 . S
C1012 C996 1.368 . S
C1012 C1008 1.368 . S
C1012 C1011 1.523 . S
H1013 C988 0.950 . S
H1014 C990 0.950 . S
H1015 C991 0.949 . S
H1016 C993 0.950 . S
H1017 C995 0.950 . S
C1018 C1019 1.349 . S
C1018 C1020 1.327 . S
C1018 H1043 0.950 . S
C1019 C1018 1.349 . S
C1019 C1035 1.349 . S
C1020 C1018 1.327 . S
C1020 C1039 1.429 . S
C1020 H1044 0.950 . S
C1021 C1038 1.574 . S
C1021 C1040 1.368 . S
C1021 H1045 0.949 . S
H1022 C1026 0.949 . S
C1023 C1024 1.349 . S
C1023 C1025 1.327 1_455 S
C1023 H1046 0.950 . S
C1024 C1023 1.349 . S
C1024 C1036 1.349 . S
C1025 C1023 1.327 1_655 S
C1025 C1041 1.429 . S
C1025 H1047 0.950 . S
C1026 H1022 0.949 . S
C1026 C1034 1.574 . S
C1026 C1042 1.368 . S
H1027 C1035 0.950 . S
H1028 C1033 0.950 . S
H1029 C1034 0.949 . S
H1030 C1036 0.950 . S
H1031 C1037 0.950 . S
H1032 C1038 0.949 . S
C1033 H1028 0.950 . S
C1033 C1035 1.327 . S
C1033 C1039 1.429 . S
C1034 C1026 1.574 . S
C1034 H1029 0.949 . S
C1034 C1040 1.368 . S
C1035 C1019 1.349 . S
C1035 H1027 0.950 . S
C1035 C1033 1.327 . S
C1036 C1024 1.349 . S
C1036 H1030 0.950 . S
C1036 C1037 1.327 1_455 S
C1037 H1031 0.950 . S
C1037 C1036 1.327 1_655 S
C1037 C1041 1.429 . S
C1038 C1021 1.574 . S
C1038 H1032 0.949 . S
C1038 C1042 1.368 . S
C1039 C1020 1.429 . S
C1039 C1033 1.429 . S
C1039 C1040 1.523 . S
C1040 C1021 1.368 . S
C1040 C1034 1.368 . S
C1040 C1039 1.523 . S
C1041 C1025 1.429 . S
C1041 C1037 1.429 . S
C1041 C1042 1.523 . S
C1042 C1026 1.368 . S
C1042 C1038 1.368 . S
C1042 C1041 1.523 . S
H1043 C1018 0.950 . S
H1044 C1020 0.950 . S
H1045 C1021 0.949 . S
H1046 C1023 0.950 . S
H1047 C1025 0.950 . S
C1048 C1049 1.349 . S
C1048 C1050 1.327 . S
C1048 H1073 0.950 . S
C1049 C1048 1.349 . S
C1049 C1065 1.349 . S
C1050 C1048 1.327 . S
C1050 C1069 1.429 . S
C1050 H1074 0.950 . S
C1051 C1068 1.574 . S
C1051 C1070 1.368 . S
C1051 H1075 0.949 . S
H1052 C1056 0.949 . S
C1053 C1054 1.349 . S
C1053 C1055 1.327 . S
C1053 H1076 0.950 . S
C1054 C1053 1.349 . S
C1054 C1066 1.349 . S
C1055 C1053 1.327 . S
C1055 C1071 1.429 . S
C1055 H1077 0.950 . S
C1056 H1052 0.949 . S
C1056 C1064 1.574 . S
C1056 C1072 1.368 . S
H1057 C1065 0.950 . S
H1058 C1063 0.950 . S
H1059 C1064 0.949 . S
H1060 C1066 0.950 . S
H1061 C1067 0.950 . S
H1062 C1068 0.949 . S
C1063 H1058 0.950 . S
C1063 C1065 1.327 . S
C1063 C1069 1.429 . S
C1064 C1056 1.574 . S
C1064 H1059 0.949 . S
C1064 C1070 1.368 . S
C1065 C1049 1.349 . S
C1065 H1057 0.950 . S
C1065 C1063 1.327 . S
C1066 C1054 1.349 . S
C1066 H1060 0.950 . S
C1066 C1067 1.327 . S
C1067 H1061 0.950 . S
C1067 C1066 1.327 . S
C1067 C1071 1.429 . S
C1068 C1051 1.574 . S
C1068 H1062 0.949 . S
C1068 C1072 1.368 . S
C1069 C1050 1.429 . S
C1069 C1063 1.429 . S
C1069 C1070 1.523 . S
C1070 C1051 1.368 . S
C1070 C1064 1.368 . S
C1070 C1069 1.523 . S
C1071 C1055 1.429 . S
C1071 C1067 1.429 . S
C1071 C1072 1.523 . S
C1072 C1056 1.368 . S
C1072 C1068 1.368 . S
C1072 C1071 1.523 . S
H1073 C1048 0.950 . S
H1074 C1050 0.950 . S
H1075 C1051 0.949 . S
H1076 C1053 0.950 . S
H1077 C1055 0.950 . S
C1078 C1079 1.349 . S
C1078 C1080 1.327 1_655 S
C1078 H1103 0.950 . S
C1079 C1078 1.349 . S
C1079 C1095 1.349 . S
C1080 C1078 1.327 1_455 S
C1080 C1099 1.429 . S
C1080 H1104 0.950 . S
C1081 C1098 1.574 . S
C1081 C1100 1.368 . S
C1081 H1105 0.949 . S
H1082 C1086 0.949 . S
C1083 C1084 1.349 . S
C1083 C1085 1.327 . S
C1083 H1106 0.950 . S
C1084 C1083 1.349 . S
C1084 C1096 1.349 . S
C1085 C1083 1.327 . S
C1085 C1101 1.429 . S
C1085 H1107 0.950 . S
C1086 H1082 0.949 . S
C1086 C1094 1.574 . S
C1086 C1102 1.368 . S
H1087 C1095 0.950 . S
H1088 C1093 0.950 . S
H1089 C1094 0.949 . S
H1090 C1096 0.950 . S
H1091 C1097 0.950 . S
H1092 C1098 0.949 . S
C1093 H1088 0.950 . S
C1093 C1095 1.327 1_455 S
C1093 C1099 1.429 . S
C1094 C1086 1.574 . S
C1094 H1089 0.949 . S
C1094 C1100 1.368 . S
C1095 C1079 1.349 . S
C1095 H1087 0.950 . S
C1095 C1093 1.327 1_655 S
C1096 C1084 1.349 . S
C1096 H1090 0.950 . S
C1096 C1097 1.327 . S
C1097 H1091 0.950 . S
C1097 C1096 1.327 . S
C1097 C1101 1.429 . S
C1098 C1081 1.574 . S
C1098 H1092 0.949 . S
C1098 C1102 1.368 . S
C1099 C1080 1.429 . S
C1099 C1093 1.429 . S
C1099 C1100 1.523 . S
C1100 C1081 1.368 . S
C1100 C1094 1.368 . S
C1100 C1099 1.523 . S
C1101 C1085 1.429 . S
C1101 C1097 1.429 . S
C1101 C1102 1.523 . S
C1102 C1086 1.368 . S
C1102 C1098 1.368 . S
C1102 C1101 1.523 . S
H1103 C1078 0.950 . S
H1104 C1080 0.950 . S
H1105 C1081 0.949 . S
H1106 C1083 0.950 . S
H1107 C1085 0.950 . S
C1108 C1109 1.349 . S
C1108 C1110 1.327 . S
C1108 H1133 0.950 . S
C1109 C1108 1.349 . S
C1109 C1125 1.349 . S
C1110 C1108 1.327 . S
C1110 C1129 1.429 . S
C1110 H1134 0.950 . S
C1111 C1128 1.574 . S
C1111 C1130 1.368 . S
C1111 H1135 0.949 . S
H1112 C1116 0.949 . S
C1113 C1114 1.349 . S
C1113 C1115 1.327 . S
C1113 H1136 0.950 . S
C1114 C1113 1.349 . S
C1114 C1126 1.349 . S
C1115 C1113 1.327 . S
C1115 C1131 1.429 . S
C1115 H1137 0.950 . S
C1116 H1112 0.949 . S
C1116 C1124 1.574 . S
C1116 C1132 1.368 . S
H1117 C1125 0.950 . S
H1118 C1123 0.950 . S
H1119 C1124 0.949 . S
H1120 C1126 0.950 . S
H1121 C1127 0.950 . S
H1122 C1128 0.949 . S
C1123 H1118 0.950 . S
C1123 C1125 1.327 . S
C1123 C1129 1.429 . S
C1124 C1116 1.574 . S
C1124 H1119 0.949 . S
C1124 C1130 1.368 . S
C1125 C1109 1.349 . S
C1125 H1117 0.950 . S
C1125 C1123 1.327 . S
C1126 C1114 1.349 . S
C1126 H1120 0.950 . S
C1126 C1127 1.327 . S
C1127 H1121 0.950 . S
C1127 C1126 1.327 . S
C1127 C1131 1.429 . S
C1128 C1111 1.574 . S
C1128 H1122 0.949 . S
C1128 C1132 1.368 . S
C1129 C1110 1.429 . S
C1129 C1123 1.429 . S
C1129 C1130 1.523 . S
C1130 C1111 1.368 . S
C1130 C1124 1.368 . S
C1130 C1129 1.523 . S
C1131 C1115 1.429 . S
C1131 C1127 1.429 . S
C1131 C1132 1.523 . S
C1132 C1116 1.368 . S
C1132 C1128 1.368 . S
C1132 C1131 1.523 . S
H1133 C1108 0.950 . S
H1134 C1110 0.950 . S
H1135 C1111 0.949 . S
H1136 C1113 0.950 . S
H1137 C1115 0.950 . S
C1138 C1139 1.349 . S
C1138 C1140 1.327 1_655 S
C1138 H1163 0.950 . S
C1139 C1138 1.349 . S
C1139 C1155 1.349 . S
C1140 C1138 1.327 1_455 S
C1140 C1159 1.429 . S
C1140 H1164 0.950 . S
C1141 C1158 1.574 . S
C1141 C1160 1.368 . S
C1141 H1165 0.949 . S
H1142 C1146 0.949 . S
C1143 C1144 1.349 . S
C1143 C1145 1.327 . S
C1143 H1166 0.950 . S
C1144 C1143 1.349 . S
C1144 C1156 1.349 . S
C1145 C1143 1.327 . S
C1145 C1161 1.429 . S
C1145 H1167 0.950 . S
C1146 H1142 0.949 . S
C1146 C1154 1.574 . S
C1146 C1162 1.368 . S
H1147 C1155 0.950 . S
H1148 C1153 0.950 . S
H1149 C1154 0.949 . S
H1150 C1156 0.950 . S
H1151 C1157 0.950 . S
H1152 C1158 0.949 . S
C1153 H1148 0.950 . S
C1153 C1155 1.327 1_455 S
C1153 C1159 1.429 . S
C1154 C1146 1.574 . S
C1154 H1149 0.949 . S
C1154 C1160 1.368 . S
C1155 C1139 1.349 . S
C1155 H1147 0.950 . S
C1155 C1153 1.327 1_655 S
C1156 C1144 1.349 . S
C1156 H1150 0.950 . S
C1156 C1157 1.327 . S
C1157 H1151 0.950 . S
C1157 C1156 1.327 . S
C1157 C1161 1.429 . S
C1158 C1141 1.574 . S
C1158 H1152 0.949 . S
C1158 C1162 1.368 . S
C1159 C1140 1.429 . S
C1159 C1153 1.429 . S
C1159 C1160 1.523 . S
C1160 C1141 1.368 . S
C1160 C1154 1.368 . S
C1160 C1159 1.523 . S
C1161 C1145 1.429 . S
C1161 C1157 1.429 . S
C1161 C1162 1.523 . S
C1162 C1146 1.368 . S
C1162 C1158 1.368 . S
C1162 C1161 1.523 . S
H1163 C1138 0.950 . S
H1164 C1140 0.950 . S
H1165 C1141 0.949 . S
H1166 C1143 0.950 . S
H1167 C1145 0.950 . S
C1168 C1169 1.349 . S
C1168 C1170 1.327 . S
C1168 H1193 0.950 . S
C1169 C1168 1.349 . S
C1169 C1185 1.349 . S
C1170 C1168 1.327 . S
C1170 C1189 1.429 . S
C1170 H1194 0.950 . S
C1171 C1188 1.574 . S
C1171 C1190 1.368 . S
C1171 H1195 0.949 . S
H1172 C1176 0.949 . S
C1173 C1174 1.349 . S
C1173 C1175 1.327 . S
C1173 H1196 0.950 . S
C1174 C1173 1.349 . S
C1174 C1186 1.349 . S
C1175 C1173 1.327 . S
C1175 C1191 1.429 . S
C1175 H1197 0.950 . S
C1176 H1172 0.949 . S
C1176 C1184 1.574 . S
C1176 C1192 1.368 . S
H1177 C1185 0.950 . S
H1178 C1183 0.950 . S
H1179 C1184 0.949 . S
H1180 C1186 0.950 . S
H1181 C1187 0.950 . S
H1182 C1188 0.949 . S
C1183 H1178 0.950 . S
C1183 C1185 1.327 . S
C1183 C1189 1.429 . S
C1184 C1176 1.574 . S
C1184 H1179 0.949 . S
C1184 C1190 1.368 . S
C1185 C1169 1.349 . S
C1185 H1177 0.950 . S
C1185 C1183 1.327 . S
C1186 C1174 1.349 . S
C1186 H1180 0.950 . S
C1186 C1187 1.327 . S
C1187 H1181 0.950 . S
C1187 C1186 1.327 . S
C1187 C1191 1.429 . S
C1188 C1171 1.574 . S
C1188 H1182 0.949 . S
C1188 C1192 1.368 . S
C1189 C1170 1.429 . S
C1189 C1183 1.429 . S
C1189 C1190 1.523 . S
C1190 C1171 1.368 . S
C1190 C1184 1.368 . S
C1190 C1189 1.523 . S
C1191 C1175 1.429 . S
C1191 C1187 1.429 . S
C1191 C1192 1.523 . S
C1192 C1176 1.368 . S
C1192 C1188 1.368 . S
C1192 C1191 1.523 . S
H1193 C1168 0.950 . S
H1194 C1170 0.950 . S
H1195 C1171 0.949 . S
H1196 C1173 0.950 . S
H1197 C1175 0.950 . S
C1198 C1199 1.349 . S
C1198 C1200 1.327 . S
C1198 H1223 0.950 . S
C1199 C1198 1.349 . S
C1199 C1215 1.349 . S
C1200 C1198 1.327 . S
C1200 C1219 1.429 . S
C1200 H1224 0.950 . S
C1201 C1218 1.574 . S
C1201 C1220 1.368 . S
C1201 H1225 0.949 . S
H1202 C1206 0.949 . S
C1203 C1204 1.349 . S
C1203 C1205 1.327 1_455 S
C1203 H1226 0.950 . S
C1204 C1203 1.349 . S
C1204 C1216 1.349 . S
C1205 C1203 1.327 1_655 S
C1205 C1221 1.429 . S
C1205 H1227 0.950 . S
C1206 H1202 0.949 . S
C1206 C1214 1.574 . S
C1206 C1222 1.368 . S
H1207 C1215 0.950 . S
H1208 C1213 0.950 . S
H1209 C1214 0.949 . S
H1210 C1216 0.950 . S
H1211 C1217 0.950 . S
H1212 C1218 0.949 . S
C1213 H1208 0.950 . S
C1213 C1215 1.327 . S
C1213 C1219 1.429 . S
C1214 C1206 1.574 . S
C1214 H1209 0.949 . S
C1214 C1220 1.368 . S
C1215 C1199 1.349 . S
C1215 H1207 0.950 . S
C1215 C1213 1.327 . S
C1216 C1204 1.349 . S
C1216 H1210 0.950 . S
C1216 C1217 1.327 1_455 S
C1217 H1211 0.950 . S
C1217 C1216 1.327 1_655 S
C1217 C1221 1.429 . S
C1218 C1201 1.574 . S
C1218 H1212 0.949 . S
C1218 C1222 1.368 . S
C1219 C1200 1.429 . S
C1219 C1213 1.429 . S
C1219 C1220 1.523 . S
C1220 C1201 1.368 . S
C1220 C1214 1.368 . S
C1220 C1219 1.523 . S
C1221 C1205 1.429 . S
C1221 C1217 1.429 . S
C1221 C1222 1.523 . S
C1222 C1206 1.368 . S
C1222 C1218 1.368 . S
C1222 C1221 1.523 . S
H1223 C1198 0.950 . S
H1224 C1200 0.950 . S
H1225 C1201 0.949 . S
H1226 C1203 0.950 . S
H1227 C1205 0.950 . S
C1228 C1229 1.349 . S
C1228 C1230 1.327 . S
C1228 H1253 0.950 . S
C1229 C1228 1.349 . S
C1229 C1245 1.349 . S
C1230 C1228 1.327 . S
C1230 C1249 1.429 . S
C1230 H1254 0.950 . S
C1231 C1248 1.574 . S
C1231 C1250 1.368 . S
C1231 H1255 0.949 . S
H1232 C1236 0.949 . S
C1233 C1234 1.349 . S
C1233 C1235 1.327 . S
C1233 H1256 0.950 . S
C1234 C1233 1.349 . S
C1234 C1246 1.349 . S
C1235 C1233 1.327 . S
C1235 C1251 1.429 . S
C1235 H1257 0.950 . S
C1236 H1232 0.949 . S
C1236 C1244 1.574 . S
C1236 C1252 1.368 . S
H1237 C1245 0.950 . S
H1238 C1243 0.950 . S
H1239 C1244 0.949 . S
H1240 C1246 0.950 . S
H1241 C1247 0.950 . S
H1242 C1248 0.949 . S
C1243 H1238 0.950 . S
C1243 C1245 1.327 . S
C1243 C1249 1.429 . S
C1244 C1236 1.574 . S
C1244 H1239 0.949 . S
C1244 C1250 1.368 . S
C1245 C1229 1.349 . S
C1245 H1237 0.950 . S
C1245 C1243 1.327 . S
C1246 C1234 1.349 . S
C1246 H1240 0.950 . S
C1246 C1247 1.327 . S
C1247 H1241 0.950 . S
C1247 C1246 1.327 . S
C1247 C1251 1.429 . S
C1248 C1231 1.574 . S
C1248 H1242 0.949 . S
C1248 C1252 1.368 . S
C1249 C1230 1.429 . S
C1249 C1243 1.429 . S
C1249 C1250 1.523 . S
C1250 C1231 1.368 . S
C1250 C1244 1.368 . S
C1250 C1249 1.523 . S
C1251 C1235 1.429 . S
C1251 C1247 1.429 . S
C1251 C1252 1.523 . S
C1252 C1236 1.368 . S
C1252 C1248 1.368 . S
C1252 C1251 1.523 . S
H1253 C1228 0.950 . S
H1254 C1230 0.950 . S
H1255 C1231 0.949 . S
H1256 C1233 0.950 . S
H1257 C1235 0.950 . S
C1258 C1259 1.349 . S
C1258 C1260 1.327 . S
C1258 H1283 0.950 . S
C1259 C1258 1.349 . S
C1259 C1275 1.349 . S
C1260 C1258 1.327 . S
C1260 C1279 1.429 . S
C1260 H1284 0.950 . S
C1261 C1278 1.574 . S
C1261 C1280 1.368 . S
C1261 H1285 0.949 . S
H1262 C1266 0.949 . S
C1263 C1264 1.349 . S
C1263 C1265 1.327 1_455 S
C1263 H1286 0.950 . S
C1264 C1263 1.349 . S
C1264 C1276 1.349 . S
C1265 C1263 1.327 1_655 S
C1265 C1281 1.429 . S
C1265 H1287 0.950 . S
C1266 H1262 0.949 . S
C1266 C1274 1.574 . S
C1266 C1282 1.368 . S
H1267 C1275 0.950 . S
H1268 C1273 0.950 . S
H1269 C1274 0.949 . S
H1270 C1276 0.950 . S
H1271 C1277 0.950 . S
H1272 C1278 0.949 . S
C1273 H1268 0.950 . S
C1273 C1275 1.327 . S
C1273 C1279 1.429 . S
C1274 C1266 1.574 . S
C1274 H1269 0.949 . S
C1274 C1280 1.368 . S
C1275 C1259 1.349 . S
C1275 H1267 0.950 . S
C1275 C1273 1.327 . S
C1276 C1264 1.349 . S
C1276 H1270 0.950 . S
C1276 C1277 1.327 1_455 S
C1277 H1271 0.950 . S
C1277 C1276 1.327 1_655 S
C1277 C1281 1.429 . S
C1278 C1261 1.574 . S
C1278 H1272 0.949 . S
C1278 C1282 1.368 . S
C1279 C1260 1.429 . S
C1279 C1273 1.429 . S
C1279 C1280 1.523 . S
C1280 C1261 1.368 . S
C1280 C1274 1.368 . S
C1280 C1279 1.523 . S
C1281 C1265 1.429 . S
C1281 C1277 1.429 . S
C1281 C1282 1.523 . S
C1282 C1266 1.368 . S
C1282 C1278 1.368 . S
C1282 C1281 1.523 . S
H1283 C1258 0.950 . S
H1284 C1260 0.950 . S
H1285 C1261 0.949 . S
H1286 C1263 0.950 . S
H1287 C1265 0.950 . S
C1288 C1289 1.349 . S
C1288 C1290 1.327 . S
C1288 H1313 0.950 . S
C1289 C1288 1.349 . S
C1289 C1305 1.349 . S
C1290 C1288 1.327 . S
C1290 C1309 1.429 . S
C1290 H1314 0.950 . S
C1291 C1308 1.574 . S
C1291 C1310 1.368 . S
C1291 H1315 0.949 . S
H1292 C1296 0.949 . S
C1293 C1294 1.349 . S
C1293 C1295 1.327 . S
C1293 H1316 0.950 . S
C1294 C1293 1.349 . S
C1294 C1306 1.349 . S
C1295 C1293 1.327 . S
C1295 C1311 1.429 . S
C1295 H1317 0.950 . S
C1296 H1292 0.949 . S
C1296 C1304 1.574 . S
C1296 C1312 1.368 . S
H1297 C1305 0.950 . S
H1298 C1303 0.950 . S
H1299 C1304 0.949 . S
H1300 C1306 0.950 . S
H1301 C1307 0.950 . S
H1302 C1308 0.949 . S
C1303 H1298 0.950 . S
C1303 C1305 1.327 . S
C1303 C1309 1.429 . S
C1304 C1296 1.574 . S
C1304 H1299 0.949 . S
C1304 C1310 1.368 . S
C1305 C1289 1.349 . S
C1305 H1297 0.950 . S
C1305 C1303 1.327 . S
C1306 C1294 1.349 . S
C1306 H1300 0.950 . S
C1306 C1307 1.327 . S
C1307 H1301 0.950 . S
C1307 C1306 1.327 . S
C1307 C1311 1.429 . S
C1308 C1291 1.574 . S
C1308 H1302 0.949 . S
C1308 C1312 1.368 . S
C1309 C1290 1.429 . S
C1309 C1303 1.429 . S
C1309 C1310 1.523 . S
C1310 C1291 1.368 . S
C1310 C1304 1.368 . S
C1310 C1309 1.523 . S
C1311 C1295 1.429 . S
C1311 C1307 1.429 . S
C1311 C1312 1.523 . S
C1312 C1296 1.368 . S
C1312 C1308 1.368 . S
C1312 C1311 1.523 . S
H1313 C1288 0.950 . S
H1314 C1290 0.950 . S
H1315 C1291 0.949 . S
H1316 C1293 0.950 . S
H1317 C1295 0.950 . S
C1318 C1319 1.349 . S
C1318 C1320 1.327 . S
C1318 H1343 0.950 . S
C1319 C1318 1.349 . S
C1319 C1335 1.349 . S
C1320 C1318 1.327 . S
C1320 C1339 1.429 . S
C1320 H1344 0.950 . S
C1321 C1338 1.574 . S
C1321 C1340 1.368 . S
C1321 H1345 0.949 . S
H1322 C1326 0.949 . S
C1323 C1324 1.349 . S
C1323 C1325 1.327 1_655 S
C1323 H1346 0.950 . S
C1324 C1323 1.349 . S
C1324 C1336 1.349 . S
C1325 C1323 1.327 1_455 S
C1325 C1341 1.429 . S
C1325 H1347 0.950 . S
C1326 H1322 0.949 . S
C1326 C1334 1.574 . S
C1326 C1342 1.368 . S
H1327 C1335 0.950 . S
H1328 C1333 0.950 . S
H1329 C1334 0.949 . S
H1330 C1336 0.950 . S
H1331 C1337 0.950 . S
H1332 C1338 0.949 . S
C1333 H1328 0.950 . S
C1333 C1335 1.327 . S
C1333 C1339 1.429 . S
C1334 C1326 1.574 . S
C1334 H1329 0.949 . S
C1334 C1340 1.368 . S
C1335 C1319 1.349 . S
C1335 H1327 0.950 . S
C1335 C1333 1.327 . S
C1336 C1324 1.349 . S
C1336 H1330 0.950 . S
C1336 C1337 1.327 1_655 S
C1337 H1331 0.950 . S
C1337 C1336 1.327 1_455 S
C1337 C1341 1.429 . S
C1338 C1321 1.574 . S
C1338 H1332 0.949 . S
C1338 C1342 1.368 . S
C1339 C1320 1.429 . S
C1339 C1333 1.429 . S
C1339 C1340 1.523 . S
C1340 C1321 1.368 . S
C1340 C1334 1.368 . S
C1340 C1339 1.523 . S
C1341 C1325 1.429 . S
C1341 C1337 1.429 . S
C1341 C1342 1.523 . S
C1342 C1326 1.368 . S
C1342 C1338 1.368 . S
C1342 C1341 1.523 . S
H1343 C1318 0.950 . S
H1344 C1320 0.950 . S
H1345 C1321 0.949 . S
H1346 C1323 0.950 . S
H1347 C1325 0.950 . S
C1348 C1349 1.349 . S
C1348 C1350 1.327 . S
C1348 H1373 0.950 . S
C1349 C1348 1.349 . S
C1349 C1365 1.349 . S
C1350 C1348 1.327 . S
C1350 C1369 1.429 . S
C1350 H1374 0.950 . S
C1351 C1368 1.574 . S
C1351 C1370 1.368 . S
C1351 H1375 0.949 . S
H1352 C1356 0.949 . S
C1353 C1354 1.349 . S
C1353 C1355 1.327 . S
C1353 H1376 0.950 . S
C1354 C1353 1.349 . S
C1354 C1366 1.349 . S
C1355 C1353 1.327 . S
C1355 C1371 1.429 . S
C1355 H1377 0.950 . S
C1356 H1352 0.949 . S
C1356 C1364 1.574 . S
C1356 C1372 1.368 . S
H1357 C1365 0.950 . S
H1358 C1363 0.950 . S
H1359 C1364 0.949 . S
H1360 C1366 0.950 . S
H1361 C1367 0.950 . S
H1362 C1368 0.949 . S
C1363 H1358 0.950 . S
C1363 C1365 1.327 . S
C1363 C1369 1.429 . S
C1364 C1356 1.574 . S
C1364 H1359 0.949 . S
C1364 C1370 1.368 . S
C1365 C1349 1.349 . S
C1365 H1357 0.950 . S
C1365 C1363 1.327 . S
C1366 C1354 1.349 . S
C1366 H1360 0.950 . S
C1366 C1367 1.327 . S
C1367 H1361 0.950 . S
C1367 C1366 1.327 . S
C1367 C1371 1.429 . S
C1368 C1351 1.574 . S
C1368 H1362 0.949 . S
C1368 C1372 1.368 . S
C1369 C1350 1.429 . S
C1369 C1363 1.429 . S
C1369 C1370 1.523 . S
C1370 C1351 1.368 . S
C1370 C1364 1.368 . S
C1370 C1369 1.523 . S
C1371 C1355 1.429 . S
C1371 C1367 1.429 . S
C1371 C1372 1.523 . S
C1372 C1356 1.368 . S
C1372 C1368 1.368 . S
C1372 C1371 1.523 . S
H1373 C1348 0.950 . S
H1374 C1350 0.950 . S
H1375 C1351 0.949 . S
H1376 C1353 0.950 . S
H1377 C1355 0.950 . S
C1378 C1379 1.349 . S
C1378 C1380 1.327 1_655 S
C1378 H1403 0.950 . S
C1379 C1378 1.349 . S
C1379 C1395 1.349 . S
C1380 C1378 1.327 1_455 S
C1380 C1399 1.429 . S
C1380 H1404 0.950 . S
C1381 C1398 1.574 . S
C1381 C1400 1.368 . S
C1381 H1405 0.949 . S
H1382 C1386 0.949 . S
C1383 C1384 1.349 . S
C1383 C1385 1.327 . S
C1383 H1406 0.950 . S
C1384 C1383 1.349 . S
C1384 C1396 1.349 . S
C1385 C1383 1.327 . S
C1385 C1401 1.429 . S
C1385 H1407 0.950 . S
C1386 H1382 0.949 . S
C1386 C1394 1.574 . S
C1386 C1402 1.368 . S
H1387 C1395 0.950 . S
H1388 C1393 0.950 . S
H1389 C1394 0.949 . S
H1390 C1396 0.950 . S
H1391 C1397 0.950 . S
H1392 C1398 0.949 . S
C1393 H1388 0.950 . S
C1393 C1395 1.327 1_455 S
C1393 C1399 1.429 . S
C1394 C1386 1.574 . S
C1394 H1389 0.949 . S
C1394 C1400 1.368 . S
C1395 C1379 1.349 . S
C1395 H1387 0.950 . S
C1395 C1393 1.327 1_655 S
C1396 C1384 1.349 . S
C1396 H1390 0.950 . S
C1396 C1397 1.327 . S
C1397 H1391 0.950 . S
C1397 C1396 1.327 . S
C1397 C1401 1.429 . S
C1398 C1381 1.574 . S
C1398 H1392 0.949 . S
C1398 C1402 1.368 . S
C1399 C1380 1.429 . S
C1399 C1393 1.429 . S
C1399 C1400 1.523 . S
C1400 C1381 1.368 . S
C1400 C1394 1.368 . S
C1400 C1399 1.523 . S
C1401 C1385 1.429 . S
C1401 C1397 1.429 . S
C1401 C1402 1.523 . S
C1402 C1386 1.368 . S
C1402 C1398 1.368 . S
C1402 C1401 1.523 . S
H1403 C1378 0.950 . S
H1404 C1380 0.950 . S
H1405 C1381 0.949 . S
H1406 C1383 0.950 . S
H1407 C1385 0.950 . S
C1408 C1409 1.349 . S
C1408 C1410 1.327 . S
C1408 H1433 0.950 . S
C1409 C1408 1.349 . S
C1409 C1425 1.349 . S
C1410 C1408 1.327 . S
C1410 C1429 1.429 . S
C1410 H1434 0.950 . S
C1411 C1428 1.574 . S
C1411 C1430 1.368 1_455 S
C1411 H1435 0.949 . S
H1412 C1416 0.949 . S
C1413 C1414 1.349 . S
C1413 C1415 1.327 . S
C1413 H1436 0.950 . S
C1414 C1413 1.349 . S
C1414 C1426 1.349 . S
C1415 C1413 1.327 . S
C1415 C1431 1.429 . S
C1415 H1437 0.950 . S
C1416 H1412 0.949 . S
C1416 C1424 1.574 . S
C1416 C1432 1.368 1_655 S
H1417 C1425 0.950 . S
H1418 C1423 0.950 1_455 S
H1419 C1424 0.949 . S
H1420 C1426 0.950 . S
H1421 C1427 0.950 1_655 S
H1422 C1428 0.949 . S
C1423 H1418 0.950 1_655 S
C1423 C1425 1.327 . S
C1423 C1429 1.429 . S
C1424 C1416 1.574 . S
C1424 H1419 0.949 . S
C1424 C1430 1.368 . S
C1425 C1409 1.349 . S
C1425 H1417 0.950 . S
C1425 C1423 1.327 . S
C1426 C1414 1.349 . S
C1426 H1420 0.950 . S
C1426 C1427 1.327 . S
C1427 H1421 0.950 1_455 S
C1427 C1426 1.327 . S
C1427 C1431 1.429 . S
C1428 C1411 1.574 . S
C1428 H1422 0.949 . S
C1428 C1432 1.368 . S
C1429 C1410 1.429 . S
C1429 C1423 1.429 . S
C1429 C1430 1.523 . S
C1430 C1411 1.368 1_655 S
C1430 C1424 1.368 . S
C1430 C1429 1.523 . S
C1431 C1415 1.429 . S
C1431 C1427 1.429 . S
C1431 C1432 1.523 . S
C1432 C1416 1.368 1_455 S
C1432 C1428 1.368 . S
C1432 C1431 1.523 . S
H1433 C1408 0.950 . S
H1434 C1410 0.950 . S
H1435 C1411 0.949 . S
H1436 C1413 0.950 . S
H1437 C1415 0.950 . S
C1438 C1439 1.349 . S
C1438 C1440 1.327 . S
C1438 H1463 0.950 . S
C1439 C1438 1.349 . S
C1439 C1455 1.349 . S
C1440 C1438 1.327 . S
C1440 C1459 1.429 . S
C1440 H1464 0.950 . S
C1441 C1458 1.574 1_565 S
C1441 C1460 1.368 . S
C1441 H1465 0.949 . S
H1442 C1446 0.949 . S
C1443 C1444 1.349 . S
C1443 C1445 1.327 . S
C1443 H1466 0.950 . S
C1444 C1443 1.349 . S
C1444 C1456 1.349 . S
C1445 C1443 1.327 . S
C1445 C1461 1.429 . S
C1445 H1467 0.950 . S
C1446 H1442 0.949 . S
C1446 C1454 1.574 1_545 S
C1446 C1462 1.368 . S
H1447 C1455 0.950 . S
H1448 C1453 0.950 . S
H1449 C1454 0.949 . S
H1450 C1456 0.950 . S
H1451 C1457 0.950 . S
H1452 C1458 0.949 . S
C1453 H1448 0.950 . S
C1453 C1455 1.327 . S
C1453 C1459 1.429 . S
C1454 C1446 1.574 1_565 S
C1454 H1449 0.949 . S
C1454 C1460 1.368 . S
C1455 C1439 1.349 . S
C1455 H1447 0.950 . S
C1455 C1453 1.327 . S
C1456 C1444 1.349 . S
C1456 H1450 0.950 . S
C1456 C1457 1.327 . S
C1457 H1451 0.950 . S
C1457 C1456 1.327 . S
C1457 C1461 1.429 . S
C1458 C1441 1.574 1_545 S
C1458 H1452 0.949 . S
C1458 C1462 1.368 . S
C1459 C1440 1.429 . S
C1459 C1453 1.429 . S
C1459 C1460 1.523 . S
C1460 C1441 1.368 . S
C1460 C1454 1.368 . S
C1460 C1459 1.523 . S
C1461 C1445 1.429 . S
C1461 C1457 1.429 . S
C1461 C1462 1.523 . S
C1462 C1446 1.368 . S
C1462 C1458 1.368 . S
C1462 C1461 1.523 . S
H1463 C1438 0.950 . S
H1464 C1440 0.950 . S
H1465 C1441 0.949 . S
H1466 C1443 0.950 . S
H1467 C1445 0.950 . S
C1468 C1469 1.349 . S
C1468 C1470 1.327 . S
C1468 H1493 0.950 . S
C1469 C1468 1.349 . S
C1469 C1485 1.349 . S
C1470 C1468 1.327 . S
C1470 C1489 1.429 . S
C1470 H1494 0.950 . S
C1471 C1488 1.549 1_545 S
C1471 C1490 1.368 1_456 S
C1471 H1495 0.949 . S
H1472 C1476 0.949 . S
C1473 C1474 1.349 . S
C1473 C1475 1.327 . S
C1473 H1496 0.950 . S
C1474 C1473 1.349 . S
C1474 C1486 1.349 . S
C1475 C1473 1.327 . S
C1475 C1491 1.429 . S
C1475 H1497 0.950 . S
C1476 H1472 0.949 . S
C1476 C1484 1.549 1_565 S
C1476 C1492 1.368 1_654 S
H1477 C1485 0.950 . S
H1478 C1483 0.950 1_455 S
H1479 C1484 0.948 . S
H1480 C1486 0.950 . S
H1481 C1487 0.950 1_655 S
H1482 C1488 0.948 . S
C1483 H1478 0.950 1_655 S
C1483 C1485 1.327 . S
C1483 C1489 1.429 . S
C1484 C1476 1.549 1_545 S
C1484 H1479 0.948 . S
C1484 C1490 1.391 . S
C1485 C1469 1.349 . S
C1485 H1477 0.950 . S
C1485 C1483 1.327 . S
C1486 C1474 1.349 . S
C1486 H1480 0.950 . S
C1486 C1487 1.327 . S
C1487 H1481 0.950 1_455 S
C1487 C1486 1.327 . S
C1487 C1491 1.429 . S
C1488 C1471 1.549 1_565 S
C1488 H1482 0.948 . S
C1488 C1492 1.392 . S
C1489 C1470 1.429 . S
C1489 C1483 1.429 . S
C1489 C1490 1.523 . S
C1490 C1471 1.368 1_654 S
C1490 C1484 1.391 . S
C1490 C1489 1.523 . S
C1491 C1475 1.429 . S
C1491 C1487 1.429 . S
C1491 C1492 1.523 . S
C1492 C1476 1.368 1_456 S
C1492 C1488 1.392 . S
C1492 C1491 1.523 . S
H1493 C1468 0.950 . S
H1494 C1470 0.950 . S
H1495 C1471 0.949 . S
H1496 C1473 0.950 . S
H1497 C1475 0.950 . S
C1498 C1499 1.349 . S
C1498 C1500 1.327 . S
C1498 H1523 0.950 . S
C1499 C1498 1.349 . S
C1499 C1515 1.349 . S
C1500 C1498 1.327 . S
C1500 C1519 1.429 . S
C1500 H1524 0.950 . S
C1501 C1518 1.574 . S
C1501 C1520 1.368 1_556 S
C1501 H1525 0.949 . S
H1502 C1506 0.949 . S
C1503 C1504 1.349 . S
C1503 C1505 1.327 . S
C1503 H1526 0.950 . S
C1504 C1503 1.349 . S
C1504 C1516 1.349 . S
C1505 C1503 1.327 . S
C1505 C1521 1.429 . S
C1505 H1527 0.950 . S
C1506 H1502 0.949 . S
C1506 C1514 1.574 . S
C1506 C1522 1.368 1_554 S
H1507 C1515 0.950 . S
H1508 C1513 0.950 1_556 S
H1509 C1514 0.949 . S
H1510 C1516 0.950 . S
H1511 C1517 0.950 1_554 S
H1512 C1518 0.949 . S
C1513 H1508 0.950 1_554 S
C1513 C1515 1.327 . S
C1513 C1519 1.429 . S
C1514 C1506 1.574 . S
C1514 H1509 0.949 . S
C1514 C1520 1.368 . S
C1515 C1499 1.349 . S
C1515 H1507 0.950 . S
C1515 C1513 1.327 . S
C1516 C1504 1.349 . S
C1516 H1510 0.950 . S
C1516 C1517 1.327 . S
C1517 H1511 0.950 1_556 S
C1517 C1516 1.327 . S
C1517 C1521 1.429 . S
C1518 C1501 1.574 . S
C1518 H1512 0.949 . S
C1518 C1522 1.368 . S
C1519 C1500 1.429 . S
C1519 C1513 1.429 . S
C1519 C1520 1.523 . S
C1520 C1501 1.368 1_554 S
C1520 C1514 1.368 . S
C1520 C1519 1.523 . S
C1521 C1505 1.429 . S
C1521 C1517 1.429 . S
C1521 C1522 1.523 . S
C1522 C1506 1.368 1_556 S
C1522 C1518 1.368 . S
C1522 C1521 1.523 . S
H1523 C1498 0.950 . S
H1524 C1500 0.950 . S
H1525 C1501 0.949 . S
H1526 C1503 0.950 . S
H1527 C1505 0.950 . S
C1528 C1529 1.349 . S
C1528 C1530 1.327 . S
C1528 H1553 0.950 . S
C1529 C1528 1.349 . S
C1529 C1545 1.349 . S
C1530 C1528 1.327 . S
C1530 C1549 1.429 . S
C1530 H1554 0.950 . S
C1531 C1548 1.581 . S
C1531 C1550 1.368 . S
C1531 H1555 0.949 . S
H1532 C1536 0.949 . S
C1533 C1534 1.349 . S
C1533 C1535 1.327 . S
C1533 H1556 0.950 . S
C1534 C1533 1.349 . S
C1534 C1546 1.349 . S
C1535 C1533 1.327 . S
C1535 C1551 1.429 . S
C1535 H1557 0.950 . S
C1536 H1532 0.949 . S
C1536 C1544 1.581 . S
C1536 C1552 1.368 . S
H1537 C1545 0.950 . S
H1538 C1543 0.950 . S
H1539 C1544 0.949 . S
H1540 C1546 0.950 . S
H1541 C1547 0.950 . S
H1542 C1548 0.949 . S
C1543 H1538 0.950 . S
C1543 C1545 1.327 . S
C1543 C1549 1.429 . S
C1544 C1536 1.581 . S
C1544 H1539 0.949 . S
C1544 C1550 1.361 1_455 S
C1545 C1529 1.349 . S
C1545 H1537 0.950 . S
C1545 C1543 1.327 . S
C1546 C1534 1.349 . S
C1546 H1540 0.950 . S
C1546 C1547 1.327 . S
C1547 H1541 0.950 . S
C1547 C1546 1.327 . S
C1547 C1551 1.429 . S
C1548 C1531 1.581 . S
C1548 H1542 0.949 . S
C1548 C1552 1.361 1_655 S
C1549 C1530 1.429 . S
C1549 C1543 1.429 . S
C1549 C1550 1.523 . S
C1550 C1531 1.368 . S
C1550 C1544 1.361 1_655 S
C1550 C1549 1.523 . S
C1551 C1535 1.429 . S
C1551 C1547 1.429 . S
C1551 C1552 1.523 . S
C1552 C1536 1.368 . S
C1552 C1548 1.361 1_455 S
C1552 C1551 1.523 . S
H1553 C1528 0.950 . S
H1554 C1530 0.950 . S
H1555 C1531 0.949 . S
H1556 C1533 0.950 . S
H1557 C1535 0.950 . S
C1558 C1559 1.349 . S
C1558 C1560 1.327 . S
C1558 H1583 0.950 . S
C1559 C1558 1.349 . S
C1559 C1575 1.349 . S
C1560 C1558 1.327 . S
C1560 C1579 1.429 . S
C1560 H1584 0.950 . S
C1561 C1578 1.478 1_565 S
C1561 C1580 1.453 . S
C1561 H1585 0.968 . S
H1562 C1566 0.968 . S
C1563 C1564 1.349 . S
C1563 C1565 1.327 . S
C1563 H1586 0.950 . S
C1564 C1563 1.349 . S
C1564 C1576 1.349 . S
C1565 C1563 1.327 . S
C1565 C1581 1.429 . S
C1565 H1587 0.950 . S
C1566 H1562 0.968 . S
C1566 C1574 1.478 1_545 S
C1566 C1582 1.453 . S
H1567 C1575 0.950 . S
H1568 C1573 0.950 . S
H1569 C1574 0.949 . S
H1570 C1576 0.950 . S
H1571 C1577 0.950 . S
H1572 C1578 0.949 . S
C1573 H1568 0.950 . S
C1573 C1575 1.327 . S
C1573 C1579 1.429 . S
C1574 C1566 1.478 1_565 S
C1574 H1569 0.949 . S
C1574 C1580 1.368 . S
C1575 C1559 1.349 . S
C1575 H1567 0.950 . S
C1575 C1573 1.327 . S
C1576 C1564 1.349 . S
C1576 H1570 0.950 . S
C1576 C1577 1.327 . S
C1577 H1571 0.950 . S
C1577 C1576 1.327 . S
C1577 C1581 1.429 . S
C1578 C1561 1.478 1_545 S
C1578 H1572 0.949 . S
C1578 C1582 1.368 . S
C1579 C1560 1.429 . S
C1579 C1573 1.429 . S
C1579 C1580 1.523 . S
C1580 C1561 1.453 . S
C1580 C1574 1.368 . S
C1580 C1579 1.523 . S
C1581 C1565 1.429 . S
C1581 C1577 1.429 . S
C1581 C1582 1.523 . S
C1582 C1566 1.453 . S
C1582 C1578 1.368 . S
C1582 C1581 1.523 . S
H1583 C1558 0.950 . S
H1584 C1560 0.950 . S
H1585 C1561 0.968 . S
H1586 C1563 0.950 . S
H1587 C1565 0.950 . S
C1588 C1589 1.349 . S
C1588 C1590 1.327 . S
C1588 H1613 0.950 . S
C1589 C1588 1.349 . S
C1589 C1605 1.349 . S
C1590 C1588 1.327 . S
C1590 C1609 1.429 . S
C1590 H1614 0.950 . S
C1591 C1608 1.574 . S
C1591 C1610 1.368 1_554 S
C1591 H1615 0.949 . S
H1592 C1596 0.949 . S
C1593 C1594 1.349 . S
C1593 C1595 1.327 . S
C1593 H1616 0.950 . S
C1594 C1593 1.349 . S
C1594 C1606 1.349 . S
C1595 C1593 1.327 . S
C1595 C1611 1.429 . S
C1595 H1617 0.950 . S
C1596 H1592 0.949 . S
C1596 C1604 1.574 . S
C1596 C1612 1.368 1_556 S
H1597 C1605 0.950 . S
H1598 C1603 0.950 1_554 S
H1599 C1604 0.949 . S
H1600 C1606 0.950 . S
H1601 C1607 0.950 1_556 S
H1602 C1608 0.949 . S
C1603 H1598 0.950 1_556 S
C1603 C1605 1.327 . S
C1603 C1609 1.429 . S
C1604 C1596 1.574 . S
C1604 H1599 0.949 . S
C1604 C1610 1.368 . S
C1605 C1589 1.349 . S
C1605 H1597 0.950 . S
C1605 C1603 1.327 . S
C1606 C1594 1.349 . S
C1606 H1600 0.950 . S
C1606 C1607 1.327 . S
C1607 H1601 0.950 1_554 S
C1607 C1606 1.327 . S
C1607 C1611 1.429 . S
C1608 C1591 1.574 . S
C1608 H1602 0.949 . S
C1608 C1612 1.368 . S
C1609 C1590 1.429 . S
C1609 C1603 1.429 . S
C1609 C1610 1.523 . S
C1610 C1591 1.368 1_556 S
C1610 C1604 1.368 . S
C1610 C1609 1.523 . S
C1611 C1595 1.429 . S
C1611 C1607 1.429 . S
C1611 C1612 1.523 . S
C1612 C1596 1.368 1_554 S
C1612 C1608 1.368 . S
C1612 C1611 1.523 . S
H1613 C1588 0.950 . S
H1614 C1590 0.950 . S
H1615 C1591 0.949 . S
H1616 C1593 0.950 . S
H1617 C1595 0.950 . S
C1618 C1619 1.349 . S
C1618 C1620 1.327 . S
C1618 H1643 0.950 . S
C1619 C1618 1.349 . S
C1619 C1635 1.349 . S
C1620 C1618 1.327 . S
C1620 C1639 1.429 . S
C1620 H1644 0.950 . S
C1621 C1638 1.574 . S
C1621 C1640 1.368 . S
C1621 H1645 0.949 . S
H1622 C1626 0.949 . S
C1623 C1624 1.349 . S
C1623 C1625 1.327 . S
C1623 H1646 0.950 . S
C1624 C1623 1.349 . S
C1624 C1636 1.349 . S
C1625 C1623 1.327 . S
C1625 C1641 1.429 . S
C1625 H1647 0.950 . S
C1626 H1622 0.949 . S
C1626 C1634 1.574 . S
C1626 C1642 1.368 . S
H1627 C1635 0.950 . S
H1628 C1633 0.950 . S
H1629 C1634 0.949 . S
H1630 C1636 0.950 . S
H1631 C1637 0.950 . S
H1632 C1638 0.949 . S
C1633 H1628 0.950 . S
C1633 C1635 1.327 . S
C1633 C1639 1.429 . S
C1634 C1626 1.574 . S
C1634 H1629 0.949 . S
C1634 C1640 1.368 . S
C1635 C1619 1.349 . S
C1635 H1627 0.950 . S
C1635 C1633 1.327 . S
C1636 C1624 1.349 . S
C1636 H1630 0.950 . S
C1636 C1637 1.327 . S
C1637 H1631 0.950 . S
C1637 C1636 1.327 . S
C1637 C1641 1.429 . S
C1638 C1621 1.574 . S
C1638 H1632 0.949 . S
C1638 C1642 1.368 . S
C1639 C1620 1.429 . S
C1639 C1633 1.429 . S
C1639 C1640 1.523 . S
C1640 C1621 1.368 . S
C1640 C1634 1.368 . S
C1640 C1639 1.523 . S
C1641 C1625 1.429 . S
C1641 C1637 1.429 . S
C1641 C1642 1.523 . S
C1642 C1626 1.368 . S
C1642 C1638 1.368 . S
C1642 C1641 1.523 . S
H1643 C1618 0.950 . S
H1644 C1620 0.950 . S
H1645 C1621 0.949 . S
H1646 C1623 0.950 . S
H1647 C1625 0.950 . S
C1648 C1649 1.349 . S
C1648 C1650 1.327 . S
C1648 H1673 0.950 . S
C1649 C1648 1.349 . S
C1649 C1665 1.349 . S
C1650 C1648 1.327 . S
C1650 C1669 1.429 . S
C1650 H1674 0.950 . S
C1651 C1668 1.574 . S
C1651 C1670 1.368 . S
C1651 H1675 0.949 . S
H1652 C1656 0.949 . S
C1653 C1654 1.349 . S
C1653 C1655 1.327 . S
C1653 H1676 0.950 . S
C1654 C1653 1.349 . S
C1654 C1666 1.349 . S
C1655 C1653 1.327 . S
C1655 C1671 1.429 . S
C1655 H1677 0.950 . S
C1656 H1652 0.949 . S
C1656 C1664 1.574 . S
C1656 C1672 1.368 . S
H1657 C1665 0.950 . S
H1658 C1663 0.950 . S
H1659 C1664 0.949 . S
H1660 C1666 0.950 . S
H1661 C1667 0.950 . S
H1662 C1668 0.949 . S
C1663 H1658 0.950 . S
C1663 C1665 1.327 . S
C1663 C1669 1.429 . S
C1664 C1656 1.574 . S
C1664 H1659 0.949 . S
C1664 C1670 1.368 1_655 S
C1665 C1649 1.349 . S
C1665 H1657 0.950 . S
C1665 C1663 1.327 . S
C1666 C1654 1.349 . S
C1666 H1660 0.950 . S
C1666 C1667 1.327 . S
C1667 H1661 0.950 . S
C1667 C1666 1.327 . S
C1667 C1671 1.429 . S
C1668 C1651 1.574 . S
C1668 H1662 0.949 . S
C1668 C1672 1.368 1_455 S
C1669 C1650 1.429 . S
C1669 C1663 1.429 . S
C1669 C1670 1.523 . S
C1670 C1651 1.368 . S
C1670 C1664 1.368 1_455 S
C1670 C1669 1.523 . S
C1671 C1655 1.429 . S
C1671 C1667 1.429 . S
C1671 C1672 1.523 . S
C1672 C1656 1.368 . S
C1672 C1668 1.368 1_655 S
C1672 C1671 1.523 . S
H1673 C1648 0.950 . S
H1674 C1650 0.950 . S
H1675 C1651 0.949 . S
H1676 C1653 0.950 . S
H1677 C1655 0.950 . S
C1678 C1679 1.349 . S
C1678 C1680 1.327 . S
C1678 H1703 0.950 . S
C1679 C1678 1.349 . S
C1679 C1695 1.349 . S
C1680 C1678 1.327 . S
C1680 C1699 1.429 . S
C1680 H1704 0.950 . S
C1681 C1698 1.574 . S
C1681 C1700 1.368 . S
C1681 H1705 0.949 . S
H1682 C1686 0.949 . S
C1683 C1684 1.349 . S
C1683 C1685 1.327 . S
C1683 H1706 0.950 . S
C1684 C1683 1.349 . S
C1684 C1696 1.349 . S
C1685 C1683 1.327 . S
C1685 C1701 1.429 . S
C1685 H1707 0.950 . S
C1686 H1682 0.949 . S
C1686 C1694 1.574 . S
C1686 C1702 1.368 . S
H1687 C1695 0.950 . S
H1688 C1693 0.950 . S
H1689 C1694 0.949 . S
H1690 C1696 0.950 . S
H1691 C1697 0.950 . S
H1692 C1698 0.949 . S
C1693 H1688 0.950 . S
C1693 C1695 1.327 . S
C1693 C1699 1.429 . S
C1694 C1686 1.574 . S
C1694 H1689 0.949 . S
C1694 C1700 1.368 . S
C1695 C1679 1.349 . S
C1695 H1687 0.950 . S
C1695 C1693 1.327 . S
C1696 C1684 1.349 . S
C1696 H1690 0.950 . S
C1696 C1697 1.327 . S
C1697 H1691 0.950 . S
C1697 C1696 1.327 . S
C1697 C1701 1.429 . S
C1698 C1681 1.574 . S
C1698 H1692 0.949 . S
C1698 C1702 1.368 . S
C1699 C1680 1.429 . S
C1699 C1693 1.429 . S
C1699 C1700 1.523 . S
C1700 C1681 1.368 . S
C1700 C1694 1.368 . S
C1700 C1699 1.523 . S
C1701 C1685 1.429 . S
C1701 C1697 1.429 . S
C1701 C1702 1.523 . S
C1702 C1686 1.368 . S
C1702 C1698 1.368 . S
C1702 C1701 1.523 . S
H1703 C1678 0.950 . S
H1704 C1680 0.950 . S
H1705 C1681 0.949 . S
H1706 C1683 0.950 . S
H1707 C1685 0.950 . S
C1708 C1709 1.349 . S
C1708 C1710 1.327 . S
C1708 H1733 0.950 . S
C1709 C1708 1.349 . S
C1709 C1725 1.349 . S
C1710 C1708 1.327 . S
C1710 C1729 1.429 . S
C1710 H1734 0.950 . S
C1711 C1728 1.574 . S
C1711 C1730 1.368 . S
C1711 H1735 0.949 . S
H1712 C1716 0.949 . S
C1713 C1714 1.349 . S
C1713 C1715 1.327 . S
C1713 H1736 0.950 . S
C1714 C1713 1.349 . S
C1714 C1726 1.349 . S
C1715 C1713 1.327 . S
C1715 C1731 1.429 . S
C1715 H1737 0.950 . S
C1716 H1712 0.949 . S
C1716 C1724 1.574 . S
C1716 C1732 1.368 . S
H1717 C1725 0.950 . S
H1718 C1723 0.950 . S
H1719 C1724 0.949 . S
H1720 C1726 0.950 . S
H1721 C1727 0.950 . S
H1722 C1728 0.949 . S
C1723 H1718 0.950 . S
C1723 C1725 1.327 . S
C1723 C1729 1.429 . S
C1724 C1716 1.574 . S
C1724 H1719 0.949 . S
C1724 C1730 1.368 . S
C1725 C1709 1.349 . S
C1725 H1717 0.950 . S
C1725 C1723 1.327 . S
C1726 C1714 1.349 . S
C1726 H1720 0.950 . S
C1726 C1727 1.327 . S
C1727 H1721 0.950 . S
C1727 C1726 1.327 . S
C1727 C1731 1.429 . S
C1728 C1711 1.574 . S
C1728 H1722 0.949 . S
C1728 C1732 1.368 . S
C1729 C1710 1.429 . S
C1729 C1723 1.429 . S
C1729 C1730 1.523 . S
C1730 C1711 1.368 . S
C1730 C1724 1.368 . S
C1730 C1729 1.523 . S
C1731 C1715 1.429 . S
C1731 C1727 1.429 . S
C1731 C1732 1.523 . S
C1732 C1716 1.368 . S
C1732 C1728 1.368 . S
C1732 C1731 1.523 . S
H1733 C1708 0.950 . S
H1734 C1710 0.950 . S
H1735 C1711 0.949 . S
H1736 C1713 0.950 . S
H1737 C1715 0.950 . S
C1738 C1739 1.349 . S
C1738 C1740 1.327 . S
C1738 H1763 0.950 . S
C1739 C1738 1.349 . S
C1739 C1755 1.349 . S
C1740 C1738 1.327 . S
C1740 C1759 1.429 . S
C1740 H1764 0.950 . S
C1741 C1758 1.574 . S
C1741 C1760 1.368 . S
C1741 H1765 0.949 . S
H1742 C1746 0.949 . S
C1743 C1744 1.349 . S
C1743 C1745 1.327 . S
C1743 H1766 0.950 . S
C1744 C1743 1.349 . S
C1744 C1756 1.349 . S
C1745 C1743 1.327 . S
C1745 C1761 1.429 . S
C1745 H1767 0.950 . S
C1746 H1742 0.949 . S
C1746 C1754 1.574 . S
C1746 C1762 1.368 . S
H1747 C1755 0.950 . S
H1748 C1753 0.950 . S
H1749 C1754 0.949 . S
H1750 C1756 0.950 . S
H1751 C1757 0.950 . S
H1752 C1758 0.949 . S
C1753 H1748 0.950 . S
C1753 C1755 1.327 . S
C1753 C1759 1.429 . S
C1754 C1746 1.574 . S
C1754 H1749 0.949 . S
C1754 C1760 1.368 . S
C1755 C1739 1.349 . S
C1755 H1747 0.950 . S
C1755 C1753 1.327 . S
C1756 C1744 1.349 . S
C1756 H1750 0.950 . S
C1756 C1757 1.327 . S
C1757 H1751 0.950 . S
C1757 C1756 1.327 . S
C1757 C1761 1.429 . S
C1758 C1741 1.574 . S
C1758 H1752 0.949 . S
C1758 C1762 1.368 . S
C1759 C1740 1.429 . S
C1759 C1753 1.429 . S
C1759 C1760 1.523 . S
C1760 C1741 1.368 . S
C1760 C1754 1.368 . S
C1760 C1759 1.523 . S
C1761 C1745 1.429 . S
C1761 C1757 1.429 . S
C1761 C1762 1.523 . S
C1762 C1746 1.368 . S
C1762 C1758 1.368 . S
C1762 C1761 1.523 . S
H1763 C1738 0.950 . S
H1764 C1740 0.950 . S
H1765 C1741 0.949 . S
H1766 C1743 0.950 . S
H1767 C1745 0.950 . S
C1768 C1769 1.349 . S
C1768 C1770 1.327 . S
C1768 H1793 0.950 . S
C1769 C1768 1.349 . S
C1769 C1785 1.349 . S
C1770 C1768 1.327 . S
C1770 C1789 1.429 . S
C1770 H1794 0.950 . S
C1771 C1788 1.574 . S
C1771 C1790 1.368 . S
C1771 H1795 0.949 . S
H1772 C1776 0.949 . S
C1773 C1774 1.349 . S
C1773 C1775 1.327 . S
C1773 H1796 0.950 . S
C1774 C1773 1.349 . S
C1774 C1786 1.349 . S
C1775 C1773 1.327 . S
C1775 C1791 1.429 . S
C1775 H1797 0.950 . S
C1776 H1772 0.949 . S
C1776 C1784 1.574 . S
C1776 C1792 1.368 . S
H1777 C1785 0.950 . S
H1778 C1783 0.950 . S
H1779 C1784 0.949 . S
H1780 C1786 0.950 . S
H1781 C1787 0.950 . S
H1782 C1788 0.949 . S
C1783 H1778 0.950 . S
C1783 C1785 1.327 . S
C1783 C1789 1.429 . S
C1784 C1776 1.574 . S
C1784 H1779 0.949 . S
C1784 C1790 1.368 . S
C1785 C1769 1.349 . S
C1785 H1777 0.950 . S
C1785 C1783 1.327 . S
C1786 C1774 1.349 . S
C1786 H1780 0.950 . S
C1786 C1787 1.327 . S
C1787 H1781 0.950 . S
C1787 C1786 1.327 . S
C1787 C1791 1.429 . S
C1788 C1771 1.574 . S
C1788 H1782 0.949 . S
C1788 C1792 1.368 . S
C1789 C1770 1.429 . S
C1789 C1783 1.429 . S
C1789 C1790 1.523 . S
C1790 C1771 1.368 . S
C1790 C1784 1.368 . S
C1790 C1789 1.523 . S
C1791 C1775 1.429 . S
C1791 C1787 1.429 . S
C1791 C1792 1.523 . S
C1792 C1776 1.368 . S
C1792 C1788 1.368 . S
C1792 C1791 1.523 . S
H1793 C1768 0.950 . S
H1794 C1770 0.950 . S
H1795 C1771 0.949 . S
H1796 C1773 0.950 . S
H1797 C1775 0.950 . S
C1798 C1799 1.349 . S
C1798 C1800 1.327 . S
C1798 H1823 0.950 . S
C1799 C1798 1.349 . S
C1799 C1815 1.349 . S
C1800 C1798 1.327 . S
C1800 C1819 1.429 . S
C1800 H1824 0.950 . S
C1801 C1818 1.574 1_545 S
C1801 C1820 1.368 . S
C1801 H1825 0.949 . S
H1802 C1806 0.949 . S
C1803 C1804 1.349 . S
C1803 C1805 1.327 . S
C1803 H1826 0.950 . S
C1804 C1803 1.349 . S
C1804 C1816 1.349 . S
C1805 C1803 1.327 . S
C1805 C1821 1.429 . S
C1805 H1827 0.950 . S
C1806 H1802 0.949 . S
C1806 C1814 1.574 1_565 S
C1806 C1822 1.368 . S
H1807 C1815 0.950 . S
H1808 C1813 0.950 . S
H1809 C1814 0.949 . S
H1810 C1816 0.950 . S
H1811 C1817 0.950 . S
H1812 C1818 0.949 . S
C1813 H1808 0.950 . S
C1813 C1815 1.327 . S
C1813 C1819 1.429 . S
C1814 C1806 1.574 1_545 S
C1814 H1809 0.949 . S
C1814 C1820 1.368 . S
C1815 C1799 1.349 . S
C1815 H1807 0.950 . S
C1815 C1813 1.327 . S
C1816 C1804 1.349 . S
C1816 H1810 0.950 . S
C1816 C1817 1.327 . S
C1817 H1811 0.950 . S
C1817 C1816 1.327 . S
C1817 C1821 1.429 . S
C1818 C1801 1.574 1_565 S
C1818 H1812 0.949 . S
C1818 C1822 1.368 . S
C1819 C1800 1.429 . S
C1819 C1813 1.429 . S
C1819 C1820 1.523 . S
C1820 C1801 1.368 . S
C1820 C1814 1.368 . S
C1820 C1819 1.523 . S
C1821 C1805 1.429 . S
C1821 C1817 1.429 . S
C1821 C1822 1.523 . S
C1822 C1806 1.368 . S
C1822 C1818 1.368 . S
C1822 C1821 1.523 . S
H1823 C1798 0.950 . S
H1824 C1800 0.950 . S
H1825 C1801 0.949 . S
H1826 C1803 0.950 . S
H1827 C1805 0.950 . S
C1828 C1829 1.349 . S
C1828 C1830 1.327 . S
C1828 H1853 0.950 . S
C1829 C1828 1.349 . S
C1829 C1845 1.349 . S
C1830 C1828 1.327 . S
C1830 C1849 1.429 . S
C1830 H1854 0.950 . S
C1831 C1848 1.574 . S
C1831 C1850 1.368 . S
C1831 H1855 0.949 . S
H1832 C1836 0.949 . S
C1833 C1834 1.349 . S
C1833 C1835 1.327 . S
C1833 H1856 0.950 . S
C1834 C1833 1.349 . S
C1834 C1846 1.349 . S
C1835 C1833 1.327 . S
C1835 C1851 1.429 . S
C1835 H1857 0.950 . S
C1836 H1832 0.949 . S
C1836 C1844 1.574 . S
C1836 C1852 1.368 . S
H1837 C1845 0.950 . S
H1838 C1843 0.950 . S
H1839 C1844 0.949 . S
H1840 C1846 0.950 . S
H1841 C1847 0.950 . S
H1842 C1848 0.949 . S
C1843 H1838 0.950 . S
C1843 C1845 1.327 . S
C1843 C1849 1.429 . S
C1844 C1836 1.574 . S
C1844 H1839 0.949 . S
C1844 C1850 1.368 . S
C1845 C1829 1.349 . S
C1845 H1837 0.950 . S
C1845 C1843 1.327 . S
C1846 C1834 1.349 . S
C1846 H1840 0.950 . S
C1846 C1847 1.327 . S
C1847 H1841 0.950 . S
C1847 C1846 1.327 . S
C1847 C1851 1.429 . S
C1848 C1831 1.574 . S
C1848 H1842 0.949 . S
C1848 C1852 1.368 . S
C1849 C1830 1.429 . S
C1849 C1843 1.429 . S
C1849 C1850 1.523 . S
C1850 C1831 1.368 . S
C1850 C1844 1.368 . S
C1850 C1849 1.523 . S
C1851 C1835 1.429 . S
C1851 C1847 1.429 . S
C1851 C1852 1.523 . S
C1852 C1836 1.368 . S
C1852 C1848 1.368 . S
C1852 C1851 1.523 . S
H1853 C1828 0.950 . S
H1854 C1830 0.950 . S
H1855 C1831 0.949 . S
H1856 C1833 0.950 . S
H1857 C1835 0.950 . S
C1858 C1859 1.349 . S
C1858 C1860 1.327 . S
C1858 H1883 0.950 . S
C1859 C1858 1.349 . S
C1859 C1875 1.349 . S
C1860 C1858 1.327 . S
C1860 C1879 1.429 . S
C1860 H1884 0.971 . S
C1861 C1878 1.574 . S
C1861 C1880 1.368 . S
C1861 H1885 0.949 . S
H1862 C1866 0.949 . S
C1863 C1864 1.349 . S
C1863 C1865 1.327 . S
C1863 H1886 0.950 . S
C1864 C1863 1.349 . S
C1864 C1876 1.349 . S
C1865 C1863 1.327 . S
C1865 C1881 1.429 . S
C1865 H1887 0.971 . S
C1866 H1862 0.949 . S
C1866 C1874 1.574 . S
C1866 C1882 1.368 . S
H1867 C1875 0.950 . S
H1868 C1873 0.950 . S
H1869 C1874 0.949 . S
H1870 C1876 0.950 . S
H1871 C1877 0.950 . S
H1872 C1878 0.949 . S
C1873 H1868 0.950 . S
C1873 C1875 1.327 . S
C1873 C1879 1.429 . S
C1874 C1866 1.574 . S
C1874 H1869 0.949 . S
C1874 C1880 1.368 1_554 S
C1875 C1859 1.349 . S
C1875 H1867 0.950 . S
C1875 C1873 1.327 . S
C1876 C1864 1.349 . S
C1876 H1870 0.950 . S
C1876 C1877 1.327 . S
C1877 H1871 0.950 . S
C1877 C1876 1.327 . S
C1877 C1881 1.429 . S
C1878 C1861 1.574 . S
C1878 H1872 0.949 . S
C1878 C1882 1.368 1_556 S
C1879 C1860 1.429 . S
C1879 C1873 1.429 . S
C1879 C1880 1.523 . S
C1880 C1861 1.368 . S
C1880 C1874 1.368 1_556 S
C1880 C1879 1.523 . S
C1881 C1865 1.429 . S
C1881 C1877 1.429 . S
C1881 C1882 1.523 . S
C1882 C1866 1.368 . S
C1882 C1878 1.368 1_554 S
C1882 C1881 1.523 . S
H1883 C1858 0.950 . S
H1884 C1860 0.971 . S
H1885 C1861 0.949 . S
H1886 C1863 0.950 . S
H1887 C1865 0.971 . S
C1888 C1889 1.349 . S
C1888 C1890 1.327 . S
C1888 H1913 0.950 . S
C1889 C1888 1.349 . S
C1889 C1905 1.349 . S
C1890 C1888 1.327 . S
C1890 C1909 1.429 . S
C1890 H1914 0.950 . S
C1891 C1908 1.574 . S
C1891 C1910 1.368 . S
C1891 H1915 0.949 . S
H1892 C1896 0.949 . S
C1893 C1894 1.349 . S
C1893 C1895 1.327 . S
C1893 H1916 0.950 . S
C1894 C1893 1.349 . S
C1894 C1906 1.349 . S
C1895 C1893 1.327 . S
C1895 C1911 1.429 . S
C1895 H1917 0.950 . S
C1896 H1892 0.949 . S
C1896 C1904 1.574 . S
C1896 C1912 1.368 . S
H1897 C1905 0.950 . S
H1898 C1903 0.950 . S
H1899 C1904 0.949 . S
H1900 C1906 0.950 . S
H1901 C1907 0.950 . S
H1902 C1908 0.949 . S
C1903 H1898 0.950 . S
C1903 C1905 1.327 . S
C1903 C1909 1.429 . S
C1904 C1896 1.574 . S
C1904 H1899 0.949 . S
C1904 C1910 1.368 . S
C1905 C1889 1.349 . S
C1905 H1897 0.950 . S
C1905 C1903 1.327 . S
C1906 C1894 1.349 . S
C1906 H1900 0.950 . S
C1906 C1907 1.327 . S
C1907 H1901 0.950 . S
C1907 C1906 1.327 . S
C1907 C1911 1.429 . S
C1908 C1891 1.574 . S
C1908 H1902 0.949 . S
C1908 C1912 1.368 . S
C1909 C1890 1.429 . S
C1909 C1903 1.429 . S
C1909 C1910 1.523 . S
C1910 C1891 1.368 . S
C1910 C1904 1.368 . S
C1910 C1909 1.523 . S
C1911 C1895 1.429 . S
C1911 C1907 1.429 . S
C1911 C1912 1.523 . S
C1912 C1896 1.368 . S
C1912 C1908 1.368 . S
C1912 C1911 1.523 . S
H1913 C1888 0.950 . S
H1914 C1890 0.950 . S
H1915 C1891 0.949 . S
H1916 C1893 0.950 . S
H1917 C1895 0.950 . S
C1918 C1919 1.349 . S
C1918 C1920 1.327 . S
C1918 H1943 0.950 . S
C1919 C1918 1.349 . S
C1919 C1935 1.349 . S
C1920 C1918 1.327 . S
C1920 C1939 1.429 . S
C1920 H1944 0.950 . S
C1921 C1938 1.574 . S
C1921 C1940 1.368 . S
C1921 H1945 0.949 . S
H1922 C1926 0.949 . S
C1923 C1924 1.349 . S
C1923 C1925 1.327 . S
C1923 H1946 0.950 . S
C1924 C1923 1.349 . S
C1924 C1936 1.349 . S
C1925 C1923 1.327 . S
C1925 C1941 1.429 . S
C1925 H1947 0.950 . S
C1926 H1922 0.949 . S
C1926 C1934 1.574 . S
C1926 C1942 1.368 . S
H1927 C1935 0.950 . S
H1928 C1933 0.950 . S
H1929 C1934 0.949 . S
H1930 C1936 0.950 . S
H1931 C1937 0.950 . S
H1932 C1938 0.949 . S
C1933 H1928 0.950 . S
C1933 C1935 1.327 . S
C1933 C1939 1.429 . S
C1934 C1926 1.574 . S
C1934 H1929 0.949 . S
C1934 C1940 1.368 . S
C1935 C1919 1.349 . S
C1935 H1927 0.950 . S
C1935 C1933 1.327 . S
C1936 C1924 1.349 . S
C1936 H1930 0.950 . S
C1936 C1937 1.327 . S
C1937 H1931 0.950 . S
C1937 C1936 1.327 . S
C1937 C1941 1.429 . S
C1938 C1921 1.574 . S
C1938 H1932 0.949 . S
C1938 C1942 1.368 . S
C1939 C1920 1.429 . S
C1939 C1933 1.429 . S
C1939 C1940 1.523 . S
C1940 C1921 1.368 . S
C1940 C1934 1.368 . S
C1940 C1939 1.523 . S
C1941 C1925 1.429 . S
C1941 C1937 1.429 . S
C1941 C1942 1.523 . S
C1942 C1926 1.368 . S
C1942 C1938 1.368 . S
C1942 C1941 1.523 . S
H1943 C1918 0.950 . S
H1944 C1920 0.950 . S
H1945 C1921 0.949 . S
H1946 C1923 0.950 . S
H1947 C1925 0.950 . S
C1948 C1949 1.349 . S
C1948 C1950 1.327 . S
C1948 H1973 0.950 . S
C1949 C1948 1.349 . S
C1949 C1965 1.349 . S
C1950 C1948 1.327 . S
C1950 C1969 1.429 . S
C1950 H1974 0.950 . S
C1951 C1968 1.574 . S
C1951 C1970 1.368 . S
C1951 H1975 0.949 . S
H1952 C1956 0.949 . S
C1953 C1954 1.349 . S
C1953 C1955 1.327 . S
C1953 H1976 0.950 . S
C1954 C1953 1.349 . S
C1954 C1966 1.349 . S
C1955 C1953 1.327 . S
C1955 C1971 1.429 . S
C1955 H1977 0.950 . S
C1956 H1952 0.949 . S
C1956 C1964 1.574 . S
C1956 C1972 1.368 . S
H1957 C1965 0.950 . S
H1958 C1963 0.950 . S
H1959 C1964 0.949 . S
H1960 C1966 0.950 . S
H1961 C1967 0.950 . S
H1962 C1968 0.949 . S
C1963 H1958 0.950 . S
C1963 C1965 1.327 . S
C1963 C1969 1.429 . S
C1964 C1956 1.574 . S
C1964 H1959 0.949 . S
C1964 C1970 1.368 . S
C1965 C1949 1.349 . S
C1965 H1957 0.950 . S
C1965 C1963 1.327 . S
C1966 C1954 1.349 . S
C1966 H1960 0.950 . S
C1966 C1967 1.327 . S
C1967 H1961 0.950 . S
C1967 C1966 1.327 . S
C1967 C1971 1.429 . S
C1968 C1951 1.574 . S
C1968 H1962 0.949 . S
C1968 C1972 1.368 . S
C1969 C1950 1.429 . S
C1969 C1963 1.429 . S
C1969 C1970 1.523 . S
C1970 C1951 1.368 . S
C1970 C1964 1.368 . S
C1970 C1969 1.523 . S
C1971 C1955 1.429 . S
C1971 C1967 1.429 . S
C1971 C1972 1.523 . S
C1972 C1956 1.368 . S
C1972 C1968 1.368 . S
C1972 C1971 1.523 . S
H1973 C1948 0.950 . S
H1974 C1950 0.950 . S
H1975 C1951 0.949 . S
H1976 C1953 0.950 . S
H1977 C1955 0.950 . S
C1978 C1979 1.349 . S
C1978 C1980 1.327 . S
C1978 H2003 0.950 . S
C1979 C1978 1.349 . S
C1979 C1995 1.349 . S
C1980 C1978 1.327 . S
C1980 C1999 1.429 . S
C1980 H2004 0.950 . S
C1981 C1998 1.574 . S
C1981 C2000 1.368 . S
C1981 H2005 0.949 . S
H1982 C1986 0.949 . S
C1983 C1984 1.349 . S
C1983 C1985 1.327 . S
C1983 H2006 0.950 . S
C1984 C1983 1.349 . S
C1984 C1996 1.349 . S
C1985 C1983 1.327 . S
C1985 C2001 1.429 . S
C1985 H2007 0.950 . S
C1986 H1982 0.949 . S
C1986 C1994 1.574 . S
C1986 C2002 1.368 . S
H1987 C1995 0.950 . S
H1988 C1993 0.950 . S
H1989 C1994 0.949 . S
H1990 C1996 0.950 . S
H1991 C1997 0.950 . S
H1992 C1998 0.949 . S
C1993 H1988 0.950 . S
C1993 C1995 1.327 . S
C1993 C1999 1.429 . S
C1994 C1986 1.574 . S
C1994 H1989 0.949 . S
C1994 C2000 1.368 . S
C1995 C1979 1.349 . S
C1995 H1987 0.950 . S
C1995 C1993 1.327 . S
C1996 C1984 1.349 . S
C1996 H1990 0.950 . S
C1996 C1997 1.327 . S
C1997 H1991 0.950 . S
C1997 C1996 1.327 . S
C1997 C2001 1.429 . S
C1998 C1981 1.574 . S
C1998 H1992 0.949 . S
C1998 C2002 1.368 . S
C1999 C1980 1.429 . S
C1999 C1993 1.429 . S
C1999 C2000 1.523 . S
C2000 C1981 1.368 . S
C2000 C1994 1.368 . S
C2000 C1999 1.523 . S
C2001 C1985 1.429 . S
C2001 C1997 1.429 . S
C2001 C2002 1.523 . S
C2002 C1986 1.368 . S
C2002 C1998 1.368 . S
C2002 C2001 1.523 . S
H2003 C1978 0.950 . S
H2004 C1980 0.950 . S
H2005 C1981 0.949 . S
H2006 C1983 0.950 . S
H2007 C1985 0.950 . S
C2008 C2009 1.349 . S
C2008 C2010 1.327 . S
C2008 H2033 0.950 . S
C2009 C2008 1.349 . S
C2009 C2025 1.349 . S
C2010 C2008 1.327 . S
C2010 C2029 1.429 . S
C2010 H2034 0.950 . S
C2011 C2028 1.574 . S
C2011 C2030 1.368 . S
C2011 H2035 0.949 . S
H2012 C2016 0.949 . S
C2013 C2014 1.349 . S
C2013 C2015 1.327 . S
C2013 H2036 0.950 . S
C2014 C2013 1.349 . S
C2014 C2026 1.349 . S
C2015 C2013 1.327 . S
C2015 C2031 1.429 . S
C2015 H2037 0.950 . S
C2016 H2012 0.949 . S
C2016 C2024 1.574 . S
C2016 C2032 1.368 . S
H2017 C2025 0.950 . S
H2018 C2023 0.950 . S
H2019 C2024 0.949 . S
H2020 C2026 0.950 . S
H2021 C2027 0.950 . S
H2022 C2028 0.949 . S
C2023 H2018 0.950 . S
C2023 C2025 1.327 . S
C2023 C2029 1.429 . S
C2024 C2016 1.574 . S
C2024 H2019 0.949 . S
C2024 C2030 1.368 . S
C2025 C2009 1.349 . S
C2025 H2017 0.950 . S
C2025 C2023 1.327 . S
C2026 C2014 1.349 . S
C2026 H2020 0.950 . S
C2026 C2027 1.327 . S
C2027 H2021 0.950 . S
C2027 C2026 1.327 . S
C2027 C2031 1.429 . S
C2028 C2011 1.574 . S
C2028 H2022 0.949 . S
C2028 C2032 1.368 . S
C2029 C2010 1.429 . S
C2029 C2023 1.429 . S
C2029 C2030 1.523 . S
C2030 C2011 1.368 . S
C2030 C2024 1.368 . S
C2030 C2029 1.523 . S
C2031 C2015 1.429 . S
C2031 C2027 1.429 . S
C2031 C2032 1.523 . S
C2032 C2016 1.368 . S
C2032 C2028 1.368 . S
C2032 C2031 1.523 . S
H2033 C2008 0.950 . S
H2034 C2010 0.950 . S
H2035 C2011 0.949 . S
H2036 C2013 0.950 . S
H2037 C2015 0.950 . S
C2038 C2039 1.349 . S
C2038 C2040 1.327 . S
C2038 H2063 0.950 . S
C2039 C2038 1.349 . S
C2039 C2055 1.349 . S
C2040 C2038 1.327 . S
C2040 C2059 1.429 . S
C2040 H2064 0.950 . S
C2041 C2058 1.574 . S
C2041 C2060 1.368 . S
C2041 H2065 0.949 . S
H2042 C2046 0.949 . S
C2043 C2044 1.349 . S
C2043 C2045 1.327 . S
C2043 H2066 0.950 . S
C2044 C2043 1.349 . S
C2044 C2056 1.349 . S
C2045 C2043 1.327 . S
C2045 C2061 1.429 . S
C2045 H2067 0.950 . S
C2046 H2042 0.949 . S
C2046 C2054 1.574 . S
C2046 C2062 1.368 . S
H2047 C2055 0.950 . S
H2048 C2053 0.950 . S
H2049 C2054 0.949 . S
H2050 C2056 0.950 . S
H2051 C2057 0.950 . S
H2052 C2058 0.949 . S
C2053 H2048 0.950 . S
C2053 C2055 1.327 . S
C2053 C2059 1.429 . S
C2054 C2046 1.574 . S
C2054 H2049 0.949 . S
C2054 C2060 1.368 . S
C2055 C2039 1.349 . S
C2055 H2047 0.950 . S
C2055 C2053 1.327 . S
C2056 C2044 1.349 . S
C2056 H2050 0.950 . S
C2056 C2057 1.327 . S
C2057 H2051 0.950 . S
C2057 C2056 1.327 . S
C2057 C2061 1.429 . S
C2058 C2041 1.574 . S
C2058 H2052 0.949 . S
C2058 C2062 1.368 . S
C2059 C2040 1.429 . S
C2059 C2053 1.429 . S
C2059 C2060 1.523 . S
C2060 C2041 1.368 . S
C2060 C2054 1.368 . S
C2060 C2059 1.523 . S
C2061 C2045 1.429 . S
C2061 C2057 1.429 . S
C2061 C2062 1.523 . S
C2062 C2046 1.368 . S
C2062 C2058 1.368 . S
C2062 C2061 1.523 . S
H2063 C2038 0.950 . S
H2064 C2040 0.950 . S
H2065 C2041 0.949 . S
H2066 C2043 0.950 . S
H2067 C2045 0.950 . S
C2068 C2069 1.349 . S
C2068 C2070 1.327 . S
C2068 H2093 0.950 . S
C2069 C2068 1.349 . S
C2069 C2085 1.349 . S
C2070 C2068 1.327 . S
C2070 C2089 1.429 . S
C2070 H2094 0.950 . S
C2071 C2088 1.574 . S
C2071 C2090 1.368 . S
C2071 H2095 0.949 . S
H2072 C2076 0.949 . S
C2073 C2074 1.349 . S
C2073 C2075 1.327 . S
C2073 H2096 0.950 . S
C2074 C2073 1.349 . S
C2074 C2086 1.349 . S
C2075 C2073 1.327 . S
C2075 C2091 1.429 . S
C2075 H2097 0.950 . S
C2076 H2072 0.949 . S
C2076 C2084 1.574 . S
C2076 C2092 1.368 . S
H2077 C2085 0.950 . S
H2078 C2083 0.950 . S
H2079 C2084 0.949 . S
H2080 C2086 0.950 . S
H2081 C2087 0.950 . S
H2082 C2088 0.949 . S
C2083 H2078 0.950 . S
C2083 C2085 1.327 . S
C2083 C2089 1.429 . S
C2084 C2076 1.574 . S
C2084 H2079 0.949 . S
C2084 C2090 1.368 . S
C2085 C2069 1.349 . S
C2085 H2077 0.950 . S
C2085 C2083 1.327 . S
C2086 C2074 1.349 . S
C2086 H2080 0.950 . S
C2086 C2087 1.327 . S
C2087 H2081 0.950 . S
C2087 C2086 1.327 . S
C2087 C2091 1.429 . S
C2088 C2071 1.574 . S
C2088 H2082 0.949 . S
C2088 C2092 1.368 . S
C2089 C2070 1.429 . S
C2089 C2083 1.429 . S
C2089 C2090 1.523 . S
C2090 C2071 1.368 . S
C2090 C2084 1.368 . S
C2090 C2089 1.523 . S
C2091 C2075 1.429 . S
C2091 C2087 1.429 . S
C2091 C2092 1.523 . S
C2092 C2076 1.368 . S
C2092 C2088 1.368 . S
C2092 C2091 1.523 . S
H2093 C2068 0.950 . S
H2094 C2070 0.950 . S
H2095 C2071 0.949 . S
H2096 C2073 0.950 . S
H2097 C2075 0.950 . S
C2098 C2099 1.349 . S
C2098 C2100 1.327 . S
C2098 H2123 0.950 . S
C2099 C2098 1.349 . S
C2099 C2115 1.349 . S
C2100 C2098 1.327 . S
C2100 C2119 1.429 . S
C2100 H2124 0.950 . S
C2101 C2118 1.574 . S
C2101 C2120 1.368 . S
C2101 H2125 0.949 . S
H2102 C2106 0.949 . S
C2103 C2104 1.349 . S
C2103 C2105 1.327 . S
C2103 H2126 0.950 . S
C2104 C2103 1.349 . S
C2104 C2116 1.349 . S
C2105 C2103 1.327 . S
C2105 C2121 1.429 . S
C2105 H2127 0.950 . S
C2106 H2102 0.949 . S
C2106 C2114 1.574 . S
C2106 C2122 1.368 . S
H2107 C2115 0.950 . S
H2108 C2113 0.950 . S
H2109 C2114 0.949 . S
H2110 C2116 0.950 . S
H2111 C2117 0.950 . S
H2112 C2118 0.949 . S
C2113 H2108 0.950 . S
C2113 C2115 1.327 . S
C2113 C2119 1.429 . S
C2114 C2106 1.574 . S
C2114 H2109 0.949 . S
C2114 C2120 1.368 . S
C2115 C2099 1.349 . S
C2115 H2107 0.950 . S
C2115 C2113 1.327 . S
C2116 C2104 1.349 . S
C2116 H2110 0.950 . S
C2116 C2117 1.327 . S
C2117 H2111 0.950 . S
C2117 C2116 1.327 . S
C2117 C2121 1.429 . S
C2118 C2101 1.574 . S
C2118 H2112 0.949 . S
C2118 C2122 1.368 . S
C2119 C2100 1.429 . S
C2119 C2113 1.429 . S
C2119 C2120 1.523 . S
C2120 C2101 1.368 . S
C2120 C2114 1.368 . S
C2120 C2119 1.523 . S
C2121 C2105 1.429 . S
C2121 C2117 1.429 . S
C2121 C2122 1.523 . S
C2122 C2106 1.368 . S
C2122 C2118 1.368 . S
C2122 C2121 1.523 . S
H2123 C2098 0.950 . S
H2124 C2100 0.950 . S
H2125 C2101 0.949 . S
H2126 C2103 0.950 . S
H2127 C2105 0.950 . S
C2128 C2129 1.349 . S
C2128 C2130 1.327 . S
C2128 H2153 0.950 . S
C2129 C2128 1.349 . S
C2129 C2145 1.349 . S
C2130 C2128 1.327 . S
C2130 C2149 1.429 . S
C2130 H2154 0.950 . S
C2131 C2148 1.574 . S
C2131 C2150 1.368 . S
C2131 H2155 0.949 . S
H2132 C2136 0.949 . S
C2133 C2134 1.349 . S
C2133 C2135 1.327 . S
C2133 H2156 0.950 . S
C2134 C2133 1.349 . S
C2134 C2146 1.349 . S
C2135 C2133 1.327 . S
C2135 C2151 1.429 . S
C2135 H2157 0.950 . S
C2136 H2132 0.949 . S
C2136 C2144 1.574 . S
C2136 C2152 1.368 . S
H2137 C2145 0.950 . S
H2138 C2143 0.950 . S
H2139 C2144 0.949 . S
H2140 C2146 0.950 . S
H2141 C2147 0.950 . S
H2142 C2148 0.949 . S
C2143 H2138 0.950 . S
C2143 C2145 1.327 . S
C2143 C2149 1.429 . S
C2144 C2136 1.574 . S
C2144 H2139 0.949 . S
C2144 C2150 1.368 . S
C2145 C2129 1.349 . S
C2145 H2137 0.950 . S
C2145 C2143 1.327 . S
C2146 C2134 1.349 . S
C2146 H2140 0.950 . S
C2146 C2147 1.327 . S
C2147 H2141 0.950 . S
C2147 C2146 1.327 . S
C2147 C2151 1.429 . S
C2148 C2131 1.574 . S
C2148 H2142 0.949 . S
C2148 C2152 1.368 . S
C2149 C2130 1.429 . S
C2149 C2143 1.429 . S
C2149 C2150 1.523 . S
C2150 C2131 1.368 . S
C2150 C2144 1.368 . S
C2150 C2149 1.523 . S
C2151 C2135 1.429 . S
C2151 C2147 1.429 . S
C2151 C2152 1.523 . S
C2152 C2136 1.368 . S
C2152 C2148 1.368 . S
C2152 C2151 1.523 . S
H2153 C2128 0.950 . S
H2154 C2130 0.950 . S
H2155 C2131 0.949 . S
H2156 C2133 0.950 . S
H2157 C2135 0.950 . S
C2158 C2159 1.349 . S
C2158 C2160 1.327 . S
C2158 H2183 0.950 . S
C2159 C2158 1.349 . S
C2159 C2175 1.349 . S
C2160 C2158 1.327 . S
C2160 C2179 1.429 . S
C2160 H2184 0.950 . S
C2161 C2178 1.574 . S
C2161 C2180 1.368 . S
C2161 H2185 0.949 . S
H2162 C2166 0.949 . S
C2163 C2164 1.349 . S
C2163 C2165 1.327 . S
C2163 H2186 0.950 . S
C2164 C2163 1.349 . S
C2164 C2176 1.349 . S
C2165 C2163 1.327 . S
C2165 C2181 1.429 . S
C2165 H2187 0.950 . S
C2166 H2162 0.949 . S
C2166 C2174 1.574 . S
C2166 C2182 1.368 . S
H2167 C2175 0.950 . S
H2168 C2173 0.950 . S
H2169 C2174 0.949 . S
H2170 C2176 0.950 . S
H2171 C2177 0.950 . S
H2172 C2178 0.949 . S
C2173 H2168 0.950 . S
C2173 C2175 1.327 . S
C2173 C2179 1.429 . S
C2174 C2166 1.574 . S
C2174 H2169 0.949 . S
C2174 C2180 1.368 . S
C2175 C2159 1.349 . S
C2175 H2167 0.950 . S
C2175 C2173 1.327 . S
C2176 C2164 1.349 . S
C2176 H2170 0.950 . S
C2176 C2177 1.327 . S
C2177 H2171 0.950 . S
C2177 C2176 1.327 . S
C2177 C2181 1.429 . S
C2178 C2161 1.574 . S
C2178 H2172 0.949 . S
C2178 C2182 1.368 . S
C2179 C2160 1.429 . S
C2179 C2173 1.429 . S
C2179 C2180 1.523 . S
C2180 C2161 1.368 . S
C2180 C2174 1.368 . S
C2180 C2179 1.523 . S
C2181 C2165 1.429 . S
C2181 C2177 1.429 . S
C2181 C2182 1.523 . S
C2182 C2166 1.368 . S
C2182 C2178 1.368 . S
C2182 C2181 1.523 . S
H2183 C2158 0.950 . S
H2184 C2160 0.950 . S
H2185 C2161 0.949 . S
H2186 C2163 0.950 . S
H2187 C2165 0.950 . S
C2188 C2189 1.349 . S
C2188 C2190 1.327 . S
C2188 H2213 0.950 . S
C2189 C2188 1.349 . S
C2189 C2205 1.349 . S
C2190 C2188 1.327 . S
C2190 C2209 1.429 . S
C2190 H2214 0.950 . S
C2191 C2208 1.574 . S
C2191 C2210 1.368 . S
C2191 H2215 0.949 . S
H2192 C2196 0.949 . S
C2193 C2194 1.349 . S
C2193 C2195 1.327 . S
C2193 H2216 0.950 . S
C2194 C2193 1.349 . S
C2194 C2206 1.349 . S
C2195 C2193 1.327 . S
C2195 C2211 1.429 . S
C2195 H2217 0.950 . S
C2196 H2192 0.949 . S
C2196 C2204 1.574 . S
C2196 C2212 1.368 . S
H2197 C2205 0.950 . S
H2198 C2203 0.950 . S
H2199 C2204 0.949 . S
H2200 C2206 0.950 . S
H2201 C2207 0.950 . S
H2202 C2208 0.949 . S
C2203 H2198 0.950 . S
C2203 C2205 1.327 . S
C2203 C2209 1.429 . S
C2204 C2196 1.574 . S
C2204 H2199 0.949 . S
C2204 C2210 1.368 . S
C2205 C2189 1.349 . S
C2205 H2197 0.950 . S
C2205 C2203 1.327 . S
C2206 C2194 1.349 . S
C2206 H2200 0.950 . S
C2206 C2207 1.327 . S
C2207 H2201 0.950 . S
C2207 C2206 1.327 . S
C2207 C2211 1.429 . S
C2208 C2191 1.574 . S
C2208 H2202 0.949 . S
C2208 C2212 1.368 . S
C2209 C2190 1.429 . S
C2209 C2203 1.429 . S
C2209 C2210 1.523 . S
C2210 C2191 1.368 . S
C2210 C2204 1.368 . S
C2210 C2209 1.523 . S
C2211 C2195 1.429 . S
C2211 C2207 1.429 . S
C2211 C2212 1.523 . S
C2212 C2196 1.368 . S
C2212 C2208 1.368 . S
C2212 C2211 1.523 . S
H2213 C2188 0.950 . S
H2214 C2190 0.950 . S
H2215 C2191 0.949 . S
H2216 C2193 0.950 . S
H2217 C2195 0.950 . S
C2218 C2219 1.349 . S
C2218 C2220 1.327 . S
C2218 H2243 0.950 . S
C2219 C2218 1.349 . S
C2219 C2235 1.349 . S
C2220 C2218 1.327 . S
C2220 C2239 1.429 . S
C2220 H2244 0.950 . S
C2221 C2238 1.574 . S
C2221 C2240 1.368 . S
C2221 H2245 0.949 . S
H2222 C2226 0.949 . S
C2223 C2224 1.349 . S
C2223 C2225 1.327 . S
C2223 H2246 0.950 . S
C2224 C2223 1.349 . S
C2224 C2236 1.349 . S
C2225 C2223 1.327 . S
C2225 C2241 1.429 . S
C2225 H2247 0.950 . S
C2226 H2222 0.949 . S
C2226 C2234 1.574 . S
C2226 C2242 1.368 . S
H2227 C2235 0.950 . S
H2228 C2233 0.950 . S
H2229 C2234 0.949 . S
H2230 C2236 0.950 . S
H2231 C2237 0.950 . S
H2232 C2238 0.949 . S
C2233 H2228 0.950 . S
C2233 C2235 1.327 . S
C2233 C2239 1.429 . S
C2234 C2226 1.574 . S
C2234 H2229 0.949 . S
C2234 C2240 1.368 . S
C2235 C2219 1.349 . S
C2235 H2227 0.950 . S
C2235 C2233 1.327 . S
C2236 C2224 1.349 . S
C2236 H2230 0.950 . S
C2236 C2237 1.327 . S
C2237 H2231 0.950 . S
C2237 C2236 1.327 . S
C2237 C2241 1.429 . S
C2238 C2221 1.574 . S
C2238 H2232 0.949 . S
C2238 C2242 1.368 . S
C2239 C2220 1.429 . S
C2239 C2233 1.429 . S
C2239 C2240 1.523 . S
C2240 C2221 1.368 . S
C2240 C2234 1.368 . S
C2240 C2239 1.523 . S
C2241 C2225 1.429 . S
C2241 C2237 1.429 . S
C2241 C2242 1.523 . S
C2242 C2226 1.368 . S
C2242 C2238 1.368 . S
C2242 C2241 1.523 . S
H2243 C2218 0.950 . S
H2244 C2220 0.950 . S
H2245 C2221 0.949 . S
H2246 C2223 0.950 . S
H2247 C2225 0.950 . S
C2248 C2249 1.349 . S
C2248 C2250 1.327 . S
C2248 H2273 0.950 . S
C2249 C2248 1.349 . S
C2249 C2265 1.349 . S
C2250 C2248 1.327 . S
C2250 C2269 1.429 . S
C2250 H2274 0.950 . S
C2251 C2268 1.574 . S
C2251 C2270 1.368 . S
C2251 H2275 0.949 . S
H2252 C2256 0.949 . S
C2253 C2254 1.349 . S
C2253 C2255 1.327 . S
C2253 H2276 0.950 . S
C2254 C2253 1.349 . S
C2254 C2266 1.349 . S
C2255 C2253 1.327 . S
C2255 C2271 1.429 . S
C2255 H2277 0.950 . S
C2256 H2252 0.949 . S
C2256 C2264 1.574 . S
C2256 C2272 1.368 . S
H2257 C2265 0.950 . S
H2258 C2263 0.950 . S
H2259 C2264 0.949 . S
H2260 C2266 0.950 . S
H2261 C2267 0.950 . S
H2262 C2268 0.949 . S
C2263 H2258 0.950 . S
C2263 C2265 1.327 . S
C2263 C2269 1.429 . S
C2264 C2256 1.574 . S
C2264 H2259 0.949 . S
C2264 C2270 1.368 . S
C2265 C2249 1.349 . S
C2265 H2257 0.950 . S
C2265 C2263 1.327 . S
C2266 C2254 1.349 . S
C2266 H2260 0.950 . S
C2266 C2267 1.327 . S
C2267 H2261 0.950 . S
C2267 C2266 1.327 . S
C2267 C2271 1.429 . S
C2268 C2251 1.574 . S
C2268 H2262 0.949 . S
C2268 C2272 1.368 . S
C2269 C2250 1.429 . S
C2269 C2263 1.429 . S
C2269 C2270 1.523 . S
C2270 C2251 1.368 . S
C2270 C2264 1.368 . S
C2270 C2269 1.523 . S
C2271 C2255 1.429 . S
C2271 C2267 1.429 . S
C2271 C2272 1.523 . S
C2272 C2256 1.368 . S
C2272 C2268 1.368 . S
C2272 C2271 1.523 . S
H2273 C2248 0.950 . S
H2274 C2250 0.950 . S
H2275 C2251 0.949 . S
H2276 C2253 0.950 . S
H2277 C2255 0.950 . S
C2278 C2279 1.349 . S
C2278 C2280 1.327 . S
C2278 H2303 0.950 . S
C2279 C2278 1.349 . S
C2279 C2295 1.349 . S
C2280 C2278 1.327 . S
C2280 C2299 1.429 . S
C2280 H2304 0.950 . S
C2281 C2298 1.574 . S
C2281 C2300 1.368 . S
C2281 H2305 0.949 . S
H2282 C2286 0.949 . S
C2283 C2284 1.349 . S
C2283 C2285 1.327 . S
C2283 H2306 0.950 . S
C2284 C2283 1.349 . S
C2284 C2296 1.349 . S
C2285 C2283 1.327 . S
C2285 C2301 1.429 . S
C2285 H2307 0.950 . S
C2286 H2282 0.949 . S
C2286 C2294 1.574 . S
C2286 C2302 1.368 . S
H2287 C2295 0.950 . S
H2288 C2293 0.950 . S
H2289 C2294 0.949 . S
H2290 C2296 0.950 . S
H2291 C2297 0.950 . S
H2292 C2298 0.949 . S
C2293 H2288 0.950 . S
C2293 C2295 1.327 . S
C2293 C2299 1.429 . S
C2294 C2286 1.574 . S
C2294 H2289 0.949 . S
C2294 C2300 1.368 . S
C2295 C2279 1.349 . S
C2295 H2287 0.950 . S
C2295 C2293 1.327 . S
C2296 C2284 1.349 . S
C2296 H2290 0.950 . S
C2296 C2297 1.327 . S
C2297 H2291 0.950 . S
C2297 C2296 1.327 . S
C2297 C2301 1.429 . S
C2298 C2281 1.574 . S
C2298 H2292 0.949 . S
C2298 C2302 1.368 . S
C2299 C2280 1.429 . S
C2299 C2293 1.429 . S
C2299 C2300 1.523 . S
C2300 C2281 1.368 . S
C2300 C2294 1.368 . S
C2300 C2299 1.523 . S
C2301 C2285 1.429 . S
C2301 C2297 1.429 . S
C2301 C2302 1.523 . S
C2302 C2286 1.368 . S
C2302 C2298 1.368 . S
C2302 C2301 1.523 . S
H2303 C2278 0.950 . S
H2304 C2280 0.950 . S
H2305 C2281 0.949 . S
H2306 C2283 0.950 . S
H2307 C2285 0.950 . S
C2308 C2309 1.349 . S
C2308 C2310 1.327 . S
C2308 H2333 0.950 . S
C2309 C2308 1.349 . S
C2309 C2325 1.349 . S
C2310 C2308 1.327 . S
C2310 C2329 1.429 . S
C2310 H2334 0.950 . S
C2311 C2328 1.574 . S
C2311 C2330 1.368 . S
C2311 H2335 0.949 . S
H2312 C2316 0.949 . S
C2313 C2314 1.349 . S
C2313 C2315 1.327 . S
C2313 H2336 0.950 . S
C2314 C2313 1.349 . S
C2314 C2326 1.349 . S
C2315 C2313 1.327 . S
C2315 C2331 1.429 . S
C2315 H2337 0.950 . S
C2316 H2312 0.949 . S
C2316 C2324 1.574 . S
C2316 C2332 1.368 . S
H2317 C2325 0.950 . S
H2318 C2323 0.950 . S
H2319 C2324 0.949 . S
H2320 C2326 0.950 . S
H2321 C2327 0.950 . S
H2322 C2328 0.949 . S
C2323 H2318 0.950 . S
C2323 C2325 1.327 . S
C2323 C2329 1.429 . S
C2324 C2316 1.574 . S
C2324 H2319 0.949 . S
C2324 C2330 1.368 . S
C2325 C2309 1.349 . S
C2325 H2317 0.950 . S
C2325 C2323 1.327 . S
C2326 C2314 1.349 . S
C2326 H2320 0.950 . S
C2326 C2327 1.327 . S
C2327 H2321 0.950 . S
C2327 C2326 1.327 . S
C2327 C2331 1.429 . S
C2328 C2311 1.574 . S
C2328 H2322 0.949 . S
C2328 C2332 1.368 . S
C2329 C2310 1.429 . S
C2329 C2323 1.429 . S
C2329 C2330 1.523 . S
C2330 C2311 1.368 . S
C2330 C2324 1.368 . S
C2330 C2329 1.523 . S
C2331 C2315 1.429 . S
C2331 C2327 1.429 . S
C2331 C2332 1.523 . S
C2332 C2316 1.368 . S
C2332 C2328 1.368 . S
C2332 C2331 1.523 . S
H2333 C2308 0.950 . S
H2334 C2310 0.950 . S
H2335 C2311 0.949 . S
H2336 C2313 0.950 . S
H2337 C2315 0.950 . S
C2338 C2339 1.349 . S
C2338 C2340 1.327 . S
C2338 H2363 0.950 . S
C2339 C2338 1.349 . S
C2339 C2355 1.349 . S
C2340 C2338 1.327 . S
C2340 C2359 1.429 . S
C2340 H2364 0.950 . S
C2341 C2358 1.574 . S
C2341 C2360 1.368 . S
C2341 H2365 0.949 . S
H2342 C2346 0.949 . S
C2343 C2344 1.349 . S
C2343 C2345 1.327 . S
C2343 H2366 0.950 . S
C2344 C2343 1.349 . S
C2344 C2356 1.349 . S
C2345 C2343 1.327 . S
C2345 C2361 1.429 . S
C2345 H2367 0.950 . S
C2346 H2342 0.949 . S
C2346 C2354 1.574 . S
C2346 C2362 1.368 . S
H2347 C2355 0.950 . S
H2348 C2353 0.950 . S
H2349 C2354 0.949 . S
H2350 C2356 0.950 . S
H2351 C2357 0.950 . S
H2352 C2358 0.949 . S
C2353 H2348 0.950 . S
C2353 C2355 1.327 . S
C2353 C2359 1.429 . S
C2354 C2346 1.574 . S
C2354 H2349 0.949 . S
C2354 C2360 1.368 . S
C2355 C2339 1.349 . S
C2355 H2347 0.950 . S
C2355 C2353 1.327 . S
C2356 C2344 1.349 . S
C2356 H2350 0.950 . S
C2356 C2357 1.327 . S
C2357 H2351 0.950 . S
C2357 C2356 1.327 . S
C2357 C2361 1.429 . S
C2358 C2341 1.574 . S
C2358 H2352 0.949 . S
C2358 C2362 1.368 . S
C2359 C2340 1.429 . S
C2359 C2353 1.429 . S
C2359 C2360 1.523 . S
C2360 C2341 1.368 . S
C2360 C2354 1.368 . S
C2360 C2359 1.523 . S
C2361 C2345 1.429 . S
C2361 C2357 1.429 . S
C2361 C2362 1.523 . S
C2362 C2346 1.368 . S
C2362 C2358 1.368 . S
C2362 C2361 1.523 . S
H2363 C2338 0.950 . S
H2364 C2340 0.950 . S
H2365 C2341 0.949 . S
H2366 C2343 0.950 . S
H2367 C2345 0.950 . S
C449 C149 1.150 . S
C454 C9 1.150 . S
C479 C23 1.150 . S
C484 C163 1.150 . S
C509 C37 1.150 . S
C514 C121 1.150 . S
C539 C135 1.150 . S
C544 C51 1.150 . S
C569 C205 1.150 . S
C574 C65 1.150 . S
C599 C79 1.150 . S
C604 C219 1.150 . S
C629 C177 1.151 . S
C634 C93 1.151 . S
C659 C191 1.151 . S
C664 C107 1.151 . S
C689 C373 1.150 . S
C694 C233 1.150 . S
C719 C387 1.150 . S
C724 C247 1.150 . S
C749 C345 1.150 . S
C754 C261 1.150 . S
C779 C275 1.150 . S
C784 C359 1.150 . S
C809 C429 1.150 . S
C814 C289 1.150 . S
C839 C443 1.150 . S
C844 C303 1.150 . S
C869 C317 1.151 . S
C874 C401 1.151 . S
C899 C331 1.151 . S
C904 C415 1.151 . S
C929 C277 1.214 . S
C934 C11 1.214 . S
C959 C25 1.214 . S
C964 C263 1.214 . S
C989 C249 1.214 . S
C994 C39 1.214 . S
C1019 C235 1.214 . S
C1024 C53 1.214 . S
C1049 C67 1.214 . S
C1054 C333 1.214 . S
C1079 C81 1.214 . S
C1084 C319 1.214 . S
C1109 C305 1.214 . S
C1114 C95 1.214 . S
C1139 C109 1.214 . S
C1144 C291 1.214 . S
C1169 C389 1.214 . S
C1174 C123 1.214 . S
C1199 C375 1.214 . S
C1204 C137 1.214 . S
C1229 C361 1.214 . S
C1234 C151 1.214 . S
C1259 C347 1.214 . S
C1264 C165 1.214 . S
C1289 C179 1.214 . S
C1294 C445 1.214 . S
C1319 C431 1.214 . S
C1324 C193 1.214 . S
C1349 C207 1.214 . S
C1354 C417 1.214 . S
C1379 C221 1.214 . S
C1384 C403 1.214 . S
C1409 C168 1.203 . S
C1414 C0 1.203 . S
C1439 C14 1.204 . S
C1444 C294 1.204 . S
C1469 C84 1.204 . S
C1474 C28 1.204 . S
C1499 C434 1.204 . S
C1504 C42 1.204 . S
C1529 C56 1.204 . S
C1534 C112 1.204 . S
C1559 C238 1.204 . S
C1564 C70 1.204 . S
C1589 C378 1.204 . S
C1594 C98 1.204 . S
C1619 C406 1.204 . S
C1624 C126 1.204 . S
C1649 C140 1.204 . S
C1654 C196 1.204 . S
C1679 C322 1.204 . S
C1684 C154 1.204 . S
C1709 C350 1.204 . S
C1714 C182 1.204 . S
C1739 C210 1.204 . S
C1744 C266 1.204 . S
C1769 C224 1.203 . S
C1774 C392 1.203 . S
C1799 C308 1.204 . S
C1804 C252 1.204 . S
C1829 C336 1.204 . S
C1834 C280 1.204 . S
C1859 C364 1.204 . S
C1864 C420 1.204 . S
C1889 C5 0.880 . S
C1894 C47 0.880 . S
C1919 C33 0.880 . S
C1924 C19 0.880 . S
C1949 C61 0.880 . S
C1954 C103 0.880 . S
C1979 C75 0.880 . S
C1984 C89 0.880 . S
C2009 C117 0.880 . S
C2014 C159 0.880 . S
C2039 C131 0.880 . S
C2044 C145 0.880 . S
C2069 C173 0.880 . S
C2074 C215 0.880 . S
C2099 C201 0.880 . S
C2104 C187 0.880 . S
C2129 C271 0.880 . S
C2134 C229 0.880 . S
C2159 C257 0.880 . S
C2164 C243 0.880 . S
C2189 C327 0.880 . S
C2194 C285 0.880 . S
C2219 C313 0.880 . S
C2224 C299 0.880 . S
C2249 C383 0.880 . S
C2254 C341 0.880 . S
C2279 C369 0.880 . S
C2284 C355 0.880 . S
C2309 C397 0.880 . S
C2314 C439 0.880 . S
C2339 C425 0.880 . S
C2344 C411 0.880 . S
