# Generated by pormake.
# Topology kfi, (4)-cn, num edge types: 1
# Building blocks:
#     Node 0, Type 0, BuildingBlock: CEKHIL_clean_sbu_0, # of connection points: 4
#     Node 1, Type 0, BuildingBlock: CEKHIL_clean_sbu_0, # of connection points: 4
#     Node 2, Type 0, BuildingBlock: CEKHIL_clean_sbu_0, # of connection points: 4
#     Node 3, Type 0, BuildingBlock: CEKHIL_clean_sbu_0, # of connection points: 4
#     Node 4, Type 0, BuildingBlock: CEKHIL_clean_sbu_0, # of connection points: 4
#     Node 5, Type 0, BuildingBlock: CEKHIL_clean_sbu_0, # of connection points: 4
#     Node 6, Type 0, BuildingBlock: CEKHIL_clean_sbu_0, # of connection points: 4
#     Node 7, Type 0, BuildingBlock: CEKHIL_clean_sbu_0, # of connection points: 4
#     Node 8, Type 0, BuildingBlock: CEKHIL_clean_sbu_0, # of connection points: 4
#     Node 9, Type 0, BuildingBlock: CEKHIL_clean_sbu_0, # of connection points: 4
#     Node 10, Type 0, BuildingBlock: CEKHIL_clean_sbu_0, # of connection points: 4
#     Node 11, Type 0, BuildingBlock: CEKHIL_clean_sbu_0, # of connection points: 4
#     Node 12, Type 0, BuildingBlock: CEKHIL_clean_sbu_0, # of connection points: 4
#     Node 13, Type 0, BuildingBlock: CEKHIL_clean_sbu_0, # of connection points: 4
#     Node 14, Type 0, BuildingBlock: CEKHIL_clean_sbu_0, # of connection points: 4
#     Node 15, Type 0, BuildingBlock: CEKHIL_clean_sbu_0, # of connection points: 4
#     Node 16, Type 0, BuildingBlock: CEKHIL_clean_sbu_0, # of connection points: 4
#     Node 17, Type 0, BuildingBlock: CEKHIL_clean_sbu_0, # of connection points: 4
#     Node 18, Type 0, BuildingBlock: CEKHIL_clean_sbu_0, # of connection points: 4
#     Node 19, Type 0, BuildingBlock: CEKHIL_clean_sbu_0, # of connection points: 4
#     Node 20, Type 0, BuildingBlock: CEKHIL_clean_sbu_0, # of connection points: 4
#     Node 21, Type 0, BuildingBlock: CEKHIL_clean_sbu_0, # of connection points: 4
#     Node 22, Type 0, BuildingBlock: CEKHIL_clean_sbu_0, # of connection points: 4
#     Node 23, Type 0, BuildingBlock: CEKHIL_clean_sbu_0, # of connection points: 4
#     Node 24, Type 0, BuildingBlock: CEKHIL_clean_sbu_0, # of connection points: 4
#     Node 25, Type 0, BuildingBlock: CEKHIL_clean_sbu_0, # of connection points: 4
#     Node 26, Type 0, BuildingBlock: CEKHIL_clean_sbu_0, # of connection points: 4
#     Node 27, Type 0, BuildingBlock: CEKHIL_clean_sbu_0, # of connection points: 4
#     Node 28, Type 0, BuildingBlock: CEKHIL_clean_sbu_0, # of connection points: 4
#     Node 29, Type 0, BuildingBlock: CEKHIL_clean_sbu_0, # of connection points: 4
#     Node 30, Type 0, BuildingBlock: CEKHIL_clean_sbu_0, # of connection points: 4
#     Node 31, Type 0, BuildingBlock: CEKHIL_clean_sbu_0, # of connection points: 4
#     Node 32, Type 0, BuildingBlock: CEKHIL_clean_sbu_0, # of connection points: 4
#     Node 33, Type 0, BuildingBlock: CEKHIL_clean_sbu_0, # of connection points: 4
#     Node 34, Type 0, BuildingBlock: CEKHIL_clean_sbu_0, # of connection points: 4
#     Node 35, Type 0, BuildingBlock: CEKHIL_clean_sbu_0, # of connection points: 4
#     Node 36, Type 0, BuildingBlock: CEKHIL_clean_sbu_0, # of connection points: 4
#     Node 37, Type 0, BuildingBlock: CEKHIL_clean_sbu_0, # of connection points: 4
#     Node 38, Type 0, BuildingBlock: CEKHIL_clean_sbu_0, # of connection points: 4
#     Node 39, Type 0, BuildingBlock: CEKHIL_clean_sbu_0, # of connection points: 4
#     Node 40, Type 0, BuildingBlock: CEKHIL_clean_sbu_0, # of connection points: 4
#     Node 41, Type 0, BuildingBlock: CEKHIL_clean_sbu_0, # of connection points: 4
#     Node 42, Type 0, BuildingBlock: CEKHIL_clean_sbu_0, # of connection points: 4
#     Node 43, Type 0, BuildingBlock: CEKHIL_clean_sbu_0, # of connection points: 4
#     Node 44, Type 0, BuildingBlock: CEKHIL_clean_sbu_0, # of connection points: 4
#     Node 45, Type 0, BuildingBlock: CEKHIL_clean_sbu_0, # of connection points: 4
#     Node 46, Type 0, BuildingBlock: CEKHIL_clean_sbu_0, # of connection points: 4
#     Node 47, Type 0, BuildingBlock: CEKHIL_clean_sbu_0, # of connection points: 4
#     Node 48, Type 0, BuildingBlock: CEKHIL_clean_sbu_0, # of connection points: 4
#     Node 49, Type 0, BuildingBlock: CEKHIL_clean_sbu_0, # of connection points: 4
#     Node 50, Type 0, BuildingBlock: CEKHIL_clean_sbu_0, # of connection points: 4
#     Node 51, Type 0, BuildingBlock: CEKHIL_clean_sbu_0, # of connection points: 4
#     Node 52, Type 0, BuildingBlock: CEKHIL_clean_sbu_0, # of connection points: 4
#     Node 53, Type 0, BuildingBlock: CEKHIL_clean_sbu_0, # of connection points: 4
#     Node 54, Type 0, BuildingBlock: CEKHIL_clean_sbu_0, # of connection points: 4
#     Node 55, Type 0, BuildingBlock: CEKHIL_clean_sbu_0, # of connection points: 4
#     Node 56, Type 0, BuildingBlock: CEKHIL_clean_sbu_0, # of connection points: 4
#     Node 57, Type 0, BuildingBlock: CEKHIL_clean_sbu_0, # of connection points: 4
#     Node 58, Type 0, BuildingBlock: CEKHIL_clean_sbu_0, # of connection points: 4
#     Node 59, Type 0, BuildingBlock: CEKHIL_clean_sbu_0, # of connection points: 4
#     Node 60, Type 0, BuildingBlock: CEKHIL_clean_sbu_0, # of connection points: 4
#     Node 61, Type 0, BuildingBlock: CEKHIL_clean_sbu_0, # of connection points: 4
#     Node 62, Type 0, BuildingBlock: CEKHIL_clean_sbu_0, # of connection points: 4
#     Node 63, Type 0, BuildingBlock: CEKHIL_clean_sbu_0, # of connection points: 4
#     Node 64, Type 0, BuildingBlock: CEKHIL_clean_sbu_0, # of connection points: 4
#     Node 65, Type 0, BuildingBlock: CEKHIL_clean_sbu_0, # of connection points: 4
#     Node 66, Type 0, BuildingBlock: CEKHIL_clean_sbu_0, # of connection points: 4
#     Node 67, Type 0, BuildingBlock: CEKHIL_clean_sbu_0, # of connection points: 4
#     Node 68, Type 0, BuildingBlock: CEKHIL_clean_sbu_0, # of connection points: 4
#     Node 69, Type 0, BuildingBlock: CEKHIL_clean_sbu_0, # of connection points: 4
#     Node 70, Type 0, BuildingBlock: CEKHIL_clean_sbu_0, # of connection points: 4
#     Node 71, Type 0, BuildingBlock: CEKHIL_clean_sbu_0, # of connection points: 4
#     Node 72, Type 0, BuildingBlock: CEKHIL_clean_sbu_0, # of connection points: 4
#     Node 73, Type 0, BuildingBlock: CEKHIL_clean_sbu_0, # of connection points: 4
#     Node 74, Type 0, BuildingBlock: CEKHIL_clean_sbu_0, # of connection points: 4
#     Node 75, Type 0, BuildingBlock: CEKHIL_clean_sbu_0, # of connection points: 4
#     Node 76, Type 0, BuildingBlock: CEKHIL_clean_sbu_0, # of connection points: 4
#     Node 77, Type 0, BuildingBlock: CEKHIL_clean_sbu_0, # of connection points: 4
#     Node 78, Type 0, BuildingBlock: CEKHIL_clean_sbu_0, # of connection points: 4
#     Node 79, Type 0, BuildingBlock: CEKHIL_clean_sbu_0, # of connection points: 4
#     Node 80, Type 0, BuildingBlock: CEKHIL_clean_sbu_0, # of connection points: 4
#     Node 81, Type 0, BuildingBlock: CEKHIL_clean_sbu_0, # of connection points: 4
#     Node 82, Type 0, BuildingBlock: CEKHIL_clean_sbu_0, # of connection points: 4
#     Node 83, Type 0, BuildingBlock: CEKHIL_clean_sbu_0, # of connection points: 4
#     Node 84, Type 0, BuildingBlock: CEKHIL_clean_sbu_0, # of connection points: 4
#     Node 85, Type 0, BuildingBlock: CEKHIL_clean_sbu_0, # of connection points: 4
#     Node 86, Type 0, BuildingBlock: CEKHIL_clean_sbu_0, # of connection points: 4
#     Node 87, Type 0, BuildingBlock: CEKHIL_clean_sbu_0, # of connection points: 4
#     Node 88, Type 0, BuildingBlock: CEKHIL_clean_sbu_0, # of connection points: 4
#     Node 89, Type 0, BuildingBlock: CEKHIL_clean_sbu_0, # of connection points: 4
#     Node 90, Type 0, BuildingBlock: CEKHIL_clean_sbu_0, # of connection points: 4
#     Node 91, Type 0, BuildingBlock: CEKHIL_clean_sbu_0, # of connection points: 4
#     Node 92, Type 0, BuildingBlock: CEKHIL_clean_sbu_0, # of connection points: 4
#     Node 93, Type 0, BuildingBlock: CEKHIL_clean_sbu_0, # of connection points: 4
#     Node 94, Type 0, BuildingBlock: CEKHIL_clean_sbu_0, # of connection points: 4
#     Node 95, Type 0, BuildingBlock: CEKHIL_clean_sbu_0, # of connection points: 4
#     Edge 96, Type (0, 0), BuildingBlock: EZIPEK_clean_linker_0, # of connection points: 2
#     Edge 97, Type (0, 0), BuildingBlock: EZIPEK_clean_linker_0, # of connection points: 2
#     Edge 98, Type (0, 0), BuildingBlock: EZIPEK_clean_linker_0, # of connection points: 2
#     Edge 99, Type (0, 0), BuildingBlock: EZIPEK_clean_linker_0, # of connection points: 2
#     Edge 100, Type (0, 0), BuildingBlock: EZIPEK_clean_linker_0, # of connection points: 2
#     Edge 101, Type (0, 0), BuildingBlock: EZIPEK_clean_linker_0, # of connection points: 2
#     Edge 102, Type (0, 0), BuildingBlock: EZIPEK_clean_linker_0, # of connection points: 2
#     Edge 103, Type (0, 0), BuildingBlock: EZIPEK_clean_linker_0, # of connection points: 2
#     Edge 104, Type (0, 0), BuildingBlock: EZIPEK_clean_linker_0, # of connection points: 2
#     Edge 105, Type (0, 0), BuildingBlock: EZIPEK_clean_linker_0, # of connection points: 2
#     Edge 106, Type (0, 0), BuildingBlock: EZIPEK_clean_linker_0, # of connection points: 2
#     Edge 107, Type (0, 0), BuildingBlock: EZIPEK_clean_linker_0, # of connection points: 2
#     Edge 108, Type (0, 0), BuildingBlock: EZIPEK_clean_linker_0, # of connection points: 2
#     Edge 109, Type (0, 0), BuildingBlock: EZIPEK_clean_linker_0, # of connection points: 2
#     Edge 110, Type (0, 0), BuildingBlock: EZIPEK_clean_linker_0, # of connection points: 2
#     Edge 111, Type (0, 0), BuildingBlock: EZIPEK_clean_linker_0, # of connection points: 2
#     Edge 112, Type (0, 0), BuildingBlock: EZIPEK_clean_linker_0, # of connection points: 2
#     Edge 113, Type (0, 0), BuildingBlock: EZIPEK_clean_linker_0, # of connection points: 2
#     Edge 114, Type (0, 0), BuildingBlock: EZIPEK_clean_linker_0, # of connection points: 2
#     Edge 115, Type (0, 0), BuildingBlock: EZIPEK_clean_linker_0, # of connection points: 2
#     Edge 116, Type (0, 0), BuildingBlock: EZIPEK_clean_linker_0, # of connection points: 2
#     Edge 117, Type (0, 0), BuildingBlock: EZIPEK_clean_linker_0, # of connection points: 2
#     Edge 118, Type (0, 0), BuildingBlock: EZIPEK_clean_linker_0, # of connection points: 2
#     Edge 119, Type (0, 0), BuildingBlock: EZIPEK_clean_linker_0, # of connection points: 2
#     Edge 120, Type (0, 0), BuildingBlock: EZIPEK_clean_linker_0, # of connection points: 2
#     Edge 121, Type (0, 0), BuildingBlock: EZIPEK_clean_linker_0, # of connection points: 2
#     Edge 122, Type (0, 0), BuildingBlock: EZIPEK_clean_linker_0, # of connection points: 2
#     Edge 123, Type (0, 0), BuildingBlock: EZIPEK_clean_linker_0, # of connection points: 2
#     Edge 124, Type (0, 0), BuildingBlock: EZIPEK_clean_linker_0, # of connection points: 2
#     Edge 125, Type (0, 0), BuildingBlock: EZIPEK_clean_linker_0, # of connection points: 2
#     Edge 126, Type (0, 0), BuildingBlock: EZIPEK_clean_linker_0, # of connection points: 2
#     Edge 127, Type (0, 0), BuildingBlock: EZIPEK_clean_linker_0, # of connection points: 2
#     Edge 128, Type (0, 0), BuildingBlock: EZIPEK_clean_linker_0, # of connection points: 2
#     Edge 129, Type (0, 0), BuildingBlock: EZIPEK_clean_linker_0, # of connection points: 2
#     Edge 130, Type (0, 0), BuildingBlock: EZIPEK_clean_linker_0, # of connection points: 2
#     Edge 131, Type (0, 0), BuildingBlock: EZIPEK_clean_linker_0, # of connection points: 2
#     Edge 132, Type (0, 0), BuildingBlock: EZIPEK_clean_linker_0, # of connection points: 2
#     Edge 133, Type (0, 0), BuildingBlock: EZIPEK_clean_linker_0, # of connection points: 2
#     Edge 134, Type (0, 0), BuildingBlock: EZIPEK_clean_linker_0, # of connection points: 2
#     Edge 135, Type (0, 0), BuildingBlock: EZIPEK_clean_linker_0, # of connection points: 2
#     Edge 136, Type (0, 0), BuildingBlock: EZIPEK_clean_linker_0, # of connection points: 2
#     Edge 137, Type (0, 0), BuildingBlock: EZIPEK_clean_linker_0, # of connection points: 2
#     Edge 138, Type (0, 0), BuildingBlock: EZIPEK_clean_linker_0, # of connection points: 2
#     Edge 139, Type (0, 0), BuildingBlock: EZIPEK_clean_linker_0, # of connection points: 2
#     Edge 140, Type (0, 0), BuildingBlock: EZIPEK_clean_linker_0, # of connection points: 2
#     Edge 141, Type (0, 0), BuildingBlock: EZIPEK_clean_linker_0, # of connection points: 2
#     Edge 142, Type (0, 0), BuildingBlock: EZIPEK_clean_linker_0, # of connection points: 2
#     Edge 143, Type (0, 0), BuildingBlock: EZIPEK_clean_linker_0, # of connection points: 2
#     Edge 144, Type (0, 0), BuildingBlock: EZIPEK_clean_linker_0, # of connection points: 2
#     Edge 145, Type (0, 0), BuildingBlock: EZIPEK_clean_linker_0, # of connection points: 2
#     Edge 146, Type (0, 0), BuildingBlock: EZIPEK_clean_linker_0, # of connection points: 2
#     Edge 147, Type (0, 0), BuildingBlock: EZIPEK_clean_linker_0, # of connection points: 2
#     Edge 148, Type (0, 0), BuildingBlock: EZIPEK_clean_linker_0, # of connection points: 2
#     Edge 149, Type (0, 0), BuildingBlock: EZIPEK_clean_linker_0, # of connection points: 2
#     Edge 150, Type (0, 0), BuildingBlock: EZIPEK_clean_linker_0, # of connection points: 2
#     Edge 151, Type (0, 0), BuildingBlock: EZIPEK_clean_linker_0, # of connection points: 2
#     Edge 152, Type (0, 0), BuildingBlock: EZIPEK_clean_linker_0, # of connection points: 2
#     Edge 153, Type (0, 0), BuildingBlock: EZIPEK_clean_linker_0, # of connection points: 2
#     Edge 154, Type (0, 0), BuildingBlock: EZIPEK_clean_linker_0, # of connection points: 2
#     Edge 155, Type (0, 0), BuildingBlock: EZIPEK_clean_linker_0, # of connection points: 2
#     Edge 156, Type (0, 0), BuildingBlock: EZIPEK_clean_linker_0, # of connection points: 2
#     Edge 157, Type (0, 0), BuildingBlock: EZIPEK_clean_linker_0, # of connection points: 2
#     Edge 158, Type (0, 0), BuildingBlock: EZIPEK_clean_linker_0, # of connection points: 2
#     Edge 159, Type (0, 0), BuildingBlock: EZIPEK_clean_linker_0, # of connection points: 2
#     Edge 160, Type (0, 0), BuildingBlock: EZIPEK_clean_linker_0, # of connection points: 2
#     Edge 161, Type (0, 0), BuildingBlock: EZIPEK_clean_linker_0, # of connection points: 2
#     Edge 162, Type (0, 0), BuildingBlock: EZIPEK_clean_linker_0, # of connection points: 2
#     Edge 163, Type (0, 0), BuildingBlock: EZIPEK_clean_linker_0, # of connection points: 2
#     Edge 164, Type (0, 0), BuildingBlock: EZIPEK_clean_linker_0, # of connection points: 2
#     Edge 165, Type (0, 0), BuildingBlock: EZIPEK_clean_linker_0, # of connection points: 2
#     Edge 166, Type (0, 0), BuildingBlock: EZIPEK_clean_linker_0, # of connection points: 2
#     Edge 167, Type (0, 0), BuildingBlock: EZIPEK_clean_linker_0, # of connection points: 2
#     Edge 168, Type (0, 0), BuildingBlock: EZIPEK_clean_linker_0, # of connection points: 2
#     Edge 169, Type (0, 0), BuildingBlock: EZIPEK_clean_linker_0, # of connection points: 2
#     Edge 170, Type (0, 0), BuildingBlock: EZIPEK_clean_linker_0, # of connection points: 2
#     Edge 171, Type (0, 0), BuildingBlock: EZIPEK_clean_linker_0, # of connection points: 2
#     Edge 172, Type (0, 0), BuildingBlock: EZIPEK_clean_linker_0, # of connection points: 2
#     Edge 173, Type (0, 0), BuildingBlock: EZIPEK_clean_linker_0, # of connection points: 2
#     Edge 174, Type (0, 0), BuildingBlock: EZIPEK_clean_linker_0, # of connection points: 2
#     Edge 175, Type (0, 0), BuildingBlock: EZIPEK_clean_linker_0, # of connection points: 2
#     Edge 176, Type (0, 0), BuildingBlock: EZIPEK_clean_linker_0, # of connection points: 2
#     Edge 177, Type (0, 0), BuildingBlock: EZIPEK_clean_linker_0, # of connection points: 2
#     Edge 178, Type (0, 0), BuildingBlock: EZIPEK_clean_linker_0, # of connection points: 2
#     Edge 179, Type (0, 0), BuildingBlock: EZIPEK_clean_linker_0, # of connection points: 2
#     Edge 180, Type (0, 0), BuildingBlock: EZIPEK_clean_linker_0, # of connection points: 2
#     Edge 181, Type (0, 0), BuildingBlock: EZIPEK_clean_linker_0, # of connection points: 2
#     Edge 182, Type (0, 0), BuildingBlock: EZIPEK_clean_linker_0, # of connection points: 2
#     Edge 183, Type (0, 0), BuildingBlock: EZIPEK_clean_linker_0, # of connection points: 2
#     Edge 184, Type (0, 0), BuildingBlock: EZIPEK_clean_linker_0, # of connection points: 2
#     Edge 185, Type (0, 0), BuildingBlock: EZIPEK_clean_linker_0, # of connection points: 2
#     Edge 186, Type (0, 0), BuildingBlock: EZIPEK_clean_linker_0, # of connection points: 2
#     Edge 187, Type (0, 0), BuildingBlock: EZIPEK_clean_linker_0, # of connection points: 2
#     Edge 188, Type (0, 0), BuildingBlock: EZIPEK_clean_linker_0, # of connection points: 2
#     Edge 189, Type (0, 0), BuildingBlock: EZIPEK_clean_linker_0, # of connection points: 2
#     Edge 190, Type (0, 0), BuildingBlock: EZIPEK_clean_linker_0, # of connection points: 2
#     Edge 191, Type (0, 0), BuildingBlock: EZIPEK_clean_linker_0, # of connection points: 2
#     Edge 192, Type (0, 0), BuildingBlock: EZIPEK_clean_linker_0, # of connection points: 2
#     Edge 193, Type (0, 0), BuildingBlock: EZIPEK_clean_linker_0, # of connection points: 2
#     Edge 194, Type (0, 0), BuildingBlock: EZIPEK_clean_linker_0, # of connection points: 2
#     Edge 195, Type (0, 0), BuildingBlock: EZIPEK_clean_linker_0, # of connection points: 2
#     Edge 196, Type (0, 0), BuildingBlock: EZIPEK_clean_linker_0, # of connection points: 2
#     Edge 197, Type (0, 0), BuildingBlock: EZIPEK_clean_linker_0, # of connection points: 2
#     Edge 198, Type (0, 0), BuildingBlock: EZIPEK_clean_linker_0, # of connection points: 2
#     Edge 199, Type (0, 0), BuildingBlock: EZIPEK_clean_linker_0, # of connection points: 2
#     Edge 200, Type (0, 0), BuildingBlock: EZIPEK_clean_linker_0, # of connection points: 2
#     Edge 201, Type (0, 0), BuildingBlock: EZIPEK_clean_linker_0, # of connection points: 2
#     Edge 202, Type (0, 0), BuildingBlock: EZIPEK_clean_linker_0, # of connection points: 2
#     Edge 203, Type (0, 0), BuildingBlock: EZIPEK_clean_linker_0, # of connection points: 2
#     Edge 204, Type (0, 0), BuildingBlock: EZIPEK_clean_linker_0, # of connection points: 2
#     Edge 205, Type (0, 0), BuildingBlock: EZIPEK_clean_linker_0, # of connection points: 2
#     Edge 206, Type (0, 0), BuildingBlock: EZIPEK_clean_linker_0, # of connection points: 2
#     Edge 207, Type (0, 0), BuildingBlock: EZIPEK_clean_linker_0, # of connection points: 2
#     Edge 208, Type (0, 0), BuildingBlock: EZIPEK_clean_linker_0, # of connection points: 2
#     Edge 209, Type (0, 0), BuildingBlock: EZIPEK_clean_linker_0, # of connection points: 2
#     Edge 210, Type (0, 0), BuildingBlock: EZIPEK_clean_linker_0, # of connection points: 2
#     Edge 211, Type (0, 0), BuildingBlock: EZIPEK_clean_linker_0, # of connection points: 2
#     Edge 212, Type (0, 0), BuildingBlock: EZIPEK_clean_linker_0, # of connection points: 2
#     Edge 213, Type (0, 0), BuildingBlock: EZIPEK_clean_linker_0, # of connection points: 2
#     Edge 214, Type (0, 0), BuildingBlock: EZIPEK_clean_linker_0, # of connection points: 2
#     Edge 215, Type (0, 0), BuildingBlock: EZIPEK_clean_linker_0, # of connection points: 2
#     Edge 216, Type (0, 0), BuildingBlock: EZIPEK_clean_linker_0, # of connection points: 2
#     Edge 217, Type (0, 0), BuildingBlock: EZIPEK_clean_linker_0, # of connection points: 2
#     Edge 218, Type (0, 0), BuildingBlock: EZIPEK_clean_linker_0, # of connection points: 2
#     Edge 219, Type (0, 0), BuildingBlock: EZIPEK_clean_linker_0, # of connection points: 2
#     Edge 220, Type (0, 0), BuildingBlock: EZIPEK_clean_linker_0, # of connection points: 2
#     Edge 221, Type (0, 0), BuildingBlock: EZIPEK_clean_linker_0, # of connection points: 2
#     Edge 222, Type (0, 0), BuildingBlock: EZIPEK_clean_linker_0, # of connection points: 2
#     Edge 223, Type (0, 0), BuildingBlock: EZIPEK_clean_linker_0, # of connection points: 2
#     Edge 224, Type (0, 0), BuildingBlock: EZIPEK_clean_linker_0, # of connection points: 2
#     Edge 225, Type (0, 0), BuildingBlock: EZIPEK_clean_linker_0, # of connection points: 2
#     Edge 226, Type (0, 0), BuildingBlock: EZIPEK_clean_linker_0, # of connection points: 2
#     Edge 227, Type (0, 0), BuildingBlock: EZIPEK_clean_linker_0, # of connection points: 2
#     Edge 228, Type (0, 0), BuildingBlock: EZIPEK_clean_linker_0, # of connection points: 2
#     Edge 229, Type (0, 0), BuildingBlock: EZIPEK_clean_linker_0, # of connection points: 2
#     Edge 230, Type (0, 0), BuildingBlock: EZIPEK_clean_linker_0, # of connection points: 2
#     Edge 231, Type (0, 0), BuildingBlock: EZIPEK_clean_linker_0, # of connection points: 2
#     Edge 232, Type (0, 0), BuildingBlock: EZIPEK_clean_linker_0, # of connection points: 2
#     Edge 233, Type (0, 0), BuildingBlock: EZIPEK_clean_linker_0, # of connection points: 2
#     Edge 234, Type (0, 0), BuildingBlock: EZIPEK_clean_linker_0, # of connection points: 2
#     Edge 235, Type (0, 0), BuildingBlock: EZIPEK_clean_linker_0, # of connection points: 2
#     Edge 236, Type (0, 0), BuildingBlock: EZIPEK_clean_linker_0, # of connection points: 2
#     Edge 237, Type (0, 0), BuildingBlock: EZIPEK_clean_linker_0, # of connection points: 2
#     Edge 238, Type (0, 0), BuildingBlock: EZIPEK_clean_linker_0, # of connection points: 2
#     Edge 239, Type (0, 0), BuildingBlock: EZIPEK_clean_linker_0, # of connection points: 2
#     Edge 240, Type (0, 0), BuildingBlock: EZIPEK_clean_linker_0, # of connection points: 2
#     Edge 241, Type (0, 0), BuildingBlock: EZIPEK_clean_linker_0, # of connection points: 2
#     Edge 242, Type (0, 0), BuildingBlock: EZIPEK_clean_linker_0, # of connection points: 2
#     Edge 243, Type (0, 0), BuildingBlock: EZIPEK_clean_linker_0, # of connection points: 2
#     Edge 244, Type (0, 0), BuildingBlock: EZIPEK_clean_linker_0, # of connection points: 2
#     Edge 245, Type (0, 0), BuildingBlock: EZIPEK_clean_linker_0, # of connection points: 2
#     Edge 246, Type (0, 0), BuildingBlock: EZIPEK_clean_linker_0, # of connection points: 2
#     Edge 247, Type (0, 0), BuildingBlock: EZIPEK_clean_linker_0, # of connection points: 2
#     Edge 248, Type (0, 0), BuildingBlock: EZIPEK_clean_linker_0, # of connection points: 2
#     Edge 249, Type (0, 0), BuildingBlock: EZIPEK_clean_linker_0, # of connection points: 2
#     Edge 250, Type (0, 0), BuildingBlock: EZIPEK_clean_linker_0, # of connection points: 2
#     Edge 251, Type (0, 0), BuildingBlock: EZIPEK_clean_linker_0, # of connection points: 2
#     Edge 252, Type (0, 0), BuildingBlock: EZIPEK_clean_linker_0, # of connection points: 2
#     Edge 253, Type (0, 0), BuildingBlock: EZIPEK_clean_linker_0, # of connection points: 2
#     Edge 254, Type (0, 0), BuildingBlock: EZIPEK_clean_linker_0, # of connection points: 2
#     Edge 255, Type (0, 0), BuildingBlock: EZIPEK_clean_linker_0, # of connection points: 2
#     Edge 256, Type (0, 0), BuildingBlock: EZIPEK_clean_linker_0, # of connection points: 2
#     Edge 257, Type (0, 0), BuildingBlock: EZIPEK_clean_linker_0, # of connection points: 2
#     Edge 258, Type (0, 0), BuildingBlock: EZIPEK_clean_linker_0, # of connection points: 2
#     Edge 259, Type (0, 0), BuildingBlock: EZIPEK_clean_linker_0, # of connection points: 2
#     Edge 260, Type (0, 0), BuildingBlock: EZIPEK_clean_linker_0, # of connection points: 2
#     Edge 261, Type (0, 0), BuildingBlock: EZIPEK_clean_linker_0, # of connection points: 2
#     Edge 262, Type (0, 0), BuildingBlock: EZIPEK_clean_linker_0, # of connection points: 2
#     Edge 263, Type (0, 0), BuildingBlock: EZIPEK_clean_linker_0, # of connection points: 2
#     Edge 264, Type (0, 0), BuildingBlock: EZIPEK_clean_linker_0, # of connection points: 2
#     Edge 265, Type (0, 0), BuildingBlock: EZIPEK_clean_linker_0, # of connection points: 2
#     Edge 266, Type (0, 0), BuildingBlock: EZIPEK_clean_linker_0, # of connection points: 2
#     Edge 267, Type (0, 0), BuildingBlock: EZIPEK_clean_linker_0, # of connection points: 2
#     Edge 268, Type (0, 0), BuildingBlock: EZIPEK_clean_linker_0, # of connection points: 2
#     Edge 269, Type (0, 0), BuildingBlock: EZIPEK_clean_linker_0, # of connection points: 2
#     Edge 270, Type (0, 0), BuildingBlock: EZIPEK_clean_linker_0, # of connection points: 2
#     Edge 271, Type (0, 0), BuildingBlock: EZIPEK_clean_linker_0, # of connection points: 2
#     Edge 272, Type (0, 0), BuildingBlock: EZIPEK_clean_linker_0, # of connection points: 2
#     Edge 273, Type (0, 0), BuildingBlock: EZIPEK_clean_linker_0, # of connection points: 2
#     Edge 274, Type (0, 0), BuildingBlock: EZIPEK_clean_linker_0, # of connection points: 2
#     Edge 275, Type (0, 0), BuildingBlock: EZIPEK_clean_linker_0, # of connection points: 2
#     Edge 276, Type (0, 0), BuildingBlock: EZIPEK_clean_linker_0, # of connection points: 2
#     Edge 277, Type (0, 0), BuildingBlock: EZIPEK_clean_linker_0, # of connection points: 2
#     Edge 278, Type (0, 0), BuildingBlock: EZIPEK_clean_linker_0, # of connection points: 2
#     Edge 279, Type (0, 0), BuildingBlock: EZIPEK_clean_linker_0, # of connection points: 2
#     Edge 280, Type (0, 0), BuildingBlock: EZIPEK_clean_linker_0, # of connection points: 2
#     Edge 281, Type (0, 0), BuildingBlock: EZIPEK_clean_linker_0, # of connection points: 2
#     Edge 282, Type (0, 0), BuildingBlock: EZIPEK_clean_linker_0, # of connection points: 2
#     Edge 283, Type (0, 0), BuildingBlock: EZIPEK_clean_linker_0, # of connection points: 2
#     Edge 284, Type (0, 0), BuildingBlock: EZIPEK_clean_linker_0, # of connection points: 2
#     Edge 285, Type (0, 0), BuildingBlock: EZIPEK_clean_linker_0, # of connection points: 2
#     Edge 286, Type (0, 0), BuildingBlock: EZIPEK_clean_linker_0, # of connection points: 2
#     Edge 287, Type (0, 0), BuildingBlock: EZIPEK_clean_linker_0, # of connection points: 2
# Relax obj value: 0.163
# Max RMSD: 0.098
# Mean RMSD: 0.098
data_MOF--net-kfi--node1-CEKHIL_clean_sbu_0--edge1-EZIPEK_clean_linker_0
_symmetry_space_group_name_H-M    P1
_symmetry_Int_Tables_number       1
_symmetry_cell_setting            triclinic
loop_
_symmetry_equiv_pos_as_xyz
'x, y, z'
_cell_length_a     64.019534
_cell_length_b     64.12303
_cell_length_c     64.127564
_cell_angle_alpha  89.996494
_cell_angle_beta   89.994221
_cell_angle_gamma 90.006319
loop_
_atom_site_label
_atom_site_type_symbol
_atom_site_fract_x
_atom_site_fract_y
_atom_site_fract_z
_atom_type_partial_charge
Co0 Co 0.08558 0.19847 0.32433 0.0
O1 O 0.06145 0.18308 0.31436 0.0
O2 O 0.0603 0.20924 0.33686 0.0
C3 C 0.10634 0.17023 0.33029 0.0
O4 O 0.10612 0.21819 0.3388 0.0
Co5 Co 0.12863 0.19766 0.30204 0.0
O6 O 0.13855 0.21483 0.32579 0.0
C7 C 0.09431 0.22325 0.28479 0.0
C8 C 0.05028 0.19541 0.32597 0.0
C9 C 0.12567 0.22289 0.33859 0.0
O10 O 0.08267 0.21895 0.30057 0.0
O11 O 0.11229 0.21507 0.28173 0.0
O12 O 0.09244 0.17587 0.34399 0.0
O13 O 0.10622 0.1807 0.31313 0.0
Co14 Co 0.81019 0.08433 0.32399 0.0
O15 O 0.82422 0.06005 0.31257 0.0
O16 O 0.79933 0.05901 0.33647 0.0
C17 C 0.83931 0.10401 0.32921 0.0
O18 O 0.79237 0.10518 0.34039 0.0
Co19 Co 0.81141 0.12755 0.30223 0.0
O20 O 0.79247 0.13666 0.32499 0.0
C21 C 0.78467 0.09448 0.28507 0.0
C22 C 0.8124 0.04891 0.32472 0.0
C23 C 0.78613 0.12425 0.33916 0.0
O24 O 0.78817 0.08295 0.30118 0.0
O25 O 0.7939 0.11183 0.28172 0.0
O26 O 0.83401 0.08978 0.34266 0.0
O27 O 0.82814 0.1046 0.3125 0.0
Co28 Co 0.92359 0.80963 0.32435 0.0
O29 O 0.94747 0.82509 0.31402 0.0
O30 O 0.94899 0.79965 0.33734 0.0
C31 C 0.90241 0.8377 0.3296 0.0
O32 O 0.90319 0.78995 0.3391 0.0
Co33 Co 0.8808 0.80945 0.30155 0.0
O34 O 0.87089 0.79267 0.32558 0.0
C35 C 0.91556 0.78369 0.28542 0.0
C36 C 0.9588 0.81329 0.326 0.0
C37 C 0.8837 0.78499 0.3387 0.0
O38 O 0.92699 0.78857 0.30117 0.0
O39 O 0.8975 0.79153 0.28197 0.0
O40 O 0.91632 0.83254 0.34347 0.0
O41 O 0.9028 0.8269 0.31264 0.0
Co42 Co 0.19684 0.92366 0.32509 0.0
O43 O 0.18254 0.94783 0.31387 0.0
O44 O 0.20734 0.94893 0.33789 0.0
C45 C 0.16813 0.90336 0.33 0.0
O46 O 0.21481 0.90274 0.34117 0.0
Co47 Co 0.19642 0.88103 0.30206 0.0
O48 O 0.21473 0.87153 0.32517 0.0
C49 C 0.22235 0.91509 0.28581 0.0
C50 C 0.1943 0.95899 0.32607 0.0
C51 C 0.22096 0.88367 0.33963 0.0
O52 O 0.2189 0.92579 0.30246 0.0
O53 O 0.21325 0.89781 0.28174 0.0
O54 O 0.17304 0.91762 0.34357 0.0
O55 O 0.17932 0.90327 0.31328 0.0
Co56 Co 0.08541 0.81003 0.68248 0.0
O57 O 0.06091 0.82342 0.69411 0.0
O58 O 0.06042 0.79953 0.66918 0.0
C59 C 0.10522 0.83916 0.67839 0.0
O60 O 0.10681 0.79293 0.66607 0.0
Co61 Co 0.12793 0.8108 0.70592 0.0
O62 O 0.13769 0.79273 0.68278 0.0
C63 C 0.0945 0.78312 0.72069 0.0
C64 C 0.05005 0.81191 0.68144 0.0
C65 C 0.12587 0.78675 0.66793 0.0
O66 O 0.08355 0.78728 0.70437 0.0
O67 O 0.11173 0.79218 0.72507 0.0
O68 O 0.09106 0.83436 0.66467 0.0
O69 O 0.10542 0.82762 0.69487 0.0
Co70 Co 0.19746 0.08439 0.68333 0.0
O71 O 0.18245 0.06036 0.69391 0.0
O72 O 0.20783 0.05912 0.67046 0.0
C73 C 0.16889 0.10494 0.67802 0.0
O74 O 0.21659 0.10516 0.6682 0.0
Co75 Co 0.19719 0.12725 0.70578 0.0
O76 O 0.21298 0.13753 0.68129 0.0
C77 C 0.2232 0.09287 0.7224 0.0
C78 C 0.19434 0.04918 0.68189 0.0
C79 C 0.22085 0.12482 0.66823 0.0
O80 O 0.21853 0.08143 0.7066 0.0
O81 O 0.21519 0.11089 0.72559 0.0
O82 O 0.17423 0.09093 0.66437 0.0
O83 O 0.17991 0.10497 0.69489 0.0
Co84 Co 0.92267 0.19803 0.68258 0.0
O85 O 0.94674 0.18249 0.69237 0.0
O86 O 0.94801 0.20879 0.67007 0.0
C87 C 0.9019 0.16977 0.67653 0.0
O88 O 0.90212 0.21791 0.66828 0.0
Co89 Co 0.87986 0.19719 0.70506 0.0
O90 O 0.86978 0.21454 0.68151 0.0
C91 C 0.91427 0.22258 0.72239 0.0
C92 C 0.958 0.1949 0.68094 0.0
C93 C 0.88257 0.22263 0.66864 0.0
O94 O 0.92581 0.21833 0.70651 0.0
O95 O 0.89627 0.21444 0.72545 0.0
O96 O 0.91562 0.17563 0.66275 0.0
O97 O 0.90211 0.18011 0.69378 0.0
Co98 Co 0.81123 0.92285 0.68294 0.0
O99 O 0.82549 0.94699 0.69421 0.0
O100 O 0.80118 0.94807 0.66967 0.0
C101 C 0.83985 0.90235 0.67854 0.0
O102 O 0.79335 0.9017 0.66686 0.0
Co103 Co 0.81091 0.88083 0.7067 0.0
O104 O 0.79282 0.87094 0.68366 0.0
C105 C 0.78454 0.91509 0.72173 0.0
C106 C 0.814 0.95811 0.68176 0.0
C107 C 0.78702 0.88269 0.66871 0.0
O108 O 0.78897 0.92569 0.70527 0.0
O109 O 0.79319 0.89768 0.72617 0.0
O110 O 0.83509 0.91643 0.66475 0.0
O111 O 0.82862 0.90255 0.69527 0.0
Co112 Co 0.32519 0.08444 0.19815 0.0
O113 O 0.31552 0.06015 0.18284 0.0
O114 O 0.33808 0.05939 0.20898 0.0
C115 C 0.33084 0.10527 0.16988 0.0
O116 O 0.33943 0.10508 0.21787 0.0
Co117 Co 0.30232 0.12703 0.19746 0.0
O118 O 0.32585 0.13725 0.21484 0.0
C119 C 0.2856 0.09262 0.22317 0.0
C120 C 0.32719 0.04918 0.19528 0.0
C121 C 0.33891 0.12454 0.22277 0.0
O122 O 0.30148 0.08118 0.21868 0.0
O123 O 0.28229 0.11057 0.21508 0.0
O124 O 0.34481 0.09168 0.17559 0.0
O125 O 0.31362 0.10487 0.1803 0.0
Co126 Co 0.92473 0.32404 0.19772 0.0
O127 O 0.94896 0.31365 0.18282 0.0
O128 O 0.94992 0.33702 0.20819 0.0
C129 C 0.90417 0.32931 0.16916 0.0
O130 O 0.90387 0.33889 0.2169 0.0
Co131 Co 0.88187 0.30129 0.197 0.0
O132 O 0.87162 0.32535 0.21351 0.0
C133 C 0.91618 0.28486 0.22316 0.0
C134 C 0.96006 0.32568 0.19478 0.0
C135 C 0.88426 0.3385 0.22141 0.0
O136 O 0.92761 0.30079 0.21881 0.0
O137 O 0.89836 0.2814 0.21477 0.0
O138 O 0.91808 0.34308 0.17456 0.0
O139 O 0.90426 0.31241 0.18007 0.0
Co140 Co 0.68416 0.92364 0.19648 0.0
O141 O 0.69519 0.94789 0.18216 0.0
O142 O 0.67102 0.94876 0.20684 0.0
C143 C 0.67956 0.90325 0.1678 0.0
O144 O 0.66838 0.90259 0.21473 0.0
Co145 Co 0.7072 0.88107 0.19644 0.0
O146 O 0.68317 0.8708 0.21295 0.0
C147 C 0.72303 0.91537 0.22274 0.0
C148 C 0.68291 0.95893 0.19394 0.0
C149 C 0.66922 0.88315 0.21987 0.0
O150 O 0.70692 0.92644 0.21816 0.0
O151 O 0.72678 0.89761 0.21444 0.0
O152 O 0.66577 0.9173 0.17277 0.0
O153 O 0.69625 0.90328 0.1791 0.0
Co154 Co 0.08618 0.683 0.19756 0.0
O155 O 0.06158 0.69401 0.18382 0.0
O156 O 0.06125 0.66978 0.20844 0.0
C157 C 0.10603 0.67825 0.16858 0.0
O158 O 0.10774 0.66722 0.21506 0.0
Co159 Co 0.12822 0.70691 0.19643 0.0
O160 O 0.13829 0.68448 0.21525 0.0
C161 C 0.09434 0.72255 0.22278 0.0
C162 C 0.05081 0.6816 0.1957 0.0
C163 C 0.12673 0.66946 0.22132 0.0
O164 O 0.08401 0.70561 0.21959 0.0
O165 O 0.11129 0.72706 0.21327 0.0
O166 O 0.09205 0.6645 0.17384 0.0
O167 O 0.10604 0.69512 0.17956 0.0
Co168 Co 0.32541 0.92175 0.8099 0.0
O169 O 0.31426 0.94624 0.82364 0.0
O170 O 0.33891 0.94664 0.79942 0.0
C171 C 0.32954 0.90181 0.83886 0.0
O172 O 0.34148 0.90032 0.79249 0.0
Co173 Co 0.30161 0.87971 0.81029 0.0
O174 O 0.32454 0.86964 0.79206 0.0
C175 C 0.28617 0.91382 0.78409 0.0
C176 C 0.3269 0.95704 0.81202 0.0
C177 C 0.33954 0.88132 0.7862 0.0
O178 O 0.30306 0.92417 0.78761 0.0
O179 O 0.28163 0.89676 0.79335 0.0
O180 O 0.3435 0.91569 0.8339 0.0
O181 O 0.31289 0.90185 0.82753 0.0
Co182 Co 0.08423 0.32403 0.81009 0.0
O183 O 0.0602 0.31349 0.82516 0.0
O184 O 0.05895 0.33724 0.80011 0.0
C185 C 0.10525 0.32877 0.8384 0.0
O186 O 0.10493 0.33901 0.79088 0.0
Co187 Co 0.12697 0.3009 0.81001 0.0
O188 O 0.13716 0.32533 0.79399 0.0
C189 C 0.09221 0.28526 0.78393 0.0
C190 C 0.049 0.32569 0.81347 0.0
C191 C 0.12453 0.33861 0.78629 0.0
O192 O 0.08096 0.30119 0.78867 0.0
O193 O 0.11012 0.28154 0.792 0.0
O194 O 0.09131 0.34268 0.83346 0.0
O195 O 0.10486 0.31204 0.82726 0.0
Co196 Co 0.68356 0.08467 0.80958 0.0
O197 O 0.69451 0.05996 0.82318 0.0
O198 O 0.67043 0.05985 0.7984 0.0
C199 C 0.6789 0.10419 0.8388 0.0
O200 O 0.66766 0.10628 0.79224 0.0
Co201 Co 0.70702 0.12699 0.81124 0.0
O202 O 0.68453 0.13699 0.79243 0.0
C203 C 0.72284 0.09371 0.78415 0.0
C204 C 0.68212 0.04931 0.81117 0.0
C205 C 0.66968 0.12532 0.78615 0.0
O206 O 0.70621 0.0829 0.7875 0.0
O207 O 0.72701 0.11073 0.79363 0.0
O208 O 0.66506 0.09032 0.83347 0.0
O209 O 0.69568 0.10436 0.8277 0.0
Co210 Co 0.9226 0.68206 0.81005 0.0
O211 O 0.9474 0.69283 0.82363 0.0
O212 O 0.94734 0.66894 0.79869 0.0
C213 C 0.90312 0.6772 0.83929 0.0
O214 O 0.90091 0.66642 0.7926 0.0
Co215 Co 0.88042 0.70566 0.81181 0.0
O216 O 0.87026 0.68344 0.79279 0.0
C217 C 0.91392 0.7217 0.78517 0.0
C218 C 0.95799 0.68052 0.81148 0.0
C219 C 0.8819 0.66861 0.78642 0.0
O220 O 0.9245 0.70489 0.78824 0.0
O221 O 0.89698 0.72597 0.79481 0.0
O222 O 0.91694 0.66339 0.83374 0.0
O223 O 0.90296 0.69408 0.82834 0.0
Co224 Co 0.19912 0.32421 0.08329 0.0
O225 O 0.18467 0.31217 0.05957 0.0
O226 O 0.20914 0.33651 0.05764 0.0
C227 C 0.17048 0.32941 0.10374 0.0
O228 O 0.21737 0.3411 0.10328 0.0
Co229 Co 0.19966 0.30313 0.12681 0.0
O230 O 0.21734 0.32709 0.13541 0.0
C231 C 0.22468 0.28528 0.09278 0.0
C232 C 0.19611 0.32433 0.04804 0.0
C233 C 0.22352 0.34077 0.12239 0.0
O234 O 0.2212 0.30157 0.08152 0.0
O235 O 0.21587 0.28199 0.11037 0.0
O236 O 0.17522 0.34264 0.0891 0.0
O237 O 0.18195 0.31287 0.10432 0.0
Co238 Co 0.19698 0.68189 0.92228 0.0
O239 O 0.18351 0.69325 0.94683 0.0
O240 O 0.20764 0.6685 0.94717 0.0
C241 C 0.16775 0.6777 0.90261 0.0
O242 O 0.21417 0.6657 0.90079 0.0
Co243 Co 0.19599 0.70542 0.87998 0.0
O244 O 0.2145 0.68265 0.87011 0.0
C245 C 0.22337 0.72055 0.9134 0.0
C246 C 0.19509 0.68056 0.95758 0.0
C247 C 0.22047 0.66772 0.88181 0.0
O248 O 0.21956 0.70402 0.92418 0.0
O249 O 0.21411 0.72493 0.8963 0.0
O250 O 0.17277 0.66387 0.91657 0.0
O251 O 0.17915 0.6943 0.90246 0.0
Co252 Co 0.32739 0.19726 0.92215 0.0
O253 O 0.31472 0.18211 0.94523 0.0
O254 O 0.33916 0.20628 0.94842 0.0
C255 C 0.33211 0.16891 0.90102 0.0
O256 O 0.34527 0.21631 0.90351 0.0
Co257 Co 0.30824 0.20022 0.87819 0.0
O258 O 0.33238 0.21838 0.87105 0.0
C259 C 0.28895 0.22345 0.91266 0.0
C260 C 0.32666 0.19312 0.95739 0.0
C261 C 0.34573 0.22362 0.88481 0.0
O262 O 0.30488 0.21942 0.92426 0.0
O263 O 0.28634 0.21556 0.89453 0.0
O264 O 0.34549 0.17321 0.91569 0.0
O265 O 0.316 0.18095 0.90026 0.0
Co266 Co 0.81135 0.32482 0.92393 0.0
O267 O 0.8265 0.31408 0.94784 0.0
O268 O 0.80082 0.33714 0.94939 0.0
C269 C 0.83978 0.33058 0.90321 0.0
O270 O 0.79198 0.34002 0.90354 0.0
Co271 Co 0.81189 0.30293 0.88061 0.0
O272 O 0.79518 0.32715 0.87104 0.0
C273 C 0.7859 0.28579 0.91471 0.0
C274 C 0.81436 0.3257 0.95921 0.0
C275 C 0.78737 0.34004 0.88398 0.0
O276 O 0.79035 0.30143 0.92648 0.0
O277 O 0.79412 0.28278 0.89676 0.0
O278 O 0.83449 0.34403 0.91746 0.0
O279 O 0.82887 0.31367 0.90311 0.0
Co280 Co 0.68472 0.81094 0.92327 0.0
O281 O 0.69648 0.82401 0.94789 0.0
O282 O 0.67165 0.79997 0.94818 0.0
C283 C 0.68047 0.84036 0.90386 0.0
O284 O 0.6681 0.79414 0.90182 0.0
Co285 Co 0.70775 0.81235 0.88052 0.0
O286 O 0.68428 0.79468 0.8707 0.0
C287 C 0.72288 0.78416 0.91336 0.0
C288 C 0.68386 0.81232 0.95864 0.0
C289 C 0.66963 0.78842 0.88262 0.0
O290 O 0.70667 0.78818 0.92455 0.0
O291 O 0.72705 0.79347 0.89622 0.0
O292 O 0.66686 0.8354 0.9181 0.0
O293 O 0.69692 0.82877 0.90339 0.0
Co294 Co 0.81199 0.68245 0.08521 0.0
O295 O 0.8254 0.69402 0.06068 0.0
O296 O 0.80075 0.6698 0.06019 0.0
C297 C 0.84139 0.67743 0.10448 0.0
O298 O 0.79461 0.6663 0.10656 0.0
Co299 Co 0.81405 0.70505 0.12807 0.0
O300 O 0.79577 0.68204 0.13792 0.0
C301 C 0.78616 0.72111 0.09533 0.0
C302 C 0.81338 0.68182 0.04983 0.0
C303 C 0.789 0.66781 0.1258 0.0
O304 O 0.78973 0.70489 0.08405 0.0
O305 O 0.79577 0.72499 0.11239 0.0
O306 O 0.836 0.66394 0.09032 0.0
O307 O 0.83024 0.69415 0.10505 0.0
Co308 Co 0.32382 0.81005 0.08458 0.0
O309 O 0.31207 0.82343 0.06015 0.0
O310 O 0.33719 0.79969 0.05961 0.0
C311 C 0.32766 0.83911 0.1045 0.0
O312 O 0.34052 0.79303 0.10579 0.0
Co313 Co 0.30064 0.81011 0.12714 0.0
O314 O 0.3243 0.79266 0.13686 0.0
C315 C 0.28524 0.78355 0.09321 0.0
C316 C 0.32481 0.81198 0.04928 0.0
C317 C 0.33909 0.7869 0.12486 0.0
O318 O 0.30189 0.78733 0.08259 0.0
O319 O 0.28079 0.79277 0.11032 0.0
O320 O 0.34143 0.83452 0.0903 0.0
O321 O 0.31131 0.82735 0.10472 0.0
Co322 Co 0.68416 0.19678 0.08364 0.0
O323 O 0.6968 0.18304 0.05983 0.0
O324 O 0.67259 0.20764 0.05802 0.0
C325 C 0.67826 0.1676 0.10301 0.0
O326 O 0.66698 0.21459 0.10371 0.0
Co327 Co 0.70401 0.19543 0.12785 0.0
O328 O 0.68005 0.21324 0.13625 0.0
C329 C 0.72235 0.22247 0.09551 0.0
C330 C 0.68494 0.19482 0.04833 0.0
C331 C 0.66694 0.22013 0.123 0.0
O332 O 0.70675 0.21892 0.08333 0.0
O333 O 0.72513 0.21304 0.11288 0.0
O334 O 0.66543 0.17283 0.08817 0.0
O335 O 0.69487 0.17889 0.10435 0.0
Co336 Co 0.92387 0.80943 0.6837 0.0
O337 O 0.94829 0.82413 0.69394 0.0
O338 O 0.94889 0.79839 0.67091 0.0
C339 C 0.90361 0.83817 0.6783 0.0
O340 O 0.90284 0.79044 0.66893 0.0
Co341 Co 0.88088 0.81073 0.70627 0.0
O342 O 0.87053 0.79438 0.68213 0.0
C343 C 0.91475 0.78402 0.72276 0.0
C344 C 0.95919 0.81181 0.68206 0.0
C345 C 0.88316 0.78624 0.66913 0.0
O346 O 0.92643 0.78845 0.70704 0.0
O347 O 0.89692 0.79243 0.72604 0.0
O348 O 0.91749 0.83259 0.66456 0.0
O349 O 0.90358 0.82731 0.69523 0.0
Co350 Co 0.19811 0.92334 0.68295 0.0
O351 O 0.18245 0.94712 0.69308 0.0
O352 O 0.20822 0.94873 0.67011 0.0
C353 C 0.17004 0.9022 0.67768 0.0
O354 O 0.21791 0.90303 0.66824 0.0
Co355 Co 0.19829 0.88065 0.70566 0.0
O356 O 0.21504 0.87074 0.68161 0.0
C357 C 0.22396 0.91535 0.72199 0.0
C358 C 0.19445 0.9585 0.68134 0.0
C359 C 0.22273 0.88353 0.66851 0.0
O360 O 0.21903 0.92683 0.70629 0.0
O361 O 0.21618 0.89726 0.72531 0.0
O362 O 0.17532 0.91593 0.66369 0.0
O363 O 0.18077 0.90263 0.69467 0.0
Co364 Co 0.0843 0.19732 0.68271 0.0
O365 O 0.05987 0.18337 0.69384 0.0
O366 O 0.05922 0.20775 0.66939 0.0
C367 C 0.10447 0.16846 0.67831 0.0
O368 O 0.10565 0.21497 0.66676 0.0
Co369 Co 0.1265 0.19677 0.7065 0.0
O370 O 0.13633 0.21538 0.6838 0.0
C371 C 0.09235 0.22298 0.72195 0.0
C372 C 0.04893 0.19497 0.68131 0.0
C373 C 0.12462 0.22137 0.66887 0.0
O374 O 0.08194 0.21953 0.70511 0.0
O375 O 0.10942 0.21368 0.72646 0.0
O376 O 0.09047 0.17342 0.66447 0.0
O377 O 0.10437 0.1797 0.695 0.0
Co378 Co 0.81097 0.0842 0.68276 0.0
O379 O 0.82544 0.06028 0.69445 0.0
O380 O 0.80022 0.05862 0.67091 0.0
C381 C 0.83981 0.10421 0.67682 0.0
O382 O 0.79248 0.10423 0.66626 0.0
Co383 Co 0.8118 0.12818 0.70315 0.0
O384 O 0.79352 0.13666 0.67957 0.0
C385 C 0.78595 0.09503 0.72172 0.0
C386 C 0.81354 0.04885 0.68263 0.0
C387 C 0.78664 0.12342 0.66644 0.0
O388 O 0.78932 0.08312 0.70587 0.0
O389 O 0.79502 0.11259 0.72446 0.0
O390 O 0.83457 0.08959 0.66375 0.0
O391 O 0.82866 0.10506 0.69353 0.0
Co392 Co 0.92401 0.19619 0.32413 0.0
O393 O 0.94869 0.1822 0.31357 0.0
O394 O 0.94878 0.20687 0.33772 0.0
C395 C 0.90376 0.16739 0.32857 0.0
O396 O 0.90238 0.21404 0.33956 0.0
Co397 Co 0.88198 0.19562 0.30005 0.0
O398 O 0.87126 0.21284 0.32333 0.0
C399 C 0.9161 0.22261 0.28517 0.0
C400 C 0.95936 0.1941 0.32605 0.0
C401 C 0.88305 0.21947 0.33789 0.0
O402 O 0.92694 0.218 0.30143 0.0
O403 O 0.89854 0.21405 0.28097 0.0
O404 O 0.91765 0.17248 0.34248 0.0
O405 O 0.90402 0.17851 0.31178 0.0
Co406 Co 0.81043 0.9228 0.32397 0.0
O407 O 0.82581 0.94686 0.31388 0.0
O408 O 0.79996 0.9481 0.33677 0.0
C409 C 0.83862 0.90185 0.32959 0.0
O410 O 0.79069 0.90221 0.33838 0.0
Co411 Co 0.81107 0.8801 0.30108 0.0
O412 O 0.79401 0.87002 0.32487 0.0
C413 C 0.78542 0.91463 0.28447 0.0
C414 C 0.81362 0.95806 0.32558 0.0
C415 C 0.78598 0.88269 0.33789 0.0
O416 O 0.78974 0.92597 0.30044 0.0
O417 O 0.79365 0.89676 0.28105 0.0
O418 O 0.83312 0.9156 0.34347 0.0
O419 O 0.82812 0.90226 0.31245 0.0
Co420 Co 0.08486 0.80981 0.32457 0.0
O421 O 0.06097 0.82551 0.3147 0.0
O422 O 0.05947 0.79942 0.33726 0.0
C423 C 0.10588 0.83787 0.33028 0.0
O424 O 0.1053 0.78989 0.33892 0.0
Co425 Co 0.1276 0.81016 0.30187 0.0
O426 O 0.13765 0.79311 0.32565 0.0
C427 C 0.093 0.78454 0.28521 0.0
C428 C 0.04962 0.81332 0.32627 0.0
C429 C 0.12484 0.78513 0.33858 0.0
O430 O 0.08145 0.78925 0.30093 0.0
O431 O 0.1111 0.79241 0.28201 0.0
O432 O 0.09216 0.83229 0.34418 0.0
O433 O 0.10551 0.82742 0.31311 0.0
Co434 Co 0.19805 0.08494 0.32474 0.0
O435 O 0.18236 0.06114 0.31454 0.0
O436 O 0.20815 0.05948 0.33747 0.0
C437 C 0.1701 0.10617 0.33042 0.0
O438 O 0.21804 0.10514 0.33936 0.0
Co439 Co 0.19814 0.12774 0.3022 0.0
O440 O 0.21543 0.13743 0.32593 0.0
C441 C 0.22369 0.09314 0.28557 0.0
C442 C 0.19434 0.04975 0.32627 0.0
C443 C 0.22312 0.12457 0.33898 0.0
O444 O 0.21873 0.08155 0.30119 0.0
O445 O 0.21598 0.11128 0.28241 0.0
O446 O 0.17545 0.09231 0.34425 0.0
O447 O 0.18063 0.10577 0.31329 0.0
Co448 Co 0.6833 0.92313 0.80991 0.0
O449 O 0.69442 0.94784 0.82338 0.0
O450 O 0.66979 0.94791 0.79916 0.0
C451 C 0.67918 0.90337 0.83907 0.0
O452 O 0.66722 0.90159 0.79265 0.0
Co453 Co 0.70699 0.88103 0.81063 0.0
O454 O 0.68419 0.87094 0.79224 0.0
C455 C 0.72253 0.91489 0.78416 0.0
C456 C 0.68178 0.9585 0.81162 0.0
C457 C 0.6692 0.88262 0.78634 0.0
O458 O 0.70566 0.92531 0.78758 0.0
O459 O 0.72702 0.8979 0.79357 0.0
O460 O 0.66522 0.91722 0.83401 0.0
O461 O 0.69581 0.90335 0.8277 0.0
Co462 Co 0.08426 0.68253 0.80955 0.0
O463 O 0.05948 0.69391 0.82265 0.0
O464 O 0.05948 0.6692 0.79851 0.0
C465 C 0.10358 0.67837 0.83901 0.0
O466 O 0.10604 0.66638 0.79271 0.0
Co467 Co 0.12674 0.70617 0.81135 0.0
O468 O 0.13701 0.68296 0.79365 0.0
C469 C 0.09369 0.72096 0.78316 0.0
C470 C 0.04887 0.68128 0.81088 0.0
C471 C 0.12531 0.66824 0.78716 0.0
O472 O 0.08278 0.70451 0.7869 0.0
O473 O 0.11065 0.7254 0.79271 0.0
O474 O 0.08954 0.66462 0.83391 0.0
O475 O 0.10391 0.69487 0.82752 0.0
Co476 Co 0.32405 0.08303 0.81039 0.0
O477 O 0.31438 0.05849 0.82525 0.0
O478 O 0.33674 0.0582 0.79889 0.0
C479 C 0.33007 0.10305 0.83911 0.0
O480 O 0.33829 0.10407 0.791 0.0
Co481 Co 0.30156 0.12582 0.81236 0.0
O482 O 0.3251 0.13628 0.79515 0.0
C483 C 0.2844 0.09221 0.78581 0.0
C484 C 0.32601 0.04776 0.81255 0.0
C485 C 0.33794 0.12368 0.78669 0.0
O486 O 0.30013 0.08044 0.79 0.0
O487 O 0.28135 0.11001 0.79432 0.0
O488 O 0.34389 0.0895 0.83295 0.0
O489 O 0.3128 0.1031 0.82879 0.0
Co490 Co 0.92291 0.32464 0.80941 0.0
O491 O 0.94673 0.31465 0.82515 0.0
O492 O 0.94839 0.33712 0.79899 0.0
C493 C 0.90191 0.33076 0.83748 0.0
O494 O 0.90245 0.33926 0.78954 0.0
Co495 Co 0.88028 0.30212 0.80938 0.0
O496 O 0.87028 0.32527 0.79154 0.0
C497 C 0.91496 0.28497 0.78428 0.0
C498 C 0.95816 0.32613 0.81295 0.0
C499 C 0.88305 0.33854 0.78414 0.0
O500 O 0.92635 0.30079 0.78905 0.0
O501 O 0.89674 0.28194 0.79193 0.0
O502 O 0.9159 0.34435 0.83182 0.0
O503 O 0.90208 0.31349 0.8271 0.0
Co504 Co 0.68359 0.08493 0.19627 0.0
O505 O 0.69546 0.06082 0.18236 0.0
O506 O 0.67163 0.05956 0.20737 0.0
C507 C 0.67794 0.10428 0.16699 0.0
O508 O 0.66706 0.1055 0.21419 0.0
Co509 Co 0.70458 0.12859 0.19466 0.0
O510 O 0.68112 0.13763 0.2128 0.0
C511 C 0.7222 0.09596 0.22181 0.0
C512 C 0.68354 0.04962 0.19434 0.0
C513 C 0.66765 0.12478 0.21978 0.0
O514 O 0.70637 0.0841 0.2182 0.0
O515 O 0.72532 0.11332 0.21248 0.0
O516 O 0.66476 0.08985 0.17247 0.0
O517 O 0.69463 0.10533 0.17821 0.0
Co518 Co 0.92451 0.68213 0.19788 0.0
O519 O 0.94895 0.69352 0.18416 0.0
O520 O 0.94963 0.66928 0.20873 0.0
C521 C 0.90479 0.67747 0.16875 0.0
O522 O 0.90319 0.66584 0.21524 0.0
Co523 Co 0.88188 0.70522 0.19684 0.0
O524 O 0.872 0.68193 0.21467 0.0
C525 C 0.91556 0.72129 0.22335 0.0
C526 C 0.95992 0.68124 0.19599 0.0
C527 C 0.88396 0.66735 0.22101 0.0
O528 O 0.92628 0.70461 0.22006 0.0
O529 O 0.89849 0.72548 0.21389 0.0
O530 O 0.91899 0.66387 0.17385 0.0
O531 O 0.90444 0.69407 0.1801 0.0
Co532 Co 0.32415 0.92305 0.19745 0.0
O533 O 0.31346 0.94779 0.18374 0.0
O534 O 0.3381 0.94769 0.20795 0.0
C535 C 0.32802 0.90297 0.16851 0.0
O536 O 0.33985 0.90131 0.21485 0.0
Co537 Co 0.29964 0.88138 0.19698 0.0
O538 O 0.32222 0.87104 0.21547 0.0
C539 C 0.28507 0.91544 0.22379 0.0
C540 C 0.3263 0.95835 0.19536 0.0
C541 C 0.33748 0.88241 0.22127 0.0
O542 O 0.30185 0.92582 0.21982 0.0
O543 O 0.28032 0.89835 0.2147 0.0
O544 O 0.34217 0.91667 0.17346 0.0
O545 O 0.31133 0.90334 0.1798 0.0
Co546 Co 0.08634 0.32414 0.19661 0.0
O547 O 0.06205 0.31433 0.18132 0.0
O548 O 0.0612 0.33688 0.20745 0.0
C549 C 0.10715 0.3298 0.16832 0.0
O550 O 0.10691 0.33854 0.21634 0.0
Co551 Co 0.12922 0.30172 0.19603 0.0
O552 O 0.13926 0.3253 0.21335 0.0
C553 C 0.095 0.28497 0.22208 0.0
C554 C 0.05102 0.32595 0.19376 0.0
C555 C 0.12641 0.33822 0.22124 0.0
O556 O 0.08322 0.30044 0.2171 0.0
O557 O 0.11315 0.28195 0.21428 0.0
O558 O 0.09346 0.3437 0.17398 0.0
O559 O 0.10688 0.31267 0.17884 0.0
Co560 Co 0.81129 0.683 0.92378 0.0
O561 O 0.82479 0.69463 0.94823 0.0
O562 O 0.80006 0.67049 0.94887 0.0
C563 C 0.84066 0.67796 0.90442 0.0
O564 O 0.79396 0.66667 0.90254 0.0
Co565 Co 0.81327 0.70538 0.88067 0.0
O566 O 0.79566 0.68184 0.87092 0.0
C567 C 0.78531 0.72149 0.91337 0.0
C568 C 0.81282 0.68243 0.95913 0.0
C569 C 0.78869 0.66781 0.88318 0.0
O570 O 0.78898 0.7054 0.92481 0.0
O571 O 0.79482 0.72526 0.89623 0.0
O572 O 0.83539 0.66458 0.91873 0.0
O573 O 0.82937 0.69459 0.90378 0.0
Co574 Co 0.81138 0.32382 0.0853 0.0
O575 O 0.82506 0.31229 0.0609 0.0
O576 O 0.80059 0.33667 0.06016 0.0
C577 C 0.84061 0.32875 0.10489 0.0
O578 O 0.79386 0.34015 0.10646 0.0
Co579 Co 0.81283 0.3013 0.12817 0.0
O580 O 0.79401 0.32402 0.13758 0.0
C581 C 0.78553 0.28503 0.09513 0.0
C582 C 0.81339 0.32472 0.04994 0.0
C583 C 0.78767 0.3385 0.12551 0.0
O584 O 0.7891 0.3013 0.08387 0.0
O585 O 0.7949 0.28126 0.11232 0.0
O586 O 0.83536 0.34228 0.09072 0.0
O587 O 0.8294 0.31205 0.10535 0.0
Co588 Co 0.68493 0.8099 0.08474 0.0
O589 O 0.69648 0.82331 0.06023 0.0
O590 O 0.67207 0.79886 0.05974 0.0
C591 C 0.68016 0.83923 0.10411 0.0
O592 O 0.66861 0.79268 0.10612 0.0
Co593 Co 0.7078 0.81161 0.12744 0.0
O594 O 0.68491 0.79315 0.13717 0.0
C595 C 0.72345 0.78361 0.09469 0.0
C596 C 0.68414 0.81144 0.04938 0.0
C597 C 0.67032 0.78675 0.12525 0.0
O598 O 0.7073 0.78751 0.08337 0.0
O599 O 0.72738 0.79292 0.11187 0.0
O600 O 0.66655 0.83394 0.09001 0.0
O601 O 0.69687 0.82801 0.10459 0.0
Co602 Co 0.19807 0.6816 0.08353 0.0
O603 O 0.18302 0.69196 0.05944 0.0
O604 O 0.20856 0.66871 0.05832 0.0
C605 C 0.16952 0.6765 0.1042 0.0
O606 O 0.21728 0.6667 0.10434 0.0
Co607 Co 0.19758 0.70448 0.12628 0.0
O608 O 0.21403 0.68038 0.13651 0.0
C609 C 0.22376 0.72066 0.09186 0.0
C610 C 0.19509 0.68007 0.04829 0.0
C611 C 0.22177 0.66711 0.12393 0.0
O612 O 0.21921 0.70478 0.08049 0.0
O613 O 0.21554 0.72413 0.10973 0.0
O614 O 0.1748 0.66267 0.0903 0.0
O615 O 0.18055 0.69332 0.10401 0.0
Co616 Co 0.32512 0.19602 0.08347 0.0
O617 O 0.31449 0.18059 0.05964 0.0
O618 O 0.3378 0.20599 0.05794 0.0
C619 C 0.3306 0.16799 0.10469 0.0
O620 O 0.3402 0.21578 0.10362 0.0
Co621 Co 0.30289 0.19637 0.1265 0.0
O622 O 0.32702 0.2133 0.13603 0.0
C623 C 0.28616 0.22195 0.09195 0.0
C624 C 0.3263 0.19246 0.04817 0.0
C625 C 0.34004 0.22087 0.12306 0.0
O626 O 0.30178 0.21701 0.08033 0.0
O627 O 0.283 0.21419 0.11006 0.0
O628 O 0.34433 0.17307 0.09061 0.0
O629 O 0.31363 0.17881 0.10444 0.0
Co630 Co 0.1987 0.3231 0.92206 0.0
O631 O 0.18396 0.31243 0.9462 0.0
O632 O 0.20908 0.33612 0.94727 0.0
C633 C 0.17022 0.32804 0.90147 0.0
O634 O 0.21713 0.33865 0.90095 0.0
Co635 Co 0.19873 0.2994 0.88008 0.0
O636 O 0.21674 0.32238 0.86991 0.0
C637 C 0.2249 0.28391 0.91437 0.0
C638 C 0.19585 0.32449 0.95733 0.0
C639 C 0.22307 0.337 0.88179 0.0
O640 O 0.22031 0.3002 0.92515 0.0
O641 O 0.21651 0.27981 0.89674 0.0
O642 O 0.17533 0.34183 0.91544 0.0
O643 O 0.1811 0.31108 0.90174 0.0
Co644 Co 0.68532 0.19691 0.9224 0.0
O645 O 0.69711 0.18302 0.94654 0.0
O646 O 0.67289 0.20768 0.94771 0.0
C647 C 0.68022 0.16798 0.90256 0.0
O648 O 0.66872 0.21444 0.90153 0.0
Co649 Co 0.70782 0.19623 0.87953 0.0
O650 O 0.6844 0.21422 0.87018 0.0
C651 C 0.72438 0.22256 0.91302 0.0
C652 C 0.68499 0.19484 0.9577 0.0
C653 C 0.66998 0.22044 0.8824 0.0
O654 O 0.70788 0.21903 0.92395 0.0
O655 O 0.72835 0.21331 0.89581 0.0
O656 O 0.66687 0.17298 0.91701 0.0
O657 O 0.69692 0.17925 0.90204 0.0
Co658 Co 0.32385 0.80982 0.92331 0.0
O659 O 0.31214 0.82318 0.94776 0.0
O660 O 0.33685 0.79899 0.9483 0.0
C661 C 0.32821 0.83905 0.90374 0.0
O662 O 0.3404 0.79287 0.90193 0.0
Co663 Co 0.30067 0.81101 0.88064 0.0
O664 O 0.32428 0.79358 0.87076 0.0
C665 C 0.28544 0.78332 0.91381 0.0
C666 C 0.32468 0.81151 0.9586 0.0
C667 C 0.33892 0.78728 0.88268 0.0
O668 O 0.30185 0.78715 0.92475 0.0
O669 O 0.28114 0.79265 0.89672 0.0
O670 O 0.3418 0.83416 0.91801 0.0
O671 O 0.3117 0.82752 0.90334 0.0
Co672 Co 0.58546 0.6988 0.82484 0.0
O673 O 0.56156 0.683 0.81506 0.0
O674 O 0.56007 0.709 0.83771 0.0
C675 C 0.60671 0.67083 0.83043 0.0
O676 O 0.60586 0.71882 0.83912 0.0
Co677 Co 0.62809 0.69872 0.80191 0.0
O678 O 0.63812 0.71597 0.82556 0.0
C679 C 0.59315 0.72383 0.78524 0.0
C680 C 0.55022 0.69512 0.82672 0.0
C681 C 0.62534 0.72381 0.83861 0.0
O682 O 0.58183 0.71934 0.8012 0.0
O683 O 0.6112 0.71591 0.78189 0.0
O684 O 0.59301 0.67633 0.84438 0.0
O685 O 0.60618 0.6813 0.81328 0.0
Co686 Co 0.3113 0.58477 0.82412 0.0
O687 O 0.32725 0.56105 0.8142 0.0
O688 O 0.30099 0.55933 0.8366 0.0
C689 C 0.33913 0.60608 0.83015 0.0
O690 O 0.29108 0.60481 0.83856 0.0
Co691 Co 0.31123 0.62775 0.80189 0.0
O692 O 0.29385 0.63728 0.82564 0.0
C693 C 0.2858 0.59316 0.78491 0.0
C694 C 0.31502 0.54961 0.82566 0.0
C695 C 0.28602 0.62423 0.8384 0.0
O696 O 0.2909 0.58137 0.80032 0.0
O697 O 0.29333 0.61143 0.78202 0.0
O698 O 0.3337 0.5921 0.84385 0.0
O699 O 0.32871 0.60575 0.81295 0.0
Co700 Co 0.42565 0.31268 0.82428 0.0
O701 O 0.44971 0.32732 0.81311 0.0
O702 O 0.451 0.30217 0.83677 0.0
C703 C 0.40527 0.34131 0.82952 0.0
O704 O 0.40522 0.29402 0.84021 0.0
Co705 Co 0.38213 0.31249 0.80317 0.0
O706 O 0.37236 0.29723 0.82827 0.0
C707 C 0.41596 0.28607 0.78609 0.0
C708 C 0.46093 0.3154 0.82509 0.0
C709 C 0.38557 0.28981 0.8411 0.0
O710 O 0.42794 0.29117 0.80136 0.0
O711 O 0.39782 0.29399 0.78325 0.0
O712 O 0.41959 0.3362 0.84297 0.0
O713 O 0.40484 0.33003 0.81284 0.0
Co714 Co 0.69931 0.42386 0.82411 0.0
O715 O 0.68558 0.44802 0.81218 0.0
O716 O 0.70956 0.44918 0.83703 0.0
C717 C 0.67025 0.40396 0.82859 0.0
O718 O 0.71668 0.40292 0.84087 0.0
Co719 Co 0.69866 0.3808 0.80168 0.0
O720 O 0.71653 0.37155 0.8252 0.0
C721 C 0.72583 0.41418 0.78578 0.0
C722 C 0.69686 0.45918 0.82479 0.0
C723 C 0.72269 0.38378 0.83962 0.0
O724 O 0.72195 0.42543 0.80199 0.0
O725 O 0.7167 0.39688 0.7819 0.0
O726 O 0.67501 0.41832 0.84209 0.0
O727 O 0.68182 0.40353 0.81214 0.0
Co728 Co 0.58518 0.31027 0.18246 0.0
O729 O 0.56115 0.32432 0.19451 0.0
O730 O 0.5596 0.29954 0.17051 0.0
C731 C 0.60492 0.33929 0.17671 0.0
O732 O 0.60537 0.29218 0.16562 0.0
Co733 Co 0.62924 0.31124 0.20263 0.0
O734 O 0.63763 0.29252 0.17942 0.0
C735 C 0.5963 0.28514 0.2212 0.0
C736 C 0.54978 0.31255 0.18251 0.0
C737 C 0.62448 0.28598 0.16602 0.0
O738 O 0.58431 0.28844 0.20538 0.0
O739 O 0.61387 0.29424 0.22385 0.0
O740 O 0.5903 0.33403 0.16363 0.0
O741 O 0.60593 0.3281 0.19337 0.0
Co742 Co 0.69789 0.58445 0.18217 0.0
O743 O 0.68232 0.56036 0.19171 0.0
O744 O 0.70859 0.5593 0.1693 0.0
C745 C 0.66974 0.6054 0.17635 0.0
O746 O 0.71763 0.60542 0.16807 0.0
Co747 Co 0.69736 0.62653 0.2058 0.0
O748 O 0.71503 0.63719 0.18279 0.0
C749 C 0.72291 0.59175 0.22204 0.0
C750 C 0.69471 0.54924 0.18015 0.0
C751 C 0.72269 0.62487 0.16926 0.0
O752 O 0.71825 0.58073 0.20596 0.0
O753 O 0.71504 0.60978 0.22553 0.0
O754 O 0.67543 0.59166 0.16255 0.0
O755 O 0.68004 0.60488 0.19366 0.0
Co756 Co 0.42374 0.69805 0.18291 0.0
O757 O 0.4479 0.68273 0.19288 0.0
O758 O 0.44891 0.70865 0.17008 0.0
C759 C 0.40291 0.66984 0.17732 0.0
O760 O 0.40326 0.71777 0.16841 0.0
Co761 Co 0.38077 0.69759 0.20525 0.0
O762 O 0.37091 0.71506 0.18172 0.0
C763 C 0.41516 0.72334 0.22213 0.0
C764 C 0.459 0.69503 0.18117 0.0
C765 C 0.38381 0.7228 0.16875 0.0
O766 O 0.42691 0.71859 0.20656 0.0
O767 O 0.39705 0.71546 0.22515 0.0
O768 O 0.41662 0.67542 0.16341 0.0
O769 O 0.40316 0.6804 0.19442 0.0
Co770 Co 0.31126 0.42348 0.18359 0.0
O771 O 0.32515 0.44744 0.19585 0.0
O772 O 0.3005 0.44899 0.17165 0.0
C773 C 0.34046 0.40394 0.17791 0.0
O774 O 0.29335 0.40335 0.16664 0.0
Co775 Co 0.31247 0.3793 0.20365 0.0
O776 O 0.29471 0.3708 0.17969 0.0
C777 C 0.2859 0.41199 0.22208 0.0
C778 C 0.31348 0.45878 0.18372 0.0
C779 C 0.28783 0.38406 0.16659 0.0
O780 O 0.2892 0.42402 0.2063 0.0
O781 O 0.29534 0.39463 0.22489 0.0
O782 O 0.33526 0.41866 0.16495 0.0
O783 O 0.32906 0.40276 0.19443 0.0
Co784 Co 0.82374 0.58483 0.69708 0.0
O785 O 0.81362 0.56059 0.68206 0.0
O786 O 0.83628 0.55972 0.70814 0.0
C787 C 0.8297 0.6052 0.66854 0.0
O788 O 0.83826 0.60566 0.71644 0.0
Co789 Co 0.80118 0.62773 0.69568 0.0
O790 O 0.82497 0.63792 0.71267 0.0
C791 C 0.78435 0.59387 0.72211 0.0
C792 C 0.82527 0.54957 0.69449 0.0
C793 C 0.83788 0.62524 0.72089 0.0
O794 O 0.80008 0.58221 0.71772 0.0
O795 O 0.78113 0.61171 0.71372 0.0
O796 O 0.84332 0.59127 0.67429 0.0
O797 O 0.81255 0.60522 0.6791 0.0
Co798 Co 0.42415 0.82334 0.69688 0.0
O799 O 0.4479 0.81344 0.68096 0.0
O800 O 0.44958 0.83633 0.70676 0.0
C801 C 0.40265 0.82865 0.66914 0.0
O802 O 0.40392 0.83775 0.71697 0.0
Co803 Co 0.38152 0.80036 0.6974 0.0
O804 O 0.37162 0.82423 0.71437 0.0
C805 C 0.41655 0.7843 0.72283 0.0
C806 C 0.45932 0.82519 0.69291 0.0
C807 C 0.38446 0.83733 0.72202 0.0
O808 O 0.42802 0.79991 0.71757 0.0
O809 O 0.39831 0.78095 0.71536 0.0
O810 O 0.41637 0.84268 0.67434 0.0
O811 O 0.4033 0.81158 0.67973 0.0
Co812 Co 0.183 0.42295 0.69762 0.0
O813 O 0.19404 0.44742 0.68368 0.0
O814 O 0.16975 0.44793 0.70823 0.0
C815 C 0.17831 0.40288 0.66877 0.0
O816 O 0.16708 0.40163 0.71533 0.0
Co817 Co 0.20666 0.38081 0.69693 0.0
O818 O 0.18407 0.37098 0.71571 0.0
C819 C 0.22249 0.41477 0.72306 0.0
C820 C 0.1816 0.45829 0.69544 0.0
C821 C 0.16914 0.38268 0.72173 0.0
O822 O 0.20567 0.42527 0.71964 0.0
O823 O 0.22684 0.39769 0.71377 0.0
O824 O 0.16452 0.41689 0.67388 0.0
O825 O 0.19514 0.40293 0.67984 0.0
Co826 Co 0.58421 0.18312 0.69772 0.0
O827 O 0.55984 0.19317 0.68278 0.0
O828 O 0.55905 0.17027 0.70858 0.0
C829 C 0.60468 0.17769 0.66911 0.0
O830 O 0.60519 0.16867 0.71703 0.0
Co831 Co 0.627 0.20593 0.69642 0.0
O832 O 0.63743 0.18202 0.71306 0.0
C833 C 0.59289 0.22246 0.72279 0.0
C834 C 0.54882 0.1814 0.69507 0.0
C835 C 0.62484 0.16906 0.72134 0.0
O836 O 0.58136 0.20657 0.71856 0.0
O837 O 0.61067 0.22583 0.7143 0.0
O838 O 0.59104 0.16375 0.67482 0.0
O839 O 0.60446 0.19473 0.67976 0.0
Co840 Co 0.82455 0.42219 0.30998 0.0
O841 O 0.81324 0.44647 0.32414 0.0
O842 O 0.83738 0.44745 0.29944 0.0
C843 C 0.82942 0.40192 0.33872 0.0
O844 O 0.84084 0.40125 0.29216 0.0
Co845 Co 0.80153 0.37962 0.31027 0.0
O846 O 0.82466 0.37016 0.29196 0.0
C847 C 0.78532 0.4135 0.28422 0.0
C848 C 0.82553 0.45755 0.31241 0.0
C849 C 0.83928 0.38221 0.2859 0.0
O850 O 0.80191 0.42428 0.28789 0.0
O851 O 0.78121 0.39623 0.2933 0.0
O852 O 0.843 0.4162 0.33381 0.0
O853 O 0.81269 0.4018 0.32751 0.0
Co854 Co 0.58433 0.82517 0.3088 0.0
O855 O 0.56013 0.81462 0.32367 0.0
O856 O 0.5591 0.838 0.29832 0.0
C857 C 0.60483 0.83048 0.33743 0.0
O858 O 0.60505 0.84029 0.28963 0.0
Co859 Co 0.62745 0.80299 0.30931 0.0
O860 O 0.63742 0.82691 0.29249 0.0
C861 C 0.59329 0.78623 0.28309 0.0
C862 C 0.54899 0.82661 0.31168 0.0
C863 C 0.62461 0.84004 0.28488 0.0
O864 O 0.58155 0.80182 0.2878 0.0
O865 O 0.61132 0.78318 0.29117 0.0
O866 O 0.59084 0.84416 0.33202 0.0
O867 O 0.60492 0.81364 0.32641 0.0
Co868 Co 0.18409 0.58392 0.30971 0.0
O869 O 0.19354 0.55941 0.32478 0.0
O870 O 0.1713 0.55904 0.29836 0.0
C871 C 0.17815 0.60433 0.33817 0.0
O872 O 0.17014 0.60493 0.29018 0.0
Co873 Co 0.20707 0.6265 0.31144 0.0
O874 O 0.18347 0.63708 0.29438 0.0
C875 C 0.22402 0.59247 0.28538 0.0
C876 C 0.18199 0.54863 0.31207 0.0
C877 C 0.17059 0.62454 0.28591 0.0
O878 O 0.20807 0.58097 0.28947 0.0
O879 O 0.22727 0.61028 0.2938 0.0
O880 O 0.16421 0.59083 0.33215 0.0
O881 O 0.19547 0.60403 0.32794 0.0
Co882 Co 0.42385 0.18423 0.31 0.0
O883 O 0.44811 0.1962 0.32352 0.0
O884 O 0.44907 0.17097 0.29993 0.0
C885 C 0.40376 0.1804 0.33898 0.0
O886 O 0.4027 0.1674 0.29294 0.0
Co887 Co 0.3812 0.2074 0.30988 0.0
O888 O 0.37161 0.18369 0.2925 0.0
C889 C 0.41508 0.22235 0.2829 0.0
C890 C 0.45919 0.18347 0.31228 0.0
C891 C 0.38359 0.16886 0.28679 0.0
O892 O 0.4259 0.20595 0.28712 0.0
O893 O 0.39783 0.22681 0.2919 0.0
O894 O 0.41808 0.16673 0.33451 0.0
O895 O 0.40354 0.19669 0.32717 0.0
Co896 Co 0.69838 0.82477 0.58329 0.0
O897 O 0.68292 0.81462 0.55933 0.0
O898 O 0.70864 0.83767 0.55797 0.0
C899 C 0.67027 0.83023 0.60437 0.0
O900 O 0.71814 0.83931 0.60375 0.0
Co901 Co 0.6981 0.8019 0.62597 0.0
O902 O 0.71503 0.8258 0.63597 0.0
C903 C 0.72381 0.78548 0.59137 0.0
C904 C 0.69495 0.82645 0.54808 0.0
C905 C 0.72292 0.83888 0.62325 0.0
O906 O 0.71921 0.80134 0.57997 0.0
O907 O 0.7158 0.78211 0.60934 0.0
O908 O 0.67564 0.84415 0.59061 0.0
O909 O 0.68085 0.81314 0.60391 0.0
Co910 Co 0.69677 0.1827 0.42344 0.0
O911 O 0.68149 0.19356 0.44716 0.0
O912 O 0.70711 0.17044 0.44902 0.0
C913 C 0.66838 0.17691 0.40274 0.0
O914 O 0.71612 0.16736 0.40299 0.0
Co915 Co 0.69673 0.20477 0.38042 0.0
O916 O 0.71348 0.18073 0.37063 0.0
C917 C 0.72262 0.22169 0.41467 0.0
C918 C 0.69352 0.182 0.45867 0.0
C919 C 0.72096 0.16757 0.38346 0.0
O920 O 0.71772 0.20609 0.42626 0.0
O921 O 0.71477 0.22472 0.39655 0.0
O922 O 0.6737 0.16349 0.41701 0.0
O923 O 0.67928 0.19385 0.40258 0.0
Co924 Co 0.8246 0.69683 0.42287 0.0
O925 O 0.81331 0.68329 0.44748 0.0
O926 O 0.83816 0.70729 0.44772 0.0
C927 C 0.8286 0.66782 0.40279 0.0
O928 O 0.84094 0.7141 0.40155 0.0
Co929 Co 0.8011 0.69665 0.38057 0.0
O930 O 0.82431 0.71464 0.37072 0.0
C931 C 0.78587 0.7234 0.41444 0.0
C932 C 0.82606 0.69487 0.45822 0.0
C933 C 0.83921 0.72043 0.38256 0.0
O934 O 0.80243 0.71938 0.42516 0.0
O935 O 0.78148 0.71437 0.39723 0.0
O936 O 0.84245 0.67258 0.41686 0.0
O937 O 0.81208 0.67934 0.4028 0.0
Co938 Co 0.30995 0.8243 0.423 0.0
O939 O 0.32535 0.81415 0.44695 0.0
O940 O 0.29944 0.83696 0.44831 0.0
C941 C 0.33826 0.83004 0.40217 0.0
O942 O 0.29047 0.83909 0.40233 0.0
Co943 Co 0.31012 0.80155 0.3804 0.0
O944 O 0.29307 0.82523 0.37019 0.0
C945 C 0.28463 0.78476 0.41499 0.0
C946 C 0.31318 0.82583 0.45821 0.0
C947 C 0.28557 0.83856 0.38283 0.0
O948 O 0.28922 0.80071 0.42626 0.0
O949 O 0.29257 0.78151 0.39695 0.0
O950 O 0.33278 0.84366 0.41617 0.0
O951 O 0.32758 0.81295 0.40233 0.0
Co952 Co 0.18379 0.31079 0.42372 0.0
O953 O 0.19492 0.32453 0.44824 0.0
O954 O 0.1705 0.30005 0.4486 0.0
C955 C 0.17936 0.33975 0.4038 0.0
O956 O 0.16774 0.2934 0.4023 0.0
Co957 Co 0.20756 0.31154 0.38152 0.0
O958 O 0.18446 0.2935 0.37149 0.0
C959 C 0.22308 0.28513 0.41545 0.0
C960 C 0.18235 0.31279 0.459 0.0
C961 C 0.1696 0.28737 0.38323 0.0
O962 O 0.20625 0.28861 0.42588 0.0
O963 O 0.22758 0.29447 0.39841 0.0
O964 O 0.16558 0.33478 0.41787 0.0
O965 O 0.19604 0.32845 0.40375 0.0
Co966 Co 0.31052 0.18301 0.58484 0.0
O967 O 0.32553 0.19353 0.56076 0.0
O968 O 0.30019 0.17008 0.55957 0.0
C969 C 0.33903 0.17791 0.60553 0.0
O970 O 0.29145 0.16787 0.60565 0.0
Co971 Co 0.31067 0.20568 0.62764 0.0
O972 O 0.29481 0.18124 0.63794 0.0
C973 C 0.28464 0.22204 0.59316 0.0
C974 C 0.31366 0.18147 0.54958 0.0
C975 C 0.28704 0.16807 0.62528 0.0
O976 O 0.28936 0.2062 0.58179 0.0
O977 O 0.29266 0.22534 0.61116 0.0
O978 O 0.33383 0.16417 0.59154 0.0
O979 O 0.32795 0.19472 0.60541 0.0
Co980 Co 0.82472 0.31046 0.58375 0.0
O981 O 0.81353 0.32353 0.55888 0.0
O982 O 0.83794 0.2991 0.55906 0.0
C983 C 0.82938 0.34005 0.60273 0.0
O984 O 0.84065 0.29353 0.60566 0.0
Co985 Co 0.80121 0.31303 0.62609 0.0
O986 O 0.82393 0.29472 0.6365 0.0
C987 C 0.78577 0.28478 0.59346 0.0
C988 C 0.82607 0.31159 0.54835 0.0
C989 C 0.83865 0.28801 0.6249 0.0
O990 O 0.8023 0.28811 0.58248 0.0
O991 O 0.78152 0.29467 0.61024 0.0
O992 O 0.84314 0.33452 0.58887 0.0
O993 O 0.81261 0.32892 0.60313 0.0
Co994 Co 0.18335 0.69693 0.58407 0.0
O995 O 0.19321 0.68167 0.55984 0.0
O996 O 0.17007 0.70729 0.55903 0.0
C997 C 0.17817 0.66878 0.60518 0.0
O998 O 0.16902 0.71663 0.60468 0.0
Co999 Co 0.20665 0.69678 0.62645 0.0
O1000 O 0.18297 0.71391 0.63673 0.0
C1001 C 0.22272 0.72246 0.5917 0.0
C1002 C 0.18126 0.69382 0.54882 0.0
C1003 C 0.16971 0.72165 0.62411 0.0
O1004 O 0.20675 0.71777 0.58047 0.0
O1005 O 0.22633 0.71447 0.60963 0.0
O1006 O 0.16407 0.67417 0.59159 0.0
O1007 O 0.19527 0.67938 0.60455 0.0
Co1008 Co 0.42348 0.31038 0.18168 0.0
O1009 O 0.44764 0.3244 0.19334 0.0
O1010 O 0.44891 0.29991 0.16905 0.0
C1011 C 0.40348 0.33933 0.17693 0.0
O1012 O 0.40251 0.29266 0.16524 0.0
Co1013 Co 0.38079 0.31085 0.20445 0.0
O1014 O 0.37139 0.29237 0.18146 0.0
C1015 C 0.41461 0.28472 0.22071 0.0
C1016 C 0.45891 0.31271 0.18121 0.0
C1017 C 0.38347 0.28632 0.16685 0.0
O1018 O 0.42536 0.28818 0.2041 0.0
O1019 O 0.39738 0.29391 0.22481 0.0
O1020 O 0.41771 0.33432 0.16334 0.0
O1021 O 0.40317 0.32802 0.19356 0.0
Co1022 Co 0.69788 0.42326 0.18219 0.0
O1023 O 0.68286 0.44738 0.19257 0.0
O1024 O 0.70847 0.44848 0.16938 0.0
C1025 C 0.66925 0.40275 0.17663 0.0
O1026 O 0.71719 0.40248 0.16741 0.0
Co1027 Co 0.69694 0.38043 0.20484 0.0
O1028 O 0.71368 0.37027 0.1809 0.0
C1029 C 0.72337 0.4145 0.22136 0.0
C1030 C 0.69491 0.4585 0.18064 0.0
C1031 C 0.7217 0.3829 0.16783 0.0
O1032 O 0.7189 0.42605 0.20557 0.0
O1033 O 0.71503 0.39665 0.22467 0.0
O1034 O 0.6748 0.4167 0.16297 0.0
O1035 O 0.68006 0.40278 0.19361 0.0
Co1036 Co 0.5852 0.69781 0.1825 0.0
O1037 O 0.5609 0.68291 0.19272 0.0
O1038 O 0.56007 0.70866 0.16973 0.0
C1039 C 0.60565 0.66922 0.17689 0.0
O1040 O 0.60616 0.71701 0.16786 0.0
Co1041 Co 0.62802 0.69664 0.20535 0.0
O1042 O 0.63836 0.71332 0.18144 0.0
C1043 C 0.59396 0.72312 0.22175 0.0
C1044 C 0.54989 0.6951 0.18084 0.0
C1045 C 0.6258 0.72141 0.16835 0.0
O1046 O 0.58246 0.7187 0.2059 0.0
O1047 O 0.61176 0.7147 0.22519 0.0
O1048 O 0.59169 0.67481 0.16324 0.0
O1049 O 0.6056 0.67995 0.1939 0.0
Co1050 Co 0.31143 0.58454 0.18341 0.0
O1051 O 0.32642 0.56067 0.19429 0.0
O1052 O 0.30115 0.55914 0.17075 0.0
C1053 C 0.33971 0.6053 0.17806 0.0
O1054 O 0.29259 0.60525 0.16786 0.0
Co1055 Co 0.31129 0.62706 0.2064 0.0
O1056 O 0.29393 0.63695 0.18284 0.0
C1057 C 0.28558 0.59257 0.22264 0.0
C1058 C 0.31451 0.54933 0.18244 0.0
C1059 C 0.28707 0.62458 0.16889 0.0
O1060 O 0.29013 0.58155 0.20652 0.0
O1061 O 0.29373 0.61043 0.22627 0.0
O1062 O 0.33465 0.5911 0.16447 0.0
O1063 O 0.32882 0.6052 0.19501 0.0
Co1064 Co 0.42409 0.69823 0.82526 0.0
O1065 O 0.44797 0.68239 0.81551 0.0
O1066 O 0.44948 0.70836 0.83819 0.0
C1067 C 0.40267 0.6704 0.83083 0.0
O1068 O 0.40365 0.7183 0.83944 0.0
Co1069 Co 0.38162 0.6982 0.80196 0.0
O1070 O 0.37154 0.71559 0.82549 0.0
C1071 C 0.41674 0.72318 0.78556 0.0
C1072 C 0.45931 0.69443 0.82723 0.0
C1073 C 0.3842 0.72336 0.83869 0.0
O1074 O 0.42786 0.71875 0.80166 0.0
O1075 O 0.39874 0.71525 0.78201 0.0
O1076 O 0.41636 0.67581 0.84482 0.0
O1077 O 0.40336 0.68079 0.81364 0.0
Co1078 Co 0.31088 0.42376 0.82409 0.0
O1079 O 0.32605 0.44773 0.81366 0.0
O1080 O 0.30069 0.44905 0.83711 0.0
C1081 C 0.33941 0.40317 0.82915 0.0
O1082 O 0.29154 0.40303 0.83897 0.0
Co1083 Co 0.3113 0.38114 0.80124 0.0
O1084 O 0.29511 0.37084 0.8255 0.0
C1085 C 0.28493 0.41545 0.78519 0.0
C1086 C 0.31424 0.45895 0.8257 0.0
C1087 C 0.28716 0.38341 0.83866 0.0
O1088 O 0.28969 0.4269 0.80096 0.0
O1089 O 0.29305 0.39754 0.78172 0.0
O1090 O 0.33396 0.41683 0.84313 0.0
O1091 O 0.32851 0.40336 0.81223 0.0
Co1092 Co 0.58685 0.31045 0.8239 0.0
O1093 O 0.56307 0.32606 0.81359 0.0
O1094 O 0.56146 0.30059 0.83687 0.0
C1095 C 0.60811 0.33838 0.82916 0.0
O1096 O 0.60696 0.29056 0.83872 0.0
Co1097 Co 0.62965 0.30974 0.80147 0.0
O1098 O 0.63929 0.29243 0.82521 0.0
C1099 C 0.59477 0.28443 0.78499 0.0
C1100 C 0.55168 0.31423 0.82551 0.0
C1101 C 0.62631 0.28514 0.83836 0.0
O1102 O 0.58324 0.28961 0.80058 0.0
O1103 O 0.61302 0.29192 0.78178 0.0
O1104 O 0.5943 0.33317 0.84311 0.0
O1105 O 0.60774 0.32762 0.81217 0.0
Co1106 Co 0.69805 0.58511 0.82489 0.0
O1107 O 0.68261 0.56128 0.81437 0.0
O1108 O 0.70853 0.55962 0.83716 0.0
C1109 C 0.66981 0.60601 0.83081 0.0
O1110 O 0.7178 0.6053 0.83992 0.0
Co1111 Co 0.69793 0.62838 0.80316 0.0
O1112 O 0.71533 0.63779 0.82692 0.0
C1113 C 0.72341 0.59407 0.78572 0.0
C1114 C 0.69485 0.54986 0.82584 0.0
C1115 C 0.72289 0.62474 0.83983 0.0
O1116 O 0.71871 0.58227 0.80125 0.0
O1117 O 0.71556 0.61222 0.78292 0.0
O1118 O 0.67519 0.59185 0.84433 0.0
O1119 O 0.68057 0.60605 0.81381 0.0
Co1120 Co 0.18371 0.42243 0.31026 0.0
O1121 O 0.19486 0.44715 0.32364 0.0
O1122 O 0.17052 0.44722 0.29913 0.0
C1123 C 0.17901 0.40312 0.3396 0.0
O1124 O 0.16774 0.40078 0.29303 0.0
Co1125 Co 0.20701 0.38 0.31222 0.0
O1126 O 0.18452 0.36999 0.29342 0.0
C1127 C 0.22279 0.41303 0.28467 0.0
C1128 C 0.18235 0.4578 0.31176 0.0
C1129 C 0.16977 0.38171 0.28701 0.0
O1130 O 0.20628 0.42401 0.28806 0.0
O1131 O 0.22687 0.39602 0.29424 0.0
O1132 O 0.16524 0.41702 0.33419 0.0
O1133 O 0.19579 0.40281 0.32848 0.0
Co1134 Co 0.58548 0.18401 0.30964 0.0
O1135 O 0.5613 0.1956 0.32374 0.0
O1136 O 0.56003 0.17229 0.29832 0.0
C1137 C 0.60483 0.17772 0.33878 0.0
O1138 O 0.60598 0.1677 0.29145 0.0
Co1139 Co 0.62939 0.20447 0.31167 0.0
O1140 O 0.63829 0.18136 0.29303 0.0
C1141 C 0.5968 0.22325 0.28532 0.0
C1142 C 0.55004 0.1839 0.31157 0.0
C1143 C 0.62529 0.16815 0.28585 0.0
O1144 O 0.58486 0.20732 0.28824 0.0
O1145 O 0.61413 0.22598 0.29486 0.0
O1146 O 0.59035 0.16468 0.33304 0.0
O1147 O 0.60592 0.19461 0.32794 0.0
Co1148 Co 0.82404 0.58373 0.30965 0.0
O1149 O 0.81376 0.55958 0.32481 0.0
O1150 O 0.83707 0.55852 0.29937 0.0
C1151 C 0.82918 0.60468 0.33793 0.0
O1152 O 0.83893 0.60414 0.2901 0.0
Co1153 Co 0.80162 0.62658 0.30958 0.0
O1154 O 0.82549 0.63642 0.29246 0.0
C1155 C 0.78475 0.59195 0.28426 0.0
C1156 C 0.82571 0.54842 0.31277 0.0
C1157 C 0.83865 0.62355 0.28498 0.0
O1158 O 0.80066 0.58051 0.28872 0.0
O1159 O 0.78148 0.60992 0.29231 0.0
O1160 O 0.84318 0.59095 0.33263 0.0
O1161 O 0.81224 0.60436 0.32708 0.0
Co1162 Co 0.42273 0.82448 0.30967 0.0
O1163 O 0.44718 0.81493 0.3248 0.0
O1164 O 0.44769 0.83747 0.29865 0.0
C1165 C 0.40209 0.82997 0.33808 0.0
O1166 O 0.40172 0.83851 0.29014 0.0
Co1167 Co 0.38019 0.80128 0.31086 0.0
O1168 O 0.36956 0.82502 0.29407 0.0
C1169 C 0.41456 0.78491 0.28481 0.0
C1170 C 0.45804 0.82665 0.31231 0.0
C1171 C 0.38211 0.838 0.28576 0.0
O1172 O 0.42592 0.80086 0.28913 0.0
O1173 O 0.3967 0.78143 0.29309 0.0
O1174 O 0.4156 0.844 0.33231 0.0
O1175 O 0.40252 0.81281 0.32763 0.0
Co1176 Co 0.18379 0.5844 0.69793 0.0
O1177 O 0.19369 0.56008 0.68281 0.0
O1178 O 0.17096 0.55934 0.70882 0.0
C1179 C 0.17819 0.60508 0.66949 0.0
O1180 O 0.1693 0.60514 0.71744 0.0
Co1181 Co 0.20653 0.62715 0.6971 0.0
O1182 O 0.18287 0.63733 0.7143 0.0
C1183 C 0.22334 0.59285 0.72292 0.0
C1184 C 0.18193 0.54912 0.6952 0.0
C1185 C 0.16978 0.62464 0.72222 0.0
O1186 O 0.20742 0.5814 0.71859 0.0
O1187 O 0.22665 0.61072 0.71466 0.0
O1188 O 0.16434 0.59131 0.67511 0.0
O1189 O 0.19529 0.60485 0.68011 0.0
Co1190 Co 0.42239 0.18364 0.69903 0.0
O1191 O 0.44685 0.19442 0.68483 0.0
O1192 O 0.4475 0.17049 0.70969 0.0
C1193 C 0.40226 0.17883 0.67021 0.0
O1194 O 0.40097 0.1679 0.71686 0.0
Co1195 Co 0.38021 0.20726 0.69832 0.0
O1196 O 0.37009 0.18451 0.71666 0.0
C1197 C 0.41431 0.22323 0.72433 0.0
C1198 C 0.45781 0.18216 0.69669 0.0
C1199 C 0.38183 0.16971 0.72286 0.0
O1200 O 0.42491 0.20651 0.72082 0.0
O1201 O 0.39708 0.22743 0.71517 0.0
O1202 O 0.4162 0.16503 0.67545 0.0
O1203 O 0.40233 0.1957 0.6812 0.0
Co1204 Co 0.82554 0.42354 0.69563 0.0
O1205 O 0.81337 0.44785 0.68237 0.0
O1206 O 0.83837 0.4487 0.70623 0.0
C1207 C 0.82985 0.40408 0.66627 0.0
O1208 O 0.84241 0.40253 0.71272 0.0
Co1209 Co 0.80334 0.38036 0.69463 0.0
O1210 O 0.82718 0.3709 0.71201 0.0
C1211 C 0.78759 0.41335 0.72244 0.0
C1212 C 0.82591 0.45887 0.69389 0.0
C1213 C 0.84135 0.38329 0.71841 0.0
O1214 O 0.80367 0.42473 0.71842 0.0
O1215 O 0.78368 0.3961 0.71321 0.0
O1216 O 0.84336 0.41844 0.67113 0.0
O1217 O 0.81351 0.40338 0.67801 0.0
Co1218 Co 0.58534 0.82418 0.69655 0.0
O1219 O 0.56167 0.81385 0.68076 0.0
O1220 O 0.55975 0.83683 0.70646 0.0
C1221 C 0.60668 0.82982 0.66869 0.0
O1222 O 0.60543 0.83896 0.71654 0.0
Co1223 Co 0.62832 0.80182 0.69699 0.0
O1224 O 0.63789 0.82579 0.714 0.0
C1225 C 0.5936 0.78527 0.72254 0.0
C1226 C 0.55014 0.82561 0.69259 0.0
C1227 C 0.62489 0.83874 0.72163 0.0
O1228 O 0.58193 0.80075 0.71733 0.0
O1229 O 0.61185 0.78215 0.71499 0.0
O1230 O 0.59266 0.84355 0.67388 0.0
O1231 O 0.60637 0.81277 0.67936 0.0
Co1232 Co 0.31109 0.1835 0.42354 0.0
O1233 O 0.32544 0.1941 0.44793 0.0
O1234 O 0.30084 0.16984 0.44848 0.0
C1235 C 0.33971 0.17944 0.40297 0.0
O1236 O 0.29311 0.16797 0.40208 0.0
Co1237 Co 0.31095 0.2079 0.38183 0.0
O1238 O 0.2932 0.18485 0.37135 0.0
C1239 C 0.28473 0.22259 0.41643 0.0
C1240 C 0.31372 0.18164 0.4588 0.0
C1241 C 0.28712 0.16991 0.38296 0.0
O1242 O 0.28904 0.20595 0.42682 0.0
O1243 O 0.29338 0.22716 0.39905 0.0
O1244 O 0.33488 0.16533 0.41674 0.0
O1245 O 0.32849 0.19615 0.4035 0.0
Co1246 Co 0.31055 0.82406 0.58415 0.0
O1247 O 0.32498 0.81317 0.55992 0.0
O1248 O 0.30045 0.83751 0.55906 0.0
C1249 C 0.3391 0.8284 0.60476 0.0
O1250 O 0.29245 0.83978 0.60535 0.0
Co1251 Co 0.31031 0.80018 0.62624 0.0
O1252 O 0.29302 0.82364 0.63649 0.0
C1253 C 0.28403 0.78514 0.59172 0.0
C1254 C 0.31341 0.82566 0.54892 0.0
C1255 C 0.28672 0.83824 0.62458 0.0
O1256 O 0.2886 0.80151 0.58103 0.0
O1257 O 0.29246 0.7809 0.6093 0.0
O1258 O 0.33431 0.84229 0.59078 0.0
O1259 O 0.32785 0.81169 0.60444 0.0
Co1260 Co 0.18375 0.30997 0.58496 0.0
O1261 O 0.19421 0.32479 0.56075 0.0
O1262 O 0.17104 0.29916 0.55985 0.0
C1263 C 0.1782 0.33858 0.60533 0.0
O1264 O 0.16882 0.29083 0.60571 0.0
Co1265 Co 0.20613 0.31093 0.62795 0.0
O1266 O 0.18204 0.29427 0.63802 0.0
C1267 C 0.22301 0.28476 0.59393 0.0
C1268 C 0.1824 0.31253 0.54971 0.0
C1269 C 0.16903 0.28632 0.62527 0.0
O1270 O 0.20716 0.28904 0.58237 0.0
O1271 O 0.22627 0.29317 0.61175 0.0
O1272 O 0.16452 0.33307 0.59136 0.0
O1273 O 0.19517 0.32775 0.6054 0.0
Co1274 Co 0.69702 0.18349 0.58458 0.0
O1275 O 0.68289 0.19579 0.56077 0.0
O1276 O 0.70723 0.17131 0.55895 0.0
C1277 C 0.66806 0.17825 0.60462 0.0
O1278 O 0.71506 0.16636 0.60452 0.0
Co1279 Co 0.69693 0.20372 0.6286 0.0
O1280 O 0.7147 0.17974 0.63692 0.0
C1281 C 0.72345 0.22153 0.59549 0.0
C1282 C 0.69428 0.18352 0.5493 0.0
C1283 C 0.7211 0.16641 0.62366 0.0
O1284 O 0.71934 0.20597 0.58343 0.0
O1285 O 0.71476 0.22432 0.61324 0.0
O1286 O 0.67293 0.16513 0.58992 0.0
O1287 O 0.67963 0.19468 0.60554 0.0
Co1288 Co 0.82525 0.69757 0.58435 0.0
O1289 O 0.8145 0.6835 0.55984 0.0
O1290 O 0.83835 0.7085 0.5594 0.0
C1291 C 0.83013 0.66874 0.6044 0.0
O1292 O 0.84089 0.71539 0.60579 0.0
Co1293 Co 0.80135 0.69659 0.62635 0.0
O1294 O 0.82375 0.71551 0.63635 0.0
C1295 C 0.78554 0.72274 0.59243 0.0
C1296 C 0.82674 0.69551 0.54903 0.0
C1297 C 0.83869 0.72169 0.62475 0.0
O1298 O 0.80241 0.71938 0.58201 0.0
O1299 O 0.78113 0.71342 0.60949 0.0
O1300 O 0.84394 0.67399 0.59046 0.0
O1301 O 0.8132 0.67964 0.60429 0.0
Co1302 Co 0.69714 0.82443 0.42197 0.0
O1303 O 0.683 0.81368 0.44642 0.0
O1304 O 0.70794 0.83758 0.44695 0.0
C1305 C 0.66828 0.82924 0.40186 0.0
O1306 O 0.71494 0.8401 0.40058 0.0
Co1307 Co 0.69624 0.80048 0.37999 0.0
O1308 O 0.71505 0.82299 0.37 0.0
C1309 C 0.72259 0.78491 0.4139 0.0
C1310 C 0.69492 0.82596 0.4573 0.0
C1311 C 0.7212 0.83792 0.38161 0.0
O1312 O 0.71916 0.80176 0.42431 0.0
O1313 O 0.7133 0.78046 0.39684 0.0
O1314 O 0.67348 0.84302 0.41582 0.0
O1315 O 0.67925 0.81236 0.40199 0.0
Co1316 Co 0.18349 0.69637 0.42268 0.0
O1317 O 0.19429 0.68214 0.44712 0.0
O1318 O 0.17049 0.70718 0.4477 0.0
C1319 C 0.17848 0.66762 0.40252 0.0
O1320 O 0.16764 0.7143 0.40148 0.0
Co1321 Co 0.20678 0.69573 0.38031 0.0
O1322 O 0.1839 0.7141 0.37045 0.0
C1323 C 0.22301 0.72184 0.41419 0.0
C1324 C 0.18203 0.69408 0.45799 0.0
C1325 C 0.16928 0.72038 0.3824 0.0
O1326 O 0.20647 0.71808 0.42502 0.0
O1327 O 0.22702 0.71283 0.39686 0.0
O1328 O 0.16478 0.6728 0.41659 0.0
O1329 O 0.19537 0.67861 0.40249 0.0
Co1330 Co 0.82464 0.30848 0.42222 0.0
O1331 O 0.81488 0.32374 0.44651 0.0
O1332 O 0.83744 0.2976 0.4473 0.0
C1333 C 0.83026 0.33683 0.40147 0.0
O1334 O 0.83903 0.2888 0.40159 0.0
Co1335 Co 0.80201 0.3092 0.37949 0.0
O1336 O 0.82553 0.29178 0.36938 0.0
C1337 C 0.78489 0.28377 0.4139 0.0
C1338 C 0.82653 0.31128 0.45751 0.0
C1339 C 0.8386 0.28393 0.38212 0.0
O1340 O 0.80083 0.28803 0.42535 0.0
O1341 O 0.78171 0.29193 0.39597 0.0
O1342 O 0.84423 0.33112 0.41508 0.0
O1343 O 0.81311 0.32631 0.40178 0.0
C1344 C 0.13607 0.2386 0.37317 0.0
C1345 C 0.13313 0.24077 0.35139 0.0
C1346 C 0.14685 0.27645 0.35338 0.0
C1347 C 0.15407 0.27256 0.37396 0.0
N1348 N 0.1561 0.2488 0.4034 0.0
N1349 N 0.13582 0.26193 0.32034 0.0
C1350 C 0.14854 0.25348 0.38404 0.0
C1351 C 0.13845 0.25981 0.3414 0.0
N1352 N 0.12688 0.22241 0.38352 0.0
N1353 N 0.14749 0.29626 0.34552 0.0
H1354 H 0.12876 0.25058 0.31109 0.0
H1355 H 0.14174 0.27445 0.31185 0.0
H1356 H 0.15278 0.30895 0.35421 0.0
H1357 H 0.14067 0.3005 0.33139 0.0
H1358 H 0.1268 0.22108 0.39971 0.0
H1359 H 0.11733 0.21159 0.37605 0.0
H1360 H 0.15494 0.23401 0.41003 0.0
H1361 H 0.16478 0.25905 0.41246 0.0
C1362 C 0.75905 0.16102 0.3775 0.0
C1363 C 0.73812 0.15394 0.37577 0.0
C1364 C 0.75006 0.12367 0.35549 0.0
C1365 C 0.77049 0.13248 0.35444 0.0
N1366 N 0.79463 0.15954 0.36465 0.0
N1367 N 0.71316 0.12957 0.362 0.0
C1368 C 0.77506 0.15106 0.36572 0.0
C1369 C 0.73352 0.13542 0.36465 0.0
N1370 N 0.76355 0.17745 0.39033 0.0
N1371 N 0.74628 0.1042 0.34769 0.0
H1372 H 0.7008 0.1375 0.36897 0.0
H1373 H 0.7084 0.11786 0.3518 0.0
H1374 H 0.7575 0.09513 0.34027 0.0
H1375 H 0.73236 0.09617 0.35009 0.0
H1376 H 0.77864 0.18208 0.3942 0.0
H1377 H 0.75208 0.18566 0.39841 0.0
H1378 H 0.79841 0.17437 0.37005 0.0
H1379 H 0.80711 0.15206 0.35741 0.0
C1380 C 0.86056 0.75414 0.38384 0.0
C1381 C 0.85497 0.73518 0.37355 0.0
C1382 C 0.87119 0.74801 0.34128 0.0
C1383 C 0.87631 0.76703 0.35142 0.0
N1384 N 0.88204 0.78537 0.38362 0.0
N1385 N 0.86152 0.71168 0.34495 0.0
C1386 C 0.87307 0.76913 0.37315 0.0
C1387 C 0.86238 0.73139 0.35302 0.0
N1388 N 0.85302 0.75859 0.40327 0.0
N1389 N 0.8744 0.74591 0.3203 0.0
H1390 H 0.85575 0.69903 0.35338 0.0
H1391 H 0.86852 0.70741 0.33093 0.0
H1392 H 0.88197 0.75714 0.3113 0.0
H1393 H 0.86857 0.7335 0.31158 0.0
H1394 H 0.8541 0.7733 0.41006 0.0
H1395 H 0.84452 0.74815 0.41229 0.0
H1396 H 0.88196 0.78669 0.39981 0.0
H1397 H 0.89152 0.79633 0.37626 0.0
C1398 C 0.23153 0.85632 0.36576 0.0
C1399 C 0.23637 0.87505 0.35488 0.0
C1400 C 0.2734 0.87095 0.36419 0.0
C1401 C 0.26857 0.8523 0.37501 0.0
N1402 N 0.24287 0.82893 0.38936 0.0
N1403 N 0.26096 0.90315 0.34897 0.0
C1404 C 0.24752 0.84564 0.37695 0.0
C1405 C 0.25696 0.8834 0.35589 0.0
N1406 N 0.21169 0.84845 0.36489 0.0
N1407 N 0.2938 0.87625 0.36092 0.0
H1408 H 0.24964 0.91291 0.34266 0.0
H1409 H 0.27516 0.91071 0.35131 0.0
H1410 H 0.30613 0.86754 0.3669 0.0
H1411 H 0.29852 0.88817 0.35094 0.0
H1412 H 0.20757 0.83363 0.37006 0.0
H1413 H 0.19931 0.85653 0.35815 0.0
H1414 H 0.22776 0.82452 0.39337 0.0
H1415 H 0.25431 0.82016 0.39688 0.0
C1416 C 0.16725 0.75866 0.63654 0.0
C1417 C 0.15705 0.73963 0.63158 0.0
C1418 C 0.12471 0.75259 0.64749 0.0
C1419 C 0.13495 0.77171 0.65257 0.0
N1420 N 0.16355 0.79515 0.64554 0.0
N1421 N 0.12466 0.72137 0.62608 0.0
C1422 C 0.15549 0.77542 0.64505 0.0
C1423 C 0.13528 0.73758 0.63493 0.0
N1424 N 0.18829 0.76069 0.63346 0.0
N1425 N 0.10553 0.74798 0.65564 0.0
H1426 H 0.13187 0.71046 0.61645 0.0
H1427 H 0.10844 0.72013 0.62636 0.0
H1428 H 0.09689 0.75818 0.66482 0.0
H1429 H 0.0988 0.73323 0.65464 0.0
H1430 H 0.19699 0.77316 0.63919 0.0
H1431 H 0.19736 0.74931 0.62618 0.0
H1432 H 0.17758 0.79929 0.63844 0.0
H1433 H 0.15512 0.80789 0.6511 0.0
C1434 C 0.2753 0.13875 0.64846 0.0
C1435 C 0.2703 0.15417 0.63343 0.0
C1436 C 0.23294 0.14632 0.63778 0.0
C1437 C 0.23784 0.13285 0.6546 0.0
N1438 N 0.26353 0.11782 0.67766 0.0
N1439 N 0.24427 0.17456 0.61538 0.0
C1440 C 0.25901 0.12926 0.66024 0.0
C1441 C 0.24909 0.15828 0.62828 0.0
N1442 N 0.29568 0.13318 0.65143 0.0
N1443 N 0.21279 0.14766 0.63094 0.0
H1444 H 0.25559 0.18385 0.60833 0.0
H1445 H 0.22913 0.17996 0.61295 0.0
H1446 H 0.20068 0.13936 0.63792 0.0
H1447 H 0.20837 0.15549 0.61742 0.0
H1448 H 0.30033 0.12056 0.66053 0.0
H1449 H 0.30789 0.14019 0.64331 0.0
H1450 H 0.27843 0.11664 0.68406 0.0
H1451 H 0.25207 0.11074 0.68675 0.0
C1452 C 0.86157 0.27645 0.65455 0.0
C1453 C 0.85351 0.27261 0.63425 0.0
C1454 C 0.87077 0.23828 0.63452 0.0
C1455 C 0.87501 0.24061 0.65605 0.0
N1456 N 0.8741 0.2619 0.68708 0.0
N1457 N 0.84857 0.24819 0.60573 0.0
C1458 C 0.8704 0.25975 0.66619 0.0
C1459 C 0.85785 0.25319 0.62426 0.0
N1460 N 0.86128 0.29621 0.66252 0.0
N1461 N 0.8791 0.22185 0.62384 0.0
H1462 H 0.83854 0.25807 0.59767 0.0
H1463 H 0.84929 0.23332 0.59922 0.0
H1464 H 0.88904 0.21107 0.63086 0.0
H1465 H 0.8781 0.22032 0.6077 0.0
H1466 H 0.86882 0.30043 0.67629 0.0
H1467 H 0.85535 0.3089 0.6543 0.0
H1468 H 0.8687 0.27446 0.69585 0.0
H1469 H 0.88152 0.2505 0.696 0.0
C1470 C 0.7762 0.85297 0.64558 0.0
C1471 C 0.77228 0.8735 0.65304 0.0
C1472 C 0.73864 0.87325 0.63434 0.0
C1473 C 0.74083 0.85157 0.63085 0.0
N1474 N 0.76191 0.82043 0.63279 0.0
N1475 N 0.74848 0.90285 0.65546 0.0
C1476 C 0.75975 0.84137 0.63625 0.0
C1477 C 0.75331 0.88374 0.64738 0.0
N1478 N 0.79585 0.84475 0.64693 0.0
N1479 N 0.72262 0.88387 0.62513 0.0
H1480 H 0.75851 0.91139 0.66488 0.0
H1481 H 0.73376 0.90963 0.65408 0.0
H1482 H 0.712 0.87669 0.61513 0.0
H1483 H 0.72127 0.90005 0.62552 0.0
H1484 H 0.80026 0.83083 0.63983 0.0
H1485 H 0.80836 0.85288 0.65337 0.0
H1486 H 0.77414 0.81157 0.63882 0.0
H1487 H 0.75086 0.81158 0.62476 0.0
C1488 C 0.37362 0.13491 0.23836 0.0
C1489 C 0.35179 0.13204 0.24057 0.0
C1490 C 0.35391 0.14576 0.27624 0.0
C1491 C 0.37451 0.15297 0.27227 0.0
N1492 N 0.40403 0.15474 0.24856 0.0
N1493 N 0.32078 0.13467 0.26188 0.0
C1494 C 0.38458 0.14733 0.25322 0.0
C1495 C 0.34185 0.13734 0.25965 0.0
N1496 N 0.38394 0.12571 0.22215 0.0
N1497 N 0.3461 0.14648 0.29607 0.0
H1498 H 0.31147 0.12757 0.25058 0.0
H1499 H 0.31231 0.14057 0.27443 0.0
H1500 H 0.35486 0.15184 0.30869 0.0
H1501 H 0.33197 0.13969 0.30039 0.0
H1502 H 0.40016 0.12557 0.22082 0.0
H1503 H 0.37646 0.11625 0.21127 0.0
H1504 H 0.41065 0.15358 0.23376 0.0
H1505 H 0.41322 0.16319 0.25888 0.0
C1506 C 0.87167 0.34123 0.25835 0.0
C1507 C 0.87646 0.35125 0.23919 0.0
C1508 C 0.86005 0.38348 0.25182 0.0
C1509 C 0.85499 0.37333 0.271 0.0
N1510 N 0.86239 0.34513 0.29474 0.0
N1511 N 0.88081 0.3832 0.22008 0.0
C1512 C 0.86285 0.35299 0.27493 0.0
C1513 C 0.87255 0.37284 0.23676 0.0
N1514 N 0.87511 0.3203 0.26061 0.0
N1515 N 0.85201 0.40268 0.24727 0.0
H1516 H 0.89006 0.37581 0.20895 0.0
H1517 H 0.88031 0.39936 0.21844 0.0
H1518 H 0.84347 0.41161 0.25775 0.0
H1519 H 0.85273 0.40935 0.23248 0.0
H1520 H 0.86953 0.31165 0.27318 0.0
H1521 H 0.8825 0.31123 0.24931 0.0
H1522 H 0.86976 0.33131 0.29907 0.0
H1523 H 0.85658 0.35356 0.30736 0.0
C1524 C 0.65326 0.88307 0.25605 0.0
C1525 C 0.65423 0.87459 0.23553 0.0
C1526 C 0.63342 0.84452 0.24703 0.0
C1527 C 0.63222 0.8532 0.26737 0.0
N1528 N 0.63613 0.8829 0.28983 0.0
N1529 N 0.64101 0.85 0.21037 0.0
C1530 C 0.64048 0.87326 0.27136 0.0
C1531 C 0.64291 0.85617 0.23069 0.0
N1532 N 0.6657 0.89952 0.26144 0.0
N1533 N 0.62617 0.82476 0.24351 0.0
H1534 H 0.6477 0.85825 0.19807 0.0
H1535 H 0.63128 0.83792 0.20552 0.0
H1536 H 0.61856 0.81599 0.25491 0.0
H1537 H 0.6288 0.81655 0.22976 0.0
H1538 H 0.66752 0.90472 0.27672 0.0
H1539 H 0.67566 0.90693 0.251 0.0
H1540 H 0.64003 0.89835 0.29301 0.0
H1541 H 0.62672 0.87601 0.30115 0.0
C1542 C 0.12568 0.6482 0.25505 0.0
C1543 C 0.13611 0.65413 0.23627 0.0
C1544 C 0.16852 0.63825 0.24934 0.0
C1545 C 0.15811 0.63246 0.26801 0.0
N1546 N 0.12556 0.62577 0.28554 0.0
N1547 N 0.16531 0.64844 0.21314 0.0
C1548 C 0.13626 0.63537 0.26982 0.0
C1549 C 0.15689 0.64716 0.23269 0.0
N1550 N 0.10624 0.65572 0.25958 0.0
N1551 N 0.18962 0.63547 0.24754 0.0
H1552 H 0.15706 0.65428 0.20042 0.0
H1553 H 0.17953 0.6417 0.20903 0.0
H1554 H 0.19858 0.62776 0.25872 0.0
H1555 H 0.19847 0.64181 0.23547 0.0
H1556 H 0.09932 0.65417 0.27421 0.0
H1557 H 0.09746 0.66485 0.24948 0.0
H1558 H 0.10931 0.62568 0.28652 0.0
H1559 H 0.13277 0.61592 0.29625 0.0
C1560 C 0.36077 0.88236 0.75246 0.0
C1561 C 0.3552 0.87213 0.77146 0.0
C1562 C 0.37208 0.84001 0.759 0.0
C1563 C 0.37711 0.8501 0.73994 0.0
N1564 N 0.38245 0.88222 0.72137 0.0
N1565 N 0.36153 0.84354 0.79509 0.0
C1566 C 0.37354 0.87175 0.73764 0.0
C1567 C 0.36275 0.85165 0.77541 0.0
N1568 N 0.35293 0.90162 0.74781 0.0
N1569 N 0.37595 0.81915 0.76131 0.0
H1570 H 0.3552 0.85177 0.80758 0.0
H1571 H 0.36863 0.82963 0.79956 0.0
H1572 H 0.38413 0.81038 0.75032 0.0
H1573 H 0.37019 0.81028 0.77365 0.0
H1574 H 0.35407 0.90835 0.73307 0.0
H1575 H 0.34407 0.91051 0.75805 0.0
H1576 H 0.38212 0.8984 0.7199 0.0
H1577 H 0.39215 0.87493 0.71055 0.0
C1578 C 0.1483 0.38372 0.75575 0.0
C1579 C 0.15367 0.3735 0.73669 0.0
C1580 C 0.13727 0.34126 0.74944 0.0
C1581 C 0.13224 0.35136 0.7685 0.0
N1582 N 0.12734 0.38338 0.78735 0.0
N1583 N 0.14717 0.34484 0.7132 0.0
C1584 C 0.13585 0.37302 0.7708 0.0
C1585 C 0.14622 0.35296 0.73288 0.0
N1586 N 0.15603 0.40308 0.7602 0.0
N1587 N 0.13388 0.32031 0.74726 0.0
H1588 H 0.15326 0.35308 0.7006 0.0
H1589 H 0.14001 0.33091 0.70888 0.0
H1590 H 0.12617 0.31133 0.75842 0.0
H1591 H 0.13971 0.31155 0.73489 0.0
H1592 H 0.15509 0.40985 0.77493 0.0
H1593 H 0.16457 0.41203 0.74975 0.0
H1594 H 0.12759 0.39955 0.78887 0.0
H1595 H 0.11813 0.37595 0.79849 0.0
C1596 C 0.63589 0.13478 0.73734 0.0
C1597 C 0.63276 0.15655 0.73924 0.0
C1598 C 0.64719 0.15528 0.77468 0.0
C1599 C 0.65435 0.1346 0.77111 0.0
N1600 N 0.65643 0.10491 0.74765 0.0
N1601 N 0.6357 0.18799 0.75979 0.0
C1602 C 0.64867 0.12423 0.75221 0.0
C1603 C 0.63841 0.16691 0.75799 0.0
N1604 N 0.62661 0.12413 0.7214 0.0
N1605 N 0.64819 0.16362 0.79428 0.0
H1606 H 0.62823 0.197 0.74851 0.0
H1607 H 0.64193 0.19677 0.77196 0.0
H1608 H 0.65393 0.15536 0.80704 0.0
H1609 H 0.64131 0.17776 0.79836 0.0
H1610 H 0.62664 0.10792 0.72032 0.0
H1611 H 0.61695 0.13137 0.71053 0.0
H1612 H 0.65504 0.09805 0.73299 0.0
H1613 H 0.66562 0.09619 0.75775 0.0
C1614 C 0.88296 0.64831 0.7521 0.0
C1615 C 0.87264 0.65353 0.77116 0.0
C1616 C 0.84018 0.63804 0.75778 0.0
C1617 C 0.85045 0.63295 0.73882 0.0
N1618 N 0.8827 0.62765 0.72035 0.0
N1619 N 0.84369 0.64688 0.79431 0.0
C1620 C 0.87223 0.63618 0.73682 0.0
C1621 C 0.85193 0.64635 0.77464 0.0
N1622 N 0.90245 0.65587 0.74783 0.0
N1623 N 0.81907 0.63529 0.75963 0.0
H1624 H 0.85208 0.65226 0.80715 0.0
H1625 H 0.82952 0.63996 0.7983 0.0
H1626 H 0.80997 0.62825 0.74814 0.0
H1627 H 0.81036 0.64112 0.77204 0.0
H1628 H 0.90928 0.65505 0.73311 0.0
H1629 H 0.91147 0.66422 0.75838 0.0
H1630 H 0.89892 0.6276 0.7191 0.0
H1631 H 0.87527 0.61874 0.70898 0.0
C1632 C 0.26007 0.35536 0.12247 0.0
C1633 C 0.23915 0.35635 0.1298 0.0
C1634 C 0.25016 0.38203 0.15596 0.0
C1635 C 0.27137 0.37706 0.15182 0.0
N1636 N 0.29671 0.3581 0.13153 0.0
N1637 N 0.21413 0.37069 0.15399 0.0
C1638 C 0.2764 0.36356 0.13508 0.0
C1639 C 0.23412 0.36987 0.1466 0.0
N1640 N 0.26442 0.3469 0.10343 0.0
N1641 N 0.24529 0.39836 0.16874 0.0
H1642 H 0.20183 0.36273 0.14693 0.0
H1643 H 0.21002 0.37824 0.16777 0.0
H1644 H 0.25658 0.40778 0.17569 0.0
H1645 H 0.23011 0.40382 0.17084 0.0
H1646 H 0.27923 0.34729 0.09671 0.0
H1647 H 0.25286 0.34171 0.09329 0.0
H1648 H 0.30108 0.34641 0.12112 0.0
H1649 H 0.30907 0.36429 0.14009 0.0
C1650 C 0.25461 0.64716 0.88314 0.0
C1651 C 0.23559 0.65239 0.87273 0.0
C1652 C 0.24877 0.63603 0.84065 0.0
C1653 C 0.2678 0.63125 0.85095 0.0
N1654 N 0.286 0.6259 0.88329 0.0
N1655 N 0.21237 0.64579 0.84384 0.0
C1656 C 0.26975 0.63467 0.87266 0.0
C1657 C 0.23201 0.64491 0.85216 0.0
N1658 N 0.25901 0.65509 0.90243 0.0
N1659 N 0.24681 0.63237 0.81972 0.0
H1660 H 0.19964 0.65178 0.85198 0.0
H1661 H 0.20821 0.63872 0.82982 0.0
H1662 H 0.25812 0.62456 0.811 0.0
H1663 H 0.23445 0.63796 0.81077 0.0
H1664 H 0.27372 0.65408 0.90929 0.0
H1665 H 0.24867 0.66403 0.91114 0.0
H1666 H 0.28723 0.62614 0.89949 0.0
H1667 H 0.29699 0.61634 0.87608 0.0
C1668 C 0.3696 0.27695 0.87478 0.0
C1669 C 0.37857 0.27266 0.85499 0.0
C1670 C 0.37453 0.2353 0.86139 0.0
C1671 C 0.36164 0.23959 0.8787 0.0
N1672 N 0.35016 0.26401 0.90475 0.0
N1673 N 0.38832 0.24759 0.8286 0.0
C1674 C 0.36038 0.26031 0.88645 0.0
C1675 C 0.38085 0.25176 0.84812 0.0
N1676 N 0.36998 0.29686 0.88229 0.0
N1677 N 0.3818 0.21556 0.8585 0.0
H1678 H 0.39296 0.25924 0.81824 0.0
H1679 H 0.38823 0.2327 0.82209 0.0
H1680 H 0.37986 0.2043 0.87004 0.0
H1681 H 0.39236 0.21148 0.84683 0.0
H1682 H 0.3652 0.30114 0.89719 0.0
H1683 H 0.37629 0.30915 0.87377 0.0
H1684 H 0.34636 0.27878 0.91027 0.0
H1685 H 0.3455 0.252 0.91464 0.0
C1686 C 0.75722 0.38492 0.85949 0.0
C1687 C 0.73768 0.37505 0.85525 0.0
C1688 C 0.75007 0.34319 0.87257 0.0
C1689 C 0.76956 0.35296 0.87657 0.0
N1690 N 0.78946 0.38458 0.87951 0.0
N1691 N 0.71354 0.34747 0.86377 0.0
C1692 C 0.77235 0.37436 0.87197 0.0
C1693 C 0.73351 0.35501 0.86375 0.0
N1694 N 0.76205 0.40369 0.85062 0.0
N1695 N 0.74752 0.32242 0.87667 0.0
H1696 H 0.70098 0.35592 0.85782 0.0
H1697 H 0.70907 0.33394 0.87156 0.0
H1698 H 0.75891 0.31337 0.88396 0.0
H1699 H 0.73463 0.31383 0.87173 0.0
H1700 H 0.777 0.41009 0.8509 0.0
H1701 H 0.75168 0.41238 0.84167 0.0
H1702 H 0.79147 0.40067 0.87844 0.0
H1703 H 0.80061 0.3772 0.88876 0.0
C1704 C 0.63767 0.76087 0.84138 0.0
C1705 C 0.63281 0.7417 0.85136 0.0
C1706 C 0.64936 0.75415 0.88352 0.0
C1707 C 0.65416 0.77348 0.87356 0.0
N1708 N 0.64648 0.79737 0.84555 0.0
N1709 N 0.62784 0.72298 0.8835 0.0
C1710 C 0.64625 0.7775 0.85326 0.0
C1711 C 0.63653 0.73934 0.87299 0.0
N1712 N 0.63448 0.76312 0.82041 0.0
N1713 N 0.65804 0.74915 0.90234 0.0
H1714 H 0.618 0.71224 0.8763 0.0
H1715 H 0.62845 0.72148 0.89967 0.0
H1716 H 0.66762 0.7591 0.91084 0.0
H1717 H 0.65712 0.73428 0.90882 0.0
H1718 H 0.64003 0.77579 0.81187 0.0
H1719 H 0.62739 0.75172 0.81124 0.0
H1720 H 0.63918 0.80166 0.83169 0.0
H1721 H 0.652 0.81003 0.85416 0.0
C1722 C 0.75185 0.65488 0.12674 0.0
C1723 C 0.77272 0.65346 0.13426 0.0
C1724 C 0.76091 0.62926 0.16164 0.0
C1725 C 0.73984 0.63309 0.15588 0.0
N1726 N 0.71506 0.65213 0.13506 0.0
N1727 N 0.79707 0.64038 0.1598 0.0
C1728 C 0.73526 0.64648 0.1389 0.0
C1729 C 0.77725 0.64079 0.15189 0.0
N1730 N 0.74768 0.66453 0.10819 0.0
N1731 N 0.76529 0.61483 0.17671 0.0
H1732 H 0.80956 0.64794 0.15268 0.0
H1733 H 0.80097 0.63365 0.17406 0.0
H1734 H 0.7537 0.60698 0.18497 0.0
H1735 H 0.7803 0.60956 0.18006 0.0
H1736 H 0.73314 0.66391 0.10093 0.0
H1737 H 0.759 0.67176 0.09907 0.0
H1738 H 0.71082 0.66376 0.12455 0.0
H1739 H 0.70262 0.64654 0.14386 0.0
C1740 C 0.36021 0.75313 0.12365 0.0
C1741 C 0.35501 0.77229 0.13374 0.0
C1742 C 0.37197 0.75997 0.16582 0.0
C1743 C 0.37656 0.7407 0.15591 0.0
N1744 N 0.38158 0.72185 0.1239 0.0
N1745 N 0.36231 0.7963 0.16173 0.0
C1746 C 0.37287 0.73826 0.1343 0.0
C1747 C 0.36294 0.77643 0.15402 0.0
N1748 N 0.35217 0.7484 0.10449 0.0
N1749 N 0.37595 0.76244 0.18663 0.0
H1750 H 0.35643 0.80881 0.15317 0.0
H1751 H 0.36956 0.8008 0.17556 0.0
H1752 H 0.38377 0.75129 0.19553 0.0
H1753 H 0.37061 0.77508 0.19532 0.0
H1754 H 0.35302 0.73356 0.09794 0.0
H1755 H 0.3435 0.75872 0.09551 0.0
H1756 H 0.3811 0.72025 0.10774 0.0
H1757 H 0.39132 0.71108 0.1312 0.0
C1758 C 0.657 0.25792 0.12473 0.0
C1759 C 0.65247 0.23688 0.12995 0.0
C1760 C 0.62401 0.24899 0.15253 0.0
C1761 C 0.63168 0.26977 0.15094 0.0
N1762 N 0.65631 0.29395 0.13589 0.0
N1763 N 0.63214 0.21218 0.14964 0.0
C1764 C 0.64831 0.27424 0.13698 0.0
C1765 C 0.63597 0.23235 0.14397 0.0
N1766 N 0.66961 0.26237 0.10813 0.0
N1767 N 0.60537 0.24505 0.16212 0.0
H1768 H 0.64013 0.19961 0.14314 0.0
H1769 H 0.62207 0.20807 0.16173 0.0
H1770 H 0.59597 0.25667 0.16845 0.0
H1771 H 0.59824 0.23045 0.162 0.0
H1772 H 0.67185 0.27742 0.10244 0.0
H1773 H 0.67631 0.2509 0.09877 0.0
H1774 H 0.67006 0.2976 0.128 0.0
H1775 H 0.64993 0.30645 0.14405 0.0
C1776 C 0.8718 0.77085 0.63472 0.0
C1777 C 0.87528 0.76852 0.65639 0.0
C1778 C 0.86132 0.73291 0.65468 0.0
C1779 C 0.85403 0.7367 0.63408 0.0
N1780 N 0.85188 0.76024 0.6045 0.0
N1781 N 0.87342 0.7473 0.68742 0.0
C1782 C 0.85944 0.75578 0.62392 0.0
C1783 C 0.87017 0.74948 0.66645 0.0
N1784 N 0.88035 0.78742 0.62442 0.0
N1785 N 0.86037 0.71321 0.66279 0.0
H1786 H 0.88104 0.75848 0.69645 0.0
H1787 H 0.86755 0.73491 0.69615 0.0
H1788 H 0.8544 0.70059 0.65448 0.0
H1789 H 0.86741 0.70891 0.67678 0.0
H1790 H 0.88022 0.78895 0.60825 0.0
H1791 H 0.88945 0.7986 0.63193 0.0
H1792 H 0.85282 0.77499 0.59776 0.0
H1793 H 0.84348 0.74977 0.59544 0.0
C1794 C 0.25989 0.8716 0.66543 0.0
C1795 C 0.24053 0.87606 0.65561 0.0
C1796 C 0.25227 0.85812 0.62398 0.0
C1797 C 0.27181 0.85371 0.6337 0.0
N1798 N 0.29619 0.86186 0.66122 0.0
N1799 N 0.22117 0.87977 0.6237 0.0
C1800 C 0.27623 0.86226 0.65367 0.0
C1801 C 0.2377 0.87143 0.63423 0.0
N1802 N 0.26255 0.87588 0.68615 0.0
N1803 N 0.24685 0.84855 0.60574 0.0
H1804 H 0.21079 0.89015 0.63069 0.0
H1805 H 0.21925 0.87837 0.60763 0.0
H1806 H 0.25659 0.83831 0.5978 0.0
H1807 H 0.23189 0.84933 0.5994 0.0
H1808 H 0.27529 0.87067 0.69479 0.0
H1809 H 0.2514 0.88369 0.69507 0.0
H1810 H 0.30084 0.86967 0.67467 0.0
H1811 H 0.3086 0.85546 0.65288 0.0
C1812 C 0.12366 0.25555 0.64837 0.0
C1813 C 0.13383 0.23641 0.65353 0.0
C1814 C 0.16629 0.24936 0.63768 0.0
C1815 C 0.15624 0.2685 0.63285 0.0
N1816 N 0.12423 0.28747 0.62794 0.0
N1817 N 0.16248 0.21293 0.64685 0.0
C1818 C 0.13451 0.27078 0.63628 0.0
C1819 C 0.15444 0.23267 0.6462 0.0
N1820 N 0.10419 0.2599 0.65594 0.0
N1821 N 0.18731 0.24722 0.63453 0.0
H1822 H 0.15406 0.20025 0.65253 0.0
H1823 H 0.17652 0.2087 0.63981 0.0
H1824 H 0.19643 0.25855 0.62724 0.0
H1825 H 0.19598 0.2347 0.6402 0.0
H1826 H 0.09744 0.27466 0.65519 0.0
H1827 H 0.09509 0.24931 0.66416 0.0
H1828 H 0.10804 0.289 0.62805 0.0
H1829 H 0.13178 0.29878 0.61904 0.0
C1830 C 0.74903 0.12435 0.65516 0.0
C1831 C 0.77009 0.13044 0.65172 0.0
C1832 C 0.75831 0.15376 0.62378 0.0
C1833 C 0.73733 0.15129 0.63061 0.0
N1834 N 0.7126 0.13441 0.65338 0.0
N1835 N 0.79491 0.1517 0.6331 0.0
C1836 C 0.73264 0.13648 0.64637 0.0
C1837 C 0.77478 0.14525 0.63598 0.0
N1838 N 0.74462 0.10702 0.66674 0.0
N1839 N 0.76258 0.16413 0.60567 0.0
H1840 H 0.80741 0.14532 0.64131 0.0
H1841 H 0.79897 0.16427 0.62365 0.0
H1842 H 0.75104 0.17048 0.59616 0.0
H1843 H 0.77743 0.16471 0.59905 0.0
H1844 H 0.72964 0.10085 0.66817 0.0
H1845 H 0.75614 0.09761 0.6733 0.0
H1846 H 0.70861 0.12579 0.66657 0.0
H1847 H 0.70011 0.14242 0.64673 0.0
C1848 C 0.88335 0.2542 0.35716 0.0
C1849 C 0.87373 0.23458 0.35303 0.0
C1850 C 0.84172 0.24672 0.37032 0.0
C1851 C 0.85149 0.26613 0.37464 0.0
N1852 N 0.88347 0.28544 0.37849 0.0
N1853 N 0.84626 0.21025 0.36151 0.0
C1854 C 0.87296 0.26889 0.37021 0.0
C1855 C 0.85367 0.23025 0.36148 0.0
N1856 N 0.90162 0.25959 0.34757 0.0
N1857 N 0.8209 0.24411 0.37429 0.0
H1858 H 0.85488 0.19773 0.35571 0.0
H1859 H 0.83266 0.20575 0.36919 0.0
H1860 H 0.81179 0.25542 0.38163 0.0
H1861 H 0.81238 0.23125 0.3692 0.0
H1862 H 0.90787 0.27458 0.34818 0.0
H1863 H 0.90964 0.24979 0.33745 0.0
H1864 H 0.8996 0.28729 0.37721 0.0
H1865 H 0.87643 0.29591 0.38872 0.0
C1866 C 0.76995 0.87181 0.3722 0.0
C1867 C 0.76799 0.87503 0.35045 0.0
C1868 C 0.73254 0.86051 0.3517 0.0
C1869 C 0.73622 0.85325 0.37233 0.0
N1870 N 0.75974 0.8511 0.40197 0.0
N1871 N 0.74726 0.87255 0.31909 0.0
C1872 C 0.75513 0.85893 0.3827 0.0
C1873 C 0.74918 0.86951 0.34011 0.0
N1874 N 0.78587 0.88111 0.38288 0.0
N1875 N 0.71291 0.8594 0.34339 0.0
H1876 H 0.75845 0.88029 0.31017 0.0
H1877 H 0.73508 0.86638 0.31026 0.0
H1878 H 0.7002 0.85342 0.3516 0.0
H1879 H 0.70872 0.86637 0.32933 0.0
H1880 H 0.787 0.88096 0.39908 0.0
H1881 H 0.79663 0.89097 0.37571 0.0
H1882 H 0.77442 0.8525 0.40883 0.0
H1883 H 0.74964 0.84182 0.41063 0.0
C1884 C 0.1484 0.75441 0.38357 0.0
C1885 C 0.15372 0.73533 0.37336 0.0
C1886 C 0.13736 0.74816 0.34114 0.0
C1887 C 0.13235 0.7672 0.35126 0.0
N1888 N 0.12695 0.78565 0.38346 0.0
N1889 N 0.14666 0.71175 0.34491 0.0
C1890 C 0.1358 0.76937 0.37295 0.0
C1891 C 0.1461 0.73151 0.35289 0.0
N1892 N 0.15628 0.75899 0.40282 0.0
N1893 N 0.13411 0.74604 0.32017 0.0
H1894 H 0.15231 0.69907 0.35335 0.0
H1895 H 0.1395 0.70752 0.33096 0.0
H1896 H 0.12668 0.75735 0.31115 0.0
H1897 H 0.13984 0.73357 0.31147 0.0
H1898 H 0.15532 0.77376 0.40952 0.0
H1899 H 0.16498 0.74863 0.41172 0.0
H1900 H 0.12722 0.78702 0.39964 0.0
H1901 H 0.11735 0.79656 0.37618 0.0
C1902 C 0.26017 0.13687 0.34174 0.0
C1903 C 0.24103 0.13193 0.35178 0.0
C1904 C 0.25305 0.14929 0.38364 0.0
C1905 C 0.27228 0.15445 0.37362 0.0
N1906 N 0.29623 0.1477 0.34532 0.0
N1907 N 0.22225 0.12721 0.38389 0.0
C1908 C 0.27647 0.1465 0.35333 0.0
C1909 C 0.2385 0.13602 0.3733 0.0
N1910 N 0.26264 0.13268 0.32097 0.0
N1911 N 0.24787 0.15811 0.40232 0.0
H1912 H 0.21178 0.11697 0.37682 0.0
H1913 H 0.22061 0.1281 0.40003 0.0
H1914 H 0.25767 0.16808 0.41051 0.0
H1915 H 0.23305 0.15694 0.40891 0.0
H1916 H 0.27504 0.13832 0.31209 0.0
H1917 H 0.25169 0.12436 0.31226 0.0
H1918 H 0.30084 0.1403 0.33162 0.0
H1919 H 0.30861 0.15441 0.35341 0.0
C1920 C 0.64812 0.88376 0.75249 0.0
C1921 C 0.65363 0.87345 0.77146 0.0
C1922 C 0.63701 0.84131 0.75871 0.0
C1923 C 0.63206 0.85147 0.73967 0.0
N1924 N 0.6267 0.88364 0.72121 0.0
N1925 N 0.64723 0.84473 0.79492 0.0
C1926 C 0.63553 0.87315 0.73751 0.0
C1927 C 0.64614 0.85292 0.77526 0.0
N1928 N 0.65584 0.90311 0.748 0.0
N1929 N 0.6333 0.82041 0.76089 0.0
H1930 H 0.65338 0.85296 0.8075 0.0
H1931 H 0.64017 0.83076 0.79925 0.0
H1932 H 0.6253 0.81163 0.74977 0.0
H1933 H 0.63901 0.81153 0.77322 0.0
H1934 H 0.65477 0.90991 0.73329 0.0
H1935 H 0.66455 0.91202 0.75835 0.0
H1936 H 0.62693 0.89982 0.71982 0.0
H1937 H 0.61715 0.87632 0.71028 0.0
C1938 C 0.13537 0.63618 0.73757 0.0
C1939 C 0.15698 0.63221 0.74006 0.0
C1940 C 0.15491 0.64521 0.77601 0.0
C1941 C 0.13462 0.6532 0.77197 0.0
N1942 N 0.10618 0.65795 0.74737 0.0
N1943 N 0.18786 0.63355 0.76166 0.0
C1944 C 0.12482 0.64889 0.75246 0.0
C1945 C 0.16689 0.63681 0.75934 0.0
N1946 N 0.12489 0.62783 0.72103 0.0
N1947 N 0.16252 0.64519 0.79592 0.0
H1948 H 0.1971 0.62663 0.7502 0.0
H1949 H 0.19636 0.63888 0.77445 0.0
H1950 H 0.15386 0.65059 0.80859 0.0
H1951 H 0.17637 0.6378 0.8002 0.0
H1952 H 0.10872 0.62865 0.71939 0.0
H1953 H 0.13211 0.61804 0.71027 0.0
H1954 H 0.09983 0.6573 0.73243 0.0
H1955 H 0.09782 0.66766 0.7573 0.0
C1956 C 0.34014 0.13768 0.75019 0.0
C1957 C 0.3505 0.13161 0.7688 0.0
C1958 C 0.38281 0.14794 0.7563 0.0
C1959 C 0.37247 0.15409 0.73756 0.0
N1960 N 0.34351 0.14831 0.71414 0.0
N1961 N 0.38314 0.12446 0.78597 0.0
C1962 C 0.35179 0.14692 0.73374 0.0
C1963 C 0.37233 0.13456 0.77066 0.0
N1964 N 0.31905 0.13484 0.74827 0.0
N1965 N 0.40205 0.15574 0.76123 0.0
H1966 H 0.37604 0.11391 0.79608 0.0
H1967 H 0.39938 0.12458 0.78698 0.0
H1968 H 0.4106 0.16549 0.75153 0.0
H1969 H 0.40888 0.15383 0.77585 0.0
H1970 H 0.31024 0.14133 0.73625 0.0
H1971 H 0.31009 0.12694 0.75931 0.0
H1972 H 0.32938 0.14148 0.70988 0.0
H1973 H 0.35181 0.15431 0.70152 0.0
C1974 C 0.87964 0.34702 0.746 0.0
C1975 C 0.87542 0.35237 0.7671 0.0
C1976 C 0.85465 0.38232 0.75531 0.0
C1977 C 0.85615 0.3751 0.73439 0.0
N1978 N 0.86996 0.35058 0.70953 0.0
N1979 N 0.85658 0.37333 0.79192 0.0
C1980 C 0.86882 0.35755 0.72964 0.0
C1981 C 0.86244 0.36966 0.77177 0.0
N1982 N 0.89373 0.33162 0.74164 0.0
N1983 N 0.84562 0.40116 0.7596 0.0
H1984 H 0.86177 0.36422 0.80429 0.0
H1985 H 0.84516 0.3841 0.79614 0.0
H1986 H 0.8392 0.41083 0.74827 0.0
H1987 H 0.84614 0.40811 0.77427 0.0
H1988 H 0.89923 0.32835 0.72672 0.0
H1989 H 0.90101 0.32284 0.75321 0.0
H1990 H 0.87665 0.33644 0.7052 0.0
H1991 H 0.86332 0.35866 0.69708 0.0
C1992 C 0.65673 0.12623 0.25741 0.0
C1993 C 0.65324 0.13232 0.23639 0.0
C1994 C 0.62615 0.15668 0.24829 0.0
C1995 C 0.63271 0.15365 0.26926 0.0
N1996 N 0.65543 0.13636 0.29376 0.0
N1997 N 0.63541 0.15437 0.21172 0.0
C1998 C 0.64824 0.13853 0.27383 0.0
C1999 C 0.63804 0.14773 0.23179 0.0
N2000 N 0.66818 0.10879 0.26178 0.0
N2001 N 0.60864 0.1681 0.24402 0.0
H2002 H 0.64336 0.14772 0.19921 0.0
H2003 H 0.6265 0.16735 0.20768 0.0
H2004 H 0.59953 0.17508 0.2555 0.0
H2005 H 0.60206 0.16908 0.2292 0.0
H2006 H 0.66949 0.10253 0.27671 0.0
H2007 H 0.67485 0.09942 0.25032 0.0
H2008 H 0.66849 0.12749 0.29764 0.0
H2009 H 0.64923 0.14467 0.30625 0.0
C2010 C 0.88447 0.64675 0.25515 0.0
C2011 C 0.87475 0.65172 0.23574 0.0
C2012 C 0.84224 0.63534 0.24782 0.0
C2013 C 0.85183 0.63076 0.26726 0.0
N2014 N 0.88362 0.62567 0.2866 0.0
N2015 N 0.84712 0.64408 0.21138 0.0
C2016 C 0.87349 0.63431 0.26997 0.0
C2017 C 0.85446 0.64388 0.2314 0.0
N2018 N 0.90359 0.6548 0.26014 0.0
N2019 N 0.82134 0.63186 0.24512 0.0
H2020 H 0.85603 0.64951 0.19888 0.0
H2021 H 0.83329 0.63685 0.20681 0.0
H2022 H 0.81203 0.62459 0.2563 0.0
H2023 H 0.81299 0.63723 0.23226 0.0
H2024 H 0.90989 0.65406 0.2751 0.0
H2025 H 0.91273 0.66342 0.24991 0.0
H2026 H 0.89978 0.62607 0.2884 0.0
H2027 H 0.8761 0.61605 0.29732 0.0
C2028 C 0.35938 0.85197 0.2326 0.0
C2029 C 0.35292 0.8729 0.23608 0.0
C2030 C 0.37179 0.87245 0.26962 0.0
C2031 C 0.3742 0.85056 0.26789 0.0
N2032 N 0.37043 0.8191 0.24752 0.0
N2033 N 0.35245 0.90301 0.25907 0.0
C2034 C 0.36811 0.84024 0.24926 0.0
C2035 C 0.35927 0.88329 0.25474 0.0
N2036 N 0.35779 0.8435 0.2131 0.0
N2037 N 0.38154 0.88295 0.28538 0.0
H2038 H 0.34392 0.91212 0.24876 0.0
H2039 H 0.3541 0.90996 0.27366 0.0
H2040 H 0.39097 0.87554 0.29634 0.0
H2041 H 0.38213 0.89916 0.28627 0.0
H2042 H 0.36419 0.82913 0.20901 0.0
H2043 H 0.35205 0.8518 0.20037 0.0
H2044 H 0.36383 0.81037 0.23551 0.0
H2045 H 0.37802 0.81002 0.25867 0.0
C2046 C 0.14995 0.38284 0.25246 0.0
C2047 C 0.15471 0.37256 0.27165 0.0
C2048 C 0.13816 0.34055 0.25846 0.0
C2049 C 0.13369 0.35078 0.23934 0.0
N2050 N 0.12906 0.38306 0.22085 0.0
N2051 N 0.1474 0.3439 0.29493 0.0
C2052 C 0.13748 0.37242 0.23726 0.0
C2053 C 0.14694 0.35209 0.27525 0.0
N2054 N 0.15833 0.40193 0.24797 0.0
N2055 N 0.13429 0.31967 0.26051 0.0
H2056 H 0.15327 0.35207 0.30768 0.0
H2057 H 0.14009 0.32999 0.29906 0.0
H2058 H 0.12657 0.31092 0.24917 0.0
H2059 H 0.13965 0.31075 0.27298 0.0
H2060 H 0.15762 0.40866 0.2332 0.0
H2061 H 0.16743 0.41051 0.25828 0.0
H2062 H 0.12958 0.39924 0.2195 0.0
H2063 H 0.11953 0.3759 0.2098 0.0
C2064 C 0.77743 0.64267 0.85541 0.0
C2065 C 0.773 0.65292 0.87453 0.0
C2066 C 0.73734 0.63859 0.87358 0.0
C2067 C 0.74073 0.63184 0.85286 0.0
N2068 N 0.76385 0.62772 0.82345 0.0
N2069 N 0.7477 0.6621 0.90116 0.0
C2070 C 0.76081 0.63378 0.84366 0.0
C2071 C 0.75277 0.65101 0.88367 0.0
N2072 N 0.79763 0.64111 0.84868 0.0
N2073 N 0.71937 0.63307 0.88362 0.0
H2074 H 0.75818 0.6715 0.90923 0.0
H2075 H 0.73249 0.66335 0.90681 0.0
H2076 H 0.70813 0.62365 0.87662 0.0
H2077 H 0.71671 0.63585 0.8994 0.0
H2078 H 0.80219 0.63211 0.83595 0.0
H2079 H 0.81016 0.64717 0.8571 0.0
H2080 H 0.77737 0.63098 0.81503 0.0
H2081 H 0.75229 0.62046 0.81458 0.0
C2082 C 0.77577 0.36205 0.15443 0.0
C2083 C 0.77219 0.35369 0.13422 0.0
C2084 C 0.73754 0.37051 0.13398 0.0
C2085 C 0.73976 0.37518 0.15543 0.0
N2086 N 0.76089 0.37505 0.18661 0.0
N2087 N 0.74842 0.34883 0.10511 0.0
C2088 C 0.75892 0.37098 0.16576 0.0
C2089 C 0.75288 0.3579 0.12388 0.0
N2090 N 0.79548 0.36194 0.16262 0.0
N2091 N 0.72076 0.3781 0.12326 0.0
H2092 H 0.75884 0.33952 0.09687 0.0
H2093 H 0.73364 0.34919 0.09835 0.0
H2094 H 0.70943 0.3874 0.13029 0.0
H2095 H 0.71923 0.377 0.10713 0.0
H2096 H 0.79957 0.36974 0.17627 0.0
H2097 H 0.80827 0.35584 0.15465 0.0
H2098 H 0.77344 0.36991 0.19558 0.0
H2099 H 0.74937 0.38255 0.19532 0.0
C2100 C 0.647 0.77516 0.15448 0.0
C2101 C 0.65513 0.77143 0.1342 0.0
C2102 C 0.63809 0.73694 0.13434 0.0
C2103 C 0.63369 0.73929 0.15584 0.0
N2104 N 0.63458 0.76049 0.18695 0.0
N2105 N 0.65973 0.74741 0.10528 0.0
C2106 C 0.63821 0.75842 0.16604 0.0
C2107 C 0.65075 0.75209 0.12404 0.0
N2108 N 0.64721 0.79491 0.16252 0.0
N2109 N 0.63023 0.72022 0.12375 0.0
H2110 H 0.66918 0.75763 0.09695 0.0
H2111 H 0.6592 0.7326 0.09864 0.0
H2112 H 0.6209 0.709 0.13092 0.0
H2113 H 0.63114 0.71865 0.10761 0.0
H2114 H 0.63959 0.79907 0.17625 0.0
H2115 H 0.65315 0.80763 0.15435 0.0
H2116 H 0.63994 0.77305 0.19574 0.0
H2117 H 0.6273 0.74902 0.19589 0.0
C2118 C 0.27594 0.65204 0.1433 0.0
C2119 C 0.27141 0.63311 0.15387 0.0
C2120 C 0.23588 0.63377 0.13915 0.0
C2121 C 0.23943 0.65426 0.13177 0.0
N2122 N 0.26251 0.68371 0.12766 0.0
N2123 N 0.24593 0.60701 0.16376 0.0
C2124 C 0.25944 0.66355 0.13392 0.0
C2125 C 0.25116 0.62403 0.15205 0.0
N2126 N 0.29611 0.65887 0.14195 0.0
N2127 N 0.21788 0.62367 0.13389 0.0
H2128 H 0.25633 0.5996 0.17376 0.0
H2129 H 0.23075 0.60129 0.16494 0.0
H2130 H 0.20663 0.63049 0.12433 0.0
H2131 H 0.21513 0.608 0.13715 0.0
H2132 H 0.30077 0.67133 0.13264 0.0
H2133 H 0.30856 0.65081 0.14862 0.0
H2134 H 0.27594 0.69222 0.13107 0.0
H2135 H 0.25102 0.69248 0.12019 0.0
C2136 C 0.37444 0.23687 0.13398 0.0
C2137 C 0.35276 0.23899 0.13019 0.0
C2138 C 0.35423 0.2749 0.14343 0.0
C2139 C 0.37463 0.2712 0.15134 0.0
N2140 N 0.40408 0.24759 0.15473 0.0
N2141 N 0.32164 0.26023 0.13112 0.0
C2142 C 0.38492 0.25204 0.14648 0.0
C2143 C 0.34259 0.25814 0.13473 0.0
N2144 N 0.38504 0.22044 0.12556 0.0
N2145 N 0.34618 0.29464 0.14375 0.0
H2146 H 0.31272 0.24883 0.1237 0.0
H2147 H 0.31283 0.27278 0.1365 0.0
H2148 H 0.3545 0.30736 0.14952 0.0
H2149 H 0.33231 0.29881 0.13636 0.0
H2150 H 0.40124 0.21901 0.12612 0.0
H2151 H 0.37784 0.20948 0.11598 0.0
H2152 H 0.41085 0.23284 0.154 0.0
H2153 H 0.41276 0.25801 0.16361 0.0
C2154 C 0.25023 0.37067 0.84118 0.0
C2155 C 0.26935 0.3755 0.85131 0.0
C2156 C 0.25741 0.35719 0.88271 0.0
C2157 C 0.23808 0.35246 0.87269 0.0
N2158 N 0.21412 0.36007 0.84462 0.0
N2159 N 0.28833 0.37914 0.88343 0.0
C2160 C 0.23389 0.36091 0.8526 0.0
C2161 C 0.27197 0.37073 0.87269 0.0
N2162 N 0.24782 0.37498 0.82043 0.0
N2163 N 0.26267 0.34769 0.90104 0.0
H2164 H 0.29878 0.38954 0.87657 0.0
H2165 H 0.29009 0.37772 0.89952 0.0
H2166 H 0.25294 0.33729 0.90879 0.0
H2167 H 0.2775 0.34869 0.90764 0.0
H2168 H 0.2354 0.36945 0.81152 0.0
H2169 H 0.25889 0.38315 0.81173 0.0
H2170 H 0.20955 0.3679 0.83115 0.0
H2171 H 0.2017 0.35323 0.85256 0.0
C2172 C 0.64595 0.23117 0.85351 0.0
C2173 C 0.65424 0.23532 0.87363 0.0
C2174 C 0.6373 0.26982 0.87288 0.0
C2175 C 0.63326 0.26722 0.85135 0.0
N2176 N 0.63299 0.24513 0.82088 0.0
N2177 N 0.65793 0.25937 0.90265 0.0
C2178 C 0.63723 0.24773 0.84162 0.0
C2179 C 0.64963 0.2547 0.88359 0.0
N2180 N 0.64593 0.2112 0.84603 0.0
N2181 N 0.62923 0.28664 0.88315 0.0
H2182 H 0.6663 0.24886 0.91169 0.0
H2183 H 0.65756 0.27428 0.90908 0.0
H2184 H 0.61977 0.29763 0.8758 0.0
H2185 H 0.62993 0.28845 0.89928 0.0
H2186 H 0.63839 0.20674 0.83235 0.0
H2187 H 0.65157 0.19863 0.85467 0.0
H2188 H 0.63791 0.23225 0.81229 0.0
H2189 H 0.62544 0.2564 0.8119 0.0
C2190 C 0.36264 0.77676 0.85342 0.0
C2191 C 0.35449 0.77249 0.87357 0.0
C2192 C 0.37252 0.73858 0.87304 0.0
C2193 C 0.37656 0.74115 0.85149 0.0
N2194 N 0.37508 0.76275 0.82066 0.0
N2195 N 0.35021 0.7478 0.90198 0.0
C2196 C 0.37162 0.76033 0.84156 0.0
C2197 C 0.35929 0.75312 0.88343 0.0
N2198 N 0.36226 0.79668 0.84583 0.0
N2199 N 0.38129 0.72231 0.8836 0.0
H2200 H 0.34015 0.75749 0.91024 0.0
H2201 H 0.35124 0.7329 0.90836 0.0
H2202 H 0.3915 0.71182 0.87653 0.0
H2203 H 0.38038 0.72068 0.89974 0.0
H2204 H 0.36974 0.80115 0.83211 0.0
H2205 H 0.35642 0.8092 0.8544 0.0
H2206 H 0.3695 0.7754 0.81212 0.0
H2207 H 0.38245 0.7515 0.81153 0.0
C2208 C 0.08443 0.23321 0.24854 0.0
C2209 C 0.08742 0.23923 0.26957 0.0
C2210 C 0.08663 0.27611 0.25931 0.0
C2211 C 0.08785 0.26986 0.23809 0.0
N2212 N 0.08558 0.24303 0.21195 0.0
N2213 N 0.09012 0.26617 0.29567 0.0
C2214 C 0.08572 0.24854 0.23255 0.0
C2215 C 0.08758 0.26065 0.27523 0.0
N2216 N 0.08026 0.21278 0.24407 0.0
N2217 N 0.08502 0.2968 0.26426 0.0
H2218 H 0.08998 0.25542 0.30784 0.0
H2219 H 0.09339 0.28127 0.30064 0.0
H2220 H 0.08515 0.30865 0.25317 0.0
H2221 H 0.08195 0.30227 0.27922 0.0
H2222 H 0.07641 0.20731 0.22929 0.0
H2223 H 0.07894 0.20145 0.25569 0.0
H2224 H 0.08655 0.22774 0.20664 0.0
H2225 H 0.08499 0.25405 0.19998 0.0
C2226 C 0.74803 0.10151 0.27475 0.0
C2227 C 0.76657 0.08993 0.27141 0.0
C2228 C 0.75251 0.07704 0.23819 0.0
C2229 C 0.73581 0.09146 0.23996 0.0
N2230 N 0.71786 0.11825 0.25944 0.0
N2231 N 0.78716 0.06695 0.25005 0.0
C2232 C 0.73344 0.10369 0.25827 0.0
C2233 C 0.76889 0.07744 0.2533 0.0
N2234 N 0.74458 0.11067 0.29369 0.0
N2235 N 0.75282 0.06328 0.22193 0.0
H2236 H 0.79925 0.06689 0.26097 0.0
H2237 H 0.79084 0.05931 0.23621 0.0
H2238 H 0.74118 0.06297 0.21054 0.0
H2239 H 0.76357 0.05116 0.22064 0.0
H2240 H 0.73043 0.11744 0.29798 0.0
H2241 H 0.75535 0.10991 0.30584 0.0
H2242 H 0.71678 0.12937 0.27122 0.0
H2243 H 0.70663 0.1202 0.24784 0.0
C2244 C 0.9282 0.7564 0.23457 0.0
C2245 C 0.92202 0.73591 0.24006 0.0
C2246 C 0.92086 0.74606 0.27691 0.0
C2247 C 0.9227 0.76723 0.27084 0.0
N2248 N 0.92983 0.79296 0.24451 0.0
N2249 N 0.91174 0.71099 0.26631 0.0
C2250 C 0.9272 0.77249 0.24984 0.0
C2251 C 0.91865 0.73051 0.26127 0.0
N2252 N 0.93498 0.76032 0.21475 0.0
N2253 N 0.92078 0.74087 0.29757 0.0
H2254 H 0.90986 0.69922 0.2553 0.0
H2255 H 0.90645 0.70685 0.2811 0.0
H2256 H 0.92202 0.7519 0.30944 0.0
H2257 H 0.92142 0.72556 0.30295 0.0
H2258 H 0.94126 0.77451 0.20999 0.0
H2259 H 0.93598 0.74864 0.20345 0.0
H2260 H 0.93075 0.79826 0.2292 0.0
H2261 H 0.93043 0.80483 0.25563 0.0
C2262 C 0.23529 0.93022 0.25219 0.0
C2263 C 0.23975 0.92112 0.27183 0.0
C2264 C 0.27641 0.91667 0.26168 0.0
C2265 C 0.27107 0.92216 0.24095 0.0
N2266 N 0.24626 0.93556 0.21623 0.0
N2267 N 0.26416 0.90495 0.29545 0.0
C2268 C 0.25079 0.92969 0.23622 0.0
C2269 C 0.26033 0.91459 0.27681 0.0
N2270 N 0.2162 0.93915 0.2489 0.0
N2271 N 0.29679 0.91295 0.26673 0.0
H2272 H 0.25275 0.90311 0.30688 0.0
H2273 H 0.27814 0.89753 0.29911 0.0
H2274 H 0.30877 0.91393 0.25582 0.0
H2275 H 0.30208 0.9108 0.28193 0.0
H2276 H 0.2123 0.94753 0.23557 0.0
H2277 H 0.20464 0.93948 0.26038 0.0
H2278 H 0.2313 0.93903 0.21096 0.0
H2279 H 0.25768 0.93636 0.20463 0.0
C2280 C 0.10052 0.73076 0.74622 0.0
C2281 C 0.08872 0.73386 0.76469 0.0
C2282 C 0.07589 0.76736 0.75142 0.0
C2283 C 0.08892 0.7649 0.73372 0.0
N2284 N 0.10923 0.74263 0.71135 0.0
N2285 N 0.06148 0.75192 0.78306 0.0
C2286 C 0.09966 0.74592 0.73012 0.0
C2287 C 0.07502 0.75111 0.76661 0.0
N2288 N 0.11345 0.71384 0.74464 0.0
N2289 N 0.06516 0.78559 0.75404 0.0
H2290 H 0.06074 0.74013 0.79426 0.0
H2291 H 0.05001 0.76327 0.78483 0.0
H2292 H 0.06495 0.79727 0.7427 0.0
H2293 H 0.057 0.78949 0.76752 0.0
H2294 H 0.12441 0.71181 0.73283 0.0
H2295 H 0.11391 0.70205 0.75583 0.0
H2296 H 0.11564 0.72843 0.70678 0.0
H2297 H 0.10933 0.75378 0.69953 0.0
C2298 C 0.24788 0.08352 0.77526 0.0
C2299 C 0.26919 0.0856 0.76965 0.0
C2300 C 0.25972 0.08239 0.7327 0.0
C2301 C 0.23843 0.08521 0.73819 0.0
N2302 N 0.21157 0.08548 0.76444 0.0
N2303 N 0.29584 0.08686 0.743 0.0
C2304 C 0.23231 0.08458 0.75946 0.0
C2305 C 0.27531 0.08447 0.74839 0.0
N2306 N 0.24272 0.08039 0.7957 0.0
N2307 N 0.26512 0.0778 0.71261 0.0
H2308 H 0.30788 0.08792 0.75388 0.0
H2309 H 0.30087 0.08919 0.72774 0.0
H2310 H 0.25422 0.07584 0.70075 0.0
H2311 H 0.2802 0.07371 0.70812 0.0
H2312 H 0.22766 0.07715 0.80087 0.0
H2313 H 0.25399 0.07921 0.80742 0.0
H2314 H 0.20595 0.08768 0.7795 0.0
H2315 H 0.19983 0.08447 0.75318 0.0
C2316 C 0.92627 0.27482 0.748 0.0
C2317 C 0.92274 0.26916 0.76911 0.0
C2318 C 0.92314 0.23221 0.75907 0.0
C2319 C 0.92147 0.23822 0.73787 0.0
N2320 N 0.92162 0.26539 0.71174 0.0
N2321 N 0.92102 0.24252 0.79547 0.0
C2322 C 0.9236 0.25952 0.73214 0.0
C2323 C 0.92245 0.24779 0.77487 0.0
N2324 N 0.93216 0.29467 0.74302 0.0
N2325 N 0.92554 0.21159 0.76392 0.0
H2326 H 0.92227 0.25357 0.80736 0.0
H2327 H 0.91814 0.22746 0.80078 0.0
H2328 H 0.92649 0.20004 0.75248 0.0
H2329 H 0.92844 0.2061 0.77891 0.0
H2330 H 0.93671 0.29913 0.72808 0.0
H2331 H 0.93484 0.30617 0.75413 0.0
H2332 H 0.92002 0.28085 0.70702 0.0
H2333 H 0.92018 0.2548 0.69951 0.0
C2334 C 0.73142 0.91868 0.7462 0.0
C2335 C 0.73702 0.9216 0.76742 0.0
C2336 C 0.7736 0.92683 0.75735 0.0
C2337 C 0.76815 0.9226 0.73633 0.0
N2338 N 0.74144 0.92165 0.70988 0.0
N2339 N 0.76178 0.93398 0.79271 0.0
C2340 C 0.74686 0.92111 0.73046 0.0
C2341 C 0.75763 0.9276 0.7728 0.0
N2342 N 0.71178 0.91199 0.74119 0.0
N2343 N 0.79415 0.92946 0.7625 0.0
H2344 H 0.75018 0.93481 0.80414 0.0
H2345 H 0.77606 0.94007 0.79748 0.0
H2346 H 0.8059 0.93038 0.75125 0.0
H2347 H 0.79964 0.93016 0.77776 0.0
H2348 H 0.70747 0.90706 0.72633 0.0
H2349 H 0.7001 0.90992 0.75227 0.0
H2350 H 0.72606 0.92245 0.70467 0.0
H2351 H 0.75238 0.92361 0.69806 0.0
C2352 C 0.23375 0.08334 0.24918 0.0
C2353 C 0.23956 0.08577 0.2704 0.0
C2354 C 0.27662 0.08589 0.2607 0.0
C2355 C 0.27066 0.08556 0.23936 0.0
N2356 N 0.24488 0.07793 0.21329 0.0
N2357 N 0.26611 0.08348 0.29701 0.0
C2358 C 0.24957 0.08223 0.23363 0.0
C2359 C 0.26089 0.08486 0.27638 0.0
N2360 N 0.21304 0.08276 0.244 0.0
N2361 N 0.29715 0.08865 0.26593 0.0
H2362 H 0.25511 0.08343 0.30897 0.0
H2363 H 0.2812 0.08072 0.30235 0.0
H2364 H 0.30919 0.08859 0.25501 0.0
H2365 H 0.30231 0.09199 0.28095 0.0
H2366 H 0.20745 0.08342 0.22878 0.0
H2367 H 0.20124 0.08207 0.25522 0.0
H2368 H 0.23006 0.07388 0.20802 0.0
H2369 H 0.25639 0.07675 0.20181 0.0
C2370 C 0.92631 0.24865 0.23318 0.0
C2371 C 0.92333 0.2697 0.23914 0.0
C2372 C 0.92575 0.25965 0.276 0.0
C2373 C 0.9239 0.23841 0.27001 0.0
N2374 N 0.9257 0.21212 0.2433 0.0
N2375 N 0.92127 0.29588 0.26609 0.0
C2376 C 0.9255 0.23276 0.24866 0.0
C2377 C 0.92388 0.27547 0.26051 0.0
N2378 N 0.93001 0.24404 0.2127 0.0
N2379 N 0.92917 0.26474 0.29639 0.0
H2380 H 0.92074 0.30803 0.25532 0.0
H2381 H 0.91848 0.30076 0.28132 0.0
H2382 H 0.93101 0.25364 0.30805 0.0
H2383 H 0.93247 0.2798 0.30147 0.0
H2384 H 0.93383 0.22924 0.20726 0.0
H2385 H 0.93101 0.25558 0.20125 0.0
H2386 H 0.92428 0.20668 0.22808 0.0
H2387 H 0.92688 0.20027 0.25439 0.0
C2388 C 0.77548 0.92463 0.24823 0.0
C2389 C 0.76954 0.92191 0.26932 0.0
C2390 C 0.73271 0.92553 0.25945 0.0
C2391 C 0.73851 0.92314 0.23822 0.0
N2392 N 0.76517 0.92367 0.21178 0.0
N2393 N 0.7425 0.92024 0.29555 0.0
C2394 C 0.75989 0.924 0.23243 0.0
C2395 C 0.74817 0.923 0.27518 0.0
N2396 N 0.79603 0.92793 0.24349 0.0
N2397 N 0.71256 0.93019 0.26462 0.0
H2398 H 0.75324 0.91897 0.30768 0.0
H2399 H 0.72713 0.9179 0.30033 0.0
H2400 H 0.70102 0.93293 0.25354 0.0
H2401 H 0.70779 0.93381 0.27971 0.0
H2402 H 0.80144 0.93159 0.22864 0.0
H2403 H 0.80757 0.9288 0.25497 0.0
H2404 H 0.78035 0.92168 0.20633 0.0
H2405 H 0.75404 0.92495 0.19996 0.0
C2406 C 0.08119 0.75747 0.23407 0.0
C2407 C 0.08761 0.73702 0.2395 0.0
C2408 C 0.08811 0.74695 0.27642 0.0
C2409 C 0.08607 0.76814 0.27048 0.0
N2410 N 0.07901 0.79394 0.24422 0.0
N2411 N 0.09811 0.71217 0.26574 0.0
C2412 C 0.0818 0.77348 0.24946 0.0
C2413 C 0.09082 0.73156 0.26072 0.0
N2414 N 0.07455 0.76142 0.21421 0.0
N2415 N 0.08792 0.74161 0.29705 0.0
H2416 H 0.10051 0.70054 0.25468 0.0
H2417 H 0.10326 0.70806 0.28058 0.0
H2418 H 0.08631 0.75254 0.30897 0.0
H2419 H 0.08741 0.72625 0.30229 0.0
H2420 H 0.06812 0.77555 0.20949 0.0
H2421 H 0.07382 0.74979 0.20284 0.0
H2422 H 0.07824 0.79932 0.22893 0.0
H2423 H 0.07813 0.80573 0.25541 0.0
C2424 C 0.2349 0.92605 0.75789 0.0
C2425 C 0.24028 0.92248 0.73675 0.0
C2426 C 0.27709 0.9186 0.74626 0.0
C2427 C 0.27157 0.92088 0.76759 0.0
N2428 N 0.24686 0.93243 0.79333 0.0
N2429 N 0.26679 0.92222 0.71005 0.0
C2430 C 0.25095 0.92657 0.77325 0.0
C2431 C 0.26153 0.92128 0.73068 0.0
N2432 N 0.21435 0.92822 0.76324 0.0
N2433 N 0.29675 0.91222 0.74096 0.0
H2434 H 0.25576 0.92382 0.69821 0.0
H2435 H 0.28213 0.92335 0.70476 0.0
H2436 H 0.30853 0.91001 0.75191 0.0
H2437 H 0.30102 0.90768 0.72597 0.0
H2438 H 0.20896 0.92841 0.77855 0.0
H2439 H 0.2025 0.92921 0.7521 0.0
H2440 H 0.23255 0.93829 0.7983 0.0
H2441 H 0.25851 0.9331 0.8047 0.0
C2442 C 0.0895 0.26097 0.73084 0.0
C2443 C 0.08569 0.23984 0.73627 0.0
C2444 C 0.08002 0.24989 0.77271 0.0
C2445 C 0.08502 0.27077 0.76743 0.0
N2446 N 0.08777 0.29736 0.741 0.0
N2447 N 0.07186 0.21487 0.76055 0.0
C2448 C 0.08728 0.27672 0.74627 0.0
C2449 C 0.07903 0.23456 0.75667 0.0
N2450 N 0.09685 0.26581 0.71143 0.0
N2451 N 0.07693 0.24471 0.79315 0.0
H2452 H 0.07088 0.20355 0.74888 0.0
H2453 H 0.06527 0.21026 0.77465 0.0
H2454 H 0.07634 0.2559 0.80495 0.0
H2455 H 0.0756 0.22945 0.7985 0.0
H2456 H 0.10243 0.28049 0.70731 0.0
H2457 H 0.09877 0.25469 0.69977 0.0
H2458 H 0.08749 0.30267 0.72566 0.0
H2459 H 0.0865 0.30928 0.75197 0.0
C2460 C 0.75545 0.0775 0.76959 0.0
C2461 C 0.73652 0.08848 0.76629 0.0
C2462 C 0.74898 0.10091 0.73245 0.0
C2463 C 0.76821 0.09039 0.73582 0.0
N2464 N 0.78917 0.06651 0.7558 0.0
N2465 N 0.71298 0.10605 0.74293 0.0
C2466 C 0.77116 0.07774 0.75376 0.0
C2467 C 0.73252 0.09849 0.74704 0.0
N2468 N 0.75861 0.06765 0.78822 0.0
N2469 N 0.74696 0.11442 0.71606 0.0
H2470 H 0.70082 0.10511 0.75367 0.0
H2471 H 0.70832 0.11154 0.72838 0.0
H2472 H 0.75874 0.11691 0.70514 0.0
H2473 H 0.73429 0.1244 0.71408 0.0
H2474 H 0.77273 0.06104 0.79278 0.0
H2475 H 0.74693 0.06655 0.79954 0.0
H2476 H 0.79179 0.05559 0.76751 0.0
H2477 H 0.80131 0.06741 0.74499 0.0
C2478 C 0.91718 0.7309 0.74725 0.0
C2479 C 0.92034 0.73635 0.76848 0.0
C2480 C 0.9255 0.77293 0.75864 0.0
C2481 C 0.9214 0.76758 0.73757 0.0
N2482 N 0.9198 0.74107 0.71093 0.0
N2483 N 0.93285 0.76092 0.79387 0.0
C2484 C 0.91964 0.74637 0.73157 0.0
C2485 C 0.92635 0.7569 0.77397 0.0
N2486 N 0.91017 0.71142 0.74219 0.0
N2487 N 0.92791 0.79342 0.76397 0.0
H2488 H 0.93374 0.7493 0.80523 0.0
H2489 H 0.93903 0.77515 0.79864 0.0
H2490 H 0.92866 0.80529 0.75285 0.0
H2491 H 0.92847 0.79876 0.77928 0.0
H2492 H 0.90505 0.70726 0.72735 0.0
H2493 H 0.90793 0.69975 0.75324 0.0
H2494 H 0.92057 0.72573 0.70567 0.0
H2495 H 0.92111 0.75202 0.69899 0.0
C2496 C 0.26241 0.27527 0.08888 0.0
C2497 C 0.24099 0.27015 0.08633 0.0
C2498 C 0.25016 0.23333 0.0816 0.0
C2499 C 0.27145 0.23842 0.08501 0.0
N2500 N 0.29852 0.26459 0.0851 0.0
N2501 N 0.21488 0.24578 0.07489 0.0
C2502 C 0.2778 0.25956 0.08614 0.0
C2503 C 0.23502 0.2496 0.08083 0.0
N2504 N 0.26796 0.2947 0.09562 0.0
N2505 N 0.24443 0.21289 0.07979 0.0
H2506 H 0.20366 0.25757 0.07409 0.0
H2507 H 0.20974 0.23152 0.06909 0.0
H2508 H 0.25537 0.20084 0.07902 0.0
H2509 H 0.229 0.20779 0.07974 0.0
H2510 H 0.28303 0.29867 0.10026 0.0
H2511 H 0.25705 0.30642 0.09822 0.0
H2512 H 0.30392 0.27986 0.08391 0.0
H2513 H 0.31027 0.25348 0.08346 0.0
C2514 C 0.23811 0.75247 0.93074 0.0
C2515 C 0.24131 0.73397 0.91905 0.0
C2516 C 0.27603 0.746 0.90844 0.0
C2517 C 0.27233 0.76506 0.91906 0.0
N2518 N 0.2529 0.78474 0.94434 0.0
N2519 N 0.26464 0.71067 0.90106 0.0
C2520 C 0.25436 0.76766 0.93169 0.0
C2521 C 0.26085 0.72989 0.90949 0.0
N2522 N 0.2192 0.75585 0.94004 0.0
N2523 N 0.29352 0.74386 0.89637 0.0
H2524 H 0.25346 0.69887 0.9009 0.0
H2525 H 0.27918 0.70583 0.89566 0.0
H2526 H 0.30525 0.75512 0.89577 0.0
H2527 H 0.29608 0.73149 0.88619 0.0
H2528 H 0.2149 0.76986 0.94699 0.0
H2529 H 0.20737 0.74465 0.94008 0.0
H2530 H 0.241 0.787 0.95515 0.0
H2531 H 0.2647 0.79596 0.94515 0.0
C2532 C 0.26235 0.27563 0.9225 0.0
C2533 C 0.24119 0.26913 0.92186 0.0
C2534 C 0.25258 0.23258 0.92375 0.0
C2535 C 0.27332 0.23909 0.91959 0.0
N2536 N 0.29808 0.26685 0.91402 0.0
N2537 N 0.21572 0.24171 0.92453 0.0
C2538 C 0.27834 0.26064 0.91917 0.0
C2539 C 0.2362 0.24763 0.9236 0.0
N2540 N 0.2672 0.29605 0.92605 0.0
N2541 N 0.24871 0.21202 0.92785 0.0
H2542 H 0.2036 0.25251 0.92602 0.0
H2543 H 0.21067 0.22633 0.92333 0.0
H2544 H 0.26057 0.20086 0.9282 0.0
H2545 H 0.23425 0.2063 0.93257 0.0
H2546 H 0.28241 0.30135 0.92834 0.0
H2547 H 0.25596 0.30729 0.92926 0.0
H2548 H 0.30213 0.28227 0.91088 0.0
H2549 H 0.31007 0.25629 0.91123 0.0
C2550 C 0.75974 0.23386 0.9251 0.0
C2551 C 0.73901 0.23925 0.91954 0.0
C2552 C 0.74844 0.27631 0.92023 0.0
C2553 C 0.76979 0.27061 0.92143 0.0
N2554 N 0.79617 0.24446 0.92679 0.0
N2555 N 0.71349 0.26551 0.91076 0.0
C2556 C 0.77553 0.2495 0.92471 0.0
C2557 C 0.73317 0.26049 0.91731 0.0
N2558 N 0.76418 0.2138 0.93079 0.0
N2559 N 0.74279 0.29682 0.92143 0.0
H2560 H 0.70196 0.25436 0.90818 0.0
H2561 H 0.70902 0.28048 0.90633 0.0
H2562 H 0.75358 0.30885 0.92327 0.0
H2563 H 0.72734 0.30179 0.92259 0.0
H2564 H 0.77858 0.20904 0.93661 0.0
H2565 H 0.75275 0.2022 0.93135 0.0
H2566 H 0.8018 0.22924 0.92675 0.0
H2567 H 0.80784 0.25577 0.92793 0.0
C2568 C 0.75313 0.76746 0.93208 0.0
C2569 C 0.73585 0.76573 0.91835 0.0
C2570 C 0.74883 0.73231 0.90528 0.0
C2571 C 0.76687 0.73465 0.91795 0.0
N2572 N 0.78426 0.75121 0.94676 0.0
N2573 N 0.7141 0.74451 0.89632 0.0
C2574 C 0.76829 0.75113 0.93262 0.0
C2575 C 0.73265 0.74737 0.90651 0.0
N2576 N 0.75541 0.78511 0.9438 0.0
N2577 N 0.7477 0.71621 0.89132 0.0
H2578 H 0.70217 0.75556 0.89658 0.0
H2579 H 0.70977 0.73064 0.8891 0.0
H2580 H 0.75888 0.70443 0.89051 0.0
H2581 H 0.73631 0.71497 0.87981 0.0
H2582 H 0.76864 0.78854 0.95257 0.0
H2583 H 0.74407 0.7968 0.9442 0.0
H2584 H 0.78552 0.76186 0.95892 0.0
H2585 H 0.79558 0.7395 0.94719 0.0
C2586 C 0.74981 0.73214 0.10373 0.0
C2587 C 0.76767 0.73421 0.09076 0.0
C2588 C 0.75359 0.76661 0.07599 0.0
C2589 C 0.73649 0.76514 0.08996 0.0
N2590 N 0.7151 0.74432 0.11274 0.0
N2591 N 0.78455 0.75008 0.06125 0.0
C2592 C 0.73353 0.74706 0.1023 0.0
C2593 C 0.76881 0.75032 0.07564 0.0
N2594 N 0.74894 0.71643 0.11815 0.0
N2595 N 0.75569 0.784 0.06386 0.0
H2596 H 0.7959 0.7384 0.06093 0.0
H2597 H 0.78556 0.76041 0.04879 0.0
H2598 H 0.74433 0.79566 0.06335 0.0
H2599 H 0.76881 0.78726 0.05486 0.0
H2600 H 0.7377 0.71545 0.12983 0.0
H2601 H 0.7602 0.70474 0.11916 0.0
H2602 H 0.71093 0.73058 0.1203 0.0
H2603 H 0.70311 0.7553 0.11236 0.0
C2604 C 0.26112 0.72997 0.08502 0.0
C2605 C 0.23976 0.73577 0.08465 0.0
C2606 C 0.24984 0.77251 0.08118 0.0
C2607 C 0.27067 0.76699 0.08623 0.0
N2608 N 0.2964 0.74049 0.09354 0.0
N2609 N 0.21336 0.76206 0.08017 0.0
C2610 C 0.27653 0.74569 0.08778 0.0
C2611 C 0.23401 0.75693 0.08174 0.0
N2612 N 0.26667 0.70949 0.08313 0.0
N2613 N 0.24535 0.79265 0.07586 0.0
H2614 H 0.20163 0.75079 0.07909 0.0
H2615 H 0.20777 0.77729 0.08053 0.0
H2616 H 0.25683 0.8042 0.07513 0.0
H2617 H 0.23084 0.79756 0.07045 0.0
H2618 H 0.28206 0.70454 0.08137 0.0
H2619 H 0.25581 0.69754 0.08127 0.0
H2620 H 0.30094 0.72542 0.09755 0.0
H2621 H 0.30808 0.75153 0.09581 0.0
C2622 C 0.73413 0.25852 0.10427 0.0
C2623 C 0.73609 0.24061 0.09138 0.0
C2624 C 0.76907 0.25409 0.07725 0.0
C2625 C 0.76722 0.27171 0.09049 0.0
N2626 N 0.74583 0.29353 0.11232 0.0
N2627 N 0.75245 0.22336 0.06232 0.0
C2628 C 0.74891 0.27487 0.10246 0.0
C2629 C 0.75253 0.23916 0.07661 0.0
N2630 N 0.71873 0.25942 0.11905 0.0
N2631 N 0.78708 0.25112 0.06621 0.0
H2632 H 0.74072 0.21207 0.06185 0.0
H2633 H 0.76297 0.22237 0.04999 0.0
H2634 H 0.79923 0.26197 0.06622 0.0
H2635 H 0.79046 0.23756 0.05795 0.0
H2636 H 0.718 0.27079 0.13061 0.0
H2637 H 0.70729 0.24798 0.12069 0.0
H2638 H 0.73184 0.29776 0.11943 0.0
H2639 H 0.75673 0.30559 0.1118 0.0
C2640 C 0.58538 0.77666 0.75984 0.0
C2641 C 0.58625 0.77034 0.73863 0.0
C2642 C 0.58244 0.73376 0.74922 0.0
C2643 C 0.58585 0.7398 0.77018 0.0
N2644 N 0.58893 0.76674 0.79621 0.0
N2645 N 0.58309 0.74353 0.71259 0.0
C2646 C 0.58626 0.76122 0.77579 0.0
C2647 C 0.58368 0.74905 0.73317 0.0
N2648 N 0.58417 0.79739 0.76471 0.0
N2649 N 0.57796 0.71338 0.74488 0.0
H2650 H 0.58254 0.75455 0.70062 0.0
H2651 H 0.58364 0.72821 0.70727 0.0
H2652 H 0.57665 0.70213 0.75659 0.0
H2653 H 0.57385 0.7079 0.73018 0.0
H2654 H 0.58149 0.803 0.77969 0.0
H2655 H 0.58426 0.80917 0.75354 0.0
H2656 H 0.59232 0.78181 0.80118 0.0
H2657 H 0.58865 0.75599 0.80839 0.0
C2658 C 0.25957 0.58275 0.73302 0.0
C2659 C 0.23848 0.5858 0.73895 0.0
C2660 C 0.24857 0.5848 0.77588 0.0
C2661 C 0.26986 0.58594 0.76974 0.0
N2662 N 0.29617 0.58357 0.74307 0.0
N2663 N 0.21219 0.58825 0.76578 0.0
C2664 C 0.27551 0.58385 0.74845 0.0
C2665 C 0.2327 0.58581 0.76034 0.0
N2666 N 0.26414 0.57869 0.7126 0.0
N2667 N 0.24353 0.5832 0.79655 0.0
H2668 H 0.20004 0.58811 0.75497 0.0
H2669 H 0.2071 0.59138 0.78087 0.0
H2670 H 0.25462 0.58323 0.80843 0.0
H2671 H 0.22852 0.58024 0.80199 0.0
H2672 H 0.27895 0.57483 0.70717 0.0
H2673 H 0.25255 0.57749 0.7012 0.0
H2674 H 0.30162 0.58453 0.72782 0.0
H2675 H 0.30808 0.58288 0.75417 0.0
C2676 C 0.42513 0.25934 0.73414 0.0
C2677 C 0.42156 0.23841 0.74029 0.0
C2678 C 0.42438 0.24888 0.77699 0.0
C2679 C 0.42297 0.27007 0.77082 0.0
N2680 N 0.42424 0.29598 0.74371 0.0
N2681 N 0.41721 0.21301 0.76774 0.0
C2682 C 0.42431 0.27545 0.7494 0.0
C2683 C 0.42155 0.23299 0.76177 0.0
N2684 N 0.4294 0.26365 0.71371 0.0
N2685 N 0.42818 0.24387 0.79734 0.0
H2686 H 0.41506 0.20092 0.75715 0.0
H2687 H 0.41426 0.2087 0.78312 0.0
H2688 H 0.4304 0.25503 0.80892 0.0
H2689 H 0.43125 0.22873 0.80236 0.0
H2690 H 0.4338 0.27832 0.70832 0.0
H2691 H 0.43042 0.25197 0.70241 0.0
H2692 H 0.4226 0.30109 0.72839 0.0
H2693 H 0.4252 0.30805 0.7546 0.0
C2694 C 0.74117 0.43163 0.75414 0.0
C2695 C 0.74388 0.41933 0.77232 0.0
C2696 C 0.77758 0.40673 0.75943 0.0
C2697 C 0.77452 0.41832 0.74082 0.0
N2698 N 0.75656 0.44553 0.72229 0.0
N2699 N 0.76649 0.3996 0.79488 0.0
C2700 C 0.75738 0.43217 0.73887 0.0
C2701 C 0.76284 0.40849 0.77586 0.0
N2702 N 0.7227 0.44184 0.75105 0.0
N2703 N 0.79399 0.39314 0.7609 0.0
H2704 H 0.75562 0.4001 0.80697 0.0
H2705 H 0.78079 0.39327 0.79931 0.0
H2706 H 0.80533 0.39172 0.74934 0.0
H2707 H 0.7958 0.3824 0.77293 0.0
H2708 H 0.71871 0.4493 0.73721 0.0
H2709 H 0.71085 0.44202 0.76222 0.0
H2710 H 0.74539 0.45721 0.72069 0.0
H2711 H 0.76819 0.44598 0.7109 0.0
C2712 C 0.60447 0.23403 0.24879 0.0
C2713 C 0.5928 0.23724 0.26736 0.0
C2714 C 0.57976 0.27065 0.25375 0.0
C2715 C 0.59183 0.26753 0.23546 0.0
N2716 N 0.61223 0.24494 0.21347 0.0
N2717 N 0.56756 0.25687 0.28702 0.0
C2718 C 0.6029 0.24866 0.23229 0.0
C2719 C 0.57964 0.25493 0.26956 0.0
N2720 N 0.61814 0.21767 0.24749 0.0
N2721 N 0.56935 0.28908 0.25633 0.0
H2722 H 0.56824 0.24624 0.29931 0.0
H2723 H 0.55624 0.26831 0.28905 0.0
H2724 H 0.56885 0.30051 0.24476 0.0
H2725 H 0.56176 0.29346 0.26998 0.0
H2726 H 0.62898 0.21579 0.23555 0.0
H2727 H 0.61975 0.2065 0.25917 0.0
H2728 H 0.61837 0.23057 0.20907 0.0
H2729 H 0.6125 0.25593 0.20152 0.0
C2730 C 0.77516 0.58274 0.24729 0.0
C2731 C 0.76938 0.58461 0.26859 0.0
C2732 C 0.73234 0.58354 0.25902 0.0
C2733 C 0.73813 0.58371 0.23766 0.0
N2734 N 0.7643 0.57489 0.21197 0.0
N2735 N 0.74333 0.58013 0.29518 0.0
C2736 C 0.75929 0.58035 0.23194 0.0
C2737 C 0.74816 0.58274 0.27458 0.0
N2738 N 0.79562 0.5847 0.24152 0.0
N2739 N 0.71168 0.58464 0.26428 0.0
H2740 H 0.7548 0.57913 0.30671 0.0
H2741 H 0.72833 0.57713 0.30068 0.0
H2742 H 0.6998 0.58345 0.2532 0.0
H2743 H 0.70629 0.58715 0.27938 0.0
H2744 H 0.80043 0.58652 0.22611 0.0
H2745 H 0.80784 0.58585 0.25218 0.0
H2746 H 0.77927 0.57047 0.20741 0.0
H2747 H 0.75319 0.57245 0.2004 0.0
C2748 C 0.42283 0.76052 0.23152 0.0
C2749 C 0.42226 0.73918 0.2374 0.0
C2750 C 0.42535 0.74908 0.27422 0.0
C2751 C 0.42162 0.7701 0.26855 0.0
N2752 N 0.41767 0.79649 0.24202 0.0
N2753 N 0.42527 0.71266 0.26376 0.0
C2754 C 0.42118 0.77611 0.24723 0.0
C2755 C 0.42455 0.73334 0.25862 0.0
N2756 N 0.4245 0.76585 0.21094 0.0
N2757 N 0.42972 0.74439 0.29455 0.0
H2758 H 0.42618 0.70091 0.25253 0.0
H2759 H 0.42443 0.70706 0.27897 0.0
H2760 H 0.43065 0.75584 0.30609 0.0
H2761 H 0.43412 0.72966 0.29972 0.0
H2762 H 0.42706 0.78102 0.20576 0.0
H2763 H 0.42506 0.75493 0.19894 0.0
H2764 H 0.41419 0.80151 0.22698 0.0
H2765 H 0.41713 0.80849 0.25295 0.0
C2766 C 0.26994 0.43028 0.25302 0.0
C2767 C 0.26793 0.41622 0.23603 0.0
C2768 C 0.23296 0.40628 0.24803 0.0
C2769 C 0.23624 0.41786 0.26653 0.0
N2770 N 0.25678 0.4417 0.28685 0.0
N2771 N 0.24832 0.38961 0.2179 0.0
C2772 C 0.2543 0.43043 0.26893 0.0
C2773 C 0.24949 0.40414 0.23349 0.0
N2774 N 0.28705 0.44297 0.25415 0.0
N2775 N 0.21401 0.39708 0.24457 0.0
H2776 H 0.26004 0.38748 0.20684 0.0
H2777 H 0.23645 0.37858 0.2167 0.0
H2778 H 0.20184 0.39781 0.25533 0.0
H2779 H 0.2097 0.39034 0.23044 0.0
H2780 H 0.28884 0.45484 0.26506 0.0
H2781 H 0.29918 0.4423 0.24331 0.0
H2782 H 0.27037 0.44965 0.29082 0.0
H2783 H 0.24512 0.44263 0.29819 0.0
C2784 C 0.7602 0.58497 0.77553 0.0
C2785 C 0.73881 0.58682 0.77 0.0
C2786 C 0.74812 0.58451 0.73295 0.0
C2787 C 0.76939 0.58711 0.73842 0.0
N2788 N 0.79628 0.58905 0.76476 0.0
N2789 N 0.71181 0.58575 0.74393 0.0
C2790 C 0.77568 0.58656 0.75967 0.0
C2791 C 0.7326 0.58549 0.7488 0.0
N2792 N 0.76576 0.58204 0.7959 0.0
N2793 N 0.74296 0.58095 0.71258 0.0
H2794 H 0.70016 0.58484 0.75528 0.0
H2795 H 0.70604 0.58738 0.72885 0.0
H2796 H 0.75421 0.57983 0.70084 0.0
H2797 H 0.72795 0.57736 0.7075 0.0
H2798 H 0.78089 0.57848 0.80067 0.0
H2799 H 0.75499 0.58131 0.80804 0.0
H2800 H 0.80155 0.59185 0.77985 0.0
H2801 H 0.80821 0.58953 0.75374 0.0
C2802 C 0.42683 0.74826 0.73357 0.0
C2803 C 0.42406 0.76953 0.73896 0.0
C2804 C 0.42375 0.76054 0.77613 0.0
C2805 C 0.42424 0.73911 0.77056 0.0
N2806 N 0.43251 0.71264 0.74545 0.0
N2807 N 0.42574 0.79669 0.76496 0.0
C2808 C 0.42793 0.73302 0.74967 0.0
C2809 C 0.42471 0.77593 0.76015 0.0
N2810 N 0.42771 0.7427 0.71301 0.0
N2811 N 0.42092 0.7661 0.79652 0.0
H2812 H 0.42572 0.80842 0.75374 0.0
H2813 H 0.42822 0.80238 0.77995 0.0
H2814 H 0.42115 0.75537 0.80873 0.0
H2815 H 0.41748 0.78117 0.80144 0.0
H2816 H 0.42734 0.72738 0.70771 0.0
H2817 H 0.42834 0.75372 0.70104 0.0
H2818 H 0.43679 0.70712 0.7308 0.0
H2819 H 0.43371 0.70143 0.7572 0.0
C2820 C 0.27384 0.42645 0.74939 0.0
C2821 C 0.2685 0.42247 0.77048 0.0
C2822 C 0.23166 0.41875 0.76095 0.0
C2823 C 0.23713 0.42154 0.73967 0.0
N2824 N 0.2618 0.43353 0.7141 0.0
N2825 N 0.24203 0.42152 0.79722 0.0
C2826 C 0.25775 0.42729 0.73408 0.0
C2827 C 0.24726 0.42108 0.77656 0.0
N2828 N 0.29437 0.42874 0.74403 0.0
N2829 N 0.21202 0.41223 0.76613 0.0
H2830 H 0.25306 0.42282 0.80908 0.0
H2831 H 0.22669 0.42252 0.80254 0.0
H2832 H 0.20022 0.41027 0.75515 0.0
H2833 H 0.20778 0.40733 0.78102 0.0
H2834 H 0.29972 0.42924 0.72872 0.0
H2835 H 0.30626 0.42952 0.75515 0.0
H2836 H 0.27611 0.43947 0.7092 0.0
H2837 H 0.25012 0.43442 0.70277 0.0
C2838 C 0.58453 0.27434 0.74872 0.0
C2839 C 0.58715 0.26861 0.76993 0.0
C2840 C 0.5868 0.23157 0.76041 0.0
C2841 C 0.58613 0.23743 0.73905 0.0
N2842 N 0.57806 0.26311 0.71305 0.0
N2843 N 0.58468 0.24224 0.79668 0.0
C2844 C 0.58285 0.25848 0.7333 0.0
C2845 C 0.58604 0.24735 0.77602 0.0
N2846 N 0.58432 0.29498 0.74338 0.0
N2847 N 0.58966 0.21112 0.76571 0.0
H2848 H 0.58475 0.25327 0.80858 0.0
H2849 H 0.58177 0.2272 0.80206 0.0
H2850 H 0.58943 0.19903 0.75486 0.0
H2851 H 0.59328 0.20608 0.78071 0.0
H2852 H 0.58495 0.3004 0.72811 0.0
H2853 H 0.58408 0.30686 0.75451 0.0
H2854 H 0.57394 0.27792 0.70786 0.0
H2855 H 0.57644 0.25157 0.70168 0.0
C2856 C 0.77641 0.41751 0.24626 0.0
C2857 C 0.77073 0.42015 0.26751 0.0
C2858 C 0.73411 0.42508 0.25742 0.0
C2859 C 0.73967 0.42133 0.23634 0.0
N2860 N 0.76646 0.42065 0.20991 0.0
N2861 N 0.74576 0.43188 0.2929 0.0
C2862 C 0.76099 0.41999 0.23049 0.0
C2863 C 0.75003 0.42581 0.27292 0.0
N2864 N 0.7961 0.41102 0.24124 0.0
N2865 N 0.71352 0.4273 0.26259 0.0
H2866 H 0.7573 0.43268 0.30438 0.0
H2867 H 0.7314 0.43777 0.2977 0.0
H2868 H 0.70175 0.42819 0.25136 0.0
H2869 H 0.70801 0.42763 0.27785 0.0
H2870 H 0.80049 0.40623 0.22636 0.0
H2871 H 0.80777 0.40894 0.25234 0.0
H2872 H 0.78186 0.42171 0.20478 0.0
H2873 H 0.75558 0.42209 0.19793 0.0
C2874 C 0.58415 0.77628 0.24623 0.0
C2875 C 0.58608 0.77061 0.26755 0.0
C2876 C 0.5842 0.7336 0.25792 0.0
C2877 C 0.58688 0.73927 0.23675 0.0
N2878 N 0.58843 0.76586 0.21013 0.0
N2879 N 0.58518 0.74426 0.29426 0.0
C2880 C 0.58602 0.76056 0.23065 0.0
C2881 C 0.58495 0.74933 0.27356 0.0
N2882 N 0.58083 0.79664 0.24085 0.0
N2883 N 0.58078 0.71315 0.26289 0.0
H2884 H 0.58405 0.7555 0.306 0.0
H2885 H 0.58699 0.72915 0.29989 0.0
H2886 H 0.57981 0.70151 0.25156 0.0
H2887 H 0.57711 0.70793 0.27781 0.0
H2888 H 0.57725 0.80146 0.22578 0.0
H2889 H 0.57976 0.80865 0.25171 0.0
H2890 H 0.59102 0.78104 0.20499 0.0
H2891 H 0.58901 0.75493 0.19813 0.0
C2892 C 0.27615 0.58381 0.25949 0.0
C2893 C 0.27022 0.5847 0.23819 0.0
C2894 C 0.23325 0.5846 0.24806 0.0
C2895 C 0.23923 0.58556 0.26938 0.0
N2896 N 0.26534 0.57976 0.29565 0.0
N2897 N 0.24365 0.57769 0.2124 0.0
C2898 C 0.26043 0.58302 0.27516 0.0
C2899 C 0.24893 0.58223 0.23252 0.0
N2900 N 0.29687 0.58423 0.26462 0.0
N2901 N 0.21282 0.58738 0.24252 0.0
H2902 H 0.25468 0.57511 0.20079 0.0
H2903 H 0.22852 0.57401 0.20773 0.0
H2904 H 0.20071 0.58865 0.25329 0.0
H2905 H 0.20796 0.5898 0.22721 0.0
H2906 H 0.30244 0.58619 0.27973 0.0
H2907 H 0.30864 0.58306 0.25341 0.0
H2908 H 0.28029 0.57625 0.30094 0.0
H2909 H 0.25395 0.57881 0.30726 0.0
C2910 C 0.41702 0.23086 0.24498 0.0
C2911 C 0.42176 0.23644 0.26583 0.0
C2912 C 0.42926 0.27228 0.25467 0.0
C2913 C 0.42078 0.26752 0.23482 0.0
N2914 N 0.40615 0.24261 0.21075 0.0
N2915 N 0.43406 0.26157 0.29076 0.0
C2916 C 0.41501 0.24678 0.2297 0.0
C2917 C 0.42872 0.25686 0.27067 0.0
N2918 N 0.41397 0.21038 0.23995 0.0
N2919 N 0.43768 0.29157 0.25808 0.0
H2920 H 0.43492 0.25023 0.30241 0.0
H2921 H 0.43707 0.2766 0.29607 0.0
H2922 H 0.43811 0.30303 0.24653 0.0
H2923 H 0.44559 0.29574 0.27162 0.0
H2924 H 0.41242 0.20497 0.22473 0.0
H2925 H 0.4149 0.1985 0.25095 0.0
H2926 H 0.39926 0.22842 0.20689 0.0
H2927 H 0.40446 0.25387 0.19917 0.0
C2928 C 0.77673 0.76071 0.58873 0.0
C2929 C 0.77108 0.7395 0.58572 0.0
C2930 C 0.73459 0.74966 0.5802 0.0
C2931 C 0.74011 0.77067 0.58434 0.0
N2932 N 0.76685 0.7971 0.58589 0.0
N2933 N 0.74634 0.71425 0.57321 0.0
C2934 C 0.76138 0.7765 0.58614 0.0
C2935 C 0.7505 0.73416 0.57958 0.0
N2936 N 0.79627 0.76564 0.59574 0.0
N2937 N 0.71403 0.74456 0.57757 0.0
H2938 H 0.75788 0.70278 0.5725 0.0
H2939 H 0.73208 0.70954 0.56701 0.0
H2940 H 0.7023 0.75583 0.57667 0.0
H2941 H 0.70851 0.72931 0.57692 0.0
H2942 H 0.80056 0.78048 0.60076 0.0
H2943 H 0.80786 0.75451 0.59805 0.0
H2944 H 0.78226 0.80226 0.58519 0.0
H2945 H 0.75597 0.80909 0.58442 0.0
C2946 C 0.7482 0.27427 0.4229 0.0
C2947 C 0.7694 0.26817 0.42117 0.0
C2948 C 0.75914 0.23157 0.42562 0.0
C2949 C 0.73801 0.23738 0.42223 0.0
N2950 N 0.71169 0.26413 0.42091 0.0
N2951 N 0.79552 0.24098 0.42133 0.0
C2952 C 0.73231 0.25877 0.42216 0.0
C2953 C 0.77508 0.24685 0.42319 0.0
N2954 N 0.74344 0.2949 0.42539 0.0
N2955 N 0.76406 0.21158 0.43109 0.0
H2956 H 0.8078 0.25156 0.42017 0.0
H2957 H 0.80026 0.22554 0.4196 0.0
H2958 H 0.75291 0.20001 0.43338 0.0
H2959 H 0.77898 0.20698 0.4356 0.0
H2960 H 0.72846 0.30046 0.42831 0.0
H2961 H 0.75495 0.3064 0.42636 0.0
H2962 H 0.7064 0.27923 0.4182 0.0
H2963 H 0.69973 0.25313 0.42215 0.0
C2964 C 0.75131 0.73547 0.42837 0.0
C2965 C 0.77163 0.74042 0.42105 0.0
C2966 C 0.7607 0.77628 0.41373 0.0
C2967 C 0.74009 0.77108 0.42004 0.0
N2968 N 0.71661 0.74786 0.4378 0.0
N2969 N 0.79724 0.76645 0.4123 0.0
C2970 C 0.73572 0.75133 0.42895 0.0
C2971 C 0.77686 0.76123 0.4158 0.0
N2972 N 0.74686 0.7154 0.43399 0.0
N2973 N 0.76448 0.79502 0.40429 0.0
H2974 H 0.80929 0.75561 0.41326 0.0
H2975 H 0.80245 0.78171 0.41035 0.0
H2976 H 0.75303 0.80641 0.40246 0.0
H2977 H 0.7785 0.79883 0.39701 0.0
H2978 H 0.73189 0.71 0.43726 0.0
H2979 H 0.75833 0.70385 0.43477 0.0
H2980 H 0.71276 0.73443 0.44605 0.0
H2981 H 0.70501 0.7593 0.43824 0.0
C2982 C 0.23228 0.7593 0.42204 0.0
C2983 C 0.23813 0.73794 0.42129 0.0
C2984 C 0.27509 0.7478 0.42342 0.0
C2985 C 0.26923 0.76913 0.42266 0.0
N2986 N 0.24258 0.79483 0.42969 0.0
N2987 N 0.26417 0.71172 0.42773 0.0
C2988 C 0.24793 0.77477 0.42494 0.0
C2989 C 0.25931 0.73216 0.42418 0.0
N2990 N 0.21206 0.765 0.41835 0.0
N2991 N 0.29578 0.74259 0.4229 0.0
H2992 H 0.25276 0.70013 0.42869 0.0
H2993 H 0.27908 0.7065 0.43156 0.0
H2994 H 0.30761 0.75375 0.42402 0.0
H2995 H 0.30124 0.72745 0.42081 0.0
H2996 H 0.20739 0.78038 0.41595 0.0
H2997 H 0.20012 0.75425 0.41612 0.0
H2998 H 0.22738 0.79935 0.43333 0.0
H2999 H 0.25354 0.80651 0.4323 0.0
C3000 C 0.24724 0.23152 0.42323 0.0
C3001 C 0.26857 0.23732 0.42417 0.0
C3002 C 0.25829 0.27399 0.42808 0.0
C3003 C 0.23762 0.26852 0.42237 0.0
N3004 N 0.21219 0.24207 0.41384 0.0
N3005 N 0.29475 0.26355 0.43001 0.0
C3006 C 0.23187 0.24724 0.42025 0.0
C3007 C 0.27416 0.25844 0.42769 0.0
N3008 N 0.24168 0.21104 0.42489 0.0
N3009 N 0.26258 0.29406 0.43383 0.0
H3010 H 0.30643 0.25225 0.43124 0.0
H3011 H 0.30034 0.27879 0.43017 0.0
H3012 H 0.25106 0.30557 0.4344 0.0
H3013 H 0.27693 0.29892 0.43969 0.0
H3014 H 0.22626 0.20599 0.42599 0.0
H3015 H 0.25253 0.1993 0.42766 0.0
H3016 H 0.20781 0.22705 0.4095 0.0
H3017 H 0.20055 0.25311 0.41134 0.0
C3018 C 0.25953 0.27474 0.5847 0.0
C3019 C 0.2383 0.26888 0.58687 0.0
C3020 C 0.2481 0.23213 0.58258 0.0
C3021 C 0.26934 0.23775 0.58549 0.0
N3022 N 0.29596 0.26423 0.58606 0.0
N3023 N 0.2119 0.24195 0.58748 0.0
C3024 C 0.27526 0.25908 0.58525 0.0
C3025 C 0.23237 0.24759 0.58518 0.0
N3026 N 0.26447 0.2953 0.58195 0.0
N3027 N 0.2429 0.21215 0.57737 0.0
H3028 H 0.19976 0.25268 0.58882 0.0
H3029 H 0.20702 0.22658 0.58939 0.0
H3030 H 0.25395 0.20054 0.57479 0.0
H3031 H 0.22784 0.2076 0.57328 0.0
H3032 H 0.27945 0.30068 0.57869 0.0
H3033 H 0.25308 0.30693 0.58112 0.0
H3034 H 0.30147 0.27929 0.58853 0.0
H3035 H 0.30777 0.25308 0.58469 0.0
C3036 C 0.75554 0.26753 0.57541 0.0
C3037 C 0.77278 0.26614 0.58919 0.0
C3038 C 0.76021 0.23237 0.60202 0.0
C3039 C 0.74142 0.23531 0.59065 0.0
N3040 N 0.72064 0.25531 0.5666 0.0
N3041 N 0.79252 0.24728 0.61501 0.0
C3042 C 0.73907 0.25259 0.57701 0.0
C3043 C 0.7756 0.24832 0.602 0.0
N3044 N 0.75495 0.28326 0.56106 0.0
N3045 N 0.76313 0.21438 0.6131 0.0
H3046 H 0.80455 0.25822 0.61472 0.0
H3047 H 0.79439 0.23618 0.62669 0.0
H3048 H 0.7516 0.20302 0.61457 0.0
H3049 H 0.77726 0.21 0.61981 0.0
H3050 H 0.74371 0.28443 0.5494 0.0
H3051 H 0.76685 0.29431 0.55982 0.0
H3052 H 0.71697 0.26856 0.558 0.0
H3053 H 0.70842 0.24458 0.56747 0.0
C3054 C 0.27436 0.74871 0.58169 0.0
C3055 C 0.2684 0.76994 0.58373 0.0
C3056 C 0.23143 0.75993 0.58402 0.0
C3057 C 0.23754 0.73864 0.5843 0.0
N3058 N 0.26351 0.7126 0.57713 0.0
N3059 N 0.24165 0.79607 0.57937 0.0
C3060 C 0.25866 0.733 0.58099 0.0
C3061 C 0.24703 0.77567 0.58226 0.0
N3062 N 0.2951 0.7437 0.58104 0.0
N3063 N 0.21092 0.76515 0.58682 0.0
H3064 H 0.25263 0.8079 0.5777 0.0
H3065 H 0.22647 0.80107 0.5764 0.0
H3066 H 0.19892 0.75418 0.5873 0.0
H3067 H 0.20578 0.78027 0.58976 0.0
H3068 H 0.30085 0.72856 0.582 0.0
H3069 H 0.30676 0.75503 0.57988 0.0
H3070 H 0.27836 0.70736 0.57316 0.0
H3071 H 0.25208 0.70101 0.57623 0.0
C3072 C 0.01624 0.17696 0.33337 0.0
C3073 C 0.02701 0.19475 0.32573 0.0
C3074 C 0.9935 0.21239 0.31924 0.0
C3075 C 0.98266 0.1942 0.32591 0.0
N3076 N 0.9834 0.15833 0.33719 0.0
N3077 N 0.02618 0.22786 0.30792 0.0
C3078 C 0.99397 0.17619 0.33222 0.0
C3079 C 0.01571 0.2121 0.31783 0.0
N3080 N 0.02729 0.16123 0.34265 0.0
N3081 N 0.98257 0.22999 0.31412 0.0
H3082 H 0.04237 0.2282 0.30636 0.0
H3083 H 0.01885 0.23973 0.29962 0.0
H3084 H 0.96634 0.23047 0.31302 0.0
H3085 H 0.98948 0.24453 0.312 0.0
H3086 H 0.02042 0.14887 0.35062 0.0
H3087 H 0.04354 0.16127 0.34377 0.0
H3088 H 0.99061 0.14395 0.33942 0.0
H3089 H 0.96715 0.15753 0.33799 0.0
C3090 C 0.82086 0.99256 0.34297 0.0
C3091 C 0.8142 0.98131 0.32511 0.0
C3092 C 0.80798 0.01433 0.30647 0.0
C3093 C 0.81336 0.02562 0.32479 0.0
N3094 N 0.82367 0.02581 0.36096 0.0
N3095 N 0.79914 0.98106 0.29065 0.0
C3096 C 0.81937 0.0148 0.34321 0.0
C3097 C 0.80734 0.99209 0.30699 0.0
N3098 N 0.82943 0.98196 0.35939 0.0
N3099 N 0.80327 0.02489 0.28854 0.0
H3100 H 0.79863 0.96483 0.29024 0.0
H3101 H 0.79148 0.98784 0.27805 0.0
H3102 H 0.80154 0.04102 0.28795 0.0
H3103 H 0.80202 0.01786 0.27397 0.0
H3104 H 0.83666 0.98911 0.37203 0.0
H3105 H 0.83077 0.96575 0.3597 0.0
H3106 H 0.82555 0.01901 0.37557 0.0
H3107 H 0.82441 0.04205 0.36139 0.0
C3108 C 0.99296 0.82063 0.344 0.0
C3109 C 0.98203 0.81437 0.32579 0.0
C3110 C 0.01537 0.80961 0.30729 0.0
C3111 C 0.02636 0.81433 0.32599 0.0
N3112 N 0.02596 0.82299 0.36258 0.0
N3113 N 0.98249 0.80027 0.29094 0.0
C3114 C 0.01522 0.81939 0.3445 0.0
C3115 C 0.99314 0.80835 0.30758 0.0
N3116 N 0.98204 0.8286 0.36052 0.0
N3117 N 0.02618 0.80611 0.28921 0.0
H3118 H 0.96626 0.79913 0.29041 0.0
H3119 H 0.98965 0.79316 0.27822 0.0
H3120 H 0.04239 0.80499 0.28851 0.0
H3121 H 0.01918 0.80544 0.27458 0.0
H3122 H 0.989 0.83553 0.37345 0.0
H3123 H 0.96579 0.82983 0.36062 0.0
H3124 H 0.01889 0.82415 0.37715 0.0
H3125 H 0.04221 0.82381 0.36327 0.0
C3126 C 0.20011 0.01555 0.3079 0.0
C3127 C 0.19331 0.02654 0.3259 0.0
C3128 C 0.18752 0.99328 0.34421 0.0
C3129 C 0.1935 0.98225 0.32591 0.0
N3130 N 0.20372 0.98257 0.28966 0.0
N3131 N 0.17779 0.02636 0.36006 0.0
C3132 C 0.19912 0.99332 0.30751 0.0
C3133 C 0.18634 0.01552 0.34379 0.0
N3134 N 0.2086 0.02634 0.29155 0.0
N3135 N 0.18298 0.98246 0.36202 0.0
H3136 H 0.17667 0.04259 0.36023 0.0
H3137 H 0.17036 0.0194 0.3727 0.0
H3138 H 0.18204 0.96623 0.36256 0.0
H3139 H 0.1811 0.9894 0.37657 0.0
H3140 H 0.21625 0.01935 0.27905 0.0
H3141 H 0.20937 0.04256 0.29104 0.0
H3142 H 0.20514 0.98952 0.27506 0.0
H3143 H 0.20517 0.96641 0.28911 0.0
C3144 C 0.01576 0.79395 0.68819 0.0
C3145 C 0.02677 0.81209 0.68173 0.0
C3146 C 0.9934 0.82987 0.67471 0.0
C3147 C 0.98245 0.81212 0.68216 0.0
N3148 N 0.98292 0.77871 0.6994 0.0
N3149 N 0.02645 0.84814 0.671 0.0
C3150 C 0.99355 0.79449 0.68972 0.0
C3151 C 0.01568 0.83034 0.67575 0.0
N3152 N 0.02652 0.77615 0.69299 0.0
N3153 N 0.98252 0.84588 0.66571 0.0
H3154 H 0.0427 0.84875 0.67014 0.0
H3155 H 0.01942 0.86264 0.66904 0.0
H3156 H 0.96626 0.84607 0.66467 0.0
H3157 H 0.98951 0.85825 0.65786 0.0
H3158 H 0.01945 0.76167 0.69502 0.0
H3159 H 0.04275 0.77546 0.69389 0.0
H3160 H 0.99012 0.76658 0.70744 0.0
H3161 H 0.96672 0.77855 0.70101 0.0
C3162 C 0.19984 0.01485 0.70005 0.0
C3163 C 0.19341 0.02598 0.68201 0.0
C3164 C 0.18798 0.99289 0.66333 0.0
C3165 C 0.19343 0.98173 0.68171 0.0
N3166 N 0.20245 0.98182 0.7183 0.0
N3167 N 0.17843 0.02605 0.64759 0.0
C3168 C 0.19857 0.99265 0.70033 0.0
C3169 C 0.18675 0.01511 0.66391 0.0
N3170 N 0.20828 0.02546 0.71654 0.0
N3171 N 0.184 0.98221 0.6453 0.0
H3172 H 0.17724 0.04228 0.64753 0.0
H3173 H 0.17121 0.01914 0.6348 0.0
H3174 H 0.18318 0.96599 0.6446 0.0
H3175 H 0.18253 0.9893 0.63078 0.0
H3176 H 0.21567 0.01829 0.72909 0.0
H3177 H 0.20942 0.04166 0.71706 0.0
H3178 H 0.20348 0.98878 0.73293 0.0
H3179 H 0.20352 0.96563 0.71895 0.0
C3180 C 0.99228 0.19915 0.69981 0.0
C3181 C 0.98129 0.19412 0.68119 0.0
C3182 C 0.01472 0.18783 0.66321 0.0
C3183 C 0.02566 0.19436 0.68134 0.0
N3184 N 0.02512 0.20914 0.7159 0.0
N3185 N 0.98174 0.18531 0.64464 0.0
C3186 C 0.01451 0.20063 0.69944 0.0
C3187 C 0.99245 0.18902 0.66271 0.0
N3188 N 0.98149 0.20268 0.71788 0.0
N3189 N 0.02561 0.17959 0.64681 0.0
H3190 H 0.96548 0.18449 0.64394 0.0
H3191 H 0.98883 0.18412 0.63008 0.0
H3192 H 0.04186 0.17836 0.64669 0.0
H3193 H 0.01862 0.17244 0.63403 0.0
H3194 H 0.98853 0.20366 0.73248 0.0
H3195 H 0.96525 0.20348 0.71862 0.0
H3196 H 0.0179 0.21632 0.72855 0.0
H3197 H 0.04133 0.21063 0.71626 0.0
C3198 C 0.80876 0.01435 0.70089 0.0
C3199 C 0.81467 0.0256 0.68272 0.0
C3200 C 0.82198 0.99252 0.66457 0.0
C3201 C 0.81464 0.98133 0.6822 0.0
N3202 N 0.79858 0.98124 0.71622 0.0
N3203 N 0.82556 0.02576 0.64672 0.0
C3204 C 0.80756 0.99215 0.7002 0.0
C3205 C 0.82083 0.01476 0.66438 0.0
N3206 N 0.8041 0.02491 0.71882 0.0
N3207 N 0.8309 0.98188 0.64836 0.0
H3208 H 0.82652 0.04199 0.64635 0.0
H3209 H 0.82756 0.01894 0.63213 0.0
H3210 H 0.83203 0.96565 0.64801 0.0
H3211 H 0.83863 0.98901 0.636 0.0
H3212 H 0.80237 0.0178 0.7333 0.0
H3213 H 0.80304 0.04109 0.71952 0.0
H3214 H 0.79083 0.98817 0.72868 0.0
H3215 H 0.79743 0.96504 0.7164 0.0
C3216 C 0.3204 0.99277 0.21332 0.0
C3217 C 0.32657 0.98161 0.19517 0.0
C3218 C 0.33411 0.01482 0.1773 0.0
C3219 C 0.32687 0.02592 0.19505 0.0
N3220 N 0.30964 0.0257 0.2285 0.0
N3221 N 0.33726 0.98172 0.1591 0.0
C3222 C 0.3192 0.01495 0.21272 0.0
C3223 C 0.33271 0.99258 0.17688 0.0
N3224 N 0.31553 0.98216 0.23119 0.0
N3225 N 0.34325 0.02551 0.16126 0.0
H3226 H 0.3379 0.96548 0.15853 0.0
H3227 H 0.3393 0.98868 0.14458 0.0
H3228 H 0.34457 0.04172 0.16105 0.0
H3229 H 0.35094 0.01839 0.14887 0.0
H3230 H 0.3138 0.9893 0.24566 0.0
H3231 H 0.31429 0.96598 0.23194 0.0
H3232 H 0.30147 0.01862 0.24061 0.0
H3233 H 0.30822 0.04188 0.22866 0.0
C3234 C 0.99419 0.33207 0.17597 0.0
C3235 C 0.98336 0.32546 0.19419 0.0
C3236 C 0.01689 0.31732 0.21114 0.0
C3237 C 0.02773 0.3255 0.19361 0.0
N3238 N 0.02711 0.34268 0.16024 0.0
N3239 N 0.9842 0.31299 0.22973 0.0
C3240 C 0.01648 0.33326 0.17618 0.0
C3241 C 0.99468 0.31854 0.21198 0.0
N3242 N 0.98314 0.33731 0.15849 0.0
N3243 N 0.0278 0.30735 0.22655 0.0
H3244 H 0.96801 0.31161 0.23053 0.0
H3245 H 0.99145 0.31072 0.24408 0.0
H3246 H 0.04401 0.30599 0.22654 0.0
H3247 H 0.02084 0.29884 0.23849 0.0
H3248 H 0.98995 0.33978 0.14396 0.0
H3249 H 0.96688 0.33812 0.15814 0.0
H3250 H 0.01993 0.35075 0.14813 0.0
H3251 H 0.04336 0.34378 0.15986 0.0
C3252 C 0.69056 0.99313 0.21167 0.0
C3253 C 0.68346 0.98217 0.19372 0.0
C3254 C 0.67611 0.01555 0.17618 0.0
C3255 C 0.68402 0.02642 0.19378 0.0
N3256 N 0.70221 0.02592 0.22665 0.0
N3257 N 0.67179 0.98259 0.15797 0.0
C3258 C 0.69211 0.0153 0.21113 0.0
C3259 C 0.67705 0.9933 0.17565 0.0
N3260 N 0.69591 0.98235 0.22929 0.0
N3261 N 0.66682 0.02648 0.16039 0.0
H3262 H 0.67088 0.96637 0.15735 0.0
H3263 H 0.66945 0.98964 0.14354 0.0
H3264 H 0.66597 0.04273 0.16018 0.0
H3265 H 0.65862 0.01957 0.1482 0.0
H3266 H 0.69846 0.98938 0.2437 0.0
H3267 H 0.69678 0.96615 0.22992 0.0
H3268 H 0.71061 0.01874 0.23854 0.0
H3269 H 0.70378 0.04211 0.22675 0.0
C3270 C 0.01659 0.66376 0.18816 0.0
C3271 C 0.02755 0.6816 0.19538 0.0
C3272 C 0.99421 0.69974 0.2015 0.0
C3273 C 0.98321 0.68141 0.19553 0.0
N3274 N 0.98359 0.64538 0.18471 0.0
N3275 N 0.02721 0.71556 0.21151 0.0
C3276 C 0.99433 0.66321 0.1894 0.0
C3277 C 0.01647 0.69939 0.20259 0.0
N3278 N 0.02748 0.64772 0.17923 0.0
N3279 N 0.98339 0.71751 0.20628 0.0
H3280 H 0.04345 0.71596 0.21255 0.0
H3281 H 0.02014 0.7279 0.21932 0.0
H3282 H 0.96717 0.71806 0.20752 0.0
H3283 H 0.99033 0.73208 0.208 0.0
H3284 H 0.0205 0.63524 0.17155 0.0
H3285 H 0.04373 0.64761 0.17803 0.0
H3286 H 0.99064 0.6309 0.18273 0.0
H3287 H 0.96734 0.64474 0.1838 0.0
C3288 C 0.33285 0.99125 0.83057 0.0
C3289 C 0.32674 0.98028 0.81229 0.0
C3290 C 0.31841 0.01353 0.79503 0.0
C3291 C 0.32606 0.02453 0.81268 0.0
N3292 N 0.34295 0.02428 0.84623 0.0
N3293 N 0.31528 0.98078 0.7764 0.0
C3294 C 0.33379 0.0135 0.83026 0.0
C3295 C 0.3201 0.99139 0.79428 0.0
N3296 N 0.33782 0.98039 0.84824 0.0
N3297 N 0.30844 0.02419 0.77945 0.0
H3298 H 0.3145 0.96457 0.77556 0.0
H3299 H 0.31314 0.98797 0.76201 0.0
H3300 H 0.30664 0.04034 0.77947 0.0
H3301 H 0.30032 0.01703 0.76735 0.0
H3302 H 0.33987 0.98732 0.86277 0.0
H3303 H 0.33879 0.96416 0.84871 0.0
H3304 H 0.35098 0.01723 0.85845 0.0
H3305 H 0.34395 0.04051 0.84652 0.0
C3306 C 0.01464 0.30739 0.80812 0.0
C3307 C 0.02575 0.32553 0.81435 0.0
C3308 C 0.99256 0.34427 0.81929 0.0
C3309 C 0.98142 0.32581 0.81405 0.0
N3310 N 0.98158 0.28909 0.80562 0.0
N3311 N 0.0257 0.36014 0.82888 0.0
C3312 C 0.9924 0.30712 0.80927 0.0
C3313 C 0.01481 0.34372 0.82069 0.0
N3314 N 0.0253 0.2908 0.79993 0.0
N3315 N 0.98184 0.36236 0.82291 0.0
H3316 H 0.04193 0.3602 0.83024 0.0
H3317 H 0.01871 0.37302 0.83586 0.0
H3318 H 0.96558 0.36308 0.82359 0.0
H3319 H 0.98894 0.3769 0.82421 0.0
H3320 H 0.01815 0.27816 0.79269 0.0
H3321 H 0.04153 0.29027 0.79885 0.0
H3322 H 0.98856 0.27445 0.80486 0.0
H3323 H 0.96536 0.28841 0.80449 0.0
C3324 C 0.67469 0.01518 0.82923 0.0
C3325 C 0.68201 0.02607 0.81139 0.0
C3326 C 0.6881 0.99273 0.79336 0.0
C3327 C 0.68184 0.98177 0.81161 0.0
N3328 N 0.67113 0.98225 0.84767 0.0
N3329 N 0.69885 0.02556 0.77779 0.0
C3330 C 0.67582 0.99293 0.82981 0.0
C3331 C 0.68945 0.01493 0.79375 0.0
N3332 N 0.66576 0.02609 0.84525 0.0
N3333 N 0.69292 0.98192 0.7756 0.0
H3334 H 0.70022 0.04175 0.77749 0.0
H3335 H 0.70684 0.01838 0.76561 0.0
H3336 H 0.69401 0.96572 0.77502 0.0
H3337 H 0.6948 0.9889 0.76107 0.0
H3338 H 0.65801 0.01916 0.85771 0.0
H3339 H 0.66468 0.04232 0.84537 0.0
H3340 H 0.66919 0.98933 0.86214 0.0
H3341 H 0.67026 0.96603 0.84836 0.0
C3342 C 0.99211 0.68804 0.79354 0.0
C3343 C 0.98128 0.68052 0.81138 0.0
C3344 C 0.01479 0.67387 0.8291 0.0
C3345 C 0.02559 0.6811 0.81113 0.0
N3346 N 0.02513 0.69355 0.77565 0.0
N3347 N 0.98162 0.66781 0.84672 0.0
C3348 C 0.01439 0.68771 0.79316 0.0
C3349 C 0.99246 0.67391 0.82936 0.0
N3350 N 0.98106 0.69677 0.77747 0.0
N3351 N 0.02599 0.66592 0.84547 0.0
H3352 H 0.96541 0.6663 0.84701 0.0
H3353 H 0.98838 0.66494 0.86118 0.0
H3354 H 0.04227 0.66548 0.84573 0.0
H3355 H 0.01944 0.65864 0.85839 0.0
H3356 H 0.98779 0.70471 0.76504 0.0
H3357 H 0.9648 0.69748 0.77716 0.0
H3358 H 0.01824 0.69589 0.76115 0.0
H3359 H 0.04132 0.69517 0.77522 0.0
C3360 C 0.20195 0.30608 0.01378 0.0
C3361 C 0.19496 0.32394 0.02485 0.0
C3362 C 0.18905 0.3424 0.9917 0.0
C3363 C 0.19511 0.3242 0.98058 0.0
N3364 N 0.20531 0.28792 0.98075 0.0
N3365 N 0.17882 0.35784 0.0248 0.0
C3366 C 0.20081 0.30576 0.99156 0.0
C3367 C 0.18775 0.3418 0.01392 0.0
N3368 N 0.21079 0.28984 0.02446 0.0
N3369 N 0.18456 0.3603 0.98101 0.0
H3370 H 0.17748 0.35785 0.04101 0.0
H3371 H 0.17121 0.37037 0.01783 0.0
H3372 H 0.1838 0.361 0.96478 0.0
H3373 H 0.18263 0.37478 0.98809 0.0
H3374 H 0.21853 0.27747 0.01736 0.0
H3375 H 0.21183 0.28939 0.04068 0.0
H3376 H 0.20683 0.27334 0.9877 0.0
H3377 H 0.20645 0.28733 0.96455 0.0
C3378 C 0.18731 0.66267 0.9917 0.0
C3379 C 0.19468 0.68049 0.9808 0.0
C3380 C 0.20038 0.69869 0.01411 0.0
C3381 C 0.19441 0.68033 0.02506 0.0
N3382 N 0.1839 0.64422 0.02462 0.0
N3383 N 0.21123 0.71425 0.98134 0.0
C3384 C 0.18846 0.66211 0.01393 0.0
C3385 C 0.20187 0.69824 0.99193 0.0
N3386 N 0.17836 0.64666 0.9808 0.0
N3387 N 0.20477 0.71656 0.02489 0.0
H3388 H 0.21282 0.71443 0.96517 0.0
H3389 H 0.219 0.72655 0.98853 0.0
H3390 H 0.20551 0.71728 0.0411 0.0
H3391 H 0.20652 0.73109 0.01786 0.0
H3392 H 0.1706 0.63421 0.98775 0.0
H3393 H 0.17723 0.64656 0.96457 0.0
H3394 H 0.182 0.62974 0.01753 0.0
H3395 H 0.18309 0.64355 0.04085 0.0
C3396 C 0.33184 0.17383 0.01378 0.0
C3397 C 0.32538 0.19193 0.02489 0.0
C3398 C 0.31684 0.20926 0.99168 0.0
C3399 C 0.32517 0.19201 0.98058 0.0
N3400 N 0.34197 0.15844 0.98057 0.0
N3401 N 0.31247 0.22733 0.02459 0.0
C3402 C 0.33284 0.17433 0.9915 0.0
C3403 C 0.31814 0.20978 0.01386 0.0
N3404 N 0.33713 0.1562 0.02455 0.0
N3405 N 0.30678 0.22476 0.98099 0.0
H3406 H 0.31119 0.2279 0.04077 0.0
H3407 H 0.30994 0.24175 0.01757 0.0
H3408 H 0.30536 0.22487 0.96481 0.0
H3409 H 0.29824 0.2366 0.98809 0.0
H3410 H 0.33961 0.14177 0.01755 0.0
H3411 H 0.33795 0.15562 0.04077 0.0
H3412 H 0.35002 0.14616 0.98747 0.0
H3413 H 0.34266 0.15816 0.96432 0.0
C3414 C 0.80885 0.30682 0.99324 0.0
C3415 C 0.81508 0.32518 0.98245 0.0
C3416 C 0.82192 0.34261 0.016 0.0
C3417 C 0.81418 0.32483 0.02671 0.0
N3418 N 0.79732 0.29127 0.02579 0.0
N3419 N 0.82593 0.36118 0.98321 0.0
C3420 C 0.807 0.3072 0.0154 0.0
C3421 C 0.82108 0.34328 0.99376 0.0
N3422 N 0.80453 0.28901 0.98231 0.0
N3423 N 0.83086 0.35849 0.02709 0.0
H3424 H 0.82696 0.36192 0.967 0.0
H3425 H 0.82788 0.3756 0.99039 0.0
H3426 H 0.83174 0.35851 0.04334 0.0
H3427 H 0.83887 0.37087 0.0203 0.0
H3428 H 0.80251 0.27449 0.98927 0.0
H3429 H 0.80421 0.28834 0.96608 0.0
H3430 H 0.78959 0.27903 0.01843 0.0
H3431 H 0.7954 0.29114 0.04192 0.0
C3432 C 0.67708 0.82983 0.01536 0.0
C3433 C 0.68429 0.81183 0.02614 0.0
C3434 C 0.69159 0.79441 0.99267 0.0
C3435 C 0.68407 0.81227 0.98188 0.0
N3436 N 0.67164 0.84772 0.9823 0.0
N3437 N 0.69718 0.7765 0.02563 0.0
C3438 C 0.67743 0.83022 0.99307 0.0
C3439 C 0.69117 0.79397 0.01492 0.0
N3440 N 0.66882 0.84606 0.0265 0.0
N3441 N 0.70033 0.77838 0.98158 0.0
H3442 H 0.69872 0.77607 0.0418 0.0
H3443 H 0.69982 0.76206 0.01875 0.0
H3444 H 0.70109 0.77817 0.96535 0.0
H3445 H 0.70821 0.76587 0.98824 0.0
H3446 H 0.66139 0.85887 0.01991 0.0
H3447 H 0.66818 0.84626 0.04275 0.0
H3448 H 0.66886 0.86215 0.98914 0.0
H3449 H 0.67045 0.84816 0.96609 0.0
C3450 C 0.83115 0.67487 0.01541 0.0
C3451 C 0.81344 0.68223 0.02659 0.0
C3452 C 0.79623 0.69145 0.99351 0.0
C3453 C 0.81321 0.6826 0.98235 0.0
N3454 N 0.84581 0.66389 0.98219 0.0
N3455 N 0.77848 0.6963 0.02661 0.0
C3456 C 0.83048 0.67389 0.99318 0.0
C3457 C 0.79576 0.69009 0.01571 0.0
N3458 N 0.84863 0.66884 0.02608 0.0
N3459 N 0.78101 0.70201 0.98289 0.0
H3460 H 0.77799 0.69704 0.04284 0.0
H3461 H 0.76417 0.69968 0.0197 0.0
H3462 H 0.78077 0.70326 0.96668 0.0
H3463 H 0.76948 0.71093 0.99005 0.0
H3464 H 0.86291 0.6657 0.01898 0.0
H3465 H 0.84931 0.66809 0.04231 0.0
H3466 H 0.85765 0.65515 0.98907 0.0
H3467 H 0.84593 0.66304 0.96595 0.0
C3468 C 0.31829 0.79381 0.01509 0.0
C3469 C 0.32451 0.81208 0.02604 0.0
C3470 C 0.33165 0.82975 0.99269 0.0
C3471 C 0.32449 0.81184 0.98181 0.0
N3472 N 0.30768 0.77822 0.98225 0.0
N3473 N 0.33496 0.84822 0.02561 0.0
C3474 C 0.31701 0.7942 0.9929 0.0
C3475 C 0.33044 0.83033 0.01492 0.0
N3476 N 0.31353 0.77604 0.02591 0.0
N3477 N 0.34051 0.84582 0.98179 0.0
H3478 H 0.33568 0.84893 0.04184 0.0
H3479 H 0.33687 0.8627 0.01853 0.0
H3480 H 0.34161 0.84595 0.96556 0.0
H3481 H 0.34817 0.85833 0.98873 0.0
H3482 H 0.31165 0.76151 0.01893 0.0
H3483 H 0.31246 0.77546 0.04211 0.0
H3484 H 0.29969 0.76603 0.9894 0.0
H3485 H 0.30638 0.77793 0.96605 0.0
C3486 C 0.678 0.17678 0.99188 0.0
C3487 C 0.68564 0.19443 0.9809 0.0
C3488 C 0.69291 0.21224 0.01409 0.0
C3489 C 0.6859 0.19432 0.02512 0.0
N3490 N 0.67416 0.15857 0.0249 0.0
N3491 N 0.70363 0.22744 0.98108 0.0
C3492 C 0.67929 0.17624 0.01411 0.0
C3493 C 0.69391 0.21179 0.99188 0.0
N3494 N 0.66859 0.16096 0.98108 0.0
N3495 N 0.69863 0.22975 0.02487 0.0
H3496 H 0.7047 0.22767 0.96487 0.0
H3497 H 0.71211 0.23938 0.98808 0.0
H3498 H 0.69996 0.2302 0.04106 0.0
H3499 H 0.70117 0.24419 0.01791 0.0
H3500 H 0.66056 0.14872 0.98809 0.0
H3501 H 0.66747 0.16077 0.96485 0.0
H3502 H 0.67166 0.14415 0.0179 0.0
H3503 H 0.67355 0.15793 0.04113 0.0
C3504 C 0.49376 0.6883 0.84535 0.0
C3505 C 0.4826 0.69344 0.82688 0.0
C3506 C 0.51577 0.69867 0.80808 0.0
C3507 C 0.52695 0.69398 0.82666 0.0
N3508 N 0.52727 0.68163 0.8621 0.0
N3509 N 0.48251 0.70612 0.79146 0.0
C3510 C 0.5161 0.68821 0.84513 0.0
C3511 C 0.49349 0.69903 0.80836 0.0
N3512 N 0.48289 0.6837 0.86314 0.0
N3513 N 0.52651 0.70275 0.79007 0.0
H3514 H 0.46626 0.70664 0.7909 0.0
H3515 H 0.48928 0.71289 0.77837 0.0
H3516 H 0.54267 0.70448 0.78946 0.0
H3517 H 0.51964 0.70343 0.77538 0.0
H3518 H 0.48962 0.68201 0.87779 0.0
H3519 H 0.46667 0.68221 0.86349 0.0
H3520 H 0.5207 0.67549 0.87559 0.0
H3521 H 0.54355 0.68106 0.86233 0.0
C3522 C 0.32098 0.51531 0.84396 0.0
C3523 C 0.31606 0.52639 0.82539 0.0
C3524 C 0.30943 0.49322 0.80724 0.0
C3525 C 0.31532 0.48214 0.8255 0.0
N3526 N 0.32973 0.48215 0.86017 0.0
N3527 N 0.30782 0.52611 0.78863 0.0
C3528 C 0.32185 0.49307 0.84361 0.0
C3529 C 0.31112 0.51539 0.80678 0.0
N3530 N 0.3248 0.52608 0.86197 0.0
N3531 N 0.30107 0.48262 0.7907 0.0
H3532 H 0.30714 0.54232 0.78779 0.0
H3533 H 0.30695 0.51903 0.77405 0.0
H3534 H 0.29955 0.46644 0.79035 0.0
H3535 H 0.29408 0.48981 0.77794 0.0
H3536 H 0.32586 0.5191 0.87658 0.0
H3537 H 0.32592 0.5423 0.86254 0.0
H3538 H 0.33686 0.48908 0.873 0.0
H3539 H 0.33065 0.46591 0.86041 0.0
C3540 C 0.51714 0.29726 0.81773 0.0
C3541 C 0.52844 0.31499 0.82487 0.0
C3542 C 0.49534 0.33313 0.83228 0.0
C3543 C 0.48415 0.3157 0.82444 0.0
N3544 N 0.48406 0.2828 0.80627 0.0
N3545 N 0.5287 0.35069 0.83671 0.0
C3546 C 0.49497 0.29817 0.81631 0.0
C3547 C 0.51764 0.33325 0.83135 0.0
N3548 N 0.52761 0.27949 0.8122 0.0
N3549 N 0.48465 0.34913 0.84151 0.0
H3550 H 0.54495 0.35098 0.83766 0.0
H3551 H 0.52193 0.36524 0.83914 0.0
H3552 H 0.46839 0.34962 0.84231 0.0
H3553 H 0.49176 0.36124 0.84964 0.0
H3554 H 0.52034 0.26518 0.80978 0.0
H3555 H 0.54381 0.27863 0.81096 0.0
H3556 H 0.49101 0.27082 0.79781 0.0
H3557 H 0.46785 0.28289 0.80481 0.0
C3558 C 0.68784 0.49299 0.84266 0.0
C3559 C 0.69568 0.48238 0.82487 0.0
C3560 C 0.70042 0.51593 0.80682 0.0
C3561 C 0.69418 0.52663 0.82523 0.0
N3562 N 0.68353 0.5257 0.86128 0.0
N3563 N 0.71234 0.48355 0.7912 0.0
C3564 C 0.68841 0.51524 0.84335 0.0
C3565 C 0.70259 0.4938 0.80719 0.0
N3566 N 0.67904 0.48178 0.85854 0.0
N3567 N 0.70445 0.52692 0.78899 0.0
H3568 H 0.71449 0.46744 0.79104 0.0
H3569 H 0.7199 0.49103 0.77894 0.0
H3570 H 0.70449 0.54315 0.7883 0.0
H3571 H 0.7065 0.51998 0.77445 0.0
H3572 H 0.67098 0.48849 0.87094 0.0
H3573 H 0.67831 0.46553 0.85855 0.0
H3574 H 0.68176 0.51848 0.87571 0.0
H3575 H 0.68232 0.54191 0.86203 0.0
C3576 C 0.49296 0.30661 0.20002 0.0
C3577 C 0.4822 0.31335 0.1818 0.0
C3578 C 0.5158 0.32172 0.16507 0.0
C3579 C 0.52653 0.31355 0.18264 0.0
N3580 N 0.52578 0.2959 0.21579 0.0
N3581 N 0.48305 0.32589 0.14637 0.0
C3582 C 0.51523 0.30554 0.19993 0.0
C3583 C 0.49355 0.32043 0.16412 0.0
N3584 N 0.48188 0.30108 0.2174 0.0
N3585 N 0.5269 0.33145 0.14965 0.0
H3586 H 0.4668 0.32656 0.1455 0.0
H3587 H 0.49032 0.3287 0.13213 0.0
H3588 H 0.54314 0.33269 0.14986 0.0
H3589 H 0.52008 0.33974 0.13747 0.0
H3590 H 0.48863 0.2986 0.23196 0.0
H3591 H 0.46565 0.30001 0.21767 0.0
H3592 H 0.51856 0.28757 0.2277 0.0
H3593 H 0.54202 0.29488 0.2163 0.0
C3594 C 0.70014 0.49285 0.19885 0.0
C3595 C 0.69406 0.48171 0.18069 0.0
C3596 C 0.68901 0.51482 0.1619 0.0
C3597 C 0.694 0.52598 0.1804 0.0
N3598 N 0.70233 0.52587 0.21715 0.0
N3599 N 0.67983 0.48164 0.14595 0.0
C3600 C 0.69882 0.51505 0.1991 0.0
C3601 C 0.6878 0.49258 0.16245 0.0
N3602 N 0.7083 0.48225 0.21549 0.0
N3603 N 0.68544 0.52548 0.14378 0.0
H3604 H 0.67864 0.46542 0.14586 0.0
H3605 H 0.67288 0.48856 0.13302 0.0
H3606 H 0.68465 0.54171 0.14305 0.0
H3607 H 0.68431 0.51839 0.12923 0.0
H3608 H 0.71543 0.48944 0.22817 0.0
H3609 H 0.7095 0.46606 0.21601 0.0
H3610 H 0.70308 0.51891 0.23179 0.0
H3611 H 0.70337 0.54207 0.21783 0.0
C3612 C 0.5156 0.67686 0.17396 0.0
C3613 C 0.52661 0.69474 0.18113 0.0
C3614 C 0.49336 0.71238 0.18892 0.0
C3615 C 0.48229 0.69461 0.18155 0.0
N3616 N 0.4822 0.6607 0.16543 0.0
N3617 N 0.52649 0.72792 0.19881 0.0
C3618 C 0.49325 0.67692 0.17387 0.0
C3619 C 0.51562 0.71215 0.18934 0.0
N3620 N 0.52662 0.65981 0.16733 0.0
N3621 N 0.48254 0.72962 0.1954 0.0
H3622 H 0.54274 0.72835 0.19962 0.0
H3623 H 0.51963 0.73989 0.20734 0.0
H3624 H 0.46638 0.72986 0.1973 0.0
H3625 H 0.48934 0.74411 0.19806 0.0
H3626 H 0.52001 0.64542 0.16386 0.0
H3627 H 0.54285 0.65971 0.16597 0.0
H3628 H 0.48887 0.648 0.15788 0.0
H3629 H 0.46593 0.66033 0.16495 0.0
C3630 C 0.30594 0.49331 0.20067 0.0
C3631 C 0.3146 0.48194 0.18378 0.0
C3632 C 0.3227 0.51477 0.16564 0.0
C3633 C 0.31521 0.52614 0.18312 0.0
N3634 N 0.30213 0.52648 0.21845 0.0
N3635 N 0.33387 0.48139 0.15154 0.0
C3636 C 0.30769 0.51546 0.20105 0.0
C3637 C 0.32368 0.49256 0.16659 0.0
N3638 N 0.29502 0.48299 0.21581 0.0
N3639 N 0.32876 0.52523 0.14806 0.0
H3640 H 0.3348 0.46515 0.15172 0.0
H3641 H 0.34277 0.48813 0.13975 0.0
H3642 H 0.32944 0.54146 0.14721 0.0
H3643 H 0.332 0.51795 0.13392 0.0
H3644 H 0.2863 0.4904 0.22734 0.0
H3645 H 0.29315 0.46685 0.21584 0.0
H3646 H 0.29896 0.51958 0.23279 0.0
H3647 H 0.30199 0.54271 0.21905 0.0
C3648 C 0.81721 0.51516 0.71145 0.0
C3649 C 0.82505 0.52635 0.69401 0.0
C3650 C 0.83152 0.49328 0.67561 0.0
C3651 C 0.82534 0.4821 0.69374 0.0
N3652 N 0.8136 0.48212 0.72952 0.0
N3653 N 0.84188 0.52645 0.66042 0.0
C3654 C 0.81866 0.49299 0.71186 0.0
C3655 C 0.83265 0.51552 0.67625 0.0
N3656 N 0.80735 0.5257 0.72719 0.0
N3657 N 0.83638 0.48264 0.65778 0.0
H3658 H 0.843 0.54268 0.66036 0.0
H3659 H 0.84983 0.51953 0.64808 0.0
H3660 H 0.83711 0.46641 0.65704 0.0
H3661 H 0.83852 0.48976 0.64335 0.0
H3662 H 0.79913 0.51845 0.73917 0.0
H3663 H 0.80579 0.54187 0.72743 0.0
H3664 H 0.81138 0.48908 0.74401 0.0
H3665 H 0.81267 0.46591 0.73006 0.0
C3666 C 0.51578 0.84356 0.68571 0.0
C3667 C 0.52689 0.8252 0.69133 0.0
C3668 C 0.4937 0.80651 0.69671 0.0
C3669 C 0.48257 0.82504 0.69169 0.0
N3670 N 0.48229 0.86029 0.6788 0.0
N3671 N 0.52691 0.79004 0.70471 0.0
C3672 C 0.49344 0.84339 0.68562 0.0
C3673 C 0.51598 0.8068 0.69722 0.0
N3674 N 0.52672 0.8612 0.68067 0.0
N3675 N 0.48294 0.78856 0.70098 0.0
H3676 H 0.54316 0.78949 0.70532 0.0
H3677 H 0.52008 0.77711 0.71172 0.0
H3678 H 0.46676 0.78796 0.70256 0.0
H3679 H 0.48982 0.7739 0.70193 0.0
H3680 H 0.52005 0.87581 0.67845 0.0
H3681 H 0.54294 0.86146 0.67922 0.0
H3682 H 0.48886 0.87375 0.67261 0.0
H3683 H 0.46601 0.86051 0.67819 0.0
C3684 C 0.1899 0.51484 0.71252 0.0
C3685 C 0.18214 0.52586 0.69493 0.0
C3686 C 0.1756 0.49256 0.67692 0.0
C3687 C 0.1818 0.48156 0.69516 0.0
N3688 N 0.19343 0.48202 0.73098 0.0
N3689 N 0.1654 0.52561 0.66131 0.0
C3690 C 0.18842 0.49267 0.71318 0.0
C3691 C 0.17455 0.51482 0.67729 0.0
N3692 N 0.19975 0.52552 0.72816 0.0
N3693 N 0.17066 0.48173 0.65923 0.0
H3694 H 0.16436 0.54184 0.66106 0.0
H3695 H 0.15745 0.51858 0.64904 0.0
H3696 H 0.16976 0.4655 0.65871 0.0
H3697 H 0.16854 0.48868 0.64472 0.0
H3698 H 0.20796 0.51838 0.74021 0.0
H3699 H 0.20135 0.54169 0.72824 0.0
H3700 H 0.19552 0.48916 0.74541 0.0
H3701 H 0.19447 0.46583 0.73173 0.0
C3702 C 0.49242 0.20037 0.70127 0.0
C3703 C 0.48112 0.18202 0.69595 0.0
C3704 C 0.5142 0.16343 0.68936 0.0
C3705 C 0.52549 0.18175 0.69473 0.0
N3706 N 0.52592 0.21683 0.70827 0.0
N3707 N 0.48064 0.14712 0.6821 0.0
C3708 C 0.51473 0.2001 0.70109 0.0
C3709 C 0.49187 0.16375 0.68941 0.0
N3710 N 0.48174 0.21813 0.70644 0.0
N3711 N 0.52492 0.14564 0.68444 0.0
H3712 H 0.46435 0.14688 0.68167 0.0
H3713 H 0.4872 0.13405 0.67509 0.0
H3714 H 0.54112 0.1452 0.68281 0.0
H3715 H 0.51804 0.13103 0.68282 0.0
H3716 H 0.48855 0.23278 0.70782 0.0
H3717 H 0.46561 0.21856 0.70859 0.0
H3718 H 0.51937 0.22986 0.71537 0.0
H3719 H 0.54217 0.21733 0.70841 0.0
C3720 C 0.83282 0.49173 0.33056 0.0
C3721 C 0.82516 0.4808 0.31287 0.0
C3722 C 0.81829 0.51411 0.29506 0.0
C3723 C 0.8252 0.52513 0.31307 0.0
N3724 N 0.83688 0.52472 0.34882 0.0
N3725 N 0.80733 0.48122 0.2798 0.0
C3726 C 0.8317 0.514 0.33113 0.0
C3727 C 0.81711 0.4919 0.29549 0.0
N3728 N 0.84205 0.48082 0.3464 0.0
N3729 N 0.81275 0.52487 0.27749 0.0
H3730 H 0.80611 0.46502 0.27951 0.0
H3731 H 0.7989 0.48833 0.26788 0.0
H3732 H 0.81132 0.54105 0.27698 0.0
H3733 H 0.81049 0.5179 0.26301 0.0
H3734 H 0.85005 0.48774 0.35871 0.0
H3735 H 0.84303 0.46459 0.34655 0.0
H3736 H 0.8393 0.51769 0.36324 0.0
H3737 H 0.8377 0.54095 0.34945 0.0
C3738 C 0.51476 0.83296 0.33031 0.0
C3739 C 0.52569 0.8263 0.31218 0.0
C3740 C 0.49226 0.81822 0.295 0.0
C3741 C 0.48133 0.82642 0.31245 0.0
N3742 N 0.48177 0.84367 0.34579 0.0
N3743 N 0.52506 0.81382 0.27663 0.0
C3744 C 0.49248 0.8342 0.32995 0.0
C3745 C 0.51447 0.8194 0.29432 0.0
N3746 N 0.5257 0.83819 0.34786 0.0
N3747 N 0.48143 0.80826 0.27953 0.0
H3748 H 0.54125 0.8124 0.27594 0.0
H3749 H 0.5179 0.81157 0.26224 0.0
H3750 H 0.46521 0.80696 0.27941 0.0
H3751 H 0.48846 0.79971 0.26765 0.0
H3752 H 0.5188 0.8407 0.36233 0.0
H3753 H 0.54196 0.83892 0.34833 0.0
H3754 H 0.48888 0.85173 0.35795 0.0
H3755 H 0.46552 0.84484 0.34604 0.0
C3756 C 0.17574 0.49202 0.33013 0.0
C3757 C 0.18223 0.48107 0.31196 0.0
C3758 C 0.19009 0.51442 0.29462 0.0
C3759 C 0.18212 0.52537 0.31217 0.0
N3760 N 0.16499 0.52495 0.34559 0.0
N3761 N 0.19405 0.48161 0.27621 0.0
C3762 C 0.17444 0.51426 0.32973 0.0
C3763 C 0.18884 0.49223 0.29397 0.0
N3764 N 0.17074 0.48115 0.34779 0.0
N3765 N 0.19995 0.52518 0.27904 0.0
H3766 H 0.19518 0.46541 0.27549 0.0
H3767 H 0.19619 0.48875 0.26179 0.0
H3768 H 0.20138 0.54137 0.27894 0.0
H3769 H 0.20829 0.51811 0.26704 0.0
H3770 H 0.16842 0.48809 0.36227 0.0
H3771 H 0.17 0.46491 0.34832 0.0
H3772 H 0.15698 0.51783 0.35779 0.0
H3773 H 0.16373 0.54117 0.34581 0.0
C3774 C 0.51558 0.20213 0.30622 0.0
C3775 C 0.52676 0.18402 0.31244 0.0
C3776 C 0.49358 0.16626 0.32038 0.0
C3777 C 0.48244 0.18382 0.31278 0.0
N3778 N 0.48244 0.21746 0.29598 0.0
N3779 N 0.52675 0.14819 0.32388 0.0
C3780 C 0.49333 0.20158 0.3052 0.0
C3781 C 0.51584 0.16586 0.319 0.0
N3782 N 0.52626 0.21986 0.30109 0.0
N3783 N 0.4829 0.15034 0.32976 0.0
H3784 H 0.54302 0.14767 0.32454 0.0
H3785 H 0.51982 0.1337 0.32623 0.0
H3786 H 0.46666 0.15016 0.33111 0.0
H3787 H 0.49004 0.1381 0.33766 0.0
H3788 H 0.51924 0.23436 0.29906 0.0
H3789 H 0.54247 0.22038 0.29991 0.0
H3790 H 0.4894 0.22973 0.28795 0.0
H3791 H 0.4662 0.2177 0.29492 0.0
C3792 C 0.69988 0.8076 0.4917 0.0
C3793 C 0.69438 0.82599 0.48057 0.0
C3794 C 0.68737 0.84405 0.51378 0.0
C3795 C 0.69413 0.82611 0.52486 0.0
N3796 N 0.70926 0.79168 0.52476 0.0
N3797 N 0.68426 0.86222 0.48066 0.0
C3798 C 0.70086 0.80805 0.51392 0.0
C3799 C 0.6886 0.84439 0.49153 0.0
N3800 N 0.70437 0.78968 0.48102 0.0
N3801 N 0.67893 0.86042 0.52455 0.0
H3802 H 0.68338 0.86273 0.46443 0.0
H3803 H 0.68251 0.8768 0.48756 0.0
H3804 H 0.67777 0.86065 0.54078 0.0
H3805 H 0.67163 0.8731 0.51754 0.0
H3806 H 0.70564 0.77509 0.48802 0.0
H3807 H 0.70587 0.78905 0.46486 0.0
H3808 H 0.71684 0.77913 0.51782 0.0
H3809 H 0.71005 0.79123 0.54098 0.0
C3810 C 0.68616 0.1649 0.4933 0.0
C3811 C 0.69262 0.18276 0.48188 0.0
C3812 C 0.70046 0.20105 0.51472 0.0
C3813 C 0.69296 0.18361 0.52612 0.0
N3814 N 0.67569 0.15027 0.52668 0.0
N3815 N 0.70356 0.21882 0.48145 0.0
C3816 C 0.68503 0.16586 0.51551 0.0
C3817 C 0.6989 0.20119 0.49253 0.0
N3818 N 0.68118 0.14696 0.4829 0.0
N3819 N 0.71017 0.217 0.52505 0.0
H3820 H 0.70408 0.21929 0.46522 0.0
H3821 H 0.70567 0.2334 0.48827 0.0
H3822 H 0.71177 0.21735 0.54121 0.0
H3823 H 0.71815 0.22905 0.51765 0.0
H3824 H 0.67886 0.13266 0.49023 0.0
H3825 H 0.68044 0.14603 0.46668 0.0
H3826 H 0.66759 0.13792 0.51993 0.0
H3827 H 0.67453 0.1505 0.54291 0.0
C3828 C 0.81909 0.71288 0.51469 0.0
C3829 C 0.82657 0.69523 0.52578 0.0
C3830 C 0.83203 0.6766 0.49262 0.0
C3831 C 0.82603 0.69483 0.48149 0.0
N3832 N 0.81527 0.73093 0.48167 0.0
N3833 N 0.84249 0.66121 0.52568 0.0
C3834 C 0.82009 0.71317 0.49247 0.0
C3835 C 0.83353 0.67726 0.51484 0.0
N3836 N 0.80996 0.72895 0.52536 0.0
N3837 N 0.83635 0.65866 0.48194 0.0
H3838 H 0.84388 0.66117 0.54189 0.0
H3839 H 0.84999 0.64863 0.51868 0.0
H3840 H 0.83689 0.65789 0.46571 0.0
H3841 H 0.83829 0.6442 0.48905 0.0
H3842 H 0.80193 0.74114 0.51825 0.0
H3843 H 0.80883 0.72935 0.54157 0.0
H3844 H 0.81368 0.74551 0.48861 0.0
H3845 H 0.81387 0.73145 0.46549 0.0
C3846 C 0.30882 0.80709 0.49246 0.0
C3847 C 0.31409 0.82561 0.48144 0.0
C3848 C 0.32083 0.84355 0.51474 0.0
C3849 C 0.31408 0.82554 0.5257 0.0
N3850 N 0.29883 0.79115 0.52531 0.0
N3851 N 0.32358 0.862 0.48176 0.0
C3852 C 0.30749 0.8075 0.51465 0.0
C3853 C 0.31958 0.84403 0.49251 0.0
N3854 N 0.3049 0.78907 0.48172 0.0
N3855 N 0.32931 0.85986 0.52557 0.0
H3856 H 0.32436 0.86265 0.46553 0.0
H3857 H 0.32508 0.87655 0.48879 0.0
H3858 H 0.33055 0.86 0.54179 0.0
H3859 H 0.33661 0.87256 0.51856 0.0
H3860 H 0.30376 0.77449 0.48877 0.0
H3861 H 0.30394 0.78833 0.46552 0.0
H3862 H 0.29136 0.77863 0.51817 0.0
H3863 H 0.29755 0.79077 0.5415 0.0
C3864 C 0.17572 0.33094 0.49327 0.0
C3865 C 0.18247 0.31294 0.48224 0.0
C3866 C 0.18986 0.29503 0.5154 0.0
C3867 C 0.18278 0.31291 0.52647 0.0
N3868 N 0.1669 0.34695 0.52656 0.0
N3869 N 0.199 0.27916 0.4822 0.0
C3870 C 0.17538 0.33073 0.51556 0.0
C3871 C 0.19017 0.29524 0.49316 0.0
N3872 N 0.16981 0.34831 0.48236 0.0
N3873 N 0.19618 0.27774 0.52622 0.0
H3874 H 0.19965 0.27874 0.46597 0.0
H3875 H 0.20704 0.2668 0.48894 0.0
H3876 H 0.19809 0.27752 0.54235 0.0
H3877 H 0.19881 0.26322 0.51948 0.0
H3878 H 0.167 0.36279 0.48908 0.0
H3879 H 0.16859 0.3486 0.46614 0.0
H3880 H 0.15928 0.35959 0.51983 0.0
H3881 H 0.16625 0.34727 0.5428 0.0
C3882 C 0.32064 0.16347 0.51531 0.0
C3883 C 0.31449 0.1817 0.52634 0.0
C3884 C 0.30822 0.19998 0.49312 0.0
C3885 C 0.31418 0.18168 0.48206 0.0
N3886 N 0.32872 0.14706 0.48201 0.0
N3887 N 0.29984 0.21634 0.52627 0.0
C3888 C 0.32094 0.16362 0.49301 0.0
C3889 C 0.30784 0.1998 0.51537 0.0
N3890 N 0.32598 0.14594 0.52625 0.0
N3891 N 0.30299 0.21761 0.48228 0.0
H3892 H 0.2993 0.21691 0.54249 0.0
H3893 H 0.2924 0.22904 0.51947 0.0
H3894 H 0.30125 0.21799 0.46613 0.0
H3895 H 0.30124 0.23226 0.48902 0.0
H3896 H 0.32833 0.13136 0.51956 0.0
H3897 H 0.32732 0.14568 0.54245 0.0
H3898 H 0.33577 0.13409 0.48872 0.0
H3899 H 0.32939 0.14674 0.46577 0.0
C3900 C 0.81839 0.29408 0.49184 0.0
C3901 C 0.82628 0.3116 0.48077 0.0
C3902 C 0.83263 0.32977 0.51401 0.0
C3903 C 0.82621 0.31164 0.52508 0.0
N3904 N 0.81446 0.27587 0.52478 0.0
N3905 N 0.84322 0.34512 0.48096 0.0
C3906 C 0.81965 0.29357 0.51404 0.0
C3907 C 0.83388 0.32926 0.49176 0.0
N3908 N 0.80863 0.27837 0.48117 0.0
N3909 N 0.83758 0.34751 0.52477 0.0
H3910 H 0.84442 0.34526 0.46474 0.0
H3911 H 0.85118 0.35739 0.48799 0.0
H3912 H 0.83837 0.34812 0.541 0.0
H3913 H 0.83983 0.36197 0.51774 0.0
H3914 H 0.80035 0.26637 0.4883 0.0
H3915 H 0.80722 0.27817 0.46499 0.0
H3916 H 0.81233 0.2614 0.51774 0.0
H3917 H 0.81333 0.27526 0.54098 0.0
C3918 C 0.17518 0.67554 0.51439 0.0
C3919 C 0.18168 0.69359 0.52553 0.0
C3920 C 0.19007 0.71111 0.49236 0.0
C3921 C 0.1821 0.6937 0.48123 0.0
N3922 N 0.16502 0.66026 0.48117 0.0
N3923 N 0.19416 0.72917 0.52531 0.0
C3924 C 0.17425 0.67608 0.49212 0.0
C3925 C 0.18869 0.71158 0.51454 0.0
N3926 N 0.16983 0.65789 0.5251 0.0
N3927 N 0.2 0.72675 0.48174 0.0
H3928 H 0.19547 0.72973 0.54148 0.0
H3929 H 0.19647 0.74364 0.51831 0.0
H3930 H 0.20137 0.72701 0.46555 0.0
H3931 H 0.20839 0.73866 0.48889 0.0
H3932 H 0.16744 0.64346 0.51807 0.0
H3933 H 0.16884 0.6573 0.54132 0.0
H3934 H 0.1569 0.648 0.48805 0.0
H3935 H 0.16415 0.6601 0.46493 0.0
C3936 C 0.13452 0.11869 0.31984 0.0
C3937 C 0.15212 0.12076 0.33313 0.0
C3938 C 0.13675 0.15253 0.34834 0.0
C3939 C 0.12067 0.15202 0.33307 0.0
N3940 N 0.10375 0.13452 0.30439 0.0
N3941 N 0.17072 0.13989 0.35952 0.0
C3942 C 0.11939 0.135 0.31891 0.0
C3943 C 0.15327 0.13759 0.34749 0.0
N3944 N 0.13197 0.10073 0.3086 0.0
N3945 N 0.13631 0.1674 0.36358 0.0
H3946 H 0.18273 0.12898 0.35963 0.0
H3947 H 0.17395 0.15308 0.36841 0.0
H3948 H 0.12483 0.17883 0.3643 0.0
H3949 H 0.14625 0.16749 0.37642 0.0
H3950 H 0.11857 0.09717 0.30015 0.0
H3951 H 0.14258 0.0884 0.30919 0.0
H3952 H 0.10345 0.1243 0.29179 0.0
H3953 H 0.09126 0.14497 0.30445 0.0
C3954 C 0.8888 0.13363 0.31519 0.0
C3955 C 0.88923 0.14925 0.33095 0.0
C3956 C 0.85891 0.13274 0.3481 0.0
C3957 C 0.85788 0.11791 0.33167 0.0
N3958 N 0.87477 0.10057 0.30302 0.0
N3959 N 0.87722 0.16173 0.3644 0.0
C3960 C 0.87369 0.11734 0.31619 0.0
C3961 C 0.87521 0.14804 0.34817 0.0
N3962 N 0.90294 0.13436 0.2992 0.0
N3963 N 0.84366 0.13287 0.36303 0.0
H3964 H 0.88762 0.17421 0.36434 0.0
H3965 H 0.86929 0.16036 0.37848 0.0
H3966 H 0.83178 0.12179 0.36368 0.0
H3967 H 0.84198 0.14442 0.37428 0.0
H3968 H 0.90167 0.12556 0.28563 0.0
H3969 H 0.91586 0.14427 0.29918 0.0
H3970 H 0.88694 0.09796 0.2926 0.0
H3971 H 0.86439 0.08805 0.30383 0.0
C3972 C 0.8718 0.85531 0.34738 0.0
C3973 C 0.88784 0.85576 0.33206 0.0
C3974 C 0.87408 0.88913 0.31885 0.0
C3975 C 0.85657 0.88721 0.33229 0.0
N3976 N 0.83801 0.86823 0.35882 0.0
N3977 N 0.90463 0.87308 0.30318 0.0
C3978 C 0.85539 0.87039 0.34665 0.0
C3979 C 0.8891 0.87273 0.31783 0.0
N3980 N 0.87215 0.84035 0.36255 0.0
N3981 N 0.87668 0.90707 0.30758 0.0
H3982 H 0.91703 0.86254 0.30312 0.0
H3983 H 0.90487 0.88328 0.29056 0.0
H3984 H 0.86617 0.91949 0.30826 0.0
H3985 H 0.89004 0.91054 0.29903 0.0
H3986 H 0.8623 0.84033 0.37546 0.0
H3987 H 0.8834 0.82868 0.36307 0.0
H3988 H 0.83472 0.85505 0.36771 0.0
H3989 H 0.82612 0.87927 0.35908 0.0
C3990 C 0.13574 0.85673 0.34816 0.0
C3991 C 0.11985 0.85636 0.3327 0.0
C3992 C 0.13409 0.88846 0.31724 0.0
C3993 C 0.15015 0.88872 0.33256 0.0
N3994 N 0.16329 0.87609 0.3655 0.0
N3995 N 0.10065 0.87453 0.30603 0.0
C3996 C 0.14992 0.8739 0.34905 0.0
C3997 C 0.1181 0.87303 0.31825 0.0
N3998 N 0.13812 0.84004 0.36117 0.0
N3999 N 0.13415 0.903 0.30163 0.0
H4000 H 0.0884 0.86382 0.30676 0.0
H4001 H 0.09728 0.88731 0.29661 0.0
H4002 H 0.14413 0.91585 0.30152 0.0
H4003 H 0.12482 0.90198 0.28837 0.0
H4004 H 0.15091 0.838 0.37098 0.0
H4005 H 0.12796 0.82737 0.36107 0.0
H4006 H 0.16226 0.86724 0.37907 0.0
H4007 H 0.1746 0.88773 0.36631 0.0
C4008 C 0.13507 0.8895 0.68989 0.0
C4009 C 0.15178 0.88789 0.67544 0.0
C4010 C 0.13493 0.85719 0.65961 0.0
C4011 C 0.11993 0.85706 0.67596 0.0
N4012 N 0.10534 0.87312 0.70672 0.0
N4013 N 0.16857 0.86955 0.64731 0.0
C4014 C 0.11989 0.87327 0.69109 0.0
C4015 C 0.15179 0.87175 0.66027 0.0
N4016 N 0.1333 0.90701 0.70195 0.0
N4017 N 0.13322 0.84331 0.64353 0.0
H4018 H 0.18096 0.88004 0.64721 0.0
H4019 H 0.17098 0.85665 0.63774 0.0
H4020 H 0.12193 0.83163 0.643 0.0
H4021 H 0.14214 0.84418 0.62999 0.0
H4022 H 0.12045 0.91026 0.71134 0.0
H4023 H 0.14385 0.91939 0.70112 0.0
H4024 H 0.10616 0.88264 0.71984 0.0
H4025 H 0.09274 0.86282 0.70704 0.0
C4026 C 0.13529 0.11963 0.69232 0.0
C4027 C 0.15014 0.1188 0.6758 0.0
C4028 C 0.1331 0.14898 0.65912 0.0
C4029 C 0.11886 0.15027 0.67606 0.0
N4030 N 0.10257 0.13358 0.70549 0.0
N4031 N 0.1595 0.129 0.64074 0.0
C4032 C 0.11889 0.13465 0.69175 0.0
C4033 C 0.14779 0.13221 0.65826 0.0
N4034 N 0.13673 0.10585 0.70853 0.0
N4035 N 0.1334 0.16441 0.64441 0.0
H4036 H 0.17082 0.11745 0.63954 0.0
H4037 H 0.15685 0.13665 0.62667 0.0
H4038 H 0.12291 0.17683 0.64434 0.0
H4039 H 0.14499 0.16588 0.63312 0.0
H4040 H 0.12869 0.10755 0.72253 0.0
H4041 H 0.14641 0.09277 0.70821 0.0
H4042 H 0.10041 0.12147 0.71607 0.0
H4043 H 0.08992 0.14383 0.70504 0.0
C4044 C 0.87277 0.15018 0.65809 0.0
C4045 C 0.88821 0.15104 0.67398 0.0
C4046 C 0.87388 0.11904 0.6896 0.0
C4047 C 0.85815 0.11841 0.67396 0.0
N4048 N 0.84609 0.13002 0.64027 0.0
N4049 N 0.90701 0.13335 0.70127 0.0
C4050 C 0.85881 0.13282 0.65714 0.0
C4051 C 0.88979 0.13457 0.68869 0.0
N4052 N 0.87056 0.16658 0.64469 0.0
N4053 N 0.87358 0.10476 0.70544 0.0
H4054 H 0.91923 0.1441 0.70057 0.0
H4055 H 0.91025 0.12073 0.71094 0.0
H4056 H 0.86369 0.09182 0.70551 0.0
H4057 H 0.88259 0.10607 0.71889 0.0
H4058 H 0.85803 0.16825 0.63448 0.0
H4059 H 0.88055 0.17937 0.64485 0.0
H4060 H 0.84741 0.13865 0.62658 0.0
H4061 H 0.83524 0.11797 0.63924 0.0
C4062 C 0.88923 0.87203 0.692 0.0
C4063 C 0.88955 0.85671 0.67593 0.0
C4064 C 0.85891 0.87335 0.65954 0.0
C4065 C 0.85802 0.88791 0.67623 0.0
N4066 N 0.87528 0.90481 0.70496 0.0
N4067 N 0.87753 0.84522 0.64217 0.0
C4068 C 0.87403 0.88827 0.69153 0.0
C4069 C 0.87539 0.85827 0.65888 0.0
N4070 N 0.90359 0.87108 0.70777 0.0
N4071 N 0.84341 0.87328 0.64486 0.0
H4072 H 0.88867 0.83347 0.64148 0.0
H4073 H 0.86931 0.84679 0.62828 0.0
H4074 H 0.83127 0.88409 0.64468 0.0
H4075 H 0.84167 0.86186 0.63348 0.0
H4076 H 0.90242 0.87955 0.72156 0.0
H4077 H 0.91663 0.86134 0.70734 0.0
H4078 H 0.88761 0.90728 0.71522 0.0
H4079 H 0.86485 0.91731 0.70458 0.0
C4080 C 0.31906 0.13313 0.11871 0.0
C4081 C 0.33326 0.15017 0.11955 0.0
C4082 C 0.34772 0.1365 0.15244 0.0
C4083 C 0.33345 0.11956 0.15164 0.0
N4084 N 0.30896 0.09905 0.13191 0.0
N4085 N 0.36379 0.16596 0.13482 0.0
C4086 C 0.32011 0.11711 0.13412 0.0
C4087 C 0.34855 0.15108 0.13559 0.0
N4088 N 0.30439 0.13236 0.10322 0.0
N4089 N 0.35969 0.13931 0.16985 0.0
H4090 H 0.36447 0.17715 0.12311 0.0
H4091 H 0.37664 0.16629 0.14474 0.0
H4092 H 0.35976 0.12874 0.18215 0.0
H4093 H 0.36851 0.15263 0.17276 0.0
H4094 H 0.2918 0.1221 0.10323 0.0
H4095 H 0.30429 0.14263 0.09061 0.0
H4096 H 0.3005 0.0952 0.1186 0.0
H4097 H 0.30964 0.08689 0.14271 0.0
C4098 C 0.89005 0.31569 0.13514 0.0
C4099 C 0.8901 0.33161 0.15062 0.0
C4100 C 0.85952 0.34798 0.13384 0.0
C4101 C 0.85888 0.33142 0.11912 0.0
N4102 N 0.87638 0.30289 0.10217 0.0
N4103 N 0.8777 0.36514 0.16238 0.0
C4104 C 0.87498 0.31623 0.11878 0.0
C4105 C 0.87583 0.34858 0.14909 0.0
N4106 N 0.90451 0.30002 0.13608 0.0
N4107 N 0.84391 0.36254 0.13389 0.0
H4108 H 0.88869 0.36573 0.17428 0.0
H4109 H 0.8694 0.37899 0.1609 0.0
H4110 H 0.83191 0.36275 0.12293 0.0
H4111 H 0.842 0.37383 0.14537 0.0
H4112 H 0.90356 0.28632 0.12742 0.0
H4113 H 0.91741 0.30041 0.146 0.0
H4114 H 0.88875 0.29267 0.09971 0.0
H4115 H 0.866 0.30331 0.08963 0.0
C4116 C 0.66017 0.87513 0.14767 0.0
C4117 C 0.67744 0.88902 0.14942 0.0
C4118 C 0.69307 0.87343 0.11794 0.0
C4119 C 0.67759 0.85759 0.1182 0.0
N4120 N 0.64618 0.84309 0.13296 0.0
N4121 N 0.7097 0.90257 0.1354 0.0
C4122 C 0.66083 0.8586 0.1327 0.0
C4123 C 0.69367 0.88851 0.13425 0.0
N4124 N 0.64324 0.87755 0.16043 0.0
N4125 N 0.70661 0.87457 0.10147 0.0
H4126 H 0.70945 0.91551 0.14525 0.0
H4127 H 0.72355 0.90121 0.12701 0.0
H4128 H 0.70613 0.86421 0.08893 0.0
H4129 H 0.71703 0.88679 0.09908 0.0
H4130 H 0.62916 0.86971 0.15837 0.0
H4131 H 0.64263 0.88836 0.17251 0.0
H4132 H 0.63491 0.84141 0.14452 0.0
H4133 H 0.64599 0.83088 0.12224 0.0
C4134 C 0.13594 0.69083 0.11877 0.0
C4135 C 0.15096 0.67447 0.11831 0.0
C4136 C 0.13472 0.65883 0.14948 0.0
C4137 C 0.12026 0.67562 0.15032 0.0
N4138 N 0.1034 0.70428 0.1329 0.0
N4139 N 0.16131 0.64018 0.12994 0.0
C4140 C 0.11984 0.6907 0.13413 0.0
C4141 C 0.1492 0.65752 0.13254 0.0
N4142 N 0.13699 0.70653 0.10436 0.0
N4143 N 0.13538 0.6447 0.16544 0.0
H4144 H 0.1722 0.6387 0.11803 0.0
H4145 H 0.15933 0.62645 0.13835 0.0
H4146 H 0.12503 0.64497 0.17798 0.0
H4147 H 0.14706 0.63355 0.16717 0.0
H4148 H 0.12878 0.72048 0.10561 0.0
H4149 H 0.14658 0.70586 0.09123 0.0
H4150 H 0.10088 0.71436 0.12044 0.0
H4151 H 0.09101 0.70418 0.14346 0.0
C4152 C 0.31592 0.8886 0.87302 0.0
C4153 C 0.33151 0.88779 0.85732 0.0
C4154 C 0.34805 0.85806 0.87526 0.0
C4155 C 0.33073 0.85705 0.88916 0.0
N4156 N 0.29854 0.87176 0.9021 0.0
N4157 N 0.36272 0.87223 0.84325 0.0
C4158 C 0.31481 0.87249 0.88828 0.0
C4159 C 0.34791 0.87291 0.85861 0.0
N4160 N 0.30277 0.9054 0.87388 0.0
N4161 N 0.36446 0.84465 0.87775 0.0
H4162 H 0.36329 0.88288 0.831 0.0
H4163 H 0.37379 0.86045 0.84177 0.0
H4164 H 0.36453 0.83252 0.88854 0.0
H4165 H 0.37861 0.84607 0.8699 0.0
H4166 H 0.29234 0.90817 0.88602 0.0
H4167 H 0.30362 0.91782 0.86339 0.0
H4168 H 0.28491 0.88045 0.90047 0.0
H4169 H 0.29831 0.86189 0.91501 0.0
C4170 C 0.13577 0.31525 0.88789 0.0
C4171 C 0.15185 0.33046 0.88729 0.0
C4172 C 0.13422 0.3478 0.8578 0.0
C4173 C 0.11989 0.33085 0.85653 0.0
N4174 N 0.10602 0.29899 0.87105 0.0
N4175 N 0.16641 0.36175 0.87242 0.0
C4176 C 0.12039 0.31477 0.87183 0.0
C4177 C 0.15086 0.34712 0.87269 0.0
N4178 N 0.1346 0.30192 0.90452 0.0
N4179 N 0.13209 0.3644 0.84461 0.0
H4180 H 0.17866 0.36192 0.88312 0.0
H4181 H 0.16808 0.37311 0.86098 0.0
H4182 H 0.12093 0.365 0.83286 0.0
H4183 H 0.1404 0.37827 0.84598 0.0
H4184 H 0.12221 0.29176 0.90717 0.0
H4185 H 0.14511 0.30234 0.91694 0.0
H4186 H 0.10733 0.2852 0.8795 0.0
H4187 H 0.0929 0.29937 0.86143 0.0
C4188 C 0.66032 0.14858 0.87439 0.0
C4189 C 0.67754 0.14967 0.88838 0.0
C4190 C 0.69199 0.11754 0.87308 0.0
C4191 C 0.6766 0.11828 0.85719 0.0
N4192 N 0.64581 0.13406 0.84246 0.0
N4193 N 0.70933 0.13471 0.90198 0.0
C4194 C 0.66041 0.13343 0.858 0.0
C4195 C 0.69321 0.13394 0.88801 0.0
N4196 N 0.64402 0.16218 0.87656 0.0
N4197 N 0.70488 0.10057 0.87438 0.0
H4198 H 0.7096 0.14489 0.91466 0.0
H4199 H 0.72281 0.12573 0.90073 0.0
H4200 H 0.70394 0.08798 0.86411 0.0
H4201 H 0.71515 0.09788 0.88666 0.0
H4202 H 0.62995 0.16083 0.86857 0.0
H4203 H 0.64395 0.17436 0.8873 0.0
H4204 H 0.63494 0.14598 0.84066 0.0
H4205 H 0.64522 0.12318 0.83041 0.0
C4206 C 0.87432 0.65858 0.85905 0.0
C4207 C 0.88938 0.67483 0.85794 0.0
C4208 C 0.87448 0.69101 0.88936 0.0
C4209 C 0.85888 0.67523 0.89009 0.0
N4210 N 0.84658 0.64157 0.87855 0.0
N4211 N 0.90746 0.70299 0.87495 0.0
C4212 C 0.85977 0.65813 0.87598 0.0
C4213 C 0.8905 0.69004 0.87397 0.0
N4214 N 0.87314 0.64428 0.84329 0.0
N4215 N 0.87395 0.70704 0.90343 0.0
H4216 H 0.91979 0.70223 0.86432 0.0
H4217 H 0.91044 0.71311 0.88728 0.0
H4218 H 0.86408 0.70714 0.91638 0.0
H4219 H 0.88279 0.72058 0.90199 0.0
H4220 H 0.86107 0.63352 0.84171 0.0
H4221 H 0.88358 0.64394 0.83083 0.0
H4222 H 0.84799 0.62759 0.87043 0.0
H4223 H 0.83485 0.64114 0.88979 0.0
C4224 C 0.15118 0.34885 0.13231 0.0
C4225 C 0.15217 0.33193 0.11803 0.0
C4226 C 0.12015 0.31731 0.13357 0.0
C4227 C 0.12126 0.33223 0.14988 0.0
N4228 N 0.13859 0.3616 0.16565 0.0
N4229 N 0.13714 0.30022 0.1044 0.0
C4230 C 0.13677 0.34807 0.14931 0.0
C4231 C 0.13647 0.31623 0.11847 0.0
N4232 N 0.16403 0.36566 0.12975 0.0
N4233 N 0.10298 0.30469 0.13206 0.0
H4234 H 0.14733 0.29999 0.09171 0.0
H4235 H 0.12812 0.28676 0.10568 0.0
H4236 H 0.09048 0.30551 0.14246 0.0
H4237 H 0.10008 0.29486 0.11948 0.0
H4238 H 0.16246 0.37945 0.13819 0.0
H4239 H 0.17536 0.36652 0.11813 0.0
H4240 H 0.15112 0.37177 0.16757 0.0
H4241 H 0.12826 0.3616 0.17817 0.0
C4242 C 0.14859 0.65916 0.87343 0.0
C4243 C 0.14944 0.6755 0.88838 0.0
C4244 C 0.11845 0.69184 0.8727 0.0
C4245 C 0.11801 0.676 0.85717 0.0
N4246 N 0.13021 0.64267 0.84461 0.0
N4247 N 0.13238 0.70405 0.90576 0.0
C4248 C 0.13218 0.65892 0.85827 0.0
C4249 C 0.13355 0.6909 0.88899 0.0
N4250 N 0.16411 0.64452 0.87301 0.0
N4251 N 0.10437 0.70786 0.87186 0.0
H4252 H 0.14279 0.70335 0.91826 0.0
H4253 H 0.1201 0.71434 0.9084 0.0
H4254 H 0.09156 0.70794 0.86181 0.0
H4255 H 0.10564 0.72145 0.88063 0.0
H4256 H 0.16587 0.63343 0.86131 0.0
H4257 H 0.1762 0.64405 0.88387 0.0
H4258 H 0.13828 0.62866 0.84595 0.0
H4259 H 0.11964 0.64258 0.83228 0.0
C4260 C 0.34518 0.15286 0.86744 0.0
C4261 C 0.33427 0.15068 0.88657 0.0
C4262 C 0.32225 0.11591 0.8755 0.0
C4263 C 0.33363 0.11805 0.85657 0.0
N4264 N 0.35969 0.13638 0.8367 0.0
N4265 N 0.31556 0.12875 0.91061 0.0
C4266 C 0.34638 0.1358 0.85332 0.0
C4267 C 0.3238 0.13171 0.89117 0.0
N4268 N 0.35351 0.17168 0.86226 0.0
N4269 N 0.30965 0.09892 0.8783 0.0
H4270 H 0.31632 0.14007 0.92228 0.0
H4271 H 0.30947 0.11462 0.91577 0.0
H4272 H 0.30915 0.08653 0.86777 0.0
H4273 H 0.29903 0.09748 0.89049 0.0
H4274 H 0.35932 0.17531 0.84753 0.0
H4275 H 0.35302 0.18416 0.8725 0.0
H4276 H 0.37088 0.14796 0.83449 0.0
H4277 H 0.36087 0.12415 0.82613 0.0
C4278 C 0.87436 0.35032 0.85839 0.0
C4279 C 0.88846 0.3333 0.85643 0.0
C4280 C 0.87322 0.31696 0.88765 0.0
C4281 C 0.85808 0.33317 0.88881 0.0
N4282 N 0.84698 0.36756 0.87826 0.0
N4283 N 0.90569 0.30422 0.87275 0.0
C4284 C 0.85963 0.35067 0.87521 0.0
C4285 C 0.88911 0.31768 0.8721 0.0
N4286 N 0.87447 0.36572 0.84366 0.0
N4287 N 0.87246 0.3008 0.90157 0.0
H4288 H 0.91811 0.30498 0.86224 0.0
H4289 H 0.90837 0.29367 0.88478 0.0
H4290 H 0.86309 0.30099 0.91487 0.0
H4291 H 0.88072 0.28694 0.89974 0.0
H4292 H 0.86313 0.37727 0.84243 0.0
H4293 H 0.88557 0.36656 0.83183 0.0
H4294 H 0.84857 0.38167 0.87043 0.0
H4295 H 0.83559 0.36815 0.88978 0.0
C4296 C 0.66083 0.8743 0.85869 0.0
C4297 C 0.67716 0.88928 0.85752 0.0
C4298 C 0.69383 0.8739 0.88848 0.0
C4299 C 0.67795 0.8584 0.88928 0.0
N4300 N 0.64436 0.84585 0.87764 0.0
N4301 N 0.70583 0.9069 0.8742 0.0
C4302 C 0.6607 0.85938 0.87529 0.0
C4303 C 0.69271 0.89007 0.87326 0.0
N4304 N 0.6461 0.8736 0.84327 0.0
N4305 N 0.71007 0.87316 0.90231 0.0
H4306 H 0.70499 0.91933 0.86373 0.0
H4307 H 0.71621 0.90966 0.88637 0.0
H4308 H 0.71033 0.8632 0.91517 0.0
H4309 H 0.72367 0.88192 0.90076 0.0
H4310 H 0.63508 0.86178 0.84171 0.0
H4311 H 0.64553 0.88429 0.83105 0.0
H4312 H 0.63025 0.84719 0.86972 0.0
H4313 H 0.64431 0.8337 0.88841 0.0
C4314 C 0.87558 0.6903 0.11838 0.0
C4315 C 0.8598 0.67478 0.11855 0.0
C4316 C 0.87683 0.65788 0.14864 0.0
C4317 C 0.89073 0.67514 0.15027 0.0
N4318 N 0.90451 0.70716 0.13605 0.0
N4319 N 0.84561 0.64304 0.13279 0.0
C4320 C 0.89046 0.69112 0.13487 0.0
C4321 C 0.86074 0.65809 0.13313 0.0
N4322 N 0.87686 0.70369 0.1018 0.0
N4323 N 0.87873 0.64151 0.16218 0.0
H4324 H 0.83378 0.64257 0.12165 0.0
H4325 H 0.84395 0.63146 0.14401 0.0
H4326 H 0.8891 0.64143 0.17469 0.0
H4327 H 0.8708 0.62744 0.16066 0.0
H4328 H 0.88904 0.71417 0.09949 0.0
H4329 H 0.86666 0.70301 0.08913 0.0
H4330 H 0.90331 0.72085 0.12742 0.0
H4331 H 0.91724 0.70711 0.14618 0.0
C4332 C 0.3469 0.85853 0.1331 0.0
C4333 C 0.32976 0.85721 0.11904 0.0
C4334 C 0.3146 0.88892 0.13458 0.0
C4335 C 0.33007 0.88848 0.15041 0.0
N4336 N 0.361 0.87298 0.16522 0.0
N4337 N 0.29752 0.87147 0.1057 0.0
C4338 C 0.34648 0.87355 0.14959 0.0
C4339 C 0.3137 0.87254 0.11959 0.0
N4340 N 0.36346 0.84524 0.13093 0.0
N4341 N 0.30139 0.90565 0.13329 0.0
H4342 H 0.29741 0.86138 0.09295 0.0
H4343 H 0.28381 0.88008 0.10713 0.0
H4344 H 0.30207 0.91825 0.14356 0.0
H4345 H 0.29109 0.90815 0.121 0.0
H4346 H 0.37752 0.84691 0.13889 0.0
H4347 H 0.36376 0.83301 0.12025 0.0
H4348 H 0.37198 0.86117 0.16701 0.0
H4349 H 0.36132 0.88368 0.17743 0.0
C4350 C 0.6579 0.147 0.1301 0.0
C4351 C 0.67545 0.14888 0.11664 0.0
C4352 C 0.69155 0.11806 0.13293 0.0
C4353 C 0.67531 0.11771 0.14806 0.0
N4354 N 0.64239 0.13078 0.16076 0.0
N4355 N 0.70571 0.13305 0.10105 0.0
C4356 C 0.65802 0.13156 0.14626 0.0
C4357 C 0.69138 0.13347 0.1169 0.0
N4358 N 0.64118 0.15998 0.12743 0.0
N4359 N 0.70727 0.10363 0.13408 0.0
H4360 H 0.70534 0.14347 0.08856 0.0
H4361 H 0.71697 0.12154 0.09911 0.0
H4362 H 0.70667 0.09073 0.14397 0.0
H4363 H 0.72108 0.1044 0.12559 0.0
H4364 H 0.62702 0.15846 0.1352 0.0
H4365 H 0.64087 0.17188 0.11639 0.0
H4366 H 0.63033 0.14157 0.16189 0.0
H4367 H 0.64177 0.11965 0.17256 0.0
C4368 C 0.61951 0.63579 0.81847 0.0
C4369 C 0.62095 0.65252 0.83289 0.0
C4370 C 0.65072 0.63506 0.84984 0.0
C4371 C 0.65141 0.62024 0.83337 0.0
N4372 N 0.63588 0.60574 0.8023 0.0
N4373 N 0.63876 0.669 0.86155 0.0
C4374 C 0.63558 0.62039 0.8178 0.0
C4375 C 0.6366 0.65225 0.84858 0.0
N4376 N 0.60228 0.63418 0.80594 0.0
N4377 N 0.66348 0.63273 0.86673 0.0
H4378 H 0.62869 0.68172 0.86113 0.0
H4379 H 0.65138 0.67106 0.87159 0.0
H4380 H 0.67381 0.62033 0.86827 0.0
H4381 H 0.66236 0.64182 0.88014 0.0
H4382 H 0.59913 0.62136 0.79651 0.0
H4383 H 0.58999 0.64484 0.8064 0.0
H4384 H 0.62684 0.60671 0.78885 0.0
H4385 H 0.64576 0.5928 0.80254 0.0
C4386 C 0.35608 0.63692 0.84806 0.0
C4387 C 0.35709 0.6207 0.833 0.0
C4388 C 0.39059 0.63471 0.82028 0.0
C4389 C 0.38811 0.65238 0.83337 0.0
N4390 N 0.3682 0.67108 0.85911 0.0
N4391 N 0.37527 0.60376 0.80474 0.0
C4392 C 0.37093 0.65355 0.84734 0.0
C4393 C 0.37441 0.61946 0.81916 0.0
N4394 N 0.34084 0.63653 0.86295 0.0
N4395 N 0.40883 0.6322 0.80944 0.0
H4396 H 0.36485 0.59125 0.80464 0.0
H4397 H 0.38576 0.60347 0.79235 0.0
H4398 H 0.42109 0.6429 0.81016 0.0
H4399 H 0.41268 0.61876 0.8012 0.0
H4400 H 0.34036 0.64661 0.87566 0.0
H4401 H 0.32942 0.62501 0.8635 0.0
H4402 H 0.35479 0.67427 0.8677 0.0
H4403 H 0.37901 0.68318 0.85929 0.0
C4404 C 0.38975 0.37455 0.81545 0.0
C4405 C 0.39105 0.35971 0.83189 0.0
C4406 C 0.35955 0.37476 0.84789 0.0
C4407 C 0.35807 0.38937 0.83132 0.0
N4408 N 0.37481 0.40692 0.80262 0.0
N4409 N 0.38107 0.35025 0.86696 0.0
C4410 C 0.37408 0.39034 0.81603 0.0
C4411 C 0.37726 0.36133 0.84919 0.0
N4412 N 0.40363 0.37365 0.79927 0.0
N4413 N 0.34347 0.37283 0.86175 0.0
H4414 H 0.39389 0.34046 0.86873 0.0
H4415 H 0.37273 0.35239 0.88075 0.0
H4416 H 0.33031 0.38234 0.86129 0.0
H4417 H 0.34236 0.36076 0.87256 0.0
H4418 H 0.40175 0.38184 0.78538 0.0
H4419 H 0.41688 0.36419 0.79948 0.0
H4420 H 0.38714 0.40974 0.79242 0.0
H4421 H 0.36403 0.41911 0.80306 0.0
C4422 C 0.62044 0.37336 0.81674 0.0
C4423 C 0.62215 0.35682 0.83134 0.0
C4424 C 0.65211 0.37453 0.84768 0.0
C4425 C 0.65235 0.38926 0.83111 0.0
N4426 N 0.63657 0.40316 0.7999 0.0
N4427 N 0.64038 0.3407 0.85995 0.0
C4428 C 0.63641 0.38881 0.81567 0.0
C4429 C 0.63799 0.35732 0.84684 0.0
N4430 N 0.60304 0.37473 0.80441 0.0
N4431 N 0.66544 0.37684 0.86415 0.0
H4432 H 0.6303 0.32797 0.85983 0.0
H4433 H 0.65315 0.33876 0.86982 0.0
H4434 H 0.67675 0.38849 0.86492 0.0
H4435 H 0.66438 0.36807 0.87778 0.0
H4436 H 0.59971 0.38744 0.79489 0.0
H4437 H 0.59081 0.364 0.80516 0.0
H4438 H 0.62732 0.40199 0.7866 0.0
H4439 H 0.64661 0.41597 0.79967 0.0
C4440 C 0.64887 0.37491 0.15688 0.0
C4441 C 0.65058 0.38881 0.17415 0.0
C4442 C 0.61869 0.37358 0.18944 0.0
C4443 C 0.61883 0.35782 0.17391 0.0
N4444 N 0.63258 0.34399 0.14186 0.0
N4445 N 0.63611 0.40287 0.20592 0.0
C4446 C 0.63326 0.35888 0.1571 0.0
C4447 C 0.63511 0.38859 0.19009 0.0
N4448 N 0.66238 0.37681 0.14049 0.0
N4449 N 0.6022 0.37468 0.20298 0.0
H4450 H 0.64601 0.41577 0.2056 0.0
H4451 H 0.62748 0.40181 0.21963 0.0
H4452 H 0.58959 0.36439 0.20241 0.0
H4453 H 0.59988 0.38675 0.21357 0.0
H4454 H 0.66111 0.36864 0.12655 0.0
H4455 H 0.67454 0.38754 0.14021 0.0
H4456 H 0.64357 0.34242 0.13004 0.0
H4457 H 0.62121 0.33239 0.14132 0.0
C4458 C 0.62037 0.63537 0.19035 0.0
C4459 C 0.61974 0.6507 0.1743 0.0
C4460 C 0.64957 0.63355 0.15688 0.0
C4461 C 0.65111 0.61931 0.17382 0.0
N4462 N 0.6343 0.6024 0.2028 0.0
N4463 N 0.63084 0.66203 0.14016 0.0
C4464 C 0.63544 0.61904 0.18947 0.0
C4465 C 0.63331 0.64891 0.15678 0.0
N4466 N 0.6064 0.63635 0.20646 0.0
N4467 N 0.66416 0.63295 0.14134 0.0
H4468 H 0.62 0.67406 0.13988 0.0
H4469 H 0.63856 0.66041 0.12599 0.0
H4470 H 0.6757 0.62156 0.14041 0.0
H4471 H 0.66561 0.64412 0.12968 0.0
H4472 H 0.60793 0.62792 0.22024 0.0
H4473 H 0.59333 0.64606 0.20632 0.0
H4474 H 0.62222 0.60003 0.21338 0.0
H4475 H 0.6444 0.58967 0.20188 0.0
C4476 C 0.37289 0.65123 0.15946 0.0
C4477 C 0.38878 0.65148 0.17491 0.0
C4478 C 0.37401 0.61977 0.19069 0.0
C4479 C 0.35788 0.6197 0.17542 0.0
N4480 N 0.34506 0.63215 0.14228 0.0
N4481 N 0.40771 0.63325 0.20172 0.0
C4482 C 0.35841 0.63431 0.15876 0.0
C4483 C 0.39027 0.63492 0.18951 0.0
N4484 N 0.3708 0.66782 0.14627 0.0
N4485 N 0.3738 0.6053 0.20636 0.0
H4486 H 0.42014 0.64374 0.20085 0.0
H4487 H 0.41088 0.62052 0.21128 0.0
H4488 H 0.36369 0.59255 0.20652 0.0
H4489 H 0.38317 0.60625 0.21959 0.0
H4490 H 0.35802 0.66999 0.13647 0.0
H4491 H 0.3812 0.68028 0.14621 0.0
H4492 H 0.34631 0.64081 0.12861 0.0
H4493 H 0.33355 0.62071 0.14156 0.0
C4494 C 0.3902 0.37353 0.1905 0.0
C4495 C 0.38966 0.35798 0.17477 0.0
C4496 C 0.36071 0.37659 0.15756 0.0
C4497 C 0.35903 0.39002 0.17514 0.0
N4498 N 0.37306 0.40253 0.20774 0.0
N4499 N 0.37458 0.34436 0.14316 0.0
C4500 C 0.37412 0.38887 0.19139 0.0
C4501 C 0.37523 0.35964 0.15802 0.0
N4502 N 0.4067 0.37414 0.20406 0.0
N4503 N 0.34841 0.37991 0.14047 0.0
H4504 H 0.38502 0.3319 0.1428 0.0
H4505 H 0.36289 0.34314 0.13196 0.0
H4506 H 0.337 0.39145 0.13981 0.0
H4507 H 0.35043 0.37225 0.12631 0.0
H4508 H 0.40925 0.38613 0.2147 0.0
H4509 H 0.41909 0.3636 0.20339 0.0
H4510 H 0.38143 0.40075 0.22153 0.0
H4511 H 0.36327 0.41553 0.20779 0.0
C4512 C 0.81752 0.63429 0.61792 0.0
C4513 C 0.83261 0.65047 0.61864 0.0
C4514 C 0.84937 0.63348 0.64881 0.0
C4515 C 0.8324 0.61917 0.65 0.0
N4516 N 0.80108 0.60471 0.63485 0.0
N4517 N 0.86344 0.66552 0.63403 0.0
C4518 C 0.81675 0.6192 0.63423 0.0
C4519 C 0.84894 0.64986 0.63364 0.0
N4520 N 0.80455 0.63282 0.60102 0.0
N4521 N 0.86578 0.63157 0.66231 0.0
H4522 H 0.86378 0.67755 0.62313 0.0
H4523 H 0.87449 0.66745 0.64575 0.0
H4524 H 0.86627 0.62044 0.67407 0.0
H4525 H 0.87963 0.63996 0.66109 0.0
H4526 H 0.79448 0.62038 0.59832 0.0
H4527 H 0.80519 0.64319 0.58849 0.0
H4528 H 0.78753 0.60563 0.62594 0.0
H4529 H 0.80133 0.59182 0.64477 0.0
C4530 C 0.37319 0.81533 0.61933 0.0
C4531 C 0.35711 0.83064 0.61941 0.0
C4532 C 0.37218 0.84627 0.65108 0.0
C4533 C 0.38816 0.83091 0.65104 0.0
N4534 N 0.40696 0.8042 0.63252 0.0
N4535 N 0.34404 0.86346 0.63247 0.0
C4536 C 0.38953 0.8164 0.63439 0.0
C4537 C 0.35758 0.84709 0.63427 0.0
N4538 N 0.37287 0.79972 0.6048 0.0
N4539 N 0.37014 0.85926 0.66784 0.0
H4540 H 0.33232 0.86417 0.62123 0.0
H4541 H 0.34524 0.87704 0.64128 0.0
H4542 H 0.38061 0.85923 0.68024 0.0
H4543 H 0.35732 0.86898 0.67021 0.0
H4544 H 0.38222 0.78647 0.60565 0.0
H4545 H 0.36266 0.79959 0.59213 0.0
H4546 H 0.41005 0.79476 0.61968 0.0
H4547 H 0.41945 0.80496 0.64294 0.0
C4548 C 0.15872 0.3586 0.63352 0.0
C4549 C 0.17575 0.35715 0.61931 0.0
C4550 C 0.19105 0.389 0.63451 0.0
C4551 C 0.17584 0.38854 0.65059 0.0
N4552 N 0.14471 0.37358 0.66548 0.0
N4553 N 0.20743 0.37177 0.60507 0.0
C4554 C 0.15929 0.37377 0.64989 0.0
C4555 C 0.19166 0.37266 0.61945 0.0
N4556 N 0.14211 0.34536 0.63153 0.0
N4557 N 0.2043 0.40569 0.6331 0.0
H4558 H 0.2071 0.36186 0.59218 0.0
H4559 H 0.22112 0.38044 0.6061 0.0
H4560 H 0.20379 0.41825 0.64343 0.0
H4561 H 0.21449 0.40822 0.62071 0.0
H4562 H 0.12822 0.34682 0.6398 0.0
H4563 H 0.14151 0.33356 0.62045 0.0
H4564 H 0.13349 0.36201 0.66735 0.0
H4565 H 0.14447 0.38446 0.67754 0.0
C4566 C 0.63402 0.19137 0.6193 0.0
C4567 C 0.64967 0.17564 0.61879 0.0
C4568 C 0.63425 0.15942 0.65003 0.0
C4569 C 0.61878 0.1753 0.65067 0.0
N4570 N 0.60059 0.20298 0.63297 0.0
N4571 N 0.66152 0.14188 0.63044 0.0
C4572 C 0.61771 0.19029 0.63441 0.0
C4573 C 0.64867 0.15867 0.63303 0.0
N4574 N 0.63476 0.20745 0.6053 0.0
N4575 N 0.63603 0.14582 0.66632 0.0
H4576 H 0.67282 0.14104 0.61878 0.0
H4577 H 0.65997 0.12807 0.63885 0.0
H4578 H 0.6257 0.14578 0.67884 0.0
H4579 H 0.64854 0.13562 0.66821 0.0
H4580 H 0.62577 0.22091 0.60662 0.0
H4581 H 0.64498 0.20771 0.59264 0.0
H4582 H 0.59772 0.21286 0.62043 0.0
H4583 H 0.5881 0.20218 0.64339 0.0
C4584 C 0.84785 0.3554 0.37122 0.0
C4585 C 0.83267 0.35527 0.38738 0.0
C4586 C 0.81698 0.38722 0.37298 0.0
C4587 C 0.83205 0.38727 0.35669 0.0
N4588 N 0.86464 0.37425 0.34298 0.0
N4589 N 0.80624 0.37367 0.40671 0.0
C4590 C 0.84849 0.37236 0.35678 0.0
C4591 C 0.81823 0.37198 0.38913 0.0
N4592 N 0.86082 0.33867 0.36886 0.0
N4593 N 0.80135 0.40177 0.37299 0.0
H4594 H 0.80715 0.36309 0.41904 0.0
H4595 H 0.79686 0.38649 0.41007 0.0
H4596 H 0.80104 0.41444 0.3628 0.0
H4597 H 0.78825 0.40091 0.38257 0.0
H4598 H 0.87039 0.33639 0.35594 0.0
H4599 H 0.86092 0.32622 0.37925 0.0
H4600 H 0.87822 0.36535 0.34381 0.0
H4601 H 0.86521 0.38568 0.33146 0.0
C4602 C 0.63408 0.81656 0.38756 0.0
C4603 C 0.65013 0.83181 0.38745 0.0
C4604 C 0.6326 0.84977 0.35831 0.0
C4605 C 0.61864 0.83262 0.3562 0.0
N4606 N 0.60479 0.80038 0.36986 0.0
N4607 N 0.66511 0.863 0.37272 0.0
C4608 C 0.61901 0.81624 0.37119 0.0
C4609 C 0.64932 0.84865 0.37305 0.0
N4610 N 0.63267 0.80296 0.40396 0.0
N4611 N 0.62993 0.86714 0.34627 0.0
H4612 H 0.6775 0.86286 0.38326 0.0
H4613 H 0.66689 0.87421 0.36113 0.0
H4614 H 0.61816 0.86852 0.33521 0.0
H4615 H 0.63811 0.88099 0.34848 0.0
H4616 H 0.62027 0.79273 0.40622 0.0
H4617 H 0.64298 0.80323 0.41655 0.0
H4618 H 0.60607 0.78643 0.37808 0.0
H4619 H 0.5918 0.8009 0.36007 0.0
C4620 C 0.15968 0.64948 0.37289 0.0
C4621 C 0.17584 0.64952 0.38809 0.0
C4622 C 0.1895 0.61673 0.37347 0.0
C4623 C 0.17542 0.61849 0.35647 0.0
N4624 N 0.14771 0.63708 0.33918 0.0
N4625 N 0.20598 0.63295 0.40343 0.0
C4626 C 0.16042 0.63481 0.35614 0.0
C4627 C 0.19066 0.63301 0.38856 0.0
N4628 N 0.14371 0.66355 0.3743 0.0
N4629 N 0.20125 0.59902 0.37554 0.0
H4630 H 0.20617 0.6433 0.41598 0.0
H4631 H 0.21895 0.62318 0.40297 0.0
H4632 H 0.20038 0.58661 0.36506 0.0
H4633 H 0.21036 0.59568 0.38856 0.0
H4634 H 0.13029 0.66283 0.36517 0.0
H4635 H 0.14312 0.67521 0.38559 0.0
H4636 H 0.13835 0.65008 0.33656 0.0
H4637 H 0.14759 0.62646 0.32692 0.0
C4638 C 0.37344 0.19328 0.38873 0.0
C4639 C 0.35788 0.17752 0.38848 0.0
C4640 C 0.37537 0.16088 0.35852 0.0
C4641 C 0.38914 0.17826 0.35704 0.0
N4642 N 0.40196 0.21078 0.37106 0.0
N4643 N 0.34382 0.14601 0.37358 0.0
C4644 C 0.38835 0.19437 0.37228 0.0
C4645 C 0.35902 0.161 0.37374 0.0
N4646 N 0.37461 0.20657 0.4054 0.0
N4647 N 0.37768 0.14441 0.34517 0.0
H4648 H 0.33173 0.14547 0.38444 0.0
H4649 H 0.34224 0.13476 0.36201 0.0
H4650 H 0.38814 0.14439 0.33274 0.0
H4651 H 0.37002 0.13022 0.34687 0.0
H4652 H 0.38673 0.21711 0.40776 0.0
H4653 H 0.36447 0.20571 0.41811 0.0
H4654 H 0.40027 0.2245 0.37956 0.0
H4655 H 0.41473 0.21105 0.36097 0.0
C4656 C 0.65354 0.84716 0.63592 0.0
C4657 C 0.65236 0.83283 0.61907 0.0
C4658 C 0.61989 0.81825 0.63356 0.0
C4659 C 0.62118 0.83241 0.65059 0.0
N4660 N 0.63681 0.86287 0.66609 0.0
N4661 N 0.63227 0.80814 0.59917 0.0
C4662 C 0.63717 0.84778 0.65106 0.0
C4663 C 0.63488 0.81936 0.61714 0.0
N4664 N 0.67086 0.8594 0.63805 0.0
N4665 N 0.60438 0.80358 0.63319 0.0
H4666 H 0.64276 0.80888 0.58674 0.0
H4667 H 0.61893 0.79956 0.5957 0.0
H4668 H 0.59199 0.80348 0.64374 0.0
H4669 H 0.60413 0.791 0.62294 0.0
H4670 H 0.67416 0.86828 0.65122 0.0
H4671 H 0.68271 0.85975 0.62696 0.0
H4672 H 0.64663 0.8758 0.66616 0.0
H4673 H 0.62559 0.86331 0.6778 0.0
C4674 C 0.61833 0.19045 0.37314 0.0
C4675 C 0.61831 0.17474 0.35757 0.0
C4676 C 0.64709 0.15685 0.37581 0.0
C4677 C 0.64954 0.17451 0.38905 0.0
N4678 N 0.63602 0.20714 0.40211 0.0
N4679 N 0.63191 0.14238 0.3442 0.0
C4680 C 0.63464 0.19098 0.38825 0.0
C4681 C 0.6322 0.15753 0.35918 0.0
N4682 N 0.6021 0.20431 0.37399 0.0
N4683 N 0.65895 0.13943 0.37905 0.0
H4684 H 0.621 0.14205 0.33215 0.0
H4685 H 0.64315 0.13075 0.34286 0.0
H4686 H 0.6704 0.13844 0.3905 0.0
H4687 H 0.65643 0.12528 0.37153 0.0
H4688 H 0.59992 0.21504 0.38597 0.0
H4689 H 0.58951 0.2038 0.36367 0.0
H4690 H 0.62792 0.22112 0.40051 0.0
H4691 H 0.64567 0.20677 0.41521 0.0
C4692 C 0.84664 0.63516 0.35618 0.0
C4693 C 0.83141 0.61904 0.35617 0.0
C4694 C 0.81571 0.63376 0.38798 0.0
C4695 C 0.83093 0.64993 0.388 0.0
N4696 N 0.8635 0.66351 0.37477 0.0
N4697 N 0.80473 0.60005 0.37457 0.0
C4698 C 0.84733 0.64972 0.37304 0.0
C4699 C 0.81688 0.61752 0.37282 0.0
N4700 N 0.85962 0.63735 0.33943 0.0
N4701 N 0.80004 0.63395 0.40247 0.0
H4702 H 0.80553 0.58767 0.36404 0.0
H4703 H 0.79528 0.59684 0.38737 0.0
H4704 H 0.79974 0.64422 0.41508 0.0
H4705 H 0.78686 0.62449 0.40162 0.0
H4706 H 0.86923 0.65023 0.33705 0.0
H4707 H 0.85969 0.62689 0.32704 0.0
H4708 H 0.87708 0.66257 0.36589 0.0
H4709 H 0.86407 0.67521 0.38602 0.0
C4710 C 0.3726 0.84849 0.35699 0.0
C4711 C 0.38786 0.83243 0.3564 0.0
C4712 C 0.37243 0.81668 0.38784 0.0
C4713 C 0.35689 0.83255 0.38821 0.0
N4714 N 0.34634 0.86694 0.377 0.0
N4715 N 0.4058 0.80472 0.3743 0.0
C4716 C 0.35836 0.8496 0.3741 0.0
C4717 C 0.38877 0.81752 0.37274 0.0
N4718 N 0.37081 0.86196 0.3406 0.0
N4719 N 0.37169 0.80083 0.40208 0.0
H4720 H 0.41834 0.80539 0.36393 0.0
H4721 H 0.40856 0.79486 0.38689 0.0
H4722 H 0.36181 0.80099 0.41501 0.0
H4723 H 0.38047 0.78722 0.40083 0.0
H4724 H 0.35838 0.87227 0.33878 0.0
H4725 H 0.38094 0.8617 0.32792 0.0
H4726 H 0.34834 0.88066 0.36853 0.0
H4727 H 0.33563 0.86842 0.3891 0.0
C4728 C 0.16029 0.37397 0.35867 0.0
C4729 C 0.17654 0.38907 0.35797 0.0
C4730 C 0.19268 0.37359 0.38913 0.0
C4731 C 0.17699 0.35788 0.38936 0.0
N4732 N 0.14379 0.34507 0.37692 0.0
N4733 N 0.20472 0.40678 0.37534 0.0
C4734 C 0.16 0.35884 0.37507 0.0
C4735 C 0.19175 0.38986 0.37403 0.0
N4736 N 0.1458 0.37341 0.34301 0.0
N4737 N 0.20856 0.37293 0.40339 0.0
H4738 H 0.20399 0.41927 0.36493 0.0
H4739 H 0.21486 0.40954 0.38771 0.0
H4740 H 0.20858 0.36288 0.41618 0.0
H4741 H 0.22208 0.38187 0.4023 0.0
H4742 H 0.13481 0.36161 0.34115 0.0
H4743 H 0.14537 0.38427 0.33094 0.0
H4744 H 0.12985 0.34629 0.3687 0.0
H4745 H 0.14368 0.33281 0.38756 0.0
C4746 C 0.3885 0.19186 0.63596 0.0
C4747 C 0.38816 0.17642 0.65181 0.0
C4748 C 0.35953 0.15844 0.63343 0.0
C4749 C 0.35753 0.17577 0.61971 0.0
N4750 N 0.37123 0.20833 0.60663 0.0
N4751 N 0.3732 0.14504 0.66614 0.0
C4752 C 0.37239 0.19227 0.62062 0.0
C4753 C 0.37389 0.1595 0.65048 0.0
N4754 N 0.40489 0.20553 0.635 0.0
N4755 N 0.34779 0.14093 0.63027 0.0
H4756 H 0.38342 0.14514 0.67878 0.0
H4757 H 0.36153 0.13383 0.66754 0.0
H4758 H 0.33657 0.13967 0.61861 0.0
H4759 H 0.35025 0.12695 0.63815 0.0
H4760 H 0.40733 0.21591 0.62277 0.0
H4761 H 0.41734 0.20519 0.64549 0.0
H4762 H 0.37929 0.22233 0.60831 0.0
H4763 H 0.36174 0.2079 0.59342 0.0
C4764 C 0.81584 0.38938 0.63272 0.0
C4765 C 0.83206 0.38995 0.64787 0.0
C4766 C 0.84862 0.35941 0.63137 0.0
C4767 C 0.83195 0.35845 0.61676 0.0
N4768 N 0.80309 0.37551 0.59985 0.0
N4769 N 0.86617 0.37846 0.65907 0.0
C4770 C 0.81653 0.37432 0.6164 0.0
C4771 C 0.84929 0.37602 0.64624 0.0
N4772 N 0.79969 0.40329 0.63395 0.0
N4773 N 0.86315 0.34379 0.63185 0.0
H4774 H 0.86677 0.38942 0.67103 0.0
H4775 H 0.88022 0.37054 0.65713 0.0
H4776 H 0.86329 0.33148 0.62125 0.0
H4777 H 0.87432 0.34213 0.6435 0.0
H4778 H 0.7859 0.40189 0.62548 0.0
H4779 H 0.79975 0.41606 0.64402 0.0
H4780 H 0.79274 0.38778 0.59741 0.0
H4781 H 0.80361 0.36515 0.58731 0.0
C4782 C 0.19017 0.61842 0.63449 0.0
C4783 C 0.1756 0.61943 0.65123 0.0
C4784 C 0.161 0.65181 0.63652 0.0
C4785 C 0.17566 0.65087 0.61992 0.0
N4786 N 0.20085 0.63105 0.60036 0.0
N4787 N 0.14436 0.63449 0.66581 0.0
C4788 C 0.18928 0.6335 0.61814 0.0
C4789 C 0.16003 0.63523 0.65139 0.0
N4790 N 0.20498 0.60305 0.63429 0.0
N4791 N 0.14876 0.66911 0.63874 0.0
H4792 H 0.14346 0.62294 0.67713 0.0
H4793 H 0.13134 0.64421 0.66554 0.0
H4794 H 0.14878 0.68122 0.62796 0.0
H4795 H 0.13966 0.67217 0.65183 0.0
H4796 H 0.21782 0.60302 0.62435 0.0
H4797 H 0.20488 0.59054 0.64469 0.0
H4798 H 0.20957 0.61778 0.59698 0.0
H4799 H 0.20029 0.64158 0.58797 0.0
loop_
_geom_bond_atom_site_label_1
_geom_bond_atom_site_label_2
_geom_bond_distance
_geom_bond_site_symmetry_2
_ccdc_geom_bond_type
Co0 O1 2.216 . S
Co0 O2 2.091 . S
Co0 O4 2.004 . S
Co0 O10 2.021 . S
Co0 O12 2.137 . S
Co0 O13 2.244 . S
O1 Co0 2.216 . S
O1 C8 1.247 . S
O2 Co0 2.091 . S
O2 C8 1.261 . S
C3 O12 1.247 . S
C3 O13 1.272 . S
O4 Co0 2.004 . S
O4 C9 1.259 . S
Co5 O6 2.061 . S
Co5 O11 2.052 . S
Co5 O13 2.135 . S
O6 Co5 2.061 . S
O6 C9 1.235 . S
C7 O10 1.238 . S
C7 O11 1.241 . S
C8 O1 1.247 . S
C8 O2 1.261 . S
C9 O4 1.259 . S
C9 O6 1.235 . S
O10 Co0 2.021 . S
O10 C7 1.238 . S
O11 Co5 2.052 . S
O11 C7 1.241 . S
O12 Co0 2.137 . S
O12 C3 1.247 . S
O13 Co0 2.244 . S
O13 C3 1.272 . S
O13 Co5 2.135 . S
Co14 O15 2.216 . S
Co14 O16 2.091 . S
Co14 O18 2.004 . S
Co14 O24 2.021 . S
Co14 O26 2.137 . S
Co14 O27 2.244 . S
O15 Co14 2.216 . S
O15 C22 1.247 . S
O16 Co14 2.091 . S
O16 C22 1.261 . S
C17 O26 1.247 . S
C17 O27 1.272 . S
O18 Co14 2.004 . S
O18 C23 1.259 . S
Co19 O20 2.061 . S
Co19 O25 2.052 . S
Co19 O27 2.135 . S
O20 Co19 2.061 . S
O20 C23 1.235 . S
C21 O24 1.238 . S
C21 O25 1.241 . S
C22 O15 1.247 . S
C22 O16 1.261 . S
C23 O18 1.259 . S
C23 O20 1.235 . S
O24 Co14 2.021 . S
O24 C21 1.238 . S
O25 Co19 2.052 . S
O25 C21 1.241 . S
O26 Co14 2.137 . S
O26 C17 1.247 . S
O27 Co14 2.244 . S
O27 C17 1.272 . S
O27 Co19 2.135 . S
Co28 O29 2.216 . S
Co28 O30 2.091 . S
Co28 O32 2.004 . S
Co28 O38 2.021 . S
Co28 O40 2.137 . S
Co28 O41 2.244 . S
O29 Co28 2.216 . S
O29 C36 1.247 . S
O30 Co28 2.091 . S
O30 C36 1.261 . S
C31 O40 1.247 . S
C31 O41 1.272 . S
O32 Co28 2.004 . S
O32 C37 1.259 . S
Co33 O34 2.061 . S
Co33 O39 2.052 . S
Co33 O41 2.135 . S
O34 Co33 2.061 . S
O34 C37 1.235 . S
C35 O38 1.238 . S
C35 O39 1.241 . S
C36 O29 1.247 . S
C36 O30 1.261 . S
C37 O32 1.259 . S
C37 O34 1.235 . S
O38 Co28 2.021 . S
O38 C35 1.238 . S
O39 Co33 2.052 . S
O39 C35 1.241 . S
O40 Co28 2.137 . S
O40 C31 1.247 . S
O41 Co28 2.244 . S
O41 C31 1.272 . S
O41 Co33 2.135 . S
Co42 O43 2.216 . S
Co42 O44 2.091 . S
Co42 O46 2.004 . S
Co42 O52 2.021 . S
Co42 O54 2.137 . S
Co42 O55 2.244 . S
O43 Co42 2.216 . S
O43 C50 1.247 . S
O44 Co42 2.091 . S
O44 C50 1.261 . S
C45 O54 1.247 . S
C45 O55 1.272 . S
O46 Co42 2.004 . S
O46 C51 1.259 . S
Co47 O48 2.061 . S
Co47 O53 2.052 . S
Co47 O55 2.135 . S
O48 Co47 2.061 . S
O48 C51 1.235 . S
C49 O52 1.238 . S
C49 O53 1.241 . S
C50 O43 1.247 . S
C50 O44 1.261 . S
C51 O46 1.259 . S
C51 O48 1.235 . S
O52 Co42 2.021 . S
O52 C49 1.238 . S
O53 Co47 2.052 . S
O53 C49 1.241 . S
O54 Co42 2.137 . S
O54 C45 1.247 . S
O55 Co42 2.244 . S
O55 C45 1.272 . S
O55 Co47 2.135 . S
Co56 O57 2.216 . S
Co56 O58 2.091 . S
Co56 O60 2.004 . S
Co56 O66 2.021 . S
Co56 O68 2.137 . S
Co56 O69 2.244 . S
O57 Co56 2.216 . S
O57 C64 1.247 . S
O58 Co56 2.091 . S
O58 C64 1.261 . S
C59 O68 1.247 . S
C59 O69 1.272 . S
O60 Co56 2.004 . S
O60 C65 1.259 . S
Co61 O62 2.061 . S
Co61 O67 2.052 . S
Co61 O69 2.135 . S
O62 Co61 2.061 . S
O62 C65 1.235 . S
C63 O66 1.238 . S
C63 O67 1.241 . S
C64 O57 1.247 . S
C64 O58 1.261 . S
C65 O60 1.259 . S
C65 O62 1.235 . S
O66 Co56 2.021 . S
O66 C63 1.238 . S
O67 Co61 2.052 . S
O67 C63 1.241 . S
O68 Co56 2.137 . S
O68 C59 1.247 . S
O69 Co56 2.244 . S
O69 C59 1.272 . S
O69 Co61 2.135 . S
Co70 O71 2.216 . S
Co70 O72 2.091 . S
Co70 O74 2.004 . S
Co70 O80 2.021 . S
Co70 O82 2.137 . S
Co70 O83 2.244 . S
O71 Co70 2.216 . S
O71 C78 1.247 . S
O72 Co70 2.091 . S
O72 C78 1.261 . S
C73 O82 1.247 . S
C73 O83 1.272 . S
O74 Co70 2.004 . S
O74 C79 1.259 . S
Co75 O76 2.061 . S
Co75 O81 2.052 . S
Co75 O83 2.135 . S
O76 Co75 2.061 . S
O76 C79 1.235 . S
C77 O80 1.238 . S
C77 O81 1.241 . S
C78 O71 1.247 . S
C78 O72 1.261 . S
C79 O74 1.259 . S
C79 O76 1.235 . S
O80 Co70 2.021 . S
O80 C77 1.238 . S
O81 Co75 2.052 . S
O81 C77 1.241 . S
O82 Co70 2.137 . S
O82 C73 1.247 . S
O83 Co70 2.244 . S
O83 C73 1.272 . S
O83 Co75 2.135 . S
Co84 O85 2.216 . S
Co84 O86 2.091 . S
Co84 O88 2.004 . S
Co84 O94 2.021 . S
Co84 O96 2.137 . S
Co84 O97 2.244 . S
O85 Co84 2.216 . S
O85 C92 1.247 . S
O86 Co84 2.091 . S
O86 C92 1.261 . S
C87 O96 1.247 . S
C87 O97 1.272 . S
O88 Co84 2.004 . S
O88 C93 1.259 . S
Co89 O90 2.061 . S
Co89 O95 2.052 . S
Co89 O97 2.135 . S
O90 Co89 2.061 . S
O90 C93 1.235 . S
C91 O94 1.238 . S
C91 O95 1.241 . S
C92 O85 1.247 . S
C92 O86 1.261 . S
C93 O88 1.259 . S
C93 O90 1.235 . S
O94 Co84 2.021 . S
O94 C91 1.238 . S
O95 Co89 2.052 . S
O95 C91 1.241 . S
O96 Co84 2.137 . S
O96 C87 1.247 . S
O97 Co84 2.244 . S
O97 C87 1.272 . S
O97 Co89 2.135 . S
Co98 O99 2.216 . S
Co98 O100 2.091 . S
Co98 O102 2.004 . S
Co98 O108 2.021 . S
Co98 O110 2.137 . S
Co98 O111 2.244 . S
O99 Co98 2.216 . S
O99 C106 1.247 . S
O100 Co98 2.091 . S
O100 C106 1.261 . S
C101 O110 1.247 . S
C101 O111 1.272 . S
O102 Co98 2.004 . S
O102 C107 1.259 . S
Co103 O104 2.061 . S
Co103 O109 2.052 . S
Co103 O111 2.135 . S
O104 Co103 2.061 . S
O104 C107 1.235 . S
C105 O108 1.238 . S
C105 O109 1.241 . S
C106 O99 1.247 . S
C106 O100 1.261 . S
C107 O102 1.259 . S
C107 O104 1.235 . S
O108 Co98 2.021 . S
O108 C105 1.238 . S
O109 Co103 2.052 . S
O109 C105 1.241 . S
O110 Co98 2.137 . S
O110 C101 1.247 . S
O111 Co98 2.244 . S
O111 C101 1.272 . S
O111 Co103 2.135 . S
Co112 O113 2.216 . S
Co112 O114 2.091 . S
Co112 O116 2.004 . S
Co112 O122 2.021 . S
Co112 O124 2.137 . S
Co112 O125 2.244 . S
O113 Co112 2.216 . S
O113 C120 1.247 . S
O114 Co112 2.091 . S
O114 C120 1.261 . S
C115 O124 1.247 . S
C115 O125 1.272 . S
O116 Co112 2.004 . S
O116 C121 1.259 . S
Co117 O118 2.061 . S
Co117 O123 2.052 . S
Co117 O125 2.135 . S
O118 Co117 2.061 . S
O118 C121 1.235 . S
C119 O122 1.238 . S
C119 O123 1.241 . S
C120 O113 1.247 . S
C120 O114 1.261 . S
C121 O116 1.259 . S
C121 O118 1.235 . S
O122 Co112 2.021 . S
O122 C119 1.238 . S
O123 Co117 2.052 . S
O123 C119 1.241 . S
O124 Co112 2.137 . S
O124 C115 1.247 . S
O125 Co112 2.244 . S
O125 C115 1.272 . S
O125 Co117 2.135 . S
Co126 O127 2.216 . S
Co126 O128 2.091 . S
Co126 O130 2.004 . S
Co126 O136 2.021 . S
Co126 O138 2.137 . S
Co126 O139 2.244 . S
O127 Co126 2.216 . S
O127 C134 1.247 . S
O128 Co126 2.091 . S
O128 C134 1.261 . S
C129 O138 1.247 . S
C129 O139 1.272 . S
O130 Co126 2.004 . S
O130 C135 1.259 . S
Co131 O132 2.061 . S
Co131 O137 2.052 . S
Co131 O139 2.135 . S
O132 Co131 2.061 . S
O132 C135 1.235 . S
C133 O136 1.238 . S
C133 O137 1.241 . S
C134 O127 1.247 . S
C134 O128 1.261 . S
C135 O130 1.259 . S
C135 O132 1.235 . S
O136 Co126 2.021 . S
O136 C133 1.238 . S
O137 Co131 2.052 . S
O137 C133 1.241 . S
O138 Co126 2.137 . S
O138 C129 1.247 . S
O139 Co126 2.244 . S
O139 C129 1.272 . S
O139 Co131 2.135 . S
Co140 O141 2.216 . S
Co140 O142 2.091 . S
Co140 O144 2.004 . S
Co140 O150 2.021 . S
Co140 O152 2.137 . S
Co140 O153 2.244 . S
O141 Co140 2.216 . S
O141 C148 1.247 . S
O142 Co140 2.091 . S
O142 C148 1.261 . S
C143 O152 1.247 . S
C143 O153 1.272 . S
O144 Co140 2.004 . S
O144 C149 1.259 . S
Co145 O146 2.061 . S
Co145 O151 2.052 . S
Co145 O153 2.135 . S
O146 Co145 2.061 . S
O146 C149 1.235 . S
C147 O150 1.238 . S
C147 O151 1.241 . S
C148 O141 1.247 . S
C148 O142 1.261 . S
C149 O144 1.259 . S
C149 O146 1.235 . S
O150 Co140 2.021 . S
O150 C147 1.238 . S
O151 Co145 2.052 . S
O151 C147 1.241 . S
O152 Co140 2.137 . S
O152 C143 1.247 . S
O153 Co140 2.244 . S
O153 C143 1.272 . S
O153 Co145 2.135 . S
Co154 O155 2.216 . S
Co154 O156 2.091 . S
Co154 O158 2.004 . S
Co154 O164 2.021 . S
Co154 O166 2.137 . S
Co154 O167 2.244 . S
O155 Co154 2.216 . S
O155 C162 1.247 . S
O156 Co154 2.091 . S
O156 C162 1.261 . S
C157 O166 1.247 . S
C157 O167 1.272 . S
O158 Co154 2.004 . S
O158 C163 1.259 . S
Co159 O160 2.061 . S
Co159 O165 2.052 . S
Co159 O167 2.135 . S
O160 Co159 2.061 . S
O160 C163 1.235 . S
C161 O164 1.238 . S
C161 O165 1.241 . S
C162 O155 1.247 . S
C162 O156 1.261 . S
C163 O158 1.259 . S
C163 O160 1.235 . S
O164 Co154 2.021 . S
O164 C161 1.238 . S
O165 Co159 2.052 . S
O165 C161 1.241 . S
O166 Co154 2.137 . S
O166 C157 1.247 . S
O167 Co154 2.244 . S
O167 C157 1.272 . S
O167 Co159 2.135 . S
Co168 O169 2.216 . S
Co168 O170 2.091 . S
Co168 O172 2.004 . S
Co168 O178 2.021 . S
Co168 O180 2.137 . S
Co168 O181 2.244 . S
O169 Co168 2.216 . S
O169 C176 1.247 . S
O170 Co168 2.091 . S
O170 C176 1.261 . S
C171 O180 1.247 . S
C171 O181 1.272 . S
O172 Co168 2.004 . S
O172 C177 1.259 . S
Co173 O174 2.061 . S
Co173 O179 2.052 . S
Co173 O181 2.135 . S
O174 Co173 2.061 . S
O174 C177 1.235 . S
C175 O178 1.238 . S
C175 O179 1.241 . S
C176 O169 1.247 . S
C176 O170 1.261 . S
C177 O172 1.259 . S
C177 O174 1.235 . S
O178 Co168 2.021 . S
O178 C175 1.238 . S
O179 Co173 2.052 . S
O179 C175 1.241 . S
O180 Co168 2.137 . S
O180 C171 1.247 . S
O181 Co168 2.244 . S
O181 C171 1.272 . S
O181 Co173 2.135 . S
Co182 O183 2.216 . S
Co182 O184 2.091 . S
Co182 O186 2.004 . S
Co182 O192 2.021 . S
Co182 O194 2.137 . S
Co182 O195 2.244 . S
O183 Co182 2.216 . S
O183 C190 1.247 . S
O184 Co182 2.091 . S
O184 C190 1.261 . S
C185 O194 1.247 . S
C185 O195 1.272 . S
O186 Co182 2.004 . S
O186 C191 1.259 . S
Co187 O188 2.061 . S
Co187 O193 2.052 . S
Co187 O195 2.135 . S
O188 Co187 2.061 . S
O188 C191 1.235 . S
C189 O192 1.238 . S
C189 O193 1.241 . S
C190 O183 1.247 . S
C190 O184 1.261 . S
C191 O186 1.259 . S
C191 O188 1.235 . S
O192 Co182 2.021 . S
O192 C189 1.238 . S
O193 Co187 2.052 . S
O193 C189 1.241 . S
O194 Co182 2.137 . S
O194 C185 1.247 . S
O195 Co182 2.244 . S
O195 C185 1.272 . S
O195 Co187 2.135 . S
Co196 O197 2.216 . S
Co196 O198 2.091 . S
Co196 O200 2.004 . S
Co196 O206 2.021 . S
Co196 O208 2.137 . S
Co196 O209 2.244 . S
O197 Co196 2.216 . S
O197 C204 1.247 . S
O198 Co196 2.091 . S
O198 C204 1.261 . S
C199 O208 1.247 . S
C199 O209 1.272 . S
O200 Co196 2.004 . S
O200 C205 1.259 . S
Co201 O202 2.061 . S
Co201 O207 2.052 . S
Co201 O209 2.135 . S
O202 Co201 2.061 . S
O202 C205 1.235 . S
C203 O206 1.238 . S
C203 O207 1.241 . S
C204 O197 1.247 . S
C204 O198 1.261 . S
C205 O200 1.259 . S
C205 O202 1.235 . S
O206 Co196 2.021 . S
O206 C203 1.238 . S
O207 Co201 2.052 . S
O207 C203 1.241 . S
O208 Co196 2.137 . S
O208 C199 1.247 . S
O209 Co196 2.244 . S
O209 C199 1.272 . S
O209 Co201 2.135 . S
Co210 O211 2.216 . S
Co210 O212 2.091 . S
Co210 O214 2.004 . S
Co210 O220 2.021 . S
Co210 O222 2.137 . S
Co210 O223 2.244 . S
O211 Co210 2.216 . S
O211 C218 1.247 . S
O212 Co210 2.091 . S
O212 C218 1.261 . S
C213 O222 1.247 . S
C213 O223 1.272 . S
O214 Co210 2.004 . S
O214 C219 1.259 . S
Co215 O216 2.061 . S
Co215 O221 2.052 . S
Co215 O223 2.135 . S
O216 Co215 2.061 . S
O216 C219 1.235 . S
C217 O220 1.238 . S
C217 O221 1.241 . S
C218 O211 1.247 . S
C218 O212 1.261 . S
C219 O214 1.259 . S
C219 O216 1.235 . S
O220 Co210 2.021 . S
O220 C217 1.238 . S
O221 Co215 2.052 . S
O221 C217 1.241 . S
O222 Co210 2.137 . S
O222 C213 1.247 . S
O223 Co210 2.244 . S
O223 C213 1.272 . S
O223 Co215 2.135 . S
Co224 O225 2.216 . S
Co224 O226 2.091 . S
Co224 O228 2.004 . S
Co224 O234 2.021 . S
Co224 O236 2.137 . S
Co224 O237 2.244 . S
O225 Co224 2.216 . S
O225 C232 1.247 . S
O226 Co224 2.091 . S
O226 C232 1.261 . S
C227 O236 1.247 . S
C227 O237 1.272 . S
O228 Co224 2.004 . S
O228 C233 1.259 . S
Co229 O230 2.061 . S
Co229 O235 2.052 . S
Co229 O237 2.135 . S
O230 Co229 2.061 . S
O230 C233 1.235 . S
C231 O234 1.238 . S
C231 O235 1.241 . S
C232 O225 1.247 . S
C232 O226 1.261 . S
C233 O228 1.259 . S
C233 O230 1.235 . S
O234 Co224 2.021 . S
O234 C231 1.238 . S
O235 Co229 2.052 . S
O235 C231 1.241 . S
O236 Co224 2.137 . S
O236 C227 1.247 . S
O237 Co224 2.244 . S
O237 C227 1.272 . S
O237 Co229 2.135 . S
Co238 O239 2.216 . S
Co238 O240 2.091 . S
Co238 O242 2.004 . S
Co238 O248 2.021 . S
Co238 O250 2.137 . S
Co238 O251 2.244 . S
O239 Co238 2.216 . S
O239 C246 1.247 . S
O240 Co238 2.091 . S
O240 C246 1.261 . S
C241 O250 1.247 . S
C241 O251 1.272 . S
O242 Co238 2.004 . S
O242 C247 1.259 . S
Co243 O244 2.061 . S
Co243 O249 2.052 . S
Co243 O251 2.135 . S
O244 Co243 2.061 . S
O244 C247 1.235 . S
C245 O248 1.238 . S
C245 O249 1.241 . S
C246 O239 1.247 . S
C246 O240 1.261 . S
C247 O242 1.259 . S
C247 O244 1.235 . S
O248 Co238 2.021 . S
O248 C245 1.238 . S
O249 Co243 2.052 . S
O249 C245 1.241 . S
O250 Co238 2.137 . S
O250 C241 1.247 . S
O251 Co238 2.244 . S
O251 C241 1.272 . S
O251 Co243 2.135 . S
Co252 O253 2.216 . S
Co252 O254 2.091 . S
Co252 O256 2.004 . S
Co252 O262 2.021 . S
Co252 O264 2.137 . S
Co252 O265 2.244 . S
O253 Co252 2.216 . S
O253 C260 1.247 . S
O254 Co252 2.091 . S
O254 C260 1.261 . S
C255 O264 1.247 . S
C255 O265 1.272 . S
O256 Co252 2.004 . S
O256 C261 1.259 . S
Co257 O258 2.061 . S
Co257 O263 2.052 . S
Co257 O265 2.135 . S
O258 Co257 2.061 . S
O258 C261 1.235 . S
C259 O262 1.238 . S
C259 O263 1.241 . S
C260 O253 1.247 . S
C260 O254 1.261 . S
C261 O256 1.259 . S
C261 O258 1.235 . S
O262 Co252 2.021 . S
O262 C259 1.238 . S
O263 Co257 2.052 . S
O263 C259 1.241 . S
O264 Co252 2.137 . S
O264 C255 1.247 . S
O265 Co252 2.244 . S
O265 C255 1.272 . S
O265 Co257 2.135 . S
Co266 O267 2.216 . S
Co266 O268 2.091 . S
Co266 O270 2.004 . S
Co266 O276 2.021 . S
Co266 O278 2.137 . S
Co266 O279 2.244 . S
O267 Co266 2.216 . S
O267 C274 1.247 . S
O268 Co266 2.091 . S
O268 C274 1.261 . S
C269 O278 1.247 . S
C269 O279 1.272 . S
O270 Co266 2.004 . S
O270 C275 1.259 . S
Co271 O272 2.061 . S
Co271 O277 2.052 . S
Co271 O279 2.135 . S
O272 Co271 2.061 . S
O272 C275 1.235 . S
C273 O276 1.238 . S
C273 O277 1.241 . S
C274 O267 1.247 . S
C274 O268 1.261 . S
C275 O270 1.259 . S
C275 O272 1.235 . S
O276 Co266 2.021 . S
O276 C273 1.238 . S
O277 Co271 2.052 . S
O277 C273 1.241 . S
O278 Co266 2.137 . S
O278 C269 1.247 . S
O279 Co266 2.244 . S
O279 C269 1.272 . S
O279 Co271 2.135 . S
Co280 O281 2.216 . S
Co280 O282 2.091 . S
Co280 O284 2.004 . S
Co280 O290 2.021 . S
Co280 O292 2.137 . S
Co280 O293 2.244 . S
O281 Co280 2.216 . S
O281 C288 1.247 . S
O282 Co280 2.091 . S
O282 C288 1.261 . S
C283 O292 1.247 . S
C283 O293 1.272 . S
O284 Co280 2.004 . S
O284 C289 1.259 . S
Co285 O286 2.061 . S
Co285 O291 2.052 . S
Co285 O293 2.135 . S
O286 Co285 2.061 . S
O286 C289 1.235 . S
C287 O290 1.238 . S
C287 O291 1.241 . S
C288 O281 1.247 . S
C288 O282 1.261 . S
C289 O284 1.259 . S
C289 O286 1.235 . S
O290 Co280 2.021 . S
O290 C287 1.238 . S
O291 Co285 2.052 . S
O291 C287 1.241 . S
O292 Co280 2.137 . S
O292 C283 1.247 . S
O293 Co280 2.244 . S
O293 C283 1.272 . S
O293 Co285 2.135 . S
Co294 O295 2.216 . S
Co294 O296 2.091 . S
Co294 O298 2.004 . S
Co294 O304 2.021 . S
Co294 O306 2.137 . S
Co294 O307 2.244 . S
O295 Co294 2.216 . S
O295 C302 1.247 . S
O296 Co294 2.091 . S
O296 C302 1.261 . S
C297 O306 1.247 . S
C297 O307 1.272 . S
O298 Co294 2.004 . S
O298 C303 1.259 . S
Co299 O300 2.061 . S
Co299 O305 2.052 . S
Co299 O307 2.135 . S
O300 Co299 2.061 . S
O300 C303 1.235 . S
C301 O304 1.238 . S
C301 O305 1.241 . S
C302 O295 1.247 . S
C302 O296 1.261 . S
C303 O298 1.259 . S
C303 O300 1.235 . S
O304 Co294 2.021 . S
O304 C301 1.238 . S
O305 Co299 2.052 . S
O305 C301 1.241 . S
O306 Co294 2.137 . S
O306 C297 1.247 . S
O307 Co294 2.244 . S
O307 C297 1.272 . S
O307 Co299 2.135 . S
Co308 O309 2.216 . S
Co308 O310 2.091 . S
Co308 O312 2.004 . S
Co308 O318 2.021 . S
Co308 O320 2.137 . S
Co308 O321 2.244 . S
O309 Co308 2.216 . S
O309 C316 1.247 . S
O310 Co308 2.091 . S
O310 C316 1.261 . S
C311 O320 1.247 . S
C311 O321 1.272 . S
O312 Co308 2.004 . S
O312 C317 1.259 . S
Co313 O314 2.061 . S
Co313 O319 2.052 . S
Co313 O321 2.135 . S
O314 Co313 2.061 . S
O314 C317 1.235 . S
C315 O318 1.238 . S
C315 O319 1.241 . S
C316 O309 1.247 . S
C316 O310 1.261 . S
C317 O312 1.259 . S
C317 O314 1.235 . S
O318 Co308 2.021 . S
O318 C315 1.238 . S
O319 Co313 2.052 . S
O319 C315 1.241 . S
O320 Co308 2.137 . S
O320 C311 1.247 . S
O321 Co308 2.244 . S
O321 C311 1.272 . S
O321 Co313 2.135 . S
Co322 O323 2.216 . S
Co322 O324 2.091 . S
Co322 O326 2.004 . S
Co322 O332 2.021 . S
Co322 O334 2.137 . S
Co322 O335 2.244 . S
O323 Co322 2.216 . S
O323 C330 1.247 . S
O324 Co322 2.091 . S
O324 C330 1.261 . S
C325 O334 1.247 . S
C325 O335 1.272 . S
O326 Co322 2.004 . S
O326 C331 1.259 . S
Co327 O328 2.061 . S
Co327 O333 2.052 . S
Co327 O335 2.135 . S
O328 Co327 2.061 . S
O328 C331 1.235 . S
C329 O332 1.238 . S
C329 O333 1.241 . S
C330 O323 1.247 . S
C330 O324 1.261 . S
C331 O326 1.259 . S
C331 O328 1.235 . S
O332 Co322 2.021 . S
O332 C329 1.238 . S
O333 Co327 2.052 . S
O333 C329 1.241 . S
O334 Co322 2.137 . S
O334 C325 1.247 . S
O335 Co322 2.244 . S
O335 C325 1.272 . S
O335 Co327 2.135 . S
Co336 O337 2.216 . S
Co336 O338 2.091 . S
Co336 O340 2.004 . S
Co336 O346 2.021 . S
Co336 O348 2.137 . S
Co336 O349 2.244 . S
O337 Co336 2.216 . S
O337 C344 1.247 . S
O338 Co336 2.091 . S
O338 C344 1.261 . S
C339 O348 1.247 . S
C339 O349 1.272 . S
O340 Co336 2.004 . S
O340 C345 1.259 . S
Co341 O342 2.061 . S
Co341 O347 2.052 . S
Co341 O349 2.135 . S
O342 Co341 2.061 . S
O342 C345 1.235 . S
C343 O346 1.238 . S
C343 O347 1.241 . S
C344 O337 1.247 . S
C344 O338 1.261 . S
C345 O340 1.259 . S
C345 O342 1.235 . S
O346 Co336 2.021 . S
O346 C343 1.238 . S
O347 Co341 2.052 . S
O347 C343 1.241 . S
O348 Co336 2.137 . S
O348 C339 1.247 . S
O349 Co336 2.244 . S
O349 C339 1.272 . S
O349 Co341 2.135 . S
Co350 O351 2.216 . S
Co350 O352 2.091 . S
Co350 O354 2.004 . S
Co350 O360 2.021 . S
Co350 O362 2.137 . S
Co350 O363 2.244 . S
O351 Co350 2.216 . S
O351 C358 1.247 . S
O352 Co350 2.091 . S
O352 C358 1.261 . S
C353 O362 1.247 . S
C353 O363 1.272 . S
O354 Co350 2.004 . S
O354 C359 1.259 . S
Co355 O356 2.061 . S
Co355 O361 2.052 . S
Co355 O363 2.135 . S
O356 Co355 2.061 . S
O356 C359 1.235 . S
C357 O360 1.238 . S
C357 O361 1.241 . S
C358 O351 1.247 . S
C358 O352 1.261 . S
C359 O354 1.259 . S
C359 O356 1.235 . S
O360 Co350 2.021 . S
O360 C357 1.238 . S
O361 Co355 2.052 . S
O361 C357 1.241 . S
O362 Co350 2.137 . S
O362 C353 1.247 . S
O363 Co350 2.244 . S
O363 C353 1.272 . S
O363 Co355 2.135 . S
Co364 O365 2.216 . S
Co364 O366 2.091 . S
Co364 O368 2.004 . S
Co364 O374 2.021 . S
Co364 O376 2.137 . S
Co364 O377 2.244 . S
O365 Co364 2.216 . S
O365 C372 1.247 . S
O366 Co364 2.091 . S
O366 C372 1.261 . S
C367 O376 1.247 . S
C367 O377 1.272 . S
O368 Co364 2.004 . S
O368 C373 1.259 . S
Co369 O370 2.061 . S
Co369 O375 2.052 . S
Co369 O377 2.135 . S
O370 Co369 2.061 . S
O370 C373 1.235 . S
C371 O374 1.238 . S
C371 O375 1.241 . S
C372 O365 1.247 . S
C372 O366 1.261 . S
C373 O368 1.259 . S
C373 O370 1.235 . S
O374 Co364 2.021 . S
O374 C371 1.238 . S
O375 Co369 2.052 . S
O375 C371 1.241 . S
O376 Co364 2.137 . S
O376 C367 1.247 . S
O377 Co364 2.244 . S
O377 C367 1.272 . S
O377 Co369 2.135 . S
Co378 O379 2.216 . S
Co378 O380 2.091 . S
Co378 O382 2.004 . S
Co378 O388 2.021 . S
Co378 O390 2.137 . S
Co378 O391 2.244 . S
O379 Co378 2.216 . S
O379 C386 1.247 . S
O380 Co378 2.091 . S
O380 C386 1.261 . S
C381 O390 1.247 . S
C381 O391 1.272 . S
O382 Co378 2.004 . S
O382 C387 1.259 . S
Co383 O384 2.061 . S
Co383 O389 2.052 . S
Co383 O391 2.135 . S
O384 Co383 2.061 . S
O384 C387 1.235 . S
C385 O388 1.238 . S
C385 O389 1.241 . S
C386 O379 1.247 . S
C386 O380 1.261 . S
C387 O382 1.259 . S
C387 O384 1.235 . S
O388 Co378 2.021 . S
O388 C385 1.238 . S
O389 Co383 2.052 . S
O389 C385 1.241 . S
O390 Co378 2.137 . S
O390 C381 1.247 . S
O391 Co378 2.244 . S
O391 C381 1.272 . S
O391 Co383 2.135 . S
Co392 O393 2.216 . S
Co392 O394 2.091 . S
Co392 O396 2.004 . S
Co392 O402 2.021 . S
Co392 O404 2.137 . S
Co392 O405 2.244 . S
O393 Co392 2.216 . S
O393 C400 1.247 . S
O394 Co392 2.091 . S
O394 C400 1.261 . S
C395 O404 1.247 . S
C395 O405 1.272 . S
O396 Co392 2.004 . S
O396 C401 1.259 . S
Co397 O398 2.061 . S
Co397 O403 2.052 . S
Co397 O405 2.135 . S
O398 Co397 2.061 . S
O398 C401 1.235 . S
C399 O402 1.238 . S
C399 O403 1.241 . S
C400 O393 1.247 . S
C400 O394 1.261 . S
C401 O396 1.259 . S
C401 O398 1.235 . S
O402 Co392 2.021 . S
O402 C399 1.238 . S
O403 Co397 2.052 . S
O403 C399 1.241 . S
O404 Co392 2.137 . S
O404 C395 1.247 . S
O405 Co392 2.244 . S
O405 C395 1.272 . S
O405 Co397 2.135 . S
Co406 O407 2.216 . S
Co406 O408 2.091 . S
Co406 O410 2.004 . S
Co406 O416 2.021 . S
Co406 O418 2.137 . S
Co406 O419 2.244 . S
O407 Co406 2.216 . S
O407 C414 1.247 . S
O408 Co406 2.091 . S
O408 C414 1.261 . S
C409 O418 1.247 . S
C409 O419 1.272 . S
O410 Co406 2.004 . S
O410 C415 1.259 . S
Co411 O412 2.061 . S
Co411 O417 2.052 . S
Co411 O419 2.135 . S
O412 Co411 2.061 . S
O412 C415 1.235 . S
C413 O416 1.238 . S
C413 O417 1.241 . S
C414 O407 1.247 . S
C414 O408 1.261 . S
C415 O410 1.259 . S
C415 O412 1.235 . S
O416 Co406 2.021 . S
O416 C413 1.238 . S
O417 Co411 2.052 . S
O417 C413 1.241 . S
O418 Co406 2.137 . S
O418 C409 1.247 . S
O419 Co406 2.244 . S
O419 C409 1.272 . S
O419 Co411 2.135 . S
Co420 O421 2.216 . S
Co420 O422 2.091 . S
Co420 O424 2.004 . S
Co420 O430 2.021 . S
Co420 O432 2.137 . S
Co420 O433 2.244 . S
O421 Co420 2.216 . S
O421 C428 1.247 . S
O422 Co420 2.091 . S
O422 C428 1.261 . S
C423 O432 1.247 . S
C423 O433 1.272 . S
O424 Co420 2.004 . S
O424 C429 1.259 . S
Co425 O426 2.061 . S
Co425 O431 2.052 . S
Co425 O433 2.135 . S
O426 Co425 2.061 . S
O426 C429 1.235 . S
C427 O430 1.238 . S
C427 O431 1.241 . S
C428 O421 1.247 . S
C428 O422 1.261 . S
C429 O424 1.259 . S
C429 O426 1.235 . S
O430 Co420 2.021 . S
O430 C427 1.238 . S
O431 Co425 2.052 . S
O431 C427 1.241 . S
O432 Co420 2.137 . S
O432 C423 1.247 . S
O433 Co420 2.244 . S
O433 C423 1.272 . S
O433 Co425 2.135 . S
Co434 O435 2.216 . S
Co434 O436 2.091 . S
Co434 O438 2.004 . S
Co434 O444 2.021 . S
Co434 O446 2.137 . S
Co434 O447 2.244 . S
O435 Co434 2.216 . S
O435 C442 1.247 . S
O436 Co434 2.091 . S
O436 C442 1.261 . S
C437 O446 1.247 . S
C437 O447 1.272 . S
O438 Co434 2.004 . S
O438 C443 1.259 . S
Co439 O440 2.061 . S
Co439 O445 2.052 . S
Co439 O447 2.135 . S
O440 Co439 2.061 . S
O440 C443 1.235 . S
C441 O444 1.238 . S
C441 O445 1.241 . S
C442 O435 1.247 . S
C442 O436 1.261 . S
C443 O438 1.259 . S
C443 O440 1.235 . S
O444 Co434 2.021 . S
O444 C441 1.238 . S
O445 Co439 2.052 . S
O445 C441 1.241 . S
O446 Co434 2.137 . S
O446 C437 1.247 . S
O447 Co434 2.244 . S
O447 C437 1.272 . S
O447 Co439 2.135 . S
Co448 O449 2.216 . S
Co448 O450 2.091 . S
Co448 O452 2.004 . S
Co448 O458 2.021 . S
Co448 O460 2.137 . S
Co448 O461 2.244 . S
O449 Co448 2.216 . S
O449 C456 1.247 . S
O450 Co448 2.091 . S
O450 C456 1.261 . S
C451 O460 1.247 . S
C451 O461 1.272 . S
O452 Co448 2.004 . S
O452 C457 1.259 . S
Co453 O454 2.061 . S
Co453 O459 2.052 . S
Co453 O461 2.135 . S
O454 Co453 2.061 . S
O454 C457 1.235 . S
C455 O458 1.238 . S
C455 O459 1.241 . S
C456 O449 1.247 . S
C456 O450 1.261 . S
C457 O452 1.259 . S
C457 O454 1.235 . S
O458 Co448 2.021 . S
O458 C455 1.238 . S
O459 Co453 2.052 . S
O459 C455 1.241 . S
O460 Co448 2.137 . S
O460 C451 1.247 . S
O461 Co448 2.244 . S
O461 C451 1.272 . S
O461 Co453 2.135 . S
Co462 O463 2.216 . S
Co462 O464 2.091 . S
Co462 O466 2.004 . S
Co462 O472 2.021 . S
Co462 O474 2.137 . S
Co462 O475 2.244 . S
O463 Co462 2.216 . S
O463 C470 1.247 . S
O464 Co462 2.091 . S
O464 C470 1.261 . S
C465 O474 1.247 . S
C465 O475 1.272 . S
O466 Co462 2.004 . S
O466 C471 1.259 . S
Co467 O468 2.061 . S
Co467 O473 2.052 . S
Co467 O475 2.135 . S
O468 Co467 2.061 . S
O468 C471 1.235 . S
C469 O472 1.238 . S
C469 O473 1.241 . S
C470 O463 1.247 . S
C470 O464 1.261 . S
C471 O466 1.259 . S
C471 O468 1.235 . S
O472 Co462 2.021 . S
O472 C469 1.238 . S
O473 Co467 2.052 . S
O473 C469 1.241 . S
O474 Co462 2.137 . S
O474 C465 1.247 . S
O475 Co462 2.244 . S
O475 C465 1.272 . S
O475 Co467 2.135 . S
Co476 O477 2.216 . S
Co476 O478 2.091 . S
Co476 O480 2.004 . S
Co476 O486 2.021 . S
Co476 O488 2.137 . S
Co476 O489 2.244 . S
O477 Co476 2.216 . S
O477 C484 1.247 . S
O478 Co476 2.091 . S
O478 C484 1.261 . S
C479 O488 1.247 . S
C479 O489 1.272 . S
O480 Co476 2.004 . S
O480 C485 1.259 . S
Co481 O482 2.061 . S
Co481 O487 2.052 . S
Co481 O489 2.135 . S
O482 Co481 2.061 . S
O482 C485 1.235 . S
C483 O486 1.238 . S
C483 O487 1.241 . S
C484 O477 1.247 . S
C484 O478 1.261 . S
C485 O480 1.259 . S
C485 O482 1.235 . S
O486 Co476 2.021 . S
O486 C483 1.238 . S
O487 Co481 2.052 . S
O487 C483 1.241 . S
O488 Co476 2.137 . S
O488 C479 1.247 . S
O489 Co476 2.244 . S
O489 C479 1.272 . S
O489 Co481 2.135 . S
Co490 O491 2.216 . S
Co490 O492 2.091 . S
Co490 O494 2.004 . S
Co490 O500 2.021 . S
Co490 O502 2.137 . S
Co490 O503 2.244 . S
O491 Co490 2.216 . S
O491 C498 1.247 . S
O492 Co490 2.091 . S
O492 C498 1.261 . S
C493 O502 1.247 . S
C493 O503 1.272 . S
O494 Co490 2.004 . S
O494 C499 1.259 . S
Co495 O496 2.061 . S
Co495 O501 2.052 . S
Co495 O503 2.135 . S
O496 Co495 2.061 . S
O496 C499 1.235 . S
C497 O500 1.238 . S
C497 O501 1.241 . S
C498 O491 1.247 . S
C498 O492 1.261 . S
C499 O494 1.259 . S
C499 O496 1.235 . S
O500 Co490 2.021 . S
O500 C497 1.238 . S
O501 Co495 2.052 . S
O501 C497 1.241 . S
O502 Co490 2.137 . S
O502 C493 1.247 . S
O503 Co490 2.244 . S
O503 C493 1.272 . S
O503 Co495 2.135 . S
Co504 O505 2.216 . S
Co504 O506 2.091 . S
Co504 O508 2.004 . S
Co504 O514 2.021 . S
Co504 O516 2.137 . S
Co504 O517 2.244 . S
O505 Co504 2.216 . S
O505 C512 1.247 . S
O506 Co504 2.091 . S
O506 C512 1.261 . S
C507 O516 1.247 . S
C507 O517 1.272 . S
O508 Co504 2.004 . S
O508 C513 1.259 . S
Co509 O510 2.061 . S
Co509 O515 2.052 . S
Co509 O517 2.135 . S
O510 Co509 2.061 . S
O510 C513 1.235 . S
C511 O514 1.238 . S
C511 O515 1.241 . S
C512 O505 1.247 . S
C512 O506 1.261 . S
C513 O508 1.259 . S
C513 O510 1.235 . S
O514 Co504 2.021 . S
O514 C511 1.238 . S
O515 Co509 2.052 . S
O515 C511 1.241 . S
O516 Co504 2.137 . S
O516 C507 1.247 . S
O517 Co504 2.244 . S
O517 C507 1.272 . S
O517 Co509 2.135 . S
Co518 O519 2.216 . S
Co518 O520 2.091 . S
Co518 O522 2.004 . S
Co518 O528 2.021 . S
Co518 O530 2.137 . S
Co518 O531 2.244 . S
O519 Co518 2.216 . S
O519 C526 1.247 . S
O520 Co518 2.091 . S
O520 C526 1.261 . S
C521 O530 1.247 . S
C521 O531 1.272 . S
O522 Co518 2.004 . S
O522 C527 1.259 . S
Co523 O524 2.061 . S
Co523 O529 2.052 . S
Co523 O531 2.135 . S
O524 Co523 2.061 . S
O524 C527 1.235 . S
C525 O528 1.238 . S
C525 O529 1.241 . S
C526 O519 1.247 . S
C526 O520 1.261 . S
C527 O522 1.259 . S
C527 O524 1.235 . S
O528 Co518 2.021 . S
O528 C525 1.238 . S
O529 Co523 2.052 . S
O529 C525 1.241 . S
O530 Co518 2.137 . S
O530 C521 1.247 . S
O531 Co518 2.244 . S
O531 C521 1.272 . S
O531 Co523 2.135 . S
Co532 O533 2.216 . S
Co532 O534 2.091 . S
Co532 O536 2.004 . S
Co532 O542 2.021 . S
Co532 O544 2.137 . S
Co532 O545 2.244 . S
O533 Co532 2.216 . S
O533 C540 1.247 . S
O534 Co532 2.091 . S
O534 C540 1.261 . S
C535 O544 1.247 . S
C535 O545 1.272 . S
O536 Co532 2.004 . S
O536 C541 1.259 . S
Co537 O538 2.061 . S
Co537 O543 2.052 . S
Co537 O545 2.135 . S
O538 Co537 2.061 . S
O538 C541 1.235 . S
C539 O542 1.238 . S
C539 O543 1.241 . S
C540 O533 1.247 . S
C540 O534 1.261 . S
C541 O536 1.259 . S
C541 O538 1.235 . S
O542 Co532 2.021 . S
O542 C539 1.238 . S
O543 Co537 2.052 . S
O543 C539 1.241 . S
O544 Co532 2.137 . S
O544 C535 1.247 . S
O545 Co532 2.244 . S
O545 C535 1.272 . S
O545 Co537 2.135 . S
Co546 O547 2.216 . S
Co546 O548 2.091 . S
Co546 O550 2.004 . S
Co546 O556 2.021 . S
Co546 O558 2.137 . S
Co546 O559 2.244 . S
O547 Co546 2.216 . S
O547 C554 1.247 . S
O548 Co546 2.091 . S
O548 C554 1.261 . S
C549 O558 1.247 . S
C549 O559 1.272 . S
O550 Co546 2.004 . S
O550 C555 1.259 . S
Co551 O552 2.061 . S
Co551 O557 2.052 . S
Co551 O559 2.135 . S
O552 Co551 2.061 . S
O552 C555 1.235 . S
C553 O556 1.238 . S
C553 O557 1.241 . S
C554 O547 1.247 . S
C554 O548 1.261 . S
C555 O550 1.259 . S
C555 O552 1.235 . S
O556 Co546 2.021 . S
O556 C553 1.238 . S
O557 Co551 2.052 . S
O557 C553 1.241 . S
O558 Co546 2.137 . S
O558 C549 1.247 . S
O559 Co546 2.244 . S
O559 C549 1.272 . S
O559 Co551 2.135 . S
Co560 O561 2.216 . S
Co560 O562 2.091 . S
Co560 O564 2.004 . S
Co560 O570 2.021 . S
Co560 O572 2.137 . S
Co560 O573 2.244 . S
O561 Co560 2.216 . S
O561 C568 1.247 . S
O562 Co560 2.091 . S
O562 C568 1.261 . S
C563 O572 1.247 . S
C563 O573 1.272 . S
O564 Co560 2.004 . S
O564 C569 1.259 . S
Co565 O566 2.061 . S
Co565 O571 2.052 . S
Co565 O573 2.135 . S
O566 Co565 2.061 . S
O566 C569 1.235 . S
C567 O570 1.238 . S
C567 O571 1.241 . S
C568 O561 1.247 . S
C568 O562 1.261 . S
C569 O564 1.259 . S
C569 O566 1.235 . S
O570 Co560 2.021 . S
O570 C567 1.238 . S
O571 Co565 2.052 . S
O571 C567 1.241 . S
O572 Co560 2.137 . S
O572 C563 1.247 . S
O573 Co560 2.244 . S
O573 C563 1.272 . S
O573 Co565 2.135 . S
Co574 O575 2.216 . S
Co574 O576 2.091 . S
Co574 O578 2.004 . S
Co574 O584 2.021 . S
Co574 O586 2.137 . S
Co574 O587 2.244 . S
O575 Co574 2.216 . S
O575 C582 1.247 . S
O576 Co574 2.091 . S
O576 C582 1.261 . S
C577 O586 1.247 . S
C577 O587 1.272 . S
O578 Co574 2.004 . S
O578 C583 1.259 . S
Co579 O580 2.061 . S
Co579 O585 2.052 . S
Co579 O587 2.135 . S
O580 Co579 2.061 . S
O580 C583 1.235 . S
C581 O584 1.238 . S
C581 O585 1.241 . S
C582 O575 1.247 . S
C582 O576 1.261 . S
C583 O578 1.259 . S
C583 O580 1.235 . S
O584 Co574 2.021 . S
O584 C581 1.238 . S
O585 Co579 2.052 . S
O585 C581 1.241 . S
O586 Co574 2.137 . S
O586 C577 1.247 . S
O587 Co574 2.244 . S
O587 C577 1.272 . S
O587 Co579 2.135 . S
Co588 O589 2.216 . S
Co588 O590 2.091 . S
Co588 O592 2.004 . S
Co588 O598 2.021 . S
Co588 O600 2.137 . S
Co588 O601 2.244 . S
O589 Co588 2.216 . S
O589 C596 1.247 . S
O590 Co588 2.091 . S
O590 C596 1.261 . S
C591 O600 1.247 . S
C591 O601 1.272 . S
O592 Co588 2.004 . S
O592 C597 1.259 . S
Co593 O594 2.061 . S
Co593 O599 2.052 . S
Co593 O601 2.135 . S
O594 Co593 2.061 . S
O594 C597 1.235 . S
C595 O598 1.238 . S
C595 O599 1.241 . S
C596 O589 1.247 . S
C596 O590 1.261 . S
C597 O592 1.259 . S
C597 O594 1.235 . S
O598 Co588 2.021 . S
O598 C595 1.238 . S
O599 Co593 2.052 . S
O599 C595 1.241 . S
O600 Co588 2.137 . S
O600 C591 1.247 . S
O601 Co588 2.244 . S
O601 C591 1.272 . S
O601 Co593 2.135 . S
Co602 O603 2.216 . S
Co602 O604 2.091 . S
Co602 O606 2.004 . S
Co602 O612 2.021 . S
Co602 O614 2.137 . S
Co602 O615 2.244 . S
O603 Co602 2.216 . S
O603 C610 1.247 . S
O604 Co602 2.091 . S
O604 C610 1.261 . S
C605 O614 1.247 . S
C605 O615 1.272 . S
O606 Co602 2.004 . S
O606 C611 1.259 . S
Co607 O608 2.061 . S
Co607 O613 2.052 . S
Co607 O615 2.135 . S
O608 Co607 2.061 . S
O608 C611 1.235 . S
C609 O612 1.238 . S
C609 O613 1.241 . S
C610 O603 1.247 . S
C610 O604 1.261 . S
C611 O606 1.259 . S
C611 O608 1.235 . S
O612 Co602 2.021 . S
O612 C609 1.238 . S
O613 Co607 2.052 . S
O613 C609 1.241 . S
O614 Co602 2.137 . S
O614 C605 1.247 . S
O615 Co602 2.244 . S
O615 C605 1.272 . S
O615 Co607 2.135 . S
Co616 O617 2.216 . S
Co616 O618 2.091 . S
Co616 O620 2.004 . S
Co616 O626 2.021 . S
Co616 O628 2.137 . S
Co616 O629 2.244 . S
O617 Co616 2.216 . S
O617 C624 1.247 . S
O618 Co616 2.091 . S
O618 C624 1.261 . S
C619 O628 1.247 . S
C619 O629 1.272 . S
O620 Co616 2.004 . S
O620 C625 1.259 . S
Co621 O622 2.061 . S
Co621 O627 2.052 . S
Co621 O629 2.135 . S
O622 Co621 2.061 . S
O622 C625 1.235 . S
C623 O626 1.238 . S
C623 O627 1.241 . S
C624 O617 1.247 . S
C624 O618 1.261 . S
C625 O620 1.259 . S
C625 O622 1.235 . S
O626 Co616 2.021 . S
O626 C623 1.238 . S
O627 Co621 2.052 . S
O627 C623 1.241 . S
O628 Co616 2.137 . S
O628 C619 1.247 . S
O629 Co616 2.244 . S
O629 C619 1.272 . S
O629 Co621 2.135 . S
Co630 O631 2.216 . S
Co630 O632 2.091 . S
Co630 O634 2.004 . S
Co630 O640 2.021 . S
Co630 O642 2.137 . S
Co630 O643 2.244 . S
O631 Co630 2.216 . S
O631 C638 1.247 . S
O632 Co630 2.091 . S
O632 C638 1.261 . S
C633 O642 1.247 . S
C633 O643 1.272 . S
O634 Co630 2.004 . S
O634 C639 1.259 . S
Co635 O636 2.061 . S
Co635 O641 2.052 . S
Co635 O643 2.135 . S
O636 Co635 2.061 . S
O636 C639 1.235 . S
C637 O640 1.238 . S
C637 O641 1.241 . S
C638 O631 1.247 . S
C638 O632 1.261 . S
C639 O634 1.259 . S
C639 O636 1.235 . S
O640 Co630 2.021 . S
O640 C637 1.238 . S
O641 Co635 2.052 . S
O641 C637 1.241 . S
O642 Co630 2.137 . S
O642 C633 1.247 . S
O643 Co630 2.244 . S
O643 C633 1.272 . S
O643 Co635 2.135 . S
Co644 O645 2.216 . S
Co644 O646 2.091 . S
Co644 O648 2.004 . S
Co644 O654 2.021 . S
Co644 O656 2.137 . S
Co644 O657 2.244 . S
O645 Co644 2.216 . S
O645 C652 1.247 . S
O646 Co644 2.091 . S
O646 C652 1.261 . S
C647 O656 1.247 . S
C647 O657 1.272 . S
O648 Co644 2.004 . S
O648 C653 1.259 . S
Co649 O650 2.061 . S
Co649 O655 2.052 . S
Co649 O657 2.135 . S
O650 Co649 2.061 . S
O650 C653 1.235 . S
C651 O654 1.238 . S
C651 O655 1.241 . S
C652 O645 1.247 . S
C652 O646 1.261 . S
C653 O648 1.259 . S
C653 O650 1.235 . S
O654 Co644 2.021 . S
O654 C651 1.238 . S
O655 Co649 2.052 . S
O655 C651 1.241 . S
O656 Co644 2.137 . S
O656 C647 1.247 . S
O657 Co644 2.244 . S
O657 C647 1.272 . S
O657 Co649 2.135 . S
Co658 O659 2.216 . S
Co658 O660 2.091 . S
Co658 O662 2.004 . S
Co658 O668 2.021 . S
Co658 O670 2.137 . S
Co658 O671 2.244 . S
O659 Co658 2.216 . S
O659 C666 1.247 . S
O660 Co658 2.091 . S
O660 C666 1.261 . S
C661 O670 1.247 . S
C661 O671 1.272 . S
O662 Co658 2.004 . S
O662 C667 1.259 . S
Co663 O664 2.061 . S
Co663 O669 2.052 . S
Co663 O671 2.135 . S
O664 Co663 2.061 . S
O664 C667 1.235 . S
C665 O668 1.238 . S
C665 O669 1.241 . S
C666 O659 1.247 . S
C666 O660 1.261 . S
C667 O662 1.259 . S
C667 O664 1.235 . S
O668 Co658 2.021 . S
O668 C665 1.238 . S
O669 Co663 2.052 . S
O669 C665 1.241 . S
O670 Co658 2.137 . S
O670 C661 1.247 . S
O671 Co658 2.244 . S
O671 C661 1.272 . S
O671 Co663 2.135 . S
Co672 O673 2.216 . S
Co672 O674 2.091 . S
Co672 O676 2.004 . S
Co672 O682 2.021 . S
Co672 O684 2.137 . S
Co672 O685 2.244 . S
O673 Co672 2.216 . S
O673 C680 1.247 . S
O674 Co672 2.091 . S
O674 C680 1.261 . S
C675 O684 1.247 . S
C675 O685 1.272 . S
O676 Co672 2.004 . S
O676 C681 1.259 . S
Co677 O678 2.061 . S
Co677 O683 2.052 . S
Co677 O685 2.135 . S
O678 Co677 2.061 . S
O678 C681 1.235 . S
C679 O682 1.238 . S
C679 O683 1.241 . S
C680 O673 1.247 . S
C680 O674 1.261 . S
C681 O676 1.259 . S
C681 O678 1.235 . S
O682 Co672 2.021 . S
O682 C679 1.238 . S
O683 Co677 2.052 . S
O683 C679 1.241 . S
O684 Co672 2.137 . S
O684 C675 1.247 . S
O685 Co672 2.244 . S
O685 C675 1.272 . S
O685 Co677 2.135 . S
Co686 O687 2.216 . S
Co686 O688 2.091 . S
Co686 O690 2.004 . S
Co686 O696 2.021 . S
Co686 O698 2.137 . S
Co686 O699 2.244 . S
O687 Co686 2.216 . S
O687 C694 1.247 . S
O688 Co686 2.091 . S
O688 C694 1.261 . S
C689 O698 1.247 . S
C689 O699 1.272 . S
O690 Co686 2.004 . S
O690 C695 1.259 . S
Co691 O692 2.061 . S
Co691 O697 2.052 . S
Co691 O699 2.135 . S
O692 Co691 2.061 . S
O692 C695 1.235 . S
C693 O696 1.238 . S
C693 O697 1.241 . S
C694 O687 1.247 . S
C694 O688 1.261 . S
C695 O690 1.259 . S
C695 O692 1.235 . S
O696 Co686 2.021 . S
O696 C693 1.238 . S
O697 Co691 2.052 . S
O697 C693 1.241 . S
O698 Co686 2.137 . S
O698 C689 1.247 . S
O699 Co686 2.244 . S
O699 C689 1.272 . S
O699 Co691 2.135 . S
Co700 O701 2.216 . S
Co700 O702 2.091 . S
Co700 O704 2.004 . S
Co700 O710 2.021 . S
Co700 O712 2.137 . S
Co700 O713 2.244 . S
O701 Co700 2.216 . S
O701 C708 1.247 . S
O702 Co700 2.091 . S
O702 C708 1.261 . S
C703 O712 1.247 . S
C703 O713 1.272 . S
O704 Co700 2.004 . S
O704 C709 1.259 . S
Co705 O706 2.061 . S
Co705 O711 2.052 . S
Co705 O713 2.135 . S
O706 Co705 2.061 . S
O706 C709 1.235 . S
C707 O710 1.238 . S
C707 O711 1.241 . S
C708 O701 1.247 . S
C708 O702 1.261 . S
C709 O704 1.259 . S
C709 O706 1.235 . S
O710 Co700 2.021 . S
O710 C707 1.238 . S
O711 Co705 2.052 . S
O711 C707 1.241 . S
O712 Co700 2.137 . S
O712 C703 1.247 . S
O713 Co700 2.244 . S
O713 C703 1.272 . S
O713 Co705 2.135 . S
Co714 O715 2.216 . S
Co714 O716 2.091 . S
Co714 O718 2.004 . S
Co714 O724 2.021 . S
Co714 O726 2.137 . S
Co714 O727 2.244 . S
O715 Co714 2.216 . S
O715 C722 1.247 . S
O716 Co714 2.091 . S
O716 C722 1.261 . S
C717 O726 1.247 . S
C717 O727 1.272 . S
O718 Co714 2.004 . S
O718 C723 1.259 . S
Co719 O720 2.061 . S
Co719 O725 2.052 . S
Co719 O727 2.135 . S
O720 Co719 2.061 . S
O720 C723 1.235 . S
C721 O724 1.238 . S
C721 O725 1.241 . S
C722 O715 1.247 . S
C722 O716 1.261 . S
C723 O718 1.259 . S
C723 O720 1.235 . S
O724 Co714 2.021 . S
O724 C721 1.238 . S
O725 Co719 2.052 . S
O725 C721 1.241 . S
O726 Co714 2.137 . S
O726 C717 1.247 . S
O727 Co714 2.244 . S
O727 C717 1.272 . S
O727 Co719 2.135 . S
Co728 O729 2.216 . S
Co728 O730 2.091 . S
Co728 O732 2.004 . S
Co728 O738 2.021 . S
Co728 O740 2.137 . S
Co728 O741 2.244 . S
O729 Co728 2.216 . S
O729 C736 1.247 . S
O730 Co728 2.091 . S
O730 C736 1.261 . S
C731 O740 1.247 . S
C731 O741 1.272 . S
O732 Co728 2.004 . S
O732 C737 1.259 . S
Co733 O734 2.061 . S
Co733 O739 2.052 . S
Co733 O741 2.135 . S
O734 Co733 2.061 . S
O734 C737 1.235 . S
C735 O738 1.238 . S
C735 O739 1.241 . S
C736 O729 1.247 . S
C736 O730 1.261 . S
C737 O732 1.259 . S
C737 O734 1.235 . S
O738 Co728 2.021 . S
O738 C735 1.238 . S
O739 Co733 2.052 . S
O739 C735 1.241 . S
O740 Co728 2.137 . S
O740 C731 1.247 . S
O741 Co728 2.244 . S
O741 C731 1.272 . S
O741 Co733 2.135 . S
Co742 O743 2.216 . S
Co742 O744 2.091 . S
Co742 O746 2.004 . S
Co742 O752 2.021 . S
Co742 O754 2.137 . S
Co742 O755 2.244 . S
O743 Co742 2.216 . S
O743 C750 1.247 . S
O744 Co742 2.091 . S
O744 C750 1.261 . S
C745 O754 1.247 . S
C745 O755 1.272 . S
O746 Co742 2.004 . S
O746 C751 1.259 . S
Co747 O748 2.061 . S
Co747 O753 2.052 . S
Co747 O755 2.135 . S
O748 Co747 2.061 . S
O748 C751 1.235 . S
C749 O752 1.238 . S
C749 O753 1.241 . S
C750 O743 1.247 . S
C750 O744 1.261 . S
C751 O746 1.259 . S
C751 O748 1.235 . S
O752 Co742 2.021 . S
O752 C749 1.238 . S
O753 Co747 2.052 . S
O753 C749 1.241 . S
O754 Co742 2.137 . S
O754 C745 1.247 . S
O755 Co742 2.244 . S
O755 C745 1.272 . S
O755 Co747 2.135 . S
Co756 O757 2.216 . S
Co756 O758 2.091 . S
Co756 O760 2.004 . S
Co756 O766 2.021 . S
Co756 O768 2.137 . S
Co756 O769 2.244 . S
O757 Co756 2.216 . S
O757 C764 1.247 . S
O758 Co756 2.091 . S
O758 C764 1.261 . S
C759 O768 1.247 . S
C759 O769 1.272 . S
O760 Co756 2.004 . S
O760 C765 1.259 . S
Co761 O762 2.061 . S
Co761 O767 2.052 . S
Co761 O769 2.135 . S
O762 Co761 2.061 . S
O762 C765 1.235 . S
C763 O766 1.238 . S
C763 O767 1.241 . S
C764 O757 1.247 . S
C764 O758 1.261 . S
C765 O760 1.259 . S
C765 O762 1.235 . S
O766 Co756 2.021 . S
O766 C763 1.238 . S
O767 Co761 2.052 . S
O767 C763 1.241 . S
O768 Co756 2.137 . S
O768 C759 1.247 . S
O769 Co756 2.244 . S
O769 C759 1.272 . S
O769 Co761 2.135 . S
Co770 O771 2.216 . S
Co770 O772 2.091 . S
Co770 O774 2.004 . S
Co770 O780 2.021 . S
Co770 O782 2.137 . S
Co770 O783 2.244 . S
O771 Co770 2.216 . S
O771 C778 1.247 . S
O772 Co770 2.091 . S
O772 C778 1.261 . S
C773 O782 1.247 . S
C773 O783 1.272 . S
O774 Co770 2.004 . S
O774 C779 1.259 . S
Co775 O776 2.061 . S
Co775 O781 2.052 . S
Co775 O783 2.135 . S
O776 Co775 2.061 . S
O776 C779 1.235 . S
C777 O780 1.238 . S
C777 O781 1.241 . S
C778 O771 1.247 . S
C778 O772 1.261 . S
C779 O774 1.259 . S
C779 O776 1.235 . S
O780 Co770 2.021 . S
O780 C777 1.238 . S
O781 Co775 2.052 . S
O781 C777 1.241 . S
O782 Co770 2.137 . S
O782 C773 1.247 . S
O783 Co770 2.244 . S
O783 C773 1.272 . S
O783 Co775 2.135 . S
Co784 O785 2.216 . S
Co784 O786 2.091 . S
Co784 O788 2.004 . S
Co784 O794 2.021 . S
Co784 O796 2.137 . S
Co784 O797 2.244 . S
O785 Co784 2.216 . S
O785 C792 1.247 . S
O786 Co784 2.091 . S
O786 C792 1.261 . S
C787 O796 1.247 . S
C787 O797 1.272 . S
O788 Co784 2.004 . S
O788 C793 1.259 . S
Co789 O790 2.061 . S
Co789 O795 2.052 . S
Co789 O797 2.135 . S
O790 Co789 2.061 . S
O790 C793 1.235 . S
C791 O794 1.238 . S
C791 O795 1.241 . S
C792 O785 1.247 . S
C792 O786 1.261 . S
C793 O788 1.259 . S
C793 O790 1.235 . S
O794 Co784 2.021 . S
O794 C791 1.238 . S
O795 Co789 2.052 . S
O795 C791 1.241 . S
O796 Co784 2.137 . S
O796 C787 1.247 . S
O797 Co784 2.244 . S
O797 C787 1.272 . S
O797 Co789 2.135 . S
Co798 O799 2.216 . S
Co798 O800 2.091 . S
Co798 O802 2.004 . S
Co798 O808 2.021 . S
Co798 O810 2.137 . S
Co798 O811 2.244 . S
O799 Co798 2.216 . S
O799 C806 1.247 . S
O800 Co798 2.091 . S
O800 C806 1.261 . S
C801 O810 1.247 . S
C801 O811 1.272 . S
O802 Co798 2.004 . S
O802 C807 1.259 . S
Co803 O804 2.061 . S
Co803 O809 2.052 . S
Co803 O811 2.135 . S
O804 Co803 2.061 . S
O804 C807 1.235 . S
C805 O808 1.238 . S
C805 O809 1.241 . S
C806 O799 1.247 . S
C806 O800 1.261 . S
C807 O802 1.259 . S
C807 O804 1.235 . S
O808 Co798 2.021 . S
O808 C805 1.238 . S
O809 Co803 2.052 . S
O809 C805 1.241 . S
O810 Co798 2.137 . S
O810 C801 1.247 . S
O811 Co798 2.244 . S
O811 C801 1.272 . S
O811 Co803 2.135 . S
Co812 O813 2.216 . S
Co812 O814 2.091 . S
Co812 O816 2.004 . S
Co812 O822 2.021 . S
Co812 O824 2.137 . S
Co812 O825 2.244 . S
O813 Co812 2.216 . S
O813 C820 1.247 . S
O814 Co812 2.091 . S
O814 C820 1.261 . S
C815 O824 1.247 . S
C815 O825 1.272 . S
O816 Co812 2.004 . S
O816 C821 1.259 . S
Co817 O818 2.061 . S
Co817 O823 2.052 . S
Co817 O825 2.135 . S
O818 Co817 2.061 . S
O818 C821 1.235 . S
C819 O822 1.238 . S
C819 O823 1.241 . S
C820 O813 1.247 . S
C820 O814 1.261 . S
C821 O816 1.259 . S
C821 O818 1.235 . S
O822 Co812 2.021 . S
O822 C819 1.238 . S
O823 Co817 2.052 . S
O823 C819 1.241 . S
O824 Co812 2.137 . S
O824 C815 1.247 . S
O825 Co812 2.244 . S
O825 C815 1.272 . S
O825 Co817 2.135 . S
Co826 O827 2.216 . S
Co826 O828 2.091 . S
Co826 O830 2.004 . S
Co826 O836 2.021 . S
Co826 O838 2.137 . S
Co826 O839 2.244 . S
O827 Co826 2.216 . S
O827 C834 1.247 . S
O828 Co826 2.091 . S
O828 C834 1.261 . S
C829 O838 1.247 . S
C829 O839 1.272 . S
O830 Co826 2.004 . S
O830 C835 1.259 . S
Co831 O832 2.061 . S
Co831 O837 2.052 . S
Co831 O839 2.135 . S
O832 Co831 2.061 . S
O832 C835 1.235 . S
C833 O836 1.238 . S
C833 O837 1.241 . S
C834 O827 1.247 . S
C834 O828 1.261 . S
C835 O830 1.259 . S
C835 O832 1.235 . S
O836 Co826 2.021 . S
O836 C833 1.238 . S
O837 Co831 2.052 . S
O837 C833 1.241 . S
O838 Co826 2.137 . S
O838 C829 1.247 . S
O839 Co826 2.244 . S
O839 C829 1.272 . S
O839 Co831 2.135 . S
Co840 O841 2.216 . S
Co840 O842 2.091 . S
Co840 O844 2.004 . S
Co840 O850 2.021 . S
Co840 O852 2.137 . S
Co840 O853 2.244 . S
O841 Co840 2.216 . S
O841 C848 1.247 . S
O842 Co840 2.091 . S
O842 C848 1.261 . S
C843 O852 1.247 . S
C843 O853 1.272 . S
O844 Co840 2.004 . S
O844 C849 1.259 . S
Co845 O846 2.061 . S
Co845 O851 2.052 . S
Co845 O853 2.135 . S
O846 Co845 2.061 . S
O846 C849 1.235 . S
C847 O850 1.238 . S
C847 O851 1.241 . S
C848 O841 1.247 . S
C848 O842 1.261 . S
C849 O844 1.259 . S
C849 O846 1.235 . S
O850 Co840 2.021 . S
O850 C847 1.238 . S
O851 Co845 2.052 . S
O851 C847 1.241 . S
O852 Co840 2.137 . S
O852 C843 1.247 . S
O853 Co840 2.244 . S
O853 C843 1.272 . S
O853 Co845 2.135 . S
Co854 O855 2.216 . S
Co854 O856 2.091 . S
Co854 O858 2.004 . S
Co854 O864 2.021 . S
Co854 O866 2.137 . S
Co854 O867 2.244 . S
O855 Co854 2.216 . S
O855 C862 1.247 . S
O856 Co854 2.091 . S
O856 C862 1.261 . S
C857 O866 1.247 . S
C857 O867 1.272 . S
O858 Co854 2.004 . S
O858 C863 1.259 . S
Co859 O860 2.061 . S
Co859 O865 2.052 . S
Co859 O867 2.135 . S
O860 Co859 2.061 . S
O860 C863 1.235 . S
C861 O864 1.238 . S
C861 O865 1.241 . S
C862 O855 1.247 . S
C862 O856 1.261 . S
C863 O858 1.259 . S
C863 O860 1.235 . S
O864 Co854 2.021 . S
O864 C861 1.238 . S
O865 Co859 2.052 . S
O865 C861 1.241 . S
O866 Co854 2.137 . S
O866 C857 1.247 . S
O867 Co854 2.244 . S
O867 C857 1.272 . S
O867 Co859 2.135 . S
Co868 O869 2.216 . S
Co868 O870 2.091 . S
Co868 O872 2.004 . S
Co868 O878 2.021 . S
Co868 O880 2.137 . S
Co868 O881 2.244 . S
O869 Co868 2.216 . S
O869 C876 1.247 . S
O870 Co868 2.091 . S
O870 C876 1.261 . S
C871 O880 1.247 . S
C871 O881 1.272 . S
O872 Co868 2.004 . S
O872 C877 1.259 . S
Co873 O874 2.061 . S
Co873 O879 2.052 . S
Co873 O881 2.135 . S
O874 Co873 2.061 . S
O874 C877 1.235 . S
C875 O878 1.238 . S
C875 O879 1.241 . S
C876 O869 1.247 . S
C876 O870 1.261 . S
C877 O872 1.259 . S
C877 O874 1.235 . S
O878 Co868 2.021 . S
O878 C875 1.238 . S
O879 Co873 2.052 . S
O879 C875 1.241 . S
O880 Co868 2.137 . S
O880 C871 1.247 . S
O881 Co868 2.244 . S
O881 C871 1.272 . S
O881 Co873 2.135 . S
Co882 O883 2.216 . S
Co882 O884 2.091 . S
Co882 O886 2.004 . S
Co882 O892 2.021 . S
Co882 O894 2.137 . S
Co882 O895 2.244 . S
O883 Co882 2.216 . S
O883 C890 1.247 . S
O884 Co882 2.091 . S
O884 C890 1.261 . S
C885 O894 1.247 . S
C885 O895 1.272 . S
O886 Co882 2.004 . S
O886 C891 1.259 . S
Co887 O888 2.061 . S
Co887 O893 2.052 . S
Co887 O895 2.135 . S
O888 Co887 2.061 . S
O888 C891 1.235 . S
C889 O892 1.238 . S
C889 O893 1.241 . S
C890 O883 1.247 . S
C890 O884 1.261 . S
C891 O886 1.259 . S
C891 O888 1.235 . S
O892 Co882 2.021 . S
O892 C889 1.238 . S
O893 Co887 2.052 . S
O893 C889 1.241 . S
O894 Co882 2.137 . S
O894 C885 1.247 . S
O895 Co882 2.244 . S
O895 C885 1.272 . S
O895 Co887 2.135 . S
Co896 O897 2.216 . S
Co896 O898 2.091 . S
Co896 O900 2.004 . S
Co896 O906 2.021 . S
Co896 O908 2.137 . S
Co896 O909 2.244 . S
O897 Co896 2.216 . S
O897 C904 1.247 . S
O898 Co896 2.091 . S
O898 C904 1.261 . S
C899 O908 1.247 . S
C899 O909 1.272 . S
O900 Co896 2.004 . S
O900 C905 1.259 . S
Co901 O902 2.061 . S
Co901 O907 2.052 . S
Co901 O909 2.135 . S
O902 Co901 2.061 . S
O902 C905 1.235 . S
C903 O906 1.238 . S
C903 O907 1.241 . S
C904 O897 1.247 . S
C904 O898 1.261 . S
C905 O900 1.259 . S
C905 O902 1.235 . S
O906 Co896 2.021 . S
O906 C903 1.238 . S
O907 Co901 2.052 . S
O907 C903 1.241 . S
O908 Co896 2.137 . S
O908 C899 1.247 . S
O909 Co896 2.244 . S
O909 C899 1.272 . S
O909 Co901 2.135 . S
Co910 O911 2.216 . S
Co910 O912 2.091 . S
Co910 O914 2.004 . S
Co910 O920 2.021 . S
Co910 O922 2.137 . S
Co910 O923 2.244 . S
O911 Co910 2.216 . S
O911 C918 1.247 . S
O912 Co910 2.091 . S
O912 C918 1.261 . S
C913 O922 1.247 . S
C913 O923 1.272 . S
O914 Co910 2.004 . S
O914 C919 1.259 . S
Co915 O916 2.061 . S
Co915 O921 2.052 . S
Co915 O923 2.135 . S
O916 Co915 2.061 . S
O916 C919 1.235 . S
C917 O920 1.238 . S
C917 O921 1.241 . S
C918 O911 1.247 . S
C918 O912 1.261 . S
C919 O914 1.259 . S
C919 O916 1.235 . S
O920 Co910 2.021 . S
O920 C917 1.238 . S
O921 Co915 2.052 . S
O921 C917 1.241 . S
O922 Co910 2.137 . S
O922 C913 1.247 . S
O923 Co910 2.244 . S
O923 C913 1.272 . S
O923 Co915 2.135 . S
Co924 O925 2.216 . S
Co924 O926 2.091 . S
Co924 O928 2.004 . S
Co924 O934 2.021 . S
Co924 O936 2.137 . S
Co924 O937 2.244 . S
O925 Co924 2.216 . S
O925 C932 1.247 . S
O926 Co924 2.091 . S
O926 C932 1.261 . S
C927 O936 1.247 . S
C927 O937 1.272 . S
O928 Co924 2.004 . S
O928 C933 1.259 . S
Co929 O930 2.061 . S
Co929 O935 2.052 . S
Co929 O937 2.135 . S
O930 Co929 2.061 . S
O930 C933 1.235 . S
C931 O934 1.238 . S
C931 O935 1.241 . S
C932 O925 1.247 . S
C932 O926 1.261 . S
C933 O928 1.259 . S
C933 O930 1.235 . S
O934 Co924 2.021 . S
O934 C931 1.238 . S
O935 Co929 2.052 . S
O935 C931 1.241 . S
O936 Co924 2.137 . S
O936 C927 1.247 . S
O937 Co924 2.244 . S
O937 C927 1.272 . S
O937 Co929 2.135 . S
Co938 O939 2.216 . S
Co938 O940 2.091 . S
Co938 O942 2.004 . S
Co938 O948 2.021 . S
Co938 O950 2.137 . S
Co938 O951 2.244 . S
O939 Co938 2.216 . S
O939 C946 1.247 . S
O940 Co938 2.091 . S
O940 C946 1.261 . S
C941 O950 1.247 . S
C941 O951 1.272 . S
O942 Co938 2.004 . S
O942 C947 1.259 . S
Co943 O944 2.061 . S
Co943 O949 2.052 . S
Co943 O951 2.135 . S
O944 Co943 2.061 . S
O944 C947 1.235 . S
C945 O948 1.238 . S
C945 O949 1.241 . S
C946 O939 1.247 . S
C946 O940 1.261 . S
C947 O942 1.259 . S
C947 O944 1.235 . S
O948 Co938 2.021 . S
O948 C945 1.238 . S
O949 Co943 2.052 . S
O949 C945 1.241 . S
O950 Co938 2.137 . S
O950 C941 1.247 . S
O951 Co938 2.244 . S
O951 C941 1.272 . S
O951 Co943 2.135 . S
Co952 O953 2.216 . S
Co952 O954 2.091 . S
Co952 O956 2.004 . S
Co952 O962 2.021 . S
Co952 O964 2.137 . S
Co952 O965 2.244 . S
O953 Co952 2.216 . S
O953 C960 1.247 . S
O954 Co952 2.091 . S
O954 C960 1.261 . S
C955 O964 1.247 . S
C955 O965 1.272 . S
O956 Co952 2.004 . S
O956 C961 1.259 . S
Co957 O958 2.061 . S
Co957 O963 2.052 . S
Co957 O965 2.135 . S
O958 Co957 2.061 . S
O958 C961 1.235 . S
C959 O962 1.238 . S
C959 O963 1.241 . S
C960 O953 1.247 . S
C960 O954 1.261 . S
C961 O956 1.259 . S
C961 O958 1.235 . S
O962 Co952 2.021 . S
O962 C959 1.238 . S
O963 Co957 2.052 . S
O963 C959 1.241 . S
O964 Co952 2.137 . S
O964 C955 1.247 . S
O965 Co952 2.244 . S
O965 C955 1.272 . S
O965 Co957 2.135 . S
Co966 O967 2.216 . S
Co966 O968 2.091 . S
Co966 O970 2.004 . S
Co966 O976 2.021 . S
Co966 O978 2.137 . S
Co966 O979 2.244 . S
O967 Co966 2.216 . S
O967 C974 1.247 . S
O968 Co966 2.091 . S
O968 C974 1.261 . S
C969 O978 1.247 . S
C969 O979 1.272 . S
O970 Co966 2.004 . S
O970 C975 1.259 . S
Co971 O972 2.061 . S
Co971 O977 2.052 . S
Co971 O979 2.135 . S
O972 Co971 2.061 . S
O972 C975 1.235 . S
C973 O976 1.238 . S
C973 O977 1.241 . S
C974 O967 1.247 . S
C974 O968 1.261 . S
C975 O970 1.259 . S
C975 O972 1.235 . S
O976 Co966 2.021 . S
O976 C973 1.238 . S
O977 Co971 2.052 . S
O977 C973 1.241 . S
O978 Co966 2.137 . S
O978 C969 1.247 . S
O979 Co966 2.244 . S
O979 C969 1.272 . S
O979 Co971 2.135 . S
Co980 O981 2.216 . S
Co980 O982 2.091 . S
Co980 O984 2.004 . S
Co980 O990 2.021 . S
Co980 O992 2.137 . S
Co980 O993 2.244 . S
O981 Co980 2.216 . S
O981 C988 1.247 . S
O982 Co980 2.091 . S
O982 C988 1.261 . S
C983 O992 1.247 . S
C983 O993 1.272 . S
O984 Co980 2.004 . S
O984 C989 1.259 . S
Co985 O986 2.061 . S
Co985 O991 2.052 . S
Co985 O993 2.135 . S
O986 Co985 2.061 . S
O986 C989 1.235 . S
C987 O990 1.238 . S
C987 O991 1.241 . S
C988 O981 1.247 . S
C988 O982 1.261 . S
C989 O984 1.259 . S
C989 O986 1.235 . S
O990 Co980 2.021 . S
O990 C987 1.238 . S
O991 Co985 2.052 . S
O991 C987 1.241 . S
O992 Co980 2.137 . S
O992 C983 1.247 . S
O993 Co980 2.244 . S
O993 C983 1.272 . S
O993 Co985 2.135 . S
Co994 O995 2.216 . S
Co994 O996 2.091 . S
Co994 O998 2.004 . S
Co994 O1004 2.021 . S
Co994 O1006 2.137 . S
Co994 O1007 2.244 . S
O995 Co994 2.216 . S
O995 C1002 1.247 . S
O996 Co994 2.091 . S
O996 C1002 1.261 . S
C997 O1006 1.247 . S
C997 O1007 1.272 . S
O998 Co994 2.004 . S
O998 C1003 1.259 . S
Co999 O1000 2.061 . S
Co999 O1005 2.052 . S
Co999 O1007 2.135 . S
O1000 Co999 2.061 . S
O1000 C1003 1.235 . S
C1001 O1004 1.238 . S
C1001 O1005 1.241 . S
C1002 O995 1.247 . S
C1002 O996 1.261 . S
C1003 O998 1.259 . S
C1003 O1000 1.235 . S
O1004 Co994 2.021 . S
O1004 C1001 1.238 . S
O1005 Co999 2.052 . S
O1005 C1001 1.241 . S
O1006 Co994 2.137 . S
O1006 C997 1.247 . S
O1007 Co994 2.244 . S
O1007 C997 1.272 . S
O1007 Co999 2.135 . S
Co1008 O1009 2.216 . S
Co1008 O1010 2.091 . S
Co1008 O1012 2.004 . S
Co1008 O1018 2.021 . S
Co1008 O1020 2.137 . S
Co1008 O1021 2.244 . S
O1009 Co1008 2.216 . S
O1009 C1016 1.247 . S
O1010 Co1008 2.091 . S
O1010 C1016 1.261 . S
C1011 O1020 1.247 . S
C1011 O1021 1.272 . S
O1012 Co1008 2.004 . S
O1012 C1017 1.259 . S
Co1013 O1014 2.061 . S
Co1013 O1019 2.052 . S
Co1013 O1021 2.135 . S
O1014 Co1013 2.061 . S
O1014 C1017 1.235 . S
C1015 O1018 1.238 . S
C1015 O1019 1.241 . S
C1016 O1009 1.247 . S
C1016 O1010 1.261 . S
C1017 O1012 1.259 . S
C1017 O1014 1.235 . S
O1018 Co1008 2.021 . S
O1018 C1015 1.238 . S
O1019 Co1013 2.052 . S
O1019 C1015 1.241 . S
O1020 Co1008 2.137 . S
O1020 C1011 1.247 . S
O1021 Co1008 2.244 . S
O1021 C1011 1.272 . S
O1021 Co1013 2.135 . S
Co1022 O1023 2.216 . S
Co1022 O1024 2.091 . S
Co1022 O1026 2.004 . S
Co1022 O1032 2.021 . S
Co1022 O1034 2.137 . S
Co1022 O1035 2.244 . S
O1023 Co1022 2.216 . S
O1023 C1030 1.247 . S
O1024 Co1022 2.091 . S
O1024 C1030 1.261 . S
C1025 O1034 1.247 . S
C1025 O1035 1.272 . S
O1026 Co1022 2.004 . S
O1026 C1031 1.259 . S
Co1027 O1028 2.061 . S
Co1027 O1033 2.052 . S
Co1027 O1035 2.135 . S
O1028 Co1027 2.061 . S
O1028 C1031 1.235 . S
C1029 O1032 1.238 . S
C1029 O1033 1.241 . S
C1030 O1023 1.247 . S
C1030 O1024 1.261 . S
C1031 O1026 1.259 . S
C1031 O1028 1.235 . S
O1032 Co1022 2.021 . S
O1032 C1029 1.238 . S
O1033 Co1027 2.052 . S
O1033 C1029 1.241 . S
O1034 Co1022 2.137 . S
O1034 C1025 1.247 . S
O1035 Co1022 2.244 . S
O1035 C1025 1.272 . S
O1035 Co1027 2.135 . S
Co1036 O1037 2.216 . S
Co1036 O1038 2.091 . S
Co1036 O1040 2.004 . S
Co1036 O1046 2.021 . S
Co1036 O1048 2.137 . S
Co1036 O1049 2.244 . S
O1037 Co1036 2.216 . S
O1037 C1044 1.247 . S
O1038 Co1036 2.091 . S
O1038 C1044 1.261 . S
C1039 O1048 1.247 . S
C1039 O1049 1.272 . S
O1040 Co1036 2.004 . S
O1040 C1045 1.259 . S
Co1041 O1042 2.061 . S
Co1041 O1047 2.052 . S
Co1041 O1049 2.135 . S
O1042 Co1041 2.061 . S
O1042 C1045 1.235 . S
C1043 O1046 1.238 . S
C1043 O1047 1.241 . S
C1044 O1037 1.247 . S
C1044 O1038 1.261 . S
C1045 O1040 1.259 . S
C1045 O1042 1.235 . S
O1046 Co1036 2.021 . S
O1046 C1043 1.238 . S
O1047 Co1041 2.052 . S
O1047 C1043 1.241 . S
O1048 Co1036 2.137 . S
O1048 C1039 1.247 . S
O1049 Co1036 2.244 . S
O1049 C1039 1.272 . S
O1049 Co1041 2.135 . S
Co1050 O1051 2.216 . S
Co1050 O1052 2.091 . S
Co1050 O1054 2.004 . S
Co1050 O1060 2.021 . S
Co1050 O1062 2.137 . S
Co1050 O1063 2.244 . S
O1051 Co1050 2.216 . S
O1051 C1058 1.247 . S
O1052 Co1050 2.091 . S
O1052 C1058 1.261 . S
C1053 O1062 1.247 . S
C1053 O1063 1.272 . S
O1054 Co1050 2.004 . S
O1054 C1059 1.259 . S
Co1055 O1056 2.061 . S
Co1055 O1061 2.052 . S
Co1055 O1063 2.135 . S
O1056 Co1055 2.061 . S
O1056 C1059 1.235 . S
C1057 O1060 1.238 . S
C1057 O1061 1.241 . S
C1058 O1051 1.247 . S
C1058 O1052 1.261 . S
C1059 O1054 1.259 . S
C1059 O1056 1.235 . S
O1060 Co1050 2.021 . S
O1060 C1057 1.238 . S
O1061 Co1055 2.052 . S
O1061 C1057 1.241 . S
O1062 Co1050 2.137 . S
O1062 C1053 1.247 . S
O1063 Co1050 2.244 . S
O1063 C1053 1.272 . S
O1063 Co1055 2.135 . S
Co1064 O1065 2.216 . S
Co1064 O1066 2.091 . S
Co1064 O1068 2.004 . S
Co1064 O1074 2.021 . S
Co1064 O1076 2.137 . S
Co1064 O1077 2.244 . S
O1065 Co1064 2.216 . S
O1065 C1072 1.247 . S
O1066 Co1064 2.091 . S
O1066 C1072 1.261 . S
C1067 O1076 1.247 . S
C1067 O1077 1.272 . S
O1068 Co1064 2.004 . S
O1068 C1073 1.259 . S
Co1069 O1070 2.061 . S
Co1069 O1075 2.052 . S
Co1069 O1077 2.135 . S
O1070 Co1069 2.061 . S
O1070 C1073 1.235 . S
C1071 O1074 1.238 . S
C1071 O1075 1.241 . S
C1072 O1065 1.247 . S
C1072 O1066 1.261 . S
C1073 O1068 1.259 . S
C1073 O1070 1.235 . S
O1074 Co1064 2.021 . S
O1074 C1071 1.238 . S
O1075 Co1069 2.052 . S
O1075 C1071 1.241 . S
O1076 Co1064 2.137 . S
O1076 C1067 1.247 . S
O1077 Co1064 2.244 . S
O1077 C1067 1.272 . S
O1077 Co1069 2.135 . S
Co1078 O1079 2.216 . S
Co1078 O1080 2.091 . S
Co1078 O1082 2.004 . S
Co1078 O1088 2.021 . S
Co1078 O1090 2.137 . S
Co1078 O1091 2.244 . S
O1079 Co1078 2.216 . S
O1079 C1086 1.247 . S
O1080 Co1078 2.091 . S
O1080 C1086 1.261 . S
C1081 O1090 1.247 . S
C1081 O1091 1.272 . S
O1082 Co1078 2.004 . S
O1082 C1087 1.259 . S
Co1083 O1084 2.061 . S
Co1083 O1089 2.052 . S
Co1083 O1091 2.135 . S
O1084 Co1083 2.061 . S
O1084 C1087 1.235 . S
C1085 O1088 1.238 . S
C1085 O1089 1.241 . S
C1086 O1079 1.247 . S
C1086 O1080 1.261 . S
C1087 O1082 1.259 . S
C1087 O1084 1.235 . S
O1088 Co1078 2.021 . S
O1088 C1085 1.238 . S
O1089 Co1083 2.052 . S
O1089 C1085 1.241 . S
O1090 Co1078 2.137 . S
O1090 C1081 1.247 . S
O1091 Co1078 2.244 . S
O1091 C1081 1.272 . S
O1091 Co1083 2.135 . S
Co1092 O1093 2.216 . S
Co1092 O1094 2.091 . S
Co1092 O1096 2.004 . S
Co1092 O1102 2.021 . S
Co1092 O1104 2.137 . S
Co1092 O1105 2.244 . S
O1093 Co1092 2.216 . S
O1093 C1100 1.247 . S
O1094 Co1092 2.091 . S
O1094 C1100 1.261 . S
C1095 O1104 1.247 . S
C1095 O1105 1.272 . S
O1096 Co1092 2.004 . S
O1096 C1101 1.259 . S
Co1097 O1098 2.061 . S
Co1097 O1103 2.052 . S
Co1097 O1105 2.135 . S
O1098 Co1097 2.061 . S
O1098 C1101 1.235 . S
C1099 O1102 1.238 . S
C1099 O1103 1.241 . S
C1100 O1093 1.247 . S
C1100 O1094 1.261 . S
C1101 O1096 1.259 . S
C1101 O1098 1.235 . S
O1102 Co1092 2.021 . S
O1102 C1099 1.238 . S
O1103 Co1097 2.052 . S
O1103 C1099 1.241 . S
O1104 Co1092 2.137 . S
O1104 C1095 1.247 . S
O1105 Co1092 2.244 . S
O1105 C1095 1.272 . S
O1105 Co1097 2.135 . S
Co1106 O1107 2.216 . S
Co1106 O1108 2.091 . S
Co1106 O1110 2.004 . S
Co1106 O1116 2.021 . S
Co1106 O1118 2.137 . S
Co1106 O1119 2.244 . S
O1107 Co1106 2.216 . S
O1107 C1114 1.247 . S
O1108 Co1106 2.091 . S
O1108 C1114 1.261 . S
C1109 O1118 1.247 . S
C1109 O1119 1.272 . S
O1110 Co1106 2.004 . S
O1110 C1115 1.259 . S
Co1111 O1112 2.061 . S
Co1111 O1117 2.052 . S
Co1111 O1119 2.135 . S
O1112 Co1111 2.061 . S
O1112 C1115 1.235 . S
C1113 O1116 1.238 . S
C1113 O1117 1.241 . S
C1114 O1107 1.247 . S
C1114 O1108 1.261 . S
C1115 O1110 1.259 . S
C1115 O1112 1.235 . S
O1116 Co1106 2.021 . S
O1116 C1113 1.238 . S
O1117 Co1111 2.052 . S
O1117 C1113 1.241 . S
O1118 Co1106 2.137 . S
O1118 C1109 1.247 . S
O1119 Co1106 2.244 . S
O1119 C1109 1.272 . S
O1119 Co1111 2.135 . S
Co1120 O1121 2.216 . S
Co1120 O1122 2.091 . S
Co1120 O1124 2.004 . S
Co1120 O1130 2.021 . S
Co1120 O1132 2.137 . S
Co1120 O1133 2.244 . S
O1121 Co1120 2.216 . S
O1121 C1128 1.247 . S
O1122 Co1120 2.091 . S
O1122 C1128 1.261 . S
C1123 O1132 1.247 . S
C1123 O1133 1.272 . S
O1124 Co1120 2.004 . S
O1124 C1129 1.259 . S
Co1125 O1126 2.061 . S
Co1125 O1131 2.052 . S
Co1125 O1133 2.135 . S
O1126 Co1125 2.061 . S
O1126 C1129 1.235 . S
C1127 O1130 1.238 . S
C1127 O1131 1.241 . S
C1128 O1121 1.247 . S
C1128 O1122 1.261 . S
C1129 O1124 1.259 . S
C1129 O1126 1.235 . S
O1130 Co1120 2.021 . S
O1130 C1127 1.238 . S
O1131 Co1125 2.052 . S
O1131 C1127 1.241 . S
O1132 Co1120 2.137 . S
O1132 C1123 1.247 . S
O1133 Co1120 2.244 . S
O1133 C1123 1.272 . S
O1133 Co1125 2.135 . S
Co1134 O1135 2.216 . S
Co1134 O1136 2.091 . S
Co1134 O1138 2.004 . S
Co1134 O1144 2.021 . S
Co1134 O1146 2.137 . S
Co1134 O1147 2.244 . S
O1135 Co1134 2.216 . S
O1135 C1142 1.247 . S
O1136 Co1134 2.091 . S
O1136 C1142 1.261 . S
C1137 O1146 1.247 . S
C1137 O1147 1.272 . S
O1138 Co1134 2.004 . S
O1138 C1143 1.259 . S
Co1139 O1140 2.061 . S
Co1139 O1145 2.052 . S
Co1139 O1147 2.135 . S
O1140 Co1139 2.061 . S
O1140 C1143 1.235 . S
C1141 O1144 1.238 . S
C1141 O1145 1.241 . S
C1142 O1135 1.247 . S
C1142 O1136 1.261 . S
C1143 O1138 1.259 . S
C1143 O1140 1.235 . S
O1144 Co1134 2.021 . S
O1144 C1141 1.238 . S
O1145 Co1139 2.052 . S
O1145 C1141 1.241 . S
O1146 Co1134 2.137 . S
O1146 C1137 1.247 . S
O1147 Co1134 2.244 . S
O1147 C1137 1.272 . S
O1147 Co1139 2.135 . S
Co1148 O1149 2.216 . S
Co1148 O1150 2.091 . S
Co1148 O1152 2.004 . S
Co1148 O1158 2.021 . S
Co1148 O1160 2.137 . S
Co1148 O1161 2.244 . S
O1149 Co1148 2.216 . S
O1149 C1156 1.247 . S
O1150 Co1148 2.091 . S
O1150 C1156 1.261 . S
C1151 O1160 1.247 . S
C1151 O1161 1.272 . S
O1152 Co1148 2.004 . S
O1152 C1157 1.259 . S
Co1153 O1154 2.061 . S
Co1153 O1159 2.052 . S
Co1153 O1161 2.135 . S
O1154 Co1153 2.061 . S
O1154 C1157 1.235 . S
C1155 O1158 1.238 . S
C1155 O1159 1.241 . S
C1156 O1149 1.247 . S
C1156 O1150 1.261 . S
C1157 O1152 1.259 . S
C1157 O1154 1.235 . S
O1158 Co1148 2.021 . S
O1158 C1155 1.238 . S
O1159 Co1153 2.052 . S
O1159 C1155 1.241 . S
O1160 Co1148 2.137 . S
O1160 C1151 1.247 . S
O1161 Co1148 2.244 . S
O1161 C1151 1.272 . S
O1161 Co1153 2.135 . S
Co1162 O1163 2.216 . S
Co1162 O1164 2.091 . S
Co1162 O1166 2.004 . S
Co1162 O1172 2.021 . S
Co1162 O1174 2.137 . S
Co1162 O1175 2.244 . S
O1163 Co1162 2.216 . S
O1163 C1170 1.247 . S
O1164 Co1162 2.091 . S
O1164 C1170 1.261 . S
C1165 O1174 1.247 . S
C1165 O1175 1.272 . S
O1166 Co1162 2.004 . S
O1166 C1171 1.259 . S
Co1167 O1168 2.061 . S
Co1167 O1173 2.052 . S
Co1167 O1175 2.135 . S
O1168 Co1167 2.061 . S
O1168 C1171 1.235 . S
C1169 O1172 1.238 . S
C1169 O1173 1.241 . S
C1170 O1163 1.247 . S
C1170 O1164 1.261 . S
C1171 O1166 1.259 . S
C1171 O1168 1.235 . S
O1172 Co1162 2.021 . S
O1172 C1169 1.238 . S
O1173 Co1167 2.052 . S
O1173 C1169 1.241 . S
O1174 Co1162 2.137 . S
O1174 C1165 1.247 . S
O1175 Co1162 2.244 . S
O1175 C1165 1.272 . S
O1175 Co1167 2.135 . S
Co1176 O1177 2.216 . S
Co1176 O1178 2.091 . S
Co1176 O1180 2.004 . S
Co1176 O1186 2.021 . S
Co1176 O1188 2.137 . S
Co1176 O1189 2.244 . S
O1177 Co1176 2.216 . S
O1177 C1184 1.247 . S
O1178 Co1176 2.091 . S
O1178 C1184 1.261 . S
C1179 O1188 1.247 . S
C1179 O1189 1.272 . S
O1180 Co1176 2.004 . S
O1180 C1185 1.259 . S
Co1181 O1182 2.061 . S
Co1181 O1187 2.052 . S
Co1181 O1189 2.135 . S
O1182 Co1181 2.061 . S
O1182 C1185 1.235 . S
C1183 O1186 1.238 . S
C1183 O1187 1.241 . S
C1184 O1177 1.247 . S
C1184 O1178 1.261 . S
C1185 O1180 1.259 . S
C1185 O1182 1.235 . S
O1186 Co1176 2.021 . S
O1186 C1183 1.238 . S
O1187 Co1181 2.052 . S
O1187 C1183 1.241 . S
O1188 Co1176 2.137 . S
O1188 C1179 1.247 . S
O1189 Co1176 2.244 . S
O1189 C1179 1.272 . S
O1189 Co1181 2.135 . S
Co1190 O1191 2.216 . S
Co1190 O1192 2.091 . S
Co1190 O1194 2.004 . S
Co1190 O1200 2.021 . S
Co1190 O1202 2.137 . S
Co1190 O1203 2.244 . S
O1191 Co1190 2.216 . S
O1191 C1198 1.247 . S
O1192 Co1190 2.091 . S
O1192 C1198 1.261 . S
C1193 O1202 1.247 . S
C1193 O1203 1.272 . S
O1194 Co1190 2.004 . S
O1194 C1199 1.259 . S
Co1195 O1196 2.061 . S
Co1195 O1201 2.052 . S
Co1195 O1203 2.135 . S
O1196 Co1195 2.061 . S
O1196 C1199 1.235 . S
C1197 O1200 1.238 . S
C1197 O1201 1.241 . S
C1198 O1191 1.247 . S
C1198 O1192 1.261 . S
C1199 O1194 1.259 . S
C1199 O1196 1.235 . S
O1200 Co1190 2.021 . S
O1200 C1197 1.238 . S
O1201 Co1195 2.052 . S
O1201 C1197 1.241 . S
O1202 Co1190 2.137 . S
O1202 C1193 1.247 . S
O1203 Co1190 2.244 . S
O1203 C1193 1.272 . S
O1203 Co1195 2.135 . S
Co1204 O1205 2.216 . S
Co1204 O1206 2.091 . S
Co1204 O1208 2.004 . S
Co1204 O1214 2.021 . S
Co1204 O1216 2.137 . S
Co1204 O1217 2.244 . S
O1205 Co1204 2.216 . S
O1205 C1212 1.247 . S
O1206 Co1204 2.091 . S
O1206 C1212 1.261 . S
C1207 O1216 1.247 . S
C1207 O1217 1.272 . S
O1208 Co1204 2.004 . S
O1208 C1213 1.259 . S
Co1209 O1210 2.061 . S
Co1209 O1215 2.052 . S
Co1209 O1217 2.135 . S
O1210 Co1209 2.061 . S
O1210 C1213 1.235 . S
C1211 O1214 1.238 . S
C1211 O1215 1.241 . S
C1212 O1205 1.247 . S
C1212 O1206 1.261 . S
C1213 O1208 1.259 . S
C1213 O1210 1.235 . S
O1214 Co1204 2.021 . S
O1214 C1211 1.238 . S
O1215 Co1209 2.052 . S
O1215 C1211 1.241 . S
O1216 Co1204 2.137 . S
O1216 C1207 1.247 . S
O1217 Co1204 2.244 . S
O1217 C1207 1.272 . S
O1217 Co1209 2.135 . S
Co1218 O1219 2.216 . S
Co1218 O1220 2.091 . S
Co1218 O1222 2.004 . S
Co1218 O1228 2.021 . S
Co1218 O1230 2.137 . S
Co1218 O1231 2.244 . S
O1219 Co1218 2.216 . S
O1219 C1226 1.247 . S
O1220 Co1218 2.091 . S
O1220 C1226 1.261 . S
C1221 O1230 1.247 . S
C1221 O1231 1.272 . S
O1222 Co1218 2.004 . S
O1222 C1227 1.259 . S
Co1223 O1224 2.061 . S
Co1223 O1229 2.052 . S
Co1223 O1231 2.135 . S
O1224 Co1223 2.061 . S
O1224 C1227 1.235 . S
C1225 O1228 1.238 . S
C1225 O1229 1.241 . S
C1226 O1219 1.247 . S
C1226 O1220 1.261 . S
C1227 O1222 1.259 . S
C1227 O1224 1.235 . S
O1228 Co1218 2.021 . S
O1228 C1225 1.238 . S
O1229 Co1223 2.052 . S
O1229 C1225 1.241 . S
O1230 Co1218 2.137 . S
O1230 C1221 1.247 . S
O1231 Co1218 2.244 . S
O1231 C1221 1.272 . S
O1231 Co1223 2.135 . S
Co1232 O1233 2.216 . S
Co1232 O1234 2.091 . S
Co1232 O1236 2.004 . S
Co1232 O1242 2.021 . S
Co1232 O1244 2.137 . S
Co1232 O1245 2.244 . S
O1233 Co1232 2.216 . S
O1233 C1240 1.247 . S
O1234 Co1232 2.091 . S
O1234 C1240 1.261 . S
C1235 O1244 1.247 . S
C1235 O1245 1.272 . S
O1236 Co1232 2.004 . S
O1236 C1241 1.259 . S
Co1237 O1238 2.061 . S
Co1237 O1243 2.052 . S
Co1237 O1245 2.135 . S
O1238 Co1237 2.061 . S
O1238 C1241 1.235 . S
C1239 O1242 1.238 . S
C1239 O1243 1.241 . S
C1240 O1233 1.247 . S
C1240 O1234 1.261 . S
C1241 O1236 1.259 . S
C1241 O1238 1.235 . S
O1242 Co1232 2.021 . S
O1242 C1239 1.238 . S
O1243 Co1237 2.052 . S
O1243 C1239 1.241 . S
O1244 Co1232 2.137 . S
O1244 C1235 1.247 . S
O1245 Co1232 2.244 . S
O1245 C1235 1.272 . S
O1245 Co1237 2.135 . S
Co1246 O1247 2.216 . S
Co1246 O1248 2.091 . S
Co1246 O1250 2.004 . S
Co1246 O1256 2.021 . S
Co1246 O1258 2.137 . S
Co1246 O1259 2.244 . S
O1247 Co1246 2.216 . S
O1247 C1254 1.247 . S
O1248 Co1246 2.091 . S
O1248 C1254 1.261 . S
C1249 O1258 1.247 . S
C1249 O1259 1.272 . S
O1250 Co1246 2.004 . S
O1250 C1255 1.259 . S
Co1251 O1252 2.061 . S
Co1251 O1257 2.052 . S
Co1251 O1259 2.135 . S
O1252 Co1251 2.061 . S
O1252 C1255 1.235 . S
C1253 O1256 1.238 . S
C1253 O1257 1.241 . S
C1254 O1247 1.247 . S
C1254 O1248 1.261 . S
C1255 O1250 1.259 . S
C1255 O1252 1.235 . S
O1256 Co1246 2.021 . S
O1256 C1253 1.238 . S
O1257 Co1251 2.052 . S
O1257 C1253 1.241 . S
O1258 Co1246 2.137 . S
O1258 C1249 1.247 . S
O1259 Co1246 2.244 . S
O1259 C1249 1.272 . S
O1259 Co1251 2.135 . S
Co1260 O1261 2.216 . S
Co1260 O1262 2.091 . S
Co1260 O1264 2.004 . S
Co1260 O1270 2.021 . S
Co1260 O1272 2.137 . S
Co1260 O1273 2.244 . S
O1261 Co1260 2.216 . S
O1261 C1268 1.247 . S
O1262 Co1260 2.091 . S
O1262 C1268 1.261 . S
C1263 O1272 1.247 . S
C1263 O1273 1.272 . S
O1264 Co1260 2.004 . S
O1264 C1269 1.259 . S
Co1265 O1266 2.061 . S
Co1265 O1271 2.052 . S
Co1265 O1273 2.135 . S
O1266 Co1265 2.061 . S
O1266 C1269 1.235 . S
C1267 O1270 1.238 . S
C1267 O1271 1.241 . S
C1268 O1261 1.247 . S
C1268 O1262 1.261 . S
C1269 O1264 1.259 . S
C1269 O1266 1.235 . S
O1270 Co1260 2.021 . S
O1270 C1267 1.238 . S
O1271 Co1265 2.052 . S
O1271 C1267 1.241 . S
O1272 Co1260 2.137 . S
O1272 C1263 1.247 . S
O1273 Co1260 2.244 . S
O1273 C1263 1.272 . S
O1273 Co1265 2.135 . S
Co1274 O1275 2.216 . S
Co1274 O1276 2.091 . S
Co1274 O1278 2.004 . S
Co1274 O1284 2.021 . S
Co1274 O1286 2.137 . S
Co1274 O1287 2.244 . S
O1275 Co1274 2.216 . S
O1275 C1282 1.247 . S
O1276 Co1274 2.091 . S
O1276 C1282 1.261 . S
C1277 O1286 1.247 . S
C1277 O1287 1.272 . S
O1278 Co1274 2.004 . S
O1278 C1283 1.259 . S
Co1279 O1280 2.061 . S
Co1279 O1285 2.052 . S
Co1279 O1287 2.135 . S
O1280 Co1279 2.061 . S
O1280 C1283 1.235 . S
C1281 O1284 1.238 . S
C1281 O1285 1.241 . S
C1282 O1275 1.247 . S
C1282 O1276 1.261 . S
C1283 O1278 1.259 . S
C1283 O1280 1.235 . S
O1284 Co1274 2.021 . S
O1284 C1281 1.238 . S
O1285 Co1279 2.052 . S
O1285 C1281 1.241 . S
O1286 Co1274 2.137 . S
O1286 C1277 1.247 . S
O1287 Co1274 2.244 . S
O1287 C1277 1.272 . S
O1287 Co1279 2.135 . S
Co1288 O1289 2.216 . S
Co1288 O1290 2.091 . S
Co1288 O1292 2.004 . S
Co1288 O1298 2.021 . S
Co1288 O1300 2.137 . S
Co1288 O1301 2.244 . S
O1289 Co1288 2.216 . S
O1289 C1296 1.247 . S
O1290 Co1288 2.091 . S
O1290 C1296 1.261 . S
C1291 O1300 1.247 . S
C1291 O1301 1.272 . S
O1292 Co1288 2.004 . S
O1292 C1297 1.259 . S
Co1293 O1294 2.061 . S
Co1293 O1299 2.052 . S
Co1293 O1301 2.135 . S
O1294 Co1293 2.061 . S
O1294 C1297 1.235 . S
C1295 O1298 1.238 . S
C1295 O1299 1.241 . S
C1296 O1289 1.247 . S
C1296 O1290 1.261 . S
C1297 O1292 1.259 . S
C1297 O1294 1.235 . S
O1298 Co1288 2.021 . S
O1298 C1295 1.238 . S
O1299 Co1293 2.052 . S
O1299 C1295 1.241 . S
O1300 Co1288 2.137 . S
O1300 C1291 1.247 . S
O1301 Co1288 2.244 . S
O1301 C1291 1.272 . S
O1301 Co1293 2.135 . S
Co1302 O1303 2.216 . S
Co1302 O1304 2.091 . S
Co1302 O1306 2.004 . S
Co1302 O1312 2.021 . S
Co1302 O1314 2.137 . S
Co1302 O1315 2.244 . S
O1303 Co1302 2.216 . S
O1303 C1310 1.247 . S
O1304 Co1302 2.091 . S
O1304 C1310 1.261 . S
C1305 O1314 1.247 . S
C1305 O1315 1.272 . S
O1306 Co1302 2.004 . S
O1306 C1311 1.259 . S
Co1307 O1308 2.061 . S
Co1307 O1313 2.052 . S
Co1307 O1315 2.135 . S
O1308 Co1307 2.061 . S
O1308 C1311 1.235 . S
C1309 O1312 1.238 . S
C1309 O1313 1.241 . S
C1310 O1303 1.247 . S
C1310 O1304 1.261 . S
C1311 O1306 1.259 . S
C1311 O1308 1.235 . S
O1312 Co1302 2.021 . S
O1312 C1309 1.238 . S
O1313 Co1307 2.052 . S
O1313 C1309 1.241 . S
O1314 Co1302 2.137 . S
O1314 C1305 1.247 . S
O1315 Co1302 2.244 . S
O1315 C1305 1.272 . S
O1315 Co1307 2.135 . S
Co1316 O1317 2.216 . S
Co1316 O1318 2.091 . S
Co1316 O1320 2.004 . S
Co1316 O1326 2.021 . S
Co1316 O1328 2.137 . S
Co1316 O1329 2.244 . S
O1317 Co1316 2.216 . S
O1317 C1324 1.247 . S
O1318 Co1316 2.091 . S
O1318 C1324 1.261 . S
C1319 O1328 1.247 . S
C1319 O1329 1.272 . S
O1320 Co1316 2.004 . S
O1320 C1325 1.259 . S
Co1321 O1322 2.061 . S
Co1321 O1327 2.052 . S
Co1321 O1329 2.135 . S
O1322 Co1321 2.061 . S
O1322 C1325 1.235 . S
C1323 O1326 1.238 . S
C1323 O1327 1.241 . S
C1324 O1317 1.247 . S
C1324 O1318 1.261 . S
C1325 O1320 1.259 . S
C1325 O1322 1.235 . S
O1326 Co1316 2.021 . S
O1326 C1323 1.238 . S
O1327 Co1321 2.052 . S
O1327 C1323 1.241 . S
O1328 Co1316 2.137 . S
O1328 C1319 1.247 . S
O1329 Co1316 2.244 . S
O1329 C1319 1.272 . S
O1329 Co1321 2.135 . S
Co1330 O1331 2.216 . S
Co1330 O1332 2.091 . S
Co1330 O1334 2.004 . S
Co1330 O1340 2.021 . S
Co1330 O1342 2.137 . S
Co1330 O1343 2.244 . S
O1331 Co1330 2.216 . S
O1331 C1338 1.247 . S
O1332 Co1330 2.091 . S
O1332 C1338 1.261 . S
C1333 O1342 1.247 . S
C1333 O1343 1.272 . S
O1334 Co1330 2.004 . S
O1334 C1339 1.259 . S
Co1335 O1336 2.061 . S
Co1335 O1341 2.052 . S
Co1335 O1343 2.135 . S
O1336 Co1335 2.061 . S
O1336 C1339 1.235 . S
C1337 O1340 1.238 . S
C1337 O1341 1.241 . S
C1338 O1331 1.247 . S
C1338 O1332 1.261 . S
C1339 O1334 1.259 . S
C1339 O1336 1.235 . S
O1340 Co1330 2.021 . S
O1340 C1337 1.238 . S
O1341 Co1335 2.052 . S
O1341 C1337 1.241 . S
O1342 Co1330 2.137 . S
O1342 C1333 1.247 . S
O1343 Co1330 2.244 . S
O1343 C1333 1.272 . S
O1343 Co1335 2.135 . S
C1344 C1345 1.363 . S
C1344 C1350 1.379 . S
C1344 N1352 1.356 . S
C1345 C1344 1.363 . S
C1345 C1351 1.363 . S
C1346 C1347 1.363 . S
C1346 C1351 1.379 . S
C1346 N1353 1.356 . S
C1347 C1346 1.363 . S
C1347 C1350 1.363 . S
N1348 C1350 1.356 . S
N1348 H1360 0.984 . S
N1348 H1361 0.985 . S
N1349 C1351 1.356 . S
N1349 H1354 0.984 . S
N1349 H1355 0.985 . S
C1350 C1344 1.379 . S
C1350 C1347 1.363 . S
C1350 N1348 1.356 . S
C1351 C1345 1.363 . S
C1351 C1346 1.379 . S
C1351 N1349 1.356 . S
N1352 C1344 1.356 . S
N1352 H1358 0.984 . S
N1352 H1359 0.984 . S
N1353 C1346 1.356 . S
N1353 H1356 0.984 . S
N1353 H1357 0.985 . S
H1354 N1349 0.984 . S
H1355 N1349 0.985 . S
H1356 N1353 0.984 . S
H1357 N1353 0.985 . S
H1358 N1352 0.984 . S
H1359 N1352 0.984 . S
H1360 N1348 0.984 . S
H1361 N1348 0.985 . S
C1362 C1363 1.363 . S
C1362 C1368 1.379 . S
C1362 N1370 1.356 . S
C1363 C1362 1.363 . S
C1363 C1369 1.363 . S
C1364 C1365 1.363 . S
C1364 C1369 1.379 . S
C1364 N1371 1.356 . S
C1365 C1364 1.363 . S
C1365 C1368 1.363 . S
N1366 C1368 1.356 . S
N1366 H1378 0.984 . S
N1366 H1379 0.985 . S
N1367 C1369 1.356 . S
N1367 H1372 0.984 . S
N1367 H1373 0.985 . S
C1368 C1362 1.379 . S
C1368 C1365 1.363 . S
C1368 N1366 1.356 . S
C1369 C1363 1.363 . S
C1369 C1364 1.379 . S
C1369 N1367 1.356 . S
N1370 C1362 1.356 . S
N1370 H1376 0.984 . S
N1370 H1377 0.984 . S
N1371 C1364 1.356 . S
N1371 H1374 0.984 . S
N1371 H1375 0.985 . S
H1372 N1367 0.984 . S
H1373 N1367 0.985 . S
H1374 N1371 0.984 . S
H1375 N1371 0.985 . S
H1376 N1370 0.984 . S
H1377 N1370 0.984 . S
H1378 N1366 0.984 . S
H1379 N1366 0.985 . S
C1380 C1381 1.363 . S
C1380 C1386 1.379 . S
C1380 N1388 1.356 . S
C1381 C1380 1.363 . S
C1381 C1387 1.363 . S
C1382 C1383 1.363 . S
C1382 C1387 1.379 . S
C1382 N1389 1.356 . S
C1383 C1382 1.363 . S
C1383 C1386 1.363 . S
N1384 C1386 1.356 . S
N1384 H1396 0.984 . S
N1384 H1397 0.985 . S
N1385 C1387 1.356 . S
N1385 H1390 0.984 . S
N1385 H1391 0.985 . S
C1386 C1380 1.379 . S
C1386 C1383 1.363 . S
C1386 N1384 1.356 . S
C1387 C1381 1.363 . S
C1387 C1382 1.379 . S
C1387 N1385 1.356 . S
N1388 C1380 1.356 . S
N1388 H1394 0.984 . S
N1388 H1395 0.984 . S
N1389 C1382 1.356 . S
N1389 H1392 0.984 . S
N1389 H1393 0.985 . S
H1390 N1385 0.984 . S
H1391 N1385 0.985 . S
H1392 N1389 0.984 . S
H1393 N1389 0.985 . S
H1394 N1388 0.984 . S
H1395 N1388 0.984 . S
H1396 N1384 0.984 . S
H1397 N1384 0.985 . S
C1398 C1399 1.363 . S
C1398 C1404 1.379 . S
C1398 N1406 1.356 . S
C1399 C1398 1.363 . S
C1399 C1405 1.363 . S
C1400 C1401 1.363 . S
C1400 C1405 1.379 . S
C1400 N1407 1.356 . S
C1401 C1400 1.363 . S
C1401 C1404 1.363 . S
N1402 C1404 1.356 . S
N1402 H1414 0.984 . S
N1402 H1415 0.985 . S
N1403 C1405 1.356 . S
N1403 H1408 0.984 . S
N1403 H1409 0.985 . S
C1404 C1398 1.379 . S
C1404 C1401 1.363 . S
C1404 N1402 1.356 . S
C1405 C1399 1.363 . S
C1405 C1400 1.379 . S
C1405 N1403 1.356 . S
N1406 C1398 1.356 . S
N1406 H1412 0.984 . S
N1406 H1413 0.984 . S
N1407 C1400 1.356 . S
N1407 H1410 0.984 . S
N1407 H1411 0.985 . S
H1408 N1403 0.984 . S
H1409 N1403 0.985 . S
H1410 N1407 0.984 . S
H1411 N1407 0.985 . S
H1412 N1406 0.984 . S
H1413 N1406 0.984 . S
H1414 N1402 0.984 . S
H1415 N1402 0.985 . S
C1416 C1417 1.363 . S
C1416 C1422 1.379 . S
C1416 N1424 1.356 . S
C1417 C1416 1.363 . S
C1417 C1423 1.363 . S
C1418 C1419 1.363 . S
C1418 C1423 1.379 . S
C1418 N1425 1.356 . S
C1419 C1418 1.363 . S
C1419 C1422 1.363 . S
N1420 C1422 1.356 . S
N1420 H1432 0.984 . S
N1420 H1433 0.985 . S
N1421 C1423 1.356 . S
N1421 H1426 0.984 . S
N1421 H1427 0.985 . S
C1422 C1416 1.379 . S
C1422 C1419 1.363 . S
C1422 N1420 1.356 . S
C1423 C1417 1.363 . S
C1423 C1418 1.379 . S
C1423 N1421 1.356 . S
N1424 C1416 1.356 . S
N1424 H1430 0.984 . S
N1424 H1431 0.984 . S
N1425 C1418 1.356 . S
N1425 H1428 0.984 . S
N1425 H1429 0.985 . S
H1426 N1421 0.984 . S
H1427 N1421 0.985 . S
H1428 N1425 0.984 . S
H1429 N1425 0.985 . S
H1430 N1424 0.984 . S
H1431 N1424 0.984 . S
H1432 N1420 0.984 . S
H1433 N1420 0.985 . S
C1434 C1435 1.363 . S
C1434 C1440 1.379 . S
C1434 N1442 1.356 . S
C1435 C1434 1.363 . S
C1435 C1441 1.363 . S
C1436 C1437 1.363 . S
C1436 C1441 1.379 . S
C1436 N1443 1.356 . S
C1437 C1436 1.363 . S
C1437 C1440 1.363 . S
N1438 C1440 1.356 . S
N1438 H1450 0.984 . S
N1438 H1451 0.985 . S
N1439 C1441 1.356 . S
N1439 H1444 0.984 . S
N1439 H1445 0.985 . S
C1440 C1434 1.379 . S
C1440 C1437 1.363 . S
C1440 N1438 1.356 . S
C1441 C1435 1.363 . S
C1441 C1436 1.379 . S
C1441 N1439 1.356 . S
N1442 C1434 1.356 . S
N1442 H1448 0.984 . S
N1442 H1449 0.984 . S
N1443 C1436 1.356 . S
N1443 H1446 0.984 . S
N1443 H1447 0.985 . S
H1444 N1439 0.984 . S
H1445 N1439 0.985 . S
H1446 N1443 0.984 . S
H1447 N1443 0.985 . S
H1448 N1442 0.984 . S
H1449 N1442 0.984 . S
H1450 N1438 0.984 . S
H1451 N1438 0.985 . S
C1452 C1453 1.363 . S
C1452 C1458 1.379 . S
C1452 N1460 1.356 . S
C1453 C1452 1.363 . S
C1453 C1459 1.363 . S
C1454 C1455 1.363 . S
C1454 C1459 1.379 . S
C1454 N1461 1.356 . S
C1455 C1454 1.363 . S
C1455 C1458 1.363 . S
N1456 C1458 1.356 . S
N1456 H1468 0.984 . S
N1456 H1469 0.985 . S
N1457 C1459 1.356 . S
N1457 H1462 0.984 . S
N1457 H1463 0.985 . S
C1458 C1452 1.379 . S
C1458 C1455 1.363 . S
C1458 N1456 1.356 . S
C1459 C1453 1.363 . S
C1459 C1454 1.379 . S
C1459 N1457 1.356 . S
N1460 C1452 1.356 . S
N1460 H1466 0.984 . S
N1460 H1467 0.984 . S
N1461 C1454 1.356 . S
N1461 H1464 0.984 . S
N1461 H1465 0.985 . S
H1462 N1457 0.984 . S
H1463 N1457 0.985 . S
H1464 N1461 0.984 . S
H1465 N1461 0.985 . S
H1466 N1460 0.984 . S
H1467 N1460 0.984 . S
H1468 N1456 0.984 . S
H1469 N1456 0.985 . S
C1470 C1471 1.363 . S
C1470 C1476 1.379 . S
C1470 N1478 1.356 . S
C1471 C1470 1.363 . S
C1471 C1477 1.363 . S
C1472 C1473 1.363 . S
C1472 C1477 1.379 . S
C1472 N1479 1.356 . S
C1473 C1472 1.363 . S
C1473 C1476 1.363 . S
N1474 C1476 1.356 . S
N1474 H1486 0.984 . S
N1474 H1487 0.985 . S
N1475 C1477 1.356 . S
N1475 H1480 0.984 . S
N1475 H1481 0.985 . S
C1476 C1470 1.379 . S
C1476 C1473 1.363 . S
C1476 N1474 1.356 . S
C1477 C1471 1.363 . S
C1477 C1472 1.379 . S
C1477 N1475 1.356 . S
N1478 C1470 1.356 . S
N1478 H1484 0.984 . S
N1478 H1485 0.984 . S
N1479 C1472 1.356 . S
N1479 H1482 0.984 . S
N1479 H1483 0.985 . S
H1480 N1475 0.984 . S
H1481 N1475 0.985 . S
H1482 N1479 0.984 . S
H1483 N1479 0.985 . S
H1484 N1478 0.984 . S
H1485 N1478 0.984 . S
H1486 N1474 0.984 . S
H1487 N1474 0.985 . S
C1488 C1489 1.363 . S
C1488 C1494 1.379 . S
C1488 N1496 1.356 . S
C1489 C1488 1.363 . S
C1489 C1495 1.363 . S
C1490 C1491 1.363 . S
C1490 C1495 1.379 . S
C1490 N1497 1.356 . S
C1491 C1490 1.363 . S
C1491 C1494 1.363 . S
N1492 C1494 1.356 . S
N1492 H1504 0.984 . S
N1492 H1505 0.985 . S
N1493 C1495 1.356 . S
N1493 H1498 0.984 . S
N1493 H1499 0.985 . S
C1494 C1488 1.379 . S
C1494 C1491 1.363 . S
C1494 N1492 1.356 . S
C1495 C1489 1.363 . S
C1495 C1490 1.379 . S
C1495 N1493 1.356 . S
N1496 C1488 1.356 . S
N1496 H1502 0.984 . S
N1496 H1503 0.984 . S
N1497 C1490 1.356 . S
N1497 H1500 0.984 . S
N1497 H1501 0.985 . S
H1498 N1493 0.984 . S
H1499 N1493 0.985 . S
H1500 N1497 0.984 . S
H1501 N1497 0.985 . S
H1502 N1496 0.984 . S
H1503 N1496 0.984 . S
H1504 N1492 0.984 . S
H1505 N1492 0.985 . S
C1506 C1507 1.363 . S
C1506 C1512 1.379 . S
C1506 N1514 1.356 . S
C1507 C1506 1.363 . S
C1507 C1513 1.363 . S
C1508 C1509 1.363 . S
C1508 C1513 1.379 . S
C1508 N1515 1.356 . S
C1509 C1508 1.363 . S
C1509 C1512 1.363 . S
N1510 C1512 1.356 . S
N1510 H1522 0.984 . S
N1510 H1523 0.985 . S
N1511 C1513 1.356 . S
N1511 H1516 0.984 . S
N1511 H1517 0.985 . S
C1512 C1506 1.379 . S
C1512 C1509 1.363 . S
C1512 N1510 1.356 . S
C1513 C1507 1.363 . S
C1513 C1508 1.379 . S
C1513 N1511 1.356 . S
N1514 C1506 1.356 . S
N1514 H1520 0.984 . S
N1514 H1521 0.984 . S
N1515 C1508 1.356 . S
N1515 H1518 0.984 . S
N1515 H1519 0.985 . S
H1516 N1511 0.984 . S
H1517 N1511 0.985 . S
H1518 N1515 0.984 . S
H1519 N1515 0.985 . S
H1520 N1514 0.984 . S
H1521 N1514 0.984 . S
H1522 N1510 0.984 . S
H1523 N1510 0.985 . S
C1524 C1525 1.363 . S
C1524 C1530 1.379 . S
C1524 N1532 1.356 . S
C1525 C1524 1.363 . S
C1525 C1531 1.363 . S
C1526 C1527 1.363 . S
C1526 C1531 1.379 . S
C1526 N1533 1.356 . S
C1527 C1526 1.363 . S
C1527 C1530 1.363 . S
N1528 C1530 1.356 . S
N1528 H1540 0.984 . S
N1528 H1541 0.985 . S
N1529 C1531 1.356 . S
N1529 H1534 0.984 . S
N1529 H1535 0.985 . S
C1530 C1524 1.379 . S
C1530 C1527 1.363 . S
C1530 N1528 1.356 . S
C1531 C1525 1.363 . S
C1531 C1526 1.379 . S
C1531 N1529 1.356 . S
N1532 C1524 1.356 . S
N1532 H1538 0.984 . S
N1532 H1539 0.984 . S
N1533 C1526 1.356 . S
N1533 H1536 0.984 . S
N1533 H1537 0.985 . S
H1534 N1529 0.984 . S
H1535 N1529 0.985 . S
H1536 N1533 0.984 . S
H1537 N1533 0.985 . S
H1538 N1532 0.984 . S
H1539 N1532 0.984 . S
H1540 N1528 0.984 . S
H1541 N1528 0.985 . S
C1542 C1543 1.363 . S
C1542 C1548 1.379 . S
C1542 N1550 1.356 . S
C1543 C1542 1.363 . S
C1543 C1549 1.363 . S
C1544 C1545 1.363 . S
C1544 C1549 1.379 . S
C1544 N1551 1.356 . S
C1545 C1544 1.363 . S
C1545 C1548 1.363 . S
N1546 C1548 1.356 . S
N1546 H1558 0.984 . S
N1546 H1559 0.985 . S
N1547 C1549 1.356 . S
N1547 H1552 0.984 . S
N1547 H1553 0.985 . S
C1548 C1542 1.379 . S
C1548 C1545 1.363 . S
C1548 N1546 1.356 . S
C1549 C1543 1.363 . S
C1549 C1544 1.379 . S
C1549 N1547 1.356 . S
N1550 C1542 1.356 . S
N1550 H1556 0.984 . S
N1550 H1557 0.984 . S
N1551 C1544 1.356 . S
N1551 H1554 0.984 . S
N1551 H1555 0.985 . S
H1552 N1547 0.984 . S
H1553 N1547 0.985 . S
H1554 N1551 0.984 . S
H1555 N1551 0.985 . S
H1556 N1550 0.984 . S
H1557 N1550 0.984 . S
H1558 N1546 0.984 . S
H1559 N1546 0.985 . S
C1560 C1561 1.363 . S
C1560 C1566 1.379 . S
C1560 N1568 1.356 . S
C1561 C1560 1.363 . S
C1561 C1567 1.363 . S
C1562 C1563 1.363 . S
C1562 C1567 1.379 . S
C1562 N1569 1.356 . S
C1563 C1562 1.363 . S
C1563 C1566 1.363 . S
N1564 C1566 1.356 . S
N1564 H1576 0.984 . S
N1564 H1577 0.985 . S
N1565 C1567 1.356 . S
N1565 H1570 0.984 . S
N1565 H1571 0.985 . S
C1566 C1560 1.379 . S
C1566 C1563 1.363 . S
C1566 N1564 1.356 . S
C1567 C1561 1.363 . S
C1567 C1562 1.379 . S
C1567 N1565 1.356 . S
N1568 C1560 1.356 . S
N1568 H1574 0.984 . S
N1568 H1575 0.984 . S
N1569 C1562 1.356 . S
N1569 H1572 0.984 . S
N1569 H1573 0.985 . S
H1570 N1565 0.984 . S
H1571 N1565 0.985 . S
H1572 N1569 0.984 . S
H1573 N1569 0.985 . S
H1574 N1568 0.984 . S
H1575 N1568 0.984 . S
H1576 N1564 0.984 . S
H1577 N1564 0.985 . S
C1578 C1579 1.363 . S
C1578 C1584 1.379 . S
C1578 N1586 1.356 . S
C1579 C1578 1.363 . S
C1579 C1585 1.363 . S
C1580 C1581 1.363 . S
C1580 C1585 1.379 . S
C1580 N1587 1.356 . S
C1581 C1580 1.363 . S
C1581 C1584 1.363 . S
N1582 C1584 1.356 . S
N1582 H1594 0.984 . S
N1582 H1595 0.985 . S
N1583 C1585 1.356 . S
N1583 H1588 0.984 . S
N1583 H1589 0.985 . S
C1584 C1578 1.379 . S
C1584 C1581 1.363 . S
C1584 N1582 1.356 . S
C1585 C1579 1.363 . S
C1585 C1580 1.379 . S
C1585 N1583 1.356 . S
N1586 C1578 1.356 . S
N1586 H1592 0.984 . S
N1586 H1593 0.984 . S
N1587 C1580 1.356 . S
N1587 H1590 0.984 . S
N1587 H1591 0.985 . S
H1588 N1583 0.984 . S
H1589 N1583 0.985 . S
H1590 N1587 0.984 . S
H1591 N1587 0.985 . S
H1592 N1586 0.984 . S
H1593 N1586 0.984 . S
H1594 N1582 0.984 . S
H1595 N1582 0.985 . S
C1596 C1597 1.363 . S
C1596 C1602 1.379 . S
C1596 N1604 1.356 . S
C1597 C1596 1.363 . S
C1597 C1603 1.363 . S
C1598 C1599 1.363 . S
C1598 C1603 1.379 . S
C1598 N1605 1.356 . S
C1599 C1598 1.363 . S
C1599 C1602 1.363 . S
N1600 C1602 1.356 . S
N1600 H1612 0.984 . S
N1600 H1613 0.985 . S
N1601 C1603 1.356 . S
N1601 H1606 0.984 . S
N1601 H1607 0.985 . S
C1602 C1596 1.379 . S
C1602 C1599 1.363 . S
C1602 N1600 1.356 . S
C1603 C1597 1.363 . S
C1603 C1598 1.379 . S
C1603 N1601 1.356 . S
N1604 C1596 1.356 . S
N1604 H1610 0.984 . S
N1604 H1611 0.984 . S
N1605 C1598 1.356 . S
N1605 H1608 0.984 . S
N1605 H1609 0.985 . S
H1606 N1601 0.984 . S
H1607 N1601 0.985 . S
H1608 N1605 0.984 . S
H1609 N1605 0.985 . S
H1610 N1604 0.984 . S
H1611 N1604 0.984 . S
H1612 N1600 0.984 . S
H1613 N1600 0.985 . S
C1614 C1615 1.363 . S
C1614 C1620 1.379 . S
C1614 N1622 1.356 . S
C1615 C1614 1.363 . S
C1615 C1621 1.363 . S
C1616 C1617 1.363 . S
C1616 C1621 1.379 . S
C1616 N1623 1.356 . S
C1617 C1616 1.363 . S
C1617 C1620 1.363 . S
N1618 C1620 1.356 . S
N1618 H1630 0.984 . S
N1618 H1631 0.985 . S
N1619 C1621 1.356 . S
N1619 H1624 0.984 . S
N1619 H1625 0.985 . S
C1620 C1614 1.379 . S
C1620 C1617 1.363 . S
C1620 N1618 1.356 . S
C1621 C1615 1.363 . S
C1621 C1616 1.379 . S
C1621 N1619 1.356 . S
N1622 C1614 1.356 . S
N1622 H1628 0.984 . S
N1622 H1629 0.984 . S
N1623 C1616 1.356 . S
N1623 H1626 0.984 . S
N1623 H1627 0.985 . S
H1624 N1619 0.984 . S
H1625 N1619 0.985 . S
H1626 N1623 0.984 . S
H1627 N1623 0.985 . S
H1628 N1622 0.984 . S
H1629 N1622 0.984 . S
H1630 N1618 0.984 . S
H1631 N1618 0.985 . S
C1632 C1633 1.363 . S
C1632 C1638 1.379 . S
C1632 N1640 1.356 . S
C1633 C1632 1.363 . S
C1633 C1639 1.363 . S
C1634 C1635 1.363 . S
C1634 C1639 1.379 . S
C1634 N1641 1.356 . S
C1635 C1634 1.363 . S
C1635 C1638 1.363 . S
N1636 C1638 1.356 . S
N1636 H1648 0.984 . S
N1636 H1649 0.985 . S
N1637 C1639 1.356 . S
N1637 H1642 0.984 . S
N1637 H1643 0.985 . S
C1638 C1632 1.379 . S
C1638 C1635 1.363 . S
C1638 N1636 1.356 . S
C1639 C1633 1.363 . S
C1639 C1634 1.379 . S
C1639 N1637 1.356 . S
N1640 C1632 1.356 . S
N1640 H1646 0.984 . S
N1640 H1647 0.984 . S
N1641 C1634 1.356 . S
N1641 H1644 0.984 . S
N1641 H1645 0.985 . S
H1642 N1637 0.984 . S
H1643 N1637 0.985 . S
H1644 N1641 0.984 . S
H1645 N1641 0.985 . S
H1646 N1640 0.984 . S
H1647 N1640 0.984 . S
H1648 N1636 0.984 . S
H1649 N1636 0.985 . S
C1650 C1651 1.363 . S
C1650 C1656 1.379 . S
C1650 N1658 1.356 . S
C1651 C1650 1.363 . S
C1651 C1657 1.363 . S
C1652 C1653 1.363 . S
C1652 C1657 1.379 . S
C1652 N1659 1.356 . S
C1653 C1652 1.363 . S
C1653 C1656 1.363 . S
N1654 C1656 1.356 . S
N1654 H1666 0.984 . S
N1654 H1667 0.985 . S
N1655 C1657 1.356 . S
N1655 H1660 0.984 . S
N1655 H1661 0.985 . S
C1656 C1650 1.379 . S
C1656 C1653 1.363 . S
C1656 N1654 1.356 . S
C1657 C1651 1.363 . S
C1657 C1652 1.379 . S
C1657 N1655 1.356 . S
N1658 C1650 1.356 . S
N1658 H1664 0.984 . S
N1658 H1665 0.984 . S
N1659 C1652 1.356 . S
N1659 H1662 0.984 . S
N1659 H1663 0.985 . S
H1660 N1655 0.984 . S
H1661 N1655 0.985 . S
H1662 N1659 0.984 . S
H1663 N1659 0.985 . S
H1664 N1658 0.984 . S
H1665 N1658 0.984 . S
H1666 N1654 0.984 . S
H1667 N1654 0.985 . S
C1668 C1669 1.363 . S
C1668 C1674 1.379 . S
C1668 N1676 1.356 . S
C1669 C1668 1.363 . S
C1669 C1675 1.363 . S
C1670 C1671 1.363 . S
C1670 C1675 1.379 . S
C1670 N1677 1.356 . S
C1671 C1670 1.363 . S
C1671 C1674 1.363 . S
N1672 C1674 1.356 . S
N1672 H1684 0.984 . S
N1672 H1685 0.985 . S
N1673 C1675 1.356 . S
N1673 H1678 0.984 . S
N1673 H1679 0.985 . S
C1674 C1668 1.379 . S
C1674 C1671 1.363 . S
C1674 N1672 1.356 . S
C1675 C1669 1.363 . S
C1675 C1670 1.379 . S
C1675 N1673 1.356 . S
N1676 C1668 1.356 . S
N1676 H1682 0.984 . S
N1676 H1683 0.984 . S
N1677 C1670 1.356 . S
N1677 H1680 0.984 . S
N1677 H1681 0.985 . S
H1678 N1673 0.984 . S
H1679 N1673 0.985 . S
H1680 N1677 0.984 . S
H1681 N1677 0.985 . S
H1682 N1676 0.984 . S
H1683 N1676 0.984 . S
H1684 N1672 0.984 . S
H1685 N1672 0.985 . S
C1686 C1687 1.363 . S
C1686 C1692 1.379 . S
C1686 N1694 1.356 . S
C1687 C1686 1.363 . S
C1687 C1693 1.363 . S
C1688 C1689 1.363 . S
C1688 C1693 1.379 . S
C1688 N1695 1.356 . S
C1689 C1688 1.363 . S
C1689 C1692 1.363 . S
N1690 C1692 1.356 . S
N1690 H1702 0.984 . S
N1690 H1703 0.985 . S
N1691 C1693 1.356 . S
N1691 H1696 0.984 . S
N1691 H1697 0.985 . S
C1692 C1686 1.379 . S
C1692 C1689 1.363 . S
C1692 N1690 1.356 . S
C1693 C1687 1.363 . S
C1693 C1688 1.379 . S
C1693 N1691 1.356 . S
N1694 C1686 1.356 . S
N1694 H1700 0.984 . S
N1694 H1701 0.984 . S
N1695 C1688 1.356 . S
N1695 H1698 0.984 . S
N1695 H1699 0.985 . S
H1696 N1691 0.984 . S
H1697 N1691 0.985 . S
H1698 N1695 0.984 . S
H1699 N1695 0.985 . S
H1700 N1694 0.984 . S
H1701 N1694 0.984 . S
H1702 N1690 0.984 . S
H1703 N1690 0.985 . S
C1704 C1705 1.363 . S
C1704 C1710 1.379 . S
C1704 N1712 1.356 . S
C1705 C1704 1.363 . S
C1705 C1711 1.363 . S
C1706 C1707 1.363 . S
C1706 C1711 1.379 . S
C1706 N1713 1.356 . S
C1707 C1706 1.363 . S
C1707 C1710 1.363 . S
N1708 C1710 1.356 . S
N1708 H1720 0.984 . S
N1708 H1721 0.985 . S
N1709 C1711 1.356 . S
N1709 H1714 0.984 . S
N1709 H1715 0.985 . S
C1710 C1704 1.379 . S
C1710 C1707 1.363 . S
C1710 N1708 1.356 . S
C1711 C1705 1.363 . S
C1711 C1706 1.379 . S
C1711 N1709 1.356 . S
N1712 C1704 1.356 . S
N1712 H1718 0.984 . S
N1712 H1719 0.984 . S
N1713 C1706 1.356 . S
N1713 H1716 0.984 . S
N1713 H1717 0.985 . S
H1714 N1709 0.984 . S
H1715 N1709 0.985 . S
H1716 N1713 0.984 . S
H1717 N1713 0.985 . S
H1718 N1712 0.984 . S
H1719 N1712 0.984 . S
H1720 N1708 0.984 . S
H1721 N1708 0.985 . S
C1722 C1723 1.363 . S
C1722 C1728 1.379 . S
C1722 N1730 1.356 . S
C1723 C1722 1.363 . S
C1723 C1729 1.363 . S
C1724 C1725 1.363 . S
C1724 C1729 1.379 . S
C1724 N1731 1.356 . S
C1725 C1724 1.363 . S
C1725 C1728 1.363 . S
N1726 C1728 1.356 . S
N1726 H1738 0.984 . S
N1726 H1739 0.985 . S
N1727 C1729 1.356 . S
N1727 H1732 0.984 . S
N1727 H1733 0.985 . S
C1728 C1722 1.379 . S
C1728 C1725 1.363 . S
C1728 N1726 1.356 . S
C1729 C1723 1.363 . S
C1729 C1724 1.379 . S
C1729 N1727 1.356 . S
N1730 C1722 1.356 . S
N1730 H1736 0.984 . S
N1730 H1737 0.984 . S
N1731 C1724 1.356 . S
N1731 H1734 0.984 . S
N1731 H1735 0.985 . S
H1732 N1727 0.984 . S
H1733 N1727 0.985 . S
H1734 N1731 0.984 . S
H1735 N1731 0.985 . S
H1736 N1730 0.984 . S
H1737 N1730 0.984 . S
H1738 N1726 0.984 . S
H1739 N1726 0.985 . S
C1740 C1741 1.363 . S
C1740 C1746 1.379 . S
C1740 N1748 1.356 . S
C1741 C1740 1.363 . S
C1741 C1747 1.363 . S
C1742 C1743 1.363 . S
C1742 C1747 1.379 . S
C1742 N1749 1.356 . S
C1743 C1742 1.363 . S
C1743 C1746 1.363 . S
N1744 C1746 1.356 . S
N1744 H1756 0.984 . S
N1744 H1757 0.985 . S
N1745 C1747 1.356 . S
N1745 H1750 0.984 . S
N1745 H1751 0.985 . S
C1746 C1740 1.379 . S
C1746 C1743 1.363 . S
C1746 N1744 1.356 . S
C1747 C1741 1.363 . S
C1747 C1742 1.379 . S
C1747 N1745 1.356 . S
N1748 C1740 1.356 . S
N1748 H1754 0.984 . S
N1748 H1755 0.984 . S
N1749 C1742 1.356 . S
N1749 H1752 0.984 . S
N1749 H1753 0.985 . S
H1750 N1745 0.984 . S
H1751 N1745 0.985 . S
H1752 N1749 0.984 . S
H1753 N1749 0.985 . S
H1754 N1748 0.984 . S
H1755 N1748 0.984 . S
H1756 N1744 0.984 . S
H1757 N1744 0.985 . S
C1758 C1759 1.363 . S
C1758 C1764 1.379 . S
C1758 N1766 1.356 . S
C1759 C1758 1.363 . S
C1759 C1765 1.363 . S
C1760 C1761 1.363 . S
C1760 C1765 1.379 . S
C1760 N1767 1.356 . S
C1761 C1760 1.363 . S
C1761 C1764 1.363 . S
N1762 C1764 1.356 . S
N1762 H1774 0.984 . S
N1762 H1775 0.985 . S
N1763 C1765 1.356 . S
N1763 H1768 0.984 . S
N1763 H1769 0.985 . S
C1764 C1758 1.379 . S
C1764 C1761 1.363 . S
C1764 N1762 1.356 . S
C1765 C1759 1.363 . S
C1765 C1760 1.379 . S
C1765 N1763 1.356 . S
N1766 C1758 1.356 . S
N1766 H1772 0.984 . S
N1766 H1773 0.984 . S
N1767 C1760 1.356 . S
N1767 H1770 0.984 . S
N1767 H1771 0.985 . S
H1768 N1763 0.984 . S
H1769 N1763 0.985 . S
H1770 N1767 0.984 . S
H1771 N1767 0.985 . S
H1772 N1766 0.984 . S
H1773 N1766 0.984 . S
H1774 N1762 0.984 . S
H1775 N1762 0.985 . S
C1776 C1777 1.363 . S
C1776 C1782 1.379 . S
C1776 N1784 1.356 . S
C1777 C1776 1.363 . S
C1777 C1783 1.363 . S
C1778 C1779 1.363 . S
C1778 C1783 1.379 . S
C1778 N1785 1.356 . S
C1779 C1778 1.363 . S
C1779 C1782 1.363 . S
N1780 C1782 1.356 . S
N1780 H1792 0.984 . S
N1780 H1793 0.985 . S
N1781 C1783 1.356 . S
N1781 H1786 0.984 . S
N1781 H1787 0.985 . S
C1782 C1776 1.379 . S
C1782 C1779 1.363 . S
C1782 N1780 1.356 . S
C1783 C1777 1.363 . S
C1783 C1778 1.379 . S
C1783 N1781 1.356 . S
N1784 C1776 1.356 . S
N1784 H1790 0.984 . S
N1784 H1791 0.984 . S
N1785 C1778 1.356 . S
N1785 H1788 0.984 . S
N1785 H1789 0.985 . S
H1786 N1781 0.984 . S
H1787 N1781 0.985 . S
H1788 N1785 0.984 . S
H1789 N1785 0.985 . S
H1790 N1784 0.984 . S
H1791 N1784 0.984 . S
H1792 N1780 0.984 . S
H1793 N1780 0.985 . S
C1794 C1795 1.363 . S
C1794 C1800 1.379 . S
C1794 N1802 1.356 . S
C1795 C1794 1.363 . S
C1795 C1801 1.363 . S
C1796 C1797 1.363 . S
C1796 C1801 1.379 . S
C1796 N1803 1.356 . S
C1797 C1796 1.363 . S
C1797 C1800 1.363 . S
N1798 C1800 1.356 . S
N1798 H1810 0.984 . S
N1798 H1811 0.985 . S
N1799 C1801 1.356 . S
N1799 H1804 0.984 . S
N1799 H1805 0.985 . S
C1800 C1794 1.379 . S
C1800 C1797 1.363 . S
C1800 N1798 1.356 . S
C1801 C1795 1.363 . S
C1801 C1796 1.379 . S
C1801 N1799 1.356 . S
N1802 C1794 1.356 . S
N1802 H1808 0.984 . S
N1802 H1809 0.984 . S
N1803 C1796 1.356 . S
N1803 H1806 0.984 . S
N1803 H1807 0.985 . S
H1804 N1799 0.984 . S
H1805 N1799 0.985 . S
H1806 N1803 0.984 . S
H1807 N1803 0.985 . S
H1808 N1802 0.984 . S
H1809 N1802 0.984 . S
H1810 N1798 0.984 . S
H1811 N1798 0.985 . S
C1812 C1813 1.363 . S
C1812 C1818 1.379 . S
C1812 N1820 1.356 . S
C1813 C1812 1.363 . S
C1813 C1819 1.363 . S
C1814 C1815 1.363 . S
C1814 C1819 1.379 . S
C1814 N1821 1.356 . S
C1815 C1814 1.363 . S
C1815 C1818 1.363 . S
N1816 C1818 1.356 . S
N1816 H1828 0.984 . S
N1816 H1829 0.985 . S
N1817 C1819 1.356 . S
N1817 H1822 0.984 . S
N1817 H1823 0.985 . S
C1818 C1812 1.379 . S
C1818 C1815 1.363 . S
C1818 N1816 1.356 . S
C1819 C1813 1.363 . S
C1819 C1814 1.379 . S
C1819 N1817 1.356 . S
N1820 C1812 1.356 . S
N1820 H1826 0.984 . S
N1820 H1827 0.984 . S
N1821 C1814 1.356 . S
N1821 H1824 0.984 . S
N1821 H1825 0.985 . S
H1822 N1817 0.984 . S
H1823 N1817 0.985 . S
H1824 N1821 0.984 . S
H1825 N1821 0.985 . S
H1826 N1820 0.984 . S
H1827 N1820 0.984 . S
H1828 N1816 0.984 . S
H1829 N1816 0.985 . S
C1830 C1831 1.363 . S
C1830 C1836 1.379 . S
C1830 N1838 1.356 . S
C1831 C1830 1.363 . S
C1831 C1837 1.363 . S
C1832 C1833 1.363 . S
C1832 C1837 1.379 . S
C1832 N1839 1.356 . S
C1833 C1832 1.363 . S
C1833 C1836 1.363 . S
N1834 C1836 1.356 . S
N1834 H1846 0.984 . S
N1834 H1847 0.985 . S
N1835 C1837 1.356 . S
N1835 H1840 0.984 . S
N1835 H1841 0.985 . S
C1836 C1830 1.379 . S
C1836 C1833 1.363 . S
C1836 N1834 1.356 . S
C1837 C1831 1.363 . S
C1837 C1832 1.379 . S
C1837 N1835 1.356 . S
N1838 C1830 1.356 . S
N1838 H1844 0.984 . S
N1838 H1845 0.984 . S
N1839 C1832 1.356 . S
N1839 H1842 0.984 . S
N1839 H1843 0.985 . S
H1840 N1835 0.984 . S
H1841 N1835 0.985 . S
H1842 N1839 0.984 . S
H1843 N1839 0.985 . S
H1844 N1838 0.984 . S
H1845 N1838 0.984 . S
H1846 N1834 0.984 . S
H1847 N1834 0.985 . S
C1848 C1849 1.363 . S
C1848 C1854 1.379 . S
C1848 N1856 1.356 . S
C1849 C1848 1.363 . S
C1849 C1855 1.363 . S
C1850 C1851 1.363 . S
C1850 C1855 1.379 . S
C1850 N1857 1.356 . S
C1851 C1850 1.363 . S
C1851 C1854 1.363 . S
N1852 C1854 1.356 . S
N1852 H1864 0.984 . S
N1852 H1865 0.985 . S
N1853 C1855 1.356 . S
N1853 H1858 0.984 . S
N1853 H1859 0.985 . S
C1854 C1848 1.379 . S
C1854 C1851 1.363 . S
C1854 N1852 1.356 . S
C1855 C1849 1.363 . S
C1855 C1850 1.379 . S
C1855 N1853 1.356 . S
N1856 C1848 1.356 . S
N1856 H1862 0.984 . S
N1856 H1863 0.984 . S
N1857 C1850 1.356 . S
N1857 H1860 0.984 . S
N1857 H1861 0.985 . S
H1858 N1853 0.984 . S
H1859 N1853 0.985 . S
H1860 N1857 0.984 . S
H1861 N1857 0.985 . S
H1862 N1856 0.984 . S
H1863 N1856 0.984 . S
H1864 N1852 0.984 . S
H1865 N1852 0.985 . S
C1866 C1867 1.363 . S
C1866 C1872 1.379 . S
C1866 N1874 1.356 . S
C1867 C1866 1.363 . S
C1867 C1873 1.363 . S
C1868 C1869 1.363 . S
C1868 C1873 1.379 . S
C1868 N1875 1.356 . S
C1869 C1868 1.363 . S
C1869 C1872 1.363 . S
N1870 C1872 1.356 . S
N1870 H1882 0.984 . S
N1870 H1883 0.985 . S
N1871 C1873 1.356 . S
N1871 H1876 0.984 . S
N1871 H1877 0.985 . S
C1872 C1866 1.379 . S
C1872 C1869 1.363 . S
C1872 N1870 1.356 . S
C1873 C1867 1.363 . S
C1873 C1868 1.379 . S
C1873 N1871 1.356 . S
N1874 C1866 1.356 . S
N1874 H1880 0.984 . S
N1874 H1881 0.984 . S
N1875 C1868 1.356 . S
N1875 H1878 0.984 . S
N1875 H1879 0.985 . S
H1876 N1871 0.984 . S
H1877 N1871 0.985 . S
H1878 N1875 0.984 . S
H1879 N1875 0.985 . S
H1880 N1874 0.984 . S
H1881 N1874 0.984 . S
H1882 N1870 0.984 . S
H1883 N1870 0.985 . S
C1884 C1885 1.363 . S
C1884 C1890 1.379 . S
C1884 N1892 1.356 . S
C1885 C1884 1.363 . S
C1885 C1891 1.363 . S
C1886 C1887 1.363 . S
C1886 C1891 1.379 . S
C1886 N1893 1.356 . S
C1887 C1886 1.363 . S
C1887 C1890 1.363 . S
N1888 C1890 1.356 . S
N1888 H1900 0.984 . S
N1888 H1901 0.985 . S
N1889 C1891 1.356 . S
N1889 H1894 0.984 . S
N1889 H1895 0.985 . S
C1890 C1884 1.379 . S
C1890 C1887 1.363 . S
C1890 N1888 1.356 . S
C1891 C1885 1.363 . S
C1891 C1886 1.379 . S
C1891 N1889 1.356 . S
N1892 C1884 1.356 . S
N1892 H1898 0.984 . S
N1892 H1899 0.984 . S
N1893 C1886 1.356 . S
N1893 H1896 0.984 . S
N1893 H1897 0.985 . S
H1894 N1889 0.984 . S
H1895 N1889 0.985 . S
H1896 N1893 0.984 . S
H1897 N1893 0.985 . S
H1898 N1892 0.984 . S
H1899 N1892 0.984 . S
H1900 N1888 0.984 . S
H1901 N1888 0.985 . S
C1902 C1903 1.363 . S
C1902 C1908 1.379 . S
C1902 N1910 1.356 . S
C1903 C1902 1.363 . S
C1903 C1909 1.363 . S
C1904 C1905 1.363 . S
C1904 C1909 1.379 . S
C1904 N1911 1.356 . S
C1905 C1904 1.363 . S
C1905 C1908 1.363 . S
N1906 C1908 1.356 . S
N1906 H1918 0.984 . S
N1906 H1919 0.985 . S
N1907 C1909 1.356 . S
N1907 H1912 0.984 . S
N1907 H1913 0.985 . S
C1908 C1902 1.379 . S
C1908 C1905 1.363 . S
C1908 N1906 1.356 . S
C1909 C1903 1.363 . S
C1909 C1904 1.379 . S
C1909 N1907 1.356 . S
N1910 C1902 1.356 . S
N1910 H1916 0.984 . S
N1910 H1917 0.984 . S
N1911 C1904 1.356 . S
N1911 H1914 0.984 . S
N1911 H1915 0.985 . S
H1912 N1907 0.984 . S
H1913 N1907 0.985 . S
H1914 N1911 0.984 . S
H1915 N1911 0.985 . S
H1916 N1910 0.984 . S
H1917 N1910 0.984 . S
H1918 N1906 0.984 . S
H1919 N1906 0.985 . S
C1920 C1921 1.363 . S
C1920 C1926 1.379 . S
C1920 N1928 1.356 . S
C1921 C1920 1.363 . S
C1921 C1927 1.363 . S
C1922 C1923 1.363 . S
C1922 C1927 1.379 . S
C1922 N1929 1.356 . S
C1923 C1922 1.363 . S
C1923 C1926 1.363 . S
N1924 C1926 1.356 . S
N1924 H1936 0.984 . S
N1924 H1937 0.985 . S
N1925 C1927 1.356 . S
N1925 H1930 0.984 . S
N1925 H1931 0.985 . S
C1926 C1920 1.379 . S
C1926 C1923 1.363 . S
C1926 N1924 1.356 . S
C1927 C1921 1.363 . S
C1927 C1922 1.379 . S
C1927 N1925 1.356 . S
N1928 C1920 1.356 . S
N1928 H1934 0.984 . S
N1928 H1935 0.984 . S
N1929 C1922 1.356 . S
N1929 H1932 0.984 . S
N1929 H1933 0.985 . S
H1930 N1925 0.984 . S
H1931 N1925 0.985 . S
H1932 N1929 0.984 . S
H1933 N1929 0.985 . S
H1934 N1928 0.984 . S
H1935 N1928 0.984 . S
H1936 N1924 0.984 . S
H1937 N1924 0.985 . S
C1938 C1939 1.363 . S
C1938 C1944 1.379 . S
C1938 N1946 1.356 . S
C1939 C1938 1.363 . S
C1939 C1945 1.363 . S
C1940 C1941 1.363 . S
C1940 C1945 1.379 . S
C1940 N1947 1.356 . S
C1941 C1940 1.363 . S
C1941 C1944 1.363 . S
N1942 C1944 1.356 . S
N1942 H1954 0.984 . S
N1942 H1955 0.985 . S
N1943 C1945 1.356 . S
N1943 H1948 0.984 . S
N1943 H1949 0.985 . S
C1944 C1938 1.379 . S
C1944 C1941 1.363 . S
C1944 N1942 1.356 . S
C1945 C1939 1.363 . S
C1945 C1940 1.379 . S
C1945 N1943 1.356 . S
N1946 C1938 1.356 . S
N1946 H1952 0.984 . S
N1946 H1953 0.984 . S
N1947 C1940 1.356 . S
N1947 H1950 0.984 . S
N1947 H1951 0.985 . S
H1948 N1943 0.984 . S
H1949 N1943 0.985 . S
H1950 N1947 0.984 . S
H1951 N1947 0.985 . S
H1952 N1946 0.984 . S
H1953 N1946 0.984 . S
H1954 N1942 0.984 . S
H1955 N1942 0.985 . S
C1956 C1957 1.363 . S
C1956 C1962 1.379 . S
C1956 N1964 1.356 . S
C1957 C1956 1.363 . S
C1957 C1963 1.363 . S
C1958 C1959 1.363 . S
C1958 C1963 1.379 . S
C1958 N1965 1.356 . S
C1959 C1958 1.363 . S
C1959 C1962 1.363 . S
N1960 C1962 1.356 . S
N1960 H1972 0.984 . S
N1960 H1973 0.985 . S
N1961 C1963 1.356 . S
N1961 H1966 0.984 . S
N1961 H1967 0.985 . S
C1962 C1956 1.379 . S
C1962 C1959 1.363 . S
C1962 N1960 1.356 . S
C1963 C1957 1.363 . S
C1963 C1958 1.379 . S
C1963 N1961 1.356 . S
N1964 C1956 1.356 . S
N1964 H1970 0.984 . S
N1964 H1971 0.984 . S
N1965 C1958 1.356 . S
N1965 H1968 0.984 . S
N1965 H1969 0.985 . S
H1966 N1961 0.984 . S
H1967 N1961 0.985 . S
H1968 N1965 0.984 . S
H1969 N1965 0.985 . S
H1970 N1964 0.984 . S
H1971 N1964 0.984 . S
H1972 N1960 0.984 . S
H1973 N1960 0.985 . S
C1974 C1975 1.363 . S
C1974 C1980 1.379 . S
C1974 N1982 1.356 . S
C1975 C1974 1.363 . S
C1975 C1981 1.363 . S
C1976 C1977 1.363 . S
C1976 C1981 1.379 . S
C1976 N1983 1.356 . S
C1977 C1976 1.363 . S
C1977 C1980 1.363 . S
N1978 C1980 1.356 . S
N1978 H1990 0.984 . S
N1978 H1991 0.985 . S
N1979 C1981 1.356 . S
N1979 H1984 0.984 . S
N1979 H1985 0.985 . S
C1980 C1974 1.379 . S
C1980 C1977 1.363 . S
C1980 N1978 1.356 . S
C1981 C1975 1.363 . S
C1981 C1976 1.379 . S
C1981 N1979 1.356 . S
N1982 C1974 1.356 . S
N1982 H1988 0.984 . S
N1982 H1989 0.984 . S
N1983 C1976 1.356 . S
N1983 H1986 0.984 . S
N1983 H1987 0.985 . S
H1984 N1979 0.984 . S
H1985 N1979 0.985 . S
H1986 N1983 0.984 . S
H1987 N1983 0.985 . S
H1988 N1982 0.984 . S
H1989 N1982 0.984 . S
H1990 N1978 0.984 . S
H1991 N1978 0.985 . S
C1992 C1993 1.363 . S
C1992 C1998 1.379 . S
C1992 N2000 1.356 . S
C1993 C1992 1.363 . S
C1993 C1999 1.363 . S
C1994 C1995 1.363 . S
C1994 C1999 1.379 . S
C1994 N2001 1.356 . S
C1995 C1994 1.363 . S
C1995 C1998 1.363 . S
N1996 C1998 1.356 . S
N1996 H2008 0.984 . S
N1996 H2009 0.985 . S
N1997 C1999 1.356 . S
N1997 H2002 0.984 . S
N1997 H2003 0.985 . S
C1998 C1992 1.379 . S
C1998 C1995 1.363 . S
C1998 N1996 1.356 . S
C1999 C1993 1.363 . S
C1999 C1994 1.379 . S
C1999 N1997 1.356 . S
N2000 C1992 1.356 . S
N2000 H2006 0.984 . S
N2000 H2007 0.984 . S
N2001 C1994 1.356 . S
N2001 H2004 0.984 . S
N2001 H2005 0.985 . S
H2002 N1997 0.984 . S
H2003 N1997 0.985 . S
H2004 N2001 0.984 . S
H2005 N2001 0.985 . S
H2006 N2000 0.984 . S
H2007 N2000 0.984 . S
H2008 N1996 0.984 . S
H2009 N1996 0.985 . S
C2010 C2011 1.363 . S
C2010 C2016 1.379 . S
C2010 N2018 1.356 . S
C2011 C2010 1.363 . S
C2011 C2017 1.363 . S
C2012 C2013 1.363 . S
C2012 C2017 1.379 . S
C2012 N2019 1.356 . S
C2013 C2012 1.363 . S
C2013 C2016 1.363 . S
N2014 C2016 1.356 . S
N2014 H2026 0.984 . S
N2014 H2027 0.985 . S
N2015 C2017 1.356 . S
N2015 H2020 0.984 . S
N2015 H2021 0.985 . S
C2016 C2010 1.379 . S
C2016 C2013 1.363 . S
C2016 N2014 1.356 . S
C2017 C2011 1.363 . S
C2017 C2012 1.379 . S
C2017 N2015 1.356 . S
N2018 C2010 1.356 . S
N2018 H2024 0.984 . S
N2018 H2025 0.984 . S
N2019 C2012 1.356 . S
N2019 H2022 0.984 . S
N2019 H2023 0.985 . S
H2020 N2015 0.984 . S
H2021 N2015 0.985 . S
H2022 N2019 0.984 . S
H2023 N2019 0.985 . S
H2024 N2018 0.984 . S
H2025 N2018 0.984 . S
H2026 N2014 0.984 . S
H2027 N2014 0.985 . S
C2028 C2029 1.363 . S
C2028 C2034 1.379 . S
C2028 N2036 1.356 . S
C2029 C2028 1.363 . S
C2029 C2035 1.363 . S
C2030 C2031 1.363 . S
C2030 C2035 1.379 . S
C2030 N2037 1.356 . S
C2031 C2030 1.363 . S
C2031 C2034 1.363 . S
N2032 C2034 1.356 . S
N2032 H2044 0.984 . S
N2032 H2045 0.985 . S
N2033 C2035 1.356 . S
N2033 H2038 0.984 . S
N2033 H2039 0.985 . S
C2034 C2028 1.379 . S
C2034 C2031 1.363 . S
C2034 N2032 1.356 . S
C2035 C2029 1.363 . S
C2035 C2030 1.379 . S
C2035 N2033 1.356 . S
N2036 C2028 1.356 . S
N2036 H2042 0.984 . S
N2036 H2043 0.984 . S
N2037 C2030 1.356 . S
N2037 H2040 0.984 . S
N2037 H2041 0.985 . S
H2038 N2033 0.984 . S
H2039 N2033 0.985 . S
H2040 N2037 0.984 . S
H2041 N2037 0.985 . S
H2042 N2036 0.984 . S
H2043 N2036 0.984 . S
H2044 N2032 0.984 . S
H2045 N2032 0.985 . S
C2046 C2047 1.363 . S
C2046 C2052 1.379 . S
C2046 N2054 1.356 . S
C2047 C2046 1.363 . S
C2047 C2053 1.363 . S
C2048 C2049 1.363 . S
C2048 C2053 1.379 . S
C2048 N2055 1.356 . S
C2049 C2048 1.363 . S
C2049 C2052 1.363 . S
N2050 C2052 1.356 . S
N2050 H2062 0.984 . S
N2050 H2063 0.985 . S
N2051 C2053 1.356 . S
N2051 H2056 0.984 . S
N2051 H2057 0.985 . S
C2052 C2046 1.379 . S
C2052 C2049 1.363 . S
C2052 N2050 1.356 . S
C2053 C2047 1.363 . S
C2053 C2048 1.379 . S
C2053 N2051 1.356 . S
N2054 C2046 1.356 . S
N2054 H2060 0.984 . S
N2054 H2061 0.984 . S
N2055 C2048 1.356 . S
N2055 H2058 0.984 . S
N2055 H2059 0.985 . S
H2056 N2051 0.984 . S
H2057 N2051 0.985 . S
H2058 N2055 0.984 . S
H2059 N2055 0.985 . S
H2060 N2054 0.984 . S
H2061 N2054 0.984 . S
H2062 N2050 0.984 . S
H2063 N2050 0.985 . S
C2064 C2065 1.363 . S
C2064 C2070 1.379 . S
C2064 N2072 1.356 . S
C2065 C2064 1.363 . S
C2065 C2071 1.363 . S
C2066 C2067 1.363 . S
C2066 C2071 1.379 . S
C2066 N2073 1.356 . S
C2067 C2066 1.363 . S
C2067 C2070 1.363 . S
N2068 C2070 1.356 . S
N2068 H2080 0.984 . S
N2068 H2081 0.985 . S
N2069 C2071 1.356 . S
N2069 H2074 0.984 . S
N2069 H2075 0.985 . S
C2070 C2064 1.379 . S
C2070 C2067 1.363 . S
C2070 N2068 1.356 . S
C2071 C2065 1.363 . S
C2071 C2066 1.379 . S
C2071 N2069 1.356 . S
N2072 C2064 1.356 . S
N2072 H2078 0.984 . S
N2072 H2079 0.984 . S
N2073 C2066 1.356 . S
N2073 H2076 0.984 . S
N2073 H2077 0.985 . S
H2074 N2069 0.984 . S
H2075 N2069 0.985 . S
H2076 N2073 0.984 . S
H2077 N2073 0.985 . S
H2078 N2072 0.984 . S
H2079 N2072 0.984 . S
H2080 N2068 0.984 . S
H2081 N2068 0.985 . S
C2082 C2083 1.363 . S
C2082 C2088 1.379 . S
C2082 N2090 1.356 . S
C2083 C2082 1.363 . S
C2083 C2089 1.363 . S
C2084 C2085 1.363 . S
C2084 C2089 1.379 . S
C2084 N2091 1.356 . S
C2085 C2084 1.363 . S
C2085 C2088 1.363 . S
N2086 C2088 1.356 . S
N2086 H2098 0.984 . S
N2086 H2099 0.985 . S
N2087 C2089 1.356 . S
N2087 H2092 0.984 . S
N2087 H2093 0.985 . S
C2088 C2082 1.379 . S
C2088 C2085 1.363 . S
C2088 N2086 1.356 . S
C2089 C2083 1.363 . S
C2089 C2084 1.379 . S
C2089 N2087 1.356 . S
N2090 C2082 1.356 . S
N2090 H2096 0.984 . S
N2090 H2097 0.984 . S
N2091 C2084 1.356 . S
N2091 H2094 0.984 . S
N2091 H2095 0.985 . S
H2092 N2087 0.984 . S
H2093 N2087 0.985 . S
H2094 N2091 0.984 . S
H2095 N2091 0.985 . S
H2096 N2090 0.984 . S
H2097 N2090 0.984 . S
H2098 N2086 0.984 . S
H2099 N2086 0.985 . S
C2100 C2101 1.363 . S
C2100 C2106 1.379 . S
C2100 N2108 1.356 . S
C2101 C2100 1.363 . S
C2101 C2107 1.363 . S
C2102 C2103 1.363 . S
C2102 C2107 1.379 . S
C2102 N2109 1.356 . S
C2103 C2102 1.363 . S
C2103 C2106 1.363 . S
N2104 C2106 1.356 . S
N2104 H2116 0.984 . S
N2104 H2117 0.985 . S
N2105 C2107 1.356 . S
N2105 H2110 0.984 . S
N2105 H2111 0.985 . S
C2106 C2100 1.379 . S
C2106 C2103 1.363 . S
C2106 N2104 1.356 . S
C2107 C2101 1.363 . S
C2107 C2102 1.379 . S
C2107 N2105 1.356 . S
N2108 C2100 1.356 . S
N2108 H2114 0.984 . S
N2108 H2115 0.984 . S
N2109 C2102 1.356 . S
N2109 H2112 0.984 . S
N2109 H2113 0.985 . S
H2110 N2105 0.984 . S
H2111 N2105 0.985 . S
H2112 N2109 0.984 . S
H2113 N2109 0.985 . S
H2114 N2108 0.984 . S
H2115 N2108 0.984 . S
H2116 N2104 0.984 . S
H2117 N2104 0.985 . S
C2118 C2119 1.363 . S
C2118 C2124 1.379 . S
C2118 N2126 1.356 . S
C2119 C2118 1.363 . S
C2119 C2125 1.363 . S
C2120 C2121 1.363 . S
C2120 C2125 1.379 . S
C2120 N2127 1.356 . S
C2121 C2120 1.363 . S
C2121 C2124 1.363 . S
N2122 C2124 1.356 . S
N2122 H2134 0.984 . S
N2122 H2135 0.985 . S
N2123 C2125 1.356 . S
N2123 H2128 0.984 . S
N2123 H2129 0.985 . S
C2124 C2118 1.379 . S
C2124 C2121 1.363 . S
C2124 N2122 1.356 . S
C2125 C2119 1.363 . S
C2125 C2120 1.379 . S
C2125 N2123 1.356 . S
N2126 C2118 1.356 . S
N2126 H2132 0.984 . S
N2126 H2133 0.984 . S
N2127 C2120 1.356 . S
N2127 H2130 0.984 . S
N2127 H2131 0.985 . S
H2128 N2123 0.984 . S
H2129 N2123 0.985 . S
H2130 N2127 0.984 . S
H2131 N2127 0.985 . S
H2132 N2126 0.984 . S
H2133 N2126 0.984 . S
H2134 N2122 0.984 . S
H2135 N2122 0.985 . S
C2136 C2137 1.363 . S
C2136 C2142 1.379 . S
C2136 N2144 1.356 . S
C2137 C2136 1.363 . S
C2137 C2143 1.363 . S
C2138 C2139 1.363 . S
C2138 C2143 1.379 . S
C2138 N2145 1.356 . S
C2139 C2138 1.363 . S
C2139 C2142 1.363 . S
N2140 C2142 1.356 . S
N2140 H2152 0.984 . S
N2140 H2153 0.985 . S
N2141 C2143 1.356 . S
N2141 H2146 0.984 . S
N2141 H2147 0.985 . S
C2142 C2136 1.379 . S
C2142 C2139 1.363 . S
C2142 N2140 1.356 . S
C2143 C2137 1.363 . S
C2143 C2138 1.379 . S
C2143 N2141 1.356 . S
N2144 C2136 1.356 . S
N2144 H2150 0.984 . S
N2144 H2151 0.984 . S
N2145 C2138 1.356 . S
N2145 H2148 0.984 . S
N2145 H2149 0.985 . S
H2146 N2141 0.984 . S
H2147 N2141 0.985 . S
H2148 N2145 0.984 . S
H2149 N2145 0.985 . S
H2150 N2144 0.984 . S
H2151 N2144 0.984 . S
H2152 N2140 0.984 . S
H2153 N2140 0.985 . S
C2154 C2155 1.363 . S
C2154 C2160 1.379 . S
C2154 N2162 1.356 . S
C2155 C2154 1.363 . S
C2155 C2161 1.363 . S
C2156 C2157 1.363 . S
C2156 C2161 1.379 . S
C2156 N2163 1.356 . S
C2157 C2156 1.363 . S
C2157 C2160 1.363 . S
N2158 C2160 1.356 . S
N2158 H2170 0.984 . S
N2158 H2171 0.985 . S
N2159 C2161 1.356 . S
N2159 H2164 0.984 . S
N2159 H2165 0.985 . S
C2160 C2154 1.379 . S
C2160 C2157 1.363 . S
C2160 N2158 1.356 . S
C2161 C2155 1.363 . S
C2161 C2156 1.379 . S
C2161 N2159 1.356 . S
N2162 C2154 1.356 . S
N2162 H2168 0.984 . S
N2162 H2169 0.984 . S
N2163 C2156 1.356 . S
N2163 H2166 0.984 . S
N2163 H2167 0.985 . S
H2164 N2159 0.984 . S
H2165 N2159 0.985 . S
H2166 N2163 0.984 . S
H2167 N2163 0.985 . S
H2168 N2162 0.984 . S
H2169 N2162 0.984 . S
H2170 N2158 0.984 . S
H2171 N2158 0.985 . S
C2172 C2173 1.363 . S
C2172 C2178 1.379 . S
C2172 N2180 1.356 . S
C2173 C2172 1.363 . S
C2173 C2179 1.363 . S
C2174 C2175 1.363 . S
C2174 C2179 1.379 . S
C2174 N2181 1.356 . S
C2175 C2174 1.363 . S
C2175 C2178 1.363 . S
N2176 C2178 1.356 . S
N2176 H2188 0.984 . S
N2176 H2189 0.985 . S
N2177 C2179 1.356 . S
N2177 H2182 0.984 . S
N2177 H2183 0.985 . S
C2178 C2172 1.379 . S
C2178 C2175 1.363 . S
C2178 N2176 1.356 . S
C2179 C2173 1.363 . S
C2179 C2174 1.379 . S
C2179 N2177 1.356 . S
N2180 C2172 1.356 . S
N2180 H2186 0.984 . S
N2180 H2187 0.984 . S
N2181 C2174 1.356 . S
N2181 H2184 0.984 . S
N2181 H2185 0.985 . S
H2182 N2177 0.984 . S
H2183 N2177 0.985 . S
H2184 N2181 0.984 . S
H2185 N2181 0.985 . S
H2186 N2180 0.984 . S
H2187 N2180 0.984 . S
H2188 N2176 0.984 . S
H2189 N2176 0.985 . S
C2190 C2191 1.363 . S
C2190 C2196 1.379 . S
C2190 N2198 1.356 . S
C2191 C2190 1.363 . S
C2191 C2197 1.363 . S
C2192 C2193 1.363 . S
C2192 C2197 1.379 . S
C2192 N2199 1.356 . S
C2193 C2192 1.363 . S
C2193 C2196 1.363 . S
N2194 C2196 1.356 . S
N2194 H2206 0.984 . S
N2194 H2207 0.985 . S
N2195 C2197 1.356 . S
N2195 H2200 0.984 . S
N2195 H2201 0.985 . S
C2196 C2190 1.379 . S
C2196 C2193 1.363 . S
C2196 N2194 1.356 . S
C2197 C2191 1.363 . S
C2197 C2192 1.379 . S
C2197 N2195 1.356 . S
N2198 C2190 1.356 . S
N2198 H2204 0.984 . S
N2198 H2205 0.984 . S
N2199 C2192 1.356 . S
N2199 H2202 0.984 . S
N2199 H2203 0.985 . S
H2200 N2195 0.984 . S
H2201 N2195 0.985 . S
H2202 N2199 0.984 . S
H2203 N2199 0.985 . S
H2204 N2198 0.984 . S
H2205 N2198 0.984 . S
H2206 N2194 0.984 . S
H2207 N2194 0.985 . S
C2208 C2209 1.363 . S
C2208 C2214 1.379 . S
C2208 N2216 1.356 . S
C2209 C2208 1.363 . S
C2209 C2215 1.363 . S
C2210 C2211 1.363 . S
C2210 C2215 1.379 . S
C2210 N2217 1.356 . S
C2211 C2210 1.363 . S
C2211 C2214 1.363 . S
N2212 C2214 1.356 . S
N2212 H2224 0.984 . S
N2212 H2225 0.985 . S
N2213 C2215 1.356 . S
N2213 H2218 0.984 . S
N2213 H2219 0.985 . S
C2214 C2208 1.379 . S
C2214 C2211 1.363 . S
C2214 N2212 1.356 . S
C2215 C2209 1.363 . S
C2215 C2210 1.379 . S
C2215 N2213 1.356 . S
N2216 C2208 1.356 . S
N2216 H2222 0.984 . S
N2216 H2223 0.984 . S
N2217 C2210 1.356 . S
N2217 H2220 0.984 . S
N2217 H2221 0.985 . S
H2218 N2213 0.984 . S
H2219 N2213 0.985 . S
H2220 N2217 0.984 . S
H2221 N2217 0.985 . S
H2222 N2216 0.984 . S
H2223 N2216 0.984 . S
H2224 N2212 0.984 . S
H2225 N2212 0.985 . S
C2226 C2227 1.363 . S
C2226 C2232 1.379 . S
C2226 N2234 1.356 . S
C2227 C2226 1.363 . S
C2227 C2233 1.363 . S
C2228 C2229 1.363 . S
C2228 C2233 1.379 . S
C2228 N2235 1.356 . S
C2229 C2228 1.363 . S
C2229 C2232 1.363 . S
N2230 C2232 1.356 . S
N2230 H2242 0.984 . S
N2230 H2243 0.985 . S
N2231 C2233 1.356 . S
N2231 H2236 0.984 . S
N2231 H2237 0.985 . S
C2232 C2226 1.379 . S
C2232 C2229 1.363 . S
C2232 N2230 1.356 . S
C2233 C2227 1.363 . S
C2233 C2228 1.379 . S
C2233 N2231 1.356 . S
N2234 C2226 1.356 . S
N2234 H2240 0.984 . S
N2234 H2241 0.984 . S
N2235 C2228 1.356 . S
N2235 H2238 0.984 . S
N2235 H2239 0.985 . S
H2236 N2231 0.984 . S
H2237 N2231 0.985 . S
H2238 N2235 0.984 . S
H2239 N2235 0.985 . S
H2240 N2234 0.984 . S
H2241 N2234 0.984 . S
H2242 N2230 0.984 . S
H2243 N2230 0.985 . S
C2244 C2245 1.363 . S
C2244 C2250 1.379 . S
C2244 N2252 1.356 . S
C2245 C2244 1.363 . S
C2245 C2251 1.363 . S
C2246 C2247 1.363 . S
C2246 C2251 1.379 . S
C2246 N2253 1.356 . S
C2247 C2246 1.363 . S
C2247 C2250 1.363 . S
N2248 C2250 1.356 . S
N2248 H2260 0.984 . S
N2248 H2261 0.985 . S
N2249 C2251 1.356 . S
N2249 H2254 0.984 . S
N2249 H2255 0.985 . S
C2250 C2244 1.379 . S
C2250 C2247 1.363 . S
C2250 N2248 1.356 . S
C2251 C2245 1.363 . S
C2251 C2246 1.379 . S
C2251 N2249 1.356 . S
N2252 C2244 1.356 . S
N2252 H2258 0.984 . S
N2252 H2259 0.984 . S
N2253 C2246 1.356 . S
N2253 H2256 0.984 . S
N2253 H2257 0.985 . S
H2254 N2249 0.984 . S
H2255 N2249 0.985 . S
H2256 N2253 0.984 . S
H2257 N2253 0.985 . S
H2258 N2252 0.984 . S
H2259 N2252 0.984 . S
H2260 N2248 0.984 . S
H2261 N2248 0.985 . S
C2262 C2263 1.363 . S
C2262 C2268 1.379 . S
C2262 N2270 1.356 . S
C2263 C2262 1.363 . S
C2263 C2269 1.363 . S
C2264 C2265 1.363 . S
C2264 C2269 1.379 . S
C2264 N2271 1.356 . S
C2265 C2264 1.363 . S
C2265 C2268 1.363 . S
N2266 C2268 1.356 . S
N2266 H2278 0.984 . S
N2266 H2279 0.985 . S
N2267 C2269 1.356 . S
N2267 H2272 0.984 . S
N2267 H2273 0.985 . S
C2268 C2262 1.379 . S
C2268 C2265 1.363 . S
C2268 N2266 1.356 . S
C2269 C2263 1.363 . S
C2269 C2264 1.379 . S
C2269 N2267 1.356 . S
N2270 C2262 1.356 . S
N2270 H2276 0.984 . S
N2270 H2277 0.984 . S
N2271 C2264 1.356 . S
N2271 H2274 0.984 . S
N2271 H2275 0.985 . S
H2272 N2267 0.984 . S
H2273 N2267 0.985 . S
H2274 N2271 0.984 . S
H2275 N2271 0.985 . S
H2276 N2270 0.984 . S
H2277 N2270 0.984 . S
H2278 N2266 0.984 . S
H2279 N2266 0.985 . S
C2280 C2281 1.363 . S
C2280 C2286 1.379 . S
C2280 N2288 1.356 . S
C2281 C2280 1.363 . S
C2281 C2287 1.363 . S
C2282 C2283 1.363 . S
C2282 C2287 1.379 . S
C2282 N2289 1.356 . S
C2283 C2282 1.363 . S
C2283 C2286 1.363 . S
N2284 C2286 1.356 . S
N2284 H2296 0.984 . S
N2284 H2297 0.985 . S
N2285 C2287 1.356 . S
N2285 H2290 0.984 . S
N2285 H2291 0.985 . S
C2286 C2280 1.379 . S
C2286 C2283 1.363 . S
C2286 N2284 1.356 . S
C2287 C2281 1.363 . S
C2287 C2282 1.379 . S
C2287 N2285 1.356 . S
N2288 C2280 1.356 . S
N2288 H2294 0.984 . S
N2288 H2295 0.984 . S
N2289 C2282 1.356 . S
N2289 H2292 0.984 . S
N2289 H2293 0.985 . S
H2290 N2285 0.984 . S
H2291 N2285 0.985 . S
H2292 N2289 0.984 . S
H2293 N2289 0.985 . S
H2294 N2288 0.984 . S
H2295 N2288 0.984 . S
H2296 N2284 0.984 . S
H2297 N2284 0.985 . S
C2298 C2299 1.363 . S
C2298 C2304 1.379 . S
C2298 N2306 1.356 . S
C2299 C2298 1.363 . S
C2299 C2305 1.363 . S
C2300 C2301 1.363 . S
C2300 C2305 1.379 . S
C2300 N2307 1.356 . S
C2301 C2300 1.363 . S
C2301 C2304 1.363 . S
N2302 C2304 1.356 . S
N2302 H2314 0.984 . S
N2302 H2315 0.985 . S
N2303 C2305 1.356 . S
N2303 H2308 0.984 . S
N2303 H2309 0.985 . S
C2304 C2298 1.379 . S
C2304 C2301 1.363 . S
C2304 N2302 1.356 . S
C2305 C2299 1.363 . S
C2305 C2300 1.379 . S
C2305 N2303 1.356 . S
N2306 C2298 1.356 . S
N2306 H2312 0.984 . S
N2306 H2313 0.984 . S
N2307 C2300 1.356 . S
N2307 H2310 0.984 . S
N2307 H2311 0.985 . S
H2308 N2303 0.984 . S
H2309 N2303 0.985 . S
H2310 N2307 0.984 . S
H2311 N2307 0.985 . S
H2312 N2306 0.984 . S
H2313 N2306 0.984 . S
H2314 N2302 0.984 . S
H2315 N2302 0.985 . S
C2316 C2317 1.363 . S
C2316 C2322 1.379 . S
C2316 N2324 1.356 . S
C2317 C2316 1.363 . S
C2317 C2323 1.363 . S
C2318 C2319 1.363 . S
C2318 C2323 1.379 . S
C2318 N2325 1.356 . S
C2319 C2318 1.363 . S
C2319 C2322 1.363 . S
N2320 C2322 1.356 . S
N2320 H2332 0.984 . S
N2320 H2333 0.985 . S
N2321 C2323 1.356 . S
N2321 H2326 0.984 . S
N2321 H2327 0.985 . S
C2322 C2316 1.379 . S
C2322 C2319 1.363 . S
C2322 N2320 1.356 . S
C2323 C2317 1.363 . S
C2323 C2318 1.379 . S
C2323 N2321 1.356 . S
N2324 C2316 1.356 . S
N2324 H2330 0.984 . S
N2324 H2331 0.984 . S
N2325 C2318 1.356 . S
N2325 H2328 0.984 . S
N2325 H2329 0.985 . S
H2326 N2321 0.984 . S
H2327 N2321 0.985 . S
H2328 N2325 0.984 . S
H2329 N2325 0.985 . S
H2330 N2324 0.984 . S
H2331 N2324 0.984 . S
H2332 N2320 0.984 . S
H2333 N2320 0.985 . S
C2334 C2335 1.363 . S
C2334 C2340 1.379 . S
C2334 N2342 1.356 . S
C2335 C2334 1.363 . S
C2335 C2341 1.363 . S
C2336 C2337 1.363 . S
C2336 C2341 1.379 . S
C2336 N2343 1.356 . S
C2337 C2336 1.363 . S
C2337 C2340 1.363 . S
N2338 C2340 1.356 . S
N2338 H2350 0.984 . S
N2338 H2351 0.985 . S
N2339 C2341 1.356 . S
N2339 H2344 0.984 . S
N2339 H2345 0.985 . S
C2340 C2334 1.379 . S
C2340 C2337 1.363 . S
C2340 N2338 1.356 . S
C2341 C2335 1.363 . S
C2341 C2336 1.379 . S
C2341 N2339 1.356 . S
N2342 C2334 1.356 . S
N2342 H2348 0.984 . S
N2342 H2349 0.984 . S
N2343 C2336 1.356 . S
N2343 H2346 0.984 . S
N2343 H2347 0.985 . S
H2344 N2339 0.984 . S
H2345 N2339 0.985 . S
H2346 N2343 0.984 . S
H2347 N2343 0.985 . S
H2348 N2342 0.984 . S
H2349 N2342 0.984 . S
H2350 N2338 0.984 . S
H2351 N2338 0.985 . S
C2352 C2353 1.363 . S
C2352 C2358 1.379 . S
C2352 N2360 1.356 . S
C2353 C2352 1.363 . S
C2353 C2359 1.363 . S
C2354 C2355 1.363 . S
C2354 C2359 1.379 . S
C2354 N2361 1.356 . S
C2355 C2354 1.363 . S
C2355 C2358 1.363 . S
N2356 C2358 1.356 . S
N2356 H2368 0.984 . S
N2356 H2369 0.985 . S
N2357 C2359 1.356 . S
N2357 H2362 0.984 . S
N2357 H2363 0.985 . S
C2358 C2352 1.379 . S
C2358 C2355 1.363 . S
C2358 N2356 1.356 . S
C2359 C2353 1.363 . S
C2359 C2354 1.379 . S
C2359 N2357 1.356 . S
N2360 C2352 1.356 . S
N2360 H2366 0.984 . S
N2360 H2367 0.984 . S
N2361 C2354 1.356 . S
N2361 H2364 0.984 . S
N2361 H2365 0.985 . S
H2362 N2357 0.984 . S
H2363 N2357 0.985 . S
H2364 N2361 0.984 . S
H2365 N2361 0.985 . S
H2366 N2360 0.984 . S
H2367 N2360 0.984 . S
H2368 N2356 0.984 . S
H2369 N2356 0.985 . S
C2370 C2371 1.363 . S
C2370 C2376 1.379 . S
C2370 N2378 1.356 . S
C2371 C2370 1.363 . S
C2371 C2377 1.363 . S
C2372 C2373 1.363 . S
C2372 C2377 1.379 . S
C2372 N2379 1.356 . S
C2373 C2372 1.363 . S
C2373 C2376 1.363 . S
N2374 C2376 1.356 . S
N2374 H2386 0.984 . S
N2374 H2387 0.985 . S
N2375 C2377 1.356 . S
N2375 H2380 0.984 . S
N2375 H2381 0.985 . S
C2376 C2370 1.379 . S
C2376 C2373 1.363 . S
C2376 N2374 1.356 . S
C2377 C2371 1.363 . S
C2377 C2372 1.379 . S
C2377 N2375 1.356 . S
N2378 C2370 1.356 . S
N2378 H2384 0.984 . S
N2378 H2385 0.984 . S
N2379 C2372 1.356 . S
N2379 H2382 0.984 . S
N2379 H2383 0.985 . S
H2380 N2375 0.984 . S
H2381 N2375 0.985 . S
H2382 N2379 0.984 . S
H2383 N2379 0.985 . S
H2384 N2378 0.984 . S
H2385 N2378 0.984 . S
H2386 N2374 0.984 . S
H2387 N2374 0.985 . S
C2388 C2389 1.363 . S
C2388 C2394 1.379 . S
C2388 N2396 1.356 . S
C2389 C2388 1.363 . S
C2389 C2395 1.363 . S
C2390 C2391 1.363 . S
C2390 C2395 1.379 . S
C2390 N2397 1.356 . S
C2391 C2390 1.363 . S
C2391 C2394 1.363 . S
N2392 C2394 1.356 . S
N2392 H2404 0.984 . S
N2392 H2405 0.985 . S
N2393 C2395 1.356 . S
N2393 H2398 0.984 . S
N2393 H2399 0.985 . S
C2394 C2388 1.379 . S
C2394 C2391 1.363 . S
C2394 N2392 1.356 . S
C2395 C2389 1.363 . S
C2395 C2390 1.379 . S
C2395 N2393 1.356 . S
N2396 C2388 1.356 . S
N2396 H2402 0.984 . S
N2396 H2403 0.984 . S
N2397 C2390 1.356 . S
N2397 H2400 0.984 . S
N2397 H2401 0.985 . S
H2398 N2393 0.984 . S
H2399 N2393 0.985 . S
H2400 N2397 0.984 . S
H2401 N2397 0.985 . S
H2402 N2396 0.984 . S
H2403 N2396 0.984 . S
H2404 N2392 0.984 . S
H2405 N2392 0.985 . S
C2406 C2407 1.363 . S
C2406 C2412 1.379 . S
C2406 N2414 1.356 . S
C2407 C2406 1.363 . S
C2407 C2413 1.363 . S
C2408 C2409 1.363 . S
C2408 C2413 1.379 . S
C2408 N2415 1.356 . S
C2409 C2408 1.363 . S
C2409 C2412 1.363 . S
N2410 C2412 1.356 . S
N2410 H2422 0.984 . S
N2410 H2423 0.985 . S
N2411 C2413 1.356 . S
N2411 H2416 0.984 . S
N2411 H2417 0.985 . S
C2412 C2406 1.379 . S
C2412 C2409 1.363 . S
C2412 N2410 1.356 . S
C2413 C2407 1.363 . S
C2413 C2408 1.379 . S
C2413 N2411 1.356 . S
N2414 C2406 1.356 . S
N2414 H2420 0.984 . S
N2414 H2421 0.984 . S
N2415 C2408 1.356 . S
N2415 H2418 0.984 . S
N2415 H2419 0.985 . S
H2416 N2411 0.984 . S
H2417 N2411 0.985 . S
H2418 N2415 0.984 . S
H2419 N2415 0.985 . S
H2420 N2414 0.984 . S
H2421 N2414 0.984 . S
H2422 N2410 0.984 . S
H2423 N2410 0.985 . S
C2424 C2425 1.363 . S
C2424 C2430 1.379 . S
C2424 N2432 1.356 . S
C2425 C2424 1.363 . S
C2425 C2431 1.363 . S
C2426 C2427 1.363 . S
C2426 C2431 1.379 . S
C2426 N2433 1.356 . S
C2427 C2426 1.363 . S
C2427 C2430 1.363 . S
N2428 C2430 1.356 . S
N2428 H2440 0.984 . S
N2428 H2441 0.985 . S
N2429 C2431 1.356 . S
N2429 H2434 0.984 . S
N2429 H2435 0.985 . S
C2430 C2424 1.379 . S
C2430 C2427 1.363 . S
C2430 N2428 1.356 . S
C2431 C2425 1.363 . S
C2431 C2426 1.379 . S
C2431 N2429 1.356 . S
N2432 C2424 1.356 . S
N2432 H2438 0.984 . S
N2432 H2439 0.984 . S
N2433 C2426 1.356 . S
N2433 H2436 0.984 . S
N2433 H2437 0.985 . S
H2434 N2429 0.984 . S
H2435 N2429 0.985 . S
H2436 N2433 0.984 . S
H2437 N2433 0.985 . S
H2438 N2432 0.984 . S
H2439 N2432 0.984 . S
H2440 N2428 0.984 . S
H2441 N2428 0.985 . S
C2442 C2443 1.363 . S
C2442 C2448 1.379 . S
C2442 N2450 1.356 . S
C2443 C2442 1.363 . S
C2443 C2449 1.363 . S
C2444 C2445 1.363 . S
C2444 C2449 1.379 . S
C2444 N2451 1.356 . S
C2445 C2444 1.363 . S
C2445 C2448 1.363 . S
N2446 C2448 1.356 . S
N2446 H2458 0.984 . S
N2446 H2459 0.985 . S
N2447 C2449 1.356 . S
N2447 H2452 0.984 . S
N2447 H2453 0.985 . S
C2448 C2442 1.379 . S
C2448 C2445 1.363 . S
C2448 N2446 1.356 . S
C2449 C2443 1.363 . S
C2449 C2444 1.379 . S
C2449 N2447 1.356 . S
N2450 C2442 1.356 . S
N2450 H2456 0.984 . S
N2450 H2457 0.984 . S
N2451 C2444 1.356 . S
N2451 H2454 0.984 . S
N2451 H2455 0.985 . S
H2452 N2447 0.984 . S
H2453 N2447 0.985 . S
H2454 N2451 0.984 . S
H2455 N2451 0.985 . S
H2456 N2450 0.984 . S
H2457 N2450 0.984 . S
H2458 N2446 0.984 . S
H2459 N2446 0.985 . S
C2460 C2461 1.363 . S
C2460 C2466 1.379 . S
C2460 N2468 1.356 . S
C2461 C2460 1.363 . S
C2461 C2467 1.363 . S
C2462 C2463 1.363 . S
C2462 C2467 1.379 . S
C2462 N2469 1.356 . S
C2463 C2462 1.363 . S
C2463 C2466 1.363 . S
N2464 C2466 1.356 . S
N2464 H2476 0.984 . S
N2464 H2477 0.985 . S
N2465 C2467 1.356 . S
N2465 H2470 0.984 . S
N2465 H2471 0.985 . S
C2466 C2460 1.379 . S
C2466 C2463 1.363 . S
C2466 N2464 1.356 . S
C2467 C2461 1.363 . S
C2467 C2462 1.379 . S
C2467 N2465 1.356 . S
N2468 C2460 1.356 . S
N2468 H2474 0.984 . S
N2468 H2475 0.984 . S
N2469 C2462 1.356 . S
N2469 H2472 0.984 . S
N2469 H2473 0.985 . S
H2470 N2465 0.984 . S
H2471 N2465 0.985 . S
H2472 N2469 0.984 . S
H2473 N2469 0.985 . S
H2474 N2468 0.984 . S
H2475 N2468 0.984 . S
H2476 N2464 0.984 . S
H2477 N2464 0.985 . S
C2478 C2479 1.363 . S
C2478 C2484 1.379 . S
C2478 N2486 1.356 . S
C2479 C2478 1.363 . S
C2479 C2485 1.363 . S
C2480 C2481 1.363 . S
C2480 C2485 1.379 . S
C2480 N2487 1.356 . S
C2481 C2480 1.363 . S
C2481 C2484 1.363 . S
N2482 C2484 1.356 . S
N2482 H2494 0.984 . S
N2482 H2495 0.985 . S
N2483 C2485 1.356 . S
N2483 H2488 0.984 . S
N2483 H2489 0.985 . S
C2484 C2478 1.379 . S
C2484 C2481 1.363 . S
C2484 N2482 1.356 . S
C2485 C2479 1.363 . S
C2485 C2480 1.379 . S
C2485 N2483 1.356 . S
N2486 C2478 1.356 . S
N2486 H2492 0.984 . S
N2486 H2493 0.984 . S
N2487 C2480 1.356 . S
N2487 H2490 0.984 . S
N2487 H2491 0.985 . S
H2488 N2483 0.984 . S
H2489 N2483 0.985 . S
H2490 N2487 0.984 . S
H2491 N2487 0.985 . S
H2492 N2486 0.984 . S
H2493 N2486 0.984 . S
H2494 N2482 0.984 . S
H2495 N2482 0.985 . S
C2496 C2497 1.363 . S
C2496 C2502 1.379 . S
C2496 N2504 1.356 . S
C2497 C2496 1.363 . S
C2497 C2503 1.363 . S
C2498 C2499 1.363 . S
C2498 C2503 1.379 . S
C2498 N2505 1.356 . S
C2499 C2498 1.363 . S
C2499 C2502 1.363 . S
N2500 C2502 1.356 . S
N2500 H2512 0.984 . S
N2500 H2513 0.985 . S
N2501 C2503 1.356 . S
N2501 H2506 0.984 . S
N2501 H2507 0.985 . S
C2502 C2496 1.379 . S
C2502 C2499 1.363 . S
C2502 N2500 1.356 . S
C2503 C2497 1.363 . S
C2503 C2498 1.379 . S
C2503 N2501 1.356 . S
N2504 C2496 1.356 . S
N2504 H2510 0.984 . S
N2504 H2511 0.984 . S
N2505 C2498 1.356 . S
N2505 H2508 0.984 . S
N2505 H2509 0.985 . S
H2506 N2501 0.984 . S
H2507 N2501 0.985 . S
H2508 N2505 0.984 . S
H2509 N2505 0.985 . S
H2510 N2504 0.984 . S
H2511 N2504 0.984 . S
H2512 N2500 0.984 . S
H2513 N2500 0.985 . S
C2514 C2515 1.363 . S
C2514 C2520 1.379 . S
C2514 N2522 1.356 . S
C2515 C2514 1.363 . S
C2515 C2521 1.363 . S
C2516 C2517 1.363 . S
C2516 C2521 1.379 . S
C2516 N2523 1.356 . S
C2517 C2516 1.363 . S
C2517 C2520 1.363 . S
N2518 C2520 1.356 . S
N2518 H2530 0.984 . S
N2518 H2531 0.985 . S
N2519 C2521 1.356 . S
N2519 H2524 0.984 . S
N2519 H2525 0.985 . S
C2520 C2514 1.379 . S
C2520 C2517 1.363 . S
C2520 N2518 1.356 . S
C2521 C2515 1.363 . S
C2521 C2516 1.379 . S
C2521 N2519 1.356 . S
N2522 C2514 1.356 . S
N2522 H2528 0.984 . S
N2522 H2529 0.984 . S
N2523 C2516 1.356 . S
N2523 H2526 0.984 . S
N2523 H2527 0.985 . S
H2524 N2519 0.984 . S
H2525 N2519 0.985 . S
H2526 N2523 0.984 . S
H2527 N2523 0.985 . S
H2528 N2522 0.984 . S
H2529 N2522 0.984 . S
H2530 N2518 0.984 . S
H2531 N2518 0.985 . S
C2532 C2533 1.363 . S
C2532 C2538 1.379 . S
C2532 N2540 1.356 . S
C2533 C2532 1.363 . S
C2533 C2539 1.363 . S
C2534 C2535 1.363 . S
C2534 C2539 1.379 . S
C2534 N2541 1.356 . S
C2535 C2534 1.363 . S
C2535 C2538 1.363 . S
N2536 C2538 1.356 . S
N2536 H2548 0.984 . S
N2536 H2549 0.985 . S
N2537 C2539 1.356 . S
N2537 H2542 0.984 . S
N2537 H2543 0.985 . S
C2538 C2532 1.379 . S
C2538 C2535 1.363 . S
C2538 N2536 1.356 . S
C2539 C2533 1.363 . S
C2539 C2534 1.379 . S
C2539 N2537 1.356 . S
N2540 C2532 1.356 . S
N2540 H2546 0.984 . S
N2540 H2547 0.984 . S
N2541 C2534 1.356 . S
N2541 H2544 0.984 . S
N2541 H2545 0.985 . S
H2542 N2537 0.984 . S
H2543 N2537 0.985 . S
H2544 N2541 0.984 . S
H2545 N2541 0.985 . S
H2546 N2540 0.984 . S
H2547 N2540 0.984 . S
H2548 N2536 0.984 . S
H2549 N2536 0.985 . S
C2550 C2551 1.363 . S
C2550 C2556 1.379 . S
C2550 N2558 1.356 . S
C2551 C2550 1.363 . S
C2551 C2557 1.363 . S
C2552 C2553 1.363 . S
C2552 C2557 1.379 . S
C2552 N2559 1.356 . S
C2553 C2552 1.363 . S
C2553 C2556 1.363 . S
N2554 C2556 1.356 . S
N2554 H2566 0.984 . S
N2554 H2567 0.985 . S
N2555 C2557 1.356 . S
N2555 H2560 0.984 . S
N2555 H2561 0.985 . S
C2556 C2550 1.379 . S
C2556 C2553 1.363 . S
C2556 N2554 1.356 . S
C2557 C2551 1.363 . S
C2557 C2552 1.379 . S
C2557 N2555 1.356 . S
N2558 C2550 1.356 . S
N2558 H2564 0.984 . S
N2558 H2565 0.984 . S
N2559 C2552 1.356 . S
N2559 H2562 0.984 . S
N2559 H2563 0.985 . S
H2560 N2555 0.984 . S
H2561 N2555 0.985 . S
H2562 N2559 0.984 . S
H2563 N2559 0.985 . S
H2564 N2558 0.984 . S
H2565 N2558 0.984 . S
H2566 N2554 0.984 . S
H2567 N2554 0.985 . S
C2568 C2569 1.363 . S
C2568 C2574 1.379 . S
C2568 N2576 1.356 . S
C2569 C2568 1.363 . S
C2569 C2575 1.363 . S
C2570 C2571 1.363 . S
C2570 C2575 1.379 . S
C2570 N2577 1.356 . S
C2571 C2570 1.363 . S
C2571 C2574 1.363 . S
N2572 C2574 1.356 . S
N2572 H2584 0.984 . S
N2572 H2585 0.985 . S
N2573 C2575 1.356 . S
N2573 H2578 0.984 . S
N2573 H2579 0.985 . S
C2574 C2568 1.379 . S
C2574 C2571 1.363 . S
C2574 N2572 1.356 . S
C2575 C2569 1.363 . S
C2575 C2570 1.379 . S
C2575 N2573 1.356 . S
N2576 C2568 1.356 . S
N2576 H2582 0.984 . S
N2576 H2583 0.984 . S
N2577 C2570 1.356 . S
N2577 H2580 0.984 . S
N2577 H2581 0.985 . S
H2578 N2573 0.984 . S
H2579 N2573 0.985 . S
H2580 N2577 0.984 . S
H2581 N2577 0.985 . S
H2582 N2576 0.984 . S
H2583 N2576 0.984 . S
H2584 N2572 0.984 . S
H2585 N2572 0.985 . S
C2586 C2587 1.363 . S
C2586 C2592 1.379 . S
C2586 N2594 1.356 . S
C2587 C2586 1.363 . S
C2587 C2593 1.363 . S
C2588 C2589 1.363 . S
C2588 C2593 1.379 . S
C2588 N2595 1.356 . S
C2589 C2588 1.363 . S
C2589 C2592 1.363 . S
N2590 C2592 1.356 . S
N2590 H2602 0.984 . S
N2590 H2603 0.985 . S
N2591 C2593 1.356 . S
N2591 H2596 0.984 . S
N2591 H2597 0.985 . S
C2592 C2586 1.379 . S
C2592 C2589 1.363 . S
C2592 N2590 1.356 . S
C2593 C2587 1.363 . S
C2593 C2588 1.379 . S
C2593 N2591 1.356 . S
N2594 C2586 1.356 . S
N2594 H2600 0.984 . S
N2594 H2601 0.984 . S
N2595 C2588 1.356 . S
N2595 H2598 0.984 . S
N2595 H2599 0.985 . S
H2596 N2591 0.984 . S
H2597 N2591 0.985 . S
H2598 N2595 0.984 . S
H2599 N2595 0.985 . S
H2600 N2594 0.984 . S
H2601 N2594 0.984 . S
H2602 N2590 0.984 . S
H2603 N2590 0.985 . S
C2604 C2605 1.363 . S
C2604 C2610 1.379 . S
C2604 N2612 1.356 . S
C2605 C2604 1.363 . S
C2605 C2611 1.363 . S
C2606 C2607 1.363 . S
C2606 C2611 1.379 . S
C2606 N2613 1.356 . S
C2607 C2606 1.363 . S
C2607 C2610 1.363 . S
N2608 C2610 1.356 . S
N2608 H2620 0.984 . S
N2608 H2621 0.985 . S
N2609 C2611 1.356 . S
N2609 H2614 0.984 . S
N2609 H2615 0.985 . S
C2610 C2604 1.379 . S
C2610 C2607 1.363 . S
C2610 N2608 1.356 . S
C2611 C2605 1.363 . S
C2611 C2606 1.379 . S
C2611 N2609 1.356 . S
N2612 C2604 1.356 . S
N2612 H2618 0.984 . S
N2612 H2619 0.984 . S
N2613 C2606 1.356 . S
N2613 H2616 0.984 . S
N2613 H2617 0.985 . S
H2614 N2609 0.984 . S
H2615 N2609 0.985 . S
H2616 N2613 0.984 . S
H2617 N2613 0.985 . S
H2618 N2612 0.984 . S
H2619 N2612 0.984 . S
H2620 N2608 0.984 . S
H2621 N2608 0.985 . S
C2622 C2623 1.363 . S
C2622 C2628 1.379 . S
C2622 N2630 1.356 . S
C2623 C2622 1.363 . S
C2623 C2629 1.363 . S
C2624 C2625 1.363 . S
C2624 C2629 1.379 . S
C2624 N2631 1.356 . S
C2625 C2624 1.363 . S
C2625 C2628 1.363 . S
N2626 C2628 1.356 . S
N2626 H2638 0.984 . S
N2626 H2639 0.985 . S
N2627 C2629 1.356 . S
N2627 H2632 0.984 . S
N2627 H2633 0.985 . S
C2628 C2622 1.379 . S
C2628 C2625 1.363 . S
C2628 N2626 1.356 . S
C2629 C2623 1.363 . S
C2629 C2624 1.379 . S
C2629 N2627 1.356 . S
N2630 C2622 1.356 . S
N2630 H2636 0.984 . S
N2630 H2637 0.984 . S
N2631 C2624 1.356 . S
N2631 H2634 0.984 . S
N2631 H2635 0.985 . S
H2632 N2627 0.984 . S
H2633 N2627 0.985 . S
H2634 N2631 0.984 . S
H2635 N2631 0.985 . S
H2636 N2630 0.984 . S
H2637 N2630 0.984 . S
H2638 N2626 0.984 . S
H2639 N2626 0.985 . S
C2640 C2641 1.363 . S
C2640 C2646 1.379 . S
C2640 N2648 1.356 . S
C2641 C2640 1.363 . S
C2641 C2647 1.363 . S
C2642 C2643 1.363 . S
C2642 C2647 1.379 . S
C2642 N2649 1.356 . S
C2643 C2642 1.363 . S
C2643 C2646 1.363 . S
N2644 C2646 1.356 . S
N2644 H2656 0.984 . S
N2644 H2657 0.985 . S
N2645 C2647 1.356 . S
N2645 H2650 0.984 . S
N2645 H2651 0.985 . S
C2646 C2640 1.379 . S
C2646 C2643 1.363 . S
C2646 N2644 1.356 . S
C2647 C2641 1.363 . S
C2647 C2642 1.379 . S
C2647 N2645 1.356 . S
N2648 C2640 1.356 . S
N2648 H2654 0.984 . S
N2648 H2655 0.984 . S
N2649 C2642 1.356 . S
N2649 H2652 0.984 . S
N2649 H2653 0.985 . S
H2650 N2645 0.984 . S
H2651 N2645 0.985 . S
H2652 N2649 0.984 . S
H2653 N2649 0.985 . S
H2654 N2648 0.984 . S
H2655 N2648 0.984 . S
H2656 N2644 0.984 . S
H2657 N2644 0.985 . S
C2658 C2659 1.363 . S
C2658 C2664 1.379 . S
C2658 N2666 1.356 . S
C2659 C2658 1.363 . S
C2659 C2665 1.363 . S
C2660 C2661 1.363 . S
C2660 C2665 1.379 . S
C2660 N2667 1.356 . S
C2661 C2660 1.363 . S
C2661 C2664 1.363 . S
N2662 C2664 1.356 . S
N2662 H2674 0.984 . S
N2662 H2675 0.985 . S
N2663 C2665 1.356 . S
N2663 H2668 0.984 . S
N2663 H2669 0.985 . S
C2664 C2658 1.379 . S
C2664 C2661 1.363 . S
C2664 N2662 1.356 . S
C2665 C2659 1.363 . S
C2665 C2660 1.379 . S
C2665 N2663 1.356 . S
N2666 C2658 1.356 . S
N2666 H2672 0.984 . S
N2666 H2673 0.984 . S
N2667 C2660 1.356 . S
N2667 H2670 0.984 . S
N2667 H2671 0.985 . S
H2668 N2663 0.984 . S
H2669 N2663 0.985 . S
H2670 N2667 0.984 . S
H2671 N2667 0.985 . S
H2672 N2666 0.984 . S
H2673 N2666 0.984 . S
H2674 N2662 0.984 . S
H2675 N2662 0.985 . S
C2676 C2677 1.363 . S
C2676 C2682 1.379 . S
C2676 N2684 1.356 . S
C2677 C2676 1.363 . S
C2677 C2683 1.363 . S
C2678 C2679 1.363 . S
C2678 C2683 1.379 . S
C2678 N2685 1.356 . S
C2679 C2678 1.363 . S
C2679 C2682 1.363 . S
N2680 C2682 1.356 . S
N2680 H2692 0.984 . S
N2680 H2693 0.985 . S
N2681 C2683 1.356 . S
N2681 H2686 0.984 . S
N2681 H2687 0.985 . S
C2682 C2676 1.379 . S
C2682 C2679 1.363 . S
C2682 N2680 1.356 . S
C2683 C2677 1.363 . S
C2683 C2678 1.379 . S
C2683 N2681 1.356 . S
N2684 C2676 1.356 . S
N2684 H2690 0.984 . S
N2684 H2691 0.984 . S
N2685 C2678 1.356 . S
N2685 H2688 0.984 . S
N2685 H2689 0.985 . S
H2686 N2681 0.984 . S
H2687 N2681 0.985 . S
H2688 N2685 0.984 . S
H2689 N2685 0.985 . S
H2690 N2684 0.984 . S
H2691 N2684 0.984 . S
H2692 N2680 0.984 . S
H2693 N2680 0.985 . S
C2694 C2695 1.363 . S
C2694 C2700 1.379 . S
C2694 N2702 1.356 . S
C2695 C2694 1.363 . S
C2695 C2701 1.363 . S
C2696 C2697 1.363 . S
C2696 C2701 1.379 . S
C2696 N2703 1.356 . S
C2697 C2696 1.363 . S
C2697 C2700 1.363 . S
N2698 C2700 1.356 . S
N2698 H2710 0.984 . S
N2698 H2711 0.985 . S
N2699 C2701 1.356 . S
N2699 H2704 0.984 . S
N2699 H2705 0.985 . S
C2700 C2694 1.379 . S
C2700 C2697 1.363 . S
C2700 N2698 1.356 . S
C2701 C2695 1.363 . S
C2701 C2696 1.379 . S
C2701 N2699 1.356 . S
N2702 C2694 1.356 . S
N2702 H2708 0.984 . S
N2702 H2709 0.984 . S
N2703 C2696 1.356 . S
N2703 H2706 0.984 . S
N2703 H2707 0.985 . S
H2704 N2699 0.984 . S
H2705 N2699 0.985 . S
H2706 N2703 0.984 . S
H2707 N2703 0.985 . S
H2708 N2702 0.984 . S
H2709 N2702 0.984 . S
H2710 N2698 0.984 . S
H2711 N2698 0.985 . S
C2712 C2713 1.363 . S
C2712 C2718 1.379 . S
C2712 N2720 1.356 . S
C2713 C2712 1.363 . S
C2713 C2719 1.363 . S
C2714 C2715 1.363 . S
C2714 C2719 1.379 . S
C2714 N2721 1.356 . S
C2715 C2714 1.363 . S
C2715 C2718 1.363 . S
N2716 C2718 1.356 . S
N2716 H2728 0.984 . S
N2716 H2729 0.985 . S
N2717 C2719 1.356 . S
N2717 H2722 0.984 . S
N2717 H2723 0.985 . S
C2718 C2712 1.379 . S
C2718 C2715 1.363 . S
C2718 N2716 1.356 . S
C2719 C2713 1.363 . S
C2719 C2714 1.379 . S
C2719 N2717 1.356 . S
N2720 C2712 1.356 . S
N2720 H2726 0.984 . S
N2720 H2727 0.984 . S
N2721 C2714 1.356 . S
N2721 H2724 0.984 . S
N2721 H2725 0.985 . S
H2722 N2717 0.984 . S
H2723 N2717 0.985 . S
H2724 N2721 0.984 . S
H2725 N2721 0.985 . S
H2726 N2720 0.984 . S
H2727 N2720 0.984 . S
H2728 N2716 0.984 . S
H2729 N2716 0.985 . S
C2730 C2731 1.363 . S
C2730 C2736 1.379 . S
C2730 N2738 1.356 . S
C2731 C2730 1.363 . S
C2731 C2737 1.363 . S
C2732 C2733 1.363 . S
C2732 C2737 1.379 . S
C2732 N2739 1.356 . S
C2733 C2732 1.363 . S
C2733 C2736 1.363 . S
N2734 C2736 1.356 . S
N2734 H2746 0.984 . S
N2734 H2747 0.985 . S
N2735 C2737 1.356 . S
N2735 H2740 0.984 . S
N2735 H2741 0.985 . S
C2736 C2730 1.379 . S
C2736 C2733 1.363 . S
C2736 N2734 1.356 . S
C2737 C2731 1.363 . S
C2737 C2732 1.379 . S
C2737 N2735 1.356 . S
N2738 C2730 1.356 . S
N2738 H2744 0.984 . S
N2738 H2745 0.984 . S
N2739 C2732 1.356 . S
N2739 H2742 0.984 . S
N2739 H2743 0.985 . S
H2740 N2735 0.984 . S
H2741 N2735 0.985 . S
H2742 N2739 0.984 . S
H2743 N2739 0.985 . S
H2744 N2738 0.984 . S
H2745 N2738 0.984 . S
H2746 N2734 0.984 . S
H2747 N2734 0.985 . S
C2748 C2749 1.363 . S
C2748 C2754 1.379 . S
C2748 N2756 1.356 . S
C2749 C2748 1.363 . S
C2749 C2755 1.363 . S
C2750 C2751 1.363 . S
C2750 C2755 1.379 . S
C2750 N2757 1.356 . S
C2751 C2750 1.363 . S
C2751 C2754 1.363 . S
N2752 C2754 1.356 . S
N2752 H2764 0.984 . S
N2752 H2765 0.985 . S
N2753 C2755 1.356 . S
N2753 H2758 0.984 . S
N2753 H2759 0.985 . S
C2754 C2748 1.379 . S
C2754 C2751 1.363 . S
C2754 N2752 1.356 . S
C2755 C2749 1.363 . S
C2755 C2750 1.379 . S
C2755 N2753 1.356 . S
N2756 C2748 1.356 . S
N2756 H2762 0.984 . S
N2756 H2763 0.984 . S
N2757 C2750 1.356 . S
N2757 H2760 0.984 . S
N2757 H2761 0.985 . S
H2758 N2753 0.984 . S
H2759 N2753 0.985 . S
H2760 N2757 0.984 . S
H2761 N2757 0.985 . S
H2762 N2756 0.984 . S
H2763 N2756 0.984 . S
H2764 N2752 0.984 . S
H2765 N2752 0.985 . S
C2766 C2767 1.363 . S
C2766 C2772 1.379 . S
C2766 N2774 1.356 . S
C2767 C2766 1.363 . S
C2767 C2773 1.363 . S
C2768 C2769 1.363 . S
C2768 C2773 1.379 . S
C2768 N2775 1.356 . S
C2769 C2768 1.363 . S
C2769 C2772 1.363 . S
N2770 C2772 1.356 . S
N2770 H2782 0.984 . S
N2770 H2783 0.985 . S
N2771 C2773 1.356 . S
N2771 H2776 0.984 . S
N2771 H2777 0.985 . S
C2772 C2766 1.379 . S
C2772 C2769 1.363 . S
C2772 N2770 1.356 . S
C2773 C2767 1.363 . S
C2773 C2768 1.379 . S
C2773 N2771 1.356 . S
N2774 C2766 1.356 . S
N2774 H2780 0.984 . S
N2774 H2781 0.984 . S
N2775 C2768 1.356 . S
N2775 H2778 0.984 . S
N2775 H2779 0.985 . S
H2776 N2771 0.984 . S
H2777 N2771 0.985 . S
H2778 N2775 0.984 . S
H2779 N2775 0.985 . S
H2780 N2774 0.984 . S
H2781 N2774 0.984 . S
H2782 N2770 0.984 . S
H2783 N2770 0.985 . S
C2784 C2785 1.363 . S
C2784 C2790 1.379 . S
C2784 N2792 1.356 . S
C2785 C2784 1.363 . S
C2785 C2791 1.363 . S
C2786 C2787 1.363 . S
C2786 C2791 1.379 . S
C2786 N2793 1.356 . S
C2787 C2786 1.363 . S
C2787 C2790 1.363 . S
N2788 C2790 1.356 . S
N2788 H2800 0.984 . S
N2788 H2801 0.985 . S
N2789 C2791 1.356 . S
N2789 H2794 0.984 . S
N2789 H2795 0.985 . S
C2790 C2784 1.379 . S
C2790 C2787 1.363 . S
C2790 N2788 1.356 . S
C2791 C2785 1.363 . S
C2791 C2786 1.379 . S
C2791 N2789 1.356 . S
N2792 C2784 1.356 . S
N2792 H2798 0.984 . S
N2792 H2799 0.984 . S
N2793 C2786 1.356 . S
N2793 H2796 0.984 . S
N2793 H2797 0.985 . S
H2794 N2789 0.984 . S
H2795 N2789 0.985 . S
H2796 N2793 0.984 . S
H2797 N2793 0.985 . S
H2798 N2792 0.984 . S
H2799 N2792 0.984 . S
H2800 N2788 0.984 . S
H2801 N2788 0.985 . S
C2802 C2803 1.363 . S
C2802 C2808 1.379 . S
C2802 N2810 1.356 . S
C2803 C2802 1.363 . S
C2803 C2809 1.363 . S
C2804 C2805 1.363 . S
C2804 C2809 1.379 . S
C2804 N2811 1.356 . S
C2805 C2804 1.363 . S
C2805 C2808 1.363 . S
N2806 C2808 1.356 . S
N2806 H2818 0.984 . S
N2806 H2819 0.985 . S
N2807 C2809 1.356 . S
N2807 H2812 0.984 . S
N2807 H2813 0.985 . S
C2808 C2802 1.379 . S
C2808 C2805 1.363 . S
C2808 N2806 1.356 . S
C2809 C2803 1.363 . S
C2809 C2804 1.379 . S
C2809 N2807 1.356 . S
N2810 C2802 1.356 . S
N2810 H2816 0.984 . S
N2810 H2817 0.984 . S
N2811 C2804 1.356 . S
N2811 H2814 0.984 . S
N2811 H2815 0.985 . S
H2812 N2807 0.984 . S
H2813 N2807 0.985 . S
H2814 N2811 0.984 . S
H2815 N2811 0.985 . S
H2816 N2810 0.984 . S
H2817 N2810 0.984 . S
H2818 N2806 0.984 . S
H2819 N2806 0.985 . S
C2820 C2821 1.363 . S
C2820 C2826 1.379 . S
C2820 N2828 1.356 . S
C2821 C2820 1.363 . S
C2821 C2827 1.363 . S
C2822 C2823 1.363 . S
C2822 C2827 1.379 . S
C2822 N2829 1.356 . S
C2823 C2822 1.363 . S
C2823 C2826 1.363 . S
N2824 C2826 1.356 . S
N2824 H2836 0.984 . S
N2824 H2837 0.985 . S
N2825 C2827 1.356 . S
N2825 H2830 0.984 . S
N2825 H2831 0.985 . S
C2826 C2820 1.379 . S
C2826 C2823 1.363 . S
C2826 N2824 1.356 . S
C2827 C2821 1.363 . S
C2827 C2822 1.379 . S
C2827 N2825 1.356 . S
N2828 C2820 1.356 . S
N2828 H2834 0.984 . S
N2828 H2835 0.984 . S
N2829 C2822 1.356 . S
N2829 H2832 0.984 . S
N2829 H2833 0.985 . S
H2830 N2825 0.984 . S
H2831 N2825 0.985 . S
H2832 N2829 0.984 . S
H2833 N2829 0.985 . S
H2834 N2828 0.984 . S
H2835 N2828 0.984 . S
H2836 N2824 0.984 . S
H2837 N2824 0.985 . S
C2838 C2839 1.363 . S
C2838 C2844 1.379 . S
C2838 N2846 1.356 . S
C2839 C2838 1.363 . S
C2839 C2845 1.363 . S
C2840 C2841 1.363 . S
C2840 C2845 1.379 . S
C2840 N2847 1.356 . S
C2841 C2840 1.363 . S
C2841 C2844 1.363 . S
N2842 C2844 1.356 . S
N2842 H2854 0.984 . S
N2842 H2855 0.985 . S
N2843 C2845 1.356 . S
N2843 H2848 0.984 . S
N2843 H2849 0.985 . S
C2844 C2838 1.379 . S
C2844 C2841 1.363 . S
C2844 N2842 1.356 . S
C2845 C2839 1.363 . S
C2845 C2840 1.379 . S
C2845 N2843 1.356 . S
N2846 C2838 1.356 . S
N2846 H2852 0.984 . S
N2846 H2853 0.984 . S
N2847 C2840 1.356 . S
N2847 H2850 0.984 . S
N2847 H2851 0.985 . S
H2848 N2843 0.984 . S
H2849 N2843 0.985 . S
H2850 N2847 0.984 . S
H2851 N2847 0.985 . S
H2852 N2846 0.984 . S
H2853 N2846 0.984 . S
H2854 N2842 0.984 . S
H2855 N2842 0.985 . S
C2856 C2857 1.363 . S
C2856 C2862 1.379 . S
C2856 N2864 1.356 . S
C2857 C2856 1.363 . S
C2857 C2863 1.363 . S
C2858 C2859 1.363 . S
C2858 C2863 1.379 . S
C2858 N2865 1.356 . S
C2859 C2858 1.363 . S
C2859 C2862 1.363 . S
N2860 C2862 1.356 . S
N2860 H2872 0.984 . S
N2860 H2873 0.985 . S
N2861 C2863 1.356 . S
N2861 H2866 0.984 . S
N2861 H2867 0.985 . S
C2862 C2856 1.379 . S
C2862 C2859 1.363 . S
C2862 N2860 1.356 . S
C2863 C2857 1.363 . S
C2863 C2858 1.379 . S
C2863 N2861 1.356 . S
N2864 C2856 1.356 . S
N2864 H2870 0.984 . S
N2864 H2871 0.984 . S
N2865 C2858 1.356 . S
N2865 H2868 0.984 . S
N2865 H2869 0.985 . S
H2866 N2861 0.984 . S
H2867 N2861 0.985 . S
H2868 N2865 0.984 . S
H2869 N2865 0.985 . S
H2870 N2864 0.984 . S
H2871 N2864 0.984 . S
H2872 N2860 0.984 . S
H2873 N2860 0.985 . S
C2874 C2875 1.363 . S
C2874 C2880 1.379 . S
C2874 N2882 1.356 . S
C2875 C2874 1.363 . S
C2875 C2881 1.363 . S
C2876 C2877 1.363 . S
C2876 C2881 1.379 . S
C2876 N2883 1.356 . S
C2877 C2876 1.363 . S
C2877 C2880 1.363 . S
N2878 C2880 1.356 . S
N2878 H2890 0.984 . S
N2878 H2891 0.985 . S
N2879 C2881 1.356 . S
N2879 H2884 0.984 . S
N2879 H2885 0.985 . S
C2880 C2874 1.379 . S
C2880 C2877 1.363 . S
C2880 N2878 1.356 . S
C2881 C2875 1.363 . S
C2881 C2876 1.379 . S
C2881 N2879 1.356 . S
N2882 C2874 1.356 . S
N2882 H2888 0.984 . S
N2882 H2889 0.984 . S
N2883 C2876 1.356 . S
N2883 H2886 0.984 . S
N2883 H2887 0.985 . S
H2884 N2879 0.984 . S
H2885 N2879 0.985 . S
H2886 N2883 0.984 . S
H2887 N2883 0.985 . S
H2888 N2882 0.984 . S
H2889 N2882 0.984 . S
H2890 N2878 0.984 . S
H2891 N2878 0.985 . S
C2892 C2893 1.363 . S
C2892 C2898 1.379 . S
C2892 N2900 1.356 . S
C2893 C2892 1.363 . S
C2893 C2899 1.363 . S
C2894 C2895 1.363 . S
C2894 C2899 1.379 . S
C2894 N2901 1.356 . S
C2895 C2894 1.363 . S
C2895 C2898 1.363 . S
N2896 C2898 1.356 . S
N2896 H2908 0.984 . S
N2896 H2909 0.985 . S
N2897 C2899 1.356 . S
N2897 H2902 0.984 . S
N2897 H2903 0.985 . S
C2898 C2892 1.379 . S
C2898 C2895 1.363 . S
C2898 N2896 1.356 . S
C2899 C2893 1.363 . S
C2899 C2894 1.379 . S
C2899 N2897 1.356 . S
N2900 C2892 1.356 . S
N2900 H2906 0.984 . S
N2900 H2907 0.984 . S
N2901 C2894 1.356 . S
N2901 H2904 0.984 . S
N2901 H2905 0.985 . S
H2902 N2897 0.984 . S
H2903 N2897 0.985 . S
H2904 N2901 0.984 . S
H2905 N2901 0.985 . S
H2906 N2900 0.984 . S
H2907 N2900 0.984 . S
H2908 N2896 0.984 . S
H2909 N2896 0.985 . S
C2910 C2911 1.363 . S
C2910 C2916 1.379 . S
C2910 N2918 1.356 . S
C2911 C2910 1.363 . S
C2911 C2917 1.363 . S
C2912 C2913 1.363 . S
C2912 C2917 1.379 . S
C2912 N2919 1.356 . S
C2913 C2912 1.363 . S
C2913 C2916 1.363 . S
N2914 C2916 1.356 . S
N2914 H2926 0.984 . S
N2914 H2927 0.985 . S
N2915 C2917 1.356 . S
N2915 H2920 0.984 . S
N2915 H2921 0.985 . S
C2916 C2910 1.379 . S
C2916 C2913 1.363 . S
C2916 N2914 1.356 . S
C2917 C2911 1.363 . S
C2917 C2912 1.379 . S
C2917 N2915 1.356 . S
N2918 C2910 1.356 . S
N2918 H2924 0.984 . S
N2918 H2925 0.984 . S
N2919 C2912 1.356 . S
N2919 H2922 0.984 . S
N2919 H2923 0.985 . S
H2920 N2915 0.984 . S
H2921 N2915 0.985 . S
H2922 N2919 0.984 . S
H2923 N2919 0.985 . S
H2924 N2918 0.984 . S
H2925 N2918 0.984 . S
H2926 N2914 0.984 . S
H2927 N2914 0.985 . S
C2928 C2929 1.363 . S
C2928 C2934 1.379 . S
C2928 N2936 1.356 . S
C2929 C2928 1.363 . S
C2929 C2935 1.363 . S
C2930 C2931 1.363 . S
C2930 C2935 1.379 . S
C2930 N2937 1.356 . S
C2931 C2930 1.363 . S
C2931 C2934 1.363 . S
N2932 C2934 1.356 . S
N2932 H2944 0.984 . S
N2932 H2945 0.985 . S
N2933 C2935 1.356 . S
N2933 H2938 0.984 . S
N2933 H2939 0.985 . S
C2934 C2928 1.379 . S
C2934 C2931 1.363 . S
C2934 N2932 1.356 . S
C2935 C2929 1.363 . S
C2935 C2930 1.379 . S
C2935 N2933 1.356 . S
N2936 C2928 1.356 . S
N2936 H2942 0.984 . S
N2936 H2943 0.984 . S
N2937 C2930 1.356 . S
N2937 H2940 0.984 . S
N2937 H2941 0.985 . S
H2938 N2933 0.984 . S
H2939 N2933 0.985 . S
H2940 N2937 0.984 . S
H2941 N2937 0.985 . S
H2942 N2936 0.984 . S
H2943 N2936 0.984 . S
H2944 N2932 0.984 . S
H2945 N2932 0.985 . S
C2946 C2947 1.363 . S
C2946 C2952 1.379 . S
C2946 N2954 1.356 . S
C2947 C2946 1.363 . S
C2947 C2953 1.363 . S
C2948 C2949 1.363 . S
C2948 C2953 1.379 . S
C2948 N2955 1.356 . S
C2949 C2948 1.363 . S
C2949 C2952 1.363 . S
N2950 C2952 1.356 . S
N2950 H2962 0.984 . S
N2950 H2963 0.985 . S
N2951 C2953 1.356 . S
N2951 H2956 0.984 . S
N2951 H2957 0.985 . S
C2952 C2946 1.379 . S
C2952 C2949 1.363 . S
C2952 N2950 1.356 . S
C2953 C2947 1.363 . S
C2953 C2948 1.379 . S
C2953 N2951 1.356 . S
N2954 C2946 1.356 . S
N2954 H2960 0.984 . S
N2954 H2961 0.984 . S
N2955 C2948 1.356 . S
N2955 H2958 0.984 . S
N2955 H2959 0.985 . S
H2956 N2951 0.984 . S
H2957 N2951 0.985 . S
H2958 N2955 0.984 . S
H2959 N2955 0.985 . S
H2960 N2954 0.984 . S
H2961 N2954 0.984 . S
H2962 N2950 0.984 . S
H2963 N2950 0.985 . S
C2964 C2965 1.363 . S
C2964 C2970 1.379 . S
C2964 N2972 1.356 . S
C2965 C2964 1.363 . S
C2965 C2971 1.363 . S
C2966 C2967 1.363 . S
C2966 C2971 1.379 . S
C2966 N2973 1.356 . S
C2967 C2966 1.363 . S
C2967 C2970 1.363 . S
N2968 C2970 1.356 . S
N2968 H2980 0.984 . S
N2968 H2981 0.985 . S
N2969 C2971 1.356 . S
N2969 H2974 0.984 . S
N2969 H2975 0.985 . S
C2970 C2964 1.379 . S
C2970 C2967 1.363 . S
C2970 N2968 1.356 . S
C2971 C2965 1.363 . S
C2971 C2966 1.379 . S
C2971 N2969 1.356 . S
N2972 C2964 1.356 . S
N2972 H2978 0.984 . S
N2972 H2979 0.984 . S
N2973 C2966 1.356 . S
N2973 H2976 0.984 . S
N2973 H2977 0.985 . S
H2974 N2969 0.984 . S
H2975 N2969 0.985 . S
H2976 N2973 0.984 . S
H2977 N2973 0.985 . S
H2978 N2972 0.984 . S
H2979 N2972 0.984 . S
H2980 N2968 0.984 . S
H2981 N2968 0.985 . S
C2982 C2983 1.363 . S
C2982 C2988 1.379 . S
C2982 N2990 1.356 . S
C2983 C2982 1.363 . S
C2983 C2989 1.363 . S
C2984 C2985 1.363 . S
C2984 C2989 1.379 . S
C2984 N2991 1.356 . S
C2985 C2984 1.363 . S
C2985 C2988 1.363 . S
N2986 C2988 1.356 . S
N2986 H2998 0.984 . S
N2986 H2999 0.985 . S
N2987 C2989 1.356 . S
N2987 H2992 0.984 . S
N2987 H2993 0.985 . S
C2988 C2982 1.379 . S
C2988 C2985 1.363 . S
C2988 N2986 1.356 . S
C2989 C2983 1.363 . S
C2989 C2984 1.379 . S
C2989 N2987 1.356 . S
N2990 C2982 1.356 . S
N2990 H2996 0.984 . S
N2990 H2997 0.984 . S
N2991 C2984 1.356 . S
N2991 H2994 0.984 . S
N2991 H2995 0.985 . S
H2992 N2987 0.984 . S
H2993 N2987 0.985 . S
H2994 N2991 0.984 . S
H2995 N2991 0.985 . S
H2996 N2990 0.984 . S
H2997 N2990 0.984 . S
H2998 N2986 0.984 . S
H2999 N2986 0.985 . S
C3000 C3001 1.363 . S
C3000 C3006 1.379 . S
C3000 N3008 1.356 . S
C3001 C3000 1.363 . S
C3001 C3007 1.363 . S
C3002 C3003 1.363 . S
C3002 C3007 1.379 . S
C3002 N3009 1.356 . S
C3003 C3002 1.363 . S
C3003 C3006 1.363 . S
N3004 C3006 1.356 . S
N3004 H3016 0.984 . S
N3004 H3017 0.985 . S
N3005 C3007 1.356 . S
N3005 H3010 0.984 . S
N3005 H3011 0.985 . S
C3006 C3000 1.379 . S
C3006 C3003 1.363 . S
C3006 N3004 1.356 . S
C3007 C3001 1.363 . S
C3007 C3002 1.379 . S
C3007 N3005 1.356 . S
N3008 C3000 1.356 . S
N3008 H3014 0.984 . S
N3008 H3015 0.984 . S
N3009 C3002 1.356 . S
N3009 H3012 0.984 . S
N3009 H3013 0.985 . S
H3010 N3005 0.984 . S
H3011 N3005 0.985 . S
H3012 N3009 0.984 . S
H3013 N3009 0.985 . S
H3014 N3008 0.984 . S
H3015 N3008 0.984 . S
H3016 N3004 0.984 . S
H3017 N3004 0.985 . S
C3018 C3019 1.363 . S
C3018 C3024 1.379 . S
C3018 N3026 1.356 . S
C3019 C3018 1.363 . S
C3019 C3025 1.363 . S
C3020 C3021 1.363 . S
C3020 C3025 1.379 . S
C3020 N3027 1.356 . S
C3021 C3020 1.363 . S
C3021 C3024 1.363 . S
N3022 C3024 1.356 . S
N3022 H3034 0.984 . S
N3022 H3035 0.985 . S
N3023 C3025 1.356 . S
N3023 H3028 0.984 . S
N3023 H3029 0.985 . S
C3024 C3018 1.379 . S
C3024 C3021 1.363 . S
C3024 N3022 1.356 . S
C3025 C3019 1.363 . S
C3025 C3020 1.379 . S
C3025 N3023 1.356 . S
N3026 C3018 1.356 . S
N3026 H3032 0.984 . S
N3026 H3033 0.984 . S
N3027 C3020 1.356 . S
N3027 H3030 0.984 . S
N3027 H3031 0.985 . S
H3028 N3023 0.984 . S
H3029 N3023 0.985 . S
H3030 N3027 0.984 . S
H3031 N3027 0.985 . S
H3032 N3026 0.984 . S
H3033 N3026 0.984 . S
H3034 N3022 0.984 . S
H3035 N3022 0.985 . S
C3036 C3037 1.363 . S
C3036 C3042 1.379 . S
C3036 N3044 1.356 . S
C3037 C3036 1.363 . S
C3037 C3043 1.363 . S
C3038 C3039 1.363 . S
C3038 C3043 1.379 . S
C3038 N3045 1.356 . S
C3039 C3038 1.363 . S
C3039 C3042 1.363 . S
N3040 C3042 1.356 . S
N3040 H3052 0.984 . S
N3040 H3053 0.985 . S
N3041 C3043 1.356 . S
N3041 H3046 0.984 . S
N3041 H3047 0.985 . S
C3042 C3036 1.379 . S
C3042 C3039 1.363 . S
C3042 N3040 1.356 . S
C3043 C3037 1.363 . S
C3043 C3038 1.379 . S
C3043 N3041 1.356 . S
N3044 C3036 1.356 . S
N3044 H3050 0.984 . S
N3044 H3051 0.984 . S
N3045 C3038 1.356 . S
N3045 H3048 0.984 . S
N3045 H3049 0.985 . S
H3046 N3041 0.984 . S
H3047 N3041 0.985 . S
H3048 N3045 0.984 . S
H3049 N3045 0.985 . S
H3050 N3044 0.984 . S
H3051 N3044 0.984 . S
H3052 N3040 0.984 . S
H3053 N3040 0.985 . S
C3054 C3055 1.363 . S
C3054 C3060 1.379 . S
C3054 N3062 1.356 . S
C3055 C3054 1.363 . S
C3055 C3061 1.363 . S
C3056 C3057 1.363 . S
C3056 C3061 1.379 . S
C3056 N3063 1.356 . S
C3057 C3056 1.363 . S
C3057 C3060 1.363 . S
N3058 C3060 1.356 . S
N3058 H3070 0.984 . S
N3058 H3071 0.985 . S
N3059 C3061 1.356 . S
N3059 H3064 0.984 . S
N3059 H3065 0.985 . S
C3060 C3054 1.379 . S
C3060 C3057 1.363 . S
C3060 N3058 1.356 . S
C3061 C3055 1.363 . S
C3061 C3056 1.379 . S
C3061 N3059 1.356 . S
N3062 C3054 1.356 . S
N3062 H3068 0.984 . S
N3062 H3069 0.984 . S
N3063 C3056 1.356 . S
N3063 H3066 0.984 . S
N3063 H3067 0.985 . S
H3064 N3059 0.984 . S
H3065 N3059 0.985 . S
H3066 N3063 0.984 . S
H3067 N3063 0.985 . S
H3068 N3062 0.984 . S
H3069 N3062 0.984 . S
H3070 N3058 0.984 . S
H3071 N3058 0.985 . S
C3072 C3073 1.363 . S
C3072 C3078 1.379 1_455 S
C3072 N3080 1.356 . S
C3073 C3072 1.363 . S
C3073 C3079 1.363 . S
C3074 C3075 1.363 . S
C3074 C3079 1.379 1_655 S
C3074 N3081 1.356 . S
C3075 C3074 1.363 . S
C3075 C3078 1.363 . S
N3076 C3078 1.356 . S
N3076 H3088 0.984 . S
N3076 H3089 0.985 . S
N3077 C3079 1.356 . S
N3077 H3082 0.984 . S
N3077 H3083 0.985 . S
C3078 C3072 1.379 1_655 S
C3078 C3075 1.363 . S
C3078 N3076 1.356 . S
C3079 C3073 1.363 . S
C3079 C3074 1.379 1_455 S
C3079 N3077 1.356 . S
N3080 C3072 1.356 . S
N3080 H3086 0.984 . S
N3080 H3087 0.984 . S
N3081 C3074 1.356 . S
N3081 H3084 0.984 . S
N3081 H3085 0.985 . S
H3082 N3077 0.984 . S
H3083 N3077 0.985 . S
H3084 N3081 0.984 . S
H3085 N3081 0.985 . S
H3086 N3080 0.984 . S
H3087 N3080 0.984 . S
H3088 N3076 0.984 . S
H3089 N3076 0.985 . S
C3090 C3091 1.363 . S
C3090 C3096 1.379 1_565 S
C3090 N3098 1.356 . S
C3091 C3090 1.363 . S
C3091 C3097 1.363 . S
C3092 C3093 1.363 . S
C3092 C3097 1.379 1_545 S
C3092 N3099 1.356 . S
C3093 C3092 1.363 . S
C3093 C3096 1.363 . S
N3094 C3096 1.356 . S
N3094 H3106 0.984 . S
N3094 H3107 0.985 . S
N3095 C3097 1.356 . S
N3095 H3100 0.984 . S
N3095 H3101 0.985 . S
C3096 C3090 1.379 1_545 S
C3096 C3093 1.363 . S
C3096 N3094 1.356 . S
C3097 C3091 1.363 . S
C3097 C3092 1.379 1_565 S
C3097 N3095 1.356 . S
N3098 C3090 1.356 . S
N3098 H3104 0.984 . S
N3098 H3105 0.984 . S
N3099 C3092 1.356 . S
N3099 H3102 0.984 . S
N3099 H3103 0.985 . S
H3100 N3095 0.984 . S
H3101 N3095 0.985 . S
H3102 N3099 0.984 . S
H3103 N3099 0.985 . S
H3104 N3098 0.984 . S
H3105 N3098 0.984 . S
H3106 N3094 0.984 . S
H3107 N3094 0.985 . S
C3108 C3109 1.363 . S
C3108 C3114 1.379 1_655 S
C3108 N3116 1.356 . S
C3109 C3108 1.363 . S
C3109 C3115 1.363 . S
C3110 C3111 1.363 . S
C3110 C3115 1.379 1_455 S
C3110 N3117 1.356 . S
C3111 C3110 1.363 . S
C3111 C3114 1.363 . S
N3112 C3114 1.356 . S
N3112 H3124 0.984 . S
N3112 H3125 0.985 . S
N3113 C3115 1.356 . S
N3113 H3118 0.984 . S
N3113 H3119 0.985 . S
C3114 C3108 1.379 1_455 S
C3114 C3111 1.363 . S
C3114 N3112 1.356 . S
C3115 C3109 1.363 . S
C3115 C3110 1.379 1_655 S
C3115 N3113 1.356 . S
N3116 C3108 1.356 . S
N3116 H3122 0.984 . S
N3116 H3123 0.984 . S
N3117 C3110 1.356 . S
N3117 H3120 0.984 . S
N3117 H3121 0.985 . S
H3118 N3113 0.984 . S
H3119 N3113 0.985 . S
H3120 N3117 0.984 . S
H3121 N3117 0.985 . S
H3122 N3116 0.984 . S
H3123 N3116 0.984 . S
H3124 N3112 0.984 . S
H3125 N3112 0.985 . S
C3126 C3127 1.363 . S
C3126 C3132 1.379 1_545 S
C3126 N3134 1.356 . S
C3127 C3126 1.363 . S
C3127 C3133 1.363 . S
C3128 C3129 1.363 . S
C3128 C3133 1.379 1_565 S
C3128 N3135 1.356 . S
C3129 C3128 1.363 . S
C3129 C3132 1.363 . S
N3130 C3132 1.356 . S
N3130 H3142 0.984 . S
N3130 H3143 0.985 . S
N3131 C3133 1.356 . S
N3131 H3136 0.984 . S
N3131 H3137 0.985 . S
C3132 C3126 1.379 1_565 S
C3132 C3129 1.363 . S
C3132 N3130 1.356 . S
C3133 C3127 1.363 . S
C3133 C3128 1.379 1_545 S
C3133 N3131 1.356 . S
N3134 C3126 1.356 . S
N3134 H3140 0.984 . S
N3134 H3141 0.984 . S
N3135 C3128 1.356 . S
N3135 H3138 0.984 . S
N3135 H3139 0.985 . S
H3136 N3131 0.984 . S
H3137 N3131 0.985 . S
H3138 N3135 0.984 . S
H3139 N3135 0.985 . S
H3140 N3134 0.984 . S
H3141 N3134 0.984 . S
H3142 N3130 0.984 . S
H3143 N3130 0.985 . S
C3144 C3145 1.363 . S
C3144 C3150 1.379 1_455 S
C3144 N3152 1.356 . S
C3145 C3144 1.363 . S
C3145 C3151 1.363 . S
C3146 C3147 1.363 . S
C3146 C3151 1.379 1_655 S
C3146 N3153 1.356 . S
C3147 C3146 1.363 . S
C3147 C3150 1.363 . S
N3148 C3150 1.356 . S
N3148 H3160 0.984 . S
N3148 H3161 0.985 . S
N3149 C3151 1.356 . S
N3149 H3154 0.984 . S
N3149 H3155 0.985 . S
C3150 C3144 1.379 1_655 S
C3150 C3147 1.363 . S
C3150 N3148 1.356 . S
C3151 C3145 1.363 . S
C3151 C3146 1.379 1_455 S
C3151 N3149 1.356 . S
N3152 C3144 1.356 . S
N3152 H3158 0.984 . S
N3152 H3159 0.984 . S
N3153 C3146 1.356 . S
N3153 H3156 0.984 . S
N3153 H3157 0.985 . S
H3154 N3149 0.984 . S
H3155 N3149 0.985 . S
H3156 N3153 0.984 . S
H3157 N3153 0.985 . S
H3158 N3152 0.984 . S
H3159 N3152 0.984 . S
H3160 N3148 0.984 . S
H3161 N3148 0.985 . S
C3162 C3163 1.363 . S
C3162 C3168 1.379 1_545 S
C3162 N3170 1.356 . S
C3163 C3162 1.363 . S
C3163 C3169 1.363 . S
C3164 C3165 1.363 . S
C3164 C3169 1.379 1_565 S
C3164 N3171 1.356 . S
C3165 C3164 1.363 . S
C3165 C3168 1.363 . S
N3166 C3168 1.356 . S
N3166 H3178 0.984 . S
N3166 H3179 0.985 . S
N3167 C3169 1.356 . S
N3167 H3172 0.984 . S
N3167 H3173 0.985 . S
C3168 C3162 1.379 1_565 S
C3168 C3165 1.363 . S
C3168 N3166 1.356 . S
C3169 C3163 1.363 . S
C3169 C3164 1.379 1_545 S
C3169 N3167 1.356 . S
N3170 C3162 1.356 . S
N3170 H3176 0.984 . S
N3170 H3177 0.984 . S
N3171 C3164 1.356 . S
N3171 H3174 0.984 . S
N3171 H3175 0.985 . S
H3172 N3167 0.984 . S
H3173 N3167 0.985 . S
H3174 N3171 0.984 . S
H3175 N3171 0.985 . S
H3176 N3170 0.984 . S
H3177 N3170 0.984 . S
H3178 N3166 0.984 . S
H3179 N3166 0.985 . S
C3180 C3181 1.363 . S
C3180 C3186 1.379 1_655 S
C3180 N3188 1.356 . S
C3181 C3180 1.363 . S
C3181 C3187 1.363 . S
C3182 C3183 1.363 . S
C3182 C3187 1.379 1_455 S
C3182 N3189 1.356 . S
C3183 C3182 1.363 . S
C3183 C3186 1.363 . S
N3184 C3186 1.356 . S
N3184 H3196 0.984 . S
N3184 H3197 0.985 . S
N3185 C3187 1.356 . S
N3185 H3190 0.984 . S
N3185 H3191 0.985 . S
C3186 C3180 1.379 1_455 S
C3186 C3183 1.363 . S
C3186 N3184 1.356 . S
C3187 C3181 1.363 . S
C3187 C3182 1.379 1_655 S
C3187 N3185 1.356 . S
N3188 C3180 1.356 . S
N3188 H3194 0.984 . S
N3188 H3195 0.984 . S
N3189 C3182 1.356 . S
N3189 H3192 0.984 . S
N3189 H3193 0.985 . S
H3190 N3185 0.984 . S
H3191 N3185 0.985 . S
H3192 N3189 0.984 . S
H3193 N3189 0.985 . S
H3194 N3188 0.984 . S
H3195 N3188 0.984 . S
H3196 N3184 0.984 . S
H3197 N3184 0.985 . S
C3198 C3199 1.363 . S
C3198 C3204 1.379 1_545 S
C3198 N3206 1.356 . S
C3199 C3198 1.363 . S
C3199 C3205 1.363 . S
C3200 C3201 1.363 . S
C3200 C3205 1.379 1_565 S
C3200 N3207 1.356 . S
C3201 C3200 1.363 . S
C3201 C3204 1.363 . S
N3202 C3204 1.356 . S
N3202 H3214 0.984 . S
N3202 H3215 0.985 . S
N3203 C3205 1.356 . S
N3203 H3208 0.984 . S
N3203 H3209 0.985 . S
C3204 C3198 1.379 1_565 S
C3204 C3201 1.363 . S
C3204 N3202 1.356 . S
C3205 C3199 1.363 . S
C3205 C3200 1.379 1_545 S
C3205 N3203 1.356 . S
N3206 C3198 1.356 . S
N3206 H3212 0.984 . S
N3206 H3213 0.984 . S
N3207 C3200 1.356 . S
N3207 H3210 0.984 . S
N3207 H3211 0.985 . S
H3208 N3203 0.984 . S
H3209 N3203 0.985 . S
H3210 N3207 0.984 . S
H3211 N3207 0.985 . S
H3212 N3206 0.984 . S
H3213 N3206 0.984 . S
H3214 N3202 0.984 . S
H3215 N3202 0.985 . S
C3216 C3217 1.363 . S
C3216 C3222 1.379 1_565 S
C3216 N3224 1.356 . S
C3217 C3216 1.363 . S
C3217 C3223 1.363 . S
C3218 C3219 1.363 . S
C3218 C3223 1.379 1_545 S
C3218 N3225 1.356 . S
C3219 C3218 1.363 . S
C3219 C3222 1.363 . S
N3220 C3222 1.356 . S
N3220 H3232 0.984 . S
N3220 H3233 0.985 . S
N3221 C3223 1.356 . S
N3221 H3226 0.984 . S
N3221 H3227 0.985 . S
C3222 C3216 1.379 1_545 S
C3222 C3219 1.363 . S
C3222 N3220 1.356 . S
C3223 C3217 1.363 . S
C3223 C3218 1.379 1_565 S
C3223 N3221 1.356 . S
N3224 C3216 1.356 . S
N3224 H3230 0.984 . S
N3224 H3231 0.984 . S
N3225 C3218 1.356 . S
N3225 H3228 0.984 . S
N3225 H3229 0.985 . S
H3226 N3221 0.984 . S
H3227 N3221 0.985 . S
H3228 N3225 0.984 . S
H3229 N3225 0.985 . S
H3230 N3224 0.984 . S
H3231 N3224 0.984 . S
H3232 N3220 0.984 . S
H3233 N3220 0.985 . S
C3234 C3235 1.363 . S
C3234 C3240 1.379 1_655 S
C3234 N3242 1.356 . S
C3235 C3234 1.363 . S
C3235 C3241 1.363 . S
C3236 C3237 1.363 . S
C3236 C3241 1.379 1_455 S
C3236 N3243 1.356 . S
C3237 C3236 1.363 . S
C3237 C3240 1.363 . S
N3238 C3240 1.356 . S
N3238 H3250 0.984 . S
N3238 H3251 0.985 . S
N3239 C3241 1.356 . S
N3239 H3244 0.984 . S
N3239 H3245 0.985 . S
C3240 C3234 1.379 1_455 S
C3240 C3237 1.363 . S
C3240 N3238 1.356 . S
C3241 C3235 1.363 . S
C3241 C3236 1.379 1_655 S
C3241 N3239 1.356 . S
N3242 C3234 1.356 . S
N3242 H3248 0.984 . S
N3242 H3249 0.984 . S
N3243 C3236 1.356 . S
N3243 H3246 0.984 . S
N3243 H3247 0.985 . S
H3244 N3239 0.984 . S
H3245 N3239 0.985 . S
H3246 N3243 0.984 . S
H3247 N3243 0.985 . S
H3248 N3242 0.984 . S
H3249 N3242 0.984 . S
H3250 N3238 0.984 . S
H3251 N3238 0.985 . S
C3252 C3253 1.363 . S
C3252 C3258 1.379 1_565 S
C3252 N3260 1.356 . S
C3253 C3252 1.363 . S
C3253 C3259 1.363 . S
C3254 C3255 1.363 . S
C3254 C3259 1.379 1_545 S
C3254 N3261 1.356 . S
C3255 C3254 1.363 . S
C3255 C3258 1.363 . S
N3256 C3258 1.356 . S
N3256 H3268 0.984 . S
N3256 H3269 0.985 . S
N3257 C3259 1.356 . S
N3257 H3262 0.984 . S
N3257 H3263 0.985 . S
C3258 C3252 1.379 1_545 S
C3258 C3255 1.363 . S
C3258 N3256 1.356 . S
C3259 C3253 1.363 . S
C3259 C3254 1.379 1_565 S
C3259 N3257 1.356 . S
N3260 C3252 1.356 . S
N3260 H3266 0.984 . S
N3260 H3267 0.984 . S
N3261 C3254 1.356 . S
N3261 H3264 0.984 . S
N3261 H3265 0.985 . S
H3262 N3257 0.984 . S
H3263 N3257 0.985 . S
H3264 N3261 0.984 . S
H3265 N3261 0.985 . S
H3266 N3260 0.984 . S
H3267 N3260 0.984 . S
H3268 N3256 0.984 . S
H3269 N3256 0.985 . S
C3270 C3271 1.363 . S
C3270 C3276 1.379 1_455 S
C3270 N3278 1.356 . S
C3271 C3270 1.363 . S
C3271 C3277 1.363 . S
C3272 C3273 1.363 . S
C3272 C3277 1.379 1_655 S
C3272 N3279 1.356 . S
C3273 C3272 1.363 . S
C3273 C3276 1.363 . S
N3274 C3276 1.356 . S
N3274 H3286 0.984 . S
N3274 H3287 0.985 . S
N3275 C3277 1.356 . S
N3275 H3280 0.984 . S
N3275 H3281 0.985 . S
C3276 C3270 1.379 1_655 S
C3276 C3273 1.363 . S
C3276 N3274 1.356 . S
C3277 C3271 1.363 . S
C3277 C3272 1.379 1_455 S
C3277 N3275 1.356 . S
N3278 C3270 1.356 . S
N3278 H3284 0.984 . S
N3278 H3285 0.984 . S
N3279 C3272 1.356 . S
N3279 H3282 0.984 . S
N3279 H3283 0.985 . S
H3280 N3275 0.984 . S
H3281 N3275 0.985 . S
H3282 N3279 0.984 . S
H3283 N3279 0.985 . S
H3284 N3278 0.984 . S
H3285 N3278 0.984 . S
H3286 N3274 0.984 . S
H3287 N3274 0.985 . S
C3288 C3289 1.363 . S
C3288 C3294 1.379 1_565 S
C3288 N3296 1.356 . S
C3289 C3288 1.363 . S
C3289 C3295 1.363 . S
C3290 C3291 1.363 . S
C3290 C3295 1.379 1_545 S
C3290 N3297 1.356 . S
C3291 C3290 1.363 . S
C3291 C3294 1.363 . S
N3292 C3294 1.356 . S
N3292 H3304 0.984 . S
N3292 H3305 0.985 . S
N3293 C3295 1.356 . S
N3293 H3298 0.984 . S
N3293 H3299 0.985 . S
C3294 C3288 1.379 1_545 S
C3294 C3291 1.363 . S
C3294 N3292 1.356 . S
C3295 C3289 1.363 . S
C3295 C3290 1.379 1_565 S
C3295 N3293 1.356 . S
N3296 C3288 1.356 . S
N3296 H3302 0.984 . S
N3296 H3303 0.984 . S
N3297 C3290 1.356 . S
N3297 H3300 0.984 . S
N3297 H3301 0.985 . S
H3298 N3293 0.984 . S
H3299 N3293 0.985 . S
H3300 N3297 0.984 . S
H3301 N3297 0.985 . S
H3302 N3296 0.984 . S
H3303 N3296 0.984 . S
H3304 N3292 0.984 . S
H3305 N3292 0.985 . S
C3306 C3307 1.363 . S
C3306 C3312 1.379 1_455 S
C3306 N3314 1.356 . S
C3307 C3306 1.363 . S
C3307 C3313 1.363 . S
C3308 C3309 1.363 . S
C3308 C3313 1.379 1_655 S
C3308 N3315 1.356 . S
C3309 C3308 1.363 . S
C3309 C3312 1.363 . S
N3310 C3312 1.356 . S
N3310 H3322 0.984 . S
N3310 H3323 0.985 . S
N3311 C3313 1.356 . S
N3311 H3316 0.984 . S
N3311 H3317 0.985 . S
C3312 C3306 1.379 1_655 S
C3312 C3309 1.363 . S
C3312 N3310 1.356 . S
C3313 C3307 1.363 . S
C3313 C3308 1.379 1_455 S
C3313 N3311 1.356 . S
N3314 C3306 1.356 . S
N3314 H3320 0.984 . S
N3314 H3321 0.984 . S
N3315 C3308 1.356 . S
N3315 H3318 0.984 . S
N3315 H3319 0.985 . S
H3316 N3311 0.984 . S
H3317 N3311 0.985 . S
H3318 N3315 0.984 . S
H3319 N3315 0.985 . S
H3320 N3314 0.984 . S
H3321 N3314 0.984 . S
H3322 N3310 0.984 . S
H3323 N3310 0.985 . S
C3324 C3325 1.363 . S
C3324 C3330 1.379 1_545 S
C3324 N3332 1.356 . S
C3325 C3324 1.363 . S
C3325 C3331 1.363 . S
C3326 C3327 1.363 . S
C3326 C3331 1.379 1_565 S
C3326 N3333 1.356 . S
C3327 C3326 1.363 . S
C3327 C3330 1.363 . S
N3328 C3330 1.356 . S
N3328 H3340 0.984 . S
N3328 H3341 0.985 . S
N3329 C3331 1.356 . S
N3329 H3334 0.984 . S
N3329 H3335 0.985 . S
C3330 C3324 1.379 1_565 S
C3330 C3327 1.363 . S
C3330 N3328 1.356 . S
C3331 C3325 1.363 . S
C3331 C3326 1.379 1_545 S
C3331 N3329 1.356 . S
N3332 C3324 1.356 . S
N3332 H3338 0.984 . S
N3332 H3339 0.984 . S
N3333 C3326 1.356 . S
N3333 H3336 0.984 . S
N3333 H3337 0.985 . S
H3334 N3329 0.984 . S
H3335 N3329 0.985 . S
H3336 N3333 0.984 . S
H3337 N3333 0.985 . S
H3338 N3332 0.984 . S
H3339 N3332 0.984 . S
H3340 N3328 0.984 . S
H3341 N3328 0.985 . S
C3342 C3343 1.363 . S
C3342 C3348 1.379 1_655 S
C3342 N3350 1.356 . S
C3343 C3342 1.363 . S
C3343 C3349 1.363 . S
C3344 C3345 1.363 . S
C3344 C3349 1.379 1_455 S
C3344 N3351 1.356 . S
C3345 C3344 1.363 . S
C3345 C3348 1.363 . S
N3346 C3348 1.356 . S
N3346 H3358 0.984 . S
N3346 H3359 0.985 . S
N3347 C3349 1.356 . S
N3347 H3352 0.984 . S
N3347 H3353 0.985 . S
C3348 C3342 1.379 1_455 S
C3348 C3345 1.363 . S
C3348 N3346 1.356 . S
C3349 C3343 1.363 . S
C3349 C3344 1.379 1_655 S
C3349 N3347 1.356 . S
N3350 C3342 1.356 . S
N3350 H3356 0.984 . S
N3350 H3357 0.984 . S
N3351 C3344 1.356 . S
N3351 H3354 0.984 . S
N3351 H3355 0.985 . S
H3352 N3347 0.984 . S
H3353 N3347 0.985 . S
H3354 N3351 0.984 . S
H3355 N3351 0.985 . S
H3356 N3350 0.984 . S
H3357 N3350 0.984 . S
H3358 N3346 0.984 . S
H3359 N3346 0.985 . S
C3360 C3361 1.363 . S
C3360 C3366 1.379 1_554 S
C3360 N3368 1.356 . S
C3361 C3360 1.363 . S
C3361 C3367 1.363 . S
C3362 C3363 1.363 . S
C3362 C3367 1.379 1_556 S
C3362 N3369 1.356 . S
C3363 C3362 1.363 . S
C3363 C3366 1.363 . S
N3364 C3366 1.356 . S
N3364 H3376 0.984 . S
N3364 H3377 0.985 . S
N3365 C3367 1.356 . S
N3365 H3370 0.984 . S
N3365 H3371 0.985 . S
C3366 C3360 1.379 1_556 S
C3366 C3363 1.363 . S
C3366 N3364 1.356 . S
C3367 C3361 1.363 . S
C3367 C3362 1.379 1_554 S
C3367 N3365 1.356 . S
N3368 C3360 1.356 . S
N3368 H3374 0.984 . S
N3368 H3375 0.984 . S
N3369 C3362 1.356 . S
N3369 H3372 0.984 . S
N3369 H3373 0.985 . S
H3370 N3365 0.984 . S
H3371 N3365 0.985 . S
H3372 N3369 0.984 . S
H3373 N3369 0.985 . S
H3374 N3368 0.984 . S
H3375 N3368 0.984 . S
H3376 N3364 0.984 . S
H3377 N3364 0.985 . S
C3378 C3379 1.363 . S
C3378 C3384 1.379 1_556 S
C3378 N3386 1.356 . S
C3379 C3378 1.363 . S
C3379 C3385 1.363 . S
C3380 C3381 1.363 . S
C3380 C3385 1.379 1_554 S
C3380 N3387 1.356 . S
C3381 C3380 1.363 . S
C3381 C3384 1.363 . S
N3382 C3384 1.356 . S
N3382 H3394 0.984 . S
N3382 H3395 0.985 . S
N3383 C3385 1.356 . S
N3383 H3388 0.984 . S
N3383 H3389 0.985 . S
C3384 C3378 1.379 1_554 S
C3384 C3381 1.363 . S
C3384 N3382 1.356 . S
C3385 C3379 1.363 . S
C3385 C3380 1.379 1_556 S
C3385 N3383 1.356 . S
N3386 C3378 1.356 . S
N3386 H3392 0.984 . S
N3386 H3393 0.984 . S
N3387 C3380 1.356 . S
N3387 H3390 0.984 . S
N3387 H3391 0.985 . S
H3388 N3383 0.984 . S
H3389 N3383 0.985 . S
H3390 N3387 0.984 . S
H3391 N3387 0.985 . S
H3392 N3386 0.984 . S
H3393 N3386 0.984 . S
H3394 N3382 0.984 . S
H3395 N3382 0.985 . S
C3396 C3397 1.363 . S
C3396 C3402 1.379 1_554 S
C3396 N3404 1.356 . S
C3397 C3396 1.363 . S
C3397 C3403 1.363 . S
C3398 C3399 1.363 . S
C3398 C3403 1.379 1_556 S
C3398 N3405 1.356 . S
C3399 C3398 1.363 . S
C3399 C3402 1.363 . S
N3400 C3402 1.356 . S
N3400 H3412 0.984 . S
N3400 H3413 0.985 . S
N3401 C3403 1.356 . S
N3401 H3406 0.984 . S
N3401 H3407 0.985 . S
C3402 C3396 1.379 1_556 S
C3402 C3399 1.363 . S
C3402 N3400 1.356 . S
C3403 C3397 1.363 . S
C3403 C3398 1.379 1_554 S
C3403 N3401 1.356 . S
N3404 C3396 1.356 . S
N3404 H3410 0.984 . S
N3404 H3411 0.984 . S
N3405 C3398 1.356 . S
N3405 H3408 0.984 . S
N3405 H3409 0.985 . S
H3406 N3401 0.984 . S
H3407 N3401 0.985 . S
H3408 N3405 0.984 . S
H3409 N3405 0.985 . S
H3410 N3404 0.984 . S
H3411 N3404 0.984 . S
H3412 N3400 0.984 . S
H3413 N3400 0.985 . S
C3414 C3415 1.363 . S
C3414 C3420 1.379 1_556 S
C3414 N3422 1.356 . S
C3415 C3414 1.363 . S
C3415 C3421 1.363 . S
C3416 C3417 1.363 . S
C3416 C3421 1.379 1_554 S
C3416 N3423 1.356 . S
C3417 C3416 1.363 . S
C3417 C3420 1.363 . S
N3418 C3420 1.356 . S
N3418 H3430 0.984 . S
N3418 H3431 0.985 . S
N3419 C3421 1.356 . S
N3419 H3424 0.984 . S
N3419 H3425 0.985 . S
C3420 C3414 1.379 1_554 S
C3420 C3417 1.363 . S
C3420 N3418 1.356 . S
C3421 C3415 1.363 . S
C3421 C3416 1.379 1_556 S
C3421 N3419 1.356 . S
N3422 C3414 1.356 . S
N3422 H3428 0.984 . S
N3422 H3429 0.984 . S
N3423 C3416 1.356 . S
N3423 H3426 0.984 . S
N3423 H3427 0.985 . S
H3424 N3419 0.984 . S
H3425 N3419 0.985 . S
H3426 N3423 0.984 . S
H3427 N3423 0.985 . S
H3428 N3422 0.984 . S
H3429 N3422 0.984 . S
H3430 N3418 0.984 . S
H3431 N3418 0.985 . S
C3432 C3433 1.363 . S
C3432 C3438 1.379 1_554 S
C3432 N3440 1.356 . S
C3433 C3432 1.363 . S
C3433 C3439 1.363 . S
C3434 C3435 1.363 . S
C3434 C3439 1.379 1_556 S
C3434 N3441 1.356 . S
C3435 C3434 1.363 . S
C3435 C3438 1.363 . S
N3436 C3438 1.356 . S
N3436 H3448 0.984 . S
N3436 H3449 0.985 . S
N3437 C3439 1.356 . S
N3437 H3442 0.984 . S
N3437 H3443 0.985 . S
C3438 C3432 1.379 1_556 S
C3438 C3435 1.363 . S
C3438 N3436 1.356 . S
C3439 C3433 1.363 . S
C3439 C3434 1.379 1_554 S
C3439 N3437 1.356 . S
N3440 C3432 1.356 . S
N3440 H3446 0.984 . S
N3440 H3447 0.984 . S
N3441 C3434 1.356 . S
N3441 H3444 0.984 . S
N3441 H3445 0.985 . S
H3442 N3437 0.984 . S
H3443 N3437 0.985 . S
H3444 N3441 0.984 . S
H3445 N3441 0.985 . S
H3446 N3440 0.984 . S
H3447 N3440 0.984 . S
H3448 N3436 0.984 . S
H3449 N3436 0.985 . S
C3450 C3451 1.363 . S
C3450 C3456 1.379 1_554 S
C3450 N3458 1.356 . S
C3451 C3450 1.363 . S
C3451 C3457 1.363 . S
C3452 C3453 1.363 . S
C3452 C3457 1.379 1_556 S
C3452 N3459 1.356 . S
C3453 C3452 1.363 . S
C3453 C3456 1.363 . S
N3454 C3456 1.356 . S
N3454 H3466 0.984 . S
N3454 H3467 0.985 . S
N3455 C3457 1.356 . S
N3455 H3460 0.984 . S
N3455 H3461 0.985 . S
C3456 C3450 1.379 1_556 S
C3456 C3453 1.363 . S
C3456 N3454 1.356 . S
C3457 C3451 1.363 . S
C3457 C3452 1.379 1_554 S
C3457 N3455 1.356 . S
N3458 C3450 1.356 . S
N3458 H3464 0.984 . S
N3458 H3465 0.984 . S
N3459 C3452 1.356 . S
N3459 H3462 0.984 . S
N3459 H3463 0.985 . S
H3460 N3455 0.984 . S
H3461 N3455 0.985 . S
H3462 N3459 0.984 . S
H3463 N3459 0.985 . S
H3464 N3458 0.984 . S
H3465 N3458 0.984 . S
H3466 N3454 0.984 . S
H3467 N3454 0.985 . S
C3468 C3469 1.363 . S
C3468 C3474 1.379 1_554 S
C3468 N3476 1.356 . S
C3469 C3468 1.363 . S
C3469 C3475 1.363 . S
C3470 C3471 1.363 . S
C3470 C3475 1.379 1_556 S
C3470 N3477 1.356 . S
C3471 C3470 1.363 . S
C3471 C3474 1.363 . S
N3472 C3474 1.356 . S
N3472 H3484 0.984 . S
N3472 H3485 0.985 . S
N3473 C3475 1.356 . S
N3473 H3478 0.984 . S
N3473 H3479 0.985 . S
C3474 C3468 1.379 1_556 S
C3474 C3471 1.363 . S
C3474 N3472 1.356 . S
C3475 C3469 1.363 . S
C3475 C3470 1.379 1_554 S
C3475 N3473 1.356 . S
N3476 C3468 1.356 . S
N3476 H3482 0.984 . S
N3476 H3483 0.984 . S
N3477 C3470 1.356 . S
N3477 H3480 0.984 . S
N3477 H3481 0.985 . S
H3478 N3473 0.984 . S
H3479 N3473 0.985 . S
H3480 N3477 0.984 . S
H3481 N3477 0.985 . S
H3482 N3476 0.984 . S
H3483 N3476 0.984 . S
H3484 N3472 0.984 . S
H3485 N3472 0.985 . S
C3486 C3487 1.363 . S
C3486 C3492 1.379 1_556 S
C3486 N3494 1.356 . S
C3487 C3486 1.363 . S
C3487 C3493 1.363 . S
C3488 C3489 1.363 . S
C3488 C3493 1.379 1_554 S
C3488 N3495 1.356 . S
C3489 C3488 1.363 . S
C3489 C3492 1.363 . S
N3490 C3492 1.356 . S
N3490 H3502 0.984 . S
N3490 H3503 0.985 . S
N3491 C3493 1.356 . S
N3491 H3496 0.984 . S
N3491 H3497 0.985 . S
C3492 C3486 1.379 1_554 S
C3492 C3489 1.363 . S
C3492 N3490 1.356 . S
C3493 C3487 1.363 . S
C3493 C3488 1.379 1_556 S
C3493 N3491 1.356 . S
N3494 C3486 1.356 . S
N3494 H3500 0.984 . S
N3494 H3501 0.984 . S
N3495 C3488 1.356 . S
N3495 H3498 0.984 . S
N3495 H3499 0.985 . S
H3496 N3491 0.984 . S
H3497 N3491 0.985 . S
H3498 N3495 0.984 . S
H3499 N3495 0.985 . S
H3500 N3494 0.984 . S
H3501 N3494 0.984 . S
H3502 N3490 0.984 . S
H3503 N3490 0.985 . S
C3504 C3505 1.363 . S
C3504 C3510 1.379 . S
C3504 N3512 1.356 . S
C3505 C3504 1.363 . S
C3505 C3511 1.363 . S
C3506 C3507 1.363 . S
C3506 C3511 1.379 . S
C3506 N3513 1.356 . S
C3507 C3506 1.363 . S
C3507 C3510 1.363 . S
N3508 C3510 1.356 . S
N3508 H3520 0.984 . S
N3508 H3521 0.985 . S
N3509 C3511 1.356 . S
N3509 H3514 0.984 . S
N3509 H3515 0.985 . S
C3510 C3504 1.379 . S
C3510 C3507 1.363 . S
C3510 N3508 1.356 . S
C3511 C3505 1.363 . S
C3511 C3506 1.379 . S
C3511 N3509 1.356 . S
N3512 C3504 1.356 . S
N3512 H3518 0.984 . S
N3512 H3519 0.984 . S
N3513 C3506 1.356 . S
N3513 H3516 0.984 . S
N3513 H3517 0.985 . S
H3514 N3509 0.984 . S
H3515 N3509 0.985 . S
H3516 N3513 0.984 . S
H3517 N3513 0.985 . S
H3518 N3512 0.984 . S
H3519 N3512 0.984 . S
H3520 N3508 0.984 . S
H3521 N3508 0.985 . S
C3522 C3523 1.363 . S
C3522 C3528 1.379 . S
C3522 N3530 1.356 . S
C3523 C3522 1.363 . S
C3523 C3529 1.363 . S
C3524 C3525 1.363 . S
C3524 C3529 1.379 . S
C3524 N3531 1.356 . S
C3525 C3524 1.363 . S
C3525 C3528 1.363 . S
N3526 C3528 1.356 . S
N3526 H3538 0.984 . S
N3526 H3539 0.985 . S
N3527 C3529 1.356 . S
N3527 H3532 0.984 . S
N3527 H3533 0.985 . S
C3528 C3522 1.379 . S
C3528 C3525 1.363 . S
C3528 N3526 1.356 . S
C3529 C3523 1.363 . S
C3529 C3524 1.379 . S
C3529 N3527 1.356 . S
N3530 C3522 1.356 . S
N3530 H3536 0.984 . S
N3530 H3537 0.984 . S
N3531 C3524 1.356 . S
N3531 H3534 0.984 . S
N3531 H3535 0.985 . S
H3532 N3527 0.984 . S
H3533 N3527 0.985 . S
H3534 N3531 0.984 . S
H3535 N3531 0.985 . S
H3536 N3530 0.984 . S
H3537 N3530 0.984 . S
H3538 N3526 0.984 . S
H3539 N3526 0.985 . S
C3540 C3541 1.363 . S
C3540 C3546 1.379 . S
C3540 N3548 1.356 . S
C3541 C3540 1.363 . S
C3541 C3547 1.363 . S
C3542 C3543 1.363 . S
C3542 C3547 1.379 . S
C3542 N3549 1.356 . S
C3543 C3542 1.363 . S
C3543 C3546 1.363 . S
N3544 C3546 1.356 . S
N3544 H3556 0.984 . S
N3544 H3557 0.985 . S
N3545 C3547 1.356 . S
N3545 H3550 0.984 . S
N3545 H3551 0.985 . S
C3546 C3540 1.379 . S
C3546 C3543 1.363 . S
C3546 N3544 1.356 . S
C3547 C3541 1.363 . S
C3547 C3542 1.379 . S
C3547 N3545 1.356 . S
N3548 C3540 1.356 . S
N3548 H3554 0.984 . S
N3548 H3555 0.984 . S
N3549 C3542 1.356 . S
N3549 H3552 0.984 . S
N3549 H3553 0.985 . S
H3550 N3545 0.984 . S
H3551 N3545 0.985 . S
H3552 N3549 0.984 . S
H3553 N3549 0.985 . S
H3554 N3548 0.984 . S
H3555 N3548 0.984 . S
H3556 N3544 0.984 . S
H3557 N3544 0.985 . S
C3558 C3559 1.363 . S
C3558 C3564 1.379 . S
C3558 N3566 1.356 . S
C3559 C3558 1.363 . S
C3559 C3565 1.363 . S
C3560 C3561 1.363 . S
C3560 C3565 1.379 . S
C3560 N3567 1.356 . S
C3561 C3560 1.363 . S
C3561 C3564 1.363 . S
N3562 C3564 1.356 . S
N3562 H3574 0.984 . S
N3562 H3575 0.985 . S
N3563 C3565 1.356 . S
N3563 H3568 0.984 . S
N3563 H3569 0.985 . S
C3564 C3558 1.379 . S
C3564 C3561 1.363 . S
C3564 N3562 1.356 . S
C3565 C3559 1.363 . S
C3565 C3560 1.379 . S
C3565 N3563 1.356 . S
N3566 C3558 1.356 . S
N3566 H3572 0.984 . S
N3566 H3573 0.984 . S
N3567 C3560 1.356 . S
N3567 H3570 0.984 . S
N3567 H3571 0.985 . S
H3568 N3563 0.984 . S
H3569 N3563 0.985 . S
H3570 N3567 0.984 . S
H3571 N3567 0.985 . S
H3572 N3566 0.984 . S
H3573 N3566 0.984 . S
H3574 N3562 0.984 . S
H3575 N3562 0.985 . S
C3576 C3577 1.363 . S
C3576 C3582 1.379 . S
C3576 N3584 1.356 . S
C3577 C3576 1.363 . S
C3577 C3583 1.363 . S
C3578 C3579 1.363 . S
C3578 C3583 1.379 . S
C3578 N3585 1.356 . S
C3579 C3578 1.363 . S
C3579 C3582 1.363 . S
N3580 C3582 1.356 . S
N3580 H3592 0.984 . S
N3580 H3593 0.985 . S
N3581 C3583 1.356 . S
N3581 H3586 0.984 . S
N3581 H3587 0.985 . S
C3582 C3576 1.379 . S
C3582 C3579 1.363 . S
C3582 N3580 1.356 . S
C3583 C3577 1.363 . S
C3583 C3578 1.379 . S
C3583 N3581 1.356 . S
N3584 C3576 1.356 . S
N3584 H3590 0.984 . S
N3584 H3591 0.984 . S
N3585 C3578 1.356 . S
N3585 H3588 0.984 . S
N3585 H3589 0.985 . S
H3586 N3581 0.984 . S
H3587 N3581 0.985 . S
H3588 N3585 0.984 . S
H3589 N3585 0.985 . S
H3590 N3584 0.984 . S
H3591 N3584 0.984 . S
H3592 N3580 0.984 . S
H3593 N3580 0.985 . S
C3594 C3595 1.363 . S
C3594 C3600 1.379 . S
C3594 N3602 1.356 . S
C3595 C3594 1.363 . S
C3595 C3601 1.363 . S
C3596 C3597 1.363 . S
C3596 C3601 1.379 . S
C3596 N3603 1.356 . S
C3597 C3596 1.363 . S
C3597 C3600 1.363 . S
N3598 C3600 1.356 . S
N3598 H3610 0.984 . S
N3598 H3611 0.985 . S
N3599 C3601 1.356 . S
N3599 H3604 0.984 . S
N3599 H3605 0.985 . S
C3600 C3594 1.379 . S
C3600 C3597 1.363 . S
C3600 N3598 1.356 . S
C3601 C3595 1.363 . S
C3601 C3596 1.379 . S
C3601 N3599 1.356 . S
N3602 C3594 1.356 . S
N3602 H3608 0.984 . S
N3602 H3609 0.984 . S
N3603 C3596 1.356 . S
N3603 H3606 0.984 . S
N3603 H3607 0.985 . S
H3604 N3599 0.984 . S
H3605 N3599 0.985 . S
H3606 N3603 0.984 . S
H3607 N3603 0.985 . S
H3608 N3602 0.984 . S
H3609 N3602 0.984 . S
H3610 N3598 0.984 . S
H3611 N3598 0.985 . S
C3612 C3613 1.363 . S
C3612 C3618 1.379 . S
C3612 N3620 1.356 . S
C3613 C3612 1.363 . S
C3613 C3619 1.363 . S
C3614 C3615 1.363 . S
C3614 C3619 1.379 . S
C3614 N3621 1.356 . S
C3615 C3614 1.363 . S
C3615 C3618 1.363 . S
N3616 C3618 1.356 . S
N3616 H3628 0.984 . S
N3616 H3629 0.985 . S
N3617 C3619 1.356 . S
N3617 H3622 0.984 . S
N3617 H3623 0.985 . S
C3618 C3612 1.379 . S
C3618 C3615 1.363 . S
C3618 N3616 1.356 . S
C3619 C3613 1.363 . S
C3619 C3614 1.379 . S
C3619 N3617 1.356 . S
N3620 C3612 1.356 . S
N3620 H3626 0.984 . S
N3620 H3627 0.984 . S
N3621 C3614 1.356 . S
N3621 H3624 0.984 . S
N3621 H3625 0.985 . S
H3622 N3617 0.984 . S
H3623 N3617 0.985 . S
H3624 N3621 0.984 . S
H3625 N3621 0.985 . S
H3626 N3620 0.984 . S
H3627 N3620 0.984 . S
H3628 N3616 0.984 . S
H3629 N3616 0.985 . S
C3630 C3631 1.363 . S
C3630 C3636 1.379 . S
C3630 N3638 1.356 . S
C3631 C3630 1.363 . S
C3631 C3637 1.363 . S
C3632 C3633 1.363 . S
C3632 C3637 1.379 . S
C3632 N3639 1.356 . S
C3633 C3632 1.363 . S
C3633 C3636 1.363 . S
N3634 C3636 1.356 . S
N3634 H3646 0.984 . S
N3634 H3647 0.985 . S
N3635 C3637 1.356 . S
N3635 H3640 0.984 . S
N3635 H3641 0.985 . S
C3636 C3630 1.379 . S
C3636 C3633 1.363 . S
C3636 N3634 1.356 . S
C3637 C3631 1.363 . S
C3637 C3632 1.379 . S
C3637 N3635 1.356 . S
N3638 C3630 1.356 . S
N3638 H3644 0.984 . S
N3638 H3645 0.984 . S
N3639 C3632 1.356 . S
N3639 H3642 0.984 . S
N3639 H3643 0.985 . S
H3640 N3635 0.984 . S
H3641 N3635 0.985 . S
H3642 N3639 0.984 . S
H3643 N3639 0.985 . S
H3644 N3638 0.984 . S
H3645 N3638 0.984 . S
H3646 N3634 0.984 . S
H3647 N3634 0.985 . S
C3648 C3649 1.363 . S
C3648 C3654 1.379 . S
C3648 N3656 1.356 . S
C3649 C3648 1.363 . S
C3649 C3655 1.363 . S
C3650 C3651 1.363 . S
C3650 C3655 1.379 . S
C3650 N3657 1.356 . S
C3651 C3650 1.363 . S
C3651 C3654 1.363 . S
N3652 C3654 1.356 . S
N3652 H3664 0.984 . S
N3652 H3665 0.985 . S
N3653 C3655 1.356 . S
N3653 H3658 0.984 . S
N3653 H3659 0.985 . S
C3654 C3648 1.379 . S
C3654 C3651 1.363 . S
C3654 N3652 1.356 . S
C3655 C3649 1.363 . S
C3655 C3650 1.379 . S
C3655 N3653 1.356 . S
N3656 C3648 1.356 . S
N3656 H3662 0.984 . S
N3656 H3663 0.984 . S
N3657 C3650 1.356 . S
N3657 H3660 0.984 . S
N3657 H3661 0.985 . S
H3658 N3653 0.984 . S
H3659 N3653 0.985 . S
H3660 N3657 0.984 . S
H3661 N3657 0.985 . S
H3662 N3656 0.984 . S
H3663 N3656 0.984 . S
H3664 N3652 0.984 . S
H3665 N3652 0.985 . S
C3666 C3667 1.363 . S
C3666 C3672 1.379 . S
C3666 N3674 1.356 . S
C3667 C3666 1.363 . S
C3667 C3673 1.363 . S
C3668 C3669 1.363 . S
C3668 C3673 1.379 . S
C3668 N3675 1.356 . S
C3669 C3668 1.363 . S
C3669 C3672 1.363 . S
N3670 C3672 1.356 . S
N3670 H3682 0.984 . S
N3670 H3683 0.985 . S
N3671 C3673 1.356 . S
N3671 H3676 0.984 . S
N3671 H3677 0.985 . S
C3672 C3666 1.379 . S
C3672 C3669 1.363 . S
C3672 N3670 1.356 . S
C3673 C3667 1.363 . S
C3673 C3668 1.379 . S
C3673 N3671 1.356 . S
N3674 C3666 1.356 . S
N3674 H3680 0.984 . S
N3674 H3681 0.984 . S
N3675 C3668 1.356 . S
N3675 H3678 0.984 . S
N3675 H3679 0.985 . S
H3676 N3671 0.984 . S
H3677 N3671 0.985 . S
H3678 N3675 0.984 . S
H3679 N3675 0.985 . S
H3680 N3674 0.984 . S
H3681 N3674 0.984 . S
H3682 N3670 0.984 . S
H3683 N3670 0.985 . S
C3684 C3685 1.363 . S
C3684 C3690 1.379 . S
C3684 N3692 1.356 . S
C3685 C3684 1.363 . S
C3685 C3691 1.363 . S
C3686 C3687 1.363 . S
C3686 C3691 1.379 . S
C3686 N3693 1.356 . S
C3687 C3686 1.363 . S
C3687 C3690 1.363 . S
N3688 C3690 1.356 . S
N3688 H3700 0.984 . S
N3688 H3701 0.985 . S
N3689 C3691 1.356 . S
N3689 H3694 0.984 . S
N3689 H3695 0.985 . S
C3690 C3684 1.379 . S
C3690 C3687 1.363 . S
C3690 N3688 1.356 . S
C3691 C3685 1.363 . S
C3691 C3686 1.379 . S
C3691 N3689 1.356 . S
N3692 C3684 1.356 . S
N3692 H3698 0.984 . S
N3692 H3699 0.984 . S
N3693 C3686 1.356 . S
N3693 H3696 0.984 . S
N3693 H3697 0.985 . S
H3694 N3689 0.984 . S
H3695 N3689 0.985 . S
H3696 N3693 0.984 . S
H3697 N3693 0.985 . S
H3698 N3692 0.984 . S
H3699 N3692 0.984 . S
H3700 N3688 0.984 . S
H3701 N3688 0.985 . S
C3702 C3703 1.363 . S
C3702 C3708 1.379 . S
C3702 N3710 1.356 . S
C3703 C3702 1.363 . S
C3703 C3709 1.363 . S
C3704 C3705 1.363 . S
C3704 C3709 1.379 . S
C3704 N3711 1.356 . S
C3705 C3704 1.363 . S
C3705 C3708 1.363 . S
N3706 C3708 1.356 . S
N3706 H3718 0.984 . S
N3706 H3719 0.985 . S
N3707 C3709 1.356 . S
N3707 H3712 0.984 . S
N3707 H3713 0.985 . S
C3708 C3702 1.379 . S
C3708 C3705 1.363 . S
C3708 N3706 1.356 . S
C3709 C3703 1.363 . S
C3709 C3704 1.379 . S
C3709 N3707 1.356 . S
N3710 C3702 1.356 . S
N3710 H3716 0.984 . S
N3710 H3717 0.984 . S
N3711 C3704 1.356 . S
N3711 H3714 0.984 . S
N3711 H3715 0.985 . S
H3712 N3707 0.984 . S
H3713 N3707 0.985 . S
H3714 N3711 0.984 . S
H3715 N3711 0.985 . S
H3716 N3710 0.984 . S
H3717 N3710 0.984 . S
H3718 N3706 0.984 . S
H3719 N3706 0.985 . S
C3720 C3721 1.363 . S
C3720 C3726 1.379 . S
C3720 N3728 1.356 . S
C3721 C3720 1.363 . S
C3721 C3727 1.363 . S
C3722 C3723 1.363 . S
C3722 C3727 1.379 . S
C3722 N3729 1.356 . S
C3723 C3722 1.363 . S
C3723 C3726 1.363 . S
N3724 C3726 1.356 . S
N3724 H3736 0.984 . S
N3724 H3737 0.985 . S
N3725 C3727 1.356 . S
N3725 H3730 0.984 . S
N3725 H3731 0.985 . S
C3726 C3720 1.379 . S
C3726 C3723 1.363 . S
C3726 N3724 1.356 . S
C3727 C3721 1.363 . S
C3727 C3722 1.379 . S
C3727 N3725 1.356 . S
N3728 C3720 1.356 . S
N3728 H3734 0.984 . S
N3728 H3735 0.984 . S
N3729 C3722 1.356 . S
N3729 H3732 0.984 . S
N3729 H3733 0.985 . S
H3730 N3725 0.984 . S
H3731 N3725 0.985 . S
H3732 N3729 0.984 . S
H3733 N3729 0.985 . S
H3734 N3728 0.984 . S
H3735 N3728 0.984 . S
H3736 N3724 0.984 . S
H3737 N3724 0.985 . S
C3738 C3739 1.363 . S
C3738 C3744 1.379 . S
C3738 N3746 1.356 . S
C3739 C3738 1.363 . S
C3739 C3745 1.363 . S
C3740 C3741 1.363 . S
C3740 C3745 1.379 . S
C3740 N3747 1.356 . S
C3741 C3740 1.363 . S
C3741 C3744 1.363 . S
N3742 C3744 1.356 . S
N3742 H3754 0.984 . S
N3742 H3755 0.985 . S
N3743 C3745 1.356 . S
N3743 H3748 0.984 . S
N3743 H3749 0.985 . S
C3744 C3738 1.379 . S
C3744 C3741 1.363 . S
C3744 N3742 1.356 . S
C3745 C3739 1.363 . S
C3745 C3740 1.379 . S
C3745 N3743 1.356 . S
N3746 C3738 1.356 . S
N3746 H3752 0.984 . S
N3746 H3753 0.984 . S
N3747 C3740 1.356 . S
N3747 H3750 0.984 . S
N3747 H3751 0.985 . S
H3748 N3743 0.984 . S
H3749 N3743 0.985 . S
H3750 N3747 0.984 . S
H3751 N3747 0.985 . S
H3752 N3746 0.984 . S
H3753 N3746 0.984 . S
H3754 N3742 0.984 . S
H3755 N3742 0.985 . S
C3756 C3757 1.363 . S
C3756 C3762 1.379 . S
C3756 N3764 1.356 . S
C3757 C3756 1.363 . S
C3757 C3763 1.363 . S
C3758 C3759 1.363 . S
C3758 C3763 1.379 . S
C3758 N3765 1.356 . S
C3759 C3758 1.363 . S
C3759 C3762 1.363 . S
N3760 C3762 1.356 . S
N3760 H3772 0.984 . S
N3760 H3773 0.985 . S
N3761 C3763 1.356 . S
N3761 H3766 0.984 . S
N3761 H3767 0.985 . S
C3762 C3756 1.379 . S
C3762 C3759 1.363 . S
C3762 N3760 1.356 . S
C3763 C3757 1.363 . S
C3763 C3758 1.379 . S
C3763 N3761 1.356 . S
N3764 C3756 1.356 . S
N3764 H3770 0.984 . S
N3764 H3771 0.984 . S
N3765 C3758 1.356 . S
N3765 H3768 0.984 . S
N3765 H3769 0.985 . S
H3766 N3761 0.984 . S
H3767 N3761 0.985 . S
H3768 N3765 0.984 . S
H3769 N3765 0.985 . S
H3770 N3764 0.984 . S
H3771 N3764 0.984 . S
H3772 N3760 0.984 . S
H3773 N3760 0.985 . S
C3774 C3775 1.363 . S
C3774 C3780 1.379 . S
C3774 N3782 1.356 . S
C3775 C3774 1.363 . S
C3775 C3781 1.363 . S
C3776 C3777 1.363 . S
C3776 C3781 1.379 . S
C3776 N3783 1.356 . S
C3777 C3776 1.363 . S
C3777 C3780 1.363 . S
N3778 C3780 1.356 . S
N3778 H3790 0.984 . S
N3778 H3791 0.985 . S
N3779 C3781 1.356 . S
N3779 H3784 0.984 . S
N3779 H3785 0.985 . S
C3780 C3774 1.379 . S
C3780 C3777 1.363 . S
C3780 N3778 1.356 . S
C3781 C3775 1.363 . S
C3781 C3776 1.379 . S
C3781 N3779 1.356 . S
N3782 C3774 1.356 . S
N3782 H3788 0.984 . S
N3782 H3789 0.984 . S
N3783 C3776 1.356 . S
N3783 H3786 0.984 . S
N3783 H3787 0.985 . S
H3784 N3779 0.984 . S
H3785 N3779 0.985 . S
H3786 N3783 0.984 . S
H3787 N3783 0.985 . S
H3788 N3782 0.984 . S
H3789 N3782 0.984 . S
H3790 N3778 0.984 . S
H3791 N3778 0.985 . S
C3792 C3793 1.363 . S
C3792 C3798 1.379 . S
C3792 N3800 1.356 . S
C3793 C3792 1.363 . S
C3793 C3799 1.363 . S
C3794 C3795 1.363 . S
C3794 C3799 1.379 . S
C3794 N3801 1.356 . S
C3795 C3794 1.363 . S
C3795 C3798 1.363 . S
N3796 C3798 1.356 . S
N3796 H3808 0.984 . S
N3796 H3809 0.985 . S
N3797 C3799 1.356 . S
N3797 H3802 0.984 . S
N3797 H3803 0.985 . S
C3798 C3792 1.379 . S
C3798 C3795 1.363 . S
C3798 N3796 1.356 . S
C3799 C3793 1.363 . S
C3799 C3794 1.379 . S
C3799 N3797 1.356 . S
N3800 C3792 1.356 . S
N3800 H3806 0.984 . S
N3800 H3807 0.984 . S
N3801 C3794 1.356 . S
N3801 H3804 0.984 . S
N3801 H3805 0.985 . S
H3802 N3797 0.984 . S
H3803 N3797 0.985 . S
H3804 N3801 0.984 . S
H3805 N3801 0.985 . S
H3806 N3800 0.984 . S
H3807 N3800 0.984 . S
H3808 N3796 0.984 . S
H3809 N3796 0.985 . S
C3810 C3811 1.363 . S
C3810 C3816 1.379 . S
C3810 N3818 1.356 . S
C3811 C3810 1.363 . S
C3811 C3817 1.363 . S
C3812 C3813 1.363 . S
C3812 C3817 1.379 . S
C3812 N3819 1.356 . S
C3813 C3812 1.363 . S
C3813 C3816 1.363 . S
N3814 C3816 1.356 . S
N3814 H3826 0.984 . S
N3814 H3827 0.985 . S
N3815 C3817 1.356 . S
N3815 H3820 0.984 . S
N3815 H3821 0.985 . S
C3816 C3810 1.379 . S
C3816 C3813 1.363 . S
C3816 N3814 1.356 . S
C3817 C3811 1.363 . S
C3817 C3812 1.379 . S
C3817 N3815 1.356 . S
N3818 C3810 1.356 . S
N3818 H3824 0.984 . S
N3818 H3825 0.984 . S
N3819 C3812 1.356 . S
N3819 H3822 0.984 . S
N3819 H3823 0.985 . S
H3820 N3815 0.984 . S
H3821 N3815 0.985 . S
H3822 N3819 0.984 . S
H3823 N3819 0.985 . S
H3824 N3818 0.984 . S
H3825 N3818 0.984 . S
H3826 N3814 0.984 . S
H3827 N3814 0.985 . S
C3828 C3829 1.363 . S
C3828 C3834 1.379 . S
C3828 N3836 1.356 . S
C3829 C3828 1.363 . S
C3829 C3835 1.363 . S
C3830 C3831 1.363 . S
C3830 C3835 1.379 . S
C3830 N3837 1.356 . S
C3831 C3830 1.363 . S
C3831 C3834 1.363 . S
N3832 C3834 1.356 . S
N3832 H3844 0.984 . S
N3832 H3845 0.985 . S
N3833 C3835 1.356 . S
N3833 H3838 0.984 . S
N3833 H3839 0.985 . S
C3834 C3828 1.379 . S
C3834 C3831 1.363 . S
C3834 N3832 1.356 . S
C3835 C3829 1.363 . S
C3835 C3830 1.379 . S
C3835 N3833 1.356 . S
N3836 C3828 1.356 . S
N3836 H3842 0.984 . S
N3836 H3843 0.984 . S
N3837 C3830 1.356 . S
N3837 H3840 0.984 . S
N3837 H3841 0.985 . S
H3838 N3833 0.984 . S
H3839 N3833 0.985 . S
H3840 N3837 0.984 . S
H3841 N3837 0.985 . S
H3842 N3836 0.984 . S
H3843 N3836 0.984 . S
H3844 N3832 0.984 . S
H3845 N3832 0.985 . S
C3846 C3847 1.363 . S
C3846 C3852 1.379 . S
C3846 N3854 1.356 . S
C3847 C3846 1.363 . S
C3847 C3853 1.363 . S
C3848 C3849 1.363 . S
C3848 C3853 1.379 . S
C3848 N3855 1.356 . S
C3849 C3848 1.363 . S
C3849 C3852 1.363 . S
N3850 C3852 1.356 . S
N3850 H3862 0.984 . S
N3850 H3863 0.985 . S
N3851 C3853 1.356 . S
N3851 H3856 0.984 . S
N3851 H3857 0.985 . S
C3852 C3846 1.379 . S
C3852 C3849 1.363 . S
C3852 N3850 1.356 . S
C3853 C3847 1.363 . S
C3853 C3848 1.379 . S
C3853 N3851 1.356 . S
N3854 C3846 1.356 . S
N3854 H3860 0.984 . S
N3854 H3861 0.984 . S
N3855 C3848 1.356 . S
N3855 H3858 0.984 . S
N3855 H3859 0.985 . S
H3856 N3851 0.984 . S
H3857 N3851 0.985 . S
H3858 N3855 0.984 . S
H3859 N3855 0.985 . S
H3860 N3854 0.984 . S
H3861 N3854 0.984 . S
H3862 N3850 0.984 . S
H3863 N3850 0.985 . S
C3864 C3865 1.363 . S
C3864 C3870 1.379 . S
C3864 N3872 1.356 . S
C3865 C3864 1.363 . S
C3865 C3871 1.363 . S
C3866 C3867 1.363 . S
C3866 C3871 1.379 . S
C3866 N3873 1.356 . S
C3867 C3866 1.363 . S
C3867 C3870 1.363 . S
N3868 C3870 1.356 . S
N3868 H3880 0.984 . S
N3868 H3881 0.985 . S
N3869 C3871 1.356 . S
N3869 H3874 0.984 . S
N3869 H3875 0.985 . S
C3870 C3864 1.379 . S
C3870 C3867 1.363 . S
C3870 N3868 1.356 . S
C3871 C3865 1.363 . S
C3871 C3866 1.379 . S
C3871 N3869 1.356 . S
N3872 C3864 1.356 . S
N3872 H3878 0.984 . S
N3872 H3879 0.984 . S
N3873 C3866 1.356 . S
N3873 H3876 0.984 . S
N3873 H3877 0.985 . S
H3874 N3869 0.984 . S
H3875 N3869 0.985 . S
H3876 N3873 0.984 . S
H3877 N3873 0.985 . S
H3878 N3872 0.984 . S
H3879 N3872 0.984 . S
H3880 N3868 0.984 . S
H3881 N3868 0.985 . S
C3882 C3883 1.363 . S
C3882 C3888 1.379 . S
C3882 N3890 1.356 . S
C3883 C3882 1.363 . S
C3883 C3889 1.363 . S
C3884 C3885 1.363 . S
C3884 C3889 1.379 . S
C3884 N3891 1.356 . S
C3885 C3884 1.363 . S
C3885 C3888 1.363 . S
N3886 C3888 1.356 . S
N3886 H3898 0.984 . S
N3886 H3899 0.985 . S
N3887 C3889 1.356 . S
N3887 H3892 0.984 . S
N3887 H3893 0.985 . S
C3888 C3882 1.379 . S
C3888 C3885 1.363 . S
C3888 N3886 1.356 . S
C3889 C3883 1.363 . S
C3889 C3884 1.379 . S
C3889 N3887 1.356 . S
N3890 C3882 1.356 . S
N3890 H3896 0.984 . S
N3890 H3897 0.984 . S
N3891 C3884 1.356 . S
N3891 H3894 0.984 . S
N3891 H3895 0.985 . S
H3892 N3887 0.984 . S
H3893 N3887 0.985 . S
H3894 N3891 0.984 . S
H3895 N3891 0.985 . S
H3896 N3890 0.984 . S
H3897 N3890 0.984 . S
H3898 N3886 0.984 . S
H3899 N3886 0.985 . S
C3900 C3901 1.363 . S
C3900 C3906 1.379 . S
C3900 N3908 1.356 . S
C3901 C3900 1.363 . S
C3901 C3907 1.363 . S
C3902 C3903 1.363 . S
C3902 C3907 1.379 . S
C3902 N3909 1.356 . S
C3903 C3902 1.363 . S
C3903 C3906 1.363 . S
N3904 C3906 1.356 . S
N3904 H3916 0.984 . S
N3904 H3917 0.985 . S
N3905 C3907 1.356 . S
N3905 H3910 0.984 . S
N3905 H3911 0.985 . S
C3906 C3900 1.379 . S
C3906 C3903 1.363 . S
C3906 N3904 1.356 . S
C3907 C3901 1.363 . S
C3907 C3902 1.379 . S
C3907 N3905 1.356 . S
N3908 C3900 1.356 . S
N3908 H3914 0.984 . S
N3908 H3915 0.984 . S
N3909 C3902 1.356 . S
N3909 H3912 0.984 . S
N3909 H3913 0.985 . S
H3910 N3905 0.984 . S
H3911 N3905 0.985 . S
H3912 N3909 0.984 . S
H3913 N3909 0.985 . S
H3914 N3908 0.984 . S
H3915 N3908 0.984 . S
H3916 N3904 0.984 . S
H3917 N3904 0.985 . S
C3918 C3919 1.363 . S
C3918 C3924 1.379 . S
C3918 N3926 1.356 . S
C3919 C3918 1.363 . S
C3919 C3925 1.363 . S
C3920 C3921 1.363 . S
C3920 C3925 1.379 . S
C3920 N3927 1.356 . S
C3921 C3920 1.363 . S
C3921 C3924 1.363 . S
N3922 C3924 1.356 . S
N3922 H3934 0.984 . S
N3922 H3935 0.985 . S
N3923 C3925 1.356 . S
N3923 H3928 0.984 . S
N3923 H3929 0.985 . S
C3924 C3918 1.379 . S
C3924 C3921 1.363 . S
C3924 N3922 1.356 . S
C3925 C3919 1.363 . S
C3925 C3920 1.379 . S
C3925 N3923 1.356 . S
N3926 C3918 1.356 . S
N3926 H3932 0.984 . S
N3926 H3933 0.984 . S
N3927 C3920 1.356 . S
N3927 H3930 0.984 . S
N3927 H3931 0.985 . S
H3928 N3923 0.984 . S
H3929 N3923 0.985 . S
H3930 N3927 0.984 . S
H3931 N3927 0.985 . S
H3932 N3926 0.984 . S
H3933 N3926 0.984 . S
H3934 N3922 0.984 . S
H3935 N3922 0.985 . S
C3936 C3937 1.363 . S
C3936 C3942 1.379 . S
C3936 N3944 1.356 . S
C3937 C3936 1.363 . S
C3937 C3943 1.363 . S
C3938 C3939 1.363 . S
C3938 C3943 1.379 . S
C3938 N3945 1.356 . S
C3939 C3938 1.363 . S
C3939 C3942 1.363 . S
N3940 C3942 1.356 . S
N3940 H3952 0.984 . S
N3940 H3953 0.985 . S
N3941 C3943 1.356 . S
N3941 H3946 0.984 . S
N3941 H3947 0.985 . S
C3942 C3936 1.379 . S
C3942 C3939 1.363 . S
C3942 N3940 1.356 . S
C3943 C3937 1.363 . S
C3943 C3938 1.379 . S
C3943 N3941 1.356 . S
N3944 C3936 1.356 . S
N3944 H3950 0.984 . S
N3944 H3951 0.984 . S
N3945 C3938 1.356 . S
N3945 H3948 0.984 . S
N3945 H3949 0.985 . S
H3946 N3941 0.984 . S
H3947 N3941 0.985 . S
H3948 N3945 0.984 . S
H3949 N3945 0.985 . S
H3950 N3944 0.984 . S
H3951 N3944 0.984 . S
H3952 N3940 0.984 . S
H3953 N3940 0.985 . S
C3954 C3955 1.363 . S
C3954 C3960 1.379 . S
C3954 N3962 1.356 . S
C3955 C3954 1.363 . S
C3955 C3961 1.363 . S
C3956 C3957 1.363 . S
C3956 C3961 1.379 . S
C3956 N3963 1.356 . S
C3957 C3956 1.363 . S
C3957 C3960 1.363 . S
N3958 C3960 1.356 . S
N3958 H3970 0.984 . S
N3958 H3971 0.985 . S
N3959 C3961 1.356 . S
N3959 H3964 0.984 . S
N3959 H3965 0.985 . S
C3960 C3954 1.379 . S
C3960 C3957 1.363 . S
C3960 N3958 1.356 . S
C3961 C3955 1.363 . S
C3961 C3956 1.379 . S
C3961 N3959 1.356 . S
N3962 C3954 1.356 . S
N3962 H3968 0.984 . S
N3962 H3969 0.984 . S
N3963 C3956 1.356 . S
N3963 H3966 0.984 . S
N3963 H3967 0.985 . S
H3964 N3959 0.984 . S
H3965 N3959 0.985 . S
H3966 N3963 0.984 . S
H3967 N3963 0.985 . S
H3968 N3962 0.984 . S
H3969 N3962 0.984 . S
H3970 N3958 0.984 . S
H3971 N3958 0.985 . S
C3972 C3973 1.363 . S
C3972 C3978 1.379 . S
C3972 N3980 1.356 . S
C3973 C3972 1.363 . S
C3973 C3979 1.363 . S
C3974 C3975 1.363 . S
C3974 C3979 1.379 . S
C3974 N3981 1.356 . S
C3975 C3974 1.363 . S
C3975 C3978 1.363 . S
N3976 C3978 1.356 . S
N3976 H3988 0.984 . S
N3976 H3989 0.985 . S
N3977 C3979 1.356 . S
N3977 H3982 0.984 . S
N3977 H3983 0.985 . S
C3978 C3972 1.379 . S
C3978 C3975 1.363 . S
C3978 N3976 1.356 . S
C3979 C3973 1.363 . S
C3979 C3974 1.379 . S
C3979 N3977 1.356 . S
N3980 C3972 1.356 . S
N3980 H3986 0.984 . S
N3980 H3987 0.984 . S
N3981 C3974 1.356 . S
N3981 H3984 0.984 . S
N3981 H3985 0.985 . S
H3982 N3977 0.984 . S
H3983 N3977 0.985 . S
H3984 N3981 0.984 . S
H3985 N3981 0.985 . S
H3986 N3980 0.984 . S
H3987 N3980 0.984 . S
H3988 N3976 0.984 . S
H3989 N3976 0.985 . S
C3990 C3991 1.363 . S
C3990 C3996 1.379 . S
C3990 N3998 1.356 . S
C3991 C3990 1.363 . S
C3991 C3997 1.363 . S
C3992 C3993 1.363 . S
C3992 C3997 1.379 . S
C3992 N3999 1.356 . S
C3993 C3992 1.363 . S
C3993 C3996 1.363 . S
N3994 C3996 1.356 . S
N3994 H4006 0.984 . S
N3994 H4007 0.985 . S
N3995 C3997 1.356 . S
N3995 H4000 0.984 . S
N3995 H4001 0.985 . S
C3996 C3990 1.379 . S
C3996 C3993 1.363 . S
C3996 N3994 1.356 . S
C3997 C3991 1.363 . S
C3997 C3992 1.379 . S
C3997 N3995 1.356 . S
N3998 C3990 1.356 . S
N3998 H4004 0.984 . S
N3998 H4005 0.984 . S
N3999 C3992 1.356 . S
N3999 H4002 0.984 . S
N3999 H4003 0.985 . S
H4000 N3995 0.984 . S
H4001 N3995 0.985 . S
H4002 N3999 0.984 . S
H4003 N3999 0.985 . S
H4004 N3998 0.984 . S
H4005 N3998 0.984 . S
H4006 N3994 0.984 . S
H4007 N3994 0.985 . S
C4008 C4009 1.363 . S
C4008 C4014 1.379 . S
C4008 N4016 1.356 . S
C4009 C4008 1.363 . S
C4009 C4015 1.363 . S
C4010 C4011 1.363 . S
C4010 C4015 1.379 . S
C4010 N4017 1.356 . S
C4011 C4010 1.363 . S
C4011 C4014 1.363 . S
N4012 C4014 1.356 . S
N4012 H4024 0.984 . S
N4012 H4025 0.985 . S
N4013 C4015 1.356 . S
N4013 H4018 0.984 . S
N4013 H4019 0.985 . S
C4014 C4008 1.379 . S
C4014 C4011 1.363 . S
C4014 N4012 1.356 . S
C4015 C4009 1.363 . S
C4015 C4010 1.379 . S
C4015 N4013 1.356 . S
N4016 C4008 1.356 . S
N4016 H4022 0.984 . S
N4016 H4023 0.984 . S
N4017 C4010 1.356 . S
N4017 H4020 0.984 . S
N4017 H4021 0.985 . S
H4018 N4013 0.984 . S
H4019 N4013 0.985 . S
H4020 N4017 0.984 . S
H4021 N4017 0.985 . S
H4022 N4016 0.984 . S
H4023 N4016 0.984 . S
H4024 N4012 0.984 . S
H4025 N4012 0.985 . S
C4026 C4027 1.363 . S
C4026 C4032 1.379 . S
C4026 N4034 1.356 . S
C4027 C4026 1.363 . S
C4027 C4033 1.363 . S
C4028 C4029 1.363 . S
C4028 C4033 1.379 . S
C4028 N4035 1.356 . S
C4029 C4028 1.363 . S
C4029 C4032 1.363 . S
N4030 C4032 1.356 . S
N4030 H4042 0.984 . S
N4030 H4043 0.985 . S
N4031 C4033 1.356 . S
N4031 H4036 0.984 . S
N4031 H4037 0.985 . S
C4032 C4026 1.379 . S
C4032 C4029 1.363 . S
C4032 N4030 1.356 . S
C4033 C4027 1.363 . S
C4033 C4028 1.379 . S
C4033 N4031 1.356 . S
N4034 C4026 1.356 . S
N4034 H4040 0.984 . S
N4034 H4041 0.984 . S
N4035 C4028 1.356 . S
N4035 H4038 0.984 . S
N4035 H4039 0.985 . S
H4036 N4031 0.984 . S
H4037 N4031 0.985 . S
H4038 N4035 0.984 . S
H4039 N4035 0.985 . S
H4040 N4034 0.984 . S
H4041 N4034 0.984 . S
H4042 N4030 0.984 . S
H4043 N4030 0.985 . S
C4044 C4045 1.363 . S
C4044 C4050 1.379 . S
C4044 N4052 1.356 . S
C4045 C4044 1.363 . S
C4045 C4051 1.363 . S
C4046 C4047 1.363 . S
C4046 C4051 1.379 . S
C4046 N4053 1.356 . S
C4047 C4046 1.363 . S
C4047 C4050 1.363 . S
N4048 C4050 1.356 . S
N4048 H4060 0.984 . S
N4048 H4061 0.985 . S
N4049 C4051 1.356 . S
N4049 H4054 0.984 . S
N4049 H4055 0.985 . S
C4050 C4044 1.379 . S
C4050 C4047 1.363 . S
C4050 N4048 1.356 . S
C4051 C4045 1.363 . S
C4051 C4046 1.379 . S
C4051 N4049 1.356 . S
N4052 C4044 1.356 . S
N4052 H4058 0.984 . S
N4052 H4059 0.984 . S
N4053 C4046 1.356 . S
N4053 H4056 0.984 . S
N4053 H4057 0.985 . S
H4054 N4049 0.984 . S
H4055 N4049 0.985 . S
H4056 N4053 0.984 . S
H4057 N4053 0.985 . S
H4058 N4052 0.984 . S
H4059 N4052 0.984 . S
H4060 N4048 0.984 . S
H4061 N4048 0.985 . S
C4062 C4063 1.363 . S
C4062 C4068 1.379 . S
C4062 N4070 1.356 . S
C4063 C4062 1.363 . S
C4063 C4069 1.363 . S
C4064 C4065 1.363 . S
C4064 C4069 1.379 . S
C4064 N4071 1.356 . S
C4065 C4064 1.363 . S
C4065 C4068 1.363 . S
N4066 C4068 1.356 . S
N4066 H4078 0.984 . S
N4066 H4079 0.985 . S
N4067 C4069 1.356 . S
N4067 H4072 0.984 . S
N4067 H4073 0.985 . S
C4068 C4062 1.379 . S
C4068 C4065 1.363 . S
C4068 N4066 1.356 . S
C4069 C4063 1.363 . S
C4069 C4064 1.379 . S
C4069 N4067 1.356 . S
N4070 C4062 1.356 . S
N4070 H4076 0.984 . S
N4070 H4077 0.984 . S
N4071 C4064 1.356 . S
N4071 H4074 0.984 . S
N4071 H4075 0.985 . S
H4072 N4067 0.984 . S
H4073 N4067 0.985 . S
H4074 N4071 0.984 . S
H4075 N4071 0.985 . S
H4076 N4070 0.984 . S
H4077 N4070 0.984 . S
H4078 N4066 0.984 . S
H4079 N4066 0.985 . S
C4080 C4081 1.363 . S
C4080 C4086 1.379 . S
C4080 N4088 1.356 . S
C4081 C4080 1.363 . S
C4081 C4087 1.363 . S
C4082 C4083 1.363 . S
C4082 C4087 1.379 . S
C4082 N4089 1.356 . S
C4083 C4082 1.363 . S
C4083 C4086 1.363 . S
N4084 C4086 1.356 . S
N4084 H4096 0.984 . S
N4084 H4097 0.985 . S
N4085 C4087 1.356 . S
N4085 H4090 0.984 . S
N4085 H4091 0.985 . S
C4086 C4080 1.379 . S
C4086 C4083 1.363 . S
C4086 N4084 1.356 . S
C4087 C4081 1.363 . S
C4087 C4082 1.379 . S
C4087 N4085 1.356 . S
N4088 C4080 1.356 . S
N4088 H4094 0.984 . S
N4088 H4095 0.984 . S
N4089 C4082 1.356 . S
N4089 H4092 0.984 . S
N4089 H4093 0.985 . S
H4090 N4085 0.984 . S
H4091 N4085 0.985 . S
H4092 N4089 0.984 . S
H4093 N4089 0.985 . S
H4094 N4088 0.984 . S
H4095 N4088 0.984 . S
H4096 N4084 0.984 . S
H4097 N4084 0.985 . S
C4098 C4099 1.363 . S
C4098 C4104 1.379 . S
C4098 N4106 1.356 . S
C4099 C4098 1.363 . S
C4099 C4105 1.363 . S
C4100 C4101 1.363 . S
C4100 C4105 1.379 . S
C4100 N4107 1.356 . S
C4101 C4100 1.363 . S
C4101 C4104 1.363 . S
N4102 C4104 1.356 . S
N4102 H4114 0.984 . S
N4102 H4115 0.985 . S
N4103 C4105 1.356 . S
N4103 H4108 0.984 . S
N4103 H4109 0.985 . S
C4104 C4098 1.379 . S
C4104 C4101 1.363 . S
C4104 N4102 1.356 . S
C4105 C4099 1.363 . S
C4105 C4100 1.379 . S
C4105 N4103 1.356 . S
N4106 C4098 1.356 . S
N4106 H4112 0.984 . S
N4106 H4113 0.984 . S
N4107 C4100 1.356 . S
N4107 H4110 0.984 . S
N4107 H4111 0.985 . S
H4108 N4103 0.984 . S
H4109 N4103 0.985 . S
H4110 N4107 0.984 . S
H4111 N4107 0.985 . S
H4112 N4106 0.984 . S
H4113 N4106 0.984 . S
H4114 N4102 0.984 . S
H4115 N4102 0.985 . S
C4116 C4117 1.363 . S
C4116 C4122 1.379 . S
C4116 N4124 1.356 . S
C4117 C4116 1.363 . S
C4117 C4123 1.363 . S
C4118 C4119 1.363 . S
C4118 C4123 1.379 . S
C4118 N4125 1.356 . S
C4119 C4118 1.363 . S
C4119 C4122 1.363 . S
N4120 C4122 1.356 . S
N4120 H4132 0.984 . S
N4120 H4133 0.985 . S
N4121 C4123 1.356 . S
N4121 H4126 0.984 . S
N4121 H4127 0.985 . S
C4122 C4116 1.379 . S
C4122 C4119 1.363 . S
C4122 N4120 1.356 . S
C4123 C4117 1.363 . S
C4123 C4118 1.379 . S
C4123 N4121 1.356 . S
N4124 C4116 1.356 . S
N4124 H4130 0.984 . S
N4124 H4131 0.984 . S
N4125 C4118 1.356 . S
N4125 H4128 0.984 . S
N4125 H4129 0.985 . S
H4126 N4121 0.984 . S
H4127 N4121 0.985 . S
H4128 N4125 0.984 . S
H4129 N4125 0.985 . S
H4130 N4124 0.984 . S
H4131 N4124 0.984 . S
H4132 N4120 0.984 . S
H4133 N4120 0.985 . S
C4134 C4135 1.363 . S
C4134 C4140 1.379 . S
C4134 N4142 1.356 . S
C4135 C4134 1.363 . S
C4135 C4141 1.363 . S
C4136 C4137 1.363 . S
C4136 C4141 1.379 . S
C4136 N4143 1.356 . S
C4137 C4136 1.363 . S
C4137 C4140 1.363 . S
N4138 C4140 1.356 . S
N4138 H4150 0.984 . S
N4138 H4151 0.985 . S
N4139 C4141 1.356 . S
N4139 H4144 0.984 . S
N4139 H4145 0.985 . S
C4140 C4134 1.379 . S
C4140 C4137 1.363 . S
C4140 N4138 1.356 . S
C4141 C4135 1.363 . S
C4141 C4136 1.379 . S
C4141 N4139 1.356 . S
N4142 C4134 1.356 . S
N4142 H4148 0.984 . S
N4142 H4149 0.984 . S
N4143 C4136 1.356 . S
N4143 H4146 0.984 . S
N4143 H4147 0.985 . S
H4144 N4139 0.984 . S
H4145 N4139 0.985 . S
H4146 N4143 0.984 . S
H4147 N4143 0.985 . S
H4148 N4142 0.984 . S
H4149 N4142 0.984 . S
H4150 N4138 0.984 . S
H4151 N4138 0.985 . S
C4152 C4153 1.363 . S
C4152 C4158 1.379 . S
C4152 N4160 1.356 . S
C4153 C4152 1.363 . S
C4153 C4159 1.363 . S
C4154 C4155 1.363 . S
C4154 C4159 1.379 . S
C4154 N4161 1.356 . S
C4155 C4154 1.363 . S
C4155 C4158 1.363 . S
N4156 C4158 1.356 . S
N4156 H4168 0.984 . S
N4156 H4169 0.985 . S
N4157 C4159 1.356 . S
N4157 H4162 0.984 . S
N4157 H4163 0.985 . S
C4158 C4152 1.379 . S
C4158 C4155 1.363 . S
C4158 N4156 1.356 . S
C4159 C4153 1.363 . S
C4159 C4154 1.379 . S
C4159 N4157 1.356 . S
N4160 C4152 1.356 . S
N4160 H4166 0.984 . S
N4160 H4167 0.984 . S
N4161 C4154 1.356 . S
N4161 H4164 0.984 . S
N4161 H4165 0.985 . S
H4162 N4157 0.984 . S
H4163 N4157 0.985 . S
H4164 N4161 0.984 . S
H4165 N4161 0.985 . S
H4166 N4160 0.984 . S
H4167 N4160 0.984 . S
H4168 N4156 0.984 . S
H4169 N4156 0.985 . S
C4170 C4171 1.363 . S
C4170 C4176 1.379 . S
C4170 N4178 1.356 . S
C4171 C4170 1.363 . S
C4171 C4177 1.363 . S
C4172 C4173 1.363 . S
C4172 C4177 1.379 . S
C4172 N4179 1.356 . S
C4173 C4172 1.363 . S
C4173 C4176 1.363 . S
N4174 C4176 1.356 . S
N4174 H4186 0.984 . S
N4174 H4187 0.985 . S
N4175 C4177 1.356 . S
N4175 H4180 0.984 . S
N4175 H4181 0.985 . S
C4176 C4170 1.379 . S
C4176 C4173 1.363 . S
C4176 N4174 1.356 . S
C4177 C4171 1.363 . S
C4177 C4172 1.379 . S
C4177 N4175 1.356 . S
N4178 C4170 1.356 . S
N4178 H4184 0.984 . S
N4178 H4185 0.984 . S
N4179 C4172 1.356 . S
N4179 H4182 0.984 . S
N4179 H4183 0.985 . S
H4180 N4175 0.984 . S
H4181 N4175 0.985 . S
H4182 N4179 0.984 . S
H4183 N4179 0.985 . S
H4184 N4178 0.984 . S
H4185 N4178 0.984 . S
H4186 N4174 0.984 . S
H4187 N4174 0.985 . S
C4188 C4189 1.363 . S
C4188 C4194 1.379 . S
C4188 N4196 1.356 . S
C4189 C4188 1.363 . S
C4189 C4195 1.363 . S
C4190 C4191 1.363 . S
C4190 C4195 1.379 . S
C4190 N4197 1.356 . S
C4191 C4190 1.363 . S
C4191 C4194 1.363 . S
N4192 C4194 1.356 . S
N4192 H4204 0.984 . S
N4192 H4205 0.985 . S
N4193 C4195 1.356 . S
N4193 H4198 0.984 . S
N4193 H4199 0.985 . S
C4194 C4188 1.379 . S
C4194 C4191 1.363 . S
C4194 N4192 1.356 . S
C4195 C4189 1.363 . S
C4195 C4190 1.379 . S
C4195 N4193 1.356 . S
N4196 C4188 1.356 . S
N4196 H4202 0.984 . S
N4196 H4203 0.984 . S
N4197 C4190 1.356 . S
N4197 H4200 0.984 . S
N4197 H4201 0.985 . S
H4198 N4193 0.984 . S
H4199 N4193 0.985 . S
H4200 N4197 0.984 . S
H4201 N4197 0.985 . S
H4202 N4196 0.984 . S
H4203 N4196 0.984 . S
H4204 N4192 0.984 . S
H4205 N4192 0.985 . S
C4206 C4207 1.363 . S
C4206 C4212 1.379 . S
C4206 N4214 1.356 . S
C4207 C4206 1.363 . S
C4207 C4213 1.363 . S
C4208 C4209 1.363 . S
C4208 C4213 1.379 . S
C4208 N4215 1.356 . S
C4209 C4208 1.363 . S
C4209 C4212 1.363 . S
N4210 C4212 1.356 . S
N4210 H4222 0.984 . S
N4210 H4223 0.985 . S
N4211 C4213 1.356 . S
N4211 H4216 0.984 . S
N4211 H4217 0.985 . S
C4212 C4206 1.379 . S
C4212 C4209 1.363 . S
C4212 N4210 1.356 . S
C4213 C4207 1.363 . S
C4213 C4208 1.379 . S
C4213 N4211 1.356 . S
N4214 C4206 1.356 . S
N4214 H4220 0.984 . S
N4214 H4221 0.984 . S
N4215 C4208 1.356 . S
N4215 H4218 0.984 . S
N4215 H4219 0.985 . S
H4216 N4211 0.984 . S
H4217 N4211 0.985 . S
H4218 N4215 0.984 . S
H4219 N4215 0.985 . S
H4220 N4214 0.984 . S
H4221 N4214 0.984 . S
H4222 N4210 0.984 . S
H4223 N4210 0.985 . S
C4224 C4225 1.363 . S
C4224 C4230 1.379 . S
C4224 N4232 1.356 . S
C4225 C4224 1.363 . S
C4225 C4231 1.363 . S
C4226 C4227 1.363 . S
C4226 C4231 1.379 . S
C4226 N4233 1.356 . S
C4227 C4226 1.363 . S
C4227 C4230 1.363 . S
N4228 C4230 1.356 . S
N4228 H4240 0.984 . S
N4228 H4241 0.985 . S
N4229 C4231 1.356 . S
N4229 H4234 0.984 . S
N4229 H4235 0.985 . S
C4230 C4224 1.379 . S
C4230 C4227 1.363 . S
C4230 N4228 1.356 . S
C4231 C4225 1.363 . S
C4231 C4226 1.379 . S
C4231 N4229 1.356 . S
N4232 C4224 1.356 . S
N4232 H4238 0.984 . S
N4232 H4239 0.984 . S
N4233 C4226 1.356 . S
N4233 H4236 0.984 . S
N4233 H4237 0.985 . S
H4234 N4229 0.984 . S
H4235 N4229 0.985 . S
H4236 N4233 0.984 . S
H4237 N4233 0.985 . S
H4238 N4232 0.984 . S
H4239 N4232 0.984 . S
H4240 N4228 0.984 . S
H4241 N4228 0.985 . S
C4242 C4243 1.363 . S
C4242 C4248 1.379 . S
C4242 N4250 1.356 . S
C4243 C4242 1.363 . S
C4243 C4249 1.363 . S
C4244 C4245 1.363 . S
C4244 C4249 1.379 . S
C4244 N4251 1.356 . S
C4245 C4244 1.363 . S
C4245 C4248 1.363 . S
N4246 C4248 1.356 . S
N4246 H4258 0.984 . S
N4246 H4259 0.985 . S
N4247 C4249 1.356 . S
N4247 H4252 0.984 . S
N4247 H4253 0.985 . S
C4248 C4242 1.379 . S
C4248 C4245 1.363 . S
C4248 N4246 1.356 . S
C4249 C4243 1.363 . S
C4249 C4244 1.379 . S
C4249 N4247 1.356 . S
N4250 C4242 1.356 . S
N4250 H4256 0.984 . S
N4250 H4257 0.984 . S
N4251 C4244 1.356 . S
N4251 H4254 0.984 . S
N4251 H4255 0.985 . S
H4252 N4247 0.984 . S
H4253 N4247 0.985 . S
H4254 N4251 0.984 . S
H4255 N4251 0.985 . S
H4256 N4250 0.984 . S
H4257 N4250 0.984 . S
H4258 N4246 0.984 . S
H4259 N4246 0.985 . S
C4260 C4261 1.363 . S
C4260 C4266 1.379 . S
C4260 N4268 1.356 . S
C4261 C4260 1.363 . S
C4261 C4267 1.363 . S
C4262 C4263 1.363 . S
C4262 C4267 1.379 . S
C4262 N4269 1.356 . S
C4263 C4262 1.363 . S
C4263 C4266 1.363 . S
N4264 C4266 1.356 . S
N4264 H4276 0.984 . S
N4264 H4277 0.985 . S
N4265 C4267 1.356 . S
N4265 H4270 0.984 . S
N4265 H4271 0.985 . S
C4266 C4260 1.379 . S
C4266 C4263 1.363 . S
C4266 N4264 1.356 . S
C4267 C4261 1.363 . S
C4267 C4262 1.379 . S
C4267 N4265 1.356 . S
N4268 C4260 1.356 . S
N4268 H4274 0.984 . S
N4268 H4275 0.984 . S
N4269 C4262 1.356 . S
N4269 H4272 0.984 . S
N4269 H4273 0.985 . S
H4270 N4265 0.984 . S
H4271 N4265 0.985 . S
H4272 N4269 0.984 . S
H4273 N4269 0.985 . S
H4274 N4268 0.984 . S
H4275 N4268 0.984 . S
H4276 N4264 0.984 . S
H4277 N4264 0.985 . S
C4278 C4279 1.363 . S
C4278 C4284 1.379 . S
C4278 N4286 1.356 . S
C4279 C4278 1.363 . S
C4279 C4285 1.363 . S
C4280 C4281 1.363 . S
C4280 C4285 1.379 . S
C4280 N4287 1.356 . S
C4281 C4280 1.363 . S
C4281 C4284 1.363 . S
N4282 C4284 1.356 . S
N4282 H4294 0.984 . S
N4282 H4295 0.985 . S
N4283 C4285 1.356 . S
N4283 H4288 0.984 . S
N4283 H4289 0.985 . S
C4284 C4278 1.379 . S
C4284 C4281 1.363 . S
C4284 N4282 1.356 . S
C4285 C4279 1.363 . S
C4285 C4280 1.379 . S
C4285 N4283 1.356 . S
N4286 C4278 1.356 . S
N4286 H4292 0.984 . S
N4286 H4293 0.984 . S
N4287 C4280 1.356 . S
N4287 H4290 0.984 . S
N4287 H4291 0.985 . S
H4288 N4283 0.984 . S
H4289 N4283 0.985 . S
H4290 N4287 0.984 . S
H4291 N4287 0.985 . S
H4292 N4286 0.984 . S
H4293 N4286 0.984 . S
H4294 N4282 0.984 . S
H4295 N4282 0.985 . S
C4296 C4297 1.363 . S
C4296 C4302 1.379 . S
C4296 N4304 1.356 . S
C4297 C4296 1.363 . S
C4297 C4303 1.363 . S
C4298 C4299 1.363 . S
C4298 C4303 1.379 . S
C4298 N4305 1.356 . S
C4299 C4298 1.363 . S
C4299 C4302 1.363 . S
N4300 C4302 1.356 . S
N4300 H4312 0.984 . S
N4300 H4313 0.985 . S
N4301 C4303 1.356 . S
N4301 H4306 0.984 . S
N4301 H4307 0.985 . S
C4302 C4296 1.379 . S
C4302 C4299 1.363 . S
C4302 N4300 1.356 . S
C4303 C4297 1.363 . S
C4303 C4298 1.379 . S
C4303 N4301 1.356 . S
N4304 C4296 1.356 . S
N4304 H4310 0.984 . S
N4304 H4311 0.984 . S
N4305 C4298 1.356 . S
N4305 H4308 0.984 . S
N4305 H4309 0.985 . S
H4306 N4301 0.984 . S
H4307 N4301 0.985 . S
H4308 N4305 0.984 . S
H4309 N4305 0.985 . S
H4310 N4304 0.984 . S
H4311 N4304 0.984 . S
H4312 N4300 0.984 . S
H4313 N4300 0.985 . S
C4314 C4315 1.363 . S
C4314 C4320 1.379 . S
C4314 N4322 1.356 . S
C4315 C4314 1.363 . S
C4315 C4321 1.363 . S
C4316 C4317 1.363 . S
C4316 C4321 1.379 . S
C4316 N4323 1.356 . S
C4317 C4316 1.363 . S
C4317 C4320 1.363 . S
N4318 C4320 1.356 . S
N4318 H4330 0.984 . S
N4318 H4331 0.985 . S
N4319 C4321 1.356 . S
N4319 H4324 0.984 . S
N4319 H4325 0.985 . S
C4320 C4314 1.379 . S
C4320 C4317 1.363 . S
C4320 N4318 1.356 . S
C4321 C4315 1.363 . S
C4321 C4316 1.379 . S
C4321 N4319 1.356 . S
N4322 C4314 1.356 . S
N4322 H4328 0.984 . S
N4322 H4329 0.984 . S
N4323 C4316 1.356 . S
N4323 H4326 0.984 . S
N4323 H4327 0.985 . S
H4324 N4319 0.984 . S
H4325 N4319 0.985 . S
H4326 N4323 0.984 . S
H4327 N4323 0.985 . S
H4328 N4322 0.984 . S
H4329 N4322 0.984 . S
H4330 N4318 0.984 . S
H4331 N4318 0.985 . S
C4332 C4333 1.363 . S
C4332 C4338 1.379 . S
C4332 N4340 1.356 . S
C4333 C4332 1.363 . S
C4333 C4339 1.363 . S
C4334 C4335 1.363 . S
C4334 C4339 1.379 . S
C4334 N4341 1.356 . S
C4335 C4334 1.363 . S
C4335 C4338 1.363 . S
N4336 C4338 1.356 . S
N4336 H4348 0.984 . S
N4336 H4349 0.985 . S
N4337 C4339 1.356 . S
N4337 H4342 0.984 . S
N4337 H4343 0.985 . S
C4338 C4332 1.379 . S
C4338 C4335 1.363 . S
C4338 N4336 1.356 . S
C4339 C4333 1.363 . S
C4339 C4334 1.379 . S
C4339 N4337 1.356 . S
N4340 C4332 1.356 . S
N4340 H4346 0.984 . S
N4340 H4347 0.984 . S
N4341 C4334 1.356 . S
N4341 H4344 0.984 . S
N4341 H4345 0.985 . S
H4342 N4337 0.984 . S
H4343 N4337 0.985 . S
H4344 N4341 0.984 . S
H4345 N4341 0.985 . S
H4346 N4340 0.984 . S
H4347 N4340 0.984 . S
H4348 N4336 0.984 . S
H4349 N4336 0.985 . S
C4350 C4351 1.363 . S
C4350 C4356 1.379 . S
C4350 N4358 1.356 . S
C4351 C4350 1.363 . S
C4351 C4357 1.363 . S
C4352 C4353 1.363 . S
C4352 C4357 1.379 . S
C4352 N4359 1.356 . S
C4353 C4352 1.363 . S
C4353 C4356 1.363 . S
N4354 C4356 1.356 . S
N4354 H4366 0.984 . S
N4354 H4367 0.985 . S
N4355 C4357 1.356 . S
N4355 H4360 0.984 . S
N4355 H4361 0.985 . S
C4356 C4350 1.379 . S
C4356 C4353 1.363 . S
C4356 N4354 1.356 . S
C4357 C4351 1.363 . S
C4357 C4352 1.379 . S
C4357 N4355 1.356 . S
N4358 C4350 1.356 . S
N4358 H4364 0.984 . S
N4358 H4365 0.984 . S
N4359 C4352 1.356 . S
N4359 H4362 0.984 . S
N4359 H4363 0.985 . S
H4360 N4355 0.984 . S
H4361 N4355 0.985 . S
H4362 N4359 0.984 . S
H4363 N4359 0.985 . S
H4364 N4358 0.984 . S
H4365 N4358 0.984 . S
H4366 N4354 0.984 . S
H4367 N4354 0.985 . S
C4368 C4369 1.363 . S
C4368 C4374 1.379 . S
C4368 N4376 1.356 . S
C4369 C4368 1.363 . S
C4369 C4375 1.363 . S
C4370 C4371 1.363 . S
C4370 C4375 1.379 . S
C4370 N4377 1.356 . S
C4371 C4370 1.363 . S
C4371 C4374 1.363 . S
N4372 C4374 1.356 . S
N4372 H4384 0.984 . S
N4372 H4385 0.985 . S
N4373 C4375 1.356 . S
N4373 H4378 0.984 . S
N4373 H4379 0.985 . S
C4374 C4368 1.379 . S
C4374 C4371 1.363 . S
C4374 N4372 1.356 . S
C4375 C4369 1.363 . S
C4375 C4370 1.379 . S
C4375 N4373 1.356 . S
N4376 C4368 1.356 . S
N4376 H4382 0.984 . S
N4376 H4383 0.984 . S
N4377 C4370 1.356 . S
N4377 H4380 0.984 . S
N4377 H4381 0.985 . S
H4378 N4373 0.984 . S
H4379 N4373 0.985 . S
H4380 N4377 0.984 . S
H4381 N4377 0.985 . S
H4382 N4376 0.984 . S
H4383 N4376 0.984 . S
H4384 N4372 0.984 . S
H4385 N4372 0.985 . S
C4386 C4387 1.363 . S
C4386 C4392 1.379 . S
C4386 N4394 1.356 . S
C4387 C4386 1.363 . S
C4387 C4393 1.363 . S
C4388 C4389 1.363 . S
C4388 C4393 1.379 . S
C4388 N4395 1.356 . S
C4389 C4388 1.363 . S
C4389 C4392 1.363 . S
N4390 C4392 1.356 . S
N4390 H4402 0.984 . S
N4390 H4403 0.985 . S
N4391 C4393 1.356 . S
N4391 H4396 0.984 . S
N4391 H4397 0.985 . S
C4392 C4386 1.379 . S
C4392 C4389 1.363 . S
C4392 N4390 1.356 . S
C4393 C4387 1.363 . S
C4393 C4388 1.379 . S
C4393 N4391 1.356 . S
N4394 C4386 1.356 . S
N4394 H4400 0.984 . S
N4394 H4401 0.984 . S
N4395 C4388 1.356 . S
N4395 H4398 0.984 . S
N4395 H4399 0.985 . S
H4396 N4391 0.984 . S
H4397 N4391 0.985 . S
H4398 N4395 0.984 . S
H4399 N4395 0.985 . S
H4400 N4394 0.984 . S
H4401 N4394 0.984 . S
H4402 N4390 0.984 . S
H4403 N4390 0.985 . S
C4404 C4405 1.363 . S
C4404 C4410 1.379 . S
C4404 N4412 1.356 . S
C4405 C4404 1.363 . S
C4405 C4411 1.363 . S
C4406 C4407 1.363 . S
C4406 C4411 1.379 . S
C4406 N4413 1.356 . S
C4407 C4406 1.363 . S
C4407 C4410 1.363 . S
N4408 C4410 1.356 . S
N4408 H4420 0.984 . S
N4408 H4421 0.985 . S
N4409 C4411 1.356 . S
N4409 H4414 0.984 . S
N4409 H4415 0.985 . S
C4410 C4404 1.379 . S
C4410 C4407 1.363 . S
C4410 N4408 1.356 . S
C4411 C4405 1.363 . S
C4411 C4406 1.379 . S
C4411 N4409 1.356 . S
N4412 C4404 1.356 . S
N4412 H4418 0.984 . S
N4412 H4419 0.984 . S
N4413 C4406 1.356 . S
N4413 H4416 0.984 . S
N4413 H4417 0.985 . S
H4414 N4409 0.984 . S
H4415 N4409 0.985 . S
H4416 N4413 0.984 . S
H4417 N4413 0.985 . S
H4418 N4412 0.984 . S
H4419 N4412 0.984 . S
H4420 N4408 0.984 . S
H4421 N4408 0.985 . S
C4422 C4423 1.363 . S
C4422 C4428 1.379 . S
C4422 N4430 1.356 . S
C4423 C4422 1.363 . S
C4423 C4429 1.363 . S
C4424 C4425 1.363 . S
C4424 C4429 1.379 . S
C4424 N4431 1.356 . S
C4425 C4424 1.363 . S
C4425 C4428 1.363 . S
N4426 C4428 1.356 . S
N4426 H4438 0.984 . S
N4426 H4439 0.985 . S
N4427 C4429 1.356 . S
N4427 H4432 0.984 . S
N4427 H4433 0.985 . S
C4428 C4422 1.379 . S
C4428 C4425 1.363 . S
C4428 N4426 1.356 . S
C4429 C4423 1.363 . S
C4429 C4424 1.379 . S
C4429 N4427 1.356 . S
N4430 C4422 1.356 . S
N4430 H4436 0.984 . S
N4430 H4437 0.984 . S
N4431 C4424 1.356 . S
N4431 H4434 0.984 . S
N4431 H4435 0.985 . S
H4432 N4427 0.984 . S
H4433 N4427 0.985 . S
H4434 N4431 0.984 . S
H4435 N4431 0.985 . S
H4436 N4430 0.984 . S
H4437 N4430 0.984 . S
H4438 N4426 0.984 . S
H4439 N4426 0.985 . S
C4440 C4441 1.363 . S
C4440 C4446 1.379 . S
C4440 N4448 1.356 . S
C4441 C4440 1.363 . S
C4441 C4447 1.363 . S
C4442 C4443 1.363 . S
C4442 C4447 1.379 . S
C4442 N4449 1.356 . S
C4443 C4442 1.363 . S
C4443 C4446 1.363 . S
N4444 C4446 1.356 . S
N4444 H4456 0.984 . S
N4444 H4457 0.985 . S
N4445 C4447 1.356 . S
N4445 H4450 0.984 . S
N4445 H4451 0.985 . S
C4446 C4440 1.379 . S
C4446 C4443 1.363 . S
C4446 N4444 1.356 . S
C4447 C4441 1.363 . S
C4447 C4442 1.379 . S
C4447 N4445 1.356 . S
N4448 C4440 1.356 . S
N4448 H4454 0.984 . S
N4448 H4455 0.984 . S
N4449 C4442 1.356 . S
N4449 H4452 0.984 . S
N4449 H4453 0.985 . S
H4450 N4445 0.984 . S
H4451 N4445 0.985 . S
H4452 N4449 0.984 . S
H4453 N4449 0.985 . S
H4454 N4448 0.984 . S
H4455 N4448 0.984 . S
H4456 N4444 0.984 . S
H4457 N4444 0.985 . S
C4458 C4459 1.363 . S
C4458 C4464 1.379 . S
C4458 N4466 1.356 . S
C4459 C4458 1.363 . S
C4459 C4465 1.363 . S
C4460 C4461 1.363 . S
C4460 C4465 1.379 . S
C4460 N4467 1.356 . S
C4461 C4460 1.363 . S
C4461 C4464 1.363 . S
N4462 C4464 1.356 . S
N4462 H4474 0.984 . S
N4462 H4475 0.985 . S
N4463 C4465 1.356 . S
N4463 H4468 0.984 . S
N4463 H4469 0.985 . S
C4464 C4458 1.379 . S
C4464 C4461 1.363 . S
C4464 N4462 1.356 . S
C4465 C4459 1.363 . S
C4465 C4460 1.379 . S
C4465 N4463 1.356 . S
N4466 C4458 1.356 . S
N4466 H4472 0.984 . S
N4466 H4473 0.984 . S
N4467 C4460 1.356 . S
N4467 H4470 0.984 . S
N4467 H4471 0.985 . S
H4468 N4463 0.984 . S
H4469 N4463 0.985 . S
H4470 N4467 0.984 . S
H4471 N4467 0.985 . S
H4472 N4466 0.984 . S
H4473 N4466 0.984 . S
H4474 N4462 0.984 . S
H4475 N4462 0.985 . S
C4476 C4477 1.363 . S
C4476 C4482 1.379 . S
C4476 N4484 1.356 . S
C4477 C4476 1.363 . S
C4477 C4483 1.363 . S
C4478 C4479 1.363 . S
C4478 C4483 1.379 . S
C4478 N4485 1.356 . S
C4479 C4478 1.363 . S
C4479 C4482 1.363 . S
N4480 C4482 1.356 . S
N4480 H4492 0.984 . S
N4480 H4493 0.985 . S
N4481 C4483 1.356 . S
N4481 H4486 0.984 . S
N4481 H4487 0.985 . S
C4482 C4476 1.379 . S
C4482 C4479 1.363 . S
C4482 N4480 1.356 . S
C4483 C4477 1.363 . S
C4483 C4478 1.379 . S
C4483 N4481 1.356 . S
N4484 C4476 1.356 . S
N4484 H4490 0.984 . S
N4484 H4491 0.984 . S
N4485 C4478 1.356 . S
N4485 H4488 0.984 . S
N4485 H4489 0.985 . S
H4486 N4481 0.984 . S
H4487 N4481 0.985 . S
H4488 N4485 0.984 . S
H4489 N4485 0.985 . S
H4490 N4484 0.984 . S
H4491 N4484 0.984 . S
H4492 N4480 0.984 . S
H4493 N4480 0.985 . S
C4494 C4495 1.363 . S
C4494 C4500 1.379 . S
C4494 N4502 1.356 . S
C4495 C4494 1.363 . S
C4495 C4501 1.363 . S
C4496 C4497 1.363 . S
C4496 C4501 1.379 . S
C4496 N4503 1.356 . S
C4497 C4496 1.363 . S
C4497 C4500 1.363 . S
N4498 C4500 1.356 . S
N4498 H4510 0.984 . S
N4498 H4511 0.985 . S
N4499 C4501 1.356 . S
N4499 H4504 0.984 . S
N4499 H4505 0.985 . S
C4500 C4494 1.379 . S
C4500 C4497 1.363 . S
C4500 N4498 1.356 . S
C4501 C4495 1.363 . S
C4501 C4496 1.379 . S
C4501 N4499 1.356 . S
N4502 C4494 1.356 . S
N4502 H4508 0.984 . S
N4502 H4509 0.984 . S
N4503 C4496 1.356 . S
N4503 H4506 0.984 . S
N4503 H4507 0.985 . S
H4504 N4499 0.984 . S
H4505 N4499 0.985 . S
H4506 N4503 0.984 . S
H4507 N4503 0.985 . S
H4508 N4502 0.984 . S
H4509 N4502 0.984 . S
H4510 N4498 0.984 . S
H4511 N4498 0.985 . S
C4512 C4513 1.363 . S
C4512 C4518 1.379 . S
C4512 N4520 1.356 . S
C4513 C4512 1.363 . S
C4513 C4519 1.363 . S
C4514 C4515 1.363 . S
C4514 C4519 1.379 . S
C4514 N4521 1.356 . S
C4515 C4514 1.363 . S
C4515 C4518 1.363 . S
N4516 C4518 1.356 . S
N4516 H4528 0.984 . S
N4516 H4529 0.985 . S
N4517 C4519 1.356 . S
N4517 H4522 0.984 . S
N4517 H4523 0.985 . S
C4518 C4512 1.379 . S
C4518 C4515 1.363 . S
C4518 N4516 1.356 . S
C4519 C4513 1.363 . S
C4519 C4514 1.379 . S
C4519 N4517 1.356 . S
N4520 C4512 1.356 . S
N4520 H4526 0.984 . S
N4520 H4527 0.984 . S
N4521 C4514 1.356 . S
N4521 H4524 0.984 . S
N4521 H4525 0.985 . S
H4522 N4517 0.984 . S
H4523 N4517 0.985 . S
H4524 N4521 0.984 . S
H4525 N4521 0.985 . S
H4526 N4520 0.984 . S
H4527 N4520 0.984 . S
H4528 N4516 0.984 . S
H4529 N4516 0.985 . S
C4530 C4531 1.363 . S
C4530 C4536 1.379 . S
C4530 N4538 1.356 . S
C4531 C4530 1.363 . S
C4531 C4537 1.363 . S
C4532 C4533 1.363 . S
C4532 C4537 1.379 . S
C4532 N4539 1.356 . S
C4533 C4532 1.363 . S
C4533 C4536 1.363 . S
N4534 C4536 1.356 . S
N4534 H4546 0.984 . S
N4534 H4547 0.985 . S
N4535 C4537 1.356 . S
N4535 H4540 0.984 . S
N4535 H4541 0.985 . S
C4536 C4530 1.379 . S
C4536 C4533 1.363 . S
C4536 N4534 1.356 . S
C4537 C4531 1.363 . S
C4537 C4532 1.379 . S
C4537 N4535 1.356 . S
N4538 C4530 1.356 . S
N4538 H4544 0.984 . S
N4538 H4545 0.984 . S
N4539 C4532 1.356 . S
N4539 H4542 0.984 . S
N4539 H4543 0.985 . S
H4540 N4535 0.984 . S
H4541 N4535 0.985 . S
H4542 N4539 0.984 . S
H4543 N4539 0.985 . S
H4544 N4538 0.984 . S
H4545 N4538 0.984 . S
H4546 N4534 0.984 . S
H4547 N4534 0.985 . S
C4548 C4549 1.363 . S
C4548 C4554 1.379 . S
C4548 N4556 1.356 . S
C4549 C4548 1.363 . S
C4549 C4555 1.363 . S
C4550 C4551 1.363 . S
C4550 C4555 1.379 . S
C4550 N4557 1.356 . S
C4551 C4550 1.363 . S
C4551 C4554 1.363 . S
N4552 C4554 1.356 . S
N4552 H4564 0.984 . S
N4552 H4565 0.985 . S
N4553 C4555 1.356 . S
N4553 H4558 0.984 . S
N4553 H4559 0.985 . S
C4554 C4548 1.379 . S
C4554 C4551 1.363 . S
C4554 N4552 1.356 . S
C4555 C4549 1.363 . S
C4555 C4550 1.379 . S
C4555 N4553 1.356 . S
N4556 C4548 1.356 . S
N4556 H4562 0.984 . S
N4556 H4563 0.984 . S
N4557 C4550 1.356 . S
N4557 H4560 0.984 . S
N4557 H4561 0.985 . S
H4558 N4553 0.984 . S
H4559 N4553 0.985 . S
H4560 N4557 0.984 . S
H4561 N4557 0.985 . S
H4562 N4556 0.984 . S
H4563 N4556 0.984 . S
H4564 N4552 0.984 . S
H4565 N4552 0.985 . S
C4566 C4567 1.363 . S
C4566 C4572 1.379 . S
C4566 N4574 1.356 . S
C4567 C4566 1.363 . S
C4567 C4573 1.363 . S
C4568 C4569 1.363 . S
C4568 C4573 1.379 . S
C4568 N4575 1.356 . S
C4569 C4568 1.363 . S
C4569 C4572 1.363 . S
N4570 C4572 1.356 . S
N4570 H4582 0.984 . S
N4570 H4583 0.985 . S
N4571 C4573 1.356 . S
N4571 H4576 0.984 . S
N4571 H4577 0.985 . S
C4572 C4566 1.379 . S
C4572 C4569 1.363 . S
C4572 N4570 1.356 . S
C4573 C4567 1.363 . S
C4573 C4568 1.379 . S
C4573 N4571 1.356 . S
N4574 C4566 1.356 . S
N4574 H4580 0.984 . S
N4574 H4581 0.984 . S
N4575 C4568 1.356 . S
N4575 H4578 0.984 . S
N4575 H4579 0.985 . S
H4576 N4571 0.984 . S
H4577 N4571 0.985 . S
H4578 N4575 0.984 . S
H4579 N4575 0.985 . S
H4580 N4574 0.984 . S
H4581 N4574 0.984 . S
H4582 N4570 0.984 . S
H4583 N4570 0.985 . S
C4584 C4585 1.363 . S
C4584 C4590 1.379 . S
C4584 N4592 1.356 . S
C4585 C4584 1.363 . S
C4585 C4591 1.363 . S
C4586 C4587 1.363 . S
C4586 C4591 1.379 . S
C4586 N4593 1.356 . S
C4587 C4586 1.363 . S
C4587 C4590 1.363 . S
N4588 C4590 1.356 . S
N4588 H4600 0.984 . S
N4588 H4601 0.985 . S
N4589 C4591 1.356 . S
N4589 H4594 0.984 . S
N4589 H4595 0.985 . S
C4590 C4584 1.379 . S
C4590 C4587 1.363 . S
C4590 N4588 1.356 . S
C4591 C4585 1.363 . S
C4591 C4586 1.379 . S
C4591 N4589 1.356 . S
N4592 C4584 1.356 . S
N4592 H4598 0.984 . S
N4592 H4599 0.984 . S
N4593 C4586 1.356 . S
N4593 H4596 0.984 . S
N4593 H4597 0.985 . S
H4594 N4589 0.984 . S
H4595 N4589 0.985 . S
H4596 N4593 0.984 . S
H4597 N4593 0.985 . S
H4598 N4592 0.984 . S
H4599 N4592 0.984 . S
H4600 N4588 0.984 . S
H4601 N4588 0.985 . S
C4602 C4603 1.363 . S
C4602 C4608 1.379 . S
C4602 N4610 1.356 . S
C4603 C4602 1.363 . S
C4603 C4609 1.363 . S
C4604 C4605 1.363 . S
C4604 C4609 1.379 . S
C4604 N4611 1.356 . S
C4605 C4604 1.363 . S
C4605 C4608 1.363 . S
N4606 C4608 1.356 . S
N4606 H4618 0.984 . S
N4606 H4619 0.985 . S
N4607 C4609 1.356 . S
N4607 H4612 0.984 . S
N4607 H4613 0.985 . S
C4608 C4602 1.379 . S
C4608 C4605 1.363 . S
C4608 N4606 1.356 . S
C4609 C4603 1.363 . S
C4609 C4604 1.379 . S
C4609 N4607 1.356 . S
N4610 C4602 1.356 . S
N4610 H4616 0.984 . S
N4610 H4617 0.984 . S
N4611 C4604 1.356 . S
N4611 H4614 0.984 . S
N4611 H4615 0.985 . S
H4612 N4607 0.984 . S
H4613 N4607 0.985 . S
H4614 N4611 0.984 . S
H4615 N4611 0.985 . S
H4616 N4610 0.984 . S
H4617 N4610 0.984 . S
H4618 N4606 0.984 . S
H4619 N4606 0.985 . S
C4620 C4621 1.363 . S
C4620 C4626 1.379 . S
C4620 N4628 1.356 . S
C4621 C4620 1.363 . S
C4621 C4627 1.363 . S
C4622 C4623 1.363 . S
C4622 C4627 1.379 . S
C4622 N4629 1.356 . S
C4623 C4622 1.363 . S
C4623 C4626 1.363 . S
N4624 C4626 1.356 . S
N4624 H4636 0.984 . S
N4624 H4637 0.985 . S
N4625 C4627 1.356 . S
N4625 H4630 0.984 . S
N4625 H4631 0.985 . S
C4626 C4620 1.379 . S
C4626 C4623 1.363 . S
C4626 N4624 1.356 . S
C4627 C4621 1.363 . S
C4627 C4622 1.379 . S
C4627 N4625 1.356 . S
N4628 C4620 1.356 . S
N4628 H4634 0.984 . S
N4628 H4635 0.984 . S
N4629 C4622 1.356 . S
N4629 H4632 0.984 . S
N4629 H4633 0.985 . S
H4630 N4625 0.984 . S
H4631 N4625 0.985 . S
H4632 N4629 0.984 . S
H4633 N4629 0.985 . S
H4634 N4628 0.984 . S
H4635 N4628 0.984 . S
H4636 N4624 0.984 . S
H4637 N4624 0.985 . S
C4638 C4639 1.363 . S
C4638 C4644 1.379 . S
C4638 N4646 1.356 . S
C4639 C4638 1.363 . S
C4639 C4645 1.363 . S
C4640 C4641 1.363 . S
C4640 C4645 1.379 . S
C4640 N4647 1.356 . S
C4641 C4640 1.363 . S
C4641 C4644 1.363 . S
N4642 C4644 1.356 . S
N4642 H4654 0.984 . S
N4642 H4655 0.985 . S
N4643 C4645 1.356 . S
N4643 H4648 0.984 . S
N4643 H4649 0.985 . S
C4644 C4638 1.379 . S
C4644 C4641 1.363 . S
C4644 N4642 1.356 . S
C4645 C4639 1.363 . S
C4645 C4640 1.379 . S
C4645 N4643 1.356 . S
N4646 C4638 1.356 . S
N4646 H4652 0.984 . S
N4646 H4653 0.984 . S
N4647 C4640 1.356 . S
N4647 H4650 0.984 . S
N4647 H4651 0.985 . S
H4648 N4643 0.984 . S
H4649 N4643 0.985 . S
H4650 N4647 0.984 . S
H4651 N4647 0.985 . S
H4652 N4646 0.984 . S
H4653 N4646 0.984 . S
H4654 N4642 0.984 . S
H4655 N4642 0.985 . S
C4656 C4657 1.363 . S
C4656 C4662 1.379 . S
C4656 N4664 1.356 . S
C4657 C4656 1.363 . S
C4657 C4663 1.363 . S
C4658 C4659 1.363 . S
C4658 C4663 1.379 . S
C4658 N4665 1.356 . S
C4659 C4658 1.363 . S
C4659 C4662 1.363 . S
N4660 C4662 1.356 . S
N4660 H4672 0.984 . S
N4660 H4673 0.985 . S
N4661 C4663 1.356 . S
N4661 H4666 0.984 . S
N4661 H4667 0.985 . S
C4662 C4656 1.379 . S
C4662 C4659 1.363 . S
C4662 N4660 1.356 . S
C4663 C4657 1.363 . S
C4663 C4658 1.379 . S
C4663 N4661 1.356 . S
N4664 C4656 1.356 . S
N4664 H4670 0.984 . S
N4664 H4671 0.984 . S
N4665 C4658 1.356 . S
N4665 H4668 0.984 . S
N4665 H4669 0.985 . S
H4666 N4661 0.984 . S
H4667 N4661 0.985 . S
H4668 N4665 0.984 . S
H4669 N4665 0.985 . S
H4670 N4664 0.984 . S
H4671 N4664 0.984 . S
H4672 N4660 0.984 . S
H4673 N4660 0.985 . S
C4674 C4675 1.363 . S
C4674 C4680 1.379 . S
C4674 N4682 1.356 . S
C4675 C4674 1.363 . S
C4675 C4681 1.363 . S
C4676 C4677 1.363 . S
C4676 C4681 1.379 . S
C4676 N4683 1.356 . S
C4677 C4676 1.363 . S
C4677 C4680 1.363 . S
N4678 C4680 1.356 . S
N4678 H4690 0.984 . S
N4678 H4691 0.985 . S
N4679 C4681 1.356 . S
N4679 H4684 0.984 . S
N4679 H4685 0.985 . S
C4680 C4674 1.379 . S
C4680 C4677 1.363 . S
C4680 N4678 1.356 . S
C4681 C4675 1.363 . S
C4681 C4676 1.379 . S
C4681 N4679 1.356 . S
N4682 C4674 1.356 . S
N4682 H4688 0.984 . S
N4682 H4689 0.984 . S
N4683 C4676 1.356 . S
N4683 H4686 0.984 . S
N4683 H4687 0.985 . S
H4684 N4679 0.984 . S
H4685 N4679 0.985 . S
H4686 N4683 0.984 . S
H4687 N4683 0.985 . S
H4688 N4682 0.984 . S
H4689 N4682 0.984 . S
H4690 N4678 0.984 . S
H4691 N4678 0.985 . S
C4692 C4693 1.363 . S
C4692 C4698 1.379 . S
C4692 N4700 1.356 . S
C4693 C4692 1.363 . S
C4693 C4699 1.363 . S
C4694 C4695 1.363 . S
C4694 C4699 1.379 . S
C4694 N4701 1.356 . S
C4695 C4694 1.363 . S
C4695 C4698 1.363 . S
N4696 C4698 1.356 . S
N4696 H4708 0.984 . S
N4696 H4709 0.985 . S
N4697 C4699 1.356 . S
N4697 H4702 0.984 . S
N4697 H4703 0.985 . S
C4698 C4692 1.379 . S
C4698 C4695 1.363 . S
C4698 N4696 1.356 . S
C4699 C4693 1.363 . S
C4699 C4694 1.379 . S
C4699 N4697 1.356 . S
N4700 C4692 1.356 . S
N4700 H4706 0.984 . S
N4700 H4707 0.984 . S
N4701 C4694 1.356 . S
N4701 H4704 0.984 . S
N4701 H4705 0.985 . S
H4702 N4697 0.984 . S
H4703 N4697 0.985 . S
H4704 N4701 0.984 . S
H4705 N4701 0.985 . S
H4706 N4700 0.984 . S
H4707 N4700 0.984 . S
H4708 N4696 0.984 . S
H4709 N4696 0.985 . S
C4710 C4711 1.363 . S
C4710 C4716 1.379 . S
C4710 N4718 1.356 . S
C4711 C4710 1.363 . S
C4711 C4717 1.363 . S
C4712 C4713 1.363 . S
C4712 C4717 1.379 . S
C4712 N4719 1.356 . S
C4713 C4712 1.363 . S
C4713 C4716 1.363 . S
N4714 C4716 1.356 . S
N4714 H4726 0.984 . S
N4714 H4727 0.985 . S
N4715 C4717 1.356 . S
N4715 H4720 0.984 . S
N4715 H4721 0.985 . S
C4716 C4710 1.379 . S
C4716 C4713 1.363 . S
C4716 N4714 1.356 . S
C4717 C4711 1.363 . S
C4717 C4712 1.379 . S
C4717 N4715 1.356 . S
N4718 C4710 1.356 . S
N4718 H4724 0.984 . S
N4718 H4725 0.984 . S
N4719 C4712 1.356 . S
N4719 H4722 0.984 . S
N4719 H4723 0.985 . S
H4720 N4715 0.984 . S
H4721 N4715 0.985 . S
H4722 N4719 0.984 . S
H4723 N4719 0.985 . S
H4724 N4718 0.984 . S
H4725 N4718 0.984 . S
H4726 N4714 0.984 . S
H4727 N4714 0.985 . S
C4728 C4729 1.363 . S
C4728 C4734 1.379 . S
C4728 N4736 1.356 . S
C4729 C4728 1.363 . S
C4729 C4735 1.363 . S
C4730 C4731 1.363 . S
C4730 C4735 1.379 . S
C4730 N4737 1.356 . S
C4731 C4730 1.363 . S
C4731 C4734 1.363 . S
N4732 C4734 1.356 . S
N4732 H4744 0.984 . S
N4732 H4745 0.985 . S
N4733 C4735 1.356 . S
N4733 H4738 0.984 . S
N4733 H4739 0.985 . S
C4734 C4728 1.379 . S
C4734 C4731 1.363 . S
C4734 N4732 1.356 . S
C4735 C4729 1.363 . S
C4735 C4730 1.379 . S
C4735 N4733 1.356 . S
N4736 C4728 1.356 . S
N4736 H4742 0.984 . S
N4736 H4743 0.984 . S
N4737 C4730 1.356 . S
N4737 H4740 0.984 . S
N4737 H4741 0.985 . S
H4738 N4733 0.984 . S
H4739 N4733 0.985 . S
H4740 N4737 0.984 . S
H4741 N4737 0.985 . S
H4742 N4736 0.984 . S
H4743 N4736 0.984 . S
H4744 N4732 0.984 . S
H4745 N4732 0.985 . S
C4746 C4747 1.363 . S
C4746 C4752 1.379 . S
C4746 N4754 1.356 . S
C4747 C4746 1.363 . S
C4747 C4753 1.363 . S
C4748 C4749 1.363 . S
C4748 C4753 1.379 . S
C4748 N4755 1.356 . S
C4749 C4748 1.363 . S
C4749 C4752 1.363 . S
N4750 C4752 1.356 . S
N4750 H4762 0.984 . S
N4750 H4763 0.985 . S
N4751 C4753 1.356 . S
N4751 H4756 0.984 . S
N4751 H4757 0.985 . S
C4752 C4746 1.379 . S
C4752 C4749 1.363 . S
C4752 N4750 1.356 . S
C4753 C4747 1.363 . S
C4753 C4748 1.379 . S
C4753 N4751 1.356 . S
N4754 C4746 1.356 . S
N4754 H4760 0.984 . S
N4754 H4761 0.984 . S
N4755 C4748 1.356 . S
N4755 H4758 0.984 . S
N4755 H4759 0.985 . S
H4756 N4751 0.984 . S
H4757 N4751 0.985 . S
H4758 N4755 0.984 . S
H4759 N4755 0.985 . S
H4760 N4754 0.984 . S
H4761 N4754 0.984 . S
H4762 N4750 0.984 . S
H4763 N4750 0.985 . S
C4764 C4765 1.363 . S
C4764 C4770 1.379 . S
C4764 N4772 1.356 . S
C4765 C4764 1.363 . S
C4765 C4771 1.363 . S
C4766 C4767 1.363 . S
C4766 C4771 1.379 . S
C4766 N4773 1.356 . S
C4767 C4766 1.363 . S
C4767 C4770 1.363 . S
N4768 C4770 1.356 . S
N4768 H4780 0.984 . S
N4768 H4781 0.985 . S
N4769 C4771 1.356 . S
N4769 H4774 0.984 . S
N4769 H4775 0.985 . S
C4770 C4764 1.379 . S
C4770 C4767 1.363 . S
C4770 N4768 1.356 . S
C4771 C4765 1.363 . S
C4771 C4766 1.379 . S
C4771 N4769 1.356 . S
N4772 C4764 1.356 . S
N4772 H4778 0.984 . S
N4772 H4779 0.984 . S
N4773 C4766 1.356 . S
N4773 H4776 0.984 . S
N4773 H4777 0.985 . S
H4774 N4769 0.984 . S
H4775 N4769 0.985 . S
H4776 N4773 0.984 . S
H4777 N4773 0.985 . S
H4778 N4772 0.984 . S
H4779 N4772 0.984 . S
H4780 N4768 0.984 . S
H4781 N4768 0.985 . S
C4782 C4783 1.363 . S
C4782 C4788 1.379 . S
C4782 N4790 1.356 . S
C4783 C4782 1.363 . S
C4783 C4789 1.363 . S
C4784 C4785 1.363 . S
C4784 C4789 1.379 . S
C4784 N4791 1.356 . S
C4785 C4784 1.363 . S
C4785 C4788 1.363 . S
N4786 C4788 1.356 . S
N4786 H4798 0.984 . S
N4786 H4799 0.985 . S
N4787 C4789 1.356 . S
N4787 H4792 0.984 . S
N4787 H4793 0.985 . S
C4788 C4782 1.379 . S
C4788 C4785 1.363 . S
C4788 N4786 1.356 . S
C4789 C4783 1.363 . S
C4789 C4784 1.379 . S
C4789 N4787 1.356 . S
N4790 C4782 1.356 . S
N4790 H4796 0.984 . S
N4790 H4797 0.984 . S
N4791 C4784 1.356 . S
N4791 H4794 0.984 . S
N4791 H4795 0.985 . S
H4792 N4787 0.984 . S
H4793 N4787 0.985 . S
H4794 N4791 0.984 . S
H4795 N4791 0.985 . S
H4796 N4790 0.984 . S
H4797 N4790 0.984 . S
H4798 N4786 0.984 . S
H4799 N4786 0.985 . S
C1345 C9 1.627 . S
C1347 C961 1.627 . S
C1363 C919 1.627 . S
C1365 C23 1.627 . S
C1381 C933 1.627 . S
C1383 C37 1.627 . S
C1399 C51 1.627 . S
C1401 C947 1.627 . S
C1417 C1003 1.627 . S
C1419 C65 1.627 . S
C1435 C975 1.627 . S
C1437 C79 1.627 . S
C1453 C989 1.627 . S
C1455 C93 1.627 . S
C1471 C107 1.627 . S
C1473 C905 1.627 . S
C1489 C121 1.627 . S
C1491 C891 1.627 . S
C1507 C135 1.627 . S
C1509 C849 1.627 . S
C1525 C149 1.627 . S
C1527 C863 1.627 . S
C1543 C163 1.627 . S
C1545 C877 1.627 . S
C1561 C177 1.627 . S
C1563 C807 1.627 . S
C1579 C821 1.627 . S
C1581 C191 1.627 . S
C1597 C835 1.627 . S
C1599 C205 1.627 . S
C1615 C219 1.627 . S
C1617 C793 1.627 . S
C1633 C233 1.627 . S
C1635 C779 1.627 . S
C1651 C247 1.627 . S
C1653 C695 1.627 . S
C1669 C709 1.627 . S
C1671 C261 1.627 . S
C1687 C723 1.627 . S
C1689 C275 1.627 . S
C1705 C681 1.627 . S
C1707 C289 1.627 . S
C1723 C303 1.627 . S
C1725 C751 1.627 . S
C1741 C317 1.627 . S
C1743 C765 1.627 . S
C1759 C331 1.627 . S
C1761 C737 1.627 . S
C1777 C345 1.627 . S
C1779 C1297 1.627 . S
C1795 C359 1.627 . S
C1797 C1255 1.627 . S
C1813 C373 1.627 . S
C1815 C1269 1.627 . S
C1831 C387 1.627 . S
C1833 C1283 1.627 . S
C1849 C401 1.627 . S
C1851 C1339 1.627 . S
C1867 C415 1.627 . S
C1869 C1311 1.627 . S
C1885 C1325 1.627 . S
C1887 C429 1.627 . S
C1903 C443 1.627 . S
C1905 C1241 1.627 . S
C1921 C457 1.627 . S
C1923 C1227 1.627 . S
C1939 C1185 1.627 . S
C1941 C471 1.627 . S
C1957 C485 1.627 . S
C1959 C1199 1.627 . S
C1975 C499 1.627 . S
C1977 C1213 1.627 . S
C1993 C513 1.627 . S
C1995 C1143 1.627 . S
C2011 C527 1.627 . S
C2013 C1157 1.627 . S
C2029 C541 1.627 . S
C2031 C1171 1.627 . S
C2047 C1129 1.627 . S
C2049 C555 1.627 . S
C2065 C569 1.627 . S
C2067 C1115 1.627 . S
C2083 C583 1.627 . S
C2085 C1031 1.627 . S
C2101 C597 1.627 . S
C2103 C1045 1.627 . S
C2119 C1059 1.627 . S
C2121 C611 1.627 . S
C2137 C625 1.627 . S
C2139 C1017 1.627 . S
C2155 C1087 1.627 . S
C2157 C639 1.627 . S
C2173 C653 1.627 . S
C2175 C1101 1.627 . S
C2191 C667 1.627 . S
C2193 C1073 1.627 . S
C2209 C7 1.463 . S
C2211 C553 1.463 . S
C2227 C21 1.463 . S
C2229 C511 1.463 . S
C2245 C525 1.463 . S
C2247 C35 1.463 . S
C2263 C49 1.463 . S
C2265 C539 1.463 . S
C2281 C469 1.463 . S
C2283 C63 1.463 . S
C2299 C483 1.463 . S
C2301 C77 1.463 . S
C2317 C497 1.463 . S
C2319 C91 1.463 . S
C2335 C455 1.463 . S
C2337 C105 1.463 . S
C2353 C441 1.463 . S
C2355 C119 1.463 . S
C2371 C133 1.463 . S
C2373 C399 1.463 . S
C2389 C413 1.463 . S
C2391 C147 1.463 . S
C2407 C161 1.463 . S
C2409 C427 1.463 . S
C2425 C357 1.463 . S
C2427 C175 1.463 . S
C2443 C371 1.463 . S
C2445 C189 1.463 . S
C2461 C203 1.463 . S
C2463 C385 1.463 . S
C2479 C217 1.463 . S
C2481 C343 1.463 . S
C2497 C231 1.463 . S
C2499 C623 1.463 . S
C2515 C245 1.463 . S
C2517 C665 1.463 . S
C2533 C637 1.463 . S
C2535 C259 1.463 . S
C2551 C651 1.463 . S
C2553 C273 1.463 . S
C2569 C287 1.463 . S
C2571 C567 1.463 . S
C2587 C301 1.463 . S
C2589 C595 1.463 . S
C2605 C609 1.463 . S
C2607 C315 1.463 . S
C2623 C329 1.463 . S
C2625 C581 1.463 . S
C2641 C1225 1.463 . S
C2643 C679 1.463 . S
C2659 C1183 1.463 . S
C2661 C693 1.463 . S
C2677 C1197 1.463 . S
C2679 C707 1.463 . S
C2695 C721 1.463 . S
C2697 C1211 1.463 . S
C2713 C1141 1.463 . S
C2715 C735 1.463 . S
C2731 C1155 1.463 . S
C2733 C749 1.463 . S
C2749 C763 1.463 . S
C2751 C1169 1.463 . S
C2767 C777 1.463 . S
C2769 C1127 1.463 . S
C2785 C1113 1.463 . S
C2787 C791 1.463 . S
C2803 C805 1.463 . S
C2805 C1071 1.463 . S
C2821 C1085 1.463 . S
C2823 C819 1.463 . S
C2839 C1099 1.463 . S
C2841 C833 1.463 . S
C2857 C847 1.463 . S
C2859 C1029 1.463 . S
C2875 C861 1.463 . S
C2877 C1043 1.463 . S
C2893 C1057 1.463 . S
C2895 C875 1.463 . S
C2911 C889 1.463 . S
C2913 C1015 1.463 . S
C2929 C1295 1.463 . S
C2931 C903 1.463 . S
C2947 C1337 1.463 . S
C2949 C917 1.463 . S
C2965 C931 1.463 . S
C2967 C1309 1.463 . S
C2983 C1323 1.463 . S
C2985 C945 1.463 . S
C3001 C1239 1.463 . S
C3003 C959 1.463 . S
C3019 C1267 1.463 . S
C3021 C973 1.463 . S
C3037 C987 1.463 . S
C3039 C1281 1.463 . S
C3055 C1253 1.463 . S
C3057 C1001 1.463 . S
C3073 C8 1.357 . S
C3075 C400 1.357 . S
C3091 C414 1.357 . S
C3093 C22 1.357 . S
C3109 C36 1.357 . S
C3111 C428 1.357 . S
C3127 C442 1.357 . S
C3129 C50 1.357 . S
C3145 C64 1.357 . S
C3147 C344 1.357 . S
C3163 C78 1.357 . S
C3165 C358 1.357 . S
C3181 C92 1.357 . S
C3183 C372 1.357 . S
C3199 C386 1.357 . S
C3201 C106 1.357 . S
C3217 C540 1.357 . S
C3219 C120 1.357 . S
C3235 C134 1.357 . S
C3237 C554 1.357 . S
C3253 C148 1.357 . S
C3255 C512 1.357 . S
C3271 C162 1.357 . S
C3273 C526 1.357 . S
C3289 C176 1.357 . S
C3291 C484 1.357 . S
C3307 C190 1.357 . S
C3309 C498 1.357 . S
C3325 C204 1.357 . S
C3327 C456 1.357 . S
C3343 C218 1.357 . S
C3345 C470 1.357 . S
C3361 C232 1.357 . S
C3363 C638 1.357 . S
C3379 C246 1.357 . S
C3381 C610 1.357 . S
C3397 C624 1.357 . S
C3399 C260 1.357 . S
C3415 C274 1.357 . S
C3417 C582 1.357 . S
C3433 C596 1.357 . S
C3435 C288 1.357 . S
C3451 C302 1.357 . S
C3453 C568 1.357 . S
C3469 C316 1.357 . S
C3471 C666 1.357 . S
C3487 C652 1.357 . S
C3489 C330 1.357 . S
C3505 C1072 1.357 . S
C3507 C680 1.357 . S
C3523 C694 1.357 . S
C3525 C1086 1.357 . S
C3541 C1100 1.357 . S
C3543 C708 1.357 . S
C3559 C722 1.357 . S
C3561 C1114 1.357 . S
C3577 C1016 1.357 . S
C3579 C736 1.357 . S
C3595 C1030 1.357 . S
C3597 C750 1.357 . S
C3613 C1044 1.357 . S
C3615 C764 1.357 . S
C3631 C778 1.357 . S
C3633 C1058 1.357 . S
C3649 C792 1.357 . S
C3651 C1212 1.357 . S
C3667 C1226 1.357 . S
C3669 C806 1.357 . S
C3685 C1184 1.357 . S
C3687 C820 1.357 . S
C3703 C1198 1.357 . S
C3705 C834 1.357 . S
C3721 C848 1.357 . S
C3723 C1156 1.357 . S
C3739 C862 1.357 . S
C3741 C1170 1.357 . S
C3757 C1128 1.357 . S
C3759 C876 1.357 . S
C3775 C1142 1.357 . S
C3777 C890 1.357 . S
C3793 C1310 1.357 . S
C3795 C904 1.357 . S
C3811 C918 1.357 . S
C3813 C1282 1.357 . S
C3829 C1296 1.357 . S
C3831 C932 1.357 . S
C3847 C946 1.357 . S
C3849 C1254 1.357 . S
C3865 C960 1.357 . S
C3867 C1268 1.357 . S
C3883 C974 1.357 . S
C3885 C1240 1.357 . S
C3901 C1338 1.357 . S
C3903 C988 1.357 . S
C3919 C1002 1.357 . S
C3921 C1324 1.357 . S
C3937 C437 1.376 . S
C3939 C3 1.376 . S
C3955 C395 1.376 . S
C3957 C17 1.376 . S
C3973 C31 1.376 . S
C3975 C409 1.376 . S
C3991 C423 1.376 . S
C3993 C45 1.376 . S
C4009 C353 1.376 . S
C4011 C59 1.376 . S
C4027 C73 1.376 . S
C4029 C367 1.376 . S
C4045 C87 1.376 . S
C4047 C381 1.376 . S
C4063 C339 1.376 . S
C4065 C101 1.376 . S
C4081 C619 1.376 . S
C4083 C115 1.376 . S
C4099 C129 1.376 . S
C4101 C577 1.376 . S
C4117 C143 1.376 . S
C4119 C591 1.376 . S
C4135 C605 1.376 . S
C4137 C157 1.376 . S
C4153 C171 1.376 . S
C4155 C661 1.376 . S
C4171 C633 1.376 . S
C4173 C185 1.376 . S
C4189 C647 1.376 . S
C4191 C199 1.376 . S
C4207 C213 1.376 . S
C4209 C563 1.376 . S
C4225 C227 1.376 . S
C4227 C549 1.376 . S
C4243 C241 1.376 . S
C4245 C465 1.376 . S
C4261 C255 1.376 . S
C4263 C479 1.376 . S
C4279 C493 1.376 . S
C4281 C269 1.376 . S
C4297 C451 1.376 . S
C4299 C283 1.376 . S
C4315 C297 1.376 . S
C4317 C521 1.376 . S
C4333 C311 1.376 . S
C4335 C535 1.376 . S
C4351 C325 1.376 . S
C4353 C507 1.376 . S
C4369 C675 1.376 . S
C4371 C1109 1.376 . S
C4387 C689 1.376 . S
C4389 C1067 1.376 . S
C4405 C703 1.376 . S
C4407 C1081 1.376 . S
C4423 C1095 1.376 . S
C4425 C717 1.376 . S
C4441 C1025 1.376 . S
C4443 C731 1.376 . S
C4459 C1039 1.376 . S
C4461 C745 1.376 . S
C4477 C759 1.376 . S
C4479 C1053 1.376 . S
C4495 C1011 1.376 . S
C4497 C773 1.376 . S
C4513 C1291 1.376 . S
C4515 C787 1.376 . S
C4531 C1249 1.376 . S
C4533 C801 1.376 . S
C4549 C1263 1.376 . S
C4551 C815 1.376 . S
C4567 C1277 1.376 . S
C4569 C829 1.376 . S
C4585 C1333 1.376 . S
C4587 C843 1.376 . S
C4603 C1305 1.376 . S
C4605 C857 1.376 . S
C4621 C1319 1.376 . S
C4623 C871 1.376 . S
C4639 C1235 1.376 . S
C4641 C885 1.376 . S
C4657 C899 1.376 . S
C4659 C1221 1.376 . S
C4675 C1137 1.376 . S
C4677 C913 1.376 . S
C4693 C1151 1.376 . S
C4695 C927 1.376 . S
C4711 C1165 1.376 . S
C4713 C941 1.376 . S
C4729 C1123 1.376 . S
C4731 C955 1.376 . S
C4747 C1193 1.376 . S
C4749 C969 1.376 . S
C4765 C1207 1.376 . S
C4767 C983 1.376 . S
C4783 C1179 1.376 . S
C4785 C997 1.376 . S
