# Generated by pormake.
# Topology rkf, (6)-cn, num edge types: 1
# Building blocks:
#     Node 0, Type 0, BuildingBlock: CUWYAW_clean_sbu_0, # of connection points: 6
#     Node 1, Type 0, BuildingBlock: CUWYAW_clean_sbu_0, # of connection points: 6
#     Node 2, Type 0, BuildingBlock: CUWYAW_clean_sbu_0, # of connection points: 6
#     Node 3, Type 0, BuildingBlock: CUWYAW_clean_sbu_0, # of connection points: 6
#     Node 4, Type 0, BuildingBlock: CUWYAW_clean_sbu_0, # of connection points: 6
#     Node 5, Type 0, BuildingBlock: CUWYAW_clean_sbu_0, # of connection points: 6
#     Edge 6, Type (0, 0), BuildingBlock: XIVTED_clean_linker_0, # of connection points: 2
#     Edge 7, Type (0, 0), BuildingBlock: XIVTED_clean_linker_0, # of connection points: 2
#     Edge 8, Type (0, 0), BuildingBlock: XIVTED_clean_linker_0, # of connection points: 2
#     Edge 9, Type (0, 0), BuildingBlock: XIVTED_clean_linker_0, # of connection points: 2
#     Edge 10, Type (0, 0), BuildingBlock: XIVTED_clean_linker_0, # of connection points: 2
#     Edge 11, Type (0, 0), BuildingBlock: XIVTED_clean_linker_0, # of connection points: 2
#     Edge 12, Type (0, 0), BuildingBlock: XIVTED_clean_linker_0, # of connection points: 2
#     Edge 13, Type (0, 0), BuildingBlock: XIVTED_clean_linker_0, # of connection points: 2
#     Edge 14, Type (0, 0), BuildingBlock: XIVTED_clean_linker_0, # of connection points: 2
#     Edge 15, Type (0, 0), BuildingBlock: XIVTED_clean_linker_0, # of connection points: 2
#     Edge 16, Type (0, 0), BuildingBlock: XIVTED_clean_linker_0, # of connection points: 2
#     Edge 17, Type (0, 0), BuildingBlock: XIVTED_clean_linker_0, # of connection points: 2
#     Edge 18, Type (0, 0), BuildingBlock: XIVTED_clean_linker_0, # of connection points: 2
#     Edge 19, Type (0, 0), BuildingBlock: XIVTED_clean_linker_0, # of connection points: 2
#     Edge 20, Type (0, 0), BuildingBlock: XIVTED_clean_linker_0, # of connection points: 2
#     Edge 21, Type (0, 0), BuildingBlock: XIVTED_clean_linker_0, # of connection points: 2
#     Edge 22, Type (0, 0), BuildingBlock: XIVTED_clean_linker_0, # of connection points: 2
#     Edge 23, Type (0, 0), BuildingBlock: XIVTED_clean_linker_0, # of connection points: 2
# Relax obj value: 0.745
# Max RMSD: 0.261
# Mean RMSD: 0.261
data_MOF--net-rkf--node1-CUWYAW_clean_sbu_0--edge1-XIVTED_clean_linker_0
_symmetry_space_group_name_H-M    P1
_symmetry_Int_Tables_number       1
_symmetry_cell_setting            triclinic
loop_
_symmetry_equiv_pos_as_xyz
'x, y, z'
_cell_length_a     24.875166
_cell_length_b     24.867619
_cell_length_c     45.195781
_cell_angle_alpha  90.020586
_cell_angle_beta   90.029055
_cell_angle_gamma 119.58058
loop_
_atom_site_label
_atom_site_type_symbol
_atom_site_fract_x
_atom_site_fract_y
_atom_site_fract_z
_atom_type_partial_charge
C0 C 0.32898 0.22577 1.12159 0.0
Eu1 Eu 0.31638 0.11646 1.1303 0.0
C2 C 0.3768 0.28637 1.11123 0.0
C3 C 0.43594 0.29693 1.10378 0.0
C4 C 0.47848 0.35262 1.09046 0.0
C5 C 0.46215 0.39819 1.08426 0.0
C6 C 0.40411 0.38861 1.09371 0.0
C7 C 0.36183 0.3331 1.10706 0.0
C8 C 0.41097 0.0919 1.12398 0.0
C9 C 0.25138 0.00536 1.08323 0.0
C10 C 0.28987 0.88968 0.16537 0.0
Eu11 Eu 0.28838 -0.0088 0.15321 0.0
C12 C 0.29869 0.86446 0.19311 0.0
C13 C 0.33165 0.9046 0.21635 0.0
C14 C 0.32923 0.88145 0.24465 0.0
C15 C 0.29345 0.81761 0.25035 0.0
C16 C 0.26479 0.7771 0.22641 0.0
C17 C 0.2672 0.80047 0.19798 0.0
C18 C 0.19648 0.01799 0.15986 0.0
C19 C 0.31854 0.09728 0.20281 0.0
O20 O 0.30661 0.18172 1.10179 0.0
O21 O 0.33942 0.20755 0.14693 0.0
O22 O 0.39971 0.12479 1.10547 0.0
O23 O 0.37569 0.07849 0.14598 0.0
O24 O 0.25894 0.05994 1.09119 0.0
O25 O 0.26618 0.9734 1.10229 0.0
O26 O 0.33812 0.93973 0.15545 0.0
O27 O 0.23911 0.89313 0.16411 0.0
O28 O 0.20813 -0.01299 0.1796 0.0
O29 O 0.23123 0.02901 0.13798 0.0
O30 O 0.32015 0.04527 0.19748 0.0
O31 O 0.30975 0.12695 0.18058 0.0
H32 H 0.44824 0.26122 1.10717 0.0
H33 H 0.52295 0.35877 1.08372 0.0
H34 H 0.38937 0.42201 1.0889 0.0
H35 H 0.31634 0.32555 1.11285 0.0
H36 H 0.35594 0.95424 0.2131 0.0
H37 H 0.35112 0.91439 0.26244 0.0
H38 H 0.23745 0.7277 0.22996 0.0
H39 H 0.2415 0.76887 0.18021 0.0
C40 C 0.2545 0.41754 0.44065 0.0
Eu41 Eu 0.31096 0.36035 0.46118 0.0
C42 C 0.2002 0.41347 0.42569 0.0
C43 C 0.20794 0.46266 0.4078 0.0
C44 C 0.15687 0.4625 0.39491 0.0
C45 C 0.09678 0.41198 0.39884 0.0
C46 C 0.08948 0.36291 0.41719 0.0
C47 C 0.14051 0.36452 0.43103 0.0
C48 C 0.42946 0.43081 0.48066 0.0
C49 C 0.34994 0.28693 0.41048 0.0
C50 C 0.45333 0.26528 0.50636 0.0
Eu51 Eu 0.37304 0.28869 0.48136 0.0
C52 C 0.48623 0.28693 0.53455 0.0
C53 C 0.48013 0.33155 0.55077 0.0
C54 C 0.50138 0.34488 0.57979 0.0
C55 C 0.53057 0.31476 0.5931 0.0
C56 C 0.54251 0.27494 0.57544 0.0
C57 C 0.51961 0.26041 0.54651 0.0
C58 C 0.2574 0.21776 0.4615 0.0
C59 C 0.29778 0.32737 0.53079 0.0
O60 O 0.24593 0.3936 0.46707 0.0
O61 O 0.29431 0.4095 0.42509 0.0
O62 O 0.38522 0.44218 0.48583 0.0
O63 O 0.40978 0.38382 0.46448 0.0
O64 O 0.31645 0.31405 0.41707 0.0
O65 O 0.38239 0.27819 0.43148 0.0
O66 O 0.468 0.30834 0.48634 0.0
O67 O 0.39344 0.22876 0.50865 0.0
O68 O 0.29874 0.20026 0.45995 0.0
O69 O 0.27665 0.26611 0.47672 0.0
O70 O 0.3439 0.31552 0.52589 0.0
O71 O 0.26986 0.3363 0.50785 0.0
H72 H 0.25357 0.50201 0.40427 0.0
H73 H 0.16498 0.5025 0.38207 0.0
H74 H 0.04464 0.32268 0.42075 0.0
H75 H 0.13329 0.32772 0.44607 0.0
H76 H 0.4559 0.35378 0.54156 0.0
H77 H 0.4904 0.3754 0.59219 0.0
H78 H 0.56665 0.25239 0.58437 0.0
H79 H 0.52579 0.22672 0.53397 0.0
C80 C 0.95534 0.33003 0.78093 0.0
Eu81 Eu 0.06863 0.36643 0.7974 0.0
C82 C 0.9077 0.29276 0.75917 0.0
C83 C 0.84582 0.26215 0.7683 0.0
C84 C 0.79914 0.22359 0.74879 0.0
C85 C 0.81367 0.21532 0.71975 0.0
C86 C 0.87577 0.24714 0.71044 0.0
C87 C 0.9226 0.28543 0.73009 0.0
C88 C 0.14636 0.4858 0.81299 0.0
C89 C 0.16254 0.3704 0.74278 0.0
C90 C 0.31164 0.44596 0.8285 0.0
Eu91 Eu 0.19612 0.39298 0.81229 0.0
C92 C 0.35166 0.47666 0.85388 0.0
C93 C 0.32667 0.47675 0.88161 0.0
C94 C 0.36569 0.50353 0.90587 0.0
C95 C 0.43028 0.53069 0.90274 0.0
C96 C 0.45501 0.53263 0.87455 0.0
C97 C 0.4159 0.50578 0.85031 0.0
C98 C 0.11438 0.27358 0.80022 0.0
C99 C 0.09534 0.35868 0.86774 0.0
O100 O 0.97055 0.29941 0.79942 0.0
O101 O 0.00282 0.38178 0.77199 0.0
O102 O 0.08984 0.45343 0.82179 0.0
O103 O 0.1597 0.45365 0.79603 0.0
O104 O 0.1044 0.35174 0.75145 0.0
O105 O 0.20787 0.39455 0.76241 0.0
O106 O 0.28629 0.4755 0.81607 0.0
O107 O 0.27351 0.38647 0.8309 0.0
O108 O 0.17213 0.29878 0.79245 0.0
O109 O 0.10529 0.31048 0.81516 0.0
O110 O 0.15468 0.38274 0.85984 0.0
O111 O 0.05253 0.34457 0.84701 0.0
H112 H 0.83366 0.26739 0.79072 0.0
H113 H 0.75171 0.19996 0.75646 0.0
H114 H 0.8883 0.24088 0.68828 0.0
H115 H 0.97027 0.30838 0.72277 0.0
H116 H 0.27708 0.4547 0.88463 0.0
H117 H 0.34499 0.50017 0.92736 0.0
H118 H 0.50447 0.55348 0.8714 0.0
H119 H 0.43578 0.50657 0.82887 0.0
C120 C -0.01678 0.0588 1.1348 0.0
Eu121 Eu 0.93369 0.12998 1.13661 0.0
C122 C -0.00098 0.02531 1.11297 0.0
C123 C 0.01492 0.98142 1.12261 0.0
C124 C 0.02145 0.94275 1.10221 0.0
C125 C 0.01159 0.94724 1.07189 0.0
C126 C -0.00053 -0.00592 1.06226 0.0
C127 C -0.00702 0.03267 1.08266 0.0
C128 C 0.81318 0.09423 1.12509 0.0
C129 C 0.94789 0.21939 1.08275 0.0
C130 C 0.83436 0.28569 0.15684 0.0
Eu131 Eu 0.89108 0.22218 0.15097 0.0
C132 C 0.81825 0.30884 0.18366 0.0
C133 C 0.85699 0.37018 0.19259 0.0
C134 C 0.8557 0.38797 0.2217 0.0
C135 C 0.81463 0.34503 0.24245 0.0
C136 C 0.76932 0.28655 0.23208 0.0
C137 C 0.77153 0.26832 0.20303 0.0
C138 C 0.00801 0.25995 0.16693 0.0
C139 C 0.89324 0.13709 0.20571 0.0
O140 O 0.01541 0.11921 1.13408 0.0
O141 O 0.92409 0.03827 0.13841 0.0
O142 O 0.84707 0.08331 1.10682 0.0
O143 O 0.84402 0.12202 0.14739 0.0
O144 O 0.96635 0.18181 1.09356 0.0
O145 O 0.91284 0.23508 1.09942 0.0
O146 O 0.80508 0.22568 0.15266 0.0
O147 O 0.8937 0.31077 0.1516 0.0
O148 O 0.97099 0.27049 0.18304 0.0
O149 O -0.01821 0.23155 0.14348 0.0
O150 O 0.86841 0.1708 0.19611 0.0
O151 O 0.92648 0.12348 0.18736 0.0
H152 H 0.01988 0.9754 0.14601 0.0
H153 H 0.03067 0.90713 1.11034 0.0
H154 H -0.00715 -0.00052 1.03899 0.0
H155 H -0.01908 0.06657 1.07489 0.0
H156 H 0.8925 0.40291 0.1779 0.0
H157 H 0.89135 0.43362 0.22829 0.0
H158 H 0.73508 0.25303 0.24694 0.0
H159 H 0.73962 0.22112 0.19654 0.0
C160 C 0.03553 0.9714 0.46403 0.0
Eu161 Eu 0.91917 0.93399 0.47354 0.0
C162 C 0.06852 0.94592 0.4475 0.0
C163 C 0.12443 0.95328 0.4585 0.0
C164 C 0.15292 0.92346 0.44481 0.0
C165 C 0.12583 0.88581 0.41984 0.0
C166 C 0.07005 0.87935 0.40872 0.0
C167 C 0.04146 0.90877 0.42254 0.0
C168 C 0.83246 0.81308 0.46464 0.0
C169 C 0.85081 0.95635 0.41603 0.0
C170 C 0.66899 0.85107 0.49335 0.0
Eu171 Eu 0.78608 0.90327 0.48053 0.0
C172 C 0.63745 0.85651 0.51983 0.0
C173 C 0.65716 0.85093 0.54822 0.0
C174 C 0.6415 0.87425 0.57278 0.0
C175 C 0.60632 0.90403 0.56937 0.0
C176 C 0.58105 0.90341 0.54146 0.0
C177 C 0.59642 0.87966 0.51687 0.0
C178 C 0.86805 0.0247 0.48725 0.0
C179 C 0.87058 0.90782 0.53976 0.0
O180 O 0.00359 -0.00953 0.4486 0.0
O181 O 0.00534 0.93882 0.48703 0.0
O182 O 0.88455 0.8302 0.47777 0.0
O183 O 0.83014 0.8596 0.45603 0.0
O184 O 0.90363 0.97082 0.42966 0.0
O185 O 0.79699 0.92198 0.42993 0.0
O186 O 0.70164 0.82319 0.49655 0.0
O187 O 0.69814 0.90197 0.47797 0.0
O188 O 0.81272 0.00439 0.477 0.0
O189 O 0.8735 0.97976 0.4962 0.0
O190 O 0.8141 0.88193 0.5275 0.0
O191 O 0.91906 0.94299 0.52322 0.0
H192 H 0.14537 0.98106 0.47807 0.0
H193 H 0.19558 0.92913 0.45406 0.0
H194 H 0.04859 0.85199 0.38913 0.0
H195 H -0.0022 0.90181 0.41394 0.0
H196 H 0.68888 0.83333 0.55125 0.0
H197 H 0.66214 0.8743 0.59389 0.0
H198 H 0.55318 0.92538 0.53826 0.0
H199 H 0.58052 0.88422 0.49518 0.0
C200 C 0.13516 0.05654 0.80588 0.0
Eu201 Eu 0.08215 0.93665 0.81092 0.0
C202 C 0.19077 0.10089 0.79004 0.0
C203 C 0.21805 0.16449 0.79565 0.0
C204 C 0.27537 0.20557 0.78305 0.0
C205 C 0.30619 0.1831 0.76512 0.0
C206 C 0.27761 0.11935 0.75915 0.0
C207 C 0.22056 0.07868 0.77153 0.0
C208 C 0.14724 0.87627 0.80055 0.0
C209 C 0.0046 0.86413 0.75008 0.0
C210 C -0.02506 0.68393 0.82282 0.0
Eu211 Eu 0.00793 0.79847 0.81163 0.0
C212 C -0.01765 0.65926 0.85134 0.0
C213 C 0.03965 0.68907 0.86603 0.0
C214 C 0.04201 0.68876 0.89687 0.0
C215 C -0.01296 0.65918 0.9134 0.0
C216 C 0.93183 0.61886 0.89845 0.0
C217 C 0.92941 0.61933 0.86755 0.0
C218 C 0.94025 0.85511 0.81962 0.0
C219 C 0.07047 0.87885 0.87379 0.0
O220 O 0.0883 0.01831 0.78954 0.0
O221 O 0.14598 0.02848 0.82751 0.0
O222 O 0.16748 0.92524 0.81678 0.0
O223 O 0.09549 0.86313 0.79029 0.0
O224 O 0.03367 0.91649 0.76552 0.0
O225 O -0.00598 0.81077 0.76213 0.0
O226 O 0.02578 0.72094 0.8085 0.0
O227 O 0.9365 0.70555 0.82377 0.0
O228 O 0.92107 0.80488 0.80415 0.0
O229 O -0.00769 0.87067 0.83079 0.0
O230 O 0.05712 0.82787 0.85832 0.0
O231 O 0.06771 0.92425 0.86019 0.0
H232 H 0.19572 0.18214 0.81019 0.0
H233 H 0.29614 0.2545 0.78783 0.0
H234 H 0.29927 0.10075 0.74475 0.0
H235 H 0.20024 0.02958 0.76718 0.0
H236 H 0.08175 0.71901 0.85414 0.0
H237 H 0.08596 0.71824 0.90743 0.0
H238 H 0.88903 0.59264 0.91055 0.0
H239 H 0.88483 0.59462 0.8567 0.0
H240 H 0.11778 0.30694 0.1392 0.0
H241 H 0.16638 0.07757 1.11989 0.0
H242 H 0.02343 0.21392 0.21904 0.0
H243 H 0.17162 0.05212 0.2141 0.0
H244 H 0.14711 0.1621 1.12883 0.0
H245 H 0.18591 0.26305 0.14459 0.0
C246 C 0.11284 0.27874 0.1584 0.0
C247 C 0.06354 0.26114 0.17793 0.0
C248 C 0.15379 0.13929 0.14773 0.0
C249 C 0.13569 0.20604 0.18233 0.0
C250 C 0.16315 0.08987 0.14258 0.0
C251 C 0.17094 0.05841 0.1663 0.0
C252 C 0.15158 0.15738 0.17692 0.0
C253 C 0.1654 0.07537 0.19526 0.0
C254 C 0.15072 0.25275 0.16118 0.0
C255 C 0.05955 0.22589 0.20283 0.0
N256 N 0.15557 0.12395 0.19985 0.0
N257 N 0.09338 0.19663 0.20367 0.0
H258 H -0.02003 0.08663 0.51184 0.0
H259 H 0.20805 0.28372 0.43733 0.0
H260 H 0.87725 0.08153 0.43391 0.0
H261 H 0.18507 0.10036 0.44027 0.0
H262 H 0.10276 0.24033 0.4186 0.0
H263 H 0.07454 0.13458 0.48275 0.0
C264 C -0.02217 0.09792 0.48885 0.0
C265 C 0.92131 0.07849 0.47484 0.0
C266 C 0.12181 0.21019 0.42247 0.0
C267 C 0.02731 0.12929 0.44149 0.0
C268 C 0.18137 0.23454 0.43351 0.0
C269 C 0.20323 0.19476 0.44236 0.0
C270 C 0.08284 0.14662 0.42433 0.0
C271 C 0.16811 0.13203 0.43553 0.0
C272 C 0.03115 0.12356 0.47217 0.0
C273 C 0.92054 0.09479 0.44508 0.0
N274 N 0.10801 0.10914 0.42779 0.0
N275 N 0.97323 0.11788 0.42875 0.0
H276 H 0.90602 0.88225 0.76672 0.0
H277 H 0.00159 0.21682 0.82553 0.0
H278 H 0.93653 0.93495 0.85866 0.0
H279 H 0.11623 0.18516 0.76425 0.0
H280 H 0.92545 0.10711 0.82378 0.0
H281 H 0.92936 -0.01232 0.75394 0.0
C282 C 0.91457 0.91508 0.7843 0.0
C283 C 0.92203 0.90152 0.81362 0.0
C284 C 0.96629 0.12475 0.80997 0.0
C285 C 0.9448 0.01898 0.79947 0.0
C286 C 0.01008 0.18702 0.81111 0.0
C287 C 0.0659 0.20944 0.79555 0.0
C288 C -0.02182 0.08497 0.79294 0.0
C289 C 0.07429 0.16907 0.77706 0.0
C290 C 0.92786 0.97488 0.77696 0.0
C291 C 0.93158 0.94454 0.83574 0.0
N292 N 0.03104 0.10806 0.77661 0.0
N293 N 0.94374 0.00208 0.82816 0.0
H294 H 0.48501 0.51872 1.08537 0.0
H295 H 0.42494 0.59229 0.95213 0.0
H296 H 0.52314 0.39418 1.03472 0.0
H297 H 0.52583 0.50909 0.91444 0.0
H298 H 0.46774 0.59183 1.00032 0.0
H299 H 0.5119 0.58633 1.04228 0.0
C300 C 0.50014 0.50616 1.06536 0.0
C301 C 0.49899 0.44923 1.06326 0.0
C302 C 0.48282 0.57589 0.98151 0.0
C303 C 0.52769 0.52506 1.01362 0.0
C304 C 0.45761 0.57557 0.95389 0.0
C305 C 0.47009 0.54872 0.92945 0.0
C306 C 0.52029 0.54846 0.98467 0.0
C307 C 0.51408 0.5294 0.93275 0.0
C308 C 0.51499 0.54456 1.04063 0.0
C309 C 0.52181 0.43676 1.0373 0.0
N310 N 0.53623 0.52809 0.96002 0.0
N311 N 0.53362 0.47351 1.01327 0.0
H312 H 0.97265 0.3512 0.41501 0.0
H313 H 0.79495 0.26044 0.28651 0.0
H314 H 0.09603 0.46705 0.3459 0.0
H315 H 0.86746 0.4565 0.27295 0.0
H316 H 0.8492 0.28301 0.33334 0.0
H317 H 0.88498 0.33741 0.38487 0.0
C318 C -0.01811 0.37412 0.39378 0.0
C319 C 0.04275 0.40943 0.38297 0.0
C320 C 0.85143 0.32088 0.32052 0.0
C321 C 0.9423 0.39642 0.34945 0.0
C322 C 0.82012 0.30819 0.2936 0.0
C323 C 0.82823 0.35677 0.27476 0.0
C324 C 0.8922 0.38238 0.32831 0.0
C325 C 0.86222 0.4175 0.28579 0.0
C326 C 0.93162 0.36679 0.37689 0.0
C327 C 0.05084 0.43993 0.35571 0.0
N328 N 0.89519 0.42876 0.31123 0.0
N329 N 0.00127 0.43252 0.33995 0.0
H330 H 0.72179 0.09828 0.73256 0.0
H331 H 0.62684 0.0218 0.56329 0.0
H332 H 0.79447 0.23123 0.66154 0.0
H333 H 0.59216 0.88316 0.62941 0.0
H334 H 0.65938 0.0995 0.60216 0.0
H335 H 0.64869 0.02138 0.69786 0.0
C336 C 0.72157 0.11159 0.70977 0.0
C337 C 0.76475 0.17089 0.69975 0.0
C338 C 0.64336 0.05184 0.60824 0.0
C339 C 0.68152 0.08327 0.66006 0.0
C340 C 0.62398 0.00716 0.58608 0.0
C341 C 0.60774 0.94596 0.59307 0.0
C342 C 0.64671 0.03527 0.63756 0.0
C343 C 0.6056 0.93008 0.62302 0.0
C344 C 0.68 0.06765 0.68999 0.0
C345 C 0.76271 0.18563 0.66999 0.0
N346 N 0.62603 0.97472 0.64416 0.0
N347 N 0.72214 0.14191 0.65112 0.0
H348 H 0.926 0.89068 1.02856 0.0
H349 H 0.0753 0.70207 0.9583 0.0
H350 H 0.08527 0.89303 1.06792 0.0
H351 H 0.89489 0.67621 0.93622 0.0
H352 H 0.08041 0.768 0.99981 0.0
H353 H 0.91626 0.81103 0.99451 0.0
C354 C 0.95948 0.8749 1.02983 0.0
C355 C 0.00721 0.89945 1.05081 0.0
C356 C 0.03931 0.74665 0.98614 0.0
C357 C -0.00459 0.80648 1.01207 0.0
C358 C 0.03624 0.70894 0.96242 0.0
C359 C -0.01514 0.68368 0.94326 0.0
C360 C -0.00912 0.75944 0.99054 0.0
C361 C 0.93539 0.6937 0.95019 0.0
C362 C 0.95339 0.82866 1.01059 0.0
C363 C 0.04793 0.87553 1.05198 0.0
N364 N 0.94014 0.73136 0.97287 0.0
N365 N 0.04144 0.83059 1.03268 0.0
H366 H 0.24998 0.93195 0.4103 0.0
H367 H 0.18056 0.73012 0.27164 0.0
H368 H 0.07233 0.77062 0.39418 0.0
H369 H 0.36654 0.85748 0.30037 0.0
H370 H 0.14458 0.72493 0.32191 0.0
H371 H 0.2974 0.89033 0.37714 0.0
C372 C 0.22102 0.88707 0.40035 0.0
C373 C 0.15669 0.85571 0.40435 0.0
C374 C 0.19359 0.75281 0.31749 0.0
C375 C 0.21069 0.80835 0.36569 0.0
C376 C 0.21446 0.75537 0.28864 0.0
C377 C 0.27646 0.7964 0.28142 0.0
C378 C 0.23474 0.79254 0.33904 0.0
C379 C 0.31782 0.8274 0.30468 0.0
C380 C 0.24822 0.86327 0.3813 0.0
C381 C 0.12178 0.79764 0.39082 0.0
N382 N 0.29593 0.8265 0.3323 0.0
N383 N 0.14899 0.77651 0.37157 0.0
H384 H 0.34313 0.29475 0.73806 0.0
H385 H 0.52501 0.22346 0.62977 0.0
H386 H 0.40687 0.16697 0.76055 0.0
H387 H 0.55073 0.4086 0.63269 0.0
H388 H 0.49962 0.21194 0.68164 0.0
H389 H 0.4311 0.34795 0.70459 0.0
C390 C 0.37666 0.27905 0.73666 0.0
C391 C 0.36663 0.22512 0.75127 0.0
C392 C 0.51225 0.25576 0.67116 0.0
C393 C 0.46649 0.28495 0.71278 0.0
C394 C 0.52737 0.26274 0.64124 0.0
C395 C 0.53713 0.31611 0.626 0.0
C396 C 0.50484 0.30146 0.68577 0.0
C397 C 0.53967 0.36498 0.64287 0.0
C398 C 0.42697 0.30947 0.71756 0.0
C399 C 0.41172 0.20703 0.74877 0.0
N400 N 0.52108 0.35561 0.67158 0.0
N401 N 0.45879 0.23582 0.72922 0.0
H402 H 0.45439 0.04538 0.16666 0.0
H403 H 0.74926 0.08934 1.07396 0.0
H404 H 0.4911 0.11714 1.07766 0.0
H405 H 0.7307 0.06856 0.1687 0.0
H406 H 0.6461 0.08109 1.07175 0.0
H407 H 0.54704 0.03503 0.16464 0.0
C408 C 0.48176 0.05856 0.1466 0.0
C409 C 0.46529 0.08255 1.12238 0.0
C410 C 0.66449 0.07754 1.09293 0.0
C411 C 0.57174 0.07091 1.11985 0.0
C412 C 0.72292 0.08166 1.09412 0.0
C413 C 0.74826 0.07954 1.12153 0.0
C414 C 0.63136 0.0704 1.11929 0.0
C415 C 0.71282 0.07052 0.1471 0.0
C416 C 0.53478 0.05278 0.14545 0.0
C417 C 0.50251 0.09886 1.09692 0.0
N418 N 0.65649 0.0664 0.14537 0.0
N419 N 0.55417 0.09296 1.09633 0.0
H420 H 0.53329 0.42755 0.46193 0.0
H421 H 0.71995 0.77773 0.44126 0.0
H422 H 0.47352 0.54533 0.50365 0.0
H423 H 0.82187 0.70677 0.48915 0.0
H424 H 0.62574 0.67855 0.4478 0.0
H425 H 0.63889 0.51707 0.45866 0.0
C426 C 0.5426 0.47174 0.47086 0.0
C427 C 0.49467 0.47947 0.48273 0.0
C428 C 0.66901 0.68467 0.45652 0.0
C429 C 0.61331 0.58056 0.47849 0.0
C430 C 0.72265 0.74096 0.45282 0.0
C431 C 0.77835 0.75059 0.46519 0.0
C432 C 0.67134 0.63719 0.47202 0.0
C433 C 0.77945 0.70108 0.4796 0.0
C434 C 0.60251 0.5224 0.46899 0.0
C435 C 0.50894 0.53754 0.494 0.0
N436 N 0.72627 0.646 0.48277 0.0
N437 N 0.56671 0.58623 0.49101 0.0
H438 H 0.19523 0.56144 0.76485 0.0
H439 H 0.20504 0.85249 0.84614 0.0
H440 H 0.15718 0.5628 0.85776 0.0
H441 H 0.13908 0.79755 0.75698 0.0
H442 H 0.22549 0.76534 0.84935 0.0
H443 H 0.2139 0.66802 0.76092 0.0
C444 C 0.19317 0.58504 0.78461 0.0
C445 C 0.17478 0.55366 0.81169 0.0
C446 C 0.20794 0.77342 0.82888 0.0
C447 C 0.19569 0.67464 0.80735 0.0
C448 C 0.19662 0.82317 0.82698 0.0
C449 C 0.17026 0.83182 0.80127 0.0
C450 C 0.19396 0.73316 0.80467 0.0
C451 C 0.15925 0.79209 0.7772 0.0
C452 C 0.20316 0.64544 0.7823 0.0
C453 C 0.17143 0.58572 0.83653 0.0
N454 N 0.17096 0.74432 0.7795 0.0
N455 N 0.18137 0.64439 0.83376 0.0
H456 H 0.35349 0.06515 0.25636 0.0
H457 H 0.29714 0.30162 0.35874 0.0
H458 H 0.29487 0.18936 0.22175 0.0
H459 H 0.39378 0.20943 0.39063 0.0
H460 H 0.28974 0.25558 0.30964 0.0
H461 H 0.36201 0.11069 0.30598 0.0
C462 C 0.34224 0.10176 0.25899 0.0
C463 C 0.3236 0.12303 0.23416 0.0
C464 C 0.31278 0.24542 0.3273 0.0
C465 C 0.33284 0.17584 0.29189 0.0
C466 C 0.31714 0.272 0.35559 0.0
C467 C 0.34673 0.26049 0.37945 0.0
C468 C 0.33729 0.20565 0.32224 0.0
C469 C 0.371 0.22072 0.37329 0.0
C470 C 0.34728 0.12803 0.28753 0.0
C471 C 0.30977 0.17099 0.2397 0.0
N472 N 0.36555 0.19492 0.34572 0.0
N473 N 0.31439 0.19511 0.26753 0.0
H474 H 0.35365 0.33156 0.58518 0.0
H475 H 0.09212 0.34044 0.69018 0.0
H476 H 0.19352 0.33251 0.54954 0.0
H477 H 0.27155 0.38026 0.72165 0.0
H478 H 0.1233 0.32906 0.63959 0.0
H479 H 0.3201 0.34071 0.63532 0.0
C480 C 0.31127 0.33335 0.58769 0.0
C481 C 0.27687 0.33117 0.56238 0.0
C482 C 0.15592 0.34031 0.65756 0.0
C483 C 0.23711 0.34148 0.62101 0.0
C484 C 0.13795 0.34677 0.6867 0.0
C485 C 0.17893 0.3619 0.71091 0.0
C486 C 0.21534 0.34795 0.65206 0.0
C487 C 0.23785 0.36913 0.70421 0.0
C488 C 0.29204 0.3388 0.6166 0.0
C489 C 0.22222 0.33405 0.56789 0.0
N490 N 0.25378 0.36196 0.67595 0.0
N491 N 0.20426 0.33875 0.59617 0.0
H492 H -0.01639 0.33263 0.89357 0.0
H493 H 0.04753 0.2275 1.05245 0.0
H494 H 0.15857 0.34802 0.91682 0.0
H495 H 0.90017 0.26913 1.04032 0.0
H496 H 0.08367 0.26386 1.00221 0.0
H497 H 0.94854 0.30316 0.94494 0.0
C498 C 0.01506 0.33013 0.90935 0.0
C499 C 0.07478 0.34344 0.90015 0.0
C500 C 0.04351 0.26535 1.01036 0.0
C501 C 0.03342 0.30786 0.96015 0.0
C502 C 0.02235 0.24423 1.03935 0.0
C503 C 0.97011 0.24472 1.05143 0.0
C504 C 0.01214 0.28673 0.99211 0.0
C505 C 0.94061 0.26769 1.03258 0.0
C506 C -0.00529 0.3132 0.93895 0.0
C507 C 0.11245 0.33883 0.92232 0.0
N508 N 0.96148 0.28696 1.0041 0.0
N509 N 0.09113 0.3211 0.95078 0.0
H510 H 0.80655 0.12421 0.24925 0.0
H511 H 0.94867 0.00253 0.37694 0.0
H512 H 0.96048 0.09315 0.23565 0.0
H513 H 0.76207 0.9698 0.3829 0.0
H514 H 0.95739 0.04638 0.32753 0.0
H515 H 0.79338 0.07964 0.29951 0.0
C516 C 0.83793 0.10859 0.2567 0.0
C517 C 0.88486 0.11298 0.23755 0.0
C518 C 0.9143 0.02955 0.33945 0.0
C519 C 0.8701 0.06164 0.29597 0.0
C520 C 0.90913 0.00418 0.36796 0.0
C521 C 0.85417 0.98122 0.38466 0.0
C522 C 0.86469 0.03391 0.32691 0.0
C523 C 0.80523 -0.01414 0.37116 0.0
C524 C 0.83009 0.08267 0.28553 0.0
C525 C 0.92348 0.09113 0.24905 0.0
N526 N 0.81175 0.01178 0.34346 0.0
N527 N 0.91552 0.06722 0.27709 0.0
H528 H 0.96462 -0.00877 0.5747 0.0
H529 H 0.91972 0.76854 0.7134 0.0
H530 H 0.80733 0.80778 0.57927 0.0
H531 H 0.03589 0.96657 0.71517 0.0
H532 H 0.88207 0.77724 0.66391 0.0
H533 H -0.00584 0.97899 0.62473 0.0
C534 C 0.93566 0.94828 0.58626 0.0
C535 C 0.88274 0.90081 0.57225 0.0
C536 C 0.91583 0.81877 0.67513 0.0
C537 C 0.91815 0.88559 0.63068 0.0
C538 C 0.93781 0.81383 0.70348 0.0
C539 C -0.01819 0.86679 0.71898 0.0
C540 C 0.93835 0.87712 0.66154 0.0
C541 C 0.00239 0.92407 0.70455 0.0
C542 C 0.95288 0.94129 0.61508 0.0
C543 C 0.84795 0.84623 0.58893 0.0
N544 N -0.01891 0.92748 0.67701 0.0
N545 N 0.8665 0.83994 0.61691 0.0
H546 H 0.0617 0.95641 0.91407 0.0
H547 H 0.23951 0.90251 1.0513 0.0
H548 H 0.12756 0.82606 0.90777 0.0
H549 H 0.19534 0.04934 1.04546 0.0
H550 H 0.19302 0.86636 1.00169 0.0
H551 H 0.10225 -0.01819 0.96436 0.0
C552 C 0.08417 0.93237 0.92328 0.0
C553 C 0.09021 0.88821 0.90618 0.0
C554 C 0.19355 0.90648 1.01132 0.0
C555 C 0.13884 0.91858 0.96502 0.0
C556 C 0.22014 0.92722 1.03982 0.0
C557 C 0.22229 0.97975 1.05306 0.0
C558 C 0.16784 0.93773 0.99577 0.0
C559 C 0.19585 0.00917 1.03659 0.0
C560 C 0.10774 0.94725 0.95226 0.0
C561 C 0.12025 0.85923 0.91999 0.0
N562 N 0.17008 -0.01209 1.00932 0.0
N563 N 0.14357 0.87503 0.94832 0.0
loop_
_geom_bond_atom_site_label_1
_geom_bond_atom_site_label_2
_geom_bond_distance
_geom_bond_site_symmetry_2
_ccdc_geom_bond_type
C0 Eu1 2.835 . S
C0 C2 1.500 . S
C0 O20 1.257 . S
C0 O21 1.260 . S
Eu1 C0 2.835 . S
Eu1 O20 2.473 . S
Eu1 O21 2.480 . S
Eu1 O22 2.434 . S
Eu1 O23 2.670 1_556 S
Eu1 O24 2.394 . S
Eu1 O29 2.355 1_556 S
Eu1 O31 2.374 1_556 S
C2 C0 1.500 . S
C2 C3 1.377 . S
C2 C7 1.377 . S
C3 C2 1.377 . S
C3 C4 1.395 . S
C3 H32 0.931 . S
C4 C3 1.395 . S
C4 C5 1.383 . S
C4 H33 0.931 . S
C5 C4 1.383 . S
C5 C6 1.394 . S
C6 C5 1.394 . S
C6 C7 1.378 . S
C6 H34 0.931 . S
C7 C2 1.377 . S
C7 C6 1.378 . S
C7 H35 0.931 . S
C8 O22 1.239 1_554 S
C8 O23 1.270 . S
C9 O24 1.251 . S
C9 O25 1.251 . S
C10 Eu11 2.835 . S
C10 C12 1.500 . S
C10 O26 1.257 . S
C10 O27 1.260 . S
Eu11 C10 2.835 . S
Eu11 O23 2.355 . S
Eu11 O25 2.374 1_554 S
Eu11 O26 2.473 . S
Eu11 O27 2.480 . S
Eu11 O28 2.430 . S
Eu11 O29 2.670 . S
Eu11 O30 2.394 . S
C12 C10 1.500 . S
C12 C13 1.377 . S
C12 C17 1.377 . S
C13 C12 1.377 . S
C13 C14 1.395 . S
C13 H36 0.931 . S
C14 C13 1.395 . S
C14 C15 1.383 . S
C14 H37 0.931 . S
C15 C14 1.383 . S
C15 C16 1.394 . S
C16 C15 1.394 . S
C16 C17 1.378 . S
C16 H38 0.931 . S
C17 C12 1.377 . S
C17 C16 1.378 . S
C17 H39 0.931 . S
C18 O28 1.259 . S
C18 O29 1.270 . S
C19 O30 1.251 . S
C19 O31 1.251 . S
O20 C0 1.257 . S
O20 Eu1 2.473 . S
O21 C0 1.260 . S
O21 Eu1 2.480 . S
O22 Eu1 2.434 . S
O22 C8 1.239 1_556 S
O23 Eu1 2.670 1_554 S
O23 C8 1.270 . S
O23 Eu11 2.355 . S
O24 Eu1 2.394 . S
O24 C9 1.251 . S
O25 C9 1.251 . S
O25 Eu11 2.374 1_556 S
O26 C10 1.257 . S
O26 Eu11 2.473 . S
O27 C10 1.260 . S
O27 Eu11 2.480 . S
O28 Eu11 2.430 . S
O28 C18 1.259 . S
O29 Eu1 2.355 1_554 S
O29 Eu11 2.670 . S
O29 C18 1.270 . S
O30 Eu11 2.394 . S
O30 C19 1.251 . S
O31 Eu1 2.374 1_554 S
O31 C19 1.251 . S
H32 C3 0.931 . S
H33 C4 0.931 . S
H34 C6 0.931 . S
H35 C7 0.931 . S
H36 C13 0.931 . S
H37 C14 0.931 . S
H38 C16 0.931 . S
H39 C17 0.931 . S
C40 Eu41 2.835 . S
C40 C42 1.500 . S
C40 O60 1.257 . S
C40 O61 1.260 . S
Eu41 C40 2.835 . S
Eu41 O60 2.473 . S
Eu41 O61 2.480 . S
Eu41 O62 2.430 . S
Eu41 O63 2.670 . S
Eu41 O64 2.394 . S
Eu41 O69 2.355 . S
Eu41 O71 2.374 . S
C42 C40 1.500 . S
C42 C43 1.377 . S
C42 C47 1.377 . S
C43 C42 1.377 . S
C43 C44 1.395 . S
C43 H72 0.931 . S
C44 C43 1.395 . S
C44 C45 1.383 . S
C44 H73 0.931 . S
C45 C44 1.383 . S
C45 C46 1.394 . S
C46 C45 1.394 . S
C46 C47 1.378 . S
C46 H74 0.931 . S
C47 C42 1.377 . S
C47 C46 1.378 . S
C47 H75 0.931 . S
C48 O62 1.259 . S
C48 O63 1.270 . S
C49 O64 1.251 . S
C49 O65 1.251 . S
C50 Eu51 2.835 . S
C50 C52 1.500 . S
C50 O66 1.257 . S
C50 O67 1.260 . S
Eu51 C50 2.835 . S
Eu51 O63 2.355 . S
Eu51 O65 2.374 . S
Eu51 O66 2.473 . S
Eu51 O67 2.480 . S
Eu51 O68 2.430 . S
Eu51 O69 2.670 . S
Eu51 O70 2.394 . S
C52 C50 1.500 . S
C52 C53 1.377 . S
C52 C57 1.377 . S
C53 C52 1.377 . S
C53 C54 1.395 . S
C53 H76 0.931 . S
C54 C53 1.395 . S
C54 C55 1.383 . S
C54 H77 0.931 . S
C55 C54 1.383 . S
C55 C56 1.394 . S
C56 C55 1.394 . S
C56 C57 1.378 . S
C56 H78 0.931 . S
C57 C52 1.377 . S
C57 C56 1.378 . S
C57 H79 0.931 . S
C58 O68 1.259 . S
C58 O69 1.270 . S
C59 O70 1.251 . S
C59 O71 1.251 . S
O60 C40 1.257 . S
O60 Eu41 2.473 . S
O61 C40 1.260 . S
O61 Eu41 2.480 . S
O62 Eu41 2.430 . S
O62 C48 1.259 . S
O63 Eu41 2.670 . S
O63 C48 1.270 . S
O63 Eu51 2.355 . S
O64 Eu41 2.394 . S
O64 C49 1.251 . S
O65 C49 1.251 . S
O65 Eu51 2.374 . S
O66 C50 1.257 . S
O66 Eu51 2.473 . S
O67 C50 1.260 . S
O67 Eu51 2.480 . S
O68 Eu51 2.430 . S
O68 C58 1.259 . S
O69 Eu41 2.355 . S
O69 Eu51 2.670 . S
O69 C58 1.270 . S
O70 Eu51 2.394 . S
O70 C59 1.251 . S
O71 Eu41 2.374 . S
O71 C59 1.251 . S
H72 C43 0.931 . S
H73 C44 0.931 . S
H74 C46 0.931 . S
H75 C47 0.931 . S
H76 C53 0.931 . S
H77 C54 0.931 . S
H78 C56 0.931 . S
H79 C57 0.931 . S
C80 Eu81 2.835 . S
C80 C82 1.500 . S
C80 O100 1.257 . S
C80 O101 1.260 . S
Eu81 C80 2.835 . S
Eu81 O100 2.473 . S
Eu81 O101 2.480 . S
Eu81 O102 2.430 . S
Eu81 O103 2.669 1_655 S
Eu81 O104 2.394 1_655 S
Eu81 O109 2.355 1_655 S
Eu81 O111 2.374 . S
C82 C80 1.500 . S
C82 C83 1.377 . S
C82 C87 1.377 . S
C83 C82 1.377 . S
C83 C84 1.395 . S
C83 H112 0.931 . S
C84 C83 1.395 . S
C84 C85 1.383 . S
C84 H113 0.931 . S
C85 C84 1.383 . S
C85 C86 1.394 . S
C86 C85 1.394 . S
C86 C87 1.378 . S
C86 H114 0.931 . S
C87 C82 1.377 . S
C87 C86 1.378 . S
C87 H115 0.931 . S
C88 O102 1.259 . S
C88 O103 1.267 1_655 S
C89 O104 1.251 . S
C89 O105 1.251 . S
C90 Eu91 2.835 . S
C90 C92 1.500 . S
C90 O106 1.257 . S
C90 O107 1.260 . S
Eu91 C90 2.835 . S
Eu91 O103 2.358 . S
Eu91 O105 2.374 . S
Eu91 O106 2.473 . S
Eu91 O107 2.480 . S
Eu91 O108 2.430 . S
Eu91 O109 2.670 . S
Eu91 O110 2.397 . S
C92 C90 1.500 . S
C92 C93 1.377 . S
C92 C97 1.377 . S
C93 C92 1.377 . S
C93 C94 1.395 . S
C93 H116 0.931 . S
C94 C93 1.395 . S
C94 C95 1.383 . S
C94 H117 0.931 . S
C95 C94 1.383 . S
C95 C96 1.394 . S
C96 C95 1.394 . S
C96 C97 1.378 . S
C96 H118 0.931 . S
C97 C92 1.377 . S
C97 C96 1.378 . S
C97 H119 0.931 . S
C98 O108 1.259 . S
C98 O109 1.270 . S
C99 O110 1.245 1_655 S
C99 O111 1.251 . S
O100 C80 1.257 . S
O100 Eu81 2.473 . S
O101 C80 1.260 . S
O101 Eu81 2.480 . S
O102 Eu81 2.430 . S
O102 C88 1.259 . S
O103 Eu81 2.669 1_455 S
O103 C88 1.267 1_455 S
O103 Eu91 2.358 . S
O104 Eu81 2.394 1_455 S
O104 C89 1.251 . S
O105 C89 1.251 . S
O105 Eu91 2.374 . S
O106 C90 1.257 . S
O106 Eu91 2.473 . S
O107 C90 1.260 . S
O107 Eu91 2.480 . S
O108 Eu91 2.430 . S
O108 C98 1.259 . S
O109 Eu81 2.355 1_455 S
O109 Eu91 2.670 . S
O109 C98 1.270 . S
O110 Eu91 2.397 . S
O110 C99 1.245 1_455 S
O111 Eu81 2.374 . S
O111 C99 1.251 . S
H112 C83 0.931 . S
H113 C84 0.931 . S
H114 C86 0.931 . S
H115 C87 0.931 . S
H116 C93 0.931 . S
H117 C94 0.931 . S
H118 C96 0.931 . S
H119 C97 0.931 . S
C120 Eu121 2.835 . S
C120 C122 1.500 . S
C120 O140 1.257 . S
C120 O141 1.260 . S
Eu121 C120 2.835 . S
Eu121 O140 2.473 . S
Eu121 O141 2.480 . S
Eu121 O142 2.434 . S
Eu121 O143 2.670 1_566 S
Eu121 O144 2.394 1_565 S
Eu121 O149 2.355 1_566 S
Eu121 O151 2.374 1_556 S
C122 C120 1.500 . S
C122 C123 1.377 . S
C122 C127 1.377 . S
C123 C122 1.377 . S
C123 C124 1.395 . S
C123 H152 0.931 . S
C124 C123 1.395 . S
C124 C125 1.383 . S
C124 H153 0.931 . S
C125 C124 1.383 . S
C125 C126 1.394 . S
C126 C125 1.394 . S
C126 C127 1.378 . S
C126 H154 0.931 . S
C127 C122 1.377 . S
C127 C126 1.378 . S
C127 H155 0.931 . S
C128 O142 1.239 1_554 S
C128 O143 1.270 1_565 S
C129 O144 1.251 . S
C129 O145 1.251 . S
C130 Eu131 2.835 . S
C130 C132 1.500 . S
C130 O146 1.257 . S
C130 O147 1.260 . S
Eu131 C130 2.835 . S
Eu131 O143 2.355 . S
Eu131 O145 2.374 1_554 S
Eu131 O146 2.473 . S
Eu131 O147 2.480 . S
Eu131 O148 2.430 . S
Eu131 O149 2.670 . S
Eu131 O150 2.394 . S
C132 C130 1.500 . S
C132 C133 1.377 . S
C132 C137 1.377 . S
C133 C132 1.377 . S
C133 C134 1.395 . S
C133 H156 0.931 . S
C134 C133 1.395 . S
C134 C135 1.383 . S
C134 H157 0.931 . S
C135 C134 1.383 . S
C135 C136 1.394 . S
C136 C135 1.394 . S
C136 C137 1.378 . S
C136 H158 0.931 . S
C137 C132 1.377 . S
C137 C136 1.378 . S
C137 H159 0.931 . S
C138 O148 1.259 . S
C138 O149 1.270 . S
C139 O150 1.251 1_565 S
C139 O151 1.251 . S
O140 C120 1.257 . S
O140 Eu121 2.473 . S
O141 C120 1.260 . S
O141 Eu121 2.480 . S
O142 Eu121 2.434 . S
O142 C128 1.239 1_556 S
O143 Eu121 2.670 1_544 S
O143 C128 1.270 1_545 S
O143 Eu131 2.355 . S
O144 Eu121 2.394 1_545 S
O144 C129 1.251 . S
O145 C129 1.251 . S
O145 Eu131 2.374 1_556 S
O146 C130 1.257 . S
O146 Eu131 2.473 . S
O147 C130 1.260 . S
O147 Eu131 2.480 . S
O148 Eu131 2.430 . S
O148 C138 1.259 . S
O149 Eu121 2.355 1_544 S
O149 Eu131 2.670 . S
O149 C138 1.270 . S
O150 Eu131 2.394 . S
O150 C139 1.251 1_545 S
O151 Eu121 2.374 1_554 S
O151 C139 1.251 . S
H152 C123 0.931 . S
H153 C124 0.931 . S
H154 C126 0.931 . S
H155 C127 0.931 . S
H156 C133 0.931 . S
H157 C134 0.931 . S
H158 C136 0.931 . S
H159 C137 0.931 . S
C160 Eu161 2.835 . S
C160 C162 1.500 . S
C160 O180 1.257 . S
C160 O181 1.260 . S
Eu161 C160 2.835 . S
Eu161 O180 2.473 . S
Eu161 O181 2.480 . S
Eu161 O182 2.430 1_455 S
Eu161 O183 2.670 1_455 S
Eu161 O184 2.394 1_455 S
Eu161 O189 2.355 . S
Eu161 O191 2.374 . S
C162 C160 1.500 . S
C162 C163 1.377 . S
C162 C167 1.377 . S
C163 C162 1.377 . S
C163 C164 1.395 . S
C163 H192 0.931 . S
C164 C163 1.395 . S
C164 C165 1.383 . S
C164 H193 0.931 . S
C165 C164 1.383 . S
C165 C166 1.394 . S
C166 C165 1.394 . S
C166 C167 1.378 . S
C166 H194 0.931 . S
C167 C162 1.377 . S
C167 C166 1.378 . S
C167 H195 0.931 . S
C168 O182 1.259 . S
C168 O183 1.270 . S
C169 O184 1.251 . S
C169 O185 1.251 . S
C170 Eu171 2.835 . S
C170 C172 1.500 . S
C170 O186 1.257 . S
C170 O187 1.260 . S
Eu171 C170 2.835 . S
Eu171 O183 2.355 . S
Eu171 O185 2.374 . S
Eu171 O186 2.473 . S
Eu171 O187 2.480 . S
Eu171 O188 2.430 1_655 S
Eu171 O189 2.670 1_655 S
Eu171 O190 2.394 . S
C172 C170 1.500 . S
C172 C173 1.377 . S
C172 C177 1.377 . S
C173 C172 1.377 . S
C173 C174 1.395 . S
C173 H196 0.931 . S
C174 C173 1.395 . S
C174 C175 1.383 . S
C174 H197 0.931 . S
C175 C174 1.383 . S
C175 C176 1.394 . S
C176 C175 1.394 . S
C176 C177 1.378 . S
C176 H198 0.931 . S
C177 C172 1.377 . S
C177 C176 1.378 . S
C177 H199 0.931 . S
C178 O188 1.259 . S
C178 O189 1.270 . S
C179 O190 1.251 1_455 S
C179 O191 1.251 . S
O180 C160 1.257 . S
O180 Eu161 2.473 . S
O181 C160 1.260 . S
O181 Eu161 2.480 . S
O182 Eu161 2.430 1_655 S
O182 C168 1.259 . S
O183 Eu161 2.670 1_655 S
O183 C168 1.270 . S
O183 Eu171 2.355 . S
O184 Eu161 2.394 1_655 S
O184 C169 1.251 . S
O185 C169 1.251 . S
O185 Eu171 2.374 . S
O186 C170 1.257 . S
O186 Eu171 2.473 . S
O187 C170 1.260 . S
O187 Eu171 2.480 . S
O188 Eu171 2.430 1_455 S
O188 C178 1.259 . S
O189 Eu161 2.355 . S
O189 Eu171 2.670 1_455 S
O189 C178 1.270 . S
O190 Eu171 2.394 . S
O190 C179 1.251 1_655 S
O191 Eu161 2.374 . S
O191 C179 1.251 . S
H192 C163 0.931 . S
H193 C164 0.931 . S
H194 C166 0.931 . S
H195 C167 0.931 . S
H196 C173 0.931 . S
H197 C174 0.931 . S
H198 C176 0.931 . S
H199 C177 0.931 . S
C200 Eu201 2.835 . S
C200 C202 1.500 . S
C200 O220 1.257 . S
C200 O221 1.260 . S
Eu201 C200 2.835 . S
Eu201 O220 2.473 . S
Eu201 O221 2.480 . S
Eu201 O222 2.430 1_545 S
Eu201 O223 2.670 1_545 S
Eu201 O224 2.394 1_545 S
Eu201 O229 2.355 . S
Eu201 O231 2.374 . S
C202 C200 1.500 . S
C202 C203 1.377 . S
C202 C207 1.377 . S
C203 C202 1.377 . S
C203 C204 1.395 . S
C203 H232 0.931 . S
C204 C203 1.395 . S
C204 C205 1.383 . S
C204 H233 0.931 . S
C205 C204 1.383 . S
C205 C206 1.394 . S
C206 C205 1.394 . S
C206 C207 1.378 . S
C206 H234 0.931 . S
C207 C202 1.377 . S
C207 C206 1.378 . S
C207 H235 0.931 . S
C208 O222 1.259 . S
C208 O223 1.270 . S
C209 O224 1.251 . S
C209 O225 1.251 . S
C210 Eu211 2.835 . S
C210 C212 1.500 . S
C210 O226 1.257 . S
C210 O227 1.260 . S
Eu211 C210 2.835 . S
Eu211 O223 2.355 . S
Eu211 O225 2.374 . S
Eu211 O226 2.473 . S
Eu211 O227 2.480 . S
Eu211 O228 2.430 1_565 S
Eu211 O229 2.670 1_565 S
Eu211 O230 2.394 1_565 S
C212 C210 1.500 . S
C212 C213 1.377 . S
C212 C217 1.377 . S
C213 C212 1.377 . S
C213 C214 1.395 . S
C213 H236 0.931 . S
C214 C213 1.395 . S
C214 C215 1.383 . S
C214 H237 0.931 . S
C215 C214 1.383 . S
C215 C216 1.394 . S
C216 C215 1.394 . S
C216 C217 1.378 . S
C216 H238 0.931 . S
C217 C212 1.377 . S
C217 C216 1.378 . S
C217 H239 0.931 . S
C218 O228 1.259 . S
C218 O229 1.270 . S
C219 O230 1.251 . S
C219 O231 1.251 . S
O220 C200 1.257 . S
O220 Eu201 2.473 . S
O221 C200 1.260 . S
O221 Eu201 2.480 . S
O222 Eu201 2.430 1_565 S
O222 C208 1.259 . S
O223 Eu201 2.670 1_565 S
O223 C208 1.270 . S
O223 Eu211 2.355 . S
O224 Eu201 2.394 1_565 S
O224 C209 1.251 . S
O225 C209 1.251 . S
O225 Eu211 2.374 . S
O226 C210 1.257 . S
O226 Eu211 2.473 . S
O227 C210 1.260 . S
O227 Eu211 2.480 . S
O228 Eu211 2.430 1_545 S
O228 C218 1.259 . S
O229 Eu201 2.355 . S
O229 Eu211 2.670 1_545 S
O229 C218 1.270 . S
O230 Eu211 2.394 1_545 S
O230 C219 1.251 . S
O231 Eu201 2.374 . S
O231 C219 1.251 . S
H232 C203 0.931 . S
H233 C204 0.931 . S
H234 C206 0.931 . S
H235 C207 0.931 . S
H236 C213 0.931 . S
H237 C214 0.931 . S
H238 C216 0.931 . S
H239 C217 0.931 . S
H240 C246 0.930 . S
H241 C250 0.930 . S
H242 C255 0.929 1_565 S
H243 C253 0.929 . S
H244 C248 0.929 . S
H245 C254 0.929 . S
C246 H240 0.930 . S
C246 C247 1.367 . S
C246 C254 1.378 1_655 S
C247 C246 1.367 . S
C247 C255 1.433 1_655 S
C248 H244 0.929 . S
C248 C250 1.378 . S
C248 C252 1.350 . S
C249 C252 1.463 . S
C249 C254 1.350 . S
C249 N257 1.427 . S
C250 H241 0.930 . S
C250 C248 1.378 . S
C250 C251 1.367 . S
C251 C250 1.367 . S
C251 C253 1.433 . S
C252 C248 1.350 . S
C252 C249 1.463 . S
C252 N256 1.427 . S
C253 H243 0.929 . S
C253 C251 1.433 . S
C253 N256 1.384 . S
C254 H245 0.929 . S
C254 C246 1.378 1_455 S
C254 C249 1.350 . S
C255 H242 0.929 1_545 S
C255 C247 1.433 1_455 S
C255 N257 1.384 . S
N256 C252 1.427 . S
N256 C253 1.384 . S
N257 C249 1.427 . S
N257 C255 1.384 . S
H258 C264 0.930 1_565 S
H259 C268 0.930 . S
H260 C273 0.929 1_565 S
H261 C271 0.929 . S
H262 C266 0.929 . S
H263 C272 0.929 . S
C264 H258 0.930 1_545 S
C264 C265 1.367 1_545 S
C264 C272 1.378 . S
C265 C264 1.367 1_565 S
C265 C273 1.433 1_565 S
C266 H262 0.929 . S
C266 C268 1.378 . S
C266 C270 1.350 . S
C267 C270 1.463 . S
C267 C272 1.350 . S
C267 N275 1.427 . S
C268 H259 0.930 . S
C268 C266 1.378 . S
C268 C269 1.367 . S
C269 C268 1.367 . S
C269 C271 1.433 . S
C270 C266 1.350 . S
C270 C267 1.463 . S
C270 N274 1.427 . S
C271 H261 0.929 . S
C271 C269 1.433 . S
C271 N274 1.384 . S
C272 H263 0.929 . S
C272 C264 1.378 . S
C272 C267 1.350 . S
C273 H260 0.929 1_545 S
C273 C265 1.433 1_545 S
C273 N275 1.384 . S
N274 C270 1.427 . S
N274 C271 1.384 . S
N275 C267 1.427 . S
N275 C273 1.384 . S
H276 C282 0.930 . S
H277 C286 0.930 . S
H278 C291 0.929 . S
H279 C289 0.929 1_655 S
H280 C284 0.929 . S
H281 C290 0.929 . S
C282 H276 0.930 . S
C282 C283 1.367 . S
C282 C290 1.378 . S
C283 C282 1.367 . S
C283 C291 1.433 . S
C284 H280 0.929 . S
C284 C286 1.378 . S
C284 C288 1.350 . S
C285 C288 1.463 . S
C285 C290 1.350 . S
C285 N293 1.427 . S
C286 H277 0.930 . S
C286 C284 1.378 . S
C286 C287 1.367 . S
C287 C286 1.367 . S
C287 C289 1.433 . S
C288 C284 1.350 . S
C288 C285 1.463 . S
C288 N292 1.427 . S
C289 H279 0.929 1_455 S
C289 C287 1.433 . S
C289 N292 1.384 . S
C290 H281 0.929 . S
C290 C282 1.378 . S
C290 C285 1.350 . S
C291 H278 0.929 . S
C291 C283 1.433 . S
C291 N293 1.384 . S
N292 C288 1.427 . S
N292 C289 1.384 . S
N293 C285 1.427 . S
N293 C291 1.384 . S
H294 C300 0.930 . S
H295 C304 0.930 . S
H296 C309 0.929 . S
H297 C307 0.929 . S
H298 C302 0.929 . S
H299 C308 0.929 . S
C300 H294 0.930 . S
C300 C301 1.367 . S
C300 C308 1.378 . S
C301 C300 1.367 . S
C301 C309 1.433 . S
C302 H298 0.929 . S
C302 C304 1.378 . S
C302 C306 1.350 . S
C303 C306 1.463 . S
C303 C308 1.350 . S
C303 N311 1.427 . S
C304 H295 0.930 . S
C304 C302 1.378 . S
C304 C305 1.367 . S
C305 C304 1.367 . S
C305 C307 1.433 . S
C306 C302 1.350 . S
C306 C303 1.463 . S
C306 N310 1.427 . S
C307 H297 0.929 . S
C307 C305 1.433 . S
C307 N310 1.384 . S
C308 H299 0.929 . S
C308 C300 1.378 . S
C308 C303 1.350 . S
C309 H296 0.929 . S
C309 C301 1.433 . S
C309 N311 1.384 . S
N310 C306 1.427 . S
N310 C307 1.384 . S
N311 C303 1.427 . S
N311 C309 1.384 . S
H312 C318 0.930 . S
H313 C322 0.930 . S
H314 C327 0.929 . S
H315 C325 0.929 . S
H316 C320 0.929 1_455 S
H317 C326 0.929 1_655 S
C318 H312 0.930 . S
C318 C319 1.367 . S
C318 C326 1.378 . S
C319 C318 1.367 . S
C319 C327 1.433 . S
C320 H316 0.929 1_655 S
C320 C322 1.378 . S
C320 C324 1.350 . S
C321 C324 1.463 1_455 S
C321 C326 1.350 . S
C321 N329 1.427 . S
C322 H313 0.930 . S
C322 C320 1.378 . S
C322 C323 1.367 . S
C323 C322 1.367 . S
C323 C325 1.433 . S
C324 C320 1.350 . S
C324 C321 1.463 1_655 S
C324 N328 1.427 . S
C325 H315 0.929 . S
C325 C323 1.433 . S
C325 N328 1.384 . S
C326 H317 0.929 1_455 S
C326 C318 1.378 . S
C326 C321 1.350 . S
C327 H314 0.929 . S
C327 C319 1.433 . S
C327 N329 1.384 . S
N328 C324 1.427 . S
N328 C325 1.384 . S
N329 C321 1.427 . S
N329 C327 1.384 . S
H330 C336 0.930 . S
H331 C340 0.930 . S
H332 C345 0.929 . S
H333 C343 0.929 . S
H334 C338 0.929 1_545 S
H335 C344 0.929 . S
C336 H330 0.930 . S
C336 C337 1.367 . S
C336 C344 1.378 . S
C337 C336 1.367 . S
C337 C345 1.433 . S
C338 H334 0.929 1_565 S
C338 C340 1.378 . S
C338 C342 1.350 . S
C339 C342 1.463 1_545 S
C339 C344 1.350 . S
C339 N347 1.427 . S
C340 H331 0.930 . S
C340 C338 1.378 . S
C340 C341 1.367 . S
C341 C340 1.367 . S
C341 C343 1.433 . S
C342 C338 1.350 . S
C342 C339 1.463 1_565 S
C342 N346 1.427 . S
C343 H333 0.929 . S
C343 C341 1.433 . S
C343 N346 1.384 . S
C344 H335 0.929 . S
C344 C336 1.378 . S
C344 C339 1.350 . S
C345 H332 0.929 . S
C345 C337 1.433 . S
C345 N347 1.384 . S
N346 C342 1.427 . S
N346 C343 1.384 . S
N347 C339 1.427 . S
N347 C345 1.384 . S
H348 C354 0.930 . S
H349 C358 0.930 . S
H350 C363 0.929 . S
H351 C361 0.926 . S
H352 C356 0.927 1_655 S
H353 C362 0.929 . S
C354 H348 0.930 . S
C354 C355 1.367 . S
C354 C362 1.378 . S
C355 C354 1.367 . S
C355 C363 1.433 . S
C356 H352 0.927 1_455 S
C356 C358 1.380 . S
C356 C360 1.348 1_455 S
C357 C360 1.463 . S
C357 C362 1.350 . S
C357 N365 1.427 . S
C358 H349 0.930 . S
C358 C356 1.380 . S
C358 C359 1.367 . S
C359 C358 1.367 . S
C359 C361 1.432 . S
C360 C356 1.348 1_655 S
C360 C357 1.463 . S
C360 N364 1.427 . S
C361 H351 0.926 . S
C361 C359 1.432 . S
C361 N364 1.385 1_455 S
C362 H353 0.929 . S
C362 C354 1.378 . S
C362 C357 1.350 . S
C363 H350 0.929 . S
C363 C355 1.433 . S
C363 N365 1.384 . S
N364 C360 1.427 . S
N364 C361 1.385 1_655 S
N365 C357 1.427 . S
N365 C363 1.384 . S
H366 C372 0.930 . S
H367 C376 0.930 . S
H368 C381 0.929 . S
H369 C379 0.929 . S
H370 C374 0.929 . S
H371 C380 0.929 . S
C372 H366 0.930 . S
C372 C373 1.367 . S
C372 C380 1.378 . S
C373 C372 1.367 . S
C373 C381 1.433 . S
C374 H370 0.929 . S
C374 C376 1.378 1_565 S
C374 C378 1.350 . S
C375 C378 1.463 . S
C375 C380 1.350 . S
C375 N383 1.427 . S
C376 H367 0.930 . S
C376 C374 1.378 1_545 S
C376 C377 1.367 . S
C377 C376 1.367 . S
C377 C379 1.433 . S
C378 C374 1.350 . S
C378 C375 1.463 . S
C378 N382 1.427 1_565 S
C379 H369 0.929 . S
C379 C377 1.433 . S
C379 N382 1.384 . S
C380 H371 0.929 . S
C380 C372 1.378 . S
C380 C375 1.350 . S
C381 H368 0.929 . S
C381 C373 1.433 . S
C381 N383 1.384 . S
N382 C378 1.427 1_545 S
N382 C379 1.384 . S
N383 C375 1.427 . S
N383 C381 1.384 . S
H384 C390 0.930 . S
H385 C394 0.930 . S
H386 C399 0.929 . S
H387 C397 0.929 . S
H388 C392 0.929 . S
H389 C398 0.929 . S
C390 H384 0.930 . S
C390 C391 1.367 . S
C390 C398 1.378 . S
C391 C390 1.367 . S
C391 C399 1.433 . S
C392 H388 0.929 . S
C392 C394 1.378 . S
C392 C396 1.350 . S
C393 C396 1.463 . S
C393 C398 1.350 . S
C393 N401 1.427 . S
C394 H385 0.930 . S
C394 C392 1.378 . S
C394 C395 1.367 . S
C395 C394 1.367 . S
C395 C397 1.433 . S
C396 C392 1.350 . S
C396 C393 1.463 . S
C396 N400 1.427 . S
C397 H387 0.929 . S
C397 C395 1.433 . S
C397 N400 1.384 . S
C398 H389 0.929 . S
C398 C390 1.378 . S
C398 C393 1.350 . S
C399 H386 0.929 . S
C399 C391 1.433 . S
C399 N401 1.384 . S
N400 C396 1.427 . S
N400 C397 1.384 . S
N401 C393 1.427 . S
N401 C399 1.384 . S
H402 C408 0.930 . S
H403 C412 0.930 . S
H404 C417 0.929 . S
H405 C415 0.936 . S
H406 C410 0.929 . S
H407 C416 0.929 . S
C408 H402 0.930 . S
C408 C409 1.367 . S
C408 C416 1.378 . S
C409 C408 1.367 . S
C409 C417 1.433 1_554 S
C410 H406 0.929 . S
C410 C412 1.378 . S
C410 C414 1.350 1_556 S
C411 C414 1.463 . S
C411 C416 1.350 . S
C411 N419 1.427 1_554 S
C412 H403 0.930 . S
C412 C410 1.378 . S
C412 C413 1.367 1_556 S
C413 C412 1.367 1_554 S
C413 C415 1.433 . S
C414 C410 1.350 1_554 S
C414 C411 1.463 . S
C414 N418 1.427 . S
C415 H405 0.936 . S
C415 C413 1.433 . S
C415 N418 1.384 . S
C416 H407 0.929 . S
C416 C408 1.378 . S
C416 C411 1.350 . S
C417 H404 0.929 . S
C417 C409 1.433 1_556 S
C417 N419 1.384 . S
N418 C414 1.427 . S
N418 C415 1.384 . S
N419 C411 1.427 1_556 S
N419 C417 1.384 . S
H420 C426 0.930 . S
H421 C430 0.930 . S
H422 C435 0.929 . S
H423 C433 0.929 . S
H424 C428 0.929 . S
H425 C434 0.929 . S
C426 H420 0.930 . S
C426 C427 1.367 . S
C426 C434 1.378 . S
C427 C426 1.367 . S
C427 C435 1.433 . S
C428 H424 0.929 . S
C428 C430 1.378 . S
C428 C432 1.350 . S
C429 C432 1.463 . S
C429 C434 1.350 . S
C429 N437 1.427 . S
C430 H421 0.930 . S
C430 C428 1.378 . S
C430 C431 1.367 . S
C431 C430 1.367 . S
C431 C433 1.433 . S
C432 C428 1.350 . S
C432 C429 1.463 . S
C432 N436 1.427 . S
C433 H423 0.929 . S
C433 C431 1.433 . S
C433 N436 1.384 . S
C434 H425 0.929 . S
C434 C426 1.378 . S
C434 C429 1.350 . S
C435 H422 0.929 . S
C435 C427 1.433 . S
C435 N437 1.384 . S
N436 C432 1.427 . S
N436 C433 1.384 . S
N437 C429 1.427 . S
N437 C435 1.384 . S
H438 C444 0.930 . S
H439 C448 0.930 . S
H440 C453 0.929 . S
H441 C451 0.929 . S
H442 C446 0.929 . S
H443 C452 0.929 . S
C444 H438 0.930 . S
C444 C445 1.367 . S
C444 C452 1.378 . S
C445 C444 1.367 . S
C445 C453 1.433 . S
C446 H442 0.929 . S
C446 C448 1.378 . S
C446 C450 1.350 . S
C447 C450 1.463 . S
C447 C452 1.350 . S
C447 N455 1.427 . S
C448 H439 0.930 . S
C448 C446 1.378 . S
C448 C449 1.367 . S
C449 C448 1.367 . S
C449 C451 1.433 . S
C450 C446 1.350 . S
C450 C447 1.463 . S
C450 N454 1.427 . S
C451 H441 0.929 . S
C451 C449 1.433 . S
C451 N454 1.384 . S
C452 H443 0.929 . S
C452 C444 1.378 . S
C452 C447 1.350 . S
C453 H440 0.929 . S
C453 C445 1.433 . S
C453 N455 1.384 . S
N454 C450 1.427 . S
N454 C451 1.384 . S
N455 C447 1.427 . S
N455 C453 1.384 . S
H456 C462 0.930 . S
H457 C466 0.930 . S
H458 C471 0.929 . S
H459 C469 0.929 . S
H460 C464 0.929 . S
H461 C470 0.929 . S
C462 H456 0.930 . S
C462 C463 1.367 . S
C462 C470 1.378 . S
C463 C462 1.367 . S
C463 C471 1.433 . S
C464 H460 0.929 . S
C464 C466 1.378 . S
C464 C468 1.350 . S
C465 C468 1.463 . S
C465 C470 1.350 . S
C465 N473 1.427 . S
C466 H457 0.930 . S
C466 C464 1.378 . S
C466 C467 1.367 . S
C467 C466 1.367 . S
C467 C469 1.433 . S
C468 C464 1.350 . S
C468 C465 1.463 . S
C468 N472 1.427 . S
C469 H459 0.929 . S
C469 C467 1.433 . S
C469 N472 1.384 . S
C470 H461 0.929 . S
C470 C462 1.378 . S
C470 C465 1.350 . S
C471 H458 0.929 . S
C471 C463 1.433 . S
C471 N473 1.384 . S
N472 C468 1.427 . S
N472 C469 1.384 . S
N473 C465 1.427 . S
N473 C471 1.384 . S
H474 C480 0.930 . S
H475 C484 0.930 . S
H476 C489 0.929 . S
H477 C487 0.929 . S
H478 C482 0.929 . S
H479 C488 0.929 . S
C480 H474 0.930 . S
C480 C481 1.367 . S
C480 C488 1.378 . S
C481 C480 1.367 . S
C481 C489 1.433 . S
C482 H478 0.929 . S
C482 C484 1.378 . S
C482 C486 1.350 . S
C483 C486 1.463 . S
C483 C488 1.350 . S
C483 N491 1.427 . S
C484 H475 0.930 . S
C484 C482 1.378 . S
C484 C485 1.367 . S
C485 C484 1.367 . S
C485 C487 1.433 . S
C486 C482 1.350 . S
C486 C483 1.463 . S
C486 N490 1.427 . S
C487 H477 0.929 . S
C487 C485 1.433 . S
C487 N490 1.384 . S
C488 H479 0.929 . S
C488 C480 1.378 . S
C488 C483 1.350 . S
C489 H476 0.929 . S
C489 C481 1.433 . S
C489 N491 1.384 . S
N490 C486 1.427 . S
N490 C487 1.384 . S
N491 C483 1.427 . S
N491 C489 1.384 . S
H492 C498 0.930 . S
H493 C502 0.930 . S
H494 C507 0.929 . S
H495 C505 0.929 . S
H496 C500 0.929 . S
H497 C506 0.929 . S
C498 H492 0.930 . S
C498 C499 1.367 . S
C498 C506 1.378 . S
C499 C498 1.367 . S
C499 C507 1.433 . S
C500 H496 0.929 . S
C500 C502 1.378 . S
C500 C504 1.350 . S
C501 C504 1.463 . S
C501 C506 1.350 . S
C501 N509 1.427 . S
C502 H493 0.930 . S
C502 C500 1.378 . S
C502 C503 1.367 . S
C503 C502 1.367 . S
C503 C505 1.433 . S
C504 C500 1.350 . S
C504 C501 1.463 . S
C504 N508 1.427 . S
C505 H495 0.929 . S
C505 C503 1.433 . S
C505 N508 1.384 . S
C506 H497 0.929 . S
C506 C498 1.378 . S
C506 C501 1.350 . S
C507 H494 0.929 . S
C507 C499 1.433 . S
C507 N509 1.384 . S
N508 C504 1.427 . S
N508 C505 1.384 . S
N509 C501 1.427 . S
N509 C507 1.384 . S
H510 C516 0.930 1_545 S
H511 C520 0.930 . S
H512 C525 0.929 . S
H513 C523 0.929 . S
H514 C518 0.929 . S
H515 C524 0.929 . S
C516 H510 0.930 1_565 S
C516 C517 1.367 . S
C516 C524 1.378 . S
C517 C516 1.367 . S
C517 C525 1.433 . S
C518 H514 0.929 . S
C518 C520 1.378 . S
C518 C522 1.350 . S
C519 C522 1.463 . S
C519 C524 1.350 . S
C519 N527 1.427 . S
C520 H511 0.930 . S
C520 C518 1.378 . S
C520 C521 1.367 . S
C521 C520 1.367 . S
C521 C523 1.433 . S
C522 C518 1.350 . S
C522 C519 1.463 . S
C522 N526 1.427 . S
C523 H513 0.929 . S
C523 C521 1.433 . S
C523 N526 1.384 . S
C524 H515 0.929 . S
C524 C516 1.378 . S
C524 C519 1.350 . S
C525 H512 0.929 . S
C525 C517 1.433 . S
C525 N527 1.384 . S
N526 C522 1.427 . S
N526 C523 1.384 . S
N527 C519 1.427 . S
N527 C525 1.384 . S
H528 C534 0.930 . S
H529 C538 0.930 . S
H530 C543 0.929 1_655 S
H531 C541 0.929 . S
H532 C536 0.929 . S
H533 C542 0.929 . S
C534 H528 0.930 . S
C534 C535 1.367 . S
C534 C542 1.378 . S
C535 C534 1.367 . S
C535 C543 1.433 . S
C536 H532 0.929 . S
C536 C538 1.378 . S
C536 C540 1.350 . S
C537 C540 1.463 . S
C537 C542 1.350 . S
C537 N545 1.427 . S
C538 H529 0.930 . S
C538 C536 1.378 . S
C538 C539 1.367 . S
C539 C538 1.367 . S
C539 C541 1.433 . S
C540 C536 1.350 . S
C540 C537 1.463 . S
C540 N544 1.427 . S
C541 H531 0.929 . S
C541 C539 1.433 . S
C541 N544 1.384 . S
C542 H533 0.929 . S
C542 C534 1.378 . S
C542 C537 1.350 . S
C543 H530 0.929 1_455 S
C543 C535 1.433 . S
C543 N545 1.384 . S
N544 C540 1.427 . S
N544 C541 1.384 . S
N545 C537 1.427 . S
N545 C543 1.384 . S
H546 C552 0.930 . S
H547 C556 0.930 . S
H548 C561 0.929 1_565 S
H549 C559 0.929 . S
H550 C554 0.929 . S
H551 C560 0.929 . S
C552 H546 0.930 . S
C552 C553 1.367 . S
C552 C560 1.378 . S
C553 C552 1.367 . S
C553 C561 1.433 . S
C554 H550 0.929 . S
C554 C556 1.378 . S
C554 C558 1.350 . S
C555 C558 1.463 . S
C555 C560 1.350 . S
C555 N563 1.427 . S
C556 H547 0.930 . S
C556 C554 1.378 . S
C556 C557 1.367 . S
C557 C556 1.367 . S
C557 C559 1.433 . S
C558 C554 1.350 . S
C558 C555 1.463 . S
C558 N562 1.427 . S
C559 H549 0.929 . S
C559 C557 1.433 . S
C559 N562 1.384 . S
C560 H551 0.929 . S
C560 C552 1.378 . S
C560 C555 1.350 . S
C561 H548 0.929 1_545 S
C561 C553 1.433 . S
C561 N563 1.384 . S
N562 C558 1.427 . S
N562 C559 1.384 . S
N563 C555 1.427 . S
N563 C561 1.384 . S
C247 C138 0.723 . S
C251 C18 0.722 . S
C265 C178 0.749 . S
C269 C58 0.738 . S
C283 C218 0.744 . S
C287 C98 0.734 . S
C301 C5 0.797 . S
C305 C95 0.782 . S
C319 C45 0.773 . S
C323 C135 0.760 . S
C337 C85 0.757 . S
C341 C175 0.761 . S
C355 C125 0.798 . S
C359 C215 0.795 . S
C373 C165 0.758 . S
C377 C15 0.761 . S
C391 C205 0.755 . S
C395 C55 0.762 . S
C409 C8 1.648 . S
C413 C128 1.644 1_545 S
C427 C48 1.649 . S
C431 C168 1.646 . S
C445 C88 1.646 1_455 S
C449 C208 1.651 . S
C463 C19 4.016 . S
C467 C49 4.071 . S
C481 C59 4.015 . S
C485 C89 4.072 . S
C499 C99 4.019 . S
C503 C129 4.072 . S
C517 C139 4.016 . S
C521 C169 4.071 . S
C535 C179 4.016 . S
C539 C209 4.073 . S
C553 C219 4.015 . S
C557 C9 4.073 . S
