# Generated by pormake.
# Topology vma, (5)-cn, num edge types: 1
# Building blocks:
#     Node 0, Type 0, BuildingBlock: BEQFEK_clean_sbu_0, # of connection points: 5
#     Node 1, Type 0, BuildingBlock: BEQFEK_clean_sbu_0, # of connection points: 5
#     Node 2, Type 0, BuildingBlock: BEQFEK_clean_sbu_0, # of connection points: 5
#     Node 3, Type 0, BuildingBlock: BEQFEK_clean_sbu_0, # of connection points: 5
#     Node 4, Type 0, BuildingBlock: BEQFEK_clean_sbu_0, # of connection points: 5
#     Node 5, Type 0, BuildingBlock: BEQFEK_clean_sbu_0, # of connection points: 5
#     Node 6, Type 0, BuildingBlock: BEQFEK_clean_sbu_0, # of connection points: 5
#     Node 7, Type 0, BuildingBlock: BEQFEK_clean_sbu_0, # of connection points: 5
#     Edge 8, Type (0, 0), BuildingBlock: UVAHIK_clean_linker_0, # of connection points: 2
#     Edge 9, Type (0, 0), BuildingBlock: UVAHIK_clean_linker_0, # of connection points: 2
#     Edge 10, Type (0, 0), BuildingBlock: UVAHIK_clean_linker_0, # of connection points: 2
#     Edge 11, Type (0, 0), BuildingBlock: UVAHIK_clean_linker_0, # of connection points: 2
#     Edge 12, Type (0, 0), BuildingBlock: UVAHIK_clean_linker_0, # of connection points: 2
#     Edge 13, Type (0, 0), BuildingBlock: UVAHIK_clean_linker_0, # of connection points: 2
#     Edge 14, Type (0, 0), BuildingBlock: UVAHIK_clean_linker_0, # of connection points: 2
#     Edge 15, Type (0, 0), BuildingBlock: UVAHIK_clean_linker_0, # of connection points: 2
#     Edge 16, Type (0, 0), BuildingBlock: UVAHIK_clean_linker_0, # of connection points: 2
#     Edge 17, Type (0, 0), BuildingBlock: UVAHIK_clean_linker_0, # of connection points: 2
#     Edge 18, Type (0, 0), BuildingBlock: UVAHIK_clean_linker_0, # of connection points: 2
#     Edge 19, Type (0, 0), BuildingBlock: UVAHIK_clean_linker_0, # of connection points: 2
#     Edge 20, Type (0, 0), BuildingBlock: UVAHIK_clean_linker_0, # of connection points: 2
#     Edge 21, Type (0, 0), BuildingBlock: UVAHIK_clean_linker_0, # of connection points: 2
#     Edge 22, Type (0, 0), BuildingBlock: UVAHIK_clean_linker_0, # of connection points: 2
#     Edge 23, Type (0, 0), BuildingBlock: UVAHIK_clean_linker_0, # of connection points: 2
#     Edge 24, Type (0, 0), BuildingBlock: UVAHIK_clean_linker_0, # of connection points: 2
#     Edge 25, Type (0, 0), BuildingBlock: UVAHIK_clean_linker_0, # of connection points: 2
#     Edge 26, Type (0, 0), BuildingBlock: UVAHIK_clean_linker_0, # of connection points: 2
#     Edge 27, Type (0, 0), BuildingBlock: UVAHIK_clean_linker_0, # of connection points: 2
# Relax obj value: 0.013
# Max RMSD: 0.085
# Mean RMSD: 0.085
data_MOF--net-vma--node1-BEQFEK_clean_sbu_0--edge1-UVAHIK_clean_linker_0
_symmetry_space_group_name_H-M    P1
_symmetry_Int_Tables_number       1
_symmetry_cell_setting            triclinic
loop_
_symmetry_equiv_pos_as_xyz
'x, y, z'
_cell_length_a     47.407463
_cell_length_b     36.878865
_cell_length_c     53.872714
_cell_angle_alpha  90.001692
_cell_angle_beta   99.446377
_cell_angle_gamma 89.967893
loop_
_atom_site_label
_atom_site_type_symbol
_atom_site_fract_x
_atom_site_fract_y
_atom_site_fract_z
_atom_type_partial_charge
Co0 Co 0.36856 0.12027 0.36364 0.0
Co1 Co 0.32462 0.16279 0.32431 0.0
C2 C 0.38771 0.16415 0.32282 0.0
O3 O 0.39338 0.14447 0.34243 0.0
O4 O 0.3621 0.17288 0.31372 0.0
C5 C 0.41745 0.10699 0.40225 0.0
O6 O 0.42741 0.13731 0.39425 0.0
C7 C 0.29906 0.22627 0.2966 0.0
C8 C 0.25435 0.20869 0.28466 0.0
C9 C 0.27273 0.23772 0.28378 0.0
N10 N 0.29628 0.19215 0.30462 0.0
N11 N 0.26957 0.18168 0.29725 0.0
C12 C 0.32577 0.2482 0.30334 0.0
H13 H 0.33865 0.23786 0.32099 0.0
H14 H 0.32062 0.27724 0.30567 0.0
H15 H 0.33876 0.24577 0.28806 0.0
C16 C 0.33949 0.16182 0.39912 0.0
N17 N 0.34384 0.15384 0.37565 0.0
N18 N 0.32544 0.17197 0.35929 0.0
C19 C 0.30878 0.19223 0.37192 0.0
C20 C 0.31712 0.18646 0.39757 0.0
C21 C 0.35462 0.14334 0.42228 0.0
H22 H 0.35476 0.11363 0.4191 0.0
H23 H 0.37713 0.15277 0.42611 0.0
H24 H 0.34433 0.14896 0.43893 0.0
O25 O 0.34593 0.08171 0.34406 0.0
O26 O 0.31434 0.11143 0.31643 0.0
H27 H 0.26843 0.19997 0.3482 0.0
H28 H 0.27574 0.23251 0.37359 0.0
C29 C 0.28528 0.21654 0.35962 0.0
H30 H 0.29391 0.23564 0.3469 0.0
H31 H 0.26163 0.15632 0.30122 0.0
O32 O 0.39303 0.09559 0.39197 0.0
C33 C 0.32499 0.08184 0.32592 0.0
Co34 Co 0.63092 0.11867 0.13682 0.0
Co35 Co 0.6761 0.1597 0.17582 0.0
C36 C 0.61287 0.16226 0.17796 0.0
O37 O 0.6064 0.14265 0.15841 0.0
O38 O 0.63876 0.17046 0.18641 0.0
C39 C 0.58043 0.10174 0.10068 0.0
O40 O 0.56837 0.12803 0.11164 0.0
C41 C 0.70214 0.22515 0.19976 0.0
C42 C 0.74248 0.20449 0.22156 0.0
C43 C 0.72651 0.23594 0.21621 0.0
N44 N 0.7038 0.18929 0.19586 0.0
N45 N 0.72791 0.17704 0.20895 0.0
C46 C 0.67823 0.24813 0.18665 0.0
H47 H 0.66695 0.23404 0.16967 0.0
H48 H 0.68645 0.27462 0.18116 0.0
H49 H 0.66255 0.25295 0.19949 0.0
C50 C 0.65927 0.16085 0.10118 0.0
N51 N 0.65564 0.15227 0.12474 0.0
N52 N 0.67532 0.16873 0.14092 0.0
C53 C 0.69248 0.18784 0.12809 0.0
C54 C 0.6828 0.18359 0.10246 0.0
C55 C 0.64036 0.14745 0.078 0.0
H56 H 0.61766 0.15088 0.08019 0.0
H57 H 0.64413 0.16232 0.06096 0.0
H58 H 0.64433 0.1181 0.07561 0.0
O59 O 0.65372 0.07965 0.15614 0.0
O60 O 0.68607 0.10845 0.18361 0.0
H61 H 0.73442 0.21002 0.12648 0.0
H62 H 0.71398 0.2335 0.14687 0.0
C63 C 0.71938 0.20641 0.14004 0.0
H64 H 0.73009 0.1904 0.1563 0.0
H65 H 0.73439 0.14999 0.20929 0.0
O66 O 0.60656 0.0941 0.10832 0.0
C67 C 0.67492 0.07918 0.17405 0.0
Co68 Co 0.63402 0.88151 0.63623 0.0
Co69 Co 0.67737 0.83885 0.67594 0.0
C70 C 0.61425 0.83815 0.6771 0.0
O71 O 0.60889 0.85777 0.65742 0.0
O72 O 0.63976 0.82911 0.68633 0.0
C73 C 0.58541 0.89457 0.59734 0.0
O74 O 0.57543 0.86428 0.60536 0.0
C75 C 0.70268 0.77589 0.70444 0.0
C76 C 0.74752 0.79327 0.71595 0.0
C77 C 0.72899 0.76454 0.71734 0.0
N78 N 0.70559 0.80969 0.6959 0.0
N79 N 0.73237 0.82005 0.70301 0.0
C80 C 0.67585 0.75407 0.69814 0.0
H81 H 0.66299 0.76388 0.68032 0.0
H82 H 0.68083 0.72488 0.69634 0.0
H83 H 0.66291 0.75732 0.7134 0.0
C84 C 0.66313 0.83916 0.60112 0.0
N85 N 0.6587 0.84757 0.6245 0.0
N86 N 0.6768 0.8293 0.64103 0.0
C87 C 0.6933 0.80847 0.62861 0.0
C88 C 0.68521 0.81404 0.6029 0.0
C89 C 0.64828 0.85752 0.5778 0.0
H90 H 0.64802 0.88724 0.5809 0.0
H91 H 0.6258 0.848 0.57372 0.0
H92 H 0.65887 0.85186 0.56132 0.0
O93 O 0.65665 0.9201 0.65579 0.0
O94 O 0.68771 0.89018 0.68375 0.0
H95 H 0.73351 0.79983 0.65234 0.0
H96 H 0.72539 0.7668 0.62734 0.0
C97 C 0.71626 0.78359 0.64114 0.0
H98 H 0.70725 0.76527 0.65411 0.0
H99 H 0.74041 0.84516 0.69863 0.0
O100 O 0.60978 0.90605 0.60771 0.0
C101 C 0.67735 0.91984 0.67413 0.0
Co102 Co 0.36826 0.87825 0.86307 0.0
Co103 Co 0.3241 0.83616 0.82356 0.0
C104 C 0.38732 0.83741 0.82111 0.0
O105 O 0.39334 0.85604 0.84118 0.0
O106 O 0.36163 0.8286 0.81242 0.0
C107 C 0.41777 0.89284 0.9007 0.0
O108 O 0.42905 0.86485 0.89085 0.0
C109 C 0.29844 0.77099 0.7972 0.0
C110 C 0.25593 0.79148 0.77992 0.0
C111 C 0.27293 0.76068 0.7823 0.0
N112 N 0.29637 0.80608 0.80355 0.0
N113 N 0.27092 0.81813 0.79312 0.0
C114 C 0.32476 0.7484 0.80451 0.0
H115 H 0.34386 0.76561 0.8099 0.0
H116 H 0.32231 0.73141 0.821 0.0
H117 H 0.32802 0.7302 0.78881 0.0
C118 C 0.34021 0.8349 0.8983 0.0
N119 N 0.3443 0.8434 0.87483 0.0
N120 N 0.32546 0.82598 0.85843 0.0
C121 C 0.30857 0.80603 0.87101 0.0
C122 C 0.31742 0.81091 0.89669 0.0
C123 C 0.35579 0.85269 0.92155 0.0
H124 H 0.35443 0.88257 0.9193 0.0
H125 H 0.37869 0.84493 0.92407 0.0
H126 H 0.34689 0.84495 0.93859 0.0
O127 O 0.34462 0.9168 0.84418 0.0
O128 O 0.31272 0.88737 0.81663 0.0
H129 H 0.26887 0.80094 0.84581 0.0
H130 H 0.2724 0.77035 0.87246 0.0
C131 C 0.28391 0.78361 0.85861 0.0
H132 H 0.29194 0.76216 0.84721 0.0
H133 H 0.26379 0.84463 0.79496 0.0
O134 O 0.39241 0.90254 0.89177 0.0
C135 C 0.32328 0.91685 0.82639 0.0
Co136 Co 0.86796 0.61821 0.36227 0.0
Co137 Co 0.82332 0.66058 0.32354 0.0
C138 C 0.88643 0.66279 0.3216 0.0
O139 O 0.89243 0.64334 0.34129 0.0
O140 O 0.86067 0.67093 0.31254 0.0
C141 C 0.91722 0.60464 0.40045 0.0
O142 O 0.92726 0.6348 0.39228 0.0
C143 C 0.79706 0.72372 0.29585 0.0
C144 C 0.75226 0.70588 0.28488 0.0
C145 C 0.77048 0.73492 0.28343 0.0
N146 N 0.79459 0.68971 0.30418 0.0
N147 N 0.76782 0.67908 0.29739 0.0
C148 C 0.82377 0.74581 0.30194 0.0
H149 H 0.83704 0.73579 0.3195 0.0
H150 H 0.81862 0.77488 0.30411 0.0
H151 H 0.83637 0.74312 0.2864 0.0
C152 C 0.83882 0.65878 0.39828 0.0
N153 N 0.84298 0.65111 0.3747 0.0
N154 N 0.8245 0.66948 0.35856 0.0
C155 C 0.80801 0.68961 0.37143 0.0
C156 C 0.8165 0.68347 0.39703 0.0
C157 C 0.8542 0.64012 0.42126 0.0
H158 H 0.85456 0.61048 0.41788 0.0
H159 H 0.87665 0.64983 0.42508 0.0
H160 H 0.84396 0.6453 0.438 0.0
O161 O 0.84597 0.57963 0.3421 0.0
O162 O 0.81294 0.60928 0.31575 0.0
H163 H 0.76735 0.69803 0.34837 0.0
H164 H 0.77572 0.73076 0.37353 0.0
C165 C 0.78466 0.71434 0.35942 0.0
H166 H 0.7932 0.73303 0.34639 0.0
H167 H 0.76008 0.65377 0.30171 0.0
O168 O 0.89266 0.59342 0.39039 0.0
C169 C 0.82446 0.57975 0.32449 0.0
Co170 Co 0.13282 0.61986 0.13655 0.0
Co171 Co 0.17677 0.66243 0.17595 0.0
C172 C 0.11352 0.66139 0.17815 0.0
O173 O 0.10766 0.64238 0.15825 0.0
O174 O 0.13917 0.67035 0.18688 0.0
C175 C 0.08344 0.6054 0.09886 0.0
O176 O 0.07245 0.63389 0.10839 0.0
C177 C 0.20257 0.7277 0.20215 0.0
C178 C 0.24517 0.70721 0.21917 0.0
C179 C 0.2282 0.73803 0.21686 0.0
N180 N 0.20456 0.69258 0.19582 0.0
N181 N 0.23007 0.68053 0.20611 0.0
C182 C 0.17624 0.75033 0.19497 0.0
H183 H 0.15708 0.73314 0.18987 0.0
H184 H 0.17849 0.76708 0.17832 0.0
H185 H 0.17322 0.76873 0.21063 0.0
C186 C 0.16093 0.66286 0.10117 0.0
N187 N 0.1568 0.65455 0.12466 0.0
N188 N 0.17555 0.67217 0.14102 0.0
C189 C 0.19242 0.69208 0.12838 0.0
C190 C 0.18364 0.68694 0.10272 0.0
C191 C 0.14542 0.64487 0.07797 0.0
H192 H 0.14662 0.61501 0.08041 0.0
H193 H 0.12254 0.6528 0.07529 0.0
H194 H 0.15447 0.6523 0.06096 0.0
O195 O 0.15645 0.58148 0.15565 0.0
O196 O 0.18809 0.61124 0.18322 0.0
H197 H 0.23208 0.69764 0.15356 0.0
H198 H 0.22838 0.72806 0.12682 0.0
C199 C 0.21694 0.71477 0.14071 0.0
H200 H 0.20879 0.7362 0.15205 0.0
H201 H 0.23716 0.65404 0.20425 0.0
O202 O 0.10865 0.59534 0.10797 0.0
C203 C 0.17768 0.58164 0.17354 0.0
Co204 Co 0.13176 0.37903 0.63573 0.0
Co205 Co 0.17453 0.33618 0.67604 0.0
C206 C 0.11105 0.33796 0.67681 0.0
O207 O 0.10591 0.35672 0.65675 0.0
O208 O 0.13646 0.32886 0.68627 0.0
C209 C 0.0836 0.39272 0.59671 0.0
O210 O 0.07312 0.36303 0.60513 0.0
C211 C 0.1996 0.27105 0.7032 0.0
C212 C 0.2423 0.29127 0.72014 0.0
C213 C 0.22511 0.26068 0.71812 0.0
N214 N 0.20188 0.30597 0.69647 0.0
N215 N 0.22744 0.31785 0.70674 0.0
C216 C 0.17314 0.24866 0.69617 0.0
H217 H 0.15407 0.26602 0.69105 0.0
H218 H 0.17526 0.23171 0.67957 0.0
H219 H 0.17006 0.23046 0.71191 0.0
C220 C 0.16065 0.33554 0.6012 0.0
N221 N 0.15598 0.34409 0.62448 0.0
N222 N 0.1741 0.32614 0.6412 0.0
C223 C 0.19106 0.30567 0.629 0.0
C224 C 0.18302 0.31085 0.60324 0.0
C225 C 0.146 0.35377 0.57775 0.0
H226 H 0.14662 0.38358 0.58049 0.0
H227 H 0.12325 0.34527 0.57404 0.0
H228 H 0.15613 0.34705 0.56119 0.0
O229 O 0.15504 0.41721 0.65519 0.0
O230 O 0.18597 0.38733 0.68333 0.0
H231 H 0.23029 0.29906 0.65461 0.0
H232 H 0.22615 0.26797 0.62821 0.0
C233 C 0.21486 0.28223 0.64181 0.0
H234 H 0.20599 0.26157 0.65327 0.0
H235 H 0.23475 0.34418 0.70458 0.0
O236 O 0.10818 0.40373 0.60689 0.0
C237 C 0.17588 0.41696 0.67343 0.0
Co238 Co 0.86737 0.38111 0.86395 0.0
Co239 Co 0.82201 0.33988 0.82508 0.0
C240 C 0.88507 0.33989 0.82166 0.0
O241 O 0.89168 0.35859 0.84163 0.0
O242 O 0.85919 0.33144 0.81338 0.0
C243 C 0.91806 0.39754 0.89986 0.0
O244 O 0.92975 0.37094 0.8889 0.0
C245 C 0.79553 0.27416 0.80082 0.0
C246 C 0.75476 0.29542 0.78017 0.0
C247 C 0.77071 0.2639 0.78485 0.0
N248 N 0.79407 0.3099 0.80541 0.0
N249 N 0.76963 0.32242 0.79306 0.0
C250 C 0.82098 0.25113 0.81051 0.0
H251 H 0.83999 0.26811 0.81708 0.0
H252 H 0.81648 0.23498 0.82678 0.0
H253 H 0.8256 0.23216 0.79569 0.0
C254 C 0.84046 0.33732 0.89968 0.0
N255 N 0.84362 0.34637 0.87609 0.0
N256 N 0.82392 0.3298 0.85999 0.0
C257 C 0.80717 0.31019 0.87293 0.0
C258 C 0.81718 0.31418 0.89853 0.0
C259 C 0.85938 0.35092 0.92278 0.0
H260 H 0.88206 0.34779 0.92048 0.0
H261 H 0.85586 0.33595 0.93986 0.0
H262 H 0.8552 0.38021 0.9252 0.0
O263 O 0.84356 0.4199 0.84537 0.0
O264 O 0.81092 0.39104 0.81818 0.0
H265 H 0.76554 0.28734 0.87506 0.0
H266 H 0.78529 0.26525 0.85351 0.0
C267 C 0.78007 0.29186 0.86118 0.0
H268 H 0.76883 0.3086 0.84554 0.0
H269 H 0.76322 0.34948 0.79323 0.0
O270 O 0.89199 0.40558 0.89233 0.0
C271 C 0.82193 0.42032 0.82786 0.0
C272 C 0.18097 0.27874 0.56217 0.0
C273 C 0.19706 0.29673 0.58267 0.0
C274 C 0.19399 0.26655 0.54223 0.0
C275 C 0.26435 0.24353 0.52539 0.0
H276 H 0.22529 0.25768 0.457 0.0
C277 C 0.31965 0.21738 0.43916 0.0
C278 C 0.30335 0.20017 0.41842 0.0
C279 C 0.30674 0.22944 0.4592 0.0
C280 C 0.23635 0.25316 0.47598 0.0
H281 H 0.23909 0.31669 0.59847 0.0
H282 H 0.26203 0.29528 0.56371 0.0
H283 H 0.20259 0.27751 0.49213 0.0
H284 H 0.26104 0.18145 0.4023 0.0
H285 H 0.23835 0.2024 0.43729 0.0
H286 H 0.29809 0.2191 0.50926 0.0
C287 C 0.23946 0.29005 0.56313 0.0
C288 C 0.22333 0.26451 0.49612 0.0
C289 C 0.22638 0.3023 0.58301 0.0
C290 C 0.27394 0.19519 0.41797 0.0
C291 C 0.261 0.20722 0.43798 0.0
C292 C 0.27736 0.23213 0.50525 0.0
C293 C 0.22339 0.27216 0.54245 0.0
C294 C 0.23717 0.25983 0.52106 0.0
C295 C 0.27725 0.22443 0.45887 0.0
C296 C 0.26352 0.2368 0.4803 0.0
H297 H 0.15829 0.27415 0.56158 0.0
H298 H 0.18109 0.25249 0.52673 0.0
H299 H 0.27541 0.23908 0.54439 0.0
H300 H 0.34238 0.22157 0.43981 0.0
H301 H 0.31981 0.243 0.47484 0.0
C302 C 0.70259 0.17323 0.0628 0.0
C303 C 0.69632 0.19715 0.0814 0.0
C304 C 0.71564 0.18588 0.04303 0.0
C305 C 0.75916 0.26149 0.02501 0.0
H306 H 0.73373 0.22596 0.95728 0.0
C307 C 0.79753 0.32435 0.93827 0.0
C308 C 0.80388 0.30048 0.91968 0.0
C309 C 0.78459 0.3116 0.95808 0.0
C310 C 0.74131 0.23583 0.97613 0.0
H311 H 0.69867 0.25288 0.09412 0.0
H312 H 0.72142 0.27524 0.05947 0.0
H313 H 0.71058 0.20428 0.99167 0.0
H314 H 0.80176 0.24474 0.90698 0.0
H315 H 0.77918 0.22219 0.94169 0.0
H316 H 0.78987 0.29308 0.00946 0.0
C317 C 0.71652 0.24663 0.06025 0.0
C318 C 0.72803 0.22342 0.99584 0.0
C319 C 0.70344 0.23393 0.08001 0.0
C320 C 0.79696 0.26365 0.9211 0.0
C321 C 0.78396 0.25084 0.9409 0.0
C322 C 0.77243 0.27391 0.0053 0.0
C323 C 0.72277 0.22274 0.04151 0.0
C324 C 0.73679 0.2361 0.02052 0.0
C325 C 0.77763 0.27469 0.95963 0.0
C326 C 0.76366 0.26124 0.98062 0.0
H327 H 0.69775 0.14461 0.06374 0.0
H328 H 0.7206 0.16665 0.02917 0.0
H329 H 0.76674 0.27137 0.04386 0.0
H330 H 0.80219 0.35302 0.9373 0.0
H331 H 0.77956 0.33079 0.97193 0.0
C332 C 0.68213 0.78262 0.56142 0.0
C333 C 0.69877 0.79939 0.58218 0.0
C334 C 0.69485 0.76967 0.5415 0.0
C335 C 0.76464 0.74237 0.52504 0.0
H336 H 0.72647 0.75812 0.45655 0.0
C337 C 0.8197 0.71385 0.43891 0.0
C338 C 0.80305 0.69725 0.41808 0.0
C339 C 0.80703 0.72632 0.45899 0.0
C340 C 0.73727 0.75315 0.47556 0.0
H341 H 0.74152 0.8163 0.59847 0.0
H342 H 0.76388 0.79371 0.56371 0.0
H343 H 0.70418 0.77937 0.49156 0.0
H344 H 0.76037 0.67999 0.4019 0.0
H345 H 0.73809 0.70175 0.43692 0.0
H346 H 0.79775 0.71619 0.50903 0.0
C347 C 0.74109 0.78998 0.56291 0.0
C348 C 0.72448 0.76531 0.49564 0.0
C349 C 0.72834 0.80294 0.58279 0.0
C350 C 0.77355 0.69323 0.41762 0.0
C351 C 0.76084 0.70572 0.43765 0.0
C352 C 0.77744 0.73022 0.50496 0.0
C353 C 0.72449 0.77329 0.54198 0.0
C354 C 0.73801 0.76007 0.52063 0.0
C355 C 0.77743 0.72239 0.4586 0.0
C356 C 0.7639 0.73546 0.47998 0.0
H357 H 0.65928 0.77948 0.56064 0.0
H358 H 0.68151 0.75653 0.52583 0.0
H359 H 0.77545 0.73742 0.54406 0.0
H360 H 0.84251 0.71734 0.43958 0.0
H361 H 0.82036 0.73942 0.47469 0.0
C362 C 0.31941 0.7781 0.93752 0.0
C363 C 0.30356 0.79748 0.91756 0.0
C364 C 0.30645 0.76605 0.95753 0.0
C365 C 0.2443 0.78329 0.98934 0.0
H366 H 0.26141 0.68745 0.01742 0.0
C367 C 0.18155 0.71951 0.06179 0.0
C368 C 0.19746 0.70033 0.08182 0.0
C369 C 0.19448 0.73155 0.04176 0.0
C370 C 0.25664 0.71444 0.00998 0.0
H371 H 0.26205 0.82005 0.90281 0.0
H372 H 0.23912 0.79846 0.9375 0.0
H373 H 0.28403 0.70796 0.98242 0.0
H374 H 0.23905 0.67807 0.09667 0.0
H375 H 0.26192 0.69959 0.06191 0.0
H376 H 0.21689 0.78976 0.0169 0.0
C377 C 0.2616 0.79275 0.93789 0.0
C378 C 0.26961 0.7262 0.98991 0.0
C379 C 0.27459 0.80477 0.91791 0.0
C380 C 0.22646 0.6932 0.08151 0.0
C381 C 0.23942 0.70518 0.0615 0.0
C382 C 0.23131 0.77153 0.0094 0.0
C383 C 0.27738 0.77329 0.95798 0.0
C384 C 0.2636 0.76077 0.97934 0.0
C385 C 0.22358 0.72446 0.04135 0.0
C386 C 0.23734 0.73697 0.01997 0.0
H387 H 0.34185 0.77235 0.93763 0.0
H388 H 0.31931 0.75156 0.97285 0.0
H389 H 0.23953 0.81029 0.98191 0.0
H390 H 0.15909 0.72514 0.06165 0.0
H391 H 0.18159 0.74592 0.0264 0.0
C392 C 0.59738 0.18459 0.21751 0.0
C393 C 0.59018 0.17329 0.19233 0.0
C394 C 0.57606 0.19079 0.2321 0.0
C395 C 0.50005 0.20984 0.23065 0.0
H396 H 0.50821 0.15129 0.29117 0.0
C397 C 0.40558 0.18229 0.28341 0.0
C398 C 0.4112 0.17472 0.30931 0.0
C399 C 0.42804 0.18793 0.26997 0.0
C400 C 0.50575 0.16859 0.27473 0.0
H401 H 0.55488 0.1617 0.16232 0.0
H402 H 0.51761 0.1733 0.1878 0.0
H403 H 0.54629 0.15199 0.26603 0.0
H404 H 0.44461 0.1696 0.34178 0.0
H405 H 0.48371 0.18126 0.3187 0.0
H406 H 0.45971 0.22696 0.23942 0.0
C407 C 0.5398 0.177 0.19621 0.0
C408 C 0.52759 0.16876 0.26023 0.0
C409 C 0.56114 0.17019 0.18169 0.0
C410 C 0.43964 0.17489 0.32175 0.0
C411 C 0.46207 0.18128 0.30842 0.0
C412 C 0.47836 0.21024 0.24542 0.0
C413 C 0.54712 0.18647 0.2217 0.0
C414 C 0.52478 0.18894 0.23789 0.0
C415 C 0.45666 0.18684 0.2822 0.0
C416 C 0.48069 0.18914 0.26748 0.0
H417 H 0.61953 0.18728 0.22629 0.0
H418 H 0.58221 0.19829 0.25169 0.0
H419 H 0.49751 0.22583 0.21356 0.0
H420 H 0.38387 0.1822 0.27326 0.0
H421 H 0.42287 0.19162 0.2498 0.0
C422 C 0.56214 0.8286 0.67804 0.0
C423 C 0.59057 0.82804 0.69052 0.0
C424 C 0.53959 0.8226 0.6913 0.0
C425 C 0.52279 0.79309 0.754 0.0
H426 H 0.45537 0.85235 0.73362 0.0
C427 C 0.43925 0.83116 0.81753 0.0
C428 C 0.41029 0.82796 0.80663 0.0
C429 C 0.46081 0.82529 0.8031 0.0
C430 C 0.47394 0.83534 0.73936 0.0
H431 H 0.61772 0.81974 0.72656 0.0
H432 H 0.57853 0.81097 0.7499 0.0
H433 H 0.49369 0.85316 0.70872 0.0
H434 H 0.38135 0.81501 0.77221 0.0
H435 H 0.41905 0.80566 0.74697 0.0
H436 H 0.50325 0.77704 0.78554 0.0
C437 C 0.57346 0.81493 0.72975 0.0
C438 C 0.49591 0.83556 0.725 0.0
C439 C 0.59602 0.8202 0.71638 0.0
C440 C 0.40342 0.81773 0.7812 0.0
C441 C 0.42496 0.81249 0.7667 0.0
C442 C 0.50097 0.79342 0.76864 0.0
C443 C 0.54487 0.81669 0.71749 0.0
C444 C 0.52076 0.81458 0.73214 0.0
C445 C 0.45382 0.8167 0.77742 0.0
C446 C 0.47641 0.81466 0.76147 0.0
H447 H 0.55728 0.83413 0.65804 0.0
H448 H 0.51797 0.82314 0.681 0.0
H449 H 0.54126 0.77604 0.75991 0.0
H450 H 0.44525 0.83885 0.83709 0.0
H451 H 0.48293 0.82889 0.81176 0.0
C452 C 0.09702 0.6826 0.21755 0.0
C453 C 0.09038 0.67126 0.19234 0.0
C454 C 0.07534 0.68834 0.23182 0.0
C455 C 0.99893 0.70637 0.22909 0.0
H456 H 0.00693 0.64998 0.29056 0.0
C457 C 0.90414 0.68011 0.28193 0.0
C458 C 0.90976 0.67355 0.30796 0.0
C459 C 0.92661 0.68545 0.26843 0.0
C460 C 0.00449 0.66668 0.27382 0.0
H461 H 0.05565 0.65893 0.16199 0.0
H462 H 0.01772 0.66967 0.18691 0.0
H463 H 0.04532 0.65015 0.26577 0.0
H464 H 0.94314 0.67005 0.34057 0.0
H465 H 0.9822 0.68121 0.31738 0.0
H466 H 0.95828 0.72342 0.23722 0.0
C467 C 0.03977 0.67379 0.19559 0.0
C468 C 0.02652 0.66653 0.25953 0.0
C469 C 0.06149 0.66746 0.18139 0.0
C470 C 0.93817 0.67455 0.32045 0.0
C471 C 0.96059 0.68063 0.30706 0.0
C472 C 0.97703 0.70707 0.24364 0.0
C473 C 0.04654 0.68349 0.22108 0.0
C474 C 0.02382 0.68598 0.23689 0.0
C475 C 0.95522 0.68504 0.28073 0.0
C476 C 0.97933 0.68681 0.26607 0.0
H477 H 0.11904 0.68584 0.22657 0.0
H478 H 0.08109 0.69604 0.25141 0.0
H479 H 0.99645 0.72181 0.21176 0.0
H480 H 0.88245 0.67935 0.27175 0.0
H481 H 0.92148 0.6883 0.2482 0.0
C482 C 0.09255 0.32091 0.71614 0.0
C483 C 0.08722 0.32858 0.69025 0.0
C484 C 0.06991 0.31581 0.72944 0.0
C485 C 0.99244 0.33656 0.72458 0.0
H486 H 0.99961 0.27753 0.78488 0.0
C487 C 0.9003 0.32007 0.78141 0.0
C488 C 0.90762 0.32994 0.80687 0.0
C489 C 0.92156 0.31444 0.76666 0.0
C490 C 0.99736 0.29405 0.76804 0.0
H491 H 0.05405 0.33474 0.65769 0.0
H492 H 0.01459 0.32417 0.68056 0.0
H493 H 0.03756 0.2765 0.75921 0.0
H494 H 0.94303 0.33976 0.83713 0.0
H495 H 0.98018 0.32917 0.81137 0.0
H496 H 0.95203 0.35361 0.73335 0.0
C497 C 0.03619 0.32353 0.6909 0.0
C498 C 0.01915 0.29369 0.75338 0.0
C499 C 0.05882 0.32932 0.6777 0.0
C500 C 0.93669 0.33237 0.81755 0.0
C501 C 0.95796 0.32613 0.80287 0.0
C502 C 0.9705 0.33638 0.73898 0.0
C503 C 0.04137 0.3176 0.71709 0.0
C504 C 0.01721 0.31542 0.73165 0.0
C505 C 0.95055 0.31792 0.77717 0.0
C506 C 0.97293 0.31556 0.76102 0.0
H507 H 0.11422 0.32032 0.72638 0.0
H508 H 0.0749 0.31187 0.74959 0.0
H509 H 0.9903 0.35429 0.70837 0.0
H510 H 0.87812 0.31796 0.7726 0.0
H511 H 0.91534 0.30792 0.74691 0.0
C512 C 0.22779 0.80625 0.21585 0.0
C513 C 0.23664 0.77372 0.22834 0.0
C514 C 0.23642 0.83967 0.22676 0.0
C515 C 0.29282 0.88178 0.27255 0.0
H516 H 0.23865 0.96074 0.27194 0.0
C517 C 0.32298 0.014 0.32711 0.0
C518 C 0.31332 0.0468 0.31539 0.0
C519 C 0.3128 0.98084 0.31681 0.0
C520 C 0.25412 0.93911 0.27201 0.0
H521 H 0.26204 0.75071 0.26175 0.0
H522 H 0.27721 0.80907 0.28076 0.0
H523 H 0.22256 0.90252 0.25318 0.0
H524 H 0.2851 0.0704 0.28371 0.0
H525 H 0.26771 0.01248 0.26549 0.0
H526 H 0.32447 0.91829 0.29103 0.0
C527 C 0.26351 0.80872 0.26258 0.0
C528 C 0.24488 0.90576 0.2613 0.0
C529 C 0.25476 0.77533 0.25173 0.0
C530 C 0.29294 0.04566 0.29327 0.0
C531 C 0.28286 0.01243 0.28288 0.0
C532 C 0.30209 0.91514 0.28313 0.0
C533 C 0.25442 0.84126 0.25021 0.0
C534 C 0.26413 0.87672 0.26153 0.0
C535 C 0.29282 0.97961 0.29444 0.0
C536 C 0.28284 0.94419 0.28306 0.0
H537 H 0.2149 0.80608 0.19735 0.0
H538 H 0.22958 0.86428 0.21653 0.0
H539 H 0.30826 0.8601 0.27263 0.0
H540 H 0.3385 0.01384 0.34428 0.0
H541 H 0.32053 0.95613 0.32647 0.0
C542 C 0.7069 0.04232 0.20629 0.0
C543 C 0.68644 0.04388 0.18424 0.0
C544 C 0.71696 0.00892 0.21638 0.0
C545 C 0.74545 0.93549 0.22702 0.0
H546 H 0.69112 0.85666 0.22559 0.0
C547 C 0.77997 0.78983 0.25852 0.0
C548 C 0.76196 0.77057 0.27206 0.0
C549 C 0.77136 0.8232 0.24747 0.0
C550 C 0.70655 0.87845 0.22636 0.0
H551 H 0.6611 0.01151 0.15513 0.0
H552 H 0.67905 0.95342 0.17242 0.0
H553 H 0.6752 0.91492 0.20734 0.0
H554 H 0.72081 0.77086 0.28456 0.0
H555 H 0.70594 0.82933 0.26576 0.0
H556 H 0.77659 0.89927 0.24681 0.0
C557 C 0.68686 0.97795 0.18226 0.0
C558 C 0.69749 0.91176 0.21555 0.0
C559 C 0.67668 0.01131 0.17226 0.0
C560 C 0.73511 0.78514 0.27419 0.0
C561 C 0.72655 0.81855 0.2633 0.0
C562 C 0.75449 0.90218 0.23794 0.0
C563 C 0.70692 0.97631 0.20457 0.0
C564 C 0.71681 0.94072 0.21577 0.0
C565 C 0.74452 0.83797 0.24972 0.0
C566 C 0.73512 0.87329 0.23781 0.0
H567 H 0.71483 0.06687 0.21605 0.0
H568 H 0.73213 0.00867 0.23376 0.0
H569 H 0.76097 0.95707 0.22729 0.0
H570 H 0.80044 0.77877 0.25592 0.0
H571 H 0.78549 0.83707 0.23674 0.0
C572 C 0.68013 0.98762 0.67281 0.0
C573 C 0.68896 0.95477 0.68489 0.0
C574 C 0.69004 0.0207 0.68343 0.0
C575 C 0.74661 0.06203 0.73071 0.0
H576 H 0.69256 0.1416 0.72707 0.0
C577 C 0.77011 0.19563 0.78686 0.0
C578 C 0.7625 0.22796 0.77362 0.0
C579 C 0.76186 0.16205 0.77598 0.0
C580 C 0.70797 0.11974 0.72804 0.0
H581 H 0.71547 0.93099 0.7175 0.0
H582 H 0.73233 0.98877 0.73627 0.0
H583 H 0.67709 0.08345 0.7082 0.0
H584 H 0.73969 0.2504 0.73882 0.0
H585 H 0.72514 0.19185 0.71994 0.0
H586 H 0.77736 0.09844 0.75092 0.0
C587 C 0.71808 0.98893 0.71837 0.0
C588 C 0.69915 0.08641 0.71717 0.0
C589 C 0.7083 0.95578 0.70765 0.0
C590 C 0.74598 0.22598 0.74949 0.0
C591 C 0.73758 0.19247 0.73869 0.0
C592 C 0.75539 0.09536 0.74173 0.0
C593 C 0.70887 0.02181 0.70648 0.0
C594 C 0.71838 0.05718 0.71825 0.0
C595 C 0.74547 0.16014 0.7518 0.0
C596 C 0.73618 0.1246 0.7404 0.0
H597 H 0.66544 0.98786 0.65515 0.0
H598 H 0.68295 0.04545 0.6735 0.0
H599 H 0.76209 0.04026 0.73162 0.0
H600 H 0.78173 0.19608 0.80586 0.0
H601 H 0.76774 0.1376 0.78674 0.0
C602 C 0.2515 0.22372 0.75329 0.0
C603 C 0.23334 0.22511 0.72992 0.0
C604 C 0.26019 0.19043 0.76436 0.0
C605 C 0.24162 0.09335 0.76363 0.0
H606 H 0.32137 0.08091 0.79293 0.0
C607 C 0.29036 0.95337 0.79458 0.0
C608 C 0.31111 0.95199 0.81644 0.0
C609 C 0.27995 0.9867 0.78459 0.0
C610 C 0.29894 0.08404 0.78517 0.0
H611 H 0.21142 0.19242 0.6992 0.0
H612 H 0.22601 0.13442 0.71876 0.0
H613 H 0.30495 0.13907 0.7746 0.0
H614 H 0.33656 0.98461 0.84534 0.0
H615 H 0.31803 0.04252 0.82822 0.0
H616 H 0.23557 0.03834 0.7743 0.0
C617 C 0.23293 0.15913 0.72882 0.0
C618 C 0.28955 0.11738 0.77463 0.0
C619 C 0.22435 0.19245 0.71769 0.0
C620 C 0.32075 0.98465 0.82836 0.0
C621 C 0.31025 0.01792 0.81845 0.0
C622 C 0.25098 0.06 0.77431 0.0
C623 C 0.25101 0.15776 0.75224 0.0
C624 C 0.26081 0.1224 0.76371 0.0
C625 C 0.28996 0.01939 0.79629 0.0
C626 C 0.27978 0.05493 0.78518 0.0
H627 H 0.25889 0.24844 0.76312 0.0
H628 H 0.27397 0.19027 0.78251 0.0
H629 H 0.21927 0.09654 0.75561 0.0
H630 H 0.2825 0.92875 0.78487 0.0
H631 H 0.26457 0.98683 0.76734 0.0
C632 C 0.78527 0.54237 0.30003 0.0
C633 C 0.81312 0.54482 0.31366 0.0
C634 C 0.77475 0.50926 0.28975 0.0
C635 C 0.78967 0.4098 0.29357 0.0
H636 H 0.73887 0.40803 0.22933 0.0
C637 C 0.76432 0.28002 0.23436 0.0
C638 C 0.73514 0.27241 0.22645 0.0
C639 C 0.77302 0.31354 0.24499 0.0
C640 C 0.75292 0.40824 0.24735 0.0
H641 H 0.85199 0.51469 0.32682 0.0
H642 H 0.83422 0.45752 0.30812 0.0
H643 H 0.75583 0.46608 0.24783 0.0
H644 H 0.69224 0.29405 0.22498 0.0
H645 H 0.70762 0.35309 0.24222 0.0
H646 H 0.78748 0.35178 0.29246 0.0
C647 C 0.81999 0.48069 0.30604 0.0
C648 C 0.76253 0.44145 0.25807 0.0
C649 C 0.8303 0.5136 0.31665 0.0
C650 C 0.71489 0.29922 0.2296 0.0
C651 C 0.72365 0.33302 0.23984 0.0
C652 C 0.78045 0.37665 0.28263 0.0
C653 C 0.79202 0.47797 0.29253 0.0
C654 C 0.78113 0.44269 0.28131 0.0
C655 C 0.75277 0.34035 0.24776 0.0
C656 C 0.76207 0.37558 0.25942 0.0
H657 H 0.77145 0.56595 0.29754 0.0
H658 H 0.75295 0.50818 0.27987 0.0
H659 H 0.80337 0.40955 0.31174 0.0
H660 H 0.78053 0.26002 0.23235 0.0
H661 H 0.79563 0.31862 0.2509 0.0
C662 C 0.18086 0.51392 0.17152 0.0
C663 C 0.18986 0.54662 0.1837 0.0
C664 C 0.19125 0.48073 0.18165 0.0
C665 C 0.20125 0.41476 0.21512 0.0
H666 H 0.27973 0.40276 0.24816 0.0
C667 C 0.23754 0.28806 0.27411 0.0
C668 C 0.26456 0.27356 0.27252 0.0
C669 C 0.22925 0.32159 0.26325 0.0
C670 C 0.25781 0.40555 0.2388 0.0
H671 H 0.21726 0.57005 0.21593 0.0
H672 H 0.23494 0.51208 0.23388 0.0
H673 H 0.26441 0.46053 0.22834 0.0
H674 H 0.30367 0.28205 0.25739 0.0
H675 H 0.2892 0.34055 0.23827 0.0
H676 H 0.19475 0.35963 0.22496 0.0
C677 C 0.22018 0.51211 0.21625 0.0
C678 C 0.24893 0.43882 0.2277 0.0
C679 C 0.20992 0.54537 0.20603 0.0
C680 C 0.28304 0.29304 0.25958 0.0
C681 C 0.2747 0.32653 0.24856 0.0
C682 C 0.21013 0.38151 0.2261 0.0
C683 C 0.21075 0.47936 0.20432 0.0
C684 C 0.22051 0.44386 0.21577 0.0
C685 C 0.24767 0.34119 0.25023 0.0
C686 C 0.23848 0.37652 0.2382 0.0
H687 H 0.16564 0.51386 0.15417 0.0
H688 H 0.18396 0.45609 0.17168 0.0
H689 H 0.1791 0.41776 0.20641 0.0
H690 H 0.22287 0.27364 0.28402 0.0
H691 H 0.20847 0.33227 0.26526 0.0
C692 C 0.17882 0.4847 0.6716 0.0
C693 C 0.18797 0.45195 0.68368 0.0
C694 C 0.18919 0.51786 0.68175 0.0
C695 C 0.24747 0.55957 0.727 0.0
H696 H 0.19349 0.63895 0.72547 0.0
C697 C 0.27332 0.69247 0.78321 0.0
C698 C 0.26464 0.72503 0.77069 0.0
C699 C 0.26482 0.65907 0.7722 0.0
C700 C 0.2089 0.61717 0.7258 0.0
H701 H 0.21559 0.42845 0.71577 0.0
H702 H 0.23332 0.48641 0.7337 0.0
H703 H 0.17735 0.58077 0.70704 0.0
H704 H 0.23969 0.74813 0.7371 0.0
H705 H 0.22476 0.68982 0.71788 0.0
H706 H 0.27891 0.59606 0.7461 0.0
C707 C 0.21841 0.48639 0.71617 0.0
C708 C 0.19967 0.58382 0.7152 0.0
C709 C 0.20812 0.45315 0.70595 0.0
C710 C 0.24684 0.72348 0.74715 0.0
C711 C 0.23823 0.69012 0.73618 0.0
C712 C 0.25667 0.59294 0.73771 0.0
C713 C 0.20885 0.51916 0.7043 0.0
C714 C 0.21884 0.55462 0.7156 0.0
C715 C 0.24713 0.65754 0.74859 0.0
C716 C 0.23748 0.62211 0.73718 0.0
H717 H 0.1635 0.48481 0.65431 0.0
H718 H 0.18179 0.54253 0.67185 0.0
H719 H 0.26288 0.53782 0.72734 0.0
H720 H 0.28597 0.6926 0.80182 0.0
H721 H 0.27151 0.63445 0.78246 0.0
C722 C 0.76387 0.71397 0.72747 0.0
C723 C 0.73702 0.72899 0.72909 0.0
C724 C 0.77196 0.68062 0.7387 0.0
C725 C 0.7428 0.59785 0.7641 0.0
H726 H 0.82168 0.58437 0.79565 0.0
C727 C 0.81958 0.48809 0.8303 0.0
C728 C 0.80997 0.45562 0.81809 0.0
C729 C 0.80938 0.52151 0.82045 0.0
C730 C 0.79948 0.58775 0.78719 0.0
H731 H 0.69807 0.72169 0.74467 0.0
H732 H 0.71221 0.6635 0.76444 0.0
H733 H 0.80644 0.64265 0.77707 0.0
H734 H 0.78169 0.43287 0.78613 0.0
H735 H 0.76437 0.4912 0.76867 0.0
H736 H 0.73573 0.54313 0.77481 0.0
C737 C 0.7267 0.67696 0.75385 0.0
C738 C 0.79083 0.62106 0.77619 0.0
C739 C 0.71855 0.71027 0.74247 0.0
C740 C 0.7895 0.45735 0.79605 0.0
C741 C 0.77944 0.49082 0.78611 0.0
C742 C 0.75144 0.56453 0.77522 0.0
C743 C 0.75353 0.66173 0.75211 0.0
C744 C 0.76244 0.62647 0.76435 0.0
C745 C 0.78947 0.52334 0.79805 0.0
C746 C 0.77993 0.55902 0.78681 0.0
H747 H 0.77852 0.72783 0.71724 0.0
H748 H 0.79258 0.66948 0.73662 0.0
H749 H 0.72083 0.60096 0.75494 0.0
H750 H 0.83515 0.48776 0.84743 0.0
H751 H 0.81716 0.54597 0.83041 0.0
C752 C 0.46195 0.09742 0.43386 0.0
C753 C 0.43455 0.08582 0.42274 0.0
C754 C 0.47826 0.07683 0.4528 0.0
C755 C 0.48558 0.98394 0.47871 0.0
H756 H 0.52924 0.031 0.53702 0.0
C757 C 0.541 0.90404 0.56562 0.0
C758 C 0.56838 0.91566 0.57677 0.0
C759 C 0.52472 0.92459 0.54663 0.0
C760 C 0.51742 0.01747 0.52071 0.0
H761 H 0.40261 0.04374 0.42309 0.0
H762 H 0.43093 0.0081 0.4562 0.0
H763 H 0.50073 0.0676 0.50445 0.0
H764 H 0.60032 0.95774 0.57644 0.0
H765 H 0.57206 0.99331 0.54325 0.0
H766 H 0.50227 0.93381 0.49498 0.0
C767 C 0.44 0.03281 0.45004 0.0
C768 C 0.50109 0.03845 0.50205 0.0
C769 C 0.4237 0.05338 0.43115 0.0
C770 C 0.57924 0.94807 0.56835 0.0
C771 C 0.56297 0.96861 0.54942 0.0
C772 C 0.50192 0.96296 0.49737 0.0
C773 C 0.46752 0.04419 0.46101 0.0
C774 C 0.48497 0.02193 0.48084 0.0
C775 C 0.53547 0.95722 0.53842 0.0
C776 C 0.51803 0.97948 0.51858 0.0
H777 H 0.47095 0.12224 0.4278 0.0
H778 H 0.4995 0.08616 0.46071 0.0
H779 H 0.47376 0.97041 0.46241 0.0
H780 H 0.53198 0.87923 0.57169 0.0
H781 H 0.50349 0.91525 0.53871 0.0
C782 C 0.53488 0.08886 0.07116 0.0
C783 C 0.56381 0.08083 0.0798 0.0
C784 C 0.51912 0.06852 0.05179 0.0
C785 C 0.52727 0.00646 0.99944 0.0
H786 H 0.44944 0.97891 0.00434 0.0
C787 C 0.46308 0.90446 0.93085 0.0
C788 C 0.4344 0.91333 0.92179 0.0
C789 C 0.47889 0.92449 0.95037 0.0
C790 C 0.47106 0.98667 0.00258 0.0
H791 H 0.5989 0.04523 0.07474 0.0
H792 H 0.57134 0.00958 0.04122 0.0
H793 H 0.47696 0.01521 0.03763 0.0
H794 H 0.39975 0.94996 0.92634 0.0
H795 H 0.42738 0.98494 0.96022 0.0
H796 H 0.52136 0.97784 0.9644 0.0
C797 C 0.56091 0.03187 0.04918 0.0
C798 C 0.48682 0.00753 0.02163 0.0
C799 C 0.57667 0.0522 0.06851 0.0
C800 C 0.42181 0.94239 0.93286 0.0
C801 C 0.43759 0.96233 0.9524 0.0
C802 C 0.51152 0.98555 0.9804 0.0
C803 C 0.53192 0.0397 0.04063 0.0
C804 C 0.5151 0.0177 0.02028 0.0
C805 C 0.46635 0.95372 0.96131 0.0
C806 C 0.48323 0.97546 0.98174 0.0
H807 H 0.52436 0.11082 0.07938 0.0
H808 H 0.49694 0.07559 0.0454 0.0
H809 H 0.54885 0.01428 0.99763 0.0
H810 H 0.4734 0.88217 0.92278 0.0
H811 H 0.50091 0.9169 0.95703 0.0
C812 C 0.03921 0.4026 0.56506 0.0
C813 C 0.06686 0.41365 0.57589 0.0
C814 C 0.02317 0.42306 0.5459 0.0
C815 C 0.02987 0.49281 0.49788 0.0
H816 H 0.94943 0.5091 0.4997 0.0
C817 C 0.96199 0.5947 0.43167 0.0
C818 C 0.93432 0.58354 0.42097 0.0
C819 C 0.97824 0.5742 0.4507 0.0
C820 C 0.9718 0.5045 0.49877 0.0
H821 H 0.09948 0.45468 0.57488 0.0
H822 H 0.07141 0.49045 0.54168 0.0
H823 H 0.97767 0.47222 0.53223 0.0
H824 H 0.90194 0.54221 0.42201 0.0
H825 H 0.93034 0.50643 0.45498 0.0
H826 H 0.02399 0.52513 0.46442 0.0
C827 C 0.06222 0.46578 0.5478 0.0
C828 C 0.98797 0.48333 0.5174 0.0
C829 C 0.07824 0.44536 0.56694 0.0
C830 C 0.92318 0.55163 0.42985 0.0
C831 C 0.93939 0.5312 0.44887 0.0
C832 C 0.01369 0.514 0.47925 0.0
C833 C 0.03444 0.45498 0.53713 0.0
C834 C 0.0172 0.47721 0.51717 0.0
C835 C 0.96714 0.54217 0.45948 0.0
C836 C 0.98446 0.52007 0.47947 0.0
H837 H 0.02986 0.37824 0.57145 0.0
H838 H 0.00198 0.41374 0.53784 0.0
H839 H 0.05225 0.48821 0.49696 0.0
H840 H 0.97118 0.61919 0.4253 0.0
H841 H 0.99942 0.58363 0.45871 0.0
C842 C 0.0381 0.59415 0.06868 0.0
C843 C 0.06662 0.58479 0.07793 0.0
C844 C 0.0221 0.57404 0.04931 0.0
C845 C 0.01949 0.48436 0.01838 0.0
H846 H 0.9684 0.53281 0.96501 0.0
C847 C 0.96379 0.40956 0.92934 0.0
C848 C 0.93501 0.41829 0.92065 0.0
C849 C 0.97987 0.4297 0.94865 0.0
C850 C 0.98235 0.51886 0.97993 0.0
H851 H 0.10088 0.54733 0.07378 0.0
H852 H 0.07309 0.51261 0.03986 0.0
H853 H 0.99649 0.56864 0.99826 0.0
H854 H 0.90044 0.4548 0.92564 0.0
H855 H 0.92845 0.48974 0.95935 0.0
H856 H 0.0054 0.43457 -2e-05 0.0
C857 C 0.06291 0.53508 0.04785 0.0
C858 C 0.99844 0.53939 0.99899 0.0
C859 C 0.07889 0.55514 0.06721 0.0
C860 C 0.9226 0.44742 0.93181 0.0
C861 C 0.93869 0.46761 0.95104 0.0
C862 C 0.00344 0.46383 0.99929 0.0
C863 C 0.03428 0.54417 0.03875 0.0
C864 C 0.01719 0.52238 0.01844 0.0
C865 C 0.96753 0.45906 0.95962 0.0
C866 C 0.98468 0.48085 0.97987 0.0
H867 H 0.02799 0.61678 0.07656 0.0
H868 H 1.0 0.58152 0.04292 0.0
H869 H 0.03338 0.47036 0.03331 0.0
H870 H 0.97401 0.38731 0.92113 0.0
H871 H 0.00213 0.42266 0.95468 0.0
loop_
_geom_bond_atom_site_label_1
_geom_bond_atom_site_label_2
_geom_bond_distance
_geom_bond_site_symmetry_2
_ccdc_geom_bond_type
Co0 O3 1.970 . S
Co0 N17 1.989 . S
Co0 O25 1.967 . S
Co0 O32 1.920 . S
Co1 O4 1.966 . S
Co1 N10 2.022 . S
Co1 N18 1.993 . S
Co1 O26 1.941 . S
C2 O3 1.258 . S
C2 O4 1.263 . S
O3 Co0 1.970 . S
O3 C2 1.258 . S
O4 Co1 1.966 . S
O4 C2 1.263 . S
C5 O6 1.235 . S
C5 O32 1.289 . S
O6 C5 1.235 . S
C7 C9 1.400 . S
C7 N10 1.351 . S
C7 C12 1.501 . S
C8 C9 1.387 . S
C8 N11 1.341 . S
C9 C7 1.400 . S
C9 C8 1.387 . S
N10 Co1 2.022 . S
N10 C7 1.351 . S
N10 N11 1.365 . S
N11 C8 1.341 . S
N11 N10 1.365 . S
N11 H31 0.862 . S
C12 C7 1.501 . S
C12 H13 0.961 . S
C12 H14 0.961 . S
C12 H15 0.960 . S
H13 C12 0.961 . S
H14 C12 0.961 . S
H15 C12 0.960 . S
C16 N17 1.342 . S
C16 C20 1.401 . S
C16 C21 1.499 . S
N17 Co0 1.989 . S
N17 C16 1.342 . S
N17 N18 1.388 . S
N18 Co1 1.993 . S
N18 N17 1.388 . S
N18 C19 1.346 . S
C19 N18 1.346 . S
C19 C20 1.396 . S
C19 C29 1.510 . S
C20 C16 1.401 . S
C20 C19 1.396 . S
C21 C16 1.499 . S
C21 H22 0.959 . S
C21 H23 0.960 . S
C21 H24 0.961 . S
H22 C21 0.959 . S
H23 C21 0.960 . S
H24 C21 0.961 . S
O25 Co0 1.967 . S
O25 C33 1.258 . S
O26 Co1 1.941 . S
O26 C33 1.266 . S
H27 C29 0.959 . S
H28 C29 0.961 . S
C29 C19 1.510 . S
C29 H27 0.959 . S
C29 H28 0.961 . S
C29 H30 0.960 . S
H30 C29 0.960 . S
H31 N11 0.862 . S
O32 Co0 1.920 . S
O32 C5 1.289 . S
C33 O25 1.258 . S
C33 O26 1.266 . S
Co34 O37 1.970 . S
Co34 N51 1.989 . S
Co34 O59 1.967 . S
Co34 O66 1.920 . S
Co35 O38 1.966 . S
Co35 N44 2.022 . S
Co35 N52 1.993 . S
Co35 O60 1.941 . S
C36 O37 1.258 . S
C36 O38 1.263 . S
O37 Co34 1.970 . S
O37 C36 1.258 . S
O38 Co35 1.966 . S
O38 C36 1.263 . S
C39 O40 1.235 . S
C39 O66 1.289 . S
O40 C39 1.235 . S
C41 C43 1.400 . S
C41 N44 1.351 . S
C41 C46 1.501 . S
C42 C43 1.387 . S
C42 N45 1.341 . S
C43 C41 1.400 . S
C43 C42 1.387 . S
N44 Co35 2.022 . S
N44 C41 1.351 . S
N44 N45 1.365 . S
N45 C42 1.341 . S
N45 N44 1.365 . S
N45 H65 0.862 . S
C46 C41 1.501 . S
C46 H47 0.961 . S
C46 H48 0.961 . S
C46 H49 0.960 . S
H47 C46 0.961 . S
H48 C46 0.961 . S
H49 C46 0.960 . S
C50 N51 1.342 . S
C50 C54 1.401 . S
C50 C55 1.499 . S
N51 Co34 1.989 . S
N51 C50 1.342 . S
N51 N52 1.388 . S
N52 Co35 1.993 . S
N52 N51 1.388 . S
N52 C53 1.346 . S
C53 N52 1.346 . S
C53 C54 1.396 . S
C53 C63 1.510 . S
C54 C50 1.401 . S
C54 C53 1.396 . S
C55 C50 1.499 . S
C55 H56 0.959 . S
C55 H57 0.960 . S
C55 H58 0.961 . S
H56 C55 0.959 . S
H57 C55 0.960 . S
H58 C55 0.961 . S
O59 Co34 1.967 . S
O59 C67 1.258 . S
O60 Co35 1.941 . S
O60 C67 1.266 . S
H61 C63 0.959 . S
H62 C63 0.961 . S
C63 C53 1.510 . S
C63 H61 0.959 . S
C63 H62 0.961 . S
C63 H64 0.960 . S
H64 C63 0.960 . S
H65 N45 0.862 . S
O66 Co34 1.920 . S
O66 C39 1.289 . S
C67 O59 1.258 . S
C67 O60 1.266 . S
Co68 O71 1.970 . S
Co68 N85 1.989 . S
Co68 O93 1.967 . S
Co68 O100 1.920 . S
Co69 O72 1.966 . S
Co69 N78 2.022 . S
Co69 N86 1.993 . S
Co69 O94 1.941 . S
C70 O71 1.258 . S
C70 O72 1.263 . S
O71 Co68 1.970 . S
O71 C70 1.258 . S
O72 Co69 1.966 . S
O72 C70 1.263 . S
C73 O74 1.235 . S
C73 O100 1.289 . S
O74 C73 1.235 . S
C75 C77 1.400 . S
C75 N78 1.351 . S
C75 C80 1.501 . S
C76 C77 1.387 . S
C76 N79 1.341 . S
C77 C75 1.400 . S
C77 C76 1.387 . S
N78 Co69 2.022 . S
N78 C75 1.351 . S
N78 N79 1.365 . S
N79 C76 1.341 . S
N79 N78 1.365 . S
N79 H99 0.862 . S
C80 C75 1.501 . S
C80 H81 0.961 . S
C80 H82 0.961 . S
C80 H83 0.960 . S
H81 C80 0.961 . S
H82 C80 0.961 . S
H83 C80 0.960 . S
C84 N85 1.342 . S
C84 C88 1.401 . S
C84 C89 1.499 . S
N85 Co68 1.989 . S
N85 C84 1.342 . S
N85 N86 1.388 . S
N86 Co69 1.993 . S
N86 N85 1.388 . S
N86 C87 1.346 . S
C87 N86 1.346 . S
C87 C88 1.396 . S
C87 C97 1.510 . S
C88 C84 1.401 . S
C88 C87 1.396 . S
C89 C84 1.499 . S
C89 H90 0.959 . S
C89 H91 0.960 . S
C89 H92 0.961 . S
H90 C89 0.959 . S
H91 C89 0.960 . S
H92 C89 0.961 . S
O93 Co68 1.967 . S
O93 C101 1.258 . S
O94 Co69 1.941 . S
O94 C101 1.266 . S
H95 C97 0.959 . S
H96 C97 0.961 . S
C97 C87 1.510 . S
C97 H95 0.959 . S
C97 H96 0.961 . S
C97 H98 0.960 . S
H98 C97 0.960 . S
H99 N79 0.862 . S
O100 Co68 1.920 . S
O100 C73 1.289 . S
C101 O93 1.258 . S
C101 O94 1.266 . S
Co102 O105 1.970 . S
Co102 N119 1.989 . S
Co102 O127 1.967 . S
Co102 O134 1.920 . S
Co103 O106 1.966 . S
Co103 N112 2.022 . S
Co103 N120 1.993 . S
Co103 O128 1.941 . S
C104 O105 1.258 . S
C104 O106 1.263 . S
O105 Co102 1.970 . S
O105 C104 1.258 . S
O106 Co103 1.966 . S
O106 C104 1.263 . S
C107 O108 1.235 . S
C107 O134 1.289 . S
O108 C107 1.235 . S
C109 C111 1.400 . S
C109 N112 1.351 . S
C109 C114 1.501 . S
C110 C111 1.387 . S
C110 N113 1.341 . S
C111 C109 1.400 . S
C111 C110 1.387 . S
N112 Co103 2.022 . S
N112 C109 1.351 . S
N112 N113 1.365 . S
N113 C110 1.341 . S
N113 N112 1.365 . S
N113 H133 0.862 . S
C114 C109 1.501 . S
C114 H115 0.961 . S
C114 H116 0.961 . S
C114 H117 0.960 . S
H115 C114 0.961 . S
H116 C114 0.961 . S
H117 C114 0.960 . S
C118 N119 1.342 . S
C118 C122 1.401 . S
C118 C123 1.499 . S
N119 Co102 1.989 . S
N119 C118 1.342 . S
N119 N120 1.388 . S
N120 Co103 1.993 . S
N120 N119 1.388 . S
N120 C121 1.346 . S
C121 N120 1.346 . S
C121 C122 1.396 . S
C121 C131 1.510 . S
C122 C118 1.401 . S
C122 C121 1.396 . S
C123 C118 1.499 . S
C123 H124 0.959 . S
C123 H125 0.960 . S
C123 H126 0.961 . S
H124 C123 0.959 . S
H125 C123 0.960 . S
H126 C123 0.961 . S
O127 Co102 1.967 . S
O127 C135 1.258 . S
O128 Co103 1.941 . S
O128 C135 1.266 . S
H129 C131 0.959 . S
H130 C131 0.961 . S
C131 C121 1.510 . S
C131 H129 0.959 . S
C131 H130 0.961 . S
C131 H132 0.960 . S
H132 C131 0.960 . S
H133 N113 0.862 . S
O134 Co102 1.920 . S
O134 C107 1.289 . S
C135 O127 1.258 . S
C135 O128 1.266 . S
Co136 O139 1.970 . S
Co136 N153 1.989 . S
Co136 O161 1.967 . S
Co136 O168 1.920 . S
Co137 O140 1.966 . S
Co137 N146 2.022 . S
Co137 N154 1.993 . S
Co137 O162 1.941 . S
C138 O139 1.258 . S
C138 O140 1.263 . S
O139 Co136 1.970 . S
O139 C138 1.258 . S
O140 Co137 1.966 . S
O140 C138 1.263 . S
C141 O142 1.235 . S
C141 O168 1.289 . S
O142 C141 1.235 . S
C143 C145 1.400 . S
C143 N146 1.351 . S
C143 C148 1.501 . S
C144 C145 1.387 . S
C144 N147 1.341 . S
C145 C143 1.400 . S
C145 C144 1.387 . S
N146 Co137 2.022 . S
N146 C143 1.351 . S
N146 N147 1.365 . S
N147 C144 1.341 . S
N147 N146 1.365 . S
N147 H167 0.862 . S
C148 C143 1.501 . S
C148 H149 0.961 . S
C148 H150 0.961 . S
C148 H151 0.960 . S
H149 C148 0.961 . S
H150 C148 0.961 . S
H151 C148 0.960 . S
C152 N153 1.342 . S
C152 C156 1.401 . S
C152 C157 1.499 . S
N153 Co136 1.989 . S
N153 C152 1.342 . S
N153 N154 1.388 . S
N154 Co137 1.993 . S
N154 N153 1.388 . S
N154 C155 1.346 . S
C155 N154 1.346 . S
C155 C156 1.396 . S
C155 C165 1.510 . S
C156 C152 1.401 . S
C156 C155 1.396 . S
C157 C152 1.499 . S
C157 H158 0.959 . S
C157 H159 0.960 . S
C157 H160 0.961 . S
H158 C157 0.959 . S
H159 C157 0.960 . S
H160 C157 0.961 . S
O161 Co136 1.967 . S
O161 C169 1.258 . S
O162 Co137 1.941 . S
O162 C169 1.266 . S
H163 C165 0.959 . S
H164 C165 0.961 . S
C165 C155 1.510 . S
C165 H163 0.959 . S
C165 H164 0.961 . S
C165 H166 0.960 . S
H166 C165 0.960 . S
H167 N147 0.862 . S
O168 Co136 1.920 . S
O168 C141 1.289 . S
C169 O161 1.258 . S
C169 O162 1.266 . S
Co170 O173 1.970 . S
Co170 N187 1.989 . S
Co170 O195 1.967 . S
Co170 O202 1.920 . S
Co171 O174 1.966 . S
Co171 N180 2.022 . S
Co171 N188 1.993 . S
Co171 O196 1.941 . S
C172 O173 1.258 . S
C172 O174 1.263 . S
O173 Co170 1.970 . S
O173 C172 1.258 . S
O174 Co171 1.966 . S
O174 C172 1.263 . S
C175 O176 1.235 . S
C175 O202 1.289 . S
O176 C175 1.235 . S
C177 C179 1.400 . S
C177 N180 1.351 . S
C177 C182 1.501 . S
C178 C179 1.387 . S
C178 N181 1.341 . S
C179 C177 1.400 . S
C179 C178 1.387 . S
N180 Co171 2.022 . S
N180 C177 1.351 . S
N180 N181 1.365 . S
N181 C178 1.341 . S
N181 N180 1.365 . S
N181 H201 0.862 . S
C182 C177 1.501 . S
C182 H183 0.961 . S
C182 H184 0.961 . S
C182 H185 0.960 . S
H183 C182 0.961 . S
H184 C182 0.961 . S
H185 C182 0.960 . S
C186 N187 1.342 . S
C186 C190 1.401 . S
C186 C191 1.499 . S
N187 Co170 1.989 . S
N187 C186 1.342 . S
N187 N188 1.388 . S
N188 Co171 1.993 . S
N188 N187 1.388 . S
N188 C189 1.346 . S
C189 N188 1.346 . S
C189 C190 1.396 . S
C189 C199 1.510 . S
C190 C186 1.401 . S
C190 C189 1.396 . S
C191 C186 1.499 . S
C191 H192 0.959 . S
C191 H193 0.960 . S
C191 H194 0.961 . S
H192 C191 0.959 . S
H193 C191 0.960 . S
H194 C191 0.961 . S
O195 Co170 1.967 . S
O195 C203 1.258 . S
O196 Co171 1.941 . S
O196 C203 1.266 . S
H197 C199 0.959 . S
H198 C199 0.961 . S
C199 C189 1.510 . S
C199 H197 0.959 . S
C199 H198 0.961 . S
C199 H200 0.960 . S
H200 C199 0.960 . S
H201 N181 0.862 . S
O202 Co170 1.920 . S
O202 C175 1.289 . S
C203 O195 1.258 . S
C203 O196 1.266 . S
Co204 O207 1.970 . S
Co204 N221 1.989 . S
Co204 O229 1.967 . S
Co204 O236 1.920 . S
Co205 O208 1.966 . S
Co205 N214 2.022 . S
Co205 N222 1.993 . S
Co205 O230 1.941 . S
C206 O207 1.258 . S
C206 O208 1.263 . S
O207 Co204 1.970 . S
O207 C206 1.258 . S
O208 Co205 1.966 . S
O208 C206 1.263 . S
C209 O210 1.235 . S
C209 O236 1.289 . S
O210 C209 1.235 . S
C211 C213 1.400 . S
C211 N214 1.351 . S
C211 C216 1.501 . S
C212 C213 1.387 . S
C212 N215 1.341 . S
C213 C211 1.400 . S
C213 C212 1.387 . S
N214 Co205 2.022 . S
N214 C211 1.351 . S
N214 N215 1.365 . S
N215 C212 1.341 . S
N215 N214 1.365 . S
N215 H235 0.862 . S
C216 C211 1.501 . S
C216 H217 0.961 . S
C216 H218 0.961 . S
C216 H219 0.960 . S
H217 C216 0.961 . S
H218 C216 0.961 . S
H219 C216 0.960 . S
C220 N221 1.342 . S
C220 C224 1.401 . S
C220 C225 1.499 . S
N221 Co204 1.989 . S
N221 C220 1.342 . S
N221 N222 1.388 . S
N222 Co205 1.993 . S
N222 N221 1.388 . S
N222 C223 1.346 . S
C223 N222 1.346 . S
C223 C224 1.396 . S
C223 C233 1.510 . S
C224 C220 1.401 . S
C224 C223 1.396 . S
C225 C220 1.499 . S
C225 H226 0.959 . S
C225 H227 0.960 . S
C225 H228 0.961 . S
H226 C225 0.959 . S
H227 C225 0.960 . S
H228 C225 0.961 . S
O229 Co204 1.967 . S
O229 C237 1.258 . S
O230 Co205 1.941 . S
O230 C237 1.266 . S
H231 C233 0.959 . S
H232 C233 0.961 . S
C233 C223 1.510 . S
C233 H231 0.959 . S
C233 H232 0.961 . S
C233 H234 0.960 . S
H234 C233 0.960 . S
H235 N215 0.862 . S
O236 Co204 1.920 . S
O236 C209 1.289 . S
C237 O229 1.258 . S
C237 O230 1.266 . S
Co238 O241 1.970 . S
Co238 N255 1.989 . S
Co238 O263 1.967 . S
Co238 O270 1.920 . S
Co239 O242 1.966 . S
Co239 N248 2.022 . S
Co239 N256 1.993 . S
Co239 O264 1.941 . S
C240 O241 1.258 . S
C240 O242 1.263 . S
O241 Co238 1.970 . S
O241 C240 1.258 . S
O242 Co239 1.966 . S
O242 C240 1.263 . S
C243 O244 1.235 . S
C243 O270 1.289 . S
O244 C243 1.235 . S
C245 C247 1.400 . S
C245 N248 1.351 . S
C245 C250 1.501 . S
C246 C247 1.387 . S
C246 N249 1.341 . S
C247 C245 1.400 . S
C247 C246 1.387 . S
N248 Co239 2.022 . S
N248 C245 1.351 . S
N248 N249 1.365 . S
N249 C246 1.341 . S
N249 N248 1.365 . S
N249 H269 0.862 . S
C250 C245 1.501 . S
C250 H251 0.961 . S
C250 H252 0.961 . S
C250 H253 0.960 . S
H251 C250 0.961 . S
H252 C250 0.961 . S
H253 C250 0.960 . S
C254 N255 1.342 . S
C254 C258 1.401 . S
C254 C259 1.499 . S
N255 Co238 1.989 . S
N255 C254 1.342 . S
N255 N256 1.388 . S
N256 Co239 1.993 . S
N256 N255 1.388 . S
N256 C257 1.346 . S
C257 N256 1.346 . S
C257 C258 1.396 . S
C257 C267 1.510 . S
C258 C254 1.401 . S
C258 C257 1.396 . S
C259 C254 1.499 . S
C259 H260 0.959 . S
C259 H261 0.960 . S
C259 H262 0.961 . S
H260 C259 0.959 . S
H261 C259 0.960 . S
H262 C259 0.961 . S
O263 Co238 1.967 . S
O263 C271 1.258 . S
O264 Co239 1.941 . S
O264 C271 1.266 . S
H265 C267 0.959 . S
H266 C267 0.961 . S
C267 C257 1.510 . S
C267 H265 0.959 . S
C267 H266 0.961 . S
C267 H268 0.960 . S
H268 C267 0.960 . S
H269 N249 0.862 . S
O270 Co238 1.920 . S
O270 C243 1.289 . S
C271 O263 1.258 . S
C271 O264 1.266 . S
C272 C273 1.349 . S
C272 C274 1.327 . S
C272 H297 0.950 . S
C273 C272 1.349 . S
C273 C289 1.349 . S
C274 C272 1.327 . S
C274 C293 1.429 . S
C274 H298 0.950 . S
C275 C292 1.574 . S
C275 C294 1.368 . S
C275 H299 0.949 . S
H276 C280 0.949 . S
C277 C278 1.349 . S
C277 C279 1.327 . S
C277 H300 0.950 . S
C278 C277 1.349 . S
C278 C290 1.349 . S
C279 C277 1.327 . S
C279 C295 1.429 . S
C279 H301 0.950 . S
C280 H276 0.949 . S
C280 C288 1.574 . S
C280 C296 1.368 . S
H281 C289 0.950 . S
H282 C287 0.950 . S
H283 C288 0.949 . S
H284 C290 0.950 . S
H285 C291 0.950 . S
H286 C292 0.949 . S
C287 H282 0.950 . S
C287 C289 1.327 . S
C287 C293 1.429 . S
C288 C280 1.574 . S
C288 H283 0.949 . S
C288 C294 1.368 . S
C289 C273 1.349 . S
C289 H281 0.950 . S
C289 C287 1.327 . S
C290 C278 1.349 . S
C290 H284 0.950 . S
C290 C291 1.327 . S
C291 H285 0.950 . S
C291 C290 1.327 . S
C291 C295 1.429 . S
C292 C275 1.574 . S
C292 H286 0.949 . S
C292 C296 1.368 . S
C293 C274 1.429 . S
C293 C287 1.429 . S
C293 C294 1.523 . S
C294 C275 1.368 . S
C294 C288 1.368 . S
C294 C293 1.523 . S
C295 C279 1.429 . S
C295 C291 1.429 . S
C295 C296 1.523 . S
C296 C280 1.368 . S
C296 C292 1.368 . S
C296 C295 1.523 . S
H297 C272 0.950 . S
H298 C274 0.950 . S
H299 C275 0.949 . S
H300 C277 0.950 . S
H301 C279 0.950 . S
C302 C303 1.349 . S
C302 C304 1.327 . S
C302 H327 0.950 . S
C303 C302 1.349 . S
C303 C319 1.349 . S
C304 C302 1.327 . S
C304 C323 1.429 . S
C304 H328 0.950 . S
C305 C322 1.574 . S
C305 C324 1.368 . S
C305 H329 0.949 . S
H306 C310 0.949 . S
C307 C308 1.349 . S
C307 C309 1.327 . S
C307 H330 0.950 . S
C308 C307 1.349 . S
C308 C320 1.349 . S
C309 C307 1.327 . S
C309 C325 1.429 . S
C309 H331 0.950 . S
C310 H306 0.949 . S
C310 C318 1.574 . S
C310 C326 1.368 . S
H311 C319 0.950 . S
H312 C317 0.950 . S
H313 C318 0.948 1_554 S
H314 C320 0.950 . S
H315 C321 0.950 . S
H316 C322 0.948 1_556 S
C317 H312 0.950 . S
C317 C319 1.327 . S
C317 C323 1.429 . S
C318 C310 1.574 . S
C318 H313 0.948 1_556 S
C318 C324 1.368 1_556 S
C319 C303 1.349 . S
C319 H311 0.950 . S
C319 C317 1.327 . S
C320 C308 1.349 . S
C320 H314 0.950 . S
C320 C321 1.327 . S
C321 H315 0.950 . S
C321 C320 1.327 . S
C321 C325 1.429 . S
C322 C305 1.574 . S
C322 H316 0.948 1_554 S
C322 C326 1.368 1_554 S
C323 C304 1.429 . S
C323 C317 1.429 . S
C323 C324 1.523 . S
C324 C305 1.368 . S
C324 C318 1.368 1_554 S
C324 C323 1.523 . S
C325 C309 1.429 . S
C325 C321 1.429 . S
C325 C326 1.523 . S
C326 C310 1.368 . S
C326 C322 1.368 1_556 S
C326 C325 1.523 . S
H327 C302 0.950 . S
H328 C304 0.950 . S
H329 C305 0.949 . S
H330 C307 0.950 . S
H331 C309 0.950 . S
C332 C333 1.349 . S
C332 C334 1.327 . S
C332 H357 0.950 . S
C333 C332 1.349 . S
C333 C349 1.349 . S
C334 C332 1.327 . S
C334 C353 1.429 . S
C334 H358 0.950 . S
C335 C352 1.574 . S
C335 C354 1.368 . S
C335 H359 0.949 . S
H336 C340 0.949 . S
C337 C338 1.349 . S
C337 C339 1.327 . S
C337 H360 0.950 . S
C338 C337 1.349 . S
C338 C350 1.349 . S
C339 C337 1.327 . S
C339 C355 1.429 . S
C339 H361 0.950 . S
C340 H336 0.949 . S
C340 C348 1.574 . S
C340 C356 1.368 . S
H341 C349 0.950 . S
H342 C347 0.950 . S
H343 C348 0.949 . S
H344 C350 0.950 . S
H345 C351 0.950 . S
H346 C352 0.949 . S
C347 H342 0.950 . S
C347 C349 1.327 . S
C347 C353 1.429 . S
C348 C340 1.574 . S
C348 H343 0.949 . S
C348 C354 1.368 . S
C349 C333 1.349 . S
C349 H341 0.950 . S
C349 C347 1.327 . S
C350 C338 1.349 . S
C350 H344 0.950 . S
C350 C351 1.327 . S
C351 H345 0.950 . S
C351 C350 1.327 . S
C351 C355 1.429 . S
C352 C335 1.574 . S
C352 H346 0.949 . S
C352 C356 1.368 . S
C353 C334 1.429 . S
C353 C347 1.429 . S
C353 C354 1.523 . S
C354 C335 1.368 . S
C354 C348 1.368 . S
C354 C353 1.523 . S
C355 C339 1.429 . S
C355 C351 1.429 . S
C355 C356 1.523 . S
C356 C340 1.368 . S
C356 C352 1.368 . S
C356 C355 1.523 . S
H357 C332 0.950 . S
H358 C334 0.950 . S
H359 C335 0.949 . S
H360 C337 0.950 . S
H361 C339 0.950 . S
C362 C363 1.349 . S
C362 C364 1.327 . S
C362 H387 0.950 . S
C363 C362 1.349 . S
C363 C379 1.349 . S
C364 C362 1.327 . S
C364 C383 1.429 . S
C364 H388 0.950 . S
C365 C382 1.574 1_556 S
C365 C384 1.368 . S
C365 H389 0.949 . S
H366 C370 0.949 . S
C367 C368 1.349 . S
C367 C369 1.327 . S
C367 H390 0.950 . S
C368 C367 1.349 . S
C368 C380 1.349 . S
C369 C367 1.327 . S
C369 C385 1.429 . S
C369 H391 0.950 . S
C370 H366 0.949 . S
C370 C378 1.574 1_554 S
C370 C386 1.368 . S
H371 C379 0.950 . S
H372 C377 0.950 . S
H373 C378 0.949 . S
H374 C380 0.950 . S
H375 C381 0.950 . S
H376 C382 0.949 . S
C377 H372 0.950 . S
C377 C379 1.327 . S
C377 C383 1.429 . S
C378 C370 1.574 1_556 S
C378 H373 0.949 . S
C378 C384 1.368 . S
C379 C363 1.349 . S
C379 H371 0.950 . S
C379 C377 1.327 . S
C380 C368 1.349 . S
C380 H374 0.950 . S
C380 C381 1.327 . S
C381 H375 0.950 . S
C381 C380 1.327 . S
C381 C385 1.429 . S
C382 C365 1.574 1_554 S
C382 H376 0.949 . S
C382 C386 1.368 . S
C383 C364 1.429 . S
C383 C377 1.429 . S
C383 C384 1.523 . S
C384 C365 1.368 . S
C384 C378 1.368 . S
C384 C383 1.523 . S
C385 C369 1.429 . S
C385 C381 1.429 . S
C385 C386 1.523 . S
C386 C370 1.368 . S
C386 C382 1.368 . S
C386 C385 1.523 . S
H387 C362 0.950 . S
H388 C364 0.950 . S
H389 C365 0.949 . S
H390 C367 0.950 . S
H391 C369 0.950 . S
C392 C393 1.349 . S
C392 C394 1.327 . S
C392 H417 0.950 . S
C393 C392 1.349 . S
C393 C409 1.349 . S
C394 C392 1.327 . S
C394 C413 1.429 . S
C394 H418 0.950 . S
C395 C412 1.574 . S
C395 C414 1.368 . S
C395 H419 0.949 . S
H396 C400 0.949 . S
C397 C398 1.349 . S
C397 C399 1.327 . S
C397 H420 0.950 . S
C398 C397 1.349 . S
C398 C410 1.349 . S
C399 C397 1.327 . S
C399 C415 1.429 . S
C399 H421 0.950 . S
C400 H396 0.949 . S
C400 C408 1.574 . S
C400 C416 1.368 . S
H401 C409 0.950 . S
H402 C407 0.950 . S
H403 C408 0.949 . S
H404 C410 0.950 . S
H405 C411 0.950 . S
H406 C412 0.949 . S
C407 H402 0.950 . S
C407 C409 1.327 . S
C407 C413 1.429 . S
C408 C400 1.574 . S
C408 H403 0.949 . S
C408 C414 1.368 . S
C409 C393 1.349 . S
C409 H401 0.950 . S
C409 C407 1.327 . S
C410 C398 1.349 . S
C410 H404 0.950 . S
C410 C411 1.327 . S
C411 H405 0.950 . S
C411 C410 1.327 . S
C411 C415 1.429 . S
C412 C395 1.574 . S
C412 H406 0.949 . S
C412 C416 1.368 . S
C413 C394 1.429 . S
C413 C407 1.429 . S
C413 C414 1.523 . S
C414 C395 1.368 . S
C414 C408 1.368 . S
C414 C413 1.523 . S
C415 C399 1.429 . S
C415 C411 1.429 . S
C415 C416 1.523 . S
C416 C400 1.368 . S
C416 C412 1.368 . S
C416 C415 1.523 . S
H417 C392 0.950 . S
H418 C394 0.950 . S
H419 C395 0.949 . S
H420 C397 0.950 . S
H421 C399 0.950 . S
C422 C423 1.349 . S
C422 C424 1.327 . S
C422 H447 0.950 . S
C423 C422 1.349 . S
C423 C439 1.349 . S
C424 C422 1.327 . S
C424 C443 1.429 . S
C424 H448 0.950 . S
C425 C442 1.574 . S
C425 C444 1.368 . S
C425 H449 0.949 . S
H426 C430 0.949 . S
C427 C428 1.349 . S
C427 C429 1.327 . S
C427 H450 0.950 . S
C428 C427 1.349 . S
C428 C440 1.349 . S
C429 C427 1.327 . S
C429 C445 1.429 . S
C429 H451 0.950 . S
C430 H426 0.949 . S
C430 C438 1.574 . S
C430 C446 1.368 . S
H431 C439 0.950 . S
H432 C437 0.950 . S
H433 C438 0.949 . S
H434 C440 0.950 . S
H435 C441 0.950 . S
H436 C442 0.949 . S
C437 H432 0.950 . S
C437 C439 1.327 . S
C437 C443 1.429 . S
C438 C430 1.574 . S
C438 H433 0.949 . S
C438 C444 1.368 . S
C439 C423 1.349 . S
C439 H431 0.950 . S
C439 C437 1.327 . S
C440 C428 1.349 . S
C440 H434 0.950 . S
C440 C441 1.327 . S
C441 H435 0.950 . S
C441 C440 1.327 . S
C441 C445 1.429 . S
C442 C425 1.574 . S
C442 H436 0.949 . S
C442 C446 1.368 . S
C443 C424 1.429 . S
C443 C437 1.429 . S
C443 C444 1.523 . S
C444 C425 1.368 . S
C444 C438 1.368 . S
C444 C443 1.523 . S
C445 C429 1.429 . S
C445 C441 1.429 . S
C445 C446 1.523 . S
C446 C430 1.368 . S
C446 C442 1.368 . S
C446 C445 1.523 . S
H447 C422 0.950 . S
H448 C424 0.950 . S
H449 C425 0.949 . S
H450 C427 0.950 . S
H451 C429 0.950 . S
C452 C453 1.349 . S
C452 C454 1.327 . S
C452 H477 0.950 . S
C453 C452 1.349 . S
C453 C469 1.349 . S
C454 C452 1.327 . S
C454 C473 1.429 . S
C454 H478 0.950 . S
C455 C472 1.574 1_455 S
C455 C474 1.368 . S
C455 H479 0.949 . S
H456 C460 0.949 . S
C457 C458 1.349 . S
C457 C459 1.327 . S
C457 H480 0.950 . S
C458 C457 1.349 . S
C458 C470 1.349 . S
C459 C457 1.327 . S
C459 C475 1.429 . S
C459 H481 0.950 . S
C460 H456 0.949 . S
C460 C468 1.574 1_655 S
C460 C476 1.368 . S
H461 C469 0.950 . S
H462 C467 0.950 . S
H463 C468 0.949 . S
H464 C470 0.950 . S
H465 C471 0.950 . S
H466 C472 0.949 . S
C467 H462 0.950 . S
C467 C469 1.327 . S
C467 C473 1.429 . S
C468 C460 1.574 1_455 S
C468 H463 0.949 . S
C468 C474 1.368 . S
C469 C453 1.349 . S
C469 H461 0.950 . S
C469 C467 1.327 . S
C470 C458 1.349 . S
C470 H464 0.950 . S
C470 C471 1.327 . S
C471 H465 0.950 . S
C471 C470 1.327 . S
C471 C475 1.429 . S
C472 C455 1.574 1_655 S
C472 H466 0.949 . S
C472 C476 1.368 . S
C473 C454 1.429 . S
C473 C467 1.429 . S
C473 C474 1.523 . S
C474 C455 1.368 . S
C474 C468 1.368 . S
C474 C473 1.523 . S
C475 C459 1.429 . S
C475 C471 1.429 . S
C475 C476 1.523 . S
C476 C460 1.368 . S
C476 C472 1.368 . S
C476 C475 1.523 . S
H477 C452 0.950 . S
H478 C454 0.950 . S
H479 C455 0.949 . S
H480 C457 0.950 . S
H481 C459 0.950 . S
C482 C483 1.349 . S
C482 C484 1.327 . S
C482 H507 0.950 . S
C483 C482 1.349 . S
C483 C499 1.349 . S
C484 C482 1.327 . S
C484 C503 1.429 . S
C484 H508 0.950 . S
C485 C502 1.574 1_455 S
C485 C504 1.368 . S
C485 H509 0.949 . S
H486 C490 0.949 . S
C487 C488 1.349 . S
C487 C489 1.327 . S
C487 H510 0.950 . S
C488 C487 1.349 . S
C488 C500 1.349 . S
C489 C487 1.327 . S
C489 C505 1.429 . S
C489 H511 0.950 . S
C490 H486 0.949 . S
C490 C498 1.574 1_655 S
C490 C506 1.368 . S
H491 C499 0.950 . S
H492 C497 0.950 . S
H493 C498 0.949 . S
H494 C500 0.950 . S
H495 C501 0.950 . S
H496 C502 0.949 . S
C497 H492 0.950 . S
C497 C499 1.327 . S
C497 C503 1.429 . S
C498 C490 1.574 1_455 S
C498 H493 0.949 . S
C498 C504 1.368 . S
C499 C483 1.349 . S
C499 H491 0.950 . S
C499 C497 1.327 . S
C500 C488 1.349 . S
C500 H494 0.950 . S
C500 C501 1.327 . S
C501 H495 0.950 . S
C501 C500 1.327 . S
C501 C505 1.429 . S
C502 C485 1.574 1_655 S
C502 H496 0.949 . S
C502 C506 1.368 . S
C503 C484 1.429 . S
C503 C497 1.429 . S
C503 C504 1.523 . S
C504 C485 1.368 . S
C504 C498 1.368 . S
C504 C503 1.523 . S
C505 C489 1.429 . S
C505 C501 1.429 . S
C505 C506 1.523 . S
C506 C490 1.368 . S
C506 C502 1.368 . S
C506 C505 1.523 . S
H507 C482 0.950 . S
H508 C484 0.950 . S
H509 C485 0.949 . S
H510 C487 0.950 . S
H511 C489 0.950 . S
C512 C513 1.349 . S
C512 C514 1.327 . S
C512 H537 0.950 . S
C513 C512 1.349 . S
C513 C529 1.349 . S
C514 C512 1.327 . S
C514 C533 1.429 . S
C514 H538 0.950 . S
C515 C532 1.574 . S
C515 C534 1.368 . S
C515 H539 0.949 . S
H516 C520 0.949 1_545 S
C517 C518 1.349 . S
C517 C519 1.327 . S
C517 H540 0.950 . S
C518 C517 1.349 . S
C518 C530 1.349 . S
C519 C517 1.327 . S
C519 C535 1.429 . S
C519 H541 0.950 1_545 S
C520 H516 0.949 1_565 S
C520 C528 1.574 . S
C520 C536 1.368 . S
H521 C529 0.950 . S
H522 C527 0.950 . S
H523 C528 0.949 . S
H524 C530 0.950 . S
H525 C531 0.950 . S
H526 C532 0.949 . S
C527 H522 0.950 . S
C527 C529 1.327 . S
C527 C533 1.429 . S
C528 C520 1.574 . S
C528 H523 0.949 . S
C528 C534 1.368 . S
C529 C513 1.349 . S
C529 H521 0.950 . S
C529 C527 1.327 . S
C530 C518 1.349 . S
C530 H524 0.950 . S
C530 C531 1.327 . S
C531 H525 0.950 . S
C531 C530 1.327 . S
C531 C535 1.429 . S
C532 C515 1.574 . S
C532 H526 0.949 . S
C532 C536 1.368 . S
C533 C514 1.429 . S
C533 C527 1.429 . S
C533 C534 1.523 . S
C534 C515 1.368 . S
C534 C528 1.368 . S
C534 C533 1.523 . S
C535 C519 1.429 . S
C535 C531 1.429 . S
C535 C536 1.523 1_545 S
C536 C520 1.368 . S
C536 C532 1.368 . S
C536 C535 1.523 1_565 S
H537 C512 0.950 . S
H538 C514 0.950 . S
H539 C515 0.949 . S
H540 C517 0.950 . S
H541 C519 0.950 1_565 S
C542 C543 1.349 . S
C542 C544 1.327 . S
C542 H567 0.950 . S
C543 C542 1.349 . S
C543 C559 1.349 . S
C544 C542 1.327 . S
C544 C563 1.429 . S
C544 H568 0.950 . S
C545 C562 1.574 . S
C545 C564 1.368 . S
C545 H569 0.949 . S
H546 C550 0.949 . S
C547 C548 1.349 . S
C547 C549 1.327 . S
C547 H570 0.950 . S
C548 C547 1.349 . S
C548 C560 1.349 . S
C549 C547 1.327 . S
C549 C565 1.429 . S
C549 H571 0.950 . S
C550 H546 0.949 . S
C550 C558 1.574 . S
C550 C566 1.368 . S
H551 C559 0.950 . S
H552 C557 0.950 . S
H553 C558 0.949 . S
H554 C560 0.950 . S
H555 C561 0.950 . S
H556 C562 0.949 . S
C557 H552 0.950 . S
C557 C559 1.327 . S
C557 C563 1.429 . S
C558 C550 1.574 . S
C558 H553 0.949 . S
C558 C564 1.368 . S
C559 C543 1.349 . S
C559 H551 0.950 . S
C559 C557 1.327 . S
C560 C548 1.349 . S
C560 H554 0.950 . S
C560 C561 1.327 . S
C561 H555 0.950 . S
C561 C560 1.327 . S
C561 C565 1.429 . S
C562 C545 1.574 . S
C562 H556 0.949 . S
C562 C566 1.368 . S
C563 C544 1.429 . S
C563 C557 1.429 . S
C563 C564 1.523 1_545 S
C564 C545 1.368 . S
C564 C558 1.368 . S
C564 C563 1.523 1_565 S
C565 C549 1.429 . S
C565 C561 1.429 . S
C565 C566 1.523 . S
C566 C550 1.368 . S
C566 C562 1.368 . S
C566 C565 1.523 . S
H567 C542 0.950 . S
H568 C544 0.950 . S
H569 C545 0.949 . S
H570 C547 0.950 . S
H571 C549 0.950 . S
C572 C573 1.349 . S
C572 C574 1.327 . S
C572 H597 0.950 . S
C573 C572 1.349 . S
C573 C589 1.349 . S
C574 C572 1.327 . S
C574 C593 1.429 . S
C574 H598 0.950 1_565 S
C575 C592 1.574 . S
C575 C594 1.368 . S
C575 H599 0.949 1_545 S
H576 C580 0.949 . S
C577 C578 1.349 . S
C577 C579 1.327 . S
C577 H600 0.950 . S
C578 C577 1.349 . S
C578 C590 1.349 . S
C579 C577 1.327 . S
C579 C595 1.429 . S
C579 H601 0.950 . S
C580 H576 0.949 . S
C580 C588 1.574 . S
C580 C596 1.368 . S
H581 C589 0.950 . S
H582 C587 0.950 . S
H583 C588 0.949 . S
H584 C590 0.950 . S
H585 C591 0.950 . S
H586 C592 0.949 . S
C587 H582 0.950 . S
C587 C589 1.327 . S
C587 C593 1.429 . S
C588 C580 1.574 . S
C588 H583 0.949 . S
C588 C594 1.368 . S
C589 C573 1.349 . S
C589 H581 0.950 . S
C589 C587 1.327 . S
C590 C578 1.349 . S
C590 H584 0.950 . S
C590 C591 1.327 . S
C591 H585 0.950 . S
C591 C590 1.327 . S
C591 C595 1.429 . S
C592 C575 1.574 . S
C592 H586 0.949 . S
C592 C596 1.368 . S
C593 C574 1.429 . S
C593 C587 1.429 . S
C593 C594 1.523 1_565 S
C594 C575 1.368 . S
C594 C588 1.368 . S
C594 C593 1.523 1_545 S
C595 C579 1.429 . S
C595 C591 1.429 . S
C595 C596 1.523 . S
C596 C580 1.368 . S
C596 C592 1.368 . S
C596 C595 1.523 . S
H597 C572 0.950 . S
H598 C574 0.950 1_545 S
H599 C575 0.949 1_565 S
H600 C577 0.950 . S
H601 C579 0.950 . S
C602 C603 1.349 . S
C602 C604 1.327 . S
C602 H627 0.950 . S
C603 C602 1.349 . S
C603 C619 1.349 . S
C604 C602 1.327 . S
C604 C623 1.429 . S
C604 H628 0.950 . S
C605 C622 1.574 . S
C605 C624 1.368 . S
C605 H629 0.949 . S
H606 C610 0.949 . S
C607 C608 1.349 . S
C607 C609 1.327 . S
C607 H630 0.950 . S
C608 C607 1.349 . S
C608 C620 1.349 . S
C609 C607 1.327 . S
C609 C625 1.429 . S
C609 H631 0.950 . S
C610 H606 0.949 . S
C610 C618 1.574 . S
C610 C626 1.368 . S
H611 C619 0.950 . S
H612 C617 0.950 . S
H613 C618 0.949 . S
H614 C620 0.950 . S
H615 C621 0.950 1_545 S
H616 C622 0.949 . S
C617 H612 0.950 . S
C617 C619 1.327 . S
C617 C623 1.429 . S
C618 C610 1.574 . S
C618 H613 0.949 . S
C618 C624 1.368 . S
C619 C603 1.349 . S
C619 H611 0.950 . S
C619 C617 1.327 . S
C620 C608 1.349 . S
C620 H614 0.950 . S
C620 C621 1.327 . S
C621 H615 0.950 1_565 S
C621 C620 1.327 . S
C621 C625 1.429 . S
C622 C605 1.574 . S
C622 H616 0.949 . S
C622 C626 1.368 . S
C623 C604 1.429 . S
C623 C617 1.429 . S
C623 C624 1.523 . S
C624 C605 1.368 . S
C624 C618 1.368 . S
C624 C623 1.523 . S
C625 C609 1.429 . S
C625 C621 1.429 . S
C625 C626 1.523 1_565 S
C626 C610 1.368 . S
C626 C622 1.368 . S
C626 C625 1.523 1_545 S
H627 C602 0.950 . S
H628 C604 0.950 . S
H629 C605 0.949 . S
H630 C607 0.950 . S
H631 C609 0.950 . S
C632 C633 1.349 . S
C632 C634 1.327 . S
C632 H657 0.950 . S
C633 C632 1.349 . S
C633 C649 1.349 . S
C634 C632 1.327 . S
C634 C653 1.429 . S
C634 H658 0.950 . S
C635 C652 1.574 . S
C635 C654 1.368 . S
C635 H659 0.949 . S
H636 C640 0.949 . S
C637 C638 1.349 . S
C637 C639 1.327 . S
C637 H660 0.950 . S
C638 C637 1.349 . S
C638 C650 1.349 . S
C639 C637 1.327 . S
C639 C655 1.429 . S
C639 H661 0.950 . S
C640 H636 0.949 . S
C640 C648 1.574 . S
C640 C656 1.368 . S
H641 C649 0.950 . S
H642 C647 0.950 . S
H643 C648 0.949 . S
H644 C650 0.950 . S
H645 C651 0.950 . S
H646 C652 0.949 . S
C647 H642 0.950 . S
C647 C649 1.327 . S
C647 C653 1.429 . S
C648 C640 1.574 . S
C648 H643 0.949 . S
C648 C654 1.368 . S
C649 C633 1.349 . S
C649 H641 0.950 . S
C649 C647 1.327 . S
C650 C638 1.349 . S
C650 H644 0.950 . S
C650 C651 1.327 . S
C651 H645 0.950 . S
C651 C650 1.327 . S
C651 C655 1.429 . S
C652 C635 1.574 . S
C652 H646 0.949 . S
C652 C656 1.368 . S
C653 C634 1.429 . S
C653 C647 1.429 . S
C653 C654 1.523 . S
C654 C635 1.368 . S
C654 C648 1.368 . S
C654 C653 1.523 . S
C655 C639 1.429 . S
C655 C651 1.429 . S
C655 C656 1.523 . S
C656 C640 1.368 . S
C656 C652 1.368 . S
C656 C655 1.523 . S
H657 C632 0.950 . S
H658 C634 0.950 . S
H659 C635 0.949 . S
H660 C637 0.950 . S
H661 C639 0.950 . S
C662 C663 1.349 . S
C662 C664 1.327 . S
C662 H687 0.950 . S
C663 C662 1.349 . S
C663 C679 1.349 . S
C664 C662 1.327 . S
C664 C683 1.429 . S
C664 H688 0.950 . S
C665 C682 1.574 . S
C665 C684 1.368 . S
C665 H689 0.949 . S
H666 C670 0.949 . S
C667 C668 1.349 . S
C667 C669 1.327 . S
C667 H690 0.950 . S
C668 C667 1.349 . S
C668 C680 1.349 . S
C669 C667 1.327 . S
C669 C685 1.429 . S
C669 H691 0.950 . S
C670 H666 0.949 . S
C670 C678 1.574 . S
C670 C686 1.368 . S
H671 C679 0.950 . S
H672 C677 0.950 . S
H673 C678 0.949 . S
H674 C680 0.950 . S
H675 C681 0.950 . S
H676 C682 0.949 . S
C677 H672 0.950 . S
C677 C679 1.327 . S
C677 C683 1.429 . S
C678 C670 1.574 . S
C678 H673 0.949 . S
C678 C684 1.368 . S
C679 C663 1.349 . S
C679 H671 0.950 . S
C679 C677 1.327 . S
C680 C668 1.349 . S
C680 H674 0.950 . S
C680 C681 1.327 . S
C681 H675 0.950 . S
C681 C680 1.327 . S
C681 C685 1.429 . S
C682 C665 1.574 . S
C682 H676 0.949 . S
C682 C686 1.368 . S
C683 C664 1.429 . S
C683 C677 1.429 . S
C683 C684 1.523 . S
C684 C665 1.368 . S
C684 C678 1.368 . S
C684 C683 1.523 . S
C685 C669 1.429 . S
C685 C681 1.429 . S
C685 C686 1.523 . S
C686 C670 1.368 . S
C686 C682 1.368 . S
C686 C685 1.523 . S
H687 C662 0.950 . S
H688 C664 0.950 . S
H689 C665 0.949 . S
H690 C667 0.950 . S
H691 C669 0.950 . S
C692 C693 1.349 . S
C692 C694 1.327 . S
C692 H717 0.950 . S
C693 C692 1.349 . S
C693 C709 1.349 . S
C694 C692 1.327 . S
C694 C713 1.429 . S
C694 H718 0.950 . S
C695 C712 1.574 . S
C695 C714 1.368 . S
C695 H719 0.949 . S
H696 C700 0.949 . S
C697 C698 1.349 . S
C697 C699 1.327 . S
C697 H720 0.950 . S
C698 C697 1.349 . S
C698 C710 1.349 . S
C699 C697 1.327 . S
C699 C715 1.429 . S
C699 H721 0.950 . S
C700 H696 0.949 . S
C700 C708 1.574 . S
C700 C716 1.368 . S
H701 C709 0.950 . S
H702 C707 0.950 . S
H703 C708 0.949 . S
H704 C710 0.950 . S
H705 C711 0.950 . S
H706 C712 0.949 . S
C707 H702 0.950 . S
C707 C709 1.327 . S
C707 C713 1.429 . S
C708 C700 1.574 . S
C708 H703 0.949 . S
C708 C714 1.368 . S
C709 C693 1.349 . S
C709 H701 0.950 . S
C709 C707 1.327 . S
C710 C698 1.349 . S
C710 H704 0.950 . S
C710 C711 1.327 . S
C711 H705 0.950 . S
C711 C710 1.327 . S
C711 C715 1.429 . S
C712 C695 1.574 . S
C712 H706 0.949 . S
C712 C716 1.368 . S
C713 C694 1.429 . S
C713 C707 1.429 . S
C713 C714 1.523 . S
C714 C695 1.368 . S
C714 C708 1.368 . S
C714 C713 1.523 . S
C715 C699 1.429 . S
C715 C711 1.429 . S
C715 C716 1.523 . S
C716 C700 1.368 . S
C716 C712 1.368 . S
C716 C715 1.523 . S
H717 C692 0.950 . S
H718 C694 0.950 . S
H719 C695 0.949 . S
H720 C697 0.950 . S
H721 C699 0.950 . S
C722 C723 1.349 . S
C722 C724 1.327 . S
C722 H747 0.950 . S
C723 C722 1.349 . S
C723 C739 1.349 . S
C724 C722 1.327 . S
C724 C743 1.429 . S
C724 H748 0.950 . S
C725 C742 1.574 . S
C725 C744 1.368 . S
C725 H749 0.949 . S
H726 C730 0.949 . S
C727 C728 1.349 . S
C727 C729 1.327 . S
C727 H750 0.950 . S
C728 C727 1.349 . S
C728 C740 1.349 . S
C729 C727 1.327 . S
C729 C745 1.429 . S
C729 H751 0.950 . S
C730 H726 0.949 . S
C730 C738 1.574 . S
C730 C746 1.368 . S
H731 C739 0.950 . S
H732 C737 0.950 . S
H733 C738 0.949 . S
H734 C740 0.950 . S
H735 C741 0.950 . S
H736 C742 0.949 . S
C737 H732 0.950 . S
C737 C739 1.327 . S
C737 C743 1.429 . S
C738 C730 1.574 . S
C738 H733 0.949 . S
C738 C744 1.368 . S
C739 C723 1.349 . S
C739 H731 0.950 . S
C739 C737 1.327 . S
C740 C728 1.349 . S
C740 H734 0.950 . S
C740 C741 1.327 . S
C741 H735 0.950 . S
C741 C740 1.327 . S
C741 C745 1.429 . S
C742 C725 1.574 . S
C742 H736 0.949 . S
C742 C746 1.368 . S
C743 C724 1.429 . S
C743 C737 1.429 . S
C743 C744 1.523 . S
C744 C725 1.368 . S
C744 C738 1.368 . S
C744 C743 1.523 . S
C745 C729 1.429 . S
C745 C741 1.429 . S
C745 C746 1.523 . S
C746 C730 1.368 . S
C746 C742 1.368 . S
C746 C745 1.523 . S
H747 C722 0.950 . S
H748 C724 0.950 . S
H749 C725 0.949 . S
H750 C727 0.950 . S
H751 C729 0.950 . S
C752 C753 1.349 . S
C752 C754 1.327 . S
C752 H777 0.950 . S
C753 C752 1.349 . S
C753 C769 1.349 . S
C754 C752 1.327 . S
C754 C773 1.429 . S
C754 H778 0.950 . S
C755 C772 1.574 . S
C755 C774 1.368 1_565 S
C755 H779 0.949 . S
H756 C760 0.949 . S
C757 C758 1.349 . S
C757 C759 1.327 . S
C757 H780 0.950 . S
C758 C757 1.349 . S
C758 C770 1.349 . S
C759 C757 1.327 . S
C759 C775 1.429 . S
C759 H781 0.950 . S
C760 H756 0.949 . S
C760 C768 1.574 . S
C760 C776 1.368 1_545 S
H761 C769 0.950 . S
H762 C767 0.950 . S
H763 C768 0.949 . S
H764 C770 0.950 . S
H765 C771 0.950 . S
H766 C772 0.949 . S
C767 H762 0.950 . S
C767 C769 1.327 . S
C767 C773 1.429 . S
C768 C760 1.574 . S
C768 H763 0.949 . S
C768 C774 1.368 . S
C769 C753 1.349 . S
C769 H761 0.950 . S
C769 C767 1.327 . S
C770 C758 1.349 . S
C770 H764 0.950 . S
C770 C771 1.327 . S
C771 H765 0.950 . S
C771 C770 1.327 . S
C771 C775 1.429 . S
C772 C755 1.574 . S
C772 H766 0.949 . S
C772 C776 1.368 . S
C773 C754 1.429 . S
C773 C767 1.429 . S
C773 C774 1.523 . S
C774 C755 1.368 1_545 S
C774 C768 1.368 . S
C774 C773 1.523 . S
C775 C759 1.429 . S
C775 C771 1.429 . S
C775 C776 1.523 . S
C776 C760 1.368 1_565 S
C776 C772 1.368 . S
C776 C775 1.523 . S
H777 C752 0.950 . S
H778 C754 0.950 . S
H779 C755 0.949 . S
H780 C757 0.950 . S
H781 C759 0.950 . S
C782 C783 1.349 . S
C782 C784 1.327 . S
C782 H807 0.950 . S
C783 C782 1.349 . S
C783 C799 1.349 . S
C784 C782 1.327 . S
C784 C803 1.429 . S
C784 H808 0.950 . S
C785 C802 1.574 1_554 S
C785 C804 1.368 1_565 S
C785 H809 0.949 . S
H786 C790 0.949 . S
C787 C788 1.349 . S
C787 C789 1.327 . S
C787 H810 0.950 . S
C788 C787 1.349 . S
C788 C800 1.349 . S
C789 C787 1.327 . S
C789 C805 1.429 . S
C789 H811 0.950 . S
C790 H786 0.949 . S
C790 C798 1.574 1_556 S
C790 C806 1.368 1_545 S
H791 C799 0.950 . S
H792 C797 0.950 1_565 S
H793 C798 0.949 . S
H794 C800 0.950 . S
H795 C801 0.950 1_545 S
H796 C802 0.949 . S
C797 H792 0.950 1_545 S
C797 C799 1.327 . S
C797 C803 1.429 . S
C798 C790 1.574 1_554 S
C798 H793 0.949 . S
C798 C804 1.368 . S
C799 C783 1.349 . S
C799 H791 0.950 . S
C799 C797 1.327 . S
C800 C788 1.349 . S
C800 H794 0.950 . S
C800 C801 1.327 . S
C801 H795 0.950 1_565 S
C801 C800 1.327 . S
C801 C805 1.429 . S
C802 C785 1.574 1_556 S
C802 H796 0.949 . S
C802 C806 1.368 . S
C803 C784 1.429 . S
C803 C797 1.429 . S
C803 C804 1.523 . S
C804 C785 1.368 1_545 S
C804 C798 1.368 . S
C804 C803 1.523 . S
C805 C789 1.429 . S
C805 C801 1.429 . S
C805 C806 1.523 . S
C806 C790 1.368 1_565 S
C806 C802 1.368 . S
C806 C805 1.523 . S
H807 C782 0.950 . S
H808 C784 0.950 . S
H809 C785 0.949 . S
H810 C787 0.950 . S
H811 C789 0.950 . S
C812 C813 1.349 . S
C812 C814 1.327 . S
C812 H837 0.950 . S
C813 C812 1.349 . S
C813 C829 1.349 . S
C814 C812 1.327 . S
C814 C833 1.429 . S
C814 H838 0.950 . S
C815 C832 1.574 . S
C815 C834 1.368 . S
C815 H839 0.949 . S
H816 C820 0.949 . S
C817 C818 1.349 . S
C817 C819 1.327 . S
C817 H840 0.950 . S
C818 C817 1.349 . S
C818 C830 1.349 . S
C819 C817 1.327 . S
C819 C835 1.429 . S
C819 H841 0.950 . S
C820 H816 0.949 . S
C820 C828 1.574 . S
C820 C836 1.368 . S
H821 C829 0.950 . S
H822 C827 0.950 . S
H823 C828 0.949 . S
H824 C830 0.950 . S
H825 C831 0.950 . S
H826 C832 0.949 . S
C827 H822 0.950 . S
C827 C829 1.327 . S
C827 C833 1.429 . S
C828 C820 1.574 . S
C828 H823 0.949 . S
C828 C834 1.368 1_655 S
C829 C813 1.349 . S
C829 H821 0.950 . S
C829 C827 1.327 . S
C830 C818 1.349 . S
C830 H824 0.950 . S
C830 C831 1.327 . S
C831 H825 0.950 . S
C831 C830 1.327 . S
C831 C835 1.429 . S
C832 C815 1.574 . S
C832 H826 0.949 . S
C832 C836 1.368 1_455 S
C833 C814 1.429 . S
C833 C827 1.429 . S
C833 C834 1.523 . S
C834 C815 1.368 . S
C834 C828 1.368 1_455 S
C834 C833 1.523 . S
C835 C819 1.429 . S
C835 C831 1.429 . S
C835 C836 1.523 . S
C836 C820 1.368 . S
C836 C832 1.368 1_655 S
C836 C835 1.523 . S
H837 C812 0.950 . S
H838 C814 0.950 . S
H839 C815 0.949 . S
H840 C817 0.950 . S
H841 C819 0.950 . S
C842 C843 1.349 . S
C842 C844 1.327 . S
C842 H867 0.950 . S
C843 C842 1.349 . S
C843 C859 1.349 . S
C844 C842 1.327 . S
C844 C863 1.429 . S
C844 H868 0.950 . S
C845 C862 1.574 1_455 S
C845 C864 1.368 . S
C845 H869 0.949 . S
H846 C850 0.949 . S
C847 C848 1.349 . S
C847 C849 1.327 . S
C847 H870 0.950 . S
C848 C847 1.349 . S
C848 C860 1.349 . S
C849 C847 1.327 . S
C849 C865 1.429 . S
C849 H871 0.950 . S
C850 H846 0.949 . S
C850 C858 1.574 1_655 S
C850 C866 1.368 . S
H851 C859 0.950 . S
H852 C857 0.950 . S
H853 C858 0.949 . S
H854 C860 0.950 . S
H855 C861 0.950 . S
H856 C862 0.949 . S
C857 H852 0.950 . S
C857 C859 1.327 . S
C857 C863 1.429 . S
C858 C850 1.574 1_455 S
C858 H853 0.949 . S
C858 C864 1.368 1_556 S
C859 C843 1.349 . S
C859 H851 0.950 . S
C859 C857 1.327 . S
C860 C848 1.349 . S
C860 H854 0.950 . S
C860 C861 1.327 . S
C861 H855 0.950 . S
C861 C860 1.327 . S
C861 C865 1.429 . S
C862 C845 1.574 1_655 S
C862 H856 0.949 . S
C862 C866 1.368 1_554 S
C863 C844 1.429 . S
C863 C857 1.429 . S
C863 C864 1.523 . S
C864 C845 1.368 . S
C864 C858 1.368 1_554 S
C864 C863 1.523 . S
C865 C849 1.429 . S
C865 C861 1.429 . S
C865 C866 1.523 . S
C866 C850 1.368 . S
C866 C862 1.368 1_556 S
C866 C865 1.523 . S
H867 C842 0.950 . S
H868 C844 0.950 . S
H869 C845 0.949 . S
H870 C847 0.950 . S
H871 C849 0.950 . S
C273 C224 1.216 . S
C278 C20 1.216 . S
C303 C54 1.216 . S
C308 C258 1.216 . S
C333 C88 1.216 . S
C338 C156 1.216 . S
C363 C122 1.216 . S
C368 C190 1.216 . S
C393 C36 1.610 . S
C398 C2 1.610 . S
C423 C70 1.610 . S
C428 C104 1.610 . S
C453 C172 1.610 . S
C458 C138 1.610 . S
C483 C206 1.610 . S
C488 C240 1.610 . S
C513 C179 1.520 . S
C518 C33 1.561 . S
C543 C67 1.561 . S
C548 C145 1.520 . S
C573 C101 1.561 . S
C578 C247 1.520 . S
C603 C213 1.520 . S
C608 C135 1.561 . S
C633 C169 1.561 . S
C638 C43 1.520 . S
C663 C203 1.561 . S
C668 C9 1.520 . S
C693 C237 1.561 . S
C698 C111 1.520 . S
C723 C77 1.520 . S
C728 C271 1.561 . S
C753 C5 1.588 . S
C758 C73 1.588 . S
C783 C39 1.588 . S
C788 C107 1.588 . S
C813 C209 1.588 . S
C818 C141 1.588 . S
C843 C175 1.588 . S
C848 C243 1.588 . S
