# Generated by pormake.
# Topology uof, (4)-cn, num edge types: 1
# Building blocks:
#     Node 0, Type 0, BuildingBlock: AZAVOO_clean_sbu_0, # of connection points: 4
#     Node 1, Type 0, BuildingBlock: AZAVOO_clean_sbu_0, # of connection points: 4
#     Node 2, Type 0, BuildingBlock: AZAVOO_clean_sbu_0, # of connection points: 4
#     Node 3, Type 0, BuildingBlock: AZAVOO_clean_sbu_0, # of connection points: 4
#     Node 4, Type 0, BuildingBlock: AZAVOO_clean_sbu_0, # of connection points: 4
#     Node 5, Type 0, BuildingBlock: AZAVOO_clean_sbu_0, # of connection points: 4
#     Node 6, Type 0, BuildingBlock: AZAVOO_clean_sbu_0, # of connection points: 4
#     Node 7, Type 0, BuildingBlock: AZAVOO_clean_sbu_0, # of connection points: 4
#     Node 8, Type 0, BuildingBlock: AZAVOO_clean_sbu_0, # of connection points: 4
#     Node 9, Type 0, BuildingBlock: AZAVOO_clean_sbu_0, # of connection points: 4
#     Node 10, Type 0, BuildingBlock: AZAVOO_clean_sbu_0, # of connection points: 4
#     Node 11, Type 0, BuildingBlock: AZAVOO_clean_sbu_0, # of connection points: 4
#     Edge 12, Type (0, 0), BuildingBlock: CIFDUS_clean_linker_0, # of connection points: 2
#     Edge 13, Type (0, 0), BuildingBlock: CIFDUS_clean_linker_0, # of connection points: 2
#     Edge 14, Type (0, 0), BuildingBlock: CIFDUS_clean_linker_0, # of connection points: 2
#     Edge 15, Type (0, 0), BuildingBlock: CIFDUS_clean_linker_0, # of connection points: 2
#     Edge 16, Type (0, 0), BuildingBlock: CIFDUS_clean_linker_0, # of connection points: 2
#     Edge 17, Type (0, 0), BuildingBlock: CIFDUS_clean_linker_0, # of connection points: 2
#     Edge 18, Type (0, 0), BuildingBlock: CIFDUS_clean_linker_0, # of connection points: 2
#     Edge 19, Type (0, 0), BuildingBlock: CIFDUS_clean_linker_0, # of connection points: 2
#     Edge 20, Type (0, 0), BuildingBlock: CIFDUS_clean_linker_0, # of connection points: 2
#     Edge 21, Type (0, 0), BuildingBlock: CIFDUS_clean_linker_0, # of connection points: 2
#     Edge 22, Type (0, 0), BuildingBlock: CIFDUS_clean_linker_0, # of connection points: 2
#     Edge 23, Type (0, 0), BuildingBlock: CIFDUS_clean_linker_0, # of connection points: 2
#     Edge 24, Type (0, 0), BuildingBlock: CIFDUS_clean_linker_0, # of connection points: 2
#     Edge 25, Type (0, 0), BuildingBlock: CIFDUS_clean_linker_0, # of connection points: 2
#     Edge 26, Type (0, 0), BuildingBlock: CIFDUS_clean_linker_0, # of connection points: 2
#     Edge 27, Type (0, 0), BuildingBlock: CIFDUS_clean_linker_0, # of connection points: 2
#     Edge 28, Type (0, 0), BuildingBlock: CIFDUS_clean_linker_0, # of connection points: 2
#     Edge 29, Type (0, 0), BuildingBlock: CIFDUS_clean_linker_0, # of connection points: 2
#     Edge 30, Type (0, 0), BuildingBlock: CIFDUS_clean_linker_0, # of connection points: 2
#     Edge 31, Type (0, 0), BuildingBlock: CIFDUS_clean_linker_0, # of connection points: 2
#     Edge 32, Type (0, 0), BuildingBlock: CIFDUS_clean_linker_0, # of connection points: 2
#     Edge 33, Type (0, 0), BuildingBlock: CIFDUS_clean_linker_0, # of connection points: 2
#     Edge 34, Type (0, 0), BuildingBlock: CIFDUS_clean_linker_0, # of connection points: 2
#     Edge 35, Type (0, 0), BuildingBlock: CIFDUS_clean_linker_0, # of connection points: 2
# Relax obj value: 0.242
# Max RMSD: 0.198
# Mean RMSD: 0.198
data_MOF--net-uof--node1-AZAVOO_clean_sbu_0--edge1-CIFDUS_clean_linker_0
_symmetry_space_group_name_H-M    P1
_symmetry_Int_Tables_number       1
_symmetry_cell_setting            triclinic
loop_
_symmetry_equiv_pos_as_xyz
'x, y, z'
_cell_length_a     28.171968
_cell_length_b     28.163766
_cell_length_c     54.856355
_cell_angle_alpha  90.075537
_cell_angle_beta   89.89536
_cell_angle_gamma 119.69435
loop_
_atom_site_label
_atom_site_type_symbol
_atom_site_fract_x
_atom_site_fract_y
_atom_site_fract_z
_atom_type_partial_charge
Mg0 Mg 0.24476 0.32745 0.21906 0.0
O1 O 0.25197 0.25361 0.20638 0.0
O2 O 0.32563 0.25902 0.22454 0.0
Mg3 Mg 0.3636 0.3327 0.24956 0.0
C4 C 0.28504 0.23567 0.21007 0.0
C5 C 0.12803 0.30808 0.20805 0.0
O6 O 0.14573 0.34922 0.2234 0.0
O7 O 0.21047 0.28595 0.25602 0.0
O8 O 0.28585 0.2915 0.27226 0.0
O9 O 0.3025 0.378 0.18887 0.0
O10 O 0.32845 0.36961 0.22583 0.0
C11 C 0.23511 0.27653 0.27327 0.0
C12 C 0.34151 0.38693 0.20383 0.0
O13 O 0.15924 0.2891 0.20255 0.0
Mg14 Mg 0.86595 0.26056 0.54228 0.0
O15 O 0.95685 0.28713 0.54258 0.0
O16 O 0.00426 0.37397 0.55524 0.0
Mg17 Mg 0.94285 0.40019 0.56637 0.0
C18 C 0.00204 0.33014 0.54746 0.0
C19 C 0.81906 0.15347 0.5142 0.0
O20 O 0.80556 0.18391 0.50104 0.0
O21 O 0.86572 0.24697 0.58353 0.0
O22 O 0.91544 0.33413 0.59555 0.0
O23 O 0.87948 0.29815 0.50518 0.0
O24 O 0.8863 0.34278 0.5393 0.0
C25 C 0.88949 0.28304 0.60008 0.0
C26 C 0.89431 0.34401 0.51612 0.0
O27 O 0.84492 0.17286 0.53401 0.0
Mg28 Mg 0.63632 0.90532 0.86731 0.0
O29 O 0.70628 0.98876 0.85466 0.0
O30 O 0.69032 0.05256 0.87094 0.0
Mg31 Mg 0.61376 0.01266 0.89409 0.0
C32 C 0.71886 0.03867 0.8578 0.0
C33 C 0.66584 0.81413 0.86215 0.0
O34 O 0.62496 0.79348 0.87771 0.0
O35 O 0.67685 0.92049 0.90512 0.0
O36 O 0.66109 0.98633 0.91886 0.0
O37 O 0.5846 0.90416 0.83538 0.0
O38 O 0.58679 0.9402 0.8714 0.0
C39 C 0.68166 0.95522 0.92135 0.0
C40 C 0.57062 0.93256 0.84914 0.0
O41 O 0.68219 0.86196 0.85392 0.0
Mg42 Mg 0.74176 0.65426 0.217 0.0
O43 O 0.7269 0.71873 0.19891 0.0
O44 O 0.64287 0.70177 0.20893 0.0
Mg45 Mg 0.60721 0.63211 0.23619 0.0
C46 C 0.68785 0.72923 0.19744 0.0
C47 C 0.86498 0.68905 0.21311 0.0
O48 O 0.84908 0.65108 0.22998 0.0
O49 O 0.76011 0.7013 0.25318 0.0
O50 O 0.67626 0.68646 0.26226 0.0
O51 O 0.69755 0.59709 0.18585 0.0
O52 O 0.6582 0.60217 0.21996 0.0
C53 C 0.72726 0.70836 0.26683 0.0
C54 C 0.65356 0.58271 0.19838 0.0
O55 O 0.83053 0.70125 0.20456 0.0
Mg56 Mg 0.11638 0.73141 0.54504 0.0
O57 O 0.02502 0.70317 0.54141 0.0
O58 O 0.97691 0.61492 0.55201 0.0
Mg59 Mg 0.03668 0.5901 0.56649 0.0
C60 C 0.97959 0.65891 0.54424 0.0
C61 C 0.1753 0.84361 0.52151 0.0
O62 O 0.19765 0.81694 0.51153 0.0
O63 O 0.10803 0.74172 0.58598 0.0
O64 O 0.05374 0.65388 0.59593 0.0
O65 O 0.11163 0.69735 0.50774 0.0
O66 O 0.0983 0.65015 0.54169 0.0
C67 C 0.0785 0.70459 0.6013 0.0
C68 C 0.09518 0.65073 0.51827 0.0
O69 O 0.13825 0.81946 0.53749 0.0
Mg70 Mg 0.34073 0.09725 0.87254 0.0
O71 O 0.29369 0.01038 0.85725 0.0
O72 O 0.33516 0.96374 0.86888 0.0
Mg73 Mg 0.40253 0.01746 0.89526 0.0
C74 C 0.29791 0.96726 0.85716 0.0
C75 C 0.26794 0.11875 0.83635 0.0
O76 O 0.29699 0.10777 0.82095 0.0
O77 O 0.2964 0.0635 0.90908 0.0
O78 O 0.33455 0.01304 0.91958 0.0
O79 O 0.39937 0.11967 0.84097 0.0
O80 O 0.40948 0.0888 0.8765 0.0
C81 C 0.30034 0.02957 0.92322 0.0
C82 C 0.42527 0.10227 0.85438 0.0
O83 O 0.27468 0.11575 0.85911 0.0
Mg84 Mg 0.67237 0.73912 0.45491 0.0
O85 O 0.73705 0.72573 0.47418 0.0
O86 O 0.718 0.64038 0.46535 0.0
Mg87 Mg 0.64678 0.60155 0.43916 0.0
C88 C 0.74642 0.68594 0.47628 0.0
C89 C 0.71011 0.86184 0.45145 0.0
O90 O 0.67751 0.84213 0.43252 0.0
O91 O 0.71804 0.75203 0.41862 0.0
O92 O 0.70035 0.66654 0.41129 0.0
O93 O 0.6156 0.70045 0.48678 0.0
O94 O 0.61992 0.65573 0.4544 0.0
C95 C 0.72319 0.7171 0.40564 0.0
C96 C 0.60099 0.65455 0.47583 0.0
O97 O 0.71894 0.82958 0.46432 0.0
Mg98 Mg 0.90617 0.63446 0.78576 0.0
O99 O 0.98968 0.70366 0.79797 0.0
O100 O 0.05314 0.68077 0.78868 0.0
Mg101 Mg 0.01156 0.59814 0.76987 0.0
C102 C 0.03922 0.71389 0.79767 0.0
C103 C 0.82908 0.67167 0.80821 0.0
O104 O 0.81144 0.62335 0.81814 0.0
O105 O 0.92966 0.66531 0.74616 0.0
O106 O -0.0061 0.64185 0.73956 0.0
O107 O 0.89782 0.59041 0.82156 0.0
O108 O 0.93559 0.58011 0.78814 0.0
C109 C 0.96618 0.66401 0.7327 0.0
C110 C 0.92463 0.57001 0.81088 0.0
O111 O 0.86847 0.68907 0.79309 0.0
Mg112 Mg 0.24923 0.8952 0.107 0.0
O113 O 0.276 0.97781 0.1252 0.0
O114 O 0.3608 0.03733 0.11265 0.0
Mg115 Mg 0.38673 -0.00509 0.08487 0.0
C116 C 0.31851 0.02516 0.12551 0.0
C117 C 0.1473 0.83175 0.1397 0.0
O118 O 0.18143 0.81745 0.14884 0.0
O119 O 0.23184 0.92816 0.07167 0.0
O120 O 0.31781 0.98882 0.06105 0.0
O121 O 0.29201 0.87601 0.13698 0.0
O122 O 0.33113 0.91723 0.10247 0.0
C123 C 0.26633 0.96574 0.05766 0.0
C124 C 0.33566 0.90158 0.12389 0.0
O125 O 0.16234 0.86373 0.12142 0.0
Mg126 Mg 0.31682 0.2582 0.4603 0.0
O127 O 0.24768 0.26553 0.479 0.0
O128 O 0.25411 0.34349 0.46529 0.0
Mg129 Mg 0.32129 0.38276 0.43707 0.0
C130 C 0.23214 0.30114 0.47884 0.0
C131 C 0.30073 0.14264 0.46408 0.0
O132 O 0.33906 0.16556 0.4474 0.0
O133 O 0.26738 0.23036 0.42489 0.0
O134 O 0.27323 0.30864 0.41239 0.0
O135 O 0.37499 0.31034 0.48985 0.0
O136 O 0.35963 0.34209 0.45569 0.0
C137 C 0.25624 0.2577 0.40963 0.0
C138 C 0.38196 0.35162 0.47684 0.0
O139 O 0.28107 0.17046 0.47346 0.0
Mg140 Mg 0.08701 0.35632 0.77853 0.0
O141 O 0.00103 0.30391 0.79402 0.0
O142 O 0.95293 0.3467 0.78797 0.0
Mg143 Mg 0.00581 0.42308 0.76578 0.0
C144 C 0.95737 0.30675 0.79628 0.0
C145 C 0.13286 0.27529 0.77096 0.0
O146 O 0.14668 0.30001 0.74972 0.0
O147 O 0.05127 0.32347 0.74038 0.0
O148 O 0.00124 0.36467 0.73589 0.0
O149 O 0.11094 0.40435 0.81364 0.0
O150 O 0.07805 0.42501 0.78129 0.0
C151 C 0.01727 0.33201 0.72838 0.0
C152 C 0.09269 0.4338 0.80375 0.0
O153 O 0.10621 0.28774 0.7859 0.0
Mg154 Mg 0.7369 0.08755 0.10842 0.0
O155 O 0.70941 -0.00091 0.11967 0.0
O156 O 0.62682 0.94483 0.10344 0.0
Mg157 Mg 0.60258 -0.00327 0.08095 0.0
C158 C 0.66741 0.95201 0.1164 0.0
C159 C 0.84212 0.1566 0.13756 0.0
O160 O 0.81187 0.17864 0.1431 0.0
O161 O 0.75855 0.06939 0.07034 0.0
O162 O 0.67425 0.01302 0.05638 0.0
O163 O 0.69139 0.09449 0.14085 0.0
O164 O 0.65529 0.06589 0.10433 0.0
C165 C 0.72608 0.03767 0.05396 0.0
C166 C 0.64877 0.07311 0.12696 0.0
O167 O 0.82309 0.11642 0.12284 0.0
H168 H 0.8911 0.23932 0.17026 0.0
H169 H 0.91679 0.12258 0.12963 0.0
H170 H 0.00733 0.15882 0.14794 0.0
H171 H 0.07935 0.22401 0.17544 0.0
H172 H 0.05258 0.34028 0.21595 0.0
H173 H 0.9623 0.30369 0.19773 0.0
C174 C 0.91642 0.22171 0.16536 0.0
C175 C 0.8971 0.17831 0.14855 0.0
C176 C 0.9683 0.24265 0.17596 0.0
C177 C 0.93058 0.15603 0.1425 0.0
C178 C 0.98239 0.17674 0.15297 0.0
C179 C 0.05376 0.24133 0.18031 0.0
C180 C 0.07289 0.28493 0.19706 0.0
C181 C 0.00169 0.22008 0.16972 0.0
C182 C 0.03907 0.30678 0.20313 0.0
C183 C 0.98735 0.28589 0.1927 0.0
H184 H 0.7707 0.10564 0.47154 0.0
H185 H 0.83539 0.07679 0.53766 0.0
H186 H 0.80988 0.98477 0.52351 0.0
H187 H 0.76655 0.91164 0.49285 0.0
H188 H 0.70147 0.94137 0.42702 0.0
H189 H 0.73031 0.03421 0.44056 0.0
C190 C 0.77932 0.07934 0.48291 0.0
C191 C 0.80462 0.098 0.5057 0.0
C192 C 0.76459 0.02667 0.47468 0.0
C193 C 0.81577 0.06339 0.52007 0.0
C194 C 0.80123 0.01078 0.51198 0.0
C195 C 0.75906 0.93855 0.48137 0.0
C196 C 0.73169 0.91942 0.45897 0.0
C197 C 0.7753 0.99188 0.48937 0.0
C198 C 0.72228 0.95488 0.44436 0.0
C199 C 0.73867 0.008 0.4521 0.0
H200 H 0.74888 0.84212 0.82922 0.0
H201 H 0.64013 0.71226 0.87744 0.0
H202 H 0.6805 0.65718 0.86482 0.0
H203 H 0.74639 0.64537 0.84034 0.0
H204 H 0.85588 0.77421 0.79198 0.0
H205 H 0.8154 0.82992 0.80436 0.0
C206 C 0.73406 0.80179 0.83697 0.0
C207 C 0.69146 0.78151 0.85429 0.0
C208 C 0.7575 0.77 0.82959 0.0
C209 C 0.67279 0.72908 0.8641 0.0
C210 C 0.69585 0.69741 0.85689 0.0
C211 C 0.76147 0.6856 0.83243 0.0
C212 C 0.80416 0.70547 0.81523 0.0
C213 C 0.73817 0.7174 0.83966 0.0
C214 C 0.82305 0.75779 0.80524 0.0
C215 C 0.79994 0.78973 0.81234 0.0
H216 H 0.9071 0.75979 0.17483 0.0
H217 H 0.94893 0.67457 0.22851 0.0
H218 H 0.03977 0.71171 0.21065 0.0
H219 H 0.10644 0.76619 0.17931 0.0
H220 H 0.06525 0.85111 0.12527 0.0
H221 H 0.97495 0.81612 0.14378 0.0
C222 C 0.93618 0.74958 0.18272 0.0
C223 C 0.92107 0.7143 0.20298 0.0
C224 C 0.98834 0.77075 0.17223 0.0
C225 C 0.95931 0.70149 0.21291 0.0
C226 C 0.01131 0.72265 0.20269 0.0
C227 C 0.07781 0.77715 0.17153 0.0
C228 C 0.0926 0.81108 0.15085 0.0
C229 C 0.02608 0.75692 0.18224 0.0
C230 C 0.05493 0.82495 0.14113 0.0
C231 C 0.00328 0.80499 0.15172 0.0
H232 H 0.22453 0.08397 0.49888 0.0
H233 H 0.33513 0.07366 0.44732 0.0
H234 H 0.30619 0.98079 0.46067 0.0
H235 H 0.25017 0.90275 0.48692 0.0
H236 H 0.13908 0.9117 0.53857 0.0
H237 H 0.16768 0.00494 0.52524 0.0
C238 C 0.24223 0.06138 0.49054 0.0
C239 C 0.28199 0.08587 0.47212 0.0
C240 C 0.22545 0.0078 0.49833 0.0
C241 C 0.3045 0.05595 0.46152 0.0
C242 C 0.28801 0.00278 0.46915 0.0
C243 C 0.23216 0.925 0.49533 0.0
C244 C 0.19259 0.90024 0.51375 0.0
C245 C 0.24864 0.97837 0.48756 0.0
C246 C 0.16967 0.92978 0.52436 0.0
C247 C 0.18598 0.98309 0.51674 0.0
H248 H 0.25711 0.14424 0.78963 0.0
H249 H 0.1998 0.14236 0.86286 0.0
H250 H 0.14906 0.1865 0.84863 0.0
H251 H 0.12673 0.2319 0.81603 0.0
H252 H 0.18704 0.2368 0.74313 0.0
H253 H 0.2304 0.18483 0.75661 0.0
C254 C 0.23307 0.15291 0.80247 0.0
C255 C 0.23266 0.1403 0.82733 0.0
C256 C 0.20471 0.17915 0.79424 0.0
C257 C 0.20117 0.15186 0.84366 0.0
C258 C 0.17216 0.17719 0.83554 0.0
C259 C 0.14881 0.22108 0.803 0.0
C260 C 0.15388 0.23862 0.77861 0.0
C261 C 0.17451 0.19199 0.81096 0.0
C262 C 0.18268 0.22415 0.76202 0.0
C263 C 0.20761 0.19448 0.76972 0.0
H264 H 0.59209 0.47394 0.20028 0.0
H265 H 0.59216 0.6189 0.17566 0.0
H266 H 0.4925 0.56765 0.17131 0.0
H267 H 0.40465 0.48512 0.18178 0.0
H268 H 0.4067 0.34232 0.20832 0.0
H269 H 0.50551 0.38815 0.20427 0.0
C270 C 0.57027 0.49352 0.19302 0.0
C271 C 0.5988 0.54959 0.18811 0.0
C272 C 0.51311 0.46422 0.19138 0.0
C273 C 0.57057 0.57539 0.17929 0.0
C274 C 0.51364 0.54622 0.17704 0.0
C275 C 0.42683 0.46381 0.186 0.0
C276 C 0.39876 0.4109 0.19586 0.0
C277 C 0.48424 0.49114 0.18411 0.0
C278 C 0.42761 0.3835 0.20133 0.0
C279 C 0.4842 0.40967 0.19892 0.0
H280 H 0.10791 0.56286 0.50901 0.0
H281 H -0.00352 0.6245 0.49988 0.0
H282 H 0.91973 0.53133 0.49628 0.0
H283 H 0.8842 0.43244 0.50443 0.0
H284 H -0.00313 0.37094 0.50305 0.0
H285 H 0.07419 0.46413 0.50143 0.0
C286 C 0.0672 0.55586 0.50511 0.0
C287 C 0.057 0.59975 0.50581 0.0
C288 C 0.02383 0.50243 0.50155 0.0
C289 C 0.00457 0.59074 0.50024 0.0
C290 C 0.96072 0.53755 0.49818 0.0
C291 C 0.92557 0.4395 0.5027 0.0
C292 C 0.93547 0.39562 0.50505 0.0
C293 C 0.96962 0.49297 0.50017 0.0
C294 C 0.98885 0.40471 0.50223 0.0
C295 C 0.03301 0.45789 0.50124 0.0
H296 H 0.40186 0.01056 0.82956 0.0
H297 H 0.53485 0.15899 0.85863 0.0
H298 H 0.59606 0.12103 0.85485 0.0
H299 H 0.60604 0.04018 0.85093 0.0
H300 H 0.47132 0.88772 0.82646 0.0
H301 H 0.41603 0.93223 0.8204 0.0
C302 C 0.44472 0.035 0.83425 0.0
C303 C 0.46432 0.08749 0.84419 0.0
C304 C 0.47867 0.01158 0.83333 0.0
C305 C 0.51948 0.11885 0.85059 0.0
C306 C 0.55415 0.09686 0.84872 0.0
C307 C 0.56494 0.01693 0.84395 0.0
C308 C 0.54229 0.96074 0.83961 0.0
C309 C 0.53337 0.04239 0.84134 0.0
C310 C 0.48942 0.93114 0.82994 0.0
C311 C 0.45781 0.95652 0.82667 0.0
H312 H 0.49244 0.60403 0.48218 0.0
H313 H 0.63373 0.58619 0.49399 0.0
H314 H 0.5754 0.48788 0.50031 0.0
H315 H 0.48549 0.40555 0.49396 0.0
H316 H 0.34542 0.42406 0.47932 0.0
H317 H 0.40099 0.52295 0.48314 0.0
C318 C 0.51004 0.57873 0.48713 0.0
C319 C 0.56686 0.60163 0.48757 0.0
C320 C 0.47629 0.52208 0.48978 0.0
C321 C 0.58984 0.56889 0.49351 0.0
C322 C 0.55652 0.51271 0.49698 0.0
C323 C 0.46707 0.43133 0.49245 0.0
C324 C 0.41193 0.40806 0.4859 0.0
C325 C 0.49984 0.48847 0.49388 0.0
C326 C 0.38816 0.44144 0.48381 0.0
C327 C 0.41992 0.498 0.48602 0.0
H328 H 0.03072 0.61038 0.8208 0.0
H329 H 0.87332 0.46652 0.82912 0.0
H330 H 0.91727 0.411 0.83537 0.0
H331 H -0.0018 0.40114 0.82766 0.0
H332 H 0.15196 0.54325 0.81023 0.0
H333 H 0.11321 0.60238 0.81895 0.0
C334 C 0.00632 0.56717 0.82462 0.0
C335 C 0.94914 0.54226 0.82419 0.0
C336 C 0.03173 0.53532 0.82623 0.0
C337 C 0.91752 0.48645 0.82956 0.0
C338 C 0.94268 0.4547 0.83276 0.0
C339 C 0.0234 0.44515 0.82651 0.0
C340 C 0.07755 0.46811 0.81821 0.0
C341 C -0.00055 0.47821 0.82953 0.0
C342 C 0.11032 0.52503 0.81685 0.0
C343 C 0.0879 0.55864 0.8215 0.0
H344 H 0.4039 0.00214 0.14115 0.0
H345 H 0.38976 0.8448 0.12869 0.0
H346 H 0.48862 0.88456 0.13446 0.0
H347 H 0.57932 0.96673 0.13532 0.0
H348 H 0.59394 0.12589 0.14018 0.0
H349 H 0.49464 0.0836 0.1456 0.0
C350 C 0.42253 0.97669 0.13992 0.0
C351 C 0.39029 0.92107 0.13413 0.0
C352 C 0.47941 0.00056 0.14171 0.0
C353 C 0.41416 0.88775 0.13325 0.0
C354 C 0.47058 0.9106 0.1363 0.0
C355 C 0.5607 0.99195 0.13773 0.0
C356 C 0.59323 0.04906 0.13691 0.0
C357 C 0.50374 0.96735 0.1393 0.0
C358 C 0.56931 0.08174 0.14084 0.0
C359 C 0.51266 0.05756 0.14368 0.0
H360 H 0.23288 0.03559 0.14163 0.0
H361 H 0.40813 0.10781 0.14673 0.0
H362 H 0.4122 0.17717 0.1746 0.0
H363 H 0.36682 0.21842 0.19659 0.0
H364 H 0.19265 0.15164 0.18979 0.0
H365 H 0.18711 0.07854 0.16349 0.0
C366 C 0.27183 0.06648 0.14895 0.0
C367 C 0.32012 0.06681 0.14218 0.0
C368 C 0.27403 0.10693 0.16461 0.0
C369 C 0.37048 0.10716 0.15154 0.0
C370 C 0.37284 0.14663 0.16754 0.0
C371 C 0.32748 0.18749 0.18961 0.0
C372 C 0.2801 0.18985 0.19528 0.0
C373 C 0.32496 0.14698 0.17409 0.0
C374 C 0.22962 0.15036 0.18567 0.0
C375 C 0.22649 0.10873 0.17066 0.0
H376 H 0.01612 0.24438 0.5348 0.0
H377 H 0.10333 0.4199 0.54393 0.0
H378 H 0.18408 0.42518 0.52517 0.0
H379 H 0.22613 0.38168 0.50201 0.0
H380 H 0.1407 0.20673 0.49257 0.0
H381 H 0.06282 0.19936 0.51584 0.0
C382 C 0.05306 0.2837 0.53302 0.0
C383 C 0.05337 0.33173 0.54041 0.0
C384 C 0.09931 0.28661 0.52195 0.0
C385 C 0.1018 0.38227 0.53832 0.0
C386 C 0.14796 0.38544 0.52745 0.0
C387 C 0.19055 0.34189 0.50523 0.0
C388 C 0.18827 0.2949 0.49529 0.0
C389 C 0.14649 0.33814 0.51851 0.0
C390 C 0.14287 0.24341 0.5 0.0
C391 C 0.09845 0.23929 0.51319 0.0
H392 H 0.93737 0.20318 0.80402 0.0
H393 H 0.87115 0.31049 0.81656 0.0
H394 H 0.79192 0.23674 0.83683 0.0
H395 H 0.74138 0.14243 0.85056 0.0
H396 H 0.80493 0.03319 0.83729 0.0
H397 H 0.88553 0.10738 0.81752 0.0
C398 C 0.90571 0.21045 0.81131 0.0
C399 C 0.91012 0.2622 0.80886 0.0
C400 C 0.85988 0.16767 0.82267 0.0
C401 C 0.86857 0.27095 0.81814 0.0
C402 C 0.82331 0.22887 0.82976 0.0
C403 C 0.77292 0.13474 0.84347 0.0
C404 C 0.76739 0.0825 0.84552 0.0
C405 C 0.81856 0.17716 0.83205 0.0
C406 C 0.80826 0.07309 0.83591 0.0
C407 C 0.85434 0.11548 0.82467 0.0
H408 H 0.7502 0.94104 0.13597 0.0
H409 H 0.57499 0.85653 0.12646 0.0
H410 H 0.5663 0.78004 0.15046 0.0
H411 H 0.60764 0.73847 0.17527 0.0
H412 H 0.78271 0.8203 0.18407 0.0
H413 H 0.79231 0.89659 0.15911 0.0
C414 C 0.7102 0.90576 0.13909 0.0
C415 C 0.66337 0.90456 0.12953 0.0
C416 C 0.7054 0.86162 0.15282 0.0
C417 C 0.61178 0.85839 0.1335 0.0
C418 C 0.60666 0.81469 0.14732 0.0
C419 C 0.6479 0.77307 0.17176 0.0
C420 C 0.69432 0.77425 0.18167 0.0
C421 C 0.65309 0.81616 0.15725 0.0
C422 C 0.74635 0.81869 0.17661 0.0
C423 C 0.75184 0.86228 0.16242 0.0
H424 H 0.75472 0.6054 0.49856 0.0
H425 H 0.83956 0.78032 0.48861 0.0
H426 H 0.91859 0.7881 0.51074 0.0
H427 H 0.96573 0.74385 0.52982 0.0
H428 H 0.87928 0.56842 0.5393 0.0
H429 H 0.79839 0.56239 0.52055 0.0
C430 C 0.79044 0.6453 0.50131 0.0
C431 C 0.79186 0.69211 0.49167 0.0
C432 C 0.83536 0.64935 0.51389 0.0
C433 C 0.83777 0.74367 0.49582 0.0
C434 C 0.88293 0.74808 0.50836 0.0
C435 C 0.92902 0.70437 0.52801 0.0
C436 C 0.92885 0.65666 0.53573 0.0
C437 C 0.88255 0.70101 0.51703 0.0
C438 C 0.88073 0.60586 0.53349 0.0
C439 C 0.83442 0.60225 0.52267 0.0
H440 H 0.19587 0.94412 0.84427 0.0
H441 H 0.30782 0.88124 0.84083 0.0
H442 H 0.23768 0.79775 0.82151 0.0
H443 H 0.14413 0.7416 0.8071 0.0
H444 H 0.03077 0.80271 0.81172 0.0
H445 H 0.10218 0.88813 0.82923 0.0
C446 C 0.20506 0.91237 0.83906 0.0
C447 C 0.25682 0.91871 0.84397 0.0
C448 C 0.16431 0.86413 0.82839 0.0
C449 C 0.26808 0.87708 0.83736 0.0
C450 C 0.22807 0.82939 0.82632 0.0
C451 C 0.13497 0.77363 0.81181 0.0
C452 C 0.08219 0.76576 0.80812 0.0
C453 C 0.17592 0.82228 0.82202 0.0
C454 C 0.07102 0.80762 0.81448 0.0
C455 C 0.11183 0.85651 0.82443 0.0
H456 H 0.19167 0.28225 0.38212 0.0
H457 H 0.26543 0.17977 0.38391 0.0
H458 H 0.25202 0.16495 0.33999 0.0
H459 H 0.24142 0.20085 0.30077 0.0
H460 H 0.17094 0.30605 0.29881 0.0
H461 H 0.15937 0.29896 0.34312 0.0
C462 C 0.20304 0.25514 0.37298 0.0
C463 C 0.23079 0.23328 0.38602 0.0
C464 C 0.19641 0.24797 0.34767 0.0
C465 C 0.2444 0.19739 0.3742 0.0
C466 C 0.23722 0.18935 0.34904 0.0
C467 C 0.22141 0.22028 0.31002 0.0
C468 C 0.20792 0.2547 0.29681 0.0
C469 C 0.21653 0.2173 0.33547 0.0
C470 C 0.18162 0.27939 0.3087 0.0
C471 C 0.17572 0.27591 0.33406 0.0
H472 H 0.97141 0.27144 0.61805 0.0
H473 H 0.82037 0.26514 0.63773 0.0
H474 H 0.84428 0.27127 0.68097 0.0
H475 H 0.91541 0.29576 0.71181 0.0
H476 H 0.06904 0.30721 0.6923 0.0
H477 H 0.03682 0.28071 0.65028 0.0
C478 C 0.94288 0.26905 0.63197 0.0
C479 C 0.89394 0.2671 0.62501 0.0
C480 C 0.95803 0.27473 0.65664 0.0
C481 C 0.85767 0.26554 0.64289 0.0
C482 C 0.87174 0.26978 0.66752 0.0
C483 C 0.94142 0.29137 0.69844 0.0
C484 C -0.00512 0.30443 0.70488 0.0
C485 C 0.92293 0.27711 0.67443 0.0
C486 C 0.02788 0.29762 0.68765 0.0
C487 C 0.00954 0.28281 0.66364 0.0
H488 H 0.70008 0.94254 0.03213 0.0
H489 H 0.79565 0.11707 0.02293 0.0
H490 H 0.80104 0.10512 0.97896 0.0
H491 H 0.75877 0.04615 0.9432 0.0
H492 H 0.66057 0.87183 0.9524 0.0
H493 H 0.6771 0.88199 0.99642 0.0
C494 C 0.72397 0.97771 0.02054 0.0
C495 C 0.74687 0.03059 0.03045 0.0
C496 C 0.7256 0.97042 0.99533 0.0
C497 C 0.7779 0.07607 0.01556 0.0
C498 C 0.78037 0.06919 0.99042 0.0
C499 C 0.74297 0.0103 0.95481 0.0
C500 C 0.70797 0.95842 0.94486 0.0
C501 C 0.75153 0.01677 0.98004 0.0
C502 C 0.68771 0.91205 0.95978 0.0
C503 C 0.69663 0.918 0.98495 0.0
H504 H 0.78952 0.69522 0.30057 0.0
H505 H 0.70268 0.78211 0.28608 0.0
H506 H 0.70613 0.80509 0.32924 0.0
H507 H 0.71452 0.78165 0.37153 0.0
H508 H 0.7906 0.68439 0.38604 0.0
H509 H 0.81196 0.68525 0.34282 0.0
C510 C 0.77346 0.72108 0.30681 0.0
C511 C 0.74568 0.73678 0.29037 0.0
C512 C 0.77277 0.73134 0.33185 0.0
C513 C 0.72412 0.76952 0.29857 0.0
C514 C 0.72571 0.78228 0.32325 0.0
C515 C 0.73767 0.76258 0.36528 0.0
C516 C 0.75063 0.73266 0.38175 0.0
C517 C 0.74704 0.76066 0.34021 0.0
C518 C 0.77997 0.70738 0.37352 0.0
C519 C 0.79187 0.70757 0.34881 0.0
H520 H 0.98082 0.67808 0.62012 0.0
H521 H 0.1528 0.76212 0.63676 0.0
H522 H 0.13223 0.76607 0.67998 0.0
H523 H 0.06459 0.73044 0.71322 0.0
H524 H 0.89256 0.6454 0.6966 0.0
H525 H 0.91352 0.6583 0.65289 0.0
C526 C 0.0137 0.69854 0.63321 0.0
C527 C 0.06813 0.71925 0.62563 0.0
C528 C 0.0014 0.70017 0.65786 0.0
C529 C 0.11071 0.74603 0.6424 0.0
C530 C 0.09886 0.74792 0.66704 0.0
C531 C 0.0318 0.71641 0.69997 0.0
C532 C 0.97717 0.68661 0.70788 0.0
C533 C 0.0443 0.72302 0.67504 0.0
C534 C 0.93481 0.66868 0.6908 0.0
C535 C 0.94686 0.67548 0.66587 0.0
H536 H 0.21275 0.90251 0.0191 0.0
H537 H 0.28543 0.06696 0.04662 0.0
H538 H 0.28995 0.10193 0.00544 0.0
H539 H 0.29484 0.08746 0.96144 0.0
H540 H 0.23243 0.92383 0.93417 0.0
H541 H 0.20102 0.88649 0.97493 0.0
C542 C 0.22701 0.94558 0.01608 0.0
C543 C 0.24862 0.98221 0.03564 0.0
C544 C 0.23243 0.96562 0.99219 0.0
C545 C 0.2683 0.03816 0.03167 0.0
C546 C 0.27147 0.05819 0.00811 0.0
C547 C 0.27218 0.04362 0.96437 0.0
C548 C 0.26591 0.00831 0.94507 0.0
C549 C 0.25688 0.02269 0.98811 0.0
C550 C 0.23751 0.95157 0.94893 0.0
C551 C 0.21998 0.93027 0.97225 0.0
loop_
_geom_bond_atom_site_label_1
_geom_bond_atom_site_label_2
_geom_bond_distance
_geom_bond_site_symmetry_2
_ccdc_geom_bond_type
Mg0 O1 2.028 . S
Mg0 O7 1.986 . S
Mg0 O9 2.114 . S
Mg0 O10 2.251 . S
Mg0 O13 2.010 . S
O1 Mg0 2.028 . S
O1 C4 1.250 . S
O2 Mg3 2.028 . S
O2 C4 1.248 . S
Mg3 O2 2.028 . S
Mg3 O8 2.032 . S
Mg3 O10 2.079 . S
C4 O1 1.250 . S
C4 O2 1.248 . S
C5 O6 1.264 . S
C5 O13 1.249 . S
O6 C5 1.264 . S
O7 Mg0 1.986 . S
O7 C11 1.246 . S
O8 Mg3 2.032 . S
O8 C11 1.259 . S
O9 Mg0 2.114 . S
O9 C12 1.252 . S
O10 Mg0 2.251 . S
O10 Mg3 2.079 . S
O10 C12 1.273 . S
C11 O7 1.246 . S
C11 O8 1.259 . S
C12 O9 1.252 . S
C12 O10 1.273 . S
O13 Mg0 2.010 . S
O13 C5 1.249 . S
Mg14 O15 2.028 . S
Mg14 O21 1.986 . S
Mg14 O23 2.114 . S
Mg14 O24 2.251 . S
Mg14 O27 2.010 . S
O15 Mg14 2.028 . S
O15 C18 1.250 1_655 S
O16 Mg17 2.028 . S
O16 C18 1.248 . S
Mg17 O16 2.028 . S
Mg17 O22 2.032 . S
Mg17 O24 2.079 1_455 S
C18 O15 1.250 1_455 S
C18 O16 1.248 . S
C19 O20 1.264 . S
C19 O27 1.249 . S
O20 C19 1.264 . S
O21 Mg14 1.986 . S
O21 C25 1.246 . S
O22 Mg17 2.032 . S
O22 C25 1.259 1_455 S
O23 Mg14 2.114 . S
O23 C26 1.252 . S
O24 Mg14 2.251 . S
O24 Mg17 2.079 1_655 S
O24 C26 1.273 . S
C25 O21 1.246 . S
C25 O22 1.259 1_655 S
C26 O23 1.252 . S
C26 O24 1.273 . S
O27 Mg14 2.010 . S
O27 C19 1.249 . S
Mg28 O29 2.028 . S
Mg28 O35 1.986 . S
Mg28 O37 2.114 . S
Mg28 O38 2.251 . S
Mg28 O41 2.010 . S
O29 Mg28 2.028 . S
O29 C32 1.250 1_565 S
O30 Mg31 2.028 . S
O30 C32 1.248 . S
Mg31 O30 2.028 . S
Mg31 O36 2.032 . S
Mg31 O38 2.079 1_545 S
C32 O29 1.250 1_545 S
C32 O30 1.248 . S
C33 O34 1.264 . S
C33 O41 1.249 . S
O34 C33 1.264 . S
O35 Mg28 1.986 . S
O35 C39 1.246 . S
O36 Mg31 2.032 . S
O36 C39 1.259 1_545 S
O37 Mg28 2.114 . S
O37 C40 1.252 . S
O38 Mg28 2.251 . S
O38 Mg31 2.079 1_565 S
O38 C40 1.273 . S
C39 O35 1.246 . S
C39 O36 1.259 1_565 S
C40 O37 1.252 . S
C40 O38 1.273 . S
O41 Mg28 2.010 . S
O41 C33 1.249 . S
Mg42 O43 2.028 . S
Mg42 O49 1.986 . S
Mg42 O51 2.114 . S
Mg42 O52 2.251 . S
Mg42 O55 2.010 . S
O43 Mg42 2.028 . S
O43 C46 1.250 . S
O44 Mg45 2.028 . S
O44 C46 1.248 . S
Mg45 O44 2.028 . S
Mg45 O50 2.032 . S
Mg45 O52 2.079 . S
C46 O43 1.250 . S
C46 O44 1.248 . S
C47 O48 1.264 . S
C47 O55 1.249 . S
O48 C47 1.264 . S
O49 Mg42 1.986 . S
O49 C53 1.246 . S
O50 Mg45 2.032 . S
O50 C53 1.259 . S
O51 Mg42 2.114 . S
O51 C54 1.252 . S
O52 Mg42 2.251 . S
O52 Mg45 2.079 . S
O52 C54 1.273 . S
C53 O49 1.246 . S
C53 O50 1.259 . S
C54 O51 1.252 . S
C54 O52 1.273 . S
O55 Mg42 2.010 . S
O55 C47 1.249 . S
Mg56 O57 2.028 . S
Mg56 O63 1.986 . S
Mg56 O65 2.114 . S
Mg56 O66 2.251 . S
Mg56 O69 2.010 . S
O57 Mg56 2.028 . S
O57 C60 1.250 1_455 S
O58 Mg59 2.028 . S
O58 C60 1.248 . S
Mg59 O58 2.028 . S
Mg59 O64 2.032 . S
Mg59 O66 2.079 1_655 S
C60 O57 1.250 1_655 S
C60 O58 1.248 . S
C61 O62 1.264 . S
C61 O69 1.249 . S
O62 C61 1.264 . S
O63 Mg56 1.986 . S
O63 C67 1.246 . S
O64 Mg59 2.032 . S
O64 C67 1.259 1_655 S
O65 Mg56 2.114 . S
O65 C68 1.252 . S
O66 Mg56 2.251 . S
O66 Mg59 2.079 1_455 S
O66 C68 1.273 . S
C67 O63 1.246 . S
C67 O64 1.259 1_455 S
C68 O65 1.252 . S
C68 O66 1.273 . S
O69 Mg56 2.010 . S
O69 C61 1.249 . S
Mg70 O71 2.028 . S
Mg70 O77 1.986 . S
Mg70 O79 2.114 . S
Mg70 O80 2.251 . S
Mg70 O83 2.010 . S
O71 Mg70 2.028 . S
O71 C74 1.250 1_545 S
O72 Mg73 2.028 . S
O72 C74 1.248 . S
Mg73 O72 2.028 . S
Mg73 O78 2.032 . S
Mg73 O80 2.079 1_565 S
C74 O71 1.250 1_565 S
C74 O72 1.248 . S
C75 O76 1.264 . S
C75 O83 1.249 . S
O76 C75 1.264 . S
O77 Mg70 1.986 . S
O77 C81 1.246 . S
O78 Mg73 2.032 . S
O78 C81 1.259 1_565 S
O79 Mg70 2.114 . S
O79 C82 1.252 . S
O80 Mg70 2.251 . S
O80 Mg73 2.079 1_545 S
O80 C82 1.273 . S
C81 O77 1.246 . S
C81 O78 1.259 1_545 S
C82 O79 1.252 . S
C82 O80 1.273 . S
O83 Mg70 2.010 . S
O83 C75 1.249 . S
Mg84 O85 2.028 . S
Mg84 O91 1.986 . S
Mg84 O93 2.114 . S
Mg84 O94 2.251 . S
Mg84 O97 2.010 . S
O85 Mg84 2.028 . S
O85 C88 1.250 . S
O86 Mg87 2.028 . S
O86 C88 1.248 . S
Mg87 O86 2.028 . S
Mg87 O92 2.032 . S
Mg87 O94 2.079 . S
C88 O85 1.250 . S
C88 O86 1.248 . S
C89 O90 1.264 . S
C89 O97 1.249 . S
O90 C89 1.264 . S
O91 Mg84 1.986 . S
O91 C95 1.246 . S
O92 Mg87 2.032 . S
O92 C95 1.259 . S
O93 Mg84 2.114 . S
O93 C96 1.252 . S
O94 Mg84 2.251 . S
O94 Mg87 2.079 . S
O94 C96 1.273 . S
C95 O91 1.246 . S
C95 O92 1.259 . S
C96 O93 1.252 . S
C96 O94 1.273 . S
O97 Mg84 2.010 . S
O97 C89 1.249 . S
Mg98 O99 2.028 . S
Mg98 O105 1.986 . S
Mg98 O107 2.114 . S
Mg98 O108 2.251 . S
Mg98 O111 2.010 . S
O99 Mg98 2.028 . S
O99 C102 1.250 1_655 S
O100 Mg101 2.028 . S
O100 C102 1.248 . S
Mg101 O100 2.028 . S
Mg101 O106 2.032 . S
Mg101 O108 2.079 1_455 S
C102 O99 1.250 1_455 S
C102 O100 1.248 . S
C103 O104 1.264 . S
C103 O111 1.249 . S
O104 C103 1.264 . S
O105 Mg98 1.986 . S
O105 C109 1.246 . S
O106 Mg101 2.032 . S
O106 C109 1.259 1_455 S
O107 Mg98 2.114 . S
O107 C110 1.252 . S
O108 Mg98 2.251 . S
O108 Mg101 2.079 1_655 S
O108 C110 1.273 . S
C109 O105 1.246 . S
C109 O106 1.259 1_655 S
C110 O107 1.252 . S
C110 O108 1.273 . S
O111 Mg98 2.010 . S
O111 C103 1.249 . S
Mg112 O113 2.028 . S
Mg112 O119 1.986 . S
Mg112 O121 2.114 . S
Mg112 O122 2.251 . S
Mg112 O125 2.010 . S
O113 Mg112 2.028 . S
O113 C116 1.250 1_565 S
O114 Mg115 2.028 . S
O114 C116 1.248 . S
Mg115 O114 2.028 . S
Mg115 O120 2.032 . S
Mg115 O122 2.079 1_545 S
C116 O113 1.250 1_545 S
C116 O114 1.248 . S
C117 O118 1.264 . S
C117 O125 1.249 . S
O118 C117 1.264 . S
O119 Mg112 1.986 . S
O119 C123 1.246 . S
O120 Mg115 2.032 . S
O120 C123 1.259 1_545 S
O121 Mg112 2.114 . S
O121 C124 1.252 . S
O122 Mg112 2.251 . S
O122 Mg115 2.079 1_565 S
O122 C124 1.273 . S
C123 O119 1.246 . S
C123 O120 1.259 1_565 S
C124 O121 1.252 . S
C124 O122 1.273 . S
O125 Mg112 2.010 . S
O125 C117 1.249 . S
Mg126 O127 2.028 . S
Mg126 O133 1.986 . S
Mg126 O135 2.114 . S
Mg126 O136 2.251 . S
Mg126 O139 2.010 . S
O127 Mg126 2.028 . S
O127 C130 1.250 . S
O128 Mg129 2.028 . S
O128 C130 1.248 . S
Mg129 O128 2.028 . S
Mg129 O134 2.032 . S
Mg129 O136 2.079 . S
C130 O127 1.250 . S
C130 O128 1.248 . S
C131 O132 1.264 . S
C131 O139 1.249 . S
O132 C131 1.264 . S
O133 Mg126 1.986 . S
O133 C137 1.246 . S
O134 Mg129 2.032 . S
O134 C137 1.259 . S
O135 Mg126 2.114 . S
O135 C138 1.252 . S
O136 Mg126 2.251 . S
O136 Mg129 2.079 . S
O136 C138 1.273 . S
C137 O133 1.246 . S
C137 O134 1.259 . S
C138 O135 1.252 . S
C138 O136 1.273 . S
O139 Mg126 2.010 . S
O139 C131 1.249 . S
Mg140 O141 2.028 . S
Mg140 O147 1.986 . S
Mg140 O149 2.114 . S
Mg140 O150 2.251 . S
Mg140 O153 2.010 . S
O141 Mg140 2.028 . S
O141 C144 1.250 1_455 S
O142 Mg143 2.028 . S
O142 C144 1.248 . S
Mg143 O142 2.028 . S
Mg143 O148 2.032 . S
Mg143 O150 2.079 1_655 S
C144 O141 1.250 1_655 S
C144 O142 1.248 . S
C145 O146 1.264 . S
C145 O153 1.249 . S
O146 C145 1.264 . S
O147 Mg140 1.986 . S
O147 C151 1.246 . S
O148 Mg143 2.032 . S
O148 C151 1.259 1_655 S
O149 Mg140 2.114 . S
O149 C152 1.252 . S
O150 Mg140 2.251 . S
O150 Mg143 2.079 1_455 S
O150 C152 1.273 . S
C151 O147 1.246 . S
C151 O148 1.259 1_455 S
C152 O149 1.252 . S
C152 O150 1.273 . S
O153 Mg140 2.010 . S
O153 C145 1.249 . S
Mg154 O155 2.028 . S
Mg154 O161 1.986 . S
Mg154 O163 2.114 . S
Mg154 O164 2.251 . S
Mg154 O167 2.010 . S
O155 Mg154 2.028 . S
O155 C158 1.250 1_545 S
O156 Mg157 2.028 . S
O156 C158 1.248 . S
Mg157 O156 2.028 . S
Mg157 O162 2.032 . S
Mg157 O164 2.079 1_565 S
C158 O155 1.250 1_565 S
C158 O156 1.248 . S
C159 O160 1.264 . S
C159 O167 1.249 . S
O160 C159 1.264 . S
O161 Mg154 1.986 . S
O161 C165 1.246 . S
O162 Mg157 2.032 . S
O162 C165 1.259 1_565 S
O163 Mg154 2.114 . S
O163 C166 1.252 . S
O164 Mg154 2.251 . S
O164 Mg157 2.079 1_545 S
O164 C166 1.273 . S
C165 O161 1.246 . S
C165 O162 1.259 1_545 S
C166 O163 1.252 . S
C166 O164 1.273 . S
O167 Mg154 2.010 . S
O167 C159 1.249 . S
H168 C174 0.930 . S
H169 C177 0.930 . S
H170 C178 0.930 . S
H171 C179 0.930 . S
H172 C182 0.930 . S
H173 C183 0.930 . S
C174 H168 0.930 . S
C174 C175 1.355 . S
C174 C176 1.415 . S
C175 C174 1.355 . S
C175 C177 1.419 . S
C176 C174 1.415 . S
C176 C181 1.425 1_655 S
C176 C183 1.409 1_655 S
C177 H169 0.930 . S
C177 C175 1.419 . S
C177 C178 1.362 . S
C178 H170 0.930 . S
C178 C177 1.362 . S
C178 C181 1.409 1_655 S
C179 H171 0.930 . S
C179 C180 1.355 . S
C179 C181 1.415 . S
C180 C179 1.355 . S
C180 C182 1.419 . S
C181 C176 1.425 1_455 S
C181 C178 1.409 1_455 S
C181 C179 1.415 . S
C182 H172 0.930 . S
C182 C180 1.419 . S
C182 C183 1.362 . S
C183 H173 0.930 . S
C183 C176 1.409 1_455 S
C183 C182 1.362 . S
H184 C190 0.930 . S
H185 C193 0.930 . S
H186 C194 0.930 . S
H187 C195 0.930 . S
H188 C198 0.930 . S
H189 C199 0.930 . S
C190 H184 0.930 . S
C190 C191 1.355 . S
C190 C192 1.415 . S
C191 C190 1.355 . S
C191 C193 1.419 . S
C192 C190 1.415 . S
C192 C197 1.425 1_545 S
C192 C199 1.409 1_545 S
C193 H185 0.930 . S
C193 C191 1.419 . S
C193 C194 1.362 . S
C194 H186 0.930 . S
C194 C193 1.362 . S
C194 C197 1.409 1_545 S
C195 H187 0.930 . S
C195 C196 1.355 . S
C195 C197 1.415 . S
C196 C195 1.355 . S
C196 C198 1.419 . S
C197 C192 1.425 1_565 S
C197 C194 1.409 1_565 S
C197 C195 1.415 . S
C198 H188 0.930 . S
C198 C196 1.419 . S
C198 C199 1.362 . S
C199 H189 0.930 . S
C199 C192 1.409 1_565 S
C199 C198 1.362 . S
H200 C206 0.930 . S
H201 C209 0.930 . S
H202 C210 0.930 . S
H203 C211 0.930 . S
H204 C214 0.930 . S
H205 C215 0.930 . S
C206 H200 0.930 . S
C206 C207 1.355 . S
C206 C208 1.415 . S
C207 C206 1.355 . S
C207 C209 1.419 . S
C208 C206 1.415 . S
C208 C213 1.425 . S
C208 C215 1.409 . S
C209 H201 0.930 . S
C209 C207 1.419 . S
C209 C210 1.362 . S
C210 H202 0.930 . S
C210 C209 1.362 . S
C210 C213 1.409 . S
C211 H203 0.930 . S
C211 C212 1.355 . S
C211 C213 1.415 . S
C212 C211 1.355 . S
C212 C214 1.419 . S
C213 C208 1.425 . S
C213 C210 1.409 . S
C213 C211 1.415 . S
C214 H204 0.930 . S
C214 C212 1.419 . S
C214 C215 1.362 . S
C215 H205 0.930 . S
C215 C208 1.409 . S
C215 C214 1.362 . S
H216 C222 0.930 . S
H217 C225 0.930 . S
H218 C226 0.930 . S
H219 C227 0.930 . S
H220 C230 0.930 . S
H221 C231 0.930 . S
C222 H216 0.930 . S
C222 C223 1.355 . S
C222 C224 1.415 . S
C223 C222 1.355 . S
C223 C225 1.419 . S
C224 C222 1.415 . S
C224 C229 1.425 1_655 S
C224 C231 1.409 1_655 S
C225 H217 0.930 . S
C225 C223 1.419 . S
C225 C226 1.362 . S
C226 H218 0.930 . S
C226 C225 1.362 . S
C226 C229 1.409 1_655 S
C227 H219 0.930 . S
C227 C228 1.355 . S
C227 C229 1.415 . S
C228 C227 1.355 . S
C228 C230 1.419 . S
C229 C224 1.425 1_455 S
C229 C226 1.409 1_455 S
C229 C227 1.415 . S
C230 H220 0.930 . S
C230 C228 1.419 . S
C230 C231 1.362 . S
C231 H221 0.930 . S
C231 C224 1.409 1_455 S
C231 C230 1.362 . S
H232 C238 0.930 . S
H233 C241 0.930 . S
H234 C242 0.930 . S
H235 C243 0.930 . S
H236 C246 0.930 . S
H237 C247 0.930 . S
C238 H232 0.930 . S
C238 C239 1.355 . S
C238 C240 1.415 . S
C239 C238 1.355 . S
C239 C241 1.419 . S
C240 C238 1.415 . S
C240 C245 1.425 1_545 S
C240 C247 1.409 1_545 S
C241 H233 0.930 . S
C241 C239 1.419 . S
C241 C242 1.362 . S
C242 H234 0.930 . S
C242 C241 1.362 . S
C242 C245 1.409 1_545 S
C243 H235 0.930 . S
C243 C244 1.355 . S
C243 C245 1.415 . S
C244 C243 1.355 . S
C244 C246 1.419 . S
C245 C240 1.425 1_565 S
C245 C242 1.409 1_565 S
C245 C243 1.415 . S
C246 H236 0.930 . S
C246 C244 1.419 . S
C246 C247 1.362 . S
C247 H237 0.930 . S
C247 C240 1.409 1_565 S
C247 C246 1.362 . S
H248 C254 0.930 . S
H249 C257 0.930 . S
H250 C258 0.930 . S
H251 C259 0.930 . S
H252 C262 0.930 . S
H253 C263 0.930 . S
C254 H248 0.930 . S
C254 C255 1.355 . S
C254 C256 1.415 . S
C255 C254 1.355 . S
C255 C257 1.419 . S
C256 C254 1.415 . S
C256 C261 1.425 . S
C256 C263 1.409 . S
C257 H249 0.930 . S
C257 C255 1.419 . S
C257 C258 1.362 . S
C258 H250 0.930 . S
C258 C257 1.362 . S
C258 C261 1.409 . S
C259 H251 0.930 . S
C259 C260 1.355 . S
C259 C261 1.415 . S
C260 C259 1.355 . S
C260 C262 1.419 . S
C261 C256 1.425 . S
C261 C258 1.409 . S
C261 C259 1.415 . S
C262 H252 0.930 . S
C262 C260 1.419 . S
C262 C263 1.362 . S
C263 H253 0.930 . S
C263 C256 1.409 . S
C263 C262 1.362 . S
H264 C270 0.930 . S
H265 C273 0.930 . S
H266 C274 0.930 . S
H267 C275 0.930 . S
H268 C278 0.930 . S
H269 C279 0.930 . S
C270 H264 0.930 . S
C270 C271 1.355 . S
C270 C272 1.415 . S
C271 C270 1.355 . S
C271 C273 1.419 . S
C272 C270 1.415 . S
C272 C277 1.425 . S
C272 C279 1.409 . S
C273 H265 0.930 . S
C273 C271 1.419 . S
C273 C274 1.362 . S
C274 H266 0.930 . S
C274 C273 1.362 . S
C274 C277 1.409 . S
C275 H267 0.930 . S
C275 C276 1.355 . S
C275 C277 1.415 . S
C276 C275 1.355 . S
C276 C278 1.419 . S
C277 C272 1.425 . S
C277 C274 1.409 . S
C277 C275 1.415 . S
C278 H268 0.930 . S
C278 C276 1.419 . S
C278 C279 1.362 . S
C279 H269 0.930 . S
C279 C272 1.409 . S
C279 C278 1.362 . S
H280 C286 0.930 . S
H281 C289 0.930 . S
H282 C290 0.930 . S
H283 C291 0.930 . S
H284 C294 0.930 . S
H285 C295 0.930 . S
C286 H280 0.930 . S
C286 C287 1.355 . S
C286 C288 1.415 . S
C287 C286 1.355 . S
C287 C289 1.419 1_455 S
C288 C286 1.415 . S
C288 C293 1.425 1_455 S
C288 C295 1.409 . S
C289 H281 0.930 . S
C289 C287 1.419 1_655 S
C289 C290 1.362 . S
C290 H282 0.930 . S
C290 C289 1.362 . S
C290 C293 1.409 . S
C291 H283 0.930 . S
C291 C292 1.355 . S
C291 C293 1.415 . S
C292 C291 1.355 . S
C292 C294 1.419 1_655 S
C293 C288 1.425 1_655 S
C293 C290 1.409 . S
C293 C291 1.415 . S
C294 H284 0.930 . S
C294 C292 1.419 1_455 S
C294 C295 1.362 . S
C295 H285 0.930 . S
C295 C288 1.409 . S
C295 C294 1.362 . S
H296 C302 0.930 . S
H297 C305 0.930 . S
H298 C306 0.930 . S
H299 C307 0.930 . S
H300 C310 0.930 . S
H301 C311 0.930 . S
C302 H296 0.930 . S
C302 C303 1.355 1_565 S
C302 C304 1.415 . S
C303 C302 1.355 1_545 S
C303 C305 1.419 . S
C304 C302 1.415 . S
C304 C309 1.425 1_565 S
C304 C311 1.409 . S
C305 H297 0.930 . S
C305 C303 1.419 . S
C305 C306 1.362 . S
C306 H298 0.930 . S
C306 C305 1.362 . S
C306 C309 1.409 . S
C307 H299 0.930 . S
C307 C308 1.355 1_545 S
C307 C309 1.415 . S
C308 C307 1.355 1_565 S
C308 C310 1.419 . S
C309 C304 1.425 1_545 S
C309 C306 1.409 . S
C309 C307 1.415 . S
C310 H300 0.930 . S
C310 C308 1.419 . S
C310 C311 1.362 . S
C311 H301 0.930 . S
C311 C304 1.409 . S
C311 C310 1.362 . S
H312 C318 0.930 . S
H313 C321 0.930 . S
H314 C322 0.930 . S
H315 C323 0.930 . S
H316 C326 0.930 . S
H317 C327 0.930 . S
C318 H312 0.930 . S
C318 C319 1.355 . S
C318 C320 1.415 . S
C319 C318 1.355 . S
C319 C321 1.419 . S
C320 C318 1.415 . S
C320 C325 1.425 . S
C320 C327 1.409 . S
C321 H313 0.930 . S
C321 C319 1.419 . S
C321 C322 1.362 . S
C322 H314 0.930 . S
C322 C321 1.362 . S
C322 C325 1.409 . S
C323 H315 0.930 . S
C323 C324 1.355 . S
C323 C325 1.415 . S
C324 C323 1.355 . S
C324 C326 1.419 . S
C325 C320 1.425 . S
C325 C322 1.409 . S
C325 C323 1.415 . S
C326 H316 0.930 . S
C326 C324 1.419 . S
C326 C327 1.362 . S
C327 H317 0.930 . S
C327 C320 1.409 . S
C327 C326 1.362 . S
H328 C334 0.930 . S
H329 C337 0.930 . S
H330 C338 0.930 . S
H331 C339 0.930 . S
H332 C342 0.930 . S
H333 C343 0.930 . S
C334 H328 0.930 . S
C334 C335 1.355 . S
C334 C336 1.415 1_655 S
C335 C334 1.355 . S
C335 C337 1.419 . S
C336 C334 1.415 1_455 S
C336 C341 1.425 1_455 S
C336 C343 1.409 . S
C337 H329 0.930 . S
C337 C335 1.419 . S
C337 C338 1.362 . S
C338 H330 0.930 . S
C338 C337 1.362 . S
C338 C341 1.409 . S
C339 H331 0.930 . S
C339 C340 1.355 . S
C339 C341 1.415 1_455 S
C340 C339 1.355 . S
C340 C342 1.419 . S
C341 C336 1.425 1_655 S
C341 C338 1.409 . S
C341 C339 1.415 1_655 S
C342 H332 0.930 . S
C342 C340 1.419 . S
C342 C343 1.362 . S
C343 H333 0.930 . S
C343 C336 1.409 . S
C343 C342 1.362 . S
H344 C350 0.930 . S
H345 C353 0.930 . S
H346 C354 0.930 . S
H347 C355 0.930 . S
H348 C358 0.930 . S
H349 C359 0.930 . S
C350 H344 0.930 . S
C350 C351 1.355 1_545 S
C350 C352 1.415 . S
C351 C350 1.355 1_565 S
C351 C353 1.419 . S
C352 C350 1.415 . S
C352 C357 1.425 1_545 S
C352 C359 1.409 . S
C353 H345 0.930 . S
C353 C351 1.419 . S
C353 C354 1.362 . S
C354 H346 0.930 . S
C354 C353 1.362 . S
C354 C357 1.409 . S
C355 H347 0.930 . S
C355 C356 1.355 1_565 S
C355 C357 1.415 . S
C356 C355 1.355 1_545 S
C356 C358 1.419 . S
C357 C352 1.425 1_565 S
C357 C354 1.409 . S
C357 C355 1.415 . S
C358 H348 0.930 . S
C358 C356 1.419 . S
C358 C359 1.362 . S
C359 H349 0.930 . S
C359 C352 1.409 . S
C359 C358 1.362 . S
H360 C366 0.930 . S
H361 C369 0.930 . S
H362 C370 0.930 . S
H363 C371 0.930 . S
H364 C374 0.930 . S
H365 C375 0.930 . S
C366 H360 0.930 . S
C366 C367 1.355 . S
C366 C368 1.415 . S
C367 C366 1.355 . S
C367 C369 1.419 . S
C368 C366 1.415 . S
C368 C373 1.425 . S
C368 C375 1.409 . S
C369 H361 0.930 . S
C369 C367 1.419 . S
C369 C370 1.362 . S
C370 H362 0.930 . S
C370 C369 1.362 . S
C370 C373 1.409 . S
C371 H363 0.930 . S
C371 C372 1.355 . S
C371 C373 1.415 . S
C372 C371 1.355 . S
C372 C374 1.419 . S
C373 C368 1.425 . S
C373 C370 1.409 . S
C373 C371 1.415 . S
C374 H364 0.930 . S
C374 C372 1.419 . S
C374 C375 1.362 . S
C375 H365 0.930 . S
C375 C368 1.409 . S
C375 C374 1.362 . S
H376 C382 0.930 . S
H377 C385 0.930 . S
H378 C386 0.930 . S
H379 C387 0.930 . S
H380 C390 0.930 . S
H381 C391 0.930 . S
C382 H376 0.930 . S
C382 C383 1.355 . S
C382 C384 1.415 . S
C383 C382 1.355 . S
C383 C385 1.419 . S
C384 C382 1.415 . S
C384 C389 1.425 . S
C384 C391 1.409 . S
C385 H377 0.930 . S
C385 C383 1.419 . S
C385 C386 1.362 . S
C386 H378 0.930 . S
C386 C385 1.362 . S
C386 C389 1.409 . S
C387 H379 0.930 . S
C387 C388 1.355 . S
C387 C389 1.415 . S
C388 C387 1.355 . S
C388 C390 1.419 . S
C389 C384 1.425 . S
C389 C386 1.409 . S
C389 C387 1.415 . S
C390 H380 0.930 . S
C390 C388 1.419 . S
C390 C391 1.362 . S
C391 H381 0.930 . S
C391 C384 1.409 . S
C391 C390 1.362 . S
H392 C398 0.930 . S
H393 C401 0.930 . S
H394 C402 0.930 . S
H395 C403 0.930 . S
H396 C406 0.930 . S
H397 C407 0.930 . S
C398 H392 0.930 . S
C398 C399 1.355 . S
C398 C400 1.415 . S
C399 C398 1.355 . S
C399 C401 1.419 . S
C400 C398 1.415 . S
C400 C405 1.425 . S
C400 C407 1.409 . S
C401 H393 0.930 . S
C401 C399 1.419 . S
C401 C402 1.362 . S
C402 H394 0.930 . S
C402 C401 1.362 . S
C402 C405 1.409 . S
C403 H395 0.930 . S
C403 C404 1.355 . S
C403 C405 1.415 . S
C404 C403 1.355 . S
C404 C406 1.419 . S
C405 C400 1.425 . S
C405 C402 1.409 . S
C405 C403 1.415 . S
C406 H396 0.930 . S
C406 C404 1.419 . S
C406 C407 1.362 . S
C407 H397 0.930 . S
C407 C400 1.409 . S
C407 C406 1.362 . S
H408 C414 0.930 . S
H409 C417 0.930 . S
H410 C418 0.930 . S
H411 C419 0.930 . S
H412 C422 0.930 . S
H413 C423 0.930 . S
C414 H408 0.930 . S
C414 C415 1.355 . S
C414 C416 1.415 . S
C415 C414 1.355 . S
C415 C417 1.419 . S
C416 C414 1.415 . S
C416 C421 1.425 . S
C416 C423 1.409 . S
C417 H409 0.930 . S
C417 C415 1.419 . S
C417 C418 1.362 . S
C418 H410 0.930 . S
C418 C417 1.362 . S
C418 C421 1.409 . S
C419 H411 0.930 . S
C419 C420 1.355 . S
C419 C421 1.415 . S
C420 C419 1.355 . S
C420 C422 1.419 . S
C421 C416 1.425 . S
C421 C418 1.409 . S
C421 C419 1.415 . S
C422 H412 0.930 . S
C422 C420 1.419 . S
C422 C423 1.362 . S
C423 H413 0.930 . S
C423 C416 1.409 . S
C423 C422 1.362 . S
H424 C430 0.930 . S
H425 C433 0.930 . S
H426 C434 0.930 . S
H427 C435 0.930 . S
H428 C438 0.930 . S
H429 C439 0.930 . S
C430 H424 0.930 . S
C430 C431 1.355 . S
C430 C432 1.415 . S
C431 C430 1.355 . S
C431 C433 1.419 . S
C432 C430 1.415 . S
C432 C437 1.425 . S
C432 C439 1.409 . S
C433 H425 0.930 . S
C433 C431 1.419 . S
C433 C434 1.362 . S
C434 H426 0.930 . S
C434 C433 1.362 . S
C434 C437 1.409 . S
C435 H427 0.930 . S
C435 C436 1.355 . S
C435 C437 1.415 . S
C436 C435 1.355 . S
C436 C438 1.419 . S
C437 C432 1.425 . S
C437 C434 1.409 . S
C437 C435 1.415 . S
C438 H428 0.930 . S
C438 C436 1.419 . S
C438 C439 1.362 . S
C439 H429 0.930 . S
C439 C432 1.409 . S
C439 C438 1.362 . S
H440 C446 0.930 . S
H441 C449 0.930 . S
H442 C450 0.930 . S
H443 C451 0.930 . S
H444 C454 0.930 . S
H445 C455 0.930 . S
C446 H440 0.930 . S
C446 C447 1.355 . S
C446 C448 1.415 . S
C447 C446 1.355 . S
C447 C449 1.419 . S
C448 C446 1.415 . S
C448 C453 1.425 . S
C448 C455 1.409 . S
C449 H441 0.930 . S
C449 C447 1.419 . S
C449 C450 1.362 . S
C450 H442 0.930 . S
C450 C449 1.362 . S
C450 C453 1.409 . S
C451 H443 0.930 . S
C451 C452 1.355 . S
C451 C453 1.415 . S
C452 C451 1.355 . S
C452 C454 1.419 . S
C453 C448 1.425 . S
C453 C450 1.409 . S
C453 C451 1.415 . S
C454 H444 0.930 . S
C454 C452 1.419 . S
C454 C455 1.362 . S
C455 H445 0.930 . S
C455 C448 1.409 . S
C455 C454 1.362 . S
H456 C462 0.930 . S
H457 C465 0.930 . S
H458 C466 0.930 . S
H459 C467 0.930 . S
H460 C470 0.930 . S
H461 C471 0.930 . S
C462 H456 0.930 . S
C462 C463 1.355 . S
C462 C464 1.415 . S
C463 C462 1.355 . S
C463 C465 1.419 . S
C464 C462 1.415 . S
C464 C469 1.425 . S
C464 C471 1.409 . S
C465 H457 0.930 . S
C465 C463 1.419 . S
C465 C466 1.362 . S
C466 H458 0.930 . S
C466 C465 1.362 . S
C466 C469 1.409 . S
C467 H459 0.930 . S
C467 C468 1.355 . S
C467 C469 1.415 . S
C468 C467 1.355 . S
C468 C470 1.419 . S
C469 C464 1.425 . S
C469 C466 1.409 . S
C469 C467 1.415 . S
C470 H460 0.930 . S
C470 C468 1.419 . S
C470 C471 1.362 . S
C471 H461 0.930 . S
C471 C464 1.409 . S
C471 C470 1.362 . S
H472 C478 0.930 . S
H473 C481 0.930 . S
H474 C482 0.930 . S
H475 C483 0.930 . S
H476 C486 0.930 . S
H477 C487 0.930 . S
C478 H472 0.930 . S
C478 C479 1.355 1_455 S
C478 C480 1.415 . S
C479 C478 1.355 1_655 S
C479 C481 1.419 . S
C480 C478 1.415 . S
C480 C485 1.425 1_455 S
C480 C487 1.409 . S
C481 H473 0.930 . S
C481 C479 1.419 . S
C481 C482 1.362 . S
C482 H474 0.930 . S
C482 C481 1.362 . S
C482 C485 1.409 . S
C483 H475 0.930 . S
C483 C484 1.355 1_655 S
C483 C485 1.415 . S
C484 C483 1.355 1_455 S
C484 C486 1.419 . S
C485 C480 1.425 1_655 S
C485 C482 1.409 . S
C485 C483 1.415 . S
C486 H476 0.930 . S
C486 C484 1.419 . S
C486 C487 1.362 . S
C487 H477 0.930 . S
C487 C480 1.409 . S
C487 C486 1.362 . S
H488 C494 0.930 . S
H489 C497 0.930 . S
H490 C498 0.930 1_556 S
H491 C499 0.930 . S
H492 C502 0.930 . S
H493 C503 0.930 1_554 S
C494 H488 0.930 . S
C494 C495 1.355 1_565 S
C494 C496 1.415 . S
C495 C494 1.355 1_545 S
C495 C497 1.419 . S
C496 C494 1.415 . S
C496 C501 1.425 1_564 S
C496 C503 1.409 1_554 S
C497 H489 0.930 . S
C497 C495 1.419 . S
C497 C498 1.362 . S
C498 H490 0.930 1_554 S
C498 C497 1.362 . S
C498 C501 1.409 1_554 S
C499 H491 0.930 . S
C499 C500 1.355 1_545 S
C499 C501 1.415 . S
C500 C499 1.355 1_565 S
C500 C502 1.419 . S
C501 C496 1.425 1_546 S
C501 C498 1.409 1_556 S
C501 C499 1.415 . S
C502 H492 0.930 . S
C502 C500 1.419 . S
C502 C503 1.362 . S
C503 H493 0.930 1_556 S
C503 C496 1.409 1_556 S
C503 C502 1.362 . S
H504 C510 0.930 . S
H505 C513 0.930 . S
H506 C514 0.930 . S
H507 C515 0.930 . S
H508 C518 0.930 . S
H509 C519 0.930 . S
C510 H504 0.930 . S
C510 C511 1.355 . S
C510 C512 1.415 . S
C511 C510 1.355 . S
C511 C513 1.419 . S
C512 C510 1.415 . S
C512 C517 1.425 . S
C512 C519 1.409 . S
C513 H505 0.930 . S
C513 C511 1.419 . S
C513 C514 1.362 . S
C514 H506 0.930 . S
C514 C513 1.362 . S
C514 C517 1.409 . S
C515 H507 0.930 . S
C515 C516 1.355 . S
C515 C517 1.415 . S
C516 C515 1.355 . S
C516 C518 1.419 . S
C517 C512 1.425 . S
C517 C514 1.409 . S
C517 C515 1.415 . S
C518 H508 0.930 . S
C518 C516 1.419 . S
C518 C519 1.362 . S
C519 H509 0.930 . S
C519 C512 1.409 . S
C519 C518 1.362 . S
H520 C526 0.930 . S
H521 C529 0.930 . S
H522 C530 0.930 . S
H523 C531 0.930 . S
H524 C534 0.930 . S
H525 C535 0.930 . S
C526 H520 0.930 . S
C526 C527 1.355 . S
C526 C528 1.415 1_455 S
C527 C526 1.355 . S
C527 C529 1.419 . S
C528 C526 1.415 1_655 S
C528 C533 1.425 1_655 S
C528 C535 1.409 . S
C529 H521 0.930 . S
C529 C527 1.419 . S
C529 C530 1.362 . S
C530 H522 0.930 . S
C530 C529 1.362 . S
C530 C533 1.409 . S
C531 H523 0.930 . S
C531 C532 1.355 . S
C531 C533 1.415 1_655 S
C532 C531 1.355 . S
C532 C534 1.419 . S
C533 C528 1.425 1_455 S
C533 C530 1.409 . S
C533 C531 1.415 1_455 S
C534 H524 0.930 . S
C534 C532 1.419 . S
C534 C535 1.362 . S
C535 H525 0.930 . S
C535 C528 1.409 . S
C535 C534 1.362 . S
H536 C542 0.930 . S
H537 C545 0.930 . S
H538 C546 0.930 . S
H539 C547 0.930 . S
H540 C550 0.930 . S
H541 C551 0.930 . S
C542 H536 0.930 . S
C542 C543 1.355 . S
C542 C544 1.415 . S
C543 C542 1.355 . S
C543 C545 1.419 1_565 S
C544 C542 1.415 . S
C544 C549 1.425 1_564 S
C544 C551 1.409 1_554 S
C545 H537 0.930 . S
C545 C543 1.419 1_545 S
C545 C546 1.362 . S
C546 H538 0.930 . S
C546 C545 1.362 . S
C546 C549 1.409 1_554 S
C547 H539 0.930 . S
C547 C548 1.355 . S
C547 C549 1.415 . S
C548 C547 1.355 . S
C548 C550 1.419 1_545 S
C549 C544 1.425 1_546 S
C549 C546 1.409 1_556 S
C549 C547 1.415 . S
C550 H540 0.930 . S
C550 C548 1.419 1_565 S
C550 C551 1.362 . S
C551 H541 0.930 . S
C551 C544 1.409 1_556 S
C551 C550 1.362 . S
C175 C159 1.349 . S
C180 C5 1.252 . S
C191 C19 1.349 . S
C196 C89 1.252 . S
C207 C33 1.273 . S
C212 C103 1.361 . S
C223 C47 1.249 . S
C228 C117 1.345 . S
C239 C131 1.301 . S
C244 C61 1.361 . S
C255 C75 1.338 . S
C260 C145 1.245 . S
C271 C54 1.170 . S
C276 C12 1.146 . S
C287 C68 1.160 . S
C292 C26 1.147 . S
C303 C82 1.221 . S
C308 C40 1.236 . S
C319 C96 1.152 . S
C324 C138 1.151 . S
C335 C110 1.236 . S
C340 C152 1.213 . S
C351 C124 1.216 . S
C356 C166 1.237 . S
C367 C116 0.828 . S
C372 C4 0.863 . S
C383 C18 0.829 . S
C388 C130 0.859 . S
C399 C144 0.849 . S
C404 C32 0.833 . S
C415 C158 0.836 . S
C420 C46 0.846 . S
C431 C88 0.878 . S
C436 C60 0.827 . S
C447 C74 0.832 . S
C452 C102 0.851 . S
C463 C137 1.536 . S
C468 C11 1.530 . S
C479 C25 1.520 . S
C484 C151 1.539 . S
C495 C165 1.536 . S
C500 C39 1.530 . S
C511 C53 1.477 . S
C516 C95 1.507 . S
C527 C67 1.521 . S
C532 C109 1.484 . S
C543 C123 1.476 . S
C548 C81 1.495 . S
