# Generated by pormake.
# Topology lcv-a, (4)-cn, num edge types: 1
# Building blocks:
#     Node 0, Type 0, BuildingBlock: CEKHIL_clean_sbu_0, # of connection points: 4
#     Node 1, Type 0, BuildingBlock: CEKHIL_clean_sbu_0, # of connection points: 4
#     Node 2, Type 0, BuildingBlock: CEKHIL_clean_sbu_0, # of connection points: 4
#     Node 3, Type 0, BuildingBlock: CEKHIL_clean_sbu_0, # of connection points: 4
#     Node 4, Type 0, BuildingBlock: CEKHIL_clean_sbu_0, # of connection points: 4
#     Node 5, Type 0, BuildingBlock: CEKHIL_clean_sbu_0, # of connection points: 4
#     Node 6, Type 0, BuildingBlock: CEKHIL_clean_sbu_0, # of connection points: 4
#     Node 7, Type 0, BuildingBlock: CEKHIL_clean_sbu_0, # of connection points: 4
#     Node 8, Type 0, BuildingBlock: CEKHIL_clean_sbu_0, # of connection points: 4
#     Node 9, Type 0, BuildingBlock: CEKHIL_clean_sbu_0, # of connection points: 4
#     Node 10, Type 0, BuildingBlock: CEKHIL_clean_sbu_0, # of connection points: 4
#     Node 11, Type 0, BuildingBlock: CEKHIL_clean_sbu_0, # of connection points: 4
#     Node 12, Type 0, BuildingBlock: CEKHIL_clean_sbu_0, # of connection points: 4
#     Node 13, Type 0, BuildingBlock: CEKHIL_clean_sbu_0, # of connection points: 4
#     Node 14, Type 0, BuildingBlock: CEKHIL_clean_sbu_0, # of connection points: 4
#     Node 15, Type 0, BuildingBlock: CEKHIL_clean_sbu_0, # of connection points: 4
#     Node 16, Type 0, BuildingBlock: CEKHIL_clean_sbu_0, # of connection points: 4
#     Node 17, Type 0, BuildingBlock: CEKHIL_clean_sbu_0, # of connection points: 4
#     Node 18, Type 0, BuildingBlock: CEKHIL_clean_sbu_0, # of connection points: 4
#     Node 19, Type 0, BuildingBlock: CEKHIL_clean_sbu_0, # of connection points: 4
#     Node 20, Type 0, BuildingBlock: CEKHIL_clean_sbu_0, # of connection points: 4
#     Node 21, Type 0, BuildingBlock: CEKHIL_clean_sbu_0, # of connection points: 4
#     Node 22, Type 0, BuildingBlock: CEKHIL_clean_sbu_0, # of connection points: 4
#     Node 23, Type 0, BuildingBlock: CEKHIL_clean_sbu_0, # of connection points: 4
#     Node 24, Type 0, BuildingBlock: CEKHIL_clean_sbu_0, # of connection points: 4
#     Node 25, Type 0, BuildingBlock: CEKHIL_clean_sbu_0, # of connection points: 4
#     Node 26, Type 0, BuildingBlock: CEKHIL_clean_sbu_0, # of connection points: 4
#     Node 27, Type 0, BuildingBlock: CEKHIL_clean_sbu_0, # of connection points: 4
#     Node 28, Type 0, BuildingBlock: CEKHIL_clean_sbu_0, # of connection points: 4
#     Node 29, Type 0, BuildingBlock: CEKHIL_clean_sbu_0, # of connection points: 4
#     Node 30, Type 0, BuildingBlock: CEKHIL_clean_sbu_0, # of connection points: 4
#     Node 31, Type 0, BuildingBlock: CEKHIL_clean_sbu_0, # of connection points: 4
#     Node 32, Type 0, BuildingBlock: CEKHIL_clean_sbu_0, # of connection points: 4
#     Node 33, Type 0, BuildingBlock: CEKHIL_clean_sbu_0, # of connection points: 4
#     Node 34, Type 0, BuildingBlock: CEKHIL_clean_sbu_0, # of connection points: 4
#     Node 35, Type 0, BuildingBlock: CEKHIL_clean_sbu_0, # of connection points: 4
#     Node 36, Type 0, BuildingBlock: CEKHIL_clean_sbu_0, # of connection points: 4
#     Node 37, Type 0, BuildingBlock: CEKHIL_clean_sbu_0, # of connection points: 4
#     Node 38, Type 0, BuildingBlock: CEKHIL_clean_sbu_0, # of connection points: 4
#     Node 39, Type 0, BuildingBlock: CEKHIL_clean_sbu_0, # of connection points: 4
#     Node 40, Type 0, BuildingBlock: CEKHIL_clean_sbu_0, # of connection points: 4
#     Node 41, Type 0, BuildingBlock: CEKHIL_clean_sbu_0, # of connection points: 4
#     Node 42, Type 0, BuildingBlock: CEKHIL_clean_sbu_0, # of connection points: 4
#     Node 43, Type 0, BuildingBlock: CEKHIL_clean_sbu_0, # of connection points: 4
#     Node 44, Type 0, BuildingBlock: CEKHIL_clean_sbu_0, # of connection points: 4
#     Node 45, Type 0, BuildingBlock: CEKHIL_clean_sbu_0, # of connection points: 4
#     Node 46, Type 0, BuildingBlock: CEKHIL_clean_sbu_0, # of connection points: 4
#     Node 47, Type 0, BuildingBlock: CEKHIL_clean_sbu_0, # of connection points: 4
#     Edge 48, Type (0, 0), BuildingBlock: UVAHIK_clean_linker_0, # of connection points: 2
#     Edge 49, Type (0, 0), BuildingBlock: UVAHIK_clean_linker_0, # of connection points: 2
#     Edge 50, Type (0, 0), BuildingBlock: UVAHIK_clean_linker_0, # of connection points: 2
#     Edge 51, Type (0, 0), BuildingBlock: UVAHIK_clean_linker_0, # of connection points: 2
#     Edge 52, Type (0, 0), BuildingBlock: UVAHIK_clean_linker_0, # of connection points: 2
#     Edge 53, Type (0, 0), BuildingBlock: UVAHIK_clean_linker_0, # of connection points: 2
#     Edge 54, Type (0, 0), BuildingBlock: UVAHIK_clean_linker_0, # of connection points: 2
#     Edge 55, Type (0, 0), BuildingBlock: UVAHIK_clean_linker_0, # of connection points: 2
#     Edge 56, Type (0, 0), BuildingBlock: UVAHIK_clean_linker_0, # of connection points: 2
#     Edge 57, Type (0, 0), BuildingBlock: UVAHIK_clean_linker_0, # of connection points: 2
#     Edge 58, Type (0, 0), BuildingBlock: UVAHIK_clean_linker_0, # of connection points: 2
#     Edge 59, Type (0, 0), BuildingBlock: UVAHIK_clean_linker_0, # of connection points: 2
#     Edge 60, Type (0, 0), BuildingBlock: UVAHIK_clean_linker_0, # of connection points: 2
#     Edge 61, Type (0, 0), BuildingBlock: UVAHIK_clean_linker_0, # of connection points: 2
#     Edge 62, Type (0, 0), BuildingBlock: UVAHIK_clean_linker_0, # of connection points: 2
#     Edge 63, Type (0, 0), BuildingBlock: UVAHIK_clean_linker_0, # of connection points: 2
#     Edge 64, Type (0, 0), BuildingBlock: UVAHIK_clean_linker_0, # of connection points: 2
#     Edge 65, Type (0, 0), BuildingBlock: UVAHIK_clean_linker_0, # of connection points: 2
#     Edge 66, Type (0, 0), BuildingBlock: UVAHIK_clean_linker_0, # of connection points: 2
#     Edge 67, Type (0, 0), BuildingBlock: UVAHIK_clean_linker_0, # of connection points: 2
#     Edge 68, Type (0, 0), BuildingBlock: UVAHIK_clean_linker_0, # of connection points: 2
#     Edge 69, Type (0, 0), BuildingBlock: UVAHIK_clean_linker_0, # of connection points: 2
#     Edge 70, Type (0, 0), BuildingBlock: UVAHIK_clean_linker_0, # of connection points: 2
#     Edge 71, Type (0, 0), BuildingBlock: UVAHIK_clean_linker_0, # of connection points: 2
#     Edge 72, Type (0, 0), BuildingBlock: UVAHIK_clean_linker_0, # of connection points: 2
#     Edge 73, Type (0, 0), BuildingBlock: UVAHIK_clean_linker_0, # of connection points: 2
#     Edge 74, Type (0, 0), BuildingBlock: UVAHIK_clean_linker_0, # of connection points: 2
#     Edge 75, Type (0, 0), BuildingBlock: UVAHIK_clean_linker_0, # of connection points: 2
#     Edge 76, Type (0, 0), BuildingBlock: UVAHIK_clean_linker_0, # of connection points: 2
#     Edge 77, Type (0, 0), BuildingBlock: UVAHIK_clean_linker_0, # of connection points: 2
#     Edge 78, Type (0, 0), BuildingBlock: UVAHIK_clean_linker_0, # of connection points: 2
#     Edge 79, Type (0, 0), BuildingBlock: UVAHIK_clean_linker_0, # of connection points: 2
#     Edge 80, Type (0, 0), BuildingBlock: UVAHIK_clean_linker_0, # of connection points: 2
#     Edge 81, Type (0, 0), BuildingBlock: UVAHIK_clean_linker_0, # of connection points: 2
#     Edge 82, Type (0, 0), BuildingBlock: UVAHIK_clean_linker_0, # of connection points: 2
#     Edge 83, Type (0, 0), BuildingBlock: UVAHIK_clean_linker_0, # of connection points: 2
#     Edge 84, Type (0, 0), BuildingBlock: UVAHIK_clean_linker_0, # of connection points: 2
#     Edge 85, Type (0, 0), BuildingBlock: UVAHIK_clean_linker_0, # of connection points: 2
#     Edge 86, Type (0, 0), BuildingBlock: UVAHIK_clean_linker_0, # of connection points: 2
#     Edge 87, Type (0, 0), BuildingBlock: UVAHIK_clean_linker_0, # of connection points: 2
#     Edge 88, Type (0, 0), BuildingBlock: UVAHIK_clean_linker_0, # of connection points: 2
#     Edge 89, Type (0, 0), BuildingBlock: UVAHIK_clean_linker_0, # of connection points: 2
#     Edge 90, Type (0, 0), BuildingBlock: UVAHIK_clean_linker_0, # of connection points: 2
#     Edge 91, Type (0, 0), BuildingBlock: UVAHIK_clean_linker_0, # of connection points: 2
#     Edge 92, Type (0, 0), BuildingBlock: UVAHIK_clean_linker_0, # of connection points: 2
#     Edge 93, Type (0, 0), BuildingBlock: UVAHIK_clean_linker_0, # of connection points: 2
#     Edge 94, Type (0, 0), BuildingBlock: UVAHIK_clean_linker_0, # of connection points: 2
#     Edge 95, Type (0, 0), BuildingBlock: UVAHIK_clean_linker_0, # of connection points: 2
#     Edge 96, Type (0, 0), BuildingBlock: UVAHIK_clean_linker_0, # of connection points: 2
#     Edge 97, Type (0, 0), BuildingBlock: UVAHIK_clean_linker_0, # of connection points: 2
#     Edge 98, Type (0, 0), BuildingBlock: UVAHIK_clean_linker_0, # of connection points: 2
#     Edge 99, Type (0, 0), BuildingBlock: UVAHIK_clean_linker_0, # of connection points: 2
#     Edge 100, Type (0, 0), BuildingBlock: UVAHIK_clean_linker_0, # of connection points: 2
#     Edge 101, Type (0, 0), BuildingBlock: UVAHIK_clean_linker_0, # of connection points: 2
#     Edge 102, Type (0, 0), BuildingBlock: UVAHIK_clean_linker_0, # of connection points: 2
#     Edge 103, Type (0, 0), BuildingBlock: UVAHIK_clean_linker_0, # of connection points: 2
#     Edge 104, Type (0, 0), BuildingBlock: UVAHIK_clean_linker_0, # of connection points: 2
#     Edge 105, Type (0, 0), BuildingBlock: UVAHIK_clean_linker_0, # of connection points: 2
#     Edge 106, Type (0, 0), BuildingBlock: UVAHIK_clean_linker_0, # of connection points: 2
#     Edge 107, Type (0, 0), BuildingBlock: UVAHIK_clean_linker_0, # of connection points: 2
#     Edge 108, Type (0, 0), BuildingBlock: UVAHIK_clean_linker_0, # of connection points: 2
#     Edge 109, Type (0, 0), BuildingBlock: UVAHIK_clean_linker_0, # of connection points: 2
#     Edge 110, Type (0, 0), BuildingBlock: UVAHIK_clean_linker_0, # of connection points: 2
#     Edge 111, Type (0, 0), BuildingBlock: UVAHIK_clean_linker_0, # of connection points: 2
#     Edge 112, Type (0, 0), BuildingBlock: UVAHIK_clean_linker_0, # of connection points: 2
#     Edge 113, Type (0, 0), BuildingBlock: UVAHIK_clean_linker_0, # of connection points: 2
#     Edge 114, Type (0, 0), BuildingBlock: UVAHIK_clean_linker_0, # of connection points: 2
#     Edge 115, Type (0, 0), BuildingBlock: UVAHIK_clean_linker_0, # of connection points: 2
#     Edge 116, Type (0, 0), BuildingBlock: UVAHIK_clean_linker_0, # of connection points: 2
#     Edge 117, Type (0, 0), BuildingBlock: UVAHIK_clean_linker_0, # of connection points: 2
#     Edge 118, Type (0, 0), BuildingBlock: UVAHIK_clean_linker_0, # of connection points: 2
#     Edge 119, Type (0, 0), BuildingBlock: UVAHIK_clean_linker_0, # of connection points: 2
#     Edge 120, Type (0, 0), BuildingBlock: UVAHIK_clean_linker_0, # of connection points: 2
#     Edge 121, Type (0, 0), BuildingBlock: UVAHIK_clean_linker_0, # of connection points: 2
#     Edge 122, Type (0, 0), BuildingBlock: UVAHIK_clean_linker_0, # of connection points: 2
#     Edge 123, Type (0, 0), BuildingBlock: UVAHIK_clean_linker_0, # of connection points: 2
#     Edge 124, Type (0, 0), BuildingBlock: UVAHIK_clean_linker_0, # of connection points: 2
#     Edge 125, Type (0, 0), BuildingBlock: UVAHIK_clean_linker_0, # of connection points: 2
#     Edge 126, Type (0, 0), BuildingBlock: UVAHIK_clean_linker_0, # of connection points: 2
#     Edge 127, Type (0, 0), BuildingBlock: UVAHIK_clean_linker_0, # of connection points: 2
#     Edge 128, Type (0, 0), BuildingBlock: UVAHIK_clean_linker_0, # of connection points: 2
#     Edge 129, Type (0, 0), BuildingBlock: UVAHIK_clean_linker_0, # of connection points: 2
#     Edge 130, Type (0, 0), BuildingBlock: UVAHIK_clean_linker_0, # of connection points: 2
#     Edge 131, Type (0, 0), BuildingBlock: UVAHIK_clean_linker_0, # of connection points: 2
#     Edge 132, Type (0, 0), BuildingBlock: UVAHIK_clean_linker_0, # of connection points: 2
#     Edge 133, Type (0, 0), BuildingBlock: UVAHIK_clean_linker_0, # of connection points: 2
#     Edge 134, Type (0, 0), BuildingBlock: UVAHIK_clean_linker_0, # of connection points: 2
#     Edge 135, Type (0, 0), BuildingBlock: UVAHIK_clean_linker_0, # of connection points: 2
#     Edge 136, Type (0, 0), BuildingBlock: UVAHIK_clean_linker_0, # of connection points: 2
#     Edge 137, Type (0, 0), BuildingBlock: UVAHIK_clean_linker_0, # of connection points: 2
#     Edge 138, Type (0, 0), BuildingBlock: UVAHIK_clean_linker_0, # of connection points: 2
#     Edge 139, Type (0, 0), BuildingBlock: UVAHIK_clean_linker_0, # of connection points: 2
#     Edge 140, Type (0, 0), BuildingBlock: UVAHIK_clean_linker_0, # of connection points: 2
#     Edge 141, Type (0, 0), BuildingBlock: UVAHIK_clean_linker_0, # of connection points: 2
#     Edge 142, Type (0, 0), BuildingBlock: UVAHIK_clean_linker_0, # of connection points: 2
#     Edge 143, Type (0, 0), BuildingBlock: UVAHIK_clean_linker_0, # of connection points: 2
# Relax obj value: 0.879
# Max RMSD: 0.536
# Mean RMSD: 0.407
data_MOF--net-lcv-a--node1-CEKHIL_clean_sbu_0--edge1-UVAHIK_clean_linker_0
_symmetry_space_group_name_H-M    P1
_symmetry_Int_Tables_number       1
_symmetry_cell_setting            triclinic
loop_
_symmetry_equiv_pos_as_xyz
'x, y, z'
_cell_length_a     109.40112
_cell_length_b     109.40326
_cell_length_c     109.45369
_cell_angle_alpha  90.03156
_cell_angle_beta   90.030549
_cell_angle_gamma 89.970678
loop_
_atom_site_label
_atom_site_type_symbol
_atom_site_fract_x
_atom_site_fract_y
_atom_site_fract_z
_atom_type_partial_charge
Co0 Co 0.0206 0.36324 0.23504 0.0
O1 O 0.01181 0.37527 0.24563 0.0
O2 O 0.01619 0.37855 0.22659 0.0
C3 C 0.01808 0.35547 0.25507 0.0
O4 O 0.02903 0.35551 0.2205 0.0
Co5 Co 0.01972 0.33484 0.23893 0.0
O6 O 0.03155 0.33554 0.22498 0.0
C7 C 0.99789 0.34652 0.23035 0.0
C8 C 0.01126 0.38266 0.23637 0.0
C9 C 0.03339 0.34483 0.21812 0.0
O10 O 0.00423 0.35638 0.22968 0.0
O11 O 0.00211 0.33663 0.23485 0.0
O12 O 0.01398 0.36621 0.25212 0.0
O13 O 0.02393 0.35031 0.24645 0.0
Co14 Co 0.96446 0.81925 0.47281 0.0
O15 O 0.95015 0.82046 0.48267 0.0
O16 O 0.9525 0.82953 0.46472 0.0
C17 C 0.97773 0.82192 0.48814 0.0
O18 O 0.97833 0.8202 0.46033 0.0
Co19 Co 0.98235 0.79781 0.47728 0.0
O20 O 0.99322 0.80729 0.46622 0.0
C21 C 0.95937 0.79314 0.46424 0.0
C22 C 0.9455 0.82709 0.47404 0.0
C23 C 0.98919 0.81573 0.45926 0.0
O24 O 0.95736 0.8047 0.46417 0.0
O25 O 0.96842 0.7883 0.46987 0.0
O26 O 0.97283 0.83137 0.48285 0.0
O27 O 0.97371 0.81137 0.48474 0.0
Co28 Co 0.58907 0.74559 0.75026 0.0
O29 O 0.59392 0.73107 0.75866 0.0
O30 O 0.58393 0.73142 0.74103 0.0
C31 C 0.58127 0.75511 0.76646 0.0
O32 O 0.58218 0.75898 0.73913 0.0
Co33 Co 0.60184 0.76967 0.75582 0.0
O34 O 0.58815 0.7771 0.74667 0.0
C35 C 0.61394 0.75255 0.73943 0.0
C36 C 0.58899 0.72505 0.74972 0.0
C37 C 0.58174 0.77076 0.73932 0.0
O38 O 0.60481 0.74547 0.74109 0.0
O39 O 0.61486 0.76304 0.7445 0.0
O40 O 0.57496 0.7471 0.76043 0.0
O41 O 0.59271 0.75632 0.76346 0.0
Co42 Co 0.58491 0.33346 0.96611 0.0
O43 O 0.59751 0.33738 0.97755 0.0
O44 O 0.59936 0.32372 0.96272 0.0
C45 C 0.56989 0.33187 0.97981 0.0
O46 O 0.57358 0.32679 0.95275 0.0
Co47 Co 0.56449 0.35175 0.9619 0.0
O48 O 0.5573 0.33923 0.95108 0.0
C49 C 0.58745 0.35553 0.94906 0.0
C50 C 0.60434 0.32959 0.97181 0.0
C51 C 0.56317 0.32968 0.94801 0.0
O52 O 0.59139 0.34609 0.95469 0.0
O53 O 0.57666 0.35975 0.9506 0.0
O54 O 0.57723 0.32283 0.9776 0.0
O55 O 0.57255 0.34227 0.97473 0.0
Co56 Co 0.00393 0.75552 0.35798 0.0
O57 O 0.99824 0.74291 0.34607 0.0
O58 O 0.00237 0.73896 0.36504 0.0
C59 C 0.00121 0.76415 0.33826 0.0
O60 O 0.00996 0.76362 0.37347 0.0
Co61 Co 0.99711 0.78312 0.356 0.0
O62 O 0.00893 0.78391 0.37001 0.0
C63 C 0.9779 0.76668 0.36232 0.0
C64 C 0.9988 0.73479 0.35469 0.0
C65 C 0.01233 0.77476 0.37646 0.0
O66 O 0.98627 0.75845 0.36273 0.0
O67 O 0.98004 0.77756 0.35878 0.0
O68 O -0.00102 0.75268 0.34038 0.0
O69 O 0.00523 0.76974 0.34765 0.0
Co70 Co 0.57685 0.74582 0.61656 0.0
O71 O 0.5891 0.74202 0.60463 0.0
O72 O 0.59096 0.75608 0.61911 0.0
C73 C 0.56099 0.74674 0.60367 0.0
O74 O 0.56589 0.75239 0.63033 0.0
Co75 Co 0.55695 0.7265 0.6218 0.0
O76 O 0.55064 0.73889 0.63334 0.0
C77 C 0.58105 0.72339 0.63292 0.0
C78 C 0.59575 0.75031 0.60987 0.0
C79 C 0.55608 0.74887 0.63586 0.0
O80 O 0.58415 0.7335 0.62792 0.0
O81 O 0.57052 0.71851 0.63144 0.0
O82 O 0.56838 0.75592 0.60494 0.0
O83 O 0.56419 0.7367 0.60914 0.0
Co84 Co 0.6035 0.33468 0.83168 0.0
O85 O 0.61153 0.34697 0.82199 0.0
O86 O 0.60817 0.34805 0.84197 0.0
C87 C 0.58775 0.33134 0.81925 0.0
O88 O 0.5951 0.32435 0.84494 0.0
Co89 Co 0.60155 0.30824 0.82411 0.0
O90 O 0.58829 0.30713 0.83626 0.0
C91 C 0.62123 0.3165 0.84009 0.0
C92 C 0.61255 0.35307 0.83215 0.0
C93 C 0.58852 0.31458 0.84515 0.0
O94 O 0.61959 0.3267 0.83474 0.0
O95 O 0.61483 0.30719 0.83712 0.0
O96 O 0.58787 0.34065 0.82662 0.0
O97 O 0.59779 0.32492 0.81853 0.0
Co98 Co 0.99443 0.29245 0.11663 0.0
O99 O 0.97993 0.29187 0.10684 0.0
O100 O 0.98237 0.28233 0.12457 0.0
C101 C 0.00784 0.29016 0.10125 0.0
O102 O 0.00824 0.29074 0.12911 0.0
Co103 Co 0.0131 0.31349 0.11309 0.0
O104 O 0.02366 0.3032 0.12372 0.0
C105 C 0.99003 0.31839 0.12597 0.0
C106 C 0.97522 0.28535 0.11554 0.0
C107 C 0.01926 0.29473 0.13039 0.0
O108 O 0.98761 0.30691 0.12565 0.0
O109 O -0.00056 0.32308 0.12083 0.0
O110 O 0.00261 0.28058 0.10599 0.0
O111 O 0.00394 0.30057 0.10516 0.0
Co112 Co 0.22724 0.0059 0.36211 0.0
O113 O 0.22911 0.99193 0.37332 0.0
O114 O 0.21642 0.00691 0.37643 0.0
C115 C 0.24791 0.01046 0.35924 0.0
O116 O 0.2236 0.02273 0.35581 0.0
Co117 Co 0.23473 0.00415 0.336 0.0
O118 O 0.22682 0.02084 0.33555 0.0
C119 C 0.22874 0.98147 0.35173 0.0
C120 C 0.22125 0.9971 0.38062 0.0
C121 C 0.22306 0.02692 0.34485 0.0
O122 O 0.22977 0.98753 0.3619 0.0
O123 O 0.22991 0.98663 0.34115 0.0
O124 O 0.24277 0.01228 0.36957 0.0
O125 O 0.24118 0.00418 0.35225 0.0
Co126 Co 0.3432 0.96464 0.58463 0.0
O127 O 0.35418 0.97179 0.5963 0.0
O128 O 0.34292 0.95524 0.59951 0.0
C129 C 0.33413 0.982 0.57891 0.0
O130 O 0.33046 0.95464 0.57501 0.0
Co131 Co 0.34571 0.96969 0.55743 0.0
O132 O 0.32948 0.96203 0.55595 0.0
C133 C 0.35606 0.94771 0.56855 0.0
C134 C 0.35079 0.96312 0.60366 0.0
C135 C 0.32555 0.95496 0.56429 0.0
O136 O 0.35672 0.95426 0.57817 0.0
O137 O 0.35214 0.95228 0.55854 0.0
O138 O 0.33086 0.97636 0.58882 0.0
O139 O 0.34372 0.97775 0.57328 0.0
Co140 Co 0.34724 0.09742 0.84614 0.0
O141 O 0.33576 0.10899 0.85255 0.0
O142 O 0.34843 0.09793 0.8638 0.0
C143 C 0.33392 0.08829 0.83342 0.0
O144 O 0.36002 0.08415 0.8425 0.0
Co145 Co 0.35381 0.09819 0.81855 0.0
O146 O 0.36143 0.08208 0.82208 0.0
C147 C 0.36392 0.11673 0.83527 0.0
C148 C 0.33956 0.10586 0.86331 0.0
C149 C 0.36398 0.07855 0.83289 0.0
O150 O 0.35993 0.11061 0.84448 0.0
O151 O 0.36143 0.11395 0.82418 0.0
O152 O 0.33432 0.08523 0.84487 0.0
O153 O 0.34073 0.09742 0.83035 0.0
Co154 Co 0.31649 0.11406 0.13744 0.0
O155 O 0.31614 0.10583 0.15288 0.0
O156 O 0.32857 0.12112 0.14806 0.0
C157 C 0.31535 0.09764 0.12523 0.0
O158 O 0.31975 0.12468 0.12256 0.0
Co159 Co 0.29433 0.11308 0.11988 0.0
O160 O 0.30568 0.12099 0.10807 0.0
C161 C 0.29333 0.12943 0.14115 0.0
C162 C 0.32436 0.11369 0.15633 0.0
C163 C 0.31551 0.12611 0.1117 0.0
O164 O 0.30437 0.12637 0.14372 0.0
O165 O 0.2873 0.12468 0.13231 0.0
O166 O 0.32582 0.10087 0.12988 0.0
O167 O 0.30592 0.10347 0.12929 0.0
Co168 Co 0.2475 0.11853 0.27627 0.0
O169 O 0.26163 0.12854 0.27146 0.0
O170 O 0.24851 0.12128 0.25842 0.0
C171 C 0.25925 0.10558 0.28895 0.0
O172 O 0.23362 0.10663 0.2772 0.0
Co173 Co 0.24163 0.12039 0.30486 0.0
O174 O 0.22855 0.10914 0.29731 0.0
C175 C 0.25248 0.13938 0.29058 0.0
C176 C 0.25874 0.12683 0.26006 0.0
C177 C 0.22681 0.10436 0.28661 0.0
O178 O 0.25761 0.13322 0.28186 0.0
O179 O 0.25318 0.13468 0.30127 0.0
O180 O 0.26024 0.10521 0.27735 0.0
O181 O 0.25169 0.1137 0.29212 0.0
Co182 Co 0.22616 0.96153 0.52641 0.0
O183 O 0.21718 0.97112 0.51477 0.0
O184 O 0.23131 0.95732 0.51015 0.0
C185 C 0.23088 0.97685 0.53903 0.0
O186 O 0.23761 0.9501 0.53578 0.0
Co187 Co 0.21674 0.95781 0.5525 0.0
O188 O 0.23286 0.95027 0.55573 0.0
C189 C 0.20652 0.94275 0.53288 0.0
C190 C 0.22336 0.96534 0.50644 0.0
C191 C 0.23972 0.94698 0.54694 0.0
O192 O 0.21349 0.94848 0.52548 0.0
O193 O 0.2062 0.94497 0.54436 0.0
O194 O 0.23718 0.97489 0.52919 0.0
O195 O 0.22107 0.97029 0.54048 0.0
Co196 Co 0.36197 0.98781 0.75056 0.0
O197 O 0.3546 0.97853 0.73781 0.0
O198 O 0.3716 0.98988 0.73619 0.0
C199 C 0.34356 -0.00029 0.75503 0.0
O200 O 0.37162 0.99855 0.76215 0.0
Co201 Co 0.34779 0.99023 0.77963 0.0
O202 O 0.36165 0.00259 0.77997 0.0
C203 C 0.3544 0.97091 0.77093 0.0
C204 C 0.36363 0.98256 0.73111 0.0
C205 C 0.37067 0.00402 0.77257 0.0
O206 O 0.35244 0.98036 0.76417 0.0
O207 O 0.34989 0.97189 0.78151 0.0
O208 O 0.35085 0.00198 0.74638 0.0
O209 O 0.34699 0.99033 0.76103 0.0
Co210 Co 0.28714 0.12109 0.99171 0.0
O211 O 0.2845 0.11166 0.97725 0.0
O212 O 0.27644 0.12994 0.9808 0.0
C213 C 0.28519 0.10578 0.00517 0.0
O214 O 0.28754 0.13321 0.00589 0.0
Co215 Co 0.30992 0.11574 0.00762 0.0
O216 O 0.30131 0.12644 0.01957 0.0
C217 C 0.31309 0.12848 0.98432 0.0
C218 C 0.27819 0.12088 0.97327 0.0
C219 C 0.29267 0.13366 0.01648 0.0
O220 O 0.30141 0.12938 0.98361 0.0
O221 O 0.31848 0.12245 0.99278 0.0
O222 O 0.27546 0.11119 0.00093 0.0
O223 O 0.29538 0.10887 0.00015 0.0
Co224 Co 0.36273 0.22708 0.00699 0.0
O225 O 0.37323 0.23047 0.99277 0.0
O226 O 0.37873 0.21887 0.00793 0.0
C227 C 0.35654 0.24721 0.01097 0.0
O228 O 0.35711 0.22271 0.0239 0.0
Co229 Co 0.33536 0.23088 0.00523 0.0
O230 O 0.33653 0.22328 0.02202 0.0
C231 C 0.35179 0.22703 0.98254 0.0
C232 C 0.38185 0.22408 0.99792 0.0
C233 C 0.34628 0.22081 0.02809 0.0
O234 O 0.36184 0.22922 0.98853 0.0
O235 O 0.34116 0.22694 0.98774 0.0
O236 O 0.36756 0.24388 0.01294 0.0
O237 O 0.35071 0.23908 0.00523 0.0
Co238 Co 0.84211 0.34117 0.08951 0.0
O239 O 0.84885 0.33043 0.10157 0.0
O240 O 0.85942 0.34444 0.09153 0.0
C241 C 0.832 0.32635 0.0794 0.0
O242 O 0.83817 0.35359 0.07605 0.0
Co243 Co 0.81406 0.34432 0.08761 0.0
O244 O 0.81799 0.35298 0.0722 0.0
C245 C 0.82773 0.35792 0.10656 0.0
C246 C 0.85932 0.33547 0.09937 0.0
C247 C 0.82872 0.35684 0.06978 0.0
O248 O 0.83786 0.35361 0.10242 0.0
O249 O 0.81725 0.35471 0.10241 0.0
O250 O 0.84348 0.32838 0.07722 0.0
O251 O 0.82726 0.33262 0.08822 0.0
Co252 Co 0.97201 0.58749 0.33016 0.0
O253 O 0.98241 0.59981 0.33695 0.0
O254 O 0.96633 0.60348 0.32518 0.0
C255 C 0.987 0.57537 0.32345 0.0
O256 O 0.9592 0.57698 0.32134 0.0
Co257 Co 0.97148 0.56197 0.3414 0.0
O258 O 0.96218 0.55738 0.32662 0.0
C259 C 0.95666 0.58122 0.3526 0.0
C260 C 0.97537 0.60773 0.33165 0.0
C261 C 0.95683 0.56548 0.32022 0.0
O262 O 0.96123 0.58856 0.34476 0.0
O263 O 0.95944 0.56986 0.35301 0.0
O264 O 0.98336 0.5847 0.31712 0.0
O265 O 0.98239 0.57419 0.33434 0.0
Co266 Co 0.74492 0.75362 0.58934 0.0
O267 O 0.73079 0.76283 0.59391 0.0
O268 O 0.73041 0.74584 0.58288 0.0
C269 C 0.75608 0.76943 0.58307 0.0
O270 O 0.75784 0.74192 0.58251 0.0
Co271 Co 0.76841 0.7568 0.60399 0.0
O272 O 0.77577 0.7456 0.59192 0.0
C273 C 0.74977 0.74039 0.61357 0.0
C274 C 0.72441 0.75469 0.58812 0.0
C275 C 0.76936 0.73995 0.58404 0.0
O276 O 0.74323 0.74345 0.60438 0.0
O277 O 0.76046 0.74474 0.61544 0.0
O278 O 0.748 0.76443 0.576 0.0
O279 O 0.75632 0.7658 0.59438 0.0
Co280 Co 0.1188 0.9907 0.28938 0.0
O281 O 0.10951 0.9761 0.28725 0.0
O282 O 0.12743 0.97976 0.27848 0.0
C283 C 0.1032 0.00387 0.28776 0.0
O284 O 0.13067 0.00512 0.28923 0.0
Co285 Co 0.114 0.00686 0.3121 0.0
O286 O 0.1234 0.01912 0.30245 0.0
C287 C 0.12751 0.98392 0.31508 0.0
C288 C 0.11849 0.97218 0.28058 0.0
C289 C 0.1306 0.01597 0.29384 0.0
O290 O 0.12775 0.98294 0.3034 0.0
O291 O 0.12165 0.99242 0.32061 0.0
O292 O 0.10834 -0.00044 0.27793 0.0
O293 O 0.10675 -0.00094 0.29792 0.0
Co294 Co 0.26337 0.8306 0.49203 0.0
O295 O 0.25367 0.81694 0.48693 0.0
O296 O 0.2511 0.82707 0.50428 0.0
C297 C 0.28154 0.8223 0.48772 0.0
O298 O 0.27206 0.84501 0.50036 0.0
Co299 Co 0.27795 0.84459 0.47232 0.0
O300 O 0.28435 0.85387 0.48642 0.0
C301 C 0.25197 0.85026 0.47557 0.0
C302 C 0.24765 0.81826 0.49705 0.0
C303 C 0.28008 0.85308 0.49721 0.0
O304 O 0.25164 0.84215 0.484 0.0
O305 O 0.2616 0.85259 0.46936 0.0
O306 O 0.27592 0.81974 0.49782 0.0
O307 O 0.27543 0.82867 0.4798 0.0
Co308 Co 0.96032 0.52426 0.23249 0.0
O309 O 0.97205 0.51195 0.22846 0.0
O310 O 0.95803 0.5102 0.24297 0.0
C311 C 0.97352 0.53982 0.23283 0.0
O312 O 0.94699 0.5352 0.23964 0.0
Co313 Co 0.95394 0.5439 0.21425 0.0
O314 O 0.94358 0.55112 0.22717 0.0
C315 C 0.94306 0.51997 0.21083 0.0
C316 C 0.96701 0.50532 0.23688 0.0
C317 C 0.94163 0.54534 0.23704 0.0
O318 O 0.94865 0.51681 0.22058 0.0
O319 O 0.94393 0.53066 0.20623 0.0
O320 O 0.97197 0.53279 0.24223 0.0
O321 O 0.96795 0.53667 0.22282 0.0
Co322 Co 0.62112 0.57742 0.7444 0.0
O323 O 0.60951 0.58937 0.739 0.0
O324 O 0.62491 0.59304 0.75167 0.0
C325 C 0.60752 0.56299 0.74905 0.0
O326 O 0.63474 0.56718 0.75229 0.0
Co327 Co 0.62468 0.55395 0.72961 0.0
O328 O 0.63403 0.54838 0.74403 0.0
C329 C 0.63632 0.5763 0.72092 0.0
C330 C 0.61548 0.59714 0.74567 0.0
C331 C 0.6381 0.55588 0.75194 0.0
O332 O 0.63186 0.5816 0.73032 0.0
O333 O 0.63454 0.56499 0.71853 0.0
O334 O 0.60994 0.57181 0.75658 0.0
O335 O 0.61244 0.56371 0.73825 0.0
Co336 Co 0.48076 0.81657 0.75644 0.0
O337 O 0.47254 0.82586 0.76879 0.0
O338 O 0.48849 0.83242 0.75818 0.0
C339 C 0.48243 0.7994 0.76733 0.0
O340 O 0.49169 0.80913 0.7431 0.0
Co341 Co 0.46747 0.7948 0.7449 0.0
O342 O 0.48383 0.7907 0.73847 0.0
C343 C 0.46225 0.81935 0.73563 0.0
C344 C 0.48039 0.83445 0.76666 0.0
C345 C 0.49226 0.79866 0.73767 0.0
O346 O 0.46962 0.82345 0.74374 0.0
O347 O 0.45981 0.80797 0.73445 0.0
O348 O 0.49015 0.80826 0.76864 0.0
O349 O 0.47298 0.80155 0.76045 0.0
Co350 Co 0.5284 0.23308 0.96382 0.0
O351 O 0.51579 0.2259 0.97366 0.0
O352 O 0.51261 0.23778 0.95756 0.0
C353 C 0.53977 0.23981 0.97934 0.0
O354 O 0.53887 0.24255 0.95159 0.0
Co355 Co 0.55431 0.22317 0.9635 0.0
O356 O 0.55867 0.23829 0.95456 0.0
C357 C 0.5358 0.21063 0.94892 0.0
C358 C 0.50809 0.23123 0.96639 0.0
C359 C 0.55027 0.24444 0.94939 0.0
O360 O 0.52815 0.21852 0.95289 0.0
O361 O 0.54708 0.21063 0.95198 0.0
O362 O 0.53044 0.24599 0.97543 0.0
O363 O 0.54152 0.22907 0.97455 0.0
Co364 Co 0.10843 0.27968 0.25829 0.0
O365 O 0.11928 0.27406 0.27078 0.0
O366 O 0.11055 0.26214 0.25694 0.0
C367 C 0.09697 0.29115 0.27093 0.0
O368 O 0.09635 0.28244 0.24426 0.0
Co369 Co 0.10768 0.30722 0.25226 0.0
O370 O 0.09323 0.30265 0.24227 0.0
C371 C 0.12778 0.29215 0.24259 0.0
C372 C 0.11746 0.26314 0.26659 0.0
C373 C 0.0908 0.29162 0.23936 0.0
O374 O 0.12255 0.28258 0.24693 0.0
O375 O 0.12385 0.30301 0.24454 0.0
O376 O 0.09492 0.27953 0.26976 0.0
O377 O 0.10647 0.2953 0.26525 0.0
Co378 Co 0.10853 0.8025 0.4972 0.0
O379 O 0.12263 0.80244 0.50752 0.0
O380 O 0.11931 0.78928 0.49247 0.0
C381 C 0.0946 0.80498 0.51202 0.0
O382 O 0.0947 0.79971 0.48493 0.0
Co383 Co 0.0927 0.82597 0.49556 0.0
O384 O 0.081 0.8149 0.48718 0.0
C385 C 0.11544 0.82448 0.48128 0.0
C386 C 0.12643 0.79317 0.50118 0.0
C387 C 0.08428 0.80471 0.48256 0.0
O388 O 0.11702 0.81353 0.48521 0.0
O389 O 0.10665 0.83134 0.48486 0.0
O390 O 0.09895 0.79418 0.50965 0.0
O391 O 0.09983 0.81395 0.50642 0.0
Co392 Co 0.48827 0.25635 0.83106 0.0
O393 O 0.47919 0.24628 0.81994 0.0
O394 O 0.49786 0.24218 0.82667 0.0
C395 C 0.48474 0.27418 0.82145 0.0
O396 O 0.50059 0.26492 0.8424 0.0
Co397 Co 0.47427 0.27543 0.84663 0.0
O398 O 0.49088 0.2807 0.85142 0.0
C399 C 0.47518 0.24987 0.85492 0.0
C400 C 0.48867 0.23915 0.81975 0.0
C401 C 0.5005 0.27451 0.84927 0.0
O402 O 0.48145 0.24725 0.84539 0.0
O403 O 0.47095 0.26058 0.85704 0.0
O404 O 0.49313 0.2667 0.81769 0.0
O405 O 0.47774 0.27005 0.83008 0.0
Co406 Co 0.13701 0.31455 0.1072 0.0
O407 O 0.15275 0.31454 0.09957 0.0
O408 O 0.1463 0.32837 0.11293 0.0
C409 C 0.12579 0.31002 0.09064 0.0
O410 O 0.12139 0.31769 0.11681 0.0
Co411 Co 0.12174 0.29077 0.1086 0.0
O412 O 0.10851 0.30187 0.11436 0.0
C413 C 0.14264 0.29384 0.12517 0.0
C414 C 0.15523 0.32391 0.10644 0.0
C415 C 0.11089 0.31259 0.11829 0.0
O416 O 0.14388 0.30479 0.12115 0.0
O417 O 0.13478 0.28633 0.12082 0.0
O418 O 0.12922 0.32126 0.09258 0.0
O419 O 0.13038 0.30195 0.0979 0.0
Co420 Co 0.09188 0.84246 0.34358 0.0
O421 O 0.10385 0.84931 0.33281 0.0
O422 O 0.09287 0.85999 0.34602 0.0
C423 C 0.08256 0.83113 0.32917 0.0
O424 O 0.07836 0.83832 0.35584 0.0
Co425 Co 0.09185 0.81457 0.34815 0.0
O426 O 0.07581 0.81792 0.35597 0.0
C427 C 0.10966 0.83006 0.36116 0.0
C428 C 0.10094 0.85989 0.33728 0.0
C429 C 0.07256 0.82863 0.35923 0.0
O430 O 0.10464 0.83961 0.3565 0.0
O431 O 0.10654 0.81915 0.35826 0.0
O432 O 0.07988 0.8426 0.33053 0.0
O433 O 0.09155 0.82715 0.33574 0.0
Co434 Co 0.49114 0.85159 0.64139 0.0
O435 O 0.47628 0.85834 0.6354 0.0
O436 O 0.4781 0.8452 0.65103 0.0
C437 C 0.49741 0.84301 0.62174 0.0
O438 O 0.50543 0.84289 0.64956 0.0
Co439 Co 0.51939 0.85842 0.62711 0.0
O440 O 0.52335 0.84509 0.63918 0.0
C441 C 0.50611 0.87271 0.63771 0.0
C442 C 0.47111 0.85187 0.64399 0.0
C443 C 0.51691 0.8406 0.64789 0.0
O444 O 0.50187 0.8631 0.63251 0.0
O445 O 0.51705 0.87509 0.63495 0.0
O446 O 0.48956 0.83843 0.62882 0.0
O447 O 0.50152 0.85313 0.626 0.0
Co448 Co 0.7615 0.4798 0.81289 0.0
O449 O 0.77509 0.47194 0.82062 0.0
O450 O 0.76343 0.48603 0.82935 0.0
C451 C 0.77108 0.48416 0.79544 0.0
O452 O 0.74677 0.49006 0.8073 0.0
Co453 Co 0.75017 0.46725 0.79045 0.0
O454 O 0.73987 0.48205 0.78961 0.0
C455 C 0.74306 0.45877 0.81477 0.0
C456 C 0.77271 0.47859 0.83012 0.0
C457 C 0.73946 0.49007 0.79803 0.0
O458 O 0.75031 0.46681 0.81921 0.0
O459 O 0.74168 0.4571 0.80328 0.0
O460 O 0.77225 0.49111 0.80496 0.0
O461 O 0.76531 0.47391 0.79702 0.0
Co462 Co 0.80128 0.49437 0.10319 0.0
O463 O 0.80229 0.50382 0.11785 0.0
O464 O 0.78819 0.48974 0.1141 0.0
C465 C 0.80433 0.5101 0.09036 0.0
O466 O 0.79717 0.48308 0.08892 0.0
Co467 Co 0.82349 0.49234 0.08571 0.0
O468 O 0.81143 0.48501 0.07428 0.0
C469 C 0.8228 0.4773 0.10814 0.0
C470 C 0.79279 0.49779 0.12156 0.0
C471 C 0.80126 0.48082 0.07812 0.0
O472 O 0.81204 0.48137 0.11056 0.0
O473 O 0.82918 0.48108 0.09908 0.0
O474 O 0.79346 0.50798 0.09467 0.0
O475 O 0.81299 0.50337 0.09469 0.0
Co476 Co 0.83172 0.59932 0.33537 0.0
O477 O 0.82327 0.60532 0.34946 0.0
O478 O 0.83987 0.59369 0.34998 0.0
C479 C 0.81517 0.59293 0.32536 0.0
O480 O 0.8428 0.59117 0.32263 0.0
Co481 Co 0.82823 0.61188 0.3107 0.0
O482 O 0.83688 0.59751 0.30404 0.0
C483 C 0.84613 0.62198 0.3278 0.0
C484 C 0.8315 0.59973 0.3559 0.0
C485 C 0.84338 0.5907 0.31086 0.0
O486 O 0.84245 0.61401 0.3355 0.0
O487 O 0.84174 0.62283 0.317 0.0
O488 O 0.82022 0.58626 0.33375 0.0
O489 O 0.81941 0.60395 0.32402 0.0
Co490 Co 0.75064 0.61773 0.57411 0.0
O491 O 0.74697 0.60595 0.5865 0.0
O492 O 0.75826 0.62254 0.58931 0.0
C493 C 0.75575 0.60432 0.55963 0.0
O494 O 0.75663 0.63181 0.56331 0.0
Co495 Co 0.73428 0.61922 0.55161 0.0
O496 O 0.74591 0.6317 0.54577 0.0
C497 C 0.72608 0.63129 0.5739 0.0
C498 C 0.75326 0.61276 0.59388 0.0
C499 C 0.75425 0.63608 0.55259 0.0
O500 O 0.73588 0.62735 0.57892 0.0
O501 O 0.72332 0.629 0.56278 0.0
O502 O 0.76353 0.60767 0.56791 0.0
O503 O 0.74454 0.60802 0.56101 0.0
Co504 Co 0.74849 0.59294 0.74388 0.0
O505 O 0.75761 0.59792 0.72988 0.0
O506 O 0.74024 0.58751 0.72917 0.0
C507 C 0.76431 0.58562 0.75436 0.0
O508 O 0.7368 0.58592 0.75672 0.0
Co509 Co 0.75241 0.60626 0.76792 0.0
O510 O 0.7436 0.59219 0.77503 0.0
C511 C 0.73679 0.61773 0.7498 0.0
C512 C 0.74915 0.59283 0.72333 0.0
C513 C 0.73665 0.58553 0.7685 0.0
O514 O 0.73899 0.60844 0.74308 0.0
O515 O 0.74125 0.619 0.76051 0.0
O516 O 0.75886 0.57909 0.74611 0.0
O517 O 0.76102 0.59702 0.75523 0.0
Co518 Co 0.8164 0.47236 0.96524 0.0
O519 O 0.81526 0.48172 0.95059 0.0
O520 O 0.8268 0.46519 0.95278 0.0
C521 C 0.81802 0.48866 0.97764 0.0
O522 O 0.81997 0.46067 0.97943 0.0
Co523 Co 0.79616 0.47515 0.98493 0.0
O524 O 0.80801 0.46608 0.99526 0.0
C525 C 0.79127 0.46051 0.96282 0.0
C526 C 0.82279 0.47395 0.94577 0.0
C527 C 0.81671 0.45978 0.99073 0.0
O528 O 0.80249 0.46175 0.95959 0.0
O529 O 0.78671 0.46578 0.97224 0.0
O530 O 0.82768 0.48436 0.97219 0.0
O531 O 0.80781 0.48358 0.97469 0.0
Co532 Co 0.83037 0.49396 0.26182 0.0
O533 O 0.81795 0.48683 0.25172 0.0
O534 O 0.83058 0.50156 0.24591 0.0
C535 C 0.81841 0.49679 0.27807 0.0
O536 O 0.84406 0.5039 0.2699 0.0
Co537 Co 0.83937 0.48086 0.28473 0.0
O538 O 0.84681 0.49679 0.28892 0.0
C539 C 0.84958 0.4737 0.26101 0.0
C540 C 0.82146 0.49439 0.2433 0.0
C541 C 0.84885 0.50468 0.28064 0.0
O542 O 0.84244 0.48152 0.25603 0.0
O543 O 0.84988 0.47179 0.27254 0.0
O544 O 0.81853 0.50454 0.26914 0.0
O545 O 0.82465 0.48679 0.2766 0.0
Co546 Co 0.84822 0.63173 0.50273 0.0
O547 O 0.85208 0.62064 0.48972 0.0
O548 O 0.83833 0.6355 0.48862 0.0
C549 C 0.84665 0.61746 0.51719 0.0
O550 O 0.8413 0.64466 0.51428 0.0
Co551 Co 0.86544 0.63591 0.52383 0.0
O552 O 0.85133 0.64368 0.53208 0.0
C553 C 0.87031 0.64872 0.50101 0.0
C554 C 0.84396 0.62645 0.48333 0.0
C555 C 0.84253 0.64763 0.5256 0.0
O556 O 0.86094 0.64327 0.49665 0.0
O557 O 0.87398 0.64722 0.51199 0.0
O558 O 0.83761 0.61997 0.50997 0.0
O559 O 0.85701 0.62284 0.51494 0.0
Co560 Co 0.81432 0.76147 0.47968 0.0
O561 O 0.82289 0.77412 0.47124 0.0
O562 O 0.83077 0.76296 0.48618 0.0
C563 C 0.79736 0.7723 0.4831 0.0
O564 O 0.80763 0.74771 0.49062 0.0
Co565 Co 0.79164 0.7506 0.4674 0.0
O566 O 0.78868 0.74361 0.48376 0.0
C567 C 0.81567 0.74176 0.4598 0.0
C568 C 0.83211 0.77174 0.47824 0.0
C569 C 0.79713 0.74239 0.49167 0.0
O570 O 0.82031 0.74924 0.4675 0.0
O571 O 0.80415 0.74079 0.45802 0.0
O572 O 0.80679 0.77328 0.49018 0.0
O573 O 0.79878 0.76584 0.47323 0.0
Co574 Co 0.33223 0.83351 0.59972 0.0
O575 O 0.3444 0.82623 0.6101 0.0
O576 O 0.34285 0.84603 0.60598 0.0
C577 C 0.33337 0.82031 0.58431 0.0
O578 O 0.32137 0.84462 0.58907 0.0
Co579 Co 0.30799 0.82118 0.59481 0.0
O580 O 0.30596 0.83337 0.58168 0.0
C581 C 0.31052 0.83987 0.61334 0.0
C582 C 0.34854 0.83726 0.61163 0.0
C583 C 0.312 0.84329 0.58202 0.0
O584 O 0.32114 0.83519 0.61409 0.0
O585 O 0.30264 0.83477 0.6064 0.0
O586 O 0.34133 0.82909 0.58541 0.0
O587 O 0.3258 0.81878 0.59338 0.0
Co588 Co 0.48757 0.10497 0.80055 0.0
O589 O 0.49809 0.11858 0.79745 0.0
O590 O 0.48178 0.11379 0.7864 0.0
C591 C 0.50258 0.09142 0.80397 0.0
O592 O 0.47475 0.09138 0.80075 0.0
Co593 Co 0.48737 0.09236 0.82588 0.0
O594 O 0.47681 0.08001 0.81772 0.0
C595 C 0.47524 0.11619 0.82288 0.0
C596 C 0.49084 0.12122 0.78844 0.0
C597 C 0.47183 0.0821 0.80739 0.0
O598 O 0.47707 0.11552 0.8113 0.0
O599 O 0.47937 0.10828 0.83045 0.0
O600 O 0.49921 0.09388 0.79283 0.0
O601 O 0.49749 0.09786 0.81243 0.0
Co602 Co 0.27562 0.25204 0.11786 0.0
O603 O 0.27002 0.26411 0.12902 0.0
O604 O 0.25808 0.25172 0.11796 0.0
C605 C 0.28662 0.26709 0.10525 0.0
O606 O 0.27923 0.23899 0.10506 0.0
Co607 Co 0.30752 0.25153 0.11071 0.0
O608 O 0.29891 0.24082 0.09826 0.0
C609 C 0.29934 0.24669 0.13059 0.0
C610 C 0.25907 0.26088 0.12561 0.0
C611 C 0.28813 0.2361 0.09782 0.0
O612 O 0.29303 0.2528 0.12274 0.0
O613 O 0.31062 0.24632 0.12815 0.0
O614 O 0.27534 0.26491 0.10464 0.0
O615 O 0.29157 0.26052 0.11346 0.0
Co616 Co 0.6341 0.49998 0.84728 0.0
O617 O 0.62613 0.48489 0.85128 0.0
O618 O 0.63991 0.48731 0.83658 0.0
C619 C 0.61755 0.51181 0.84728 0.0
O620 O 0.64403 0.51404 0.84014 0.0
Co621 Co 0.63547 0.52077 0.86607 0.0
O622 O 0.64429 0.52993 0.85318 0.0
C623 C 0.65124 0.4996 0.86937 0.0
C624 C 0.63269 0.48008 0.84262 0.0
C625 C 0.64718 0.52499 0.84305 0.0
O626 O 0.6474 0.49582 0.85901 0.0
O627 O 0.64736 0.50937 0.87448 0.0
O628 O 0.62029 0.50511 0.83788 0.0
O629 O 0.62413 0.51023 0.85706 0.0
Co630 Co 0.75092 0.3527 0.00374 0.0
O631 O 0.73921 0.34042 0.99695 0.0
O632 O 0.73456 0.35944 0.0 0.0
C633 C 0.76012 0.33313 0.00247 0.0
O634 O 0.75811 0.36852 0.01022 0.0
Co635 Co 0.77951 0.3506 0.00109 0.0
O636 O 0.77844 0.36536 0.01185 0.0
C637 C 0.76562 0.35619 0.97952 0.0
C638 C 0.73094 0.34891 0.99638 0.0
C639 C 0.76888 0.37184 0.0137 0.0
O640 O 0.75616 0.35698 0.98645 0.0
O641 O 0.776 0.35257 0.9834 0.0
O642 O 0.7489 0.33483 -0.00102 0.0
O643 O 0.76492 0.34267 0.00703 0.0
Co644 Co 0.47335 0.96637 0.81909 0.0
O645 O 0.48336 0.9521 0.81886 0.0
O646 O 0.4661 0.95383 0.82934 0.0
C647 C 0.48895 0.9795 0.82111 0.0
O648 O 0.46095 0.98024 0.82158 0.0
Co649 Co 0.47625 0.98512 0.79806 0.0
O650 O 0.46609 0.99558 0.80888 0.0
C651 C 0.46321 0.96215 0.79342 0.0
C652 C 0.47529 0.94707 0.8259 0.0
C653 C 0.4597 0.9913 0.81764 0.0
O654 O 0.46378 0.95982 0.8049 0.0
O655 O 0.46831 0.97149 0.78856 0.0
O656 O 0.48444 0.97415 0.83072 0.0
O657 O 0.48456 0.97598 0.81075 0.0
Co658 Co 0.11465 0.13567 0.31777 0.0
O659 O 0.10635 0.15107 0.31813 0.0
O660 O 0.12216 0.14604 0.32984 0.0
C661 C 0.09814 0.12358 0.31693 0.0
O662 O 0.12544 0.12074 0.32015 0.0
Co663 Co 0.1127 0.11876 0.29515 0.0
O664 O 0.12159 0.10678 0.30558 0.0
C665 C 0.12918 0.13993 0.29422 0.0
C666 C 0.11448 0.15435 0.32615 0.0
C667 C 0.12702 0.11013 0.31534 0.0
O668 O 0.12651 0.14221 0.30541 0.0
O669 O 0.12405 0.13138 0.28808 0.0
O670 O 0.10182 0.12788 0.3274 0.0
O671 O 0.10365 0.12784 0.30741 0.0
C672 C 0.02303 0.35922 0.27687 0.0
C673 C 0.01914 0.35113 0.2677 0.0
C674 C 0.02903 0.35468 0.2872 0.0
C675 C 0.04175 0.32603 0.30074 0.0
H676 H 0.07198 0.33895 0.28766 0.0
C677 C 0.07704 0.29493 0.28109 0.0
C678 C 0.08888 0.29895 0.27833 0.0
C679 C 0.06899 0.30247 0.28745 0.0
C680 C 0.06384 0.33529 0.29189 0.0
H681 H 0.01635 0.33217 0.26294 0.0
H682 H 0.02643 0.32421 0.28101 0.0
H683 H 0.05384 0.35128 0.28711 0.0
H684 H 0.10201 0.31352 0.2809 0.0
H685 H 0.0881 0.3266 0.29247 0.0
H686 H 0.0517 0.30976 0.30495 0.0
C687 C 0.02511 0.334 0.28032 0.0
C688 C 0.05332 0.34247 0.29161 0.0
C689 C 0.0194 0.33854 0.26988 0.0
C690 C 0.09281 0.31034 0.2827 0.0
C691 C 0.08483 0.31781 0.28934 0.0
C692 C 0.05236 0.31893 0.30131 0.0
C693 C 0.03099 0.34204 0.28846 0.0
C694 C 0.04197 0.33745 0.2949 0.0
C695 C 0.07265 0.31415 0.29144 0.0
C696 C 0.06323 0.32304 0.29574 0.0
H697 H 0.02288 0.369 0.27534 0.0
H698 H 0.03341 0.36105 0.29339 0.0
H699 H 0.03314 0.32204 0.30357 0.0
H700 H 0.07379 0.28615 0.27787 0.0
H701 H 0.05968 0.29932 0.28856 0.0
C702 C 0.0737 0.79754 0.51656 0.0
C703 C 0.08265 0.80657 0.5179 0.0
C704 C 0.06158 0.80005 0.51955 0.0
C705 C 0.04152 0.82719 0.52163 0.0
H706 H 0.01738 0.80138 0.52262 0.0
C707 C 0.99748 0.83096 0.49461 0.0
C708 C 0.98778 0.82299 0.4969 0.0
C709 C 0.00791 0.83061 0.50196 0.0
C710 C 0.02383 0.80887 0.52264 0.0
H711 H 0.08641 0.82479 0.52462 0.0
H712 H 0.06538 0.82894 0.53072 0.0
H713 H 0.03808 0.79706 0.52874 0.0
H714 H 0.98063 0.80921 0.50912 0.0
H715 H 0.99837 0.80921 0.52257 0.0
H716 H 0.02715 0.83915 0.51612 0.0
C717 C 0.06749 0.82013 0.52675 0.0
C718 C 0.03587 0.80629 0.52594 0.0
C719 C 0.07957 0.81774 0.52338 0.0
C720 C 0.98817 0.81531 0.50713 0.0
C721 C 0.99839 0.81526 0.51476 0.0
C722 C 0.02939 0.82989 0.51877 0.0
C723 C 0.0582 0.81158 0.52425 0.0
C724 C 0.04505 0.81518 0.52461 0.0
C725 C 0.00865 0.82252 0.51198 0.0
C726 C 0.02055 0.82057 0.51837 0.0
H727 H 0.07585 0.78887 0.51227 0.0
H728 H 0.05481 0.79321 0.51727 0.0
H729 H 0.04819 0.83441 0.52057 0.0
H730 H 0.99735 0.8369 0.48669 0.0
H731 H 0.0156 0.8362 0.49926 0.0
C732 C 0.57119 0.75344 0.7863 0.0
C733 C 0.57549 0.76106 0.77693 0.0
C734 C 0.56048 0.75638 0.79257 0.0
C735 C 0.53305 0.75801 0.78911 0.0
H736 H 0.51908 0.78972 0.79633 0.0
C737 C 0.49082 0.77858 0.76765 0.0
C738 C 0.4848 0.78799 0.77391 0.0
C739 C 0.49979 0.77168 0.7736 0.0
C740 C 0.52278 0.78069 0.79466 0.0
H741 H 0.57305 0.77841 0.76783 0.0
H742 H 0.55452 0.78378 0.77896 0.0
H743 H 0.54112 0.78681 0.7979 0.0
H744 H 0.48179 0.79622 0.79162 0.0
H745 H 0.49727 0.78407 0.80207 0.0
H746 H 0.51483 0.75222 0.78477 0.0
C747 C 0.55934 0.77551 0.78151 0.0
C748 C 0.53542 0.77907 0.79549 0.0
C749 C 0.57004 0.77251 0.77518 0.0
C750 C 0.48628 0.78894 0.78662 0.0
C751 C 0.49527 0.78211 0.79257 0.0
C752 C 0.52042 0.75968 0.78811 0.0
C753 C 0.55398 0.76702 0.78955 0.0
C754 C 0.54072 0.76788 0.79221 0.0
C755 C 0.50279 0.77418 0.78586 0.0
C756 C 0.51523 0.77119 0.79035 0.0
H757 H 0.57519 0.74447 0.78766 0.0
H758 H 0.55662 0.74975 0.79881 0.0
H759 H 0.53688 0.74929 0.78639 0.0
H760 H 0.48994 0.77774 0.75783 0.0
H761 H 0.50541 0.7656 0.76817 0.0
C762 C 0.54001 0.24547 0.00103 0.0
C763 C 0.54642 0.2444 0.98998 0.0
C764 C 0.54301 0.25467 0.00936 0.0
C765 C 0.54121 0.2819 0.01287 0.0
H766 H 0.57197 0.29932 0.01359 0.0
C767 C 0.55053 0.32397 0.98751 0.0
C768 C 0.56126 0.33049 0.9899 0.0
C769 C 0.54615 0.31559 0.99607 0.0
C770 C 0.56325 0.29465 0.01391 0.0
H771 H 0.56179 0.25097 0.97952 0.0
H772 H 0.56716 0.26698 0.99398 0.0
H773 H 0.57199 0.27715 0.01341 0.0
H774 H 0.57455 0.33519 0.00375 0.0
H775 H 0.56686 0.32066 0.01878 0.0
H776 H 0.53251 0.29942 0.01226 0.0
C777 C 0.55989 0.26072 0.99642 0.0
C778 C 0.5633 0.28189 0.01369 0.0
C779 C 0.55688 0.2515 0.9881 0.0
C780 C 0.56619 0.33027 0.00175 0.0
C781 C 0.56188 0.32182 0.0103 0.0
C782 C 0.54116 0.29467 0.01308 0.0
C783 C 0.55239 0.263 0.00664 0.0
C784 C 0.55233 0.27543 0.01214 0.0
C785 C 0.55259 0.31358 0.00704 0.0
C786 C 0.55221 0.30116 0.01255 0.0
H787 H 0.5318 0.24014 0.00256 0.0
H788 H 0.53718 0.25607 0.01724 0.0
H789 H 0.53254 0.27725 0.01177 0.0
H790 H 0.54666 0.32391 0.97839 0.0
H791 H 0.5389 0.30947 0.99323 0.0
C792 C 0.00402 0.78148 0.32406 0.0
C793 C 0.00379 0.76882 0.32595 0.0
C794 C 0.01105 0.78639 0.31464 0.0
C795 C 0.04076 0.77895 0.30681 0.0
H796 H 0.03997 0.81126 0.29245 0.0
C797 C 0.07943 0.81162 0.31756 0.0
C798 C 0.07519 0.82317 0.32119 0.0
C799 C 0.07194 0.80388 0.31066 0.0
C800 C 0.0404 0.80221 0.29642 0.0
H801 H 0.00906 0.75124 0.31849 0.0
H802 H 0.02178 0.75986 0.30231 0.0
H803 H 0.0215 0.79877 0.2925 0.0
H804 H 0.06011 0.83595 0.32001 0.0
H805 H 0.04683 0.82236 0.30882 0.0
H806 H 0.05897 0.7828 0.3123 0.0
C807 C 0.01643 0.76598 0.30796 0.0
C808 C 0.02986 0.795 0.29624 0.0
C809 C 0.00915 0.76106 0.31724 0.0
C810 C 0.0636 0.82706 0.31737 0.0
C811 C 0.05603 0.81927 0.31074 0.0
C812 C 0.05118 0.78625 0.30727 0.0
C813 C 0.01819 0.77868 0.30723 0.0
C814 C 0.02972 0.78367 0.30225 0.0
C815 C 0.05993 0.80742 0.30754 0.0
C816 C 0.05083 0.79836 0.30296 0.0
H817 H -0.00014 0.78762 0.33063 0.0
H818 H 0.01221 0.79622 0.31432 0.0
H819 H 0.04097 0.77024 0.31152 0.0
H820 H 0.08845 0.8085 0.32021 0.0
H821 H 0.07541 0.79496 0.30816 0.0
C822 C 0.53863 0.74878 0.60544 0.0
C823 C 0.54905 0.74898 0.59802 0.0
C824 C 0.52936 0.75738 0.60353 0.0
C825 C 0.51902 0.78423 0.58573 0.0
H826 H 0.52511 0.8014 0.61617 0.0
C827 C 0.49528 0.82735 0.60571 0.0
C828 C 0.50287 0.83559 0.61198 0.0
C829 C 0.50027 0.81729 0.59968 0.0
C830 C 0.52343 0.79675 0.60758 0.0
H831 H 0.5569 0.75625 0.58141 0.0
H832 H 0.5406 0.77096 0.57786 0.0
H833 H 0.5317 0.78031 0.61396 0.0
H834 H 0.52163 0.84077 0.61555 0.0
H835 H 0.53038 0.82288 0.60536 0.0
H836 H 0.51054 0.80087 0.57952 0.0
C837 C 0.5396 0.76447 0.58527 0.0
C838 C 0.52695 0.78461 0.60641 0.0
C839 C 0.54893 0.75601 0.58728 0.0
C840 C 0.51559 0.8345 0.61089 0.0
C841 C 0.52058 0.82427 0.60505 0.0
C842 C 0.51521 0.7964 0.58702 0.0
C843 C 0.53042 0.76601 0.59406 0.0
C844 C 0.52483 0.77821 0.59548 0.0
C845 C 0.5129 0.81526 0.60004 0.0
C846 C 0.51757 0.80278 0.59792 0.0
H847 H 0.53845 0.74336 0.61369 0.0
H848 H 0.52223 0.75829 0.61033 0.0
H849 H 0.51751 0.77953 0.57714 0.0
H850 H 0.48543 0.82808 0.6064 0.0
H851 H 0.49417 0.81046 0.5959 0.0
C852 C 0.57278 0.31548 0.81244 0.0
C853 C 0.57611 0.3278 0.81353 0.0
C854 C 0.5605 0.31236 0.81068 0.0
C855 C 0.53444 0.31206 0.82101 0.0
H856 H 0.51119 0.3218 0.79606 0.0
C857 C 0.48687 0.29614 0.82671 0.0
C858 C 0.48571 0.28706 0.81775 0.0
C859 C 0.4949 0.3059 0.82477 0.0
C860 C 0.51757 0.31926 0.80319 0.0
H861 H 0.56972 0.34651 0.81203 0.0
H862 H 0.5484 0.34102 0.80847 0.0
H863 H 0.53287 0.32749 0.794 0.0
H864 H 0.48915 0.28261 0.7988 0.0
H865 H 0.50263 0.29981 0.7952 0.0
H866 H 0.51942 0.30372 0.83018 0.0
C867 C 0.55514 0.33381 0.80929 0.0
C868 C 0.52993 0.32238 0.80195 0.0
C869 C 0.56732 0.33692 0.81135 0.0
C870 C 0.49016 0.28939 0.80595 0.0
C871 C 0.49793 0.29926 0.8039 0.0
C872 C 0.52213 0.30918 0.82238 0.0
C873 C 0.55155 0.32154 0.80961 0.0
C874 C 0.53848 0.31848 0.8107 0.0
C875 C 0.50135 0.3068 0.81368 0.0
C876 C 0.51359 0.31252 0.81338 0.0
H877 H 0.57941 0.30829 0.81394 0.0
H878 H 0.55789 0.30281 0.81083 0.0
H879 H 0.54086 0.30918 0.82799 0.0
H880 H 0.48302 0.29486 0.8357 0.0
H881 H 0.49716 0.31183 0.83237 0.0
C882 C 0.0235 0.30031 0.08838 0.0
C883 C 0.01863 0.28948 0.09321 0.0
C884 C 0.03467 0.30023 0.08231 0.0
C885 C 0.06305 0.2829 0.08313 0.0
H886 H 0.07332 0.3083 0.06064 0.0
C887 C 0.11313 0.29456 0.07996 0.0
C888 C 0.11517 0.30686 0.08302 0.0
C889 C 0.10172 0.29077 0.07575 0.0
C890 C 0.07058 0.30107 0.06681 0.0
H891 H 0.02108 0.26988 0.09458 0.0
H892 H 0.04065 0.26967 0.08376 0.0
H893 H 0.05157 0.30379 0.06305 0.0
H894 H 0.10736 0.32506 0.08292 0.0
H895 H 0.0873 0.31843 0.07573 0.0
H896 H 0.08193 0.28051 0.0873 0.0
C897 C 0.03592 0.27829 0.0849 0.0
C898 C 0.05814 0.2985 0.06823 0.0
C899 C 0.0247 0.27838 0.09105 0.0
C900 C 0.10602 0.31552 0.08061 0.0
C901 C 0.09454 0.31171 0.07646 0.0
C902 C 0.07545 0.28538 0.08162 0.0
C903 C 0.04124 0.28929 0.08085 0.0
C904 C 0.05421 0.28979 0.07685 0.0
C905 C 0.09211 0.29921 0.07462 0.0
C906 C 0.07932 0.29484 0.07384 0.0
H907 H 0.01896 0.309 0.08979 0.0
H908 H 0.03849 0.30891 0.07949 0.0
H909 H 0.06043 0.27625 0.08996 0.0
H910 H 0.12011 0.28772 0.08161 0.0
H911 H 0.10017 0.28112 0.07419 0.0
C912 C 0.26276 0.09682 0.30974 0.0
C913 C 0.26531 0.09687 0.29719 0.0
C914 C 0.26739 0.08751 0.31717 0.0
C915 C 0.27362 0.05556 0.31415 0.0
H916 H 0.28306 0.05766 0.34822 0.0
C917 C 0.2641 0.01495 0.34394 0.0
C918 C 0.25791 0.01816 0.35467 0.0
C919 C 0.2713 0.02357 0.33788 0.0
C920 C 0.28043 0.05689 0.33871 0.0
H921 H 0.27543 0.08792 0.28267 0.0
H922 H 0.28337 0.0716 0.29562 0.0
H923 H 0.28355 0.07599 0.33546 0.0
H924 H 0.25527 0.03236 0.36821 0.0
H925 H 0.26705 0.04758 0.35738 0.0
H926 H 0.26932 0.03695 0.31741 0.0
C927 C 0.27778 0.07869 0.29971 0.0
C928 C 0.28079 0.06738 0.33142 0.0
C929 C 0.2732 0.08799 0.29232 0.0
C930 C 0.25993 0.02968 0.3599 0.0
C931 C 0.26681 0.03841 0.35368 0.0
C932 C 0.27303 0.04517 0.32145 0.0
C933 C 0.27459 0.07813 0.31211 0.0
C934 C 0.27693 0.06687 0.3192 0.0
C935 C 0.27201 0.03568 0.34223 0.0
C936 C 0.27589 0.04579 0.33398 0.0
H937 H 0.25677 0.10363 0.31371 0.0
H938 H 0.26468 0.08722 0.32668 0.0
H939 H 0.27048 0.05491 0.30478 0.0
H940 H 0.26282 0.00602 0.33986 0.0
H941 H 0.27556 0.02097 0.32935 0.0
C942 C 0.32087 -0.00018 0.58271 0.0
C943 C 0.32633 0.99187 0.57425 0.0
C944 C 0.31019 0.0061 0.57972 0.0
C945 C 0.28312 0.00471 0.57639 0.0
H946 H 0.27081 0.00926 0.54357 0.0
C947 C 0.24051 0.98189 0.55883 0.0
C948 C 0.23535 0.98589 0.54784 0.0
C949 C 0.24965 0.98882 0.56446 0.0
C950 C 0.27397 0.00837 0.5529 0.0
H951 H 0.32601 0.98554 0.55555 0.0
H952 H 0.30702 0.99589 0.55043 0.0
H953 H 0.29249 0.01148 0.54748 0.0
H954 H 0.23423 0.00085 0.53499 0.0
H955 H 0.24966 0.0133 0.54516 0.0
H956 H 0.26464 0.00128 0.58174 0.0
C957 C 0.31098 0.99754 0.55934 0.0
C958 C 0.2865 0.00947 0.55509 0.0
C959 C 0.32188 0.99151 0.56226 0.0
C960 C 0.23811 0.99763 0.54351 0.0
C961 C 0.24708 0.00467 0.54924 0.0
C962 C 0.27058 0.00375 0.57423 0.0
C963 C 0.30457 0.00423 0.56833 0.0
C964 C 0.29131 0.0069 0.5667 0.0
C965 C 0.25364 -0.0001 0.5592 0.0
C966 C 0.26595 0.0048 0.56232 0.0
H967 H 0.32428 0.00037 0.592 0.0
H968 H 0.30577 0.01153 0.58672 0.0
H969 H 0.28639 0.00266 0.58549 0.0
H970 H 0.23861 0.97281 0.56225 0.0
H971 H 0.25446 0.9848 0.57212 0.0
C972 C 0.32615 0.00478 0.76867 0.0
C973 C 0.3346 0.0085 0.75979 0.0
C974 C 0.31918 0.01343 0.77493 0.0
C975 C 0.31304 0.04703 0.77776 0.0
H976 H 0.31897 0.04024 0.812 0.0
C977 C 0.32931 0.08264 0.81184 0.0
C978 C 0.32725 0.08092 0.82437 0.0
C979 C 0.32439 0.07449 0.80334 0.0
C980 C 0.31685 0.04228 0.80255 0.0
H981 H 0.34164 0.02394 0.74961 0.0
H982 H 0.32992 0.03912 0.76087 0.0
H983 H 0.32045 0.02391 0.79734 0.0
H984 H 0.31746 0.07017 0.83781 0.0
H985 H 0.30869 0.05605 0.82296 0.0
H986 H 0.31029 0.06569 0.78307 0.0
C987 C 0.3284 0.02955 0.76289 0.0
C988 C 0.31769 0.03284 0.79407 0.0
C989 C 0.33523 0.02087 0.75649 0.0
C990 C 0.31937 0.07156 0.8282 0.0
C991 C 0.31434 0.06349 0.8197 0.0
C992 C 0.31221 0.05652 0.78628 0.0
C993 C 0.32074 0.02597 0.77258 0.0
C994 C 0.31642 0.03521 0.78151 0.0
C995 C 0.31724 0.06455 0.80723 0.0
C996 C 0.31472 0.05433 0.79869 0.0
H997 H 0.32536 0.99524 0.77119 0.0
H998 H 0.31314 0.01035 0.78213 0.0
H999 H 0.31175 0.04909 0.76817 0.0
H1000 H 0.33525 0.08986 0.80862 0.0
H1001 H 0.32692 0.07553 0.79384 0.0
C1002 C 0.30341 0.08527 0.11048 0.0
C1003 C 0.31444 0.09106 0.11357 0.0
C1004 C 0.30081 0.08242 0.09833 0.0
C1005 C 0.29986 0.07615 0.07032 0.0
H1006 H 0.2997 0.10804 0.05479 0.0
C1007 C 0.29441 0.09023 0.0188 0.0
C1008 C 0.28527 0.099 0.01674 0.0
C1009 C 0.29671 0.08598 0.0306 0.0
C1010 C 0.29968 0.0991 0.05905 0.0
H1011 H 0.33187 0.09743 0.10666 0.0
H1012 H 0.32717 0.09273 0.08532 0.0
H1013 H 0.30839 0.10576 0.07521 0.0
H1014 H 0.27085 0.10969 0.0251 0.0
H1015 H 0.27517 0.10253 0.04588 0.0
H1016 H 0.2913 0.06952 0.05388 0.0
C1017 C 0.32064 0.09024 0.09233 0.0
C1018 C 0.30478 0.09776 0.07061 0.0
C1019 C 0.32334 0.09287 0.10453 0.0
C1020 C 0.27784 0.1028 0.02646 0.0
C1021 C 0.28033 0.09876 0.03831 0.0
C1022 C 0.29499 0.07744 0.05855 0.0
C1023 C 0.30913 0.08554 0.08912 0.0
C1024 C 0.30486 0.08631 0.07637 0.0
C1025 C 0.29005 0.09065 0.04047 0.0
C1026 C 0.29474 0.08898 0.05295 0.0
H1027 H 0.29641 0.08383 0.11734 0.0
H1028 H 0.29185 0.07887 0.09603 0.0
H1029 H 0.29973 0.06727 0.07469 0.0
H1030 H 0.30027 0.08723 0.0114 0.0
H1031 H 0.30432 0.07982 0.03212 0.0
C1032 C 0.30618 0.2738 0.0956 0.0
C1033 C 0.29338 0.27325 0.09538 0.0
C1034 C 0.31262 0.2775 0.08522 0.0
C1035 C 0.30846 0.27481 0.05268 0.0
H1036 H 0.34098 0.28878 0.0514 0.0
C1037 C 0.33903 0.26149 0.01349 0.0
C1038 C 0.35053 0.25738 0.01737 0.0
C1039 C 0.33208 0.26915 0.02096 0.0
C1040 C 0.33188 0.28488 0.05158 0.0
H1041 H 0.27718 0.27752 0.08477 0.0
H1042 H 0.28842 0.28406 0.06668 0.0
H1043 H 0.32822 0.29209 0.06944 0.0
H1044 H 0.36431 0.25881 0.03151 0.0
H1045 H 0.35201 0.27158 0.04486 0.0
H1046 H 0.31227 0.26674 0.03545 0.0
C1047 C 0.2935 0.28137 0.07474 0.0
C1048 C 0.32458 0.28683 0.06189 0.0
C1049 C 0.28708 0.27763 0.08509 0.0
C1050 C 0.35543 0.26185 0.02834 0.0
C1051 C 0.34838 0.26927 0.03595 0.0
C1052 C 0.31576 0.27276 0.04248 0.0
C1053 C 0.30633 0.28079 0.07451 0.0
C1054 C 0.31298 0.28139 0.06273 0.0
C1055 C 0.33637 0.27251 0.03262 0.0
C1056 C 0.32777 0.27733 0.042 0.0
H1057 H 0.31126 0.27076 0.10353 0.0
H1058 H 0.3225 0.27692 0.08533 0.0
H1059 H 0.29963 0.27034 0.05308 0.0
H1060 H 0.33515 0.25828 0.00496 0.0
H1061 H 0.32304 0.27178 0.01792 0.0
C1062 C 0.77852 0.32015 0.00319 0.0
C1063 C 0.76579 0.3211 0.00409 0.0
C1064 C 0.78468 0.31083 0.0093 0.0
C1065 C 0.78017 0.30085 0.03913 0.0
H1066 H 0.81378 0.29046 0.03523 0.0
C1067 C 0.81394 0.31273 0.07638 0.0
C1068 C 0.82473 0.31794 0.07184 0.0
C1069 C 0.80661 0.30547 0.06884 0.0
C1070 C 0.80439 0.2933 0.03653 0.0
H1071 H 0.74929 0.31225 0.01044 0.0
H1072 H 0.76011 0.29613 0.02156 0.0
H1073 H 0.79998 0.29002 0.01771 0.0
H1074 H 0.83669 0.31924 0.05614 0.0
H1075 H 0.82361 0.30744 0.04275 0.0
H1076 H 0.78472 0.30568 0.05734 0.0
C1077 C 0.76534 0.30245 0.01602 0.0
C1078 C 0.79644 0.29284 0.02652 0.0
C1079 C 0.75915 0.31166 0.00965 0.0
C1080 C 0.82837 0.31535 0.05985 0.0
C1081 C 0.8209 0.30839 0.05221 0.0
C1082 C 0.78814 0.30155 0.04903 0.0
C1083 C 0.77818 0.30258 0.01669 0.0
C1084 C 0.78453 0.29751 0.02752 0.0
C1085 C 0.80972 0.30362 0.05648 0.0
C1086 C 0.8006 0.2987 0.04759 0.0
H1087 H 0.78379 0.32732 -0.00115 0.0
H1088 H 0.79457 0.31121 0.0096 0.0
H1089 H 0.77103 0.30451 0.04025 0.0
H1090 H 0.81108 0.3144 0.0857 0.0
H1091 H 0.79827 0.30172 0.0726 0.0
C1092 C 0.98266 0.55899 0.23971 0.0
C1093 C 0.98401 0.54809 0.23315 0.0
C1094 C 0.99223 0.56325 0.247 0.0
C1095 C 0.01184 0.54642 0.2664 0.0
H1096 H 0.01383 0.57802 0.28216 0.0
C1097 C 0.99312 0.55675 0.31242 0.0
C1098 C 0.99657 0.56754 0.31837 0.0
C1099 C -0.00018 0.5526 0.30237 0.0
C1100 C 0.01379 0.56909 0.2779 0.0
H1101 H 0.99684 0.53422 0.22733 0.0
H1102 H 0.01359 0.54165 0.24005 0.0
H1103 H 0.01109 0.57693 0.26018 0.0
H1104 H 0.01051 0.58147 0.3198 0.0
H1105 H 0.0224 0.57409 0.30245 0.0
H1106 H 0.01338 0.5386 0.28427 0.0
C1107 C 0.0052 0.5469 0.23967 0.0
C1108 C 0.01215 0.56849 0.26526 0.0
C1109 C 0.99565 0.54274 0.23225 0.0
C1110 C 0.00775 0.57305 0.31537 0.0
C1111 C 0.01448 0.5689 0.30535 0.0
C1112 C 0.01344 0.54701 0.27906 0.0
C1113 C 0.00317 0.55652 0.24793 0.0
C1114 C 0.01019 0.55718 0.25953 0.0
C1115 C 0.01 0.55928 0.29813 0.0
C1116 C 0.01348 0.55837 0.28503 0.0
H1117 H 0.97372 0.56316 0.24065 0.0
H1118 H 0.99034 0.57073 0.25321 0.0
H1119 H 0.01041 0.53752 0.2623 0.0
H1120 H 0.98443 0.55248 0.31446 0.0
H1121 H 0.99607 0.54516 0.29703 0.0
C1122 C 0.77717 0.77263 0.4929 0.0
C1123 C 0.78626 0.77896 0.48649 0.0
C1124 C 0.77095 0.7784 0.50247 0.0
C1125 C 0.76031 0.79281 0.52403 0.0
H1126 H 0.78882 0.80062 0.54372 0.0
C1127 C 0.75614 0.79014 0.57486 0.0
C1128 C 0.76296 0.77982 0.57827 0.0
C1129 C 0.75919 0.79664 0.56432 0.0
C1130 C 0.78072 0.79879 0.53831 0.0
H1131 H 0.79458 0.79664 0.48355 0.0
H1132 H 0.78366 0.80674 0.50013 0.0
H1133 H 0.79063 0.79959 0.52152 0.0
H1134 H 0.77926 0.76929 0.57462 0.0
H1135 H 0.78493 0.7809 0.5565 0.0
H1136 H 0.75061 0.79117 0.5409 0.0
C1137 C 0.7814 0.79735 0.49793 0.0
C1138 C 0.78171 0.79826 0.5256 0.0
C1139 C 0.78753 0.7916 0.48833 0.0
C1140 C 0.77401 0.77736 0.57229 0.0
C1141 C 0.77716 0.78396 0.56182 0.0
C1142 C 0.75927 0.79355 0.53674 0.0
C1143 C 0.77383 0.79052 0.50569 0.0
C1144 C 0.77166 0.79467 0.51839 0.0
C1145 C 0.76921 0.79296 0.55721 0.0
C1146 C 0.76961 0.79596 0.54402 0.0
H1147 H 0.77613 0.76286 0.49177 0.0
H1148 H 0.76514 0.77289 0.50829 0.0
H1149 H 0.75246 0.78999 0.5187 0.0
H1150 H 0.74748 0.79207 0.57927 0.0
H1151 H 0.75299 0.80362 0.56102 0.0
C1152 C 0.0926 0.10292 0.32456 0.0
C1153 C 0.09105 0.11224 0.3159 0.0
C1154 C 0.0893 0.09093 0.32165 0.0
C1155 C 0.09598 0.07114 0.30168 0.0
H1156 H 0.06688 0.05106 0.29894 0.0
C1157 C 0.09886 0.02454 0.27932 0.0
C1158 C 0.09624 0.01534 0.28785 0.0
C1159 C 0.09479 0.03647 0.28137 0.0
C1160 C 0.07502 0.05666 0.29958 0.0
H1161 H 0.08362 0.1168 0.29813 0.0
H1162 H 0.07758 0.09584 0.29319 0.0
H1163 H 0.0653 0.07204 0.30712 0.0
H1164 H 0.08637 0.01095 0.30442 0.0
H1165 H 0.07901 0.03176 0.30784 0.0
H1166 H 0.10576 0.05601 0.29416 0.0
C1167 C 0.08138 0.09779 0.30213 0.0
C1168 C 0.07412 0.06853 0.3043 0.0
C1169 C 0.08487 0.10972 0.30494 0.0
C1170 C 0.08851 0.01794 0.29775 0.0
C1171 C 0.08426 0.0298 0.29967 0.0
C1172 C 0.09684 0.05944 0.29679 0.0
C1173 C 0.08417 0.08827 0.3102 0.0
C1174 C 0.08465 0.07572 0.3055 0.0
C1175 C 0.08788 0.03926 0.29183 0.0
C1176 C 0.0864 0.05207 0.29576 0.0
H1177 H 0.09747 0.10462 0.33301 0.0
H1178 H 0.09166 0.08362 0.32789 0.0
H1179 H 0.10418 0.07664 0.30248 0.0
H1180 H 0.10488 0.02276 0.27167 0.0
H1181 H 0.09767 0.04365 0.2752 0.0
C1182 C 0.32143 0.80907 0.56841 0.0
C1183 C 0.33265 0.81337 0.57281 0.0
C1184 C 0.32042 0.80507 0.55631 0.0
C1185 C 0.31995 0.796 0.53032 0.0
H1186 H 0.33632 0.81905 0.50899 0.0
C1187 C 0.29711 0.80632 0.48655 0.0
C1188 C 0.2944 0.81885 0.48655 0.0
C1189 C 0.30735 0.80198 0.49283 0.0
C1190 C 0.33177 0.81242 0.51475 0.0
H1191 H 0.35189 0.81556 0.56866 0.0
H1192 H 0.35027 0.80808 0.54777 0.0
H1193 H 0.34253 0.81746 0.53018 0.0
H1194 H 0.30119 0.83679 0.49118 0.0
H1195 H 0.31881 0.82942 0.50222 0.0
H1196 H 0.3083 0.79192 0.5153 0.0
C1197 C 0.34213 0.80826 0.55339 0.0
C1198 C 0.33542 0.8114 0.52694 0.0
C1199 C 0.34307 0.81248 0.56537 0.0
C1200 C 0.30312 0.82709 0.49099 0.0
C1201 C 0.31326 0.82278 0.49743 0.0
C1202 C 0.31619 0.79714 0.51819 0.0
C1203 C 0.33068 0.8051 0.54849 0.0
C1204 C 0.32907 0.80368 0.53505 0.0
C1205 C 0.31481 0.81014 0.4994 0.0
C1206 C 0.32157 0.80592 0.51045 0.0
H1207 H 0.31327 0.80965 0.57398 0.0
H1208 H 0.31142 0.80281 0.55288 0.0
H1209 H 0.31511 0.78969 0.5362 0.0
H1210 H 0.29046 0.79979 0.4832 0.0
H1211 H 0.30852 0.79219 0.49379 0.0
C1212 C 0.58916 0.55624 0.75969 0.0
C1213 C 0.59987 0.55292 0.75343 0.0
C1214 C 0.58575 0.55002 0.77028 0.0
C1215 C 0.60488 0.53821 0.79379 0.0
H1216 H 0.57536 0.53508 0.81314 0.0
C1217 C 0.61185 0.53294 0.84296 0.0
C1218 C 0.60803 0.52107 0.84582 0.0
C1219 C 0.60611 0.53927 0.83347 0.0
C1220 C 0.58364 0.53608 0.80782 0.0
H1221 H 0.6137 0.53895 0.75151 0.0
H1222 H 0.60763 0.52785 0.76982 0.0
H1223 H 0.57389 0.53696 0.79077 0.0
H1224 H 0.59365 0.50775 0.84337 0.0
H1225 H 0.58366 0.51869 0.82689 0.0
H1226 H 0.61471 0.53732 0.81052 0.0
C1227 C 0.60211 0.53553 0.76687 0.0
C1228 C 0.58282 0.53701 0.79505 0.0
C1229 C 0.60553 0.5418 0.75628 0.0
C1230 C 0.59681 0.51688 0.8412 0.0
C1231 C 0.59112 0.52314 0.83164 0.0
C1232 C 0.60569 0.53744 0.80643 0.0
C1233 C 0.59302 0.54038 0.77459 0.0
C1234 C 0.59347 0.53795 0.78791 0.0
C1235 C 0.59658 0.53369 0.82684 0.0
C1236 C 0.59512 0.53637 0.81363 0.0
H1237 H 0.5846 0.56478 0.75757 0.0
H1238 H 0.57859 0.55389 0.77592 0.0
H1239 H 0.61326 0.5393 0.78864 0.0
H1240 H 0.62043 0.53641 0.84648 0.0
H1241 H 0.61025 0.54764 0.83019 0.0
C1242 C 0.78945 0.49022 0.7844 0.0
C1243 C 0.7768 0.48808 0.78404 0.0
C1244 C 0.79449 0.49997 0.77792 0.0
C1245 C 0.78793 0.52593 0.75726 0.0
H1246 H 0.79733 0.54586 0.7851 0.0
C1247 C 0.78476 0.57683 0.75309 0.0
C1248 C 0.7749 0.58031 0.76052 0.0
C1249 C 0.7914 0.56626 0.75576 0.0
C1250 C 0.79505 0.54039 0.77717 0.0
H1251 H 0.7598 0.49311 0.77534 0.0
H1252 H 0.76861 0.50993 0.76369 0.0
H1253 H 0.79677 0.52364 0.78706 0.0
H1254 H 0.76528 0.57665 0.77735 0.0
H1255 H 0.77713 0.55843 0.78231 0.0
H1256 H 0.78541 0.54274 0.74763 0.0
C1257 C 0.77467 0.50417 0.769 0.0
C1258 C 0.79478 0.52767 0.77824 0.0
C1259 C 0.76961 0.49445 0.77558 0.0
C1260 C 0.77301 0.57427 0.77164 0.0
C1261 C 0.77974 0.56376 0.77439 0.0
C1262 C 0.78842 0.53864 0.75612 0.0
C1263 C 0.78692 0.5076 0.77094 0.0
C1264 C 0.79065 0.52037 0.76847 0.0
C1265 C 0.7883 0.55916 0.76596 0.0
C1266 C 0.79141 0.546 0.76625 0.0
H1267 H 0.79512 0.48548 0.791 0.0
H1268 H 0.80398 0.50235 0.77946 0.0
H1269 H 0.78467 0.52052 0.74963 0.0
H1270 H 0.78624 0.58128 0.74437 0.0
H1271 H 0.79801 0.56295 0.74918 0.0
C1272 C 0.82979 0.50324 0.99081 0.0
C1273 C 0.81857 0.49832 0.987 0.0
C1274 C 0.83018 0.51157 0.0005 0.0
C1275 C 0.82829 0.51764 0.02731 0.0
H1276 H 0.80072 0.53778 0.0369 0.0
C1277 C 0.79728 0.51936 0.0708 0.0
C1278 C 0.80647 0.51778 0.07957 0.0
C1279 C 0.80024 0.52376 0.05919 0.0
C1280 C 0.80858 0.53233 0.03433 0.0
H1281 H 0.79893 0.49886 0.98966 0.0
H1282 H 0.79962 0.51297 0.00668 0.0
H1283 H 0.8038 0.53277 0.01536 0.0
H1284 H 0.82551 0.52109 0.08387 0.0
H1285 H 0.83063 0.52914 0.06375 0.0
H1286 H 0.83264 0.51639 0.04619 0.0
C1287 C 0.80812 0.51067 0.00216 0.0
C1288 C 0.81035 0.52945 0.02201 0.0
C1289 C 0.80773 0.5024 0.9925 0.0
C1290 C 0.81832 0.52202 0.07713 0.0
C1291 C 0.82124 0.52662 0.06562 0.0
C1292 C 0.82656 0.52053 0.03957 0.0
C1293 C 0.81937 0.51507 0.00653 0.0
C1294 C 0.81977 0.52144 0.01849 0.0
C1295 C 0.81242 0.52676 0.05628 0.0
C1296 C 0.81626 0.52728 0.0433 0.0
H1297 H 0.83827 0.50037 0.9866 0.0
H1298 H 0.83898 0.5149 0.00359 0.0
H1299 H 0.83562 0.51141 0.02498 0.0
H1300 H 0.78806 0.51617 0.0725 0.0
H1301 H 0.79321 0.52368 0.05223 0.0
C1302 C 0.79496 0.58343 0.32534 0.0
C1303 C 0.80488 0.58783 0.31852 0.0
C1304 C 0.78849 0.57317 0.3214 0.0
C1305 C 0.78691 0.5492 0.2973 0.0
H1306 H 0.79533 0.52747 0.32406 0.0
C1307 C 0.8156 0.50514 0.29871 0.0
C1308 C 0.81049 0.49934 0.28851 0.0
C1309 C 0.80872 0.5137 0.30526 0.0
C1310 C 0.79263 0.53337 0.31659 0.0
H1311 H 0.81477 0.58621 0.30152 0.0
H1312 H 0.80346 0.56839 0.29449 0.0
H1313 H 0.79328 0.54931 0.32781 0.0
H1314 H 0.79389 0.49645 0.27816 0.0
H1315 H 0.78183 0.51125 0.28969 0.0
H1316 H 0.78728 0.53337 0.28589 0.0
C1317 C 0.80057 0.57279 0.30287 0.0
C1318 C 0.79137 0.5459 0.31872 0.0
C1319 C 0.80704 0.58308 0.30684 0.0
C1320 C 0.79796 0.50075 0.28611 0.0
C1321 C 0.7911 0.50933 0.2926 0.0
C1322 C 0.78804 0.53665 0.2952 0.0
C1323 C 0.79194 0.56718 0.3106 0.0
C1324 C 0.78919 0.55401 0.30896 0.0
C1325 C 0.79672 0.51657 0.30157 0.0
C1326 C 0.79159 0.52872 0.3047 0.0
H1327 H 0.79323 0.58692 0.33445 0.0
H1328 H 0.78176 0.56914 0.32743 0.0
H1329 H 0.78518 0.55522 0.28964 0.0
H1330 H 0.82529 0.50436 0.30058 0.0
H1331 H 0.81333 0.51915 0.31213 0.0
C1332 C 0.84502 0.5953 0.51945 0.0
C1333 C 0.84538 0.6068 0.52514 0.0
C1334 C 0.83709 0.58627 0.52375 0.0
C1335 C 0.81271 0.58005 0.54677 0.0
H1336 H 0.79154 0.58011 0.51832 0.0
C1337 C 0.76491 0.59955 0.53976 0.0
C1338 C 0.75967 0.59528 0.55061 0.0
C1339 C 0.77462 0.59316 0.53444 0.0
C1340 C 0.79737 0.57968 0.52631 0.0
H1341 H 0.83934 0.61732 0.5407 0.0
H1342 H 0.82583 0.60153 0.54848 0.0
H1343 H 0.81346 0.5828 0.51575 0.0
H1344 H 0.75905 0.58028 0.56344 0.0
H1345 H 0.77588 0.56902 0.55409 0.0
H1346 H 0.7965 0.57816 0.55741 0.0
C1347 C 0.83153 0.59937 0.54069 0.0
C1348 C 0.80997 0.58114 0.52486 0.0
C1349 C 0.83936 0.60844 0.5363 0.0
C1350 C 0.7629 0.58365 0.55497 0.0
C1351 C 0.77263 0.57728 0.5497 0.0
C1352 C 0.80012 0.5785 0.54821 0.0
C1353 C 0.82952 0.58866 0.53383 0.0
C1354 C 0.81764 0.58223 0.53515 0.0
C1355 C 0.77923 0.58251 0.54003 0.0
C1356 C 0.79224 0.57918 0.53805 0.0
H1357 H 0.84948 0.59393 0.51072 0.0
H1358 H 0.83583 0.57804 0.51838 0.0
H1359 H 0.81842 0.58074 0.55484 0.0
H1360 H 0.7627 0.6086 0.53639 0.0
H1361 H 0.77949 0.59747 0.52699 0.0
C1362 C 0.51272 0.07175 0.79846 0.0
C1363 C 0.51051 0.08101 0.80703 0.0
C1364 C 0.51823 0.06084 0.80212 0.0
C1365 C 0.51725 0.04259 0.82937 0.0
H1366 H 0.53203 0.01875 0.80775 0.0
C1367 C 0.50275 0.99323 0.83315 0.0
C1368 C 0.49831 0.98912 0.82184 0.0
C1369 C 0.51077 0.00316 0.83369 0.0
C1370 C 0.52803 0.02531 0.814 0.0
H1371 H 0.51365 0.08687 0.8257 0.0
H1372 H 0.52338 0.06786 0.83206 0.0
H1373 H 0.53505 0.04053 0.8039 0.0
H1374 H 0.49948 0.99147 0.8022 0.0
H1375 H 0.51299 0.00892 0.80311 0.0
H1376 H 0.50929 0.02758 0.83881 0.0
C1377 C 0.52063 0.06888 0.8226 0.0
C1378 C 0.52978 0.03776 0.8118 0.0
C1379 C 0.51501 0.07973 0.81897 0.0
C1380 C 0.50263 0.99454 0.81107 0.0
C1381 C 0.51057 0.00445 0.81159 0.0
C1382 C 0.51545 0.03018 0.83153 0.0
C1383 C 0.52168 0.05907 0.81439 0.0
C1384 C 0.5237 0.0465 0.81898 0.0
C1385 C 0.51441 0.00916 0.82292 0.0
C1386 C 0.52009 0.02145 0.82334 0.0
H1387 H 0.50943 0.07257 0.78916 0.0
H1388 H 0.51879 0.05344 0.79556 0.0
H1389 H 0.5124 0.04905 0.8351 0.0
H1390 H 0.49971 0.98906 0.8416 0.0
H1391 H 0.51367 0.0065 0.84255 0.0
C1392 C 0.98215 0.33488 0.21875 0.0
C1393 C 0.98627 0.34607 0.22346 0.0
C1394 C 0.974 0.33464 0.20895 0.0
C1395 C 0.96823 0.35503 0.18288 0.0
H1396 H 0.95722 0.32396 0.17009 0.0
C1397 C 0.98725 0.33659 0.13938 0.0
C1398 C 0.98229 0.32617 0.13384 0.0
C1399 C 0.98113 0.34228 0.149 0.0
C1400 C 0.95993 0.33289 0.17335 0.0
H1401 H 0.98338 0.36567 0.22317 0.0
H1402 H 0.96862 0.36525 0.20653 0.0
H1403 H 0.95629 0.3277 0.19178 0.0
H1404 H 0.96631 0.31448 0.13284 0.0
H1405 H 0.95534 0.32475 0.14927 0.0
H1406 H 0.97158 0.36033 0.16442 0.0
C1407 C 0.97223 0.35665 0.20984 0.0
C1408 C 0.9596 0.33496 0.18594 0.0
C1409 C 0.98063 0.3569 0.21948 0.0
C1410 C 0.97047 0.32237 0.13716 0.0
C1411 C 0.96422 0.32822 0.14663 0.0
C1412 C 0.96814 0.35313 0.17026 0.0
C1413 C 0.9696 0.3456 0.20378 0.0
C1414 C 0.9649 0.34556 0.19094 0.0
C1415 C 0.96978 0.33781 0.15318 0.0
C1416 C 0.96514 0.3416 0.16544 0.0
H1417 H 0.98619 0.32633 0.2217 0.0
H1418 H 0.97229 0.32587 0.20472 0.0
H1419 H 0.97213 0.36349 0.18618 0.0
H1420 H 0.99632 0.33977 0.137 0.0
H1421 H 0.98588 0.34953 0.15377 0.0
C1422 C 0.96366 0.75204 0.37255 0.0
C1423 C 0.9661 0.76395 0.36837 0.0
C1424 C 0.95506 0.75009 0.38177 0.0
C1425 C 0.93401 0.7662 0.40349 0.0
H1426 H 0.95685 0.75332 0.42727 0.0
C1427 C 0.94458 0.7909 0.447 0.0
C1428 C 0.95182 0.78539 0.45608 0.0
C1429 C 0.93993 0.784 0.43736 0.0
C1430 C 0.95 0.75663 0.42094 0.0
H1431 H 0.95992 0.78279 0.36902 0.0
H1432 H 0.94518 0.77946 0.38519 0.0
H1433 H 0.95945 0.74838 0.40609 0.0
H1434 H 0.95818 0.76803 0.46319 0.0
H1435 H 0.94955 0.75585 0.44666 0.0
H1436 H 0.92491 0.77494 0.41842 0.0
C1437 C 0.94988 0.77159 0.38145 0.0
C1438 C 0.95154 0.75376 0.40864 0.0
C1439 C 0.95845 0.77353 0.3722 0.0
C1440 C 0.95294 0.7726 0.45615 0.0
C1441 C 0.94803 0.76563 0.44661 0.0
C1442 C 0.93234 0.76891 0.41588 0.0
C1443 C 0.94881 0.76003 0.38699 0.0
C1444 C 0.94412 0.75924 0.3997 0.0
C1445 C 0.94221 0.77135 0.43664 0.0
C1446 C 0.94092 0.76495 0.42464 0.0
H1447 H 0.96918 0.74437 0.36955 0.0
H1448 H 0.95421 0.74103 0.38566 0.0
H1449 H 0.92798 0.77034 0.39681 0.0
H1450 H 0.94335 0.80072 0.44674 0.0
H1451 H 0.93554 0.78887 0.42995 0.0
C1452 C 0.62217 0.75589 0.71875 0.0
C1453 C 0.62216 0.74888 0.72946 0.0
C1454 C 0.62395 0.75024 0.70741 0.0
C1455 C 0.61656 0.71998 0.69516 0.0
H1456 H 0.62247 0.73659 0.66452 0.0
C1457 C 0.58527 0.71523 0.65372 0.0
C1458 C 0.58961 0.71856 0.64215 0.0
C1459 C 0.59321 0.71508 0.66375 0.0
C1460 C 0.62099 0.73159 0.67291 0.0
H1461 H 0.62593 0.73101 0.73703 0.0
H1462 H 0.62981 0.72129 0.71738 0.0
H1463 H 0.63147 0.74455 0.68316 0.0
H1464 H 0.60582 0.72278 0.63161 0.0
H1465 H 0.61977 0.72193 0.64895 0.0
H1466 H 0.6059 0.70715 0.68495 0.0
C1467 C 0.6279 0.731 0.71758 0.0
C1468 C 0.62605 0.73628 0.68367 0.0
C1469 C 0.62591 0.73661 0.72887 0.0
C1470 C 0.60224 0.72026 0.64048 0.0
C1471 C 0.6102 0.71992 0.65045 0.0
C1472 C 0.61159 0.71523 0.68439 0.0
C1473 C 0.62593 0.73751 0.70668 0.0
C1474 C 0.62342 0.73089 0.69501 0.0
C1475 C 0.60567 0.71811 0.66233 0.0
C1476 C 0.61325 0.72129 0.67321 0.0
H1477 H 0.61913 0.76532 0.71894 0.0
H1478 H 0.62238 0.75561 0.69927 0.0
H1479 H 0.61421 0.71556 0.70368 0.0
H1480 H 0.57557 0.71401 0.65528 0.0
H1481 H 0.58933 0.71367 0.67273 0.0
C1482 C 0.58925 0.36111 0.92719 0.0
C1483 C 0.59494 0.35943 0.93855 0.0
C1484 C 0.59564 0.35852 0.91643 0.0
C1485 C 0.62537 0.34861 0.903 0.0
H1486 H 0.60463 0.32482 0.88698 0.0
C1487 C 0.63357 0.32788 0.85539 0.0
C1488 C 0.62703 0.31722 0.85233 0.0
C1489 C 0.63349 0.3323 0.86737 0.0
C1490 C 0.61066 0.33126 0.89141 0.0
H1491 H 0.61225 0.35594 0.94754 0.0
H1492 H 0.62339 0.35155 0.92881 0.0
H1493 H 0.59642 0.33707 0.90336 0.0
H1494 H 0.61776 0.30143 0.85987 0.0
H1495 H 0.61824 0.30878 0.88086 0.0
H1496 H 0.63964 0.34265 0.89091 0.0
C1497 C 0.61401 0.35464 0.92813 0.0
C1498 C 0.60583 0.33853 0.90066 0.0
C1499 C 0.60762 0.35721 0.93888 0.0
C1500 C 0.62269 0.30979 0.86184 0.0
C1501 C 0.62278 0.31413 0.87388 0.0
C1502 C 0.6302 0.34136 0.89358 0.0
C1503 C 0.6078 0.35432 0.91691 0.0
C1504 C 0.61306 0.34738 0.90649 0.0
C1505 C 0.62714 0.32596 0.87653 0.0
C1506 C 0.62286 0.33261 0.88763 0.0
H1507 H 0.57951 0.36282 0.92663 0.0
H1508 H 0.59073 0.35866 0.90783 0.0
H1509 H 0.6312 0.35525 0.90746 0.0
H1510 H 0.63729 0.3337 0.8483 0.0
H1511 H 0.63715 0.34134 0.86906 0.0
C1512 C 0.13474 0.97508 0.33507 0.0
C1513 C 0.13521 0.97537 0.32225 0.0
C1514 C 0.14327 0.96822 0.34172 0.0
C1515 C 0.17064 0.94738 0.33782 0.0
H1516 H 0.18373 0.96826 0.3632 0.0
C1517 C 0.21868 0.96391 0.34119 0.0
C1518 C 0.2225 0.96942 0.35217 0.0
C1519 C 0.20808 0.95681 0.34093 0.0
C1520 C 0.18013 0.96201 0.35642 0.0
H1521 H 0.14442 0.96786 0.30635 0.0
H1522 H 0.15949 0.95658 0.31776 0.0
H1523 H 0.16316 0.97146 0.35619 0.0
H1524 H 0.22006 0.9691 0.37187 0.0
H1525 H 0.20159 0.95682 0.37136 0.0
H1526 H 0.18832 0.93888 0.33725 0.0
C1527 C 0.15244 0.96131 0.32284 0.0
C1528 C 0.1682 0.96386 0.35234 0.0
C1529 C 0.14383 0.96797 0.31623 0.0
C1530 C 0.21711 0.96546 0.36316 0.0
C1531 C 0.20648 0.95838 0.3629 0.0
C1532 C 0.1827 0.94567 0.34177 0.0
C1533 C 0.15261 0.9617 0.33569 0.0
C1534 C 0.16355 0.9571 0.34245 0.0
C1535 C 0.20123 0.95506 0.35166 0.0
C1536 C 0.18778 0.95347 0.35061 0.0
H1537 H 0.12805 0.98047 0.34 0.0
H1538 H 0.14285 0.96849 0.3516 0.0
H1539 H 0.16722 0.94167 0.3305 0.0
H1540 H 0.22285 0.96641 0.33257 0.0
H1541 H 0.20443 0.9542 0.33211 0.0
C1542 C 0.31955 0.85891 0.62168 0.0
C1543 C 0.31003 0.85331 0.6151 0.0
C1544 C 0.32373 0.87047 0.6183 0.0
C1545 C 0.3192 0.89621 0.59619 0.0
H1546 H 0.35427 0.89241 0.59218 0.0
C1547 C 0.34633 0.92754 0.56418 0.0
C1548 C 0.35513 0.93436 0.57061 0.0
C1549 C 0.34145 0.91687 0.56928 0.0
C1550 C 0.34449 0.89358 0.59323 0.0
H1551 H 0.29538 0.85668 0.60216 0.0
H1552 H 0.30232 0.87704 0.59668 0.0
H1553 H 0.34286 0.87747 0.60407 0.0
H1554 H 0.36699 0.93436 0.58649 0.0
H1555 H 0.35872 0.9156 0.59517 0.0
H1556 H 0.32097 0.91228 0.58519 0.0
C1557 C 0.30713 0.87223 0.60385 0.0
C1558 C 0.33794 0.88514 0.6002 0.0
C1559 C 0.30302 0.86056 0.60713 0.0
C1560 C 0.36017 0.92935 0.58134 0.0
C1561 C 0.35537 0.91865 0.58637 0.0
C1562 C 0.32577 0.90461 0.58914 0.0
C1563 C 0.31827 0.8767 0.60848 0.0
C1564 C 0.3252 0.88636 0.60183 0.0
C1565 C 0.34545 0.91276 0.58076 0.0
C1566 C 0.33846 0.90335 0.58755 0.0
H1567 H 0.32488 0.85373 0.62823 0.0
H1568 H 0.33194 0.87398 0.62258 0.0
H1569 H 0.30945 0.8975 0.59729 0.0
H1570 H 0.34224 0.9311 0.55589 0.0
H1571 H 0.33403 0.91226 0.56463 0.0
C1572 C 0.37548 0.13523 0.82845 0.0
C1573 C 0.37314 0.12636 0.83742 0.0
C1574 C 0.38606 0.14234 0.82902 0.0
C1575 C 0.41519 0.14667 0.84699 0.0
H1576 H 0.42941 0.14195 0.81494 0.0
C1577 C 0.46085 0.1243 0.83869 0.0
C1578 C 0.46673 0.1257 0.82737 0.0
C1579 C 0.45063 0.13137 0.84157 0.0
C1580 C 0.42567 0.14375 0.82393 0.0
H1581 H 0.37931 0.11894 0.85472 0.0
H1582 H 0.39798 0.13078 0.85542 0.0
H1583 H 0.40759 0.14204 0.81711 0.0
H1584 H 0.46765 0.13686 0.81101 0.0
H1585 H 0.44992 0.14933 0.81612 0.0
H1586 H 0.43354 0.1473 0.85384 0.0
C1587 C 0.39162 0.13255 0.84805 0.0
C1588 C 0.41301 0.14381 0.82519 0.0
C1589 C 0.3809 0.12564 0.84761 0.0
C1590 C 0.46312 0.13534 0.81967 0.0
C1591 C 0.45296 0.1425 0.82261 0.0
C1592 C 0.42792 0.14654 0.84573 0.0
C1593 C 0.39469 0.14047 0.83839 0.0
C1594 C 0.4076 0.1445 0.83683 0.0
C1595 C 0.44614 0.14006 0.83321 0.0
C1596 C 0.43328 0.14432 0.83426 0.0
H1597 H 0.36949 0.13618 0.82062 0.0
H1598 H 0.38792 0.14865 0.82163 0.0
H1599 H 0.41133 0.1476 0.85606 0.0
H1600 H 0.46348 0.11704 0.8449 0.0
H1601 H 0.44561 0.12919 0.84981 0.0
C1602 C 0.29392 0.14457 0.15826 0.0
C1603 C 0.2882 0.14015 0.14762 0.0
C1604 C 0.29152 0.15639 0.16245 0.0
C1605 C 0.2733 0.18476 0.15678 0.0
H1606 H 0.30533 0.19982 0.1572 0.0
C1607 C 0.28301 0.23175 0.13622 0.0
C1608 C 0.29397 0.23774 0.13911 0.0
C1609 C 0.27976 0.22098 0.14228 0.0
C1610 C 0.29624 0.19593 0.15751 0.0
H1611 H 0.27435 0.14409 0.13399 0.0
H1612 H 0.27036 0.16475 0.14115 0.0
H1613 H 0.30363 0.17801 0.15928 0.0
H1614 H 0.30923 0.23824 0.15168 0.0
H1615 H 0.30319 0.21994 0.16282 0.0
H1616 H 0.26598 0.20278 0.15453 0.0
C1617 C 0.27665 0.1591 0.1463 0.0
C1618 C 0.29528 0.1833 0.15869 0.0
C1619 C 0.27899 0.14724 0.14215 0.0
C1620 C 0.30083 0.23365 0.14913 0.0
C1621 C 0.29741 0.22309 0.15543 0.0
C1622 C 0.27426 0.19749 0.15574 0.0
C1623 C 0.28342 0.16404 0.15605 0.0
C1624 C 0.28386 0.1775 0.15783 0.0
C1625 C 0.28728 0.21615 0.15155 0.0
C1626 C 0.2858 0.20319 0.15555 0.0
H1627 H 0.30089 0.13924 0.16286 0.0
H1628 H 0.29668 0.15984 0.17016 0.0
H1629 H 0.26436 0.18055 0.15623 0.0
H1630 H 0.27749 0.23469 0.12859 0.0
H1631 H 0.2719 0.21598 0.13895 0.0
C1632 C 0.14442 0.14313 0.27734 0.0
C1633 C 0.13995 0.14626 0.28897 0.0
C1634 C 0.15614 0.14675 0.27374 0.0
C1635 C 0.18354 0.1447 0.27415 0.0
H1636 H 0.20159 0.17124 0.28921 0.0
C1637 C 0.23615 0.14563 0.27547 0.0
C1638 C 0.2403 0.14471 0.28763 0.0
C1639 C 0.2241 0.14902 0.27294 0.0
C1640 C 0.19663 0.16387 0.28482 0.0
H1641 H 0.14375 0.15686 0.30532 0.0
H1642 H 0.16414 0.16263 0.29938 0.0
H1643 H 0.17929 0.17215 0.28836 0.0
H1644 H 0.23535 0.14825 0.30653 0.0
H1645 H 0.21442 0.15444 0.30202 0.0
H1646 H 0.20094 0.13643 0.27073 0.0
C1647 C 0.15869 0.15754 0.29287 0.0
C1648 C 0.18386 0.16432 0.2844 0.0
C1649 C 0.14694 0.1541 0.29637 0.0
C1650 C 0.23242 0.1485 0.29708 0.0
C1651 C 0.22046 0.15215 0.29451 0.0
C1652 C 0.19629 0.1444 0.27433 0.0
C1653 C 0.1637 0.15341 0.28177 0.0
C1654 C 0.17712 0.15447 0.27957 0.0
C1655 C 0.21609 0.15205 0.28246 0.0
C1656 C 0.2029 0.15374 0.2801 0.0
H1657 H 0.13919 0.13728 0.2713 0.0
H1658 H 0.15952 0.14374 0.26494 0.0
H1659 H 0.17877 0.13683 0.27051 0.0
H1660 H 0.24204 0.1434 0.26789 0.0
H1661 H 0.22095 0.14903 0.26355 0.0
C1662 C 0.19531 0.93257 0.5161 0.0
C1663 C 0.20058 0.93182 0.52778 0.0
C1664 C 0.19476 0.92226 0.50858 0.0
C1665 C 0.20335 0.889 0.50687 0.0
H1666 H 0.21706 0.89896 0.47576 0.0
C1667 C 0.22973 0.85429 0.47852 0.0
C1668 C 0.24129 0.85852 0.47483 0.0
C1669 C 0.22055 0.86253 0.48181 0.0
C1670 C 0.21321 0.89598 0.48437 0.0
H1671 H 0.20814 0.91955 0.54129 0.0
H1672 H 0.20745 0.90162 0.5282 0.0
H1673 H 0.20769 0.9141 0.48893 0.0
H1674 H 0.25191 0.87466 0.47058 0.0
H1675 H 0.23609 0.88904 0.47656 0.0
H1676 H 0.20989 0.87109 0.5028 0.0
C1677 C 0.20353 0.91004 0.52479 0.0
C1678 C 0.20763 0.90466 0.4919 0.0
C1679 C 0.20386 0.92033 0.53239 0.0
C1680 C 0.24307 0.87112 0.47329 0.0
C1681 C 0.23394 0.87939 0.47677 0.0
C1682 C 0.20906 0.88034 0.4994 0.0
C1683 C 0.19973 0.91107 0.51251 0.0
C1684 C 0.20303 0.90139 0.50348 0.0
C1685 C 0.2228 0.87519 0.48169 0.0
C1686 C 0.2145 0.88381 0.48826 0.0
H1687 H 0.19275 0.94137 0.51234 0.0
H1688 H 0.1914 0.92333 0.49933 0.0
H1689 H 0.19972 0.88608 0.5156 0.0
H1690 H 0.22808 0.84459 0.47969 0.0
H1691 H 0.21196 0.85896 0.48519 0.0
C1692 C 0.37285 0.96398 0.75943 0.0
C1693 C 0.36379 0.96162 0.76816 0.0
C1694 C 0.38308 0.95646 0.7585 0.0
C1695 C 0.40127 0.93865 0.77973 0.0
H1696 H 0.42399 0.94033 0.75261 0.0
C1697 C 0.45094 0.9431 0.79056 0.0
C1698 C 0.45509 0.95436 0.78593 0.0
C1699 C 0.44099 0.93719 0.7852 0.0
C1700 C 0.41773 0.93956 0.76024 0.0
H1701 H 0.35766 0.94876 0.7819 0.0
H1702 H 0.37549 0.93542 0.78016 0.0
H1703 H 0.40204 0.94168 0.74874 0.0
H1704 H 0.45312 0.96739 0.77114 0.0
H1705 H 0.43561 0.95728 0.76197 0.0
H1706 H 0.41685 0.93729 0.7913 0.0
C1707 C 0.37483 0.94328 0.7742 0.0
C1708 C 0.40516 0.94039 0.75804 0.0
C1709 C 0.36461 0.95092 0.7752 0.0
C1710 C 0.45006 0.95881 0.775 0.0
C1711 C 0.44005 0.95293 0.76968 0.0
C1712 C 0.41378 0.93769 0.78189 0.0
C1713 C 0.38451 0.94635 0.76629 0.0
C1714 C 0.39686 0.94087 0.76787 0.0
C1715 C 0.43496 0.94247 0.77517 0.0
C1716 C 0.42217 0.939 0.77227 0.0
H1717 H 0.37263 0.97213 0.75395 0.0
H1718 H 0.39034 0.95929 0.75241 0.0
H1719 H 0.39525 0.93898 0.78757 0.0
H1720 H 0.45483 0.93927 0.79881 0.0
H1721 H 0.43742 0.92902 0.78948 0.0
C1722 C 0.33331 0.13447 0.97513 0.0
C1723 C 0.32052 0.13564 0.97554 0.0
C1724 C 0.34033 0.14259 0.96817 0.0
C1725 C 0.33777 0.17009 0.94737 0.0
H1726 H 0.36337 0.18211 0.96863 0.0
C1727 C 0.34198 0.21772 0.96422 0.0
C1728 C 0.35274 0.2211 0.97038 0.0
C1729 C 0.34182 0.20728 0.95687 0.0
C1730 C 0.35655 0.17881 0.96226 0.0
H1731 H 0.30504 0.14559 0.96807 0.0
H1732 H 0.31714 0.15995 0.95658 0.0
H1733 H 0.3556 0.16181 0.97158 0.0
H1734 H 0.37236 0.21806 0.97114 0.0
H1735 H 0.37204 0.19995 0.95832 0.0
H1736 H 0.33798 0.18779 0.93894 0.0
C1737 C 0.32188 0.15268 0.96133 0.0
C1738 C 0.35202 0.16703 0.96398 0.0
C1739 C 0.31488 0.14448 0.96811 0.0
C1740 C 0.3638 0.21549 0.96691 0.0
C1741 C 0.36363 0.20504 0.95955 0.0
C1742 C 0.34221 0.18199 0.94576 0.0
C1743 C 0.33474 0.15219 0.96166 0.0
C1744 C 0.34201 0.1628 0.95711 0.0
C1745 C 0.35244 0.20014 0.95555 0.0
C1746 C 0.3511 0.18674 0.95373 0.0
H1747 H 0.33794 0.1276 0.98054 0.0
H1748 H 0.35018 0.14168 0.96839 0.0
H1749 H 0.33037 0.16698 0.94158 0.0
H1750 H 0.33336 0.22209 0.96636 0.0
H1751 H 0.33304 0.20395 0.95374 0.0
C1752 C 0.8393 0.37189 0.12069 0.0
C1753 C 0.82823 0.36836 0.1152 0.0
C1754 C 0.84033 0.38324 0.12653 0.0
C1755 C 0.82218 0.41166 0.13421 0.0
H1756 H 0.85202 0.4277 0.12402 0.0
C1757 C 0.83627 0.45898 0.11005 0.0
C1758 C 0.82735 0.46666 0.11517 0.0
C1759 C 0.83872 0.44757 0.11517 0.0
C1760 C 0.84358 0.42341 0.12688 0.0
H1761 H 0.80927 0.37355 0.11252 0.0
H1762 H 0.81114 0.3933 0.12202 0.0
H1763 H 0.85092 0.40565 0.12376 0.0
H1764 H 0.815 0.46898 0.13049 0.0
H1765 H 0.8197 0.44929 0.1398 0.0
H1766 H 0.81436 0.42941 0.13592 0.0
C1767 C 0.81905 0.38735 0.12219 0.0
C1768 C 0.84302 0.41065 0.12698 0.0
C1769 C 0.81797 0.37596 0.11659 0.0
C1770 C 0.82178 0.46317 0.1262 0.0
C1771 C 0.82442 0.45182 0.13149 0.0
C1772 C 0.82262 0.42442 0.13375 0.0
C1773 C 0.83037 0.39141 0.12678 0.0
C1774 C 0.83207 0.40459 0.12998 0.0
C1775 C 0.83249 0.4436 0.12571 0.0
C1776 C 0.83312 0.43046 0.12942 0.0
H1777 H 0.84735 0.36616 0.11997 0.0
H1778 H 0.84911 0.38582 0.13029 0.0
H1779 H 0.81375 0.40737 0.1371 0.0
H1780 H 0.84074 0.46136 0.10155 0.0
H1781 H 0.84487 0.44158 0.11027 0.0
C1782 C 0.93494 0.57933 0.35867 0.0
C1783 C 0.9459 0.58598 0.35916 0.0
C1784 C 0.92374 0.5855 0.35863 0.0
C1785 C 0.90861 0.61615 0.36021 0.0
H1786 H 0.89229 0.60423 0.3311 0.0
C1787 C 0.86047 0.62974 0.34343 0.0
C1788 C 0.85784 0.62784 0.33099 0.0
C1789 C 0.87238 0.62825 0.34781 0.0
C1790 C 0.89684 0.60783 0.33912 0.0
H1791 H 0.95373 0.60391 0.36219 0.0
H1792 H 0.93426 0.61462 0.36225 0.0
H1793 H 0.9093 0.59284 0.3395 0.0
H1794 H 0.86587 0.62536 0.31308 0.0
H1795 H 0.88672 0.62322 0.32064 0.0
H1796 H 0.89605 0.63124 0.35967 0.0
C1797 C 0.93421 0.60474 0.3617 0.0
C1798 C 0.90643 0.60111 0.34413 0.0
C1799 C 0.94539 0.59857 0.36173 0.0
C1800 C 0.86759 0.62682 0.32273 0.0
C1801 C 0.87952 0.62535 0.3271 0.0
C1802 C 0.8989 0.62287 0.35521 0.0
C1803 C 0.92336 0.59837 0.35917 0.0
C1804 C 0.91242 0.60513 0.35476 0.0
C1805 C 0.88182 0.62498 0.33976 0.0
C1806 C 0.89294 0.6188 0.34456 0.0
H1807 H 0.93504 0.56963 0.35668 0.0
H1808 H 0.91546 0.58031 0.35702 0.0
H1809 H 0.91311 0.61953 0.36836 0.0
H1810 H 0.85311 0.63063 0.35 0.0
H1811 H 0.87383 0.62819 0.3576 0.0
C1812 C 0.71704 0.65204 0.57503 0.0
C1813 C 0.71953 0.64085 0.58079 0.0
C1814 C 0.71656 0.66279 0.58193 0.0
C1815 C 0.71719 0.6773 0.61231 0.0
H1816 H 0.74503 0.69477 0.59901 0.0
C1817 C 0.73295 0.72722 0.62102 0.0
C1818 C 0.74561 0.72937 0.6201 0.0
C1819 C 0.72841 0.71528 0.62073 0.0
C1820 C 0.73734 0.68992 0.60294 0.0
H1821 H 0.72149 0.63182 0.5983 0.0
H1822 H 0.7203 0.65057 0.61033 0.0
H1823 H 0.73697 0.67712 0.58822 0.0
H1824 H 0.76344 0.72079 0.6203 0.0
H1825 H 0.75551 0.69996 0.61986 0.0
H1826 H 0.71748 0.69051 0.62692 0.0
C1827 C 0.71892 0.65109 0.60054 0.0
C1828 C 0.73258 0.67995 0.59663 0.0
C1829 C 0.71956 0.64035 0.59364 0.0
C1830 C 0.75366 0.71943 0.62104 0.0
C1831 C 0.74911 0.70748 0.62064 0.0
C1832 C 0.72183 0.68754 0.61854 0.0
C1833 C 0.71834 0.66245 0.59466 0.0
C1834 C 0.72245 0.67357 0.6012 0.0
C1835 C 0.73647 0.70539 0.61949 0.0
C1836 C 0.73202 0.69386 0.61393 0.0
H1837 H 0.71707 0.65271 0.56516 0.0
H1838 H 0.71599 0.67148 0.57721 0.0
H1839 H 0.70946 0.67241 0.61607 0.0
H1840 H 0.72655 0.73474 0.62032 0.0
H1841 H 0.71863 0.71393 0.61991 0.0
C1842 C 0.92163 0.51479 0.20569 0.0
C1843 C 0.93392 0.51122 0.20628 0.0
C1844 C 0.91238 0.50602 0.20669 0.0
C1845 C 0.90921 0.47633 0.22209 0.0
H1846 H 0.87508 0.48232 0.21494 0.0
C1847 C 0.87143 0.46903 0.25695 0.0
C1848 C 0.85922 0.46865 0.25305 0.0
C1849 C 0.8809 0.46914 0.24837 0.0
C1850 C 0.88455 0.4802 0.21686 0.0
H1851 H 0.94626 0.49577 0.20668 0.0
H1852 H 0.93016 0.48041 0.20763 0.0
H1853 H 0.89067 0.49245 0.20293 0.0
H1854 H 0.84736 0.46631 0.23738 0.0
H1855 H 0.86388 0.46579 0.22246 0.0
H1856 H 0.90309 0.46414 0.23608 0.0
C1857 C 0.92758 0.48994 0.20696 0.0
C1858 C 0.89353 0.4862 0.21005 0.0
C1859 C 0.93682 0.49872 0.20621 0.0
C1860 C 0.85672 0.46671 0.24061 0.0
C1861 C 0.86619 0.46659 0.23205 0.0
C1862 C 0.90024 0.47019 0.22879 0.0
C1863 C 0.91529 0.49353 0.20813 0.0
C1864 C 0.90596 0.48485 0.21299 0.0
C1865 C 0.87832 0.46869 0.23575 0.0
C1866 C 0.88778 0.47253 0.2267 0.0
H1867 H 0.91918 0.52438 0.20592 0.0
H1868 H 0.90306 0.50922 0.20757 0.0
H1869 H 0.91865 0.47502 0.22473 0.0
H1870 H 0.87361 0.47064 0.26647 0.0
H1871 H 0.89009 0.47079 0.25164 0.0
C1872 C 0.71567 0.62522 0.75149 0.0
C1873 C 0.72688 0.62562 0.74531 0.0
C1874 C 0.70472 0.62576 0.74489 0.0
C1875 C 0.69609 0.61421 0.71511 0.0
H1876 H 0.66342 0.61991 0.72745 0.0
C1877 C 0.64276 0.59608 0.71218 0.0
C1878 C 0.64523 0.58361 0.714 0.0
C1879 C 0.6523 0.60446 0.71102 0.0
C1880 C 0.67243 0.61844 0.72362 0.0
H1881 H 0.73556 0.62913 0.72791 0.0
H1882 H 0.7165 0.63061 0.71647 0.0
H1883 H 0.68049 0.63135 0.73594 0.0
H1884 H 0.65945 0.56989 0.71451 0.0
H1885 H 0.67618 0.58446 0.71247 0.0
H1886 H 0.6881 0.60084 0.70323 0.0
C1887 C 0.71608 0.62943 0.72629 0.0
C1888 C 0.68224 0.62495 0.7286 0.0
C1889 C 0.72699 0.6288 0.73287 0.0
C1890 C 0.6573 0.57944 0.71296 0.0
C1891 C 0.66689 0.58784 0.71188 0.0
C1892 C 0.68628 0.60768 0.71016 0.0
C1893 C 0.7049 0.62684 0.73206 0.0
C1894 C 0.69424 0.62254 0.72476 0.0
C1895 C 0.6645 0.60051 0.71174 0.0
C1896 C 0.67441 0.60935 0.71471 0.0
H1897 H 0.71533 0.62264 0.76104 0.0
H1898 H 0.69628 0.6238 0.74967 0.0
H1899 H 0.70521 0.61199 0.71199 0.0
H1900 H 0.63349 0.59951 0.71296 0.0
H1901 H 0.65015 0.61412 0.71062 0.0
C1902 C 0.50621 0.87269 0.6603 0.0
C1903 C 0.50063 0.87639 0.64938 0.0
C1904 C 0.49917 0.87107 0.67084 0.0
C1905 C 0.46793 0.86162 0.67762 0.0
H1906 H 0.47974 0.8621 0.71097 0.0
C1907 C 0.45839 0.82471 0.7138 0.0
C1908 C 0.45849 0.8282 0.72615 0.0
C1909 C 0.45969 0.83354 0.70463 0.0
C1910 C 0.47615 0.86207 0.70174 0.0
H1911 H 0.48377 0.88253 0.64111 0.0
H1912 H 0.47153 0.88014 0.65961 0.0
H1913 H 0.49045 0.87382 0.69538 0.0
H1914 H 0.45825 0.84368 0.73852 0.0
H1915 H 0.46034 0.85904 0.72255 0.0
H1916 H 0.454 0.84934 0.68388 0.0
C1917 C 0.48124 0.87824 0.66003 0.0
C1918 C 0.48238 0.86871 0.69279 0.0
C1919 C 0.48827 0.87978 0.64949 0.0
C1920 C 0.45829 0.84072 0.72907 0.0
C1921 C 0.45958 0.84952 0.71994 0.0
C1922 C 0.4618 0.85484 0.68654 0.0
C1923 C 0.48646 0.87317 0.67062 0.0
C1924 C 0.47858 0.86825 0.68054 0.0
C1925 C 0.46106 0.84597 0.70771 0.0
C1926 C 0.46604 0.85473 0.69863 0.0
H1927 H 0.51566 0.86973 0.66034 0.0
H1928 H 0.50351 0.86706 0.67879 0.0
H1929 H 0.46472 0.86106 0.66831 0.0
H1930 H 0.45864 0.81514 0.71127 0.0
H1931 H 0.46079 0.83052 0.69527 0.0
C1932 C 0.5373 0.20436 0.92732 0.0
C1933 C 0.53138 0.20318 0.93862 0.0
C1934 C 0.53048 0.20387 0.91651 0.0
C1935 C 0.49924 0.20081 0.90314 0.0
H1936 H 0.50569 0.23384 0.892 0.0
C1937 C 0.478 0.22838 0.86211 0.0
C1938 C 0.47524 0.24067 0.86483 0.0
C1939 C 0.48262 0.22062 0.87115 0.0
C1940 C 0.50377 0.22461 0.89503 0.0
H1941 H 0.51442 0.19822 0.94749 0.0
H1942 H 0.5026 0.19717 0.9287 0.0
H1943 H 0.51999 0.22396 0.9058 0.0
H1944 H 0.47366 0.25394 0.87947 0.0
H1945 H 0.48184 0.24042 0.89518 0.0
H1946 H 0.48285 0.20171 0.89225 0.0
C1947 C 0.51236 0.19865 0.92807 0.0
C1948 C 0.51207 0.21885 0.90275 0.0
C1949 C 0.51916 0.1992 0.93886 0.0
C1950 C 0.4757 0.24456 0.87705 0.0
C1951 C 0.48046 0.23684 0.88604 0.0
C1952 C 0.49099 0.20654 0.89515 0.0
C1953 C 0.51774 0.20208 0.91695 0.0
C1954 C 0.50985 0.20695 0.90705 0.0
C1955 C 0.48461 0.22507 0.88299 0.0
C1956 C 0.49309 0.21861 0.89129 0.0
H1957 H 0.54669 0.20745 0.92688 0.0
H1958 H 0.53488 0.20632 0.908 0.0
H1959 H 0.49724 0.19169 0.90642 0.0
H1960 H 0.47765 0.22509 0.85278 0.0
H1961 H 0.48574 0.21157 0.8686 0.0
C1962 C 0.14613 0.2803 0.14333 0.0
C1963 C 0.1496 0.29047 0.13629 0.0
C1964 C 0.15055 0.27891 0.15524 0.0
C1965 C 0.15756 0.29939 0.17974 0.0
H1966 H 0.16173 0.26968 0.19854 0.0
C1967 C 0.14513 0.3002 0.22994 0.0
C1968 C 0.1376 0.29042 0.23345 0.0
C1969 C 0.15241 0.29931 0.21948 0.0
C1970 C 0.16057 0.27808 0.19345 0.0
H1971 H 0.1617 0.30619 0.13562 0.0
H1972 H 0.16929 0.30378 0.1564 0.0
H1973 H 0.16407 0.26912 0.17634 0.0
H1974 H 0.13266 0.27165 0.22935 0.0
H1975 H 0.14472 0.27031 0.21095 0.0
H1976 H 0.15292 0.3082 0.19641 0.0
C1977 C 0.163 0.29703 0.15279 0.0
C1978 C 0.16201 0.27775 0.18074 0.0
C1979 C 0.15861 0.29841 0.1409 0.0
C1980 C 0.13832 0.27939 0.2269 0.0
C1981 C 0.14537 0.27859 0.21631 0.0
C1982 C 0.15591 0.29968 0.19236 0.0
C1983 C 0.1585 0.28765 0.16029 0.0
C1984 C 0.16005 0.28832 0.17373 0.0
C1985 C 0.15207 0.28874 0.21212 0.0
C1986 C 0.15686 0.28893 0.19935 0.0
H1987 H 0.1393 0.27394 0.14003 0.0
H1988 H 0.14689 0.2716 0.16081 0.0
H1989 H 0.15585 0.30767 0.17459 0.0
H1990 H 0.14494 0.30875 0.23494 0.0
H1991 H 0.15778 0.30718 0.21681 0.0
C1992 C 0.11968 0.83896 0.46401 0.0
C1993 C 0.12296 0.8285 0.47073 0.0
C1994 C 0.1244 0.84086 0.4523 0.0
C1995 C 0.13658 0.84319 0.42721 0.0
H1996 H 0.1295 0.81316 0.4098 0.0
C1997 C 0.11748 0.8425 0.37863 0.0
C1998 C 0.1181 0.83175 0.37161 0.0
C1999 C 0.12312 0.84311 0.39006 0.0
C2000 C 0.13193 0.82159 0.41439 0.0
H2001 H 0.13504 0.81273 0.47103 0.0
H2002 H 0.14321 0.81607 0.45062 0.0
H2003 H 0.13087 0.81291 0.4318 0.0
H2004 H 0.12636 0.81379 0.3704 0.0
H2005 H 0.13673 0.81506 0.39007 0.0
H2006 H 0.13731 0.85193 0.40974 0.0
C2007 C 0.13681 0.82266 0.45433 0.0
C2008 C 0.13268 0.82143 0.4271 0.0
C2009 C 0.13212 0.82077 0.46604 0.0
C2010 C 0.12553 0.82211 0.3757 0.0
C2011 C 0.1314 0.82282 0.38703 0.0
C2012 C 0.13601 0.84332 0.41443 0.0
C2013 C 0.13249 0.83234 0.44709 0.0
C2014 C 0.13454 0.8323 0.43368 0.0
C2015 C 0.12972 0.83306 0.39467 0.0
C2016 C 0.13315 0.8326 0.40787 0.0
H2017 H 0.11274 0.84518 0.46736 0.0
H2018 H 0.12088 0.8484 0.44694 0.0
H2019 H 0.13816 0.85168 0.43205 0.0
H2020 H 0.11184 0.85012 0.37576 0.0
H2021 H 0.12149 0.85113 0.39561 0.0
C2022 C 0.72195 0.45286 0.8207 0.0
C2023 C 0.73445 0.4532 0.82352 0.0
C2024 C 0.71327 0.4526 0.83008 0.0
C2025 C 0.71181 0.46454 0.86129 0.0
H2026 H 0.67756 0.4567 0.85718 0.0
C2027 C 0.65965 0.47992 0.87627 0.0
C2028 C 0.66136 0.49253 0.87458 0.0
C2029 C 0.66951 0.47187 0.87529 0.0
C2030 C 0.68711 0.45876 0.85876 0.0
H2031 H 0.74774 0.45167 0.83812 0.0
H2032 H 0.73263 0.45063 0.85444 0.0
H2033 H 0.6927 0.44634 0.84472 0.0
H2034 H 0.67475 0.50676 0.87183 0.0
H2035 H 0.69198 0.49282 0.87001 0.0
H2036 H 0.70619 0.47719 0.87511 0.0
C2037 C 0.72947 0.45109 0.84507 0.0
C2038 C 0.6958 0.4529 0.85145 0.0
C2039 C 0.73813 0.45152 0.83571 0.0
C2040 C 0.67326 0.4971 0.87342 0.0
C2041 C 0.68313 0.48904 0.87229 0.0
C2042 C 0.70314 0.47033 0.86866 0.0
C2043 C 0.71697 0.45251 0.84242 0.0
C2044 C 0.7082 0.45616 0.85219 0.0
C2045 C 0.68121 0.47629 0.87237 0.0
C2046 C 0.69062 0.46796 0.86708 0.0
H2047 H 0.71885 0.45423 0.8114 0.0
H2048 H 0.70375 0.45371 0.82763 0.0
H2049 H 0.72125 0.46738 0.86213 0.0
H2050 H 0.6505 0.4762 0.87702 0.0
H2051 H 0.66775 0.46214 0.87573 0.0
C2052 C 0.77589 0.36617 0.96185 0.0
C2053 C 0.76506 0.36206 0.96734 0.0
C2054 C 0.77553 0.3753 0.95298 0.0
C2055 C 0.75479 0.40122 0.94686 0.0
H2056 H 0.78532 0.41312 0.93361 0.0
C2057 C 0.78725 0.44719 0.94457 0.0
C2058 C 0.78369 0.45153 0.95613 0.0
C2059 C 0.78141 0.43708 0.93935 0.0
C2060 C 0.77653 0.41009 0.93695 0.0
H2061 H 0.74529 0.3625 0.96615 0.0
H2062 H 0.7446 0.37786 0.9501 0.0
H2063 H 0.78146 0.39144 0.93413 0.0
H2064 H 0.77056 0.4493 0.97079 0.0
H2065 H 0.7609 0.43152 0.96217 0.0
H2066 H 0.74965 0.41988 0.94921 0.0
C2067 C 0.75345 0.37472 0.95322 0.0
C2068 C 0.7744 0.3975 0.93748 0.0
C2069 C 0.75382 0.36578 0.96236 0.0
C2070 C 0.77357 0.44618 0.96189 0.0
C2071 C 0.76791 0.43596 0.95681 0.0
C2072 C 0.7567 0.41379 0.94587 0.0
C2073 C 0.7643 0.38038 0.94919 0.0
C2074 C 0.76408 0.39289 0.94363 0.0
C2075 C 0.77207 0.43092 0.94569 0.0
C2076 C 0.76809 0.41836 0.94207 0.0
H2077 H 0.78474 0.36336 0.9653 0.0
H2078 H 0.78418 0.37916 0.95019 0.0
H2079 H 0.74651 0.39825 0.95134 0.0
H2080 H 0.79489 0.45129 0.93979 0.0
H2081 H 0.78466 0.43375 0.93062 0.0
C2082 C 0.83646 0.73594 0.45272 0.0
C2083 C 0.82419 0.73266 0.45463 0.0
C2084 C 0.84559 0.72702 0.45239 0.0
C2085 C 0.86182 0.70912 0.46555 0.0
H2086 H 0.85659 0.67491 0.45823 0.0
C2087 C 0.87488 0.67061 0.49783 0.0
C2088 C 0.87523 0.65861 0.49336 0.0
C2089 C 0.87359 0.68042 0.48972 0.0
C2090 C 0.85849 0.68443 0.46014 0.0
H2091 H 0.81168 0.71744 0.45634 0.0
H2092 H 0.82753 0.70187 0.45601 0.0
H2093 H 0.84405 0.69023 0.44828 0.0
H2094 H 0.87645 0.64749 0.47705 0.0
H2095 H 0.87494 0.66461 0.46289 0.0
H2096 H 0.8761 0.7033 0.47759 0.0
C2097 C 0.8302 0.71129 0.4546 0.0
C2098 C 0.85112 0.69323 0.45453 0.0
C2099 C 0.82104 0.72023 0.45476 0.0
C2100 C 0.87617 0.6567 0.4807 0.0
C2101 C 0.87509 0.6665 0.4726 0.0
C2102 C 0.86926 0.70033 0.47108 0.0
C2103 C 0.84264 0.71464 0.45415 0.0
C2104 C 0.85229 0.70564 0.4576 0.0
C2105 C 0.87281 0.67835 0.47702 0.0
C2106 C 0.86731 0.68782 0.4689 0.0
H2107 H 0.83911 0.74548 0.45251 0.0
H2108 H 0.85502 0.72991 0.45165 0.0
H2109 H 0.86301 0.71857 0.46823 0.0
H2110 H 0.87398 0.67232 0.50754 0.0
H2111 H 0.87188 0.68939 0.49353 0.0
C2112 C 0.04541 0.33147 0.20384 0.0
C2113 C 0.04064 0.34305 0.20676 0.0
C2114 C 0.05196 0.32964 0.19305 0.0
C2115 C 0.06982 0.34555 0.16939 0.0
H2116 H 0.065 0.31508 0.15197 0.0
C2117 C 0.08919 0.31581 0.12495 0.0
C2118 C 0.10163 0.31882 0.12596 0.0
C2119 C 0.08068 0.32054 0.13324 0.0
C2120 C 0.06639 0.32375 0.15653 0.0
H2121 H 0.0392 0.36185 0.20056 0.0
H2122 H 0.05066 0.35861 0.18168 0.0
H2123 H 0.05198 0.32006 0.16922 0.0
H2124 H 0.11483 0.32947 0.13618 0.0
H2125 H 0.1002 0.33725 0.15091 0.0
H2126 H 0.08393 0.3495 0.15648 0.0
C2127 C 0.04934 0.35096 0.18782 0.0
C2128 C 0.05904 0.32648 0.1666 0.0
C2129 C 0.04273 0.3528 0.19863 0.0
C2130 C 0.1053 0.32704 0.13511 0.0
C2131 C 0.09683 0.33157 0.14355 0.0
C2132 C 0.07709 0.3429 0.1592 0.0
C2133 C 0.05395 0.33933 0.18487 0.0
C2134 C 0.06091 0.33721 0.17338 0.0
C2135 C 0.08443 0.32818 0.14291 0.0
C2136 C 0.07572 0.33179 0.15281 0.0
H2137 H 0.04407 0.32374 0.20988 0.0
H2138 H 0.05558 0.32061 0.19118 0.0
H2139 H 0.07146 0.35394 0.17438 0.0
H2140 H 0.08607 0.30961 0.11789 0.0
H2141 H 0.07118 0.31797 0.13217 0.0
C2142 C 0.05442 0.81964 0.36996 0.0
C2143 C 0.06229 0.82964 0.36808 0.0
C2144 C 0.04562 0.81989 0.37921 0.0
C2145 C 0.03961 0.83387 0.40905 0.0
H2146 H 0.00743 0.81958 0.405 0.0
C2147 C 0.99215 0.82507 0.43845 0.0
C2148 C 0.99716 0.81988 0.44909 0.0
C2149 C -0.00038 0.82775 0.42839 0.0
C2150 C 0.01632 0.82375 0.40626 0.0
H2151 H 0.06675 0.84793 0.37427 0.0
H2152 H 0.05135 0.84835 0.3905 0.0
H2153 H 0.02089 0.82168 0.38734 0.0
H2154 H 0.01403 0.81397 0.45769 0.0
H2155 H 0.027 0.8189 0.44032 0.0
H2156 H 0.03512 0.83576 0.42801 0.0
C2157 C 0.05208 0.84028 0.3848 0.0
C2158 C 0.02407 0.82485 0.39615 0.0
C2159 C 0.06083 0.84008 0.37544 0.0
C2160 C 0.00985 0.8179 0.44962 0.0
C2161 C 0.01732 0.82076 0.43966 0.0
C2162 C 0.03188 0.8327 0.41917 0.0
C2163 C 0.04449 0.83011 0.38691 0.0
C2164 C 0.03587 0.82982 0.39744 0.0
C2165 C 0.01228 0.82549 0.42883 0.0
C2166 C 0.02018 0.82753 0.41793 0.0
H2167 H 0.05523 0.81145 0.36445 0.0
H2168 H 0.04002 0.81186 0.38063 0.0
H2169 H 0.04868 0.83761 0.4104 0.0
H2170 H 0.98241 0.82668 0.43773 0.0
H2171 H 0.99547 0.83152 0.42024 0.0
C2172 C 0.57155 0.78986 0.73197 0.0
C2173 C 0.57422 0.7774 0.73022 0.0
C2174 C 0.56532 0.79652 0.72305 0.0
C2175 C 0.55772 0.79628 0.69002 0.0
H2176 H 0.53437 0.82114 0.69965 0.0
C2177 C 0.51741 0.82871 0.66758 0.0
C2178 C 0.52333 0.8327 0.65691 0.0
C2179 C 0.52375 0.82196 0.6764 0.0
C2180 C 0.54075 0.81414 0.69678 0.0
H2181 H 0.57233 0.76216 0.7177 0.0
H2182 H 0.56153 0.77381 0.70207 0.0
H2183 H 0.54445 0.80892 0.71522 0.0
H2184 H 0.5406 0.83244 0.64711 0.0
H2185 H 0.55159 0.8208 0.66247 0.0
H2186 H 0.55366 0.80123 0.67156 0.0
C2187 C 0.56421 0.77843 0.71038 0.0
C2188 C 0.5467 0.80725 0.70574 0.0
C2189 C 0.57034 0.77171 0.71938 0.0
C2190 C 0.5357 0.82954 0.65519 0.0
C2191 C 0.54202 0.82278 0.664 0.0
C2192 C 0.55168 0.80312 0.68106 0.0
C2193 C 0.56163 0.79093 0.71209 0.0
C2194 C 0.55524 0.7982 0.70249 0.0
C2195 C 0.53617 0.81899 0.67478 0.0
C2196 C 0.54299 0.81203 0.68431 0.0
H2197 H 0.57441 0.79455 0.74021 0.0
H2198 H 0.5637 0.80615 0.72463 0.0
H2199 H 0.56436 0.78953 0.68716 0.0
H2200 H 0.50791 0.83095 0.66924 0.0
H2201 H 0.51887 0.81907 0.68449 0.0
C2202 C 0.55309 0.32874 0.92771 0.0
C2203 C 0.55827 0.32251 0.93766 0.0
C2204 C 0.54863 0.32234 0.91764 0.0
C2205 C 0.53754 0.29214 0.90728 0.0
H2206 H 0.54349 0.30624 0.87533 0.0
C2207 C 0.51791 0.26997 0.86344 0.0
C2208 C 0.51153 0.27831 0.85605 0.0
C2209 C 0.52589 0.27421 0.87257 0.0
C2210 C 0.54176 0.30214 0.88416 0.0
H2211 H 0.56241 0.30468 0.94514 0.0
H2212 H 0.55387 0.29335 0.92775 0.0
H2213 H 0.55239 0.3157 0.89335 0.0
H2214 H 0.50911 0.29747 0.85175 0.0
H2215 H 0.5231 0.30484 0.86734 0.0
H2216 H 0.52686 0.27858 0.89801 0.0
C2217 C 0.55372 0.30323 0.92753 0.0
C2218 C 0.54678 0.30764 0.89453 0.0
C2219 C 0.55859 0.30969 0.9375 0.0
C2220 C 0.514 0.29085 0.85726 0.0
C2221 C 0.52203 0.29506 0.86623 0.0
C2222 C 0.5326 0.28656 0.89685 0.0
C2223 C 0.54901 0.3095 0.91731 0.0
C2224 C 0.54451 0.30289 0.90626 0.0
C2225 C 0.52771 0.28685 0.87433 0.0
C2226 C 0.53443 0.29165 0.88518 0.0
H2227 H 0.5527 0.33863 0.9276 0.0
H2228 H 0.54476 0.32749 0.91012 0.0
H2229 H 0.53552 0.28829 0.91616 0.0
H2230 H 0.51602 0.26027 0.86281 0.0
H2231 H 0.53025 0.26764 0.87855 0.0
C2232 C 0.06383 0.80276 0.47249 0.0
C2233 C 0.07616 0.79918 0.47322 0.0
C2234 C 0.05652 0.79904 0.46271 0.0
C2235 C 0.04622 0.79795 0.43719 0.0
H2236 H 0.04884 0.76633 0.42144 0.0
C2237 C 0.02422 0.7888 0.39019 0.0
C2238 C 0.01932 0.77715 0.38785 0.0
C2239 C 0.03099 0.79103 0.4008 0.0
C2240 C 0.04786 0.77517 0.4258 0.0
H2241 H 0.0903 0.7884 0.46448 0.0
H2242 H 0.0776 0.78205 0.44726 0.0
H2243 H 0.06046 0.77038 0.44001 0.0
H2244 H 0.01758 0.75874 0.39501 0.0
H2245 H 0.02903 0.76273 0.41367 0.0
H2246 H 0.0334 0.80267 0.42324 0.0
C2247 C 0.07353 0.78763 0.45435 0.0
C2248 C 0.05466 0.77754 0.43638 0.0
C2249 C 0.08083 0.79128 0.46422 0.0
C2250 C 0.02128 0.76781 0.39646 0.0
C2251 C 0.02794 0.77008 0.40715 0.0
C2252 C 0.03935 0.79556 0.42669 0.0
C2253 C 0.06137 0.79173 0.45331 0.0
C2254 C 0.05394 0.78897 0.44221 0.0
C2255 C 0.03292 0.78172 0.40945 0.0
C2256 C 0.0401 0.78415 0.4208 0.0
H2257 H 0.05988 0.80871 0.47936 0.0
H2258 H 0.04711 0.80211 0.4624 0.0
H2259 H 0.04564 0.80695 0.44126 0.0
H2260 H 0.02296 0.7962 0.38375 0.0
H2261 H 0.03488 0.80004 0.40209 0.0
C2262 C 0.55222 0.76876 0.6471 0.0
C2263 C 0.55114 0.75598 0.64629 0.0
C2264 C 0.54715 0.77509 0.65709 0.0
C2265 C 0.53896 0.77049 0.68916 0.0
H2266 H 0.51513 0.79642 0.6855 0.0
C2267 C 0.50627 0.78371 0.72786 0.0
C2268 C 0.50231 0.79586 0.72909 0.0
C2269 C 0.51384 0.78027 0.71819 0.0
C2270 C 0.52199 0.7894 0.68671 0.0
H2271 H 0.54408 0.73983 0.6554 0.0
H2272 H 0.53565 0.75074 0.67276 0.0
H2273 H 0.5254 0.78813 0.6674 0.0
H2274 H 0.50343 0.81403 0.72137 0.0
H2275 H 0.51662 0.80801 0.70433 0.0
H2276 H 0.5358 0.77174 0.70837 0.0
C2277 C 0.54025 0.75592 0.66569 0.0
C2278 C 0.5278 0.78461 0.67633 0.0
C2279 C 0.54504 0.74968 0.65568 0.0
C2280 C 0.50651 0.80464 0.72074 0.0
C2281 C 0.51397 0.80115 0.71091 0.0
C2282 C 0.53336 0.77541 0.69951 0.0
C2283 C 0.54125 0.76866 0.66654 0.0
C2284 C 0.53617 0.77493 0.67746 0.0
C2285 C 0.51757 0.78887 0.7094 0.0
C2286 C 0.52459 0.78474 0.69844 0.0
H2287 H 0.55681 0.77385 0.63996 0.0
H2288 H 0.54799 0.78493 0.65751 0.0
H2289 H 0.54542 0.76307 0.6903 0.0
H2290 H 0.50309 0.77674 0.73412 0.0
H2291 H 0.51622 0.77071 0.71729 0.0
C2292 C 0.54543 0.25633 0.93041 0.0
C2293 C 0.55377 0.25321 0.93967 0.0
C2294 C 0.54909 0.26357 0.92054 0.0
C2295 C 0.57206 0.2861 0.91068 0.0
H2296 H 0.5626 0.27578 0.8782 0.0
C2297 C 0.58924 0.31178 0.86772 0.0
C2298 C 0.58292 0.31044 0.85668 0.0
C2299 C 0.58554 0.30538 0.87815 0.0
C2300 C 0.56509 0.27909 0.88717 0.0
H2301 H 0.5724 0.25562 0.94602 0.0
H2302 H 0.57868 0.26854 0.92893 0.0
H2303 H 0.5565 0.26371 0.89567 0.0
H2304 H 0.56714 0.30222 0.84804 0.0
H2305 H 0.55997 0.29197 0.86631 0.0
H2306 H 0.57989 0.3019 0.90247 0.0
C2307 C 0.56935 0.26527 0.92926 0.0
C2308 C 0.56167 0.27201 0.89723 0.0
C2309 C 0.56575 0.25785 0.93903 0.0
C2310 C 0.57224 0.30335 0.85646 0.0
C2311 C 0.56828 0.29727 0.86695 0.0
C2312 C 0.57508 0.29345 0.90068 0.0
C2313 C 0.56111 0.26805 0.9198 0.0
C2314 C 0.56505 0.27546 0.90911 0.0
C2315 C 0.57511 0.29778 0.87789 0.0
C2316 C 0.57167 0.29008 0.88871 0.0
H2317 H 0.53616 0.25286 0.93057 0.0
H2318 H 0.5425 0.26561 0.91345 0.0
H2319 H 0.57486 0.28898 0.91972 0.0
H2320 H 0.59754 0.31714 0.86804 0.0
H2321 H 0.59125 0.30599 0.88618 0.0
C2322 C 0.02141 0.28578 0.15145 0.0
C2323 C 0.02685 0.29024 0.14071 0.0
C2324 C 0.02851 0.28346 0.16187 0.0
C2325 C 0.04589 0.27636 0.1826 0.0
H2326 H 0.07137 0.30047 0.18761 0.0
C2327 C 0.08014 0.27788 0.2241 0.0
C2328 C 0.082 0.28958 0.22917 0.0
C2329 C 0.073 0.2764 0.21353 0.0
C2330 C 0.06428 0.29367 0.18637 0.0
H2331 H 0.04413 0.29477 0.13216 0.0
H2332 H 0.05653 0.29027 0.15003 0.0
H2333 H 0.0605 0.29988 0.16837 0.0
H2334 H 0.07713 0.30876 0.22741 0.0
H2335 H 0.06487 0.30616 0.20911 0.0
H2336 H 0.04987 0.27021 0.20085 0.0
C2337 C 0.04673 0.28902 0.15066 0.0
C2338 C 0.05806 0.29327 0.17526 0.0
C2339 C 0.03963 0.29152 0.14035 0.0
C2340 C 0.07607 0.29963 0.22374 0.0
C2341 C 0.06905 0.29816 0.2132 0.0
C2342 C 0.05227 0.27666 0.19374 0.0
C2343 C 0.04125 0.2854 0.16173 0.0
C2344 C 0.0486 0.2848 0.17325 0.0
C2345 C 0.06768 0.2866 0.20779 0.0
C2346 C 0.06135 0.28551 0.19581 0.0
H2347 H 0.01158 0.28473 0.15204 0.0
H2348 H 0.02391 0.28078 0.17019 0.0
H2349 H 0.03882 0.26956 0.18135 0.0
H2350 H 0.08453 0.26993 0.22804 0.0
H2351 H 0.07209 0.26738 0.20956 0.0
C2352 C 0.14617 0.10703 0.32745 0.0
C2353 C 0.13658 0.10205 0.3205 0.0
C2354 C 0.15616 0.09983 0.33086 0.0
C2355 C 0.17478 0.08189 0.34093 0.0
H2356 H 0.18467 0.05696 0.31778 0.0
C2357 C 0.20948 0.0438 0.35229 0.0
C2358 C 0.21636 0.03854 0.34278 0.0
C2359 C 0.20108 0.05311 0.34988 0.0
C2360 C 0.18221 0.06401 0.32428 0.0
H2361 H 0.12957 0.08541 0.31234 0.0
H2362 H 0.14667 0.0727 0.31876 0.0
H2363 H 0.16684 0.06933 0.31361 0.0
H2364 H 0.22067 0.03985 0.32348 0.0
H2365 H 0.20629 0.05637 0.31934 0.0
H2366 H 0.19033 0.0766 0.35159 0.0
C2367 C 0.14677 0.0823 0.32117 0.0
C2368 C 0.17181 0.071 0.32195 0.0
C2369 C 0.13688 0.08955 0.31758 0.0
C2370 C 0.2154 0.04356 0.33099 0.0
C2371 C 0.20707 0.05297 0.3286 0.0
C2372 C 0.18525 0.07491 0.34327 0.0
C2373 C 0.15673 0.08741 0.32756 0.0
C2374 C 0.16786 0.07998 0.33025 0.0
C2375 C 0.19944 0.0575 0.33792 0.0
C2376 C 0.18904 0.0658 0.33501 0.0
H2377 H 0.14628 0.11666 0.32976 0.0
H2378 H 0.16366 0.10416 0.33563 0.0
H2379 H 0.17201 0.08863 0.34763 0.0
H2380 H 0.20999 0.04022 0.3615 0.0
H2381 H 0.19536 0.05631 0.35729 0.0
C2382 C 0.3155 0.93445 0.56721 0.0
C2383 C 0.3169 0.94525 0.5604 0.0
C2384 C 0.31002 0.92412 0.56193 0.0
C2385 C 0.29199 0.91386 0.53474 0.0
H2386 H 0.30804 0.88273 0.54037 0.0
C2387 C 0.28707 0.87427 0.50133 0.0
C2388 C 0.28394 0.8627 0.50594 0.0
C2389 C 0.29051 0.8837 0.50914 0.0
C2390 C 0.30341 0.89135 0.53882 0.0
H2391 H 0.31249 0.95398 0.54314 0.0
H2392 H 0.30324 0.93618 0.53402 0.0
H2393 H 0.31436 0.90077 0.55206 0.0
H2394 H 0.28233 0.85183 0.5224 0.0
H2395 H 0.28889 0.8684 0.53619 0.0
H2396 H 0.2813 0.90456 0.52129 0.0
C2397 C 0.30632 0.93552 0.5434 0.0
C2398 C 0.30698 0.90168 0.54553 0.0
C2399 C 0.31171 0.9458 0.54865 0.0
C2400 C 0.28458 0.86069 0.51861 0.0
C2401 C 0.28835 0.87015 0.52648 0.0
C2402 C 0.28851 0.90361 0.52802 0.0
C2403 C 0.30576 0.9244 0.5498 0.0
C2404 C 0.30138 0.91312 0.54348 0.0
C2405 C 0.2911 0.88182 0.5218 0.0
C2406 C 0.29426 0.89228 0.52985 0.0
H2407 H 0.31934 0.93371 0.5763 0.0
H2408 H 0.30948 0.91579 0.56721 0.0
H2409 H 0.2873 0.9224 0.53305 0.0
H2410 H 0.28664 0.87616 0.49162 0.0
H2411 H 0.29275 0.89252 0.50524 0.0
C2412 C 0.37395 0.05975 0.82437 0.0
C2413 C 0.37241 0.06794 0.83418 0.0
C2414 C 0.38267 0.05042 0.82492 0.0
C2415 C 0.4121 0.04306 0.83891 0.0
H2416 H 0.40619 0.01081 0.8254 0.0
C2417 C 0.43961 0.99454 0.82856 0.0
C2418 C 0.45002 -0.00063 0.82277 0.0
C2419 C 0.42991 0.00223 0.832 0.0
C2420 C 0.40797 0.0197 0.82938 0.0
H2421 H 0.3787 0.07249 0.8524 0.0
H2422 H 0.3941 0.0562 0.85329 0.0
H2423 H 0.38922 0.02517 0.82766 0.0
H2424 H 0.45859 0.01616 0.8166 0.0
H2425 H 0.44186 0.02942 0.8227 0.0
H2426 H 0.4309 0.03774 0.8403 0.0
C2427 C 0.38849 0.05705 0.84518 0.0
C2428 C 0.39826 0.02797 0.83058 0.0
C2429 C 0.37961 0.06632 0.8447 0.0
C2430 C 0.4507 0.01209 0.82099 0.0
C2431 C 0.44112 0.01974 0.82455 0.0
C2432 C 0.42182 0.03484 0.83761 0.0
C2433 C 0.3902 0.04907 0.83522 0.0
C2434 C 0.40024 0.03982 0.83517 0.0
C2435 C 0.4305 0.01492 0.82991 0.0
C2436 C 0.41993 0.02312 0.83262 0.0
H2437 H 0.36853 0.06067 0.81613 0.0
H2438 H 0.38381 0.04453 0.81705 0.0
H2439 H 0.41397 0.05214 0.84239 0.0
H2440 H 0.43876 0.98479 0.83003 0.0
H2441 H 0.42189 0.99823 0.8362 0.0
C2442 C 0.33346 0.21286 0.04531 0.0
C2443 C 0.34497 0.21398 0.03973 0.0
C2444 C 0.33158 0.20431 0.05458 0.0
C2445 C 0.3467 0.18203 0.07551 0.0
H2446 H 0.31675 0.16397 0.0699 0.0
C2447 C 0.31936 0.13478 0.09087 0.0
C2448 C 0.32153 0.13502 0.10351 0.0
C2449 C 0.32375 0.14413 0.08337 0.0
C2450 C 0.32524 0.16878 0.07151 0.0
H2451 H 0.36379 0.20768 0.04027 0.0
H2452 H 0.36043 0.19262 0.0563 0.0
H2453 H 0.32154 0.18152 0.05721 0.0
H2454 H 0.33048 0.14501 0.11812 0.0
H2455 H 0.33776 0.16152 0.10515 0.0
H2456 H 0.3507 0.16887 0.08946 0.0
C2457 C 0.35288 0.19841 0.05356 0.0
C2458 C 0.32783 0.17903 0.06442 0.0
C2459 C 0.35479 0.20705 0.04434 0.0
C2460 C 0.32867 0.14453 0.1084 0.0
C2461 C 0.3329 0.15399 0.10094 0.0
C2462 C 0.34416 0.17165 0.08257 0.0
C2463 C 0.34113 0.19658 0.05842 0.0
C2464 C 0.3385 0.18587 0.06638 0.0
C2465 C 0.33023 0.15409 0.08837 0.0
C2466 C 0.33336 0.16489 0.08066 0.0
H2467 H 0.32574 0.21818 0.04212 0.0
H2468 H 0.32249 0.20337 0.05838 0.0
H2469 H 0.35504 0.18708 0.07723 0.0
H2470 H 0.31404 0.12749 0.0868 0.0
H2471 H 0.32181 0.14368 0.07368 0.0
C2472 C 0.20907 0.0928 0.29545 0.0
C2473 C 0.21643 0.09563 0.28529 0.0
C2474 C 0.19934 0.08461 0.29441 0.0
C2475 C 0.18728 0.05922 0.27579 0.0
H2476 H 0.15768 0.06626 0.29387 0.0
C2477 C 0.1363 0.03748 0.28882 0.0
C2478 C 0.13957 0.0251 0.28951 0.0
C2479 C 0.14501 0.04636 0.28591 0.0
C2480 C 0.16575 0.06412 0.28859 0.0
H2481 H 0.21923 0.09189 0.26602 0.0
H2482 H 0.20213 0.07759 0.26421 0.0
H2483 H 0.17394 0.08122 0.29332 0.0
H2484 H 0.15443 0.01221 0.2874 0.0
H2485 H 0.16983 0.02768 0.28304 0.0
H2486 H 0.17903 0.04217 0.27091 0.0
C2487 C 0.20401 0.08171 0.27301 0.0
C2488 C 0.17519 0.07271 0.28842 0.0
C2489 C 0.21378 0.08996 0.27404 0.0
C2490 C 0.15165 0.02171 0.28686 0.0
C2491 C 0.16047 0.03062 0.28427 0.0
C2492 C 0.17779 0.0506 0.27593 0.0
C2493 C 0.19663 0.07899 0.28318 0.0
C2494 C 0.1862 0.07026 0.28228 0.0
C2495 C 0.15734 0.04314 0.28398 0.0
C2496 C 0.16698 0.05279 0.2826 0.0
H2497 H 0.21081 0.09688 0.3043 0.0
H2498 H 0.19402 0.08255 0.3025 0.0
H2499 H 0.19562 0.05704 0.27092 0.0
H2500 H 0.12698 0.04032 0.29064 0.0
H2501 H 0.14205 0.05578 0.28538 0.0
C2502 C 0.25416 0.93046 0.54038 0.0
C2503 C 0.2496 0.93809 0.54962 0.0
C2504 C 0.26201 0.92078 0.54324 0.0
C2505 C 0.27088 0.89645 0.55272 0.0
H2506 H 0.29614 0.89853 0.57748 0.0
C2507 C 0.29428 0.85355 0.57197 0.0
C2508 C 0.30653 0.85411 0.57587 0.0
C2509 C 0.28814 0.86401 0.56812 0.0
C2510 C 0.28922 0.89781 0.57045 0.0
H2511 H 0.25029 0.942 0.56905 0.0
H2512 H 0.26413 0.92526 0.574 0.0
H2513 H 0.28434 0.91671 0.57218 0.0
H2514 H 0.32214 0.86612 0.57801 0.0
H2515 H 0.31151 0.88444 0.57068 0.0
H2516 H 0.27572 0.87769 0.55086 0.0
C2517 C 0.2616 0.92668 0.56454 0.0
C2518 C 0.28233 0.90821 0.56753 0.0
C2519 C 0.25362 0.93625 0.5617 0.0
C2520 C 0.31271 0.86535 0.57508 0.0
C2521 C 0.30656 0.87588 0.57103 0.0
C2522 C 0.27773 0.88609 0.55565 0.0
C2523 C 0.26567 0.91863 0.55538 0.0
C2524 C 0.27312 0.90767 0.55856 0.0
C2525 C 0.29408 0.87538 0.5678 0.0
C2526 C 0.28705 0.88661 0.56451 0.0
H2527 H 0.25123 0.93157 0.53099 0.0
H2528 H 0.265 0.91485 0.53592 0.0
H2529 H 0.26372 0.8956 0.54594 0.0
H2530 H 0.28915 0.8451 0.57247 0.0
H2531 H 0.27854 0.86321 0.56589 0.0
C2532 C 0.45941 0.06287 0.80948 0.0
C2533 C 0.46178 0.07389 0.80329 0.0
C2534 C 0.44952 0.05549 0.80613 0.0
C2535 C 0.42409 0.04504 0.80219 0.0
H2536 H 0.41512 0.04164 0.7681 0.0
C2537 C 0.3801 0.0195 0.7869 0.0
C2538 C 0.38081 0.01236 0.77622 0.0
C2539 C 0.38977 0.0272 0.79029 0.0
C2540 C 0.41754 0.04238 0.77766 0.0
H2541 H 0.45554 0.08571 0.78865 0.0
H2542 H 0.43819 0.07296 0.78297 0.0
H2543 H 0.43258 0.05419 0.77366 0.0
H2544 H 0.39246 0.00771 0.76083 0.0
H2545 H 0.40925 0.02088 0.76683 0.0
H2546 H 0.40925 0.03291 0.80612 0.0
C2547 C 0.44411 0.0699 0.79028 0.0
C2548 C 0.42749 0.04974 0.78088 0.0
C2549 C 0.45407 0.07725 0.79357 0.0
C2550 C 0.39147 0.01312 0.76907 0.0
C2551 C 0.40113 0.02077 0.77248 0.0
C2552 C 0.41416 0.03762 0.79896 0.0
C2553 C 0.44165 0.05894 0.79657 0.0
C2554 C 0.43094 0.05116 0.79318 0.0
C2555 C 0.40042 0.02795 0.78311 0.0
C2556 C 0.41078 0.03613 0.78664 0.0
H2557 H 0.46518 0.05993 0.81696 0.0
H2558 H 0.4481 0.04702 0.81102 0.0
H2559 H 0.42633 0.04603 0.81177 0.0
H2560 H 0.37204 0.01919 0.79265 0.0
H2561 H 0.38881 0.03268 0.79847 0.0
C2562 C 0.27561 0.21887 0.08875 0.0
C2563 C 0.28614 0.22628 0.08858 0.0
C2564 C 0.27448 0.20893 0.08071 0.0
C2565 C 0.29404 0.1876 0.06381 0.0
H2566 H 0.2649 0.17855 0.04575 0.0
C2567 C 0.28204 0.1535 0.02157 0.0
C2568 C 0.28894 0.1433 0.02531 0.0
C2569 C 0.27976 0.16317 0.02968 0.0
C2570 C 0.27309 0.18099 0.05075 0.0
H2571 H 0.30339 0.22936 0.07923 0.0
H2572 H 0.30138 0.21219 0.06536 0.0
H2573 H 0.26475 0.19691 0.05875 0.0
H2574 H 0.29801 0.13487 0.04081 0.0
H2575 H 0.29397 0.15158 0.05487 0.0
H2576 H 0.30242 0.17193 0.05573 0.0
C2577 C 0.2941 0.21391 0.07185 0.0
C2578 C 0.27298 0.19143 0.05824 0.0
C2579 C 0.29522 0.2238 0.07982 0.0
C2580 C 0.29288 0.14268 0.03752 0.0
C2581 C 0.29056 0.15228 0.04561 0.0
C2582 C 0.2941 0.1772 0.05645 0.0
C2583 C 0.28387 0.20617 0.07238 0.0
C2584 C 0.28353 0.19491 0.06474 0.0
C2585 C 0.28432 0.16281 0.0417 0.0
C2586 C 0.28369 0.17375 0.0498 0.0
H2587 H 0.26841 0.2205 0.09535 0.0
H2588 H 0.2665 0.20311 0.08134 0.0
H2589 H 0.30226 0.18991 0.06882 0.0
H2590 H 0.27882 0.15425 0.01224 0.0
H2591 H 0.27496 0.17117 0.02637 0.0
C2592 C 0.82126 0.45129 0.01145 0.0
C2593 C 0.82225 0.45027 -0.00132 0.0
C2594 C 0.82444 0.44153 0.01904 0.0
C2595 C 0.83922 0.41072 0.02021 0.0
H2596 H 0.81495 0.40531 0.04545 0.0
C2597 C 0.84107 0.3724 0.05792 0.0
C2598 C 0.82993 0.36631 0.06006 0.0
C2599 C 0.8416 0.38236 0.04984 0.0
C2600 C 0.8218 0.40666 0.03843 0.0
H2601 H 0.8281 0.43842 0.98393 0.0
H2602 H 0.83345 0.42123 0.99719 0.0
H2603 H 0.81398 0.42367 0.0331 0.0
H2604 H 0.81079 0.36558 0.05474 0.0
H2605 H 0.81176 0.38285 0.04088 0.0
H2606 H 0.84702 0.39352 0.02575 0.0
C2607 C 0.83034 0.42966 0.00135 0.0
C2608 C 0.82131 0.41726 0.03138 0.0
C2609 C 0.82725 0.43951 0.99373 0.0
C2610 C 0.81952 0.37007 0.05348 0.0
C2611 C 0.82004 0.38002 0.04554 0.0
C2612 C 0.83983 0.40012 0.02743 0.0
C2613 C 0.82858 0.43041 0.01408 0.0
C2614 C 0.82988 0.4194 0.02206 0.0
C2615 C 0.831 0.38648 0.04385 0.0
C2616 C 0.83098 0.39791 0.03649 0.0
H2617 H 0.81761 0.45951 0.0156 0.0
H2618 H 0.82328 0.4426 0.02881 0.0
H2619 H 0.84605 0.41211 0.01319 0.0
H2620 H 0.84927 0.36975 0.06279 0.0
H2621 H 0.85018 0.38718 0.04871 0.0
C2622 C 0.86524 0.51924 0.27382 0.0
C2623 C 0.85816 0.51417 0.28325 0.0
C2624 C 0.87542 0.52652 0.27657 0.0
C2625 C 0.89057 0.54421 0.30124 0.0
H2626 H 0.92043 0.53494 0.28458 0.0
C2627 C 0.93624 0.56907 0.31068 0.0
C2628 C 0.94636 0.56139 0.31264 0.0
C2629 C 0.92537 0.56435 0.3058 0.0
C2630 C 0.91217 0.5377 0.28928 0.0
H2631 H 0.85569 0.51346 0.30291 0.0
H2632 H 0.87328 0.52624 0.30765 0.0
H2633 H 0.90115 0.52549 0.27869 0.0
H2634 H 0.95327 0.54296 0.31024 0.0
H2635 H 0.93447 0.53483 0.3016 0.0
H2636 H 0.90162 0.55634 0.31191 0.0
C2637 C 0.87106 0.52455 0.29815 0.0
C2638 C 0.9011 0.53234 0.28584 0.0
C2639 C 0.86101 0.51717 0.29543 0.0
C2640 C 0.94563 0.54912 0.30887 0.0
C2641 C 0.93484 0.54445 0.30388 0.0
C2642 C 0.90163 0.54973 0.30455 0.0
C2643 C 0.8786 0.52901 0.28878 0.0
C2644 C 0.89018 0.53545 0.29185 0.0
C2645 C 0.92445 0.55191 0.30262 0.0
C2646 C 0.91259 0.54651 0.29864 0.0
H2647 H 0.86331 0.51708 0.26436 0.0
H2648 H 0.88098 0.52995 0.26914 0.0
H2649 H 0.88231 0.54683 0.30602 0.0
H2650 H 0.93648 0.57854 0.31357 0.0
H2651 H 0.91759 0.57039 0.30479 0.0
C2652 C 0.82752 0.66486 0.52372 0.0
C2653 C 0.83398 0.65657 0.5311 0.0
C2654 C 0.8201 0.67384 0.52899 0.0
C2655 C 0.80305 0.68111 0.55715 0.0
H2656 H 0.80434 0.7145 0.54535 0.0
C2657 C 0.78166 0.72096 0.58379 0.0
C2658 C 0.7754 0.73004 0.57726 0.0
C2659 C 0.78816 0.71186 0.57766 0.0
C2660 C 0.80376 0.70519 0.54865 0.0
H2661 H 0.8375 0.65103 0.5498 0.0
H2662 H 0.8243 0.66649 0.55897 0.0
H2663 H 0.8171 0.69884 0.53578 0.0
H2664 H 0.77118 0.73702 0.55927 0.0
H2665 H 0.7831 0.72138 0.54844 0.0
H2666 H 0.7897 0.68737 0.56997 0.0
C2667 C 0.82503 0.66611 0.54911 0.0
C2668 C 0.81108 0.69623 0.54318 0.0
C2669 C 0.83264 0.65728 0.54386 0.0
C2670 C 0.77579 0.72995 0.56446 0.0
C2671 C 0.78261 0.72102 0.55829 0.0
C2672 C 0.79569 0.69003 0.56256 0.0
C2673 C 0.81873 0.67456 0.54175 0.0
C2674 C 0.81084 0.68408 0.54739 0.0
C2675 C 0.78877 0.71179 0.56483 0.0
C2676 C 0.79604 0.70221 0.55847 0.0
H2677 H 0.82844 0.66462 0.51387 0.0
H2678 H 0.81542 0.68019 0.52306 0.0
H2679 H 0.80256 0.67183 0.56056 0.0
H2680 H 0.78155 0.72093 0.5937 0.0
H2681 H 0.79298 0.70507 0.583 0.0
C2682 C 0.92102 0.55424 0.24058 0.0
C2683 C 0.93216 0.55006 0.24537 0.0
C2684 C 0.91167 0.5581 0.24836 0.0
C2685 C 0.90491 0.56984 0.27901 0.0
H2686 H 0.87275 0.55624 0.27293 0.0
C2687 C 0.8638 0.58008 0.31081 0.0
C2688 C 0.85288 0.58318 0.30478 0.0
C2689 C 0.8736 0.57501 0.30428 0.0
C2690 C 0.88163 0.56024 0.27469 0.0
H2691 H 0.94259 0.54722 0.26194 0.0
H2692 H 0.92648 0.55481 0.27557 0.0
H2693 H 0.88984 0.55035 0.25994 0.0
H2694 H 0.84343 0.5827 0.28736 0.0
H2695 H 0.86037 0.57395 0.27607 0.0
H2696 H 0.89665 0.57989 0.29365 0.0
C2697 C 0.92479 0.55458 0.26583 0.0
C2698 C 0.89142 0.55685 0.26725 0.0
C2699 C 0.934 0.55027 0.25806 0.0
C2700 C 0.85173 0.58046 0.29228 0.0
C2701 C 0.86145 0.57537 0.2858 0.0
C2702 C 0.89507 0.57331 0.28643 0.0
C2703 C 0.9134 0.55819 0.26108 0.0
C2704 C 0.90315 0.56167 0.26927 0.0
C2705 C 0.87262 0.57286 0.29163 0.0
C2706 C 0.88328 0.56861 0.2843 0.0
H2707 H 0.9194 0.55418 0.23081 0.0
H2708 H 0.90307 0.56104 0.24441 0.0
H2709 H 0.91385 0.57374 0.28073 0.0
H2710 H 0.865 0.58212 0.32042 0.0
H2711 H 0.88203 0.573 0.30908 0.0
C2712 C 0.71746 0.49412 0.79495 0.0
C2713 C 0.72916 0.49877 0.7974 0.0
C2714 C 0.70768 0.50194 0.79266 0.0
C2715 C 0.70061 0.5319 0.78008 0.0
H2716 H 0.66802 0.524 0.79149 0.0
C2717 C 0.65772 0.55863 0.76357 0.0
C2718 C 0.64768 0.55131 0.76033 0.0
C2719 C 0.6677 0.55354 0.76982 0.0
C2720 C 0.67704 0.52641 0.78824 0.0
H2721 H 0.73982 0.51527 0.79964 0.0
H2722 H 0.72256 0.52917 0.79539 0.0
H2723 H 0.68554 0.51327 0.79995 0.0
H2724 H 0.63994 0.53313 0.76158 0.0
H2725 H 0.65709 0.52437 0.77268 0.0
H2726 H 0.69202 0.5448 0.7681 0.0
C2727 C 0.72101 0.51939 0.79536 0.0
C2728 C 0.6871 0.52022 0.79309 0.0
C2729 C 0.73084 0.51148 0.79788 0.0
C2730 C 0.64755 0.53901 0.76398 0.0
C2731 C 0.65738 0.534 0.7704 0.0
C2732 C 0.69051 0.53815 0.77526 0.0
C2733 C 0.70934 0.51466 0.7926 0.0
C2734 C 0.69898 0.52267 0.78887 0.0
C2735 C 0.66771 0.54112 0.77322 0.0
C2736 C 0.67857 0.53536 0.77915 0.0
H2737 H 0.71593 0.48434 0.79451 0.0
H2738 H 0.6989 0.49796 0.7904 0.0
H2739 H 0.70963 0.53392 0.77654 0.0
H2740 H 0.65813 0.56811 0.76074 0.0
H2741 H 0.67549 0.55929 0.77177 0.0
C2742 C 0.79695 0.47143 0.05766 0.0
C2743 C 0.79471 0.4719 0.0703 0.0
C2744 C 0.79218 0.46194 0.05054 0.0
C2745 C 0.77076 0.4351 0.05119 0.0
H2746 H 0.79308 0.42256 0.02673 0.0
C2747 C 0.76063 0.39197 0.02146 0.0
C2748 C 0.7705 0.38386 0.01986 0.0
C2749 C 0.76241 0.40342 0.02695 0.0
C2750 C 0.78681 0.42589 0.03362 0.0
H2751 H 0.78527 0.46301 0.08527 0.0
H2752 H 0.77734 0.44626 0.073 0.0
H2753 H 0.79809 0.4413 0.03751 0.0
H2754 H 0.78996 0.38143 0.0231 0.0
H2755 H 0.79298 0.40118 0.03267 0.0
H2756 H 0.75985 0.4192 0.04766 0.0
C2757 C 0.78252 0.45336 0.06846 0.0
C2758 C 0.78955 0.43679 0.03967 0.0
C2759 C 0.78712 0.46297 0.07554 0.0
C2760 C 0.78213 0.38743 0.02405 0.0
C2761 C 0.7839 0.39883 0.02949 0.0
C2762 C 0.7681 0.42409 0.04521 0.0
C2763 C 0.78523 0.45253 0.05591 0.0
C2764 C 0.78167 0.44148 0.0487 0.0
C2765 C 0.77411 0.40702 0.03092 0.0
C2766 C 0.77624 0.41923 0.03654 0.0
H2767 H 0.80264 0.47826 0.05331 0.0
H2768 H 0.79421 0.46186 0.04086 0.0
H2769 H 0.76433 0.43851 0.05789 0.0
H2770 H 0.75154 0.38954 0.01836 0.0
H2771 H 0.75469 0.40954 0.02788 0.0
C2772 C 0.77294 0.64939 0.55013 0.0
C2773 C 0.76039 0.64733 0.54832 0.0
C2774 C 0.77845 0.66008 0.54562 0.0
C2775 C 0.77127 0.69179 0.53766 0.0
H2776 H 0.79817 0.69051 0.51469 0.0
C2777 C 0.78254 0.73149 0.50525 0.0
C2778 C 0.7947 0.73362 0.50169 0.0
C2779 C 0.77956 0.72165 0.51277 0.0
C2780 C 0.79086 0.69107 0.52132 0.0
H2781 H 0.74372 0.65491 0.54072 0.0
H2782 H 0.75318 0.67364 0.53337 0.0
H2783 H 0.79117 0.6717 0.52463 0.0
H2784 H 0.81339 0.72745 0.50382 0.0
H2785 H 0.80821 0.71023 0.51722 0.0
H2786 H 0.77061 0.71097 0.53419 0.0
C2787 C 0.75882 0.66698 0.53804 0.0
C2788 C 0.78683 0.68029 0.52696 0.0
C2789 C 0.75343 0.65621 0.54219 0.0
C2790 C 0.80395 0.72608 0.50646 0.0
C2791 C 0.80095 0.71613 0.514 0.0
C2792 C 0.77532 0.70252 0.53209 0.0
C2793 C 0.77137 0.66904 0.53969 0.0
C2794 C 0.77684 0.68053 0.535 0.0
C2795 C 0.78866 0.71362 0.51698 0.0
C2796 C 0.78511 0.70232 0.52376 0.0
H2797 H 0.7785 0.64264 0.55477 0.0
H2798 H 0.78817 0.66138 0.54686 0.0
H2799 H 0.76358 0.69224 0.54387 0.0
H2800 H 0.7752 0.73715 0.50177 0.0
H2801 H 0.77001 0.72 0.51473 0.0
C2802 C 0.65315 0.53231 0.82219 0.0
C2803 C 0.65537 0.53178 0.83482 0.0
C2804 C 0.66134 0.53841 0.81447 0.0
C2805 C 0.69376 0.54545 0.81219 0.0
H2806 H 0.68471 0.57023 0.78857 0.0
C2807 C 0.72954 0.5748 0.78732 0.0
C2808 C 0.72758 0.57784 0.77499 0.0
C2809 C 0.72058 0.56873 0.79403 0.0
C2810 C 0.68734 0.56315 0.79495 0.0
H2811 H 0.66771 0.53717 0.84932 0.0
H2812 H 0.68234 0.54721 0.83577 0.0
H2813 H 0.6689 0.56068 0.80121 0.0
H2814 H 0.71474 0.5766 0.75996 0.0
H2815 H 0.69898 0.56596 0.77175 0.0
H2816 H 0.7121 0.54763 0.80583 0.0
C2817 C 0.67419 0.54316 0.83186 0.0
C2818 C 0.67831 0.55776 0.80224 0.0
C2819 C 0.66581 0.53748 0.83961 0.0
C2820 C 0.71655 0.57433 0.76942 0.0
C2821 C 0.70749 0.56833 0.77621 0.0
C2822 C 0.70274 0.55068 0.8048 0.0
C2823 C 0.67212 0.54357 0.8192 0.0
C2824 C 0.68147 0.54897 0.81103 0.0
C2825 C 0.70937 0.56556 0.78864 0.0
C2826 C 0.69966 0.55964 0.79612 0.0
H2827 H 0.64508 0.52807 0.81833 0.0
H2828 H 0.6594 0.53882 0.80478 0.0
H2829 H 0.69643 0.53855 0.81877 0.0
H2830 H 0.73795 0.57734 0.79189 0.0
H2831 H 0.72231 0.56688 0.8036 0.0
C2832 C -0.00109 0.39812 0.2477 0.0
C2833 C 0.00533 0.39471 0.23713 0.0
C2834 C 0.99332 0.40957 0.24848 0.0
C2835 C 0.98295 0.43546 0.22924 0.0
H2836 H 0.98584 0.45425 0.25919 0.0
C2837 C 0.97901 0.48726 0.2302 0.0
C2838 C 0.9708 0.4925 0.23856 0.0
C2839 C 0.98199 0.47493 0.23092 0.0
C2840 C 0.98482 0.44901 0.25085 0.0
H2841 H 0.011 0.40054 0.21909 0.0
H2842 H 0.00155 0.42064 0.22051 0.0
H2843 H 0.99343 0.43321 0.25854 0.0
H2844 H 0.95957 0.48903 0.2545 0.0
H2845 H 0.96508 0.46728 0.25593 0.0
H2846 H 0.97486 0.45145 0.22143 0.0
C2847 C 0.00055 0.4144 0.22812 0.0
C2848 C 0.98914 0.43698 0.25046 0.0
C2849 C 0.00606 0.40292 0.22732 0.0
C2850 C 0.96591 0.48522 0.24793 0.0
C2851 C 0.96905 0.47282 0.24875 0.0
C2852 C 0.97878 0.44748 0.22961 0.0
C2853 C 0.99411 0.41786 0.2387 0.0
C2854 C 0.98849 0.43017 0.23955 0.0
C2855 C 0.97693 0.46757 0.24009 0.0
C2856 C 0.97992 0.45443 0.24033 0.0
H2857 H 0.99815 0.39192 0.25538 0.0
H2858 H 0.98831 0.4119 0.25669 0.0
H2859 H 0.98203 0.43037 0.2208 0.0
H2860 H 0.98296 0.49262 0.22287 0.0
H2861 H 0.98824 0.47111 0.22425 0.0
C2862 C 0.92576 0.83017 0.46299 0.0
C2863 C 0.93224 0.82939 0.47403 0.0
C2864 C 0.91317 0.82788 0.46278 0.0
C2865 C 0.88643 0.81987 0.48289 0.0
H2866 H 0.88029 0.79607 0.45735 0.0
C2867 C 0.85139 0.78041 0.48712 0.0
C2868 C 0.84332 0.77912 0.47724 0.0
C2869 C 0.86132 0.78844 0.4863 0.0
C2870 C 0.88182 0.80278 0.46447 0.0
H2871 H 0.9305 0.82737 0.49365 0.0
H2872 H 0.90883 0.82317 0.49331 0.0
H2873 H 0.89847 0.80875 0.45634 0.0
H2874 H 0.83945 0.78487 0.45866 0.0
H2875 H 0.85692 0.79858 0.45715 0.0
H2876 H 0.87004 0.81322 0.49134 0.0
C2877 C 0.91323 0.82552 0.48477 0.0
C2878 C 0.89218 0.81018 0.46384 0.0
C2879 C 0.92574 0.82787 0.48498 0.0
C2880 C 0.84552 0.7857 0.46644 0.0
C2881 C 0.85551 0.79354 0.46555 0.0
C2882 C 0.87616 0.8123 0.48362 0.0
C2883 C 0.90694 0.82472 0.4736 0.0
C2884 C 0.89478 0.81865 0.47317 0.0
C2885 C 0.86341 0.79511 0.47552 0.0
C2886 C 0.87391 0.80355 0.47452 0.0
H2887 H 0.93055 0.83139 0.45442 0.0
H2888 H 0.90852 0.82771 0.45405 0.0
H2889 H 0.88801 0.82642 0.49014 0.0
H2890 H 0.84984 0.77549 0.49557 0.0
H2891 H 0.86739 0.78942 0.49406 0.0
C2892 C 0.60278 0.61442 0.73804 0.0
C2893 C 0.61168 0.61004 0.7462 0.0
C2894 C 0.59913 0.62663 0.7384 0.0
C2895 C 0.59748 0.6532 0.75847 0.0
H2896 H 0.59706 0.67204 0.72845 0.0
C2897 C 0.59616 0.70542 0.75859 0.0
C2898 C 0.58968 0.7116 0.7494 0.0
C2899 C 0.59747 0.69278 0.7582 0.0
C2900 C 0.59689 0.66686 0.73688 0.0
H2901 H 0.62371 0.61492 0.76118 0.0
H2902 H 0.61722 0.63631 0.76188 0.0
H2903 H 0.60219 0.65034 0.7278 0.0
H2904 H 0.57924 0.70939 0.73271 0.0
H2905 H 0.58132 0.68712 0.73213 0.0
H2906 H 0.59214 0.66963 0.76757 0.0
C2907 C 0.61307 0.63026 0.75523 0.0
C2908 C 0.59989 0.65446 0.7365 0.0
C2909 C 0.61683 0.61806 0.75478 0.0
C2910 C 0.58431 0.70485 0.7399 0.0
C2911 C 0.58556 0.69213 0.73954 0.0
C2912 C 0.59436 0.66555 0.75883 0.0
C2913 C 0.60422 0.63464 0.74701 0.0
C2914 C 0.60041 0.64759 0.74732 0.0
C2915 C 0.59224 0.68597 0.74866 0.0
C2916 C 0.59426 0.67258 0.74807 0.0
H2917 H 0.59866 0.60844 0.73131 0.0
H2918 H 0.59223 0.62977 0.73203 0.0
H2919 H 0.59761 0.64803 0.7669 0.0
H2920 H 0.60047 0.71036 0.76601 0.0
H2921 H 0.60288 0.68839 0.76523 0.0
C2922 C 0.70873 0.35413 0.99597 0.0
C2923 C 0.7183 0.3463 0.99256 0.0
C2924 C 0.69662 0.35097 0.99342 0.0
C2925 C 0.67672 0.3338 0.97346 0.0
H2926 H 0.65496 0.33216 0.00136 0.0
C2927 C 0.6255 0.32139 0.968 0.0
C2928 C 0.61744 0.32857 0.97493 0.0
C2929 C 0.6381 0.32174 0.97034 0.0
C2930 C 0.66085 0.33268 0.99343 0.0
H2931 H 0.72285 0.32935 0.98335 0.0
H2932 H 0.70164 0.32403 0.97854 0.0
H2933 H 0.67639 0.33736 0.0044 0.0
H2934 H 0.61619 0.34146 0.98997 0.0
H2935 H 0.63788 0.34235 0.99377 0.0
H2936 H 0.66111 0.32974 0.96239 0.0
C2937 C 0.70353 0.33249 0.98333 0.0
C2938 C 0.67312 0.33563 0.99521 0.0
C2939 C 0.71562 0.33552 0.9861 0.0
C2940 C 0.62213 0.33577 0.98446 0.0
C2941 C 0.63463 0.3362 0.98672 0.0
C2942 C 0.66436 0.33108 0.97164 0.0
C2943 C 0.69393 0.34006 0.98719 0.0
C2944 C 0.68111 0.33639 0.98523 0.0
C2945 C 0.64283 0.32932 0.97962 0.0
C2946 C 0.65622 0.33071 0.98159 0.0
H2947 H 0.71056 0.36248 0.00098 0.0
H2948 H 0.68934 0.35698 0.9964 0.0
H2949 H 0.68276 0.33432 0.96564 0.0
H2950 H 0.62214 0.31575 0.96059 0.0
H2951 H 0.64414 0.31619 0.96479 0.0
C2952 C 0.98529 0.62483 0.34282 0.0
C2953 C 0.97738 0.62092 0.3335 0.0
C2954 C 0.98722 0.63724 0.34489 0.0
C2955 C 0.97421 0.6679 0.33874 0.0
H2956 H 0.00652 0.67847 0.34885 0.0
C2957 C 0.98954 0.71849 0.34177 0.0
C2958 C 0.99562 0.72189 0.35257 0.0
C2959 C 0.9868 0.70625 0.33948 0.0
C2960 C 0.99744 0.67561 0.34613 0.0
H2961 H 0.96529 0.6269 0.31901 0.0
H2962 H 0.96898 0.6487 0.32235 0.0
H2963 H 0.00297 0.65702 0.3441 0.0
H2964 H 0.00349 0.71525 0.36948 0.0
H2965 H -0.0011 0.69373 0.36534 0.0
H2966 H 0.96886 0.68668 0.34047 0.0
C2967 C 0.97349 0.64215 0.32824 0.0
C2968 C 0.99537 0.66333 0.34344 0.0
C2969 C 0.97143 0.62968 0.32626 0.0
C2970 C 0.99881 0.71286 0.36109 0.0
C2971 C 0.99623 0.70058 0.35871 0.0
C2972 C 0.97634 0.68024 0.34128 0.0
C2973 C 0.98143 0.64607 0.33759 0.0
C2974 C 0.9837 0.65928 0.33984 0.0
C2975 C 0.99025 0.69718 0.34786 0.0
C2976 C 0.98794 0.68416 0.3451 0.0
H2977 H 0.9899 0.6183 0.34866 0.0
H2978 H 0.99315 0.63988 0.35237 0.0
H2979 H 0.96507 0.66509 0.33617 0.0
H2980 H 0.98694 0.72529 0.33506 0.0
H2981 H 0.98225 0.70384 0.33102 0.0
C2982 C 0.70515 0.76499 0.59436 0.0
C2983 C 0.71095 0.75532 0.58821 0.0
C2984 C 0.69249 0.76527 0.59548 0.0
C2985 C 0.66376 0.75359 0.58301 0.0
H2986 H 0.65173 0.75919 0.61588 0.0
C2987 C 0.61377 0.74476 0.5971 0.0
C2988 C 0.60845 0.75243 0.60592 0.0
C2989 C 0.62606 0.74601 0.594 0.0
C2990 C 0.6549 0.75784 0.60661 0.0
H2991 H 0.70803 0.73859 0.578 0.0
H2992 H 0.6857 0.73912 0.57993 0.0
H2993 H 0.6736 0.75951 0.61199 0.0
H2994 H 0.61168 0.76775 0.61806 0.0
H2995 H 0.63313 0.77014 0.61245 0.0
H2996 H 0.64502 0.75197 0.57761 0.0
C2997 C 0.69104 0.74647 0.58386 0.0
C2998 C 0.66743 0.75797 0.60439 0.0
C2999 C 0.70379 0.74614 0.58279 0.0
C3000 C 0.61556 0.76166 0.61129 0.0
C3001 C 0.62786 0.76297 0.60813 0.0
C3002 C 0.65117 0.75356 0.58521 0.0
C3003 C 0.68532 0.75592 0.59043 0.0
C3004 C 0.67199 0.75581 0.59259 0.0
C3005 C 0.6333 0.75501 0.5996 0.0
C3006 C 0.64661 0.75564 0.59705 0.0
H3007 H 0.7104 0.77226 0.59857 0.0
H3008 H 0.68829 0.77276 0.60043 0.0
H3009 H 0.66705 0.75201 0.57381 0.0
H3010 H 0.60852 0.73754 0.59281 0.0
H3011 H 0.62998 0.73962 0.58753 0.0
C3012 C 0.61802 0.37204 0.84343 0.0
C3013 C 0.61807 0.36533 0.8325 0.0
C3014 C 0.62235 0.38401 0.84366 0.0
C3015 C 0.62676 0.4103 0.8234 0.0
H3016 H 0.64144 0.42418 0.85254 0.0
C3017 C 0.63778 0.46194 0.82969 0.0
C3018 C 0.63253 0.46684 0.84034 0.0
C3019 C 0.63799 0.4493 0.82785 0.0
C3020 C 0.63741 0.42039 0.84432 0.0
H3021 H 0.62321 0.36562 0.81337 0.0
H3022 H 0.631 0.38653 0.81381 0.0
H3023 H 0.63909 0.40207 0.85085 0.0
H3024 H 0.62347 0.46247 0.85741 0.0
H3025 H 0.62398 0.44042 0.85424 0.0
H3026 H 0.62498 0.42872 0.81699 0.0
C3027 C 0.62738 0.38261 0.82215 0.0
C3028 C 0.63602 0.40776 0.84337 0.0
C3029 C 0.62297 0.37063 0.8219 0.0
C3030 C 0.62752 0.45894 0.84909 0.0
C3031 C 0.62791 0.44634 0.84734 0.0
C3032 C 0.62829 0.42294 0.82431 0.0
C3033 C 0.62692 0.38949 0.83299 0.0
C3034 C 0.63029 0.40261 0.83308 0.0
C3035 C 0.63317 0.44142 0.83673 0.0
C3036 C 0.63326 0.42807 0.83494 0.0
H3037 H 0.6143 0.36819 0.85175 0.0
H3038 H 0.62165 0.3891 0.85212 0.0
H3039 H 0.62221 0.40665 0.81541 0.0
H3040 H 0.64172 0.46785 0.82281 0.0
H3041 H 0.64207 0.44567 0.81959 0.0
C3042 C 0.95614 0.28668 0.12769 0.0
C3043 C 0.96185 0.28437 0.11643 0.0
C3044 C 0.94384 0.29012 0.12806 0.0
C3045 C 0.92402 0.30913 0.12177 0.0
H3046 H 0.89658 0.2943 0.10493 0.0
C3047 C 0.88214 0.3353 0.10211 0.0
C3048 C 0.87062 0.33016 0.10452 0.0
C3049 C 0.8928 0.3292 0.10572 0.0
C3050 C 0.90414 0.29849 0.10976 0.0
H3051 H 0.95903 0.28262 0.09693 0.0
H3052 H 0.93737 0.28806 0.09764 0.0
H3053 H 0.91562 0.28276 0.1074 0.0
H3054 H 0.86125 0.31489 0.11307 0.0
H3055 H 0.87984 0.30422 0.11909 0.0
H3056 H 0.91275 0.3251 0.12356 0.0
C3057 C 0.94242 0.28741 0.10613 0.0
C3058 C 0.91499 0.2919 0.11116 0.0
C3059 C 0.95479 0.28427 0.10573 0.0
C3060 C 0.86998 0.31909 0.11103 0.0
C3061 C 0.8806 0.31294 0.11445 0.0
C3062 C 0.91325 0.31581 0.12016 0.0
C3063 C 0.93703 0.29098 0.11721 0.0
C3064 C 0.92505 0.2972 0.11709 0.0
C3065 C 0.8921 0.3178 0.11162 0.0
C3066 C 0.90326 0.31058 0.11404 0.0
H3067 H 0.96143 0.287 0.13606 0.0
H3068 H 0.93983 0.2928 0.13671 0.0
H3069 H 0.93173 0.31347 0.12622 0.0
H3070 H 0.88291 0.3438 0.09711 0.0
H3071 H 0.9016 0.3331 0.1034 0.0
C3072 C 0.22782 0.96118 0.48444 0.0
C3073 C 0.22131 0.96772 0.49335 0.0
C3074 C 0.22592 0.96354 0.47205 0.0
C3075 C 0.21543 0.9877 0.45143 0.0
H3076 H 0.21449 0.96161 0.42744 0.0
C3077 C 0.20998 0.99816 0.4004 0.0
C3078 C 0.21837 0.99216 0.39277 0.0
C3079 C 0.20834 0.99429 0.41244 0.0
C3080 C 0.21477 0.96898 0.43404 0.0
H3081 H 0.20758 0.98173 0.49633 0.0
H3082 H 0.20426 0.98584 0.4747 0.0
H3083 H 0.21567 0.9566 0.44916 0.0
H3084 H 0.23122 0.97711 0.3915 0.0
H3085 H 0.22847 0.97045 0.41254 0.0
H3086 H 0.21485 9e-05 0.43637 0.0
C3087 C 0.2109 0.97896 0.47728 0.0
C3088 C 0.21546 0.96612 0.44645 0.0
C3089 C 0.21278 0.97658 0.48966 0.0
C3090 C 0.22468 0.9819 0.39719 0.0
C3091 C 0.22305 0.97804 0.40922 0.0
C3092 C 0.21476 0.99056 0.43904 0.0
C3093 C 0.2175 0.97251 0.46836 0.0
C3094 C 0.21596 0.97546 0.45525 0.0
C3095 C 0.21508 0.98437 0.41705 0.0
C3096 C 0.21458 0.98124 0.4302 0.0
H3097 H 0.23445 0.95428 0.48702 0.0
H3098 H 0.23126 0.95854 0.46538 0.0
H3099 H 0.21597 0.9951 0.45799 0.0
H3100 H 0.20495 0.00606 0.39719 0.0
H3101 H 0.202 -0.00077 0.41821 0.0
C3102 C 0.3494 0.95527 0.62504 0.0
C3103 C 0.35514 0.96279 0.61639 0.0
C3104 C 0.35255 0.95608 0.63738 0.0
C3105 C 0.36546 0.97831 0.65902 0.0
H3106 H 0.36427 0.95099 0.68155 0.0
C3107 C 0.37353 0.98451 0.71062 0.0
C3108 C 0.36466 0.97908 0.71814 0.0
C3109 C 0.37413 0.98158 0.69822 0.0
C3110 C 0.36462 0.9587 0.67534 0.0
H3111 H 0.36924 0.97646 0.61369 0.0
H3112 H 0.37494 0.97767 0.63517 0.0
H3113 H 0.36255 0.94726 0.6596 0.0
H3114 H 0.34971 0.96607 0.71867 0.0
H3115 H 0.35075 0.96099 0.69701 0.0
H3116 H 0.36735 0.98975 0.67474 0.0
C3117 C 0.36777 0.97139 0.6325 0.0
C3118 C 0.36362 0.95657 0.66279 0.0
C3119 C 0.36455 0.97065 0.62019 0.0
C3120 C 0.35662 0.97043 0.71309 0.0
C3121 C 0.35728 0.96745 0.70072 0.0
C3122 C 0.36653 0.98041 0.67153 0.0
C3123 C 0.36158 0.96437 0.64128 0.0
C3124 C 0.36383 0.96638 0.6545 0.0
C3125 C 0.36594 0.9731 0.69313 0.0
C3126 C 0.36593 0.97066 0.67983 0.0
H3127 H 0.34212 0.94912 0.62236 0.0
H3128 H 0.34751 0.95063 0.64391 0.0
H3129 H 0.36542 0.9861 0.65292 0.0
H3130 H 0.37988 0.99117 0.71426 0.0
H3131 H 0.38097 0.98599 0.69259 0.0
C3132 C 0.28119 0.13291 0.95445 0.0
C3133 C 0.27672 0.12225 0.96001 0.0
C3134 C 0.28549 0.13252 0.94243 0.0
C3135 C 0.29938 0.10897 0.92298 0.0
H3136 H 0.30438 0.13589 0.90057 0.0
C3137 C 0.33635 0.10606 0.88601 0.0
C3138 C 0.33305 0.11018 0.87433 0.0
C3139 C 0.32902 0.10881 0.89611 0.0
C3140 C 0.30301 0.12824 0.90669 0.0
H3141 H 0.27141 0.10346 0.95697 0.0
H3142 H 0.27799 0.10301 0.93571 0.0
H3143 H 0.28986 0.13811 0.91734 0.0
H3144 H 0.31982 0.12094 0.86416 0.0
H3145 H 0.30697 0.12548 0.88164 0.0
H3146 H 0.31225 0.09899 0.91226 0.0
C3147 C 0.27886 0.11148 0.94077 0.0
C3148 C 0.29472 0.12955 0.91635 0.0
C3149 C 0.27486 0.11178 0.95287 0.0
C3150 C 0.32263 0.1176 0.87305 0.0
C3151 C 0.31526 0.12027 0.88311 0.0
C3152 C 0.30755 0.10764 0.91332 0.0
C3153 C 0.28512 0.12153 0.93574 0.0
C3154 C 0.29285 0.11993 0.92467 0.0
C3155 C 0.31819 0.11565 0.89471 0.0
C3156 C 0.30958 0.11729 0.9051 0.0
H3157 H 0.28283 0.14107 0.95982 0.0
H3158 H 0.29019 0.14047 0.93889 0.0
H3159 H 0.29846 0.10145 0.92934 0.0
H3160 H 0.34437 0.10038 0.88729 0.0
H3161 H 0.3317 0.10534 0.90498 0.0
C3162 C 0.27908 0.13405 0.25302 0.0
C3163 C 0.26719 0.13012 0.25012 0.0
C3164 C 0.28794 0.13509 0.24394 0.0
C3165 C 0.30503 0.12427 0.22452 0.0
H3166 H 0.30036 0.13978 0.19302 0.0
C3167 C 0.32735 0.12858 0.17313 0.0
C3168 C 0.32585 0.11637 0.16941 0.0
C3169 C 0.32381 0.13218 0.18484 0.0
C3170 C 0.30192 0.13561 0.20187 0.0
H3171 H 0.25499 0.12502 0.23537 0.0
H3172 H 0.2705 0.12715 0.21936 0.0
H3173 H 0.28557 0.14337 0.20939 0.0
H3174 H 0.32124 0.09809 0.17543 0.0
H3175 H 0.31552 0.10431 0.19605 0.0
H3176 H 0.32091 0.11582 0.21671 0.0
C3177 C 0.27293 0.12931 0.22871 0.0
C3178 C 0.29341 0.13758 0.21115 0.0
C3179 C 0.26408 0.12807 0.23785 0.0
C3180 C 0.32246 0.10756 0.17808 0.0
C3181 C 0.31917 0.11113 0.18987 0.0
C3182 C 0.31342 0.12211 0.21515 0.0
C3183 C 0.28502 0.13244 0.23176 0.0
C3184 C 0.29476 0.13172 0.22246 0.0
C3185 C 0.31906 0.12356 0.19305 0.0
C3186 C 0.3118 0.12758 0.20368 0.0
H3187 H 0.28174 0.13572 0.26241 0.0
H3188 H 0.29718 0.1376 0.24647 0.0
H3189 H 0.3062 0.11958 0.23316 0.0
H3190 H 0.32989 0.13558 0.16662 0.0
H3191 H 0.32386 0.14181 0.18715 0.0
C3192 C 0.39705 0.22912 0.98173 0.0
C3193 C 0.39417 0.22298 0.99262 0.0
C3194 C 0.40899 0.22899 0.97724 0.0
C3195 C 0.43875 0.21317 0.97984 0.0
H3196 H 0.45204 0.24463 0.97034 0.0
C3197 C 0.49032 0.2225 0.97763 0.0
C3198 C 0.4948 0.22973 0.96804 0.0
C3199 C 0.47778 0.22103 0.9793 0.0
C3200 C 0.44842 0.23574 0.97276 0.0
H3201 H 0.40134 0.21159 0.00715 0.0
H3202 H 0.42222 0.21145 -0.00063 0.0
H3203 H 0.43044 0.24291 0.97546 0.0
H3204 H 0.48969 0.24102 0.95257 0.0
H3205 H 0.46769 0.23841 0.95547 0.0
H3206 H 0.4568 0.20606 0.97737 0.0
C3207 C 0.41525 0.21625 0.99423 0.0
C3208 C 0.43605 0.23475 0.97569 0.0
C3209 C 0.40332 0.21638 -0.00128 0.0
C3210 C 0.48649 0.23542 0.96008 0.0
C3211 C 0.47391 0.23396 0.96176 0.0
C3212 C 0.45112 0.21416 0.9769 0.0
C3213 C 0.41825 0.22272 0.98355 0.0
C3214 C 0.43113 0.22349 0.97944 0.0
C3215 C 0.46944 0.22676 0.9714 0.0
C3216 C 0.45613 0.22549 0.97352 0.0
H3217 H 0.39015 0.23424 0.97681 0.0
H3218 H 0.411 0.23392 0.9689 0.0
H3219 H 0.43517 0.20434 0.98251 0.0
H3220 H 0.49651 0.21801 0.98393 0.0
H3221 H 0.47462 0.21559 0.98693 0.0
C3222 C 0.10153 0.88273 0.33529 0.0
C3223 C 0.10561 0.87117 0.33152 0.0
C3224 C 0.10458 0.89316 0.32854 0.0
C3225 C 0.1247 0.90469 0.30347 0.0
H3226 H 0.09823 0.92783 0.29932 0.0
C3227 C 0.13024 0.95313 0.28331 0.0
C3228 C 0.11973 0.95895 0.27882 0.0
C3229 C 0.12965 0.94099 0.28727 0.0
C3230 C 0.10567 0.92135 0.30013 0.0
H3231 H 0.11664 0.86154 0.31812 0.0
H3232 H 0.12167 0.87956 0.30627 0.0
H3233 H 0.09534 0.91024 0.31236 0.0
H3234 H 0.10097 0.95632 0.27318 0.0
H3235 H 0.10017 0.93488 0.27915 0.0
H3236 H 0.13491 0.91572 0.29093 0.0
C3237 C 0.11627 0.88069 0.31448 0.0
C3238 C 0.10409 0.91138 0.30789 0.0
C3239 C 0.11331 0.87032 0.32127 0.0
C3240 C 0.10919 0.952 0.27663 0.0
C3241 C 0.10868 0.9398 0.28029 0.0
C3242 C 0.12625 0.91465 0.2956 0.0
C3243 C 0.11168 0.8922 0.31784 0.0
C3244 C 0.11361 0.90296 0.30975 0.0
C3245 C 0.11859 0.93446 0.28653 0.0
C3246 C 0.11676 0.92315 0.29387 0.0
H3247 H 0.09565 0.88369 0.34319 0.0
H3248 H 0.10112 0.90193 0.33155 0.0
H3249 H 0.13226 0.89842 0.30474 0.0
H3250 H 0.13844 0.95836 0.28521 0.0
H3251 H 0.13749 0.93721 0.29198 0.0
C3252 C 0.14564 0.7924 0.51324 0.0
C3253 C 0.13891 0.78842 0.50307 0.0
C3254 C 0.15819 0.79037 0.51389 0.0
C3255 C 0.18351 0.7877 0.49251 0.0
H3256 H 0.20256 0.78828 0.5224 0.0
C3257 C 0.23403 0.80084 0.49164 0.0
C3258 C 0.23698 0.81044 0.49966 0.0
C3259 C 0.22322 0.79426 0.4931 0.0
C3260 C 0.19736 0.78806 0.51398 0.0
H3261 H 0.13975 0.77809 0.48619 0.0
H3262 H 0.16176 0.77433 0.4874 0.0
H3263 H 0.18105 0.78231 0.5231 0.0
H3264 H 0.23128 0.82022 0.51591 0.0
H3265 H 0.21225 0.80878 0.5184 0.0
H3266 H 0.19967 0.79381 0.48345 0.0
C3267 C 0.15736 0.77928 0.49476 0.0
C3268 C 0.18506 0.78464 0.51436 0.0
C3269 C 0.14474 0.78135 0.4941 0.0
C3270 C 0.22923 0.81289 0.50958 0.0
C3271 C 0.21838 0.80629 0.51104 0.0
C3272 C 0.19581 0.79099 0.49212 0.0
C3273 C 0.1643 0.78426 0.50439 0.0
C3274 C 0.17786 0.7849 0.50369 0.0
C3275 C 0.21512 0.79714 0.50261 0.0
C3276 C 0.20275 0.79163 0.5029 0.0
H3277 H 0.14136 0.79776 0.52038 0.0
H3278 H 0.16318 0.79443 0.52141 0.0
H3279 H 0.17826 0.7882 0.48413 0.0
H3280 H 0.23989 0.79862 0.48398 0.0
H3281 H 0.22102 0.78716 0.48656 0.0
C3282 C 0.49075 0.85282 0.77556 0.0
C3283 C 0.48019 0.84574 0.77401 0.0
C3284 C 0.49066 0.86286 0.78348 0.0
C3285 C 0.47244 0.87689 0.80884 0.0
H3286 H 0.49126 0.90566 0.80043 0.0
C3287 C 0.46506 0.92677 0.82598 0.0
C3288 C 0.47571 0.93375 0.82754 0.0
C3289 C 0.46594 0.91447 0.82251 0.0
C3290 C 0.4861 0.89761 0.80301 0.0
H3291 H 0.46115 0.84377 0.77913 0.0
H3292 H 0.46079 0.86157 0.7924 0.0
H3293 H 0.49209 0.88786 0.78724 0.0
H3294 H 0.49548 0.93313 0.82838 0.0
H3295 H 0.49699 0.91168 0.82255 0.0
H3296 H 0.46597 0.88712 0.82431 0.0
C3297 C 0.4693 0.85918 0.78796 0.0
C3298 C 0.48659 0.88737 0.79545 0.0
C3299 C 0.46946 0.84904 0.78023 0.0
C3300 C 0.48714 0.92792 0.82717 0.0
C3301 C 0.48801 0.91569 0.82374 0.0
C3302 C 0.47179 0.88725 0.81631 0.0
C3303 C 0.47993 0.86614 0.78983 0.0
C3304 C 0.47973 0.87688 0.79821 0.0
C3305 C 0.47747 0.9091 0.82063 0.0
C3306 C 0.47863 0.8977 0.81344 0.0
H3307 H 0.49917 0.85038 0.77096 0.0
H3308 H 0.49907 0.86789 0.78479 0.0
H3309 H 0.4672 0.8689 0.8114 0.0
H3310 H 0.45615 0.9311 0.82608 0.0
H3311 H 0.45767 0.90955 0.82016 0.0
C3312 C 0.12913 0.17146 0.32814 0.0
C3313 C 0.11694 0.16742 0.32798 0.0
C3314 C 0.13192 0.18344 0.32476 0.0
C3315 C 0.11995 0.21393 0.31758 0.0
H3316 H 0.13722 0.2104 0.28677 0.0
C3317 C 0.11912 0.24049 0.26983 0.0
C3318 C 0.12179 0.25247 0.27361 0.0
C3319 C 0.12145 0.23064 0.27764 0.0
C3320 C 0.13254 0.21153 0.29541 0.0
H3321 H 0.09807 0.173 0.32588 0.0
H3322 H 0.10292 0.19409 0.32052 0.0
H3323 H 0.13589 0.19302 0.30079 0.0
H3324 H 0.12969 0.26344 0.28817 0.0
H3325 H 0.13346 0.24627 0.30179 0.0
H3326 H 0.1163 0.23234 0.31202 0.0
C3327 C 0.11031 0.18798 0.32299 0.0
C3328 C 0.13187 0.20167 0.30347 0.0
C3329 C 0.10752 0.17592 0.32608 0.0
C3330 C 0.12746 0.25433 0.285 0.0
C3331 C 0.1296 0.24453 0.29284 0.0
C3332 C 0.12084 0.22387 0.30963 0.0
C3333 C 0.12254 0.19158 0.32154 0.0
C3334 C 0.1253 0.2027 0.31446 0.0
C3335 C 0.12633 0.23266 0.28935 0.0
C3336 C 0.12685 0.22263 0.29834 0.0
H3337 H 0.13657 0.16506 0.32946 0.0
H3338 H 0.14141 0.18607 0.32374 0.0
H3339 H 0.11475 0.21488 0.32594 0.0
H3340 H 0.11476 0.23879 0.26111 0.0
H3341 H 0.11881 0.22152 0.2748 0.0
C3342 C 0.50227 0.14034 0.78429 0.0
C3343 C 0.49176 0.13323 0.78244 0.0
C3344 C 0.50198 0.1529 0.78222 0.0
C3345 C 0.47903 0.17641 0.78571 0.0
H3346 H 0.50714 0.19765 0.78201 0.0
C3347 C 0.47881 0.22546 0.80441 0.0
C3348 C 0.48897 0.22831 0.81174 0.0
C3349 C 0.47894 0.21517 0.79687 0.0
C3350 C 0.49919 0.19184 0.78301 0.0
H3351 H 0.47325 0.1333 0.77539 0.0
H3352 H 0.47277 0.1553 0.77158 0.0
H3353 H 0.5078 0.1769 0.77374 0.0
H3354 H 0.50735 0.22281 0.8167 0.0
H3355 H 0.50751 0.20469 0.80367 0.0
H3356 H 0.47062 0.19109 0.79544 0.0
C3357 C 0.48116 0.15121 0.77492 0.0
C3358 C 0.49955 0.17999 0.77825 0.0
C3359 C 0.48145 0.1386 0.777 0.0
C3360 C 0.49937 0.22082 0.81119 0.0
C3361 C 0.49951 0.21053 0.80362 0.0
C3362 C 0.47865 0.18825 0.79039 0.0
C3363 C 0.49116 0.15858 0.77824 0.0
C3364 C 0.48967 0.17196 0.78003 0.0
C3365 C 0.48924 0.20753 0.79649 0.0
C3366 C 0.48891 0.19591 0.78954 0.0
H3367 H 0.51041 0.1364 0.78834 0.0
H3368 H 0.50987 0.15824 0.7849 0.0
H3369 H 0.47131 0.17047 0.78744 0.0
H3370 H 0.47068 0.23112 0.80455 0.0
H3371 H 0.47092 0.21314 0.79142 0.0
C3372 C 0.25059 0.28036 0.13382 0.0
C3373 C 0.24852 0.26876 0.12864 0.0
C3374 C 0.24121 0.28899 0.13435 0.0
C3375 C 0.20842 0.29416 0.1334 0.0
H3376 H 0.21556 0.32221 0.11286 0.0
C3377 C 0.17732 0.32291 0.10149 0.0
C3378 C 0.16806 0.32631 0.10969 0.0
C3379 C 0.18893 0.31987 0.10583 0.0
C3380 C 0.21355 0.31457 0.11883 0.0
H3381 H 0.23478 0.25679 0.12088 0.0
H3382 H 0.21823 0.27183 0.12218 0.0
H3383 H 0.23182 0.30758 0.1178 0.0
H3384 H 0.16404 0.33072 0.12858 0.0
H3385 H 0.18423 0.32504 0.13619 0.0
H3386 H 0.19007 0.30094 0.13414 0.0
C3387 C 0.22719 0.27423 0.12565 0.0
C3388 C 0.2228 0.30622 0.12165 0.0
C3389 C 0.23665 0.26564 0.1249 0.0
C3390 C 0.17103 0.32819 0.12204 0.0
C3391 C 0.18255 0.32484 0.12643 0.0
C3392 C 0.19924 0.30266 0.13082 0.0
C3393 C 0.22953 0.2861 0.12997 0.0
C3394 C 0.2202 0.29577 0.12865 0.0
C3395 C 0.19132 0.31998 0.11844 0.0
C3396 C 0.20165 0.31274 0.12322 0.0
H3397 H 0.25963 0.28308 0.1368 0.0
H3398 H 0.24318 0.29808 0.13777 0.0
H3399 H 0.20623 0.28616 0.1388 0.0
H3400 H 0.17524 0.32138 0.09193 0.0
H3401 H 0.19557 0.31614 0.0995 0.0
C3402 C 0.36424 0.83048 0.62673 0.0
C3403 C 0.35948 0.83964 0.61912 0.0
C3404 C 0.37517 0.83237 0.63304 0.0
C3405 C 0.3983 0.85618 0.64119 0.0
H3406 H 0.42065 0.8287 0.63954 0.0
C3407 C 0.45055 0.86033 0.63902 0.0
C3408 C 0.4577 0.85167 0.64523 0.0
C3409 C 0.43784 0.8595 0.63916 0.0
C3410 C 0.41445 0.83639 0.64031 0.0
H3411 H 0.36208 0.85813 0.61251 0.0
H3412 H 0.38137 0.86127 0.6231 0.0
H3413 H 0.39948 0.82595 0.6335 0.0
H3414 H 0.45721 0.83576 0.65703 0.0
H3415 H 0.4349 0.83417 0.65708 0.0
H3416 H 0.41363 0.86675 0.6473 0.0
C3417 C 0.37658 0.85273 0.62448 0.0
C3418 C 0.40228 0.83483 0.63687 0.0
C3419 C 0.36556 0.8509 0.6183 0.0
C3420 C 0.45191 0.8425 0.65207 0.0
C3421 C 0.43917 0.84158 0.6521 0.0
C3422 C 0.41053 0.85777 0.6445 0.0
C3423 C 0.38165 0.84339 0.63173 0.0
C3424 C 0.39411 0.84476 0.63699 0.0
C3425 C 0.43204 0.84992 0.64543 0.0
C3426 C 0.41877 0.84795 0.64383 0.0
H3427 H 0.35963 0.82177 0.62766 0.0
H3428 H 0.37865 0.82508 0.63876 0.0
H3429 H 0.3922 0.86396 0.64163 0.0
H3430 H 0.45478 0.86758 0.63377 0.0
H3431 H 0.43257 0.86599 0.63385 0.0
C3432 C 0.82749 0.46376 0.92584 0.0
C3433 C 0.82509 0.47443 0.93253 0.0
C3434 C 0.82611 0.46374 0.91311 0.0
C3435 C 0.81864 0.48407 0.88641 0.0
H3436 H 0.798 0.45683 0.87703 0.0
C3437 C 0.78069 0.48703 0.84986 0.0
C3438 C 0.78045 0.47767 0.8411 0.0
C3439 C 0.7886 0.48626 0.85987 0.0
C3440 C 0.80388 0.46443 0.87946 0.0
H3441 H 0.82081 0.49373 0.9312 0.0
H3442 H 0.8182 0.4937 0.9093 0.0
H3443 H 0.80921 0.45599 0.8962 0.0
H3444 H 0.78811 0.46009 0.836 0.0
H3445 H 0.80164 0.45861 0.85365 0.0
H3446 H 0.81254 0.49279 0.86995 0.0
C3447 C 0.82118 0.48532 0.91362 0.0
C3448 C 0.81042 0.46391 0.8904 0.0
C3449 C 0.82259 0.48533 0.92626 0.0
C3450 C 0.78811 0.46746 0.84261 0.0
C3451 C 0.79585 0.46659 0.85269 0.0
C3452 C 0.81193 0.48466 0.87557 0.0
C3453 C 0.8223 0.4744 0.90695 0.0
C3454 C 0.8176 0.47389 0.8942 0.0
C3455 C 0.79623 0.47602 0.86137 0.0
C3456 C 0.80426 0.47497 0.87217 0.0
H3457 H 0.82948 0.45524 0.93047 0.0
H3458 H 0.82731 0.45523 0.9082 0.0
H3459 H 0.82428 0.49181 0.88891 0.0
H3460 H 0.77491 0.49502 0.84888 0.0
H3461 H 0.78864 0.49357 0.86655 0.0
C3462 C 0.80605 0.4862 0.22864 0.0
C3463 C 0.81495 0.495 0.23153 0.0
C3464 C 0.79961 0.48686 0.21766 0.0
C3465 C 0.791 0.5078 0.19281 0.0
H3466 H 0.79138 0.47874 0.17254 0.0
C3467 C 0.79262 0.50915 0.14116 0.0
C3468 C 0.78852 0.49916 0.13424 0.0
C3469 C 0.79119 0.50926 0.15379 0.0
C3470 C 0.79082 0.48686 0.17817 0.0
H3471 H 0.82401 0.51147 0.22529 0.0
H3472 H 0.81276 0.5126 0.20602 0.0
H3473 H 0.79853 0.47756 0.19352 0.0
H3474 H 0.7786 0.48204 0.13486 0.0
H3475 H 0.77598 0.48225 0.15707 0.0
H3476 H 0.78365 0.51721 0.17733 0.0
C3477 C 0.81071 0.50526 0.21232 0.0
C3478 C 0.795 0.48619 0.19019 0.0
C3479 C 0.81723 0.50454 0.22327 0.0
C3480 C 0.78191 0.48982 0.14001 0.0
C3481 C 0.78049 0.4899 0.15272 0.0
C3482 C 0.7867 0.50846 0.18082 0.0
C3483 C 0.80187 0.4964 0.20941 0.0
C3484 C 0.79558 0.49675 0.19745 0.0
C3485 C 0.78562 0.49936 0.15978 0.0
C3486 C 0.78706 0.49811 0.1732 0.0
H3487 H 0.80406 0.47875 0.23485 0.0
H3488 H 0.79283 0.47993 0.21563 0.0
H3489 H 0.79112 0.51602 0.19833 0.0
H3490 H 0.79764 0.51655 0.13691 0.0
H3491 H 0.79533 0.51665 0.1589 0.0
C3492 C 0.82271 0.60811 0.37512 0.0
C3493 C 0.8316 0.60088 0.36931 0.0
C3494 C 0.8232 0.6101 0.38767 0.0
C3495 C 0.83572 0.59842 0.41643 0.0
H3496 H 0.83273 0.63212 0.42709 0.0
C3497 C 0.84866 0.6139 0.46494 0.0
C3498 C 0.84152 0.62297 0.47056 0.0
C3499 C 0.84667 0.61072 0.45277 0.0
C3500 C 0.83338 0.62264 0.4243 0.0
H3501 H 0.84774 0.58973 0.37213 0.0
H3502 H 0.84857 0.59319 0.39422 0.0
H3503 H 0.83069 0.62718 0.40549 0.0
H3504 H 0.82655 0.6357 0.46794 0.0
H3505 H 0.8229 0.62998 0.44667 0.0
H3506 H 0.83838 0.59387 0.43525 0.0
C3507 C 0.84122 0.59728 0.38899 0.0
C3508 C 0.83225 0.61982 0.41193 0.0
C3509 C 0.84078 0.59534 0.37637 0.0
C3510 C 0.83223 0.62871 0.46382 0.0
C3511 C 0.83019 0.62548 0.45163 0.0
C3512 C 0.83677 0.60123 0.42883 0.0
C3513 C 0.83255 0.60485 0.39471 0.0
C3514 C 0.83348 0.6077 0.40788 0.0
C3515 C 0.83745 0.61649 0.44596 0.0
C3516 C 0.8357 0.61339 0.43289 0.0
H3517 H 0.81548 0.61247 0.36993 0.0
H3518 H 0.8163 0.61583 0.39188 0.0
H3519 H 0.83657 0.58898 0.41355 0.0
H3520 H 0.85593 0.60934 0.46989 0.0
H3521 H 0.85256 0.60392 0.44863 0.0
C3522 C 0.76091 0.61687 0.61507 0.0
C3523 C 0.75387 0.60981 0.60701 0.0
C3524 C 0.76072 0.61443 0.6276 0.0
C3525 C 0.75171 0.59084 0.65037 0.0
H3526 H 0.75122 0.61856 0.67245 0.0
C3527 C 0.74112 0.58762 0.70244 0.0
C3528 C 0.74955 0.59379 0.70991 0.0
C3529 C 0.74153 0.58906 0.68973 0.0
C3530 C 0.75139 0.61074 0.66637 0.0
H3531 H 0.74125 0.59455 0.60569 0.0
H3532 H 0.74069 0.59052 0.62746 0.0
H3533 H 0.75265 0.62203 0.65052 0.0
H3534 H 0.76504 0.60623 0.70995 0.0
H3535 H 0.76562 0.60879 0.68794 0.0
H3536 H 0.75022 0.5796 0.66635 0.0
C3537 C 0.74656 0.59776 0.62417 0.0
C3538 C 0.7523 0.61271 0.65382 0.0
C3539 C 0.74683 0.60013 0.61166 0.0
C3540 C 0.7584 0.60134 0.70446 0.0
C3541 C 0.75871 0.60288 0.69186 0.0
C3542 C 0.75067 0.58888 0.66294 0.0
C3543 C 0.75341 0.60495 0.63231 0.0
C3544 C 0.75256 0.60279 0.64567 0.0
C3545 C 0.75026 0.59683 0.68438 0.0
C3546 C 0.75061 0.59882 0.67104 0.0
H3547 H 0.76646 0.62435 0.61172 0.0
H3548 H 0.76628 0.62 0.63361 0.0
H3549 H 0.75203 0.58298 0.64436 0.0
H3550 H 0.73421 0.58176 0.70641 0.0
H3551 H 0.7349 0.58433 0.68411 0.0
loop_
_geom_bond_atom_site_label_1
_geom_bond_atom_site_label_2
_geom_bond_distance
_geom_bond_site_symmetry_2
_ccdc_geom_bond_type
Co0 O1 2.216 1_455 S
Co0 O2 2.091 . S
Co0 O4 2.004 . S
Co0 O10 2.021 . S
Co0 O12 2.137 . S
Co0 O13 2.244 . S
O1 Co0 2.216 1_655 S
O1 C8 1.247 1_655 S
O2 Co0 2.091 . S
O2 C8 1.261 . S
C3 O12 1.247 . S
C3 O13 1.272 . S
O4 Co0 2.004 . S
O4 C9 1.259 . S
Co5 O6 2.061 . S
Co5 O11 2.052 . S
Co5 O13 2.135 . S
O6 Co5 2.061 . S
O6 C9 1.235 . S
C7 O10 1.238 1_655 S
C7 O11 1.241 1_655 S
C8 O1 1.247 1_455 S
C8 O2 1.261 . S
C9 O4 1.259 . S
C9 O6 1.235 . S
O10 Co0 2.021 . S
O10 C7 1.238 1_455 S
O11 Co5 2.052 . S
O11 C7 1.241 1_455 S
O12 Co0 2.137 . S
O12 C3 1.247 . S
O13 Co0 2.244 . S
O13 C3 1.272 . S
O13 Co5 2.135 . S
Co14 O15 2.216 . S
Co14 O16 2.091 . S
Co14 O18 2.004 . S
Co14 O24 2.021 . S
Co14 O26 2.137 . S
Co14 O27 2.244 . S
O15 Co14 2.216 . S
O15 C22 1.247 . S
O16 Co14 2.091 . S
O16 C22 1.261 . S
C17 O26 1.247 . S
C17 O27 1.272 . S
O18 Co14 2.004 . S
O18 C23 1.259 . S
Co19 O20 2.061 . S
Co19 O25 2.052 . S
Co19 O27 2.135 . S
O20 Co19 2.061 . S
O20 C23 1.235 . S
C21 O24 1.238 . S
C21 O25 1.241 . S
C22 O15 1.247 . S
C22 O16 1.261 . S
C23 O18 1.259 . S
C23 O20 1.235 . S
O24 Co14 2.021 . S
O24 C21 1.238 . S
O25 Co19 2.052 . S
O25 C21 1.241 . S
O26 Co14 2.137 . S
O26 C17 1.247 . S
O27 Co14 2.244 . S
O27 C17 1.272 . S
O27 Co19 2.135 . S
Co28 O29 2.216 . S
Co28 O30 2.091 . S
Co28 O32 2.004 . S
Co28 O38 2.021 . S
Co28 O40 2.137 . S
Co28 O41 2.244 . S
O29 Co28 2.216 . S
O29 C36 1.247 . S
O30 Co28 2.091 . S
O30 C36 1.261 . S
C31 O40 1.247 . S
C31 O41 1.272 . S
O32 Co28 2.004 . S
O32 C37 1.259 . S
Co33 O34 2.061 . S
Co33 O39 2.052 . S
Co33 O41 2.135 . S
O34 Co33 2.061 . S
O34 C37 1.235 . S
C35 O38 1.238 . S
C35 O39 1.241 . S
C36 O29 1.247 . S
C36 O30 1.261 . S
C37 O32 1.259 . S
C37 O34 1.235 . S
O38 Co28 2.021 . S
O38 C35 1.238 . S
O39 Co33 2.052 . S
O39 C35 1.241 . S
O40 Co28 2.137 . S
O40 C31 1.247 . S
O41 Co28 2.244 . S
O41 C31 1.272 . S
O41 Co33 2.135 . S
Co42 O43 2.216 . S
Co42 O44 2.091 . S
Co42 O46 2.004 . S
Co42 O52 2.021 . S
Co42 O54 2.137 . S
Co42 O55 2.244 . S
O43 Co42 2.216 . S
O43 C50 1.247 . S
O44 Co42 2.091 . S
O44 C50 1.261 . S
C45 O54 1.247 . S
C45 O55 1.272 . S
O46 Co42 2.004 . S
O46 C51 1.259 . S
Co47 O48 2.061 . S
Co47 O53 2.052 . S
Co47 O55 2.135 . S
O48 Co47 2.061 . S
O48 C51 1.235 . S
C49 O52 1.238 . S
C49 O53 1.241 . S
C50 O43 1.247 . S
C50 O44 1.261 . S
C51 O46 1.259 . S
C51 O48 1.235 . S
O52 Co42 2.021 . S
O52 C49 1.238 . S
O53 Co47 2.052 . S
O53 C49 1.241 . S
O54 Co42 2.137 . S
O54 C45 1.247 . S
O55 Co42 2.244 . S
O55 C45 1.272 . S
O55 Co47 2.135 . S
Co56 O57 2.216 1_455 S
Co56 O58 2.081 1_455 S
Co56 O60 2.004 . S
Co56 O66 2.021 1_455 S
Co56 O68 2.137 . S
Co56 O69 2.244 . S
O57 Co56 2.216 1_655 S
O57 C64 1.247 . S
O58 Co56 2.081 1_655 S
O58 C64 1.325 . S
C59 O68 1.247 . S
C59 O69 1.272 . S
O60 Co56 2.004 . S
O60 C65 1.259 . S
Co61 O62 2.061 . S
Co61 O67 2.052 1_455 S
Co61 O69 2.135 . S
O62 Co61 2.061 . S
O62 C65 1.235 . S
C63 O66 1.238 . S
C63 O67 1.241 . S
C64 O57 1.247 . S
C64 O58 1.325 . S
C65 O60 1.259 . S
C65 O62 1.235 . S
O66 Co56 2.021 1_655 S
O66 C63 1.238 . S
O67 Co61 2.052 1_655 S
O67 C63 1.241 . S
O68 Co56 2.137 . S
O68 C59 1.247 . S
O69 Co56 2.244 . S
O69 C59 1.272 . S
O69 Co61 2.135 . S
Co70 O71 2.216 . S
Co70 O72 2.091 . S
Co70 O74 2.004 . S
Co70 O80 2.021 . S
Co70 O82 2.137 . S
Co70 O83 2.244 . S
O71 Co70 2.216 . S
O71 C78 1.247 . S
O72 Co70 2.091 . S
O72 C78 1.261 . S
C73 O82 1.247 . S
C73 O83 1.272 . S
O74 Co70 2.004 . S
O74 C79 1.259 . S
Co75 O76 2.061 . S
Co75 O81 2.052 . S
Co75 O83 2.135 . S
O76 Co75 2.061 . S
O76 C79 1.235 . S
C77 O80 1.238 . S
C77 O81 1.241 . S
C78 O71 1.247 . S
C78 O72 1.261 . S
C79 O74 1.259 . S
C79 O76 1.235 . S
O80 Co70 2.021 . S
O80 C77 1.238 . S
O81 Co75 2.052 . S
O81 C77 1.241 . S
O82 Co70 2.137 . S
O82 C73 1.247 . S
O83 Co70 2.244 . S
O83 C73 1.272 . S
O83 Co75 2.135 . S
Co84 O85 2.216 . S
Co84 O86 2.091 . S
Co84 O88 2.004 . S
Co84 O94 2.021 . S
Co84 O96 2.137 . S
Co84 O97 2.244 . S
O85 Co84 2.216 . S
O85 C92 1.247 . S
O86 Co84 2.091 . S
O86 C92 1.261 . S
C87 O96 1.247 . S
C87 O97 1.272 . S
O88 Co84 2.004 . S
O88 C93 1.259 . S
Co89 O90 2.061 . S
Co89 O95 2.052 . S
Co89 O97 2.135 . S
O90 Co89 2.061 . S
O90 C93 1.235 . S
C91 O94 1.238 . S
C91 O95 1.241 . S
C92 O85 1.247 . S
C92 O86 1.261 . S
C93 O88 1.259 . S
C93 O90 1.235 . S
O94 Co84 2.021 . S
O94 C91 1.238 . S
O95 Co89 2.052 . S
O95 C91 1.241 . S
O96 Co84 2.137 . S
O96 C87 1.247 . S
O97 Co84 2.244 . S
O97 C87 1.272 . S
O97 Co89 2.135 . S
Co98 O99 2.216 . S
Co98 O100 2.091 . S
Co98 O102 2.004 1_655 S
Co98 O108 2.021 . S
Co98 O110 2.137 1_655 S
Co98 O111 2.244 1_655 S
O99 Co98 2.216 . S
O99 C106 1.247 . S
O100 Co98 2.091 . S
O100 C106 1.261 . S
C101 O110 1.247 . S
C101 O111 1.272 . S
O102 Co98 2.004 1_455 S
O102 C107 1.259 . S
Co103 O104 2.061 . S
Co103 O109 2.052 . S
Co103 O111 2.135 . S
O104 Co103 2.061 . S
O104 C107 1.235 . S
C105 O108 1.238 . S
C105 O109 1.241 1_655 S
C106 O99 1.247 . S
C106 O100 1.261 . S
C107 O102 1.259 . S
C107 O104 1.235 . S
O108 Co98 2.021 . S
O108 C105 1.238 . S
O109 Co103 2.052 . S
O109 C105 1.241 1_455 S
O110 Co98 2.137 1_455 S
O110 C101 1.247 . S
O111 Co98 2.244 1_455 S
O111 C101 1.272 . S
O111 Co103 2.135 . S
Co112 O113 2.216 1_545 S
Co112 O114 2.091 . S
Co112 O116 2.004 . S
Co112 O122 2.021 . S
Co112 O124 2.137 . S
Co112 O125 2.244 . S
O113 Co112 2.216 1_565 S
O113 C120 1.247 1_565 S
O114 Co112 2.091 . S
O114 C120 1.261 . S
C115 O124 1.247 . S
C115 O125 1.272 . S
O116 Co112 2.004 . S
O116 C121 1.259 . S
Co117 O118 2.061 . S
Co117 O123 2.052 . S
Co117 O125 2.135 . S
O118 Co117 2.061 . S
O118 C121 1.235 . S
C119 O122 1.238 1_565 S
C119 O123 1.241 1_565 S
C120 O113 1.247 1_545 S
C120 O114 1.261 . S
C121 O116 1.259 . S
C121 O118 1.235 . S
O122 Co112 2.021 . S
O122 C119 1.238 1_545 S
O123 Co117 2.052 . S
O123 C119 1.241 1_545 S
O124 Co112 2.137 . S
O124 C115 1.247 . S
O125 Co112 2.244 . S
O125 C115 1.272 . S
O125 Co117 2.135 . S
Co126 O127 2.216 . S
Co126 O128 2.091 . S
Co126 O130 2.004 . S
Co126 O136 2.021 . S
Co126 O138 2.137 . S
Co126 O139 2.244 . S
O127 Co126 2.216 . S
O127 C134 1.247 . S
O128 Co126 2.091 . S
O128 C134 1.261 . S
C129 O138 1.247 . S
C129 O139 1.272 . S
O130 Co126 2.004 . S
O130 C135 1.259 . S
Co131 O132 2.061 . S
Co131 O137 2.052 . S
Co131 O139 2.135 . S
O132 Co131 2.061 . S
O132 C135 1.235 . S
C133 O136 1.238 . S
C133 O137 1.241 . S
C134 O127 1.247 . S
C134 O128 1.261 . S
C135 O130 1.259 . S
C135 O132 1.235 . S
O136 Co126 2.021 . S
O136 C133 1.238 . S
O137 Co131 2.052 . S
O137 C133 1.241 . S
O138 Co126 2.137 . S
O138 C129 1.247 . S
O139 Co126 2.244 . S
O139 C129 1.272 . S
O139 Co131 2.135 . S
Co140 O141 2.216 . S
Co140 O142 2.091 . S
Co140 O144 2.004 . S
Co140 O150 2.021 . S
Co140 O152 2.137 . S
Co140 O153 2.244 . S
O141 Co140 2.216 . S
O141 C148 1.247 . S
O142 Co140 2.091 . S
O142 C148 1.261 . S
C143 O152 1.247 . S
C143 O153 1.272 . S
O144 Co140 2.004 . S
O144 C149 1.259 . S
Co145 O146 2.061 . S
Co145 O151 2.052 . S
Co145 O153 2.135 . S
O146 Co145 2.061 . S
O146 C149 1.235 . S
C147 O150 1.238 . S
C147 O151 1.241 . S
C148 O141 1.247 . S
C148 O142 1.261 . S
C149 O144 1.259 . S
C149 O146 1.235 . S
O150 Co140 2.021 . S
O150 C147 1.238 . S
O151 Co145 2.052 . S
O151 C147 1.241 . S
O152 Co140 2.137 . S
O152 C143 1.247 . S
O153 Co140 2.244 . S
O153 C143 1.272 . S
O153 Co145 2.135 . S
Co154 O155 2.216 . S
Co154 O156 2.091 . S
Co154 O158 2.004 . S
Co154 O164 2.021 . S
Co154 O166 2.137 . S
Co154 O167 2.244 . S
O155 Co154 2.216 . S
O155 C162 1.247 . S
O156 Co154 2.091 . S
O156 C162 1.261 . S
C157 O166 1.247 . S
C157 O167 1.272 . S
O158 Co154 2.004 . S
O158 C163 1.259 . S
Co159 O160 2.061 . S
Co159 O165 2.052 . S
Co159 O167 2.135 . S
O160 Co159 2.061 . S
O160 C163 1.235 . S
C161 O164 1.238 . S
C161 O165 1.241 . S
C162 O155 1.247 . S
C162 O156 1.261 . S
C163 O158 1.259 . S
C163 O160 1.235 . S
O164 Co154 2.021 . S
O164 C161 1.238 . S
O165 Co159 2.052 . S
O165 C161 1.241 . S
O166 Co154 2.137 . S
O166 C157 1.247 . S
O167 Co154 2.244 . S
O167 C157 1.272 . S
O167 Co159 2.135 . S
Co168 O169 2.216 . S
Co168 O170 2.091 . S
Co168 O172 2.004 . S
Co168 O178 2.021 . S
Co168 O180 2.137 . S
Co168 O181 2.244 . S
O169 Co168 2.216 . S
O169 C176 1.247 . S
O170 Co168 2.091 . S
O170 C176 1.261 . S
C171 O180 1.247 . S
C171 O181 1.272 . S
O172 Co168 2.004 . S
O172 C177 1.259 . S
Co173 O174 2.061 . S
Co173 O179 2.052 . S
Co173 O181 2.135 . S
O174 Co173 2.061 . S
O174 C177 1.235 . S
C175 O178 1.238 . S
C175 O179 1.241 . S
C176 O169 1.247 . S
C176 O170 1.261 . S
C177 O172 1.259 . S
C177 O174 1.235 . S
O178 Co168 2.021 . S
O178 C175 1.238 . S
O179 Co173 2.052 . S
O179 C175 1.241 . S
O180 Co168 2.137 . S
O180 C171 1.247 . S
O181 Co168 2.244 . S
O181 C171 1.272 . S
O181 Co173 2.135 . S
Co182 O183 2.216 . S
Co182 O184 2.091 . S
Co182 O186 2.004 . S
Co182 O192 2.021 . S
Co182 O194 2.137 . S
Co182 O195 2.244 . S
O183 Co182 2.216 . S
O183 C190 1.247 . S
O184 Co182 2.091 . S
O184 C190 1.261 . S
C185 O194 1.247 . S
C185 O195 1.272 . S
O186 Co182 2.004 . S
O186 C191 1.259 . S
Co187 O188 2.061 . S
Co187 O193 2.052 . S
Co187 O195 2.135 . S
O188 Co187 2.061 . S
O188 C191 1.235 . S
C189 O192 1.238 . S
C189 O193 1.241 . S
C190 O183 1.247 . S
C190 O184 1.261 . S
C191 O186 1.259 . S
C191 O188 1.235 . S
O192 Co182 2.021 . S
O192 C189 1.238 . S
O193 Co187 2.052 . S
O193 C189 1.241 . S
O194 Co182 2.137 . S
O194 C185 1.247 . S
O195 Co182 2.244 . S
O195 C185 1.272 . S
O195 Co187 2.135 . S
Co196 O197 2.216 1_545 S
Co196 O198 2.081 1_545 S
Co196 O200 2.004 . S
Co196 O206 2.021 1_545 S
Co196 O208 2.137 . S
Co196 O209 2.244 . S
O197 Co196 2.216 1_565 S
O197 C204 1.247 . S
O198 Co196 2.081 1_565 S
O198 C204 1.325 . S
C199 O208 1.247 . S
C199 O209 1.272 . S
O200 Co196 2.004 . S
O200 C205 1.259 . S
Co201 O202 2.061 . S
Co201 O207 2.052 1_545 S
Co201 O209 2.135 . S
O202 Co201 2.061 . S
O202 C205 1.235 . S
C203 O206 1.238 . S
C203 O207 1.241 . S
C204 O197 1.247 . S
C204 O198 1.325 . S
C205 O200 1.259 . S
C205 O202 1.235 . S
O206 Co196 2.021 1_565 S
O206 C203 1.238 . S
O207 Co201 2.052 1_565 S
O207 C203 1.241 . S
O208 Co196 2.137 . S
O208 C199 1.247 . S
O209 Co196 2.244 . S
O209 C199 1.272 . S
O209 Co201 2.135 . S
Co210 O211 2.216 . S
Co210 O212 2.091 . S
Co210 O214 2.004 1_556 S
Co210 O220 2.021 . S
Co210 O222 2.137 1_556 S
Co210 O223 2.244 1_556 S
O211 Co210 2.216 . S
O211 C218 1.247 . S
O212 Co210 2.091 . S
O212 C218 1.261 . S
C213 O222 1.247 . S
C213 O223 1.272 . S
O214 Co210 2.004 1_554 S
O214 C219 1.259 . S
Co215 O216 2.061 . S
Co215 O221 2.052 . S
Co215 O223 2.135 . S
O216 Co215 2.061 . S
O216 C219 1.235 . S
C217 O220 1.238 . S
C217 O221 1.241 1_556 S
C218 O211 1.247 . S
C218 O212 1.261 . S
C219 O214 1.259 . S
C219 O216 1.235 . S
O220 Co210 2.021 . S
O220 C217 1.238 . S
O221 Co215 2.052 . S
O221 C217 1.241 1_554 S
O222 Co210 2.137 1_554 S
O222 C213 1.247 . S
O223 Co210 2.244 1_554 S
O223 C213 1.272 . S
O223 Co215 2.135 . S
Co224 O225 2.216 1_554 S
Co224 O226 2.091 . S
Co224 O228 2.004 . S
Co224 O234 2.021 . S
Co224 O236 2.137 . S
Co224 O237 2.244 . S
O225 Co224 2.216 1_556 S
O225 C232 1.247 1_556 S
O226 Co224 2.091 . S
O226 C232 1.261 . S
C227 O236 1.247 . S
C227 O237 1.272 . S
O228 Co224 2.004 . S
O228 C233 1.259 . S
Co229 O230 2.061 . S
Co229 O235 2.052 . S
Co229 O237 2.135 . S
O230 Co229 2.061 . S
O230 C233 1.235 . S
C231 O234 1.238 1_556 S
C231 O235 1.241 1_556 S
C232 O225 1.247 1_554 S
C232 O226 1.261 . S
C233 O228 1.259 . S
C233 O230 1.235 . S
O234 Co224 2.021 . S
O234 C231 1.238 1_554 S
O235 Co229 2.052 . S
O235 C231 1.241 1_554 S
O236 Co224 2.137 . S
O236 C227 1.247 . S
O237 Co224 2.244 . S
O237 C227 1.272 . S
O237 Co229 2.135 . S
Co238 O239 2.216 . S
Co238 O240 2.091 . S
Co238 O242 2.004 . S
Co238 O248 2.021 . S
Co238 O250 2.137 . S
Co238 O251 2.244 . S
O239 Co238 2.216 . S
O239 C246 1.247 . S
O240 Co238 2.091 . S
O240 C246 1.261 . S
C241 O250 1.247 . S
C241 O251 1.272 . S
O242 Co238 2.004 . S
O242 C247 1.259 . S
Co243 O244 2.061 . S
Co243 O249 2.052 . S
Co243 O251 2.135 . S
O244 Co243 2.061 . S
O244 C247 1.235 . S
C245 O248 1.238 . S
C245 O249 1.241 . S
C246 O239 1.247 . S
C246 O240 1.261 . S
C247 O242 1.259 . S
C247 O244 1.235 . S
O248 Co238 2.021 . S
O248 C245 1.238 . S
O249 Co243 2.052 . S
O249 C245 1.241 . S
O250 Co238 2.137 . S
O250 C241 1.247 . S
O251 Co238 2.244 . S
O251 C241 1.272 . S
O251 Co243 2.135 . S
Co252 O253 2.216 . S
Co252 O254 2.091 . S
Co252 O256 2.004 . S
Co252 O262 2.021 . S
Co252 O264 2.137 . S
Co252 O265 2.244 . S
O253 Co252 2.216 . S
O253 C260 1.247 . S
O254 Co252 2.091 . S
O254 C260 1.261 . S
C255 O264 1.247 . S
C255 O265 1.272 . S
O256 Co252 2.004 . S
O256 C261 1.259 . S
Co257 O258 2.061 . S
Co257 O263 2.052 . S
Co257 O265 2.135 . S
O258 Co257 2.061 . S
O258 C261 1.235 . S
C259 O262 1.238 . S
C259 O263 1.241 . S
C260 O253 1.247 . S
C260 O254 1.261 . S
C261 O256 1.259 . S
C261 O258 1.235 . S
O262 Co252 2.021 . S
O262 C259 1.238 . S
O263 Co257 2.052 . S
O263 C259 1.241 . S
O264 Co252 2.137 . S
O264 C255 1.247 . S
O265 Co252 2.244 . S
O265 C255 1.272 . S
O265 Co257 2.135 . S
Co266 O267 2.216 . S
Co266 O268 2.091 . S
Co266 O270 2.004 . S
Co266 O276 2.021 . S
Co266 O278 2.137 . S
Co266 O279 2.244 . S
O267 Co266 2.216 . S
O267 C274 1.247 . S
O268 Co266 2.091 . S
O268 C274 1.261 . S
C269 O278 1.247 . S
C269 O279 1.272 . S
O270 Co266 2.004 . S
O270 C275 1.259 . S
Co271 O272 2.061 . S
Co271 O277 2.052 . S
Co271 O279 2.135 . S
O272 Co271 2.061 . S
O272 C275 1.235 . S
C273 O276 1.238 . S
C273 O277 1.241 . S
C274 O267 1.247 . S
C274 O268 1.261 . S
C275 O270 1.259 . S
C275 O272 1.235 . S
O276 Co266 2.021 . S
O276 C273 1.238 . S
O277 Co271 2.052 . S
O277 C273 1.241 . S
O278 Co266 2.137 . S
O278 C269 1.247 . S
O279 Co266 2.244 . S
O279 C269 1.272 . S
O279 Co271 2.135 . S
Co280 O281 2.216 . S
Co280 O282 2.091 . S
Co280 O284 2.004 1_565 S
Co280 O290 2.021 . S
Co280 O292 2.137 1_565 S
Co280 O293 2.244 1_565 S
O281 Co280 2.216 . S
O281 C288 1.247 . S
O282 Co280 2.091 . S
O282 C288 1.261 . S
C283 O292 1.247 . S
C283 O293 1.272 . S
O284 Co280 2.004 1_545 S
O284 C289 1.259 . S
Co285 O286 2.061 . S
Co285 O291 2.052 . S
Co285 O293 2.135 . S
O286 Co285 2.061 . S
O286 C289 1.235 . S
C287 O290 1.238 . S
C287 O291 1.241 1_565 S
C288 O281 1.247 . S
C288 O282 1.261 . S
C289 O284 1.259 . S
C289 O286 1.235 . S
O290 Co280 2.021 . S
O290 C287 1.238 . S
O291 Co285 2.052 . S
O291 C287 1.241 1_545 S
O292 Co280 2.137 1_545 S
O292 C283 1.247 . S
O293 Co280 2.244 1_545 S
O293 C283 1.272 . S
O293 Co285 2.135 . S
Co294 O295 2.216 . S
Co294 O296 2.091 . S
Co294 O298 2.004 . S
Co294 O304 2.021 . S
Co294 O306 2.137 . S
Co294 O307 2.244 . S
O295 Co294 2.216 . S
O295 C302 1.247 . S
O296 Co294 2.091 . S
O296 C302 1.261 . S
C297 O306 1.247 . S
C297 O307 1.272 . S
O298 Co294 2.004 . S
O298 C303 1.259 . S
Co299 O300 2.061 . S
Co299 O305 2.052 . S
Co299 O307 2.135 . S
O300 Co299 2.061 . S
O300 C303 1.235 . S
C301 O304 1.238 . S
C301 O305 1.241 . S
C302 O295 1.247 . S
C302 O296 1.261 . S
C303 O298 1.259 . S
C303 O300 1.235 . S
O304 Co294 2.021 . S
O304 C301 1.238 . S
O305 Co299 2.052 . S
O305 C301 1.241 . S
O306 Co294 2.137 . S
O306 C297 1.247 . S
O307 Co294 2.244 . S
O307 C297 1.272 . S
O307 Co299 2.135 . S
Co308 O309 2.216 . S
Co308 O310 2.091 . S
Co308 O312 2.004 . S
Co308 O318 2.021 . S
Co308 O320 2.137 . S
Co308 O321 2.244 . S
O309 Co308 2.216 . S
O309 C316 1.247 . S
O310 Co308 2.091 . S
O310 C316 1.261 . S
C311 O320 1.247 . S
C311 O321 1.272 . S
O312 Co308 2.004 . S
O312 C317 1.259 . S
Co313 O314 2.061 . S
Co313 O319 2.052 . S
Co313 O321 2.135 . S
O314 Co313 2.061 . S
O314 C317 1.235 . S
C315 O318 1.238 . S
C315 O319 1.241 . S
C316 O309 1.247 . S
C316 O310 1.261 . S
C317 O312 1.259 . S
C317 O314 1.235 . S
O318 Co308 2.021 . S
O318 C315 1.238 . S
O319 Co313 2.052 . S
O319 C315 1.241 . S
O320 Co308 2.137 . S
O320 C311 1.247 . S
O321 Co308 2.244 . S
O321 C311 1.272 . S
O321 Co313 2.135 . S
Co322 O323 2.216 . S
Co322 O324 2.091 . S
Co322 O326 2.004 . S
Co322 O332 2.021 . S
Co322 O334 2.137 . S
Co322 O335 2.244 . S
O323 Co322 2.216 . S
O323 C330 1.247 . S
O324 Co322 2.091 . S
O324 C330 1.261 . S
C325 O334 1.247 . S
C325 O335 1.272 . S
O326 Co322 2.004 . S
O326 C331 1.259 . S
Co327 O328 2.061 . S
Co327 O333 2.052 . S
Co327 O335 2.135 . S
O328 Co327 2.061 . S
O328 C331 1.235 . S
C329 O332 1.238 . S
C329 O333 1.241 . S
C330 O323 1.247 . S
C330 O324 1.261 . S
C331 O326 1.259 . S
C331 O328 1.235 . S
O332 Co322 2.021 . S
O332 C329 1.238 . S
O333 Co327 2.052 . S
O333 C329 1.241 . S
O334 Co322 2.137 . S
O334 C325 1.247 . S
O335 Co322 2.244 . S
O335 C325 1.272 . S
O335 Co327 2.135 . S
Co336 O337 2.216 . S
Co336 O338 2.091 . S
Co336 O340 2.004 . S
Co336 O346 2.021 . S
Co336 O348 2.137 . S
Co336 O349 2.244 . S
O337 Co336 2.216 . S
O337 C344 1.247 . S
O338 Co336 2.091 . S
O338 C344 1.261 . S
C339 O348 1.247 . S
C339 O349 1.272 . S
O340 Co336 2.004 . S
O340 C345 1.259 . S
Co341 O342 2.061 . S
Co341 O347 2.052 . S
Co341 O349 2.135 . S
O342 Co341 2.061 . S
O342 C345 1.235 . S
C343 O346 1.238 . S
C343 O347 1.241 . S
C344 O337 1.247 . S
C344 O338 1.261 . S
C345 O340 1.259 . S
C345 O342 1.235 . S
O346 Co336 2.021 . S
O346 C343 1.238 . S
O347 Co341 2.052 . S
O347 C343 1.241 . S
O348 Co336 2.137 . S
O348 C339 1.247 . S
O349 Co336 2.244 . S
O349 C339 1.272 . S
O349 Co341 2.135 . S
Co350 O351 2.216 . S
Co350 O352 2.091 . S
Co350 O354 2.004 . S
Co350 O360 2.021 . S
Co350 O362 2.137 . S
Co350 O363 2.244 . S
O351 Co350 2.216 . S
O351 C358 1.247 . S
O352 Co350 2.091 . S
O352 C358 1.261 . S
C353 O362 1.247 . S
C353 O363 1.272 . S
O354 Co350 2.004 . S
O354 C359 1.259 . S
Co355 O356 2.061 . S
Co355 O361 2.052 . S
Co355 O363 2.135 . S
O356 Co355 2.061 . S
O356 C359 1.235 . S
C357 O360 1.238 . S
C357 O361 1.241 . S
C358 O351 1.247 . S
C358 O352 1.261 . S
C359 O354 1.259 . S
C359 O356 1.235 . S
O360 Co350 2.021 . S
O360 C357 1.238 . S
O361 Co355 2.052 . S
O361 C357 1.241 . S
O362 Co350 2.137 . S
O362 C353 1.247 . S
O363 Co350 2.244 . S
O363 C353 1.272 . S
O363 Co355 2.135 . S
Co364 O365 2.216 . S
Co364 O366 2.091 . S
Co364 O368 2.004 . S
Co364 O374 2.021 . S
Co364 O376 2.137 . S
Co364 O377 2.244 . S
O365 Co364 2.216 . S
O365 C372 1.247 . S
O366 Co364 2.091 . S
O366 C372 1.261 . S
C367 O376 1.247 . S
C367 O377 1.272 . S
O368 Co364 2.004 . S
O368 C373 1.259 . S
Co369 O370 2.061 . S
Co369 O375 2.052 . S
Co369 O377 2.135 . S
O370 Co369 2.061 . S
O370 C373 1.235 . S
C371 O374 1.238 . S
C371 O375 1.241 . S
C372 O365 1.247 . S
C372 O366 1.261 . S
C373 O368 1.259 . S
C373 O370 1.235 . S
O374 Co364 2.021 . S
O374 C371 1.238 . S
O375 Co369 2.052 . S
O375 C371 1.241 . S
O376 Co364 2.137 . S
O376 C367 1.247 . S
O377 Co364 2.244 . S
O377 C367 1.272 . S
O377 Co369 2.135 . S
Co378 O379 2.216 . S
Co378 O380 2.091 . S
Co378 O382 2.004 . S
Co378 O388 2.021 . S
Co378 O390 2.137 . S
Co378 O391 2.244 . S
O379 Co378 2.216 . S
O379 C386 1.247 . S
O380 Co378 2.091 . S
O380 C386 1.261 . S
C381 O390 1.247 . S
C381 O391 1.272 . S
O382 Co378 2.004 . S
O382 C387 1.259 . S
Co383 O384 2.061 . S
Co383 O389 2.052 . S
Co383 O391 2.135 . S
O384 Co383 2.061 . S
O384 C387 1.235 . S
C385 O388 1.238 . S
C385 O389 1.241 . S
C386 O379 1.247 . S
C386 O380 1.261 . S
C387 O382 1.259 . S
C387 O384 1.235 . S
O388 Co378 2.021 . S
O388 C385 1.238 . S
O389 Co383 2.052 . S
O389 C385 1.241 . S
O390 Co378 2.137 . S
O390 C381 1.247 . S
O391 Co378 2.244 . S
O391 C381 1.272 . S
O391 Co383 2.135 . S
Co392 O393 2.216 . S
Co392 O394 2.091 . S
Co392 O396 2.004 . S
Co392 O402 2.021 . S
Co392 O404 2.137 . S
Co392 O405 2.244 . S
O393 Co392 2.216 . S
O393 C400 1.247 . S
O394 Co392 2.091 . S
O394 C400 1.261 . S
C395 O404 1.247 . S
C395 O405 1.272 . S
O396 Co392 2.004 . S
O396 C401 1.259 . S
Co397 O398 2.061 . S
Co397 O403 2.052 . S
Co397 O405 2.135 . S
O398 Co397 2.061 . S
O398 C401 1.235 . S
C399 O402 1.238 . S
C399 O403 1.241 . S
C400 O393 1.247 . S
C400 O394 1.261 . S
C401 O396 1.259 . S
C401 O398 1.235 . S
O402 Co392 2.021 . S
O402 C399 1.238 . S
O403 Co397 2.052 . S
O403 C399 1.241 . S
O404 Co392 2.137 . S
O404 C395 1.247 . S
O405 Co392 2.244 . S
O405 C395 1.272 . S
O405 Co397 2.135 . S
Co406 O407 2.216 . S
Co406 O408 2.091 . S
Co406 O410 2.004 . S
Co406 O416 2.021 . S
Co406 O418 2.137 . S
Co406 O419 2.244 . S
O407 Co406 2.216 . S
O407 C414 1.247 . S
O408 Co406 2.091 . S
O408 C414 1.261 . S
C409 O418 1.247 . S
C409 O419 1.272 . S
O410 Co406 2.004 . S
O410 C415 1.259 . S
Co411 O412 2.061 . S
Co411 O417 2.052 . S
Co411 O419 2.135 . S
O412 Co411 2.061 . S
O412 C415 1.235 . S
C413 O416 1.238 . S
C413 O417 1.241 . S
C414 O407 1.247 . S
C414 O408 1.261 . S
C415 O410 1.259 . S
C415 O412 1.235 . S
O416 Co406 2.021 . S
O416 C413 1.238 . S
O417 Co411 2.052 . S
O417 C413 1.241 . S
O418 Co406 2.137 . S
O418 C409 1.247 . S
O419 Co406 2.244 . S
O419 C409 1.272 . S
O419 Co411 2.135 . S
Co420 O421 2.216 . S
Co420 O422 2.091 . S
Co420 O424 2.004 . S
Co420 O430 2.021 . S
Co420 O432 2.137 . S
Co420 O433 2.244 . S
O421 Co420 2.216 . S
O421 C428 1.247 . S
O422 Co420 2.091 . S
O422 C428 1.261 . S
C423 O432 1.247 . S
C423 O433 1.272 . S
O424 Co420 2.004 . S
O424 C429 1.259 . S
Co425 O426 2.061 . S
Co425 O431 2.052 . S
Co425 O433 2.135 . S
O426 Co425 2.061 . S
O426 C429 1.235 . S
C427 O430 1.238 . S
C427 O431 1.241 . S
C428 O421 1.247 . S
C428 O422 1.261 . S
C429 O424 1.259 . S
C429 O426 1.235 . S
O430 Co420 2.021 . S
O430 C427 1.238 . S
O431 Co425 2.052 . S
O431 C427 1.241 . S
O432 Co420 2.137 . S
O432 C423 1.247 . S
O433 Co420 2.244 . S
O433 C423 1.272 . S
O433 Co425 2.135 . S
Co434 O435 2.216 . S
Co434 O436 2.091 . S
Co434 O438 2.004 . S
Co434 O444 2.021 . S
Co434 O446 2.137 . S
Co434 O447 2.244 . S
O435 Co434 2.216 . S
O435 C442 1.247 . S
O436 Co434 2.091 . S
O436 C442 1.261 . S
C437 O446 1.247 . S
C437 O447 1.272 . S
O438 Co434 2.004 . S
O438 C443 1.259 . S
Co439 O440 2.061 . S
Co439 O445 2.052 . S
Co439 O447 2.135 . S
O440 Co439 2.061 . S
O440 C443 1.235 . S
C441 O444 1.238 . S
C441 O445 1.241 . S
C442 O435 1.247 . S
C442 O436 1.261 . S
C443 O438 1.259 . S
C443 O440 1.235 . S
O444 Co434 2.021 . S
O444 C441 1.238 . S
O445 Co439 2.052 . S
O445 C441 1.241 . S
O446 Co434 2.137 . S
O446 C437 1.247 . S
O447 Co434 2.244 . S
O447 C437 1.272 . S
O447 Co439 2.135 . S
Co448 O449 2.216 . S
Co448 O450 2.091 . S
Co448 O452 2.004 . S
Co448 O458 2.021 . S
Co448 O460 2.137 . S
Co448 O461 2.244 . S
O449 Co448 2.216 . S
O449 C456 1.247 . S
O450 Co448 2.091 . S
O450 C456 1.261 . S
C451 O460 1.247 . S
C451 O461 1.272 . S
O452 Co448 2.004 . S
O452 C457 1.259 . S
Co453 O454 2.061 . S
Co453 O459 2.052 . S
Co453 O461 2.135 . S
O454 Co453 2.061 . S
O454 C457 1.235 . S
C455 O458 1.238 . S
C455 O459 1.241 . S
C456 O449 1.247 . S
C456 O450 1.261 . S
C457 O452 1.259 . S
C457 O454 1.235 . S
O458 Co448 2.021 . S
O458 C455 1.238 . S
O459 Co453 2.052 . S
O459 C455 1.241 . S
O460 Co448 2.137 . S
O460 C451 1.247 . S
O461 Co448 2.244 . S
O461 C451 1.272 . S
O461 Co453 2.135 . S
Co462 O463 2.216 . S
Co462 O464 2.091 . S
Co462 O466 2.004 . S
Co462 O472 2.021 . S
Co462 O474 2.137 . S
Co462 O475 2.244 . S
O463 Co462 2.216 . S
O463 C470 1.247 . S
O464 Co462 2.091 . S
O464 C470 1.261 . S
C465 O474 1.247 . S
C465 O475 1.272 . S
O466 Co462 2.004 . S
O466 C471 1.259 . S
Co467 O468 2.061 . S
Co467 O473 2.052 . S
Co467 O475 2.135 . S
O468 Co467 2.061 . S
O468 C471 1.235 . S
C469 O472 1.238 . S
C469 O473 1.241 . S
C470 O463 1.247 . S
C470 O464 1.261 . S
C471 O466 1.259 . S
C471 O468 1.235 . S
O472 Co462 2.021 . S
O472 C469 1.238 . S
O473 Co467 2.052 . S
O473 C469 1.241 . S
O474 Co462 2.137 . S
O474 C465 1.247 . S
O475 Co462 2.244 . S
O475 C465 1.272 . S
O475 Co467 2.135 . S
Co476 O477 2.216 . S
Co476 O478 2.091 . S
Co476 O480 2.004 . S
Co476 O486 2.021 . S
Co476 O488 2.137 . S
Co476 O489 2.244 . S
O477 Co476 2.216 . S
O477 C484 1.247 . S
O478 Co476 2.091 . S
O478 C484 1.261 . S
C479 O488 1.247 . S
C479 O489 1.272 . S
O480 Co476 2.004 . S
O480 C485 1.259 . S
Co481 O482 2.061 . S
Co481 O487 2.052 . S
Co481 O489 2.135 . S
O482 Co481 2.061 . S
O482 C485 1.235 . S
C483 O486 1.238 . S
C483 O487 1.241 . S
C484 O477 1.247 . S
C484 O478 1.261 . S
C485 O480 1.259 . S
C485 O482 1.235 . S
O486 Co476 2.021 . S
O486 C483 1.238 . S
O487 Co481 2.052 . S
O487 C483 1.241 . S
O488 Co476 2.137 . S
O488 C479 1.247 . S
O489 Co476 2.244 . S
O489 C479 1.272 . S
O489 Co481 2.135 . S
Co490 O491 2.216 . S
Co490 O492 2.091 . S
Co490 O494 2.004 . S
Co490 O500 2.021 . S
Co490 O502 2.137 . S
Co490 O503 2.244 . S
O491 Co490 2.216 . S
O491 C498 1.247 . S
O492 Co490 2.091 . S
O492 C498 1.261 . S
C493 O502 1.247 . S
C493 O503 1.272 . S
O494 Co490 2.004 . S
O494 C499 1.259 . S
Co495 O496 2.061 . S
Co495 O501 2.052 . S
Co495 O503 2.135 . S
O496 Co495 2.061 . S
O496 C499 1.235 . S
C497 O500 1.238 . S
C497 O501 1.241 . S
C498 O491 1.247 . S
C498 O492 1.261 . S
C499 O494 1.259 . S
C499 O496 1.235 . S
O500 Co490 2.021 . S
O500 C497 1.238 . S
O501 Co495 2.052 . S
O501 C497 1.241 . S
O502 Co490 2.137 . S
O502 C493 1.247 . S
O503 Co490 2.244 . S
O503 C493 1.272 . S
O503 Co495 2.135 . S
Co504 O505 2.216 . S
Co504 O506 2.091 . S
Co504 O508 2.004 . S
Co504 O514 2.021 . S
Co504 O516 2.137 . S
Co504 O517 2.244 . S
O505 Co504 2.216 . S
O505 C512 1.247 . S
O506 Co504 2.091 . S
O506 C512 1.261 . S
C507 O516 1.247 . S
C507 O517 1.272 . S
O508 Co504 2.004 . S
O508 C513 1.259 . S
Co509 O510 2.061 . S
Co509 O515 2.052 . S
Co509 O517 2.135 . S
O510 Co509 2.061 . S
O510 C513 1.235 . S
C511 O514 1.238 . S
C511 O515 1.241 . S
C512 O505 1.247 . S
C512 O506 1.261 . S
C513 O508 1.259 . S
C513 O510 1.235 . S
O514 Co504 2.021 . S
O514 C511 1.238 . S
O515 Co509 2.052 . S
O515 C511 1.241 . S
O516 Co504 2.137 . S
O516 C507 1.247 . S
O517 Co504 2.244 . S
O517 C507 1.272 . S
O517 Co509 2.135 . S
Co518 O519 2.216 . S
Co518 O520 2.091 . S
Co518 O522 2.004 . S
Co518 O528 2.021 . S
Co518 O530 2.137 . S
Co518 O531 2.244 . S
O519 Co518 2.216 . S
O519 C526 1.247 . S
O520 Co518 2.091 . S
O520 C526 1.261 . S
C521 O530 1.247 . S
C521 O531 1.272 . S
O522 Co518 2.004 . S
O522 C527 1.259 . S
Co523 O524 2.061 . S
Co523 O529 2.052 . S
Co523 O531 2.135 . S
O524 Co523 2.061 . S
O524 C527 1.235 . S
C525 O528 1.238 . S
C525 O529 1.241 . S
C526 O519 1.247 . S
C526 O520 1.261 . S
C527 O522 1.259 . S
C527 O524 1.235 . S
O528 Co518 2.021 . S
O528 C525 1.238 . S
O529 Co523 2.052 . S
O529 C525 1.241 . S
O530 Co518 2.137 . S
O530 C521 1.247 . S
O531 Co518 2.244 . S
O531 C521 1.272 . S
O531 Co523 2.135 . S
Co532 O533 2.216 . S
Co532 O534 2.091 . S
Co532 O536 2.004 . S
Co532 O542 2.021 . S
Co532 O544 2.137 . S
Co532 O545 2.244 . S
O533 Co532 2.216 . S
O533 C540 1.247 . S
O534 Co532 2.091 . S
O534 C540 1.261 . S
C535 O544 1.247 . S
C535 O545 1.272 . S
O536 Co532 2.004 . S
O536 C541 1.259 . S
Co537 O538 2.061 . S
Co537 O543 2.052 . S
Co537 O545 2.135 . S
O538 Co537 2.061 . S
O538 C541 1.235 . S
C539 O542 1.238 . S
C539 O543 1.241 . S
C540 O533 1.247 . S
C540 O534 1.261 . S
C541 O536 1.259 . S
C541 O538 1.235 . S
O542 Co532 2.021 . S
O542 C539 1.238 . S
O543 Co537 2.052 . S
O543 C539 1.241 . S
O544 Co532 2.137 . S
O544 C535 1.247 . S
O545 Co532 2.244 . S
O545 C535 1.272 . S
O545 Co537 2.135 . S
Co546 O547 2.216 . S
Co546 O548 2.091 . S
Co546 O550 2.004 . S
Co546 O556 2.021 . S
Co546 O558 2.137 . S
Co546 O559 2.244 . S
O547 Co546 2.216 . S
O547 C554 1.247 . S
O548 Co546 2.091 . S
O548 C554 1.261 . S
C549 O558 1.247 . S
C549 O559 1.272 . S
O550 Co546 2.004 . S
O550 C555 1.259 . S
Co551 O552 2.061 . S
Co551 O557 2.052 . S
Co551 O559 2.135 . S
O552 Co551 2.061 . S
O552 C555 1.235 . S
C553 O556 1.238 . S
C553 O557 1.241 . S
C554 O547 1.247 . S
C554 O548 1.261 . S
C555 O550 1.259 . S
C555 O552 1.235 . S
O556 Co546 2.021 . S
O556 C553 1.238 . S
O557 Co551 2.052 . S
O557 C553 1.241 . S
O558 Co546 2.137 . S
O558 C549 1.247 . S
O559 Co546 2.244 . S
O559 C549 1.272 . S
O559 Co551 2.135 . S
Co560 O561 2.216 . S
Co560 O562 2.091 . S
Co560 O564 2.004 . S
Co560 O570 2.021 . S
Co560 O572 2.137 . S
Co560 O573 2.244 . S
O561 Co560 2.216 . S
O561 C568 1.247 . S
O562 Co560 2.091 . S
O562 C568 1.261 . S
C563 O572 1.247 . S
C563 O573 1.272 . S
O564 Co560 2.004 . S
O564 C569 1.259 . S
Co565 O566 2.061 . S
Co565 O571 2.052 . S
Co565 O573 2.135 . S
O566 Co565 2.061 . S
O566 C569 1.235 . S
C567 O570 1.238 . S
C567 O571 1.241 . S
C568 O561 1.247 . S
C568 O562 1.261 . S
C569 O564 1.259 . S
C569 O566 1.235 . S
O570 Co560 2.021 . S
O570 C567 1.238 . S
O571 Co565 2.052 . S
O571 C567 1.241 . S
O572 Co560 2.137 . S
O572 C563 1.247 . S
O573 Co560 2.244 . S
O573 C563 1.272 . S
O573 Co565 2.135 . S
Co574 O575 2.216 . S
Co574 O576 2.091 . S
Co574 O578 2.004 . S
Co574 O584 2.021 . S
Co574 O586 2.137 . S
Co574 O587 2.244 . S
O575 Co574 2.216 . S
O575 C582 1.247 . S
O576 Co574 2.091 . S
O576 C582 1.261 . S
C577 O586 1.247 . S
C577 O587 1.272 . S
O578 Co574 2.004 . S
O578 C583 1.259 . S
Co579 O580 2.061 . S
Co579 O585 2.052 . S
Co579 O587 2.135 . S
O580 Co579 2.061 . S
O580 C583 1.235 . S
C581 O584 1.238 . S
C581 O585 1.241 . S
C582 O575 1.247 . S
C582 O576 1.261 . S
C583 O578 1.259 . S
C583 O580 1.235 . S
O584 Co574 2.021 . S
O584 C581 1.238 . S
O585 Co579 2.052 . S
O585 C581 1.241 . S
O586 Co574 2.137 . S
O586 C577 1.247 . S
O587 Co574 2.244 . S
O587 C577 1.272 . S
O587 Co579 2.135 . S
Co588 O589 2.216 . S
Co588 O590 2.091 . S
Co588 O592 2.004 . S
Co588 O598 2.021 . S
Co588 O600 2.137 . S
Co588 O601 2.244 . S
O589 Co588 2.216 . S
O589 C596 1.247 . S
O590 Co588 2.091 . S
O590 C596 1.261 . S
C591 O600 1.247 . S
C591 O601 1.272 . S
O592 Co588 2.004 . S
O592 C597 1.259 . S
Co593 O594 2.061 . S
Co593 O599 2.052 . S
Co593 O601 2.135 . S
O594 Co593 2.061 . S
O594 C597 1.235 . S
C595 O598 1.238 . S
C595 O599 1.241 . S
C596 O589 1.247 . S
C596 O590 1.261 . S
C597 O592 1.259 . S
C597 O594 1.235 . S
O598 Co588 2.021 . S
O598 C595 1.238 . S
O599 Co593 2.052 . S
O599 C595 1.241 . S
O600 Co588 2.137 . S
O600 C591 1.247 . S
O601 Co588 2.244 . S
O601 C591 1.272 . S
O601 Co593 2.135 . S
Co602 O603 2.216 . S
Co602 O604 2.091 . S
Co602 O606 2.004 . S
Co602 O612 2.021 . S
Co602 O614 2.137 . S
Co602 O615 2.244 . S
O603 Co602 2.216 . S
O603 C610 1.247 . S
O604 Co602 2.091 . S
O604 C610 1.261 . S
C605 O614 1.247 . S
C605 O615 1.272 . S
O606 Co602 2.004 . S
O606 C611 1.259 . S
Co607 O608 2.061 . S
Co607 O613 2.052 . S
Co607 O615 2.135 . S
O608 Co607 2.061 . S
O608 C611 1.235 . S
C609 O612 1.238 . S
C609 O613 1.241 . S
C610 O603 1.247 . S
C610 O604 1.261 . S
C611 O606 1.259 . S
C611 O608 1.235 . S
O612 Co602 2.021 . S
O612 C609 1.238 . S
O613 Co607 2.052 . S
O613 C609 1.241 . S
O614 Co602 2.137 . S
O614 C605 1.247 . S
O615 Co602 2.244 . S
O615 C605 1.272 . S
O615 Co607 2.135 . S
Co616 O617 2.216 . S
Co616 O618 2.091 . S
Co616 O620 2.004 . S
Co616 O626 2.021 . S
Co616 O628 2.137 . S
Co616 O629 2.244 . S
O617 Co616 2.216 . S
O617 C624 1.247 . S
O618 Co616 2.091 . S
O618 C624 1.261 . S
C619 O628 1.247 . S
C619 O629 1.272 . S
O620 Co616 2.004 . S
O620 C625 1.259 . S
Co621 O622 2.061 . S
Co621 O627 2.052 . S
Co621 O629 2.135 . S
O622 Co621 2.061 . S
O622 C625 1.235 . S
C623 O626 1.238 . S
C623 O627 1.241 . S
C624 O617 1.247 . S
C624 O618 1.261 . S
C625 O620 1.259 . S
C625 O622 1.235 . S
O626 Co616 2.021 . S
O626 C623 1.238 . S
O627 Co621 2.052 . S
O627 C623 1.241 . S
O628 Co616 2.137 . S
O628 C619 1.247 . S
O629 Co616 2.244 . S
O629 C619 1.272 . S
O629 Co621 2.135 . S
Co630 O631 2.216 1_554 S
Co630 O632 2.081 1_554 S
Co630 O634 2.004 . S
Co630 O640 2.021 1_554 S
Co630 O642 2.137 . S
Co630 O643 2.244 . S
O631 Co630 2.216 1_556 S
O631 C638 1.247 . S
O632 Co630 2.081 1_556 S
O632 C638 1.325 . S
C633 O642 1.247 . S
C633 O643 1.272 . S
O634 Co630 2.004 . S
O634 C639 1.259 . S
Co635 O636 2.061 . S
Co635 O641 2.052 1_554 S
Co635 O643 2.135 . S
O636 Co635 2.061 . S
O636 C639 1.235 . S
C637 O640 1.238 . S
C637 O641 1.241 . S
C638 O631 1.247 . S
C638 O632 1.325 . S
C639 O634 1.259 . S
C639 O636 1.235 . S
O640 Co630 2.021 1_556 S
O640 C637 1.238 . S
O641 Co635 2.052 1_556 S
O641 C637 1.241 . S
O642 Co630 2.137 . S
O642 C633 1.247 . S
O643 Co630 2.244 . S
O643 C633 1.272 . S
O643 Co635 2.135 . S
Co644 O645 2.216 . S
Co644 O646 2.091 . S
Co644 O648 2.004 . S
Co644 O654 2.021 . S
Co644 O656 2.137 . S
Co644 O657 2.244 . S
O645 Co644 2.216 . S
O645 C652 1.247 . S
O646 Co644 2.091 . S
O646 C652 1.261 . S
C647 O656 1.247 . S
C647 O657 1.272 . S
O648 Co644 2.004 . S
O648 C653 1.259 . S
Co649 O650 2.061 . S
Co649 O655 2.052 . S
Co649 O657 2.135 . S
O650 Co649 2.061 . S
O650 C653 1.235 . S
C651 O654 1.238 . S
C651 O655 1.241 . S
C652 O645 1.247 . S
C652 O646 1.261 . S
C653 O648 1.259 . S
C653 O650 1.235 . S
O654 Co644 2.021 . S
O654 C651 1.238 . S
O655 Co649 2.052 . S
O655 C651 1.241 . S
O656 Co644 2.137 . S
O656 C647 1.247 . S
O657 Co644 2.244 . S
O657 C647 1.272 . S
O657 Co649 2.135 . S
Co658 O659 2.216 . S
Co658 O660 2.091 . S
Co658 O662 2.004 . S
Co658 O668 2.021 . S
Co658 O670 2.137 . S
Co658 O671 2.244 . S
O659 Co658 2.216 . S
O659 C666 1.247 . S
O660 Co658 2.091 . S
O660 C666 1.261 . S
C661 O670 1.247 . S
C661 O671 1.272 . S
O662 Co658 2.004 . S
O662 C667 1.259 . S
Co663 O664 2.061 . S
Co663 O669 2.052 . S
Co663 O671 2.135 . S
O664 Co663 2.061 . S
O664 C667 1.235 . S
C665 O668 1.238 . S
C665 O669 1.241 . S
C666 O659 1.247 . S
C666 O660 1.261 . S
C667 O662 1.259 . S
C667 O664 1.235 . S
O668 Co658 2.021 . S
O668 C665 1.238 . S
O669 Co663 2.052 . S
O669 C665 1.241 . S
O670 Co658 2.137 . S
O670 C661 1.247 . S
O671 Co658 2.244 . S
O671 C661 1.272 . S
O671 Co663 2.135 . S
C672 C673 1.349 . S
C672 C674 1.327 . S
C672 H697 0.950 . S
C673 C672 1.349 . S
C673 C689 1.349 . S
C674 C672 1.327 . S
C674 C693 1.429 . S
C674 H698 0.950 . S
C675 C692 1.574 . S
C675 C694 1.368 . S
C675 H699 0.949 . S
H676 C680 0.949 . S
C677 C678 1.349 . S
C677 C679 1.327 . S
C677 H700 0.950 . S
C678 C677 1.349 . S
C678 C690 1.349 . S
C679 C677 1.327 . S
C679 C695 1.429 . S
C679 H701 0.950 . S
C680 H676 0.949 . S
C680 C688 1.574 . S
C680 C696 1.368 . S
H681 C689 0.950 . S
H682 C687 0.950 . S
H683 C688 0.949 . S
H684 C690 0.950 . S
H685 C691 0.950 . S
H686 C692 0.949 . S
C687 H682 0.950 . S
C687 C689 1.327 . S
C687 C693 1.429 . S
C688 C680 1.574 . S
C688 H683 0.949 . S
C688 C694 1.368 . S
C689 C673 1.349 . S
C689 H681 0.950 . S
C689 C687 1.327 . S
C690 C678 1.349 . S
C690 H684 0.950 . S
C690 C691 1.327 . S
C691 H685 0.950 . S
C691 C690 1.327 . S
C691 C695 1.429 . S
C692 C675 1.574 . S
C692 H686 0.949 . S
C692 C696 1.368 . S
C693 C674 1.429 . S
C693 C687 1.429 . S
C693 C694 1.523 . S
C694 C675 1.368 . S
C694 C688 1.368 . S
C694 C693 1.523 . S
C695 C679 1.429 . S
C695 C691 1.429 . S
C695 C696 1.523 . S
C696 C680 1.368 . S
C696 C692 1.368 . S
C696 C695 1.523 . S
H697 C672 0.950 . S
H698 C674 0.950 . S
H699 C675 0.949 . S
H700 C677 0.950 . S
H701 C679 0.950 . S
C702 C703 1.349 . S
C702 C704 1.327 . S
C702 H727 0.950 . S
C703 C702 1.349 . S
C703 C719 1.349 . S
C704 C702 1.327 . S
C704 C723 1.429 . S
C704 H728 0.950 . S
C705 C722 1.574 . S
C705 C724 1.368 . S
C705 H729 0.949 . S
H706 C710 0.949 . S
C707 C708 1.349 . S
C707 C709 1.327 1_655 S
C707 H730 0.950 . S
C708 C707 1.349 . S
C708 C720 1.349 . S
C709 C707 1.327 1_455 S
C709 C725 1.429 . S
C709 H731 0.950 . S
C710 H706 0.949 . S
C710 C718 1.574 . S
C710 C726 1.368 . S
H711 C719 0.950 . S
H712 C717 0.950 . S
H713 C718 0.949 . S
H714 C720 0.950 . S
H715 C721 0.972 . S
H716 C722 0.949 . S
C717 H712 0.950 . S
C717 C719 1.327 . S
C717 C723 1.429 . S
C718 C710 1.574 . S
C718 H713 0.949 . S
C718 C724 1.368 . S
C719 C703 1.349 . S
C719 H711 0.950 . S
C719 C717 1.327 . S
C720 C708 1.349 . S
C720 H714 0.950 . S
C720 C721 1.259 1_655 S
C721 H715 0.972 . S
C721 C720 1.259 1_455 S
C721 C725 1.478 . S
C722 C705 1.574 . S
C722 H716 0.949 . S
C722 C726 1.368 . S
C723 C704 1.429 . S
C723 C717 1.429 . S
C723 C724 1.523 . S
C724 C705 1.368 . S
C724 C718 1.368 . S
C724 C723 1.523 . S
C725 C709 1.429 . S
C725 C721 1.478 . S
C725 C726 1.523 . S
C726 C710 1.368 . S
C726 C722 1.368 . S
C726 C725 1.523 . S
H727 C702 0.950 . S
H728 C704 0.950 . S
H729 C705 0.949 . S
H730 C707 0.950 . S
H731 C709 0.950 . S
C732 C733 1.349 . S
C732 C734 1.327 . S
C732 H757 0.950 . S
C733 C732 1.349 . S
C733 C749 1.349 . S
C734 C732 1.327 . S
C734 C753 1.429 . S
C734 H758 0.950 . S
C735 C752 1.574 . S
C735 C754 1.368 . S
C735 H759 0.949 . S
H736 C740 0.949 . S
C737 C738 1.349 . S
C737 C739 1.327 . S
C737 H760 0.950 . S
C738 C737 1.349 . S
C738 C750 1.349 . S
C739 C737 1.327 . S
C739 C755 1.429 . S
C739 H761 0.950 . S
C740 H736 0.949 . S
C740 C748 1.574 . S
C740 C756 1.368 . S
H741 C749 0.950 . S
H742 C747 0.950 . S
H743 C748 0.949 . S
H744 C750 0.950 . S
H745 C751 0.950 . S
H746 C752 0.949 . S
C747 H742 0.950 . S
C747 C749 1.327 . S
C747 C753 1.429 . S
C748 C740 1.574 . S
C748 H743 0.949 . S
C748 C754 1.368 . S
C749 C733 1.349 . S
C749 H741 0.950 . S
C749 C747 1.327 . S
C750 C738 1.349 . S
C750 H744 0.950 . S
C750 C751 1.327 . S
C751 H745 0.950 . S
C751 C750 1.327 . S
C751 C755 1.429 . S
C752 C735 1.574 . S
C752 H746 0.949 . S
C752 C756 1.368 . S
C753 C734 1.429 . S
C753 C747 1.429 . S
C753 C754 1.523 . S
C754 C735 1.368 . S
C754 C748 1.368 . S
C754 C753 1.523 . S
C755 C739 1.429 . S
C755 C751 1.429 . S
C755 C756 1.523 . S
C756 C740 1.368 . S
C756 C752 1.368 . S
C756 C755 1.523 . S
H757 C732 0.950 . S
H758 C734 0.950 . S
H759 C735 0.949 . S
H760 C737 0.950 . S
H761 C739 0.950 . S
C762 C763 1.349 . S
C762 C764 1.327 . S
C762 H787 0.950 . S
C763 C762 1.349 . S
C763 C779 1.349 . S
C764 C762 1.327 . S
C764 C783 1.429 . S
C764 H788 0.950 . S
C765 C782 1.574 . S
C765 C784 1.368 . S
C765 H789 0.949 . S
H766 C770 0.949 1_554 S
C767 C768 1.349 . S
C767 C769 1.327 . S
C767 H790 0.950 . S
C768 C767 1.349 . S
C768 C780 1.349 . S
C769 C767 1.327 . S
C769 C785 1.429 . S
C769 H791 0.950 . S
C770 H766 0.949 1_556 S
C770 C778 1.574 . S
C770 C786 1.368 . S
H771 C779 0.950 . S
H772 C777 0.950 . S
H773 C778 0.954 . S
H774 C780 0.950 1_554 S
H775 C781 0.950 1_554 S
H776 C782 0.949 . S
C777 H772 0.950 . S
C777 C779 1.327 . S
C777 C783 1.429 . S
C778 C770 1.574 . S
C778 H773 0.954 . S
C778 C784 1.368 . S
C779 C763 1.349 . S
C779 H771 0.950 . S
C779 C777 1.327 . S
C780 C768 1.349 . S
C780 H774 0.950 1_556 S
C780 C781 1.327 . S
C781 H775 0.950 1_556 S
C781 C780 1.327 . S
C781 C785 1.429 . S
C782 C765 1.574 . S
C782 H776 0.949 . S
C782 C786 1.368 . S
C783 C764 1.429 . S
C783 C777 1.429 . S
C783 C784 1.523 . S
C784 C765 1.368 . S
C784 C778 1.368 . S
C784 C783 1.523 . S
C785 C769 1.429 . S
C785 C781 1.429 . S
C785 C786 1.523 . S
C786 C770 1.368 . S
C786 C782 1.368 . S
C786 C785 1.523 . S
H787 C762 0.950 . S
H788 C764 0.950 . S
H789 C765 0.949 . S
H790 C767 0.950 . S
H791 C769 0.950 . S
C792 C793 1.349 . S
C792 C794 1.327 . S
C792 H817 0.950 1_455 S
C793 C792 1.349 . S
C793 C809 1.349 . S
C794 C792 1.327 . S
C794 C813 1.429 . S
C794 H818 0.950 . S
C795 C812 1.574 . S
C795 C814 1.368 . S
C795 H819 0.949 . S
H796 C800 0.949 . S
C797 C798 1.349 . S
C797 C799 1.327 . S
C797 H820 0.950 . S
C798 C797 1.349 . S
C798 C810 1.349 . S
C799 C797 1.327 . S
C799 C815 1.429 . S
C799 H821 0.950 . S
C800 H796 0.949 . S
C800 C808 1.574 . S
C800 C816 1.368 . S
H801 C809 0.950 . S
H802 C807 0.950 . S
H803 C808 0.949 . S
H804 C810 0.950 . S
H805 C811 0.950 . S
H806 C812 0.949 . S
C807 H802 0.950 . S
C807 C809 1.327 . S
C807 C813 1.429 . S
C808 C800 1.574 . S
C808 H803 0.949 . S
C808 C814 1.368 . S
C809 C793 1.349 . S
C809 H801 0.950 . S
C809 C807 1.327 . S
C810 C798 1.349 . S
C810 H804 0.950 . S
C810 C811 1.327 . S
C811 H805 0.950 . S
C811 C810 1.327 . S
C811 C815 1.429 . S
C812 C795 1.574 . S
C812 H806 0.949 . S
C812 C816 1.368 . S
C813 C794 1.429 . S
C813 C807 1.429 . S
C813 C814 1.523 . S
C814 C795 1.368 . S
C814 C808 1.368 . S
C814 C813 1.523 . S
C815 C799 1.429 . S
C815 C811 1.429 . S
C815 C816 1.523 . S
C816 C800 1.368 . S
C816 C812 1.368 . S
C816 C815 1.523 . S
H817 C792 0.950 1_655 S
H818 C794 0.950 . S
H819 C795 0.949 . S
H820 C797 0.950 . S
H821 C799 0.950 . S
C822 C823 1.349 . S
C822 C824 1.327 . S
C822 H847 0.950 . S
C823 C822 1.349 . S
C823 C839 1.349 . S
C824 C822 1.327 . S
C824 C843 1.429 . S
C824 H848 0.950 . S
C825 C842 1.574 . S
C825 C844 1.368 . S
C825 H849 0.949 . S
H826 C830 0.949 . S
C827 C828 1.349 . S
C827 C829 1.327 . S
C827 H850 0.950 . S
C828 C827 1.349 . S
C828 C840 1.349 . S
C829 C827 1.327 . S
C829 C845 1.429 . S
C829 H851 0.950 . S
C830 H826 0.949 . S
C830 C838 1.574 . S
C830 C846 1.368 . S
H831 C839 0.950 . S
H832 C837 0.950 . S
H833 C838 0.949 . S
H834 C840 0.950 . S
H835 C841 0.950 . S
H836 C842 0.949 . S
C837 H832 0.950 . S
C837 C839 1.327 . S
C837 C843 1.429 . S
C838 C830 1.574 . S
C838 H833 0.949 . S
C838 C844 1.368 . S
C839 C823 1.349 . S
C839 H831 0.950 . S
C839 C837 1.327 . S
C840 C828 1.349 . S
C840 H834 0.950 . S
C840 C841 1.327 . S
C841 H835 0.950 . S
C841 C840 1.327 . S
C841 C845 1.429 . S
C842 C825 1.574 . S
C842 H836 0.949 . S
C842 C846 1.368 . S
C843 C824 1.429 . S
C843 C837 1.429 . S
C843 C844 1.523 . S
C844 C825 1.368 . S
C844 C838 1.368 . S
C844 C843 1.523 . S
C845 C829 1.429 . S
C845 C841 1.429 . S
C845 C846 1.523 . S
C846 C830 1.368 . S
C846 C842 1.368 . S
C846 C845 1.523 . S
H847 C822 0.950 . S
H848 C824 0.950 . S
H849 C825 0.949 . S
H850 C827 0.950 . S
H851 C829 0.950 . S
C852 C853 1.349 . S
C852 C854 1.327 . S
C852 H877 0.950 . S
C853 C852 1.349 . S
C853 C869 1.349 . S
C854 C852 1.327 . S
C854 C873 1.429 . S
C854 H878 0.950 . S
C855 C872 1.574 . S
C855 C874 1.368 . S
C855 H879 0.949 . S
H856 C860 0.949 . S
C857 C858 1.349 . S
C857 C859 1.327 . S
C857 H880 0.950 . S
C858 C857 1.349 . S
C858 C870 1.349 . S
C859 C857 1.327 . S
C859 C875 1.429 . S
C859 H881 0.950 . S
C860 H856 0.949 . S
C860 C868 1.574 . S
C860 C876 1.368 . S
H861 C869 0.950 . S
H862 C867 0.950 . S
H863 C868 0.949 . S
H864 C870 0.950 . S
H865 C871 0.950 . S
H866 C872 0.949 . S
C867 H862 0.950 . S
C867 C869 1.327 . S
C867 C873 1.429 . S
C868 C860 1.574 . S
C868 H863 0.949 . S
C868 C874 1.368 . S
C869 C853 1.349 . S
C869 H861 0.950 . S
C869 C867 1.327 . S
C870 C858 1.349 . S
C870 H864 0.950 . S
C870 C871 1.327 . S
C871 H865 0.950 . S
C871 C870 1.327 . S
C871 C875 1.429 . S
C872 C855 1.574 . S
C872 H866 0.949 . S
C872 C876 1.368 . S
C873 C854 1.429 . S
C873 C867 1.429 . S
C873 C874 1.523 . S
C874 C855 1.368 . S
C874 C868 1.368 . S
C874 C873 1.523 . S
C875 C859 1.429 . S
C875 C871 1.429 . S
C875 C876 1.523 . S
C876 C860 1.368 . S
C876 C872 1.368 . S
C876 C875 1.523 . S
H877 C852 0.950 . S
H878 C854 0.950 . S
H879 C855 0.949 . S
H880 C857 0.950 . S
H881 C859 0.950 . S
C882 C883 1.349 . S
C882 C884 1.327 . S
C882 H907 0.950 . S
C883 C882 1.349 . S
C883 C899 1.349 . S
C884 C882 1.327 . S
C884 C903 1.429 . S
C884 H908 0.950 . S
C885 C902 1.574 . S
C885 C904 1.368 . S
C885 H909 0.949 . S
H886 C890 0.949 . S
C887 C888 1.349 . S
C887 C889 1.327 . S
C887 H910 0.950 . S
C888 C887 1.349 . S
C888 C900 1.349 . S
C889 C887 1.327 . S
C889 C905 1.429 . S
C889 H911 0.950 . S
C890 H886 0.949 . S
C890 C898 1.574 . S
C890 C906 1.368 . S
H891 C899 0.950 . S
H892 C897 0.950 . S
H893 C898 0.949 . S
H894 C900 0.950 . S
H895 C901 0.950 . S
H896 C902 0.949 . S
C897 H892 0.950 . S
C897 C899 1.327 . S
C897 C903 1.429 . S
C898 C890 1.574 . S
C898 H893 0.949 . S
C898 C904 1.368 . S
C899 C883 1.349 . S
C899 H891 0.950 . S
C899 C897 1.327 . S
C900 C888 1.349 . S
C900 H894 0.950 . S
C900 C901 1.327 . S
C901 H895 0.950 . S
C901 C900 1.327 . S
C901 C905 1.429 . S
C902 C885 1.574 . S
C902 H896 0.949 . S
C902 C906 1.368 . S
C903 C884 1.429 . S
C903 C897 1.429 . S
C903 C904 1.523 . S
C904 C885 1.368 . S
C904 C898 1.368 . S
C904 C903 1.523 . S
C905 C889 1.429 . S
C905 C901 1.429 . S
C905 C906 1.523 . S
C906 C890 1.368 . S
C906 C902 1.368 . S
C906 C905 1.523 . S
H907 C882 0.950 . S
H908 C884 0.950 . S
H909 C885 0.949 . S
H910 C887 0.950 . S
H911 C889 0.950 . S
C912 C913 1.349 . S
C912 C914 1.327 . S
C912 H937 0.950 . S
C913 C912 1.349 . S
C913 C929 1.349 . S
C914 C912 1.327 . S
C914 C933 1.429 . S
C914 H938 0.950 . S
C915 C932 1.574 . S
C915 C934 1.368 . S
C915 H939 0.949 . S
H916 C920 0.949 . S
C917 C918 1.349 . S
C917 C919 1.327 . S
C917 H940 0.950 . S
C918 C917 1.349 . S
C918 C930 1.349 . S
C919 C917 1.327 . S
C919 C935 1.429 . S
C919 H941 0.950 . S
C920 H916 0.949 . S
C920 C928 1.574 . S
C920 C936 1.368 . S
H921 C929 0.950 . S
H922 C927 0.950 . S
H923 C928 0.949 . S
H924 C930 0.950 . S
H925 C931 0.950 . S
H926 C932 0.949 . S
C927 H922 0.950 . S
C927 C929 1.327 . S
C927 C933 1.429 . S
C928 C920 1.574 . S
C928 H923 0.949 . S
C928 C934 1.368 . S
C929 C913 1.349 . S
C929 H921 0.950 . S
C929 C927 1.327 . S
C930 C918 1.349 . S
C930 H924 0.950 . S
C930 C931 1.327 . S
C931 H925 0.950 . S
C931 C930 1.327 . S
C931 C935 1.429 . S
C932 C915 1.574 . S
C932 H926 0.949 . S
C932 C936 1.368 . S
C933 C914 1.429 . S
C933 C927 1.429 . S
C933 C934 1.523 . S
C934 C915 1.368 . S
C934 C928 1.368 . S
C934 C933 1.523 . S
C935 C919 1.429 . S
C935 C931 1.429 . S
C935 C936 1.523 . S
C936 C920 1.368 . S
C936 C932 1.368 . S
C936 C935 1.523 . S
H937 C912 0.950 . S
H938 C914 0.950 . S
H939 C915 0.949 . S
H940 C917 0.950 . S
H941 C919 0.950 . S
C942 C943 1.349 . S
C942 C944 1.327 . S
C942 H967 0.950 . S
C943 C942 1.349 . S
C943 C959 1.349 . S
C944 C942 1.327 . S
C944 C963 1.429 . S
C944 H968 0.950 . S
C945 C962 1.574 . S
C945 C964 1.368 . S
C945 H969 0.949 . S
H946 C950 0.949 . S
C947 C948 1.349 . S
C947 C949 1.327 . S
C947 H970 0.950 . S
C948 C947 1.349 . S
C948 C960 1.349 . S
C949 C947 1.327 . S
C949 C965 1.429 . S
C949 H971 0.950 . S
C950 H946 0.949 . S
C950 C958 1.574 . S
C950 C966 1.368 . S
H951 C959 0.950 . S
H952 C957 0.950 . S
H953 C958 0.949 . S
H954 C960 0.950 . S
H955 C961 0.950 . S
H956 C962 0.949 . S
C957 H952 0.950 . S
C957 C959 1.327 . S
C957 C963 1.429 . S
C958 C950 1.574 . S
C958 H953 0.949 . S
C958 C964 1.368 . S
C959 C943 1.349 . S
C959 H951 0.950 . S
C959 C957 1.327 . S
C960 C948 1.349 . S
C960 H954 0.950 . S
C960 C961 1.327 . S
C961 H955 0.950 . S
C961 C960 1.327 . S
C961 C965 1.429 . S
C962 C945 1.574 . S
C962 H956 0.949 . S
C962 C966 1.368 . S
C963 C944 1.429 . S
C963 C957 1.429 . S
C963 C964 1.523 . S
C964 C945 1.368 . S
C964 C958 1.368 . S
C964 C963 1.523 . S
C965 C949 1.429 . S
C965 C961 1.429 . S
C965 C966 1.523 . S
C966 C950 1.368 . S
C966 C962 1.368 . S
C966 C965 1.523 . S
H967 C942 0.950 . S
H968 C944 0.950 . S
H969 C945 0.949 . S
H970 C947 0.950 . S
H971 C949 0.950 . S
C972 C973 1.349 . S
C972 C974 1.327 . S
C972 H997 0.950 1_545 S
C973 C972 1.349 . S
C973 C989 1.349 . S
C974 C972 1.327 . S
C974 C993 1.429 . S
C974 H998 0.950 . S
C975 C992 1.574 . S
C975 C994 1.368 . S
C975 H999 0.949 . S
H976 C980 0.949 . S
C977 C978 1.349 . S
C977 C979 1.327 . S
C977 H1000 0.950 . S
C978 C977 1.349 . S
C978 C990 1.349 . S
C979 C977 1.327 . S
C979 C995 1.429 . S
C979 H1001 0.950 . S
C980 H976 0.949 . S
C980 C988 1.574 . S
C980 C996 1.368 . S
H981 C989 0.950 . S
H982 C987 0.950 . S
H983 C988 0.949 . S
H984 C990 0.950 . S
H985 C991 0.950 . S
H986 C992 0.949 . S
C987 H982 0.950 . S
C987 C989 1.327 . S
C987 C993 1.429 . S
C988 C980 1.574 . S
C988 H983 0.949 . S
C988 C994 1.368 . S
C989 C973 1.349 . S
C989 H981 0.950 . S
C989 C987 1.327 . S
C990 C978 1.349 . S
C990 H984 0.950 . S
C990 C991 1.327 . S
C991 H985 0.950 . S
C991 C990 1.327 . S
C991 C995 1.429 . S
C992 C975 1.574 . S
C992 H986 0.949 . S
C992 C996 1.368 . S
C993 C974 1.429 . S
C993 C987 1.429 . S
C993 C994 1.523 . S
C994 C975 1.368 . S
C994 C988 1.368 . S
C994 C993 1.523 . S
C995 C979 1.429 . S
C995 C991 1.429 . S
C995 C996 1.523 . S
C996 C980 1.368 . S
C996 C992 1.368 . S
C996 C995 1.523 . S
H997 C972 0.950 1_565 S
H998 C974 0.950 . S
H999 C975 0.949 . S
H1000 C977 0.950 . S
H1001 C979 0.950 . S
C1002 C1003 1.349 . S
C1002 C1004 1.327 . S
C1002 H1027 0.950 . S
C1003 C1002 1.349 . S
C1003 C1019 1.349 . S
C1004 C1002 1.327 . S
C1004 C1023 1.429 . S
C1004 H1028 0.950 . S
C1005 C1022 1.574 . S
C1005 C1024 1.368 . S
C1005 H1029 0.949 . S
H1006 C1010 0.949 . S
C1007 C1008 1.349 . S
C1007 C1009 1.327 . S
C1007 H1030 0.950 . S
C1008 C1007 1.349 . S
C1008 C1020 1.349 . S
C1009 C1007 1.327 . S
C1009 C1025 1.429 . S
C1009 H1031 0.950 . S
C1010 H1006 0.949 . S
C1010 C1018 1.574 . S
C1010 C1026 1.368 . S
H1011 C1019 0.950 . S
H1012 C1017 0.950 . S
H1013 C1018 0.949 . S
H1014 C1020 0.950 . S
H1015 C1021 0.950 . S
H1016 C1022 0.949 . S
C1017 H1012 0.950 . S
C1017 C1019 1.327 . S
C1017 C1023 1.429 . S
C1018 C1010 1.574 . S
C1018 H1013 0.949 . S
C1018 C1024 1.368 . S
C1019 C1003 1.349 . S
C1019 H1011 0.950 . S
C1019 C1017 1.327 . S
C1020 C1008 1.349 . S
C1020 H1014 0.950 . S
C1020 C1021 1.327 . S
C1021 H1015 0.950 . S
C1021 C1020 1.327 . S
C1021 C1025 1.429 . S
C1022 C1005 1.574 . S
C1022 H1016 0.949 . S
C1022 C1026 1.368 . S
C1023 C1004 1.429 . S
C1023 C1017 1.429 . S
C1023 C1024 1.523 . S
C1024 C1005 1.368 . S
C1024 C1018 1.368 . S
C1024 C1023 1.523 . S
C1025 C1009 1.429 . S
C1025 C1021 1.429 . S
C1025 C1026 1.523 . S
C1026 C1010 1.368 . S
C1026 C1022 1.368 . S
C1026 C1025 1.523 . S
H1027 C1002 0.950 . S
H1028 C1004 0.950 . S
H1029 C1005 0.949 . S
H1030 C1007 0.950 . S
H1031 C1009 0.950 . S
C1032 C1033 1.349 . S
C1032 C1034 1.327 . S
C1032 H1057 0.950 . S
C1033 C1032 1.349 . S
C1033 C1049 1.349 . S
C1034 C1032 1.327 . S
C1034 C1053 1.429 . S
C1034 H1058 0.950 . S
C1035 C1052 1.574 . S
C1035 C1054 1.368 . S
C1035 H1059 0.949 . S
H1036 C1040 0.949 . S
C1037 C1038 1.349 . S
C1037 C1039 1.327 . S
C1037 H1060 0.950 . S
C1038 C1037 1.349 . S
C1038 C1050 1.349 . S
C1039 C1037 1.327 . S
C1039 C1055 1.429 . S
C1039 H1061 0.950 . S
C1040 H1036 0.949 . S
C1040 C1048 1.574 . S
C1040 C1056 1.368 . S
H1041 C1049 0.950 . S
H1042 C1047 0.950 . S
H1043 C1048 0.949 . S
H1044 C1050 0.950 . S
H1045 C1051 0.950 . S
H1046 C1052 0.949 . S
C1047 H1042 0.950 . S
C1047 C1049 1.327 . S
C1047 C1053 1.429 . S
C1048 C1040 1.574 . S
C1048 H1043 0.949 . S
C1048 C1054 1.368 . S
C1049 C1033 1.349 . S
C1049 H1041 0.950 . S
C1049 C1047 1.327 . S
C1050 C1038 1.349 . S
C1050 H1044 0.950 . S
C1050 C1051 1.327 . S
C1051 H1045 0.950 . S
C1051 C1050 1.327 . S
C1051 C1055 1.429 . S
C1052 C1035 1.574 . S
C1052 H1046 0.949 . S
C1052 C1056 1.368 . S
C1053 C1034 1.429 . S
C1053 C1047 1.429 . S
C1053 C1054 1.523 . S
C1054 C1035 1.368 . S
C1054 C1048 1.368 . S
C1054 C1053 1.523 . S
C1055 C1039 1.429 . S
C1055 C1051 1.429 . S
C1055 C1056 1.523 . S
C1056 C1040 1.368 . S
C1056 C1052 1.368 . S
C1056 C1055 1.523 . S
H1057 C1032 0.950 . S
H1058 C1034 0.950 . S
H1059 C1035 0.949 . S
H1060 C1037 0.950 . S
H1061 C1039 0.950 . S
C1062 C1063 1.349 . S
C1062 C1064 1.327 . S
C1062 H1087 0.950 1_554 S
C1063 C1062 1.349 . S
C1063 C1079 1.349 . S
C1064 C1062 1.327 . S
C1064 C1083 1.429 . S
C1064 H1088 0.950 . S
C1065 C1082 1.574 . S
C1065 C1084 1.368 . S
C1065 H1089 0.949 . S
H1066 C1070 0.949 . S
C1067 C1068 1.349 . S
C1067 C1069 1.327 . S
C1067 H1090 0.950 . S
C1068 C1067 1.349 . S
C1068 C1080 1.349 . S
C1069 C1067 1.327 . S
C1069 C1085 1.429 . S
C1069 H1091 0.950 . S
C1070 H1066 0.949 . S
C1070 C1078 1.574 . S
C1070 C1086 1.368 . S
H1071 C1079 0.950 . S
H1072 C1077 0.950 . S
H1073 C1078 0.949 . S
H1074 C1080 0.950 . S
H1075 C1081 0.950 . S
H1076 C1082 0.949 . S
C1077 H1072 0.950 . S
C1077 C1079 1.327 . S
C1077 C1083 1.429 . S
C1078 C1070 1.574 . S
C1078 H1073 0.949 . S
C1078 C1084 1.368 . S
C1079 C1063 1.349 . S
C1079 H1071 0.950 . S
C1079 C1077 1.327 . S
C1080 C1068 1.349 . S
C1080 H1074 0.950 . S
C1080 C1081 1.327 . S
C1081 H1075 0.950 . S
C1081 C1080 1.327 . S
C1081 C1085 1.429 . S
C1082 C1065 1.574 . S
C1082 H1076 0.949 . S
C1082 C1086 1.368 . S
C1083 C1064 1.429 . S
C1083 C1077 1.429 . S
C1083 C1084 1.523 . S
C1084 C1065 1.368 . S
C1084 C1078 1.368 . S
C1084 C1083 1.523 . S
C1085 C1069 1.429 . S
C1085 C1081 1.429 . S
C1085 C1086 1.523 . S
C1086 C1070 1.368 . S
C1086 C1082 1.368 . S
C1086 C1085 1.523 . S
H1087 C1062 0.950 1_556 S
H1088 C1064 0.950 . S
H1089 C1065 0.949 . S
H1090 C1067 0.950 . S
H1091 C1069 0.950 . S
C1092 C1093 1.349 . S
C1092 C1094 1.327 . S
C1092 H1117 0.950 . S
C1093 C1092 1.349 . S
C1093 C1109 1.349 . S
C1094 C1092 1.327 . S
C1094 C1113 1.429 . S
C1094 H1118 0.950 . S
C1095 C1112 1.574 . S
C1095 C1114 1.368 . S
C1095 H1119 0.949 . S
H1096 C1100 0.949 . S
C1097 C1098 1.349 . S
C1097 C1099 1.327 . S
C1097 H1120 0.950 . S
C1098 C1097 1.349 . S
C1098 C1110 1.349 . S
C1099 C1097 1.327 . S
C1099 C1115 1.429 . S
C1099 H1121 0.950 . S
C1100 H1096 0.949 . S
C1100 C1108 1.574 . S
C1100 C1116 1.368 . S
H1101 C1109 0.950 . S
H1102 C1107 0.950 . S
H1103 C1108 0.949 . S
H1104 C1110 0.950 . S
H1105 C1111 0.950 . S
H1106 C1112 0.949 . S
C1107 H1102 0.950 . S
C1107 C1109 1.327 . S
C1107 C1113 1.429 . S
C1108 C1100 1.574 . S
C1108 H1103 0.949 . S
C1108 C1114 1.368 . S
C1109 C1093 1.349 . S
C1109 H1101 0.950 . S
C1109 C1107 1.327 . S
C1110 C1098 1.349 . S
C1110 H1104 0.950 . S
C1110 C1111 1.327 . S
C1111 H1105 0.950 . S
C1111 C1110 1.327 . S
C1111 C1115 1.429 . S
C1112 C1095 1.574 . S
C1112 H1106 0.949 . S
C1112 C1116 1.368 . S
C1113 C1094 1.429 . S
C1113 C1107 1.429 . S
C1113 C1114 1.523 . S
C1114 C1095 1.368 . S
C1114 C1108 1.368 . S
C1114 C1113 1.523 . S
C1115 C1099 1.429 . S
C1115 C1111 1.429 . S
C1115 C1116 1.523 . S
C1116 C1100 1.368 . S
C1116 C1112 1.368 . S
C1116 C1115 1.523 . S
H1117 C1092 0.950 . S
H1118 C1094 0.950 . S
H1119 C1095 0.949 . S
H1120 C1097 0.950 . S
H1121 C1099 0.950 . S
C1122 C1123 1.349 . S
C1122 C1124 1.327 . S
C1122 H1147 0.950 . S
C1123 C1122 1.349 . S
C1123 C1139 1.349 . S
C1124 C1122 1.327 . S
C1124 C1143 1.429 . S
C1124 H1148 0.950 . S
C1125 C1142 1.574 . S
C1125 C1144 1.368 . S
C1125 H1149 0.949 . S
H1126 C1130 0.949 . S
C1127 C1128 1.349 . S
C1127 C1129 1.327 . S
C1127 H1150 0.950 . S
C1128 C1127 1.349 . S
C1128 C1140 1.349 . S
C1129 C1127 1.327 . S
C1129 C1145 1.429 . S
C1129 H1151 0.950 . S
C1130 H1126 0.949 . S
C1130 C1138 1.574 . S
C1130 C1146 1.368 . S
H1131 C1139 0.950 . S
H1132 C1137 0.950 . S
H1133 C1138 0.949 . S
H1134 C1140 0.950 . S
H1135 C1141 0.950 . S
H1136 C1142 0.949 . S
C1137 H1132 0.950 . S
C1137 C1139 1.327 . S
C1137 C1143 1.429 . S
C1138 C1130 1.574 . S
C1138 H1133 0.949 . S
C1138 C1144 1.368 . S
C1139 C1123 1.349 . S
C1139 H1131 0.950 . S
C1139 C1137 1.327 . S
C1140 C1128 1.349 . S
C1140 H1134 0.950 . S
C1140 C1141 1.327 . S
C1141 H1135 0.950 . S
C1141 C1140 1.327 . S
C1141 C1145 1.429 . S
C1142 C1125 1.574 . S
C1142 H1136 0.949 . S
C1142 C1146 1.368 . S
C1143 C1124 1.429 . S
C1143 C1137 1.429 . S
C1143 C1144 1.523 . S
C1144 C1125 1.368 . S
C1144 C1138 1.368 . S
C1144 C1143 1.523 . S
C1145 C1129 1.429 . S
C1145 C1141 1.429 . S
C1145 C1146 1.523 . S
C1146 C1130 1.368 . S
C1146 C1142 1.368 . S
C1146 C1145 1.523 . S
H1147 C1122 0.950 . S
H1148 C1124 0.950 . S
H1149 C1125 0.949 . S
H1150 C1127 0.950 . S
H1151 C1129 0.950 . S
C1152 C1153 1.349 . S
C1152 C1154 1.327 . S
C1152 H1177 0.950 . S
C1153 C1152 1.349 . S
C1153 C1169 1.349 . S
C1154 C1152 1.327 . S
C1154 C1173 1.429 . S
C1154 H1178 0.950 . S
C1155 C1172 1.574 . S
C1155 C1174 1.368 . S
C1155 H1179 0.949 . S
H1156 C1160 0.949 . S
C1157 C1158 1.349 . S
C1157 C1159 1.327 . S
C1157 H1180 0.950 . S
C1158 C1157 1.349 . S
C1158 C1170 1.349 . S
C1159 C1157 1.327 . S
C1159 C1175 1.429 . S
C1159 H1181 0.950 . S
C1160 H1156 0.949 . S
C1160 C1168 1.574 . S
C1160 C1176 1.368 . S
H1161 C1169 0.950 . S
H1162 C1167 0.950 . S
H1163 C1168 0.949 . S
H1164 C1170 0.950 . S
H1165 C1171 0.950 . S
H1166 C1172 0.949 . S
C1167 H1162 0.950 . S
C1167 C1169 1.327 . S
C1167 C1173 1.429 . S
C1168 C1160 1.574 . S
C1168 H1163 0.949 . S
C1168 C1174 1.368 . S
C1169 C1153 1.349 . S
C1169 H1161 0.950 . S
C1169 C1167 1.327 . S
C1170 C1158 1.349 . S
C1170 H1164 0.950 . S
C1170 C1171 1.327 . S
C1171 H1165 0.950 . S
C1171 C1170 1.327 . S
C1171 C1175 1.429 . S
C1172 C1155 1.574 . S
C1172 H1166 0.949 . S
C1172 C1176 1.368 . S
C1173 C1154 1.429 . S
C1173 C1167 1.429 . S
C1173 C1174 1.523 . S
C1174 C1155 1.368 . S
C1174 C1168 1.368 . S
C1174 C1173 1.523 . S
C1175 C1159 1.429 . S
C1175 C1171 1.429 . S
C1175 C1176 1.523 . S
C1176 C1160 1.368 . S
C1176 C1172 1.368 . S
C1176 C1175 1.523 . S
H1177 C1152 0.950 . S
H1178 C1154 0.950 . S
H1179 C1155 0.949 . S
H1180 C1157 0.950 . S
H1181 C1159 0.950 . S
C1182 C1183 1.349 . S
C1182 C1184 1.327 . S
C1182 H1207 0.950 . S
C1183 C1182 1.349 . S
C1183 C1199 1.349 . S
C1184 C1182 1.327 . S
C1184 C1203 1.429 . S
C1184 H1208 0.950 . S
C1185 C1202 1.574 . S
C1185 C1204 1.368 . S
C1185 H1209 0.949 . S
H1186 C1190 0.949 . S
C1187 C1188 1.349 . S
C1187 C1189 1.327 . S
C1187 H1210 0.950 . S
C1188 C1187 1.349 . S
C1188 C1200 1.349 . S
C1189 C1187 1.327 . S
C1189 C1205 1.429 . S
C1189 H1211 0.950 . S
C1190 H1186 0.949 . S
C1190 C1198 1.574 . S
C1190 C1206 1.368 . S
H1191 C1199 0.950 . S
H1192 C1197 0.950 . S
H1193 C1198 0.949 . S
H1194 C1200 0.950 . S
H1195 C1201 0.950 . S
H1196 C1202 0.949 . S
C1197 H1192 0.950 . S
C1197 C1199 1.327 . S
C1197 C1203 1.429 . S
C1198 C1190 1.574 . S
C1198 H1193 0.949 . S
C1198 C1204 1.368 . S
C1199 C1183 1.349 . S
C1199 H1191 0.950 . S
C1199 C1197 1.327 . S
C1200 C1188 1.349 . S
C1200 H1194 0.950 . S
C1200 C1201 1.327 . S
C1201 H1195 0.950 . S
C1201 C1200 1.327 . S
C1201 C1205 1.429 . S
C1202 C1185 1.574 . S
C1202 H1196 0.949 . S
C1202 C1206 1.368 . S
C1203 C1184 1.429 . S
C1203 C1197 1.429 . S
C1203 C1204 1.523 . S
C1204 C1185 1.368 . S
C1204 C1198 1.368 . S
C1204 C1203 1.523 . S
C1205 C1189 1.429 . S
C1205 C1201 1.429 . S
C1205 C1206 1.523 . S
C1206 C1190 1.368 . S
C1206 C1202 1.368 . S
C1206 C1205 1.523 . S
H1207 C1182 0.950 . S
H1208 C1184 0.950 . S
H1209 C1185 0.949 . S
H1210 C1187 0.950 . S
H1211 C1189 0.950 . S
C1212 C1213 1.349 . S
C1212 C1214 1.327 . S
C1212 H1237 0.950 . S
C1213 C1212 1.349 . S
C1213 C1229 1.349 . S
C1214 C1212 1.327 . S
C1214 C1233 1.429 . S
C1214 H1238 0.950 . S
C1215 C1232 1.574 . S
C1215 C1234 1.368 . S
C1215 H1239 0.949 . S
H1216 C1220 0.949 . S
C1217 C1218 1.349 . S
C1217 C1219 1.327 . S
C1217 H1240 0.950 . S
C1218 C1217 1.349 . S
C1218 C1230 1.349 . S
C1219 C1217 1.327 . S
C1219 C1235 1.429 . S
C1219 H1241 0.950 . S
C1220 H1216 0.949 . S
C1220 C1228 1.574 . S
C1220 C1236 1.368 . S
H1221 C1229 0.950 . S
H1222 C1227 0.950 . S
H1223 C1228 0.949 . S
H1224 C1230 0.950 . S
H1225 C1231 0.950 . S
H1226 C1232 0.949 . S
C1227 H1222 0.950 . S
C1227 C1229 1.327 . S
C1227 C1233 1.429 . S
C1228 C1220 1.574 . S
C1228 H1223 0.949 . S
C1228 C1234 1.368 . S
C1229 C1213 1.349 . S
C1229 H1221 0.950 . S
C1229 C1227 1.327 . S
C1230 C1218 1.349 . S
C1230 H1224 0.950 . S
C1230 C1231 1.327 . S
C1231 H1225 0.950 . S
C1231 C1230 1.327 . S
C1231 C1235 1.429 . S
C1232 C1215 1.574 . S
C1232 H1226 0.949 . S
C1232 C1236 1.368 . S
C1233 C1214 1.429 . S
C1233 C1227 1.429 . S
C1233 C1234 1.523 . S
C1234 C1215 1.368 . S
C1234 C1228 1.368 . S
C1234 C1233 1.523 . S
C1235 C1219 1.429 . S
C1235 C1231 1.429 . S
C1235 C1236 1.523 . S
C1236 C1220 1.368 . S
C1236 C1232 1.368 . S
C1236 C1235 1.523 . S
H1237 C1212 0.950 . S
H1238 C1214 0.950 . S
H1239 C1215 0.949 . S
H1240 C1217 0.950 . S
H1241 C1219 0.950 . S
C1242 C1243 1.349 . S
C1242 C1244 1.327 . S
C1242 H1267 0.950 . S
C1243 C1242 1.349 . S
C1243 C1259 1.349 . S
C1244 C1242 1.327 . S
C1244 C1263 1.429 . S
C1244 H1268 0.950 . S
C1245 C1262 1.574 . S
C1245 C1264 1.368 . S
C1245 H1269 0.949 . S
H1246 C1250 0.949 . S
C1247 C1248 1.349 . S
C1247 C1249 1.327 . S
C1247 H1270 0.950 . S
C1248 C1247 1.349 . S
C1248 C1260 1.349 . S
C1249 C1247 1.327 . S
C1249 C1265 1.429 . S
C1249 H1271 0.950 . S
C1250 H1246 0.949 . S
C1250 C1258 1.574 . S
C1250 C1266 1.368 . S
H1251 C1259 0.950 . S
H1252 C1257 0.950 . S
H1253 C1258 0.949 . S
H1254 C1260 0.950 . S
H1255 C1261 0.950 . S
H1256 C1262 0.949 . S
C1257 H1252 0.950 . S
C1257 C1259 1.327 . S
C1257 C1263 1.429 . S
C1258 C1250 1.574 . S
C1258 H1253 0.949 . S
C1258 C1264 1.368 . S
C1259 C1243 1.349 . S
C1259 H1251 0.950 . S
C1259 C1257 1.327 . S
C1260 C1248 1.349 . S
C1260 H1254 0.950 . S
C1260 C1261 1.327 . S
C1261 H1255 0.950 . S
C1261 C1260 1.327 . S
C1261 C1265 1.429 . S
C1262 C1245 1.574 . S
C1262 H1256 0.949 . S
C1262 C1266 1.368 . S
C1263 C1244 1.429 . S
C1263 C1257 1.429 . S
C1263 C1264 1.523 . S
C1264 C1245 1.368 . S
C1264 C1258 1.368 . S
C1264 C1263 1.523 . S
C1265 C1249 1.429 . S
C1265 C1261 1.429 . S
C1265 C1266 1.523 . S
C1266 C1250 1.368 . S
C1266 C1262 1.368 . S
C1266 C1265 1.523 . S
H1267 C1242 0.950 . S
H1268 C1244 0.950 . S
H1269 C1245 0.949 . S
H1270 C1247 0.950 . S
H1271 C1249 0.950 . S
C1272 C1273 1.349 . S
C1272 C1274 1.327 1_556 S
C1272 H1297 0.950 . S
C1273 C1272 1.349 . S
C1273 C1289 1.349 . S
C1274 C1272 1.327 1_554 S
C1274 C1293 1.429 . S
C1274 H1298 0.950 . S
C1275 C1292 1.574 . S
C1275 C1294 1.368 . S
C1275 H1299 0.949 . S
H1276 C1280 0.949 . S
C1277 C1278 1.349 . S
C1277 C1279 1.327 . S
C1277 H1300 0.950 . S
C1278 C1277 1.349 . S
C1278 C1290 1.349 . S
C1279 C1277 1.327 . S
C1279 C1295 1.429 . S
C1279 H1301 0.950 . S
C1280 H1276 0.949 . S
C1280 C1288 1.574 . S
C1280 C1296 1.368 . S
H1281 C1289 0.950 . S
H1282 C1287 0.950 . S
H1283 C1288 0.949 . S
H1284 C1290 0.950 . S
H1285 C1291 0.950 . S
H1286 C1292 0.949 . S
C1287 H1282 0.950 . S
C1287 C1289 1.327 1_554 S
C1287 C1293 1.429 . S
C1288 C1280 1.574 . S
C1288 H1283 0.949 . S
C1288 C1294 1.368 . S
C1289 C1273 1.349 . S
C1289 H1281 0.950 . S
C1289 C1287 1.327 1_556 S
C1290 C1278 1.349 . S
C1290 H1284 0.950 . S
C1290 C1291 1.327 . S
C1291 H1285 0.950 . S
C1291 C1290 1.327 . S
C1291 C1295 1.429 . S
C1292 C1275 1.574 . S
C1292 H1286 0.949 . S
C1292 C1296 1.368 . S
C1293 C1274 1.429 . S
C1293 C1287 1.429 . S
C1293 C1294 1.523 . S
C1294 C1275 1.368 . S
C1294 C1288 1.368 . S
C1294 C1293 1.523 . S
C1295 C1279 1.429 . S
C1295 C1291 1.429 . S
C1295 C1296 1.523 . S
C1296 C1280 1.368 . S
C1296 C1292 1.368 . S
C1296 C1295 1.523 . S
H1297 C1272 0.950 . S
H1298 C1274 0.950 . S
H1299 C1275 0.949 . S
H1300 C1277 0.950 . S
H1301 C1279 0.950 . S
C1302 C1303 1.349 . S
C1302 C1304 1.327 . S
C1302 H1327 0.950 . S
C1303 C1302 1.349 . S
C1303 C1319 1.349 . S
C1304 C1302 1.327 . S
C1304 C1323 1.429 . S
C1304 H1328 0.950 . S
C1305 C1322 1.574 . S
C1305 C1324 1.368 . S
C1305 H1329 0.949 . S
H1306 C1310 0.949 . S
C1307 C1308 1.349 . S
C1307 C1309 1.327 . S
C1307 H1330 0.950 . S
C1308 C1307 1.349 . S
C1308 C1320 1.349 . S
C1309 C1307 1.327 . S
C1309 C1325 1.429 . S
C1309 H1331 0.950 . S
C1310 H1306 0.949 . S
C1310 C1318 1.574 . S
C1310 C1326 1.368 . S
H1311 C1319 0.950 . S
H1312 C1317 0.950 . S
H1313 C1318 0.949 . S
H1314 C1320 0.950 . S
H1315 C1321 0.950 . S
H1316 C1322 0.949 . S
C1317 H1312 0.950 . S
C1317 C1319 1.327 . S
C1317 C1323 1.429 . S
C1318 C1310 1.574 . S
C1318 H1313 0.949 . S
C1318 C1324 1.368 . S
C1319 C1303 1.349 . S
C1319 H1311 0.950 . S
C1319 C1317 1.327 . S
C1320 C1308 1.349 . S
C1320 H1314 0.950 . S
C1320 C1321 1.327 . S
C1321 H1315 0.950 . S
C1321 C1320 1.327 . S
C1321 C1325 1.429 . S
C1322 C1305 1.574 . S
C1322 H1316 0.949 . S
C1322 C1326 1.368 . S
C1323 C1304 1.429 . S
C1323 C1317 1.429 . S
C1323 C1324 1.523 . S
C1324 C1305 1.368 . S
C1324 C1318 1.368 . S
C1324 C1323 1.523 . S
C1325 C1309 1.429 . S
C1325 C1321 1.429 . S
C1325 C1326 1.523 . S
C1326 C1310 1.368 . S
C1326 C1322 1.368 . S
C1326 C1325 1.523 . S
H1327 C1302 0.950 . S
H1328 C1304 0.950 . S
H1329 C1305 0.949 . S
H1330 C1307 0.950 . S
H1331 C1309 0.950 . S
C1332 C1333 1.349 . S
C1332 C1334 1.327 . S
C1332 H1357 0.950 . S
C1333 C1332 1.349 . S
C1333 C1349 1.349 . S
C1334 C1332 1.327 . S
C1334 C1353 1.429 . S
C1334 H1358 0.950 . S
C1335 C1352 1.574 . S
C1335 C1354 1.368 . S
C1335 H1359 0.949 . S
H1336 C1340 0.949 . S
C1337 C1338 1.349 . S
C1337 C1339 1.327 . S
C1337 H1360 0.950 . S
C1338 C1337 1.349 . S
C1338 C1350 1.349 . S
C1339 C1337 1.327 . S
C1339 C1355 1.429 . S
C1339 H1361 0.950 . S
C1340 H1336 0.949 . S
C1340 C1348 1.574 . S
C1340 C1356 1.368 . S
H1341 C1349 0.950 . S
H1342 C1347 0.950 . S
H1343 C1348 0.949 . S
H1344 C1350 0.950 . S
H1345 C1351 0.950 . S
H1346 C1352 0.949 . S
C1347 H1342 0.950 . S
C1347 C1349 1.327 . S
C1347 C1353 1.429 . S
C1348 C1340 1.574 . S
C1348 H1343 0.949 . S
C1348 C1354 1.368 . S
C1349 C1333 1.349 . S
C1349 H1341 0.950 . S
C1349 C1347 1.327 . S
C1350 C1338 1.349 . S
C1350 H1344 0.950 . S
C1350 C1351 1.327 . S
C1351 H1345 0.950 . S
C1351 C1350 1.327 . S
C1351 C1355 1.429 . S
C1352 C1335 1.574 . S
C1352 H1346 0.949 . S
C1352 C1356 1.368 . S
C1353 C1334 1.429 . S
C1353 C1347 1.429 . S
C1353 C1354 1.523 . S
C1354 C1335 1.368 . S
C1354 C1348 1.368 . S
C1354 C1353 1.523 . S
C1355 C1339 1.429 . S
C1355 C1351 1.429 . S
C1355 C1356 1.523 . S
C1356 C1340 1.368 . S
C1356 C1352 1.368 . S
C1356 C1355 1.523 . S
H1357 C1332 0.950 . S
H1358 C1334 0.950 . S
H1359 C1335 0.949 . S
H1360 C1337 0.950 . S
H1361 C1339 0.950 . S
C1362 C1363 1.349 . S
C1362 C1364 1.327 . S
C1362 H1387 0.950 . S
C1363 C1362 1.349 . S
C1363 C1379 1.349 . S
C1364 C1362 1.327 . S
C1364 C1383 1.429 . S
C1364 H1388 0.950 . S
C1365 C1382 1.574 . S
C1365 C1384 1.368 . S
C1365 H1389 0.949 . S
H1366 C1370 0.949 . S
C1367 C1368 1.349 . S
C1367 C1369 1.327 1_565 S
C1367 H1390 0.950 . S
C1368 C1367 1.349 . S
C1368 C1380 1.349 . S
C1369 C1367 1.327 1_545 S
C1369 C1385 1.429 . S
C1369 H1391 0.950 . S
C1370 H1366 0.949 . S
C1370 C1378 1.574 . S
C1370 C1386 1.368 . S
H1371 C1379 0.950 . S
H1372 C1377 0.950 . S
H1373 C1378 0.949 . S
H1374 C1380 0.950 . S
H1375 C1381 0.981 . S
H1376 C1382 0.949 . S
C1377 H1372 0.950 . S
C1377 C1379 1.327 . S
C1377 C1383 1.429 . S
C1378 C1370 1.574 . S
C1378 H1373 0.949 . S
C1378 C1384 1.368 . S
C1379 C1363 1.349 . S
C1379 H1371 0.950 . S
C1379 C1377 1.327 . S
C1380 C1368 1.349 . S
C1380 H1374 0.950 . S
C1380 C1381 1.239 1_565 S
C1381 H1375 0.981 . S
C1381 C1380 1.239 1_545 S
C1381 C1385 1.491 . S
C1382 C1365 1.574 . S
C1382 H1376 0.949 . S
C1382 C1386 1.368 . S
C1383 C1364 1.429 . S
C1383 C1377 1.429 . S
C1383 C1384 1.523 . S
C1384 C1365 1.368 . S
C1384 C1378 1.368 . S
C1384 C1383 1.523 . S
C1385 C1369 1.429 . S
C1385 C1381 1.491 . S
C1385 C1386 1.523 . S
C1386 C1370 1.368 . S
C1386 C1382 1.368 . S
C1386 C1385 1.523 . S
H1387 C1362 0.950 . S
H1388 C1364 0.950 . S
H1389 C1365 0.949 . S
H1390 C1367 0.950 . S
H1391 C1369 0.950 . S
C1392 C1393 1.349 . S
C1392 C1394 1.327 . S
C1392 H1417 0.950 . S
C1393 C1392 1.349 . S
C1393 C1409 1.349 . S
C1394 C1392 1.327 . S
C1394 C1413 1.429 . S
C1394 H1418 0.950 . S
C1395 C1412 1.574 . S
C1395 C1414 1.368 . S
C1395 H1419 0.949 1_655 S
H1396 C1400 0.949 . S
C1397 C1398 1.349 . S
C1397 C1399 1.327 . S
C1397 H1420 0.950 1_655 S
C1398 C1397 1.349 . S
C1398 C1410 1.349 . S
C1399 C1397 1.327 . S
C1399 C1415 1.429 . S
C1399 H1421 0.950 1_655 S
C1400 H1396 0.949 . S
C1400 C1408 1.574 . S
C1400 C1416 1.368 . S
H1401 C1409 0.950 1_455 S
H1402 C1407 0.950 1_455 S
H1403 C1408 0.949 . S
H1404 C1410 0.950 . S
H1405 C1411 0.950 . S
H1406 C1412 0.949 1_455 S
C1407 H1402 0.950 1_655 S
C1407 C1409 1.327 . S
C1407 C1413 1.429 . S
C1408 C1400 1.574 . S
C1408 H1403 0.949 . S
C1408 C1414 1.368 . S
C1409 C1393 1.349 . S
C1409 H1401 0.950 1_655 S
C1409 C1407 1.327 . S
C1410 C1398 1.349 . S
C1410 H1404 0.950 . S
C1410 C1411 1.327 . S
C1411 H1405 0.950 . S
C1411 C1410 1.327 . S
C1411 C1415 1.429 . S
C1412 C1395 1.574 . S
C1412 H1406 0.949 1_655 S
C1412 C1416 1.368 . S
C1413 C1394 1.429 . S
C1413 C1407 1.429 . S
C1413 C1414 1.523 . S
C1414 C1395 1.368 . S
C1414 C1408 1.368 . S
C1414 C1413 1.523 . S
C1415 C1399 1.429 . S
C1415 C1411 1.429 . S
C1415 C1416 1.523 . S
C1416 C1400 1.368 . S
C1416 C1412 1.368 . S
C1416 C1415 1.523 . S
H1417 C1392 0.950 . S
H1418 C1394 0.950 . S
H1419 C1395 0.949 1_455 S
H1420 C1397 0.950 1_455 S
H1421 C1399 0.950 1_455 S
C1422 C1423 1.349 . S
C1422 C1424 1.327 . S
C1422 H1447 0.950 . S
C1423 C1422 1.349 . S
C1423 C1439 1.349 . S
C1424 C1422 1.327 . S
C1424 C1443 1.429 . S
C1424 H1448 0.950 . S
C1425 C1442 1.574 . S
C1425 C1444 1.368 . S
C1425 H1449 0.949 . S
H1426 C1430 0.949 . S
C1427 C1428 1.349 . S
C1427 C1429 1.327 . S
C1427 H1450 0.950 . S
C1428 C1427 1.349 . S
C1428 C1440 1.349 . S
C1429 C1427 1.327 . S
C1429 C1445 1.429 . S
C1429 H1451 0.950 . S
C1430 H1426 0.949 . S
C1430 C1438 1.574 . S
C1430 C1446 1.368 . S
H1431 C1439 0.950 . S
H1432 C1437 0.950 . S
H1433 C1438 0.949 . S
H1434 C1440 0.950 . S
H1435 C1441 0.950 . S
H1436 C1442 0.949 . S
C1437 H1432 0.950 . S
C1437 C1439 1.327 . S
C1437 C1443 1.429 . S
C1438 C1430 1.574 . S
C1438 H1433 0.949 . S
C1438 C1444 1.368 . S
C1439 C1423 1.349 . S
C1439 H1431 0.950 . S
C1439 C1437 1.327 . S
C1440 C1428 1.349 . S
C1440 H1434 0.950 . S
C1440 C1441 1.327 . S
C1441 H1435 0.950 . S
C1441 C1440 1.327 . S
C1441 C1445 1.429 . S
C1442 C1425 1.574 . S
C1442 H1436 0.949 . S
C1442 C1446 1.368 . S
C1443 C1424 1.429 . S
C1443 C1437 1.429 . S
C1443 C1444 1.523 . S
C1444 C1425 1.368 . S
C1444 C1438 1.368 . S
C1444 C1443 1.523 . S
C1445 C1429 1.429 . S
C1445 C1441 1.429 . S
C1445 C1446 1.523 . S
C1446 C1430 1.368 . S
C1446 C1442 1.368 . S
C1446 C1445 1.523 . S
H1447 C1422 0.950 . S
H1448 C1424 0.950 . S
H1449 C1425 0.949 . S
H1450 C1427 0.950 . S
H1451 C1429 0.950 . S
C1452 C1453 1.349 . S
C1452 C1454 1.327 . S
C1452 H1477 0.950 . S
C1453 C1452 1.349 . S
C1453 C1469 1.349 . S
C1454 C1452 1.327 . S
C1454 C1473 1.429 . S
C1454 H1478 0.950 . S
C1455 C1472 1.574 . S
C1455 C1474 1.368 . S
C1455 H1479 0.949 . S
H1456 C1460 0.949 . S
C1457 C1458 1.349 . S
C1457 C1459 1.327 . S
C1457 H1480 0.950 . S
C1458 C1457 1.349 . S
C1458 C1470 1.349 . S
C1459 C1457 1.327 . S
C1459 C1475 1.429 . S
C1459 H1481 0.950 . S
C1460 H1456 0.949 . S
C1460 C1468 1.574 . S
C1460 C1476 1.368 . S
H1461 C1469 0.950 . S
H1462 C1467 0.950 . S
H1463 C1468 0.949 . S
H1464 C1470 0.950 . S
H1465 C1471 0.950 . S
H1466 C1472 0.949 . S
C1467 H1462 0.950 . S
C1467 C1469 1.327 . S
C1467 C1473 1.429 . S
C1468 C1460 1.574 . S
C1468 H1463 0.949 . S
C1468 C1474 1.368 . S
C1469 C1453 1.349 . S
C1469 H1461 0.950 . S
C1469 C1467 1.327 . S
C1470 C1458 1.349 . S
C1470 H1464 0.950 . S
C1470 C1471 1.327 . S
C1471 H1465 0.950 . S
C1471 C1470 1.327 . S
C1471 C1475 1.429 . S
C1472 C1455 1.574 . S
C1472 H1466 0.949 . S
C1472 C1476 1.368 . S
C1473 C1454 1.429 . S
C1473 C1467 1.429 . S
C1473 C1474 1.523 . S
C1474 C1455 1.368 . S
C1474 C1468 1.368 . S
C1474 C1473 1.523 . S
C1475 C1459 1.429 . S
C1475 C1471 1.429 . S
C1475 C1476 1.523 . S
C1476 C1460 1.368 . S
C1476 C1472 1.368 . S
C1476 C1475 1.523 . S
H1477 C1452 0.950 . S
H1478 C1454 0.950 . S
H1479 C1455 0.949 . S
H1480 C1457 0.950 . S
H1481 C1459 0.950 . S
C1482 C1483 1.349 . S
C1482 C1484 1.327 . S
C1482 H1507 0.950 . S
C1483 C1482 1.349 . S
C1483 C1499 1.349 . S
C1484 C1482 1.327 . S
C1484 C1503 1.429 . S
C1484 H1508 0.950 . S
C1485 C1502 1.574 . S
C1485 C1504 1.368 . S
C1485 H1509 0.949 . S
H1486 C1490 0.949 . S
C1487 C1488 1.349 . S
C1487 C1489 1.327 . S
C1487 H1510 0.950 . S
C1488 C1487 1.349 . S
C1488 C1500 1.349 . S
C1489 C1487 1.327 . S
C1489 C1505 1.429 . S
C1489 H1511 0.950 . S
C1490 H1486 0.949 . S
C1490 C1498 1.574 . S
C1490 C1506 1.368 . S
H1491 C1499 0.950 . S
H1492 C1497 0.950 . S
H1493 C1498 0.949 . S
H1494 C1500 0.950 . S
H1495 C1501 0.950 . S
H1496 C1502 0.949 . S
C1497 H1492 0.950 . S
C1497 C1499 1.327 . S
C1497 C1503 1.429 . S
C1498 C1490 1.574 . S
C1498 H1493 0.949 . S
C1498 C1504 1.368 . S
C1499 C1483 1.349 . S
C1499 H1491 0.950 . S
C1499 C1497 1.327 . S
C1500 C1488 1.349 . S
C1500 H1494 0.950 . S
C1500 C1501 1.327 . S
C1501 H1495 0.950 . S
C1501 C1500 1.327 . S
C1501 C1505 1.429 . S
C1502 C1485 1.574 . S
C1502 H1496 0.949 . S
C1502 C1506 1.368 . S
C1503 C1484 1.429 . S
C1503 C1497 1.429 . S
C1503 C1504 1.523 . S
C1504 C1485 1.368 . S
C1504 C1498 1.368 . S
C1504 C1503 1.523 . S
C1505 C1489 1.429 . S
C1505 C1501 1.429 . S
C1505 C1506 1.523 . S
C1506 C1490 1.368 . S
C1506 C1502 1.368 . S
C1506 C1505 1.523 . S
H1507 C1482 0.950 . S
H1508 C1484 0.950 . S
H1509 C1485 0.949 . S
H1510 C1487 0.950 . S
H1511 C1489 0.950 . S
C1512 C1513 1.313 1_545 S
C1512 C1514 1.327 . S
C1512 H1537 0.986 . S
C1513 C1512 1.313 1_565 S
C1513 C1529 1.349 . S
C1514 C1512 1.327 . S
C1514 C1533 1.376 1_545 S
C1514 H1538 1.008 . S
C1515 C1532 1.574 . S
C1515 C1534 1.368 . S
C1515 H1539 0.949 . S
H1516 C1520 0.949 . S
C1517 C1518 1.349 . S
C1517 C1519 1.327 . S
C1517 H1540 0.950 . S
C1518 C1517 1.349 . S
C1518 C1530 1.298 1_565 S
C1519 C1517 1.327 . S
C1519 C1535 1.429 . S
C1519 H1541 0.950 . S
C1520 H1516 0.949 . S
C1520 C1528 1.574 . S
C1520 C1536 1.368 1_545 S
H1521 C1529 0.950 . S
H1522 C1527 0.950 . S
H1523 C1528 0.949 . S
H1524 C1530 1.003 . S
H1525 C1531 1.021 . S
H1526 C1532 0.949 . S
C1527 H1522 0.950 . S
C1527 C1529 1.327 . S
C1527 C1533 1.429 . S
C1528 C1520 1.574 . S
C1528 H1523 0.949 . S
C1528 C1534 1.368 1_545 S
C1529 C1513 1.349 . S
C1529 H1521 0.950 . S
C1529 C1527 1.327 . S
C1530 C1518 1.298 1_545 S
C1530 H1524 1.003 . S
C1530 C1531 1.327 . S
C1531 H1525 1.021 . S
C1531 C1530 1.327 . S
C1531 C1535 1.365 1_545 S
C1532 C1515 1.574 . S
C1532 H1526 0.949 . S
C1532 C1536 1.368 . S
C1533 C1514 1.376 1_565 S
C1533 C1527 1.429 . S
C1533 C1534 1.523 . S
C1534 C1515 1.368 . S
C1534 C1528 1.368 1_565 S
C1534 C1533 1.523 . S
C1535 C1519 1.429 . S
C1535 C1531 1.365 1_565 S
C1535 C1536 1.523 . S
C1536 C1520 1.368 1_565 S
C1536 C1532 1.368 . S
C1536 C1535 1.523 . S
H1537 C1512 0.986 . S
H1538 C1514 1.008 . S
H1539 C1515 0.949 . S
H1540 C1517 0.950 . S
H1541 C1519 0.950 . S
C1542 C1543 1.349 . S
C1542 C1544 1.327 . S
C1542 H1567 0.950 . S
C1543 C1542 1.349 . S
C1543 C1559 1.349 . S
C1544 C1542 1.327 . S
C1544 C1563 1.429 . S
C1544 H1568 0.950 . S
C1545 C1562 1.574 . S
C1545 C1564 1.368 . S
C1545 H1569 0.949 . S
H1546 C1550 0.949 . S
C1547 C1548 1.349 . S
C1547 C1549 1.327 . S
C1547 H1570 0.950 . S
C1548 C1547 1.349 . S
C1548 C1560 1.349 . S
C1549 C1547 1.327 . S
C1549 C1565 1.429 . S
C1549 H1571 0.950 . S
C1550 H1546 0.949 . S
C1550 C1558 1.574 . S
C1550 C1566 1.368 . S
H1551 C1559 0.950 . S
H1552 C1557 0.950 . S
H1553 C1558 0.949 . S
H1554 C1560 0.950 . S
H1555 C1561 0.950 . S
H1556 C1562 0.949 . S
C1557 H1552 0.950 . S
C1557 C1559 1.327 . S
C1557 C1563 1.429 . S
C1558 C1550 1.574 . S
C1558 H1553 0.949 . S
C1558 C1564 1.368 . S
C1559 C1543 1.349 . S
C1559 H1551 0.950 . S
C1559 C1557 1.327 . S
C1560 C1548 1.349 . S
C1560 H1554 0.950 . S
C1560 C1561 1.327 . S
C1561 H1555 0.950 . S
C1561 C1560 1.327 . S
C1561 C1565 1.429 . S
C1562 C1545 1.574 . S
C1562 H1556 0.949 . S
C1562 C1566 1.368 . S
C1563 C1544 1.429 . S
C1563 C1557 1.429 . S
C1563 C1564 1.523 . S
C1564 C1545 1.368 . S
C1564 C1558 1.368 . S
C1564 C1563 1.523 . S
C1565 C1549 1.429 . S
C1565 C1561 1.429 . S
C1565 C1566 1.523 . S
C1566 C1550 1.368 . S
C1566 C1562 1.368 . S
C1566 C1565 1.523 . S
H1567 C1542 0.950 . S
H1568 C1544 0.950 . S
H1569 C1545 0.949 . S
H1570 C1547 0.950 . S
H1571 C1549 0.950 . S
C1572 C1573 1.349 . S
C1572 C1574 1.327 . S
C1572 H1597 0.950 . S
C1573 C1572 1.349 . S
C1573 C1589 1.349 . S
C1574 C1572 1.327 . S
C1574 C1593 1.429 . S
C1574 H1598 0.950 . S
C1575 C1592 1.574 . S
C1575 C1594 1.368 . S
C1575 H1599 0.949 . S
H1576 C1580 0.949 . S
C1577 C1578 1.349 . S
C1577 C1579 1.327 . S
C1577 H1600 0.950 . S
C1578 C1577 1.349 . S
C1578 C1590 1.349 . S
C1579 C1577 1.327 . S
C1579 C1595 1.429 . S
C1579 H1601 0.950 . S
C1580 H1576 0.949 . S
C1580 C1588 1.574 . S
C1580 C1596 1.368 . S
H1581 C1589 0.950 . S
H1582 C1587 0.950 . S
H1583 C1588 0.949 . S
H1584 C1590 0.950 . S
H1585 C1591 0.950 . S
H1586 C1592 0.949 . S
C1587 H1582 0.950 . S
C1587 C1589 1.327 . S
C1587 C1593 1.429 . S
C1588 C1580 1.574 . S
C1588 H1583 0.949 . S
C1588 C1594 1.368 . S
C1589 C1573 1.349 . S
C1589 H1581 0.950 . S
C1589 C1587 1.327 . S
C1590 C1578 1.349 . S
C1590 H1584 0.950 . S
C1590 C1591 1.327 . S
C1591 H1585 0.950 . S
C1591 C1590 1.327 . S
C1591 C1595 1.429 . S
C1592 C1575 1.574 . S
C1592 H1586 0.949 . S
C1592 C1596 1.368 . S
C1593 C1574 1.429 . S
C1593 C1587 1.429 . S
C1593 C1594 1.523 . S
C1594 C1575 1.368 . S
C1594 C1588 1.368 . S
C1594 C1593 1.523 . S
C1595 C1579 1.429 . S
C1595 C1591 1.429 . S
C1595 C1596 1.523 . S
C1596 C1580 1.368 . S
C1596 C1592 1.368 . S
C1596 C1595 1.523 . S
H1597 C1572 0.950 . S
H1598 C1574 0.950 . S
H1599 C1575 0.949 . S
H1600 C1577 0.950 . S
H1601 C1579 0.950 . S
C1602 C1603 1.349 . S
C1602 C1604 1.327 . S
C1602 H1627 0.950 . S
C1603 C1602 1.349 . S
C1603 C1619 1.349 . S
C1604 C1602 1.327 . S
C1604 C1623 1.429 . S
C1604 H1628 0.950 . S
C1605 C1622 1.574 . S
C1605 C1624 1.368 . S
C1605 H1629 0.949 . S
H1606 C1610 0.949 . S
C1607 C1608 1.349 . S
C1607 C1609 1.327 . S
C1607 H1630 0.950 . S
C1608 C1607 1.349 . S
C1608 C1620 1.349 . S
C1609 C1607 1.327 . S
C1609 C1625 1.429 . S
C1609 H1631 0.950 . S
C1610 H1606 0.949 . S
C1610 C1618 1.574 . S
C1610 C1626 1.368 . S
H1611 C1619 0.950 . S
H1612 C1617 0.950 . S
H1613 C1618 0.949 . S
H1614 C1620 0.950 . S
H1615 C1621 0.950 . S
H1616 C1622 0.949 . S
C1617 H1612 0.950 . S
C1617 C1619 1.327 . S
C1617 C1623 1.429 . S
C1618 C1610 1.574 . S
C1618 H1613 0.949 . S
C1618 C1624 1.368 . S
C1619 C1603 1.349 . S
C1619 H1611 0.950 . S
C1619 C1617 1.327 . S
C1620 C1608 1.349 . S
C1620 H1614 0.950 . S
C1620 C1621 1.327 . S
C1621 H1615 0.950 . S
C1621 C1620 1.327 . S
C1621 C1625 1.429 . S
C1622 C1605 1.574 . S
C1622 H1616 0.949 . S
C1622 C1626 1.368 . S
C1623 C1604 1.429 . S
C1623 C1617 1.429 . S
C1623 C1624 1.523 . S
C1624 C1605 1.368 . S
C1624 C1618 1.368 . S
C1624 C1623 1.523 . S
C1625 C1609 1.429 . S
C1625 C1621 1.429 . S
C1625 C1626 1.523 . S
C1626 C1610 1.368 . S
C1626 C1622 1.368 . S
C1626 C1625 1.523 . S
H1627 C1602 0.950 . S
H1628 C1604 0.950 . S
H1629 C1605 0.949 . S
H1630 C1607 0.950 . S
H1631 C1609 0.950 . S
C1632 C1633 1.349 . S
C1632 C1634 1.327 . S
C1632 H1657 0.950 . S
C1633 C1632 1.349 . S
C1633 C1649 1.349 . S
C1634 C1632 1.327 . S
C1634 C1653 1.429 . S
C1634 H1658 0.950 . S
C1635 C1652 1.574 . S
C1635 C1654 1.368 . S
C1635 H1659 0.949 . S
H1636 C1640 0.949 . S
C1637 C1638 1.349 . S
C1637 C1639 1.327 . S
C1637 H1660 0.950 . S
C1638 C1637 1.349 . S
C1638 C1650 1.349 . S
C1639 C1637 1.327 . S
C1639 C1655 1.429 . S
C1639 H1661 0.950 . S
C1640 H1636 0.949 . S
C1640 C1648 1.574 . S
C1640 C1656 1.368 . S
H1641 C1649 0.950 . S
H1642 C1647 0.950 . S
H1643 C1648 0.949 . S
H1644 C1650 0.950 . S
H1645 C1651 0.950 . S
H1646 C1652 0.949 . S
C1647 H1642 0.950 . S
C1647 C1649 1.327 . S
C1647 C1653 1.429 . S
C1648 C1640 1.574 . S
C1648 H1643 0.949 . S
C1648 C1654 1.368 . S
C1649 C1633 1.349 . S
C1649 H1641 0.950 . S
C1649 C1647 1.327 . S
C1650 C1638 1.349 . S
C1650 H1644 0.950 . S
C1650 C1651 1.327 . S
C1651 H1645 0.950 . S
C1651 C1650 1.327 . S
C1651 C1655 1.429 . S
C1652 C1635 1.574 . S
C1652 H1646 0.949 . S
C1652 C1656 1.368 . S
C1653 C1634 1.429 . S
C1653 C1647 1.429 . S
C1653 C1654 1.523 . S
C1654 C1635 1.368 . S
C1654 C1648 1.368 . S
C1654 C1653 1.523 . S
C1655 C1639 1.429 . S
C1655 C1651 1.429 . S
C1655 C1656 1.523 . S
C1656 C1640 1.368 . S
C1656 C1652 1.368 . S
C1656 C1655 1.523 . S
H1657 C1632 0.950 . S
H1658 C1634 0.950 . S
H1659 C1635 0.949 . S
H1660 C1637 0.950 . S
H1661 C1639 0.950 . S
C1662 C1663 1.349 . S
C1662 C1664 1.327 . S
C1662 H1687 0.950 . S
C1663 C1662 1.349 . S
C1663 C1679 1.349 . S
C1664 C1662 1.327 . S
C1664 C1683 1.429 . S
C1664 H1688 0.950 . S
C1665 C1682 1.574 . S
C1665 C1684 1.368 . S
C1665 H1689 0.949 . S
H1666 C1670 0.949 . S
C1667 C1668 1.349 . S
C1667 C1669 1.327 . S
C1667 H1690 0.950 . S
C1668 C1667 1.349 . S
C1668 C1680 1.349 . S
C1669 C1667 1.327 . S
C1669 C1685 1.429 . S
C1669 H1691 0.950 . S
C1670 H1666 0.949 . S
C1670 C1678 1.574 . S
C1670 C1686 1.368 . S
H1671 C1679 0.950 . S
H1672 C1677 0.950 . S
H1673 C1678 0.949 . S
H1674 C1680 0.950 . S
H1675 C1681 0.950 . S
H1676 C1682 0.949 . S
C1677 H1672 0.950 . S
C1677 C1679 1.327 . S
C1677 C1683 1.429 . S
C1678 C1670 1.574 . S
C1678 H1673 0.949 . S
C1678 C1684 1.368 . S
C1679 C1663 1.349 . S
C1679 H1671 0.950 . S
C1679 C1677 1.327 . S
C1680 C1668 1.349 . S
C1680 H1674 0.950 . S
C1680 C1681 1.327 . S
C1681 H1675 0.950 . S
C1681 C1680 1.327 . S
C1681 C1685 1.429 . S
C1682 C1665 1.574 . S
C1682 H1676 0.949 . S
C1682 C1686 1.368 . S
C1683 C1664 1.429 . S
C1683 C1677 1.429 . S
C1683 C1684 1.523 . S
C1684 C1665 1.368 . S
C1684 C1678 1.368 . S
C1684 C1683 1.523 . S
C1685 C1669 1.429 . S
C1685 C1681 1.429 . S
C1685 C1686 1.523 . S
C1686 C1670 1.368 . S
C1686 C1682 1.368 . S
C1686 C1685 1.523 . S
H1687 C1662 0.950 . S
H1688 C1664 0.950 . S
H1689 C1665 0.949 . S
H1690 C1667 0.950 . S
H1691 C1669 0.950 . S
C1692 C1693 1.349 . S
C1692 C1694 1.327 . S
C1692 H1717 0.950 . S
C1693 C1692 1.349 . S
C1693 C1709 1.349 . S
C1694 C1692 1.327 . S
C1694 C1713 1.429 . S
C1694 H1718 0.950 . S
C1695 C1712 1.574 . S
C1695 C1714 1.368 . S
C1695 H1719 0.949 . S
H1696 C1700 0.949 . S
C1697 C1698 1.349 . S
C1697 C1699 1.327 . S
C1697 H1720 0.950 . S
C1698 C1697 1.349 . S
C1698 C1710 1.349 . S
C1699 C1697 1.327 . S
C1699 C1715 1.429 . S
C1699 H1721 0.950 . S
C1700 H1696 0.949 . S
C1700 C1708 1.574 . S
C1700 C1716 1.368 . S
H1701 C1709 0.950 . S
H1702 C1707 0.950 . S
H1703 C1708 0.949 . S
H1704 C1710 0.950 . S
H1705 C1711 0.950 . S
H1706 C1712 0.949 . S
C1707 H1702 0.950 . S
C1707 C1709 1.327 . S
C1707 C1713 1.429 . S
C1708 C1700 1.574 . S
C1708 H1703 0.949 . S
C1708 C1714 1.368 . S
C1709 C1693 1.349 . S
C1709 H1701 0.950 . S
C1709 C1707 1.327 . S
C1710 C1698 1.349 . S
C1710 H1704 0.950 . S
C1710 C1711 1.327 . S
C1711 H1705 0.950 . S
C1711 C1710 1.327 . S
C1711 C1715 1.429 . S
C1712 C1695 1.574 . S
C1712 H1706 0.949 . S
C1712 C1716 1.368 . S
C1713 C1694 1.429 . S
C1713 C1707 1.429 . S
C1713 C1714 1.523 . S
C1714 C1695 1.368 . S
C1714 C1708 1.368 . S
C1714 C1713 1.523 . S
C1715 C1699 1.429 . S
C1715 C1711 1.429 . S
C1715 C1716 1.523 . S
C1716 C1700 1.368 . S
C1716 C1712 1.368 . S
C1716 C1715 1.523 . S
H1717 C1692 0.950 . S
H1718 C1694 0.950 . S
H1719 C1695 0.949 . S
H1720 C1697 0.950 . S
H1721 C1699 0.950 . S
C1722 C1723 1.313 1_554 S
C1722 C1724 1.327 . S
C1722 H1747 0.987 . S
C1723 C1722 1.313 1_556 S
C1723 C1739 1.349 . S
C1724 C1722 1.327 . S
C1724 C1743 1.375 1_554 S
C1724 H1748 1.009 . S
C1725 C1742 1.574 . S
C1725 C1744 1.368 . S
C1725 H1749 0.949 . S
H1726 C1730 0.949 . S
C1727 C1728 1.349 . S
C1727 C1729 1.327 . S
C1727 H1750 0.950 . S
C1728 C1727 1.349 . S
C1728 C1740 1.295 1_556 S
C1729 C1727 1.327 . S
C1729 C1745 1.429 . S
C1729 H1751 0.950 . S
C1730 H1726 0.949 . S
C1730 C1738 1.574 . S
C1730 C1746 1.368 1_554 S
H1731 C1739 0.950 . S
H1732 C1737 0.950 . S
H1733 C1738 0.949 . S
H1734 C1740 1.006 . S
H1735 C1741 1.023 . S
H1736 C1742 0.949 . S
C1737 H1732 0.950 . S
C1737 C1739 1.327 . S
C1737 C1743 1.429 . S
C1738 C1730 1.574 . S
C1738 H1733 0.949 . S
C1738 C1744 1.368 1_554 S
C1739 C1723 1.349 . S
C1739 H1731 0.950 . S
C1739 C1737 1.327 . S
C1740 C1728 1.295 1_554 S
C1740 H1734 1.006 . S
C1740 C1741 1.327 . S
C1741 H1735 1.023 . S
C1741 C1740 1.327 . S
C1741 C1745 1.363 1_554 S
C1742 C1725 1.574 . S
C1742 H1736 0.949 . S
C1742 C1746 1.368 . S
C1743 C1724 1.375 1_556 S
C1743 C1737 1.429 . S
C1743 C1744 1.523 . S
C1744 C1725 1.368 . S
C1744 C1738 1.368 1_556 S
C1744 C1743 1.523 . S
C1745 C1729 1.429 . S
C1745 C1741 1.363 1_556 S
C1745 C1746 1.523 . S
C1746 C1730 1.368 1_556 S
C1746 C1742 1.368 . S
C1746 C1745 1.523 . S
H1747 C1722 0.987 . S
H1748 C1724 1.009 . S
H1749 C1725 0.949 . S
H1750 C1727 0.950 . S
H1751 C1729 0.950 . S
C1752 C1753 1.349 . S
C1752 C1754 1.327 . S
C1752 H1777 0.950 . S
C1753 C1752 1.349 . S
C1753 C1769 1.349 . S
C1754 C1752 1.327 . S
C1754 C1773 1.429 . S
C1754 H1778 0.950 . S
C1755 C1772 1.574 . S
C1755 C1774 1.368 . S
C1755 H1779 0.949 . S
H1756 C1760 0.949 . S
C1757 C1758 1.349 . S
C1757 C1759 1.327 . S
C1757 H1780 0.950 . S
C1758 C1757 1.349 . S
C1758 C1770 1.349 . S
C1759 C1757 1.327 . S
C1759 C1775 1.429 . S
C1759 H1781 0.950 . S
C1760 H1756 0.949 . S
C1760 C1768 1.574 . S
C1760 C1776 1.368 . S
H1761 C1769 0.950 . S
H1762 C1767 0.950 . S
H1763 C1768 0.949 . S
H1764 C1770 0.950 . S
H1765 C1771 0.950 . S
H1766 C1772 0.949 . S
C1767 H1762 0.950 . S
C1767 C1769 1.327 . S
C1767 C1773 1.429 . S
C1768 C1760 1.574 . S
C1768 H1763 0.949 . S
C1768 C1774 1.368 . S
C1769 C1753 1.349 . S
C1769 H1761 0.950 . S
C1769 C1767 1.327 . S
C1770 C1758 1.349 . S
C1770 H1764 0.950 . S
C1770 C1771 1.327 . S
C1771 H1765 0.950 . S
C1771 C1770 1.327 . S
C1771 C1775 1.429 . S
C1772 C1755 1.574 . S
C1772 H1766 0.949 . S
C1772 C1776 1.368 . S
C1773 C1754 1.429 . S
C1773 C1767 1.429 . S
C1773 C1774 1.523 . S
C1774 C1755 1.368 . S
C1774 C1768 1.368 . S
C1774 C1773 1.523 . S
C1775 C1759 1.429 . S
C1775 C1771 1.429 . S
C1775 C1776 1.523 . S
C1776 C1760 1.368 . S
C1776 C1772 1.368 . S
C1776 C1775 1.523 . S
H1777 C1752 0.950 . S
H1778 C1754 0.950 . S
H1779 C1755 0.949 . S
H1780 C1757 0.950 . S
H1781 C1759 0.950 . S
C1782 C1783 1.349 . S
C1782 C1784 1.327 . S
C1782 H1807 0.950 . S
C1783 C1782 1.349 . S
C1783 C1799 1.349 . S
C1784 C1782 1.327 . S
C1784 C1803 1.429 . S
C1784 H1808 0.950 . S
C1785 C1802 1.574 . S
C1785 C1804 1.368 . S
C1785 H1809 0.949 . S
H1786 C1790 0.949 . S
C1787 C1788 1.349 . S
C1787 C1789 1.327 . S
C1787 H1810 0.950 . S
C1788 C1787 1.349 . S
C1788 C1800 1.349 . S
C1789 C1787 1.327 . S
C1789 C1805 1.429 . S
C1789 H1811 0.950 . S
C1790 H1786 0.949 . S
C1790 C1798 1.574 . S
C1790 C1806 1.368 . S
H1791 C1799 0.950 . S
H1792 C1797 0.950 . S
H1793 C1798 0.949 . S
H1794 C1800 0.950 . S
H1795 C1801 0.950 . S
H1796 C1802 0.949 . S
C1797 H1792 0.950 . S
C1797 C1799 1.327 . S
C1797 C1803 1.429 . S
C1798 C1790 1.574 . S
C1798 H1793 0.949 . S
C1798 C1804 1.368 . S
C1799 C1783 1.349 . S
C1799 H1791 0.950 . S
C1799 C1797 1.327 . S
C1800 C1788 1.349 . S
C1800 H1794 0.950 . S
C1800 C1801 1.327 . S
C1801 H1795 0.950 . S
C1801 C1800 1.327 . S
C1801 C1805 1.429 . S
C1802 C1785 1.574 . S
C1802 H1796 0.949 . S
C1802 C1806 1.368 . S
C1803 C1784 1.429 . S
C1803 C1797 1.429 . S
C1803 C1804 1.523 . S
C1804 C1785 1.368 . S
C1804 C1798 1.368 . S
C1804 C1803 1.523 . S
C1805 C1789 1.429 . S
C1805 C1801 1.429 . S
C1805 C1806 1.523 . S
C1806 C1790 1.368 . S
C1806 C1802 1.368 . S
C1806 C1805 1.523 . S
H1807 C1782 0.950 . S
H1808 C1784 0.950 . S
H1809 C1785 0.949 . S
H1810 C1787 0.950 . S
H1811 C1789 0.950 . S
C1812 C1813 1.349 . S
C1812 C1814 1.327 . S
C1812 H1837 0.950 . S
C1813 C1812 1.349 . S
C1813 C1829 1.349 . S
C1814 C1812 1.327 . S
C1814 C1833 1.429 . S
C1814 H1838 0.950 . S
C1815 C1832 1.574 . S
C1815 C1834 1.368 . S
C1815 H1839 0.949 . S
H1816 C1820 0.949 . S
C1817 C1818 1.349 . S
C1817 C1819 1.327 . S
C1817 H1840 0.950 . S
C1818 C1817 1.349 . S
C1818 C1830 1.349 . S
C1819 C1817 1.327 . S
C1819 C1835 1.429 . S
C1819 H1841 0.950 . S
C1820 H1816 0.949 . S
C1820 C1828 1.574 . S
C1820 C1836 1.368 . S
H1821 C1829 0.950 . S
H1822 C1827 0.950 . S
H1823 C1828 0.949 . S
H1824 C1830 0.950 . S
H1825 C1831 0.950 . S
H1826 C1832 0.949 . S
C1827 H1822 0.950 . S
C1827 C1829 1.327 . S
C1827 C1833 1.429 . S
C1828 C1820 1.574 . S
C1828 H1823 0.949 . S
C1828 C1834 1.368 . S
C1829 C1813 1.349 . S
C1829 H1821 0.950 . S
C1829 C1827 1.327 . S
C1830 C1818 1.349 . S
C1830 H1824 0.950 . S
C1830 C1831 1.327 . S
C1831 H1825 0.950 . S
C1831 C1830 1.327 . S
C1831 C1835 1.429 . S
C1832 C1815 1.574 . S
C1832 H1826 0.949 . S
C1832 C1836 1.368 . S
C1833 C1814 1.429 . S
C1833 C1827 1.429 . S
C1833 C1834 1.523 . S
C1834 C1815 1.368 . S
C1834 C1828 1.368 . S
C1834 C1833 1.523 . S
C1835 C1819 1.429 . S
C1835 C1831 1.429 . S
C1835 C1836 1.523 . S
C1836 C1820 1.368 . S
C1836 C1832 1.368 . S
C1836 C1835 1.523 . S
H1837 C1812 0.950 . S
H1838 C1814 0.950 . S
H1839 C1815 0.949 . S
H1840 C1817 0.950 . S
H1841 C1819 0.950 . S
C1842 C1843 1.349 . S
C1842 C1844 1.327 . S
C1842 H1867 0.950 . S
C1843 C1842 1.349 . S
C1843 C1859 1.349 . S
C1844 C1842 1.327 . S
C1844 C1863 1.429 . S
C1844 H1868 0.950 . S
C1845 C1862 1.574 . S
C1845 C1864 1.368 . S
C1845 H1869 0.949 . S
H1846 C1850 0.949 . S
C1847 C1848 1.349 . S
C1847 C1849 1.327 . S
C1847 H1870 0.950 . S
C1848 C1847 1.349 . S
C1848 C1860 1.349 . S
C1849 C1847 1.327 . S
C1849 C1865 1.429 . S
C1849 H1871 0.950 . S
C1850 H1846 0.949 . S
C1850 C1858 1.574 . S
C1850 C1866 1.368 . S
H1851 C1859 0.950 . S
H1852 C1857 0.950 . S
H1853 C1858 0.949 . S
H1854 C1860 0.950 . S
H1855 C1861 0.950 . S
H1856 C1862 0.949 . S
C1857 H1852 0.950 . S
C1857 C1859 1.327 . S
C1857 C1863 1.429 . S
C1858 C1850 1.574 . S
C1858 H1853 0.949 . S
C1858 C1864 1.368 . S
C1859 C1843 1.349 . S
C1859 H1851 0.950 . S
C1859 C1857 1.327 . S
C1860 C1848 1.349 . S
C1860 H1854 0.950 . S
C1860 C1861 1.327 . S
C1861 H1855 0.950 . S
C1861 C1860 1.327 . S
C1861 C1865 1.429 . S
C1862 C1845 1.574 . S
C1862 H1856 0.949 . S
C1862 C1866 1.368 . S
C1863 C1844 1.429 . S
C1863 C1857 1.429 . S
C1863 C1864 1.523 . S
C1864 C1845 1.368 . S
C1864 C1858 1.368 . S
C1864 C1863 1.523 . S
C1865 C1849 1.429 . S
C1865 C1861 1.429 . S
C1865 C1866 1.523 . S
C1866 C1850 1.368 . S
C1866 C1862 1.368 . S
C1866 C1865 1.523 . S
H1867 C1842 0.950 . S
H1868 C1844 0.950 . S
H1869 C1845 0.949 . S
H1870 C1847 0.950 . S
H1871 C1849 0.950 . S
C1872 C1873 1.349 . S
C1872 C1874 1.327 . S
C1872 H1897 0.950 . S
C1873 C1872 1.349 . S
C1873 C1889 1.349 . S
C1874 C1872 1.327 . S
C1874 C1893 1.429 . S
C1874 H1898 0.950 . S
C1875 C1892 1.574 . S
C1875 C1894 1.368 . S
C1875 H1899 0.949 . S
H1876 C1880 0.949 . S
C1877 C1878 1.349 . S
C1877 C1879 1.327 . S
C1877 H1900 0.950 . S
C1878 C1877 1.349 . S
C1878 C1890 1.349 . S
C1879 C1877 1.327 . S
C1879 C1895 1.429 . S
C1879 H1901 0.950 . S
C1880 H1876 0.949 . S
C1880 C1888 1.574 . S
C1880 C1896 1.368 . S
H1881 C1889 0.950 . S
H1882 C1887 0.950 . S
H1883 C1888 0.949 . S
H1884 C1890 0.950 . S
H1885 C1891 0.950 . S
H1886 C1892 0.949 . S
C1887 H1882 0.950 . S
C1887 C1889 1.327 . S
C1887 C1893 1.429 . S
C1888 C1880 1.574 . S
C1888 H1883 0.949 . S
C1888 C1894 1.368 . S
C1889 C1873 1.349 . S
C1889 H1881 0.950 . S
C1889 C1887 1.327 . S
C1890 C1878 1.349 . S
C1890 H1884 0.950 . S
C1890 C1891 1.327 . S
C1891 H1885 0.950 . S
C1891 C1890 1.327 . S
C1891 C1895 1.429 . S
C1892 C1875 1.574 . S
C1892 H1886 0.949 . S
C1892 C1896 1.368 . S
C1893 C1874 1.429 . S
C1893 C1887 1.429 . S
C1893 C1894 1.523 . S
C1894 C1875 1.368 . S
C1894 C1888 1.368 . S
C1894 C1893 1.523 . S
C1895 C1879 1.429 . S
C1895 C1891 1.429 . S
C1895 C1896 1.523 . S
C1896 C1880 1.368 . S
C1896 C1892 1.368 . S
C1896 C1895 1.523 . S
H1897 C1872 0.950 . S
H1898 C1874 0.950 . S
H1899 C1875 0.949 . S
H1900 C1877 0.950 . S
H1901 C1879 0.950 . S
C1902 C1903 1.349 . S
C1902 C1904 1.327 . S
C1902 H1927 0.950 . S
C1903 C1902 1.349 . S
C1903 C1919 1.349 . S
C1904 C1902 1.327 . S
C1904 C1923 1.429 . S
C1904 H1928 0.950 . S
C1905 C1922 1.574 . S
C1905 C1924 1.368 . S
C1905 H1929 0.949 . S
H1906 C1910 0.949 . S
C1907 C1908 1.349 . S
C1907 C1909 1.327 . S
C1907 H1930 0.950 . S
C1908 C1907 1.349 . S
C1908 C1920 1.349 . S
C1909 C1907 1.327 . S
C1909 C1925 1.429 . S
C1909 H1931 0.950 . S
C1910 H1906 0.949 . S
C1910 C1918 1.574 . S
C1910 C1926 1.368 . S
H1911 C1919 0.950 . S
H1912 C1917 0.950 . S
H1913 C1918 0.949 . S
H1914 C1920 0.950 . S
H1915 C1921 0.950 . S
H1916 C1922 0.949 . S
C1917 H1912 0.950 . S
C1917 C1919 1.327 . S
C1917 C1923 1.429 . S
C1918 C1910 1.574 . S
C1918 H1913 0.949 . S
C1918 C1924 1.368 . S
C1919 C1903 1.349 . S
C1919 H1911 0.950 . S
C1919 C1917 1.327 . S
C1920 C1908 1.349 . S
C1920 H1914 0.950 . S
C1920 C1921 1.327 . S
C1921 H1915 0.950 . S
C1921 C1920 1.327 . S
C1921 C1925 1.429 . S
C1922 C1905 1.574 . S
C1922 H1916 0.949 . S
C1922 C1926 1.368 . S
C1923 C1904 1.429 . S
C1923 C1917 1.429 . S
C1923 C1924 1.523 . S
C1924 C1905 1.368 . S
C1924 C1918 1.368 . S
C1924 C1923 1.523 . S
C1925 C1909 1.429 . S
C1925 C1921 1.429 . S
C1925 C1926 1.523 . S
C1926 C1910 1.368 . S
C1926 C1922 1.368 . S
C1926 C1925 1.523 . S
H1927 C1902 0.950 . S
H1928 C1904 0.950 . S
H1929 C1905 0.949 . S
H1930 C1907 0.950 . S
H1931 C1909 0.950 . S
C1932 C1933 1.349 . S
C1932 C1934 1.327 . S
C1932 H1957 0.950 . S
C1933 C1932 1.349 . S
C1933 C1949 1.349 . S
C1934 C1932 1.327 . S
C1934 C1953 1.429 . S
C1934 H1958 0.950 . S
C1935 C1952 1.574 . S
C1935 C1954 1.368 . S
C1935 H1959 0.949 . S
H1936 C1940 0.949 . S
C1937 C1938 1.349 . S
C1937 C1939 1.327 . S
C1937 H1960 0.950 . S
C1938 C1937 1.349 . S
C1938 C1950 1.349 . S
C1939 C1937 1.327 . S
C1939 C1955 1.429 . S
C1939 H1961 0.950 . S
C1940 H1936 0.949 . S
C1940 C1948 1.574 . S
C1940 C1956 1.368 . S
H1941 C1949 0.950 . S
H1942 C1947 0.950 . S
H1943 C1948 0.949 . S
H1944 C1950 0.950 . S
H1945 C1951 0.950 . S
H1946 C1952 0.949 . S
C1947 H1942 0.950 . S
C1947 C1949 1.327 . S
C1947 C1953 1.429 . S
C1948 C1940 1.574 . S
C1948 H1943 0.949 . S
C1948 C1954 1.368 . S
C1949 C1933 1.349 . S
C1949 H1941 0.950 . S
C1949 C1947 1.327 . S
C1950 C1938 1.349 . S
C1950 H1944 0.950 . S
C1950 C1951 1.327 . S
C1951 H1945 0.950 . S
C1951 C1950 1.327 . S
C1951 C1955 1.429 . S
C1952 C1935 1.574 . S
C1952 H1946 0.949 . S
C1952 C1956 1.368 . S
C1953 C1934 1.429 . S
C1953 C1947 1.429 . S
C1953 C1954 1.523 . S
C1954 C1935 1.368 . S
C1954 C1948 1.368 . S
C1954 C1953 1.523 . S
C1955 C1939 1.429 . S
C1955 C1951 1.429 . S
C1955 C1956 1.523 . S
C1956 C1940 1.368 . S
C1956 C1952 1.368 . S
C1956 C1955 1.523 . S
H1957 C1932 0.950 . S
H1958 C1934 0.950 . S
H1959 C1935 0.949 . S
H1960 C1937 0.950 . S
H1961 C1939 0.950 . S
C1962 C1963 1.349 . S
C1962 C1964 1.327 . S
C1962 H1987 0.950 . S
C1963 C1962 1.349 . S
C1963 C1979 1.349 . S
C1964 C1962 1.327 . S
C1964 C1983 1.429 . S
C1964 H1988 0.950 . S
C1965 C1982 1.574 . S
C1965 C1984 1.368 . S
C1965 H1989 0.949 . S
H1966 C1970 0.949 . S
C1967 C1968 1.349 . S
C1967 C1969 1.327 . S
C1967 H1990 0.950 . S
C1968 C1967 1.349 . S
C1968 C1980 1.349 . S
C1969 C1967 1.327 . S
C1969 C1985 1.429 . S
C1969 H1991 0.950 . S
C1970 H1966 0.949 . S
C1970 C1978 1.574 . S
C1970 C1986 1.368 . S
H1971 C1979 0.950 . S
H1972 C1977 0.950 . S
H1973 C1978 0.949 . S
H1974 C1980 0.950 . S
H1975 C1981 0.950 . S
H1976 C1982 0.949 . S
C1977 H1972 0.950 . S
C1977 C1979 1.327 . S
C1977 C1983 1.429 . S
C1978 C1970 1.574 . S
C1978 H1973 0.949 . S
C1978 C1984 1.368 . S
C1979 C1963 1.349 . S
C1979 H1971 0.950 . S
C1979 C1977 1.327 . S
C1980 C1968 1.349 . S
C1980 H1974 0.950 . S
C1980 C1981 1.327 . S
C1981 H1975 0.950 . S
C1981 C1980 1.327 . S
C1981 C1985 1.429 . S
C1982 C1965 1.574 . S
C1982 H1976 0.949 . S
C1982 C1986 1.368 . S
C1983 C1964 1.429 . S
C1983 C1977 1.429 . S
C1983 C1984 1.523 . S
C1984 C1965 1.368 . S
C1984 C1978 1.368 . S
C1984 C1983 1.523 . S
C1985 C1969 1.429 . S
C1985 C1981 1.429 . S
C1985 C1986 1.523 . S
C1986 C1970 1.368 . S
C1986 C1982 1.368 . S
C1986 C1985 1.523 . S
H1987 C1962 0.950 . S
H1988 C1964 0.950 . S
H1989 C1965 0.949 . S
H1990 C1967 0.950 . S
H1991 C1969 0.950 . S
C1992 C1993 1.349 . S
C1992 C1994 1.327 . S
C1992 H2017 0.950 . S
C1993 C1992 1.349 . S
C1993 C2009 1.349 . S
C1994 C1992 1.327 . S
C1994 C2013 1.429 . S
C1994 H2018 0.950 . S
C1995 C2012 1.574 . S
C1995 C2014 1.368 . S
C1995 H2019 0.949 . S
H1996 C2000 0.949 . S
C1997 C1998 1.349 . S
C1997 C1999 1.327 . S
C1997 H2020 0.950 . S
C1998 C1997 1.349 . S
C1998 C2010 1.349 . S
C1999 C1997 1.327 . S
C1999 C2015 1.429 . S
C1999 H2021 0.950 . S
C2000 H1996 0.949 . S
C2000 C2008 1.574 . S
C2000 C2016 1.368 . S
H2001 C2009 0.950 . S
H2002 C2007 0.950 . S
H2003 C2008 0.949 . S
H2004 C2010 0.950 . S
H2005 C2011 0.950 . S
H2006 C2012 0.949 . S
C2007 H2002 0.950 . S
C2007 C2009 1.327 . S
C2007 C2013 1.429 . S
C2008 C2000 1.574 . S
C2008 H2003 0.949 . S
C2008 C2014 1.368 . S
C2009 C1993 1.349 . S
C2009 H2001 0.950 . S
C2009 C2007 1.327 . S
C2010 C1998 1.349 . S
C2010 H2004 0.950 . S
C2010 C2011 1.327 . S
C2011 H2005 0.950 . S
C2011 C2010 1.327 . S
C2011 C2015 1.429 . S
C2012 C1995 1.574 . S
C2012 H2006 0.949 . S
C2012 C2016 1.368 . S
C2013 C1994 1.429 . S
C2013 C2007 1.429 . S
C2013 C2014 1.523 . S
C2014 C1995 1.368 . S
C2014 C2008 1.368 . S
C2014 C2013 1.523 . S
C2015 C1999 1.429 . S
C2015 C2011 1.429 . S
C2015 C2016 1.523 . S
C2016 C2000 1.368 . S
C2016 C2012 1.368 . S
C2016 C2015 1.523 . S
H2017 C1992 0.950 . S
H2018 C1994 0.950 . S
H2019 C1995 0.949 . S
H2020 C1997 0.950 . S
H2021 C1999 0.950 . S
C2022 C2023 1.349 . S
C2022 C2024 1.327 . S
C2022 H2047 0.950 . S
C2023 C2022 1.349 . S
C2023 C2039 1.349 . S
C2024 C2022 1.327 . S
C2024 C2043 1.429 . S
C2024 H2048 0.950 . S
C2025 C2042 1.574 . S
C2025 C2044 1.368 . S
C2025 H2049 0.949 . S
H2026 C2030 0.949 . S
C2027 C2028 1.349 . S
C2027 C2029 1.327 . S
C2027 H2050 0.950 . S
C2028 C2027 1.349 . S
C2028 C2040 1.349 . S
C2029 C2027 1.327 . S
C2029 C2045 1.429 . S
C2029 H2051 0.950 . S
C2030 H2026 0.949 . S
C2030 C2038 1.574 . S
C2030 C2046 1.368 . S
H2031 C2039 0.950 . S
H2032 C2037 0.950 . S
H2033 C2038 0.949 . S
H2034 C2040 0.950 . S
H2035 C2041 0.950 . S
H2036 C2042 0.949 . S
C2037 H2032 0.950 . S
C2037 C2039 1.327 . S
C2037 C2043 1.429 . S
C2038 C2030 1.574 . S
C2038 H2033 0.949 . S
C2038 C2044 1.368 . S
C2039 C2023 1.349 . S
C2039 H2031 0.950 . S
C2039 C2037 1.327 . S
C2040 C2028 1.349 . S
C2040 H2034 0.950 . S
C2040 C2041 1.327 . S
C2041 H2035 0.950 . S
C2041 C2040 1.327 . S
C2041 C2045 1.429 . S
C2042 C2025 1.574 . S
C2042 H2036 0.949 . S
C2042 C2046 1.368 . S
C2043 C2024 1.429 . S
C2043 C2037 1.429 . S
C2043 C2044 1.523 . S
C2044 C2025 1.368 . S
C2044 C2038 1.368 . S
C2044 C2043 1.523 . S
C2045 C2029 1.429 . S
C2045 C2041 1.429 . S
C2045 C2046 1.523 . S
C2046 C2030 1.368 . S
C2046 C2042 1.368 . S
C2046 C2045 1.523 . S
H2047 C2022 0.950 . S
H2048 C2024 0.950 . S
H2049 C2025 0.949 . S
H2050 C2027 0.950 . S
H2051 C2029 0.950 . S
C2052 C2053 1.349 . S
C2052 C2054 1.327 . S
C2052 H2077 0.950 . S
C2053 C2052 1.349 . S
C2053 C2069 1.349 . S
C2054 C2052 1.327 . S
C2054 C2073 1.429 . S
C2054 H2078 0.950 . S
C2055 C2072 1.574 . S
C2055 C2074 1.368 . S
C2055 H2079 0.949 . S
H2056 C2060 0.949 . S
C2057 C2058 1.349 . S
C2057 C2059 1.327 . S
C2057 H2080 0.950 . S
C2058 C2057 1.349 . S
C2058 C2070 1.349 . S
C2059 C2057 1.327 . S
C2059 C2075 1.429 . S
C2059 H2081 0.950 . S
C2060 H2056 0.949 . S
C2060 C2068 1.574 . S
C2060 C2076 1.368 . S
H2061 C2069 0.950 . S
H2062 C2067 0.950 . S
H2063 C2068 0.949 . S
H2064 C2070 0.950 . S
H2065 C2071 0.950 . S
H2066 C2072 0.949 . S
C2067 H2062 0.950 . S
C2067 C2069 1.327 . S
C2067 C2073 1.429 . S
C2068 C2060 1.574 . S
C2068 H2063 0.949 . S
C2068 C2074 1.368 . S
C2069 C2053 1.349 . S
C2069 H2061 0.950 . S
C2069 C2067 1.327 . S
C2070 C2058 1.349 . S
C2070 H2064 0.950 . S
C2070 C2071 1.327 . S
C2071 H2065 0.950 . S
C2071 C2070 1.327 . S
C2071 C2075 1.429 . S
C2072 C2055 1.574 . S
C2072 H2066 0.949 . S
C2072 C2076 1.368 . S
C2073 C2054 1.429 . S
C2073 C2067 1.429 . S
C2073 C2074 1.523 . S
C2074 C2055 1.368 . S
C2074 C2068 1.368 . S
C2074 C2073 1.523 . S
C2075 C2059 1.429 . S
C2075 C2071 1.429 . S
C2075 C2076 1.523 . S
C2076 C2060 1.368 . S
C2076 C2072 1.368 . S
C2076 C2075 1.523 . S
H2077 C2052 0.950 . S
H2078 C2054 0.950 . S
H2079 C2055 0.949 . S
H2080 C2057 0.950 . S
H2081 C2059 0.950 . S
C2082 C2083 1.349 . S
C2082 C2084 1.327 . S
C2082 H2107 0.950 . S
C2083 C2082 1.349 . S
C2083 C2099 1.349 . S
C2084 C2082 1.327 . S
C2084 C2103 1.429 . S
C2084 H2108 0.950 . S
C2085 C2102 1.574 . S
C2085 C2104 1.368 . S
C2085 H2109 0.949 . S
H2086 C2090 0.949 . S
C2087 C2088 1.349 . S
C2087 C2089 1.327 . S
C2087 H2110 0.950 . S
C2088 C2087 1.349 . S
C2088 C2100 1.349 . S
C2089 C2087 1.327 . S
C2089 C2105 1.429 . S
C2089 H2111 0.950 . S
C2090 H2086 0.949 . S
C2090 C2098 1.574 . S
C2090 C2106 1.368 . S
H2091 C2099 0.950 . S
H2092 C2097 0.950 . S
H2093 C2098 0.949 . S
H2094 C2100 0.950 . S
H2095 C2101 0.950 . S
H2096 C2102 0.949 . S
C2097 H2092 0.950 . S
C2097 C2099 1.327 . S
C2097 C2103 1.429 . S
C2098 C2090 1.574 . S
C2098 H2093 0.949 . S
C2098 C2104 1.368 . S
C2099 C2083 1.349 . S
C2099 H2091 0.950 . S
C2099 C2097 1.327 . S
C2100 C2088 1.349 . S
C2100 H2094 0.950 . S
C2100 C2101 1.327 . S
C2101 H2095 0.950 . S
C2101 C2100 1.327 . S
C2101 C2105 1.429 . S
C2102 C2085 1.574 . S
C2102 H2096 0.949 . S
C2102 C2106 1.368 . S
C2103 C2084 1.429 . S
C2103 C2097 1.429 . S
C2103 C2104 1.523 . S
C2104 C2085 1.368 . S
C2104 C2098 1.368 . S
C2104 C2103 1.523 . S
C2105 C2089 1.429 . S
C2105 C2101 1.429 . S
C2105 C2106 1.523 . S
C2106 C2090 1.368 . S
C2106 C2102 1.368 . S
C2106 C2105 1.523 . S
H2107 C2082 0.950 . S
H2108 C2084 0.950 . S
H2109 C2085 0.949 . S
H2110 C2087 0.950 . S
H2111 C2089 0.950 . S
C2112 C2113 1.349 . S
C2112 C2114 1.327 . S
C2112 H2137 0.950 . S
C2113 C2112 1.349 . S
C2113 C2129 1.349 . S
C2114 C2112 1.327 . S
C2114 C2133 1.429 . S
C2114 H2138 0.950 . S
C2115 C2132 1.574 . S
C2115 C2134 1.368 . S
C2115 H2139 0.949 . S
H2116 C2120 0.949 . S
C2117 C2118 1.349 . S
C2117 C2119 1.327 . S
C2117 H2140 0.950 . S
C2118 C2117 1.349 . S
C2118 C2130 1.349 . S
C2119 C2117 1.327 . S
C2119 C2135 1.429 . S
C2119 H2141 0.950 . S
C2120 H2116 0.949 . S
C2120 C2128 1.574 . S
C2120 C2136 1.368 . S
H2121 C2129 0.950 . S
H2122 C2127 0.950 . S
H2123 C2128 0.949 . S
H2124 C2130 0.950 . S
H2125 C2131 0.950 . S
H2126 C2132 0.949 . S
C2127 H2122 0.950 . S
C2127 C2129 1.327 . S
C2127 C2133 1.429 . S
C2128 C2120 1.574 . S
C2128 H2123 0.949 . S
C2128 C2134 1.368 . S
C2129 C2113 1.349 . S
C2129 H2121 0.950 . S
C2129 C2127 1.327 . S
C2130 C2118 1.349 . S
C2130 H2124 0.950 . S
C2130 C2131 1.327 . S
C2131 H2125 0.950 . S
C2131 C2130 1.327 . S
C2131 C2135 1.429 . S
C2132 C2115 1.574 . S
C2132 H2126 0.949 . S
C2132 C2136 1.368 . S
C2133 C2114 1.429 . S
C2133 C2127 1.429 . S
C2133 C2134 1.523 . S
C2134 C2115 1.368 . S
C2134 C2128 1.368 . S
C2134 C2133 1.523 . S
C2135 C2119 1.429 . S
C2135 C2131 1.429 . S
C2135 C2136 1.523 . S
C2136 C2120 1.368 . S
C2136 C2132 1.368 . S
C2136 C2135 1.523 . S
H2137 C2112 0.950 . S
H2138 C2114 0.950 . S
H2139 C2115 0.949 . S
H2140 C2117 0.950 . S
H2141 C2119 0.950 . S
C2142 C2143 1.349 . S
C2142 C2144 1.327 . S
C2142 H2167 0.950 . S
C2143 C2142 1.349 . S
C2143 C2159 1.349 . S
C2144 C2142 1.327 . S
C2144 C2163 1.429 . S
C2144 H2168 0.950 . S
C2145 C2162 1.574 . S
C2145 C2164 1.368 . S
C2145 H2169 0.949 . S
H2146 C2150 0.949 . S
C2147 C2148 1.349 . S
C2147 C2149 1.327 . S
C2147 H2170 0.950 . S
C2148 C2147 1.349 . S
C2148 C2160 1.349 1_655 S
C2149 C2147 1.327 . S
C2149 C2165 1.429 1_655 S
C2149 H2171 0.950 . S
C2150 H2146 0.949 . S
C2150 C2158 1.574 . S
C2150 C2166 1.368 . S
H2151 C2159 0.950 . S
H2152 C2157 0.950 . S
H2153 C2158 0.949 . S
H2154 C2160 0.950 . S
H2155 C2161 0.950 . S
H2156 C2162 0.949 . S
C2157 H2152 0.950 . S
C2157 C2159 1.327 . S
C2157 C2163 1.429 . S
C2158 C2150 1.574 . S
C2158 H2153 0.949 . S
C2158 C2164 1.368 . S
C2159 C2143 1.349 . S
C2159 H2151 0.950 . S
C2159 C2157 1.327 . S
C2160 C2148 1.349 1_455 S
C2160 H2154 0.950 . S
C2160 C2161 1.327 . S
C2161 H2155 0.950 . S
C2161 C2160 1.327 . S
C2161 C2165 1.429 . S
C2162 C2145 1.574 . S
C2162 H2156 0.949 . S
C2162 C2166 1.368 . S
C2163 C2144 1.429 . S
C2163 C2157 1.429 . S
C2163 C2164 1.523 . S
C2164 C2145 1.368 . S
C2164 C2158 1.368 . S
C2164 C2163 1.523 . S
C2165 C2149 1.429 1_455 S
C2165 C2161 1.429 . S
C2165 C2166 1.523 . S
C2166 C2150 1.368 . S
C2166 C2162 1.368 . S
C2166 C2165 1.523 . S
H2167 C2142 0.950 . S
H2168 C2144 0.950 . S
H2169 C2145 0.949 . S
H2170 C2147 0.950 . S
H2171 C2149 0.950 . S
C2172 C2173 1.349 . S
C2172 C2174 1.327 . S
C2172 H2197 0.950 . S
C2173 C2172 1.349 . S
C2173 C2189 1.349 . S
C2174 C2172 1.327 . S
C2174 C2193 1.429 . S
C2174 H2198 0.950 . S
C2175 C2192 1.574 . S
C2175 C2194 1.368 . S
C2175 H2199 0.949 . S
H2176 C2180 0.949 . S
C2177 C2178 1.349 . S
C2177 C2179 1.327 . S
C2177 H2200 0.950 . S
C2178 C2177 1.349 . S
C2178 C2190 1.349 . S
C2179 C2177 1.327 . S
C2179 C2195 1.429 . S
C2179 H2201 0.950 . S
C2180 H2176 0.949 . S
C2180 C2188 1.574 . S
C2180 C2196 1.368 . S
H2181 C2189 0.950 . S
H2182 C2187 0.950 . S
H2183 C2188 0.949 . S
H2184 C2190 0.950 . S
H2185 C2191 0.950 . S
H2186 C2192 0.949 . S
C2187 H2182 0.950 . S
C2187 C2189 1.327 . S
C2187 C2193 1.429 . S
C2188 C2180 1.574 . S
C2188 H2183 0.949 . S
C2188 C2194 1.368 . S
C2189 C2173 1.349 . S
C2189 H2181 0.950 . S
C2189 C2187 1.327 . S
C2190 C2178 1.349 . S
C2190 H2184 0.950 . S
C2190 C2191 1.327 . S
C2191 H2185 0.950 . S
C2191 C2190 1.327 . S
C2191 C2195 1.429 . S
C2192 C2175 1.574 . S
C2192 H2186 0.949 . S
C2192 C2196 1.368 . S
C2193 C2174 1.429 . S
C2193 C2187 1.429 . S
C2193 C2194 1.523 . S
C2194 C2175 1.368 . S
C2194 C2188 1.368 . S
C2194 C2193 1.523 . S
C2195 C2179 1.429 . S
C2195 C2191 1.429 . S
C2195 C2196 1.523 . S
C2196 C2180 1.368 . S
C2196 C2192 1.368 . S
C2196 C2195 1.523 . S
H2197 C2172 0.950 . S
H2198 C2174 0.950 . S
H2199 C2175 0.949 . S
H2200 C2177 0.950 . S
H2201 C2179 0.950 . S
C2202 C2203 1.349 . S
C2202 C2204 1.327 . S
C2202 H2227 0.950 . S
C2203 C2202 1.349 . S
C2203 C2219 1.349 . S
C2204 C2202 1.327 . S
C2204 C2223 1.429 . S
C2204 H2228 0.950 . S
C2205 C2222 1.574 . S
C2205 C2224 1.368 . S
C2205 H2229 0.949 . S
H2206 C2210 0.949 . S
C2207 C2208 1.349 . S
C2207 C2209 1.327 . S
C2207 H2230 0.950 . S
C2208 C2207 1.349 . S
C2208 C2220 1.349 . S
C2209 C2207 1.327 . S
C2209 C2225 1.429 . S
C2209 H2231 0.950 . S
C2210 H2206 0.949 . S
C2210 C2218 1.574 . S
C2210 C2226 1.368 . S
H2211 C2219 0.950 . S
H2212 C2217 0.950 . S
H2213 C2218 0.949 . S
H2214 C2220 0.950 . S
H2215 C2221 0.950 . S
H2216 C2222 0.949 . S
C2217 H2212 0.950 . S
C2217 C2219 1.327 . S
C2217 C2223 1.429 . S
C2218 C2210 1.574 . S
C2218 H2213 0.949 . S
C2218 C2224 1.368 . S
C2219 C2203 1.349 . S
C2219 H2211 0.950 . S
C2219 C2217 1.327 . S
C2220 C2208 1.349 . S
C2220 H2214 0.950 . S
C2220 C2221 1.327 . S
C2221 H2215 0.950 . S
C2221 C2220 1.327 . S
C2221 C2225 1.429 . S
C2222 C2205 1.574 . S
C2222 H2216 0.949 . S
C2222 C2226 1.368 . S
C2223 C2204 1.429 . S
C2223 C2217 1.429 . S
C2223 C2224 1.523 . S
C2224 C2205 1.368 . S
C2224 C2218 1.368 . S
C2224 C2223 1.523 . S
C2225 C2209 1.429 . S
C2225 C2221 1.429 . S
C2225 C2226 1.523 . S
C2226 C2210 1.368 . S
C2226 C2222 1.368 . S
C2226 C2225 1.523 . S
H2227 C2202 0.950 . S
H2228 C2204 0.950 . S
H2229 C2205 0.949 . S
H2230 C2207 0.950 . S
H2231 C2209 0.950 . S
C2232 C2233 1.349 . S
C2232 C2234 1.327 . S
C2232 H2257 0.950 . S
C2233 C2232 1.349 . S
C2233 C2249 1.349 . S
C2234 C2232 1.327 . S
C2234 C2253 1.429 . S
C2234 H2258 0.950 . S
C2235 C2252 1.574 . S
C2235 C2254 1.368 . S
C2235 H2259 0.949 . S
H2236 C2240 0.949 . S
C2237 C2238 1.349 . S
C2237 C2239 1.327 . S
C2237 H2260 0.950 . S
C2238 C2237 1.349 . S
C2238 C2250 1.349 . S
C2239 C2237 1.327 . S
C2239 C2255 1.429 . S
C2239 H2261 0.950 . S
C2240 H2236 0.949 . S
C2240 C2248 1.574 . S
C2240 C2256 1.368 . S
H2241 C2249 0.950 . S
H2242 C2247 0.950 . S
H2243 C2248 0.949 . S
H2244 C2250 0.950 . S
H2245 C2251 0.950 . S
H2246 C2252 0.949 . S
C2247 H2242 0.950 . S
C2247 C2249 1.327 . S
C2247 C2253 1.429 . S
C2248 C2240 1.574 . S
C2248 H2243 0.949 . S
C2248 C2254 1.368 . S
C2249 C2233 1.349 . S
C2249 H2241 0.950 . S
C2249 C2247 1.327 . S
C2250 C2238 1.349 . S
C2250 H2244 0.950 . S
C2250 C2251 1.327 . S
C2251 H2245 0.950 . S
C2251 C2250 1.327 . S
C2251 C2255 1.429 . S
C2252 C2235 1.574 . S
C2252 H2246 0.949 . S
C2252 C2256 1.368 . S
C2253 C2234 1.429 . S
C2253 C2247 1.429 . S
C2253 C2254 1.523 . S
C2254 C2235 1.368 . S
C2254 C2248 1.368 . S
C2254 C2253 1.523 . S
C2255 C2239 1.429 . S
C2255 C2251 1.429 . S
C2255 C2256 1.523 . S
C2256 C2240 1.368 . S
C2256 C2252 1.368 . S
C2256 C2255 1.523 . S
H2257 C2232 0.950 . S
H2258 C2234 0.950 . S
H2259 C2235 0.949 . S
H2260 C2237 0.950 . S
H2261 C2239 0.950 . S
C2262 C2263 1.349 . S
C2262 C2264 1.327 . S
C2262 H2287 0.950 . S
C2263 C2262 1.349 . S
C2263 C2279 1.349 . S
C2264 C2262 1.327 . S
C2264 C2283 1.429 . S
C2264 H2288 0.950 . S
C2265 C2282 1.574 . S
C2265 C2284 1.368 . S
C2265 H2289 0.949 . S
H2266 C2270 0.949 . S
C2267 C2268 1.349 . S
C2267 C2269 1.327 . S
C2267 H2290 0.950 . S
C2268 C2267 1.349 . S
C2268 C2280 1.349 . S
C2269 C2267 1.327 . S
C2269 C2285 1.429 . S
C2269 H2291 0.950 . S
C2270 H2266 0.949 . S
C2270 C2278 1.574 . S
C2270 C2286 1.368 . S
H2271 C2279 0.950 . S
H2272 C2277 0.950 . S
H2273 C2278 0.949 . S
H2274 C2280 0.950 . S
H2275 C2281 0.950 . S
H2276 C2282 0.949 . S
C2277 H2272 0.950 . S
C2277 C2279 1.327 . S
C2277 C2283 1.429 . S
C2278 C2270 1.574 . S
C2278 H2273 0.949 . S
C2278 C2284 1.368 . S
C2279 C2263 1.349 . S
C2279 H2271 0.950 . S
C2279 C2277 1.327 . S
C2280 C2268 1.349 . S
C2280 H2274 0.950 . S
C2280 C2281 1.327 . S
C2281 H2275 0.950 . S
C2281 C2280 1.327 . S
C2281 C2285 1.429 . S
C2282 C2265 1.574 . S
C2282 H2276 0.949 . S
C2282 C2286 1.368 . S
C2283 C2264 1.429 . S
C2283 C2277 1.429 . S
C2283 C2284 1.523 . S
C2284 C2265 1.368 . S
C2284 C2278 1.368 . S
C2284 C2283 1.523 . S
C2285 C2269 1.429 . S
C2285 C2281 1.429 . S
C2285 C2286 1.523 . S
C2286 C2270 1.368 . S
C2286 C2282 1.368 . S
C2286 C2285 1.523 . S
H2287 C2262 0.950 . S
H2288 C2264 0.950 . S
H2289 C2265 0.949 . S
H2290 C2267 0.950 . S
H2291 C2269 0.950 . S
C2292 C2293 1.349 . S
C2292 C2294 1.327 . S
C2292 H2317 0.950 . S
C2293 C2292 1.349 . S
C2293 C2309 1.349 . S
C2294 C2292 1.327 . S
C2294 C2313 1.429 . S
C2294 H2318 0.950 . S
C2295 C2312 1.574 . S
C2295 C2314 1.368 . S
C2295 H2319 0.949 . S
H2296 C2300 0.949 . S
C2297 C2298 1.349 . S
C2297 C2299 1.327 . S
C2297 H2320 0.950 . S
C2298 C2297 1.349 . S
C2298 C2310 1.349 . S
C2299 C2297 1.327 . S
C2299 C2315 1.429 . S
C2299 H2321 0.950 . S
C2300 H2296 0.949 . S
C2300 C2308 1.574 . S
C2300 C2316 1.368 . S
H2301 C2309 0.950 . S
H2302 C2307 0.950 . S
H2303 C2308 0.949 . S
H2304 C2310 0.950 . S
H2305 C2311 0.950 . S
H2306 C2312 0.949 . S
C2307 H2302 0.950 . S
C2307 C2309 1.327 . S
C2307 C2313 1.429 . S
C2308 C2300 1.574 . S
C2308 H2303 0.949 . S
C2308 C2314 1.368 . S
C2309 C2293 1.349 . S
C2309 H2301 0.950 . S
C2309 C2307 1.327 . S
C2310 C2298 1.349 . S
C2310 H2304 0.950 . S
C2310 C2311 1.327 . S
C2311 H2305 0.950 . S
C2311 C2310 1.327 . S
C2311 C2315 1.429 . S
C2312 C2295 1.574 . S
C2312 H2306 0.949 . S
C2312 C2316 1.368 . S
C2313 C2294 1.429 . S
C2313 C2307 1.429 . S
C2313 C2314 1.523 . S
C2314 C2295 1.368 . S
C2314 C2308 1.368 . S
C2314 C2313 1.523 . S
C2315 C2299 1.429 . S
C2315 C2311 1.429 . S
C2315 C2316 1.523 . S
C2316 C2300 1.368 . S
C2316 C2312 1.368 . S
C2316 C2315 1.523 . S
H2317 C2292 0.950 . S
H2318 C2294 0.950 . S
H2319 C2295 0.949 . S
H2320 C2297 0.950 . S
H2321 C2299 0.950 . S
C2322 C2323 1.349 . S
C2322 C2324 1.327 . S
C2322 H2347 0.950 . S
C2323 C2322 1.349 . S
C2323 C2339 1.349 . S
C2324 C2322 1.327 . S
C2324 C2343 1.429 . S
C2324 H2348 0.950 . S
C2325 C2342 1.574 . S
C2325 C2344 1.368 . S
C2325 H2349 0.949 . S
H2326 C2330 0.949 . S
C2327 C2328 1.349 . S
C2327 C2329 1.327 . S
C2327 H2350 0.950 . S
C2328 C2327 1.349 . S
C2328 C2340 1.349 . S
C2329 C2327 1.327 . S
C2329 C2345 1.429 . S
C2329 H2351 0.950 . S
C2330 H2326 0.949 . S
C2330 C2338 1.574 . S
C2330 C2346 1.368 . S
H2331 C2339 0.950 . S
H2332 C2337 0.950 . S
H2333 C2338 0.949 . S
H2334 C2340 0.950 . S
H2335 C2341 0.950 . S
H2336 C2342 0.949 . S
C2337 H2332 0.950 . S
C2337 C2339 1.327 . S
C2337 C2343 1.429 . S
C2338 C2330 1.574 . S
C2338 H2333 0.949 . S
C2338 C2344 1.368 . S
C2339 C2323 1.349 . S
C2339 H2331 0.950 . S
C2339 C2337 1.327 . S
C2340 C2328 1.349 . S
C2340 H2334 0.950 . S
C2340 C2341 1.327 . S
C2341 H2335 0.950 . S
C2341 C2340 1.327 . S
C2341 C2345 1.429 . S
C2342 C2325 1.574 . S
C2342 H2336 0.949 . S
C2342 C2346 1.368 . S
C2343 C2324 1.429 . S
C2343 C2337 1.429 . S
C2343 C2344 1.523 . S
C2344 C2325 1.368 . S
C2344 C2338 1.368 . S
C2344 C2343 1.523 . S
C2345 C2329 1.429 . S
C2345 C2341 1.429 . S
C2345 C2346 1.523 . S
C2346 C2330 1.368 . S
C2346 C2342 1.368 . S
C2346 C2345 1.523 . S
H2347 C2322 0.950 . S
H2348 C2324 0.950 . S
H2349 C2325 0.949 . S
H2350 C2327 0.950 . S
H2351 C2329 0.950 . S
C2352 C2353 1.349 . S
C2352 C2354 1.327 . S
C2352 H2377 0.950 . S
C2353 C2352 1.349 . S
C2353 C2369 1.349 . S
C2354 C2352 1.327 . S
C2354 C2373 1.429 . S
C2354 H2378 0.950 . S
C2355 C2372 1.574 . S
C2355 C2374 1.368 . S
C2355 H2379 0.949 . S
H2356 C2360 0.949 . S
C2357 C2358 1.349 . S
C2357 C2359 1.327 . S
C2357 H2380 0.950 . S
C2358 C2357 1.349 . S
C2358 C2370 1.349 . S
C2359 C2357 1.327 . S
C2359 C2375 1.429 . S
C2359 H2381 0.950 . S
C2360 H2356 0.949 . S
C2360 C2368 1.574 . S
C2360 C2376 1.368 . S
H2361 C2369 0.950 . S
H2362 C2367 0.950 . S
H2363 C2368 0.949 . S
H2364 C2370 0.950 . S
H2365 C2371 0.950 . S
H2366 C2372 0.949 . S
C2367 H2362 0.950 . S
C2367 C2369 1.327 . S
C2367 C2373 1.429 . S
C2368 C2360 1.574 . S
C2368 H2363 0.949 . S
C2368 C2374 1.368 . S
C2369 C2353 1.349 . S
C2369 H2361 0.950 . S
C2369 C2367 1.327 . S
C2370 C2358 1.349 . S
C2370 H2364 0.950 . S
C2370 C2371 1.327 . S
C2371 H2365 0.950 . S
C2371 C2370 1.327 . S
C2371 C2375 1.429 . S
C2372 C2355 1.574 . S
C2372 H2366 0.949 . S
C2372 C2376 1.368 . S
C2373 C2354 1.429 . S
C2373 C2367 1.429 . S
C2373 C2374 1.523 . S
C2374 C2355 1.368 . S
C2374 C2368 1.368 . S
C2374 C2373 1.523 . S
C2375 C2359 1.429 . S
C2375 C2371 1.429 . S
C2375 C2376 1.523 . S
C2376 C2360 1.368 . S
C2376 C2372 1.368 . S
C2376 C2375 1.523 . S
H2377 C2352 0.950 . S
H2378 C2354 0.950 . S
H2379 C2355 0.949 . S
H2380 C2357 0.950 . S
H2381 C2359 0.950 . S
C2382 C2383 1.349 . S
C2382 C2384 1.327 . S
C2382 H2407 0.950 . S
C2383 C2382 1.349 . S
C2383 C2399 1.349 . S
C2384 C2382 1.327 . S
C2384 C2403 1.429 . S
C2384 H2408 0.950 . S
C2385 C2402 1.574 . S
C2385 C2404 1.368 . S
C2385 H2409 0.949 . S
H2386 C2390 0.949 . S
C2387 C2388 1.349 . S
C2387 C2389 1.327 . S
C2387 H2410 0.950 . S
C2388 C2387 1.349 . S
C2388 C2400 1.349 . S
C2389 C2387 1.327 . S
C2389 C2405 1.429 . S
C2389 H2411 0.950 . S
C2390 H2386 0.949 . S
C2390 C2398 1.574 . S
C2390 C2406 1.368 . S
H2391 C2399 0.950 . S
H2392 C2397 0.950 . S
H2393 C2398 0.949 . S
H2394 C2400 0.950 . S
H2395 C2401 0.950 . S
H2396 C2402 0.949 . S
C2397 H2392 0.950 . S
C2397 C2399 1.327 . S
C2397 C2403 1.429 . S
C2398 C2390 1.574 . S
C2398 H2393 0.949 . S
C2398 C2404 1.368 . S
C2399 C2383 1.349 . S
C2399 H2391 0.950 . S
C2399 C2397 1.327 . S
C2400 C2388 1.349 . S
C2400 H2394 0.950 . S
C2400 C2401 1.327 . S
C2401 H2395 0.950 . S
C2401 C2400 1.327 . S
C2401 C2405 1.429 . S
C2402 C2385 1.574 . S
C2402 H2396 0.949 . S
C2402 C2406 1.368 . S
C2403 C2384 1.429 . S
C2403 C2397 1.429 . S
C2403 C2404 1.523 . S
C2404 C2385 1.368 . S
C2404 C2398 1.368 . S
C2404 C2403 1.523 . S
C2405 C2389 1.429 . S
C2405 C2401 1.429 . S
C2405 C2406 1.523 . S
C2406 C2390 1.368 . S
C2406 C2402 1.368 . S
C2406 C2405 1.523 . S
H2407 C2382 0.950 . S
H2408 C2384 0.950 . S
H2409 C2385 0.949 . S
H2410 C2387 0.950 . S
H2411 C2389 0.950 . S
C2412 C2413 1.349 . S
C2412 C2414 1.327 . S
C2412 H2437 0.950 . S
C2413 C2412 1.349 . S
C2413 C2429 1.349 . S
C2414 C2412 1.327 . S
C2414 C2433 1.429 . S
C2414 H2438 0.950 . S
C2415 C2432 1.574 . S
C2415 C2434 1.368 . S
C2415 H2439 0.949 . S
H2416 C2420 0.949 . S
C2417 C2418 1.349 . S
C2417 C2419 1.382 . S
C2417 H2440 0.950 . S
C2418 C2417 1.349 . S
C2418 C2430 1.349 . S
C2419 C2417 1.382 . S
C2419 C2435 1.377 1_565 S
C2419 H2441 0.949 . S
C2420 H2416 0.949 . S
C2420 C2428 1.574 . S
C2420 C2436 1.368 . S
H2421 C2429 0.950 . S
H2422 C2427 0.950 . S
H2423 C2428 0.949 . S
H2424 C2430 0.950 . S
H2425 C2431 0.950 . S
H2426 C2432 0.949 . S
C2427 H2422 0.950 . S
C2427 C2429 1.327 . S
C2427 C2433 1.429 . S
C2428 C2420 1.574 . S
C2428 H2423 0.949 . S
C2428 C2434 1.368 . S
C2429 C2413 1.349 . S
C2429 H2421 0.950 . S
C2429 C2427 1.327 . S
C2430 C2418 1.349 . S
C2430 H2424 0.950 . S
C2430 C2431 1.327 1_565 S
C2431 H2425 0.950 . S
C2431 C2430 1.327 1_545 S
C2431 C2435 1.429 . S
C2432 C2415 1.574 . S
C2432 H2426 0.949 . S
C2432 C2436 1.368 . S
C2433 C2414 1.429 . S
C2433 C2427 1.429 . S
C2433 C2434 1.523 . S
C2434 C2415 1.368 . S
C2434 C2428 1.368 . S
C2434 C2433 1.523 . S
C2435 C2419 1.377 1_545 S
C2435 C2431 1.429 . S
C2435 C2436 1.523 . S
C2436 C2420 1.368 . S
C2436 C2432 1.368 . S
C2436 C2435 1.523 . S
H2437 C2412 0.950 . S
H2438 C2414 0.950 . S
H2439 C2415 0.949 . S
H2440 C2417 0.950 . S
H2441 C2419 0.949 . S
C2442 C2443 1.349 . S
C2442 C2444 1.327 . S
C2442 H2467 0.950 . S
C2443 C2442 1.349 . S
C2443 C2459 1.349 . S
C2444 C2442 1.327 . S
C2444 C2463 1.429 . S
C2444 H2468 0.950 . S
C2445 C2462 1.574 . S
C2445 C2464 1.368 . S
C2445 H2469 0.949 . S
H2446 C2450 0.949 . S
C2447 C2448 1.349 . S
C2447 C2449 1.327 . S
C2447 H2470 0.950 . S
C2448 C2447 1.349 . S
C2448 C2460 1.349 . S
C2449 C2447 1.327 . S
C2449 C2465 1.429 . S
C2449 H2471 0.950 . S
C2450 H2446 0.949 . S
C2450 C2458 1.574 . S
C2450 C2466 1.368 . S
H2451 C2459 0.950 . S
H2452 C2457 0.950 . S
H2453 C2458 0.949 . S
H2454 C2460 0.950 . S
H2455 C2461 0.950 . S
H2456 C2462 0.949 . S
C2457 H2452 0.950 . S
C2457 C2459 1.327 . S
C2457 C2463 1.429 . S
C2458 C2450 1.574 . S
C2458 H2453 0.949 . S
C2458 C2464 1.368 . S
C2459 C2443 1.349 . S
C2459 H2451 0.950 . S
C2459 C2457 1.327 . S
C2460 C2448 1.349 . S
C2460 H2454 0.950 . S
C2460 C2461 1.327 . S
C2461 H2455 0.950 . S
C2461 C2460 1.327 . S
C2461 C2465 1.429 . S
C2462 C2445 1.574 . S
C2462 H2456 0.949 . S
C2462 C2466 1.368 . S
C2463 C2444 1.429 . S
C2463 C2457 1.429 . S
C2463 C2464 1.523 . S
C2464 C2445 1.368 . S
C2464 C2458 1.368 . S
C2464 C2463 1.523 . S
C2465 C2449 1.429 . S
C2465 C2461 1.429 . S
C2465 C2466 1.523 . S
C2466 C2450 1.368 . S
C2466 C2462 1.368 . S
C2466 C2465 1.523 . S
H2467 C2442 0.950 . S
H2468 C2444 0.950 . S
H2469 C2445 0.949 . S
H2470 C2447 0.950 . S
H2471 C2449 0.950 . S
C2472 C2473 1.349 . S
C2472 C2474 1.327 . S
C2472 H2497 0.950 . S
C2473 C2472 1.349 . S
C2473 C2489 1.349 . S
C2474 C2472 1.327 . S
C2474 C2493 1.429 . S
C2474 H2498 0.950 . S
C2475 C2492 1.574 . S
C2475 C2494 1.368 . S
C2475 H2499 0.949 . S
H2476 C2480 0.949 . S
C2477 C2478 1.349 . S
C2477 C2479 1.327 . S
C2477 H2500 0.950 . S
C2478 C2477 1.349 . S
C2478 C2490 1.349 . S
C2479 C2477 1.327 . S
C2479 C2495 1.429 . S
C2479 H2501 0.950 . S
C2480 H2476 0.949 . S
C2480 C2488 1.574 . S
C2480 C2496 1.368 . S
H2481 C2489 0.950 . S
H2482 C2487 0.950 . S
H2483 C2488 0.949 . S
H2484 C2490 0.950 . S
H2485 C2491 0.950 . S
H2486 C2492 0.949 . S
C2487 H2482 0.950 . S
C2487 C2489 1.327 . S
C2487 C2493 1.429 . S
C2488 C2480 1.574 . S
C2488 H2483 0.949 . S
C2488 C2494 1.368 . S
C2489 C2473 1.349 . S
C2489 H2481 0.950 . S
C2489 C2487 1.327 . S
C2490 C2478 1.349 . S
C2490 H2484 0.950 . S
C2490 C2491 1.327 . S
C2491 H2485 0.950 . S
C2491 C2490 1.327 . S
C2491 C2495 1.429 . S
C2492 C2475 1.574 . S
C2492 H2486 0.949 . S
C2492 C2496 1.368 . S
C2493 C2474 1.429 . S
C2493 C2487 1.429 . S
C2493 C2494 1.523 . S
C2494 C2475 1.368 . S
C2494 C2488 1.368 . S
C2494 C2493 1.523 . S
C2495 C2479 1.429 . S
C2495 C2491 1.429 . S
C2495 C2496 1.523 . S
C2496 C2480 1.368 . S
C2496 C2492 1.368 . S
C2496 C2495 1.523 . S
H2497 C2472 0.950 . S
H2498 C2474 0.950 . S
H2499 C2475 0.949 . S
H2500 C2477 0.950 . S
H2501 C2479 0.950 . S
C2502 C2503 1.349 . S
C2502 C2504 1.327 . S
C2502 H2527 0.950 . S
C2503 C2502 1.349 . S
C2503 C2519 1.349 . S
C2504 C2502 1.327 . S
C2504 C2523 1.429 . S
C2504 H2528 0.950 . S
C2505 C2522 1.574 . S
C2505 C2524 1.368 . S
C2505 H2529 0.949 . S
H2506 C2510 0.949 . S
C2507 C2508 1.349 . S
C2507 C2509 1.327 . S
C2507 H2530 0.950 . S
C2508 C2507 1.349 . S
C2508 C2520 1.349 . S
C2509 C2507 1.327 . S
C2509 C2525 1.429 . S
C2509 H2531 0.950 . S
C2510 H2506 0.949 . S
C2510 C2518 1.574 . S
C2510 C2526 1.368 . S
H2511 C2519 0.950 . S
H2512 C2517 0.950 . S
H2513 C2518 0.949 . S
H2514 C2520 0.950 . S
H2515 C2521 0.950 . S
H2516 C2522 0.949 . S
C2517 H2512 0.950 . S
C2517 C2519 1.327 . S
C2517 C2523 1.429 . S
C2518 C2510 1.574 . S
C2518 H2513 0.949 . S
C2518 C2524 1.368 . S
C2519 C2503 1.349 . S
C2519 H2511 0.950 . S
C2519 C2517 1.327 . S
C2520 C2508 1.349 . S
C2520 H2514 0.950 . S
C2520 C2521 1.327 . S
C2521 H2515 0.950 . S
C2521 C2520 1.327 . S
C2521 C2525 1.429 . S
C2522 C2505 1.574 . S
C2522 H2516 0.949 . S
C2522 C2526 1.368 . S
C2523 C2504 1.429 . S
C2523 C2517 1.429 . S
C2523 C2524 1.523 . S
C2524 C2505 1.368 . S
C2524 C2518 1.368 . S
C2524 C2523 1.523 . S
C2525 C2509 1.429 . S
C2525 C2521 1.429 . S
C2525 C2526 1.523 . S
C2526 C2510 1.368 . S
C2526 C2522 1.368 . S
C2526 C2525 1.523 . S
H2527 C2502 0.950 . S
H2528 C2504 0.950 . S
H2529 C2505 0.949 . S
H2530 C2507 0.950 . S
H2531 C2509 0.950 . S
C2532 C2533 1.349 . S
C2532 C2534 1.327 . S
C2532 H2557 0.950 . S
C2533 C2532 1.349 . S
C2533 C2549 1.349 . S
C2534 C2532 1.327 . S
C2534 C2553 1.429 . S
C2534 H2558 0.950 . S
C2535 C2552 1.574 . S
C2535 C2554 1.368 . S
C2535 H2559 0.949 . S
H2536 C2540 0.949 . S
C2537 C2538 1.349 . S
C2537 C2539 1.327 . S
C2537 H2560 0.950 . S
C2538 C2537 1.349 . S
C2538 C2550 1.349 . S
C2539 C2537 1.327 . S
C2539 C2555 1.429 . S
C2539 H2561 0.950 . S
C2540 H2536 0.949 . S
C2540 C2548 1.574 . S
C2540 C2556 1.368 . S
H2541 C2549 0.950 . S
H2542 C2547 0.950 . S
H2543 C2548 0.949 . S
H2544 C2550 0.950 . S
H2545 C2551 0.950 . S
H2546 C2552 0.949 . S
C2547 H2542 0.950 . S
C2547 C2549 1.327 . S
C2547 C2553 1.429 . S
C2548 C2540 1.574 . S
C2548 H2543 0.949 . S
C2548 C2554 1.368 . S
C2549 C2533 1.349 . S
C2549 H2541 0.950 . S
C2549 C2547 1.327 . S
C2550 C2538 1.349 . S
C2550 H2544 0.950 . S
C2550 C2551 1.327 . S
C2551 H2545 0.950 . S
C2551 C2550 1.327 . S
C2551 C2555 1.429 . S
C2552 C2535 1.574 . S
C2552 H2546 0.949 . S
C2552 C2556 1.368 . S
C2553 C2534 1.429 . S
C2553 C2547 1.429 . S
C2553 C2554 1.523 . S
C2554 C2535 1.368 . S
C2554 C2548 1.368 . S
C2554 C2553 1.523 . S
C2555 C2539 1.429 . S
C2555 C2551 1.429 . S
C2555 C2556 1.523 . S
C2556 C2540 1.368 . S
C2556 C2552 1.368 . S
C2556 C2555 1.523 . S
H2557 C2532 0.950 . S
H2558 C2534 0.950 . S
H2559 C2535 0.949 . S
H2560 C2537 0.950 . S
H2561 C2539 0.950 . S
C2562 C2563 1.349 . S
C2562 C2564 1.327 . S
C2562 H2587 0.950 . S
C2563 C2562 1.349 . S
C2563 C2579 1.349 . S
C2564 C2562 1.327 . S
C2564 C2583 1.429 . S
C2564 H2588 0.950 . S
C2565 C2582 1.574 . S
C2565 C2584 1.368 . S
C2565 H2589 0.949 . S
H2566 C2570 0.949 . S
C2567 C2568 1.349 . S
C2567 C2569 1.327 . S
C2567 H2590 0.950 . S
C2568 C2567 1.349 . S
C2568 C2580 1.349 . S
C2569 C2567 1.327 . S
C2569 C2585 1.429 . S
C2569 H2591 0.950 . S
C2570 H2566 0.949 . S
C2570 C2578 1.574 . S
C2570 C2586 1.368 . S
H2571 C2579 0.950 . S
H2572 C2577 0.950 . S
H2573 C2578 0.949 . S
H2574 C2580 0.950 . S
H2575 C2581 0.950 . S
H2576 C2582 0.949 . S
C2577 H2572 0.950 . S
C2577 C2579 1.327 . S
C2577 C2583 1.429 . S
C2578 C2570 1.574 . S
C2578 H2573 0.949 . S
C2578 C2584 1.368 . S
C2579 C2563 1.349 . S
C2579 H2571 0.950 . S
C2579 C2577 1.327 . S
C2580 C2568 1.349 . S
C2580 H2574 0.950 . S
C2580 C2581 1.327 . S
C2581 H2575 0.950 . S
C2581 C2580 1.327 . S
C2581 C2585 1.429 . S
C2582 C2565 1.574 . S
C2582 H2576 0.949 . S
C2582 C2586 1.368 . S
C2583 C2564 1.429 . S
C2583 C2577 1.429 . S
C2583 C2584 1.523 . S
C2584 C2565 1.368 . S
C2584 C2578 1.368 . S
C2584 C2583 1.523 . S
C2585 C2569 1.429 . S
C2585 C2581 1.429 . S
C2585 C2586 1.523 . S
C2586 C2570 1.368 . S
C2586 C2582 1.368 . S
C2586 C2585 1.523 . S
H2587 C2562 0.950 . S
H2588 C2564 0.950 . S
H2589 C2565 0.949 . S
H2590 C2567 0.950 . S
H2591 C2569 0.950 . S
C2592 C2593 1.274 1_554 S
C2592 C2594 1.391 . S
C2592 H2617 0.967 . S
C2593 C2592 1.274 1_556 S
C2593 C2609 1.349 . S
C2594 C2592 1.391 . S
C2594 C2613 1.429 . S
C2594 H2618 0.950 . S
C2595 C2612 1.574 . S
C2595 C2614 1.368 . S
C2595 H2619 0.949 . S
H2596 C2600 0.949 . S
C2597 C2598 1.349 . S
C2597 C2599 1.327 . S
C2597 H2620 0.950 . S
C2598 C2597 1.349 . S
C2598 C2610 1.349 . S
C2599 C2597 1.327 . S
C2599 C2615 1.429 . S
C2599 H2621 0.950 . S
C2600 H2596 0.949 . S
C2600 C2608 1.574 . S
C2600 C2616 1.368 . S
H2601 C2609 0.950 . S
H2602 C2607 0.950 . S
H2603 C2608 0.949 . S
H2604 C2610 0.950 . S
H2605 C2611 0.950 . S
H2606 C2612 0.949 . S
C2607 H2602 0.950 . S
C2607 C2609 1.327 . S
C2607 C2613 1.429 1_556 S
C2608 C2600 1.574 . S
C2608 H2603 0.949 . S
C2608 C2614 1.368 . S
C2609 C2593 1.349 . S
C2609 H2601 0.950 . S
C2609 C2607 1.327 . S
C2610 C2598 1.349 . S
C2610 H2604 0.950 . S
C2610 C2611 1.327 . S
C2611 H2605 0.950 . S
C2611 C2610 1.327 . S
C2611 C2615 1.429 . S
C2612 C2595 1.574 . S
C2612 H2606 0.949 . S
C2612 C2616 1.368 . S
C2613 C2594 1.429 . S
C2613 C2607 1.429 1_554 S
C2613 C2614 1.523 . S
C2614 C2595 1.368 . S
C2614 C2608 1.368 . S
C2614 C2613 1.523 . S
C2615 C2599 1.429 . S
C2615 C2611 1.429 . S
C2615 C2616 1.523 . S
C2616 C2600 1.368 . S
C2616 C2612 1.368 . S
C2616 C2615 1.523 . S
H2617 C2592 0.967 . S
H2618 C2594 0.950 . S
H2619 C2595 0.949 . S
H2620 C2597 0.950 . S
H2621 C2599 0.950 . S
C2622 C2623 1.349 . S
C2622 C2624 1.327 . S
C2622 H2647 0.950 . S
C2623 C2622 1.349 . S
C2623 C2639 1.349 . S
C2624 C2622 1.327 . S
C2624 C2643 1.429 . S
C2624 H2648 0.950 . S
C2625 C2642 1.574 . S
C2625 C2644 1.368 . S
C2625 H2649 0.949 . S
H2626 C2630 0.949 . S
C2627 C2628 1.349 . S
C2627 C2629 1.327 . S
C2627 H2650 0.950 . S
C2628 C2627 1.349 . S
C2628 C2640 1.349 . S
C2629 C2627 1.327 . S
C2629 C2645 1.429 . S
C2629 H2651 0.950 . S
C2630 H2626 0.949 . S
C2630 C2638 1.574 . S
C2630 C2646 1.368 . S
H2631 C2639 0.950 . S
H2632 C2637 0.950 . S
H2633 C2638 0.949 . S
H2634 C2640 0.950 . S
H2635 C2641 0.950 . S
H2636 C2642 0.949 . S
C2637 H2632 0.950 . S
C2637 C2639 1.327 . S
C2637 C2643 1.429 . S
C2638 C2630 1.574 . S
C2638 H2633 0.949 . S
C2638 C2644 1.368 . S
C2639 C2623 1.349 . S
C2639 H2631 0.950 . S
C2639 C2637 1.327 . S
C2640 C2628 1.349 . S
C2640 H2634 0.950 . S
C2640 C2641 1.327 . S
C2641 H2635 0.950 . S
C2641 C2640 1.327 . S
C2641 C2645 1.429 . S
C2642 C2625 1.574 . S
C2642 H2636 0.949 . S
C2642 C2646 1.368 . S
C2643 C2624 1.429 . S
C2643 C2637 1.429 . S
C2643 C2644 1.523 . S
C2644 C2625 1.368 . S
C2644 C2638 1.368 . S
C2644 C2643 1.523 . S
C2645 C2629 1.429 . S
C2645 C2641 1.429 . S
C2645 C2646 1.523 . S
C2646 C2630 1.368 . S
C2646 C2642 1.368 . S
C2646 C2645 1.523 . S
H2647 C2622 0.950 . S
H2648 C2624 0.950 . S
H2649 C2625 0.949 . S
H2650 C2627 0.950 . S
H2651 C2629 0.950 . S
C2652 C2653 1.349 . S
C2652 C2654 1.327 . S
C2652 H2677 0.950 . S
C2653 C2652 1.349 . S
C2653 C2669 1.349 . S
C2654 C2652 1.327 . S
C2654 C2673 1.429 . S
C2654 H2678 0.950 . S
C2655 C2672 1.574 . S
C2655 C2674 1.368 . S
C2655 H2679 0.949 . S
H2656 C2660 0.949 . S
C2657 C2658 1.349 . S
C2657 C2659 1.327 . S
C2657 H2680 0.950 . S
C2658 C2657 1.349 . S
C2658 C2670 1.349 . S
C2659 C2657 1.327 . S
C2659 C2675 1.429 . S
C2659 H2681 0.950 . S
C2660 H2656 0.949 . S
C2660 C2668 1.574 . S
C2660 C2676 1.368 . S
H2661 C2669 0.950 . S
H2662 C2667 0.950 . S
H2663 C2668 0.949 . S
H2664 C2670 0.950 . S
H2665 C2671 0.950 . S
H2666 C2672 0.949 . S
C2667 H2662 0.950 . S
C2667 C2669 1.327 . S
C2667 C2673 1.429 . S
C2668 C2660 1.574 . S
C2668 H2663 0.949 . S
C2668 C2674 1.368 . S
C2669 C2653 1.349 . S
C2669 H2661 0.950 . S
C2669 C2667 1.327 . S
C2670 C2658 1.349 . S
C2670 H2664 0.950 . S
C2670 C2671 1.327 . S
C2671 H2665 0.950 . S
C2671 C2670 1.327 . S
C2671 C2675 1.429 . S
C2672 C2655 1.574 . S
C2672 H2666 0.949 . S
C2672 C2676 1.368 . S
C2673 C2654 1.429 . S
C2673 C2667 1.429 . S
C2673 C2674 1.523 . S
C2674 C2655 1.368 . S
C2674 C2668 1.368 . S
C2674 C2673 1.523 . S
C2675 C2659 1.429 . S
C2675 C2671 1.429 . S
C2675 C2676 1.523 . S
C2676 C2660 1.368 . S
C2676 C2672 1.368 . S
C2676 C2675 1.523 . S
H2677 C2652 0.950 . S
H2678 C2654 0.950 . S
H2679 C2655 0.949 . S
H2680 C2657 0.950 . S
H2681 C2659 0.950 . S
C2682 C2683 1.349 . S
C2682 C2684 1.327 . S
C2682 H2707 0.950 . S
C2683 C2682 1.349 . S
C2683 C2699 1.349 . S
C2684 C2682 1.327 . S
C2684 C2703 1.429 . S
C2684 H2708 0.950 . S
C2685 C2702 1.574 . S
C2685 C2704 1.368 . S
C2685 H2709 0.949 . S
H2686 C2690 0.949 . S
C2687 C2688 1.349 . S
C2687 C2689 1.327 . S
C2687 H2710 0.950 . S
C2688 C2687 1.349 . S
C2688 C2700 1.349 . S
C2689 C2687 1.327 . S
C2689 C2705 1.429 . S
C2689 H2711 0.950 . S
C2690 H2686 0.949 . S
C2690 C2698 1.574 . S
C2690 C2706 1.368 . S
H2691 C2699 0.950 . S
H2692 C2697 0.950 . S
H2693 C2698 0.949 . S
H2694 C2700 0.950 . S
H2695 C2701 0.950 . S
H2696 C2702 0.949 . S
C2697 H2692 0.950 . S
C2697 C2699 1.327 . S
C2697 C2703 1.429 . S
C2698 C2690 1.574 . S
C2698 H2693 0.949 . S
C2698 C2704 1.368 . S
C2699 C2683 1.349 . S
C2699 H2691 0.950 . S
C2699 C2697 1.327 . S
C2700 C2688 1.349 . S
C2700 H2694 0.950 . S
C2700 C2701 1.327 . S
C2701 H2695 0.950 . S
C2701 C2700 1.327 . S
C2701 C2705 1.429 . S
C2702 C2685 1.574 . S
C2702 H2696 0.949 . S
C2702 C2706 1.368 . S
C2703 C2684 1.429 . S
C2703 C2697 1.429 . S
C2703 C2704 1.523 . S
C2704 C2685 1.368 . S
C2704 C2698 1.368 . S
C2704 C2703 1.523 . S
C2705 C2689 1.429 . S
C2705 C2701 1.429 . S
C2705 C2706 1.523 . S
C2706 C2690 1.368 . S
C2706 C2702 1.368 . S
C2706 C2705 1.523 . S
H2707 C2682 0.950 . S
H2708 C2684 0.950 . S
H2709 C2685 0.949 . S
H2710 C2687 0.950 . S
H2711 C2689 0.950 . S
C2712 C2713 1.349 . S
C2712 C2714 1.327 . S
C2712 H2737 0.950 . S
C2713 C2712 1.349 . S
C2713 C2729 1.349 . S
C2714 C2712 1.327 . S
C2714 C2733 1.429 . S
C2714 H2738 0.950 . S
C2715 C2732 1.574 . S
C2715 C2734 1.368 . S
C2715 H2739 0.949 . S
H2716 C2720 0.949 . S
C2717 C2718 1.349 . S
C2717 C2719 1.327 . S
C2717 H2740 0.950 . S
C2718 C2717 1.349 . S
C2718 C2730 1.349 . S
C2719 C2717 1.327 . S
C2719 C2735 1.429 . S
C2719 H2741 0.950 . S
C2720 H2716 0.949 . S
C2720 C2728 1.574 . S
C2720 C2736 1.368 . S
H2721 C2729 0.950 . S
H2722 C2727 0.950 . S
H2723 C2728 0.949 . S
H2724 C2730 0.950 . S
H2725 C2731 0.950 . S
H2726 C2732 0.949 . S
C2727 H2722 0.950 . S
C2727 C2729 1.327 . S
C2727 C2733 1.429 . S
C2728 C2720 1.574 . S
C2728 H2723 0.949 . S
C2728 C2734 1.368 . S
C2729 C2713 1.349 . S
C2729 H2721 0.950 . S
C2729 C2727 1.327 . S
C2730 C2718 1.349 . S
C2730 H2724 0.950 . S
C2730 C2731 1.327 . S
C2731 H2725 0.950 . S
C2731 C2730 1.327 . S
C2731 C2735 1.429 . S
C2732 C2715 1.574 . S
C2732 H2726 0.949 . S
C2732 C2736 1.368 . S
C2733 C2714 1.429 . S
C2733 C2727 1.429 . S
C2733 C2734 1.523 . S
C2734 C2715 1.368 . S
C2734 C2728 1.368 . S
C2734 C2733 1.523 . S
C2735 C2719 1.429 . S
C2735 C2731 1.429 . S
C2735 C2736 1.523 . S
C2736 C2720 1.368 . S
C2736 C2732 1.368 . S
C2736 C2735 1.523 . S
H2737 C2712 0.950 . S
H2738 C2714 0.950 . S
H2739 C2715 0.949 . S
H2740 C2717 0.950 . S
H2741 C2719 0.950 . S
C2742 C2743 1.349 . S
C2742 C2744 1.327 . S
C2742 H2767 0.950 . S
C2743 C2742 1.349 . S
C2743 C2759 1.349 . S
C2744 C2742 1.327 . S
C2744 C2763 1.429 . S
C2744 H2768 0.950 . S
C2745 C2762 1.574 . S
C2745 C2764 1.368 . S
C2745 H2769 0.949 . S
H2746 C2750 0.949 . S
C2747 C2748 1.349 . S
C2747 C2749 1.327 . S
C2747 H2770 0.950 . S
C2748 C2747 1.349 . S
C2748 C2760 1.349 . S
C2749 C2747 1.327 . S
C2749 C2765 1.429 . S
C2749 H2771 0.950 . S
C2750 H2746 0.949 . S
C2750 C2758 1.574 . S
C2750 C2766 1.368 . S
H2751 C2759 0.950 . S
H2752 C2757 0.950 . S
H2753 C2758 0.949 . S
H2754 C2760 0.950 . S
H2755 C2761 0.950 . S
H2756 C2762 0.949 . S
C2757 H2752 0.950 . S
C2757 C2759 1.327 . S
C2757 C2763 1.429 . S
C2758 C2750 1.574 . S
C2758 H2753 0.949 . S
C2758 C2764 1.368 . S
C2759 C2743 1.349 . S
C2759 H2751 0.950 . S
C2759 C2757 1.327 . S
C2760 C2748 1.349 . S
C2760 H2754 0.950 . S
C2760 C2761 1.327 . S
C2761 H2755 0.950 . S
C2761 C2760 1.327 . S
C2761 C2765 1.429 . S
C2762 C2745 1.574 . S
C2762 H2756 0.949 . S
C2762 C2766 1.368 . S
C2763 C2744 1.429 . S
C2763 C2757 1.429 . S
C2763 C2764 1.523 . S
C2764 C2745 1.368 . S
C2764 C2758 1.368 . S
C2764 C2763 1.523 . S
C2765 C2749 1.429 . S
C2765 C2761 1.429 . S
C2765 C2766 1.523 . S
C2766 C2750 1.368 . S
C2766 C2762 1.368 . S
C2766 C2765 1.523 . S
H2767 C2742 0.950 . S
H2768 C2744 0.950 . S
H2769 C2745 0.949 . S
H2770 C2747 0.950 . S
H2771 C2749 0.950 . S
C2772 C2773 1.349 . S
C2772 C2774 1.327 . S
C2772 H2797 0.950 . S
C2773 C2772 1.349 . S
C2773 C2789 1.349 . S
C2774 C2772 1.327 . S
C2774 C2793 1.429 . S
C2774 H2798 0.950 . S
C2775 C2792 1.574 . S
C2775 C2794 1.368 . S
C2775 H2799 0.949 . S
H2776 C2780 0.949 . S
C2777 C2778 1.349 . S
C2777 C2779 1.327 . S
C2777 H2800 0.950 . S
C2778 C2777 1.349 . S
C2778 C2790 1.349 . S
C2779 C2777 1.327 . S
C2779 C2795 1.429 . S
C2779 H2801 0.950 . S
C2780 H2776 0.949 . S
C2780 C2788 1.574 . S
C2780 C2796 1.368 . S
H2781 C2789 0.950 . S
H2782 C2787 0.950 . S
H2783 C2788 0.949 . S
H2784 C2790 0.950 . S
H2785 C2791 0.950 . S
H2786 C2792 0.949 . S
C2787 H2782 0.950 . S
C2787 C2789 1.327 . S
C2787 C2793 1.429 . S
C2788 C2780 1.574 . S
C2788 H2783 0.949 . S
C2788 C2794 1.368 . S
C2789 C2773 1.349 . S
C2789 H2781 0.950 . S
C2789 C2787 1.327 . S
C2790 C2778 1.349 . S
C2790 H2784 0.950 . S
C2790 C2791 1.327 . S
C2791 H2785 0.950 . S
C2791 C2790 1.327 . S
C2791 C2795 1.429 . S
C2792 C2775 1.574 . S
C2792 H2786 0.949 . S
C2792 C2796 1.368 . S
C2793 C2774 1.429 . S
C2793 C2787 1.429 . S
C2793 C2794 1.523 . S
C2794 C2775 1.368 . S
C2794 C2788 1.368 . S
C2794 C2793 1.523 . S
C2795 C2779 1.429 . S
C2795 C2791 1.429 . S
C2795 C2796 1.523 . S
C2796 C2780 1.368 . S
C2796 C2792 1.368 . S
C2796 C2795 1.523 . S
H2797 C2772 0.950 . S
H2798 C2774 0.950 . S
H2799 C2775 0.949 . S
H2800 C2777 0.950 . S
H2801 C2779 0.950 . S
C2802 C2803 1.349 . S
C2802 C2804 1.327 . S
C2802 H2827 0.950 . S
C2803 C2802 1.349 . S
C2803 C2819 1.349 . S
C2804 C2802 1.327 . S
C2804 C2823 1.429 . S
C2804 H2828 0.950 . S
C2805 C2822 1.574 . S
C2805 C2824 1.368 . S
C2805 H2829 0.949 . S
H2806 C2810 0.949 . S
C2807 C2808 1.349 . S
C2807 C2809 1.327 . S
C2807 H2830 0.950 . S
C2808 C2807 1.349 . S
C2808 C2820 1.349 . S
C2809 C2807 1.327 . S
C2809 C2825 1.429 . S
C2809 H2831 0.950 . S
C2810 H2806 0.949 . S
C2810 C2818 1.574 . S
C2810 C2826 1.368 . S
H2811 C2819 0.950 . S
H2812 C2817 0.950 . S
H2813 C2818 0.949 . S
H2814 C2820 0.950 . S
H2815 C2821 0.950 . S
H2816 C2822 0.949 . S
C2817 H2812 0.950 . S
C2817 C2819 1.327 . S
C2817 C2823 1.429 . S
C2818 C2810 1.574 . S
C2818 H2813 0.949 . S
C2818 C2824 1.368 . S
C2819 C2803 1.349 . S
C2819 H2811 0.950 . S
C2819 C2817 1.327 . S
C2820 C2808 1.349 . S
C2820 H2814 0.950 . S
C2820 C2821 1.327 . S
C2821 H2815 0.950 . S
C2821 C2820 1.327 . S
C2821 C2825 1.429 . S
C2822 C2805 1.574 . S
C2822 H2816 0.949 . S
C2822 C2826 1.368 . S
C2823 C2804 1.429 . S
C2823 C2817 1.429 . S
C2823 C2824 1.523 . S
C2824 C2805 1.368 . S
C2824 C2818 1.368 . S
C2824 C2823 1.523 . S
C2825 C2809 1.429 . S
C2825 C2821 1.429 . S
C2825 C2826 1.523 . S
C2826 C2810 1.368 . S
C2826 C2822 1.368 . S
C2826 C2825 1.523 . S
H2827 C2802 0.950 . S
H2828 C2804 0.950 . S
H2829 C2805 0.949 . S
H2830 C2807 0.950 . S
H2831 C2809 0.950 . S
C2832 C2833 1.320 1_455 S
C2832 C2834 1.314 1_455 S
C2832 H2857 1.000 . S
C2833 C2832 1.320 1_655 S
C2833 C2849 1.349 . S
C2834 C2832 1.314 1_655 S
C2834 C2853 1.429 . S
C2834 H2858 0.950 1_655 S
C2835 C2852 1.574 . S
C2835 C2854 1.368 . S
C2835 H2859 0.949 . S
H2836 C2840 0.949 . S
C2837 C2838 1.349 . S
C2837 C2839 1.327 . S
C2837 H2860 0.950 . S
C2838 C2837 1.349 . S
C2838 C2850 1.349 . S
C2839 C2837 1.327 . S
C2839 C2855 1.429 . S
C2839 H2861 0.950 . S
C2840 H2836 0.949 . S
C2840 C2848 1.574 . S
C2840 C2856 1.368 . S
H2841 C2849 0.950 . S
H2842 C2847 0.950 . S
H2843 C2848 0.949 . S
H2844 C2850 0.950 . S
H2845 C2851 0.950 . S
H2846 C2852 0.949 . S
C2847 H2842 0.950 . S
C2847 C2849 1.327 . S
C2847 C2853 1.429 . S
C2848 C2840 1.574 . S
C2848 H2843 0.949 . S
C2848 C2854 1.368 . S
C2849 C2833 1.349 . S
C2849 H2841 0.950 . S
C2849 C2847 1.327 . S
C2850 C2838 1.349 . S
C2850 H2844 0.950 . S
C2850 C2851 1.327 . S
C2851 H2845 0.950 . S
C2851 C2850 1.327 . S
C2851 C2855 1.429 . S
C2852 C2835 1.574 . S
C2852 H2846 0.949 . S
C2852 C2856 1.368 . S
C2853 C2834 1.429 . S
C2853 C2847 1.429 . S
C2853 C2854 1.523 . S
C2854 C2835 1.368 . S
C2854 C2848 1.368 . S
C2854 C2853 1.523 . S
C2855 C2839 1.429 . S
C2855 C2851 1.429 . S
C2855 C2856 1.523 . S
C2856 C2840 1.368 . S
C2856 C2852 1.368 . S
C2856 C2855 1.523 . S
H2857 C2832 1.000 . S
H2858 C2834 0.950 1_455 S
H2859 C2835 0.949 . S
H2860 C2837 0.950 . S
H2861 C2839 0.950 . S
C2862 C2863 1.349 . S
C2862 C2864 1.327 . S
C2862 H2887 0.950 . S
C2863 C2862 1.349 . S
C2863 C2879 1.349 . S
C2864 C2862 1.327 . S
C2864 C2883 1.429 . S
C2864 H2888 0.950 . S
C2865 C2882 1.574 . S
C2865 C2884 1.368 . S
C2865 H2889 0.949 . S
H2866 C2870 0.949 . S
C2867 C2868 1.349 . S
C2867 C2869 1.327 . S
C2867 H2890 0.950 . S
C2868 C2867 1.349 . S
C2868 C2880 1.349 . S
C2869 C2867 1.327 . S
C2869 C2885 1.429 . S
C2869 H2891 0.950 . S
C2870 H2866 0.949 . S
C2870 C2878 1.574 . S
C2870 C2886 1.368 . S
H2871 C2879 0.950 . S
H2872 C2877 0.950 . S
H2873 C2878 0.949 . S
H2874 C2880 0.950 . S
H2875 C2881 0.950 . S
H2876 C2882 0.949 . S
C2877 H2872 0.950 . S
C2877 C2879 1.327 . S
C2877 C2883 1.429 . S
C2878 C2870 1.574 . S
C2878 H2873 0.949 . S
C2878 C2884 1.368 . S
C2879 C2863 1.349 . S
C2879 H2871 0.950 . S
C2879 C2877 1.327 . S
C2880 C2868 1.349 . S
C2880 H2874 0.950 . S
C2880 C2881 1.327 . S
C2881 H2875 0.950 . S
C2881 C2880 1.327 . S
C2881 C2885 1.429 . S
C2882 C2865 1.574 . S
C2882 H2876 0.949 . S
C2882 C2886 1.368 . S
C2883 C2864 1.429 . S
C2883 C2877 1.429 . S
C2883 C2884 1.523 . S
C2884 C2865 1.368 . S
C2884 C2878 1.368 . S
C2884 C2883 1.523 . S
C2885 C2869 1.429 . S
C2885 C2881 1.429 . S
C2885 C2886 1.523 . S
C2886 C2870 1.368 . S
C2886 C2882 1.368 . S
C2886 C2885 1.523 . S
H2887 C2862 0.950 . S
H2888 C2864 0.950 . S
H2889 C2865 0.949 . S
H2890 C2867 0.950 . S
H2891 C2869 0.950 . S
C2892 C2893 1.349 . S
C2892 C2894 1.327 . S
C2892 H2917 0.950 . S
C2893 C2892 1.349 . S
C2893 C2909 1.349 . S
C2894 C2892 1.327 . S
C2894 C2913 1.429 . S
C2894 H2918 0.950 . S
C2895 C2912 1.574 . S
C2895 C2914 1.368 . S
C2895 H2919 0.949 . S
H2896 C2900 0.949 . S
C2897 C2898 1.349 . S
C2897 C2899 1.327 . S
C2897 H2920 0.950 . S
C2898 C2897 1.349 . S
C2898 C2910 1.349 . S
C2899 C2897 1.327 . S
C2899 C2915 1.429 . S
C2899 H2921 0.950 . S
C2900 H2896 0.949 . S
C2900 C2908 1.574 . S
C2900 C2916 1.368 . S
H2901 C2909 0.950 . S
H2902 C2907 0.950 . S
H2903 C2908 0.949 . S
H2904 C2910 0.950 . S
H2905 C2911 0.950 . S
H2906 C2912 0.949 . S
C2907 H2902 0.950 . S
C2907 C2909 1.327 . S
C2907 C2913 1.429 . S
C2908 C2900 1.574 . S
C2908 H2903 0.949 . S
C2908 C2914 1.368 . S
C2909 C2893 1.349 . S
C2909 H2901 0.950 . S
C2909 C2907 1.327 . S
C2910 C2898 1.349 . S
C2910 H2904 0.950 . S
C2910 C2911 1.327 . S
C2911 H2905 0.950 . S
C2911 C2910 1.327 . S
C2911 C2915 1.429 . S
C2912 C2895 1.574 . S
C2912 H2906 0.949 . S
C2912 C2916 1.368 . S
C2913 C2894 1.429 . S
C2913 C2907 1.429 . S
C2913 C2914 1.523 . S
C2914 C2895 1.368 . S
C2914 C2908 1.368 . S
C2914 C2913 1.523 . S
C2915 C2899 1.429 . S
C2915 C2911 1.429 . S
C2915 C2916 1.523 . S
C2916 C2900 1.368 . S
C2916 C2912 1.368 . S
C2916 C2915 1.523 . S
H2917 C2892 0.950 . S
H2918 C2894 0.950 . S
H2919 C2895 0.949 . S
H2920 C2897 0.950 . S
H2921 C2899 0.950 . S
C2922 C2923 1.349 . S
C2922 C2924 1.327 . S
C2922 H2947 0.950 . S
C2923 C2922 1.349 . S
C2923 C2939 1.349 . S
C2924 C2922 1.327 . S
C2924 C2943 1.429 . S
C2924 H2948 0.950 . S
C2925 C2942 1.574 . S
C2925 C2944 1.368 . S
C2925 H2949 0.949 . S
H2926 C2930 0.949 . S
C2927 C2928 1.349 . S
C2927 C2929 1.327 . S
C2927 H2950 0.950 . S
C2928 C2927 1.349 . S
C2928 C2940 1.349 . S
C2929 C2927 1.327 . S
C2929 C2945 1.429 . S
C2929 H2951 0.950 . S
C2930 H2926 0.949 . S
C2930 C2938 1.574 . S
C2930 C2946 1.368 . S
H2931 C2939 0.950 . S
H2932 C2937 0.950 . S
H2933 C2938 0.949 . S
H2934 C2940 0.950 . S
H2935 C2941 0.950 . S
H2936 C2942 0.949 . S
C2937 H2932 0.950 . S
C2937 C2939 1.327 . S
C2937 C2943 1.429 . S
C2938 C2930 1.574 . S
C2938 H2933 0.949 . S
C2938 C2944 1.368 . S
C2939 C2923 1.349 . S
C2939 H2931 0.950 . S
C2939 C2937 1.327 . S
C2940 C2928 1.349 . S
C2940 H2934 0.950 . S
C2940 C2941 1.327 . S
C2941 H2935 0.950 . S
C2941 C2940 1.327 . S
C2941 C2945 1.429 . S
C2942 C2925 1.574 . S
C2942 H2936 0.949 . S
C2942 C2946 1.368 . S
C2943 C2924 1.429 . S
C2943 C2937 1.429 . S
C2943 C2944 1.523 . S
C2944 C2925 1.368 . S
C2944 C2938 1.368 . S
C2944 C2943 1.523 . S
C2945 C2929 1.429 . S
C2945 C2941 1.429 . S
C2945 C2946 1.523 . S
C2946 C2930 1.368 . S
C2946 C2942 1.368 . S
C2946 C2945 1.523 . S
H2947 C2922 0.950 . S
H2948 C2924 0.950 . S
H2949 C2925 0.949 . S
H2950 C2927 0.950 . S
H2951 C2929 0.950 . S
C2952 C2953 1.349 . S
C2952 C2954 1.327 . S
C2952 H2977 0.950 . S
C2953 C2952 1.349 . S
C2953 C2969 1.349 . S
C2954 C2952 1.327 . S
C2954 C2973 1.429 . S
C2954 H2978 0.950 . S
C2955 C2972 1.574 . S
C2955 C2974 1.368 . S
C2955 H2979 0.949 . S
H2956 C2960 0.949 . S
C2957 C2958 1.349 . S
C2957 C2959 1.327 . S
C2957 H2980 0.950 . S
C2958 C2957 1.349 . S
C2958 C2970 1.349 . S
C2959 C2957 1.327 . S
C2959 C2975 1.429 . S
C2959 H2981 0.950 . S
C2960 H2956 0.949 . S
C2960 C2968 1.574 . S
C2960 C2976 1.368 . S
H2961 C2969 0.950 . S
H2962 C2967 0.950 . S
H2963 C2968 0.949 . S
H2964 C2970 0.950 . S
H2965 C2971 0.950 . S
H2966 C2972 0.949 . S
C2967 H2962 0.950 . S
C2967 C2969 1.327 . S
C2967 C2973 1.429 . S
C2968 C2960 1.574 . S
C2968 H2963 0.949 . S
C2968 C2974 1.368 . S
C2969 C2953 1.349 . S
C2969 H2961 0.950 . S
C2969 C2967 1.327 . S
C2970 C2958 1.349 . S
C2970 H2964 0.950 . S
C2970 C2971 1.327 . S
C2971 H2965 0.950 . S
C2971 C2970 1.327 . S
C2971 C2975 1.429 . S
C2972 C2955 1.574 . S
C2972 H2966 0.949 . S
C2972 C2976 1.368 . S
C2973 C2954 1.429 . S
C2973 C2967 1.429 . S
C2973 C2974 1.523 . S
C2974 C2955 1.368 . S
C2974 C2968 1.368 . S
C2974 C2973 1.523 . S
C2975 C2959 1.429 . S
C2975 C2971 1.429 . S
C2975 C2976 1.523 . S
C2976 C2960 1.368 . S
C2976 C2972 1.368 . S
C2976 C2975 1.523 . S
H2977 C2952 0.950 . S
H2978 C2954 0.950 . S
H2979 C2955 0.949 . S
H2980 C2957 0.950 . S
H2981 C2959 0.950 . S
C2982 C2983 1.349 . S
C2982 C2984 1.327 . S
C2982 H3007 0.950 . S
C2983 C2982 1.349 . S
C2983 C2999 1.349 . S
C2984 C2982 1.327 . S
C2984 C3003 1.429 . S
C2984 H3008 0.950 . S
C2985 C3002 1.574 . S
C2985 C3004 1.368 . S
C2985 H3009 0.949 . S
H2986 C2990 0.949 . S
C2987 C2988 1.349 . S
C2987 C2989 1.327 . S
C2987 H3010 0.950 . S
C2988 C2987 1.349 . S
C2988 C3000 1.349 . S
C2989 C2987 1.327 . S
C2989 C3005 1.429 . S
C2989 H3011 0.950 . S
C2990 H2986 0.949 . S
C2990 C2998 1.574 . S
C2990 C3006 1.368 . S
H2991 C2999 0.950 . S
H2992 C2997 0.950 . S
H2993 C2998 0.949 . S
H2994 C3000 0.950 . S
H2995 C3001 0.950 . S
H2996 C3002 0.949 . S
C2997 H2992 0.950 . S
C2997 C2999 1.327 . S
C2997 C3003 1.429 . S
C2998 C2990 1.574 . S
C2998 H2993 0.949 . S
C2998 C3004 1.368 . S
C2999 C2983 1.349 . S
C2999 H2991 0.950 . S
C2999 C2997 1.327 . S
C3000 C2988 1.349 . S
C3000 H2994 0.950 . S
C3000 C3001 1.327 . S
C3001 H2995 0.950 . S
C3001 C3000 1.327 . S
C3001 C3005 1.429 . S
C3002 C2985 1.574 . S
C3002 H2996 0.949 . S
C3002 C3006 1.368 . S
C3003 C2984 1.429 . S
C3003 C2997 1.429 . S
C3003 C3004 1.523 . S
C3004 C2985 1.368 . S
C3004 C2998 1.368 . S
C3004 C3003 1.523 . S
C3005 C2989 1.429 . S
C3005 C3001 1.429 . S
C3005 C3006 1.523 . S
C3006 C2990 1.368 . S
C3006 C3002 1.368 . S
C3006 C3005 1.523 . S
H3007 C2982 0.950 . S
H3008 C2984 0.950 . S
H3009 C2985 0.949 . S
H3010 C2987 0.950 . S
H3011 C2989 0.950 . S
C3012 C3013 1.349 . S
C3012 C3014 1.327 . S
C3012 H3037 0.950 . S
C3013 C3012 1.349 . S
C3013 C3029 1.349 . S
C3014 C3012 1.327 . S
C3014 C3033 1.429 . S
C3014 H3038 0.950 . S
C3015 C3032 1.574 . S
C3015 C3034 1.368 . S
C3015 H3039 0.949 . S
H3016 C3020 0.949 . S
C3017 C3018 1.349 . S
C3017 C3019 1.327 . S
C3017 H3040 0.950 . S
C3018 C3017 1.349 . S
C3018 C3030 1.349 . S
C3019 C3017 1.327 . S
C3019 C3035 1.429 . S
C3019 H3041 0.950 . S
C3020 H3016 0.949 . S
C3020 C3028 1.574 . S
C3020 C3036 1.368 . S
H3021 C3029 0.950 . S
H3022 C3027 0.950 . S
H3023 C3028 0.949 . S
H3024 C3030 0.950 . S
H3025 C3031 0.950 . S
H3026 C3032 0.949 . S
C3027 H3022 0.950 . S
C3027 C3029 1.327 . S
C3027 C3033 1.429 . S
C3028 C3020 1.574 . S
C3028 H3023 0.949 . S
C3028 C3034 1.368 . S
C3029 C3013 1.349 . S
C3029 H3021 0.950 . S
C3029 C3027 1.327 . S
C3030 C3018 1.349 . S
C3030 H3024 0.950 . S
C3030 C3031 1.327 . S
C3031 H3025 0.950 . S
C3031 C3030 1.327 . S
C3031 C3035 1.429 . S
C3032 C3015 1.574 . S
C3032 H3026 0.949 . S
C3032 C3036 1.368 . S
C3033 C3014 1.429 . S
C3033 C3027 1.429 . S
C3033 C3034 1.523 . S
C3034 C3015 1.368 . S
C3034 C3028 1.368 . S
C3034 C3033 1.523 . S
C3035 C3019 1.429 . S
C3035 C3031 1.429 . S
C3035 C3036 1.523 . S
C3036 C3020 1.368 . S
C3036 C3032 1.368 . S
C3036 C3035 1.523 . S
H3037 C3012 0.950 . S
H3038 C3014 0.950 . S
H3039 C3015 0.949 . S
H3040 C3017 0.950 . S
H3041 C3019 0.950 . S
C3042 C3043 1.349 . S
C3042 C3044 1.327 . S
C3042 H3067 0.950 . S
C3043 C3042 1.349 . S
C3043 C3059 1.349 . S
C3044 C3042 1.327 . S
C3044 C3063 1.429 . S
C3044 H3068 0.950 . S
C3045 C3062 1.574 . S
C3045 C3064 1.368 . S
C3045 H3069 0.949 . S
H3046 C3050 0.949 . S
C3047 C3048 1.349 . S
C3047 C3049 1.327 . S
C3047 H3070 0.950 . S
C3048 C3047 1.349 . S
C3048 C3060 1.349 . S
C3049 C3047 1.327 . S
C3049 C3065 1.429 . S
C3049 H3071 0.950 . S
C3050 H3046 0.949 . S
C3050 C3058 1.574 . S
C3050 C3066 1.368 . S
H3051 C3059 0.950 . S
H3052 C3057 0.950 . S
H3053 C3058 0.949 . S
H3054 C3060 0.950 . S
H3055 C3061 0.950 . S
H3056 C3062 0.949 . S
C3057 H3052 0.950 . S
C3057 C3059 1.327 . S
C3057 C3063 1.429 . S
C3058 C3050 1.574 . S
C3058 H3053 0.949 . S
C3058 C3064 1.368 . S
C3059 C3043 1.349 . S
C3059 H3051 0.950 . S
C3059 C3057 1.327 . S
C3060 C3048 1.349 . S
C3060 H3054 0.950 . S
C3060 C3061 1.327 . S
C3061 H3055 0.950 . S
C3061 C3060 1.327 . S
C3061 C3065 1.429 . S
C3062 C3045 1.574 . S
C3062 H3056 0.949 . S
C3062 C3066 1.368 . S
C3063 C3044 1.429 . S
C3063 C3057 1.429 . S
C3063 C3064 1.523 . S
C3064 C3045 1.368 . S
C3064 C3058 1.368 . S
C3064 C3063 1.523 . S
C3065 C3049 1.429 . S
C3065 C3061 1.429 . S
C3065 C3066 1.523 . S
C3066 C3050 1.368 . S
C3066 C3062 1.368 . S
C3066 C3065 1.523 . S
H3067 C3042 0.950 . S
H3068 C3044 0.950 . S
H3069 C3045 0.949 . S
H3070 C3047 0.950 . S
H3071 C3049 0.950 . S
C3072 C3073 1.349 . S
C3072 C3074 1.327 . S
C3072 H3097 0.950 . S
C3073 C3072 1.349 . S
C3073 C3089 1.349 . S
C3074 C3072 1.327 . S
C3074 C3093 1.429 . S
C3074 H3098 0.950 . S
C3075 C3092 1.574 . S
C3075 C3094 1.368 . S
C3075 H3099 0.949 . S
H3076 C3080 0.949 . S
C3077 C3078 1.349 1_545 S
C3077 C3079 1.327 . S
C3077 H3100 0.950 . S
C3078 C3077 1.349 1_565 S
C3078 C3090 1.349 . S
C3079 C3077 1.327 . S
C3079 C3095 1.429 1_545 S
C3079 H3101 0.950 . S
C3080 H3076 0.949 . S
C3080 C3088 1.574 . S
C3080 C3096 1.368 . S
H3081 C3089 0.950 . S
H3082 C3087 0.950 . S
H3083 C3088 0.949 . S
H3084 C3090 0.950 . S
H3085 C3091 0.950 . S
H3086 C3092 0.949 1_545 S
C3087 H3082 0.950 . S
C3087 C3089 1.327 . S
C3087 C3093 1.429 . S
C3088 C3080 1.574 . S
C3088 H3083 0.949 . S
C3088 C3094 1.368 . S
C3089 C3073 1.349 . S
C3089 H3081 0.950 . S
C3089 C3087 1.327 . S
C3090 C3078 1.349 . S
C3090 H3084 0.950 . S
C3090 C3091 1.327 . S
C3091 H3085 0.950 . S
C3091 C3090 1.327 . S
C3091 C3095 1.429 . S
C3092 C3075 1.574 . S
C3092 H3086 0.949 1_565 S
C3092 C3096 1.368 . S
C3093 C3074 1.429 . S
C3093 C3087 1.429 . S
C3093 C3094 1.523 . S
C3094 C3075 1.368 . S
C3094 C3088 1.368 . S
C3094 C3093 1.523 . S
C3095 C3079 1.429 1_565 S
C3095 C3091 1.429 . S
C3095 C3096 1.523 . S
C3096 C3080 1.368 . S
C3096 C3092 1.368 . S
C3096 C3095 1.523 . S
H3097 C3072 0.950 . S
H3098 C3074 0.950 . S
H3099 C3075 0.949 . S
H3100 C3077 0.950 . S
H3101 C3079 0.950 . S
C3102 C3103 1.349 . S
C3102 C3104 1.327 . S
C3102 H3127 0.950 . S
C3103 C3102 1.349 . S
C3103 C3119 1.349 . S
C3104 C3102 1.327 . S
C3104 C3123 1.429 . S
C3104 H3128 0.950 . S
C3105 C3122 1.574 . S
C3105 C3124 1.368 . S
C3105 H3129 1.008 . S
H3106 C3110 0.949 . S
C3107 C3108 1.349 . S
C3107 C3109 1.327 . S
C3107 H3130 0.950 1_565 S
C3108 C3107 1.349 . S
C3108 C3120 1.349 . S
C3109 C3107 1.327 . S
C3109 C3125 1.429 . S
C3109 H3131 0.950 1_565 S
C3110 H3106 0.949 . S
C3110 C3118 1.574 . S
C3110 C3126 1.368 . S
H3111 C3119 0.950 . S
H3112 C3117 0.950 . S
H3113 C3118 0.949 . S
H3114 C3120 0.950 . S
H3115 C3121 0.950 . S
H3116 C3122 0.914 1_545 S
C3117 H3112 0.950 . S
C3117 C3119 1.327 . S
C3117 C3123 1.429 . S
C3118 C3110 1.574 . S
C3118 H3113 0.949 . S
C3118 C3124 1.368 . S
C3119 C3103 1.349 . S
C3119 H3111 0.950 . S
C3119 C3117 1.327 . S
C3120 C3108 1.349 . S
C3120 H3114 0.950 . S
C3120 C3121 1.327 . S
C3121 H3115 0.950 . S
C3121 C3120 1.327 . S
C3121 C3125 1.429 . S
C3122 C3105 1.574 . S
C3122 H3116 0.914 1_565 S
C3122 C3126 1.368 . S
C3123 C3104 1.429 . S
C3123 C3117 1.429 . S
C3123 C3124 1.523 . S
C3124 C3105 1.368 . S
C3124 C3118 1.368 . S
C3124 C3123 1.523 . S
C3125 C3109 1.429 . S
C3125 C3121 1.429 . S
C3125 C3126 1.523 . S
C3126 C3110 1.368 . S
C3126 C3122 1.368 . S
C3126 C3125 1.523 . S
H3127 C3102 0.950 . S
H3128 C3104 0.950 . S
H3129 C3105 1.008 . S
H3130 C3107 0.950 1_545 S
H3131 C3109 0.950 1_545 S
C3132 C3133 1.349 . S
C3132 C3134 1.327 . S
C3132 H3157 0.950 . S
C3133 C3132 1.349 . S
C3133 C3149 1.349 . S
C3134 C3132 1.327 . S
C3134 C3153 1.429 . S
C3134 H3158 0.950 . S
C3135 C3152 1.574 . S
C3135 C3154 1.368 . S
C3135 H3159 0.949 . S
H3136 C3140 0.949 . S
C3137 C3138 1.349 . S
C3137 C3139 1.327 . S
C3137 H3160 0.950 . S
C3138 C3137 1.349 . S
C3138 C3150 1.349 . S
C3139 C3137 1.327 . S
C3139 C3155 1.429 . S
C3139 H3161 0.950 . S
C3140 H3136 0.949 . S
C3140 C3148 1.574 . S
C3140 C3156 1.368 . S
H3141 C3149 0.950 . S
H3142 C3147 0.950 . S
H3143 C3148 0.949 . S
H3144 C3150 0.950 . S
H3145 C3151 0.950 . S
H3146 C3152 0.949 . S
C3147 H3142 0.950 . S
C3147 C3149 1.327 . S
C3147 C3153 1.429 . S
C3148 C3140 1.574 . S
C3148 H3143 0.949 . S
C3148 C3154 1.368 . S
C3149 C3133 1.349 . S
C3149 H3141 0.950 . S
C3149 C3147 1.327 . S
C3150 C3138 1.349 . S
C3150 H3144 0.950 . S
C3150 C3151 1.327 . S
C3151 H3145 0.950 . S
C3151 C3150 1.327 . S
C3151 C3155 1.429 . S
C3152 C3135 1.574 . S
C3152 H3146 0.949 . S
C3152 C3156 1.368 . S
C3153 C3134 1.429 . S
C3153 C3147 1.429 . S
C3153 C3154 1.523 . S
C3154 C3135 1.368 . S
C3154 C3148 1.368 . S
C3154 C3153 1.523 . S
C3155 C3139 1.429 . S
C3155 C3151 1.429 . S
C3155 C3156 1.523 . S
C3156 C3140 1.368 . S
C3156 C3152 1.368 . S
C3156 C3155 1.523 . S
H3157 C3132 0.950 . S
H3158 C3134 0.950 . S
H3159 C3135 0.949 . S
H3160 C3137 0.950 . S
H3161 C3139 0.950 . S
C3162 C3163 1.349 . S
C3162 C3164 1.327 . S
C3162 H3187 0.950 . S
C3163 C3162 1.349 . S
C3163 C3179 1.349 . S
C3164 C3162 1.327 . S
C3164 C3183 1.429 . S
C3164 H3188 0.950 . S
C3165 C3182 1.574 . S
C3165 C3184 1.368 . S
C3165 H3189 0.949 . S
H3166 C3170 0.949 . S
C3167 C3168 1.349 . S
C3167 C3169 1.327 . S
C3167 H3190 0.950 . S
C3168 C3167 1.349 . S
C3168 C3180 1.349 . S
C3169 C3167 1.327 . S
C3169 C3185 1.429 . S
C3169 H3191 0.950 . S
C3170 H3166 0.949 . S
C3170 C3178 1.574 . S
C3170 C3186 1.368 . S
H3171 C3179 0.950 . S
H3172 C3177 0.950 . S
H3173 C3178 0.949 . S
H3174 C3180 0.950 . S
H3175 C3181 0.950 . S
H3176 C3182 0.949 . S
C3177 H3172 0.950 . S
C3177 C3179 1.327 . S
C3177 C3183 1.429 . S
C3178 C3170 1.574 . S
C3178 H3173 0.949 . S
C3178 C3184 1.368 . S
C3179 C3163 1.349 . S
C3179 H3171 0.950 . S
C3179 C3177 1.327 . S
C3180 C3168 1.349 . S
C3180 H3174 0.950 . S
C3180 C3181 1.327 . S
C3181 H3175 0.950 . S
C3181 C3180 1.327 . S
C3181 C3185 1.429 . S
C3182 C3165 1.574 . S
C3182 H3176 0.949 . S
C3182 C3186 1.368 . S
C3183 C3164 1.429 . S
C3183 C3177 1.429 . S
C3183 C3184 1.523 . S
C3184 C3165 1.368 . S
C3184 C3178 1.368 . S
C3184 C3183 1.523 . S
C3185 C3169 1.429 . S
C3185 C3181 1.429 . S
C3185 C3186 1.523 . S
C3186 C3170 1.368 . S
C3186 C3182 1.368 . S
C3186 C3185 1.523 . S
H3187 C3162 0.950 . S
H3188 C3164 0.950 . S
H3189 C3165 0.949 . S
H3190 C3167 0.950 . S
H3191 C3169 0.950 . S
C3192 C3193 1.349 . S
C3192 C3194 1.327 . S
C3192 H3217 0.950 . S
C3193 C3192 1.349 . S
C3193 C3209 1.349 1_556 S
C3194 C3192 1.327 . S
C3194 C3213 1.429 . S
C3194 H3218 0.950 . S
C3195 C3212 1.574 . S
C3195 C3214 1.368 . S
C3195 H3219 0.949 1_556 S
H3196 C3200 0.949 . S
C3197 C3198 1.349 . S
C3197 C3199 1.327 . S
C3197 H3220 0.950 . S
C3198 C3197 1.349 . S
C3198 C3210 1.349 . S
C3199 C3197 1.327 . S
C3199 C3215 1.429 . S
C3199 H3221 0.950 . S
C3200 H3196 0.949 . S
C3200 C3208 1.574 . S
C3200 C3216 1.368 . S
H3201 C3209 0.950 . S
H3202 C3207 0.950 . S
H3203 C3208 0.949 . S
H3204 C3210 0.950 . S
H3205 C3211 0.950 . S
H3206 C3212 0.933 1_554 S
C3207 H3202 0.950 . S
C3207 C3209 1.327 . S
C3207 C3213 1.429 1_554 S
C3208 C3200 1.574 . S
C3208 H3203 0.949 . S
C3208 C3214 1.368 . S
C3209 C3193 1.349 1_554 S
C3209 H3201 0.950 . S
C3209 C3207 1.327 . S
C3210 C3198 1.349 . S
C3210 H3204 0.950 . S
C3210 C3211 1.327 . S
C3211 H3205 0.950 . S
C3211 C3210 1.327 . S
C3211 C3215 1.429 . S
C3212 C3195 1.574 . S
C3212 H3206 0.933 1_556 S
C3212 C3216 1.368 . S
C3213 C3194 1.429 . S
C3213 C3207 1.429 1_556 S
C3213 C3214 1.523 . S
C3214 C3195 1.368 . S
C3214 C3208 1.368 . S
C3214 C3213 1.523 . S
C3215 C3199 1.429 . S
C3215 C3211 1.429 . S
C3215 C3216 1.523 . S
C3216 C3200 1.368 . S
C3216 C3212 1.368 . S
C3216 C3215 1.523 . S
H3217 C3192 0.950 . S
H3218 C3194 0.950 . S
H3219 C3195 0.949 1_554 S
H3220 C3197 0.950 . S
H3221 C3199 0.950 . S
C3222 C3223 1.349 . S
C3222 C3224 1.327 . S
C3222 H3247 0.950 . S
C3223 C3222 1.349 . S
C3223 C3239 1.349 . S
C3224 C3222 1.327 . S
C3224 C3243 1.429 . S
C3224 H3248 0.950 . S
C3225 C3242 1.574 . S
C3225 C3244 1.368 . S
C3225 H3249 0.949 . S
H3226 C3230 0.949 . S
C3227 C3228 1.349 . S
C3227 C3229 1.327 . S
C3227 H3250 0.950 . S
C3228 C3227 1.349 . S
C3228 C3240 1.349 . S
C3229 C3227 1.327 . S
C3229 C3245 1.429 . S
C3229 H3251 0.950 . S
C3230 H3226 0.949 . S
C3230 C3238 1.574 . S
C3230 C3246 1.368 . S
H3231 C3239 0.950 . S
H3232 C3237 0.950 . S
H3233 C3238 0.949 . S
H3234 C3240 0.950 . S
H3235 C3241 0.950 . S
H3236 C3242 0.949 . S
C3237 H3232 0.950 . S
C3237 C3239 1.327 . S
C3237 C3243 1.429 . S
C3238 C3230 1.574 . S
C3238 H3233 0.949 . S
C3238 C3244 1.368 . S
C3239 C3223 1.349 . S
C3239 H3231 0.950 . S
C3239 C3237 1.327 . S
C3240 C3228 1.349 . S
C3240 H3234 0.950 . S
C3240 C3241 1.327 . S
C3241 H3235 0.950 . S
C3241 C3240 1.327 . S
C3241 C3245 1.429 . S
C3242 C3225 1.574 . S
C3242 H3236 0.949 . S
C3242 C3246 1.368 . S
C3243 C3224 1.429 . S
C3243 C3237 1.429 . S
C3243 C3244 1.523 . S
C3244 C3225 1.368 . S
C3244 C3238 1.368 . S
C3244 C3243 1.523 . S
C3245 C3229 1.429 . S
C3245 C3241 1.429 . S
C3245 C3246 1.523 . S
C3246 C3230 1.368 . S
C3246 C3242 1.368 . S
C3246 C3245 1.523 . S
H3247 C3222 0.950 . S
H3248 C3224 0.950 . S
H3249 C3225 0.949 . S
H3250 C3227 0.950 . S
H3251 C3229 0.950 . S
C3252 C3253 1.349 . S
C3252 C3254 1.327 . S
C3252 H3277 0.950 . S
C3253 C3252 1.349 . S
C3253 C3269 1.349 . S
C3254 C3252 1.327 . S
C3254 C3273 1.429 . S
C3254 H3278 0.950 . S
C3255 C3272 1.574 . S
C3255 C3274 1.368 . S
C3255 H3279 0.949 . S
H3256 C3260 0.949 . S
C3257 C3258 1.349 . S
C3257 C3259 1.327 . S
C3257 H3280 0.950 . S
C3258 C3257 1.349 . S
C3258 C3270 1.349 . S
C3259 C3257 1.327 . S
C3259 C3275 1.429 . S
C3259 H3281 0.950 . S
C3260 H3256 0.949 . S
C3260 C3268 1.574 . S
C3260 C3276 1.368 . S
H3261 C3269 0.950 . S
H3262 C3267 0.950 . S
H3263 C3268 0.949 . S
H3264 C3270 0.950 . S
H3265 C3271 0.950 . S
H3266 C3272 0.949 . S
C3267 H3262 0.950 . S
C3267 C3269 1.327 . S
C3267 C3273 1.429 . S
C3268 C3260 1.574 . S
C3268 H3263 0.949 . S
C3268 C3274 1.368 . S
C3269 C3253 1.349 . S
C3269 H3261 0.950 . S
C3269 C3267 1.327 . S
C3270 C3258 1.349 . S
C3270 H3264 0.950 . S
C3270 C3271 1.327 . S
C3271 H3265 0.950 . S
C3271 C3270 1.327 . S
C3271 C3275 1.429 . S
C3272 C3255 1.574 . S
C3272 H3266 0.949 . S
C3272 C3276 1.368 . S
C3273 C3254 1.429 . S
C3273 C3267 1.429 . S
C3273 C3274 1.523 . S
C3274 C3255 1.368 . S
C3274 C3268 1.368 . S
C3274 C3273 1.523 . S
C3275 C3259 1.429 . S
C3275 C3271 1.429 . S
C3275 C3276 1.523 . S
C3276 C3260 1.368 . S
C3276 C3272 1.368 . S
C3276 C3275 1.523 . S
H3277 C3252 0.950 . S
H3278 C3254 0.950 . S
H3279 C3255 0.949 . S
H3280 C3257 0.950 . S
H3281 C3259 0.950 . S
C3282 C3283 1.349 . S
C3282 C3284 1.327 . S
C3282 H3307 0.950 . S
C3283 C3282 1.349 . S
C3283 C3299 1.349 . S
C3284 C3282 1.327 . S
C3284 C3303 1.429 . S
C3284 H3308 0.950 . S
C3285 C3302 1.574 . S
C3285 C3304 1.368 . S
C3285 H3309 0.949 . S
H3286 C3290 0.949 . S
C3287 C3288 1.349 . S
C3287 C3289 1.327 . S
C3287 H3310 0.950 . S
C3288 C3287 1.349 . S
C3288 C3300 1.349 . S
C3289 C3287 1.327 . S
C3289 C3305 1.429 . S
C3289 H3311 0.950 . S
C3290 H3286 0.949 . S
C3290 C3298 1.574 . S
C3290 C3306 1.368 . S
H3291 C3299 0.950 . S
H3292 C3297 0.950 . S
H3293 C3298 0.949 . S
H3294 C3300 0.950 . S
H3295 C3301 0.950 . S
H3296 C3302 0.949 . S
C3297 H3292 0.950 . S
C3297 C3299 1.327 . S
C3297 C3303 1.429 . S
C3298 C3290 1.574 . S
C3298 H3293 0.949 . S
C3298 C3304 1.368 . S
C3299 C3283 1.349 . S
C3299 H3291 0.950 . S
C3299 C3297 1.327 . S
C3300 C3288 1.349 . S
C3300 H3294 0.950 . S
C3300 C3301 1.327 . S
C3301 H3295 0.950 . S
C3301 C3300 1.327 . S
C3301 C3305 1.429 . S
C3302 C3285 1.574 . S
C3302 H3296 0.949 . S
C3302 C3306 1.368 . S
C3303 C3284 1.429 . S
C3303 C3297 1.429 . S
C3303 C3304 1.523 . S
C3304 C3285 1.368 . S
C3304 C3298 1.368 . S
C3304 C3303 1.523 . S
C3305 C3289 1.429 . S
C3305 C3301 1.429 . S
C3305 C3306 1.523 . S
C3306 C3290 1.368 . S
C3306 C3302 1.368 . S
C3306 C3305 1.523 . S
H3307 C3282 0.950 . S
H3308 C3284 0.950 . S
H3309 C3285 0.949 . S
H3310 C3287 0.950 . S
H3311 C3289 0.950 . S
C3312 C3313 1.349 . S
C3312 C3314 1.327 . S
C3312 H3337 0.950 . S
C3313 C3312 1.349 . S
C3313 C3329 1.349 . S
C3314 C3312 1.327 . S
C3314 C3333 1.429 . S
C3314 H3338 0.950 . S
C3315 C3332 1.574 . S
C3315 C3334 1.368 . S
C3315 H3339 0.949 . S
H3316 C3320 0.949 . S
C3317 C3318 1.349 . S
C3317 C3319 1.327 . S
C3317 H3340 0.950 . S
C3318 C3317 1.349 . S
C3318 C3330 1.349 . S
C3319 C3317 1.327 . S
C3319 C3335 1.429 . S
C3319 H3341 0.950 . S
C3320 H3316 0.949 . S
C3320 C3328 1.574 . S
C3320 C3336 1.368 . S
H3321 C3329 0.950 . S
H3322 C3327 0.950 . S
H3323 C3328 0.949 . S
H3324 C3330 0.950 . S
H3325 C3331 0.950 . S
H3326 C3332 0.949 . S
C3327 H3322 0.950 . S
C3327 C3329 1.327 . S
C3327 C3333 1.429 . S
C3328 C3320 1.574 . S
C3328 H3323 0.949 . S
C3328 C3334 1.368 . S
C3329 C3313 1.349 . S
C3329 H3321 0.950 . S
C3329 C3327 1.327 . S
C3330 C3318 1.349 . S
C3330 H3324 0.950 . S
C3330 C3331 1.327 . S
C3331 H3325 0.950 . S
C3331 C3330 1.327 . S
C3331 C3335 1.429 . S
C3332 C3315 1.574 . S
C3332 H3326 0.949 . S
C3332 C3336 1.368 . S
C3333 C3314 1.429 . S
C3333 C3327 1.429 . S
C3333 C3334 1.523 . S
C3334 C3315 1.368 . S
C3334 C3328 1.368 . S
C3334 C3333 1.523 . S
C3335 C3319 1.429 . S
C3335 C3331 1.429 . S
C3335 C3336 1.523 . S
C3336 C3320 1.368 . S
C3336 C3332 1.368 . S
C3336 C3335 1.523 . S
H3337 C3312 0.950 . S
H3338 C3314 0.950 . S
H3339 C3315 0.949 . S
H3340 C3317 0.950 . S
H3341 C3319 0.950 . S
C3342 C3343 1.349 . S
C3342 C3344 1.327 . S
C3342 H3367 0.950 . S
C3343 C3342 1.349 . S
C3343 C3359 1.349 . S
C3344 C3342 1.327 . S
C3344 C3363 1.429 . S
C3344 H3368 0.950 . S
C3345 C3362 1.574 . S
C3345 C3364 1.368 . S
C3345 H3369 0.949 . S
H3346 C3350 0.949 . S
C3347 C3348 1.349 . S
C3347 C3349 1.327 . S
C3347 H3370 0.950 . S
C3348 C3347 1.349 . S
C3348 C3360 1.349 . S
C3349 C3347 1.327 . S
C3349 C3365 1.429 . S
C3349 H3371 0.950 . S
C3350 H3346 0.949 . S
C3350 C3358 1.574 . S
C3350 C3366 1.368 . S
H3351 C3359 0.950 . S
H3352 C3357 0.950 . S
H3353 C3358 0.949 . S
H3354 C3360 0.950 . S
H3355 C3361 0.950 . S
H3356 C3362 0.949 . S
C3357 H3352 0.950 . S
C3357 C3359 1.327 . S
C3357 C3363 1.429 . S
C3358 C3350 1.574 . S
C3358 H3353 0.949 . S
C3358 C3364 1.368 . S
C3359 C3343 1.349 . S
C3359 H3351 0.950 . S
C3359 C3357 1.327 . S
C3360 C3348 1.349 . S
C3360 H3354 0.950 . S
C3360 C3361 1.327 . S
C3361 H3355 0.950 . S
C3361 C3360 1.327 . S
C3361 C3365 1.429 . S
C3362 C3345 1.574 . S
C3362 H3356 0.949 . S
C3362 C3366 1.368 . S
C3363 C3344 1.429 . S
C3363 C3357 1.429 . S
C3363 C3364 1.523 . S
C3364 C3345 1.368 . S
C3364 C3358 1.368 . S
C3364 C3363 1.523 . S
C3365 C3349 1.429 . S
C3365 C3361 1.429 . S
C3365 C3366 1.523 . S
C3366 C3350 1.368 . S
C3366 C3362 1.368 . S
C3366 C3365 1.523 . S
H3367 C3342 0.950 . S
H3368 C3344 0.950 . S
H3369 C3345 0.949 . S
H3370 C3347 0.950 . S
H3371 C3349 0.950 . S
C3372 C3373 1.349 . S
C3372 C3374 1.327 . S
C3372 H3397 0.950 . S
C3373 C3372 1.349 . S
C3373 C3389 1.349 . S
C3374 C3372 1.327 . S
C3374 C3393 1.429 . S
C3374 H3398 0.950 . S
C3375 C3392 1.574 . S
C3375 C3394 1.368 . S
C3375 H3399 0.949 . S
H3376 C3380 0.949 . S
C3377 C3378 1.349 . S
C3377 C3379 1.327 . S
C3377 H3400 0.950 . S
C3378 C3377 1.349 . S
C3378 C3390 1.349 . S
C3379 C3377 1.327 . S
C3379 C3395 1.429 . S
C3379 H3401 0.950 . S
C3380 H3376 0.949 . S
C3380 C3388 1.574 . S
C3380 C3396 1.368 . S
H3381 C3389 0.950 . S
H3382 C3387 0.950 . S
H3383 C3388 0.949 . S
H3384 C3390 0.950 . S
H3385 C3391 0.950 . S
H3386 C3392 0.949 . S
C3387 H3382 0.950 . S
C3387 C3389 1.327 . S
C3387 C3393 1.429 . S
C3388 C3380 1.574 . S
C3388 H3383 0.949 . S
C3388 C3394 1.368 . S
C3389 C3373 1.349 . S
C3389 H3381 0.950 . S
C3389 C3387 1.327 . S
C3390 C3378 1.349 . S
C3390 H3384 0.950 . S
C3390 C3391 1.327 . S
C3391 H3385 0.950 . S
C3391 C3390 1.327 . S
C3391 C3395 1.429 . S
C3392 C3375 1.574 . S
C3392 H3386 0.949 . S
C3392 C3396 1.368 . S
C3393 C3374 1.429 . S
C3393 C3387 1.429 . S
C3393 C3394 1.523 . S
C3394 C3375 1.368 . S
C3394 C3388 1.368 . S
C3394 C3393 1.523 . S
C3395 C3379 1.429 . S
C3395 C3391 1.429 . S
C3395 C3396 1.523 . S
C3396 C3380 1.368 . S
C3396 C3392 1.368 . S
C3396 C3395 1.523 . S
H3397 C3372 0.950 . S
H3398 C3374 0.950 . S
H3399 C3375 0.949 . S
H3400 C3377 0.950 . S
H3401 C3379 0.950 . S
C3402 C3403 1.349 . S
C3402 C3404 1.327 . S
C3402 H3427 0.950 . S
C3403 C3402 1.349 . S
C3403 C3419 1.349 . S
C3404 C3402 1.327 . S
C3404 C3423 1.429 . S
C3404 H3428 0.950 . S
C3405 C3422 1.574 . S
C3405 C3424 1.368 . S
C3405 H3429 0.949 . S
H3406 C3410 0.949 . S
C3407 C3408 1.349 . S
C3407 C3409 1.327 . S
C3407 H3430 0.950 . S
C3408 C3407 1.349 . S
C3408 C3420 1.349 . S
C3409 C3407 1.327 . S
C3409 C3425 1.429 . S
C3409 H3431 0.950 . S
C3410 H3406 0.949 . S
C3410 C3418 1.574 . S
C3410 C3426 1.368 . S
H3411 C3419 0.950 . S
H3412 C3417 0.950 . S
H3413 C3418 0.949 . S
H3414 C3420 0.950 . S
H3415 C3421 0.950 . S
H3416 C3422 0.949 . S
C3417 H3412 0.950 . S
C3417 C3419 1.327 . S
C3417 C3423 1.429 . S
C3418 C3410 1.574 . S
C3418 H3413 0.949 . S
C3418 C3424 1.368 . S
C3419 C3403 1.349 . S
C3419 H3411 0.950 . S
C3419 C3417 1.327 . S
C3420 C3408 1.349 . S
C3420 H3414 0.950 . S
C3420 C3421 1.327 . S
C3421 H3415 0.950 . S
C3421 C3420 1.327 . S
C3421 C3425 1.429 . S
C3422 C3405 1.574 . S
C3422 H3416 0.949 . S
C3422 C3426 1.368 . S
C3423 C3404 1.429 . S
C3423 C3417 1.429 . S
C3423 C3424 1.523 . S
C3424 C3405 1.368 . S
C3424 C3418 1.368 . S
C3424 C3423 1.523 . S
C3425 C3409 1.429 . S
C3425 C3421 1.429 . S
C3425 C3426 1.523 . S
C3426 C3410 1.368 . S
C3426 C3422 1.368 . S
C3426 C3425 1.523 . S
H3427 C3402 0.950 . S
H3428 C3404 0.950 . S
H3429 C3405 0.949 . S
H3430 C3407 0.950 . S
H3431 C3409 0.950 . S
C3432 C3433 1.349 . S
C3432 C3434 1.327 . S
C3432 H3457 0.950 . S
C3433 C3432 1.349 . S
C3433 C3449 1.349 . S
C3434 C3432 1.327 . S
C3434 C3453 1.429 . S
C3434 H3458 0.950 . S
C3435 C3452 1.574 . S
C3435 C3454 1.368 . S
C3435 H3459 0.949 . S
H3436 C3440 0.949 . S
C3437 C3438 1.349 . S
C3437 C3439 1.327 . S
C3437 H3460 0.950 . S
C3438 C3437 1.349 . S
C3438 C3450 1.349 . S
C3439 C3437 1.327 . S
C3439 C3455 1.429 . S
C3439 H3461 0.950 . S
C3440 H3436 0.949 . S
C3440 C3448 1.574 . S
C3440 C3456 1.368 . S
H3441 C3449 0.950 . S
H3442 C3447 0.950 . S
H3443 C3448 0.949 . S
H3444 C3450 0.950 . S
H3445 C3451 0.950 . S
H3446 C3452 0.949 . S
C3447 H3442 0.950 . S
C3447 C3449 1.327 . S
C3447 C3453 1.429 . S
C3448 C3440 1.574 . S
C3448 H3443 0.949 . S
C3448 C3454 1.368 . S
C3449 C3433 1.349 . S
C3449 H3441 0.950 . S
C3449 C3447 1.327 . S
C3450 C3438 1.349 . S
C3450 H3444 0.950 . S
C3450 C3451 1.327 . S
C3451 H3445 0.950 . S
C3451 C3450 1.327 . S
C3451 C3455 1.429 . S
C3452 C3435 1.574 . S
C3452 H3446 0.949 . S
C3452 C3456 1.368 . S
C3453 C3434 1.429 . S
C3453 C3447 1.429 . S
C3453 C3454 1.523 . S
C3454 C3435 1.368 . S
C3454 C3448 1.368 . S
C3454 C3453 1.523 . S
C3455 C3439 1.429 . S
C3455 C3451 1.429 . S
C3455 C3456 1.523 . S
C3456 C3440 1.368 . S
C3456 C3452 1.368 . S
C3456 C3455 1.523 . S
H3457 C3432 0.950 . S
H3458 C3434 0.950 . S
H3459 C3435 0.949 . S
H3460 C3437 0.950 . S
H3461 C3439 0.950 . S
C3462 C3463 1.349 . S
C3462 C3464 1.327 . S
C3462 H3487 0.950 . S
C3463 C3462 1.349 . S
C3463 C3479 1.349 . S
C3464 C3462 1.327 . S
C3464 C3483 1.429 . S
C3464 H3488 0.950 . S
C3465 C3482 1.574 . S
C3465 C3484 1.368 . S
C3465 H3489 0.949 . S
H3466 C3470 0.949 . S
C3467 C3468 1.349 . S
C3467 C3469 1.327 . S
C3467 H3490 0.950 . S
C3468 C3467 1.349 . S
C3468 C3480 1.349 . S
C3469 C3467 1.327 . S
C3469 C3485 1.429 . S
C3469 H3491 0.950 . S
C3470 H3466 0.949 . S
C3470 C3478 1.574 . S
C3470 C3486 1.368 . S
H3471 C3479 0.950 . S
H3472 C3477 0.950 . S
H3473 C3478 0.949 . S
H3474 C3480 0.950 . S
H3475 C3481 0.950 . S
H3476 C3482 0.949 . S
C3477 H3472 0.950 . S
C3477 C3479 1.327 . S
C3477 C3483 1.429 . S
C3478 C3470 1.574 . S
C3478 H3473 0.949 . S
C3478 C3484 1.368 . S
C3479 C3463 1.349 . S
C3479 H3471 0.950 . S
C3479 C3477 1.327 . S
C3480 C3468 1.349 . S
C3480 H3474 0.950 . S
C3480 C3481 1.327 . S
C3481 H3475 0.950 . S
C3481 C3480 1.327 . S
C3481 C3485 1.429 . S
C3482 C3465 1.574 . S
C3482 H3476 0.949 . S
C3482 C3486 1.368 . S
C3483 C3464 1.429 . S
C3483 C3477 1.429 . S
C3483 C3484 1.523 . S
C3484 C3465 1.368 . S
C3484 C3478 1.368 . S
C3484 C3483 1.523 . S
C3485 C3469 1.429 . S
C3485 C3481 1.429 . S
C3485 C3486 1.523 . S
C3486 C3470 1.368 . S
C3486 C3482 1.368 . S
C3486 C3485 1.523 . S
H3487 C3462 0.950 . S
H3488 C3464 0.950 . S
H3489 C3465 0.949 . S
H3490 C3467 0.950 . S
H3491 C3469 0.950 . S
C3492 C3493 1.349 . S
C3492 C3494 1.327 . S
C3492 H3517 0.950 . S
C3493 C3492 1.349 . S
C3493 C3509 1.349 . S
C3494 C3492 1.327 . S
C3494 C3513 1.429 . S
C3494 H3518 0.950 . S
C3495 C3512 1.574 . S
C3495 C3514 1.368 . S
C3495 H3519 0.949 . S
H3496 C3500 0.949 . S
C3497 C3498 1.349 . S
C3497 C3499 1.327 . S
C3497 H3520 0.950 . S
C3498 C3497 1.349 . S
C3498 C3510 1.349 . S
C3499 C3497 1.327 . S
C3499 C3515 1.429 . S
C3499 H3521 0.950 . S
C3500 H3496 0.949 . S
C3500 C3508 1.574 . S
C3500 C3516 1.368 . S
H3501 C3509 0.950 . S
H3502 C3507 0.950 . S
H3503 C3508 0.949 . S
H3504 C3510 0.950 . S
H3505 C3511 0.950 . S
H3506 C3512 0.949 . S
C3507 H3502 0.950 . S
C3507 C3509 1.327 . S
C3507 C3513 1.429 . S
C3508 C3500 1.574 . S
C3508 H3503 0.949 . S
C3508 C3514 1.368 . S
C3509 C3493 1.349 . S
C3509 H3501 0.950 . S
C3509 C3507 1.327 . S
C3510 C3498 1.349 . S
C3510 H3504 0.950 . S
C3510 C3511 1.327 . S
C3511 H3505 0.950 . S
C3511 C3510 1.327 . S
C3511 C3515 1.429 . S
C3512 C3495 1.574 . S
C3512 H3506 0.949 . S
C3512 C3516 1.368 . S
C3513 C3494 1.429 . S
C3513 C3507 1.429 . S
C3513 C3514 1.523 . S
C3514 C3495 1.368 . S
C3514 C3508 1.368 . S
C3514 C3513 1.523 . S
C3515 C3499 1.429 . S
C3515 C3511 1.429 . S
C3515 C3516 1.523 . S
C3516 C3500 1.368 . S
C3516 C3512 1.368 . S
C3516 C3515 1.523 . S
H3517 C3492 0.950 . S
H3518 C3494 0.950 . S
H3519 C3495 0.949 . S
H3520 C3497 0.950 . S
H3521 C3499 0.950 . S
C3522 C3523 1.349 . S
C3522 C3524 1.327 . S
C3522 H3547 0.950 . S
C3523 C3522 1.349 . S
C3523 C3539 1.349 . S
C3524 C3522 1.327 . S
C3524 C3543 1.429 . S
C3524 H3548 0.950 . S
C3525 C3542 1.574 . S
C3525 C3544 1.368 . S
C3525 H3549 0.949 . S
H3526 C3530 0.949 . S
C3527 C3528 1.349 . S
C3527 C3529 1.327 . S
C3527 H3550 0.950 . S
C3528 C3527 1.349 . S
C3528 C3540 1.349 . S
C3529 C3527 1.327 . S
C3529 C3545 1.429 . S
C3529 H3551 0.950 . S
C3530 H3526 0.949 . S
C3530 C3538 1.574 . S
C3530 C3546 1.368 . S
H3531 C3539 0.950 . S
H3532 C3537 0.950 . S
H3533 C3538 0.949 . S
H3534 C3540 0.950 . S
H3535 C3541 0.950 . S
H3536 C3542 0.949 . S
C3537 H3532 0.950 . S
C3537 C3539 1.327 . S
C3537 C3543 1.429 . S
C3538 C3530 1.574 . S
C3538 H3533 0.949 . S
C3538 C3544 1.368 . S
C3539 C3523 1.349 . S
C3539 H3531 0.950 . S
C3539 C3537 1.327 . S
C3540 C3528 1.349 . S
C3540 H3534 0.950 . S
C3540 C3541 1.327 . S
C3541 H3535 0.950 . S
C3541 C3540 1.327 . S
C3541 C3545 1.429 . S
C3542 C3525 1.574 . S
C3542 H3536 0.949 . S
C3542 C3546 1.368 . S
C3543 C3524 1.429 . S
C3543 C3537 1.429 . S
C3543 C3544 1.523 . S
C3544 C3525 1.368 . S
C3544 C3538 1.368 . S
C3544 C3543 1.523 . S
C3545 C3529 1.429 . S
C3545 C3541 1.429 . S
C3545 C3546 1.523 . S
C3546 C3530 1.368 . S
C3546 C3542 1.368 . S
C3546 C3545 1.523 . S
H3547 C3522 0.950 . S
H3548 C3524 0.950 . S
H3549 C3525 0.949 . S
H3550 C3527 0.950 . S
H3551 C3529 0.950 . S
C673 C3 0.902 . S
C678 C367 0.789 . S
C703 C381 0.542 . S
C708 C17 0.518 . S
C733 C31 0.821 . S
C738 C339 0.831 . S
C763 C353 0.925 . S
C768 C45 0.925 . S
C793 C59 0.908 . S
C798 C423 0.786 . S
C823 C73 0.804 . S
C828 C437 0.808 . S
C853 C87 1.006 . S
C858 C395 1.021 . S
C883 C101 0.577 . S
C888 C409 0.503 . S
C913 C171 0.790 . S
C918 C115 0.903 . S
C943 C129 0.926 . S
C948 C185 0.925 . S
C973 C199 0.907 . S
C978 C143 0.785 . S
C1003 C157 0.503 . S
C1008 C213 0.577 . S
C1033 C605 0.790 . S
C1038 C227 0.903 . S
C1063 C633 0.907 . S
C1068 C241 0.785 . S
C1093 C311 0.925 . S
C1098 C255 0.926 . S
C1123 C563 0.831 . S
C1128 C269 0.821 . S
C1153 C661 0.503 . S
C1158 C283 0.577 . S
C1183 C577 1.006 . S
C1188 C297 1.021 . S
C1213 C325 0.803 . S
C1218 C619 0.807 . S
C1243 C451 0.831 . S
C1248 C507 0.820 . S
C1273 C521 0.518 . S
C1278 C465 0.541 . S
C1303 C479 1.006 . S
C1308 C535 1.021 . S
C1333 C549 0.807 . S
C1338 C493 0.804 . S
C1363 C591 0.541 . S
C1368 C647 0.517 . S
C1393 C7 1.049 . S
C1398 C105 0.768 . S
C1423 C63 0.963 . S
C1428 C21 0.620 . S
C1453 C35 0.753 . S
C1458 C77 0.753 . S
C1483 C49 0.797 . S
C1488 C91 0.800 . S
C1513 C287 0.769 . S
C1518 C119 1.049 . S
C1543 C581 0.801 . S
C1548 C133 0.797 . S
C1573 C147 1.180 . S
C1578 C595 0.792 . S
C1603 C161 0.859 . S
C1608 C609 1.247 . S
C1633 C665 0.860 . S
C1638 C175 1.247 . S
C1663 C189 0.827 . S
C1668 C301 0.830 . S
C1693 C203 0.962 . S
C1698 C651 0.619 . S
C1723 C217 0.769 . S
C1728 C231 1.049 . S
C1753 C245 1.180 . S
C1758 C469 0.793 . S
C1783 C259 0.797 . S
C1788 C483 0.800 . S
C1813 C497 0.753 . S
C1818 C273 0.753 . S
C1843 C315 0.827 . S
C1848 C539 0.830 . S
C1873 C511 0.753 . S
C1878 C329 0.753 . S
C1903 C441 0.735 . S
C1908 C343 0.737 . S
C1933 C357 0.827 . S
C1938 C399 0.830 . S
C1963 C413 0.859 . S
C1968 C371 1.247 . S
C1993 C385 0.793 . S
C1998 C427 1.181 . S
C2023 C455 0.737 . S
C2028 C623 0.735 . S
C2053 C637 0.962 . S
C2058 C525 0.619 . S
C2083 C567 0.737 . S
C2088 C553 0.735 . S
C2113 C9 0.981 . S
C2118 C415 0.874 . S
C2143 C429 1.009 . S
C2148 C23 0.895 . S
C2173 C37 0.921 . S
C2178 C443 0.925 . S
C2203 C51 0.799 . S
C2208 C401 0.800 . S
C2233 C387 0.879 . S
C2238 C65 0.954 . S
C2263 C79 0.911 . S
C2268 C345 0.913 . S
C2293 C359 0.830 . S
C2298 C93 0.825 . S
C2323 C107 0.914 . S
C2328 C373 1.042 . S
C2353 C667 0.874 . S
C2358 C121 0.981 . S
C2383 C135 0.800 . S
C2388 C303 0.800 . S
C2413 C149 1.012 . S
C2418 C653 0.897 . S
C2443 C233 0.980 . S
C2448 C163 0.873 . S
C2473 C177 1.041 . S
C2478 C289 0.913 . S
C2503 C191 0.831 . S
C2508 C583 0.826 . S
C2533 C597 0.880 . S
C2538 C205 0.955 . S
C2563 C611 1.042 . S
C2568 C219 0.913 . S
C2593 C527 0.897 . S
C2598 C247 1.011 . S
C2623 C541 0.800 . S
C2628 C261 0.799 . S
C2653 C555 0.926 . S
C2658 C275 0.923 . S
C2683 C317 0.831 . S
C2688 C485 0.826 . S
C2713 C457 0.910 . S
C2718 C331 0.908 . S
C2743 C471 0.880 . S
C2748 C639 0.955 . S
C2773 C499 0.908 . S
C2778 C569 0.910 . S
C2803 C625 0.924 . S
C2808 C513 0.920 . S
C2833 C8 1.547 1_655 S
C2838 C316 1.587 . S
C2863 C22 1.759 . S
C2868 C568 1.801 . S
C2893 C330 1.787 . S
C2898 C36 1.787 . S
C2923 C638 1.585 . S
C2928 C50 1.635 . S
C2953 C260 1.633 . S
C2958 C64 1.588 . S
C2983 C274 1.785 . S
C2988 C78 1.785 . S
C3013 C92 1.783 . S
C3018 C624 1.792 . S
C3043 C106 1.538 . S
C3048 C246 1.547 . S
C3073 C190 1.587 . S
C3078 C120 1.548 1_565 S
C3103 C134 1.633 . S
C3108 C204 1.588 . S
C3133 C218 1.538 . S
C3138 C148 1.547 . S
C3163 C176 1.477 . S
C3168 C162 1.487 . S
C3193 C232 1.548 1_556 S
C3198 C358 1.588 . S
C3223 C428 1.548 . S
C3228 C288 1.539 . S
C3253 C386 1.658 . S
C3258 C302 1.696 . S
C3283 C344 1.798 . S
C3288 C652 1.756 . S
C3313 C666 1.486 . S
C3318 C372 1.476 . S
C3343 C596 1.657 . S
C3348 C400 1.696 . S
C3373 C610 1.476 . S
C3378 C414 1.486 . S
C3403 C582 1.782 . S
C3408 C442 1.792 . S
C3433 C526 1.758 . S
C3438 C456 1.800 . S
C3463 C540 1.695 . S
C3468 C470 1.657 . S
C3493 C484 1.781 . S
C3498 C554 1.791 . S
C3523 C498 1.787 . S
C3528 C512 1.787 . S
