# Generated by pormake.
# Topology cag, (4)-cn, num edge types: 1
# Building blocks:
#     Node 0, Type 0, BuildingBlock: UXUYUI_clean_sbu_0, # of connection points: 4
#     Node 1, Type 0, BuildingBlock: UXUYUI_clean_sbu_0, # of connection points: 4
#     Node 2, Type 0, BuildingBlock: UXUYUI_clean_sbu_0, # of connection points: 4
#     Node 3, Type 0, BuildingBlock: UXUYUI_clean_sbu_0, # of connection points: 4
#     Node 4, Type 0, BuildingBlock: UXUYUI_clean_sbu_0, # of connection points: 4
#     Node 5, Type 0, BuildingBlock: UXUYUI_clean_sbu_0, # of connection points: 4
#     Node 6, Type 0, BuildingBlock: UXUYUI_clean_sbu_0, # of connection points: 4
#     Node 7, Type 0, BuildingBlock: UXUYUI_clean_sbu_0, # of connection points: 4
#     Node 8, Type 0, BuildingBlock: UXUYUI_clean_sbu_0, # of connection points: 4
#     Node 9, Type 0, BuildingBlock: UXUYUI_clean_sbu_0, # of connection points: 4
#     Node 10, Type 0, BuildingBlock: UXUYUI_clean_sbu_0, # of connection points: 4
#     Node 11, Type 0, BuildingBlock: UXUYUI_clean_sbu_0, # of connection points: 4
#     Node 12, Type 0, BuildingBlock: UXUYUI_clean_sbu_0, # of connection points: 4
#     Node 13, Type 0, BuildingBlock: UXUYUI_clean_sbu_0, # of connection points: 4
#     Node 14, Type 0, BuildingBlock: UXUYUI_clean_sbu_0, # of connection points: 4
#     Node 15, Type 0, BuildingBlock: UXUYUI_clean_sbu_0, # of connection points: 4
#     Edge 16, Type (0, 0), BuildingBlock: EZIPEK_clean_linker_0, # of connection points: 2
#     Edge 17, Type (0, 0), BuildingBlock: EZIPEK_clean_linker_0, # of connection points: 2
#     Edge 18, Type (0, 0), BuildingBlock: EZIPEK_clean_linker_0, # of connection points: 2
#     Edge 19, Type (0, 0), BuildingBlock: EZIPEK_clean_linker_0, # of connection points: 2
#     Edge 20, Type (0, 0), BuildingBlock: EZIPEK_clean_linker_0, # of connection points: 2
#     Edge 21, Type (0, 0), BuildingBlock: EZIPEK_clean_linker_0, # of connection points: 2
#     Edge 22, Type (0, 0), BuildingBlock: EZIPEK_clean_linker_0, # of connection points: 2
#     Edge 23, Type (0, 0), BuildingBlock: EZIPEK_clean_linker_0, # of connection points: 2
#     Edge 24, Type (0, 0), BuildingBlock: EZIPEK_clean_linker_0, # of connection points: 2
#     Edge 25, Type (0, 0), BuildingBlock: EZIPEK_clean_linker_0, # of connection points: 2
#     Edge 26, Type (0, 0), BuildingBlock: EZIPEK_clean_linker_0, # of connection points: 2
#     Edge 27, Type (0, 0), BuildingBlock: EZIPEK_clean_linker_0, # of connection points: 2
#     Edge 28, Type (0, 0), BuildingBlock: EZIPEK_clean_linker_0, # of connection points: 2
#     Edge 29, Type (0, 0), BuildingBlock: EZIPEK_clean_linker_0, # of connection points: 2
#     Edge 30, Type (0, 0), BuildingBlock: EZIPEK_clean_linker_0, # of connection points: 2
#     Edge 31, Type (0, 0), BuildingBlock: EZIPEK_clean_linker_0, # of connection points: 2
#     Edge 32, Type (0, 0), BuildingBlock: EZIPEK_clean_linker_0, # of connection points: 2
#     Edge 33, Type (0, 0), BuildingBlock: EZIPEK_clean_linker_0, # of connection points: 2
#     Edge 34, Type (0, 0), BuildingBlock: EZIPEK_clean_linker_0, # of connection points: 2
#     Edge 35, Type (0, 0), BuildingBlock: EZIPEK_clean_linker_0, # of connection points: 2
#     Edge 36, Type (0, 0), BuildingBlock: EZIPEK_clean_linker_0, # of connection points: 2
#     Edge 37, Type (0, 0), BuildingBlock: EZIPEK_clean_linker_0, # of connection points: 2
#     Edge 38, Type (0, 0), BuildingBlock: EZIPEK_clean_linker_0, # of connection points: 2
#     Edge 39, Type (0, 0), BuildingBlock: EZIPEK_clean_linker_0, # of connection points: 2
#     Edge 40, Type (0, 0), BuildingBlock: EZIPEK_clean_linker_0, # of connection points: 2
#     Edge 41, Type (0, 0), BuildingBlock: EZIPEK_clean_linker_0, # of connection points: 2
#     Edge 42, Type (0, 0), BuildingBlock: EZIPEK_clean_linker_0, # of connection points: 2
#     Edge 43, Type (0, 0), BuildingBlock: EZIPEK_clean_linker_0, # of connection points: 2
#     Edge 44, Type (0, 0), BuildingBlock: EZIPEK_clean_linker_0, # of connection points: 2
#     Edge 45, Type (0, 0), BuildingBlock: EZIPEK_clean_linker_0, # of connection points: 2
#     Edge 46, Type (0, 0), BuildingBlock: EZIPEK_clean_linker_0, # of connection points: 2
#     Edge 47, Type (0, 0), BuildingBlock: EZIPEK_clean_linker_0, # of connection points: 2
# Relax obj value: 0.065
# Max RMSD: 0.090
# Mean RMSD: 0.089
data_MOF--net-cag--node1-UXUYUI_clean_sbu_0--edge1-EZIPEK_clean_linker_0
_symmetry_space_group_name_H-M    P1
_symmetry_Int_Tables_number       1
_symmetry_cell_setting            triclinic
loop_
_symmetry_equiv_pos_as_xyz
'x, y, z'
_cell_length_a     50.065736
_cell_length_b     59.149524
_cell_length_c     51.90591
_cell_angle_alpha  89.990966
_cell_angle_beta   90.048262
_cell_angle_gamma 89.92855
loop_
_atom_site_label
_atom_site_type_symbol
_atom_site_fract_x
_atom_site_fract_y
_atom_site_fract_z
_atom_type_partial_charge
Li0 Li 0.3124 0.15861 0.0861 0.0
Li1 Li 0.35523 0.1413 0.10192 0.0
Li2 Li 0.31738 0.11865 0.08608 0.0
Li3 Li 0.31236 0.13721 0.12658 0.0
C4 C 0.34257 0.15325 0.04548 0.0
N5 N 0.3475 0.18091 1.00289 0.0
C6 C 0.36356 0.16873 0.04398 0.0
C7 C 0.32421 0.15168 0.02527 0.0
C8 C 0.3657 0.18259 0.02228 0.0
C9 C 0.327 0.16587 1.00393 0.0
C10 C 0.32989 0.17777 0.13966 0.0
C11 C 0.34079 0.18477 0.1842 0.0
N12 N 0.32151 0.20098 0.18511 0.0
C13 C 0.31022 0.19451 0.14099 0.0
C14 C 0.34536 0.17287 0.16138 0.0
C15 C 0.3063 0.20606 0.16417 0.0
C16 C 0.27366 0.18363 0.05793 0.0
N17 N 0.29844 0.18452 0.06864 0.0
C18 C 0.30446 0.22236 0.05347 0.0
C19 C 0.31378 0.20343 0.06687 0.0
C20 C 0.27913 0.22172 0.04196 0.0
C21 C 0.26357 0.20216 0.04435 0.0
H22 H 0.26178 0.16851 0.05982 0.0
H23 H 0.33336 0.20369 0.0757 0.0
C24 C 0.40758 0.12895 0.08916 0.0
N25 N 0.39304 0.14398 0.10317 0.0
C26 C 0.43544 0.1298 0.08948 0.0
C27 C 0.43289 0.16203 0.11805 0.0
C28 C 0.40503 0.1605 0.11726 0.0
C29 C 0.44828 0.14643 0.10415 0.0
H30 H 0.39748 0.11634 0.07766 0.0
H31 H 0.39299 0.17252 0.12781 0.0
C32 C 0.26487 0.1228 0.0926 0.0
N33 N 0.22222 0.09508 0.08076 0.0
C34 C 0.25113 0.11155 0.1122 0.0
C35 C 0.25682 0.12008 0.06699 0.0
C36 C 0.22963 0.09759 0.10581 0.0
C37 C 0.23526 0.10593 0.06139 0.0
C38 C 0.33905 0.09111 0.12086 0.0
C39 C 0.31831 0.0804 0.1341 0.0
C40 C 0.35939 0.07813 0.10982 0.0
C41 C 0.31824 0.05684 0.13602 0.0
C42 C 0.35857 0.05461 0.11213 0.0
N43 N 0.33818 0.04454 0.12506 0.0
C44 C 0.32667 0.08848 0.0453 0.0
C45 C 0.29452 0.07459 0.07479 0.0
C46 C 0.32538 0.06849 0.03106 0.0
N47 N 0.31143 0.09118 0.06678 0.0
C48 C 0.29252 0.05435 0.06105 0.0
C49 C 0.30829 0.05114 0.03906 0.0
H50 H 0.34031 0.10168 0.0395 0.0
H51 H 0.28295 0.07678 0.09213 0.0
C52 C 0.27599 0.14922 0.16595 0.0
N53 N 0.29822 0.1368 0.16077 0.0
C54 C 0.26577 0.1501 0.19097 0.0
C55 C 0.30124 0.12506 0.20476 0.0
C56 C 0.31103 0.12496 0.17956 0.0
C57 C 0.27841 0.13782 0.21064 0.0
H58 H 0.26639 0.15863 0.15065 0.0
H59 H 0.32894 0.11555 0.17499 0.0
O60 O 0.33966 0.14 0.06687 0.0
O61 O 0.33345 0.16578 0.11741 0.0
O62 O 0.28582 0.13668 0.09852 0.0
O63 O 0.33931 0.11415 0.11852 0.0
H64 H 0.37787 0.17023 0.05952 0.0
H65 H 0.30784 0.13977 0.02619 0.0
H66 H 0.38175 0.19476 0.0209 0.0
H67 H 0.31282 0.16498 0.98822 0.0
H68 H 0.35246 0.18104 0.20123 0.0
H69 H 0.29793 0.19836 0.12439 0.0
H70 H 0.36038 0.15971 0.16076 0.0
H71 H 0.29107 0.219 0.16553 0.0
H72 H 0.31688 0.23728 0.05195 0.0
H73 H 0.2439 0.20124 0.03571 0.0
H74 H 0.44688 0.11765 0.07841 0.0
H75 H 0.44235 0.17514 0.12941 0.0
H76 H 0.25708 0.11344 0.13212 0.0
H77 H 0.26735 0.12853 0.05157 0.0
H78 H 0.21887 0.08871 0.12077 0.0
H79 H 0.22894 0.10353 0.04165 0.0
H80 H 0.30217 0.09012 0.14241 0.0
H81 H 0.37554 0.0861 0.09946 0.0
H82 H 0.30222 0.04833 0.14607 0.0
H83 H 0.37411 0.04435 0.10357 0.0
H84 H 0.3379 0.06641 0.01421 0.0
H85 H 0.27924 0.04116 0.06776 0.0
H86 H 0.24819 0.16019 0.19496 0.0
H87 H 0.31148 0.11548 0.21957 0.0
Li88 Li 0.19199 0.89912 0.58521 0.0
Li89 Li 0.19731 0.87927 0.62664 0.0
Li90 Li 0.19686 0.85839 0.58411 0.0
Li91 Li 0.15522 0.87409 0.60197 0.0
C92 C 0.24413 0.89451 0.591 0.0
N93 N 0.28567 0.92293 0.57782 0.0
C94 C 0.25681 0.90744 0.60991 0.0
C95 C 0.25279 0.89579 0.56545 0.0
C96 C 0.27775 0.92176 0.60285 0.0
C97 C 0.27374 0.91035 0.55915 0.0
C98 C 0.16039 0.91458 0.63724 0.0
C99 C 0.13308 0.91727 0.67539 0.0
N100 N 0.14044 0.93926 0.67817 0.0
C101 C 0.16741 0.93729 0.64029 0.0
C102 C 0.14286 0.90455 0.65478 0.0
C103 C 0.15723 0.94945 0.66117 0.0
C104 C 0.18761 0.92916 0.54324 0.0
N105 N 0.19825 0.92688 0.56722 0.0
C106 C 0.21474 0.96483 0.56589 0.0
C107 C 0.21167 0.94418 0.57867 0.0
C108 C 0.20365 0.96762 0.54127 0.0
C109 C 0.19014 0.9495 0.52981 0.0
H110 H 0.17664 0.91535 0.53471 0.0
H111 H 0.21959 0.9421 0.59789 0.0
C112 C 0.22075 0.85988 0.67079 0.0
N113 N 0.21257 0.87989 0.66051 0.0
C114 C 0.23156 0.8591 0.69561 0.0
C115 C 0.22595 0.89961 0.69864 0.0
C116 C 0.21528 0.89961 0.67375 0.0
C117 C 0.23408 0.87914 0.70978 0.0
H118 H 0.21874 0.84448 0.65973 0.0
H119 H 0.20938 0.91538 0.66496 0.0
C120 C 0.16563 0.86666 0.54318 0.0
N121 N 0.15863 0.8448 0.49663 0.0
C122 C 0.14213 0.85467 0.53832 0.0
C123 C 0.18542 0.8678 0.52424 0.0
C124 C 0.139 0.84368 0.51468 0.0
C125 C 0.18156 0.85654 0.50088 0.0
C126 C 0.16597 0.83498 0.63201 0.0
C127 C 0.16126 0.81321 0.62258 0.0
C128 C 0.15792 0.84055 0.65699 0.0
C129 C 0.14799 0.79753 0.6381 0.0
C130 C 0.14473 0.8244 0.67193 0.0
N131 N 0.14004 0.80342 0.66224 0.0
C132 C 0.23853 0.83151 0.56334 0.0
C133 C 0.19497 0.81743 0.55539 0.0
C134 C 0.24983 0.81337 0.54994 0.0
N135 N 0.21154 0.83324 0.56572 0.0
C136 C 0.20539 0.79921 0.54153 0.0
C137 C 0.23313 0.79706 0.53877 0.0
H138 H 0.25127 0.84419 0.57192 0.0
H139 H 0.17363 0.81898 0.55787 0.0
C140 C 0.10284 0.89059 0.60427 0.0
N141 N 0.1173 0.8711 0.60409 0.0
C142 C 0.07498 0.88988 0.60502 0.0
C143 C 0.07729 0.84904 0.60488 0.0
C144 C 0.10514 0.85053 0.60421 0.0
C145 C 0.06203 0.86891 0.60527 0.0
H146 H 0.11297 0.90671 0.60362 0.0
H147 H 0.11696 0.8353 0.60323 0.0
O148 O 0.22334 0.88066 0.59747 0.0
O149 O 0.17023 0.90245 0.6169 0.0
O150 O 0.16919 0.8773 0.56633 0.0
O151 O 0.17902 0.8505 0.61705 0.0
H152 H 0.25044 0.90658 0.62978 0.0
H153 H 0.24334 0.88575 0.55064 0.0
H154 H 0.28765 0.93197 0.61725 0.0
H155 H 0.28052 0.91164 0.53943 0.0
H156 H 0.11954 0.90968 0.68912 0.0
H157 H 0.18071 0.94542 0.62677 0.0
H158 H 0.13656 0.88724 0.65232 0.0
H159 H 0.16266 0.96699 0.66386 0.0
H160 H 0.22517 0.9786 0.57524 0.0
H161 H 0.18125 0.95123 0.51088 0.0
H162 H 0.23783 0.84307 0.7037 0.0
H163 H 0.22792 0.91538 0.70908 0.0
H164 H 0.12653 0.85374 0.55267 0.0
H165 H 0.20363 0.87713 0.52763 0.0
H166 H 0.12097 0.83423 0.51071 0.0
H167 H 0.19681 0.85711 0.48614 0.0
H168 H 0.16763 0.80849 0.60344 0.0
H169 H 0.16209 0.85705 0.66494 0.0
H170 H 0.14404 0.78068 0.63097 0.0
H171 H 0.13835 0.82853 0.69127 0.0
H172 H 0.27134 0.8121 0.54821 0.0
H173 H 0.19199 0.78684 0.5332 0.0
H174 H 0.06363 0.90548 0.60511 0.0
H175 H 0.06774 0.83262 0.60482 0.0
Li176 Li 0.31517 0.87734 0.89592 0.0
Li177 Li 0.32113 0.89952 0.93588 0.0
Li178 Li 0.35519 0.87394 0.92139 0.0
Li179 Li 0.31468 0.85892 0.93818 0.0
C180 C 0.36287 0.90635 0.88781 0.0
N181 N 0.4072 0.91509 0.85773 0.0
C182 C 0.37992 0.92424 0.894 0.0
C183 C 0.36835 0.89293 0.86628 0.0
C184 C 0.40224 0.92837 0.87857 0.0
C185 C 0.39085 0.89763 0.85131 0.0
C186 C 0.26855 0.89506 0.91625 0.0
C187 C 0.22145 0.90198 0.9105 0.0
N188 N 0.22719 0.92184 0.89851 0.0
C189 C 0.27399 0.91553 0.90386 0.0
C190 C 0.24209 0.8882 0.91959 0.0
C191 C 0.2528 0.92883 0.89504 0.0
C192 C 0.28768 0.85862 0.85327 0.0
N193 N 0.29999 0.87755 0.8622 0.0
C194 C 0.29083 0.89707 0.82281 0.0
C195 C 0.30166 0.89661 0.84761 0.0
C196 C 0.27816 0.87775 0.8131 0.0
C197 C 0.27652 0.85835 0.82856 0.0
H198 H 0.28659 0.84374 0.86535 0.0
H199 H 0.3115 0.91144 0.85522 0.0
C200 C 0.33759 0.94009 0.95821 0.0
N201 N 0.31541 0.92749 0.95357 0.0
C202 C 0.33573 0.96029 0.97198 0.0
C203 C 0.28826 0.95397 0.9766 0.0
C204 C 0.29104 0.93387 0.96268 0.0
C205 C 0.31083 0.96737 0.98129 0.0
H206 H 0.35683 0.93417 0.95162 0.0
H207 H 0.27383 0.9232 0.95958 0.0
C208 C 0.34471 0.8283 0.91046 0.0
N209 N 0.3664 0.78601 0.91918 0.0
C210 C 0.36023 0.82433 0.93241 0.0
C211 C 0.34022 0.81077 0.89296 0.0
C212 C 0.37102 0.80283 0.93647 0.0
C213 C 0.35137 0.7895 0.8977 0.0
C214 C 0.33449 0.88021 0.98203 0.0
C215 C 0.35419 0.88153 1.00105 0.0
C216 C 0.30757 0.88199 0.98894 0.0
C217 C 0.34663 0.88458 0.02672 0.0
C218 C 0.30083 0.88504 0.01481 0.0
N219 N 0.32034 0.88626 0.03301 0.0
C220 C 0.40765 0.88307 0.93678 0.0
C221 C 0.40503 0.85722 0.9019 0.0
C222 C 0.43551 0.88222 0.93625 0.0
N223 N 0.39309 0.87069 0.91977 0.0
C224 C 0.43286 0.85578 0.90077 0.0
C225 C 0.44828 0.86845 0.91807 0.0
H226 H 0.39757 0.8938 0.95058 0.0
H227 H 0.39296 0.8478 0.88837 0.0
C228 C 0.27564 0.82576 0.94926 0.0
N229 N 0.29936 0.83448 0.95727 0.0
C230 C 0.26426 0.80743 0.96223 0.0
C231 C 0.30184 0.8075 0.99153 0.0
C232 C 0.31256 0.82572 0.97793 0.0
C233 C 0.27748 0.79815 0.98361 0.0
H234 H 0.26572 0.83295 0.93264 0.0
H235 H 0.33155 0.83272 0.98376 0.0
O236 O 0.34141 0.9015 0.90316 0.0
O237 O 0.28891 0.88152 0.92474 0.0
O238 O 0.33357 0.8491 0.90616 0.0
O239 O 0.34176 0.87759 0.95679 0.0
H240 H 0.37605 0.9348 0.91057 0.0
H241 H 0.35568 0.87875 0.86145 0.0
H242 H 0.41566 0.9421 0.8832 0.0
H243 H 0.3954 0.88729 0.83469 0.0
H244 H 0.20086 0.89688 0.91296 0.0
H245 H 0.29433 0.92116 0.90113 0.0
H246 H 0.23756 0.87236 0.92909 0.0
H247 H 0.25672 0.94471 0.88543 0.0
H248 H 0.29235 0.91228 0.81128 0.0
H249 H 0.26682 0.8432 0.82151 0.0
H250 H 0.35354 0.97016 0.97563 0.0
H251 H 0.26884 0.9589 0.98388 0.0
H252 H 0.36389 0.83765 0.94621 0.0
H253 H 0.32819 0.81357 0.87591 0.0
H254 H 0.38304 0.79952 0.95338 0.0
H255 H 0.34805 0.77577 0.88432 0.0
H256 H 0.37511 0.88025 0.996 0.0
H257 H 0.29201 0.88107 0.97454 0.0
H258 H 0.36168 0.88563 0.04164 0.0
H259 H 0.28009 0.88645 0.02042 0.0
H260 H 0.44699 0.89223 0.94976 0.0
H261 H 0.44228 0.84512 0.88645 0.0
H262 H 0.24545 0.80048 0.95564 0.0
H263 H 0.31253 0.80063 1.00791 0.0
Li264 Li 0.19982 0.15983 0.43928 0.0
Li265 Li 0.15959 0.14364 0.42135 0.0
Li266 Li 0.19457 0.11927 0.4381 0.0
Li267 Li 0.20113 0.13993 0.39848 0.0
C268 C 0.17783 0.1394 0.48308 0.0
N269 N 0.1886 0.13483 0.53504 0.0
C270 C 0.15692 0.13715 0.50069 0.0
C271 C 0.20423 0.13931 0.49188 0.0
C272 C 0.16277 0.13487 0.52689 0.0
C273 C 0.20926 0.13699 0.51822 0.0
C274 C 0.16942 0.18892 0.40996 0.0
C275 C 0.1609 0.22719 0.39609 0.0
N276 N 0.1451 0.23044 0.41707 0.0
C277 C 0.15305 0.19264 0.43137 0.0
C278 C 0.17335 0.20632 0.39215 0.0
C279 C 0.14095 0.21374 0.43462 0.0
C280 C 0.2386 0.19279 0.4512 0.0
N281 N 0.21408 0.18493 0.458 0.0
C282 C 0.21002 0.21345 0.49044 0.0
C283 C 0.19975 0.19481 0.47724 0.0
C284 C 0.23522 0.22186 0.48376 0.0
C285 C 0.24968 0.21136 0.46397 0.0
H286 H 0.24947 0.18467 0.43575 0.0
H287 H 0.18028 0.1883 0.48228 0.0
C288 C 0.10692 0.13308 0.43438 0.0
N289 N 0.12173 0.146 0.41812 0.0
C290 C 0.07907 0.13364 0.43313 0.0
C291 C 0.08221 0.16081 0.39842 0.0
C292 C 0.11003 0.15962 0.40022 0.0
C293 C 0.06655 0.14767 0.41502 0.0
H294 H 0.11682 0.1223 0.44827 0.0
H295 H 0.12225 0.16953 0.38731 0.0
C296 C 0.24737 0.12334 0.42088 0.0
N297 N 0.2893 0.09562 0.40662 0.0
C298 C 0.24236 0.10185 0.41078 0.0
C299 C 0.2737 0.13071 0.42376 0.0
C300 C 0.26383 0.08809 0.40368 0.0
C301 C 0.29464 0.11646 0.41643 0.0
C302 C 0.16032 0.11077 0.38366 0.0
C303 C 0.1519 0.08861 0.37919 0.0
C304 C 0.15415 0.12768 0.36577 0.0
C305 C 0.13741 0.0837 0.35687 0.0
C306 C 0.13964 0.12209 0.34368 0.0
N307 N 0.13163 0.1004 0.33973 0.0
C308 C 0.17949 0.07657 0.45571 0.0
C309 C 0.22236 0.0876 0.47058 0.0
C310 C 0.18111 0.05636 0.46952 0.0
N311 N 0.1999 0.09168 0.45652 0.0
C312 C 0.22481 0.06759 0.48474 0.0
C313 C 0.20393 0.05181 0.4843 0.0
H314 H 0.1618 0.08038 0.44454 0.0
H315 H 0.23822 0.09999 0.47106 0.0
C316 C 0.22302 0.15921 0.35342 0.0
N317 N 0.2169 0.13922 0.36492 0.0
C318 C 0.23326 0.15957 0.32839 0.0
C319 C 0.23141 0.11873 0.32775 0.0
C320 C 0.22082 0.11917 0.35263 0.0
C321 C 0.23753 0.13913 0.31531 0.0
H322 H 0.21965 0.17489 0.36362 0.0
H323 H 0.21538 0.10351 0.36197 0.0
O324 O 0.17232 0.14136 0.45736 0.0
O325 O 0.18174 0.16848 0.40638 0.0
O326 O 0.22675 0.1372 0.42798 0.0
O327 O 0.17451 0.11573 0.40548 0.0
H328 H 0.13638 0.13714 0.49416 0.0
H329 H 0.2207 0.14097 0.47856 0.0
H330 H 0.14678 0.1331 0.54074 0.0
H331 H 0.22959 0.13689 0.52529 0.0
H332 H 0.1638 0.2408 0.38246 0.0
H333 H 0.14964 0.17943 0.44534 0.0
H334 H 0.18591 0.20375 0.37545 0.0
H335 H 0.12826 0.21683 0.45111 0.0
H336 H 0.19844 0.22127 0.50565 0.0
H337 H 0.26918 0.21756 0.45841 0.0
H338 H 0.0674 0.1233 0.44615 0.0
H339 H 0.073 0.17173 0.38421 0.0
H340 H 0.22215 0.0958 0.40841 0.0
H341 H 0.27792 0.14729 0.43159 0.0
H342 H 0.26023 0.07143 0.39583 0.0
H343 H 0.31512 0.12196 0.41853 0.0
H344 H 0.15654 0.07533 0.39285 0.0
H345 H 0.16052 0.14492 0.36882 0.0
H346 H 0.13076 0.06661 0.35318 0.0
H347 H 0.13476 0.135 0.32968 0.0
H348 H 0.16465 0.04451 0.46894 0.0
H349 H 0.2426 0.06453 0.49611 0.0
H350 H 0.23774 0.17559 0.31926 0.0
H351 H 0.23439 0.10268 0.31811 0.0
Li352 Li 0.69351 0.89972 0.93583 0.0
Li353 Li 0.69985 0.85848 0.93769 0.0
Li354 Li 0.69788 0.87966 0.8954 0.0
Li355 Li 0.65704 0.87366 0.92065 0.0
C356 C 0.7457 0.89417 0.93292 0.0
N357 N 0.78706 0.91986 0.95253 0.0
C358 C 0.7595 0.88698 0.95487 0.0
C359 C 0.75319 0.91426 0.92075 0.0
C360 C 0.78031 0.90023 0.96452 0.0
C361 C 0.77406 0.92707 0.93103 0.0
C362 C 0.6635 0.86773 0.97824 0.0
C363 C 0.63681 0.84004 1.0006 0.0
N364 N 0.64475 0.84892 0.02351 0.0
C365 C 0.67108 0.87678 1.00203 0.0
C366 C 0.64597 0.84937 0.97752 0.0
C367 C 0.66152 0.86696 0.02469 0.0
C368 C 0.68938 0.94687 0.94422 0.0
N369 N 0.69982 0.9274 0.95392 0.0
C370 C 0.71612 0.94704 0.99103 0.0
C371 C 0.71317 0.92716 0.97677 0.0
C372 C 0.70517 0.96722 0.98159 0.0
C373 C 0.69193 0.96714 0.9578 0.0
H374 H 0.67853 0.94658 0.92623 0.0
H375 H 0.72107 0.91144 0.98418 0.0
C376 C 0.72517 0.81598 0.94156 0.0
N377 N 0.71715 0.83413 0.95553 0.0
C378 C 0.73967 0.79852 0.95315 0.0
C379 C 0.73656 0.81814 0.99349 0.0
C380 C 0.72193 0.83518 0.98123 0.0
C381 C 0.74801 0.8002 0.97916 0.0
H382 H 0.72032 0.81504 0.92128 0.0
H383 H 0.71486 0.84946 0.99223 0.0
C384 C 0.66607 0.91393 0.88259 0.0
N385 N 0.65851 0.9366 0.83659 0.0
C386 C 0.64283 0.91043 0.8682 0.0
C387 C 0.68526 0.92922 0.87378 0.0
C388 C 0.63941 0.92201 0.84496 0.0
C389 C 0.68115 0.94041 0.85041 0.0
C390 C 0.6679 0.83087 0.89865 0.0
C391 C 0.66195 0.82614 0.87289 0.0
C392 C 0.66108 0.81522 0.91771 0.0
C393 C 0.64861 0.80612 0.86672 0.0
C394 C 0.64778 0.79538 0.91077 0.0
N395 N 0.64182 0.7913 0.88563 0.0
C396 C 0.73851 0.88319 0.85748 0.0
C397 C 0.69482 0.87843 0.84068 0.0
C398 C 0.74917 0.88372 0.8326 0.0
N399 N 0.71177 0.88063 0.86104 0.0
C400 C 0.7046 0.87893 0.8155 0.0
C401 C 0.73206 0.88156 0.81135 0.0
H402 H 0.7516 0.88467 0.87397 0.0
H403 H 0.67368 0.87625 0.844 0.0
C404 C 0.6047 0.87942 0.93878 0.0
N405 N 0.61911 0.87005 0.9193 0.0
C406 C 0.57685 0.87835 0.93857 0.0
C407 C 0.57904 0.85843 0.89795 0.0
C408 C 0.60689 0.85976 0.89902 0.0
C409 C 0.56384 0.86784 0.91791 0.0
H410 H 0.61486 0.88797 0.95437 0.0
H411 H 0.61866 0.85315 0.88334 0.0
O412 O 0.72495 0.88163 0.92345 0.0
O413 O 0.67267 0.87721 0.95586 0.0
O414 O 0.66998 0.90245 0.90518 0.0
O415 O 0.68099 0.85041 0.905 0.0
H416 H 0.7541 0.87144 0.96445 0.0
H417 H 0.74292 0.91996 0.90362 0.0
H418 H 0.79104 0.89494 0.98159 0.0
H419 H 0.77993 0.94274 0.9219 0.0
H420 H 0.62327 0.8258 1.00028 0.0
H421 H 0.68432 0.89117 1.00302 0.0
H422 H 0.63914 0.8426 0.95937 0.0
H423 H 0.66741 0.8737 0.04321 0.0
H424 H 0.72634 0.94663 1.00942 0.0
H425 H 0.68313 0.98249 0.95016 0.0
H426 H 0.74358 0.7839 0.94138 0.0
H427 H 0.73844 0.81931 0.01416 0.0
H428 H 0.62766 0.89882 0.8748 0.0
H429 H 0.70323 0.93229 0.88477 0.0
H430 H 0.6216 0.91936 0.83355 0.0
H431 H 0.69597 0.95213 0.84325 0.0
H432 H 0.6674 0.83784 0.85781 0.0
H433 H 0.66632 0.81815 0.93761 0.0
H434 H 0.64369 0.80236 0.84688 0.0
H435 H 0.64232 0.78318 0.92536 0.0
H436 H 0.77049 0.88569 0.82993 0.0
H437 H 0.69095 0.87717 0.79942 0.0
H438 H 0.56554 0.88594 0.95412 0.0
H439 H 0.56944 0.85043 0.88162 0.0
Li440 Li 0.81702 0.16115 0.43816 0.0
Li441 Li 0.82093 0.11949 0.43565 0.0
Li442 Li 0.85788 0.14429 0.4186 0.0
Li443 Li 0.81525 0.14027 0.39605 0.0
C444 C 0.85662 0.14696 0.47683 0.0
N445 N 0.88197 0.15856 0.52229 0.0
C446 C 0.84929 0.13662 0.49998 0.0
C447 C 0.87703 0.16309 0.47682 0.0
C448 C 0.86228 0.14275 0.52276 0.0
C449 C 0.88956 0.16875 0.49998 0.0
C450 C 0.76887 0.1283 0.43689 0.0
C451 C 0.73796 0.09712 0.439 0.0
N452 N 0.72679 0.10634 0.46046 0.0
C453 C 0.75701 0.13753 0.45888 0.0
C454 C 0.75919 0.10801 0.42675 0.0
C455 C 0.73577 0.12615 0.47053 0.0
C456 C 0.78423 0.19919 0.44443 0.0
N457 N 0.80253 0.1862 0.45699 0.0
C458 C 0.79887 0.20936 0.4946 0.0
C459 C 0.80987 0.19088 0.48167 0.0
C460 C 0.77991 0.22295 0.48212 0.0
C461 C 0.77249 0.21771 0.45675 0.0
H462 H 0.7787 0.19505 0.42484 0.0
H463 H 0.82419 0.18035 0.49147 0.0
C464 C 0.8257 0.07261 0.44435 0.0
N465 N 0.81459 0.09188 0.45385 0.0
C466 C 0.82346 0.0523 0.45791 0.0
C467 C 0.79801 0.07191 0.49058 0.0
C468 C 0.80081 0.09186 0.47644 0.0
C469 C 0.80972 0.05194 0.48141 0.0
H470 H 0.83686 0.07312 0.42654 0.0
H471 H 0.79252 0.10743 0.48381 0.0
C472 C 0.84714 0.18894 0.40082 0.0
N473 N 0.87239 0.22992 0.39319 0.0
C474 C 0.85091 0.19724 0.37587 0.0
C475 C 0.85588 0.20165 0.42188 0.0
C476 C 0.86383 0.21794 0.37241 0.0
C477 C 0.86868 0.22228 0.41764 0.0
C478 C 0.84364 0.10551 0.3805 0.0
C479 C 0.86494 0.1097 0.36379 0.0
C480 C 0.82346 0.09053 0.37315 0.0
C481 C 0.86549 0.09905 0.33977 0.0
C482 C 0.82469 0.08026 0.34894 0.0
N483 N 0.84549 0.08471 0.33289 0.0
C484 C 0.91033 0.13378 0.43241 0.0
C485 C 0.90778 0.15934 0.39726 0.0
C486 C 0.93818 0.13441 0.4318 0.0
N487 N 0.89576 0.14638 0.41555 0.0
C488 C 0.93564 0.16034 0.39585 0.0
C489 C 0.95101 0.14786 0.4134 0.0
H490 H 0.90025 0.12332 0.44644 0.0
H491 H 0.8958 0.16873 0.38366 0.0
C492 C 0.77343 0.13487 0.35922 0.0
N493 N 0.79971 0.14002 0.36236 0.0
C494 C 0.76219 0.13431 0.33456 0.0
C495 C 0.80522 0.14443 0.31687 0.0
C496 C 0.81559 0.14489 0.34185 0.0
C497 C 0.77824 0.13908 0.31312 0.0
H498 H 0.7612 0.13121 0.37585 0.0
H499 H 0.83639 0.14896 0.34489 0.0
O500 O 0.84408 0.1411 0.45434 0.0
O501 O 0.7898 0.1391 0.42533 0.0
O502 O 0.83449 0.16869 0.4045 0.0
O503 O 0.84241 0.11621 0.40381 0.0
H504 H 0.83367 0.12406 0.50043 0.0
H505 H 0.88335 0.17107 0.45913 0.0
H506 H 0.85672 0.13493 0.54081 0.0
H507 H 0.90536 0.1812 0.50021 0.0
H508 H 0.73039 0.08132 0.43148 0.0
H509 H 0.76423 0.15322 0.46699 0.0
H510 H 0.76814 0.10064 0.40975 0.0
H511 H 0.72647 0.13304 0.48762 0.0
H512 H 0.80493 0.21296 0.51422 0.0
H513 H 0.75783 0.22787 0.44665 0.0
H514 H 0.83281 0.03713 0.45044 0.0
H515 H 0.78738 0.07213 0.50875 0.0
H516 H 0.84403 0.18776 0.35934 0.0
H517 H 0.85266 0.19578 0.44131 0.0
H518 H 0.86701 0.22449 0.3532 0.0
H519 H 0.87559 0.23225 0.43378 0.0
H520 H 0.88073 0.12124 0.3692 0.0
H521 H 0.80689 0.08706 0.3859 0.0
H522 H 0.88175 0.10224 0.32657 0.0
H523 H 0.80909 0.06879 0.3429 0.0
H524 H 0.94961 0.12449 0.44547 0.0
H525 H 0.94511 0.17073 0.3813 0.0
H526 H 0.74126 0.13017 0.33219 0.0
H527 H 0.81805 0.1482 0.30064 0.0
Li528 Li 0.65689 0.14263 0.09914 0.0
Li529 Li 0.70114 0.13862 0.1255 0.0
Li530 Li 0.69858 0.15871 0.08406 0.0
Li531 Li 0.69507 0.11939 0.08433 0.0
C532 C 0.68103 0.18891 0.11803 0.0
N533 N 0.68605 0.2354 0.11907 0.0
C534 C 0.7053 0.1988 0.12505 0.0
C535 C 0.65922 0.20264 0.11178 0.0
C536 C 0.70748 0.22234 0.12535 0.0
C537 C 0.66218 0.22612 0.11241 0.0
C538 C 0.67024 0.09288 0.1178 0.0
C539 C 0.68456 0.05616 0.13254 0.0
N540 N 0.66442 0.04647 0.11886 0.0
C541 C 0.64962 0.0826 0.10396 0.0
C542 C 0.68783 0.07962 0.13228 0.0
C543 C 0.64703 0.05909 0.10472 0.0
C544 C 0.60449 0.13517 0.08206 0.0
N545 N 0.61913 0.14468 0.10128 0.0
C546 C 0.57943 0.15631 0.12316 0.0
C547 C 0.60728 0.1551 0.12165 0.0
C548 C 0.56391 0.14664 0.10354 0.0
C549 C 0.57664 0.136 0.08279 0.0
H550 H 0.61451 0.12689 0.06619 0.0
H551 H 0.61947 0.16241 0.1367 0.0
C552 C 0.73869 0.14885 0.16463 0.0
N553 N 0.71525 0.1381 0.1596 0.0
C554 C 0.74917 0.14896 0.1896 0.0
C555 C 0.71127 0.12689 0.20371 0.0
C556 C 0.70144 0.12728 0.17849 0.0
C557 C 0.73535 0.13788 0.20938 0.0
H558 H 0.74926 0.15727 0.14922 0.0
H559 H 0.68277 0.11901 0.17396 0.0
C560 C 0.67112 0.15083 0.0413 0.0
N561 N 0.66925 0.17294 0.99445 0.0
C562 C 0.69194 0.14828 0.02362 0.0
C563 C 0.64915 0.16435 0.03501 0.0
C564 C 0.6907 0.1597 1.00009 0.0
C565 C 0.64861 0.17544 0.01124 0.0
C566 C 0.74775 0.12395 0.09148 0.0
C567 C 0.75817 0.1225 0.06656 0.0
C568 C 0.7596 0.11158 0.11141 0.0
C569 C 0.78006 0.10842 0.06191 0.0
C570 C 0.78152 0.09774 0.10599 0.0
N571 N 0.79119 0.09644 0.08155 0.0
C572 C 0.73967 0.18604 0.06295 0.0
C573 C 0.69609 0.20079 0.05672 0.0
C574 C 0.75079 0.20432 0.04972 0.0
N575 N 0.71275 0.18452 0.06604 0.0
C576 C 0.70633 0.2193 0.0433 0.0
C577 C 0.73395 0.22108 0.03966 0.0
H578 H 0.75253 0.17305 0.07077 0.0
H579 H 0.67482 0.19943 0.05967 0.0
C580 C 0.687 0.08848 0.04398 0.0
N581 N 0.7015 0.09153 0.0659 0.0
C582 C 0.68882 0.06828 0.03019 0.0
C583 C 0.72058 0.05456 0.06161 0.0
C584 C 0.71803 0.075 0.0749 0.0
C585 C 0.7057 0.05108 0.03909 0.0
H586 H 0.67348 0.10153 0.03748 0.0
H587 H 0.72868 0.07735 0.09276 0.0
O588 O 0.67869 0.16591 0.11698 0.0
O589 O 0.6734 0.11581 0.11691 0.0
O590 O 0.67218 0.14005 0.06459 0.0
O591 O 0.72641 0.13772 0.09643 0.0
H592 H 0.72239 0.18839 0.12978 0.0
H593 H 0.64033 0.19524 0.10618 0.0
H594 H 0.72622 0.23023 0.13049 0.0
H595 H 0.64553 0.23696 0.10746 0.0
H596 H 0.69812 0.04566 0.14353 0.0
H597 H 0.63594 0.09264 0.09257 0.0
H598 H 0.70404 0.08732 0.1429 0.0
H599 H 0.63127 0.05087 0.09398 0.0
H600 H 0.57007 0.1646 0.13943 0.0
H601 H 0.56511 0.12836 0.06742 0.0
H602 H 0.76782 0.15759 0.19347 0.0
H603 H 0.70017 0.11826 0.21866 0.0
H604 H 0.70893 0.13768 0.0281 0.0
H605 H 0.63289 0.16657 0.0485 0.0
H606 H 0.70678 0.15803 0.98632 0.0
H607 H 0.63184 0.18611 1.0062 0.0
H608 H 0.74945 0.13215 0.05098 0.0
H609 H 0.75175 0.11237 0.13078 0.0
H610 H 0.78824 0.10705 0.04269 0.0
H611 H 0.79078 0.08797 0.12119 0.0
H612 H 0.77223 0.20535 0.04722 0.0
H613 H 0.69289 0.23207 0.0358 0.0
H614 H 0.67689 0.06593 0.01298 0.0
H615 H 0.73351 0.04141 0.06909 0.0
Li616 Li 0.81231 0.88082 0.62493 0.0
Li617 Li 0.85345 0.87556 0.60148 0.0
Li618 Li 0.81893 0.9003 0.58457 0.0
Li619 Li 0.81251 0.85995 0.58463 0.0
C620 C 0.83388 0.92447 0.62751 0.0
N621 N 0.822 0.96611 0.64873 0.0
C622 C 0.85442 0.93904 0.63496 0.0
C623 C 0.80728 0.93108 0.63083 0.0
C624 C 0.84801 0.96003 0.64566 0.0
C625 C 0.80169 0.95219 0.6416 0.0
C626 C 0.84185 0.84357 0.63956 0.0
C627 C 0.84856 0.81325 0.66997 0.0
N628 N 0.86377 0.8272 0.68476 0.0
C629 C 0.85756 0.8576 0.65505 0.0
C630 C 0.83731 0.82121 0.64705 0.0
C631 C 0.86846 0.84901 0.67782 0.0
C632 C 0.77306 0.87202 0.66272 0.0
N633 N 0.79708 0.88215 0.65872 0.0
C634 C 0.7998 0.89276 0.70312 0.0
C635 C 0.81052 0.89241 0.67829 0.0
C636 C 0.77515 0.88235 0.70774 0.0
C637 C 0.76163 0.87192 0.68729 0.0
H638 H 0.76293 0.86386 0.64684 0.0
H639 H 0.8297 0.90016 0.67472 0.0
C640 C 0.90593 0.89108 0.59899 0.0
N641 N 0.89126 0.87217 0.60351 0.0
C642 C 0.93379 0.89011 0.59948 0.0
C643 C 0.93094 0.85021 0.60936 0.0
C644 C 0.90311 0.85191 0.60851 0.0
C645 C 0.94646 0.8695 0.60474 0.0
H646 H 0.89592 0.90688 0.59483 0.0
H647 H 0.891 0.83705 0.61169 0.0
C648 C 0.76646 0.88514 0.5781 0.0
N649 N 0.72589 0.88814 0.54213 0.0
C650 C 0.7725 0.88754 0.55195 0.0
C651 C 0.73979 0.88428 0.58595 0.0
C652 C 0.75171 0.88903 0.53407 0.0
C653 C 0.71956 0.88582 0.56747 0.0
C654 C 0.85512 0.86359 0.55026 0.0
C655 C 0.86483 0.87154 0.52672 0.0
C656 C 0.86106 0.84153 0.5581 0.0
C657 C 0.88037 0.85727 0.51138 0.0
C658 C 0.87666 0.82779 0.54221 0.0
N659 N 0.88592 0.83587 0.51938 0.0
C660 C 0.83481 0.93465 0.5512 0.0
C661 C 0.79134 0.94047 0.56816 0.0
C662 C 0.8333 0.95487 0.53743 0.0
N663 N 0.81401 0.92788 0.56614 0.0
C664 C 0.789 0.96087 0.55472 0.0
C665 C 0.81021 0.96818 0.5392 0.0
H666 H 0.85265 0.92436 0.55017 0.0
H667 H 0.77516 0.93477 0.58031 0.0
C668 C 0.78716 0.81743 0.57999 0.0
N669 N 0.79707 0.83513 0.5663 0.0
C670 C 0.77625 0.79877 0.56724 0.0
C671 C 0.78575 0.81702 0.52657 0.0
C672 C 0.79646 0.8353 0.54008 0.0
C673 C 0.7756 0.7985 0.54023 0.0
H674 H 0.78786 0.81778 0.60082 0.0
H675 H 0.80446 0.84955 0.52961 0.0
O676 O 0.83997 0.90398 0.61678 0.0
O677 O 0.83066 0.85159 0.6173 0.0
O678 O 0.78639 0.88354 0.59606 0.0
O679 O 0.84003 0.87751 0.5655 0.0
H680 H 0.87512 0.93418 0.63246 0.0
H681 H 0.7911 0.92006 0.62516 0.0
H682 H 0.86371 0.97148 0.65151 0.0
H683 H 0.7812 0.95752 0.64428 0.0
H684 H 0.84519 0.79598 0.67601 0.0
H685 H 0.86136 0.87493 0.64959 0.0
H686 H 0.82518 0.81014 0.63528 0.0
H687 H 0.88064 0.85969 0.68999 0.0
H688 H 0.8107 0.90086 0.7186 0.0
H689 H 0.74258 0.8637 0.69038 0.0
H690 H 0.94534 0.90524 0.59577 0.0
H691 H 0.94029 0.83406 0.61336 0.0
H692 H 0.79299 0.88828 0.54548 0.0
H693 H 0.7348 0.88243 0.60613 0.0
H694 H 0.75611 0.89088 0.51378 0.0
H695 H 0.69883 0.88517 0.57327 0.0
H696 H 0.8604 0.88858 0.52038 0.0
H697 H 0.85371 0.83503 0.57621 0.0
H698 H 0.88803 0.86321 0.49311 0.0
H699 H 0.8814 0.81069 0.54804 0.0
H700 H 0.85002 0.96018 0.52567 0.0
H701 H 0.77098 0.97091 0.55652 0.0
H702 H 0.76851 0.78467 0.57826 0.0
H703 H 0.78549 0.81724 0.50571 0.0
Li704 Li 0.8151 0.66006 0.08302 0.0
Li705 Li 0.85549 0.64306 0.10171 0.0
Li706 Li 0.81952 0.61871 0.08437 0.0
Li707 Li 0.81333 0.63912 0.12457 0.0
C708 C 0.83777 0.63925 0.03979 0.0
N709 N 0.8285 0.63519 0.98753 0.0
C710 C 0.85918 0.6371 0.02273 0.0
C711 C 0.81163 0.63933 0.0303 0.0
C712 C 0.85409 0.63506 0.99637 0.0
C713 C 0.80736 0.63726 1.0038 0.0
C714 C 0.84815 0.68304 0.12824 0.0
C715 C 0.87196 0.69614 0.16579 0.0
N716 N 0.88001 0.71471 0.15246 0.0
C717 C 0.85631 0.70244 0.11505 0.0
C718 C 0.85572 0.68001 0.15393 0.0
C719 C 0.87256 0.71818 0.12756 0.0
C720 C 0.77712 0.69259 0.06472 0.0
N721 N 0.80296 0.68548 0.0637 0.0
C722 C 0.81412 0.71528 0.03458 0.0
C723 C 0.82136 0.6963 0.04894 0.0
C724 C 0.78768 0.72305 0.03534 0.0
C725 C 0.76895 0.7115 0.0505 0.0
H726 H 0.76294 0.68366 0.07667 0.0
H727 H 0.84175 0.69025 0.04851 0.0
C728 C 0.90814 0.62837 0.11287 0.0
N729 N 0.89343 0.64606 0.10391 0.0
C730 C 0.93597 0.62963 0.11348 0.0
C731 C 0.93318 0.66709 0.09504 0.0
C732 C 0.90536 0.66509 0.09475 0.0
C733 C 0.94869 0.64915 0.10444 0.0
H734 H 0.89837 0.61304 0.11901 0.0
H735 H 0.89333 0.6785 0.08668 0.0
C736 C 0.76637 0.62431 0.10131 0.0
N737 N 0.72306 0.59821 0.11547 0.0
C738 C 0.77028 0.60279 0.11176 0.0
C739 C 0.74042 0.63255 0.09803 0.0
C740 C 0.74815 0.58985 0.11881 0.0
C741 C 0.71878 0.6191 0.10532 0.0
C742 C 0.84666 0.6027 0.13769 0.0
C743 C 0.83978 0.57982 0.13892 0.0
C744 C 0.86033 0.61265 0.15825 0.0
C745 C 0.84632 0.56738 0.16093 0.0
C746 C 0.86651 0.59964 0.17991 0.0
N747 N 0.8594 0.57747 0.18081 0.0
C748 C 0.83488 0.57648 0.066 0.0
C749 C 0.79142 0.58705 0.05221 0.0
C750 C 0.83324 0.55624 0.0523 0.0
N751 N 0.81415 0.59134 0.06576 0.0
C752 C 0.78894 0.56698 0.03818 0.0
C753 C 0.81008 0.55139 0.03819 0.0
H754 H 0.8528 0.58049 0.07672 0.0
H755 H 0.77536 0.5993 0.05211 0.0
C756 C 0.79018 0.65918 0.16838 0.0
N757 N 0.79707 0.63886 0.15803 0.0
C758 C 0.77919 0.66035 0.19309 0.0
C759 C 0.78219 0.61964 0.19596 0.0
C760 C 0.79281 0.61923 0.1711 0.0
C761 C 0.77544 0.6404 0.20719 0.0
H762 H 0.79346 0.67452 0.15749 0.0
H763 H 0.79772 0.60322 0.16237 0.0
O764 O 0.84249 0.64106 0.06566 0.0
O765 O 0.83222 0.66746 0.11627 0.0
O766 O 0.78774 0.63737 0.09443 0.0
O767 O 0.84017 0.6152 0.11639 0.0
H768 H 0.87953 0.63697 0.02982 0.0
H769 H 0.79479 0.64091 0.04321 0.0
H770 H 0.87047 0.63337 0.98293 0.0
H771 H 0.78724 0.63729 0.99619 0.0
H772 H 0.87805 0.69394 0.18563 0.0
H773 H 0.85037 0.70522 0.09527 0.0
H774 H 0.84893 0.66549 0.16472 0.0
H775 H 0.87922 0.73315 0.11749 0.0
H776 H 0.829 0.72389 0.02306 0.0
H777 H 0.7484 0.71718 0.05146 0.0
H778 H 0.9475 0.61539 0.1205 0.0
H779 H 0.94252 0.68226 0.08761 0.0
H780 H 0.79017 0.59614 0.11439 0.0
H781 H 0.73703 0.64918 0.08997 0.0
H782 H 0.75092 0.57317 0.12693 0.0
H783 H 0.69859 0.62528 0.1029 0.0
H784 H 0.82936 0.57178 0.12313 0.0
H785 H 0.86632 0.63015 0.15736 0.0
H786 H 0.84097 0.5497 0.1622 0.0
H787 H 0.87702 0.60715 0.19598 0.0
H788 H 0.84991 0.54455 0.05252 0.0
H789 H 0.77089 0.5637 0.02729 0.0
H790 H 0.77401 0.67662 0.20128 0.0
H791 H 0.77926 0.60395 0.20633 0.0
Li792 Li 0.69298 0.40096 0.58418 0.0
Li793 Li 0.69822 0.38095 0.62548 0.0
Li794 Li 0.69754 0.36005 0.58287 0.0
Li795 Li 0.65615 0.3759 0.60109 0.0
C796 C 0.74562 0.39519 0.58936 0.0
N797 N 0.78873 0.4216 0.57542 0.0
C798 C 0.75905 0.408 0.6079 0.0
C799 C 0.75436 0.39554 0.5638 0.0
C800 C 0.78075 0.4213 0.60046 0.0
C801 C 0.77611 0.40909 0.55711 0.0
C802 C 0.66346 0.41685 0.6367 0.0
C803 C 0.63943 0.42059 0.67673 0.0
N804 N 0.64798 0.44234 0.67875 0.0
C805 C 0.67171 0.43933 0.63899 0.0
C806 C 0.64693 0.40748 0.65556 0.0
C807 C 0.66379 0.4519 0.66046 0.0
C808 C 0.68726 0.43147 0.54295 0.0
N809 N 0.6994 0.42865 0.56618 0.0
C810 C 0.71758 0.466 0.56406 0.0
C811 C 0.71437 0.4454 0.57688 0.0
C812 C 0.70505 0.46931 0.54019 0.0
C813 C 0.68992 0.45177 0.52949 0.0
H814 H 0.67501 0.41814 0.53507 0.0
H815 H 0.72337 0.44295 0.5956 0.0
C816 C 0.71911 0.36169 0.671 0.0
N817 N 0.71345 0.38173 0.65933 0.0
C818 C 0.72966 0.36127 0.69593 0.0
C819 C 0.72902 0.40214 0.69619 0.0
C820 C 0.71852 0.40177 0.67125 0.0
C821 C 0.73454 0.3817 0.70875 0.0
H822 H 0.71533 0.346 0.66097 0.0
H823 H 0.71465 0.41748 0.66135 0.0
C824 C 0.66644 0.36966 0.54162 0.0
N825 N 0.65949 0.35015 0.49371 0.0
C826 C 0.64282 0.35813 0.53586 0.0
C827 C 0.68635 0.37155 0.52288 0.0
C828 C 0.63972 0.34833 0.51155 0.0
C829 C 0.68252 0.36147 0.49882 0.0
C830 C 0.66555 0.33638 0.62937 0.0
C831 C 0.66052 0.3152 0.61847 0.0
C832 C 0.65632 0.34112 0.65419 0.0
C833 C 0.64574 0.29931 0.63234 0.0
C834 C 0.64163 0.32478 0.66746 0.0
N835 N 0.63664 0.3044 0.65633 0.0
C836 C 0.73915 0.33258 0.56324 0.0
C837 C 0.69562 0.32003 0.55235 0.0
C838 C 0.75053 0.3145 0.54981 0.0
N839 N 0.71215 0.33504 0.56419 0.0
C840 C 0.70614 0.3019 0.53843 0.0
C841 C 0.7339 0.29899 0.53716 0.0
H842 H 0.75184 0.3446 0.57304 0.0
H843 H 0.67423 0.32208 0.55376 0.0
C844 C 0.60375 0.3921 0.60702 0.0
N845 N 0.61824 0.37287 0.60354 0.0
C846 C 0.57592 0.39123 0.60808 0.0
C847 C 0.57826 0.35081 0.60143 0.0
C848 C 0.60609 0.35245 0.60059 0.0
C849 C 0.56299 0.3704 0.60518 0.0
H850 H 0.61381 0.40819 0.60862 0.0
H851 H 0.61791 0.33753 0.59693 0.0
O852 O 0.72413 0.38226 0.59624 0.0
O853 O 0.67121 0.40425 0.61588 0.0
O854 O 0.66994 0.37917 0.56541 0.0
O855 O 0.67996 0.35215 0.61601 0.0
H856 H 0.75269 0.40779 0.62779 0.0
H857 H 0.74447 0.38547 0.5493 0.0
H858 H 0.79122 0.43142 0.61458 0.0
H859 H 0.78298 0.40964 0.53737 0.0
H860 H 0.62671 0.41351 0.69151 0.0
H861 H 0.68425 0.44695 0.62446 0.0
H862 H 0.63971 0.39037 0.65373 0.0
H863 H 0.67021 0.46925 0.66257 0.0
H864 H 0.72925 0.47936 0.57283 0.0
H865 H 0.67988 0.45394 0.51116 0.0
H866 H 0.73391 0.34524 0.70515 0.0
H867 H 0.73285 0.41817 0.70558 0.0
H868 H 0.6271 0.35669 0.55002 0.0
H869 H 0.70458 0.38063 0.5269 0.0
H870 H 0.62161 0.33925 0.50688 0.0
H871 H 0.69785 0.36267 0.48421 0.0
H872 H 0.66778 0.31111 0.59943 0.0
H873 H 0.66069 0.35712 0.66327 0.0
H874 H 0.64152 0.28292 0.62404 0.0
H875 H 0.63429 0.32827 0.68665 0.0
H876 H 0.77204 0.31261 0.54926 0.0
H877 H 0.69279 0.29013 0.52895 0.0
H878 H 0.56455 0.40664 0.61075 0.0
H879 H 0.56873 0.33454 0.59884 0.0
Li880 Li 0.81367 0.37925 0.89563 0.0
Li881 Li 0.81958 0.3984 0.93746 0.0
Li882 Li 0.85549 0.37229 0.92041 0.0
Li883 Li 0.81304 0.3581 0.93729 0.0
C884 C 0.85394 0.41529 0.88881 0.0
N885 N 0.87918 0.44417 0.85475 0.0
C886 C 0.84605 0.43792 0.88705 0.0
C887 C 0.87495 0.40746 0.87346 0.0
C888 C 0.85896 0.45221 0.86964 0.0
C889 C 0.88739 0.42229 0.85632 0.0
C890 C 0.76717 0.39584 0.93021 0.0
C891 C 0.73868 0.41439 0.96114 0.0
N892 N 0.72632 0.42563 0.94161 0.0
C893 C 0.7541 0.40747 0.91043 0.0
C894 C 0.75931 0.39919 0.95577 0.0
C895 C 0.73351 0.42249 0.9166 0.0
C896 C 0.78563 0.36239 0.85289 0.0
N897 N 0.7985 0.38106 0.86184 0.0
C898 C 0.79014 0.40063 0.82232 0.0
C899 C 0.80069 0.40007 0.84724 0.0
C900 C 0.77713 0.38149 0.81257 0.0
C901 C 0.77474 0.36223 0.8281 0.0
H902 H 0.78408 0.34755 0.86497 0.0
H903 H 0.81058 0.41481 0.85486 0.0
C904 C 0.82624 0.42843 0.97917 0.0
N905 N 0.81442 0.42621 0.9557 0.0
C906 C 0.82423 0.44874 0.99276 0.0
C907 C 0.79772 0.46408 0.95793 0.0
C908 C 0.80029 0.44349 0.94497 0.0
C909 C 0.81 0.46684 0.98199 0.0
H910 H 0.8376 0.41455 0.98715 0.0
H911 H 0.7913 0.44142 0.9262 0.0
C912 C 0.84165 0.33708 0.88487 0.0
N913 N 0.86269 0.31158 0.84512 0.0
C914 C 0.84316 0.31356 0.88704 0.0
C915 C 0.85061 0.34759 0.86237 0.0
C916 C 0.85395 0.30097 0.86678 0.0
C917 C 0.86122 0.33443 0.84252 0.0
C918 C 0.84349 0.36275 0.97781 0.0
C919 C 0.86406 0.34689 0.9801 0.0
C920 C 0.82488 0.36514 0.99769 0.0
C921 C 0.8655 0.33345 1.0022 0.0
C922 C 0.82697 0.35135 0.01945 0.0
N923 N 0.84705 0.33591 0.02123 0.0
C924 C 0.9076 0.38551 0.93012 0.0
C925 C 0.90567 0.35061 0.90769 0.0
C926 C 0.93547 0.38492 0.93001 0.0
N927 N 0.89333 0.36858 0.91897 0.0
C928 C 0.93355 0.34947 0.9069 0.0
C929 C 0.94868 0.36679 0.91816 0.0
H930 H 0.89723 0.39954 0.939 0.0
H931 H 0.89403 0.33718 0.89928 0.0
C932 C 0.77272 0.33458 0.96527 0.0
N933 N 0.79778 0.33307 0.9553 0.0
C934 C 0.76191 0.31651 0.97912 0.0
C935 C 0.80276 0.29559 0.97193 0.0
C936 C 0.81279 0.31406 0.95827 0.0
C937 C 0.77708 0.29681 0.98253 0.0
H938 H 0.76116 0.34983 0.96255 0.0
H939 H 0.8327 0.31337 0.95027 0.0
O940 O 0.84167 0.40113 0.90602 0.0
O941 O 0.78749 0.3812 0.92456 0.0
O942 O 0.83104 0.34959 0.90454 0.0
O943 O 0.84131 0.3756 0.95602 0.0
H944 H 0.83 0.44437 0.89883 0.0
H945 H 0.88182 0.39019 0.87484 0.0
H946 H 0.85291 0.46972 0.86798 0.0
H947 H 0.90364 0.41642 0.84433 0.0
H948 H 0.73254 0.4173 0.98084 0.0
H949 H 0.75986 0.40502 0.89054 0.0
H950 H 0.76929 0.3904 0.97131 0.0
H951 H 0.72328 0.43168 0.9015 0.0
H952 H 0.79214 0.41577 0.81074 0.0
H953 H 0.76474 0.34724 0.82103 0.0
H954 H 0.834 0.45046 0.01129 0.0
H955 H 0.78667 0.47782 0.94913 0.0
H956 H 0.83609 0.30509 0.90419 0.0
H957 H 0.84915 0.36568 0.86011 0.0
H958 H 0.85533 0.28276 0.86825 0.0
H959 H 0.8682 0.34237 0.825 0.0
H960 H 0.87858 0.34479 0.96484 0.0
H961 H 0.80883 0.37733 0.99617 0.0
H962 H 0.88121 0.321 1.00418 0.0
H963 H 0.81258 0.35286 0.03489 0.0
H964 H 0.94664 0.39853 0.93888 0.0
H965 H 0.94323 0.33523 0.89766 0.0
H966 H 0.74198 0.31786 0.98709 0.0
H967 H 0.8149 0.28056 0.97432 0.0
Li968 Li 0.69983 0.66115 0.43596 0.0
Li969 Li 0.65799 0.64389 0.41815 0.0
Li970 Li 0.69374 0.61892 0.43408 0.0
Li971 Li 0.69844 0.64001 0.39525 0.0
C972 C 0.66549 0.63116 0.4753 0.0
N973 N 0.65208 0.607 0.51894 0.0
C974 C 0.64145 0.6192 0.47628 0.0
C975 C 0.68275 0.63079 0.49647 0.0
C976 C 0.63502 0.6071 0.49854 0.0
C977 C 0.67561 0.61847 0.51836 0.0
C978 C 0.66099 0.6841 0.39827 0.0
C979 C 0.62452 0.69687 0.37158 0.0
N980 N 0.61975 0.71397 0.38849 0.0
C981 C 0.65585 0.70187 0.41531 0.0
C982 C 0.64536 0.68165 0.37613 0.0
C983 C 0.63488 0.71678 0.41003 0.0
C984 C 0.7338 0.69865 0.44518 0.0
N985 N 0.71385 0.68585 0.4553 0.0
C986 C 0.71276 0.70883 0.49321 0.0
C987 C 0.70313 0.69065 0.47875 0.0
C988 C 0.73348 0.72214 0.48328 0.0
C989 C 0.74405 0.71698 0.45898 0.0
H990 H 0.7416 0.69475 0.42631 0.0
H991 H 0.68694 0.68047 0.48614 0.0
C992 C 0.60548 0.63469 0.40068 0.0
N993 N 0.62015 0.64753 0.41716 0.0
C994 C 0.57767 0.63637 0.40048 0.0
C995 C 0.58054 0.6644 0.43429 0.0
C996 C 0.60833 0.66219 0.43383 0.0
C997 C 0.56502 0.65126 0.41754 0.0
H998 H 0.6153 0.62285 0.38802 0.0
H999 H 0.62049 0.67193 0.44699 0.0
C1000 C 0.74772 0.63129 0.41108 0.0
N1001 N 0.79265 0.61965 0.38313 0.0
C1002 C 0.75557 0.60866 0.40921 0.0
C1003 C 0.76278 0.648 0.3988 0.0
C1004 C 0.77837 0.60312 0.39502 0.0
C1005 C 0.78539 0.64177 0.3847 0.0
C1006 C 0.67244 0.60279 0.38119 0.0
C1007 C 0.68474 0.58156 0.38175 0.0
C1008 C 0.66091 0.61058 0.3583 0.0
C1009 C 0.68543 0.56852 0.35931 0.0
C1010 C 0.6621 0.59707 0.33626 0.0
N1011 N 0.67423 0.5765 0.33722 0.0
C1012 C 0.67975 0.57593 0.4523 0.0
C1013 C 0.72146 0.58899 0.4681 0.0
C1014 C 0.68194 0.55618 0.46684 0.0
N1015 N 0.69938 0.59178 0.45313 0.0
C1016 C 0.72451 0.56941 0.48294 0.0
C1017 C 0.70452 0.55283 0.48233 0.0
H1018 H 0.66222 0.57881 0.44055 0.0
H1019 H 0.73652 0.60208 0.46872 0.0
C1020 C 0.71185 0.65938 0.34708 0.0
N1021 N 0.7136 0.63995 0.36104 0.0
C1022 C 0.72204 0.66033 0.32205 0.0
C1023 C 0.73578 0.62131 0.32614 0.0
C1024 C 0.7256 0.62118 0.35116 0.0
C1025 C 0.73394 0.64105 0.31136 0.0
H1026 H 0.70252 0.67416 0.35538 0.0
H1027 H 0.72719 0.60603 0.36261 0.0
O1028 O 0.67239 0.64272 0.45349 0.0
O1029 O 0.6809 0.66892 0.40347 0.0
O1030 O 0.72527 0.637 0.42463 0.0
O1031 O 0.67157 0.61579 0.40299 0.0
H1032 H 0.62801 0.61908 0.45995 0.0
H1033 H 0.7016 0.63971 0.49587 0.0
H1034 H 0.61652 0.59773 0.49955 0.0
H1035 H 0.68881 0.61795 0.53486 0.0
H1036 H 0.61211 0.69506 0.35464 0.0
H1037 H 0.66772 0.70399 0.43256 0.0
H1038 H 0.64911 0.66799 0.36275 0.0
H1039 H 0.63056 0.73054 0.42312 0.0
H1040 H 0.70414 0.71253 0.51187 0.0
H1041 H 0.75996 0.72708 0.4508 0.0
H1042 H 0.56611 0.62591 0.38747 0.0
H1043 H 0.57122 0.67595 0.44776 0.0
H1044 H 0.74399 0.59545 0.41825 0.0
H1045 H 0.75682 0.66554 0.39972 0.0
H1046 H 0.78459 0.58567 0.39331 0.0
H1047 H 0.79708 0.65451 0.37492 0.0
H1048 H 0.69397 0.57532 0.3992 0.0
H1049 H 0.6515 0.62703 0.35745 0.0
H1050 H 0.695 0.55212 0.35943 0.0
H1051 H 0.65347 0.60297 0.31837 0.0
H1052 H 0.66613 0.54371 0.46619 0.0
H1053 H 0.74205 0.5673 0.49493 0.0
H1054 H 0.72047 0.67584 0.31105 0.0
H1055 H 0.74503 0.60621 0.3184 0.0
Li1056 Li 0.194 0.39866 0.9369 0.0
Li1057 Li 0.19954 0.35753 0.93707 0.0
Li1058 Li 0.19868 0.37862 0.89501 0.0
Li1059 Li 0.1578 0.37245 0.92076 0.0
C1060 C 0.24795 0.39334 0.92316 0.0
N1061 N 0.2942 0.41876 0.92142 0.0
C1062 C 0.2686 0.38921 0.94069 0.0
C1063 C 0.25103 0.41015 0.9045 0.0
C1064 C 0.29177 0.40232 0.93959 0.0
C1065 C 0.2745 0.42288 0.90399 0.0
C1066 C 0.17315 0.36614 0.97986 0.0
C1067 C 0.16128 0.33566 1.00849 0.0
N1068 N 0.17572 0.34558 0.02759 0.0
C1069 C 0.18768 0.37614 0.99982 0.0
C1070 C 0.15963 0.34585 0.98426 0.0
C1071 C 0.18879 0.36545 0.02381 0.0
C1072 C 0.17933 0.44179 0.95378 0.0
N1073 N 0.19946 0.42636 0.9551 0.0
C1074 C 0.22412 0.45027 0.98368 0.0
C1075 C 0.22155 0.43013 0.96977 0.0
C1076 C 0.20369 0.46646 0.98242 0.0
C1077 C 0.18114 0.46216 0.96723 0.0
H1078 H 0.16172 0.43815 0.94246 0.0
H1079 H 0.2369 0.41736 0.97115 0.0
C1080 C 0.21014 0.31137 0.94832 0.0
N1081 N 0.21559 0.33298 0.95554 0.0
C1082 C 0.22081 0.2932 0.96215 0.0
C1083 C 0.24286 0.31984 0.99035 0.0
C1084 C 0.23178 0.33749 0.97597 0.0
C1085 C 0.23725 0.29742 0.98347 0.0
H1086 H 0.19743 0.30821 0.9319 0.0
H1087 H 0.23579 0.35481 0.98131 0.0
C1088 C 0.16619 0.41881 0.88953 0.0
N1089 N 0.15569 0.45496 0.85729 0.0
C1090 C 0.14302 0.41908 0.87448 0.0
C1091 C 0.18378 0.43713 0.88849 0.0
C1092 C 0.13814 0.43744 0.85821 0.0
C1093 C 0.17818 0.45519 0.872 0.0
C1094 C 0.164 0.33494 0.89235 0.0
C1095 C 0.16212 0.33461 0.86548 0.0
C1096 C 0.14794 0.3205 0.90697 0.0
C1097 C 0.14392 0.32001 0.85369 0.0
C1098 C 0.12995 0.30618 0.89445 0.0
N1099 N 0.12832 0.30625 0.86829 0.0
C1100 C 0.23784 0.37142 0.85673 0.0
C1101 C 0.19827 0.3887 0.84107 0.0
C1102 C 0.24896 0.37157 0.83203 0.0
N1103 N 0.21297 0.38001 0.8608 0.0
C1104 C 0.20867 0.38931 0.81612 0.0
C1105 C 0.23425 0.38063 0.81149 0.0
H1106 H 0.24897 0.36435 0.87269 0.0
H1107 H 0.17829 0.39479 0.84454 0.0
C1108 C 0.10584 0.37194 0.9413 0.0
N1109 N 0.11985 0.36906 0.9191 0.0
C1110 C 0.07798 0.37086 0.94114 0.0
C1111 C 0.07942 0.36353 0.89533 0.0
C1112 C 0.10724 0.36503 0.89632 0.0
C1113 C 0.06453 0.36669 0.91793 0.0
H1114 H 0.1163 0.37546 0.95907 0.0
H1115 H 0.11874 0.36334 0.87882 0.0
O1116 O 0.2251 0.38067 0.92406 0.0
O1117 O 0.17238 0.37605 0.95606 0.0
O1118 O 0.17119 0.40097 0.90566 0.0
O1119 O 0.18161 0.34921 0.90424 0.0
H1120 H 0.26672 0.37611 0.9551 0.0
H1121 H 0.23561 0.41322 0.89038 0.0
H1122 H 0.30782 0.3994 0.95315 0.0
H1123 H 0.27709 0.43598 0.88966 0.0
H1124 H 0.1511 0.31985 0.01211 0.0
H1125 H 0.19822 0.39185 0.99675 0.0
H1126 H 0.14814 0.33798 0.96907 0.0
H1127 H 0.20012 0.37291 0.03938 0.0
H1128 H 0.24164 0.4531 0.99549 0.0
H1129 H 0.16497 0.47431 0.96611 0.0
H1130 H 0.2162 0.27604 0.95638 0.0
H1131 H 0.25551 0.32358 1.00673 0.0
H1132 H 0.12905 0.40519 0.8752 0.0
H1133 H 0.20137 0.4376 0.90054 0.0
H1134 H 0.12038 0.43778 0.84632 0.0
H1135 H 0.19165 0.46945 0.87099 0.0
H1136 H 0.17453 0.34552 0.85385 0.0
H1137 H 0.14918 0.32048 0.92776 0.0
H1138 H 0.14218 0.31964 0.83292 0.0
H1139 H 0.11726 0.29504 0.90554 0.0
H1140 H 0.26874 0.36464 0.82894 0.0
H1141 H 0.19678 0.39619 0.80053 0.0
H1142 H 0.06699 0.37348 0.95887 0.0
H1143 H 0.06956 0.3604 0.8771 0.0
Li1144 Li 0.31548 0.66131 0.43595 0.0
Li1145 Li 0.32181 0.61923 0.43223 0.0
Li1146 Li 0.35598 0.64497 0.41716 0.0
Li1147 Li 0.31574 0.64046 0.39335 0.0
C1148 C 0.36467 0.63846 0.467 0.0
N1149 N 0.41181 0.63206 0.4938 0.0
C1150 C 0.37653 0.61707 0.46795 0.0
C1151 C 0.37687 0.65662 0.47958 0.0
C1152 C 0.40034 0.61417 0.48163 0.0
C1153 C 0.40068 0.65303 0.49304 0.0
C1154 C 0.27038 0.62612 0.43504 0.0
C1155 C 0.24211 0.59329 0.43892 0.0
N1156 N 0.23235 0.60153 0.4615 0.0
C1157 C 0.25998 0.6343 0.45822 0.0
C1158 C 0.26128 0.60551 0.42522 0.0
C1159 C 0.24077 0.62161 0.47131 0.0
C1160 C 0.28096 0.69833 0.44374 0.0
N1161 N 0.30004 0.68539 0.45521 0.0
C1162 C 0.29748 0.70754 0.49364 0.0
C1163 C 0.30819 0.68944 0.47977 0.0
C1164 C 0.2779 0.72126 0.48222 0.0
C1165 C 0.26944 0.71642 0.45704 0.0
H1166 H 0.2748 0.69461 0.42421 0.0
H1167 H 0.32298 0.67862 0.48859 0.0
C1168 C 0.3221 0.57146 0.43938 0.0
N1169 N 0.31596 0.59159 0.45058 0.0
C1170 C 0.31974 0.55136 0.45332 0.0
C1171 C 0.3049 0.57304 0.49012 0.0
C1172 C 0.30753 0.59273 0.47547 0.0
C1173 C 0.31125 0.55212 0.47903 0.0
H1174 H 0.32956 0.57103 0.41989 0.0
H1175 H 0.30341 0.60901 0.48408 0.0
C1176 C 0.35061 0.68644 0.39676 0.0
N1177 N 0.38611 0.72053 0.38446 0.0
C1178 C 0.36885 0.68354 0.37663 0.0
C1179 C 0.35035 0.70675 0.41054 0.0
C1180 C 0.38667 0.70094 0.37076 0.0
C1181 C 0.36846 0.72377 0.40403 0.0
C1182 C 0.34332 0.60736 0.37651 0.0
C1183 C 0.36259 0.61359 0.35837 0.0
C1184 C 0.32347 0.59187 0.36964 0.0
C1185 C 0.3617 0.60419 0.33369 0.0
C1186 C 0.32323 0.58289 0.34476 0.0
N1187 N 0.34219 0.58917 0.32745 0.0
C1188 C 0.40897 0.63034 0.40915 0.0
C1189 C 0.40615 0.66794 0.42471 0.0
C1190 C 0.43681 0.63136 0.40927 0.0
N1191 N 0.39421 0.64858 0.41642 0.0
C1192 C 0.43396 0.66972 0.42509 0.0
C1193 C 0.44949 0.65126 0.41724 0.0
H1194 H 0.39911 0.61481 0.4037 0.0
H1195 H 0.39412 0.68189 0.43149 0.0
C1196 C 0.27457 0.63255 0.35625 0.0
N1197 N 0.29976 0.64066 0.35961 0.0
C1198 C 0.26312 0.63199 0.33166 0.0
C1199 C 0.30359 0.64834 0.3145 0.0
C1200 C 0.31417 0.64871 0.33939 0.0
C1201 C 0.27783 0.63986 0.31053 0.0
H1202 H 0.26342 0.62641 0.37262 0.0
H1203 H 0.33405 0.65513 0.34249 0.0
O1204 O 0.34167 0.64172 0.45321 0.0
O1205 O 0.28969 0.63803 0.42227 0.0
O1206 O 0.33292 0.66965 0.40282 0.0
O1207 O 0.34349 0.61676 0.40062 0.0
H1208 H 0.3677 0.6029 0.45794 0.0
H1209 H 0.36838 0.67342 0.47855 0.0
H1210 H 0.40977 0.59772 0.48245 0.0
H1211 H 0.41041 0.66696 0.50275 0.0
H1212 H 0.23507 0.57723 0.43166 0.0
H1213 H 0.26682 0.65016 0.46618 0.0
H1214 H 0.26921 0.59884 0.4074 0.0
H1215 H 0.23264 0.62769 0.48933 0.0
H1216 H 0.3043 0.71079 0.51311 0.0
H1217 H 0.25428 0.72666 0.44775 0.0
H1218 H 0.32509 0.53544 0.44438 0.0
H1219 H 0.29856 0.57413 0.51003 0.0
H1220 H 0.36973 0.66782 0.36607 0.0
H1221 H 0.33639 0.70936 0.42614 0.0
H1222 H 0.40106 0.69882 0.35541 0.0
H1223 H 0.36851 0.73955 0.41457 0.0
H1224 H 0.37784 0.62583 0.3631 0.0
H1225 H 0.30813 0.58712 0.38323 0.0
H1226 H 0.37642 0.60895 0.31945 0.0
H1227 H 0.30787 0.57101 0.33916 0.0
H1228 H 0.44837 0.61672 0.40349 0.0
H1229 H 0.44328 0.68517 0.43175 0.0
H1230 H 0.24313 0.62539 0.32911 0.0
H1231 H 0.31537 0.65456 0.29851 0.0
Li1232 Li 0.15731 0.64314 0.10032 0.0
Li1233 Li 0.19852 0.63863 0.12366 0.0
Li1234 Li 0.19776 0.65951 0.08328 0.0
Li1235 Li 0.1924 0.61895 0.08337 0.0
C1236 C 0.1683 0.67548 0.13821 0.0
N1237 N 0.14645 0.69163 0.18349 0.0
C1238 C 0.15277 0.66132 0.1537 0.0
C1239 C 0.1727 0.69784 0.14574 0.0
C1240 C 0.1419 0.6698 0.17652 0.0
C1241 C 0.16149 0.70569 0.1687 0.0
C1242 C 0.17841 0.59462 0.12635 0.0
C1243 C 0.21172 0.56759 0.13983 0.0
N1244 N 0.192 0.55332 0.14754 0.0
C1245 C 0.15848 0.57969 0.1344 0.0
C1246 C 0.20527 0.58854 0.12907 0.0
C1247 C 0.16576 0.55889 0.14508 0.0
C1248 C 0.10487 0.627 0.09959 0.0
N1249 N 0.11949 0.64618 0.10249 0.0
C1250 C 0.07977 0.66836 0.10674 0.0
C1251 C 0.1076 0.66666 0.10601 0.0
C1252 C 0.06429 0.64881 0.10375 0.0
C1253 C 0.07701 0.62793 0.10018 0.0
H1254 H 0.11491 0.61101 0.0966 0.0
H1255 H 0.11969 0.68168 0.10804 0.0
C1256 C 0.23712 0.64845 0.16189 0.0
N1257 N 0.21359 0.63763 0.15755 0.0
C1258 C 0.24821 0.64884 0.18663 0.0
C1259 C 0.21075 0.62681 0.20187 0.0
C1260 C 0.20033 0.62694 0.17692 0.0
C1261 C 0.23488 0.63794 0.20686 0.0
H1262 H 0.24711 0.65696 0.14617 0.0
H1263 H 0.18148 0.61872 0.1731 0.0
C1264 C 0.15477 0.65449 0.04897 0.0
N1265 N 0.12217 0.68068 0.01801 0.0
C1266 C 0.14416 0.64554 0.02626 0.0
C1267 C 0.14879 0.67675 0.05595 0.0
C1268 C 0.12772 0.65905 0.01086 0.0
C1269 C 0.13229 0.68972 0.04004 0.0
C1270 C 0.2444 0.63527 0.07681 0.0
C1271 C 0.23831 0.63311 0.05064 0.0
C1272 C 0.27107 0.63644 0.08463 0.0
C1273 C 0.25906 0.63216 0.0327 0.0
C1274 C 0.29126 0.63543 0.0661 0.0
N1275 N 0.28489 0.63334 0.04073 0.0
C1276 C 0.22343 0.70187 0.07856 0.0
C1277 C 0.21231 0.68478 0.03864 0.0
C1278 C 0.23428 0.72056 0.06583 0.0
N1279 N 0.21267 0.68453 0.06486 0.0
C1280 C 0.22279 0.70316 0.02515 0.0
C1281 C 0.23389 0.7213 0.03881 0.0
H1282 H 0.22354 0.70117 0.09939 0.0
H1283 H 0.2038 0.67074 0.02815 0.0
C1284 C 0.17666 0.58324 0.05181 0.0
N1285 N 0.19799 0.59133 0.06514 0.0
C1286 C 0.17857 0.56282 0.03845 0.0
C1287 C 0.22442 0.55944 0.0527 0.0
C1288 C 0.22159 0.57989 0.06593 0.0
C1289 C 0.20267 0.55077 0.03886 0.0
H1290 H 0.15809 0.5926 0.05177 0.0
H1291 H 0.23814 0.58654 0.07696 0.0
O1292 O 0.17951 0.66755 0.11593 0.0
O1293 O 0.17147 0.61491 0.11558 0.0
O1294 O 0.17062 0.6413 0.06435 0.0
O1295 O 0.2245 0.63646 0.09482 0.0
H1296 H 0.14915 0.64396 0.14824 0.0
H1297 H 0.18472 0.709 0.13397 0.0
H1298 H 0.12987 0.65903 0.18869 0.0
H1299 H 0.16475 0.72296 0.17478 0.0
H1300 H 0.23241 0.56266 0.14203 0.0
H1301 H 0.1376 0.58414 0.13238 0.0
H1302 H 0.22099 0.59983 0.12295 0.0
H1303 H 0.15054 0.54717 0.15138 0.0
H1304 H 0.0704 0.68471 0.10941 0.0
H1305 H 0.06549 0.61259 0.09773 0.0
H1306 H 0.26686 0.65762 0.19001 0.0
H1307 H 0.2 0.61835 0.21719 0.0
H1308 H 0.14856 0.62831 0.02062 0.0
H1309 H 0.15677 0.68398 0.07347 0.0
H1310 H 0.11935 0.65234 0.99323 0.0
H1311 H 0.1275 0.70697 0.04521 0.0
H1312 H 0.21781 0.63213 0.04419 0.0
H1313 H 0.2761 0.63815 0.10483 0.0
H1314 H 0.25463 0.63049 0.01239 0.0
H1315 H 0.312 0.63633 0.07188 0.0
H1316 H 0.24279 0.73432 0.07687 0.0
H1317 H 0.22227 0.70326 1.00429 0.0
H1318 H 0.16145 0.55644 0.02797 0.0
H1319 H 0.24322 0.55039 0.05341 0.0
Li1320 Li 0.31243 0.38085 0.62435 0.0
Li1321 Li 0.35445 0.37673 0.60057 0.0
Li1322 Li 0.31909 0.40207 0.5853 0.0
Li1323 Li 0.31394 0.36085 0.58301 0.0
C1324 C 0.3427 0.41365 0.64104 0.0
N1325 N 0.34678 0.43093 0.69034 0.0
C1326 C 0.36422 0.40757 0.65677 0.0
C1327 C 0.32334 0.42862 0.65034 0.0
C1328 C 0.36592 0.41649 0.68164 0.0
C1329 C 0.32572 0.43712 0.67534 0.0
C1330 C 0.32695 0.33031 0.61766 0.0
C1331 C 0.33402 0.29192 0.60352 0.0
N1332 N 0.31433 0.28488 0.61967 0.0
C1333 C 0.30683 0.32269 0.63416 0.0
C1334 C 0.34073 0.31481 0.60226 0.0
C1335 C 0.30074 0.29965 0.63489 0.0
C1336 C 0.27187 0.38793 0.66213 0.0
N1337 N 0.29738 0.38081 0.65817 0.0
C1338 C 0.30309 0.37348 0.70316 0.0
C1339 C 0.31295 0.37349 0.678 0.0
C1340 C 0.27692 0.38084 0.70775 0.0
C1341 C 0.26114 0.38807 0.68699 0.0
H1342 H 0.25987 0.39347 0.64601 0.0
H1343 H 0.33307 0.36771 0.67422 0.0
C1344 C 0.40706 0.39279 0.59912 0.0
N1345 N 0.39228 0.3739 0.60344 0.0
C1346 C 0.4349 0.39176 0.59981 0.0
C1347 C 0.43182 0.35195 0.61008 0.0
C1348 C 0.40399 0.35374 0.60911 0.0
C1349 C 0.44745 0.37113 0.60523 0.0
H1350 H 0.39716 0.40863 0.59487 0.0
H1351 H 0.39177 0.33904 0.61272 0.0
C1352 C 0.26795 0.39546 0.58284 0.0
N1353 N 0.23042 0.42085 0.55658 0.0
C1354 C 0.25796 0.38791 0.55921 0.0
C1355 C 0.25874 0.41584 0.5932 0.0
C1356 C 0.23899 0.401 0.54623 0.0
C1357 C 0.23982 0.42847 0.57958 0.0
C1358 C 0.36309 0.38095 0.5511 0.0
C1359 C 0.37301 0.40185 0.54296 0.0
C1360 C 0.37757 0.36125 0.54589 0.0
C1361 C 0.3973 0.40268 0.52976 0.0
C1362 C 0.40179 0.36279 0.53267 0.0
N1363 N 0.41107 0.3833 0.52495 0.0
C1364 C 0.31848 0.4498 0.57913 0.0
C1365 C 0.30565 0.42898 0.54208 0.0
C1366 C 0.31662 0.47008 0.56545 0.0
N1367 N 0.31315 0.4298 0.56727 0.0
C1368 C 0.30356 0.44886 0.52767 0.0
C1369 C 0.3094 0.46963 0.53935 0.0
H1370 H 0.32491 0.44996 0.59899 0.0
H1371 H 0.30204 0.4128 0.53302 0.0
C1372 C 0.2775 0.32523 0.5738 0.0
N1373 N 0.29893 0.33633 0.56385 0.0
C1374 C 0.2667 0.30663 0.56092 0.0
C1375 C 0.29956 0.31174 0.52729 0.0
C1376 C 0.30984 0.33016 0.5409 0.0
C1377 C 0.2779 0.29972 0.53747 0.0
H1378 H 0.269 0.33071 0.5919 0.0
H1379 H 0.32654 0.33949 0.5332 0.0
O1380 O 0.34031 0.40466 0.61688 0.0
O1381 O 0.33287 0.35285 0.61631 0.0
O1382 O 0.28702 0.38318 0.59553 0.0
O1383 O 0.33962 0.37981 0.56452 0.0
H1384 H 0.37928 0.39588 0.64999 0.0
H1385 H 0.30639 0.4333 0.63853 0.0
H1386 H 0.38239 0.41185 0.69407 0.0
H1387 H 0.31077 0.44856 0.68286 0.0
H1388 H 0.34439 0.27977 0.59159 0.0
H1389 H 0.29582 0.33444 0.64608 0.0
H1390 H 0.35613 0.32044 0.58916 0.0
H1391 H 0.28514 0.29353 0.64749 0.0
H1392 H 0.31565 0.36773 0.71885 0.0
H1393 H 0.24082 0.39377 0.69003 0.0
H1394 H 0.44653 0.40683 0.59603 0.0
H1395 H 0.44107 0.33582 0.61436 0.0
H1396 H 0.26496 0.37224 0.55084 0.0
H1397 H 0.26645 0.42202 0.61136 0.0
H1398 H 0.23117 0.39542 0.52787 0.0
H1399 H 0.23268 0.44436 0.58726 0.0
H1400 H 0.36227 0.41731 0.54703 0.0
H1401 H 0.3704 0.34496 0.55235 0.0
H1402 H 0.40526 0.41874 0.52345 0.0
H1403 H 0.41328 0.3477 0.52866 0.0
H1404 H 0.32145 0.48589 0.57489 0.0
H1405 H 0.29815 0.44802 0.50748 0.0
H1406 H 0.24987 0.29768 0.56913 0.0
H1407 H 0.30848 0.30681 0.50913 0.0
C1408 C 0.2787 0.24583 1.00207 0.0
C1409 C 0.26888 0.24147 0.02723 0.0
C1410 C 0.23714 0.27291 0.02304 0.0
C1411 C 0.2484 0.27833 0.99872 0.0
N1412 N 0.28269 0.27253 0.96681 0.0
N1413 N 0.24203 0.25284 0.06353 0.0
C1414 C 0.27 0.26551 0.98871 0.0
C1415 C 0.24901 0.2556 0.03826 0.0
N1416 N 0.29566 0.23074 0.99061 0.0
N1417 N 0.21457 0.2838 0.03119 0.0
H1418 H 0.25023 0.24029 0.07525 0.0
H1419 H 0.22984 0.2641 0.07351 0.0
H1420 H 0.20537 0.29666 0.02065 0.0
H1421 H 0.20369 0.27892 0.04734 0.0
H1422 H 0.30118 0.23163 0.9713 0.0
H1423 H 0.3026 0.2162 0.99982 0.0
H1424 H 0.30036 0.26536 0.96007 0.0
H1425 H 0.2768 0.2868 0.95645 0.0
C1426 C 0.25038 0.73674 0.51878 0.0
C1427 C 0.26631 0.7407 0.49663 0.0
C1428 C 0.25805 0.78144 0.50057 0.0
C1429 C 0.24465 0.77764 0.52427 0.0
N1430 N 0.23254 0.75199 0.55849 0.0
N1431 N 0.28964 0.76711 0.46925 0.0
C1432 C 0.24207 0.75536 0.53412 0.0
C1433 C 0.27138 0.76316 0.48829 0.0
N1434 N 0.24239 0.71527 0.52469 0.0
N1435 N 0.25726 0.80232 0.48931 0.0
H1436 H 0.30019 0.75422 0.46006 0.0
H1437 H 0.29617 0.78325 0.46429 0.0
H1438 H 0.24733 0.81608 0.49747 0.0
H1439 H 0.26427 0.80546 0.47076 0.0
H1440 H 0.22849 0.71167 0.53903 0.0
H1441 H 0.24766 0.7012 0.51368 0.0
H1442 H 0.23286 0.73632 0.56765 0.0
H1443 H 0.22666 0.76521 0.57053 0.0
C1444 C 0.24321 0.78128 0.01337 0.0
C1445 C 0.26608 0.77843 0.99755 0.0
C1446 C 0.26934 0.73872 0.01088 0.0
C1447 C 0.24508 0.74105 0.02476 0.0
N1448 N 0.20633 0.76337 0.03563 0.0
N1449 N 0.29825 0.75364 0.97754 0.0
C1450 C 0.23126 0.76202 0.02502 0.0
C1451 C 0.27842 0.7569 0.99526 0.0
N1452 N 0.23343 0.80249 0.01798 0.0
N1453 N 0.28416 0.7194 0.01328 0.0
H1454 H 0.30534 0.7665 0.96562 0.0
H1455 H 0.30603 0.73779 0.97302 0.0
H1456 H 0.27825 0.70575 0.02465 0.0
H1457 H 0.30338 0.71766 1.00588 0.0
H1458 H 0.21866 0.80589 0.03155 0.0
H1459 H 0.24165 0.81703 1.00985 0.0
H1460 H 0.19408 0.77753 0.03391 0.0
H1461 H 0.19685 0.74962 0.04426 0.0
C1462 C 0.24752 0.28288 0.5041 0.0
C1463 C 0.26703 0.27977 0.52363 0.0
C1464 C 0.26446 0.23862 0.51813 0.0
C1465 C 0.24635 0.24182 0.49739 0.0
N1466 N 0.22313 0.26667 0.46814 0.0
N1467 N 0.29683 0.25534 0.54727 0.0
C1468 C 0.23855 0.26388 0.48967 0.0
C1469 C 0.27629 0.2578 0.5301 0.0
N1470 N 0.23711 0.30394 0.49982 0.0
N1471 N 0.26973 0.21724 0.52681 0.0
H1472 H 0.30555 0.26896 0.55686 0.0
H1473 H 0.30656 0.24008 0.55072 0.0
H1474 H 0.26182 0.20278 0.51821 0.0
H1475 H 0.28034 0.2138 0.54362 0.0
H1476 H 0.22073 0.30701 0.48796 0.0
H1477 H 0.24363 0.31831 0.5096 0.0
H1478 H 0.21916 0.28231 0.45978 0.0
H1479 H 0.2158 0.25314 0.45736 0.0
C1480 C 0.77892 0.7649 0.03295 0.0
C1481 C 0.78011 0.74356 0.02048 0.0
C1482 C 0.77416 0.76254 0.979 0.0
C1483 C 0.76588 0.78246 0.99198 0.0
N1484 N 0.78257 0.80525 0.02682 0.0
N1485 N 0.77881 0.72196 0.98097 0.0
C1486 C 0.77444 0.78466 0.01795 0.0
C1487 C 0.77778 0.74234 0.99328 0.0
N1488 N 0.78203 0.7664 0.05903 0.0
N1489 N 0.78353 0.76385 0.9544 0.0
H1490 H 0.78149 0.70668 0.9907 0.0
H1491 H 0.77481 0.72028 0.96134 0.0
H1492 H 0.78675 0.77944 0.94549 0.0
H1493 H 0.79199 0.75013 0.94477 0.0
H1494 H 0.77841 0.78126 0.06925 0.0
H1495 H 0.78651 0.75249 0.07062 0.0
H1496 H 0.79139 0.80764 0.0448 0.0
H1497 H 0.78395 0.81922 0.01459 0.0
C1498 C 0.75041 0.23859 0.51702 0.0
C1499 C 0.76768 0.24248 0.49581 0.0
C1500 C 0.7603 0.28332 0.49994 0.0
C1501 C 0.74551 0.27952 0.52285 0.0
N1502 N 0.73065 0.25374 0.55592 0.0
N1503 N 0.79293 0.26867 0.4698 0.0
C1504 C 0.7417 0.25719 0.53217 0.0
C1505 C 0.7737 0.2649 0.48798 0.0
N1506 N 0.74163 0.21719 0.52221 0.0
N1507 N 0.76081 0.30439 0.4891 0.0
H1508 H 0.80341 0.25565 0.46077 0.0
H1509 H 0.80017 0.2847 0.46535 0.0
H1510 H 0.75096 0.31826 0.49709 0.0
H1511 H 0.76891 0.30764 0.471 0.0
H1512 H 0.72684 0.21367 0.53572 0.0
H1513 H 0.74725 0.20315 0.51132 0.0
H1514 H 0.72999 0.23797 0.56483 0.0
H1515 H 0.72439 0.26692 0.56782 0.0
C1516 C 0.76736 0.2774 0.02452 0.0
C1517 C 0.76606 0.27739 0.9972 0.0
C1518 C 0.74569 0.23968 0.99774 0.0
C1519 C 0.74518 0.24044 0.02506 0.0
N1520 N 0.75201 0.26088 0.06468 0.0
N1521 N 0.75099 0.26029 0.95763 0.0
C1522 C 0.75506 0.25955 0.03854 0.0
C1523 C 0.75439 0.25899 0.98374 0.0
N1524 N 0.78101 0.29417 0.03699 0.0
N1525 N 0.73845 0.22027 0.98523 0.0
H1526 H 0.75752 0.274 0.94669 0.0
H1527 H 0.73998 0.24864 0.947 0.0
H1528 H 0.73148 0.20594 0.99482 0.0
H1529 H 0.74117 0.21769 0.96557 0.0
H1530 H 0.78527 0.29388 0.05661 0.0
H1531 H 0.78989 0.3077 0.02738 0.0
H1532 H 0.75603 0.27539 0.07534 0.0
H1533 H 0.74354 0.24796 0.07563 0.0
C1534 C 0.78003 0.75875 0.52368 0.0
C1535 C 0.76453 0.77874 0.52615 0.0
C1536 C 0.72947 0.76218 0.49905 0.0
C1537 C 0.74404 0.74159 0.49826 0.0
N1538 N 0.781 0.71884 0.51301 0.0
N1539 N 0.72292 0.79852 0.51979 0.0
C1540 C 0.76873 0.73946 0.5115 0.0
C1541 C 0.73877 0.78019 0.51484 0.0
N1542 N 0.80588 0.75847 0.53222 0.0
N1543 N 0.7072 0.76475 0.48405 0.0
H1544 H 0.72913 0.8121 0.53113 0.0
H1545 H 0.7029 0.7995 0.51446 0.0
H1546 H 0.69965 0.75188 0.47241 0.0
H1547 H 0.69739 0.78012 0.48154 0.0
H1548 H 0.81917 0.74534 0.5284 0.0
H1549 H 0.81481 0.7722 0.54142 0.0
H1550 H 0.79746 0.71561 0.52473 0.0
H1551 H 0.77343 0.70437 0.50415 0.0
C1552 C 0.29512 0.02827 1.00029 0.0
C1553 C 0.30762 0.02935 0.02481 0.0
C1554 C 0.31848 0.98897 0.02223 0.0
C1555 C 0.30868 0.98853 0.99658 0.0
N1556 N 0.29076 1.00826 0.95973 0.0
N1557 N 0.3346 0.01176 0.05776 0.0
C1558 C 0.29774 1.00831 0.98521 0.0
C1559 C 0.32016 0.00995 0.03548 0.0
N1560 N 0.28018 0.04612 0.99174 0.0
N1561 N 0.32556 0.96922 0.03414 0.0
H1562 H 0.33635 0.02683 0.06804 0.0
H1563 H 0.34665 0.99886 0.06494 0.0
H1564 H 0.32456 0.95352 0.02504 0.0
H1565 H 0.33015 0.96812 0.05367 0.0
H1566 H 0.26827 0.0455 0.9753 0.0
H1567 H 0.27782 0.061 1.00229 0.0
H1568 H 0.28552 0.02279 0.9496 0.0
H1569 H 0.29221 0.99393 0.9481 0.0
C1570 C 0.18824 1.00777 0.53548 0.0
C1571 C 0.20518 0.98974 0.52776 0.0
C1572 C 0.22122 0.01229 0.49124 0.0
C1573 C 0.20545 0.03075 0.49986 0.0
N1574 N 0.1781 0.0478 0.53278 0.0
N1575 N 0.24131 0.97599 0.50139 0.0
C1576 C 0.19021 0.029 0.5228 0.0
C1577 C 0.22276 0.99236 0.50654 0.0
N1578 N 0.16951 1.00433 0.55424 0.0
N1579 N 0.23392 0.01349 0.46797 0.0
H1580 H 0.24294 0.96118 0.51219 0.0
H1581 H 0.25652 0.9779 0.4879 0.0
H1582 H 0.23348 0.02788 0.45635 0.0
H1583 H 0.24322 0.99973 0.45925 0.0
H1584 H 0.15457 0.01596 0.55863 0.0
H1585 H 0.16748 0.98907 0.5641 0.0
H1586 H 0.1691 0.04818 0.55085 0.0
H1587 H 0.17908 0.06365 0.524 0.0
C1588 C 0.68661 0.9921 0.0164 0.0
C1589 C 0.70627 0.98825 0.9972 0.0
C1590 C 0.72563 0.02568 1.00535 0.0
C1591 C 0.70673 0.02908 0.02535 0.0
N1592 N 0.67194 0.01461 0.05284 0.0
N1593 N 0.74679 0.99939 0.97572 0.0
C1594 C 0.68803 0.01197 0.03176 0.0
C1595 C 0.72649 1.00448 0.99236 0.0
N1596 N 0.66605 0.9771 0.01933 0.0
N1597 N 0.74227 0.04295 0.99838 0.0
H1598 H 0.74777 0.98417 0.9656 0.0
H1599 H 0.76368 0.00941 0.97329 0.0
H1600 H 0.74278 0.05841 1.00804 0.0
H1601 H 0.75439 0.04258 0.98212 0.0
H1602 H 0.64939 0.98016 0.0308 0.0
H1603 H 0.66463 0.9621 1.00886 0.0
H1604 H 0.66 1.00181 0.06033 0.0
H1605 H 0.67196 0.02918 0.06415 0.0
C1606 C 0.82534 0.02861 0.51897 0.0
C1607 C 0.80871 0.03086 0.49694 0.0
C1608 C 0.79337 0.99176 0.50222 0.0
C1609 C 0.80867 0.99004 0.52517 0.0
N1610 N 0.83509 1.00795 0.55821 0.0
N1611 N 0.77341 0.01633 0.47006 0.0
C1612 C 0.82343 1.00884 0.5344 0.0
C1613 C 0.79167 0.01293 0.48929 0.0
N1614 N 0.8437 0.045 0.52458 0.0
N1615 N 0.78128 0.97297 0.49228 0.0
H1616 H 0.77169 0.03161 0.46014 0.0
H1617 H 0.75852 1.00476 0.4654 0.0
H1618 H 0.78187 0.95722 0.50132 0.0
H1619 H 0.77238 0.97252 0.47415 0.0
H1620 H 0.85842 0.04315 0.53861 0.0
H1621 H 0.84572 0.05978 0.5138 0.0
H1622 H 0.84367 0.02191 0.56719 0.0
H1623 H 0.83412 0.99373 0.57007 0.0
C1624 C 0.82503 0.5071 0.98709 0.0
C1625 C 0.80878 0.48892 0.99559 0.0
C1626 C 0.79349 0.51159 0.03232 0.0
C1627 C 0.80847 0.5302 0.02293 0.0
N1628 N 0.83435 0.54729 0.98898 0.0
N1629 N 0.77396 0.47489 0.02333 0.0
C1630 C 0.823 0.52843 0.99956 0.0
C1631 C 0.79192 0.49148 0.01736 0.0
N1632 N 0.84315 0.50374 0.96776 0.0
N1633 N 0.78157 0.51286 0.05597 0.0
H1634 H 0.77234 0.45991 0.01283 0.0
H1635 H 0.75918 0.47672 0.03727 0.0
H1636 H 0.78202 0.52738 0.06736 0.0
H1637 H 0.77295 0.49904 0.06519 0.0
H1638 H 0.85764 0.51554 0.96271 0.0
H1639 H 0.84519 0.4884 0.95805 0.0
H1640 H 0.84275 0.54762 0.97064 0.0
H1641 H 0.8333 0.56321 0.9976 0.0
C1642 C 0.69035 0.50964 0.53476 0.0
C1643 C 0.70678 0.49139 0.52669 0.0
C1644 C 0.7222 0.51354 0.48963 0.0
C1645 C 0.7067 0.53212 0.49836 0.0
N1646 N 0.6802 0.54965 0.53155 0.0
N1647 N 0.74192 0.47704 0.49954 0.0
C1648 C 0.69206 0.53071 0.52169 0.0
C1649 C 0.72383 0.49369 0.50503 0.0
N1650 N 0.67234 0.50655 0.55424 0.0
N1651 N 0.73456 0.51459 0.46617 0.0
H1652 H 0.74352 0.46223 0.51037 0.0
H1653 H 0.7568 0.47864 0.48565 0.0
H1654 H 0.73422 0.529 0.45459 0.0
H1655 H 0.74357 0.50075 0.45735 0.0
H1656 H 0.65767 0.51831 0.559 0.0
H1657 H 0.67068 0.49147 0.56451 0.0
H1658 H 0.6716 0.55035 0.54979 0.0
H1659 H 0.68096 0.56533 0.52239 0.0
C1660 C 0.21355 0.5286 0.99895 0.0
C1661 C 0.20486 0.52891 0.02497 0.0
C1662 C 0.19577 0.48819 0.02326 0.0
C1663 C 0.20537 0.48772 0.99754 0.0
N1664 N 0.22723 0.50622 0.962 0.0
N1665 N 0.19173 0.50897 0.06341 0.0
C1666 C 0.21545 0.50759 0.98571 0.0
C1667 C 0.19721 0.50865 0.0376 0.0
N1668 N 0.2192 0.54851 0.98671 0.0
N1669 N 0.18449 0.46921 0.03365 0.0
H1670 H 0.19198 0.52375 0.07439 0.0
H1671 H 0.18885 0.49448 0.07443 0.0
H1672 H 0.1838 0.45374 0.02403 0.0
H1673 H 0.17426 0.46904 0.05109 0.0
H1674 H 0.22262 0.54982 0.967 0.0
H1675 H 0.21887 0.56413 0.99603 0.0
H1676 H 0.23751 0.51951 0.9534 0.0
H1677 H 0.2285 0.49117 0.95159 0.0
C1678 C 0.28574 0.52071 0.50055 0.0
C1679 C 0.31054 0.53111 0.49473 0.0
C1680 C 0.33446 0.50018 0.51618 0.0
C1681 C 0.30965 0.49078 0.52388 0.0
N1682 N 0.26171 0.49347 0.52674 0.0
N1683 N 0.35828 0.53312 0.50069 0.0
C1684 C 0.28525 0.50143 0.51698 0.0
C1685 C 0.33486 0.52151 0.50359 0.0
N1686 N 0.26275 0.52887 0.48974 0.0
N1687 N 0.35761 0.48836 0.52015 0.0
H1688 H 0.35943 0.5488 0.49156 0.0
H1689 H 0.37618 0.5282 0.50926 0.0
H1690 H 0.35819 0.47267 0.52932 0.0
H1691 H 0.37594 0.49313 0.51241 0.0
H1692 H 0.24443 0.52063 0.49093 0.0
H1693 H 0.26233 0.54307 0.47782 0.0
H1694 H 0.24354 0.50187 0.52474 0.0
H1695 H 0.26061 0.47927 0.53862 0.0
C1696 C 0.52037 0.13173 0.12046 0.0
C1697 C 0.53429 0.1474 0.10473 0.0
C1698 C 0.4918 0.16216 0.08813 0.0
C1699 C 0.4779 0.14737 0.10494 0.0
N1700 N 0.47837 0.12073 0.14008 0.0
N1701 N 0.53385 0.17995 0.0768 0.0
C1702 C 0.49204 0.13294 0.12203 0.0
C1703 C 0.52015 0.16335 0.08948 0.0
N1704 N 0.53419 0.11516 0.13317 0.0
N1705 N 0.47791 0.17454 0.07033 0.0
H1706 H 0.55463 0.18121 0.07719 0.0
H1707 H 0.52465 0.19352 0.06758 0.0
H1708 H 0.45711 0.17448 0.06915 0.0
H1709 H 0.48696 0.18363 0.05556 0.0
H1710 H 0.52508 0.10167 0.14254 0.0
H1711 H 0.55497 0.11391 0.13278 0.0
H1712 H 0.48759 0.11181 0.15493 0.0
H1713 H 0.45758 0.12091 0.14151 0.0
C1714 C 0.99008 0.86325 0.5821 0.0
C1715 C 0.97605 0.86817 0.60518 0.0
C1716 C 0.01837 0.87078 0.62886 0.0
C1717 C 0.03241 0.86788 0.60536 0.0
N1718 N 0.03228 0.86382 0.55914 0.0
N1719 N 0.97617 0.87873 0.65003 0.0
C1720 C 0.01844 0.86468 0.58183 0.0
C1721 C 0.99002 0.87248 0.62847 0.0
N1722 N 0.97624 0.8569 0.56056 0.0
N1723 N 0.03218 0.87137 0.6516 0.0
H1724 H 0.95535 0.87937 0.65071 0.0
H1725 H 0.98519 0.88468 0.66677 0.0
H1726 H 0.05297 0.87045 0.65256 0.0
H1727 H 0.02311 0.87103 0.66964 0.0
H1728 H 0.98527 0.85065 0.54397 0.0
H1729 H 0.95542 0.8563 0.55983 0.0
H1730 H 0.02324 0.86413 0.54108 0.0
H1731 H 0.05308 0.8644 0.55821 0.0
C1732 C 0.49184 0.85059 0.93083 0.0
C1733 C 0.47788 0.86761 0.91701 0.0
C1734 C 0.52026 0.88499 0.90409 0.0
C1735 C 0.53422 0.86736 0.91688 0.0
N1736 N 0.53403 0.83165 0.9392 0.0
N1737 N 0.47804 0.89899 0.88739 0.0
C1738 C 0.5202 0.84962 0.92931 0.0
C1739 C 0.49189 0.88423 0.9027 0.0
N1740 N 0.47798 0.83579 0.94601 0.0
N1741 N 0.53413 0.90279 0.89391 0.0
H1742 H 0.45723 0.89921 0.88632 0.0
H1743 H 0.48704 0.90991 0.8743 0.0
H1744 H 0.55494 0.90362 0.89389 0.0
H1745 H 0.52513 0.91746 0.887 0.0
H1746 H 0.48699 0.82464 0.95888 0.0
H1747 H 0.45717 0.83561 0.94705 0.0
H1748 H 0.52499 0.81699 0.94603 0.0
H1749 H 0.55483 0.83063 0.93891 0.0
C1750 C 0.02324 0.13347 0.39691 0.0
C1751 C 0.03696 0.14856 0.41354 0.0
C1752 C 0.99438 0.16505 0.42754 0.0
C1753 C 0.98063 0.1487 0.41258 0.0
N1754 N 0.98116 0.11611 0.38472 0.0
N1755 N 0.03634 0.17744 0.44628 0.0
C1756 C 0.99485 0.1326 0.39763 0.0
C1757 C 0.02273 0.16407 0.42924 0.0
N1758 N 0.03742 0.12025 0.38016 0.0
N1759 N 0.98028 0.18172 0.43975 0.0
H1760 H 0.05714 0.17777 0.4474 0.0
H1761 H 0.02717 0.1872 0.46041 0.0
H1762 H 0.95946 0.18259 0.43949 0.0
H1763 H 0.98907 0.1956 0.44867 0.0
H1764 H 0.02873 0.1107 0.36556 0.0
H1765 H 0.05825 0.11996 0.37963 0.0
H1766 H 0.99024 0.10228 0.37594 0.0
H1767 H 0.96035 0.11543 0.38404 0.0
C1768 C 0.02054 0.64898 0.08021 0.0
C1769 C 0.03468 0.65015 0.10387 0.0
C1770 C 0.99246 0.65395 0.1274 0.0
C1771 C 0.97831 0.65036 0.10406 0.0
N1772 N 0.9785 0.64141 0.05871 0.0
N1773 N 0.03457 0.65102 0.15031 0.0
C1774 C 0.99224 0.64712 0.08054 0.0
C1775 C 0.02077 0.65197 0.12759 0.0
N1776 N 0.03416 0.65017 0.05742 0.0
N1777 N 0.97883 0.65979 0.14923 0.0
H1778 H 0.05535 0.64986 0.15121 0.0
H1779 H 0.02542 0.64967 0.16824 0.0
H1780 H 0.95807 0.66131 0.1498 0.0
H1781 H 0.98811 0.66496 0.16619 0.0
H1782 H 0.02484 0.65187 0.03958 0.0
H1783 H 0.05492 0.6514 0.05643 0.0
H1784 H 0.98772 0.63631 0.04171 0.0
H1785 H 0.95774 0.64002 0.0581 0.0
C1786 C 0.51947 0.36902 0.62904 0.0
C1787 C 0.53339 0.36933 0.60525 0.0
C1788 C 0.49096 0.36775 0.58168 0.0
C1789 C 0.47704 0.36965 0.60538 0.0
N1790 N 0.47745 0.37459 0.65148 0.0
N1791 N 0.53297 0.37159 0.55886 0.0
C1792 C 0.49113 0.37089 0.62907 0.0
C1793 C 0.51929 0.36933 0.58152 0.0
N1794 N 0.53336 0.36648 0.65156 0.0
N1795 N 0.47706 0.36394 0.55941 0.0
H1796 H 0.55377 0.37234 0.55792 0.0
H1797 H 0.52377 0.37435 0.54115 0.0
H1798 H 0.45627 0.36293 0.55878 0.0
H1799 H 0.48607 0.35998 0.54191 0.0
H1800 H 0.52432 0.3637 0.66933 0.0
H1801 H 0.55415 0.36538 0.65225 0.0
H1802 H 0.48666 0.37823 0.66897 0.0
H1803 H 0.45667 0.37561 0.6523 0.0
C1804 C 0.02061 0.38378 0.90454 0.0
C1805 C 0.03483 0.36624 0.91724 0.0
C1806 C 0.99257 0.34983 0.93201 0.0
C1807 C 0.97836 0.36617 0.91736 0.0
N1808 N 0.9788 0.3958 0.8854 0.0
N1809 N 0.03444 0.33008 0.93874 0.0
C1810 C 0.99238 0.38231 0.90234 0.0
C1811 C 0.02082 0.34851 0.92972 0.0
N1812 N 0.03392 0.40232 0.89548 0.0
N1813 N 0.97922 0.33615 0.94886 0.0
H1814 H 0.05511 0.32839 0.93715 0.0
H1815 H 0.02503 0.31559 0.9456 0.0
H1816 H 0.95856 0.33676 0.95133 0.0
H1817 H 0.98882 0.32564 0.96205 0.0
H1818 H 0.02426 0.41671 0.88857 0.0
H1819 H 0.05456 0.40426 0.89704 0.0
H1820 H 0.98824 0.40621 0.87203 0.0
H1821 H 0.95813 0.39503 0.88298 0.0
C1822 C 0.5215 0.66496 0.39928 0.0
C1823 C 0.53543 0.65243 0.41835 0.0
C1824 C 0.49302 0.64187 0.43862 0.0
C1825 C 0.47908 0.65243 0.41806 0.0
N1826 N 0.47951 0.67192 0.37727 0.0
N1827 N 0.53496 0.6267 0.45441 0.0
C1828 C 0.49317 0.6635 0.39799 0.0
C1829 C 0.52133 0.64032 0.43762 0.0
N1830 N 0.53538 0.67862 0.38279 0.0
N1831 N 0.47917 0.63379 0.45937 0.0
H1832 H 0.55574 0.62536 0.45456 0.0
H1833 H 0.52569 0.61543 0.46693 0.0
H1834 H 0.4584 0.63447 0.46064 0.0
H1835 H 0.48826 0.62813 0.47623 0.0
H1836 H 0.52631 0.69001 0.37023 0.0
H1837 H 0.55616 0.67992 0.38307 0.0
H1838 H 0.48874 0.6779 0.36066 0.0
H1839 H 0.45873 0.67147 0.37583 0.0
C1840 C 0.28306 0.14855 0.25737 0.0
C1841 C 0.26781 0.13839 0.23743 0.0
C1842 C 0.23144 0.13135 0.26799 0.0
C1843 C 0.24794 0.13906 0.28844 0.0
N1844 N 0.29139 0.15106 0.30324 0.0
N1845 N 0.22957 0.1162 0.22471 0.0
C1846 C 0.27432 0.14658 0.28333 0.0
C1847 C 0.24255 0.12868 0.24299 0.0
N1848 N 0.3054 0.16076 0.25147 0.0
N1849 N 0.20492 0.12732 0.27222 0.0
H1850 H 0.23724 0.11348 0.20629 0.0
H1851 H 0.21247 0.10678 0.22857 0.0
H1852 H 0.19586 0.12952 0.29013 0.0
H1853 H 0.1914 0.12394 0.25745 0.0
H1854 H 0.3157 0.17047 0.26494 0.0
H1855 H 0.31218 0.16297 0.23265 0.0
H1856 H 0.31165 0.15431 0.30064 0.0
H1857 H 0.28592 0.14944 0.32254 0.0
C1858 C 0.2389 0.88092 0.78308 0.0
C1859 C 0.26678 0.87785 0.78664 0.0
C1860 C 0.27343 0.8774 0.7398 0.0
C1861 C 0.24536 0.8787 0.73628 0.0
N1862 N 0.20093 0.8784 0.75414 0.0
N1863 N 0.31028 0.86982 0.76895 0.0
C1864 C 0.22794 0.87954 0.75782 0.0
C1865 C 0.28398 0.87515 0.76513 0.0
N1866 N 0.22304 0.88582 0.80378 0.0
N1867 N 0.29001 0.87898 0.71896 0.0
H1868 H 0.31878 0.86827 0.78722 0.0
H1869 H 0.32321 0.86517 0.75417 0.0
H1870 H 0.283 0.88038 0.70009 0.0
H1871 H 0.31065 0.8807 0.72042 0.0
H1872 H 0.20314 0.89074 0.80217 0.0
H1873 H 0.2303 0.88669 0.8226 0.0
H1874 H 0.18726 0.8764 0.76907 0.0
H1875 H 0.19216 0.87767 0.73592 0.0
C1876 C 0.75489 0.86188 0.77456 0.0
C1877 C 0.74295 0.88174 0.78473 0.0
C1878 C 0.74994 0.90131 0.74359 0.0
C1879 C 0.76377 0.88206 0.73417 0.0
N1880 N 0.78289 0.84518 0.7415 0.0
N1881 N 0.73206 0.92128 0.78063 0.0
C1882 C 0.7672 0.86263 0.74989 0.0
C1883 C 0.74126 0.90174 0.76969 0.0
N1884 N 0.75375 0.84212 0.78821 0.0
N1885 N 0.74453 0.91895 0.72735 0.0
H1886 H 0.7252 0.92215 0.79958 0.0
H1887 H 0.73305 0.937 0.77168 0.0
H1888 H 0.75092 0.91935 0.70823 0.0
H1889 H 0.73203 0.93238 0.73213 0.0
H1890 H 0.75938 0.82651 0.78071 0.0
H1891 H 0.74519 0.84097 0.80648 0.0
H1892 H 0.78868 0.8317 0.75313 0.0
H1893 H 0.79189 0.84496 0.72338 0.0
C1894 C 0.77045 0.11914 0.27107 0.0
C1895 C 0.76683 0.13859 0.2867 0.0
C1896 C 0.7406 0.1567 0.25244 0.0
C1897 C 0.746 0.13801 0.23611 0.0
N1898 N 0.76858 0.10267 0.22826 0.0
N1899 N 0.75167 0.17704 0.29162 0.0
C1900 C 0.76162 0.11953 0.24499 0.0
C1901 C 0.75273 0.1577 0.27722 0.0
N1902 N 0.78174 0.10012 0.2814 0.0
N1903 N 0.72335 0.17323 0.24446 0.0
H1904 H 0.75991 0.17828 0.31003 0.0
H1905 H 0.74439 0.19238 0.2847 0.0
H1906 H 0.71451 0.17329 0.22625 0.0
H1907 H 0.71619 0.18597 0.25644 0.0
H1908 H 0.78236 0.08459 0.272 0.0
H1909 H 0.78882 0.09935 0.30029 0.0
H1910 H 0.78236 0.09004 0.23262 0.0
H1911 H 0.76201 0.10215 0.20919 0.0
C1912 C 0.72675 0.63781 0.26363 0.0
C1913 C 0.74446 0.64144 0.28461 0.0
C1914 C 0.78207 0.64601 0.25472 0.0
C1915 C 0.76463 0.64117 0.23383 0.0
N1916 N 0.72116 0.63078 0.21781 0.0
N1917 N 0.78897 0.64715 0.30106 0.0
C1918 C 0.73715 0.63664 0.23813 0.0
C1919 C 0.77214 0.64508 0.2804 0.0
N1920 N 0.69993 0.6358 0.26816 0.0
N1921 N 0.80805 0.65177 0.24989 0.0
H1922 H 0.78227 0.6476 0.32008 0.0
H1923 H 0.80969 0.6472 0.29968 0.0
H1924 H 0.81638 0.65157 0.23148 0.0
H1925 H 0.82111 0.658 0.26376 0.0
H1926 H 0.68547 0.63566 0.25377 0.0
H1927 H 0.69174 0.63551 0.28663 0.0
H1928 H 0.70178 0.6247 0.21972 0.0
H1929 H 0.72773 0.63085 0.19875 0.0
C1930 C 0.72796 0.38469 0.75659 0.0
C1931 C 0.74547 0.38168 0.73537 0.0
C1932 C 0.78336 0.37686 0.76488 0.0
C1933 C 0.7662 0.38156 0.78597 0.0
N1934 N 0.72313 0.39295 0.80215 0.0
N1935 N 0.79016 0.37807 0.71861 0.0
C1936 C 0.73873 0.38631 0.78189 0.0
C1937 C 0.77329 0.37863 0.73932 0.0
N1938 N 0.70096 0.38535 0.75257 0.0
N1939 N 0.80909 0.37013 0.76936 0.0
H1940 H 0.78346 0.37899 0.6996 0.0
H1941 H 0.81088 0.37842 0.7202 0.0
H1942 H 0.8173 0.36903 0.7878 0.0
H1943 H 0.82175 0.36401 0.75506 0.0
H1944 H 0.68695 0.38497 0.76736 0.0
H1945 H 0.69237 0.38455 0.73427 0.0
H1946 H 0.70376 0.39909 0.80009 0.0
H1947 H 0.73022 0.39392 0.82102 0.0
C1948 C 0.26976 0.39997 0.75038 0.0
C1949 C 0.26598 0.3808 0.73434 0.0
C1950 C 0.24022 0.36204 0.76839 0.0
C1951 C 0.24539 0.38062 0.78497 0.0
N1952 N 0.2674 0.41607 0.79337 0.0
N1953 N 0.25075 0.34251 0.72852 0.0
C1954 C 0.26084 0.39927 0.77641 0.0
C1955 C 0.25206 0.36152 0.74347 0.0
N1956 N 0.28134 0.41902 0.74047 0.0
N1957 N 0.22351 0.34514 0.77633 0.0
H1958 H 0.25853 0.34172 0.7099 0.0
H1959 H 0.24361 0.32702 0.73504 0.0
H1960 H 0.21521 0.34454 0.79474 0.0
H1961 H 0.21639 0.33246 0.76425 0.0
H1962 H 0.28208 0.43443 0.7501 0.0
H1963 H 0.28873 0.41992 0.72171 0.0
H1964 H 0.28102 0.42886 0.78933 0.0
H1965 H 0.26054 0.41645 0.81234 0.0
C1966 C 0.25091 0.65767 0.27506 0.0
C1967 C 0.26639 0.63919 0.28412 0.0
C1968 C 0.26277 0.62065 0.24196 0.0
C1969 C 0.24591 0.63844 0.23343 0.0
N1970 N 0.22091 0.67241 0.24231 0.0
N1971 N 0.28449 0.60182 0.27792 0.0
C1972 C 0.23912 0.65656 0.25013 0.0
C1973 C 0.27161 0.62029 0.26803 0.0
N1974 N 0.24807 0.67652 0.29008 0.0
N1975 N 0.27081 0.60438 0.22491 0.0
H1976 H 0.29172 0.60117 0.29675 0.0
H1977 H 0.28641 0.58652 0.2682 0.0
H1978 H 0.2642 0.60379 0.20585 0.0
H1979 H 0.2854 0.59235 0.22898 0.0
H1980 H 0.23969 0.69159 0.28358 0.0
H1981 H 0.25576 0.67768 0.30872 0.0
H1982 H 0.21275 0.68457 0.25448 0.0
H1983 H 0.21244 0.67251 0.22394 0.0
loop_
_geom_bond_atom_site_label_1
_geom_bond_atom_site_label_2
_geom_bond_distance
_geom_bond_site_symmetry_2
_ccdc_geom_bond_type
Li0 N17 1.990 . S
Li0 O60 1.956 . S
Li0 O61 1.970 . S
Li0 O62 1.961 . S
Li1 N25 1.990 . S
Li1 O60 1.970 . S
Li1 O61 1.956 . S
Li1 O63 1.961 . S
Li2 N47 1.990 . S
Li2 O60 1.961 . S
Li2 O62 1.956 . S
Li2 O63 1.970 . S
Li3 N53 1.990 . S
Li3 O61 1.961 . S
Li3 O62 1.970 . S
Li3 O63 1.956 . S
C4 C6 1.348 . S
C4 C7 1.356 . S
C4 O60 1.325 . S
N5 C8 1.314 1_556 S
N5 C9 1.279 . S
C6 C4 1.348 . S
C6 C8 1.353 . S
C6 H64 0.929 . S
C7 C4 1.356 . S
C7 C9 1.358 1_554 S
C7 H65 0.930 . S
C8 N5 1.314 1_554 S
C8 C6 1.353 . S
C8 H66 0.930 . S
C9 N5 1.279 . S
C9 C7 1.358 1_556 S
C9 H67 0.930 . S
C10 C13 1.348 . S
C10 C14 1.356 . S
C10 O61 1.325 . S
C11 N12 1.279 . S
C11 C14 1.358 . S
C11 H68 0.930 . S
N12 C11 1.279 . S
N12 C15 1.314 . S
C13 C10 1.348 . S
C13 C15 1.353 . S
C13 H69 0.929 . S
C14 C10 1.356 . S
C14 C11 1.358 . S
C14 H70 0.930 . S
C15 N12 1.314 . S
C15 C13 1.353 . S
C15 H71 0.930 . S
C16 N17 1.314 . S
C16 C21 1.353 . S
C16 H22 0.930 . S
N17 Li0 1.990 . S
N17 C16 1.314 . S
N17 C19 1.279 . S
C18 C19 1.358 . S
C18 C20 1.356 . S
C18 H72 0.930 . S
C19 N17 1.279 . S
C19 C18 1.358 . S
C19 H23 0.930 . S
C20 C18 1.356 . S
C20 C21 1.348 . S
C21 C16 1.353 . S
C21 C20 1.348 . S
C21 H73 0.929 . S
H22 C16 0.930 . S
H23 C19 0.930 . S
C24 N25 1.314 . S
C24 C26 1.353 . S
C24 H30 0.930 . S
N25 Li1 1.990 . S
N25 C24 1.314 . S
N25 C28 1.279 . S
C26 C24 1.353 . S
C26 C29 1.348 . S
C26 H74 0.929 . S
C27 C28 1.358 . S
C27 C29 1.356 . S
C27 H75 0.930 . S
C28 N25 1.279 . S
C28 C27 1.358 . S
C28 H31 0.930 . S
C29 C26 1.348 . S
C29 C27 1.356 . S
H30 C24 0.930 . S
H31 C28 0.930 . S
C32 C34 1.348 . S
C32 C35 1.356 . S
C32 O62 1.325 . S
N33 C36 1.314 . S
N33 C37 1.279 . S
C34 C32 1.348 . S
C34 C36 1.353 . S
C34 H76 0.929 . S
C35 C32 1.356 . S
C35 C37 1.358 . S
C35 H77 0.930 . S
C36 N33 1.314 . S
C36 C34 1.353 . S
C36 H78 0.930 . S
C37 N33 1.279 . S
C37 C35 1.358 . S
C37 H79 0.930 . S
C38 C39 1.348 . S
C38 C40 1.356 . S
C38 O63 1.325 . S
C39 C38 1.348 . S
C39 C41 1.353 . S
C39 H80 0.929 . S
C40 C38 1.356 . S
C40 C42 1.358 . S
C40 H81 0.930 . S
C41 C39 1.353 . S
C41 N43 1.314 . S
C41 H82 0.930 . S
C42 C40 1.358 . S
C42 N43 1.279 . S
C42 H83 0.930 . S
N43 C41 1.314 . S
N43 C42 1.279 . S
C44 C46 1.353 . S
C44 N47 1.314 . S
C44 H50 0.930 . S
C45 N47 1.279 . S
C45 C48 1.358 . S
C45 H51 0.930 . S
C46 C44 1.353 . S
C46 C49 1.348 . S
C46 H84 0.929 . S
N47 Li2 1.990 . S
N47 C44 1.314 . S
N47 C45 1.279 . S
C48 C45 1.358 . S
C48 C49 1.356 . S
C48 H85 0.930 . S
C49 C46 1.348 . S
C49 C48 1.356 . S
H50 C44 0.930 . S
H51 C45 0.930 . S
C52 N53 1.314 . S
C52 C54 1.353 . S
C52 H58 0.930 . S
N53 Li3 1.990 . S
N53 C52 1.314 . S
N53 C56 1.279 . S
C54 C52 1.353 . S
C54 C57 1.348 . S
C54 H86 0.929 . S
C55 C56 1.358 . S
C55 C57 1.356 . S
C55 H87 0.930 . S
C56 N53 1.279 . S
C56 C55 1.358 . S
C56 H59 0.930 . S
C57 C54 1.348 . S
C57 C55 1.356 . S
H58 C52 0.930 . S
H59 C56 0.930 . S
O60 Li0 1.956 . S
O60 Li1 1.970 . S
O60 Li2 1.961 . S
O60 C4 1.325 . S
O61 Li0 1.970 . S
O61 Li1 1.956 . S
O61 Li3 1.961 . S
O61 C10 1.325 . S
O62 Li0 1.961 . S
O62 Li2 1.956 . S
O62 Li3 1.970 . S
O62 C32 1.325 . S
O63 Li1 1.961 . S
O63 Li2 1.970 . S
O63 Li3 1.956 . S
O63 C38 1.325 . S
H64 C6 0.929 . S
H65 C7 0.930 . S
H66 C8 0.930 . S
H67 C9 0.930 . S
H68 C11 0.930 . S
H69 C13 0.929 . S
H70 C14 0.930 . S
H71 C15 0.930 . S
H72 C18 0.930 . S
H73 C21 0.929 . S
H74 C26 0.929 . S
H75 C27 0.930 . S
H76 C34 0.929 . S
H77 C35 0.930 . S
H78 C36 0.930 . S
H79 C37 0.930 . S
H80 C39 0.929 . S
H81 C40 0.930 . S
H82 C41 0.930 . S
H83 C42 0.930 . S
H84 C46 0.929 . S
H85 C48 0.930 . S
H86 C54 0.929 . S
H87 C55 0.930 . S
Li88 N105 1.990 . S
Li88 O148 1.956 . S
Li88 O149 1.970 . S
Li88 O150 1.961 . S
Li89 N113 1.990 . S
Li89 O148 1.970 . S
Li89 O149 1.956 . S
Li89 O151 1.961 . S
Li90 N135 1.990 . S
Li90 O148 1.961 . S
Li90 O150 1.956 . S
Li90 O151 1.970 . S
Li91 N141 1.990 . S
Li91 O149 1.961 . S
Li91 O150 1.970 . S
Li91 O151 1.956 . S
C92 C94 1.348 . S
C92 C95 1.356 . S
C92 O148 1.325 . S
N93 C96 1.314 . S
N93 C97 1.279 . S
C94 C92 1.348 . S
C94 C96 1.353 . S
C94 H152 0.929 . S
C95 C92 1.356 . S
C95 C97 1.358 . S
C95 H153 0.930 . S
C96 N93 1.314 . S
C96 C94 1.353 . S
C96 H154 0.930 . S
C97 N93 1.279 . S
C97 C95 1.358 . S
C97 H155 0.930 . S
C98 C101 1.348 . S
C98 C102 1.356 . S
C98 O149 1.325 . S
C99 N100 1.279 . S
C99 C102 1.358 . S
C99 H156 0.930 . S
N100 C99 1.279 . S
N100 C103 1.314 . S
C101 C98 1.348 . S
C101 C103 1.353 . S
C101 H157 0.929 . S
C102 C98 1.356 . S
C102 C99 1.358 . S
C102 H158 0.930 . S
C103 N100 1.314 . S
C103 C101 1.353 . S
C103 H159 0.930 . S
C104 N105 1.314 . S
C104 C109 1.353 . S
C104 H110 0.930 . S
N105 Li88 1.990 . S
N105 C104 1.314 . S
N105 C107 1.279 . S
C106 C107 1.358 . S
C106 C108 1.356 . S
C106 H160 0.930 . S
C107 N105 1.279 . S
C107 C106 1.358 . S
C107 H111 0.930 . S
C108 C106 1.356 . S
C108 C109 1.348 . S
C109 C104 1.353 . S
C109 C108 1.348 . S
C109 H161 0.929 . S
H110 C104 0.930 . S
H111 C107 0.930 . S
C112 N113 1.314 . S
C112 C114 1.353 . S
C112 H118 0.930 . S
N113 Li89 1.990 . S
N113 C112 1.314 . S
N113 C116 1.279 . S
C114 C112 1.353 . S
C114 C117 1.348 . S
C114 H162 0.929 . S
C115 C116 1.358 . S
C115 C117 1.356 . S
C115 H163 0.930 . S
C116 N113 1.279 . S
C116 C115 1.358 . S
C116 H119 0.930 . S
C117 C114 1.348 . S
C117 C115 1.356 . S
H118 C112 0.930 . S
H119 C116 0.930 . S
C120 C122 1.348 . S
C120 C123 1.356 . S
C120 O150 1.325 . S
N121 C124 1.314 . S
N121 C125 1.279 . S
C122 C120 1.348 . S
C122 C124 1.353 . S
C122 H164 0.929 . S
C123 C120 1.356 . S
C123 C125 1.358 . S
C123 H165 0.930 . S
C124 N121 1.314 . S
C124 C122 1.353 . S
C124 H166 0.930 . S
C125 N121 1.279 . S
C125 C123 1.358 . S
C125 H167 0.930 . S
C126 C127 1.348 . S
C126 C128 1.356 . S
C126 O151 1.325 . S
C127 C126 1.348 . S
C127 C129 1.353 . S
C127 H168 0.929 . S
C128 C126 1.356 . S
C128 C130 1.358 . S
C128 H169 0.930 . S
C129 C127 1.353 . S
C129 N131 1.314 . S
C129 H170 0.930 . S
C130 C128 1.358 . S
C130 N131 1.279 . S
C130 H171 0.930 . S
N131 C129 1.314 . S
N131 C130 1.279 . S
C132 C134 1.353 . S
C132 N135 1.314 . S
C132 H138 0.930 . S
C133 N135 1.279 . S
C133 C136 1.358 . S
C133 H139 0.930 . S
C134 C132 1.353 . S
C134 C137 1.348 . S
C134 H172 0.929 . S
N135 Li90 1.990 . S
N135 C132 1.314 . S
N135 C133 1.279 . S
C136 C133 1.358 . S
C136 C137 1.356 . S
C136 H173 0.930 . S
C137 C134 1.348 . S
C137 C136 1.356 . S
H138 C132 0.930 . S
H139 C133 0.930 . S
C140 N141 1.314 . S
C140 C142 1.353 . S
C140 H146 0.930 . S
N141 Li91 1.990 . S
N141 C140 1.314 . S
N141 C144 1.279 . S
C142 C140 1.353 . S
C142 C145 1.348 . S
C142 H174 0.929 . S
C143 C144 1.358 . S
C143 C145 1.356 . S
C143 H175 0.930 . S
C144 N141 1.279 . S
C144 C143 1.358 . S
C144 H147 0.930 . S
C145 C142 1.348 . S
C145 C143 1.356 . S
H146 C140 0.930 . S
H147 C144 0.930 . S
O148 Li88 1.956 . S
O148 Li89 1.970 . S
O148 Li90 1.961 . S
O148 C92 1.325 . S
O149 Li88 1.970 . S
O149 Li89 1.956 . S
O149 Li91 1.961 . S
O149 C98 1.325 . S
O150 Li88 1.961 . S
O150 Li90 1.956 . S
O150 Li91 1.970 . S
O150 C120 1.325 . S
O151 Li89 1.961 . S
O151 Li90 1.970 . S
O151 Li91 1.956 . S
O151 C126 1.325 . S
H152 C94 0.929 . S
H153 C95 0.930 . S
H154 C96 0.930 . S
H155 C97 0.930 . S
H156 C99 0.930 . S
H157 C101 0.929 . S
H158 C102 0.930 . S
H159 C103 0.930 . S
H160 C106 0.930 . S
H161 C109 0.929 . S
H162 C114 0.929 . S
H163 C115 0.930 . S
H164 C122 0.929 . S
H165 C123 0.930 . S
H166 C124 0.930 . S
H167 C125 0.930 . S
H168 C127 0.929 . S
H169 C128 0.930 . S
H170 C129 0.930 . S
H171 C130 0.930 . S
H172 C134 0.929 . S
H173 C136 0.930 . S
H174 C142 0.929 . S
H175 C143 0.930 . S
Li176 N193 1.990 . S
Li176 O236 1.956 . S
Li176 O237 1.970 . S
Li176 O238 1.961 . S
Li177 N201 1.990 . S
Li177 O236 1.970 . S
Li177 O237 1.956 . S
Li177 O239 1.961 . S
Li178 N223 1.990 . S
Li178 O236 1.961 . S
Li178 O238 1.956 . S
Li178 O239 1.970 . S
Li179 N229 1.990 . S
Li179 O237 1.961 . S
Li179 O238 1.970 . S
Li179 O239 1.956 . S
C180 C182 1.348 . S
C180 C183 1.356 . S
C180 O236 1.325 . S
N181 C184 1.314 . S
N181 C185 1.279 . S
C182 C180 1.348 . S
C182 C184 1.353 . S
C182 H240 0.929 . S
C183 C180 1.356 . S
C183 C185 1.358 . S
C183 H241 0.930 . S
C184 N181 1.314 . S
C184 C182 1.353 . S
C184 H242 0.930 . S
C185 N181 1.279 . S
C185 C183 1.358 . S
C185 H243 0.930 . S
C186 C189 1.348 . S
C186 C190 1.356 . S
C186 O237 1.325 . S
C187 N188 1.279 . S
C187 C190 1.358 . S
C187 H244 0.930 . S
N188 C187 1.279 . S
N188 C191 1.314 . S
C189 C186 1.348 . S
C189 C191 1.353 . S
C189 H245 0.929 . S
C190 C186 1.356 . S
C190 C187 1.358 . S
C190 H246 0.930 . S
C191 N188 1.314 . S
C191 C189 1.353 . S
C191 H247 0.930 . S
C192 N193 1.314 . S
C192 C197 1.353 . S
C192 H198 0.930 . S
N193 Li176 1.990 . S
N193 C192 1.314 . S
N193 C195 1.279 . S
C194 C195 1.358 . S
C194 C196 1.356 . S
C194 H248 0.930 . S
C195 N193 1.279 . S
C195 C194 1.358 . S
C195 H199 0.930 . S
C196 C194 1.356 . S
C196 C197 1.348 . S
C197 C192 1.353 . S
C197 C196 1.348 . S
C197 H249 0.929 . S
H198 C192 0.930 . S
H199 C195 0.930 . S
C200 N201 1.314 . S
C200 C202 1.353 . S
C200 H206 0.930 . S
N201 Li177 1.990 . S
N201 C200 1.314 . S
N201 C204 1.279 . S
C202 C200 1.353 . S
C202 C205 1.348 . S
C202 H250 0.929 . S
C203 C204 1.358 . S
C203 C205 1.356 . S
C203 H251 0.930 . S
C204 N201 1.279 . S
C204 C203 1.358 . S
C204 H207 0.930 . S
C205 C202 1.348 . S
C205 C203 1.356 . S
H206 C200 0.930 . S
H207 C204 0.930 . S
C208 C210 1.348 . S
C208 C211 1.356 . S
C208 O238 1.325 . S
N209 C212 1.314 . S
N209 C213 1.279 . S
C210 C208 1.348 . S
C210 C212 1.353 . S
C210 H252 0.929 . S
C211 C208 1.356 . S
C211 C213 1.358 . S
C211 H253 0.930 . S
C212 N209 1.314 . S
C212 C210 1.353 . S
C212 H254 0.930 . S
C213 N209 1.279 . S
C213 C211 1.358 . S
C213 H255 0.930 . S
C214 C215 1.348 . S
C214 C216 1.356 . S
C214 O239 1.325 . S
C215 C214 1.348 . S
C215 C217 1.353 . S
C215 H256 0.929 . S
C216 C214 1.356 . S
C216 C218 1.358 1_556 S
C216 H257 0.930 . S
C217 C215 1.353 . S
C217 N219 1.314 1_556 S
C217 H258 0.930 . S
C218 C216 1.358 1_554 S
C218 N219 1.279 . S
C218 H259 0.930 . S
N219 C217 1.314 1_554 S
N219 C218 1.279 . S
C220 C222 1.353 . S
C220 N223 1.314 . S
C220 H226 0.930 . S
C221 N223 1.279 . S
C221 C224 1.358 . S
C221 H227 0.930 . S
C222 C220 1.353 . S
C222 C225 1.348 . S
C222 H260 0.929 . S
N223 Li178 1.990 . S
N223 C220 1.314 . S
N223 C221 1.279 . S
C224 C221 1.358 . S
C224 C225 1.356 . S
C224 H261 0.930 . S
C225 C222 1.348 . S
C225 C224 1.356 . S
H226 C220 0.930 . S
H227 C221 0.930 . S
C228 N229 1.314 . S
C228 C230 1.353 . S
C228 H234 0.930 . S
N229 Li179 1.990 . S
N229 C228 1.314 . S
N229 C232 1.279 . S
C230 C228 1.353 . S
C230 C233 1.348 . S
C230 H262 0.929 . S
C231 C232 1.358 . S
C231 C233 1.356 . S
C231 H263 0.930 . S
C232 N229 1.279 . S
C232 C231 1.358 . S
C232 H235 0.930 . S
C233 C230 1.348 . S
C233 C231 1.356 . S
H234 C228 0.930 . S
H235 C232 0.930 . S
O236 Li176 1.956 . S
O236 Li177 1.970 . S
O236 Li178 1.961 . S
O236 C180 1.325 . S
O237 Li176 1.970 . S
O237 Li177 1.956 . S
O237 Li179 1.961 . S
O237 C186 1.325 . S
O238 Li176 1.961 . S
O238 Li178 1.956 . S
O238 Li179 1.970 . S
O238 C208 1.325 . S
O239 Li177 1.961 . S
O239 Li178 1.970 . S
O239 Li179 1.956 . S
O239 C214 1.325 . S
H240 C182 0.929 . S
H241 C183 0.930 . S
H242 C184 0.930 . S
H243 C185 0.930 . S
H244 C187 0.930 . S
H245 C189 0.929 . S
H246 C190 0.930 . S
H247 C191 0.930 . S
H248 C194 0.930 . S
H249 C197 0.929 . S
H250 C202 0.929 . S
H251 C203 0.930 . S
H252 C210 0.929 . S
H253 C211 0.930 . S
H254 C212 0.930 . S
H255 C213 0.930 . S
H256 C215 0.929 . S
H257 C216 0.930 . S
H258 C217 0.930 . S
H259 C218 0.930 . S
H260 C222 0.929 . S
H261 C224 0.930 . S
H262 C230 0.929 . S
H263 C231 0.930 . S
Li264 N281 1.990 . S
Li264 O324 1.956 . S
Li264 O325 1.970 . S
Li264 O326 1.961 . S
Li265 N289 1.990 . S
Li265 O324 1.970 . S
Li265 O325 1.956 . S
Li265 O327 1.961 . S
Li266 N311 1.990 . S
Li266 O324 1.961 . S
Li266 O326 1.956 . S
Li266 O327 1.970 . S
Li267 N317 1.990 . S
Li267 O325 1.961 . S
Li267 O326 1.970 . S
Li267 O327 1.956 . S
C268 C270 1.348 . S
C268 C271 1.356 . S
C268 O324 1.325 . S
N269 C272 1.314 . S
N269 C273 1.279 . S
C270 C268 1.348 . S
C270 C272 1.353 . S
C270 H328 0.929 . S
C271 C268 1.356 . S
C271 C273 1.358 . S
C271 H329 0.930 . S
C272 N269 1.314 . S
C272 C270 1.353 . S
C272 H330 0.930 . S
C273 N269 1.279 . S
C273 C271 1.358 . S
C273 H331 0.930 . S
C274 C277 1.348 . S
C274 C278 1.356 . S
C274 O325 1.325 . S
C275 N276 1.279 . S
C275 C278 1.358 . S
C275 H332 0.930 . S
N276 C275 1.279 . S
N276 C279 1.314 . S
C277 C274 1.348 . S
C277 C279 1.353 . S
C277 H333 0.929 . S
C278 C274 1.356 . S
C278 C275 1.358 . S
C278 H334 0.930 . S
C279 N276 1.314 . S
C279 C277 1.353 . S
C279 H335 0.930 . S
C280 N281 1.314 . S
C280 C285 1.353 . S
C280 H286 0.930 . S
N281 Li264 1.990 . S
N281 C280 1.314 . S
N281 C283 1.279 . S
C282 C283 1.358 . S
C282 C284 1.356 . S
C282 H336 0.930 . S
C283 N281 1.279 . S
C283 C282 1.358 . S
C283 H287 0.930 . S
C284 C282 1.356 . S
C284 C285 1.348 . S
C285 C280 1.353 . S
C285 C284 1.348 . S
C285 H337 0.929 . S
H286 C280 0.930 . S
H287 C283 0.930 . S
C288 N289 1.314 . S
C288 C290 1.353 . S
C288 H294 0.930 . S
N289 Li265 1.990 . S
N289 C288 1.314 . S
N289 C292 1.279 . S
C290 C288 1.353 . S
C290 C293 1.348 . S
C290 H338 0.929 . S
C291 C292 1.358 . S
C291 C293 1.356 . S
C291 H339 0.930 . S
C292 N289 1.279 . S
C292 C291 1.358 . S
C292 H295 0.930 . S
C293 C290 1.348 . S
C293 C291 1.356 . S
H294 C288 0.930 . S
H295 C292 0.930 . S
C296 C298 1.348 . S
C296 C299 1.356 . S
C296 O326 1.325 . S
N297 C300 1.314 . S
N297 C301 1.279 . S
C298 C296 1.348 . S
C298 C300 1.353 . S
C298 H340 0.929 . S
C299 C296 1.356 . S
C299 C301 1.358 . S
C299 H341 0.930 . S
C300 N297 1.314 . S
C300 C298 1.353 . S
C300 H342 0.930 . S
C301 N297 1.279 . S
C301 C299 1.358 . S
C301 H343 0.930 . S
C302 C303 1.348 . S
C302 C304 1.356 . S
C302 O327 1.325 . S
C303 C302 1.348 . S
C303 C305 1.353 . S
C303 H344 0.929 . S
C304 C302 1.356 . S
C304 C306 1.358 . S
C304 H345 0.930 . S
C305 C303 1.353 . S
C305 N307 1.314 . S
C305 H346 0.930 . S
C306 C304 1.358 . S
C306 N307 1.279 . S
C306 H347 0.930 . S
N307 C305 1.314 . S
N307 C306 1.279 . S
C308 C310 1.353 . S
C308 N311 1.314 . S
C308 H314 0.930 . S
C309 N311 1.279 . S
C309 C312 1.358 . S
C309 H315 0.930 . S
C310 C308 1.353 . S
C310 C313 1.348 . S
C310 H348 0.929 . S
N311 Li266 1.990 . S
N311 C308 1.314 . S
N311 C309 1.279 . S
C312 C309 1.358 . S
C312 C313 1.356 . S
C312 H349 0.930 . S
C313 C310 1.348 . S
C313 C312 1.356 . S
H314 C308 0.930 . S
H315 C309 0.930 . S
C316 N317 1.314 . S
C316 C318 1.353 . S
C316 H322 0.930 . S
N317 Li267 1.990 . S
N317 C316 1.314 . S
N317 C320 1.279 . S
C318 C316 1.353 . S
C318 C321 1.348 . S
C318 H350 0.929 . S
C319 C320 1.358 . S
C319 C321 1.356 . S
C319 H351 0.930 . S
C320 N317 1.279 . S
C320 C319 1.358 . S
C320 H323 0.930 . S
C321 C318 1.348 . S
C321 C319 1.356 . S
H322 C316 0.930 . S
H323 C320 0.930 . S
O324 Li264 1.956 . S
O324 Li265 1.970 . S
O324 Li266 1.961 . S
O324 C268 1.325 . S
O325 Li264 1.970 . S
O325 Li265 1.956 . S
O325 Li267 1.961 . S
O325 C274 1.325 . S
O326 Li264 1.961 . S
O326 Li266 1.956 . S
O326 Li267 1.970 . S
O326 C296 1.325 . S
O327 Li265 1.961 . S
O327 Li266 1.970 . S
O327 Li267 1.956 . S
O327 C302 1.325 . S
H328 C270 0.929 . S
H329 C271 0.930 . S
H330 C272 0.930 . S
H331 C273 0.930 . S
H332 C275 0.930 . S
H333 C277 0.929 . S
H334 C278 0.930 . S
H335 C279 0.930 . S
H336 C282 0.930 . S
H337 C285 0.929 . S
H338 C290 0.929 . S
H339 C291 0.930 . S
H340 C298 0.929 . S
H341 C299 0.930 . S
H342 C300 0.930 . S
H343 C301 0.930 . S
H344 C303 0.929 . S
H345 C304 0.930 . S
H346 C305 0.930 . S
H347 C306 0.930 . S
H348 C310 0.929 . S
H349 C312 0.930 . S
H350 C318 0.929 . S
H351 C319 0.930 . S
Li352 N369 1.990 . S
Li352 O412 1.956 . S
Li352 O413 1.970 . S
Li352 O414 1.961 . S
Li353 N377 1.990 . S
Li353 O412 1.970 . S
Li353 O413 1.956 . S
Li353 O415 1.961 . S
Li354 N399 1.990 . S
Li354 O412 1.961 . S
Li354 O414 1.956 . S
Li354 O415 1.970 . S
Li355 N405 1.990 . S
Li355 O413 1.961 . S
Li355 O414 1.970 . S
Li355 O415 1.956 . S
C356 C358 1.348 . S
C356 C359 1.356 . S
C356 O412 1.325 . S
N357 C360 1.314 . S
N357 C361 1.279 . S
C358 C356 1.348 . S
C358 C360 1.353 . S
C358 H416 0.929 . S
C359 C356 1.356 . S
C359 C361 1.358 . S
C359 H417 0.930 . S
C360 N357 1.314 . S
C360 C358 1.353 . S
C360 H418 0.930 . S
C361 N357 1.279 . S
C361 C359 1.358 . S
C361 H419 0.930 . S
C362 C365 1.348 . S
C362 C366 1.356 . S
C362 O413 1.325 . S
C363 N364 1.279 1_556 S
C363 C366 1.358 . S
C363 H420 0.930 . S
N364 C363 1.279 1_554 S
N364 C367 1.314 . S
C365 C362 1.348 . S
C365 C367 1.353 1_556 S
C365 H421 0.929 . S
C366 C362 1.356 . S
C366 C363 1.358 . S
C366 H422 0.930 . S
C367 N364 1.314 . S
C367 C365 1.353 1_554 S
C367 H423 0.930 . S
C368 N369 1.314 . S
C368 C373 1.353 . S
C368 H374 0.930 . S
N369 Li352 1.990 . S
N369 C368 1.314 . S
N369 C371 1.279 . S
C370 C371 1.358 . S
C370 C372 1.356 . S
C370 H424 0.930 . S
C371 N369 1.279 . S
C371 C370 1.358 . S
C371 H375 0.930 . S
C372 C370 1.356 . S
C372 C373 1.348 . S
C373 C368 1.353 . S
C373 C372 1.348 . S
C373 H425 0.929 . S
H374 C368 0.930 . S
H375 C371 0.930 . S
C376 N377 1.314 . S
C376 C378 1.353 . S
C376 H382 0.930 . S
N377 Li353 1.990 . S
N377 C376 1.314 . S
N377 C380 1.279 . S
C378 C376 1.353 . S
C378 C381 1.348 . S
C378 H426 0.929 . S
C379 C380 1.358 . S
C379 C381 1.356 . S
C379 H427 0.930 1_556 S
C380 N377 1.279 . S
C380 C379 1.358 . S
C380 H383 0.930 . S
C381 C378 1.348 . S
C381 C379 1.356 . S
H382 C376 0.930 . S
H383 C380 0.930 . S
C384 C386 1.348 . S
C384 C387 1.356 . S
C384 O414 1.325 . S
N385 C388 1.314 . S
N385 C389 1.279 . S
C386 C384 1.348 . S
C386 C388 1.353 . S
C386 H428 0.929 . S
C387 C384 1.356 . S
C387 C389 1.358 . S
C387 H429 0.930 . S
C388 N385 1.314 . S
C388 C386 1.353 . S
C388 H430 0.930 . S
C389 N385 1.279 . S
C389 C387 1.358 . S
C389 H431 0.930 . S
C390 C391 1.348 . S
C390 C392 1.356 . S
C390 O415 1.325 . S
C391 C390 1.348 . S
C391 C393 1.353 . S
C391 H432 0.929 . S
C392 C390 1.356 . S
C392 C394 1.358 . S
C392 H433 0.930 . S
C393 C391 1.353 . S
C393 N395 1.314 . S
C393 H434 0.930 . S
C394 C392 1.358 . S
C394 N395 1.279 . S
C394 H435 0.930 . S
N395 C393 1.314 . S
N395 C394 1.279 . S
C396 C398 1.353 . S
C396 N399 1.314 . S
C396 H402 0.930 . S
C397 N399 1.279 . S
C397 C400 1.358 . S
C397 H403 0.930 . S
C398 C396 1.353 . S
C398 C401 1.348 . S
C398 H436 0.929 . S
N399 Li354 1.990 . S
N399 C396 1.314 . S
N399 C397 1.279 . S
C400 C397 1.358 . S
C400 C401 1.356 . S
C400 H437 0.930 . S
C401 C398 1.348 . S
C401 C400 1.356 . S
H402 C396 0.930 . S
H403 C397 0.930 . S
C404 N405 1.314 . S
C404 C406 1.353 . S
C404 H410 0.930 . S
N405 Li355 1.990 . S
N405 C404 1.314 . S
N405 C408 1.279 . S
C406 C404 1.353 . S
C406 C409 1.348 . S
C406 H438 0.929 . S
C407 C408 1.358 . S
C407 C409 1.356 . S
C407 H439 0.930 . S
C408 N405 1.279 . S
C408 C407 1.358 . S
C408 H411 0.930 . S
C409 C406 1.348 . S
C409 C407 1.356 . S
H410 C404 0.930 . S
H411 C408 0.930 . S
O412 Li352 1.956 . S
O412 Li353 1.970 . S
O412 Li354 1.961 . S
O412 C356 1.325 . S
O413 Li352 1.970 . S
O413 Li353 1.956 . S
O413 Li355 1.961 . S
O413 C362 1.325 . S
O414 Li352 1.961 . S
O414 Li354 1.956 . S
O414 Li355 1.970 . S
O414 C384 1.325 . S
O415 Li353 1.961 . S
O415 Li354 1.970 . S
O415 Li355 1.956 . S
O415 C390 1.325 . S
H416 C358 0.929 . S
H417 C359 0.930 . S
H418 C360 0.930 . S
H419 C361 0.930 . S
H420 C363 0.930 . S
H421 C365 0.929 . S
H422 C366 0.930 . S
H423 C367 0.930 . S
H424 C370 0.930 . S
H425 C373 0.929 . S
H426 C378 0.929 . S
H427 C379 0.930 1_554 S
H428 C386 0.929 . S
H429 C387 0.930 . S
H430 C388 0.930 . S
H431 C389 0.930 . S
H432 C391 0.929 . S
H433 C392 0.930 . S
H434 C393 0.930 . S
H435 C394 0.930 . S
H436 C398 0.929 . S
H437 C400 0.930 . S
H438 C406 0.929 . S
H439 C407 0.930 . S
Li440 N457 1.990 . S
Li440 O500 1.956 . S
Li440 O501 1.970 . S
Li440 O502 1.961 . S
Li441 N465 1.990 . S
Li441 O500 1.970 . S
Li441 O501 1.956 . S
Li441 O503 1.961 . S
Li442 N487 1.990 . S
Li442 O500 1.961 . S
Li442 O502 1.956 . S
Li442 O503 1.970 . S
Li443 N493 1.990 . S
Li443 O501 1.961 . S
Li443 O502 1.970 . S
Li443 O503 1.956 . S
C444 C446 1.348 . S
C444 C447 1.356 . S
C444 O500 1.325 . S
N445 C448 1.314 . S
N445 C449 1.279 . S
C446 C444 1.348 . S
C446 C448 1.353 . S
C446 H504 0.929 . S
C447 C444 1.356 . S
C447 C449 1.358 . S
C447 H505 0.930 . S
C448 N445 1.314 . S
C448 C446 1.353 . S
C448 H506 0.930 . S
C449 N445 1.279 . S
C449 C447 1.358 . S
C449 H507 0.930 . S
C450 C453 1.348 . S
C450 C454 1.356 . S
C450 O501 1.325 . S
C451 N452 1.279 . S
C451 C454 1.358 . S
C451 H508 0.930 . S
N452 C451 1.279 . S
N452 C455 1.314 . S
C453 C450 1.348 . S
C453 C455 1.353 . S
C453 H509 0.929 . S
C454 C450 1.356 . S
C454 C451 1.358 . S
C454 H510 0.930 . S
C455 N452 1.314 . S
C455 C453 1.353 . S
C455 H511 0.930 . S
C456 N457 1.314 . S
C456 C461 1.353 . S
C456 H462 0.930 . S
N457 Li440 1.990 . S
N457 C456 1.314 . S
N457 C459 1.279 . S
C458 C459 1.358 . S
C458 C460 1.356 . S
C458 H512 0.930 . S
C459 N457 1.279 . S
C459 C458 1.358 . S
C459 H463 0.930 . S
C460 C458 1.356 . S
C460 C461 1.348 . S
C461 C456 1.353 . S
C461 C460 1.348 . S
C461 H513 0.929 . S
H462 C456 0.930 . S
H463 C459 0.930 . S
C464 N465 1.314 . S
C464 C466 1.353 . S
C464 H470 0.930 . S
N465 Li441 1.990 . S
N465 C464 1.314 . S
N465 C468 1.279 . S
C466 C464 1.353 . S
C466 C469 1.348 . S
C466 H514 0.929 . S
C467 C468 1.358 . S
C467 C469 1.356 . S
C467 H515 0.930 . S
C468 N465 1.279 . S
C468 C467 1.358 . S
C468 H471 0.930 . S
C469 C466 1.348 . S
C469 C467 1.356 . S
H470 C464 0.930 . S
H471 C468 0.930 . S
C472 C474 1.348 . S
C472 C475 1.356 . S
C472 O502 1.325 . S
N473 C476 1.314 . S
N473 C477 1.279 . S
C474 C472 1.348 . S
C474 C476 1.353 . S
C474 H516 0.929 . S
C475 C472 1.356 . S
C475 C477 1.358 . S
C475 H517 0.930 . S
C476 N473 1.314 . S
C476 C474 1.353 . S
C476 H518 0.930 . S
C477 N473 1.279 . S
C477 C475 1.358 . S
C477 H519 0.930 . S
C478 C479 1.348 . S
C478 C480 1.356 . S
C478 O503 1.325 . S
C479 C478 1.348 . S
C479 C481 1.353 . S
C479 H520 0.929 . S
C480 C478 1.356 . S
C480 C482 1.358 . S
C480 H521 0.930 . S
C481 C479 1.353 . S
C481 N483 1.314 . S
C481 H522 0.930 . S
C482 C480 1.358 . S
C482 N483 1.279 . S
C482 H523 0.930 . S
N483 C481 1.314 . S
N483 C482 1.279 . S
C484 C486 1.353 . S
C484 N487 1.314 . S
C484 H490 0.930 . S
C485 N487 1.279 . S
C485 C488 1.358 . S
C485 H491 0.930 . S
C486 C484 1.353 . S
C486 C489 1.348 . S
C486 H524 0.929 . S
N487 Li442 1.990 . S
N487 C484 1.314 . S
N487 C485 1.279 . S
C488 C485 1.358 . S
C488 C489 1.356 . S
C488 H525 0.930 . S
C489 C486 1.348 . S
C489 C488 1.356 . S
H490 C484 0.930 . S
H491 C485 0.930 . S
C492 N493 1.314 . S
C492 C494 1.353 . S
C492 H498 0.930 . S
N493 Li443 1.990 . S
N493 C492 1.314 . S
N493 C496 1.279 . S
C494 C492 1.353 . S
C494 C497 1.348 . S
C494 H526 0.929 . S
C495 C496 1.358 . S
C495 C497 1.356 . S
C495 H527 0.930 . S
C496 N493 1.279 . S
C496 C495 1.358 . S
C496 H499 0.930 . S
C497 C494 1.348 . S
C497 C495 1.356 . S
H498 C492 0.930 . S
H499 C496 0.930 . S
O500 Li440 1.956 . S
O500 Li441 1.970 . S
O500 Li442 1.961 . S
O500 C444 1.325 . S
O501 Li440 1.970 . S
O501 Li441 1.956 . S
O501 Li443 1.961 . S
O501 C450 1.325 . S
O502 Li440 1.961 . S
O502 Li442 1.956 . S
O502 Li443 1.970 . S
O502 C472 1.325 . S
O503 Li441 1.961 . S
O503 Li442 1.970 . S
O503 Li443 1.956 . S
O503 C478 1.325 . S
H504 C446 0.929 . S
H505 C447 0.930 . S
H506 C448 0.930 . S
H507 C449 0.930 . S
H508 C451 0.930 . S
H509 C453 0.929 . S
H510 C454 0.930 . S
H511 C455 0.930 . S
H512 C458 0.930 . S
H513 C461 0.929 . S
H514 C466 0.929 . S
H515 C467 0.930 . S
H516 C474 0.929 . S
H517 C475 0.930 . S
H518 C476 0.930 . S
H519 C477 0.930 . S
H520 C479 0.929 . S
H521 C480 0.930 . S
H522 C481 0.930 . S
H523 C482 0.930 . S
H524 C486 0.929 . S
H525 C488 0.930 . S
H526 C494 0.929 . S
H527 C495 0.930 . S
Li528 N545 1.990 . S
Li528 O588 1.956 . S
Li528 O589 1.970 . S
Li528 O590 1.961 . S
Li529 N553 1.990 . S
Li529 O588 1.970 . S
Li529 O589 1.956 . S
Li529 O591 1.961 . S
Li530 N575 1.990 . S
Li530 O588 1.961 . S
Li530 O590 1.956 . S
Li530 O591 1.970 . S
Li531 N581 1.990 . S
Li531 O589 1.961 . S
Li531 O590 1.970 . S
Li531 O591 1.956 . S
C532 C534 1.348 . S
C532 C535 1.356 . S
C532 O588 1.325 . S
N533 C536 1.314 . S
N533 C537 1.279 . S
C534 C532 1.348 . S
C534 C536 1.353 . S
C534 H592 0.929 . S
C535 C532 1.356 . S
C535 C537 1.358 . S
C535 H593 0.930 . S
C536 N533 1.314 . S
C536 C534 1.353 . S
C536 H594 0.930 . S
C537 N533 1.279 . S
C537 C535 1.358 . S
C537 H595 0.930 . S
C538 C541 1.348 . S
C538 C542 1.356 . S
C538 O589 1.325 . S
C539 N540 1.279 . S
C539 C542 1.358 . S
C539 H596 0.930 . S
N540 C539 1.279 . S
N540 C543 1.314 . S
C541 C538 1.348 . S
C541 C543 1.353 . S
C541 H597 0.929 . S
C542 C538 1.356 . S
C542 C539 1.358 . S
C542 H598 0.930 . S
C543 N540 1.314 . S
C543 C541 1.353 . S
C543 H599 0.930 . S
C544 N545 1.314 . S
C544 C549 1.353 . S
C544 H550 0.930 . S
N545 Li528 1.990 . S
N545 C544 1.314 . S
N545 C547 1.279 . S
C546 C547 1.358 . S
C546 C548 1.356 . S
C546 H600 0.930 . S
C547 N545 1.279 . S
C547 C546 1.358 . S
C547 H551 0.930 . S
C548 C546 1.356 . S
C548 C549 1.348 . S
C549 C544 1.353 . S
C549 C548 1.348 . S
C549 H601 0.929 . S
H550 C544 0.930 . S
H551 C547 0.930 . S
C552 N553 1.314 . S
C552 C554 1.353 . S
C552 H558 0.930 . S
N553 Li529 1.990 . S
N553 C552 1.314 . S
N553 C556 1.279 . S
C554 C552 1.353 . S
C554 C557 1.348 . S
C554 H602 0.929 . S
C555 C556 1.358 . S
C555 C557 1.356 . S
C555 H603 0.930 . S
C556 N553 1.279 . S
C556 C555 1.358 . S
C556 H559 0.930 . S
C557 C554 1.348 . S
C557 C555 1.356 . S
H558 C552 0.930 . S
H559 C556 0.930 . S
C560 C562 1.348 . S
C560 C563 1.356 . S
C560 O590 1.325 . S
N561 C564 1.314 . S
N561 C565 1.279 1_556 S
C562 C560 1.348 . S
C562 C564 1.353 1_554 S
C562 H604 0.929 . S
C563 C560 1.356 . S
C563 C565 1.358 . S
C563 H605 0.930 . S
C564 N561 1.314 . S
C564 C562 1.353 1_556 S
C564 H606 0.930 . S
C565 N561 1.279 1_554 S
C565 C563 1.358 . S
C565 H607 0.930 . S
C566 C567 1.348 . S
C566 C568 1.356 . S
C566 O591 1.325 . S
C567 C566 1.348 . S
C567 C569 1.353 . S
C567 H608 0.929 . S
C568 C566 1.356 . S
C568 C570 1.358 . S
C568 H609 0.930 . S
C569 C567 1.353 . S
C569 N571 1.314 . S
C569 H610 0.930 . S
C570 C568 1.358 . S
C570 N571 1.279 . S
C570 H611 0.930 . S
N571 C569 1.314 . S
N571 C570 1.279 . S
C572 C574 1.353 . S
C572 N575 1.314 . S
C572 H578 0.930 . S
C573 N575 1.279 . S
C573 C576 1.358 . S
C573 H579 0.930 . S
C574 C572 1.353 . S
C574 C577 1.348 . S
C574 H612 0.929 . S
N575 Li530 1.990 . S
N575 C572 1.314 . S
N575 C573 1.279 . S
C576 C573 1.358 . S
C576 C577 1.356 . S
C576 H613 0.930 1_554 S
C577 C574 1.348 . S
C577 C576 1.356 . S
H578 C572 0.930 . S
H579 C573 0.930 . S
C580 N581 1.314 . S
C580 C582 1.353 . S
C580 H586 0.930 . S
N581 Li531 1.990 . S
N581 C580 1.314 . S
N581 C584 1.279 . S
C582 C580 1.353 . S
C582 C585 1.348 . S
C582 H614 0.929 . S
C583 C584 1.358 . S
C583 C585 1.356 . S
C583 H615 0.930 . S
C584 N581 1.279 . S
C584 C583 1.358 . S
C584 H587 0.930 . S
C585 C582 1.348 . S
C585 C583 1.356 . S
H586 C580 0.930 . S
H587 C584 0.930 . S
O588 Li528 1.956 . S
O588 Li529 1.970 . S
O588 Li530 1.961 . S
O588 C532 1.325 . S
O589 Li528 1.970 . S
O589 Li529 1.956 . S
O589 Li531 1.961 . S
O589 C538 1.325 . S
O590 Li528 1.961 . S
O590 Li530 1.956 . S
O590 Li531 1.970 . S
O590 C560 1.325 . S
O591 Li529 1.961 . S
O591 Li530 1.970 . S
O591 Li531 1.956 . S
O591 C566 1.325 . S
H592 C534 0.929 . S
H593 C535 0.930 . S
H594 C536 0.930 . S
H595 C537 0.930 . S
H596 C539 0.930 . S
H597 C541 0.929 . S
H598 C542 0.930 . S
H599 C543 0.930 . S
H600 C546 0.930 . S
H601 C549 0.929 . S
H602 C554 0.929 . S
H603 C555 0.930 . S
H604 C562 0.929 . S
H605 C563 0.930 . S
H606 C564 0.930 . S
H607 C565 0.930 . S
H608 C567 0.929 . S
H609 C568 0.930 . S
H610 C569 0.930 . S
H611 C570 0.930 . S
H612 C574 0.929 . S
H613 C576 0.930 1_556 S
H614 C582 0.929 . S
H615 C583 0.930 . S
Li616 N633 1.990 . S
Li616 O676 1.956 . S
Li616 O677 1.970 . S
Li616 O678 1.961 . S
Li617 N641 1.990 . S
Li617 O676 1.970 . S
Li617 O677 1.956 . S
Li617 O679 1.961 . S
Li618 N663 1.990 . S
Li618 O676 1.961 . S
Li618 O678 1.956 . S
Li618 O679 1.970 . S
Li619 N669 1.990 . S
Li619 O677 1.961 . S
Li619 O678 1.970 . S
Li619 O679 1.956 . S
C620 C622 1.348 . S
C620 C623 1.356 . S
C620 O676 1.325 . S
N621 C624 1.314 . S
N621 C625 1.279 . S
C622 C620 1.348 . S
C622 C624 1.353 . S
C622 H680 0.929 . S
C623 C620 1.356 . S
C623 C625 1.358 . S
C623 H681 0.930 . S
C624 N621 1.314 . S
C624 C622 1.353 . S
C624 H682 0.930 . S
C625 N621 1.279 . S
C625 C623 1.358 . S
C625 H683 0.930 . S
C626 C629 1.348 . S
C626 C630 1.356 . S
C626 O677 1.325 . S
C627 N628 1.279 . S
C627 C630 1.358 . S
C627 H684 0.930 . S
N628 C627 1.279 . S
N628 C631 1.314 . S
C629 C626 1.348 . S
C629 C631 1.353 . S
C629 H685 0.929 . S
C630 C626 1.356 . S
C630 C627 1.358 . S
C630 H686 0.930 . S
C631 N628 1.314 . S
C631 C629 1.353 . S
C631 H687 0.930 . S
C632 N633 1.314 . S
C632 C637 1.353 . S
C632 H638 0.930 . S
N633 Li616 1.990 . S
N633 C632 1.314 . S
N633 C635 1.279 . S
C634 C635 1.358 . S
C634 C636 1.356 . S
C634 H688 0.930 . S
C635 N633 1.279 . S
C635 C634 1.358 . S
C635 H639 0.930 . S
C636 C634 1.356 . S
C636 C637 1.348 . S
C637 C632 1.353 . S
C637 C636 1.348 . S
C637 H689 0.929 . S
H638 C632 0.930 . S
H639 C635 0.930 . S
C640 N641 1.314 . S
C640 C642 1.353 . S
C640 H646 0.930 . S
N641 Li617 1.990 . S
N641 C640 1.314 . S
N641 C644 1.279 . S
C642 C640 1.353 . S
C642 C645 1.348 . S
C642 H690 0.929 . S
C643 C644 1.358 . S
C643 C645 1.356 . S
C643 H691 0.930 . S
C644 N641 1.279 . S
C644 C643 1.358 . S
C644 H647 0.930 . S
C645 C642 1.348 . S
C645 C643 1.356 . S
H646 C640 0.930 . S
H647 C644 0.930 . S
C648 C650 1.348 . S
C648 C651 1.356 . S
C648 O678 1.325 . S
N649 C652 1.314 . S
N649 C653 1.279 . S
C650 C648 1.348 . S
C650 C652 1.353 . S
C650 H692 0.929 . S
C651 C648 1.356 . S
C651 C653 1.358 . S
C651 H693 0.930 . S
C652 N649 1.314 . S
C652 C650 1.353 . S
C652 H694 0.930 . S
C653 N649 1.279 . S
C653 C651 1.358 . S
C653 H695 0.930 . S
C654 C655 1.348 . S
C654 C656 1.356 . S
C654 O679 1.325 . S
C655 C654 1.348 . S
C655 C657 1.353 . S
C655 H696 0.929 . S
C656 C654 1.356 . S
C656 C658 1.358 . S
C656 H697 0.930 . S
C657 C655 1.353 . S
C657 N659 1.314 . S
C657 H698 0.930 . S
C658 C656 1.358 . S
C658 N659 1.279 . S
C658 H699 0.930 . S
N659 C657 1.314 . S
N659 C658 1.279 . S
C660 C662 1.353 . S
C660 N663 1.314 . S
C660 H666 0.930 . S
C661 N663 1.279 . S
C661 C664 1.358 . S
C661 H667 0.930 . S
C662 C660 1.353 . S
C662 C665 1.348 . S
C662 H700 0.929 . S
N663 Li618 1.990 . S
N663 C660 1.314 . S
N663 C661 1.279 . S
C664 C661 1.358 . S
C664 C665 1.356 . S
C664 H701 0.930 . S
C665 C662 1.348 . S
C665 C664 1.356 . S
H666 C660 0.930 . S
H667 C661 0.930 . S
C668 N669 1.314 . S
C668 C670 1.353 . S
C668 H674 0.930 . S
N669 Li619 1.990 . S
N669 C668 1.314 . S
N669 C672 1.279 . S
C670 C668 1.353 . S
C670 C673 1.348 . S
C670 H702 0.929 . S
C671 C672 1.358 . S
C671 C673 1.356 . S
C671 H703 0.930 . S
C672 N669 1.279 . S
C672 C671 1.358 . S
C672 H675 0.930 . S
C673 C670 1.348 . S
C673 C671 1.356 . S
H674 C668 0.930 . S
H675 C672 0.930 . S
O676 Li616 1.956 . S
O676 Li617 1.970 . S
O676 Li618 1.961 . S
O676 C620 1.325 . S
O677 Li616 1.970 . S
O677 Li617 1.956 . S
O677 Li619 1.961 . S
O677 C626 1.325 . S
O678 Li616 1.961 . S
O678 Li618 1.956 . S
O678 Li619 1.970 . S
O678 C648 1.325 . S
O679 Li617 1.961 . S
O679 Li618 1.970 . S
O679 Li619 1.956 . S
O679 C654 1.325 . S
H680 C622 0.929 . S
H681 C623 0.930 . S
H682 C624 0.930 . S
H683 C625 0.930 . S
H684 C627 0.930 . S
H685 C629 0.929 . S
H686 C630 0.930 . S
H687 C631 0.930 . S
H688 C634 0.930 . S
H689 C637 0.929 . S
H690 C642 0.929 . S
H691 C643 0.930 . S
H692 C650 0.929 . S
H693 C651 0.930 . S
H694 C652 0.930 . S
H695 C653 0.930 . S
H696 C655 0.929 . S
H697 C656 0.930 . S
H698 C657 0.930 . S
H699 C658 0.930 . S
H700 C662 0.929 . S
H701 C664 0.930 . S
H702 C670 0.929 . S
H703 C671 0.930 . S
Li704 N721 1.990 . S
Li704 O764 1.956 . S
Li704 O765 1.970 . S
Li704 O766 1.961 . S
Li705 N729 1.990 . S
Li705 O764 1.970 . S
Li705 O765 1.956 . S
Li705 O767 1.961 . S
Li706 N751 1.990 . S
Li706 O764 1.961 . S
Li706 O766 1.956 . S
Li706 O767 1.970 . S
Li707 N757 1.990 . S
Li707 O765 1.961 . S
Li707 O766 1.970 . S
Li707 O767 1.956 . S
C708 C710 1.348 . S
C708 C711 1.356 . S
C708 O764 1.325 . S
N709 C712 1.314 1_556 S
N709 C713 1.279 . S
C710 C708 1.348 . S
C710 C712 1.353 . S
C710 H768 0.929 . S
C711 C708 1.356 . S
C711 C713 1.358 1_554 S
C711 H769 0.930 . S
C712 N709 1.314 1_554 S
C712 C710 1.353 . S
C712 H770 0.930 . S
C713 N709 1.279 . S
C713 C711 1.358 1_556 S
C713 H771 0.930 . S
C714 C717 1.348 . S
C714 C718 1.356 . S
C714 O765 1.325 . S
C715 N716 1.279 . S
C715 C718 1.358 . S
C715 H772 0.930 . S
N716 C715 1.279 . S
N716 C719 1.314 . S
C717 C714 1.348 . S
C717 C719 1.353 . S
C717 H773 0.929 . S
C718 C714 1.356 . S
C718 C715 1.358 . S
C718 H774 0.930 . S
C719 N716 1.314 . S
C719 C717 1.353 . S
C719 H775 0.930 . S
C720 N721 1.314 . S
C720 C725 1.353 . S
C720 H726 0.930 . S
N721 Li704 1.990 . S
N721 C720 1.314 . S
N721 C723 1.279 . S
C722 C723 1.358 . S
C722 C724 1.356 . S
C722 H776 0.930 . S
C723 N721 1.279 . S
C723 C722 1.358 . S
C723 H727 0.930 . S
C724 C722 1.356 . S
C724 C725 1.348 . S
C725 C720 1.353 . S
C725 C724 1.348 . S
C725 H777 0.929 . S
H726 C720 0.930 . S
H727 C723 0.930 . S
C728 N729 1.314 . S
C728 C730 1.353 . S
C728 H734 0.930 . S
N729 Li705 1.990 . S
N729 C728 1.314 . S
N729 C732 1.279 . S
C730 C728 1.353 . S
C730 C733 1.348 . S
C730 H778 0.929 . S
C731 C732 1.358 . S
C731 C733 1.356 . S
C731 H779 0.930 . S
C732 N729 1.279 . S
C732 C731 1.358 . S
C732 H735 0.930 . S
C733 C730 1.348 . S
C733 C731 1.356 . S
H734 C728 0.930 . S
H735 C732 0.930 . S
C736 C738 1.348 . S
C736 C739 1.356 . S
C736 O766 1.325 . S
N737 C740 1.314 . S
N737 C741 1.279 . S
C738 C736 1.348 . S
C738 C740 1.353 . S
C738 H780 0.929 . S
C739 C736 1.356 . S
C739 C741 1.358 . S
C739 H781 0.930 . S
C740 N737 1.314 . S
C740 C738 1.353 . S
C740 H782 0.930 . S
C741 N737 1.279 . S
C741 C739 1.358 . S
C741 H783 0.930 . S
C742 C743 1.348 . S
C742 C744 1.356 . S
C742 O767 1.325 . S
C743 C742 1.348 . S
C743 C745 1.353 . S
C743 H784 0.929 . S
C744 C742 1.356 . S
C744 C746 1.358 . S
C744 H785 0.930 . S
C745 C743 1.353 . S
C745 N747 1.314 . S
C745 H786 0.930 . S
C746 C744 1.358 . S
C746 N747 1.279 . S
C746 H787 0.930 . S
N747 C745 1.314 . S
N747 C746 1.279 . S
C748 C750 1.353 . S
C748 N751 1.314 . S
C748 H754 0.930 . S
C749 N751 1.279 . S
C749 C752 1.358 . S
C749 H755 0.930 . S
C750 C748 1.353 . S
C750 C753 1.348 . S
C750 H788 0.929 . S
N751 Li706 1.990 . S
N751 C748 1.314 . S
N751 C749 1.279 . S
C752 C749 1.358 . S
C752 C753 1.356 . S
C752 H789 0.930 . S
C753 C750 1.348 . S
C753 C752 1.356 . S
H754 C748 0.930 . S
H755 C749 0.930 . S
C756 N757 1.314 . S
C756 C758 1.353 . S
C756 H762 0.930 . S
N757 Li707 1.990 . S
N757 C756 1.314 . S
N757 C760 1.279 . S
C758 C756 1.353 . S
C758 C761 1.348 . S
C758 H790 0.929 . S
C759 C760 1.358 . S
C759 C761 1.356 . S
C759 H791 0.930 . S
C760 N757 1.279 . S
C760 C759 1.358 . S
C760 H763 0.930 . S
C761 C758 1.348 . S
C761 C759 1.356 . S
H762 C756 0.930 . S
H763 C760 0.930 . S
O764 Li704 1.956 . S
O764 Li705 1.970 . S
O764 Li706 1.961 . S
O764 C708 1.325 . S
O765 Li704 1.970 . S
O765 Li705 1.956 . S
O765 Li707 1.961 . S
O765 C714 1.325 . S
O766 Li704 1.961 . S
O766 Li706 1.956 . S
O766 Li707 1.970 . S
O766 C736 1.325 . S
O767 Li705 1.961 . S
O767 Li706 1.970 . S
O767 Li707 1.956 . S
O767 C742 1.325 . S
H768 C710 0.929 . S
H769 C711 0.930 . S
H770 C712 0.930 . S
H771 C713 0.930 . S
H772 C715 0.930 . S
H773 C717 0.929 . S
H774 C718 0.930 . S
H775 C719 0.930 . S
H776 C722 0.930 . S
H777 C725 0.929 . S
H778 C730 0.929 . S
H779 C731 0.930 . S
H780 C738 0.929 . S
H781 C739 0.930 . S
H782 C740 0.930 . S
H783 C741 0.930 . S
H784 C743 0.929 . S
H785 C744 0.930 . S
H786 C745 0.930 . S
H787 C746 0.930 . S
H788 C750 0.929 . S
H789 C752 0.930 . S
H790 C758 0.929 . S
H791 C759 0.930 . S
Li792 N809 1.990 . S
Li792 O852 1.956 . S
Li792 O853 1.970 . S
Li792 O854 1.961 . S
Li793 N817 1.990 . S
Li793 O852 1.970 . S
Li793 O853 1.956 . S
Li793 O855 1.961 . S
Li794 N839 1.990 . S
Li794 O852 1.961 . S
Li794 O854 1.956 . S
Li794 O855 1.970 . S
Li795 N845 1.990 . S
Li795 O853 1.961 . S
Li795 O854 1.970 . S
Li795 O855 1.956 . S
C796 C798 1.348 . S
C796 C799 1.356 . S
C796 O852 1.325 . S
N797 C800 1.314 . S
N797 C801 1.279 . S
C798 C796 1.348 . S
C798 C800 1.353 . S
C798 H856 0.929 . S
C799 C796 1.356 . S
C799 C801 1.358 . S
C799 H857 0.930 . S
C800 N797 1.314 . S
C800 C798 1.353 . S
C800 H858 0.930 . S
C801 N797 1.279 . S
C801 C799 1.358 . S
C801 H859 0.930 . S
C802 C805 1.348 . S
C802 C806 1.356 . S
C802 O853 1.325 . S
C803 N804 1.279 . S
C803 C806 1.358 . S
C803 H860 0.930 . S
N804 C803 1.279 . S
N804 C807 1.314 . S
C805 C802 1.348 . S
C805 C807 1.353 . S
C805 H861 0.929 . S
C806 C802 1.356 . S
C806 C803 1.358 . S
C806 H862 0.930 . S
C807 N804 1.314 . S
C807 C805 1.353 . S
C807 H863 0.930 . S
C808 N809 1.314 . S
C808 C813 1.353 . S
C808 H814 0.930 . S
N809 Li792 1.990 . S
N809 C808 1.314 . S
N809 C811 1.279 . S
C810 C811 1.358 . S
C810 C812 1.356 . S
C810 H864 0.930 . S
C811 N809 1.279 . S
C811 C810 1.358 . S
C811 H815 0.930 . S
C812 C810 1.356 . S
C812 C813 1.348 . S
C813 C808 1.353 . S
C813 C812 1.348 . S
C813 H865 0.929 . S
H814 C808 0.930 . S
H815 C811 0.930 . S
C816 N817 1.314 . S
C816 C818 1.353 . S
C816 H822 0.930 . S
N817 Li793 1.990 . S
N817 C816 1.314 . S
N817 C820 1.279 . S
C818 C816 1.353 . S
C818 C821 1.348 . S
C818 H866 0.929 . S
C819 C820 1.358 . S
C819 C821 1.356 . S
C819 H867 0.930 . S
C820 N817 1.279 . S
C820 C819 1.358 . S
C820 H823 0.930 . S
C821 C818 1.348 . S
C821 C819 1.356 . S
H822 C816 0.930 . S
H823 C820 0.930 . S
C824 C826 1.348 . S
C824 C827 1.356 . S
C824 O854 1.325 . S
N825 C828 1.314 . S
N825 C829 1.279 . S
C826 C824 1.348 . S
C826 C828 1.353 . S
C826 H868 0.929 . S
C827 C824 1.356 . S
C827 C829 1.358 . S
C827 H869 0.930 . S
C828 N825 1.314 . S
C828 C826 1.353 . S
C828 H870 0.930 . S
C829 N825 1.279 . S
C829 C827 1.358 . S
C829 H871 0.930 . S
C830 C831 1.348 . S
C830 C832 1.356 . S
C830 O855 1.325 . S
C831 C830 1.348 . S
C831 C833 1.353 . S
C831 H872 0.929 . S
C832 C830 1.356 . S
C832 C834 1.358 . S
C832 H873 0.930 . S
C833 C831 1.353 . S
C833 N835 1.314 . S
C833 H874 0.930 . S
C834 C832 1.358 . S
C834 N835 1.279 . S
C834 H875 0.930 . S
N835 C833 1.314 . S
N835 C834 1.279 . S
C836 C838 1.353 . S
C836 N839 1.314 . S
C836 H842 0.930 . S
C837 N839 1.279 . S
C837 C840 1.358 . S
C837 H843 0.930 . S
C838 C836 1.353 . S
C838 C841 1.348 . S
C838 H876 0.929 . S
N839 Li794 1.990 . S
N839 C836 1.314 . S
N839 C837 1.279 . S
C840 C837 1.358 . S
C840 C841 1.356 . S
C840 H877 0.930 . S
C841 C838 1.348 . S
C841 C840 1.356 . S
H842 C836 0.930 . S
H843 C837 0.930 . S
C844 N845 1.314 . S
C844 C846 1.353 . S
C844 H850 0.930 . S
N845 Li795 1.990 . S
N845 C844 1.314 . S
N845 C848 1.279 . S
C846 C844 1.353 . S
C846 C849 1.348 . S
C846 H878 0.929 . S
C847 C848 1.358 . S
C847 C849 1.356 . S
C847 H879 0.930 . S
C848 N845 1.279 . S
C848 C847 1.358 . S
C848 H851 0.930 . S
C849 C846 1.348 . S
C849 C847 1.356 . S
H850 C844 0.930 . S
H851 C848 0.930 . S
O852 Li792 1.956 . S
O852 Li793 1.970 . S
O852 Li794 1.961 . S
O852 C796 1.325 . S
O853 Li792 1.970 . S
O853 Li793 1.956 . S
O853 Li795 1.961 . S
O853 C802 1.325 . S
O854 Li792 1.961 . S
O854 Li794 1.956 . S
O854 Li795 1.970 . S
O854 C824 1.325 . S
O855 Li793 1.961 . S
O855 Li794 1.970 . S
O855 Li795 1.956 . S
O855 C830 1.325 . S
H856 C798 0.929 . S
H857 C799 0.930 . S
H858 C800 0.930 . S
H859 C801 0.930 . S
H860 C803 0.930 . S
H861 C805 0.929 . S
H862 C806 0.930 . S
H863 C807 0.930 . S
H864 C810 0.930 . S
H865 C813 0.929 . S
H866 C818 0.929 . S
H867 C819 0.930 . S
H868 C826 0.929 . S
H869 C827 0.930 . S
H870 C828 0.930 . S
H871 C829 0.930 . S
H872 C831 0.929 . S
H873 C832 0.930 . S
H874 C833 0.930 . S
H875 C834 0.930 . S
H876 C838 0.929 . S
H877 C840 0.930 . S
H878 C846 0.929 . S
H879 C847 0.930 . S
Li880 N897 1.990 . S
Li880 O940 1.956 . S
Li880 O941 1.970 . S
Li880 O942 1.961 . S
Li881 N905 1.990 . S
Li881 O940 1.970 . S
Li881 O941 1.956 . S
Li881 O943 1.961 . S
Li882 N927 1.990 . S
Li882 O940 1.961 . S
Li882 O942 1.956 . S
Li882 O943 1.970 . S
Li883 N933 1.990 . S
Li883 O941 1.961 . S
Li883 O942 1.970 . S
Li883 O943 1.956 . S
C884 C886 1.348 . S
C884 C887 1.356 . S
C884 O940 1.325 . S
N885 C888 1.314 . S
N885 C889 1.279 . S
C886 C884 1.348 . S
C886 C888 1.353 . S
C886 H944 0.929 . S
C887 C884 1.356 . S
C887 C889 1.358 . S
C887 H945 0.930 . S
C888 N885 1.314 . S
C888 C886 1.353 . S
C888 H946 0.930 . S
C889 N885 1.279 . S
C889 C887 1.358 . S
C889 H947 0.930 . S
C890 C893 1.348 . S
C890 C894 1.356 . S
C890 O941 1.325 . S
C891 N892 1.279 . S
C891 C894 1.358 . S
C891 H948 0.930 . S
N892 C891 1.279 . S
N892 C895 1.314 . S
C893 C890 1.348 . S
C893 C895 1.353 . S
C893 H949 0.929 . S
C894 C890 1.356 . S
C894 C891 1.358 . S
C894 H950 0.930 . S
C895 N892 1.314 . S
C895 C893 1.353 . S
C895 H951 0.930 . S
C896 N897 1.314 . S
C896 C901 1.353 . S
C896 H902 0.930 . S
N897 Li880 1.990 . S
N897 C896 1.314 . S
N897 C899 1.279 . S
C898 C899 1.358 . S
C898 C900 1.356 . S
C898 H952 0.930 . S
C899 N897 1.279 . S
C899 C898 1.358 . S
C899 H903 0.930 . S
C900 C898 1.356 . S
C900 C901 1.348 . S
C901 C896 1.353 . S
C901 C900 1.348 . S
C901 H953 0.929 . S
H902 C896 0.930 . S
H903 C899 0.930 . S
C904 N905 1.314 . S
C904 C906 1.353 . S
C904 H910 0.930 . S
N905 Li881 1.990 . S
N905 C904 1.314 . S
N905 C908 1.279 . S
C906 C904 1.353 . S
C906 C909 1.348 . S
C906 H954 0.929 . S
C907 C908 1.358 . S
C907 C909 1.356 . S
C907 H955 0.930 . S
C908 N905 1.279 . S
C908 C907 1.358 . S
C908 H911 0.930 . S
C909 C906 1.348 . S
C909 C907 1.356 . S
H910 C904 0.930 . S
H911 C908 0.930 . S
C912 C914 1.348 . S
C912 C915 1.356 . S
C912 O942 1.325 . S
N913 C916 1.314 . S
N913 C917 1.279 . S
C914 C912 1.348 . S
C914 C916 1.353 . S
C914 H956 0.929 . S
C915 C912 1.356 . S
C915 C917 1.358 . S
C915 H957 0.930 . S
C916 N913 1.314 . S
C916 C914 1.353 . S
C916 H958 0.930 . S
C917 N913 1.279 . S
C917 C915 1.358 . S
C917 H959 0.930 . S
C918 C919 1.348 . S
C918 C920 1.356 . S
C918 O943 1.325 . S
C919 C918 1.348 . S
C919 C921 1.353 . S
C919 H960 0.929 . S
C920 C918 1.356 . S
C920 C922 1.358 1_556 S
C920 H961 0.930 . S
C921 C919 1.353 . S
C921 N923 1.314 1_556 S
C921 H962 0.930 . S
C922 C920 1.358 1_554 S
C922 N923 1.279 . S
C922 H963 0.930 . S
N923 C921 1.314 1_554 S
N923 C922 1.279 . S
C924 C926 1.353 . S
C924 N927 1.314 . S
C924 H930 0.930 . S
C925 N927 1.279 . S
C925 C928 1.358 . S
C925 H931 0.930 . S
C926 C924 1.353 . S
C926 C929 1.348 . S
C926 H964 0.929 . S
N927 Li882 1.990 . S
N927 C924 1.314 . S
N927 C925 1.279 . S
C928 C925 1.358 . S
C928 C929 1.356 . S
C928 H965 0.930 . S
C929 C926 1.348 . S
C929 C928 1.356 . S
H930 C924 0.930 . S
H931 C925 0.930 . S
C932 N933 1.314 . S
C932 C934 1.353 . S
C932 H938 0.930 . S
N933 Li883 1.990 . S
N933 C932 1.314 . S
N933 C936 1.279 . S
C934 C932 1.353 . S
C934 C937 1.348 . S
C934 H966 0.929 . S
C935 C936 1.358 . S
C935 C937 1.356 . S
C935 H967 0.930 . S
C936 N933 1.279 . S
C936 C935 1.358 . S
C936 H939 0.930 . S
C937 C934 1.348 . S
C937 C935 1.356 . S
H938 C932 0.930 . S
H939 C936 0.930 . S
O940 Li880 1.956 . S
O940 Li881 1.970 . S
O940 Li882 1.961 . S
O940 C884 1.325 . S
O941 Li880 1.970 . S
O941 Li881 1.956 . S
O941 Li883 1.961 . S
O941 C890 1.325 . S
O942 Li880 1.961 . S
O942 Li882 1.956 . S
O942 Li883 1.970 . S
O942 C912 1.325 . S
O943 Li881 1.961 . S
O943 Li882 1.970 . S
O943 Li883 1.956 . S
O943 C918 1.325 . S
H944 C886 0.929 . S
H945 C887 0.930 . S
H946 C888 0.930 . S
H947 C889 0.930 . S
H948 C891 0.930 . S
H949 C893 0.929 . S
H950 C894 0.930 . S
H951 C895 0.930 . S
H952 C898 0.930 . S
H953 C901 0.929 . S
H954 C906 0.929 . S
H955 C907 0.930 . S
H956 C914 0.929 . S
H957 C915 0.930 . S
H958 C916 0.930 . S
H959 C917 0.930 . S
H960 C919 0.929 . S
H961 C920 0.930 . S
H962 C921 0.930 . S
H963 C922 0.930 . S
H964 C926 0.929 . S
H965 C928 0.930 . S
H966 C934 0.929 . S
H967 C935 0.930 . S
Li968 N985 1.990 . S
Li968 O1028 1.956 . S
Li968 O1029 1.970 . S
Li968 O1030 1.961 . S
Li969 N993 1.990 . S
Li969 O1028 1.970 . S
Li969 O1029 1.956 . S
Li969 O1031 1.961 . S
Li970 N1015 1.990 . S
Li970 O1028 1.961 . S
Li970 O1030 1.956 . S
Li970 O1031 1.970 . S
Li971 N1021 1.990 . S
Li971 O1029 1.961 . S
Li971 O1030 1.970 . S
Li971 O1031 1.956 . S
C972 C974 1.348 . S
C972 C975 1.356 . S
C972 O1028 1.325 . S
N973 C976 1.314 . S
N973 C977 1.279 . S
C974 C972 1.348 . S
C974 C976 1.353 . S
C974 H1032 0.929 . S
C975 C972 1.356 . S
C975 C977 1.358 . S
C975 H1033 0.930 . S
C976 N973 1.314 . S
C976 C974 1.353 . S
C976 H1034 0.930 . S
C977 N973 1.279 . S
C977 C975 1.358 . S
C977 H1035 0.930 . S
C978 C981 1.348 . S
C978 C982 1.356 . S
C978 O1029 1.325 . S
C979 N980 1.279 . S
C979 C982 1.358 . S
C979 H1036 0.930 . S
N980 C979 1.279 . S
N980 C983 1.314 . S
C981 C978 1.348 . S
C981 C983 1.353 . S
C981 H1037 0.929 . S
C982 C978 1.356 . S
C982 C979 1.358 . S
C982 H1038 0.930 . S
C983 N980 1.314 . S
C983 C981 1.353 . S
C983 H1039 0.930 . S
C984 N985 1.314 . S
C984 C989 1.353 . S
C984 H990 0.930 . S
N985 Li968 1.990 . S
N985 C984 1.314 . S
N985 C987 1.279 . S
C986 C987 1.358 . S
C986 C988 1.356 . S
C986 H1040 0.930 . S
C987 N985 1.279 . S
C987 C986 1.358 . S
C987 H991 0.930 . S
C988 C986 1.356 . S
C988 C989 1.348 . S
C989 C984 1.353 . S
C989 C988 1.348 . S
C989 H1041 0.929 . S
H990 C984 0.930 . S
H991 C987 0.930 . S
C992 N993 1.314 . S
C992 C994 1.353 . S
C992 H998 0.930 . S
N993 Li969 1.990 . S
N993 C992 1.314 . S
N993 C996 1.279 . S
C994 C992 1.353 . S
C994 C997 1.348 . S
C994 H1042 0.929 . S
C995 C996 1.358 . S
C995 C997 1.356 . S
C995 H1043 0.930 . S
C996 N993 1.279 . S
C996 C995 1.358 . S
C996 H999 0.930 . S
C997 C994 1.348 . S
C997 C995 1.356 . S
H998 C992 0.930 . S
H999 C996 0.930 . S
C1000 C1002 1.348 . S
C1000 C1003 1.356 . S
C1000 O1030 1.325 . S
N1001 C1004 1.314 . S
N1001 C1005 1.279 . S
C1002 C1000 1.348 . S
C1002 C1004 1.353 . S
C1002 H1044 0.929 . S
C1003 C1000 1.356 . S
C1003 C1005 1.358 . S
C1003 H1045 0.930 . S
C1004 N1001 1.314 . S
C1004 C1002 1.353 . S
C1004 H1046 0.930 . S
C1005 N1001 1.279 . S
C1005 C1003 1.358 . S
C1005 H1047 0.930 . S
C1006 C1007 1.348 . S
C1006 C1008 1.356 . S
C1006 O1031 1.325 . S
C1007 C1006 1.348 . S
C1007 C1009 1.353 . S
C1007 H1048 0.929 . S
C1008 C1006 1.356 . S
C1008 C1010 1.358 . S
C1008 H1049 0.930 . S
C1009 C1007 1.353 . S
C1009 N1011 1.314 . S
C1009 H1050 0.930 . S
C1010 C1008 1.358 . S
C1010 N1011 1.279 . S
C1010 H1051 0.930 . S
N1011 C1009 1.314 . S
N1011 C1010 1.279 . S
C1012 C1014 1.353 . S
C1012 N1015 1.314 . S
C1012 H1018 0.930 . S
C1013 N1015 1.279 . S
C1013 C1016 1.358 . S
C1013 H1019 0.930 . S
C1014 C1012 1.353 . S
C1014 C1017 1.348 . S
C1014 H1052 0.929 . S
N1015 Li970 1.990 . S
N1015 C1012 1.314 . S
N1015 C1013 1.279 . S
C1016 C1013 1.358 . S
C1016 C1017 1.356 . S
C1016 H1053 0.930 . S
C1017 C1014 1.348 . S
C1017 C1016 1.356 . S
H1018 C1012 0.930 . S
H1019 C1013 0.930 . S
C1020 N1021 1.314 . S
C1020 C1022 1.353 . S
C1020 H1026 0.930 . S
N1021 Li971 1.990 . S
N1021 C1020 1.314 . S
N1021 C1024 1.279 . S
C1022 C1020 1.353 . S
C1022 C1025 1.348 . S
C1022 H1054 0.929 . S
C1023 C1024 1.358 . S
C1023 C1025 1.356 . S
C1023 H1055 0.930 . S
C1024 N1021 1.279 . S
C1024 C1023 1.358 . S
C1024 H1027 0.930 . S
C1025 C1022 1.348 . S
C1025 C1023 1.356 . S
H1026 C1020 0.930 . S
H1027 C1024 0.930 . S
O1028 Li968 1.956 . S
O1028 Li969 1.970 . S
O1028 Li970 1.961 . S
O1028 C972 1.325 . S
O1029 Li968 1.970 . S
O1029 Li969 1.956 . S
O1029 Li971 1.961 . S
O1029 C978 1.325 . S
O1030 Li968 1.961 . S
O1030 Li970 1.956 . S
O1030 Li971 1.970 . S
O1030 C1000 1.325 . S
O1031 Li969 1.961 . S
O1031 Li970 1.970 . S
O1031 Li971 1.956 . S
O1031 C1006 1.325 . S
H1032 C974 0.929 . S
H1033 C975 0.930 . S
H1034 C976 0.930 . S
H1035 C977 0.930 . S
H1036 C979 0.930 . S
H1037 C981 0.929 . S
H1038 C982 0.930 . S
H1039 C983 0.930 . S
H1040 C986 0.930 . S
H1041 C989 0.929 . S
H1042 C994 0.929 . S
H1043 C995 0.930 . S
H1044 C1002 0.929 . S
H1045 C1003 0.930 . S
H1046 C1004 0.930 . S
H1047 C1005 0.930 . S
H1048 C1007 0.929 . S
H1049 C1008 0.930 . S
H1050 C1009 0.930 . S
H1051 C1010 0.930 . S
H1052 C1014 0.929 . S
H1053 C1016 0.930 . S
H1054 C1022 0.929 . S
H1055 C1023 0.930 . S
Li1056 N1073 1.990 . S
Li1056 O1116 1.956 . S
Li1056 O1117 1.970 . S
Li1056 O1118 1.961 . S
Li1057 N1081 1.990 . S
Li1057 O1116 1.970 . S
Li1057 O1117 1.956 . S
Li1057 O1119 1.961 . S
Li1058 N1103 1.990 . S
Li1058 O1116 1.961 . S
Li1058 O1118 1.956 . S
Li1058 O1119 1.970 . S
Li1059 N1109 1.990 . S
Li1059 O1117 1.961 . S
Li1059 O1118 1.970 . S
Li1059 O1119 1.956 . S
C1060 C1062 1.348 . S
C1060 C1063 1.356 . S
C1060 O1116 1.325 . S
N1061 C1064 1.314 . S
N1061 C1065 1.279 . S
C1062 C1060 1.348 . S
C1062 C1064 1.353 . S
C1062 H1120 0.929 . S
C1063 C1060 1.356 . S
C1063 C1065 1.358 . S
C1063 H1121 0.930 . S
C1064 N1061 1.314 . S
C1064 C1062 1.353 . S
C1064 H1122 0.930 . S
C1065 N1061 1.279 . S
C1065 C1063 1.358 . S
C1065 H1123 0.930 . S
C1066 C1069 1.348 . S
C1066 C1070 1.356 . S
C1066 O1117 1.325 . S
C1067 N1068 1.279 1_556 S
C1067 C1070 1.358 . S
C1067 H1124 0.930 . S
N1068 C1067 1.279 1_554 S
N1068 C1071 1.314 . S
C1069 C1066 1.348 . S
C1069 C1071 1.353 1_556 S
C1069 H1125 0.929 . S
C1070 C1066 1.356 . S
C1070 C1067 1.358 . S
C1070 H1126 0.930 . S
C1071 N1068 1.314 . S
C1071 C1069 1.353 1_554 S
C1071 H1127 0.930 . S
C1072 N1073 1.314 . S
C1072 C1077 1.353 . S
C1072 H1078 0.930 . S
N1073 Li1056 1.990 . S
N1073 C1072 1.314 . S
N1073 C1075 1.279 . S
C1074 C1075 1.358 . S
C1074 C1076 1.356 . S
C1074 H1128 0.930 . S
C1075 N1073 1.279 . S
C1075 C1074 1.358 . S
C1075 H1079 0.930 . S
C1076 C1074 1.356 . S
C1076 C1077 1.348 . S
C1077 C1072 1.353 . S
C1077 C1076 1.348 . S
C1077 H1129 0.929 . S
H1078 C1072 0.930 . S
H1079 C1075 0.930 . S
C1080 N1081 1.314 . S
C1080 C1082 1.353 . S
C1080 H1086 0.930 . S
N1081 Li1057 1.990 . S
N1081 C1080 1.314 . S
N1081 C1084 1.279 . S
C1082 C1080 1.353 . S
C1082 C1085 1.348 . S
C1082 H1130 0.929 . S
C1083 C1084 1.358 . S
C1083 C1085 1.356 . S
C1083 H1131 0.930 1_556 S
C1084 N1081 1.279 . S
C1084 C1083 1.358 . S
C1084 H1087 0.930 . S
C1085 C1082 1.348 . S
C1085 C1083 1.356 . S
H1086 C1080 0.930 . S
H1087 C1084 0.930 . S
C1088 C1090 1.348 . S
C1088 C1091 1.356 . S
C1088 O1118 1.325 . S
N1089 C1092 1.314 . S
N1089 C1093 1.279 . S
C1090 C1088 1.348 . S
C1090 C1092 1.353 . S
C1090 H1132 0.929 . S
C1091 C1088 1.356 . S
C1091 C1093 1.358 . S
C1091 H1133 0.930 . S
C1092 N1089 1.314 . S
C1092 C1090 1.353 . S
C1092 H1134 0.930 . S
C1093 N1089 1.279 . S
C1093 C1091 1.358 . S
C1093 H1135 0.930 . S
C1094 C1095 1.348 . S
C1094 C1096 1.356 . S
C1094 O1119 1.325 . S
C1095 C1094 1.348 . S
C1095 C1097 1.353 . S
C1095 H1136 0.929 . S
C1096 C1094 1.356 . S
C1096 C1098 1.358 . S
C1096 H1137 0.930 . S
C1097 C1095 1.353 . S
C1097 N1099 1.314 . S
C1097 H1138 0.930 . S
C1098 C1096 1.358 . S
C1098 N1099 1.279 . S
C1098 H1139 0.930 . S
N1099 C1097 1.314 . S
N1099 C1098 1.279 . S
C1100 C1102 1.353 . S
C1100 N1103 1.314 . S
C1100 H1106 0.930 . S
C1101 N1103 1.279 . S
C1101 C1104 1.358 . S
C1101 H1107 0.930 . S
C1102 C1100 1.353 . S
C1102 C1105 1.348 . S
C1102 H1140 0.929 . S
N1103 Li1058 1.990 . S
N1103 C1100 1.314 . S
N1103 C1101 1.279 . S
C1104 C1101 1.358 . S
C1104 C1105 1.356 . S
C1104 H1141 0.930 . S
C1105 C1102 1.348 . S
C1105 C1104 1.356 . S
H1106 C1100 0.930 . S
H1107 C1101 0.930 . S
C1108 N1109 1.314 . S
C1108 C1110 1.353 . S
C1108 H1114 0.930 . S
N1109 Li1059 1.990 . S
N1109 C1108 1.314 . S
N1109 C1112 1.279 . S
C1110 C1108 1.353 . S
C1110 C1113 1.348 . S
C1110 H1142 0.929 . S
C1111 C1112 1.358 . S
C1111 C1113 1.356 . S
C1111 H1143 0.930 . S
C1112 N1109 1.279 . S
C1112 C1111 1.358 . S
C1112 H1115 0.930 . S
C1113 C1110 1.348 . S
C1113 C1111 1.356 . S
H1114 C1108 0.930 . S
H1115 C1112 0.930 . S
O1116 Li1056 1.956 . S
O1116 Li1057 1.970 . S
O1116 Li1058 1.961 . S
O1116 C1060 1.325 . S
O1117 Li1056 1.970 . S
O1117 Li1057 1.956 . S
O1117 Li1059 1.961 . S
O1117 C1066 1.325 . S
O1118 Li1056 1.961 . S
O1118 Li1058 1.956 . S
O1118 Li1059 1.970 . S
O1118 C1088 1.325 . S
O1119 Li1057 1.961 . S
O1119 Li1058 1.970 . S
O1119 Li1059 1.956 . S
O1119 C1094 1.325 . S
H1120 C1062 0.929 . S
H1121 C1063 0.930 . S
H1122 C1064 0.930 . S
H1123 C1065 0.930 . S
H1124 C1067 0.930 . S
H1125 C1069 0.929 . S
H1126 C1070 0.930 . S
H1127 C1071 0.930 . S
H1128 C1074 0.930 . S
H1129 C1077 0.929 . S
H1130 C1082 0.929 . S
H1131 C1083 0.930 1_554 S
H1132 C1090 0.929 . S
H1133 C1091 0.930 . S
H1134 C1092 0.930 . S
H1135 C1093 0.930 . S
H1136 C1095 0.929 . S
H1137 C1096 0.930 . S
H1138 C1097 0.930 . S
H1139 C1098 0.930 . S
H1140 C1102 0.929 . S
H1141 C1104 0.930 . S
H1142 C1110 0.929 . S
H1143 C1111 0.930 . S
Li1144 N1161 1.990 . S
Li1144 O1204 1.956 . S
Li1144 O1205 1.970 . S
Li1144 O1206 1.961 . S
Li1145 N1169 1.990 . S
Li1145 O1204 1.970 . S
Li1145 O1205 1.956 . S
Li1145 O1207 1.961 . S
Li1146 N1191 1.990 . S
Li1146 O1204 1.961 . S
Li1146 O1206 1.956 . S
Li1146 O1207 1.970 . S
Li1147 N1197 1.990 . S
Li1147 O1205 1.961 . S
Li1147 O1206 1.970 . S
Li1147 O1207 1.956 . S
C1148 C1150 1.348 . S
C1148 C1151 1.356 . S
C1148 O1204 1.325 . S
N1149 C1152 1.314 . S
N1149 C1153 1.279 . S
C1150 C1148 1.348 . S
C1150 C1152 1.353 . S
C1150 H1208 0.929 . S
C1151 C1148 1.356 . S
C1151 C1153 1.358 . S
C1151 H1209 0.930 . S
C1152 N1149 1.314 . S
C1152 C1150 1.353 . S
C1152 H1210 0.930 . S
C1153 N1149 1.279 . S
C1153 C1151 1.358 . S
C1153 H1211 0.930 . S
C1154 C1157 1.348 . S
C1154 C1158 1.356 . S
C1154 O1205 1.325 . S
C1155 N1156 1.279 . S
C1155 C1158 1.358 . S
C1155 H1212 0.930 . S
N1156 C1155 1.279 . S
N1156 C1159 1.314 . S
C1157 C1154 1.348 . S
C1157 C1159 1.353 . S
C1157 H1213 0.929 . S
C1158 C1154 1.356 . S
C1158 C1155 1.358 . S
C1158 H1214 0.930 . S
C1159 N1156 1.314 . S
C1159 C1157 1.353 . S
C1159 H1215 0.930 . S
C1160 N1161 1.314 . S
C1160 C1165 1.353 . S
C1160 H1166 0.930 . S
N1161 Li1144 1.990 . S
N1161 C1160 1.314 . S
N1161 C1163 1.279 . S
C1162 C1163 1.358 . S
C1162 C1164 1.356 . S
C1162 H1216 0.930 . S
C1163 N1161 1.279 . S
C1163 C1162 1.358 . S
C1163 H1167 0.930 . S
C1164 C1162 1.356 . S
C1164 C1165 1.348 . S
C1165 C1160 1.353 . S
C1165 C1164 1.348 . S
C1165 H1217 0.929 . S
H1166 C1160 0.930 . S
H1167 C1163 0.930 . S
C1168 N1169 1.314 . S
C1168 C1170 1.353 . S
C1168 H1174 0.930 . S
N1169 Li1145 1.990 . S
N1169 C1168 1.314 . S
N1169 C1172 1.279 . S
C1170 C1168 1.353 . S
C1170 C1173 1.348 . S
C1170 H1218 0.929 . S
C1171 C1172 1.358 . S
C1171 C1173 1.356 . S
C1171 H1219 0.930 . S
C1172 N1169 1.279 . S
C1172 C1171 1.358 . S
C1172 H1175 0.930 . S
C1173 C1170 1.348 . S
C1173 C1171 1.356 . S
H1174 C1168 0.930 . S
H1175 C1172 0.930 . S
C1176 C1178 1.348 . S
C1176 C1179 1.356 . S
C1176 O1206 1.325 . S
N1177 C1180 1.314 . S
N1177 C1181 1.279 . S
C1178 C1176 1.348 . S
C1178 C1180 1.353 . S
C1178 H1220 0.929 . S
C1179 C1176 1.356 . S
C1179 C1181 1.358 . S
C1179 H1221 0.930 . S
C1180 N1177 1.314 . S
C1180 C1178 1.353 . S
C1180 H1222 0.930 . S
C1181 N1177 1.279 . S
C1181 C1179 1.358 . S
C1181 H1223 0.930 . S
C1182 C1183 1.348 . S
C1182 C1184 1.356 . S
C1182 O1207 1.325 . S
C1183 C1182 1.348 . S
C1183 C1185 1.353 . S
C1183 H1224 0.929 . S
C1184 C1182 1.356 . S
C1184 C1186 1.358 . S
C1184 H1225 0.930 . S
C1185 C1183 1.353 . S
C1185 N1187 1.314 . S
C1185 H1226 0.930 . S
C1186 C1184 1.358 . S
C1186 N1187 1.279 . S
C1186 H1227 0.930 . S
N1187 C1185 1.314 . S
N1187 C1186 1.279 . S
C1188 C1190 1.353 . S
C1188 N1191 1.314 . S
C1188 H1194 0.930 . S
C1189 N1191 1.279 . S
C1189 C1192 1.358 . S
C1189 H1195 0.930 . S
C1190 C1188 1.353 . S
C1190 C1193 1.348 . S
C1190 H1228 0.929 . S
N1191 Li1146 1.990 . S
N1191 C1188 1.314 . S
N1191 C1189 1.279 . S
C1192 C1189 1.358 . S
C1192 C1193 1.356 . S
C1192 H1229 0.930 . S
C1193 C1190 1.348 . S
C1193 C1192 1.356 . S
H1194 C1188 0.930 . S
H1195 C1189 0.930 . S
C1196 N1197 1.314 . S
C1196 C1198 1.353 . S
C1196 H1202 0.930 . S
N1197 Li1147 1.990 . S
N1197 C1196 1.314 . S
N1197 C1200 1.279 . S
C1198 C1196 1.353 . S
C1198 C1201 1.348 . S
C1198 H1230 0.929 . S
C1199 C1200 1.358 . S
C1199 C1201 1.356 . S
C1199 H1231 0.930 . S
C1200 N1197 1.279 . S
C1200 C1199 1.358 . S
C1200 H1203 0.930 . S
C1201 C1198 1.348 . S
C1201 C1199 1.356 . S
H1202 C1196 0.930 . S
H1203 C1200 0.930 . S
O1204 Li1144 1.956 . S
O1204 Li1145 1.970 . S
O1204 Li1146 1.961 . S
O1204 C1148 1.325 . S
O1205 Li1144 1.970 . S
O1205 Li1145 1.956 . S
O1205 Li1147 1.961 . S
O1205 C1154 1.325 . S
O1206 Li1144 1.961 . S
O1206 Li1146 1.956 . S
O1206 Li1147 1.970 . S
O1206 C1176 1.325 . S
O1207 Li1145 1.961 . S
O1207 Li1146 1.970 . S
O1207 Li1147 1.956 . S
O1207 C1182 1.325 . S
H1208 C1150 0.929 . S
H1209 C1151 0.930 . S
H1210 C1152 0.930 . S
H1211 C1153 0.930 . S
H1212 C1155 0.930 . S
H1213 C1157 0.929 . S
H1214 C1158 0.930 . S
H1215 C1159 0.930 . S
H1216 C1162 0.930 . S
H1217 C1165 0.929 . S
H1218 C1170 0.929 . S
H1219 C1171 0.930 . S
H1220 C1178 0.929 . S
H1221 C1179 0.930 . S
H1222 C1180 0.930 . S
H1223 C1181 0.930 . S
H1224 C1183 0.929 . S
H1225 C1184 0.930 . S
H1226 C1185 0.930 . S
H1227 C1186 0.930 . S
H1228 C1190 0.929 . S
H1229 C1192 0.930 . S
H1230 C1198 0.929 . S
H1231 C1199 0.930 . S
Li1232 N1249 1.990 . S
Li1232 O1292 1.956 . S
Li1232 O1293 1.970 . S
Li1232 O1294 1.961 . S
Li1233 N1257 1.990 . S
Li1233 O1292 1.970 . S
Li1233 O1293 1.956 . S
Li1233 O1295 1.961 . S
Li1234 N1279 1.990 . S
Li1234 O1292 1.961 . S
Li1234 O1294 1.956 . S
Li1234 O1295 1.970 . S
Li1235 N1285 1.990 . S
Li1235 O1293 1.961 . S
Li1235 O1294 1.970 . S
Li1235 O1295 1.956 . S
C1236 C1238 1.348 . S
C1236 C1239 1.356 . S
C1236 O1292 1.325 . S
N1237 C1240 1.314 . S
N1237 C1241 1.279 . S
C1238 C1236 1.348 . S
C1238 C1240 1.353 . S
C1238 H1296 0.929 . S
C1239 C1236 1.356 . S
C1239 C1241 1.358 . S
C1239 H1297 0.930 . S
C1240 N1237 1.314 . S
C1240 C1238 1.353 . S
C1240 H1298 0.930 . S
C1241 N1237 1.279 . S
C1241 C1239 1.358 . S
C1241 H1299 0.930 . S
C1242 C1245 1.348 . S
C1242 C1246 1.356 . S
C1242 O1293 1.325 . S
C1243 N1244 1.279 . S
C1243 C1246 1.358 . S
C1243 H1300 0.930 . S
N1244 C1243 1.279 . S
N1244 C1247 1.314 . S
C1245 C1242 1.348 . S
C1245 C1247 1.353 . S
C1245 H1301 0.929 . S
C1246 C1242 1.356 . S
C1246 C1243 1.358 . S
C1246 H1302 0.930 . S
C1247 N1244 1.314 . S
C1247 C1245 1.353 . S
C1247 H1303 0.930 . S
C1248 N1249 1.314 . S
C1248 C1253 1.353 . S
C1248 H1254 0.930 . S
N1249 Li1232 1.990 . S
N1249 C1248 1.314 . S
N1249 C1251 1.279 . S
C1250 C1251 1.358 . S
C1250 C1252 1.356 . S
C1250 H1304 0.930 . S
C1251 N1249 1.279 . S
C1251 C1250 1.358 . S
C1251 H1255 0.930 . S
C1252 C1250 1.356 . S
C1252 C1253 1.348 . S
C1253 C1248 1.353 . S
C1253 C1252 1.348 . S
C1253 H1305 0.929 . S
H1254 C1248 0.930 . S
H1255 C1251 0.930 . S
C1256 N1257 1.314 . S
C1256 C1258 1.353 . S
C1256 H1262 0.930 . S
N1257 Li1233 1.990 . S
N1257 C1256 1.314 . S
N1257 C1260 1.279 . S
C1258 C1256 1.353 . S
C1258 C1261 1.348 . S
C1258 H1306 0.929 . S
C1259 C1260 1.358 . S
C1259 C1261 1.356 . S
C1259 H1307 0.930 . S
C1260 N1257 1.279 . S
C1260 C1259 1.358 . S
C1260 H1263 0.930 . S
C1261 C1258 1.348 . S
C1261 C1259 1.356 . S
H1262 C1256 0.930 . S
H1263 C1260 0.930 . S
C1264 C1266 1.348 . S
C1264 C1267 1.356 . S
C1264 O1294 1.325 . S
N1265 C1268 1.314 . S
N1265 C1269 1.279 1_556 S
C1266 C1264 1.348 . S
C1266 C1268 1.353 1_554 S
C1266 H1308 0.929 . S
C1267 C1264 1.356 . S
C1267 C1269 1.358 . S
C1267 H1309 0.930 . S
C1268 N1265 1.314 . S
C1268 C1266 1.353 1_556 S
C1268 H1310 0.930 . S
C1269 N1265 1.279 1_554 S
C1269 C1267 1.358 . S
C1269 H1311 0.930 . S
C1270 C1271 1.348 . S
C1270 C1272 1.356 . S
C1270 O1295 1.325 . S
C1271 C1270 1.348 . S
C1271 C1273 1.353 . S
C1271 H1312 0.929 . S
C1272 C1270 1.356 . S
C1272 C1274 1.358 . S
C1272 H1313 0.930 . S
C1273 C1271 1.353 . S
C1273 N1275 1.314 . S
C1273 H1314 0.930 . S
C1274 C1272 1.358 . S
C1274 N1275 1.279 . S
C1274 H1315 0.930 . S
N1275 C1273 1.314 . S
N1275 C1274 1.279 . S
C1276 C1278 1.353 . S
C1276 N1279 1.314 . S
C1276 H1282 0.930 . S
C1277 N1279 1.279 . S
C1277 C1280 1.358 . S
C1277 H1283 0.930 . S
C1278 C1276 1.353 . S
C1278 C1281 1.348 . S
C1278 H1316 0.929 . S
N1279 Li1234 1.990 . S
N1279 C1276 1.314 . S
N1279 C1277 1.279 . S
C1280 C1277 1.358 . S
C1280 C1281 1.356 . S
C1280 H1317 0.930 1_554 S
C1281 C1278 1.348 . S
C1281 C1280 1.356 . S
H1282 C1276 0.930 . S
H1283 C1277 0.930 . S
C1284 N1285 1.314 . S
C1284 C1286 1.353 . S
C1284 H1290 0.930 . S
N1285 Li1235 1.990 . S
N1285 C1284 1.314 . S
N1285 C1288 1.279 . S
C1286 C1284 1.353 . S
C1286 C1289 1.348 . S
C1286 H1318 0.929 . S
C1287 C1288 1.358 . S
C1287 C1289 1.356 . S
C1287 H1319 0.930 . S
C1288 N1285 1.279 . S
C1288 C1287 1.358 . S
C1288 H1291 0.930 . S
C1289 C1286 1.348 . S
C1289 C1287 1.356 . S
H1290 C1284 0.930 . S
H1291 C1288 0.930 . S
O1292 Li1232 1.956 . S
O1292 Li1233 1.970 . S
O1292 Li1234 1.961 . S
O1292 C1236 1.325 . S
O1293 Li1232 1.970 . S
O1293 Li1233 1.956 . S
O1293 Li1235 1.961 . S
O1293 C1242 1.325 . S
O1294 Li1232 1.961 . S
O1294 Li1234 1.956 . S
O1294 Li1235 1.970 . S
O1294 C1264 1.325 . S
O1295 Li1233 1.961 . S
O1295 Li1234 1.970 . S
O1295 Li1235 1.956 . S
O1295 C1270 1.325 . S
H1296 C1238 0.929 . S
H1297 C1239 0.930 . S
H1298 C1240 0.930 . S
H1299 C1241 0.930 . S
H1300 C1243 0.930 . S
H1301 C1245 0.929 . S
H1302 C1246 0.930 . S
H1303 C1247 0.930 . S
H1304 C1250 0.930 . S
H1305 C1253 0.929 . S
H1306 C1258 0.929 . S
H1307 C1259 0.930 . S
H1308 C1266 0.929 . S
H1309 C1267 0.930 . S
H1310 C1268 0.930 . S
H1311 C1269 0.930 . S
H1312 C1271 0.929 . S
H1313 C1272 0.930 . S
H1314 C1273 0.930 . S
H1315 C1274 0.930 . S
H1316 C1278 0.929 . S
H1317 C1280 0.930 1_556 S
H1318 C1286 0.929 . S
H1319 C1287 0.930 . S
Li1320 N1337 1.990 . S
Li1320 O1380 1.956 . S
Li1320 O1381 1.970 . S
Li1320 O1382 1.961 . S
Li1321 N1345 1.990 . S
Li1321 O1380 1.970 . S
Li1321 O1381 1.956 . S
Li1321 O1383 1.961 . S
Li1322 N1367 1.990 . S
Li1322 O1380 1.961 . S
Li1322 O1382 1.956 . S
Li1322 O1383 1.970 . S
Li1323 N1373 1.990 . S
Li1323 O1381 1.961 . S
Li1323 O1382 1.970 . S
Li1323 O1383 1.956 . S
C1324 C1326 1.348 . S
C1324 C1327 1.356 . S
C1324 O1380 1.325 . S
N1325 C1328 1.314 . S
N1325 C1329 1.279 . S
C1326 C1324 1.348 . S
C1326 C1328 1.353 . S
C1326 H1384 0.929 . S
C1327 C1324 1.356 . S
C1327 C1329 1.358 . S
C1327 H1385 0.930 . S
C1328 N1325 1.314 . S
C1328 C1326 1.353 . S
C1328 H1386 0.930 . S
C1329 N1325 1.279 . S
C1329 C1327 1.358 . S
C1329 H1387 0.930 . S
C1330 C1333 1.348 . S
C1330 C1334 1.356 . S
C1330 O1381 1.325 . S
C1331 N1332 1.279 . S
C1331 C1334 1.358 . S
C1331 H1388 0.930 . S
N1332 C1331 1.279 . S
N1332 C1335 1.314 . S
C1333 C1330 1.348 . S
C1333 C1335 1.353 . S
C1333 H1389 0.929 . S
C1334 C1330 1.356 . S
C1334 C1331 1.358 . S
C1334 H1390 0.930 . S
C1335 N1332 1.314 . S
C1335 C1333 1.353 . S
C1335 H1391 0.930 . S
C1336 N1337 1.314 . S
C1336 C1341 1.353 . S
C1336 H1342 0.930 . S
N1337 Li1320 1.990 . S
N1337 C1336 1.314 . S
N1337 C1339 1.279 . S
C1338 C1339 1.358 . S
C1338 C1340 1.356 . S
C1338 H1392 0.930 . S
C1339 N1337 1.279 . S
C1339 C1338 1.358 . S
C1339 H1343 0.930 . S
C1340 C1338 1.356 . S
C1340 C1341 1.348 . S
C1341 C1336 1.353 . S
C1341 C1340 1.348 . S
C1341 H1393 0.929 . S
H1342 C1336 0.930 . S
H1343 C1339 0.930 . S
C1344 N1345 1.314 . S
C1344 C1346 1.353 . S
C1344 H1350 0.930 . S
N1345 Li1321 1.990 . S
N1345 C1344 1.314 . S
N1345 C1348 1.279 . S
C1346 C1344 1.353 . S
C1346 C1349 1.348 . S
C1346 H1394 0.929 . S
C1347 C1348 1.358 . S
C1347 C1349 1.356 . S
C1347 H1395 0.930 . S
C1348 N1345 1.279 . S
C1348 C1347 1.358 . S
C1348 H1351 0.930 . S
C1349 C1346 1.348 . S
C1349 C1347 1.356 . S
H1350 C1344 0.930 . S
H1351 C1348 0.930 . S
C1352 C1354 1.348 . S
C1352 C1355 1.356 . S
C1352 O1382 1.325 . S
N1353 C1356 1.314 . S
N1353 C1357 1.279 . S
C1354 C1352 1.348 . S
C1354 C1356 1.353 . S
C1354 H1396 0.929 . S
C1355 C1352 1.356 . S
C1355 C1357 1.358 . S
C1355 H1397 0.930 . S
C1356 N1353 1.314 . S
C1356 C1354 1.353 . S
C1356 H1398 0.930 . S
C1357 N1353 1.279 . S
C1357 C1355 1.358 . S
C1357 H1399 0.930 . S
C1358 C1359 1.348 . S
C1358 C1360 1.356 . S
C1358 O1383 1.325 . S
C1359 C1358 1.348 . S
C1359 C1361 1.353 . S
C1359 H1400 0.929 . S
C1360 C1358 1.356 . S
C1360 C1362 1.358 . S
C1360 H1401 0.930 . S
C1361 C1359 1.353 . S
C1361 N1363 1.314 . S
C1361 H1402 0.930 . S
C1362 C1360 1.358 . S
C1362 N1363 1.279 . S
C1362 H1403 0.930 . S
N1363 C1361 1.314 . S
N1363 C1362 1.279 . S
C1364 C1366 1.353 . S
C1364 N1367 1.314 . S
C1364 H1370 0.930 . S
C1365 N1367 1.279 . S
C1365 C1368 1.358 . S
C1365 H1371 0.930 . S
C1366 C1364 1.353 . S
C1366 C1369 1.348 . S
C1366 H1404 0.929 . S
N1367 Li1322 1.990 . S
N1367 C1364 1.314 . S
N1367 C1365 1.279 . S
C1368 C1365 1.358 . S
C1368 C1369 1.356 . S
C1368 H1405 0.930 . S
C1369 C1366 1.348 . S
C1369 C1368 1.356 . S
H1370 C1364 0.930 . S
H1371 C1365 0.930 . S
C1372 N1373 1.314 . S
C1372 C1374 1.353 . S
C1372 H1378 0.930 . S
N1373 Li1323 1.990 . S
N1373 C1372 1.314 . S
N1373 C1376 1.279 . S
C1374 C1372 1.353 . S
C1374 C1377 1.348 . S
C1374 H1406 0.929 . S
C1375 C1376 1.358 . S
C1375 C1377 1.356 . S
C1375 H1407 0.930 . S
C1376 N1373 1.279 . S
C1376 C1375 1.358 . S
C1376 H1379 0.930 . S
C1377 C1374 1.348 . S
C1377 C1375 1.356 . S
H1378 C1372 0.930 . S
H1379 C1376 0.930 . S
O1380 Li1320 1.956 . S
O1380 Li1321 1.970 . S
O1380 Li1322 1.961 . S
O1380 C1324 1.325 . S
O1381 Li1320 1.970 . S
O1381 Li1321 1.956 . S
O1381 Li1323 1.961 . S
O1381 C1330 1.325 . S
O1382 Li1320 1.961 . S
O1382 Li1322 1.956 . S
O1382 Li1323 1.970 . S
O1382 C1352 1.325 . S
O1383 Li1321 1.961 . S
O1383 Li1322 1.970 . S
O1383 Li1323 1.956 . S
O1383 C1358 1.325 . S
H1384 C1326 0.929 . S
H1385 C1327 0.930 . S
H1386 C1328 0.930 . S
H1387 C1329 0.930 . S
H1388 C1331 0.930 . S
H1389 C1333 0.929 . S
H1390 C1334 0.930 . S
H1391 C1335 0.930 . S
H1392 C1338 0.930 . S
H1393 C1341 0.929 . S
H1394 C1346 0.929 . S
H1395 C1347 0.930 . S
H1396 C1354 0.929 . S
H1397 C1355 0.930 . S
H1398 C1356 0.930 . S
H1399 C1357 0.930 . S
H1400 C1359 0.929 . S
H1401 C1360 0.930 . S
H1402 C1361 0.930 . S
H1403 C1362 0.930 . S
H1404 C1366 0.929 . S
H1405 C1368 0.930 . S
H1406 C1374 0.929 . S
H1407 C1375 0.930 . S
C1408 C1409 1.363 1_556 S
C1408 C1414 1.379 . S
C1408 N1416 1.356 . S
C1409 C1408 1.363 1_554 S
C1409 C1415 1.363 . S
C1410 C1411 1.363 1_554 S
C1410 C1415 1.379 . S
C1410 N1417 1.356 . S
C1411 C1410 1.363 1_556 S
C1411 C1414 1.363 . S
N1412 C1414 1.356 . S
N1412 H1424 0.984 . S
N1412 H1425 0.985 . S
N1413 C1415 1.356 . S
N1413 H1418 0.984 . S
N1413 H1419 0.985 . S
C1414 C1408 1.379 . S
C1414 C1411 1.363 . S
C1414 N1412 1.356 . S
C1415 C1409 1.363 . S
C1415 C1410 1.379 . S
C1415 N1413 1.356 . S
N1416 C1408 1.356 . S
N1416 H1422 0.984 . S
N1416 H1423 0.984 1_556 S
N1417 C1410 1.356 . S
N1417 H1420 0.984 1_554 S
N1417 H1421 0.985 . S
H1418 N1413 0.984 . S
H1419 N1413 0.985 . S
H1420 N1417 0.984 1_556 S
H1421 N1417 0.985 . S
H1422 N1416 0.984 . S
H1423 N1416 0.984 1_554 S
H1424 N1412 0.984 . S
H1425 N1412 0.985 . S
C1426 C1427 1.363 . S
C1426 C1432 1.379 . S
C1426 N1434 1.356 . S
C1427 C1426 1.363 . S
C1427 C1433 1.363 . S
C1428 C1429 1.363 . S
C1428 C1433 1.379 . S
C1428 N1435 1.356 . S
C1429 C1428 1.363 . S
C1429 C1432 1.363 . S
N1430 C1432 1.356 . S
N1430 H1442 0.984 . S
N1430 H1443 0.985 . S
N1431 C1433 1.356 . S
N1431 H1436 0.984 . S
N1431 H1437 0.985 . S
C1432 C1426 1.379 . S
C1432 C1429 1.363 . S
C1432 N1430 1.356 . S
C1433 C1427 1.363 . S
C1433 C1428 1.379 . S
C1433 N1431 1.356 . S
N1434 C1426 1.356 . S
N1434 H1440 0.984 . S
N1434 H1441 0.984 . S
N1435 C1428 1.356 . S
N1435 H1438 0.984 . S
N1435 H1439 0.985 . S
H1436 N1431 0.984 . S
H1437 N1431 0.985 . S
H1438 N1435 0.984 . S
H1439 N1435 0.985 . S
H1440 N1434 0.984 . S
H1441 N1434 0.984 . S
H1442 N1430 0.984 . S
H1443 N1430 0.985 . S
C1444 C1445 1.363 1_554 S
C1444 C1450 1.379 . S
C1444 N1452 1.356 . S
C1445 C1444 1.363 1_556 S
C1445 C1451 1.363 . S
C1446 C1447 1.363 1_556 S
C1446 C1451 1.379 . S
C1446 N1453 1.356 . S
C1447 C1446 1.363 1_554 S
C1447 C1450 1.363 . S
N1448 C1450 1.356 . S
N1448 H1460 0.984 . S
N1448 H1461 0.985 . S
N1449 C1451 1.356 . S
N1449 H1454 0.984 . S
N1449 H1455 0.985 . S
C1450 C1444 1.379 . S
C1450 C1447 1.363 . S
C1450 N1448 1.356 . S
C1451 C1445 1.363 . S
C1451 C1446 1.379 . S
C1451 N1449 1.356 . S
N1452 C1444 1.356 . S
N1452 H1458 0.984 . S
N1452 H1459 0.984 1_554 S
N1453 C1446 1.356 . S
N1453 H1456 0.984 1_556 S
N1453 H1457 0.985 . S
H1454 N1449 0.984 . S
H1455 N1449 0.985 . S
H1456 N1453 0.984 1_554 S
H1457 N1453 0.985 . S
H1458 N1452 0.984 . S
H1459 N1452 0.984 1_556 S
H1460 N1448 0.984 . S
H1461 N1448 0.985 . S
C1462 C1463 1.363 . S
C1462 C1468 1.379 . S
C1462 N1470 1.356 . S
C1463 C1462 1.363 . S
C1463 C1469 1.363 . S
C1464 C1465 1.363 . S
C1464 C1469 1.379 . S
C1464 N1471 1.356 . S
C1465 C1464 1.363 . S
C1465 C1468 1.363 . S
N1466 C1468 1.356 . S
N1466 H1478 0.984 . S
N1466 H1479 0.985 . S
N1467 C1469 1.356 . S
N1467 H1472 0.984 . S
N1467 H1473 0.985 . S
C1468 C1462 1.379 . S
C1468 C1465 1.363 . S
C1468 N1466 1.356 . S
C1469 C1463 1.363 . S
C1469 C1464 1.379 . S
C1469 N1467 1.356 . S
N1470 C1462 1.356 . S
N1470 H1476 0.984 . S
N1470 H1477 0.984 . S
N1471 C1464 1.356 . S
N1471 H1474 0.984 . S
N1471 H1475 0.985 . S
H1472 N1467 0.984 . S
H1473 N1467 0.985 . S
H1474 N1471 0.984 . S
H1475 N1471 0.985 . S
H1476 N1470 0.984 . S
H1477 N1470 0.984 . S
H1478 N1466 0.984 . S
H1479 N1466 0.985 . S
C1480 C1481 1.363 . S
C1480 C1486 1.379 . S
C1480 N1488 1.356 . S
C1481 C1480 1.363 . S
C1481 C1487 1.363 1_554 S
C1482 C1483 1.363 . S
C1482 C1487 1.379 . S
C1482 N1489 1.356 . S
C1483 C1482 1.363 . S
C1483 C1486 1.363 1_556 S
N1484 C1486 1.356 . S
N1484 H1496 0.984 . S
N1484 H1497 0.985 . S
N1485 C1487 1.356 . S
N1485 H1490 0.984 . S
N1485 H1491 0.985 . S
C1486 C1480 1.379 . S
C1486 C1483 1.363 1_554 S
C1486 N1484 1.356 . S
C1487 C1481 1.363 1_556 S
C1487 C1482 1.379 . S
C1487 N1485 1.356 . S
N1488 C1480 1.356 . S
N1488 H1494 0.984 . S
N1488 H1495 0.984 . S
N1489 C1482 1.356 . S
N1489 H1492 0.984 . S
N1489 H1493 0.985 . S
H1490 N1485 0.984 . S
H1491 N1485 0.985 . S
H1492 N1489 0.984 . S
H1493 N1489 0.985 . S
H1494 N1488 0.984 . S
H1495 N1488 0.984 . S
H1496 N1484 0.984 . S
H1497 N1484 0.985 . S
C1498 C1499 1.363 . S
C1498 C1504 1.379 . S
C1498 N1506 1.356 . S
C1499 C1498 1.363 . S
C1499 C1505 1.363 . S
C1500 C1501 1.363 . S
C1500 C1505 1.379 . S
C1500 N1507 1.356 . S
C1501 C1500 1.363 . S
C1501 C1504 1.363 . S
N1502 C1504 1.356 . S
N1502 H1514 0.984 . S
N1502 H1515 0.985 . S
N1503 C1505 1.356 . S
N1503 H1508 0.984 . S
N1503 H1509 0.985 . S
C1504 C1498 1.379 . S
C1504 C1501 1.363 . S
C1504 N1502 1.356 . S
C1505 C1499 1.363 . S
C1505 C1500 1.379 . S
C1505 N1503 1.356 . S
N1506 C1498 1.356 . S
N1506 H1512 0.984 . S
N1506 H1513 0.984 . S
N1507 C1500 1.356 . S
N1507 H1510 0.984 . S
N1507 H1511 0.985 . S
H1508 N1503 0.984 . S
H1509 N1503 0.985 . S
H1510 N1507 0.984 . S
H1511 N1507 0.985 . S
H1512 N1506 0.984 . S
H1513 N1506 0.984 . S
H1514 N1502 0.984 . S
H1515 N1502 0.985 . S
C1516 C1517 1.363 1_554 S
C1516 C1522 1.379 . S
C1516 N1524 1.356 . S
C1517 C1516 1.363 1_556 S
C1517 C1523 1.363 . S
C1518 C1519 1.363 1_556 S
C1518 C1523 1.379 . S
C1518 N1525 1.356 . S
C1519 C1518 1.363 1_554 S
C1519 C1522 1.363 . S
N1520 C1522 1.356 . S
N1520 H1532 0.984 . S
N1520 H1533 0.985 . S
N1521 C1523 1.356 . S
N1521 H1526 0.984 . S
N1521 H1527 0.985 . S
C1522 C1516 1.379 . S
C1522 C1519 1.363 . S
C1522 N1520 1.356 . S
C1523 C1517 1.363 . S
C1523 C1518 1.379 . S
C1523 N1521 1.356 . S
N1524 C1516 1.356 . S
N1524 H1530 0.984 . S
N1524 H1531 0.984 . S
N1525 C1518 1.356 . S
N1525 H1528 0.984 . S
N1525 H1529 0.985 . S
H1526 N1521 0.984 . S
H1527 N1521 0.985 . S
H1528 N1525 0.984 . S
H1529 N1525 0.985 . S
H1530 N1524 0.984 . S
H1531 N1524 0.984 . S
H1532 N1520 0.984 . S
H1533 N1520 0.985 . S
C1534 C1535 1.363 . S
C1534 C1540 1.379 . S
C1534 N1542 1.356 . S
C1535 C1534 1.363 . S
C1535 C1541 1.363 . S
C1536 C1537 1.363 . S
C1536 C1541 1.379 . S
C1536 N1543 1.356 . S
C1537 C1536 1.363 . S
C1537 C1540 1.363 . S
N1538 C1540 1.356 . S
N1538 H1550 0.984 . S
N1538 H1551 0.985 . S
N1539 C1541 1.356 . S
N1539 H1544 0.984 . S
N1539 H1545 0.985 . S
C1540 C1534 1.379 . S
C1540 C1537 1.363 . S
C1540 N1538 1.356 . S
C1541 C1535 1.363 . S
C1541 C1536 1.379 . S
C1541 N1539 1.356 . S
N1542 C1534 1.356 . S
N1542 H1548 0.984 . S
N1542 H1549 0.984 . S
N1543 C1536 1.356 . S
N1543 H1546 0.984 . S
N1543 H1547 0.985 . S
H1544 N1539 0.984 . S
H1545 N1539 0.985 . S
H1546 N1543 0.984 . S
H1547 N1543 0.985 . S
H1548 N1542 0.984 . S
H1549 N1542 0.984 . S
H1550 N1538 0.984 . S
H1551 N1538 0.985 . S
C1552 C1553 1.363 1_556 S
C1552 C1558 1.379 1_545 S
C1552 N1560 1.356 . S
C1553 C1552 1.363 1_554 S
C1553 C1559 1.363 . S
C1554 C1555 1.363 1_554 S
C1554 C1559 1.379 1_565 S
C1554 N1561 1.356 . S
C1555 C1554 1.363 1_556 S
C1555 C1558 1.363 . S
N1556 C1558 1.356 . S
N1556 H1568 0.956 1_565 S
N1556 H1569 0.985 . S
N1557 C1559 1.356 . S
N1557 H1562 0.984 . S
N1557 H1563 0.956 1_545 S
C1558 C1552 1.379 1_565 S
C1558 C1555 1.363 . S
C1558 N1556 1.356 . S
C1559 C1553 1.363 . S
C1559 C1554 1.379 1_545 S
C1559 N1557 1.356 . S
N1560 C1552 1.356 . S
N1560 H1566 0.984 . S
N1560 H1567 0.984 1_556 S
N1561 C1554 1.356 . S
N1561 H1564 0.984 1_554 S
N1561 H1565 0.985 . S
H1562 N1557 0.984 . S
H1563 N1557 0.956 1_565 S
H1564 N1561 0.984 1_556 S
H1565 N1561 0.985 . S
H1566 N1560 0.984 . S
H1567 N1560 0.984 1_554 S
H1568 N1556 0.956 1_545 S
H1569 N1556 0.985 . S
C1570 C1571 1.363 . S
C1570 C1576 1.379 1_565 S
C1570 N1578 1.356 . S
C1571 C1570 1.363 . S
C1571 C1577 1.363 . S
C1572 C1573 1.363 . S
C1572 C1577 1.379 1_545 S
C1572 N1579 1.356 . S
C1573 C1572 1.363 . S
C1573 C1576 1.363 . S
N1574 C1576 1.356 . S
N1574 H1586 0.984 . S
N1574 H1587 0.985 . S
N1575 C1577 1.356 . S
N1575 H1580 0.984 . S
N1575 H1581 0.985 . S
C1576 C1570 1.379 1_545 S
C1576 C1573 1.363 . S
C1576 N1574 1.356 . S
C1577 C1571 1.363 . S
C1577 C1572 1.379 1_565 S
C1577 N1575 1.356 . S
N1578 C1570 1.356 . S
N1578 H1584 0.984 . S
N1578 H1585 0.984 . S
N1579 C1572 1.356 . S
N1579 H1582 0.984 . S
N1579 H1583 0.985 . S
H1580 N1575 0.984 . S
H1581 N1575 0.985 . S
H1582 N1579 0.984 . S
H1583 N1579 0.985 . S
H1584 N1578 0.984 . S
H1585 N1578 0.984 . S
H1586 N1574 0.984 . S
H1587 N1574 0.985 . S
C1588 C1589 1.363 1_554 S
C1588 C1594 1.381 . S
C1588 N1596 1.356 . S
C1589 C1588 1.363 1_556 S
C1589 C1595 1.360 1_565 S
C1590 C1591 1.363 1_556 S
C1590 C1595 1.381 . S
C1590 N1597 1.356 . S
C1591 C1590 1.363 1_554 S
C1591 C1594 1.360 1_545 S
N1592 C1594 1.355 1_545 S
N1592 H1604 0.984 1_545 S
N1592 H1605 0.985 . S
N1593 C1595 1.355 1_565 S
N1593 H1598 0.984 . S
N1593 H1599 0.985 1_565 S
C1594 C1588 1.381 . S
C1594 C1591 1.360 1_565 S
C1594 N1592 1.355 1_565 S
C1595 C1589 1.360 1_545 S
C1595 C1590 1.381 . S
C1595 N1593 1.355 1_545 S
N1596 C1588 1.356 . S
N1596 H1602 0.984 . S
N1596 H1603 0.984 1_554 S
N1597 C1590 1.356 . S
N1597 H1600 0.984 1_556 S
N1597 H1601 0.985 . S
H1598 N1593 0.984 . S
H1599 N1593 0.985 1_545 S
H1600 N1597 0.984 1_554 S
H1601 N1597 0.985 . S
H1602 N1596 0.984 . S
H1603 N1596 0.984 1_556 S
H1604 N1592 0.984 1_565 S
H1605 N1592 0.985 . S
C1606 C1607 1.363 . S
C1606 C1612 1.399 . S
C1606 N1614 1.356 . S
C1607 C1606 1.363 . S
C1607 C1613 1.341 1_545 S
C1608 C1609 1.363 . S
C1608 C1613 1.399 . S
C1608 N1615 1.356 . S
C1609 C1608 1.363 . S
C1609 C1612 1.341 1_565 S
N1610 C1612 1.350 1_565 S
N1610 H1622 0.984 1_565 S
N1610 H1623 0.985 . S
N1611 C1613 1.350 1_545 S
N1611 H1616 0.984 . S
N1611 H1617 0.985 1_545 S
C1612 C1606 1.399 . S
C1612 C1609 1.341 1_545 S
C1612 N1610 1.350 1_545 S
C1613 C1607 1.341 1_565 S
C1613 C1608 1.399 . S
C1613 N1611 1.350 1_565 S
N1614 C1606 1.356 . S
N1614 H1620 0.984 . S
N1614 H1621 0.984 . S
N1615 C1608 1.356 . S
N1615 H1618 0.984 . S
N1615 H1619 0.985 . S
H1616 N1611 0.984 . S
H1617 N1611 0.985 1_565 S
H1618 N1615 0.984 . S
H1619 N1615 0.985 . S
H1620 N1614 0.984 . S
H1621 N1614 0.984 . S
H1622 N1610 0.984 1_545 S
H1623 N1610 0.985 . S
C1624 C1625 1.363 . S
C1624 C1630 1.379 . S
C1624 N1632 1.356 . S
C1625 C1624 1.363 . S
C1625 C1631 1.363 1_556 S
C1626 C1627 1.363 . S
C1626 C1631 1.379 . S
C1626 N1633 1.356 . S
C1627 C1626 1.363 . S
C1627 C1630 1.363 1_554 S
N1628 C1630 1.359 . S
N1628 H1640 0.998 . S
N1628 H1641 0.970 1_556 S
N1629 C1631 1.359 . S
N1629 H1634 0.970 1_554 S
N1629 H1635 0.998 . S
C1630 C1624 1.379 . S
C1630 C1627 1.363 1_556 S
C1630 N1628 1.359 . S
C1631 C1625 1.363 1_554 S
C1631 C1626 1.379 . S
C1631 N1629 1.359 . S
N1632 C1624 1.356 . S
N1632 H1638 0.984 . S
N1632 H1639 0.984 . S
N1633 C1626 1.356 . S
N1633 H1636 0.984 . S
N1633 H1637 0.985 . S
H1634 N1629 0.970 1_556 S
H1635 N1629 0.998 . S
H1636 N1633 0.984 . S
H1637 N1633 0.985 . S
H1638 N1632 0.984 . S
H1639 N1632 0.984 . S
H1640 N1628 0.998 . S
H1641 N1628 0.970 1_554 S
C1642 C1643 1.363 . S
C1642 C1648 1.379 . S
C1642 N1650 1.356 . S
C1643 C1642 1.363 . S
C1643 C1649 1.363 . S
C1644 C1645 1.363 . S
C1644 C1649 1.379 . S
C1644 N1651 1.356 . S
C1645 C1644 1.363 . S
C1645 C1648 1.363 . S
N1646 C1648 1.356 . S
N1646 H1658 0.984 . S
N1646 H1659 0.985 . S
N1647 C1649 1.356 . S
N1647 H1652 0.984 . S
N1647 H1653 0.985 . S
C1648 C1642 1.379 . S
C1648 C1645 1.363 . S
C1648 N1646 1.356 . S
C1649 C1643 1.363 . S
C1649 C1644 1.379 . S
C1649 N1647 1.356 . S
N1650 C1642 1.356 . S
N1650 H1656 0.984 . S
N1650 H1657 0.984 . S
N1651 C1644 1.356 . S
N1651 H1654 0.984 . S
N1651 H1655 0.985 . S
H1652 N1647 0.984 . S
H1653 N1647 0.985 . S
H1654 N1651 0.984 . S
H1655 N1651 0.985 . S
H1656 N1650 0.984 . S
H1657 N1650 0.984 . S
H1658 N1646 0.984 . S
H1659 N1646 0.985 . S
C1660 C1661 1.363 1_556 S
C1660 C1666 1.379 . S
C1660 N1668 1.356 . S
C1661 C1660 1.363 1_554 S
C1661 C1667 1.363 . S
C1662 C1663 1.363 1_554 S
C1662 C1667 1.379 . S
C1662 N1669 1.356 . S
C1663 C1662 1.363 1_556 S
C1663 C1666 1.363 . S
N1664 C1666 1.356 . S
N1664 H1676 0.984 . S
N1664 H1677 0.985 . S
N1665 C1667 1.356 . S
N1665 H1670 0.984 . S
N1665 H1671 0.985 . S
C1666 C1660 1.379 . S
C1666 C1663 1.363 . S
C1666 N1664 1.356 . S
C1667 C1661 1.363 . S
C1667 C1662 1.379 . S
C1667 N1665 1.356 . S
N1668 C1660 1.356 . S
N1668 H1674 0.984 . S
N1668 H1675 0.984 1_556 S
N1669 C1662 1.356 . S
N1669 H1672 0.984 1_554 S
N1669 H1673 0.985 . S
H1670 N1665 0.984 . S
H1671 N1665 0.985 . S
H1672 N1669 0.984 1_556 S
H1673 N1669 0.985 . S
H1674 N1668 0.984 . S
H1675 N1668 0.984 1_554 S
H1676 N1664 0.984 . S
H1677 N1664 0.985 . S
C1678 C1679 1.363 . S
C1678 C1684 1.379 . S
C1678 N1686 1.356 . S
C1679 C1678 1.363 . S
C1679 C1685 1.363 . S
C1680 C1681 1.363 . S
C1680 C1685 1.379 . S
C1680 N1687 1.356 . S
C1681 C1680 1.363 . S
C1681 C1684 1.363 . S
N1682 C1684 1.356 . S
N1682 H1694 0.984 . S
N1682 H1695 0.985 . S
N1683 C1685 1.356 . S
N1683 H1688 0.984 . S
N1683 H1689 0.985 . S
C1684 C1678 1.379 . S
C1684 C1681 1.363 . S
C1684 N1682 1.356 . S
C1685 C1679 1.363 . S
C1685 C1680 1.379 . S
C1685 N1683 1.356 . S
N1686 C1678 1.356 . S
N1686 H1692 0.984 . S
N1686 H1693 0.984 . S
N1687 C1680 1.356 . S
N1687 H1690 0.984 . S
N1687 H1691 0.985 . S
H1688 N1683 0.984 . S
H1689 N1683 0.985 . S
H1690 N1687 0.984 . S
H1691 N1687 0.985 . S
H1692 N1686 0.984 . S
H1693 N1686 0.984 . S
H1694 N1682 0.984 . S
H1695 N1682 0.985 . S
C1696 C1697 1.363 . S
C1696 C1702 1.379 . S
C1696 N1704 1.356 . S
C1697 C1696 1.363 . S
C1697 C1703 1.363 . S
C1698 C1699 1.363 . S
C1698 C1703 1.379 . S
C1698 N1705 1.356 . S
C1699 C1698 1.363 . S
C1699 C1702 1.363 . S
N1700 C1702 1.356 . S
N1700 H1712 0.984 . S
N1700 H1713 0.985 . S
N1701 C1703 1.356 . S
N1701 H1706 0.984 . S
N1701 H1707 0.985 . S
C1702 C1696 1.379 . S
C1702 C1699 1.363 . S
C1702 N1700 1.356 . S
C1703 C1697 1.363 . S
C1703 C1698 1.379 . S
C1703 N1701 1.356 . S
N1704 C1696 1.356 . S
N1704 H1710 0.984 . S
N1704 H1711 0.984 . S
N1705 C1698 1.356 . S
N1705 H1708 0.984 . S
N1705 H1709 0.985 . S
H1706 N1701 0.984 . S
H1707 N1701 0.985 . S
H1708 N1705 0.984 . S
H1709 N1705 0.985 . S
H1710 N1704 0.984 . S
H1711 N1704 0.984 . S
H1712 N1700 0.984 . S
H1713 N1700 0.985 . S
C1714 C1715 1.363 . S
C1714 C1720 1.379 1_655 S
C1714 N1722 1.356 . S
C1715 C1714 1.363 . S
C1715 C1721 1.363 . S
C1716 C1717 1.363 . S
C1716 C1721 1.379 1_455 S
C1716 N1723 1.356 . S
C1717 C1716 1.363 . S
C1717 C1720 1.363 . S
N1718 C1720 1.356 . S
N1718 H1730 0.984 . S
N1718 H1731 0.985 . S
N1719 C1721 1.356 . S
N1719 H1724 0.984 . S
N1719 H1725 0.985 . S
C1720 C1714 1.379 1_455 S
C1720 C1717 1.363 . S
C1720 N1718 1.356 . S
C1721 C1715 1.363 . S
C1721 C1716 1.379 1_655 S
C1721 N1719 1.356 . S
N1722 C1714 1.356 . S
N1722 H1728 0.984 . S
N1722 H1729 0.984 . S
N1723 C1716 1.356 . S
N1723 H1726 0.984 . S
N1723 H1727 0.985 . S
H1724 N1719 0.984 . S
H1725 N1719 0.985 . S
H1726 N1723 0.984 . S
H1727 N1723 0.985 . S
H1728 N1722 0.984 . S
H1729 N1722 0.984 . S
H1730 N1718 0.984 . S
H1731 N1718 0.985 . S
C1732 C1733 1.363 . S
C1732 C1738 1.379 . S
C1732 N1740 1.356 . S
C1733 C1732 1.363 . S
C1733 C1739 1.363 . S
C1734 C1735 1.363 . S
C1734 C1739 1.379 . S
C1734 N1741 1.356 . S
C1735 C1734 1.363 . S
C1735 C1738 1.363 . S
N1736 C1738 1.356 . S
N1736 H1748 0.984 . S
N1736 H1749 0.985 . S
N1737 C1739 1.356 . S
N1737 H1742 0.984 . S
N1737 H1743 0.985 . S
C1738 C1732 1.379 . S
C1738 C1735 1.363 . S
C1738 N1736 1.356 . S
C1739 C1733 1.363 . S
C1739 C1734 1.379 . S
C1739 N1737 1.356 . S
N1740 C1732 1.356 . S
N1740 H1746 0.984 . S
N1740 H1747 0.984 . S
N1741 C1734 1.356 . S
N1741 H1744 0.984 . S
N1741 H1745 0.985 . S
H1742 N1737 0.984 . S
H1743 N1737 0.985 . S
H1744 N1741 0.984 . S
H1745 N1741 0.985 . S
H1746 N1740 0.984 . S
H1747 N1740 0.984 . S
H1748 N1736 0.984 . S
H1749 N1736 0.985 . S
C1750 C1751 1.363 . S
C1750 C1756 1.379 1_455 S
C1750 N1758 1.356 . S
C1751 C1750 1.363 . S
C1751 C1757 1.363 . S
C1752 C1753 1.363 . S
C1752 C1757 1.379 1_655 S
C1752 N1759 1.356 . S
C1753 C1752 1.363 . S
C1753 C1756 1.363 . S
N1754 C1756 1.356 . S
N1754 H1766 0.984 . S
N1754 H1767 0.985 . S
N1755 C1757 1.356 . S
N1755 H1760 0.984 . S
N1755 H1761 0.985 . S
C1756 C1750 1.379 1_655 S
C1756 C1753 1.363 . S
C1756 N1754 1.356 . S
C1757 C1751 1.363 . S
C1757 C1752 1.379 1_455 S
C1757 N1755 1.356 . S
N1758 C1750 1.356 . S
N1758 H1764 0.984 . S
N1758 H1765 0.984 . S
N1759 C1752 1.356 . S
N1759 H1762 0.984 . S
N1759 H1763 0.985 . S
H1760 N1755 0.984 . S
H1761 N1755 0.985 . S
H1762 N1759 0.984 . S
H1763 N1759 0.985 . S
H1764 N1758 0.984 . S
H1765 N1758 0.984 . S
H1766 N1754 0.984 . S
H1767 N1754 0.985 . S
C1768 C1769 1.363 . S
C1768 C1774 1.379 1_455 S
C1768 N1776 1.356 . S
C1769 C1768 1.363 . S
C1769 C1775 1.363 . S
C1770 C1771 1.363 . S
C1770 C1775 1.379 1_655 S
C1770 N1777 1.356 . S
C1771 C1770 1.363 . S
C1771 C1774 1.363 . S
N1772 C1774 1.356 . S
N1772 H1784 0.984 . S
N1772 H1785 0.985 . S
N1773 C1775 1.356 . S
N1773 H1778 0.984 . S
N1773 H1779 0.985 . S
C1774 C1768 1.379 1_655 S
C1774 C1771 1.363 . S
C1774 N1772 1.356 . S
C1775 C1769 1.363 . S
C1775 C1770 1.379 1_455 S
C1775 N1773 1.356 . S
N1776 C1768 1.356 . S
N1776 H1782 0.984 . S
N1776 H1783 0.984 . S
N1777 C1770 1.356 . S
N1777 H1780 0.984 . S
N1777 H1781 0.985 . S
H1778 N1773 0.984 . S
H1779 N1773 0.985 . S
H1780 N1777 0.984 . S
H1781 N1777 0.985 . S
H1782 N1776 0.984 . S
H1783 N1776 0.984 . S
H1784 N1772 0.984 . S
H1785 N1772 0.985 . S
C1786 C1787 1.363 . S
C1786 C1792 1.379 . S
C1786 N1794 1.356 . S
C1787 C1786 1.363 . S
C1787 C1793 1.363 . S
C1788 C1789 1.363 . S
C1788 C1793 1.379 . S
C1788 N1795 1.356 . S
C1789 C1788 1.363 . S
C1789 C1792 1.363 . S
N1790 C1792 1.356 . S
N1790 H1802 0.984 . S
N1790 H1803 0.985 . S
N1791 C1793 1.356 . S
N1791 H1796 0.984 . S
N1791 H1797 0.985 . S
C1792 C1786 1.379 . S
C1792 C1789 1.363 . S
C1792 N1790 1.356 . S
C1793 C1787 1.363 . S
C1793 C1788 1.379 . S
C1793 N1791 1.356 . S
N1794 C1786 1.356 . S
N1794 H1800 0.984 . S
N1794 H1801 0.984 . S
N1795 C1788 1.356 . S
N1795 H1798 0.984 . S
N1795 H1799 0.985 . S
H1796 N1791 0.984 . S
H1797 N1791 0.985 . S
H1798 N1795 0.984 . S
H1799 N1795 0.985 . S
H1800 N1794 0.984 . S
H1801 N1794 0.984 . S
H1802 N1790 0.984 . S
H1803 N1790 0.985 . S
C1804 C1805 1.363 . S
C1804 C1810 1.379 1_455 S
C1804 N1812 1.356 . S
C1805 C1804 1.363 . S
C1805 C1811 1.363 . S
C1806 C1807 1.363 . S
C1806 C1811 1.379 1_655 S
C1806 N1813 1.356 . S
C1807 C1806 1.363 . S
C1807 C1810 1.363 . S
N1808 C1810 1.356 . S
N1808 H1820 0.984 . S
N1808 H1821 0.985 . S
N1809 C1811 1.356 . S
N1809 H1814 0.984 . S
N1809 H1815 0.985 . S
C1810 C1804 1.379 1_655 S
C1810 C1807 1.363 . S
C1810 N1808 1.356 . S
C1811 C1805 1.363 . S
C1811 C1806 1.379 1_455 S
C1811 N1809 1.356 . S
N1812 C1804 1.356 . S
N1812 H1818 0.984 . S
N1812 H1819 0.984 . S
N1813 C1806 1.356 . S
N1813 H1816 0.984 . S
N1813 H1817 0.985 . S
H1814 N1809 0.984 . S
H1815 N1809 0.985 . S
H1816 N1813 0.984 . S
H1817 N1813 0.985 . S
H1818 N1812 0.984 . S
H1819 N1812 0.984 . S
H1820 N1808 0.984 . S
H1821 N1808 0.985 . S
C1822 C1823 1.363 . S
C1822 C1828 1.379 . S
C1822 N1830 1.356 . S
C1823 C1822 1.363 . S
C1823 C1829 1.363 . S
C1824 C1825 1.363 . S
C1824 C1829 1.379 . S
C1824 N1831 1.356 . S
C1825 C1824 1.363 . S
C1825 C1828 1.363 . S
N1826 C1828 1.356 . S
N1826 H1838 0.984 . S
N1826 H1839 0.985 . S
N1827 C1829 1.356 . S
N1827 H1832 0.984 . S
N1827 H1833 0.985 . S
C1828 C1822 1.379 . S
C1828 C1825 1.363 . S
C1828 N1826 1.356 . S
C1829 C1823 1.363 . S
C1829 C1824 1.379 . S
C1829 N1827 1.356 . S
N1830 C1822 1.356 . S
N1830 H1836 0.984 . S
N1830 H1837 0.984 . S
N1831 C1824 1.356 . S
N1831 H1834 0.984 . S
N1831 H1835 0.985 . S
H1832 N1827 0.984 . S
H1833 N1827 0.985 . S
H1834 N1831 0.984 . S
H1835 N1831 0.985 . S
H1836 N1830 0.984 . S
H1837 N1830 0.984 . S
H1838 N1826 0.984 . S
H1839 N1826 0.985 . S
C1840 C1841 1.363 . S
C1840 C1846 1.379 . S
C1840 N1848 1.356 . S
C1841 C1840 1.363 . S
C1841 C1847 1.363 . S
C1842 C1843 1.363 . S
C1842 C1847 1.379 . S
C1842 N1849 1.356 . S
C1843 C1842 1.363 . S
C1843 C1846 1.363 . S
N1844 C1846 1.356 . S
N1844 H1856 0.984 . S
N1844 H1857 0.985 . S
N1845 C1847 1.356 . S
N1845 H1850 0.984 . S
N1845 H1851 0.985 . S
C1846 C1840 1.379 . S
C1846 C1843 1.363 . S
C1846 N1844 1.356 . S
C1847 C1841 1.363 . S
C1847 C1842 1.379 . S
C1847 N1845 1.356 . S
N1848 C1840 1.356 . S
N1848 H1854 0.984 . S
N1848 H1855 0.984 . S
N1849 C1842 1.356 . S
N1849 H1852 0.984 . S
N1849 H1853 0.985 . S
H1850 N1845 0.984 . S
H1851 N1845 0.985 . S
H1852 N1849 0.984 . S
H1853 N1849 0.985 . S
H1854 N1848 0.984 . S
H1855 N1848 0.984 . S
H1856 N1844 0.984 . S
H1857 N1844 0.985 . S
C1858 C1859 1.363 . S
C1858 C1864 1.379 . S
C1858 N1866 1.356 . S
C1859 C1858 1.363 . S
C1859 C1865 1.363 . S
C1860 C1861 1.363 . S
C1860 C1865 1.379 . S
C1860 N1867 1.356 . S
C1861 C1860 1.363 . S
C1861 C1864 1.363 . S
N1862 C1864 1.356 . S
N1862 H1874 0.984 . S
N1862 H1875 0.985 . S
N1863 C1865 1.356 . S
N1863 H1868 0.984 . S
N1863 H1869 0.985 . S
C1864 C1858 1.379 . S
C1864 C1861 1.363 . S
C1864 N1862 1.356 . S
C1865 C1859 1.363 . S
C1865 C1860 1.379 . S
C1865 N1863 1.356 . S
N1866 C1858 1.356 . S
N1866 H1872 0.984 . S
N1866 H1873 0.984 . S
N1867 C1860 1.356 . S
N1867 H1870 0.984 . S
N1867 H1871 0.985 . S
H1868 N1863 0.984 . S
H1869 N1863 0.985 . S
H1870 N1867 0.984 . S
H1871 N1867 0.985 . S
H1872 N1866 0.984 . S
H1873 N1866 0.984 . S
H1874 N1862 0.984 . S
H1875 N1862 0.985 . S
C1876 C1877 1.363 . S
C1876 C1882 1.379 . S
C1876 N1884 1.356 . S
C1877 C1876 1.363 . S
C1877 C1883 1.363 . S
C1878 C1879 1.363 . S
C1878 C1883 1.379 . S
C1878 N1885 1.356 . S
C1879 C1878 1.363 . S
C1879 C1882 1.363 . S
N1880 C1882 1.356 . S
N1880 H1892 0.984 . S
N1880 H1893 0.985 . S
N1881 C1883 1.356 . S
N1881 H1886 0.984 . S
N1881 H1887 0.985 . S
C1882 C1876 1.379 . S
C1882 C1879 1.363 . S
C1882 N1880 1.356 . S
C1883 C1877 1.363 . S
C1883 C1878 1.379 . S
C1883 N1881 1.356 . S
N1884 C1876 1.356 . S
N1884 H1890 0.984 . S
N1884 H1891 0.984 . S
N1885 C1878 1.356 . S
N1885 H1888 0.984 . S
N1885 H1889 0.985 . S
H1886 N1881 0.984 . S
H1887 N1881 0.985 . S
H1888 N1885 0.984 . S
H1889 N1885 0.985 . S
H1890 N1884 0.984 . S
H1891 N1884 0.984 . S
H1892 N1880 0.984 . S
H1893 N1880 0.985 . S
C1894 C1895 1.363 . S
C1894 C1900 1.379 . S
C1894 N1902 1.356 . S
C1895 C1894 1.363 . S
C1895 C1901 1.363 . S
C1896 C1897 1.363 . S
C1896 C1901 1.379 . S
C1896 N1903 1.356 . S
C1897 C1896 1.363 . S
C1897 C1900 1.363 . S
N1898 C1900 1.356 . S
N1898 H1910 0.984 . S
N1898 H1911 0.985 . S
N1899 C1901 1.356 . S
N1899 H1904 0.984 . S
N1899 H1905 0.985 . S
C1900 C1894 1.379 . S
C1900 C1897 1.363 . S
C1900 N1898 1.356 . S
C1901 C1895 1.363 . S
C1901 C1896 1.379 . S
C1901 N1899 1.356 . S
N1902 C1894 1.356 . S
N1902 H1908 0.984 . S
N1902 H1909 0.984 . S
N1903 C1896 1.356 . S
N1903 H1906 0.984 . S
N1903 H1907 0.985 . S
H1904 N1899 0.984 . S
H1905 N1899 0.985 . S
H1906 N1903 0.984 . S
H1907 N1903 0.985 . S
H1908 N1902 0.984 . S
H1909 N1902 0.984 . S
H1910 N1898 0.984 . S
H1911 N1898 0.985 . S
C1912 C1913 1.363 . S
C1912 C1918 1.379 . S
C1912 N1920 1.356 . S
C1913 C1912 1.363 . S
C1913 C1919 1.363 . S
C1914 C1915 1.363 . S
C1914 C1919 1.379 . S
C1914 N1921 1.356 . S
C1915 C1914 1.363 . S
C1915 C1918 1.363 . S
N1916 C1918 1.356 . S
N1916 H1928 0.984 . S
N1916 H1929 0.985 . S
N1917 C1919 1.356 . S
N1917 H1922 0.984 . S
N1917 H1923 0.985 . S
C1918 C1912 1.379 . S
C1918 C1915 1.363 . S
C1918 N1916 1.356 . S
C1919 C1913 1.363 . S
C1919 C1914 1.379 . S
C1919 N1917 1.356 . S
N1920 C1912 1.356 . S
N1920 H1926 0.984 . S
N1920 H1927 0.984 . S
N1921 C1914 1.356 . S
N1921 H1924 0.984 . S
N1921 H1925 0.985 . S
H1922 N1917 0.984 . S
H1923 N1917 0.985 . S
H1924 N1921 0.984 . S
H1925 N1921 0.985 . S
H1926 N1920 0.984 . S
H1927 N1920 0.984 . S
H1928 N1916 0.984 . S
H1929 N1916 0.985 . S
C1930 C1931 1.363 . S
C1930 C1936 1.379 . S
C1930 N1938 1.356 . S
C1931 C1930 1.363 . S
C1931 C1937 1.363 . S
C1932 C1933 1.363 . S
C1932 C1937 1.379 . S
C1932 N1939 1.356 . S
C1933 C1932 1.363 . S
C1933 C1936 1.363 . S
N1934 C1936 1.356 . S
N1934 H1946 0.984 . S
N1934 H1947 0.985 . S
N1935 C1937 1.356 . S
N1935 H1940 0.984 . S
N1935 H1941 0.985 . S
C1936 C1930 1.379 . S
C1936 C1933 1.363 . S
C1936 N1934 1.356 . S
C1937 C1931 1.363 . S
C1937 C1932 1.379 . S
C1937 N1935 1.356 . S
N1938 C1930 1.356 . S
N1938 H1944 0.984 . S
N1938 H1945 0.984 . S
N1939 C1932 1.356 . S
N1939 H1942 0.984 . S
N1939 H1943 0.985 . S
H1940 N1935 0.984 . S
H1941 N1935 0.985 . S
H1942 N1939 0.984 . S
H1943 N1939 0.985 . S
H1944 N1938 0.984 . S
H1945 N1938 0.984 . S
H1946 N1934 0.984 . S
H1947 N1934 0.985 . S
C1948 C1949 1.363 . S
C1948 C1954 1.379 . S
C1948 N1956 1.356 . S
C1949 C1948 1.363 . S
C1949 C1955 1.363 . S
C1950 C1951 1.363 . S
C1950 C1955 1.379 . S
C1950 N1957 1.356 . S
C1951 C1950 1.363 . S
C1951 C1954 1.363 . S
N1952 C1954 1.356 . S
N1952 H1964 0.984 . S
N1952 H1965 0.985 . S
N1953 C1955 1.356 . S
N1953 H1958 0.984 . S
N1953 H1959 0.985 . S
C1954 C1948 1.379 . S
C1954 C1951 1.363 . S
C1954 N1952 1.356 . S
C1955 C1949 1.363 . S
C1955 C1950 1.379 . S
C1955 N1953 1.356 . S
N1956 C1948 1.356 . S
N1956 H1962 0.984 . S
N1956 H1963 0.984 . S
N1957 C1950 1.356 . S
N1957 H1960 0.984 . S
N1957 H1961 0.985 . S
H1958 N1953 0.984 . S
H1959 N1953 0.985 . S
H1960 N1957 0.984 . S
H1961 N1957 0.985 . S
H1962 N1956 0.984 . S
H1963 N1956 0.984 . S
H1964 N1952 0.984 . S
H1965 N1952 0.985 . S
C1966 C1967 1.363 . S
C1966 C1972 1.379 . S
C1966 N1974 1.356 . S
C1967 C1966 1.363 . S
C1967 C1973 1.363 . S
C1968 C1969 1.363 . S
C1968 C1973 1.379 . S
C1968 N1975 1.356 . S
C1969 C1968 1.363 . S
C1969 C1972 1.363 . S
N1970 C1972 1.356 . S
N1970 H1982 0.984 . S
N1970 H1983 0.985 . S
N1971 C1973 1.356 . S
N1971 H1976 0.984 . S
N1971 H1977 0.985 . S
C1972 C1966 1.379 . S
C1972 C1969 1.363 . S
C1972 N1970 1.356 . S
C1973 C1967 1.363 . S
C1973 C1968 1.379 . S
C1973 N1971 1.356 . S
N1974 C1966 1.356 . S
N1974 H1980 0.984 . S
N1974 H1981 0.984 . S
N1975 C1968 1.356 . S
N1975 H1978 0.984 . S
N1975 H1979 0.985 . S
H1976 N1971 0.984 . S
H1977 N1971 0.985 . S
H1978 N1975 0.984 . S
H1979 N1975 0.985 . S
H1980 N1974 0.984 . S
H1981 N1974 0.984 . S
H1982 N1970 0.984 . S
H1983 N1970 0.985 . S
C1409 C20 1.363 . S
C1411 C1085 1.361 . S
C1427 C1164 1.361 . S
C1429 C137 1.363 . S
C1445 C233 1.363 . S
C1447 C1281 1.361 . S
C1463 C1377 1.361 . S
C1465 C284 1.363 . S
C1481 C724 1.363 . S
C1483 C381 1.361 . S
C1499 C460 1.361 . S
C1501 C841 1.363 . S
C1517 C937 1.363 . S
C1519 C577 1.361 . S
C1535 C673 1.361 . S
C1537 C988 1.363 . S
C1553 C49 1.514 . S
C1555 C205 1.514 . S
C1571 C108 1.514 . S
C1573 C313 1.514 . S
C1589 C372 1.510 . S
C1591 C585 1.510 . S
C1607 C469 1.510 . S
C1609 C665 1.510 . S
C1625 C909 1.514 . S
C1627 C753 1.514 . S
C1643 C812 1.514 . S
C1645 C1017 1.514 . S
C1661 C1289 1.510 . S
C1663 C1076 1.510 . S
C1679 C1173 1.510 . S
C1681 C1369 1.510 . S
C1697 C548 1.529 . S
C1699 C29 1.529 . S
C1715 C645 1.529 . S
C1717 C145 1.529 . S
C1733 C225 1.529 . S
C1735 C409 1.529 . S
C1751 C293 1.529 . S
C1753 C489 1.529 . S
C1769 C1252 1.529 . S
C1771 C733 1.529 . S
C1787 C849 1.529 . S
C1789 C1349 1.529 . S
C1805 C1113 1.529 . S
C1807 C929 1.529 . S
C1823 C997 1.529 . S
C1825 C1193 1.529 . S
C1841 C57 1.363 . S
C1843 C321 1.363 . S
C1859 C196 1.363 . S
C1861 C117 1.363 . S
C1877 C401 1.351 . S
C1879 C636 1.351 . S
C1895 C497 1.351 . S
C1897 C557 1.351 . S
C1913 C1025 1.363 . S
C1915 C761 1.363 . S
C1931 C821 1.363 . S
C1933 C900 1.363 . S
C1949 C1340 1.351 . S
C1951 C1105 1.351 . S
C1967 C1201 1.351 . S
C1969 C1261 1.351 . S
