# Generated by pormake.
# Topology ukh, (4)-cn, num edge types: 1
# Building blocks:
#     Node 0, Type 0, BuildingBlock: ICAMEG_clean_sbu_1, # of connection points: 4
#     Node 1, Type 0, BuildingBlock: ICAMEG_clean_sbu_1, # of connection points: 4
#     Node 2, Type 0, BuildingBlock: ICAMEG_clean_sbu_1, # of connection points: 4
#     Node 3, Type 0, BuildingBlock: ICAMEG_clean_sbu_1, # of connection points: 4
#     Node 4, Type 0, BuildingBlock: ICAMEG_clean_sbu_1, # of connection points: 4
#     Node 5, Type 0, BuildingBlock: ICAMEG_clean_sbu_1, # of connection points: 4
#     Node 6, Type 0, BuildingBlock: ICAMEG_clean_sbu_1, # of connection points: 4
#     Node 7, Type 0, BuildingBlock: ICAMEG_clean_sbu_1, # of connection points: 4
#     Node 8, Type 0, BuildingBlock: ICAMEG_clean_sbu_1, # of connection points: 4
#     Node 9, Type 0, BuildingBlock: ICAMEG_clean_sbu_1, # of connection points: 4
#     Node 10, Type 0, BuildingBlock: ICAMEG_clean_sbu_1, # of connection points: 4
#     Node 11, Type 0, BuildingBlock: ICAMEG_clean_sbu_1, # of connection points: 4
#     Edge 12, Type (0, 0), BuildingBlock: KIFKEQ_clean_linker_1, # of connection points: 2
#     Edge 13, Type (0, 0), BuildingBlock: KIFKEQ_clean_linker_1, # of connection points: 2
#     Edge 14, Type (0, 0), BuildingBlock: KIFKEQ_clean_linker_1, # of connection points: 2
#     Edge 15, Type (0, 0), BuildingBlock: KIFKEQ_clean_linker_1, # of connection points: 2
#     Edge 16, Type (0, 0), BuildingBlock: KIFKEQ_clean_linker_1, # of connection points: 2
#     Edge 17, Type (0, 0), BuildingBlock: KIFKEQ_clean_linker_1, # of connection points: 2
#     Edge 18, Type (0, 0), BuildingBlock: KIFKEQ_clean_linker_1, # of connection points: 2
#     Edge 19, Type (0, 0), BuildingBlock: KIFKEQ_clean_linker_1, # of connection points: 2
#     Edge 20, Type (0, 0), BuildingBlock: KIFKEQ_clean_linker_1, # of connection points: 2
#     Edge 21, Type (0, 0), BuildingBlock: KIFKEQ_clean_linker_1, # of connection points: 2
#     Edge 22, Type (0, 0), BuildingBlock: KIFKEQ_clean_linker_1, # of connection points: 2
#     Edge 23, Type (0, 0), BuildingBlock: KIFKEQ_clean_linker_1, # of connection points: 2
#     Edge 24, Type (0, 0), BuildingBlock: KIFKEQ_clean_linker_1, # of connection points: 2
#     Edge 25, Type (0, 0), BuildingBlock: KIFKEQ_clean_linker_1, # of connection points: 2
#     Edge 26, Type (0, 0), BuildingBlock: KIFKEQ_clean_linker_1, # of connection points: 2
#     Edge 27, Type (0, 0), BuildingBlock: KIFKEQ_clean_linker_1, # of connection points: 2
#     Edge 28, Type (0, 0), BuildingBlock: KIFKEQ_clean_linker_1, # of connection points: 2
#     Edge 29, Type (0, 0), BuildingBlock: KIFKEQ_clean_linker_1, # of connection points: 2
#     Edge 30, Type (0, 0), BuildingBlock: KIFKEQ_clean_linker_1, # of connection points: 2
#     Edge 31, Type (0, 0), BuildingBlock: KIFKEQ_clean_linker_1, # of connection points: 2
#     Edge 32, Type (0, 0), BuildingBlock: KIFKEQ_clean_linker_1, # of connection points: 2
#     Edge 33, Type (0, 0), BuildingBlock: KIFKEQ_clean_linker_1, # of connection points: 2
#     Edge 34, Type (0, 0), BuildingBlock: KIFKEQ_clean_linker_1, # of connection points: 2
#     Edge 35, Type (0, 0), BuildingBlock: KIFKEQ_clean_linker_1, # of connection points: 2
# Relax obj value: 0.030
# Max RMSD: 0.043
# Mean RMSD: 0.043
data_MOF--net-ukh--node1-ICAMEG_clean_sbu_1--edge1-KIFKEQ_clean_linker_1
_symmetry_space_group_name_H-M    P1
_symmetry_Int_Tables_number       1
_symmetry_cell_setting            triclinic
loop_
_symmetry_equiv_pos_as_xyz
'x, y, z'
_cell_length_a     34.535245
_cell_length_b     34.526277
_cell_length_c     70.656608
_cell_angle_alpha  89.944544
_cell_angle_beta   89.989796
_cell_angle_gamma 119.94554
loop_
_atom_site_label
_atom_site_type_symbol
_atom_site_fract_x
_atom_site_fract_y
_atom_site_fract_z
_atom_type_partial_charge
Co0 Co 0.34275 0.25124 0.03697 0.0
Co1 Co 0.27175 0.19815 0.07414 0.0
O2 O 0.33115 0.24131 0.0643 0.0
C3 C 0.38288 0.34344 0.05261 0.0
O4 O 0.34754 0.32977 0.06344 0.0
C5 C 0.33771 0.19491 0.10179 0.0
O6 O 0.37241 0.22267 0.09163 0.0
O7 O 0.2715 0.14984 0.0586 0.0
O8 O 0.30006 0.1864 0.03135 0.0
H9 H 0.11288 0.07331 0.06795 0.0
H10 H 0.42014 0.28228 0.06283 0.0
O11 O 0.38612 0.31626 0.04145 0.0
H12 H 0.42921 0.17391 0.02031 0.0
H13 H 0.4395 0.31794 0.9793 0.0
H14 H 0.28579 0.22174 1.00266 0.0
H15 H 0.36881 0.19173 0.0167 0.0
H16 H 0.42461 0.30388 0.01348 0.0
O17 O 0.29809 0.18188 0.09604 0.0
H18 H 0.18756 0.1292 0.05633 0.0
H19 H 0.22996 0.17359 0.11256 0.0
H20 H 0.29923 0.23463 0.96835 0.0
H21 H 0.48144 0.26584 0.06682 0.0
H22 H 0.37656 0.28303 0.95646 0.0
H23 H 0.48617 0.21118 0.0455 0.0
O24 O 0.29346 0.26502 0.03428 0.0
H25 H 0.33818 0.33204 0.11751 0.0
H26 H 0.20506 0.22731 0.08101 0.0
H27 H 0.20382 0.28727 0.09934 0.0
H28 H 0.27061 0.34004 0.11788 0.0
H29 H 0.33834 0.27233 0.09872 0.0
H30 H 0.15585 0.1179 0.12479 0.0
H31 H 0.09662 0.06738 0.10242 0.0
O32 O 0.24211 0.21229 0.05315 0.0
C33 C 0.27849 0.15023 0.04083 0.0
C34 C 0.13837 0.09521 0.07784 0.0
C35 C 0.16251 0.12019 0.10974 0.0
N36 N 0.21307 0.15484 0.08372 0.0
C37 C 0.18071 0.127 0.07134 0.0
C38 C 0.20447 0.15158 0.10273 0.0
C39 C 0.12929 0.09187 0.09718 0.0
C40 C 0.42208 0.2586 0.05345 0.0
N41 N 0.39077 0.23782 0.03962 0.0
C42 C 0.45682 0.24936 0.0558 0.0
C43 C 0.45942 0.21866 0.04385 0.0
C44 C 0.42744 0.19769 0.02973 0.0
C45 C 0.39316 0.20774 0.02782 0.0
C46 C 0.40567 0.29671 0.9843 0.0
C47 C 0.31956 0.24265 0.99759 0.0
C48 C 0.39702 0.2887 1.00364 0.0
N49 N 0.3544 0.26175 0.01005 0.0
C50 C 0.32695 0.24991 0.97815 0.0
C51 C 0.37034 0.27711 0.97149 0.0
C52 C 0.25352 0.24216 0.04039 0.0
C53 C 0.30869 0.30897 0.10964 0.0
C54 C 0.23433 0.25006 0.08901 0.0
C55 C 0.23338 0.28397 0.0994 0.0
C56 C 0.27083 0.31354 0.1098 0.0
N57 N 0.27143 0.24542 0.08905 0.0
C58 C 0.30841 0.27463 0.0991 0.0
Co59 Co 0.09639 0.34298 0.37037 0.0
Co60 Co 0.06914 0.26771 0.40714 0.0
O61 O 0.09053 0.32849 0.39751 0.0
C62 C 0.04308 0.38229 0.38515 0.0
O63 O 0.01951 0.34552 0.39497 0.0
C64 C 0.14207 0.32929 0.43442 0.0
O65 O 0.15308 0.36453 0.42385 0.0
O66 O 0.11458 0.2624 0.39157 0.0
O67 O 0.11774 0.29977 0.36507 0.0
H68 H 0.02012 0.10472 0.40041 0.0
H69 H 0.13987 0.41823 0.39751 0.0
O70 O 0.07516 0.38675 0.37473 0.0
H71 H 0.26233 0.42725 0.35836 0.0
H72 H 0.13715 0.44636 0.31432 0.0
H73 H 0.07363 0.2898 0.33504 0.0
H74 H 0.18443 0.3684 0.35263 0.0
H75 H 0.13056 0.42757 0.34829 0.0
O76 O 0.11199 0.29055 0.42906 0.0
H77 H 0.04583 0.18134 0.38905 0.0
H78 H 0.04855 0.22509 0.44546 0.0
H79 H 0.0799 0.30713 0.30092 0.0
H80 H 0.21725 0.47807 0.40354 0.0
H81 H 0.11187 0.38591 0.29037 0.0
H82 H 0.27916 0.48273 0.38394 0.0
O83 O 0.0337 0.29519 0.36565 0.0
H84 H 0.01343 0.34531 0.45049 0.0
H85 H 0.97191 0.20784 0.41452 0.0
H86 H 0.9144 0.21357 0.43289 0.0
H87 H 0.93504 0.28262 0.45116 0.0
H88 H 0.06956 0.33852 0.43168 0.0
H89 H 0.0233 0.14906 0.45743 0.0
H90 H 0.0087 0.08819 0.43484 0.0
O91 O 0.02476 0.24166 0.38612 0.0
C92 C 0.12635 0.27323 0.37435 0.0
C93 C 0.02624 0.13094 0.41039 0.0
C94 C 0.02809 0.15583 0.4424 0.0
N95 N 0.04841 0.20763 0.41655 0.0
C96 C 0.04069 0.17436 0.40404 0.0
C97 C 0.04253 0.19887 0.43553 0.0
C98 C 0.01989 0.12169 0.42971 0.0
C99 C 0.16658 0.42022 0.38883 0.0
N100 N 0.15762 0.38969 0.3748 0.0
C101 C 0.21036 0.45409 0.39236 0.0
C102 C 0.24507 0.45665 0.38137 0.0
C103 C 0.23566 0.42549 0.36703 0.0
C104 C 0.19149 0.39206 0.36393 0.0
C105 C 0.12324 0.41192 0.31874 0.0
C106 C 0.0878 0.32418 0.33055 0.0
C107 C 0.11935 0.40106 0.33796 0.0
N108 N 0.10201 0.35765 0.34364 0.0
C109 C 0.09117 0.33378 0.31122 0.0
C110 C 0.10906 0.37798 0.30531 0.0
C111 C 0.01182 0.25542 0.37205 0.0
C112 C 1.00408 0.3149 0.44272 0.0
C113 C 0.98123 0.23807 0.42235 0.0
C114 C 0.94848 0.24107 0.43278 0.0
C115 C 0.96008 0.27978 0.44304 0.0
N116 N 0.02446 0.27251 0.42218 0.0
C117 C 0.03593 0.31067 0.43214 0.0
Co118 Co 0.75613 0.08876 0.70339 0.0
Co119 Co 0.8095 0.0683 0.73936 0.0
O120 O 0.76573 0.08473 0.73057 0.0
C121 C 0.664 0.03617 0.71884 0.0
O122 O 0.67736 0.0131 0.72894 0.0
C123 C 0.81134 0.13359 0.76885 0.0
O124 O 0.78401 0.14196 0.75911 0.0
O125 O 0.85725 0.11934 0.72483 0.0
O126 O 0.82079 0.11032 0.69751 0.0
H127 H 0.93752 0.03965 0.7307 0.0
H128 H 0.72595 0.13414 0.73025 0.0
O129 O 0.69136 0.06763 0.70812 0.0
H130 H 0.83558 0.2536 0.68878 0.0
H131 H 0.69044 0.12439 0.6469 0.0
H132 H 0.78459 0.06268 0.66833 0.0
H133 H 0.8167 0.17535 0.68405 0.0
H134 H 0.70453 0.12096 0.68091 0.0
O135 O 0.82421 0.1074 0.76238 0.0
H136 H 0.88071 0.05844 0.72035 0.0
H137 H 0.8335 0.04574 0.77681 0.0
H138 H 0.77168 0.06581 0.63419 0.0
H139 H 0.74352 0.21191 0.73537 0.0
H140 H 0.72429 0.09685 0.62327 0.0
H141 H 0.7988 0.2723 0.71457 0.0
O142 O 0.74177 0.02585 0.69983 0.0
H143 H 0.67526 0.99252 0.78231 0.0
H144 H 0.7819 0.97195 0.74324 0.0
H145 H 0.72223 0.90753 0.7603 0.0
H146 H 0.6685 0.9176 0.78012 0.0
H147 H 0.73479 0.05574 0.76478 0.0
H148 H 0.8901 0.02723 0.78779 0.0
H149 H 0.9425 0.02389 0.76465 0.0
O150 O 0.79703 0.02786 0.71709 0.0
C151 C 0.8569 0.12596 0.70708 0.0
C152 C 0.9148 0.04088 0.74091 0.0
C153 C 0.88822 0.03397 0.77296 0.0
N154 N 0.85359 0.05292 0.74792 0.0
C155 C 0.88248 0.05141 0.73513 0.0
C156 C 0.85632 0.0446 0.76666 0.0
C157 C 0.9176 0.03208 0.75997 0.0
C158 C 0.74989 0.16021 0.7211 0.0
N159 N 0.77036 0.15021 0.70693 0.0
C160 C 0.75978 0.2042 0.72408 0.0
C161 C 0.79082 0.23806 0.71242 0.0
C162 C 0.81151 0.2276 0.69796 0.0
C163 C 0.80082 0.18324 0.69541 0.0
C164 C 0.71124 0.11089 0.65148 0.0
C165 C 0.76418 0.0765 0.6637 0.0
C166 C 0.71928 0.10879 0.67072 0.0
N167 N 0.74569 0.09199 0.6766 0.0
C168 C 0.75687 0.07807 0.64434 0.0
C169 C 0.73025 0.09544 0.63823 0.0
C170 C 0.76632 0.00963 0.70467 0.0
C171 C 0.69873 0.98778 0.77387 0.0
C172 C 0.7587 0.97673 0.75182 0.0
C173 C 0.72497 0.94007 0.76147 0.0
C174 C 0.69486 0.94574 0.77259 0.0
N175 N 0.76259 0.01805 0.75326 0.0
C176 C 0.73291 0.02369 0.76403 0.0
Co177 Co 0.67082 0.758 0.03592 0.0
Co178 Co 0.75021 0.80503 0.07078 0.0
O179 O 0.68846 0.76556 0.06264 0.0
C180 C 0.63241 0.66483 0.05002 0.0
O181 O 0.67047 0.67723 0.05864 0.0
C182 C 0.69631 0.825 0.09894 0.0
O183 O 0.6697 0.82579 0.08587 0.0
O184 O 0.75172 0.85655 0.05704 0.0
O185 O 0.71368 0.82271 0.03064 0.0
H186 H 0.91097 0.92264 0.06126 0.0
H187 H 0.6013 0.72801 0.0657 0.0
O188 O 0.62707 0.693 0.04038 0.0
H189 H 0.58576 0.84053 0.0286 0.0
H190 H 0.5606 0.69805 0.98216 0.0
H191 H 0.71959 0.78933 0.99953 0.0
H192 H 0.64268 0.82036 0.02007 0.0
H193 H 0.5836 0.70887 0.01567 0.0
O194 O 0.72907 0.81973 0.09453 0.0
H195 H 0.8331 0.87196 0.05146 0.0
H196 H 0.79848 0.82335 0.10776 0.0
H197 H 0.69803 0.77968 0.96585 0.0
H198 H 0.54356 0.74681 0.07461 0.0
H199 H 0.61802 0.73376 0.95698 0.0
H200 H 0.53561 0.80355 0.05602 0.0
O201 O 0.71791 0.74288 0.02927 0.0
H202 H 0.68091 0.66978 0.11304 0.0
H203 H 0.81174 0.76757 0.07374 0.0
H204 H 0.80872 0.70284 0.08988 0.0
H205 H 0.74296 0.65346 0.10978 0.0
H206 H 0.68499 0.73438 0.09633 0.0
H207 H 0.87586 0.8738 0.11818 0.0
H208 H 0.9328 0.92376 0.09484 0.0
O209 O 0.77413 0.7904 0.04789 0.0
C210 C 0.73984 0.85783 0.04 0.0
C211 C 0.88648 0.90095 0.07156 0.0
C212 C 0.86677 0.87359 0.10351 0.0
N213 N 0.81125 0.84452 0.07899 0.0
C214 C 0.84234 0.87211 0.06609 0.0
C215 C 0.82293 0.8452 0.09753 0.0
C216 C 0.8987 0.9016 0.0904 0.0
C217 C 0.59777 0.75244 0.05745 0.0
N218 N 0.62522 0.77293 0.04235 0.0
C219 C 0.56513 0.76307 0.0626 0.0
C220 C 0.56073 0.79496 0.05218 0.0
C221 C 0.58888 0.81575 0.03681 0.0
C222 C 0.62116 0.80429 0.03208 0.0
C223 C 0.59557 0.71819 0.98585 0.0
C224 C 0.68469 0.76948 0.99579 0.0
C225 C 0.6088 0.72435 0.0048 0.0
N226 N 0.65288 0.74995 0.00955 0.0
C227 C 0.67269 0.76405 0.97669 0.0
C228 C 0.6278 0.73825 0.97173 0.0
C229 C 0.75891 0.76282 0.03419 0.0
C230 C 0.70975 0.69103 0.1044 0.0
C231 C 0.78279 0.74595 0.08211 0.0
C232 C 0.78138 0.70949 0.09135 0.0
C233 C 0.74453 0.68185 0.10255 0.0
N234 N 0.7485 0.75469 0.08393 0.0
C235 C 0.71234 0.7278 0.09496 0.0
Co236 Co 0.91469 0.6686 0.36796 0.0
Co237 Co 0.94008 0.74281 0.40494 0.0
O238 O 0.91911 0.68234 0.39514 0.0
C239 C 0.96726 0.62915 0.38337 0.0
O240 O 0.99035 0.6659 0.39322 0.0
C241 C 0.86567 0.68052 0.4316 0.0
O242 O 0.85492 0.64564 0.42087 0.0
O243 O 0.8955 0.74863 0.38896 0.0
O244 O 0.89359 0.71198 0.36243 0.0
H245 H 0.98962 0.90603 0.39862 0.0
H246 H 0.86982 0.59261 0.39476 0.0
O247 O 0.93574 0.62475 0.37261 0.0
H248 H 0.74944 0.5846 0.35449 0.0
H249 H 0.87703 0.5666 0.31169 0.0
H250 H 0.9391 0.72262 0.33276 0.0
H251 H 0.8276 0.64367 0.34945 0.0
H252 H 0.88184 0.58458 0.34569 0.0
O253 O 0.89614 0.71938 0.42651 0.0
H254 H 0.96436 0.82972 0.38704 0.0
H255 H 0.95884 0.78433 0.44343 0.0
H256 H 0.9346 0.70611 0.29862 0.0
H257 H 0.79216 0.53255 0.4001 0.0
H258 H 0.90339 0.6276 0.28789 0.0
H259 H 0.73129 0.52839 0.37993 0.0
O260 O 0.97759 0.71656 0.36373 0.0
H261 H 0.99329 0.66373 0.44877 0.0
H262 H 0.03695 0.80231 0.41315 0.0
H263 H 0.09344 0.79587 0.432 0.0
H264 H 0.07171 0.72625 0.45009 0.0
H265 H 0.93822 0.67124 0.42949 0.0
H266 H 0.9836 0.86004 0.4556 0.0
H267 H 0.99938 0.92158 0.43313 0.0
O268 O 0.98552 0.76944 0.38429 0.0
C269 C 0.88463 0.73834 0.37164 0.0
C270 C 0.98298 0.87952 0.40855 0.0
C271 C 0.97953 0.8537 0.44053 0.0
N272 N 0.9604 0.80263 0.41452 0.0
C273 C 0.96878 0.83626 0.40208 0.0
C274 C 0.96538 0.81085 0.43355 0.0
C275 C 0.9884 0.88821 0.42792 0.0
C276 C 0.84357 0.59084 0.38583 0.0
N277 N 0.85326 0.62176 0.37188 0.0
C278 C 0.79963 0.55684 0.38897 0.0
C279 C 0.76549 0.55456 0.37767 0.0
C280 C 0.77564 0.58613 0.36341 0.0
C281 C 0.81996 0.61968 0.3607 0.0
C282 C 0.89063 0.60093 0.31619 0.0
C283 C 0.92523 0.68835 0.3282 0.0
C284 C 0.89351 0.61132 0.33542 0.0
N285 N 0.91045 0.65458 0.3412 0.0
C286 C 0.92288 0.67922 0.30885 0.0
C287 C 0.90541 0.63517 0.30284 0.0
C288 C 0.99912 0.75615 0.3703 0.0
C289 C 1.00311 0.69438 0.44108 0.0
C290 C 0.02717 0.77184 0.42089 0.0
C291 C 0.05933 0.76844 0.4316 0.0
C292 C 0.04712 0.7294 0.44176 0.0
N293 N 0.98393 0.73749 0.42036 0.0
C294 C 0.97185 0.69902 0.43023 0.0
Co295 Co 0.25068 0.91207 0.70143 0.0
Co296 Co 0.20043 0.93495 0.73836 0.0
O297 O 0.24149 0.91587 0.72866 0.0
C298 C 0.34259 0.96368 0.71686 0.0
O299 O 0.32929 0.98713 0.72669 0.0
C300 C 0.19361 0.86414 0.76596 0.0
O301 O 0.21911 0.85469 0.75545 0.0
O302 O 0.15083 0.88767 0.72301 0.0
O303 O 0.18633 0.89165 0.69584 0.0
H304 H 0.08091 0.97661 0.73177 0.0
H305 H 0.28094 0.86563 0.72779 0.0
O306 O 0.31534 0.93239 0.70606 0.0
H307 H 0.16848 0.74729 0.68689 0.0
H308 H 0.31481 0.87561 0.64468 0.0
H309 H 0.2222 0.9387 0.66651 0.0
H310 H 0.18832 0.82588 0.68238 0.0
H311 H 0.30131 0.87917 0.67874 0.0
O312 O 0.18268 0.89254 0.76042 0.0
H313 H 0.13427 0.9541 0.72036 0.0
H314 H 0.17725 0.95418 0.7767 0.0
H315 H 0.23455 0.93548 0.63232 0.0
H316 H 0.2625 0.78751 0.73264 0.0
H317 H 0.28116 0.90374 0.6212 0.0
H318 H 0.20576 0.72767 0.71215 0.0
O319 O 0.26584 0.97515 0.69778 0.0
H320 H 0.3349 0.99688 0.78126 0.0
H321 H 0.2332 0.03148 0.74568 0.0
H322 H 0.29507 0.09099 0.76385 0.0
H323 H 0.34635 0.07382 0.78194 0.0
H324 H 0.27332 0.93878 0.76261 0.0
H325 H 0.12401 0.9762 0.78872 0.0
H326 H 0.07551 0.98779 0.76618 0.0
O327 O 0.21651 0.97905 0.71716 0.0
C328 C 0.15067 0.87926 0.70541 0.0
C329 C 0.10195 0.97179 0.74173 0.0
C330 C 0.12609 0.97149 0.77369 0.0
N331 N 0.15908 0.9531 0.74781 0.0
C332 C 0.13232 0.95916 0.73534 0.0
C333 C 0.15607 0.95886 0.7668 0.0
C334 C 0.09891 0.97801 0.76104 0.0
C335 C 0.25641 0.83983 0.71875 0.0
N336 N 0.23561 0.85033 0.70489 0.0
C337 C 0.24601 0.79563 0.72159 0.0
C338 C 0.21414 0.76207 0.7101 0.0
C339 C 0.19316 0.77304 0.69595 0.0
C340 C 0.20438 0.8176 0.69353 0.0
C341 C 0.29434 0.88941 0.64934 0.0
C342 C 0.24226 0.92456 0.66178 0.0
C343 C 0.28664 0.89158 0.66862 0.0
N344 N 0.26066 0.90877 0.6746 0.0
C345 C 0.24925 0.92295 0.6424 0.0
C346 C 0.27545 0.90519 0.63618 0.0
C347 C 0.24511 0.9946 0.70377 0.0
C348 C 0.31257 0.00472 0.77357 0.0
C349 C 0.2554 0.02369 0.7534 0.0
C350 C 0.29035 0.05755 0.76373 0.0
C351 C 0.31907 0.0479 0.77389 0.0
N352 N 0.24896 0.98126 0.75322 0.0
C353 C 0.27722 0.97171 0.76308 0.0
Co354 Co 0.75636 0.66652 0.63705 0.0
Co355 Co 0.81043 0.73935 0.60083 0.0
O356 O 0.76629 0.67952 0.60983 0.0
C357 C 0.6644 0.62701 0.62143 0.0
O358 O 0.67798 0.66319 0.61114 0.0
C359 C 0.81162 0.67475 0.57186 0.0
O360 O 0.78401 0.63964 0.58184 0.0
O361 O 0.85782 0.73602 0.61561 0.0
O362 O 0.82101 0.70951 0.64295 0.0
H363 H 0.93877 0.89581 0.60905 0.0
H364 H 0.72609 0.59021 0.61063 0.0
O365 O 0.69159 0.62302 0.63231 0.0
H366 H 0.83524 0.58096 0.65261 0.0
H367 H 0.68984 0.5667 0.69392 0.0
H368 H 0.78455 0.72186 0.67185 0.0
H369 H 0.81658 0.64065 0.65683 0.0
H370 H 0.70432 0.58336 0.65986 0.0
O371 O 0.82515 0.71414 0.57805 0.0
H372 H 0.8815 0.82066 0.61965 0.0
H373 H 0.83538 0.78484 0.56314 0.0
H374 H 0.77124 0.70666 0.70604 0.0
H375 H 0.74343 0.52967 0.60603 0.0
H376 H 0.72357 0.6286 0.71728 0.0
H377 H 0.79847 0.52485 0.62709 0.0
O378 O 0.74221 0.71532 0.64017 0.0
H379 H 0.67661 0.68084 0.55769 0.0
H380 H 0.78368 0.8086 0.59625 0.0
H381 H 0.72456 0.81358 0.57884 0.0
H382 H 0.67061 0.74951 0.55928 0.0
H383 H 0.73558 0.67693 0.57556 0.0
H384 H 0.89243 0.85948 0.55193 0.0
H385 H 0.94451 0.91564 0.57496 0.0
O386 O 0.79784 0.76803 0.62284 0.0
C387 C 0.85724 0.72952 0.63342 0.0
C388 C 0.91619 0.87167 0.59888 0.0
C389 C 0.89022 0.85126 0.56682 0.0
N390 N 0.85489 0.79844 0.59207 0.0
C391 C 0.88361 0.82907 0.6048 0.0
C392 C 0.85806 0.80899 0.57326 0.0
C393 C 0.91942 0.88276 0.57975 0.0
C394 C 0.74994 0.58822 0.61989 0.0
N395 N 0.77041 0.61904 0.63391 0.0
C396 C 0.75968 0.55392 0.6172 0.0
C397 C 0.7906 0.55126 0.62901 0.0
C398 C 0.81128 0.58276 0.64332 0.0
C399 C 0.80072 0.61662 0.64558 0.0
C400 C 0.71076 0.60085 0.6892 0.0
C401 C 0.76401 0.68778 0.67663 0.0
C402 C 0.71902 0.6105 0.66993 0.0
N403 N 0.74559 0.65352 0.66388 0.0
C404 C 0.75648 0.67939 0.69601 0.0
C405 C 0.7297 0.63559 0.7023 0.0
C406 C 0.76686 0.75591 0.63515 0.0
C407 C 0.70018 0.70917 0.56601 0.0
C408 C 0.76039 0.78049 0.58778 0.0
C409 C 0.72697 0.78357 0.57793 0.0
C410 C 0.69674 0.74763 0.56695 0.0
N411 N 0.76389 0.74279 0.58666 0.0
C412 C 0.73406 0.7073 0.57604 0.0
Co413 Co 0.09721 0.75869 0.97027 0.0
Co414 Co 0.07507 0.80966 0.93314 0.0
O415 O 0.09445 0.7688 0.94304 0.0
C416 C 0.04593 0.66658 0.95456 0.0
O417 O 0.02351 0.67993 0.94402 0.0
C418 C 0.14859 0.81926 0.90654 0.0
O419 O 0.15762 0.79344 0.91705 0.0
O420 O 0.12005 0.85912 0.94933 0.0
O421 O 0.11825 0.82307 0.97603 0.0
H422 H 0.0298 0.92662 0.93935 0.0
H423 H 0.14378 0.72864 0.94398 0.0
O424 O 0.07652 0.69392 0.96559 0.0
H425 H 0.26143 0.83851 0.98591 0.0
H426 H 0.13065 0.6926 0.02727 0.0
H427 H 0.07004 0.78712 0.005 0.0
H428 H 0.18301 0.81945 0.99002 0.0
H429 H 0.1286 0.70694 0.99318 0.0
O430 O 0.11955 0.82953 0.9118 0.0
H431 H 0.05238 0.87345 0.95099 0.0
H432 H 0.05865 0.83441 0.89457 0.0
H433 H 0.07177 0.77391 0.03921 0.0
H434 H 0.22175 0.74625 0.93952 0.0
H435 H 0.10224 0.72633 0.05055 0.0
H436 H 0.28124 0.80169 0.96053 0.0
O437 O 0.03405 0.74372 0.97355 0.0
H438 H 0.01938 0.67755 0.88912 0.0
H439 H 0.97907 0.7756 0.9242 0.0
H440 H 0.92203 0.71422 0.90498 0.0
H441 H 0.94208 0.66477 0.88713 0.0
H442 H 0.07498 0.73858 0.90879 0.0
H443 H 0.03658 0.88749 0.88234 0.0
H444 H 0.0218 0.93392 0.9048 0.0
O445 O 0.02897 0.79138 0.95352 0.0
C446 C 0.12932 0.85895 0.96682 0.0
C447 C 0.03601 0.90647 0.92943 0.0
C448 C 0.03989 0.88456 0.89743 0.0
N449 N 0.05655 0.85061 0.9235 0.0
C450 C 0.04868 0.8762 0.93594 0.0
C451 C 0.05252 0.85466 0.90445 0.0
C452 C 0.03158 0.91059 0.91004 0.0
C453 C 0.16944 0.75262 0.95324 0.0
N454 N 0.15885 0.77319 0.96715 0.0
C455 C 0.21355 0.76254 0.95062 0.0
C456 C 0.24692 0.79369 0.9624 0.0
C457 C 0.23584 0.81441 0.97661 0.0
C458 C 0.19138 0.80368 0.9788 0.0
C459 C 0.11738 0.71346 0.0225 0.0
C460 C 0.0836 0.7666 0.00982 0.0
C461 C 0.11605 0.72163 1.00322 0.0
N462 N 0.09951 0.74811 0.99711 0.0
C463 C 0.08438 0.75914 0.02921 0.0
C464 C 0.10144 0.73241 0.03556 0.0
C465 C 0.01358 0.76291 0.96695 0.0
C466 C 0.01031 0.69909 0.89669 0.0
C467 C 0.98813 0.75423 0.91658 0.0
C468 C 0.95565 0.71954 0.90565 0.0
C469 C 0.96692 0.69185 0.89563 0.0
N470 N 0.0308 0.76145 0.91747 0.0
C471 C 0.04192 0.73416 0.90776 0.0
Co472 Co 0.34297 0.09638 0.30609 0.0
Co473 Co 0.26904 0.07109 0.26904 0.0
O474 O 0.32942 0.09182 0.2789 0.0
C475 C 0.38259 0.04384 0.29087 0.0
O476 O 0.34596 0.02068 0.28095 0.0
C477 C 0.33176 0.14481 0.24222 0.0
O478 O 0.36648 0.15568 0.25308 0.0
O479 O 0.26369 0.11624 0.28478 0.0
O480 O 0.29965 0.1176 0.31146 0.0
H481 H 0.10617 0.02292 0.27515 0.0
H482 H 0.41913 0.14111 0.27939 0.0
O483 O 0.3868 0.0753 0.30161 0.0
H484 H 0.42709 0.26171 0.31946 0.0
H485 H 0.44445 0.13408 0.36257 0.0
H486 H 0.28867 0.07212 0.34119 0.0
H487 H 0.36791 0.18358 0.32451 0.0
H488 H 0.42678 0.12924 0.32853 0.0
O489 O 0.2928 0.11459 0.24731 0.0
H490 H 0.18233 0.04784 0.28681 0.0
H491 H 0.22756 0.05185 0.23053 0.0
H492 H 0.30488 0.07665 0.37537 0.0
H493 H 0.47929 0.21874 0.27404 0.0
H494 H 0.38326 0.10781 0.38625 0.0
H495 H 0.48342 0.27972 0.29411 0.0
O496 O 0.29496 0.0335 0.31031 0.0
H497 H 0.3472 0.01613 0.22562 0.0
H498 H 0.20897 0.97412 0.26116 0.0
H499 H 0.21486 0.91698 0.24258 0.0
H500 H 0.2843 0.93788 0.22453 0.0
H501 H 0.34025 0.07187 0.24465 0.0
H502 H 0.15199 0.02741 0.21827 0.0
H503 H 0.0906 0.01256 0.24065 0.0
O504 O 0.2421 0.02604 0.28984 0.0
C505 C 0.27375 0.127 0.30213 0.0
C506 C 0.13261 0.02916 0.26526 0.0
C507 C 0.15834 0.03175 0.23334 0.0
N508 N 0.20933 0.05104 0.2594 0.0
C509 C 0.17578 0.04317 0.27179 0.0
C510 C 0.20111 0.04573 0.24037 0.0
C511 C 0.12391 0.0234 0.2459 0.0
C512 C 0.42087 0.16741 0.28827 0.0
N513 N 0.38988 0.1578 0.30217 0.0
C514 C 0.45494 0.21133 0.28513 0.0
C515 C 0.4572 0.24553 0.29638 0.0
C516 C 0.42556 0.23546 0.31058 0.0
C517 C 0.39195 0.19116 0.3133 0.0
C518 C 0.41017 0.12051 0.358 0.0
C519 C 0.32289 0.08596 0.34582 0.0
C520 C 0.39995 0.11761 0.33875 0.0
N521 N 0.35676 0.1007 0.33289 0.0
C522 C 0.33185 0.08833 0.36519 0.0
C523 C 0.37582 0.10578 0.37128 0.0
C524 C 0.2553 0.01224 0.3038 0.0
C525 C 0.31663 0.00667 0.2333 0.0
C526 C 0.23937 0.98354 0.25344 0.0
C527 C 0.24246 0.95101 0.24288 0.0
C528 C 0.28139 0.96275 0.23274 0.0
N529 N 0.27394 0.02669 0.25384 0.0
C530 C 0.3123 0.03831 0.244 0.0
Co531 Co 0.25071 0.33904 0.63906 0.0
Co532 Co 0.20061 0.26586 0.60215 0.0
O533 O 0.2415 0.32598 0.61184 0.0
C534 C 0.34263 0.37915 0.62358 0.0
O535 O 0.32931 0.34236 0.61379 0.0
C536 C 0.19322 0.32967 0.57463 0.0
O537 O 0.21912 0.36469 0.58499 0.0
O538 O 0.15094 0.26323 0.6176 0.0
O539 O 0.18637 0.29518 0.6447 0.0
H540 H 0.08184 0.10455 0.60881 0.0
H541 H 0.28096 0.4156 0.61263 0.0
O542 O 0.31538 0.3833 0.63437 0.0
H543 H 0.1684 0.42169 0.65351 0.0
H544 H 0.31477 0.43982 0.69569 0.0
H545 H 0.22225 0.28413 0.67404 0.0
H546 H 0.18829 0.36297 0.65809 0.0
H547 H 0.30131 0.42261 0.66164 0.0
O548 O 0.18245 0.29041 0.58018 0.0
H549 H 0.13494 0.18043 0.6202 0.0
H550 H 0.17733 0.2236 0.5638 0.0
H551 H 0.23456 0.29987 0.70822 0.0
H552 H 0.26247 0.47525 0.60771 0.0
H553 H 0.28113 0.37821 0.71925 0.0
H554 H 0.20569 0.47846 0.6282 0.0
O555 O 0.26589 0.29113 0.64276 0.0
H556 H 0.33495 0.33898 0.5591 0.0
H557 H 0.23377 0.20245 0.59464 0.0
H558 H 0.29576 0.20515 0.57637 0.0
H559 H 0.34679 0.27373 0.5583 0.0
H560 H 0.27326 0.33517 0.57785 0.0
H561 H 0.12435 0.14833 0.55181 0.0
H562 H 0.07628 0.08811 0.57438 0.0
O563 O 0.21705 0.23798 0.62327 0.0
C564 C 0.15075 0.27163 0.63518 0.0
C565 C 0.1027 0.13048 0.59884 0.0
C566 C 0.1265 0.15507 0.56684 0.0
N567 N 0.15945 0.20637 0.59271 0.0
C568 C 0.13292 0.17348 0.60521 0.0
C569 C 0.15635 0.19768 0.57372 0.0
C570 C 0.09956 0.12129 0.57952 0.0
C571 C 0.2564 0.41692 0.62167 0.0
N572 N 0.23561 0.3857 0.63556 0.0
C573 C 0.24598 0.45071 0.61879 0.0
C574 C 0.21409 0.45246 0.63027 0.0
C575 C 0.19311 0.42058 0.64445 0.0
C576 C 0.20435 0.38725 0.64691 0.0
C577 C 0.29433 0.40556 0.69107 0.0
C578 C 0.24229 0.31833 0.67873 0.0
C579 C 0.28665 0.3956 0.6718 0.0
N580 N 0.26069 0.35243 0.66587 0.0
C581 C 0.24927 0.32702 0.6981 0.0
C582 C 0.27544 0.37098 0.70428 0.0
C583 C 0.24543 0.25102 0.63673 0.0
C584 C 0.31273 0.30876 0.56679 0.0
C585 C 0.25585 0.23249 0.58693 0.0
C586 C 0.29087 0.23377 0.57654 0.0
C587 C 0.31945 0.27221 0.56639 0.0
N588 N 0.24919 0.26835 0.58718 0.0
C589 C 0.27731 0.30623 0.57733 0.0
Co590 Co 0.91752 0.25182 0.97136 0.0
Co591 Co 0.94627 0.20106 0.9373 0.0
O592 O 0.92745 0.24377 0.94474 0.0
C593 C 0.97315 0.34475 0.95702 0.0
O594 O 0.99828 0.3318 0.94828 0.0
C595 C 0.8754 0.18425 0.90839 0.0
O596 O 0.84665 0.17965 0.9216 0.0
O597 O 0.89242 0.15171 0.94989 0.0
O598 O 0.89444 0.18667 0.97691 0.0
H599 H 0.97404 0.07286 0.94757 0.0
H600 H 0.87852 0.28185 0.94139 0.0
O601 O 0.93966 0.31696 0.96675 0.0
H602 H 0.75029 0.17255 0.9793 0.0
H603 H 0.87008 0.31455 0.02513 0.0
H604 H 0.93478 0.22042 0.00777 0.0
H605 H 0.82707 0.19147 0.98768 0.0
H606 H 0.88116 0.30266 0.9916 0.0
O607 O 0.91395 0.19084 0.91275 0.0
H608 H 0.95226 0.12812 0.95688 0.0
H609 H 0.97773 0.18135 0.90111 0.0
H610 H 0.92391 0.2311 0.04146 0.0
H611 H 0.80229 0.2642 0.93259 0.0
H612 H 0.89135 0.27847 0.05032 0.0
H613 H 0.73753 0.20913 0.9516 0.0
O614 O 0.9795 0.26586 0.97763 0.0
H615 H 0.0288 0.33684 0.89593 0.0
H616 H 0.04387 0.23158 0.93832 0.0
H617 H 0.1112 0.29359 0.92375 0.0
H618 H 0.10391 0.34667 0.90232 0.0
H619 H 0.96239 0.27479 0.91103 0.0
H620 H 0.9995 0.12645 0.89117 0.0
H621 H 0.9979 0.07178 0.9145 0.0
O622 O 0.98073 0.21101 0.96125 0.0
C623 C 0.88175 0.15099 0.96728 0.0
C624 C 0.975 0.09658 0.93728 0.0
C625 C 0.98922 0.12662 0.90563 0.0
N626 N 0.96395 0.15814 0.9296 0.0
C627 C 0.96278 0.12804 0.94249 0.0
C628 C 0.97674 0.15756 0.91134 0.0
C629 C 0.98834 0.09597 0.91873 0.0
C630 C 0.85052 0.25811 0.94981 0.0
N631 N 0.85725 0.2379 0.96508 0.0
C632 C 0.80743 0.24814 0.94472 0.0
C633 C 0.77111 0.21719 0.95538 0.0
C634 C 0.77824 0.19664 0.97092 0.0
C635 C 0.82179 0.2074 0.97557 0.0
C636 C 0.88423 0.29378 0.02144 0.0
C637 C 0.92038 0.24089 0.01151 0.0
C638 C 0.89069 0.28701 1.00249 0.0
N639 N 0.90834 0.26063 0.99773 0.0
C640 C 0.9144 0.2469 0.03061 0.0
C641 C 0.89616 0.27352 0.03557 0.0
C642 C 0.99644 0.24132 0.97391 0.0
C643 C 0.0324 0.31385 0.90519 0.0
C644 C 0.0404 0.2547 0.92912 0.0
C645 C 0.07866 0.28966 0.92085 0.0
C646 C 0.07454 0.3194 0.90882 0.0
N647 N 0.99916 0.24946 0.92551 0.0
C648 C 0.99488 0.2785 0.91371 0.0
Co649 Co 0.67149 0.91852 0.30354 0.0
Co650 Co 0.74765 0.94753 0.26712 0.0
O651 O 0.68664 0.92579 0.27646 0.0
C652 C 0.63208 0.97209 0.2892 0.0
O653 O 0.66911 0.99648 0.27966 0.0
C654 C 0.68683 0.87731 0.23863 0.0
O655 O 0.65092 0.86609 0.24875 0.0
O656 O 0.75206 0.90075 0.28214 0.0
O657 O 0.71477 0.8972 0.3087 0.0
H658 H 0.91006 0.99489 0.27452 0.0
H659 H 0.59721 0.87605 0.2759 0.0
O660 O 0.62758 0.93957 0.29932 0.0
H661 H 0.58766 0.75196 0.3141 0.0
H662 H 0.56662 0.87441 0.35916 0.0
H663 H 0.72377 0.93981 0.3391 0.0
H664 H 0.64593 0.8297 0.32058 0.0
H665 H 0.58631 0.8828 0.32527 0.0
O666 O 0.72537 0.90632 0.24466 0.0
H667 H 0.83316 0.96887 0.28553 0.0
H668 H 0.79169 0.97078 0.22909 0.0
H669 H 0.70553 0.93173 0.37314 0.0
H670 H 0.538 0.79882 0.2691 0.0
H671 H 0.62646 0.89882 0.38336 0.0
H672 H 0.53306 0.7361 0.28822 0.0
O673 O 0.71899 0.98109 0.30881 0.0
H674 H 0.67227 0.00748 0.22463 0.0
H675 H 0.80846 0.04509 0.26084 0.0
H676 H 0.80396 0.10426 0.24324 0.0
H677 H 0.73555 0.0856 0.22484 0.0
H678 H 0.67783 0.94969 0.24272 0.0
H679 H 0.86803 0.99636 0.21748 0.0
H680 H 0.9279 0.00879 0.24027 0.0
O681 O 0.77317 0.99034 0.28869 0.0
C682 C 0.74113 0.88855 0.29933 0.0
C683 C 0.88429 0.98971 0.26446 0.0
C684 C 0.86069 0.99047 0.23244 0.0
N685 N 0.80799 0.96855 0.258 0.0
C686 C 0.8407 0.97509 0.27061 0.0
C687 C 0.81747 0.97583 0.2391 0.0
C688 C 0.89427 0.99746 0.24524 0.0
C689 C 0.59511 0.84897 0.28437 0.0
N690 N 0.62515 0.85741 0.29856 0.0
C691 C 0.56159 0.80529 0.28041 0.0
C692 C 0.55887 0.77012 0.29113 0.0
C693 C 0.58954 0.77898 0.30563 0.0
C694 C 0.62263 0.82308 0.30916 0.0
C695 C 0.60119 0.88873 0.35489 0.0
C696 C 0.68926 0.92524 0.34344 0.0
C697 C 0.61255 0.89365 0.33571 0.0
N698 N 0.65612 0.9115 0.33021 0.0
C699 C 0.67915 0.92085 0.36273 0.0
C700 C 0.63478 0.90242 0.36846 0.0
C701 C 0.75906 1.00291 0.30275 0.0
C702 C 0.70242 0.01598 0.23246 0.0
C703 C 0.77851 0.03662 0.25297 0.0
C704 C 0.7762 0.07031 0.24296 0.0
C705 C 0.73786 0.05982 0.23263 0.0
N706 N 0.74376 0.99354 0.25265 0.0
C707 C 0.70596 0.98316 0.24262 0.0
H708 H 0.56289 0.62163 0.02551 0.0
H709 H 0.61834 0.60202 0.07702 0.0
H710 H 0.50238 0.54398 0.02682 0.0
H711 H 0.55684 0.52428 0.0785 0.0
H712 H 0.40462 0.40489 0.08109 0.0
H713 H 0.46558 0.48304 0.08126 0.0
H714 H 0.50304 0.46683 0.02483 0.0
H715 H 0.44321 0.38887 0.02475 0.0
C716 C 0.56201 0.60082 0.03718 0.0
C717 C 0.5955 0.61789 0.05113 0.0
C718 C 0.52744 0.55638 0.03788 0.0
C719 C 0.52501 0.52827 0.05275 0.0
C720 C 0.55791 0.54542 0.06693 0.0
C721 C 0.59316 0.58973 0.06602 0.0
C722 C 0.42593 0.41807 0.06875 0.0
C723 C 0.41913 0.39077 0.05291 0.0
C724 C 0.46087 0.46261 0.0689 0.0
C725 C 0.48885 0.48083 0.05305 0.0
C726 C 0.4818 0.45362 0.0372 0.0
C727 C 0.44764 0.40898 0.0372 0.0
H728 H 0.99774 0.39955 0.41266 0.0
H729 H 0.06361 0.44706 0.35869 0.0
H730 H 0.97977 0.46001 0.41306 0.0
H731 H 0.04478 0.50646 0.35896 0.0
H732 H 0.94775 0.56391 0.3573 0.0
H733 H 0.96627 0.5043 0.35845 0.0
H734 H 0.02861 0.55138 0.41292 0.0
H735 H 0.01097 0.61201 0.41166 0.0
C736 C 0.00823 0.42276 0.40089 0.0
C737 C 0.03202 0.41855 0.38564 0.0
C738 C 0.99818 0.45739 0.40118 0.0
C739 C 0.01085 0.48771 0.38602 0.0
C740 C 0.03446 0.48337 0.37077 0.0
C741 C 0.04534 0.44946 0.37067 0.0
C742 C 0.96536 0.5616 0.36955 0.0
C743 C 0.97806 0.59275 0.38437 0.0
C744 C 0.97605 0.52757 0.37015 0.0
C745 C 0.99883 0.52335 0.38576 0.0
C746 C 0.01084 0.55389 0.40077 0.0
C747 C 1.00099 0.58863 0.39999 0.0
H748 H 0.38761 0.94253 0.69105 0.0
H749 H 0.40352 0.00733 0.74508 0.0
H750 H 0.4653 0.95988 0.6923 0.0
H751 H 0.48137 0.02384 0.74644 0.0
H752 H 0.60159 0.99203 0.74661 0.0
H753 H 0.52336 0.97461 0.747 0.0
H754 H 0.54176 0.03758 0.6924 0.0
H755 H 0.61972 0.05582 0.69212 0.0
C756 C 0.40761 0.96024 0.70325 0.0
C757 C 0.38952 0.97375 0.71793 0.0
C758 C 0.45208 0.97024 0.70392 0.0
C759 C 0.47919 0.99316 0.71946 0.0
C760 C 0.461 0.00594 0.73435 0.0
C761 C 0.41665 0.99674 0.7335 0.0
C762 C 0.58887 1.00217 0.73473 0.0
C763 C 0.61676 0.02525 0.71934 0.0
C764 C 0.54429 0.99243 0.73501 0.0
C765 C 0.52668 0.00471 0.71971 0.0
C766 C 0.55451 0.02757 0.70432 0.0
C767 C 0.59915 0.03811 0.70421 0.0
H768 H 0.6197 0.5637 0.64835 0.0
H769 H 0.60227 0.60847 0.59354 0.0
H770 H 0.54166 0.50427 0.64811 0.0
H771 H 0.52395 0.54797 0.5932 0.0
H772 H 0.4037 0.39597 0.59543 0.0
H773 H 0.48162 0.45703 0.59404 0.0
H774 H 0.46537 0.50562 0.64799 0.0
H775 H 0.3876 0.44553 0.64927 0.0
C776 C 0.59927 0.56071 0.6362 0.0
C777 C 0.6171 0.59085 0.62097 0.0
C778 C 0.55458 0.52679 0.63612 0.0
C779 C 0.52691 0.52164 0.62066 0.0
C780 C 0.54475 0.55121 0.60525 0.0
C781 C 0.58938 0.58587 0.6055 0.0
C782 C 0.4168 0.41978 0.60695 0.0
C783 C 0.3896 0.4159 0.62248 0.0
C784 C 0.4612 0.45478 0.60609 0.0
C785 C 0.47936 0.48586 0.62092 0.0
C786 C 0.45218 0.48194 0.63641 0.0
C787 C 0.40766 0.44762 0.6371 0.0
H788 H 0.94841 0.38886 0.98179 0.0
H789 H 0.02161 0.40714 0.92983 0.0
H790 H 0.96622 0.46674 0.98048 0.0
H791 H 0.0385 0.48514 0.92835 0.0
H792 H 1.00541 0.60492 0.92623 0.0
H793 H 0.98838 0.52677 0.92601 0.0
H794 H 0.0446 0.54366 0.98195 0.0
H795 H 0.06257 0.62162 0.98207 0.0
C796 C 0.96808 0.40943 0.97002 0.0
C797 C 0.98376 0.3919 0.95594 0.0
C798 C 0.97833 0.454 0.96932 0.0
C799 C 1.00366 0.48181 0.95431 0.0
C800 C 0.01872 0.46424 0.94002 0.0
C801 C 0.00929 0.41978 0.94093 0.0
C802 C 0.01417 0.59189 0.93845 0.0
C803 C 0.03528 0.61937 0.95417 0.0
C804 C 1.00466 0.54736 0.93827 0.0
C805 C 0.01515 0.52933 0.95398 0.0
C806 C 0.03602 0.55674 0.9697 0.0
C807 C 0.0464 0.60137 0.96972 0.0
H808 H 0.40065 1.00111 0.26248 0.0
H809 H 0.4474 0.06323 0.31711 0.0
H810 H 0.46195 0.98446 0.26121 0.0
H811 H 0.50765 0.04567 0.31597 0.0
H812 H 0.56639 0.94956 0.31535 0.0
H813 H 0.50621 0.96726 0.31503 0.0
H814 H 0.55366 0.03493 0.26149 0.0
H815 H 0.61491 0.01811 0.26194 0.0
C816 C 0.42386 0.01103 0.27421 0.0
C817 C 0.4192 0.03338 0.28991 0.0
C818 C 0.45898 1.00176 0.27342 0.0
C819 C 0.48934 0.01377 0.28851 0.0
C820 C 0.48454 0.03593 0.3042 0.0
C821 C 0.45014 0.04604 0.30481 0.0
C822 C 0.56405 0.96819 0.30348 0.0
C823 C 0.59546 0.98259 0.28869 0.0
C824 C 0.52969 0.97839 0.30335 0.0
C825 C 0.52541 1.00241 0.28825 0.0
C826 C 0.55624 0.01619 0.27326 0.0
C827 C 0.59132 0.0068 0.27357 0.0
H828 H 0.40794 0.17948 0.22054 0.0
H829 H 0.2689 0.14337 0.21863 0.0
H830 H 0.41338 0.19127 0.18626 0.0
H831 H 0.27457 0.15628 0.18469 0.0
H832 H 0.27767 0.12652 0.12369 0.0
H833 H 0.28013 0.11789 0.15771 0.0
H834 H 0.41148 0.23532 0.15964 0.0
H835 H 0.40945 0.24318 0.12527 0.0
C836 C 0.37886 0.17511 0.21289 0.0
C837 C 0.33789 0.16014 0.22228 0.0
C838 C 0.38195 0.18175 0.19322 0.0
C839 C 0.34415 0.17373 0.18261 0.0
C840 C 0.30401 0.16141 0.19228 0.0
C841 C 0.30086 0.15448 0.21181 0.0
C842 C 0.30743 0.1501 0.1313 0.0
C843 C 0.34326 0.18566 0.12178 0.0
C844 C 0.30865 0.14548 0.15087 0.0
C845 C 0.34553 0.17658 0.16153 0.0
C846 C 0.38252 0.21079 0.15189 0.0
C847 C 0.38144 0.21522 0.13218 0.0
H848 H 0.17448 0.4038 0.45694 0.0
H849 H 0.14243 0.26585 0.45708 0.0
H850 H 0.18613 0.40734 0.49119 0.0
H851 H 0.15552 0.2697 0.49098 0.0
H852 H 0.12683 0.26806 0.55243 0.0
H853 H 0.11756 0.27162 0.51852 0.0
H854 H 0.23037 0.4061 0.51734 0.0
H855 H 0.23858 0.40297 0.55161 0.0
C856 C 0.17102 0.3746 0.46421 0.0
C857 C 0.15724 0.33445 0.45433 0.0
C858 C 0.17759 0.37657 0.48385 0.0
C859 C 0.17081 0.33851 0.49397 0.0
C860 C 0.15964 0.29927 0.48381 0.0
C861 C 0.15265 0.29718 0.4643 0.0
C862 C 0.14923 0.29868 0.545 0.0
C863 C 0.18353 0.33515 0.5547 0.0
C864 C 0.14429 0.30057 0.52548 0.0
C865 C 0.17392 0.33876 0.51504 0.0
C866 C 0.20692 0.37616 0.52489 0.0
C867 C 0.21158 0.37442 0.54455 0.0
H868 H 0.77187 0.16762 0.79239 0.0
H869 H 0.87531 0.13202 0.79065 0.0
H870 H 0.78624 0.18435 0.82627 0.0
H871 H 0.88884 0.14767 0.82414 0.0
H872 H 0.93442 0.21577 0.8793 0.0
H873 H 0.91929 0.20992 0.84568 0.0
H874 H 0.77755 0.14405 0.857 0.0
H875 H 0.7929 0.15097 0.89118 0.0
C876 C 0.79797 0.16389 0.79914 0.0
C877 C 0.82252 0.1486 0.78878 0.0
C878 C 0.80585 0.173 0.81857 0.0
C879 C 0.83873 0.16743 0.82792 0.0
C880 C 0.86373 0.15302 0.81739 0.0
C881 C 0.8558 0.14381 0.79813 0.0
C882 C 0.89991 0.20013 0.87474 0.0
C883 C 0.86477 0.18306 0.88798 0.0
C884 C 0.89127 0.19673 0.85538 0.0
C885 C 0.8472 0.17579 0.8486 0.0
C886 C 0.81192 0.16047 0.86178 0.0
C887 C 0.82065 0.16419 0.88133 0.0
H888 H 0.72777 0.79739 0.12795 0.0
H889 H 0.64539 0.85633 0.11639 0.0
H890 H 0.72011 0.80448 0.16156 0.0
H891 H 0.63829 0.86421 0.15066 0.0
H892 H 0.61215 0.83869 0.21585 0.0
H893 H 0.60925 0.8225 0.18188 0.0
H894 H 0.75082 0.86888 0.18244 0.0
H895 H 0.75362 0.88419 0.21603 0.0
C896 C 0.70808 0.81212 0.13257 0.0
C897 C 0.68797 0.82723 0.1194 0.0
C898 C 0.7037 0.81614 0.15193 0.0
C899 C 0.6793 0.83564 0.15881 0.0
C900 C 0.65732 0.84899 0.14576 0.0
C901 C 0.66155 0.84472 0.12617 0.0
C902 C 0.64243 0.84468 0.20873 0.0
C903 C 0.68307 0.86251 0.21868 0.0
C904 C 0.64085 0.83592 0.18925 0.0
C905 C 0.67977 0.84435 0.17946 0.0
C906 C 0.72007 0.86141 0.18956 0.0
C907 C 0.7217 0.87032 0.20887 0.0
H908 H 0.87916 0.73615 0.54996 0.0
H909 H 0.7643 0.60316 0.54818 0.0
H910 H 0.88861 0.73389 0.51601 0.0
H911 H 0.7729 0.60135 0.51386 0.0
H912 H 0.83066 0.60476 0.45356 0.0
H913 H 0.81763 0.5998 0.48774 0.0
H914 H 0.85165 0.73843 0.48848 0.0
H915 H 0.86597 0.74364 0.45466 0.0
C916 C 0.85606 0.70623 0.54231 0.0
C917 C 0.82085 0.66993 0.55177 0.0
C918 C 0.86116 0.70511 0.52276 0.0
C919 C 0.83087 0.66786 0.51205 0.0
C920 C 0.79685 0.63058 0.52163 0.0
C921 C 0.79197 0.63157 0.54132 0.0
C922 C 0.83457 0.6339 0.46101 0.0
C923 C 0.84968 0.67469 0.45143 0.0
C924 C 0.82719 0.6311 0.48062 0.0
C925 C 0.83454 0.66898 0.49099 0.0
C926 C 0.84702 0.70893 0.48111 0.0
C927 C 0.85475 0.71182 0.46164 0.0
H928 H 0.15233 0.88461 0.88384 0.0
H929 H 0.17772 0.77416 0.884 0.0
H930 H 0.16404 0.89231 0.84983 0.0
H931 H 0.18818 0.78096 0.84966 0.0
H932 H 0.23887 0.83515 0.78853 0.0
H933 H 0.23264 0.82526 0.82291 0.0
H934 H 0.12232 0.85095 0.82294 0.0
H935 H 0.12943 0.86205 0.7889 0.0
C936 C 0.16092 0.86225 0.87662 0.0
C937 C 0.16389 0.82866 0.88662 0.0
C938 C 0.16711 0.86629 0.85705 0.0
C939 C 0.17592 0.83651 0.84688 0.0
C940 C 0.1814 0.80444 0.85702 0.0
C941 C 0.17555 0.80063 0.87672 0.0
C942 C 0.2128 0.83786 0.79588 0.0
C943 C 0.18486 0.84972 0.78601 0.0
C944 C 0.2093 0.83232 0.8156 0.0
C945 C 0.17766 0.83833 0.82579 0.0
C946 C 0.14804 0.84748 0.81567 0.0
C947 C 0.15176 0.85335 0.79609 0.0
H948 H 0.15982 0.8724 1.00338 0.0
H949 H 0.15206 0.94341 0.95444 0.0
H950 H 0.19705 0.94188 0.02101 0.0
H951 H 0.18819 0.01303 0.97238 0.0
H952 H 0.21971 0.06559 0.05384 0.0
H953 H 0.18417 0.99609 0.03586 0.0
H954 H 0.25729 0.06751 0.98593 0.0
H955 H 0.29163 0.13701 1.00367 0.0
C956 C 0.166 0.90282 0.99632 0.0
C957 C 0.15301 0.90207 0.97735 0.0
C958 C 0.18709 0.9428 0.00656 0.0
C959 C 0.19565 0.98333 0.99823 0.0
C960 C 0.18281 0.98268 0.97924 0.0
C961 C 0.16185 0.94262 0.96893 0.0
C962 C 0.22844 0.06647 0.03906 0.0
C963 C 0.25873 0.10711 0.0303 0.0
C964 C 0.20812 0.02648 0.02872 0.0
C965 C 0.21767 0.02593 0.00935 0.0
C966 C 0.24841 0.06653 1.00069 0.0
C967 C 0.26851 0.10649 0.01098 0.0
H968 H 0.15793 0.28953 0.33795 0.0
H969 H 0.14733 0.21062 0.38729 0.0
H970 H 0.19381 0.25525 0.32065 0.0
H971 H 0.18272 0.17568 0.36973 0.0
H972 H 0.28836 0.15646 0.33883 0.0
H973 H 0.25384 0.19204 0.35618 0.0
H974 H 0.17723 0.18459 0.30663 0.0
H975 H 0.21242 0.14951 0.28903 0.0
C976 C 0.16324 0.26489 0.34517 0.0
C977 C 0.14975 0.25306 0.36413 0.0
C978 C 0.18358 0.24493 0.33513 0.0
C979 C 0.19108 0.21252 0.34371 0.0
C980 C 0.17795 0.20088 0.36271 0.0
C981 C 0.15751 0.22086 0.37279 0.0
C982 C 0.26432 0.16251 0.33152 0.0
C983 C 0.25341 0.15015 0.31241 0.0
C984 C 0.24421 0.18267 0.34158 0.0
C985 C 0.21258 0.19112 0.33288 0.0
C986 C 0.20184 0.17908 0.31374 0.0
C987 C 0.22196 0.15882 0.30364 0.0
H988 H 0.87135 0.11717 0.66984 0.0
H989 H 0.93965 0.18759 0.72058 0.0
H990 H 0.94144 0.15232 0.65265 0.0
H991 H 0.00985 0.22547 0.7031 0.0
H992 H 0.13637 0.25212 0.67277 0.0
H993 H 0.06619 0.21799 0.6899 0.0
H994 H 0.99707 0.21472 0.63831 0.0
H995 H 0.06743 0.24624 0.62099 0.0
C996 C 0.90136 0.14087 0.67727 0.0
C997 C 0.89988 0.14954 0.69661 0.0
C998 C 0.94177 0.16144 0.66732 0.0
C999 C 0.98192 0.19214 0.67631 0.0
C1000 C 0.98013 0.2014 0.69566 0.0
C1001 C 0.93974 0.17996 0.70572 0.0
C1002 C 0.10617 0.24412 0.66508 0.0
C1003 C 0.10753 0.25186 0.64548 0.0
C1004 C 0.0657 0.22478 0.67497 0.0
C1005 C 0.02536 0.21346 0.66567 0.0
C1006 C 0.02698 0.22192 0.64604 0.0
C1007 C 0.06745 0.24036 0.63605 0.0
H1008 H 0.71973 0.87305 0.00427 0.0
H1009 H 0.80277 0.94184 0.05249 0.0
H1010 H 0.75192 0.94292 0.98688 0.0
H1011 H 0.8356 0.01211 0.03479 0.0
H1012 H 0.85589 0.06648 0.95396 0.0
H1013 H 0.82135 0.99651 0.97179 0.0
H1014 H 0.81805 0.06686 0.02172 0.0
H1015 H 0.85295 0.13667 0.00408 0.0
C1016 C 0.74482 0.90307 0.01125 0.0
C1017 C 0.75848 0.90154 0.02991 0.0
C1018 C 0.76358 0.94324 1.00113 0.0
C1019 C 0.79659 0.98326 0.00932 0.0
C1020 C 0.80991 0.98202 0.02807 0.0
C1021 C 0.79115 0.94166 0.03823 0.0
C1022 C 0.84744 0.06701 0.96869 0.0
C1023 C 0.85731 0.10744 0.9775 0.0
C1024 C 0.82755 0.02681 0.97894 0.0
C1025 C 0.81705 0.02595 0.99828 0.0
C1026 C 0.82629 0.06626 0.00697 0.0
C1027 C 0.84604 0.10635 0.99674 0.0
H1028 H 0.72422 0.85608 0.33556 0.0
H1029 H 0.80343 0.86714 0.2863 0.0
H1030 H 0.75788 0.81951 0.35277 0.0
H1031 H 0.83777 0.83094 0.3038 0.0
H1032 H 0.85569 0.72412 0.33483 0.0
H1033 H 0.82091 0.75935 0.31733 0.0
H1034 H 0.82841 0.83596 0.36687 0.0
H1035 H 0.8627 0.80016 0.38459 0.0
C1036 C 0.7488 0.85072 0.32833 0.0
C1037 C 0.76091 0.8646 0.30943 0.0
C1038 C 0.76842 0.82998 0.33832 0.0
C1039 C 0.80076 0.82241 0.32976 0.0
C1040 C 0.81263 0.83581 0.3108 0.0
C1041 C 0.793 0.8567 0.30076 0.0
C1042 C 0.84982 0.74832 0.3421 0.0
C1043 C 0.86195 0.75904 0.36124 0.0
C1044 C 0.83013 0.76883 0.33195 0.0
C1045 C 0.82189 0.80062 0.34062 0.0
C1046 C 0.83375 0.81121 0.35978 0.0
C1047 C 0.85355 0.79074 0.36995 0.0
H1048 H 0.06744 0.82105 0.71965 0.0
H1049 H 0.13623 0.88431 0.66783 0.0
H1050 H 0.99715 0.7818 0.70234 0.0
H1051 H 0.06611 0.8478 0.65072 0.0
H1052 H 0.94023 0.75085 0.62005 0.0
H1053 H 0.0103 0.78357 0.63759 0.0
H1054 H 0.9412 0.78805 0.68791 0.0
H1055 H 0.87124 0.75275 0.67067 0.0
C1056 C 0.06743 0.8269 0.70459 0.0
C1057 C 0.10746 0.85566 0.69514 0.0
C1058 C 0.02701 0.80463 0.6946 0.0
C1059 C 0.02538 0.81136 0.67497 0.0
C1060 C 0.06565 0.84058 0.66565 0.0
C1061 C 0.10607 0.86198 0.67554 0.0
C1062 C 0.94012 0.75858 0.6349 0.0
C1063 C 0.90011 0.749 0.64395 0.0
C1064 C 0.98044 0.77776 0.64499 0.0
C1065 C 0.982 0.7889 0.66431 0.0
C1066 C 0.94171 0.77925 0.67326 0.0
C1067 C 0.90137 0.75919 0.66328 0.0
H1068 H 0.06232 0.31576 0.99206 0.0
H1069 H 0.01708 0.17664 0.98059 0.0
H1070 H 0.12755 0.32176 0.00899 0.0
H1071 H 0.08106 0.18265 0.99746 0.0
H1072 H 0.16466 0.195 0.04857 0.0
H1073 H 0.10427 0.20026 0.03372 0.0
H1074 H 0.19877 0.3082 0.99841 0.0
H1075 H 0.26043 0.30305 0.01328 0.0
C1076 C 0.0661 0.28654 0.99328 0.0
C1077 C 0.03462 0.24574 0.98505 0.0
C1078 C 0.10345 0.29009 1.00278 0.0
C1079 C 0.10906 0.25262 0.00447 0.0
C1080 C 0.07733 0.21194 0.9964 0.0
C1081 C 0.04074 0.20859 0.98672 0.0
C1082 C 0.17307 0.22025 0.03777 0.0
C1083 C 0.21759 0.2483 0.03198 0.0
C1084 C 0.13828 0.22322 0.02931 0.0
C1085 C 0.14698 0.25451 0.01494 0.0
C1086 C 0.19142 0.284 0.00959 0.0
C1087 C 0.22654 0.28079 0.01799 0.0
H1088 H 0.75054 0.03409 0.33742 0.0
H1089 H 0.84251 0.06511 0.29074 0.0
H1090 H 0.80771 0.09948 0.35448 0.0
H1091 H 0.89856 0.13025 0.30756 0.0
H1092 H 0.97986 0.26334 0.33751 0.0
H1093 H 0.91418 0.20598 0.32076 0.0
H1094 H 0.88376 0.11609 0.36805 0.0
H1095 H 0.94929 0.17252 0.38464 0.0
C1096 C 0.7825 0.05512 0.33066 0.0
C1097 C 0.79179 0.04426 0.31267 0.0
C1098 C 0.81519 0.09245 0.34043 0.0
C1099 C 0.85741 0.12001 0.33226 0.0
C1100 C 0.86609 0.11003 0.31407 0.0
C1101 C 0.83387 0.07246 0.30447 0.0
C1102 C 0.95886 0.23158 0.34444 0.0
C1103 C 0.97001 0.22262 0.36243 0.0
C1104 C 0.92133 0.19878 0.33484 0.0
C1105 C 0.89387 0.15671 0.34316 0.0
C1106 C 0.90397 0.14842 0.36141 0.0
C1107 C 0.94176 0.18082 0.37087 0.0
H1108 H 0.82438 0.84561 0.63361 0.0
H1109 H 0.6987 0.74701 0.65835 0.0
H1110 H 0.81962 0.90446 0.65036 0.0
H1111 H 0.69393 0.80699 0.675 0.0
H1112 H 0.69801 0.95059 0.68151 0.0
H1113 H 0.69347 0.88628 0.66453 0.0
H1114 H 0.82012 0.91527 0.68835 0.0
H1115 H 0.82464 0.97835 0.70541 0.0
C1116 C 0.79548 0.8364 0.64248 0.0
C1117 C 0.76205 0.79142 0.64474 0.0
C1118 C 0.79287 0.87022 0.65207 0.0
C1119 C 0.7565 0.86008 0.66394 0.0
C1120 C 0.72218 0.81547 0.66582 0.0
C1121 C 0.7251 0.78128 0.6564 0.0
C1122 C 0.72469 0.943 0.68319 0.0
C1123 C 0.76178 0.9698 0.69474 0.0
C1124 C 0.72193 0.90617 0.67358 0.0
C1125 C 0.75656 0.8962 0.67515 0.0
C1126 C 0.79314 0.92252 0.68686 0.0
C1127 C 0.7956 0.95865 0.69664 0.0
H1128 H 0.84413 0.78789 0.04465 0.0
H1129 H 0.74854 0.72096 0.99973 0.0
H1130 H 0.89896 0.77709 0.0279 0.0
H1131 H 0.80541 0.71212 0.98236 0.0
H1132 H 0.9538 0.78647 0.95356 0.0
H1133 H 0.88624 0.77628 0.96887 0.0
H1134 H 0.90861 0.70932 0.01558 0.0
H1135 H 0.97594 0.71826 1.00007 0.0
C1136 C 0.83435 0.77015 0.03135 0.0
C1137 C 0.79141 0.75464 0.02373 0.0
C1138 C 0.86602 0.76401 0.02174 0.0
C1139 C 0.85618 0.7433 0.004 0.0
C1140 C 0.81351 0.72784 0.99616 0.0
C1141 C 0.7811 0.73294 0.00608 0.0
C1142 C 0.94396 0.7686 0.96687 0.0
C1143 C 0.97052 0.75326 0.97558 0.0
C1144 C 0.90503 0.76258 0.97556 0.0
C1145 C 0.89224 0.74187 0.99331 0.0
C1146 C 0.91781 0.72526 1.00181 0.0
C1147 C 0.95638 0.73051 0.99295 0.0
H1148 H 0.0613 0.83838 0.38354 0.0
H1149 H 0.03221 0.7498 0.33578 0.0
H1150 H 0.12741 0.8955 0.36748 0.0
H1151 H 0.09851 0.80792 0.31953 0.0
H1152 H 0.17257 0.95079 0.29076 0.0
H1153 H 0.11545 0.88463 0.3068 0.0
H1154 H 0.20374 0.91223 0.3544 0.0
H1155 H 0.26186 0.97856 0.33817 0.0
C1156 C 0.06927 0.83071 0.36974 0.0
C1157 C 0.04129 0.78932 0.36098 0.0
C1158 C 0.10739 0.86352 0.36058 0.0
C1159 C 0.11812 0.85609 0.3423 0.0
C1160 C 0.09088 0.81446 0.33364 0.0
C1161 C 0.05301 0.78122 0.34295 0.0
C1162 C 0.18039 0.94252 0.30447 0.0
C1163 C 0.222 0.97014 0.31313 0.0
C1164 C 0.14757 0.90438 0.31362 0.0
C1165 C 0.15522 0.89325 0.33179 0.0
C1166 C 0.19703 0.92016 0.34037 0.0
C1167 C 0.23027 0.95805 0.33106 0.0
H1168 H 0.21999 0.05379 0.71621 0.0
H1169 H 0.28654 0.02939 0.66974 0.0
H1170 H 0.22833 0.11975 0.70009 0.0
H1171 H 0.29347 0.09509 0.65334 0.0
H1172 H 0.22142 0.16717 0.6241 0.0
H1173 H 0.22954 0.10947 0.64028 0.0
H1174 H 0.29251 0.19841 0.68742 0.0
H1175 H 0.2858 0.25727 0.67097 0.0
C1176 C 0.23696 0.06272 0.70269 0.0
C1177 C 0.25279 0.03625 0.69435 0.0
C1178 C 0.2418 0.10066 0.69349 0.0
C1179 C 0.2617 0.11252 0.67555 0.0
C1180 C 0.27807 0.08659 0.66722 0.0
C1181 C 0.27411 0.04906 0.67662 0.0
C1182 C 0.23788 0.17501 0.63772 0.0
C1183 C 0.25315 0.21708 0.64617 0.0
C1184 C 0.24259 0.14186 0.64695 0.0
C1185 C 0.26179 0.14963 0.66502 0.0
C1186 C 0.27764 0.19173 0.67345 0.0
C1187 C 0.27382 0.22535 0.66402 0.0
loop_
_geom_bond_atom_site_label_1
_geom_bond_atom_site_label_2
_geom_bond_distance
_geom_bond_site_symmetry_2
_ccdc_geom_bond_type
Co0 O2 2.143 . S
Co0 O8 2.074 . S
Co0 O11 2.093 . S
Co0 O24 2.097 . S
Co0 N41 2.151 . S
Co0 N49 2.214 1_554 S
Co1 O2 2.160 . S
Co1 O7 2.058 . S
Co1 O17 2.057 . S
Co1 O32 2.037 . S
Co1 N36 2.145 . S
Co1 N57 2.257 . S
O2 Co0 2.143 . S
O2 Co1 2.160 . S
C3 O4 1.278 . S
C3 O11 1.224 . S
O4 C3 1.278 . S
C5 O6 1.245 . S
C5 O17 1.232 . S
O6 C5 1.245 . S
O7 Co1 2.058 . S
O7 C33 1.269 . S
O8 Co0 2.074 . S
O8 C33 1.257 . S
H9 C34 0.930 . S
H10 C40 0.930 . S
O11 Co0 2.093 . S
O11 C3 1.224 . S
H12 C44 0.929 . S
H13 C46 0.930 . S
H14 C47 0.930 . S
H15 C45 0.929 . S
H16 C48 0.928 . S
O17 Co1 2.057 . S
O17 C5 1.232 . S
H18 C37 0.929 . S
H19 C38 0.929 . S
H20 C50 0.931 . S
H21 C42 0.929 . S
H22 C51 0.930 . S
H23 C43 0.931 . S
O24 Co0 2.097 . S
O24 C52 1.214 . S
H25 C53 0.929 . S
H26 C54 0.929 . S
H27 C55 0.930 . S
H28 C56 0.929 . S
H29 C58 0.930 . S
H30 C35 0.930 . S
H31 C39 0.930 . S
O32 Co1 2.037 . S
O32 C52 1.234 . S
C33 O7 1.269 . S
C33 O8 1.257 . S
C34 H9 0.930 . S
C34 C37 1.388 . S
C34 C39 1.418 . S
C35 H30 0.930 . S
C35 C38 1.404 . S
C35 C39 1.353 . S
N36 Co1 2.145 . S
N36 C37 1.397 . S
N36 C38 1.334 . S
C37 H18 0.929 . S
C37 C34 1.388 . S
C37 N36 1.397 . S
C38 H19 0.929 . S
C38 C35 1.404 . S
C38 N36 1.334 . S
C39 H31 0.930 . S
C39 C34 1.418 . S
C39 C35 1.353 . S
C40 H10 0.930 . S
C40 N41 1.330 . S
C40 C42 1.446 . S
N41 Co0 2.151 . S
N41 C40 1.330 . S
N41 C45 1.418 . S
C42 H21 0.929 . S
C42 C40 1.446 . S
C42 C43 1.332 . S
C43 H23 0.931 . S
C43 C42 1.332 . S
C43 C44 1.267 . S
C44 H12 0.929 . S
C44 C43 1.267 . S
C44 C45 1.251 . S
C45 H15 0.929 . S
C45 N41 1.418 . S
C45 C44 1.251 . S
C46 H13 0.930 . S
C46 C48 1.406 . S
C46 C51 1.261 . S
C47 H14 0.930 . S
C47 N49 1.325 . S
C47 C50 1.357 . S
C48 H16 0.928 . S
C48 C46 1.406 . S
C48 N49 1.261 . S
N49 Co0 2.214 1_556 S
N49 C47 1.325 . S
N49 C48 1.261 . S
C50 H20 0.931 . S
C50 C47 1.357 . S
C50 C51 1.312 . S
C51 H22 0.930 . S
C51 C46 1.261 . S
C51 C50 1.312 . S
C52 O24 1.214 . S
C52 O32 1.234 . S
C53 H25 0.929 . S
C53 C56 1.391 . S
C53 C58 1.391 . S
C54 H26 0.929 . S
C54 C55 1.390 . S
C54 N57 1.391 . S
C55 H27 0.930 . S
C55 C54 1.390 . S
C55 C56 1.392 . S
C56 H28 0.929 . S
C56 C53 1.391 . S
C56 C55 1.392 . S
N57 Co1 2.257 . S
N57 C54 1.391 . S
N57 C58 1.388 . S
C58 H29 0.930 . S
C58 C53 1.391 . S
C58 N57 1.388 . S
Co59 O61 2.143 . S
Co59 O67 2.074 . S
Co59 O70 2.093 . S
Co59 O83 2.097 . S
Co59 N100 2.151 . S
Co59 N108 2.214 . S
Co60 O61 2.160 . S
Co60 O66 2.058 . S
Co60 O76 2.057 . S
Co60 O91 2.037 . S
Co60 N95 2.145 . S
Co60 N116 2.257 . S
O61 Co59 2.143 . S
O61 Co60 2.160 . S
C62 O63 1.278 . S
C62 O70 1.224 . S
O63 C62 1.278 . S
C64 O65 1.245 . S
C64 O76 1.232 . S
O65 C64 1.245 . S
O66 Co60 2.058 . S
O66 C92 1.269 . S
O67 Co59 2.074 . S
O67 C92 1.257 . S
H68 C93 0.930 . S
H69 C99 0.930 . S
O70 Co59 2.093 . S
O70 C62 1.224 . S
H71 C103 0.929 . S
H72 C105 0.930 . S
H73 C106 0.930 . S
H74 C104 0.929 . S
H75 C107 0.928 . S
O76 Co60 2.057 . S
O76 C64 1.232 . S
H77 C96 0.929 . S
H78 C97 0.929 . S
H79 C109 0.931 . S
H80 C101 0.929 . S
H81 C110 0.930 . S
H82 C102 0.931 . S
O83 Co59 2.097 . S
O83 C111 1.214 . S
H84 C112 0.929 . S
H85 C113 0.929 . S
H86 C114 0.930 . S
H87 C115 0.929 . S
H88 C117 0.930 . S
H89 C94 0.930 . S
H90 C98 0.930 . S
O91 Co60 2.037 . S
O91 C111 1.234 . S
C92 O66 1.269 . S
C92 O67 1.257 . S
C93 H68 0.930 . S
C93 C96 1.388 . S
C93 C98 1.418 . S
C94 H89 0.930 . S
C94 C97 1.404 . S
C94 C98 1.353 . S
N95 Co60 2.145 . S
N95 C96 1.397 . S
N95 C97 1.334 . S
C96 H77 0.929 . S
C96 C93 1.388 . S
C96 N95 1.397 . S
C97 H78 0.929 . S
C97 C94 1.404 . S
C97 N95 1.334 . S
C98 H90 0.930 . S
C98 C93 1.418 . S
C98 C94 1.353 . S
C99 H69 0.930 . S
C99 N100 1.330 . S
C99 C101 1.446 . S
N100 Co59 2.151 . S
N100 C99 1.330 . S
N100 C104 1.418 . S
C101 H80 0.929 . S
C101 C99 1.446 . S
C101 C102 1.332 . S
C102 H82 0.931 . S
C102 C101 1.332 . S
C102 C103 1.267 . S
C103 H71 0.929 . S
C103 C102 1.267 . S
C103 C104 1.251 . S
C104 H74 0.929 . S
C104 N100 1.418 . S
C104 C103 1.251 . S
C105 H72 0.930 . S
C105 C107 1.406 . S
C105 C110 1.261 . S
C106 H73 0.930 . S
C106 N108 1.325 . S
C106 C109 1.357 . S
C107 H75 0.928 . S
C107 C105 1.406 . S
C107 N108 1.261 . S
N108 Co59 2.214 . S
N108 C106 1.325 . S
N108 C107 1.261 . S
C109 H79 0.931 . S
C109 C106 1.357 . S
C109 C110 1.312 . S
C110 H81 0.930 . S
C110 C105 1.261 . S
C110 C109 1.312 . S
C111 O83 1.214 . S
C111 O91 1.234 . S
C112 H84 0.929 . S
C112 C115 1.391 . S
C112 C117 1.391 1_655 S
C113 H85 0.929 . S
C113 C114 1.390 . S
C113 N116 1.391 1_655 S
C114 H86 0.930 . S
C114 C113 1.390 . S
C114 C115 1.392 . S
C115 H87 0.929 . S
C115 C112 1.391 . S
C115 C114 1.392 . S
N116 Co60 2.257 . S
N116 C113 1.391 1_455 S
N116 C117 1.388 . S
C117 H88 0.930 . S
C117 C112 1.391 1_455 S
C117 N116 1.388 . S
Co118 O120 2.143 . S
Co118 O126 2.074 . S
Co118 O129 2.093 . S
Co118 O142 2.097 . S
Co118 N159 2.151 . S
Co118 N167 2.214 . S
Co119 O120 2.160 . S
Co119 O125 2.058 . S
Co119 O135 2.057 . S
Co119 O150 2.037 . S
Co119 N154 2.145 . S
Co119 N175 2.257 . S
O120 Co118 2.143 . S
O120 Co119 2.160 . S
C121 O122 1.278 . S
C121 O129 1.224 . S
O122 C121 1.278 . S
C123 O124 1.245 . S
C123 O135 1.232 . S
O124 C123 1.245 . S
O125 Co119 2.058 . S
O125 C151 1.269 . S
O126 Co118 2.074 . S
O126 C151 1.257 . S
H127 C152 0.930 . S
H128 C158 0.930 . S
O129 Co118 2.093 . S
O129 C121 1.224 . S
H130 C162 0.929 . S
H131 C164 0.930 . S
H132 C165 0.930 . S
H133 C163 0.929 . S
H134 C166 0.928 . S
O135 Co119 2.057 . S
O135 C123 1.232 . S
H136 C155 0.929 . S
H137 C156 0.929 . S
H138 C168 0.931 . S
H139 C160 0.929 . S
H140 C169 0.930 . S
H141 C161 0.931 . S
O142 Co118 2.097 . S
O142 C170 1.214 . S
H143 C171 0.929 . S
H144 C172 0.929 . S
H145 C173 0.930 . S
H146 C174 0.929 . S
H147 C176 0.930 . S
H148 C153 0.930 . S
H149 C157 0.930 . S
O150 Co119 2.037 . S
O150 C170 1.234 . S
C151 O125 1.269 . S
C151 O126 1.257 . S
C152 H127 0.930 . S
C152 C155 1.388 . S
C152 C157 1.418 . S
C153 H148 0.930 . S
C153 C156 1.404 . S
C153 C157 1.353 . S
N154 Co119 2.145 . S
N154 C155 1.397 . S
N154 C156 1.334 . S
C155 H136 0.929 . S
C155 C152 1.388 . S
C155 N154 1.397 . S
C156 H137 0.929 . S
C156 C153 1.404 . S
C156 N154 1.334 . S
C157 H149 0.930 . S
C157 C152 1.418 . S
C157 C153 1.353 . S
C158 H128 0.930 . S
C158 N159 1.330 . S
C158 C160 1.446 . S
N159 Co118 2.151 . S
N159 C158 1.330 . S
N159 C163 1.418 . S
C160 H139 0.929 . S
C160 C158 1.446 . S
C160 C161 1.332 . S
C161 H141 0.931 . S
C161 C160 1.332 . S
C161 C162 1.267 . S
C162 H130 0.929 . S
C162 C161 1.267 . S
C162 C163 1.251 . S
C163 H133 0.929 . S
C163 N159 1.418 . S
C163 C162 1.251 . S
C164 H131 0.930 . S
C164 C166 1.406 . S
C164 C169 1.261 . S
C165 H132 0.930 . S
C165 N167 1.325 . S
C165 C168 1.357 . S
C166 H134 0.928 . S
C166 C164 1.406 . S
C166 N167 1.261 . S
N167 Co118 2.214 . S
N167 C165 1.325 . S
N167 C166 1.261 . S
C168 H138 0.931 . S
C168 C165 1.357 . S
C168 C169 1.312 . S
C169 H140 0.930 . S
C169 C164 1.261 . S
C169 C168 1.312 . S
C170 O142 1.214 . S
C170 O150 1.234 . S
C171 H143 0.929 . S
C171 C174 1.391 . S
C171 C176 1.391 1_565 S
C172 H144 0.929 . S
C172 C173 1.390 . S
C172 N175 1.391 1_565 S
C173 H145 0.930 . S
C173 C172 1.390 . S
C173 C174 1.392 . S
C174 H146 0.929 . S
C174 C171 1.391 . S
C174 C173 1.392 . S
N175 Co119 2.257 . S
N175 C172 1.391 1_545 S
N175 C176 1.388 . S
C176 H147 0.930 . S
C176 C171 1.391 1_545 S
C176 N175 1.388 . S
Co177 O179 2.143 . S
Co177 O185 2.074 . S
Co177 O188 2.093 . S
Co177 O201 2.097 . S
Co177 N218 2.151 . S
Co177 N226 2.214 1_554 S
Co178 O179 2.160 . S
Co178 O184 2.058 . S
Co178 O194 2.057 . S
Co178 O209 2.037 . S
Co178 N213 2.145 . S
Co178 N234 2.257 . S
O179 Co177 2.143 . S
O179 Co178 2.160 . S
C180 O181 1.278 . S
C180 O188 1.224 . S
O181 C180 1.278 . S
C182 O183 1.245 . S
C182 O194 1.232 . S
O183 C182 1.245 . S
O184 Co178 2.058 . S
O184 C210 1.269 . S
O185 Co177 2.074 . S
O185 C210 1.257 . S
H186 C211 0.930 . S
H187 C217 0.930 . S
O188 Co177 2.093 . S
O188 C180 1.224 . S
H189 C221 0.929 . S
H190 C223 0.930 . S
H191 C224 0.930 . S
H192 C222 0.929 . S
H193 C225 0.928 . S
O194 Co178 2.057 . S
O194 C182 1.232 . S
H195 C214 0.929 . S
H196 C215 0.929 . S
H197 C227 0.931 . S
H198 C219 0.929 . S
H199 C228 0.930 . S
H200 C220 0.931 . S
O201 Co177 2.097 . S
O201 C229 1.214 . S
H202 C230 0.929 . S
H203 C231 0.929 . S
H204 C232 0.930 . S
H205 C233 0.929 . S
H206 C235 0.930 . S
H207 C212 0.930 . S
H208 C216 0.930 . S
O209 Co178 2.037 . S
O209 C229 1.234 . S
C210 O184 1.269 . S
C210 O185 1.257 . S
C211 H186 0.930 . S
C211 C214 1.388 . S
C211 C216 1.418 . S
C212 H207 0.930 . S
C212 C215 1.404 . S
C212 C216 1.353 . S
N213 Co178 2.145 . S
N213 C214 1.397 . S
N213 C215 1.334 . S
C214 H195 0.929 . S
C214 C211 1.388 . S
C214 N213 1.397 . S
C215 H196 0.929 . S
C215 C212 1.404 . S
C215 N213 1.334 . S
C216 H208 0.930 . S
C216 C211 1.418 . S
C216 C212 1.353 . S
C217 H187 0.930 . S
C217 N218 1.330 . S
C217 C219 1.446 . S
N218 Co177 2.151 . S
N218 C217 1.330 . S
N218 C222 1.418 . S
C219 H198 0.929 . S
C219 C217 1.446 . S
C219 C220 1.332 . S
C220 H200 0.931 . S
C220 C219 1.332 . S
C220 C221 1.267 . S
C221 H189 0.929 . S
C221 C220 1.267 . S
C221 C222 1.251 . S
C222 H192 0.929 . S
C222 N218 1.418 . S
C222 C221 1.251 . S
C223 H190 0.930 . S
C223 C225 1.406 . S
C223 C228 1.261 . S
C224 H191 0.930 . S
C224 N226 1.325 . S
C224 C227 1.357 . S
C225 H193 0.928 . S
C225 C223 1.406 . S
C225 N226 1.261 . S
N226 Co177 2.214 1_556 S
N226 C224 1.325 . S
N226 C225 1.261 . S
C227 H197 0.931 . S
C227 C224 1.357 . S
C227 C228 1.312 . S
C228 H199 0.930 . S
C228 C223 1.261 . S
C228 C227 1.312 . S
C229 O201 1.214 . S
C229 O209 1.234 . S
C230 H202 0.929 . S
C230 C233 1.391 . S
C230 C235 1.391 . S
C231 H203 0.929 . S
C231 C232 1.390 . S
C231 N234 1.391 . S
C232 H204 0.930 . S
C232 C231 1.390 . S
C232 C233 1.392 . S
C233 H205 0.929 . S
C233 C230 1.391 . S
C233 C232 1.392 . S
N234 Co178 2.257 . S
N234 C231 1.391 . S
N234 C235 1.388 . S
C235 H206 0.930 . S
C235 C230 1.391 . S
C235 N234 1.388 . S
Co236 O238 2.143 . S
Co236 O244 2.074 . S
Co236 O247 2.093 . S
Co236 O260 2.097 . S
Co236 N277 2.151 . S
Co236 N285 2.214 . S
Co237 O238 2.160 . S
Co237 O243 2.058 . S
Co237 O253 2.057 . S
Co237 O268 2.037 . S
Co237 N272 2.145 . S
Co237 N293 2.257 . S
O238 Co236 2.143 . S
O238 Co237 2.160 . S
C239 O240 1.278 . S
C239 O247 1.224 . S
O240 C239 1.278 . S
C241 O242 1.245 . S
C241 O253 1.232 . S
O242 C241 1.245 . S
O243 Co237 2.058 . S
O243 C269 1.269 . S
O244 Co236 2.074 . S
O244 C269 1.257 . S
H245 C270 0.930 . S
H246 C276 0.930 . S
O247 Co236 2.093 . S
O247 C239 1.224 . S
H248 C280 0.929 . S
H249 C282 0.930 . S
H250 C283 0.930 . S
H251 C281 0.929 . S
H252 C284 0.928 . S
O253 Co237 2.057 . S
O253 C241 1.232 . S
H254 C273 0.929 . S
H255 C274 0.929 . S
H256 C286 0.931 . S
H257 C278 0.929 . S
H258 C287 0.930 . S
H259 C279 0.931 . S
O260 Co236 2.097 . S
O260 C288 1.214 . S
H261 C289 0.929 . S
H262 C290 0.929 . S
H263 C291 0.930 . S
H264 C292 0.929 . S
H265 C294 0.930 . S
H266 C271 0.930 . S
H267 C275 0.930 . S
O268 Co237 2.037 . S
O268 C288 1.234 . S
C269 O243 1.269 . S
C269 O244 1.257 . S
C270 H245 0.930 . S
C270 C273 1.388 . S
C270 C275 1.418 . S
C271 H266 0.930 . S
C271 C274 1.404 . S
C271 C275 1.353 . S
N272 Co237 2.145 . S
N272 C273 1.397 . S
N272 C274 1.334 . S
C273 H254 0.929 . S
C273 C270 1.388 . S
C273 N272 1.397 . S
C274 H255 0.929 . S
C274 C271 1.404 . S
C274 N272 1.334 . S
C275 H267 0.930 . S
C275 C270 1.418 . S
C275 C271 1.353 . S
C276 H246 0.930 . S
C276 N277 1.330 . S
C276 C278 1.446 . S
N277 Co236 2.151 . S
N277 C276 1.330 . S
N277 C281 1.418 . S
C278 H257 0.929 . S
C278 C276 1.446 . S
C278 C279 1.332 . S
C279 H259 0.931 . S
C279 C278 1.332 . S
C279 C280 1.267 . S
C280 H248 0.929 . S
C280 C279 1.267 . S
C280 C281 1.251 . S
C281 H251 0.929 . S
C281 N277 1.418 . S
C281 C280 1.251 . S
C282 H249 0.930 . S
C282 C284 1.406 . S
C282 C287 1.261 . S
C283 H250 0.930 . S
C283 N285 1.325 . S
C283 C286 1.357 . S
C284 H252 0.928 . S
C284 C282 1.406 . S
C284 N285 1.261 . S
N285 Co236 2.214 . S
N285 C283 1.325 . S
N285 C284 1.261 . S
C286 H256 0.931 . S
C286 C283 1.357 . S
C286 C287 1.312 . S
C287 H258 0.930 . S
C287 C282 1.261 . S
C287 C286 1.312 . S
C288 O260 1.214 . S
C288 O268 1.234 . S
C289 H261 0.929 . S
C289 C292 1.391 . S
C289 C294 1.391 1_455 S
C290 H262 0.929 . S
C290 C291 1.390 . S
C290 N293 1.391 1_455 S
C291 H263 0.930 . S
C291 C290 1.390 . S
C291 C292 1.392 . S
C292 H264 0.929 . S
C292 C289 1.391 . S
C292 C291 1.392 . S
N293 Co237 2.257 . S
N293 C290 1.391 1_655 S
N293 C294 1.388 . S
C294 H265 0.930 . S
C294 C289 1.391 1_655 S
C294 N293 1.388 . S
Co295 O297 2.143 . S
Co295 O303 2.074 . S
Co295 O306 2.093 . S
Co295 O319 2.097 . S
Co295 N336 2.151 . S
Co295 N344 2.214 . S
Co296 O297 2.160 . S
Co296 O302 2.058 . S
Co296 O312 2.057 . S
Co296 O327 2.037 . S
Co296 N331 2.145 . S
Co296 N352 2.257 . S
O297 Co295 2.143 . S
O297 Co296 2.160 . S
C298 O299 1.278 . S
C298 O306 1.224 . S
O299 C298 1.278 . S
C300 O301 1.245 . S
C300 O312 1.232 . S
O301 C300 1.245 . S
O302 Co296 2.058 . S
O302 C328 1.269 . S
O303 Co295 2.074 . S
O303 C328 1.257 . S
H304 C329 0.930 . S
H305 C335 0.930 . S
O306 Co295 2.093 . S
O306 C298 1.224 . S
H307 C339 0.929 . S
H308 C341 0.930 . S
H309 C342 0.930 . S
H310 C340 0.929 . S
H311 C343 0.928 . S
O312 Co296 2.057 . S
O312 C300 1.232 . S
H313 C332 0.929 . S
H314 C333 0.929 . S
H315 C345 0.931 . S
H316 C337 0.929 . S
H317 C346 0.930 . S
H318 C338 0.931 . S
O319 Co295 2.097 . S
O319 C347 1.214 . S
H320 C348 0.929 . S
H321 C349 0.929 . S
H322 C350 0.930 . S
H323 C351 0.929 . S
H324 C353 0.930 . S
H325 C330 0.930 . S
H326 C334 0.930 . S
O327 Co296 2.037 . S
O327 C347 1.234 . S
C328 O302 1.269 . S
C328 O303 1.257 . S
C329 H304 0.930 . S
C329 C332 1.388 . S
C329 C334 1.418 . S
C330 H325 0.930 . S
C330 C333 1.404 . S
C330 C334 1.353 . S
N331 Co296 2.145 . S
N331 C332 1.397 . S
N331 C333 1.334 . S
C332 H313 0.929 . S
C332 C329 1.388 . S
C332 N331 1.397 . S
C333 H314 0.929 . S
C333 C330 1.404 . S
C333 N331 1.334 . S
C334 H326 0.930 . S
C334 C329 1.418 . S
C334 C330 1.353 . S
C335 H305 0.930 . S
C335 N336 1.330 . S
C335 C337 1.446 . S
N336 Co295 2.151 . S
N336 C335 1.330 . S
N336 C340 1.418 . S
C337 H316 0.929 . S
C337 C335 1.446 . S
C337 C338 1.332 . S
C338 H318 0.931 . S
C338 C337 1.332 . S
C338 C339 1.267 . S
C339 H307 0.929 . S
C339 C338 1.267 . S
C339 C340 1.251 . S
C340 H310 0.929 . S
C340 N336 1.418 . S
C340 C339 1.251 . S
C341 H308 0.930 . S
C341 C343 1.406 . S
C341 C346 1.261 . S
C342 H309 0.930 . S
C342 N344 1.325 . S
C342 C345 1.357 . S
C343 H311 0.928 . S
C343 C341 1.406 . S
C343 N344 1.261 . S
N344 Co295 2.214 . S
N344 C342 1.325 . S
N344 C343 1.261 . S
C345 H315 0.931 . S
C345 C342 1.357 . S
C345 C346 1.312 . S
C346 H317 0.930 . S
C346 C341 1.261 . S
C346 C345 1.312 . S
C347 O319 1.214 . S
C347 O327 1.234 . S
C348 H320 0.929 . S
C348 C351 1.391 . S
C348 C353 1.391 1_545 S
C349 H321 0.929 . S
C349 C350 1.390 . S
C349 N352 1.391 1_545 S
C350 H322 0.930 . S
C350 C349 1.390 . S
C350 C351 1.392 . S
C351 H323 0.929 . S
C351 C348 1.391 . S
C351 C350 1.392 . S
N352 Co296 2.257 . S
N352 C349 1.391 1_565 S
N352 C353 1.388 . S
C353 H324 0.930 . S
C353 C348 1.391 1_565 S
C353 N352 1.388 . S
Co354 O356 2.143 . S
Co354 O362 2.074 . S
Co354 O365 2.093 . S
Co354 O378 2.097 . S
Co354 N395 2.151 . S
Co354 N403 2.214 . S
Co355 O356 2.160 . S
Co355 O361 2.058 . S
Co355 O371 2.057 . S
Co355 O386 2.037 . S
Co355 N390 2.145 . S
Co355 N411 2.257 . S
O356 Co354 2.143 . S
O356 Co355 2.160 . S
C357 O358 1.278 . S
C357 O365 1.224 . S
O358 C357 1.278 . S
C359 O360 1.245 . S
C359 O371 1.232 . S
O360 C359 1.245 . S
O361 Co355 2.058 . S
O361 C387 1.269 . S
O362 Co354 2.074 . S
O362 C387 1.257 . S
H363 C388 0.930 . S
H364 C394 0.930 . S
O365 Co354 2.093 . S
O365 C357 1.224 . S
H366 C398 0.929 . S
H367 C400 0.930 . S
H368 C401 0.930 . S
H369 C399 0.929 . S
H370 C402 0.928 . S
O371 Co355 2.057 . S
O371 C359 1.232 . S
H372 C391 0.929 . S
H373 C392 0.929 . S
H374 C404 0.931 . S
H375 C396 0.929 . S
H376 C405 0.930 . S
H377 C397 0.931 . S
O378 Co354 2.097 . S
O378 C406 1.214 . S
H379 C407 0.929 . S
H380 C408 0.929 . S
H381 C409 0.930 . S
H382 C410 0.929 . S
H383 C412 0.930 . S
H384 C389 0.930 . S
H385 C393 0.930 . S
O386 Co355 2.037 . S
O386 C406 1.234 . S
C387 O361 1.269 . S
C387 O362 1.257 . S
C388 H363 0.930 . S
C388 C391 1.388 . S
C388 C393 1.418 . S
C389 H384 0.930 . S
C389 C392 1.404 . S
C389 C393 1.353 . S
N390 Co355 2.145 . S
N390 C391 1.397 . S
N390 C392 1.334 . S
C391 H372 0.929 . S
C391 C388 1.388 . S
C391 N390 1.397 . S
C392 H373 0.929 . S
C392 C389 1.404 . S
C392 N390 1.334 . S
C393 H385 0.930 . S
C393 C388 1.418 . S
C393 C389 1.353 . S
C394 H364 0.930 . S
C394 N395 1.330 . S
C394 C396 1.446 . S
N395 Co354 2.151 . S
N395 C394 1.330 . S
N395 C399 1.418 . S
C396 H375 0.929 . S
C396 C394 1.446 . S
C396 C397 1.332 . S
C397 H377 0.931 . S
C397 C396 1.332 . S
C397 C398 1.267 . S
C398 H366 0.929 . S
C398 C397 1.267 . S
C398 C399 1.251 . S
C399 H369 0.929 . S
C399 N395 1.418 . S
C399 C398 1.251 . S
C400 H367 0.930 . S
C400 C402 1.406 . S
C400 C405 1.261 . S
C401 H368 0.930 . S
C401 N403 1.325 . S
C401 C404 1.357 . S
C402 H370 0.928 . S
C402 C400 1.406 . S
C402 N403 1.261 . S
N403 Co354 2.214 . S
N403 C401 1.325 . S
N403 C402 1.261 . S
C404 H374 0.931 . S
C404 C401 1.357 . S
C404 C405 1.312 . S
C405 H376 0.930 . S
C405 C400 1.261 . S
C405 C404 1.312 . S
C406 O378 1.214 . S
C406 O386 1.234 . S
C407 H379 0.929 . S
C407 C410 1.391 . S
C407 C412 1.391 . S
C408 H380 0.929 . S
C408 C409 1.390 . S
C408 N411 1.391 . S
C409 H381 0.930 . S
C409 C408 1.390 . S
C409 C410 1.392 . S
C410 H382 0.929 . S
C410 C407 1.391 . S
C410 C409 1.392 . S
N411 Co355 2.257 . S
N411 C408 1.391 . S
N411 C412 1.388 . S
C412 H383 0.930 . S
C412 C407 1.391 . S
C412 N411 1.388 . S
Co413 O415 2.143 . S
Co413 O421 2.074 . S
Co413 O424 2.093 . S
Co413 O437 2.097 . S
Co413 N454 2.151 . S
Co413 N462 2.214 1_556 S
Co414 O415 2.160 . S
Co414 O420 2.058 . S
Co414 O430 2.057 . S
Co414 O445 2.037 . S
Co414 N449 2.145 . S
Co414 N470 2.257 . S
O415 Co413 2.143 . S
O415 Co414 2.160 . S
C416 O417 1.278 . S
C416 O424 1.224 . S
O417 C416 1.278 . S
C418 O419 1.245 . S
C418 O430 1.232 . S
O419 C418 1.245 . S
O420 Co414 2.058 . S
O420 C446 1.269 . S
O421 Co413 2.074 . S
O421 C446 1.257 . S
H422 C447 0.930 . S
H423 C453 0.930 . S
O424 Co413 2.093 . S
O424 C416 1.224 . S
H425 C457 0.929 . S
H426 C459 0.930 . S
H427 C460 0.930 . S
H428 C458 0.929 . S
H429 C461 0.928 . S
O430 Co414 2.057 . S
O430 C418 1.232 . S
H431 C450 0.929 . S
H432 C451 0.929 . S
H433 C463 0.931 . S
H434 C455 0.929 . S
H435 C464 0.930 . S
H436 C456 0.931 . S
O437 Co413 2.097 . S
O437 C465 1.214 . S
H438 C466 0.929 . S
H439 C467 0.929 . S
H440 C468 0.930 . S
H441 C469 0.929 . S
H442 C471 0.930 . S
H443 C448 0.930 . S
H444 C452 0.930 . S
O445 Co414 2.037 . S
O445 C465 1.234 . S
C446 O420 1.269 . S
C446 O421 1.257 . S
C447 H422 0.930 . S
C447 C450 1.388 . S
C447 C452 1.418 . S
C448 H443 0.930 . S
C448 C451 1.404 . S
C448 C452 1.353 . S
N449 Co414 2.145 . S
N449 C450 1.397 . S
N449 C451 1.334 . S
C450 H431 0.929 . S
C450 C447 1.388 . S
C450 N449 1.397 . S
C451 H432 0.929 . S
C451 C448 1.404 . S
C451 N449 1.334 . S
C452 H444 0.930 . S
C452 C447 1.418 . S
C452 C448 1.353 . S
C453 H423 0.930 . S
C453 N454 1.330 . S
C453 C455 1.446 . S
N454 Co413 2.151 . S
N454 C453 1.330 . S
N454 C458 1.418 . S
C455 H434 0.929 . S
C455 C453 1.446 . S
C455 C456 1.332 . S
C456 H436 0.931 . S
C456 C455 1.332 . S
C456 C457 1.267 . S
C457 H425 0.929 . S
C457 C456 1.267 . S
C457 C458 1.251 . S
C458 H428 0.929 . S
C458 N454 1.418 . S
C458 C457 1.251 . S
C459 H426 0.930 . S
C459 C461 1.406 . S
C459 C464 1.261 . S
C460 H427 0.930 . S
C460 N462 1.325 . S
C460 C463 1.357 . S
C461 H429 0.928 . S
C461 C459 1.406 . S
C461 N462 1.261 . S
N462 Co413 2.214 1_554 S
N462 C460 1.325 . S
N462 C461 1.261 . S
C463 H433 0.931 . S
C463 C460 1.357 . S
C463 C464 1.312 . S
C464 H435 0.930 . S
C464 C459 1.261 . S
C464 C463 1.312 . S
C465 O437 1.214 . S
C465 O445 1.234 . S
C466 H438 0.929 . S
C466 C469 1.391 . S
C466 C471 1.391 1_655 S
C467 H439 0.929 . S
C467 C468 1.390 . S
C467 N470 1.391 1_655 S
C468 H440 0.930 . S
C468 C467 1.390 . S
C468 C469 1.392 . S
C469 H441 0.929 . S
C469 C466 1.391 . S
C469 C468 1.392 . S
N470 Co414 2.257 . S
N470 C467 1.391 1_455 S
N470 C471 1.388 . S
C471 H442 0.930 . S
C471 C466 1.391 1_455 S
C471 N470 1.388 . S
Co472 O474 2.143 . S
Co472 O480 2.074 . S
Co472 O483 2.093 . S
Co472 O496 2.097 . S
Co472 N513 2.151 . S
Co472 N521 2.214 . S
Co473 O474 2.160 . S
Co473 O479 2.058 . S
Co473 O489 2.057 . S
Co473 O504 2.037 . S
Co473 N508 2.145 . S
Co473 N529 2.257 . S
O474 Co472 2.143 . S
O474 Co473 2.160 . S
C475 O476 1.278 . S
C475 O483 1.224 . S
O476 C475 1.278 . S
C477 O478 1.245 . S
C477 O489 1.232 . S
O478 C477 1.245 . S
O479 Co473 2.058 . S
O479 C505 1.269 . S
O480 Co472 2.074 . S
O480 C505 1.257 . S
H481 C506 0.930 . S
H482 C512 0.930 . S
O483 Co472 2.093 . S
O483 C475 1.224 . S
H484 C516 0.929 . S
H485 C518 0.930 . S
H486 C519 0.930 . S
H487 C517 0.929 . S
H488 C520 0.928 . S
O489 Co473 2.057 . S
O489 C477 1.232 . S
H490 C509 0.929 . S
H491 C510 0.929 . S
H492 C522 0.931 . S
H493 C514 0.929 . S
H494 C523 0.930 . S
H495 C515 0.931 . S
O496 Co472 2.097 . S
O496 C524 1.214 . S
H497 C525 0.929 . S
H498 C526 0.929 . S
H499 C527 0.930 . S
H500 C528 0.929 . S
H501 C530 0.930 . S
H502 C507 0.930 . S
H503 C511 0.930 . S
O504 Co473 2.037 . S
O504 C524 1.234 . S
C505 O479 1.269 . S
C505 O480 1.257 . S
C506 H481 0.930 . S
C506 C509 1.388 . S
C506 C511 1.418 . S
C507 H502 0.930 . S
C507 C510 1.404 . S
C507 C511 1.353 . S
N508 Co473 2.145 . S
N508 C509 1.397 . S
N508 C510 1.334 . S
C509 H490 0.929 . S
C509 C506 1.388 . S
C509 N508 1.397 . S
C510 H491 0.929 . S
C510 C507 1.404 . S
C510 N508 1.334 . S
C511 H503 0.930 . S
C511 C506 1.418 . S
C511 C507 1.353 . S
C512 H482 0.930 . S
C512 N513 1.330 . S
C512 C514 1.446 . S
N513 Co472 2.151 . S
N513 C512 1.330 . S
N513 C517 1.418 . S
C514 H493 0.929 . S
C514 C512 1.446 . S
C514 C515 1.332 . S
C515 H495 0.931 . S
C515 C514 1.332 . S
C515 C516 1.267 . S
C516 H484 0.929 . S
C516 C515 1.267 . S
C516 C517 1.251 . S
C517 H487 0.929 . S
C517 N513 1.418 . S
C517 C516 1.251 . S
C518 H485 0.930 . S
C518 C520 1.406 . S
C518 C523 1.261 . S
C519 H486 0.930 . S
C519 N521 1.325 . S
C519 C522 1.357 . S
C520 H488 0.928 . S
C520 C518 1.406 . S
C520 N521 1.261 . S
N521 Co472 2.214 . S
N521 C519 1.325 . S
N521 C520 1.261 . S
C522 H492 0.931 . S
C522 C519 1.357 . S
C522 C523 1.312 . S
C523 H494 0.930 . S
C523 C518 1.261 . S
C523 C522 1.312 . S
C524 O496 1.214 . S
C524 O504 1.234 . S
C525 H497 0.929 . S
C525 C528 1.391 . S
C525 C530 1.391 1_565 S
C526 H498 0.929 . S
C526 C527 1.390 . S
C526 N529 1.391 1_565 S
C527 H499 0.930 . S
C527 C526 1.390 . S
C527 C528 1.392 . S
C528 H500 0.929 . S
C528 C525 1.391 . S
C528 C527 1.392 . S
N529 Co473 2.257 . S
N529 C526 1.391 1_545 S
N529 C530 1.388 . S
C530 H501 0.930 . S
C530 C525 1.391 1_545 S
C530 N529 1.388 . S
Co531 O533 2.143 . S
Co531 O539 2.074 . S
Co531 O542 2.093 . S
Co531 O555 2.097 . S
Co531 N572 2.151 . S
Co531 N580 2.214 . S
Co532 O533 2.160 . S
Co532 O538 2.058 . S
Co532 O548 2.057 . S
Co532 O563 2.037 . S
Co532 N567 2.145 . S
Co532 N588 2.257 . S
O533 Co531 2.143 . S
O533 Co532 2.160 . S
C534 O535 1.278 . S
C534 O542 1.224 . S
O535 C534 1.278 . S
C536 O537 1.245 . S
C536 O548 1.232 . S
O537 C536 1.245 . S
O538 Co532 2.058 . S
O538 C564 1.269 . S
O539 Co531 2.074 . S
O539 C564 1.257 . S
H540 C565 0.930 . S
H541 C571 0.930 . S
O542 Co531 2.093 . S
O542 C534 1.224 . S
H543 C575 0.929 . S
H544 C577 0.930 . S
H545 C578 0.930 . S
H546 C576 0.929 . S
H547 C579 0.928 . S
O548 Co532 2.057 . S
O548 C536 1.232 . S
H549 C568 0.929 . S
H550 C569 0.929 . S
H551 C581 0.931 . S
H552 C573 0.929 . S
H553 C582 0.930 . S
H554 C574 0.931 . S
O555 Co531 2.097 . S
O555 C583 1.214 . S
H556 C584 0.929 . S
H557 C585 0.929 . S
H558 C586 0.930 . S
H559 C587 0.929 . S
H560 C589 0.930 . S
H561 C566 0.930 . S
H562 C570 0.930 . S
O563 Co532 2.037 . S
O563 C583 1.234 . S
C564 O538 1.269 . S
C564 O539 1.257 . S
C565 H540 0.930 . S
C565 C568 1.388 . S
C565 C570 1.418 . S
C566 H561 0.930 . S
C566 C569 1.404 . S
C566 C570 1.353 . S
N567 Co532 2.145 . S
N567 C568 1.397 . S
N567 C569 1.334 . S
C568 H549 0.929 . S
C568 C565 1.388 . S
C568 N567 1.397 . S
C569 H550 0.929 . S
C569 C566 1.404 . S
C569 N567 1.334 . S
C570 H562 0.930 . S
C570 C565 1.418 . S
C570 C566 1.353 . S
C571 H541 0.930 . S
C571 N572 1.330 . S
C571 C573 1.446 . S
N572 Co531 2.151 . S
N572 C571 1.330 . S
N572 C576 1.418 . S
C573 H552 0.929 . S
C573 C571 1.446 . S
C573 C574 1.332 . S
C574 H554 0.931 . S
C574 C573 1.332 . S
C574 C575 1.267 . S
C575 H543 0.929 . S
C575 C574 1.267 . S
C575 C576 1.251 . S
C576 H546 0.929 . S
C576 N572 1.418 . S
C576 C575 1.251 . S
C577 H544 0.930 . S
C577 C579 1.406 . S
C577 C582 1.261 . S
C578 H545 0.930 . S
C578 N580 1.325 . S
C578 C581 1.357 . S
C579 H547 0.928 . S
C579 C577 1.406 . S
C579 N580 1.261 . S
N580 Co531 2.214 . S
N580 C578 1.325 . S
N580 C579 1.261 . S
C581 H551 0.931 . S
C581 C578 1.357 . S
C581 C582 1.312 . S
C582 H553 0.930 . S
C582 C577 1.261 . S
C582 C581 1.312 . S
C583 O555 1.214 . S
C583 O563 1.234 . S
C584 H556 0.929 . S
C584 C587 1.391 . S
C584 C589 1.391 . S
C585 H557 0.929 . S
C585 C586 1.390 . S
C585 N588 1.391 . S
C586 H558 0.930 . S
C586 C585 1.390 . S
C586 C587 1.392 . S
C587 H559 0.929 . S
C587 C584 1.391 . S
C587 C586 1.392 . S
N588 Co532 2.257 . S
N588 C585 1.391 . S
N588 C589 1.388 . S
C589 H560 0.930 . S
C589 C584 1.391 . S
C589 N588 1.388 . S
Co590 O592 2.143 . S
Co590 O598 2.074 . S
Co590 O601 2.093 . S
Co590 O614 2.097 . S
Co590 N631 2.151 . S
Co590 N639 2.214 1_556 S
Co591 O592 2.160 . S
Co591 O597 2.058 . S
Co591 O607 2.057 . S
Co591 O622 2.037 . S
Co591 N626 2.145 . S
Co591 N647 2.257 . S
O592 Co590 2.143 . S
O592 Co591 2.160 . S
C593 O594 1.278 . S
C593 O601 1.224 . S
O594 C593 1.278 . S
C595 O596 1.245 . S
C595 O607 1.232 . S
O596 C595 1.245 . S
O597 Co591 2.058 . S
O597 C623 1.269 . S
O598 Co590 2.074 . S
O598 C623 1.257 . S
H599 C624 0.930 . S
H600 C630 0.930 . S
O601 Co590 2.093 . S
O601 C593 1.224 . S
H602 C634 0.929 . S
H603 C636 0.930 . S
H604 C637 0.930 . S
H605 C635 0.929 . S
H606 C638 0.928 . S
O607 Co591 2.057 . S
O607 C595 1.232 . S
H608 C627 0.929 . S
H609 C628 0.929 . S
H610 C640 0.931 . S
H611 C632 0.929 . S
H612 C641 0.930 . S
H613 C633 0.931 . S
O614 Co590 2.097 . S
O614 C642 1.214 . S
H615 C643 0.929 . S
H616 C644 0.929 . S
H617 C645 0.930 . S
H618 C646 0.929 . S
H619 C648 0.930 . S
H620 C625 0.930 . S
H621 C629 0.930 . S
O622 Co591 2.037 . S
O622 C642 1.234 . S
C623 O597 1.269 . S
C623 O598 1.257 . S
C624 H599 0.930 . S
C624 C627 1.388 . S
C624 C629 1.418 . S
C625 H620 0.930 . S
C625 C628 1.404 . S
C625 C629 1.353 . S
N626 Co591 2.145 . S
N626 C627 1.397 . S
N626 C628 1.334 . S
C627 H608 0.929 . S
C627 C624 1.388 . S
C627 N626 1.397 . S
C628 H609 0.929 . S
C628 C625 1.404 . S
C628 N626 1.334 . S
C629 H621 0.930 . S
C629 C624 1.418 . S
C629 C625 1.353 . S
C630 H600 0.930 . S
C630 N631 1.330 . S
C630 C632 1.446 . S
N631 Co590 2.151 . S
N631 C630 1.330 . S
N631 C635 1.418 . S
C632 H611 0.929 . S
C632 C630 1.446 . S
C632 C633 1.332 . S
C633 H613 0.931 . S
C633 C632 1.332 . S
C633 C634 1.267 . S
C634 H602 0.929 . S
C634 C633 1.267 . S
C634 C635 1.251 . S
C635 H605 0.929 . S
C635 N631 1.418 . S
C635 C634 1.251 . S
C636 H603 0.930 . S
C636 C638 1.406 . S
C636 C641 1.261 . S
C637 H604 0.930 . S
C637 N639 1.325 . S
C637 C640 1.357 . S
C638 H606 0.928 . S
C638 C636 1.406 . S
C638 N639 1.261 . S
N639 Co590 2.214 1_554 S
N639 C637 1.325 . S
N639 C638 1.261 . S
C640 H610 0.931 . S
C640 C637 1.357 . S
C640 C641 1.312 . S
C641 H612 0.930 . S
C641 C636 1.261 . S
C641 C640 1.312 . S
C642 O614 1.214 . S
C642 O622 1.234 . S
C643 H615 0.929 . S
C643 C646 1.391 . S
C643 C648 1.391 1_455 S
C644 H616 0.929 . S
C644 C645 1.390 . S
C644 N647 1.391 1_455 S
C645 H617 0.930 . S
C645 C644 1.390 . S
C645 C646 1.392 . S
C646 H618 0.929 . S
C646 C643 1.391 . S
C646 C645 1.392 . S
N647 Co591 2.257 . S
N647 C644 1.391 1_655 S
N647 C648 1.388 . S
C648 H619 0.930 . S
C648 C643 1.391 1_655 S
C648 N647 1.388 . S
Co649 O651 2.143 . S
Co649 O657 2.074 . S
Co649 O660 2.093 . S
Co649 O673 2.097 . S
Co649 N690 2.151 . S
Co649 N698 2.214 . S
Co650 O651 2.160 . S
Co650 O656 2.058 . S
Co650 O666 2.057 . S
Co650 O681 2.037 . S
Co650 N685 2.145 . S
Co650 N706 2.257 . S
O651 Co649 2.143 . S
O651 Co650 2.160 . S
C652 O653 1.278 . S
C652 O660 1.224 . S
O653 C652 1.278 . S
C654 O655 1.245 . S
C654 O666 1.232 . S
O655 C654 1.245 . S
O656 Co650 2.058 . S
O656 C682 1.269 . S
O657 Co649 2.074 . S
O657 C682 1.257 . S
H658 C683 0.930 . S
H659 C689 0.930 . S
O660 Co649 2.093 . S
O660 C652 1.224 . S
H661 C693 0.929 . S
H662 C695 0.930 . S
H663 C696 0.930 . S
H664 C694 0.929 . S
H665 C697 0.928 . S
O666 Co650 2.057 . S
O666 C654 1.232 . S
H667 C686 0.929 . S
H668 C687 0.929 . S
H669 C699 0.931 . S
H670 C691 0.929 . S
H671 C700 0.930 . S
H672 C692 0.931 . S
O673 Co649 2.097 . S
O673 C701 1.214 . S
H674 C702 0.929 . S
H675 C703 0.929 . S
H676 C704 0.930 . S
H677 C705 0.929 . S
H678 C707 0.930 . S
H679 C684 0.930 . S
H680 C688 0.930 . S
O681 Co650 2.037 . S
O681 C701 1.234 . S
C682 O656 1.269 . S
C682 O657 1.257 . S
C683 H658 0.930 . S
C683 C686 1.388 . S
C683 C688 1.418 . S
C684 H679 0.930 . S
C684 C687 1.404 . S
C684 C688 1.353 . S
N685 Co650 2.145 . S
N685 C686 1.397 . S
N685 C687 1.334 . S
C686 H667 0.929 . S
C686 C683 1.388 . S
C686 N685 1.397 . S
C687 H668 0.929 . S
C687 C684 1.404 . S
C687 N685 1.334 . S
C688 H680 0.930 . S
C688 C683 1.418 . S
C688 C684 1.353 . S
C689 H659 0.930 . S
C689 N690 1.330 . S
C689 C691 1.446 . S
N690 Co649 2.151 . S
N690 C689 1.330 . S
N690 C694 1.418 . S
C691 H670 0.929 . S
C691 C689 1.446 . S
C691 C692 1.332 . S
C692 H672 0.931 . S
C692 C691 1.332 . S
C692 C693 1.267 . S
C693 H661 0.929 . S
C693 C692 1.267 . S
C693 C694 1.251 . S
C694 H664 0.929 . S
C694 N690 1.418 . S
C694 C693 1.251 . S
C695 H662 0.930 . S
C695 C697 1.406 . S
C695 C700 1.261 . S
C696 H663 0.930 . S
C696 N698 1.325 . S
C696 C699 1.357 . S
C697 H665 0.928 . S
C697 C695 1.406 . S
C697 N698 1.261 . S
N698 Co649 2.214 . S
N698 C696 1.325 . S
N698 C697 1.261 . S
C699 H669 0.931 . S
C699 C696 1.357 . S
C699 C700 1.312 . S
C700 H671 0.930 . S
C700 C695 1.261 . S
C700 C699 1.312 . S
C701 O673 1.214 . S
C701 O681 1.234 . S
C702 H674 0.929 . S
C702 C705 1.391 . S
C702 C707 1.391 1_545 S
C703 H675 0.929 . S
C703 C704 1.390 . S
C703 N706 1.391 1_545 S
C704 H676 0.930 . S
C704 C703 1.390 . S
C704 C705 1.392 . S
C705 H677 0.929 . S
C705 C702 1.391 . S
C705 C704 1.392 . S
N706 Co650 2.257 . S
N706 C703 1.391 1_565 S
N706 C707 1.388 . S
C707 H678 0.930 . S
C707 C702 1.391 1_565 S
C707 N706 1.388 . S
H708 C716 0.950 . S
H709 C721 0.950 . S
H710 C718 0.950 . S
H711 C720 0.950 . S
H712 C722 0.950 . S
H713 C724 0.950 . S
H714 C726 0.950 . S
H715 C727 0.950 . S
C716 H708 0.950 . S
C716 C717 1.386 . S
C716 C718 1.391 . S
C717 C716 1.386 . S
C717 C721 1.393 . S
C718 H710 0.950 . S
C718 C716 1.391 . S
C718 C719 1.400 . S
C719 C718 1.400 . S
C719 C720 1.398 . S
C719 C725 1.491 . S
C720 H711 0.950 . S
C720 C719 1.398 . S
C720 C721 1.391 . S
C721 H709 0.950 . S
C721 C717 1.393 . S
C721 C720 1.391 . S
C722 H712 0.950 . S
C722 C723 1.386 . S
C722 C724 1.391 . S
C723 C722 1.386 . S
C723 C727 1.393 . S
C724 H713 0.950 . S
C724 C722 1.391 . S
C724 C725 1.400 . S
C725 C719 1.491 . S
C725 C724 1.400 . S
C725 C726 1.398 . S
C726 H714 0.950 . S
C726 C725 1.398 . S
C726 C727 1.391 . S
C727 H715 0.950 . S
C727 C723 1.393 . S
C727 C726 1.391 . S
H728 C736 0.950 . S
H729 C741 0.950 . S
H730 C738 0.950 . S
H731 C740 0.950 1_655 S
H732 C742 0.950 . S
H733 C744 0.950 . S
H734 C746 0.950 1_455 S
H735 C747 0.950 . S
C736 H728 0.950 . S
C736 C737 1.386 . S
C736 C738 1.391 . S
C737 C736 1.386 . S
C737 C741 1.393 . S
C738 H730 0.950 . S
C738 C736 1.391 . S
C738 C739 1.400 . S
C739 C738 1.400 . S
C739 C740 1.398 . S
C739 C745 1.491 1_455 S
C740 H731 0.950 1_455 S
C740 C739 1.398 . S
C740 C741 1.391 . S
C741 H729 0.950 . S
C741 C737 1.393 . S
C741 C740 1.391 . S
C742 H732 0.950 . S
C742 C743 1.386 . S
C742 C744 1.391 . S
C743 C742 1.386 . S
C743 C747 1.393 . S
C744 H733 0.950 . S
C744 C742 1.391 . S
C744 C745 1.400 . S
C745 C739 1.491 1_655 S
C745 C744 1.400 . S
C745 C746 1.398 . S
C746 H734 0.950 1_655 S
C746 C745 1.398 . S
C746 C747 1.391 . S
C747 H735 0.950 . S
C747 C743 1.393 . S
C747 C746 1.391 . S
H748 C756 0.950 . S
H749 C761 0.950 . S
H750 C758 0.950 . S
H751 C760 0.950 . S
H752 C762 0.950 . S
H753 C764 0.950 . S
H754 C766 0.950 . S
H755 C767 0.950 . S
C756 H748 0.950 . S
C756 C757 1.386 . S
C756 C758 1.391 . S
C757 C756 1.386 . S
C757 C761 1.393 . S
C758 H750 0.950 . S
C758 C756 1.391 . S
C758 C759 1.400 . S
C759 C758 1.400 . S
C759 C760 1.398 . S
C759 C765 1.491 1_565 S
C760 H751 0.950 . S
C760 C759 1.398 . S
C760 C761 1.391 . S
C761 H749 0.950 . S
C761 C757 1.393 . S
C761 C760 1.391 . S
C762 H752 0.950 . S
C762 C763 1.386 . S
C762 C764 1.391 . S
C763 C762 1.386 . S
C763 C767 1.393 . S
C764 H753 0.950 . S
C764 C762 1.391 . S
C764 C765 1.400 . S
C765 C759 1.491 1_545 S
C765 C764 1.400 . S
C765 C766 1.398 . S
C766 H754 0.950 . S
C766 C765 1.398 . S
C766 C767 1.391 . S
C767 H755 0.950 . S
C767 C763 1.393 . S
C767 C766 1.391 . S
H768 C776 0.950 . S
H769 C781 0.950 . S
H770 C778 0.950 . S
H771 C780 0.950 . S
H772 C782 0.950 . S
H773 C784 0.950 . S
H774 C786 0.950 . S
H775 C787 0.950 . S
C776 H768 0.950 . S
C776 C777 1.386 . S
C776 C778 1.391 . S
C777 C776 1.386 . S
C777 C781 1.393 . S
C778 H770 0.950 . S
C778 C776 1.391 . S
C778 C779 1.400 . S
C779 C778 1.400 . S
C779 C780 1.398 . S
C779 C785 1.491 . S
C780 H771 0.950 . S
C780 C779 1.398 . S
C780 C781 1.391 . S
C781 H769 0.950 . S
C781 C777 1.393 . S
C781 C780 1.391 . S
C782 H772 0.950 . S
C782 C783 1.386 . S
C782 C784 1.391 . S
C783 C782 1.386 . S
C783 C787 1.393 . S
C784 H773 0.950 . S
C784 C782 1.391 . S
C784 C785 1.400 . S
C785 C779 1.491 . S
C785 C784 1.400 . S
C785 C786 1.398 . S
C786 H774 0.950 . S
C786 C785 1.398 . S
C786 C787 1.391 . S
C787 H775 0.950 . S
C787 C783 1.393 . S
C787 C786 1.391 . S
H788 C796 0.950 . S
H789 C801 0.950 . S
H790 C798 0.950 1_455 S
H791 C800 0.950 . S
H792 C802 0.950 . S
H793 C804 0.950 1_655 S
H794 C806 0.950 . S
H795 C807 0.950 . S
C796 H788 0.950 . S
C796 C797 1.386 . S
C796 C798 1.391 . S
C797 C796 1.386 . S
C797 C801 1.393 . S
C798 H790 0.950 1_655 S
C798 C796 1.391 . S
C798 C799 1.400 . S
C799 C798 1.400 . S
C799 C800 1.398 . S
C799 C805 1.491 1_655 S
C800 H791 0.950 . S
C800 C799 1.398 . S
C800 C801 1.391 . S
C801 H789 0.950 . S
C801 C797 1.393 . S
C801 C800 1.391 . S
C802 H792 0.950 . S
C802 C803 1.386 . S
C802 C804 1.391 . S
C803 C802 1.386 . S
C803 C807 1.393 . S
C804 H793 0.950 1_455 S
C804 C802 1.391 . S
C804 C805 1.400 . S
C805 C799 1.491 1_455 S
C805 C804 1.400 . S
C805 C806 1.398 . S
C806 H794 0.950 . S
C806 C805 1.398 . S
C806 C807 1.391 . S
C807 H795 0.950 . S
C807 C803 1.393 . S
C807 C806 1.391 . S
H808 C816 0.950 . S
H809 C821 0.950 . S
H810 C818 0.950 . S
H811 C820 0.950 . S
H812 C822 0.950 . S
H813 C824 0.950 . S
H814 C826 0.950 . S
H815 C827 0.950 . S
C816 H808 0.950 . S
C816 C817 1.386 . S
C816 C818 1.391 . S
C817 C816 1.386 . S
C817 C821 1.393 . S
C818 H810 0.950 . S
C818 C816 1.391 . S
C818 C819 1.400 . S
C819 C818 1.400 . S
C819 C820 1.398 . S
C819 C825 1.491 1_545 S
C820 H811 0.950 . S
C820 C819 1.398 . S
C820 C821 1.391 . S
C821 H809 0.950 . S
C821 C817 1.393 . S
C821 C820 1.391 . S
C822 H812 0.950 . S
C822 C823 1.386 . S
C822 C824 1.391 . S
C823 C822 1.386 . S
C823 C827 1.393 . S
C824 H813 0.950 . S
C824 C822 1.391 . S
C824 C825 1.400 . S
C825 C819 1.491 1_565 S
C825 C824 1.400 . S
C825 C826 1.398 . S
C826 H814 0.950 . S
C826 C825 1.398 . S
C826 C827 1.391 . S
C827 H815 0.950 . S
C827 C823 1.393 . S
C827 C826 1.391 . S
H828 C836 0.950 . S
H829 C841 0.950 . S
H830 C838 0.950 . S
H831 C840 0.950 . S
H832 C842 0.950 . S
H833 C844 0.950 . S
H834 C846 0.950 . S
H835 C847 0.950 . S
C836 H828 0.950 . S
C836 C837 1.386 . S
C836 C838 1.391 . S
C837 C836 1.386 . S
C837 C841 1.393 . S
C838 H830 0.950 . S
C838 C836 1.391 . S
C838 C839 1.400 . S
C839 C838 1.400 . S
C839 C840 1.398 . S
C839 C845 1.491 . S
C840 H831 0.950 . S
C840 C839 1.398 . S
C840 C841 1.391 . S
C841 H829 0.950 . S
C841 C837 1.393 . S
C841 C840 1.391 . S
C842 H832 0.950 . S
C842 C843 1.386 . S
C842 C844 1.391 . S
C843 C842 1.386 . S
C843 C847 1.393 . S
C844 H833 0.950 . S
C844 C842 1.391 . S
C844 C845 1.400 . S
C845 C839 1.491 . S
C845 C844 1.400 . S
C845 C846 1.398 . S
C846 H834 0.950 . S
C846 C845 1.398 . S
C846 C847 1.391 . S
C847 H835 0.950 . S
C847 C843 1.393 . S
C847 C846 1.391 . S
H848 C856 0.950 . S
H849 C861 0.950 . S
H850 C858 0.950 . S
H851 C860 0.950 . S
H852 C862 0.950 . S
H853 C864 0.950 . S
H854 C866 0.950 . S
H855 C867 0.950 . S
C856 H848 0.950 . S
C856 C857 1.386 . S
C856 C858 1.391 . S
C857 C856 1.386 . S
C857 C861 1.393 . S
C858 H850 0.950 . S
C858 C856 1.391 . S
C858 C859 1.400 . S
C859 C858 1.400 . S
C859 C860 1.398 . S
C859 C865 1.491 . S
C860 H851 0.950 . S
C860 C859 1.398 . S
C860 C861 1.391 . S
C861 H849 0.950 . S
C861 C857 1.393 . S
C861 C860 1.391 . S
C862 H852 0.950 . S
C862 C863 1.386 . S
C862 C864 1.391 . S
C863 C862 1.386 . S
C863 C867 1.393 . S
C864 H853 0.950 . S
C864 C862 1.391 . S
C864 C865 1.400 . S
C865 C859 1.491 . S
C865 C864 1.400 . S
C865 C866 1.398 . S
C866 H854 0.950 . S
C866 C865 1.398 . S
C866 C867 1.391 . S
C867 H855 0.950 . S
C867 C863 1.393 . S
C867 C866 1.391 . S
H868 C876 0.950 . S
H869 C881 0.950 . S
H870 C878 0.950 . S
H871 C880 0.950 . S
H872 C882 0.950 . S
H873 C884 0.950 . S
H874 C886 0.950 . S
H875 C887 0.950 . S
C876 H868 0.950 . S
C876 C877 1.386 . S
C876 C878 1.391 . S
C877 C876 1.386 . S
C877 C881 1.393 . S
C878 H870 0.950 . S
C878 C876 1.391 . S
C878 C879 1.400 . S
C879 C878 1.400 . S
C879 C880 1.398 . S
C879 C885 1.491 . S
C880 H871 0.950 . S
C880 C879 1.398 . S
C880 C881 1.391 . S
C881 H869 0.950 . S
C881 C877 1.393 . S
C881 C880 1.391 . S
C882 H872 0.950 . S
C882 C883 1.386 . S
C882 C884 1.391 . S
C883 C882 1.386 . S
C883 C887 1.393 . S
C884 H873 0.950 . S
C884 C882 1.391 . S
C884 C885 1.400 . S
C885 C879 1.491 . S
C885 C884 1.400 . S
C885 C886 1.398 . S
C886 H874 0.950 . S
C886 C885 1.398 . S
C886 C887 1.391 . S
C887 H875 0.950 . S
C887 C883 1.393 . S
C887 C886 1.391 . S
H888 C896 0.950 . S
H889 C901 0.950 . S
H890 C898 0.950 . S
H891 C900 0.950 . S
H892 C902 0.950 . S
H893 C904 0.950 . S
H894 C906 0.950 . S
H895 C907 0.950 . S
C896 H888 0.950 . S
C896 C897 1.386 . S
C896 C898 1.391 . S
C897 C896 1.386 . S
C897 C901 1.393 . S
C898 H890 0.950 . S
C898 C896 1.391 . S
C898 C899 1.400 . S
C899 C898 1.400 . S
C899 C900 1.398 . S
C899 C905 1.491 . S
C900 H891 0.950 . S
C900 C899 1.398 . S
C900 C901 1.391 . S
C901 H889 0.950 . S
C901 C897 1.393 . S
C901 C900 1.391 . S
C902 H892 0.950 . S
C902 C903 1.386 . S
C902 C904 1.391 . S
C903 C902 1.386 . S
C903 C907 1.393 . S
C904 H893 0.950 . S
C904 C902 1.391 . S
C904 C905 1.400 . S
C905 C899 1.491 . S
C905 C904 1.400 . S
C905 C906 1.398 . S
C906 H894 0.950 . S
C906 C905 1.398 . S
C906 C907 1.391 . S
C907 H895 0.950 . S
C907 C903 1.393 . S
C907 C906 1.391 . S
H908 C916 0.950 . S
H909 C921 0.950 . S
H910 C918 0.950 . S
H911 C920 0.950 . S
H912 C922 0.950 . S
H913 C924 0.950 . S
H914 C926 0.950 . S
H915 C927 0.950 . S
C916 H908 0.950 . S
C916 C917 1.386 . S
C916 C918 1.391 . S
C917 C916 1.386 . S
C917 C921 1.393 . S
C918 H910 0.950 . S
C918 C916 1.391 . S
C918 C919 1.400 . S
C919 C918 1.400 . S
C919 C920 1.398 . S
C919 C925 1.491 . S
C920 H911 0.950 . S
C920 C919 1.398 . S
C920 C921 1.391 . S
C921 H909 0.950 . S
C921 C917 1.393 . S
C921 C920 1.391 . S
C922 H912 0.950 . S
C922 C923 1.386 . S
C922 C924 1.391 . S
C923 C922 1.386 . S
C923 C927 1.393 . S
C924 H913 0.950 . S
C924 C922 1.391 . S
C924 C925 1.400 . S
C925 C919 1.491 . S
C925 C924 1.400 . S
C925 C926 1.398 . S
C926 H914 0.950 . S
C926 C925 1.398 . S
C926 C927 1.391 . S
C927 H915 0.950 . S
C927 C923 1.393 . S
C927 C926 1.391 . S
H928 C936 0.950 . S
H929 C941 0.950 . S
H930 C938 0.950 . S
H931 C940 0.950 . S
H932 C942 0.950 . S
H933 C944 0.950 . S
H934 C946 0.950 . S
H935 C947 0.950 . S
C936 H928 0.950 . S
C936 C937 1.386 . S
C936 C938 1.391 . S
C937 C936 1.386 . S
C937 C941 1.393 . S
C938 H930 0.950 . S
C938 C936 1.391 . S
C938 C939 1.400 . S
C939 C938 1.400 . S
C939 C940 1.398 . S
C939 C945 1.491 . S
C940 H931 0.950 . S
C940 C939 1.398 . S
C940 C941 1.391 . S
C941 H929 0.950 . S
C941 C937 1.393 . S
C941 C940 1.391 . S
C942 H932 0.950 . S
C942 C943 1.386 . S
C942 C944 1.391 . S
C943 C942 1.386 . S
C943 C947 1.393 . S
C944 H933 0.950 . S
C944 C942 1.391 . S
C944 C945 1.400 . S
C945 C939 1.491 . S
C945 C944 1.400 . S
C945 C946 1.398 . S
C946 H934 0.950 . S
C946 C945 1.398 . S
C946 C947 1.391 . S
C947 H935 0.950 . S
C947 C943 1.393 . S
C947 C946 1.391 . S
H948 C956 0.950 . S
H949 C961 0.950 . S
H950 C958 0.950 . S
H951 C960 0.950 . S
H952 C962 0.950 . S
H953 C964 0.950 . S
H954 C966 0.950 . S
H955 C967 0.950 . S
C956 H948 0.950 . S
C956 C957 1.386 . S
C956 C958 1.391 . S
C957 C956 1.386 . S
C957 C961 1.393 . S
C958 H950 0.950 . S
C958 C956 1.391 . S
C958 C959 1.400 . S
C959 C958 1.400 . S
C959 C960 1.398 . S
C959 C965 1.491 1_566 S
C960 H951 0.950 . S
C960 C959 1.398 . S
C960 C961 1.391 . S
C961 H949 0.950 . S
C961 C957 1.393 . S
C961 C960 1.391 . S
C962 H952 0.950 . S
C962 C963 1.386 . S
C962 C964 1.391 . S
C963 C962 1.386 . S
C963 C967 1.393 . S
C964 H953 0.950 . S
C964 C962 1.391 . S
C964 C965 1.400 . S
C965 C959 1.491 1_544 S
C965 C964 1.400 . S
C965 C966 1.398 . S
C966 H954 0.950 . S
C966 C965 1.398 . S
C966 C967 1.391 . S
C967 H955 0.950 . S
C967 C963 1.393 . S
C967 C966 1.391 . S
H968 C976 0.950 . S
H969 C981 0.950 . S
H970 C978 0.950 . S
H971 C980 0.950 . S
H972 C982 0.950 . S
H973 C984 0.950 . S
H974 C986 0.950 . S
H975 C987 0.950 . S
C976 H968 0.950 . S
C976 C977 1.386 . S
C976 C978 1.391 . S
C977 C976 1.386 . S
C977 C981 1.393 . S
C978 H970 0.950 . S
C978 C976 1.391 . S
C978 C979 1.400 . S
C979 C978 1.400 . S
C979 C980 1.398 . S
C979 C985 1.491 . S
C980 H971 0.950 . S
C980 C979 1.398 . S
C980 C981 1.391 . S
C981 H969 0.950 . S
C981 C977 1.393 . S
C981 C980 1.391 . S
C982 H972 0.950 . S
C982 C983 1.386 . S
C982 C984 1.391 . S
C983 C982 1.386 . S
C983 C987 1.393 . S
C984 H973 0.950 . S
C984 C982 1.391 . S
C984 C985 1.400 . S
C985 C979 1.491 . S
C985 C984 1.400 . S
C985 C986 1.398 . S
C986 H974 0.950 . S
C986 C985 1.398 . S
C986 C987 1.391 . S
C987 H975 0.950 . S
C987 C983 1.393 . S
C987 C986 1.391 . S
H988 C996 0.950 . S
H989 C1001 0.950 . S
H990 C998 0.950 . S
H991 C1000 0.950 . S
H992 C1002 0.950 . S
H993 C1004 0.950 . S
H994 C1006 0.950 . S
H995 C1007 0.950 . S
C996 H988 0.950 . S
C996 C997 1.386 . S
C996 C998 1.391 . S
C997 C996 1.386 . S
C997 C1001 1.393 . S
C998 H990 0.950 . S
C998 C996 1.391 . S
C998 C999 1.400 . S
C999 C998 1.400 . S
C999 C1000 1.398 . S
C999 C1005 1.491 1_655 S
C1000 H991 0.950 . S
C1000 C999 1.398 . S
C1000 C1001 1.391 . S
C1001 H989 0.950 . S
C1001 C997 1.393 . S
C1001 C1000 1.391 . S
C1002 H992 0.950 . S
C1002 C1003 1.386 . S
C1002 C1004 1.391 . S
C1003 C1002 1.386 . S
C1003 C1007 1.393 . S
C1004 H993 0.950 . S
C1004 C1002 1.391 . S
C1004 C1005 1.400 . S
C1005 C999 1.491 1_455 S
C1005 C1004 1.400 . S
C1005 C1006 1.398 . S
C1006 H994 0.950 . S
C1006 C1005 1.398 . S
C1006 C1007 1.391 . S
C1007 H995 0.950 . S
C1007 C1003 1.393 . S
C1007 C1006 1.391 . S
H1008 C1016 0.950 . S
H1009 C1021 0.950 . S
H1010 C1018 0.950 . S
H1011 C1020 0.950 . S
H1012 C1022 0.950 . S
H1013 C1024 0.950 . S
H1014 C1026 0.950 . S
H1015 C1027 0.950 . S
C1016 H1008 0.950 . S
C1016 C1017 1.386 . S
C1016 C1018 1.391 . S
C1017 C1016 1.386 . S
C1017 C1021 1.393 . S
C1018 H1010 0.950 . S
C1018 C1016 1.391 . S
C1018 C1019 1.400 . S
C1019 C1018 1.400 . S
C1019 C1020 1.398 . S
C1019 C1025 1.491 1_564 S
C1020 H1011 0.950 . S
C1020 C1019 1.398 . S
C1020 C1021 1.391 . S
C1021 H1009 0.950 . S
C1021 C1017 1.393 . S
C1021 C1020 1.391 . S
C1022 H1012 0.950 . S
C1022 C1023 1.386 . S
C1022 C1024 1.391 . S
C1023 C1022 1.386 . S
C1023 C1027 1.393 . S
C1024 H1013 0.950 . S
C1024 C1022 1.391 . S
C1024 C1025 1.400 . S
C1025 C1019 1.491 1_546 S
C1025 C1024 1.400 . S
C1025 C1026 1.398 . S
C1026 H1014 0.950 . S
C1026 C1025 1.398 . S
C1026 C1027 1.391 . S
C1027 H1015 0.950 . S
C1027 C1023 1.393 . S
C1027 C1026 1.391 . S
H1028 C1036 0.950 . S
H1029 C1041 0.950 . S
H1030 C1038 0.950 . S
H1031 C1040 0.950 . S
H1032 C1042 0.950 . S
H1033 C1044 0.950 . S
H1034 C1046 0.950 . S
H1035 C1047 0.950 . S
C1036 H1028 0.950 . S
C1036 C1037 1.386 . S
C1036 C1038 1.391 . S
C1037 C1036 1.386 . S
C1037 C1041 1.393 . S
C1038 H1030 0.950 . S
C1038 C1036 1.391 . S
C1038 C1039 1.400 . S
C1039 C1038 1.400 . S
C1039 C1040 1.398 . S
C1039 C1045 1.491 . S
C1040 H1031 0.950 . S
C1040 C1039 1.398 . S
C1040 C1041 1.391 . S
C1041 H1029 0.950 . S
C1041 C1037 1.393 . S
C1041 C1040 1.391 . S
C1042 H1032 0.950 . S
C1042 C1043 1.386 . S
C1042 C1044 1.391 . S
C1043 C1042 1.386 . S
C1043 C1047 1.393 . S
C1044 H1033 0.950 . S
C1044 C1042 1.391 . S
C1044 C1045 1.400 . S
C1045 C1039 1.491 . S
C1045 C1044 1.400 . S
C1045 C1046 1.398 . S
C1046 H1034 0.950 . S
C1046 C1045 1.398 . S
C1046 C1047 1.391 . S
C1047 H1035 0.950 . S
C1047 C1043 1.393 . S
C1047 C1046 1.391 . S
H1048 C1056 0.950 . S
H1049 C1061 0.950 . S
H1050 C1058 0.950 . S
H1051 C1060 0.950 . S
H1052 C1062 0.950 . S
H1053 C1064 0.950 . S
H1054 C1066 0.950 . S
H1055 C1067 0.950 . S
C1056 H1048 0.950 . S
C1056 C1057 1.386 . S
C1056 C1058 1.391 . S
C1057 C1056 1.386 . S
C1057 C1061 1.393 . S
C1058 H1050 0.950 . S
C1058 C1056 1.391 . S
C1058 C1059 1.400 . S
C1059 C1058 1.400 . S
C1059 C1060 1.398 . S
C1059 C1065 1.491 1_455 S
C1060 H1051 0.950 . S
C1060 C1059 1.398 . S
C1060 C1061 1.391 . S
C1061 H1049 0.950 . S
C1061 C1057 1.393 . S
C1061 C1060 1.391 . S
C1062 H1052 0.950 . S
C1062 C1063 1.386 . S
C1062 C1064 1.391 . S
C1063 C1062 1.386 . S
C1063 C1067 1.393 . S
C1064 H1053 0.950 . S
C1064 C1062 1.391 . S
C1064 C1065 1.400 . S
C1065 C1059 1.491 1_655 S
C1065 C1064 1.400 . S
C1065 C1066 1.398 . S
C1066 H1054 0.950 . S
C1066 C1065 1.398 . S
C1066 C1067 1.391 . S
C1067 H1055 0.950 . S
C1067 C1063 1.393 . S
C1067 C1066 1.391 . S
H1068 C1076 0.957 . S
H1069 C1081 0.950 . S
H1070 C1078 0.950 . S
H1071 C1080 0.950 . S
H1072 C1082 0.957 . S
H1073 C1084 0.950 . S
H1074 C1086 0.950 . S
H1075 C1087 0.950 . S
C1076 H1068 0.957 . S
C1076 C1077 1.386 . S
C1076 C1078 1.391 1_556 S
C1077 C1076 1.386 . S
C1077 C1081 1.393 . S
C1078 H1070 0.950 . S
C1078 C1076 1.391 1_554 S
C1078 C1079 1.400 1_554 S
C1079 C1078 1.400 1_556 S
C1079 C1080 1.398 . S
C1079 C1085 1.491 1_556 S
C1080 H1071 0.950 . S
C1080 C1079 1.398 . S
C1080 C1081 1.391 . S
C1081 H1069 0.950 . S
C1081 C1077 1.393 . S
C1081 C1080 1.391 . S
C1082 H1072 0.957 . S
C1082 C1083 1.386 . S
C1082 C1084 1.391 1_554 S
C1083 C1082 1.386 . S
C1083 C1087 1.393 . S
C1084 H1073 0.950 . S
C1084 C1082 1.391 1_556 S
C1084 C1085 1.400 1_556 S
C1085 C1079 1.491 1_554 S
C1085 C1084 1.400 1_554 S
C1085 C1086 1.398 . S
C1086 H1074 0.950 . S
C1086 C1085 1.398 . S
C1086 C1087 1.391 . S
C1087 H1075 0.950 . S
C1087 C1083 1.393 . S
C1087 C1086 1.391 . S
H1088 C1096 0.950 . S
H1089 C1101 0.950 . S
H1090 C1098 0.950 . S
H1091 C1100 0.950 . S
H1092 C1102 0.950 1_455 S
H1093 C1104 0.950 . S
H1094 C1106 0.950 . S
H1095 C1107 0.950 . S
C1096 H1088 0.950 . S
C1096 C1097 1.386 . S
C1096 C1098 1.391 . S
C1097 C1096 1.386 . S
C1097 C1101 1.393 . S
C1098 H1090 0.950 . S
C1098 C1096 1.391 . S
C1098 C1099 1.400 . S
C1099 C1098 1.400 . S
C1099 C1100 1.398 . S
C1099 C1105 1.491 . S
C1100 H1091 0.950 . S
C1100 C1099 1.398 . S
C1100 C1101 1.391 . S
C1101 H1089 0.950 . S
C1101 C1097 1.393 . S
C1101 C1100 1.391 . S
C1102 H1092 0.950 1_655 S
C1102 C1103 1.386 . S
C1102 C1104 1.391 . S
C1103 C1102 1.386 . S
C1103 C1107 1.393 . S
C1104 H1093 0.950 . S
C1104 C1102 1.391 . S
C1104 C1105 1.400 . S
C1105 C1099 1.491 . S
C1105 C1104 1.400 . S
C1105 C1106 1.398 . S
C1106 H1094 0.950 . S
C1106 C1105 1.398 . S
C1106 C1107 1.391 . S
C1107 H1095 0.950 . S
C1107 C1103 1.393 . S
C1107 C1106 1.391 . S
H1108 C1116 0.950 . S
H1109 C1121 0.950 . S
H1110 C1118 0.950 . S
H1111 C1120 0.950 . S
H1112 C1122 0.950 . S
H1113 C1124 0.950 . S
H1114 C1126 0.950 . S
H1115 C1127 0.950 . S
C1116 H1108 0.950 . S
C1116 C1117 1.386 . S
C1116 C1118 1.391 . S
C1117 C1116 1.386 . S
C1117 C1121 1.393 . S
C1118 H1110 0.950 . S
C1118 C1116 1.391 . S
C1118 C1119 1.400 . S
C1119 C1118 1.400 . S
C1119 C1120 1.398 . S
C1119 C1125 1.491 . S
C1120 H1111 0.950 . S
C1120 C1119 1.398 . S
C1120 C1121 1.391 . S
C1121 H1109 0.950 . S
C1121 C1117 1.393 . S
C1121 C1120 1.391 . S
C1122 H1112 0.950 . S
C1122 C1123 1.386 . S
C1122 C1124 1.391 . S
C1123 C1122 1.386 . S
C1123 C1127 1.393 . S
C1124 H1113 0.950 . S
C1124 C1122 1.391 . S
C1124 C1125 1.400 . S
C1125 C1119 1.491 . S
C1125 C1124 1.400 . S
C1125 C1126 1.398 . S
C1126 H1114 0.950 . S
C1126 C1125 1.398 . S
C1126 C1127 1.391 . S
C1127 H1115 0.950 . S
C1127 C1123 1.393 . S
C1127 C1126 1.391 . S
H1128 C1136 0.950 . S
H1129 C1141 0.950 . S
H1130 C1138 0.950 . S
H1131 C1140 0.950 . S
H1132 C1142 0.950 1_455 S
H1133 C1144 0.950 . S
H1134 C1146 0.950 . S
H1135 C1147 0.950 . S
C1136 H1128 0.950 . S
C1136 C1137 1.386 . S
C1136 C1138 1.391 . S
C1137 C1136 1.386 . S
C1137 C1141 1.393 . S
C1138 H1130 0.950 . S
C1138 C1136 1.391 . S
C1138 C1139 1.400 . S
C1139 C1138 1.400 . S
C1139 C1140 1.398 . S
C1139 C1145 1.491 1_554 S
C1140 H1131 0.950 . S
C1140 C1139 1.398 . S
C1140 C1141 1.391 . S
C1141 H1129 0.950 . S
C1141 C1137 1.393 . S
C1141 C1140 1.391 . S
C1142 H1132 0.950 1_655 S
C1142 C1143 1.386 . S
C1142 C1144 1.391 . S
C1143 C1142 1.386 . S
C1143 C1147 1.393 . S
C1144 H1133 0.950 . S
C1144 C1142 1.391 . S
C1144 C1145 1.400 . S
C1145 C1139 1.491 1_556 S
C1145 C1144 1.400 . S
C1145 C1146 1.398 . S
C1146 H1134 0.950 . S
C1146 C1145 1.398 . S
C1146 C1147 1.391 . S
C1147 H1135 0.950 . S
C1147 C1143 1.393 . S
C1147 C1146 1.391 . S
H1148 C1156 0.950 . S
H1149 C1161 0.950 1_655 S
H1150 C1158 0.950 . S
H1151 C1160 0.950 . S
H1152 C1162 0.950 . S
H1153 C1164 0.950 . S
H1154 C1166 0.950 . S
H1155 C1167 0.950 . S
C1156 H1148 0.950 . S
C1156 C1157 1.386 . S
C1156 C1158 1.391 . S
C1157 C1156 1.386 . S
C1157 C1161 1.393 . S
C1158 H1150 0.950 . S
C1158 C1156 1.391 . S
C1158 C1159 1.400 . S
C1159 C1158 1.400 . S
C1159 C1160 1.398 . S
C1159 C1165 1.491 . S
C1160 H1151 0.950 . S
C1160 C1159 1.398 . S
C1160 C1161 1.391 . S
C1161 H1149 0.950 1_455 S
C1161 C1157 1.393 . S
C1161 C1160 1.391 . S
C1162 H1152 0.950 . S
C1162 C1163 1.386 . S
C1162 C1164 1.391 . S
C1163 C1162 1.386 . S
C1163 C1167 1.393 . S
C1164 H1153 0.950 . S
C1164 C1162 1.391 . S
C1164 C1165 1.400 . S
C1165 C1159 1.491 . S
C1165 C1164 1.400 . S
C1165 C1166 1.398 . S
C1166 H1154 0.950 . S
C1166 C1165 1.398 . S
C1166 C1167 1.391 . S
C1167 H1155 0.950 . S
C1167 C1163 1.393 . S
C1167 C1166 1.391 . S
H1168 C1176 0.950 1_565 S
H1169 C1181 0.950 . S
H1170 C1178 0.950 . S
H1171 C1180 0.950 . S
H1172 C1182 0.950 . S
H1173 C1184 0.950 . S
H1174 C1186 0.950 . S
H1175 C1187 0.950 . S
C1176 H1168 0.950 1_545 S
C1176 C1177 1.386 . S
C1176 C1178 1.391 . S
C1177 C1176 1.386 . S
C1177 C1181 1.393 . S
C1178 H1170 0.950 . S
C1178 C1176 1.391 . S
C1178 C1179 1.400 . S
C1179 C1178 1.400 . S
C1179 C1180 1.398 . S
C1179 C1185 1.491 . S
C1180 H1171 0.950 . S
C1180 C1179 1.398 . S
C1180 C1181 1.391 . S
C1181 H1169 0.950 . S
C1181 C1177 1.393 . S
C1181 C1180 1.391 . S
C1182 H1172 0.950 . S
C1182 C1183 1.386 . S
C1182 C1184 1.391 . S
C1183 C1182 1.386 . S
C1183 C1187 1.393 . S
C1184 H1173 0.950 . S
C1184 C1182 1.391 . S
C1184 C1185 1.400 . S
C1185 C1179 1.491 . S
C1185 C1184 1.400 . S
C1185 C1186 1.398 . S
C1186 H1174 0.950 . S
C1186 C1185 1.398 . S
C1186 C1187 1.391 . S
C1187 H1175 0.950 . S
C1187 C1183 1.393 . S
C1187 C1186 1.391 . S
C717 C180 1.336 . S
C723 C3 1.340 . S
C737 C62 1.350 . S
C743 C239 1.353 . S
C757 C298 1.335 . S
C763 C121 1.335 . S
C777 C357 1.335 . S
C783 C534 1.336 . S
C797 C593 1.337 . S
C803 C416 1.335 . S
C817 C475 1.351 . S
C823 C652 1.353 . S
C837 C477 1.645 . S
C843 C5 1.646 . S
C857 C64 1.644 . S
C863 C536 1.649 . S
C877 C123 1.644 . S
C883 C595 1.649 . S
C897 C182 1.646 . S
C903 C654 1.650 . S
C917 C359 1.650 . S
C923 C241 1.648 . S
C937 C418 1.649 . S
C943 C300 1.648 . S
C957 C446 1.590 . S
C963 C33 1.590 . S
C977 C92 1.595 . S
C983 C505 1.585 . S
C997 C151 1.594 . S
C1003 C564 1.588 . S
C1017 C210 1.589 . S
C1023 C623 1.591 . S
C1037 C682 1.595 . S
C1043 C269 1.585 . S
C1057 C328 1.588 . S
C1063 C387 1.592 . S
C1077 C642 1.495 1_455 S
C1083 C52 1.496 . S
C1097 C701 1.496 1_545 S
C1103 C111 1.497 1_655 S
C1117 C406 1.487 . S
C1123 C170 1.488 1_565 S
C1137 C229 1.497 . S
C1143 C465 1.497 1_655 S
C1157 C288 1.497 1_455 S
C1163 C524 1.497 1_565 S
C1177 C347 1.488 1_545 S
C1183 C583 1.487 . S
