# Generated by pormake.
# Topology afi, (4)-cn, num edge types: 1
# Building blocks:
#     Node 0, Type 0, BuildingBlock: TATPOV_clean_sbu_0, # of connection points: 4
#     Node 1, Type 0, BuildingBlock: TATPOV_clean_sbu_0, # of connection points: 4
#     Node 2, Type 0, BuildingBlock: TATPOV_clean_sbu_0, # of connection points: 4
#     Node 3, Type 0, BuildingBlock: TATPOV_clean_sbu_0, # of connection points: 4
#     Node 4, Type 0, BuildingBlock: TATPOV_clean_sbu_0, # of connection points: 4
#     Node 5, Type 0, BuildingBlock: TATPOV_clean_sbu_0, # of connection points: 4
#     Node 6, Type 0, BuildingBlock: TATPOV_clean_sbu_0, # of connection points: 4
#     Node 7, Type 0, BuildingBlock: TATPOV_clean_sbu_0, # of connection points: 4
#     Node 8, Type 0, BuildingBlock: TATPOV_clean_sbu_0, # of connection points: 4
#     Node 9, Type 0, BuildingBlock: TATPOV_clean_sbu_0, # of connection points: 4
#     Node 10, Type 0, BuildingBlock: TATPOV_clean_sbu_0, # of connection points: 4
#     Node 11, Type 0, BuildingBlock: TATPOV_clean_sbu_0, # of connection points: 4
#     Node 12, Type 0, BuildingBlock: TATPOV_clean_sbu_0, # of connection points: 4
#     Node 13, Type 0, BuildingBlock: TATPOV_clean_sbu_0, # of connection points: 4
#     Node 14, Type 0, BuildingBlock: TATPOV_clean_sbu_0, # of connection points: 4
#     Node 15, Type 0, BuildingBlock: TATPOV_clean_sbu_0, # of connection points: 4
#     Node 16, Type 0, BuildingBlock: TATPOV_clean_sbu_0, # of connection points: 4
#     Node 17, Type 0, BuildingBlock: TATPOV_clean_sbu_0, # of connection points: 4
#     Node 18, Type 0, BuildingBlock: TATPOV_clean_sbu_0, # of connection points: 4
#     Node 19, Type 0, BuildingBlock: TATPOV_clean_sbu_0, # of connection points: 4
#     Node 20, Type 0, BuildingBlock: TATPOV_clean_sbu_0, # of connection points: 4
#     Node 21, Type 0, BuildingBlock: TATPOV_clean_sbu_0, # of connection points: 4
#     Node 22, Type 0, BuildingBlock: TATPOV_clean_sbu_0, # of connection points: 4
#     Node 23, Type 0, BuildingBlock: TATPOV_clean_sbu_0, # of connection points: 4
#     Edge 24, Type (0, 0), BuildingBlock: TEMPAE_clean_linker_10, # of connection points: 2
#     Edge 25, Type (0, 0), BuildingBlock: TEMPAE_clean_linker_10, # of connection points: 2
#     Edge 26, Type (0, 0), BuildingBlock: TEMPAE_clean_linker_10, # of connection points: 2
#     Edge 27, Type (0, 0), BuildingBlock: TEMPAE_clean_linker_10, # of connection points: 2
#     Edge 28, Type (0, 0), BuildingBlock: TEMPAE_clean_linker_10, # of connection points: 2
#     Edge 29, Type (0, 0), BuildingBlock: TEMPAE_clean_linker_10, # of connection points: 2
#     Edge 30, Type (0, 0), BuildingBlock: TEMPAE_clean_linker_10, # of connection points: 2
#     Edge 31, Type (0, 0), BuildingBlock: TEMPAE_clean_linker_10, # of connection points: 2
#     Edge 32, Type (0, 0), BuildingBlock: TEMPAE_clean_linker_10, # of connection points: 2
#     Edge 33, Type (0, 0), BuildingBlock: TEMPAE_clean_linker_10, # of connection points: 2
#     Edge 34, Type (0, 0), BuildingBlock: TEMPAE_clean_linker_10, # of connection points: 2
#     Edge 35, Type (0, 0), BuildingBlock: TEMPAE_clean_linker_10, # of connection points: 2
#     Edge 36, Type (0, 0), BuildingBlock: TEMPAE_clean_linker_10, # of connection points: 2
#     Edge 37, Type (0, 0), BuildingBlock: TEMPAE_clean_linker_10, # of connection points: 2
#     Edge 38, Type (0, 0), BuildingBlock: TEMPAE_clean_linker_10, # of connection points: 2
#     Edge 39, Type (0, 0), BuildingBlock: TEMPAE_clean_linker_10, # of connection points: 2
#     Edge 40, Type (0, 0), BuildingBlock: TEMPAE_clean_linker_10, # of connection points: 2
#     Edge 41, Type (0, 0), BuildingBlock: TEMPAE_clean_linker_10, # of connection points: 2
#     Edge 42, Type (0, 0), BuildingBlock: TEMPAE_clean_linker_10, # of connection points: 2
#     Edge 43, Type (0, 0), BuildingBlock: TEMPAE_clean_linker_10, # of connection points: 2
#     Edge 44, Type (0, 0), BuildingBlock: TEMPAE_clean_linker_10, # of connection points: 2
#     Edge 45, Type (0, 0), BuildingBlock: TEMPAE_clean_linker_10, # of connection points: 2
#     Edge 46, Type (0, 0), BuildingBlock: TEMPAE_clean_linker_10, # of connection points: 2
#     Edge 47, Type (0, 0), BuildingBlock: TEMPAE_clean_linker_10, # of connection points: 2
#     Edge 48, Type (0, 0), BuildingBlock: TEMPAE_clean_linker_10, # of connection points: 2
#     Edge 49, Type (0, 0), BuildingBlock: TEMPAE_clean_linker_10, # of connection points: 2
#     Edge 50, Type (0, 0), BuildingBlock: TEMPAE_clean_linker_10, # of connection points: 2
#     Edge 51, Type (0, 0), BuildingBlock: TEMPAE_clean_linker_10, # of connection points: 2
#     Edge 52, Type (0, 0), BuildingBlock: TEMPAE_clean_linker_10, # of connection points: 2
#     Edge 53, Type (0, 0), BuildingBlock: TEMPAE_clean_linker_10, # of connection points: 2
#     Edge 54, Type (0, 0), BuildingBlock: TEMPAE_clean_linker_10, # of connection points: 2
#     Edge 55, Type (0, 0), BuildingBlock: TEMPAE_clean_linker_10, # of connection points: 2
#     Edge 56, Type (0, 0), BuildingBlock: TEMPAE_clean_linker_10, # of connection points: 2
#     Edge 57, Type (0, 0), BuildingBlock: TEMPAE_clean_linker_10, # of connection points: 2
#     Edge 58, Type (0, 0), BuildingBlock: TEMPAE_clean_linker_10, # of connection points: 2
#     Edge 59, Type (0, 0), BuildingBlock: TEMPAE_clean_linker_10, # of connection points: 2
#     Edge 60, Type (0, 0), BuildingBlock: TEMPAE_clean_linker_10, # of connection points: 2
#     Edge 61, Type (0, 0), BuildingBlock: TEMPAE_clean_linker_10, # of connection points: 2
#     Edge 62, Type (0, 0), BuildingBlock: TEMPAE_clean_linker_10, # of connection points: 2
#     Edge 63, Type (0, 0), BuildingBlock: TEMPAE_clean_linker_10, # of connection points: 2
#     Edge 64, Type (0, 0), BuildingBlock: TEMPAE_clean_linker_10, # of connection points: 2
#     Edge 65, Type (0, 0), BuildingBlock: TEMPAE_clean_linker_10, # of connection points: 2
#     Edge 66, Type (0, 0), BuildingBlock: TEMPAE_clean_linker_10, # of connection points: 2
#     Edge 67, Type (0, 0), BuildingBlock: TEMPAE_clean_linker_10, # of connection points: 2
#     Edge 68, Type (0, 0), BuildingBlock: TEMPAE_clean_linker_10, # of connection points: 2
#     Edge 69, Type (0, 0), BuildingBlock: TEMPAE_clean_linker_10, # of connection points: 2
#     Edge 70, Type (0, 0), BuildingBlock: TEMPAE_clean_linker_10, # of connection points: 2
#     Edge 71, Type (0, 0), BuildingBlock: TEMPAE_clean_linker_10, # of connection points: 2
# Relax obj value: 0.050
# Max RMSD: 0.066
# Mean RMSD: 0.066
data_MOF--net-afi--node1-TATPOV_clean_sbu_0--edge1-TEMPAE_clean_linker_10
_symmetry_space_group_name_H-M    P1
_symmetry_Int_Tables_number       1
_symmetry_cell_setting            triclinic
loop_
_symmetry_equiv_pos_as_xyz
'x, y, z'
_cell_length_a     66.372695
_cell_length_b     66.577178
_cell_length_c     41.759482
_cell_angle_alpha  89.98596
_cell_angle_beta   89.952438
_cell_angle_gamma 120.133
loop_
_atom_site_label
_atom_site_type_symbol
_atom_site_fract_x
_atom_site_fract_y
_atom_site_fract_z
_atom_type_partial_charge
Zn0 Zn 0.48275 0.12522 0.28454 0.0
Zn1 Zn 0.48205 0.12898 0.22273 0.0
O2 O 0.4561 0.09547 0.2332 0.0
O3 O 0.46359 0.09061 0.28307 0.0
O4 O 0.48166 0.13089 0.17382 0.0
O5 O 0.46653 0.14331 0.29001 0.0
O6 O 0.47347 0.15308 0.23905 0.0
C7 C 0.45195 0.08248 0.25766 0.0
C8 C 0.5275 0.1429 0.25941 0.0
O9 O 0.51588 0.13693 0.23335 0.0
O10 O 0.51744 0.14148 0.28571 0.0
C11 C 0.48029 0.11447 0.15655 0.0
O12 O 0.47915 0.09631 0.17075 0.0
C13 C 0.46617 0.15508 0.2665 0.0
Zn14 Zn 0.30976 0.43949 0.25139 0.0
Zn15 Zn 0.31009 0.43369 0.19182 0.0
O16 O 0.32477 0.41455 0.20926 0.0
O17 O 0.33096 0.42722 0.25902 0.0
O18 O 0.30722 0.42882 0.14323 0.0
O19 O 0.27588 0.41884 0.2577 0.0
O20 O 0.27582 0.42256 0.20542 0.0
C21 C 0.33357 0.41579 0.2369 0.0
C22 C 0.33476 0.48236 0.22138 0.0
O23 O 0.33275 0.46894 0.19826 0.0
O24 O 0.32355 0.47389 0.24706 0.0
C25 C 0.32282 0.44175 0.12309 0.0
O26 O 0.34262 0.45896 0.13371 0.0
C27 C 0.26482 0.41602 0.23198 0.0
Zn28 Zn 0.86503 0.30897 0.24841 0.0
Zn29 Zn 0.86799 0.31152 0.18846 0.0
O30 O 0.90221 0.33375 0.20232 0.0
O31 O 0.89594 0.33756 0.25315 0.0
O32 O 0.86836 0.31166 0.13953 0.0
O33 O 0.86283 0.27812 0.25123 0.0
O34 O 0.85462 0.27666 0.20002 0.0
C35 C 0.90954 0.34375 0.22936 0.0
C36 C 0.83485 0.32265 0.22584 0.0
O37 O 0.8471 0.32522 0.20094 0.0
O38 O 0.83652 0.31208 0.24994 0.0
C39 C 0.87412 0.32984 0.12299 0.0
O40 O 0.88032 0.34947 0.13792 0.0
C41 C 0.85572 0.2667 0.22555 0.0
Zn42 Zn 0.48258 0.86115 0.27196 0.0
Zn43 Zn 0.48772 0.85719 0.21122 0.0
O44 O 0.51225 0.89098 0.2229 0.0
O45 O 0.50139 0.89575 0.27077 0.0
O46 O 0.49191 0.85499 0.16295 0.0
O47 O 0.49855 0.84364 0.28287 0.0
O48 O 0.49595 0.83396 0.23194 0.0
C49 C 0.51466 0.90399 0.24673 0.0
C50 C 0.43971 0.84218 0.24071 0.0
O51 O 0.45299 0.84834 0.21618 0.0
O52 O 0.44808 0.84419 0.26844 0.0
C53 C 0.49649 0.87191 0.14428 0.0
O54 O 0.49842 0.89099 0.15649 0.0
C55 C 0.5011 0.8321 0.26084 0.0
Zn56 Zn 0.68332 0.56648 0.27917 0.0
Zn57 Zn 0.67537 0.55932 0.21629 0.0
O58 O 0.66456 0.58262 0.22822 0.0
O59 O 0.6713 0.58834 0.28008 0.0
O60 O 0.67313 0.55715 0.16743 0.0
O61 O 0.71723 0.5791 0.27498 0.0
O62 O 0.70987 0.56872 0.22435 0.0
C63 C 0.66397 0.59232 0.2543 0.0
C64 C 0.64979 0.51886 0.26236 0.0
O65 O 0.65252 0.52681 0.23389 0.0
O66 O 0.6615 0.53204 0.28526 0.0
C67 C 0.65435 0.54614 0.15142 0.0
O68 O 0.63443 0.53493 0.16683 0.0
C69 C 0.72409 0.57672 0.24779 0.0
Zn70 Zn 0.11332 0.66661 0.25037 0.0
Zn71 Zn 0.1082 0.66639 0.19087 0.0
O72 O 0.07458 0.64288 0.20599 0.0
O73 O 0.08285 0.63745 0.25515 0.0
O74 O 0.10661 0.66842 0.14215 0.0
O75 O 0.11478 0.69677 0.2577 0.0
O76 O 0.1207 0.70055 0.20569 0.0
C77 C 0.06836 0.63186 0.23253 0.0
C78 C 0.14323 0.65482 0.22202 0.0
O79 O 0.13003 0.65296 0.19862 0.0
O80 O 0.14227 0.66435 0.2477 0.0
C81 C 0.10098 0.65126 0.1235 0.0
O82 O 0.0955 0.63103 0.13598 0.0
C83 C 0.12025 0.70918 0.23281 0.0
Zn84 Zn 0.85583 0.50225 0.2678 0.0
Zn85 Zn 0.85763 0.50471 0.32803 0.0
O86 O 0.89243 0.52211 0.31462 0.0
O87 O 0.88912 0.51062 0.26452 0.0
O88 O 0.85748 0.50542 0.37701 0.0
O89 O 0.8483 0.52739 0.26316 0.0
O90 O 0.84067 0.52247 0.31479 0.0
C91 C 0.90178 0.52114 0.28835 0.0
C92 C 0.82967 0.45817 0.29194 0.0
O93 O 0.84069 0.46944 0.31687 0.0
O94 O 0.83064 0.46902 0.26664 0.0
C95 C 0.86876 0.5242 0.39285 0.0
O96 O 0.88122 0.54377 0.37717 0.0
C97 C 0.8404 0.5317 0.28811 0.0
Zn98 Zn 0.27975 0.87772 0.26558 0.0
Zn99 Zn 0.28584 0.8807 0.32673 0.0
O100 O 0.30547 0.91509 0.31204 0.0
O101 O 0.30389 0.91069 0.25965 0.0
O102 O 0.28774 0.88161 0.37565 0.0
O103 O 0.24624 0.86825 0.2671 0.0
O104 O 0.25015 0.86227 0.31788 0.0
C105 C 0.31208 0.92354 0.284 0.0
C106 C 0.30131 0.85266 0.28617 0.0
O107 O 0.30224 0.86298 0.31234 0.0
O108 O 0.29007 0.854 0.26258 0.0
C109 C 0.30566 0.88481 0.39111 0.0
O110 O 0.3241 0.88806 0.37506 0.0
C111 C 0.23715 0.8599 0.29397 0.0
Zn112 Zn 0.46737 0.33495 0.28541 0.0
Zn113 Zn 0.46161 0.33732 0.34555 0.0
O114 O 0.43751 0.34494 0.32528 0.0
O115 O 0.44868 0.34969 0.27482 0.0
O116 O 0.45768 0.33813 0.3941 0.0
O117 O 0.45188 0.3007 0.28501 0.0
O118 O 0.45495 0.3037 0.3375 0.0
C119 C 0.43596 0.35067 0.29656 0.0
C120 C 0.50948 0.36681 0.31346 0.0
O121 O 0.49569 0.36337 0.33682 0.0
O122 O 0.50198 0.35451 0.28849 0.0
C123 C 0.47258 0.33756 0.41273 0.0
O124 O 0.4903 0.33678 0.40005 0.0
C125 C 0.45 0.29149 0.31208 0.0
Zn126 Zn 0.12347 0.47261 0.25953 0.0
Zn127 Zn 0.12131 0.47249 0.32017 0.0
O128 O 0.08667 0.45392 0.30633 0.0
O129 O 0.08997 0.46317 0.25521 0.0
O130 O 0.1208 0.47394 0.36907 0.0
O131 O 0.13202 0.44796 0.25895 0.0
O132 O 0.13938 0.45523 0.31036 0.0
C133 C 0.07733 0.45356 0.27946 0.0
C134 C 0.14841 0.51772 0.28072 0.0
O135 O 0.13763 0.50715 0.30619 0.0
O136 O 0.14783 0.50617 0.25638 0.0
C137 C 0.10732 0.45654 0.38639 0.0
O138 O 0.09305 0.43673 0.37235 0.0
C139 C 0.14006 0.44505 0.28482 0.0
Zn140 Zn 0.68681 0.10839 0.26717 0.0
Zn141 Zn 0.6843 0.10205 0.32759 0.0
O142 O 0.66286 0.06846 0.31075 0.0
O143 O 0.66115 0.07629 0.25993 0.0
O144 O 0.68552 0.09947 0.37621 0.0
O145 O 0.7195 0.11571 0.26243 0.0
O146 O 0.71944 0.11924 0.31474 0.0
C147 C 0.65422 0.06191 0.28278 0.0
C148 C 0.66823 0.13329 0.29649 0.0
O149 O 0.66802 0.12108 0.32018 0.0
O150 O 0.67841 0.13345 0.27077 0.0
C151 C 0.66767 0.08978 0.39431 0.0
O152 O 0.64686 0.08036 0.38132 0.0
C153 C 0.73048 0.12189 0.28856 0.0
Zn154 Zn 0.525 0.66666 0.26638 0.0
Zn155 Zn 0.51695 0.65466 0.32833 0.0
O156 O 0.54511 0.65062 0.31654 0.0
O157 O 0.55058 0.65959 0.26515 0.0
O158 O 0.51124 0.64701 0.37608 0.0
O159 O 0.53326 0.69889 0.276 0.0
O160 O 0.52274 0.68826 0.32609 0.0
C161 C 0.55625 0.65326 0.29046 0.0
C162 C 0.47912 0.62852 0.27742 0.0
O163 O 0.48651 0.63052 0.30612 0.0
O164 O 0.49203 0.64249 0.25594 0.0
C165 C 0.52774 0.65676 0.39632 0.0
O166 O 0.5488 0.67146 0.38589 0.0
C167 C 0.52993 0.70363 0.30409 0.0
Zn168 Zn 0.5019 0.84796 0.77475 0.0
Zn169 Zn 0.50371 0.85644 0.83697 0.0
O170 O 0.53256 0.88634 0.81949 0.0
O171 O 0.52898 0.87946 0.76746 0.0
O172 O 0.50237 0.86094 0.88519 0.0
O173 O 0.50897 0.82293 0.78166 0.0
O174 O 0.50765 0.82742 0.83388 0.0
C175 C 0.53988 0.89247 0.79084 0.0
C176 C 0.46047 0.84523 0.79526 0.0
O177 O 0.47204 0.85206 0.8213 0.0
O178 O 0.46908 0.84097 0.77098 0.0
C179 C 0.51826 0.86371 0.90479 0.0
O180 O 0.53723 0.86464 0.89365 0.0
C181 C 0.51034 0.81707 0.80996 0.0
Zn182 Zn 0.661 0.54357 0.78219 0.0
Zn183 Zn 0.65753 0.5492 0.84179 0.0
O184 O 0.64201 0.56671 0.82161 0.0
O185 O 0.64002 0.5556 0.7715 0.0
O186 O 0.65593 0.55241 0.89035 0.0
O187 O 0.69489 0.56503 0.78003 0.0
O188 O 0.69306 0.56295 0.83263 0.0
C189 C 0.63504 0.56586 0.79283 0.0
C190 C 0.63531 0.5006 0.81105 0.0
O191 O 0.63657 0.51396 0.83381 0.0
O192 O 0.6473 0.50913 0.78595 0.0
C193 C 0.65967 0.53936 0.90878 0.0
O194 O 0.66452 0.52429 0.89584 0.0
C195 C 0.705 0.56957 0.80682 0.0
Zn196 Zn 0.11702 0.67351 0.75373 0.0
Zn197 Zn 0.11481 0.67158 0.81531 0.0
O198 O 0.08015 0.6522 0.80179 0.0
O199 O 0.08402 0.64798 0.75023 0.0
O200 O 0.11486 0.67018 0.86436 0.0
O201 O 0.12421 0.70628 0.75255 0.0
O202 O 0.13082 0.70677 0.80428 0.0
C203 C 0.07126 0.64306 0.7748 0.0
C204 C 0.14415 0.65585 0.77653 0.0
O205 O 0.13327 0.65543 0.80197 0.0
O206 O 0.14253 0.66579 0.75168 0.0
C207 C 0.09802 0.66761 0.88193 0.0
O208 O 0.07948 0.66608 0.86823 0.0
C209 C 0.13155 0.7174 0.77845 0.0
Zn210 Zn 0.51018 0.13418 0.78822 0.0
Zn211 Zn 0.50163 0.12741 0.84905 0.0
O212 O 0.47641 0.09581 0.83057 0.0
O213 O 0.48619 0.10131 0.77942 0.0
O214 O 0.49855 0.12488 0.89781 0.0
O215 O 0.49918 0.15638 0.7849 0.0
O216 O 0.49343 0.15293 0.83716 0.0
C217 C 0.47298 0.0886 0.80165 0.0
C218 C 0.55004 0.14163 0.81872 0.0
O219 O 0.5356 0.13408 0.84198 0.0
O220 O 0.5438 0.14492 0.79161 0.0
C221 C 0.48004 0.11951 0.91346 0.0
O222 O 0.461 0.11465 0.89766 0.0
C223 C 0.49255 0.1616 0.81027 0.0
Zn224 Zn 0.27359 0.39848 0.75682 0.0
Zn225 Zn 0.28578 0.40814 0.81871 0.0
O226 O 0.29647 0.38525 0.80446 0.0
O227 O 0.28682 0.37762 0.75357 0.0
O228 O 0.29358 0.41258 0.86647 0.0
O229 O 0.2401 0.38513 0.76725 0.0
O230 O 0.25072 0.39785 0.81653 0.0
C231 C 0.29608 0.37499 0.77845 0.0
C232 C 0.30677 0.44697 0.76928 0.0
O233 O 0.30612 0.43996 0.7979 0.0
O234 O 0.29394 0.43292 0.74781 0.0
C235 C 0.28876 0.42501 0.88455 0.0
O236 O 0.2786 0.43576 0.872 0.0
C237 C 0.23497 0.3885 0.79511 0.0
Zn238 Zn 0.85324 0.32768 0.75365 0.0
Zn239 Zn 0.85703 0.32636 0.81471 0.0
O240 O 0.89102 0.34886 0.80084 0.0
O241 O 0.88522 0.35542 0.75094 0.0
O242 O 0.85754 0.32512 0.86366 0.0
O243 O 0.84951 0.29642 0.74759 0.0
O244 O 0.84472 0.29229 0.79987 0.0
C245 C 0.89874 0.35991 0.77455 0.0
C246 C 0.82415 0.34065 0.78185 0.0
O247 O 0.83612 0.34065 0.80577 0.0
O248 O 0.82571 0.33231 0.75541 0.0
C249 C 0.87467 0.32702 0.87985 0.0
O250 O 0.89317 0.32965 0.86458 0.0
C251 C 0.84459 0.28389 0.77232 0.0
Zn252 Zn 0.11461 0.47348 0.75553 0.0
Zn253 Zn 0.11402 0.46739 0.69548 0.0
O254 O 0.07917 0.45338 0.70686 0.0
O255 O 0.08198 0.46756 0.7553 0.0
O256 O 0.11474 0.46364 0.64697 0.0
O257 O 0.1197 0.44724 0.76556 0.0
O258 O 0.12816 0.44825 0.71438 0.0
C259 C 0.06967 0.45658 0.73142 0.0
C260 C 0.14403 0.51543 0.72667 0.0
O261 O 0.13313 0.50307 0.70242 0.0
O262 O 0.14149 0.50594 0.75372 0.0
C263 C 0.10431 0.47056 0.62826 0.0
O264 O 0.09283 0.47999 0.64074 0.0
C265 C 0.12722 0.44046 0.74265 0.0
Zn266 Zn 0.70528 0.09139 0.76127 0.0
Zn267 Zn 0.69219 0.09354 0.70169 0.0
O268 O 0.67711 0.05859 0.71249 0.0
O269 O 0.68922 0.05685 0.76095 0.0
O270 O 0.68557 0.09474 0.65408 0.0
O271 O 0.73919 0.11054 0.75231 0.0
O272 O 0.72769 0.11639 0.70565 0.0
C273 C 0.67718 0.04675 0.73648 0.0
C274 C 0.67483 0.11115 0.75538 0.0
O275 O 0.67437 0.10637 0.72572 0.0
O276 O 0.68713 0.10721 0.7748 0.0
C277 C 0.6879 0.08164 0.63401 0.0
O278 O 0.69425 0.06704 0.64455 0.0
C279 C 0.74391 0.12115 0.72584 0.0
Zn280 Zn 0.48357 0.62345 0.76046 0.0
Zn281 Zn 0.49285 0.63362 0.70186 0.0
O282 O 0.51634 0.62346 0.71593 0.0
O283 O 0.50122 0.6066 0.76207 0.0
O284 O 0.49929 0.64107 0.65413 0.0
O285 O 0.49935 0.65619 0.77439 0.0
O286 O 0.49963 0.66466 0.72337 0.0
C287 C 0.51613 0.61164 0.74013 0.0
C288 C 0.44312 0.59967 0.72533 0.0
O289 O 0.4582 0.60698 0.70285 0.0
O290 O 0.44933 0.60646 0.75372 0.0
C291 C 0.49997 0.62644 0.63515 0.0
O292 O 0.49678 0.60675 0.64695 0.0
C293 C 0.50312 0.6709 0.75274 0.0
Zn294 Zn 0.85347 0.52744 0.76177 0.0
Zn295 Zn 0.85392 0.5299 0.70105 0.0
O296 O 0.88889 0.54728 0.71349 0.0
O297 O 0.88688 0.53611 0.76358 0.0
O298 O 0.85384 0.53085 0.65207 0.0
O299 O 0.84531 0.55219 0.7669 0.0
O300 O 0.83618 0.54668 0.71574 0.0
C301 C 0.89888 0.54641 0.73913 0.0
C302 C 0.82675 0.4833 0.73669 0.0
O303 O 0.83713 0.4947 0.71151 0.0
O304 O 0.82855 0.49395 0.76252 0.0
C305 C 0.86615 0.52465 0.63605 0.0
O306 O 0.87894 0.51793 0.65164 0.0
C307 C 0.83622 0.55582 0.74266 0.0
Zn308 Zn 0.30335 0.89319 0.76314 0.0
Zn309 Zn 0.30939 0.89335 0.70023 0.0
O310 O 0.32868 0.92772 0.71449 0.0
O311 O 0.32241 0.92752 0.76637 0.0
O312 O 0.31146 0.89492 0.65137 0.0
O313 O 0.26906 0.87818 0.76057 0.0
O314 O 0.27374 0.87383 0.70934 0.0
C315 C 0.33222 0.93846 0.74105 0.0
C316 C 0.32851 0.87004 0.74261 0.0
O317 O 0.32669 0.87678 0.71472 0.0
O318 O 0.31921 0.87393 0.76656 0.0
C319 C 0.30359 0.87679 0.63403 0.0
O320 O 0.29423 0.85639 0.64809 0.0
C321 C 0.26044 0.87002 0.73347 0.0
Zn322 Zn 0.44396 0.31503 0.78364 0.0
Zn323 Zn 0.45086 0.31878 0.72042 0.0
O324 O 0.42152 0.32173 0.72783 0.0
O325 O 0.4166 0.31917 0.78025 0.0
O326 O 0.45389 0.31945 0.67158 0.0
O327 O 0.43846 0.28315 0.78469 0.0
O328 O 0.44834 0.28744 0.73366 0.0
C329 C 0.41015 0.32139 0.75269 0.0
C330 C 0.48902 0.35266 0.76551 0.0
O331 O 0.48135 0.34677 0.73702 0.0
O332 O 0.47653 0.34162 0.78931 0.0
C333 C 0.45995 0.33776 0.65517 0.0
O334 O 0.4649 0.35704 0.67019 0.0
C335 C 0.44272 0.27551 0.75947 0.0
C336 C 0.43244 0.04177 0.2773 0.0
C337 C 0.43184 0.05876 0.2582 0.0
C338 C 0.41255 0.01987 0.28119 0.0
C339 C 0.39145 0.0152 0.26643 0.0
C340 C 0.39079 0.03227 0.24695 0.0
C341 C 0.41116 0.05379 0.24266 0.0
C342 C 0.41411 0.0018 0.3012 0.0
C343 C 0.36846 0.02801 0.23135 0.0
C344 C 0.34587 0.95245 0.25244 0.0
C345 C 0.33141 0.94749 0.27932 0.0
C346 C 0.36541 0.97443 0.24798 0.0
C347 C 0.37028 -0.00789 0.2705 0.0
C348 C 0.35542 0.98747 0.29729 0.0
C349 C 0.33629 0.965 0.30169 0.0
C350 C 0.38123 0.97848 0.21967 0.0
C351 C 0.35986 0.00616 0.32134 0.0
H352 H 0.44848 0.04569 0.28933 0.0
H353 H 0.41063 0.06711 0.22834 0.0
H354 H 0.40225 -0.003 0.32209 0.0
H355 H 0.40844 0.98579 0.28691 0.0
H356 H 0.43206 0.00797 0.31008 0.0
H357 H 0.37079 0.04332 0.2176 0.0
H358 H 0.36185 0.01295 0.21488 0.0
H359 H 0.3549 0.02366 0.24991 0.0
H360 H 0.34236 0.93885 0.23529 0.0
H361 H 0.32511 0.96117 0.32244 0.0
H362 H 0.399 0.98364 0.22822 0.0
H363 H 0.3827 -0.00708 0.20472 0.0
H364 H 0.37491 0.96281 0.20437 0.0
H365 H 0.37662 0.01181 0.33378 0.0
H366 H 0.34581 0.00016 0.33958 0.0
H367 H 0.36135 0.02159 0.30892 0.0
C368 C 0.42418 0.37256 0.26044 0.0
C369 C 0.41963 0.35869 0.28781 0.0
C370 C 0.40907 0.38035 0.25096 0.0
C371 C 0.38865 0.37378 0.26897 0.0
C372 C 0.38363 0.35935 0.29625 0.0
C373 C 0.39938 0.35217 0.30562 0.0
C374 C 0.4154 0.39625 0.22227 0.0
C375 C 0.3618 0.35177 0.31572 0.0
C376 C 0.3654 0.41515 0.26674 0.0
C377 C 0.34765 0.40486 0.24382 0.0
C378 C 0.37871 0.40508 0.27521 0.0
C379 C 0.37386 0.3839 0.26086 0.0
C380 C 0.35585 0.37327 0.23778 0.0
C381 C 0.34309 0.38408 0.22916 0.0
C382 C 0.3982 0.41734 0.2992 0.0
C383 C 0.35005 0.35048 0.22239 0.0
H384 H 0.4399 0.37775 0.24667 0.0
H385 H 0.3957 0.34124 0.32657 0.0
H386 H 0.40095 0.38904 0.20466 0.0
H387 H 0.41815 0.41341 0.22993 0.0
H388 H 0.43146 0.39894 0.21011 0.0
H389 H 0.35942 0.33892 0.33447 0.0
H390 H 0.36257 0.36707 0.3275 0.0
H391 H 0.34631 0.34402 0.29985 0.0
H392 H 0.3691 0.43136 0.2779 0.0
H393 H 0.32922 0.37605 0.21165 0.0
H394 H 0.41505 0.42143 0.28812 0.0
H395 H 0.39535 0.40584 0.32 0.0
H396 H 0.39967 0.43375 0.30809 0.0
H397 H 0.36526 0.35251 0.20863 0.0
H398 H 0.33488 0.34398 0.20598 0.0
H399 H 0.34615 0.3372 0.24115 0.0
C400 C 0.95207 0.36174 0.21778 0.0
C401 C 0.93388 0.36217 0.23408 0.0
C402 C 0.97536 0.37762 0.22554 0.0
C403 C 0.98036 0.39454 0.24956 0.0
C404 C 0.962 0.39569 0.26493 0.0
C405 C 0.93896 0.37932 0.25725 0.0
C406 C -0.00543 0.37576 0.20891 0.0
C407 C 0.96666 0.41388 0.28999 0.0
C408 C 0.03835 0.41977 0.29264 0.0
C409 C 0.05191 0.44011 0.27504 0.0
C410 C 0.01489 0.4048 0.28475 0.0
C411 C 0.00479 0.4107 0.25918 0.0
C412 C 0.01812 0.43185 0.24251 0.0
C413 C 0.04162 0.44619 0.25042 0.0
C414 C 0.0012 0.38226 0.30287 0.0
C415 C 0.00775 0.43902 0.21575 0.0
H416 H 0.9481 0.34837 0.20004 0.0
H417 H 0.92484 0.37978 0.26965 0.0
H418 H 0.00691 0.39252 0.19736 0.0
H419 H 0.00459 0.37197 0.22679 0.0
H420 H -0.01223 0.36191 0.19041 0.0
H421 H 0.95045 0.41338 0.29804 0.0
H422 H 0.97514 0.41118 0.31113 0.0
H423 H 0.97881 0.43146 0.28045 0.0
H424 H 0.04637 0.41496 0.31146 0.0
H425 H 0.05211 0.46202 0.23691 0.0
H426 H -0.00446 0.36741 0.28618 0.0
H427 H 0.98524 0.38103 0.3133 0.0
H428 H 0.0115 0.38047 0.32247 0.0
H429 H 0.00289 0.42665 0.19551 0.0
H430 H 0.02002 0.45677 0.20675 0.0
H431 H -0.0084 0.43847 0.22404 0.0
C432 C 0.55559 0.93347 0.23308 0.0
C433 C 0.53466 0.92778 0.24859 0.0
C434 C 0.5758 0.95489 0.23862 0.0
C435 C 0.57481 0.9711 0.25953 0.0
C436 C 0.55349 0.96576 0.27429 0.0
C437 C 0.53371 0.94403 0.2689 0.0
C438 C 0.59833 0.95995 0.22276 0.0
C439 C 0.55161 0.98292 0.29596 0.0
C440 C 0.62971 0.01977 0.29748 0.0
C441 C 0.63466 0.03824 0.27679 0.0
C442 C 0.61056 -0.00246 0.29171 0.0
C443 C 0.59585 -0.00597 0.26514 0.0
C444 C 0.60079 0.01265 0.24429 0.0
C445 C 0.62024 0.03443 0.25019 0.0
C446 C 0.60594 0.97787 0.31408 0.0
C447 C 0.58522 0.00973 0.21618 0.0
H448 H 0.55643 0.92079 0.21771 0.0
H449 H 0.5175 0.93964 0.28088 0.0
H450 H 0.60508 0.97574 0.20766 0.0
H451 H 0.61169 0.96348 0.24128 0.0
H452 H 0.59623 0.94533 0.20755 0.0
H453 H 0.53357 0.97627 0.30487 0.0
H454 H 0.56334 0.98696 0.31684 0.0
H455 H 0.55727 -0.00055 0.28296 0.0
H456 H 0.64084 0.02266 0.31801 0.0
H457 H 0.62378 0.04869 0.23428 0.0
H458 H 0.60483 0.9631 0.30028 0.0
H459 H 0.58894 0.9715 0.32626 0.0
H460 H 0.6197 0.98317 0.33259 0.0
H461 H 0.58395 -0.00403 0.19993 0.0
H462 H 0.59162 0.02602 0.20218 0.0
H463 H 0.56735 0.00416 0.2248 0.0
C464 C 0.59353 0.66059 0.26666 0.0
C465 C 0.5754 0.64825 0.28857 0.0
C466 C 0.61031 0.65419 0.26087 0.0
C467 C 0.60852 0.63466 0.27685 0.0
C468 C 0.59075 0.62266 0.29994 0.0
C469 C 0.57448 0.62981 0.30583 0.0
C470 C 0.6294 0.66779 0.23679 0.0
C471 C 0.58824 0.60159 0.31722 0.0
C472 C 0.63278 0.6002 0.2369 0.0
C473 C 0.6523 0.6061 0.25597 0.0
C474 C 0.61859 0.60981 0.24301 0.0
C475 C 0.62449 0.62603 0.26826 0.0
C476 C 0.64508 0.63321 0.28611 0.0
C477 C 0.65862 0.62294 0.27996 0.0
C478 C 0.59663 0.60165 0.22364 0.0
C479 C 0.65226 0.65097 0.31256 0.0
H480 H 0.59432 0.67502 0.25353 0.0
H481 H 0.56035 0.62022 0.32261 0.0
H482 H 0.64665 0.67262 0.24712 0.0
H483 H 0.62688 0.65688 0.21543 0.0
H484 H 0.62968 0.68387 0.2289 0.0
H485 H 0.57402 0.59476 0.33529 0.0
H486 H 0.5845 0.58765 0.29965 0.0
H487 H 0.60476 0.60589 0.32942 0.0
H488 H 0.62778 0.58701 0.21857 0.0
H489 H 0.67383 0.62757 0.29461 0.0
H490 H 0.59621 0.61669 0.21301 0.0
H491 H 0.58121 0.59255 0.23954 0.0
H492 H 0.59505 0.58963 0.20407 0.0
H493 H 0.65195 0.66657 0.30392 0.0
H494 H 0.66996 0.65642 0.32181 0.0
H495 H 0.63971 0.64359 0.3327 0.0
C496 C 0.03991 0.59623 0.26157 0.0
C497 C 0.04423 0.61313 0.23828 0.0
C498 C 0.01715 0.57968 0.27032 0.0
C499 C -0.00175 0.58031 0.25579 0.0
C500 C 0.00245 0.5969 0.23157 0.0
C501 C 0.02548 0.61304 0.22285 0.0
C502 C 0.01335 0.56191 0.29566 0.0
C503 C 0.98266 0.59811 0.2157 0.0
C504 C 0.93736 0.52812 0.25914 0.0
C505 C 0.92722 0.53444 0.28372 0.0
C506 C 0.96072 0.54253 0.2505 0.0
C507 C 0.97411 0.56395 0.26649 0.0
C508 C 0.96425 0.57001 0.29221 0.0
C509 C 0.94091 0.55503 0.30074 0.0
C510 C 0.97082 0.53521 0.22352 0.0
C511 C 0.97804 0.59278 0.30973 0.0
H512 H 0.05442 0.59613 0.27333 0.0
H513 H 0.02881 0.62617 0.20498 0.0
H514 H 0.00518 0.56468 0.31711 0.0
H515 H 0.00123 0.54414 0.28672 0.0
H516 H 0.02987 0.56284 0.30305 0.0
H517 H -0.01116 0.6117 0.19682 0.0
H518 H 0.97031 0.58112 0.20477 0.0
H519 H 0.97285 0.6019 0.23393 0.0
H520 H 0.92682 0.51211 0.24606 0.0
H521 H 0.93304 0.56004 0.31955 0.0
H522 H -0.01266 0.5363 0.23119 0.0
H523 H 0.97496 0.54718 0.2029 0.0
H524 H 0.95865 0.51723 0.21529 0.0
H525 H -0.00561 0.59446 0.31932 0.0
H526 H 0.96807 0.59453 0.32986 0.0
H527 H 0.98301 0.6074 0.29282 0.0
C528 C 0.5687 0.93429 0.80176 0.0
C529 C 0.56184 0.91407 0.78402 0.0
C530 C 0.58863 0.95524 0.79296 0.0
C531 C 0.60218 0.95561 0.76642 0.0
C532 C 0.59585 0.93493 0.74944 0.0
C533 C 0.5756 0.91449 0.75821 0.0
C534 C 0.59473 0.97709 0.81131 0.0
C535 C 0.6102 0.93449 0.72163 0.0
C536 C 0.6382 0.01314 0.72372 0.0
C537 C 0.65981 0.02182 0.73893 0.0
C538 C 0.61936 -0.00863 0.73207 0.0
C539 C 0.62244 0.9778 0.75556 0.0
C540 C 0.64468 0.98575 0.76921 0.0
C541 C 0.66307 0.00782 0.76098 0.0
C542 C 0.59583 0.98353 0.71715 0.0
C543 C 0.64879 0.97141 0.79353 0.0
H544 H 0.55801 0.93393 0.82165 0.0
H545 H 0.57047 0.89872 0.74474 0.0
H546 H 0.61274 0.98504 0.82074 0.0
H547 H 0.59415 0.98997 0.79502 0.0
H548 H 0.58265 0.97379 0.83165 0.0
H549 H 0.60385 0.91661 0.71257 0.0
H550 H 0.60964 0.94522 0.7017 0.0
H551 H 0.6287 0.94211 0.72884 0.0
H552 H 0.63553 0.02402 0.70695 0.0
H553 H 0.67979 0.01451 0.77273 0.0
H554 H 0.58333 0.98204 0.73597 0.0
H555 H 0.58886 0.9661 0.70624 0.0
H556 H 0.59656 -0.00426 0.69844 0.0
H557 H 0.63925 0.97018 0.81594 0.0
H558 H 0.66756 0.97901 0.79934 0.0
H559 H 0.642 0.95347 0.78454 0.0
C560 C 0.60752 0.56824 0.7549 0.0
C561 C 0.61981 0.57523 0.78396 0.0
C562 C 0.59169 0.57532 0.74638 0.0
C563 C 0.5883 0.5901 0.76713 0.0
C564 C 0.60122 0.59796 0.79596 0.0
C565 C 0.61671 0.59021 0.80424 0.0
C566 C 0.57788 0.56615 0.71578 0.0
C567 C 0.59823 0.61407 0.81836 0.0
C568 C 0.55671 0.61936 0.73225 0.0
C569 C 0.53423 0.60528 0.74453 0.0
C570 C 0.57471 0.61493 0.73993 0.0
C571 C 0.56986 0.59573 0.75969 0.0
C572 C 0.547 0.5811 0.77133 0.0
C573 C 0.52952 0.5862 0.76384 0.0
C574 C 0.59898 0.631 0.72741 0.0
C575 C 0.541 0.56007 0.79172 0.0
H576 H 0.60969 0.55656 0.73912 0.0
H577 H 0.62626 0.59576 0.82661 0.0
H578 H 0.5591 0.55515 0.72156 0.0
H579 H 0.57978 0.58071 0.70068 0.0
H580 H 0.58341 0.55564 0.70157 0.0
H581 H 0.61107 0.62026 0.83825 0.0
H582 H 0.60013 0.62934 0.80502 0.0
H583 H 0.58045 0.60495 0.82877 0.0
H584 H 0.56041 0.6343 0.71766 0.0
H585 H 0.5121 0.57527 0.77327 0.0
H586 H 0.60487 0.62115 0.71247 0.0
H587 H 0.61133 0.63848 0.74773 0.0
H588 H 0.59995 0.64543 0.71286 0.0
H589 H 0.54522 0.54815 0.7786 0.0
H590 H 0.52229 0.55033 0.7985 0.0
H591 H 0.55159 0.56545 0.81392 0.0
C592 C 0.93495 0.55098 0.76393 0.0
C593 C 0.92445 0.55866 0.74173 0.0
C594 C 0.95898 0.5637 0.76951 0.0
C595 C 0.9727 0.58485 0.753 0.0
C596 C 0.96227 0.59248 0.73007 0.0
C597 C 0.93822 0.5791 0.72441 0.0
C598 C 0.96961 0.55469 0.79345 0.0
C599 C 0.97637 0.61512 0.71231 0.0
C600 C 0.03004 0.62934 0.7906 0.0
C601 C 0.04604 0.6271 0.77127 0.0
C602 C 0.00601 0.61566 0.78492 0.0
C603 C -0.00203 0.59907 0.75986 0.0
C604 C 0.01407 0.59616 0.74113 0.0
C605 C 0.03793 0.61041 0.74684 0.0
C606 C -0.01071 0.6194 0.80509 0.0
C607 C 0.00611 0.57821 0.71482 0.0
H608 H 0.9243 0.53508 0.7772 0.0
H609 H 0.93006 0.58514 0.70747 0.0
H610 H 0.98414 0.55352 0.78221 0.0
H611 H 0.977 0.56693 0.81385 0.0
H612 H 0.9567 0.5373 0.80293 0.0
H613 H 0.96562 0.61851 0.69516 0.0
H614 H 0.98441 0.62969 0.72965 0.0
H615 H -0.00925 0.615 0.69892 0.0
H616 H 0.03633 0.64236 0.80934 0.0
H617 H 0.05032 0.60853 0.73205 0.0
H618 H 0.97663 0.60296 0.81707 0.0
H619 H 0.97917 0.62466 0.78955 0.0
H620 H -0.00164 0.63294 0.82368 0.0
H621 H -0.00646 0.5608 0.72448 0.0
H622 H 0.02085 0.57737 0.70358 0.0
H623 H -0.00304 0.5823 0.69596 0.0
C624 C 0.44351 0.04665 0.81048 0.0
C625 C 0.45176 0.06703 0.79256 0.0
C626 C 0.42356 0.02612 0.80058 0.0
C627 C 0.41131 0.02643 0.77291 0.0
C628 C 0.41926 0.04724 0.75545 0.0
C629 C 0.43961 0.06718 0.7652 0.0
C630 C 0.41584 0.00404 0.8193 0.0
C631 C 0.40623 0.04848 0.72655 0.0
C632 C 0.37258 0.96971 0.72981 0.0
C633 C 0.35099 0.96271 0.74418 0.0
C634 C 0.39241 0.99054 0.73883 0.0
C635 C 0.3903 0.00494 0.76194 0.0
C636 C 0.36818 -0.00135 0.77486 0.0
C637 C 0.34882 0.97734 0.76625 0.0
C638 C 0.4158 -0.00354 0.72502 0.0
C639 C 0.3651 0.01402 0.79859 0.0
H640 H 0.45298 0.04664 0.83161 0.0
H641 H 0.44584 0.08313 0.75166 0.0
H642 H 0.39797 -0.00258 0.82872 0.0
H643 H 0.41526 0.99044 0.80331 0.0
H644 H 0.42762 0.0066 0.83971 0.0
H645 H 0.41415 0.06634 0.71662 0.0
H646 H 0.40598 0.03676 0.70749 0.0
H647 H 0.38785 0.04249 0.73305 0.0
H648 H 0.37431 0.95812 0.71325 0.0
H649 H 0.33208 0.97176 0.77747 0.0
H650 H 0.42744 -0.00291 0.74453 0.0
H651 H 0.42423 0.01389 0.71373 0.0
H652 H 0.41437 0.98362 0.70686 0.0
H653 H 0.37406 0.01471 0.82131 0.0
H654 H 0.34646 0.00768 0.80393 0.0
H655 H 0.37316 0.03203 0.78925 0.0
C656 C 0.30347 0.34602 0.75127 0.0
C657 C 0.30894 0.36238 0.77576 0.0
C658 C 0.31769 0.33646 0.74523 0.0
C659 C 0.33807 0.34388 0.76367 0.0
C660 C 0.34327 0.35984 0.78908 0.0
C661 C 0.32844 0.36869 0.79508 0.0
C662 C 0.31128 0.31895 0.71859 0.0
C663 C 0.36501 0.36832 0.80908 0.0
C664 C 0.37067 0.31125 0.77057 0.0
C665 C 0.38971 0.32427 0.75032 0.0
C666 C 0.35275 0.31639 0.77337 0.0
C667 C 0.35437 0.33544 0.75621 0.0
C668 C 0.37295 0.34786 0.73436 0.0
C669 C 0.39035 0.34188 0.73136 0.0
C670 C 0.33285 0.30232 0.79614 0.0
C671 C 0.37537 0.36848 0.71598 0.0
H672 H 0.28831 0.34105 0.73639 0.0
H673 H 0.33281 0.38151 0.8138 0.0
H674 H 0.32438 0.3265 0.6991 0.0
H675 H 0.31141 0.30331 0.72748 0.0
H676 H 0.29383 0.31353 0.7084 0.0
H677 H 0.36645 0.3807 0.82799 0.0
H678 H 0.36518 0.35342 0.82068 0.0
H679 H 0.38065 0.37705 0.79348 0.0
H680 H 0.3702 0.29749 0.78503 0.0
H681 H 0.40523 0.352 0.71591 0.0
H682 H 0.31594 0.29761 0.78477 0.0
H683 H 0.33466 0.31284 0.81768 0.0
H684 H 0.33241 0.28616 0.80398 0.0
H685 H 0.35887 0.36393 0.70354 0.0
H686 H 0.38963 0.37497 0.698 0.0
H687 H 0.37909 0.38278 0.73293 0.0
C688 C 0.0296 0.42514 0.71721 0.0
C689 C 0.04415 0.44555 0.73409 0.0
C690 C 0.00564 0.41239 0.72375 0.0
C691 C -0.00392 0.42057 0.74726 0.0
C692 C 0.0105 0.44187 0.76299 0.0
C693 C 0.03442 0.45403 0.7564 0.0
C694 C -0.00924 0.38965 0.70661 0.0
C695 C 0.00081 0.45141 0.78759 0.0
C696 C 0.93055 0.39384 0.74606 0.0
C697 C 0.92365 0.37703 0.77028 0.0
C698 C 0.95414 0.40868 0.73901 0.0
C699 C 0.97117 0.40635 0.75623 0.0
C700 C 0.96436 0.3899 0.78138 0.0
C701 C 0.94061 0.37553 0.78833 0.0
C702 C 0.96078 0.4264 0.71257 0.0
C703 C 0.98211 0.38686 0.80012 0.0
H704 H 0.0371 0.41848 0.70011 0.0
H705 H 0.04563 0.46993 0.76931 0.0
H706 H 0.98359 0.37519 0.7242 0.0
H707 H 0.97575 0.38962 0.69491 0.0
H708 H 0.00069 0.38618 0.68816 0.0
H709 H 0.01397 0.46916 0.79557 0.0
H710 H 0.98557 0.45194 0.77771 0.0
H711 H -0.00533 0.43983 0.80883 0.0
H712 H 0.91745 0.39518 0.73226 0.0
H713 H 0.9353 0.36248 0.80695 0.0
H714 H 0.96888 0.42206 0.6925 0.0
H715 H 0.97387 0.4439 0.72133 0.0
H716 H 0.94552 0.42716 0.70317 0.0
H717 H -0.00837 0.38136 0.78376 0.0
H718 H 0.97399 0.37373 0.81948 0.0
H719 H -0.00484 0.40362 0.81095 0.0
C720 C 0.4421 0.16781 0.2962 0.0
C721 C 0.4585 0.17201 0.27211 0.0
C722 C 0.43664 0.18484 0.30488 0.0
C723 C 0.44839 0.20674 0.28966 0.0
C724 C 0.4644 0.2108 0.26456 0.0
C725 C 0.46904 0.19321 0.25577 0.0
C726 C 0.4189 0.17965 0.33095 0.0
C727 C 0.47742 0.23408 0.24796 0.0
C728 C 0.42951 0.25151 0.29054 0.0
C729 C 0.44509 0.26743 0.31284 0.0
C730 C 0.42897 0.23055 0.28464 0.0
C731 C 0.4449 0.2259 0.30078 0.0
C732 C 0.45943 0.24114 0.32509 0.0
C733 C 0.45912 0.2617 0.33114 0.0
C734 C 0.41263 0.21432 0.25941 0.0
C735 C 0.47678 0.23682 0.34262 0.0
H736 H 0.43377 0.15126 0.30864 0.0
H737 H 0.48182 0.19646 0.23729 0.0
H738 H 0.42772 0.19004 0.35255 0.0
H739 H 0.40604 0.18464 0.32314 0.0
H740 H 0.40944 0.16098 0.33771 0.0
H741 H 0.48907 0.23429 0.22869 0.0
H742 H 0.46495 0.23867 0.23735 0.0
H743 H 0.4881 0.24776 0.26568 0.0
H744 H 0.41859 0.25601 0.27652 0.0
H745 H 0.47131 0.27419 0.34816 0.0
H746 H 0.40437 0.196 0.26755 0.0
H747 H 0.42259 0.21591 0.23729 0.0
H748 H 0.39872 0.21833 0.25334 0.0
H749 H 0.46823 0.21883 0.35204 0.0
H750 H 0.48514 0.24909 0.36285 0.0
H751 H 0.49059 0.23883 0.32572 0.0
C752 C 0.14478 0.41297 0.26325 0.0
C753 C 0.15272 0.43226 0.28352 0.0
C754 C 0.1592 0.40396 0.25527 0.0
C755 C 0.18229 0.41513 0.26694 0.0
C756 C 0.18974 0.43352 0.28936 0.0
C757 C 0.17465 0.44165 0.29778 0.0
C758 C 0.15026 0.38364 0.23256 0.0
C759 C 0.21433 0.44602 0.3022 0.0
C760 C 0.22656 0.39572 0.25967 0.0
C761 C 0.24029 0.40986 0.2344 0.0
C762 C 0.20603 0.39535 0.26867 0.0
C763 C 0.19969 0.41006 0.25262 0.0
C764 C 0.21234 0.42265 0.2252 0.0
C765 C 0.23237 0.4221 0.2161 0.0
C766 C 0.19234 0.38079 0.29698 0.0
C767 C 0.20618 0.43863 0.20747 0.0
H768 H 0.12766 0.40561 0.25244 0.0
H769 H 0.18076 0.45666 0.3133 0.0
H770 H 0.1567 0.39006 0.20803 0.0
H771 H 0.15664 0.37171 0.23946 0.0
H772 H 0.13091 0.3737 0.23185 0.0
H773 H 0.21687 0.45895 0.3209 0.0
H774 H 0.21884 0.43344 0.31253 0.0
H775 H 0.22671 0.45518 0.28231 0.0
H776 H 0.23263 0.38607 0.27365 0.0
H777 H 0.24306 0.4331 0.19666 0.0
H778 H 0.17334 0.37314 0.29308 0.0
H779 H 0.1971 0.39189 0.31864 0.0
H780 H 0.19608 0.36657 0.30174 0.0
H781 H 0.18747 0.42934 0.20099 0.0
H782 H 0.21664 0.44577 0.18527 0.0
H783 H 0.20935 0.45335 0.22325 0.0
C784 C 0.7685 0.13374 0.26262 0.0
C785 C 0.75587 0.13712 0.28687 0.0
C786 C 0.7901 0.15207 0.25248 0.0
C787 C 0.79852 0.17433 0.26603 0.0
C788 C 0.78715 0.17701 0.29309 0.0
C789 C 0.76608 0.15813 0.30359 0.0
C790 C 0.80259 0.14812 0.22516 0.0
C791 C 0.79556 0.20045 0.30839 0.0
C792 C 0.85315 0.23111 0.24873 0.0
C793 C 0.84443 0.24129 0.22763 0.0
C794 C 0.83921 0.208 0.2587 0.0
C795 C 0.81578 0.19537 0.24842 0.0
C796 C 0.80769 0.20493 0.22474 0.0
C797 C 0.82235 0.22772 0.21417 0.0
C798 C 0.84901 0.19797 0.28227 0.0
C799 C 0.78275 0.19213 0.21318 0.0
H800 H 0.76069 0.11731 0.24995 0.0
H801 H 0.75629 0.16072 0.32235 0.0
H802 H 0.79733 0.15254 0.20221 0.0
H803 H 0.82176 0.15927 0.22753 0.0
H804 H 0.79808 0.12966 0.22394 0.0
H805 H 0.78576 0.19922 0.3306 0.0
H806 H 0.81431 0.20875 0.31437 0.0
H807 H 0.79344 0.21201 0.29125 0.0
H808 H 0.8704 0.24162 0.25889 0.0
H809 H 0.81563 0.23568 0.19794 0.0
H810 H 0.84079 0.17886 0.27955 0.0
H811 H 0.8457 0.20165 0.30702 0.0
H812 H 0.86816 0.20598 0.27926 0.0
H813 H 0.77807 0.17462 0.20436 0.0
H814 H 0.77962 0.20155 0.19362 0.0
H815 H 0.77088 0.1898 0.23338 0.0
C816 C 0.50336 0.79638 0.2508 0.0
C817 C 0.50927 0.81596 0.26955 0.0
C818 C 0.50912 0.7798 0.26081 0.0
C819 C 0.52147 0.78323 0.28988 0.0
C820 C 0.52828 0.80344 0.30823 0.0
C821 C 0.52189 0.81949 0.29799 0.0
C822 C 0.50147 0.75831 0.24068 0.0
C823 C 0.54197 0.80793 0.33886 0.0
C824 C 0.51322 0.72714 0.32418 0.0
C825 C 0.53155 0.72615 0.30922 0.0
C826 C 0.51053 0.74656 0.31997 0.0
C827 C 0.52688 0.76536 0.30097 0.0
C828 C 0.54684 0.76544 0.289 0.0
C829 C 0.5488 0.74563 0.29297 0.0
C830 C 0.48899 0.74589 0.33306 0.0
C831 C 0.56502 0.78547 0.26949 0.0
H832 H 0.49353 0.79361 0.22891 0.0
H833 H 0.52669 0.83479 0.31238 0.0
H834 H 0.51686 0.75709 0.23318 0.0
H835 H 0.49008 0.74258 0.25503 0.0
H836 H 0.49183 0.75821 0.21889 0.0
H837 H 0.5472 0.82524 0.34922 0.0
H838 H 0.53138 0.79443 0.35684 0.0
H839 H 0.55788 0.80684 0.33445 0.0
H840 H 0.49982 0.71194 0.33651 0.0
H841 H 0.56305 0.74479 0.28157 0.0
H842 H 0.47688 0.74314 0.31305 0.0
H843 H 0.49347 0.76261 0.3446 0.0
H844 H 0.47975 0.73166 0.35076 0.0
H845 H 0.55807 0.785 0.24518 0.0
H846 H 0.58127 0.78468 0.26701 0.0
H847 H 0.56934 0.80232 0.28052 0.0
C848 C 0.75008 0.56283 0.22778 0.0
C849 C 0.74725 0.579 0.24568 0.0
C850 C 0.76897 0.55947 0.2336 0.0
C851 C 0.78557 0.57307 0.25723 0.0
C852 C 0.78426 0.59135 0.27243 0.0
C853 C 0.76487 0.59391 0.26677 0.0
C854 C 0.76976 0.53976 0.21688 0.0
C855 C 0.80217 0.60685 0.29672 0.0
C856 C 0.80886 0.53984 0.30241 0.0
C857 C 0.82899 0.54564 0.28486 0.0
C858 C 0.79504 0.54956 0.29455 0.0
C859 C 0.80199 0.56586 0.26915 0.0
C860 C 0.82341 0.57329 0.25332 0.0
C861 C 0.83652 0.56279 0.26106 0.0
C862 C 0.77219 0.54112 0.3119 0.0
C863 C 0.83182 0.59125 0.22699 0.0
H864 H 0.73642 0.55125 0.21154 0.0
H865 H 0.76277 0.60661 0.28037 0.0
H866 H 0.78739 0.54569 0.20706 0.0
H867 H 0.76589 0.52574 0.23441 0.0
H868 H 0.75693 0.53235 0.19704 0.0
H869 H 0.80147 0.62296 0.30104 0.0
H870 H 0.79884 0.59742 0.31978 0.0
H871 H 0.82 0.61168 0.28877 0.0
H872 H 0.80304 0.52652 0.32073 0.0
H873 H 0.85231 0.56745 0.24773 0.0
H874 H 0.75754 0.53175 0.29488 0.0
H875 H 0.77104 0.55604 0.32147 0.0
H876 H 0.76991 0.52925 0.33204 0.0
H877 H 0.82183 0.58323 0.2048 0.0
H878 H 0.85061 0.59838 0.22172 0.0
H879 H 0.82896 0.60579 0.2335 0.0
C880 C 0.15096 0.74976 0.22246 0.0
C881 C 0.12974 0.73425 0.23687 0.0
C882 C 0.16405 0.77266 0.23353 0.0
C883 C 0.15517 0.78026 0.2588 0.0
C884 C 0.13242 0.76541 0.27057 0.0
C885 C 0.12015 0.74232 0.25996 0.0
C886 C 0.18833 0.78787 0.2204 0.0
C887 C 0.12172 0.77318 0.29608 0.0
C888 C 0.20503 0.82154 0.31083 0.0
C889 C 0.21218 0.8424 0.29445 0.0
C890 C 0.18488 0.80118 0.30143 0.0
C891 C 0.17127 0.80206 0.2759 0.0
C892 C 0.17641 0.82378 0.26306 0.0
C893 C 0.19714 0.84375 0.27209 0.0
C894 C 0.17995 0.77837 0.31598 0.0
C895 C 0.16142 0.82563 0.23744 0.0
H896 H 0.15836 0.74341 0.20473 0.0
H897 H 0.10356 0.73026 0.2709 0.0
H898 H 0.1907 0.80481 0.21246 0.0
H899 H 0.20132 0.7914 0.23951 0.0
H900 H 0.19214 0.7797 0.19985 0.0
H901 H 0.1024 0.76327 0.29462 0.0
H902 H 0.12673 0.76995 0.32005 0.0
H903 H 0.12781 0.792 0.29409 0.0
H904 H 0.21659 0.82048 0.32822 0.0
H905 H 0.2025 0.86 0.25975 0.0
H906 H 0.18335 0.76819 0.29792 0.0
H907 H 0.16142 0.76793 0.32317 0.0
H908 H 0.19098 0.78087 0.3373 0.0
H909 H 0.16634 0.82186 0.21375 0.0
H910 H 0.16381 0.84338 0.23653 0.0
H911 H 0.14272 0.81289 0.24155 0.0
C912 C 0.52014 0.70288 0.79264 0.0
C913 C 0.5098 0.69469 0.76256 0.0
C914 C 0.52358 0.72396 0.80478 0.0
C915 C 0.51615 0.73692 0.78658 0.0
C916 C 0.50666 0.72927 0.75557 0.0
C917 C 0.50378 0.70827 0.74378 0.0
C918 C 0.53432 0.7319 0.83752 0.0
C919 C 0.49858 0.74274 0.73544 0.0
C920 C 0.49687 0.77623 0.82386 0.0
C921 C 0.51484 0.7979 0.8139 0.0
C922 C 0.49778 0.75607 0.81706 0.0
C923 C 0.51724 0.75796 0.80026 0.0
C924 C 0.53645 0.7801 0.79316 0.0
C925 C 0.53488 0.79986 0.79976 0.0
C926 C 0.47698 0.73272 0.82505 0.0
C927 C 0.55773 0.78286 0.77602 0.0
H928 H 0.52506 0.69249 0.80708 0.0
H929 H 0.49572 0.70192 0.7206 0.0
H930 H 0.5485 0.75031 0.83671 0.0
H931 H 0.52097 0.73083 0.85453 0.0
H932 H 0.54148 0.72117 0.847 0.0
H933 H 0.49218 0.73475 0.71154 0.0
H934 H 0.48431 0.74364 0.74799 0.0
H935 H 0.51303 0.76082 0.732 0.0
H936 H 0.48125 0.77486 0.83429 0.0
H937 H 0.54864 0.81676 0.79184 0.0
H938 H 0.4826 0.72131 0.83651 0.0
H939 H 0.46768 0.72408 0.80264 0.0
H940 H 0.46455 0.73427 0.84127 0.0
H941 H 0.56324 0.77096 0.78615 0.0
H942 H 0.57258 0.80096 0.77747 0.0
H943 H 0.55353 0.77832 0.75039 0.0
C944 C 0.73885 0.56588 0.82232 0.0
C945 C 0.73018 0.57849 0.80663 0.0
C946 C 0.76002 0.56786 0.81267 0.0
C947 C 0.77287 0.5833 0.78743 0.0
C948 C 0.76566 0.59836 0.77476 0.0
C949 C 0.7441 0.59548 0.78414 0.0
C950 C 0.76712 0.55147 0.82685 0.0
C951 C 0.77947 0.61585 0.74903 0.0
C952 C 0.82957 0.58465 0.77136 0.0
C953 C 0.82262 0.56745 0.74774 0.0
C954 C 0.81417 0.59166 0.78269 0.0
C955 C 0.79113 0.58057 0.77083 0.0
C956 C 0.78465 0.5645 0.74521 0.0
C957 C 0.80067 0.55838 0.73362 0.0
C958 C 0.82208 0.60965 0.8089 0.0
C959 C 0.76018 0.5522 0.73192 0.0
H960 H 0.72794 0.55262 0.83951 0.0
H961 H 0.73732 0.6053 0.77213 0.0
H962 H 0.76477 0.5383 0.80867 0.0
H963 H 0.78578 0.56098 0.83363 0.0
H964 H 0.75662 0.54229 0.84832 0.0
H965 H 0.77477 0.62966 0.74748 0.0
H966 H 0.79846 0.62404 0.75351 0.0
H967 H 0.77576 0.60696 0.7255 0.0
H968 H 0.84668 0.59181 0.7821 0.0
H969 H 0.79529 0.54499 0.7155 0.0
H970 H 0.81607 0.60084 0.83239 0.0
H971 H 0.81458 0.62112 0.80567 0.0
H972 H 0.84138 0.62053 0.80964 0.0
H973 H 0.7478 0.54109 0.7508 0.0
H974 H 0.75834 0.54109 0.711 0.0
H975 H 0.75505 0.56499 0.7245 0.0
C976 C 0.22878 0.83188 0.71468 0.0
C977 C 0.23561 0.85218 0.73226 0.0
C978 C 0.2079 0.81149 0.72189 0.0
C979 C 0.19336 0.81177 0.74658 0.0
C980 C 0.19875 0.833 0.76131 0.0
C981 C 0.22006 0.85296 0.75431 0.0
C982 C 0.20278 0.78918 0.70555 0.0
C983 C 0.18314 0.83423 0.78657 0.0
C984 C 0.13769 0.75405 0.75389 0.0
C985 C 0.14417 0.74291 0.77677 0.0
C986 C 0.15272 0.77737 0.7458 0.0
C987 C 0.17496 0.78943 0.76019 0.0
C988 C 0.18077 0.77878 0.78515 0.0
C989 C 0.16509 0.75566 0.79348 0.0
C990 C 0.14544 0.78843 0.72018 0.0
C991 C 0.20439 0.79104 0.80105 0.0
H992 H 0.24082 0.83125 0.69769 0.0
H993 H 0.22527 0.86878 0.76769 0.0
H994 H 0.20482 0.77775 0.72303 0.0
H995 H 0.18456 0.7797 0.69682 0.0
H996 H 0.21462 0.79227 0.68498 0.0
H997 H 0.18673 0.85229 0.78991 0.0
H998 H 0.16451 0.82293 0.78026 0.0
H999 H 0.18617 0.82805 0.80976 0.0
H1000 H 0.12136 0.74417 0.74116 0.0
H1001 H 0.17012 0.74699 0.81103 0.0
H1002 H 0.15323 0.78782 0.69696 0.0
H1003 H 0.15167 0.80693 0.72578 0.0
H1004 H 0.12621 0.77917 0.71728 0.0
H1005 H 0.21804 0.79401 0.78322 0.0
H1006 H 0.20561 0.78089 0.82131 0.0
H1007 H 0.20828 0.80827 0.81013 0.0
C1008 C 0.43156 0.23807 0.78602 0.0
C1009 C 0.44442 0.25441 0.76221 0.0
C1010 C 0.43674 0.22086 0.79465 0.0
C1011 C 0.45544 0.22029 0.77937 0.0
C1012 C 0.46754 0.23584 0.75393 0.0
C1013 C 0.46172 0.25266 0.74542 0.0
C1014 C 0.42302 0.20411 0.82121 0.0
C1015 C 0.48756 0.23562 0.73702 0.0
C1016 C 0.4887 0.19609 0.82315 0.0
C1017 C 0.48089 0.17517 0.80686 0.0
C1018 C 0.48002 0.2108 0.81505 0.0
C1019 C 0.46295 0.204 0.79064 0.0
C1020 C 0.45401 0.18214 0.77571 0.0
C1021 C 0.46331 0.16809 0.78379 0.0
C1022 C 0.48995 0.2341 0.83136 0.0
C1023 C 0.43541 0.17404 0.7502 0.0
H1024 H 0.41806 0.23938 0.7989 0.0
H1025 H 0.47179 0.26543 0.72723 0.0
H1026 H 0.41724 0.186 0.81385 0.0
H1027 H 0.43427 0.20792 0.8426 0.0
H1028 H 0.40747 0.20526 0.82817 0.0
H1029 H 0.49446 0.24817 0.71682 0.0
H1030 H 0.5019 0.24006 0.75429 0.0
H1031 H 0.48198 0.21801 0.72765 0.0
H1032 H 0.50243 0.20148 0.84081 0.0
H1033 H 0.45726 0.15173 0.7714 0.0
H1034 H 0.47572 0.23629 0.8415 0.0
H1035 H 0.49932 0.24816 0.81353 0.0
H1036 H 0.50224 0.23626 0.85089 0.0
H1037 H 0.42064 0.17605 0.75852 0.0
H1038 H 0.42864 0.15559 0.74351 0.0
H1039 H 0.44266 0.18489 0.72843 0.0
C1040 C 0.15636 0.42801 0.7336 0.0
C1041 C 0.13678 0.42528 0.75 0.0
C1042 C 0.16847 0.41717 0.7447 0.0
C1043 C 0.16034 0.40282 0.77231 0.0
C1044 C 0.13942 0.39845 0.78726 0.0
C1045 C 0.12807 0.41005 0.77621 0.0
C1046 C 0.19081 0.42233 0.72811 0.0
C1047 C 0.1297 0.3826 0.81594 0.0
C1048 C 0.19325 0.37081 0.78075 0.0
C1049 C 0.21211 0.38662 0.79948 0.0
C1050 C 0.17451 0.37433 0.77459 0.0
C1051 C 0.17511 0.3944 0.78687 0.0
C1052 C 0.19266 0.40875 0.809 0.0
C1053 C 0.21088 0.40447 0.81541 0.0
C1054 C 0.15546 0.35798 0.75222 0.0
C1055 C 0.19384 0.43028 0.82279 0.0
H1056 H 0.16312 0.43984 0.71342 0.0
H1057 H 0.11271 0.40775 0.7887 0.0
H1058 H 0.20569 0.43156 0.74483 0.0
H1059 H 0.19009 0.40593 0.72103 0.0
H1060 H 0.19429 0.43324 0.70639 0.0
H1061 H 0.111 0.37679 0.81981 0.0
H1062 H 0.13165 0.36708 0.81318 0.0
H1063 H 0.13944 0.39199 0.8377 0.0
H1064 H 0.19408 0.3568 0.76874 0.0
H1065 H 0.22546 0.4167 0.82992 0.0
H1066 H 0.15898 0.36561 0.72782 0.0
H1067 H 0.13827 0.35527 0.75996 0.0
H1068 H 0.15453 0.34087 0.75083 0.0
H1069 H 0.19889 0.44353 0.80363 0.0
H1070 H 0.20676 0.43788 0.84249 0.0
H1071 H 0.17658 0.42636 0.83203 0.0
C1072 C 0.84656 0.25233 0.74347 0.0
C1073 C 0.83682 0.25914 0.76801 0.0
C1074 C 0.83649 0.22896 0.73452 0.0
C1075 C 0.81576 0.21227 0.74975 0.0
C1076 C 0.80673 0.2189 0.77595 0.0
C1077 C 0.81763 0.24231 0.78508 0.0
C1078 C 0.84721 0.22248 0.70744 0.0
C1079 C 0.78452 0.20161 0.7927 0.0
C1080 C 0.76737 0.16156 0.70596 0.0
C1081 C 0.76644 0.14294 0.72289 0.0
C1082 C 0.78466 0.18444 0.71267 0.0
C1083 C 0.80175 0.1886 0.73611 0.0
C1084 C 0.80282 0.16973 0.74974 0.0
C1085 C 0.78495 0.14702 0.74322 0.0
C1086 C 0.78296 0.20411 0.69742 0.0
C1087 C 0.82148 0.17348 0.77355 0.0
H1088 H 0.86161 0.26541 0.73048 0.0
H1089 H 0.81008 0.24765 0.80395 0.0
H1090 H 0.84608 0.20553 0.71207 0.0
H1091 H 0.83761 0.22082 0.68496 0.0
H1092 H 0.86577 0.23589 0.70365 0.0
H1093 H 0.78052 0.20932 0.81363 0.0
H1094 H 0.76973 0.19507 0.77565 0.0
H1095 H 0.78577 0.18645 0.80101 0.0
H1096 H 0.7532 0.15852 0.69007 0.0
H1097 H 0.7845 0.13262 0.75598 0.0
H1098 H 0.80015 0.21755 0.68809 0.0
H1099 H 0.77745 0.21248 0.71573 0.0
H1100 H 0.77018 0.19805 0.67745 0.0
H1101 H 0.83861 0.18835 0.76636 0.0
H1102 H 0.82314 0.15776 0.77606 0.0
H1103 H 0.81698 0.17755 0.79734 0.0
C1104 C 0.47688 0.09662 0.10244 0.0
C1105 C 0.48004 0.11562 0.1209 0.0
C1106 C 0.47671 0.09729 0.06879 0.0
C1107 C 0.47989 0.1175 0.05298 0.0
C1108 C 0.48306 0.13675 0.07142 0.0
C1109 C 0.48304 0.13557 0.10512 0.0
C1110 C 0.47315 0.07632 0.05014 0.0
C1111 C 0.48658 0.15866 0.05554 0.0
C1112 C 0.5008 0.12642 0.96622 0.0
C1113 C 0.48003 0.1191 0.94916 0.0
C1114 C 0.50104 0.12626 0.99992 0.0
C1115 C 0.48 0.11846 0.01715 0.0
C1116 C 0.45898 0.11107 1.00009 0.0
C1117 C 0.45926 0.11154 0.96639 0.0
C1118 C 0.52385 0.13436 0.01712 0.0
C1119 C 0.43614 0.10248 0.01746 0.0
H1120 H 0.47448 0.08108 0.1143 0.0
H1121 H 0.48551 0.15035 0.11908 0.0
H1122 H 0.45768 0.07002 0.0344 0.0
H1123 H 0.4884 0.08114 0.03444 0.0
H1124 H 0.47066 0.06184 0.06599 0.0
H1125 H 0.48879 0.17209 0.07321 0.0
H1126 H 0.50222 0.16598 0.03992 0.0
H1127 H 0.47146 0.15464 0.04003 0.0
H1128 H 0.51697 0.13238 0.95323 0.0
H1129 H 0.44311 0.10584 0.95353 0.0
H1130 H 0.52284 0.12001 0.03183 0.0
H1131 H 0.52731 0.14878 0.03368 0.0
H1132 H 0.53877 0.14041 1.00031 0.0
H1133 H 0.43228 0.08711 0.03227 0.0
H1134 H 0.42137 0.0976 1.00076 0.0
H1135 H 0.43733 0.11609 0.03395 0.0
C1136 C 0.30434 0.41511 0.93338 0.0
C1137 C 0.2942 0.42713 0.91944 0.0
C1138 C 0.30929 0.41684 0.96638 0.0
C1139 C 0.30401 0.43094 0.98605 0.0
C1140 C 0.29385 0.44316 0.97211 0.0
C1141 C 0.28906 0.4411 0.93908 0.0
C1142 C 0.32013 0.40353 0.98024 0.0
C1143 C 0.288 0.45844 0.99212 0.0
C1144 C 0.29689 0.42049 0.0763 0.0
C1145 C 0.31832 0.43826 0.08799 0.0
C1146 C 0.29214 0.4177 0.04323 0.0
C1147 C 0.30918 0.43304 0.02118 0.0
C1148 C 0.33095 0.45079 0.03279 0.0
C1149 C 0.33525 0.45318 0.06595 0.0
C1150 C 0.26872 0.39852 0.03191 0.0
C1151 C 0.34962 0.46753 1.01017 0.0
H1152 H 0.30839 0.40426 0.91849 0.0
H1153 H 0.28124 0.45048 0.92866 0.0
H1154 H 0.33703 0.41571 0.99166 0.0
H1155 H 0.30868 0.3915 0.99916 0.0
H1156 H 0.32315 0.3933 0.9618 0.0
H1157 H 0.28017 0.46681 0.9777 0.0
H1158 H 0.2756 0.44803 1.01139 0.0
H1159 H 0.30397 0.47223 1.00388 0.0
H1160 H 0.28367 0.40884 0.09304 0.0
H1161 H 0.35187 0.46696 0.07461 0.0
H1162 H 0.27106 0.38723 1.01458 0.0
H1163 H 0.25938 0.40609 0.01925 0.0
H1164 H 0.25762 0.38759 0.05197 0.0
H1165 H 0.35385 0.45785 0.99234 0.0
H1166 H 0.36586 0.47996 0.02288 0.0
H1167 H 0.34315 0.47754 0.99671 0.0
C1168 C 0.85417 0.32333 0.93218 0.0
C1169 C 0.87404 0.3267 0.91554 0.0
C1170 C 0.85358 0.32335 0.96589 0.0
C1171 C 0.87333 0.32688 0.98352 0.0
C1172 C 0.89338 0.33019 0.96688 0.0
C1173 C 0.89348 0.33002 0.93319 0.0
C1174 C 0.83183 0.3197 0.98265 0.0
C1175 C 0.91485 0.33409 0.98468 0.0
C1176 C 0.88094 0.34926 0.06929 0.0
C1177 C 0.87377 0.32896 0.08731 0.0
C1178 C 0.88079 0.3488 0.0356 0.0
C1179 C 0.87321 0.32751 0.01935 0.0
C1180 C 0.86584 0.30693 0.03737 0.0
C1181 C 0.86624 0.3079 0.07107 0.0
C1182 C 0.88886 0.37116 0.01738 0.0
C1183 C 0.85758 0.28387 0.02104 0.0
H1184 H 0.83904 0.32072 0.91885 0.0
H1185 H 0.90894 0.33266 0.92068 0.0
H1186 H 0.8252 0.30455 0.999 0.0
H1187 H 0.83593 0.33509 0.99755 0.0
H1188 H 0.81779 0.31676 0.96556 0.0
H1189 H 0.92893 0.33611 0.96826 0.0
H1190 H 0.92161 0.34991 0.99971 0.0
H1191 H 0.91039 0.31928 1.00101 0.0
H1192 H 0.8868 0.36563 0.0815 0.0
H1193 H 0.8606 0.2921 0.08469 0.0
H1194 H 0.87477 0.36951 1.00139 0.0
H1195 H 0.90394 0.37476 1.00196 0.0
H1196 H 0.89406 0.38624 0.03352 0.0
H1197 H 0.84267 0.27987 1.00509 0.0
H1198 H 0.85211 0.26941 0.03841 0.0
H1199 H 0.8717 0.28475 1.00579 0.0
C1200 C 0.49536 0.84945 0.09504 0.0
C1201 C 0.49969 0.87038 0.1092 0.0
C1202 C 0.49819 0.84795 0.06185 0.0
C1203 C 0.5057 0.86787 0.04228 0.0
C1204 C 0.51022 0.88905 0.05647 0.0
C1205 C 0.5071 0.89002 0.08963 0.0
C1206 C 0.49305 0.825 0.04768 0.0
C1207 C 0.51843 0.91076 0.03661 0.0
C1208 C 0.53342 0.87022 0.96123 0.0
C1209 C 0.51508 0.86503 0.93992 0.0
C1210 C 0.53061 0.87116 0.9945 0.0
C1211 C 0.50886 0.86663 1.00696 0.0
C1212 C 0.49025 0.86132 0.98561 0.0
C1213 C 0.49361 0.86068 0.95242 0.0
C1214 C 0.55097 0.87711 1.01634 0.0
C1215 C 0.46675 0.85626 0.99785 0.0
H1216 H 0.4896 0.83416 0.10988 0.0
H1217 H 0.51058 0.90631 0.10024 0.0
H1218 H 0.47929 0.81947 0.02915 0.0
H1219 H 0.50883 0.8269 0.03569 0.0
H1220 H 0.48721 0.81109 0.06604 0.0
H1221 H 0.52139 0.92591 0.05129 0.0
H1222 H 0.5349 0.9151 0.02417 0.0
H1223 H 0.50536 0.90776 0.01789 0.0
H1224 H 0.5501 0.87364 0.95191 0.0
H1225 H 0.47927 0.85655 0.93625 0.0
H1226 H 0.54627 0.86284 0.03374 0.0
H1227 H 0.55533 0.89295 0.03032 0.0
H1228 H 0.56673 0.88015 1.00293 0.0
H1229 H 0.45972 0.84146 1.01487 0.0
H1230 H 0.45394 0.85202 0.97822 0.0
H1231 H 0.46854 0.8715 1.01114 0.0
C1232 C 0.63443 0.53249 0.09811 0.0
C1233 C 0.65494 0.54586 0.11573 0.0
C1234 C 0.63477 0.53179 0.06443 0.0
C1235 C 0.65612 0.54484 0.04779 0.0
C1236 C 0.67684 0.55857 0.06539 0.0
C1237 C 0.67602 0.55888 0.09907 0.0
C1238 C 0.61228 0.51681 0.04666 0.0
C1239 C 0.69996 0.57279 0.04865 0.0
C1240 C 0.6616 0.52545 0.96393 0.0
C1241 C 0.65861 0.5409 0.9443 0.0
C1242 C 0.66075 0.52652 0.9975 0.0
C1243 C 0.6569 0.54351 1.01205 0.0
C1244 C 0.65385 0.55918 0.99243 0.0
C1245 C 0.6547 0.55767 0.95884 0.0
C1246 C 0.66399 0.50941 0.01741 0.0
C1247 C 0.64977 0.57759 1.00695 0.0
H1248 H 0.61804 0.52236 0.11065 0.0
H1249 H 0.69198 0.56934 0.11235 0.0
H1250 H 0.60911 0.52749 0.02922 0.0
H1251 H 0.61358 0.50327 0.03285 0.0
H1252 H 0.59706 0.50815 0.06302 0.0
H1253 H 0.71437 0.58314 0.06568 0.0
H1254 H 0.70431 0.56118 0.03496 0.0
H1255 H 0.69889 0.5848 0.03121 0.0
H1256 H 0.66458 0.5124 0.95307 0.0
H1257 H 0.65238 0.5697 0.94396 0.0
H1258 H 0.64851 0.49924 0.03287 0.0
H1259 H 0.67924 0.51884 0.03345 0.0
H1260 H 0.66667 0.49714 1.00246 0.0
H1261 H 0.63386 0.56935 0.02206 0.0
H1262 H 0.64774 0.58846 0.98848 0.0
H1263 H 0.66457 0.58905 0.02275 0.0
C1264 C 0.07974 0.6616 0.93641 0.0
C1265 C 0.09899 0.66589 0.91745 0.0
C1266 C 0.08013 0.65951 0.9699 0.0
C1267 C 0.10029 0.66184 0.98502 0.0
C1268 C 0.11986 0.66635 0.96608 0.0
C1269 C 0.11896 0.66827 0.93258 0.0
C1270 C 0.05884 0.65462 0.9891 0.0
C1271 C 0.14172 0.66902 0.9812 0.0
C1272 C 0.10822 0.67594 0.07436 0.0
C1273 C 0.10085 0.65407 0.08808 0.0
C1274 C 0.10831 0.67876 0.04092 0.0
C1275 C 0.10074 0.65924 0.02059 0.0
C1276 C 0.09328 0.63712 0.03429 0.0
C1277 C 0.09346 0.63482 0.06777 0.0
C1278 C 0.11647 0.70265 0.02735 0.0
C1279 C 0.08497 0.61583 1.01356 0.0
H1280 H 0.06419 0.6597 0.92507 0.0
H1281 H 0.13395 0.67161 0.91824 0.0
H1282 H 0.0522 0.63802 1.00233 0.0
H1283 H 0.06349 0.66849 1.00715 0.0
H1284 H 0.04462 0.65349 0.97382 0.0
H1285 H 0.15558 0.6729 0.96327 0.0
H1286 H 0.14856 0.68323 0.99913 0.0
H1287 H 0.1377 0.65285 0.99408 0.0
H1288 H 0.11403 0.69096 0.08975 0.0
H1289 H 0.08772 0.61783 0.07802 0.0
H1290 H 0.10224 0.70262 1.01338 0.0
H1291 H 0.13124 0.70753 1.01065 0.0
H1292 H 0.12213 0.71612 0.0463 0.0
H1293 H 0.06978 0.61309 0.9991 0.0
H1294 H 0.07985 0.5999 0.02786 0.0
H1295 H 0.0989 0.61834 0.99656 0.0
C1296 C 0.85092 0.52968 0.58313 0.0
C1297 C 0.86607 0.52472 0.60035 0.0
C1298 C 0.85067 0.52949 0.54939 0.0
C1299 C 0.86603 0.52437 0.53234 0.0
C1300 C 0.8814 0.51943 0.5496 0.0
C1301 C 0.88119 0.5196 0.58327 0.0
C1302 C 0.83393 0.53475 0.53195 0.0
C1303 C 0.89818 0.51404 0.53247 0.0
C1304 C 0.85303 0.50376 0.44553 0.0
C1305 C 0.86782 0.52417 0.42853 0.0
C1306 C 0.85204 0.50364 0.47923 0.0
C1307 C 0.86626 0.52438 0.49649 0.0
C1308 C 0.88116 0.54502 0.47946 0.0
C1309 C 0.88172 0.54469 0.44579 0.0
C1310 C 0.83583 0.48127 0.49639 0.0
C1311 C 0.89673 0.56748 0.49685 0.0
H1312 H 0.83913 0.53359 0.59603 0.0
H1313 H 0.89302 0.51578 0.59623 0.0
H1314 H 0.84373 0.55017 0.51633 0.0
H1315 H 0.8224 0.51996 0.51623 0.0
H1316 H 0.82293 0.53814 0.54863 0.0
H1317 H 0.90903 0.51059 0.54934 0.0
H1318 H 0.88844 0.49862 0.51687 0.0
H1319 H 0.90989 0.5288 0.51678 0.0
H1320 H 0.84216 0.48783 0.4325 0.0
H1321 H 0.89322 0.56056 0.43299 0.0
H1322 H 0.82368 0.48374 0.51194 0.0
H1323 H 0.846 0.47622 0.51214 0.0
H1324 H 0.82546 0.46678 0.47953 0.0
H1325 H 0.88611 0.57215 0.51231 0.0
H1326 H 0.90709 0.5821 0.48015 0.0
H1327 H 0.9089 0.56529 0.51272 0.0
C1328 C 0.31269 0.89999 0.58304 0.0
C1329 C 0.30444 0.8785 0.59841 0.0
C1330 C 0.31312 0.90166 0.54939 0.0
C1331 C 0.3052 0.88137 0.53054 0.0
C1332 C 0.29701 0.85966 0.54591 0.0
C1333 C 0.29668 0.85848 0.57956 0.0
C1334 C 0.32195 0.92514 0.534 0.0
C1335 C 0.28852 0.83761 0.52679 0.0
C1336 C 0.28609 0.88105 0.44425 0.0
C1337 C 0.30565 0.88441 0.4268 0.0
C1338 C 0.28579 0.88024 0.47795 0.0
C1339 C 0.30549 0.8828 0.49475 0.0
C1340 C 0.32533 0.88634 0.47731 0.0
C1341 C 0.32518 0.88712 0.44364 0.0
C1342 C 0.26429 0.87647 0.49558 0.0
C1343 C 0.34667 0.88909 0.49421 0.0
H1344 H 0.3187 0.91557 0.5973 0.0
H1345 H 0.29031 0.84178 0.5911 0.0
H1346 H 0.33695 0.92921 0.51815 0.0
H1347 H 0.30813 0.9249 0.5188 0.0
H1348 H 0.3275 0.93925 0.55196 0.0
H1349 H 0.28283 0.82213 0.54231 0.0
H1350 H 0.27369 0.83473 0.5114 0.0
H1351 H 0.30258 0.83922 0.51072 0.0
H1352 H 0.27091 0.87895 0.43156 0.0
H1353 H 0.34039 0.88972 0.4305 0.0
H1354 H 0.26891 0.89094 0.51259 0.0
H1355 H 0.25696 0.86024 0.50987 0.0
H1356 H 0.2506 0.87525 0.47909 0.0
H1357 H 0.35343 0.90391 0.51113 0.0
H1358 H 0.36081 0.89206 0.47724 0.0
H1359 H 0.34203 0.8733 0.5085 0.0
C1360 C 0.47027 0.35816 0.60196 0.0
C1361 C 0.46121 0.33741 0.61954 0.0
C1362 C 0.47165 0.35825 0.56833 0.0
C1363 C 0.46364 0.33706 0.55164 0.0
C1364 C 0.45427 0.31602 0.56919 0.0
C1365 C 0.45326 0.31645 0.60286 0.0
C1366 C 0.48195 0.3811 0.55067 0.0
C1367 C 0.44539 0.29303 0.55237 0.0
C1368 C 0.45003 0.33559 0.46244 0.0
C1369 C 0.47011 0.33752 0.44823 0.0
C1370 C 0.44758 0.33523 0.49601 0.0
C1371 C 0.46571 0.33702 0.51593 0.0
C1372 C 0.48603 0.33906 0.5017 0.0
C1373 C 0.48794 0.3392 0.46815 0.0
C1374 C 0.42557 0.33289 0.51017 0.0
C1375 C 0.50586 0.3412 0.52194 0.0
H1376 H 0.47649 0.37447 0.61452 0.0
H1377 H 0.44614 0.30031 0.61613 0.0
H1378 H 0.49752 0.38403 0.53695 0.0
H1379 H 0.46918 0.38067 0.53315 0.0
H1380 H 0.48712 0.39603 0.56708 0.0
H1381 H 0.43798 0.27815 0.56933 0.0
H1382 H 0.43177 0.29039 0.53476 0.0
H1383 H 0.45978 0.29301 0.53886 0.0
H1384 H 0.43612 0.33421 0.44734 0.0
H1385 H 0.50356 0.34075 0.45752 0.0
H1386 H 0.42985 0.3482 0.52533 0.0
H1387 H 0.41705 0.31734 0.52585 0.0
H1388 H 0.41296 0.33134 0.49149 0.0
H1389 H 0.51255 0.35672 0.53758 0.0
H1390 H 0.52051 0.3427 0.50722 0.0
H1391 H 0.49958 0.32583 0.5378 0.0
C1392 C 0.11879 0.45993 0.5789 0.0
C1393 C 0.10516 0.46829 0.59284 0.0
C1394 C 0.11979 0.45797 0.54542 0.0
C1395 C 0.10677 0.46441 0.5253 0.0
C1396 C 0.09294 0.47279 0.53924 0.0
C1397 C 0.09235 0.47467 0.57273 0.0
C1398 C 0.1348 0.44902 0.53155 0.0
C1399 C 0.07868 0.47973 0.51876 0.0
C1400 C 0.12372 0.4791 0.43741 0.0
C1401 C 0.10753 0.45852 0.42196 0.0
C1402 C 0.12388 0.48115 0.47099 0.0
C1403 C 0.10739 0.46222 0.48968 0.0
C1404 C 0.09109 0.44137 0.47425 0.0
C1405 C 0.09139 0.43975 0.44067 0.0
C1406 C 0.14162 0.50365 0.48646 0.0
C1407 C 0.07313 0.42081 0.49319 0.0
H1408 H 0.12879 0.45498 0.59415 0.0
H1409 H 0.08173 0.48112 0.58315 0.0
H1410 H 0.12392 0.43309 0.51735 0.0
H1411 H 0.14791 0.46212 0.51502 0.0
H1412 H 0.14404 0.44495 0.55036 0.0
H1413 H 0.06882 0.4859 0.53326 0.0
H1414 H 0.09022 0.49374 0.50196 0.0
H1415 H 0.06614 0.46473 0.50409 0.0
H1416 H 0.13631 0.49369 0.42326 0.0
H1417 H 0.07879 0.42377 0.42908 0.0
H1418 H 0.15204 0.50032 0.5042 0.0
H1419 H 0.13263 0.51138 0.49961 0.0
H1420 H 0.15367 0.51652 0.46869 0.0
H1421 H 0.08186 0.41539 0.51102 0.0
H1422 H 0.06192 0.40571 0.47768 0.0
H1423 H 0.06185 0.42575 0.50666 0.0
C1424 C 0.65068 0.07667 0.44936 0.0
C1425 C 0.6703 0.08916 0.42968 0.0
C1426 C 0.65291 0.07568 0.48276 0.0
C1427 C 0.67528 0.08759 0.497 0.0
C1428 C 0.69513 0.10047 0.47733 0.0
C1429 C 0.69241 0.10104 0.44398 0.0
C1430 C 0.63131 0.06163 0.50277 0.0
C1431 C 0.71928 0.11353 0.49151 0.0
C1432 C 0.68031 0.10046 0.58673 0.0
C1433 C 0.68408 0.083 0.59911 0.0
C1434 C 0.67737 0.10216 0.55362 0.0
C1435 C 0.67803 0.08592 0.53231 0.0
C1436 C 0.68155 0.06811 0.54473 0.0
C1437 C 0.68459 0.06693 0.57785 0.0
C1438 C 0.67378 0.12147 0.54138 0.0
C1439 C 0.68221 0.05034 0.52297 0.0
H1440 H 0.63352 0.06742 0.43864 0.0
H1441 H 0.70769 0.11084 0.42908 0.0
H1442 H 0.63241 0.04749 0.51524 0.0
H1443 H 0.63002 0.07276 0.52148 0.0
H1444 H 0.61514 0.0538 0.48818 0.0
H1445 H 0.73284 0.12338 0.47314 0.0
H1446 H 0.72008 0.12586 0.51002 0.0
H1447 H 0.72346 0.10119 0.50349 0.0
H1448 H 0.67993 0.113 0.60288 0.0
H1449 H 0.6874 0.05331 0.58708 0.0
H1450 H 0.65711 0.11409 0.52804 0.0
H1451 H 0.68792 0.13254 0.5244 0.0
H1452 H 0.6735 0.13258 0.56101 0.0
H1453 H 0.66576 0.04109 0.50912 0.0
H1454 H 0.68466 0.03732 0.53641 0.0
H1455 H 0.69663 0.05912 0.50544 0.0
C1456 C 0.5006 0.63906 0.44333 0.0
C1457 C 0.52336 0.65214 0.4313 0.0
C1458 C 0.49637 0.63505 0.47643 0.0
C1459 C 0.51535 0.64415 0.49811 0.0
C1460 C 0.53836 0.65727 0.48609 0.0
C1461 C 0.54207 0.66117 0.45295 0.0
C1462 C 0.47157 0.62107 0.48822 0.0
C1463 C 0.55912 0.66713 0.50826 0.0
C1464 C 0.50511 0.651 0.58649 0.0
C1465 C 0.50399 0.63119 0.60014 0.0
C1466 C 0.50861 0.65536 0.55335 0.0
C1467 C 0.51122 0.63962 0.5333 0.0
C1468 C 0.51018 0.61965 0.54697 0.0
C1469 C 0.50652 0.61566 0.58009 0.0
C1470 C 0.50951 0.6768 0.53976 0.0
C1471 C 0.51305 0.60251 0.52659 0.0
H1472 H 0.486 0.63208 0.42688 0.0
H1473 H 0.55974 0.67126 0.44399 0.0
H1474 H 0.46903 0.60537 0.50105 0.0
H1475 H 0.46789 0.63147 0.50553 0.0
H1476 H 0.45872 0.61553 0.4684 0.0
H1477 H 0.5759 0.677 0.49518 0.0
H1478 H 0.55786 0.67884 0.52602 0.0
H1479 H 0.55928 0.65287 0.52182 0.0
H1480 H 0.50311 0.66309 0.60169 0.0
H1481 H 0.50574 0.60031 0.5903 0.0
H1482 H 0.49593 0.67181 0.52109 0.0
H1483 H 0.52661 0.68798 0.52808 0.0
H1484 H 0.50684 0.68714 0.5584 0.0
H1485 H 0.49951 0.5954 0.50767 0.0
H1486 H 0.51179 0.58783 0.54084 0.0
H1487 H 0.53023 0.61142 0.51438 0.0
C1488 C 0.56718 0.16536 0.28271 0.0
C1489 C 0.55213 0.14917 0.26018 0.0
C1490 C 0.58926 0.16818 0.28853 0.0
C1491 C 0.59597 0.15385 0.27224 0.0
C1492 C 0.58139 0.1385 0.24802 0.0
C1493 C 0.55971 0.13661 0.24194 0.0
C1494 C 0.60469 0.18542 0.31353 0.0
C1495 C 0.5878 0.1227 0.23037 0.0
C1496 C 0.65586 0.16 0.27336 0.0
C1497 C 0.65261 0.14308 0.29607 0.0
C1498 C 0.63817 0.16514 0.26703 0.0
C1499 C 0.61658 0.15256 0.28315 0.0
C1500 C 0.61388 0.13673 0.30775 0.0
C1501 C 0.63209 0.13244 0.31424 0.0
C1502 C 0.64206 0.18288 0.24166 0.0
C1503 C 0.59106 0.12281 0.32538 0.0
H1504 H 0.56133 0.17523 0.29662 0.0
H1505 H 0.54798 0.12399 0.22467 0.0
H1506 H 0.60393 0.17607 0.33589 0.0
H1507 H 0.6231 0.19488 0.30541 0.0
H1508 H 0.59915 0.19824 0.31918 0.0
H1509 H 0.57532 0.11292 0.21085 0.0
H1510 H 0.6055 0.13287 0.21992 0.0
H1511 H 0.58807 0.11004 0.24742 0.0
H1512 H 0.67181 0.16841 0.25944 0.0
H1513 H 0.62945 0.11929 0.33173 0.0
H1514 H 0.63474 0.19388 0.2493 0.0
H1515 H 0.63302 0.17386 0.21932 0.0
H1516 H 0.66086 0.19426 0.23614 0.0
H1517 H 0.58533 0.13448 0.33567 0.0
H1518 H 0.59224 0.1122 0.34503 0.0
H1519 H 0.57738 0.111 0.30835 0.0
C1520 C 0.44455 0.61135 0.24128 0.0
C1521 C 0.45592 0.60927 0.26832 0.0
C1522 C 0.42338 0.59262 0.23068 0.0
C1523 C 0.41372 0.57116 0.24705 0.0
C1524 C 0.42491 0.5691 0.27472 0.0
C1525 C 0.44576 0.5883 0.28527 0.0
C1526 C 0.4116 0.59566 0.20167 0.0
C1527 C 0.41527 0.54638 0.29261 0.0
C1528 C 0.35103 0.5228 0.24125 0.0
C1529 C 0.35311 0.50702 0.22125 0.0
C1530 C 0.37034 0.54465 0.24791 0.0
C1531 C 0.39231 0.55052 0.23489 0.0
C1532 C 0.39413 0.53534 0.21283 0.0
C1533 C 0.37437 0.51382 0.20595 0.0
C1534 C 0.36753 0.56069 0.27067 0.0
C1535 C 0.4173 0.5409 0.19864 0.0
H1536 H 0.45228 0.62765 0.22828 0.0
H1537 H 0.45458 0.58661 0.30605 0.0
H1538 H 0.41162 0.58462 0.1818 0.0
H1539 H 0.39313 0.58994 0.20719 0.0
H1540 H 0.42037 0.61397 0.19329 0.0
H1541 H 0.42609 0.54768 0.31366 0.0
H1542 H 0.39732 0.54062 0.301 0.0
H1543 H 0.41429 0.53274 0.27634 0.0
H1544 H 0.33453 0.5176 0.25294 0.0
H1545 H 0.37607 0.50159 0.19066 0.0
H1546 H 0.37688 0.5788 0.26157 0.0
H1547 H 0.37525 0.56061 0.2942 0.0
H1548 H 0.34893 0.55533 0.27445 0.0
H1549 H 0.42641 0.5587 0.18851 0.0
H1550 H 0.41538 0.52845 0.17954 0.0
H1551 H 0.42857 0.54028 0.21779 0.0
C1552 C 0.80217 0.41983 0.26772 0.0
C1553 C 0.82005 0.4329 0.28963 0.0
C1554 C 0.79756 0.39778 0.25786 0.0
C1555 C 0.81178 0.38912 0.26935 0.0
C1556 C 0.82834 0.40131 0.29375 0.0
C1557 C 0.83202 0.42295 0.30397 0.0
C1558 C 0.77888 0.38476 0.23316 0.0
C1559 C 0.84396 0.39274 0.30662 0.0
C1560 C 0.80655 0.33073 0.25418 0.0
C1561 C 0.82333 0.33653 0.23007 0.0
C1562 C 0.80064 0.34703 0.26519 0.0
C1563 C 0.81239 0.36979 0.25244 0.0
C1564 C 0.82767 0.37499 0.22603 0.0
C1565 C 0.83267 0.35812 0.21482 0.0
C1566 C 0.7833 0.34042 0.29217 0.0
C1567 C 0.84065 0.39908 0.21171 0.0
H1568 H 0.79271 0.42744 0.25684 0.0
H1569 H 0.8459 0.43306 0.32083 0.0
H1570 H 0.78692 0.3881 0.20902 0.0
H1571 H 0.76989 0.36576 0.23751 0.0
H1572 H 0.76575 0.39046 0.23309 0.0
H1573 H 0.85462 0.40326 0.32721 0.0
H1574 H 0.83349 0.37438 0.31435 0.0
H1575 H 0.8559 0.39355 0.28738 0.0
H1576 H 0.79906 0.31391 0.26578 0.0
H1577 H 0.84564 0.3627 0.19618 0.0
H1578 H 0.77271 0.34895 0.28945 0.0
H1579 H 0.79275 0.34617 0.31526 0.0
H1580 H 0.77146 0.32131 0.29337 0.0
H1581 H 0.82836 0.4051 0.20521 0.0
H1582 H 0.8507 0.39983 0.19001 0.0
H1583 H 0.85296 0.41141 0.22968 0.0
C1584 C 0.40866 0.8496 0.2218 0.0
C1585 C 0.41502 0.83533 0.2382 0.0
C1586 C 0.38696 0.84777 0.22749 0.0
C1587 C 0.37124 0.83086 0.24941 0.0
C1588 C 0.37662 0.81467 0.263 0.0
C1589 C 0.3987 0.81738 0.25769 0.0
C1590 C 0.38195 0.86549 0.21268 0.0
C1591 C 0.35995 0.79578 0.28536 0.0
C1592 C 0.33722 0.85137 0.29878 0.0
C1593 C 0.31665 0.84283 0.28102 0.0
C1594 C 0.35478 0.84678 0.28938 0.0
C1595 C 0.35136 0.83277 0.26209 0.0
C1596 C 0.32977 0.82237 0.24582 0.0
C1597 C 0.31275 0.82781 0.25521 0.0
C1598 C 0.37762 0.85831 0.30736 0.0
C1599 C 0.32511 0.80658 0.21747 0.0
H1600 H 0.42144 0.86359 0.20696 0.0
H1601 H 0.40369 0.80628 0.27024 0.0
H1602 H 0.36421 0.8569 0.20222 0.0
H1603 H 0.38262 0.87757 0.23153 0.0
H1604 H 0.39473 0.87582 0.19369 0.0
H1605 H 0.3644 0.78186 0.28815 0.0
H1606 H 0.3607 0.80332 0.30932 0.0
H1607 H 0.34177 0.78794 0.27658 0.0
H1608 H 0.34036 0.86305 0.31867 0.0
H1609 H 0.29675 0.821 0.24157 0.0
H1610 H 0.39181 0.87052 0.29121 0.0
H1611 H 0.38205 0.84514 0.31545 0.0
H1612 H 0.37718 0.86813 0.32861 0.0
H1613 H 0.3344 0.81714 0.19616 0.0
H1614 H 0.30624 0.79633 0.21176 0.0
H1615 H 0.33168 0.79444 0.22199 0.0
C1616 C 0.61167 0.48327 0.25096 0.0
C1617 C 0.63186 0.49467 0.26962 0.0
C1618 C 0.59315 0.46152 0.26021 0.0
C1619 C 0.59518 0.45074 0.28834 0.0
C1620 C 0.61603 0.46164 0.30631 0.0
C1621 C 0.63403 0.48363 0.29696 0.0
C1622 C 0.57105 0.45054 0.24061 0.0
C1623 C 0.6191 0.45035 0.33584 0.0
C1624 C 0.53772 0.40796 0.32723 0.0
C1625 C 0.53322 0.38712 0.31284 0.0
C1626 C 0.55836 0.42878 0.32047 0.0
C1627 C 0.57503 0.42852 0.29949 0.0
C1628 C 0.57137 0.40717 0.28709 0.0
C1629 C 0.55034 0.38675 0.29359 0.0
C1630 C 0.56154 0.45124 0.33391 0.0
C1631 C 0.58905 0.40608 0.26548 0.0
H1632 H 0.60991 0.49184 0.22996 0.0
H1633 H 0.64973 0.49235 0.31129 0.0
H1634 H 0.56682 0.43296 0.23264 0.0
H1635 H 0.5563 0.44847 0.25557 0.0
H1636 H 0.57242 0.46103 0.21917 0.0
H1637 H 0.63715 0.46008 0.34534 0.0
H1638 H 0.60696 0.44939 0.35485 0.0
H1639 H 0.61476 0.4323 0.33045 0.0
H1640 H 0.52442 0.40831 0.34189 0.0
H1641 H 0.54691 0.37057 0.2826 0.0
H1642 H 0.56095 0.46206 0.31411 0.0
H1643 H 0.5788 0.4613 0.34557 0.0
H1644 H 0.54782 0.4483 0.35164 0.0
H1645 H 0.58913 0.41372 0.24184 0.0
H1646 H 0.58515 0.38796 0.26168 0.0
H1647 H 0.60681 0.41638 0.27567 0.0
C1648 C 0.17245 0.64594 0.24542 0.0
C1649 C 0.15484 0.64085 0.22291 0.0
C1650 C 0.17827 0.62913 0.25422 0.0
C1651 C 0.16562 0.60661 0.24089 0.0
C1652 C 0.14962 0.60224 0.21571 0.0
C1653 C 0.1447 0.6196 0.20666 0.0
C1654 C 0.19638 0.63487 0.27982 0.0
C1655 C 0.13572 0.57845 0.20079 0.0
C1656 C 0.17468 0.55545 0.25366 0.0
C1657 C 0.1576 0.54287 0.27687 0.0
C1658 C 0.17927 0.5775 0.24376 0.0
C1659 C 0.16585 0.58669 0.25659 0.0
C1660 C 0.14995 0.57485 0.28188 0.0
C1661 C 0.1463 0.55321 0.29206 0.0
C1662 C 0.1972 0.59007 0.21795 0.0
C1663 C 0.13515 0.58395 0.29615 0.0
H1664 H 0.18058 0.66251 0.25774 0.0
H1665 H 0.13111 0.61559 0.1892 0.0
H1666 H 0.18764 0.62853 0.30331 0.0
H1667 H 0.20668 0.62625 0.27494 0.0
H1668 H 0.20844 0.6539 0.28169 0.0
H1669 H 0.12551 0.57846 0.17973 0.0
H1670 H 0.14738 0.57191 0.19313 0.0
H1671 H 0.12345 0.56609 0.21881 0.0
H1672 H 0.18364 0.54756 0.2421 0.0
H1673 H 0.13305 0.5435 0.30993 0.0
H1674 H 0.20654 0.60913 0.22184 0.0
H1675 H 0.18842 0.58652 0.19435 0.0
H1676 H 0.21014 0.58415 0.21695 0.0
H1677 H 0.14625 0.60214 0.30423 0.0
H1678 H 0.12463 0.57336 0.31683 0.0
H1679 H 0.12311 0.58386 0.27764 0.0
C1680 C 0.42087 0.82749 0.77139 0.0
C1681 C 0.43775 0.84391 0.79203 0.0
C1682 C 0.40054 0.82808 0.76422 0.0
C1683 C 0.39749 0.846 0.77717 0.0
C1684 C 0.41406 0.86206 0.79907 0.0
C1685 C 0.43388 0.86059 0.80663 0.0
C1686 C 0.38288 0.81016 0.74171 0.0
C1687 C 0.41161 0.88167 0.81295 0.0
C1688 C 0.36407 0.86816 0.72946 0.0
C1689 C 0.34401 0.8605 0.74818 0.0
C1690 C 0.38137 0.86301 0.73819 0.0
C1691 C 0.37815 0.84929 0.76576 0.0
C1692 C 0.35715 0.84011 0.7834 0.0
C1693 C 0.34046 0.84615 0.77469 0.0
C1694 C 0.40369 0.87342 0.71902 0.0
C1695 C 0.35274 0.82473 0.8122 0.0
H1696 H 0.42382 0.81446 0.7603 0.0
H1697 H 0.44703 0.87338 0.82239 0.0
H1698 H 0.365 0.80307 0.7514 0.0
H1699 H 0.38354 0.81839 0.71833 0.0
H1700 H 0.38614 0.79556 0.73748 0.0
H1701 H 0.42543 0.89202 0.83074 0.0
H1702 H 0.41256 0.89342 0.7934 0.0
H1703 H 0.3944 0.87479 0.8247 0.0
H1704 H 0.36695 0.87943 0.70914 0.0
H1705 H 0.32486 0.8401 0.78909 0.0
H1706 H 0.40725 0.85963 0.71098 0.0
H1707 H 0.41851 0.88555 0.73434 0.0
H1708 H 0.40313 0.88307 0.69766 0.0
H1709 H 0.35684 0.81088 0.80656 0.0
H1710 H 0.33439 0.8165 0.82055 0.0
H1711 H 0.36429 0.83516 0.83214 0.0
C1712 C 0.6185 0.46017 0.79048 0.0
C1713 C 0.61672 0.47601 0.81071 0.0
C1714 C 0.59906 0.4383 0.78422 0.0
C1715 C 0.57728 0.43251 0.79783 0.0
C1716 C 0.57571 0.44791 0.81973 0.0
C1717 C 0.59558 0.46938 0.82627 0.0
C1718 C 0.60158 0.42195 0.76171 0.0
C1719 C 0.55272 0.44247 0.83447 0.0
C1720 C 0.52193 0.39223 0.7524 0.0
C1721 C 0.51258 0.3723 0.77153 0.0
C1722 C 0.54328 0.41189 0.76038 0.0
C1723 C 0.55577 0.4112 0.78752 0.0
C1724 C 0.54696 0.39061 0.8058 0.0
C1725 C 0.52527 0.37152 0.79787 0.0
C1726 C 0.55197 0.4337 0.74062 0.0
C1727 C 0.56013 0.38895 0.83419 0.0
H1728 H 0.63489 0.46523 0.77854 0.0
H1729 H 0.59408 0.48166 0.8417 0.0
H1730 H 0.5928 0.40408 0.77168 0.0
H1731 H 0.59307 0.42125 0.73856 0.0
H1732 H 0.62014 0.42753 0.75697 0.0
H1733 H 0.55471 0.45571 0.85233 0.0
H1734 H 0.54071 0.44167 0.81537 0.0
H1735 H 0.54438 0.42525 0.84635 0.0
H1736 H 0.51205 0.39281 0.73212 0.0
H1737 H 0.51813 0.35593 0.81243 0.0
H1738 H 0.56975 0.43944 0.73151 0.0
H1739 H 0.55309 0.44789 0.75584 0.0
H1740 H 0.54044 0.43122 0.71993 0.0
H1741 H 0.57847 0.39494 0.82748 0.0
H1742 H 0.55212 0.37096 0.84367 0.0
H1743 H 0.56047 0.40044 0.85366 0.0
C1744 C 0.17142 0.64552 0.74993 0.0
C1745 C 0.15451 0.64087 0.77346 0.0
C1746 C 0.17693 0.62852 0.74093 0.0
C1747 C 0.16454 0.6062 0.75494 0.0
C1748 C 0.14887 0.6021 0.78053 0.0
C1749 C 0.14437 0.61968 0.78985 0.0
C1750 C 0.1947 0.63402 0.71485 0.0
C1751 C 0.13513 0.57848 0.79606 0.0
C1752 C 0.14433 0.55092 0.7084 0.0
C1753 C 0.15512 0.5409 0.72565 0.0
C1754 C 0.14882 0.57332 0.71581 0.0
C1755 C 0.16505 0.58614 0.74027 0.0
C1756 C 0.17837 0.57729 0.7544 0.0
C1757 C 0.1729 0.5545 0.74738 0.0
C1758 C 0.13416 0.58206 0.70014 0.0
C1759 C 0.19681 0.59097 0.77911 0.0
H1760 H 0.1795 0.66204 0.73745 0.0
H1761 H 0.13126 0.61602 0.808 0.0
H1762 H 0.2045 0.62476 0.71878 0.0
H1763 H 0.18572 0.62837 0.69142 0.0
H1764 H 0.20726 0.65297 0.71342 0.0
H1765 H 0.12445 0.5785 0.81654 0.0
H1766 H 0.12333 0.56566 0.77813 0.0
H1767 H 0.147 0.57249 0.80479 0.0
H1768 H 0.13055 0.54039 0.69162 0.0
H1769 H 0.18147 0.54681 0.76047 0.0
H1770 H 0.14529 0.60006 0.69133 0.0
H1771 H 0.12193 0.58234 0.71806 0.0
H1772 H 0.12384 0.57096 0.67974 0.0
H1773 H 0.20645 0.60974 0.77306 0.0
H1774 H 0.20941 0.58469 0.78125 0.0
H1775 H 0.18845 0.58901 0.8028 0.0
C1776 C 0.66511 0.13204 0.79687 0.0
C1777 C 0.65979 0.11982 0.76782 0.0
C1778 C 0.65003 0.13891 0.81004 0.0
C1779 C 0.62891 0.13281 0.79419 0.0
C1780 C 0.62361 0.12072 0.76466 0.0
C1781 C 0.63928 0.11464 0.75164 0.0
C1782 C 0.65655 0.15241 0.84101 0.0
C1783 C 0.6011 0.11364 0.74716 0.0
C1784 C 0.57458 0.12499 0.8349 0.0
C1785 C 0.57289 0.14324 0.82109 0.0
C1786 C 0.59383 0.12228 0.82838 0.0
C1787 C 0.61189 0.13857 0.8083 0.0
C1788 C 0.61144 0.15849 0.79752 0.0
C1789 C 0.59172 0.1604 0.80364 0.0
C1790 C 0.59354 0.10069 0.84008 0.0
C1791 C 0.63072 0.17666 0.777 0.0
H1792 H 0.68107 0.13621 0.80932 0.0
H1793 H 0.63504 0.10505 0.72933 0.0
H1794 H 0.6555 0.16843 0.83821 0.0
H1795 H 0.64406 0.14187 0.8601 0.0
H1796 H 0.6744 0.15731 0.84901 0.0
H1797 H 0.59944 0.10388 0.72482 0.0
H1798 H 0.58605 0.10261 0.76292 0.0
H1799 H 0.6 0.12926 0.74089 0.0
H1800 H 0.5599 0.11164 0.84817 0.0
H1801 H 0.59039 0.17459 0.79312 0.0
H1802 H 0.61083 0.10493 0.84956 0.0
H1803 H 0.58951 0.08855 0.81971 0.0
H1804 H 0.58025 0.09163 0.85906 0.0
H1805 H 0.64803 0.18064 0.78612 0.0
H1806 H 0.63006 0.19301 0.77608 0.0
H1807 H 0.62899 0.16999 0.75222 0.0
C1808 C 0.34426 0.48376 0.77785 0.0
C1809 C 0.32371 0.47114 0.76024 0.0
C1810 C 0.3617 0.50574 0.76763 0.0
C1811 C 0.35822 0.51558 0.73953 0.0
C1812 C 0.33707 0.50336 0.72241 0.0
C1813 C 0.32016 0.4811 0.73274 0.0
C1814 C 0.38414 0.51814 0.78642 0.0
C1815 C 0.33248 0.51362 0.69298 0.0
C1816 C 0.40103 0.57982 0.73814 0.0
C1817 C 0.41923 0.58047 0.72029 0.0
C1818 C 0.37983 0.55905 0.7418 0.0
C1819 C 0.37718 0.53844 0.72809 0.0
C1820 C 0.39472 0.5395 0.70757 0.0
C1821 C 0.41554 0.5607 0.70358 0.0
C1822 C 0.36122 0.55882 0.76289 0.0
C1823 C 0.39264 0.51788 0.69271 0.0
H1824 H 0.34712 0.47606 0.79899 0.0
H1825 H 0.30418 0.47143 0.71919 0.0
H1826 H 0.39908 0.52166 0.77073 0.0
H1827 H 0.38699 0.53513 0.79502 0.0
H1828 H 0.38419 0.50793 0.80743 0.0
H1829 H 0.31433 0.50284 0.68419 0.0
H1830 H 0.33576 0.53136 0.69817 0.0
H1831 H 0.34458 0.5152 0.67353 0.0
H1832 H 0.40394 0.59522 0.75092 0.0
H1833 H 0.42973 0.56121 0.69001 0.0
H1834 H 0.36171 0.5518 0.7868 0.0
H1835 H 0.34365 0.54744 0.75266 0.0
H1836 H 0.36384 0.57653 0.76618 0.0
H1837 H 0.39488 0.50743 0.7116 0.0
H1838 H 0.40604 0.52204 0.67392 0.0
H1839 H 0.37516 0.50695 0.68203 0.0
C1840 C 0.82361 0.37575 0.80028 0.0
C1841 C 0.81335 0.35535 0.78204 0.0
C1842 C 0.81967 0.39401 0.79287 0.0
C1843 C 0.80447 0.3914 0.76734 0.0
C1844 C 0.7916 0.36966 0.75193 0.0
C1845 C 0.79651 0.35195 0.75906 0.0
C1846 C 0.83382 0.41694 0.80995 0.0
C1847 C 0.7742 0.36573 0.72598 0.0
C1848 C 0.79856 0.44476 0.76 0.0
C1849 C 0.81634 0.4579 0.73795 0.0
C1850 C 0.79261 0.42188 0.76748 0.0
C1851 C 0.80546 0.41244 0.75353 0.0
C1852 C 0.82212 0.42501 0.72933 0.0
C1853 C 0.82707 0.4475 0.72144 0.0
C1854 C 0.77384 0.40861 0.79203 0.0
C1855 C 0.83641 0.4157 0.714 0.0
H1856 H 0.8366 0.37844 0.81811 0.0
H1857 H 0.78828 0.33603 0.74521 0.0
H1858 H 0.84658 0.42999 0.79301 0.0
H1859 H 0.8224 0.42352 0.81854 0.0
H1860 H 0.84349 0.41557 0.83074 0.0
H1861 H 0.76162 0.34693 0.72258 0.0
H1862 H 0.76442 0.37478 0.73162 0.0
H1863 H 0.7835 0.37279 0.70301 0.0
H1864 H 0.79006 0.45275 0.77255 0.0
H1865 H 0.84087 0.45768 0.70448 0.0
H1866 H 0.78191 0.41087 0.81598 0.0
H1867 H 0.7641 0.38976 0.78654 0.0
H1868 H 0.76135 0.41508 0.79333 0.0
H1869 H 0.84766 0.41418 0.73236 0.0
H1870 H 0.8477 0.42707 0.69439 0.0
H1871 H 0.82488 0.3981 0.70412 0.0
loop_
_geom_bond_atom_site_label_1
_geom_bond_atom_site_label_2
_geom_bond_distance
_geom_bond_site_symmetry_2
_ccdc_geom_bond_type
Zn0 O3 2.031 . S
Zn0 O5 2.049 . S
Zn0 O10 2.067 . S
Zn1 O2 1.962 . S
Zn1 O4 1.986 . S
Zn1 O6 1.996 . S
Zn1 O9 1.943 . S
O2 Zn1 1.962 . S
O2 C7 1.254 . S
O3 Zn0 2.031 . S
O3 C7 1.269 . S
O4 Zn1 1.986 . S
O4 C11 1.262 . S
O5 Zn0 2.049 . S
O5 C13 1.260 . S
O6 Zn1 1.996 . S
O6 C13 1.257 . S
C7 O2 1.254 . S
C7 O3 1.269 . S
C8 O9 1.249 . S
C8 O10 1.270 . S
O9 Zn1 1.943 . S
O9 C8 1.249 . S
O10 Zn0 2.067 . S
O10 C8 1.270 . S
C11 O4 1.262 . S
C11 O12 1.232 . S
O12 C11 1.232 . S
C13 O5 1.260 . S
C13 O6 1.257 . S
Zn14 O17 2.031 . S
Zn14 O19 2.049 . S
Zn14 O24 2.067 . S
Zn15 O16 1.962 . S
Zn15 O18 1.986 . S
Zn15 O20 1.996 . S
Zn15 O23 1.943 . S
O16 Zn15 1.962 . S
O16 C21 1.254 . S
O17 Zn14 2.031 . S
O17 C21 1.269 . S
O18 Zn15 1.986 . S
O18 C25 1.262 . S
O19 Zn14 2.049 . S
O19 C27 1.260 . S
O20 Zn15 1.996 . S
O20 C27 1.257 . S
C21 O16 1.254 . S
C21 O17 1.269 . S
C22 O23 1.249 . S
C22 O24 1.270 . S
O23 Zn15 1.943 . S
O23 C22 1.249 . S
O24 Zn14 2.067 . S
O24 C22 1.270 . S
C25 O18 1.262 . S
C25 O26 1.232 . S
O26 C25 1.232 . S
C27 O19 1.260 . S
C27 O20 1.257 . S
Zn28 O31 2.031 . S
Zn28 O33 2.049 . S
Zn28 O38 2.067 . S
Zn29 O30 1.962 . S
Zn29 O32 1.986 . S
Zn29 O34 1.996 . S
Zn29 O37 1.943 . S
O30 Zn29 1.962 . S
O30 C35 1.254 . S
O31 Zn28 2.031 . S
O31 C35 1.269 . S
O32 Zn29 1.986 . S
O32 C39 1.262 . S
O33 Zn28 2.049 . S
O33 C41 1.260 . S
O34 Zn29 1.996 . S
O34 C41 1.257 . S
C35 O30 1.254 . S
C35 O31 1.269 . S
C36 O37 1.249 . S
C36 O38 1.270 . S
O37 Zn29 1.943 . S
O37 C36 1.249 . S
O38 Zn28 2.067 . S
O38 C36 1.270 . S
C39 O32 1.262 . S
C39 O40 1.232 . S
O40 C39 1.232 . S
C41 O33 1.260 . S
C41 O34 1.257 . S
Zn42 O45 2.031 . S
Zn42 O47 2.049 . S
Zn42 O52 2.067 . S
Zn43 O44 1.962 . S
Zn43 O46 1.986 . S
Zn43 O48 1.996 . S
Zn43 O51 1.943 . S
O44 Zn43 1.962 . S
O44 C49 1.254 . S
O45 Zn42 2.031 . S
O45 C49 1.269 . S
O46 Zn43 1.986 . S
O46 C53 1.262 . S
O47 Zn42 2.049 . S
O47 C55 1.260 . S
O48 Zn43 1.996 . S
O48 C55 1.257 . S
C49 O44 1.254 . S
C49 O45 1.269 . S
C50 O51 1.249 . S
C50 O52 1.270 . S
O51 Zn43 1.943 . S
O51 C50 1.249 . S
O52 Zn42 2.067 . S
O52 C50 1.270 . S
C53 O46 1.262 . S
C53 O54 1.232 . S
O54 C53 1.232 . S
C55 O47 1.260 . S
C55 O48 1.257 . S
Zn56 O59 2.031 . S
Zn56 O61 2.049 . S
Zn56 O66 2.067 . S
Zn57 O58 1.962 . S
Zn57 O60 1.986 . S
Zn57 O62 1.996 . S
Zn57 O65 1.943 . S
O58 Zn57 1.962 . S
O58 C63 1.254 . S
O59 Zn56 2.031 . S
O59 C63 1.269 . S
O60 Zn57 1.986 . S
O60 C67 1.262 . S
O61 Zn56 2.049 . S
O61 C69 1.260 . S
O62 Zn57 1.996 . S
O62 C69 1.257 . S
C63 O58 1.254 . S
C63 O59 1.269 . S
C64 O65 1.249 . S
C64 O66 1.270 . S
O65 Zn57 1.943 . S
O65 C64 1.249 . S
O66 Zn56 2.067 . S
O66 C64 1.270 . S
C67 O60 1.262 . S
C67 O68 1.232 . S
O68 C67 1.232 . S
C69 O61 1.260 . S
C69 O62 1.257 . S
Zn70 O73 2.031 . S
Zn70 O75 2.049 . S
Zn70 O80 2.067 . S
Zn71 O72 1.962 . S
Zn71 O74 1.986 . S
Zn71 O76 1.996 . S
Zn71 O79 1.943 . S
O72 Zn71 1.962 . S
O72 C77 1.254 . S
O73 Zn70 2.031 . S
O73 C77 1.269 . S
O74 Zn71 1.986 . S
O74 C81 1.262 . S
O75 Zn70 2.049 . S
O75 C83 1.260 . S
O76 Zn71 1.996 . S
O76 C83 1.257 . S
C77 O72 1.254 . S
C77 O73 1.269 . S
C78 O79 1.249 . S
C78 O80 1.270 . S
O79 Zn71 1.943 . S
O79 C78 1.249 . S
O80 Zn70 2.067 . S
O80 C78 1.270 . S
C81 O74 1.262 . S
C81 O82 1.232 . S
O82 C81 1.232 . S
C83 O75 1.260 . S
C83 O76 1.257 . S
Zn84 O87 2.031 . S
Zn84 O89 2.049 . S
Zn84 O94 2.067 . S
Zn85 O86 1.962 . S
Zn85 O88 1.986 . S
Zn85 O90 1.996 . S
Zn85 O93 1.943 . S
O86 Zn85 1.962 . S
O86 C91 1.254 . S
O87 Zn84 2.031 . S
O87 C91 1.269 . S
O88 Zn85 1.986 . S
O88 C95 1.262 . S
O89 Zn84 2.049 . S
O89 C97 1.260 . S
O90 Zn85 1.996 . S
O90 C97 1.257 . S
C91 O86 1.254 . S
C91 O87 1.269 . S
C92 O93 1.249 . S
C92 O94 1.270 . S
O93 Zn85 1.943 . S
O93 C92 1.249 . S
O94 Zn84 2.067 . S
O94 C92 1.270 . S
C95 O88 1.262 . S
C95 O96 1.232 . S
O96 C95 1.232 . S
C97 O89 1.260 . S
C97 O90 1.257 . S
Zn98 O101 2.031 . S
Zn98 O103 2.049 . S
Zn98 O108 2.067 . S
Zn99 O100 1.962 . S
Zn99 O102 1.986 . S
Zn99 O104 1.996 . S
Zn99 O107 1.943 . S
O100 Zn99 1.962 . S
O100 C105 1.254 . S
O101 Zn98 2.031 . S
O101 C105 1.269 . S
O102 Zn99 1.986 . S
O102 C109 1.262 . S
O103 Zn98 2.049 . S
O103 C111 1.260 . S
O104 Zn99 1.996 . S
O104 C111 1.257 . S
C105 O100 1.254 . S
C105 O101 1.269 . S
C106 O107 1.249 . S
C106 O108 1.270 . S
O107 Zn99 1.943 . S
O107 C106 1.249 . S
O108 Zn98 2.067 . S
O108 C106 1.270 . S
C109 O102 1.262 . S
C109 O110 1.232 . S
O110 C109 1.232 . S
C111 O103 1.260 . S
C111 O104 1.257 . S
Zn112 O115 2.031 . S
Zn112 O117 2.049 . S
Zn112 O122 2.067 . S
Zn113 O114 1.962 . S
Zn113 O116 1.986 . S
Zn113 O118 1.996 . S
Zn113 O121 1.943 . S
O114 Zn113 1.962 . S
O114 C119 1.254 . S
O115 Zn112 2.031 . S
O115 C119 1.269 . S
O116 Zn113 1.986 . S
O116 C123 1.262 . S
O117 Zn112 2.049 . S
O117 C125 1.260 . S
O118 Zn113 1.996 . S
O118 C125 1.257 . S
C119 O114 1.254 . S
C119 O115 1.269 . S
C120 O121 1.249 . S
C120 O122 1.270 . S
O121 Zn113 1.943 . S
O121 C120 1.249 . S
O122 Zn112 2.067 . S
O122 C120 1.270 . S
C123 O116 1.262 . S
C123 O124 1.232 . S
O124 C123 1.232 . S
C125 O117 1.260 . S
C125 O118 1.257 . S
Zn126 O129 2.031 . S
Zn126 O131 2.049 . S
Zn126 O136 2.067 . S
Zn127 O128 1.962 . S
Zn127 O130 1.986 . S
Zn127 O132 1.996 . S
Zn127 O135 1.943 . S
O128 Zn127 1.962 . S
O128 C133 1.254 . S
O129 Zn126 2.031 . S
O129 C133 1.269 . S
O130 Zn127 1.986 . S
O130 C137 1.262 . S
O131 Zn126 2.049 . S
O131 C139 1.260 . S
O132 Zn127 1.996 . S
O132 C139 1.257 . S
C133 O128 1.254 . S
C133 O129 1.269 . S
C134 O135 1.249 . S
C134 O136 1.270 . S
O135 Zn127 1.943 . S
O135 C134 1.249 . S
O136 Zn126 2.067 . S
O136 C134 1.270 . S
C137 O130 1.262 . S
C137 O138 1.232 . S
O138 C137 1.232 . S
C139 O131 1.260 . S
C139 O132 1.257 . S
Zn140 O143 2.031 . S
Zn140 O145 2.049 . S
Zn140 O150 2.067 . S
Zn141 O142 1.962 . S
Zn141 O144 1.986 . S
Zn141 O146 1.996 . S
Zn141 O149 1.943 . S
O142 Zn141 1.962 . S
O142 C147 1.254 . S
O143 Zn140 2.031 . S
O143 C147 1.269 . S
O144 Zn141 1.986 . S
O144 C151 1.262 . S
O145 Zn140 2.049 . S
O145 C153 1.260 . S
O146 Zn141 1.996 . S
O146 C153 1.257 . S
C147 O142 1.254 . S
C147 O143 1.269 . S
C148 O149 1.249 . S
C148 O150 1.270 . S
O149 Zn141 1.943 . S
O149 C148 1.249 . S
O150 Zn140 2.067 . S
O150 C148 1.270 . S
C151 O144 1.262 . S
C151 O152 1.232 . S
O152 C151 1.232 . S
C153 O145 1.260 . S
C153 O146 1.257 . S
Zn154 O157 2.031 . S
Zn154 O159 2.049 . S
Zn154 O164 2.067 . S
Zn155 O156 1.962 . S
Zn155 O158 1.986 . S
Zn155 O160 1.996 . S
Zn155 O163 1.943 . S
O156 Zn155 1.962 . S
O156 C161 1.254 . S
O157 Zn154 2.031 . S
O157 C161 1.269 . S
O158 Zn155 1.986 . S
O158 C165 1.262 . S
O159 Zn154 2.049 . S
O159 C167 1.260 . S
O160 Zn155 1.996 . S
O160 C167 1.257 . S
C161 O156 1.254 . S
C161 O157 1.269 . S
C162 O163 1.249 . S
C162 O164 1.270 . S
O163 Zn155 1.943 . S
O163 C162 1.249 . S
O164 Zn154 2.067 . S
O164 C162 1.270 . S
C165 O158 1.262 . S
C165 O166 1.232 . S
O166 C165 1.232 . S
C167 O159 1.260 . S
C167 O160 1.257 . S
Zn168 O171 2.031 . S
Zn168 O173 2.049 . S
Zn168 O178 2.067 . S
Zn169 O170 1.962 . S
Zn169 O172 1.986 . S
Zn169 O174 1.996 . S
Zn169 O177 1.943 . S
O170 Zn169 1.962 . S
O170 C175 1.254 . S
O171 Zn168 2.031 . S
O171 C175 1.269 . S
O172 Zn169 1.986 . S
O172 C179 1.262 . S
O173 Zn168 2.049 . S
O173 C181 1.260 . S
O174 Zn169 1.996 . S
O174 C181 1.257 . S
C175 O170 1.254 . S
C175 O171 1.269 . S
C176 O177 1.249 . S
C176 O178 1.270 . S
O177 Zn169 1.943 . S
O177 C176 1.249 . S
O178 Zn168 2.067 . S
O178 C176 1.270 . S
C179 O172 1.262 . S
C179 O180 1.232 . S
O180 C179 1.232 . S
C181 O173 1.260 . S
C181 O174 1.257 . S
Zn182 O185 2.031 . S
Zn182 O187 2.049 . S
Zn182 O192 2.067 . S
Zn183 O184 1.962 . S
Zn183 O186 1.986 . S
Zn183 O188 1.996 . S
Zn183 O191 1.943 . S
O184 Zn183 1.962 . S
O184 C189 1.254 . S
O185 Zn182 2.031 . S
O185 C189 1.269 . S
O186 Zn183 1.986 . S
O186 C193 1.262 . S
O187 Zn182 2.049 . S
O187 C195 1.260 . S
O188 Zn183 1.996 . S
O188 C195 1.257 . S
C189 O184 1.254 . S
C189 O185 1.269 . S
C190 O191 1.249 . S
C190 O192 1.270 . S
O191 Zn183 1.943 . S
O191 C190 1.249 . S
O192 Zn182 2.067 . S
O192 C190 1.270 . S
C193 O186 1.262 . S
C193 O194 1.232 . S
O194 C193 1.232 . S
C195 O187 1.260 . S
C195 O188 1.257 . S
Zn196 O199 2.031 . S
Zn196 O201 2.049 . S
Zn196 O206 2.067 . S
Zn197 O198 1.962 . S
Zn197 O200 1.986 . S
Zn197 O202 1.996 . S
Zn197 O205 1.943 . S
O198 Zn197 1.962 . S
O198 C203 1.254 . S
O199 Zn196 2.031 . S
O199 C203 1.269 . S
O200 Zn197 1.986 . S
O200 C207 1.262 . S
O201 Zn196 2.049 . S
O201 C209 1.260 . S
O202 Zn197 1.996 . S
O202 C209 1.257 . S
C203 O198 1.254 . S
C203 O199 1.269 . S
C204 O205 1.249 . S
C204 O206 1.270 . S
O205 Zn197 1.943 . S
O205 C204 1.249 . S
O206 Zn196 2.067 . S
O206 C204 1.270 . S
C207 O200 1.262 . S
C207 O208 1.232 . S
O208 C207 1.232 . S
C209 O201 1.260 . S
C209 O202 1.257 . S
Zn210 O213 2.031 . S
Zn210 O215 2.049 . S
Zn210 O220 2.067 . S
Zn211 O212 1.962 . S
Zn211 O214 1.986 . S
Zn211 O216 1.996 . S
Zn211 O219 1.943 . S
O212 Zn211 1.962 . S
O212 C217 1.254 . S
O213 Zn210 2.031 . S
O213 C217 1.269 . S
O214 Zn211 1.986 . S
O214 C221 1.262 . S
O215 Zn210 2.049 . S
O215 C223 1.260 . S
O216 Zn211 1.996 . S
O216 C223 1.257 . S
C217 O212 1.254 . S
C217 O213 1.269 . S
C218 O219 1.249 . S
C218 O220 1.270 . S
O219 Zn211 1.943 . S
O219 C218 1.249 . S
O220 Zn210 2.067 . S
O220 C218 1.270 . S
C221 O214 1.262 . S
C221 O222 1.232 . S
O222 C221 1.232 . S
C223 O215 1.260 . S
C223 O216 1.257 . S
Zn224 O227 2.031 . S
Zn224 O229 2.049 . S
Zn224 O234 2.067 . S
Zn225 O226 1.962 . S
Zn225 O228 1.986 . S
Zn225 O230 1.996 . S
Zn225 O233 1.943 . S
O226 Zn225 1.962 . S
O226 C231 1.254 . S
O227 Zn224 2.031 . S
O227 C231 1.269 . S
O228 Zn225 1.986 . S
O228 C235 1.262 . S
O229 Zn224 2.049 . S
O229 C237 1.260 . S
O230 Zn225 1.996 . S
O230 C237 1.257 . S
C231 O226 1.254 . S
C231 O227 1.269 . S
C232 O233 1.249 . S
C232 O234 1.270 . S
O233 Zn225 1.943 . S
O233 C232 1.249 . S
O234 Zn224 2.067 . S
O234 C232 1.270 . S
C235 O228 1.262 . S
C235 O236 1.232 . S
O236 C235 1.232 . S
C237 O229 1.260 . S
C237 O230 1.257 . S
Zn238 O241 2.031 . S
Zn238 O243 2.049 . S
Zn238 O248 2.067 . S
Zn239 O240 1.962 . S
Zn239 O242 1.986 . S
Zn239 O244 1.996 . S
Zn239 O247 1.943 . S
O240 Zn239 1.962 . S
O240 C245 1.254 . S
O241 Zn238 2.031 . S
O241 C245 1.269 . S
O242 Zn239 1.986 . S
O242 C249 1.262 . S
O243 Zn238 2.049 . S
O243 C251 1.260 . S
O244 Zn239 1.996 . S
O244 C251 1.257 . S
C245 O240 1.254 . S
C245 O241 1.269 . S
C246 O247 1.249 . S
C246 O248 1.270 . S
O247 Zn239 1.943 . S
O247 C246 1.249 . S
O248 Zn238 2.067 . S
O248 C246 1.270 . S
C249 O242 1.262 . S
C249 O250 1.232 . S
O250 C249 1.232 . S
C251 O243 1.260 . S
C251 O244 1.257 . S
Zn252 O255 2.031 . S
Zn252 O257 2.049 . S
Zn252 O262 2.067 . S
Zn253 O254 1.962 . S
Zn253 O256 1.986 . S
Zn253 O258 1.996 . S
Zn253 O261 1.943 . S
O254 Zn253 1.962 . S
O254 C259 1.254 . S
O255 Zn252 2.031 . S
O255 C259 1.269 . S
O256 Zn253 1.986 . S
O256 C263 1.262 . S
O257 Zn252 2.049 . S
O257 C265 1.260 . S
O258 Zn253 1.996 . S
O258 C265 1.257 . S
C259 O254 1.254 . S
C259 O255 1.269 . S
C260 O261 1.249 . S
C260 O262 1.270 . S
O261 Zn253 1.943 . S
O261 C260 1.249 . S
O262 Zn252 2.067 . S
O262 C260 1.270 . S
C263 O256 1.262 . S
C263 O264 1.232 . S
O264 C263 1.232 . S
C265 O257 1.260 . S
C265 O258 1.257 . S
Zn266 O269 2.031 . S
Zn266 O271 2.049 . S
Zn266 O276 2.067 . S
Zn267 O268 1.962 . S
Zn267 O270 1.986 . S
Zn267 O272 1.996 . S
Zn267 O275 1.943 . S
O268 Zn267 1.962 . S
O268 C273 1.254 . S
O269 Zn266 2.031 . S
O269 C273 1.269 . S
O270 Zn267 1.986 . S
O270 C277 1.262 . S
O271 Zn266 2.049 . S
O271 C279 1.260 . S
O272 Zn267 1.996 . S
O272 C279 1.257 . S
C273 O268 1.254 . S
C273 O269 1.269 . S
C274 O275 1.249 . S
C274 O276 1.270 . S
O275 Zn267 1.943 . S
O275 C274 1.249 . S
O276 Zn266 2.067 . S
O276 C274 1.270 . S
C277 O270 1.262 . S
C277 O278 1.232 . S
O278 C277 1.232 . S
C279 O271 1.260 . S
C279 O272 1.257 . S
Zn280 O283 2.031 . S
Zn280 O285 2.049 . S
Zn280 O290 2.067 . S
Zn281 O282 1.962 . S
Zn281 O284 1.986 . S
Zn281 O286 1.996 . S
Zn281 O289 1.943 . S
O282 Zn281 1.962 . S
O282 C287 1.254 . S
O283 Zn280 2.031 . S
O283 C287 1.269 . S
O284 Zn281 1.986 . S
O284 C291 1.262 . S
O285 Zn280 2.049 . S
O285 C293 1.260 . S
O286 Zn281 1.996 . S
O286 C293 1.257 . S
C287 O282 1.254 . S
C287 O283 1.269 . S
C288 O289 1.249 . S
C288 O290 1.270 . S
O289 Zn281 1.943 . S
O289 C288 1.249 . S
O290 Zn280 2.067 . S
O290 C288 1.270 . S
C291 O284 1.262 . S
C291 O292 1.232 . S
O292 C291 1.232 . S
C293 O285 1.260 . S
C293 O286 1.257 . S
Zn294 O297 2.031 . S
Zn294 O299 2.049 . S
Zn294 O304 2.067 . S
Zn295 O296 1.962 . S
Zn295 O298 1.986 . S
Zn295 O300 1.996 . S
Zn295 O303 1.943 . S
O296 Zn295 1.962 . S
O296 C301 1.254 . S
O297 Zn294 2.031 . S
O297 C301 1.269 . S
O298 Zn295 1.986 . S
O298 C305 1.262 . S
O299 Zn294 2.049 . S
O299 C307 1.260 . S
O300 Zn295 1.996 . S
O300 C307 1.257 . S
C301 O296 1.254 . S
C301 O297 1.269 . S
C302 O303 1.249 . S
C302 O304 1.270 . S
O303 Zn295 1.943 . S
O303 C302 1.249 . S
O304 Zn294 2.067 . S
O304 C302 1.270 . S
C305 O298 1.262 . S
C305 O306 1.232 . S
O306 C305 1.232 . S
C307 O299 1.260 . S
C307 O300 1.257 . S
Zn308 O311 2.031 . S
Zn308 O313 2.049 . S
Zn308 O318 2.067 . S
Zn309 O310 1.962 . S
Zn309 O312 1.986 . S
Zn309 O314 1.996 . S
Zn309 O317 1.943 . S
O310 Zn309 1.962 . S
O310 C315 1.254 . S
O311 Zn308 2.031 . S
O311 C315 1.269 . S
O312 Zn309 1.986 . S
O312 C319 1.262 . S
O313 Zn308 2.049 . S
O313 C321 1.260 . S
O314 Zn309 1.996 . S
O314 C321 1.257 . S
C315 O310 1.254 . S
C315 O311 1.269 . S
C316 O317 1.249 . S
C316 O318 1.270 . S
O317 Zn309 1.943 . S
O317 C316 1.249 . S
O318 Zn308 2.067 . S
O318 C316 1.270 . S
C319 O312 1.262 . S
C319 O320 1.232 . S
O320 C319 1.232 . S
C321 O313 1.260 . S
C321 O314 1.257 . S
Zn322 O325 2.031 . S
Zn322 O327 2.049 . S
Zn322 O332 2.067 . S
Zn323 O324 1.962 . S
Zn323 O326 1.986 . S
Zn323 O328 1.996 . S
Zn323 O331 1.943 . S
O324 Zn323 1.962 . S
O324 C329 1.254 . S
O325 Zn322 2.031 . S
O325 C329 1.269 . S
O326 Zn323 1.986 . S
O326 C333 1.262 . S
O327 Zn322 2.049 . S
O327 C335 1.260 . S
O328 Zn323 1.996 . S
O328 C335 1.257 . S
C329 O324 1.254 . S
C329 O325 1.269 . S
C330 O331 1.249 . S
C330 O332 1.270 . S
O331 Zn323 1.943 . S
O331 C330 1.249 . S
O332 Zn322 2.067 . S
O332 C330 1.270 . S
C333 O326 1.262 . S
C333 O334 1.232 . S
O334 C333 1.232 . S
C335 O327 1.260 . S
C335 O328 1.257 . S
C336 C337 1.391 . S
C336 C338 1.394 . S
C336 H352 0.931 . S
C337 C336 1.391 . S
C337 C341 1.376 . S
C338 C336 1.394 . S
C338 C339 1.369 . S
C338 C342 1.531 . S
C339 C338 1.369 . S
C339 C340 1.410 . S
C339 C347 1.503 1_545 S
C340 C339 1.410 . S
C340 C341 1.392 . S
C340 C343 1.511 . S
C341 C337 1.376 . S
C341 C340 1.392 . S
C341 H353 0.929 . S
C342 C338 1.531 . S
C342 H354 0.960 . S
C342 H355 0.962 . S
C342 H356 0.960 . S
C343 C340 1.511 . S
C343 H357 0.961 . S
C343 H358 0.961 1_545 S
C343 H359 0.961 . S
C344 C345 1.370 . S
C344 C346 1.363 . S
C344 H360 0.931 . S
C345 C344 1.370 . S
C345 C349 1.408 . S
C346 C344 1.363 . S
C346 C347 1.370 . S
C346 C350 1.524 . S
C347 C339 1.503 1_565 S
C347 C346 1.370 . S
C347 C348 1.403 . S
C348 C347 1.403 . S
C348 C349 1.404 . S
C348 C351 1.539 1_565 S
C349 C345 1.408 . S
C349 C348 1.404 . S
C349 H361 0.930 . S
C350 C346 1.524 . S
C350 H362 0.956 . S
C350 H363 0.961 . S
C350 H364 0.961 . S
C351 C348 1.539 1_545 S
C351 H365 0.958 . S
C351 H366 0.961 1_545 S
C351 H367 0.960 . S
H352 C336 0.931 . S
H353 C341 0.929 . S
H354 C342 0.960 . S
H355 C342 0.962 . S
H356 C342 0.960 . S
H357 C343 0.961 . S
H358 C343 0.961 1_565 S
H359 C343 0.961 . S
H360 C344 0.931 . S
H361 C349 0.930 . S
H362 C350 0.956 . S
H363 C350 0.961 . S
H364 C350 0.961 . S
H365 C351 0.958 . S
H366 C351 0.961 1_565 S
H367 C351 0.960 . S
C368 C369 1.391 . S
C368 C370 1.394 . S
C368 H384 0.931 . S
C369 C368 1.391 . S
C369 C373 1.376 . S
C370 C368 1.394 . S
C370 C371 1.369 . S
C370 C374 1.531 . S
C371 C370 1.369 . S
C371 C372 1.410 . S
C371 C379 1.503 . S
C372 C371 1.410 . S
C372 C373 1.392 . S
C372 C375 1.511 . S
C373 C369 1.376 . S
C373 C372 1.392 . S
C373 H385 0.929 . S
C374 C370 1.531 . S
C374 H386 0.960 . S
C374 H387 0.962 . S
C374 H388 0.960 . S
C375 C372 1.511 . S
C375 H389 0.961 . S
C375 H390 0.961 . S
C375 H391 0.961 . S
C376 C377 1.370 . S
C376 C378 1.363 . S
C376 H392 0.931 . S
C377 C376 1.370 . S
C377 C381 1.408 . S
C378 C376 1.363 . S
C378 C379 1.370 . S
C378 C382 1.524 . S
C379 C371 1.503 . S
C379 C378 1.370 . S
C379 C380 1.403 . S
C380 C379 1.403 . S
C380 C381 1.404 . S
C380 C383 1.539 . S
C381 C377 1.408 . S
C381 C380 1.404 . S
C381 H393 0.930 . S
C382 C378 1.524 . S
C382 H394 0.956 . S
C382 H395 0.961 . S
C382 H396 0.961 . S
C383 C380 1.539 . S
C383 H397 0.958 . S
C383 H398 0.961 . S
C383 H399 0.960 . S
H384 C368 0.931 . S
H385 C373 0.929 . S
H386 C374 0.960 . S
H387 C374 0.962 . S
H388 C374 0.960 . S
H389 C375 0.961 . S
H390 C375 0.961 . S
H391 C375 0.961 . S
H392 C376 0.931 . S
H393 C381 0.930 . S
H394 C382 0.956 . S
H395 C382 0.961 . S
H396 C382 0.961 . S
H397 C383 0.958 . S
H398 C383 0.961 . S
H399 C383 0.960 . S
C400 C401 1.391 . S
C400 C402 1.394 . S
C400 H416 0.931 . S
C401 C400 1.391 . S
C401 C405 1.376 . S
C402 C400 1.394 . S
C402 C403 1.369 . S
C402 C406 1.531 1_655 S
C403 C402 1.369 . S
C403 C404 1.410 . S
C403 C411 1.503 1_655 S
C404 C403 1.410 . S
C404 C405 1.392 . S
C404 C407 1.511 . S
C405 C401 1.376 . S
C405 C404 1.392 . S
C405 H417 0.929 . S
C406 C402 1.531 1_455 S
C406 H418 0.960 . S
C406 H419 0.962 . S
C406 H420 0.973 . S
C407 C404 1.511 . S
C407 H421 0.961 . S
C407 H422 0.961 . S
C407 H423 0.961 . S
C408 C409 1.370 . S
C408 C410 1.363 . S
C408 H424 0.931 . S
C409 C408 1.370 . S
C409 C413 1.408 . S
C410 C408 1.363 . S
C410 C411 1.370 . S
C410 C414 1.524 . S
C411 C403 1.503 1_455 S
C411 C410 1.370 . S
C411 C412 1.403 . S
C412 C411 1.403 . S
C412 C413 1.404 . S
C412 C415 1.539 . S
C413 C409 1.408 . S
C413 C412 1.404 . S
C413 H425 0.930 . S
C414 C410 1.524 . S
C414 H426 0.956 1_455 S
C414 H427 0.961 1_455 S
C414 H428 0.961 . S
C415 C412 1.539 . S
C415 H429 0.958 . S
C415 H430 0.961 . S
C415 H431 0.960 . S
H416 C400 0.931 . S
H417 C405 0.929 . S
H418 C406 0.960 . S
H419 C406 0.962 . S
H420 C406 0.973 . S
H421 C407 0.961 . S
H422 C407 0.961 . S
H423 C407 0.961 . S
H424 C408 0.931 . S
H425 C413 0.930 . S
H426 C414 0.956 1_655 S
H427 C414 0.961 1_655 S
H428 C414 0.961 . S
H429 C415 0.958 . S
H430 C415 0.961 . S
H431 C415 0.960 . S
C432 C433 1.391 . S
C432 C434 1.394 . S
C432 H448 0.931 . S
C433 C432 1.391 . S
C433 C437 1.376 . S
C434 C432 1.394 . S
C434 C435 1.369 . S
C434 C438 1.531 . S
C435 C434 1.369 . S
C435 C436 1.410 . S
C435 C443 1.503 1_565 S
C436 C435 1.410 . S
C436 C437 1.392 . S
C436 C439 1.511 1_565 S
C437 C433 1.376 . S
C437 C436 1.392 . S
C437 H449 0.929 . S
C438 C434 1.531 . S
C438 H450 0.960 . S
C438 H451 0.962 . S
C438 H452 0.960 . S
C439 C436 1.511 1_545 S
C439 H453 0.961 1_545 S
C439 H454 0.961 . S
C439 H455 0.961 . S
C440 C441 1.370 . S
C440 C442 1.363 . S
C440 H456 0.931 . S
C441 C440 1.370 . S
C441 C445 1.408 . S
C442 C440 1.363 . S
C442 C443 1.370 . S
C442 C446 1.509 1_545 S
C443 C435 1.503 1_545 S
C443 C442 1.370 . S
C443 C444 1.403 . S
C444 C443 1.403 . S
C444 C445 1.404 . S
C444 C447 1.539 . S
C445 C441 1.408 . S
C445 C444 1.404 . S
C445 H457 0.930 . S
C446 C442 1.509 1_565 S
C446 H458 1.006 . S
C446 H459 0.967 . S
C446 H460 0.923 1_565 S
C447 C444 1.539 . S
C447 H461 0.958 . S
C447 H462 0.961 . S
C447 H463 0.960 . S
H448 C432 0.931 . S
H449 C437 0.929 . S
H450 C438 0.960 . S
H451 C438 0.962 . S
H452 C438 0.960 . S
H453 C439 0.961 1_565 S
H454 C439 0.961 . S
H455 C439 0.961 . S
H456 C440 0.931 . S
H457 C445 0.930 . S
H458 C446 1.006 . S
H459 C446 0.967 . S
H460 C446 0.923 1_545 S
H461 C447 0.958 . S
H462 C447 0.961 . S
H463 C447 0.960 . S
C464 C465 1.391 . S
C464 C466 1.394 . S
C464 H480 0.931 . S
C465 C464 1.391 . S
C465 C469 1.376 . S
C466 C464 1.394 . S
C466 C467 1.369 . S
C466 C470 1.531 . S
C467 C466 1.369 . S
C467 C468 1.410 . S
C467 C475 1.503 . S
C468 C467 1.410 . S
C468 C469 1.392 . S
C468 C471 1.511 . S
C469 C465 1.376 . S
C469 C468 1.392 . S
C469 H481 0.929 . S
C470 C466 1.531 . S
C470 H482 0.960 . S
C470 H483 0.962 . S
C470 H484 0.960 . S
C471 C468 1.511 . S
C471 H485 0.961 . S
C471 H486 0.961 . S
C471 H487 0.961 . S
C472 C473 1.370 . S
C472 C474 1.363 . S
C472 H488 0.931 . S
C473 C472 1.370 . S
C473 C477 1.408 . S
C474 C472 1.363 . S
C474 C475 1.370 . S
C474 C478 1.524 . S
C475 C467 1.503 . S
C475 C474 1.370 . S
C475 C476 1.403 . S
C476 C475 1.403 . S
C476 C477 1.404 . S
C476 C479 1.539 . S
C477 C473 1.408 . S
C477 C476 1.404 . S
C477 H489 0.930 . S
C478 C474 1.524 . S
C478 H490 0.956 . S
C478 H491 0.961 . S
C478 H492 0.961 . S
C479 C476 1.539 . S
C479 H493 0.958 . S
C479 H494 0.961 . S
C479 H495 0.960 . S
H480 C464 0.931 . S
H481 C469 0.929 . S
H482 C470 0.960 . S
H483 C470 0.962 . S
H484 C470 0.960 . S
H485 C471 0.961 . S
H486 C471 0.961 . S
H487 C471 0.961 . S
H488 C472 0.931 . S
H489 C477 0.930 . S
H490 C478 0.956 . S
H491 C478 0.961 . S
H492 C478 0.961 . S
H493 C479 0.958 . S
H494 C479 0.961 . S
H495 C479 0.960 . S
C496 C497 1.391 . S
C496 C498 1.394 . S
C496 H512 0.931 . S
C497 C496 1.391 . S
C497 C501 1.376 . S
C498 C496 1.394 . S
C498 C499 1.369 . S
C498 C502 1.531 . S
C499 C498 1.369 . S
C499 C500 1.410 . S
C499 C507 1.503 1_455 S
C500 C499 1.410 . S
C500 C501 1.392 . S
C500 C503 1.511 1_455 S
C501 C497 1.376 . S
C501 C500 1.392 . S
C501 H513 0.929 . S
C502 C498 1.531 . S
C502 H514 0.960 . S
C502 H515 0.962 . S
C502 H516 0.960 . S
C503 C500 1.511 1_655 S
C503 H517 0.961 1_655 S
C503 H518 0.961 . S
C503 H519 0.961 . S
C504 C505 1.370 . S
C504 C506 1.363 . S
C504 H520 0.931 . S
C505 C504 1.370 . S
C505 C509 1.408 . S
C506 C504 1.363 . S
C506 C507 1.370 . S
C506 C510 1.524 . S
C507 C499 1.503 1_655 S
C507 C506 1.370 . S
C507 C508 1.403 . S
C508 C507 1.403 . S
C508 C509 1.404 . S
C508 C511 1.539 . S
C509 C505 1.408 . S
C509 C508 1.404 . S
C509 H521 0.930 . S
C510 C506 1.524 . S
C510 H522 0.956 . S
C510 H523 0.961 . S
C510 H524 0.961 . S
C511 C508 1.539 . S
C511 H525 0.958 1_655 S
C511 H526 0.961 . S
C511 H527 0.960 1_655 S
H512 C496 0.931 . S
H513 C501 0.929 . S
H514 C502 0.960 . S
H515 C502 0.962 . S
H516 C502 0.960 . S
H517 C503 0.961 1_455 S
H518 C503 0.961 . S
H519 C503 0.961 . S
H520 C504 0.931 . S
H521 C509 0.930 . S
H522 C510 0.956 . S
H523 C510 0.961 . S
H524 C510 0.961 . S
H525 C511 0.958 1_455 S
H526 C511 0.961 . S
H527 C511 0.960 1_455 S
C528 C529 1.391 . S
C528 C530 1.394 . S
C528 H544 0.931 . S
C529 C528 1.391 . S
C529 C533 1.376 . S
C530 C528 1.394 . S
C530 C531 1.369 . S
C530 C534 1.531 . S
C531 C530 1.369 . S
C531 C532 1.410 . S
C531 C539 1.503 1_565 S
C532 C531 1.410 . S
C532 C533 1.392 . S
C532 C535 1.511 . S
C533 C529 1.376 . S
C533 C532 1.392 . S
C533 H545 0.929 . S
C534 C530 1.531 . S
C534 H546 0.960 1_565 S
C534 H547 0.962 . S
C534 H548 0.960 . S
C535 C532 1.511 . S
C535 H549 0.961 . S
C535 H550 0.945 1_565 S
C535 H551 0.961 . S
C536 C537 1.370 . S
C536 C538 1.363 . S
C536 H552 0.931 . S
C537 C536 1.370 . S
C537 C541 1.408 . S
C538 C536 1.363 . S
C538 C539 1.370 . S
C538 C542 1.524 1_545 S
C539 C531 1.503 1_545 S
C539 C538 1.370 . S
C539 C540 1.403 . S
C540 C539 1.403 . S
C540 C541 1.404 . S
C540 C543 1.539 . S
C541 C537 1.408 . S
C541 C540 1.404 . S
C541 H553 0.930 . S
C542 C538 1.524 1_565 S
C542 H554 0.956 . S
C542 H555 0.961 . S
C542 H556 0.961 . S
C543 C540 1.539 . S
C543 H557 0.958 . S
C543 H558 0.961 . S
C543 H559 0.960 . S
H544 C528 0.931 . S
H545 C533 0.929 . S
H546 C534 0.960 1_545 S
H547 C534 0.962 . S
H548 C534 0.960 . S
H549 C535 0.961 . S
H550 C535 0.945 1_545 S
H551 C535 0.961 . S
H552 C536 0.931 . S
H553 C541 0.930 . S
H554 C542 0.956 . S
H555 C542 0.961 . S
H556 C542 0.961 . S
H557 C543 0.958 . S
H558 C543 0.961 . S
H559 C543 0.960 . S
C560 C561 1.391 . S
C560 C562 1.394 . S
C560 H576 0.931 . S
C561 C560 1.391 . S
C561 C565 1.376 . S
C562 C560 1.394 . S
C562 C563 1.369 . S
C562 C566 1.531 . S
C563 C562 1.369 . S
C563 C564 1.410 . S
C563 C571 1.503 . S
C564 C563 1.410 . S
C564 C565 1.392 . S
C564 C567 1.511 . S
C565 C561 1.376 . S
C565 C564 1.392 . S
C565 H577 0.929 . S
C566 C562 1.531 . S
C566 H578 0.960 . S
C566 H579 0.962 . S
C566 H580 0.960 . S
C567 C564 1.511 . S
C567 H581 0.961 . S
C567 H582 0.961 . S
C567 H583 0.961 . S
C568 C569 1.370 . S
C568 C570 1.363 . S
C568 H584 0.931 . S
C569 C568 1.370 . S
C569 C573 1.408 . S
C570 C568 1.363 . S
C570 C571 1.370 . S
C570 C574 1.524 . S
C571 C563 1.503 . S
C571 C570 1.370 . S
C571 C572 1.403 . S
C572 C571 1.403 . S
C572 C573 1.404 . S
C572 C575 1.539 . S
C573 C569 1.408 . S
C573 C572 1.404 . S
C573 H585 0.930 . S
C574 C570 1.524 . S
C574 H586 0.956 . S
C574 H587 0.961 . S
C574 H588 0.961 . S
C575 C572 1.539 . S
C575 H589 0.958 . S
C575 H590 0.961 . S
C575 H591 0.960 . S
H576 C560 0.931 . S
H577 C565 0.929 . S
H578 C566 0.960 . S
H579 C566 0.962 . S
H580 C566 0.960 . S
H581 C567 0.961 . S
H582 C567 0.961 . S
H583 C567 0.961 . S
H584 C568 0.931 . S
H585 C573 0.930 . S
H586 C574 0.956 . S
H587 C574 0.961 . S
H588 C574 0.961 . S
H589 C575 0.958 . S
H590 C575 0.961 . S
H591 C575 0.960 . S
C592 C593 1.391 . S
C592 C594 1.394 . S
C592 H608 0.931 . S
C593 C592 1.391 . S
C593 C597 1.376 . S
C594 C592 1.394 . S
C594 C595 1.369 . S
C594 C598 1.531 . S
C595 C594 1.369 . S
C595 C596 1.410 . S
C595 C603 1.503 1_655 S
C596 C595 1.410 . S
C596 C597 1.392 . S
C596 C599 1.511 . S
C597 C593 1.376 . S
C597 C596 1.392 . S
C597 H609 0.929 . S
C598 C594 1.531 . S
C598 H610 0.960 1_655 S
C598 H611 0.962 . S
C598 H612 0.960 . S
C599 C596 1.511 . S
C599 H613 0.961 . S
C599 H614 0.961 . S
C599 H615 0.961 . S
C600 C601 1.370 . S
C600 C602 1.363 . S
C600 H616 0.931 . S
C601 C600 1.370 . S
C601 C605 1.408 . S
C602 C600 1.363 . S
C602 C603 1.370 . S
C602 C606 1.524 1_455 S
C603 C595 1.503 1_455 S
C603 C602 1.370 . S
C603 C604 1.403 . S
C604 C603 1.403 . S
C604 C605 1.404 . S
C604 C607 1.539 . S
C605 C601 1.408 . S
C605 C604 1.404 . S
C605 H617 0.930 . S
C606 C602 1.524 1_655 S
C606 H618 0.956 . S
C606 H619 0.961 . S
C606 H620 0.961 . S
C607 C604 1.539 . S
C607 H621 0.958 . S
C607 H622 0.961 . S
C607 H623 0.960 . S
H608 C592 0.931 . S
H609 C597 0.929 . S
H610 C598 0.960 1_455 S
H611 C598 0.962 . S
H612 C598 0.960 . S
H613 C599 0.961 . S
H614 C599 0.961 . S
H615 C599 0.961 . S
H616 C600 0.931 . S
H617 C605 0.930 . S
H618 C606 0.956 . S
H619 C606 0.961 . S
H620 C606 0.961 . S
H621 C607 0.958 . S
H622 C607 0.961 . S
H623 C607 0.960 . S
C624 C625 1.391 . S
C624 C626 1.394 . S
C624 H640 0.931 . S
C625 C624 1.391 . S
C625 C629 1.376 . S
C626 C624 1.394 . S
C626 C627 1.369 . S
C626 C630 1.531 1_545 S
C627 C626 1.369 . S
C627 C628 1.410 . S
C627 C635 1.503 1_545 S
C628 C627 1.410 . S
C628 C629 1.392 . S
C628 C631 1.511 . S
C629 C625 1.376 . S
C629 C628 1.392 . S
C629 H641 0.929 . S
C630 C626 1.531 1_565 S
C630 H642 0.960 . S
C630 H643 0.962 . S
C630 H644 0.954 1_565 S
C631 C628 1.511 . S
C631 H645 0.961 . S
C631 H646 0.961 . S
C631 H647 0.961 . S
C632 C633 1.370 . S
C632 C634 1.363 . S
C632 H648 0.931 . S
C633 C632 1.370 . S
C633 C637 1.408 . S
C634 C632 1.363 . S
C634 C635 1.370 . S
C634 C638 1.512 1_565 S
C635 C627 1.503 1_565 S
C635 C634 1.370 . S
C635 C636 1.403 . S
C636 C635 1.403 . S
C636 C637 1.404 . S
C636 C639 1.539 . S
C637 C633 1.408 . S
C637 C636 1.404 . S
C637 H649 0.930 . S
C638 C634 1.512 1_545 S
C638 H650 0.953 . S
C638 H651 1.002 . S
C638 H652 0.937 1_545 S
C639 C636 1.539 . S
C639 H653 0.958 . S
C639 H654 0.961 . S
C639 H655 0.960 . S
H640 C624 0.931 . S
H641 C629 0.929 . S
H642 C630 0.960 . S
H643 C630 0.962 . S
H644 C630 0.954 1_545 S
H645 C631 0.961 . S
H646 C631 0.961 . S
H647 C631 0.961 . S
H648 C632 0.931 . S
H649 C637 0.930 . S
H650 C638 0.953 . S
H651 C638 1.002 . S
H652 C638 0.937 1_565 S
H653 C639 0.958 . S
H654 C639 0.961 . S
H655 C639 0.960 . S
C656 C657 1.391 . S
C656 C658 1.394 . S
C656 H672 0.931 . S
C657 C656 1.391 . S
C657 C661 1.376 . S
C658 C656 1.394 . S
C658 C659 1.369 . S
C658 C662 1.531 . S
C659 C658 1.369 . S
C659 C660 1.410 . S
C659 C667 1.503 . S
C660 C659 1.410 . S
C660 C661 1.392 . S
C660 C663 1.511 . S
C661 C657 1.376 . S
C661 C660 1.392 . S
C661 H673 0.929 . S
C662 C658 1.531 . S
C662 H674 0.960 . S
C662 H675 0.962 . S
C662 H676 0.960 . S
C663 C660 1.511 . S
C663 H677 0.961 . S
C663 H678 0.961 . S
C663 H679 0.961 . S
C664 C665 1.370 . S
C664 C666 1.363 . S
C664 H680 0.931 . S
C665 C664 1.370 . S
C665 C669 1.408 . S
C666 C664 1.363 . S
C666 C667 1.370 . S
C666 C670 1.524 . S
C667 C659 1.503 . S
C667 C666 1.370 . S
C667 C668 1.403 . S
C668 C667 1.403 . S
C668 C669 1.404 . S
C668 C671 1.539 . S
C669 C665 1.408 . S
C669 C668 1.404 . S
C669 H681 0.930 . S
C670 C666 1.524 . S
C670 H682 0.956 . S
C670 H683 0.961 . S
C670 H684 0.961 . S
C671 C668 1.539 . S
C671 H685 0.958 . S
C671 H686 0.961 . S
C671 H687 0.960 . S
H672 C656 0.931 . S
H673 C661 0.929 . S
H674 C662 0.960 . S
H675 C662 0.962 . S
H676 C662 0.960 . S
H677 C663 0.961 . S
H678 C663 0.961 . S
H679 C663 0.961 . S
H680 C664 0.931 . S
H681 C669 0.930 . S
H682 C670 0.956 . S
H683 C670 0.961 . S
H684 C670 0.961 . S
H685 C671 0.958 . S
H686 C671 0.961 . S
H687 C671 0.960 . S
C688 C689 1.391 . S
C688 C690 1.394 . S
C688 H704 0.931 . S
C689 C688 1.391 . S
C689 C693 1.376 . S
C690 C688 1.394 . S
C690 C691 1.369 . S
C690 C694 1.531 . S
C691 C690 1.369 . S
C691 C692 1.410 . S
C691 C699 1.503 1_455 S
C692 C691 1.410 . S
C692 C693 1.392 . S
C692 C695 1.511 . S
C693 C689 1.376 . S
C693 C692 1.392 . S
C693 H705 0.929 . S
C694 C690 1.531 . S
C694 H706 0.960 1_455 S
C694 H707 0.962 1_455 S
C694 H708 0.960 . S
C695 C692 1.511 . S
C695 H709 0.961 . S
C695 H710 0.961 . S
C695 H711 0.961 . S
C696 C697 1.370 . S
C696 C698 1.363 . S
C696 H712 0.931 . S
C697 C696 1.370 . S
C697 C701 1.408 . S
C698 C696 1.363 . S
C698 C699 1.370 . S
C698 C702 1.524 . S
C699 C691 1.503 1_655 S
C699 C698 1.370 . S
C699 C700 1.403 . S
C700 C699 1.403 . S
C700 C701 1.404 . S
C700 C703 1.580 . S
C701 C697 1.408 . S
C701 C700 1.404 . S
C701 H713 0.930 . S
C702 C698 1.524 . S
C702 H714 0.956 . S
C702 H715 0.961 . S
C702 H716 0.961 . S
C703 C700 1.580 . S
C703 H717 0.939 . S
C703 H718 0.971 . S
C703 H719 0.931 1_655 S
H704 C688 0.931 . S
H705 C693 0.929 . S
H706 C694 0.960 1_655 S
H707 C694 0.962 1_655 S
H708 C694 0.960 . S
H709 C695 0.961 . S
H710 C695 0.961 . S
H711 C695 0.961 . S
H712 C696 0.931 . S
H713 C701 0.930 . S
H714 C702 0.956 . S
H715 C702 0.961 . S
H716 C702 0.961 . S
H717 C703 0.939 . S
H718 C703 0.971 . S
H719 C703 0.931 1_455 S
C720 C721 1.391 . S
C720 C722 1.394 . S
C720 H736 0.931 . S
C721 C720 1.391 . S
C721 C725 1.376 . S
C722 C720 1.394 . S
C722 C723 1.369 . S
C722 C726 1.531 . S
C723 C722 1.369 . S
C723 C724 1.410 . S
C723 C731 1.503 . S
C724 C723 1.410 . S
C724 C725 1.392 . S
C724 C727 1.511 . S
C725 C721 1.376 . S
C725 C724 1.392 . S
C725 H737 0.929 . S
C726 C722 1.531 . S
C726 H738 0.960 . S
C726 H739 0.962 . S
C726 H740 0.960 . S
C727 C724 1.511 . S
C727 H741 0.961 . S
C727 H742 0.961 . S
C727 H743 0.961 . S
C728 C729 1.370 . S
C728 C730 1.363 . S
C728 H744 0.931 . S
C729 C728 1.370 . S
C729 C733 1.408 . S
C730 C728 1.363 . S
C730 C731 1.370 . S
C730 C734 1.524 . S
C731 C723 1.503 . S
C731 C730 1.370 . S
C731 C732 1.403 . S
C732 C731 1.403 . S
C732 C733 1.404 . S
C732 C735 1.539 . S
C733 C729 1.408 . S
C733 C732 1.404 . S
C733 H745 0.930 . S
C734 C730 1.524 . S
C734 H746 0.956 . S
C734 H747 0.961 . S
C734 H748 0.961 . S
C735 C732 1.539 . S
C735 H749 0.958 . S
C735 H750 0.961 . S
C735 H751 0.960 . S
H736 C720 0.931 . S
H737 C725 0.929 . S
H738 C726 0.960 . S
H739 C726 0.962 . S
H740 C726 0.960 . S
H741 C727 0.961 . S
H742 C727 0.961 . S
H743 C727 0.961 . S
H744 C728 0.931 . S
H745 C733 0.930 . S
H746 C734 0.956 . S
H747 C734 0.961 . S
H748 C734 0.961 . S
H749 C735 0.958 . S
H750 C735 0.961 . S
H751 C735 0.960 . S
C752 C753 1.391 . S
C752 C754 1.394 . S
C752 H768 0.931 . S
C753 C752 1.391 . S
C753 C757 1.376 . S
C754 C752 1.394 . S
C754 C755 1.369 . S
C754 C758 1.531 . S
C755 C754 1.369 . S
C755 C756 1.410 . S
C755 C763 1.503 . S
C756 C755 1.410 . S
C756 C757 1.392 . S
C756 C759 1.511 . S
C757 C753 1.376 . S
C757 C756 1.392 . S
C757 H769 0.929 . S
C758 C754 1.531 . S
C758 H770 0.960 . S
C758 H771 0.962 . S
C758 H772 0.960 . S
C759 C756 1.511 . S
C759 H773 0.961 . S
C759 H774 0.961 . S
C759 H775 0.961 . S
C760 C761 1.370 . S
C760 C762 1.363 . S
C760 H776 0.931 . S
C761 C760 1.370 . S
C761 C765 1.408 . S
C762 C760 1.363 . S
C762 C763 1.370 . S
C762 C766 1.524 . S
C763 C755 1.503 . S
C763 C762 1.370 . S
C763 C764 1.403 . S
C764 C763 1.403 . S
C764 C765 1.404 . S
C764 C767 1.539 . S
C765 C761 1.408 . S
C765 C764 1.404 . S
C765 H777 0.930 . S
C766 C762 1.524 . S
C766 H778 0.956 . S
C766 H779 0.961 . S
C766 H780 0.961 . S
C767 C764 1.539 . S
C767 H781 0.958 . S
C767 H782 0.961 . S
C767 H783 0.960 . S
H768 C752 0.931 . S
H769 C757 0.929 . S
H770 C758 0.960 . S
H771 C758 0.962 . S
H772 C758 0.960 . S
H773 C759 0.961 . S
H774 C759 0.961 . S
H775 C759 0.961 . S
H776 C760 0.931 . S
H777 C765 0.930 . S
H778 C766 0.956 . S
H779 C766 0.961 . S
H780 C766 0.961 . S
H781 C767 0.958 . S
H782 C767 0.961 . S
H783 C767 0.960 . S
C784 C785 1.391 . S
C784 C786 1.394 . S
C784 H800 0.931 . S
C785 C784 1.391 . S
C785 C789 1.376 . S
C786 C784 1.394 . S
C786 C787 1.369 . S
C786 C790 1.531 . S
C787 C786 1.369 . S
C787 C788 1.410 . S
C787 C795 1.503 . S
C788 C787 1.410 . S
C788 C789 1.392 . S
C788 C791 1.511 . S
C789 C785 1.376 . S
C789 C788 1.392 . S
C789 H801 0.929 . S
C790 C786 1.531 . S
C790 H802 0.960 . S
C790 H803 0.962 . S
C790 H804 0.960 . S
C791 C788 1.511 . S
C791 H805 0.961 . S
C791 H806 0.961 . S
C791 H807 0.961 . S
C792 C793 1.370 . S
C792 C794 1.363 . S
C792 H808 0.931 . S
C793 C792 1.370 . S
C793 C797 1.408 . S
C794 C792 1.363 . S
C794 C795 1.370 . S
C794 C798 1.524 . S
C795 C787 1.503 . S
C795 C794 1.370 . S
C795 C796 1.403 . S
C796 C795 1.403 . S
C796 C797 1.404 . S
C796 C799 1.539 . S
C797 C793 1.408 . S
C797 C796 1.404 . S
C797 H809 0.930 . S
C798 C794 1.524 . S
C798 H810 0.956 . S
C798 H811 0.961 . S
C798 H812 0.961 . S
C799 C796 1.539 . S
C799 H813 0.958 . S
C799 H814 0.961 . S
C799 H815 0.960 . S
H800 C784 0.931 . S
H801 C789 0.929 . S
H802 C790 0.960 . S
H803 C790 0.962 . S
H804 C790 0.960 . S
H805 C791 0.961 . S
H806 C791 0.961 . S
H807 C791 0.961 . S
H808 C792 0.931 . S
H809 C797 0.930 . S
H810 C798 0.956 . S
H811 C798 0.961 . S
H812 C798 0.961 . S
H813 C799 0.958 . S
H814 C799 0.961 . S
H815 C799 0.960 . S
C816 C817 1.391 . S
C816 C818 1.394 . S
C816 H832 0.931 . S
C817 C816 1.391 . S
C817 C821 1.376 . S
C818 C816 1.394 . S
C818 C819 1.369 . S
C818 C822 1.531 . S
C819 C818 1.369 . S
C819 C820 1.410 . S
C819 C827 1.503 . S
C820 C819 1.410 . S
C820 C821 1.392 . S
C820 C823 1.511 . S
C821 C817 1.376 . S
C821 C820 1.392 . S
C821 H833 0.929 . S
C822 C818 1.531 . S
C822 H834 0.960 . S
C822 H835 0.962 . S
C822 H836 0.960 . S
C823 C820 1.511 . S
C823 H837 0.961 . S
C823 H838 0.961 . S
C823 H839 0.961 . S
C824 C825 1.370 . S
C824 C826 1.363 . S
C824 H840 0.931 . S
C825 C824 1.370 . S
C825 C829 1.408 . S
C826 C824 1.363 . S
C826 C827 1.370 . S
C826 C830 1.524 . S
C827 C819 1.503 . S
C827 C826 1.370 . S
C827 C828 1.403 . S
C828 C827 1.403 . S
C828 C829 1.404 . S
C828 C831 1.539 . S
C829 C825 1.408 . S
C829 C828 1.404 . S
C829 H841 0.930 . S
C830 C826 1.524 . S
C830 H842 0.956 . S
C830 H843 0.961 . S
C830 H844 0.961 . S
C831 C828 1.539 . S
C831 H845 0.958 . S
C831 H846 0.961 . S
C831 H847 0.960 . S
H832 C816 0.931 . S
H833 C821 0.929 . S
H834 C822 0.960 . S
H835 C822 0.962 . S
H836 C822 0.960 . S
H837 C823 0.961 . S
H838 C823 0.961 . S
H839 C823 0.961 . S
H840 C824 0.931 . S
H841 C829 0.930 . S
H842 C830 0.956 . S
H843 C830 0.961 . S
H844 C830 0.961 . S
H845 C831 0.958 . S
H846 C831 0.961 . S
H847 C831 0.960 . S
C848 C849 1.391 . S
C848 C850 1.394 . S
C848 H864 0.931 . S
C849 C848 1.391 . S
C849 C853 1.376 . S
C850 C848 1.394 . S
C850 C851 1.369 . S
C850 C854 1.531 . S
C851 C850 1.369 . S
C851 C852 1.410 . S
C851 C859 1.503 . S
C852 C851 1.410 . S
C852 C853 1.392 . S
C852 C855 1.511 . S
C853 C849 1.376 . S
C853 C852 1.392 . S
C853 H865 0.929 . S
C854 C850 1.531 . S
C854 H866 0.960 . S
C854 H867 0.962 . S
C854 H868 0.960 . S
C855 C852 1.511 . S
C855 H869 0.961 . S
C855 H870 0.961 . S
C855 H871 0.961 . S
C856 C857 1.370 . S
C856 C858 1.363 . S
C856 H872 0.931 . S
C857 C856 1.370 . S
C857 C861 1.408 . S
C858 C856 1.363 . S
C858 C859 1.370 . S
C858 C862 1.524 . S
C859 C851 1.503 . S
C859 C858 1.370 . S
C859 C860 1.403 . S
C860 C859 1.403 . S
C860 C861 1.404 . S
C860 C863 1.539 . S
C861 C857 1.408 . S
C861 C860 1.404 . S
C861 H873 0.930 . S
C862 C858 1.524 . S
C862 H874 0.956 . S
C862 H875 0.961 . S
C862 H876 0.961 . S
C863 C860 1.539 . S
C863 H877 0.958 . S
C863 H878 0.961 . S
C863 H879 0.960 . S
H864 C848 0.931 . S
H865 C853 0.929 . S
H866 C854 0.960 . S
H867 C854 0.962 . S
H868 C854 0.960 . S
H869 C855 0.961 . S
H870 C855 0.961 . S
H871 C855 0.961 . S
H872 C856 0.931 . S
H873 C861 0.930 . S
H874 C862 0.956 . S
H875 C862 0.961 . S
H876 C862 0.961 . S
H877 C863 0.958 . S
H878 C863 0.961 . S
H879 C863 0.960 . S
C880 C881 1.391 . S
C880 C882 1.394 . S
C880 H896 0.931 . S
C881 C880 1.391 . S
C881 C885 1.376 . S
C882 C880 1.394 . S
C882 C883 1.369 . S
C882 C886 1.531 . S
C883 C882 1.369 . S
C883 C884 1.410 . S
C883 C891 1.503 . S
C884 C883 1.410 . S
C884 C885 1.392 . S
C884 C887 1.511 . S
C885 C881 1.376 . S
C885 C884 1.392 . S
C885 H897 0.929 . S
C886 C882 1.531 . S
C886 H898 0.960 . S
C886 H899 0.962 . S
C886 H900 0.960 . S
C887 C884 1.511 . S
C887 H901 0.961 . S
C887 H902 0.961 . S
C887 H903 0.961 . S
C888 C889 1.370 . S
C888 C890 1.363 . S
C888 H904 0.931 . S
C889 C888 1.370 . S
C889 C893 1.408 . S
C890 C888 1.363 . S
C890 C891 1.370 . S
C890 C894 1.524 . S
C891 C883 1.503 . S
C891 C890 1.370 . S
C891 C892 1.403 . S
C892 C891 1.403 . S
C892 C893 1.404 . S
C892 C895 1.539 . S
C893 C889 1.408 . S
C893 C892 1.404 . S
C893 H905 0.930 . S
C894 C890 1.524 . S
C894 H906 0.956 . S
C894 H907 0.961 . S
C894 H908 0.961 . S
C895 C892 1.539 . S
C895 H909 0.958 . S
C895 H910 0.961 . S
C895 H911 0.960 . S
H896 C880 0.931 . S
H897 C885 0.929 . S
H898 C886 0.960 . S
H899 C886 0.962 . S
H900 C886 0.960 . S
H901 C887 0.961 . S
H902 C887 0.961 . S
H903 C887 0.961 . S
H904 C888 0.931 . S
H905 C893 0.930 . S
H906 C894 0.956 . S
H907 C894 0.961 . S
H908 C894 0.961 . S
H909 C895 0.958 . S
H910 C895 0.961 . S
H911 C895 0.960 . S
C912 C913 1.391 . S
C912 C914 1.394 . S
C912 H928 0.931 . S
C913 C912 1.391 . S
C913 C917 1.376 . S
C914 C912 1.394 . S
C914 C915 1.369 . S
C914 C918 1.531 . S
C915 C914 1.369 . S
C915 C916 1.410 . S
C915 C923 1.503 . S
C916 C915 1.410 . S
C916 C917 1.392 . S
C916 C919 1.511 . S
C917 C913 1.376 . S
C917 C916 1.392 . S
C917 H929 0.929 . S
C918 C914 1.531 . S
C918 H930 0.960 . S
C918 H931 0.962 . S
C918 H932 0.960 . S
C919 C916 1.511 . S
C919 H933 0.961 . S
C919 H934 0.961 . S
C919 H935 0.961 . S
C920 C921 1.370 . S
C920 C922 1.363 . S
C920 H936 0.931 . S
C921 C920 1.370 . S
C921 C925 1.408 . S
C922 C920 1.363 . S
C922 C923 1.370 . S
C922 C926 1.524 . S
C923 C915 1.503 . S
C923 C922 1.370 . S
C923 C924 1.403 . S
C924 C923 1.403 . S
C924 C925 1.404 . S
C924 C927 1.539 . S
C925 C921 1.408 . S
C925 C924 1.404 . S
C925 H937 0.930 . S
C926 C922 1.524 . S
C926 H938 0.956 . S
C926 H939 0.961 . S
C926 H940 0.961 . S
C927 C924 1.539 . S
C927 H941 0.958 . S
C927 H942 0.961 . S
C927 H943 0.960 . S
H928 C912 0.931 . S
H929 C917 0.929 . S
H930 C918 0.960 . S
H931 C918 0.962 . S
H932 C918 0.960 . S
H933 C919 0.961 . S
H934 C919 0.961 . S
H935 C919 0.961 . S
H936 C920 0.931 . S
H937 C925 0.930 . S
H938 C926 0.956 . S
H939 C926 0.961 . S
H940 C926 0.961 . S
H941 C927 0.958 . S
H942 C927 0.961 . S
H943 C927 0.960 . S
C944 C945 1.391 . S
C944 C946 1.394 . S
C944 H960 0.931 . S
C945 C944 1.391 . S
C945 C949 1.376 . S
C946 C944 1.394 . S
C946 C947 1.369 . S
C946 C950 1.531 . S
C947 C946 1.369 . S
C947 C948 1.410 . S
C947 C955 1.503 . S
C948 C947 1.410 . S
C948 C949 1.392 . S
C948 C951 1.511 . S
C949 C945 1.376 . S
C949 C948 1.392 . S
C949 H961 0.929 . S
C950 C946 1.531 . S
C950 H962 0.960 . S
C950 H963 0.962 . S
C950 H964 0.960 . S
C951 C948 1.511 . S
C951 H965 0.961 . S
C951 H966 0.961 . S
C951 H967 0.961 . S
C952 C953 1.370 . S
C952 C954 1.363 . S
C952 H968 0.931 . S
C953 C952 1.370 . S
C953 C957 1.408 . S
C954 C952 1.363 . S
C954 C955 1.370 . S
C954 C958 1.524 . S
C955 C947 1.503 . S
C955 C954 1.370 . S
C955 C956 1.403 . S
C956 C955 1.403 . S
C956 C957 1.404 . S
C956 C959 1.539 . S
C957 C953 1.408 . S
C957 C956 1.404 . S
C957 H969 0.930 . S
C958 C954 1.524 . S
C958 H970 0.956 . S
C958 H971 0.961 . S
C958 H972 0.961 . S
C959 C956 1.539 . S
C959 H973 0.958 . S
C959 H974 0.961 . S
C959 H975 0.960 . S
H960 C944 0.931 . S
H961 C949 0.929 . S
H962 C950 0.960 . S
H963 C950 0.962 . S
H964 C950 0.960 . S
H965 C951 0.961 . S
H966 C951 0.961 . S
H967 C951 0.961 . S
H968 C952 0.931 . S
H969 C957 0.930 . S
H970 C958 0.956 . S
H971 C958 0.961 . S
H972 C958 0.961 . S
H973 C959 0.958 . S
H974 C959 0.961 . S
H975 C959 0.960 . S
C976 C977 1.391 . S
C976 C978 1.394 . S
C976 H992 0.931 . S
C977 C976 1.391 . S
C977 C981 1.376 . S
C978 C976 1.394 . S
C978 C979 1.369 . S
C978 C982 1.531 . S
C979 C978 1.369 . S
C979 C980 1.410 . S
C979 C987 1.503 . S
C980 C979 1.410 . S
C980 C981 1.392 . S
C980 C983 1.511 . S
C981 C977 1.376 . S
C981 C980 1.392 . S
C981 H993 0.929 . S
C982 C978 1.531 . S
C982 H994 0.960 . S
C982 H995 0.962 . S
C982 H996 0.960 . S
C983 C980 1.511 . S
C983 H997 0.961 . S
C983 H998 0.961 . S
C983 H999 0.961 . S
C984 C985 1.370 . S
C984 C986 1.363 . S
C984 H1000 0.931 . S
C985 C984 1.370 . S
C985 C989 1.408 . S
C986 C984 1.363 . S
C986 C987 1.370 . S
C986 C990 1.524 . S
C987 C979 1.503 . S
C987 C986 1.370 . S
C987 C988 1.403 . S
C988 C987 1.403 . S
C988 C989 1.404 . S
C988 C991 1.539 . S
C989 C985 1.408 . S
C989 C988 1.404 . S
C989 H1001 0.930 . S
C990 C986 1.524 . S
C990 H1002 0.956 . S
C990 H1003 0.961 . S
C990 H1004 0.961 . S
C991 C988 1.539 . S
C991 H1005 0.958 . S
C991 H1006 0.961 . S
C991 H1007 0.960 . S
H992 C976 0.931 . S
H993 C981 0.929 . S
H994 C982 0.960 . S
H995 C982 0.962 . S
H996 C982 0.960 . S
H997 C983 0.961 . S
H998 C983 0.961 . S
H999 C983 0.961 . S
H1000 C984 0.931 . S
H1001 C989 0.930 . S
H1002 C990 0.956 . S
H1003 C990 0.961 . S
H1004 C990 0.961 . S
H1005 C991 0.958 . S
H1006 C991 0.961 . S
H1007 C991 0.960 . S
C1008 C1009 1.391 . S
C1008 C1010 1.394 . S
C1008 H1024 0.931 . S
C1009 C1008 1.391 . S
C1009 C1013 1.376 . S
C1010 C1008 1.394 . S
C1010 C1011 1.369 . S
C1010 C1014 1.531 . S
C1011 C1010 1.369 . S
C1011 C1012 1.410 . S
C1011 C1019 1.503 . S
C1012 C1011 1.410 . S
C1012 C1013 1.392 . S
C1012 C1015 1.511 . S
C1013 C1009 1.376 . S
C1013 C1012 1.392 . S
C1013 H1025 0.929 . S
C1014 C1010 1.531 . S
C1014 H1026 0.960 . S
C1014 H1027 0.962 . S
C1014 H1028 0.960 . S
C1015 C1012 1.511 . S
C1015 H1029 0.961 . S
C1015 H1030 0.961 . S
C1015 H1031 0.961 . S
C1016 C1017 1.370 . S
C1016 C1018 1.363 . S
C1016 H1032 0.931 . S
C1017 C1016 1.370 . S
C1017 C1021 1.408 . S
C1018 C1016 1.363 . S
C1018 C1019 1.370 . S
C1018 C1022 1.524 . S
C1019 C1011 1.503 . S
C1019 C1018 1.370 . S
C1019 C1020 1.403 . S
C1020 C1019 1.403 . S
C1020 C1021 1.404 . S
C1020 C1023 1.539 . S
C1021 C1017 1.408 . S
C1021 C1020 1.404 . S
C1021 H1033 0.930 . S
C1022 C1018 1.524 . S
C1022 H1034 0.956 . S
C1022 H1035 0.961 . S
C1022 H1036 0.961 . S
C1023 C1020 1.539 . S
C1023 H1037 0.958 . S
C1023 H1038 0.961 . S
C1023 H1039 0.960 . S
H1024 C1008 0.931 . S
H1025 C1013 0.929 . S
H1026 C1014 0.960 . S
H1027 C1014 0.962 . S
H1028 C1014 0.960 . S
H1029 C1015 0.961 . S
H1030 C1015 0.961 . S
H1031 C1015 0.961 . S
H1032 C1016 0.931 . S
H1033 C1021 0.930 . S
H1034 C1022 0.956 . S
H1035 C1022 0.961 . S
H1036 C1022 0.961 . S
H1037 C1023 0.958 . S
H1038 C1023 0.961 . S
H1039 C1023 0.960 . S
C1040 C1041 1.391 . S
C1040 C1042 1.394 . S
C1040 H1056 0.931 . S
C1041 C1040 1.391 . S
C1041 C1045 1.376 . S
C1042 C1040 1.394 . S
C1042 C1043 1.369 . S
C1042 C1046 1.531 . S
C1043 C1042 1.369 . S
C1043 C1044 1.410 . S
C1043 C1051 1.503 . S
C1044 C1043 1.410 . S
C1044 C1045 1.392 . S
C1044 C1047 1.511 . S
C1045 C1041 1.376 . S
C1045 C1044 1.392 . S
C1045 H1057 0.929 . S
C1046 C1042 1.531 . S
C1046 H1058 0.960 . S
C1046 H1059 0.962 . S
C1046 H1060 0.960 . S
C1047 C1044 1.511 . S
C1047 H1061 0.961 . S
C1047 H1062 0.961 . S
C1047 H1063 0.961 . S
C1048 C1049 1.370 . S
C1048 C1050 1.363 . S
C1048 H1064 0.931 . S
C1049 C1048 1.370 . S
C1049 C1053 1.408 . S
C1050 C1048 1.363 . S
C1050 C1051 1.370 . S
C1050 C1054 1.524 . S
C1051 C1043 1.503 . S
C1051 C1050 1.370 . S
C1051 C1052 1.403 . S
C1052 C1051 1.403 . S
C1052 C1053 1.404 . S
C1052 C1055 1.539 . S
C1053 C1049 1.408 . S
C1053 C1052 1.404 . S
C1053 H1065 0.930 . S
C1054 C1050 1.524 . S
C1054 H1066 0.956 . S
C1054 H1067 0.961 . S
C1054 H1068 0.961 . S
C1055 C1052 1.539 . S
C1055 H1069 0.958 . S
C1055 H1070 0.961 . S
C1055 H1071 0.960 . S
H1056 C1040 0.931 . S
H1057 C1045 0.929 . S
H1058 C1046 0.960 . S
H1059 C1046 0.962 . S
H1060 C1046 0.960 . S
H1061 C1047 0.961 . S
H1062 C1047 0.961 . S
H1063 C1047 0.961 . S
H1064 C1048 0.931 . S
H1065 C1053 0.930 . S
H1066 C1054 0.956 . S
H1067 C1054 0.961 . S
H1068 C1054 0.961 . S
H1069 C1055 0.958 . S
H1070 C1055 0.961 . S
H1071 C1055 0.960 . S
C1072 C1073 1.391 . S
C1072 C1074 1.394 . S
C1072 H1088 0.931 . S
C1073 C1072 1.391 . S
C1073 C1077 1.376 . S
C1074 C1072 1.394 . S
C1074 C1075 1.369 . S
C1074 C1078 1.531 . S
C1075 C1074 1.369 . S
C1075 C1076 1.410 . S
C1075 C1083 1.503 . S
C1076 C1075 1.410 . S
C1076 C1077 1.392 . S
C1076 C1079 1.511 . S
C1077 C1073 1.376 . S
C1077 C1076 1.392 . S
C1077 H1089 0.929 . S
C1078 C1074 1.531 . S
C1078 H1090 0.960 . S
C1078 H1091 0.962 . S
C1078 H1092 0.960 . S
C1079 C1076 1.511 . S
C1079 H1093 0.961 . S
C1079 H1094 0.961 . S
C1079 H1095 0.961 . S
C1080 C1081 1.370 . S
C1080 C1082 1.363 . S
C1080 H1096 0.931 . S
C1081 C1080 1.370 . S
C1081 C1085 1.408 . S
C1082 C1080 1.363 . S
C1082 C1083 1.370 . S
C1082 C1086 1.524 . S
C1083 C1075 1.503 . S
C1083 C1082 1.370 . S
C1083 C1084 1.403 . S
C1084 C1083 1.403 . S
C1084 C1085 1.404 . S
C1084 C1087 1.539 . S
C1085 C1081 1.408 . S
C1085 C1084 1.404 . S
C1085 H1097 0.930 . S
C1086 C1082 1.524 . S
C1086 H1098 0.956 . S
C1086 H1099 0.961 . S
C1086 H1100 0.961 . S
C1087 C1084 1.539 . S
C1087 H1101 0.958 . S
C1087 H1102 0.961 . S
C1087 H1103 0.960 . S
H1088 C1072 0.931 . S
H1089 C1077 0.929 . S
H1090 C1078 0.960 . S
H1091 C1078 0.962 . S
H1092 C1078 0.960 . S
H1093 C1079 0.961 . S
H1094 C1079 0.961 . S
H1095 C1079 0.961 . S
H1096 C1080 0.931 . S
H1097 C1085 0.930 . S
H1098 C1086 0.956 . S
H1099 C1086 0.961 . S
H1100 C1086 0.961 . S
H1101 C1087 0.958 . S
H1102 C1087 0.961 . S
H1103 C1087 0.960 . S
C1104 C1105 1.391 . S
C1104 C1106 1.394 . S
C1104 H1120 0.931 . S
C1105 C1104 1.391 . S
C1105 C1109 1.376 . S
C1106 C1104 1.394 . S
C1106 C1107 1.369 . S
C1106 C1110 1.531 . S
C1107 C1106 1.369 . S
C1107 C1108 1.410 . S
C1107 C1115 1.503 1_554 S
C1108 C1107 1.410 . S
C1108 C1109 1.392 . S
C1108 C1111 1.511 . S
C1109 C1105 1.376 . S
C1109 C1108 1.392 . S
C1109 H1121 0.929 . S
C1110 C1106 1.531 . S
C1110 H1122 0.960 1_554 S
C1110 H1123 0.962 . S
C1110 H1124 0.960 . S
C1111 C1108 1.511 . S
C1111 H1125 0.961 . S
C1111 H1126 0.961 1_554 S
C1111 H1127 0.961 . S
C1112 C1113 1.370 . S
C1112 C1114 1.363 . S
C1112 H1128 0.931 . S
C1113 C1112 1.370 . S
C1113 C1117 1.408 . S
C1114 C1112 1.363 . S
C1114 C1115 1.370 . S
C1114 C1118 1.524 . S
C1115 C1107 1.503 1_556 S
C1115 C1114 1.370 . S
C1115 C1116 1.403 . S
C1116 C1115 1.403 . S
C1116 C1117 1.404 . S
C1116 C1119 1.539 . S
C1117 C1113 1.408 . S
C1117 C1116 1.404 . S
C1117 H1129 0.930 . S
C1118 C1114 1.524 . S
C1118 H1130 0.956 . S
C1118 H1131 0.961 1_556 S
C1118 H1132 0.961 . S
C1119 C1116 1.539 . S
C1119 H1133 0.958 . S
C1119 H1134 0.961 . S
C1119 H1135 0.972 . S
H1120 C1104 0.931 . S
H1121 C1109 0.929 . S
H1122 C1110 0.960 1_556 S
H1123 C1110 0.962 . S
H1124 C1110 0.960 . S
H1125 C1111 0.961 . S
H1126 C1111 0.961 1_556 S
H1127 C1111 0.961 . S
H1128 C1112 0.931 . S
H1129 C1117 0.930 . S
H1130 C1118 0.956 . S
H1131 C1118 0.961 1_554 S
H1132 C1118 0.961 . S
H1133 C1119 0.958 . S
H1134 C1119 0.961 . S
H1135 C1119 0.972 . S
C1136 C1137 1.391 . S
C1136 C1138 1.394 . S
C1136 H1152 0.931 . S
C1137 C1136 1.391 . S
C1137 C1141 1.376 . S
C1138 C1136 1.394 . S
C1138 C1139 1.369 . S
C1138 C1142 1.531 . S
C1139 C1138 1.369 . S
C1139 C1140 1.410 . S
C1139 C1147 1.503 1_556 S
C1140 C1139 1.410 . S
C1140 C1141 1.392 . S
C1140 C1143 1.511 . S
C1141 C1137 1.376 . S
C1141 C1140 1.392 . S
C1141 H1153 0.929 . S
C1142 C1138 1.531 . S
C1142 H1154 0.960 1_556 S
C1142 H1155 0.962 . S
C1142 H1156 0.960 . S
C1143 C1140 1.511 . S
C1143 H1157 0.961 . S
C1143 H1158 0.961 1_556 S
C1143 H1159 0.961 . S
C1144 C1145 1.370 . S
C1144 C1146 1.363 . S
C1144 H1160 0.931 . S
C1145 C1144 1.370 . S
C1145 C1149 1.408 . S
C1146 C1144 1.363 . S
C1146 C1147 1.370 . S
C1146 C1150 1.524 . S
C1147 C1139 1.503 1_554 S
C1147 C1146 1.370 . S
C1147 C1148 1.403 . S
C1148 C1147 1.403 . S
C1148 C1149 1.404 . S
C1148 C1151 1.539 . S
C1149 C1145 1.408 . S
C1149 C1148 1.404 . S
C1149 H1161 0.930 . S
C1150 C1146 1.524 . S
C1150 H1162 0.956 . S
C1150 H1163 0.961 1_554 S
C1150 H1164 0.961 . S
C1151 C1148 1.539 . S
C1151 H1165 0.958 . S
C1151 H1166 0.961 . S
C1151 H1167 0.972 . S
H1152 C1136 0.931 . S
H1153 C1141 0.929 . S
H1154 C1142 0.960 1_554 S
H1155 C1142 0.962 . S
H1156 C1142 0.960 . S
H1157 C1143 0.961 . S
H1158 C1143 0.961 1_554 S
H1159 C1143 0.961 . S
H1160 C1144 0.931 . S
H1161 C1149 0.930 . S
H1162 C1150 0.956 . S
H1163 C1150 0.961 1_556 S
H1164 C1150 0.961 . S
H1165 C1151 0.958 . S
H1166 C1151 0.961 . S
H1167 C1151 0.972 . S
C1168 C1169 1.391 . S
C1168 C1170 1.394 . S
C1168 H1184 0.931 . S
C1169 C1168 1.391 . S
C1169 C1173 1.376 . S
C1170 C1168 1.394 . S
C1170 C1171 1.369 . S
C1170 C1174 1.531 . S
C1171 C1170 1.369 . S
C1171 C1172 1.410 . S
C1171 C1179 1.503 1_556 S
C1172 C1171 1.410 . S
C1172 C1173 1.392 . S
C1172 C1175 1.511 . S
C1173 C1169 1.376 . S
C1173 C1172 1.392 . S
C1173 H1185 0.929 . S
C1174 C1170 1.531 . S
C1174 H1186 0.960 1_556 S
C1174 H1187 0.962 . S
C1174 H1188 0.960 . S
C1175 C1172 1.511 . S
C1175 H1189 0.961 . S
C1175 H1190 0.961 1_556 S
C1175 H1191 0.961 . S
C1176 C1177 1.370 . S
C1176 C1178 1.363 . S
C1176 H1192 0.931 . S
C1177 C1176 1.370 . S
C1177 C1181 1.408 . S
C1178 C1176 1.363 . S
C1178 C1179 1.370 . S
C1178 C1182 1.524 . S
C1179 C1171 1.503 1_554 S
C1179 C1178 1.370 . S
C1179 C1180 1.403 . S
C1180 C1179 1.403 . S
C1180 C1181 1.404 . S
C1180 C1183 1.539 . S
C1181 C1177 1.408 . S
C1181 C1180 1.404 . S
C1181 H1193 0.930 . S
C1182 C1178 1.524 . S
C1182 H1194 0.956 . S
C1182 H1195 0.961 1_554 S
C1182 H1196 0.961 . S
C1183 C1180 1.539 . S
C1183 H1197 0.958 . S
C1183 H1198 0.961 . S
C1183 H1199 0.972 . S
H1184 C1168 0.931 . S
H1185 C1173 0.929 . S
H1186 C1174 0.960 1_554 S
H1187 C1174 0.962 . S
H1188 C1174 0.960 . S
H1189 C1175 0.961 . S
H1190 C1175 0.961 1_554 S
H1191 C1175 0.961 . S
H1192 C1176 0.931 . S
H1193 C1181 0.930 . S
H1194 C1182 0.956 . S
H1195 C1182 0.961 1_556 S
H1196 C1182 0.961 . S
H1197 C1183 0.958 . S
H1198 C1183 0.961 . S
H1199 C1183 0.972 . S
C1200 C1201 1.391 . S
C1200 C1202 1.394 . S
C1200 H1216 0.931 . S
C1201 C1200 1.391 . S
C1201 C1205 1.376 . S
C1202 C1200 1.394 . S
C1202 C1203 1.369 . S
C1202 C1206 1.531 . S
C1203 C1202 1.369 . S
C1203 C1204 1.410 . S
C1203 C1211 1.503 1_554 S
C1204 C1203 1.410 . S
C1204 C1205 1.392 . S
C1204 C1207 1.511 . S
C1205 C1201 1.376 . S
C1205 C1204 1.392 . S
C1205 H1217 0.929 . S
C1206 C1202 1.531 . S
C1206 H1218 0.960 1_554 S
C1206 H1219 0.962 . S
C1206 H1220 0.960 . S
C1207 C1204 1.511 . S
C1207 H1221 0.961 . S
C1207 H1222 0.961 1_554 S
C1207 H1223 0.961 . S
C1208 C1209 1.370 . S
C1208 C1210 1.363 . S
C1208 H1224 0.931 . S
C1209 C1208 1.370 . S
C1209 C1213 1.408 . S
C1210 C1208 1.363 . S
C1210 C1211 1.370 . S
C1210 C1214 1.524 . S
C1211 C1203 1.503 1_556 S
C1211 C1210 1.370 . S
C1211 C1212 1.403 . S
C1212 C1211 1.403 . S
C1212 C1213 1.404 . S
C1212 C1215 1.539 . S
C1213 C1209 1.408 . S
C1213 C1212 1.404 . S
C1213 H1225 0.930 . S
C1214 C1210 1.524 . S
C1214 H1226 0.956 . S
C1214 H1227 0.961 1_556 S
C1214 H1228 0.961 . S
C1215 C1212 1.539 . S
C1215 H1229 0.958 . S
C1215 H1230 0.961 . S
C1215 H1231 0.972 . S
H1216 C1200 0.931 . S
H1217 C1205 0.929 . S
H1218 C1206 0.960 1_556 S
H1219 C1206 0.962 . S
H1220 C1206 0.960 . S
H1221 C1207 0.961 . S
H1222 C1207 0.961 1_556 S
H1223 C1207 0.961 . S
H1224 C1208 0.931 . S
H1225 C1213 0.930 . S
H1226 C1214 0.956 . S
H1227 C1214 0.961 1_554 S
H1228 C1214 0.961 . S
H1229 C1215 0.958 . S
H1230 C1215 0.961 . S
H1231 C1215 0.972 . S
C1232 C1233 1.391 . S
C1232 C1234 1.394 . S
C1232 H1248 0.931 . S
C1233 C1232 1.391 . S
C1233 C1237 1.376 . S
C1234 C1232 1.394 . S
C1234 C1235 1.369 . S
C1234 C1238 1.531 . S
C1235 C1234 1.369 . S
C1235 C1236 1.410 . S
C1235 C1243 1.503 1_554 S
C1236 C1235 1.410 . S
C1236 C1237 1.392 . S
C1236 C1239 1.511 . S
C1237 C1233 1.376 . S
C1237 C1236 1.392 . S
C1237 H1249 0.929 . S
C1238 C1234 1.531 . S
C1238 H1250 0.960 1_554 S
C1238 H1251 0.962 . S
C1238 H1252 0.960 . S
C1239 C1236 1.511 . S
C1239 H1253 0.961 . S
C1239 H1254 0.961 1_554 S
C1239 H1255 0.961 . S
C1240 C1241 1.370 . S
C1240 C1242 1.363 . S
C1240 H1256 0.931 . S
C1241 C1240 1.370 . S
C1241 C1245 1.408 . S
C1242 C1240 1.363 . S
C1242 C1243 1.370 . S
C1242 C1246 1.524 . S
C1243 C1235 1.503 1_556 S
C1243 C1242 1.370 . S
C1243 C1244 1.403 . S
C1244 C1243 1.403 . S
C1244 C1245 1.404 . S
C1244 C1247 1.539 . S
C1245 C1241 1.408 . S
C1245 C1244 1.404 . S
C1245 H1257 0.930 . S
C1246 C1242 1.524 . S
C1246 H1258 0.956 . S
C1246 H1259 0.961 1_556 S
C1246 H1260 0.961 . S
C1247 C1244 1.539 . S
C1247 H1261 0.958 . S
C1247 H1262 0.961 . S
C1247 H1263 0.972 . S
H1248 C1232 0.931 . S
H1249 C1237 0.929 . S
H1250 C1238 0.960 1_556 S
H1251 C1238 0.962 . S
H1252 C1238 0.960 . S
H1253 C1239 0.961 . S
H1254 C1239 0.961 1_556 S
H1255 C1239 0.961 . S
H1256 C1240 0.931 . S
H1257 C1245 0.930 . S
H1258 C1246 0.956 . S
H1259 C1246 0.961 1_554 S
H1260 C1246 0.961 . S
H1261 C1247 0.958 . S
H1262 C1247 0.961 . S
H1263 C1247 0.972 . S
C1264 C1265 1.391 . S
C1264 C1266 1.394 . S
C1264 H1280 0.931 . S
C1265 C1264 1.391 . S
C1265 C1269 1.376 . S
C1266 C1264 1.394 . S
C1266 C1267 1.369 . S
C1266 C1270 1.531 . S
C1267 C1266 1.369 . S
C1267 C1268 1.410 . S
C1267 C1275 1.503 1_556 S
C1268 C1267 1.410 . S
C1268 C1269 1.392 . S
C1268 C1271 1.511 . S
C1269 C1265 1.376 . S
C1269 C1268 1.392 . S
C1269 H1281 0.929 . S
C1270 C1266 1.531 . S
C1270 H1282 0.960 1_556 S
C1270 H1283 0.962 . S
C1270 H1284 0.960 . S
C1271 C1268 1.511 . S
C1271 H1285 0.961 . S
C1271 H1286 0.961 1_556 S
C1271 H1287 0.961 . S
C1272 C1273 1.370 . S
C1272 C1274 1.363 . S
C1272 H1288 0.931 . S
C1273 C1272 1.370 . S
C1273 C1277 1.408 . S
C1274 C1272 1.363 . S
C1274 C1275 1.370 . S
C1274 C1278 1.524 . S
C1275 C1267 1.503 1_554 S
C1275 C1274 1.370 . S
C1275 C1276 1.403 . S
C1276 C1275 1.403 . S
C1276 C1277 1.404 . S
C1276 C1279 1.539 . S
C1277 C1273 1.408 . S
C1277 C1276 1.404 . S
C1277 H1289 0.930 . S
C1278 C1274 1.524 . S
C1278 H1290 0.956 . S
C1278 H1291 0.961 1_554 S
C1278 H1292 0.961 . S
C1279 C1276 1.539 . S
C1279 H1293 0.958 . S
C1279 H1294 0.961 . S
C1279 H1295 0.972 . S
H1280 C1264 0.931 . S
H1281 C1269 0.929 . S
H1282 C1270 0.960 1_554 S
H1283 C1270 0.962 . S
H1284 C1270 0.960 . S
H1285 C1271 0.961 . S
H1286 C1271 0.961 1_554 S
H1287 C1271 0.961 . S
H1288 C1272 0.931 . S
H1289 C1277 0.930 . S
H1290 C1278 0.956 . S
H1291 C1278 0.961 1_556 S
H1292 C1278 0.961 . S
H1293 C1279 0.958 . S
H1294 C1279 0.961 . S
H1295 C1279 0.972 . S
C1296 C1297 1.391 . S
C1296 C1298 1.394 . S
C1296 H1312 0.931 . S
C1297 C1296 1.391 . S
C1297 C1301 1.376 . S
C1298 C1296 1.394 . S
C1298 C1299 1.369 . S
C1298 C1302 1.531 . S
C1299 C1298 1.369 . S
C1299 C1300 1.410 . S
C1299 C1307 1.503 . S
C1300 C1299 1.410 . S
C1300 C1301 1.392 . S
C1300 C1303 1.511 . S
C1301 C1297 1.376 . S
C1301 C1300 1.392 . S
C1301 H1313 0.929 . S
C1302 C1298 1.531 . S
C1302 H1314 0.960 . S
C1302 H1315 0.962 . S
C1302 H1316 0.960 . S
C1303 C1300 1.511 . S
C1303 H1317 0.961 . S
C1303 H1318 0.961 . S
C1303 H1319 0.961 . S
C1304 C1305 1.370 . S
C1304 C1306 1.363 . S
C1304 H1320 0.931 . S
C1305 C1304 1.370 . S
C1305 C1309 1.408 . S
C1306 C1304 1.363 . S
C1306 C1307 1.370 . S
C1306 C1310 1.524 . S
C1307 C1299 1.503 . S
C1307 C1306 1.370 . S
C1307 C1308 1.403 . S
C1308 C1307 1.403 . S
C1308 C1309 1.404 . S
C1308 C1311 1.539 . S
C1309 C1305 1.408 . S
C1309 C1308 1.404 . S
C1309 H1321 0.930 . S
C1310 C1306 1.524 . S
C1310 H1322 0.956 . S
C1310 H1323 0.961 . S
C1310 H1324 0.961 . S
C1311 C1308 1.539 . S
C1311 H1325 0.958 . S
C1311 H1326 0.961 . S
C1311 H1327 0.960 . S
H1312 C1296 0.931 . S
H1313 C1301 0.929 . S
H1314 C1302 0.960 . S
H1315 C1302 0.962 . S
H1316 C1302 0.960 . S
H1317 C1303 0.961 . S
H1318 C1303 0.961 . S
H1319 C1303 0.961 . S
H1320 C1304 0.931 . S
H1321 C1309 0.930 . S
H1322 C1310 0.956 . S
H1323 C1310 0.961 . S
H1324 C1310 0.961 . S
H1325 C1311 0.958 . S
H1326 C1311 0.961 . S
H1327 C1311 0.960 . S
C1328 C1329 1.391 . S
C1328 C1330 1.394 . S
C1328 H1344 0.931 . S
C1329 C1328 1.391 . S
C1329 C1333 1.376 . S
C1330 C1328 1.394 . S
C1330 C1331 1.369 . S
C1330 C1334 1.531 . S
C1331 C1330 1.369 . S
C1331 C1332 1.410 . S
C1331 C1339 1.503 . S
C1332 C1331 1.410 . S
C1332 C1333 1.392 . S
C1332 C1335 1.511 . S
C1333 C1329 1.376 . S
C1333 C1332 1.392 . S
C1333 H1345 0.929 . S
C1334 C1330 1.531 . S
C1334 H1346 0.960 . S
C1334 H1347 0.962 . S
C1334 H1348 0.960 . S
C1335 C1332 1.511 . S
C1335 H1349 0.961 . S
C1335 H1350 0.961 . S
C1335 H1351 0.961 . S
C1336 C1337 1.370 . S
C1336 C1338 1.363 . S
C1336 H1352 0.931 . S
C1337 C1336 1.370 . S
C1337 C1341 1.408 . S
C1338 C1336 1.363 . S
C1338 C1339 1.370 . S
C1338 C1342 1.524 . S
C1339 C1331 1.503 . S
C1339 C1338 1.370 . S
C1339 C1340 1.403 . S
C1340 C1339 1.403 . S
C1340 C1341 1.404 . S
C1340 C1343 1.539 . S
C1341 C1337 1.408 . S
C1341 C1340 1.404 . S
C1341 H1353 0.930 . S
C1342 C1338 1.524 . S
C1342 H1354 0.956 . S
C1342 H1355 0.961 . S
C1342 H1356 0.961 . S
C1343 C1340 1.539 . S
C1343 H1357 0.958 . S
C1343 H1358 0.961 . S
C1343 H1359 0.960 . S
H1344 C1328 0.931 . S
H1345 C1333 0.929 . S
H1346 C1334 0.960 . S
H1347 C1334 0.962 . S
H1348 C1334 0.960 . S
H1349 C1335 0.961 . S
H1350 C1335 0.961 . S
H1351 C1335 0.961 . S
H1352 C1336 0.931 . S
H1353 C1341 0.930 . S
H1354 C1342 0.956 . S
H1355 C1342 0.961 . S
H1356 C1342 0.961 . S
H1357 C1343 0.958 . S
H1358 C1343 0.961 . S
H1359 C1343 0.960 . S
C1360 C1361 1.391 . S
C1360 C1362 1.394 . S
C1360 H1376 0.931 . S
C1361 C1360 1.391 . S
C1361 C1365 1.376 . S
C1362 C1360 1.394 . S
C1362 C1363 1.369 . S
C1362 C1366 1.531 . S
C1363 C1362 1.369 . S
C1363 C1364 1.410 . S
C1363 C1371 1.503 . S
C1364 C1363 1.410 . S
C1364 C1365 1.392 . S
C1364 C1367 1.511 . S
C1365 C1361 1.376 . S
C1365 C1364 1.392 . S
C1365 H1377 0.929 . S
C1366 C1362 1.531 . S
C1366 H1378 0.960 . S
C1366 H1379 0.962 . S
C1366 H1380 0.960 . S
C1367 C1364 1.511 . S
C1367 H1381 0.961 . S
C1367 H1382 0.961 . S
C1367 H1383 0.961 . S
C1368 C1369 1.370 . S
C1368 C1370 1.363 . S
C1368 H1384 0.931 . S
C1369 C1368 1.370 . S
C1369 C1373 1.408 . S
C1370 C1368 1.363 . S
C1370 C1371 1.370 . S
C1370 C1374 1.524 . S
C1371 C1363 1.503 . S
C1371 C1370 1.370 . S
C1371 C1372 1.403 . S
C1372 C1371 1.403 . S
C1372 C1373 1.404 . S
C1372 C1375 1.539 . S
C1373 C1369 1.408 . S
C1373 C1372 1.404 . S
C1373 H1385 0.930 . S
C1374 C1370 1.524 . S
C1374 H1386 0.956 . S
C1374 H1387 0.961 . S
C1374 H1388 0.961 . S
C1375 C1372 1.539 . S
C1375 H1389 0.958 . S
C1375 H1390 0.961 . S
C1375 H1391 0.960 . S
H1376 C1360 0.931 . S
H1377 C1365 0.929 . S
H1378 C1366 0.960 . S
H1379 C1366 0.962 . S
H1380 C1366 0.960 . S
H1381 C1367 0.961 . S
H1382 C1367 0.961 . S
H1383 C1367 0.961 . S
H1384 C1368 0.931 . S
H1385 C1373 0.930 . S
H1386 C1374 0.956 . S
H1387 C1374 0.961 . S
H1388 C1374 0.961 . S
H1389 C1375 0.958 . S
H1390 C1375 0.961 . S
H1391 C1375 0.960 . S
C1392 C1393 1.391 . S
C1392 C1394 1.394 . S
C1392 H1408 0.931 . S
C1393 C1392 1.391 . S
C1393 C1397 1.376 . S
C1394 C1392 1.394 . S
C1394 C1395 1.369 . S
C1394 C1398 1.531 . S
C1395 C1394 1.369 . S
C1395 C1396 1.410 . S
C1395 C1403 1.503 . S
C1396 C1395 1.410 . S
C1396 C1397 1.392 . S
C1396 C1399 1.511 . S
C1397 C1393 1.376 . S
C1397 C1396 1.392 . S
C1397 H1409 0.929 . S
C1398 C1394 1.531 . S
C1398 H1410 0.960 . S
C1398 H1411 0.962 . S
C1398 H1412 0.960 . S
C1399 C1396 1.511 . S
C1399 H1413 0.961 . S
C1399 H1414 0.961 . S
C1399 H1415 0.961 . S
C1400 C1401 1.370 . S
C1400 C1402 1.363 . S
C1400 H1416 0.931 . S
C1401 C1400 1.370 . S
C1401 C1405 1.408 . S
C1402 C1400 1.363 . S
C1402 C1403 1.370 . S
C1402 C1406 1.524 . S
C1403 C1395 1.503 . S
C1403 C1402 1.370 . S
C1403 C1404 1.403 . S
C1404 C1403 1.403 . S
C1404 C1405 1.404 . S
C1404 C1407 1.539 . S
C1405 C1401 1.408 . S
C1405 C1404 1.404 . S
C1405 H1417 0.930 . S
C1406 C1402 1.524 . S
C1406 H1418 0.956 . S
C1406 H1419 0.961 . S
C1406 H1420 0.961 . S
C1407 C1404 1.539 . S
C1407 H1421 0.958 . S
C1407 H1422 0.961 . S
C1407 H1423 0.960 . S
H1408 C1392 0.931 . S
H1409 C1397 0.929 . S
H1410 C1398 0.960 . S
H1411 C1398 0.962 . S
H1412 C1398 0.960 . S
H1413 C1399 0.961 . S
H1414 C1399 0.961 . S
H1415 C1399 0.961 . S
H1416 C1400 0.931 . S
H1417 C1405 0.930 . S
H1418 C1406 0.956 . S
H1419 C1406 0.961 . S
H1420 C1406 0.961 . S
H1421 C1407 0.958 . S
H1422 C1407 0.961 . S
H1423 C1407 0.960 . S
C1424 C1425 1.391 . S
C1424 C1426 1.394 . S
C1424 H1440 0.931 . S
C1425 C1424 1.391 . S
C1425 C1429 1.376 . S
C1426 C1424 1.394 . S
C1426 C1427 1.369 . S
C1426 C1430 1.531 . S
C1427 C1426 1.369 . S
C1427 C1428 1.410 . S
C1427 C1435 1.503 . S
C1428 C1427 1.410 . S
C1428 C1429 1.392 . S
C1428 C1431 1.511 . S
C1429 C1425 1.376 . S
C1429 C1428 1.392 . S
C1429 H1441 0.929 . S
C1430 C1426 1.531 . S
C1430 H1442 0.960 . S
C1430 H1443 0.962 . S
C1430 H1444 0.960 . S
C1431 C1428 1.511 . S
C1431 H1445 0.961 . S
C1431 H1446 0.961 . S
C1431 H1447 0.961 . S
C1432 C1433 1.370 . S
C1432 C1434 1.363 . S
C1432 H1448 0.931 . S
C1433 C1432 1.370 . S
C1433 C1437 1.408 . S
C1434 C1432 1.363 . S
C1434 C1435 1.370 . S
C1434 C1438 1.524 . S
C1435 C1427 1.503 . S
C1435 C1434 1.370 . S
C1435 C1436 1.403 . S
C1436 C1435 1.403 . S
C1436 C1437 1.404 . S
C1436 C1439 1.539 . S
C1437 C1433 1.408 . S
C1437 C1436 1.404 . S
C1437 H1449 0.930 . S
C1438 C1434 1.524 . S
C1438 H1450 0.956 . S
C1438 H1451 0.961 . S
C1438 H1452 0.961 . S
C1439 C1436 1.539 . S
C1439 H1453 0.958 . S
C1439 H1454 0.961 . S
C1439 H1455 0.960 . S
H1440 C1424 0.931 . S
H1441 C1429 0.929 . S
H1442 C1430 0.960 . S
H1443 C1430 0.962 . S
H1444 C1430 0.960 . S
H1445 C1431 0.961 . S
H1446 C1431 0.961 . S
H1447 C1431 0.961 . S
H1448 C1432 0.931 . S
H1449 C1437 0.930 . S
H1450 C1438 0.956 . S
H1451 C1438 0.961 . S
H1452 C1438 0.961 . S
H1453 C1439 0.958 . S
H1454 C1439 0.961 . S
H1455 C1439 0.960 . S
C1456 C1457 1.391 . S
C1456 C1458 1.394 . S
C1456 H1472 0.931 . S
C1457 C1456 1.391 . S
C1457 C1461 1.376 . S
C1458 C1456 1.394 . S
C1458 C1459 1.369 . S
C1458 C1462 1.531 . S
C1459 C1458 1.369 . S
C1459 C1460 1.410 . S
C1459 C1467 1.503 . S
C1460 C1459 1.410 . S
C1460 C1461 1.392 . S
C1460 C1463 1.511 . S
C1461 C1457 1.376 . S
C1461 C1460 1.392 . S
C1461 H1473 0.929 . S
C1462 C1458 1.531 . S
C1462 H1474 0.960 . S
C1462 H1475 0.962 . S
C1462 H1476 0.960 . S
C1463 C1460 1.511 . S
C1463 H1477 0.961 . S
C1463 H1478 0.961 . S
C1463 H1479 0.961 . S
C1464 C1465 1.370 . S
C1464 C1466 1.363 . S
C1464 H1480 0.931 . S
C1465 C1464 1.370 . S
C1465 C1469 1.408 . S
C1466 C1464 1.363 . S
C1466 C1467 1.370 . S
C1466 C1470 1.524 . S
C1467 C1459 1.503 . S
C1467 C1466 1.370 . S
C1467 C1468 1.403 . S
C1468 C1467 1.403 . S
C1468 C1469 1.404 . S
C1468 C1471 1.539 . S
C1469 C1465 1.408 . S
C1469 C1468 1.404 . S
C1469 H1481 0.930 . S
C1470 C1466 1.524 . S
C1470 H1482 0.956 . S
C1470 H1483 0.961 . S
C1470 H1484 0.961 . S
C1471 C1468 1.539 . S
C1471 H1485 0.958 . S
C1471 H1486 0.961 . S
C1471 H1487 0.960 . S
H1472 C1456 0.931 . S
H1473 C1461 0.929 . S
H1474 C1462 0.960 . S
H1475 C1462 0.962 . S
H1476 C1462 0.960 . S
H1477 C1463 0.961 . S
H1478 C1463 0.961 . S
H1479 C1463 0.961 . S
H1480 C1464 0.931 . S
H1481 C1469 0.930 . S
H1482 C1470 0.956 . S
H1483 C1470 0.961 . S
H1484 C1470 0.961 . S
H1485 C1471 0.958 . S
H1486 C1471 0.961 . S
H1487 C1471 0.960 . S
C1488 C1489 1.391 . S
C1488 C1490 1.394 . S
C1488 H1504 0.931 . S
C1489 C1488 1.391 . S
C1489 C1493 1.376 . S
C1490 C1488 1.394 . S
C1490 C1491 1.369 . S
C1490 C1494 1.531 . S
C1491 C1490 1.369 . S
C1491 C1492 1.410 . S
C1491 C1499 1.503 . S
C1492 C1491 1.410 . S
C1492 C1493 1.392 . S
C1492 C1495 1.511 . S
C1493 C1489 1.376 . S
C1493 C1492 1.392 . S
C1493 H1505 0.929 . S
C1494 C1490 1.531 . S
C1494 H1506 0.960 . S
C1494 H1507 0.962 . S
C1494 H1508 0.960 . S
C1495 C1492 1.511 . S
C1495 H1509 0.961 . S
C1495 H1510 0.961 . S
C1495 H1511 0.961 . S
C1496 C1497 1.370 . S
C1496 C1498 1.363 . S
C1496 H1512 0.931 . S
C1497 C1496 1.370 . S
C1497 C1501 1.408 . S
C1498 C1496 1.363 . S
C1498 C1499 1.370 . S
C1498 C1502 1.524 . S
C1499 C1491 1.503 . S
C1499 C1498 1.370 . S
C1499 C1500 1.403 . S
C1500 C1499 1.403 . S
C1500 C1501 1.404 . S
C1500 C1503 1.539 . S
C1501 C1497 1.408 . S
C1501 C1500 1.404 . S
C1501 H1513 0.930 . S
C1502 C1498 1.524 . S
C1502 H1514 0.956 . S
C1502 H1515 0.961 . S
C1502 H1516 0.961 . S
C1503 C1500 1.539 . S
C1503 H1517 0.958 . S
C1503 H1518 0.961 . S
C1503 H1519 0.960 . S
H1504 C1488 0.931 . S
H1505 C1493 0.929 . S
H1506 C1494 0.960 . S
H1507 C1494 0.962 . S
H1508 C1494 0.960 . S
H1509 C1495 0.961 . S
H1510 C1495 0.961 . S
H1511 C1495 0.961 . S
H1512 C1496 0.931 . S
H1513 C1501 0.930 . S
H1514 C1502 0.956 . S
H1515 C1502 0.961 . S
H1516 C1502 0.961 . S
H1517 C1503 0.958 . S
H1518 C1503 0.961 . S
H1519 C1503 0.960 . S
C1520 C1521 1.391 . S
C1520 C1522 1.394 . S
C1520 H1536 0.931 . S
C1521 C1520 1.391 . S
C1521 C1525 1.376 . S
C1522 C1520 1.394 . S
C1522 C1523 1.369 . S
C1522 C1526 1.531 . S
C1523 C1522 1.369 . S
C1523 C1524 1.410 . S
C1523 C1531 1.503 . S
C1524 C1523 1.410 . S
C1524 C1525 1.392 . S
C1524 C1527 1.511 . S
C1525 C1521 1.376 . S
C1525 C1524 1.392 . S
C1525 H1537 0.929 . S
C1526 C1522 1.531 . S
C1526 H1538 0.960 . S
C1526 H1539 0.962 . S
C1526 H1540 0.960 . S
C1527 C1524 1.511 . S
C1527 H1541 0.961 . S
C1527 H1542 0.961 . S
C1527 H1543 0.961 . S
C1528 C1529 1.370 . S
C1528 C1530 1.363 . S
C1528 H1544 0.931 . S
C1529 C1528 1.370 . S
C1529 C1533 1.408 . S
C1530 C1528 1.363 . S
C1530 C1531 1.370 . S
C1530 C1534 1.524 . S
C1531 C1523 1.503 . S
C1531 C1530 1.370 . S
C1531 C1532 1.403 . S
C1532 C1531 1.403 . S
C1532 C1533 1.404 . S
C1532 C1535 1.539 . S
C1533 C1529 1.408 . S
C1533 C1532 1.404 . S
C1533 H1545 0.930 . S
C1534 C1530 1.524 . S
C1534 H1546 0.956 . S
C1534 H1547 0.961 . S
C1534 H1548 0.961 . S
C1535 C1532 1.539 . S
C1535 H1549 0.958 . S
C1535 H1550 0.961 . S
C1535 H1551 0.960 . S
H1536 C1520 0.931 . S
H1537 C1525 0.929 . S
H1538 C1526 0.960 . S
H1539 C1526 0.962 . S
H1540 C1526 0.960 . S
H1541 C1527 0.961 . S
H1542 C1527 0.961 . S
H1543 C1527 0.961 . S
H1544 C1528 0.931 . S
H1545 C1533 0.930 . S
H1546 C1534 0.956 . S
H1547 C1534 0.961 . S
H1548 C1534 0.961 . S
H1549 C1535 0.958 . S
H1550 C1535 0.961 . S
H1551 C1535 0.960 . S
C1552 C1553 1.391 . S
C1552 C1554 1.394 . S
C1552 H1568 0.931 . S
C1553 C1552 1.391 . S
C1553 C1557 1.376 . S
C1554 C1552 1.394 . S
C1554 C1555 1.369 . S
C1554 C1558 1.531 . S
C1555 C1554 1.369 . S
C1555 C1556 1.410 . S
C1555 C1563 1.503 . S
C1556 C1555 1.410 . S
C1556 C1557 1.392 . S
C1556 C1559 1.511 . S
C1557 C1553 1.376 . S
C1557 C1556 1.392 . S
C1557 H1569 0.929 . S
C1558 C1554 1.531 . S
C1558 H1570 0.960 . S
C1558 H1571 0.962 . S
C1558 H1572 0.960 . S
C1559 C1556 1.511 . S
C1559 H1573 0.961 . S
C1559 H1574 0.961 . S
C1559 H1575 0.961 . S
C1560 C1561 1.370 . S
C1560 C1562 1.363 . S
C1560 H1576 0.931 . S
C1561 C1560 1.370 . S
C1561 C1565 1.408 . S
C1562 C1560 1.363 . S
C1562 C1563 1.370 . S
C1562 C1566 1.524 . S
C1563 C1555 1.503 . S
C1563 C1562 1.370 . S
C1563 C1564 1.403 . S
C1564 C1563 1.403 . S
C1564 C1565 1.404 . S
C1564 C1567 1.539 . S
C1565 C1561 1.408 . S
C1565 C1564 1.404 . S
C1565 H1577 0.930 . S
C1566 C1562 1.524 . S
C1566 H1578 0.956 . S
C1566 H1579 0.961 . S
C1566 H1580 0.961 . S
C1567 C1564 1.539 . S
C1567 H1581 0.958 . S
C1567 H1582 0.961 . S
C1567 H1583 0.960 . S
H1568 C1552 0.931 . S
H1569 C1557 0.929 . S
H1570 C1558 0.960 . S
H1571 C1558 0.962 . S
H1572 C1558 0.960 . S
H1573 C1559 0.961 . S
H1574 C1559 0.961 . S
H1575 C1559 0.961 . S
H1576 C1560 0.931 . S
H1577 C1565 0.930 . S
H1578 C1566 0.956 . S
H1579 C1566 0.961 . S
H1580 C1566 0.961 . S
H1581 C1567 0.958 . S
H1582 C1567 0.961 . S
H1583 C1567 0.960 . S
C1584 C1585 1.391 . S
C1584 C1586 1.394 . S
C1584 H1600 0.931 . S
C1585 C1584 1.391 . S
C1585 C1589 1.376 . S
C1586 C1584 1.394 . S
C1586 C1587 1.369 . S
C1586 C1590 1.531 . S
C1587 C1586 1.369 . S
C1587 C1588 1.410 . S
C1587 C1595 1.503 . S
C1588 C1587 1.410 . S
C1588 C1589 1.392 . S
C1588 C1591 1.511 . S
C1589 C1585 1.376 . S
C1589 C1588 1.392 . S
C1589 H1601 0.929 . S
C1590 C1586 1.531 . S
C1590 H1602 0.960 . S
C1590 H1603 0.962 . S
C1590 H1604 0.960 . S
C1591 C1588 1.511 . S
C1591 H1605 0.961 . S
C1591 H1606 0.961 . S
C1591 H1607 0.961 . S
C1592 C1593 1.370 . S
C1592 C1594 1.363 . S
C1592 H1608 0.931 . S
C1593 C1592 1.370 . S
C1593 C1597 1.408 . S
C1594 C1592 1.363 . S
C1594 C1595 1.370 . S
C1594 C1598 1.524 . S
C1595 C1587 1.503 . S
C1595 C1594 1.370 . S
C1595 C1596 1.403 . S
C1596 C1595 1.403 . S
C1596 C1597 1.404 . S
C1596 C1599 1.539 . S
C1597 C1593 1.408 . S
C1597 C1596 1.404 . S
C1597 H1609 0.930 . S
C1598 C1594 1.524 . S
C1598 H1610 0.956 . S
C1598 H1611 0.961 . S
C1598 H1612 0.961 . S
C1599 C1596 1.539 . S
C1599 H1613 0.958 . S
C1599 H1614 0.961 . S
C1599 H1615 0.960 . S
H1600 C1584 0.931 . S
H1601 C1589 0.929 . S
H1602 C1590 0.960 . S
H1603 C1590 0.962 . S
H1604 C1590 0.960 . S
H1605 C1591 0.961 . S
H1606 C1591 0.961 . S
H1607 C1591 0.961 . S
H1608 C1592 0.931 . S
H1609 C1597 0.930 . S
H1610 C1598 0.956 . S
H1611 C1598 0.961 . S
H1612 C1598 0.961 . S
H1613 C1599 0.958 . S
H1614 C1599 0.961 . S
H1615 C1599 0.960 . S
C1616 C1617 1.391 . S
C1616 C1618 1.394 . S
C1616 H1632 0.931 . S
C1617 C1616 1.391 . S
C1617 C1621 1.376 . S
C1618 C1616 1.394 . S
C1618 C1619 1.369 . S
C1618 C1622 1.531 . S
C1619 C1618 1.369 . S
C1619 C1620 1.410 . S
C1619 C1627 1.503 . S
C1620 C1619 1.410 . S
C1620 C1621 1.392 . S
C1620 C1623 1.511 . S
C1621 C1617 1.376 . S
C1621 C1620 1.392 . S
C1621 H1633 0.929 . S
C1622 C1618 1.531 . S
C1622 H1634 0.960 . S
C1622 H1635 0.962 . S
C1622 H1636 0.960 . S
C1623 C1620 1.511 . S
C1623 H1637 0.961 . S
C1623 H1638 0.961 . S
C1623 H1639 0.961 . S
C1624 C1625 1.370 . S
C1624 C1626 1.363 . S
C1624 H1640 0.931 . S
C1625 C1624 1.370 . S
C1625 C1629 1.408 . S
C1626 C1624 1.363 . S
C1626 C1627 1.370 . S
C1626 C1630 1.524 . S
C1627 C1619 1.503 . S
C1627 C1626 1.370 . S
C1627 C1628 1.403 . S
C1628 C1627 1.403 . S
C1628 C1629 1.404 . S
C1628 C1631 1.539 . S
C1629 C1625 1.408 . S
C1629 C1628 1.404 . S
C1629 H1641 0.930 . S
C1630 C1626 1.524 . S
C1630 H1642 0.956 . S
C1630 H1643 0.961 . S
C1630 H1644 0.961 . S
C1631 C1628 1.539 . S
C1631 H1645 0.958 . S
C1631 H1646 0.961 . S
C1631 H1647 0.960 . S
H1632 C1616 0.931 . S
H1633 C1621 0.929 . S
H1634 C1622 0.960 . S
H1635 C1622 0.962 . S
H1636 C1622 0.960 . S
H1637 C1623 0.961 . S
H1638 C1623 0.961 . S
H1639 C1623 0.961 . S
H1640 C1624 0.931 . S
H1641 C1629 0.930 . S
H1642 C1630 0.956 . S
H1643 C1630 0.961 . S
H1644 C1630 0.961 . S
H1645 C1631 0.958 . S
H1646 C1631 0.961 . S
H1647 C1631 0.960 . S
C1648 C1649 1.391 . S
C1648 C1650 1.394 . S
C1648 H1664 0.931 . S
C1649 C1648 1.391 . S
C1649 C1653 1.376 . S
C1650 C1648 1.394 . S
C1650 C1651 1.369 . S
C1650 C1654 1.531 . S
C1651 C1650 1.369 . S
C1651 C1652 1.410 . S
C1651 C1659 1.503 . S
C1652 C1651 1.410 . S
C1652 C1653 1.392 . S
C1652 C1655 1.511 . S
C1653 C1649 1.376 . S
C1653 C1652 1.392 . S
C1653 H1665 0.929 . S
C1654 C1650 1.531 . S
C1654 H1666 0.960 . S
C1654 H1667 0.962 . S
C1654 H1668 0.960 . S
C1655 C1652 1.511 . S
C1655 H1669 0.961 . S
C1655 H1670 0.961 . S
C1655 H1671 0.961 . S
C1656 C1657 1.370 . S
C1656 C1658 1.363 . S
C1656 H1672 0.931 . S
C1657 C1656 1.370 . S
C1657 C1661 1.408 . S
C1658 C1656 1.363 . S
C1658 C1659 1.370 . S
C1658 C1662 1.524 . S
C1659 C1651 1.503 . S
C1659 C1658 1.370 . S
C1659 C1660 1.403 . S
C1660 C1659 1.403 . S
C1660 C1661 1.404 . S
C1660 C1663 1.539 . S
C1661 C1657 1.408 . S
C1661 C1660 1.404 . S
C1661 H1673 0.930 . S
C1662 C1658 1.524 . S
C1662 H1674 0.956 . S
C1662 H1675 0.961 . S
C1662 H1676 0.961 . S
C1663 C1660 1.539 . S
C1663 H1677 0.958 . S
C1663 H1678 0.961 . S
C1663 H1679 0.960 . S
H1664 C1648 0.931 . S
H1665 C1653 0.929 . S
H1666 C1654 0.960 . S
H1667 C1654 0.962 . S
H1668 C1654 0.960 . S
H1669 C1655 0.961 . S
H1670 C1655 0.961 . S
H1671 C1655 0.961 . S
H1672 C1656 0.931 . S
H1673 C1661 0.930 . S
H1674 C1662 0.956 . S
H1675 C1662 0.961 . S
H1676 C1662 0.961 . S
H1677 C1663 0.958 . S
H1678 C1663 0.961 . S
H1679 C1663 0.960 . S
C1680 C1681 1.391 . S
C1680 C1682 1.394 . S
C1680 H1696 0.931 . S
C1681 C1680 1.391 . S
C1681 C1685 1.376 . S
C1682 C1680 1.394 . S
C1682 C1683 1.369 . S
C1682 C1686 1.531 . S
C1683 C1682 1.369 . S
C1683 C1684 1.410 . S
C1683 C1691 1.503 . S
C1684 C1683 1.410 . S
C1684 C1685 1.392 . S
C1684 C1687 1.511 . S
C1685 C1681 1.376 . S
C1685 C1684 1.392 . S
C1685 H1697 0.929 . S
C1686 C1682 1.531 . S
C1686 H1698 0.960 . S
C1686 H1699 0.962 . S
C1686 H1700 0.960 . S
C1687 C1684 1.511 . S
C1687 H1701 0.961 . S
C1687 H1702 0.961 . S
C1687 H1703 0.961 . S
C1688 C1689 1.370 . S
C1688 C1690 1.363 . S
C1688 H1704 0.931 . S
C1689 C1688 1.370 . S
C1689 C1693 1.408 . S
C1690 C1688 1.363 . S
C1690 C1691 1.370 . S
C1690 C1694 1.524 . S
C1691 C1683 1.503 . S
C1691 C1690 1.370 . S
C1691 C1692 1.403 . S
C1692 C1691 1.403 . S
C1692 C1693 1.404 . S
C1692 C1695 1.539 . S
C1693 C1689 1.408 . S
C1693 C1692 1.404 . S
C1693 H1705 0.930 . S
C1694 C1690 1.524 . S
C1694 H1706 0.956 . S
C1694 H1707 0.961 . S
C1694 H1708 0.961 . S
C1695 C1692 1.539 . S
C1695 H1709 0.958 . S
C1695 H1710 0.961 . S
C1695 H1711 0.960 . S
H1696 C1680 0.931 . S
H1697 C1685 0.929 . S
H1698 C1686 0.960 . S
H1699 C1686 0.962 . S
H1700 C1686 0.960 . S
H1701 C1687 0.961 . S
H1702 C1687 0.961 . S
H1703 C1687 0.961 . S
H1704 C1688 0.931 . S
H1705 C1693 0.930 . S
H1706 C1694 0.956 . S
H1707 C1694 0.961 . S
H1708 C1694 0.961 . S
H1709 C1695 0.958 . S
H1710 C1695 0.961 . S
H1711 C1695 0.960 . S
C1712 C1713 1.391 . S
C1712 C1714 1.394 . S
C1712 H1728 0.931 . S
C1713 C1712 1.391 . S
C1713 C1717 1.376 . S
C1714 C1712 1.394 . S
C1714 C1715 1.369 . S
C1714 C1718 1.531 . S
C1715 C1714 1.369 . S
C1715 C1716 1.410 . S
C1715 C1723 1.503 . S
C1716 C1715 1.410 . S
C1716 C1717 1.392 . S
C1716 C1719 1.511 . S
C1717 C1713 1.376 . S
C1717 C1716 1.392 . S
C1717 H1729 0.929 . S
C1718 C1714 1.531 . S
C1718 H1730 0.960 . S
C1718 H1731 0.962 . S
C1718 H1732 0.960 . S
C1719 C1716 1.511 . S
C1719 H1733 0.961 . S
C1719 H1734 0.961 . S
C1719 H1735 0.961 . S
C1720 C1721 1.370 . S
C1720 C1722 1.363 . S
C1720 H1736 0.931 . S
C1721 C1720 1.370 . S
C1721 C1725 1.408 . S
C1722 C1720 1.363 . S
C1722 C1723 1.370 . S
C1722 C1726 1.524 . S
C1723 C1715 1.503 . S
C1723 C1722 1.370 . S
C1723 C1724 1.403 . S
C1724 C1723 1.403 . S
C1724 C1725 1.404 . S
C1724 C1727 1.539 . S
C1725 C1721 1.408 . S
C1725 C1724 1.404 . S
C1725 H1737 0.930 . S
C1726 C1722 1.524 . S
C1726 H1738 0.956 . S
C1726 H1739 0.961 . S
C1726 H1740 0.961 . S
C1727 C1724 1.539 . S
C1727 H1741 0.958 . S
C1727 H1742 0.961 . S
C1727 H1743 0.960 . S
H1728 C1712 0.931 . S
H1729 C1717 0.929 . S
H1730 C1718 0.960 . S
H1731 C1718 0.962 . S
H1732 C1718 0.960 . S
H1733 C1719 0.961 . S
H1734 C1719 0.961 . S
H1735 C1719 0.961 . S
H1736 C1720 0.931 . S
H1737 C1725 0.930 . S
H1738 C1726 0.956 . S
H1739 C1726 0.961 . S
H1740 C1726 0.961 . S
H1741 C1727 0.958 . S
H1742 C1727 0.961 . S
H1743 C1727 0.960 . S
C1744 C1745 1.391 . S
C1744 C1746 1.394 . S
C1744 H1760 0.931 . S
C1745 C1744 1.391 . S
C1745 C1749 1.376 . S
C1746 C1744 1.394 . S
C1746 C1747 1.369 . S
C1746 C1750 1.531 . S
C1747 C1746 1.369 . S
C1747 C1748 1.410 . S
C1747 C1755 1.503 . S
C1748 C1747 1.410 . S
C1748 C1749 1.392 . S
C1748 C1751 1.511 . S
C1749 C1745 1.376 . S
C1749 C1748 1.392 . S
C1749 H1761 0.929 . S
C1750 C1746 1.531 . S
C1750 H1762 0.960 . S
C1750 H1763 0.962 . S
C1750 H1764 0.960 . S
C1751 C1748 1.511 . S
C1751 H1765 0.961 . S
C1751 H1766 0.961 . S
C1751 H1767 0.961 . S
C1752 C1753 1.370 . S
C1752 C1754 1.363 . S
C1752 H1768 0.931 . S
C1753 C1752 1.370 . S
C1753 C1757 1.408 . S
C1754 C1752 1.363 . S
C1754 C1755 1.370 . S
C1754 C1758 1.524 . S
C1755 C1747 1.503 . S
C1755 C1754 1.370 . S
C1755 C1756 1.403 . S
C1756 C1755 1.403 . S
C1756 C1757 1.404 . S
C1756 C1759 1.539 . S
C1757 C1753 1.408 . S
C1757 C1756 1.404 . S
C1757 H1769 0.930 . S
C1758 C1754 1.524 . S
C1758 H1770 0.956 . S
C1758 H1771 0.961 . S
C1758 H1772 0.961 . S
C1759 C1756 1.539 . S
C1759 H1773 0.958 . S
C1759 H1774 0.961 . S
C1759 H1775 0.960 . S
H1760 C1744 0.931 . S
H1761 C1749 0.929 . S
H1762 C1750 0.960 . S
H1763 C1750 0.962 . S
H1764 C1750 0.960 . S
H1765 C1751 0.961 . S
H1766 C1751 0.961 . S
H1767 C1751 0.961 . S
H1768 C1752 0.931 . S
H1769 C1757 0.930 . S
H1770 C1758 0.956 . S
H1771 C1758 0.961 . S
H1772 C1758 0.961 . S
H1773 C1759 0.958 . S
H1774 C1759 0.961 . S
H1775 C1759 0.960 . S
C1776 C1777 1.391 . S
C1776 C1778 1.394 . S
C1776 H1792 0.931 . S
C1777 C1776 1.391 . S
C1777 C1781 1.376 . S
C1778 C1776 1.394 . S
C1778 C1779 1.369 . S
C1778 C1782 1.531 . S
C1779 C1778 1.369 . S
C1779 C1780 1.410 . S
C1779 C1787 1.503 . S
C1780 C1779 1.410 . S
C1780 C1781 1.392 . S
C1780 C1783 1.511 . S
C1781 C1777 1.376 . S
C1781 C1780 1.392 . S
C1781 H1793 0.929 . S
C1782 C1778 1.531 . S
C1782 H1794 0.960 . S
C1782 H1795 0.962 . S
C1782 H1796 0.960 . S
C1783 C1780 1.511 . S
C1783 H1797 0.961 . S
C1783 H1798 0.961 . S
C1783 H1799 0.961 . S
C1784 C1785 1.370 . S
C1784 C1786 1.363 . S
C1784 H1800 0.931 . S
C1785 C1784 1.370 . S
C1785 C1789 1.408 . S
C1786 C1784 1.363 . S
C1786 C1787 1.370 . S
C1786 C1790 1.524 . S
C1787 C1779 1.503 . S
C1787 C1786 1.370 . S
C1787 C1788 1.403 . S
C1788 C1787 1.403 . S
C1788 C1789 1.404 . S
C1788 C1791 1.539 . S
C1789 C1785 1.408 . S
C1789 C1788 1.404 . S
C1789 H1801 0.930 . S
C1790 C1786 1.524 . S
C1790 H1802 0.956 . S
C1790 H1803 0.961 . S
C1790 H1804 0.961 . S
C1791 C1788 1.539 . S
C1791 H1805 0.958 . S
C1791 H1806 0.961 . S
C1791 H1807 0.960 . S
H1792 C1776 0.931 . S
H1793 C1781 0.929 . S
H1794 C1782 0.960 . S
H1795 C1782 0.962 . S
H1796 C1782 0.960 . S
H1797 C1783 0.961 . S
H1798 C1783 0.961 . S
H1799 C1783 0.961 . S
H1800 C1784 0.931 . S
H1801 C1789 0.930 . S
H1802 C1790 0.956 . S
H1803 C1790 0.961 . S
H1804 C1790 0.961 . S
H1805 C1791 0.958 . S
H1806 C1791 0.961 . S
H1807 C1791 0.960 . S
C1808 C1809 1.391 . S
C1808 C1810 1.394 . S
C1808 H1824 0.931 . S
C1809 C1808 1.391 . S
C1809 C1813 1.376 . S
C1810 C1808 1.394 . S
C1810 C1811 1.369 . S
C1810 C1814 1.531 . S
C1811 C1810 1.369 . S
C1811 C1812 1.410 . S
C1811 C1819 1.503 . S
C1812 C1811 1.410 . S
C1812 C1813 1.392 . S
C1812 C1815 1.511 . S
C1813 C1809 1.376 . S
C1813 C1812 1.392 . S
C1813 H1825 0.929 . S
C1814 C1810 1.531 . S
C1814 H1826 0.960 . S
C1814 H1827 0.962 . S
C1814 H1828 0.960 . S
C1815 C1812 1.511 . S
C1815 H1829 0.961 . S
C1815 H1830 0.961 . S
C1815 H1831 0.961 . S
C1816 C1817 1.370 . S
C1816 C1818 1.363 . S
C1816 H1832 0.931 . S
C1817 C1816 1.370 . S
C1817 C1821 1.408 . S
C1818 C1816 1.363 . S
C1818 C1819 1.370 . S
C1818 C1822 1.524 . S
C1819 C1811 1.503 . S
C1819 C1818 1.370 . S
C1819 C1820 1.403 . S
C1820 C1819 1.403 . S
C1820 C1821 1.404 . S
C1820 C1823 1.539 . S
C1821 C1817 1.408 . S
C1821 C1820 1.404 . S
C1821 H1833 0.930 . S
C1822 C1818 1.524 . S
C1822 H1834 0.956 . S
C1822 H1835 0.961 . S
C1822 H1836 0.961 . S
C1823 C1820 1.539 . S
C1823 H1837 0.958 . S
C1823 H1838 0.961 . S
C1823 H1839 0.960 . S
H1824 C1808 0.931 . S
H1825 C1813 0.929 . S
H1826 C1814 0.960 . S
H1827 C1814 0.962 . S
H1828 C1814 0.960 . S
H1829 C1815 0.961 . S
H1830 C1815 0.961 . S
H1831 C1815 0.961 . S
H1832 C1816 0.931 . S
H1833 C1821 0.930 . S
H1834 C1822 0.956 . S
H1835 C1822 0.961 . S
H1836 C1822 0.961 . S
H1837 C1823 0.958 . S
H1838 C1823 0.961 . S
H1839 C1823 0.960 . S
C1840 C1841 1.391 . S
C1840 C1842 1.394 . S
C1840 H1856 0.931 . S
C1841 C1840 1.391 . S
C1841 C1845 1.376 . S
C1842 C1840 1.394 . S
C1842 C1843 1.369 . S
C1842 C1846 1.531 . S
C1843 C1842 1.369 . S
C1843 C1844 1.410 . S
C1843 C1851 1.503 . S
C1844 C1843 1.410 . S
C1844 C1845 1.392 . S
C1844 C1847 1.511 . S
C1845 C1841 1.376 . S
C1845 C1844 1.392 . S
C1845 H1857 0.929 . S
C1846 C1842 1.531 . S
C1846 H1858 0.960 . S
C1846 H1859 0.962 . S
C1846 H1860 0.960 . S
C1847 C1844 1.511 . S
C1847 H1861 0.961 . S
C1847 H1862 0.961 . S
C1847 H1863 0.961 . S
C1848 C1849 1.370 . S
C1848 C1850 1.363 . S
C1848 H1864 0.931 . S
C1849 C1848 1.370 . S
C1849 C1853 1.408 . S
C1850 C1848 1.363 . S
C1850 C1851 1.370 . S
C1850 C1854 1.524 . S
C1851 C1843 1.503 . S
C1851 C1850 1.370 . S
C1851 C1852 1.403 . S
C1852 C1851 1.403 . S
C1852 C1853 1.404 . S
C1852 C1855 1.539 . S
C1853 C1849 1.408 . S
C1853 C1852 1.404 . S
C1853 H1865 0.930 . S
C1854 C1850 1.524 . S
C1854 H1866 0.956 . S
C1854 H1867 0.961 . S
C1854 H1868 0.961 . S
C1855 C1852 1.539 . S
C1855 H1869 0.958 . S
C1855 H1870 0.961 . S
C1855 H1871 0.960 . S
H1856 C1840 0.931 . S
H1857 C1845 0.929 . S
H1858 C1846 0.960 . S
H1859 C1846 0.962 . S
H1860 C1846 0.960 . S
H1861 C1847 0.961 . S
H1862 C1847 0.961 . S
H1863 C1847 0.961 . S
H1864 C1848 0.931 . S
H1865 C1853 0.930 . S
H1866 C1854 0.956 . S
H1867 C1854 0.961 . S
H1868 C1854 0.961 . S
H1869 C1855 0.958 . S
H1870 C1855 0.961 . S
H1871 C1855 0.960 . S
C337 C7 1.317 . S
C345 C105 1.337 . S
C369 C119 1.328 . S
C377 C21 1.336 . S
C401 C35 1.324 . S
C409 C133 1.324 . S
C433 C49 1.343 . S
C441 C147 1.328 . S
C465 C161 1.343 . S
C473 C63 1.327 . S
C497 C77 1.327 . S
C505 C91 1.336 . S
C529 C175 1.341 . S
C537 C273 1.325 . S
C561 C189 1.318 . S
C569 C287 1.325 . S
C593 C301 1.343 . S
C601 C203 1.326 . S
C625 C217 1.343 . S
C633 C315 1.331 . S
C657 C231 1.319 . S
C665 C329 1.324 . S
C689 C259 1.323 . S
C697 C245 1.337 . S
C721 C13 1.168 . S
C729 C125 1.236 . S
C753 C139 1.169 . S
C761 C27 1.236 . S
C785 C153 1.171 . S
C793 C41 1.235 . S
C817 C55 1.218 . S
C825 C167 1.219 . S
C849 C69 1.253 . S
C857 C97 1.200 . S
C881 C83 1.193 . S
C889 C111 1.229 . S
C913 C293 1.181 . S
C921 C181 1.228 . S
C945 C195 1.178 . S
C953 C307 1.235 . S
C977 C321 1.228 . S
C985 C209 1.217 . S
C1009 C335 1.262 . S
C1017 C223 1.198 . S
C1041 C265 1.204 . S
C1049 C237 1.226 . S
C1073 C251 1.255 . S
C1081 C279 1.199 . S
C1105 C11 1.500 . S
C1113 C221 1.509 . S
C1137 C235 1.497 . S
C1145 C25 1.507 . S
C1169 C249 1.510 . S
C1177 C39 1.512 . S
C1201 C53 1.516 . S
C1209 C179 1.515 . S
C1233 C67 1.504 . S
C1241 C193 1.511 . S
C1265 C207 1.509 . S
C1273 C81 1.513 . S
C1297 C305 1.496 . S
C1305 C95 1.507 . S
C1329 C319 1.497 . S
C1337 C109 1.508 . S
C1361 C333 1.510 . S
C1369 C123 1.514 . S
C1393 C263 1.501 . S
C1401 C137 1.508 . S
C1425 C151 1.498 . S
C1433 C277 1.509 . S
C1457 C165 1.498 . S
C1465 C291 1.507 . S
C1489 C8 1.462 . S
C1497 C148 1.495 . S
C1521 C162 1.458 . S
C1529 C22 1.493 . S
C1553 C92 1.473 . S
C1561 C36 1.493 . S
C1585 C50 1.487 . S
C1593 C106 1.478 . S
C1617 C64 1.468 . S
C1625 C120 1.486 . S
C1649 C78 1.492 . S
C1657 C134 1.486 . S
C1681 C176 1.499 . S
C1689 C316 1.476 . S
C1713 C190 1.505 . S
C1721 C330 1.478 . S
C1745 C204 1.490 . S
C1753 C260 1.476 . S
C1777 C274 1.485 . S
C1785 C218 1.477 . S
C1809 C232 1.458 . S
C1817 C288 1.490 . S
C1841 C246 1.488 . S
C1849 C302 1.491 . S
