# Generated by pormake.
# Topology umw, (4)-cn, num edge types: 1
# Building blocks:
#     Node 0, Type 0, BuildingBlock: GALJAG_clean_sbu_0, # of connection points: 4
#     Node 1, Type 0, BuildingBlock: GALJAG_clean_sbu_0, # of connection points: 4
#     Node 2, Type 0, BuildingBlock: GALJAG_clean_sbu_0, # of connection points: 4
#     Node 3, Type 0, BuildingBlock: GALJAG_clean_sbu_0, # of connection points: 4
#     Node 4, Type 0, BuildingBlock: GALJAG_clean_sbu_0, # of connection points: 4
#     Node 5, Type 0, BuildingBlock: GALJAG_clean_sbu_0, # of connection points: 4
#     Node 6, Type 0, BuildingBlock: GALJAG_clean_sbu_0, # of connection points: 4
#     Node 7, Type 0, BuildingBlock: GALJAG_clean_sbu_0, # of connection points: 4
#     Edge 8, Type (0, 0), BuildingBlock: XIVTED_clean_linker_0, # of connection points: 2
#     Edge 9, Type (0, 0), BuildingBlock: XIVTED_clean_linker_0, # of connection points: 2
#     Edge 10, Type (0, 0), BuildingBlock: XIVTED_clean_linker_0, # of connection points: 2
#     Edge 11, Type (0, 0), BuildingBlock: XIVTED_clean_linker_0, # of connection points: 2
#     Edge 12, Type (0, 0), BuildingBlock: XIVTED_clean_linker_0, # of connection points: 2
#     Edge 13, Type (0, 0), BuildingBlock: XIVTED_clean_linker_0, # of connection points: 2
#     Edge 14, Type (0, 0), BuildingBlock: XIVTED_clean_linker_0, # of connection points: 2
#     Edge 15, Type (0, 0), BuildingBlock: XIVTED_clean_linker_0, # of connection points: 2
#     Edge 16, Type (0, 0), BuildingBlock: XIVTED_clean_linker_0, # of connection points: 2
#     Edge 17, Type (0, 0), BuildingBlock: XIVTED_clean_linker_0, # of connection points: 2
#     Edge 18, Type (0, 0), BuildingBlock: XIVTED_clean_linker_0, # of connection points: 2
#     Edge 19, Type (0, 0), BuildingBlock: XIVTED_clean_linker_0, # of connection points: 2
#     Edge 20, Type (0, 0), BuildingBlock: XIVTED_clean_linker_0, # of connection points: 2
#     Edge 21, Type (0, 0), BuildingBlock: XIVTED_clean_linker_0, # of connection points: 2
#     Edge 22, Type (0, 0), BuildingBlock: XIVTED_clean_linker_0, # of connection points: 2
#     Edge 23, Type (0, 0), BuildingBlock: XIVTED_clean_linker_0, # of connection points: 2
# Relax obj value: 0.088
# Max RMSD: 0.077
# Mean RMSD: 0.077
data_MOF--net-umw--node1-GALJAG_clean_sbu_0--edge1-XIVTED_clean_linker_0
_symmetry_space_group_name_H-M    P1
_symmetry_Int_Tables_number       1
_symmetry_cell_setting            triclinic
loop_
_symmetry_equiv_pos_as_xyz
'x, y, z'
_cell_length_a     40.431033
_cell_length_b     40.432016
_cell_length_c     27.802083
_cell_angle_alpha  89.984833
_cell_angle_beta   90.03226
_cell_angle_gamma 90.010304
loop_
_atom_site_label
_atom_site_type_symbol
_atom_site_fract_x
_atom_site_fract_y
_atom_site_fract_z
_atom_type_partial_charge
In0 In 0.41464 0.18056 0.32428 0.0
O1 O 0.36085 0.19416 0.33892 0.0
O2 O 0.39693 0.23248 0.34061 0.0
C3 C 0.41036 0.11458 0.31286 0.0
C4 C 0.44265 0.18237 0.41189 0.0
C5 C 0.4403 0.1999 0.23931 0.0
O6 O 0.38511 0.13296 0.31115 0.0
O7 O 0.43732 0.12963 0.319 0.0
O8 O 0.45677 0.19984 0.27788 0.0
O9 O 0.41053 0.19092 0.24374 0.0
C10 C 0.3672 0.2242 0.34739 0.0
O11 O 0.45787 0.19205 0.37475 0.0
O12 O 0.41392 0.17147 0.40444 0.0
In13 In 0.79989 0.4156 0.57594 0.0
O14 O 0.78579 0.45873 0.625 0.0
O15 O 0.80691 0.41564 0.65656 0.0
C16 C 0.78211 0.44133 0.4902 0.0
C17 C 0.75715 0.36703 0.59786 0.0
C18 C 0.86622 0.4123 0.56863 0.0
O19 O 0.78149 0.45771 0.52879 0.0
O20 O 0.791 0.41155 0.49492 0.0
O21 O 0.84821 0.38693 0.56449 0.0
O22 O 0.85069 0.43894 0.575 0.0
C23 C 0.79496 0.44408 0.66289 0.0
O24 O 0.78744 0.36147 0.59018 0.0
O25 O 0.74819 0.39652 0.59069 0.0
In26 In 0.5687 0.80082 0.82302 0.0
O27 O 0.62273 0.78836 0.83788 0.0
O28 O 0.58784 0.74896 0.83608 0.0
C29 C 0.57147 0.86724 0.81717 0.0
C30 C 0.54048 0.79473 0.91002 0.0
C31 C 0.54386 0.78389 0.73637 0.0
O32 O 0.59702 0.8495 0.81284 0.0
O33 O 0.54494 0.8514 0.82304 0.0
O34 O 0.52708 0.78269 0.77459 0.0
O35 O 0.57352 0.79292 0.74194 0.0
C36 C 0.61722 0.75791 0.84428 0.0
O37 O 0.52553 0.78633 0.87198 0.0
O38 O 0.56899 0.80651 0.90377 0.0
In39 In 0.18096 0.56607 0.07333 0.0
O40 O 0.19219 0.52253 0.12346 0.0
O41 O 0.17183 0.5665 0.15339 0.0
C42 C 0.20032 0.54155 0.98767 0.0
C43 C 0.22465 0.61322 0.09743 0.0
C44 C 0.11494 0.57007 0.06237 0.0
O45 O 0.20037 0.52459 0.02579 0.0
O46 O 0.19126 0.57123 0.99294 0.0
O47 O 0.13311 0.5955 0.06196 0.0
O48 O 0.13022 0.54309 0.0669 0.0
C49 C 0.18256 0.5377 0.16068 0.0
O50 O 0.19479 0.61981 0.08796 0.0
O51 O 0.23277 0.5834 0.09107 0.0
In52 In 0.41323 0.80084 0.32549 0.0
O53 O 0.35912 0.78831 0.31131 0.0
O54 O 0.39405 0.74893 0.3131 0.0
C55 C 0.4107 0.86731 0.33056 0.0
C56 C 0.44123 0.79434 0.23841 0.0
C57 C 0.43815 0.78415 0.4122 0.0
O58 O 0.38511 0.84967 0.33534 0.0
O59 O 0.43714 0.85135 0.32462 0.0
O60 O 0.45482 0.78258 0.37392 0.0
O61 O 0.40857 0.79346 0.40668 0.0
C62 C 0.36461 0.75783 0.3052 0.0
O63 O 0.45642 0.78651 0.27651 0.0
O64 O 0.41256 0.80574 0.24461 0.0
In65 In 0.1795 0.41204 0.57841 0.0
O66 O 0.19103 0.45545 0.52825 0.0
O67 O 0.17104 0.41133 0.49817 0.0
C68 C 0.19882 0.43668 0.66407 0.0
C69 C 0.22312 0.36468 0.55507 0.0
C70 C 0.1134 0.40848 0.58862 0.0
O71 O 0.19902 0.45356 0.62587 0.0
O72 O 0.18955 0.40705 0.65891 0.0
O73 O 0.13143 0.38296 0.58999 0.0
O74 O 0.12886 0.43531 0.58354 0.0
C75 C 0.18175 0.44015 0.49093 0.0
O76 O 0.19315 0.35822 0.56401 0.0
O77 O 0.23133 0.39447 0.56154 0.0
In78 In 0.56871 0.18045 0.82943 0.0
O79 O 0.52494 0.19113 0.7795 0.0
O80 O 0.56967 0.17292 0.749 0.0
C81 C 0.54362 0.19948 0.91488 0.0
C82 C 0.61587 0.22446 0.8066 0.0
C83 C 0.57282 0.11435 0.83933 0.0
O84 O 0.52715 0.20036 0.87633 0.0
O85 O 0.57311 0.18966 0.91022 0.0
O86 O 0.59814 0.13262 0.84133 0.0
O87 O 0.54588 0.12955 0.83378 0.0
C88 C 0.5405 0.18275 0.742 0.0
O89 O 0.62241 0.19438 0.81458 0.0
O90 O 0.58614 0.23254 0.81379 0.0
In91 In 0.80152 0.56993 0.07927 0.0
O92 O 0.78845 0.52587 0.03128 0.0
O93 O 0.80668 0.56981 -0.00159 0.0
C94 C 0.78354 0.54508 0.16546 0.0
C95 C 0.75887 0.61844 0.05673 0.0
C96 C 0.86794 0.57299 0.08541 0.0
O97 O 0.78186 0.52868 0.12696 0.0
O98 O 0.79365 0.57444 0.16047 0.0
O99 O 0.85006 0.59839 0.09018 0.0
O100 O 0.85224 0.54643 0.0791 0.0
C101 C 0.79602 0.54078 0.99287 0.0
O102 O 0.78923 0.62396 0.06394 0.0
O103 O 0.74983 0.58908 0.06477 0.0
H104 H 0.41036 0.17395 0.49679 0.0
H105 H 0.5732 0.17825 0.65687 0.0
H106 H 0.5069 0.19447 0.43771 0.0
H107 H 0.47556 0.19113 0.71665 0.0
H108 H 0.54949 0.17992 0.57612 0.0
H109 H 0.43392 0.17588 0.57764 0.0
C110 C 0.43655 0.17886 0.50089 0.0
C111 C 0.4568 0.18395 0.46061 0.0
C112 C 0.53326 0.18253 0.60687 0.0
C113 C 0.48385 0.18605 0.55285 0.0
C114 C 0.54673 0.18143 0.65294 0.0
C115 C 0.52622 0.18444 0.69338 0.0
C116 C 0.499 0.18621 0.60123 0.0
C117 C 0.49217 0.18872 0.68633 0.0
C118 C 0.44992 0.1801 0.54702 0.0
C119 C 0.49049 0.19039 0.46789 0.0
N120 N 0.47954 0.18923 0.64102 0.0
N121 N 0.50305 0.19104 0.51322 0.0
H122 H 0.78066 0.50821 0.68648 0.0
H123 H 0.78602 0.47565 0.97019 0.0
H124 H 0.8023 0.41288 0.74889 0.0
H125 H 0.7983 0.57225 0.90657 0.0
H126 H 0.78268 0.45172 0.88927 0.0
H127 H 0.77777 0.5318 0.76761 0.0
C128 C 0.78466 0.49227 0.71727 0.0
C129 C 0.79199 0.45867 0.71115 0.0
C130 C 0.78602 0.47816 0.89315 0.0
C131 C 0.78849 0.48525 0.80353 0.0
C132 C 0.78785 0.49178 0.93919 0.0
C133 C 0.79271 0.52587 0.94487 0.0
C134 C 0.78866 0.4989 0.85277 0.0
C135 C 0.79485 0.54577 0.90366 0.0
C136 C 0.78308 0.50571 0.76343 0.0
C137 C 0.79687 0.439 0.75212 0.0
N138 N 0.7928 0.53199 0.85928 0.0
N139 N 0.79502 0.45259 0.79664 0.0
H140 H 0.40888 0.79754 0.15281 0.0
H141 H 0.57261 0.79931 -0.00436 0.0
H142 H 0.50588 0.78303 0.21411 0.0
H143 H 0.47605 0.78207 0.93434 0.0
H144 H 0.54863 0.79565 0.07601 0.0
H145 H 0.43289 0.79412 0.07241 0.0
C146 C 0.43526 0.79355 0.14928 0.0
C147 C 0.45553 0.79078 0.19004 0.0
C148 C 0.53271 0.79245 0.04502 0.0
C149 C 0.48312 0.78702 0.09829 0.0
C150 C 0.54632 0.79469 -0.00084 0.0
C151 C 0.52617 0.7912 0.9584 0.0
C152 C 0.49862 0.78715 0.05015 0.0
C153 C 0.49238 0.78498 0.96492 0.0
C154 C 0.4489 0.79145 0.10341 0.0
C155 C 0.48946 0.78536 0.18353 0.0
N156 N 0.47955 0.78345 0.01004 0.0
N157 N 0.50229 0.78397 0.1384 0.0
H158 H 0.17523 0.40755 0.40595 0.0
H159 H 0.17542 0.57017 0.2456 0.0
H160 H 0.19233 0.50471 0.46526 0.0
H161 H 0.19313 0.47312 0.18637 0.0
H162 H 0.17702 0.54659 0.32642 0.0
H163 H 0.17722 0.43109 0.3251 0.0
C164 C 0.1794 0.43388 0.4019 0.0
C165 C 0.18351 0.45431 0.44224 0.0
C166 C 0.1807 0.53048 0.29577 0.0
C167 C 0.18565 0.48132 0.34999 0.0
C168 C 0.17963 0.54386 0.24966 0.0
C169 C 0.18403 0.52347 0.20935 0.0
C170 C 0.18575 0.49641 0.30158 0.0
C171 C 0.18962 0.48964 0.21658 0.0
C172 C 0.18068 0.44723 0.35578 0.0
C173 C 0.18904 0.48816 0.43503 0.0
N174 N 0.19008 0.47707 0.26193 0.0
N175 N 0.18971 0.50069 0.38968 0.0
H176 H 0.37658 0.28861 0.3726 0.0
H177 H 0.20903 0.30177 0.52456 0.0
H178 H 0.30493 0.20964 0.37999 0.0
H179 H 0.28685 0.37483 0.52711 0.0
H180 H 0.24287 0.2676 0.47101 0.0
H181 H 0.34185 0.32175 0.42556 0.0
C182 C 0.35325 0.27844 0.38477 0.0
C183 C 0.34363 0.24632 0.37195 0.0
C184 C 0.25263 0.29097 0.48366 0.0
C185 C 0.304 0.28389 0.43346 0.0
C186 C 0.23346 0.31034 0.51455 0.0
C187 C 0.24517 0.34117 0.53026 0.0
C188 C 0.28359 0.30268 0.46828 0.0
C189 C 0.27686 0.35122 0.51587 0.0
C190 C 0.33356 0.29726 0.4154 0.0
C191 C 0.31321 0.23435 0.38893 0.0
N192 N 0.29484 0.33214 0.48544 0.0
N193 N 0.29453 0.25308 0.41911 0.0
H194 H 0.77252 0.30448 0.62861 0.0
H195 H 0.60593 0.28891 0.78215 0.0
H196 H 0.69305 0.37571 0.62518 0.0
H197 H 0.678 0.21044 0.77289 0.0
H198 H 0.63996 0.32245 0.72872 0.0
H199 H 0.73939 0.26975 0.68237 0.0
C200 C 0.74787 0.31251 0.63845 0.0
C201 C 0.7355 0.34303 0.62247 0.0
C202 C 0.6485 0.29798 0.73856 0.0
C203 C 0.6979 0.3039 0.68472 0.0
C204 C 0.62922 0.27894 0.76948 0.0
C205 C 0.63914 0.24683 0.7819 0.0
C206 C 0.67796 0.28486 0.71984 0.0
C207 C 0.66949 0.23513 0.76427 0.0
C208 C 0.72911 0.29283 0.66946 0.0
C209 C 0.70356 0.35237 0.63662 0.0
N210 N 0.68777 0.25408 0.73384 0.0
N211 N 0.68599 0.33302 0.66723 0.0
H212 H 0.77424 0.68065 0.0245 0.0
H213 H 0.60895 0.69297 0.86734 0.0
H214 H 0.69488 0.60931 0.02915 0.0
H215 H 0.67869 0.77338 0.87926 0.0
H216 H 0.64323 0.66017 0.92145 0.0
H217 H 0.74125 0.71459 0.9694 0.0
C218 C 0.74965 0.67244 0.01465 0.0
C219 C 0.73726 0.64212 0.03139 0.0
C220 C 0.6512 0.68491 0.91203 0.0
C221 C 0.69987 0.68029 0.96758 0.0
C222 C 0.6318 0.70352 0.8807 0.0
C223 C 0.64095 0.73597 0.8689 0.0
C224 C 0.68002 0.6988 0.93175 0.0
C225 C 0.67077 0.74842 0.88741 0.0
C226 C 0.73097 0.69166 0.98289 0.0
C227 C 0.70539 0.63252 0.01717 0.0
N228 N 0.68918 0.72987 0.91822 0.0
N229 N 0.68793 0.65139 0.98579 0.0
H230 H 0.28826 0.60296 0.12598 0.0
H231 H 0.30261 0.77288 0.27185 0.0
H232 H 0.21049 0.67606 0.12816 0.0
H233 H 0.37296 0.69291 0.28208 0.0
H234 H 0.26838 0.73867 0.21881 0.0
H235 H 0.3209 0.63767 0.17969 0.0
C236 C 0.27826 0.62659 0.13717 0.0
C237 C 0.24662 0.63664 0.12262 0.0
C238 C 0.29115 0.72852 0.23309 0.0
C239 C 0.2836 0.67627 0.18497 0.0
C240 C 0.31054 0.74791 0.26369 0.0
C241 C 0.34069 0.73571 0.2813 0.0
C242 C 0.30216 0.69685 0.21988 0.0
C243 C 0.34991 0.70331 0.26929 0.0
C244 C 0.29678 0.64627 0.16825 0.0
C245 C 0.23484 0.66744 0.13843 0.0
N246 N 0.33087 0.68513 0.23902 0.0
N247 N 0.25329 0.68613 0.16901 0.0
H248 H 0.46325 0.90881 0.32324 0.0
H249 H 0.35529 0.07471 0.31271 0.0
H250 H 0.35675 0.90865 0.33366 0.0
H251 H 0.46198 0.07167 0.31046 0.0
H252 H 0.35436 0.01404 0.31692 0.0
H253 H 0.46242 0.96874 0.31637 0.0
C254 C 0.43964 0.92145 0.32432 0.0
C255 C 0.41002 0.90376 0.32913 0.0
C256 C 0.37792 0.02672 0.31531 0.0
C257 C 0.40882 0.97261 0.32091 0.0
C258 C 0.37846 0.06127 0.31267 0.0
C259 C 0.40876 0.07817 0.31134 0.0
C260 C 0.4079 0.00914 0.3165 0.0
C261 C 0.43806 0.05965 0.31157 0.0
C262 C 0.43916 0.95573 0.32027 0.0
C263 C 0.38015 0.92143 0.33018 0.0
N264 N 0.43688 0.0262 0.31424 0.0
N265 N 0.38029 0.95498 0.326 0.0
H266 H 0.90854 0.46433 0.57372 0.0
H267 H 0.07276 0.35396 0.58738 0.0
H268 H 0.90673 0.35774 0.56613 0.0
H269 H 0.07119 0.46067 0.5903 0.0
H270 H 0.01214 0.35389 0.58177 0.0
H271 H 0.96847 0.46267 0.58046 0.0
C272 C 0.92083 0.44053 0.57319 0.0
C273 C 0.90267 0.41112 0.56933 0.0
C274 C 0.02512 0.37727 0.58383 0.0
C275 C 0.9715 0.40896 0.57747 0.0
C276 C 0.05965 0.37732 0.58726 0.0
C277 C 0.07695 0.40737 0.58924 0.0
C278 C 0.00798 0.4075 0.58243 0.0
C279 C 0.05885 0.43693 0.58875 0.0
C280 C 0.9551 0.43957 0.57719 0.0
C281 C 0.91988 0.38098 0.56891 0.0
N282 N 0.02542 0.43623 0.58529 0.0
N283 N 0.95343 0.38064 0.57308 0.0
H284 H 0.51903 0.90899 0.82264 0.0
H285 H 0.62773 0.07425 0.83883 0.0
H286 H 0.62567 0.90831 0.81567 0.0
H287 H 0.52102 0.07161 0.83993 0.0
H288 H 0.62842 0.01365 0.83291 0.0
H289 H 0.52009 0.96889 0.83008 0.0
C290 C 0.54272 0.92152 0.82241 0.0
C291 C 0.57231 0.90369 0.81849 0.0
C292 C 0.6049 0.0264 0.83464 0.0
C293 C 0.57378 0.97249 0.82742 0.0
C294 C 0.6045 0.06091 0.83825 0.0
C295 C 0.57427 0.07791 0.8398 0.0
C296 C 0.57485 0.00896 0.83265 0.0
C297 C 0.54489 0.05952 0.83872 0.0
C298 C 0.54333 0.95578 0.8268 0.0
C299 C 0.60229 0.9212 0.81848 0.0
N300 N 0.54593 0.02611 0.83511 0.0
N301 N 0.60228 0.95473 0.82302 0.0
H302 H 0.9087 0.62734 0.08946 0.0
H303 H 0.07244 0.51822 0.05674 0.0
H304 H 0.90999 0.52096 0.07689 0.0
H305 H 0.07464 0.6247 0.06696 0.0
H306 H 0.01245 0.51962 0.06248 0.0
H307 H 0.96919 0.62777 0.08142 0.0
C308 C 0.92173 0.60411 0.08535 0.0
C309 C 0.90438 0.57407 0.08389 0.0
C310 C 0.02592 0.54276 0.0633 0.0
C311 C 0.97319 0.57438 0.07427 0.0
C312 C 0.06023 0.54197 0.05986 0.0
C313 C 0.07851 0.57139 0.06148 0.0
C314 C 0.00963 0.57322 0.06861 0.0
C315 C 0.06139 0.60146 0.06551 0.0
C316 C 0.95617 0.60438 0.08055 0.0
C317 C 0.92236 0.54469 0.07825 0.0
N318 N 0.02782 0.60161 0.06919 0.0
N319 N 0.95572 0.54561 0.07359 0.0
H320 H 0.47909 0.21421 0.93456 0.0
H321 H 0.50535 0.21237 0.21993 0.0
H322 H 0.57406 0.20102 0.00283 0.0
H323 H 0.40995 0.20359 0.15144 0.0
H324 H 0.531 0.21834 0.14075 0.0
H325 H 0.45369 0.22044 0.01385 0.0
C326 C 0.49466 0.21299 0.96623 0.0
C327 C 0.52869 0.20679 0.96218 0.0
C328 C 0.50442 0.21538 0.14307 0.0
C329 C 0.49978 0.21383 0.05294 0.0
C330 C 0.48975 0.21208 0.18824 0.0
C331 C 0.4555 0.20718 0.19218 0.0
C332 C 0.48469 0.21391 0.10155 0.0
C333 C 0.43648 0.20708 0.14998 0.0
C334 C 0.48012 0.21645 0.01146 0.0
C335 C 0.54769 0.20554 0.00437 0.0
N336 N 0.45135 0.21019 0.10637 0.0
N337 N 0.53294 0.20883 0.04804 0.0
H338 H 0.76837 0.4807 0.1853 0.0
H339 H 0.77043 0.50648 0.47068 0.0
H340 H 0.7834 0.57537 0.25356 0.0
H341 H 0.7793 0.41114 0.40215 0.0
H342 H 0.76524 0.53228 0.39147 0.0
H343 H 0.76243 0.45524 0.2646 0.0
C344 C 0.77008 0.4962 0.21698 0.0
C345 C 0.77665 0.53016 0.21291 0.0
C346 C 0.76808 0.5057 0.39378 0.0
C347 C 0.76993 0.50117 0.30369 0.0
C348 C 0.77092 0.49093 0.43896 0.0
C349 C 0.77556 0.45664 0.44292 0.0
C350 C 0.7697 0.48602 0.35226 0.0
C351 C 0.77597 0.43769 0.40067 0.0
C352 C 0.76679 0.48162 0.26222 0.0
C353 C 0.77855 0.54906 0.25512 0.0
N354 N 0.77325 0.45266 0.35705 0.0
N355 N 0.77537 0.53427 0.2988 0.0
H356 H 0.57518 0.78177 0.64917 0.0
H357 H 0.40689 0.78249 0.49945 0.0
H358 H 0.47893 0.77247 0.71478 0.0
H359 H 0.50301 0.77225 0.43375 0.0
H360 H 0.43269 0.77729 0.57871 0.0
H361 H 0.54936 0.77673 0.56988 0.0
C362 C 0.54865 0.77836 0.64688 0.0
C363 C 0.52914 0.77772 0.68856 0.0
C364 C 0.44812 0.77587 0.54695 0.0
C365 C 0.49938 0.77228 0.59804 0.0
C366 C 0.43339 0.77885 0.50171 0.0
C367 C 0.45287 0.77798 0.46002 0.0
C368 C 0.48262 0.77235 0.55052 0.0
C369 C 0.48708 0.77315 0.465 0.0
C370 C 0.53391 0.77547 0.60163 0.0
C371 C 0.49489 0.77318 0.68355 0.0
N372 N 0.50091 0.77083 0.50944 0.0
N373 N 0.48107 0.77096 0.6391 0.0
H374 H 0.20415 0.57315 0.90079 0.0
H375 H 0.20279 0.40512 0.75095 0.0
H376 H 0.21221 0.4767 0.96621 0.0
H377 H 0.21123 0.50148 0.68535 0.0
H378 H 0.20931 0.43072 0.83009 0.0
H379 H 0.20986 0.54752 0.82154 0.0
C380 C 0.20747 0.54661 0.89848 0.0
C381 C 0.20745 0.52698 0.94007 0.0
C382 C 0.21009 0.44624 0.79838 0.0
C383 C 0.21365 0.49743 0.84956 0.0
C384 C 0.20635 0.43163 0.7532 0.0
C385 C 0.20622 0.45125 0.71159 0.0
C386 C 0.21336 0.48076 0.80199 0.0
C387 C 0.21104 0.48545 0.71654 0.0
C388 C 0.21074 0.53198 0.85324 0.0
C389 C 0.21195 0.49274 0.93503 0.0
N390 N 0.21406 0.49917 0.76095 0.0
N391 N 0.21451 0.47901 0.89058 0.0
loop_
_geom_bond_atom_site_label_1
_geom_bond_atom_site_label_2
_geom_bond_distance
_geom_bond_site_symmetry_2
_ccdc_geom_bond_type
In0 O1 2.294 . S
In0 O2 2.326 . S
In0 O6 2.266 . S
In0 O7 2.326 . S
In0 O8 2.266 . S
In0 O9 2.326 . S
In0 O11 2.294 . S
In0 O12 2.326 . S
O1 In0 2.294 . S
O1 C10 1.240 . S
O2 In0 2.326 . S
O2 C10 1.252 . S
C3 O6 1.252 . S
C3 O7 1.260 . S
C4 O11 1.240 . S
C4 O12 1.252 . S
C5 O8 1.252 . S
C5 O9 1.260 . S
O6 In0 2.266 . S
O6 C3 1.252 . S
O7 In0 2.326 . S
O7 C3 1.260 . S
O8 In0 2.266 . S
O8 C5 1.252 . S
O9 In0 2.326 . S
O9 C5 1.260 . S
C10 O1 1.240 . S
C10 O2 1.252 . S
O11 In0 2.294 . S
O11 C4 1.240 . S
O12 In0 2.326 . S
O12 C4 1.252 . S
In13 O14 2.294 . S
In13 O15 2.326 . S
In13 O19 2.266 . S
In13 O20 2.326 . S
In13 O21 2.266 . S
In13 O22 2.326 . S
In13 O24 2.294 . S
In13 O25 2.326 . S
O14 In13 2.294 . S
O14 C23 1.240 . S
O15 In13 2.326 . S
O15 C23 1.252 . S
C16 O19 1.252 . S
C16 O20 1.260 . S
C17 O24 1.240 . S
C17 O25 1.252 . S
C18 O21 1.252 . S
C18 O22 1.260 . S
O19 In13 2.266 . S
O19 C16 1.252 . S
O20 In13 2.326 . S
O20 C16 1.260 . S
O21 In13 2.266 . S
O21 C18 1.252 . S
O22 In13 2.326 . S
O22 C18 1.260 . S
C23 O14 1.240 . S
C23 O15 1.252 . S
O24 In13 2.294 . S
O24 C17 1.240 . S
O25 In13 2.326 . S
O25 C17 1.252 . S
In26 O27 2.294 . S
In26 O28 2.326 . S
In26 O32 2.266 . S
In26 O33 2.326 . S
In26 O34 2.266 . S
In26 O35 2.326 . S
In26 O37 2.294 . S
In26 O38 2.326 . S
O27 In26 2.294 . S
O27 C36 1.240 . S
O28 In26 2.326 . S
O28 C36 1.252 . S
C29 O32 1.252 . S
C29 O33 1.260 . S
C30 O37 1.240 . S
C30 O38 1.252 . S
C31 O34 1.252 . S
C31 O35 1.260 . S
O32 In26 2.266 . S
O32 C29 1.252 . S
O33 In26 2.326 . S
O33 C29 1.260 . S
O34 In26 2.266 . S
O34 C31 1.252 . S
O35 In26 2.326 . S
O35 C31 1.260 . S
C36 O27 1.240 . S
C36 O28 1.252 . S
O37 In26 2.294 . S
O37 C30 1.240 . S
O38 In26 2.326 . S
O38 C30 1.252 . S
In39 O40 2.294 . S
In39 O41 2.326 . S
In39 O45 2.266 . S
In39 O46 2.326 . S
In39 O47 2.266 . S
In39 O48 2.326 . S
In39 O50 2.294 . S
In39 O51 2.326 . S
O40 In39 2.294 . S
O40 C49 1.240 . S
O41 In39 2.326 . S
O41 C49 1.252 . S
C42 O45 1.252 . S
C42 O46 1.260 . S
C43 O50 1.240 . S
C43 O51 1.252 . S
C44 O47 1.252 . S
C44 O48 1.260 . S
O45 In39 2.266 . S
O45 C42 1.252 . S
O46 In39 2.326 . S
O46 C42 1.260 . S
O47 In39 2.266 . S
O47 C44 1.252 . S
O48 In39 2.326 . S
O48 C44 1.260 . S
C49 O40 1.240 . S
C49 O41 1.252 . S
O50 In39 2.294 . S
O50 C43 1.240 . S
O51 In39 2.326 . S
O51 C43 1.252 . S
In52 O53 2.294 . S
In52 O54 2.326 . S
In52 O58 2.266 . S
In52 O59 2.326 . S
In52 O60 2.266 . S
In52 O61 2.326 . S
In52 O63 2.294 . S
In52 O64 2.326 . S
O53 In52 2.294 . S
O53 C62 1.240 . S
O54 In52 2.326 . S
O54 C62 1.252 . S
C55 O58 1.252 . S
C55 O59 1.260 . S
C56 O63 1.240 . S
C56 O64 1.252 . S
C57 O60 1.252 . S
C57 O61 1.260 . S
O58 In52 2.266 . S
O58 C55 1.252 . S
O59 In52 2.326 . S
O59 C55 1.260 . S
O60 In52 2.266 . S
O60 C57 1.252 . S
O61 In52 2.326 . S
O61 C57 1.260 . S
C62 O53 1.240 . S
C62 O54 1.252 . S
O63 In52 2.294 . S
O63 C56 1.240 . S
O64 In52 2.326 . S
O64 C56 1.252 . S
In65 O66 2.294 . S
In65 O67 2.326 . S
In65 O71 2.266 . S
In65 O72 2.326 . S
In65 O73 2.266 . S
In65 O74 2.326 . S
In65 O76 2.294 . S
In65 O77 2.326 . S
O66 In65 2.294 . S
O66 C75 1.240 . S
O67 In65 2.326 . S
O67 C75 1.252 . S
C68 O71 1.252 . S
C68 O72 1.260 . S
C69 O76 1.240 . S
C69 O77 1.252 . S
C70 O73 1.252 . S
C70 O74 1.260 . S
O71 In65 2.266 . S
O71 C68 1.252 . S
O72 In65 2.326 . S
O72 C68 1.260 . S
O73 In65 2.266 . S
O73 C70 1.252 . S
O74 In65 2.326 . S
O74 C70 1.260 . S
C75 O66 1.240 . S
C75 O67 1.252 . S
O76 In65 2.294 . S
O76 C69 1.240 . S
O77 In65 2.326 . S
O77 C69 1.252 . S
In78 O79 2.294 . S
In78 O80 2.326 . S
In78 O84 2.266 . S
In78 O85 2.326 . S
In78 O86 2.266 . S
In78 O87 2.326 . S
In78 O89 2.294 . S
In78 O90 2.326 . S
O79 In78 2.294 . S
O79 C88 1.240 . S
O80 In78 2.326 . S
O80 C88 1.252 . S
C81 O84 1.252 . S
C81 O85 1.260 . S
C82 O89 1.240 . S
C82 O90 1.252 . S
C83 O86 1.252 . S
C83 O87 1.260 . S
O84 In78 2.266 . S
O84 C81 1.252 . S
O85 In78 2.326 . S
O85 C81 1.260 . S
O86 In78 2.266 . S
O86 C83 1.252 . S
O87 In78 2.326 . S
O87 C83 1.260 . S
C88 O79 1.240 . S
C88 O80 1.252 . S
O89 In78 2.294 . S
O89 C82 1.240 . S
O90 In78 2.326 . S
O90 C82 1.252 . S
In91 O92 2.294 . S
In91 O93 2.326 1_554 S
In91 O97 2.266 . S
In91 O98 2.326 . S
In91 O99 2.266 . S
In91 O100 2.326 . S
In91 O102 2.294 . S
In91 O103 2.326 . S
O92 In91 2.294 . S
O92 C101 1.240 1_554 S
O93 In91 2.326 1_556 S
O93 C101 1.252 . S
C94 O97 1.252 . S
C94 O98 1.260 . S
C95 O102 1.240 . S
C95 O103 1.252 . S
C96 O99 1.252 . S
C96 O100 1.260 . S
O97 In91 2.266 . S
O97 C94 1.252 . S
O98 In91 2.326 . S
O98 C94 1.260 . S
O99 In91 2.266 . S
O99 C96 1.252 . S
O100 In91 2.326 . S
O100 C96 1.260 . S
C101 O92 1.240 1_556 S
C101 O93 1.252 . S
O102 In91 2.294 . S
O102 C95 1.240 . S
O103 In91 2.326 . S
O103 C95 1.252 . S
H104 C110 0.930 . S
H105 C114 0.930 . S
H106 C119 0.929 . S
H107 C117 0.929 . S
H108 C112 0.929 . S
H109 C118 0.929 . S
C110 H104 0.930 . S
C110 C111 1.367 . S
C110 C118 1.378 . S
C111 C110 1.367 . S
C111 C119 1.433 . S
C112 H108 0.929 . S
C112 C114 1.378 . S
C112 C116 1.350 . S
C113 C116 1.463 . S
C113 C118 1.350 . S
C113 N121 1.427 . S
C114 H105 0.930 . S
C114 C112 1.378 . S
C114 C115 1.367 . S
C115 C114 1.367 . S
C115 C117 1.433 . S
C116 C112 1.350 . S
C116 C113 1.463 . S
C116 N120 1.427 . S
C117 H107 0.929 . S
C117 C115 1.433 . S
C117 N120 1.384 . S
C118 H109 0.929 . S
C118 C110 1.378 . S
C118 C113 1.350 . S
C119 H106 0.929 . S
C119 C111 1.433 . S
C119 N121 1.384 . S
N120 C116 1.427 . S
N120 C117 1.384 . S
N121 C113 1.427 . S
N121 C119 1.384 . S
H122 C128 0.930 . S
H123 C132 0.930 . S
H124 C137 0.929 . S
H125 C135 0.929 . S
H126 C130 0.929 . S
H127 C136 0.929 . S
C128 H122 0.930 . S
C128 C129 1.367 . S
C128 C136 1.378 . S
C129 C128 1.367 . S
C129 C137 1.433 . S
C130 H126 0.929 . S
C130 C132 1.378 . S
C130 C134 1.350 . S
C131 C134 1.463 . S
C131 C136 1.350 . S
C131 N139 1.427 . S
C132 H123 0.930 . S
C132 C130 1.378 . S
C132 C133 1.367 . S
C133 C132 1.367 . S
C133 C135 1.433 . S
C134 C130 1.350 . S
C134 C131 1.463 . S
C134 N138 1.427 . S
C135 H125 0.929 . S
C135 C133 1.433 . S
C135 N138 1.384 . S
C136 H127 0.929 . S
C136 C128 1.378 . S
C136 C131 1.350 . S
C137 H124 0.929 . S
C137 C129 1.433 . S
C137 N139 1.384 . S
N138 C134 1.427 . S
N138 C135 1.384 . S
N139 C131 1.427 . S
N139 C137 1.384 . S
H140 C146 0.930 . S
H141 C150 0.930 . S
H142 C155 0.929 . S
H143 C153 0.929 . S
H144 C148 0.929 . S
H145 C154 0.929 . S
C146 H140 0.930 . S
C146 C147 1.367 . S
C146 C154 1.378 . S
C147 C146 1.367 . S
C147 C155 1.433 . S
C148 H144 0.929 . S
C148 C150 1.378 1_554 S
C148 C152 1.350 . S
C149 C152 1.463 . S
C149 C154 1.350 . S
C149 N157 1.427 . S
C150 H141 0.930 . S
C150 C148 1.378 1_556 S
C150 C151 1.367 . S
C151 C150 1.367 . S
C151 C153 1.433 . S
C152 C148 1.350 . S
C152 C149 1.463 . S
C152 N156 1.427 . S
C153 H143 0.929 . S
C153 C151 1.433 . S
C153 N156 1.384 1_556 S
C154 H145 0.929 . S
C154 C146 1.378 . S
C154 C149 1.350 . S
C155 H142 0.929 . S
C155 C147 1.433 . S
C155 N157 1.384 . S
N156 C152 1.427 . S
N156 C153 1.384 1_554 S
N157 C149 1.427 . S
N157 C155 1.384 . S
H158 C164 0.930 . S
H159 C168 0.930 . S
H160 C173 0.929 . S
H161 C171 0.929 . S
H162 C166 0.929 . S
H163 C172 0.929 . S
C164 H158 0.930 . S
C164 C165 1.367 . S
C164 C172 1.378 . S
C165 C164 1.367 . S
C165 C173 1.433 . S
C166 H162 0.929 . S
C166 C168 1.378 . S
C166 C170 1.350 . S
C167 C170 1.463 . S
C167 C172 1.350 . S
C167 N175 1.427 . S
C168 H159 0.930 . S
C168 C166 1.378 . S
C168 C169 1.367 . S
C169 C168 1.367 . S
C169 C171 1.433 . S
C170 C166 1.350 . S
C170 C167 1.463 . S
C170 N174 1.427 . S
C171 H161 0.929 . S
C171 C169 1.433 . S
C171 N174 1.384 . S
C172 H163 0.929 . S
C172 C164 1.378 . S
C172 C167 1.350 . S
C173 H160 0.929 . S
C173 C165 1.433 . S
C173 N175 1.384 . S
N174 C170 1.427 . S
N174 C171 1.384 . S
N175 C167 1.427 . S
N175 C173 1.384 . S
H176 C182 0.930 . S
H177 C186 0.930 . S
H178 C191 0.929 . S
H179 C189 0.929 . S
H180 C184 0.929 . S
H181 C190 0.929 . S
C182 H176 0.930 . S
C182 C183 1.367 . S
C182 C190 1.378 . S
C183 C182 1.367 . S
C183 C191 1.433 . S
C184 H180 0.929 . S
C184 C186 1.378 . S
C184 C188 1.350 . S
C185 C188 1.463 . S
C185 C190 1.350 . S
C185 N193 1.427 . S
C186 H177 0.930 . S
C186 C184 1.378 . S
C186 C187 1.367 . S
C187 C186 1.367 . S
C187 C189 1.433 . S
C188 C184 1.350 . S
C188 C185 1.463 . S
C188 N192 1.427 . S
C189 H179 0.929 . S
C189 C187 1.433 . S
C189 N192 1.384 . S
C190 H181 0.929 . S
C190 C182 1.378 . S
C190 C185 1.350 . S
C191 H178 0.929 . S
C191 C183 1.433 . S
C191 N193 1.384 . S
N192 C188 1.427 . S
N192 C189 1.384 . S
N193 C185 1.427 . S
N193 C191 1.384 . S
H194 C200 0.930 . S
H195 C204 0.930 . S
H196 C209 0.929 . S
H197 C207 0.929 . S
H198 C202 0.929 . S
H199 C208 0.929 . S
C200 H194 0.930 . S
C200 C201 1.367 . S
C200 C208 1.378 . S
C201 C200 1.367 . S
C201 C209 1.433 . S
C202 H198 0.929 . S
C202 C204 1.378 . S
C202 C206 1.350 . S
C203 C206 1.463 . S
C203 C208 1.350 . S
C203 N211 1.427 . S
C204 H195 0.930 . S
C204 C202 1.378 . S
C204 C205 1.367 . S
C205 C204 1.367 . S
C205 C207 1.433 . S
C206 C202 1.350 . S
C206 C203 1.463 . S
C206 N210 1.427 . S
C207 H197 0.929 . S
C207 C205 1.433 . S
C207 N210 1.384 . S
C208 H199 0.929 . S
C208 C200 1.378 . S
C208 C203 1.350 . S
C209 H196 0.929 . S
C209 C201 1.433 . S
C209 N211 1.384 . S
N210 C206 1.427 . S
N210 C207 1.384 . S
N211 C203 1.427 . S
N211 C209 1.384 . S
H212 C218 0.930 . S
H213 C222 0.930 . S
H214 C227 0.929 . S
H215 C225 0.929 . S
H216 C220 0.929 . S
H217 C226 0.929 . S
C218 H212 0.930 . S
C218 C219 1.367 . S
C218 C226 1.378 . S
C219 C218 1.367 . S
C219 C227 1.433 1_554 S
C220 H216 0.929 . S
C220 C222 1.378 . S
C220 C224 1.350 . S
C221 C224 1.463 . S
C221 C226 1.350 1_556 S
C221 N229 1.427 . S
C222 H213 0.930 . S
C222 C220 1.378 . S
C222 C223 1.367 . S
C223 C222 1.367 . S
C223 C225 1.433 . S
C224 C220 1.350 . S
C224 C221 1.463 . S
C224 N228 1.427 . S
C225 H215 0.929 . S
C225 C223 1.433 . S
C225 N228 1.384 . S
C226 H217 0.929 . S
C226 C218 1.378 . S
C226 C221 1.350 1_554 S
C227 H214 0.929 . S
C227 C219 1.433 1_556 S
C227 N229 1.384 . S
N228 C224 1.427 . S
N228 C225 1.384 . S
N229 C221 1.427 . S
N229 C227 1.384 . S
H230 C236 0.930 . S
H231 C240 0.930 . S
H232 C245 0.929 . S
H233 C243 0.929 . S
H234 C238 0.929 . S
H235 C244 0.929 . S
C236 H230 0.930 . S
C236 C237 1.367 . S
C236 C244 1.378 . S
C237 C236 1.367 . S
C237 C245 1.433 . S
C238 H234 0.929 . S
C238 C240 1.378 . S
C238 C242 1.350 . S
C239 C242 1.463 . S
C239 C244 1.350 . S
C239 N247 1.427 . S
C240 H231 0.930 . S
C240 C238 1.378 . S
C240 C241 1.367 . S
C241 C240 1.367 . S
C241 C243 1.433 . S
C242 C238 1.350 . S
C242 C239 1.463 . S
C242 N246 1.427 . S
C243 H233 0.929 . S
C243 C241 1.433 . S
C243 N246 1.384 . S
C244 H235 0.929 . S
C244 C236 1.378 . S
C244 C239 1.350 . S
C245 H232 0.929 . S
C245 C237 1.433 . S
C245 N247 1.384 . S
N246 C242 1.427 . S
N246 C243 1.384 . S
N247 C239 1.427 . S
N247 C245 1.384 . S
H248 C254 0.930 . S
H249 C258 0.930 . S
H250 C263 0.929 . S
H251 C261 0.929 . S
H252 C256 0.929 . S
H253 C262 0.929 . S
C254 H248 0.930 . S
C254 C255 1.367 . S
C254 C262 1.378 . S
C255 C254 1.367 . S
C255 C263 1.433 . S
C256 H252 0.929 . S
C256 C258 1.378 . S
C256 C260 1.350 . S
C257 C260 1.463 1_565 S
C257 C262 1.350 . S
C257 N265 1.427 . S
C258 H249 0.930 . S
C258 C256 1.378 . S
C258 C259 1.367 . S
C259 C258 1.367 . S
C259 C261 1.433 . S
C260 C256 1.350 . S
C260 C257 1.463 1_545 S
C260 N264 1.427 . S
C261 H251 0.929 . S
C261 C259 1.433 . S
C261 N264 1.384 . S
C262 H253 0.929 . S
C262 C254 1.378 . S
C262 C257 1.350 . S
C263 H250 0.929 . S
C263 C255 1.433 . S
C263 N265 1.384 . S
N264 C260 1.427 . S
N264 C261 1.384 . S
N265 C257 1.427 . S
N265 C263 1.384 . S
H266 C272 0.930 . S
H267 C276 0.930 . S
H268 C281 0.929 . S
H269 C279 0.929 . S
H270 C274 0.929 . S
H271 C280 0.929 . S
C272 H266 0.930 . S
C272 C273 1.367 . S
C272 C280 1.378 . S
C273 C272 1.367 . S
C273 C281 1.433 . S
C274 H270 0.929 . S
C274 C276 1.378 . S
C274 C278 1.350 . S
C275 C278 1.463 1_655 S
C275 C280 1.350 . S
C275 N283 1.427 . S
C276 H267 0.930 . S
C276 C274 1.378 . S
C276 C277 1.367 . S
C277 C276 1.367 . S
C277 C279 1.433 . S
C278 C274 1.350 . S
C278 C275 1.463 1_455 S
C278 N282 1.427 . S
C279 H269 0.929 . S
C279 C277 1.433 . S
C279 N282 1.384 . S
C280 H271 0.929 . S
C280 C272 1.378 . S
C280 C275 1.350 . S
C281 H268 0.929 . S
C281 C273 1.433 . S
C281 N283 1.384 . S
N282 C278 1.427 . S
N282 C279 1.384 . S
N283 C275 1.427 . S
N283 C281 1.384 . S
H284 C290 0.930 . S
H285 C294 0.930 . S
H286 C299 0.929 . S
H287 C297 0.929 . S
H288 C292 0.929 . S
H289 C298 0.929 . S
C290 H284 0.930 . S
C290 C291 1.367 . S
C290 C298 1.378 . S
C291 C290 1.367 . S
C291 C299 1.433 . S
C292 H288 0.929 . S
C292 C294 1.378 . S
C292 C296 1.350 . S
C293 C296 1.463 1_565 S
C293 C298 1.350 . S
C293 N301 1.427 . S
C294 H285 0.930 . S
C294 C292 1.378 . S
C294 C295 1.367 . S
C295 C294 1.367 . S
C295 C297 1.433 . S
C296 C292 1.350 . S
C296 C293 1.463 1_545 S
C296 N300 1.427 . S
C297 H287 0.929 . S
C297 C295 1.433 . S
C297 N300 1.384 . S
C298 H289 0.929 . S
C298 C290 1.378 . S
C298 C293 1.350 . S
C299 H286 0.929 . S
C299 C291 1.433 . S
C299 N301 1.384 . S
N300 C296 1.427 . S
N300 C297 1.384 . S
N301 C293 1.427 . S
N301 C299 1.384 . S
H302 C308 0.930 . S
H303 C312 0.930 . S
H304 C317 0.929 . S
H305 C315 0.929 . S
H306 C310 0.929 . S
H307 C316 0.929 . S
C308 H302 0.930 . S
C308 C309 1.367 . S
C308 C316 1.378 . S
C309 C308 1.367 . S
C309 C317 1.433 . S
C310 H306 0.929 . S
C310 C312 1.378 . S
C310 C314 1.350 . S
C311 C314 1.463 1_655 S
C311 C316 1.350 . S
C311 N319 1.427 . S
C312 H303 0.930 . S
C312 C310 1.378 . S
C312 C313 1.367 . S
C313 C312 1.367 . S
C313 C315 1.433 . S
C314 C310 1.350 . S
C314 C311 1.463 1_455 S
C314 N318 1.427 . S
C315 H305 0.929 . S
C315 C313 1.433 . S
C315 N318 1.384 . S
C316 H307 0.929 . S
C316 C308 1.378 . S
C316 C311 1.350 . S
C317 H304 0.929 . S
C317 C309 1.433 . S
C317 N319 1.384 . S
N318 C314 1.427 . S
N318 C315 1.384 . S
N319 C311 1.427 . S
N319 C317 1.384 . S
H320 C326 0.930 . S
H321 C330 0.930 . S
H322 C335 0.929 . S
H323 C333 0.929 . S
H324 C328 0.929 . S
H325 C334 0.929 . S
C326 H320 0.930 . S
C326 C327 1.367 . S
C326 C334 1.378 1_556 S
C327 C326 1.367 . S
C327 C335 1.433 . S
C328 H324 0.929 . S
C328 C330 1.378 . S
C328 C332 1.350 . S
C329 C332 1.463 . S
C329 C334 1.350 . S
C329 N337 1.427 . S
C330 H321 0.930 . S
C330 C328 1.378 . S
C330 C331 1.367 . S
C331 C330 1.367 . S
C331 C333 1.433 . S
C332 C328 1.350 . S
C332 C329 1.463 . S
C332 N336 1.427 . S
C333 H323 0.929 . S
C333 C331 1.433 . S
C333 N336 1.384 . S
C334 H325 0.929 . S
C334 C326 1.378 1_554 S
C334 C329 1.350 . S
C335 H322 0.929 . S
C335 C327 1.433 . S
C335 N337 1.384 1_556 S
N336 C332 1.427 . S
N336 C333 1.384 . S
N337 C329 1.427 . S
N337 C335 1.384 1_554 S
H338 C344 0.930 . S
H339 C348 0.930 . S
H340 C353 0.929 . S
H341 C351 0.929 . S
H342 C346 0.929 . S
H343 C352 0.929 . S
C344 H338 0.930 . S
C344 C345 1.367 . S
C344 C352 1.378 . S
C345 C344 1.367 . S
C345 C353 1.433 . S
C346 H342 0.929 . S
C346 C348 1.378 . S
C346 C350 1.350 . S
C347 C350 1.463 . S
C347 C352 1.350 . S
C347 N355 1.427 . S
C348 H339 0.930 . S
C348 C346 1.378 . S
C348 C349 1.367 . S
C349 C348 1.367 . S
C349 C351 1.433 . S
C350 C346 1.350 . S
C350 C347 1.463 . S
C350 N354 1.427 . S
C351 H341 0.929 . S
C351 C349 1.433 . S
C351 N354 1.384 . S
C352 H343 0.929 . S
C352 C344 1.378 . S
C352 C347 1.350 . S
C353 H340 0.929 . S
C353 C345 1.433 . S
C353 N355 1.384 . S
N354 C350 1.427 . S
N354 C351 1.384 . S
N355 C347 1.427 . S
N355 C353 1.384 . S
H356 C362 0.930 . S
H357 C366 0.930 . S
H358 C371 0.929 . S
H359 C369 0.929 . S
H360 C364 0.929 . S
H361 C370 0.929 . S
C362 H356 0.930 . S
C362 C363 1.367 . S
C362 C370 1.378 . S
C363 C362 1.367 . S
C363 C371 1.433 . S
C364 H360 0.929 . S
C364 C366 1.378 . S
C364 C368 1.350 . S
C365 C368 1.463 . S
C365 C370 1.350 . S
C365 N373 1.427 . S
C366 H357 0.930 . S
C366 C364 1.378 . S
C366 C367 1.367 . S
C367 C366 1.367 . S
C367 C369 1.433 . S
C368 C364 1.350 . S
C368 C365 1.463 . S
C368 N372 1.427 . S
C369 H359 0.929 . S
C369 C367 1.433 . S
C369 N372 1.384 . S
C370 H361 0.929 . S
C370 C362 1.378 . S
C370 C365 1.350 . S
C371 H358 0.929 . S
C371 C363 1.433 . S
C371 N373 1.384 . S
N372 C368 1.427 . S
N372 C369 1.384 . S
N373 C365 1.427 . S
N373 C371 1.384 . S
H374 C380 0.930 . S
H375 C384 0.930 . S
H376 C389 0.929 . S
H377 C387 0.929 . S
H378 C382 0.929 . S
H379 C388 0.929 . S
C380 H374 0.930 . S
C380 C381 1.367 . S
C380 C388 1.378 . S
C381 C380 1.367 . S
C381 C389 1.433 . S
C382 H378 0.929 . S
C382 C384 1.378 . S
C382 C386 1.350 . S
C383 C386 1.463 . S
C383 C388 1.350 . S
C383 N391 1.427 . S
C384 H375 0.930 . S
C384 C382 1.378 . S
C384 C385 1.367 . S
C385 C384 1.367 . S
C385 C387 1.433 . S
C386 C382 1.350 . S
C386 C383 1.463 . S
C386 N390 1.427 . S
C387 H377 0.929 . S
C387 C385 1.433 . S
C387 N390 1.384 . S
C388 H379 0.929 . S
C388 C380 1.378 . S
C388 C383 1.350 . S
C389 H376 0.929 . S
C389 C381 1.433 . S
C389 N391 1.384 . S
N390 C386 1.427 . S
N390 C387 1.384 . S
N391 C383 1.427 . S
N391 C389 1.384 . S
C111 C4 0.686 . S
C115 C88 0.689 . S
C129 C23 0.700 . S
C133 C101 0.695 . S
C147 C56 0.688 . S
C151 C30 0.686 . S
C165 C75 0.687 . S
C169 C49 0.690 . S
C183 C10 1.540 . S
C187 C69 1.540 . S
C201 C17 1.540 . S
C205 C82 1.541 . S
C219 C95 1.547 . S
C223 C36 1.548 . S
C237 C43 1.540 . S
C241 C62 1.540 . S
C255 C55 1.582 . S
C259 C3 1.583 . S
C273 C18 1.583 . S
C277 C70 1.585 . S
C291 C29 1.584 . S
C295 C83 1.586 . S
C309 C96 1.586 . S
C313 C44 1.585 . S
C327 C81 1.681 . S
C331 C5 1.678 . S
C345 C94 1.681 . S
C349 C16 1.678 . S
C363 C31 1.678 . S
C367 C57 1.680 . S
C381 C42 1.680 1_556 S
C385 C68 1.678 . S
