# Generated by pormake.
# Topology vma, (5)-cn, num edge types: 1
# Building blocks:
#     Node 0, Type 0, BuildingBlock: XOMCOT_clean_sbu_1, # of connection points: 5
#     Node 1, Type 0, BuildingBlock: XOMCOT_clean_sbu_1, # of connection points: 5
#     Node 2, Type 0, BuildingBlock: XOMCOT_clean_sbu_1, # of connection points: 5
#     Node 3, Type 0, BuildingBlock: XOMCOT_clean_sbu_1, # of connection points: 5
#     Node 4, Type 0, BuildingBlock: XOMCOT_clean_sbu_1, # of connection points: 5
#     Node 5, Type 0, BuildingBlock: XOMCOT_clean_sbu_1, # of connection points: 5
#     Node 6, Type 0, BuildingBlock: XOMCOT_clean_sbu_1, # of connection points: 5
#     Node 7, Type 0, BuildingBlock: XOMCOT_clean_sbu_1, # of connection points: 5
#     Edge 8, Type (0, 0), BuildingBlock: XIVTED_clean_linker_0, # of connection points: 2
#     Edge 9, Type (0, 0), BuildingBlock: XIVTED_clean_linker_0, # of connection points: 2
#     Edge 10, Type (0, 0), BuildingBlock: XIVTED_clean_linker_0, # of connection points: 2
#     Edge 11, Type (0, 0), BuildingBlock: XIVTED_clean_linker_0, # of connection points: 2
#     Edge 12, Type (0, 0), BuildingBlock: XIVTED_clean_linker_0, # of connection points: 2
#     Edge 13, Type (0, 0), BuildingBlock: XIVTED_clean_linker_0, # of connection points: 2
#     Edge 14, Type (0, 0), BuildingBlock: XIVTED_clean_linker_0, # of connection points: 2
#     Edge 15, Type (0, 0), BuildingBlock: XIVTED_clean_linker_0, # of connection points: 2
#     Edge 16, Type (0, 0), BuildingBlock: XIVTED_clean_linker_0, # of connection points: 2
#     Edge 17, Type (0, 0), BuildingBlock: XIVTED_clean_linker_0, # of connection points: 2
#     Edge 18, Type (0, 0), BuildingBlock: XIVTED_clean_linker_0, # of connection points: 2
#     Edge 19, Type (0, 0), BuildingBlock: XIVTED_clean_linker_0, # of connection points: 2
#     Edge 20, Type (0, 0), BuildingBlock: XIVTED_clean_linker_0, # of connection points: 2
#     Edge 21, Type (0, 0), BuildingBlock: XIVTED_clean_linker_0, # of connection points: 2
#     Edge 22, Type (0, 0), BuildingBlock: XIVTED_clean_linker_0, # of connection points: 2
#     Edge 23, Type (0, 0), BuildingBlock: XIVTED_clean_linker_0, # of connection points: 2
#     Edge 24, Type (0, 0), BuildingBlock: XIVTED_clean_linker_0, # of connection points: 2
#     Edge 25, Type (0, 0), BuildingBlock: XIVTED_clean_linker_0, # of connection points: 2
#     Edge 26, Type (0, 0), BuildingBlock: XIVTED_clean_linker_0, # of connection points: 2
#     Edge 27, Type (0, 0), BuildingBlock: XIVTED_clean_linker_0, # of connection points: 2
# Relax obj value: 0.095
# Max RMSD: 0.173
# Mean RMSD: 0.170
data_MOF--net-vma--node1-XOMCOT_clean_sbu_1--edge1-XIVTED_clean_linker_0
_symmetry_space_group_name_H-M    P1
_symmetry_Int_Tables_number       1
_symmetry_cell_setting            triclinic
loop_
_symmetry_equiv_pos_as_xyz
'x, y, z'
_cell_length_a     40.81797
_cell_length_b     29.200439
_cell_length_c     36.049106
_cell_angle_alpha  90.25899
_cell_angle_beta   100.11024
_cell_angle_gamma 89.978525
loop_
_atom_site_label
_atom_site_type_symbol
_atom_site_fract_x
_atom_site_fract_y
_atom_site_fract_z
_atom_type_partial_charge
C0 C 0.36524 0.11047 0.31184 0.0
C1 C 0.3918 0.11195 0.29318 0.0
N2 N 0.41953 0.09982 0.3173 0.0
N3 N 0.37578 0.09719 0.34766 0.0
C4 C 0.40901 0.09092 0.35021 0.0
H5 H 0.33975 0.11893 0.30008 0.0
Co6 Co 0.3471 0.0931 0.38279 0.0
C7 C 0.38561 0.049 0.45152 0.0
O8 O 0.35824 0.03222 0.46053 0.0
N9 N 0.31672 0.0902 0.41797 0.0
C10 C 0.27238 0.07545 0.44459 0.0
C11 C 0.29095 0.06109 0.41833 0.0
C12 C 0.31328 0.12147 0.44502 0.0
N13 N 0.28618 0.11392 0.46104 0.0
O14 O 0.35634 0.15567 0.39546 0.0
H15 H 0.28486 0.03199 0.39987 0.0
H16 H 0.32974 0.15039 0.45207 0.0
O17 O 0.38417 0.07272 0.4215 0.0
C18 C 0.33141 0.17756 0.37783 0.0
O19 O 0.30645 0.15448 0.3585 0.0
N20 N 0.33563 0.03426 0.3654 0.0
C21 C 0.30867 0.95675 0.32653 0.0
C22 C 0.33609 0.95298 0.35601 0.0
C23 C 0.34976 -0.00742 0.3748 0.0
C24 C 0.30948 0.03825 0.3364 0.0
C25 C 0.29562 8e-05 0.31663 0.0
H26 H 0.37162 -0.01053 0.39626 0.0
H27 H 0.299 0.07162 0.32891 0.0
H28 H 0.42526 0.08096 0.37583 0.0
H29 H 0.39054 0.12107 0.26391 0.0
H30 H 0.24932 0.06027 0.44941 0.0
H31 H 0.34711 0.91992 0.36395 0.0
H32 H 0.27437 0.00439 0.29425 0.0
C33 C 0.70333 0.07989 0.25888 0.0
C34 C 0.67732 0.08058 0.27854 0.0
N35 N 0.64865 0.08488 0.25374 0.0
N36 N 0.69129 0.08337 0.22174 0.0
C37 C 0.65791 0.0868 0.21948 0.0
H38 H 0.72946 0.07698 0.27088 0.0
Co39 Co 0.71755 0.08349 0.18393 0.0
C40 C 0.67545 0.03462 0.12029 0.0
O41 O 0.70107 0.01002 0.11479 0.0
N42 N 0.74516 0.08458 0.14524 0.0
C43 C 0.78267 0.06772 0.10874 0.0
C44 C 0.76425 0.05091 0.13412 0.0
C45 C 0.75248 0.12144 0.12528 0.0
N46 N 0.77552 0.11236 0.10345 0.0
O47 O 0.70693 0.14637 0.17555 0.0
H48 H 0.76538 0.01594 0.14389 0.0
H49 H 0.74145 0.15483 0.12677 0.0
O50 O 0.67889 0.06442 0.14678 0.0
C51 C 0.7308 0.16617 0.19727 0.0
O52 O 0.7546 0.14095 0.21629 0.0
N53 N 0.73063 0.024 0.19748 0.0
C54 C 0.7558 0.94758 0.2388 0.0
C55 C 0.72268 0.94823 0.21957 0.0
C56 C 0.71037 -0.01279 0.19927 0.0
C57 C 0.76268 0.02383 0.2162 0.0
C58 C 0.77595 -0.01424 0.23636 0.0
H59 H 0.68423 -0.0111 0.18723 0.0
H60 H 0.77773 0.05435 0.21661 0.0
H61 H 0.64069 0.09019 0.19321 0.0
H62 H 0.67949 0.07874 0.30885 0.0
H63 H 0.80089 0.04882 0.09637 0.0
H64 H 0.70617 0.9196 0.2213 0.0
H65 H 0.80125 -0.01266 0.25169 0.0
C66 C 0.65963 0.96088 0.62891 0.0
C67 C 0.6356 0.98258 0.6036 0.0
N68 N 0.6068 0.95928 0.60148 0.0
N69 N 0.64619 0.92402 0.64286 0.0
C70 C 0.61399 0.9238 0.62561 0.0
H71 H 0.68527 0.97155 0.63707 0.0
Co72 Co 0.66953 0.88479 0.67885 0.0
C73 C 0.61567 0.83337 0.70461 0.0
O74 O 0.62883 0.79479 0.69541 0.0
N75 N 0.69315 0.84571 0.71494 0.0
C76 C 0.71358 0.81186 0.76917 0.0
C77 C 0.6916 0.84423 0.75203 0.0
C78 C 0.71611 0.81392 0.71017 0.0
N79 N 0.72887 0.79281 0.74272 0.0
O80 O 0.66306 0.83497 0.64307 0.0
H81 H 0.67552 0.86546 0.76575 0.0
H82 H 0.72375 0.80671 0.68351 0.0
O83 O 0.62895 0.87139 0.69815 0.0
C84 C 0.68325 0.83982 0.62003 0.0
O85 O 0.7022 0.8765 0.62317 0.0
N86 N 0.67875 0.93418 0.7121 0.0
C87 C 0.69937 0.01243 0.75402 0.0
C88 C 0.66535 0.00261 0.74334 0.0
C89 C 0.65548 0.96287 0.72245 0.0
C90 C 0.71182 0.94346 0.72212 0.0
C91 C 0.72269 0.98193 0.74366 0.0
H92 H 0.62927 0.95631 0.71311 0.0
H93 H 0.7299 0.92136 0.71245 0.0
H94 H 0.59627 0.89798 0.63055 0.0
H95 H 0.63899 0.01376 0.58862 0.0
H96 H 0.71754 0.80242 0.79862 0.0
H97 H 0.64668 0.02588 0.75039 0.0
H98 H 0.74913 -0.01102 0.75053 0.0
C99 C 0.39718 0.96335 0.94547 0.0
C100 C 0.42191 -0.01584 0.97072 0.0
N101 N 0.45008 0.95949 0.97246 0.0
N102 N 0.40958 0.92573 0.93119 0.0
C103 C 0.4418 0.92409 0.94824 0.0
H104 H 0.37183 0.97527 0.93746 0.0
Co105 Co 0.38572 0.88728 0.89466 0.0
C106 C 0.43902 0.83488 0.86793 0.0
O107 O 0.42512 0.79626 0.87552 0.0
N108 N 0.36167 0.8489 0.85791 0.0
C109 C 0.34117 0.81633 0.8029 0.0
C110 C 0.36337 0.84808 0.82083 0.0
C111 C 0.33842 0.81724 0.86188 0.0
N112 N 0.32558 0.79694 0.82881 0.0
O113 O 0.39126 0.83732 0.92992 0.0
H114 H 0.37972 0.86932 0.80765 0.0
H115 H 0.33068 0.8095 0.88835 0.0
O116 O 0.42622 0.8729 0.87552 0.0
C117 C 0.37094 0.84308 0.95274 0.0
O118 O 0.35235 0.88009 0.9493 0.0
N119 N 0.37748 0.93696 0.86198 0.0
C120 C 0.35845 0.01515 0.81995 0.0
C121 C 0.39226 0.00452 0.83106 0.0
C122 C 0.40134 0.96482 0.852 0.0
C123 C 0.3446 0.94719 0.85171 0.0
C124 C 0.33451 -0.01435 0.83009 0.0
H125 H 0.42739 0.95757 0.86158 0.0
H126 H 0.32607 0.92575 0.86109 0.0
H127 H 0.45878 0.89738 0.94295 0.0
H128 H 0.41943 0.01572 0.98581 0.0
H129 H 0.33729 0.80749 0.77326 0.0
H130 H 0.41138 0.02708 0.82421 0.0
H131 H 0.3082 -0.0066 0.82287 0.0
C132 C 0.85812 0.58492 0.31267 0.0
C133 C 0.88412 0.58669 0.29304 0.0
N134 N 0.91287 0.58885 0.31798 0.0
N135 N 0.87025 0.58577 0.34991 0.0
C136 C 0.90367 0.58838 0.3523 0.0
H137 H 0.83196 0.58302 0.30059 0.0
Co138 Co 0.84388 0.58504 0.38752 0.0
C139 C 0.88581 0.5359 0.45076 0.0
O140 O 0.8601 0.51133 0.45584 0.0
N141 N 0.81607 0.58529 0.426 0.0
C142 C 0.77803 0.56785 0.46155 0.0
C143 C 0.79683 0.5514 0.43631 0.0
C144 C 0.80847 0.62188 0.44633 0.0
N145 N 0.78507 0.61247 0.46754 0.0
O146 O 0.85424 0.64797 0.39682 0.0
H147 H 0.79582 0.51657 0.42599 0.0
H148 H 0.81946 0.65536 0.44545 0.0
O149 O 0.88254 0.56586 0.4246 0.0
C150 C 0.83026 0.66779 0.37543 0.0
O151 O 0.80637 0.64257 0.35635 0.0
N152 N 0.8311 0.52563 0.37301 0.0
C153 C 0.80605 0.4489 0.33144 0.0
C154 C 0.83914 0.44971 0.35076 0.0
C155 C 0.8514 0.48886 0.37117 0.0
C156 C 0.79915 0.52542 0.35399 0.0
C157 C 0.78593 0.48721 0.33371 0.0
H158 H 0.8775 0.49057 0.38342 0.0
H159 H 0.78409 0.55593 0.35365 0.0
H160 H 0.92091 0.59071 0.37866 0.0
H161 H 0.88193 0.58574 0.26269 0.0
H162 H 0.75954 0.54879 0.47325 0.0
H163 H 0.85563 0.42099 0.34913 0.0
H164 H 0.76067 0.48869 0.31828 0.0
C165 C 0.19818 0.58516 0.26329 0.0
C166 C 0.17223 0.58495 0.28297 0.0
N167 N 0.14339 0.58726 0.25817 0.0
N168 N 0.18603 0.58747 0.22611 0.0
C169 C 0.15257 0.58903 0.22384 0.0
H170 H 0.22437 0.58384 0.27533 0.0
Co171 Co 0.21262 0.58917 0.18854 0.0
C172 C 0.17142 0.5367 0.12583 0.0
O173 O 0.19694 0.51108 0.12177 0.0
N174 N 0.24042 0.59168 0.15037 0.0
C175 C 0.27699 0.57461 0.11285 0.0
C176 C 0.25819 0.55758 0.13768 0.0
C177 C 0.24925 0.62926 0.13231 0.0
N178 N 0.27155 0.61989 0.10959 0.0
O179 O 0.19997 0.65139 0.17948 0.0
H180 H 0.25841 0.52219 0.14629 0.0
H181 H 0.23982 0.66323 0.13586 0.0
O182 O 0.1747 0.56791 0.15121 0.0
C183 C 0.22087 0.67208 0.20438 0.0
O184 O 0.24446 0.64819 0.22516 0.0
N185 N 0.22759 0.53067 0.20271 0.0
C186 C 0.25586 0.45605 0.24419 0.0
C187 C 0.22243 0.45479 0.22601 0.0
C188 C 0.20854 0.49289 0.20561 0.0
C189 C 0.2599 0.5324 0.2205 0.0
C190 C 0.27471 0.49527 0.24072 0.0
H191 H 0.18222 0.49311 0.19427 0.0
H192 H 0.27395 0.56373 0.22013 0.0
H193 H 0.13529 0.59107 0.1975 0.0
H194 H 0.1746 0.58388 0.31331 0.0
H195 H 0.29431 0.55526 0.09942 0.0
H196 H 0.20691 0.4253 0.22858 0.0
H197 H 0.3002 0.49832 0.25526 0.0
C198 C 0.16313 0.46108 0.62621 0.0
C199 C 0.1387 0.48197 0.6008 0.0
N200 N 0.11025 0.4579 0.59896 0.0
N201 N 0.15027 0.42399 0.64049 0.0
C202 C 0.11808 0.42275 0.62328 0.0
H203 H 0.18856 0.47263 0.63438 0.0
Co204 Co 0.17365 0.38592 0.67737 0.0
C205 C 0.11976 0.33353 0.70248 0.0
O206 O 0.13361 0.29508 0.69417 0.0
N207 N 0.19719 0.348 0.71446 0.0
C208 C 0.21682 0.31579 0.76963 0.0
C209 C 0.19476 0.3473 0.75135 0.0
C210 C 0.22077 0.31659 0.71098 0.0
N211 N 0.23306 0.29649 0.74412 0.0
O212 O 0.16877 0.33547 0.64193 0.0
H213 H 0.17799 0.36844 0.76414 0.0
H214 H 0.22914 0.30886 0.68482 0.0
O215 O 0.13273 0.37169 0.69578 0.0
C216 C 0.19036 0.34108 0.62061 0.0
O217 O 0.20914 0.37792 0.62568 0.0
N218 N 0.18148 0.43601 0.71013 0.0
C219 C 0.20041 0.5146 0.7524 0.0
C220 C 0.1666 0.50402 0.74089 0.0
C221 C 0.15757 0.46412 0.71983 0.0
C222 C 0.21436 0.44618 0.72079 0.0
C223 C 0.22438 0.48482 0.74251 0.0
H224 H 0.13154 0.45688 0.70996 0.0
H225 H 0.23295 0.42455 0.71162 0.0
H226 H 0.10078 0.39654 0.62857 0.0
H227 H 0.14157 0.51324 0.58571 0.0
H228 H 0.22016 0.30703 0.7992 0.0
H229 H 0.14744 0.52674 0.74754 0.0
H230 H 0.25069 0.49247 0.75002 0.0
C231 C 0.89806 0.46152 0.94073 0.0
C232 C 0.92248 0.48243 0.9663 0.0
N233 N 0.95074 0.45781 0.96861 0.0
N234 N 0.91075 0.42391 0.92676 0.0
C235 C 0.94282 0.42236 0.94433 0.0
H236 H 0.87272 0.47328 0.93237 0.0
Co237 Co 0.88721 0.38515 0.89026 0.0
C238 C 0.94099 0.3341 0.86326 0.0
O239 O 0.92762 0.29522 0.87117 0.0
N240 N 0.86342 0.34651 0.85365 0.0
C241 C 0.84276 0.31339 0.79893 0.0
C242 C 0.86491 0.34544 0.81652 0.0
C243 C 0.84032 0.31481 0.85798 0.0
N244 N 0.82742 0.29414 0.82512 0.0
O245 O 0.89354 0.33495 0.9254 0.0
H246 H 0.88106 0.36674 0.80309 0.0
H247 H 0.83269 0.30736 0.88455 0.0
O248 O 0.92778 0.37187 0.87075 0.0
C249 C 0.8734 0.3399 0.94854 0.0
O250 O 0.85461 0.37671 0.94575 0.0
N251 N 0.87814 0.43488 0.85769 0.0
C252 C 0.85781 0.51342 0.81659 0.0
C253 C 0.89179 0.50325 0.82702 0.0
C254 C 0.90151 0.4634 0.84751 0.0
C255 C 0.8451 0.44449 0.84792 0.0
C256 C 0.83438 0.48313 0.82681 0.0
H257 H 0.92769 0.4566 0.85666 0.0
H258 H 0.82696 0.4225 0.85744 0.0
H259 H 0.9599 0.3956 0.93944 0.0
H260 H 0.91969 0.51396 0.98129 0.0
H261 H 0.83871 0.30431 0.76933 0.0
H262 H 0.91056 0.52632 0.82006 0.0
H263 H 0.80797 0.49041 0.82013 0.0
H264 H 0.21788 0.35592 0.55899 0.0
H265 H 0.24472 0.09228 0.51008 0.0
H266 H 0.18166 0.24679 0.62117 0.0
H267 H 0.29355 0.20628 0.46693 0.0
H268 H 0.21727 0.14618 0.54733 0.0
H269 H 0.23989 0.29966 0.52009 0.0
C270 C 0.21419 0.31992 0.56417 0.0
C271 C 0.19799 0.30607 0.59349 0.0
C272 C 0.23409 0.15923 0.52976 0.0
C273 C 0.22386 0.24086 0.54911 0.0
C274 C 0.24975 0.12854 0.50846 0.0
C275 C 0.27163 0.14462 0.48528 0.0
C276 C 0.24005 0.20643 0.52757 0.0
C277 C 0.27734 0.19199 0.48459 0.0
C278 C 0.22699 0.28771 0.54202 0.0
C279 C 0.1938 0.25891 0.59868 0.0
N280 N 0.26158 0.22102 0.50519 0.0
N281 N 0.20694 0.22786 0.57687 0.0
H282 H 0.78241 0.20426 0.11471 0.0
H283 H 0.87862 0.24593 0.94181 0.0
H284 H 0.80636 0.09434 0.04363 0.0
H285 H 0.85191 0.352 1.01457 0.0
H286 H 0.85691 0.18836 0.98108 0.0
H287 H 0.81081 0.2577 0.07971 0.0
C288 C 0.79336 0.19128 0.09155 0.0
C289 C 0.79166 0.14456 0.08209 0.0
C290 C 0.85626 0.22422 0.98868 0.0
C291 C 0.825 0.206 0.04185 0.0
C292 C 0.86897 0.25696 0.96652 0.0
C293 C 0.86701 0.30374 0.97499 0.0
C294 C 0.84167 0.23858 1.01942 0.0
C295 C 0.85374 0.3163 1.00691 0.0
C296 C 0.80994 0.22189 0.07168 0.0
C297 C 0.80716 0.12994 0.05214 0.0
N298 N 0.84145 0.28407 1.02773 0.0
N299 N 0.82306 0.16053 1.03301 0.0
H300 H 0.67902 0.74596 0.6273 0.0
H301 H 0.77756 0.7041 0.45625 0.0
H302 H 0.70426 0.85135 0.55379 0.0
H303 H 0.75339 0.5943 0.52651 0.0
H304 H 0.74797 0.75729 0.49047 0.0
H305 H 0.70163 0.68823 0.58853 0.0
C306 C 0.6885 0.75677 0.60248 0.0
C307 C 0.68982 0.80342 0.59367 0.0
C308 C 0.74904 0.72156 0.49851 0.0
C309 C 0.71621 0.73813 0.54987 0.0
C310 C 0.76631 0.69111 0.47909 0.0
C311 C 0.7683 0.64451 0.48855 0.0
C312 C 0.73359 0.70564 0.5279 0.0
C313 C 0.7524 0.62982 0.51805 0.0
C314 C 0.70173 0.72395 0.58063 0.0
C315 C 0.70291 0.81574 0.56167 0.0
N316 N 0.73583 0.66029 0.53678 0.0
N317 N 0.71574 0.78345 0.54117 0.0
H318 H 0.37578 0.74903 0.94745 0.0
H319 H 0.28189 0.71103 0.12292 0.0
H320 H 0.34939 0.85716 1.01853 0.0
H321 H 0.29987 0.60171 0.04805 0.0
H322 H 0.31085 0.76373 0.08761 0.0
H323 H 0.35391 0.69272 0.98759 0.0
C324 C 0.36615 0.76077 0.97198 0.0
C325 C 0.36433 0.80774 0.97972 0.0
C326 C 0.30853 0.72818 0.07887 0.0
C327 C 0.33884 0.74402 1.02518 0.0
C328 C 0.29166 0.69807 0.09891 0.0
C329 C 0.28814 0.65174 0.08844 0.0
C330 C 0.32207 0.7121 0.04797 0.0
C331 C 0.30215 0.63697 0.05742 0.0
C332 C 0.35334 0.72876 0.99463 0.0
C333 C 0.3511 0.82126 1.01145 0.0
N334 N 0.31838 0.66703 0.03825 0.0
N335 N 0.33874 0.78969 1.03281 0.0
H336 H 0.59371 0.12436 0.21226 0.0
H337 H 0.47311 0.05391 0.35624 0.0
H338 H 0.62703 0.04993 0.31509 0.0
H339 H 0.4435 0.14131 0.25986 0.0
H340 H 0.52916 0.05024 0.34105 0.0
H341 H 0.53787 0.12802 0.22799 0.0
C342 C 0.58933 0.10856 0.23803 0.0
C343 C 0.61532 0.0869 0.26237 0.0
C344 C 0.51033 0.07019 0.32324 0.0
C345 C 0.55121 0.09123 0.2808 0.0
C346 C 0.47825 0.0725 0.33202 0.0
C347 C 0.45312 0.09776 0.30927 0.0
C348 C 0.5175 0.09321 0.29142 0.0
C349 C 0.46157 0.12069 0.27797 0.0
C350 C 0.55741 0.11091 0.24716 0.0
C351 C 0.60802 0.06755 0.29567 0.0
N352 N 0.49286 0.11778 0.27 0.0
N353 N 0.57674 0.0701 0.30383 0.0
H354 H 0.58411 0.75871 0.72839 0.0
H355 H 0.47303 0.90839 0.84645 0.0
H356 H 0.58505 0.90647 0.73242 0.0
H357 H 0.46782 0.76095 0.83869 0.0
H358 H 0.51518 0.90791 0.8061 0.0
H359 H 0.54196 0.75849 0.76901 0.0
C360 C 0.57534 0.79114 0.73758 0.0
C361 C 0.58828 0.83269 0.72691 0.0
C362 C 0.5049 0.87562 0.81326 0.0
C363 C 0.54012 0.83263 0.77385 0.0
C364 C 0.48082 0.87584 0.83645 0.0
C365 C 0.46665 0.83465 0.84598 0.0
C366 C 0.51507 0.83388 0.79938 0.0
C367 C 0.47798 0.79357 0.83216 0.0
C368 C 0.55132 0.79096 0.76092 0.0
C369 C 0.57593 0.87358 0.73986 0.0
N370 N 0.50141 0.79425 0.80951 0.0
N371 N 0.55268 0.87249 0.76267 0.0
H372 H 0.12383 0.55643 0.3221 0.0
H373 H 0.93178 0.61969 0.25372 0.0
H374 H 0.08617 0.61843 0.21457 0.0
H375 H 0.97062 0.56186 0.36251 0.0
H376 H 0.98786 0.61951 0.23881 0.0
H377 H 0.06801 0.55845 0.33719 0.0
C378 C 0.10396 0.57078 0.30165 0.0
C379 C 0.11007 0.58753 0.26697 0.0
C380 C 0.98415 0.60691 0.26597 0.0
C381 C 0.04544 0.58936 0.28412 0.0
C382 C 0.95202 0.60677 0.27448 0.0
C383 C 0.94622 0.59053 0.30943 0.0
C384 C 1.01091 0.59058 0.2925 0.0
C385 C 0.97376 0.57506 0.33538 0.0
C386 C 0.07191 0.57168 0.31029 0.0
C387 C 0.08284 0.60477 0.24148 0.0
N388 N 1.00478 0.57533 0.32634 0.0
N389 N 0.05181 0.60528 0.25058 0.0
H390 H 0.08887 0.2587 0.72703 0.0
H391 H 0.97354 0.40816 0.84017 0.0
H392 H 0.08743 0.40649 0.72818 0.0
H393 H 0.97137 0.26045 0.83567 0.0
H394 H 1.01608 0.40793 0.80027 0.0
H395 H 0.04605 0.2584 0.76678 0.0
C396 C 0.07944 0.29112 0.73539 0.0
C397 C 0.09193 0.3327 0.72418 0.0
C398 C 1.00637 0.37553 0.80804 0.0
C399 C 0.04296 0.33257 0.77015 0.0
C400 C 0.98207 0.37562 0.83098 0.0
C401 C 0.96867 0.33425 0.84133 0.0
C402 C 1.01753 0.33377 0.79524 0.0
C403 C 0.98092 0.2932 0.8285 0.0
C404 C 0.05503 0.2909 0.75824 0.0
C405 C 0.0787 0.37358 0.73608 0.0
N406 N 1.00454 0.29401 0.8061 0.0
N407 N 0.05509 0.37246 0.75844 0.0
H408 H 0.23744 0.74509 0.16455 0.0
H409 H 0.28835 0.87876 0.35702 0.0
H410 H 0.20356 0.70724 0.26677 0.0
H411 H 0.29199 0.94337 0.25048 0.0
H412 H 0.25797 0.8145 0.32332 0.0
H413 H 0.25545 0.81953 0.19306 0.0
C414 C 0.23237 0.75344 0.1923 0.0
C415 C 0.21868 0.72066 0.21332 0.0
C416 C 0.26528 0.84282 0.30728 0.0
C417 C 0.24065 0.80388 0.24669 0.0
C418 C 0.283 0.87909 0.32651 0.0
C419 C 0.29276 0.9161 0.30644 0.0
C420 C 0.25771 0.84328 0.26768 0.0
C421 C 0.28479 0.91535 0.26691 0.0
C422 C 0.24309 0.79551 0.2088 0.0
C423 C 0.21367 0.73215 0.24964 0.0
N424 N 0.26791 0.87931 0.24874 0.0
N425 N 0.2252 0.77252 0.26548 0.0
H426 H 0.72457 0.90268 0.28912 0.0
H427 H 0.87376 0.72683 0.3513 0.0
H428 H 0.81714 0.90683 0.24692 0.0
H429 H 0.77858 0.71943 0.38694 0.0
H430 H 0.85815 0.80187 0.32296 0.0
H431 H 0.74742 0.84237 0.33274 0.0
C432 C 0.74959 0.89053 0.28877 0.0
C433 C 0.76881 0.90933 0.26401 0.0
C434 C 0.84105 0.78442 0.33793 0.0
C435 C 0.79547 0.84093 0.31444 0.0
C436 C 0.85022 0.74206 0.35458 0.0
C437 C 0.82739 0.71748 0.37146 0.0
C438 C 0.80887 0.80164 0.33821 0.0
C439 C 0.79683 0.73775 0.37424 0.0
C440 C 0.76282 0.85652 0.31403 0.0
C441 C 0.80146 0.89321 0.26555 0.0
N442 N 0.78825 0.77839 0.3573 0.0
N443 N 0.8137 0.85972 0.29017 0.0
H444 H 0.74641 0.02541 0.81706 0.0
H445 H 0.77961 0.28044 0.76403 0.0
H446 H 0.67996 0.09873 0.73145 0.0
H447 H 0.82079 0.22449 0.87268 0.0
H448 H 0.74231 0.21441 0.75194 0.0
H449 H 0.7731 0.09797 0.83937 0.0
C450 C 0.73706 0.057 0.8035 0.0
C451 C 0.71108 0.05626 0.77236 0.0
C452 C 0.75918 0.21683 0.77864 0.0
C453 C 0.74185 0.139 0.79703 0.0
C454 C 0.7806 0.25429 0.78539 0.0
C455 C 0.80343 0.25761 0.81922 0.0
C456 C 0.76105 0.18196 0.80563 0.0
C457 C 0.80346 0.22319 0.84627 0.0
C458 C 0.75226 0.09833 0.81619 0.0
C459 C 0.69982 0.09797 0.75568 0.0
N460 N 0.78295 0.18638 0.83866 0.0
N461 N 0.71568 0.13764 0.7678 0.0
H462 H 0.27951 0.28361 0.80649 0.0
H463 H 0.31305 0.02761 0.75563 0.0
H464 H 0.24112 0.22641 0.69706 0.0
H465 H 0.37808 0.10149 0.84276 0.0
H466 H 0.28744 0.10017 0.73219 0.0
H467 H 0.31659 0.2176 0.8199 0.0
C468 C 0.27911 0.25721 0.78523 0.0
C469 C 0.2571 0.26014 0.75079 0.0
C470 C 0.30776 0.10065 0.75596 0.0
C471 C 0.29919 0.18454 0.76589 0.0
C472 C 0.32233 0.05932 0.76929 0.0
C473 C 0.34756 0.05879 0.80116 0.0
C474 C 0.31801 0.14152 0.77522 0.0
C475 C 0.35877 0.10061 0.81798 0.0
C476 C 0.3004 0.21976 0.79274 0.0
C477 C 0.2578 0.22541 0.72392 0.0
N478 N 0.34348 0.1403 0.80522 0.0
N479 N 0.27815 0.18862 0.73226 0.0
H480 H 0.83713 0.40259 0.28141 0.0
H481 H 0.6876 0.22615 0.22124 0.0
H482 H 0.74467 0.40842 0.32377 0.0
H483 H 0.7827 0.21701 0.18554 0.0
H484 H 0.70342 0.30179 0.24886 0.0
H485 H 0.81415 0.34125 0.23842 0.0
C486 C 0.8121 0.39062 0.28191 0.0
C487 C 0.79295 0.41018 0.30653 0.0
C488 C 0.72046 0.28378 0.23406 0.0
C489 C 0.76615 0.3406 0.25686 0.0
C490 C 0.71118 0.24107 0.21783 0.0
C491 C 0.73393 0.21588 0.20113 0.0
C492 C 0.75267 0.30074 0.23354 0.0
C493 C 0.76453 0.23579 0.19815 0.0
C494 C 0.7988 0.356 0.25703 0.0
C495 C 0.76029 0.39423 0.30523 0.0
N496 N 0.77322 0.27681 0.21467 0.0
N497 N 0.74798 0.36015 0.28098 0.0
H498 H 0.31814 0.41874 0.25016 0.0
H499 H 0.28369 0.23111 0.39746 0.0
H500 H 0.2277 0.40958 0.29631 0.0
H501 H 0.37346 0.2352 0.3502 0.0
H502 H 0.26856 0.30663 0.37134 0.0
H503 H 0.34305 0.35976 0.29419 0.0
C504 C 0.30354 0.40432 0.26961 0.0
C505 C 0.27064 0.41864 0.26927 0.0
C506 C 0.29204 0.29176 0.36744 0.0
C507 C 0.29907 0.35147 0.31989 0.0
C508 C 0.30089 0.24901 0.38288 0.0
C509 C 0.32988 0.22745 0.37604 0.0
C510 C 0.31195 0.31237 0.34417 0.0
C511 C 0.35109 0.25126 0.35637 0.0
C512 C 0.31782 0.37081 0.29482 0.0
C513 C 0.25286 0.39881 0.29501 0.0
N514 N 0.34133 0.29222 0.3403 0.0
N515 N 0.26727 0.36613 0.31917 0.0
H516 H 0.24606 0.52743 0.81664 0.0
H517 H 0.27804 0.78417 0.76735 0.0
H518 H 0.18058 0.60095 0.73029 0.0
H519 H 0.31863 0.72644 0.8755 0.0
H520 H 0.24113 0.71791 0.75396 0.0
H521 H 0.27167 0.6001 0.84039 0.0
C522 C 0.23669 0.55907 0.8032 0.0
C523 C 0.21132 0.55837 0.77143 0.0
C524 C 0.25777 0.71997 0.78085 0.0
C525 C 0.24087 0.6413 0.79778 0.0
C526 C 0.27896 0.7576 0.78835 0.0
C527 C 0.30155 0.76047 0.82239 0.0
C528 C 0.25963 0.68448 0.8073 0.0
C529 C 0.3015 0.72549 0.84894 0.0
C530 C 0.25126 0.60048 0.81672 0.0
C531 C 0.19999 0.60016 0.75496 0.0
N532 N 0.28122 0.68853 0.84059 0.0
N533 N 0.21526 0.63993 0.76791 0.0
H534 H 0.73505 0.72354 0.69416 0.0
H535 H 0.87848 0.59958 0.83899 0.0
H536 H 0.77674 0.7783 0.80352 0.0
H537 H 0.81017 0.5268 0.75418 0.0
H538 H 0.85171 0.67179 0.81617 0.0
H539 H 0.77252 0.65745 0.70652 0.0
C540 C 0.75245 0.72193 0.7205 0.0
C541 C 0.75265 0.75605 0.74807 0.0
C542 C 0.84297 0.64005 0.80219 0.0
C543 C 0.79551 0.6811 0.76223 0.0
C544 C 0.8584 0.59898 0.81495 0.0
C545 C 0.84632 0.55732 0.79853 0.0
C546 C 0.81554 0.63936 0.77259 0.0
C547 C 0.81998 0.55829 0.76775 0.0
C548 C 0.77366 0.68422 0.72759 0.0
C549 C 0.7755 0.75229 0.78184 0.0
N550 N 0.80529 0.59867 0.75588 0.0
N551 N 0.79599 0.71541 0.78803 0.0
H552 H 0.3974 -0.00628 0.51355 0.0
H553 H 0.59579 0.00997 0.53738 0.0
H554 H 0.44834 0.07541 0.44187 0.0
H555 H 0.54494 0.93589 0.61375 0.0
H556 H 0.54211 0.03258 0.50122 0.0
H557 H 0.4511 0.97103 0.54977 0.0
C558 C 0.41986 0.007 0.50538 0.0
C559 C 0.41824 0.03641 0.47436 0.0
C560 C 0.54266 0.01137 0.52588 0.0
C561 C 0.48005 0.01027 0.51587 0.0
C562 C 0.57339 -0.00145 0.54672 0.0
C563 C 0.57507 0.97111 0.57894 0.0
C564 C 0.5132 -0.00331 0.53717 0.0
C565 C 0.545 0.95668 0.58902 0.0
C566 C 0.45057 -0.00608 0.52612 0.0
C567 C 0.44828 0.05243 0.4653 0.0
N568 N 0.51536 0.96973 0.56829 0.0
N569 N 0.47791 0.03909 0.48589 0.0
H570 H 0.66043 0.97556 0.06071 0.0
H571 H 0.46358 0.01269 1.03557 0.0
H572 H 0.61461 0.07085 0.12793 0.0
H573 H 0.51082 0.93079 0.95999 0.0
H574 H 0.5183 0.03236 0.07103 0.0
H575 H 0.60565 0.95707 1.02486 0.0
C576 C 0.63887 -0.00728 0.06795 0.0
C577 C 0.64223 0.02477 0.09755 0.0
C578 C 0.51669 0.0101 0.04667 0.0
C579 C 0.57915 0.00345 0.0565 0.0
C580 C 0.48537 -0.00107 1.02623 0.0
C581 C 0.48235 0.97007 0.99448 0.0
C582 C 0.54538 -0.00777 1.03548 0.0
C583 C 0.5117 0.95269 0.98439 0.0
C584 C 0.60753 0.98209 0.0474 0.0
C585 C 0.61328 0.04588 0.10546 0.0
N586 N 0.5419 0.96407 1.00478 0.0
N587 N 0.58297 0.03473 0.08514 0.0
H588 H 0.09745 0.51066 0.53592 0.0
H589 H 0.90022 0.47726 0.51022 0.0
H590 H 0.04915 0.43063 0.61115 0.0
H591 H 0.94704 0.57101 0.44335 0.0
H592 H 0.95476 0.45811 0.54611 0.0
H593 H 0.04299 0.53113 0.50036 0.0
C594 C 0.07549 0.49747 0.54516 0.0
C595 C 0.07813 0.4689 0.57685 0.0
C596 C 0.95316 0.48294 0.52365 0.0
C597 C 1.0154 0.49198 0.53573 0.0
C598 C 0.92196 0.49395 0.50306 0.0
C599 C 0.91894 0.52577 0.47354 0.0
C600 C 0.98177 0.50367 0.51467 0.0
C601 C 0.9481 0.54627 0.46577 0.0
C602 C 0.04432 0.5091 0.52467 0.0
C603 C 0.04856 0.45228 0.58681 0.0
N604 N 0.97829 0.53474 0.48611 0.0
N605 N 1.01852 0.46409 0.56637 0.0
H606 H 0.11061 0.57523 0.13047 0.0
H607 H 1.01184 0.42792 0.95833 0.0
H608 H 0.15708 0.47561 0.06761 0.0
H609 H 0.96324 0.51215 1.03119 0.0
H610 H 0.06547 0.44756 0.99647 0.0
H611 H 0.05661 0.55592 0.09233 0.0
C612 C 0.10952 0.54939 0.10866 0.0
C613 C 0.13849 0.52691 0.10241 0.0
C614 C 0.04304 0.46171 1.00412 0.0
C615 C 0.07674 0.50472 0.05854 0.0
C616 C 1.01229 0.45026 0.98242 0.0
C617 C 0.98271 0.46834 0.99136 0.0
C618 C 0.04441 0.49163 1.035 0.0
C619 C 0.98522 0.49781 1.02273 0.0
C620 C 0.07866 0.53831 0.08692 0.0
C621 C 0.13547 0.49377 0.07361 0.0
N622 N 1.01545 0.50855 0.04332 0.0
N623 N 0.10523 0.48373 0.0528 0.0
loop_
_geom_bond_atom_site_label_1
_geom_bond_atom_site_label_2
_geom_bond_distance
_geom_bond_site_symmetry_2
_ccdc_geom_bond_type
C0 C1 1.351 . S
C0 N3 1.368 . S
C0 H5 0.931 . S
C1 C0 1.351 . S
C1 N2 1.373 . S
C1 H29 0.930 . S
N2 C1 1.373 . S
N2 C4 1.340 . S
N3 C0 1.368 . S
N3 C4 1.321 . S
N3 Co6 2.135 . S
C4 N2 1.340 . S
C4 N3 1.321 . S
C4 H28 0.930 . S
H5 C0 0.931 . S
Co6 N3 2.135 . S
Co6 N9 2.121 . S
Co6 O14 2.055 . S
Co6 O17 2.039 . S
Co6 N20 2.140 . S
C7 O8 1.227 . S
C7 O17 1.265 . S
O8 C7 1.227 . S
N9 Co6 2.121 . S
N9 C11 1.375 . S
N9 C12 1.313 . S
C10 C11 1.338 . S
C10 N13 1.377 . S
C10 H30 0.930 . S
C11 N9 1.375 . S
C11 C10 1.338 . S
C11 H15 0.931 . S
C12 N9 1.313 . S
C12 N13 1.344 . S
C12 H16 0.930 . S
N13 C10 1.377 . S
N13 C12 1.344 . S
O14 Co6 2.055 . S
O14 C18 1.253 . S
H15 C11 0.931 . S
H16 C12 0.930 . S
O17 Co6 2.039 . S
O17 C7 1.265 . S
C18 O14 1.253 . S
C18 O19 1.227 . S
O19 C18 1.227 . S
N20 Co6 2.140 . S
N20 C23 1.346 . S
N20 C24 1.345 . S
C21 C22 1.388 . S
C21 C25 1.391 1_565 S
C22 C21 1.388 . S
C22 C23 1.355 1_565 S
C22 H31 0.943 . S
C23 N20 1.346 . S
C23 C22 1.355 1_545 S
C23 H26 0.928 . S
C24 N20 1.345 . S
C24 C25 1.371 . S
C24 H27 0.931 . S
C25 C21 1.391 1_545 S
C25 C24 1.371 . S
C25 H32 0.930 . S
H26 C23 0.928 . S
H27 C24 0.931 . S
H28 C4 0.930 . S
H29 C1 0.930 . S
H30 C10 0.930 . S
H31 C22 0.943 . S
H32 C25 0.930 . S
C33 C34 1.351 . S
C33 N36 1.368 . S
C33 H38 0.931 . S
C34 C33 1.351 . S
C34 N35 1.373 . S
C34 H62 0.930 . S
N35 C34 1.373 . S
N35 C37 1.340 . S
N36 C33 1.368 . S
N36 C37 1.321 . S
N36 Co39 2.135 . S
C37 N35 1.340 . S
C37 N36 1.321 . S
C37 H61 0.930 . S
H38 C33 0.931 . S
Co39 N36 2.135 . S
Co39 N42 2.121 . S
Co39 O47 2.055 . S
Co39 O50 2.039 . S
Co39 N53 2.140 . S
C40 O41 1.227 . S
C40 O50 1.265 . S
O41 C40 1.227 . S
N42 Co39 2.121 . S
N42 C44 1.375 . S
N42 C45 1.313 . S
C43 C44 1.338 . S
C43 N46 1.377 . S
C43 H63 0.930 . S
C44 N42 1.375 . S
C44 C43 1.338 . S
C44 H48 0.931 . S
C45 N42 1.313 . S
C45 N46 1.344 . S
C45 H49 0.930 . S
N46 C43 1.377 . S
N46 C45 1.344 . S
O47 Co39 2.055 . S
O47 C51 1.253 . S
H48 C44 0.931 . S
H49 C45 0.930 . S
O50 Co39 2.039 . S
O50 C40 1.265 . S
C51 O47 1.253 . S
C51 O52 1.227 . S
O52 C51 1.227 . S
N53 Co39 2.140 . S
N53 C56 1.346 . S
N53 C57 1.345 . S
C54 C55 1.388 . S
C54 C58 1.391 1_565 S
C55 C54 1.388 . S
C55 C56 1.355 1_565 S
C55 H64 0.943 . S
C56 N53 1.346 . S
C56 C55 1.355 1_545 S
C56 H59 0.928 . S
C57 N53 1.345 . S
C57 C58 1.371 . S
C57 H60 0.931 . S
C58 C54 1.391 1_545 S
C58 C57 1.371 . S
C58 H65 0.930 . S
H59 C56 0.928 . S
H60 C57 0.931 . S
H61 C37 0.930 . S
H62 C34 0.930 . S
H63 C43 0.930 . S
H64 C55 0.943 . S
H65 C58 0.930 . S
C66 C67 1.351 . S
C66 N69 1.368 . S
C66 H71 0.931 . S
C67 C66 1.351 . S
C67 N68 1.373 . S
C67 H95 0.930 . S
N68 C67 1.373 . S
N68 C70 1.340 . S
N69 C66 1.368 . S
N69 C70 1.321 . S
N69 Co72 2.135 . S
C70 N68 1.340 . S
C70 N69 1.321 . S
C70 H94 0.930 . S
H71 C66 0.931 . S
Co72 N69 2.135 . S
Co72 N75 2.121 . S
Co72 O80 2.055 . S
Co72 O83 2.039 . S
Co72 N86 2.140 . S
C73 O74 1.227 . S
C73 O83 1.265 . S
O74 C73 1.227 . S
N75 Co72 2.121 . S
N75 C77 1.375 . S
N75 C78 1.313 . S
C76 C77 1.338 . S
C76 N79 1.377 . S
C76 H96 0.930 . S
C77 N75 1.375 . S
C77 C76 1.338 . S
C77 H81 0.931 . S
C78 N75 1.313 . S
C78 N79 1.344 . S
C78 H82 0.930 . S
N79 C76 1.377 . S
N79 C78 1.344 . S
O80 Co72 2.055 . S
O80 C84 1.253 . S
H81 C77 0.931 . S
H82 C78 0.930 . S
O83 Co72 2.039 . S
O83 C73 1.265 . S
C84 O80 1.253 . S
C84 O85 1.227 . S
O85 C84 1.227 . S
N86 Co72 2.140 . S
N86 C89 1.346 . S
N86 C90 1.345 . S
C87 C88 1.387 . S
C87 C91 1.391 1_545 S
C88 C87 1.387 . S
C88 C89 1.369 1_545 S
C88 H97 0.929 . S
C89 N86 1.346 . S
C89 C88 1.369 1_565 S
C89 H92 0.928 . S
C90 N86 1.345 . S
C90 C91 1.371 . S
C90 H93 0.931 . S
C91 C87 1.391 1_565 S
C91 C90 1.371 . S
C91 H98 0.930 . S
H92 C89 0.928 . S
H93 C90 0.931 . S
H94 C70 0.930 . S
H95 C67 0.930 . S
H96 C76 0.930 . S
H97 C88 0.929 . S
H98 C91 0.930 . S
C99 C100 1.351 . S
C99 N102 1.368 . S
C99 H104 0.931 . S
C100 C99 1.351 . S
C100 N101 1.373 . S
C100 H128 0.930 . S
N101 C100 1.373 . S
N101 C103 1.340 . S
N102 C99 1.368 . S
N102 C103 1.321 . S
N102 Co105 2.135 . S
C103 N101 1.340 . S
C103 N102 1.321 . S
C103 H127 0.930 . S
H104 C99 0.931 . S
Co105 N102 2.135 . S
Co105 N108 2.121 . S
Co105 O113 2.055 . S
Co105 O116 2.039 . S
Co105 N119 2.140 . S
C106 O107 1.227 . S
C106 O116 1.265 . S
O107 C106 1.227 . S
N108 Co105 2.121 . S
N108 C110 1.375 . S
N108 C111 1.313 . S
C109 C110 1.338 . S
C109 N112 1.377 . S
C109 H129 0.930 . S
C110 N108 1.375 . S
C110 C109 1.338 . S
C110 H114 0.931 . S
C111 N108 1.313 . S
C111 N112 1.344 . S
C111 H115 0.930 . S
N112 C109 1.377 . S
N112 C111 1.344 . S
O113 Co105 2.055 . S
O113 C117 1.253 . S
H114 C110 0.931 . S
H115 C111 0.930 . S
O116 Co105 2.039 . S
O116 C106 1.265 . S
C117 O113 1.253 . S
C117 O118 1.227 . S
O118 C117 1.227 . S
N119 Co105 2.140 . S
N119 C122 1.346 . S
N119 C123 1.345 . S
C120 C121 1.387 . S
C120 C124 1.391 1_545 S
C121 C120 1.387 . S
C121 C122 1.369 1_545 S
C121 H130 0.929 . S
C122 N119 1.346 . S
C122 C121 1.369 1_565 S
C122 H125 0.928 . S
C123 N119 1.345 . S
C123 C124 1.371 . S
C123 H126 0.931 . S
C124 C120 1.391 1_565 S
C124 C123 1.371 . S
C124 H131 0.930 . S
H125 C122 0.928 . S
H126 C123 0.931 . S
H127 C103 0.930 . S
H128 C100 0.930 . S
H129 C109 0.930 . S
H130 C121 0.929 . S
H131 C124 0.930 . S
C132 C133 1.351 . S
C132 N135 1.368 . S
C132 H137 0.931 . S
C133 C132 1.351 . S
C133 N134 1.373 . S
C133 H161 0.930 . S
N134 C133 1.373 . S
N134 C136 1.340 . S
N135 C132 1.368 . S
N135 C136 1.321 . S
N135 Co138 2.135 . S
C136 N134 1.340 . S
C136 N135 1.321 . S
C136 H160 0.930 . S
H137 C132 0.931 . S
Co138 N135 2.135 . S
Co138 N141 2.121 . S
Co138 O146 2.055 . S
Co138 O149 2.039 . S
Co138 N152 2.140 . S
C139 O140 1.227 . S
C139 O149 1.265 . S
O140 C139 1.227 . S
N141 Co138 2.121 . S
N141 C143 1.375 . S
N141 C144 1.313 . S
C142 C143 1.338 . S
C142 N145 1.377 . S
C142 H162 0.930 . S
C143 N141 1.375 . S
C143 C142 1.338 . S
C143 H147 0.931 . S
C144 N141 1.313 . S
C144 N145 1.344 . S
C144 H148 0.930 . S
N145 C142 1.377 . S
N145 C144 1.344 . S
O146 Co138 2.055 . S
O146 C150 1.253 . S
H147 C143 0.931 . S
H148 C144 0.930 . S
O149 Co138 2.039 . S
O149 C139 1.265 . S
C150 O146 1.253 . S
C150 O151 1.227 . S
O151 C150 1.227 . S
N152 Co138 2.140 . S
N152 C155 1.346 . S
N152 C156 1.345 . S
C153 C154 1.387 . S
C153 C157 1.391 . S
C154 C153 1.387 . S
C154 C155 1.369 . S
C154 H163 0.929 . S
C155 N152 1.346 . S
C155 C154 1.369 . S
C155 H158 0.928 . S
C156 N152 1.345 . S
C156 C157 1.371 . S
C156 H159 0.931 . S
C157 C153 1.391 . S
C157 C156 1.371 . S
C157 H164 0.930 . S
H158 C155 0.928 . S
H159 C156 0.931 . S
H160 C136 0.930 . S
H161 C133 0.930 . S
H162 C142 0.930 . S
H163 C154 0.929 . S
H164 C157 0.930 . S
C165 C166 1.351 . S
C165 N168 1.368 . S
C165 H170 0.931 . S
C166 C165 1.351 . S
C166 N167 1.373 . S
C166 H194 0.930 . S
N167 C166 1.373 . S
N167 C169 1.340 . S
N168 C165 1.368 . S
N168 C169 1.321 . S
N168 Co171 2.135 . S
C169 N167 1.340 . S
C169 N168 1.321 . S
C169 H193 0.930 . S
H170 C165 0.931 . S
Co171 N168 2.135 . S
Co171 N174 2.121 . S
Co171 O179 2.055 . S
Co171 O182 2.039 . S
Co171 N185 2.140 . S
C172 O173 1.227 . S
C172 O182 1.265 . S
O173 C172 1.227 . S
N174 Co171 2.121 . S
N174 C176 1.375 . S
N174 C177 1.313 . S
C175 C176 1.338 . S
C175 N178 1.377 . S
C175 H195 0.930 . S
C176 N174 1.375 . S
C176 C175 1.338 . S
C176 H180 0.931 . S
C177 N174 1.313 . S
C177 N178 1.344 . S
C177 H181 0.930 . S
N178 C175 1.377 . S
N178 C177 1.344 . S
O179 Co171 2.055 . S
O179 C183 1.253 . S
H180 C176 0.931 . S
H181 C177 0.930 . S
O182 Co171 2.039 . S
O182 C172 1.265 . S
C183 O179 1.253 . S
C183 O184 1.227 . S
O184 C183 1.227 . S
N185 Co171 2.140 . S
N185 C188 1.346 . S
N185 C189 1.345 . S
C186 C187 1.387 . S
C186 C190 1.391 . S
C187 C186 1.387 . S
C187 C188 1.369 . S
C187 H196 0.929 . S
C188 N185 1.346 . S
C188 C187 1.369 . S
C188 H191 0.928 . S
C189 N185 1.345 . S
C189 C190 1.371 . S
C189 H192 0.931 . S
C190 C186 1.391 . S
C190 C189 1.371 . S
C190 H197 0.930 . S
H191 C188 0.928 . S
H192 C189 0.931 . S
H193 C169 0.930 . S
H194 C166 0.930 . S
H195 C175 0.930 . S
H196 C187 0.929 . S
H197 C190 0.930 . S
C198 C199 1.351 . S
C198 N201 1.368 . S
C198 H203 0.931 . S
C199 C198 1.351 . S
C199 N200 1.373 . S
C199 H227 0.930 . S
N200 C199 1.373 . S
N200 C202 1.340 . S
N201 C198 1.368 . S
N201 C202 1.321 . S
N201 Co204 2.135 . S
C202 N200 1.340 . S
C202 N201 1.321 . S
C202 H226 0.930 . S
H203 C198 0.931 . S
Co204 N201 2.135 . S
Co204 N207 2.121 . S
Co204 O212 2.055 . S
Co204 O215 2.039 . S
Co204 N218 2.140 . S
C205 O206 1.227 . S
C205 O215 1.265 . S
O206 C205 1.227 . S
N207 Co204 2.121 . S
N207 C209 1.375 . S
N207 C210 1.313 . S
C208 C209 1.338 . S
C208 N211 1.377 . S
C208 H228 0.930 . S
C209 N207 1.375 . S
C209 C208 1.338 . S
C209 H213 0.931 . S
C210 N207 1.313 . S
C210 N211 1.344 . S
C210 H214 0.930 . S
N211 C208 1.377 . S
N211 C210 1.344 . S
O212 Co204 2.055 . S
O212 C216 1.253 . S
H213 C209 0.931 . S
H214 C210 0.930 . S
O215 Co204 2.039 . S
O215 C205 1.265 . S
C216 O212 1.253 . S
C216 O217 1.227 . S
O217 C216 1.227 . S
N218 Co204 2.140 . S
N218 C221 1.346 . S
N218 C222 1.345 . S
C219 C220 1.387 . S
C219 C223 1.391 . S
C220 C219 1.387 . S
C220 C221 1.369 . S
C220 H229 0.929 . S
C221 N218 1.346 . S
C221 C220 1.369 . S
C221 H224 0.928 . S
C222 N218 1.345 . S
C222 C223 1.371 . S
C222 H225 0.931 . S
C223 C219 1.391 . S
C223 C222 1.371 . S
C223 H230 0.930 . S
H224 C221 0.928 . S
H225 C222 0.931 . S
H226 C202 0.930 . S
H227 C199 0.930 . S
H228 C208 0.930 . S
H229 C220 0.929 . S
H230 C223 0.930 . S
C231 C232 1.351 . S
C231 N234 1.368 . S
C231 H236 0.931 . S
C232 C231 1.351 . S
C232 N233 1.373 . S
C232 H260 0.930 . S
N233 C232 1.373 . S
N233 C235 1.340 . S
N234 C231 1.368 . S
N234 C235 1.321 . S
N234 Co237 2.135 . S
C235 N233 1.340 . S
C235 N234 1.321 . S
C235 H259 0.930 . S
H236 C231 0.931 . S
Co237 N234 2.135 . S
Co237 N240 2.121 . S
Co237 O245 2.055 . S
Co237 O248 2.039 . S
Co237 N251 2.140 . S
C238 O239 1.227 . S
C238 O248 1.265 . S
O239 C238 1.227 . S
N240 Co237 2.121 . S
N240 C242 1.375 . S
N240 C243 1.313 . S
C241 C242 1.338 . S
C241 N244 1.377 . S
C241 H261 0.930 . S
C242 N240 1.375 . S
C242 C241 1.338 . S
C242 H246 0.931 . S
C243 N240 1.313 . S
C243 N244 1.344 . S
C243 H247 0.930 . S
N244 C241 1.377 . S
N244 C243 1.344 . S
O245 Co237 2.055 . S
O245 C249 1.253 . S
H246 C242 0.931 . S
H247 C243 0.930 . S
O248 Co237 2.039 . S
O248 C238 1.265 . S
C249 O245 1.253 . S
C249 O250 1.227 . S
O250 C249 1.227 . S
N251 Co237 2.140 . S
N251 C254 1.346 . S
N251 C255 1.345 . S
C252 C253 1.387 . S
C252 C256 1.391 . S
C253 C252 1.387 . S
C253 C254 1.369 . S
C253 H262 0.929 . S
C254 N251 1.346 . S
C254 C253 1.369 . S
C254 H257 0.928 . S
C255 N251 1.345 . S
C255 C256 1.371 . S
C255 H258 0.931 . S
C256 C252 1.391 . S
C256 C255 1.371 . S
C256 H263 0.930 . S
H257 C254 0.928 . S
H258 C255 0.931 . S
H259 C235 0.930 . S
H260 C232 0.930 . S
H261 C241 0.930 . S
H262 C253 0.929 . S
H263 C256 0.930 . S
H264 C270 0.930 . S
H265 C274 0.930 . S
H266 C279 0.929 . S
H267 C277 0.929 . S
H268 C272 0.929 . S
H269 C278 0.929 . S
C270 H264 0.930 . S
C270 C271 1.367 . S
C270 C278 1.378 . S
C271 C270 1.367 . S
C271 C279 1.433 . S
C272 H268 0.929 . S
C272 C274 1.378 . S
C272 C276 1.350 . S
C273 C276 1.463 . S
C273 C278 1.350 . S
C273 N281 1.427 . S
C274 H265 0.930 . S
C274 C272 1.378 . S
C274 C275 1.367 . S
C275 C274 1.367 . S
C275 C277 1.433 . S
C276 C272 1.350 . S
C276 C273 1.463 . S
C276 N280 1.427 . S
C277 H267 0.929 . S
C277 C275 1.433 . S
C277 N280 1.384 . S
C278 H269 0.929 . S
C278 C270 1.378 . S
C278 C273 1.350 . S
C279 H266 0.929 . S
C279 C271 1.433 . S
C279 N281 1.384 . S
N280 C276 1.427 . S
N280 C277 1.384 . S
N281 C273 1.427 . S
N281 C279 1.384 . S
H282 C288 0.930 . S
H283 C292 0.930 . S
H284 C297 0.929 . S
H285 C295 0.929 . S
H286 C290 0.929 . S
H287 C296 0.929 . S
C288 H282 0.930 . S
C288 C289 1.367 . S
C288 C296 1.378 . S
C289 C288 1.367 . S
C289 C297 1.433 . S
C290 H286 0.929 . S
C290 C292 1.378 . S
C290 C294 1.350 . S
C291 C294 1.463 1_554 S
C291 C296 1.350 . S
C291 N299 1.427 1_554 S
C292 H283 0.930 . S
C292 C290 1.378 . S
C292 C293 1.367 . S
C293 C292 1.367 . S
C293 C295 1.433 . S
C294 C290 1.350 . S
C294 C291 1.463 1_556 S
C294 N298 1.427 . S
C295 H285 0.929 . S
C295 C293 1.433 . S
C295 N298 1.384 . S
C296 H287 0.929 . S
C296 C288 1.378 . S
C296 C291 1.350 . S
C297 H284 0.929 . S
C297 C289 1.433 . S
C297 N299 1.384 1_554 S
N298 C294 1.427 . S
N298 C295 1.384 . S
N299 C291 1.427 1_556 S
N299 C297 1.384 1_556 S
H300 C306 0.930 . S
H301 C310 0.930 . S
H302 C315 0.929 . S
H303 C313 0.929 . S
H304 C308 0.929 . S
H305 C314 0.929 . S
C306 H300 0.930 . S
C306 C307 1.367 . S
C306 C314 1.378 . S
C307 C306 1.367 . S
C307 C315 1.433 . S
C308 H304 0.929 . S
C308 C310 1.378 . S
C308 C312 1.350 . S
C309 C312 1.463 . S
C309 C314 1.350 . S
C309 N317 1.427 . S
C310 H301 0.930 . S
C310 C308 1.378 . S
C310 C311 1.367 . S
C311 C310 1.367 . S
C311 C313 1.433 . S
C312 C308 1.350 . S
C312 C309 1.463 . S
C312 N316 1.427 . S
C313 H303 0.929 . S
C313 C311 1.433 . S
C313 N316 1.384 . S
C314 H305 0.929 . S
C314 C306 1.378 . S
C314 C309 1.350 . S
C315 H302 0.929 . S
C315 C307 1.433 . S
C315 N317 1.384 . S
N316 C312 1.427 . S
N316 C313 1.384 . S
N317 C309 1.427 . S
N317 C315 1.384 . S
H318 C324 0.930 . S
H319 C328 0.930 . S
H320 C333 0.929 . S
H321 C331 0.929 . S
H322 C326 0.929 . S
H323 C332 0.929 . S
C324 H318 0.930 . S
C324 C325 1.367 . S
C324 C332 1.378 . S
C325 C324 1.367 . S
C325 C333 1.433 . S
C326 H322 0.929 . S
C326 C328 1.378 . S
C326 C330 1.350 . S
C327 C330 1.463 1_556 S
C327 C332 1.350 . S
C327 N335 1.427 . S
C328 H319 0.930 . S
C328 C326 1.378 . S
C328 C329 1.367 . S
C329 C328 1.367 . S
C329 C331 1.433 . S
C330 C326 1.350 . S
C330 C327 1.463 1_554 S
C330 N334 1.427 . S
C331 H321 0.929 . S
C331 C329 1.433 . S
C331 N334 1.384 . S
C332 H323 0.929 . S
C332 C324 1.378 . S
C332 C327 1.350 . S
C333 H320 0.929 . S
C333 C325 1.433 . S
C333 N335 1.384 . S
N334 C330 1.427 . S
N334 C331 1.384 . S
N335 C327 1.427 . S
N335 C333 1.384 . S
H336 C342 0.930 . S
H337 C346 0.930 . S
H338 C351 0.929 . S
H339 C349 0.929 . S
H340 C344 0.929 . S
H341 C350 0.929 . S
C342 H336 0.930 . S
C342 C343 1.367 . S
C342 C350 1.378 . S
C343 C342 1.367 . S
C343 C351 1.433 . S
C344 H340 0.929 . S
C344 C346 1.378 . S
C344 C348 1.350 . S
C345 C348 1.463 . S
C345 C350 1.350 . S
C345 N353 1.427 . S
C346 H337 0.930 . S
C346 C344 1.378 . S
C346 C347 1.367 . S
C347 C346 1.367 . S
C347 C349 1.433 . S
C348 C344 1.350 . S
C348 C345 1.463 . S
C348 N352 1.427 . S
C349 H339 0.929 . S
C349 C347 1.433 . S
C349 N352 1.384 . S
C350 H341 0.929 . S
C350 C342 1.378 . S
C350 C345 1.350 . S
C351 H338 0.929 . S
C351 C343 1.433 . S
C351 N353 1.384 . S
N352 C348 1.427 . S
N352 C349 1.384 . S
N353 C345 1.427 . S
N353 C351 1.384 . S
H354 C360 0.930 . S
H355 C364 0.930 . S
H356 C369 0.929 . S
H357 C367 0.929 . S
H358 C362 0.929 . S
H359 C368 0.929 . S
C360 H354 0.930 . S
C360 C361 1.367 . S
C360 C368 1.378 . S
C361 C360 1.367 . S
C361 C369 1.433 . S
C362 H358 0.929 . S
C362 C364 1.378 . S
C362 C366 1.350 . S
C363 C366 1.463 . S
C363 C368 1.350 . S
C363 N371 1.427 . S
C364 H355 0.930 . S
C364 C362 1.378 . S
C364 C365 1.367 . S
C365 C364 1.367 . S
C365 C367 1.433 . S
C366 C362 1.350 . S
C366 C363 1.463 . S
C366 N370 1.427 . S
C367 H357 0.929 . S
C367 C365 1.433 . S
C367 N370 1.384 . S
C368 H359 0.929 . S
C368 C360 1.378 . S
C368 C363 1.350 . S
C369 H356 0.929 . S
C369 C361 1.433 . S
C369 N371 1.384 . S
N370 C366 1.427 . S
N370 C367 1.384 . S
N371 C363 1.427 . S
N371 C369 1.384 . S
H372 C378 0.930 . S
H373 C382 0.930 . S
H374 C387 0.929 . S
H375 C385 0.929 . S
H376 C380 0.929 . S
H377 C386 0.929 . S
C378 H372 0.930 . S
C378 C379 1.367 . S
C378 C386 1.378 . S
C379 C378 1.367 . S
C379 C387 1.433 . S
C380 H376 0.929 . S
C380 C382 1.378 . S
C380 C384 1.350 . S
C381 C384 1.463 1_455 S
C381 C386 1.350 . S
C381 N389 1.427 . S
C382 H373 0.930 . S
C382 C380 1.378 . S
C382 C383 1.367 . S
C383 C382 1.367 . S
C383 C385 1.433 . S
C384 C380 1.350 . S
C384 C381 1.463 1_655 S
C384 N388 1.427 . S
C385 H375 0.929 . S
C385 C383 1.433 . S
C385 N388 1.384 . S
C386 H377 0.929 . S
C386 C378 1.378 . S
C386 C381 1.350 . S
C387 H374 0.929 . S
C387 C379 1.433 . S
C387 N389 1.384 . S
N388 C384 1.427 . S
N388 C385 1.384 . S
N389 C381 1.427 . S
N389 C387 1.384 . S
H390 C396 0.930 . S
H391 C400 0.930 . S
H392 C405 0.929 . S
H393 C403 0.929 . S
H394 C398 0.929 . S
H395 C404 0.929 . S
C396 H390 0.930 . S
C396 C397 1.367 . S
C396 C404 1.378 . S
C397 C396 1.367 . S
C397 C405 1.433 . S
C398 H394 0.929 . S
C398 C400 1.378 . S
C398 C402 1.350 . S
C399 C402 1.463 1_455 S
C399 C404 1.350 . S
C399 N407 1.427 . S
C400 H391 0.930 . S
C400 C398 1.378 . S
C400 C401 1.367 . S
C401 C400 1.367 . S
C401 C403 1.433 . S
C402 C398 1.350 . S
C402 C399 1.463 1_655 S
C402 N406 1.427 . S
C403 H393 0.929 . S
C403 C401 1.433 . S
C403 N406 1.384 . S
C404 H395 0.929 . S
C404 C396 1.378 . S
C404 C399 1.350 . S
C405 H392 0.929 . S
C405 C397 1.433 . S
C405 N407 1.384 . S
N406 C402 1.427 . S
N406 C403 1.384 . S
N407 C399 1.427 . S
N407 C405 1.384 . S
H408 C414 0.930 . S
H409 C418 0.930 . S
H410 C423 0.929 . S
H411 C421 0.929 . S
H412 C416 0.929 . S
H413 C422 0.929 . S
C414 H408 0.930 . S
C414 C415 1.367 . S
C414 C422 1.378 . S
C415 C414 1.367 . S
C415 C423 1.433 . S
C416 H412 0.929 . S
C416 C418 1.378 . S
C416 C420 1.350 . S
C417 C420 1.463 . S
C417 C422 1.350 . S
C417 N425 1.427 . S
C418 H409 0.930 . S
C418 C416 1.378 . S
C418 C419 1.367 . S
C419 C418 1.367 . S
C419 C421 1.433 . S
C420 C416 1.350 . S
C420 C417 1.463 . S
C420 N424 1.427 . S
C421 H411 0.929 . S
C421 C419 1.433 . S
C421 N424 1.384 . S
C422 H413 0.929 . S
C422 C414 1.378 . S
C422 C417 1.350 . S
C423 H410 0.929 . S
C423 C415 1.433 . S
C423 N425 1.384 . S
N424 C420 1.427 . S
N424 C421 1.384 . S
N425 C417 1.427 . S
N425 C423 1.384 . S
H426 C432 0.930 . S
H427 C436 0.930 . S
H428 C441 0.929 . S
H429 C439 0.929 . S
H430 C434 0.929 . S
H431 C440 0.929 . S
C432 H426 0.930 . S
C432 C433 1.367 . S
C432 C440 1.378 . S
C433 C432 1.367 . S
C433 C441 1.433 . S
C434 H430 0.929 . S
C434 C436 1.378 . S
C434 C438 1.350 . S
C435 C438 1.463 . S
C435 C440 1.350 . S
C435 N443 1.427 . S
C436 H427 0.930 . S
C436 C434 1.378 . S
C436 C437 1.367 . S
C437 C436 1.367 . S
C437 C439 1.433 . S
C438 C434 1.350 . S
C438 C435 1.463 . S
C438 N442 1.427 . S
C439 H429 0.929 . S
C439 C437 1.433 . S
C439 N442 1.384 . S
C440 H431 0.929 . S
C440 C432 1.378 . S
C440 C435 1.350 . S
C441 H428 0.929 . S
C441 C433 1.433 . S
C441 N443 1.384 . S
N442 C438 1.427 . S
N442 C439 1.384 . S
N443 C435 1.427 . S
N443 C441 1.384 . S
H444 C450 0.930 . S
H445 C454 0.930 . S
H446 C459 0.929 . S
H447 C457 0.929 . S
H448 C452 0.929 . S
H449 C458 0.929 . S
C450 H444 0.930 . S
C450 C451 1.367 . S
C450 C458 1.378 . S
C451 C450 1.367 . S
C451 C459 1.433 . S
C452 H448 0.929 . S
C452 C454 1.378 . S
C452 C456 1.350 . S
C453 C456 1.463 . S
C453 C458 1.350 . S
C453 N461 1.427 . S
C454 H445 0.930 . S
C454 C452 1.378 . S
C454 C455 1.367 . S
C455 C454 1.367 . S
C455 C457 1.433 . S
C456 C452 1.350 . S
C456 C453 1.463 . S
C456 N460 1.427 . S
C457 H447 0.929 . S
C457 C455 1.433 . S
C457 N460 1.384 . S
C458 H449 0.929 . S
C458 C450 1.378 . S
C458 C453 1.350 . S
C459 H446 0.929 . S
C459 C451 1.433 . S
C459 N461 1.384 . S
N460 C456 1.427 . S
N460 C457 1.384 . S
N461 C453 1.427 . S
N461 C459 1.384 . S
H462 C468 0.930 . S
H463 C472 0.930 . S
H464 C477 0.929 . S
H465 C475 0.929 . S
H466 C470 0.929 . S
H467 C476 0.929 . S
C468 H462 0.930 . S
C468 C469 1.367 . S
C468 C476 1.378 . S
C469 C468 1.367 . S
C469 C477 1.433 . S
C470 H466 0.929 . S
C470 C472 1.378 . S
C470 C474 1.350 . S
C471 C474 1.463 . S
C471 C476 1.350 . S
C471 N479 1.427 . S
C472 H463 0.930 . S
C472 C470 1.378 . S
C472 C473 1.367 . S
C473 C472 1.367 . S
C473 C475 1.433 . S
C474 C470 1.350 . S
C474 C471 1.463 . S
C474 N478 1.427 . S
C475 H465 0.929 . S
C475 C473 1.433 . S
C475 N478 1.384 . S
C476 H467 0.929 . S
C476 C468 1.378 . S
C476 C471 1.350 . S
C477 H464 0.929 . S
C477 C469 1.433 . S
C477 N479 1.384 . S
N478 C474 1.427 . S
N478 C475 1.384 . S
N479 C471 1.427 . S
N479 C477 1.384 . S
H480 C486 0.930 . S
H481 C490 0.930 . S
H482 C495 0.929 . S
H483 C493 0.929 . S
H484 C488 0.929 . S
H485 C494 0.929 . S
C486 H480 0.930 . S
C486 C487 1.367 . S
C486 C494 1.378 . S
C487 C486 1.367 . S
C487 C495 1.433 . S
C488 H484 0.929 . S
C488 C490 1.378 . S
C488 C492 1.350 . S
C489 C492 1.463 . S
C489 C494 1.350 . S
C489 N497 1.427 . S
C490 H481 0.930 . S
C490 C488 1.378 . S
C490 C491 1.367 . S
C491 C490 1.367 . S
C491 C493 1.433 . S
C492 C488 1.350 . S
C492 C489 1.463 . S
C492 N496 1.427 . S
C493 H483 0.929 . S
C493 C491 1.433 . S
C493 N496 1.384 . S
C494 H485 0.929 . S
C494 C486 1.378 . S
C494 C489 1.350 . S
C495 H482 0.929 . S
C495 C487 1.433 . S
C495 N497 1.384 . S
N496 C492 1.427 . S
N496 C493 1.384 . S
N497 C489 1.427 . S
N497 C495 1.384 . S
H498 C504 0.930 . S
H499 C508 0.930 . S
H500 C513 0.929 . S
H501 C511 0.929 . S
H502 C506 0.929 . S
H503 C512 0.929 . S
C504 H498 0.930 . S
C504 C505 1.367 . S
C504 C512 1.378 . S
C505 C504 1.367 . S
C505 C513 1.433 . S
C506 H502 0.929 . S
C506 C508 1.378 . S
C506 C510 1.350 . S
C507 C510 1.463 . S
C507 C512 1.350 . S
C507 N515 1.427 . S
C508 H499 0.930 . S
C508 C506 1.378 . S
C508 C509 1.367 . S
C509 C508 1.367 . S
C509 C511 1.433 . S
C510 C506 1.350 . S
C510 C507 1.463 . S
C510 N514 1.427 . S
C511 H501 0.929 . S
C511 C509 1.433 . S
C511 N514 1.384 . S
C512 H503 0.929 . S
C512 C504 1.378 . S
C512 C507 1.350 . S
C513 H500 0.929 . S
C513 C505 1.433 . S
C513 N515 1.384 . S
N514 C510 1.427 . S
N514 C511 1.384 . S
N515 C507 1.427 . S
N515 C513 1.384 . S
H516 C522 0.930 . S
H517 C526 0.930 . S
H518 C531 0.929 . S
H519 C529 0.929 . S
H520 C524 0.929 . S
H521 C530 0.929 . S
C522 H516 0.930 . S
C522 C523 1.367 . S
C522 C530 1.378 . S
C523 C522 1.367 . S
C523 C531 1.433 . S
C524 H520 0.929 . S
C524 C526 1.378 . S
C524 C528 1.350 . S
C525 C528 1.463 . S
C525 C530 1.350 . S
C525 N533 1.427 . S
C526 H517 0.930 . S
C526 C524 1.378 . S
C526 C527 1.367 . S
C527 C526 1.367 . S
C527 C529 1.433 . S
C528 C524 1.350 . S
C528 C525 1.463 . S
C528 N532 1.427 . S
C529 H519 0.929 . S
C529 C527 1.433 . S
C529 N532 1.384 . S
C530 H521 0.929 . S
C530 C522 1.378 . S
C530 C525 1.350 . S
C531 H518 0.929 . S
C531 C523 1.433 . S
C531 N533 1.384 . S
N532 C528 1.427 . S
N532 C529 1.384 . S
N533 C525 1.427 . S
N533 C531 1.384 . S
H534 C540 0.930 . S
H535 C544 0.930 . S
H536 C549 0.929 . S
H537 C547 0.929 . S
H538 C542 0.929 . S
H539 C548 0.929 . S
C540 H534 0.930 . S
C540 C541 1.367 . S
C540 C548 1.378 . S
C541 C540 1.367 . S
C541 C549 1.433 . S
C542 H538 0.929 . S
C542 C544 1.378 . S
C542 C546 1.350 . S
C543 C546 1.463 . S
C543 C548 1.350 . S
C543 N551 1.427 . S
C544 H535 0.930 . S
C544 C542 1.378 . S
C544 C545 1.367 . S
C545 C544 1.367 . S
C545 C547 1.433 . S
C546 C542 1.350 . S
C546 C543 1.463 . S
C546 N550 1.427 . S
C547 H537 0.929 . S
C547 C545 1.433 . S
C547 N550 1.384 . S
C548 H539 0.929 . S
C548 C540 1.378 . S
C548 C543 1.350 . S
C549 H536 0.929 . S
C549 C541 1.433 . S
C549 N551 1.384 . S
N550 C546 1.427 . S
N550 C547 1.384 . S
N551 C543 1.427 . S
N551 C549 1.384 . S
H552 C558 0.930 . S
H553 C562 0.930 . S
H554 C567 0.929 . S
H555 C565 0.929 . S
H556 C560 0.929 . S
H557 C566 0.929 . S
C558 H552 0.930 . S
C558 C559 1.367 . S
C558 C566 1.378 . S
C559 C558 1.367 . S
C559 C567 1.433 . S
C560 H556 0.929 . S
C560 C562 1.378 . S
C560 C564 1.350 1_565 S
C561 C564 1.463 . S
C561 C566 1.350 . S
C561 N569 1.427 . S
C562 H553 0.930 . S
C562 C560 1.378 . S
C562 C563 1.367 . S
C563 C562 1.367 . S
C563 C565 1.433 1_565 S
C564 C560 1.350 1_545 S
C564 C561 1.463 . S
C564 N568 1.427 . S
C565 H555 0.929 . S
C565 C563 1.433 1_545 S
C565 N568 1.384 . S
C566 H557 0.929 . S
C566 C558 1.378 . S
C566 C561 1.350 . S
C567 H554 0.929 . S
C567 C559 1.433 . S
C567 N569 1.384 . S
N568 C564 1.427 . S
N568 C565 1.384 . S
N569 C561 1.427 . S
N569 C567 1.384 . S
H570 C576 0.930 . S
H571 C580 0.930 . S
H572 C585 0.929 . S
H573 C583 0.929 . S
H574 C578 0.929 . S
H575 C584 0.929 1_556 S
C576 H570 0.930 . S
C576 C577 1.367 . S
C576 C584 1.378 . S
C577 C576 1.367 . S
C577 C585 1.433 . S
C578 H574 0.929 . S
C578 C580 1.378 1_554 S
C578 C582 1.350 1_564 S
C579 C582 1.463 1_554 S
C579 C584 1.350 . S
C579 N587 1.427 . S
C580 H571 0.930 . S
C580 C578 1.378 1_556 S
C580 C581 1.367 . S
C581 C580 1.367 . S
C581 C583 1.433 1_565 S
C582 C578 1.350 1_546 S
C582 C579 1.463 1_556 S
C582 N586 1.427 . S
C583 H573 0.929 . S
C583 C581 1.433 1_545 S
C583 N586 1.384 . S
C584 H575 0.929 1_554 S
C584 C576 1.378 . S
C584 C579 1.350 . S
C585 H572 0.929 . S
C585 C577 1.433 . S
C585 N587 1.384 . S
N586 C582 1.427 . S
N586 C583 1.384 . S
N587 C579 1.427 . S
N587 C585 1.384 . S
H588 C594 0.930 . S
H589 C598 0.930 . S
H590 C603 0.929 . S
H591 C601 0.929 . S
H592 C596 0.929 . S
H593 C602 0.929 . S
C594 H588 0.930 . S
C594 C595 1.367 . S
C594 C602 1.378 . S
C595 C594 1.367 . S
C595 C603 1.433 . S
C596 H592 0.929 . S
C596 C598 1.378 . S
C596 C600 1.350 . S
C597 C600 1.463 . S
C597 C602 1.350 1_655 S
C597 N605 1.427 . S
C598 H589 0.930 . S
C598 C596 1.378 . S
C598 C599 1.367 . S
C599 C598 1.367 . S
C599 C601 1.433 . S
C600 C596 1.350 . S
C600 C597 1.463 . S
C600 N604 1.427 . S
C601 H591 0.929 . S
C601 C599 1.433 . S
C601 N604 1.384 . S
C602 H593 0.929 . S
C602 C594 1.378 . S
C602 C597 1.350 1_455 S
C603 H590 0.929 . S
C603 C595 1.433 . S
C603 N605 1.384 1_455 S
N604 C600 1.427 . S
N604 C601 1.384 . S
N605 C597 1.427 . S
N605 C603 1.384 1_655 S
H606 C612 0.930 . S
H607 C616 0.930 . S
H608 C621 0.929 . S
H609 C619 0.929 . S
H610 C614 0.929 . S
H611 C620 0.929 . S
C612 H606 0.930 . S
C612 C613 1.367 . S
C612 C620 1.378 . S
C613 C612 1.367 . S
C613 C621 1.433 . S
C614 H610 0.929 . S
C614 C616 1.378 1_455 S
C614 C618 1.350 . S
C615 C618 1.463 1_554 S
C615 C620 1.350 . S
C615 N623 1.427 . S
C616 H607 0.930 . S
C616 C614 1.378 1_655 S
C616 C617 1.367 . S
C617 C616 1.367 . S
C617 C619 1.433 . S
C618 C614 1.350 . S
C618 C615 1.463 1_556 S
C618 N622 1.427 1_456 S
C619 H609 0.929 . S
C619 C617 1.433 . S
C619 N622 1.384 1_556 S
C620 H611 0.929 . S
C620 C612 1.378 . S
C620 C615 1.350 . S
C621 H608 0.929 . S
C621 C613 1.433 . S
C621 N623 1.384 . S
N622 C618 1.427 1_654 S
N622 C619 1.384 1_554 S
N623 C615 1.427 . S
N623 C621 1.384 . S
C271 C216 1.656 . S
C275 N13 1.613 . S
C289 N46 1.620 . S
C293 C249 1.656 . S
C307 C84 1.658 . S
C311 N145 1.615 . S
C325 C117 1.659 . S
C329 N178 1.614 . S
C343 N35 1.257 . S
C347 N2 1.268 . S
C361 C73 1.287 . S
C365 C106 1.276 . S
C379 N167 1.269 . S
C383 N134 1.255 . S
C397 C205 1.288 . S
C401 C238 1.276 . S
C415 C183 1.380 . S
C419 C21 1.382 . S
C433 C54 1.380 . S
C437 C150 1.373 . S
C451 C87 1.380 . S
C455 N244 1.360 . S
C469 N211 1.352 . S
C473 C120 1.380 . S
C487 C153 1.378 . S
C491 C51 1.376 . S
C505 C186 1.384 . S
C509 C18 1.377 . S
C523 C219 1.380 . S
C527 N112 1.355 . S
C541 N79 1.359 . S
C545 C252 1.380 . S
C559 C7 1.538 . S
C563 N68 1.498 . S
C577 C40 1.538 . S
C581 N101 1.499 . S
C595 N200 1.499 . S
C599 C139 1.537 . S
C613 C172 1.528 . S
C617 N233 1.513 . S
