# Generated by pormake.
# Topology pts-e, (5)-cn, num edge types: 1
# Building blocks:
#     Node 0, Type 0, BuildingBlock: XOMCOT_clean_sbu_1, # of connection points: 5
#     Node 1, Type 0, BuildingBlock: XOMCOT_clean_sbu_1, # of connection points: 5
#     Node 2, Type 0, BuildingBlock: XOMCOT_clean_sbu_1, # of connection points: 5
#     Node 3, Type 0, BuildingBlock: XOMCOT_clean_sbu_1, # of connection points: 5
#     Node 4, Type 0, BuildingBlock: XOMCOT_clean_sbu_1, # of connection points: 5
#     Node 5, Type 0, BuildingBlock: XOMCOT_clean_sbu_1, # of connection points: 5
#     Node 6, Type 0, BuildingBlock: XOMCOT_clean_sbu_1, # of connection points: 5
#     Node 7, Type 0, BuildingBlock: XOMCOT_clean_sbu_1, # of connection points: 5
#     Edge 8, Type (0, 0), None
#     Edge 9, Type (0, 0), None
#     Edge 10, Type (0, 0), None
#     Edge 11, Type (0, 0), None
#     Edge 12, Type (0, 0), None
#     Edge 13, Type (0, 0), None
#     Edge 14, Type (0, 0), None
#     Edge 15, Type (0, 0), None
#     Edge 16, Type (0, 0), None
#     Edge 17, Type (0, 0), None
#     Edge 18, Type (0, 0), None
#     Edge 19, Type (0, 0), None
#     Edge 20, Type (0, 0), None
#     Edge 21, Type (0, 0), None
#     Edge 22, Type (0, 0), None
#     Edge 23, Type (0, 0), None
#     Edge 24, Type (0, 0), None
#     Edge 25, Type (0, 0), None
#     Edge 26, Type (0, 0), None
#     Edge 27, Type (0, 0), None
# Relax obj value: 0.561
# Max RMSD: 0.256
# Mean RMSD: 0.256
data_MOF--net-pts-e--node1-XOMCOT_clean_sbu_1--edge1-none
_symmetry_space_group_name_H-M    P1
_symmetry_Int_Tables_number       1
_symmetry_cell_setting            triclinic
loop_
_symmetry_equiv_pos_as_xyz
'x, y, z'
_cell_length_a     18.42494
_cell_length_b     18.425065
_cell_length_c     21.312071
_cell_angle_alpha  89.99911
_cell_angle_beta   90.014035
_cell_angle_gamma 89.99894
loop_
_atom_site_label
_atom_site_type_symbol
_atom_site_fract_x
_atom_site_fract_y
_atom_site_fract_z
_atom_type_partial_charge
C0 C 0.15761 0.08215 0.15677 0.0
C1 C 0.08518 0.08436 0.14233 0.0
N2 N 0.05492 0.02569 0.16769 0.0
N3 N 0.173 0.0214 0.19029 0.0
C4 C 0.10831 0.98696 0.195 0.0
H5 H 0.19568 0.12452 0.14539 0.0
Co6 Co 0.2686 0.99576 0.21602 0.0
C7 C 0.22126 0.87059 0.30595 0.0
O8 O 0.24812 0.90572 0.35422 0.0
N9 N 0.36598 0.97373 0.23476 0.0
C10 C 0.47459 0.93017 0.26192 0.0
C11 C 0.40077 0.91546 0.25887 0.0
C12 C 0.41963 0.02202 0.22229 0.0
N13 N 0.4852 -0.00239 0.23949 0.0
O14 O 0.28302 0.9646 0.13139 0.0
H15 H 0.37456 0.86589 0.27376 0.0
H16 H 0.41055 0.07567 0.20334 0.0
O17 O 0.23025 0.89659 0.24956 0.0
C18 C 0.29713 0.01939 0.09577 0.0
O19 O 0.31386 0.08214 0.12094 0.0
N20 N 0.25666 0.03825 0.29653 0.0
C21 C 0.19798 0.17205 0.27726 0.0
C22 C 0.15419 0.11457 0.2998 0.0
C23 C 0.18624 0.04808 0.31328 0.0
C24 C 0.301 0.09743 0.29916 0.0
C25 C 0.27326 0.16496 0.28268 0.0
H26 H 0.15122 0.00209 0.32178 0.0
H27 H 0.35833 0.09185 0.30764 0.0
H28 H 0.09987 0.93609 0.21924 0.0
H29 H 0.05651 0.12589 0.11635 0.0
H30 H 0.51654 0.89529 0.28077 0.0
H31 H 0.09583 0.11881 0.30339 0.0
H32 H 0.30935 0.21059 0.27537 0.0
C33 C 0.95332 0.15752 0.65666 0.0
C34 C 0.95113 0.08509 0.64223 0.0
N35 N 0.00978 0.05483 0.66766 0.0
N36 N 0.01404 0.17292 0.69023 0.0
C37 C 0.04848 0.10823 0.69498 0.0
H38 H 0.91095 0.19559 0.64523 0.0
Co39 Co 0.03964 0.26851 0.71598 0.0
C40 C 0.16481 0.22114 0.80594 0.0
O41 O 0.12968 0.24798 0.8542 0.0
N42 N 0.06165 0.36589 0.73476 0.0
C43 C 0.10521 0.47448 0.76194 0.0
C44 C 0.11993 0.40066 0.75887 0.0
C45 C 0.01336 0.41954 0.72228 0.0
N46 N 0.03777 0.4851 0.7395 0.0
O47 O 0.07082 0.28299 0.63137 0.0
H48 H 0.1695 0.37445 0.77377 0.0
H49 H 0.95972 0.41047 0.70331 0.0
O50 O 0.13881 0.23016 0.74954 0.0
C51 C 0.01604 0.29712 0.59574 0.0
O52 O 0.95328 0.31382 0.62089 0.0
N53 N 0.99714 0.25651 0.79647 0.0
C54 C 0.86338 0.19779 0.77712 0.0
C55 C 0.92086 0.15401 0.79969 0.0
C56 C 0.98734 0.18609 0.81321 0.0
C57 C 0.93794 0.30083 0.79907 0.0
C58 C 0.87043 0.27307 0.78255 0.0
H59 H 0.03333 0.15108 0.82174 0.0
H60 H 0.94349 0.35816 0.80756 0.0
H61 H 0.09932 0.09979 0.71928 0.0
H62 H 0.90962 0.05642 0.61622 0.0
H63 H 0.14009 0.51642 0.7808 0.0
H64 H 0.91665 0.09565 0.80328 0.0
H65 H 0.82479 0.30914 0.77522 0.0
C66 C 0.87806 0.95345 0.15657 0.0
C67 C 0.95049 0.95127 0.14218 0.0
N68 N 0.98076 0.00987 0.16766 0.0
N69 N 0.86266 0.01414 0.19016 0.0
C70 C 0.92735 0.04857 0.19496 0.0
H71 H 0.83999 0.9111 0.14511 0.0
Co72 Co 0.76706 0.03972 0.21592 0.0
C73 C 0.81442 0.16491 0.30583 0.0
O74 O 0.78759 0.12978 0.3541 0.0
N75 N 0.66968 0.06169 0.2347 0.0
C76 C 0.56107 0.10522 0.26185 0.0
C77 C 0.63488 0.11998 0.25874 0.0
C78 C 0.61606 0.01334 0.22231 0.0
N79 N 0.5505 0.03771 0.23954 0.0
O80 O 0.75253 0.07086 0.13129 0.0
H81 H 0.66106 0.16961 0.27353 0.0
H82 H 0.62515 0.9597 0.20337 0.0
O83 O 0.80539 0.13891 0.24943 0.0
C84 C 0.73838 0.01606 0.09569 0.0
O85 O 0.72169 0.95332 0.12088 0.0
N86 N 0.77912 -0.00275 0.29643 0.0
C87 C 0.83785 0.8635 0.27705 0.0
C88 C 0.88164 0.92098 0.29962 0.0
C89 C 0.84956 0.98745 0.31315 0.0
C90 C 0.73481 0.93804 0.29908 0.0
C91 C 0.76257 0.87055 0.28252 0.0
H92 H 0.88456 0.03344 0.32169 0.0
H93 H 0.6775 0.94358 0.30763 0.0
H94 H 0.93579 0.0994 0.21927 0.0
H95 H 0.97917 0.90977 0.11616 0.0
H96 H 0.51911 0.14012 0.28062 0.0
H97 H 0.94 0.91677 0.3032 0.0
H98 H 0.7265 0.82491 0.27521 0.0
C99 C 0.08202 0.87797 0.65667 0.0
C100 C 0.08422 0.9504 0.64226 0.0
N101 N 0.02559 0.98067 0.66768 0.0
N102 N 0.0213 0.86258 0.69021 0.0
C103 C 0.98687 0.92727 0.69497 0.0
H104 H 0.12438 0.8399 0.64525 0.0
Co105 Co 0.9957 0.76698 0.71595 0.0
C106 C 0.87051 0.8143 0.80584 0.0
O107 O 0.90564 0.78743 0.85411 0.0
N108 N 0.97371 0.66959 0.73471 0.0
C109 C 0.93016 0.56097 0.76182 0.0
C110 C 0.91541 0.63479 0.75872 0.0
C111 C 0.02205 0.61597 0.72232 0.0
N112 N -0.00233 0.5504 0.73954 0.0
O113 O 0.96457 0.7525 0.6313 0.0
H114 H 0.86579 0.66096 0.7735 0.0
H115 H 0.0757 0.62506 0.7034 0.0
O116 O 0.89651 0.80531 0.74945 0.0
C117 C 0.01937 0.73836 0.59572 0.0
O118 O 0.08211 0.72164 0.62093 0.0
N119 N 0.03816 0.77898 0.79648 0.0
C120 C 0.17193 0.83767 0.77718 0.0
C121 C 0.11446 0.88147 0.79972 0.0
C122 C 0.04797 0.84941 0.81321 0.0
C123 C 0.09736 0.73466 0.79915 0.0
C124 C 0.16487 0.7624 0.78264 0.0
H125 H 0.00198 0.88442 0.82172 0.0
H126 H 0.0918 0.67734 0.80769 0.0
H127 H 0.93602 0.93572 0.71923 0.0
H128 H 0.12573 0.97907 0.61626 0.0
H129 H 0.89525 0.51901 0.78058 0.0
H130 H 0.11869 0.93983 0.8033 0.0
H131 H 0.2105 0.72631 0.77535 0.0
C132 C 0.15172 0.93754 0.93614 0.0
C133 C 0.07762 0.93748 0.94505 0.0
N134 N 0.05406 0.00586 0.9374 0.0
N135 N 0.17426 0.00555 0.92232 0.0
C136 C 0.11314 0.04623 0.92446 0.0
H137 H 0.1867 0.89055 0.93877 0.0
Co138 Co 0.2706 0.03541 0.90888 0.0
C139 C 0.22884 0.17207 0.81907 0.0
O140 O 0.27872 0.16442 0.77557 0.0
N141 N 0.36696 0.06186 0.89776 0.0
C142 C 0.47565 0.10636 0.87295 0.0
C143 C 0.40198 0.12114 0.87586 0.0
C144 C 0.42015 0.01336 0.90984 0.0
N145 N 0.48541 0.03806 0.89357 0.0
O146 O 0.27403 0.07101 0.99305 0.0
H147 H 0.3762 0.17131 0.86221 0.0
H148 H 0.41226 0.96081 0.93088 0.0
O149 O 0.22869 0.12949 0.86785 0.0
C150 C 0.28846 0.01516 1.02759 0.0
O151 O 0.29412 0.95105 1.00155 0.0
N152 N 0.27365 0.98556 0.8344 0.0
C153 C 0.24231 0.87085 0.76093 0.0
C154 C 0.23905 0.94054 0.73464 0.0
C155 C 0.24772 -0.00122 0.77567 0.0
C156 C 0.30136 0.91871 0.84875 0.0
C157 C 0.29246 0.8607 0.8085 0.0
H158 H 0.22403 0.04956 0.76273 0.0
H159 H 0.31969 0.90661 0.89529 0.0
H160 H 0.11139 0.10406 0.91635 0.0
H161 H 0.04383 0.89098 0.95546 0.0
H162 H 0.518 0.14169 0.8555 0.0
H163 H 0.21207 0.94945 0.69075 0.0
H164 H 0.30414 0.80681 0.82625 0.0
C165 C 0.09798 0.15177 0.43618 0.0
C166 C 0.09804 0.07768 0.44509 0.0
N167 N 0.02965 0.05411 0.43741 0.0
N168 N 0.02998 0.17432 0.42231 0.0
C169 C 0.98929 0.1132 0.42444 0.0
H170 H 0.14497 0.18675 0.43883 0.0
Co171 Co 0.00013 0.27066 0.40885 0.0
C172 C 0.86351 0.22892 0.31896 0.0
O173 O 0.87117 0.2788 0.27544 0.0
N174 N 0.97368 0.36703 0.39771 0.0
C175 C 0.92921 0.47572 0.37287 0.0
C176 C 0.91442 0.40206 0.37576 0.0
C177 C 0.02217 0.42021 0.40982 0.0
N178 N -0.00251 0.48548 0.39354 0.0
O179 O 0.96446 0.27407 0.49299 0.0
H180 H 0.86426 0.37628 0.36207 0.0
H181 H 0.07471 0.41231 0.4309 0.0
O182 O 0.90607 0.22877 0.36775 0.0
C183 C 0.02029 0.28849 0.52756 0.0
O184 O 0.08442 0.29416 0.50155 0.0
N185 N 0.05004 0.27374 0.33441 0.0
C186 C 0.1648 0.24243 0.26101 0.0
C187 C 0.09513 0.23918 0.23468 0.0
C188 C 0.03686 0.24784 0.27566 0.0
C189 C 0.11688 0.30143 0.34882 0.0
C190 C 0.17492 0.29254 0.30861 0.0
H191 H 0.98608 0.22417 0.26269 0.0
H192 H 0.12894 0.31975 0.39536 0.0
H193 H 0.93146 0.11146 0.41629 0.0
H194 H 0.14453 0.04388 0.45553 0.0
H195 H 0.89388 0.51809 0.35539 0.0
H196 H 0.08626 0.21223 0.19077 0.0
H197 H 0.2288 0.3042 0.3264 0.0
C198 C 0.88364 0.09789 0.93608 0.0
C199 C 0.95774 0.09797 0.94501 0.0
N200 N 0.98133 0.02959 0.93731 0.0
N201 N 0.86112 0.02988 0.92222 0.0
C202 C 0.92225 0.98921 0.92438 0.0
H203 H 0.84865 0.14487 0.93873 0.0
Co204 Co 0.76478 2e-05 0.90879 0.0
C205 C 0.8065 0.86337 0.81897 0.0
O206 O 0.75661 0.87105 0.77546 0.0
N207 N 0.6684 0.97357 0.89767 0.0
C208 C 0.55968 0.92916 0.87284 0.0
C209 C 0.63334 0.91434 0.87572 0.0
C210 C 0.61525 0.02208 0.90979 0.0
N211 N 0.54997 -0.00255 0.89348 0.0
O212 O 0.76139 0.96443 0.99296 0.0
H213 H 0.65909 0.86417 0.86203 0.0
H214 H 0.62317 0.07459 0.93091 0.0
O215 O 0.80666 0.90593 0.86776 0.0
C216 C 0.74698 0.02028 1.0275 0.0
O217 O 0.74129 0.08439 1.00145 0.0
N218 N 0.76169 0.04987 0.8343 0.0
C219 C 0.79301 0.16459 0.76084 0.0
C220 C 0.79629 0.0949 0.73456 0.0
C221 C 0.78764 0.03666 0.77558 0.0
C222 C 0.73396 0.11671 0.84864 0.0
C223 C 0.74286 0.17472 0.8084 0.0
H224 H 0.81137 0.98589 0.76267 0.0
H225 H 0.71563 0.12881 0.89517 0.0
H226 H 0.924 0.93137 0.91628 0.0
H227 H 0.99152 0.14446 0.95549 0.0
H228 H 0.51728 0.89385 0.85539 0.0
H229 H 0.82329 0.086 0.69069 0.0
H230 H 0.73117 0.22862 0.82614 0.0
C231 C 0.93763 0.8837 0.43606 0.0
C232 C 0.93755 0.9578 0.44498 0.0
N233 N 0.00592 0.98138 0.43732 0.0
N234 N 0.00564 0.86118 0.42224 0.0
C235 C 0.04631 0.92231 0.4244 0.0
H236 H 0.89064 0.84871 0.43869 0.0
Co237 Co 0.03551 0.76484 0.40882 0.0
C238 C 0.1722 0.80657 0.31909 0.0
O239 O 0.16454 0.75668 0.27558 0.0
N240 N 0.06196 0.66847 0.39772 0.0
C241 C 0.10641 0.55975 0.37292 0.0
C242 C 0.12122 0.63342 0.37582 0.0
C243 C 0.01344 0.61531 0.40979 0.0
N244 N 0.03809 0.55004 0.39349 0.0
O245 O 0.07105 0.76142 0.49302 0.0
H246 H 0.17141 0.65917 0.36219 0.0
H247 H 0.96091 0.62322 0.43086 0.0
O248 O 0.12962 0.80673 0.36786 0.0
C249 C 0.01518 0.747 0.52753 0.0
O250 O 0.95108 0.74133 0.50145 0.0
N251 N 0.98571 0.76178 0.3343 0.0
C252 C 0.87104 0.79313 0.26077 0.0
C253 C 0.94074 0.79641 0.23453 0.0
C254 C -0.00104 0.78775 0.27559 0.0
C255 C 0.91886 0.73405 0.3486 0.0
C256 C 0.86087 0.74296 0.30831 0.0
H257 H 0.04973 0.81148 0.26271 0.0
H258 H 0.90673 0.71572 0.39512 0.0
H259 H 0.10415 0.92406 0.41633 0.0
H260 H 0.89105 0.99158 0.45544 0.0
H261 H 0.14174 0.51737 0.3555 0.0
H262 H 0.94967 0.82344 0.19067 0.0
H263 H 0.80697 0.73125 0.32601 0.0
loop_
_geom_bond_atom_site_label_1
_geom_bond_atom_site_label_2
_geom_bond_distance
_geom_bond_site_symmetry_2
_ccdc_geom_bond_type
C0 C1 1.351 . S
C0 N3 1.368 1_545 S
C0 H5 0.931 . S
C1 C0 1.351 . S
C1 N2 1.373 1_545 S
C1 H29 0.930 . S
N2 C1 1.373 1_565 S
N2 C4 1.340 . S
N3 C0 1.368 1_565 S
N3 C4 1.321 . S
N3 Co6 2.135 . S
C4 N2 1.340 . S
C4 N3 1.321 . S
C4 H28 0.930 . S
H5 C0 0.931 . S
Co6 N3 2.135 . S
Co6 N9 2.121 . S
Co6 O14 2.055 . S
Co6 O17 2.039 . S
Co6 N20 2.140 1_565 S
C7 O8 1.227 . S
C7 O17 1.265 . S
O8 C7 1.227 . S
N9 Co6 2.121 . S
N9 C11 1.375 . S
N9 C12 1.313 . S
C10 C11 1.338 . S
C10 N13 1.377 . S
C10 H30 0.930 . S
C11 N9 1.375 . S
C11 C10 1.338 . S
C11 H15 0.931 . S
C12 N9 1.313 . S
C12 N13 1.344 . S
C12 H16 0.930 . S
N13 C10 1.377 . S
N13 C12 1.344 . S
O14 Co6 2.055 . S
O14 C18 1.253 1_565 S
H15 C11 0.931 . S
H16 C12 0.930 . S
O17 Co6 2.039 . S
O17 C7 1.265 . S
C18 O14 1.253 1_545 S
C18 O19 1.227 . S
O19 C18 1.227 . S
N20 Co6 2.140 1_545 S
N20 C23 1.346 . S
N20 C24 1.345 . S
C21 C22 1.387 . S
C21 C25 1.391 . S
C22 C21 1.387 . S
C22 C23 1.369 . S
C22 H31 0.929 . S
C23 N20 1.346 . S
C23 C22 1.369 . S
C23 H26 0.928 . S
C24 N20 1.345 . S
C24 C25 1.371 . S
C24 H27 0.931 . S
C25 C21 1.391 . S
C25 C24 1.371 . S
C25 H32 0.930 . S
H26 C23 0.928 . S
H27 C24 0.931 . S
H28 C4 0.930 . S
H29 C1 0.930 . S
H30 C10 0.930 . S
H31 C22 0.929 . S
H32 C25 0.930 . S
C33 C34 1.351 . S
C33 N36 1.368 . S
C33 H38 0.931 1_455 S
C34 C33 1.351 . S
C34 N35 1.373 . S
C34 H62 0.930 1_455 S
N35 C34 1.373 . S
N35 C37 1.340 . S
N36 C33 1.368 . S
N36 C37 1.321 . S
N36 Co39 2.135 . S
C37 N35 1.340 . S
C37 N36 1.321 . S
C37 H61 0.930 . S
H38 C33 0.931 1_655 S
Co39 N36 2.135 . S
Co39 N42 2.121 . S
Co39 O47 2.055 . S
Co39 O50 2.039 . S
Co39 N53 2.140 1_455 S
C40 O41 1.227 . S
C40 O50 1.265 . S
O41 C40 1.227 . S
N42 Co39 2.121 . S
N42 C44 1.375 . S
N42 C45 1.313 . S
C43 C44 1.338 . S
C43 N46 1.377 . S
C43 H63 0.930 . S
C44 N42 1.375 . S
C44 C43 1.338 . S
C44 H48 0.931 . S
C45 N42 1.313 . S
C45 N46 1.344 . S
C45 H49 0.930 . S
N46 C43 1.377 . S
N46 C45 1.344 . S
O47 Co39 2.055 . S
O47 C51 1.253 . S
H48 C44 0.931 . S
H49 C45 0.930 . S
O50 Co39 2.039 . S
O50 C40 1.265 . S
C51 O47 1.253 . S
C51 O52 1.227 1_455 S
O52 C51 1.227 1_655 S
N53 Co39 2.140 1_655 S
N53 C56 1.346 . S
N53 C57 1.345 . S
C54 C55 1.387 . S
C54 C58 1.391 . S
C55 C54 1.387 . S
C55 C56 1.369 . S
C55 H64 0.929 . S
C56 N53 1.346 . S
C56 C55 1.369 . S
C56 H59 0.928 . S
C57 N53 1.345 . S
C57 C58 1.371 . S
C57 H60 0.931 . S
C58 C54 1.391 . S
C58 C57 1.371 . S
C58 H65 0.930 . S
H59 C56 0.928 . S
H60 C57 0.931 . S
H61 C37 0.930 . S
H62 C34 0.930 1_655 S
H63 C43 0.930 . S
H64 C55 0.929 . S
H65 C58 0.930 . S
C66 C67 1.351 . S
C66 N69 1.368 . S
C66 H71 0.931 1_545 S
C67 C66 1.351 . S
C67 N68 1.373 1_655 S
C67 H95 0.930 1_645 S
N68 C67 1.373 1_455 S
N68 C70 1.340 1_455 S
N69 C66 1.368 . S
N69 C70 1.321 . S
N69 Co72 2.135 . S
C70 N68 1.340 1_655 S
C70 N69 1.321 . S
C70 H94 0.930 . S
H71 C66 0.931 1_565 S
Co72 N69 2.135 . S
Co72 N75 2.121 . S
Co72 O80 2.055 . S
Co72 O83 2.039 . S
Co72 N86 2.140 1_545 S
C73 O74 1.227 . S
C73 O83 1.265 . S
O74 C73 1.227 . S
N75 Co72 2.121 . S
N75 C77 1.375 . S
N75 C78 1.313 . S
C76 C77 1.338 . S
C76 N79 1.377 . S
C76 H96 0.930 . S
C77 N75 1.375 . S
C77 C76 1.338 . S
C77 H81 0.931 . S
C78 N75 1.313 . S
C78 N79 1.344 . S
C78 H82 0.930 . S
N79 C76 1.377 . S
N79 C78 1.344 . S
O80 Co72 2.055 . S
O80 C84 1.253 . S
H81 C77 0.931 . S
H82 C78 0.930 . S
O83 Co72 2.039 . S
O83 C73 1.265 . S
C84 O80 1.253 . S
C84 O85 1.227 1_545 S
O85 C84 1.227 1_565 S
N86 Co72 2.140 1_565 S
N86 C89 1.346 . S
N86 C90 1.345 . S
C87 C88 1.387 . S
C87 C91 1.391 . S
C88 C87 1.387 . S
C88 C89 1.369 . S
C88 H97 0.929 . S
C89 N86 1.346 . S
C89 C88 1.369 . S
C89 H92 0.928 . S
C90 N86 1.345 . S
C90 C91 1.371 . S
C90 H93 0.931 . S
C91 C87 1.391 . S
C91 C90 1.371 . S
C91 H98 0.930 . S
H92 C89 0.928 . S
H93 C90 0.931 . S
H94 C70 0.930 . S
H95 C67 0.930 1_465 S
H96 C76 0.930 . S
H97 C88 0.929 . S
H98 C91 0.930 . S
C99 C100 1.351 . S
C99 N102 1.368 1_455 S
C99 H104 0.931 . S
C100 C99 1.351 . S
C100 N101 1.373 1_465 S
C100 H128 0.930 1_565 S
N101 C100 1.373 1_645 S
N101 C103 1.340 1_545 S
N102 C99 1.368 1_655 S
N102 C103 1.321 . S
N102 Co105 2.135 . S
C103 N101 1.340 1_565 S
C103 N102 1.321 . S
C103 H127 0.930 . S
H104 C99 0.931 . S
Co105 N102 2.135 . S
Co105 N108 2.121 . S
Co105 O113 2.055 . S
Co105 O116 2.039 . S
Co105 N119 2.140 1_655 S
C106 O107 1.227 . S
C106 O116 1.265 . S
O107 C106 1.227 . S
N108 Co105 2.121 . S
N108 C110 1.375 . S
N108 C111 1.313 . S
C109 C110 1.338 . S
C109 N112 1.377 . S
C109 H129 0.930 . S
C110 N108 1.375 . S
C110 C109 1.338 . S
C110 H114 0.931 . S
C111 N108 1.313 . S
C111 N112 1.344 . S
C111 H115 0.930 . S
N112 C109 1.377 . S
N112 C111 1.344 . S
O113 Co105 2.055 . S
O113 C117 1.253 1_655 S
H114 C110 0.931 . S
H115 C111 0.930 . S
O116 Co105 2.039 . S
O116 C106 1.265 . S
C117 O113 1.253 1_455 S
C117 O118 1.227 . S
O118 C117 1.227 . S
N119 Co105 2.140 1_455 S
N119 C122 1.346 . S
N119 C123 1.345 . S
C120 C121 1.387 . S
C120 C124 1.391 . S
C121 C120 1.387 . S
C121 C122 1.369 . S
C121 H130 0.929 . S
C122 N119 1.346 . S
C122 C121 1.369 . S
C122 H125 0.928 . S
C123 N119 1.345 . S
C123 C124 1.371 . S
C123 H126 0.931 . S
C124 C120 1.391 . S
C124 C123 1.371 . S
C124 H131 0.930 . S
H125 C122 0.928 . S
H126 C123 0.931 . S
H127 C103 0.930 . S
H128 C100 0.930 1_545 S
H129 C109 0.930 . S
H130 C121 0.929 . S
H131 C124 0.930 . S
C132 C133 1.351 . S
C132 N135 1.368 . S
C132 H137 0.931 1_545 S
C133 C132 1.351 . S
C133 N134 1.373 . S
C133 H161 0.930 1_545 S
N134 C133 1.373 . S
N134 C136 1.340 . S
N135 C132 1.368 . S
N135 C136 1.321 . S
N135 Co138 2.135 . S
C136 N134 1.340 . S
C136 N135 1.321 . S
C136 H160 0.930 . S
H137 C132 0.931 1_565 S
Co138 N135 2.135 . S
Co138 N141 2.121 . S
Co138 O146 2.055 . S
Co138 O149 2.039 . S
Co138 N152 2.140 1_545 S
C139 O140 1.227 . S
C139 O149 1.265 . S
O140 C139 1.227 . S
N141 Co138 2.121 . S
N141 C143 1.375 . S
N141 C144 1.313 . S
C142 C143 1.338 . S
C142 N145 1.377 . S
C142 H162 0.930 . S
C143 N141 1.375 . S
C143 C142 1.338 . S
C143 H147 0.931 . S
C144 N141 1.313 . S
C144 N145 1.344 . S
C144 H148 0.930 . S
N145 C142 1.377 . S
N145 C144 1.344 . S
O146 Co138 2.055 . S
O146 C150 1.253 . S
H147 C143 0.931 . S
H148 C144 0.930 . S
O149 Co138 2.039 . S
O149 C139 1.265 . S
C150 O146 1.253 . S
C150 O151 1.227 1_545 S
O151 C150 1.227 1_565 S
N152 Co138 2.140 1_565 S
N152 C155 1.346 . S
N152 C156 1.345 . S
C153 C154 1.387 . S
C153 C157 1.391 . S
C154 C153 1.387 . S
C154 C155 1.369 . S
C154 H163 0.929 . S
C155 N152 1.346 . S
C155 C154 1.369 . S
C155 H158 0.928 . S
C156 N152 1.345 . S
C156 C157 1.371 . S
C156 H159 0.931 . S
C157 C153 1.391 . S
C157 C156 1.371 . S
C157 H164 0.930 . S
H158 C155 0.928 . S
H159 C156 0.931 . S
H160 C136 0.930 . S
H161 C133 0.930 1_565 S
H162 C142 0.930 . S
H163 C154 0.929 . S
H164 C157 0.930 . S
C165 C166 1.351 . S
C165 N168 1.368 1_455 S
C165 H170 0.931 . S
C166 C165 1.351 . S
C166 N167 1.373 1_455 S
C166 H194 0.930 . S
N167 C166 1.373 1_655 S
N167 C169 1.340 . S
N168 C165 1.368 1_655 S
N168 C169 1.321 . S
N168 Co171 2.135 . S
C169 N167 1.340 . S
C169 N168 1.321 . S
C169 H193 0.930 . S
H170 C165 0.931 . S
Co171 N168 2.135 . S
Co171 N174 2.121 . S
Co171 O179 2.055 . S
Co171 O182 2.039 . S
Co171 N185 2.140 1_655 S
C172 O173 1.227 . S
C172 O182 1.265 . S
O173 C172 1.227 . S
N174 Co171 2.121 . S
N174 C176 1.375 . S
N174 C177 1.313 . S
C175 C176 1.338 . S
C175 N178 1.377 . S
C175 H195 0.930 . S
C176 N174 1.375 . S
C176 C175 1.338 . S
C176 H180 0.931 . S
C177 N174 1.313 . S
C177 N178 1.344 . S
C177 H181 0.930 . S
N178 C175 1.377 . S
N178 C177 1.344 . S
O179 Co171 2.055 . S
O179 C183 1.253 1_655 S
H180 C176 0.931 . S
H181 C177 0.930 . S
O182 Co171 2.039 . S
O182 C172 1.265 . S
C183 O179 1.253 1_455 S
C183 O184 1.227 . S
O184 C183 1.227 . S
N185 Co171 2.140 1_455 S
N185 C188 1.346 . S
N185 C189 1.345 . S
C186 C187 1.387 . S
C186 C190 1.391 . S
C187 C186 1.387 . S
C187 C188 1.369 . S
C187 H196 0.929 . S
C188 N185 1.346 . S
C188 C187 1.369 . S
C188 H191 0.928 . S
C189 N185 1.345 . S
C189 C190 1.371 . S
C189 H192 0.931 . S
C190 C186 1.391 . S
C190 C189 1.371 . S
C190 H197 0.930 . S
H191 C188 0.928 . S
H192 C189 0.931 . S
H193 C169 0.930 . S
H194 C166 0.930 . S
H195 C175 0.930 . S
H196 C187 0.929 . S
H197 C190 0.930 . S
C198 C199 1.351 . S
C198 N201 1.368 1_545 S
C198 H203 0.931 . S
C199 C198 1.351 . S
C199 N200 1.373 1_645 S
C199 H227 0.930 1_655 S
N200 C199 1.373 1_465 S
N200 C202 1.340 1_455 S
N201 C198 1.368 1_565 S
N201 C202 1.321 . S
N201 Co204 2.135 . S
C202 N200 1.340 1_655 S
C202 N201 1.321 . S
C202 H226 0.930 . S
H203 C198 0.931 . S
Co204 N201 2.135 . S
Co204 N207 2.121 . S
Co204 O212 2.055 . S
Co204 O215 2.039 . S
Co204 N218 2.140 1_565 S
C205 O206 1.227 . S
C205 O215 1.265 . S
O206 C205 1.227 . S
N207 Co204 2.121 . S
N207 C209 1.375 . S
N207 C210 1.313 . S
C208 C209 1.338 . S
C208 N211 1.377 . S
C208 H228 0.930 . S
C209 N207 1.375 . S
C209 C208 1.338 . S
C209 H213 0.931 . S
C210 N207 1.313 . S
C210 N211 1.344 . S
C210 H214 0.930 . S
N211 C208 1.377 . S
N211 C210 1.344 . S
O212 Co204 2.055 . S
O212 C216 1.253 1_565 S
H213 C209 0.931 . S
H214 C210 0.930 . S
O215 Co204 2.039 . S
O215 C205 1.265 . S
C216 O212 1.253 1_545 S
C216 O217 1.227 . S
O217 C216 1.227 . S
N218 Co204 2.140 1_545 S
N218 C221 1.346 . S
N218 C222 1.345 . S
C219 C220 1.387 . S
C219 C223 1.391 . S
C220 C219 1.387 . S
C220 C221 1.369 . S
C220 H229 0.929 . S
C221 N218 1.346 . S
C221 C220 1.369 . S
C221 H224 0.928 . S
C222 N218 1.345 . S
C222 C223 1.371 . S
C222 H225 0.931 . S
C223 C219 1.391 . S
C223 C222 1.371 . S
C223 H230 0.930 . S
H224 C221 0.928 . S
H225 C222 0.931 . S
H226 C202 0.930 . S
H227 C199 0.930 1_455 S
H228 C208 0.930 . S
H229 C220 0.929 . S
H230 C223 0.930 . S
C231 C232 1.351 . S
C231 N234 1.368 . S
C231 H236 0.931 1_455 S
C232 C231 1.351 . S
C232 N233 1.373 1_565 S
C232 H260 0.930 1_465 S
N233 C232 1.373 1_545 S
N233 C235 1.340 1_545 S
N234 C231 1.368 . S
N234 C235 1.321 . S
N234 Co237 2.135 . S
C235 N233 1.340 1_565 S
C235 N234 1.321 . S
C235 H259 0.930 . S
H236 C231 0.931 1_655 S
Co237 N234 2.135 . S
Co237 N240 2.121 . S
Co237 O245 2.055 . S
Co237 O248 2.039 . S
Co237 N251 2.140 1_455 S
C238 O239 1.227 . S
C238 O248 1.265 . S
O239 C238 1.227 . S
N240 Co237 2.121 . S
N240 C242 1.375 . S
N240 C243 1.313 . S
C241 C242 1.338 . S
C241 N244 1.377 . S
C241 H261 0.930 . S
C242 N240 1.375 . S
C242 C241 1.338 . S
C242 H246 0.931 . S
C243 N240 1.313 . S
C243 N244 1.344 . S
C243 H247 0.930 . S
N244 C241 1.377 . S
N244 C243 1.344 . S
O245 Co237 2.055 . S
O245 C249 1.253 . S
H246 C242 0.931 . S
H247 C243 0.930 . S
O248 Co237 2.039 . S
O248 C238 1.265 . S
C249 O245 1.253 . S
C249 O250 1.227 1_455 S
O250 C249 1.227 1_655 S
N251 Co237 2.140 1_655 S
N251 C254 1.346 . S
N251 C255 1.345 . S
C252 C253 1.387 . S
C252 C256 1.391 . S
C253 C252 1.387 . S
C253 C254 1.369 . S
C253 H262 0.929 . S
C254 N251 1.346 . S
C254 C253 1.369 . S
C254 H257 0.928 . S
C255 N251 1.345 . S
C255 C256 1.371 . S
C255 H258 0.931 . S
C256 C252 1.391 . S
C256 C255 1.371 . S
C256 H263 0.930 . S
H257 C254 0.928 . S
H258 C255 0.931 . S
H259 C235 0.930 . S
H260 C232 0.930 1_645 S
H261 C241 0.930 . S
H262 C253 0.929 . S
H263 C256 0.930 . S
C18 C150 1.884 1_554 S
C183 C51 1.884 . S
C84 C216 1.884 1_554 S
C249 C117 1.884 . S
C186 C21 0.842 . S
C219 C54 0.842 . S
C87 C252 0.842 . S
C153 C120 0.842 . S
C106 C205 1.813 . S
C7 C238 1.813 . S
C40 C139 1.813 . S
C73 C172 1.813 . S
N2 N68 1.722 1_565 S
N35 N101 1.721 1_455 S
N200 N134 1.721 1_565 S
N233 N167 1.722 1_455 S
N13 N79 1.781 1_565 S
N112 N46 1.779 1_655 S
N145 N211 1.779 1_545 S
N178 N244 1.781 1_655 S
