# Generated by pormake.
# Topology unx, (4)-cn, num edge types: 1
# Building blocks:
#     Node 0, Type 0, BuildingBlock: GALJAG_clean_sbu_0, # of connection points: 4
#     Node 1, Type 0, BuildingBlock: GALJAG_clean_sbu_0, # of connection points: 4
#     Node 2, Type 0, BuildingBlock: GALJAG_clean_sbu_0, # of connection points: 4
#     Node 3, Type 0, BuildingBlock: GALJAG_clean_sbu_0, # of connection points: 4
#     Node 4, Type 0, BuildingBlock: GALJAG_clean_sbu_0, # of connection points: 4
#     Node 5, Type 0, BuildingBlock: GALJAG_clean_sbu_0, # of connection points: 4
#     Node 6, Type 0, BuildingBlock: GALJAG_clean_sbu_0, # of connection points: 4
#     Node 7, Type 0, BuildingBlock: GALJAG_clean_sbu_0, # of connection points: 4
#     Node 8, Type 0, BuildingBlock: GALJAG_clean_sbu_0, # of connection points: 4
#     Node 9, Type 0, BuildingBlock: GALJAG_clean_sbu_0, # of connection points: 4
#     Node 10, Type 0, BuildingBlock: GALJAG_clean_sbu_0, # of connection points: 4
#     Node 11, Type 0, BuildingBlock: GALJAG_clean_sbu_0, # of connection points: 4
#     Node 12, Type 0, BuildingBlock: GALJAG_clean_sbu_0, # of connection points: 4
#     Node 13, Type 0, BuildingBlock: GALJAG_clean_sbu_0, # of connection points: 4
#     Node 14, Type 0, BuildingBlock: GALJAG_clean_sbu_0, # of connection points: 4
#     Node 15, Type 0, BuildingBlock: GALJAG_clean_sbu_0, # of connection points: 4
#     Node 16, Type 0, BuildingBlock: GALJAG_clean_sbu_0, # of connection points: 4
#     Node 17, Type 0, BuildingBlock: GALJAG_clean_sbu_0, # of connection points: 4
#     Node 18, Type 0, BuildingBlock: GALJAG_clean_sbu_0, # of connection points: 4
#     Node 19, Type 0, BuildingBlock: GALJAG_clean_sbu_0, # of connection points: 4
#     Node 20, Type 0, BuildingBlock: GALJAG_clean_sbu_0, # of connection points: 4
#     Node 21, Type 0, BuildingBlock: GALJAG_clean_sbu_0, # of connection points: 4
#     Node 22, Type 0, BuildingBlock: GALJAG_clean_sbu_0, # of connection points: 4
#     Node 23, Type 0, BuildingBlock: GALJAG_clean_sbu_0, # of connection points: 4
#     Node 24, Type 0, BuildingBlock: GALJAG_clean_sbu_0, # of connection points: 4
#     Node 25, Type 0, BuildingBlock: GALJAG_clean_sbu_0, # of connection points: 4
#     Node 26, Type 0, BuildingBlock: GALJAG_clean_sbu_0, # of connection points: 4
#     Node 27, Type 0, BuildingBlock: GALJAG_clean_sbu_0, # of connection points: 4
#     Node 28, Type 0, BuildingBlock: GALJAG_clean_sbu_0, # of connection points: 4
#     Node 29, Type 0, BuildingBlock: GALJAG_clean_sbu_0, # of connection points: 4
#     Node 30, Type 0, BuildingBlock: GALJAG_clean_sbu_0, # of connection points: 4
#     Node 31, Type 0, BuildingBlock: GALJAG_clean_sbu_0, # of connection points: 4
#     Node 32, Type 0, BuildingBlock: GALJAG_clean_sbu_0, # of connection points: 4
#     Node 33, Type 0, BuildingBlock: GALJAG_clean_sbu_0, # of connection points: 4
#     Node 34, Type 0, BuildingBlock: GALJAG_clean_sbu_0, # of connection points: 4
#     Node 35, Type 0, BuildingBlock: GALJAG_clean_sbu_0, # of connection points: 4
#     Node 36, Type 0, BuildingBlock: GALJAG_clean_sbu_0, # of connection points: 4
#     Node 37, Type 0, BuildingBlock: GALJAG_clean_sbu_0, # of connection points: 4
#     Node 38, Type 0, BuildingBlock: GALJAG_clean_sbu_0, # of connection points: 4
#     Node 39, Type 0, BuildingBlock: GALJAG_clean_sbu_0, # of connection points: 4
#     Node 40, Type 0, BuildingBlock: GALJAG_clean_sbu_0, # of connection points: 4
#     Node 41, Type 0, BuildingBlock: GALJAG_clean_sbu_0, # of connection points: 4
#     Node 42, Type 0, BuildingBlock: GALJAG_clean_sbu_0, # of connection points: 4
#     Node 43, Type 0, BuildingBlock: GALJAG_clean_sbu_0, # of connection points: 4
#     Node 44, Type 0, BuildingBlock: GALJAG_clean_sbu_0, # of connection points: 4
#     Node 45, Type 0, BuildingBlock: GALJAG_clean_sbu_0, # of connection points: 4
#     Node 46, Type 0, BuildingBlock: GALJAG_clean_sbu_0, # of connection points: 4
#     Node 47, Type 0, BuildingBlock: GALJAG_clean_sbu_0, # of connection points: 4
#     Edge 48, Type (0, 0), BuildingBlock: CIFDUS_clean_linker_0, # of connection points: 2
#     Edge 49, Type (0, 0), BuildingBlock: CIFDUS_clean_linker_0, # of connection points: 2
#     Edge 50, Type (0, 0), BuildingBlock: CIFDUS_clean_linker_0, # of connection points: 2
#     Edge 51, Type (0, 0), BuildingBlock: CIFDUS_clean_linker_0, # of connection points: 2
#     Edge 52, Type (0, 0), BuildingBlock: CIFDUS_clean_linker_0, # of connection points: 2
#     Edge 53, Type (0, 0), BuildingBlock: CIFDUS_clean_linker_0, # of connection points: 2
#     Edge 54, Type (0, 0), BuildingBlock: CIFDUS_clean_linker_0, # of connection points: 2
#     Edge 55, Type (0, 0), BuildingBlock: CIFDUS_clean_linker_0, # of connection points: 2
#     Edge 56, Type (0, 0), BuildingBlock: CIFDUS_clean_linker_0, # of connection points: 2
#     Edge 57, Type (0, 0), BuildingBlock: CIFDUS_clean_linker_0, # of connection points: 2
#     Edge 58, Type (0, 0), BuildingBlock: CIFDUS_clean_linker_0, # of connection points: 2
#     Edge 59, Type (0, 0), BuildingBlock: CIFDUS_clean_linker_0, # of connection points: 2
#     Edge 60, Type (0, 0), BuildingBlock: CIFDUS_clean_linker_0, # of connection points: 2
#     Edge 61, Type (0, 0), BuildingBlock: CIFDUS_clean_linker_0, # of connection points: 2
#     Edge 62, Type (0, 0), BuildingBlock: CIFDUS_clean_linker_0, # of connection points: 2
#     Edge 63, Type (0, 0), BuildingBlock: CIFDUS_clean_linker_0, # of connection points: 2
#     Edge 64, Type (0, 0), BuildingBlock: CIFDUS_clean_linker_0, # of connection points: 2
#     Edge 65, Type (0, 0), BuildingBlock: CIFDUS_clean_linker_0, # of connection points: 2
#     Edge 66, Type (0, 0), BuildingBlock: CIFDUS_clean_linker_0, # of connection points: 2
#     Edge 67, Type (0, 0), BuildingBlock: CIFDUS_clean_linker_0, # of connection points: 2
#     Edge 68, Type (0, 0), BuildingBlock: CIFDUS_clean_linker_0, # of connection points: 2
#     Edge 69, Type (0, 0), BuildingBlock: CIFDUS_clean_linker_0, # of connection points: 2
#     Edge 70, Type (0, 0), BuildingBlock: CIFDUS_clean_linker_0, # of connection points: 2
#     Edge 71, Type (0, 0), BuildingBlock: CIFDUS_clean_linker_0, # of connection points: 2
#     Edge 72, Type (0, 0), BuildingBlock: CIFDUS_clean_linker_0, # of connection points: 2
#     Edge 73, Type (0, 0), BuildingBlock: CIFDUS_clean_linker_0, # of connection points: 2
#     Edge 74, Type (0, 0), BuildingBlock: CIFDUS_clean_linker_0, # of connection points: 2
#     Edge 75, Type (0, 0), BuildingBlock: CIFDUS_clean_linker_0, # of connection points: 2
#     Edge 76, Type (0, 0), BuildingBlock: CIFDUS_clean_linker_0, # of connection points: 2
#     Edge 77, Type (0, 0), BuildingBlock: CIFDUS_clean_linker_0, # of connection points: 2
#     Edge 78, Type (0, 0), BuildingBlock: CIFDUS_clean_linker_0, # of connection points: 2
#     Edge 79, Type (0, 0), BuildingBlock: CIFDUS_clean_linker_0, # of connection points: 2
#     Edge 80, Type (0, 0), BuildingBlock: CIFDUS_clean_linker_0, # of connection points: 2
#     Edge 81, Type (0, 0), BuildingBlock: CIFDUS_clean_linker_0, # of connection points: 2
#     Edge 82, Type (0, 0), BuildingBlock: CIFDUS_clean_linker_0, # of connection points: 2
#     Edge 83, Type (0, 0), BuildingBlock: CIFDUS_clean_linker_0, # of connection points: 2
#     Edge 84, Type (0, 0), BuildingBlock: CIFDUS_clean_linker_0, # of connection points: 2
#     Edge 85, Type (0, 0), BuildingBlock: CIFDUS_clean_linker_0, # of connection points: 2
#     Edge 86, Type (0, 0), BuildingBlock: CIFDUS_clean_linker_0, # of connection points: 2
#     Edge 87, Type (0, 0), BuildingBlock: CIFDUS_clean_linker_0, # of connection points: 2
#     Edge 88, Type (0, 0), BuildingBlock: CIFDUS_clean_linker_0, # of connection points: 2
#     Edge 89, Type (0, 0), BuildingBlock: CIFDUS_clean_linker_0, # of connection points: 2
#     Edge 90, Type (0, 0), BuildingBlock: CIFDUS_clean_linker_0, # of connection points: 2
#     Edge 91, Type (0, 0), BuildingBlock: CIFDUS_clean_linker_0, # of connection points: 2
#     Edge 92, Type (0, 0), BuildingBlock: CIFDUS_clean_linker_0, # of connection points: 2
#     Edge 93, Type (0, 0), BuildingBlock: CIFDUS_clean_linker_0, # of connection points: 2
#     Edge 94, Type (0, 0), BuildingBlock: CIFDUS_clean_linker_0, # of connection points: 2
#     Edge 95, Type (0, 0), BuildingBlock: CIFDUS_clean_linker_0, # of connection points: 2
#     Edge 96, Type (0, 0), BuildingBlock: CIFDUS_clean_linker_0, # of connection points: 2
#     Edge 97, Type (0, 0), BuildingBlock: CIFDUS_clean_linker_0, # of connection points: 2
#     Edge 98, Type (0, 0), BuildingBlock: CIFDUS_clean_linker_0, # of connection points: 2
#     Edge 99, Type (0, 0), BuildingBlock: CIFDUS_clean_linker_0, # of connection points: 2
#     Edge 100, Type (0, 0), BuildingBlock: CIFDUS_clean_linker_0, # of connection points: 2
#     Edge 101, Type (0, 0), BuildingBlock: CIFDUS_clean_linker_0, # of connection points: 2
#     Edge 102, Type (0, 0), BuildingBlock: CIFDUS_clean_linker_0, # of connection points: 2
#     Edge 103, Type (0, 0), BuildingBlock: CIFDUS_clean_linker_0, # of connection points: 2
#     Edge 104, Type (0, 0), BuildingBlock: CIFDUS_clean_linker_0, # of connection points: 2
#     Edge 105, Type (0, 0), BuildingBlock: CIFDUS_clean_linker_0, # of connection points: 2
#     Edge 106, Type (0, 0), BuildingBlock: CIFDUS_clean_linker_0, # of connection points: 2
#     Edge 107, Type (0, 0), BuildingBlock: CIFDUS_clean_linker_0, # of connection points: 2
#     Edge 108, Type (0, 0), BuildingBlock: CIFDUS_clean_linker_0, # of connection points: 2
#     Edge 109, Type (0, 0), BuildingBlock: CIFDUS_clean_linker_0, # of connection points: 2
#     Edge 110, Type (0, 0), BuildingBlock: CIFDUS_clean_linker_0, # of connection points: 2
#     Edge 111, Type (0, 0), BuildingBlock: CIFDUS_clean_linker_0, # of connection points: 2
#     Edge 112, Type (0, 0), BuildingBlock: CIFDUS_clean_linker_0, # of connection points: 2
#     Edge 113, Type (0, 0), BuildingBlock: CIFDUS_clean_linker_0, # of connection points: 2
#     Edge 114, Type (0, 0), BuildingBlock: CIFDUS_clean_linker_0, # of connection points: 2
#     Edge 115, Type (0, 0), BuildingBlock: CIFDUS_clean_linker_0, # of connection points: 2
#     Edge 116, Type (0, 0), BuildingBlock: CIFDUS_clean_linker_0, # of connection points: 2
#     Edge 117, Type (0, 0), BuildingBlock: CIFDUS_clean_linker_0, # of connection points: 2
#     Edge 118, Type (0, 0), BuildingBlock: CIFDUS_clean_linker_0, # of connection points: 2
#     Edge 119, Type (0, 0), BuildingBlock: CIFDUS_clean_linker_0, # of connection points: 2
#     Edge 120, Type (0, 0), BuildingBlock: CIFDUS_clean_linker_0, # of connection points: 2
#     Edge 121, Type (0, 0), BuildingBlock: CIFDUS_clean_linker_0, # of connection points: 2
#     Edge 122, Type (0, 0), BuildingBlock: CIFDUS_clean_linker_0, # of connection points: 2
#     Edge 123, Type (0, 0), BuildingBlock: CIFDUS_clean_linker_0, # of connection points: 2
#     Edge 124, Type (0, 0), BuildingBlock: CIFDUS_clean_linker_0, # of connection points: 2
#     Edge 125, Type (0, 0), BuildingBlock: CIFDUS_clean_linker_0, # of connection points: 2
#     Edge 126, Type (0, 0), BuildingBlock: CIFDUS_clean_linker_0, # of connection points: 2
#     Edge 127, Type (0, 0), BuildingBlock: CIFDUS_clean_linker_0, # of connection points: 2
#     Edge 128, Type (0, 0), BuildingBlock: CIFDUS_clean_linker_0, # of connection points: 2
#     Edge 129, Type (0, 0), BuildingBlock: CIFDUS_clean_linker_0, # of connection points: 2
#     Edge 130, Type (0, 0), BuildingBlock: CIFDUS_clean_linker_0, # of connection points: 2
#     Edge 131, Type (0, 0), BuildingBlock: CIFDUS_clean_linker_0, # of connection points: 2
#     Edge 132, Type (0, 0), BuildingBlock: CIFDUS_clean_linker_0, # of connection points: 2
#     Edge 133, Type (0, 0), BuildingBlock: CIFDUS_clean_linker_0, # of connection points: 2
#     Edge 134, Type (0, 0), BuildingBlock: CIFDUS_clean_linker_0, # of connection points: 2
#     Edge 135, Type (0, 0), BuildingBlock: CIFDUS_clean_linker_0, # of connection points: 2
#     Edge 136, Type (0, 0), BuildingBlock: CIFDUS_clean_linker_0, # of connection points: 2
#     Edge 137, Type (0, 0), BuildingBlock: CIFDUS_clean_linker_0, # of connection points: 2
#     Edge 138, Type (0, 0), BuildingBlock: CIFDUS_clean_linker_0, # of connection points: 2
#     Edge 139, Type (0, 0), BuildingBlock: CIFDUS_clean_linker_0, # of connection points: 2
#     Edge 140, Type (0, 0), BuildingBlock: CIFDUS_clean_linker_0, # of connection points: 2
#     Edge 141, Type (0, 0), BuildingBlock: CIFDUS_clean_linker_0, # of connection points: 2
#     Edge 142, Type (0, 0), BuildingBlock: CIFDUS_clean_linker_0, # of connection points: 2
#     Edge 143, Type (0, 0), BuildingBlock: CIFDUS_clean_linker_0, # of connection points: 2
# Relax obj value: 0.526
# Max RMSD: 0.260
# Mean RMSD: 0.214
data_MOF--net-unx--node1-GALJAG_clean_sbu_0--edge1-CIFDUS_clean_linker_0
_symmetry_space_group_name_H-M    P1
_symmetry_Int_Tables_number       1
_symmetry_cell_setting            triclinic
loop_
_symmetry_equiv_pos_as_xyz
'x, y, z'
_cell_length_a     47.840371
_cell_length_b     48.042661
_cell_length_c     47.344137
_cell_angle_alpha  89.8776
_cell_angle_beta   90.054063
_cell_angle_gamma 90.406146
loop_
_atom_site_label
_atom_site_type_symbol
_atom_site_fract_x
_atom_site_fract_y
_atom_site_fract_z
_atom_type_partial_charge
In0 In 0.21415 0.55857 0.23087 0.0
O1 O 0.24883 0.59135 0.23838 0.0
O2 O 0.25087 0.55276 0.26064 0.0
C3 C 0.19124 0.58244 0.18454 0.0
C4 C 0.23547 0.51663 0.19962 0.0
C5 C 0.17369 0.55653 0.27114 0.0
O6 O 0.20889 0.59535 0.19976 0.0
O7 O 0.1851 0.55839 0.1932 0.0
O8 O 0.1878 0.53546 0.2643 0.0
O9 O 0.18088 0.57866 0.25869 0.0
C10 C 0.26262 0.57577 0.25493 0.0
O11 O 0.25019 0.53351 0.21344 0.0
O12 O 0.20951 0.51919 0.20348 0.0
In13 In 0.61771 0.31803 0.48412 0.0
O14 O 0.58884 0.31233 0.44606 0.0
O15 O 0.63227 0.30435 0.44079 0.0
C16 C 0.59378 0.3678 0.49587 0.0
C17 C 0.60681 0.26832 0.50992 0.0
C18 C 0.66871 0.34148 0.48803 0.0
O19 O 0.6027 0.3612 0.47181 0.0
O20 O 0.5943 0.34822 0.51381 0.0
O21 O 0.65116 0.34267 0.50792 0.0
O22 O 0.662 0.32486 0.46849 0.0
C23 C 0.60834 0.30523 0.42962 0.0
O24 O 0.6303 0.28035 0.51164 0.0
O25 O 0.58851 0.28226 0.49713 0.0
In26 In 0.95893 0.89562 0.6556 0.0
O27 O 0.93956 0.88505 0.69855 0.0
O28 O 0.93246 0.92524 0.68067 0.0
C29 C 0.98055 0.85144 0.63 0.0
C30 C 0.91255 0.89049 0.62466 0.0
C31 C 0.00753 0.92378 0.65833 0.0
O32 O 0.97392 0.85065 0.65599 0.0
O33 O 0.97681 0.87454 0.6178 0.0
O34 O 0.98739 0.93194 0.64301 0.0
O35 O 0.0021 0.90301 0.67394 0.0
C36 C 0.92592 0.90761 0.6995 0.0
O37 O 0.9294 0.9107 0.62039 0.0
O38 O 0.91988 0.87337 0.64345 0.0
In39 In 0.37741 0.0465 0.91779 0.0
O40 O 0.41126 0.07735 0.90389 0.0
O41 O 0.37038 0.07856 0.88461 0.0
C42 C 0.38143 0.00045 0.94904 0.0
C43 C 0.35083 0.08364 0.9489 0.0
C44 C 0.38563 0.01628 0.87236 0.0
O45 O 0.401 0.01861 0.94844 0.0
O46 O 0.3592 0.00702 0.93596 0.0
O47 O 0.36102 0.02385 0.87925 0.0
O48 O 0.40529 0.02375 0.88879 0.0
C49 C 0.3949 0.0887 0.88592 0.0
O50 O 0.33824 0.06937 0.93007 0.0
O51 O 0.37588 0.07665 0.95408 0.0
In52 In 0.07091 0.41951 0.85916 0.0
O53 O 0.0509 0.37652 0.86 0.0
O54 O 0.05092 0.4015 0.8977 0.0
C55 C 0.10471 0.43259 0.81619 0.0
C56 C 0.02289 0.44714 0.85415 0.0
C57 C 0.1168 0.40754 0.88819 0.0
O58 O 0.09148 0.40956 0.81709 0.0
O59 O 0.09781 0.45013 0.83488 0.0
O60 O 0.10272 0.42917 0.89433 0.0
O61 O 0.10698 0.39257 0.86858 0.0
C62 C 0.04406 0.37883 0.88588 0.0
O63 O 0.04241 0.45587 0.87024 0.0
O64 O 0.02907 0.42654 0.83872 0.0
In65 In 0.85199 0.45729 0.09686 0.0
O66 O 0.83992 0.48031 0.13667 0.0
O67 O 0.88181 0.48456 0.11986 0.0
C68 C 0.82378 0.41725 0.07065 0.0
C69 C 0.85003 0.50092 0.06202 0.0
C70 C 0.87432 0.41748 0.12836 0.0
O71 O 0.81197 0.43323 0.08842 0.0
O72 O 0.84881 0.42369 0.0642 0.0
O73 O 0.88776 0.42801 0.10753 0.0
O74 O 0.8502 0.42739 0.13282 0.0
C75 C 0.86443 0.49075 0.13905 0.0
O76 O 0.8716 0.48555 0.06356 0.0
O77 O 0.82903 0.49264 0.07627 0.0
In78 In 0.78408 0.06428 0.2788 0.0
O79 O 0.79964 0.10461 0.29994 0.0
O80 O 0.8151 0.06553 0.31446 0.0
C81 C 0.73917 0.07205 0.24575 0.0
C82 C 0.82664 0.05249 0.24404 0.0
C83 C 0.75229 0.04015 0.3183 0.0
O84 O 0.75041 0.09188 0.25945 0.0
O85 O 0.75204 0.04912 0.24698 0.0
O86 O 0.77095 0.0263 0.30554 0.0
O87 O 0.7501 0.06524 0.31082 0.0
C88 C 0.81521 0.09162 0.3172 0.0
O89 O 0.81606 0.03455 0.26064 0.0
O90 O 0.81454 0.07583 0.24366 0.0
In91 In 0.14467 0.18014 0.50702 0.0
O92 O 0.17617 0.17709 0.5434 0.0
O93 O 0.18435 0.15393 0.50649 0.0
C94 C 0.14456 0.23025 0.48027 0.0
C95 C 0.13239 0.13404 0.47646 0.0
C96 C 0.11016 0.1861 0.55121 0.0
O97 O 0.16676 0.21738 0.48596 0.0
O98 O 0.12251 0.21738 0.48688 0.0
O99 O 0.10229 0.1748 0.52838 0.0
O100 O 0.13511 0.19485 0.55128 0.0
C101 C 0.19114 0.15904 0.53164 0.0
O102 O 0.12339 0.1377 0.50121 0.0
O103 O 0.14548 0.15471 0.46628 0.0
In104 In 0.15474 0.92962 0.40386 0.0
O105 O 0.19458 0.90779 0.41764 0.0
O106 O 0.15607 0.89738 0.43829 0.0
C107 C 0.15823 0.96234 0.35902 0.0
C108 C 0.13089 0.89058 0.37148 0.0
C109 C 0.14527 0.97351 0.43701 0.0
O110 O 0.1798 0.94974 0.36799 0.0
O111 O 0.13588 0.95822 0.37263 0.0
O112 O 0.12665 0.95489 0.43317 0.0
O113 O 0.16893 0.96845 0.42626 0.0
C114 C 0.18172 0.89199 0.43491 0.0
O115 O 0.1166 0.90392 0.38957 0.0
O116 O 0.15649 0.89706 0.37033 0.0
In117 In 0.30612 0.43818 0.72434 0.0
O118 O 0.29008 0.47434 0.69725 0.0
O119 O 0.27374 0.43282 0.69141 0.0
C120 C 0.3467 0.44593 0.7626 0.0
C121 C 0.26029 0.42784 0.75537 0.0
C122 C 0.34008 0.42048 0.68337 0.0
O123 O 0.33359 0.4663 0.75178 0.0
O124 O 0.33818 0.42202 0.75514 0.0
O125 O 0.32511 0.40353 0.69767 0.0
O126 O 0.33827 0.44577 0.69056 0.0
C127 C 0.27341 0.45814 0.684 0.0
O128 O 0.27436 0.40827 0.74433 0.0
O129 O 0.2709 0.45196 0.75268 0.0
In130 In 0.86897 0.7039 0.97653 0.0
O131 O 0.91343 0.69688 0.9602 0.0
O132 O 0.88439 0.71756 0.93351 0.0
C133 C 0.87536 0.65662 0.00703 0.0
C134 C 0.86627 0.75542 1.00033 0.0
C135 C 0.82546 0.68071 0.9485 0.0
O136 O 0.89509 0.66715 0.99269 0.0
O137 O 0.85358 0.6713 0.00804 0.0
O138 O 0.82528 0.68396 0.97493 0.0
O139 O 0.84631 0.69129 0.93624 0.0
C140 C 0.90867 0.70795 0.93641 0.0
O141 O 0.85247 0.74819 0.97896 0.0
O142 O 0.88062 0.73626 0.01115 0.0
In143 In 0.54613 0.11338 0.1563 0.0
O144 O 0.56627 0.11793 0.19942 0.0
O145 O 0.57638 0.08235 0.17382 0.0
C146 C 0.5187 0.14801 0.12347 0.0
C147 C 0.59097 0.13463 0.13173 0.0
C148 C 0.49911 0.08462 0.16371 0.0
O149 O 0.52384 0.15393 0.14928 0.0
O150 O 0.52709 0.12443 0.11491 0.0
O151 O 0.51831 0.0762 0.1472 0.0
O152 O 0.50512 0.106 0.1784 0.0
C153 C 0.58182 0.09678 0.19567 0.0
O154 O 0.58081 0.11117 0.12389 0.0
O155 O 0.57797 0.14699 0.15142 0.0
In156 In 0.53378 0.30986 0.97919 0.0
O157 O 0.58044 0.31102 0.96825 0.0
O158 O 0.5591 0.27204 0.96674 0.0
C159 C 0.52831 0.35123 0.01747 0.0
C160 C 0.51144 0.31862 0.92735 0.0
C161 C 0.51826 0.27316 0.01897 0.0
O162 O 0.55157 0.34407 0.00726 0.0
O163 O 0.50749 0.34095 0.00468 0.0
O164 O 0.50561 0.27411 0.99546 0.0
O165 O 0.5389 0.28936 0.0213 0.0
C166 C 0.58185 0.28514 0.96363 0.0
O167 O 0.49854 0.30567 0.94667 0.0
O168 O 0.53448 0.32919 0.93495 0.0
In169 In 0.02388 0.75758 0.22657 0.0
O170 O 0.99029 0.73167 0.24966 0.0
O171 O 0.03307 0.72431 0.25933 0.0
C172 C 1.00023 0.80076 0.1998 0.0
C173 C 0.04709 0.79169 0.26517 0.0
C174 C 0.04238 0.73167 0.17959 0.0
O175 O 0.98588 0.78448 0.21528 0.0
O176 O 0.02565 0.79443 0.19736 0.0
O177 O 0.05871 0.74315 0.1972 0.0
O178 O 0.0169 0.73142 0.18683 0.0
C179 C 0.00781 0.71925 0.26528 0.0
O180 O 0.062 0.77676 0.24913 0.0
O181 O 0.02111 0.78933 0.26136 0.0
In182 In 0.4217 0.33692 0.49254 0.0
O183 O 0.37952 0.32135 0.47683 0.0
O184 O 0.38898 0.36516 0.47509 0.0
C185 C 0.45135 0.30308 0.52553 0.0
C186 C 0.44799 0.34097 0.4423 0.0
C187 C 0.40302 0.3567 0.54158 0.0
O188 O 0.42954 0.2948 0.51257 0.0
O189 O 0.46013 0.32715 0.51861 0.0
O190 O 0.4207 0.37082 0.52708 0.0
O191 O 0.39481 0.33417 0.53049 0.0
C192 C 0.37126 0.34584 0.471 0.0
O193 O 0.44823 0.361 0.45989 0.0
O194 O 0.43632 0.31881 0.45114 0.0
In195 In 0.9821 0.64 0.74404 0.0
O196 O 0.96039 0.59754 0.73964 0.0
O197 O 0.93559 0.63415 0.73839 0.0
C198 C 0.02652 0.63036 0.77784 0.0
C199 C 0.99134 0.65251 0.68884 0.0
C200 C 0.96366 0.67249 0.78587 0.0
O201 O 0.0084 0.61184 0.77243 0.0
O202 O 0.02485 0.65176 0.76233 0.0
O203 O 0.97057 0.683 0.76229 0.0
O204 O 0.96454 0.64635 0.78722 0.0
C205 C 0.93619 0.60792 0.73782 0.0
O206 O 0.98186 0.66963 0.70658 0.0
O207 O 0.99856 0.62941 0.6994 0.0
In208 In 0.09856 0.64187 0.98985 0.0
O209 O 0.09885 0.60608 0.0223 0.0
O210 O 0.12698 0.64068 0.02729 0.0
C211 C 0.07016 0.63648 0.94102 0.0
C212 C 0.07033 0.6769 0.02298 0.0
C213 C 0.14658 0.63143 0.96395 0.0
O214 O 0.06835 0.61844 0.96068 0.0
O215 O 0.08439 0.65803 0.94712 0.0
O216 O 0.1402 0.65617 0.97099 0.0
O217 O 0.12862 0.61284 0.9699 0.0
C218 C 0.11787 0.61786 0.03704 0.0
O219 O 0.09318 0.68401 0.01121 0.0
O220 O 0.06041 0.65362 0.0152 0.0
In221 In 0.46731 0.86356 0.25761 0.0
O222 O 0.45597 0.9099 0.25924 0.0
O223 O 0.4233 0.87978 0.25542 0.0
C224 C 0.50098 0.87204 0.21211 0.0
C225 C 0.47908 0.85994 0.31375 0.0
C226 C 0.44963 0.81514 0.23506 0.0
O227 O 0.47662 0.88182 0.21378 0.0
O228 O 0.5094 0.86034 0.23454 0.0
O229 O 0.47506 0.81996 0.24023 0.0
O230 O 0.43315 0.83346 0.24401 0.0
C231 C 0.42995 0.90513 0.25744 0.0
O232 O 0.45798 0.84899 0.30232 0.0
O233 O 0.49566 0.87177 0.29669 0.0
In234 In 0.48403 0.22647 0.73373 0.0
O235 O 0.52021 0.19754 0.72198 0.0
O236 O 0.47868 0.1881 0.70769 0.0
C237 C 0.49719 0.26793 0.76951 0.0
C238 C 0.46886 0.25086 0.68483 0.0
C239 C 0.46463 0.19443 0.77591 0.0
O240 O 0.51588 0.25473 0.75606 0.0
O241 O 0.4723 0.26168 0.76286 0.0
O242 O 0.44799 0.20659 0.75897 0.0
O243 O 0.49029 0.19868 0.77123 0.0
C244 C 0.50403 0.18099 0.7087 0.0
O245 O 0.45111 0.24071 0.70201 0.0
O246 O 0.49396 0.25039 0.69337 0.0
In247 In 0.5373 0.36584 0.24297 0.0
O248 O 0.5185 0.39285 0.27815 0.0
O249 O 0.49702 0.35563 0.26752 0.0
C250 C 0.57662 0.40609 0.24352 0.0
C251 C 0.55617 0.32378 0.27518 0.0
C252 C 0.53032 0.35643 0.18643 0.0
O253 O 0.55081 0.41166 0.24218 0.0
O254 O 0.58221 0.38045 0.24411 0.0
O255 O 0.54578 0.34236 0.20243 0.0
O256 O 0.51603 0.37449 0.19924 0.0
C257 C 0.49943 0.3757 0.2846 0.0
O258 O 0.53199 0.32356 0.26445 0.0
O259 O 0.57155 0.34374 0.26718 0.0
In260 In 0.22016 0.98376 0.65487 0.0
O261 O 0.22024 0.99972 0.60947 0.0
O262 O 0.23099 0.02824 0.64216 0.0
C263 C 0.17095 0.95709 0.6447 0.0
C264 C 0.27028 0.9571 0.65702 0.0
C265 C 0.20187 0.00743 0.70298 0.0
O266 O 0.17567 0.98196 0.6376 0.0
O267 O 0.19197 0.94467 0.65477 0.0
O268 O 0.21829 0.01982 0.68619 0.0
O269 O 0.19691 0.98239 0.69678 0.0
C270 C 0.22723 0.0243 0.61606 0.0
O271 O 0.25773 0.96554 0.67873 0.0
O272 O 0.2571 0.96095 0.63434 0.0
In273 In 0.82155 0.96308 0.01132 0.0
O274 O 0.84982 0.93326 0.98802 0.0
O275 O 0.84865 0.92923 0.03254 0.0
C276 C 0.79571 0.98095 0.96389 0.0
C277 C 0.77792 0.93629 0.03496 0.0
C278 C 0.84261 0.01256 0.02927 0.0
O279 O 0.82074 0.97293 0.96426 0.0
O280 O 0.78346 0.97964 0.9874 0.0
O281 O 0.82852 0.99673 0.04521 0.0
O282 O 0.84856 0.00196 0.00577 0.0
C283 C 0.857 0.91933 0.00935 0.0
O284 O 0.78705 0.95913 0.04468 0.0
O285 O 0.79067 0.92739 0.01354 0.0
In286 In 0.96983 0.52477 0.33065 0.0
O287 O 0.94262 0.5256 0.3707 0.0
O288 O 0.93844 0.55866 0.34148 0.0
C289 C 0.98896 0.47222 0.33321 0.0
C290 C 0.93633 0.51703 0.28565 0.0
C291 C 0.01923 0.55289 0.3301 0.0
O292 O 0.97724 0.48379 0.35402 0.0
O293 O 0.99107 0.48721 0.31138 0.0
O294 O 0.99969 0.55789 0.31298 0.0
O295 O 0.01301 0.53548 0.3491 0.0
C296 C 0.92886 0.54669 0.36314 0.0
O297 O 0.95665 0.53399 0.28518 0.0
O298 O 0.93374 0.50345 0.30829 0.0
In299 In 0.23388 0.68515 0.49204 0.0
O300 O 0.23501 0.72525 0.4663 0.0
O301 O 0.20009 0.71827 0.49344 0.0
C302 C 0.27246 0.66376 0.45714 0.0
C303 C 0.26758 0.70317 0.53448 0.0
C304 C 0.19463 0.64429 0.49416 0.0
O305 O 0.25603 0.68283 0.44932 0.0
O306 O 0.2691 0.65557 0.48221 0.0
O307 O 0.20549 0.65442 0.51626 0.0
O308 O 0.20248 0.65581 0.47159 0.0
C309 C 0.21252 0.73456 0.47649 0.0
O310 O 0.27037 0.67988 0.52275 0.0
O311 O 0.24568 0.71573 0.52734 0.0
In312 In 0.03635 0.00849 0.1875 0.0
O313 O 0.00642 0.02203 0.22133 0.0
O314 O 0.9935 0.02923 0.17902 0.0
C315 C 0.07732 0.99442 0.22373 0.0
C316 C 0.01599 0.95827 0.17265 0.0
C317 C 0.07236 0.04105 0.15823 0.0
O318 O 0.06174 0.01513 0.22762 0.0
O319 O 0.07147 0.98012 0.20221 0.0
O320 O 0.06155 0.01933 0.14769 0.0
O321 O 0.06161 0.0483 0.18136 0.0
C322 C 0.98719 0.02983 0.205 0.0
O323 O 0.02627 0.97481 0.15447 0.0
O324 O 0.01616 0.96719 0.19766 0.0
In325 In 0.73242 0.81139 0.52278 0.0
O326 O 0.7066 0.84378 0.49827 0.0
O327 O 0.70518 0.84426 0.5432 0.0
C328 C 0.76968 0.78847 0.48695 0.0
C329 C 0.7719 0.83319 0.55676 0.0
C330 C 0.70057 0.76547 0.5308 0.0
O331 O 0.75939 0.81224 0.48212 0.0
O332 O 0.76021 0.77649 0.50858 0.0
O333 O 0.71849 0.77378 0.54861 0.0
O334 O 0.69724 0.78144 0.50977 0.0
C335 C 0.6978 0.8557 0.52039 0.0
O336 O 0.75365 0.81616 0.56581 0.0
O337 O 0.7699 0.83916 0.53091 0.0
In338 In 0.80701 0.49063 0.85062 0.0
O339 O 0.82792 0.48258 0.80828 0.0
O340 O 0.81073 0.52262 0.81528 0.0
C341 C 0.75747 0.46221 0.85061 0.0
C342 C 0.85777 0.4697 0.86491 0.0
C343 C 0.79637 0.53518 0.88318 0.0
O344 O 0.77007 0.46932 0.82837 0.0
O345 O 0.77046 0.46805 0.873 0.0
O346 O 0.8039 0.51208 0.89345 0.0
O347 O 0.79392 0.53557 0.8566 0.0
C348 C 0.82496 0.50714 0.79934 0.0
O349 O 0.85153 0.49497 0.86756 0.0
O350 O 0.83751 0.45427 0.8575 0.0
In351 In 0.32175 0.53533 1.00053 0.0
O352 O 0.31912 0.52457 0.0475 0.0
O353 O 0.28153 0.52374 0.02357 0.0
C354 C 0.34509 0.58614 0.00961 0.0
C355 C 0.3498 0.48824 0.98721 0.0
C356 C 0.28359 0.54963 0.96138 0.0
O357 O 0.32278 0.57777 0.02102 0.0
O358 O 0.35736 0.56796 0.99488 0.0
O359 O 0.28148 0.52778 0.97612 0.0
O360 O 0.30602 0.56313 0.96489 0.0
C361 C 0.29309 0.52 0.0472 0.0
O362 O 0.33727 0.50269 0.96895 0.0
O363 O 0.35072 0.49917 0.01133 0.0
In364 In 0.28019 0.28965 0.97643 0.0
O365 O 0.25294 0.28214 0.01604 0.0
O366 O 0.24652 0.25711 0.97937 0.0
C367 C 0.31911 0.32878 0.98857 0.0
C368 C 0.30699 0.24273 0.96201 0.0
C369 C 0.24552 0.3225 0.94668 0.0
O370 O 0.3054 0.31631 0.00775 0.0
O371 O 0.31459 0.31987 0.96392 0.0
O372 O 0.26141 0.30508 0.93488 0.0
O373 O 0.24718 0.32314 0.97324 0.0
C374 C 0.23937 0.26255 0.00432 0.0
O375 O 0.29485 0.25813 0.94415 0.0
O376 O 0.30769 0.25231 0.9869 0.0
In377 In 0.28664 0.02316 0.16385 0.0
O378 O 0.24861 0.04249 0.18579 0.0
O379 O 0.24911 0.04311 0.14118 0.0
C380 C 0.30354 0.99667 0.21114 0.0
C381 C 0.28499 0.98247 0.12501 0.0
C382 C 0.33531 0.05145 0.15568 0.0
O383 O 0.28589 0.98624 0.19433 0.0
O384 O 0.31034 0.02144 0.20556 0.0
O385 O 0.3305 0.02754 0.14594 0.0
O386 O 0.31453 0.06249 0.16768 0.0
C387 C 0.23574 0.04847 0.16338 0.0
O388 O 0.29258 0.00709 0.11915 0.0
O389 O 0.27706 0.97878 0.1502 0.0
In390 In 0.66515 0.06638 0.51529 0.0
O391 O 0.62887 0.09697 0.50927 0.0
O392 O 0.64786 0.09492 0.54958 0.0
C393 C 0.67421 0.05134 0.46149 0.0
C394 C 0.71221 0.09689 0.52111 0.0
C395 C 0.6558 0.01423 0.53541 0.0
O396 O 0.65204 0.0635 0.46902 0.0
O397 O 0.69164 0.04711 0.48103 0.0
O398 O 0.67321 0.03077 0.54652 0.0
O399 O 0.64105 0.02497 0.51622 0.0
C400 C 0.63124 0.10766 0.53349 0.0
O401 O 0.70689 0.0763 0.53697 0.0
O402 O 0.69431 0.10131 0.50212 0.0
In403 In 0.55129 0.48145 0.81882 0.0
O404 O 0.5625 0.47411 0.77255 0.0
O405 O 0.58439 0.50595 0.79467 0.0
C406 C 0.50214 0.45294 0.81931 0.0
C407 C 0.59349 0.45819 0.84891 0.0
C408 C 0.5308 0.53299 0.82576 0.0
O409 O 0.52112 0.44838 0.8015 0.0
O410 O 0.50884 0.47003 0.83835 0.0
O411 O 0.54482 0.52089 0.84481 0.0
O412 O 0.52737 0.51913 0.80338 0.0
C413 C 0.58132 0.49268 0.77194 0.0
O414 O 0.57995 0.47884 0.85783 0.0
O415 O 0.58355 0.44753 0.82676 0.0
In416 In 0.51506 0.73525 0.76838 0.0
O417 O 0.54334 0.7523 0.80327 0.0
O418 O 0.49982 0.76217 0.80453 0.0
C419 C 0.54328 0.70616 0.72962 0.0
C420 C 0.49691 0.68825 0.79295 0.0
C421 C 0.49898 0.77333 0.73025 0.0
O422 O 0.55601 0.72101 0.74782 0.0
O423 O 0.51696 0.70629 0.73137 0.0
O424 O 0.48139 0.75812 0.74334 0.0
O425 O 0.5241 0.77064 0.73816 0.0
C426 C 0.52345 0.76372 0.81651 0.0
O427 O 0.48111 0.70207 0.7766 0.0
O428 O 0.52065 0.69895 0.79739 0.0
In429 In 0.03221 0.19933 0.00833 0.0
O430 O 0.99675 0.20511 0.04032 0.0
O431 O 0.03111 0.18008 0.05256 0.0
C432 C 0.02283 0.24008 0.9706 0.0
C433 C 0.08352 0.21719 0.02389 0.0
C434 C 0.02179 0.15923 0.96957 0.0
O435 O 0.01095 0.24006 0.9945 0.0
O436 O 0.03935 0.22027 0.96652 0.0
O437 O 0.04563 0.1635 0.98025 0.0
O438 O 0.00231 0.17224 0.98167 0.0
C439 C 0.00864 0.19163 0.05984 0.0
O440 O 0.07861 0.19215 0.01716 0.0
O441 O 0.06252 0.2329 0.02313 0.0
In442 In 0.91412 0.16416 0.50282 0.0
O443 O 0.91579 0.12695 0.47211 0.0
O444 O 0.88508 0.1588 0.4665 0.0
C445 C 0.94427 0.16167 0.55098 0.0
C446 C 0.9382 0.19986 0.46655 0.0
C447 C 0.86537 0.15567 0.5287 0.0
O448 O 0.94235 0.14106 0.53429 0.0
O449 O 0.9331 0.18385 0.54202 0.0
O450 O 0.8717 0.17932 0.51834 0.0
O451 O 0.8839 0.13719 0.52655 0.0
C452 C 0.89571 0.1366 0.45738 0.0
O453 O 0.91784 0.20689 0.48216 0.0
O454 O 0.94851 0.17624 0.47217 0.0
In455 In 0.03362 0.12999 0.74653 0.0
O456 O 0.05145 0.17076 0.7279 0.0
O457 O 0.05617 0.13259 0.70534 0.0
C458 C 0.02572 0.14449 0.80136 0.0
C459 C 0.98982 0.12861 0.71048 0.0
C460 C 0.07188 0.08972 0.75377 0.0
O461 O 0.04132 0.15771 0.78445 0.0
O462 O 0.01187 0.12491 0.79008 0.0
O463 O 0.0462 0.08408 0.75036 0.0
O464 O 0.07769 0.11535 0.75422 0.0
C465 C 0.05957 0.1586 0.70568 0.0
O466 O 0.00145 0.10664 0.71927 0.0
O467 O 0.99704 0.15034 0.72368 0.0
In468 In 0.46275 0.79921 0.51904 0.0
O469 O 0.49357 0.76429 0.50831 0.0
O470 O 0.46247 0.77544 0.47816 0.0
C471 C 0.48314 0.81442 0.57019 0.0
C472 C 0.46406 0.83967 0.47915 0.0
C473 C 0.41665 0.77044 0.53511 0.0
O474 O 0.49808 0.80289 0.55167 0.0
O475 O 0.45881 0.8203 0.56202 0.0
O476 O 0.41582 0.79597 0.52863 0.0
O477 O 0.44054 0.75967 0.5334 0.0
C478 C 0.48311 0.76036 0.48405 0.0
O479 O 0.44174 0.83138 0.49079 0.0
O480 O 0.48601 0.83015 0.49028 0.0
In481 In 0.58694 0.8506 0.00611 0.0
O482 O 0.55475 0.87522 0.03187 0.0
O483 O 0.56993 0.83687 0.04871 0.0
C484 C 0.60807 0.87547 0.95985 0.0
C485 C 0.63579 0.85755 0.03236 0.0
C486 C 0.56146 0.8133 0.97258 0.0
O487 O 0.58912 0.88724 0.97439 0.0
O488 O 0.61604 0.85227 0.96925 0.0
O489 O 0.58186 0.80673 0.98836 0.0
O490 O 0.55201 0.83751 0.9766 0.0
C491 C 0.55506 0.85823 0.05248 0.0
O492 O 0.62758 0.83365 0.02426 0.0
O493 O 0.61885 0.8772 0.028 0.0
In494 In 0.71489 0.50958 0.36285 0.0
O495 O 0.71596 0.47578 0.32895 0.0
O496 O 0.69302 0.51233 0.32011 0.0
C497 C 0.76466 0.53777 0.36407 0.0
C498 C 0.66503 0.53458 0.37292 0.0
C499 C 0.72119 0.46569 0.39785 0.0
O500 O 0.75147 0.53264 0.34161 0.0
O501 O 0.75218 0.52998 0.38616 0.0
O502 O 0.71175 0.48874 0.40638 0.0
O503 O 0.72776 0.46519 0.37203 0.0
C504 C 0.6997 0.48825 0.31227 0.0
O505 O 0.66948 0.50924 0.37793 0.0
O506 O 0.68651 0.54809 0.36523 0.0
In507 In 0.17418 0.43744 0.4885 0.0
O508 O 0.16925 0.47367 0.45728 0.0
O509 O 0.14683 0.47544 0.49574 0.0
C510 C 0.22433 0.41812 0.47233 0.0
C511 C 0.1887 0.44654 0.54273 0.0
C512 C 0.14192 0.39368 0.47261 0.0
O513 O 0.21507 0.4412 0.46367 0.0
O514 O 0.20852 0.40526 0.48927 0.0
O515 O 0.13876 0.40587 0.49595 0.0
O516 O 0.15907 0.40546 0.45622 0.0
C517 C 0.15409 0.4879 0.47349 0.0
O518 O 0.16841 0.43099 0.53587 0.0
O519 O 0.20173 0.45725 0.52225 0.0
In520 In 0.47977 0.96767 0.67855 0.0
O521 O 0.47798 0.00872 0.65399 0.0
O522 O 0.49932 0.00839 0.69343 0.0
C523 C 0.43446 0.94538 0.65231 0.0
C524 C 0.52909 0.94118 0.67069 0.0
C525 C 0.45943 0.97142 0.73131 0.0
O526 O 0.44903 0.96447 0.64115 0.0
O527 O 0.44477 0.93553 0.67463 0.0
O528 O 0.48253 0.96001 0.72606 0.0
O529 O 0.4471 0.98143 0.71012 0.0
C530 C 0.49161 0.02236 0.67227 0.0
O531 O 0.50951 0.93099 0.68528 0.0
O532 O 0.52264 0.96309 0.65766 0.0
In533 In 0.76652 0.21051 0.0163 0.0
O534 O 0.73815 0.2068 0.05544 0.0
O535 O 0.73358 0.17737 0.0222 0.0
C536 C 0.79007 0.25835 0.03419 0.0
C537 C 0.80598 0.17043 0.01536 0.0
C538 C 0.73469 0.23009 0.97298 0.0
O539 O 0.76768 0.24878 0.04483 0.0
O540 O 0.80128 0.24291 0.01581 0.0
O541 O 0.73439 0.20498 0.98056 0.0
O542 O 0.75329 0.24439 0.98494 0.0
C543 C 0.72536 0.18559 0.04598 0.0
O544 O 0.79721 0.18198 0.99301 0.0
O545 O 0.79616 0.18039 0.03784 0.0
In546 In 0.98338 0.27446 0.26013 0.0
O547 O 0.0207 0.30366 0.26906 0.0
O548 O 0.98212 0.3097 0.29086 0.0
C549 C 0.99524 0.23673 0.22005 0.0
C550 C 0.97299 0.2453 0.30773 0.0
C551 C 0.95805 0.30833 0.22312 0.0
O552 O 0.01433 0.24921 0.23389 0.0
O553 O 0.97057 0.24179 0.22808 0.0
O554 O 0.94391 0.29379 0.24057 0.0
O555 O 0.98421 0.30555 0.22482 0.0
C556 C 0.00678 0.31808 0.28648 0.0
O557 O 0.95409 0.25899 0.29515 0.0
O558 O 0.99635 0.24482 0.29518 0.0
In559 In 0.96473 0.69496 0.47907 0.0
O560 O 0.9884 0.73658 0.48555 0.0
O561 O 0.9644 0.7196 0.51923 0.0
C562 C 0.98606 0.68376 0.42707 0.0
C563 C 0.97624 0.65723 0.52046 0.0
C564 C 0.91167 0.71026 0.46749 0.0
O565 O 0.99973 0.69636 0.446 0.0
O566 O 0.96236 0.67509 0.43493 0.0
O567 O 0.91826 0.68546 0.47337 0.0
O568 O 0.93197 0.7272 0.46681 0.0
C569 C 0.98063 0.73857 0.51099 0.0
O570 O 0.9518 0.66333 0.51276 0.0
O571 O 0.99503 0.66732 0.50468 0.0
In572 In 0.71992 0.93824 0.77608 0.0
O573 O 0.6926 0.96254 0.74528 0.0
O574 O 0.68855 0.9183 0.74593 0.0
C575 C 0.7448 0.97492 0.81058 0.0
C576 C 0.69142 0.91364 0.81856 0.0
C577 C 0.76714 0.92772 0.74704 0.0
O578 O 0.72189 0.98073 0.79856 0.0
O579 O 0.75473 0.95147 0.80467 0.0
O580 O 0.75722 0.91035 0.76469 0.0
O581 O 0.75215 0.94893 0.74292 0.0
C582 C 0.68029 0.94113 0.73568 0.0
O583 O 0.70874 0.9002 0.80362 0.0
O584 O 0.68836 0.93873 0.81147 0.0
In585 In 0.36986 0.80382 0.03719 0.0
O586 O 0.39862 0.8349 0.01454 0.0
O587 O 0.3599 0.82475 0.99506 0.0
C588 C 0.40102 0.79065 0.08262 0.0
C589 C 0.3355 0.84115 0.06079 0.0
C590 C 0.35736 0.75197 0.01863 0.0
O591 O 0.41207 0.79735 0.05929 0.0
O592 O 0.37467 0.79051 0.08266 0.0
O593 O 0.3392 0.76885 0.02739 0.0
O594 O 0.38186 0.76195 0.01721 0.0
C595 C 0.3812 0.84047 0.99529 0.0
O596 O 0.32676 0.81708 0.0543 0.0
O597 O 0.36111 0.84549 0.05649 0.0
In598 In 0.45394 0.59517 0.35301 0.0
O599 O 0.46966 0.6398 0.34677 0.0
O600 O 0.47366 0.6204 0.38735 0.0
C601 C 0.42019 0.57949 0.31034 0.0
C602 C 0.50222 0.56675 0.35327 0.0
C603 C 0.40895 0.60259 0.38557 0.0
O604 O 0.43211 0.60315 0.31067 0.0
O605 O 0.42848 0.56285 0.32928 0.0
O606 O 0.42555 0.58257 0.39039 0.0
O607 O 0.41579 0.6183 0.36535 0.0
C608 C 0.47739 0.6419 0.37238 0.0
O609 O 0.48178 0.55993 0.36895 0.0
O610 O 0.49727 0.58616 0.33587 0.0
In611 In 0.62207 0.56613 0.57696 0.0
O612 O 0.59254 0.54011 0.54945 0.0
O613 O 0.63653 0.53519 0.54375 0.0
C614 C 0.59382 0.60167 0.60979 0.0
C615 C 0.62792 0.52908 0.61871 0.0
C616 C 0.65268 0.60745 0.55412 0.0
O617 O 0.58266 0.59139 0.58772 0.0
O618 O 0.61828 0.59354 0.61489 0.0
O619 O 0.66347 0.58856 0.56932 0.0
O620 O 0.6271 0.60373 0.54822 0.0
C621 C 0.61211 0.52687 0.53758 0.0
O622 O 0.64794 0.54518 0.61185 0.0
O623 O 0.606 0.53151 0.60417 0.0
H624 H 0.31378 0.50321 0.09775 0.0
H625 H 0.23653 0.51903 0.05367 0.0
H626 H 0.21028 0.51207 0.09737 0.0
H627 H 0.21034 0.50935 0.14913 0.0
H628 H 0.28793 0.4965 0.19348 0.0
H629 H 0.31285 0.49309 0.14862 0.0
C630 C 0.29117 0.50473 0.09767 0.0
C631 C 0.27715 0.51221 0.07273 0.0
C632 C 0.27624 0.50092 0.12291 0.0
C633 C 0.24782 0.51364 0.07273 0.0
C634 C 0.23278 0.50961 0.0977 0.0
C635 C 0.23247 0.50454 0.14891 0.0
C636 C 0.24736 0.50325 0.17447 0.0
C637 C 0.24687 0.50419 0.12309 0.0
C638 C 0.27609 0.49747 0.17398 0.0
C639 C 0.29039 0.49596 0.14835 0.0
H640 H 0.7068 0.34527 0.44587 0.0
H641 H 0.67275 0.39101 0.51603 0.0
H642 H 0.6895 0.43459 0.49542 0.0
H643 H 0.70539 0.46006 0.45299 0.0
H644 H 0.73765 0.41398 0.38212 0.0
H645 H 0.73019 0.37038 0.40747 0.0
C646 C 0.704 0.36466 0.4572 0.0
C647 C 0.68818 0.36488 0.48221 0.0
C648 C 0.71275 0.38977 0.44468 0.0
C649 C 0.68485 0.39018 0.49673 0.0
C650 C 0.69408 0.41523 0.48472 0.0
C651 C 0.71135 0.44051 0.44337 0.0
C652 C 0.72153 0.44024 0.41551 0.0
C653 C 0.70668 0.41536 0.45797 0.0
C654 C 0.72942 0.41477 0.40341 0.0
C655 C 0.72517 0.38978 0.41789 0.0
H656 H 0.86898 0.85964 0.64209 0.0
H657 H 0.89666 0.91184 0.57321 0.0
H658 H 0.85418 0.89983 0.54656 0.0
H659 H 0.81109 0.87163 0.54185 0.0
H660 H 0.78422 0.81943 0.61119 0.0
H661 H 0.82467 0.83445 0.63889 0.0
C662 C 0.86568 0.86852 0.62127 0.0
C663 C 0.88602 0.88627 0.60937 0.0
C664 C 0.84151 0.86142 0.60623 0.0
C665 C 0.88128 0.89806 0.58268 0.0
C666 C 0.8571 0.89109 0.56747 0.0
C667 C 0.81398 0.86372 0.56311 0.0
C668 C 0.79486 0.84423 0.5744 0.0
C669 C 0.83736 0.87235 0.57885 0.0
C670 C 0.79871 0.83433 0.60202 0.0
C671 C 0.82184 0.84287 0.61783 0.0
H672 H 0.40685 0.98592 0.74584 0.0
H673 H 0.48642 0.96188 0.78096 0.0
H674 H 0.46885 0.97024 0.82861 0.0
H675 H 0.43273 0.98897 0.85951 0.0
H676 H 0.3533 0.01375 0.82477 0.0
H677 H 0.36871 0.9998 0.77758 0.0
C678 C 0.42024 0.98232 0.76397 0.0
C679 C 0.44801 0.9738 0.76001 0.0
C680 C 0.41001 0.9872 0.79122 0.0
C681 C 0.46504 0.96869 0.78357 0.0
C682 C 0.45502 0.97347 0.81076 0.0
C683 C 0.41862 0.99089 0.84166 0.0
C684 C 0.3921 0.00267 0.8454 0.0
C685 C 0.42781 0.98338 0.81473 0.0
C686 C 0.37383 0.00473 0.8223 0.0
C687 C 0.38273 0.99699 0.79534 0.0
H688 H 0.21176 0.36278 0.96771 0.0
H689 H 0.23437 0.32124 0.89031 0.0
H690 H 0.19814 0.34666 0.86494 0.0
H691 H 0.15766 0.37717 0.86564 0.0
H692 H 0.13388 0.4186 0.94256 0.0
H693 H 0.17347 0.39711 0.9673 0.0
C694 C 0.2089 0.35949 0.94523 0.0
C695 C 0.22546 0.33988 0.93094 0.0
C696 C 0.1879 0.37409 0.93081 0.0
C697 C 0.22176 0.33604 0.9018 0.0
C698 C 0.20105 0.35054 0.8873 0.0
C699 C 0.1613 0.38173 0.88779 0.0
C700 C 0.14276 0.39907 0.90247 0.0
C701 C 0.18365 0.36908 0.90173 0.0
C702 C 0.14793 0.40528 0.93093 0.0
C703 C 0.17039 0.39283 0.94505 0.0
H704 H 0.85004 0.47931 0.19286 0.0
H705 H 0.90223 0.53277 0.14181 0.0
H706 H 0.9279 0.54792 0.18379 0.0
H707 H 0.93951 0.54093 0.23377 0.0
H708 H 0.88955 0.48458 0.28414 0.0
H709 H 0.85909 0.47545 0.24379 0.0
C710 C 0.86642 0.49497 0.19118 0.0
C711 C 0.87424 0.5051 0.16453 0.0
C712 C 0.88195 0.50246 0.21517 0.0
C713 C 0.89588 0.52487 0.1623 0.0
C714 C 0.9107 0.5333 0.18621 0.0
C715 C 0.92181 0.52686 0.23594 0.0
C716 C 0.91702 0.51313 0.26169 0.0
C717 C 0.90464 0.52138 0.21256 0.0
C718 C 0.89389 0.49511 0.26435 0.0
C719 C 0.87639 0.48995 0.24134 0.0
H720 H 0.71562 0.0183 0.44194 0.0
H721 H 0.64717 0.06982 0.41452 0.0
H722 H 0.66288 0.06601 0.36563 0.0
H723 H 0.70027 0.05465 0.33242 0.0
H724 H 0.76947 0.00424 0.35951 0.0
H725 H 0.74887 1.0002 0.40677 0.0
C726 C 0.70389 0.02828 0.42517 0.0
C727 C 0.68065 0.04483 0.4318 0.0
C728 C 0.71319 0.02618 0.39715 0.0
C729 C 0.66529 0.05723 0.40992 0.0
C730 C 0.6743 0.0551 0.38199 0.0
C731 C 0.71036 0.04208 0.34849 0.0
C732 C 0.7364 0.03 0.34282 0.0
C733 C 0.6988 0.04057 0.37559 0.0
C734 C 0.74932 0.01358 0.3635 0.0
C735 C 0.73772 0.01161 0.39057 0.0
H736 H 0.20787 0.10768 0.51622 0.0
H737 H 0.21179 0.16641 0.58493 0.0
H738 H 0.2276 0.12962 0.61683 0.0
H739 H 0.23225 0.07961 0.62673 0.0
H740 H 0.22378 0.02049 0.55872 0.0
H741 H 0.21783 0.05854 0.52499 0.0
C742 C 0.21305 0.11264 0.53796 0.0
C743 C 0.20854 0.13969 0.54826 0.0
C744 C 0.22067 0.09113 0.55645 0.0
C745 C 0.21511 0.14574 0.57652 0.0
C746 C 0.22386 0.12464 0.59483 0.0
C747 C 0.22964 0.07509 0.60445 0.0
C748 C 0.2281 0.04728 0.59526 0.0
C749 C 0.22542 0.09704 0.5853 0.0
C750 C 0.22476 0.04172 0.56634 0.0
C751 C 0.22135 0.06347 0.54704 0.0
H752 H 0.03725 0.15177 0.65483 0.0
H753 H 0.10147 0.19726 0.69923 0.0
H754 H 0.12107 0.21336 0.65397 0.0
H755 H 0.12336 0.20849 0.60214 0.0
H756 H 0.05881 0.16231 0.55844 0.0
H757 H 0.03521 0.15306 0.60322 0.0
C758 C 0.0552 0.16572 0.65451 0.0
C759 C 0.06829 0.17316 0.67994 0.0
C760 C 0.06622 0.17456 0.62866 0.0
C761 C 0.09125 0.19138 0.67968 0.0
C762 C 0.10247 0.20036 0.65388 0.0
C763 C 0.10385 0.19685 0.60238 0.0
C764 C 0.0931 0.1856 0.57713 0.0
C765 C 0.09068 0.19121 0.62826 0.0
C766 C 0.06763 0.17091 0.57764 0.0
C767 C 0.05422 0.1655 0.60323 0.0
H768 H 0.0079 0.29377 0.97952 0.0
H769 H 0.03228 0.2361 0.9145 0.0
H770 H 0.03692 0.27418 0.88065 0.0
H771 H 0.04077 0.3243 0.87157 0.0
H772 H 0.01963 0.38227 0.9375 0.0
H773 H 0.00664 0.34385 0.96872 0.0
C774 C 0.01356 0.28958 0.95776 0.0
C775 C 0.02005 0.26238 0.94952 0.0
C776 C 0.01711 0.31169 0.93863 0.0
C777 C 0.02749 0.25705 0.92134 0.0
C778 C 0.03021 0.27879 0.90198 0.0
C779 C 0.03275 0.32848 0.89255 0.0
C780 C 0.03151 0.35594 0.90238 0.0
C781 C 0.02613 0.30628 0.91069 0.0
C782 C 0.02109 0.36118 0.9296 0.0
C783 C 0.01369 0.33925 0.9475 0.0
H784 H 0.92715 0.39641 0.12915 0.0
H785 H 0.84652 0.38892 0.16932 0.0
H786 H 0.86465 0.35368 0.20143 0.0
H787 H 0.90393 0.32586 0.21939 0.0
H788 H 0.98482 0.33434 0.17994 0.0
H789 H 0.96612 0.36797 0.14646 0.0
C790 C 0.91355 0.38694 0.14483 0.0
C791 C 0.88559 0.39535 0.14685 0.0
C792 C 0.92417 0.3668 0.16352 0.0
C793 C 0.86821 0.38293 0.16735 0.0
C794 C 0.87853 0.36272 0.18577 0.0
C795 C 0.91736 0.33495 0.20334 0.0
C796 C 0.94569 0.32764 0.20225 0.0
C797 C 0.90655 0.35463 0.18424 0.0
C798 C 0.96291 0.33968 0.18137 0.0
C799 C 0.95226 0.35895 0.16216 0.0
H800 H 0.8642 0.16189 0.41799 0.0
H801 H 0.90396 0.0837 0.43694 0.0
H802 H 0.88361 0.06337 0.39396 0.0
H803 H 0.85249 0.06742 0.35262 0.0
H804 H 0.81318 0.14597 0.33402 0.0
H805 H 0.83573 0.16679 0.37538 0.0
C806 C 0.86849 0.14036 0.41275 0.0
C807 C 0.88526 0.12414 0.43081 0.0
C808 C 0.85684 0.129 0.38814 0.0
C809 C 0.89101 0.09651 0.42345 0.0
C810 C 0.87935 0.08493 0.39893 0.0
C811 C 0.84902 0.08918 0.35748 0.0
C812 C 0.83101 0.10513 0.34037 0.0
C813 C 0.86194 0.10091 0.38135 0.0
C814 C 0.8269 0.13329 0.34683 0.0
C815 C 0.8397 0.14513 0.37052 0.0
H816 H 0.07591 0.87842 0.36128 0.0
H817 H 0.15977 0.8557 0.33757 0.0
H818 H 0.14154 0.82286 0.30295 0.0
H819 H 0.1018 0.80136 0.27819 0.0
H820 H 0.01787 0.82445 0.30121 0.0
H821 H 0.03603 0.85617 0.33704 0.0
C822 C 0.09013 0.8661 0.34868 0.0
C823 C 0.1191 0.86954 0.352 0.0
C824 C 0.07951 0.84736 0.32847 0.0
C825 C 0.13732 0.85353 0.3354 0.0
C826 C 0.12694 0.83473 0.31553 0.0
C827 C 0.08752 0.81331 0.29109 0.0
C828 C 0.05859 0.81058 0.28697 0.0
C829 C 0.09808 0.83163 0.31167 0.0
C830 C 0.04031 0.82619 0.30389 0.0
C831 C 0.05064 0.84435 0.32445 0.0
H832 H 0.40689 0.40722 0.56887 0.0
H833 H 0.37573 0.32316 0.57825 0.0
H834 H 0.35528 0.33471 0.62358 0.0
H835 H 0.34353 0.36913 0.65958 0.0
H836 H 0.37364 0.45351 0.65074 0.0
H837 H 0.39719 0.44139 0.60674 0.0
C838 C 0.3958 0.39147 0.58097 0.0
C839 C 0.39257 0.36452 0.56992 0.0
C840 C 0.38374 0.39828 0.60725 0.0
C841 C 0.37821 0.34425 0.58596 0.0
C842 C 0.36651 0.35076 0.61203 0.0
C843 C 0.35551 0.38478 0.64821 0.0
C844 C 0.3567 0.41215 0.65841 0.0
C845 C 0.36873 0.37779 0.62271 0.0
C846 C 0.37231 0.43222 0.64334 0.0
C847 C 0.38575 0.42535 0.61809 0.0
H848 H 0.98187 0.66285 0.83817 0.0
H849 H 0.92932 0.71768 0.78979 0.0
H850 H 0.91026 0.7371 0.83368 0.0
H851 H 0.90365 0.73273 0.88517 0.0
H852 H 0.95615 0.67711 0.933 0.0
H853 H 0.98079 0.66411 0.88989 0.0
C854 C 0.96662 0.67946 0.83734 0.0
C855 C 0.95652 0.68864 0.81108 0.0
C856 C 0.95576 0.69016 0.86246 0.0
C857 C 0.93722 0.71039 0.80993 0.0
C858 C 0.92625 0.72128 0.83496 0.0
C859 C 0.92091 0.71824 0.88623 0.0
C860 C 0.92777 0.70548 0.91211 0.0
C861 C 0.93461 0.71052 0.86128 0.0
C862 C 0.95038 0.68705 0.9133 0.0
C863 C 0.96433 0.67947 0.88864 0.0
H864 H 0.49777 0.22031 0.01593 0.0
H865 H 0.52241 0.28469 0.07437 0.0
H866 H 0.51913 0.25199 0.1137 0.0
H867 H 0.51712 0.20379 0.13006 0.0
H868 H 0.49703 0.13826 0.0712 0.0
H869 H 0.49005 0.17253 0.03368 0.0
C870 C 0.50166 0.22719 0.0374 0.0
C871 C 0.51058 0.25459 0.04238 0.0
C872 C 0.50084 0.20797 0.05981 0.0
C873 C 0.51581 0.26346 0.07015 0.0
C874 C 0.51398 0.24481 0.09262 0.0
C875 C 0.51044 0.1971 0.10923 0.0
C876 C 0.5079 0.16864 0.10326 0.0
C877 C 0.50768 0.21678 0.08753 0.0
C878 C 0.49936 0.16016 0.07617 0.0
C879 C 0.4955 0.17971 0.05468 0.0
H880 H 0.01934 0.8303 0.15519 0.0
H881 H 0.96052 0.83325 0.22403 0.0
H882 H 0.95668 0.88369 0.21838 0.0
H883 H 0.97764 0.9272 0.20038 0.0
H884 H 0.03673 0.92434 0.13178 0.0
H885 H 0.03261 0.87353 0.13042 0.0
C886 C 0.00495 0.84192 0.16829 0.0
C887 C 0.99054 0.82828 0.19026 0.0
C888 C 0.00333 0.87092 0.16526 0.0
C889 C 0.97178 0.84335 0.20696 0.0
C890 C 0.96986 0.87223 0.20396 0.0
C891 C 0.98899 0.91544 0.18463 0.0
C892 C 0.00785 0.92927 0.16654 0.0
C893 C 0.98668 0.88632 0.18419 0.0
C894 C 0.02218 0.91404 0.14595 0.0
C895 C 0.01997 0.88501 0.14533 0.0
H896 H 0.35119 0.39436 0.45075 0.0
H897 H 0.32542 0.31238 0.47804 0.0
H898 H 0.27661 0.32718 0.47841 0.0
H899 H 0.24239 0.36513 0.47716 0.0
H900 H 0.26829 0.44716 0.45015 0.0
H901 H 0.31605 0.43061 0.44338 0.0
C902 C 0.33482 0.37957 0.45622 0.0
C903 C 0.34185 0.35245 0.46471 0.0
C904 C 0.30696 0.38836 0.45686 0.0
C905 C 0.32049 0.33339 0.47144 0.0
C906 C 0.29262 0.34191 0.47191 0.0
C907 C 0.25846 0.37928 0.46949 0.0
C908 C 0.25207 0.40741 0.46464 0.0
C909 C 0.28579 0.36962 0.46569 0.0
C910 C 0.27284 0.42545 0.45421 0.0
C911 C 0.30012 0.41602 0.4504 0.0
H912 H 0.82163 0.55822 0.77528 0.0
H913 H 0.86957 0.48253 0.77409 0.0
H914 H 0.90788 0.50673 0.75027 0.0
H915 H 0.93102 0.55136 0.73881 0.0
H916 H 0.883 0.62705 0.74088 0.0
H917 H 0.84151 0.60088 0.75491 0.0
C918 C 0.84009 0.54683 0.76897 0.0
C919 C 0.843 0.51884 0.77694 0.0
C920 C 0.86232 0.56102 0.75592 0.0
C921 C 0.86687 0.50419 0.76835 0.0
C922 C 0.88896 0.51809 0.75498 0.0
C923 C 0.9113 0.56199 0.74166 0.0
C924 C 0.91026 0.59114 0.73951 0.0
C925 C 0.88748 0.54683 0.75008 0.0
C926 C 0.88448 0.60463 0.74283 0.0
C927 C 0.8607 0.58971 0.75093 0.0
H928 H 0.27312 0.60443 0.95488 0.0
H929 H 0.23816 0.52278 0.9399 0.0
H930 H 0.19193 0.54303 0.9331 0.0
H931 H 0.16071 0.58198 0.94179 0.0
H932 H 0.19469 0.66282 0.96245 0.0
H933 H 0.24216 0.64508 0.95619 0.0
C934 C 0.25556 0.59123 0.94906 0.0
C935 C 0.25886 0.56215 0.94809 0.0
C936 C 0.22881 0.60286 0.94686 0.0
C937 C 0.23598 0.5452 0.94083 0.0
C938 C 0.20955 0.55675 0.9372 0.0
C939 C 0.1785 0.59591 0.9443 0.0
C940 C 0.17433 0.62348 0.95317 0.0
C941 C 0.20554 0.58528 0.94183 0.0
C942 C 0.19744 0.64144 0.95586 0.0
C943 C 0.22456 0.63123 0.95245 0.0
H944 H 0.37388 0.89822 0.25701 0.0
H945 H 0.43828 0.96151 0.25447 0.0
H946 H 0.40295 0.99708 0.24552 0.0
H947 H 0.35497 0.00872 0.23169 0.0
H948 H 0.29142 0.94454 0.23062 0.0
H949 H 0.32509 0.91085 0.24866 0.0
C950 C 0.38017 0.91986 0.25487 0.0
C951 C 0.40867 0.92721 0.25591 0.0
C952 C 0.35986 0.94 0.24921 0.0
C953 C 0.41649 0.95533 0.25348 0.0
C954 C 0.3963 0.97564 0.24836 0.0
C955 C 0.34825 0.98757 0.23627 0.0
C956 C 0.32078 0.97905 0.22971 0.0
C957 C 0.36805 0.96806 0.24529 0.0
C958 C 0.31244 0.95155 0.2355 0.0
C959 C 0.33176 0.93224 0.24553 0.0
H960 H 0.41136 0.17935 0.79054 0.0
H961 H 0.49776 0.16782 0.81375 0.0
H962 H 0.48401 0.13545 0.85094 0.0
H963 H 0.44759 0.10846 0.87568 0.0
H964 H 0.36123 0.11953 0.85214 0.0
H965 H 0.37475 0.15394 0.81674 0.0
C966 C 0.42712 0.16986 0.80385 0.0
C967 C 0.4555 0.1759 0.79922 0.0
C968 C 0.4191 0.15105 0.82525 0.0
C969 C 0.47571 0.16347 0.81673 0.0
C970 C 0.4679 0.14491 0.83807 0.0
C971 C 0.43176 0.11864 0.86299 0.0
C972 C 0.40352 0.11131 0.86645 0.0
C973 C 0.43968 0.13828 0.84236 0.0
C974 C 0.3832 0.12464 0.84979 0.0
C975 C 0.39088 0.14434 0.82948 0.0
H976 H 0.60725 0.31539 0.29806 0.0
H977 H 0.51956 0.29864 0.31126 0.0
H978 H 0.52834 0.28879 0.36104 0.0
H979 H 0.55984 0.29303 0.40216 0.0
H980 H 0.64768 0.30891 0.38856 0.0
H981 H 0.64004 0.31072 0.33764 0.0
C982 C 0.59025 0.30861 0.31164 0.0
C983 C 0.56279 0.30821 0.30117 0.0
C984 C 0.5954 0.30337 0.34032 0.0
C985 C 0.54091 0.29919 0.31885 0.0
C986 C 0.54587 0.29386 0.34744 0.0
C987 C 0.57734 0.29638 0.38796 0.0
C988 C 0.60415 0.30139 0.39902 0.0
C989 C 0.57283 0.29724 0.35865 0.0
C990 C 0.62679 0.30521 0.3805 0.0
C991 C 0.62244 0.30631 0.35138 0.0
H992 H 0.71813 0.98984 0.85803 0.0
H993 H 0.79833 0.99155 0.81684 0.0
H994 H 0.82171 0.99812 0.86225 0.0
H995 H 0.81966 0.99295 0.91363 0.0
H996 H 0.73968 0.98732 0.95529 0.0
H997 H 0.71579 0.99275 0.90994 0.0
C998 C 0.74059 0.9931 0.859 0.0
C999 C 0.7566 0.9905 0.83435 0.0
C1000 C 0.75393 0.99512 0.88537 0.0
C1001 C 0.78572 0.99388 0.83568 0.0
C1002 C 0.79907 0.99716 0.86166 0.0
C1003 C 0.797 0.99343 0.91281 0.0
C1004 C 0.78142 0.98911 0.93756 0.0
C1005 C 0.78348 0.99609 0.88668 0.0
C1006 C 0.75211 0.99027 0.93639 0.0
C1007 C 0.73844 0.99335 0.91047 0.0
H1008 H 0.36749 0.63676 0.37028 0.0
H1009 H 0.39281 0.58098 0.43696 0.0
H1010 H 0.35151 0.5941 0.46457 0.0
H1011 H 0.3099 0.6236 0.47052 0.0
H1012 H 0.28561 0.67952 0.40347 0.0
H1013 H 0.32505 0.66401 0.375 0.0
C1014 C 0.36399 0.62736 0.39085 0.0
C1015 C 0.38329 0.60817 0.40179 0.0
C1016 C 0.34051 0.63509 0.40645 0.0
C1017 C 0.37826 0.59586 0.4282 0.0
C1018 C 0.35474 0.60343 0.44396 0.0
C1019 C 0.31313 0.63224 0.44959 0.0
C1020 C 0.29499 0.65283 0.43914 0.0
C1021 C 0.33597 0.62335 0.43343 0.0
C1022 C 0.29933 0.66374 0.41198 0.0
C1023 C 0.32188 0.65492 0.39573 0.0
H1024 H 0.09862 0.02609 0.26582 0.0
H1025 H 0.10757 0.94658 0.22475 0.0
H1026 H 0.14127 0.93216 0.26063 0.0
H1027 H 0.16099 0.9391 0.30805 0.0
H1028 H 0.14852 0.01693 0.35089 0.0
H1029 H 0.12449 0.03571 0.30947 0.0
C1030 C 0.10825 0.00576 0.26455 0.0
C1031 C 0.10016 0.98713 0.2432 0.0
C1032 C 0.12729 0.99751 0.28541 0.0
C1033 C 0.11317 0.96109 0.24134 0.0
C1034 C 0.13249 0.95286 0.26178 0.0
C1035 C 0.15429 0.96065 0.30758 0.0
C1036 C 0.15674 0.97689 0.33202 0.0
C1037 C 0.13888 0.97051 0.28448 0.0
C1038 C 0.14724 0.00442 0.33189 0.0
C1039 C 0.13305 0.0149 0.30847 0.0
H1040 H 0.79046 0.58812 0.86446 0.0
H1041 H 0.7966 0.53918 0.94071 0.0
H1042 H 0.79961 0.58169 0.96888 0.0
H1043 H 0.80804 0.63209 0.97083 0.0
H1044 H 0.80771 0.68028 0.89396 0.0
H1045 H 0.79387 0.63898 0.86705 0.0
C1046 C 0.79187 0.58677 0.88729 0.0
C1047 C 0.79362 0.56058 0.90048 0.0
C1048 C 0.79453 0.61125 0.90321 0.0
C1049 C 0.79547 0.55912 0.93006 0.0
C1050 C 0.79718 0.58342 0.94617 0.0
C1051 C 0.80385 0.63372 0.94836 0.0
C1052 C 0.80862 0.65913 0.93433 0.0
C1053 C 0.79772 0.60955 0.93287 0.0
C1054 C 0.80387 0.66092 0.90513 0.0
C1055 C 0.79631 0.63726 0.88975 0.0
H1056 H 0.78415 0.7346 0.48317 0.0
H1057 H 0.81125 0.81716 0.4596 0.0
H1058 H 0.85784 0.79938 0.44831 0.0
H1059 H 0.89248 0.76156 0.45243 0.0
H1060 H 0.86477 0.67925 0.47678 0.0
H1061 H 0.81677 0.69567 0.48031 0.0
C1062 C 0.80006 0.74856 0.47481 0.0
C1063 C 0.79442 0.77715 0.47241 0.0
C1064 C 0.82681 0.73829 0.46901 0.0
C1065 C 0.81508 0.79504 0.46145 0.0
C1066 C 0.8418 0.78491 0.45534 0.0
C1067 C 0.87584 0.74713 0.45802 0.0
C1068 C 0.88226 0.71932 0.4648 0.0
C1069 C 0.8482 0.75678 0.46018 0.0
C1070 C 0.86045 0.70079 0.47169 0.0
C1071 C 0.83298 0.71018 0.47377 0.0
H1072 H 0.13254 0.18969 0.01844 0.0
H1073 H 0.09831 0.26936 0.04121 0.0
H1074 H 0.14526 0.28963 0.04276 0.0
H1075 H 0.19527 0.28631 0.03048 0.0
H1076 H 0.22835 0.20755 0.00361 0.0
H1077 H 0.18301 0.18514 0.01149 0.0
C1078 C 0.13541 0.21134 0.02429 0.0
C1079 C 0.112 0.22806 0.02935 0.0
C1080 C 0.16239 0.22304 0.02438 0.0
C1081 C 0.11602 0.25609 0.03695 0.0
C1082 C 0.14287 0.26773 0.03782 0.0
C1083 C 0.19267 0.26407 0.0274 0.0
C1084 C 0.21496 0.24846 0.01674 0.0
C1085 C 0.16614 0.25164 0.03062 0.0
C1086 C 0.21137 0.21981 0.01204 0.0
C1087 C 0.18543 0.20708 0.01629 0.0
H1088 H 0.81688 0.17555 0.50797 0.0
H1089 H 0.8507 0.117 0.56778 0.0
H1090 H 0.80477 0.09501 0.57312 0.0
H1091 H 0.75686 0.08831 0.55553 0.0
H1092 H 0.72424 0.14473 0.4928 0.0
H1093 H 0.76767 0.1716 0.49377 0.0
C1094 C 0.8139 0.15859 0.52286 0.0
C1095 C 0.83693 0.1479 0.53754 0.0
C1096 C 0.78779 0.14521 0.52473 0.0
C1097 C 0.83309 0.12555 0.55635 0.0
C1098 C 0.80694 0.11283 0.5592 0.0
C1099 C 0.75918 0.10668 0.54234 0.0
C1100 C 0.73759 0.11429 0.52383 0.0
C1101 C 0.78442 0.12176 0.54261 0.0
C1102 C 0.74075 0.13822 0.50696 0.0
C1103 C 0.76555 0.15367 0.50755 0.0
H1104 H 0.51875 0.66195 0.83797 0.0
H1105 H 0.46383 0.64954 0.7668 0.0
H1106 H 0.46711 0.59902 0.77282 0.0
H1107 H 0.49216 0.55902 0.79328 0.0
H1108 H 0.54769 0.57189 0.864 0.0
H1109 H 0.53755 0.62166 0.86332 0.0
C1110 C 0.50684 0.64815 0.82431 0.0
C1111 C 0.49133 0.65931 0.8018 0.0
C1112 C 0.50945 0.61927 0.82747 0.0
C1113 C 0.4758 0.64138 0.78435 0.0
C1114 C 0.478 0.6125 0.78756 0.0
C1115 C 0.50167 0.57269 0.80881 0.0
C1116 C 0.52108 0.56197 0.8283 0.0
C1117 C 0.49582 0.60129 0.80821 0.0
C1118 C 0.53289 0.57973 0.84864 0.0
C1119 C 0.52714 0.60818 0.84822 0.0
H1120 H 0.4785 0.80423 0.18779 0.0
H1121 H 0.40025 0.78732 0.22974 0.0
H1122 H 0.37939 0.77272 0.18494 0.0
H1123 H 0.38073 0.77479 0.13338 0.0
H1124 H 0.45733 0.79748 0.09085 0.0
H1125 H 0.48166 0.79981 0.13627 0.0
C1126 C 0.45726 0.79614 0.18729 0.0
C1127 C 0.44085 0.7967 0.21193 0.0
C1128 C 0.44493 0.78972 0.16118 0.0
C1129 C 0.41321 0.78683 0.211 0.0
C1130 C 0.40123 0.77888 0.18534 0.0
C1131 C 0.4029 0.77966 0.13399 0.0
C1132 C 0.41712 0.78646 0.10889 0.0
C1133 C 0.41642 0.78184 0.16016 0.0
C1134 C 0.44589 0.79241 0.10993 0.0
C1135 C 0.45977 0.7938 0.1359 0.0
H1136 H 0.36428 0.78918 0.5469 0.0
H1137 H 0.41274 0.71415 0.53935 0.0
H1138 H 0.37051 0.68592 0.54465 0.0
H1139 H 0.31941 0.68281 0.54421 0.0
H1140 H 0.27056 0.75767 0.55061 0.0
H1141 H 0.31329 0.78554 0.55414 0.0
C1142 C 0.36559 0.76665 0.54682 0.0
C1143 C 0.39149 0.75379 0.54217 0.0
C1144 C 0.34115 0.75047 0.54982 0.0
C1145 C 0.393 0.72458 0.54258 0.0
C1146 C 0.36885 0.70839 0.54563 0.0
C1147 C 0.31807 0.70513 0.54731 0.0
C1148 C 0.29185 0.71816 0.54669 0.0
C1149 C 0.34272 0.72112 0.54832 0.0
C1150 C 0.29049 0.74709 0.5509 0.0
C1151 C 0.31495 0.76311 0.55255 0.0
H1152 H 0.76309 0.88244 0.02781 0.0
H1153 H 0.73535 0.95936 0.0649 0.0
H1154 H 0.68881 0.93924 0.07235 0.0
H1155 H 0.65447 0.90285 0.06046 0.0
H1156 H 0.68207 0.82622 0.02264 0.0
H1157 H 0.73047 0.84283 0.02404 0.0
C1158 C 0.74698 0.89456 0.03808 0.0
C1159 C 0.75231 0.92247 0.04528 0.0
C1160 C 0.7203 0.88295 0.04201 0.0
C1161 C 0.73158 0.93788 0.05902 0.0
C1162 C 0.70496 0.92643 0.06313 0.0
C1163 C 0.67121 0.8895 0.05326 0.0
C1164 C 0.66478 0.8636 0.041 0.0
C1165 C 0.69882 0.89944 0.05357 0.0
C1166 C 0.68655 0.84628 0.03209 0.0
C1167 C 0.71418 0.85589 0.03262 0.0
H1168 H 0.64716 0.54479 0.66982 0.0
H1169 H 0.60436 0.4784 0.62621 0.0
H1170 H 0.58835 0.45901 0.67117 0.0
H1171 H 0.57995 0.4657 0.72174 0.0
H1172 H 0.61995 0.5341 0.76513 0.0
H1173 H 0.64357 0.54802 0.72157 0.0
C1174 C 0.63532 0.52545 0.67037 0.0
C1175 C 0.62702 0.51286 0.64497 0.0
C1176 C 0.62495 0.51532 0.69619 0.0
C1177 C 0.6111 0.48822 0.64568 0.0
C1178 C 0.60166 0.47736 0.67131 0.0
C1179 C 0.59411 0.48344 0.72171 0.0
C1180 C 0.5978 0.49916 0.74641 0.0
C1181 C 0.60732 0.49153 0.69654 0.0
C1182 C 0.61648 0.52188 0.74623 0.0
C1183 C 0.63005 0.52983 0.72135 0.0
H1184 H 0.26948 0.92828 0.13228 0.0
H1185 H 0.3117 0.98396 0.0744 0.0
H1186 H 0.32869 0.94436 0.04746 0.0
H1187 H 0.33697 0.89426 0.0444 0.0
H1188 H 0.29471 0.83792 0.10122 0.0
H1189 H 0.27197 0.87744 0.12453 0.0
C1190 C 0.28189 0.93172 0.11341 0.0
C1191 C 0.28971 0.95898 0.10559 0.0
C1192 C 0.29182 0.90879 0.09812 0.0
C1193 C 0.30554 0.96319 0.08096 0.0
C1194 C 0.31541 0.94055 0.06563 0.0
C1195 C 0.32237 0.89069 0.0616 0.0
C1196 C 0.31769 0.86351 0.07151 0.0
C1197 C 0.30954 0.91334 0.07466 0.0
C1198 C 0.29852 0.85881 0.0934 0.0
C1199 C 0.28572 0.88137 0.10676 0.0
H1200 H 0.22377 0.43663 0.66974 0.0
H1201 H 0.28527 0.49732 0.64355 0.0
H1202 H 0.26234 0.50117 0.59728 0.0
H1203 H 0.22886 0.48187 0.56249 0.0
H1204 H 0.16836 0.42017 0.58928 0.0
H1205 H 0.18682 0.42211 0.63728 0.0
C1206 C 0.23174 0.45119 0.65408 0.0
C1207 C 0.25621 0.4665 0.65973 0.0
C1208 C 0.21892 0.45268 0.62757 0.0
C1209 C 0.26632 0.48548 0.63958 0.0
C1210 C 0.25341 0.48739 0.61308 0.0
C1211 C 0.21952 0.46913 0.57894 0.0
C1212 C 0.19762 0.45051 0.57229 0.0
C1213 C 0.23037 0.47023 0.60651 0.0
C1214 C 0.18541 0.43442 0.59383 0.0
C1215 C 0.19595 0.43552 0.62127 0.0
H1216 H 0.62243 0.11446 0.08856 0.0
H1217 H 0.61679 0.18282 0.14722 0.0
H1218 H 0.65863 0.20406 0.12697 0.0
H1219 H 0.69635 0.20396 0.09169 0.0
H1220 H 0.70131 0.13611 0.0324 0.0
H1221 H 0.66053 0.11396 0.05386 0.0
C1222 C 0.6304 0.13397 0.09691 0.0
C1223 C 0.61646 0.14705 0.11925 0.0
C1224 C 0.65445 0.1462 0.08508 0.0
C1225 C 0.62706 0.17233 0.12991 0.0
C1226 C 0.65104 0.18452 0.11838 0.0
C1227 C 0.6886 0.18423 0.08367 0.0
C1228 C 0.70179 0.17173 0.06053 0.0
C1229 C 0.66485 0.17173 0.09587 0.0
C1230 C 0.69146 0.14622 0.05019 0.0
C1231 C 0.66811 0.13352 0.06241 0.0
H1232 H 0.63334 0.30827 0.95486 0.0
H1233 H 0.58979 0.22938 0.95852 0.0
H1234 H 0.63407 0.20477 0.95555 0.0
H1235 H 0.68512 0.20579 0.95946 0.0
H1236 H 0.72893 0.28457 0.9578 0.0
H1237 H 0.68476 0.30896 0.95138 0.0
C1238 C 0.63355 0.2857 0.95454 0.0
C1239 C 0.60837 0.2707 0.95746 0.0
C1240 C 0.65918 0.27161 0.95311 0.0
C1241 C 0.60891 0.24145 0.95664 0.0
C1242 C 0.63425 0.22733 0.95493 0.0
C1243 C 0.68512 0.22822 0.95674 0.0
C1244 C 0.71024 0.24336 0.9595 0.0
C1245 C 0.65955 0.24219 0.95417 0.0
C1246 C 0.70986 0.27242 0.9559 0.0
C1247 C 0.68455 0.28643 0.95255 0.0
H1248 H 0.63233 0.39781 0.24729 0.0
H1249 H 0.57001 0.46224 0.24988 0.0
H1250 H 0.60524 0.49566 0.26625 0.0
H1251 H 0.65144 0.50411 0.28728 0.0
H1252 H 0.71242 0.43836 0.28835 0.0
H1253 H 0.68026 0.40808 0.26235 0.0
C1254 C 0.62656 0.4193 0.25091 0.0
C1255 C 0.59853 0.42746 0.24785 0.0
C1256 C 0.6467 0.43811 0.26106 0.0
C1257 C 0.59141 0.45542 0.25232 0.0
C1258 C 0.61153 0.47449 0.26176 0.0
C1259 C 0.65803 0.48345 0.28105 0.0
C1260 C 0.68415 0.47334 0.28994 0.0
C1261 C 0.63895 0.46576 0.26728 0.0
C1262 C 0.69236 0.44652 0.28185 0.0
C1263 C 0.67389 0.42914 0.26719 0.0
H1264 H 0.48087 0.15205 0.66601 0.0
H1265 H 0.54454 0.14723 0.73027 0.0
H1266 H 0.54842 0.09697 0.72252 0.0
H1267 H 0.52835 0.05379 0.70249 0.0
H1268 H 0.46462 0.05911 0.63819 0.0
H1269 H 0.46621 0.10988 0.64075 0.0
C1270 C 0.49613 0.14007 0.67777 0.0
C1271 C 0.51222 0.15313 0.69884 0.0
C1272 C 0.49785 0.11127 0.67352 0.0
C1273 C 0.53205 0.13758 0.71384 0.0
C1274 C 0.53401 0.10882 0.70963 0.0
C1275 C 0.51515 0.06612 0.68873 0.0
C1276 C 0.49602 0.05278 0.67054 0.0
C1277 C 0.51618 0.09531 0.69035 0.0
C1278 C 0.47936 0.06892 0.6525 0.0
C1279 C 0.4802 0.09793 0.65402 0.0
H1280 H 0.02302 0.44603 0.29605 0.0
H1281 H 0.97244 0.4319 0.37018 0.0
H1282 H 0.97814 0.38168 0.36502 0.0
H1283 H 0.99096 0.34221 0.33504 0.0
H1284 H 0.04114 0.3559 0.26068 0.0
H1285 H 0.0429 0.4059 0.27072 0.0
C1286 C 0.01369 0.43194 0.31135 0.0
C1287 C 0.99686 0.44256 0.33314 0.0
C1288 C 0.01698 0.40307 0.30817 0.0
C1289 C 0.98529 0.42419 0.35312 0.0
C1290 C 0.98847 0.39548 0.35012 0.0
C1291 C 0.00302 0.35608 0.32155 0.0
C1292 C 0.01568 0.34558 0.29704 0.0
C1293 C 0.00336 0.38472 0.32713 0.0
C1294 C 0.03138 0.36356 0.27976 0.0
C1295 C 0.03204 0.39217 0.2853 0.0
H1296 H 0.15132 0.99156 0.72303 0.0
H1297 H 0.21176 0.05856 0.72596 0.0
H1298 H 0.17689 0.08908 0.7471 0.0
H1299 H 0.12764 0.09881 0.75648 0.0
H1300 H 0.06607 0.03319 0.74878 0.0
H1301 H 0.103 0.99988 0.73802 0.0
C1302 C 0.15712 0.01257 0.72915 0.0
C1303 C 0.18403 0.02289 0.72285 0.0
C1304 C 0.13657 0.03036 0.73989 0.0
C1305 C 0.19117 0.05021 0.73059 0.0
C1306 C 0.17117 0.06771 0.74245 0.0
C1307 C 0.12232 0.07709 0.75302 0.0
C1308 C 0.09412 0.06853 0.75302 0.0
C1309 C 0.14351 0.05837 0.74589 0.0
C1310 C 0.0876 0.04032 0.74869 0.0
C1311 C 0.10871 0.0213 0.74245 0.0
H1312 H 0.65389 0.93957 0.85237 0.0
H1313 H 0.69602 0.86127 0.84075 0.0
H1314 H 0.67351 0.84279 0.88328 0.0
H1315 H 0.64301 0.84926 0.92415 0.0
H1316 H 0.60048 0.92725 0.93615 0.0
H1317 H 0.62208 0.94558 0.89286 0.0
C1318 C 0.65805 0.91839 0.85905 0.0
C1319 C 0.67667 0.90179 0.84339 0.0
C1320 C 0.64508 0.90797 0.88357 0.0
C1321 C 0.68179 0.87444 0.85235 0.0
C1322 C 0.66897 0.86391 0.8767 0.0
C1323 C 0.6384 0.87031 0.91736 0.0
C1324 C 0.62026 0.88697 0.93348 0.0
C1325 C 0.65078 0.88056 0.89255 0.0
C1326 C 0.61439 0.91406 0.92418 0.0
C1327 C 0.62675 0.92451 0.89946 0.0
H1328 H 0.50478 0.64838 0.42174 0.0
H1329 H 0.46807 0.69458 0.35302 0.0
H1330 H 0.47046 0.73724 0.38109 0.0
H1331 H 0.47536 0.75902 0.42774 0.0
H1332 H 0.51098 0.71257 0.49685 0.0
H1333 H 0.517 0.67226 0.46592 0.0
C1334 C 0.49794 0.66795 0.41268 0.0
C1335 C 0.4858 0.66837 0.38561 0.0
C1336 C 0.49881 0.69213 0.42915 0.0
C1337 C 0.47739 0.6938 0.37387 0.0
C1338 C 0.47852 0.71811 0.39 0.0
C1339 C 0.48491 0.7402 0.43586 0.0
C1340 C 0.4922 0.7384 0.46458 0.0
C1341 C 0.48797 0.71716 0.41808 0.0
C1342 C 0.50506 0.71426 0.47483 0.0
C1343 C 0.50836 0.69122 0.45719 0.0
H1344 H 0.61825 0.63167 0.65124 0.0
H1345 H 0.53868 0.61705 0.61068 0.0
H1346 H 0.51628 0.64898 0.64392 0.0
H1347 H 0.51926 0.67956 0.6854 0.0
H1348 H 0.59905 0.69452 0.72543 0.0
H1349 H 0.62161 0.66386 0.69119 0.0
C1350 C 0.59598 0.63547 0.6496 0.0
C1351 C 0.58004 0.62184 0.62867 0.0
C1352 C 0.5834 0.65384 0.66863 0.0
C1353 C 0.55134 0.62724 0.62663 0.0
C1354 C 0.53857 0.64544 0.64565 0.0
C1355 C 0.54162 0.6762 0.6866 0.0
C1356 C 0.55748 0.68914 0.70805 0.0
C1357 C 0.55437 0.65862 0.66687 0.0
C1358 C 0.58643 0.68479 0.70915 0.0
C1359 C 0.59928 0.66723 0.68964 0.0
H1360 H 0.97956 0.73733 0.56768 0.0
H1361 H 1.00006 0.79055 0.49706 0.0
H1362 H 0.00632 0.83004 0.52925 0.0
H1363 H 0.99948 0.8502 0.57632 0.0
H1364 H 0.97736 0.79699 0.64653 0.0
H1365 H 0.97887 0.75631 0.61562 0.0
C1366 C 0.9857 0.75753 0.55937 0.0
C1367 C 0.98878 0.76134 0.53007 0.0
C1368 C 0.98892 0.77997 0.57788 0.0
C1369 C 0.99736 0.78732 0.51955 0.0
C1370 C 0.00084 0.80983 0.53792 0.0
C1371 C 0.99552 0.82962 0.58498 0.0
C1372 C 0.98785 0.82657 0.61352 0.0
C1373 C 0.99573 0.80654 0.56697 0.0
C1374 C 0.98316 0.79983 0.62459 0.0
C1375 C 0.98381 0.77663 0.60689 0.0
H1376 H 0.15361 0.64368 0.07285 0.0
H1377 H 0.10629 0.56757 0.06242 0.0
H1378 H 0.12465 0.55022 0.10748 0.0
H1379 H 0.15443 0.55668 0.14946 0.0
H1380 H 0.20139 0.63304 0.15973 0.0
H1381 H 0.18271 0.65041 0.11493 0.0
C1382 C 0.1473 0.62323 0.08034 0.0
C1383 C 0.12868 0.60684 0.06419 0.0
C1384 C 0.15781 0.61354 0.10622 0.0
C1385 C 0.12061 0.58054 0.07438 0.0
C1386 C 0.13111 0.57065 0.10014 0.0
C1387 C 0.16051 0.5772 0.14198 0.0
C1388 C 0.17928 0.5936 0.15797 0.0
C1389 C 0.14973 0.58698 0.1162 0.0
C1390 C 0.18697 0.62006 0.1479 0.0
C1391 C 0.17633 0.62995 0.12227 0.0
H1392 H 0.30124 0.53839 0.27168 0.0
H1393 H 0.29037 0.62606 0.25593 0.0
H1394 H 0.33946 0.63474 0.26853 0.0
H1395 H 0.38496 0.6174 0.28628 0.0
H1396 H 0.39511 0.52941 0.30116 0.0
H1397 H 0.3471 0.52079 0.28587 0.0
C1398 C 0.30953 0.55946 0.27117 0.0
C1399 C 0.29199 0.58164 0.26342 0.0
C1400 C 0.33783 0.56415 0.27782 0.0
C1401 C 0.30331 0.60868 0.26218 0.0
C1402 C 0.33142 0.61361 0.26923 0.0
C1403 C 0.3769 0.59626 0.28545 0.0
C1404 C 0.39375 0.57404 0.29473 0.0
C1405 C 0.34889 0.5915 0.27721 0.0
C1406 C 0.38273 0.54685 0.29398 0.0
C1407 C 0.35515 0.54194 0.28551 0.0
H1408 H 0.61981 0.41257 0.47339 0.0
H1409 H 0.55959 0.38907 0.53693 0.0
H1410 H 0.55706 0.43765 0.55275 0.0
H1411 H 0.57519 0.486 0.55109 0.0
H1412 H 0.64007 0.50746 0.49168 0.0
H1413 H 0.6375 0.46063 0.47139 0.0
C1414 C 0.60566 0.41819 0.49031 0.0
C1415 C 0.5895 0.39735 0.50369 0.0
C1416 C 0.60533 0.44583 0.50005 0.0
C1417 C 0.57198 0.40478 0.52616 0.0
C1418 C 0.57063 0.43253 0.53522 0.0
C1419 C 0.5882 0.48057 0.53321 0.0
C1420 C 0.60738 0.5003 0.52243 0.0
C1421 C 0.58757 0.45315 0.52264 0.0
C1422 C 0.62488 0.49275 0.49998 0.0
C1423 C 0.62351 0.46594 0.48852 0.0
H1424 H 0.88468 0.94428 0.68946 0.0
H1425 H 0.90603 0.8749 0.74301 0.0
H1426 H 0.85827 0.87407 0.76198 0.0
H1427 H 0.80964 0.89221 0.76175 0.0
H1428 H 0.78915 0.96011 0.70572 0.0
H1429 H 0.83715 0.96185 0.68886 0.0
C1430 C 0.87916 0.92927 0.7057 0.0
C1431 C 0.89911 0.90995 0.71511 0.0
C1432 C 0.85151 0.92821 0.71556 0.0
C1433 C 0.89123 0.89028 0.7357 0.0
C1434 C 0.86382 0.88961 0.7463 0.0
C1435 C 0.81565 0.90713 0.74561 0.0
C1436 C 0.79569 0.92591 0.73492 0.0
C1437 C 0.8436 0.90819 0.73601 0.0
C1438 C 0.80395 0.94533 0.71425 0.0
C1439 C 0.83149 0.9465 0.7047 0.0
H1440 H 0.352 0.95391 0.9358 0.0
H1441 H 0.42074 0.98281 0.98716 0.0
H1442 H 0.42873 0.93516 0.00384 0.0
H1443 H 0.41511 0.88543 0.00484 0.0
H1444 H 0.34669 0.85693 0.95269 0.0
H1445 H 0.34018 0.90412 0.93471 0.0
C1446 C 0.3686 0.94985 0.95084 0.0
C1447 C 0.38545 0.972 0.96062 0.0
C1448 C 0.37345 0.92236 0.95978 0.0
C1449 C 0.40727 0.96622 0.97958 0.0
C1450 C 0.41194 0.93894 0.98897 0.0
C1451 C 0.3992 0.88941 0.98904 0.0
C1452 C 0.38152 0.86753 0.98001 0.0
C1453 C 0.39516 0.91682 0.97921 0.0
C1454 C 0.36074 0.87324 0.95985 0.0
C1455 C 0.3568 0.90032 0.94977 0.0
H1456 H 0.13954 0.39204 0.79761 0.0
H1457 H 0.13003 0.48118 0.80067 0.0
H1458 H 0.17765 0.48746 0.78289 0.0
H1459 H 0.22276 0.46775 0.76892 0.0
H1460 H 0.233 0.37865 0.76665 0.0
H1461 H 0.18455 0.37221 0.78222 0.0
C1462 C 0.14765 0.41283 0.79368 0.0
C1463 C 0.13106 0.43615 0.80002 0.0
C1464 C 0.17544 0.41628 0.78433 0.0
C1465 C 0.1422 0.46293 0.7956 0.0
C1466 C 0.16954 0.46652 0.78572 0.0
C1467 C 0.21451 0.44689 0.77203 0.0
C1468 C 0.23167 0.4237 0.76694 0.0
C1469 C 0.18653 0.44337 0.78058 0.0
C1470 C 0.2204 0.39685 0.77068 0.0
C1471 C 0.19261 0.39317 0.7794 0.0
H1472 H 0.89537 0.53173 0.04513 0.0
H1473 H 0.8053 0.53325 0.04938 0.0
H1474 H 0.80538 0.58171 0.03384 0.0
H1475 H 0.83091 0.62431 0.02108 0.0
H1476 H 0.92086 0.62332 0.01579 0.0
H1477 H 0.92101 0.57426 0.0302 0.0
C1478 C 0.87575 0.54254 0.04219 0.0
C1479 C 0.85034 0.52879 0.04835 0.0
C1480 C 0.87596 0.57072 0.0337 0.0
C1481 C 0.82514 0.54325 0.04475 0.0
C1482 C 0.82517 0.57106 0.03605 0.0
C1483 C 0.85059 0.61346 0.02336 0.0
C1484 C 0.87588 0.62761 0.01786 0.0
C1485 C 0.85045 0.58515 0.03099 0.0
C1486 C 0.90113 0.61302 0.02027 0.0
C1487 C 0.9012 0.58492 0.02833 0.0
H1488 H 0.69765 0.10826 0.25897 0.0
H1489 H 0.71714 0.03918 0.20458 0.0
H1490 H 0.66932 0.03901 0.18632 0.0
H1491 H 0.62222 0.05873 0.18536 0.0
H1492 H 0.60213 0.12752 0.23998 0.0
H1493 H 0.64963 0.12702 0.2592 0.0
C1494 C 0.69149 0.09344 0.24284 0.0
C1495 C 0.71105 0.07405 0.23277 0.0
C1496 C 0.66369 0.09301 0.23294 0.0
C1497 C 0.70258 0.05451 0.21242 0.0
C1498 C 0.67518 0.05427 0.20212 0.0
C1499 C 0.62802 0.07333 0.20184 0.0
C1500 C 0.60849 0.09304 0.2113 0.0
C1501 C 0.65553 0.07332 0.21233 0.0
C1502 C 0.61658 0.11194 0.23248 0.0
C1503 C 0.64387 0.11186 0.24326 0.0
H1504 H 0.10801 0.08577 0.49528 0.0
H1505 H 0.15937 0.11941 0.4283 0.0
H1506 H 0.16837 0.07257 0.41103 0.0
H1507 H 0.16414 0.02206 0.41649 0.0
H1508 H 0.11073 0.98753 0.48104 0.0
H1509 H 0.10021 0.03469 0.49801 0.0
C1510 C 0.12075 0.08285 0.4766 0.0
C1511 C 0.13307 0.10613 0.46316 0.0
C1512 C 0.12592 0.05571 0.46674 0.0
C1513 C 0.14954 0.10196 0.439 0.0
C1514 C 0.15491 0.07513 0.42924 0.0
C1515 C 0.15034 0.02488 0.43443 0.0
C1516 C 0.13876 0.00147 0.44804 0.0
C1517 C 0.14375 0.05189 0.44331 0.0
C1518 C 0.12018 0.00532 0.47058 0.0
C1519 C 0.11411 0.03224 0.48015 0.0
H1520 H 0.10526 0.26933 0.49028 0.0
H1521 H 0.18438 0.25671 0.44887 0.0
H1522 H 0.18753 0.30646 0.43798 0.0
H1523 H 0.17081 0.35396 0.4456 0.0
H1524 H 0.09522 0.36737 0.49295 0.0
H1525 H 0.0872 0.31696 0.49569 0.0
C1526 C 0.12288 0.27744 0.47834 0.0
C1527 C 0.14454 0.25943 0.47027 0.0
C1528 C 0.12514 0.30624 0.47334 0.0
C1529 C 0.16749 0.27021 0.45528 0.0
C1530 C 0.1693 0.29863 0.44911 0.0
C1531 C 0.15212 0.34585 0.45575 0.0
C1532 C 0.13338 0.36431 0.46873 0.0
C1533 C 0.14864 0.31693 0.45872 0.0
C1534 C 0.10972 0.35353 0.48256 0.0
C1535 C 0.1053 0.32474 0.48432 0.0
H1536 H 0.97626 0.41711 0.84325 0.0
H1537 H 0.0037 0.49765 0.87267 0.0
H1538 H 0.95489 0.51126 0.8802 0.0
H1539 H 0.90437 0.50013 0.87798 0.0
H1540 H 0.87765 0.41853 0.85062 0.0
H1541 H 0.9263 0.40522 0.84335 0.0
C1542 C 0.97157 0.43779 0.85099 0.0
C1543 C 0.99355 0.45659 0.85685 0.0
C1544 C 0.94361 0.44504 0.85612 0.0
C1545 C 0.98714 0.48298 0.86765 0.0
C1546 C 0.95926 0.49066 0.87211 0.0
C1547 C 0.9092 0.47929 0.87082 0.0
C1548 C 0.8873 0.46032 0.86493 0.0
C1549 C 0.93731 0.47181 0.86652 0.0
C1550 C 0.894 0.43347 0.85554 0.0
C1551 C 0.92184 0.42592 0.85113 0.0
H1552 H 0.8494 0.3757 0.04228 0.0
H1553 H 0.77128 0.39695 0.08195 0.0
H1554 H 0.75426 0.34924 0.07519 0.0
H1555 H 0.7624 0.30091 0.05963 0.0
H1556 H 0.84087 0.28013 0.02035 0.0
H1557 H 0.85712 0.32811 0.02586 0.0
C1558 C 0.82846 0.37008 0.04906 0.0
C1559 C 0.81158 0.38997 0.06245 0.0
C1560 C 0.8191 0.3425 0.04571 0.0
C1561 C 0.78463 0.38214 0.07138 0.0
C1562 C 0.77498 0.35478 0.06775 0.0
C1563 C 0.78316 0.30685 0.05255 0.0
C1564 C 0.80053 0.28689 0.03987 0.0
C1565 C 0.79223 0.33465 0.05538 0.0
C1566 C 0.82718 0.29502 0.03036 0.0
C1567 C 0.83643 0.3225 0.03335 0.0
H1568 H 0.87157 0.0301 0.26845 0.0
H1569 H 0.84386 0.06806 0.19101 0.0
H1570 H 0.89136 0.06472 0.17146 0.0
H1571 H 0.94134 0.05117 0.1771 0.0
H1572 H 0.96841 0.01806 0.25742 0.0
H1573 H 0.92093 0.01978 0.27523 0.0
C1574 C 0.87589 0.03725 0.24712 0.0
C1575 C 0.85427 0.0486 0.23085 0.0
C1576 C 0.90332 0.03655 0.23673 0.0
C1577 C 0.86021 0.05878 0.20367 0.0
C1578 C 0.88737 0.05703 0.19261 0.0
C1579 C 0.93681 0.04462 0.19856 0.0
C1580 C 0.9585 0.03446 0.21582 0.0
C1581 C 0.90922 0.0461 0.20906 0.0
C1582 C 0.95227 0.02611 0.24364 0.0
C1583 C 0.92502 0.02687 0.25386 0.0
H1584 H 0.15514 0.85173 0.46488 0.0
H1585 H 0.23481 0.87244 0.42739 0.0
H1586 H 0.25134 0.82521 0.43672 0.0
H1587 H 0.24194 0.77715 0.45267 0.0
H1588 H 0.16194 0.75669 0.48958 0.0
H1589 H 0.14657 0.80464 0.48286 0.0
C1590 C 0.17632 0.84611 0.45919 0.0
C1591 C 0.19373 0.86562 0.44547 0.0
C1592 C 0.18538 0.81878 0.46394 0.0
C1593 C 0.22104 0.85789 0.43811 0.0
C1594 C 0.2304 0.8308 0.44319 0.0
C1595 C 0.22108 0.78317 0.45908 0.0
C1596 C 0.20295 0.76331 0.47126 0.0
C1597 C 0.21251 0.81089 0.45547 0.0
C1598 C 0.17618 0.77152 0.47993 0.0
C1599 C 0.16744 0.79896 0.47623 0.0
H1600 H 0.38843 0.40883 0.76973 0.0
H1601 H 0.36294 0.4915 0.79327 0.0
H1602 H 0.40778 0.49906 0.81723 0.0
H1603 H 0.45596 0.48392 0.82703 0.0
H1604 H 0.48323 0.40363 0.79799 0.0
H1605 H 0.43591 0.39305 0.78106 0.0
C1606 C 0.3925 0.42833 0.78055 0.0
C1607 C 0.37235 0.44957 0.77984 0.0
C1608 C 0.41872 0.43289 0.79323 0.0
C1609 C 0.37811 0.47487 0.79353 0.0
C1610 C 0.40375 0.47918 0.80719 0.0
C1611 C 0.45129 0.46382 0.81768 0.0
C1612 C 0.47286 0.44435 0.81411 0.0
C1613 C 0.42445 0.45857 0.80662 0.0
C1614 C 0.46684 0.41875 0.80119 0.0
C1615 C 0.43986 0.41281 0.79136 0.0
H1616 H 0.87788 0.79842 0.96639 0.0
H1617 H 0.85986 0.77818 0.05312 0.0
H1618 H 0.85893 0.82806 0.06496 0.0
H1619 H 0.85847 0.87747 0.04893 0.0
H1620 H 0.87857 0.89634 0.96206 0.0
H1621 H 0.88431 0.84703 0.95215 0.0
C1622 C 0.87401 0.805 0.98795 0.0
C1623 C 0.86843 0.78491 0.0088 0.0
C1624 C 0.87408 0.83345 0.99455 0.0
C1625 C 0.86401 0.79344 0.03675 0.0
C1626 C 0.86347 0.8219 0.04345 0.0
C1627 C 0.86492 0.87082 0.02807 0.0
C1628 C 0.86782 0.89063 0.00619 0.0
C1629 C 0.8679 0.84216 0.02235 0.0
C1630 C 0.87607 0.88161 0.97925 0.0
C1631 C 0.87914 0.85335 0.97347 0.0
H1632 H 0.383 0.02675 0.13805 0.0
H1633 H 0.35264 0.10114 0.17829 0.0
H1634 H 0.40081 0.11697 0.18611 0.0
H1635 H 0.45154 0.10937 0.18192 0.0
H1636 H 0.48165 0.03522 0.14107 0.0
H1637 H 0.43352 0.01927 0.13366 0.0
C1638 C 0.38686 0.04661 0.14825 0.0
C1639 C 0.36418 0.06287 0.15736 0.0
C1640 C 0.41457 0.05533 0.15305 0.0
C1641 C 0.36966 0.08836 0.17081 0.0
C1642 C 0.39721 0.0973 0.1755 0.0
C1643 C 0.44758 0.08952 0.17177 0.0
C1644 C 0.4702 0.07333 0.16235 0.0
C1645 C 0.41983 0.08082 0.16695 0.0
C1646 C 0.46467 0.04794 0.14874 0.0
C1647 C 0.43714 0.03892 0.14431 0.0
H1648 H 0.56351 0.33758 0.05914 0.0
H1649 H 0.48681 0.38145 0.04369 0.0
H1650 H 0.48041 0.38777 0.09489 0.0
H1651 H 0.49606 0.3785 0.14464 0.0
H1652 H 0.57019 0.32925 0.1576 0.0
H1653 H 0.57778 0.32694 0.10706 0.0
C1654 C 0.5457 0.34917 0.06685 0.0
C1655 C 0.52613 0.35981 0.04754 0.0
C1656 C 0.54137 0.35116 0.0961 0.0
C1657 C 0.50255 0.37367 0.05808 0.0
C1658 C 0.49876 0.37698 0.08737 0.0
C1659 C 0.51376 0.3672 0.13632 0.0
C1660 C 0.5325 0.35408 0.15512 0.0
C1661 C 0.51785 0.36539 0.10671 0.0
C1662 C 0.55528 0.33943 0.14386 0.0
C1663 C 0.55982 0.33822 0.11484 0.0
H1664 H 0.01065 0.71071 0.13647 0.0
H1665 H 0.09549 0.73261 0.15861 0.0
H1666 H 0.11097 0.72092 0.11096 0.0
H1667 H 0.10073 0.70332 0.06321 0.0
H1668 H 0.01653 0.67888 0.04174 0.0
H1669 H 1.00035 0.69336 0.08851 0.0
C1670 C 0.03256 0.71276 0.13093 0.0
C1671 C 0.05189 0.72236 0.15125 0.0
C1672 C 0.04135 0.70603 0.10337 0.0
C1673 C 0.08017 0.72507 0.14355 0.0
C1674 C 0.08903 0.71857 0.1162 0.0
C1675 C 0.07872 0.70186 0.06854 0.0
C1676 C 0.05973 0.69062 0.04882 0.0
C1677 C 0.06981 0.70911 0.0959 0.0
C1678 C 0.03144 0.68792 0.05638 0.0
C1679 C 0.02226 0.69592 0.08323 0.0
H1680 H 0.47817 0.33092 0.31248 0.0
H1681 H 0.49407 0.41879 0.32206 0.0
H1682 H 0.48037 0.41602 0.3719 0.0
H1683 H 0.46532 0.388 0.41351 0.0
H1684 H 0.45217 0.2996 0.40352 0.0
H1685 H 0.46403 0.3031 0.35361 0.0
C1686 C 0.47818 0.34959 0.32532 0.0
C1687 C 0.48671 0.37513 0.31333 0.0
C1688 C 0.47135 0.34761 0.35422 0.0
C1689 C 0.4872 0.39894 0.33057 0.0
C1690 C 0.47962 0.3973 0.35919 0.0
C1691 C 0.46528 0.36949 0.40046 0.0
C1692 C 0.45789 0.34354 0.41248 0.0
C1693 C 0.47204 0.37164 0.37141 0.0
C1694 C 0.45779 0.31984 0.39505 0.0
C1695 C 0.46442 0.32182 0.36635 0.0
H1696 H 0.95924 0.68679 0.56458 0.0
H1697 H 0.00742 0.61444 0.54355 0.0
H1698 H 0.01734 0.60662 0.59411 0.0
H1699 H 0.01123 0.62057 0.64471 0.0
H1700 H 0.96674 0.69632 0.66314 0.0
H1701 H 0.95714 0.70304 0.6132 0.0
C1702 C 0.97186 0.66923 0.57105 0.0
C1703 C 0.98204 0.65082 0.55053 0.0
C1704 C 0.97843 0.66576 0.59973 0.0
C1705 C 0.99895 0.62857 0.55909 0.0
C1706 C 0.00471 0.62426 0.58795 0.0
C1707 C 0.99976 0.63871 0.63771 0.0
C1708 C 0.98959 0.65781 0.65786 0.0
C1709 C 0.99451 0.64275 0.60854 0.0
C1710 C 0.97485 0.68126 0.64831 0.0
C1711 C 0.96915 0.68507 0.61968 0.0
H1712 H 0.01689 0.59826 0.82448 0.0
H1713 H 0.06829 0.666 0.79391 0.0
H1714 H 0.08554 0.6744 0.8418 0.0
H1715 H 0.0841 0.66427 0.89281 0.0
H1716 H 0.03261 0.59672 0.9236 0.0
H1717 H 0.01695 0.58684 0.87535 0.0
C1718 C 0.03242 0.61441 0.82814 0.0
C1719 C 0.04154 0.63125 0.80541 0.0
C1720 C 0.04168 0.61964 0.85596 0.0
C1721 C 0.06117 0.65249 0.81082 0.0
C1722 C 0.07081 0.65751 0.83831 0.0
C1723 C 0.06929 0.64749 0.88902 0.0
C1724 C 0.05929 0.63147 0.91194 0.0
C1725 C 0.06077 0.64162 0.86113 0.0
C1726 C 0.04048 0.60953 0.90647 0.0
C1727 C 0.03163 0.60377 0.87883 0.0
H1728 H 0.50839 0.84803 0.44342 0.0
H1729 H 0.41898 0.85788 0.4496 0.0
H1730 H 0.41614 0.86599 0.39886 0.0
H1731 H 0.43806 0.8647 0.35211 0.0
H1732 H 0.52739 0.85672 0.34498 0.0
H1733 H 0.53133 0.85333 0.39667 0.0
C1734 C 0.4884 0.85274 0.4338 0.0
C1735 C 0.46388 0.85211 0.45038 0.0
C1736 C 0.48684 0.85706 0.40434 0.0
C1737 C 0.43816 0.85818 0.43745 0.0
C1738 C 0.43647 0.86256 0.40833 0.0
C1739 C 0.45843 0.86241 0.36192 0.0
C1740 C 0.48237 0.8604 0.34485 0.0
C1741 C 0.46049 0.86104 0.39148 0.0
C1742 C 0.50868 0.85808 0.35775 0.0
C1743 C 0.51089 0.85615 0.38726 0.0
H1744 H 0.54515 0.32079 0.88127 0.0
H1745 H 0.45905 0.31022 0.90619 0.0
H1746 H 0.44644 0.29776 0.85772 0.0
H1747 H 0.46088 0.28392 0.81014 0.0
H1748 H 0.54777 0.28943 0.78641 0.0
H1749 H 0.55907 0.31014 0.83231 0.0
C1750 C 0.5235 0.31646 0.8759 0.0
C1751 C 0.503 0.31655 0.89728 0.0
C1752 C 0.51665 0.30807 0.84823 0.0
C1753 C 0.47516 0.31037 0.89012 0.0
C1754 C 0.46799 0.3031 0.86244 0.0
C1755 C 0.48222 0.29022 0.81472 0.0
C1756 C 0.50347 0.28512 0.79481 0.0
C1757 C 0.4887 0.301 0.84156 0.0
C1758 C 0.53103 0.29313 0.8013 0.0
C1759 C 0.53751 0.30485 0.82762 0.0
H1760 H 0.39401 0.92512 0.68653 0.0
H1761 H 0.40759 0.95761 0.60265 0.0
H1762 H 0.35695 0.96035 0.59527 0.0
H1763 H 0.3092 0.95956 0.61522 0.0
H1764 H 0.29683 0.93248 0.70123 0.0
H1765 H 0.3465 0.92147 0.70527 0.0
C1766 C 0.38593 0.93207 0.66631 0.0
C1767 C 0.40458 0.94099 0.64507 0.0
C1768 C 0.35692 0.93501 0.66285 0.0
C1769 C 0.3937 0.95046 0.61924 0.0
C1770 C 0.36474 0.95225 0.61513 0.0
C1771 C 0.31733 0.9507 0.63463 0.0
C1772 C 0.29938 0.94679 0.65791 0.0
C1773 C 0.34618 0.9455 0.63716 0.0
C1774 C 0.31023 0.93571 0.68306 0.0
C1775 C 0.33863 0.92945 0.68538 0.0
H1776 H 0.8156 0.13588 0.05968 0.0
H1777 H 0.83213 0.14581 0.97064 0.0
H1778 H 0.85056 0.09849 0.96867 0.0
H1779 H 0.8548 0.05235 0.99048 0.0
H1780 H 0.8337 0.04111 0.07836 0.0
H1781 H 0.82489 0.09102 0.08277 0.0
C1782 C 0.82384 0.12794 0.03997 0.0
C1783 C 0.82229 0.14429 0.01526 0.0
C1784 C 0.83341 0.10036 0.03879 0.0
C1785 C 0.83296 0.13363 0.9899 0.0
C1786 C 0.8434 0.10652 0.98876 0.0
C1787 C 0.84907 0.06092 0.01083 0.0
C1788 C 0.84479 0.04298 0.03406 0.0
C1789 C 0.84272 0.08937 0.01282 0.0
C1790 C 0.83713 0.05443 0.06018 0.0
C1791 C 0.83186 0.08295 0.06263 0.0
H1792 H 0.88782 0.57309 0.33459 0.0
H1793 H 0.90392 0.52856 0.41202 0.0
H1794 H 0.85361 0.52557 0.42132 0.0
H1795 H 0.80508 0.52943 0.40372 0.0
H1796 H 0.7899 0.56912 0.32344 0.0
H1797 H 0.83962 0.5803 0.319 0.0
C1798 C 0.88041 0.56346 0.35396 0.0
C1799 C 0.89967 0.55118 0.37267 0.0
C1800 C 0.85146 0.5605 0.35835 0.0
C1801 C 0.88958 0.53833 0.39737 0.0
C1802 C 0.86078 0.53639 0.40255 0.0
C1803 C 0.81261 0.5411 0.3856 0.0
C1804 C 0.79382 0.54846 0.36392 0.0
C1805 C 0.84149 0.54646 0.38264 0.0
C1806 C 0.80393 0.56319 0.34036 0.0
C1807 C 0.83238 0.56953 0.33779 0.0
H1808 H 0.14532 0.52496 0.51539 0.0
H1809 H 0.16019 0.51939 0.42574 0.0
H1810 H 0.16949 0.56951 0.42374 0.0
H1811 H 0.18111 0.61274 0.44877 0.0
H1812 H 0.17156 0.61684 0.53927 0.0
H1813 H 0.1522 0.56955 0.53969 0.0
C1814 C 0.14974 0.53485 0.49525 0.0
C1815 C 0.1521 0.5185 0.47071 0.0
C1816 C 0.15654 0.56335 0.49458 0.0
C1817 C 0.15823 0.53155 0.44487 0.0
C1818 C 0.16377 0.56016 0.44379 0.0
C1819 C 0.17421 0.60353 0.46853 0.0
C1820 C 0.17797 0.61819 0.49401 0.0
C1821 C 0.1642 0.57598 0.46871 0.0
C1822 C 0.16902 0.60594 0.51942 0.0
C1823 C 0.15804 0.57887 0.51965 0.0
H1824 H 0.10947 0.06881 0.19102 0.0
H1825 H 0.0999 0.0327 0.10823 0.0
H1826 H 0.15047 0.03614 0.10075 0.0
H1827 H 0.19775 0.04203 0.12101 0.0
H1828 H 0.20677 0.07278 0.20607 0.0
H1829 H 0.15621 0.07891 0.20941 0.0
C1830 C 0.11828 0.06252 0.17094 0.0
C1831 C 0.10086 0.05055 0.15016 0.0
C1832 C 0.14747 0.06306 0.16749 0.0
C1833 C 0.11279 0.0421 0.12449 0.0
C1834 C 0.14176 0.0438 0.12034 0.0
C1835 C 0.18867 0.05073 0.14 0.0
C1836 C 0.20598 0.0569 0.16331 0.0
C1837 C 0.1594 0.05311 0.14218 0.0
C1838 C 0.1939 0.0678 0.1879 0.0
C1839 C 0.16498 0.07125 0.18983 0.0
H1840 H 0.64633 0.97411 0.49639 0.0
H1841 H 0.67142 0.98619 0.58299 0.0
H1842 H 0.68343 0.93685 0.58683 0.0
H1843 H 0.69186 0.89178 0.56394 0.0
H1844 H 0.67166 0.88106 0.47582 0.0
H1845 H 0.65258 0.92823 0.47413 0.0
C1846 C 0.6537 0.96575 0.51633 0.0
C1847 C 0.65766 0.9837 0.53953 0.0
C1848 C 0.66187 0.93767 0.5179 0.0
C1849 C 0.66797 0.97274 0.56497 0.0
C1850 C 0.67501 0.94458 0.56707 0.0
C1851 C 0.68283 0.89958 0.54447 0.0
C1852 C 0.68314 0.88287 0.52002 0.0
C1853 C 0.67283 0.92705 0.54344 0.0
C1854 C 0.67169 0.89346 0.4949 0.0
C1855 C 0.66083 0.92046 0.49394 0.0
H1856 H 0.7175 0.46959 0.89066 0.0
H1857 H 0.73166 0.43287 0.80895 0.0
H1858 H 0.68165 0.42328 0.80397 0.0
H1859 H 0.63369 0.43159 0.81956 0.0
H1860 H 0.61881 0.4735 0.89852 0.0
H1861 H 0.66912 0.47426 0.90824 0.0
C1862 C 0.70966 0.45885 0.87212 0.0
C1863 C 0.72822 0.4519 0.8502 0.0
C1864 C 0.68066 0.45455 0.86885 0.0
C1865 C 0.71777 0.43843 0.82607 0.0
C1866 C 0.68916 0.43303 0.82319 0.0
C1867 C 0.64135 0.44017 0.83931 0.0
C1868 C 0.62248 0.45243 0.85833 0.0
C1869 C 0.67033 0.44186 0.84399 0.0
C1870 C 0.63286 0.46384 0.88359 0.0
C1871 C 0.66166 0.46449 0.88902 0.0
H1872 H 0.33905 0.36461 0.949 0.0
H1873 H 0.33258 0.35302 0.03915 0.0
H1874 H 0.34767 0.4012 0.04669 0.0
H1875 H 0.35447 0.44831 0.02742 0.0
H1876 H 0.35577 0.46074 0.93718 0.0
H1877 H 0.35157 0.4105 0.92987 0.0
C1878 C 0.34162 0.37238 0.97034 0.0
C1879 C 0.33444 0.35528 0.99349 0.0
C1880 C 0.34915 0.40042 0.97444 0.0
C1881 C 0.33784 0.36574 0.02098 0.0
C1882 C 0.34634 0.39336 0.02528 0.0
C1883 C 0.35474 0.43996 0.00615 0.0
C1884 C 0.35533 0.45825 0.98284 0.0
C1885 C 0.35088 0.41119 0.00214 0.0
C1886 C 0.35533 0.44712 0.95544 0.0
C1887 C 0.3527 0.4184 0.95127 0.0
H1888 H 0.31094 0.62912 0.01957 0.0
H1889 H 0.39653 0.61034 0.99917 0.0
H1890 H 0.40792 0.66036 0.99866 0.0
H1891 H 0.39327 0.70958 0.00522 0.0
H1892 H 0.30666 0.72685 0.02336 0.0
H1893 H 0.29589 0.67728 0.02305 0.0
C1894 C 0.33219 0.6359 0.01522 0.0
C1895 C 0.35301 0.61604 0.00997 0.0
C1896 C 0.33829 0.66448 0.01423 0.0
C1897 C 0.38023 0.62523 0.00362 0.0
C1898 C 0.38668 0.65381 0.00323 0.0
C1899 C 0.37199 0.70247 0.00872 0.0
C1900 C 0.35082 0.722 0.01438 0.0
C1901 C 0.36584 0.67367 0.00856 0.0
C1902 C 0.32337 0.7124 0.01893 0.0
C1903 C 0.31718 0.68399 0.01893 0.0
H1904 H 0.63301 0.65194 0.5244 0.0
H1905 H 0.70437 0.62388 0.57218 0.0
H1906 H 0.72476 0.67058 0.57019 0.0
H1907 H 0.72136 0.71994 0.55689 0.0
H1908 H 0.65133 0.74788 0.50727 0.0
H1909 H 0.63115 0.70082 0.5083 0.0
C1910 C 0.65324 0.65593 0.53399 0.0
C1911 C 0.66712 0.63436 0.54844 0.0
C1912 C 0.6648 0.68296 0.53292 0.0
C1913 C 0.69328 0.63997 0.56079 0.0
C1914 C 0.70486 0.66677 0.55988 0.0
C1915 C 0.70154 0.71576 0.54652 0.0
C1916 C 0.68754 0.73745 0.5325 0.0
C1917 C 0.69056 0.68853 0.54649 0.0
C1918 C 0.6623 0.73159 0.51849 0.0
C1919 C 0.65085 0.70467 0.51896 0.0
H1920 H 0.33056 0.20413 0.99707 0.0
H1921 H 0.30089 0.21604 0.91178 0.0
H1922 H 0.30859 0.16697 0.90159 0.0
H1923 H 0.32389 0.12071 0.91658 0.0
H1924 H 0.3573 0.1089 1.00022 0.0
H1925 H 0.34734 0.15765 0.01172 0.0
C1926 C 0.32607 0.19603 0.97618 0.0
C1927 C 0.31524 0.21381 0.9552 0.0
C1928 C 0.3306 0.16766 0.97039 0.0
C1929 C 0.30942 0.20293 0.92827 0.0
C1930 C 0.31358 0.17478 0.92248 0.0
C1931 C 0.32832 0.12865 0.93756 0.0
C1932 C 0.34051 0.11112 0.95785 0.0
C1933 C 0.3239 0.15692 0.94342 0.0
C1934 C 0.3473 0.12192 0.98454 0.0
C1935 C 0.3419 0.14983 0.99096 0.0
H1936 H 0.63459 0.23705 0.54918 0.0
H1937 H 0.57004 0.23233 0.48574 0.0
H1938 H 0.56912 0.18165 0.48967 0.0
H1939 H 0.59133 0.13838 0.50648 0.0
H1940 H 0.65368 0.14312 0.57218 0.0
H1941 H 0.65031 0.19373 0.5725 0.0
C1942 C 0.61991 0.22492 0.53671 0.0
C1943 C 0.60267 0.23844 0.51696 0.0
C1944 C 0.61917 0.19567 0.53937 0.0
C1945 C 0.58355 0.22248 0.50111 0.0
C1946 C 0.58311 0.19342 0.50322 0.0
C1947 C 0.60354 0.15045 0.52145 0.0
C1948 C 0.6229 0.13689 0.53907 0.0
C1949 C 0.60145 0.17972 0.52163 0.0
C1950 C 0.63852 0.15289 0.55842 0.0
C1951 C 0.63684 0.18196 0.55843 0.0
H1952 H 0.52046 0.82469 0.93452 0.0
H1953 H 0.58691 0.76685 0.9519 0.0
H1954 H 0.58176 0.74707 0.90464 0.0
H1955 H 0.56044 0.7483 0.8571 0.0
H1956 H 0.49288 0.80493 0.84045 0.0
H1957 H 0.49672 0.82344 0.88844 0.0
C1958 C 0.53345 0.80738 0.9282 0.0
C1959 C 0.55406 0.7973 0.9468 0.0
C1960 C 0.53063 0.79635 0.90083 0.0
C1961 C 0.57075 0.7749 0.93816 0.0
C1962 C 0.56804 0.76378 0.91097 0.0
C1963 C 0.54674 0.76485 0.86397 0.0
C1964 C 0.52678 0.77566 0.84512 0.0
C1965 C 0.54853 0.7748 0.89188 0.0
C1966 C 0.50862 0.79654 0.85449 0.0
C1967 C 0.51072 0.807 0.88196 0.0
H1968 H 0.98923 0.12738 0.84348 0.0
H1969 H 0.06697 0.1714 0.82915 0.0
H1970 H 0.07389 0.17635 0.87969 0.0
H1971 H 0.05812 0.16921 0.92791 0.0
H1972 H 0.97809 0.13089 0.94412 0.0
H1973 H 0.97196 0.12222 0.8932 0.0
C1974 C 0.00755 0.13818 0.8515 0.0
C1975 C 0.02753 0.14903 0.83239 0.0
C1976 C 0.01122 0.14159 0.88099 0.0
C1977 C 0.05111 0.16305 0.84319 0.0
C1978 C 0.05525 0.16573 0.87219 0.0
C1979 C 0.03958 0.15836 0.92042 0.0
C1980 C 0.01899 0.14987 0.93984 0.0
C1981 C 0.03556 0.15502 0.89125 0.0
C1982 C 0.99454 0.13699 0.92963 0.0
C1983 C 0.99095 0.13231 0.9005 0.0
H1984 H 0.48676 0.89476 0.16101 0.0
H1985 H 0.54854 0.84305 0.20131 0.0
H1986 H 0.56976 0.83341 0.15553 0.0
H1987 H 0.57004 0.83831 0.10383 0.0
H1988 H 0.51013 0.89177 0.06324 0.0
H1989 H 0.48876 0.90186 0.10917 0.0
C1990 C 0.50512 0.88172 0.15982 0.0
C1991 C 0.51608 0.86976 0.18472 0.0
C1992 C 0.51731 0.87623 0.13327 0.0
C1993 C 0.53979 0.85276 0.18266 0.0
C1994 C 0.55183 0.84704 0.1564 0.0
C1995 C 0.55219 0.85206 0.10501 0.0
C1996 C 0.54144 0.86397 0.08008 0.0
C1997 C 0.54057 0.85835 0.13154 0.0
C1998 C 0.51869 0.88219 0.08206 0.0
C1999 C 0.50653 0.88801 0.10835 0.0
H2000 H 0.97641 0.18528 0.42669 0.0
H2001 H 0.91366 0.24666 0.44516 0.0
H2002 H 0.91778 0.26524 0.39721 0.0
H2003 H 0.93761 0.26261 0.34908 0.0
H2004 H 0.00137 0.20218 0.33126 0.0
H2005 H 0.99809 0.18437 0.37961 0.0
C2006 C 0.96399 0.20307 0.42044 0.0
C2007 C 0.94481 0.21459 0.43966 0.0
C2008 C 0.96618 0.21341 0.39265 0.0
C2009 C 0.92877 0.2375 0.43098 0.0
C2010 C 0.9309 0.24796 0.40342 0.0
C2011 C 0.95055 0.24535 0.35574 0.0
C2012 C 0.96935 0.23338 0.33645 0.0
C2013 C 0.94911 0.23573 0.38388 0.0
C2014 C 0.98652 0.21153 0.3456 0.0
C2015 C 0.98476 0.20145 0.3733 0.0
H2016 H 0.98164 0.17482 0.67844 0.0
H2017 H 0.97039 0.0857 0.67755 0.0
H2018 H 0.95704 0.08768 0.6276 0.0
H2019 H 0.94984 0.1148 0.58354 0.0
H2020 H 0.96184 0.20384 0.58499 0.0
H2021 H 0.97437 0.20171 0.63497 0.0
C2022 C 0.97566 0.15585 0.66755 0.0
C2023 C 0.97656 0.13017 0.68201 0.0
C2024 C 0.96887 0.15707 0.6386 0.0
C2025 C 0.96946 0.10579 0.66717 0.0
C2026 C 0.96214 0.10689 0.63847 0.0
C2027 C 0.95556 0.13367 0.59473 0.0
C2028 C 0.95514 0.15945 0.58038 0.0
C2029 C 0.96218 0.13237 0.62381 0.0
C2030 C 0.96214 0.18374 0.59539 0.0
C2031 C 0.96911 0.18256 0.62407 0.0
H2032 H 0.41878 0.27697 0.56394 0.0
H2033 H 0.50388 0.30255 0.54831 0.0
H2034 H 0.5169 0.2888 0.59647 0.0
H2035 H 0.5034 0.27162 0.64382 0.0
H2036 H 0.41738 0.24916 0.65996 0.0
H2037 H 0.40528 0.2601 0.61106 0.0
C2038 C 0.44034 0.27883 0.57084 0.0
C2039 C 0.46054 0.29007 0.55235 0.0
C2040 C 0.44731 0.27211 0.59892 0.0
C2041 C 0.48813 0.29342 0.56197 0.0
C2042 C 0.49547 0.28584 0.58959 0.0
C2043 C 0.48197 0.26926 0.63669 0.0
C2044 C 0.4613 0.25969 0.65567 0.0
C2045 C 0.47513 0.27563 0.60843 0.0
C2046 C 0.43368 0.25666 0.64596 0.0
C2047 C 0.42676 0.26273 0.6179 0.0
H2048 H 0.53457 0.79178 0.68978 0.0
H2049 H 0.4471 0.78866 0.71167 0.0
H2050 H 0.43486 0.80611 0.66466 0.0
H2051 H 0.44867 0.8157 0.61553 0.0
H2052 H 0.5358 0.81354 0.59244 0.0
H2053 H 0.54862 0.80516 0.64178 0.0
C2054 C 0.51285 0.79554 0.68452 0.0
C2055 C 0.49174 0.78888 0.7042 0.0
C2056 C 0.50594 0.80439 0.65708 0.0
C2057 C 0.46371 0.79359 0.6969 0.0
C2058 C 0.45671 0.80344 0.66998 0.0
C2059 C 0.47052 0.81412 0.62142 0.0
C2060 C 0.4913 0.81528 0.60037 0.0
C2061 C 0.47759 0.80799 0.6496 0.0
C2062 C 0.51947 0.81276 0.60826 0.0
C2063 C 0.52677 0.80781 0.63644 0.0
H2064 H 0.55116 0.5931 0.34186 0.0
H2065 H 0.51748 0.51685 0.37639 0.0
H2066 H 0.56488 0.50075 0.38704 0.0
H2067 H 0.61599 0.50835 0.38619 0.0
H2068 H 0.64924 0.5857 0.35358 0.0
H2069 H 0.60193 0.60163 0.34313 0.0
C2070 C 0.55422 0.57281 0.35143 0.0
C2071 C 0.53086 0.55595 0.35786 0.0
C2072 C 0.58145 0.56412 0.35829 0.0
C2073 C 0.53513 0.53005 0.37094 0.0
C2074 C 0.56222 0.52094 0.37717 0.0
C2075 C 0.61288 0.52886 0.37716 0.0
C2076 C 0.63622 0.54584 0.37077 0.0
C2077 C 0.58554 0.53785 0.37105 0.0
C2078 C 0.63173 0.57229 0.35894 0.0
C2079 C 0.60466 0.58132 0.35272 0.0
H2080 H 0.57503 0.97351 0.66362 0.0
H2081 H 0.54886 0.89145 0.69011 0.0
H2082 H 0.59548 0.88277 0.70946 0.0
H2083 H 0.64113 0.90122 0.72506 0.0
H2084 H 0.66509 0.98517 0.70282 0.0
H2085 H 0.62202 0.99042 0.67556 0.0
C2086 C 0.57977 0.9534 0.67285 0.0
C2087 C 0.55854 0.9331 0.67537 0.0
C2088 C 0.60611 0.94916 0.68524 0.0
C2089 C 0.56488 0.90735 0.68783 0.0
C2090 C 0.59146 0.90249 0.69913 0.0
C2091 C 0.63714 0.92047 0.7138 0.0
C2092 C 0.65619 0.94285 0.7161 0.0
C2093 C 0.61187 0.92366 0.69896 0.0
C2094 C 0.65067 0.96772 0.70155 0.0
C2095 C 0.62604 0.97073 0.68596 0.0
H2096 H 0.13139 0.59373 0.2746 0.0
H2097 H 0.15923 0.51513 0.30814 0.0
H2098 H 0.11499 0.50949 0.33354 0.0
H2099 H 0.06643 0.52422 0.34156 0.0
H2100 H 0.03701 0.60025 0.30368 0.0
H2101 H 0.08384 0.60991 0.28508 0.0
C2102 C 0.12798 0.57561 0.28789 0.0
C2103 C 0.14858 0.55485 0.28947 0.0
C2104 C 0.10209 0.57204 0.30159 0.0
C2105 C 0.14369 0.53135 0.30652 0.0
C2106 C 0.11837 0.52811 0.32101 0.0
C2107 C 0.0705 0.54329 0.3299 0.0
C2108 C 0.04838 0.56165 0.32419 0.0
C2109 C 0.09714 0.54796 0.3181 0.0
C2110 C 0.05376 0.58592 0.30848 0.0
C2111 C 0.08048 0.59133 0.29769 0.0
H2112 H 0.12266 0.98269 0.62949 0.0
H2113 H 0.15432 0.90614 0.66455 0.0
H2114 H 0.10655 0.88992 0.67336 0.0
H2115 H 0.05583 0.89794 0.67221 0.0
H2116 H 0.02399 0.9738 0.63593 0.0
H2117 H 0.07182 0.99009 0.62698 0.0
C2118 C 0.11912 0.96228 0.6387 0.0
C2119 C 0.1421 0.94559 0.64621 0.0
C2120 C 0.09158 0.95322 0.64399 0.0
C2121 C 0.13708 0.91931 0.65834 0.0
C2122 C 0.10974 0.91013 0.66361 0.0
C2123 C 0.05936 0.91819 0.66264 0.0
C2124 C 0.03638 0.93484 0.65512 0.0
C2125 C 0.08686 0.92705 0.65687 0.0
C2126 C 0.04131 0.96073 0.64216 0.0
C2127 C 0.06864 0.96996 0.63689 0.0
H2128 H 0.04144 0.18681 0.10636 0.0
H2129 H 0.95669 0.20307 0.08038 0.0
H2130 H 0.94424 0.21481 0.12905 0.0
H2131 H 0.95876 0.22563 0.17764 0.0
H2132 H 0.04468 0.21425 0.20246 0.0
H2133 H 0.05536 0.19519 0.15577 0.0
C2134 C 0.02008 0.19228 0.11149 0.0
C2135 C 0.99993 0.19388 0.08981 0.0
C2136 C 0.01341 0.20019 0.1393 0.0
C2137 C 0.97251 0.20157 0.09669 0.0
C2138 C 0.96544 0.20841 0.1245 0.0
C2139 C 0.97971 0.21843 0.17304 0.0
C2140 C 0.0009 0.22126 0.19357 0.0
C2141 C 0.9859 0.20855 0.14581 0.0
C2142 C 0.02801 0.21226 0.18708 0.0
C2143 C 0.03413 0.20145 0.16034 0.0
H2144 H 0.04186 0.70538 0.30882 0.0
H2145 H 0.95566 0.70192 0.28223 0.0
H2146 H 0.94175 0.68646 0.32956 0.0
H2147 H 0.95349 0.67983 0.38 0.0
H2148 H 0.03925 0.68805 0.40702 0.0
H2149 H 0.05397 0.69544 0.35812 0.0
C2150 C 0.02008 0.70065 0.31314 0.0
C2151 C 0.99982 0.7048 0.29193 0.0
C2152 C 0.01214 0.69289 0.34069 0.0
C2153 C 0.97168 0.69886 0.2981 0.0
C2154 C 0.96371 0.69017 0.32524 0.0
C2155 C 0.97548 0.6826 0.37507 0.0
C2156 C 0.99529 0.68333 0.39713 0.0
C2157 C 0.98365 0.68796 0.34694 0.0
C2158 C 0.02362 0.68739 0.39046 0.0
C2159 C 0.03203 0.69172 0.36249 0.0
loop_
_geom_bond_atom_site_label_1
_geom_bond_atom_site_label_2
_geom_bond_distance
_geom_bond_site_symmetry_2
_ccdc_geom_bond_type
In0 O1 2.294 . S
In0 O2 2.326 . S
In0 O6 2.266 . S
In0 O7 2.326 . S
In0 O8 2.266 . S
In0 O9 2.326 . S
In0 O11 2.294 . S
In0 O12 2.326 . S
O1 In0 2.294 . S
O1 C10 1.240 . S
O2 In0 2.326 . S
O2 C10 1.252 . S
C3 O6 1.252 . S
C3 O7 1.260 . S
C4 O11 1.240 . S
C4 O12 1.252 . S
C5 O8 1.252 . S
C5 O9 1.260 . S
O6 In0 2.266 . S
O6 C3 1.252 . S
O7 In0 2.326 . S
O7 C3 1.260 . S
O8 In0 2.266 . S
O8 C5 1.252 . S
O9 In0 2.326 . S
O9 C5 1.260 . S
C10 O1 1.240 . S
C10 O2 1.252 . S
O11 In0 2.294 . S
O11 C4 1.240 . S
O12 In0 2.326 . S
O12 C4 1.252 . S
In13 O14 2.294 . S
In13 O15 2.326 . S
In13 O19 2.266 . S
In13 O20 2.326 . S
In13 O21 2.266 . S
In13 O22 2.326 . S
In13 O24 2.294 . S
In13 O25 2.326 . S
O14 In13 2.294 . S
O14 C23 1.240 . S
O15 In13 2.326 . S
O15 C23 1.252 . S
C16 O19 1.252 . S
C16 O20 1.260 . S
C17 O24 1.240 . S
C17 O25 1.252 . S
C18 O21 1.252 . S
C18 O22 1.260 . S
O19 In13 2.266 . S
O19 C16 1.252 . S
O20 In13 2.326 . S
O20 C16 1.260 . S
O21 In13 2.266 . S
O21 C18 1.252 . S
O22 In13 2.326 . S
O22 C18 1.260 . S
C23 O14 1.240 . S
C23 O15 1.252 . S
O24 In13 2.294 . S
O24 C17 1.240 . S
O25 In13 2.326 . S
O25 C17 1.252 . S
In26 O27 2.294 . S
In26 O28 2.326 . S
In26 O32 2.266 . S
In26 O33 2.326 . S
In26 O34 2.266 . S
In26 O35 2.326 . S
In26 O37 2.294 . S
In26 O38 2.326 . S
O27 In26 2.294 . S
O27 C36 1.240 . S
O28 In26 2.326 . S
O28 C36 1.252 . S
C29 O32 1.252 . S
C29 O33 1.260 . S
C30 O37 1.240 . S
C30 O38 1.252 . S
C31 O34 1.252 . S
C31 O35 1.260 . S
O32 In26 2.266 . S
O32 C29 1.252 . S
O33 In26 2.326 . S
O33 C29 1.260 . S
O34 In26 2.266 . S
O34 C31 1.252 . S
O35 In26 2.326 . S
O35 C31 1.260 . S
C36 O27 1.240 . S
C36 O28 1.252 . S
O37 In26 2.294 . S
O37 C30 1.240 . S
O38 In26 2.326 . S
O38 C30 1.252 . S
In39 O40 2.294 . S
In39 O41 2.326 . S
In39 O45 2.266 . S
In39 O46 2.326 . S
In39 O47 2.266 . S
In39 O48 2.326 . S
In39 O50 2.294 . S
In39 O51 2.326 . S
O40 In39 2.294 . S
O40 C49 1.240 . S
O41 In39 2.326 . S
O41 C49 1.252 . S
C42 O45 1.252 . S
C42 O46 1.260 . S
C43 O50 1.240 . S
C43 O51 1.252 . S
C44 O47 1.252 . S
C44 O48 1.260 . S
O45 In39 2.266 . S
O45 C42 1.252 . S
O46 In39 2.326 . S
O46 C42 1.260 . S
O47 In39 2.266 . S
O47 C44 1.252 . S
O48 In39 2.326 . S
O48 C44 1.260 . S
C49 O40 1.240 . S
C49 O41 1.252 . S
O50 In39 2.294 . S
O50 C43 1.240 . S
O51 In39 2.326 . S
O51 C43 1.252 . S
In52 O53 2.294 . S
In52 O54 2.326 . S
In52 O58 2.266 . S
In52 O59 2.326 . S
In52 O60 2.266 . S
In52 O61 2.326 . S
In52 O63 2.294 . S
In52 O64 2.326 . S
O53 In52 2.294 . S
O53 C62 1.240 . S
O54 In52 2.326 . S
O54 C62 1.252 . S
C55 O58 1.252 . S
C55 O59 1.260 . S
C56 O63 1.240 . S
C56 O64 1.252 . S
C57 O60 1.252 . S
C57 O61 1.260 . S
O58 In52 2.266 . S
O58 C55 1.252 . S
O59 In52 2.326 . S
O59 C55 1.260 . S
O60 In52 2.266 . S
O60 C57 1.252 . S
O61 In52 2.326 . S
O61 C57 1.260 . S
C62 O53 1.240 . S
C62 O54 1.252 . S
O63 In52 2.294 . S
O63 C56 1.240 . S
O64 In52 2.326 . S
O64 C56 1.252 . S
In65 O66 2.294 . S
In65 O67 2.326 . S
In65 O71 2.266 . S
In65 O72 2.326 . S
In65 O73 2.266 . S
In65 O74 2.326 . S
In65 O76 2.294 . S
In65 O77 2.326 . S
O66 In65 2.294 . S
O66 C75 1.240 . S
O67 In65 2.326 . S
O67 C75 1.252 . S
C68 O71 1.252 . S
C68 O72 1.260 . S
C69 O76 1.240 . S
C69 O77 1.252 . S
C70 O73 1.252 . S
C70 O74 1.260 . S
O71 In65 2.266 . S
O71 C68 1.252 . S
O72 In65 2.326 . S
O72 C68 1.260 . S
O73 In65 2.266 . S
O73 C70 1.252 . S
O74 In65 2.326 . S
O74 C70 1.260 . S
C75 O66 1.240 . S
C75 O67 1.252 . S
O76 In65 2.294 . S
O76 C69 1.240 . S
O77 In65 2.326 . S
O77 C69 1.252 . S
In78 O79 2.294 . S
In78 O80 2.326 . S
In78 O84 2.266 . S
In78 O85 2.326 . S
In78 O86 2.266 1_545 S
In78 O87 2.326 . S
In78 O89 2.294 1_545 S
In78 O90 2.326 . S
O79 In78 2.294 . S
O79 C88 1.240 . S
O80 In78 2.326 . S
O80 C88 1.252 . S
C81 O84 1.252 . S
C81 O85 1.260 . S
C82 O89 1.240 1_545 S
C82 O90 1.252 . S
C83 O86 1.252 1_545 S
C83 O87 1.260 . S
O84 In78 2.266 . S
O84 C81 1.252 . S
O85 In78 2.326 . S
O85 C81 1.260 . S
O86 In78 2.266 1_565 S
O86 C83 1.252 1_565 S
O87 In78 2.326 . S
O87 C83 1.260 . S
C88 O79 1.240 . S
C88 O80 1.252 . S
O89 In78 2.294 1_565 S
O89 C82 1.240 1_565 S
O90 In78 2.326 . S
O90 C82 1.252 . S
In91 O92 2.294 . S
In91 O93 2.326 . S
In91 O97 2.266 . S
In91 O98 2.326 . S
In91 O99 2.266 . S
In91 O100 2.326 . S
In91 O102 2.294 . S
In91 O103 2.326 . S
O92 In91 2.294 . S
O92 C101 1.240 . S
O93 In91 2.326 . S
O93 C101 1.252 . S
C94 O97 1.252 . S
C94 O98 1.260 . S
C95 O102 1.240 . S
C95 O103 1.252 . S
C96 O99 1.252 . S
C96 O100 1.260 . S
O97 In91 2.266 . S
O97 C94 1.252 . S
O98 In91 2.326 . S
O98 C94 1.260 . S
O99 In91 2.266 . S
O99 C96 1.252 . S
O100 In91 2.326 . S
O100 C96 1.260 . S
C101 O92 1.240 . S
C101 O93 1.252 . S
O102 In91 2.294 . S
O102 C95 1.240 . S
O103 In91 2.326 . S
O103 C95 1.252 . S
In104 O105 2.294 . S
In104 O106 2.326 . S
In104 O110 2.266 . S
In104 O111 2.326 . S
In104 O112 2.266 . S
In104 O113 2.326 . S
In104 O115 2.294 . S
In104 O116 2.326 . S
O105 In104 2.294 . S
O105 C114 1.240 . S
O106 In104 2.326 . S
O106 C114 1.252 . S
C107 O110 1.252 . S
C107 O111 1.260 . S
C108 O115 1.240 . S
C108 O116 1.252 . S
C109 O112 1.252 . S
C109 O113 1.260 . S
O110 In104 2.266 . S
O110 C107 1.252 . S
O111 In104 2.326 . S
O111 C107 1.260 . S
O112 In104 2.266 . S
O112 C109 1.252 . S
O113 In104 2.326 . S
O113 C109 1.260 . S
C114 O105 1.240 . S
C114 O106 1.252 . S
O115 In104 2.294 . S
O115 C108 1.240 . S
O116 In104 2.326 . S
O116 C108 1.252 . S
In117 O118 2.294 . S
In117 O119 2.326 . S
In117 O123 2.266 . S
In117 O124 2.326 . S
In117 O125 2.266 . S
In117 O126 2.326 . S
In117 O128 2.294 . S
In117 O129 2.326 . S
O118 In117 2.294 . S
O118 C127 1.240 . S
O119 In117 2.326 . S
O119 C127 1.252 . S
C120 O123 1.252 . S
C120 O124 1.260 . S
C121 O128 1.240 . S
C121 O129 1.252 . S
C122 O125 1.252 . S
C122 O126 1.260 . S
O123 In117 2.266 . S
O123 C120 1.252 . S
O124 In117 2.326 . S
O124 C120 1.260 . S
O125 In117 2.266 . S
O125 C122 1.252 . S
O126 In117 2.326 . S
O126 C122 1.260 . S
C127 O118 1.240 . S
C127 O119 1.252 . S
O128 In117 2.294 . S
O128 C121 1.240 . S
O129 In117 2.326 . S
O129 C121 1.252 . S
In130 O131 2.294 . S
In130 O132 2.326 . S
In130 O136 2.266 . S
In130 O137 2.326 . S
In130 O138 2.266 . S
In130 O139 2.326 . S
In130 O141 2.294 . S
In130 O142 2.326 . S
O131 In130 2.294 . S
O131 C140 1.240 . S
O132 In130 2.326 . S
O132 C140 1.252 . S
C133 O136 1.252 1_554 S
C133 O137 1.260 1_554 S
C134 O141 1.240 . S
C134 O142 1.252 . S
C135 O138 1.252 . S
C135 O139 1.260 . S
O136 In130 2.266 . S
O136 C133 1.252 1_556 S
O137 In130 2.326 . S
O137 C133 1.260 1_556 S
O138 In130 2.266 . S
O138 C135 1.252 . S
O139 In130 2.326 . S
O139 C135 1.260 . S
C140 O131 1.240 . S
C140 O132 1.252 . S
O141 In130 2.294 . S
O141 C134 1.240 . S
O142 In130 2.326 . S
O142 C134 1.252 . S
In143 O144 2.294 . S
In143 O145 2.326 . S
In143 O149 2.266 . S
In143 O150 2.326 . S
In143 O151 2.266 . S
In143 O152 2.326 . S
In143 O154 2.294 . S
In143 O155 2.326 . S
O144 In143 2.294 . S
O144 C153 1.240 . S
O145 In143 2.326 . S
O145 C153 1.252 . S
C146 O149 1.252 . S
C146 O150 1.260 . S
C147 O154 1.240 . S
C147 O155 1.252 . S
C148 O151 1.252 . S
C148 O152 1.260 . S
O149 In143 2.266 . S
O149 C146 1.252 . S
O150 In143 2.326 . S
O150 C146 1.260 . S
O151 In143 2.266 . S
O151 C148 1.252 . S
O152 In143 2.326 . S
O152 C148 1.260 . S
C153 O144 1.240 . S
C153 O145 1.252 . S
O154 In143 2.294 . S
O154 C147 1.240 . S
O155 In143 2.326 . S
O155 C147 1.252 . S
In156 O157 2.294 . S
In156 O158 2.326 . S
In156 O162 2.266 . S
In156 O163 2.326 . S
In156 O164 2.266 . S
In156 O165 2.326 . S
In156 O167 2.294 . S
In156 O168 2.326 . S
O157 In156 2.294 . S
O157 C166 1.240 . S
O158 In156 2.326 . S
O158 C166 1.252 . S
C159 O162 1.252 . S
C159 O163 1.260 . S
C160 O167 1.240 1_556 S
C160 O168 1.252 1_556 S
C161 O164 1.252 . S
C161 O165 1.260 . S
O162 In156 2.266 . S
O162 C159 1.252 . S
O163 In156 2.326 . S
O163 C159 1.260 . S
O164 In156 2.266 . S
O164 C161 1.252 . S
O165 In156 2.326 . S
O165 C161 1.260 . S
C166 O157 1.240 . S
C166 O158 1.252 . S
O167 In156 2.294 . S
O167 C160 1.240 1_554 S
O168 In156 2.326 . S
O168 C160 1.252 1_554 S
In169 O170 2.293 1_455 S
In169 O171 2.326 1_455 S
In169 O175 2.266 1_455 S
In169 O176 2.326 . S
In169 O177 2.267 . S
In169 O178 2.325 1_455 S
In169 O180 2.295 . S
In169 O181 2.326 . S
O170 In169 2.293 1_655 S
O170 C179 1.240 . S
O171 In169 2.326 1_655 S
O171 C179 1.262 . S
C172 O175 1.252 . S
C172 O176 1.260 1_655 S
C173 O180 1.240 . S
C173 O181 1.252 . S
C174 O177 1.252 . S
C174 O178 1.260 1_455 S
O175 In169 2.266 1_655 S
O175 C172 1.252 . S
O176 In169 2.326 . S
O176 C172 1.260 1_455 S
O177 In169 2.267 . S
O177 C174 1.252 . S
O178 In169 2.325 1_655 S
O178 C174 1.260 1_655 S
C179 O170 1.240 . S
C179 O171 1.262 . S
O180 In169 2.295 . S
O180 C173 1.240 . S
O181 In169 2.326 . S
O181 C173 1.252 . S
In182 O183 2.294 . S
In182 O184 2.326 . S
In182 O188 2.266 . S
In182 O189 2.326 . S
In182 O190 2.266 . S
In182 O191 2.326 . S
In182 O193 2.294 . S
In182 O194 2.326 . S
O183 In182 2.294 . S
O183 C192 1.240 . S
O184 In182 2.326 . S
O184 C192 1.252 . S
C185 O188 1.252 . S
C185 O189 1.260 . S
C186 O193 1.240 . S
C186 O194 1.252 . S
C187 O190 1.252 . S
C187 O191 1.260 . S
O188 In182 2.266 . S
O188 C185 1.252 . S
O189 In182 2.326 . S
O189 C185 1.260 . S
O190 In182 2.266 . S
O190 C187 1.252 . S
O191 In182 2.326 . S
O191 C187 1.260 . S
C192 O183 1.240 . S
C192 O184 1.252 . S
O193 In182 2.294 . S
O193 C186 1.240 . S
O194 In182 2.326 . S
O194 C186 1.252 . S
In195 O196 2.294 . S
In195 O197 2.326 . S
In195 O201 2.266 1_655 S
In195 O202 2.326 1_655 S
In195 O203 2.266 . S
In195 O204 2.326 . S
In195 O206 2.294 . S
In195 O207 2.326 1_655 S
O196 In195 2.294 . S
O196 C205 1.244 . S
O197 In195 2.326 . S
O197 C205 1.252 . S
C198 O201 1.252 . S
C198 O202 1.260 . S
C199 O206 1.240 1_455 S
C199 O207 1.252 . S
C200 O203 1.252 . S
C200 O204 1.260 . S
O201 In195 2.266 1_455 S
O201 C198 1.252 . S
O202 In195 2.326 1_455 S
O202 C198 1.260 . S
O203 In195 2.266 . S
O203 C200 1.252 . S
O204 In195 2.326 . S
O204 C200 1.260 . S
C205 O196 1.244 . S
C205 O197 1.252 . S
O206 In195 2.294 . S
O206 C199 1.240 1_655 S
O207 In195 2.326 1_455 S
O207 C199 1.252 . S
In208 O209 2.294 . S
In208 O210 2.326 . S
In208 O214 2.266 . S
In208 O215 2.326 . S
In208 O216 2.266 . S
In208 O217 2.326 . S
In208 O219 2.294 . S
In208 O220 2.326 . S
O209 In208 2.294 . S
O209 C218 1.240 . S
O210 In208 2.326 . S
O210 C218 1.252 . S
C211 O214 1.261 . S
C211 O215 1.266 . S
C212 O219 1.240 . S
C212 O220 1.252 . S
C213 O216 1.252 . S
C213 O217 1.260 . S
O214 In208 2.266 . S
O214 C211 1.261 . S
O215 In208 2.326 . S
O215 C211 1.266 . S
O216 In208 2.266 . S
O216 C213 1.252 . S
O217 In208 2.326 . S
O217 C213 1.260 . S
C218 O209 1.240 . S
C218 O210 1.252 . S
O219 In208 2.294 . S
O219 C212 1.240 . S
O220 In208 2.326 . S
O220 C212 1.252 . S
In221 O222 2.294 . S
In221 O223 2.326 . S
In221 O227 2.266 . S
In221 O228 2.326 . S
In221 O229 2.266 . S
In221 O230 2.326 . S
In221 O232 2.294 . S
In221 O233 2.326 . S
O222 In221 2.294 . S
O222 C231 1.240 . S
O223 In221 2.326 . S
O223 C231 1.252 . S
C224 O227 1.252 . S
C224 O228 1.260 . S
C225 O232 1.240 . S
C225 O233 1.252 . S
C226 O229 1.252 . S
C226 O230 1.260 . S
O227 In221 2.266 . S
O227 C224 1.252 . S
O228 In221 2.326 . S
O228 C224 1.260 . S
O229 In221 2.266 . S
O229 C226 1.252 . S
O230 In221 2.326 . S
O230 C226 1.260 . S
C231 O222 1.240 . S
C231 O223 1.252 . S
O232 In221 2.294 . S
O232 C225 1.240 . S
O233 In221 2.326 . S
O233 C225 1.252 . S
In234 O235 2.294 . S
In234 O236 2.326 . S
In234 O240 2.266 . S
In234 O241 2.326 . S
In234 O242 2.266 . S
In234 O243 2.326 . S
In234 O245 2.294 . S
In234 O246 2.326 . S
O235 In234 2.294 . S
O235 C244 1.240 . S
O236 In234 2.326 . S
O236 C244 1.252 . S
C237 O240 1.252 . S
C237 O241 1.260 . S
C238 O245 1.240 . S
C238 O246 1.252 . S
C239 O242 1.252 . S
C239 O243 1.260 . S
O240 In234 2.266 . S
O240 C237 1.252 . S
O241 In234 2.326 . S
O241 C237 1.260 . S
O242 In234 2.266 . S
O242 C239 1.252 . S
O243 In234 2.326 . S
O243 C239 1.260 . S
C244 O235 1.240 . S
C244 O236 1.252 . S
O245 In234 2.294 . S
O245 C238 1.240 . S
O246 In234 2.326 . S
O246 C238 1.252 . S
In247 O248 2.294 . S
In247 O249 2.326 . S
In247 O253 2.266 . S
In247 O254 2.326 . S
In247 O255 2.266 . S
In247 O256 2.326 . S
In247 O258 2.294 . S
In247 O259 2.326 . S
O248 In247 2.294 . S
O248 C257 1.240 . S
O249 In247 2.326 . S
O249 C257 1.252 . S
C250 O253 1.252 . S
C250 O254 1.260 . S
C251 O258 1.240 . S
C251 O259 1.252 . S
C252 O255 1.252 . S
C252 O256 1.260 . S
O253 In247 2.266 . S
O253 C250 1.252 . S
O254 In247 2.326 . S
O254 C250 1.260 . S
O255 In247 2.266 . S
O255 C252 1.252 . S
O256 In247 2.326 . S
O256 C252 1.260 . S
C257 O248 1.240 . S
C257 O249 1.252 . S
O258 In247 2.294 . S
O258 C251 1.240 . S
O259 In247 2.326 . S
O259 C251 1.252 . S
In260 O261 2.294 . S
In260 O262 2.327 . S
In260 O266 2.266 1_545 S
In260 O267 2.325 1_545 S
In260 O268 2.266 . S
In260 O269 2.326 . S
In260 O271 2.294 1_545 S
In260 O272 2.326 1_545 S
O261 In260 2.294 . S
O261 C270 1.240 . S
O262 In260 2.327 . S
O262 C270 1.252 . S
C263 O266 1.252 . S
C263 O267 1.260 . S
C264 O271 1.242 . S
C264 O272 1.252 . S
C265 O268 1.252 . S
C265 O269 1.260 . S
O266 In260 2.266 1_565 S
O266 C263 1.252 . S
O267 In260 2.325 1_565 S
O267 C263 1.260 . S
O268 In260 2.266 . S
O268 C265 1.252 . S
O269 In260 2.326 . S
O269 C265 1.260 . S
C270 O261 1.240 . S
C270 O262 1.252 . S
O271 In260 2.294 1_565 S
O271 C264 1.242 . S
O272 In260 2.326 1_565 S
O272 C264 1.252 . S
In273 O274 2.294 . S
In273 O275 2.327 1_556 S
In273 O279 2.265 . S
In273 O280 2.325 . S
In273 O281 2.267 1_556 S
In273 O282 2.326 1_556 S
In273 O284 2.295 1_556 S
In273 O285 2.326 . S
O274 In273 2.294 . S
O274 C283 1.240 1_556 S
O275 In273 2.327 1_554 S
O275 C283 1.252 . S
C276 O279 1.252 . S
C276 O280 1.260 . S
C277 O284 1.240 . S
C277 O285 1.252 1_554 S
C278 O281 1.252 . S
C278 O282 1.260 . S
O279 In273 2.265 . S
O279 C276 1.252 . S
O280 In273 2.325 . S
O280 C276 1.260 . S
O281 In273 2.267 1_554 S
O281 C278 1.252 . S
O282 In273 2.326 1_554 S
O282 C278 1.260 . S
C283 O274 1.240 1_554 S
C283 O275 1.252 . S
O284 In273 2.295 1_554 S
O284 C277 1.240 . S
O285 In273 2.326 . S
O285 C277 1.252 1_556 S
In286 O287 2.294 . S
In286 O288 2.326 . S
In286 O292 2.266 . S
In286 O293 2.326 . S
In286 O294 2.266 . S
In286 O295 2.326 . S
In286 O297 2.294 . S
In286 O298 2.326 . S
O287 In286 2.294 . S
O287 C296 1.240 . S
O288 In286 2.326 . S
O288 C296 1.252 . S
C289 O292 1.252 . S
C289 O293 1.260 . S
C290 O297 1.240 . S
C290 O298 1.252 . S
C291 O294 1.252 . S
C291 O295 1.260 . S
O292 In286 2.266 . S
O292 C289 1.252 . S
O293 In286 2.326 . S
O293 C289 1.260 . S
O294 In286 2.266 . S
O294 C291 1.252 . S
O295 In286 2.326 . S
O295 C291 1.260 . S
C296 O287 1.240 . S
C296 O288 1.252 . S
O297 In286 2.294 . S
O297 C290 1.240 . S
O298 In286 2.326 . S
O298 C290 1.252 . S
In299 O300 2.294 . S
In299 O301 2.326 . S
In299 O305 2.266 . S
In299 O306 2.326 . S
In299 O307 2.266 . S
In299 O308 2.326 . S
In299 O310 2.294 . S
In299 O311 2.326 . S
O300 In299 2.294 . S
O300 C309 1.240 . S
O301 In299 2.326 . S
O301 C309 1.252 . S
C302 O305 1.252 . S
C302 O306 1.260 . S
C303 O310 1.240 . S
C303 O311 1.252 . S
C304 O307 1.252 . S
C304 O308 1.260 . S
O305 In299 2.266 . S
O305 C302 1.252 . S
O306 In299 2.326 . S
O306 C302 1.260 . S
O307 In299 2.266 . S
O307 C304 1.252 . S
O308 In299 2.326 . S
O308 C304 1.260 . S
C309 O300 1.240 . S
C309 O301 1.252 . S
O310 In299 2.294 . S
O310 C303 1.240 . S
O311 In299 2.326 . S
O311 C303 1.252 . S
In312 O313 2.293 1_565 S
In312 O314 2.326 1_565 S
In312 O318 2.266 1_565 S
In312 O319 2.326 . S
In312 O320 2.266 1_565 S
In312 O321 2.325 1_565 S
In312 O323 2.295 . S
In312 O324 2.327 . S
O313 In312 2.293 1_545 S
O313 C322 1.240 . S
O314 In312 2.326 1_545 S
O314 C322 1.252 . S
C315 O318 1.252 1_565 S
C315 O319 1.260 . S
C316 O323 1.240 . S
C316 O324 1.252 . S
C317 O320 1.252 . S
C317 O321 1.260 . S
O318 In312 2.266 1_545 S
O318 C315 1.252 1_545 S
O319 In312 2.326 . S
O319 C315 1.260 . S
O320 In312 2.266 1_545 S
O320 C317 1.252 . S
O321 In312 2.325 1_545 S
O321 C317 1.260 . S
C322 O313 1.240 . S
C322 O314 1.252 . S
O323 In312 2.295 . S
O323 C316 1.240 . S
O324 In312 2.327 . S
O324 C316 1.252 . S
In325 O326 2.294 . S
In325 O327 2.326 . S
In325 O331 2.266 . S
In325 O332 2.326 . S
In325 O333 2.266 . S
In325 O334 2.326 . S
In325 O336 2.294 . S
In325 O337 2.326 . S
O326 In325 2.294 . S
O326 C335 1.240 . S
O327 In325 2.326 . S
O327 C335 1.252 . S
C328 O331 1.252 . S
C328 O332 1.260 . S
C329 O336 1.240 . S
C329 O337 1.252 . S
C330 O333 1.252 . S
C330 O334 1.260 . S
O331 In325 2.266 . S
O331 C328 1.252 . S
O332 In325 2.326 . S
O332 C328 1.260 . S
O333 In325 2.266 . S
O333 C330 1.252 . S
O334 In325 2.326 . S
O334 C330 1.260 . S
C335 O326 1.240 . S
C335 O327 1.252 . S
O336 In325 2.294 . S
O336 C329 1.240 . S
O337 In325 2.326 . S
O337 C329 1.252 . S
In338 O339 2.294 . S
In338 O340 2.326 . S
In338 O344 2.266 . S
In338 O345 2.326 . S
In338 O346 2.266 . S
In338 O347 2.326 . S
In338 O349 2.294 . S
In338 O350 2.326 . S
O339 In338 2.294 . S
O339 C348 1.240 . S
O340 In338 2.326 . S
O340 C348 1.252 . S
C341 O344 1.252 . S
C341 O345 1.260 . S
C342 O349 1.240 . S
C342 O350 1.252 . S
C343 O346 1.252 . S
C343 O347 1.260 . S
O344 In338 2.266 . S
O344 C341 1.252 . S
O345 In338 2.326 . S
O345 C341 1.260 . S
O346 In338 2.266 . S
O346 C343 1.252 . S
O347 In338 2.326 . S
O347 C343 1.260 . S
C348 O339 1.240 . S
C348 O340 1.252 . S
O349 In338 2.294 . S
O349 C342 1.240 . S
O350 In338 2.326 . S
O350 C342 1.252 . S
In351 O352 2.295 . S
In351 O353 2.327 . S
In351 O357 2.266 . S
In351 O358 2.324 1_554 S
In351 O359 2.265 1_554 S
In351 O360 2.326 . S
In351 O362 2.293 1_554 S
In351 O363 2.326 1_554 S
O352 In351 2.295 . S
O352 C361 1.240 . S
O353 In351 2.327 . S
O353 C361 1.252 . S
C354 O357 1.252 1_556 S
C354 O358 1.260 . S
C355 O362 1.240 . S
C355 O363 1.252 . S
C356 O359 1.252 . S
C356 O360 1.260 1_556 S
O357 In351 2.266 . S
O357 C354 1.252 1_554 S
O358 In351 2.324 1_556 S
O358 C354 1.260 . S
O359 In351 2.265 1_556 S
O359 C356 1.252 . S
O360 In351 2.326 . S
O360 C356 1.260 1_554 S
C361 O352 1.240 . S
C361 O353 1.252 . S
O362 In351 2.293 1_556 S
O362 C355 1.240 . S
O363 In351 2.326 1_556 S
O363 C355 1.252 . S
In364 O365 2.295 1_556 S
In364 O366 2.326 . S
In364 O370 2.267 1_556 S
In364 O371 2.325 . S
In364 O372 2.265 . S
In364 O373 2.325 . S
In364 O375 2.293 . S
In364 O376 2.327 1_556 S
O365 In364 2.295 1_554 S
O365 C374 1.240 . S
O366 In364 2.326 . S
O366 C374 1.252 1_556 S
C367 O370 1.252 . S
C367 O371 1.260 1_554 S
C368 O375 1.274 . S
C368 O376 1.217 1_556 S
C369 O372 1.252 . S
C369 O373 1.260 . S
O370 In364 2.267 1_554 S
O370 C367 1.252 . S
O371 In364 2.325 . S
O371 C367 1.260 1_556 S
O372 In364 2.265 . S
O372 C369 1.252 . S
O373 In364 2.325 . S
O373 C369 1.260 . S
C374 O365 1.240 . S
C374 O366 1.252 1_554 S
O375 In364 2.293 . S
O375 C368 1.274 . S
O376 In364 2.327 1_554 S
O376 C368 1.217 1_554 S
In377 O378 2.294 . S
In377 O379 2.326 1_565 S
In377 O383 2.266 . S
In377 O384 2.326 . S
In377 O385 2.266 1_565 S
In377 O386 2.325 1_565 S
In377 O388 2.294 . S
In377 O389 2.327 . S
O378 In377 2.294 . S
O378 C387 1.238 1_565 S
O379 In377 2.326 1_545 S
O379 C387 1.252 . S
C380 O383 1.252 . S
C380 O384 1.260 . S
C381 O388 1.240 . S
C381 O389 1.252 . S
C382 O385 1.252 . S
C382 O386 1.260 . S
O383 In377 2.266 . S
O383 C380 1.252 . S
O384 In377 2.326 . S
O384 C380 1.260 . S
O385 In377 2.266 1_545 S
O385 C382 1.252 . S
O386 In377 2.325 1_545 S
O386 C382 1.260 . S
C387 O378 1.238 1_545 S
C387 O379 1.252 . S
O388 In377 2.294 . S
O388 C381 1.240 . S
O389 In377 2.327 . S
O389 C381 1.252 . S
In390 O391 2.294 . S
In390 O392 2.326 . S
In390 O396 2.266 . S
In390 O397 2.326 . S
In390 O398 2.266 . S
In390 O399 2.326 . S
In390 O401 2.294 . S
In390 O402 2.326 . S
O391 In390 2.294 . S
O391 C400 1.240 . S
O392 In390 2.326 . S
O392 C400 1.252 . S
C393 O396 1.252 . S
C393 O397 1.260 . S
C394 O401 1.240 . S
C394 O402 1.252 . S
C395 O398 1.252 . S
C395 O399 1.260 . S
O396 In390 2.266 . S
O396 C393 1.252 . S
O397 In390 2.326 . S
O397 C393 1.260 . S
O398 In390 2.266 . S
O398 C395 1.252 . S
O399 In390 2.326 . S
O399 C395 1.260 . S
C400 O391 1.240 . S
C400 O392 1.252 . S
O401 In390 2.294 . S
O401 C394 1.240 . S
O402 In390 2.326 . S
O402 C394 1.252 . S
In403 O404 2.294 . S
In403 O405 2.326 . S
In403 O409 2.266 . S
In403 O410 2.326 . S
In403 O411 2.266 . S
In403 O412 2.326 . S
In403 O414 2.294 . S
In403 O415 2.326 . S
O404 In403 2.294 . S
O404 C413 1.240 . S
O405 In403 2.326 . S
O405 C413 1.252 . S
C406 O409 1.252 . S
C406 O410 1.260 . S
C407 O414 1.240 . S
C407 O415 1.252 . S
C408 O411 1.252 . S
C408 O412 1.260 . S
O409 In403 2.266 . S
O409 C406 1.252 . S
O410 In403 2.326 . S
O410 C406 1.260 . S
O411 In403 2.266 . S
O411 C408 1.252 . S
O412 In403 2.326 . S
O412 C408 1.260 . S
C413 O404 1.240 . S
C413 O405 1.252 . S
O414 In403 2.294 . S
O414 C407 1.240 . S
O415 In403 2.326 . S
O415 C407 1.252 . S
In416 O417 2.294 . S
In416 O418 2.326 . S
In416 O422 2.266 . S
In416 O423 2.326 . S
In416 O424 2.266 . S
In416 O425 2.326 . S
In416 O427 2.294 . S
In416 O428 2.326 . S
O417 In416 2.294 . S
O417 C426 1.240 . S
O418 In416 2.326 . S
O418 C426 1.252 . S
C419 O422 1.252 . S
C419 O423 1.260 . S
C420 O427 1.240 . S
C420 O428 1.252 . S
C421 O424 1.252 . S
C421 O425 1.260 . S
O422 In416 2.266 . S
O422 C419 1.252 . S
O423 In416 2.326 . S
O423 C419 1.260 . S
O424 In416 2.266 . S
O424 C421 1.252 . S
O425 In416 2.326 . S
O425 C421 1.260 . S
C426 O417 1.240 . S
C426 O418 1.252 . S
O427 In416 2.294 . S
O427 C420 1.240 . S
O428 In416 2.326 . S
O428 C420 1.252 . S
In429 O430 2.294 1_455 S
In429 O431 2.326 . S
In429 O435 2.266 . S
In429 O436 2.326 . S
In429 O437 2.266 . S
In429 O438 2.326 1_455 S
In429 O440 2.294 . S
In429 O441 2.326 . S
O430 In429 2.294 1_655 S
O430 C439 1.240 1_556 S
O431 In429 2.326 . S
O431 C439 1.252 1_456 S
C432 O435 1.252 . S
C432 O436 1.260 . S
C433 O440 1.240 . S
C433 O441 1.252 . S
C434 O437 1.252 1_655 S
C434 O438 1.260 . S
O435 In429 2.266 . S
O435 C432 1.252 . S
O436 In429 2.326 . S
O436 C432 1.260 . S
O437 In429 2.266 . S
O437 C434 1.252 1_455 S
O438 In429 2.326 1_655 S
O438 C434 1.260 . S
C439 O430 1.240 1_554 S
C439 O431 1.252 1_654 S
O440 In429 2.294 . S
O440 C433 1.240 . S
O441 In429 2.326 . S
O441 C433 1.252 . S
In442 O443 2.294 . S
In442 O444 2.326 . S
In442 O448 2.266 . S
In442 O449 2.326 . S
In442 O450 2.266 . S
In442 O451 2.326 . S
In442 O453 2.294 . S
In442 O454 2.326 . S
O443 In442 2.294 . S
O443 C452 1.240 . S
O444 In442 2.326 . S
O444 C452 1.252 . S
C445 O448 1.252 . S
C445 O449 1.260 . S
C446 O453 1.240 . S
C446 O454 1.252 . S
C447 O450 1.252 . S
C447 O451 1.260 . S
O448 In442 2.266 . S
O448 C445 1.252 . S
O449 In442 2.326 . S
O449 C445 1.260 . S
O450 In442 2.266 . S
O450 C447 1.252 . S
O451 In442 2.326 . S
O451 C447 1.260 . S
C452 O443 1.240 . S
C452 O444 1.252 . S
O453 In442 2.294 . S
O453 C446 1.240 . S
O454 In442 2.326 . S
O454 C446 1.252 . S
In455 O456 2.294 . S
In455 O457 2.326 . S
In455 O461 2.266 . S
In455 O462 2.326 1_455 S
In455 O463 2.266 . S
In455 O464 2.326 . S
In455 O466 2.294 1_455 S
In455 O467 2.326 1_455 S
O456 In455 2.294 . S
O456 C465 1.240 . S
O457 In455 2.326 . S
O457 C465 1.252 . S
C458 O461 1.252 1_655 S
C458 O462 1.260 . S
C459 O466 1.240 . S
C459 O467 1.252 . S
C460 O463 1.252 . S
C460 O464 1.260 . S
O461 In455 2.266 . S
O461 C458 1.252 1_455 S
O462 In455 2.326 1_655 S
O462 C458 1.260 . S
O463 In455 2.266 . S
O463 C460 1.252 . S
O464 In455 2.326 . S
O464 C460 1.260 . S
C465 O456 1.240 . S
C465 O457 1.252 . S
O466 In455 2.294 1_655 S
O466 C459 1.240 . S
O467 In455 2.326 1_655 S
O467 C459 1.252 . S
In468 O469 2.294 . S
In468 O470 2.326 . S
In468 O474 2.266 . S
In468 O475 2.326 . S
In468 O476 2.266 . S
In468 O477 2.326 . S
In468 O479 2.294 . S
In468 O480 2.326 . S
O469 In468 2.294 . S
O469 C478 1.240 . S
O470 In468 2.326 . S
O470 C478 1.252 . S
C471 O474 1.252 . S
C471 O475 1.260 . S
C472 O479 1.240 . S
C472 O480 1.252 . S
C473 O476 1.252 . S
C473 O477 1.260 . S
O474 In468 2.266 . S
O474 C471 1.252 . S
O475 In468 2.326 . S
O475 C471 1.260 . S
O476 In468 2.266 . S
O476 C473 1.252 . S
O477 In468 2.326 . S
O477 C473 1.260 . S
C478 O469 1.240 . S
C478 O470 1.252 . S
O479 In468 2.294 . S
O479 C472 1.240 . S
O480 In468 2.326 . S
O480 C472 1.252 . S
In481 O482 2.294 . S
In481 O483 2.326 . S
In481 O487 2.266 . S
In481 O488 2.326 . S
In481 O489 2.266 . S
In481 O490 2.326 . S
In481 O492 2.294 . S
In481 O493 2.326 . S
O482 In481 2.294 . S
O482 C491 1.223 1_556 S
O483 In481 2.326 . S
O483 C491 1.243 1_556 S
C484 O487 1.252 . S
C484 O488 1.260 . S
C485 O492 1.240 . S
C485 O493 1.252 . S
C486 O489 1.252 . S
C486 O490 1.260 . S
O487 In481 2.266 . S
O487 C484 1.252 . S
O488 In481 2.326 . S
O488 C484 1.260 . S
O489 In481 2.266 . S
O489 C486 1.252 . S
O490 In481 2.326 . S
O490 C486 1.260 . S
C491 O482 1.223 1_554 S
C491 O483 1.243 1_554 S
O492 In481 2.294 . S
O492 C485 1.240 . S
O493 In481 2.326 . S
O493 C485 1.252 . S
In494 O495 2.294 . S
In494 O496 2.326 . S
In494 O500 2.266 . S
In494 O501 2.326 . S
In494 O502 2.266 . S
In494 O503 2.326 . S
In494 O505 2.294 . S
In494 O506 2.326 . S
O495 In494 2.294 . S
O495 C504 1.240 . S
O496 In494 2.326 . S
O496 C504 1.252 . S
C497 O500 1.252 . S
C497 O501 1.260 . S
C498 O505 1.240 . S
C498 O506 1.252 . S
C499 O502 1.252 . S
C499 O503 1.260 . S
O500 In494 2.266 . S
O500 C497 1.252 . S
O501 In494 2.326 . S
O501 C497 1.260 . S
O502 In494 2.266 . S
O502 C499 1.252 . S
O503 In494 2.326 . S
O503 C499 1.260 . S
C504 O495 1.240 . S
C504 O496 1.252 . S
O505 In494 2.294 . S
O505 C498 1.240 . S
O506 In494 2.326 . S
O506 C498 1.252 . S
In507 O508 2.294 . S
In507 O509 2.326 . S
In507 O513 2.266 . S
In507 O514 2.326 . S
In507 O515 2.266 . S
In507 O516 2.326 . S
In507 O518 2.294 . S
In507 O519 2.326 . S
O508 In507 2.294 . S
O508 C517 1.240 . S
O509 In507 2.326 . S
O509 C517 1.252 . S
C510 O513 1.252 . S
C510 O514 1.260 . S
C511 O518 1.240 . S
C511 O519 1.252 . S
C512 O515 1.252 . S
C512 O516 1.260 . S
O513 In507 2.266 . S
O513 C510 1.252 . S
O514 In507 2.326 . S
O514 C510 1.260 . S
O515 In507 2.266 . S
O515 C512 1.252 . S
O516 In507 2.326 . S
O516 C512 1.260 . S
C517 O508 1.240 . S
C517 O509 1.252 . S
O518 In507 2.294 . S
O518 C511 1.240 . S
O519 In507 2.326 . S
O519 C511 1.252 . S
In520 O521 2.295 . S
In520 O522 2.327 . S
In520 O526 2.266 1_545 S
In520 O527 2.325 1_545 S
In520 O528 2.266 1_545 S
In520 O529 2.326 . S
In520 O531 2.293 1_545 S
In520 O532 2.326 1_545 S
O521 In520 2.295 . S
O521 C530 1.240 . S
O522 In520 2.327 . S
O522 C530 1.252 . S
C523 O526 1.252 . S
C523 O527 1.260 . S
C524 O531 1.240 . S
C524 O532 1.252 . S
C525 O528 1.252 1_545 S
C525 O529 1.260 . S
O526 In520 2.266 1_565 S
O526 C523 1.252 . S
O527 In520 2.325 1_565 S
O527 C523 1.260 . S
O528 In520 2.266 1_565 S
O528 C525 1.252 1_565 S
O529 In520 2.326 . S
O529 C525 1.260 . S
C530 O521 1.240 . S
C530 O522 1.252 . S
O531 In520 2.293 1_565 S
O531 C524 1.240 . S
O532 In520 2.326 1_565 S
O532 C524 1.252 . S
In533 O534 2.295 . S
In533 O535 2.327 . S
In533 O539 2.267 . S
In533 O540 2.325 1_554 S
In533 O541 2.265 1_554 S
In533 O542 2.326 . S
In533 O544 2.293 1_554 S
In533 O545 2.326 . S
O534 In533 2.295 . S
O534 C543 1.240 . S
O535 In533 2.327 . S
O535 C543 1.252 . S
C536 O539 1.252 . S
C536 O540 1.260 1_554 S
C537 O544 1.240 . S
C537 O545 1.252 1_556 S
C538 O541 1.252 . S
C538 O542 1.260 1_556 S
O539 In533 2.267 . S
O539 C536 1.252 . S
O540 In533 2.325 1_556 S
O540 C536 1.260 1_556 S
O541 In533 2.265 1_556 S
O541 C538 1.252 . S
O542 In533 2.326 . S
O542 C538 1.260 1_554 S
C543 O534 1.240 . S
C543 O535 1.252 . S
O544 In533 2.293 1_556 S
O544 C537 1.240 . S
O545 In533 2.326 . S
O545 C537 1.252 1_554 S
In546 O547 2.294 1_655 S
In546 O548 2.326 . S
In546 O552 2.267 1_655 S
In546 O553 2.325 1_655 S
In546 O554 2.266 . S
In546 O555 2.325 . S
In546 O557 2.294 . S
In546 O558 2.327 1_655 S
O547 In546 2.294 1_455 S
O547 C556 1.240 . S
O548 In546 2.326 . S
O548 C556 1.252 1_655 S
C549 O552 1.252 . S
C549 O553 1.272 . S
C550 O557 1.240 . S
C550 O558 1.252 1_655 S
C551 O554 1.252 . S
C551 O555 1.260 . S
O552 In546 2.267 1_455 S
O552 C549 1.252 . S
O553 In546 2.325 1_455 S
O553 C549 1.272 . S
O554 In546 2.266 . S
O554 C551 1.252 . S
O555 In546 2.325 . S
O555 C551 1.260 . S
C556 O547 1.240 . S
C556 O548 1.252 1_455 S
O557 In546 2.294 . S
O557 C550 1.240 . S
O558 In546 2.327 1_455 S
O558 C550 1.252 1_455 S
In559 O560 2.294 1_655 S
In559 O561 2.326 . S
In559 O565 2.266 1_655 S
In559 O566 2.326 . S
In559 O567 2.266 . S
In559 O568 2.326 . S
In559 O570 2.294 . S
In559 O571 2.326 1_655 S
O560 In559 2.294 1_455 S
O560 C569 1.240 1_455 S
O561 In559 2.326 . S
O561 C569 1.252 . S
C562 O565 1.252 . S
C562 O566 1.260 1_455 S
C563 O570 1.240 1_455 S
C563 O571 1.252 . S
C564 O567 1.252 . S
C564 O568 1.260 . S
O565 In559 2.266 1_455 S
O565 C562 1.252 . S
O566 In559 2.326 . S
O566 C562 1.260 1_655 S
O567 In559 2.266 . S
O567 C564 1.252 . S
O568 In559 2.326 . S
O568 C564 1.260 . S
C569 O560 1.240 1_655 S
C569 O561 1.252 . S
O570 In559 2.294 . S
O570 C563 1.240 1_655 S
O571 In559 2.326 1_455 S
O571 C563 1.252 . S
In572 O573 2.294 1_565 S
In572 O574 2.326 . S
In572 O578 2.266 1_565 S
In572 O579 2.326 . S
In572 O580 2.266 . S
In572 O581 2.326 . S
In572 O583 2.294 . S
In572 O584 2.326 . S
O573 In572 2.294 1_545 S
O573 C582 1.240 1_545 S
O574 In572 2.326 . S
O574 C582 1.252 . S
C575 O578 1.252 1_565 S
C575 O579 1.260 . S
C576 O583 1.240 . S
C576 O584 1.252 . S
C577 O580 1.252 . S
C577 O581 1.260 . S
O578 In572 2.266 1_545 S
O578 C575 1.252 1_545 S
O579 In572 2.326 . S
O579 C575 1.260 . S
O580 In572 2.266 . S
O580 C577 1.252 . S
O581 In572 2.326 . S
O581 C577 1.260 . S
C582 O573 1.240 1_565 S
C582 O574 1.252 . S
O583 In572 2.294 . S
O583 C576 1.240 . S
O584 In572 2.326 . S
O584 C576 1.252 . S
In585 O586 2.294 1_554 S
In585 O587 2.326 . S
In585 O591 2.266 . S
In585 O592 2.326 . S
In585 O593 2.266 . S
In585 O594 2.326 . S
In585 O596 2.294 . S
In585 O597 2.326 . S
O586 In585 2.294 1_556 S
O586 C595 1.240 . S
O587 In585 2.326 . S
O587 C595 1.252 1_554 S
C588 O591 1.252 . S
C588 O592 1.260 . S
C589 O596 1.240 . S
C589 O597 1.252 . S
C590 O593 1.252 . S
C590 O594 1.260 . S
O591 In585 2.266 . S
O591 C588 1.252 . S
O592 In585 2.326 . S
O592 C588 1.260 . S
O593 In585 2.266 . S
O593 C590 1.252 . S
O594 In585 2.326 . S
O594 C590 1.260 . S
C595 O586 1.240 . S
C595 O587 1.252 1_556 S
O596 In585 2.294 . S
O596 C589 1.240 . S
O597 In585 2.326 . S
O597 C589 1.252 . S
In598 O599 2.294 . S
In598 O600 2.326 . S
In598 O604 2.266 . S
In598 O605 2.326 . S
In598 O606 2.266 . S
In598 O607 2.326 . S
In598 O609 2.294 . S
In598 O610 2.326 . S
O599 In598 2.294 . S
O599 C608 1.240 . S
O600 In598 2.326 . S
O600 C608 1.252 . S
C601 O604 1.252 . S
C601 O605 1.260 . S
C602 O609 1.240 . S
C602 O610 1.252 . S
C603 O606 1.252 . S
C603 O607 1.260 . S
O604 In598 2.266 . S
O604 C601 1.252 . S
O605 In598 2.326 . S
O605 C601 1.260 . S
O606 In598 2.266 . S
O606 C603 1.252 . S
O607 In598 2.326 . S
O607 C603 1.260 . S
C608 O599 1.240 . S
C608 O600 1.252 . S
O609 In598 2.294 . S
O609 C602 1.240 . S
O610 In598 2.326 . S
O610 C602 1.252 . S
In611 O612 2.294 . S
In611 O613 2.326 . S
In611 O617 2.266 . S
In611 O618 2.326 . S
In611 O619 2.266 . S
In611 O620 2.326 . S
In611 O622 2.294 . S
In611 O623 2.326 . S
O612 In611 2.294 . S
O612 C621 1.240 . S
O613 In611 2.326 . S
O613 C621 1.252 . S
C614 O617 1.252 . S
C614 O618 1.260 . S
C615 O622 1.240 . S
C615 O623 1.252 . S
C616 O619 1.252 . S
C616 O620 1.260 . S
O617 In611 2.266 . S
O617 C614 1.252 . S
O618 In611 2.326 . S
O618 C614 1.260 . S
O619 In611 2.266 . S
O619 C616 1.252 . S
O620 In611 2.326 . S
O620 C616 1.260 . S
C621 O612 1.240 . S
C621 O613 1.252 . S
O622 In611 2.294 . S
O622 C615 1.240 . S
O623 In611 2.326 . S
O623 C615 1.252 . S
H624 C630 0.930 . S
H625 C633 0.930 . S
H626 C634 0.930 . S
H627 C635 0.930 . S
H628 C638 0.930 . S
H629 C639 0.930 . S
C630 H624 0.930 . S
C630 C631 1.355 . S
C630 C632 1.415 . S
C631 C630 1.355 . S
C631 C633 1.419 . S
C632 C630 1.415 . S
C632 C637 1.425 . S
C632 C639 1.409 . S
C633 H625 0.930 . S
C633 C631 1.419 . S
C633 C634 1.362 . S
C634 H626 0.930 . S
C634 C633 1.362 . S
C634 C637 1.409 . S
C635 H627 0.930 . S
C635 C636 1.355 . S
C635 C637 1.415 . S
C636 C635 1.355 . S
C636 C638 1.419 . S
C637 C632 1.425 . S
C637 C634 1.409 . S
C637 C635 1.415 . S
C638 H628 0.930 . S
C638 C636 1.419 . S
C638 C639 1.362 . S
C639 H629 0.930 . S
C639 C632 1.409 . S
C639 C638 1.362 . S
H640 C646 0.930 . S
H641 C649 0.930 . S
H642 C650 0.930 . S
H643 C651 0.930 . S
H644 C654 0.930 . S
H645 C655 0.930 . S
C646 H640 0.930 . S
C646 C647 1.355 . S
C646 C648 1.415 . S
C647 C646 1.355 . S
C647 C649 1.419 . S
C648 C646 1.415 . S
C648 C653 1.425 . S
C648 C655 1.409 . S
C649 H641 0.930 . S
C649 C647 1.419 . S
C649 C650 1.362 . S
C650 H642 0.930 . S
C650 C649 1.362 . S
C650 C653 1.409 . S
C651 H643 0.930 . S
C651 C652 1.355 . S
C651 C653 1.415 . S
C652 C651 1.355 . S
C652 C654 1.419 . S
C653 C648 1.425 . S
C653 C650 1.409 . S
C653 C651 1.415 . S
C654 H644 0.930 . S
C654 C652 1.419 . S
C654 C655 1.362 . S
C655 H645 0.930 . S
C655 C648 1.409 . S
C655 C654 1.362 . S
H656 C662 0.930 . S
H657 C665 0.930 . S
H658 C666 0.930 . S
H659 C667 0.930 . S
H660 C670 0.930 . S
H661 C671 0.930 . S
C662 H656 0.930 . S
C662 C663 1.355 . S
C662 C664 1.415 . S
C663 C662 1.355 . S
C663 C665 1.419 . S
C664 C662 1.415 . S
C664 C669 1.425 . S
C664 C671 1.409 . S
C665 H657 0.930 . S
C665 C663 1.419 . S
C665 C666 1.362 . S
C666 H658 0.930 . S
C666 C665 1.362 . S
C666 C669 1.409 . S
C667 H659 0.930 . S
C667 C668 1.355 . S
C667 C669 1.415 . S
C668 C667 1.355 . S
C668 C670 1.419 . S
C669 C664 1.425 . S
C669 C666 1.409 . S
C669 C667 1.415 . S
C670 H660 0.930 . S
C670 C668 1.419 . S
C670 C671 1.362 . S
C671 H661 0.930 . S
C671 C664 1.409 . S
C671 C670 1.362 . S
H672 C678 0.930 . S
H673 C681 0.930 . S
H674 C682 0.930 . S
H675 C683 0.930 . S
H676 C686 0.930 . S
H677 C687 0.930 . S
C678 H672 0.930 . S
C678 C679 1.355 . S
C678 C680 1.415 . S
C679 C678 1.355 . S
C679 C681 1.419 1_545 S
C680 C678 1.415 . S
C680 C685 1.425 . S
C680 C687 1.409 . S
C681 H673 0.930 . S
C681 C679 1.419 1_565 S
C681 C682 1.362 . S
C682 H674 0.930 . S
C682 C681 1.362 . S
C682 C685 1.409 1_565 S
C683 H675 0.930 . S
C683 C684 1.355 . S
C683 C685 1.415 . S
C684 C683 1.355 . S
C684 C686 1.419 . S
C685 C680 1.425 . S
C685 C682 1.409 1_545 S
C685 C683 1.415 . S
C686 H676 0.930 . S
C686 C684 1.419 . S
C686 C687 1.362 . S
C687 H677 0.930 . S
C687 C680 1.409 . S
C687 C686 1.362 . S
H688 C694 0.930 . S
H689 C697 0.930 . S
H690 C698 0.930 . S
H691 C699 0.930 . S
H692 C702 0.930 . S
H693 C703 0.930 . S
C694 H688 0.930 . S
C694 C695 1.355 . S
C694 C696 1.415 . S
C695 C694 1.355 . S
C695 C697 1.419 . S
C696 C694 1.415 . S
C696 C701 1.425 . S
C696 C703 1.409 . S
C697 H689 0.930 . S
C697 C695 1.419 . S
C697 C698 1.362 . S
C698 H690 0.930 . S
C698 C697 1.362 . S
C698 C701 1.409 . S
C699 H691 0.930 . S
C699 C700 1.355 . S
C699 C701 1.415 . S
C700 C699 1.355 . S
C700 C702 1.419 . S
C701 C696 1.425 . S
C701 C698 1.409 . S
C701 C699 1.415 . S
C702 H692 0.930 . S
C702 C700 1.419 . S
C702 C703 1.362 . S
C703 H693 0.930 . S
C703 C696 1.409 . S
C703 C702 1.362 . S
H704 C710 0.930 . S
H705 C713 0.930 . S
H706 C714 0.930 . S
H707 C715 0.930 . S
H708 C718 0.930 . S
H709 C719 0.930 . S
C710 H704 0.930 . S
C710 C711 1.355 . S
C710 C712 1.415 . S
C711 C710 1.355 . S
C711 C713 1.419 . S
C712 C710 1.415 . S
C712 C717 1.425 . S
C712 C719 1.409 . S
C713 H705 0.930 . S
C713 C711 1.419 . S
C713 C714 1.362 . S
C714 H706 0.930 . S
C714 C713 1.362 . S
C714 C717 1.409 . S
C715 H707 0.930 . S
C715 C716 1.355 . S
C715 C717 1.415 . S
C716 C715 1.355 . S
C716 C718 1.419 . S
C717 C712 1.425 . S
C717 C714 1.409 . S
C717 C715 1.415 . S
C718 H708 0.930 . S
C718 C716 1.419 . S
C718 C719 1.362 . S
C719 H709 0.930 . S
C719 C712 1.409 . S
C719 C718 1.362 . S
H720 C726 0.930 . S
H721 C729 0.930 . S
H722 C730 0.930 . S
H723 C731 0.930 . S
H724 C734 0.922 1_565 S
H725 C735 0.930 . S
C726 H720 0.930 . S
C726 C727 1.355 . S
C726 C728 1.415 . S
C727 C726 1.355 . S
C727 C729 1.419 . S
C728 C726 1.415 . S
C728 C733 1.425 . S
C728 C735 1.409 . S
C729 H721 0.930 . S
C729 C727 1.419 . S
C729 C730 1.362 . S
C730 H722 0.930 . S
C730 C729 1.362 . S
C730 C733 1.409 . S
C731 H723 0.930 . S
C731 C732 1.355 . S
C731 C733 1.415 . S
C732 C731 1.355 . S
C732 C734 1.423 . S
C733 C728 1.425 . S
C733 C730 1.409 . S
C733 C731 1.415 . S
C734 H724 0.922 1_545 S
C734 C732 1.423 . S
C734 C735 1.367 . S
C735 H725 0.930 . S
C735 C728 1.409 . S
C735 C734 1.367 . S
H736 C742 0.930 . S
H737 C745 0.930 . S
H738 C746 0.930 . S
H739 C747 0.930 . S
H740 C750 0.930 . S
H741 C751 0.930 . S
C742 H736 0.930 . S
C742 C743 1.355 . S
C742 C744 1.415 . S
C743 C742 1.355 . S
C743 C745 1.419 . S
C744 C742 1.415 . S
C744 C749 1.425 . S
C744 C751 1.409 . S
C745 H737 0.930 . S
C745 C743 1.419 . S
C745 C746 1.362 . S
C746 H738 0.930 . S
C746 C745 1.362 . S
C746 C749 1.409 . S
C747 H739 0.930 . S
C747 C748 1.355 . S
C747 C749 1.415 . S
C748 C747 1.355 . S
C748 C750 1.419 . S
C749 C744 1.425 . S
C749 C746 1.409 . S
C749 C747 1.415 . S
C750 H740 0.930 . S
C750 C748 1.419 . S
C750 C751 1.362 . S
C751 H741 0.930 . S
C751 C744 1.409 . S
C751 C750 1.362 . S
H752 C758 0.930 . S
H753 C761 0.930 . S
H754 C762 0.930 . S
H755 C763 0.930 . S
H756 C766 0.930 . S
H757 C767 0.930 . S
C758 H752 0.930 . S
C758 C759 1.355 . S
C758 C760 1.415 . S
C759 C758 1.355 . S
C759 C761 1.419 . S
C760 C758 1.415 . S
C760 C765 1.425 . S
C760 C767 1.409 . S
C761 H753 0.930 . S
C761 C759 1.419 . S
C761 C762 1.362 . S
C762 H754 0.930 . S
C762 C761 1.362 . S
C762 C765 1.409 . S
C763 H755 0.930 . S
C763 C764 1.355 . S
C763 C765 1.415 . S
C764 C763 1.355 . S
C764 C766 1.419 . S
C765 C760 1.425 . S
C765 C762 1.409 . S
C765 C763 1.415 . S
C766 H756 0.930 . S
C766 C764 1.419 . S
C766 C767 1.362 . S
C767 H757 0.930 . S
C767 C760 1.409 . S
C767 C766 1.362 . S
H768 C774 0.930 1_655 S
H769 C777 0.930 . S
H770 C778 0.930 . S
H771 C779 0.930 . S
H772 C782 0.930 . S
H773 C783 0.930 1_655 S
C774 H768 0.930 1_455 S
C774 C775 1.355 . S
C774 C776 1.415 . S
C775 C774 1.355 . S
C775 C777 1.419 . S
C776 C774 1.415 . S
C776 C781 1.425 . S
C776 C783 1.409 . S
C777 H769 0.930 . S
C777 C775 1.419 . S
C777 C778 1.362 . S
C778 H770 0.930 . S
C778 C777 1.362 . S
C778 C781 1.409 . S
C779 H771 0.930 . S
C779 C780 1.355 . S
C779 C781 1.415 . S
C780 C779 1.355 . S
C780 C782 1.419 . S
C781 C776 1.425 . S
C781 C778 1.409 . S
C781 C779 1.415 . S
C782 H772 0.930 . S
C782 C780 1.419 . S
C782 C783 1.362 . S
C783 H773 0.930 1_455 S
C783 C776 1.409 . S
C783 C782 1.362 . S
H784 C790 0.930 . S
H785 C793 0.930 . S
H786 C794 0.930 . S
H787 C795 0.930 . S
H788 C798 0.930 . S
H789 C799 0.930 . S
C790 H784 0.930 . S
C790 C791 1.355 . S
C790 C792 1.415 . S
C791 C790 1.355 . S
C791 C793 1.419 . S
C792 C790 1.415 . S
C792 C797 1.425 . S
C792 C799 1.409 . S
C793 H785 0.930 . S
C793 C791 1.419 . S
C793 C794 1.362 . S
C794 H786 0.930 . S
C794 C793 1.362 . S
C794 C797 1.409 . S
C795 H787 0.930 . S
C795 C796 1.355 . S
C795 C797 1.415 . S
C796 C795 1.355 . S
C796 C798 1.419 . S
C797 C792 1.425 . S
C797 C794 1.409 . S
C797 C795 1.415 . S
C798 H788 0.930 . S
C798 C796 1.419 . S
C798 C799 1.362 . S
C799 H789 0.930 . S
C799 C792 1.409 . S
C799 C798 1.362 . S
H800 C806 0.930 . S
H801 C809 0.930 . S
H802 C810 0.930 . S
H803 C811 0.930 . S
H804 C814 0.930 . S
H805 C815 0.930 . S
C806 H800 0.930 . S
C806 C807 1.355 . S
C806 C808 1.415 . S
C807 C806 1.355 . S
C807 C809 1.419 . S
C808 C806 1.415 . S
C808 C813 1.425 . S
C808 C815 1.409 . S
C809 H801 0.930 . S
C809 C807 1.419 . S
C809 C810 1.362 . S
C810 H802 0.930 . S
C810 C809 1.362 . S
C810 C813 1.409 . S
C811 H803 0.930 . S
C811 C812 1.355 . S
C811 C813 1.415 . S
C812 C811 1.355 . S
C812 C814 1.419 . S
C813 C808 1.425 . S
C813 C810 1.409 . S
C813 C811 1.415 . S
C814 H804 0.930 . S
C814 C812 1.419 . S
C814 C815 1.362 . S
C815 H805 0.930 . S
C815 C808 1.409 . S
C815 C814 1.362 . S
H816 C822 0.930 . S
H817 C825 0.930 . S
H818 C826 0.930 . S
H819 C827 0.930 . S
H820 C830 0.930 . S
H821 C831 0.930 . S
C822 H816 0.930 . S
C822 C823 1.355 . S
C822 C824 1.415 . S
C823 C822 1.355 . S
C823 C825 1.419 . S
C824 C822 1.415 . S
C824 C829 1.425 . S
C824 C831 1.409 . S
C825 H817 0.930 . S
C825 C823 1.419 . S
C825 C826 1.362 . S
C826 H818 0.930 . S
C826 C825 1.362 . S
C826 C829 1.409 . S
C827 H819 0.930 . S
C827 C828 1.355 . S
C827 C829 1.415 . S
C828 C827 1.355 . S
C828 C830 1.419 . S
C829 C824 1.425 . S
C829 C826 1.409 . S
C829 C827 1.415 . S
C830 H820 0.930 . S
C830 C828 1.419 . S
C830 C831 1.362 . S
C831 H821 0.930 . S
C831 C824 1.409 . S
C831 C830 1.362 . S
H832 C838 0.930 . S
H833 C841 0.930 . S
H834 C842 0.930 . S
H835 C843 0.930 . S
H836 C846 0.930 . S
H837 C847 0.930 . S
C838 H832 0.930 . S
C838 C839 1.355 . S
C838 C840 1.415 . S
C839 C838 1.355 . S
C839 C841 1.419 . S
C840 C838 1.415 . S
C840 C845 1.425 . S
C840 C847 1.409 . S
C841 H833 0.930 . S
C841 C839 1.419 . S
C841 C842 1.362 . S
C842 H834 0.930 . S
C842 C841 1.362 . S
C842 C845 1.409 . S
C843 H835 0.930 . S
C843 C844 1.355 . S
C843 C845 1.415 . S
C844 C843 1.355 . S
C844 C846 1.419 . S
C845 C840 1.425 . S
C845 C842 1.409 . S
C845 C843 1.415 . S
C846 H836 0.930 . S
C846 C844 1.419 . S
C846 C847 1.362 . S
C847 H837 0.930 . S
C847 C840 1.409 . S
C847 C846 1.362 . S
H848 C854 0.930 . S
H849 C857 0.930 . S
H850 C858 0.930 . S
H851 C859 0.930 . S
H852 C862 0.930 . S
H853 C863 0.930 . S
C854 H848 0.930 . S
C854 C855 1.355 . S
C854 C856 1.415 . S
C855 C854 1.355 . S
C855 C857 1.419 . S
C856 C854 1.415 . S
C856 C861 1.425 . S
C856 C863 1.409 . S
C857 H849 0.930 . S
C857 C855 1.419 . S
C857 C858 1.362 . S
C858 H850 0.930 . S
C858 C857 1.362 . S
C858 C861 1.409 . S
C859 H851 0.930 . S
C859 C860 1.355 . S
C859 C861 1.415 . S
C860 C859 1.355 . S
C860 C862 1.419 . S
C861 C856 1.425 . S
C861 C858 1.409 . S
C861 C859 1.415 . S
C862 H852 0.930 . S
C862 C860 1.419 . S
C862 C863 1.362 . S
C863 H853 0.930 . S
C863 C856 1.409 . S
C863 C862 1.362 . S
H864 C870 0.930 . S
H865 C873 0.930 . S
H866 C874 0.930 . S
H867 C875 0.930 . S
H868 C878 0.930 . S
H869 C879 0.930 . S
C870 H864 0.930 . S
C870 C871 1.355 . S
C870 C872 1.415 . S
C871 C870 1.355 . S
C871 C873 1.419 . S
C872 C870 1.415 . S
C872 C877 1.425 . S
C872 C879 1.409 . S
C873 H865 0.930 . S
C873 C871 1.419 . S
C873 C874 1.362 . S
C874 H866 0.930 . S
C874 C873 1.362 . S
C874 C877 1.409 . S
C875 H867 0.930 . S
C875 C876 1.355 . S
C875 C877 1.415 . S
C876 C875 1.355 . S
C876 C878 1.419 . S
C877 C872 1.425 . S
C877 C874 1.409 . S
C877 C875 1.415 . S
C878 H868 0.930 . S
C878 C876 1.419 . S
C878 C879 1.362 . S
C879 H869 0.930 . S
C879 C872 1.409 . S
C879 C878 1.362 . S
H880 C886 0.930 . S
H881 C889 0.930 . S
H882 C890 0.930 . S
H883 C891 0.930 1_655 S
H884 C894 0.930 . S
H885 C895 0.930 . S
C886 H880 0.930 . S
C886 C887 1.355 1_455 S
C886 C888 1.415 . S
C887 C886 1.355 1_655 S
C887 C889 1.419 . S
C888 C886 1.415 . S
C888 C893 1.404 1_455 S
C888 C895 1.409 . S
C889 H881 0.930 . S
C889 C887 1.419 . S
C889 C890 1.362 . S
C890 H882 0.930 . S
C890 C889 1.362 . S
C890 C893 1.439 . S
C891 H883 0.930 1_455 S
C891 C892 1.355 . S
C891 C893 1.406 1_455 S
C892 C891 1.355 . S
C892 C894 1.419 . S
C893 C888 1.404 1_655 S
C893 C890 1.439 . S
C893 C891 1.406 1_655 S
C894 H884 0.930 . S
C894 C892 1.419 . S
C894 C895 1.362 . S
C895 H885 0.930 . S
C895 C888 1.409 . S
C895 C894 1.362 . S
H896 C902 0.930 . S
H897 C905 0.930 . S
H898 C906 0.930 . S
H899 C907 0.930 . S
H900 C910 0.930 . S
H901 C911 0.930 . S
C902 H896 0.930 . S
C902 C903 1.355 . S
C902 C904 1.415 . S
C903 C902 1.355 . S
C903 C905 1.419 . S
C904 C902 1.415 . S
C904 C909 1.425 . S
C904 C911 1.409 . S
C905 H897 0.930 . S
C905 C903 1.419 . S
C905 C906 1.362 . S
C906 H898 0.930 . S
C906 C905 1.362 . S
C906 C909 1.409 . S
C907 H899 0.930 . S
C907 C908 1.355 . S
C907 C909 1.415 . S
C908 C907 1.355 . S
C908 C910 1.419 . S
C909 C904 1.425 . S
C909 C906 1.409 . S
C909 C907 1.415 . S
C910 H900 0.930 . S
C910 C908 1.419 . S
C910 C911 1.362 . S
C911 H901 0.930 . S
C911 C904 1.409 . S
C911 C910 1.362 . S
H912 C918 0.930 . S
H913 C921 0.930 . S
H914 C922 0.930 . S
H915 C923 0.930 . S
H916 C926 0.930 . S
H917 C927 0.930 . S
C918 H912 0.930 . S
C918 C919 1.355 . S
C918 C920 1.415 . S
C919 C918 1.355 . S
C919 C921 1.419 . S
C920 C918 1.415 . S
C920 C925 1.425 . S
C920 C927 1.409 . S
C921 H913 0.930 . S
C921 C919 1.419 . S
C921 C922 1.362 . S
C922 H914 0.930 . S
C922 C921 1.362 . S
C922 C925 1.409 . S
C923 H915 0.930 . S
C923 C924 1.355 . S
C923 C925 1.415 . S
C924 C923 1.355 . S
C924 C926 1.419 . S
C925 C920 1.425 . S
C925 C922 1.409 . S
C925 C923 1.415 . S
C926 H916 0.930 . S
C926 C924 1.419 . S
C926 C927 1.362 . S
C927 H917 0.930 . S
C927 C920 1.409 . S
C927 C926 1.362 . S
H928 C934 0.930 . S
H929 C937 0.930 . S
H930 C938 0.930 . S
H931 C939 0.930 . S
H932 C942 0.930 . S
H933 C943 0.930 . S
C934 H928 0.930 . S
C934 C935 1.355 1_554 S
C934 C936 1.415 . S
C935 C934 1.355 1_556 S
C935 C937 1.419 . S
C936 C934 1.415 . S
C936 C941 1.425 1_554 S
C936 C943 1.409 . S
C937 H929 0.930 . S
C937 C935 1.419 . S
C937 C938 1.362 . S
C938 H930 0.930 . S
C938 C937 1.362 . S
C938 C941 1.409 . S
C939 H931 0.930 . S
C939 C940 1.355 1_556 S
C939 C941 1.415 . S
C940 C939 1.355 1_554 S
C940 C942 1.419 . S
C941 C936 1.425 1_556 S
C941 C938 1.409 . S
C941 C939 1.415 . S
C942 H932 0.930 . S
C942 C940 1.419 . S
C942 C943 1.362 . S
C943 H933 0.930 . S
C943 C936 1.409 . S
C943 C942 1.362 . S
H944 C950 0.930 . S
H945 C953 0.930 . S
H946 C954 0.930 . S
H947 C955 0.930 . S
H948 C958 0.930 . S
H949 C959 0.930 . S
C950 H944 0.930 . S
C950 C951 1.355 . S
C950 C952 1.415 . S
C951 C950 1.355 . S
C951 C953 1.419 . S
C952 C950 1.415 . S
C952 C957 1.425 . S
C952 C959 1.409 . S
C953 H945 0.930 . S
C953 C951 1.419 . S
C953 C954 1.362 . S
C954 H946 0.930 . S
C954 C953 1.362 . S
C954 C957 1.409 . S
C955 H947 0.930 . S
C955 C956 1.355 . S
C955 C957 1.415 . S
C956 C955 1.355 . S
C956 C958 1.419 . S
C957 C952 1.425 . S
C957 C954 1.409 . S
C957 C955 1.415 . S
C958 H948 0.930 . S
C958 C956 1.419 . S
C958 C959 1.362 . S
C959 H949 0.930 . S
C959 C952 1.409 . S
C959 C958 1.362 . S
H960 C966 0.930 . S
H961 C969 0.930 . S
H962 C970 0.930 . S
H963 C971 0.930 . S
H964 C974 0.930 . S
H965 C975 0.930 . S
C966 H960 0.930 . S
C966 C967 1.355 . S
C966 C968 1.415 . S
C967 C966 1.355 . S
C967 C969 1.419 . S
C968 C966 1.415 . S
C968 C973 1.425 . S
C968 C975 1.409 . S
C969 H961 0.930 . S
C969 C967 1.419 . S
C969 C970 1.362 . S
C970 H962 0.930 . S
C970 C969 1.362 . S
C970 C973 1.409 . S
C971 H963 0.930 . S
C971 C972 1.355 . S
C971 C973 1.415 . S
C972 C971 1.355 . S
C972 C974 1.419 . S
C973 C968 1.425 . S
C973 C970 1.409 . S
C973 C971 1.415 . S
C974 H964 0.930 . S
C974 C972 1.419 . S
C974 C975 1.362 . S
C975 H965 0.930 . S
C975 C968 1.409 . S
C975 C974 1.362 . S
H976 C982 0.930 . S
H977 C985 0.930 . S
H978 C986 0.930 . S
H979 C987 0.930 . S
H980 C990 0.930 . S
H981 C991 0.930 . S
C982 H976 0.930 . S
C982 C983 1.355 . S
C982 C984 1.415 . S
C983 C982 1.355 . S
C983 C985 1.419 . S
C984 C982 1.415 . S
C984 C989 1.425 . S
C984 C991 1.409 . S
C985 H977 0.930 . S
C985 C983 1.419 . S
C985 C986 1.362 . S
C986 H978 0.930 . S
C986 C985 1.362 . S
C986 C989 1.409 . S
C987 H979 0.930 . S
C987 C988 1.355 . S
C987 C989 1.415 . S
C988 C987 1.355 . S
C988 C990 1.419 . S
C989 C984 1.425 . S
C989 C986 1.409 . S
C989 C987 1.415 . S
C990 H980 0.930 . S
C990 C988 1.419 . S
C990 C991 1.362 . S
C991 H981 0.930 . S
C991 C984 1.409 . S
C991 C990 1.362 . S
H992 C998 0.930 1_545 S
H993 C1001 0.930 . S
H994 C1002 0.930 . S
H995 C1003 0.930 . S
H996 C1006 0.930 . S
H997 C1007 0.930 . S
C998 H992 0.930 1_565 S
C998 C999 1.355 . S
C998 C1000 1.415 . S
C999 C998 1.355 . S
C999 C1001 1.419 . S
C1000 C998 1.415 . S
C1000 C1005 1.425 . S
C1000 C1007 1.409 . S
C1001 H993 0.930 . S
C1001 C999 1.419 . S
C1001 C1002 1.362 . S
C1002 H994 0.930 . S
C1002 C1001 1.362 . S
C1002 C1005 1.409 . S
C1003 H995 0.930 . S
C1003 C1004 1.355 . S
C1003 C1005 1.415 . S
C1004 C1003 1.355 . S
C1004 C1006 1.419 . S
C1005 C1000 1.425 . S
C1005 C1002 1.409 . S
C1005 C1003 1.415 . S
C1006 H996 0.930 . S
C1006 C1004 1.419 . S
C1006 C1007 1.362 . S
C1007 H997 0.930 . S
C1007 C1000 1.409 . S
C1007 C1006 1.362 . S
H1008 C1014 0.930 . S
H1009 C1017 0.930 . S
H1010 C1018 0.930 . S
H1011 C1019 0.930 . S
H1012 C1022 0.930 . S
H1013 C1023 0.930 . S
C1014 H1008 0.930 . S
C1014 C1015 1.355 . S
C1014 C1016 1.415 . S
C1015 C1014 1.355 . S
C1015 C1017 1.419 . S
C1016 C1014 1.415 . S
C1016 C1021 1.425 . S
C1016 C1023 1.409 . S
C1017 H1009 0.930 . S
C1017 C1015 1.419 . S
C1017 C1018 1.362 . S
C1018 H1010 0.930 . S
C1018 C1017 1.362 . S
C1018 C1021 1.409 . S
C1019 H1011 0.930 . S
C1019 C1020 1.355 . S
C1019 C1021 1.415 . S
C1020 C1019 1.355 . S
C1020 C1022 1.419 . S
C1021 C1016 1.425 . S
C1021 C1018 1.409 . S
C1021 C1019 1.415 . S
C1022 H1012 0.930 . S
C1022 C1020 1.419 . S
C1022 C1023 1.362 . S
C1023 H1013 0.930 . S
C1023 C1016 1.409 . S
C1023 C1022 1.362 . S
H1024 C1030 0.930 . S
H1025 C1033 0.930 . S
H1026 C1034 0.930 . S
H1027 C1035 0.930 . S
H1028 C1038 0.930 . S
H1029 C1039 0.930 . S
C1030 H1024 0.930 . S
C1030 C1031 1.355 1_545 S
C1030 C1032 1.415 1_545 S
C1031 C1030 1.355 1_565 S
C1031 C1033 1.419 . S
C1032 C1030 1.415 1_565 S
C1032 C1037 1.425 . S
C1032 C1039 1.409 1_565 S
C1033 H1025 0.930 . S
C1033 C1031 1.419 . S
C1033 C1034 1.362 . S
C1034 H1026 0.930 . S
C1034 C1033 1.362 . S
C1034 C1037 1.409 . S
C1035 H1027 0.930 . S
C1035 C1036 1.355 . S
C1035 C1037 1.415 . S
C1036 C1035 1.355 . S
C1036 C1038 1.419 . S
C1037 C1032 1.425 . S
C1037 C1034 1.409 . S
C1037 C1035 1.415 . S
C1038 H1028 0.930 . S
C1038 C1036 1.419 . S
C1038 C1039 1.362 1_565 S
C1039 H1029 0.930 . S
C1039 C1032 1.409 1_545 S
C1039 C1038 1.362 1_545 S
H1040 C1046 0.930 . S
H1041 C1049 0.930 . S
H1042 C1050 0.930 . S
H1043 C1051 0.930 . S
H1044 C1054 0.930 . S
H1045 C1055 0.930 . S
C1046 H1040 0.930 . S
C1046 C1047 1.355 . S
C1046 C1048 1.415 . S
C1047 C1046 1.355 . S
C1047 C1049 1.419 . S
C1048 C1046 1.415 . S
C1048 C1053 1.425 . S
C1048 C1055 1.409 . S
C1049 H1041 0.930 . S
C1049 C1047 1.419 . S
C1049 C1050 1.362 . S
C1050 H1042 0.930 . S
C1050 C1049 1.362 . S
C1050 C1053 1.409 . S
C1051 H1043 0.930 . S
C1051 C1052 1.355 . S
C1051 C1053 1.415 . S
C1052 C1051 1.355 . S
C1052 C1054 1.419 . S
C1053 C1048 1.425 . S
C1053 C1050 1.409 . S
C1053 C1051 1.415 . S
C1054 H1044 0.930 . S
C1054 C1052 1.419 . S
C1054 C1055 1.362 . S
C1055 H1045 0.930 . S
C1055 C1048 1.409 . S
C1055 C1054 1.362 . S
H1056 C1062 0.930 . S
H1057 C1065 0.930 . S
H1058 C1066 0.930 . S
H1059 C1067 0.930 . S
H1060 C1070 0.930 . S
H1061 C1071 0.930 . S
C1062 H1056 0.930 . S
C1062 C1063 1.355 . S
C1062 C1064 1.415 . S
C1063 C1062 1.355 . S
C1063 C1065 1.419 . S
C1064 C1062 1.415 . S
C1064 C1069 1.425 . S
C1064 C1071 1.409 . S
C1065 H1057 0.930 . S
C1065 C1063 1.419 . S
C1065 C1066 1.362 . S
C1066 H1058 0.930 . S
C1066 C1065 1.362 . S
C1066 C1069 1.409 . S
C1067 H1059 0.930 . S
C1067 C1068 1.355 . S
C1067 C1069 1.415 . S
C1068 C1067 1.355 . S
C1068 C1070 1.419 . S
C1069 C1064 1.425 . S
C1069 C1066 1.409 . S
C1069 C1067 1.415 . S
C1070 H1060 0.930 . S
C1070 C1068 1.419 . S
C1070 C1071 1.362 . S
C1071 H1061 0.930 . S
C1071 C1064 1.409 . S
C1071 C1070 1.362 . S
H1072 C1078 0.930 . S
H1073 C1081 0.930 . S
H1074 C1082 0.930 . S
H1075 C1083 0.930 . S
H1076 C1086 0.930 . S
H1077 C1087 0.930 . S
C1078 H1072 0.930 . S
C1078 C1079 1.355 . S
C1078 C1080 1.415 1_556 S
C1079 C1078 1.355 . S
C1079 C1081 1.419 1_556 S
C1080 C1078 1.415 1_554 S
C1080 C1085 1.425 . S
C1080 C1087 1.409 1_554 S
C1081 H1073 0.930 . S
C1081 C1079 1.419 1_554 S
C1081 C1082 1.362 . S
C1082 H1074 0.930 . S
C1082 C1081 1.362 . S
C1082 C1085 1.409 . S
C1083 H1075 0.930 . S
C1083 C1084 1.355 . S
C1083 C1085 1.415 . S
C1084 C1083 1.355 . S
C1084 C1086 1.419 . S
C1085 C1080 1.425 . S
C1085 C1082 1.409 . S
C1085 C1083 1.415 . S
C1086 H1076 0.930 . S
C1086 C1084 1.419 . S
C1086 C1087 1.362 1_554 S
C1087 H1077 0.930 . S
C1087 C1080 1.409 1_556 S
C1087 C1086 1.362 1_556 S
H1088 C1094 0.930 . S
H1089 C1097 0.930 . S
H1090 C1098 0.930 . S
H1091 C1099 0.930 . S
H1092 C1102 0.930 . S
H1093 C1103 0.930 . S
C1094 H1088 0.930 . S
C1094 C1095 1.355 . S
C1094 C1096 1.415 . S
C1095 C1094 1.355 . S
C1095 C1097 1.419 . S
C1096 C1094 1.415 . S
C1096 C1101 1.425 . S
C1096 C1103 1.409 . S
C1097 H1089 0.930 . S
C1097 C1095 1.419 . S
C1097 C1098 1.362 . S
C1098 H1090 0.930 . S
C1098 C1097 1.362 . S
C1098 C1101 1.409 . S
C1099 H1091 0.930 . S
C1099 C1100 1.355 . S
C1099 C1101 1.415 . S
C1100 C1099 1.355 . S
C1100 C1102 1.419 . S
C1101 C1096 1.425 . S
C1101 C1098 1.409 . S
C1101 C1099 1.415 . S
C1102 H1092 0.930 . S
C1102 C1100 1.419 . S
C1102 C1103 1.362 . S
C1103 H1093 0.930 . S
C1103 C1096 1.409 . S
C1103 C1102 1.362 . S
H1104 C1110 0.930 . S
H1105 C1113 0.930 . S
H1106 C1114 0.930 . S
H1107 C1115 0.930 . S
H1108 C1118 0.930 . S
H1109 C1119 0.930 . S
C1110 H1104 0.930 . S
C1110 C1111 1.355 . S
C1110 C1112 1.415 . S
C1111 C1110 1.355 . S
C1111 C1113 1.419 . S
C1112 C1110 1.415 . S
C1112 C1117 1.425 . S
C1112 C1119 1.409 . S
C1113 H1105 0.930 . S
C1113 C1111 1.419 . S
C1113 C1114 1.362 . S
C1114 H1106 0.930 . S
C1114 C1113 1.362 . S
C1114 C1117 1.409 . S
C1115 H1107 0.930 . S
C1115 C1116 1.355 . S
C1115 C1117 1.415 . S
C1116 C1115 1.355 . S
C1116 C1118 1.419 . S
C1117 C1112 1.425 . S
C1117 C1114 1.409 . S
C1117 C1115 1.415 . S
C1118 H1108 0.930 . S
C1118 C1116 1.419 . S
C1118 C1119 1.362 . S
C1119 H1109 0.930 . S
C1119 C1112 1.409 . S
C1119 C1118 1.362 . S
H1120 C1126 0.930 . S
H1121 C1129 0.930 . S
H1122 C1130 0.930 . S
H1123 C1131 0.930 . S
H1124 C1134 0.930 . S
H1125 C1135 0.930 . S
C1126 H1120 0.930 . S
C1126 C1127 1.355 . S
C1126 C1128 1.415 . S
C1127 C1126 1.355 . S
C1127 C1129 1.419 . S
C1128 C1126 1.415 . S
C1128 C1133 1.425 . S
C1128 C1135 1.409 . S
C1129 H1121 0.930 . S
C1129 C1127 1.419 . S
C1129 C1130 1.362 . S
C1130 H1122 0.930 . S
C1130 C1129 1.362 . S
C1130 C1133 1.409 . S
C1131 H1123 0.930 . S
C1131 C1132 1.355 . S
C1131 C1133 1.415 . S
C1132 C1131 1.355 . S
C1132 C1134 1.419 . S
C1133 C1128 1.425 . S
C1133 C1130 1.409 . S
C1133 C1131 1.415 . S
C1134 H1124 0.930 . S
C1134 C1132 1.419 . S
C1134 C1135 1.362 . S
C1135 H1125 0.930 . S
C1135 C1128 1.409 . S
C1135 C1134 1.362 . S
H1136 C1142 0.930 . S
H1137 C1145 0.930 . S
H1138 C1146 0.930 . S
H1139 C1147 0.930 . S
H1140 C1150 0.930 . S
H1141 C1151 0.930 . S
C1142 H1136 0.930 . S
C1142 C1143 1.355 . S
C1142 C1144 1.415 . S
C1143 C1142 1.355 . S
C1143 C1145 1.419 . S
C1144 C1142 1.415 . S
C1144 C1149 1.425 . S
C1144 C1151 1.409 . S
C1145 H1137 0.930 . S
C1145 C1143 1.419 . S
C1145 C1146 1.362 . S
C1146 H1138 0.930 . S
C1146 C1145 1.362 . S
C1146 C1149 1.409 . S
C1147 H1139 0.930 . S
C1147 C1148 1.355 . S
C1147 C1149 1.415 . S
C1148 C1147 1.355 . S
C1148 C1150 1.419 . S
C1149 C1144 1.425 . S
C1149 C1146 1.409 . S
C1149 C1147 1.415 . S
C1150 H1140 0.930 . S
C1150 C1148 1.419 . S
C1150 C1151 1.362 . S
C1151 H1141 0.930 . S
C1151 C1144 1.409 . S
C1151 C1150 1.362 . S
H1152 C1158 0.930 . S
H1153 C1161 0.930 . S
H1154 C1162 0.930 . S
H1155 C1163 0.930 . S
H1156 C1166 0.930 . S
H1157 C1167 0.930 . S
C1158 H1152 0.930 . S
C1158 C1159 1.355 1_556 S
C1158 C1160 1.415 . S
C1159 C1158 1.355 1_554 S
C1159 C1161 1.419 . S
C1160 C1158 1.415 . S
C1160 C1165 1.425 1_556 S
C1160 C1167 1.409 . S
C1161 H1153 0.930 . S
C1161 C1159 1.419 . S
C1161 C1162 1.362 . S
C1162 H1154 0.930 . S
C1162 C1161 1.362 . S
C1162 C1165 1.409 . S
C1163 H1155 0.930 . S
C1163 C1164 1.355 1_554 S
C1163 C1165 1.415 . S
C1164 C1163 1.355 1_556 S
C1164 C1166 1.419 . S
C1165 C1160 1.425 1_554 S
C1165 C1162 1.409 . S
C1165 C1163 1.415 . S
C1166 H1156 0.930 . S
C1166 C1164 1.419 . S
C1166 C1167 1.362 . S
C1167 H1157 0.930 . S
C1167 C1160 1.409 . S
C1167 C1166 1.362 . S
H1168 C1174 0.930 . S
H1169 C1177 0.930 . S
H1170 C1178 0.930 . S
H1171 C1179 0.930 . S
H1172 C1182 0.930 . S
H1173 C1183 0.930 . S
C1174 H1168 0.930 . S
C1174 C1175 1.355 . S
C1174 C1176 1.415 . S
C1175 C1174 1.355 . S
C1175 C1177 1.419 . S
C1176 C1174 1.415 . S
C1176 C1181 1.425 . S
C1176 C1183 1.409 . S
C1177 H1169 0.930 . S
C1177 C1175 1.419 . S
C1177 C1178 1.362 . S
C1178 H1170 0.930 . S
C1178 C1177 1.362 . S
C1178 C1181 1.409 . S
C1179 H1171 0.930 . S
C1179 C1180 1.355 . S
C1179 C1181 1.415 . S
C1180 C1179 1.355 . S
C1180 C1182 1.419 . S
C1181 C1176 1.425 . S
C1181 C1178 1.409 . S
C1181 C1179 1.415 . S
C1182 H1172 0.930 . S
C1182 C1180 1.419 . S
C1182 C1183 1.362 . S
C1183 H1173 0.930 . S
C1183 C1176 1.409 . S
C1183 C1182 1.362 . S
H1184 C1190 0.930 . S
H1185 C1193 0.904 1_545 S
H1186 C1194 0.930 . S
H1187 C1195 0.930 . S
H1188 C1198 0.930 . S
H1189 C1199 0.930 . S
C1190 H1184 0.930 . S
C1190 C1191 1.355 . S
C1190 C1192 1.415 . S
C1191 C1190 1.355 . S
C1191 C1193 1.419 . S
C1192 C1190 1.415 . S
C1192 C1197 1.425 . S
C1192 C1199 1.409 . S
C1193 H1185 0.904 1_565 S
C1193 C1191 1.419 . S
C1193 C1194 1.362 . S
C1194 H1186 0.930 . S
C1194 C1193 1.362 . S
C1194 C1197 1.409 . S
C1195 H1187 0.930 . S
C1195 C1196 1.355 . S
C1195 C1197 1.415 . S
C1196 C1195 1.355 . S
C1196 C1198 1.419 . S
C1197 C1192 1.425 . S
C1197 C1194 1.409 . S
C1197 C1195 1.415 . S
C1198 H1188 0.930 . S
C1198 C1196 1.419 . S
C1198 C1199 1.362 . S
C1199 H1189 0.930 . S
C1199 C1192 1.409 . S
C1199 C1198 1.362 . S
H1200 C1206 0.930 . S
H1201 C1209 0.930 . S
H1202 C1210 0.930 . S
H1203 C1211 0.930 . S
H1204 C1214 0.930 . S
H1205 C1215 0.930 . S
C1206 H1200 0.930 . S
C1206 C1207 1.355 . S
C1206 C1208 1.415 . S
C1207 C1206 1.355 . S
C1207 C1209 1.419 . S
C1208 C1206 1.415 . S
C1208 C1213 1.425 . S
C1208 C1215 1.409 . S
C1209 H1201 0.930 . S
C1209 C1207 1.419 . S
C1209 C1210 1.362 . S
C1210 H1202 0.930 . S
C1210 C1209 1.362 . S
C1210 C1213 1.409 . S
C1211 H1203 0.930 . S
C1211 C1212 1.355 . S
C1211 C1213 1.415 . S
C1212 C1211 1.355 . S
C1212 C1214 1.419 . S
C1213 C1208 1.425 . S
C1213 C1210 1.409 . S
C1213 C1211 1.415 . S
C1214 H1204 0.930 . S
C1214 C1212 1.419 . S
C1214 C1215 1.362 . S
C1215 H1205 0.930 . S
C1215 C1208 1.409 . S
C1215 C1214 1.362 . S
H1216 C1222 0.930 . S
H1217 C1225 0.930 . S
H1218 C1226 0.930 . S
H1219 C1227 0.930 . S
H1220 C1230 0.930 . S
H1221 C1231 0.930 . S
C1222 H1216 0.930 . S
C1222 C1223 1.355 . S
C1222 C1224 1.415 . S
C1223 C1222 1.355 . S
C1223 C1225 1.419 . S
C1224 C1222 1.415 . S
C1224 C1229 1.425 . S
C1224 C1231 1.409 . S
C1225 H1217 0.930 . S
C1225 C1223 1.419 . S
C1225 C1226 1.362 . S
C1226 H1218 0.930 . S
C1226 C1225 1.362 . S
C1226 C1229 1.409 . S
C1227 H1219 0.930 . S
C1227 C1228 1.355 . S
C1227 C1229 1.415 . S
C1228 C1227 1.355 . S
C1228 C1230 1.419 . S
C1229 C1224 1.425 . S
C1229 C1226 1.409 . S
C1229 C1227 1.415 . S
C1230 H1220 0.930 . S
C1230 C1228 1.419 . S
C1230 C1231 1.362 . S
C1231 H1221 0.930 . S
C1231 C1224 1.409 . S
C1231 C1230 1.362 . S
H1232 C1238 0.930 . S
H1233 C1241 0.930 . S
H1234 C1242 0.930 . S
H1235 C1243 0.930 . S
H1236 C1246 0.930 . S
H1237 C1247 0.930 . S
C1238 H1232 0.930 . S
C1238 C1239 1.355 . S
C1238 C1240 1.415 . S
C1239 C1238 1.355 . S
C1239 C1241 1.419 1_554 S
C1240 C1238 1.415 . S
C1240 C1245 1.425 1_554 S
C1240 C1247 1.409 . S
C1241 H1233 0.930 . S
C1241 C1239 1.419 1_556 S
C1241 C1242 1.362 . S
C1242 H1234 0.930 . S
C1242 C1241 1.362 . S
C1242 C1245 1.409 . S
C1243 H1235 0.930 . S
C1243 C1244 1.355 . S
C1243 C1245 1.415 . S
C1244 C1243 1.355 . S
C1244 C1246 1.419 1_556 S
C1245 C1240 1.425 1_556 S
C1245 C1242 1.409 . S
C1245 C1243 1.415 . S
C1246 H1236 0.930 . S
C1246 C1244 1.419 1_554 S
C1246 C1247 1.362 . S
C1247 H1237 0.930 . S
C1247 C1240 1.409 . S
C1247 C1246 1.362 . S
H1248 C1254 0.930 . S
H1249 C1257 0.930 . S
H1250 C1258 0.930 . S
H1251 C1259 0.930 . S
H1252 C1262 0.930 . S
H1253 C1263 0.930 . S
C1254 H1248 0.930 . S
C1254 C1255 1.355 . S
C1254 C1256 1.415 . S
C1255 C1254 1.355 . S
C1255 C1257 1.419 . S
C1256 C1254 1.415 . S
C1256 C1261 1.425 . S
C1256 C1263 1.409 . S
C1257 H1249 0.930 . S
C1257 C1255 1.419 . S
C1257 C1258 1.362 . S
C1258 H1250 0.930 . S
C1258 C1257 1.362 . S
C1258 C1261 1.409 . S
C1259 H1251 0.930 . S
C1259 C1260 1.355 . S
C1259 C1261 1.415 . S
C1260 C1259 1.355 . S
C1260 C1262 1.419 . S
C1261 C1256 1.425 . S
C1261 C1258 1.409 . S
C1261 C1259 1.415 . S
C1262 H1252 0.930 . S
C1262 C1260 1.419 . S
C1262 C1263 1.362 . S
C1263 H1253 0.930 . S
C1263 C1256 1.409 . S
C1263 C1262 1.362 . S
H1264 C1270 0.930 . S
H1265 C1273 0.930 . S
H1266 C1274 0.930 . S
H1267 C1275 0.930 . S
H1268 C1278 0.930 . S
H1269 C1279 0.930 . S
C1270 H1264 0.930 . S
C1270 C1271 1.355 . S
C1270 C1272 1.415 . S
C1271 C1270 1.355 . S
C1271 C1273 1.419 . S
C1272 C1270 1.415 . S
C1272 C1277 1.425 . S
C1272 C1279 1.409 . S
C1273 H1265 0.930 . S
C1273 C1271 1.419 . S
C1273 C1274 1.362 . S
C1274 H1266 0.930 . S
C1274 C1273 1.362 . S
C1274 C1277 1.409 . S
C1275 H1267 0.930 . S
C1275 C1276 1.355 . S
C1275 C1277 1.415 . S
C1276 C1275 1.355 . S
C1276 C1278 1.419 . S
C1277 C1272 1.425 . S
C1277 C1274 1.409 . S
C1277 C1275 1.415 . S
C1278 H1268 0.930 . S
C1278 C1276 1.419 . S
C1278 C1279 1.362 . S
C1279 H1269 0.930 . S
C1279 C1272 1.409 . S
C1279 C1278 1.362 . S
H1280 C1286 0.930 . S
H1281 C1289 0.937 . S
H1282 C1290 0.930 . S
H1283 C1291 0.930 . S
H1284 C1294 0.930 . S
H1285 C1295 0.930 . S
C1286 H1280 0.930 . S
C1286 C1287 1.355 . S
C1286 C1288 1.415 . S
C1287 C1286 1.355 . S
C1287 C1289 1.419 . S
C1288 C1286 1.415 . S
C1288 C1293 1.425 1_655 S
C1288 C1295 1.409 . S
C1289 H1281 0.937 . S
C1289 C1287 1.419 . S
C1289 C1290 1.362 1_655 S
C1290 H1282 0.930 . S
C1290 C1289 1.362 1_455 S
C1290 C1293 1.409 . S
C1291 H1283 0.930 . S
C1291 C1292 1.355 . S
C1291 C1293 1.415 . S
C1292 C1291 1.355 . S
C1292 C1294 1.419 1_455 S
C1293 C1288 1.425 1_455 S
C1293 C1290 1.409 . S
C1293 C1291 1.415 . S
C1294 H1284 0.930 . S
C1294 C1292 1.419 1_655 S
C1294 C1295 1.362 . S
C1295 H1285 0.930 . S
C1295 C1288 1.409 . S
C1295 C1294 1.362 . S
H1296 C1302 0.930 . S
H1297 C1305 0.930 . S
H1298 C1306 0.930 . S
H1299 C1307 0.930 . S
H1300 C1310 0.930 . S
H1301 C1311 0.930 . S
C1302 H1296 0.930 . S
C1302 C1303 1.355 . S
C1302 C1304 1.415 . S
C1303 C1302 1.355 . S
C1303 C1305 1.419 . S
C1304 C1302 1.415 . S
C1304 C1309 1.425 . S
C1304 C1311 1.409 . S
C1305 H1297 0.930 . S
C1305 C1303 1.419 . S
C1305 C1306 1.362 . S
C1306 H1298 0.930 . S
C1306 C1305 1.362 . S
C1306 C1309 1.409 . S
C1307 H1299 0.930 . S
C1307 C1308 1.355 . S
C1307 C1309 1.415 . S
C1308 C1307 1.355 . S
C1308 C1310 1.419 . S
C1309 C1304 1.425 . S
C1309 C1306 1.409 . S
C1309 C1307 1.415 . S
C1310 H1300 0.930 . S
C1310 C1308 1.419 . S
C1310 C1311 1.362 . S
C1311 H1301 0.930 . S
C1311 C1304 1.409 . S
C1311 C1310 1.362 . S
H1312 C1318 0.930 . S
H1313 C1321 0.930 . S
H1314 C1322 0.930 . S
H1315 C1323 0.930 . S
H1316 C1326 0.930 . S
H1317 C1327 0.930 . S
C1318 H1312 0.930 . S
C1318 C1319 1.355 . S
C1318 C1320 1.415 . S
C1319 C1318 1.355 . S
C1319 C1321 1.419 . S
C1320 C1318 1.415 . S
C1320 C1325 1.425 . S
C1320 C1327 1.409 . S
C1321 H1313 0.930 . S
C1321 C1319 1.419 . S
C1321 C1322 1.362 . S
C1322 H1314 0.930 . S
C1322 C1321 1.362 . S
C1322 C1325 1.409 . S
C1323 H1315 0.930 . S
C1323 C1324 1.355 . S
C1323 C1325 1.415 . S
C1324 C1323 1.355 . S
C1324 C1326 1.419 . S
C1325 C1320 1.425 . S
C1325 C1322 1.409 . S
C1325 C1323 1.415 . S
C1326 H1316 0.930 . S
C1326 C1324 1.419 . S
C1326 C1327 1.362 . S
C1327 H1317 0.930 . S
C1327 C1320 1.409 . S
C1327 C1326 1.362 . S
H1328 C1334 0.930 . S
H1329 C1337 0.930 . S
H1330 C1338 0.930 . S
H1331 C1339 0.930 . S
H1332 C1342 0.930 . S
H1333 C1343 0.930 . S
C1334 H1328 0.930 . S
C1334 C1335 1.355 . S
C1334 C1336 1.415 . S
C1335 C1334 1.355 . S
C1335 C1337 1.419 . S
C1336 C1334 1.415 . S
C1336 C1341 1.425 . S
C1336 C1343 1.409 . S
C1337 H1329 0.930 . S
C1337 C1335 1.419 . S
C1337 C1338 1.362 . S
C1338 H1330 0.930 . S
C1338 C1337 1.362 . S
C1338 C1341 1.409 . S
C1339 H1331 0.930 . S
C1339 C1340 1.355 . S
C1339 C1341 1.415 . S
C1340 C1339 1.355 . S
C1340 C1342 1.419 . S
C1341 C1336 1.425 . S
C1341 C1338 1.409 . S
C1341 C1339 1.415 . S
C1342 H1332 0.930 . S
C1342 C1340 1.419 . S
C1342 C1343 1.362 . S
C1343 H1333 0.930 . S
C1343 C1336 1.409 . S
C1343 C1342 1.362 . S
H1344 C1350 0.930 . S
H1345 C1353 0.930 . S
H1346 C1354 0.930 . S
H1347 C1355 0.930 . S
H1348 C1358 0.930 . S
H1349 C1359 0.930 . S
C1350 H1344 0.930 . S
C1350 C1351 1.355 . S
C1350 C1352 1.415 . S
C1351 C1350 1.355 . S
C1351 C1353 1.419 . S
C1352 C1350 1.415 . S
C1352 C1357 1.425 . S
C1352 C1359 1.409 . S
C1353 H1345 0.930 . S
C1353 C1351 1.419 . S
C1353 C1354 1.362 . S
C1354 H1346 0.930 . S
C1354 C1353 1.362 . S
C1354 C1357 1.409 . S
C1355 H1347 0.930 . S
C1355 C1356 1.355 . S
C1355 C1357 1.415 . S
C1356 C1355 1.355 . S
C1356 C1358 1.419 . S
C1357 C1352 1.425 . S
C1357 C1354 1.409 . S
C1357 C1355 1.415 . S
C1358 H1348 0.930 . S
C1358 C1356 1.419 . S
C1358 C1359 1.362 . S
C1359 H1349 0.930 . S
C1359 C1352 1.409 . S
C1359 C1358 1.362 . S
H1360 C1366 0.930 1_455 S
H1361 C1369 0.930 . S
H1362 C1370 0.930 . S
H1363 C1371 0.930 . S
H1364 C1374 0.930 . S
H1365 C1375 0.930 1_455 S
C1366 H1360 0.930 1_655 S
C1366 C1367 1.355 . S
C1366 C1368 1.415 . S
C1367 C1366 1.355 . S
C1367 C1369 1.419 . S
C1368 C1366 1.415 . S
C1368 C1373 1.425 . S
C1368 C1375 1.409 . S
C1369 H1361 0.930 . S
C1369 C1367 1.419 . S
C1369 C1370 1.362 . S
C1370 H1362 0.930 . S
C1370 C1369 1.362 . S
C1370 C1373 1.409 . S
C1371 H1363 0.930 . S
C1371 C1372 1.355 . S
C1371 C1373 1.415 . S
C1372 C1371 1.355 . S
C1372 C1374 1.419 . S
C1373 C1368 1.425 . S
C1373 C1370 1.409 . S
C1373 C1371 1.415 . S
C1374 H1364 0.930 . S
C1374 C1372 1.419 . S
C1374 C1375 1.362 . S
C1375 H1365 0.930 1_655 S
C1375 C1368 1.409 . S
C1375 C1374 1.362 . S
H1376 C1382 0.930 . S
H1377 C1385 0.930 . S
H1378 C1386 0.930 . S
H1379 C1387 0.930 . S
H1380 C1390 0.930 . S
H1381 C1391 0.930 . S
C1382 H1376 0.930 . S
C1382 C1383 1.355 . S
C1382 C1384 1.415 . S
C1383 C1382 1.355 . S
C1383 C1385 1.419 . S
C1384 C1382 1.415 . S
C1384 C1389 1.425 . S
C1384 C1391 1.409 . S
C1385 H1377 0.930 . S
C1385 C1383 1.419 . S
C1385 C1386 1.362 . S
C1386 H1378 0.930 . S
C1386 C1385 1.362 . S
C1386 C1389 1.409 . S
C1387 H1379 0.930 . S
C1387 C1388 1.355 . S
C1387 C1389 1.415 . S
C1388 C1387 1.355 . S
C1388 C1390 1.419 . S
C1389 C1384 1.425 . S
C1389 C1386 1.409 . S
C1389 C1387 1.415 . S
C1390 H1380 0.930 . S
C1390 C1388 1.419 . S
C1390 C1391 1.362 . S
C1391 H1381 0.930 . S
C1391 C1384 1.409 . S
C1391 C1390 1.362 . S
H1392 C1398 0.930 . S
H1393 C1401 0.930 . S
H1394 C1402 0.930 . S
H1395 C1403 0.930 . S
H1396 C1406 0.930 . S
H1397 C1407 0.930 . S
C1398 H1392 0.930 . S
C1398 C1399 1.355 . S
C1398 C1400 1.415 . S
C1399 C1398 1.355 . S
C1399 C1401 1.419 . S
C1400 C1398 1.415 . S
C1400 C1405 1.425 . S
C1400 C1407 1.409 . S
C1401 H1393 0.930 . S
C1401 C1399 1.419 . S
C1401 C1402 1.362 . S
C1402 H1394 0.930 . S
C1402 C1401 1.362 . S
C1402 C1405 1.409 . S
C1403 H1395 0.930 . S
C1403 C1404 1.355 . S
C1403 C1405 1.415 . S
C1404 C1403 1.355 . S
C1404 C1406 1.419 . S
C1405 C1400 1.425 . S
C1405 C1402 1.409 . S
C1405 C1403 1.415 . S
C1406 H1396 0.930 . S
C1406 C1404 1.419 . S
C1406 C1407 1.362 . S
C1407 H1397 0.930 . S
C1407 C1400 1.409 . S
C1407 C1406 1.362 . S
H1408 C1414 0.930 . S
H1409 C1417 0.930 . S
H1410 C1418 0.930 . S
H1411 C1419 0.930 . S
H1412 C1422 0.930 . S
H1413 C1423 0.930 . S
C1414 H1408 0.930 . S
C1414 C1415 1.355 . S
C1414 C1416 1.415 . S
C1415 C1414 1.355 . S
C1415 C1417 1.419 . S
C1416 C1414 1.415 . S
C1416 C1421 1.425 . S
C1416 C1423 1.409 . S
C1417 H1409 0.930 . S
C1417 C1415 1.419 . S
C1417 C1418 1.362 . S
C1418 H1410 0.930 . S
C1418 C1417 1.362 . S
C1418 C1421 1.409 . S
C1419 H1411 0.930 . S
C1419 C1420 1.355 . S
C1419 C1421 1.415 . S
C1420 C1419 1.355 . S
C1420 C1422 1.419 . S
C1421 C1416 1.425 . S
C1421 C1418 1.409 . S
C1421 C1419 1.415 . S
C1422 H1412 0.930 . S
C1422 C1420 1.419 . S
C1422 C1423 1.362 . S
C1423 H1413 0.930 . S
C1423 C1416 1.409 . S
C1423 C1422 1.362 . S
H1424 C1430 0.930 . S
H1425 C1433 0.930 . S
H1426 C1434 0.930 . S
H1427 C1435 0.930 . S
H1428 C1438 0.930 1_545 S
H1429 C1439 0.930 . S
C1430 H1424 0.930 . S
C1430 C1431 1.355 . S
C1430 C1432 1.415 . S
C1431 C1430 1.355 . S
C1431 C1433 1.419 . S
C1432 C1430 1.415 . S
C1432 C1437 1.425 . S
C1432 C1439 1.409 . S
C1433 H1425 0.930 . S
C1433 C1431 1.419 . S
C1433 C1434 1.362 . S
C1434 H1426 0.930 . S
C1434 C1433 1.362 . S
C1434 C1437 1.409 . S
C1435 H1427 0.930 . S
C1435 C1436 1.355 . S
C1435 C1437 1.415 . S
C1436 C1435 1.355 . S
C1436 C1438 1.419 . S
C1437 C1432 1.425 . S
C1437 C1434 1.409 . S
C1437 C1435 1.415 . S
C1438 H1428 0.930 1_565 S
C1438 C1436 1.419 . S
C1438 C1439 1.362 . S
C1439 H1429 0.930 . S
C1439 C1432 1.409 . S
C1439 C1438 1.362 . S
H1440 C1446 0.930 1_545 S
H1441 C1449 0.930 1_545 S
H1442 C1450 0.930 . S
H1443 C1451 0.930 . S
H1444 C1454 0.930 1_554 S
H1445 C1455 0.906 1_554 S
C1446 H1440 0.930 1_565 S
C1446 C1447 1.355 1_565 S
C1446 C1448 1.415 . S
C1447 C1446 1.355 1_545 S
C1447 C1449 1.419 1_545 S
C1448 C1446 1.415 . S
C1448 C1453 1.425 . S
C1448 C1455 1.409 . S
C1449 H1441 0.930 1_565 S
C1449 C1447 1.419 1_565 S
C1449 C1450 1.362 . S
C1450 H1442 0.930 . S
C1450 C1449 1.362 . S
C1450 C1453 1.409 . S
C1451 H1443 0.930 . S
C1451 C1452 1.355 . S
C1451 C1453 1.415 . S
C1452 C1451 1.355 . S
C1452 C1454 1.419 . S
C1453 C1448 1.425 . S
C1453 C1450 1.409 . S
C1453 C1451 1.415 . S
C1454 H1444 0.930 1_556 S
C1454 C1452 1.419 . S
C1454 C1455 1.362 . S
C1455 H1445 0.906 1_556 S
C1455 C1448 1.409 . S
C1455 C1454 1.362 . S
H1456 C1462 0.930 . S
H1457 C1465 0.930 . S
H1458 C1466 0.930 . S
H1459 C1467 0.930 . S
H1460 C1470 0.930 . S
H1461 C1471 0.930 . S
C1462 H1456 0.930 . S
C1462 C1463 1.355 . S
C1462 C1464 1.415 . S
C1463 C1462 1.355 . S
C1463 C1465 1.419 . S
C1464 C1462 1.415 . S
C1464 C1469 1.425 . S
C1464 C1471 1.409 . S
C1465 H1457 0.930 . S
C1465 C1463 1.419 . S
C1465 C1466 1.362 . S
C1466 H1458 0.930 . S
C1466 C1465 1.362 . S
C1466 C1469 1.409 . S
C1467 H1459 0.930 . S
C1467 C1468 1.355 . S
C1467 C1469 1.415 . S
C1468 C1467 1.355 . S
C1468 C1470 1.419 . S
C1469 C1464 1.425 . S
C1469 C1466 1.409 . S
C1469 C1467 1.415 . S
C1470 H1460 0.930 . S
C1470 C1468 1.419 . S
C1470 C1471 1.362 . S
C1471 H1461 0.930 . S
C1471 C1464 1.409 . S
C1471 C1470 1.362 . S
H1472 C1478 0.930 . S
H1473 C1481 0.930 . S
H1474 C1482 0.930 . S
H1475 C1483 0.930 . S
H1476 C1486 0.930 1_556 S
H1477 C1487 0.930 1_556 S
C1478 H1472 0.930 . S
C1478 C1479 1.355 . S
C1478 C1480 1.415 . S
C1479 C1478 1.355 . S
C1479 C1481 1.419 . S
C1480 C1478 1.415 . S
C1480 C1485 1.425 . S
C1480 C1487 1.409 . S
C1481 H1473 0.930 . S
C1481 C1479 1.419 . S
C1481 C1482 1.362 . S
C1482 H1474 0.930 . S
C1482 C1481 1.362 . S
C1482 C1485 1.409 . S
C1483 H1475 0.930 . S
C1483 C1484 1.355 . S
C1483 C1485 1.415 . S
C1484 C1483 1.355 . S
C1484 C1486 1.419 . S
C1485 C1480 1.425 . S
C1485 C1482 1.409 . S
C1485 C1483 1.415 . S
C1486 H1476 0.930 1_554 S
C1486 C1484 1.419 . S
C1486 C1487 1.362 . S
C1487 H1477 0.930 1_554 S
C1487 C1480 1.409 . S
C1487 C1486 1.362 . S
H1488 C1494 0.930 . S
H1489 C1497 0.930 . S
H1490 C1498 0.930 . S
H1491 C1499 0.930 . S
H1492 C1502 0.930 . S
H1493 C1503 0.930 . S
C1494 H1488 0.930 . S
C1494 C1495 1.355 . S
C1494 C1496 1.415 . S
C1495 C1494 1.355 . S
C1495 C1497 1.419 . S
C1496 C1494 1.415 . S
C1496 C1501 1.425 . S
C1496 C1503 1.409 . S
C1497 H1489 0.930 . S
C1497 C1495 1.419 . S
C1497 C1498 1.362 . S
C1498 H1490 0.930 . S
C1498 C1497 1.362 . S
C1498 C1501 1.409 . S
C1499 H1491 0.930 . S
C1499 C1500 1.355 . S
C1499 C1501 1.415 . S
C1500 C1499 1.355 . S
C1500 C1502 1.419 . S
C1501 C1496 1.425 . S
C1501 C1498 1.409 . S
C1501 C1499 1.415 . S
C1502 H1492 0.930 . S
C1502 C1500 1.419 . S
C1502 C1503 1.362 . S
C1503 H1493 0.930 . S
C1503 C1496 1.409 . S
C1503 C1502 1.362 . S
H1504 C1510 0.930 . S
H1505 C1513 0.930 . S
H1506 C1514 0.930 . S
H1507 C1515 0.930 . S
H1508 C1518 0.930 . S
H1509 C1519 0.930 . S
C1510 H1504 0.930 . S
C1510 C1511 1.355 . S
C1510 C1512 1.415 . S
C1511 C1510 1.355 . S
C1511 C1513 1.419 . S
C1512 C1510 1.415 . S
C1512 C1517 1.425 . S
C1512 C1519 1.409 . S
C1513 H1505 0.930 . S
C1513 C1511 1.419 . S
C1513 C1514 1.362 . S
C1514 H1506 0.930 . S
C1514 C1513 1.362 . S
C1514 C1517 1.409 . S
C1515 H1507 0.930 . S
C1515 C1516 1.355 1_545 S
C1515 C1517 1.415 . S
C1516 C1515 1.355 1_565 S
C1516 C1518 1.419 . S
C1517 C1512 1.425 . S
C1517 C1514 1.409 . S
C1517 C1515 1.415 . S
C1518 H1508 0.930 . S
C1518 C1516 1.419 . S
C1518 C1519 1.362 1_565 S
C1519 H1509 0.930 . S
C1519 C1512 1.409 . S
C1519 C1518 1.362 1_545 S
H1520 C1526 0.930 . S
H1521 C1529 0.930 . S
H1522 C1530 0.930 . S
H1523 C1531 0.930 . S
H1524 C1534 0.930 . S
H1525 C1535 0.930 . S
C1526 H1520 0.930 . S
C1526 C1527 1.355 . S
C1526 C1528 1.415 . S
C1527 C1526 1.355 . S
C1527 C1529 1.419 . S
C1528 C1526 1.415 . S
C1528 C1533 1.425 . S
C1528 C1535 1.409 . S
C1529 H1521 0.930 . S
C1529 C1527 1.419 . S
C1529 C1530 1.362 . S
C1530 H1522 0.930 . S
C1530 C1529 1.362 . S
C1530 C1533 1.409 . S
C1531 H1523 0.930 . S
C1531 C1532 1.355 . S
C1531 C1533 1.415 . S
C1532 C1531 1.355 . S
C1532 C1534 1.419 . S
C1533 C1528 1.425 . S
C1533 C1530 1.409 . S
C1533 C1531 1.415 . S
C1534 H1524 0.930 . S
C1534 C1532 1.419 . S
C1534 C1535 1.362 . S
C1535 H1525 0.930 . S
C1535 C1528 1.409 . S
C1535 C1534 1.362 . S
H1536 C1542 0.930 . S
H1537 C1545 0.930 . S
H1538 C1546 0.930 . S
H1539 C1547 0.930 . S
H1540 C1550 0.930 . S
H1541 C1551 0.930 . S
C1542 H1536 0.930 . S
C1542 C1543 1.355 1_655 S
C1542 C1544 1.415 . S
C1543 C1542 1.355 1_455 S
C1543 C1545 1.419 . S
C1544 C1542 1.415 . S
C1544 C1549 1.425 . S
C1544 C1551 1.409 . S
C1545 H1537 0.930 . S
C1545 C1543 1.419 . S
C1545 C1546 1.362 1_455 S
C1546 H1538 0.930 . S
C1546 C1545 1.362 1_655 S
C1546 C1549 1.409 . S
C1547 H1539 0.930 . S
C1547 C1548 1.355 . S
C1547 C1549 1.415 . S
C1548 C1547 1.355 . S
C1548 C1550 1.419 . S
C1549 C1544 1.425 . S
C1549 C1546 1.409 . S
C1549 C1547 1.415 . S
C1550 H1540 0.930 . S
C1550 C1548 1.419 . S
C1550 C1551 1.362 . S
C1551 H1541 0.930 . S
C1551 C1544 1.409 . S
C1551 C1550 1.362 . S
H1552 C1558 0.930 . S
H1553 C1561 0.930 . S
H1554 C1562 0.930 . S
H1555 C1563 0.930 . S
H1556 C1566 0.930 . S
H1557 C1567 0.930 . S
C1558 H1552 0.930 . S
C1558 C1559 1.355 . S
C1558 C1560 1.415 . S
C1559 C1558 1.355 . S
C1559 C1561 1.419 . S
C1560 C1558 1.415 . S
C1560 C1565 1.425 . S
C1560 C1567 1.409 1_554 S
C1561 H1553 0.930 . S
C1561 C1559 1.419 . S
C1561 C1562 1.362 . S
C1562 H1554 0.930 . S
C1562 C1561 1.362 . S
C1562 C1565 1.409 . S
C1563 H1555 0.930 . S
C1563 C1564 1.355 . S
C1563 C1565 1.415 . S
C1564 C1563 1.355 . S
C1564 C1566 1.419 1_554 S
C1565 C1560 1.425 . S
C1565 C1562 1.409 . S
C1565 C1563 1.415 . S
C1566 H1556 0.930 . S
C1566 C1564 1.419 1_556 S
C1566 C1567 1.362 . S
C1567 H1557 0.930 . S
C1567 C1560 1.409 1_556 S
C1567 C1566 1.362 . S
H1568 C1574 0.930 1_565 S
H1569 C1577 0.930 . S
H1570 C1578 0.930 . S
H1571 C1579 0.930 . S
H1572 C1582 0.930 1_455 S
H1573 C1583 0.927 1_565 S
C1574 H1568 0.930 1_545 S
C1574 C1575 1.355 . S
C1574 C1576 1.415 . S
C1575 C1574 1.355 . S
C1575 C1577 1.419 . S
C1576 C1574 1.415 . S
C1576 C1581 1.425 . S
C1576 C1583 1.409 . S
C1577 H1569 0.930 . S
C1577 C1575 1.419 . S
C1577 C1578 1.362 . S
C1578 H1570 0.930 . S
C1578 C1577 1.362 . S
C1578 C1581 1.409 . S
C1579 H1571 0.930 . S
C1579 C1580 1.355 . S
C1579 C1581 1.415 . S
C1580 C1579 1.355 . S
C1580 C1582 1.419 . S
C1581 C1576 1.425 . S
C1581 C1578 1.409 . S
C1581 C1579 1.415 . S
C1582 H1572 0.930 1_655 S
C1582 C1580 1.419 . S
C1582 C1583 1.362 . S
C1583 H1573 0.927 1_545 S
C1583 C1576 1.409 . S
C1583 C1582 1.362 . S
H1584 C1590 0.930 . S
H1585 C1593 0.930 . S
H1586 C1594 0.930 . S
H1587 C1595 0.930 . S
H1588 C1598 0.930 . S
H1589 C1599 0.930 . S
C1590 H1584 0.930 . S
C1590 C1591 1.355 . S
C1590 C1592 1.415 . S
C1591 C1590 1.355 . S
C1591 C1593 1.419 . S
C1592 C1590 1.415 . S
C1592 C1597 1.425 . S
C1592 C1599 1.409 . S
C1593 H1585 0.930 . S
C1593 C1591 1.419 . S
C1593 C1594 1.362 . S
C1594 H1586 0.930 . S
C1594 C1593 1.362 . S
C1594 C1597 1.409 . S
C1595 H1587 0.930 . S
C1595 C1596 1.355 . S
C1595 C1597 1.415 . S
C1596 C1595 1.355 . S
C1596 C1598 1.419 . S
C1597 C1592 1.425 . S
C1597 C1594 1.409 . S
C1597 C1595 1.415 . S
C1598 H1588 0.930 . S
C1598 C1596 1.419 . S
C1598 C1599 1.362 . S
C1599 H1589 0.930 . S
C1599 C1592 1.409 . S
C1599 C1598 1.362 . S
H1600 C1606 0.930 . S
H1601 C1609 0.930 . S
H1602 C1610 0.930 . S
H1603 C1611 0.930 . S
H1604 C1614 0.930 . S
H1605 C1615 0.930 . S
C1606 H1600 0.930 . S
C1606 C1607 1.355 . S
C1606 C1608 1.415 . S
C1607 C1606 1.355 . S
C1607 C1609 1.419 . S
C1608 C1606 1.415 . S
C1608 C1613 1.425 . S
C1608 C1615 1.409 . S
C1609 H1601 0.930 . S
C1609 C1607 1.419 . S
C1609 C1610 1.362 . S
C1610 H1602 0.930 . S
C1610 C1609 1.362 . S
C1610 C1613 1.409 . S
C1611 H1603 0.930 . S
C1611 C1612 1.355 . S
C1611 C1613 1.415 . S
C1612 C1611 1.355 . S
C1612 C1614 1.419 . S
C1613 C1608 1.425 . S
C1613 C1610 1.409 . S
C1613 C1611 1.415 . S
C1614 H1604 0.930 . S
C1614 C1612 1.419 . S
C1614 C1615 1.362 . S
C1615 H1605 0.930 . S
C1615 C1608 1.409 . S
C1615 C1614 1.362 . S
H1616 C1622 0.930 . S
H1617 C1625 0.930 . S
H1618 C1626 0.930 . S
H1619 C1627 0.930 . S
H1620 C1630 0.930 . S
H1621 C1631 0.930 . S
C1622 H1616 0.930 . S
C1622 C1623 1.355 . S
C1622 C1624 1.415 . S
C1623 C1622 1.355 . S
C1623 C1625 1.419 1_556 S
C1624 C1622 1.415 . S
C1624 C1629 1.425 1_556 S
C1624 C1631 1.409 . S
C1625 H1617 0.930 . S
C1625 C1623 1.419 1_554 S
C1625 C1626 1.362 . S
C1626 H1618 0.930 . S
C1626 C1625 1.362 . S
C1626 C1629 1.409 . S
C1627 H1619 0.930 . S
C1627 C1628 1.355 . S
C1627 C1629 1.415 . S
C1628 C1627 1.355 . S
C1628 C1630 1.419 1_554 S
C1629 C1624 1.425 1_554 S
C1629 C1626 1.409 . S
C1629 C1627 1.415 . S
C1630 H1620 0.930 . S
C1630 C1628 1.419 1_556 S
C1630 C1631 1.362 . S
C1631 H1621 0.930 . S
C1631 C1624 1.409 . S
C1631 C1630 1.362 . S
H1632 C1638 0.930 . S
H1633 C1641 0.930 . S
H1634 C1642 0.930 . S
H1635 C1643 0.930 . S
H1636 C1646 0.930 . S
H1637 C1647 0.930 . S
C1638 H1632 0.930 . S
C1638 C1639 1.355 . S
C1638 C1640 1.415 . S
C1639 C1638 1.355 . S
C1639 C1641 1.419 . S
C1640 C1638 1.415 . S
C1640 C1645 1.425 . S
C1640 C1647 1.409 . S
C1641 H1633 0.930 . S
C1641 C1639 1.419 . S
C1641 C1642 1.362 . S
C1642 H1634 0.930 . S
C1642 C1641 1.362 . S
C1642 C1645 1.409 . S
C1643 H1635 0.930 . S
C1643 C1644 1.355 . S
C1643 C1645 1.415 . S
C1644 C1643 1.355 . S
C1644 C1646 1.419 . S
C1645 C1640 1.425 . S
C1645 C1642 1.409 . S
C1645 C1643 1.415 . S
C1646 H1636 0.930 . S
C1646 C1644 1.419 . S
C1646 C1647 1.362 . S
C1647 H1637 0.930 . S
C1647 C1640 1.409 . S
C1647 C1646 1.362 . S
H1648 C1654 0.930 . S
H1649 C1657 0.930 . S
H1650 C1658 0.930 . S
H1651 C1659 0.930 . S
H1652 C1662 0.930 . S
H1653 C1663 0.930 . S
C1654 H1648 0.930 . S
C1654 C1655 1.355 . S
C1654 C1656 1.415 . S
C1655 C1654 1.355 . S
C1655 C1657 1.419 . S
C1656 C1654 1.415 . S
C1656 C1661 1.425 . S
C1656 C1663 1.409 . S
C1657 H1649 0.930 . S
C1657 C1655 1.419 . S
C1657 C1658 1.362 . S
C1658 H1650 0.930 . S
C1658 C1657 1.362 . S
C1658 C1661 1.409 . S
C1659 H1651 0.930 . S
C1659 C1660 1.355 . S
C1659 C1661 1.415 . S
C1660 C1659 1.355 . S
C1660 C1662 1.419 . S
C1661 C1656 1.425 . S
C1661 C1658 1.409 . S
C1661 C1659 1.415 . S
C1662 H1652 0.930 . S
C1662 C1660 1.419 . S
C1662 C1663 1.362 . S
C1663 H1653 0.930 . S
C1663 C1656 1.409 . S
C1663 C1662 1.362 . S
H1664 C1670 0.930 1_655 S
H1665 C1673 0.930 . S
H1666 C1674 0.930 . S
H1667 C1675 0.930 . S
H1668 C1678 0.930 . S
H1669 C1679 0.918 1_655 S
C1670 H1664 0.930 1_455 S
C1670 C1671 1.355 . S
C1670 C1672 1.415 . S
C1671 C1670 1.355 . S
C1671 C1673 1.419 . S
C1672 C1670 1.415 . S
C1672 C1677 1.425 . S
C1672 C1679 1.409 . S
C1673 H1665 0.930 . S
C1673 C1671 1.419 . S
C1673 C1674 1.362 . S
C1674 H1666 0.930 . S
C1674 C1673 1.362 . S
C1674 C1677 1.409 . S
C1675 H1667 0.930 . S
C1675 C1676 1.355 . S
C1675 C1677 1.415 . S
C1676 C1675 1.355 . S
C1676 C1678 1.419 . S
C1677 C1672 1.425 . S
C1677 C1674 1.409 . S
C1677 C1675 1.415 . S
C1678 H1668 0.930 . S
C1678 C1676 1.419 . S
C1678 C1679 1.362 . S
C1679 H1669 0.918 1_455 S
C1679 C1672 1.409 . S
C1679 C1678 1.362 . S
H1680 C1686 0.930 . S
H1681 C1689 0.930 . S
H1682 C1690 0.930 . S
H1683 C1691 0.930 . S
H1684 C1694 0.930 . S
H1685 C1695 0.930 . S
C1686 H1680 0.930 . S
C1686 C1687 1.355 . S
C1686 C1688 1.415 . S
C1687 C1686 1.355 . S
C1687 C1689 1.419 . S
C1688 C1686 1.415 . S
C1688 C1693 1.425 . S
C1688 C1695 1.409 . S
C1689 H1681 0.930 . S
C1689 C1687 1.419 . S
C1689 C1690 1.362 . S
C1690 H1682 0.930 . S
C1690 C1689 1.362 . S
C1690 C1693 1.409 . S
C1691 H1683 0.930 . S
C1691 C1692 1.355 . S
C1691 C1693 1.415 . S
C1692 C1691 1.355 . S
C1692 C1694 1.419 . S
C1693 C1688 1.425 . S
C1693 C1690 1.409 . S
C1693 C1691 1.415 . S
C1694 H1684 0.930 . S
C1694 C1692 1.419 . S
C1694 C1695 1.362 . S
C1695 H1685 0.930 . S
C1695 C1688 1.409 . S
C1695 C1694 1.362 . S
H1696 C1702 0.930 1_655 S
H1697 C1705 0.930 . S
H1698 C1706 0.930 . S
H1699 C1707 0.930 . S
H1700 C1710 0.930 . S
H1701 C1711 0.930 . S
C1702 H1696 0.930 1_455 S
C1702 C1703 1.355 . S
C1702 C1704 1.415 . S
C1703 C1702 1.355 . S
C1703 C1705 1.419 . S
C1704 C1702 1.415 . S
C1704 C1709 1.425 . S
C1704 C1711 1.409 1_455 S
C1705 H1697 0.930 . S
C1705 C1703 1.419 . S
C1705 C1706 1.362 . S
C1706 H1698 0.930 . S
C1706 C1705 1.362 . S
C1706 C1709 1.409 . S
C1707 H1699 0.930 . S
C1707 C1708 1.355 . S
C1707 C1709 1.415 . S
C1708 C1707 1.355 . S
C1708 C1710 1.419 1_455 S
C1709 C1704 1.425 . S
C1709 C1706 1.409 . S
C1709 C1707 1.415 . S
C1710 H1700 0.930 . S
C1710 C1708 1.419 1_655 S
C1710 C1711 1.362 . S
C1711 H1701 0.930 . S
C1711 C1704 1.409 1_655 S
C1711 C1710 1.362 . S
H1712 C1718 0.930 . S
H1713 C1721 0.930 . S
H1714 C1722 0.930 . S
H1715 C1723 0.930 . S
H1716 C1726 0.930 . S
H1717 C1727 0.930 . S
C1718 H1712 0.930 . S
C1718 C1719 1.355 . S
C1718 C1720 1.415 . S
C1719 C1718 1.355 . S
C1719 C1721 1.419 . S
C1720 C1718 1.415 . S
C1720 C1725 1.425 . S
C1720 C1727 1.409 . S
C1721 H1713 0.930 . S
C1721 C1719 1.419 . S
C1721 C1722 1.362 . S
C1722 H1714 0.930 . S
C1722 C1721 1.362 . S
C1722 C1725 1.409 . S
C1723 H1715 0.930 . S
C1723 C1724 1.355 . S
C1723 C1725 1.415 . S
C1724 C1723 1.355 . S
C1724 C1726 1.419 . S
C1725 C1720 1.425 . S
C1725 C1722 1.409 . S
C1725 C1723 1.415 . S
C1726 H1716 0.930 . S
C1726 C1724 1.419 . S
C1726 C1727 1.362 . S
C1727 H1717 0.930 . S
C1727 C1720 1.409 . S
C1727 C1726 1.362 . S
H1728 C1734 0.930 . S
H1729 C1737 0.930 . S
H1730 C1738 0.930 . S
H1731 C1739 0.930 . S
H1732 C1742 0.930 . S
H1733 C1743 0.930 . S
C1734 H1728 0.930 . S
C1734 C1735 1.355 . S
C1734 C1736 1.415 . S
C1735 C1734 1.355 . S
C1735 C1737 1.419 . S
C1736 C1734 1.415 . S
C1736 C1741 1.425 . S
C1736 C1743 1.409 . S
C1737 H1729 0.930 . S
C1737 C1735 1.419 . S
C1737 C1738 1.362 . S
C1738 H1730 0.930 . S
C1738 C1737 1.362 . S
C1738 C1741 1.409 . S
C1739 H1731 0.930 . S
C1739 C1740 1.355 . S
C1739 C1741 1.415 . S
C1740 C1739 1.355 . S
C1740 C1742 1.419 . S
C1741 C1736 1.425 . S
C1741 C1738 1.409 . S
C1741 C1739 1.415 . S
C1742 H1732 0.930 . S
C1742 C1740 1.419 . S
C1742 C1743 1.362 . S
C1743 H1733 0.930 . S
C1743 C1736 1.409 . S
C1743 C1742 1.362 . S
H1744 C1750 0.930 . S
H1745 C1753 0.930 . S
H1746 C1754 0.930 . S
H1747 C1755 0.930 . S
H1748 C1758 0.930 . S
H1749 C1759 0.930 . S
C1750 H1744 0.930 . S
C1750 C1751 1.355 . S
C1750 C1752 1.415 . S
C1751 C1750 1.355 . S
C1751 C1753 1.419 . S
C1752 C1750 1.415 . S
C1752 C1757 1.425 . S
C1752 C1759 1.409 . S
C1753 H1745 0.930 . S
C1753 C1751 1.419 . S
C1753 C1754 1.362 . S
C1754 H1746 0.930 . S
C1754 C1753 1.362 . S
C1754 C1757 1.409 . S
C1755 H1747 0.930 . S
C1755 C1756 1.355 . S
C1755 C1757 1.415 . S
C1756 C1755 1.355 . S
C1756 C1758 1.419 . S
C1757 C1752 1.425 . S
C1757 C1754 1.409 . S
C1757 C1755 1.415 . S
C1758 H1748 0.930 . S
C1758 C1756 1.419 . S
C1758 C1759 1.362 . S
C1759 H1749 0.930 . S
C1759 C1752 1.409 . S
C1759 C1758 1.362 . S
H1760 C1766 0.930 . S
H1761 C1769 0.930 . S
H1762 C1770 0.930 . S
H1763 C1771 0.930 . S
H1764 C1774 0.930 . S
H1765 C1775 0.930 . S
C1766 H1760 0.930 . S
C1766 C1767 1.355 . S
C1766 C1768 1.415 . S
C1767 C1766 1.355 . S
C1767 C1769 1.419 . S
C1768 C1766 1.415 . S
C1768 C1773 1.425 . S
C1768 C1775 1.409 . S
C1769 H1761 0.930 . S
C1769 C1767 1.419 . S
C1769 C1770 1.362 . S
C1770 H1762 0.930 . S
C1770 C1769 1.362 . S
C1770 C1773 1.409 . S
C1771 H1763 0.930 . S
C1771 C1772 1.355 . S
C1771 C1773 1.415 . S
C1772 C1771 1.355 . S
C1772 C1774 1.419 . S
C1773 C1768 1.425 . S
C1773 C1770 1.409 . S
C1773 C1771 1.415 . S
C1774 H1764 0.930 . S
C1774 C1772 1.419 . S
C1774 C1775 1.362 . S
C1775 H1765 0.930 . S
C1775 C1768 1.409 . S
C1775 C1774 1.362 . S
H1776 C1782 0.930 . S
H1777 C1785 0.930 . S
H1778 C1786 0.930 . S
H1779 C1787 0.930 . S
H1780 C1790 0.930 1_565 S
H1781 C1791 0.930 1_556 S
C1782 H1776 0.930 . S
C1782 C1783 1.355 . S
C1782 C1784 1.415 . S
C1783 C1782 1.355 . S
C1783 C1785 1.419 . S
C1784 C1782 1.415 . S
C1784 C1789 1.425 1_556 S
C1784 C1791 1.409 1_556 S
C1785 H1777 0.930 . S
C1785 C1783 1.419 . S
C1785 C1786 1.362 1_556 S
C1786 H1778 0.930 . S
C1786 C1785 1.362 1_554 S
C1786 C1789 1.409 . S
C1787 H1779 0.930 . S
C1787 C1788 1.355 . S
C1787 C1789 1.415 . S
C1788 C1787 1.355 . S
C1788 C1790 1.419 . S
C1789 C1784 1.425 1_554 S
C1789 C1786 1.409 . S
C1789 C1787 1.415 . S
C1790 H1780 0.930 1_545 S
C1790 C1788 1.419 . S
C1790 C1791 1.362 . S
C1791 H1781 0.930 1_554 S
C1791 C1784 1.409 1_554 S
C1791 C1790 1.362 . S
H1792 C1798 0.930 . S
H1793 C1801 0.930 . S
H1794 C1802 0.930 . S
H1795 C1803 0.930 . S
H1796 C1806 0.930 . S
H1797 C1807 0.930 . S
C1798 H1792 0.930 . S
C1798 C1799 1.355 . S
C1798 C1800 1.415 . S
C1799 C1798 1.355 . S
C1799 C1801 1.419 . S
C1800 C1798 1.415 . S
C1800 C1805 1.425 . S
C1800 C1807 1.409 . S
C1801 H1793 0.930 . S
C1801 C1799 1.419 . S
C1801 C1802 1.362 . S
C1802 H1794 0.930 . S
C1802 C1801 1.362 . S
C1802 C1805 1.409 . S
C1803 H1795 0.930 . S
C1803 C1804 1.355 . S
C1803 C1805 1.415 . S
C1804 C1803 1.355 . S
C1804 C1806 1.419 . S
C1805 C1800 1.425 . S
C1805 C1802 1.409 . S
C1805 C1803 1.415 . S
C1806 H1796 0.930 . S
C1806 C1804 1.419 . S
C1806 C1807 1.362 . S
C1807 H1797 0.930 . S
C1807 C1800 1.409 . S
C1807 C1806 1.362 . S
H1808 C1814 0.930 . S
H1809 C1817 0.930 . S
H1810 C1818 0.930 . S
H1811 C1819 0.930 . S
H1812 C1822 0.930 . S
H1813 C1823 0.930 . S
C1814 H1808 0.930 . S
C1814 C1815 1.355 . S
C1814 C1816 1.415 . S
C1815 C1814 1.355 . S
C1815 C1817 1.419 . S
C1816 C1814 1.415 . S
C1816 C1821 1.425 . S
C1816 C1823 1.409 . S
C1817 H1809 0.930 . S
C1817 C1815 1.419 . S
C1817 C1818 1.362 . S
C1818 H1810 0.930 . S
C1818 C1817 1.362 . S
C1818 C1821 1.409 . S
C1819 H1811 0.930 . S
C1819 C1820 1.355 . S
C1819 C1821 1.415 . S
C1820 C1819 1.355 . S
C1820 C1822 1.419 . S
C1821 C1816 1.425 . S
C1821 C1818 1.409 . S
C1821 C1819 1.415 . S
C1822 H1812 0.930 . S
C1822 C1820 1.419 . S
C1822 C1823 1.362 . S
C1823 H1813 0.930 . S
C1823 C1816 1.409 . S
C1823 C1822 1.362 . S
H1824 C1830 0.930 . S
H1825 C1833 0.911 1_565 S
H1826 C1834 0.930 . S
H1827 C1835 0.930 1_565 S
H1828 C1838 0.930 . S
H1829 C1839 0.930 . S
C1830 H1824 0.930 . S
C1830 C1831 1.355 . S
C1830 C1832 1.415 . S
C1831 C1830 1.355 . S
C1831 C1833 1.445 . S
C1832 C1830 1.415 . S
C1832 C1837 1.425 . S
C1832 C1839 1.409 . S
C1833 H1825 0.911 1_545 S
C1833 C1831 1.445 . S
C1833 C1834 1.356 1_545 S
C1834 H1826 0.930 . S
C1834 C1833 1.356 1_565 S
C1834 C1837 1.409 1_565 S
C1835 H1827 0.930 1_545 S
C1835 C1836 1.355 . S
C1835 C1837 1.415 . S
C1836 C1835 1.355 . S
C1836 C1838 1.419 . S
C1837 C1832 1.425 . S
C1837 C1834 1.409 1_545 S
C1837 C1835 1.415 . S
C1838 H1828 0.930 . S
C1838 C1836 1.419 . S
C1838 C1839 1.362 . S
C1839 H1829 0.930 . S
C1839 C1832 1.409 . S
C1839 C1838 1.362 . S
H1840 C1846 0.930 . S
H1841 C1849 0.938 . S
H1842 C1850 0.930 . S
H1843 C1851 0.930 . S
H1844 C1854 0.930 . S
H1845 C1855 0.930 . S
C1846 H1840 0.930 . S
C1846 C1847 1.355 . S
C1846 C1848 1.415 . S
C1847 C1846 1.355 . S
C1847 C1849 1.418 1_565 S
C1848 C1846 1.415 . S
C1848 C1853 1.425 . S
C1848 C1855 1.409 . S
C1849 H1841 0.938 . S
C1849 C1847 1.418 1_545 S
C1849 C1850 1.355 1_545 S
C1850 H1842 0.930 . S
C1850 C1849 1.355 1_565 S
C1850 C1853 1.409 . S
C1851 H1843 0.930 . S
C1851 C1852 1.355 . S
C1851 C1853 1.415 . S
C1852 C1851 1.355 . S
C1852 C1854 1.419 . S
C1853 C1848 1.425 . S
C1853 C1850 1.409 . S
C1853 C1851 1.415 . S
C1854 H1844 0.930 . S
C1854 C1852 1.419 . S
C1854 C1855 1.362 . S
C1855 H1845 0.930 . S
C1855 C1848 1.409 . S
C1855 C1854 1.362 . S
H1856 C1862 0.930 . S
H1857 C1865 0.930 . S
H1858 C1866 0.930 . S
H1859 C1867 0.930 . S
H1860 C1870 0.930 . S
H1861 C1871 0.930 . S
C1862 H1856 0.930 . S
C1862 C1863 1.355 . S
C1862 C1864 1.415 . S
C1863 C1862 1.355 . S
C1863 C1865 1.419 . S
C1864 C1862 1.415 . S
C1864 C1869 1.425 . S
C1864 C1871 1.409 . S
C1865 H1857 0.930 . S
C1865 C1863 1.419 . S
C1865 C1866 1.362 . S
C1866 H1858 0.930 . S
C1866 C1865 1.362 . S
C1866 C1869 1.409 . S
C1867 H1859 0.930 . S
C1867 C1868 1.355 . S
C1867 C1869 1.415 . S
C1868 C1867 1.355 . S
C1868 C1870 1.419 . S
C1869 C1864 1.425 . S
C1869 C1866 1.409 . S
C1869 C1867 1.415 . S
C1870 H1860 0.930 . S
C1870 C1868 1.419 . S
C1870 C1871 1.362 . S
C1871 H1861 0.930 . S
C1871 C1864 1.409 . S
C1871 C1870 1.362 . S
H1872 C1878 0.930 . S
H1873 C1881 0.930 . S
H1874 C1882 0.930 . S
H1875 C1883 0.930 . S
H1876 C1886 0.930 . S
H1877 C1887 0.930 . S
C1878 H1872 0.930 . S
C1878 C1879 1.355 1_556 S
C1878 C1880 1.415 . S
C1879 C1878 1.355 1_554 S
C1879 C1881 1.419 . S
C1880 C1878 1.415 . S
C1880 C1885 1.425 1_556 S
C1880 C1887 1.409 . S
C1881 H1873 0.930 . S
C1881 C1879 1.419 . S
C1881 C1882 1.362 . S
C1882 H1874 0.930 . S
C1882 C1881 1.362 . S
C1882 C1885 1.409 . S
C1883 H1875 0.930 . S
C1883 C1884 1.355 1_554 S
C1883 C1885 1.415 . S
C1884 C1883 1.355 1_556 S
C1884 C1886 1.419 . S
C1885 C1880 1.425 1_554 S
C1885 C1882 1.409 . S
C1885 C1883 1.415 . S
C1886 H1876 0.930 . S
C1886 C1884 1.419 . S
C1886 C1887 1.362 . S
C1887 H1877 0.930 . S
C1887 C1880 1.409 . S
C1887 C1886 1.362 . S
H1888 C1894 0.930 . S
H1889 C1897 0.930 . S
H1890 C1898 0.930 . S
H1891 C1899 0.930 . S
H1892 C1902 0.930 . S
H1893 C1903 0.930 . S
C1894 H1888 0.930 . S
C1894 C1895 1.355 . S
C1894 C1896 1.415 . S
C1895 C1894 1.355 . S
C1895 C1897 1.419 . S
C1896 C1894 1.415 . S
C1896 C1901 1.425 . S
C1896 C1903 1.409 1_556 S
C1897 H1889 0.930 . S
C1897 C1895 1.419 . S
C1897 C1898 1.362 . S
C1898 H1890 0.930 . S
C1898 C1897 1.362 . S
C1898 C1901 1.409 . S
C1899 H1891 0.930 . S
C1899 C1900 1.355 1_556 S
C1899 C1901 1.415 . S
C1900 C1899 1.355 1_554 S
C1900 C1902 1.419 . S
C1901 C1896 1.425 . S
C1901 C1898 1.409 . S
C1901 C1899 1.415 . S
C1902 H1892 0.930 . S
C1902 C1900 1.419 . S
C1902 C1903 1.362 . S
C1903 H1893 0.930 . S
C1903 C1896 1.409 1_554 S
C1903 C1902 1.362 . S
H1904 C1910 0.930 . S
H1905 C1913 0.930 . S
H1906 C1914 0.930 . S
H1907 C1915 0.930 . S
H1908 C1918 0.930 . S
H1909 C1919 0.930 . S
C1910 H1904 0.930 . S
C1910 C1911 1.355 . S
C1910 C1912 1.415 . S
C1911 C1910 1.355 . S
C1911 C1913 1.419 . S
C1912 C1910 1.415 . S
C1912 C1917 1.425 . S
C1912 C1919 1.409 . S
C1913 H1905 0.930 . S
C1913 C1911 1.419 . S
C1913 C1914 1.362 . S
C1914 H1906 0.930 . S
C1914 C1913 1.362 . S
C1914 C1917 1.409 . S
C1915 H1907 0.930 . S
C1915 C1916 1.355 . S
C1915 C1917 1.415 . S
C1916 C1915 1.355 . S
C1916 C1918 1.419 . S
C1917 C1912 1.425 . S
C1917 C1914 1.409 . S
C1917 C1915 1.415 . S
C1918 H1908 0.930 . S
C1918 C1916 1.419 . S
C1918 C1919 1.362 . S
C1919 H1909 0.930 . S
C1919 C1912 1.409 . S
C1919 C1918 1.362 . S
H1920 C1926 0.930 . S
H1921 C1929 0.930 . S
H1922 C1930 0.930 . S
H1923 C1931 0.930 . S
H1924 C1934 0.930 . S
H1925 C1935 0.930 . S
C1926 H1920 0.930 . S
C1926 C1927 1.355 . S
C1926 C1928 1.415 . S
C1927 C1926 1.355 . S
C1927 C1929 1.419 . S
C1928 C1926 1.415 . S
C1928 C1933 1.425 . S
C1928 C1935 1.409 . S
C1929 H1921 0.930 . S
C1929 C1927 1.419 . S
C1929 C1930 1.362 . S
C1930 H1922 0.930 . S
C1930 C1929 1.362 . S
C1930 C1933 1.409 . S
C1931 H1923 0.930 . S
C1931 C1932 1.355 . S
C1931 C1933 1.415 . S
C1932 C1931 1.355 . S
C1932 C1934 1.419 . S
C1933 C1928 1.425 . S
C1933 C1930 1.409 . S
C1933 C1931 1.415 . S
C1934 H1924 0.930 . S
C1934 C1932 1.419 . S
C1934 C1935 1.362 . S
C1935 H1925 0.930 . S
C1935 C1928 1.409 . S
C1935 C1934 1.362 . S
H1936 C1942 0.930 . S
H1937 C1945 0.930 . S
H1938 C1946 0.930 . S
H1939 C1947 0.930 . S
H1940 C1950 0.930 . S
H1941 C1951 0.930 . S
C1942 H1936 0.930 . S
C1942 C1943 1.355 . S
C1942 C1944 1.415 . S
C1943 C1942 1.355 . S
C1943 C1945 1.419 . S
C1944 C1942 1.415 . S
C1944 C1949 1.425 . S
C1944 C1951 1.409 . S
C1945 H1937 0.930 . S
C1945 C1943 1.419 . S
C1945 C1946 1.362 . S
C1946 H1938 0.930 . S
C1946 C1945 1.362 . S
C1946 C1949 1.409 . S
C1947 H1939 0.930 . S
C1947 C1948 1.355 . S
C1947 C1949 1.415 . S
C1948 C1947 1.355 . S
C1948 C1950 1.419 . S
C1949 C1944 1.425 . S
C1949 C1946 1.409 . S
C1949 C1947 1.415 . S
C1950 H1940 0.930 . S
C1950 C1948 1.419 . S
C1950 C1951 1.362 . S
C1951 H1941 0.930 . S
C1951 C1944 1.409 . S
C1951 C1950 1.362 . S
H1952 C1958 0.930 . S
H1953 C1961 0.930 . S
H1954 C1962 0.930 . S
H1955 C1963 0.930 . S
H1956 C1966 0.930 . S
H1957 C1967 0.930 . S
C1958 H1952 0.930 . S
C1958 C1959 1.355 . S
C1958 C1960 1.415 . S
C1959 C1958 1.355 . S
C1959 C1961 1.419 . S
C1960 C1958 1.415 . S
C1960 C1965 1.425 . S
C1960 C1967 1.409 . S
C1961 H1953 0.930 . S
C1961 C1959 1.419 . S
C1961 C1962 1.362 . S
C1962 H1954 0.930 . S
C1962 C1961 1.362 . S
C1962 C1965 1.409 . S
C1963 H1955 0.930 . S
C1963 C1964 1.355 . S
C1963 C1965 1.415 . S
C1964 C1963 1.355 . S
C1964 C1966 1.419 . S
C1965 C1960 1.425 . S
C1965 C1962 1.409 . S
C1965 C1963 1.415 . S
C1966 H1956 0.930 . S
C1966 C1964 1.419 . S
C1966 C1967 1.362 . S
C1967 H1957 0.930 . S
C1967 C1960 1.409 . S
C1967 C1966 1.362 . S
H1968 C1974 0.930 1_455 S
H1969 C1977 0.930 . S
H1970 C1978 0.930 . S
H1971 C1979 0.930 . S
H1972 C1982 0.930 . S
H1973 C1983 0.931 . S
C1974 H1968 0.930 1_655 S
C1974 C1975 1.355 . S
C1974 C1976 1.415 . S
C1975 C1974 1.355 . S
C1975 C1977 1.419 . S
C1976 C1974 1.415 . S
C1976 C1981 1.425 . S
C1976 C1983 1.409 . S
C1977 H1969 0.930 . S
C1977 C1975 1.419 . S
C1977 C1978 1.362 . S
C1978 H1970 0.930 . S
C1978 C1977 1.362 . S
C1978 C1981 1.409 . S
C1979 H1971 0.930 . S
C1979 C1980 1.355 . S
C1979 C1981 1.415 . S
C1980 C1979 1.355 . S
C1980 C1982 1.419 . S
C1981 C1976 1.425 . S
C1981 C1978 1.409 . S
C1981 C1979 1.415 . S
C1982 H1972 0.930 . S
C1982 C1980 1.419 . S
C1982 C1983 1.362 . S
C1983 H1973 0.931 . S
C1983 C1976 1.409 . S
C1983 C1982 1.362 . S
H1984 C1990 0.930 . S
H1985 C1993 0.930 . S
H1986 C1994 0.930 . S
H1987 C1995 0.930 . S
H1988 C1998 0.930 . S
H1989 C1999 0.930 . S
C1990 H1984 0.930 . S
C1990 C1991 1.355 . S
C1990 C1992 1.415 . S
C1991 C1990 1.355 . S
C1991 C1993 1.419 . S
C1992 C1990 1.415 . S
C1992 C1997 1.425 . S
C1992 C1999 1.409 . S
C1993 H1985 0.930 . S
C1993 C1991 1.419 . S
C1993 C1994 1.362 . S
C1994 H1986 0.930 . S
C1994 C1993 1.362 . S
C1994 C1997 1.409 . S
C1995 H1987 0.930 . S
C1995 C1996 1.355 . S
C1995 C1997 1.415 . S
C1996 C1995 1.355 . S
C1996 C1998 1.419 . S
C1997 C1992 1.425 . S
C1997 C1994 1.409 . S
C1997 C1995 1.415 . S
C1998 H1988 0.930 . S
C1998 C1996 1.419 . S
C1998 C1999 1.362 . S
C1999 H1989 0.930 . S
C1999 C1992 1.409 . S
C1999 C1998 1.362 . S
H2000 C2006 0.930 . S
H2001 C2009 0.930 . S
H2002 C2010 0.930 . S
H2003 C2011 0.930 . S
H2004 C2014 0.930 . S
H2005 C2015 0.930 . S
C2006 H2000 0.930 . S
C2006 C2007 1.355 . S
C2006 C2008 1.415 . S
C2007 C2006 1.355 . S
C2007 C2009 1.419 . S
C2008 C2006 1.415 . S
C2008 C2013 1.425 . S
C2008 C2015 1.409 . S
C2009 H2001 0.930 . S
C2009 C2007 1.419 . S
C2009 C2010 1.362 . S
C2010 H2002 0.930 . S
C2010 C2009 1.362 . S
C2010 C2013 1.409 . S
C2011 H2003 0.930 . S
C2011 C2012 1.355 . S
C2011 C2013 1.415 . S
C2012 C2011 1.355 . S
C2012 C2014 1.419 . S
C2013 C2008 1.425 . S
C2013 C2010 1.409 . S
C2013 C2011 1.415 . S
C2014 H2004 0.930 . S
C2014 C2012 1.419 . S
C2014 C2015 1.362 . S
C2015 H2005 0.930 . S
C2015 C2008 1.409 . S
C2015 C2014 1.362 . S
H2016 C2022 0.930 . S
H2017 C2025 0.930 . S
H2018 C2026 0.930 . S
H2019 C2027 0.930 . S
H2020 C2030 0.930 . S
H2021 C2031 0.930 . S
C2022 H2016 0.930 . S
C2022 C2023 1.355 . S
C2022 C2024 1.415 . S
C2023 C2022 1.355 . S
C2023 C2025 1.419 . S
C2024 C2022 1.415 . S
C2024 C2029 1.425 . S
C2024 C2031 1.409 . S
C2025 H2017 0.930 . S
C2025 C2023 1.419 . S
C2025 C2026 1.362 . S
C2026 H2018 0.930 . S
C2026 C2025 1.362 . S
C2026 C2029 1.409 . S
C2027 H2019 0.930 . S
C2027 C2028 1.355 . S
C2027 C2029 1.415 . S
C2028 C2027 1.355 . S
C2028 C2030 1.419 . S
C2029 C2024 1.425 . S
C2029 C2026 1.409 . S
C2029 C2027 1.415 . S
C2030 H2020 0.930 . S
C2030 C2028 1.419 . S
C2030 C2031 1.362 . S
C2031 H2021 0.930 . S
C2031 C2024 1.409 . S
C2031 C2030 1.362 . S
H2032 C2038 0.930 . S
H2033 C2041 0.930 . S
H2034 C2042 0.930 . S
H2035 C2043 0.930 . S
H2036 C2046 0.930 . S
H2037 C2047 0.930 . S
C2038 H2032 0.930 . S
C2038 C2039 1.355 . S
C2038 C2040 1.415 . S
C2039 C2038 1.355 . S
C2039 C2041 1.419 . S
C2040 C2038 1.415 . S
C2040 C2045 1.425 . S
C2040 C2047 1.409 . S
C2041 H2033 0.930 . S
C2041 C2039 1.419 . S
C2041 C2042 1.362 . S
C2042 H2034 0.930 . S
C2042 C2041 1.362 . S
C2042 C2045 1.409 . S
C2043 H2035 0.930 . S
C2043 C2044 1.355 . S
C2043 C2045 1.415 . S
C2044 C2043 1.355 . S
C2044 C2046 1.419 . S
C2045 C2040 1.425 . S
C2045 C2042 1.409 . S
C2045 C2043 1.415 . S
C2046 H2036 0.930 . S
C2046 C2044 1.419 . S
C2046 C2047 1.362 . S
C2047 H2037 0.930 . S
C2047 C2040 1.409 . S
C2047 C2046 1.362 . S
H2048 C2054 0.930 . S
H2049 C2057 0.930 . S
H2050 C2058 0.930 . S
H2051 C2059 0.930 . S
H2052 C2062 0.930 . S
H2053 C2063 0.930 . S
C2054 H2048 0.930 . S
C2054 C2055 1.355 . S
C2054 C2056 1.415 . S
C2055 C2054 1.355 . S
C2055 C2057 1.419 . S
C2056 C2054 1.415 . S
C2056 C2061 1.425 . S
C2056 C2063 1.409 . S
C2057 H2049 0.930 . S
C2057 C2055 1.419 . S
C2057 C2058 1.362 . S
C2058 H2050 0.930 . S
C2058 C2057 1.362 . S
C2058 C2061 1.409 . S
C2059 H2051 0.930 . S
C2059 C2060 1.355 . S
C2059 C2061 1.415 . S
C2060 C2059 1.355 . S
C2060 C2062 1.419 . S
C2061 C2056 1.425 . S
C2061 C2058 1.409 . S
C2061 C2059 1.415 . S
C2062 H2052 0.930 . S
C2062 C2060 1.419 . S
C2062 C2063 1.362 . S
C2063 H2053 0.930 . S
C2063 C2056 1.409 . S
C2063 C2062 1.362 . S
H2064 C2070 0.930 . S
H2065 C2073 0.930 . S
H2066 C2074 0.930 . S
H2067 C2075 0.930 . S
H2068 C2078 0.930 . S
H2069 C2079 0.930 . S
C2070 H2064 0.930 . S
C2070 C2071 1.355 . S
C2070 C2072 1.415 . S
C2071 C2070 1.355 . S
C2071 C2073 1.419 . S
C2072 C2070 1.415 . S
C2072 C2077 1.425 . S
C2072 C2079 1.409 . S
C2073 H2065 0.930 . S
C2073 C2071 1.419 . S
C2073 C2074 1.362 . S
C2074 H2066 0.930 . S
C2074 C2073 1.362 . S
C2074 C2077 1.409 . S
C2075 H2067 0.930 . S
C2075 C2076 1.355 . S
C2075 C2077 1.415 . S
C2076 C2075 1.355 . S
C2076 C2078 1.419 . S
C2077 C2072 1.425 . S
C2077 C2074 1.409 . S
C2077 C2075 1.415 . S
C2078 H2068 0.930 . S
C2078 C2076 1.419 . S
C2078 C2079 1.362 . S
C2079 H2069 0.930 . S
C2079 C2072 1.409 . S
C2079 C2078 1.362 . S
H2080 C2086 0.930 . S
H2081 C2089 0.930 . S
H2082 C2090 0.930 . S
H2083 C2091 0.930 . S
H2084 C2094 0.930 . S
H2085 C2095 0.930 . S
C2086 H2080 0.930 . S
C2086 C2087 1.355 . S
C2086 C2088 1.415 . S
C2087 C2086 1.355 . S
C2087 C2089 1.419 . S
C2088 C2086 1.415 . S
C2088 C2093 1.425 . S
C2088 C2095 1.409 . S
C2089 H2081 0.930 . S
C2089 C2087 1.419 . S
C2089 C2090 1.362 . S
C2090 H2082 0.930 . S
C2090 C2089 1.362 . S
C2090 C2093 1.409 . S
C2091 H2083 0.930 . S
C2091 C2092 1.355 . S
C2091 C2093 1.415 . S
C2092 C2091 1.355 . S
C2092 C2094 1.419 . S
C2093 C2088 1.425 . S
C2093 C2090 1.409 . S
C2093 C2091 1.415 . S
C2094 H2084 0.930 . S
C2094 C2092 1.419 . S
C2094 C2095 1.362 . S
C2095 H2085 0.930 . S
C2095 C2088 1.409 . S
C2095 C2094 1.362 . S
H2096 C2102 0.930 . S
H2097 C2105 0.930 . S
H2098 C2106 0.930 . S
H2099 C2107 0.930 . S
H2100 C2110 0.930 . S
H2101 C2111 0.930 . S
C2102 H2096 0.930 . S
C2102 C2103 1.355 . S
C2102 C2104 1.415 . S
C2103 C2102 1.355 . S
C2103 C2105 1.419 . S
C2104 C2102 1.415 . S
C2104 C2109 1.425 . S
C2104 C2111 1.409 . S
C2105 H2097 0.930 . S
C2105 C2103 1.419 . S
C2105 C2106 1.362 . S
C2106 H2098 0.930 . S
C2106 C2105 1.362 . S
C2106 C2109 1.409 . S
C2107 H2099 0.930 . S
C2107 C2108 1.355 . S
C2107 C2109 1.415 . S
C2108 C2107 1.355 . S
C2108 C2110 1.419 . S
C2109 C2104 1.425 . S
C2109 C2106 1.409 . S
C2109 C2107 1.415 . S
C2110 H2100 0.930 . S
C2110 C2108 1.419 . S
C2110 C2111 1.362 . S
C2111 H2101 0.930 . S
C2111 C2104 1.409 . S
C2111 C2110 1.362 . S
H2112 C2118 0.930 . S
H2113 C2121 0.930 . S
H2114 C2122 0.930 . S
H2115 C2123 0.929 1_655 S
H2116 C2126 0.930 . S
H2117 C2127 0.930 . S
C2118 H2112 0.930 . S
C2118 C2119 1.355 . S
C2118 C2120 1.415 . S
C2119 C2118 1.355 . S
C2119 C2121 1.419 . S
C2120 C2118 1.415 . S
C2120 C2125 1.425 . S
C2120 C2127 1.409 . S
C2121 H2113 0.930 . S
C2121 C2119 1.419 . S
C2121 C2122 1.362 . S
C2122 H2114 0.930 . S
C2122 C2121 1.362 . S
C2122 C2125 1.409 . S
C2123 H2115 0.929 1_455 S
C2123 C2124 1.340 1_455 S
C2123 C2125 1.415 . S
C2124 C2123 1.340 1_655 S
C2124 C2126 1.399 1_655 S
C2125 C2120 1.425 . S
C2125 C2122 1.409 . S
C2125 C2123 1.415 . S
C2126 H2116 0.930 . S
C2126 C2124 1.399 1_455 S
C2126 C2127 1.362 . S
C2127 H2117 0.930 . S
C2127 C2120 1.409 . S
C2127 C2126 1.362 . S
H2128 C2134 0.930 . S
H2129 C2137 0.930 . S
H2130 C2138 0.930 . S
H2131 C2139 0.930 . S
H2132 C2142 0.937 . S
H2133 C2143 0.930 . S
C2134 H2128 0.930 . S
C2134 C2135 1.355 . S
C2134 C2136 1.415 1_655 S
C2135 C2134 1.355 . S
C2135 C2137 1.419 1_655 S
C2136 C2134 1.415 1_455 S
C2136 C2141 1.425 . S
C2136 C2143 1.409 1_455 S
C2137 H2129 0.930 . S
C2137 C2135 1.419 1_455 S
C2137 C2138 1.362 . S
C2138 H2130 0.930 . S
C2138 C2137 1.362 . S
C2138 C2141 1.409 . S
C2139 H2131 0.930 . S
C2139 C2140 1.355 . S
C2139 C2141 1.415 . S
C2140 C2139 1.355 . S
C2140 C2142 1.419 . S
C2141 C2136 1.425 . S
C2141 C2138 1.409 . S
C2141 C2139 1.415 . S
C2142 H2132 0.937 . S
C2142 C2140 1.419 . S
C2142 C2143 1.362 1_455 S
C2143 H2133 0.930 . S
C2143 C2136 1.409 1_655 S
C2143 C2142 1.362 1_655 S
H2144 C2150 0.930 1_455 S
H2145 C2153 0.930 . S
H2146 C2154 0.930 . S
H2147 C2155 0.930 . S
H2148 C2158 0.930 . S
H2149 C2159 0.930 . S
C2150 H2144 0.930 1_655 S
C2150 C2151 1.355 . S
C2150 C2152 1.415 1_655 S
C2151 C2150 1.355 . S
C2151 C2153 1.419 . S
C2152 C2150 1.415 1_455 S
C2152 C2157 1.425 1_455 S
C2152 C2159 1.409 . S
C2153 H2145 0.930 . S
C2153 C2151 1.419 . S
C2153 C2154 1.362 . S
C2154 H2146 0.930 . S
C2154 C2153 1.362 . S
C2154 C2157 1.409 . S
C2155 H2147 0.930 . S
C2155 C2156 1.355 1_655 S
C2155 C2157 1.415 . S
C2156 C2155 1.355 1_455 S
C2156 C2158 1.419 . S
C2157 C2152 1.425 1_655 S
C2157 C2154 1.409 . S
C2157 C2155 1.415 . S
C2158 H2148 0.930 . S
C2158 C2156 1.419 . S
C2158 C2159 1.362 . S
C2159 H2149 0.930 . S
C2159 C2152 1.409 . S
C2159 C2158 1.362 . S
C631 C361 1.023 . S
C636 C4 1.021 . S
C647 C18 1.087 . S
C652 C499 1.075 . S
C663 C30 0.928 . S
C668 C329 0.879 . S
C679 C525 0.815 . S
C684 C44 0.730 . S
C695 C369 0.947 . S
C700 C57 0.907 . S
C711 C75 0.896 . S
C716 C290 0.825 . S
C727 C393 1.073 . S
C732 C83 1.040 . S
C743 C101 1.036 . S
C748 C270 1.039 . S
C759 C465 1.032 . S
C764 C96 1.093 . S
C775 C432 0.804 . S
C780 C62 0.870 . S
C791 C70 0.895 . S
C796 C551 0.894 . S
C807 C452 0.999 . S
C812 C88 0.980 . S
C823 C108 0.882 . S
C828 C173 0.899 . S
C839 C187 0.959 . S
C844 C122 0.899 . S
C855 C200 0.965 . S
C860 C140 1.039 . S
C871 C161 0.897 . S
C876 C146 0.869 . S
C887 C172 1.145 . S
C892 C316 1.170 . S
C903 C192 1.009 . S
C908 C510 1.005 . S
C919 C348 1.137 . S
C924 C205 1.104 . S
C935 C356 1.000 . S
C940 C213 0.939 . S
C951 C231 1.162 . S
C956 C380 1.113 . S
C967 C239 0.910 . S
C972 C49 0.906 . S
C983 C251 1.032 . S
C988 C23 0.995 . S
C999 C575 0.977 . S
C1004 C276 0.983 . S
C1015 C603 0.932 . S
C1020 C302 0.872 . S
C1031 C315 0.767 . S
C1036 C107 0.829 . S
C1047 C343 1.134 . S
C1052 C135 1.060 . S
C1063 C328 1.159 . S
C1068 C564 1.293 . S
C1079 C433 1.232 . S
C1084 C374 1.176 . S
C1095 C447 0.974 . S
C1100 C394 0.909 . S
C1111 C420 1.149 . S
C1116 C408 1.263 . S
C1127 C226 0.993 . S
C1132 C588 1.078 . S
C1143 C473 1.250 . S
C1148 C303 1.263 . S
C1159 C277 0.948 . S
C1164 C485 0.931 . S
C1175 C615 0.790 . S
C1180 C413 0.798 . S
C1191 C381 1.051 . S
C1196 C589 1.021 . S
C1207 C127 0.982 . S
C1212 C511 1.092 . S
C1223 C147 0.884 . S
C1228 C543 0.948 . S
C1239 C166 1.231 . S
C1244 C538 1.129 . S
C1255 C250 1.113 . S
C1260 C504 1.158 . S
C1271 C244 1.086 . S
C1276 C530 1.179 . S
C1287 C289 1.247 . S
C1292 C556 1.127 . S
C1303 C265 1.077 . S
C1308 C460 1.176 . S
C1319 C576 1.038 . S
C1324 C484 0.981 . S
C1335 C608 0.757 . S
C1340 C478 0.849 . S
C1351 C614 0.906 . S
C1356 C419 0.933 . S
C1367 C569 0.876 . S
C1372 C29 0.945 . S
C1383 C218 0.943 . S
C1388 C3 0.965 . S
C1399 C10 1.527 . S
C1404 C601 1.559 . S
C1415 C16 1.431 . S
C1420 C621 1.484 . S
C1431 C36 1.550 . S
C1436 C577 1.566 . S
C1447 C42 1.554 . S
C1452 C595 1.493 . S
C1463 C55 1.562 . S
C1468 C121 1.534 . S
C1479 C69 1.463 . S
C1484 C133 1.405 . S
C1495 C81 1.539 . S
C1500 C153 1.534 . S
C1511 C95 1.535 . S
C1516 C109 1.575 . S
C1527 C94 1.943 . S
C1532 C512 1.699 . S
C1543 C56 1.592 . S
C1548 C342 1.499 . S
C1559 C68 1.725 . S
C1564 C536 1.700 . S
C1575 C82 1.967 . S
C1580 C322 1.799 1_655 S
C1591 C114 1.731 . S
C1596 C309 1.681 . S
C1607 C120 1.969 . S
C1612 C406 1.859 . S
C1623 C134 1.961 . S
C1628 C283 1.700 . S
C1639 C382 1.463 . S
C1644 C148 1.565 . S
C1655 C159 1.572 . S
C1660 C252 1.698 . S
C1671 C174 1.638 . S
C1676 C212 1.652 . S
C1687 C257 1.315 . S
C1692 C186 1.418 . S
C1703 C563 1.513 . S
C1708 C199 1.658 . S
C1719 C198 1.412 . S
C1724 C211 1.459 1_556 S
C1735 C472 1.613 . S
C1740 C225 1.826 . S
C1751 C160 1.823 . S
C1756 C237 1.869 . S
C1767 C523 1.833 . S
C1772 C264 1.979 . S
C1783 C537 2.029 . S
C1788 C278 1.892 1_545 S
C1799 C296 1.841 . S
C1804 C497 2.025 . S
C1815 C517 2.006 . S
C1820 C304 2.087 . S
C1831 C317 1.865 . S
C1836 C387 2.044 . S
C1847 C395 1.951 1_565 S
C1852 C335 2.091 . S
C1863 C341 2.051 . S
C1868 C407 1.878 . S
C1879 C367 2.033 . S
C1884 C355 1.886 . S
C1895 C354 1.775 . S
C1900 C590 1.934 . S
C1911 C616 1.741 . S
C1916 C330 1.692 . S
C1927 C368 1.581 . S
C1932 C43 1.636 . S
C1943 C17 1.976 . S
C1948 C400 1.727 . S
C1959 C486 1.613 . S
C1964 C426 1.621 . S
C1975 C458 1.776 . S
C1980 C434 1.594 . S
C1991 C224 1.366 . S
C1996 C491 1.483 . S
C2007 C446 1.640 . S
C2012 C550 1.610 . S
C2023 C459 1.421 . S
C2028 C445 1.492 . S
C2039 C185 1.687 . S
C2044 C238 1.653 . S
C2055 C421 1.887 . S
C2060 C471 1.831 . S
C2071 C602 1.557 . S
C2076 C498 1.453 . S
C2087 C524 1.812 . S
C2092 C582 1.924 . S
C2103 C5 1.988 . S
C2108 C291 1.899 1_455 S
C2119 C263 1.447 . S
C2124 C31 1.590 . S
C2135 C439 1.798 . S
C2140 C549 1.833 . S
C2151 C179 1.826 . S
C2156 C562 1.825 . S
