# Generated by pormake.
# Topology sod, (4)-cn, num edge types: 1
# Building blocks:
#     Node 0, Type 0, BuildingBlock: ICAMEG_clean_sbu_1, # of connection points: 4
#     Node 1, Type 0, BuildingBlock: ICAMEG_clean_sbu_1, # of connection points: 4
#     Node 2, Type 0, BuildingBlock: ICAMEG_clean_sbu_1, # of connection points: 4
#     Node 3, Type 0, BuildingBlock: ICAMEG_clean_sbu_1, # of connection points: 4
#     Node 4, Type 0, BuildingBlock: ICAMEG_clean_sbu_1, # of connection points: 4
#     Node 5, Type 0, BuildingBlock: ICAMEG_clean_sbu_1, # of connection points: 4
#     Node 6, Type 0, BuildingBlock: ICAMEG_clean_sbu_1, # of connection points: 4
#     Node 7, Type 0, BuildingBlock: ICAMEG_clean_sbu_1, # of connection points: 4
#     Node 8, Type 0, BuildingBlock: ICAMEG_clean_sbu_1, # of connection points: 4
#     Node 9, Type 0, BuildingBlock: ICAMEG_clean_sbu_1, # of connection points: 4
#     Node 10, Type 0, BuildingBlock: ICAMEG_clean_sbu_1, # of connection points: 4
#     Node 11, Type 0, BuildingBlock: ICAMEG_clean_sbu_1, # of connection points: 4
#     Edge 12, Type (0, 0), None
#     Edge 13, Type (0, 0), None
#     Edge 14, Type (0, 0), None
#     Edge 15, Type (0, 0), None
#     Edge 16, Type (0, 0), None
#     Edge 17, Type (0, 0), None
#     Edge 18, Type (0, 0), None
#     Edge 19, Type (0, 0), None
#     Edge 20, Type (0, 0), None
#     Edge 21, Type (0, 0), None
#     Edge 22, Type (0, 0), None
#     Edge 23, Type (0, 0), None
#     Edge 24, Type (0, 0), None
#     Edge 25, Type (0, 0), None
#     Edge 26, Type (0, 0), None
#     Edge 27, Type (0, 0), None
#     Edge 28, Type (0, 0), None
#     Edge 29, Type (0, 0), None
#     Edge 30, Type (0, 0), None
#     Edge 31, Type (0, 0), None
#     Edge 32, Type (0, 0), None
#     Edge 33, Type (0, 0), None
#     Edge 34, Type (0, 0), None
#     Edge 35, Type (0, 0), None
# Relax obj value: 0.212
# Max RMSD: 0.234
# Mean RMSD: 0.232
data_MOF--net-sod--node1-ICAMEG_clean_sbu_1--edge1-none
_symmetry_space_group_name_H-M    P1
_symmetry_Int_Tables_number       1
_symmetry_cell_setting            triclinic
loop_
_symmetry_equiv_pos_as_xyz
'x, y, z'
_cell_length_a     20.06538
_cell_length_b     22.785366
_cell_length_c     21.348489
_cell_angle_alpha  89.653013
_cell_angle_beta   89.829316
_cell_angle_gamma 90.111551
loop_
_atom_site_label
_atom_site_type_symbol
_atom_site_fract_x
_atom_site_fract_y
_atom_site_fract_z
_atom_type_partial_charge
Co0 Co 0.01181 0.23654 0.59587 0.0
Co1 Co 0.97854 0.23518 0.43942 0.0
O2 O 0.99287 0.27967 0.51735 0.0
C3 C 0.97981 0.35768 0.63431 0.0
O4 O 0.9576 0.3751 0.57963 0.0
C5 C 0.99413 0.36013 0.39783 0.0
O6 O 0.00593 0.37897 0.4546 0.0
O7 O 0.07308 0.20363 0.4523 0.0
O8 O 0.05513 0.17213 0.55091 0.0
H9 H 0.00788 0.05671 0.30515 0.0
H10 H 0.07644 0.34924 0.54888 0.0
O11 O 0.97535 0.30322 0.64891 0.0
H12 H 0.24775 0.25298 0.67672 0.0
H13 H 0.08666 0.19982 0.81923 0.0
H14 H 0.98426 0.11364 0.63255 0.0
H15 H 0.14719 0.19862 0.64477 0.0
H16 H 0.06392 0.26185 0.72639 0.0
O17 O 0.00344 0.30592 0.38486 0.0
H18 H 0.01945 0.11587 0.40013 0.0
H19 H 0.91882 0.25783 0.31224 0.0
H20 H 0.99395 0.05483 0.72868 0.0
H21 H 0.17754 0.4032 0.57552 0.0
H22 H 0.04941 0.09665 0.82181 0.0
H23 H 0.26182 0.35699 0.64466 0.0
O24 O 0.92246 0.19562 0.58216 0.0
H25 H 0.7841 0.37584 0.46594 0.0
H26 H 0.85022 0.17789 0.39982 0.0
H27 H 0.73421 0.20957 0.38647 0.0
H28 H 0.70113 0.31035 0.41595 0.0
H29 H 0.89818 0.34195 0.48073 0.0
H30 H 0.89955 0.19751 0.21857 0.0
H31 H 0.94478 0.09622 0.21421 0.0
O32 O 0.94795 0.1659 0.48548 0.0
C33 C 0.09008 0.17323 0.50165 0.0
C34 C 0.98695 0.10032 0.30663 0.0
C35 C 0.9265 0.17945 0.25806 0.0
N36 N 0.96966 0.1903 0.36233 0.0
C37 C 0.99442 0.13455 0.36014 0.0
C38 C 0.93786 0.21349 0.31124 0.0
C39 C 0.95188 0.12266 0.25562 0.0
C40 C 0.11247 0.32779 0.57808 0.0
N41 N 0.10057 0.27323 0.60293 0.0
C42 C 0.17026 0.3589 0.59287 0.0
C43 C 0.21755 0.33293 0.63141 0.0
C44 C 0.20942 0.2746 0.64965 0.0
C45 C 0.15179 0.24441 0.6321 0.0
C46 C 0.06218 0.18159 0.77905 0.0
C47 C 0.00494 0.13373 0.67376 0.0
C48 C 0.04972 0.21608 0.726 0.0
N49 N 0.024 0.1914 0.67303 0.0
C50 C 0.01175 0.09946 0.72771 0.0
C51 C 0.04194 0.12324 0.78025 0.0
C52 C 0.91077 0.16411 0.53302 0.0
C53 C 0.79875 0.33288 0.44953 0.0
C54 C 0.83709 0.22222 0.41244 0.0
C55 C 0.77085 0.23966 0.40495 0.0
C56 C 0.75213 0.29604 0.42197 0.0
N57 N 0.88448 0.26034 0.43443 0.0
C58 C 0.86439 0.31369 0.45666 0.0
Co59 Co 0.72943 0.07315 0.52663 0.0
Co60 Co 0.71925 0.92864 0.49536 0.0
O61 O 0.76972 0.99894 0.50592 0.0
C62 C 0.86692 0.1129 0.53456 0.0
O63 O 0.89574 0.06322 0.54932 0.0
C64 C 0.8559 0.88902 0.49324 0.0
O65 O 0.87021 0.93867 0.46479 0.0
O66 O 0.67596 0.94776 0.58227 0.0
O67 O 0.64673 0.0405 0.55926 0.0
H68 H 0.59382 0.77355 0.38275 0.0
H69 H 0.82591 0.99359 0.60017 0.0
O70 O 0.81539 0.11163 0.4988 0.0
H71 H 0.71505 0.11186 0.76037 0.0
H72 H 0.75416 0.28023 0.60416 0.0
H73 H 0.61209 0.14604 0.48188 0.0
H74 H 0.68442 0.12299 0.65092 0.0
H75 H 0.78356 0.1778 0.59306 0.0
O76 O 0.8008 0.88325 0.52435 0.0
H77 H 0.62757 0.87455 0.40185 0.0
H78 H 0.7058 0.82697 0.5786 0.0
H79 H 0.58472 0.25273 0.49038 0.0
H80 H 0.8581 0.98191 0.70879 0.0
H81 H 0.65235 0.31835 0.55297 0.0
H82 H 0.80408 0.04206 0.79083 0.0
O83 O 0.68248 0.06336 0.43936 0.0
H84 H 0.81098 0.99335 0.28298 0.0
H85 H 0.76186 0.82278 0.41745 0.0
H86 H 0.80296 0.80729 0.31095 0.0
H87 H 0.82753 0.89279 0.24224 0.0
H88 H 0.76988 0.00737 0.38929 0.0
H89 H 0.67174 0.72343 0.56176 0.0
H90 H 0.61731 0.69575 0.46202 0.0
O91 O 0.64405 0.97115 0.45916 0.0
C92 C 0.64364 0.99643 0.59512 0.0
C93 C 0.61723 0.78425 0.4264 0.0
C94 C 0.66214 0.75641 0.52644 0.0
N95 N 0.66961 0.85612 0.49077 0.0
C96 C 0.63493 0.84221 0.43816 0.0
C97 C 0.68024 0.8149 0.53617 0.0
C98 C 0.63118 0.74091 0.47062 0.0
C99 C 0.80492 0.02389 0.63322 0.0
N100 N 0.76163 0.06755 0.6151 0.0
C101 C 0.82247 0.01547 0.69594 0.0
C102 C 0.79189 0.04883 0.74196 0.0
C103 C 0.74271 0.0885 0.72486 0.0
C104 C 0.72707 0.09606 0.66163 0.0
C105 C 0.7222 0.25119 0.57775 0.0
C106 C 0.6429 0.17485 0.50954 0.0
C107 C 0.73842 0.19225 0.57094 0.0
N108 N 0.69766 0.15364 0.53953 0.0
C109 C 0.62688 0.2347 0.51364 0.0
C110 C 0.66547 0.27244 0.54914 0.0
C111 C 0.64633 0.01651 0.42464 0.0
C112 C 0.79749 0.95567 0.31141 0.0
C113 C 0.76815 0.86068 0.38738 0.0
C114 C 0.79323 0.85139 0.32714 0.0
C115 C 0.80723 0.89929 0.2887 0.0
N116 N 0.75491 0.91625 0.40897 0.0
C117 C 0.77209 0.96332 0.37183 0.0
Co118 Co 0.00915 0.78263 0.41468 0.0
Co119 Co 0.99565 0.78179 0.57334 0.0
O120 O 0.00512 0.73821 0.49433 0.0
C121 C 0.97996 0.6589 0.382 0.0
O122 O 0.96638 0.64362 0.43983 0.0
C123 C 0.0336 0.66047 0.60946 0.0
O124 O 0.04741 0.64433 0.55208 0.0
O125 O 0.08423 0.82098 0.54974 0.0
O126 O 0.04971 0.85131 0.45547 0.0
H127 H 0.01974 0.96507 0.69902 0.0
H128 H 0.08806 0.67262 0.44498 0.0
O129 O 0.97492 0.7127 0.36528 0.0
H130 H 0.23765 0.79167 0.31384 0.0
H131 H 0.06305 0.82554 0.18751 0.0
H132 H 0.96358 0.90214 0.38143 0.0
H133 H 0.13482 0.83496 0.35741 0.0
H134 H 0.05072 0.76165 0.28052 0.0
O135 O 0.03583 0.71485 0.62389 0.0
H136 H 0.02912 0.90403 0.60584 0.0
H137 H 0.95351 0.75718 0.70695 0.0
H138 H 0.9647 0.96379 0.28662 0.0
H139 H 0.19041 0.62908 0.40443 0.0
H140 H 0.01796 0.92684 0.18948 0.0
H141 H 0.26442 0.68783 0.33483 0.0
O142 O 0.91715 0.81422 0.43854 0.0
H143 H 0.82355 0.61824 0.57853 0.0
H144 H 0.86544 0.82577 0.6275 0.0
H145 H 0.76213 0.77849 0.66445 0.0
H146 H 0.74153 0.67355 0.64215 0.0
H147 H 0.9264 0.66606 0.54466 0.0
H148 H 0.93244 0.81994 0.79855 0.0
H149 H 0.96755 0.9245 0.79598 0.0
O150 O 0.95044 0.84689 0.53132 0.0
C151 C 0.09244 0.85177 0.49882 0.0
C152 C 0.00331 0.92007 0.70104 0.0
C153 C 0.95532 0.83833 0.7569 0.0
N154 N 0.99134 0.82702 0.65031 0.0
C155 C 0.00996 0.88467 0.64844 0.0
C156 C 0.96723 0.80305 0.70474 0.0
C157 C 0.97463 0.89704 0.75532 0.0
C158 C 0.11888 0.69887 0.4148 0.0
N159 N 0.10017 0.75429 0.39721 0.0
C160 C 0.17763 0.67384 0.39228 0.0
C161 C 0.21911 0.70676 0.35343 0.0
C162 C 0.20407 0.76532 0.34183 0.0
C163 C 0.14544 0.78919 0.36637 0.0
C164 C 0.0395 0.84213 0.22949 0.0
C165 C 0.98354 0.88433 0.33863 0.0
C166 C 0.03246 0.80619 0.28239 0.0
N167 N 0.00776 0.82832 0.33714 0.0
C168 C 0.98527 0.92003 0.28529 0.0
C169 C 0.01464 0.8991 0.23071 0.0
C170 C 0.90613 0.84265 0.48998 0.0
C171 C 0.83317 0.66345 0.591 0.0
C172 C 0.85797 0.77964 0.61832 0.0
C173 C 0.79875 0.75341 0.63892 0.0
C174 C 0.78703 0.69453 0.62624 0.0
N175 N 0.90686 0.74711 0.58999 0.0
C176 C 0.89234 0.69089 0.57239 0.0
Co177 Co 0.27688 0.93938 0.50456 0.0
Co178 Co 0.27688 0.08826 0.49158 0.0
O179 O 0.2304 0.01366 0.49604 0.0
C180 C 0.13862 0.90217 0.49636 0.0
O181 O 0.12219 0.94924 0.52792 0.0
C182 C 0.13853 0.125 0.49842 0.0
O183 O 0.12364 0.07983 0.46327 0.0
O184 O 0.32408 0.06207 0.57614 0.0
O185 O 0.35422 0.97215 0.5467 0.0
H186 H 0.37296 0.26431 0.38534 0.0
H187 H 0.22349 0.01452 0.61055 0.0
O188 O 0.19516 0.89975 0.46744 0.0
H189 H 0.177 0.81267 0.68001 0.0
H190 H 0.30586 0.73117 0.44013 0.0
H191 H 0.36202 0.87718 0.59944 0.0
H192 H 0.22352 0.8311 0.57592 0.0
H193 H 0.28387 0.83691 0.42052 0.0
O194 O 0.19421 0.12639 0.52873 0.0
H195 H 0.35559 0.15804 0.39744 0.0
H196 H 0.29213 0.18162 0.585 0.0
H197 H 0.38363 0.77319 0.62039 0.0
H198 H 0.17735 0.99759 0.71472 0.0
H199 H 0.35296 0.69895 0.54114 0.0
H200 H 0.15431 0.89603 0.75119 0.0
O201 O 0.32727 0.9646 0.42124 0.0
H202 H 0.18621 0.03612 0.27657 0.0
H203 H 0.22106 0.19773 0.42459 0.0
H204 H 0.17474 0.21884 0.32107 0.0
H205 H 0.1575 0.13801 0.2455 0.0
H206 H 0.23152 0.01641 0.38024 0.0
H207 H 0.32445 0.28665 0.57881 0.0
H208 H 0.35776 0.32963 0.47682 0.0
O209 O 0.35501 0.05679 0.44843 0.0
C210 C 0.35377 0.01138 0.58764 0.0
C211 C 0.35785 0.2463 0.43019 0.0
C212 C 0.32805 0.25904 0.53822 0.0
N213 N 0.32121 0.16394 0.49159 0.0
C214 C 0.34885 0.18592 0.43771 0.0
C215 C 0.31311 0.19924 0.5423 0.0
C216 C 0.34825 0.28302 0.48115 0.0
C217 C 0.21783 0.96986 0.62607 0.0
N218 N 0.2347 0.92382 0.588 0.0
C219 C 0.18973 0.96063 0.68527 0.0
C220 C 0.17649 0.90373 0.70559 0.0
C221 C 0.18957 0.85704 0.66586 0.0
C222 C 0.2177 0.86794 0.60698 0.0
C223 C 0.31742 0.76332 0.47516 0.0
C224 C 0.35229 0.84617 0.56285 0.0
C225 C 0.30669 0.82309 0.46389 0.0
N226 N 0.32094 0.86343 0.50886 0.0
C227 C 0.36303 0.78679 0.57584 0.0
C228 C 0.34486 0.74512 0.53183 0.0
C229 C 0.35779 0.01531 0.40973 0.0
C230 C 0.19597 0.07214 0.30811 0.0
C231 C 0.21748 0.16217 0.39152 0.0
C232 C 0.18951 0.1745 0.33304 0.0
C233 C 0.17949 0.12918 0.29082 0.0
N234 N 0.23705 0.10624 0.40783 0.0
C235 C 0.22372 0.06142 0.36703 0.0
Co236 Co 0.4979 0.94127 0.29739 0.0
Co237 Co 0.52105 0.08832 0.28802 0.0
O238 O 0.51137 0.01204 0.24898 0.0
C239 C 0.52345 0.89948 0.16973 0.0
O240 O 0.54121 0.94832 0.14152 0.0
C241 C 0.50538 0.11563 0.15324 0.0
O242 O 0.49543 0.0625 0.13208 0.0
O243 O 0.42658 0.07169 0.32983 0.0
O244 O 0.45447 0.98288 0.36488 0.0
H245 H 0.4859 0.25428 0.44181 0.0
H246 H 0.42884 0.97934 0.1766 0.0
O247 O 0.53852 0.89248 0.22754 0.0
H248 H 0.25256 0.88977 0.30451 0.0
H249 H 0.44229 0.72758 0.32652 0.0
H250 H 0.49878 0.91216 0.43343 0.0
H251 H 0.3672 0.88918 0.34168 0.0
H252 H 0.46671 0.81671 0.26588 0.0
O253 O 0.48674 0.12823 0.20894 0.0
H254 H 0.47696 0.14993 0.40568 0.0
H255 H 0.57947 0.19863 0.23935 0.0
H256 H 0.46128 0.82859 0.4934 0.0
H257 H 0.31608 0.97549 0.13593 0.0
H258 H 0.44483 0.73118 0.44216 0.0
H259 H 0.22591 0.93038 0.19981 0.0
O260 O 0.5866 0.96313 0.34207 0.0
H261 H 0.71511 0.04421 0.14037 0.0
H262 H 0.64949 0.13605 0.3389 0.0
H263 H 0.7663 0.14018 0.30498 0.0
H264 H 0.79981 0.09575 0.20421 0.0
H265 H 0.60038 0.0392 0.17642 0.0
H266 H 0.60191 0.29631 0.28072 0.0
H267 H 0.55348 0.32493 0.38296 0.0
O268 O 0.55994 0.05645 0.36552 0.0
C269 C 0.41212 0.02284 0.36085 0.0
C270 C 0.50855 0.24036 0.39875 0.0
C271 C 0.57363 0.26495 0.30828 0.0
N272 N 0.52858 0.16744 0.32117 0.0
C273 C 0.50245 0.18249 0.37753 0.0
C274 C 0.56067 0.20909 0.2853 0.0
C275 C 0.54653 0.2809 0.36534 0.0
C276 C 0.39238 0.95618 0.20385 0.0
N277 N 0.40843 0.93012 0.2599 0.0
C278 C 0.32738 0.95518 0.18061 0.0
C279 C 0.27685 0.93001 0.21637 0.0
C280 C 0.292 0.90622 0.27461 0.0
C281 C 0.35799 0.90599 0.2953 0.0
C282 C 0.45596 0.76772 0.35008 0.0
C283 C 0.48656 0.87215 0.40912 0.0
C284 C 0.47169 0.81818 0.31589 0.0
N285 N 0.48765 0.8695 0.34547 0.0
C286 C 0.4678 0.82357 0.44418 0.0
C287 C 0.45588 0.77015 0.41492 0.0
C288 C 0.59861 0.01296 0.37094 0.0
C289 C 0.7006 0.06633 0.18301 0.0
C290 C 0.66236 0.11806 0.29376 0.0
C291 C 0.72923 0.12005 0.27531 0.0
C292 C 0.74816 0.09483 0.21896 0.0
N293 N 0.61424 0.09353 0.2563 0.0
C294 C 0.63429 0.065 0.20316 0.0
Co295 Co 0.98999 0.57723 0.21047 0.0
Co296 Co 0.00084 0.42893 0.21871 0.0
O297 O 0.99212 0.50516 0.25916 0.0
C298 C 0.01121 0.61411 0.34085 0.0
O299 O 0.02089 0.56163 0.36422 0.0
C300 C 0.96637 0.40279 0.35129 0.0
O301 O 0.95395 0.45622 0.37024 0.0
O302 O 0.91232 0.45124 0.17041 0.0
O303 O 0.94978 0.53843 0.1389 0.0
H304 H 0.02799 0.27861 0.04577 0.0
H305 H 0.90705 0.54736 0.3266 0.0
O306 O 0.02598 0.62437 0.2835 0.0
H307 H 0.75218 0.64847 0.18592 0.0
H308 H 0.9409 0.78958 0.16631 0.0
H309 H 0.02052 0.60288 0.07897 0.0
H310 H 0.86854 0.6347 0.15467 0.0
H311 H 0.95862 0.7038 0.23524 0.0
O312 O 0.9558 0.38954 0.29393 0.0
H313 H 0.99651 0.37752 0.08741 0.0
H314 H 0.03085 0.31253 0.27098 0.0
H315 H 0.99712 0.68388 0.00984 0.0
H316 H 0.79287 0.56317 0.36049 0.0
H317 H 0.96584 0.78197 0.05312 0.0
H318 H 0.71355 0.6144 0.2901 0.0
O319 O 0.08123 0.5515 0.17427 0.0
H320 H 0.18126 0.45841 0.3834 0.0
H321 H 0.12994 0.37435 0.17758 0.0
H322 H 0.24278 0.36598 0.21939 0.0
H323 H 0.26936 0.4068 0.32358 0.0
H324 H 0.07028 0.46792 0.33946 0.0
H325 H 0.06078 0.2167 0.23055 0.0
H326 H 0.05719 0.19883 0.11653 0.0
O327 O 0.04952 0.46105 0.14618 0.0
C328 C 0.9038 0.50121 0.13976 0.0
C329 C 0.02529 0.28664 0.09503 0.0
C330 C 0.04408 0.25083 0.19884 0.0
N331 N 0.0078 0.35066 0.18221 0.0
C332 C 0.00778 0.34176 0.11911 0.0
C333 C 0.02516 0.30542 0.22163 0.0
C334 C 0.04279 0.24108 0.13507 0.0
C335 C 0.87554 0.57242 0.29641 0.0
N336 N 0.89839 0.59429 0.24036 0.0
C337 C 0.80959 0.58032 0.31573 0.0
C338 C 0.7651 0.60884 0.27628 0.0
C339 C 0.787 0.62856 0.2181 0.0
C340 C 0.85368 0.6209 0.20093 0.0
C341 C 0.96071 0.74927 0.14747 0.0
C342 C 0.00411 0.64384 0.09894 0.0
C343 C 0.97156 0.70075 0.18625 0.0
N344 N 0.99162 0.64848 0.16136 0.0
C345 C 0.99164 0.69054 0.05915 0.0
C346 C 0.9729 0.74449 0.08363 0.0
C347 C 0.09216 0.50184 0.14537 0.0
C348 C 0.16976 0.43836 0.33887 0.0
C349 C 0.13923 0.39078 0.22404 0.0
C350 C 0.20412 0.38631 0.2471 0.0
C351 C 0.2192 0.40966 0.3053 0.0
N352 N 0.08941 0.41716 0.25805 0.0
C353 C 0.10563 0.44262 0.31393 0.0
Co354 Co 0.48999 0.07724 0.71046 0.0
Co355 Co 0.50085 0.92893 0.7187 0.0
O356 O 0.49213 1.00516 0.75916 0.0
C357 C 0.51123 0.11412 0.84085 0.0
O358 O 0.52091 0.06163 0.86421 0.0
C359 C 0.46638 0.90279 0.85129 0.0
O360 O 0.45395 0.95623 0.87023 0.0
O361 O 0.41232 0.95124 0.67041 0.0
O362 O 0.44977 0.03845 0.63889 0.0
H363 H 0.528 0.77861 0.54577 0.0
H364 H 0.40706 0.04737 0.8266 0.0
O365 O 0.52599 0.12438 0.78349 0.0
H366 H 0.25218 0.14848 0.68594 0.0
H367 H 0.4409 0.28959 0.66632 0.0
H368 H 0.52051 0.1029 0.57897 0.0
H369 H 0.36854 0.13471 0.65468 0.0
H370 H 0.45863 0.20381 0.73524 0.0
O371 O 0.4558 0.88954 0.79393 0.0
H372 H 0.49651 0.87752 0.58741 0.0
H373 H 0.53086 0.81253 0.77098 0.0
H374 H 0.4971 0.1839 0.50984 0.0
H375 H 0.29289 0.06319 0.86051 0.0
H376 H 0.46583 0.28199 0.55312 0.0
H377 H 0.21356 0.11442 0.79012 0.0
O378 O 0.58122 0.05151 0.67425 0.0
H379 H 0.68127 0.95841 0.88339 0.0
H380 H 0.62994 0.87435 0.67757 0.0
H381 H 0.74278 0.86599 0.71938 0.0
H382 H 0.76937 0.90681 0.82357 0.0
H383 H 0.57028 0.96792 0.83945 0.0
H384 H 0.5608 0.71671 0.73055 0.0
H385 H 0.5572 0.69884 0.61653 0.0
O386 O 0.54951 0.96105 0.64618 0.0
C387 C 0.40381 1.00121 0.63976 0.0
C388 C 0.5253 0.78664 0.59503 0.0
C389 C 0.5441 0.75083 0.69884 0.0
N390 N 0.5078 0.85066 0.68221 0.0
C391 C 0.50778 0.84176 0.61911 0.0
C392 C 0.52517 0.80542 0.72163 0.0
C393 C 0.54281 0.74108 0.63507 0.0
C394 C 0.37556 0.07243 0.79642 0.0
N395 N 0.39839 0.0943 0.74037 0.0
C396 C 0.3096 0.08034 0.81574 0.0
C397 C 0.26511 0.10886 0.7763 0.0
C398 C 0.28701 0.12858 0.71811 0.0
C399 C 0.35368 0.12091 0.70094 0.0
C400 C 0.46071 0.24929 0.64748 0.0
C401 C 0.50411 0.14386 0.59894 0.0
C402 C 0.47157 0.20076 0.68626 0.0
N403 N 0.49162 0.1485 0.66136 0.0
C404 C 0.49163 0.19055 0.55915 0.0
C405 C 0.47289 0.24451 0.58364 0.0
C406 C 0.59216 1.00184 0.64538 0.0
C407 C 0.66977 0.93836 0.83886 0.0
C408 C 0.63923 0.89079 0.72403 0.0
C409 C 0.70413 0.88632 0.74709 0.0
C410 C 0.71921 0.90967 0.80529 0.0
N411 N 0.58941 0.91716 0.75804 0.0
C412 C 0.60564 0.94262 0.81392 0.0
Co413 Co -0.00211 0.44127 0.79739 0.0
Co414 Co 0.02105 0.58831 0.78802 0.0
O415 O 0.01137 0.51203 0.74898 0.0
C416 C 0.02343 0.39949 0.66973 0.0
O417 O 0.0412 0.44831 0.64151 0.0
C418 C 0.00538 0.61563 0.65324 0.0
O419 O 0.99545 0.56249 0.63207 0.0
O420 O 0.92658 0.57169 0.82982 0.0
O421 O 0.95447 0.48289 0.86488 0.0
H422 H 0.9859 0.75427 0.94182 0.0
H423 H 0.92883 0.47935 0.6766 0.0
O424 O 0.03851 0.39248 0.72754 0.0
H425 H 0.75255 0.38978 0.8045 0.0
H426 H 0.94229 0.22758 0.82652 0.0
H427 H -0.00123 0.41217 0.93343 0.0
H428 H 0.86718 0.38918 0.84167 0.0
H429 H 0.9667 0.31671 0.76589 0.0
O430 O 0.98675 0.62823 0.70894 0.0
H431 H 0.97695 0.64991 0.90568 0.0
H432 H 0.07947 0.69863 0.73935 0.0
H433 H 0.96128 0.3286 0.9934 0.0
H434 H 0.81607 0.47551 0.63593 0.0
H435 H 0.94483 0.23118 0.94217 0.0
H436 H 0.7259 0.43039 0.69981 0.0
O437 O 0.08658 0.46313 0.84207 0.0
H438 H 0.21512 0.5442 0.64038 0.0
H439 H 0.14948 0.63604 0.8389 0.0
H440 H 0.26629 0.64017 0.80499 0.0
H441 H 0.29982 0.59574 0.70422 0.0
H442 H 0.10038 0.53919 0.67642 0.0
H443 H 0.10191 0.7963 0.78072 0.0
H444 H 0.05348 0.82492 0.88296 0.0
O445 O 0.05994 0.55645 0.86552 0.0
C446 C 0.9121 0.52284 0.86084 0.0
C447 C 0.00854 0.74035 0.89875 0.0
C448 C 0.07363 0.76494 0.80829 0.0
N449 N 0.02858 0.66743 0.82117 0.0
C450 C 0.00245 0.68248 0.87753 0.0
C451 C 0.06067 0.70909 0.7853 0.0
C452 C 0.04652 0.78089 0.86535 0.0
C453 C 0.89236 0.45619 0.70385 0.0
N454 N 0.90842 0.43013 0.7599 0.0
C455 C 0.82736 0.45519 0.68061 0.0
C456 C 0.77684 0.43002 0.71637 0.0
C457 C 0.79199 0.40622 0.7746 0.0
C458 C 0.85798 0.406 0.79529 0.0
C459 C 0.95596 0.26772 0.85008 0.0
C460 C 0.98654 0.37216 0.90912 0.0
C461 C 0.97168 0.31818 0.8159 0.0
N462 N 0.98763 0.3695 0.84547 0.0
C463 C 0.96779 0.32357 0.94419 0.0
C464 C 0.95588 0.27015 0.91493 0.0
C465 C 0.0986 0.51294 0.87096 0.0
C466 C 0.2006 0.56632 0.68301 0.0
C467 C 0.16236 0.61805 0.79376 0.0
C468 C 0.22923 0.62003 0.77532 0.0
C469 C 0.24816 0.59482 0.71897 0.0
N470 N 0.11424 0.59352 0.7563 0.0
C471 C 0.13429 0.56499 0.70316 0.0
Co472 Co 0.22943 0.57315 0.02663 0.0
Co473 Co 0.21925 0.42864 0.99537 0.0
O474 O 0.26972 0.49894 0.00591 0.0
C475 C 0.36692 0.61294 0.03452 0.0
O476 O 0.3957 0.56325 0.04928 0.0
C477 C 0.3559 0.38902 0.99324 0.0
O478 O 0.37021 0.43866 0.96478 0.0
O479 O 0.17596 0.44776 0.08228 0.0
O480 O 0.14674 0.5405 0.05927 0.0
H481 H 0.09379 0.27355 0.88277 0.0
H482 H 0.32594 0.4936 0.10016 0.0
O483 O 0.31538 0.61164 0.99877 0.0
H484 H 0.21507 0.61186 0.26037 0.0
H485 H 0.25416 0.78024 0.10415 0.0
H486 H 0.1121 0.64604 0.98187 0.0
H487 H 0.18443 0.62299 0.15092 0.0
H488 H 0.28356 0.6778 0.09306 0.0
O489 O 0.3008 0.38324 0.02435 0.0
H490 H 0.12756 0.37454 0.90187 0.0
H491 H 0.20581 0.32697 0.07861 0.0
H492 H 0.08472 0.75273 0.99037 0.0
H493 H 0.35814 0.48192 0.20878 0.0
H494 H 0.15235 0.81835 0.05296 0.0
H495 H 0.30412 0.54207 0.29081 0.0
O496 O 0.18247 0.56335 0.93936 0.0
H497 H 0.31098 0.49333 0.78298 0.0
H498 H 0.26184 0.32278 0.91746 0.0
H499 H 0.30295 0.30728 0.81096 0.0
H500 H 0.32752 0.39278 0.74225 0.0
H501 H 0.26988 0.50736 0.88929 0.0
H502 H 0.17174 0.22343 0.06178 0.0
H503 H 0.11729 0.19575 0.96205 0.0
O504 O 0.14405 0.47114 0.95918 0.0
C505 C 0.14366 0.49643 0.09513 0.0
C506 C 0.11722 0.28425 0.92642 0.0
C507 C 0.16214 0.25641 0.02646 0.0
N508 N 0.16961 0.35611 0.99078 0.0
C509 C 0.13492 0.34221 0.93817 0.0
C510 C 0.18024 0.3149 0.03618 0.0
C511 C 0.13117 0.24091 0.97064 0.0
C512 C 0.30495 0.5239 0.13321 0.0
N513 N 0.26165 0.56756 0.11509 0.0
C514 C 0.3225 0.51548 0.19593 0.0
C515 C 0.29192 0.54884 0.24195 0.0
C516 C 0.24273 0.58851 0.22485 0.0
C517 C 0.22708 0.59606 0.16162 0.0
C518 C 0.2222 0.75119 0.07774 0.0
C519 C 0.1429 0.67485 0.00954 0.0
C520 C 0.23842 0.69225 0.07094 0.0
N521 N 0.19767 0.65364 0.03953 0.0
C522 C 0.12688 0.7347 0.01364 0.0
C523 C 0.16547 0.77245 0.04914 0.0
C524 C 0.14633 0.5165 0.92465 0.0
C525 C 0.29748 0.45566 0.81141 0.0
C526 C 0.26814 0.36067 0.88739 0.0
C527 C 0.29322 0.35138 0.82715 0.0
C528 C 0.30721 0.39928 0.78871 0.0
N529 N 0.2549 0.41625 0.90898 0.0
C530 C 0.27209 0.46331 0.87183 0.0
Co531 Co 0.50916 0.28263 0.91468 0.0
Co532 Co 0.49565 0.28179 0.07334 0.0
O533 O 0.50513 0.23821 0.99433 0.0
C534 C 0.47998 0.1589 0.882 0.0
O535 O 0.4664 0.14361 0.93983 0.0
C536 C 0.5336 0.16047 0.10946 0.0
O537 O 0.54741 0.14432 0.05208 0.0
O538 O 0.58423 0.32098 0.04975 0.0
O539 O 0.54971 0.35131 0.95547 0.0
H540 H 0.51975 0.46506 0.19903 0.0
H541 H 0.58807 0.17262 0.94499 0.0
O542 O 0.47493 0.2127 0.86528 0.0
H543 H 0.73766 0.29167 0.81384 0.0
H544 H 0.56307 0.32554 0.68752 0.0
H545 H 0.46358 0.40214 0.88143 0.0
H546 H 0.63482 0.33496 0.85742 0.0
H547 H 0.55073 0.26165 0.78052 0.0
O548 O 0.53583 0.21485 0.12389 0.0
H549 H 0.52912 0.40402 0.10584 0.0
H550 H 0.4535 0.25718 0.20695 0.0
H551 H 0.4647 0.46379 0.78662 0.0
H552 H 0.69042 0.12908 0.90442 0.0
H553 H 0.51798 0.42684 0.68949 0.0
H554 H 0.76443 0.18783 0.83482 0.0
O555 O 0.41716 0.31422 0.93853 0.0
H556 H 0.32356 0.11824 0.07853 0.0
H557 H 0.36544 0.32577 0.1275 0.0
H558 H 0.26213 0.27848 0.16445 0.0
H559 H 0.24154 0.17354 0.14215 0.0
H560 H 0.42641 0.16606 0.04465 0.0
H561 H 0.43243 0.31993 0.29855 0.0
H562 H 0.46754 0.42449 0.29599 0.0
O563 O 0.45044 0.34689 0.03132 0.0
C564 C 0.59244 0.35177 0.99882 0.0
C565 C 0.50331 0.42006 0.20104 0.0
C566 C 0.45532 0.33833 0.2569 0.0
N567 N 0.49134 0.32702 0.15031 0.0
C568 C 0.50996 0.38467 0.14844 0.0
C569 C 0.46722 0.30305 0.20474 0.0
C570 C 0.47463 0.39703 0.25532 0.0
C571 C 0.61889 0.19888 0.9148 0.0
N572 N 0.60018 0.25429 0.89722 0.0
C573 C 0.67763 0.17385 0.89228 0.0
C574 C 0.71911 0.20676 0.85342 0.0
C575 C 0.70408 0.26532 0.84182 0.0
C576 C 0.64545 0.28919 0.86637 0.0
C577 C 0.53952 0.34214 0.72949 0.0
C578 C 0.48355 0.38433 0.83863 0.0
C579 C 0.53247 0.3062 0.78239 0.0
N580 N 0.50777 0.32832 0.83714 0.0
C581 C 0.48527 0.42004 0.78529 0.0
C582 C 0.51465 0.3991 0.73071 0.0
C583 C 0.40613 0.34264 0.98998 0.0
C584 C 0.33317 0.16344 0.091 0.0
C585 C 0.35797 0.27963 0.11832 0.0
C586 C 0.29875 0.2534 0.13892 0.0
C587 C 0.28704 0.19452 0.12624 0.0
N588 N 0.40686 0.24711 0.08998 0.0
C589 C 0.39234 0.19089 0.07238 0.0
Co590 Co 0.77688 0.43938 0.00457 0.0
Co591 Co 0.77689 0.58827 0.99158 0.0
O592 O 0.7304 0.51367 0.99605 0.0
C593 C 0.63862 0.40218 0.99637 0.0
O594 O 0.62219 0.44924 0.02792 0.0
C595 C 0.63854 0.62503 0.99843 0.0
O596 O 0.62364 0.57986 0.96328 0.0
O597 O 0.82409 0.56208 0.07614 0.0
O598 O 0.85423 0.47214 0.0467 0.0
H599 H 0.87296 0.76431 0.88533 0.0
H600 H 0.7235 0.51453 0.11056 0.0
O601 O 0.69516 0.39975 0.96744 0.0
H602 H 0.677 0.31268 0.18001 0.0
H603 H 0.80585 0.23116 0.94014 0.0
H604 H 0.86201 0.37718 0.09944 0.0
H605 H 0.72351 0.3311 0.07592 0.0
H606 H 0.78386 0.3369 0.92052 0.0
O607 O 0.69423 0.6264 0.02874 0.0
H608 H 0.85559 0.65805 0.89743 0.0
H609 H 0.79215 0.68163 0.08499 0.0
H610 H 0.88363 0.27318 0.12039 0.0
H611 H 0.67736 0.49759 0.21473 0.0
H612 H 0.85296 0.19894 0.04114 0.0
H613 H 0.65432 0.39603 0.25119 0.0
O614 O 0.82727 0.4646 0.92124 0.0
H615 H 0.68619 0.53612 0.77659 0.0
H616 H 0.72106 0.69774 0.92458 0.0
H617 H 0.67474 0.71884 0.82107 0.0
H618 H 0.65748 0.63801 0.74551 0.0
H619 H 0.7315 0.51641 0.88025 0.0
H620 H 0.82446 0.78666 0.0788 0.0
H621 H 0.85776 0.82964 0.9768 0.0
O622 O 0.85501 0.55679 0.94843 0.0
C623 C 0.85378 0.51139 0.08763 0.0
C624 C 0.85785 0.7463 0.93017 0.0
C625 C 0.82805 0.75904 0.03821 0.0
N626 N 0.82122 0.66395 0.99159 0.0
C627 C 0.84885 0.68592 0.93771 0.0
C628 C 0.81312 0.69924 0.0423 0.0
C629 C 0.84825 0.78302 0.98114 0.0
C630 C 0.71784 0.46986 0.12607 0.0
N631 N 0.7347 0.42382 0.088 0.0
C632 C 0.68974 0.46064 0.18528 0.0
C633 C 0.67649 0.40374 0.2056 0.0
C634 C 0.68957 0.35705 0.16587 0.0
C635 C 0.7177 0.36794 0.10698 0.0
C636 C 0.81741 0.26332 0.97516 0.0
C637 C 0.85229 0.34617 0.06285 0.0
C638 C 0.80668 0.32309 0.96389 0.0
N639 N 0.82094 0.36343 0.00886 0.0
C640 C 0.86302 0.28679 0.07584 0.0
C641 C 0.84485 0.24512 0.03183 0.0
C642 C 0.85777 0.51531 0.90973 0.0
C643 C 0.69595 0.57214 0.80812 0.0
C644 C 0.71748 0.66218 0.89152 0.0
C645 C 0.68951 0.6745 0.83304 0.0
C646 C 0.67948 0.62918 0.79082 0.0
N647 N 0.73704 0.60625 0.90783 0.0
C648 C 0.72371 0.56142 0.86704 0.0
Co649 Co 0.51182 0.73654 0.09587 0.0
Co650 Co 0.47856 0.73519 0.93942 0.0
O651 O 0.49289 0.77968 0.01735 0.0
C652 C 0.47983 0.85768 0.13431 0.0
O653 O 0.45761 0.87511 0.07963 0.0
C654 C 0.49414 0.86014 0.89783 0.0
O655 O 0.50595 0.87898 0.95459 0.0
O656 O 0.5731 0.70364 0.9523 0.0
O657 O 0.55513 0.67213 0.05091 0.0
H658 H 0.5079 0.55671 0.80516 0.0
H659 H 0.57647 0.84924 0.04888 0.0
O660 O 0.47537 0.80322 0.14892 0.0
H661 H 0.74775 0.75296 0.17674 0.0
H662 H 0.58664 0.6998 0.31924 0.0
H663 H 0.48424 0.61365 0.13254 0.0
H664 H 0.64719 0.69861 0.14478 0.0
H665 H 0.56392 0.76183 0.2264 0.0
O666 O 0.50346 0.80592 0.88486 0.0
H667 H 0.51947 0.61588 0.90013 0.0
H668 H 0.41885 0.75783 0.81223 0.0
H669 H 0.49392 0.55483 0.22867 0.0
H670 H 0.67757 0.90319 0.07553 0.0
H671 H 0.54937 0.59662 0.3218 0.0
H672 H 0.76183 0.85697 0.14468 0.0
O673 O 0.42246 0.69562 0.08216 0.0
H674 H 0.28412 0.87584 0.96595 0.0
H675 H 0.35024 0.6779 0.8998 0.0
H676 H 0.23423 0.70959 0.88646 0.0
H677 H 0.20115 0.81036 0.91595 0.0
H678 H 0.39821 0.84196 0.98073 0.0
H679 H 0.39958 0.69751 0.71857 0.0
H680 H 0.4448 0.59622 0.71421 0.0
O681 O 0.44797 0.66592 0.98548 0.0
C682 C 0.59011 0.67327 1.00167 0.0
C683 C 0.48697 0.60033 0.80663 0.0
C684 C 0.42652 0.67945 0.75806 0.0
N685 N 0.46968 0.69031 0.86233 0.0
C686 C 0.49445 0.63456 0.86014 0.0
C687 C 0.43788 0.71349 0.81123 0.0
C688 C 0.4519 0.62266 0.75562 0.0
C689 C 0.61249 0.82778 0.07809 0.0
N690 N 0.60058 0.77322 0.10294 0.0
C691 C 0.67028 0.85889 0.09288 0.0
C692 C 0.71757 0.83291 0.13142 0.0
C693 C 0.70942 0.77459 0.14966 0.0
C694 C 0.6518 0.7444 0.13211 0.0
C695 C 0.56216 0.68157 0.27905 0.0
C696 C 0.50493 0.63372 0.17375 0.0
C697 C 0.54972 0.71606 0.226 0.0
N698 N 0.524 0.6914 0.17303 0.0
C699 C 0.51172 0.59945 0.22771 0.0
C700 C 0.54191 0.62322 0.28024 0.0
C701 C 0.41076 0.66415 0.033 0.0
C702 C 0.29878 0.83289 0.94953 0.0
C703 C 0.33711 0.72223 0.91242 0.0
C704 C 0.27087 0.73967 0.90494 0.0
C705 C 0.25215 0.79605 0.92197 0.0
N706 N 0.3845 0.76035 0.93442 0.0
C707 C 0.36442 0.81369 0.95666 0.0
loop_
_geom_bond_atom_site_label_1
_geom_bond_atom_site_label_2
_geom_bond_distance
_geom_bond_site_symmetry_2
_ccdc_geom_bond_type
Co0 O2 2.143 . S
Co0 O8 2.074 . S
Co0 O11 2.093 1_455 S
Co0 O24 2.097 1_455 S
Co0 N41 2.151 . S
Co0 N49 2.214 . S
Co1 O2 2.160 1_655 S
Co1 O7 2.058 1_655 S
Co1 O17 2.057 1_655 S
Co1 O32 2.037 . S
Co1 N36 2.145 . S
Co1 N57 2.257 . S
O2 Co0 2.143 . S
O2 Co1 2.160 1_455 S
C3 O4 1.278 . S
C3 O11 1.224 . S
O4 C3 1.278 . S
C5 O6 1.245 . S
C5 O17 1.232 . S
O6 C5 1.245 . S
O7 Co1 2.058 1_455 S
O7 C33 1.269 . S
O8 Co0 2.074 . S
O8 C33 1.257 . S
H9 C34 0.930 . S
H10 C40 0.930 . S
O11 Co0 2.093 1_655 S
O11 C3 1.224 . S
H12 C44 0.929 . S
H13 C46 0.930 . S
H14 C47 0.930 . S
H15 C45 0.929 . S
H16 C48 0.928 . S
O17 Co1 2.057 1_455 S
O17 C5 1.232 . S
H18 C37 0.929 . S
H19 C38 0.929 . S
H20 C50 0.931 . S
H21 C42 0.929 . S
H22 C51 0.930 . S
H23 C43 0.931 . S
O24 Co0 2.097 1_655 S
O24 C52 1.214 . S
H25 C53 0.929 . S
H26 C54 0.929 . S
H27 C55 0.930 . S
H28 C56 0.929 . S
H29 C58 0.930 . S
H30 C35 0.930 . S
H31 C39 0.930 . S
O32 Co1 2.037 . S
O32 C52 1.234 . S
C33 O7 1.269 . S
C33 O8 1.257 . S
C34 H9 0.930 . S
C34 C37 1.388 . S
C34 C39 1.418 . S
C35 H30 0.930 . S
C35 C38 1.404 . S
C35 C39 1.353 . S
N36 Co1 2.145 . S
N36 C37 1.397 . S
N36 C38 1.334 . S
C37 H18 0.929 . S
C37 C34 1.388 . S
C37 N36 1.397 . S
C38 H19 0.929 . S
C38 C35 1.404 . S
C38 N36 1.334 . S
C39 H31 0.930 . S
C39 C34 1.418 . S
C39 C35 1.353 . S
C40 H10 0.930 . S
C40 N41 1.330 . S
C40 C42 1.446 . S
N41 Co0 2.151 . S
N41 C40 1.330 . S
N41 C45 1.418 . S
C42 H21 0.929 . S
C42 C40 1.446 . S
C42 C43 1.332 . S
C43 H23 0.931 . S
C43 C42 1.332 . S
C43 C44 1.267 . S
C44 H12 0.929 . S
C44 C43 1.267 . S
C44 C45 1.251 . S
C45 H15 0.929 . S
C45 N41 1.418 . S
C45 C44 1.251 . S
C46 H13 0.930 . S
C46 C48 1.406 . S
C46 C51 1.261 . S
C47 H14 0.930 . S
C47 N49 1.325 . S
C47 C50 1.357 . S
C48 H16 0.928 . S
C48 C46 1.406 . S
C48 N49 1.261 . S
N49 Co0 2.214 . S
N49 C47 1.325 . S
N49 C48 1.261 . S
C50 H20 0.931 . S
C50 C47 1.357 . S
C50 C51 1.312 . S
C51 H22 0.930 . S
C51 C46 1.261 . S
C51 C50 1.312 . S
C52 O24 1.214 . S
C52 O32 1.234 . S
C53 H25 0.929 . S
C53 C56 1.391 . S
C53 C58 1.391 . S
C54 H26 0.929 . S
C54 C55 1.390 . S
C54 N57 1.391 . S
C55 H27 0.930 . S
C55 C54 1.390 . S
C55 C56 1.392 . S
C56 H28 0.929 . S
C56 C53 1.391 . S
C56 C55 1.392 . S
N57 Co1 2.257 . S
N57 C54 1.391 . S
N57 C58 1.388 . S
C58 H29 0.930 . S
C58 C53 1.391 . S
C58 N57 1.388 . S
Co59 O61 2.143 . S
Co59 O67 2.074 . S
Co59 O70 2.093 . S
Co59 O83 2.097 . S
Co59 N100 2.151 . S
Co59 N108 2.214 . S
Co60 O61 2.160 1_565 S
Co60 O66 2.058 . S
Co60 O76 2.057 . S
Co60 O91 2.037 . S
Co60 N95 2.145 . S
Co60 N116 2.257 . S
O61 Co59 2.143 . S
O61 Co60 2.160 1_545 S
C62 O63 1.278 . S
C62 O70 1.224 . S
O63 C62 1.278 . S
C64 O65 1.245 . S
C64 O76 1.232 . S
O65 C64 1.245 . S
O66 Co60 2.058 . S
O66 C92 1.269 . S
O67 Co59 2.074 . S
O67 C92 1.257 1_545 S
H68 C93 0.930 . S
H69 C99 0.930 . S
O70 Co59 2.093 . S
O70 C62 1.224 . S
H71 C103 0.929 . S
H72 C105 0.930 . S
H73 C106 0.930 . S
H74 C104 0.929 . S
H75 C107 0.928 . S
O76 Co60 2.057 . S
O76 C64 1.232 . S
H77 C96 0.929 . S
H78 C97 0.929 . S
H79 C109 0.931 . S
H80 C101 0.929 . S
H81 C110 0.930 . S
H82 C102 0.931 . S
O83 Co59 2.097 . S
O83 C111 1.214 . S
H84 C112 0.929 . S
H85 C113 0.929 . S
H86 C114 0.930 . S
H87 C115 0.929 . S
H88 C117 0.930 . S
H89 C94 0.930 . S
H90 C98 0.930 . S
O91 Co60 2.037 . S
O91 C111 1.234 1_565 S
C92 O66 1.269 . S
C92 O67 1.257 1_565 S
C93 H68 0.930 . S
C93 C96 1.388 . S
C93 C98 1.418 . S
C94 H89 0.930 . S
C94 C97 1.404 . S
C94 C98 1.353 . S
N95 Co60 2.145 . S
N95 C96 1.397 . S
N95 C97 1.334 . S
C96 H77 0.929 . S
C96 C93 1.388 . S
C96 N95 1.397 . S
C97 H78 0.929 . S
C97 C94 1.404 . S
C97 N95 1.334 . S
C98 H90 0.930 . S
C98 C93 1.418 . S
C98 C94 1.353 . S
C99 H69 0.930 . S
C99 N100 1.330 . S
C99 C101 1.446 . S
N100 Co59 2.151 . S
N100 C99 1.330 . S
N100 C104 1.418 . S
C101 H80 0.929 . S
C101 C99 1.446 . S
C101 C102 1.332 . S
C102 H82 0.931 . S
C102 C101 1.332 . S
C102 C103 1.267 . S
C103 H71 0.929 . S
C103 C102 1.267 . S
C103 C104 1.251 . S
C104 H74 0.929 . S
C104 N100 1.418 . S
C104 C103 1.251 . S
C105 H72 0.930 . S
C105 C107 1.406 . S
C105 C110 1.261 . S
C106 H73 0.930 . S
C106 N108 1.325 . S
C106 C109 1.357 . S
C107 H75 0.928 . S
C107 C105 1.406 . S
C107 N108 1.261 . S
N108 Co59 2.214 . S
N108 C106 1.325 . S
N108 C107 1.261 . S
C109 H79 0.931 . S
C109 C106 1.357 . S
C109 C110 1.312 . S
C110 H81 0.930 . S
C110 C105 1.261 . S
C110 C109 1.312 . S
C111 O83 1.214 . S
C111 O91 1.234 1_545 S
C112 H84 0.929 . S
C112 C115 1.391 . S
C112 C117 1.391 . S
C113 H85 0.929 . S
C113 C114 1.390 . S
C113 N116 1.391 . S
C114 H86 0.930 . S
C114 C113 1.390 . S
C114 C115 1.392 . S
C115 H87 0.929 . S
C115 C112 1.391 . S
C115 C114 1.392 . S
N116 Co60 2.257 . S
N116 C113 1.391 . S
N116 C117 1.388 . S
C117 H88 0.930 . S
C117 C112 1.391 . S
C117 N116 1.388 . S
Co118 O120 2.143 . S
Co118 O126 2.074 . S
Co118 O129 2.093 1_455 S
Co118 O142 2.097 1_455 S
Co118 N159 2.151 . S
Co118 N167 2.214 . S
Co119 O120 2.160 1_655 S
Co119 O125 2.058 1_655 S
Co119 O135 2.057 1_655 S
Co119 O150 2.037 . S
Co119 N154 2.145 . S
Co119 N175 2.257 . S
O120 Co118 2.143 . S
O120 Co119 2.160 1_455 S
C121 O122 1.278 . S
C121 O129 1.224 . S
O122 C121 1.278 . S
C123 O124 1.245 . S
C123 O135 1.232 . S
O124 C123 1.245 . S
O125 Co119 2.058 1_455 S
O125 C151 1.269 . S
O126 Co118 2.074 . S
O126 C151 1.257 . S
H127 C152 0.930 . S
H128 C158 0.930 . S
O129 Co118 2.093 1_655 S
O129 C121 1.224 . S
H130 C162 0.929 . S
H131 C164 0.930 . S
H132 C165 0.930 . S
H133 C163 0.929 . S
H134 C166 0.928 . S
O135 Co119 2.057 1_455 S
O135 C123 1.232 . S
H136 C155 0.929 . S
H137 C156 0.929 . S
H138 C168 0.931 . S
H139 C160 0.929 . S
H140 C169 0.930 . S
H141 C161 0.931 . S
O142 Co118 2.097 1_655 S
O142 C170 1.214 . S
H143 C171 0.929 . S
H144 C172 0.929 . S
H145 C173 0.930 . S
H146 C174 0.929 . S
H147 C176 0.930 . S
H148 C153 0.930 . S
H149 C157 0.930 . S
O150 Co119 2.037 . S
O150 C170 1.234 . S
C151 O125 1.269 . S
C151 O126 1.257 . S
C152 H127 0.930 . S
C152 C155 1.388 . S
C152 C157 1.418 . S
C153 H148 0.930 . S
C153 C156 1.404 . S
C153 C157 1.353 . S
N154 Co119 2.145 . S
N154 C155 1.397 . S
N154 C156 1.334 . S
C155 H136 0.929 . S
C155 C152 1.388 . S
C155 N154 1.397 . S
C156 H137 0.929 . S
C156 C153 1.404 . S
C156 N154 1.334 . S
C157 H149 0.930 . S
C157 C152 1.418 . S
C157 C153 1.353 . S
C158 H128 0.930 . S
C158 N159 1.330 . S
C158 C160 1.446 . S
N159 Co118 2.151 . S
N159 C158 1.330 . S
N159 C163 1.418 . S
C160 H139 0.929 . S
C160 C158 1.446 . S
C160 C161 1.332 . S
C161 H141 0.931 . S
C161 C160 1.332 . S
C161 C162 1.267 . S
C162 H130 0.929 . S
C162 C161 1.267 . S
C162 C163 1.251 . S
C163 H133 0.929 . S
C163 N159 1.418 . S
C163 C162 1.251 . S
C164 H131 0.930 . S
C164 C166 1.406 . S
C164 C169 1.261 . S
C165 H132 0.930 . S
C165 N167 1.325 . S
C165 C168 1.357 . S
C166 H134 0.928 . S
C166 C164 1.406 . S
C166 N167 1.261 . S
N167 Co118 2.214 . S
N167 C165 1.325 . S
N167 C166 1.261 . S
C168 H138 0.931 . S
C168 C165 1.357 . S
C168 C169 1.312 . S
C169 H140 0.930 . S
C169 C164 1.261 . S
C169 C168 1.312 . S
C170 O142 1.214 . S
C170 O150 1.234 . S
C171 H143 0.929 . S
C171 C174 1.391 . S
C171 C176 1.391 . S
C172 H144 0.929 . S
C172 C173 1.390 . S
C172 N175 1.391 . S
C173 H145 0.930 . S
C173 C172 1.390 . S
C173 C174 1.392 . S
C174 H146 0.929 . S
C174 C171 1.391 . S
C174 C173 1.392 . S
N175 Co119 2.257 . S
N175 C172 1.391 . S
N175 C176 1.388 . S
C176 H147 0.930 . S
C176 C171 1.391 . S
C176 N175 1.388 . S
Co177 O179 2.143 . S
Co177 O185 2.074 . S
Co177 O188 2.093 . S
Co177 O201 2.097 . S
Co177 N218 2.151 . S
Co177 N226 2.214 . S
Co178 O179 2.160 1_545 S
Co178 O184 2.058 . S
Co178 O194 2.057 . S
Co178 O209 2.037 . S
Co178 N213 2.145 . S
Co178 N234 2.257 . S
O179 Co177 2.143 . S
O179 Co178 2.160 1_565 S
C180 O181 1.278 . S
C180 O188 1.224 . S
O181 C180 1.278 . S
C182 O183 1.245 . S
C182 O194 1.232 . S
O183 C182 1.245 . S
O184 Co178 2.058 . S
O184 C210 1.269 . S
O185 Co177 2.074 . S
O185 C210 1.257 1_565 S
H186 C211 0.930 . S
H187 C217 0.930 . S
O188 Co177 2.093 . S
O188 C180 1.224 . S
H189 C221 0.929 . S
H190 C223 0.930 . S
H191 C224 0.930 . S
H192 C222 0.929 . S
H193 C225 0.928 . S
O194 Co178 2.057 . S
O194 C182 1.232 . S
H195 C214 0.929 . S
H196 C215 0.929 . S
H197 C227 0.931 . S
H198 C219 0.929 . S
H199 C228 0.930 . S
H200 C220 0.931 . S
O201 Co177 2.097 . S
O201 C229 1.214 . S
H202 C230 0.929 . S
H203 C231 0.929 . S
H204 C232 0.930 . S
H205 C233 0.929 . S
H206 C235 0.930 . S
H207 C212 0.930 . S
H208 C216 0.930 . S
O209 Co178 2.037 . S
O209 C229 1.234 1_545 S
C210 O184 1.269 . S
C210 O185 1.257 1_545 S
C211 H186 0.930 . S
C211 C214 1.388 . S
C211 C216 1.418 . S
C212 H207 0.930 . S
C212 C215 1.404 . S
C212 C216 1.353 . S
N213 Co178 2.145 . S
N213 C214 1.397 . S
N213 C215 1.334 . S
C214 H195 0.929 . S
C214 C211 1.388 . S
C214 N213 1.397 . S
C215 H196 0.929 . S
C215 C212 1.404 . S
C215 N213 1.334 . S
C216 H208 0.930 . S
C216 C211 1.418 . S
C216 C212 1.353 . S
C217 H187 0.930 . S
C217 N218 1.330 . S
C217 C219 1.446 . S
N218 Co177 2.151 . S
N218 C217 1.330 . S
N218 C222 1.418 . S
C219 H198 0.929 . S
C219 C217 1.446 . S
C219 C220 1.332 . S
C220 H200 0.931 . S
C220 C219 1.332 . S
C220 C221 1.267 . S
C221 H189 0.929 . S
C221 C220 1.267 . S
C221 C222 1.251 . S
C222 H192 0.929 . S
C222 N218 1.418 . S
C222 C221 1.251 . S
C223 H190 0.930 . S
C223 C225 1.406 . S
C223 C228 1.261 . S
C224 H191 0.930 . S
C224 N226 1.325 . S
C224 C227 1.357 . S
C225 H193 0.928 . S
C225 C223 1.406 . S
C225 N226 1.261 . S
N226 Co177 2.214 . S
N226 C224 1.325 . S
N226 C225 1.261 . S
C227 H197 0.931 . S
C227 C224 1.357 . S
C227 C228 1.312 . S
C228 H199 0.930 . S
C228 C223 1.261 . S
C228 C227 1.312 . S
C229 O201 1.214 . S
C229 O209 1.234 1_565 S
C230 H202 0.929 . S
C230 C233 1.391 . S
C230 C235 1.391 . S
C231 H203 0.929 . S
C231 C232 1.390 . S
C231 N234 1.391 . S
C232 H204 0.930 . S
C232 C231 1.390 . S
C232 C233 1.392 . S
C233 H205 0.929 . S
C233 C230 1.391 . S
C233 C232 1.392 . S
N234 Co178 2.257 . S
N234 C231 1.391 . S
N234 C235 1.388 . S
C235 H206 0.930 . S
C235 C230 1.391 . S
C235 N234 1.388 . S
Co236 O238 2.143 . S
Co236 O244 2.074 . S
Co236 O247 2.093 . S
Co236 O260 2.097 . S
Co236 N277 2.151 . S
Co236 N285 2.214 . S
Co237 O238 2.160 1_545 S
Co237 O243 2.058 . S
Co237 O253 2.057 . S
Co237 O268 2.037 . S
Co237 N272 2.145 . S
Co237 N293 2.257 . S
O238 Co236 2.143 . S
O238 Co237 2.160 1_565 S
C239 O240 1.278 . S
C239 O247 1.224 . S
O240 C239 1.278 . S
C241 O242 1.245 . S
C241 O253 1.232 . S
O242 C241 1.245 . S
O243 Co237 2.058 . S
O243 C269 1.269 . S
O244 Co236 2.074 . S
O244 C269 1.257 1_565 S
H245 C270 0.930 . S
H246 C276 0.930 . S
O247 Co236 2.093 . S
O247 C239 1.224 . S
H248 C280 0.929 . S
H249 C282 0.930 . S
H250 C283 0.930 . S
H251 C281 0.929 . S
H252 C284 0.928 . S
O253 Co237 2.057 . S
O253 C241 1.232 . S
H254 C273 0.929 . S
H255 C274 0.929 . S
H256 C286 0.931 . S
H257 C278 0.929 . S
H258 C287 0.930 . S
H259 C279 0.931 . S
O260 Co236 2.097 . S
O260 C288 1.214 . S
H261 C289 0.929 . S
H262 C290 0.929 . S
H263 C291 0.930 . S
H264 C292 0.929 . S
H265 C294 0.930 . S
H266 C271 0.930 . S
H267 C275 0.930 . S
O268 Co237 2.037 . S
O268 C288 1.234 1_545 S
C269 O243 1.269 . S
C269 O244 1.257 1_545 S
C270 H245 0.930 . S
C270 C273 1.388 . S
C270 C275 1.418 . S
C271 H266 0.930 . S
C271 C274 1.404 . S
C271 C275 1.353 . S
N272 Co237 2.145 . S
N272 C273 1.397 . S
N272 C274 1.334 . S
C273 H254 0.929 . S
C273 C270 1.388 . S
C273 N272 1.397 . S
C274 H255 0.929 . S
C274 C271 1.404 . S
C274 N272 1.334 . S
C275 H267 0.930 . S
C275 C270 1.418 . S
C275 C271 1.353 . S
C276 H246 0.930 . S
C276 N277 1.330 . S
C276 C278 1.446 . S
N277 Co236 2.151 . S
N277 C276 1.330 . S
N277 C281 1.418 . S
C278 H257 0.929 . S
C278 C276 1.446 . S
C278 C279 1.332 . S
C279 H259 0.931 . S
C279 C278 1.332 . S
C279 C280 1.267 . S
C280 H248 0.929 . S
C280 C279 1.267 . S
C280 C281 1.251 . S
C281 H251 0.929 . S
C281 N277 1.418 . S
C281 C280 1.251 . S
C282 H249 0.930 . S
C282 C284 1.406 . S
C282 C287 1.261 . S
C283 H250 0.930 . S
C283 N285 1.325 . S
C283 C286 1.357 . S
C284 H252 0.928 . S
C284 C282 1.406 . S
C284 N285 1.261 . S
N285 Co236 2.214 . S
N285 C283 1.325 . S
N285 C284 1.261 . S
C286 H256 0.931 . S
C286 C283 1.357 . S
C286 C287 1.312 . S
C287 H258 0.930 . S
C287 C282 1.261 . S
C287 C286 1.312 . S
C288 O260 1.214 . S
C288 O268 1.234 1_565 S
C289 H261 0.929 . S
C289 C292 1.391 . S
C289 C294 1.391 . S
C290 H262 0.929 . S
C290 C291 1.390 . S
C290 N293 1.391 . S
C291 H263 0.930 . S
C291 C290 1.390 . S
C291 C292 1.392 . S
C292 H264 0.929 . S
C292 C289 1.391 . S
C292 C291 1.392 . S
N293 Co237 2.257 . S
N293 C290 1.391 . S
N293 C294 1.388 . S
C294 H265 0.930 . S
C294 C289 1.391 . S
C294 N293 1.388 . S
Co295 O297 2.143 . S
Co295 O303 2.074 . S
Co295 O306 2.093 1_655 S
Co295 O319 2.097 1_655 S
Co295 N336 2.151 . S
Co295 N344 2.214 . S
Co296 O297 2.160 1_455 S
Co296 O302 2.058 1_455 S
Co296 O312 2.057 1_455 S
Co296 O327 2.037 . S
Co296 N331 2.145 . S
Co296 N352 2.257 . S
O297 Co295 2.143 . S
O297 Co296 2.160 1_655 S
C298 O299 1.278 . S
C298 O306 1.224 . S
O299 C298 1.278 . S
C300 O301 1.245 . S
C300 O312 1.232 . S
O301 C300 1.245 . S
O302 Co296 2.058 1_655 S
O302 C328 1.269 . S
O303 Co295 2.074 . S
O303 C328 1.257 . S
H304 C329 0.930 . S
H305 C335 0.930 . S
O306 Co295 2.093 1_455 S
O306 C298 1.224 . S
H307 C339 0.929 . S
H308 C341 0.930 . S
H309 C342 0.930 . S
H310 C340 0.929 . S
H311 C343 0.928 . S
O312 Co296 2.057 1_655 S
O312 C300 1.232 . S
H313 C332 0.929 . S
H314 C333 0.929 . S
H315 C345 0.931 1_556 S
H316 C337 0.929 . S
H317 C346 0.930 . S
H318 C338 0.931 . S
O319 Co295 2.097 1_455 S
O319 C347 1.214 . S
H320 C348 0.929 . S
H321 C349 0.929 . S
H322 C350 0.930 . S
H323 C351 0.929 . S
H324 C353 0.930 . S
H325 C330 0.930 . S
H326 C334 0.930 . S
O327 Co296 2.037 . S
O327 C347 1.234 . S
C328 O302 1.269 . S
C328 O303 1.257 . S
C329 H304 0.930 . S
C329 C332 1.388 . S
C329 C334 1.418 . S
C330 H325 0.930 . S
C330 C333 1.404 . S
C330 C334 1.353 . S
N331 Co296 2.145 . S
N331 C332 1.397 . S
N331 C333 1.334 . S
C332 H313 0.929 . S
C332 C329 1.388 . S
C332 N331 1.397 . S
C333 H314 0.929 . S
C333 C330 1.404 . S
C333 N331 1.334 . S
C334 H326 0.930 . S
C334 C329 1.418 . S
C334 C330 1.353 . S
C335 H305 0.930 . S
C335 N336 1.330 . S
C335 C337 1.446 . S
N336 Co295 2.151 . S
N336 C335 1.330 . S
N336 C340 1.418 . S
C337 H316 0.929 . S
C337 C335 1.446 . S
C337 C338 1.332 . S
C338 H318 0.931 . S
C338 C337 1.332 . S
C338 C339 1.267 . S
C339 H307 0.929 . S
C339 C338 1.267 . S
C339 C340 1.251 . S
C340 H310 0.929 . S
C340 N336 1.418 . S
C340 C339 1.251 . S
C341 H308 0.930 . S
C341 C343 1.406 . S
C341 C346 1.261 . S
C342 H309 0.930 . S
C342 N344 1.325 . S
C342 C345 1.357 . S
C343 H311 0.928 . S
C343 C341 1.406 . S
C343 N344 1.261 . S
N344 Co295 2.214 . S
N344 C342 1.325 . S
N344 C343 1.261 . S
C345 H315 0.931 1_554 S
C345 C342 1.357 . S
C345 C346 1.312 . S
C346 H317 0.930 . S
C346 C341 1.261 . S
C346 C345 1.312 . S
C347 O319 1.214 . S
C347 O327 1.234 . S
C348 H320 0.929 . S
C348 C351 1.391 . S
C348 C353 1.391 . S
C349 H321 0.929 . S
C349 C350 1.390 . S
C349 N352 1.391 . S
C350 H322 0.930 . S
C350 C349 1.390 . S
C350 C351 1.392 . S
C351 H323 0.929 . S
C351 C348 1.391 . S
C351 C350 1.392 . S
N352 Co296 2.257 . S
N352 C349 1.391 . S
N352 C353 1.388 . S
C353 H324 0.930 . S
C353 C348 1.391 . S
C353 N352 1.388 . S
Co354 O356 2.143 . S
Co354 O362 2.074 . S
Co354 O365 2.093 . S
Co354 O378 2.097 . S
Co354 N395 2.151 . S
Co354 N403 2.214 . S
Co355 O356 2.160 1_565 S
Co355 O361 2.058 . S
Co355 O371 2.057 . S
Co355 O386 2.037 . S
Co355 N390 2.145 . S
Co355 N411 2.257 . S
O356 Co354 2.143 . S
O356 Co355 2.160 1_545 S
C357 O358 1.278 . S
C357 O365 1.224 . S
O358 C357 1.278 . S
C359 O360 1.245 . S
C359 O371 1.232 . S
O360 C359 1.245 . S
O361 Co355 2.058 . S
O361 C387 1.269 . S
O362 Co354 2.074 . S
O362 C387 1.257 1_545 S
H363 C388 0.930 . S
H364 C394 0.930 . S
O365 Co354 2.093 . S
O365 C357 1.224 . S
H366 C398 0.929 . S
H367 C400 0.930 . S
H368 C401 0.930 . S
H369 C399 0.929 . S
H370 C402 0.928 . S
O371 Co355 2.057 . S
O371 C359 1.232 . S
H372 C391 0.929 . S
H373 C392 0.929 . S
H374 C404 0.931 . S
H375 C396 0.929 . S
H376 C405 0.930 . S
H377 C397 0.931 . S
O378 Co354 2.097 . S
O378 C406 1.214 . S
H379 C407 0.929 . S
H380 C408 0.929 . S
H381 C409 0.930 . S
H382 C410 0.929 . S
H383 C412 0.930 . S
H384 C389 0.930 . S
H385 C393 0.930 . S
O386 Co355 2.037 . S
O386 C406 1.234 1_565 S
C387 O361 1.269 . S
C387 O362 1.257 1_565 S
C388 H363 0.930 . S
C388 C391 1.388 . S
C388 C393 1.418 . S
C389 H384 0.930 . S
C389 C392 1.404 . S
C389 C393 1.353 . S
N390 Co355 2.145 . S
N390 C391 1.397 . S
N390 C392 1.334 . S
C391 H372 0.929 . S
C391 C388 1.388 . S
C391 N390 1.397 . S
C392 H373 0.929 . S
C392 C389 1.404 . S
C392 N390 1.334 . S
C393 H385 0.930 . S
C393 C388 1.418 . S
C393 C389 1.353 . S
C394 H364 0.930 . S
C394 N395 1.330 . S
C394 C396 1.446 . S
N395 Co354 2.151 . S
N395 C394 1.330 . S
N395 C399 1.418 . S
C396 H375 0.929 . S
C396 C394 1.446 . S
C396 C397 1.332 . S
C397 H377 0.931 . S
C397 C396 1.332 . S
C397 C398 1.267 . S
C398 H366 0.929 . S
C398 C397 1.267 . S
C398 C399 1.251 . S
C399 H369 0.929 . S
C399 N395 1.418 . S
C399 C398 1.251 . S
C400 H367 0.930 . S
C400 C402 1.406 . S
C400 C405 1.261 . S
C401 H368 0.930 . S
C401 N403 1.325 . S
C401 C404 1.357 . S
C402 H370 0.928 . S
C402 C400 1.406 . S
C402 N403 1.261 . S
N403 Co354 2.214 . S
N403 C401 1.325 . S
N403 C402 1.261 . S
C404 H374 0.931 . S
C404 C401 1.357 . S
C404 C405 1.312 . S
C405 H376 0.930 . S
C405 C400 1.261 . S
C405 C404 1.312 . S
C406 O378 1.214 . S
C406 O386 1.234 1_545 S
C407 H379 0.929 . S
C407 C410 1.391 . S
C407 C412 1.391 . S
C408 H380 0.929 . S
C408 C409 1.390 . S
C408 N411 1.391 . S
C409 H381 0.930 . S
C409 C408 1.390 . S
C409 C410 1.392 . S
C410 H382 0.929 . S
C410 C407 1.391 . S
C410 C409 1.392 . S
N411 Co355 2.257 . S
N411 C408 1.391 . S
N411 C412 1.388 . S
C412 H383 0.930 . S
C412 C407 1.391 . S
C412 N411 1.388 . S
Co413 O415 2.143 . S
Co413 O421 2.074 . S
Co413 O424 2.093 1_655 S
Co413 O437 2.097 1_655 S
Co413 N454 2.151 . S
Co413 N462 2.214 . S
Co414 O415 2.160 1_455 S
Co414 O420 2.058 1_455 S
Co414 O430 2.053 1_455 S
Co414 O445 2.037 . S
Co414 N449 2.145 . S
Co414 N470 2.257 . S
O415 Co413 2.143 . S
O415 Co414 2.160 1_655 S
C416 O417 1.278 . S
C416 O424 1.224 . S
O417 C416 1.278 . S
C418 O419 1.245 . S
C418 O430 1.240 . S
O419 C418 1.245 . S
O420 Co414 2.058 1_655 S
O420 C446 1.269 . S
O421 Co413 2.074 . S
O421 C446 1.257 . S
H422 C447 0.930 . S
H423 C453 0.930 . S
O424 Co413 2.093 1_455 S
O424 C416 1.224 . S
H425 C457 0.929 . S
H426 C459 0.930 . S
H427 C460 0.930 . S
H428 C458 0.929 . S
H429 C461 0.928 . S
O430 Co414 2.053 1_655 S
O430 C418 1.240 . S
H431 C450 0.929 . S
H432 C451 0.929 . S
H433 C463 0.931 1_554 S
H434 C455 0.929 . S
H435 C464 0.930 . S
H436 C456 0.931 . S
O437 Co413 2.097 1_455 S
O437 C465 1.214 . S
H438 C466 0.929 . S
H439 C467 0.929 . S
H440 C468 0.930 . S
H441 C469 0.929 . S
H442 C471 0.930 . S
H443 C448 0.930 . S
H444 C452 0.930 . S
O445 Co414 2.037 . S
O445 C465 1.234 . S
C446 O420 1.269 . S
C446 O421 1.257 . S
C447 H422 0.930 . S
C447 C450 1.388 . S
C447 C452 1.418 . S
C448 H443 0.930 . S
C448 C451 1.404 . S
C448 C452 1.353 . S
N449 Co414 2.145 . S
N449 C450 1.397 . S
N449 C451 1.334 . S
C450 H431 0.929 . S
C450 C447 1.388 . S
C450 N449 1.397 . S
C451 H432 0.929 . S
C451 C448 1.404 . S
C451 N449 1.334 . S
C452 H444 0.930 . S
C452 C447 1.418 . S
C452 C448 1.353 . S
C453 H423 0.930 . S
C453 N454 1.330 . S
C453 C455 1.446 . S
N454 Co413 2.151 . S
N454 C453 1.330 . S
N454 C458 1.418 . S
C455 H434 0.929 . S
C455 C453 1.446 . S
C455 C456 1.332 . S
C456 H436 0.931 . S
C456 C455 1.332 . S
C456 C457 1.267 . S
C457 H425 0.929 . S
C457 C456 1.267 . S
C457 C458 1.251 . S
C458 H428 0.929 . S
C458 N454 1.418 . S
C458 C457 1.251 . S
C459 H426 0.930 . S
C459 C461 1.406 . S
C459 C464 1.261 . S
C460 H427 0.930 . S
C460 N462 1.325 . S
C460 C463 1.357 . S
C461 H429 0.928 . S
C461 C459 1.406 . S
C461 N462 1.261 . S
N462 Co413 2.214 . S
N462 C460 1.325 . S
N462 C461 1.261 . S
C463 H433 0.931 1_556 S
C463 C460 1.357 . S
C463 C464 1.312 . S
C464 H435 0.930 . S
C464 C459 1.261 . S
C464 C463 1.312 . S
C465 O437 1.214 . S
C465 O445 1.234 . S
C466 H438 0.929 . S
C466 C469 1.391 . S
C466 C471 1.391 . S
C467 H439 0.929 . S
C467 C468 1.390 . S
C467 N470 1.391 . S
C468 H440 0.930 . S
C468 C467 1.390 . S
C468 C469 1.392 . S
C469 H441 0.929 . S
C469 C466 1.391 . S
C469 C468 1.392 . S
N470 Co414 2.257 . S
N470 C467 1.391 . S
N470 C471 1.388 . S
C471 H442 0.930 . S
C471 C466 1.391 . S
C471 N470 1.388 . S
Co472 O474 2.143 . S
Co472 O480 2.074 . S
Co472 O483 2.093 1_554 S
Co472 O496 2.097 1_554 S
Co472 N513 2.151 . S
Co472 N521 2.214 . S
Co473 O474 2.160 1_556 S
Co473 O479 2.058 1_556 S
Co473 O489 2.057 1_556 S
Co473 O504 2.037 . S
Co473 N508 2.145 . S
Co473 N529 2.257 . S
O474 Co472 2.143 . S
O474 Co473 2.160 1_554 S
C475 O476 1.278 . S
C475 O483 1.224 . S
O476 C475 1.278 . S
C477 O478 1.245 . S
C477 O489 1.232 . S
O478 C477 1.245 . S
O479 Co473 2.058 1_554 S
O479 C505 1.269 . S
O480 Co472 2.074 . S
O480 C505 1.257 . S
H481 C506 0.930 . S
H482 C512 0.930 . S
O483 Co472 2.093 1_556 S
O483 C475 1.224 . S
H484 C516 0.929 . S
H485 C518 0.930 . S
H486 C519 0.930 . S
H487 C517 0.929 . S
H488 C520 0.928 . S
O489 Co473 2.057 1_554 S
O489 C477 1.232 . S
H490 C509 0.929 . S
H491 C510 0.929 . S
H492 C522 0.931 . S
H493 C514 0.929 . S
H494 C523 0.930 . S
H495 C515 0.931 . S
O496 Co472 2.097 1_556 S
O496 C524 1.214 . S
H497 C525 0.929 . S
H498 C526 0.929 . S
H499 C527 0.930 . S
H500 C528 0.929 . S
H501 C530 0.930 . S
H502 C507 0.930 . S
H503 C511 0.930 . S
O504 Co473 2.037 . S
O504 C524 1.234 . S
C505 O479 1.269 . S
C505 O480 1.257 . S
C506 H481 0.930 . S
C506 C509 1.388 . S
C506 C511 1.418 . S
C507 H502 0.930 . S
C507 C510 1.404 . S
C507 C511 1.353 . S
N508 Co473 2.145 . S
N508 C509 1.397 . S
N508 C510 1.334 . S
C509 H490 0.929 . S
C509 C506 1.388 . S
C509 N508 1.397 . S
C510 H491 0.929 . S
C510 C507 1.404 . S
C510 N508 1.334 . S
C511 H503 0.930 . S
C511 C506 1.418 . S
C511 C507 1.353 . S
C512 H482 0.930 . S
C512 N513 1.330 . S
C512 C514 1.446 . S
N513 Co472 2.151 . S
N513 C512 1.330 . S
N513 C517 1.418 . S
C514 H493 0.929 . S
C514 C512 1.446 . S
C514 C515 1.332 . S
C515 H495 0.931 . S
C515 C514 1.332 . S
C515 C516 1.267 . S
C516 H484 0.929 . S
C516 C515 1.267 . S
C516 C517 1.251 . S
C517 H487 0.929 . S
C517 N513 1.418 . S
C517 C516 1.251 . S
C518 H485 0.930 . S
C518 C520 1.406 . S
C518 C523 1.261 . S
C519 H486 0.930 . S
C519 N521 1.325 . S
C519 C522 1.357 . S
C520 H488 0.928 . S
C520 C518 1.406 . S
C520 N521 1.261 . S
N521 Co472 2.214 . S
N521 C519 1.325 . S
N521 C520 1.261 . S
C522 H492 0.931 . S
C522 C519 1.357 . S
C522 C523 1.312 . S
C523 H494 0.930 . S
C523 C518 1.261 . S
C523 C522 1.312 . S
C524 O496 1.214 . S
C524 O504 1.234 . S
C525 H497 0.929 . S
C525 C528 1.391 . S
C525 C530 1.391 . S
C526 H498 0.929 . S
C526 C527 1.390 . S
C526 N529 1.391 . S
C527 H499 0.930 . S
C527 C526 1.390 . S
C527 C528 1.392 . S
C528 H500 0.929 . S
C528 C525 1.391 . S
C528 C527 1.392 . S
N529 Co473 2.257 . S
N529 C526 1.391 . S
N529 C530 1.388 . S
C530 H501 0.930 . S
C530 C525 1.391 . S
C530 N529 1.388 . S
Co531 O533 2.143 . S
Co531 O539 2.074 . S
Co531 O542 2.093 . S
Co531 O555 2.097 . S
Co531 N572 2.151 . S
Co531 N580 2.214 . S
Co532 O533 2.160 1_554 S
Co532 O538 2.058 . S
Co532 O548 2.057 . S
Co532 O563 2.037 . S
Co532 N567 2.145 . S
Co532 N588 2.257 . S
O533 Co531 2.143 . S
O533 Co532 2.160 1_556 S
C534 O535 1.278 . S
C534 O542 1.224 . S
O535 C534 1.278 . S
C536 O537 1.245 . S
C536 O548 1.232 . S
O537 C536 1.245 . S
O538 Co532 2.058 . S
O538 C564 1.269 . S
O539 Co531 2.074 . S
O539 C564 1.257 1_556 S
H540 C565 0.930 . S
H541 C571 0.930 . S
O542 Co531 2.093 . S
O542 C534 1.224 . S
H543 C575 0.929 . S
H544 C577 0.930 . S
H545 C578 0.930 . S
H546 C576 0.929 . S
H547 C579 0.928 . S
O548 Co532 2.057 . S
O548 C536 1.232 . S
H549 C568 0.929 . S
H550 C569 0.929 . S
H551 C581 0.931 . S
H552 C573 0.929 . S
H553 C582 0.930 . S
H554 C574 0.931 . S
O555 Co531 2.097 . S
O555 C583 1.214 . S
H556 C584 0.929 . S
H557 C585 0.929 . S
H558 C586 0.930 . S
H559 C587 0.929 . S
H560 C589 0.930 . S
H561 C566 0.930 . S
H562 C570 0.930 . S
O563 Co532 2.037 . S
O563 C583 1.234 1_554 S
C564 O538 1.269 . S
C564 O539 1.257 1_554 S
C565 H540 0.930 . S
C565 C568 1.388 . S
C565 C570 1.418 . S
C566 H561 0.930 . S
C566 C569 1.404 . S
C566 C570 1.353 . S
N567 Co532 2.145 . S
N567 C568 1.397 . S
N567 C569 1.334 . S
C568 H549 0.929 . S
C568 C565 1.388 . S
C568 N567 1.397 . S
C569 H550 0.929 . S
C569 C566 1.404 . S
C569 N567 1.334 . S
C570 H562 0.930 . S
C570 C565 1.418 . S
C570 C566 1.353 . S
C571 H541 0.930 . S
C571 N572 1.330 . S
C571 C573 1.446 . S
N572 Co531 2.151 . S
N572 C571 1.330 . S
N572 C576 1.418 . S
C573 H552 0.929 . S
C573 C571 1.446 . S
C573 C574 1.332 . S
C574 H554 0.931 . S
C574 C573 1.332 . S
C574 C575 1.267 . S
C575 H543 0.929 . S
C575 C574 1.267 . S
C575 C576 1.251 . S
C576 H546 0.929 . S
C576 N572 1.418 . S
C576 C575 1.251 . S
C577 H544 0.930 . S
C577 C579 1.406 . S
C577 C582 1.261 . S
C578 H545 0.930 . S
C578 N580 1.325 . S
C578 C581 1.357 . S
C579 H547 0.928 . S
C579 C577 1.406 . S
C579 N580 1.261 . S
N580 Co531 2.214 . S
N580 C578 1.325 . S
N580 C579 1.261 . S
C581 H551 0.931 . S
C581 C578 1.357 . S
C581 C582 1.312 . S
C582 H553 0.930 . S
C582 C577 1.261 . S
C582 C581 1.312 . S
C583 O555 1.214 . S
C583 O563 1.234 1_556 S
C584 H556 0.929 . S
C584 C587 1.391 . S
C584 C589 1.391 . S
C585 H557 0.929 . S
C585 C586 1.390 . S
C585 N588 1.391 . S
C586 H558 0.930 . S
C586 C585 1.390 . S
C586 C587 1.392 . S
C587 H559 0.929 . S
C587 C584 1.391 . S
C587 C586 1.392 . S
N588 Co532 2.257 . S
N588 C585 1.391 . S
N588 C589 1.388 . S
C589 H560 0.930 . S
C589 C584 1.391 . S
C589 N588 1.388 . S
Co590 O592 2.143 . S
Co590 O598 2.074 . S
Co590 O601 2.093 1_554 S
Co590 O614 2.097 1_554 S
Co590 N631 2.151 . S
Co590 N639 2.214 . S
Co591 O592 2.160 1_556 S
Co591 O597 2.058 1_556 S
Co591 O607 2.057 1_556 S
Co591 O622 2.037 . S
Co591 N626 2.145 . S
Co591 N647 2.257 . S
O592 Co590 2.143 . S
O592 Co591 2.160 1_554 S
C593 O594 1.278 . S
C593 O601 1.224 . S
O594 C593 1.278 . S
C595 O596 1.245 . S
C595 O607 1.232 . S
O596 C595 1.245 . S
O597 Co591 2.058 1_554 S
O597 C623 1.269 . S
O598 Co590 2.074 . S
O598 C623 1.257 . S
H599 C624 0.930 . S
H600 C630 0.930 . S
O601 Co590 2.093 1_556 S
O601 C593 1.224 . S
H602 C634 0.929 . S
H603 C636 0.930 . S
H604 C637 0.930 . S
H605 C635 0.929 . S
H606 C638 0.928 . S
O607 Co591 2.057 1_554 S
O607 C595 1.232 . S
H608 C627 0.929 . S
H609 C628 0.929 . S
H610 C640 0.922 1_455 S
H611 C632 0.929 . S
H612 C641 0.930 . S
H613 C633 0.931 . S
O614 Co590 2.097 1_556 S
O614 C642 1.214 . S
H615 C643 0.929 . S
H616 C644 0.929 . S
H617 C645 0.930 . S
H618 C646 0.929 . S
H619 C648 0.930 . S
H620 C625 0.930 . S
H621 C629 0.930 . S
O622 Co591 2.037 . S
O622 C642 1.234 . S
C623 O597 1.269 . S
C623 O598 1.257 . S
C624 H599 0.930 . S
C624 C627 1.388 . S
C624 C629 1.418 . S
C625 H620 0.930 . S
C625 C628 1.404 . S
C625 C629 1.353 . S
N626 Co591 2.145 . S
N626 C627 1.397 . S
N626 C628 1.334 . S
C627 H608 0.929 . S
C627 C624 1.388 . S
C627 N626 1.397 . S
C628 H609 0.929 . S
C628 C625 1.404 . S
C628 N626 1.334 . S
C629 H621 0.930 . S
C629 C624 1.418 . S
C629 C625 1.353 . S
C630 H600 0.930 . S
C630 N631 1.330 . S
C630 C632 1.446 . S
N631 Co590 2.151 . S
N631 C630 1.330 . S
N631 C635 1.418 . S
C632 H611 0.929 . S
C632 C630 1.446 . S
C632 C633 1.332 . S
C633 H613 0.931 . S
C633 C632 1.332 . S
C633 C634 1.267 . S
C634 H602 0.929 . S
C634 C633 1.267 . S
C634 C635 1.251 . S
C635 H605 0.929 . S
C635 N631 1.418 . S
C635 C634 1.251 . S
C636 H603 0.930 . S
C636 C638 1.406 . S
C636 C641 1.261 . S
C637 H604 0.930 . S
C637 N639 1.325 . S
C637 C640 1.357 . S
C638 H606 0.928 . S
C638 C636 1.406 . S
C638 N639 1.261 . S
N639 Co590 2.214 . S
N639 C637 1.325 . S
N639 C638 1.261 . S
C640 H610 0.922 1_655 S
C640 C637 1.357 . S
C640 C641 1.312 . S
C641 H612 0.930 . S
C641 C636 1.261 . S
C641 C640 1.312 . S
C642 O614 1.214 . S
C642 O622 1.234 . S
C643 H615 0.929 . S
C643 C646 1.391 . S
C643 C648 1.391 . S
C644 H616 0.929 . S
C644 C645 1.390 . S
C644 N647 1.391 . S
C645 H617 0.930 . S
C645 C644 1.390 . S
C645 C646 1.392 . S
C646 H618 0.929 . S
C646 C643 1.391 . S
C646 C645 1.392 . S
N647 Co591 2.257 . S
N647 C644 1.391 . S
N647 C648 1.388 . S
C648 H619 0.930 . S
C648 C643 1.391 . S
C648 N647 1.388 . S
Co649 O651 2.143 . S
Co649 O657 2.074 . S
Co649 O660 2.093 . S
Co649 O673 2.097 . S
Co649 N690 2.151 . S
Co649 N698 2.214 . S
Co650 O651 2.160 1_556 S
Co650 O656 2.058 . S
Co650 O666 2.057 . S
Co650 O681 2.037 . S
Co650 N685 2.145 . S
Co650 N706 2.257 . S
O651 Co649 2.143 . S
O651 Co650 2.160 1_554 S
C652 O653 1.278 . S
C652 O660 1.224 . S
O653 C652 1.278 . S
C654 O655 1.245 . S
C654 O666 1.232 . S
O655 C654 1.245 . S
O656 Co650 2.058 . S
O656 C682 1.269 . S
O657 Co649 2.074 . S
O657 C682 1.257 1_554 S
H658 C683 0.930 . S
H659 C689 0.930 . S
O660 Co649 2.093 . S
O660 C652 1.224 . S
H661 C693 0.929 . S
H662 C695 0.930 . S
H663 C696 0.930 . S
H664 C694 0.929 . S
H665 C697 0.928 . S
O666 Co650 2.057 . S
O666 C654 1.232 . S
H667 C686 0.929 . S
H668 C687 0.929 . S
H669 C699 0.931 . S
H670 C691 0.929 . S
H671 C700 0.930 . S
H672 C692 0.931 . S
O673 Co649 2.097 . S
O673 C701 1.214 . S
H674 C702 0.929 . S
H675 C703 0.929 . S
H676 C704 0.930 . S
H677 C705 0.929 . S
H678 C707 0.930 . S
H679 C684 0.930 . S
H680 C688 0.930 . S
O681 Co650 2.037 . S
O681 C701 1.234 1_556 S
C682 O656 1.269 . S
C682 O657 1.257 1_556 S
C683 H658 0.930 . S
C683 C686 1.388 . S
C683 C688 1.418 . S
C684 H679 0.930 . S
C684 C687 1.404 . S
C684 C688 1.353 . S
N685 Co650 2.145 . S
N685 C686 1.397 . S
N685 C687 1.334 . S
C686 H667 0.929 . S
C686 C683 1.388 . S
C686 N685 1.397 . S
C687 H668 0.929 . S
C687 C684 1.404 . S
C687 N685 1.334 . S
C688 H680 0.930 . S
C688 C683 1.418 . S
C688 C684 1.353 . S
C689 H659 0.930 . S
C689 N690 1.330 . S
C689 C691 1.446 . S
N690 Co649 2.151 . S
N690 C689 1.330 . S
N690 C694 1.418 . S
C691 H670 0.929 . S
C691 C689 1.446 . S
C691 C692 1.332 . S
C692 H672 0.931 . S
C692 C691 1.332 . S
C692 C693 1.267 . S
C693 H661 0.929 . S
C693 C692 1.267 . S
C693 C694 1.251 . S
C694 H664 0.929 . S
C694 N690 1.418 . S
C694 C693 1.251 . S
C695 H662 0.930 . S
C695 C697 1.406 . S
C695 C700 1.261 . S
C696 H663 0.930 . S
C696 N698 1.325 . S
C696 C699 1.357 . S
C697 H665 0.928 . S
C697 C695 1.406 . S
C697 N698 1.261 . S
N698 Co649 2.214 . S
N698 C696 1.325 . S
N698 C697 1.261 . S
C699 H669 0.931 . S
C699 C696 1.357 . S
C699 C700 1.312 . S
C700 H671 0.930 . S
C700 C695 1.261 . S
C700 C699 1.312 . S
C701 O673 1.214 . S
C701 O681 1.234 1_554 S
C702 H674 0.929 . S
C702 C705 1.391 . S
C702 C707 1.391 . S
C703 H675 0.929 . S
C703 C704 1.390 . S
C703 N706 1.391 . S
C704 H676 0.930 . S
C704 C703 1.390 . S
C704 C705 1.392 . S
C705 H677 0.929 . S
C705 C702 1.391 . S
C705 C704 1.392 . S
N706 Co650 2.257 . S
N706 C703 1.391 . S
N706 C707 1.388 . S
C707 H678 0.930 . S
C707 C702 1.391 . S
C707 N706 1.388 . S
C5 C300 2.283 1_455 S
C111 C288 2.099 1_545 S
C298 C121 2.346 1_455 S
C229 C269 2.106 1_565 S
C418 C123 2.283 1_655 S
C387 C210 2.104 1_565 S
C3 C416 2.346 1_655 S
C406 C92 2.100 1_545 S
C583 C477 2.177 1_556 S
C475 C701 2.211 1_556 S
C564 C593 2.220 1_554 S
C595 C682 2.182 1_554 S
C654 C359 2.283 . S
C524 C465 2.099 . S
C357 C534 2.346 . S
C446 C642 2.106 . S
C241 C536 2.283 . S
C328 C623 2.104 . S
C652 C239 2.346 . S
C505 C347 2.100 . S
C64 C170 2.177 . S
C52 C62 2.211 . S
C151 C180 2.220 . S
C33 C182 2.182 . S
