# Generated by pormake.
# Topology vby, (6)-cn, num edge types: 1
# Building blocks:
#     Node 0, Type 0, BuildingBlock: NUHQIS_clean_sbu_0, # of connection points: 6
#     Node 1, Type 0, BuildingBlock: NUHQIS_clean_sbu_0, # of connection points: 6
#     Node 2, Type 0, BuildingBlock: NUHQIS_clean_sbu_0, # of connection points: 6
#     Node 3, Type 0, BuildingBlock: NUHQIS_clean_sbu_0, # of connection points: 6
#     Node 4, Type 0, BuildingBlock: NUHQIS_clean_sbu_0, # of connection points: 6
#     Node 5, Type 0, BuildingBlock: NUHQIS_clean_sbu_0, # of connection points: 6
#     Node 6, Type 0, BuildingBlock: NUHQIS_clean_sbu_0, # of connection points: 6
#     Node 7, Type 0, BuildingBlock: NUHQIS_clean_sbu_0, # of connection points: 6
#     Edge 8, Type (0, 0), BuildingBlock: KIFKEQ_clean_linker_1, # of connection points: 2
#     Edge 9, Type (0, 0), BuildingBlock: KIFKEQ_clean_linker_1, # of connection points: 2
#     Edge 10, Type (0, 0), BuildingBlock: KIFKEQ_clean_linker_1, # of connection points: 2
#     Edge 11, Type (0, 0), BuildingBlock: KIFKEQ_clean_linker_1, # of connection points: 2
#     Edge 12, Type (0, 0), BuildingBlock: KIFKEQ_clean_linker_1, # of connection points: 2
#     Edge 13, Type (0, 0), BuildingBlock: KIFKEQ_clean_linker_1, # of connection points: 2
#     Edge 14, Type (0, 0), BuildingBlock: KIFKEQ_clean_linker_1, # of connection points: 2
#     Edge 15, Type (0, 0), BuildingBlock: KIFKEQ_clean_linker_1, # of connection points: 2
#     Edge 16, Type (0, 0), BuildingBlock: KIFKEQ_clean_linker_1, # of connection points: 2
#     Edge 17, Type (0, 0), BuildingBlock: KIFKEQ_clean_linker_1, # of connection points: 2
#     Edge 18, Type (0, 0), BuildingBlock: KIFKEQ_clean_linker_1, # of connection points: 2
#     Edge 19, Type (0, 0), BuildingBlock: KIFKEQ_clean_linker_1, # of connection points: 2
#     Edge 20, Type (0, 0), BuildingBlock: KIFKEQ_clean_linker_1, # of connection points: 2
#     Edge 21, Type (0, 0), BuildingBlock: KIFKEQ_clean_linker_1, # of connection points: 2
#     Edge 22, Type (0, 0), BuildingBlock: KIFKEQ_clean_linker_1, # of connection points: 2
#     Edge 23, Type (0, 0), BuildingBlock: KIFKEQ_clean_linker_1, # of connection points: 2
#     Edge 24, Type (0, 0), BuildingBlock: KIFKEQ_clean_linker_1, # of connection points: 2
#     Edge 25, Type (0, 0), BuildingBlock: KIFKEQ_clean_linker_1, # of connection points: 2
#     Edge 26, Type (0, 0), BuildingBlock: KIFKEQ_clean_linker_1, # of connection points: 2
#     Edge 27, Type (0, 0), BuildingBlock: KIFKEQ_clean_linker_1, # of connection points: 2
#     Edge 28, Type (0, 0), BuildingBlock: KIFKEQ_clean_linker_1, # of connection points: 2
#     Edge 29, Type (0, 0), BuildingBlock: KIFKEQ_clean_linker_1, # of connection points: 2
#     Edge 30, Type (0, 0), BuildingBlock: KIFKEQ_clean_linker_1, # of connection points: 2
#     Edge 31, Type (0, 0), BuildingBlock: KIFKEQ_clean_linker_1, # of connection points: 2
# Relax obj value: 0.198
# Max RMSD: 0.229
# Mean RMSD: 0.217
data_MOF--net-vby--node1-NUHQIS_clean_sbu_0--edge1-KIFKEQ_clean_linker_1
_symmetry_space_group_name_H-M    P1
_symmetry_Int_Tables_number       1
_symmetry_cell_setting            triclinic
loop_
_symmetry_equiv_pos_as_xyz
'x, y, z'
_cell_length_a     15.581329
_cell_length_b     103.11596
_cell_length_c     30.796851
_cell_angle_alpha  85.688303
_cell_angle_beta   88.968324
_cell_angle_gamma 89.78288
loop_
_atom_site_label
_atom_site_type_symbol
_atom_site_fract_x
_atom_site_fract_y
_atom_site_fract_z
_atom_type_partial_charge
Tb0 Tb 0.06998 0.41489 0.01612 0.0
Eu1 Eu 0.06352 0.38273 0.01859 0.0
C2 C 0.0554 0.39776 0.10316 0.0
C3 C 0.24189 0.39814 0.01789 0.0
C4 C 0.05231 0.4521 -0.00201 0.0
C5 C 0.99806 0.47357 0.0119 0.0
C6 C 1.00948 0.46043 0.02521 0.0
C7 C 0.0788 0.457 0.95601 0.0
C8 C 0.06773 0.47016 0.94277 0.0
C9 C 1.02999 0.47867 0.97118 0.0
C10 C 0.08287 0.43932 0.01664 0.0
O11 O 1.03952 0.41045 0.95018 0.0
O12 O 0.10341 0.39028 0.95102 0.0
O13 O 0.93027 0.38939 0.00256 0.0
O14 O 0.93295 0.41049 0.0226 0.0
C15 C 0.07203 0.40073 0.92985 0.0
O16 O 1.03246 0.36477 0.98883 0.0
O17 O 0.07835 0.36402 0.05522 0.0
O18 O 1.01472 0.38914 0.08232 0.0
O19 O 0.10024 0.40695 0.08163 0.0
O20 O 0.201 0.40873 0.00367 0.0
O21 O 0.20121 0.38743 0.03159 0.0
C22 C 0.89112 0.40017 0.01164 0.0
O23 O 1.03206 0.43231 0.04301 0.0
O24 O 0.12789 0.43221 0.9914 0.0
C25 C 0.10271 0.34534 0.01565 0.0
C26 C 0.17794 0.32062 0.00944 0.0
C27 C 0.10274 0.32408 0.98677 0.0
C28 C 0.06543 0.33629 0.98999 0.0
C29 C 0.17983 0.34214 0.03697 0.0
C30 C 0.21718 0.32988 0.03383 0.0
C31 C 0.05516 0.35737 0.02298 0.0
H32 H 0.96943 0.47988 0.03473 0.0
H33 H 0.98949 0.45697 0.05792 0.0
H34 H 0.11235 0.45086 0.93422 0.0
H35 H 0.09197 0.47378 0.91098 0.0
H36 H 0.07189 0.31726 0.967 0.0
H37 H 1.00587 0.33854 0.97336 0.0
H38 H 0.2099 0.34894 0.05709 0.0
H39 H 0.27492 0.32749 0.05182 0.0
Tb40 Tb 1.03145 0.63702 0.01762 0.0
Eu41 Eu 1.03678 0.66905 0.01162 0.0
C42 C 1.04251 0.65197 0.10058 0.0
C43 C 0.85903 0.65365 0.01746 0.0
C44 C 0.05031 0.60047 0.00401 0.0
C45 C 0.098 0.57812 0.01865 0.0
C46 C 0.08558 0.59063 0.03224 0.0
C47 C 1.03238 0.59777 0.96099 0.0
C48 C 1.04432 0.58523 0.94747 0.0
C49 C 0.07461 0.57518 0.97662 0.0
C50 C 1.01898 0.61251 0.02216 0.0
O51 O 0.06963 0.6434 0.9512 0.0
O52 O 0.99515 0.66259 0.94713 0.0
O53 O 0.17117 0.66277 -0.00361 0.0
O54 O 0.16742 0.64144 0.02457 0.0
C55 C 1.03251 0.65303 0.92818 0.0
O56 O 0.06338 0.68763 0.97481 0.0
O57 O 1.02533 0.68714 0.04314 0.0
O58 O 0.08281 0.66124 0.07716 0.0
O59 O 0.99813 0.64327 0.08171 0.0
O60 O 0.9007 0.64348 0.00468 0.0
O61 O 0.89925 0.66402 0.02867 0.0
C62 C 0.21006 0.65193 0.00989 0.0
O63 O 0.0699 0.61872 0.04653 0.0
O64 O 0.97317 0.62041 -0.00302 0.0
C65 C 0.99109 0.70614 -0.00115 0.0
C66 C 0.90049 0.72985 0.99044 0.0
C67 C 0.98472 0.729 0.97376 0.0
C68 C 1.02962 0.71724 0.97805 0.0
C69 C 0.9056 0.70677 0.01375 0.0
C70 C 0.86073 0.71855 0.00967 0.0
C71 C 1.04365 0.69441 0.00768 0.0
H72 H 0.12074 0.57057 0.04202 0.0
H73 H 0.09893 0.59241 0.06569 0.0
H74 H 1.00499 0.60514 0.93838 0.0
H75 H 1.0268 0.58329 0.91471 0.0
H76 H 1.01739 0.73754 0.95917 0.0
H77 H 0.09561 0.71693 0.96644 0.0
H78 H 0.8744 0.69828 0.02966 0.0
H79 H 0.79548 0.71889 0.02229 0.0
Tb80 Tb 0.0533 0.669 0.5086 0.0
Eu81 Eu 0.0607 0.63699 0.5213 0.0
C82 C 0.05403 0.65202 0.42841 0.0
C83 C 0.88084 0.65253 0.51502 0.0
C84 C 0.09794 0.70487 0.48555 0.0
C85 C 0.10313 0.72788 0.46291 0.0
C86 C 0.05662 0.71638 0.47062 0.0
C87 C 0.18732 0.70476 0.49038 0.0
C88 C 0.23401 0.71629 0.48276 0.0
C89 C 0.19194 0.72805 0.47014 0.0
C90 C 1.04523 0.69352 0.49963 0.0
O91 O 1.01433 0.66303 0.57537 0.0
O92 O 0.1015 0.64536 0.58252 0.0
O93 O 0.1937 0.6436 0.50197 0.0
O94 O 0.18865 0.66477 0.5205 0.0
C95 C 0.05697 0.65443 0.60003 0.0
O96 O 1.03832 0.61924 0.56335 0.0
O97 O 0.10438 0.61833 0.50065 0.0
O98 O 1.02097 0.64222 0.45264 0.0
O99 O 0.08958 0.6619 0.44592 0.0
O100 O 0.92204 0.66298 0.49917 0.0
O101 O 0.92096 0.64198 0.5306 0.0
C102 C 0.23202 0.65439 0.51062 0.0
O103 O 1.02247 0.686 0.46974 0.0
O104 O 0.06797 0.6869 0.53532 0.0
C105 C 1.04076 0.59877 0.53229 0.0
C106 C 1.00539 0.57227 0.52507 0.0
C107 C 1.02692 0.57678 0.56542 0.0
C108 C 1.04433 0.5899 0.56893 0.0
C109 C 1.0149 0.59449 0.49235 0.0
C110 C 0.99713 0.58132 0.4888 0.0
C111 C 0.07537 0.61186 0.53591 0.0
H112 H 0.0686 0.73677 0.45371 0.0
H113 H 0.98761 0.71661 0.46678 0.0
H114 H 0.2204 0.69591 0.50161 0.0
H115 H 0.30255 0.71609 0.48807 0.0
H116 H 1.03516 0.57009 0.59387 0.0
H117 H 0.06495 0.593 0.59993 0.0
H118 H 1.01162 0.60119 0.4636 0.0
H119 H 0.97943 0.57818 0.45742 0.0
Tb120 Tb 1.02413 0.41127 0.50787 0.0
Eu121 Eu 1.03237 0.37933 0.52724 0.0
C122 C 1.0252 0.39303 0.43141 0.0
C123 C 0.85526 0.39449 0.51871 0.0
C124 C 1.03371 0.44845 0.49867 0.0
C125 C 0.07403 0.47032 0.47139 0.0
C126 C 0.06694 0.45709 0.46529 0.0
C127 C 1.01261 0.4531 0.53928 0.0
C128 C 1.01913 0.46635 0.54528 0.0
C129 C 0.04716 0.47513 0.51091 0.0
C130 C 1.00799 0.43535 0.48798 0.0
O131 O 0.06239 0.40942 0.57538 0.0
O132 O 1.02034 0.38815 0.59175 0.0
O133 O 0.16463 0.38638 0.53978 0.0
O134 O 0.16064 0.40628 0.50076 0.0
C135 C 1.04573 0.3995 0.60346 0.0
O136 O 0.98788 0.36211 0.56646 0.0
O137 O 0.08647 0.36027 0.51646 0.0
O138 O 0.06076 0.38354 0.45559 0.0
O139 O 0.98649 0.40268 0.44902 0.0
O140 O 0.89711 0.40463 0.53068 0.0
O141 O 0.8966 0.38411 0.50753 0.0
C142 C 0.20361 0.39654 0.52046 0.0
O143 O 0.06467 0.42808 0.46976 0.0
O144 O 0.95921 0.42867 0.51612 0.0
C145 C 1.0014 0.34161 0.53755 0.0
C146 C 0.9378 0.31674 0.52402 0.0
C147 C 0.95277 0.32031 0.56635 0.0
C148 C 0.98429 0.33261 0.57298 0.0
C149 C 0.98612 0.33818 0.49512 0.0
C150 C 0.95468 0.3258 0.4884 0.0
C151 C 1.03779 0.35423 0.54639 0.0
H152 H 0.09538 0.47689 0.44425 0.0
H153 H 0.08277 0.45374 0.43359 0.0
H154 H 0.98687 0.44665 0.56569 0.0
H155 H 0.99919 0.46979 0.57628 0.0
H156 H 0.94167 0.3135 0.59439 0.0
H157 H 0.99627 0.33507 0.60594 0.0
H158 H 0.99879 0.34501 0.46729 0.0
H159 H 0.94298 0.32334 0.45544 0.0
Tb160 Tb 0.56041 0.91432 0.01906 0.0
Eu161 Eu 0.55471 0.88209 0.02843 0.0
C162 C 0.54639 0.89884 0.1095 0.0
C163 C 0.73279 0.89766 0.02523 0.0
C164 C 0.5414 0.9514 -0.00655 0.0
C165 C 0.4857 0.97293 0.00546 0.0
C166 C 0.49787 0.95989 0.01987 0.0
C167 C 0.56783 0.95603 0.95119 0.0
C168 C 0.55591 0.96909 0.93684 0.0
C169 C 0.51753 0.97779 0.96442 0.0
C170 C 0.57346 0.93882 0.01316 0.0
O171 O 0.52766 0.90814 0.95531 0.0
O172 O 0.59719 0.88845 0.96022 0.0
O173 O 0.421 0.88853 0.01203 0.0
O174 O 0.42369 0.91006 0.0275 0.0
C175 C 0.56298 0.89826 0.93689 0.0
O176 O 0.51773 0.86375 0.00354 0.0
O177 O 0.57583 0.86377 0.06722 0.0
O178 O 0.5074 0.88958 0.09085 0.0
O179 O 0.58975 0.90784 0.08616 0.0
O180 O 0.69203 0.90803 0.00905 0.0
O181 O 0.69214 0.88711 0.04059 0.0
C182 C 0.38184 0.89949 0.01907 0.0
O183 O 0.5263 0.93234 0.04269 0.0
O184 O 0.61432 0.93118 0.988 0.0
C185 C 0.59115 0.84454 0.02994 0.0
C186 C 0.65998 0.81987 0.01581 0.0
C187 C 0.66239 0.82994 0.98232 0.0
C188 C 0.62802 0.84219 0.98929 0.0
C189 C 0.59148 0.83466 0.06371 0.0
C190 C 0.62563 0.82245 0.05679 0.0
C191 C 0.54593 0.85674 0.03741 0.0
H192 H 0.45662 0.97939 0.0277 0.0
H193 H 0.47798 0.95666 0.05279 0.0
H194 H 0.6021 0.94978 0.93005 0.0
H195 H 0.58008 0.97251 0.90482 0.0
H196 H 0.68821 0.82822 0.95037 0.0
H197 H 0.62845 0.84969 0.96269 0.0
H198 H 0.56338 0.83629 0.0953 0.0
H199 H 0.62438 0.81498 0.08347 0.0
Tb200 Tb 0.52217 0.13737 0.98621 0.0
Eu201 Eu 0.52467 0.16921 0.96785 0.0
C202 C 0.51697 0.1553 0.06483 0.0
C203 C 0.34964 0.15404 0.98292 0.0
C204 C 0.53887 0.10044 0.98276 0.0
C205 C 0.58601 0.07818 -0.00015 0.0
C206 C 0.57556 0.09092 0.01165 0.0
C207 C 0.5171 0.09718 0.94081 0.0
C208 C 0.52712 0.08442 0.92906 0.0
C209 C 0.55934 0.0747 0.95893 0.0
C210 C 0.51185 0.1129 -0.00056 0.0
O211 O 0.56352 0.14085 0.91836 0.0
O212 O 0.49241 0.16015 0.90601 0.0
O213 O 0.65839 0.16223 0.95315 0.0
O214 O 0.65517 0.14305 -0.0041 0.0
C215 C 0.52926 0.14984 0.89156 0.0
O216 O 0.48003 0.18644 0.92929 0.0
O217 O 0.57815 0.18829 0.97751 0.0
O218 O 0.54561 0.16527 0.03973 0.0
O219 O 0.48861 0.1447 0.04873 0.0
O220 O 0.39151 0.1438 0.97057 0.0
O221 O 0.39067 0.16453 0.99238 0.0
C222 C 0.69814 0.15258 0.9747 0.0
O223 O 0.56916 0.11986 0.01727 0.0
O224 O 0.45866 0.12008 0.976 0.0
C225 C 0.48725 0.20657 0.96086 0.0
C226 C 0.41366 0.23055 0.97962 0.0
C227 C 0.41921 0.22697 0.93655 0.0
C228 C 0.45582 0.21511 0.9273 0.0
C229 C 0.48139 0.21003 0.00409 0.0
C230 C 0.44511 0.22198 0.01337 0.0
C231 C 0.52787 0.19437 0.94925 0.0
H232 H 0.61026 0.07091 0.02378 0.0
H233 H 0.59197 0.09316 0.04431 0.0
H234 H 0.4887 0.10433 0.91775 0.0
H235 H 0.50707 0.08205 0.8971 0.0
H236 H 0.39673 0.23345 0.90981 0.0
H237 H 0.46032 0.21266 0.89372 0.0
H238 H 0.50508 0.20358 0.0306 0.0
H239 H 0.44106 0.22447 0.04689 0.0
Tb240 Tb 0.55417 0.16928 0.47752 0.0
Eu241 Eu 0.56179 0.13753 0.47732 0.0
C242 C 0.5594 0.15561 0.39166 0.0
C243 C 0.38175 0.15295 0.47963 0.0
C244 C 0.59821 0.20531 0.47943 0.0
C245 C 0.62529 0.2281 0.45918 0.0
C246 C 0.57755 0.21688 0.45515 0.0
C247 C 0.66784 0.20501 0.50776 0.0
C248 C 0.71563 0.21631 0.51202 0.0
C249 C 0.69475 0.22796 0.48768 0.0
C250 C 0.54588 0.1938 0.47383 0.0
O251 O 0.58833 0.16162 0.54315 0.0
O252 O 0.51716 0.14221 0.54406 0.0
O253 O 0.69347 0.14392 0.49421 0.0
O254 O 0.69006 0.16517 0.46622 0.0
C255 C 0.55126 0.15156 0.56463 0.0
O256 O 0.60283 0.11859 0.50594 0.0
O257 O 0.54341 0.1202 0.44217 0.0
O258 O 0.605 0.14651 0.4121 0.0
O259 O 0.51475 0.16366 0.41406 0.0
O260 O 0.42264 0.16317 0.49173 0.0
O261 O 0.42245 0.14262 0.4671 0.0
C262 C 0.73269 0.15474 0.48082 0.0
O263 O 0.56706 0.18716 0.44094 0.0
O264 O 0.52602 0.1863 0.50852 0.0
C265 C 0.54902 0.09891 0.47932 0.0
C266 C 0.53659 0.0716 0.48461 0.0
C267 C 0.55587 0.07808 0.52175 0.0
C268 C 0.56246 0.09164 0.51909 0.0
C269 C 0.52338 0.09247 0.44315 0.0
C270 C 0.51711 0.07895 0.44578 0.0
C271 C 0.57818 0.11251 0.47263 0.0
H272 H 0.60668 0.23696 0.44057 0.0
H273 H 0.52396 0.21725 0.43313 0.0
H274 H 0.68502 0.19609 0.52651 0.0
H275 H 0.76914 0.21591 0.53405 0.0
H276 H 0.57151 0.07265 0.55207 0.0
H277 H 0.58322 0.09631 0.54742 0.0
H278 H 0.51341 0.0978 0.41196 0.0
H279 H 0.50081 0.07419 0.41684 0.0
Tb280 Tb 0.52667 0.91021 0.52277 0.0
Eu281 Eu 0.53473 0.87833 0.52765 0.0
C282 C 0.53199 0.89565 0.43829 0.0
C283 C 0.35538 0.89361 0.52547 0.0
C284 C 0.54675 0.94741 0.50661 0.0
C285 C 0.52056 0.96838 0.46776 0.0
C286 C 0.50165 0.9552 0.47538 0.0
C287 C 0.615 0.95287 0.52819 0.0
C288 C 0.63415 0.96609 0.52046 0.0
C289 C 0.58497 0.97408 0.49134 0.0
C290 C 0.51122 0.93459 0.52148 0.0
O291 O 0.48812 0.90258 0.58783 0.0
O292 O 0.57773 0.88521 0.59128 0.0
O293 O 0.66873 0.88505 0.51151 0.0
O294 O 0.66307 0.90605 0.53207 0.0
C295 C 0.53469 0.89409 0.61073 0.0
O296 O 0.51425 0.85957 0.56412 0.0
O297 O 0.5743 0.86044 0.49967 0.0
O298 O 0.49572 0.88562 0.46009 0.0
O299 O 0.56788 0.90493 0.45859 0.0
O300 O 0.39694 0.90405 0.51 0.0
O301 O 0.39568 0.88302 0.54033 0.0
C302 C 0.70664 0.89576 0.52124 0.0
O303 O 0.47952 0.92757 0.49219 0.0
O304 O 0.55038 0.92754 0.5521 0.0
C305 C 0.50151 0.841 0.52398 0.0
C306 C 0.42674 0.81714 0.50688 0.0
C307 C 0.47592 0.81817 0.54429 0.0
C308 C 0.51284 0.82998 0.5527 0.0
C309 C 0.4517 0.84013 0.48676 0.0
C310 C 0.4147 0.82825 0.47821 0.0
C311 C 0.546 0.85299 0.53297 0.0
H312 H 0.48058 0.97425 0.44553 0.0
H313 H 0.44788 0.9513 0.45876 0.0
H314 H 0.6507 0.94712 0.55263 0.0
H315 H 0.68507 0.97016 0.53864 0.0
H316 H 0.4876 0.80975 0.56664 0.0
H317 H 0.55159 0.83046 0.58142 0.0
H318 H 0.44215 0.84857 0.4642 0.0
H319 H 0.37652 0.82777 0.44934 0.0
H320 H 0.35372 0.37842 0.043 0.0
H321 H 0.34612 0.41859 0.99155 0.0
H322 H 0.51034 0.37919 0.04191 0.0
H323 H 0.50196 0.41924 0.98971 0.0
H324 H 0.78118 0.41948 0.03496 0.0
H325 H 0.62447 0.41894 0.0376 0.0
H326 H 0.62909 0.38065 0.98951 0.0
H327 H 0.78488 0.38105 0.98755 0.0
C328 C 0.38526 0.38739 0.03136 0.0
C329 C 0.3371 0.39842 0.01733 0.0
C330 C 0.47508 0.38782 0.03052 0.0
C331 C 0.51874 0.39929 0.01569 0.0
C332 C 0.47049 0.41031 0.00187 0.0
C333 C 0.38091 0.40989 0.00267 0.0
C334 C 0.74877 0.41097 0.02478 0.0
C335 C 0.79589 0.40031 0.01115 0.0
C336 C 0.65891 0.41067 0.0262 0.0
C337 C 0.6142 0.39971 0.01402 0.0
C338 C 0.6614 0.38914 -0.00012 0.0
C339 C 0.75097 0.38944 -0.00155 0.0
H340 H 0.31762 0.63216 0.03951 0.0
H341 H 0.31873 0.67165 0.98136 0.0
H342 H 0.47394 0.63263 0.04297 0.0
H343 H 0.47446 0.672 0.98416 0.0
H344 H 0.75585 0.63369 -0.00271 0.0
H345 H 0.60013 0.63319 -0.00453 0.0
H346 H 0.58945 0.67232 0.03652 0.0
H347 H 0.74609 0.67296 0.03755 0.0
C348 C 0.35104 0.6409 0.02717 0.0
C349 C 0.30533 0.65185 0.01019 0.0
C350 C 0.44074 0.64116 0.02906 0.0
C351 C 0.48678 0.65238 0.01402 0.0
C352 C 0.44104 0.66328 -0.0033 0.0
C353 C 0.35156 0.66302 -0.00521 0.0
C354 C 0.72058 0.64222 0.00599 0.0
C355 C 0.76379 0.6534 0.01746 0.0
C356 C 0.63103 0.64188 0.00522 0.0
C357 C 0.58217 0.6527 0.01586 0.0
C358 C 0.62522 0.66386 0.02762 0.0
C359 C 0.71502 0.66421 0.02845 0.0
H360 H 0.77704 0.67252 0.48481 0.0
H361 H 0.76861 0.63326 0.54486 0.0
H362 H 0.62118 0.67314 0.48387 0.0
H363 H 0.61207 0.63401 0.54461 0.0
H364 H 0.34069 0.63474 0.49112 0.0
H365 H 0.49634 0.63442 0.49272 0.0
H366 H 0.496 0.67373 0.53226 0.0
H367 H 0.33934 0.67419 0.5299 0.0
C368 C 0.74207 0.66402 0.498 0.0
C369 C 0.78565 0.65281 0.51481 0.0
C370 C 0.65248 0.66443 0.49771 0.0
C371 C 0.60407 0.65364 0.51418 0.0
C372 C 0.6475 0.64244 0.53116 0.0
C373 C 0.73728 0.64202 0.53148 0.0
C374 C 0.37347 0.64336 0.50008 0.0
C375 C 0.32721 0.6545 0.51043 0.0
C376 C 0.46294 0.64312 0.50132 0.0
C377 C 0.5087 0.654 0.51292 0.0
C378 C 0.46268 0.66521 0.52285 0.0
C379 C 0.37287 0.66546 0.52164 0.0
H380 H 0.74393 0.37495 0.50205 0.0
H381 H 0.74971 0.415 0.53429 0.0
H382 H 0.58736 0.37577 0.50124 0.0
H383 H 0.59336 0.41575 0.53398 0.0
H384 H 0.3134 0.41581 0.48657 0.0
H385 H 0.47052 0.4154 0.485 0.0
H386 H 0.46714 0.37715 0.55246 0.0
H387 H 0.31132 0.37746 0.55367 0.0
C388 C 0.71197 0.38392 0.50908 0.0
C389 C 0.75974 0.39488 0.51843 0.0
C390 C 0.62206 0.38438 0.50879 0.0
C391 C 0.57754 0.39583 0.51763 0.0
C392 C 0.62539 0.40682 0.52657 0.0
C393 C 0.71522 0.40634 0.52708 0.0
C394 C 0.34618 0.40733 0.50111 0.0
C395 C 0.29926 0.39668 0.52019 0.0
C396 C 0.43632 0.40711 0.50036 0.0
C397 C 0.48165 0.39621 0.51842 0.0
C398 C 0.43458 0.38562 0.53762 0.0
C399 C 0.34485 0.38585 0.53858 0.0
H400 H 0.83741 0.91767 -0.00505 0.0
H401 H 0.84414 0.87839 0.05485 0.0
H402 H 0.99328 0.91826 -0.0067 0.0
H403 H 1.00071 0.87912 0.05394 0.0
H404 H 0.27529 0.87983 -0.00031 0.0
H405 H 0.1195 0.87951 0.00172 0.0
H406 H 0.11563 0.91886 0.04099 0.0
H407 H 0.27232 0.91931 0.03821 0.0
C408 C 0.87201 0.90916 0.00798 0.0
C409 C 0.82797 0.89795 0.02493 0.0
C410 C 0.96159 0.90956 0.00728 0.0
C411 C 1.00956 0.89876 0.02349 0.0
C412 C 0.96566 0.88756 0.04067 0.0
C413 C 0.87587 0.88716 0.04139 0.0
C414 C 0.24154 0.88846 0.00867 0.0
C415 C 0.28664 0.89961 0.01883 0.0
C416 C 0.15198 0.88822 0.01015 0.0
C417 C 0.105 0.89911 0.02183 0.0
C418 C 0.1499 0.91033 0.03151 0.0
C419 C 0.23975 0.91058 0.03003 0.0
H420 H 0.23765 0.1741 -0.00336 0.0
H421 H 0.24435 0.13352 0.97044 0.0
H422 H 0.08085 0.1737 -0.00436 0.0
H423 H 0.08826 0.1332 0.96891 0.0
H424 H 0.80823 0.17157 0.9407 0.0
H425 H 0.96438 0.17195 0.94403 0.0
H426 H 0.96146 0.13435 0.01596 0.0
H427 H 0.8052 0.13388 0.01221 0.0
C428 C 0.20587 0.16509 0.99072 0.0
C429 C 0.25399 0.15386 0.98354 0.0
C430 C 0.11586 0.16488 0.98987 0.0
C431 C 0.07164 0.15342 0.9821 0.0
C432 C 0.11987 0.14216 0.97546 0.0
C433 C 0.20968 0.14238 0.97608 0.0
C434 C 0.84071 0.16335 0.95714 0.0
C435 C 0.79372 0.15267 0.97606 0.0
C436 C 0.93043 0.16362 0.95935 0.0
C437 C 0.9758 0.1532 0.98034 0.0
C438 C 0.92885 0.1425 -0.00088 0.0
C439 C 0.83904 0.14225 -0.00289 0.0
H440 H 0.27121 0.134 0.45727 0.0
H441 H 0.27626 0.17263 0.50293 0.0
H442 H 0.11479 0.13479 0.45704 0.0
H443 H 0.12015 0.17329 0.50338 0.0
H444 H 0.84205 0.17481 0.45443 0.0
H445 H 0.99898 0.17444 0.45364 0.0
H446 H 0.99493 0.13466 0.50871 0.0
H447 H 0.83923 0.13491 0.50887 0.0
C448 C 0.23913 0.14263 0.46744 0.0
C449 C 0.28654 0.15323 0.48017 0.0
C450 C 0.14939 0.14307 0.46748 0.0
C451 C 0.10494 0.15411 0.4802 0.0
C452 C 0.15235 0.16471 0.49285 0.0
C453 C 0.242 0.16427 0.49288 0.0
C454 C 0.87468 0.166 0.46641 0.0
C455 C 0.82784 0.15489 0.48153 0.0
C456 C 0.96461 0.1658 0.46612 0.0
C457 C 1.00949 0.15448 0.48087 0.0
C458 C 0.96249 0.14345 0.49641 0.0
C459 C 0.87295 0.14365 0.49675 0.0
H460 H 0.81401 0.91521 0.54363 0.0
H461 H 0.81535 0.87647 0.49872 0.0
H462 H 0.97073 0.91469 0.54598 0.0
H463 H 0.97091 0.87608 0.50043 0.0
H464 H 0.24287 0.87412 0.5529 0.0
H465 H 0.08629 0.87496 0.5528 0.0
H466 H 0.0961 0.91466 0.49716 0.0
H467 H 0.25199 0.91394 0.49794 0.0
C468 C 0.84752 0.90663 0.53401 0.0
C469 C 0.80184 0.89589 0.52108 0.0
C470 C 0.93735 0.90634 0.53525 0.0
C471 C 0.98332 0.8953 0.52365 0.0
C472 C 0.93754 0.88464 0.51034 0.0
C473 C 0.8481 0.88493 0.50905 0.0
C474 C 0.21167 0.88302 0.54069 0.0
C475 C 0.26021 0.89393 0.52535 0.0
C476 C 0.1219 0.88349 0.54046 0.0
C477 C 0.07867 0.89488 0.52494 0.0
C478 C 0.12727 0.9058 0.50985 0.0
C479 C 0.21684 0.90533 0.51002 0.0
H480 H 0.1972 0.55639 0.99247 0.0
H481 H 0.94754 0.56286 0.93596 0.0
H482 H 0.18502 0.53319 0.98294 0.0
H483 H 0.93617 0.5397 0.92559 0.0
H484 H 0.90343 0.4966 0.98398 0.0
H485 H 0.91672 0.52025 0.97726 0.0
H486 H 0.1768 0.51672 0.92859 0.0
H487 H 0.16421 0.49309 0.93622 0.0
C488 C 0.14036 0.55288 0.9774 0.0
C489 C 0.07326 0.56145 0.96514 0.0
C490 C 0.13363 0.53961 0.97161 0.0
C491 C 0.05938 0.53461 0.9537 0.0
C492 C 0.99378 0.54326 0.93984 0.0
C493 C 1.00077 0.55654 0.94536 0.0
C494 C 0.96304 0.50089 0.97138 0.0
C495 C 1.03281 0.49297 0.96082 0.0
C496 C 0.97048 0.51443 0.96719 0.0
C497 C 0.04806 0.52034 0.95264 0.0
C498 C 0.11654 0.51244 0.9403 0.0
C499 C 0.10893 0.4989 0.94422 0.0
H500 H 0.91187 0.48841 0.54288 0.0
H501 H 0.16582 0.49385 0.48616 0.0
H502 H 0.89481 0.51185 0.54413 0.0
H503 H 0.14989 0.51736 0.48832 0.0
H504 H 0.06679 0.55881 0.45784 0.0
H505 H 0.07292 0.53535 0.45397 0.0
H506 H 0.94436 0.53007 0.57958 0.0
H507 H 0.93361 0.55354 0.58222 0.0
C508 C 0.9647 0.49464 0.53143 0.0
C509 C 1.04039 0.48933 0.51465 0.0
C510 C 0.95488 0.50808 0.53206 0.0
C511 C 1.0208 0.51651 0.51617 0.0
C512 C 0.09712 0.51116 0.49999 0.0
C513 C 0.10663 0.49771 0.49904 0.0
C514 C 1.0378 0.55266 0.48412 0.0
C515 C 0.99993 0.55807 0.52042 0.0
C516 C 1.04271 0.5392 0.48225 0.0
C517 C 1.01034 0.53082 0.51676 0.0
C518 C 0.96964 0.53622 0.55232 0.0
C519 C 0.96419 0.54969 0.55404 0.0
H520 H 0.6505 0.99212 0.92759 0.0
H521 H 0.39045 0.99572 0.97633 0.0
H522 H 0.66173 1.01573 0.91757 0.0
H523 H 0.40255 1.01937 0.9674 0.0
H524 H 0.43027 0.06176 0.92187 0.0
H525 H 0.4192 0.03843 0.91445 0.0
H526 H 0.67111 0.03278 0.96917 0.0
H527 H 0.68306 0.05614 0.97556 0.0
C528 C 0.59507 0.99794 0.93534 0.0
C529 C 0.51956 0.99204 0.95286 0.0
C530 C 0.60193 1.01148 0.93007 0.0
C531 C 0.53335 1.01942 0.94202 0.0
C532 C 0.45638 1.01352 0.95759 0.0
C533 C 0.44965 0.99998 0.96306 0.0
C534 C 0.48416 0.05558 0.93133 0.0
C535 C 0.55752 0.06079 0.94941 0.0
C536 C 0.47736 0.0422 0.92752 0.0
C537 C 0.54398 0.03375 0.94147 0.0
C538 C 0.6189 0.03903 0.95778 0.0
C539 C 0.6255 0.0524 0.9618 0.0
H540 H 0.47626 0.05312 0.54602 0.0
H541 H 0.61975 0.05789 0.42463 0.0
H542 H 0.49631 0.02959 0.54719 0.0
H543 H 0.64156 0.03448 0.42615 0.0
H544 H 0.57567 0.99132 0.41933 0.0
H545 H 0.56487 1.0149 0.41784 0.0
H546 H 0.60434 1.01301 0.55674 0.0
H547 H 0.61014 0.98941 0.55861 0.0
C548 C 0.51227 0.04912 0.51971 0.0
C549 C 0.5456 0.0573 0.48503 0.0
C550 C 0.52434 0.03567 0.52047 0.0
C551 C 0.57077 0.03015 0.48678 0.0
C552 C 0.60431 0.03838 0.45223 0.0
C553 C 0.59166 0.05179 0.45131 0.0
C554 C 0.58228 0.99594 0.44952 0.0
C555 C 0.59316 0.98846 0.4891 0.0
C556 C 0.57684 1.00948 0.44863 0.0
C557 C 0.5828 1.01584 0.48727 0.0
C558 C 0.59778 1.0084 0.52653 0.0
C559 C 0.60267 0.99486 0.52746 0.0
H560 H 0.3464 0.31307 0.0026 0.0
H561 H 0.08844 0.29786 0.01573 0.0
H562 H 0.40228 0.29097 -0.00037 0.0
H563 H 0.14414 0.27586 0.01255 0.0
H564 H 0.26755 0.24166 0.94655 0.0
H565 H 0.21149 0.26333 0.9566 0.0
H566 H 0.41814 0.26994 0.04391 0.0
H567 H 0.47566 0.24829 0.0329 0.0
C568 C 0.30176 0.30501 0.00526 0.0
C569 C 0.21294 0.30723 0.00887 0.0
C570 C 0.33374 0.29236 0.00365 0.0
C571 C 0.27751 0.28169 0.0056 0.0
C572 C 0.18894 0.2839 0.0102 0.0
C573 C 0.15705 0.29651 0.01187 0.0
C574 C 0.301 0.24774 0.96789 0.0
C575 C 0.37621 0.24332 0.98875 0.0
C576 C 0.26848 0.2601 0.97397 0.0
C577 C 0.31051 0.26834 0.001 0.0
C578 C 0.38489 0.26385 0.02255 0.0
C579 C 0.41725 0.25142 0.01663 0.0
H580 H 0.8063 0.81287 0.97256 0.0
H581 H 0.58208 0.79687 0.04125 0.0
H582 H 0.8592 0.79088 0.96343 0.0
H583 H 0.63428 0.77497 0.03187 0.0
H584 H 0.80974 0.7395 0.05727 0.0
H585 H 0.74827 0.76113 0.06041 0.0
H586 H 0.83274 0.771 0.92765 0.0
H587 H 0.89511 0.74929 0.92468 0.0
C588 C 0.7679 0.80466 0.98523 0.0
C589 C 0.69061 0.80659 0.00807 0.0
C590 C 0.79802 0.79207 0.97992 0.0
C591 C 0.75123 0.78117 -0.00279 0.0
C592 C 0.67273 0.78314 0.01893 0.0
C593 C 0.64285 0.79569 0.02433 0.0
C594 C 0.81384 0.7462 0.02847 0.0
C595 C 0.85707 0.74268 0.99069 0.0
C596 C 0.77868 0.75861 0.03027 0.0
C597 C 0.78561 0.7678 -0.00573 0.0
C598 C 0.82742 0.7642 0.95614 0.0
C599 C 0.86287 0.75177 0.95439 0.0
H600 H 0.17822 0.74917 0.41079 0.0
H601 H 0.30732 0.73555 0.52867 0.0
H602 H 0.23608 0.77097 0.41698 0.0
H603 H 0.36683 0.75713 0.53404 0.0
H604 H 0.34805 0.79951 0.56464 0.0
H605 H 0.29842 0.7778 0.55187 0.0
H606 H 0.37176 0.78412 0.41603 0.0
H607 H 0.42244 0.80593 0.42892 0.0
C608 C 0.21995 0.75078 0.43761 0.0
C609 C 0.23773 0.74066 0.4694 0.0
C610 C 0.25345 0.76323 0.44098 0.0
C611 C 0.30488 0.76577 0.47634 0.0
C612 C 0.32612 0.75549 0.50683 0.0
C613 C 0.29297 0.74308 0.50341 0.0
C614 C 0.35402 0.79626 0.53208 0.0
C615 C 0.38999 0.80438 0.49789 0.0
C616 C 0.32577 0.78382 0.52478 0.0
C617 C 0.33253 0.7792 0.4831 0.0
C618 C 0.36573 0.78745 0.44849 0.0
C619 C 0.39438 0.79993 0.45584 0.0
H620 H 0.8116 0.30332 0.57038 0.0
H621 H 0.99129 0.3003 0.46311 0.0
H622 H 0.76192 0.28132 0.56187 0.0
H623 H 0.94149 0.2782 0.45458 0.0
H624 H 0.75044 0.24581 0.42349 0.0
H625 H 0.81319 0.26707 0.43199 0.0
H626 H 0.81175 0.25877 0.57163 0.0
H627 H 0.74625 0.23766 0.56315 0.0
C628 C 0.84092 0.29791 0.54517 0.0
C629 C 0.90551 0.30353 0.51748 0.0
C630 C 0.81269 0.28528 0.5404 0.0
C631 C 0.84832 0.27798 0.50781 0.0
C632 C 0.91235 0.28363 0.47979 0.0
C633 C 0.94065 0.29629 0.48457 0.0
C634 C 0.76379 0.24853 0.45599 0.0
C635 C 0.74265 0.24014 0.49269 0.0
C636 C 0.80047 0.26065 0.46083 0.0
C637 C 0.81671 0.26465 0.5025 0.0
C638 C 0.79873 0.25604 0.53913 0.0
C639 C 0.76219 0.24389 0.53427 0.0
H640 H 0.11171 0.41554 0.15764 0.0
H641 H 0.99401 0.37765 0.15766 0.0
H642 H 0.1061 0.4139 0.23715 0.0
H643 H 0.98836 0.37606 0.23712 0.0
H644 H 0.07928 0.37356 0.38091 0.0
H645 H 0.08889 0.37443 0.30124 0.0
H646 H 0.98888 0.41362 0.29398 0.0
H647 H 0.97935 0.41283 0.37294 0.0
C648 C 0.0848 0.40686 0.17456 0.0
C649 C 0.05295 0.39676 0.15133 0.0
C650 C 0.08131 0.40595 0.22007 0.0
C651 C 0.04664 0.39486 0.24327 0.0
C652 C 1.01605 0.38467 0.22009 0.0
C653 C 1.01875 0.38564 0.17458 0.0
C654 C 0.05912 0.38233 0.36227 0.0
C655 C 1.02848 0.39311 0.38331 0.0
C656 C 0.0644 0.38281 0.31671 0.0
C657 C 1.04014 0.39413 0.29149 0.0
C658 C 1.00913 0.40484 0.31258 0.0
C659 C 1.00306 0.40432 0.35789 0.0
H660 H 0.94008 0.63804 0.16003 0.0
H661 H 0.15229 0.665 0.14966 0.0
H662 H 0.94249 0.63804 0.23913 0.0
H663 H 0.15715 0.66462 0.22862 0.0
H664 H 0.08451 0.67224 0.36777 0.0
H665 H 0.08097 0.67204 0.2889 0.0
H666 H 1.02137 0.63099 0.30164 0.0
H667 H 1.02159 0.63134 0.38061 0.0
C668 C 0.98782 0.64387 0.17468 0.0
C669 C 1.0457 0.65157 0.1486 0.0
C670 C 0.98957 0.64382 0.22007 0.0
C671 C 0.04989 0.65136 0.24042 0.0
C672 C 0.10864 0.6589 0.21418 0.0
C673 C 0.10623 0.65906 0.16884 0.0
C674 C 0.07074 0.66317 0.35373 0.0
C675 C 0.05331 0.65181 0.38045 0.0
C676 C 0.06919 0.66303 0.30843 0.0
C677 C 0.05114 0.65149 0.28873 0.0
C678 C 1.03414 0.64011 0.31558 0.0
C679 C 1.03476 0.64029 0.36092 0.0
H680 H 0.14285 0.64004 0.87715 0.0
H681 H 0.92843 0.66674 0.87086 0.0
H682 H 0.14994 0.64089 0.79809 0.0
H683 H 0.93228 0.66709 0.79166 0.0
H684 H 1.01304 0.67462 0.64891 0.0
H685 H 1.00838 0.67454 0.72822 0.0
H686 H 0.08037 0.63387 0.73801 0.0
H687 H 0.08927 0.63421 0.65922 0.0
C688 C 0.0965 0.64597 0.85881 0.0
C689 C 1.03505 0.65331 0.88017 0.0
C690 C 0.10016 0.64641 0.81339 0.0
C691 C 1.04138 0.65401 0.78821 0.0
C692 C 0.97956 0.6613 0.80978 0.0
C693 C 0.97689 0.66103 0.85524 0.0
C694 C 1.028 0.6657 0.66817 0.0
C695 C 0.0521 0.65446 0.64793 0.0
C696 C 1.02483 0.66561 0.71364 0.0
C697 C 1.04432 0.6542 0.73977 0.0
C698 C 0.06699 0.64293 0.71919 0.0
C699 C 0.07158 0.64309 0.6739 0.0
H700 H 0.99946 0.41986 0.65093 0.0
H701 H 0.11862 0.38197 0.66093 0.0
H702 H 1.00616 0.42066 0.72998 0.0
H703 H 0.132 0.38306 0.73894 0.0
H704 H 0.05617 0.38041 0.87987 0.0
H705 H 0.05102 0.38084 0.80122 0.0
H706 H 0.08432 0.42263 0.79244 0.0
H707 H 0.08308 0.42215 0.87191 0.0
C708 C 1.02863 0.41184 0.67012 0.0
C709 C 0.05748 0.40079 0.65022 0.0
C710 C 1.03302 0.41229 0.71539 0.0
C711 C 0.06839 0.40182 0.74139 0.0
C712 C 0.10135 0.39111 0.72062 0.0
C713 C 0.0946 0.39051 0.67575 0.0
C714 C 0.06246 0.38968 0.86107 0.0
C715 C 0.07044 0.40123 0.88189 0.0
C716 C 0.06031 0.38995 0.81578 0.0
C717 C 0.06865 0.40176 0.78993 0.0
C718 C 0.07667 0.41336 0.811 0.0
C719 C 0.07654 0.4131 0.85655 0.0
H720 H 0.50952 0.87832 0.16748 0.0
H721 H 0.57858 0.91896 0.15998 0.0
H722 H 0.50737 0.87774 0.2464 0.0
H723 H 0.57223 0.91861 0.2393 0.0
H724 H 0.63773 0.91028 0.38261 0.0
H725 H 0.64195 0.91117 0.30335 0.0
H726 H 0.42931 0.88425 0.30613 0.0
H727 H 0.42838 0.88289 0.3853 0.0
C728 C 0.52325 0.88719 0.18276 0.0
C729 C 0.54411 0.8987 0.15753 0.0
C730 C 0.52145 0.88689 0.22814 0.0
C731 C 0.53901 0.89815 0.24953 0.0
C732 C 0.55961 0.90969 0.22413 0.0
C733 C 0.56279 0.90993 0.17862 0.0
C734 C 0.59197 0.90455 0.3662 0.0
C735 C 0.53307 0.89645 0.39017 0.0
C736 C 0.59394 0.90513 0.32068 0.0
C737 C 0.53613 0.89776 0.29805 0.0
C738 C 0.4762 0.88984 0.32225 0.0
C739 C 0.47522 0.88911 0.36773 0.0
H740 H 0.48433 0.13557 0.12717 0.0
H741 H 0.55232 0.17628 0.11129 0.0
H742 H 0.49323 0.1361 0.20587 0.0
H743 H 0.5616 0.17674 0.1903 0.0
H744 H 0.48205 0.17424 0.33733 0.0
H745 H 0.46874 0.17455 0.25821 0.0
H746 H 0.6104 0.13847 0.25846 0.0
H747 H 0.62349 0.13811 0.33721 0.0
C748 C 0.50073 0.14466 0.1404 0.0
C749 C 0.51788 0.15587 0.11281 0.0
C750 C 0.50638 0.14493 0.18554 0.0
C751 C 0.52871 0.15644 0.20426 0.0
C752 C 0.54381 0.16775 0.17683 0.0
C753 C 0.53885 0.16746 0.13156 0.0
C754 C 0.51052 0.1664 0.32046 0.0
C755 C 0.55366 0.15614 0.3436 0.0
C756 C 0.50318 0.16661 0.27515 0.0
C757 C 0.53807 0.15649 0.25217 0.0
C758 C 0.58179 0.14631 0.27532 0.0
C759 C 0.58977 0.14615 0.32045 0.0
H760 H 0.41066 0.15859 0.83295 0.0
H761 H 0.65416 0.13855 0.84317 0.0
H762 H 0.41769 0.15799 0.75372 0.0
H763 H 0.66227 0.13836 0.76333 0.0
H764 H 0.66354 0.16224 0.61903 0.0
H765 H 0.66029 0.16041 0.69898 0.0
H766 H 0.43146 0.13703 0.6987 0.0
H767 H 0.43577 0.13848 0.61892 0.0
C768 C 0.46555 0.15402 0.81821 0.0
C769 C 0.53188 0.1486 0.8441 0.0
C770 C 0.46937 0.15367 0.77299 0.0
C771 C 0.54056 0.14817 0.75271 0.0
C772 C 0.60685 0.14266 0.77844 0.0
C773 C 0.60196 0.14271 0.82393 0.0
C774 C 0.6128 0.15667 0.63606 0.0
C775 C 0.5498 0.15052 0.61279 0.0
C776 C 0.6114 0.15555 0.68166 0.0
C777 C 0.54587 0.14854 0.70467 0.0
C778 C 0.48274 0.14244 0.68151 0.0
C779 C 0.4853 0.14329 0.63598 0.0
H780 H 0.64758 0.88151 0.66626 0.0
H781 H 0.43187 0.90799 0.66307 0.0
H782 H 0.6573 0.88291 0.74458 0.0
H783 H 0.43923 0.90901 0.74163 0.0
H784 H 0.52651 0.91814 0.87598 0.0
H785 H 0.52195 0.91727 0.79717 0.0
H786 H 0.58687 0.87638 0.81111 0.0
H787 H 0.59465 0.87739 0.8895 0.0
C788 C 0.60165 0.88753 0.68237 0.0
C789 C 0.53894 0.89463 0.65848 0.0
C790 C 0.60693 0.88829 0.72736 0.0
C791 C 0.54899 0.89607 0.7496 0.0
C792 C 0.48591 0.9031 0.72559 0.0
C793 C 0.48124 0.90244 0.68054 0.0
C794 C 0.54007 0.90898 0.86215 0.0
C795 C 0.5611 0.89785 0.889 0.0
C796 C 0.53693 0.90845 0.81696 0.0
C797 C 0.55388 0.89674 0.79763 0.0
C798 C 0.57493 0.88562 0.82465 0.0
C799 C 0.57895 0.88619 0.86972 0.0
loop_
_geom_bond_atom_site_label_1
_geom_bond_atom_site_label_2
_geom_bond_distance
_geom_bond_site_symmetry_2
_ccdc_geom_bond_type
Tb0 C10 2.825 . S
Tb0 O11 2.347 1_554 S
Tb0 O14 2.366 1_455 S
Tb0 O19 2.418 . S
Tb0 O20 2.384 . S
Tb0 O23 2.479 . S
Tb0 O24 2.471 1_554 S
Eu1 O12 2.418 1_554 S
Eu1 O13 2.384 1_455 S
Eu1 O16 2.479 1_554 S
Eu1 O17 2.471 . S
Eu1 O18 2.347 . S
Eu1 O21 2.366 1_554 S
Eu1 C31 2.825 . S
C2 O18 1.259 . S
C2 O19 1.265 . S
C3 O20 1.255 . S
C3 O21 1.265 1_554 S
C4 C6 1.380 1_556 S
C4 C7 1.374 . S
C4 C10 1.507 1_656 S
C5 C6 1.384 . S
C5 C9 1.387 1_554 S
C5 H32 0.930 . S
C6 C4 1.380 1_554 S
C6 C5 1.384 . S
C6 H33 0.931 . S
C7 C4 1.374 . S
C7 C8 1.390 . S
C7 H34 0.930 . S
C8 C7 1.390 . S
C8 C9 1.391 . S
C8 H35 0.930 . S
C9 C5 1.387 1_556 S
C9 C8 1.391 . S
C10 Tb0 2.825 . S
C10 C4 1.507 1_454 S
C10 O23 1.238 . S
C10 O24 1.247 1_554 S
O11 Tb0 2.347 1_556 S
O11 C15 1.259 . S
O12 Eu1 2.418 1_556 S
O12 C15 1.265 . S
O13 Eu1 2.384 1_655 S
O13 C22 1.255 . S
O14 Tb0 2.366 1_655 S
O14 C22 1.265 . S
C15 O11 1.259 . S
C15 O12 1.265 . S
O16 Eu1 2.479 1_556 S
O16 C31 1.238 1_556 S
O17 Eu1 2.471 . S
O17 C31 1.247 . S
O18 Eu1 2.347 . S
O18 C2 1.259 . S
O19 Tb0 2.418 . S
O19 C2 1.265 . S
O20 Tb0 2.384 . S
O20 C3 1.255 . S
O21 Eu1 2.366 1_556 S
O21 C3 1.265 1_556 S
C22 O13 1.255 . S
C22 O14 1.265 . S
O23 Tb0 2.479 . S
O23 C10 1.238 . S
O24 Tb0 2.471 1_556 S
O24 C10 1.247 1_556 S
C25 C28 1.380 1_554 S
C25 C29 1.374 . S
C25 C31 1.507 . S
C26 C27 1.390 . S
C26 C30 1.391 . S
C27 C26 1.390 . S
C27 C28 1.384 1_554 S
C27 H36 0.927 1_554 S
C28 C25 1.380 1_556 S
C28 C27 1.384 1_556 S
C28 H37 0.931 . S
C29 C25 1.374 . S
C29 C30 1.390 . S
C29 H38 0.930 . S
C30 C26 1.391 . S
C30 C29 1.390 . S
C30 H39 0.930 . S
C31 Eu1 2.825 . S
C31 O16 1.238 1_554 S
C31 O17 1.247 . S
C31 C25 1.507 . S
H32 C5 0.930 . S
H33 C6 0.931 . S
H34 C7 0.930 . S
H35 C8 0.930 . S
H36 C27 0.927 1_556 S
H37 C28 0.931 . S
H38 C29 0.930 . S
H39 C30 0.930 . S
Tb40 C50 2.825 . S
Tb40 O51 2.347 1_554 S
Tb40 O54 2.366 1_655 S
Tb40 O59 2.418 . S
Tb40 O60 2.384 . S
Tb40 O63 2.479 . S
Tb40 O64 2.471 1_554 S
Eu41 O52 2.418 . S
Eu41 O53 2.384 1_655 S
Eu41 O56 2.479 . S
Eu41 O57 2.471 1_556 S
Eu41 O58 2.347 1_556 S
Eu41 O61 2.366 . S
Eu41 C71 2.825 1_556 S
C42 O58 1.259 . S
C42 O59 1.265 . S
C43 O60 1.255 . S
C43 O61 1.265 1_554 S
C44 C46 1.380 . S
C44 C47 1.374 1_554 S
C44 C50 1.507 1_455 S
C45 C46 1.384 . S
C45 C49 1.387 1_554 S
C45 H72 0.930 . S
C46 C44 1.380 . S
C46 C45 1.384 . S
C46 H73 0.931 . S
C47 C44 1.374 1_556 S
C47 C48 1.390 . S
C47 H74 0.930 . S
C48 C47 1.390 . S
C48 C49 1.391 . S
C48 H75 0.930 . S
C49 C45 1.387 1_556 S
C49 C48 1.391 . S
C50 Tb40 2.825 . S
C50 C44 1.507 1_655 S
C50 O63 1.238 . S
C50 O64 1.247 1_554 S
O51 Tb40 2.347 1_556 S
O51 C55 1.259 . S
O52 Eu41 2.418 . S
O52 C55 1.265 . S
O53 Eu41 2.384 1_455 S
O53 C62 1.255 1_556 S
O54 Tb40 2.366 1_455 S
O54 C62 1.265 . S
C55 O51 1.259 . S
C55 O52 1.265 . S
O56 Eu41 2.479 . S
O56 C71 1.238 1_556 S
O57 Eu41 2.471 1_554 S
O57 C71 1.247 . S
O58 Eu41 2.347 1_554 S
O58 C42 1.259 . S
O59 Tb40 2.418 . S
O59 C42 1.265 . S
O60 Tb40 2.384 . S
O60 C43 1.255 . S
O61 Eu41 2.366 . S
O61 C43 1.265 1_556 S
C62 O53 1.255 1_554 S
C62 O54 1.265 . S
O63 Tb40 2.479 . S
O63 C50 1.238 . S
O64 Tb40 2.471 1_556 S
O64 C50 1.247 1_556 S
C65 C68 1.380 1_554 S
C65 C69 1.374 . S
C65 C71 1.507 . S
C66 C67 1.387 1_554 S
C66 C70 1.391 . S
C67 C66 1.387 1_556 S
C67 C68 1.384 . S
C67 H76 0.930 . S
C68 C65 1.380 1_556 S
C68 C67 1.384 . S
C68 H77 0.931 . S
C69 C65 1.374 . S
C69 C70 1.390 . S
C69 H78 0.930 . S
C70 C66 1.391 . S
C70 C69 1.390 . S
C70 H79 0.930 . S
C71 Eu41 2.825 1_554 S
C71 O56 1.238 1_554 S
C71 O57 1.247 . S
C71 C65 1.507 . S
H72 C45 0.930 . S
H73 C46 0.931 . S
H74 C47 0.930 . S
H75 C48 0.930 . S
H76 C67 0.930 . S
H77 C68 0.931 . S
H78 C69 0.930 . S
H79 C70 0.930 . S
Tb80 C90 2.825 . S
Tb80 O91 2.347 . S
Tb80 O94 2.366 . S
Tb80 O99 2.418 . S
Tb80 O100 2.384 1_455 S
Tb80 O103 2.479 . S
Tb80 O104 2.471 . S
Eu81 O92 2.418 . S
Eu81 O93 2.384 . S
Eu81 O96 2.479 . S
Eu81 O97 2.471 . S
Eu81 O98 2.347 . S
Eu81 O101 2.366 1_455 S
Eu81 C111 2.825 . S
C82 O98 1.259 . S
C82 O99 1.265 . S
C83 O100 1.255 . S
C83 O101 1.265 . S
C84 C86 1.380 . S
C84 C87 1.374 . S
C84 C90 1.507 . S
C85 C86 1.384 . S
C85 C89 1.387 . S
C85 H112 0.930 . S
C86 C84 1.380 . S
C86 C85 1.384 . S
C86 H113 0.931 . S
C87 C84 1.374 . S
C87 C88 1.390 . S
C87 H114 0.930 . S
C88 C87 1.390 . S
C88 C89 1.391 . S
C88 H115 0.930 . S
C89 C85 1.387 . S
C89 C88 1.391 . S
C90 Tb80 2.825 . S
C90 C84 1.507 . S
C90 O103 1.238 . S
C90 O104 1.247 . S
O91 Tb80 2.347 . S
O91 C95 1.259 . S
O92 Eu81 2.418 . S
O92 C95 1.265 . S
O93 Eu81 2.384 . S
O93 C102 1.255 . S
O94 Tb80 2.366 . S
O94 C102 1.265 . S
C95 O91 1.259 . S
C95 O92 1.265 . S
O96 Eu81 2.479 . S
O96 C111 1.238 . S
O97 Eu81 2.471 . S
O97 C111 1.247 . S
O98 Eu81 2.347 . S
O98 C82 1.259 . S
O99 Tb80 2.418 . S
O99 C82 1.265 . S
O100 Tb80 2.384 1_655 S
O100 C83 1.255 . S
O101 Eu81 2.366 1_655 S
O101 C83 1.265 . S
C102 O93 1.255 . S
C102 O94 1.265 . S
O103 Tb80 2.479 . S
O103 C90 1.238 . S
O104 Tb80 2.471 . S
O104 C90 1.247 . S
C105 C108 1.380 . S
C105 C109 1.374 . S
C105 C111 1.507 1_655 S
C106 C107 1.387 . S
C106 C110 1.391 . S
C107 C106 1.387 . S
C107 C108 1.384 . S
C107 H116 0.930 . S
C108 C105 1.380 . S
C108 C107 1.384 . S
C108 H117 0.931 . S
C109 C105 1.374 . S
C109 C110 1.390 . S
C109 H118 0.930 . S
C110 C106 1.391 . S
C110 C109 1.390 . S
C110 H119 0.930 . S
C111 Eu81 2.825 . S
C111 O96 1.238 . S
C111 O97 1.247 . S
C111 C105 1.507 1_455 S
H112 C85 0.930 . S
H113 C86 0.931 . S
H114 C87 0.930 . S
H115 C88 0.930 . S
H116 C107 0.930 . S
H117 C108 0.931 . S
H118 C109 0.930 . S
H119 C110 0.930 . S
Tb120 C130 2.825 . S
Tb120 O131 2.347 . S
Tb120 O134 2.366 1_655 S
Tb120 O139 2.418 . S
Tb120 O140 2.384 . S
Tb120 O143 2.479 . S
Tb120 O144 2.471 . S
Eu121 O132 2.418 . S
Eu121 O133 2.384 1_655 S
Eu121 O136 2.479 . S
Eu121 O137 2.471 . S
Eu121 O138 2.347 . S
Eu121 O141 2.366 . S
Eu121 C151 2.825 . S
C122 O138 1.259 . S
C122 O139 1.265 . S
C123 O140 1.255 . S
C123 O141 1.265 . S
C124 C126 1.380 . S
C124 C127 1.374 . S
C124 C130 1.507 1_455 S
C125 C126 1.384 . S
C125 C129 1.387 . S
C125 H152 0.930 . S
C126 C124 1.380 . S
C126 C125 1.384 . S
C126 H153 0.931 . S
C127 C124 1.374 . S
C127 C128 1.390 . S
C127 H154 0.930 . S
C128 C127 1.390 . S
C128 C129 1.391 . S
C128 H155 0.930 . S
C129 C125 1.387 . S
C129 C128 1.391 . S
C130 Tb120 2.825 . S
C130 C124 1.507 1_655 S
C130 O143 1.238 . S
C130 O144 1.247 . S
O131 Tb120 2.347 . S
O131 C135 1.259 . S
O132 Eu121 2.418 . S
O132 C135 1.265 . S
O133 Eu121 2.384 1_455 S
O133 C142 1.255 . S
O134 Tb120 2.366 1_455 S
O134 C142 1.265 . S
C135 O131 1.259 . S
C135 O132 1.265 . S
O136 Eu121 2.479 . S
O136 C151 1.238 . S
O137 Eu121 2.471 . S
O137 C151 1.247 . S
O138 Eu121 2.347 . S
O138 C122 1.259 . S
O139 Tb120 2.418 . S
O139 C122 1.265 . S
O140 Tb120 2.384 . S
O140 C123 1.255 . S
O141 Eu121 2.366 . S
O141 C123 1.265 . S
C142 O133 1.255 . S
C142 O134 1.265 . S
O143 Tb120 2.479 . S
O143 C130 1.238 . S
O144 Tb120 2.471 . S
O144 C130 1.247 . S
C145 C148 1.380 . S
C145 C149 1.374 . S
C145 C151 1.507 . S
C146 C147 1.387 . S
C146 C150 1.391 . S
C147 C146 1.387 . S
C147 C148 1.384 . S
C147 H156 0.930 . S
C148 C145 1.380 . S
C148 C147 1.384 . S
C148 H157 0.931 . S
C149 C145 1.374 . S
C149 C150 1.390 . S
C149 H158 0.930 . S
C150 C146 1.391 . S
C150 C149 1.390 . S
C150 H159 0.930 . S
C151 Eu121 2.825 . S
C151 O136 1.238 . S
C151 O137 1.247 . S
C151 C145 1.507 . S
H152 C125 0.930 . S
H153 C126 0.931 . S
H154 C127 0.930 . S
H155 C128 0.930 . S
H156 C147 0.930 . S
H157 C148 0.931 . S
H158 C149 0.930 . S
H159 C150 0.930 . S
Tb160 C170 2.825 . S
Tb160 O171 2.347 1_554 S
Tb160 O174 2.366 . S
Tb160 O179 2.418 . S
Tb160 O180 2.384 . S
Tb160 O183 2.479 . S
Tb160 O184 2.471 1_554 S
Eu161 O172 2.418 1_554 S
Eu161 O173 2.384 . S
Eu161 O176 2.479 1_554 S
Eu161 O177 2.471 . S
Eu161 O178 2.347 . S
Eu161 O181 2.366 1_554 S
Eu161 C191 2.825 . S
C162 O178 1.259 . S
C162 O179 1.265 . S
C163 O180 1.255 . S
C163 O181 1.265 1_554 S
C164 C166 1.380 1_556 S
C164 C167 1.374 . S
C164 C170 1.507 1_556 S
C165 C166 1.384 . S
C165 C169 1.387 1_554 S
C165 H192 0.930 . S
C166 C164 1.380 1_554 S
C166 C165 1.384 . S
C166 H193 0.931 . S
C167 C164 1.374 . S
C167 C168 1.390 . S
C167 H194 0.930 . S
C168 C167 1.390 . S
C168 C169 1.391 . S
C168 H195 0.930 . S
C169 C165 1.387 1_556 S
C169 C168 1.391 . S
C170 Tb160 2.825 . S
C170 C164 1.507 1_554 S
C170 O183 1.238 . S
C170 O184 1.247 1_554 S
O171 Tb160 2.347 1_556 S
O171 C175 1.259 . S
O172 Eu161 2.418 1_556 S
O172 C175 1.265 . S
O173 Eu161 2.384 . S
O173 C182 1.255 . S
O174 Tb160 2.366 . S
O174 C182 1.265 . S
C175 O171 1.259 . S
C175 O172 1.265 . S
O176 Eu161 2.479 1_556 S
O176 C191 1.238 1_556 S
O177 Eu161 2.471 . S
O177 C191 1.247 . S
O178 Eu161 2.347 . S
O178 C162 1.259 . S
O179 Tb160 2.418 . S
O179 C162 1.265 . S
O180 Tb160 2.384 . S
O180 C163 1.255 . S
O181 Eu161 2.366 1_556 S
O181 C163 1.265 1_556 S
C182 O173 1.255 . S
C182 O174 1.265 . S
O183 Tb160 2.479 . S
O183 C170 1.238 . S
O184 Tb160 2.471 1_556 S
O184 C170 1.247 1_556 S
C185 C188 1.380 1_554 S
C185 C189 1.374 . S
C185 C191 1.507 . S
C186 C187 1.390 . S
C186 C190 1.391 . S
C187 C186 1.390 . S
C187 C188 1.384 1_554 S
C187 H196 0.927 1_554 S
C188 C185 1.380 1_556 S
C188 C187 1.384 1_556 S
C188 H197 0.931 . S
C189 C185 1.374 . S
C189 C190 1.390 . S
C189 H198 0.930 . S
C190 C186 1.391 . S
C190 C189 1.390 . S
C190 H199 0.930 . S
C191 Eu161 2.825 . S
C191 O176 1.238 1_554 S
C191 O177 1.247 . S
C191 C185 1.507 . S
H192 C165 0.930 . S
H193 C166 0.931 . S
H194 C167 0.930 . S
H195 C168 0.930 . S
H196 C187 0.927 1_556 S
H197 C188 0.931 . S
H198 C189 0.930 . S
H199 C190 0.930 . S
Tb200 C210 2.825 . S
Tb200 O211 2.347 1_554 S
Tb200 O214 2.366 . S
Tb200 O219 2.418 . S
Tb200 O220 2.384 . S
Tb200 O223 2.479 . S
Tb200 O224 2.471 1_554 S
Eu201 O212 2.418 . S
Eu201 O213 2.384 . S
Eu201 O216 2.479 . S
Eu201 O217 2.471 1_556 S
Eu201 O218 2.347 1_556 S
Eu201 O221 2.366 . S
Eu201 C231 2.825 1_556 S
C202 O218 1.259 . S
C202 O219 1.265 . S
C203 O220 1.255 . S
C203 O221 1.265 1_554 S
C204 C206 1.380 . S
C204 C207 1.374 1_554 S
C204 C210 1.507 . S
C205 C206 1.384 . S
C205 C209 1.387 1_554 S
C205 H232 0.930 . S
C206 C204 1.380 . S
C206 C205 1.384 . S
C206 H233 0.931 . S
C207 C204 1.374 1_556 S
C207 C208 1.390 . S
C207 H234 0.930 . S
C208 C207 1.390 . S
C208 C209 1.391 . S
C208 H235 0.930 . S
C209 C205 1.387 1_556 S
C209 C208 1.391 . S
C210 Tb200 2.825 . S
C210 C204 1.507 . S
C210 O223 1.238 . S
C210 O224 1.247 1_554 S
O211 Tb200 2.347 1_556 S
O211 C215 1.259 . S
O212 Eu201 2.418 . S
O212 C215 1.265 . S
O213 Eu201 2.384 . S
O213 C222 1.255 1_556 S
O214 Tb200 2.366 . S
O214 C222 1.265 . S
C215 O211 1.259 . S
C215 O212 1.265 . S
O216 Eu201 2.479 . S
O216 C231 1.238 1_556 S
O217 Eu201 2.471 1_554 S
O217 C231 1.247 . S
O218 Eu201 2.347 1_554 S
O218 C202 1.259 . S
O219 Tb200 2.418 . S
O219 C202 1.265 . S
O220 Tb200 2.384 . S
O220 C203 1.255 . S
O221 Eu201 2.366 . S
O221 C203 1.265 1_556 S
C222 O213 1.255 1_554 S
C222 O214 1.265 . S
O223 Tb200 2.479 . S
O223 C210 1.238 . S
O224 Tb200 2.471 1_556 S
O224 C210 1.247 1_556 S
C225 C228 1.380 1_554 S
C225 C229 1.374 . S
C225 C231 1.507 . S
C226 C227 1.387 1_554 S
C226 C230 1.391 . S
C227 C226 1.387 1_556 S
C227 C228 1.384 . S
C227 H236 0.930 . S
C228 C225 1.380 1_556 S
C228 C227 1.384 . S
C228 H237 0.931 . S
C229 C225 1.374 . S
C229 C230 1.390 . S
C229 H238 0.930 . S
C230 C226 1.391 . S
C230 C229 1.390 . S
C230 H239 0.930 . S
C231 Eu201 2.825 1_554 S
C231 O216 1.238 1_554 S
C231 O217 1.247 . S
C231 C225 1.507 . S
H232 C205 0.930 . S
H233 C206 0.931 . S
H234 C207 0.930 . S
H235 C208 0.930 . S
H236 C227 0.930 . S
H237 C228 0.931 . S
H238 C229 0.930 . S
H239 C230 0.930 . S
Tb240 C250 2.825 . S
Tb240 O251 2.347 . S
Tb240 O254 2.366 . S
Tb240 O259 2.418 . S
Tb240 O260 2.384 . S
Tb240 O263 2.479 . S
Tb240 O264 2.471 . S
Eu241 O252 2.418 . S
Eu241 O253 2.384 . S
Eu241 O256 2.479 . S
Eu241 O257 2.471 . S
Eu241 O258 2.347 . S
Eu241 O261 2.366 . S
Eu241 C271 2.825 . S
C242 O258 1.259 . S
C242 O259 1.265 . S
C243 O260 1.255 . S
C243 O261 1.265 . S
C244 C246 1.380 . S
C244 C247 1.374 . S
C244 C250 1.507 . S
C245 C246 1.384 . S
C245 C249 1.387 . S
C245 H272 0.930 . S
C246 C244 1.380 . S
C246 C245 1.384 . S
C246 H273 0.931 . S
C247 C244 1.374 . S
C247 C248 1.390 . S
C247 H274 0.930 . S
C248 C247 1.390 . S
C248 C249 1.391 . S
C248 H275 0.930 . S
C249 C245 1.387 . S
C249 C248 1.391 . S
C250 Tb240 2.825 . S
C250 C244 1.507 . S
C250 O263 1.238 . S
C250 O264 1.247 . S
O251 Tb240 2.347 . S
O251 C255 1.259 . S
O252 Eu241 2.418 . S
O252 C255 1.265 . S
O253 Eu241 2.384 . S
O253 C262 1.255 . S
O254 Tb240 2.366 . S
O254 C262 1.265 . S
C255 O251 1.259 . S
C255 O252 1.265 . S
O256 Eu241 2.479 . S
O256 C271 1.238 . S
O257 Eu241 2.471 . S
O257 C271 1.247 . S
O258 Eu241 2.347 . S
O258 C242 1.259 . S
O259 Tb240 2.418 . S
O259 C242 1.265 . S
O260 Tb240 2.384 . S
O260 C243 1.255 . S
O261 Eu241 2.366 . S
O261 C243 1.265 . S
C262 O253 1.255 . S
C262 O254 1.265 . S
O263 Tb240 2.479 . S
O263 C250 1.238 . S
O264 Tb240 2.471 . S
O264 C250 1.247 . S
C265 C268 1.380 . S
C265 C269 1.374 . S
C265 C271 1.507 . S
C266 C267 1.387 . S
C266 C270 1.391 . S
C267 C266 1.387 . S
C267 C268 1.384 . S
C267 H276 0.930 . S
C268 C265 1.380 . S
C268 C267 1.384 . S
C268 H277 0.931 . S
C269 C265 1.374 . S
C269 C270 1.390 . S
C269 H278 0.930 . S
C270 C266 1.391 . S
C270 C269 1.390 . S
C270 H279 0.930 . S
C271 Eu241 2.825 . S
C271 O256 1.238 . S
C271 O257 1.247 . S
C271 C265 1.507 . S
H272 C245 0.930 . S
H273 C246 0.931 . S
H274 C247 0.930 . S
H275 C248 0.930 . S
H276 C267 0.930 . S
H277 C268 0.931 . S
H278 C269 0.930 . S
H279 C270 0.930 . S
Tb280 C290 2.825 . S
Tb280 O291 2.347 . S
Tb280 O294 2.366 . S
Tb280 O299 2.418 . S
Tb280 O300 2.384 . S
Tb280 O303 2.479 . S
Tb280 O304 2.471 . S
Eu281 O292 2.418 . S
Eu281 O293 2.384 . S
Eu281 O296 2.479 . S
Eu281 O297 2.471 . S
Eu281 O298 2.347 . S
Eu281 O301 2.366 . S
Eu281 C311 2.825 . S
C282 O298 1.259 . S
C282 O299 1.265 . S
C283 O300 1.255 . S
C283 O301 1.265 . S
C284 C286 1.380 . S
C284 C287 1.374 . S
C284 C290 1.507 . S
C285 C286 1.384 . S
C285 C289 1.387 . S
C285 H312 0.930 . S
C286 C284 1.380 . S
C286 C285 1.384 . S
C286 H313 0.931 . S
C287 C284 1.374 . S
C287 C288 1.390 . S
C287 H314 0.930 . S
C288 C287 1.390 . S
C288 C289 1.391 . S
C288 H315 0.930 . S
C289 C285 1.387 . S
C289 C288 1.391 . S
C290 Tb280 2.825 . S
C290 C284 1.507 . S
C290 O303 1.238 . S
C290 O304 1.247 . S
O291 Tb280 2.347 . S
O291 C295 1.259 . S
O292 Eu281 2.418 . S
O292 C295 1.265 . S
O293 Eu281 2.384 . S
O293 C302 1.255 . S
O294 Tb280 2.366 . S
O294 C302 1.265 . S
C295 O291 1.259 . S
C295 O292 1.265 . S
O296 Eu281 2.479 . S
O296 C311 1.238 . S
O297 Eu281 2.471 . S
O297 C311 1.247 . S
O298 Eu281 2.347 . S
O298 C282 1.259 . S
O299 Tb280 2.418 . S
O299 C282 1.265 . S
O300 Tb280 2.384 . S
O300 C283 1.255 . S
O301 Eu281 2.366 . S
O301 C283 1.265 . S
C302 O293 1.255 . S
C302 O294 1.265 . S
O303 Tb280 2.479 . S
O303 C290 1.238 . S
O304 Tb280 2.471 . S
O304 C290 1.247 . S
C305 C308 1.380 . S
C305 C309 1.374 . S
C305 C311 1.507 . S
C306 C307 1.387 . S
C306 C310 1.391 . S
C307 C306 1.387 . S
C307 C308 1.384 . S
C307 H316 0.930 . S
C308 C305 1.380 . S
C308 C307 1.384 . S
C308 H317 0.931 . S
C309 C305 1.374 . S
C309 C310 1.390 . S
C309 H318 0.930 . S
C310 C306 1.391 . S
C310 C309 1.390 . S
C310 H319 0.930 . S
C311 Eu281 2.825 . S
C311 O296 1.238 . S
C311 O297 1.247 . S
C311 C305 1.507 . S
H312 C285 0.930 . S
H313 C286 0.931 . S
H314 C287 0.930 . S
H315 C288 0.930 . S
H316 C307 0.930 . S
H317 C308 0.931 . S
H318 C309 0.930 . S
H319 C310 0.930 . S
H320 C328 0.950 . S
H321 C333 0.950 . S
H322 C330 0.950 . S
H323 C332 0.950 . S
H324 C334 0.950 . S
H325 C336 0.950 . S
H326 C338 0.950 . S
H327 C339 0.950 . S
C328 H320 0.950 . S
C328 C329 1.386 1_556 S
C328 C330 1.391 . S
C329 C328 1.386 1_554 S
C329 C333 1.393 . S
C330 H322 0.950 . S
C330 C328 1.391 . S
C330 C331 1.400 1_556 S
C331 C330 1.400 1_554 S
C331 C332 1.398 . S
C331 C337 1.491 . S
C332 H323 0.950 . S
C332 C331 1.398 . S
C332 C333 1.391 . S
C333 H321 0.950 . S
C333 C329 1.393 . S
C333 C332 1.391 . S
C334 H324 0.950 . S
C334 C335 1.386 . S
C334 C336 1.391 . S
C335 C334 1.386 . S
C335 C339 1.393 1_554 S
C336 H325 0.950 . S
C336 C334 1.391 . S
C336 C337 1.400 . S
C337 C331 1.491 . S
C337 C336 1.400 . S
C337 C338 1.398 1_554 S
C338 H326 0.950 . S
C338 C337 1.398 1_556 S
C338 C339 1.391 . S
C339 H327 0.950 . S
C339 C335 1.393 1_556 S
C339 C338 1.391 . S
H340 C348 0.950 . S
H341 C353 0.950 . S
H342 C350 0.950 . S
H343 C352 0.950 . S
H344 C354 0.950 . S
H345 C356 0.950 . S
H346 C358 0.950 . S
H347 C359 0.950 . S
C348 H340 0.950 . S
C348 C349 1.386 . S
C348 C350 1.391 . S
C349 C348 1.386 . S
C349 C353 1.393 1_554 S
C350 H342 0.950 . S
C350 C348 1.391 . S
C350 C351 1.400 . S
C351 C350 1.400 . S
C351 C352 1.398 1_554 S
C351 C357 1.491 . S
C352 H343 0.950 . S
C352 C351 1.398 1_556 S
C352 C353 1.391 . S
C353 H341 0.950 . S
C353 C349 1.393 1_556 S
C353 C352 1.391 . S
C354 H344 0.950 . S
C354 C355 1.386 1_556 S
C354 C356 1.391 . S
C355 C354 1.386 1_554 S
C355 C359 1.393 . S
C356 H345 0.950 . S
C356 C354 1.391 . S
C356 C357 1.400 1_556 S
C357 C351 1.491 . S
C357 C356 1.400 1_554 S
C357 C358 1.398 . S
C358 H346 0.950 . S
C358 C357 1.398 . S
C358 C359 1.391 . S
C359 H347 0.950 . S
C359 C355 1.393 . S
C359 C358 1.391 . S
H360 C368 0.950 . S
H361 C373 0.950 . S
H362 C370 0.950 . S
H363 C372 0.950 . S
H364 C374 0.950 . S
H365 C376 0.950 . S
H366 C378 0.950 . S
H367 C379 0.950 . S
C368 H360 0.950 . S
C368 C369 1.386 . S
C368 C370 1.391 . S
C369 C368 1.386 . S
C369 C373 1.393 . S
C370 H362 0.950 . S
C370 C368 1.391 . S
C370 C371 1.400 . S
C371 C370 1.400 . S
C371 C372 1.398 . S
C371 C377 1.491 . S
C372 H363 0.950 . S
C372 C371 1.398 . S
C372 C373 1.391 . S
C373 H361 0.950 . S
C373 C369 1.393 . S
C373 C372 1.391 . S
C374 H364 0.950 . S
C374 C375 1.386 . S
C374 C376 1.391 . S
C375 C374 1.386 . S
C375 C379 1.393 . S
C376 H365 0.950 . S
C376 C374 1.391 . S
C376 C377 1.400 . S
C377 C371 1.491 . S
C377 C376 1.400 . S
C377 C378 1.398 . S
C378 H366 0.950 . S
C378 C377 1.398 . S
C378 C379 1.391 . S
C379 H367 0.950 . S
C379 C375 1.393 . S
C379 C378 1.391 . S
H380 C388 0.950 . S
H381 C393 0.950 . S
H382 C390 0.950 . S
H383 C392 0.950 . S
H384 C394 0.950 . S
H385 C396 0.950 . S
H386 C398 0.950 . S
H387 C399 0.950 . S
C388 H380 0.950 . S
C388 C389 1.386 . S
C388 C390 1.391 . S
C389 C388 1.386 . S
C389 C393 1.393 . S
C390 H382 0.950 . S
C390 C388 1.391 . S
C390 C391 1.400 . S
C391 C390 1.400 . S
C391 C392 1.398 . S
C391 C397 1.491 . S
C392 H383 0.950 . S
C392 C391 1.398 . S
C392 C393 1.391 . S
C393 H381 0.950 . S
C393 C389 1.393 . S
C393 C392 1.391 . S
C394 H384 0.950 . S
C394 C395 1.386 . S
C394 C396 1.391 . S
C395 C394 1.386 . S
C395 C399 1.393 . S
C396 H385 0.950 . S
C396 C394 1.391 . S
C396 C397 1.400 . S
C397 C391 1.491 . S
C397 C396 1.400 . S
C397 C398 1.398 . S
C398 H386 0.950 . S
C398 C397 1.398 . S
C398 C399 1.391 . S
C399 H387 0.950 . S
C399 C395 1.393 . S
C399 C398 1.391 . S
H400 C408 0.950 . S
H401 C413 0.950 . S
H402 C410 0.950 . S
H403 C412 0.950 1_455 S
H404 C414 0.950 . S
H405 C416 0.950 . S
H406 C418 0.950 . S
H407 C419 0.950 . S
C408 H400 0.950 . S
C408 C409 1.386 1_556 S
C408 C410 1.391 . S
C409 C408 1.386 1_554 S
C409 C413 1.393 . S
C410 H402 0.950 . S
C410 C408 1.391 . S
C410 C411 1.400 1_656 S
C411 C410 1.400 1_454 S
C411 C412 1.398 1_455 S
C411 C417 1.491 . S
C412 H403 0.950 1_655 S
C412 C411 1.398 1_655 S
C412 C413 1.391 . S
C413 H401 0.950 . S
C413 C409 1.393 . S
C413 C412 1.391 . S
C414 H404 0.950 . S
C414 C415 1.386 . S
C414 C416 1.391 . S
C415 C414 1.386 . S
C415 C419 1.393 1_554 S
C416 H405 0.950 . S
C416 C414 1.391 . S
C416 C417 1.400 . S
C417 C411 1.491 . S
C417 C416 1.400 . S
C417 C418 1.398 1_554 S
C418 H406 0.950 . S
C418 C417 1.398 1_556 S
C418 C419 1.391 . S
C419 H407 0.950 . S
C419 C415 1.393 1_556 S
C419 C418 1.391 . S
H420 C428 0.950 . S
H421 C433 0.950 . S
H422 C430 0.950 . S
H423 C432 0.950 1_655 S
H424 C434 0.950 . S
H425 C436 0.950 . S
H426 C438 0.950 . S
H427 C439 0.950 . S
C428 H420 0.950 . S
C428 C429 1.386 . S
C428 C430 1.391 . S
C429 C428 1.386 . S
C429 C433 1.393 1_554 S
C430 H422 0.950 . S
C430 C428 1.391 . S
C430 C431 1.400 1_455 S
C431 C430 1.400 1_655 S
C431 C432 1.398 1_654 S
C431 C437 1.491 . S
C432 H423 0.950 1_455 S
C432 C431 1.398 1_456 S
C432 C433 1.391 . S
C433 H421 0.950 . S
C433 C429 1.393 1_556 S
C433 C432 1.391 . S
C434 H424 0.950 . S
C434 C435 1.386 1_556 S
C434 C436 1.391 . S
C435 C434 1.386 1_554 S
C435 C439 1.393 . S
C436 H425 0.950 . S
C436 C434 1.391 . S
C436 C437 1.400 1_556 S
C437 C431 1.491 . S
C437 C436 1.400 1_554 S
C437 C438 1.398 . S
C438 H426 0.950 . S
C438 C437 1.398 . S
C438 C439 1.391 . S
C439 H427 0.950 . S
C439 C435 1.393 . S
C439 C438 1.391 . S
H440 C448 0.950 . S
H441 C453 0.950 . S
H442 C450 0.950 . S
H443 C452 0.950 . S
H444 C454 0.950 . S
H445 C456 0.950 1_455 S
H446 C458 0.950 . S
H447 C459 0.950 . S
C448 H440 0.950 . S
C448 C449 1.386 . S
C448 C450 1.391 . S
C449 C448 1.386 . S
C449 C453 1.393 . S
C450 H442 0.950 . S
C450 C448 1.391 . S
C450 C451 1.400 . S
C451 C450 1.400 . S
C451 C452 1.398 . S
C451 C457 1.491 . S
C452 H443 0.950 . S
C452 C451 1.398 . S
C452 C453 1.391 . S
C453 H441 0.950 . S
C453 C449 1.393 . S
C453 C452 1.391 . S
C454 H444 0.950 . S
C454 C455 1.386 . S
C454 C456 1.391 . S
C455 C454 1.386 . S
C455 C459 1.393 . S
C456 H445 0.950 1_655 S
C456 C454 1.391 . S
C456 C457 1.400 1_655 S
C457 C451 1.491 . S
C457 C456 1.400 1_455 S
C457 C458 1.398 1_455 S
C458 H446 0.950 . S
C458 C457 1.398 1_655 S
C458 C459 1.391 . S
C459 H447 0.950 . S
C459 C455 1.393 . S
C459 C458 1.391 . S
H460 C468 0.950 . S
H461 C473 0.950 . S
H462 C470 0.950 . S
H463 C472 0.950 . S
H464 C474 0.950 . S
H465 C476 0.950 1_655 S
H466 C478 0.950 . S
H467 C479 0.950 . S
C468 H460 0.950 . S
C468 C469 1.386 . S
C468 C470 1.391 . S
C469 C468 1.386 . S
C469 C473 1.393 . S
C470 H462 0.950 . S
C470 C468 1.391 . S
C470 C471 1.400 . S
C471 C470 1.400 . S
C471 C472 1.398 . S
C471 C477 1.491 . S
C472 H463 0.950 . S
C472 C471 1.398 . S
C472 C473 1.391 . S
C473 H461 0.950 . S
C473 C469 1.393 . S
C473 C472 1.391 . S
C474 H464 0.950 . S
C474 C475 1.386 . S
C474 C476 1.391 . S
C475 C474 1.386 . S
C475 C479 1.393 . S
C476 H465 0.950 1_455 S
C476 C474 1.391 . S
C476 C477 1.400 1_455 S
C477 C471 1.491 . S
C477 C476 1.400 1_655 S
C477 C478 1.398 1_655 S
C478 H466 0.950 . S
C478 C477 1.398 1_455 S
C478 C479 1.391 . S
C479 H467 0.950 . S
C479 C475 1.393 . S
C479 C478 1.391 . S
H480 C488 0.945 1_554 S
H481 C493 0.950 1_655 S
H482 C490 0.950 . S
H483 C492 0.950 . S
H484 C494 0.950 . S
H485 C496 0.950 . S
H486 C498 0.950 . S
H487 C499 0.950 1_455 S
C488 H480 0.945 1_556 S
C488 C489 1.388 . S
C488 C490 1.395 . S
C489 C488 1.388 . S
C489 C493 1.393 . S
C490 H482 0.950 . S
C490 C488 1.395 . S
C490 C491 1.400 . S
C491 C490 1.400 . S
C491 C492 1.398 1_455 S
C491 C497 1.491 1_455 S
C492 H483 0.950 . S
C492 C491 1.398 1_655 S
C492 C493 1.391 1_655 S
C493 H481 0.950 1_455 S
C493 C489 1.393 . S
C493 C492 1.391 1_455 S
C494 H484 0.950 . S
C494 C495 1.386 . S
C494 C496 1.391 . S
C495 C494 1.386 . S
C495 C499 1.393 . S
C496 H485 0.950 . S
C496 C494 1.391 . S
C496 C497 1.400 . S
C497 C491 1.491 1_655 S
C497 C496 1.400 . S
C497 C498 1.398 1_655 S
C498 H486 0.950 . S
C498 C497 1.398 1_455 S
C498 C499 1.391 1_455 S
C499 H487 0.950 1_655 S
C499 C495 1.393 . S
C499 C498 1.391 1_655 S
H500 C508 0.950 . S
H501 C513 0.950 . S
H502 C510 0.950 1_655 S
H503 C512 0.950 . S
H504 C514 0.950 . S
H505 C516 0.950 1_455 S
H506 C518 0.950 . S
H507 C519 0.950 . S
C508 H500 0.950 . S
C508 C509 1.386 . S
C508 C510 1.391 . S
C509 C508 1.386 . S
C509 C513 1.393 . S
C510 H502 0.950 1_455 S
C510 C508 1.391 . S
C510 C511 1.400 . S
C511 C510 1.400 . S
C511 C512 1.398 . S
C511 C517 1.491 1_455 S
C512 H503 0.950 . S
C512 C511 1.398 . S
C512 C513 1.391 . S
C513 H501 0.950 . S
C513 C509 1.393 . S
C513 C512 1.391 . S
C514 H504 0.950 . S
C514 C515 1.386 . S
C514 C516 1.391 . S
C515 C514 1.386 . S
C515 C519 1.393 . S
C516 H505 0.950 1_655 S
C516 C514 1.391 . S
C516 C517 1.400 . S
C517 C511 1.491 1_655 S
C517 C516 1.400 . S
C517 C518 1.398 . S
C518 H506 0.950 . S
C518 C517 1.398 . S
C518 C519 1.391 . S
C519 H507 0.950 . S
C519 C515 1.393 . S
C519 C518 1.391 . S
H520 C528 0.950 . S
H521 C533 0.950 . S
H522 C530 0.950 . S
H523 C532 1.002 . S
H524 C534 0.950 . S
H525 C536 0.950 . S
H526 C538 0.950 . S
H527 C539 0.950 . S
C528 H520 0.950 . S
C528 C529 1.386 1_554 S
C528 C530 1.391 . S
C529 C528 1.386 1_556 S
C529 C533 1.393 . S
C530 H522 0.950 . S
C530 C528 1.391 . S
C530 C531 1.400 1_554 S
C531 C530 1.400 1_556 S
C531 C532 1.398 . S
C531 C537 1.491 1_565 S
C532 H523 1.002 . S
C532 C531 1.398 . S
C532 C533 1.391 . S
C533 H521 0.950 . S
C533 C529 1.393 . S
C533 C532 1.391 . S
C534 H524 0.950 . S
C534 C535 1.386 . S
C534 C536 1.391 . S
C535 C534 1.386 . S
C535 C539 1.393 1_556 S
C536 H525 0.950 . S
C536 C534 1.391 . S
C536 C537 1.400 . S
C537 C531 1.491 1_545 S
C537 C536 1.400 . S
C537 C538 1.398 1_556 S
C538 H526 0.950 . S
C538 C537 1.398 1_554 S
C538 C539 1.391 . S
C539 H527 0.950 . S
C539 C535 1.393 1_554 S
C539 C538 1.391 . S
H540 C548 0.950 . S
H541 C553 0.950 . S
H542 C550 0.950 . S
H543 C552 0.950 . S
H544 C554 0.950 . S
H545 C556 0.950 . S
H546 C558 0.950 . S
H547 C559 0.950 . S
C548 H540 0.950 . S
C548 C549 1.386 . S
C548 C550 1.391 . S
C549 C548 1.386 . S
C549 C553 1.393 . S
C550 H542 0.950 . S
C550 C548 1.391 . S
C550 C551 1.400 . S
C551 C550 1.400 . S
C551 C552 1.398 . S
C551 C557 1.491 1_545 S
C552 H543 0.950 . S
C552 C551 1.398 . S
C552 C553 1.391 . S
C553 H541 0.950 . S
C553 C549 1.393 . S
C553 C552 1.391 . S
C554 H544 0.950 . S
C554 C555 1.386 . S
C554 C556 1.391 . S
C555 C554 1.386 . S
C555 C559 1.393 . S
C556 H545 0.950 . S
C556 C554 1.391 . S
C556 C557 1.400 . S
C557 C551 1.491 1_565 S
C557 C556 1.400 . S
C557 C558 1.398 . S
C558 H546 0.950 . S
C558 C557 1.398 . S
C558 C559 1.391 . S
C559 H547 0.950 . S
C559 C555 1.393 . S
C559 C558 1.391 . S
H560 C568 0.950 . S
H561 C573 0.950 . S
H562 C570 0.950 . S
H563 C572 0.950 . S
H564 C574 0.950 1_556 S
H565 C576 0.950 1_556 S
H566 C578 0.950 . S
H567 C579 0.950 . S
C568 H560 0.950 . S
C568 C569 1.386 . S
C568 C570 1.391 . S
C569 C568 1.386 . S
C569 C573 1.393 . S
C570 H562 0.950 . S
C570 C568 1.391 . S
C570 C571 1.400 . S
C571 C570 1.400 . S
C571 C572 1.398 . S
C571 C577 1.491 . S
C572 H563 0.950 . S
C572 C571 1.398 . S
C572 C573 1.391 . S
C573 H561 0.950 . S
C573 C569 1.393 . S
C573 C572 1.391 . S
C574 H564 0.950 1_554 S
C574 C575 1.386 . S
C574 C576 1.391 . S
C575 C574 1.386 . S
C575 C579 1.393 . S
C576 H565 0.950 1_554 S
C576 C574 1.391 . S
C576 C577 1.400 . S
C577 C571 1.491 . S
C577 C576 1.400 . S
C577 C578 1.398 . S
C578 H566 0.950 . S
C578 C577 1.398 . S
C578 C579 1.391 . S
C579 H567 0.950 . S
C579 C575 1.393 . S
C579 C578 1.391 . S
H580 C588 0.950 1_556 S
H581 C593 0.950 . S
H582 C590 0.950 . S
H583 C592 0.950 . S
H584 C594 0.950 . S
H585 C596 0.950 . S
H586 C598 0.950 . S
H587 C599 0.950 . S
C588 H580 0.950 1_554 S
C588 C589 1.386 . S
C588 C590 1.391 1_554 S
C589 C588 1.386 . S
C589 C593 1.393 . S
C590 H582 0.950 . S
C590 C588 1.391 1_556 S
C590 C591 1.400 1_556 S
C591 C590 1.400 1_554 S
C591 C592 1.398 . S
C591 C597 1.491 . S
C592 H583 0.950 . S
C592 C591 1.398 . S
C592 C593 1.391 . S
C593 H581 0.950 . S
C593 C589 1.393 . S
C593 C592 1.391 . S
C594 H584 0.950 . S
C594 C595 1.386 . S
C594 C596 1.391 . S
C595 C594 1.386 . S
C595 C599 1.393 1_554 S
C596 H585 0.950 . S
C596 C594 1.391 . S
C596 C597 1.400 . S
C597 C591 1.491 . S
C597 C596 1.400 . S
C597 C598 1.398 1_554 S
C598 H586 0.950 . S
C598 C597 1.398 1_556 S
C598 C599 1.391 . S
C599 H587 0.950 . S
C599 C595 1.393 1_556 S
C599 C598 1.391 . S
H600 C608 0.950 . S
H601 C613 0.950 . S
H602 C610 0.950 . S
H603 C612 0.950 . S
H604 C614 0.950 . S
H605 C616 0.950 . S
H606 C618 0.950 . S
H607 C619 0.950 . S
C608 H600 0.950 . S
C608 C609 1.386 . S
C608 C610 1.391 . S
C609 C608 1.386 . S
C609 C613 1.393 . S
C610 H602 0.950 . S
C610 C608 1.391 . S
C610 C611 1.400 . S
C611 C610 1.400 . S
C611 C612 1.398 . S
C611 C617 1.491 . S
C612 H603 0.950 . S
C612 C611 1.398 . S
C612 C613 1.391 . S
C613 H601 0.950 . S
C613 C609 1.393 . S
C613 C612 1.391 . S
C614 H604 0.950 . S
C614 C615 1.386 . S
C614 C616 1.391 . S
C615 C614 1.386 . S
C615 C619 1.393 . S
C616 H605 0.950 . S
C616 C614 1.391 . S
C616 C617 1.400 . S
C617 C611 1.491 . S
C617 C616 1.400 . S
C617 C618 1.398 . S
C618 H606 0.950 . S
C618 C617 1.398 . S
C618 C619 1.391 . S
C619 H607 0.950 . S
C619 C615 1.393 . S
C619 C618 1.391 . S
H620 C628 0.950 . S
H621 C633 0.950 . S
H622 C630 0.950 . S
H623 C632 0.950 . S
H624 C634 0.950 . S
H625 C636 0.950 . S
H626 C638 0.950 . S
H627 C639 0.950 . S
C628 H620 0.950 . S
C628 C629 1.386 . S
C628 C630 1.391 . S
C629 C628 1.386 . S
C629 C633 1.393 . S
C630 H622 0.950 . S
C630 C628 1.391 . S
C630 C631 1.400 . S
C631 C630 1.400 . S
C631 C632 1.398 . S
C631 C637 1.491 . S
C632 H623 0.950 . S
C632 C631 1.398 . S
C632 C633 1.391 . S
C633 H621 0.950 . S
C633 C629 1.393 . S
C633 C632 1.391 . S
C634 H624 0.950 . S
C634 C635 1.386 . S
C634 C636 1.391 . S
C635 C634 1.386 . S
C635 C639 1.393 . S
C636 H625 0.950 . S
C636 C634 1.391 . S
C636 C637 1.400 . S
C637 C631 1.491 . S
C637 C636 1.400 . S
C637 C638 1.398 . S
C638 H626 0.950 . S
C638 C637 1.398 . S
C638 C639 1.391 . S
C639 H627 0.950 . S
C639 C635 1.393 . S
C639 C638 1.391 . S
H640 C648 0.950 . S
H641 C653 0.950 . S
H642 C650 0.950 . S
H643 C652 0.950 . S
H644 C654 0.950 . S
H645 C656 0.950 . S
H646 C658 0.950 . S
H647 C659 0.950 . S
C648 H640 0.950 . S
C648 C649 1.386 . S
C648 C650 1.391 . S
C649 C648 1.386 . S
C649 C653 1.393 1_455 S
C650 H642 0.950 . S
C650 C648 1.391 . S
C650 C651 1.400 . S
C651 C650 1.400 . S
C651 C652 1.398 1_455 S
C651 C657 1.491 1_455 S
C652 H643 0.950 . S
C652 C651 1.398 1_655 S
C652 C653 1.391 . S
C653 H641 0.950 . S
C653 C649 1.393 1_655 S
C653 C652 1.391 . S
C654 H644 0.950 . S
C654 C655 1.386 . S
C654 C656 1.391 . S
C655 C654 1.386 . S
C655 C659 1.393 1_655 S
C656 H645 0.950 . S
C656 C654 1.391 . S
C656 C657 1.400 . S
C657 C651 1.491 1_655 S
C657 C656 1.400 . S
C657 C658 1.398 1_655 S
C658 H646 0.950 . S
C658 C657 1.398 1_455 S
C658 C659 1.391 . S
C659 H647 0.950 . S
C659 C655 1.393 1_455 S
C659 C658 1.391 . S
H660 C668 0.950 . S
H661 C673 0.950 . S
H662 C670 0.950 . S
H663 C672 0.950 . S
H664 C674 0.950 . S
H665 C676 0.950 . S
H666 C678 0.950 . S
H667 C679 0.950 . S
C668 H660 0.950 . S
C668 C669 1.386 . S
C668 C670 1.391 . S
C669 C668 1.386 . S
C669 C673 1.393 1_655 S
C670 H662 0.950 . S
C670 C668 1.391 . S
C670 C671 1.400 . S
C671 C670 1.400 . S
C671 C672 1.398 1_655 S
C671 C677 1.491 1_655 S
C672 H663 0.950 . S
C672 C671 1.398 1_455 S
C672 C673 1.391 . S
C673 H661 0.950 . S
C673 C669 1.393 1_455 S
C673 C672 1.391 . S
C674 H664 0.950 . S
C674 C675 1.386 . S
C674 C676 1.391 . S
C675 C674 1.386 . S
C675 C679 1.393 1_455 S
C676 H665 0.950 . S
C676 C674 1.391 . S
C676 C677 1.400 . S
C677 C671 1.491 1_455 S
C677 C676 1.400 . S
C677 C678 1.398 1_455 S
C678 H666 0.950 . S
C678 C677 1.398 1_655 S
C678 C679 1.391 . S
C679 H667 0.950 . S
C679 C675 1.393 1_655 S
C679 C678 1.391 . S
H680 C688 0.950 . S
H681 C693 0.950 1_455 S
H682 C690 0.950 . S
H683 C692 0.950 . S
H684 C694 0.950 . S
H685 C696 0.950 . S
H686 C698 0.950 . S
H687 C699 0.950 . S
C688 H680 0.950 . S
C688 C689 1.386 . S
C688 C690 1.391 . S
C689 C688 1.386 . S
C689 C693 1.393 . S
C690 H682 0.950 . S
C690 C688 1.391 . S
C690 C691 1.400 . S
C691 C690 1.400 . S
C691 C692 1.398 1_655 S
C691 C697 1.491 1_655 S
C692 H683 0.950 . S
C692 C691 1.398 1_455 S
C692 C693 1.391 1_455 S
C693 H681 0.950 1_655 S
C693 C689 1.393 . S
C693 C692 1.391 1_655 S
C694 H684 0.950 . S
C694 C695 1.386 . S
C694 C696 1.391 . S
C695 C694 1.386 . S
C695 C699 1.393 1_455 S
C696 H685 0.950 . S
C696 C694 1.391 . S
C696 C697 1.400 . S
C697 C691 1.491 1_455 S
C697 C696 1.400 . S
C697 C698 1.398 1_455 S
C698 H686 0.950 . S
C698 C697 1.398 1_655 S
C698 C699 1.391 . S
C699 H687 0.950 . S
C699 C695 1.393 1_655 S
C699 C698 1.391 . S
H700 C708 0.950 . S
H701 C713 0.950 . S
H702 C710 0.950 . S
H703 C712 0.950 . S
H704 C714 0.950 . S
H705 C716 0.950 . S
H706 C718 0.950 . S
H707 C719 0.950 . S
C708 H700 0.950 . S
C708 C709 1.386 1_455 S
C708 C710 1.391 . S
C709 C708 1.386 1_655 S
C709 C713 1.393 . S
C710 H702 0.950 . S
C710 C708 1.391 . S
C710 C711 1.400 1_455 S
C711 C710 1.400 1_655 S
C711 C712 1.398 . S
C711 C717 1.491 1_655 S
C712 H703 0.950 . S
C712 C711 1.398 . S
C712 C713 1.391 . S
C713 H701 0.950 . S
C713 C709 1.393 . S
C713 C712 1.391 . S
C714 H704 0.950 . S
C714 C715 1.386 1_655 S
C714 C716 1.391 . S
C715 C714 1.386 1_455 S
C715 C719 1.393 . S
C716 H705 0.950 . S
C716 C714 1.391 . S
C716 C717 1.400 1_655 S
C717 C711 1.491 1_455 S
C717 C716 1.400 1_455 S
C717 C718 1.398 . S
C718 H706 0.950 . S
C718 C717 1.398 . S
C718 C719 1.391 . S
C719 H707 0.950 . S
C719 C715 1.393 . S
C719 C718 1.391 . S
H720 C728 0.950 . S
H721 C733 0.950 . S
H722 C730 0.950 . S
H723 C732 0.950 . S
H724 C734 0.950 . S
H725 C736 0.950 . S
H726 C738 0.950 . S
H727 C739 0.950 . S
C728 H720 0.950 . S
C728 C729 1.386 . S
C728 C730 1.391 . S
C729 C728 1.386 . S
C729 C733 1.393 . S
C730 H722 0.950 . S
C730 C728 1.391 . S
C730 C731 1.400 . S
C731 C730 1.400 . S
C731 C732 1.398 . S
C731 C737 1.491 . S
C732 H723 0.950 . S
C732 C731 1.398 . S
C732 C733 1.391 . S
C733 H721 0.950 . S
C733 C729 1.393 . S
C733 C732 1.391 . S
C734 H724 0.950 . S
C734 C735 1.386 . S
C734 C736 1.391 . S
C735 C734 1.386 . S
C735 C739 1.393 . S
C736 H725 0.950 . S
C736 C734 1.391 . S
C736 C737 1.400 . S
C737 C731 1.491 . S
C737 C736 1.400 . S
C737 C738 1.398 . S
C738 H726 0.950 . S
C738 C737 1.398 . S
C738 C739 1.391 . S
C739 H727 0.950 . S
C739 C735 1.393 . S
C739 C738 1.391 . S
H740 C748 0.950 . S
H741 C753 0.950 . S
H742 C750 0.950 . S
H743 C752 0.950 . S
H744 C754 0.950 . S
H745 C756 0.950 . S
H746 C758 0.950 . S
H747 C759 0.950 . S
C748 H740 0.950 . S
C748 C749 1.386 . S
C748 C750 1.391 . S
C749 C748 1.386 . S
C749 C753 1.393 . S
C750 H742 0.950 . S
C750 C748 1.391 . S
C750 C751 1.400 . S
C751 C750 1.400 . S
C751 C752 1.398 . S
C751 C757 1.491 . S
C752 H743 0.950 . S
C752 C751 1.398 . S
C752 C753 1.391 . S
C753 H741 0.950 . S
C753 C749 1.393 . S
C753 C752 1.391 . S
C754 H744 0.950 . S
C754 C755 1.386 . S
C754 C756 1.391 . S
C755 C754 1.386 . S
C755 C759 1.393 . S
C756 H745 0.950 . S
C756 C754 1.391 . S
C756 C757 1.400 . S
C757 C751 1.491 . S
C757 C756 1.400 . S
C757 C758 1.398 . S
C758 H746 0.950 . S
C758 C757 1.398 . S
C758 C759 1.391 . S
C759 H747 0.950 . S
C759 C755 1.393 . S
C759 C758 1.391 . S
H760 C768 0.950 . S
H761 C773 0.950 . S
H762 C770 0.950 . S
H763 C772 0.950 . S
H764 C774 0.950 . S
H765 C776 0.950 . S
H766 C778 0.950 . S
H767 C779 0.950 . S
C768 H760 0.950 . S
C768 C769 1.386 . S
C768 C770 1.391 . S
C769 C768 1.386 . S
C769 C773 1.393 . S
C770 H762 0.950 . S
C770 C768 1.391 . S
C770 C771 1.400 . S
C771 C770 1.400 . S
C771 C772 1.398 . S
C771 C777 1.491 . S
C772 H763 0.950 . S
C772 C771 1.398 . S
C772 C773 1.391 . S
C773 H761 0.950 . S
C773 C769 1.393 . S
C773 C772 1.391 . S
C774 H764 0.950 . S
C774 C775 1.386 . S
C774 C776 1.391 . S
C775 C774 1.386 . S
C775 C779 1.393 . S
C776 H765 0.950 . S
C776 C774 1.391 . S
C776 C777 1.400 . S
C777 C771 1.491 . S
C777 C776 1.400 . S
C777 C778 1.398 . S
C778 H766 0.950 . S
C778 C777 1.398 . S
C778 C779 1.391 . S
C779 H767 0.950 . S
C779 C775 1.393 . S
C779 C778 1.391 . S
H780 C788 0.950 . S
H781 C793 0.950 . S
H782 C790 0.950 . S
H783 C792 0.950 . S
H784 C794 0.950 . S
H785 C796 0.950 . S
H786 C798 0.950 . S
H787 C799 0.950 . S
C788 H780 0.950 . S
C788 C789 1.386 . S
C788 C790 1.391 . S
C789 C788 1.386 . S
C789 C793 1.393 . S
C790 H782 0.950 . S
C790 C788 1.391 . S
C790 C791 1.400 . S
C791 C790 1.400 . S
C791 C792 1.398 . S
C791 C797 1.491 . S
C792 H783 0.950 . S
C792 C791 1.398 . S
C792 C793 1.391 . S
C793 H781 0.950 . S
C793 C789 1.393 . S
C793 C792 1.391 . S
C794 H784 0.950 . S
C794 C795 1.386 . S
C794 C796 1.391 . S
C795 C794 1.386 . S
C795 C799 1.393 . S
C796 H785 0.950 . S
C796 C794 1.391 . S
C796 C797 1.400 . S
C797 C791 1.491 . S
C797 C796 1.400 . S
C797 C798 1.398 . S
C798 H786 0.950 . S
C798 C797 1.398 . S
C798 C799 1.391 . S
C799 H787 0.950 . S
C799 C795 1.393 . S
C799 C798 1.391 . S
C329 C3 2.306 . S
C335 C22 2.306 . S
C349 C62 2.314 . S
C355 C43 2.314 . S
C369 C83 2.314 . S
C375 C102 2.314 . S
C389 C123 2.303 . S
C395 C142 2.303 . S
C409 C163 2.306 . S
C415 C182 2.306 . S
C429 C203 2.314 . S
C435 C222 2.314 . S
C449 C243 2.308 . S
C455 C262 2.308 . S
C469 C302 2.303 . S
C475 C283 2.303 . S
C489 C49 2.543 . S
C495 C9 2.531 . S
C509 C129 2.539 . S
C515 C106 2.539 . S
C529 C169 2.527 . S
C535 C209 2.539 . S
C549 C266 2.537 . S
C555 C289 2.537 . S
C569 C26 1.794 . S
C575 C226 1.803 . S
C589 C186 1.809 . S
C595 C66 1.823 . S
C609 C89 1.773 . S
C615 C306 1.773 . S
C629 C146 1.797 . S
C635 C249 1.797 . S
C649 C2 1.516 . S
C655 C122 1.548 . S
C669 C42 1.561 . S
C675 C82 1.546 . S
C689 C55 1.520 . S
C695 C95 1.531 . S
C709 C135 1.594 . S
C715 C15 1.561 . S
C729 C162 1.536 . S
C735 C282 1.539 . S
C749 C202 1.578 . S
C755 C242 1.561 . S
C769 C215 1.512 . S
C775 C255 1.527 . S
C789 C295 1.590 . S
C795 C175 1.550 . S
