# Generated by pormake.
# Topology rob, (6)-cn, num edge types: 1
# Building blocks:
#     Node 0, Type 0, BuildingBlock: GEDQOX_clean_sbu_0, # of connection points: 6
#     Node 1, Type 0, BuildingBlock: GEDQOX_clean_sbu_0, # of connection points: 6
#     Node 2, Type 0, BuildingBlock: GEDQOX_clean_sbu_0, # of connection points: 6
#     Node 3, Type 0, BuildingBlock: GEDQOX_clean_sbu_0, # of connection points: 6
#     Edge 4, Type (0, 0), BuildingBlock: MIFKUJ_clean_linker_0, # of connection points: 2
#     Edge 5, Type (0, 0), BuildingBlock: MIFKUJ_clean_linker_0, # of connection points: 2
#     Edge 6, Type (0, 0), BuildingBlock: MIFKUJ_clean_linker_0, # of connection points: 2
#     Edge 7, Type (0, 0), BuildingBlock: MIFKUJ_clean_linker_0, # of connection points: 2
#     Edge 8, Type (0, 0), BuildingBlock: MIFKUJ_clean_linker_0, # of connection points: 2
#     Edge 9, Type (0, 0), BuildingBlock: MIFKUJ_clean_linker_0, # of connection points: 2
#     Edge 10, Type (0, 0), BuildingBlock: MIFKUJ_clean_linker_0, # of connection points: 2
#     Edge 11, Type (0, 0), BuildingBlock: MIFKUJ_clean_linker_0, # of connection points: 2
#     Edge 12, Type (0, 0), BuildingBlock: MIFKUJ_clean_linker_0, # of connection points: 2
#     Edge 13, Type (0, 0), BuildingBlock: MIFKUJ_clean_linker_0, # of connection points: 2
#     Edge 14, Type (0, 0), BuildingBlock: MIFKUJ_clean_linker_0, # of connection points: 2
#     Edge 15, Type (0, 0), BuildingBlock: MIFKUJ_clean_linker_0, # of connection points: 2
# Relax obj value: 0.059
# Max RMSD: 0.206
# Mean RMSD: 0.144
data_MOF--net-rob--node1-GEDQOX_clean_sbu_0--edge1-MIFKUJ_clean_linker_0
_symmetry_space_group_name_H-M    P1
_symmetry_Int_Tables_number       1
_symmetry_cell_setting            triclinic
loop_
_symmetry_equiv_pos_as_xyz
'x, y, z'
_cell_length_a     23.524025
_cell_length_b     44.171083
_cell_length_c     37.61236
_cell_angle_alpha  110.08954
_cell_angle_beta   109.02516
_cell_angle_gamma 60.583419
loop_
_atom_site_label
_atom_site_type_symbol
_atom_site_fract_x
_atom_site_fract_y
_atom_site_fract_z
_atom_type_partial_charge
Nd0 Nd 0.22973 0.31474 0.01968 0.0
Nd1 Nd 0.23078 0.24086 0.98817 0.0
C2 C 0.23089 0.37754 0.03339 0.0
C3 C 0.25778 0.39547 0.02077 0.0
C4 C 0.22228 0.43207 0.02168 0.0
C5 C 0.2511 0.45061 0.01543 0.0
C6 C 0.31651 0.43301 0.00844 0.0
C7 C 0.35085 0.39594 0.00599 0.0
C8 C 0.32178 0.3774 0.01196 0.0
C9 C 0.30947 0.2682 0.06686 0.0
C10 C 0.31414 0.25923 0.95077 0.0
C11 C 0.24629 0.1741 0.97028 0.0
C12 C 0.20875 0.15524 0.97087 0.0
C13 C 0.23238 0.13477 -0.00155 0.0
C14 C 0.19756 0.11702 -0.00039 0.0
C15 C 0.13824 0.11902 0.97304 0.0
C16 C 0.11489 0.13934 0.94524 0.0
C17 C 0.14963 0.15719 0.94416 0.0
C18 C 0.11972 0.29455 0.95749 0.0
C19 C 0.14599 0.2962 0.05485 0.0
O20 O 0.18185 0.37013 0.01011 0.0
O21 O 0.27477 0.35231 0.05155 0.0
O22 O 0.27171 0.30148 0.07883 0.0
O23 O 0.30579 0.25996 0.03074 0.0
O24 O 0.2974 0.2904 0.97552 0.0
O25 O 0.29598 0.23503 0.95002 0.0
O26 O 0.27263 0.18878 0.00381 0.0
O27 O 0.22122 0.19375 0.94483 0.0
O28 O 0.11792 0.26939 0.96684 0.0
O29 O 0.17881 0.2904 0.96442 0.0
O30 O 0.18453 0.26264 0.04139 0.0
O31 O 0.14393 0.32255 0.04434 0.0
H32 H 0.1729 0.4466 0.02843 0.0
H33 H 0.22233 0.47891 0.01669 0.0
H34 H 0.40138 0.38134 0.00107 0.0
H35 H 0.35046 0.34915 0.01115 0.0
H36 H 0.27783 0.13262 0.01936 0.0
H37 H 0.21681 0.10211 0.02178 0.0
H38 H 0.07006 0.14113 0.9239 0.0
H39 H 0.13003 0.17248 0.9223 0.0
Nd40 Nd 0.70484 0.81853 0.0061 0.0
Nd41 Nd 0.75101 0.73774 0.98855 0.0
C42 C 0.67446 0.88421 0.00373 0.0
C43 C 0.71129 0.9024 0.00089 0.0
C44 C 0.68616 0.92211 0.97248 0.0
C45 C 0.72046 0.93936 0.96944 0.0
C46 C 0.78068 0.93753 0.99496 0.0
C47 C 0.80563 0.9177 0.0234 0.0
C48 C 0.77161 0.90025 0.02621 0.0
C49 C 0.80513 0.78488 0.06067 0.0
C50 C 0.81519 0.76362 0.94951 0.0
C51 C 0.78289 0.67187 0.99106 0.0
C52 C 0.7477 0.65294 0.99439 0.0
C53 C 0.7283 0.65935 0.02891 0.0
C54 C 0.69367 0.64183 0.03098 0.0
C55 C 0.67758 0.6174 -0.00138 0.0
C56 C 0.69758 0.61091 0.96425 0.0
C57 C 0.73233 0.6283 0.96224 0.0
C58 C 0.65073 0.77136 0.93403 0.0
C59 C 0.63666 0.79293 0.04301 0.0
O60 O 0.66356 0.86073 0.97319 0.0
O61 O 0.6907 0.87391 0.03575 0.0
O62 O 0.75708 0.81609 0.06848 0.0
O63 O 0.80189 0.77291 0.02479 0.0
O64 O 0.7662 0.7952 0.95863 0.0
O65 O 0.82956 0.73672 0.96393 0.0
O66 O 0.79494 0.69532 0.02131 0.0
O67 O 0.7644 0.68237 0.95892 0.0
O68 O 0.69833 0.73993 0.92613 0.0
O69 O 0.65407 0.78327 0.96992 0.0
O70 O 0.68543 0.76114 0.03397 0.0
O71 O 0.62491 0.82002 0.02977 0.0
H72 H 0.6399 0.92412 0.95255 0.0
H73 H 0.70003 0.95381 0.94675 0.0
H74 H 0.85114 0.916 0.04399 0.0
H75 H 0.7926 0.88519 0.0484 0.0
H76 H 0.73968 0.67795 0.05438 0.0
H77 H 0.68013 0.6472 0.05814 0.0
H78 H 0.68543 0.59277 0.93852 0.0
H79 H 0.74667 0.62269 0.93525 0.0
Nd80 Nd 0.28257 0.78724 0.48292 0.0
Nd81 Nd 0.18711 0.77189 0.51766 0.0
C82 C 0.31809 0.81941 0.45213 0.0
C83 C 0.3419 0.81575 0.41858 0.0
C84 C 0.353 0.84357 0.41692 0.0
C85 C 0.37177 0.84205 0.38449 0.0
C86 C 0.37978 0.81261 0.35294 0.0
C87 C 0.36947 0.78443 0.35496 0.0
C88 C 0.35043 0.78605 0.3875 0.0
C89 C 0.3386 0.71675 0.49038 0.0
C90 C 0.18234 0.75078 0.42393 0.0
C91 C 0.15422 0.74009 0.55043 0.0
C92 C 0.13194 0.74461 0.58506 0.0
C93 C 0.15808 0.71506 0.60122 0.0
C94 C 0.13751 0.71793 0.6336 0.0
C95 C 0.09012 0.75051 0.65057 0.0
C96 C 0.06455 0.78031 0.63459 0.0
C97 C 0.08543 0.77743 0.60217 0.0
C98 C 0.13014 0.8422 0.50991 0.0
C99 C 0.28509 0.80979 0.57641 0.0
O100 O 0.25703 0.82308 0.44563 0.0
O101 O 0.35967 0.79927 0.47673 0.0
O102 O 0.36755 0.72903 0.47822 0.0
O103 O 0.28402 0.74224 0.49785 0.0
O104 O 0.22026 0.76675 0.42845 0.0
O105 O 0.1667 0.7475 0.45287 0.0
O106 O 0.21523 0.73607 0.55565 0.0
O107 O 0.11177 0.75947 0.52522 0.0
O108 O 0.10126 0.82958 0.52164 0.0
O109 O 0.18527 0.81703 0.50268 0.0
O110 O 0.24596 0.79466 0.57217 0.0
O111 O 0.30342 0.81152 0.54764 0.0
H112 H 0.34643 0.86676 0.44062 0.0
H113 H 0.38027 0.86394 0.38423 0.0
H114 H 0.37463 0.76152 0.33105 0.0
H115 H 0.34149 0.76444 0.38819 0.0
H116 H 0.19411 0.68951 0.58848 0.0
H117 H 0.15766 0.69436 0.6448 0.0
H118 H 0.02864 0.8059 0.64727 0.0
H119 H 0.0651 0.80072 0.59043 0.0
Nd120 Nd 0.77642 0.28693 0.48429 0.0
Nd121 Nd 0.67758 0.27282 0.51731 0.0
C122 C 0.81239 0.32025 0.45545 0.0
C123 C 0.83577 0.31802 0.42246 0.0
C124 C 0.8452 0.3468 0.42199 0.0
C125 C 0.86419 0.34655 0.39035 0.0
C126 C 0.87422 0.31741 0.35844 0.0
C127 C 0.86516 0.28836 0.3591 0.0
C128 C 0.84577 0.28873 0.39084 0.0
C129 C 0.82982 0.21632 0.48997 0.0
C130 C 0.6774 0.25054 0.42388 0.0
C131 C 0.63399 0.2435 0.54677 0.0
C132 C 0.60533 0.24939 0.57966 0.0
C133 C 0.64377 0.24868 0.61716 0.0
C134 C 0.61799 0.25087 0.64712 0.0
C135 C 0.55317 0.25381 0.64037 0.0
C136 C 0.51437 0.25525 0.60299 0.0
C137 C 0.54024 0.25294 0.57301 0.0
C138 C 0.62565 0.34372 0.51199 0.0
C139 C 0.78478 0.30382 0.57793 0.0
O140 O 0.75115 0.32411 0.44872 0.0
O141 O 0.85405 0.29907 0.47905 0.0
O142 O 0.8597 0.22864 0.47859 0.0
O143 O 0.7752 0.24182 0.49769 0.0
O144 O 0.71726 0.26544 0.42875 0.0
O145 O 0.65837 0.24876 0.45236 0.0
O146 O 0.69647 0.23786 0.55398 0.0
O147 O 0.59613 0.26257 0.52068 0.0
O148 O 0.59521 0.33173 0.52326 0.0
O149 O 0.67959 0.31777 0.50425 0.0
O150 O 0.74342 0.28967 0.57247 0.0
O151 O 0.8011 0.3077 0.54969 0.0
H152 H 0.83738 0.36969 0.4461 0.0
H153 H 0.87168 0.36907 0.39104 0.0
H154 H 0.87199 0.26566 0.33483 0.0
H155 H 0.83801 0.26642 0.39059 0.0
H156 H 0.69438 0.24562 0.62331 0.0
H157 H 0.64972 0.24917 0.67534 0.0
H158 H 0.46397 0.25799 0.5968 0.0
H159 H 0.50963 0.25329 0.54437 0.0
H160 H 0.57534 0.64416 0.03731 0.0
H161 H 0.51322 0.61391 0.03926 0.0
H162 H 0.63065 0.51875 0.96547 0.0
H163 H 0.69397 0.54842 0.96399 0.0
H164 H 0.49901 0.53427 0.9416 0.0
H165 H 0.65717 0.5249 0.06126 0.0
H166 H 0.71501 0.54725 0.12449 0.0
H167 H 0.53011 0.60951 0.16459 0.0
H168 H 0.47084 0.5882 0.10127 0.0
H169 H 0.40637 0.41168 0.96265 0.0
H170 H 0.4657 0.44354 0.9614 0.0
H171 H 0.36036 0.53306 0.04511 0.0
H172 H 0.30383 0.50055 0.04834 0.0
H173 H 0.48369 0.52194 0.06394 0.0
H174 H 0.32431 0.53288 0.94573 0.0
H175 H 0.26387 0.512 0.88269 0.0
H176 H 0.44649 0.44899 0.84015 0.0
H177 H 0.50817 0.46917 0.90311 0.0
C178 C 0.58873 0.61664 0.02189 0.0
C179 C 0.63997 0.59887 0.00047 0.0
C180 C 0.55285 0.59939 0.02292 0.0
C181 C 0.56733 0.56392 0.00265 0.0
C182 C 0.61823 0.54615 0.9812 0.0
C183 C 0.65429 0.56329 0.98028 0.0
C184 C 0.52922 0.54536 0.00342 0.0
C185 C 0.49631 0.53121 0.96834 0.0
C186 C 0.52396 0.5422 0.03832 0.0
C187 C 0.55945 0.55525 0.07634 0.0
C188 C 0.6287 0.54367 0.0834 0.0
C189 C 0.66175 0.55614 0.11928 0.0
C190 C 0.6262 0.57992 0.14847 0.0
C191 C 0.55753 0.59123 0.14188 0.0
C192 C 0.52417 0.57898 0.106 0.0
C193 C 0.39599 0.43803 0.98106 0.0
C194 C 0.34987 0.45338 0.00556 0.0
C195 C 0.4295 0.4565 0.97993 0.0
C196 C 0.41707 0.49107 0.00275 0.0
C197 C 0.37087 0.50653 0.02707 0.0
C198 C 0.33781 0.48797 0.02851 0.0
C199 C 0.45337 0.51073 0.00206 0.0
C200 C 0.48603 0.5251 0.03717 0.0
C201 C 0.45789 0.51439 0.96719 0.0
C202 C 0.42093 0.50228 0.92926 0.0
C203 C 0.35165 0.51437 0.92302 0.0
C204 C 0.31715 0.5027 0.88728 0.0
C205 C 0.35134 0.47911 0.85747 0.0
C206 C 0.42008 0.46723 0.86329 0.0
C207 C 0.45482 0.47881 0.89898 0.0
H208 H 0.32455 0.4701 0.82983 0.0
H209 H 0.65189 0.5895 0.17625 0.0
H210 H 0.46375 0.6651 0.48435 0.0
H211 H 0.51232 0.6029 0.48836 0.0
H212 H 0.32733 0.61937 0.50769 0.0
H213 H 0.27852 0.68212 0.50384 0.0
H214 H 0.4289 0.57884 0.55396 0.0
H215 H 0.37935 0.57414 0.41863 0.0
H216 H 0.38136 0.58618 0.35981 0.0
H217 H 0.59442 0.53044 0.38041 0.0
H218 H 0.59375 0.5185 0.43968 0.0
H219 H 0.50133 0.39611 0.51832 0.0
H220 H 0.45462 0.45837 0.51507 0.0
H221 H 0.64099 0.44067 0.49644 0.0
H222 H 0.6881 0.37786 0.49974 0.0
H223 H 0.53983 0.48175 0.45008 0.0
H224 H 0.59018 0.48633 0.58502 0.0
H225 H 0.58931 0.4744 0.64422 0.0
H226 H 0.37628 0.5303 0.62474 0.0
H227 H 0.37582 0.5422 0.56515 0.0
C228 C 0.43322 0.6556 0.48953 0.0
C229 C 0.36714 0.67893 0.49403 0.0
C230 C 0.46112 0.61974 0.49162 0.0
C231 C 0.42368 0.60572 0.4978 0.0
C232 C 0.35775 0.62915 0.50289 0.0
C233 C 0.32975 0.66521 0.50084 0.0
C234 C 0.45352 0.56682 0.49891 0.0
C235 C 0.45218 0.55769 0.53089 0.0
C236 C 0.48598 0.53872 0.46951 0.0
C237 C 0.48652 0.54572 0.4338 0.0
C238 C 0.42666 0.56467 0.41077 0.0
C239 C 0.42756 0.57145 0.37732 0.0
C240 C 0.48799 0.55916 0.36643 0.0
C241 C 0.54765 0.53999 0.38891 0.0
C242 C 0.54704 0.53318 0.42242 0.0
C243 C 0.53261 0.40533 0.51348 0.0
C244 C 0.59855 0.38162 0.50896 0.0
C245 C 0.50576 0.44123 0.51182 0.0
C246 C 0.54408 0.4549 0.50599 0.0
C247 C 0.60991 0.43113 0.50095 0.0
C248 C 0.63692 0.39503 0.50264 0.0
C249 C 0.51506 0.49379 0.50508 0.0
C250 C 0.51655 0.50292 0.47315 0.0
C251 C 0.48287 0.52189 0.53456 0.0
C252 C 0.48294 0.51486 0.57042 0.0
C253 C 0.54311 0.49585 0.5932 0.0
C254 C 0.54287 0.48914 0.62686 0.0
C255 C 0.48277 0.5015 0.63817 0.0
C256 C 0.4228 0.5207 0.61591 0.0
C257 C 0.42276 0.52747 0.58222 0.0
H258 H 0.48267 0.49628 0.66424 0.0
H259 H 0.48858 0.56443 0.34053 0.0
H260 H 0.0027 0.1418 0.96005 0.0
H261 H 0.94223 0.11088 0.9623 0.0
H262 H 0.12794 1.02303 0.99278 0.0
H263 H 0.18884 0.05307 0.98889 0.0
H264 H 0.04484 0.99798 0.94225 0.0
H265 H 0.03096 0.08647 0.0605 0.0
H266 H 0.00639 0.14692 0.10156 0.0
H267 H 0.80058 0.18182 0.04641 0.0
H268 H 0.8241 0.12167 0.00461 0.0
H269 H 0.91604 0.91523 0.0073 0.0
H270 H 0.97536 0.94631 0.00417 0.0
H271 H 0.78867 0.03261 0.97139 0.0
H272 H 0.72873 1.0026 0.97653 0.0
H273 H 0.87172 0.05841 0.02244 0.0
H274 H 0.88859 0.96627 0.90613 0.0
H275 H 0.9163 0.90392 0.8706 0.0
H276 H 0.12165 0.87435 0.92506 0.0
H277 H 0.09485 0.93629 0.96206 0.0
C278 C 0.03088 0.11572 0.96679 0.0
C279 C 0.10094 0.10011 0.97441 0.0
C280 C -0.00392 0.09818 0.96851 0.0
C281 C 0.0303 0.06473 0.97828 0.0
C282 C 0.10017 0.04885 0.98534 0.0
C283 C 0.13503 0.06629 0.98349 0.0
C284 C -0.00659 0.04634 0.9812 0.0
C285 C 0.00751 1.01111 0.96013 0.0
C286 C 0.94379 0.06348 0.00401 0.0
C287 C 0.92944 0.09966 0.02914 0.0
C288 C -0.01944 0.10711 0.05691 0.0
C289 C 0.9668 0.1413 0.08035 0.0
C290 C 0.902 0.16822 0.07652 0.0
C291 C 0.85077 0.16096 0.0493 0.0
C292 C 0.86428 0.12681 0.02574 0.0
C293 C 0.88731 0.94102 -0.00012 0.0
C294 C 0.81724 0.95623 0.99212 0.0
C295 C 0.92151 0.95863 -0.00236 0.0
C296 C 0.88671 0.99165 0.98693 0.0
C297 C 0.81684 1.0071 0.97951 0.0
C298 C 0.78255 0.98963 0.98205 0.0
C299 C 0.92304 1.01009 0.98346 0.0
C300 C 0.90882 0.04534 0.00441 0.0
C301 C 0.97296 0.99283 0.96079 0.0
C302 C -0.01045 0.95591 0.93719 0.0
C303 C 0.93962 0.94646 0.91069 0.0
C304 C 0.95516 0.91116 0.89031 0.0
C305 C 0.02069 0.88519 0.89558 0.0
C306 C 0.07089 0.89449 0.92107 0.0
C307 C 0.05553 0.92968 0.94183 0.0
H308 H 0.0326 0.85783 0.87999 0.0
H309 H 0.89145 0.19468 0.09469 0.0
H310 H 0.7713 0.1817 0.50513 0.0
H311 H 0.82057 0.11873 0.50819 0.0
H312 H 0.00234 0.10202 0.48422 0.0
H313 H 0.95309 0.16431 0.48064 0.0
H314 H -0.02207 0.04763 0.44408 0.0
H315 H -0.01708 0.10895 0.57738 0.0
H316 H 0.93497 0.15309 0.63342 0.0
H317 H 0.80608 0.10456 0.61715 0.0
H318 H 0.85272 0.06037 0.56068 0.0
H319 H 0.18773 0.87763 0.49548 0.0
H320 H 0.13706 0.94049 0.49184 0.0
H321 H 0.95488 0.95565 0.5137 0.0
H322 H 0.00536 0.8933 0.51751 0.0
H323 H -0.02102 1.01071 0.55483 0.0
H324 H 0.97233 0.95034 0.4208 0.0
H325 H 0.01942 0.90664 0.36432 0.0
H326 H 0.15247 0.95317 0.38268 0.0
H327 H 0.10606 0.99723 0.4393 0.0
C328 C 0.8219 0.16466 0.50088 0.0
C329 C 0.85826 0.17835 0.49302 0.0
C330 C 0.8503 0.12849 0.50264 0.0
C331 C 0.916 0.10513 0.49687 0.0
C332 C 0.9518 0.11898 0.48877 0.0
C333 C 0.92348 0.15489 0.48689 0.0
C334 C 0.94781 0.06636 0.49891 0.0
C335 C -0.02132 0.03977 0.46862 0.0
C336 C 0.94837 0.05534 0.53038 0.0
C337 C 0.92083 0.08159 0.56458 0.0
C338 C 0.94406 0.10783 0.58561 0.0
C339 C 0.91716 0.13284 0.61747 0.0
C340 C 0.86736 0.1317 0.62876 0.0
C341 C 0.84457 0.10545 0.60832 0.0
C342 C 0.87126 0.08039 0.57641 0.0
C343 C 0.13666 0.89424 0.49896 0.0
C344 C 0.10055 0.88008 0.50628 0.0
C345 C 0.1075 0.93036 0.49694 0.0
C346 C 0.04135 0.95329 0.50208 0.0
C347 C 0.00574 0.93901 0.50963 0.0
C348 C 0.03477 0.90308 0.51164 0.0
C349 C 0.0091 0.99205 0.50003 0.0
C350 C -0.02183 1.01863 0.53031 0.0
C351 C 0.00855 1.00308 0.4686 0.0
C352 C 0.03618 0.97684 0.43446 0.0
C353 C 0.01187 0.95112 0.41291 0.0
C354 C 0.03839 0.92632 0.38086 0.0
C355 C 0.08917 0.92699 0.37005 0.0
C356 C 0.11323 0.95264 0.39113 0.0
C357 C 0.0867 0.97761 0.42313 0.0
H358 H 0.10971 0.90771 0.34527 0.0
H359 H 0.84655 0.15111 0.65341 0.0
H360 H 0.74705 0.21054 0.36606 0.0
H361 H 0.7037 0.18882 0.29861 0.0
H362 H 0.50768 0.23658 0.32484 0.0
H363 H 0.55225 0.25577 0.39271 0.0
H364 H 0.51941 0.18021 0.27221 0.0
H365 H 0.57078 0.27972 0.28988 0.0
H366 H 0.64678 0.30858 0.30975 0.0
H367 H 0.76955 0.22464 0.23068 0.0
H368 H 0.69462 0.19507 0.2107 0.0
H369 H 0.2861 0.27224 0.13381 0.0
H370 H 0.3664 0.24429 0.186 0.0
H371 H 0.51431 0.18432 0.11391 0.0
H372 H 0.43281 0.21268 0.06098 0.0
H373 H 0.55286 0.22538 0.18031 0.0
H374 H 0.46846 0.13953 0.14986 0.0
H375 H 0.38134 0.11821 0.13101 0.0
H376 H 0.30751 0.18466 0.23489 0.0
H377 H 0.39356 0.20674 0.25418 0.0
C378 C 0.69492 0.21585 0.35733 0.0
C379 C 0.65256 0.23519 0.38417 0.0
C380 C 0.67015 0.20354 0.31885 0.0
C381 C 0.60198 0.21189 0.3063 0.0
C382 C 0.56042 0.2298 0.33367 0.0
C383 C 0.5857 0.24099 0.37239 0.0
C384 C 0.57222 0.20521 0.26456 0.0
C385 C 0.52683 0.18998 0.25204 0.0
C386 C 0.58346 0.21684 0.23777 0.0
C387 C 0.62764 0.23499 0.24917 0.0
C388 C 0.61413 0.26738 0.27685 0.0
C389 C 0.65701 0.28385 0.28814 0.0
C390 C 0.7131 0.26838 0.2716 0.0
C391 C 0.7262 0.23653 0.24355 0.0
C392 C 0.68356 0.21991 0.23223 0.0
C393 C 0.33519 0.2523 0.1287 0.0
C394 C 0.35382 0.24477 0.09373 0.0
C395 C 0.38092 0.23606 0.15844 0.0
C396 C 0.44633 0.21201 0.15382 0.0
C397 C 0.46391 0.20262 0.1179 0.0
C398 C 0.4175 0.21869 0.08775 0.0
C399 C 0.49741 0.20221 0.18859 0.0
C400 C 0.54709 0.21434 0.19992 0.0
C401 C 0.48869 0.18865 0.21449 0.0
C402 C 0.43772 0.17476 0.2035 0.0
C403 C 0.43359 0.14967 0.16867 0.0
C404 C 0.38436 0.13744 0.1579 0.0
C405 C 0.33898 0.15004 0.18176 0.0
C406 C 0.34283 0.17483 0.21649 0.0
C407 C 0.39199 0.18713 0.22741 0.0
H408 H 0.30081 0.1406 0.17332 0.0
H409 H 0.74631 0.28113 0.28043 0.0
H410 H 0.53586 0.85412 0.07433 0.0
H411 H 0.48007 0.8608 0.1234 0.0
H412 H 0.59728 0.74903 0.12364 0.0
H413 H 0.65112 0.74199 0.07448 0.0
H414 H 0.477 0.76626 0.12713 0.0
H415 H 0.63527 0.81639 0.19389 0.0
H416 H 0.68638 0.85728 0.20708 0.0
H417 H 0.50159 0.94723 0.22842 0.0
H418 H 0.44917 0.90682 0.21488 0.0
H419 H 0.4687 0.75599 0.30989 0.0
H420 H 0.50111 0.75534 0.25397 0.0
H421 H 0.36555 0.86646 0.26135 0.0
H422 H 0.33288 0.86729 0.31718 0.0
H423 H 0.48329 0.85399 0.25153 0.0
H424 H 0.33129 0.79957 0.19185 0.0
H425 H 0.28679 0.75599 0.17986 0.0
H426 H 0.46785 0.67059 0.14614 0.0
H427 H 0.51413 0.71351 0.15884 0.0
C428 C 0.54907 0.83095 0.08457 0.0
C429 C 0.59815 0.79758 0.07044 0.0
C430 C 0.51751 0.83482 0.11281 0.0
C431 C 0.53501 0.80548 0.12765 0.0
C432 C 0.58267 0.77209 0.11274 0.0
C433 C 0.61369 0.76816 0.08455 0.0
C434 C 0.50556 0.80907 0.15931 0.0
C435 C 0.47879 0.78531 0.15443 0.0
C436 C 0.50667 0.83432 0.19474 0.0
C437 C 0.53811 0.85862 0.20293 0.0
C438 C 0.60542 0.8449 0.2011 0.0
C439 C 0.63464 0.86798 0.2087 0.0
C440 C 0.59719 0.90484 0.21846 0.0
C441 C 0.53049 0.91868 0.22077 0.0
C442 C 0.50101 0.8957 0.21316 0.0
C443 C 0.44518 0.78017 0.29933 0.0
C444 C 0.39824 0.81169 0.31811 0.0
C445 C 0.46379 0.77978 0.26735 0.0
C446 C 0.43534 0.81079 0.25316 0.0
C447 C 0.38833 0.84223 0.27177 0.0
C448 C 0.36985 0.84267 0.30379 0.0
C449 C 0.45584 0.81071 0.21959 0.0
C450 C 0.48085 0.83517 0.22411 0.0
C451 C 0.45411 0.78568 0.18402 0.0
C452 C 0.42642 0.75979 0.17667 0.0
C453 C 0.36192 0.77147 0.18229 0.0
C454 C 0.33636 0.74686 0.17534 0.0
C455 C 0.37459 0.71052 0.16241 0.0
C456 C 0.43842 0.69871 0.15634 0.0
C457 C 0.46434 0.72317 0.16341 0.0
H458 H 0.35467 0.69152 0.15697 0.0
H459 H 0.6199 0.92267 0.22434 0.0
H460 H 0.6676 0.75749 0.86185 0.0
H461 H 0.59026 0.78709 0.81012 0.0
H462 H 0.45271 0.86008 0.88676 0.0
H463 H 0.53137 0.83036 0.93949 0.0
H464 H 0.39994 0.82276 0.81577 0.0
H465 H 0.51753 0.89509 0.85651 0.0
H466 H 0.61895 0.90523 0.87931 0.0
H467 H 0.68572 0.8389 0.77356 0.0
H468 H 0.58508 0.82802 0.75019 0.0
H469 H 0.21556 0.854 0.63338 0.0
H470 H 0.2612 0.87167 0.70164 0.0
H471 H 0.45948 0.81338 0.67658 0.0
H472 H 0.41317 0.7983 0.60808 0.0
H473 H 0.45949 0.86526 0.733 0.0
H474 H 0.37485 0.77648 0.70344 0.0
H475 H 0.28759 0.75466 0.67963 0.0
H476 H 0.17421 0.83947 0.76246 0.0
H477 H 0.26044 0.86206 0.78638 0.0
C478 C 0.62118 0.78005 0.86788 0.0
C479 C 0.60485 0.79148 0.9044 0.0
C480 C 0.57735 0.79716 0.8384 0.0
C481 C 0.51621 0.82597 0.8448 0.0
C482 C 0.50005 0.83804 0.88151 0.0
C483 C 0.54469 0.82111 0.91142 0.0
C484 C 0.46763 0.84031 0.81149 0.0
C485 C 0.4114 0.83329 0.79817 0.0
C486 C 0.48412 0.85306 0.78833 0.0
C487 C 0.54348 0.8608 0.80155 0.0
C488 C 0.5538 0.88265 0.83809 0.0
C489 C 0.61123 0.8885 0.85115 0.0
C490 C 0.65876 0.8727 0.82792 0.0
C491 C 0.64877 0.85119 0.79148 0.0
C492 C 0.59139 0.84528 0.77825 0.0
C493 C 0.26873 0.84581 0.64256 0.0
C494 C 0.31123 0.82453 0.61596 0.0
C495 C 0.29479 0.85574 0.68148 0.0
C496 C 0.36397 0.84295 0.69453 0.0
C497 C 0.40596 0.82354 0.66736 0.0
C498 C 0.37966 0.81475 0.62826 0.0
C499 C 0.39354 0.84593 0.73631 0.0
C500 C 0.44615 0.85621 0.75117 0.0
C501 C 0.37517 0.83495 0.76051 0.0
C502 C 0.32357 0.82124 0.74631 0.0
C503 C 0.33111 0.79057 0.7164 0.0
C504 C 0.28186 0.77807 0.7029 0.0
C505 C 0.22529 0.79574 0.71943 0.0
C506 C 0.21796 0.82588 0.7496 0.0
C507 C 0.26696 0.83856 0.76312 0.0
H508 H 0.18725 0.78601 0.70896 0.0
H509 H 0.70332 0.87713 0.83816 0.0
H510 H 0.57043 0.28757 0.71685 0.0
H511 H 0.53206 0.28578 0.76883 0.0
H512 H 0.4379 0.21963 0.6876 0.0
H513 H 0.47683 0.22085 0.63547 0.0
H514 H 0.35809 0.27094 0.73728 0.0
H515 H 0.58359 0.1831 0.74639 0.0
H516 H 0.70428 0.15945 0.75083 0.0
H517 H 0.71731 0.23473 0.85825 0.0
H518 H 0.59641 0.25921 0.85415 0.0
H519 H 0.31566 0.21369 0.87969 0.0
H520 H 0.35699 0.21107 0.8262 0.0
H521 H 0.43027 0.28886 0.89947 0.0
H522 H 0.38767 0.29233 0.95273 0.0
H523 H 0.52062 0.22929 0.85279 0.0
H524 H 0.29377 0.31779 0.8423 0.0
H525 H 0.17255 0.3421 0.83648 0.0
H526 H 0.16211 0.26445 0.73091 0.0
H527 H 0.2836 0.23924 0.73642 0.0
C528 C 0.54195 0.27242 0.71 0.0
C529 C 0.52712 0.2542 0.67189 0.0
C530 C 0.51988 0.2715 0.73979 0.0
C531 C 0.48273 0.25221 0.73224 0.0
C532 C 0.46643 0.23471 0.69414 0.0
C533 C 0.48857 0.23557 0.66432 0.0
C534 C 0.46169 0.24995 0.76419 0.0
C535 C 0.39374 0.2613 0.76224 0.0
C536 C 0.50806 0.23792 0.79711 0.0
C537 C 0.58081 0.22322 0.79976 0.0
C538 C 0.61209 0.19481 0.7708 0.0
C539 C 0.68055 0.18122 0.77328 0.0
C540 C 0.71842 0.19564 0.80475 0.0
C541 C 0.6879 0.22363 0.83386 0.0
C542 C 0.6194 0.23735 0.83148 0.0
C543 C 0.34139 0.22986 0.88458 0.0
C544 C 0.3482 0.2533 0.92043 0.0
C545 C 0.36461 0.22849 0.85392 0.0
C546 C 0.3961 0.25003 0.85881 0.0
C547 C 0.40593 0.2721 0.89509 0.0
C548 C 0.38159 0.27402 0.92549 0.0
C549 C 0.41717 0.25041 0.82588 0.0
C550 C 0.48509 0.23871 0.82768 0.0
C551 C 0.37079 0.26194 0.79277 0.0
C552 C 0.29799 0.27637 0.78999 0.0
C553 C 0.26583 0.30558 0.8181 0.0
C554 C 0.19701 0.31963 0.81476 0.0
C555 C 0.15965 0.30494 0.78324 0.0
C556 C 0.19112 0.2759 0.75522 0.0
C557 C 0.25997 0.2617 0.75844 0.0
H558 H 0.10632 0.31601 0.78058 0.0
H559 H 0.77143 0.18507 0.80663 0.0
H560 H 0.93929 0.74391 0.07178 0.0
H561 H 0.00896 0.72123 0.13001 0.0
H562 H 0.83224 0.75569 0.17285 0.0
H563 H 0.76347 0.7798 0.11597 0.0
H564 H 0.90586 0.78456 0.22207 0.0
H565 H 0.94587 0.66585 0.1504 0.0
H566 H -0.02208 0.61319 0.09693 0.0
H567 H 0.17506 0.60684 0.12493 0.0
H568 H 0.14392 0.65984 0.17822 0.0
H569 H 0.07147 0.7382 0.39943 0.0
H570 H 0.01343 0.72659 0.33278 0.0
H571 H 0.16967 0.72158 0.29182 0.0
H572 H 0.22779 0.73354 0.35832 0.0
H573 H 0.10637 0.67256 0.24217 0.0
H574 H 0.05848 0.79613 0.3074 0.0
H575 H 0.02704 0.84782 0.36184 0.0
H576 H 0.84048 0.84418 0.34408 0.0
H577 H 0.87189 0.79162 0.29026 0.0
C578 C 0.91578 0.74565 0.09328 0.0
C579 C 0.84658 0.7639 0.09003 0.0
C580 C 0.95539 0.73258 0.12641 0.0
C581 C 0.92581 0.73693 0.15596 0.0
C582 C 0.85621 0.75233 0.15068 0.0
C583 C 0.81699 0.76608 0.11823 0.0
C584 C 0.9662 0.73094 0.19458 0.0
C585 C 0.94871 0.75966 0.22634 0.0
C586 C 0.02339 0.69892 0.20022 0.0
C587 C 0.04234 0.66705 0.16814 0.0
C588 C -0.00411 0.65344 0.14496 0.0
C589 C 0.01394 0.62348 0.11471 0.0
C590 C 0.07845 0.60672 0.10749 0.0
C591 C 0.12509 0.61987 0.13054 0.0
C592 C 0.10728 0.64985 0.1608 0.0
C593 C 0.09437 0.7337 0.37624 0.0
C594 C 0.15346 0.73747 0.38407 0.0
C595 C 0.06132 0.7269 0.33821 0.0
C596 C 0.08729 0.72343 0.30758 0.0
C597 C 0.14915 0.72403 0.31515 0.0
C598 C 0.18179 0.73129 0.35316 0.0
C599 C 0.04483 0.72589 0.26895 0.0
C600 C 0.06249 0.69694 0.23747 0.0
C601 C -0.01261 0.75764 0.26329 0.0
C602 C 0.96795 0.78963 0.29519 0.0
C603 C 0.01107 0.8061 0.31537 0.0
C604 C -0.00679 0.8356 0.34608 0.0
C605 C 0.9318 0.8493 0.35644 0.0
C606 C 0.88811 0.8335 0.33608 0.0
C607 C 0.90598 0.80379 0.30553 0.0
H608 H 0.91802 0.87219 0.38019 0.0
H609 H 0.09234 0.58352 0.08407 0.0
H610 H 0.96971 0.26269 0.31863 0.0
H611 H 0.00875 0.26428 0.26667 0.0
H612 H 0.86573 0.37392 0.27131 0.0
H613 H 0.82563 0.37232 0.3228 0.0
H614 H 0.87336 0.33565 0.19672 0.0
H615 H 0.02385 0.35538 0.31377 0.0
H616 H 0.1016 0.34301 0.37495 0.0
H617 H 0.23151 0.24324 0.31381 0.0
H618 H 0.15396 0.25472 0.2523 0.0
H619 H 0.04518 0.35878 0.08468 0.0
H620 H -0.00899 0.36823 0.13622 0.0
H621 H 0.115 0.25881 0.14501 0.0
H622 H 0.16832 0.24917 0.09436 0.0
H623 H 0.11266 0.30511 0.21548 0.0
H624 H 0.95861 0.28185 0.10031 0.0
H625 H 0.88178 0.29268 0.03847 0.0
H626 H 0.76054 0.39784 0.09551 0.0
H627 H 0.83726 0.38776 0.15767 0.0
C628 C 0.94595 0.28698 0.30823 0.0
C629 C 0.89494 0.31746 0.32506 0.0
C630 C 0.96866 0.28796 0.27875 0.0
C631 C 0.94082 0.3194 0.2655 0.0
C632 C 0.88821 0.34945 0.28123 0.0
C633 C 0.8657 0.34855 0.31083 0.0
C634 C 0.96788 0.32112 0.23597 0.0
C635 C 0.92546 0.32956 0.20107 0.0
C636 C 0.036 0.31283 0.24145 0.0
C637 C 0.08269 0.30577 0.27844 0.0
C638 C 0.06867 0.33065 0.3134 0.0
C639 C 0.11277 0.32382 0.34814 0.0
C640 C 0.17136 0.29231 0.34828 0.0
C641 C 0.18604 0.2676 0.31367 0.0
C642 C 0.14203 0.27426 0.27885 0.0
C643 C 0.06054 0.33682 0.0976 0.0
C644 C 0.11079 0.30323 0.08517 0.0
C645 C 0.02956 0.34219 0.12692 0.0
C646 C 0.04904 0.31416 0.14441 0.0
C647 C 0.09925 0.28083 0.13205 0.0
C648 C 0.12944 0.27537 0.10277 0.0
C649 C 0.01854 0.31884 0.17595 0.0
C650 C 0.06037 0.31166 0.21134 0.0
C651 C 0.95011 0.3281 0.17081 0.0
C652 C 0.90412 0.33425 0.13351 0.0
C653 C 0.91593 0.30742 0.09959 0.0
C654 C 0.87233 0.31339 0.0645 0.0
C655 C 0.81644 0.34598 0.06303 0.0
C656 C 0.80395 0.37264 0.09668 0.0
C657 C 0.84745 0.36681 0.13185 0.0
H658 H 0.78271 0.35055 0.03584 0.0
H659 H 0.20547 0.2871 0.37521 0.0
H660 H 0.73232 0.32789 0.64222 0.0
H661 H 0.788 0.33995 0.70939 0.0
H662 H 0.96362 0.31511 0.67163 0.0
H663 H 0.90752 0.30386 0.6041 0.0
H664 H -0.02146 0.27451 0.72476 0.0
H665 H 0.89639 0.39347 0.7118 0.0
H666 H 0.81121 0.44996 0.69362 0.0
H667 H 0.69971 0.46685 0.77458 0.0
H668 H 0.78371 0.41013 0.79282 0.0
H669 H 0.12075 0.34202 0.92717 0.0
H670 H 0.05667 0.35746 0.86495 0.0
H671 H 0.94441 0.30073 0.85487 0.0
H672 H 0.00752 0.28555 0.91715 0.0
H673 H 0.91048 0.38677 0.82503 0.0
H674 H 0.97658 0.23726 0.76621 0.0
H675 H 0.05724 0.17996 0.78417 0.0
H676 H 0.19908 0.22365 0.84555 0.0
H677 H 0.1199 0.28087 0.82759 0.0
C678 C 0.78241 0.32557 0.64821 0.0
C679 C 0.8158 0.3148 0.61804 0.0
C680 C 0.81393 0.33265 0.68652 0.0
C681 C 0.87965 0.32851 0.69526 0.0
C682 C 0.91266 0.31864 0.66526 0.0
C683 C 0.88058 0.3123 0.62683 0.0
C684 C 0.91551 0.33087 0.7357 0.0
C685 C 0.96429 0.2991 0.74663 0.0
C686 C 0.89651 0.36304 0.76401 0.0
C687 C 0.84616 0.39737 0.75346 0.0
C688 C 0.85344 0.40907 0.72551 0.0
C689 C 0.80541 0.44117 0.71523 0.0
C690 C 0.75 0.46194 0.73287 0.0
C691 C 0.74264 0.45071 0.76092 0.0
C692 C 0.79051 0.41861 0.77128 0.0
C693 C 0.08071 0.33398 0.91233 0.0
C694 C 0.06976 0.31207 0.92655 0.0
C695 C 0.04407 0.34294 0.87693 0.0
C696 C -0.00329 0.32976 0.85531 0.0
C697 C -0.01884 0.31094 0.87123 0.0
C698 C 0.01726 0.30228 0.90677 0.0
C699 C 0.97195 0.33022 0.814 0.0
C700 C 0.92536 0.36234 0.80301 0.0
C701 C -0.00729 0.29829 0.78549 0.0
C702 C 0.04195 0.26354 0.79563 0.0
C703 C 0.02517 0.23457 0.78329 0.0
C704 C 0.07064 0.20208 0.79354 0.0
C705 C 0.13324 0.19817 0.81604 0.0
C706 C 0.15059 0.22669 0.82817 0.0
C707 C 0.10537 0.25918 0.81794 0.0
H708 H 0.16829 0.17304 0.82406 0.0
H709 H 0.71283 0.48677 0.72485 0.0
H710 H 0.96246 0.78476 0.6632 0.0
H711 H 0.92292 0.78602 0.71652 0.0
H712 H 0.12395 0.72234 0.7667 0.0
H713 H 0.16395 0.72112 0.71352 0.0
H714 H 0.03741 0.69766 0.76592 0.0
H715 H 0.04691 0.81095 0.80289 0.0
H716 H 0.02162 0.86899 0.79305 0.0
H717 H 0.81298 0.90131 0.78081 0.0
H718 H 0.83687 0.8432 0.78989 0.0
H719 H 0.94546 0.71947 0.9409 0.0
H720 H 0.00029 0.71631 0.89322 0.0
H721 H 0.81451 0.79308 0.84277 0.0
H722 H 0.76123 0.79744 0.89094 0.0
H723 H 0.90376 0.81077 0.84747 0.0
H724 H 0.88703 0.69873 0.80123 0.0
H725 H 0.90477 0.64003 0.80522 0.0
H726 H 0.11622 0.60543 0.82958 0.0
H727 H 0.09969 0.66411 0.82617 0.0
C728 C -0.00158 0.77145 0.68585 0.0
C729 C 0.06641 0.75287 0.68407 0.0
C730 C 0.9757 0.77207 0.71627 0.0
C731 C 0.02052 0.75444 0.74579 0.0
C732 C 0.08843 0.73601 0.7442 0.0
C733 C 0.11118 0.73532 0.71375 0.0
C734 C -0.00363 0.75494 0.77806 0.0
C735 C 0.00901 0.72237 0.78419 0.0
C736 C 0.958 0.78719 0.80129 0.0
C737 C 0.94371 0.82252 0.79673 0.0
C738 C -0.00442 0.83029 0.79775 0.0
C739 C -0.01852 0.86321 0.79229 0.0
C740 C 0.91571 0.88875 0.7861 0.0
C741 C 0.8639 0.88146 0.7855 0.0
C742 C 0.87771 0.84855 0.79087 0.0
C743 C 0.91662 0.73546 0.91946 0.0
C744 C 0.84935 0.75888 0.91985 0.0
C745 C 0.94779 0.7336 0.89212 0.0
C746 C 0.91161 0.75438 0.86409 0.0
C747 C 0.844 0.77706 0.86417 0.0
C748 C 0.81346 0.77945 0.89177 0.0
C749 C 0.94329 0.75342 0.8349 0.0
C750 C 0.93241 0.78596 0.82944 0.0
C751 C -0.0179 0.72117 0.81176 0.0
C752 C -0.00789 0.68593 0.8139 0.0
C753 C 0.93729 0.6787 0.80774 0.0
C754 C 0.94713 0.64542 0.80984 0.0
C755 C 0.01157 0.61906 0.81778 0.0
C756 C 0.06633 0.6259 0.82352 0.0
C757 C 0.05676 0.65915 0.82148 0.0
H758 H 0.01909 0.59331 0.81938 0.0
H759 H 0.90491 0.91426 0.78198 0.0
loop_
_geom_bond_atom_site_label_1
_geom_bond_atom_site_label_2
_geom_bond_distance
_geom_bond_site_symmetry_2
_ccdc_geom_bond_type
Nd0 C2 2.836 . S
Nd0 O20 2.500 1_554 S
Nd0 O21 2.492 . S
Nd0 O22 2.487 . S
Nd0 O23 2.682 . S
Nd0 O24 2.410 1_554 S
Nd0 O29 2.414 1_554 S
Nd0 O31 2.424 . S
Nd1 C11 2.836 . S
Nd1 O23 2.414 1_556 S
Nd1 O25 2.424 . S
Nd1 O26 2.500 1_556 S
Nd1 O27 2.492 . S
Nd1 O28 2.487 . S
Nd1 O29 2.682 . S
Nd1 O30 2.410 1_556 S
C2 Nd0 2.836 . S
C2 C3 1.498 1_554 S
C2 O20 1.258 1_554 S
C2 O21 1.239 . S
C3 C2 1.498 1_556 S
C3 C4 1.366 . S
C3 C8 1.407 1_556 S
C4 C3 1.366 . S
C4 C5 1.392 . S
C4 H32 0.930 . S
C5 C4 1.392 . S
C5 C6 1.398 . S
C5 H33 0.929 . S
C6 C5 1.398 . S
C6 C7 1.352 1_556 S
C7 C6 1.352 1_554 S
C7 C8 1.384 . S
C7 H34 0.930 . S
C8 C3 1.407 1_554 S
C8 C7 1.384 . S
C8 H35 0.929 . S
C9 O22 1.241 . S
C9 O23 1.273 . S
C10 O24 1.251 . S
C10 O25 1.268 . S
C11 Nd1 2.836 . S
C11 C12 1.498 1_556 S
C11 O26 1.258 1_556 S
C11 O27 1.239 . S
C12 C11 1.498 1_554 S
C12 C13 1.366 . S
C12 C17 1.407 1_554 S
C13 C12 1.366 . S
C13 C14 1.392 . S
C13 H36 0.930 . S
C14 C13 1.392 . S
C14 C15 1.398 . S
C14 H37 0.929 . S
C15 C14 1.398 . S
C15 C16 1.352 1_554 S
C16 C15 1.352 1_556 S
C16 C17 1.384 . S
C16 H38 0.930 . S
C17 C12 1.407 1_556 S
C17 C16 1.384 . S
C17 H39 0.929 . S
C18 O28 1.241 . S
C18 O29 1.273 . S
C19 O30 1.251 . S
C19 O31 1.268 . S
O20 Nd0 2.500 1_556 S
O20 C2 1.258 1_556 S
O21 Nd0 2.492 . S
O21 C2 1.239 . S
O22 Nd0 2.487 . S
O22 C9 1.241 . S
O23 Nd0 2.682 . S
O23 Nd1 2.414 1_554 S
O23 C9 1.273 . S
O24 Nd0 2.410 1_556 S
O24 C10 1.251 . S
O25 Nd1 2.424 . S
O25 C10 1.268 . S
O26 Nd1 2.500 1_554 S
O26 C11 1.258 1_554 S
O27 Nd1 2.492 . S
O27 C11 1.239 . S
O28 Nd1 2.487 . S
O28 C18 1.241 . S
O29 Nd0 2.414 1_556 S
O29 Nd1 2.682 . S
O29 C18 1.273 . S
O30 Nd1 2.410 1_554 S
O30 C19 1.251 . S
O31 Nd0 2.424 . S
O31 C19 1.268 . S
H32 C4 0.930 . S
H33 C5 0.929 . S
H34 C7 0.930 . S
H35 C8 0.929 . S
H36 C13 0.930 . S
H37 C14 0.929 . S
H38 C16 0.930 . S
H39 C17 0.929 . S
Nd40 C42 2.836 . S
Nd40 O60 2.500 1_554 S
Nd40 O61 2.492 . S
Nd40 O62 2.487 . S
Nd40 O63 2.682 . S
Nd40 O64 2.410 1_554 S
Nd40 O69 2.414 1_554 S
Nd40 O71 2.424 . S
Nd41 C51 2.836 . S
Nd41 O63 2.414 1_556 S
Nd41 O65 2.424 . S
Nd41 O66 2.500 1_556 S
Nd41 O67 2.492 . S
Nd41 O68 2.487 . S
Nd41 O69 2.682 . S
Nd41 O70 2.410 1_556 S
C42 Nd40 2.836 . S
C42 C43 1.498 1_554 S
C42 O60 1.258 1_554 S
C42 O61 1.239 . S
C43 C42 1.498 1_556 S
C43 C44 1.366 . S
C43 C48 1.407 1_556 S
C44 C43 1.366 . S
C44 C45 1.392 . S
C44 H72 0.930 . S
C45 C44 1.392 . S
C45 C46 1.398 . S
C45 H73 0.929 . S
C46 C45 1.398 . S
C46 C47 1.352 1_556 S
C47 C46 1.352 1_554 S
C47 C48 1.384 . S
C47 H74 0.930 . S
C48 C43 1.407 1_554 S
C48 C47 1.384 . S
C48 H75 0.929 . S
C49 O62 1.241 . S
C49 O63 1.273 . S
C50 O64 1.251 . S
C50 O65 1.268 . S
C51 Nd41 2.836 . S
C51 C52 1.498 1_556 S
C51 O66 1.258 1_556 S
C51 O67 1.239 . S
C52 C51 1.498 1_554 S
C52 C53 1.366 . S
C52 C57 1.407 1_554 S
C53 C52 1.366 . S
C53 C54 1.392 . S
C53 H76 0.930 . S
C54 C53 1.392 . S
C54 C55 1.398 . S
C54 H77 0.929 . S
C55 C54 1.398 . S
C55 C56 1.352 1_554 S
C56 C55 1.352 1_556 S
C56 C57 1.384 . S
C56 H78 0.930 . S
C57 C52 1.407 1_556 S
C57 C56 1.384 . S
C57 H79 0.929 . S
C58 O68 1.241 . S
C58 O69 1.273 . S
C59 O70 1.251 . S
C59 O71 1.268 . S
O60 Nd40 2.500 1_556 S
O60 C42 1.258 1_556 S
O61 Nd40 2.492 . S
O61 C42 1.239 . S
O62 Nd40 2.487 . S
O62 C49 1.241 . S
O63 Nd40 2.682 . S
O63 Nd41 2.414 1_554 S
O63 C49 1.273 . S
O64 Nd40 2.410 1_556 S
O64 C50 1.251 . S
O65 Nd41 2.424 . S
O65 C50 1.268 . S
O66 Nd41 2.500 1_554 S
O66 C51 1.258 1_554 S
O67 Nd41 2.492 . S
O67 C51 1.239 . S
O68 Nd41 2.487 . S
O68 C58 1.241 . S
O69 Nd40 2.414 1_556 S
O69 Nd41 2.682 . S
O69 C58 1.273 . S
O70 Nd41 2.410 1_554 S
O70 C59 1.251 . S
O71 Nd40 2.424 . S
O71 C59 1.268 . S
H72 C44 0.930 . S
H73 C45 0.929 . S
H74 C47 0.930 . S
H75 C48 0.929 . S
H76 C53 0.930 . S
H77 C54 0.929 . S
H78 C56 0.930 . S
H79 C57 0.929 . S
Nd80 C82 2.836 . S
Nd80 O100 2.500 . S
Nd80 O101 2.492 . S
Nd80 O102 2.487 . S
Nd80 O103 2.682 . S
Nd80 O104 2.410 . S
Nd80 O109 2.414 . S
Nd80 O111 2.424 . S
Nd81 C91 2.836 . S
Nd81 O103 2.414 . S
Nd81 O105 2.424 . S
Nd81 O106 2.500 . S
Nd81 O107 2.492 . S
Nd81 O108 2.487 . S
Nd81 O109 2.682 . S
Nd81 O110 2.410 . S
C82 Nd80 2.836 . S
C82 C83 1.498 . S
C82 O100 1.258 . S
C82 O101 1.239 . S
C83 C82 1.498 . S
C83 C84 1.366 . S
C83 C88 1.407 . S
C84 C83 1.366 . S
C84 C85 1.392 . S
C84 H112 0.930 . S
C85 C84 1.392 . S
C85 C86 1.398 . S
C85 H113 0.929 . S
C86 C85 1.398 . S
C86 C87 1.352 . S
C87 C86 1.352 . S
C87 C88 1.384 . S
C87 H114 0.930 . S
C88 C83 1.407 . S
C88 C87 1.384 . S
C88 H115 0.929 . S
C89 O102 1.241 . S
C89 O103 1.273 . S
C90 O104 1.251 . S
C90 O105 1.268 . S
C91 Nd81 2.836 . S
C91 C92 1.498 . S
C91 O106 1.258 . S
C91 O107 1.239 . S
C92 C91 1.498 . S
C92 C93 1.366 . S
C92 C97 1.407 . S
C93 C92 1.366 . S
C93 C94 1.392 . S
C93 H116 0.930 . S
C94 C93 1.392 . S
C94 C95 1.398 . S
C94 H117 0.929 . S
C95 C94 1.398 . S
C95 C96 1.352 . S
C96 C95 1.352 . S
C96 C97 1.384 . S
C96 H118 0.930 . S
C97 C92 1.407 . S
C97 C96 1.384 . S
C97 H119 0.929 . S
C98 O108 1.241 . S
C98 O109 1.273 . S
C99 O110 1.251 . S
C99 O111 1.268 . S
O100 Nd80 2.500 . S
O100 C82 1.258 . S
O101 Nd80 2.492 . S
O101 C82 1.239 . S
O102 Nd80 2.487 . S
O102 C89 1.241 . S
O103 Nd80 2.682 . S
O103 Nd81 2.414 . S
O103 C89 1.273 . S
O104 Nd80 2.410 . S
O104 C90 1.251 . S
O105 Nd81 2.424 . S
O105 C90 1.268 . S
O106 Nd81 2.500 . S
O106 C91 1.258 . S
O107 Nd81 2.492 . S
O107 C91 1.239 . S
O108 Nd81 2.487 . S
O108 C98 1.241 . S
O109 Nd80 2.414 . S
O109 Nd81 2.682 . S
O109 C98 1.273 . S
O110 Nd81 2.410 . S
O110 C99 1.251 . S
O111 Nd80 2.424 . S
O111 C99 1.268 . S
H112 C84 0.930 . S
H113 C85 0.929 . S
H114 C87 0.930 . S
H115 C88 0.929 . S
H116 C93 0.930 . S
H117 C94 0.929 . S
H118 C96 0.930 . S
H119 C97 0.929 . S
Nd120 C122 2.836 . S
Nd120 O140 2.500 . S
Nd120 O141 2.492 . S
Nd120 O142 2.487 . S
Nd120 O143 2.682 . S
Nd120 O144 2.410 . S
Nd120 O149 2.414 . S
Nd120 O151 2.424 . S
Nd121 C131 2.836 . S
Nd121 O143 2.414 . S
Nd121 O145 2.424 . S
Nd121 O146 2.500 . S
Nd121 O147 2.492 . S
Nd121 O148 2.487 . S
Nd121 O149 2.682 . S
Nd121 O150 2.410 . S
C122 Nd120 2.836 . S
C122 C123 1.498 . S
C122 O140 1.258 . S
C122 O141 1.239 . S
C123 C122 1.498 . S
C123 C124 1.366 . S
C123 C128 1.407 . S
C124 C123 1.366 . S
C124 C125 1.392 . S
C124 H152 0.930 . S
C125 C124 1.392 . S
C125 C126 1.398 . S
C125 H153 0.929 . S
C126 C125 1.398 . S
C126 C127 1.352 . S
C127 C126 1.352 . S
C127 C128 1.384 . S
C127 H154 0.930 . S
C128 C123 1.407 . S
C128 C127 1.384 . S
C128 H155 0.929 . S
C129 O142 1.241 . S
C129 O143 1.273 . S
C130 O144 1.251 . S
C130 O145 1.268 . S
C131 Nd121 2.836 . S
C131 C132 1.498 . S
C131 O146 1.258 . S
C131 O147 1.239 . S
C132 C131 1.498 . S
C132 C133 1.366 . S
C132 C137 1.407 . S
C133 C132 1.366 . S
C133 C134 1.392 . S
C133 H156 0.930 . S
C134 C133 1.392 . S
C134 C135 1.398 . S
C134 H157 0.929 . S
C135 C134 1.398 . S
C135 C136 1.352 . S
C136 C135 1.352 . S
C136 C137 1.384 . S
C136 H158 0.930 . S
C137 C132 1.407 . S
C137 C136 1.384 . S
C137 H159 0.929 . S
C138 O148 1.241 . S
C138 O149 1.273 . S
C139 O150 1.251 . S
C139 O151 1.268 . S
O140 Nd120 2.500 . S
O140 C122 1.258 . S
O141 Nd120 2.492 . S
O141 C122 1.239 . S
O142 Nd120 2.487 . S
O142 C129 1.241 . S
O143 Nd120 2.682 . S
O143 Nd121 2.414 . S
O143 C129 1.273 . S
O144 Nd120 2.410 . S
O144 C130 1.251 . S
O145 Nd121 2.424 . S
O145 C130 1.268 . S
O146 Nd121 2.500 . S
O146 C131 1.258 . S
O147 Nd121 2.492 . S
O147 C131 1.239 . S
O148 Nd121 2.487 . S
O148 C138 1.241 . S
O149 Nd120 2.414 . S
O149 Nd121 2.682 . S
O149 C138 1.273 . S
O150 Nd121 2.410 . S
O150 C139 1.251 . S
O151 Nd120 2.424 . S
O151 C139 1.268 . S
H152 C124 0.930 . S
H153 C125 0.929 . S
H154 C127 0.930 . S
H155 C128 0.929 . S
H156 C133 0.930 . S
H157 C134 0.929 . S
H158 C136 0.930 . S
H159 C137 0.929 . S
H160 C178 0.951 . S
H161 C180 0.951 . S
H162 C182 0.950 . S
H163 C183 0.950 1_556 S
H164 C185 0.950 . S
H165 C188 0.950 . S
H166 C189 0.950 . S
H167 C191 0.950 . S
H168 C192 0.950 . S
H169 C193 0.951 . S
H170 C195 0.951 . S
H171 C197 0.950 . S
H172 C198 0.950 . S
H173 C200 0.950 . S
H174 C203 0.950 . S
H175 C204 0.950 . S
H176 C206 0.950 . S
H177 C207 0.950 . S
C178 H160 0.951 . S
C178 C179 1.366 . S
C178 C180 1.388 . S
C179 C178 1.366 . S
C179 C183 1.385 . S
C180 H161 0.951 . S
C180 C178 1.388 . S
C180 C181 1.366 . S
C181 C180 1.366 . S
C181 C182 1.414 1_554 S
C181 C184 1.499 . S
C182 H162 0.950 . S
C182 C181 1.414 1_556 S
C182 C183 1.374 1_556 S
C183 H163 0.950 1_554 S
C183 C179 1.385 . S
C183 C182 1.374 1_554 S
C184 C181 1.499 . S
C184 C185 1.373 1_554 S
C184 C186 1.389 . S
C185 H164 0.950 . S
C185 C184 1.373 1_556 S
C185 C201 1.377 . S
C186 C184 1.389 . S
C186 C187 1.524 . S
C186 C200 1.377 . S
C187 C186 1.524 . S
C187 C188 1.397 . S
C187 C192 1.363 . S
C188 H165 0.950 . S
C188 C187 1.397 . S
C188 C189 1.334 . S
C189 H166 0.950 . S
C189 C188 1.334 . S
C189 C190 1.287 . S
C190 C189 1.287 . S
C190 C191 1.524 . S
C190 H209 0.913 . S
C191 H167 0.950 . S
C191 C190 1.524 . S
C191 C192 1.415 . S
C192 H168 0.950 . S
C192 C187 1.363 . S
C192 C191 1.415 . S
C193 H169 0.951 . S
C193 C194 1.366 . S
C193 C195 1.388 . S
C194 C193 1.366 . S
C194 C198 1.385 1_556 S
C195 H170 0.951 . S
C195 C193 1.388 . S
C195 C196 1.366 . S
C196 C195 1.366 . S
C196 C197 1.414 1_556 S
C196 C199 1.499 . S
C197 H171 0.950 . S
C197 C196 1.414 1_554 S
C197 C198 1.374 . S
C198 H172 0.950 . S
C198 C194 1.385 1_554 S
C198 C197 1.374 . S
C199 C196 1.499 . S
C199 C200 1.373 1_556 S
C199 C201 1.389 . S
C200 H173 0.950 . S
C200 C186 1.377 . S
C200 C199 1.373 1_554 S
C201 C185 1.377 . S
C201 C199 1.389 . S
C201 C202 1.524 . S
C202 C201 1.524 . S
C202 C203 1.397 . S
C202 C207 1.363 . S
C203 H174 0.950 . S
C203 C202 1.397 . S
C203 C204 1.334 . S
C204 H175 0.950 . S
C204 C203 1.334 . S
C204 C205 1.287 . S
C205 C204 1.287 . S
C205 C206 1.524 . S
C205 H208 0.999 . S
C206 H176 0.950 . S
C206 C205 1.524 . S
C206 C207 1.415 . S
C207 H177 0.950 . S
C207 C202 1.363 . S
C207 C206 1.415 . S
H208 C205 0.999 . S
H209 C190 0.913 . S
H210 C228 0.951 . S
H211 C230 0.951 . S
H212 C232 0.950 . S
H213 C233 0.950 . S
H214 C235 0.950 . S
H215 C238 0.950 . S
H216 C239 0.950 . S
H217 C241 0.950 . S
H218 C242 0.950 . S
H219 C243 0.951 . S
H220 C245 0.951 . S
H221 C247 0.950 . S
H222 C248 0.950 . S
H223 C250 0.950 . S
H224 C253 0.950 . S
H225 C254 0.950 . S
H226 C256 0.950 . S
H227 C257 0.950 . S
C228 H210 0.951 . S
C228 C229 1.366 . S
C228 C230 1.388 . S
C229 C228 1.366 . S
C229 C233 1.385 . S
C230 H211 0.951 . S
C230 C228 1.388 . S
C230 C231 1.366 . S
C231 C230 1.366 . S
C231 C232 1.414 . S
C231 C234 1.499 . S
C232 H212 0.950 . S
C232 C231 1.414 . S
C232 C233 1.374 . S
C233 H213 0.950 . S
C233 C229 1.385 . S
C233 C232 1.374 . S
C234 C231 1.499 . S
C234 C235 1.373 . S
C234 C236 1.389 . S
C235 H214 0.950 . S
C235 C234 1.373 . S
C235 C251 1.377 . S
C236 C234 1.389 . S
C236 C237 1.524 . S
C236 C250 1.377 . S
C237 C236 1.524 . S
C237 C238 1.397 . S
C237 C242 1.363 . S
C238 H215 0.950 . S
C238 C237 1.397 . S
C238 C239 1.334 . S
C239 H216 0.950 . S
C239 C238 1.334 . S
C239 C240 1.287 . S
C240 C239 1.287 . S
C240 C241 1.524 . S
C240 H259 0.913 . S
C241 H217 0.950 . S
C241 C240 1.524 . S
C241 C242 1.415 . S
C242 H218 0.950 . S
C242 C237 1.363 . S
C242 C241 1.415 . S
C243 H219 0.951 . S
C243 C244 1.366 . S
C243 C245 1.388 . S
C244 C243 1.366 . S
C244 C248 1.385 . S
C245 H220 0.951 . S
C245 C243 1.388 . S
C245 C246 1.366 . S
C246 C245 1.366 . S
C246 C247 1.414 . S
C246 C249 1.499 . S
C247 H221 0.950 . S
C247 C246 1.414 . S
C247 C248 1.374 . S
C248 H222 0.950 . S
C248 C244 1.385 . S
C248 C247 1.374 . S
C249 C246 1.499 . S
C249 C250 1.373 . S
C249 C251 1.389 . S
C250 H223 0.950 . S
C250 C236 1.377 . S
C250 C249 1.373 . S
C251 C235 1.377 . S
C251 C249 1.389 . S
C251 C252 1.524 . S
C252 C251 1.524 . S
C252 C253 1.397 . S
C252 C257 1.363 . S
C253 H224 0.950 . S
C253 C252 1.397 . S
C253 C254 1.334 . S
C254 H225 0.950 . S
C254 C253 1.334 . S
C254 C255 1.287 . S
C255 C254 1.287 . S
C255 C256 1.524 . S
C255 H258 0.999 . S
C256 H226 0.950 . S
C256 C255 1.524 . S
C256 C257 1.415 . S
C257 H227 0.950 . S
C257 C252 1.363 . S
C257 C256 1.415 . S
H258 C255 0.999 . S
H259 C240 0.913 . S
H260 C278 0.951 . S
H261 C280 0.967 . S
H262 C282 0.950 1_565 S
H263 C283 0.950 . S
H264 C285 0.950 . S
H265 C288 0.950 . S
H266 C289 0.950 . S
H267 C291 0.950 . S
H268 C292 0.950 . S
H269 C293 0.951 . S
H270 C295 0.967 . S
H271 C297 0.950 1_545 S
H272 C298 0.950 . S
H273 C300 0.950 . S
H274 C303 0.950 . S
H275 C304 0.950 . S
H276 C306 0.950 . S
H277 C307 0.950 . S
C278 H260 0.951 . S
C278 C279 1.366 . S
C278 C280 1.388 . S
C279 C278 1.366 . S
C279 C283 1.385 . S
C280 H261 0.967 . S
C280 C278 1.388 . S
C280 C281 1.366 . S
C281 C280 1.366 . S
C281 C282 1.414 . S
C281 C284 1.499 . S
C282 H262 0.950 1_545 S
C282 C281 1.414 . S
C282 C283 1.374 . S
C283 H263 0.950 . S
C283 C279 1.385 . S
C283 C282 1.374 . S
C284 C281 1.499 . S
C284 C285 1.373 1_544 S
C284 C286 1.389 1_455 S
C285 H264 0.950 . S
C285 C284 1.373 1_566 S
C285 C301 1.377 . S
C286 C284 1.389 1_655 S
C286 C287 1.524 . S
C286 C300 1.377 . S
C287 C286 1.524 . S
C287 C288 1.397 1_655 S
C287 C292 1.363 . S
C288 H265 0.950 . S
C288 C287 1.397 1_455 S
C288 C289 1.334 . S
C289 H266 0.950 . S
C289 C288 1.334 . S
C289 C290 1.287 1_455 S
C290 C289 1.287 1_655 S
C290 C291 1.524 . S
C290 H309 0.913 . S
C291 H267 0.950 . S
C291 C290 1.524 . S
C291 C292 1.415 . S
C292 H268 0.950 . S
C292 C287 1.363 . S
C292 C291 1.415 . S
C293 H269 0.951 . S
C293 C294 1.366 . S
C293 C295 1.388 . S
C294 C293 1.366 . S
C294 C298 1.385 . S
C295 H270 0.967 . S
C295 C293 1.388 . S
C295 C296 1.366 . S
C296 C295 1.366 . S
C296 C297 1.414 . S
C296 C299 1.499 . S
C297 H271 0.950 1_565 S
C297 C296 1.414 . S
C297 C298 1.374 . S
C298 H272 0.950 . S
C298 C294 1.385 . S
C298 C297 1.374 . S
C299 C296 1.499 . S
C299 C300 1.373 1_566 S
C299 C301 1.389 1_655 S
C300 H273 0.950 . S
C300 C286 1.377 . S
C300 C299 1.373 1_544 S
C301 C285 1.377 . S
C301 C299 1.389 1_455 S
C301 C302 1.524 . S
C302 C301 1.524 . S
C302 C303 1.397 1_455 S
C302 C307 1.363 . S
C303 H274 0.950 . S
C303 C302 1.397 1_655 S
C303 C304 1.334 . S
C304 H275 0.950 . S
C304 C303 1.334 . S
C304 C305 1.287 1_655 S
C305 C304 1.287 1_455 S
C305 C306 1.524 . S
C305 H308 0.999 . S
C306 H276 0.950 . S
C306 C305 1.524 . S
C306 C307 1.415 . S
C307 H277 0.950 . S
C307 C302 1.363 . S
C307 C306 1.415 . S
H308 C305 0.999 . S
H309 C290 0.913 . S
H310 C328 0.951 . S
H311 C330 0.951 . S
H312 C332 0.950 1_455 S
H313 C333 0.950 . S
H314 C335 0.950 . S
H315 C338 0.950 . S
H316 C339 0.950 . S
H317 C341 0.950 . S
H318 C342 0.950 . S
H319 C343 0.951 . S
H320 C345 0.951 . S
H321 C347 0.950 1_655 S
H322 C348 0.950 . S
H323 C350 0.950 . S
H324 C353 0.950 . S
H325 C354 0.950 . S
H326 C356 0.950 . S
H327 C357 0.950 . S
C328 H310 0.951 . S
C328 C329 1.366 . S
C328 C330 1.388 . S
C329 C328 1.366 . S
C329 C333 1.385 . S
C330 H311 0.951 . S
C330 C328 1.388 . S
C330 C331 1.366 . S
C331 C330 1.366 . S
C331 C332 1.414 . S
C331 C334 1.499 . S
C332 H312 0.950 1_655 S
C332 C331 1.414 . S
C332 C333 1.374 . S
C333 H313 0.950 . S
C333 C329 1.385 . S
C333 C332 1.374 . S
C334 C331 1.499 . S
C334 C335 1.373 1_655 S
C334 C336 1.389 . S
C335 H314 0.950 . S
C335 C334 1.373 1_455 S
C335 C351 1.377 1_545 S
C336 C334 1.389 . S
C336 C337 1.524 . S
C336 C350 1.377 1_545 S
C337 C336 1.524 . S
C337 C338 1.397 . S
C337 C342 1.363 . S
C338 H315 0.950 . S
C338 C337 1.397 . S
C338 C339 1.334 . S
C339 H316 0.950 . S
C339 C338 1.334 . S
C339 C340 1.287 . S
C340 C339 1.287 . S
C340 C341 1.524 . S
C340 H359 0.913 . S
C341 H317 0.950 . S
C341 C340 1.524 . S
C341 C342 1.415 . S
C342 H318 0.950 . S
C342 C337 1.363 . S
C342 C341 1.415 . S
C343 H319 0.951 . S
C343 C344 1.366 . S
C343 C345 1.388 . S
C344 C343 1.366 . S
C344 C348 1.385 . S
C345 H320 0.951 . S
C345 C343 1.388 . S
C345 C346 1.366 . S
C346 C345 1.366 . S
C346 C347 1.414 . S
C346 C349 1.499 . S
C347 H321 0.950 1_455 S
C347 C346 1.414 . S
C347 C348 1.374 . S
C348 H322 0.950 . S
C348 C344 1.385 . S
C348 C347 1.374 . S
C349 C346 1.499 . S
C349 C350 1.373 1_455 S
C349 C351 1.389 . S
C350 H323 0.950 . S
C350 C336 1.377 1_565 S
C350 C349 1.373 1_655 S
C351 C335 1.377 1_565 S
C351 C349 1.389 . S
C351 C352 1.524 . S
C352 C351 1.524 . S
C352 C353 1.397 . S
C352 C357 1.363 . S
C353 H324 0.950 . S
C353 C352 1.397 . S
C353 C354 1.334 . S
C354 H325 0.950 . S
C354 C353 1.334 . S
C354 C355 1.287 . S
C355 C354 1.287 . S
C355 C356 1.524 . S
C355 H358 0.999 . S
C356 H326 0.950 . S
C356 C355 1.524 . S
C356 C357 1.415 . S
C357 H327 0.950 . S
C357 C352 1.363 . S
C357 C356 1.415 . S
H358 C355 0.999 . S
H359 C340 0.913 . S
H360 C378 0.951 . S
H361 C380 0.951 . S
H362 C382 0.950 . S
H363 C383 0.950 . S
H364 C385 0.950 . S
H365 C388 0.950 . S
H366 C389 0.950 . S
H367 C391 0.950 . S
H368 C392 0.950 . S
H369 C393 0.951 . S
H370 C395 0.951 . S
H371 C397 0.950 . S
H372 C398 0.950 . S
H373 C400 0.950 . S
H374 C403 0.950 . S
H375 C404 0.950 . S
H376 C406 0.950 . S
H377 C407 0.950 . S
C378 H360 0.951 . S
C378 C379 1.366 . S
C378 C380 1.388 . S
C379 C378 1.366 . S
C379 C383 1.385 . S
C380 H361 0.951 . S
C380 C378 1.388 . S
C380 C381 1.366 . S
C381 C380 1.366 . S
C381 C382 1.414 . S
C381 C384 1.499 . S
C382 H362 0.950 . S
C382 C381 1.414 . S
C382 C383 1.374 . S
C383 H363 0.950 . S
C383 C379 1.385 . S
C383 C382 1.374 . S
C384 C381 1.499 . S
C384 C385 1.373 . S
C384 C386 1.389 . S
C385 H364 0.950 . S
C385 C384 1.373 . S
C385 C401 1.377 . S
C386 C384 1.389 . S
C386 C387 1.524 . S
C386 C400 1.377 . S
C387 C386 1.524 . S
C387 C388 1.397 . S
C387 C392 1.363 . S
C388 H365 0.950 . S
C388 C387 1.397 . S
C388 C389 1.334 . S
C389 H366 0.950 . S
C389 C388 1.334 . S
C389 C390 1.287 . S
C390 C389 1.287 . S
C390 C391 1.524 . S
C390 H409 0.913 . S
C391 H367 0.950 . S
C391 C390 1.524 . S
C391 C392 1.415 . S
C392 H368 0.950 . S
C392 C387 1.363 . S
C392 C391 1.415 . S
C393 H369 0.951 . S
C393 C394 1.366 . S
C393 C395 1.388 . S
C394 C393 1.366 . S
C394 C398 1.385 . S
C395 H370 0.951 . S
C395 C393 1.388 . S
C395 C396 1.366 . S
C396 C395 1.366 . S
C396 C397 1.414 . S
C396 C399 1.499 . S
C397 H371 0.950 . S
C397 C396 1.414 . S
C397 C398 1.374 . S
C398 H372 0.950 . S
C398 C394 1.385 . S
C398 C397 1.374 . S
C399 C396 1.499 . S
C399 C400 1.373 . S
C399 C401 1.389 . S
C400 H373 0.950 . S
C400 C386 1.377 . S
C400 C399 1.373 . S
C401 C385 1.377 . S
C401 C399 1.389 . S
C401 C402 1.524 . S
C402 C401 1.524 . S
C402 C403 1.397 . S
C402 C407 1.363 . S
C403 H374 0.950 . S
C403 C402 1.397 . S
C403 C404 1.334 . S
C404 H375 0.950 . S
C404 C403 1.334 . S
C404 C405 1.287 . S
C405 C404 1.287 . S
C405 C406 1.524 . S
C405 H408 0.999 . S
C406 H376 0.950 . S
C406 C405 1.524 . S
C406 C407 1.415 . S
C407 H377 0.950 . S
C407 C402 1.363 . S
C407 C406 1.415 . S
H408 C405 0.999 . S
H409 C390 0.913 . S
H410 C428 0.951 . S
H411 C430 0.951 . S
H412 C432 0.950 . S
H413 C433 0.950 . S
H414 C435 0.950 . S
H415 C438 0.950 . S
H416 C439 0.950 . S
H417 C441 0.950 . S
H418 C442 0.950 . S
H419 C443 0.951 . S
H420 C445 0.951 . S
H421 C447 0.950 . S
H422 C448 0.950 . S
H423 C450 0.950 . S
H424 C453 0.950 . S
H425 C454 0.950 . S
H426 C456 0.950 . S
H427 C457 0.950 . S
C428 H410 0.951 . S
C428 C429 1.366 . S
C428 C430 1.388 . S
C429 C428 1.366 . S
C429 C433 1.385 . S
C430 H411 0.951 . S
C430 C428 1.388 . S
C430 C431 1.366 . S
C431 C430 1.366 . S
C431 C432 1.414 . S
C431 C434 1.499 . S
C432 H412 0.950 . S
C432 C431 1.414 . S
C432 C433 1.374 . S
C433 H413 0.950 . S
C433 C429 1.385 . S
C433 C432 1.374 . S
C434 C431 1.499 . S
C434 C435 1.373 . S
C434 C436 1.389 . S
C435 H414 0.950 . S
C435 C434 1.373 . S
C435 C451 1.377 . S
C436 C434 1.389 . S
C436 C437 1.524 . S
C436 C450 1.377 . S
C437 C436 1.524 . S
C437 C438 1.397 . S
C437 C442 1.363 . S
C438 H415 0.950 . S
C438 C437 1.397 . S
C438 C439 1.334 . S
C439 H416 0.950 . S
C439 C438 1.334 . S
C439 C440 1.287 . S
C440 C439 1.287 . S
C440 C441 1.524 . S
C440 H459 0.913 . S
C441 H417 0.950 . S
C441 C440 1.524 . S
C441 C442 1.415 . S
C442 H418 0.950 . S
C442 C437 1.363 . S
C442 C441 1.415 . S
C443 H419 0.951 . S
C443 C444 1.366 . S
C443 C445 1.388 . S
C444 C443 1.366 . S
C444 C448 1.385 . S
C445 H420 0.951 . S
C445 C443 1.388 . S
C445 C446 1.366 . S
C446 C445 1.366 . S
C446 C447 1.414 . S
C446 C449 1.499 . S
C447 H421 0.950 . S
C447 C446 1.414 . S
C447 C448 1.374 . S
C448 H422 0.950 . S
C448 C444 1.385 . S
C448 C447 1.374 . S
C449 C446 1.499 . S
C449 C450 1.373 . S
C449 C451 1.389 . S
C450 H423 0.950 . S
C450 C436 1.377 . S
C450 C449 1.373 . S
C451 C435 1.377 . S
C451 C449 1.389 . S
C451 C452 1.524 . S
C452 C451 1.524 . S
C452 C453 1.397 . S
C452 C457 1.363 . S
C453 H424 0.950 . S
C453 C452 1.397 . S
C453 C454 1.334 . S
C454 H425 0.950 . S
C454 C453 1.334 . S
C454 C455 1.287 . S
C455 C454 1.287 . S
C455 C456 1.524 . S
C455 H458 0.999 . S
C456 H426 0.950 . S
C456 C455 1.524 . S
C456 C457 1.415 . S
C457 H427 0.950 . S
C457 C452 1.363 . S
C457 C456 1.415 . S
H458 C455 0.999 . S
H459 C440 0.913 . S
H460 C478 0.951 . S
H461 C480 0.951 . S
H462 C482 0.950 . S
H463 C483 0.950 . S
H464 C485 0.950 . S
H465 C488 0.950 . S
H466 C489 0.950 . S
H467 C491 0.950 . S
H468 C492 0.950 . S
H469 C493 0.951 . S
H470 C495 0.951 . S
H471 C497 0.950 . S
H472 C498 0.950 . S
H473 C500 0.950 . S
H474 C503 0.950 . S
H475 C504 0.950 . S
H476 C506 0.950 . S
H477 C507 0.950 . S
C478 H460 0.951 . S
C478 C479 1.366 . S
C478 C480 1.388 . S
C479 C478 1.366 . S
C479 C483 1.385 . S
C480 H461 0.951 . S
C480 C478 1.388 . S
C480 C481 1.366 . S
C481 C480 1.366 . S
C481 C482 1.414 . S
C481 C484 1.499 . S
C482 H462 0.950 . S
C482 C481 1.414 . S
C482 C483 1.374 . S
C483 H463 0.950 . S
C483 C479 1.385 . S
C483 C482 1.374 . S
C484 C481 1.499 . S
C484 C485 1.373 . S
C484 C486 1.389 . S
C485 H464 0.950 . S
C485 C484 1.373 . S
C485 C501 1.377 . S
C486 C484 1.389 . S
C486 C487 1.524 . S
C486 C500 1.377 . S
C487 C486 1.524 . S
C487 C488 1.397 . S
C487 C492 1.363 . S
C488 H465 0.950 . S
C488 C487 1.397 . S
C488 C489 1.334 . S
C489 H466 0.950 . S
C489 C488 1.334 . S
C489 C490 1.287 . S
C490 C489 1.287 . S
C490 C491 1.524 . S
C490 H509 0.913 . S
C491 H467 0.950 . S
C491 C490 1.524 . S
C491 C492 1.415 . S
C492 H468 0.950 . S
C492 C487 1.363 . S
C492 C491 1.415 . S
C493 H469 0.951 . S
C493 C494 1.366 . S
C493 C495 1.388 . S
C494 C493 1.366 . S
C494 C498 1.385 . S
C495 H470 0.951 . S
C495 C493 1.388 . S
C495 C496 1.366 . S
C496 C495 1.366 . S
C496 C497 1.414 . S
C496 C499 1.499 . S
C497 H471 0.950 . S
C497 C496 1.414 . S
C497 C498 1.374 . S
C498 H472 0.950 . S
C498 C494 1.385 . S
C498 C497 1.374 . S
C499 C496 1.499 . S
C499 C500 1.373 . S
C499 C501 1.389 . S
C500 H473 0.950 . S
C500 C486 1.377 . S
C500 C499 1.373 . S
C501 C485 1.377 . S
C501 C499 1.389 . S
C501 C502 1.524 . S
C502 C501 1.524 . S
C502 C503 1.397 . S
C502 C507 1.363 . S
C503 H474 0.950 . S
C503 C502 1.397 . S
C503 C504 1.334 . S
C504 H475 0.950 . S
C504 C503 1.334 . S
C504 C505 1.287 . S
C505 C504 1.287 . S
C505 C506 1.524 . S
C505 H508 0.999 . S
C506 H476 0.950 . S
C506 C505 1.524 . S
C506 C507 1.415 . S
C507 H477 0.950 . S
C507 C502 1.363 . S
C507 C506 1.415 . S
H508 C505 0.999 . S
H509 C490 0.913 . S
H510 C528 0.951 . S
H511 C530 0.951 . S
H512 C532 0.950 . S
H513 C533 0.950 . S
H514 C535 0.950 . S
H515 C538 0.950 . S
H516 C539 0.950 . S
H517 C541 0.950 . S
H518 C542 0.950 . S
H519 C543 0.951 . S
H520 C545 0.951 . S
H521 C547 0.950 . S
H522 C548 0.950 . S
H523 C550 0.950 . S
H524 C553 0.950 . S
H525 C554 0.950 . S
H526 C556 0.950 . S
H527 C557 0.950 . S
C528 H510 0.951 . S
C528 C529 1.366 . S
C528 C530 1.388 . S
C529 C528 1.366 . S
C529 C533 1.385 . S
C530 H511 0.951 . S
C530 C528 1.388 . S
C530 C531 1.366 . S
C531 C530 1.366 . S
C531 C532 1.414 . S
C531 C534 1.499 . S
C532 H512 0.950 . S
C532 C531 1.414 . S
C532 C533 1.374 . S
C533 H513 0.950 . S
C533 C529 1.385 . S
C533 C532 1.374 . S
C534 C531 1.499 . S
C534 C535 1.373 . S
C534 C536 1.389 . S
C535 H514 0.950 . S
C535 C534 1.373 . S
C535 C551 1.377 . S
C536 C534 1.389 . S
C536 C537 1.524 . S
C536 C550 1.377 . S
C537 C536 1.524 . S
C537 C538 1.397 . S
C537 C542 1.363 . S
C538 H515 0.950 . S
C538 C537 1.397 . S
C538 C539 1.334 . S
C539 H516 0.950 . S
C539 C538 1.334 . S
C539 C540 1.287 . S
C540 C539 1.287 . S
C540 C541 1.524 . S
C540 H559 0.913 . S
C541 H517 0.950 . S
C541 C540 1.524 . S
C541 C542 1.415 . S
C542 H518 0.950 . S
C542 C537 1.363 . S
C542 C541 1.415 . S
C543 H519 0.951 . S
C543 C544 1.366 . S
C543 C545 1.388 . S
C544 C543 1.366 . S
C544 C548 1.385 . S
C545 H520 0.951 . S
C545 C543 1.388 . S
C545 C546 1.366 . S
C546 C545 1.366 . S
C546 C547 1.414 . S
C546 C549 1.499 . S
C547 H521 0.950 . S
C547 C546 1.414 . S
C547 C548 1.374 . S
C548 H522 0.950 . S
C548 C544 1.385 . S
C548 C547 1.374 . S
C549 C546 1.499 . S
C549 C550 1.373 . S
C549 C551 1.389 . S
C550 H523 0.950 . S
C550 C536 1.377 . S
C550 C549 1.373 . S
C551 C535 1.377 . S
C551 C549 1.389 . S
C551 C552 1.524 . S
C552 C551 1.524 . S
C552 C553 1.397 . S
C552 C557 1.363 . S
C553 H524 0.950 . S
C553 C552 1.397 . S
C553 C554 1.334 . S
C554 H525 0.950 . S
C554 C553 1.334 . S
C554 C555 1.287 . S
C555 C554 1.287 . S
C555 C556 1.524 . S
C555 H558 0.999 . S
C556 H526 0.950 . S
C556 C555 1.524 . S
C556 C557 1.415 . S
C557 H527 0.950 . S
C557 C552 1.363 . S
C557 C556 1.415 . S
H558 C555 0.999 . S
H559 C540 0.913 . S
H560 C578 0.951 . S
H561 C580 0.951 1_455 S
H562 C582 0.950 . S
H563 C583 0.950 . S
H564 C585 0.950 . S
H565 C588 0.950 1_655 S
H566 C589 0.950 1_655 S
H567 C591 0.950 . S
H568 C592 0.950 . S
H569 C593 0.951 . S
H570 C595 0.951 . S
H571 C597 0.950 . S
H572 C598 0.950 . S
H573 C600 0.950 . S
H574 C603 0.950 . S
H575 C604 0.950 . S
H576 C606 0.950 . S
H577 C607 0.950 . S
C578 H560 0.951 . S
C578 C579 1.366 . S
C578 C580 1.388 . S
C579 C578 1.366 . S
C579 C583 1.385 . S
C580 H561 0.951 1_655 S
C580 C578 1.388 . S
C580 C581 1.366 . S
C581 C580 1.366 . S
C581 C582 1.414 . S
C581 C584 1.499 . S
C582 H562 0.950 . S
C582 C581 1.414 . S
C582 C583 1.374 . S
C583 H563 0.950 . S
C583 C579 1.385 . S
C583 C582 1.374 . S
C584 C581 1.499 . S
C584 C585 1.373 . S
C584 C586 1.389 1_655 S
C585 H564 0.950 . S
C585 C584 1.373 . S
C585 C601 1.377 . S
C586 C584 1.389 1_455 S
C586 C587 1.524 . S
C586 C600 1.377 . S
C587 C586 1.524 . S
C587 C588 1.397 . S
C587 C592 1.363 . S
C588 H565 0.950 1_455 S
C588 C587 1.397 . S
C588 C589 1.334 . S
C589 H566 0.950 1_455 S
C589 C588 1.334 . S
C589 C590 1.287 . S
C590 C589 1.287 . S
C590 C591 1.524 . S
C590 H609 0.913 . S
C591 H567 0.950 . S
C591 C590 1.524 . S
C591 C592 1.415 . S
C592 H568 0.950 . S
C592 C587 1.363 . S
C592 C591 1.415 . S
C593 H569 0.951 . S
C593 C594 1.366 . S
C593 C595 1.388 . S
C594 C593 1.366 . S
C594 C598 1.385 . S
C595 H570 0.951 . S
C595 C593 1.388 . S
C595 C596 1.366 . S
C596 C595 1.366 . S
C596 C597 1.414 . S
C596 C599 1.499 . S
C597 H571 0.950 . S
C597 C596 1.414 . S
C597 C598 1.374 . S
C598 H572 0.950 . S
C598 C594 1.385 . S
C598 C597 1.374 . S
C599 C596 1.499 . S
C599 C600 1.373 . S
C599 C601 1.389 1_455 S
C600 H573 0.950 . S
C600 C586 1.377 . S
C600 C599 1.373 . S
C601 C585 1.377 . S
C601 C599 1.389 1_655 S
C601 C602 1.524 . S
C602 C601 1.524 . S
C602 C603 1.397 1_655 S
C602 C607 1.363 . S
C603 H574 0.950 . S
C603 C602 1.397 1_455 S
C603 C604 1.334 . S
C604 H575 0.950 . S
C604 C603 1.334 . S
C604 C605 1.287 1_455 S
C605 C604 1.287 1_655 S
C605 C606 1.524 . S
C605 H608 0.999 . S
C606 H576 0.950 . S
C606 C605 1.524 . S
C606 C607 1.415 . S
C607 H577 0.950 . S
C607 C602 1.363 . S
C607 C606 1.415 . S
H608 C605 0.999 . S
H609 C590 0.913 . S
H610 C628 0.951 1_455 S
H611 C630 0.951 . S
H612 C632 0.950 . S
H613 C633 0.950 . S
H614 C635 0.950 . S
H615 C638 0.950 . S
H616 C639 0.950 . S
H617 C641 0.950 . S
H618 C642 0.950 . S
H619 C643 0.951 . S
H620 C645 0.947 1_655 S
H621 C647 0.950 . S
H622 C648 0.950 . S
H623 C650 0.950 . S
H624 C653 0.950 1_455 S
H625 C654 0.950 . S
H626 C656 0.950 . S
H627 C657 0.950 . S
C628 H610 0.951 1_655 S
C628 C629 1.366 . S
C628 C630 1.388 1_655 S
C629 C628 1.366 . S
C629 C633 1.385 . S
C630 H611 0.951 . S
C630 C628 1.388 1_455 S
C630 C631 1.366 1_455 S
C631 C630 1.366 1_655 S
C631 C632 1.414 . S
C631 C634 1.499 . S
C632 H612 0.950 . S
C632 C631 1.414 . S
C632 C633 1.374 . S
C633 H613 0.950 . S
C633 C629 1.385 . S
C633 C632 1.374 . S
C634 C631 1.499 . S
C634 C635 1.373 . S
C634 C636 1.389 1_655 S
C635 H614 0.950 . S
C635 C634 1.373 . S
C635 C651 1.377 . S
C636 C634 1.389 1_455 S
C636 C637 1.524 . S
C636 C650 1.377 . S
C637 C636 1.524 . S
C637 C638 1.397 . S
C637 C642 1.363 . S
C638 H615 0.950 . S
C638 C637 1.397 . S
C638 C639 1.334 . S
C639 H616 0.950 . S
C639 C638 1.334 . S
C639 C640 1.287 . S
C640 C639 1.287 . S
C640 C641 1.524 . S
C640 H659 0.913 . S
C641 H617 0.950 . S
C641 C640 1.524 . S
C641 C642 1.415 . S
C642 H618 0.950 . S
C642 C637 1.363 . S
C642 C641 1.415 . S
C643 H619 0.951 . S
C643 C644 1.366 . S
C643 C645 1.388 . S
C644 C643 1.366 . S
C644 C648 1.385 . S
C645 H620 0.947 1_455 S
C645 C643 1.388 . S
C645 C646 1.366 . S
C646 C645 1.366 . S
C646 C647 1.414 . S
C646 C649 1.499 . S
C647 H621 0.950 . S
C647 C646 1.414 . S
C647 C648 1.374 . S
C648 H622 0.950 . S
C648 C644 1.385 . S
C648 C647 1.374 . S
C649 C646 1.499 . S
C649 C650 1.373 . S
C649 C651 1.389 1_455 S
C650 H623 0.950 . S
C650 C636 1.377 . S
C650 C649 1.373 . S
C651 C635 1.377 . S
C651 C649 1.389 1_655 S
C651 C652 1.524 . S
C652 C651 1.524 . S
C652 C653 1.397 . S
C652 C657 1.363 . S
C653 H624 0.950 1_655 S
C653 C652 1.397 . S
C653 C654 1.334 . S
C654 H625 0.950 . S
C654 C653 1.334 . S
C654 C655 1.287 . S
C655 C654 1.287 . S
C655 C656 1.524 . S
C655 H658 0.999 . S
C656 H626 0.950 . S
C656 C655 1.524 . S
C656 C657 1.415 . S
C657 H627 0.950 . S
C657 C652 1.363 . S
C657 C656 1.415 . S
H658 C655 0.999 . S
H659 C640 0.913 . S
H660 C678 0.951 . S
H661 C680 0.951 . S
H662 C682 0.950 . S
H663 C683 0.950 . S
H664 C685 0.950 . S
H665 C688 0.950 . S
H666 C689 0.950 . S
H667 C691 0.950 . S
H668 C692 0.950 . S
H669 C693 0.951 . S
H670 C695 0.951 . S
H671 C697 0.950 1_655 S
H672 C698 0.950 . S
H673 C700 0.950 . S
H674 C703 0.950 1_655 S
H675 C704 0.950 . S
H676 C706 0.950 . S
H677 C707 0.950 . S
C678 H660 0.951 . S
C678 C679 1.366 . S
C678 C680 1.388 . S
C679 C678 1.366 . S
C679 C683 1.385 . S
C680 H661 0.951 . S
C680 C678 1.388 . S
C680 C681 1.366 . S
C681 C680 1.366 . S
C681 C682 1.414 . S
C681 C684 1.499 . S
C682 H662 0.950 . S
C682 C681 1.414 . S
C682 C683 1.374 . S
C683 H663 0.950 . S
C683 C679 1.385 . S
C683 C682 1.374 . S
C684 C681 1.499 . S
C684 C685 1.373 . S
C684 C686 1.389 . S
C685 H664 0.950 . S
C685 C684 1.373 . S
C685 C701 1.377 1_655 S
C686 C684 1.389 . S
C686 C687 1.524 . S
C686 C700 1.377 . S
C687 C686 1.524 . S
C687 C688 1.397 . S
C687 C692 1.363 . S
C688 H665 0.950 . S
C688 C687 1.397 . S
C688 C689 1.334 . S
C689 H666 0.950 . S
C689 C688 1.334 . S
C689 C690 1.287 . S
C690 C689 1.287 . S
C690 C691 1.524 . S
C690 H709 0.913 . S
C691 H667 0.950 . S
C691 C690 1.524 . S
C691 C692 1.415 . S
C692 H668 0.950 . S
C692 C687 1.363 . S
C692 C691 1.415 . S
C693 H669 0.951 . S
C693 C694 1.366 . S
C693 C695 1.388 . S
C694 C693 1.366 . S
C694 C698 1.385 . S
C695 H670 0.951 . S
C695 C693 1.388 . S
C695 C696 1.366 . S
C696 C695 1.366 . S
C696 C697 1.414 . S
C696 C699 1.499 . S
C697 H671 0.950 1_455 S
C697 C696 1.414 . S
C697 C698 1.374 . S
C698 H672 0.950 . S
C698 C694 1.385 . S
C698 C697 1.374 . S
C699 C696 1.499 . S
C699 C700 1.373 1_455 S
C699 C701 1.389 . S
C700 H673 0.950 . S
C700 C686 1.377 . S
C700 C699 1.373 1_655 S
C701 C685 1.377 1_455 S
C701 C699 1.389 . S
C701 C702 1.524 . S
C702 C701 1.524 . S
C702 C703 1.397 . S
C702 C707 1.363 . S
C703 H674 0.950 1_455 S
C703 C702 1.397 . S
C703 C704 1.334 . S
C704 H675 0.950 . S
C704 C703 1.334 . S
C704 C705 1.287 . S
C705 C704 1.287 . S
C705 C706 1.524 . S
C705 H708 0.999 . S
C706 H676 0.950 . S
C706 C705 1.524 . S
C706 C707 1.415 . S
C707 H677 0.950 . S
C707 C702 1.363 . S
C707 C706 1.415 . S
H708 C705 0.999 . S
H709 C690 0.913 . S
H710 C728 0.951 1_655 S
H711 C730 0.951 . S
H712 C732 0.950 . S
H713 C733 0.950 . S
H714 C735 0.950 . S
H715 C738 0.950 1_455 S
H716 C739 0.950 . S
H717 C741 0.950 . S
H718 C742 0.950 . S
H719 C743 0.951 . S
H720 C745 0.951 1_455 S
H721 C747 0.950 . S
H722 C748 0.950 . S
H723 C750 0.950 . S
H724 C753 0.950 . S
H725 C754 0.950 1_655 S
H726 C756 0.950 . S
H727 C757 0.950 . S
C728 H710 0.951 1_455 S
C728 C729 1.366 . S
C728 C730 1.388 1_455 S
C729 C728 1.366 . S
C729 C733 1.385 . S
C730 H711 0.951 . S
C730 C728 1.388 1_655 S
C730 C731 1.366 1_655 S
C731 C730 1.366 1_455 S
C731 C732 1.414 . S
C731 C734 1.499 . S
C732 H712 0.950 . S
C732 C731 1.414 . S
C732 C733 1.374 . S
C733 H713 0.950 . S
C733 C729 1.385 . S
C733 C732 1.374 . S
C734 C731 1.499 . S
C734 C735 1.373 . S
C734 C736 1.389 1_455 S
C735 H714 0.950 . S
C735 C734 1.373 . S
C735 C751 1.379 . S
C736 C734 1.389 1_655 S
C736 C737 1.524 . S
C736 C750 1.377 . S
C737 C736 1.524 . S
C737 C738 1.397 . S
C737 C742 1.363 . S
C738 H715 0.950 1_655 S
C738 C737 1.397 . S
C738 C739 1.334 . S
C739 H716 0.950 . S
C739 C738 1.334 . S
C739 C740 1.287 . S
C740 C739 1.287 . S
C740 C741 1.524 . S
C740 H759 0.913 . S
C741 H717 0.950 . S
C741 C740 1.524 . S
C741 C742 1.415 . S
C742 H718 0.950 . S
C742 C737 1.363 . S
C742 C741 1.415 . S
C743 H719 0.951 . S
C743 C744 1.366 . S
C743 C745 1.388 . S
C744 C743 1.366 . S
C744 C748 1.385 . S
C745 H720 0.951 1_655 S
C745 C743 1.388 . S
C745 C746 1.366 . S
C746 C745 1.366 . S
C746 C747 1.414 . S
C746 C749 1.499 . S
C747 H721 0.950 . S
C747 C746 1.414 . S
C747 C748 1.374 . S
C748 H722 0.950 . S
C748 C744 1.385 . S
C748 C747 1.374 . S
C749 C746 1.499 . S
C749 C750 1.373 . S
C749 C751 1.388 1_655 S
C750 H723 0.950 . S
C750 C736 1.377 . S
C750 C749 1.373 . S
C751 C735 1.379 . S
C751 C749 1.388 1_455 S
C751 C752 1.524 . S
C752 C751 1.524 . S
C752 C753 1.397 1_455 S
C752 C757 1.363 . S
C753 H724 0.950 . S
C753 C752 1.397 1_655 S
C753 C754 1.334 1_655 S
C754 H725 0.950 1_455 S
C754 C753 1.334 1_455 S
C754 C755 1.287 . S
C755 C754 1.287 . S
C755 C756 1.524 . S
C755 H758 0.999 . S
C756 H726 0.950 . S
C756 C755 1.524 . S
C756 C757 1.415 . S
C757 H727 0.950 . S
C757 C752 1.363 . S
C757 C756 1.415 . S
H758 C755 0.999 . S
H759 C740 0.913 . S
C179 C55 1.501 . S
C194 C6 1.501 . S
C229 C89 1.948 . S
C244 C138 1.948 . S
C279 C15 1.502 . S
C294 C46 1.502 . S
C329 C129 1.947 . S
C344 C98 1.947 . S
C379 C130 0.934 . S
C394 C9 0.906 . S
C429 C59 1.555 . S
C444 C86 1.549 . S
C479 C58 0.906 . S
C494 C99 0.934 . S
C529 C135 1.549 . S
C544 C10 1.555 . S
C579 C49 0.905 . S
C594 C90 0.934 . S
C629 C126 1.550 . S
C644 C19 1.555 . S
C679 C139 0.935 . S
C694 C18 0.907 . S
C729 C95 1.549 . S
C744 C50 1.555 . S
