# Generated by pormake.
# Topology snk, (6)-cn, num edge types: 1
# Building blocks:
#     Node 0, Type 0, BuildingBlock: JUFBIX_clean_sbu_0, # of connection points: 6
#     Node 1, Type 0, BuildingBlock: JUFBIX_clean_sbu_0, # of connection points: 6
#     Node 2, Type 0, BuildingBlock: JUFBIX_clean_sbu_0, # of connection points: 6
#     Node 3, Type 0, BuildingBlock: JUFBIX_clean_sbu_0, # of connection points: 6
#     Node 4, Type 0, BuildingBlock: JUFBIX_clean_sbu_0, # of connection points: 6
#     Node 5, Type 0, BuildingBlock: JUFBIX_clean_sbu_0, # of connection points: 6
#     Node 6, Type 0, BuildingBlock: JUFBIX_clean_sbu_0, # of connection points: 6
#     Node 7, Type 0, BuildingBlock: JUFBIX_clean_sbu_0, # of connection points: 6
#     Edge 8, Type (0, 0), BuildingBlock: XIVTED_clean_linker_0, # of connection points: 2
#     Edge 9, Type (0, 0), BuildingBlock: XIVTED_clean_linker_0, # of connection points: 2
#     Edge 10, Type (0, 0), BuildingBlock: XIVTED_clean_linker_0, # of connection points: 2
#     Edge 11, Type (0, 0), BuildingBlock: XIVTED_clean_linker_0, # of connection points: 2
#     Edge 12, Type (0, 0), BuildingBlock: XIVTED_clean_linker_0, # of connection points: 2
#     Edge 13, Type (0, 0), BuildingBlock: XIVTED_clean_linker_0, # of connection points: 2
#     Edge 14, Type (0, 0), BuildingBlock: XIVTED_clean_linker_0, # of connection points: 2
#     Edge 15, Type (0, 0), BuildingBlock: XIVTED_clean_linker_0, # of connection points: 2
#     Edge 16, Type (0, 0), BuildingBlock: XIVTED_clean_linker_0, # of connection points: 2
#     Edge 17, Type (0, 0), BuildingBlock: XIVTED_clean_linker_0, # of connection points: 2
#     Edge 18, Type (0, 0), BuildingBlock: XIVTED_clean_linker_0, # of connection points: 2
#     Edge 19, Type (0, 0), BuildingBlock: XIVTED_clean_linker_0, # of connection points: 2
#     Edge 20, Type (0, 0), BuildingBlock: XIVTED_clean_linker_0, # of connection points: 2
#     Edge 21, Type (0, 0), BuildingBlock: XIVTED_clean_linker_0, # of connection points: 2
#     Edge 22, Type (0, 0), BuildingBlock: XIVTED_clean_linker_0, # of connection points: 2
#     Edge 23, Type (0, 0), BuildingBlock: XIVTED_clean_linker_0, # of connection points: 2
#     Edge 24, Type (0, 0), BuildingBlock: XIVTED_clean_linker_0, # of connection points: 2
#     Edge 25, Type (0, 0), BuildingBlock: XIVTED_clean_linker_0, # of connection points: 2
#     Edge 26, Type (0, 0), BuildingBlock: XIVTED_clean_linker_0, # of connection points: 2
#     Edge 27, Type (0, 0), BuildingBlock: XIVTED_clean_linker_0, # of connection points: 2
#     Edge 28, Type (0, 0), BuildingBlock: XIVTED_clean_linker_0, # of connection points: 2
#     Edge 29, Type (0, 0), BuildingBlock: XIVTED_clean_linker_0, # of connection points: 2
#     Edge 30, Type (0, 0), BuildingBlock: XIVTED_clean_linker_0, # of connection points: 2
#     Edge 31, Type (0, 0), BuildingBlock: XIVTED_clean_linker_0, # of connection points: 2
# Relax obj value: 0.128
# Max RMSD: 0.108
# Mean RMSD: 0.069
data_MOF--net-snk--node1-JUFBIX_clean_sbu_0--edge1-XIVTED_clean_linker_0
_symmetry_space_group_name_H-M    P1
_symmetry_Int_Tables_number       1
_symmetry_cell_setting            triclinic
loop_
_symmetry_equiv_pos_as_xyz
'x, y, z'
_cell_length_a     47.426716
_cell_length_b     47.301074
_cell_length_c     15.157824
_cell_angle_alpha  98.938416
_cell_angle_beta   98.944821
_cell_angle_gamma 92.802798
loop_
_atom_site_label
_atom_site_type_symbol
_atom_site_fract_x
_atom_site_fract_y
_atom_site_fract_z
_atom_type_partial_charge
Co0 Co 1.0164 1.01413 0.46348 0.0
C1 C 0.98859 0.06315 0.46434 0.0
Co2 Co 0.04726 0.05148 0.50009 0.0
C3 C 0.99908 0.95855 0.48295 0.0
C4 C 0.971 0.97121 0.37373 0.0
N5 N 0.99387 0.98056 0.43808 0.0
N6 N 0.98041 0.93567 0.45043 0.0
C7 C 0.96254 0.9435 0.38145 0.0
H8 H 1.01644 0.9595 0.53895 0.0
H9 H 0.9611 0.98374 0.32511 0.0
C10 C 0.07509 1.00246 0.49965 0.0
N11 N 0.06972 0.08514 0.5249 0.0
C12 C 0.06429 0.10684 0.47882 0.0
C13 C 0.09301 0.09464 0.58737 0.0
N14 N 0.0833 0.12961 0.50834 0.0
C15 C 0.10155 0.12209 0.57703 0.0
C16 C 1.02997 0.03495 0.6501 0.0
O17 O 0.04931 0.99222 0.47617 0.0
O18 O 0.0802 1.02957 0.51373 0.0
O19 O 0.0459 0.05337 0.62474 0.0
O20 O 1.01488 1.016 0.59044 0.0
O21 O 1.01437 0.07333 0.48771 0.0
H22 H 0.10331 0.08229 0.63588 0.0
H23 H 0.0467 0.10564 0.42339 0.0
O24 O 0.98344 0.03605 0.44981 0.0
O25 O 1.0178 1.01222 0.33882 0.0
O26 O 0.04876 0.04959 0.37307 0.0
C27 C 0.03371 1.03063 0.31341 0.0
H28 H 0.94407 0.93064 0.34163 0.0
H29 H 0.12044 0.13487 0.61432 0.0
Co30 Co 0.29526 0.76444 0.73151 0.0
C31 C 0.23437 0.74238 0.68839 0.0
Co32 Co 0.2646 0.79847 0.73127 0.0
C33 C 0.33761 0.72235 0.77957 0.0
C34 C 0.31495 0.71357 0.64358 0.0
N35 N 0.31848 0.73331 0.71982 0.0
N36 N 0.34566 0.69654 0.74296 0.0
C37 C 0.33152 0.69127 0.65737 0.0
H38 H 0.34425 0.73224 0.84959 0.0
H39 H 0.30009 0.7145 0.58248 0.0
C40 C 0.32543 0.82062 0.77497 0.0
N41 N 0.24121 0.82942 0.74177 0.0
C42 C 0.22243 0.83989 0.67989 0.0
C43 C 0.24388 0.84937 0.81724 0.0
N44 N 0.21373 0.86563 0.71421 0.0
C45 C 0.22712 0.87138 0.80074 0.0
C46 C 0.28038 0.77944 0.89869 0.0
O47 O 0.32957 0.79367 0.76434 0.0
O48 O 0.29921 0.82697 0.76368 0.0
O49 O 0.26542 0.7962 0.85631 0.0
O50 O 0.29578 0.76272 0.85629 0.0
O51 O 0.23037 0.76934 0.69886 0.0
H52 H 0.25823 0.84875 0.87964 0.0
H53 H 0.21648 0.82967 0.60994 0.0
O54 O 0.26055 0.73591 0.69915 0.0
O55 O 0.2945 0.76681 0.60654 0.0
O56 O 0.26406 0.80013 0.60641 0.0
C57 C 0.27951 0.78349 0.56406 0.0
H58 H 0.33256 0.6722 0.60852 0.0
H59 H 0.22541 0.89052 0.84846 0.0
Co60 Co 0.54779 1.01526 -0.01356 0.0
C61 C 0.57023 0.07596 0.02958 0.0
Co62 Co 0.514 0.0461 -0.01289 0.0
C63 C 0.58913 0.973 0.93309 0.0
C64 C 0.59837 0.99404 0.07101 0.0
N65 N 0.57853 0.99154 -0.00459 0.0
N66 N 0.61483 0.96432 0.96743 0.0
C67 C 0.62041 0.97744 0.05425 0.0
H68 H 0.57911 0.96731 0.8629 0.0
H69 H 0.59773 1.00826 0.1337 0.0
C70 C 0.49148 0.98535 0.94333 0.0
N71 N 0.48371 0.07017 0.97962 0.0
C72 C 0.47515 0.09014 0.04252 0.0
C73 C 0.46275 0.06761 0.90702 0.0
N74 N 0.44954 0.09969 0.01176 0.0
C75 C 0.44191 0.0856 0.92639 0.0
C76 C 0.53231 1.03056 0.81931 0.0
O77 O 0.51835 0.98121 0.95364 0.0
O78 O 0.48513 1.01164 0.95487 0.0
O79 O 0.51563 0.04559 0.86179 0.0
O80 O 0.54902 1.01512 0.86163 0.0
O81 O 0.54338 0.08008 0.01924 0.0
H82 H 0.46199 0.05265 0.84486 0.0
H83 H 0.48665 0.09641 0.11087 0.0
O84 O 0.57658 0.04969 0.01881 0.0
O85 O 0.5459 1.01569 0.11164 0.0
O86 O 0.51283 0.04638 0.11201 0.0
C87 C 0.52936 1.03082 0.15425 0.0
H88 H 0.63954 0.97572 0.10188 0.0
H89 H 0.42227 0.08769 0.88158 0.0
Co90 Co 0.3076 0.30081 0.30286 0.0
C91 C 0.25554 0.32483 0.29998 0.0
Co92 Co 0.27173 0.26833 0.26352 0.0
C93 C 0.36223 0.3273 0.30322 0.0
C94 C 0.3427 0.34908 0.40983 0.0
N95 N 0.33865 0.32653 0.34164 0.0
N96 N 0.38072 0.34978 0.34284 0.0
C97 C 0.36851 0.36373 0.40988 0.0
H98 H 0.36464 0.31309 0.24194 0.0
H99 H 0.32723 0.35528 0.45335 0.0
C100 C 0.32337 0.24413 0.26354 0.0
N101 N 0.24028 0.24301 0.225 0.0
C102 C 0.21614 0.24462 0.26077 0.0
C103 C 0.2335 0.22396 0.14767 0.0
N104 N 0.19411 0.22797 0.20816 0.0
C105 C 0.20506 0.21457 0.13718 0.0
C106 C 0.28977 0.28959 0.11761 0.0
O107 O 0.33274 0.27025 0.28903 0.0
O108 O 0.29649 0.23794 0.25008 0.0
O109 O 0.27208 0.27253 0.1415 0.0
O110 O 0.3079 0.30522 0.17857 0.0
O111 O 0.2468 0.29863 0.27556 0.0
H112 H 0.24787 0.2184 0.09986 0.0
H113 H 0.21482 0.25847 0.32355 0.0
O114 O 0.28237 0.33141 0.31621 0.0
O115 O 0.30746 0.29656 0.42474 0.0
O116 O 0.27135 0.26415 0.38792 0.0
C117 C 0.28963 0.27968 0.44876 0.0
H118 H 0.37663 0.38414 0.45111 0.0
H119 H 0.19337 0.19961 0.08059 0.0
Co120 Co 0.7959 0.2641 0.23069 0.0
C121 C 0.73545 0.24106 0.1873 0.0
Co122 Co 0.76472 0.29759 0.2296 0.0
C123 C 0.8383 0.22301 0.28473 0.0
C124 C 0.8174 0.2135 0.14675 0.0
N125 N 0.81975 0.23345 0.22215 0.0
N126 N 0.84715 0.1973 0.25077 0.0
C127 C 0.83412 0.19155 0.16391 0.0
H128 H 0.84391 0.23316 0.35484 0.0
H129 H 0.80322 0.214 0.08394 0.0
C130 C 0.82527 0.32066 0.27367 0.0
N131 N 0.74051 0.32781 0.23656 0.0
C132 C 0.72045 0.33611 0.17345 0.0
C133 C 0.74295 0.34896 0.30873 0.0
N134 N 0.71072 0.36173 0.20363 0.0
C135 C 0.72479 0.36964 0.2889 0.0
C136 C 0.78039 0.27948 0.39762 0.0
O137 O 0.82969 0.29378 0.26356 0.0
O138 O 0.79895 0.32673 0.26187 0.0
O139 O 0.7652 0.29603 0.35495 0.0
O140 O 0.79599 0.26292 0.3555 0.0
O141 O 0.73099 0.2679 0.19745 0.0
H142 H 0.7579 0.34993 0.37095 0.0
H143 H 0.71421 0.32437 0.10536 0.0
O144 O 0.76175 0.23505 0.19827 0.0
O145 O 0.79552 0.26595 0.10548 0.0
O146 O 0.76448 0.2987 0.10468 0.0
C147 C 0.78022 0.28233 0.06266 0.0
H148 H 0.83598 0.17237 0.11649 0.0
H149 H 0.72253 0.38934 0.33341 0.0
Co150 Co 0.79991 0.79685 0.75874 0.0
C151 C 0.75058 0.82401 0.75768 0.0
Co152 Co 0.76309 0.76543 0.72219 0.0
C153 C 0.85525 0.81486 0.74052 0.0
C154 C 0.84215 0.84284 0.84918 0.0
N155 N 0.83313 0.81986 0.78476 0.0
N156 N 0.8779 0.83375 0.77358 0.0
C157 C 0.86979 0.85157 0.84219 0.0
H158 H 0.85456 0.79745 0.68469 0.0
H159 H 0.82946 0.8526 0.89748 0.0
C160 C 0.81234 0.73821 0.72278 0.0
N161 N 0.72985 0.74251 0.69639 0.0
C162 C 0.70801 0.74729 0.74201 0.0
C163 C 0.72043 0.71999 0.63056 0.0
N164 N 0.68517 0.72873 0.7084 0.0
C165 C 0.69281 0.71133 0.63804 0.0
C166 C 0.77943 0.78318 0.57224 0.0
O167 O 0.82223 0.76416 0.7464 0.0
O168 O 0.78535 0.73275 0.70846 0.0
O169 O 0.76126 0.76701 0.59764 0.0
O170 O 0.79819 0.7985 0.63191 0.0
O171 O 0.74078 0.79803 0.73466 0.0
H172 H 0.73279 0.71054 0.58082 0.0
H173 H 0.70893 0.76436 0.79904 0.0
O174 O 0.77756 0.82956 0.77204 0.0
O175 O 0.8017 0.79536 0.88332 0.0
O176 O 0.7649 0.76372 0.84903 0.0
C177 C 0.78359 0.7791 0.90871 0.0
H178 H 0.88242 0.87014 0.88237 0.0
H179 H 0.67983 0.69312 0.59696 0.0
Co180 Co 0.50965 0.50316 0.91561 0.0
C181 C 0.48419 0.55444 0.9168 0.0
Co182 Co 0.54124 0.53984 0.95264 0.0
C183 C 0.48403 0.44863 0.92337 0.0
C184 C 0.46275 0.46589 0.81081 0.0
N185 N 0.48472 0.47135 0.8806 0.0
N186 N 0.46211 0.42934 0.88482 0.0
C187 C 0.44853 0.44009 0.81389 0.0
H188 H 0.49791 0.44742 -0.01364 0.0
H189 H 0.45665 0.48037 0.76368 0.0
C190 C 0.5668 0.48888 0.95442 0.0
N191 N 0.56567 0.57208 -0.01395 0.0
C192 C 0.56221 0.5958 0.94841 0.0
C193 C 0.58718 0.5794 0.05646 0.0
N194 N 0.5804 0.61805 -0.00759 0.0
C195 C 0.59643 0.6077 0.06032 0.0
C196 C 0.52161 0.52247 0.10086 0.0
O197 O 0.54087 0.47889 0.93061 0.0
O198 O 0.57237 0.51591 0.96583 0.0
O199 O 0.53825 0.54028 0.0757 0.0
O200 O 0.50605 0.5039 0.04095 0.0
O201 O 0.51015 0.56382 0.94102 0.0
H202 H 0.59511 0.56532 0.103 0.0
H203 H 0.546 0.59661 0.89057 0.0
O204 O 0.4783 0.52744 0.90098 0.0
O205 O 0.5132 0.50235 0.7928 0.0
O206 O 0.54434 0.53954 0.82723 0.0
C207 C 0.52931 0.52058 0.76747 0.0
H208 H 0.42866 0.43096 0.77154 0.0
H209 H 0.61379 0.61947 0.10892 0.0
Co210 Co 0.04731 0.51551 0.48616 0.0
C211 C 0.06961 0.57645 0.52942 0.0
Co212 Co 1.01351 0.5464 0.48649 0.0
C213 C 0.08927 0.47295 0.43837 0.0
C214 C 0.09792 0.49566 0.5744 0.0
N215 N 0.07828 0.49211 0.49802 0.0
N216 N 0.11498 0.4649 0.47519 0.0
C217 C 0.12019 0.47908 0.56077 0.0
H218 H 0.0795 0.46634 0.36823 0.0
H219 H 0.09698 0.51058 0.63542 0.0
C220 C 0.99125 0.48542 0.44264 0.0
N221 N 0.98272 0.56997 0.47582 0.0
C222 C 0.97218 0.58874 0.53765 0.0
C223 C 0.96293 0.56735 0.40011 0.0
N224 N 0.94654 0.59746 0.50304 0.0
C225 C 0.94094 0.58412 0.41642 0.0
C226 C 0.03249 0.53048 0.31905 0.0
O227 O 1.01813 0.48128 0.45332 0.0
O228 O 0.98491 0.51171 0.45394 0.0
O229 O 1.01584 0.54555 0.36148 0.0
O230 O 0.04909 0.51495 0.36139 0.0
O231 O 0.04276 0.58069 0.51903 0.0
H232 H 0.9636 0.553 0.33771 0.0
H233 H 0.98223 0.59461 0.60777 0.0
O234 O 0.07582 0.55014 0.51853 0.0
O235 O 0.04488 0.5163 0.6111 0.0
O236 O 1.01179 0.54698 0.61134 0.0
C237 C 1.02831 0.5314 0.65362 0.0
H238 H 0.13924 0.4781 0.60958 0.0
H239 H 0.92186 0.58583 0.36857 0.0
H240 H 0.11268 0.18109 0.57782 0.0
H241 H 0.15276 0.18569 0.12873 0.0
H242 H 0.06033 0.13428 0.33516 0.0
H243 H 0.16921 0.26186 0.33307 0.0
H244 H 0.11147 0.17217 0.19286 0.0
H245 H 0.12696 0.21659 0.48919 0.0
C246 C 0.10375 0.17853 0.50662 0.0
C247 C 0.0863 0.15397 0.46351 0.0
C248 C 0.12375 0.19222 0.22255 0.0
C249 C 0.1023 0.19438 0.36212 0.0
C250 C 0.14755 0.19992 0.18594 0.0
C251 C 0.16576 0.22397 0.22903 0.0
C252 C 0.11875 0.20823 0.30401 0.0
C253 C 0.15708 0.24199 0.30134 0.0
C254 C 0.11157 0.199 0.45622 0.0
C255 C 0.07441 0.15235 0.37165 0.0
N256 N 0.13476 0.2332 0.33886 0.0
N257 N 0.08328 0.17184 0.32347 0.0
H258 H 0.13139 1.01581 0.57996 0.0
H259 H 0.16705 0.85123 0.58203 0.0
H260 H 0.07101 0.94377 0.45974 0.0
H261 H 0.21953 0.9237 0.74287 0.0
H262 H 0.13461 0.88461 0.51744 0.0
H263 H 0.16698 0.98218 0.62119 0.0
C264 C 0.12571 0.99296 0.5612 0.0
C265 C 0.09808 0.98269 0.51667 0.0
C266 C 0.15334 0.89317 0.56652 0.0
C267 C 0.13872 0.94396 0.56408 0.0
C268 C 0.1719 0.87412 0.6029 0.0
C269 C 0.19581 0.88466 0.66878 0.0
C270 C 0.15895 0.92298 0.59547 0.0
C271 C 0.20105 0.91459 0.69367 0.0
C272 C 0.146 0.97374 0.58512 0.0
C273 C 0.09197 0.95275 0.49443 0.0
N274 N 0.1828 0.93261 0.65734 0.0
N275 N 0.11202 0.93451 0.51863 0.0
H276 H 0.3233 0.88032 0.8041 0.0
H277 H 0.49551 0.92525 0.91369 0.0
H278 H 0.38576 0.81735 0.80445 0.0
H279 H 0.4316 0.98673 0.91448 0.0
H280 H 0.45692 0.88611 0.87422 0.0
H281 H 0.36235 0.9186 0.84345 0.0
C282 C 0.34515 0.87424 0.81224 0.0
C283 C 0.3504 0.84473 0.80006 0.0
C284 C 0.45118 0.90812 0.88294 0.0
C285 C 0.39679 0.89005 0.8467 0.0
C286 C 0.47349 0.93081 0.90577 0.0
C287 C 0.46759 0.96016 0.91829 0.0
C288 C 0.42195 0.91405 0.87166 0.0
C289 C 0.43797 0.96495 0.90622 0.0
C290 C 0.36775 0.89648 0.83507 0.0
C291 C 0.37988 0.83931 0.8125 0.0
N292 N 0.41682 0.94261 0.88408 0.0
N293 N 0.40147 0.86133 0.83464 0.0
H294 H 0.39196 0.09509 -0.00286 0.0
H295 H 0.38225 0.24963 0.28527 0.0
H296 H 0.46718 0.1478 0.13669 0.0
H297 H 0.31003 0.18744 0.19006 0.0
H298 H 0.41403 0.21334 0.23429 0.0
H299 H 0.36204 0.1291 0.06873 0.0
C300 C 0.40219 0.1139 0.04307 0.0
C301 C 0.43213 0.11875 0.06023 0.0
C302 C 0.39127 0.20757 0.22548 0.0
C303 C 0.39781 0.15811 0.14301 0.0
C304 C 0.37307 0.22828 0.25464 0.0
C305 C 0.34332 0.22166 0.24188 0.0
C306 C 0.37966 0.18008 0.18237 0.0
C307 C 0.33275 0.19362 0.20145 0.0
C308 C 0.38507 0.13328 0.08443 0.0
C309 C 0.4442 0.14325 0.12176 0.0
N310 N 0.35082 0.17404 0.17259 0.0
N311 N 0.42699 0.16221 0.16019 0.0
H312 H 0.95209 0.88423 0.37345 0.0
H313 H 0.9288 0.86286 0.85162 0.0
H314 H 1.00304 0.92888 0.62189 0.0
H315 H 0.88564 0.8105 0.60349 0.0
H316 H 0.96668 0.87639 0.77116 0.0
H317 H 0.93852 0.84659 0.45514 0.0
C318 C 0.96074 0.88597 0.44463 0.0
C319 C 0.97762 0.91046 0.4914 0.0
C320 C 0.9492 0.86138 0.73493 0.0
C321 C 0.96225 0.86765 0.58538 0.0
C322 C 0.92741 0.8539 0.78079 0.0
C323 C 0.90326 0.83663 0.73366 0.0
C324 C 0.94638 0.85193 0.64109 0.0
C325 C 0.9033 0.82453 0.64282 0.0
C326 C 0.95324 0.86434 0.49123 0.0
C327 C 0.98934 0.91093 0.58281 0.0
N328 N 0.92413 0.83301 0.59899 0.0
N329 N 0.98082 0.89023 0.6273 0.0
H330 H 0.9929 0.12173 0.50703 0.0
H331 H 0.83994 0.13941 0.22524 0.0
H332 H 0.93215 0.05024 0.38426 0.0
H333 H 0.89467 0.21127 0.37995 0.0
H334 H 0.87256 0.10665 0.28861 0.0
H335 H 0.95679 0.15473 0.46751 0.0
C336 C 0.97185 0.1129 0.47251 0.0
C337 C 0.96564 0.08304 0.44867 0.0
C338 C 0.87744 0.12955 0.30951 0.0
C339 C 0.9241 0.121 0.40235 0.0
C340 C 0.85885 0.1483 0.273 0.0
C341 C 0.86478 0.17816 0.29654 0.0
C342 C 0.90249 0.14058 0.3696 0.0
C343 C 0.88931 0.18843 0.36009 0.0
C344 C 0.95121 0.13185 0.44999 0.0
C345 C 0.93794 0.07303 0.40408 0.0
N346 N 0.90747 0.16968 0.39358 0.0
N347 N 0.91833 0.09194 0.38167 0.0
H348 H 0.73803 0.1814 0.16004 0.0
H349 H 0.56601 0.13596 0.05711 0.0
H350 H 0.67521 0.24403 0.15933 0.0
H351 H 0.63007 0.07462 0.05726 0.0
H352 H 0.60449 0.17517 0.09403 0.0
H353 H 0.69914 0.14294 0.12325 0.0
C354 C 0.71614 0.18735 0.15229 0.0
C355 C 0.7107 0.21681 0.16355 0.0
C356 C 0.61028 0.15317 0.08609 0.0
C357 C 0.66456 0.17134 0.12006 0.0
C358 C 0.58805 0.13046 0.06476 0.0
C359 C 0.59404 0.10114 0.05332 0.0
C360 C 0.63952 0.1473 0.09684 0.0
C361 C 0.62366 0.09639 0.06484 0.0
C362 C 0.69364 0.16503 0.13099 0.0
C363 C 0.6812 0.22211 0.15185 0.0
N364 N 0.64475 0.11876 0.08549 0.0
N365 N 0.65972 0.20001 0.1312 0.0
H366 H 0.69213 0.8188 0.71542 0.0
H367 H 0.6725 0.97228 -0.00704 0.0
H368 H 0.76268 0.88082 0.83638 0.0
H369 H 0.60144 0.91635 0.83926 0.0
H370 H 0.7056 0.93988 0.93059 0.0
H371 H 0.65869 0.85459 0.75395 0.0
C372 C 0.70065 0.84006 0.74936 0.0
C373 C 0.73039 0.84672 0.77297 0.0
C374 C 0.68281 0.93469 0.90968 0.0
C375 C 0.69193 0.8879 0.81812 0.0
C376 C 0.66387 0.95316 0.9456 0.0
C377 C 0.63413 0.94683 0.92206 0.0
C378 C 0.6721 0.90936 0.85019 0.0
C379 C 0.62418 0.92202 0.85908 0.0
C380 C 0.68146 0.86051 0.7713 0.0
C381 C 0.74001 0.87467 0.81677 0.0
N382 N 0.64311 0.90399 0.82618 0.0
N383 N 0.72086 0.89409 0.83862 0.0
H384 H 0.6131 0.66564 0.08583 0.0
H385 H 0.63304 0.7033 0.62739 0.0
H386 H 0.55403 0.63533 0.83761 0.0
H387 H 0.67946 0.74794 0.88294 0.0
H388 H 0.59481 0.68921 0.70581 0.0
H389 H 0.62773 0.70669 0.0211 0.0
C390 C 0.60296 0.66757 0.01826 0.0
C391 C 0.58373 0.64572 0.96525 0.0
C392 C 0.61305 0.70275 0.74437 0.0
C393 C 0.60033 0.69277 0.8907 0.0
C394 C 0.635 0.7105 0.69958 0.0
C395 C 0.66001 0.72573 0.74899 0.0
C396 C 0.61663 0.70973 0.8393 0.0
C397 C 0.66094 0.73561 0.84187 0.0
C398 C 0.61111 0.69129 0.98151 0.0
C399 C 0.57007 0.65054 0.88012 0.0
N400 N 0.63991 0.72678 0.88439 0.0
N401 N 0.57928 0.6731 0.84447 0.0
H402 H 0.66344 0.34303 0.07691 0.0
H403 H 0.62323 0.50362 0.02701 0.0
H404 H 0.71371 0.41958 0.21899 0.0
H405 H 0.5627 0.42987 0.93439 0.0
H406 H 0.65938 0.47195 0.07752 0.0
H407 H 0.629 0.37332 0.00455 0.0
C408 C 0.66735 0.36615 0.09212 0.0
C409 C 0.6913 0.37879 0.15484 0.0
C410 C 0.63825 0.46263 0.04558 0.0
C411 C 0.65223 0.41353 0.07241 0.0
C412 C 0.61759 0.48073 0.01626 0.0
C413 C 0.58976 0.46949 0.97654 0.0
C414 C 0.63124 0.43293 0.03501 0.0
C415 C 0.58382 0.43956 0.96481 0.0
C416 C 0.64767 0.38343 0.05131 0.0
C417 C 0.6953 0.4089 0.17241 0.0
N418 N 0.60431 0.42235 -0.00583 0.0
N419 N 0.67605 0.42515 0.13166 0.0
H420 H 0.99522 0.42531 0.41348 0.0
H421 H 0.82296 0.38042 0.30213 0.0
H422 H 0.93139 0.48689 0.41307 0.0
H423 H 0.88552 0.31755 0.30393 0.0
H424 H 0.862 0.41876 0.34164 0.0
H425 H 0.95658 0.38622 0.37386 0.0
C426 C 0.97321 0.4309 0.40526 0.0
C427 C 0.96735 0.46026 0.41749 0.0
C428 C 0.86742 0.39664 0.33353 0.0
C429 C 0.92165 0.41422 0.37068 0.0
C430 C 0.84483 0.37438 0.31062 0.0
C431 C 0.85013 0.34488 0.2988 0.0
C432 C 0.89648 0.39023 0.34561 0.0
C433 C 0.87962 0.33949 0.31168 0.0
C434 C 0.95087 0.40824 0.38234 0.0
C435 C 0.93774 0.46509 0.40504 0.0
N436 N 0.90118 0.36153 0.33389 0.0
N437 N 0.91655 0.44279 0.38283 0.0
H438 H 0.87086 0.74295 0.76369 0.0
H439 H 0.88872 0.59067 0.4754 0.0
H440 H 0.79976 0.68174 0.64155 0.0
H441 H 0.96039 0.64482 0.63349 0.0
H442 H 0.85607 0.62318 0.53973 0.0
H443 H 0.90392 0.70711 0.72173 0.0
C444 C 0.86214 0.72186 0.72883 0.0
C445 C 0.83236 0.71544 0.70592 0.0
C446 C 0.87889 0.62796 0.56109 0.0
C447 C 0.87036 0.67424 0.65671 0.0
C448 C 0.8976 0.60945 0.52397 0.0
C449 C 0.92738 0.61522 0.54829 0.0
C450 C 0.8899 0.65279 0.62262 0.0
C451 C 0.93761 0.63957 0.61296 0.0
C452 C 0.88111 0.70138 0.7049 0.0
C453 C 0.82247 0.6877 0.66075 0.0
N454 N 0.91891 0.65766 0.64708 0.0
N455 N 0.84139 0.66827 0.63695 0.0
H456 H 0.4217 0.32191 0.26857 0.0
H457 H 0.40718 0.422 0.90624 0.0
H458 H 0.38472 0.40344 0.30697 0.0
H459 H 0.49093 0.39214 0.97587 0.0
H460 H 0.39141 0.4007 0.02863 0.0
H461 H 0.44399 0.33695 0.14523 0.0
C462 C 0.41926 0.34334 0.2531 0.0
C463 C 0.40143 0.36153 0.29711 0.0
C464 C 0.41308 0.39833 0.01559 0.0
C465 C 0.42518 0.37792 0.15569 0.0
C466 C 0.42188 0.40993 0.94495 0.0
C467 C 0.45043 0.40898 0.93221 0.0
C468 C 0.43287 0.38545 0.0724 0.0
C469 C 0.46881 0.3934 -0.01507 0.0
C470 C 0.43159 0.35168 0.18261 0.0
C471 C 0.39847 0.38895 0.27484 0.0
N472 N 0.45982 0.38241 0.0542 0.0
N473 N 0.40962 0.39608 0.20373 0.0
H474 H 0.42694 0.54304 0.84545 0.0
H475 H 0.39499 0.70935 0.86499 0.0
H476 H 0.4904 0.6131 0.95818 0.0
H477 H 0.33746 0.63872 0.71582 0.0
H478 H 0.42791 0.67464 0.91921 0.0
H479 H 0.39162 0.57799 0.81569 0.0
C480 C 0.4334 0.56573 0.86465 0.0
C481 C 0.46176 0.57506 0.90391 0.0
C482 C 0.40796 0.66678 0.87512 0.0
C483 C 0.42139 0.61532 0.86994 0.0
C484 C 0.38914 0.68658 0.84482 0.0
C485 C 0.36366 0.67691 0.785 0.0
C486 C 0.40105 0.63712 0.84606 0.0
C487 C 0.35713 0.64713 0.76052 0.0
C488 C 0.41324 0.58572 0.84746 0.0
C489 C 0.46885 0.60483 0.92732 0.0
N490 N 0.37568 0.62838 0.7907 0.0
N491 N 0.44889 0.62383 0.90972 0.0
H492 H 0.17445 0.74665 0.66073 0.0
H493 H 0.12912 0.5741 0.55717 0.0
H494 H 0.23555 0.68235 0.66042 0.0
H495 H 0.06653 0.63694 0.55742 0.0
H496 H 0.16741 0.61314 0.59421 0.0
H497 H 0.1353 0.70808 0.62355 0.0
C498 C 0.17992 0.72455 0.653 0.0
C499 C 0.20917 0.71853 0.66449 0.0
C500 C 0.14537 0.61863 0.58632 0.0
C501 C 0.16305 0.67292 0.62064 0.0
C502 C 0.12313 0.59603 0.56486 0.0
C503 C 0.09372 0.6014 0.55337 0.0
C504 C 0.13905 0.64777 0.59722 0.0
C505 C 0.0884 0.63098 0.56505 0.0
C506 C 0.15723 0.70225 0.63151 0.0
C507 C 0.21385 0.68881 0.65284 0.0
N508 N 0.11043 0.65256 0.58588 0.0
N509 N 0.19151 0.66767 0.63204 0.0
H510 H 0.19704 0.31722 0.25914 0.0
H511 H 0.17237 0.47467 0.49853 0.0
H512 H 0.26561 0.38246 0.36986 0.0
H513 H 0.10291 0.41436 0.35785 0.0
H514 H 0.20654 0.44182 0.44537 0.0
H515 H 0.16231 0.35257 0.2886 0.0
C516 C 0.20486 0.33904 0.28913 0.0
C517 C 0.23443 0.3468 0.31238 0.0
C518 C 0.18387 0.43574 0.42522 0.0
C519 C 0.19449 0.38748 0.34677 0.0
C520 C 0.16433 0.4545 0.45575 0.0
C521 C 0.13474 0.4471 0.43327 0.0
C522 C 0.17392 0.40904 0.37235 0.0
C523 C 0.12551 0.42087 0.37652 0.0
C524 C 0.18492 0.35924 0.3058 0.0
C525 C 0.24311 0.37544 0.35089 0.0
N526 N 0.14504 0.4026 0.34891 0.0
N527 N 0.22327 0.39462 0.36743 0.0
H528 H 0.05938 0.07292 0.7935 0.0
H529 H 1.00438 0.99259 0.17004 0.0
H530 H 1.00097 0.99694 0.73019 0.0
H531 H 0.06268 0.06865 0.23329 0.0
H532 H 1.00308 0.99371 0.00897 0.0
H533 H 0.06071 0.07177 0.95455 0.0
C534 C 0.04672 0.05603 0.81339 0.0
C535 C 1.02998 0.03501 0.74799 0.0
C536 C 1.01621 1.01013 0.05798 0.0
C537 C 0.03155 0.03351 0.93293 0.0
C538 C 1.01702 1.00949 0.15013 0.0
C539 C 0.03372 1.03055 0.21552 0.0
C540 C 0.03218 0.03201 0.03057 0.0
C541 C 0.04957 0.05193 0.18541 0.0
C542 C 0.04755 0.05537 0.90553 0.0
C543 C 1.01411 1.01364 0.77808 0.0
N544 N 0.04838 0.05212 0.09521 0.0
N545 N 1.01531 1.01343 0.86828 0.0
H546 H 0.31033 0.75025 0.45549 0.0
H547 H 0.24961 0.81273 0.00735 0.0
H548 H 0.24976 0.81542 0.44918 0.0
H549 H 0.31009 0.74746 0.01353 0.0
H550 H 0.24937 0.81394 0.16873 0.0
H551 H 0.31057 0.74903 0.2941 0.0
C552 C 0.29708 0.76436 0.42025 0.0
C553 C 0.27999 0.783 0.46622 0.0
C554 C 0.26269 0.79933 0.1349 0.0
C555 C 0.28016 0.78163 0.28066 0.0
C556 C 0.26284 0.79859 0.04255 0.0
C557 C 0.2799 0.77993 -0.00346 0.0
C558 C 0.27974 0.78129 0.18211 0.0
C559 C 0.29659 0.76216 0.04605 0.0
C560 C 0.29723 0.76362 0.32789 0.0
C561 C 0.26328 0.80074 0.41668 0.0
N562 N 0.29609 0.7633 0.13608 0.0
N563 N 0.26378 0.7996 0.32665 0.0
H564 H 0.49901 0.06113 0.7097 0.0
H565 H 0.56243 1.00003 0.26368 0.0
H566 H 0.56446 1.00084 0.7055 0.0
H567 H 0.49736 0.06071 0.26816 0.0
H568 H 0.56333 0.99995 0.4251 0.0
H569 H 0.4981 0.06121 0.54826 0.0
C570 C 0.51324 0.04791 0.67492 0.0
C571 C 0.53187 1.03095 0.72147 0.0
C572 C 0.54884 1.01328 0.39087 0.0
C573 C 0.53086 1.03093 0.53598 0.0
C574 C 0.54828 1.01333 0.29852 0.0
C575 C 0.52977 1.03041 0.25207 0.0
C576 C 0.53075 1.03042 0.43753 0.0
C577 C 0.51196 0.0472 0.30106 0.0
C578 C 0.51268 0.04797 0.58257 0.0
C579 C 0.54977 1.01427 0.67254 0.0
N580 N 0.51291 0.04678 0.39104 0.0
N581 N 0.5488 1.01468 0.58256 0.0
H582 H 0.32704 0.31944 0.03623 0.0
H583 H 0.25228 0.25004 0.53035 0.0
H584 H 0.25233 0.25948 0.97496 0.0
H585 H 0.32706 0.3099 0.5913 0.0
H586 H 0.25206 0.25299 0.69322 0.0
H587 H 0.32723 0.31663 0.87334 0.0
C588 C 0.3106 0.30584 -0.01131 0.0
C589 C 0.28965 0.28971 0.01958 0.0
C590 C 0.26857 0.26542 0.67086 0.0
C591 C 0.28982 0.28618 0.83295 0.0
C592 C 0.26874 0.26364 0.57782 0.0
C593 C 0.28972 0.27968 0.54684 0.0
C594 C 0.28951 0.28339 0.73349 0.0
C595 C 0.31044 0.2971 0.61176 0.0
C596 C 0.31075 0.30415 0.89565 0.0
C597 C 0.26893 0.27233 0.95458 0.0
N598 N 0.30978 0.29851 0.70166 0.0
N599 N 0.26958 0.271 0.86471 0.0
H600 H 0.81128 0.24953 0.95351 0.0
H601 H 0.74955 0.31251 0.50697 0.0
H602 H 0.75002 0.31408 0.94848 0.0
H603 H 0.81039 0.24756 0.51166 0.0
H604 H 0.74948 0.31339 0.66841 0.0
H605 H 0.81134 0.24865 0.79208 0.0
C606 C 0.79784 0.26357 0.91854 0.0
C607 C 0.78061 0.28194 0.96485 0.0
C608 C 0.76284 0.29892 0.63421 0.0
C609 C 0.78057 0.28098 0.77939 0.0
C610 C 0.76289 0.29838 0.54186 0.0
C611 C 0.78 0.2799 0.49545 0.0
C612 C 0.78004 0.28087 0.68093 0.0
C613 C 0.79684 0.26214 0.54451 0.0
C614 C 0.79789 0.26303 0.8262 0.0
C615 C 0.76365 0.29959 0.9157 0.0
N616 N 0.79644 0.26308 0.63449 0.0
N617 N 0.76406 0.29866 0.82573 0.0
H618 H 0.74182 0.75325 0.42903 0.0
H619 H 0.82118 0.80905 0.05195 0.0
H620 H 0.81698 0.81264 0.49189 0.0
H621 H 0.74607 0.74958 -0.01097 0.0
H622 H 0.82008 0.81045 0.21303 0.0
H623 H 0.74293 0.75183 0.26793 0.0
C624 C 0.75852 0.76611 0.40903 0.0
C625 C 0.77933 0.78315 0.47432 0.0
C626 C 0.80386 0.79703 0.1641 0.0
C627 C 0.78077 0.78147 0.28931 0.0
C628 C 0.8045 0.79617 0.07193 0.0
C629 C 0.7837 0.77912 0.00662 0.0
C630 C 0.78226 0.78077 0.19163 0.0
C631 C 0.76259 0.76297 0.03685 0.0
C632 C 0.75915 0.76523 0.31685 0.0
C633 C 0.80045 0.79927 0.44408 0.0
N634 N 0.7624 0.76423 0.12708 0.0
N635 N 0.80065 0.798 0.35385 0.0
H636 H 0.5 0.4819 0.62636 0.0
H637 H 0.55117 0.56094 0.24202 0.0
H638 H 0.55756 0.55845 0.68404 0.0
H639 H 0.49287 0.48492 0.18423 0.0
H640 H 0.55357 0.56041 0.40353 0.0
H641 H 0.49749 0.48247 0.46481 0.0
C642 C 0.51226 0.4988 0.60514 0.0
C643 C 0.52908 0.52017 0.66923 0.0
C644 C 0.54019 0.54387 0.35572 0.0
C645 C 0.5261 0.52099 0.48329 0.0
C646 C 0.53873 0.54416 0.2632 0.0
C647 C 0.52174 0.52292 0.19908 0.0
C648 C 0.52461 0.52215 0.38502 0.0
C649 C 0.50617 0.50176 0.23103 0.0
C650 C 0.51074 0.49912 0.51261 0.0
C651 C 0.5444 0.5415 0.63725 0.0
N652 N 0.50803 0.50188 0.32171 0.0
N653 N 0.5425 0.54139 0.54658 0.0
H654 H 0.06129 0.50029 0.76197 0.0
H655 H 0.99945 0.56153 0.21062 0.0
H656 H 0.99663 0.5614 0.76874 0.0
H657 H 0.0642 0.50053 0.20397 0.0
H658 H 0.9982 0.56177 0.04924 0.0
H659 H 0.06254 0.50005 0.92335 0.0
C660 C 0.0473 0.51366 0.79731 0.0
C661 C 1.0288 0.53091 0.75146 0.0
C662 C 1.0127 0.54833 0.08296 0.0
C663 C 1.03021 0.53072 0.93704 0.0
C664 C 1.01346 0.54818 0.17532 0.0
C665 C 0.03199 0.53097 0.2212 0.0
C666 C 0.03058 0.53114 0.03561 0.0
C667 C 0.0496 0.51414 0.17155 0.0
C668 C 0.04806 0.5135 0.88966 0.0
C669 C 1.01121 0.54775 0.80113 0.0
N670 N 0.04845 0.51465 0.08151 0.0
N671 N 1.01237 0.54725 0.89117 0.0
loop_
_geom_bond_atom_site_label_1
_geom_bond_atom_site_label_2
_geom_bond_distance
_geom_bond_site_symmetry_2
_ccdc_geom_bond_type
Co0 N5 2.057 . S
Co0 O17 2.021 1_655 S
Co0 O20 2.062 . S
Co0 O24 2.117 1_565 S
Co0 O25 2.020 . S
C1 O21 1.259 . S
C1 O24 1.258 . S
Co2 N11 2.057 . S
Co2 O18 2.117 1_545 S
Co2 O19 2.020 . S
Co2 O21 2.021 1_455 S
Co2 O26 2.062 . S
C3 N5 1.316 . S
C3 N6 1.347 . S
C3 H8 0.931 . S
C4 N5 1.375 . S
C4 C7 1.350 . S
C4 H9 0.930 . S
N5 Co0 2.057 . S
N5 C3 1.316 . S
N5 C4 1.375 . S
N6 C3 1.347 . S
N6 C7 1.373 . S
C7 C4 1.350 . S
C7 N6 1.373 . S
C7 H28 0.931 . S
H8 C3 0.931 . S
H9 C4 0.930 . S
C10 O17 1.259 . S
C10 O18 1.258 . S
N11 Co2 2.057 . S
N11 C12 1.316 . S
N11 C13 1.375 . S
C12 N11 1.316 . S
C12 N14 1.347 . S
C12 H23 0.931 . S
C13 N11 1.375 . S
C13 C15 1.350 . S
C13 H22 0.930 . S
N14 C12 1.347 . S
N14 C15 1.373 . S
C15 C13 1.350 . S
C15 N14 1.373 . S
C15 H29 0.931 . S
C16 O19 1.256 . S
C16 O20 1.255 1_445 S
O17 Co0 2.021 1_455 S
O17 C10 1.259 . S
O18 Co2 2.117 1_565 S
O18 C10 1.258 . S
O19 Co2 2.020 . S
O19 C16 1.256 . S
O20 Co0 2.062 . S
O20 C16 1.255 1_665 S
O21 C1 1.259 . S
O21 Co2 2.021 1_655 S
H22 C13 0.930 . S
H23 C12 0.931 . S
O24 Co0 2.117 1_545 S
O24 C1 1.258 . S
O25 Co0 2.020 . S
O25 C27 1.256 . S
O26 Co2 2.062 . S
O26 C27 1.255 1_445 S
C27 O25 1.256 . S
C27 O26 1.255 1_665 S
H28 C7 0.931 . S
H29 C15 0.931 . S
Co30 N35 2.057 . S
Co30 O47 2.021 . S
Co30 O50 2.062 . S
Co30 O54 2.117 . S
Co30 O55 2.020 . S
C31 O51 1.259 . S
C31 O54 1.258 . S
Co32 N41 2.057 . S
Co32 O48 2.117 . S
Co32 O49 2.020 . S
Co32 O51 2.021 . S
Co32 O56 2.062 . S
C33 N35 1.316 . S
C33 N36 1.347 . S
C33 H38 0.931 . S
C34 N35 1.375 . S
C34 C37 1.350 . S
C34 H39 0.930 . S
N35 Co30 2.057 . S
N35 C33 1.316 . S
N35 C34 1.375 . S
N36 C33 1.347 . S
N36 C37 1.373 . S
C37 C34 1.350 . S
C37 N36 1.373 . S
C37 H58 0.931 . S
H38 C33 0.931 . S
H39 C34 0.930 . S
C40 O47 1.259 . S
C40 O48 1.258 . S
N41 Co32 2.057 . S
N41 C42 1.316 . S
N41 C43 1.375 . S
C42 N41 1.316 . S
C42 N44 1.347 . S
C42 H53 0.931 . S
C43 N41 1.375 . S
C43 C45 1.350 . S
C43 H52 0.930 . S
N44 C42 1.347 . S
N44 C45 1.373 . S
C45 C43 1.350 . S
C45 N44 1.373 . S
C45 H59 0.931 . S
C46 O49 1.256 . S
C46 O50 1.255 . S
O47 Co30 2.021 . S
O47 C40 1.259 . S
O48 Co32 2.117 . S
O48 C40 1.258 . S
O49 Co32 2.020 . S
O49 C46 1.256 . S
O50 Co30 2.062 . S
O50 C46 1.255 . S
O51 C31 1.259 . S
O51 Co32 2.021 . S
H52 C43 0.930 . S
H53 C42 0.931 . S
O54 Co30 2.117 . S
O54 C31 1.258 . S
O55 Co30 2.020 . S
O55 C57 1.256 . S
O56 Co32 2.062 . S
O56 C57 1.255 . S
C57 O55 1.256 . S
C57 O56 1.255 . S
H58 C37 0.931 . S
H59 C45 0.931 . S
Co60 N65 2.057 . S
Co60 O77 2.021 . S
Co60 O80 2.062 . S
Co60 O84 2.117 1_566 S
Co60 O85 2.020 1_556 S
C61 O81 1.259 . S
C61 O84 1.258 . S
Co62 N71 2.057 . S
Co62 O78 2.117 1_544 S
Co62 O79 2.020 1_554 S
Co62 O81 2.021 . S
Co62 O86 2.062 . S
C63 N65 1.316 . S
C63 N66 1.347 . S
C63 H68 0.931 . S
C64 N65 1.375 1_554 S
C64 C67 1.350 1_554 S
C64 H69 0.930 . S
N65 Co60 2.057 . S
N65 C63 1.316 . S
N65 C64 1.375 1_556 S
N66 C63 1.347 . S
N66 C67 1.373 . S
C67 C64 1.350 1_556 S
C67 N66 1.373 . S
C67 H88 0.931 . S
H68 C63 0.931 . S
H69 C64 0.930 . S
C70 O77 1.259 . S
C70 O78 1.258 . S
N71 Co62 2.057 . S
N71 C72 1.316 . S
N71 C73 1.375 1_554 S
C72 N71 1.316 . S
C72 N74 1.347 . S
C72 H83 0.931 . S
C73 N71 1.375 1_556 S
C73 C75 1.350 1_556 S
C73 H82 0.930 . S
N74 C72 1.347 . S
N74 C75 1.373 . S
C75 C73 1.350 1_554 S
C75 N74 1.373 . S
C75 H89 0.931 . S
C76 O79 1.266 . S
C76 O80 1.242 1_545 S
O77 Co60 2.021 . S
O77 C70 1.259 . S
O78 Co62 2.117 1_566 S
O78 C70 1.258 . S
O79 Co62 2.020 1_556 S
O79 C76 1.266 . S
O80 Co60 2.062 . S
O80 C76 1.242 1_565 S
O81 C61 1.259 . S
O81 Co62 2.021 . S
H82 C73 0.930 . S
H83 C72 0.931 . S
O84 Co60 2.117 1_544 S
O84 C61 1.258 . S
O85 Co60 2.020 1_554 S
O85 C87 1.260 . S
O86 Co62 2.062 . S
O86 C87 1.250 1_545 S
C87 O85 1.260 . S
C87 O86 1.250 1_565 S
H88 C67 0.931 . S
H89 C75 0.931 . S
Co90 N95 2.057 . S
Co90 O107 2.021 . S
Co90 O110 2.062 . S
Co90 O114 2.117 . S
Co90 O115 2.020 . S
C91 O111 1.259 . S
C91 O114 1.258 . S
Co92 N101 2.057 . S
Co92 O108 2.117 . S
Co92 O109 2.020 . S
Co92 O111 2.021 . S
Co92 O116 2.062 . S
C93 N95 1.316 . S
C93 N96 1.347 . S
C93 H98 0.931 . S
C94 N95 1.375 . S
C94 C97 1.350 . S
C94 H99 0.930 . S
N95 Co90 2.057 . S
N95 C93 1.316 . S
N95 C94 1.375 . S
N96 C93 1.347 . S
N96 C97 1.373 . S
C97 C94 1.350 . S
C97 N96 1.373 . S
C97 H118 0.931 . S
H98 C93 0.931 . S
H99 C94 0.930 . S
C100 O107 1.259 . S
C100 O108 1.258 . S
N101 Co92 2.057 . S
N101 C102 1.316 . S
N101 C103 1.375 . S
C102 N101 1.316 . S
C102 N104 1.347 . S
C102 H113 0.931 . S
C103 N101 1.375 . S
C103 C105 1.350 . S
C103 H112 0.930 . S
N104 C102 1.347 . S
N104 C105 1.373 . S
C105 C103 1.350 . S
C105 N104 1.373 . S
C105 H119 0.931 . S
C106 O109 1.256 . S
C106 O110 1.255 . S
O107 Co90 2.021 . S
O107 C100 1.259 . S
O108 Co92 2.117 . S
O108 C100 1.258 . S
O109 Co92 2.020 . S
O109 C106 1.256 . S
O110 Co90 2.062 . S
O110 C106 1.255 . S
O111 C91 1.259 . S
O111 Co92 2.021 . S
H112 C103 0.930 . S
H113 C102 0.931 . S
O114 Co90 2.117 . S
O114 C91 1.258 . S
O115 Co90 2.020 . S
O115 C117 1.256 . S
O116 Co92 2.062 . S
O116 C117 1.255 . S
C117 O115 1.256 . S
C117 O116 1.255 . S
H118 C97 0.931 . S
H119 C105 0.931 . S
Co120 N125 2.057 . S
Co120 O137 2.021 . S
Co120 O140 2.062 . S
Co120 O144 2.117 . S
Co120 O145 2.020 . S
C121 O141 1.259 . S
C121 O144 1.258 . S
Co122 N131 2.057 . S
Co122 O138 2.117 . S
Co122 O139 2.020 . S
Co122 O141 2.021 . S
Co122 O146 2.062 . S
C123 N125 1.316 . S
C123 N126 1.347 . S
C123 H128 0.931 . S
C124 N125 1.375 . S
C124 C127 1.350 . S
C124 H129 0.930 . S
N125 Co120 2.057 . S
N125 C123 1.316 . S
N125 C124 1.375 . S
N126 C123 1.347 . S
N126 C127 1.373 . S
C127 C124 1.350 . S
C127 N126 1.373 . S
C127 H148 0.931 . S
H128 C123 0.931 . S
H129 C124 0.930 . S
C130 O137 1.259 . S
C130 O138 1.258 . S
N131 Co122 2.057 . S
N131 C132 1.316 . S
N131 C133 1.375 . S
C132 N131 1.316 . S
C132 N134 1.347 . S
C132 H143 0.931 . S
C133 N131 1.375 . S
C133 C135 1.350 . S
C133 H142 0.930 . S
N134 C132 1.347 . S
N134 C135 1.373 . S
C135 C133 1.350 . S
C135 N134 1.373 . S
C135 H149 0.931 . S
C136 O139 1.256 . S
C136 O140 1.255 . S
O137 Co120 2.021 . S
O137 C130 1.259 . S
O138 Co122 2.117 . S
O138 C130 1.258 . S
O139 Co122 2.020 . S
O139 C136 1.256 . S
O140 Co120 2.062 . S
O140 C136 1.255 . S
O141 C121 1.259 . S
O141 Co122 2.021 . S
H142 C133 0.930 . S
H143 C132 0.931 . S
O144 Co120 2.117 . S
O144 C121 1.258 . S
O145 Co120 2.020 . S
O145 C147 1.256 . S
O146 Co122 2.062 . S
O146 C147 1.255 . S
C147 O145 1.256 . S
C147 O146 1.255 . S
H148 C127 0.931 . S
H149 C135 0.931 . S
Co150 N155 2.057 . S
Co150 O167 2.021 . S
Co150 O170 2.062 . S
Co150 O174 2.117 . S
Co150 O175 2.020 . S
C151 O171 1.259 . S
C151 O174 1.258 . S
Co152 N161 2.057 . S
Co152 O168 2.117 . S
Co152 O169 2.020 . S
Co152 O171 2.021 . S
Co152 O176 2.062 . S
C153 N155 1.316 . S
C153 N156 1.347 . S
C153 H158 0.931 . S
C154 N155 1.375 . S
C154 C157 1.350 . S
C154 H159 0.930 . S
N155 Co150 2.057 . S
N155 C153 1.316 . S
N155 C154 1.375 . S
N156 C153 1.347 . S
N156 C157 1.373 . S
C157 C154 1.350 . S
C157 N156 1.373 . S
C157 H178 0.931 . S
H158 C153 0.931 . S
H159 C154 0.930 . S
C160 O167 1.259 . S
C160 O168 1.258 . S
N161 Co152 2.057 . S
N161 C162 1.316 . S
N161 C163 1.375 . S
C162 N161 1.316 . S
C162 N164 1.347 . S
C162 H173 0.931 . S
C163 N161 1.375 . S
C163 C165 1.350 . S
C163 H172 0.930 . S
N164 C162 1.347 . S
N164 C165 1.373 . S
C165 C163 1.350 . S
C165 N164 1.373 . S
C165 H179 0.931 . S
C166 O169 1.256 . S
C166 O170 1.255 . S
O167 Co150 2.021 . S
O167 C160 1.259 . S
O168 Co152 2.117 . S
O168 C160 1.258 . S
O169 Co152 2.020 . S
O169 C166 1.256 . S
O170 Co150 2.062 . S
O170 C166 1.255 . S
O171 C151 1.259 . S
O171 Co152 2.021 . S
H172 C163 0.930 . S
H173 C162 0.931 . S
O174 Co150 2.117 . S
O174 C151 1.258 . S
O175 Co150 2.020 . S
O175 C177 1.256 . S
O176 Co152 2.062 . S
O176 C177 1.255 . S
C177 O175 1.256 . S
C177 O176 1.255 . S
H178 C157 0.931 . S
H179 C165 0.931 . S
Co180 N185 2.057 . S
Co180 O197 2.021 1_556 S
Co180 O200 2.062 1_556 S
Co180 O204 2.117 . S
Co180 O205 2.020 . S
C181 O201 1.259 . S
C181 O204 1.258 . S
Co182 N191 2.057 . S
Co182 O198 2.117 . S
Co182 O199 2.020 . S
Co182 O201 2.021 1_554 S
Co182 O206 2.062 1_554 S
C183 N185 1.316 1_554 S
C183 N186 1.347 . S
C183 H188 0.931 . S
C184 N185 1.375 . S
C184 C187 1.350 . S
C184 H189 0.930 . S
N185 Co180 2.057 . S
N185 C183 1.316 1_556 S
N185 C184 1.375 . S
N186 C183 1.347 . S
N186 C187 1.373 1_554 S
C187 C184 1.350 . S
C187 N186 1.373 1_556 S
C187 H208 0.931 . S
H188 C183 0.931 . S
H189 C184 0.930 . S
C190 O197 1.259 . S
C190 O198 1.258 . S
N191 Co182 2.057 . S
N191 C192 1.316 1_554 S
N191 C193 1.375 . S
C192 N191 1.316 1_556 S
C192 N194 1.347 . S
C192 H203 0.931 . S
C193 N191 1.375 . S
C193 C195 1.350 . S
C193 H202 0.930 . S
N194 C192 1.347 . S
N194 C195 1.373 1_556 S
C195 C193 1.350 . S
C195 N194 1.373 1_554 S
C195 H209 0.931 . S
C196 O199 1.256 . S
C196 O200 1.255 . S
O197 Co180 2.021 1_554 S
O197 C190 1.259 . S
O198 Co182 2.117 . S
O198 C190 1.258 . S
O199 Co182 2.020 . S
O199 C196 1.256 . S
O200 Co180 2.062 1_554 S
O200 C196 1.255 . S
O201 C181 1.259 . S
O201 Co182 2.021 1_556 S
H202 C193 0.930 . S
H203 C192 0.931 . S
O204 Co180 2.117 . S
O204 C181 1.258 . S
O205 Co180 2.020 . S
O205 C207 1.256 . S
O206 Co182 2.062 1_556 S
O206 C207 1.255 . S
C207 O205 1.256 . S
C207 O206 1.255 . S
H208 C187 0.931 . S
H209 C195 0.931 . S
Co210 N215 2.057 . S
Co210 O227 2.021 1_455 S
Co210 O230 2.062 . S
Co210 O234 2.117 . S
Co210 O235 2.020 . S
C211 O231 1.259 . S
C211 O234 1.258 . S
Co212 N221 2.057 . S
Co212 O228 2.117 . S
Co212 O229 2.020 . S
Co212 O231 2.021 1_655 S
Co212 O236 2.062 . S
C213 N215 1.316 . S
C213 N216 1.347 . S
C213 H218 0.931 . S
C214 N215 1.375 . S
C214 C217 1.350 . S
C214 H219 0.930 . S
N215 Co210 2.057 . S
N215 C213 1.316 . S
N215 C214 1.375 . S
N216 C213 1.347 . S
N216 C217 1.373 . S
C217 C214 1.350 . S
C217 N216 1.373 . S
C217 H238 0.931 . S
H218 C213 0.931 . S
H219 C214 0.930 . S
C220 O227 1.259 . S
C220 O228 1.258 . S
N221 Co212 2.057 . S
N221 C222 1.316 . S
N221 C223 1.375 . S
C222 N221 1.316 . S
C222 N224 1.347 . S
C222 H233 0.931 . S
C223 N221 1.375 . S
C223 C225 1.350 . S
C223 H232 0.930 . S
N224 C222 1.347 . S
N224 C225 1.373 . S
C225 C223 1.350 . S
C225 N224 1.373 . S
C225 H239 0.931 . S
C226 O229 1.256 . S
C226 O230 1.255 1_655 S
O227 Co210 2.021 1_655 S
O227 C220 1.259 . S
O228 Co212 2.117 . S
O228 C220 1.258 . S
O229 Co212 2.020 . S
O229 C226 1.256 . S
O230 Co210 2.062 . S
O230 C226 1.255 1_455 S
O231 C211 1.259 . S
O231 Co212 2.021 1_455 S
H232 C223 0.930 . S
H233 C222 0.931 . S
O234 Co210 2.117 . S
O234 C211 1.258 . S
O235 Co210 2.020 . S
O235 C237 1.256 . S
O236 Co212 2.062 . S
O236 C237 1.255 1_655 S
C237 O235 1.256 . S
C237 O236 1.255 1_455 S
H238 C217 0.931 . S
H239 C225 0.931 . S
H240 C246 0.930 . S
H241 C250 0.930 . S
H242 C255 0.929 . S
H243 C253 0.929 . S
H244 C248 0.929 . S
H245 C254 0.929 . S
C246 H240 0.930 . S
C246 C247 1.367 . S
C246 C254 1.378 . S
C247 C246 1.367 . S
C247 C255 1.433 . S
C248 H244 0.929 . S
C248 C250 1.378 . S
C248 C252 1.350 . S
C249 C252 1.463 . S
C249 C254 1.350 . S
C249 N257 1.427 . S
C250 H241 0.930 . S
C250 C248 1.378 . S
C250 C251 1.367 . S
C251 C250 1.367 . S
C251 C253 1.433 . S
C252 C248 1.350 . S
C252 C249 1.463 . S
C252 N256 1.427 . S
C253 H243 0.929 . S
C253 C251 1.433 . S
C253 N256 1.384 . S
C254 H245 0.929 . S
C254 C246 1.378 . S
C254 C249 1.350 . S
C255 H242 0.929 . S
C255 C247 1.433 . S
C255 N257 1.384 . S
N256 C252 1.427 . S
N256 C253 1.384 . S
N257 C249 1.427 . S
N257 C255 1.384 . S
H258 C264 0.930 . S
H259 C268 0.930 . S
H260 C273 0.929 . S
H261 C271 0.929 . S
H262 C266 0.929 . S
H263 C272 0.929 . S
C264 H258 0.930 . S
C264 C265 1.367 . S
C264 C272 1.378 . S
C265 C264 1.367 . S
C265 C273 1.433 . S
C266 H262 0.929 . S
C266 C268 1.378 . S
C266 C270 1.350 . S
C267 C270 1.463 . S
C267 C272 1.350 . S
C267 N275 1.427 . S
C268 H259 0.930 . S
C268 C266 1.378 . S
C268 C269 1.367 . S
C269 C268 1.367 . S
C269 C271 1.433 . S
C270 C266 1.350 . S
C270 C267 1.463 . S
C270 N274 1.427 . S
C271 H261 0.929 . S
C271 C269 1.433 . S
C271 N274 1.384 . S
C272 H263 0.929 . S
C272 C264 1.378 . S
C272 C267 1.350 . S
C273 H260 0.929 . S
C273 C265 1.433 . S
C273 N275 1.384 . S
N274 C270 1.427 . S
N274 C271 1.384 . S
N275 C267 1.427 . S
N275 C273 1.384 . S
H276 C282 0.930 . S
H277 C286 0.930 1_554 S
H278 C291 0.929 . S
H279 C289 0.929 . S
H280 C284 0.929 . S
H281 C290 0.929 . S
C282 H276 0.930 . S
C282 C283 1.367 . S
C282 C290 1.378 . S
C283 C282 1.367 . S
C283 C291 1.433 . S
C284 H280 0.929 . S
C284 C286 1.378 . S
C284 C288 1.350 . S
C285 C288 1.463 . S
C285 C290 1.350 . S
C285 N293 1.427 . S
C286 H277 0.930 1_556 S
C286 C284 1.378 . S
C286 C287 1.367 . S
C287 C286 1.367 . S
C287 C289 1.433 . S
C288 C284 1.350 . S
C288 C285 1.463 . S
C288 N292 1.427 . S
C289 H279 0.929 . S
C289 C287 1.433 . S
C289 N292 1.384 . S
C290 H281 0.929 . S
C290 C282 1.378 . S
C290 C285 1.350 . S
C291 H278 0.929 . S
C291 C283 1.433 . S
C291 N293 1.384 . S
N292 C288 1.427 . S
N292 C289 1.384 . S
N293 C285 1.427 . S
N293 C291 1.384 . S
H294 C300 0.930 . S
H295 C304 0.930 . S
H296 C309 0.929 . S
H297 C307 0.929 . S
H298 C302 0.929 . S
H299 C308 0.929 . S
C300 H294 0.930 . S
C300 C301 1.367 . S
C300 C308 1.378 . S
C301 C300 1.367 . S
C301 C309 1.433 . S
C302 H298 0.929 . S
C302 C304 1.378 . S
C302 C306 1.350 . S
C303 C306 1.463 . S
C303 C308 1.350 . S
C303 N311 1.427 . S
C304 H295 0.930 . S
C304 C302 1.378 . S
C304 C305 1.367 . S
C305 C304 1.367 . S
C305 C307 1.433 . S
C306 C302 1.350 . S
C306 C303 1.463 . S
C306 N310 1.427 . S
C307 H297 0.929 . S
C307 C305 1.433 . S
C307 N310 1.384 . S
C308 H299 0.929 . S
C308 C300 1.378 . S
C308 C303 1.350 . S
C309 H296 0.929 . S
C309 C301 1.433 . S
C309 N311 1.384 . S
N310 C306 1.427 . S
N310 C307 1.384 . S
N311 C303 1.427 . S
N311 C309 1.384 . S
H312 C318 0.930 . S
H313 C322 0.930 . S
H314 C327 0.929 . S
H315 C325 0.929 . S
H316 C320 0.929 . S
H317 C326 0.929 . S
C318 H312 0.930 . S
C318 C319 1.367 . S
C318 C326 1.378 . S
C319 C318 1.367 . S
C319 C327 1.433 . S
C320 H316 0.929 . S
C320 C322 1.378 . S
C320 C324 1.350 . S
C321 C324 1.463 . S
C321 C326 1.350 . S
C321 N329 1.427 . S
C322 H313 0.930 . S
C322 C320 1.378 . S
C322 C323 1.367 . S
C323 C322 1.367 . S
C323 C325 1.433 . S
C324 C320 1.350 . S
C324 C321 1.463 . S
C324 N328 1.427 . S
C325 H315 0.929 . S
C325 C323 1.433 . S
C325 N328 1.384 . S
C326 H317 0.929 . S
C326 C318 1.378 . S
C326 C321 1.350 . S
C327 H314 0.929 . S
C327 C319 1.433 . S
C327 N329 1.384 . S
N328 C324 1.427 . S
N328 C325 1.384 . S
N329 C321 1.427 . S
N329 C327 1.384 . S
H330 C336 0.930 . S
H331 C340 0.930 . S
H332 C345 0.929 . S
H333 C343 0.929 . S
H334 C338 0.929 . S
H335 C344 0.929 . S
C336 H330 0.930 . S
C336 C337 1.367 . S
C336 C344 1.378 . S
C337 C336 1.367 . S
C337 C345 1.433 . S
C338 H334 0.929 . S
C338 C340 1.378 . S
C338 C342 1.350 . S
C339 C342 1.463 . S
C339 C344 1.350 . S
C339 N347 1.427 . S
C340 H331 0.930 . S
C340 C338 1.378 . S
C340 C341 1.367 . S
C341 C340 1.367 . S
C341 C343 1.433 . S
C342 C338 1.350 . S
C342 C339 1.463 . S
C342 N346 1.427 . S
C343 H333 0.929 . S
C343 C341 1.433 . S
C343 N346 1.384 . S
C344 H335 0.929 . S
C344 C336 1.378 . S
C344 C339 1.350 . S
C345 H332 0.929 . S
C345 C337 1.433 . S
C345 N347 1.384 . S
N346 C342 1.427 . S
N346 C343 1.384 . S
N347 C339 1.427 . S
N347 C345 1.384 . S
H348 C354 0.930 . S
H349 C358 0.930 . S
H350 C363 0.929 . S
H351 C361 0.929 1_556 S
H352 C356 0.929 . S
H353 C362 0.929 . S
C354 H348 0.930 . S
C354 C355 1.367 . S
C354 C362 1.378 . S
C355 C354 1.367 . S
C355 C363 1.433 . S
C356 H352 0.929 . S
C356 C358 1.378 . S
C356 C360 1.350 . S
C357 C360 1.463 . S
C357 C362 1.350 . S
C357 N365 1.427 . S
C358 H349 0.930 . S
C358 C356 1.378 . S
C358 C359 1.367 . S
C359 C358 1.367 . S
C359 C361 1.433 . S
C360 C356 1.350 . S
C360 C357 1.463 . S
C360 N364 1.427 . S
C361 H351 0.929 1_554 S
C361 C359 1.433 . S
C361 N364 1.384 . S
C362 H353 0.929 . S
C362 C354 1.378 . S
C362 C357 1.350 . S
C363 H350 0.929 . S
C363 C355 1.433 . S
C363 N365 1.384 . S
N364 C360 1.427 . S
N364 C361 1.384 . S
N365 C357 1.427 . S
N365 C363 1.384 . S
H366 C372 0.930 . S
H367 C376 0.930 1_554 S
H368 C381 0.929 . S
H369 C379 0.929 . S
H370 C374 0.929 . S
H371 C380 0.929 . S
C372 H366 0.930 . S
C372 C373 1.367 . S
C372 C380 1.378 . S
C373 C372 1.367 . S
C373 C381 1.433 . S
C374 H370 0.929 . S
C374 C376 1.378 . S
C374 C378 1.350 . S
C375 C378 1.463 . S
C375 C380 1.350 . S
C375 N383 1.427 . S
C376 H367 0.930 1_556 S
C376 C374 1.378 . S
C376 C377 1.367 . S
C377 C376 1.367 . S
C377 C379 1.433 . S
C378 C374 1.350 . S
C378 C375 1.463 . S
C378 N382 1.427 . S
C379 H369 0.929 . S
C379 C377 1.433 . S
C379 N382 1.384 . S
C380 H371 0.929 . S
C380 C372 1.378 . S
C380 C375 1.350 . S
C381 H368 0.929 . S
C381 C373 1.433 . S
C381 N383 1.384 . S
N382 C378 1.427 . S
N382 C379 1.384 . S
N383 C375 1.427 . S
N383 C381 1.384 . S
H384 C390 0.930 . S
H385 C394 0.930 . S
H386 C399 0.929 . S
H387 C397 0.929 . S
H388 C392 0.929 . S
H389 C398 0.929 1_554 S
C390 H384 0.930 . S
C390 C391 1.367 1_554 S
C390 C398 1.378 1_554 S
C391 C390 1.367 1_556 S
C391 C399 1.433 . S
C392 H388 0.929 . S
C392 C394 1.378 . S
C392 C396 1.350 . S
C393 C396 1.463 . S
C393 C398 1.350 . S
C393 N401 1.427 . S
C394 H385 0.930 . S
C394 C392 1.378 . S
C394 C395 1.367 . S
C395 C394 1.367 . S
C395 C397 1.433 . S
C396 C392 1.350 . S
C396 C393 1.463 . S
C396 N400 1.427 . S
C397 H387 0.929 . S
C397 C395 1.433 . S
C397 N400 1.384 . S
C398 H389 0.929 1_556 S
C398 C390 1.378 1_556 S
C398 C393 1.350 . S
C399 H386 0.929 . S
C399 C391 1.433 . S
C399 N401 1.384 . S
N400 C396 1.427 . S
N400 C397 1.384 . S
N401 C393 1.427 . S
N401 C399 1.384 . S
H402 C408 0.930 . S
H403 C412 0.930 . S
H404 C417 0.929 . S
H405 C415 0.929 1_556 S
H406 C410 0.929 . S
H407 C416 0.929 . S
C408 H402 0.930 . S
C408 C409 1.367 . S
C408 C416 1.378 . S
C409 C408 1.367 . S
C409 C417 1.433 . S
C410 H406 0.929 . S
C410 C412 1.378 . S
C410 C414 1.350 . S
C411 C414 1.463 . S
C411 C416 1.350 . S
C411 N419 1.427 . S
C412 H403 0.930 . S
C412 C410 1.378 . S
C412 C413 1.367 . S
C413 C412 1.367 . S
C413 C415 1.433 . S
C414 C410 1.350 . S
C414 C411 1.463 . S
C414 N418 1.427 . S
C415 H405 0.929 1_554 S
C415 C413 1.433 . S
C415 N418 1.384 . S
C416 H407 0.929 . S
C416 C408 1.378 . S
C416 C411 1.350 . S
C417 H404 0.929 . S
C417 C409 1.433 . S
C417 N419 1.384 . S
N418 C414 1.427 . S
N418 C415 1.384 . S
N419 C411 1.427 . S
N419 C417 1.384 . S
H420 C426 0.930 . S
H421 C430 0.930 . S
H422 C435 0.929 . S
H423 C433 0.929 . S
H424 C428 0.929 . S
H425 C434 0.929 . S
C426 H420 0.930 . S
C426 C427 1.367 . S
C426 C434 1.378 . S
C427 C426 1.367 . S
C427 C435 1.433 . S
C428 H424 0.929 . S
C428 C430 1.378 . S
C428 C432 1.350 . S
C429 C432 1.463 . S
C429 C434 1.350 . S
C429 N437 1.427 . S
C430 H421 0.930 . S
C430 C428 1.378 . S
C430 C431 1.367 . S
C431 C430 1.367 . S
C431 C433 1.433 . S
C432 C428 1.350 . S
C432 C429 1.463 . S
C432 N436 1.427 . S
C433 H423 0.929 . S
C433 C431 1.433 . S
C433 N436 1.384 . S
C434 H425 0.929 . S
C434 C426 1.378 . S
C434 C429 1.350 . S
C435 H422 0.929 . S
C435 C427 1.433 . S
C435 N437 1.384 . S
N436 C432 1.427 . S
N436 C433 1.384 . S
N437 C429 1.427 . S
N437 C435 1.384 . S
H438 C444 0.930 . S
H439 C448 0.930 . S
H440 C453 0.929 . S
H441 C451 0.929 . S
H442 C446 0.929 . S
H443 C452 0.929 . S
C444 H438 0.930 . S
C444 C445 1.367 . S
C444 C452 1.378 . S
C445 C444 1.367 . S
C445 C453 1.433 . S
C446 H442 0.929 . S
C446 C448 1.378 . S
C446 C450 1.350 . S
C447 C450 1.463 . S
C447 C452 1.350 . S
C447 N455 1.427 . S
C448 H439 0.930 . S
C448 C446 1.378 . S
C448 C449 1.367 . S
C449 C448 1.367 . S
C449 C451 1.433 . S
C450 C446 1.350 . S
C450 C447 1.463 . S
C450 N454 1.427 . S
C451 H441 0.929 . S
C451 C449 1.433 . S
C451 N454 1.384 . S
C452 H443 0.929 . S
C452 C444 1.378 . S
C452 C447 1.350 . S
C453 H440 0.929 . S
C453 C445 1.433 . S
C453 N455 1.384 . S
N454 C450 1.427 . S
N454 C451 1.384 . S
N455 C447 1.427 . S
N455 C453 1.384 . S
H456 C462 0.930 . S
H457 C466 0.930 1_556 S
H458 C471 0.929 . S
H459 C469 0.929 . S
H460 C464 0.929 . S
H461 C470 0.929 . S
C462 H456 0.930 . S
C462 C463 1.367 . S
C462 C470 1.378 . S
C463 C462 1.367 . S
C463 C471 1.433 . S
C464 H460 0.929 . S
C464 C466 1.378 . S
C464 C468 1.350 . S
C465 C468 1.463 . S
C465 C470 1.350 . S
C465 N473 1.427 . S
C466 H457 0.930 1_554 S
C466 C464 1.378 . S
C466 C467 1.367 . S
C467 C466 1.367 . S
C467 C469 1.433 . S
C468 C464 1.350 . S
C468 C465 1.463 . S
C468 N472 1.427 . S
C469 H459 0.929 . S
C469 C467 1.433 . S
C469 N472 1.384 . S
C470 H461 0.929 . S
C470 C462 1.378 . S
C470 C465 1.350 . S
C471 H458 0.929 . S
C471 C463 1.433 . S
C471 N473 1.384 . S
N472 C468 1.427 . S
N472 C469 1.384 . S
N473 C465 1.427 . S
N473 C471 1.384 . S
H474 C480 0.930 . S
H475 C484 0.930 . S
H476 C489 0.929 . S
H477 C487 0.929 . S
H478 C482 0.929 1_554 S
H479 C488 0.929 . S
C480 H474 0.930 . S
C480 C481 1.367 . S
C480 C488 1.378 . S
C481 C480 1.367 . S
C481 C489 1.433 1_556 S
C482 H478 0.929 1_556 S
C482 C484 1.378 . S
C482 C486 1.350 . S
C483 C486 1.463 . S
C483 C488 1.350 . S
C483 N491 1.427 . S
C484 H475 0.930 . S
C484 C482 1.378 . S
C484 C485 1.367 . S
C485 C484 1.367 . S
C485 C487 1.433 . S
C486 C482 1.350 . S
C486 C483 1.463 . S
C486 N490 1.427 . S
C487 H477 0.929 . S
C487 C485 1.433 . S
C487 N490 1.384 . S
C488 H479 0.929 . S
C488 C480 1.378 . S
C488 C483 1.350 . S
C489 H476 0.929 . S
C489 C481 1.433 1_554 S
C489 N491 1.384 1_554 S
N490 C486 1.427 . S
N490 C487 1.384 . S
N491 C483 1.427 . S
N491 C489 1.384 1_556 S
H492 C498 0.930 . S
H493 C502 0.930 . S
H494 C507 0.929 . S
H495 C505 0.929 . S
H496 C500 0.929 . S
H497 C506 0.929 . S
C498 H492 0.930 . S
C498 C499 1.367 . S
C498 C506 1.378 . S
C499 C498 1.367 . S
C499 C507 1.433 . S
C500 H496 0.929 . S
C500 C502 1.378 . S
C500 C504 1.350 . S
C501 C504 1.463 . S
C501 C506 1.350 . S
C501 N509 1.427 . S
C502 H493 0.930 . S
C502 C500 1.378 . S
C502 C503 1.367 . S
C503 C502 1.367 . S
C503 C505 1.433 . S
C504 C500 1.350 . S
C504 C501 1.463 . S
C504 N508 1.427 . S
C505 H495 0.929 . S
C505 C503 1.433 . S
C505 N508 1.384 . S
C506 H497 0.929 . S
C506 C498 1.378 . S
C506 C501 1.350 . S
C507 H494 0.929 . S
C507 C499 1.433 . S
C507 N509 1.384 . S
N508 C504 1.427 . S
N508 C505 1.384 . S
N509 C501 1.427 . S
N509 C507 1.384 . S
H510 C516 0.930 . S
H511 C520 0.930 . S
H512 C525 0.929 . S
H513 C523 0.929 . S
H514 C518 0.929 . S
H515 C524 0.929 . S
C516 H510 0.930 . S
C516 C517 1.367 . S
C516 C524 1.378 . S
C517 C516 1.367 . S
C517 C525 1.433 . S
C518 H514 0.929 . S
C518 C520 1.378 . S
C518 C522 1.350 . S
C519 C522 1.463 . S
C519 C524 1.350 . S
C519 N527 1.427 . S
C520 H511 0.930 . S
C520 C518 1.378 . S
C520 C521 1.367 . S
C521 C520 1.367 . S
C521 C523 1.433 . S
C522 C518 1.350 . S
C522 C519 1.463 . S
C522 N526 1.427 . S
C523 H513 0.929 . S
C523 C521 1.433 . S
C523 N526 1.384 . S
C524 H515 0.929 . S
C524 C516 1.378 . S
C524 C519 1.350 . S
C525 H512 0.929 . S
C525 C517 1.433 . S
C525 N527 1.384 . S
N526 C522 1.427 . S
N526 C523 1.384 . S
N527 C519 1.427 . S
N527 C525 1.384 . S
H528 C534 0.930 . S
H529 C538 0.930 . S
H530 C543 0.929 . S
H531 C541 0.929 . S
H532 C536 0.929 . S
H533 C542 0.929 . S
C534 H528 0.930 . S
C534 C535 1.367 . S
C534 C542 1.378 . S
C535 C534 1.367 . S
C535 C543 1.433 1_445 S
C536 H532 0.929 . S
C536 C538 1.378 . S
C536 C540 1.351 . S
C537 C540 1.458 1_446 S
C537 C542 1.353 . S
C537 N545 1.427 1_445 S
C538 H529 0.930 . S
C538 C536 1.378 . S
C538 C539 1.367 . S
C539 C538 1.367 . S
C539 C541 1.433 1_665 S
C540 C536 1.351 . S
C540 C537 1.458 1_664 S
C540 N544 1.427 1_665 S
C541 H531 0.929 . S
C541 C539 1.433 1_445 S
C541 N544 1.384 . S
C542 H533 0.929 . S
C542 C534 1.378 . S
C542 C537 1.353 . S
C543 H530 0.929 . S
C543 C535 1.433 1_665 S
C543 N545 1.384 . S
N544 C540 1.427 1_445 S
N544 C541 1.384 . S
N545 C537 1.427 1_665 S
N545 C543 1.384 . S
H546 C552 0.930 . S
H547 C556 0.930 . S
H548 C561 0.929 . S
H549 C559 0.929 . S
H550 C554 0.929 . S
H551 C560 0.929 . S
C552 H546 0.930 . S
C552 C553 1.367 . S
C552 C560 1.378 . S
C553 C552 1.367 . S
C553 C561 1.433 . S
C554 H550 0.929 . S
C554 C556 1.378 . S
C554 C558 1.350 . S
C555 C558 1.463 . S
C555 C560 1.350 . S
C555 N563 1.427 . S
C556 H547 0.930 . S
C556 C554 1.378 . S
C556 C557 1.367 . S
C557 C556 1.367 . S
C557 C559 1.433 . S
C558 C554 1.350 . S
C558 C555 1.463 . S
C558 N562 1.427 . S
C559 H549 0.929 . S
C559 C557 1.433 . S
C559 N562 1.384 . S
C560 H551 0.929 . S
C560 C552 1.378 . S
C560 C555 1.350 . S
C561 H548 0.929 . S
C561 C553 1.433 . S
C561 N563 1.384 . S
N562 C558 1.427 . S
N562 C559 1.384 . S
N563 C555 1.427 . S
N563 C561 1.384 . S
H564 C570 0.930 . S
H565 C574 0.930 . S
H566 C579 0.929 . S
H567 C577 0.929 . S
H568 C572 0.929 . S
H569 C578 0.929 . S
C570 H564 0.930 . S
C570 C571 1.367 . S
C570 C578 1.378 . S
C571 C570 1.367 . S
C571 C579 1.433 1_545 S
C572 H568 0.929 . S
C572 C574 1.378 . S
C572 C576 1.366 . S
C573 C576 1.469 1_545 S
C573 C578 1.372 . S
C573 N581 1.401 1_545 S
C574 H565 0.930 . S
C574 C572 1.378 . S
C574 C575 1.395 . S
C575 C574 1.395 . S
C575 C577 1.409 1_565 S
C576 C572 1.366 . S
C576 C573 1.469 1_565 S
C576 N580 1.408 1_565 S
C577 H567 0.929 . S
C577 C575 1.409 1_545 S
C577 N580 1.384 . S
C578 H569 0.929 . S
C578 C570 1.378 . S
C578 C573 1.372 . S
C579 H566 0.929 . S
C579 C571 1.433 1_565 S
C579 N581 1.384 . S
N580 C576 1.408 1_545 S
N580 C577 1.384 . S
N581 C573 1.401 1_565 S
N581 C579 1.384 . S
H582 C588 0.930 . S
H583 C592 0.930 . S
H584 C597 0.929 . S
H585 C595 0.929 . S
H586 C590 0.929 . S
H587 C596 0.929 . S
C588 H582 0.930 . S
C588 C589 1.367 . S
C588 C596 1.378 . S
C589 C588 1.367 . S
C589 C597 1.433 . S
C590 H586 0.929 . S
C590 C592 1.378 . S
C590 C594 1.350 . S
C591 C594 1.463 . S
C591 C596 1.350 . S
C591 N599 1.427 . S
C592 H583 0.930 . S
C592 C590 1.378 . S
C592 C593 1.367 . S
C593 C592 1.367 . S
C593 C595 1.433 . S
C594 C590 1.350 . S
C594 C591 1.463 . S
C594 N598 1.427 . S
C595 H585 0.929 . S
C595 C593 1.433 . S
C595 N598 1.384 . S
C596 H587 0.929 . S
C596 C588 1.378 . S
C596 C591 1.350 . S
C597 H584 0.929 . S
C597 C589 1.433 . S
C597 N599 1.384 . S
N598 C594 1.427 . S
N598 C595 1.384 . S
N599 C591 1.427 . S
N599 C597 1.384 . S
H600 C606 0.930 . S
H601 C610 0.930 . S
H602 C615 0.925 1_554 S
H603 C613 0.929 . S
H604 C608 0.929 . S
H605 C614 0.929 . S
C606 H600 0.930 . S
C606 C607 1.367 . S
C606 C614 1.378 . S
C607 C606 1.367 . S
C607 C615 1.433 . S
C608 H604 0.929 . S
C608 C610 1.378 . S
C608 C612 1.350 . S
C609 C612 1.463 . S
C609 C614 1.350 . S
C609 N617 1.427 . S
C610 H601 0.930 . S
C610 C608 1.378 . S
C610 C611 1.367 . S
C611 C610 1.367 . S
C611 C613 1.433 . S
C612 C608 1.350 . S
C612 C609 1.463 . S
C612 N616 1.427 . S
C613 H603 0.929 . S
C613 C611 1.433 . S
C613 N616 1.384 . S
C614 H605 0.929 . S
C614 C606 1.378 . S
C614 C609 1.350 . S
C615 H602 0.925 1_556 S
C615 C607 1.433 . S
C615 N617 1.384 . S
N616 C612 1.427 . S
N616 C613 1.384 . S
N617 C609 1.427 . S
N617 C615 1.384 . S
H618 C624 0.930 . S
H619 C628 0.930 . S
H620 C633 0.929 . S
H621 C631 0.929 1_556 S
H622 C626 0.929 . S
H623 C632 0.929 . S
C624 H618 0.930 . S
C624 C625 1.367 . S
C624 C632 1.378 . S
C625 C624 1.367 . S
C625 C633 1.433 . S
C626 H622 0.929 . S
C626 C628 1.378 . S
C626 C630 1.350 . S
C627 C630 1.463 . S
C627 C632 1.350 . S
C627 N635 1.427 . S
C628 H619 0.930 . S
C628 C626 1.378 . S
C628 C629 1.367 . S
C629 C628 1.367 . S
C629 C631 1.433 . S
C630 C626 1.350 . S
C630 C627 1.463 . S
C630 N634 1.427 . S
C631 H621 0.929 1_554 S
C631 C629 1.433 . S
C631 N634 1.384 . S
C632 H623 0.929 . S
C632 C624 1.378 . S
C632 C627 1.350 . S
C633 H620 0.929 . S
C633 C625 1.433 . S
C633 N635 1.384 . S
N634 C630 1.427 . S
N634 C631 1.384 . S
N635 C627 1.427 . S
N635 C633 1.384 . S
H636 C642 0.930 . S
H637 C646 0.930 . S
H638 C651 0.929 . S
H639 C649 0.929 . S
H640 C644 0.929 . S
H641 C650 0.929 . S
C642 H636 0.930 . S
C642 C643 1.367 . S
C642 C650 1.378 . S
C643 C642 1.367 . S
C643 C651 1.433 . S
C644 H640 0.929 . S
C644 C646 1.378 . S
C644 C648 1.350 . S
C645 C648 1.463 . S
C645 C650 1.350 . S
C645 N653 1.427 . S
C646 H637 0.930 . S
C646 C644 1.378 . S
C646 C647 1.367 . S
C647 C646 1.367 . S
C647 C649 1.433 . S
C648 C644 1.350 . S
C648 C645 1.463 . S
C648 N652 1.427 . S
C649 H639 0.929 . S
C649 C647 1.433 . S
C649 N652 1.384 . S
C650 H641 0.929 . S
C650 C642 1.378 . S
C650 C645 1.350 . S
C651 H638 0.929 . S
C651 C643 1.433 . S
C651 N653 1.384 . S
N652 C648 1.427 . S
N652 C649 1.384 . S
N653 C645 1.427 . S
N653 C651 1.384 . S
H654 C660 0.930 . S
H655 C664 0.930 . S
H656 C669 0.929 . S
H657 C667 0.929 . S
H658 C662 0.929 . S
H659 C668 0.929 . S
C660 H654 0.930 . S
C660 C661 1.367 . S
C660 C668 1.378 . S
C661 C660 1.367 . S
C661 C669 1.433 1_455 S
C662 H658 0.929 . S
C662 C664 1.378 . S
C662 C666 1.361 . S
C663 C666 1.453 1_456 S
C663 C668 1.366 . S
C663 N671 1.417 1_455 S
C664 H655 0.930 . S
C664 C662 1.378 . S
C664 C665 1.367 . S
C665 C664 1.367 . S
C665 C667 1.433 1_655 S
C666 C662 1.361 . S
C666 C663 1.453 1_654 S
C666 N670 1.420 1_655 S
C667 H657 0.929 . S
C667 C665 1.433 1_455 S
C667 N670 1.384 . S
C668 H659 0.929 . S
C668 C660 1.378 . S
C668 C663 1.366 . S
C669 H656 0.929 . S
C669 C661 1.433 1_655 S
C669 N671 1.384 . S
N670 C666 1.420 1_455 S
N670 C667 1.384 . S
N671 C663 1.417 1_655 S
N671 C669 1.384 . S
C247 N14 0.584 . S
C251 N104 0.588 . S
C265 C10 1.507 . S
C269 N44 1.474 . S
C283 C40 2.756 . S
C287 C70 2.758 . S
C301 N74 1.472 . S
C305 C100 1.499 . S
C319 N6 0.594 . S
C323 N156 0.590 . S
C337 C1 1.506 . S
C341 N126 1.474 . S
C355 C121 2.757 . S
C359 C61 2.752 . S
C373 C151 1.505 . S
C377 N66 1.475 . S
C391 N194 0.587 . S
C395 N164 0.592 . S
C409 N134 1.482 . S
C413 C190 1.507 . S
C427 C220 2.756 . S
C431 C130 2.760 . S
C445 C160 1.507 . S
C449 N224 1.476 . S
C463 N96 0.600 . S
C467 N186 0.576 . S
C481 C181 1.506 . S
C485 N36 1.482 . S
C499 C31 2.755 . S
C503 C211 2.752 . S
C517 C91 1.506 . S
C521 N216 1.470 . S
C535 C16 1.281 . S
C539 C27 1.281 . S
C553 C57 1.235 . S
C557 C46 1.235 1_554 S
C571 C76 1.237 . S
C575 C87 1.230 . S
C589 C106 1.273 1_556 S
C593 C117 1.273 . S
C607 C147 1.234 1_556 S
C611 C136 1.234 . S
C625 C166 1.280 . S
C629 C177 1.280 1_554 S
C643 C207 1.279 . S
C647 C196 1.279 . S
C661 C237 1.235 . S
C665 C226 1.235 . S
