# Generated by pormake.
# Topology fne, (5)-cn, num edge types: 1
# Building blocks:
#     Node 0, Type 0, BuildingBlock: BEQFEK_clean_sbu_0, # of connection points: 5
#     Node 1, Type 0, BuildingBlock: BEQFEK_clean_sbu_0, # of connection points: 5
#     Node 2, Type 0, BuildingBlock: BEQFEK_clean_sbu_0, # of connection points: 5
#     Node 3, Type 0, BuildingBlock: BEQFEK_clean_sbu_0, # of connection points: 5
#     Node 4, Type 0, BuildingBlock: BEQFEK_clean_sbu_0, # of connection points: 5
#     Node 5, Type 0, BuildingBlock: BEQFEK_clean_sbu_0, # of connection points: 5
#     Edge 6, Type (0, 0), BuildingBlock: XIVTED_clean_linker_0, # of connection points: 2
#     Edge 7, Type (0, 0), BuildingBlock: XIVTED_clean_linker_0, # of connection points: 2
#     Edge 8, Type (0, 0), BuildingBlock: XIVTED_clean_linker_0, # of connection points: 2
#     Edge 9, Type (0, 0), BuildingBlock: XIVTED_clean_linker_0, # of connection points: 2
#     Edge 10, Type (0, 0), BuildingBlock: XIVTED_clean_linker_0, # of connection points: 2
#     Edge 11, Type (0, 0), BuildingBlock: XIVTED_clean_linker_0, # of connection points: 2
#     Edge 12, Type (0, 0), BuildingBlock: XIVTED_clean_linker_0, # of connection points: 2
#     Edge 13, Type (0, 0), BuildingBlock: XIVTED_clean_linker_0, # of connection points: 2
#     Edge 14, Type (0, 0), BuildingBlock: XIVTED_clean_linker_0, # of connection points: 2
#     Edge 15, Type (0, 0), BuildingBlock: XIVTED_clean_linker_0, # of connection points: 2
#     Edge 16, Type (0, 0), BuildingBlock: XIVTED_clean_linker_0, # of connection points: 2
#     Edge 17, Type (0, 0), BuildingBlock: XIVTED_clean_linker_0, # of connection points: 2
#     Edge 18, Type (0, 0), BuildingBlock: XIVTED_clean_linker_0, # of connection points: 2
#     Edge 19, Type (0, 0), BuildingBlock: XIVTED_clean_linker_0, # of connection points: 2
#     Edge 20, Type (0, 0), BuildingBlock: XIVTED_clean_linker_0, # of connection points: 2
# Relax obj value: 0.219
# Max RMSD: 0.180
# Mean RMSD: 0.180
data_MOF--net-fne--node1-BEQFEK_clean_sbu_0--edge1-XIVTED_clean_linker_0
_symmetry_space_group_name_H-M    P1
_symmetry_Int_Tables_number       1
_symmetry_cell_setting            triclinic
loop_
_symmetry_equiv_pos_as_xyz
'x, y, z'
_cell_length_a     44.488359
_cell_length_b     44.527184
_cell_length_c     18.856025
_cell_angle_alpha  90.050334
_cell_angle_beta   89.870547
_cell_angle_gamma 119.9557
loop_
_atom_site_label
_atom_site_type_symbol
_atom_site_fract_x
_atom_site_fract_y
_atom_site_fract_z
_atom_type_partial_charge
Co0 Co 0.53766 0.26297 0.9327 0.0
Co1 Co 0.51682 0.23091 0.08462 0.0
C2 C 0.58158 0.24169 0.01123 0.0
O3 O 0.57607 0.25472 0.95622 0.0
O4 O 0.56091 0.23192 0.06391 0.0
C5 C 0.57188 0.29246 0.80061 0.0
O6 O 0.59784 0.2904 0.82835 0.0
C7 C 0.5292 0.23698 0.2355 0.0
C8 C 0.47769 0.2003 0.2801 0.0
C9 C 0.51112 0.22536 0.29878 0.0
N10 N 0.50737 0.21993 0.18209 0.0
N11 N 0.4768 0.1975 0.20893 0.0
C12 C 0.56517 0.26683 0.22473 0.0
H13 H 0.56857 0.27693 0.16979 0.0
H14 H 0.57076 0.28795 0.26297 0.0
H15 H 0.58409 0.25788 0.23366 0.0
C16 C 0.53374 0.32044 0.00391 0.0
N17 N 0.53106 0.28894 0.00377 0.0
N18 N 0.52008 0.27438 0.06628 0.0
C19 C 0.51426 0.29568 0.10746 0.0
C20 C 0.52341 0.32582 0.06998 0.0
C21 C 0.54681 0.34499 0.94255 0.0
H22 H 0.52543 0.33742 0.90393 0.0
H23 H 0.56812 0.34337 0.91546 0.0
H24 H 0.55617 0.37205 0.95997 0.0
O25 O 0.49509 0.21734 0.92024 0.0
O26 O 0.4798 0.19412 0.02759 0.0
H27 H 0.4828 0.30049 0.18922 0.0
H28 H 0.51641 0.29275 0.22049 0.0
C29 C 0.49673 0.28609 0.17842 0.0
H30 H 0.47775 0.25799 0.18045 0.0
H31 H 0.45492 0.18162 0.1786 0.0
O32 O 0.5454 0.28492 0.83856 0.0
C33 C 0.47488 0.19259 0.96091 0.0
Co34 Co 0.48227 0.5738 0.27278 0.0
Co35 Co 0.48923 0.54723 0.42191 0.0
C36 C 0.54482 0.61455 0.3597 0.0
O37 O 0.52694 0.61283 0.30575 0.0
O38 O 0.53336 0.59068 0.40613 0.0
C39 C 0.49414 0.60641 0.13823 0.0
O40 O 0.52509 0.62687 0.16473 0.0
C41 C 0.49704 0.55706 0.5734 0.0
C42 C 0.47538 0.50375 0.61462 0.0
C43 C 0.4886 0.53794 0.63556 0.0
N44 N 0.4888 0.53517 0.51847 0.0
N45 N 0.47653 0.50341 0.54324 0.0
C46 C 0.50789 0.5946 0.56532 0.0
H47 H 0.50002 0.59944 0.51269 0.0
H48 H 0.49621 0.60296 0.6075 0.0
H49 H 0.53655 0.61037 0.56948 0.0
C50 C 0.41607 0.5619 0.33502 0.0
N51 N 0.44665 0.56265 0.33927 0.0
N52 N 0.44948 0.55149 0.40211 0.0
C53 C 0.42063 0.54316 0.44001 0.0
C54 C 0.39846 0.54932 0.39866 0.0
C55 C 0.40335 0.57081 0.26938 0.0
H56 H 0.40449 0.5554 0.22426 0.0
H57 H 0.4208 0.59859 0.25661 0.0
H58 H 0.37637 0.56562 0.2755 0.0
O59 O 0.48782 0.53293 0.25582 0.0
O60 O 0.48987 0.51167 0.361 0.0
H61 H 0.41771 0.50732 0.5192 0.0
H62 H 0.38942 0.52469 0.53651 0.0
C63 C 0.41502 0.5307 0.51529 0.0
H64 H 0.43486 0.55124 0.54926 0.0
H65 H 0.4674 0.48137 0.51146 0.0
O66 O 0.47062 0.58397 0.17817 0.0
C67 C 0.49006 0.51045 0.29356 0.0
Co68 Co 0.11581 0.52087 0.60991 0.0
Co69 Co 0.14984 0.52425 0.75605 0.0
C70 C 0.13838 0.58152 0.70105 0.0
O71 O 0.12053 0.56426 0.648 0.0
O72 O 0.152 0.56944 0.74318 0.0
C73 C 0.10433 0.5373 0.47436 0.0
O74 O 0.12317 0.56856 0.50088 0.0
C75 C 0.14946 0.53277 0.90738 0.0
C76 C 0.17844 0.50809 0.94817 0.0
C77 C 0.15969 0.52379 0.96934 0.0
N78 N 0.16139 0.52268 0.85222 0.0
N79 N 0.17922 0.50847 0.87669 0.0
C80 C 0.12449 0.54591 0.89997 0.0
H81 H 0.11014 0.53699 0.84919 0.0
H82 H 0.10564 0.53686 0.94451 0.0
H83 H 0.13916 0.57467 0.90007 0.0
C84 C 0.06172 0.45319 0.66753 0.0
N85 N 0.0914 0.48375 0.67332 0.0
N86 N 0.10524 0.48572 0.73594 0.0
C87 C 0.08462 0.4565 0.77244 0.0
C88 C 0.05654 0.43476 0.73011 0.0
C89 C 0.04041 0.44123 0.60137 0.0
H90 H 0.05757 0.44536 0.55523 0.0
H91 H 0.02785 0.45709 0.59283 0.0
H92 H 0.02025 0.41344 0.60424 0.0
O93 O 0.16246 0.52734 0.59087 0.0
O94 O 0.18473 0.52318 0.69328 0.0
H95 H 0.11581 0.44986 0.85026 0.0
H96 H 0.06985 0.42575 0.86953 0.0
C97 C 0.0911 0.45022 0.84747 0.0
H98 H 0.09326 0.47146 0.88137 0.0
H99 H 0.19062 0.49774 0.84472 0.0
O100 O 0.09444 0.51132 0.51511 0.0
C101 C 0.18639 0.52652 0.62612 0.0
Co102 Co 0.80461 0.1481 0.92534 0.0
Co103 Co 0.82975 0.18376 0.07252 0.0
C104 C 0.76452 0.17398 -0.00144 0.0
O105 O 0.76638 0.15669 0.94672 0.0
O106 O 0.78744 0.18575 0.04708 0.0
C107 C 0.77411 0.11884 0.79025 0.0
O108 O 0.74683 0.12015 0.81282 0.0
C109 C 0.81599 0.17755 0.22324 0.0
C110 C 0.86728 0.21367 0.26887 0.0
C111 C 0.83383 0.18827 0.2871 0.0
N112 N 0.83822 0.19483 0.17028 0.0
N113 N 0.86867 0.2169 0.19781 0.0
C114 C 0.77866 0.15099 0.21146 0.0
H115 H 0.76898 0.15624 0.16181 0.0
H116 H 0.77605 0.12497 0.20642 0.0
H117 H 0.76233 0.15085 0.25617 0.0
C118 C 0.80781 0.0912 0.00068 0.0
N119 N 0.81122 0.123 -0.00203 0.0
N120 N 0.8239 0.13902 0.05845 0.0
C121 C 0.83018 0.11844 0.10072 0.0
C122 C 0.81948 0.08721 0.06631 0.0
C123 C 0.79337 0.06531 0.94181 0.0
H124 H 0.81439 0.07081 0.90326 0.0
H125 H 0.77272 0.06761 0.9137 0.0
H126 H 0.7828 0.03852 0.96222 0.0
O127 O 0.84694 0.19372 0.9106 0.0
O128 O 0.86866 0.21801 0.01489 0.0
H129 H 0.86936 0.15795 0.16668 0.0
H130 H 0.86448 0.11566 0.17808 0.0
C131 C 0.85028 0.12988 0.1686 0.0
H132 H 0.83222 0.12446 0.21363 0.0
H133 H 0.89078 0.23287 0.16798 0.0
O134 O 0.79878 0.12578 0.83281 0.0
C135 C 0.87011 0.21827 0.9475 0.0
Co136 Co 0.85816 0.84166 0.288 0.0
Co137 Co 0.848 0.8673 0.43512 0.0
C138 C 0.79234 0.80228 0.36201 0.0
O139 O 0.81164 0.80309 0.3113 0.0
O140 O 0.80334 0.82573 0.40944 0.0
C141 C 0.85619 0.81061 0.15275 0.0
O142 O 0.82804 0.78323 0.1763 0.0
C143 C 0.84042 0.85429 0.58634 0.0
C144 C 0.856 0.90594 0.63067 0.0
C145 C 0.84748 0.87248 0.64984 0.0
N146 N 0.84576 0.8763 0.53278 0.0
N147 N 0.85444 0.90698 0.55953 0.0
C148 C 0.82911 0.81679 0.5754 0.0
H149 H 0.8148 0.80725 0.52499 0.0
H150 H 0.85225 0.81357 0.57231 0.0
H151 H 0.81222 0.80082 0.61966 0.0
C152 C 0.9182 0.84457 0.36208 0.0
N153 N 0.89009 0.84847 0.35976 0.0
N154 N 0.88691 0.86118 0.42044 0.0
C155 C 0.91369 0.86698 0.46255 0.0
C156 C 0.93397 0.85599 0.42766 0.0
C157 C 0.92901 0.82947 0.30318 0.0
H158 H 0.94498 0.85027 0.26468 0.0
H159 H 0.9058 0.80927 0.27502 0.0
H160 H 0.94457 0.81814 0.32356 0.0
O161 O 0.85489 0.88419 0.27331 0.0
O162 O 0.85184 0.90558 0.37762 0.0
H163 H 0.91378 0.906 0.52989 0.0
H164 H 0.95071 0.9002 0.54109 0.0
C165 C 0.92235 0.88656 0.53112 0.0
H166 H 0.90928 0.86826 0.5755 0.0
H167 H 0.86084 0.92896 0.52915 0.0
O168 O 0.87403 0.83551 0.19477 0.0
C169 C 0.85311 0.9072 0.31026 0.0
Co170 Co 0.22127 0.89157 0.63021 0.0
Co171 Co 0.18717 0.88452 0.77893 0.0
C172 C 0.19885 0.82875 0.7155 0.0
O173 O 0.21504 0.84659 0.66142 0.0
O174 O 0.18649 0.84026 0.76216 0.0
C175 C 0.24415 0.88175 0.49531 0.0
O176 O 0.23558 0.85113 0.52129 0.0
C177 C 0.19275 0.87914 0.92983 0.0
C178 C 0.15702 0.89538 0.97388 0.0
C179 C 0.18127 0.88593 -0.00708 0.0
N180 N 0.17629 0.88457 0.87614 0.0
N181 N 0.1545 0.89371 0.90262 0.0
C182 C 0.22192 0.87189 0.91951 0.0
H183 H 0.23275 0.87911 0.86514 0.0
H184 H 0.24277 0.88632 0.9589 0.0
H185 H 0.21196 0.84376 0.92688 0.0
C186 C 0.27792 0.95474 0.69718 0.0
N187 N 0.24632 0.92607 0.69806 0.0
N188 N 0.23125 0.92392 0.75942 0.0
C189 C 0.2524 0.95179 0.79883 0.0
C190 C 0.28286 0.97188 0.76134 0.0
C191 C 0.30308 0.96453 0.63706 0.0
H192 H 0.29669 0.97841 0.59627 0.0
H193 H 0.30085 0.94089 0.61232 0.0
H194 H 0.33011 0.9817 0.65524 0.0
O195 O 0.17493 0.88693 0.61435 0.0
O196 O 0.15121 0.88463 0.71935 0.0
H197 H 0.21452 0.95245 0.86866 0.0
H198 H 0.25744 0.98927 0.87775 0.0
C199 C 0.24252 0.9609 0.86821 0.0
H200 H 0.24819 0.94784 0.9119 0.0
H201 H 0.13911 0.90026 0.87201 0.0
O202 O 0.24316 0.90415 0.53551 0.0
C203 C 0.15012 0.88481 0.65194 0.0
H204 H 0.6104 0.22775 0.12553 0.0
H205 H 0.72232 0.17096 0.89017 0.0
H206 H 0.61861 0.23928 0.89774 0.0
H207 H 0.74314 0.19667 0.11225 0.0
H208 H 0.67876 0.18916 0.89372 0.0
H209 H 0.65493 0.21081 0.12333 0.0
C210 C 0.62174 0.22696 0.07515 0.0
C211 C 0.61078 0.23488 0.01169 0.0
C212 C 0.6929 0.19078 0.94161 0.0
C213 C 0.66115 0.21503 0.00881 0.0
C214 C 0.71752 0.18015 0.93979 0.0
C215 C 0.73641 0.18239 0.00098 0.0
C216 C 0.68682 0.20327 0.00526 0.0
C217 C 0.72928 0.19468 0.06375 0.0
C218 C 0.64711 0.2173 0.07397 0.0
C219 C 0.6264 0.23352 0.94793 0.0
N220 N 0.70495 0.20458 0.06434 0.0
N221 N 0.65058 0.22343 0.94804 0.0
H222 H 0.73717 0.80866 0.40177 0.0
H223 H 0.59944 0.61124 0.41441 0.0
H224 H 0.7647 0.734 0.32651 0.0
H225 H 0.57216 0.68184 0.31599 0.0
H226 H 0.66043 0.65732 0.41519 0.0
H227 H 0.67585 0.76311 0.40232 0.0
C228 C 0.73026 0.7826 0.38594 0.0
C229 C 0.75578 0.77485 0.36409 0.0
C230 C 0.64094 0.6626 0.39386 0.0
C231 C 0.68642 0.72311 0.36604 0.0
C232 C 0.60626 0.63659 0.39388 0.0
C233 C 0.5809 0.64294 0.36515 0.0
C234 C 0.65002 0.69533 0.3669 0.0
C235 C 0.59107 0.67604 0.33844 0.0
C236 C 0.69544 0.75687 0.38589 0.0
C237 C 0.74564 0.74087 0.34346 0.0
N238 N 0.62498 0.70128 0.34058 0.0
N239 N 0.7116 0.71598 0.34575 0.0
H240 H 0.09633 0.6084 0.67215 0.0
H241 H 0.24004 0.80249 0.6741 0.0
H242 H 0.19796 0.63598 0.75065 0.0
H243 H 0.14068 0.77348 0.76823 0.0
H244 H 0.22505 0.74132 0.67757 0.0
H245 H 0.11151 0.66947 0.68292 0.0
C246 C 0.12171 0.6273 0.69187 0.0
C247 C 0.14593 0.61736 0.71087 0.0
C248 C 0.20678 0.7486 0.69786 0.0
C249 C 0.16354 0.68658 0.7212 0.0
C250 C 0.21522 0.78326 0.69576 0.0
C251 C 0.19158 0.79283 0.72126 0.0
C252 C 0.17412 0.7235 0.72332 0.0
C253 C 0.15969 0.76706 0.74868 0.0
C254 C 0.13026 0.66189 0.69816 0.0
C255 C 0.17852 0.6427 0.73606 0.0
N256 N 0.15159 0.73335 0.74796 0.0
N257 N 0.18664 0.67637 0.73946 0.0
H258 H 0.47376 0.23742 0.39712 0.0
H259 H 0.61711 0.29484 0.69871 0.0
H260 H 0.57403 0.2469 0.36275 0.0
H261 H 0.51997 0.29343 0.72518 0.0
H262 H 0.6051 0.28408 0.57205 0.0
H263 H 0.49239 0.26239 0.51509 0.0
C264 C 0.49974 0.2448 0.41453 0.0
C265 C 0.52246 0.24027 0.37017 0.0
C266 C 0.58666 0.28664 0.60543 0.0
C267 C 0.54407 0.26895 0.50496 0.0
C268 C 0.5936 0.29299 0.67774 0.0
C269 C 0.56918 0.29434 0.72288 0.0
C270 C 0.55504 0.28146 0.57834 0.0
C271 C 0.53929 0.29201 0.6926 0.0
C272 C 0.51049 0.25933 0.48161 0.0
C273 C 0.55592 0.25049 0.39494 0.0
N274 N 0.53282 0.28514 0.62243 0.0
N275 N 0.56567 0.26418 0.46096 0.0
H276 H 0.43839 0.50536 0.73537 0.0
H277 H 0.54056 0.64617 0.03542 0.0
H278 H 0.53726 0.59762 0.7006 0.0
H279 H 0.43765 0.55836 0.06387 0.0
H280 H 0.53756 0.63207 0.90959 0.0
H281 H 0.43633 0.52615 0.85429 0.0
C282 C 0.45969 0.53 0.75294 0.0
C283 C 0.4879 0.54996 0.70812 0.0
C284 C 0.51545 0.61615 0.94318 0.0
C285 C 0.48572 0.57403 0.84372 0.0
C286 C 0.51707 0.6243 0.01501 0.0
C287 C 0.48956 0.60307 0.06052 0.0
C288 C 0.48621 0.58644 0.91685 0.0
C289 C 0.45966 0.57524 0.03096 0.0
C290 C 0.45837 0.54201 0.82052 0.0
C291 C 0.51474 0.58175 0.73313 0.0
N292 N 0.459 0.56742 0.96118 0.0
N293 N 0.51306 0.59277 0.79944 0.0
H294 H 0.15627 0.57743 0.0318 0.0
H295 H 0.0843 0.47737 0.39985 0.0
H296 H 0.13854 0.47452 0.07235 0.0
H297 H 0.12168 0.58668 0.3721 0.0
H298 H 0.09406 0.47294 0.27365 0.0
H299 H 0.13546 0.57875 0.15128 0.0
C300 C 0.14776 0.55503 0.06582 0.0
C301 C 0.14881 0.52571 0.04228 0.0
C302 C 0.09974 0.4978 0.29509 0.0
C303 C 0.12519 0.52705 0.17882 0.0
C304 C 0.09389 0.5003 0.367 0.0
C305 C 0.10268 0.53257 0.39672 0.0
C306 C 0.1143 0.52773 0.25271 0.0
C307 C 0.11494 0.56137 0.35155 0.0
C308 C 0.13598 0.55581 0.13398 0.0
C309 C 0.13823 0.49766 0.0888 0.0
N310 N 0.12073 0.55835 0.2819 0.0
N311 N 0.12675 0.49897 0.15491 0.0
H312 H 0.83673 0.14163 0.72616 0.0
H313 H 0.78299 0.12195 0.3285 0.0
H314 H 0.72797 0.10007 0.67966 0.0
H315 H 0.861 0.22088 0.41215 0.0
H316 H 0.76603 0.10061 0.44906 0.0
H317 H 0.85018 0.15573 0.601 0.0
C318 C 0.81553 0.13464 0.68951 0.0
C319 C 0.78112 0.11998 0.71353 0.0
C320 C 0.78655 0.12707 0.44044 0.0
C321 C 0.79661 0.13586 0.57067 0.0
C322 C 0.79591 0.13971 0.37152 0.0
C323 C 0.82245 0.17408 0.35953 0.0
C324 C 0.80494 0.14836 0.49742 0.0
C325 C 0.84004 0.19447 0.4186 0.0
C326 C 0.82337 0.143 0.61835 0.0
C327 C 0.75483 0.11161 0.66334 0.0
N328 N 0.83112 0.18122 0.48507 0.0
N329 N 0.76314 0.11978 0.59382 0.0
H330 H 0.84181 0.90088 0.7731 0.0
H331 H 0.82951 0.76379 0.04309 0.0
H332 H 0.86099 0.82074 0.69459 0.0
H333 H 0.89331 0.87315 0.08744 0.0
H334 H 0.82953 0.77793 0.91681 0.0
H335 H 0.84827 0.88516 0.894 0.0
C336 C 0.8468 0.87966 0.78093 0.0
C337 C 0.84955 0.86138 0.72298 0.0
C338 C 0.84388 0.79858 0.95452 0.0
C339 C 0.85663 0.84323 0.86104 0.0
C340 C 0.84398 0.7906 0.02619 0.0
C341 C 0.86128 0.81731 0.07582 0.0
C342 C 0.86029 0.83342 0.93345 0.0
C343 C 0.87959 0.85168 0.05119 0.0
C344 C 0.85057 0.87085 0.84983 0.0
C345 C 0.85656 0.83439 0.73679 0.0
N346 N 0.87798 0.8588 0.98193 0.0
N347 N 0.85944 0.82582 0.80457 0.0
H348 H 0.24132 0.83734 0.39146 0.0
H349 H 0.19436 0.93424 0.09458 0.0
H350 H 0.24973 0.93739 0.4221 0.0
H351 H 0.19882 0.84114 0.05488 0.0
H352 H 0.21761 0.93727 0.21338 0.0
H353 H 0.23095 0.84066 0.26537 0.0
C354 C 0.24163 0.8603 0.37151 0.0
C355 C 0.2458 0.88685 0.41767 0.0
C356 C 0.21384 0.91634 0.1785 0.0
C357 C 0.23333 0.89052 0.2737 0.0
C358 C 0.2003 0.91446 0.11098 0.0
C359 C 0.19497 0.88757 0.06485 0.0
C360 C 0.22159 0.89081 0.20039 0.0
C361 C 0.2032 0.86268 0.08838 0.0
C362 C 0.23554 0.8621 0.29951 0.0
C363 C 0.24623 0.9161 0.38868 0.0
N364 N 0.21594 0.86479 0.15473 0.0
N365 N 0.23949 0.91689 0.31875 0.0
H366 H 0.55005 0.35901 0.19407 0.0
H367 H 0.48202 0.49338 0.15251 0.0
H368 H 0.49522 0.3619 0.00835 0.0
H369 H 0.50913 0.46647 0.35305 0.0
H370 H 0.49273 0.45058 0.09383 0.0
H371 H 0.5426 0.40485 0.24732 0.0
C372 C 0.5366 0.36955 0.16442 0.0
C373 C 0.52285 0.35655 0.09727 0.0
C374 C 0.49623 0.45404 0.15067 0.0
C375 C 0.51428 0.40895 0.15752 0.0
C376 C 0.49012 0.47842 0.18426 0.0
C377 C 0.49466 0.48348 0.25789 0.0
C378 C 0.50732 0.43491 0.19088 0.0
C379 C 0.50516 0.46336 0.29629 0.0
C380 C 0.53229 0.39561 0.19481 0.0
C381 C 0.50623 0.37141 0.06027 0.0
N382 N 0.51129 0.44008 0.26225 0.0
N383 N 0.5022 0.39681 0.09113 0.0
H384 H 0.34393 0.48988 0.44956 0.0
H385 H 0.21463 0.56164 0.50332 0.0
H386 H 0.37476 0.59526 0.39366 0.0
H387 H 0.22608 0.4977 0.66055 0.0
H388 H 0.26455 0.56582 0.43869 0.0
H389 H 0.29037 0.48324 0.50176 0.0
C390 C 0.33914 0.51146 0.44769 0.0
C391 C 0.36389 0.54338 0.41895 0.0
C392 C 0.25597 0.55086 0.48726 0.0
C393 C 0.30281 0.53572 0.4764 0.0
C394 C 0.2276 0.5484 0.52401 0.0
C395 C 0.21648 0.52943 0.58744 0.0
C396 C 0.27255 0.53342 0.51321 0.0
C397 C 0.23411 0.5128 0.61216 0.0
C398 C 0.30877 0.50766 0.47743 0.0
C399 C 0.35627 0.57032 0.41589 0.0
N400 N 0.26118 0.51493 0.57457 0.0
N401 N 0.3263 0.56595 0.44468 0.0
H402 H 0.93691 0.26005 -0.00833 0.0
H403 H 0.98664 0.4091 0.71928 0.0
H404 H 0.86683 0.24448 0.81945 0.0
H405 H 0.06248 0.38103 0.78238 0.0
H406 H 0.94053 0.35331 0.76569 0.0
H407 H 0.98276 0.31053 0.92868 0.0
C408 C 0.93125 0.26729 0.9407 0.0
C409 C 0.89823 0.2482 0.91046 0.0
C410 C 0.9673 0.35937 0.76857 0.0
C411 C 0.9499 0.30574 0.83946 0.0
C412 C -0.00654 0.39096 0.74194 0.0
C413 C 0.02826 0.39969 0.74829 0.0
C414 C 0.97631 0.33704 0.8029 0.0
C415 C 0.03591 0.37546 0.77821 0.0
C416 C 0.95734 0.29581 0.90476 0.0
C417 C 0.89211 0.25849 0.8442 0.0
N418 N 0.01017 0.34546 0.80589 0.0
N419 N 0.91762 0.28695 0.8112 0.0
H420 H 0.84554 0.04912 0.00444 0.0
H421 H 0.83747 0.95401 0.36856 0.0
H422 H 0.79671 0.05775 0.19509 0.0
H423 H 0.86054 0.92265 0.1683 0.0
H424 H 0.82724 -0.00408 0.30596 0.0
H425 H 0.85398 0.00445 0.06248 0.0
C426 C 0.83613 0.04116 0.05804 0.0
C427 C 0.82069 0.05714 0.09548 0.0
C428 C 0.83455 0.97987 0.27567 0.0
C429 C 0.83088 0.00713 0.16234 0.0
C430 C 0.84066 0.95611 0.31149 0.0
C431 C 0.84979 0.93471 0.27365 0.0
C432 C 0.83782 0.98248 0.2015 0.0
C433 C 0.85343 0.93855 0.1996 0.0
C434 C 0.84117 0.01597 0.09129 0.0
C435 C 0.80923 0.04633 0.16497 0.0
N436 N 0.84744 0.96201 0.16588 0.0
N437 N 0.81483 0.02222 0.19641 0.0
H438 H 0.14087 0.89145 0.51025 0.0
H439 H 0.94045 0.8328 0.55624 0.0
H440 H 0.08783 0.8686 0.71214 0.0
H441 H -0.00245 0.88003 0.36449 0.0
H442 H -0.00681 0.83919 0.6098 0.0
H443 H 0.08774 0.88201 0.45208 0.0
C444 C 0.11812 0.88455 0.5424 0.0
C445 C 0.11882 0.88085 0.61628 0.0
C446 C -0.00574 0.84808 0.55592 0.0
C447 C 0.058 0.86968 0.54988 0.0
C448 C 0.96419 0.84442 0.5254 0.0
C449 C 0.96492 0.85628 0.45631 0.0
C450 C 0.02529 0.86357 0.5169 0.0
C451 C -0.00396 0.87049 0.4179 0.0
C452 C 0.08784 0.87916 0.50909 0.0
C453 C 0.08857 0.87188 0.65516 0.0
N454 N 0.02518 0.87394 0.44892 0.0
N455 N 0.05938 0.86647 0.62144 0.0
H456 H 0.31535 0.98121 0.88752 0.0
H457 H 0.45307 0.18122 0.82254 0.0
H458 H 0.31992 0.03431 0.69325 0.0
H459 H 0.43195 0.13107 0.02721 0.0
H460 H 0.40783 0.12708 0.7707 0.0
H461 H 0.36245 0.03515 0.93541 0.0
C462 C 0.32645 0.00435 0.85495 0.0
C463 C 0.31366 0.0036 0.7868 0.0
C464 C 0.41308 0.12802 0.82696 0.0
C465 C 0.36755 0.06532 0.84088 0.0
C466 C 0.43885 0.1589 0.85667 0.0
C467 C 0.44633 0.16071 0.92942 0.0
C468 C 0.39486 0.0987 0.87019 0.0
C469 C 0.42707 0.13096 0.97096 0.0
C470 C 0.35328 0.03509 0.88223 0.0
C471 C 0.32924 0.03396 0.74604 0.0
N472 N 0.40233 0.10117 0.94068 0.0
N473 N 0.35537 0.06378 0.77389 0.0
loop_
_geom_bond_atom_site_label_1
_geom_bond_atom_site_label_2
_geom_bond_distance
_geom_bond_site_symmetry_2
_ccdc_geom_bond_type
Co0 O3 1.970 . S
Co0 N17 1.989 1_556 S
Co0 O25 1.967 . S
Co0 O32 1.920 . S
Co1 O4 1.966 . S
Co1 N10 2.022 . S
Co1 N18 1.993 . S
Co1 O26 1.941 . S
C2 O3 1.258 1_554 S
C2 O4 1.263 . S
O3 Co0 1.970 . S
O3 C2 1.258 1_556 S
O4 Co1 1.966 . S
O4 C2 1.263 . S
C5 O6 1.235 . S
C5 O32 1.289 . S
O6 C5 1.235 . S
C7 C9 1.400 . S
C7 N10 1.351 . S
C7 C12 1.501 . S
C8 C9 1.387 . S
C8 N11 1.341 . S
C9 C7 1.400 . S
C9 C8 1.387 . S
N10 Co1 2.022 . S
N10 C7 1.351 . S
N10 N11 1.365 . S
N11 C8 1.341 . S
N11 N10 1.365 . S
N11 H31 0.862 . S
C12 C7 1.501 . S
C12 H13 0.961 . S
C12 H14 0.961 . S
C12 H15 0.960 . S
H13 C12 0.961 . S
H14 C12 0.961 . S
H15 C12 0.960 . S
C16 N17 1.342 1_556 S
C16 C20 1.401 1_556 S
C16 C21 1.499 . S
N17 Co0 1.989 1_554 S
N17 C16 1.342 1_554 S
N17 N18 1.388 . S
N18 Co1 1.993 . S
N18 N17 1.388 . S
N18 C19 1.346 . S
C19 N18 1.346 . S
C19 C20 1.396 . S
C19 C29 1.510 . S
C20 C16 1.401 1_554 S
C20 C19 1.396 . S
C21 C16 1.499 . S
C21 H22 0.959 . S
C21 H23 0.960 . S
C21 H24 0.961 . S
H22 C21 0.959 . S
H23 C21 0.960 . S
H24 C21 0.961 . S
O25 Co0 1.967 . S
O25 C33 1.250 1_556 S
O26 Co1 1.941 . S
O26 C33 1.277 . S
H27 C29 0.959 . S
H28 C29 0.961 . S
C29 C19 1.510 . S
C29 H27 0.959 . S
C29 H28 0.961 . S
C29 H30 0.960 . S
H30 C29 0.960 . S
H31 N11 0.862 . S
O32 Co0 1.920 . S
O32 C5 1.289 . S
C33 O25 1.250 1_554 S
C33 O26 1.277 . S
Co34 O37 1.970 . S
Co34 N51 1.989 . S
Co34 O59 1.967 . S
Co34 O66 1.920 . S
Co35 O38 1.966 . S
Co35 N44 2.022 . S
Co35 N52 1.993 . S
Co35 O60 1.941 . S
C36 O37 1.258 . S
C36 O38 1.263 . S
O37 Co34 1.970 . S
O37 C36 1.258 . S
O38 Co35 1.966 . S
O38 C36 1.263 . S
C39 O40 1.235 . S
C39 O66 1.289 . S
O40 C39 1.235 . S
C41 C43 1.400 . S
C41 N44 1.351 . S
C41 C46 1.501 . S
C42 C43 1.387 . S
C42 N45 1.341 . S
C43 C41 1.400 . S
C43 C42 1.387 . S
N44 Co35 2.022 . S
N44 C41 1.351 . S
N44 N45 1.365 . S
N45 C42 1.341 . S
N45 N44 1.365 . S
N45 H65 0.862 . S
C46 C41 1.501 . S
C46 H47 0.961 . S
C46 H48 0.961 . S
C46 H49 0.960 . S
H47 C46 0.961 . S
H48 C46 0.961 . S
H49 C46 0.960 . S
C50 N51 1.342 . S
C50 C54 1.401 . S
C50 C55 1.499 . S
N51 Co34 1.989 . S
N51 C50 1.342 . S
N51 N52 1.388 . S
N52 Co35 1.993 . S
N52 N51 1.388 . S
N52 C53 1.346 . S
C53 N52 1.346 . S
C53 C54 1.396 . S
C53 C63 1.510 . S
C54 C50 1.401 . S
C54 C53 1.396 . S
C55 C50 1.499 . S
C55 H56 0.959 . S
C55 H57 0.960 . S
C55 H58 0.961 . S
H56 C55 0.959 . S
H57 C55 0.960 . S
H58 C55 0.961 . S
O59 Co34 1.967 . S
O59 C67 1.258 . S
O60 Co35 1.941 . S
O60 C67 1.266 . S
H61 C63 0.959 . S
H62 C63 0.961 . S
C63 C53 1.510 . S
C63 H61 0.959 . S
C63 H62 0.961 . S
C63 H64 0.960 . S
H64 C63 0.960 . S
H65 N45 0.862 . S
O66 Co34 1.920 . S
O66 C39 1.289 . S
C67 O59 1.258 . S
C67 O60 1.266 . S
Co68 O71 1.970 . S
Co68 N85 1.989 . S
Co68 O93 1.967 . S
Co68 O100 1.920 . S
Co69 O72 1.966 . S
Co69 N78 2.022 . S
Co69 N86 1.993 . S
Co69 O94 1.941 . S
C70 O71 1.258 . S
C70 O72 1.263 . S
O71 Co68 1.970 . S
O71 C70 1.258 . S
O72 Co69 1.966 . S
O72 C70 1.263 . S
C73 O74 1.235 . S
C73 O100 1.289 . S
O74 C73 1.235 . S
C75 C77 1.400 1_556 S
C75 N78 1.351 . S
C75 C80 1.501 . S
C76 C77 1.387 1_556 S
C76 N79 1.341 . S
C77 C75 1.400 1_554 S
C77 C76 1.387 1_554 S
N78 Co69 2.022 . S
N78 C75 1.351 . S
N78 N79 1.365 . S
N79 C76 1.341 . S
N79 N78 1.365 . S
N79 H99 0.862 . S
C80 C75 1.501 . S
C80 H81 0.961 . S
C80 H82 0.961 . S
C80 H83 0.960 . S
H81 C80 0.961 . S
H82 C80 0.961 . S
H83 C80 0.960 . S
C84 N85 1.342 . S
C84 C88 1.401 . S
C84 C89 1.499 . S
N85 Co68 1.989 . S
N85 C84 1.342 . S
N85 N86 1.388 . S
N86 Co69 1.993 . S
N86 N85 1.388 . S
N86 C87 1.346 . S
C87 N86 1.346 . S
C87 C88 1.396 . S
C87 C97 1.510 . S
C88 C84 1.401 . S
C88 C87 1.396 . S
C89 C84 1.499 . S
C89 H90 0.959 . S
C89 H91 0.960 . S
C89 H92 0.961 . S
H90 C89 0.959 . S
H91 C89 0.960 . S
H92 C89 0.961 . S
O93 Co68 1.967 . S
O93 C101 1.258 . S
O94 Co69 1.941 . S
O94 C101 1.266 . S
H95 C97 0.959 . S
H96 C97 0.961 . S
C97 C87 1.510 . S
C97 H95 0.959 . S
C97 H96 0.961 . S
C97 H98 0.960 . S
H98 C97 0.960 . S
H99 N79 0.862 . S
O100 Co68 1.920 . S
O100 C73 1.289 . S
C101 O93 1.258 . S
C101 O94 1.266 . S
Co102 O105 1.970 . S
Co102 N119 1.989 1_556 S
Co102 O127 1.967 . S
Co102 O134 1.920 . S
Co103 O106 1.966 . S
Co103 N112 2.022 . S
Co103 N120 1.993 . S
Co103 O128 1.941 . S
C104 O105 1.258 1_554 S
C104 O106 1.263 . S
O105 Co102 1.970 . S
O105 C104 1.258 1_556 S
O106 Co103 1.966 . S
O106 C104 1.263 . S
C107 O108 1.235 . S
C107 O134 1.289 . S
O108 C107 1.235 . S
C109 C111 1.400 . S
C109 N112 1.351 . S
C109 C114 1.501 . S
C110 C111 1.387 . S
C110 N113 1.341 . S
C111 C109 1.400 . S
C111 C110 1.387 . S
N112 Co103 2.022 . S
N112 C109 1.351 . S
N112 N113 1.365 . S
N113 C110 1.341 . S
N113 N112 1.365 . S
N113 H133 0.862 . S
C114 C109 1.501 . S
C114 H115 0.961 . S
C114 H116 0.961 . S
C114 H117 0.960 . S
H115 C114 0.961 . S
H116 C114 0.961 . S
H117 C114 0.960 . S
C118 N119 1.342 1_556 S
C118 C122 1.401 1_556 S
C118 C123 1.499 . S
N119 Co102 1.989 1_554 S
N119 C118 1.342 1_554 S
N119 N120 1.388 . S
N120 Co103 1.993 . S
N120 N119 1.388 . S
N120 C121 1.346 . S
C121 N120 1.346 . S
C121 C122 1.396 . S
C121 C131 1.510 . S
C122 C118 1.401 1_554 S
C122 C121 1.396 . S
C123 C118 1.499 . S
C123 H124 0.959 . S
C123 H125 0.960 . S
C123 H126 0.961 . S
H124 C123 0.959 . S
H125 C123 0.960 . S
H126 C123 0.961 . S
O127 Co102 1.967 . S
O127 C135 1.250 1_556 S
O128 Co103 1.941 . S
O128 C135 1.277 . S
H129 C131 0.959 . S
H130 C131 0.961 . S
C131 C121 1.510 . S
C131 H129 0.959 . S
C131 H130 0.961 . S
C131 H132 0.960 . S
H132 C131 0.960 . S
H133 N113 0.862 . S
O134 Co102 1.920 . S
O134 C107 1.289 . S
C135 O127 1.250 1_554 S
C135 O128 1.277 . S
Co136 O139 1.970 . S
Co136 N153 1.989 . S
Co136 O161 1.967 . S
Co136 O168 1.920 . S
Co137 O140 1.966 . S
Co137 N146 2.022 . S
Co137 N154 1.993 . S
Co137 O162 1.941 . S
C138 O139 1.258 . S
C138 O140 1.263 . S
O139 Co136 1.970 . S
O139 C138 1.258 . S
O140 Co137 1.966 . S
O140 C138 1.263 . S
C141 O142 1.235 . S
C141 O168 1.289 . S
O142 C141 1.235 . S
C143 C145 1.400 . S
C143 N146 1.351 . S
C143 C148 1.501 . S
C144 C145 1.387 . S
C144 N147 1.341 . S
C145 C143 1.400 . S
C145 C144 1.387 . S
N146 Co137 2.022 . S
N146 C143 1.351 . S
N146 N147 1.365 . S
N147 C144 1.341 . S
N147 N146 1.365 . S
N147 H167 0.862 . S
C148 C143 1.501 . S
C148 H149 0.961 . S
C148 H150 0.961 . S
C148 H151 0.960 . S
H149 C148 0.961 . S
H150 C148 0.961 . S
H151 C148 0.960 . S
C152 N153 1.342 . S
C152 C156 1.401 . S
C152 C157 1.499 . S
N153 Co136 1.989 . S
N153 C152 1.342 . S
N153 N154 1.388 . S
N154 Co137 1.993 . S
N154 N153 1.388 . S
N154 C155 1.346 . S
C155 N154 1.346 . S
C155 C156 1.396 . S
C155 C165 1.510 . S
C156 C152 1.401 . S
C156 C155 1.396 . S
C157 C152 1.499 . S
C157 H158 0.959 . S
C157 H159 0.960 . S
C157 H160 0.961 . S
H158 C157 0.959 . S
H159 C157 0.960 . S
H160 C157 0.961 . S
O161 Co136 1.967 . S
O161 C169 1.258 . S
O162 Co137 1.941 . S
O162 C169 1.266 . S
H163 C165 0.959 . S
H164 C165 0.961 . S
C165 C155 1.510 . S
C165 H163 0.959 . S
C165 H164 0.961 . S
C165 H166 0.960 . S
H166 C165 0.960 . S
H167 N147 0.862 . S
O168 Co136 1.920 . S
O168 C141 1.289 . S
C169 O161 1.258 . S
C169 O162 1.266 . S
Co170 O173 1.970 . S
Co170 N187 1.989 . S
Co170 O195 1.967 . S
Co170 O202 1.920 . S
Co171 O174 1.966 . S
Co171 N180 2.022 . S
Co171 N188 1.993 . S
Co171 O196 1.941 . S
C172 O173 1.258 . S
C172 O174 1.263 . S
O173 Co170 1.970 . S
O173 C172 1.258 . S
O174 Co171 1.966 . S
O174 C172 1.263 . S
C175 O176 1.235 . S
C175 O202 1.289 . S
O176 C175 1.235 . S
C177 C179 1.400 1_556 S
C177 N180 1.351 . S
C177 C182 1.501 . S
C178 C179 1.387 1_556 S
C178 N181 1.341 . S
C179 C177 1.400 1_554 S
C179 C178 1.387 1_554 S
N180 Co171 2.022 . S
N180 C177 1.351 . S
N180 N181 1.365 . S
N181 C178 1.341 . S
N181 N180 1.365 . S
N181 H201 0.862 . S
C182 C177 1.501 . S
C182 H183 0.961 . S
C182 H184 0.961 . S
C182 H185 0.960 . S
H183 C182 0.961 . S
H184 C182 0.961 . S
H185 C182 0.960 . S
C186 N187 1.342 . S
C186 C190 1.401 . S
C186 C191 1.499 . S
N187 Co170 1.989 . S
N187 C186 1.342 . S
N187 N188 1.388 . S
N188 Co171 1.993 . S
N188 N187 1.388 . S
N188 C189 1.346 . S
C189 N188 1.346 . S
C189 C190 1.396 . S
C189 C199 1.510 . S
C190 C186 1.401 . S
C190 C189 1.396 . S
C191 C186 1.499 . S
C191 H192 0.959 . S
C191 H193 0.960 . S
C191 H194 0.961 1_565 S
H192 C191 0.959 . S
H193 C191 0.960 . S
H194 C191 0.961 1_545 S
O195 Co170 1.967 . S
O195 C203 1.258 . S
O196 Co171 1.941 . S
O196 C203 1.266 . S
H197 C199 0.959 . S
H198 C199 0.961 . S
C199 C189 1.510 . S
C199 H197 0.959 . S
C199 H198 0.961 . S
C199 H200 0.960 . S
H200 C199 0.960 . S
H201 N181 0.862 . S
O202 Co170 1.920 . S
O202 C175 1.289 . S
C203 O195 1.258 . S
C203 O196 1.266 . S
H204 C210 0.930 . S
H205 C214 0.930 . S
H206 C219 0.929 . S
H207 C217 0.929 . S
H208 C212 0.929 . S
H209 C218 0.929 . S
C210 H204 0.930 . S
C210 C211 1.367 . S
C210 C218 1.378 . S
C211 C210 1.367 . S
C211 C219 1.433 1_554 S
C212 H208 0.929 . S
C212 C214 1.378 . S
C212 C216 1.350 1_556 S
C213 C216 1.463 . S
C213 C218 1.350 . S
C213 N221 1.427 1_554 S
C214 H205 0.930 . S
C214 C212 1.378 . S
C214 C215 1.367 1_556 S
C215 C214 1.367 1_554 S
C215 C217 1.433 . S
C216 C212 1.350 1_554 S
C216 C213 1.463 . S
C216 N220 1.427 . S
C217 H207 0.929 . S
C217 C215 1.433 . S
C217 N220 1.384 . S
C218 H209 0.929 . S
C218 C210 1.378 . S
C218 C213 1.350 . S
C219 H206 0.929 . S
C219 C211 1.433 1_556 S
C219 N221 1.384 . S
N220 C216 1.427 . S
N220 C217 1.384 . S
N221 C213 1.427 1_556 S
N221 C219 1.384 . S
H222 C228 0.930 . S
H223 C232 0.930 . S
H224 C237 0.929 . S
H225 C235 0.929 . S
H226 C230 0.929 . S
H227 C236 0.929 . S
C228 H222 0.930 . S
C228 C229 1.367 . S
C228 C236 1.378 . S
C229 C228 1.367 . S
C229 C237 1.433 . S
C230 H226 0.929 . S
C230 C232 1.378 . S
C230 C234 1.350 . S
C231 C234 1.463 . S
C231 C236 1.350 . S
C231 N239 1.427 . S
C232 H223 0.930 . S
C232 C230 1.378 . S
C232 C233 1.367 . S
C233 C232 1.367 . S
C233 C235 1.433 . S
C234 C230 1.350 . S
C234 C231 1.463 . S
C234 N238 1.427 . S
C235 H225 0.929 . S
C235 C233 1.433 . S
C235 N238 1.384 . S
C236 H227 0.929 . S
C236 C228 1.378 . S
C236 C231 1.350 . S
C237 H224 0.929 . S
C237 C229 1.433 . S
C237 N239 1.384 . S
N238 C234 1.427 . S
N238 C235 1.384 . S
N239 C231 1.427 . S
N239 C237 1.384 . S
H240 C246 0.930 . S
H241 C250 0.930 . S
H242 C255 0.929 . S
H243 C253 0.929 . S
H244 C248 0.929 . S
H245 C254 0.929 . S
C246 H240 0.930 . S
C246 C247 1.367 . S
C246 C254 1.378 . S
C247 C246 1.367 . S
C247 C255 1.433 . S
C248 H244 0.929 . S
C248 C250 1.378 . S
C248 C252 1.350 . S
C249 C252 1.463 . S
C249 C254 1.350 . S
C249 N257 1.427 . S
C250 H241 0.930 . S
C250 C248 1.378 . S
C250 C251 1.367 . S
C251 C250 1.367 . S
C251 C253 1.433 . S
C252 C248 1.350 . S
C252 C249 1.463 . S
C252 N256 1.427 . S
C253 H243 0.929 . S
C253 C251 1.433 . S
C253 N256 1.384 . S
C254 H245 0.929 . S
C254 C246 1.378 . S
C254 C249 1.350 . S
C255 H242 0.929 . S
C255 C247 1.433 . S
C255 N257 1.384 . S
N256 C252 1.427 . S
N256 C253 1.384 . S
N257 C249 1.427 . S
N257 C255 1.384 . S
H258 C264 0.930 . S
H259 C268 0.930 . S
H260 C273 0.929 . S
H261 C271 0.929 . S
H262 C266 0.929 . S
H263 C272 0.929 . S
C264 H258 0.930 . S
C264 C265 1.367 . S
C264 C272 1.378 . S
C265 C264 1.367 . S
C265 C273 1.433 . S
C266 H262 0.929 . S
C266 C268 1.378 . S
C266 C270 1.350 . S
C267 C270 1.463 . S
C267 C272 1.350 . S
C267 N275 1.427 . S
C268 H259 0.930 . S
C268 C266 1.378 . S
C268 C269 1.367 . S
C269 C268 1.367 . S
C269 C271 1.433 . S
C270 C266 1.350 . S
C270 C267 1.463 . S
C270 N274 1.427 . S
C271 H261 0.929 . S
C271 C269 1.433 . S
C271 N274 1.384 . S
C272 H263 0.929 . S
C272 C264 1.378 . S
C272 C267 1.350 . S
C273 H260 0.929 . S
C273 C265 1.433 . S
C273 N275 1.384 . S
N274 C270 1.427 . S
N274 C271 1.384 . S
N275 C267 1.427 . S
N275 C273 1.384 . S
H276 C282 0.930 . S
H277 C286 0.930 . S
H278 C291 0.929 . S
H279 C289 0.929 . S
H280 C284 0.929 . S
H281 C290 0.929 . S
C282 H276 0.930 . S
C282 C283 1.367 . S
C282 C290 1.378 . S
C283 C282 1.367 . S
C283 C291 1.433 . S
C284 H280 0.929 . S
C284 C286 1.378 1_556 S
C284 C288 1.350 . S
C285 C288 1.463 . S
C285 C290 1.350 . S
C285 N293 1.427 . S
C286 H277 0.930 . S
C286 C284 1.378 1_554 S
C286 C287 1.367 . S
C287 C286 1.367 . S
C287 C289 1.433 . S
C288 C284 1.350 . S
C288 C285 1.463 . S
C288 N292 1.427 . S
C289 H279 0.929 . S
C289 C287 1.433 . S
C289 N292 1.384 1_554 S
C290 H281 0.929 . S
C290 C282 1.378 . S
C290 C285 1.350 . S
C291 H278 0.929 . S
C291 C283 1.433 . S
C291 N293 1.384 . S
N292 C288 1.427 . S
N292 C289 1.384 1_556 S
N293 C285 1.427 . S
N293 C291 1.384 . S
H294 C300 0.930 . S
H295 C304 0.930 . S
H296 C309 0.929 . S
H297 C307 0.929 . S
H298 C302 0.929 . S
H299 C308 0.929 . S
C300 H294 0.930 . S
C300 C301 1.367 . S
C300 C308 1.378 . S
C301 C300 1.367 . S
C301 C309 1.433 . S
C302 H298 0.929 . S
C302 C304 1.378 . S
C302 C306 1.350 . S
C303 C306 1.463 . S
C303 C308 1.350 . S
C303 N311 1.427 . S
C304 H295 0.930 . S
C304 C302 1.378 . S
C304 C305 1.367 . S
C305 C304 1.367 . S
C305 C307 1.433 . S
C306 C302 1.350 . S
C306 C303 1.463 . S
C306 N310 1.427 . S
C307 H297 0.929 . S
C307 C305 1.433 . S
C307 N310 1.384 . S
C308 H299 0.929 . S
C308 C300 1.378 . S
C308 C303 1.350 . S
C309 H296 0.929 . S
C309 C301 1.433 . S
C309 N311 1.384 . S
N310 C306 1.427 . S
N310 C307 1.384 . S
N311 C303 1.427 . S
N311 C309 1.384 . S
H312 C318 0.930 . S
H313 C322 0.930 . S
H314 C327 0.929 . S
H315 C325 0.929 . S
H316 C320 0.929 . S
H317 C326 0.929 . S
C318 H312 0.930 . S
C318 C319 1.367 . S
C318 C326 1.378 . S
C319 C318 1.367 . S
C319 C327 1.433 . S
C320 H316 0.929 . S
C320 C322 1.378 . S
C320 C324 1.350 . S
C321 C324 1.463 . S
C321 C326 1.350 . S
C321 N329 1.427 . S
C322 H313 0.930 . S
C322 C320 1.378 . S
C322 C323 1.367 . S
C323 C322 1.367 . S
C323 C325 1.433 . S
C324 C320 1.350 . S
C324 C321 1.463 . S
C324 N328 1.427 . S
C325 H315 0.929 . S
C325 C323 1.433 . S
C325 N328 1.384 . S
C326 H317 0.929 . S
C326 C318 1.378 . S
C326 C321 1.350 . S
C327 H314 0.929 . S
C327 C319 1.433 . S
C327 N329 1.384 . S
N328 C324 1.427 . S
N328 C325 1.384 . S
N329 C321 1.427 . S
N329 C327 1.384 . S
H330 C336 0.930 . S
H331 C340 0.930 . S
H332 C345 0.929 . S
H333 C343 0.929 . S
H334 C338 0.929 . S
H335 C344 0.929 . S
C336 H330 0.930 . S
C336 C337 1.367 . S
C336 C344 1.378 . S
C337 C336 1.367 . S
C337 C345 1.433 . S
C338 H334 0.929 . S
C338 C340 1.378 1_556 S
C338 C342 1.350 . S
C339 C342 1.463 . S
C339 C344 1.350 . S
C339 N347 1.427 . S
C340 H331 0.930 . S
C340 C338 1.378 1_554 S
C340 C341 1.367 . S
C341 C340 1.367 . S
C341 C343 1.433 . S
C342 C338 1.350 . S
C342 C339 1.463 . S
C342 N346 1.427 . S
C343 H333 0.929 . S
C343 C341 1.433 . S
C343 N346 1.384 1_554 S
C344 H335 0.929 . S
C344 C336 1.378 . S
C344 C339 1.350 . S
C345 H332 0.929 . S
C345 C337 1.433 . S
C345 N347 1.384 . S
N346 C342 1.427 . S
N346 C343 1.384 1_556 S
N347 C339 1.427 . S
N347 C345 1.384 . S
H348 C354 0.930 . S
H349 C358 0.930 . S
H350 C363 0.929 . S
H351 C361 0.929 . S
H352 C356 0.929 . S
H353 C362 0.929 . S
C354 H348 0.930 . S
C354 C355 1.367 . S
C354 C362 1.378 . S
C355 C354 1.367 . S
C355 C363 1.433 . S
C356 H352 0.929 . S
C356 C358 1.378 . S
C356 C360 1.350 . S
C357 C360 1.463 . S
C357 C362 1.350 . S
C357 N365 1.427 . S
C358 H349 0.930 . S
C358 C356 1.378 . S
C358 C359 1.367 . S
C359 C358 1.367 . S
C359 C361 1.433 . S
C360 C356 1.350 . S
C360 C357 1.463 . S
C360 N364 1.427 . S
C361 H351 0.929 . S
C361 C359 1.433 . S
C361 N364 1.384 . S
C362 H353 0.929 . S
C362 C354 1.378 . S
C362 C357 1.350 . S
C363 H350 0.929 . S
C363 C355 1.433 . S
C363 N365 1.384 . S
N364 C360 1.427 . S
N364 C361 1.384 . S
N365 C357 1.427 . S
N365 C363 1.384 . S
H366 C372 0.930 . S
H367 C376 0.930 . S
H368 C381 0.929 . S
H369 C379 0.929 . S
H370 C374 0.929 . S
H371 C380 0.929 . S
C372 H366 0.930 . S
C372 C373 1.367 . S
C372 C380 1.378 . S
C373 C372 1.367 . S
C373 C381 1.433 . S
C374 H370 0.929 . S
C374 C376 1.378 . S
C374 C378 1.350 . S
C375 C378 1.463 . S
C375 C380 1.350 . S
C375 N383 1.427 . S
C376 H367 0.930 . S
C376 C374 1.378 . S
C376 C377 1.367 . S
C377 C376 1.367 . S
C377 C379 1.433 . S
C378 C374 1.350 . S
C378 C375 1.463 . S
C378 N382 1.427 . S
C379 H369 0.929 . S
C379 C377 1.433 . S
C379 N382 1.384 . S
C380 H371 0.929 . S
C380 C372 1.378 . S
C380 C375 1.350 . S
C381 H368 0.929 . S
C381 C373 1.433 . S
C381 N383 1.384 . S
N382 C378 1.427 . S
N382 C379 1.384 . S
N383 C375 1.427 . S
N383 C381 1.384 . S
H384 C390 0.930 . S
H385 C394 0.930 . S
H386 C399 0.929 . S
H387 C397 0.929 . S
H388 C392 0.929 . S
H389 C398 0.929 . S
C390 H384 0.930 . S
C390 C391 1.367 . S
C390 C398 1.378 . S
C391 C390 1.367 . S
C391 C399 1.433 . S
C392 H388 0.929 . S
C392 C394 1.378 . S
C392 C396 1.350 . S
C393 C396 1.463 . S
C393 C398 1.350 . S
C393 N401 1.427 . S
C394 H385 0.930 . S
C394 C392 1.378 . S
C394 C395 1.367 . S
C395 C394 1.367 . S
C395 C397 1.433 . S
C396 C392 1.350 . S
C396 C393 1.463 . S
C396 N400 1.427 . S
C397 H387 0.929 . S
C397 C395 1.433 . S
C397 N400 1.384 . S
C398 H389 0.929 . S
C398 C390 1.378 . S
C398 C393 1.350 . S
C399 H386 0.929 . S
C399 C391 1.433 . S
C399 N401 1.384 . S
N400 C396 1.427 . S
N400 C397 1.384 . S
N401 C393 1.427 . S
N401 C399 1.384 . S
H402 C408 0.930 1_554 S
H403 C412 0.930 . S
H404 C417 0.929 . S
H405 C415 0.929 . S
H406 C410 0.929 . S
H407 C416 0.929 . S
C408 H402 0.930 1_556 S
C408 C409 1.367 . S
C408 C416 1.378 . S
C409 C408 1.367 . S
C409 C417 1.433 . S
C410 H406 0.929 . S
C410 C412 1.378 . S
C410 C414 1.350 . S
C411 C414 1.463 . S
C411 C416 1.350 . S
C411 N419 1.427 . S
C412 H403 0.930 . S
C412 C410 1.378 . S
C412 C413 1.367 1_655 S
C413 C412 1.367 1_455 S
C413 C415 1.433 . S
C414 C410 1.350 . S
C414 C411 1.463 . S
C414 N418 1.448 . S
C415 H405 0.929 . S
C415 C413 1.433 . S
C415 N418 1.374 1_455 S
C416 H407 0.929 . S
C416 C408 1.378 . S
C416 C411 1.350 . S
C417 H404 0.929 . S
C417 C409 1.433 . S
C417 N419 1.384 . S
N418 C414 1.448 . S
N418 C415 1.374 1_655 S
N419 C411 1.427 . S
N419 C417 1.384 . S
H420 C426 0.930 . S
H421 C430 0.930 . S
H422 C435 0.929 . S
H423 C433 0.929 . S
H424 C428 0.929 . S
H425 C434 0.929 . S
C426 H420 0.930 . S
C426 C427 1.367 . S
C426 C434 1.378 . S
C427 C426 1.367 . S
C427 C435 1.433 . S
C428 H424 0.929 . S
C428 C430 1.378 . S
C428 C432 1.350 . S
C429 C432 1.463 1_545 S
C429 C434 1.350 . S
C429 N437 1.427 . S
C430 H421 0.930 . S
C430 C428 1.378 . S
C430 C431 1.367 . S
C431 C430 1.367 . S
C431 C433 1.433 . S
C432 C428 1.350 . S
C432 C429 1.463 1_565 S
C432 N436 1.427 . S
C433 H423 0.929 . S
C433 C431 1.433 . S
C433 N436 1.384 . S
C434 H425 0.929 . S
C434 C426 1.378 . S
C434 C429 1.350 . S
C435 H422 0.929 . S
C435 C427 1.433 . S
C435 N437 1.384 . S
N436 C432 1.427 . S
N436 C433 1.384 . S
N437 C429 1.427 . S
N437 C435 1.384 . S
H438 C444 0.930 . S
H439 C448 0.930 . S
H440 C453 0.929 . S
H441 C451 0.929 . S
H442 C446 0.929 . S
H443 C452 0.929 . S
C444 H438 0.930 . S
C444 C445 1.367 . S
C444 C452 1.378 . S
C445 C444 1.367 . S
C445 C453 1.433 . S
C446 H442 0.929 . S
C446 C448 1.378 1_455 S
C446 C450 1.350 . S
C447 C450 1.463 . S
C447 C452 1.350 . S
C447 N455 1.427 . S
C448 H439 0.930 . S
C448 C446 1.378 1_655 S
C448 C449 1.367 . S
C449 C448 1.367 . S
C449 C451 1.433 1_655 S
C450 C446 1.350 . S
C450 C447 1.463 . S
C450 N454 1.427 . S
C451 H441 0.929 . S
C451 C449 1.433 1_455 S
C451 N454 1.384 . S
C452 H443 0.929 . S
C452 C444 1.378 . S
C452 C447 1.350 . S
C453 H440 0.929 . S
C453 C445 1.433 . S
C453 N455 1.384 . S
N454 C450 1.427 . S
N454 C451 1.384 . S
N455 C447 1.427 . S
N455 C453 1.384 . S
H456 C462 0.930 . S
H457 C466 0.930 . S
H458 C471 0.929 . S
H459 C469 0.929 1_554 S
H460 C464 0.929 . S
H461 C470 0.929 . S
C462 H456 0.930 . S
C462 C463 1.367 . S
C462 C470 1.378 . S
C463 C462 1.367 . S
C463 C471 1.433 . S
C464 H460 0.929 . S
C464 C466 1.378 . S
C464 C468 1.350 . S
C465 C468 1.463 . S
C465 C470 1.350 . S
C465 N473 1.427 . S
C466 H457 0.930 . S
C466 C464 1.378 . S
C466 C467 1.367 . S
C467 C466 1.367 . S
C467 C469 1.433 . S
C468 C464 1.350 . S
C468 C465 1.463 . S
C468 N472 1.427 . S
C469 H459 0.929 1_556 S
C469 C467 1.433 . S
C469 N472 1.384 . S
C470 H461 0.929 . S
C470 C462 1.378 . S
C470 C465 1.350 . S
C471 H458 0.929 . S
C471 C463 1.433 . S
C471 N473 1.384 . S
N472 C468 1.427 . S
N472 C469 1.384 . S
N473 C465 1.427 . S
N473 C471 1.384 . S
C211 C2 1.604 . S
C215 C104 1.603 . S
C229 C138 1.601 . S
C233 C36 1.601 . S
C247 C70 1.604 . S
C251 C172 1.604 . S
C265 C9 1.054 . S
C269 C5 1.069 . S
C283 C43 1.046 . S
C287 C39 1.072 . S
C301 C77 1.062 . S
C305 C73 1.081 . S
C319 C107 1.072 . S
C323 C111 1.063 . S
C337 C145 1.050 . S
C341 C141 1.079 . S
C355 C175 1.069 . S
C359 C179 1.055 . S
C373 C20 1.585 . S
C377 C67 1.603 . S
C391 C54 1.587 . S
C395 C101 1.602 . S
C409 C135 1.604 1_556 S
C413 C88 1.594 . S
C427 C122 1.593 . S
C431 C169 1.606 . S
C445 C203 1.603 . S
C449 C156 1.585 . S
C463 C190 1.585 1_545 S
C467 C33 1.599 1_556 S
