# Generated by pormake.
# Topology gsi, (4)-cn, num edge types: 1
# Building blocks:
#     Node 0, Type 0, BuildingBlock: QUQFOY_clean_sbu_1, # of connection points: 4
#     Node 1, Type 0, BuildingBlock: QUQFOY_clean_sbu_1, # of connection points: 4
#     Node 2, Type 0, BuildingBlock: QUQFOY_clean_sbu_1, # of connection points: 4
#     Node 3, Type 0, BuildingBlock: QUQFOY_clean_sbu_1, # of connection points: 4
#     Node 4, Type 0, BuildingBlock: QUQFOY_clean_sbu_1, # of connection points: 4
#     Node 5, Type 0, BuildingBlock: QUQFOY_clean_sbu_1, # of connection points: 4
#     Node 6, Type 0, BuildingBlock: QUQFOY_clean_sbu_1, # of connection points: 4
#     Node 7, Type 0, BuildingBlock: QUQFOY_clean_sbu_1, # of connection points: 4
#     Node 8, Type 0, BuildingBlock: QUQFOY_clean_sbu_1, # of connection points: 4
#     Node 9, Type 0, BuildingBlock: QUQFOY_clean_sbu_1, # of connection points: 4
#     Node 10, Type 0, BuildingBlock: QUQFOY_clean_sbu_1, # of connection points: 4
#     Node 11, Type 0, BuildingBlock: QUQFOY_clean_sbu_1, # of connection points: 4
#     Node 12, Type 0, BuildingBlock: QUQFOY_clean_sbu_1, # of connection points: 4
#     Node 13, Type 0, BuildingBlock: QUQFOY_clean_sbu_1, # of connection points: 4
#     Node 14, Type 0, BuildingBlock: QUQFOY_clean_sbu_1, # of connection points: 4
#     Node 15, Type 0, BuildingBlock: QUQFOY_clean_sbu_1, # of connection points: 4
#     Edge 16, Type (0, 0), BuildingBlock: EZIPEK_clean_linker_0, # of connection points: 2
#     Edge 17, Type (0, 0), BuildingBlock: EZIPEK_clean_linker_0, # of connection points: 2
#     Edge 18, Type (0, 0), BuildingBlock: EZIPEK_clean_linker_0, # of connection points: 2
#     Edge 19, Type (0, 0), BuildingBlock: EZIPEK_clean_linker_0, # of connection points: 2
#     Edge 20, Type (0, 0), BuildingBlock: EZIPEK_clean_linker_0, # of connection points: 2
#     Edge 21, Type (0, 0), BuildingBlock: EZIPEK_clean_linker_0, # of connection points: 2
#     Edge 22, Type (0, 0), BuildingBlock: EZIPEK_clean_linker_0, # of connection points: 2
#     Edge 23, Type (0, 0), BuildingBlock: EZIPEK_clean_linker_0, # of connection points: 2
#     Edge 24, Type (0, 0), BuildingBlock: EZIPEK_clean_linker_0, # of connection points: 2
#     Edge 25, Type (0, 0), BuildingBlock: EZIPEK_clean_linker_0, # of connection points: 2
#     Edge 26, Type (0, 0), BuildingBlock: EZIPEK_clean_linker_0, # of connection points: 2
#     Edge 27, Type (0, 0), BuildingBlock: EZIPEK_clean_linker_0, # of connection points: 2
#     Edge 28, Type (0, 0), BuildingBlock: EZIPEK_clean_linker_0, # of connection points: 2
#     Edge 29, Type (0, 0), BuildingBlock: EZIPEK_clean_linker_0, # of connection points: 2
#     Edge 30, Type (0, 0), BuildingBlock: EZIPEK_clean_linker_0, # of connection points: 2
#     Edge 31, Type (0, 0), BuildingBlock: EZIPEK_clean_linker_0, # of connection points: 2
#     Edge 32, Type (0, 0), BuildingBlock: EZIPEK_clean_linker_0, # of connection points: 2
#     Edge 33, Type (0, 0), BuildingBlock: EZIPEK_clean_linker_0, # of connection points: 2
#     Edge 34, Type (0, 0), BuildingBlock: EZIPEK_clean_linker_0, # of connection points: 2
#     Edge 35, Type (0, 0), BuildingBlock: EZIPEK_clean_linker_0, # of connection points: 2
#     Edge 36, Type (0, 0), BuildingBlock: EZIPEK_clean_linker_0, # of connection points: 2
#     Edge 37, Type (0, 0), BuildingBlock: EZIPEK_clean_linker_0, # of connection points: 2
#     Edge 38, Type (0, 0), BuildingBlock: EZIPEK_clean_linker_0, # of connection points: 2
#     Edge 39, Type (0, 0), BuildingBlock: EZIPEK_clean_linker_0, # of connection points: 2
#     Edge 40, Type (0, 0), BuildingBlock: EZIPEK_clean_linker_0, # of connection points: 2
#     Edge 41, Type (0, 0), BuildingBlock: EZIPEK_clean_linker_0, # of connection points: 2
#     Edge 42, Type (0, 0), BuildingBlock: EZIPEK_clean_linker_0, # of connection points: 2
#     Edge 43, Type (0, 0), BuildingBlock: EZIPEK_clean_linker_0, # of connection points: 2
#     Edge 44, Type (0, 0), BuildingBlock: EZIPEK_clean_linker_0, # of connection points: 2
#     Edge 45, Type (0, 0), BuildingBlock: EZIPEK_clean_linker_0, # of connection points: 2
#     Edge 46, Type (0, 0), BuildingBlock: EZIPEK_clean_linker_0, # of connection points: 2
#     Edge 47, Type (0, 0), BuildingBlock: EZIPEK_clean_linker_0, # of connection points: 2
# Relax obj value: 0.159
# Max RMSD: 0.227
# Mean RMSD: 0.174
data_MOF--net-gsi--node1-QUQFOY_clean_sbu_1--edge1-EZIPEK_clean_linker_0
_symmetry_space_group_name_H-M    P1
_symmetry_Int_Tables_number       1
_symmetry_cell_setting            triclinic
loop_
_symmetry_equiv_pos_as_xyz
'x, y, z'
_cell_length_a     27.86056
_cell_length_b     33.900625
_cell_length_c     35.707734
_cell_angle_alpha  90.160409
_cell_angle_beta   89.869503
_cell_angle_gamma 99.601159
loop_
_atom_site_label
_atom_site_type_symbol
_atom_site_fract_x
_atom_site_fract_y
_atom_site_fract_z
_atom_type_partial_charge
O0 O 0.08319 0.20993 0.14034 0.0
Cd1 Cd 0.14098 0.17968 0.14593 0.0
Cd2 Cd 0.08512 0.14458 0.19984 0.0
O3 O 0.03056 0.1686 0.17398 0.0
O4 O 0.17984 0.19179 0.09946 0.0
O5 O 0.14544 0.13031 0.1153 0.0
C6 C 0.17089 0.15415 0.09182 0.0
C7 C 0.08109 0.07915 0.21948 0.0
C8 C 0.0405 0.19935 0.15322 0.0
C9 C 0.17255 0.20234 0.22237 0.0
O10 O 0.13087 0.18428 0.23211 0.0
O11 O 0.18735 0.20061 0.18886 0.0
O12 O 0.05629 0.1029 0.23619 0.0
O13 O 0.10512 0.09155 0.18954 0.0
O14 O 0.87028 0.30493 0.12524 0.0
Cd15 Cd 0.81174 0.33492 0.12464 0.0
Cd16 Cd 0.85738 0.369 0.18374 0.0
O17 O 0.91602 0.345 0.16468 0.0
O18 O 0.78251 0.32339 0.07445 0.0
O19 O 0.81101 0.38491 0.09425 0.0
C20 C 0.79064 0.36131 0.0683 0.0
C21 C 0.86024 0.43337 0.20669 0.0
C22 C 0.90996 0.3148 0.14292 0.0
C23 C 0.76672 0.31014 0.19641 0.0
O24 O 0.80619 0.32827 0.21015 0.0
O25 O 0.75779 0.31228 0.16173 0.0
O26 O 0.87994 0.40735 0.22473 0.0
O27 O 0.84221 0.42388 0.17391 0.0
O28 O 0.07944 0.81362 0.39689 0.0
Cd29 Cd 0.14942 0.83903 0.38474 0.0
Cd30 Cd 0.10689 0.87015 0.3221 0.0
O31 O 0.047 0.83505 0.34591 0.0
O32 O 0.18496 0.82449 0.42942 0.0
O33 O 0.18443 0.8873 0.413 0.0
C34 C 0.19806 0.86202 0.43598 0.0
C35 C 0.09749 0.931 0.2948 0.0
C36 C 0.04315 0.81431 0.37575 0.0
C37 C 0.17619 0.8135 0.30737 0.0
O38 O 0.15226 0.83865 0.29353 0.0
O39 O 0.17974 0.80964 0.34258 0.0
O40 O 0.07816 0.8974 0.28017 0.0
O41 O 0.12144 0.93037 0.32565 0.0
O42 O 0.83524 0.69825 0.37983 0.0
Cd43 Cd 0.77123 0.65797 0.375 0.0
Cd44 Cd 0.83022 0.63225 0.32562 0.0
O45 O 0.88095 0.65375 0.36524 0.0
O46 O 0.73197 0.67248 0.41774 0.0
O47 O 0.75601 0.61352 0.41275 0.0
C48 C 0.73467 0.63803 0.43186 0.0
C49 C 0.83942 0.57538 0.29129 0.0
C50 C 0.87696 0.68812 0.37773 0.0
C51 C 0.75768 0.68202 0.30092 0.0
O52 O 0.80118 0.6759 0.29754 0.0
O53 O 0.73177 0.66593 0.32785 0.0
O54 O 0.86735 0.60909 0.28561 0.0
O55 O 0.80636 0.57364 0.31695 0.0
O56 O 0.37675 0.80491 0.62844 0.0
Cd57 Cd 0.31638 0.83241 0.63062 0.0
Cd58 Cd 0.36454 0.86802 0.68825 0.0
O59 O 0.42375 0.84796 0.66453 0.0
O60 O 0.28381 0.81971 0.58171 0.0
O61 O 0.31096 0.8818 0.60056 0.0
C62 C 0.28973 0.85759 0.57537 0.0
C63 C 0.36379 0.93103 0.71424 0.0
C64 C 0.41768 0.81706 0.64363 0.0
C65 C 0.2788 0.80532 0.70413 0.0
O66 O 0.31867 0.82451 0.71635 0.0
O67 O 0.26664 0.80803 0.67012 0.0
O68 O 0.38993 0.90682 0.72839 0.0
O69 O 0.34126 0.92083 0.68318 0.0
O70 O 0.82976 0.93238 0.84137 0.0
Cd71 Cd 0.81519 0.87856 0.86954 0.0
Cd72 Cd 0.89227 0.86522 0.83134 0.0
O73 O 0.89991 0.92494 0.81554 0.0
O74 O 0.76756 0.88514 0.90997 0.0
O75 O 0.84163 0.87281 0.92137 0.0
C76 C 0.79983 0.87851 0.93391 0.0
C77 C 0.9432 0.82746 0.86021 0.0
C78 C 0.86605 0.94552 0.82057 0.0
C79 C 0.79906 0.81638 0.80944 0.0
O80 O 0.84277 0.8286 0.79987 0.0
O81 O 0.78109 0.83032 0.83837 0.0
O82 O 0.95228 0.84091 0.82666 0.0
O83 O 0.90916 0.84005 0.8792 0.0
O84 O 0.14239 0.58109 0.84168 0.0
Cd85 Cd 0.16143 0.63534 0.8687 0.0
Cd86 Cd 0.08041 0.64729 0.8371 0.0
O87 O 0.06632 0.58603 0.82793 0.0
O88 O 0.21275 0.62815 0.90564 0.0
O89 O 0.14139 0.64376 0.92191 0.0
C90 C 0.18376 0.63662 0.93154 0.0
C91 C 0.03426 0.69035 0.86481 0.0
C92 C 0.10131 0.56614 0.8279 0.0
C93 C 0.17047 0.69291 0.80608 0.0
O94 O 0.1267 0.67804 0.7989 0.0
O95 O 0.19106 0.68299 0.83548 0.0
O96 O 0.02189 0.67343 0.83302 0.0
O97 O 0.06905 0.67855 0.88335 0.0
O98 O 0.90049 0.18078 0.67537 0.0
Cd99 Cd 0.84188 0.146 0.70036 0.0
Cd100 Cd 0.79522 0.16939 0.63055 0.0
O101 O 0.86583 0.19692 0.62301 0.0
O102 O 0.86876 0.12267 0.74593 0.0
O103 O 0.83145 0.08562 0.7003 0.0
C104 C 0.85295 0.08767 0.73244 0.0
C105 C 0.75623 0.15381 0.5729 0.0
C106 C 0.90228 0.19983 0.64464 0.0
C107 C 0.76311 0.19721 0.70598 0.0
O108 O 0.7576 0.19558 0.67068 0.0
O109 O 0.79326 0.179 0.72252 0.0
O110 O 0.76721 0.18996 0.58471 0.0
O111 O 0.76549 0.12555 0.59444 0.0
O112 O 0.07162 0.3354 0.68033 0.0
Cd113 Cd 0.12823 0.36482 0.71118 0.0
Cd114 Cd 0.18406 0.34523 0.64609 0.0
O115 O 0.11495 0.31635 0.63355 0.0
O116 O 0.09569 0.38651 0.75508 0.0
O117 O 0.14376 0.42497 0.71574 0.0
C118 C 0.11633 0.42176 0.74516 0.0
C119 C 0.22986 0.36685 0.59226 0.0
C120 C 0.07473 0.31545 0.65055 0.0
C121 C 0.20398 0.31096 0.72082 0.0
O122 O 0.21849 0.31818 0.68738 0.0
O123 O 0.16957 0.32661 0.73477 0.0
O124 O 0.21705 0.32962 0.60005 0.0
O125 O 0.21837 0.39255 0.61593 0.0
O126 O 0.63931 0.08549 0.33171 0.0
Cd127 Cd 0.65507 0.13938 0.3598 0.0
Cd128 Cd 0.57313 0.14695 0.32815 0.0
O129 O 0.56144 0.08557 0.32044 0.0
O130 O 0.70969 0.13328 0.39409 0.0
O131 O 0.63796 0.14461 0.4142 0.0
C132 C 0.68167 0.13907 0.42162 0.0
C133 C 0.52997 0.18963 0.35915 0.0
C134 C 0.59853 0.06813 0.31916 0.0
C135 C 0.65958 0.19635 0.29718 0.0
O136 O 0.61758 0.17791 0.28898 0.0
O137 O 0.68003 0.18904 0.32755 0.0
O138 O 0.51453 0.17321 0.32774 0.0
O139 O 0.56616 0.17737 0.37547 0.0
O140 O 0.59204 0.71225 0.63248 0.0
Cd141 Cd 0.64784 0.67953 0.63609 0.0
Cd142 Cd 0.59502 0.64752 0.69161 0.0
O143 O 0.53964 0.67128 0.66652 0.0
O144 O 0.6837 0.68929 0.58803 0.0
O145 O 0.64628 0.6292 0.6056 0.0
C146 C 0.67126 0.65172 0.58091 0.0
C147 C 0.5934 0.58268 0.7127 0.0
C148 C 0.54961 0.7022 0.64597 0.0
C149 C 0.68405 0.70383 0.71085 0.0
O150 O 0.64179 0.68843 0.72178 0.0
O151 O 0.6976 0.69898 0.67739 0.0
O152 O 0.56722 0.60605 0.72851 0.0
O153 O 0.61719 0.595 0.68264 0.0
O154 O 0.60223 0.3088 0.87957 0.0
Cd155 Cd 0.66963 0.342 0.87072 0.0
Cd156 Cd 0.61906 0.37212 0.81427 0.0
O157 O 0.56086 0.3465 0.8465 0.0
O158 O 0.70631 0.32872 0.91519 0.0
O159 O 0.69556 0.3905 0.90231 0.0
C160 C 0.71253 0.36595 0.92426 0.0
C161 C 0.61437 0.43335 0.7854 0.0
C162 C 0.56205 0.31692 0.86805 0.0
C163 C 0.68828 0.31562 0.79442 0.0
O164 O 0.65288 0.3323 0.78415 0.0
O165 O 0.70541 0.32027 0.82732 0.0
O166 O 0.58698 0.40076 0.7751 0.0
O167 O 0.64464 0.43134 0.81241 0.0
O168 O 0.35715 0.19874 0.89527 0.0
Cd169 Cd 0.28865 0.16608 0.89081 0.0
Cd170 Cd 0.33459 0.13346 0.83066 0.0
O171 O 0.39534 0.16158 0.85849 0.0
O172 O 0.25703 0.18237 0.93698 0.0
O173 O 0.26426 0.11951 0.92512 0.0
C174 C 0.25021 0.14555 0.94722 0.0
C175 C 0.34052 0.07402 0.79808 0.0
C176 C 0.396 0.19119 0.88051 0.0
C177 C 0.26433 0.19059 0.81507 0.0
O178 O 0.29764 0.17239 0.80314 0.0
O179 O 0.25009 0.18758 0.84892 0.0
O180 O 0.36558 0.10779 0.78841 0.0
O181 O 0.31215 0.07367 0.82676 0.0
O182 O 0.32508 0.4308 0.34435 0.0
Cd183 Cd 0.31213 0.37916 0.37617 0.0
Cd184 Cd 0.3851 0.36306 0.33506 0.0
O185 O 0.3946 0.42221 0.31809 0.0
O186 O 0.26698 0.38843 0.41747 0.0
O187 O 0.34203 0.37784 0.4274 0.0
C188 C 0.30079 0.38384 0.44085 0.0
C189 C 0.43743 0.32505 0.36186 0.0
C190 C 0.3611 0.44314 0.32298 0.0
C191 C 0.2898 0.31431 0.31956 0.0
O192 O 0.33187 0.32679 0.3066 0.0
O193 O 0.27557 0.32859 0.34975 0.0
O194 O 0.44254 0.33633 0.32734 0.0
O195 O 0.40687 0.34009 0.38258 0.0
O196 O 0.39498 0.6818 0.18494 0.0
Cd197 Cd 0.33579 0.64656 0.20882 0.0
Cd198 Cd 0.28856 0.6735 0.14246 0.0
O199 O 0.35813 0.70316 0.1358 0.0
O200 O 0.36257 0.62078 0.25287 0.0
O201 O 0.32482 0.58623 0.20593 0.0
C202 C 0.34648 0.58655 0.23791 0.0
C203 C 0.25062 0.65644 0.08474 0.0
C204 C 0.39558 0.70355 0.15596 0.0
C205 C 0.25809 0.69847 0.2187 0.0
O206 O 0.25094 0.69792 0.18356 0.0
O207 O 0.28823 0.67898 0.23364 0.0
O208 O 0.2594 0.69276 0.09646 0.0
O209 O 0.26121 0.62884 0.10651 0.0
O210 O 0.57882 0.833 0.18309 0.0
Cd211 Cd 0.63974 0.86943 0.20369 0.0
Cd212 Cd 0.67209 0.83918 0.13517 0.0
O213 O 0.59964 0.82634 0.12393 0.0
O214 O 0.6125 0.89006 0.25052 0.0
O215 O 0.64567 0.92973 0.20524 0.0
C216 C 0.62458 0.92567 0.23756 0.0
C217 C 0.7217 0.85791 0.08302 0.0
C218 C 0.56857 0.82032 0.15011 0.0
C219 C 0.70182 0.80757 0.20882 0.0
O220 O 0.69348 0.80103 0.17422 0.0
O221 O 0.69229 0.83924 0.22419 0.0
O222 O 0.69921 0.82189 0.08736 0.0
O223 O 0.71776 0.88352 0.1092 0.0
C224 C 0.18598 0.26693 0.2572 0.0
C225 C 0.20113 0.22985 0.24905 0.0
C226 C 0.26931 0.24564 0.2926 0.0
C227 C 0.2568 0.28416 0.29802 0.0
N228 N 0.20737 0.33389 0.28253 0.0
N229 N 0.25812 0.18421 0.25615 0.0
C230 C 0.21589 0.29535 0.27991 0.0
C231 C 0.2431 0.21924 0.26596 0.0
N232 N 0.14309 0.27507 0.24303 0.0
N233 N 0.30536 0.23407 0.31377 0.0
H234 H 0.23851 0.1634 0.23795 0.0
H235 H 0.2913 0.17667 0.2642 0.0
H236 H 0.32493 0.2527 0.33371 0.0
H237 H 0.31339 0.20517 0.31393 0.0
H238 H 0.12691 0.29905 0.25186 0.0
H239 H 0.12182 0.25656 0.2239 0.0
H240 H 0.18198 0.34531 0.26624 0.0
H241 H 0.2281 0.35567 0.29911 0.0
C242 C 0.75016 0.24215 0.22373 0.0
C243 C 0.7362 0.28029 0.21969 0.0
C244 C 0.66895 0.26196 0.26375 0.0
C245 C 0.68557 0.22515 0.27031 0.0
N246 N 0.74277 0.18026 0.25872 0.0
N247 N 0.68608 0.32873 0.23708 0.0
C248 C 0.72646 0.21526 0.25092 0.0
C249 C 0.69641 0.29079 0.23987 0.0
N250 N 0.78539 0.23143 0.20085 0.0
N251 N 0.62689 0.26919 0.28025 0.0
H252 H 0.70466 0.35006 0.21888 0.0
H253 H 0.66118 0.33996 0.25415 0.0
H254 H 0.60686 0.24954 0.29912 0.0
H255 H 0.61002 0.29344 0.27366 0.0
H256 H 0.79388 0.20272 0.19949 0.0
H257 H 0.80408 0.25056 0.18087 0.0
H258 H 0.77586 0.17358 0.24927 0.0
H259 H 0.72442 0.15833 0.2764 0.0
C260 C 0.18595 0.72541 0.24353 0.0
C261 C 0.23703 0.72761 0.24169 0.0
C262 C 0.24851 0.78671 0.2826 0.0
C263 C 0.19752 0.78608 0.28243 0.0
N264 N 0.11818 0.75941 0.25682 0.0
N265 N 0.31755 0.76543 0.2522 0.0
C266 C 0.16637 0.75696 0.26094 0.0
C267 C 0.26859 0.75956 0.25935 0.0
N268 N 0.1561 0.69232 0.23001 0.0
N269 N 0.2779 0.81343 0.3048 0.0
H270 H 0.33405 0.74696 0.23473 0.0
H271 H 0.34146 0.79079 0.26075 0.0
H272 H 0.26535 0.83615 0.31976 0.0
H273 H 0.31428 0.81174 0.30996 0.0
H274 H 0.1186 0.68674 0.23431 0.0
H275 H 0.16929 0.66844 0.21742 0.0
H276 H 0.09527 0.7417 0.23815 0.0
H277 H 0.1016 0.78132 0.26948 0.0
C278 C 0.7551 0.71613 0.23861 0.0
C279 C 0.74061 0.71252 0.2768 0.0
C280 C 0.69426 0.76683 0.26803 0.0
C281 C 0.71623 0.77541 0.23236 0.0
N282 N 0.77693 0.76223 0.1875 0.0
N283 N 0.70874 0.74476 0.33018 0.0
C284 C 0.74941 0.7512 0.21862 0.0
C285 C 0.71368 0.74074 0.29234 0.0
N286 N 0.77285 0.68577 0.22097 0.0
N287 N 0.65347 0.78165 0.27837 0.0
H288 H 0.72651 0.72967 0.34976 0.0
H289 H 0.69221 0.76731 0.34198 0.0
H290 H 0.63442 0.79748 0.26028 0.0
H291 H 0.63491 0.77334 0.30328 0.0
H292 H 0.78019 0.68598 0.19232 0.0
H293 H 0.77462 0.65849 0.23389 0.0
H294 H 0.8044 0.747 0.17844 0.0
H295 H 0.77637 0.78905 0.17342 0.0
C296 C 0.26728 0.74014 0.73761 0.0
C297 C 0.24959 0.77591 0.72873 0.0
C298 C 0.18116 0.75811 0.77181 0.0
C299 C 0.19766 0.72148 0.77948 0.0
N300 N 0.25016 0.67376 0.76457 0.0
N301 N 0.18705 0.81699 0.73246 0.0
C302 C 0.23917 0.71146 0.76112 0.0
C303 C 0.20555 0.78423 0.74424 0.0
N304 N 0.31106 0.73363 0.72359 0.0
N305 N 0.14352 0.76865 0.79206 0.0
H306 H 0.20503 0.83764 0.7134 0.0
H307 H 0.15243 0.82237 0.73946 0.0
H308 H 0.12445 0.75019 0.81227 0.0
H309 H 0.1333 0.79678 0.79097 0.0
H310 H 0.32905 0.71098 0.73299 0.0
H311 H 0.33098 0.7522 0.7038 0.0
H312 H 0.27669 0.66315 0.74868 0.0
H313 H 0.22992 0.65159 0.78101 0.0
C314 C 0.73042 0.71882 0.77051 0.0
C315 C 0.71467 0.73216 0.73575 0.0
C316 C 0.75549 0.80032 0.74901 0.0
C317 C 0.76827 0.78766 0.78495 0.0
N318 N 0.76255 0.73664 0.83249 0.0
N319 N 0.70244 0.78673 0.69539 0.0
C320 C 0.75393 0.74742 0.79658 0.0
C321 C 0.72468 0.77319 0.72581 0.0
N322 N 0.72445 0.67874 0.77794 0.0
N323 N 0.77282 0.8383 0.73693 0.0
H324 H 0.67859 0.76814 0.67795 0.0
H325 H 0.70389 0.81695 0.68938 0.0
H326 H 0.79304 0.86008 0.75377 0.0
H327 H 0.76991 0.84747 0.70933 0.0
H328 H 0.73942 0.66674 0.8011 0.0
H329 H 0.70788 0.65703 0.75918 0.0
H330 H 0.74858 0.70881 0.84381 0.0
H331 H 0.78072 0.75656 0.85208 0.0
C332 C 0.75359 0.29522 0.75436 0.0
C333 C 0.706 0.28636 0.76949 0.0
C334 C 0.69538 0.21843 0.743 0.0
C335 C 0.7424 0.22778 0.72707 0.0
N336 N 0.81461 0.27547 0.71299 0.0
N337 N 0.6297 0.24131 0.77712 0.0
C338 C 0.77106 0.26634 0.73145 0.0
C339 C 0.67617 0.24852 0.76325 0.0
N340 N 0.78235 0.33099 0.76257 0.0
N341 N 0.67007 0.18035 0.73983 0.0
H342 H 0.61566 0.26113 0.79474 0.0
H343 H 0.60404 0.21645 0.77018 0.0
H344 H 0.68294 0.15804 0.72445 0.0
H345 H 0.63766 0.16991 0.75378 0.0
H346 H 0.81934 0.3376 0.75647 0.0
H347 H 0.76974 0.35379 0.77739 0.0
H348 H 0.83477 0.30414 0.7113 0.0
H349 H 0.82963 0.25467 0.69717 0.0
C350 C 0.21402 0.23975 0.732 0.0
C351 C 0.22384 0.28071 0.74312 0.0
C352 C 0.26379 0.26237 0.79995 0.0
C353 C 0.24875 0.2213 0.79096 0.0
N354 N 0.20512 0.17026 0.75116 0.0
N355 N 0.25476 0.33119 0.7887 0.0
C356 C 0.22287 0.2098 0.75761 0.0
C357 C 0.24762 0.29204 0.77749 0.0
N358 N 0.19644 0.22934 0.697 0.0
N359 N 0.29562 0.27311 0.82879 0.0
H360 H 0.24712 0.35433 0.77169 0.0
H361 H 0.26591 0.3405 0.81559 0.0
H362 H 0.30905 0.25246 0.84574 0.0
H363 H 0.31223 0.30246 0.83396 0.0
H364 H 0.19381 0.20061 0.68596 0.0
H365 H 0.18816 0.24985 0.67745 0.0
H366 H 0.18113 0.16011 0.72957 0.0
H367 H 0.21105 0.14757 0.7694 0.0
C368 C 0.04673 0.97815 0.26694 0.0
C369 C 0.09339 0.96907 0.27567 0.0
C370 C 0.13191 0.03297 0.24866 0.0
C371 C 0.08556 0.04023 0.23672 0.0
N372 N -0.00028 0.01667 0.22862 0.0
N373 N 0.18065 0.98372 0.26753 0.0
C374 C 0.04316 0.0119 0.24418 0.0
C375 C 0.1361 0.99531 0.26449 0.0
N376 N 0.00588 0.95552 0.28169 0.0
N377 N 0.17165 0.06264 0.2467 0.0
H378 H 0.18543 0.95609 0.27831 0.0
H379 H 0.21229 0.99987 0.25599 0.0
H380 H 0.17036 0.09106 0.23611 0.0
H381 H 0.20499 0.06033 0.25891 0.0
H382 H 0.9713 0.96313 0.2795 0.0
H383 H 0.00704 0.93114 0.29923 0.0
H384 H 0.96856 0.99495 0.22985 0.0
H385 H -0.00402 0.04078 0.21139 0.0
C386 C 0.8084 0.4821 0.23068 0.0
C387 C 0.85529 0.47182 0.22495 0.0
C388 C 0.89108 0.5275 0.2654 0.0
C389 C 0.84493 0.53985 0.26835 0.0
N390 N 0.76234 0.5345 0.24597 0.0
N391 N 0.94245 0.48975 0.23006 0.0
C392 C 0.80433 0.51882 0.24868 0.0
C393 C 0.89704 0.4961 0.24025 0.0
N394 N 0.76744 0.45597 0.22096 0.0
N395 N 0.92864 0.5443 0.28793 0.0
H396 H 0.94811 0.46755 0.21105 0.0
H397 H 0.97422 0.50899 0.23742 0.0
H398 H 0.92543 0.56637 0.30773 0.0
H399 H 0.96149 0.53356 0.28964 0.0
H400 H 0.73249 0.46024 0.22842 0.0
H401 H 0.76823 0.42814 0.20874 0.0
H402 H 0.73349 0.52237 0.22871 0.0
H403 H 0.75821 0.56189 0.25782 0.0
C404 C 0.26094 0.14057 0.01623 0.0
C405 C 0.22969 0.13487 0.9847 0.0
C406 C 0.1581 0.13121 0.02524 0.0
C407 C 0.18954 0.13954 0.05651 0.0
N408 N 0.26852 0.14144 0.08406 0.0
N409 N 0.1498 0.11456 0.95896 0.0
C410 C 0.24032 0.14054 0.05268 0.0
C411 C 0.17853 0.12651 0.98925 0.0
N412 N 0.31027 0.1479 0.01103 0.0
N413 N 0.10916 0.13024 0.02969 0.0
H414 H 0.16429 0.11117 0.93239 0.0
H415 H 0.1124 0.10485 0.96058 0.0
H416 H 0.093 0.13249 0.05582 0.0
H417 H 0.08473 0.12899 1.00754 0.0
H418 H 0.33521 0.15713 0.03223 0.0
H419 H 0.32638 0.14618 0.98478 0.0
H420 H 0.30525 0.13899 0.08363 0.0
H421 H 0.25392 0.14119 0.11103 0.0
C422 C 0.8062 0.36975 0.99982 0.0
C423 C 0.77782 0.37632 0.0315 0.0
C424 C 0.71106 0.38865 0.99111 0.0
C425 C 0.73798 0.37895 0.95958 0.0
N426 N 0.81486 0.37192 0.93205 0.0
N427 N 0.71033 0.40274 0.05793 0.0
C428 C 0.78703 0.37353 0.96341 0.0
C429 C 0.73271 0.38979 0.02725 0.0
N430 N 0.85051 0.35825 1.00477 0.0
N431 N 0.66378 0.39388 0.98681 0.0
H432 H 0.72534 0.40324 0.0847 0.0
H433 H 0.67935 0.4161 0.05654 0.0
H434 H 0.6472 0.39417 0.96069 0.0
H435 H 0.64018 0.39612 1.00904 0.0
H436 H 0.8707 0.3483 0.98321 0.0
H437 H 0.86649 0.3574 0.03111 0.0
H438 H 0.85199 0.37098 0.93259 0.0
H439 H 0.80136 0.37509 0.90517 0.0
C440 C 0.23002 0.8877 0.53708 0.0
C441 C 0.2739 0.87184 0.53906 0.0
C442 C 0.27589 0.86636 0.47066 0.0
C443 C 0.22779 0.87465 0.46947 0.0
N444 N 0.15908 0.89549 0.50008 0.0
N445 N 0.34179 0.8495 0.50865 0.0
C446 C 0.20529 0.88703 0.50215 0.0
C447 C 0.29822 0.86284 0.50597 0.0
N448 N 0.21169 0.90248 0.56871 0.0
N449 N 0.29977 0.86181 0.43785 0.0
H450 H 0.36033 0.84902 0.53397 0.0
H451 H 0.35899 0.83789 0.48628 0.0
H452 H 0.28392 0.86472 0.41174 0.0
H453 H 0.33618 0.85853 0.4362 0.0
H454 H 0.18203 0.91751 0.56884 0.0
H455 H 0.22867 0.90253 0.59471 0.0
H456 H 0.13806 0.90003 0.52331 0.0
H457 H 0.14075 0.89646 0.47475 0.0
C458 C 0.65015 0.63154 0.51473 0.0
C459 C 0.6844 0.63589 0.5444 0.0
C460 C 0.75065 0.63132 0.50031 0.0
C461 C 0.71679 0.62897 0.4704 0.0
N462 N 0.63398 0.6163 0.44891 0.0
N463 N 0.76349 0.62905 0.56753 0.0
C464 C 0.66626 0.62544 0.47765 0.0
C465 C 0.73348 0.63196 0.5378 0.0
N466 N 0.60293 0.63549 0.52178 0.0
N467 N 0.79941 0.63568 0.49284 0.0
H468 H 0.75147 0.62949 0.59522 0.0
H469 H 0.79858 0.62259 0.56489 0.0
H470 H 0.81339 0.63453 0.46582 0.0
H471 H 0.82629 0.64262 0.51312 0.0
H472 H 0.57739 0.63748 0.50094 0.0
H473 H 0.58967 0.63866 0.54878 0.0
H474 H 0.59641 0.61 0.45253 0.0
H475 H 0.64523 0.61155 0.42159 0.0
C476 C 0.95155 0.26813 0.17994 0.0
C477 C 0.94398 0.2857 0.14487 0.0
C478 C -0.00704 0.2411 0.11416 0.0
C479 C 0.00531 0.22742 0.14987 0.0
N480 N 0.00608 0.23649 0.21725 0.0
N481 N 0.96146 0.29238 0.07887 0.0
C482 C -0.01267 0.24326 0.18293 0.0
C483 C 0.96573 0.27309 0.11194 0.0
N484 N 0.92305 0.27347 0.21017 0.0
N485 N 0.00601 0.22274 0.08249 0.0
H486 H 0.94196 0.31599 0.07646 0.0
H487 H -0.01956 0.28727 0.05466 0.0
H488 H 0.02528 0.19887 0.08324 0.0
H489 H -0.00586 0.22872 0.0558 0.0
H490 H 0.924 0.2577 0.23511 0.0
H491 H 0.89472 0.29002 0.20922 0.0
H492 H -0.00238 0.25112 0.24149 0.0
H493 H 0.03394 0.21989 0.22117 0.0
C494 C 0.92962 0.74536 0.41087 0.0
C495 C 0.92051 0.71955 0.3793 0.0
C496 C -0.00391 0.75182 0.35049 0.0
C497 C 0.0016 0.78138 0.3789 0.0
N498 N 0.97268 0.80851 0.43536 0.0
N499 N 0.93839 0.70715 0.31414 0.0
C500 C 0.96817 0.77879 0.40909 0.0
C501 C 0.95187 0.72512 0.34772 0.0
N502 N 0.90239 0.73732 0.44265 0.0
N503 N 0.03369 0.74832 0.32673 0.0
H504 H 0.90433 0.69001 0.30929 0.0
H505 H 0.95877 0.71356 0.28972 0.0
H506 H 0.06798 0.76596 0.32919 0.0
H507 H 0.03248 0.72476 0.30772 0.0
H508 H 0.91005 0.75291 0.46767 0.0
H509 H 0.87446 0.71277 0.4449 0.0
H510 H 0.94672 0.8104 0.45602 0.0
H511 H 0.00105 0.83287 0.43485 0.0
C512 C 0.49946 0.74455 0.60992 0.0
C513 C 0.5157 0.73146 0.64468 0.0
C514 C 0.46676 0.77364 0.6783 0.0
C515 C 0.45407 0.7898 0.64373 0.0
N516 N 0.46347 0.7949 0.57674 0.0
N517 N 0.52571 0.74248 0.71143 0.0
C518 C 0.47191 0.77644 0.60948 0.0
C519 C 0.50254 0.74858 0.67872 0.0
N520 N 0.50914 0.72572 0.57756 0.0
N521 N 0.44284 0.78021 0.71065 0.0
H522 H 0.5536 0.72555 0.71318 0.0
H523 H 0.5209 0.7579 0.73609 0.0
H524 H 0.41488 0.79708 0.71201 0.0
H525 H 0.44721 0.76523 0.73555 0.0
H526 H 0.49429 0.73112 0.55172 0.0
H527 H 0.52899 0.7022 0.57705 0.0
H528 H 0.4793 0.78921 0.55128 0.0
H529 H 0.44383 0.81853 0.57565 0.0
C530 C 0.81573 0.02123 0.75981 0.0
C531 C 0.85733 0.05099 0.75426 0.0
C532 C 0.90441 0.01358 0.79548 0.0
C533 C 0.8642 0.98186 0.79745 0.0
N534 N 0.78623 0.95149 0.77178 0.0
N535 N 0.94429 0.07118 0.76066 0.0
C536 C 0.8212 0.9845 0.7768 0.0
C537 C 0.90262 0.04601 0.7704 0.0
N538 N 0.77041 0.02851 0.75063 0.0
N539 N 0.94356 0.01359 0.81844 0.0
H540 H 0.94487 0.09427 0.74134 0.0
H541 H 0.97884 0.06659 0.76873 0.0
H542 H 0.94573 0.99083 0.83763 0.0
H543 H 0.97165 0.03792 0.82093 0.0
H544 H 0.7386 0.00913 0.75772 0.0
H545 H 0.76403 0.05571 0.73988 0.0
H546 H 0.75674 0.95117 0.7538 0.0
H547 H 0.78938 0.92327 0.78192 0.0
C548 C 0.08917 0.52555 0.76841 0.0
C549 C 0.09728 0.52731 0.80775 0.0
C550 C 0.11961 0.46028 0.80585 0.0
C551 C 0.10844 0.45754 0.76701 0.0
N552 N 0.07098 0.48346 0.71363 0.0
N553 N 0.10991 0.49335 0.86509 0.0
C554 C 0.08965 0.48893 0.74899 0.0
C555 C 0.10919 0.49362 0.82682 0.0
N556 N 0.08404 0.55932 0.74901 0.0
N557 N 0.14266 0.43226 0.82233 0.0
H558 H 0.10186 0.51716 0.88119 0.0
H559 H 0.11367 0.46819 0.88077 0.0
H560 H 0.15229 0.408 0.80783 0.0
H561 H 0.15638 0.43505 0.84949 0.0
H562 H 0.08392 0.56059 0.71986 0.0
H563 H 0.08427 0.58709 0.76161 0.0
H564 H 0.05214 0.50375 0.70068 0.0
H565 H 0.06992 0.45686 0.69866 0.0
C566 C 0.78168 0.84292 0.03516 0.0
C567 C 0.75004 0.86874 0.04817 0.0
C568 C 0.76539 0.90773 0.99043 0.0
C569 C 0.78821 0.87715 0.97458 0.0
N570 N 0.81261 0.81219 0.98114 0.0
N571 N 0.70691 0.9237 0.03563 0.0
C572 C 0.7956 0.84401 0.99684 0.0
C573 C 0.74102 0.90103 0.0254 0.0
N574 N 0.79876 0.81756 0.05955 0.0
N575 N 0.76761 0.94345 0.97233 0.0
H576 H 0.68686 0.91944 0.06034 0.0
H577 H 0.69528 0.9445 0.01783 0.0
H578 H 0.78658 0.94985 0.94725 0.0
H579 H 0.75543 0.96808 0.98428 0.0
H580 H 0.82537 0.80062 0.05232 0.0
H581 H 0.79035 0.8169 0.08807 0.0
H582 H 0.81349 0.78559 0.99548 0.0
H583 H 0.82141 0.81052 0.95289 0.0
C584 C 0.17421 0.61699 0.99962 0.0
C585 C 0.20034 0.64056 0.971 0.0
C586 C 0.26315 0.66766 0.01628 0.0
C587 C 0.23422 0.64809 0.04565 0.0
N588 N 0.15935 0.60778 0.06632 0.0
N589 N 0.2645 0.69455 0.95365 0.0
C590 C 0.18898 0.62355 0.03765 0.0
C591 C 0.24348 0.66755 0.97972 0.0
N592 N 0.13643 0.58745 0.99038 0.0
N593 N 0.31015 0.68534 0.02303 0.0
H594 H 0.25039 0.69661 0.92683 0.0
H595 H 0.29297 0.71768 0.95986 0.0
H596 H 0.32655 0.6851 0.04925 0.0
H597 H 0.33443 0.69645 1.00185 0.0
H598 H 0.11925 0.56662 1.00954 0.0
H599 H 0.12495 0.58151 0.96286 0.0
H600 H 0.12367 0.59337 0.06239 0.0
H601 H 0.16915 0.61176 0.09442 0.0
C602 C 0.67604 0.11661 0.48905 0.0
C603 C 0.70049 0.14142 0.46051 0.0
C604 C 0.76567 0.16668 0.50447 0.0
C605 C 0.73816 0.14626 0.53412 0.0
N606 N 0.66399 0.10556 0.55577 0.0
N607 N 0.76347 0.19643 0.4433 0.0
C608 C 0.6925 0.12203 0.52677 0.0
C609 C 0.74401 0.16815 0.46878 0.0
N610 N 0.63831 0.08695 0.48001 0.0
N611 N 0.81318 0.18372 0.51007 0.0
H612 H 0.74768 0.19992 0.41733 0.0
H613 H 0.79232 0.21924 0.44954 0.0
H614 H 0.83106 0.1821 0.53552 0.0
H615 H 0.83627 0.19553 0.4884 0.0
H616 H 0.62239 0.06539 0.49902 0.0
H617 H 0.62583 0.08156 0.45266 0.0
H618 H 0.62813 0.09136 0.55237 0.0
H619 H 0.67482 0.10886 0.5837 0.0
C620 C 0.29246 0.35632 0.54476 0.0
C621 C 0.25614 0.37844 0.55655 0.0
C622 C 0.26428 0.41344 0.49635 0.0
C623 C 0.29123 0.38474 0.48188 0.0
N624 N 0.32501 0.32418 0.49245 0.0
N625 N 0.20275 0.42553 0.54057 0.0
C626 C 0.30444 0.35517 0.50616 0.0
C627 C 0.24113 0.40682 0.53181 0.0
N628 N 0.31571 0.33651 0.57048 0.0
N629 N 0.26132 0.44734 0.47651 0.0
H630 H 0.18302 0.42081 0.56538 0.0
H631 H 0.18751 0.44302 0.52143 0.0
H632 H 0.27969 0.45404 0.45122 0.0
H633 H 0.24554 0.47077 0.4873 0.0
H634 H 0.34532 0.32267 0.56368 0.0
H635 H 0.3091 0.33805 0.59919 0.0
H636 H 0.33047 0.29996 0.50888 0.0
H637 H 0.33186 0.32011 0.46417 0.0
C638 C 0.95996 0.72004 0.87771 0.0
C639 C 0.01135 0.72492 0.8771 0.0
C640 C 0.01565 0.79799 0.88049 0.0
C641 C 0.96513 0.7929 0.87322 0.0
N642 N 0.88813 0.74905 0.86455 0.0
N643 N 0.08932 0.76881 0.87997 0.0
C644 C 0.93673 0.75393 0.87261 0.0
C645 C 0.03963 0.76396 0.88005 0.0
N646 N 0.93354 0.68277 0.88318 0.0
N647 N 0.04046 0.83548 0.88782 0.0
H648 H 0.10865 0.74512 0.88118 0.0
H649 H 0.11178 0.79638 0.87684 0.0
H650 H 0.02337 0.86064 0.8882 0.0
H651 H 0.07647 0.84125 0.89682 0.0
H652 H 0.89601 0.67738 0.88733 0.0
H653 H 0.9501 0.65769 0.88742 0.0
H654 H 0.8669 0.72138 0.85895 0.0
H655 H 0.86935 0.77289 0.8611 0.0
C656 C 0.03464 0.24406 0.6431 0.0
C657 C 0.03247 0.28551 0.63953 0.0
C658 C 0.94417 0.27042 0.6327 0.0
C659 C 0.9465 0.22889 0.63601 0.0
N660 N -0.00583 0.17601 0.63249 0.0
N661 N -0.01179 0.33719 0.62068 0.0
C662 C -0.00804 0.21571 0.63707 0.0
C663 C -0.01186 0.29832 0.63075 0.0
N664 N 0.07626 0.23172 0.65511 0.0
N665 N 0.90047 0.28369 0.6342 0.0
H666 H 0.02016 0.35815 0.61907 0.0
H667 H 0.95761 0.34752 0.61043 0.0
H668 H 0.86698 0.26489 0.63558 0.0
H669 H 0.89747 0.31379 0.63685 0.0
H670 H 0.07787 0.20225 0.66244 0.0
H671 H 0.10821 0.2513 0.66101 0.0
H672 H 0.02678 0.16506 0.6296 0.0
H673 H 0.96322 0.15464 0.62763 0.0
C674 C 0.45835 0.21984 0.38049 0.0
C675 C 0.50905 0.2244 0.3735 0.0
C676 C 0.51439 0.29746 0.37164 0.0
C677 C 0.46311 0.29265 0.37536 0.0
N678 N 0.38823 0.25103 0.39494 0.0
N679 N 0.58756 0.2675 0.3734 0.0
C680 C 0.43577 0.25443 0.38397 0.0
C681 C 0.53789 0.26324 0.37308 0.0
N682 N 0.43158 0.18223 0.38236 0.0
N683 N 0.54027 0.33477 0.36518 0.0
H684 H 0.60644 0.24351 0.37334 0.0
H685 H 0.61047 0.29484 0.37667 0.0
H686 H 0.52448 0.36057 0.36689 0.0
H687 H 0.57661 0.34022 0.35693 0.0
H688 H 0.39371 0.17626 0.38213 0.0
H689 H 0.44766 0.15653 0.38275 0.0
H690 H 0.36772 0.22462 0.40481 0.0
H691 H 0.36998 0.27528 0.39744 0.0
C692 C 0.60966 0.54385 0.76984 0.0
C693 C 0.59952 0.54438 0.73085 0.0
C694 C 0.60833 0.47376 0.7269 0.0
C695 C 0.61062 0.47187 0.76665 0.0
N696 N 0.60169 0.50416 0.82619 0.0
N697 N 0.58024 0.50728 0.67347 0.0
C698 C 0.60802 0.50664 0.78826 0.0
C699 C 0.59636 0.50861 0.70963 0.0
N700 N 0.62327 0.57878 0.78917 0.0
N701 N 0.61969 0.44315 0.70546 0.0
H702 H 0.56941 0.53169 0.66019 0.0
H703 H 0.57282 0.48081 0.65806 0.0
H704 H 0.63136 0.41808 0.7168 0.0
H705 H 0.62292 0.4448 0.6764 0.0
H706 H 0.63538 0.57957 0.81681 0.0
H707 H 0.6282 0.60686 0.77654 0.0
H708 H 0.59495 0.52823 0.84246 0.0
H709 H 0.59759 0.47726 0.84084 0.0
C710 C 0.3486 1.00095 0.79541 0.0
C711 C 0.34447 0.03699 0.77652 0.0
C712 C 0.35821 1.00479 0.71659 0.0
C713 C 0.35649 0.96764 0.73517 0.0
N714 N 0.33421 0.92893 0.79137 0.0
N715 N 0.33199 0.06925 0.71777 0.0
C716 C 0.34706 0.96523 0.77434 0.0
C717 C 0.34541 0.03783 0.73667 0.0
N718 N 0.35627 1.00078 0.83318 0.0
N719 N 0.37381 0.00922 0.68032 0.0
H720 H 0.31927 0.09285 0.73118 0.0
H721 H 0.32796 0.06943 0.68876 0.0
H722 H 0.38551 0.98633 0.66506 0.0
H723 H 0.38004 0.03683 0.66682 0.0
H724 H 0.36396 0.97572 0.84735 0.0
H725 H 0.36062 0.02655 0.84964 0.0
H726 H 0.32289 0.92607 0.81922 0.0
H727 H 0.32888 0.90189 0.77676 0.0
C728 C 0.44964 0.2426 0.84367 0.0
C729 C 0.43808 0.22382 0.87872 0.0
C730 C 0.50243 0.27168 0.90845 0.0
C731 C 0.51791 0.28647 0.87244 0.0
N732 N 0.51319 0.27775 0.80493 0.0
N733 N 0.45475 0.21804 0.9444 0.0
C734 C 0.49345 0.26976 0.83978 0.0
C735 C 0.46474 0.23774 0.91125 0.0
N736 N 0.41792 0.23583 0.81426 0.0
N737 N 0.5228 0.29073 0.93978 0.0
H738 H 0.42703 0.19339 0.94717 0.0
H739 H 0.47598 0.22422 0.96833 0.0
H740 H 0.54989 0.31598 0.93853 0.0
H741 H 0.51013 0.28369 0.96679 0.0
H742 H 0.42272 0.25225 0.78949 0.0
H743 H 0.3842 0.21725 0.81593 0.0
H744 H 0.49889 0.26256 0.78096 0.0
H745 H 0.54656 0.29596 0.80009 0.0
C746 C 0.39695 0.54407 0.2738 0.0
C747 C 0.35153 0.54885 0.25778 0.0
C748 C 0.31685 0.48124 0.27833 0.0
C749 C 0.3595 0.47911 0.29948 0.0
N750 N 0.43823 0.51133 0.32135 0.0
N751 N 0.26503 0.52459 0.25251 0.0
C752 C 0.39919 0.51126 0.29826 0.0
C753 C 0.31056 0.51812 0.26204 0.0
N754 N 0.43834 0.56986 0.26454 0.0
N755 N 0.28302 0.44766 0.27246 0.0
H756 H 0.25789 0.55182 0.2424 0.0
H757 H 0.2336 0.50431 0.25867 0.0
H758 H 0.28736 0.41944 0.28203 0.0
H759 H 0.25363 0.44703 0.25433 0.0
H760 H 0.47299 0.56555 0.27263 0.0
H761 H 0.43867 0.59312 0.24544 0.0
H762 H 0.4658 0.53596 0.32442 0.0
H763 H 0.44087 0.48815 0.33997 0.0
C764 C 0.58451 0.02497 0.26117 0.0
C765 C 0.59691 0.02908 0.29978 0.0
C766 C 0.62948 0.96622 0.29711 0.0
C767 C 0.61404 0.96075 0.25927 0.0
N768 N 0.56509 0.97966 0.2088 0.0
N769 N 0.62016 0.99899 0.35649 0.0
C770 C 0.58793 0.98852 0.24235 0.0
C771 C 0.61579 0.9981 0.31837 0.0
N772 N 0.57241 0.05653 0.24166 0.0
N773 N 0.65957 0.94251 0.31222 0.0
H774 H 0.6096 0.02162 0.37289 0.0
H775 H 0.62935 0.97536 0.372 0.0
H776 H 0.67226 0.91986 0.29727 0.0
H777 H 0.67595 0.9479 0.33834 0.0
H778 H 0.56871 0.05639 0.21263 0.0
H779 H 0.57035 0.08421 0.2537 0.0
H780 H 0.54146 0.99703 0.19713 0.0
H781 H 0.56562 0.95284 0.19453 0.0
C782 C 0.47828 0.80407 0.14791 0.0
C783 C 0.52378 0.79126 0.14449 0.0
C784 C 0.48341 0.72152 0.13955 0.0
C785 C 0.43876 0.73387 0.14849 0.0
N786 N 0.39346 0.78647 0.16513 0.0
N787 N 0.57119 0.7376 0.14123 0.0
C788 C 0.43586 0.7751 0.15326 0.0
C789 C 0.52687 0.74995 0.14092 0.0
N790 N 0.47576 0.84394 0.14585 0.0
N791 N 0.48409 0.68272 0.12934 0.0
H792 H 0.60422 0.7572 0.14225 0.0
H793 H 0.57528 0.70772 0.14339 0.0
H794 H 0.45264 0.66118 0.12812 0.0
H795 H 0.51488 0.6728 0.11878 0.0
H796 H 0.44312 0.85501 0.14442 0.0
H797 H 0.50653 0.86579 0.14206 0.0
H798 H 0.39095 0.81553 0.17342 0.0
H799 H 0.36134 0.76643 0.1696 0.0
loop_
_geom_bond_atom_site_label_1
_geom_bond_atom_site_label_2
_geom_bond_distance
_geom_bond_site_symmetry_2
_ccdc_geom_bond_type
O0 Cd1 2.223 . S
O0 C8 1.315 . S
Cd1 O0 2.223 . S
Cd1 O4 2.297 . S
Cd1 O5 2.439 . S
Cd1 O11 2.240 . S
Cd2 O3 2.240 . S
Cd2 O10 2.223 . S
Cd2 O12 2.297 . S
Cd2 O13 2.439 . S
O3 Cd2 2.240 . S
O3 C8 1.279 . S
O4 Cd1 2.297 . S
O4 C6 1.247 . S
O5 Cd1 2.439 . S
O5 C6 1.208 . S
C6 O4 1.247 . S
C6 O5 1.208 . S
C7 O12 1.247 . S
C7 O13 1.208 . S
C8 O0 1.315 . S
C8 O3 1.279 . S
C9 O10 1.315 . S
C9 O11 1.279 . S
O10 Cd2 2.223 . S
O10 C9 1.315 . S
O11 Cd1 2.240 . S
O11 C9 1.279 . S
O12 Cd2 2.297 . S
O12 C7 1.247 . S
O13 Cd2 2.439 . S
O13 C7 1.208 . S
O14 Cd15 2.223 . S
O14 C22 1.315 . S
Cd15 O14 2.223 . S
Cd15 O18 2.297 . S
Cd15 O19 2.439 . S
Cd15 O25 2.240 . S
Cd16 O17 2.240 . S
Cd16 O24 2.223 . S
Cd16 O26 2.297 . S
Cd16 O27 2.439 . S
O17 Cd16 2.240 . S
O17 C22 1.279 . S
O18 Cd15 2.297 . S
O18 C20 1.247 . S
O19 Cd15 2.439 . S
O19 C20 1.208 . S
C20 O18 1.247 . S
C20 O19 1.208 . S
C21 O26 1.247 . S
C21 O27 1.208 . S
C22 O14 1.315 . S
C22 O17 1.279 . S
C23 O24 1.315 . S
C23 O25 1.279 . S
O24 Cd16 2.223 . S
O24 C23 1.315 . S
O25 Cd15 2.240 . S
O25 C23 1.279 . S
O26 Cd16 2.297 . S
O26 C21 1.247 . S
O27 Cd16 2.439 . S
O27 C21 1.208 . S
O28 Cd29 2.223 . S
O28 C36 1.315 . S
Cd29 O28 2.223 . S
Cd29 O32 2.297 . S
Cd29 O33 2.439 . S
Cd29 O39 2.240 . S
Cd30 O31 2.240 . S
Cd30 O38 2.223 . S
Cd30 O40 2.297 . S
Cd30 O41 2.439 . S
O31 Cd30 2.240 . S
O31 C36 1.279 . S
O32 Cd29 2.297 . S
O32 C34 1.247 . S
O33 Cd29 2.439 . S
O33 C34 1.208 . S
C34 O32 1.247 . S
C34 O33 1.208 . S
C35 O40 1.247 . S
C35 O41 1.208 . S
C36 O28 1.315 . S
C36 O31 1.279 . S
C37 O38 1.315 . S
C37 O39 1.279 . S
O38 Cd30 2.223 . S
O38 C37 1.315 . S
O39 Cd29 2.240 . S
O39 C37 1.279 . S
O40 Cd30 2.297 . S
O40 C35 1.247 . S
O41 Cd30 2.439 . S
O41 C35 1.208 . S
O42 Cd43 2.223 . S
O42 C50 1.315 . S
Cd43 O42 2.223 . S
Cd43 O46 2.297 . S
Cd43 O47 2.439 . S
Cd43 O53 2.240 . S
Cd44 O45 2.240 . S
Cd44 O52 2.223 . S
Cd44 O54 2.297 . S
Cd44 O55 2.439 . S
O45 Cd44 2.240 . S
O45 C50 1.279 . S
O46 Cd43 2.297 . S
O46 C48 1.247 . S
O47 Cd43 2.439 . S
O47 C48 1.208 . S
C48 O46 1.247 . S
C48 O47 1.208 . S
C49 O54 1.247 . S
C49 O55 1.208 . S
C50 O42 1.315 . S
C50 O45 1.279 . S
C51 O52 1.315 . S
C51 O53 1.279 . S
O52 Cd44 2.223 . S
O52 C51 1.315 . S
O53 Cd43 2.240 . S
O53 C51 1.279 . S
O54 Cd44 2.297 . S
O54 C49 1.247 . S
O55 Cd44 2.439 . S
O55 C49 1.208 . S
O56 Cd57 2.223 . S
O56 C64 1.315 . S
Cd57 O56 2.223 . S
Cd57 O60 2.297 . S
Cd57 O61 2.439 . S
Cd57 O67 2.240 . S
Cd58 O59 2.240 . S
Cd58 O66 2.223 . S
Cd58 O68 2.297 . S
Cd58 O69 2.439 . S
O59 Cd58 2.240 . S
O59 C64 1.279 . S
O60 Cd57 2.297 . S
O60 C62 1.247 . S
O61 Cd57 2.439 . S
O61 C62 1.208 . S
C62 O60 1.247 . S
C62 O61 1.208 . S
C63 O68 1.247 . S
C63 O69 1.208 . S
C64 O56 1.315 . S
C64 O59 1.279 . S
C65 O66 1.315 . S
C65 O67 1.279 . S
O66 Cd58 2.223 . S
O66 C65 1.315 . S
O67 Cd57 2.240 . S
O67 C65 1.279 . S
O68 Cd58 2.297 . S
O68 C63 1.247 . S
O69 Cd58 2.439 . S
O69 C63 1.208 . S
O70 Cd71 2.223 . S
O70 C78 1.315 . S
Cd71 O70 2.223 . S
Cd71 O74 2.297 . S
Cd71 O75 2.439 . S
Cd71 O81 2.240 . S
Cd72 O73 2.240 . S
Cd72 O80 2.223 . S
Cd72 O82 2.297 . S
Cd72 O83 2.439 . S
O73 Cd72 2.240 . S
O73 C78 1.279 . S
O74 Cd71 2.297 . S
O74 C76 1.247 . S
O75 Cd71 2.439 . S
O75 C76 1.208 . S
C76 O74 1.247 . S
C76 O75 1.208 . S
C77 O82 1.247 . S
C77 O83 1.208 . S
C78 O70 1.315 . S
C78 O73 1.279 . S
C79 O80 1.315 . S
C79 O81 1.279 . S
O80 Cd72 2.223 . S
O80 C79 1.315 . S
O81 Cd71 2.240 . S
O81 C79 1.279 . S
O82 Cd72 2.297 . S
O82 C77 1.247 . S
O83 Cd72 2.439 . S
O83 C77 1.208 . S
O84 Cd85 2.223 . S
O84 C92 1.315 . S
Cd85 O84 2.223 . S
Cd85 O88 2.297 . S
Cd85 O89 2.439 . S
Cd85 O95 2.240 . S
Cd86 O87 2.240 . S
Cd86 O94 2.223 . S
Cd86 O96 2.297 . S
Cd86 O97 2.439 . S
O87 Cd86 2.240 . S
O87 C92 1.279 . S
O88 Cd85 2.297 . S
O88 C90 1.247 . S
O89 Cd85 2.439 . S
O89 C90 1.208 . S
C90 O88 1.247 . S
C90 O89 1.208 . S
C91 O96 1.247 . S
C91 O97 1.208 . S
C92 O84 1.315 . S
C92 O87 1.279 . S
C93 O94 1.315 . S
C93 O95 1.279 . S
O94 Cd86 2.223 . S
O94 C93 1.315 . S
O95 Cd85 2.240 . S
O95 C93 1.279 . S
O96 Cd86 2.297 . S
O96 C91 1.247 . S
O97 Cd86 2.439 . S
O97 C91 1.208 . S
O98 Cd99 2.223 . S
O98 C106 1.315 . S
Cd99 O98 2.223 . S
Cd99 O102 2.297 . S
Cd99 O103 2.439 . S
Cd99 O109 2.240 . S
Cd100 O101 2.240 . S
Cd100 O108 2.223 . S
Cd100 O110 2.297 . S
Cd100 O111 2.439 . S
O101 Cd100 2.240 . S
O101 C106 1.279 . S
O102 Cd99 2.297 . S
O102 C104 1.247 . S
O103 Cd99 2.439 . S
O103 C104 1.208 . S
C104 O102 1.247 . S
C104 O103 1.208 . S
C105 O110 1.247 . S
C105 O111 1.208 . S
C106 O98 1.315 . S
C106 O101 1.279 . S
C107 O108 1.315 . S
C107 O109 1.279 . S
O108 Cd100 2.223 . S
O108 C107 1.315 . S
O109 Cd99 2.240 . S
O109 C107 1.279 . S
O110 Cd100 2.297 . S
O110 C105 1.247 . S
O111 Cd100 2.439 . S
O111 C105 1.208 . S
O112 Cd113 2.223 . S
O112 C120 1.315 . S
Cd113 O112 2.223 . S
Cd113 O116 2.297 . S
Cd113 O117 2.439 . S
Cd113 O123 2.240 . S
Cd114 O115 2.240 . S
Cd114 O122 2.223 . S
Cd114 O124 2.297 . S
Cd114 O125 2.439 . S
O115 Cd114 2.240 . S
O115 C120 1.279 . S
O116 Cd113 2.297 . S
O116 C118 1.247 . S
O117 Cd113 2.439 . S
O117 C118 1.208 . S
C118 O116 1.247 . S
C118 O117 1.208 . S
C119 O124 1.247 . S
C119 O125 1.208 . S
C120 O112 1.315 . S
C120 O115 1.279 . S
C121 O122 1.315 . S
C121 O123 1.279 . S
O122 Cd114 2.223 . S
O122 C121 1.315 . S
O123 Cd113 2.240 . S
O123 C121 1.279 . S
O124 Cd114 2.297 . S
O124 C119 1.247 . S
O125 Cd114 2.439 . S
O125 C119 1.208 . S
O126 Cd127 2.223 . S
O126 C134 1.315 . S
Cd127 O126 2.223 . S
Cd127 O130 2.297 . S
Cd127 O131 2.439 . S
Cd127 O137 2.240 . S
Cd128 O129 2.240 . S
Cd128 O136 2.223 . S
Cd128 O138 2.297 . S
Cd128 O139 2.439 . S
O129 Cd128 2.240 . S
O129 C134 1.279 . S
O130 Cd127 2.297 . S
O130 C132 1.247 . S
O131 Cd127 2.439 . S
O131 C132 1.208 . S
C132 O130 1.247 . S
C132 O131 1.208 . S
C133 O138 1.247 . S
C133 O139 1.208 . S
C134 O126 1.315 . S
C134 O129 1.279 . S
C135 O136 1.315 . S
C135 O137 1.279 . S
O136 Cd128 2.223 . S
O136 C135 1.315 . S
O137 Cd127 2.240 . S
O137 C135 1.279 . S
O138 Cd128 2.297 . S
O138 C133 1.247 . S
O139 Cd128 2.439 . S
O139 C133 1.208 . S
O140 Cd141 2.223 . S
O140 C148 1.315 . S
Cd141 O140 2.223 . S
Cd141 O144 2.297 . S
Cd141 O145 2.439 . S
Cd141 O151 2.240 . S
Cd142 O143 2.240 . S
Cd142 O150 2.223 . S
Cd142 O152 2.297 . S
Cd142 O153 2.439 . S
O143 Cd142 2.240 . S
O143 C148 1.279 . S
O144 Cd141 2.297 . S
O144 C146 1.247 . S
O145 Cd141 2.439 . S
O145 C146 1.208 . S
C146 O144 1.247 . S
C146 O145 1.208 . S
C147 O152 1.247 . S
C147 O153 1.208 . S
C148 O140 1.315 . S
C148 O143 1.279 . S
C149 O150 1.315 . S
C149 O151 1.279 . S
O150 Cd142 2.223 . S
O150 C149 1.315 . S
O151 Cd141 2.240 . S
O151 C149 1.279 . S
O152 Cd142 2.297 . S
O152 C147 1.247 . S
O153 Cd142 2.439 . S
O153 C147 1.208 . S
O154 Cd155 2.223 . S
O154 C162 1.315 . S
Cd155 O154 2.223 . S
Cd155 O158 2.297 . S
Cd155 O159 2.439 . S
Cd155 O165 2.240 . S
Cd156 O157 2.240 . S
Cd156 O164 2.223 . S
Cd156 O166 2.297 . S
Cd156 O167 2.439 . S
O157 Cd156 2.240 . S
O157 C162 1.279 . S
O158 Cd155 2.297 . S
O158 C160 1.247 . S
O159 Cd155 2.439 . S
O159 C160 1.208 . S
C160 O158 1.247 . S
C160 O159 1.208 . S
C161 O166 1.247 . S
C161 O167 1.208 . S
C162 O154 1.315 . S
C162 O157 1.279 . S
C163 O164 1.315 . S
C163 O165 1.279 . S
O164 Cd156 2.223 . S
O164 C163 1.315 . S
O165 Cd155 2.240 . S
O165 C163 1.279 . S
O166 Cd156 2.297 . S
O166 C161 1.247 . S
O167 Cd156 2.439 . S
O167 C161 1.208 . S
O168 Cd169 2.223 . S
O168 C176 1.315 . S
Cd169 O168 2.223 . S
Cd169 O172 2.297 . S
Cd169 O173 2.439 . S
Cd169 O179 2.240 . S
Cd170 O171 2.240 . S
Cd170 O178 2.223 . S
Cd170 O180 2.297 . S
Cd170 O181 2.439 . S
O171 Cd170 2.240 . S
O171 C176 1.279 . S
O172 Cd169 2.297 . S
O172 C174 1.247 . S
O173 Cd169 2.439 . S
O173 C174 1.208 . S
C174 O172 1.247 . S
C174 O173 1.208 . S
C175 O180 1.247 . S
C175 O181 1.208 . S
C176 O168 1.315 . S
C176 O171 1.279 . S
C177 O178 1.315 . S
C177 O179 1.279 . S
O178 Cd170 2.223 . S
O178 C177 1.315 . S
O179 Cd169 2.240 . S
O179 C177 1.279 . S
O180 Cd170 2.297 . S
O180 C175 1.247 . S
O181 Cd170 2.439 . S
O181 C175 1.208 . S
O182 Cd183 2.223 . S
O182 C190 1.315 . S
Cd183 O182 2.223 . S
Cd183 O186 2.297 . S
Cd183 O187 2.439 . S
Cd183 O193 2.240 . S
Cd184 O185 2.240 . S
Cd184 O192 2.223 . S
Cd184 O194 2.297 . S
Cd184 O195 2.439 . S
O185 Cd184 2.240 . S
O185 C190 1.279 . S
O186 Cd183 2.297 . S
O186 C188 1.247 . S
O187 Cd183 2.439 . S
O187 C188 1.208 . S
C188 O186 1.247 . S
C188 O187 1.208 . S
C189 O194 1.247 . S
C189 O195 1.208 . S
C190 O182 1.315 . S
C190 O185 1.279 . S
C191 O192 1.315 . S
C191 O193 1.279 . S
O192 Cd184 2.223 . S
O192 C191 1.315 . S
O193 Cd183 2.240 . S
O193 C191 1.279 . S
O194 Cd184 2.297 . S
O194 C189 1.247 . S
O195 Cd184 2.439 . S
O195 C189 1.208 . S
O196 Cd197 2.223 . S
O196 C204 1.315 . S
Cd197 O196 2.223 . S
Cd197 O200 2.297 . S
Cd197 O201 2.439 . S
Cd197 O207 2.240 . S
Cd198 O199 2.240 . S
Cd198 O206 2.223 . S
Cd198 O208 2.297 . S
Cd198 O209 2.439 . S
O199 Cd198 2.240 . S
O199 C204 1.279 . S
O200 Cd197 2.297 . S
O200 C202 1.247 . S
O201 Cd197 2.439 . S
O201 C202 1.208 . S
C202 O200 1.247 . S
C202 O201 1.208 . S
C203 O208 1.247 . S
C203 O209 1.208 . S
C204 O196 1.315 . S
C204 O199 1.279 . S
C205 O206 1.315 . S
C205 O207 1.279 . S
O206 Cd198 2.223 . S
O206 C205 1.315 . S
O207 Cd197 2.240 . S
O207 C205 1.279 . S
O208 Cd198 2.297 . S
O208 C203 1.247 . S
O209 Cd198 2.439 . S
O209 C203 1.208 . S
O210 Cd211 2.223 . S
O210 C218 1.315 . S
Cd211 O210 2.223 . S
Cd211 O214 2.297 . S
Cd211 O215 2.439 . S
Cd211 O221 2.240 . S
Cd212 O213 2.240 . S
Cd212 O220 2.223 . S
Cd212 O222 2.297 . S
Cd212 O223 2.439 . S
O213 Cd212 2.240 . S
O213 C218 1.279 . S
O214 Cd211 2.297 . S
O214 C216 1.247 . S
O215 Cd211 2.439 . S
O215 C216 1.208 . S
C216 O214 1.247 . S
C216 O215 1.208 . S
C217 O222 1.247 . S
C217 O223 1.208 . S
C218 O210 1.315 . S
C218 O213 1.279 . S
C219 O220 1.315 . S
C219 O221 1.279 . S
O220 Cd212 2.223 . S
O220 C219 1.315 . S
O221 Cd211 2.240 . S
O221 C219 1.279 . S
O222 Cd212 2.297 . S
O222 C217 1.247 . S
O223 Cd212 2.439 . S
O223 C217 1.208 . S
C224 C225 1.363 . S
C224 C230 1.379 . S
C224 N232 1.356 . S
C225 C224 1.363 . S
C225 C231 1.363 . S
C226 C227 1.363 . S
C226 C231 1.379 . S
C226 N233 1.356 . S
C227 C226 1.363 . S
C227 C230 1.363 . S
N228 C230 1.356 . S
N228 H240 0.984 . S
N228 H241 0.985 . S
N229 C231 1.356 . S
N229 H234 0.984 . S
N229 H235 0.985 . S
C230 C224 1.379 . S
C230 C227 1.363 . S
C230 N228 1.356 . S
C231 C225 1.363 . S
C231 C226 1.379 . S
C231 N229 1.356 . S
N232 C224 1.356 . S
N232 H238 0.984 . S
N232 H239 0.984 . S
N233 C226 1.356 . S
N233 H236 0.984 . S
N233 H237 0.985 . S
H234 N229 0.984 . S
H235 N229 0.985 . S
H236 N233 0.984 . S
H237 N233 0.985 . S
H238 N232 0.984 . S
H239 N232 0.984 . S
H240 N228 0.984 . S
H241 N228 0.985 . S
C242 C243 1.363 . S
C242 C248 1.379 . S
C242 N250 1.356 . S
C243 C242 1.363 . S
C243 C249 1.363 . S
C244 C245 1.363 . S
C244 C249 1.379 . S
C244 N251 1.356 . S
C245 C244 1.363 . S
C245 C248 1.363 . S
N246 C248 1.356 . S
N246 H258 0.984 . S
N246 H259 0.985 . S
N247 C249 1.356 . S
N247 H252 0.984 . S
N247 H253 0.985 . S
C248 C242 1.379 . S
C248 C245 1.363 . S
C248 N246 1.356 . S
C249 C243 1.363 . S
C249 C244 1.379 . S
C249 N247 1.356 . S
N250 C242 1.356 . S
N250 H256 0.984 . S
N250 H257 0.984 . S
N251 C244 1.356 . S
N251 H254 0.984 . S
N251 H255 0.985 . S
H252 N247 0.984 . S
H253 N247 0.985 . S
H254 N251 0.984 . S
H255 N251 0.985 . S
H256 N250 0.984 . S
H257 N250 0.984 . S
H258 N246 0.984 . S
H259 N246 0.985 . S
C260 C261 1.363 . S
C260 C266 1.379 . S
C260 N268 1.356 . S
C261 C260 1.363 . S
C261 C267 1.363 . S
C262 C263 1.363 . S
C262 C267 1.379 . S
C262 N269 1.356 . S
C263 C262 1.363 . S
C263 C266 1.363 . S
N264 C266 1.356 . S
N264 H276 0.984 . S
N264 H277 0.985 . S
N265 C267 1.356 . S
N265 H270 0.984 . S
N265 H271 0.985 . S
C266 C260 1.379 . S
C266 C263 1.363 . S
C266 N264 1.356 . S
C267 C261 1.363 . S
C267 C262 1.379 . S
C267 N265 1.356 . S
N268 C260 1.356 . S
N268 H274 0.984 . S
N268 H275 0.984 . S
N269 C262 1.356 . S
N269 H272 0.984 . S
N269 H273 0.985 . S
H270 N265 0.984 . S
H271 N265 0.985 . S
H272 N269 0.984 . S
H273 N269 0.985 . S
H274 N268 0.984 . S
H275 N268 0.984 . S
H276 N264 0.984 . S
H277 N264 0.985 . S
C278 C279 1.363 . S
C278 C284 1.379 . S
C278 N286 1.356 . S
C279 C278 1.363 . S
C279 C285 1.363 . S
C280 C281 1.363 . S
C280 C285 1.379 . S
C280 N287 1.356 . S
C281 C280 1.363 . S
C281 C284 1.363 . S
N282 C284 1.356 . S
N282 H294 0.984 . S
N282 H295 0.985 . S
N283 C285 1.356 . S
N283 H288 0.984 . S
N283 H289 0.985 . S
C284 C278 1.379 . S
C284 C281 1.363 . S
C284 N282 1.356 . S
C285 C279 1.363 . S
C285 C280 1.379 . S
C285 N283 1.356 . S
N286 C278 1.356 . S
N286 H292 0.984 . S
N286 H293 0.984 . S
N287 C280 1.356 . S
N287 H290 0.984 . S
N287 H291 0.985 . S
H288 N283 0.984 . S
H289 N283 0.985 . S
H290 N287 0.984 . S
H291 N287 0.985 . S
H292 N286 0.984 . S
H293 N286 0.984 . S
H294 N282 0.984 . S
H295 N282 0.985 . S
C296 C297 1.363 . S
C296 C302 1.379 . S
C296 N304 1.356 . S
C297 C296 1.363 . S
C297 C303 1.363 . S
C298 C299 1.363 . S
C298 C303 1.379 . S
C298 N305 1.356 . S
C299 C298 1.363 . S
C299 C302 1.363 . S
N300 C302 1.356 . S
N300 H312 0.984 . S
N300 H313 0.985 . S
N301 C303 1.356 . S
N301 H306 0.984 . S
N301 H307 0.985 . S
C302 C296 1.379 . S
C302 C299 1.363 . S
C302 N300 1.356 . S
C303 C297 1.363 . S
C303 C298 1.379 . S
C303 N301 1.356 . S
N304 C296 1.356 . S
N304 H310 0.984 . S
N304 H311 0.984 . S
N305 C298 1.356 . S
N305 H308 0.984 . S
N305 H309 0.985 . S
H306 N301 0.984 . S
H307 N301 0.985 . S
H308 N305 0.984 . S
H309 N305 0.985 . S
H310 N304 0.984 . S
H311 N304 0.984 . S
H312 N300 0.984 . S
H313 N300 0.985 . S
C314 C315 1.363 . S
C314 C320 1.379 . S
C314 N322 1.356 . S
C315 C314 1.363 . S
C315 C321 1.363 . S
C316 C317 1.363 . S
C316 C321 1.379 . S
C316 N323 1.356 . S
C317 C316 1.363 . S
C317 C320 1.363 . S
N318 C320 1.356 . S
N318 H330 0.984 . S
N318 H331 0.985 . S
N319 C321 1.356 . S
N319 H324 0.984 . S
N319 H325 0.985 . S
C320 C314 1.379 . S
C320 C317 1.363 . S
C320 N318 1.356 . S
C321 C315 1.363 . S
C321 C316 1.379 . S
C321 N319 1.356 . S
N322 C314 1.356 . S
N322 H328 0.984 . S
N322 H329 0.984 . S
N323 C316 1.356 . S
N323 H326 0.984 . S
N323 H327 0.985 . S
H324 N319 0.984 . S
H325 N319 0.985 . S
H326 N323 0.984 . S
H327 N323 0.985 . S
H328 N322 0.984 . S
H329 N322 0.984 . S
H330 N318 0.984 . S
H331 N318 0.985 . S
C332 C333 1.363 . S
C332 C338 1.379 . S
C332 N340 1.356 . S
C333 C332 1.363 . S
C333 C339 1.363 . S
C334 C335 1.363 . S
C334 C339 1.379 . S
C334 N341 1.356 . S
C335 C334 1.363 . S
C335 C338 1.363 . S
N336 C338 1.356 . S
N336 H348 0.984 . S
N336 H349 0.985 . S
N337 C339 1.356 . S
N337 H342 0.984 . S
N337 H343 0.985 . S
C338 C332 1.379 . S
C338 C335 1.363 . S
C338 N336 1.356 . S
C339 C333 1.363 . S
C339 C334 1.379 . S
C339 N337 1.356 . S
N340 C332 1.356 . S
N340 H346 0.984 . S
N340 H347 0.984 . S
N341 C334 1.356 . S
N341 H344 0.984 . S
N341 H345 0.985 . S
H342 N337 0.984 . S
H343 N337 0.985 . S
H344 N341 0.984 . S
H345 N341 0.985 . S
H346 N340 0.984 . S
H347 N340 0.984 . S
H348 N336 0.984 . S
H349 N336 0.985 . S
C350 C351 1.363 . S
C350 C356 1.379 . S
C350 N358 1.356 . S
C351 C350 1.363 . S
C351 C357 1.363 . S
C352 C353 1.363 . S
C352 C357 1.379 . S
C352 N359 1.356 . S
C353 C352 1.363 . S
C353 C356 1.363 . S
N354 C356 1.356 . S
N354 H366 0.984 . S
N354 H367 0.985 . S
N355 C357 1.356 . S
N355 H360 0.984 . S
N355 H361 0.985 . S
C356 C350 1.379 . S
C356 C353 1.363 . S
C356 N354 1.356 . S
C357 C351 1.363 . S
C357 C352 1.379 . S
C357 N355 1.356 . S
N358 C350 1.356 . S
N358 H364 0.984 . S
N358 H365 0.984 . S
N359 C352 1.356 . S
N359 H362 0.984 . S
N359 H363 0.985 . S
H360 N355 0.984 . S
H361 N355 0.985 . S
H362 N359 0.984 . S
H363 N359 0.985 . S
H364 N358 0.984 . S
H365 N358 0.984 . S
H366 N354 0.984 . S
H367 N354 0.985 . S
C368 C369 1.363 . S
C368 C374 1.379 1_565 S
C368 N376 1.356 . S
C369 C368 1.363 . S
C369 C375 1.363 1_565 S
C370 C371 1.363 . S
C370 C375 1.379 . S
C370 N377 1.356 . S
C371 C370 1.363 . S
C371 C374 1.363 . S
N372 C374 1.356 . S
N372 H384 0.984 1_545 S
N372 H385 0.985 . S
N373 C375 1.356 . S
N373 H378 0.984 1_545 S
N373 H379 0.985 . S
C374 C368 1.379 1_545 S
C374 C371 1.363 . S
C374 N372 1.356 . S
C375 C369 1.363 1_545 S
C375 C370 1.379 . S
C375 N373 1.356 . S
N376 C368 1.356 . S
N376 H382 0.984 . S
N376 H383 0.984 . S
N377 C370 1.356 . S
N377 H380 0.984 . S
N377 H381 0.985 . S
H378 N373 0.984 1_565 S
H379 N373 0.985 . S
H380 N377 0.984 . S
H381 N377 0.985 . S
H382 N376 0.984 . S
H383 N376 0.984 . S
H384 N372 0.984 1_565 S
H385 N372 0.985 . S
C386 C387 1.363 . S
C386 C392 1.379 . S
C386 N394 1.356 . S
C387 C386 1.363 . S
C387 C393 1.363 . S
C388 C389 1.363 . S
C388 C393 1.379 . S
C388 N395 1.356 . S
C389 C388 1.363 . S
C389 C392 1.363 . S
N390 C392 1.356 . S
N390 H402 0.984 . S
N390 H403 0.985 . S
N391 C393 1.356 . S
N391 H396 0.984 . S
N391 H397 0.985 . S
C392 C386 1.379 . S
C392 C389 1.363 . S
C392 N390 1.356 . S
C393 C387 1.363 . S
C393 C388 1.379 . S
C393 N391 1.356 . S
N394 C386 1.356 . S
N394 H400 0.984 . S
N394 H401 0.984 . S
N395 C388 1.356 . S
N395 H398 0.984 . S
N395 H399 0.985 . S
H396 N391 0.984 . S
H397 N391 0.985 . S
H398 N395 0.984 . S
H399 N395 0.985 . S
H400 N394 0.984 . S
H401 N394 0.984 . S
H402 N390 0.984 . S
H403 N390 0.985 . S
C404 C405 1.363 . S
C404 C410 1.379 1_556 S
C404 N412 1.356 . S
C405 C404 1.363 . S
C405 C411 1.363 . S
C406 C407 1.363 1_556 S
C406 C411 1.379 . S
C406 N413 1.356 1_556 S
C407 C406 1.363 1_554 S
C407 C410 1.363 . S
N408 C410 1.356 . S
N408 H420 0.984 . S
N408 H421 0.985 . S
N409 C411 1.356 . S
N409 H414 0.984 . S
N409 H415 0.985 . S
C410 C404 1.379 1_554 S
C410 C407 1.363 . S
C410 N408 1.356 . S
C411 C405 1.363 . S
C411 C406 1.379 . S
C411 N409 1.356 . S
N412 C404 1.356 . S
N412 H418 0.984 . S
N412 H419 0.984 . S
N413 C406 1.356 1_554 S
N413 H416 0.984 . S
N413 H417 0.985 . S
H414 N409 0.984 . S
H415 N409 0.985 . S
H416 N413 0.984 . S
H417 N413 0.985 . S
H418 N412 0.984 . S
H419 N412 0.984 . S
H420 N408 0.984 . S
H421 N408 0.985 . S
C422 C423 1.363 1_556 S
C422 C428 1.379 . S
C422 N430 1.356 . S
C423 C422 1.363 1_554 S
C423 C429 1.363 . S
C424 C425 1.363 . S
C424 C429 1.379 1_556 S
C424 N431 1.356 . S
C425 C424 1.363 . S
C425 C428 1.363 . S
N426 C428 1.356 . S
N426 H438 0.984 . S
N426 H439 0.985 . S
N427 C429 1.356 . S
N427 H432 0.984 . S
N427 H433 0.985 . S
C428 C422 1.379 . S
C428 C425 1.363 . S
C428 N426 1.356 . S
C429 C423 1.363 . S
C429 C424 1.379 1_554 S
C429 N427 1.356 . S
N430 C422 1.356 . S
N430 H436 0.984 . S
N430 H437 0.984 1_556 S
N431 C424 1.356 . S
N431 H434 0.984 . S
N431 H435 0.985 1_556 S
H432 N427 0.984 . S
H433 N427 0.985 . S
H434 N431 0.984 . S
H435 N431 0.985 1_554 S
H436 N430 0.984 . S
H437 N430 0.984 1_554 S
H438 N426 0.984 . S
H439 N426 0.985 . S
C440 C441 1.363 . S
C440 C446 1.379 . S
C440 N448 1.356 . S
C441 C440 1.363 . S
C441 C447 1.363 . S
C442 C443 1.363 . S
C442 C447 1.379 . S
C442 N449 1.356 . S
C443 C442 1.363 . S
C443 C446 1.363 . S
N444 C446 1.356 . S
N444 H456 0.984 . S
N444 H457 0.985 . S
N445 C447 1.356 . S
N445 H450 0.984 . S
N445 H451 0.985 . S
C446 C440 1.379 . S
C446 C443 1.363 . S
C446 N444 1.356 . S
C447 C441 1.363 . S
C447 C442 1.379 . S
C447 N445 1.356 . S
N448 C440 1.356 . S
N448 H454 0.984 . S
N448 H455 0.984 . S
N449 C442 1.356 . S
N449 H452 0.984 . S
N449 H453 0.985 . S
H450 N445 0.984 . S
H451 N445 0.985 . S
H452 N449 0.984 . S
H453 N449 0.985 . S
H454 N448 0.984 . S
H455 N448 0.984 . S
H456 N444 0.984 . S
H457 N444 0.985 . S
C458 C459 1.363 . S
C458 C464 1.379 . S
C458 N466 1.356 . S
C459 C458 1.363 . S
C459 C465 1.363 . S
C460 C461 1.363 . S
C460 C465 1.379 . S
C460 N467 1.356 . S
C461 C460 1.363 . S
C461 C464 1.363 . S
N462 C464 1.356 . S
N462 H474 0.984 . S
N462 H475 0.985 . S
N463 C465 1.356 . S
N463 H468 0.984 . S
N463 H469 0.985 . S
C464 C458 1.379 . S
C464 C461 1.363 . S
C464 N462 1.356 . S
C465 C459 1.363 . S
C465 C460 1.379 . S
C465 N463 1.356 . S
N466 C458 1.356 . S
N466 H472 0.984 . S
N466 H473 0.984 . S
N467 C460 1.356 . S
N467 H470 0.984 . S
N467 H471 0.985 . S
H468 N463 0.984 . S
H469 N463 0.985 . S
H470 N467 0.984 . S
H471 N467 0.985 . S
H472 N466 0.984 . S
H473 N466 0.984 . S
H474 N462 0.984 . S
H475 N462 0.985 . S
C476 C477 1.363 . S
C476 C482 1.379 1_655 S
C476 N484 1.356 . S
C477 C476 1.363 . S
C477 C483 1.363 . S
C478 C479 1.363 . S
C478 C483 1.379 1_455 S
C478 N485 1.356 . S
C479 C478 1.363 . S
C479 C482 1.363 . S
N480 C482 1.356 . S
N480 H492 0.984 . S
N480 H493 0.985 . S
N481 C483 1.356 . S
N481 H486 0.984 . S
N481 H487 0.985 . S
C482 C476 1.379 1_455 S
C482 C479 1.363 . S
C482 N480 1.356 . S
C483 C477 1.363 . S
C483 C478 1.379 1_655 S
C483 N481 1.356 . S
N484 C476 1.356 . S
N484 H490 0.984 . S
N484 H491 0.984 . S
N485 C478 1.356 . S
N485 H488 0.984 . S
N485 H489 0.985 . S
H486 N481 0.984 . S
H487 N481 0.985 . S
H488 N485 0.984 . S
H489 N485 0.985 . S
H490 N484 0.984 . S
H491 N484 0.984 . S
H492 N480 0.984 . S
H493 N480 0.985 . S
C494 C495 1.363 . S
C494 C500 1.379 1_655 S
C494 N502 1.356 . S
C495 C494 1.363 . S
C495 C501 1.363 . S
C496 C497 1.363 . S
C496 C501 1.379 1_455 S
C496 N503 1.356 . S
C497 C496 1.363 . S
C497 C500 1.363 . S
N498 C500 1.356 . S
N498 H510 0.984 . S
N498 H511 0.985 . S
N499 C501 1.356 . S
N499 H504 0.984 . S
N499 H505 0.985 . S
C500 C494 1.379 1_455 S
C500 C497 1.363 . S
C500 N498 1.356 . S
C501 C495 1.363 . S
C501 C496 1.379 1_655 S
C501 N499 1.356 . S
N502 C494 1.356 . S
N502 H508 0.984 . S
N502 H509 0.984 . S
N503 C496 1.356 . S
N503 H506 0.984 . S
N503 H507 0.985 . S
H504 N499 0.984 . S
H505 N499 0.985 . S
H506 N503 0.984 . S
H507 N503 0.985 . S
H508 N502 0.984 . S
H509 N502 0.984 . S
H510 N498 0.984 . S
H511 N498 0.985 . S
C512 C513 1.363 . S
C512 C518 1.379 . S
C512 N520 1.356 . S
C513 C512 1.363 . S
C513 C519 1.363 . S
C514 C515 1.363 . S
C514 C519 1.379 . S
C514 N521 1.356 . S
C515 C514 1.363 . S
C515 C518 1.363 . S
N516 C518 1.356 . S
N516 H528 0.984 . S
N516 H529 0.985 . S
N517 C519 1.356 . S
N517 H522 0.984 . S
N517 H523 0.985 . S
C518 C512 1.379 . S
C518 C515 1.363 . S
C518 N516 1.356 . S
C519 C513 1.363 . S
C519 C514 1.379 . S
C519 N517 1.356 . S
N520 C512 1.356 . S
N520 H526 0.984 . S
N520 H527 0.984 . S
N521 C514 1.356 . S
N521 H524 0.984 . S
N521 H525 0.985 . S
H522 N517 0.984 . S
H523 N517 0.985 . S
H524 N521 0.984 . S
H525 N521 0.985 . S
H526 N520 0.984 . S
H527 N520 0.984 . S
H528 N516 0.984 . S
H529 N516 0.985 . S
C530 C531 1.363 1_565 S
C530 C536 1.379 . S
C530 N538 1.356 . S
C531 C530 1.363 1_545 S
C531 C537 1.363 . S
C532 C533 1.363 1_545 S
C532 C537 1.379 . S
C532 N539 1.356 . S
C533 C532 1.363 1_565 S
C533 C536 1.363 . S
N534 C536 1.356 . S
N534 H546 0.984 . S
N534 H547 0.985 . S
N535 C537 1.356 . S
N535 H540 0.984 . S
N535 H541 0.985 . S
C536 C530 1.379 . S
C536 C533 1.363 . S
C536 N534 1.356 . S
C537 C531 1.363 . S
C537 C532 1.379 . S
C537 N535 1.356 . S
N538 C530 1.356 . S
N538 H544 0.984 . S
N538 H545 0.984 1_565 S
N539 C532 1.356 . S
N539 H542 0.984 1_545 S
N539 H543 0.985 . S
H540 N535 0.984 . S
H541 N535 0.985 . S
H542 N539 0.984 1_565 S
H543 N539 0.985 . S
H544 N538 0.984 . S
H545 N538 0.984 1_545 S
H546 N534 0.984 . S
H547 N534 0.985 . S
C548 C549 1.363 . S
C548 C554 1.379 . S
C548 N556 1.356 . S
C549 C548 1.363 . S
C549 C555 1.363 . S
C550 C551 1.363 . S
C550 C555 1.379 . S
C550 N557 1.356 . S
C551 C550 1.363 . S
C551 C554 1.363 . S
N552 C554 1.356 . S
N552 H564 0.984 . S
N552 H565 0.985 . S
N553 C555 1.356 . S
N553 H558 0.984 . S
N553 H559 0.985 . S
C554 C548 1.379 . S
C554 C551 1.363 . S
C554 N552 1.356 . S
C555 C549 1.363 . S
C555 C550 1.379 . S
C555 N553 1.356 . S
N556 C548 1.356 . S
N556 H562 0.984 . S
N556 H563 0.984 . S
N557 C550 1.356 . S
N557 H560 0.984 . S
N557 H561 0.985 . S
H558 N553 0.984 . S
H559 N553 0.985 . S
H560 N557 0.984 . S
H561 N557 0.985 . S
H562 N556 0.984 . S
H563 N556 0.984 . S
H564 N552 0.984 . S
H565 N552 0.985 . S
C566 C567 1.363 . S
C566 C572 1.379 . S
C566 N574 1.356 . S
C567 C566 1.363 . S
C567 C573 1.363 . S
C568 C569 1.363 1_554 S
C568 C573 1.379 . S
C568 N575 1.356 1_554 S
C569 C568 1.363 1_556 S
C569 C572 1.363 1_556 S
N570 C572 1.356 1_556 S
N570 H582 0.984 . S
N570 H583 0.985 . S
N571 C573 1.356 . S
N571 H576 0.984 . S
N571 H577 0.985 . S
C572 C566 1.379 . S
C572 C569 1.363 1_554 S
C572 N570 1.356 1_554 S
C573 C567 1.363 . S
C573 C568 1.379 . S
C573 N571 1.356 . S
N574 C566 1.356 . S
N574 H580 0.984 . S
N574 H581 0.984 . S
N575 C568 1.356 1_556 S
N575 H578 0.984 . S
N575 H579 0.985 . S
H576 N571 0.984 . S
H577 N571 0.985 . S
H578 N575 0.984 . S
H579 N575 0.985 . S
H580 N574 0.984 . S
H581 N574 0.984 . S
H582 N570 0.984 . S
H583 N570 0.985 . S
C584 C585 1.363 1_554 S
C584 C590 1.379 . S
C584 N592 1.356 1_554 S
C585 C584 1.363 1_556 S
C585 C591 1.363 . S
C586 C587 1.363 . S
C586 C591 1.379 1_554 S
C586 N593 1.356 . S
C587 C586 1.363 . S
C587 C590 1.363 . S
N588 C590 1.356 . S
N588 H600 0.984 . S
N588 H601 0.985 . S
N589 C591 1.356 . S
N589 H594 0.984 . S
N589 H595 0.985 . S
C590 C584 1.379 . S
C590 C587 1.363 . S
C590 N588 1.356 . S
C591 C585 1.363 . S
C591 C586 1.379 1_556 S
C591 N589 1.356 . S
N592 C584 1.356 1_556 S
N592 H598 0.984 . S
N592 H599 0.984 . S
N593 C586 1.356 . S
N593 H596 0.984 . S
N593 H597 0.985 . S
H594 N589 0.984 . S
H595 N589 0.985 . S
H596 N593 0.984 . S
H597 N593 0.985 . S
H598 N592 0.984 . S
H599 N592 0.984 . S
H600 N588 0.984 . S
H601 N588 0.985 . S
C602 C603 1.363 . S
C602 C608 1.379 . S
C602 N610 1.356 . S
C603 C602 1.363 . S
C603 C609 1.363 . S
C604 C605 1.363 . S
C604 C609 1.379 . S
C604 N611 1.356 . S
C605 C604 1.363 . S
C605 C608 1.363 . S
N606 C608 1.356 . S
N606 H618 0.984 . S
N606 H619 0.985 . S
N607 C609 1.356 . S
N607 H612 0.984 . S
N607 H613 0.985 . S
C608 C602 1.379 . S
C608 C605 1.363 . S
C608 N606 1.356 . S
C609 C603 1.363 . S
C609 C604 1.379 . S
C609 N607 1.356 . S
N610 C602 1.356 . S
N610 H616 0.984 . S
N610 H617 0.984 . S
N611 C604 1.356 . S
N611 H614 0.984 . S
N611 H615 0.985 . S
H612 N607 0.984 . S
H613 N607 0.985 . S
H614 N611 0.984 . S
H615 N611 0.985 . S
H616 N610 0.984 . S
H617 N610 0.984 . S
H618 N606 0.984 . S
H619 N606 0.985 . S
C620 C621 1.363 . S
C620 C626 1.379 . S
C620 N628 1.356 . S
C621 C620 1.363 . S
C621 C627 1.363 . S
C622 C623 1.363 . S
C622 C627 1.379 . S
C622 N629 1.356 . S
C623 C622 1.363 . S
C623 C626 1.363 . S
N624 C626 1.356 . S
N624 H636 0.984 . S
N624 H637 0.985 . S
N625 C627 1.356 . S
N625 H630 0.984 . S
N625 H631 0.985 . S
C626 C620 1.379 . S
C626 C623 1.363 . S
C626 N624 1.356 . S
C627 C621 1.363 . S
C627 C622 1.379 . S
C627 N625 1.356 . S
N628 C620 1.356 . S
N628 H634 0.984 . S
N628 H635 0.984 . S
N629 C622 1.356 . S
N629 H632 0.984 . S
N629 H633 0.985 . S
H630 N625 0.984 . S
H631 N625 0.985 . S
H632 N629 0.984 . S
H633 N629 0.985 . S
H634 N628 0.984 . S
H635 N628 0.984 . S
H636 N624 0.984 . S
H637 N624 0.985 . S
C638 C639 1.363 1_655 S
C638 C644 1.379 . S
C638 N646 1.356 . S
C639 C638 1.363 1_455 S
C639 C645 1.363 . S
C640 C641 1.363 1_455 S
C640 C645 1.379 . S
C640 N647 1.356 . S
C641 C640 1.363 1_655 S
C641 C644 1.363 . S
N642 C644 1.356 . S
N642 H654 0.984 . S
N642 H655 0.985 . S
N643 C645 1.356 . S
N643 H648 0.984 . S
N643 H649 0.985 . S
C644 C638 1.379 . S
C644 C641 1.363 . S
C644 N642 1.356 . S
C645 C639 1.363 . S
C645 C640 1.379 . S
C645 N643 1.356 . S
N646 C638 1.356 . S
N646 H652 0.984 . S
N646 H653 0.984 . S
N647 C640 1.356 . S
N647 H650 0.984 . S
N647 H651 0.985 . S
H648 N643 0.984 . S
H649 N643 0.985 . S
H650 N647 0.984 . S
H651 N647 0.985 . S
H652 N646 0.984 . S
H653 N646 0.984 . S
H654 N642 0.984 . S
H655 N642 0.985 . S
C656 C657 1.363 . S
C656 C662 1.379 1_455 S
C656 N664 1.356 . S
C657 C656 1.363 . S
C657 C663 1.363 . S
C658 C659 1.363 . S
C658 C663 1.379 1_655 S
C658 N665 1.356 . S
C659 C658 1.363 . S
C659 C662 1.363 . S
N660 C662 1.356 . S
N660 H672 0.984 . S
N660 H673 0.985 . S
N661 C663 1.356 . S
N661 H666 0.984 . S
N661 H667 0.985 . S
C662 C656 1.379 1_655 S
C662 C659 1.363 . S
C662 N660 1.356 . S
C663 C657 1.363 . S
C663 C658 1.379 1_455 S
C663 N661 1.356 . S
N664 C656 1.356 . S
N664 H670 0.984 . S
N664 H671 0.984 . S
N665 C658 1.356 . S
N665 H668 0.984 . S
N665 H669 0.985 . S
H666 N661 0.984 . S
H667 N661 0.985 . S
H668 N665 0.984 . S
H669 N665 0.985 . S
H670 N664 0.984 . S
H671 N664 0.984 . S
H672 N660 0.984 . S
H673 N660 0.985 . S
C674 C675 1.363 . S
C674 C680 1.379 . S
C674 N682 1.356 . S
C675 C674 1.363 . S
C675 C681 1.363 . S
C676 C677 1.363 . S
C676 C681 1.379 . S
C676 N683 1.356 . S
C677 C676 1.363 . S
C677 C680 1.363 . S
N678 C680 1.356 . S
N678 H690 0.984 . S
N678 H691 0.985 . S
N679 C681 1.356 . S
N679 H684 0.984 . S
N679 H685 0.985 . S
C680 C674 1.379 . S
C680 C677 1.363 . S
C680 N678 1.356 . S
C681 C675 1.363 . S
C681 C676 1.379 . S
C681 N679 1.356 . S
N682 C674 1.356 . S
N682 H688 0.984 . S
N682 H689 0.984 . S
N683 C676 1.356 . S
N683 H686 0.984 . S
N683 H687 0.985 . S
H684 N679 0.984 . S
H685 N679 0.985 . S
H686 N683 0.984 . S
H687 N683 0.985 . S
H688 N682 0.984 . S
H689 N682 0.984 . S
H690 N678 0.984 . S
H691 N678 0.985 . S
C692 C693 1.363 . S
C692 C698 1.379 . S
C692 N700 1.356 . S
C693 C692 1.363 . S
C693 C699 1.363 . S
C694 C695 1.363 . S
C694 C699 1.379 . S
C694 N701 1.356 . S
C695 C694 1.363 . S
C695 C698 1.363 . S
N696 C698 1.356 . S
N696 H708 0.984 . S
N696 H709 0.985 . S
N697 C699 1.356 . S
N697 H702 0.984 . S
N697 H703 0.985 . S
C698 C692 1.379 . S
C698 C695 1.363 . S
C698 N696 1.356 . S
C699 C693 1.363 . S
C699 C694 1.379 . S
C699 N697 1.356 . S
N700 C692 1.356 . S
N700 H706 0.984 . S
N700 H707 0.984 . S
N701 C694 1.356 . S
N701 H704 0.984 . S
N701 H705 0.985 . S
H702 N697 0.984 . S
H703 N697 0.985 . S
H704 N701 0.984 . S
H705 N701 0.985 . S
H706 N700 0.984 . S
H707 N700 0.984 . S
H708 N696 0.984 . S
H709 N696 0.985 . S
C710 C711 1.363 1_565 S
C710 C716 1.379 . S
C710 N718 1.356 . S
C711 C710 1.363 1_545 S
C711 C717 1.363 . S
C712 C713 1.363 . S
C712 C717 1.379 1_565 S
C712 N719 1.356 . S
C713 C712 1.363 . S
C713 C716 1.363 . S
N714 C716 1.356 . S
N714 H726 0.984 . S
N714 H727 0.985 . S
N715 C717 1.356 . S
N715 H720 0.984 . S
N715 H721 0.985 . S
C716 C710 1.379 . S
C716 C713 1.363 . S
C716 N714 1.356 . S
C717 C711 1.363 . S
C717 C712 1.379 1_545 S
C717 N715 1.356 . S
N718 C710 1.356 . S
N718 H724 0.984 . S
N718 H725 0.984 1_565 S
N719 C712 1.356 . S
N719 H722 0.984 . S
N719 H723 0.985 . S
H720 N715 0.984 . S
H721 N715 0.985 . S
H722 N719 0.984 . S
H723 N719 0.985 . S
H724 N718 0.984 . S
H725 N718 0.984 1_545 S
H726 N714 0.984 . S
H727 N714 0.985 . S
C728 C729 1.363 . S
C728 C734 1.379 . S
C728 N736 1.356 . S
C729 C728 1.363 . S
C729 C735 1.363 . S
C730 C731 1.363 . S
C730 C735 1.379 . S
C730 N737 1.356 . S
C731 C730 1.363 . S
C731 C734 1.363 . S
N732 C734 1.356 . S
N732 H744 0.984 . S
N732 H745 0.985 . S
N733 C735 1.356 . S
N733 H738 0.984 . S
N733 H739 0.985 . S
C734 C728 1.379 . S
C734 C731 1.363 . S
C734 N732 1.356 . S
C735 C729 1.363 . S
C735 C730 1.379 . S
C735 N733 1.356 . S
N736 C728 1.356 . S
N736 H742 0.984 . S
N736 H743 0.984 . S
N737 C730 1.356 . S
N737 H740 0.984 . S
N737 H741 0.985 . S
H738 N733 0.984 . S
H739 N733 0.985 . S
H740 N737 0.984 . S
H741 N737 0.985 . S
H742 N736 0.984 . S
H743 N736 0.984 . S
H744 N732 0.984 . S
H745 N732 0.985 . S
C746 C747 1.363 . S
C746 C752 1.379 . S
C746 N754 1.356 . S
C747 C746 1.363 . S
C747 C753 1.363 . S
C748 C749 1.363 . S
C748 C753 1.379 . S
C748 N755 1.356 . S
C749 C748 1.363 . S
C749 C752 1.363 . S
N750 C752 1.356 . S
N750 H762 0.984 . S
N750 H763 0.985 . S
N751 C753 1.356 . S
N751 H756 0.984 . S
N751 H757 0.985 . S
C752 C746 1.379 . S
C752 C749 1.363 . S
C752 N750 1.356 . S
C753 C747 1.363 . S
C753 C748 1.379 . S
C753 N751 1.356 . S
N754 C746 1.356 . S
N754 H760 0.984 . S
N754 H761 0.984 . S
N755 C748 1.356 . S
N755 H758 0.984 . S
N755 H759 0.985 . S
H756 N751 0.984 . S
H757 N751 0.985 . S
H758 N755 0.984 . S
H759 N755 0.985 . S
H760 N754 0.984 . S
H761 N754 0.984 . S
H762 N750 0.984 . S
H763 N750 0.985 . S
C764 C765 1.363 . S
C764 C770 1.379 . S
C764 N772 1.356 . S
C765 C764 1.363 . S
C765 C771 1.376 . S
C766 C767 1.363 . S
C766 C771 1.369 1_565 S
C766 N773 1.356 . S
C767 C766 1.363 . S
C767 C770 1.363 1_565 S
N768 C770 1.356 . S
N768 H780 0.984 . S
N768 H781 0.985 1_545 S
N769 C771 1.357 . S
N769 H774 0.984 . S
N769 H775 0.985 1_545 S
C770 C764 1.379 . S
C770 C767 1.363 1_545 S
C770 N768 1.356 . S
C771 C765 1.376 . S
C771 C766 1.369 1_545 S
C771 N769 1.357 . S
N772 C764 1.356 . S
N772 H778 0.984 . S
N772 H779 0.984 . S
N773 C766 1.356 . S
N773 H776 0.984 . S
N773 H777 0.985 . S
H774 N769 0.984 . S
H775 N769 0.985 1_565 S
H776 N773 0.984 . S
H777 N773 0.985 . S
H778 N772 0.984 . S
H779 N772 0.984 . S
H780 N768 0.984 . S
H781 N768 0.985 1_565 S
C782 C783 1.363 . S
C782 C788 1.379 . S
C782 N790 1.356 . S
C783 C782 1.363 . S
C783 C789 1.363 . S
C784 C785 1.363 . S
C784 C789 1.379 . S
C784 N791 1.356 . S
C785 C784 1.363 . S
C785 C788 1.363 . S
N786 C788 1.356 . S
N786 H798 0.984 . S
N786 H799 0.985 . S
N787 C789 1.356 . S
N787 H792 0.984 . S
N787 H793 0.985 . S
C788 C782 1.379 . S
C788 C785 1.363 . S
C788 N786 1.356 . S
C789 C783 1.363 . S
C789 C784 1.379 . S
C789 N787 1.356 . S
N790 C782 1.356 . S
N790 H796 0.984 . S
N790 H797 0.984 . S
N791 C784 1.356 . S
N791 H794 0.984 . S
N791 H795 0.985 . S
H792 N787 0.984 . S
H793 N787 0.985 . S
H794 N791 0.984 . S
H795 N791 0.985 . S
H796 N790 0.984 . S
H797 N790 0.984 . S
H798 N786 0.984 . S
H799 N786 0.985 . S
C225 C9 1.573 . S
C227 C191 1.550 . S
C243 C23 1.573 . S
C245 C135 1.550 . S
C261 C205 1.352 . S
C263 C37 1.362 . S
C279 C51 1.362 . S
C281 C219 1.352 . S
C297 C65 1.573 . S
C299 C93 1.550 . S
C315 C149 1.573 . S
C317 C79 1.550 . S
C333 C163 1.362 . S
C335 C107 1.352 . S
C351 C121 1.352 . S
C353 C177 1.362 . S
C369 C35 1.406 . S
C371 C7 1.484 . S
C387 C21 1.484 . S
C389 C49 1.406 . S
C405 C174 1.426 . S
C407 C6 1.538 . S
C423 C20 1.538 . S
C425 C160 1.426 . S
C441 C62 1.538 . S
C443 C34 1.426 . S
C459 C146 1.538 . S
C461 C48 1.426 . S
C477 C22 2.140 . S
C479 C8 2.140 . S
C495 C50 1.554 . S
C497 C36 1.554 . S
C513 C148 2.140 . S
C515 C64 2.140 . S
C531 C104 1.622 . S
C533 C78 1.737 . S
C549 C92 1.737 . S
C551 C118 1.622 . S
C567 C217 1.660 . S
C569 C76 1.728 . S
C585 C90 1.728 . S
C587 C203 1.660 . S
C603 C132 1.728 . S
C605 C105 1.660 . S
C621 C119 1.660 . S
C623 C188 1.728 . S
C639 C91 1.144 . S
C641 C77 1.144 . S
C657 C120 1.817 . S
C659 C106 1.817 . S
C675 C133 1.144 . S
C677 C189 1.144 . S
C693 C147 1.484 . S
C695 C161 1.406 . S
C711 C175 1.406 . S
C713 C63 1.484 . S
C729 C176 1.554 . S
C731 C162 1.554 . S
C747 C202 1.622 . S
C749 C190 1.737 . S
C765 C134 1.737 . S
C767 C216 1.622 . S
C783 C218 1.817 . S
C785 C204 1.817 . S
