# Generated by pormake.
# Topology lcy-e, (6)-cn, num edge types: 1
# Building blocks:
#     Node 0, Type 0, BuildingBlock: UKALOJ_clean_sbu_0, # of connection points: 6
#     Node 1, Type 0, BuildingBlock: UKALOJ_clean_sbu_0, # of connection points: 6
#     Node 2, Type 0, BuildingBlock: UKALOJ_clean_sbu_0, # of connection points: 6
#     Node 3, Type 0, BuildingBlock: UKALOJ_clean_sbu_0, # of connection points: 6
#     Node 4, Type 0, BuildingBlock: UKALOJ_clean_sbu_0, # of connection points: 6
#     Node 5, Type 0, BuildingBlock: UKALOJ_clean_sbu_0, # of connection points: 6
#     Node 6, Type 0, BuildingBlock: UKALOJ_clean_sbu_0, # of connection points: 6
#     Node 7, Type 0, BuildingBlock: UKALOJ_clean_sbu_0, # of connection points: 6
#     Node 8, Type 0, BuildingBlock: UKALOJ_clean_sbu_0, # of connection points: 6
#     Node 9, Type 0, BuildingBlock: UKALOJ_clean_sbu_0, # of connection points: 6
#     Node 10, Type 0, BuildingBlock: UKALOJ_clean_sbu_0, # of connection points: 6
#     Node 11, Type 0, BuildingBlock: UKALOJ_clean_sbu_0, # of connection points: 6
#     Edge 12, Type (0, 0), BuildingBlock: OJICUG_clean_linker_0, # of connection points: 2
#     Edge 13, Type (0, 0), BuildingBlock: OJICUG_clean_linker_0, # of connection points: 2
#     Edge 14, Type (0, 0), BuildingBlock: OJICUG_clean_linker_0, # of connection points: 2
#     Edge 15, Type (0, 0), BuildingBlock: OJICUG_clean_linker_0, # of connection points: 2
#     Edge 16, Type (0, 0), BuildingBlock: OJICUG_clean_linker_0, # of connection points: 2
#     Edge 17, Type (0, 0), BuildingBlock: OJICUG_clean_linker_0, # of connection points: 2
#     Edge 18, Type (0, 0), BuildingBlock: OJICUG_clean_linker_0, # of connection points: 2
#     Edge 19, Type (0, 0), BuildingBlock: OJICUG_clean_linker_0, # of connection points: 2
#     Edge 20, Type (0, 0), BuildingBlock: OJICUG_clean_linker_0, # of connection points: 2
#     Edge 21, Type (0, 0), BuildingBlock: OJICUG_clean_linker_0, # of connection points: 2
#     Edge 22, Type (0, 0), BuildingBlock: OJICUG_clean_linker_0, # of connection points: 2
#     Edge 23, Type (0, 0), BuildingBlock: OJICUG_clean_linker_0, # of connection points: 2
#     Edge 24, Type (0, 0), BuildingBlock: OJICUG_clean_linker_0, # of connection points: 2
#     Edge 25, Type (0, 0), BuildingBlock: OJICUG_clean_linker_0, # of connection points: 2
#     Edge 26, Type (0, 0), BuildingBlock: OJICUG_clean_linker_0, # of connection points: 2
#     Edge 27, Type (0, 0), BuildingBlock: OJICUG_clean_linker_0, # of connection points: 2
#     Edge 28, Type (0, 0), BuildingBlock: OJICUG_clean_linker_0, # of connection points: 2
#     Edge 29, Type (0, 0), BuildingBlock: OJICUG_clean_linker_0, # of connection points: 2
#     Edge 30, Type (0, 0), BuildingBlock: OJICUG_clean_linker_0, # of connection points: 2
#     Edge 31, Type (0, 0), BuildingBlock: OJICUG_clean_linker_0, # of connection points: 2
#     Edge 32, Type (0, 0), BuildingBlock: OJICUG_clean_linker_0, # of connection points: 2
#     Edge 33, Type (0, 0), BuildingBlock: OJICUG_clean_linker_0, # of connection points: 2
#     Edge 34, Type (0, 0), BuildingBlock: OJICUG_clean_linker_0, # of connection points: 2
#     Edge 35, Type (0, 0), BuildingBlock: OJICUG_clean_linker_0, # of connection points: 2
#     Edge 36, Type (0, 0), BuildingBlock: OJICUG_clean_linker_0, # of connection points: 2
#     Edge 37, Type (0, 0), BuildingBlock: OJICUG_clean_linker_0, # of connection points: 2
#     Edge 38, Type (0, 0), BuildingBlock: OJICUG_clean_linker_0, # of connection points: 2
#     Edge 39, Type (0, 0), BuildingBlock: OJICUG_clean_linker_0, # of connection points: 2
#     Edge 40, Type (0, 0), BuildingBlock: OJICUG_clean_linker_0, # of connection points: 2
#     Edge 41, Type (0, 0), BuildingBlock: OJICUG_clean_linker_0, # of connection points: 2
#     Edge 42, Type (0, 0), BuildingBlock: OJICUG_clean_linker_0, # of connection points: 2
#     Edge 43, Type (0, 0), BuildingBlock: OJICUG_clean_linker_0, # of connection points: 2
#     Edge 44, Type (0, 0), BuildingBlock: OJICUG_clean_linker_0, # of connection points: 2
#     Edge 45, Type (0, 0), BuildingBlock: OJICUG_clean_linker_0, # of connection points: 2
#     Edge 46, Type (0, 0), BuildingBlock: OJICUG_clean_linker_0, # of connection points: 2
#     Edge 47, Type (0, 0), BuildingBlock: OJICUG_clean_linker_0, # of connection points: 2
# Relax obj value: 0.276
# Max RMSD: 0.295
# Mean RMSD: 0.295
data_MOF--net-lcy-e--node1-UKALOJ_clean_sbu_0--edge1-OJICUG_clean_linker_0
_symmetry_space_group_name_H-M    P1
_symmetry_Int_Tables_number       1
_symmetry_cell_setting            triclinic
loop_
_symmetry_equiv_pos_as_xyz
'x, y, z'
_cell_length_a     29.950862
_cell_length_b     29.947824
_cell_length_c     29.918991
_cell_angle_alpha  90.041722
_cell_angle_beta   89.999887
_cell_angle_gamma 90.028576
loop_
_atom_site_label
_atom_site_type_symbol
_atom_site_fract_x
_atom_site_fract_y
_atom_site_fract_z
_atom_type_partial_charge
Zn0 Zn 0.10944 0.2448 0.44339 0.0
O1 O 0.16118 0.28149 0.46619 0.0
C2 C 0.18019 0.18156 0.4141 0.0
Zn3 Zn 0.12189 0.19262 0.49073 0.0
C4 C 0.17419 0.27716 0.50593 0.0
O5 O 0.1627 0.24234 0.52801 0.0
C6 C 0.05234 0.16775 0.42511 0.0
O7 O 0.06991 0.21186 0.52828 0.0
O8 O 0.06735 0.27718 0.49584 0.0
N9 N 0.13298 0.14171 0.53484 0.0
C10 C 0.10535 0.10825 0.54719 0.0
C11 C 0.1687 0.09541 0.57686 0.0
N12 N 0.17235 0.13365 0.55328 0.0
N13 N 0.12718 0.07848 0.57285 0.0
C14 C 0.12702 0.31079 0.36668 0.0
C15 C 0.06185 0.32267 0.34066 0.0
N16 N 0.09758 0.29166 0.395 0.0
N17 N 0.05711 0.29916 0.37881 0.0
N18 N 0.10543 0.32973 0.33202 0.0
H19 H 0.18181 0.3347 0.40585 0.0
H20 H 0.19426 0.33177 0.34777 0.0
H21 H 0.19148 0.28134 0.38042 0.0
C22 C 0.17639 0.31461 0.37519 0.0
C23 C 0.05644 0.10535 0.53615 0.0
H24 H 0.03753 0.09151 0.56488 0.0
H25 H 0.0518 0.08252 0.50736 0.0
H26 H 0.04191 0.13796 0.52737 0.0
O27 O 0.07948 0.1489 0.45182 0.0
O28 O 0.05555 0.20933 0.41891 0.0
C29 C 0.05682 0.25175 0.52873 0.0
O30 O 0.15359 0.21012 0.39713 0.0
O31 O 0.17602 0.17149 0.45486 0.0
Zn32 Zn 0.98841 0.85665 0.69235 0.0
O33 O 0.94887 0.90666 0.7148 0.0
C34 C 0.04897 0.92975 0.66433 0.0
Zn35 Zn 0.03869 0.87112 0.74162 0.0
C36 C 0.95221 0.92063 0.75438 0.0
O37 O 0.98702 0.91073 0.77725 0.0
C38 C 0.06794 0.80259 0.67635 0.0
O39 O 0.02068 0.8184 0.7795 0.0
O40 O 0.95719 0.81273 0.74358 0.0
N41 N 0.08884 0.88571 0.78548 0.0
C42 C 0.12017 0.85816 0.80246 0.0
C43 C 0.14055 0.92487 0.81693 0.0
N44 N 0.10161 0.92715 0.79437 0.0
N45 N 0.15314 0.88198 0.82169 0.0
C46 C 0.92308 0.87088 0.61458 0.0
C47 C 0.91391 0.80508 0.58889 0.0
N48 N 0.94294 0.84245 0.64334 0.0
N49 N 0.93711 0.80157 0.62739 0.0
N50 N 0.90533 0.84829 0.57993 0.0
H51 H 0.89607 0.92525 0.65221 0.0
H52 H 0.90101 0.93722 0.59406 0.0
H53 H 0.95001 0.93644 0.6289 0.0
C54 C 0.91751 0.9202 0.62242 0.0
C55 C 0.11575 0.80821 0.80529 0.0
H56 H 0.09448 0.80027 0.83451 0.0
H57 H 0.1481 0.7913 0.81053 0.0
H58 H 0.09989 0.79392 0.77524 0.0
O59 O 0.08505 0.8297 0.70431 0.0
O60 O 0.02662 0.80491 0.66841 0.0
C61 C 0.98174 0.80264 0.77725 0.0
O62 O 0.02186 0.90215 0.64661 0.0
O63 O 0.05821 0.92574 0.70527 0.0
Zn64 Zn 0.35695 0.79293 -0.00626 0.0
O65 O 0.4069 0.77195 0.03274 0.0
C66 C 0.42871 0.81921 0.93108 0.0
Zn67 Zn 0.37038 0.74224 0.9446 0.0
C68 C 0.41905 0.73176 0.03177 0.0
O69 O 0.4105 0.70818 -0.00301 0.0
C70 C 0.30133 0.80636 0.91487 0.0
O71 O 0.31772 0.70526 0.9649 0.0
O72 O 0.31467 0.74267 0.02785 0.0
N73 N 0.3837 0.69646 0.89553 0.0
C74 C 0.3552 0.67753 0.86612 0.0
C75 C 0.42122 0.66549 0.84234 0.0
N76 N 0.42469 0.68888 0.88073 0.0
N77 N 0.37795 0.65861 0.83216 0.0
C78 C 0.37375 0.87184 0.05728 0.0
C79 C 0.30863 0.89863 0.06768 0.0
N80 N 0.34436 0.84343 0.03817 0.0
N81 N 0.30392 0.86012 0.04469 0.0
N82 N 0.35217 0.90696 0.0753 0.0
H83 H 0.42792 0.83419 0.08455 0.0
H84 H 0.4412 0.89159 0.07698 0.0
H85 H 0.43825 0.85501 0.02935 0.0
C86 C 0.42301 0.86313 0.062 0.0
C87 C 0.30556 0.6739 0.87292 0.0
H88 H 0.29903 0.6531 0.90285 0.0
H89 H 0.28842 0.65757 0.84453 0.0
H90 H 0.29057 0.70716 0.87856 0.0
O91 O 0.32819 0.77807 0.89792 0.0
O92 O 0.30439 0.81537 0.95598 0.0
C93 C 0.30392 0.7084 0.00451 0.0
O94 O 0.40143 0.83744 0.95813 0.0
O95 O 0.42488 0.77802 0.92292 0.0
Zn96 Zn 0.49538 0.12619 0.1942 0.0
O97 O 0.53379 0.07531 0.21607 0.0
C98 C 0.43266 0.05498 0.16573 0.0
Zn99 Zn 0.44479 0.11283 0.24371 0.0
C100 C 0.53033 0.0609 0.25545 0.0
O101 O 0.49581 0.07132 0.27858 0.0
C102 C 0.41701 0.18261 0.17936 0.0
O103 O 0.46451 0.16475 0.28174 0.0
O104 O 0.52789 0.16921 0.24544 0.0
N105 N 0.39448 0.09928 0.28788 0.0
C106 C 0.36478 0.12783 0.30616 0.0
C107 C 0.34017 0.0619 0.31696 0.0
N108 N 0.37912 0.05833 0.2946 0.0
N109 N 0.33019 0.1052 0.32391 0.0
C110 C 0.56039 0.11104 0.11625 0.0
C111 C 0.57049 0.17675 0.09077 0.0
N112 N 0.54088 0.13972 0.14506 0.0
N113 N 0.54726 0.18053 0.12922 0.0
N114 N 0.5785 0.13344 0.08167 0.0
H115 H 0.58697 0.05665 0.15393 0.0
H116 H 0.58179 0.04433 0.09596 0.0
H117 H 0.5328 0.04589 0.13085 0.0
C118 C 0.56548 0.06172 0.12421 0.0
C119 C 0.37215 0.17725 0.31105 0.0
H120 H 0.39994 0.18257 0.33488 0.0
H121 H 0.34275 0.19491 0.32473 0.0
H122 H 0.38148 0.19262 0.2788 0.0
O123 O 0.39937 0.15604 0.20749 0.0
O124 O 0.45811 0.17888 0.17079 0.0
C125 C 0.50365 0.17987 0.27915 0.0
O126 O 0.46095 0.08157 0.14835 0.0
O127 O 0.42328 0.05915 0.20665 0.0
Zn128 Zn 0.60815 0.23852 0.54183 0.0
O129 O 0.65752 0.19906 0.51993 0.0
C130 C 0.67945 0.30117 0.57052 0.0
Zn131 Zn 0.62221 0.28922 0.49198 0.0
C132 C 0.67277 0.20294 0.48101 0.0
O133 O 0.66448 0.23838 0.45849 0.0
C134 C 0.55192 0.31753 0.55584 0.0
O135 O 0.57169 0.26883 0.45271 0.0
O136 O 0.56528 0.20639 0.49046 0.0
N137 N 0.63652 0.33896 0.44761 0.0
C138 C 0.60824 0.36814 0.42818 0.0
C139 C 0.67424 0.39336 0.41918 0.0
N140 N 0.6775 0.35462 0.44192 0.0
N141 N 0.63108 0.40281 0.41086 0.0
C142 C 0.62355 0.17333 0.61925 0.0
C143 C 0.55834 0.16454 0.64646 0.0
N144 N 0.59451 0.1933 0.59114 0.0
N145 N 0.55401 0.18774 0.60806 0.0
N146 N 0.60172 0.15579 0.65445 0.0
H147 H 0.67689 0.14565 0.58062 0.0
H148 H 0.69041 0.15119 0.63827 0.0
H149 H 0.6888 0.19989 0.60311 0.0
C150 C 0.67265 0.16748 0.61027 0.0
C151 C 0.55889 0.36056 0.42247 0.0
H152 H 0.55371 0.33108 0.40063 0.0
H153 H 0.54186 0.38902 0.40624 0.0
H154 H 0.54272 0.35381 0.45499 0.0
O155 O 0.578 0.33471 0.52697 0.0
O156 O 0.55609 0.27667 0.56533 0.0
C157 C 0.5563 0.2299 0.45579 0.0
O158 O 0.65335 0.27228 0.58761 0.0
O159 O 0.67481 0.3113 0.52986 0.0
Zn160 Zn 0.94356 0.37367 0.7402 0.0
O161 O 0.9659 0.32446 0.70083 0.0
C162 C 0.91646 0.30194 0.80343 0.0
Zn163 Zn -0.00661 0.36092 0.79129 0.0
C164 C 0.00522 0.31032 0.70456 0.0
O165 O 0.02761 0.31925 0.74002 0.0
C166 C 0.9281 0.43005 0.819 0.0
O167 O 0.03176 0.41214 0.77021 0.0
O168 O -0.0061 0.41721 0.70765 0.0
N169 N 0.03901 0.34867 0.84077 0.0
C170 C 0.05277 0.37604 0.87394 0.0
C171 C 0.08007 0.3117 0.88703 0.0
N172 N 0.05603 0.30869 0.84896 0.0
N173 N 0.07779 0.35346 0.9037 0.0
C174 C 0.86546 0.35739 0.67572 0.0
C175 C 0.83826 0.42258 0.66693 0.0
N176 N 0.89382 0.38653 0.69523 0.0
N177 N 0.87691 0.42702 0.68965 0.0
N178 N 0.83007 0.37915 0.65849 0.0
H179 H 0.90459 0.3041 0.64865 0.0
H180 H 0.84687 0.29064 0.65285 0.0
H181 H 0.88101 0.29212 0.7024 0.0
C182 C 0.87453 0.30832 0.66984 0.0
C183 C 0.04372 0.42534 0.87664 0.0
H184 H 0.03451 0.43991 0.84414 0.0
H185 H 0.07353 0.44319 0.88955 0.0
H186 H 0.01593 0.43128 0.90029 0.0
O187 O 0.9571 0.40447 0.83661 0.0
O188 O 0.91929 0.4256 0.778 0.0
C189 C 0.02839 0.42705 0.73108 0.0
O190 O 0.89905 0.32773 0.77442 0.0
O191 O 0.95695 0.30738 0.81392 0.0
Zn192 Zn 0.87386 0.74285 0.03952 0.0
O193 O 0.82362 0.78203 0.01882 0.0
C194 C 0.8032 0.68019 0.06893 0.0
Zn195 Zn 0.85925 0.69255 0.98957 0.0
C196 C 0.80828 0.77874 0.97989 0.0
O197 O 0.81702 0.74385 0.95663 0.0
C198 C 0.93041 0.66414 0.05256 0.0
O199 O 0.9093 0.71273 0.94971 0.0
O200 O 0.91593 0.77519 0.98755 0.0
N201 N 0.84431 0.64301 0.94505 0.0
C202 C 0.87234 0.61375 0.92535 0.0
C203 C 0.80612 0.58934 0.91572 0.0
N204 N 0.80318 0.62785 0.93897 0.0
N205 N 0.84921 0.57961 0.90739 0.0
C206 C 0.85914 0.80767 0.11751 0.0
C207 C 0.92465 0.81679 0.14389 0.0
N208 N 0.88794 0.788 0.08889 0.0
N209 N 0.92863 0.79374 0.10531 0.0
N210 N 0.88133 0.82521 0.15251 0.0
H211 H 0.79385 0.7808 0.10199 0.0
H212 H 0.80513 0.8353 0.07982 0.0
H213 H 0.79237 0.82924 0.13756 0.0
C214 C 0.80989 0.81327 0.10921 0.0
C215 C 0.92185 0.62058 0.9201 0.0
H216 H 0.92763 0.64934 0.89749 0.0
H217 H 0.93868 0.59135 0.905 0.0
H218 H 0.93779 0.62816 0.95253 0.0
O219 O 0.90376 0.6468 0.02425 0.0
O220 O 0.92647 0.70507 0.06187 0.0
C221 C 0.92459 0.75171 0.95273 0.0
O222 O 0.82984 0.70871 0.08583 0.0
O223 O 0.80685 0.67057 0.02802 0.0
Zn224 Zn 0.54128 0.60847 0.24204 0.0
O225 O 0.52011 0.65789 0.2027 0.0
C226 C 0.56773 0.68041 0.30489 0.0
Zn227 Zn 0.49066 0.62173 0.29159 0.0
C228 C 0.48009 0.67052 0.20421 0.0
O229 O 0.45686 0.66236 0.23931 0.0
C230 C 0.55473 0.55274 0.32118 0.0
O231 O 0.45345 0.56949 0.27071 0.0
O232 O 0.49124 0.56575 0.20812 0.0
N233 N 0.44475 0.63454 0.34056 0.0
C234 C 0.4256 0.60547 0.36924 0.0
C235 C 0.41361 0.671 0.3944 0.0
N236 N 0.43722 0.67523 0.35623 0.0
N237 N 0.40657 0.62753 0.40355 0.0
C238 C 0.62007 0.62411 0.17821 0.0
C239 C 0.64637 0.55864 0.1687 0.0
N240 N 0.59153 0.59521 0.19777 0.0
N241 N 0.6079 0.55455 0.19178 0.0
N242 N 0.65499 0.60201 0.16046 0.0
H243 H 0.58231 0.67802 0.15059 0.0
H244 H 0.63992 0.69107 0.15707 0.0
H245 H 0.60404 0.68916 0.2053 0.0
C246 C 0.61158 0.67333 0.17278 0.0
C247 C 0.4219 0.55594 0.36151 0.0
H248 H 0.455 0.54106 0.35479 0.0
H249 H 0.40037 0.54999 0.33195 0.0
H250 H 0.4063 0.5382 0.38991 0.0
O251 O 0.526 0.57909 0.33814 0.0
O252 O 0.56408 0.55631 0.2802 0.0
C253 C 0.45679 0.55534 0.23126 0.0
O254 O 0.58568 0.65365 0.27711 0.0
O255 O 0.52676 0.67598 0.31391 0.0
Zn256 Zn 0.19586 0.49569 0.1236 0.0
O257 O 0.21623 0.53393 0.07205 0.0
C258 C 0.1687 0.43185 0.05276 0.0
Zn259 Zn 0.24637 0.4463 0.1102 0.0
C260 C 0.25556 0.53157 0.05739 0.0
O261 O 0.27977 0.49792 0.0681 0.0
C262 C 0.18313 0.41768 0.18098 0.0
O263 O 0.28395 0.46731 0.16183 0.0
O264 O 0.24663 0.53011 0.16608 0.0
N265 N 0.2918 0.39715 0.09671 0.0
C266 C 0.31088 0.368 0.12529 0.0
C267 C 0.32163 0.34322 0.05933 0.0
N268 N 0.29858 0.38174 0.05575 0.0
N269 N 0.3291 0.33362 0.10266 0.0
C270 C 0.11608 0.55832 0.10775 0.0
C271 C 0.09047 0.56872 0.17342 0.0
N272 N 0.14538 0.53994 0.13667 0.0
N273 N 0.12941 0.54645 0.17745 0.0
N274 N 0.0811 0.57587 0.12997 0.0
H275 H 0.15269 0.58601 0.05324 0.0
H276 H 0.09521 0.57791 0.04058 0.0
H277 H 0.13229 0.53067 0.04293 0.0
C278 C 0.12402 0.56318 0.05836 0.0
C279 C 0.31562 0.37552 0.17477 0.0
H280 H 0.33734 0.40498 0.18024 0.0
H281 H 0.33153 0.34705 0.19209 0.0
H282 H 0.28287 0.38233 0.19039 0.0
O283 O 0.21128 0.40024 0.15423 0.0
O284 O 0.17387 0.45858 0.1769 0.0
C285 C 0.28068 0.50644 0.17683 0.0
O286 O 0.15076 0.45947 0.0797 0.0
O287 O 0.20983 0.42357 0.05661 0.0
Zn288 Zn 0.7442 0.03864 0.87469 0.0
O289 O 0.78229 0.01552 0.82396 0.0
C290 C 0.68172 0.0667 0.80323 0.0
Zn291 Zn 0.69304 0.98958 0.86194 0.0
C292 C 0.77819 0.97602 0.81013 0.0
O293 O 0.74337 0.95357 0.82091 0.0
C294 C 0.66603 0.05526 0.93098 0.0
O295 O 0.71236 0.95185 0.91417 0.0
O296 O 0.77608 0.98759 0.91833 0.0
N297 N 0.64248 0.94573 0.84889 0.0
C298 C 0.61178 0.92881 0.87723 0.0
C299 C 0.59028 0.91355 0.81099 0.0
N300 N 0.62902 0.93631 0.80776 0.0
N301 N 0.57856 0.90907 0.85421 0.0
C302 C 0.81015 0.11556 0.8581 0.0
C303 C 0.82071 0.14191 0.92347 0.0
N304 N 0.79038 0.08743 0.88728 0.0
N305 N 0.79707 0.10382 0.92788 0.0
N306 N 0.82871 0.15028 0.87997 0.0
H307 H 0.83556 0.07647 0.80397 0.0
H308 H 0.83202 0.13437 0.79108 0.0
H309 H 0.78204 0.10094 0.79313 0.0
C310 C 0.81495 0.10682 0.80881 0.0
C311 C 0.617 0.92664 0.92719 0.0
H312 H 0.6375 0.89693 0.93527 0.0
H313 H 0.58473 0.92264 0.94465 0.0
H314 H 0.63399 0.95636 0.94078 0.0
O315 O 0.64813 0.02706 0.90464 0.0
O316 O 0.70725 0.0633 0.92726 0.0
C317 C 0.75161 0.95408 0.92909 0.0
O318 O 0.71026 0.08413 0.82955 0.0
O319 O 0.67192 0.02598 0.80788 0.0
Zn320 Zn 0.74008 0.94383 0.37334 0.0
O321 O 0.70103 0.96594 0.32309 0.0
C322 C 0.80239 0.91522 0.30146 0.0
Zn323 Zn 0.79146 -0.00763 0.35973 0.0
C324 C 0.70494 0.00538 0.30922 0.0
O325 O 0.74004 0.02773 0.31926 0.0
C326 C 0.81902 0.92745 0.4291 0.0
O327 O 0.77265 0.03032 0.41138 0.0
O328 O 0.70863 -0.00444 0.41691 0.0
N329 N 0.8406 0.03761 0.34577 0.0
C330 C 0.87479 0.05143 0.37169 0.0
C331 C 0.88437 0.07995 0.30716 0.0
N332 N 0.84656 0.05542 0.30567 0.0
N333 N 0.90299 0.07724 0.34806 0.0
C334 C 0.67422 0.86648 0.35843 0.0
C335 C 0.66419 0.84106 0.42422 0.0
N336 N 0.69426 0.895 0.38708 0.0
N337 N 0.6879 0.8792 0.42794 0.0
N338 N 0.6558 0.83212 0.3809 0.0
H339 H 0.64803 0.90441 0.30387 0.0
H340 H 0.65233 0.84635 0.29177 0.0
H341 H 0.70181 0.88051 0.2931 0.0
C342 C 0.66909 0.87441 0.30905 0.0
C343 C 0.87995 0.0417 0.42067 0.0
H344 H 0.89352 0.07134 0.43834 0.0
H345 H 0.90407 0.01402 0.42494 0.0
H346 H 0.84821 0.0321 0.43664 0.0
O347 O 0.8371 0.95533 0.40251 0.0
O348 O 0.7777 0.91987 0.42558 0.0
C349 C 0.73349 0.02918 0.42648 0.0
O350 O 0.77388 0.89808 0.32803 0.0
O351 O 0.81239 0.95594 0.30581 0.0
Zn352 Zn 0.28894 0.48864 0.62597 0.0
O353 O 0.26709 0.44895 0.57597 0.0
C354 C 0.31685 0.54993 0.55345 0.0
Zn355 Zn 0.23902 0.53863 0.61164 0.0
C356 C 0.2278 0.45193 0.56135 0.0
O357 O 0.20455 0.48659 0.57095 0.0
C358 C 0.30315 0.56825 0.68114 0.0
O359 O 0.20109 0.51971 0.66384 0.0
O360 O 0.23806 0.45684 0.66982 0.0
N361 N 0.19462 0.58831 0.59673 0.0
C362 C 0.17608 0.61861 0.62449 0.0
C363 C 0.16553 0.64155 0.55787 0.0
N364 N 0.18803 0.60261 0.55536 0.0
N365 N 0.15833 0.65256 0.60092 0.0
C366 C 0.36703 0.42382 0.61144 0.0
C367 C 0.39347 0.41552 0.67707 0.0
N368 N 0.33846 0.44375 0.64008 0.0
N369 N 0.35491 0.4385 0.68085 0.0
N370 N 0.40205 0.40658 0.63379 0.0
H371 H 0.32905 0.39542 0.55811 0.0
H372 H 0.38668 0.40119 0.54485 0.0
H373 H 0.35115 0.44968 0.54582 0.0
C374 C 0.35848 0.41748 0.5623 0.0
C375 C 0.17102 0.61242 0.67409 0.0
H376 H 0.14768 0.58434 0.67994 0.0
H377 H 0.15672 0.64202 0.69093 0.0
H378 H 0.2033 0.60406 0.68988 0.0
O379 O 0.27482 0.58518 0.65431 0.0
O380 O 0.31223 0.52722 0.67788 0.0
C381 C 0.20411 0.48097 0.67988 0.0
O382 O 0.33441 0.52227 0.58054 0.0
O383 O 0.27598 0.55928 0.55761 0.0
C384 C 0.22747 0.34012 0.50488 0.0
C385 C 0.19191 0.31835 0.52631 0.0
H386 H 0.26537 0.40036 0.49773 0.0
C387 C 0.16465 0.34322 0.55548 0.0
H388 H 0.24764 0.32247 0.48054 0.0
C389 C 0.17317 0.38878 0.56331 0.0
C390 C 0.20941 0.41016 0.5425 0.0
H391 H 0.13563 0.32792 0.57067 0.0
H392 H 0.15241 0.40685 0.58675 0.0
C393 C 0.23647 0.38515 0.51334 0.0
C394 C 0.84245 0.98053 0.75845 0.0
C395 C 0.81923 0.95633 0.79128 0.0
H396 H 0.90361 0.98923 0.72226 0.0
C397 C 0.84228 0.92321 0.81527 0.0
H398 H 0.82607 0.00742 0.74062 0.0
C399 C 0.88769 0.91478 0.80674 0.0
C400 C 0.91067 0.93886 0.7736 0.0
H401 H 0.82569 0.90514 0.84182 0.0
H402 H 0.90438 0.88834 0.82485 0.0
C403 C 0.88729 0.9714 0.74921 0.0
C404 C 0.31731 0.64073 0.05042 0.0
C405 C 0.28796 0.66607 0.02379 0.0
H406 H 0.33255 0.57634 0.07848 0.0
C407 C 0.25195 0.64428 0.0032 0.0
H408 H 0.34696 0.65602 0.06444 0.0
C409 C 0.24418 0.59885 0.01068 0.0
C410 C 0.27288 0.57355 0.03799 0.0
H411 H 0.23035 0.66227 0.98042 0.0
H412 H 0.21485 0.58357 -0.00404 0.0
C413 C 0.31005 0.59482 0.05712 0.0
C414 C 0.59304 0.06217 0.3106 0.0
C415 C 0.57173 0.0416 0.27414 0.0
H416 H 0.65383 0.06942 0.34828 0.0
C417 C 0.59668 0.01233 0.24713 0.0
H418 H 0.57497 0.08554 0.33142 0.0
C419 C 0.64167 0.00377 0.25623 0.0
C420 C 0.66344 0.02526 0.29178 0.0
H421 H 0.58151 -0.00317 0.21812 0.0
H422 H 0.65931 0.97947 0.23601 0.0
C423 C 0.63855 0.05428 0.31917 0.0
C424 C 0.734 0.15066 0.46128 0.0
C425 C 0.68862 0.161 0.46105 0.0
H426 H 0.78352 0.10027 0.45321 0.0
C427 C 0.65738 0.12626 0.45454 0.0
H428 H 0.75857 0.17609 0.46898 0.0
C429 C 0.67126 0.08242 0.44581 0.0
C430 C 0.71682 0.07215 0.44484 0.0
H431 H 0.62195 0.1328 0.45755 0.0
H432 H 0.64647 0.05695 0.43905 0.0
C433 C 0.74794 0.1068 0.45343 0.0
C434 C 0.09935 0.41279 0.69124 0.0
C435 C 0.07057 0.44362 0.71214 0.0
H436 H 0.16554 0.39902 0.66696 0.0
C437 C 0.08877 0.48339 0.72877 0.0
H438 H 0.08733 0.38013 0.68174 0.0
C439 C 0.13396 0.49329 0.72227 0.0
C440 C 0.16233 0.46342 0.69947 0.0
H441 H 0.06825 0.50631 0.74784 0.0
H442 H 0.14663 0.52503 0.73415 0.0
C443 C 0.14471 0.42262 0.68477 0.0
C444 C 0.81212 0.89696 0.93825 0.0
C445 C 0.76899 0.91196 0.94832 0.0
H446 H 0.85785 0.84216 0.93975 0.0
C447 C 0.73833 0.88138 0.96699 0.0
H448 H 0.83653 0.91948 0.92392 0.0
C449 C 0.74965 0.83651 0.97325 0.0
C450 C 0.79194 0.82098 0.961 0.0
H451 H 0.70497 0.89204 0.97587 0.0
H452 H 0.7258 0.81424 0.98889 0.0
C453 C 0.82357 0.85207 0.94509 0.0
C454 C 0.38952 0.5684 0.18463 0.0
C455 C 0.41455 0.5393 0.21181 0.0
H456 H 0.32544 0.58337 0.1557 0.0
C457 C 0.39249 0.5036 0.23261 0.0
H458 H 0.40499 0.59785 0.17042 0.0
C459 C 0.34712 0.49583 0.22479 0.0
C460 C 0.32215 0.52424 0.19687 0.0
H461 H 0.41024 0.48221 0.25578 0.0
H462 H 0.33168 0.46662 0.23956 0.0
C463 C 0.34366 0.56114 0.17755 0.0
C464 C 0.56125 0.18328 0.33945 0.0
C465 C 0.52118 0.19909 0.32117 0.0
H466 H 0.60266 0.17896 0.3976 0.0
C467 C 0.49158 0.22277 0.34911 0.0
H468 H 0.58466 0.16486 0.31893 0.0
C469 C 0.50096 0.22903 0.39449 0.0
C470 C 0.5399 0.21127 0.41335 0.0
H471 H 0.46042 0.23553 0.33595 0.0
H472 H 0.47832 0.24879 0.41466 0.0
C473 C 0.57053 0.18945 0.38502 0.0
C474 C 0.03265 0.23645 0.60726 0.0
C475 C 0.04012 0.26797 0.57269 0.0
H476 H 0.01845 0.22498 0.67674 0.0
C477 C 0.0391 0.31342 0.58357 0.0
H478 H 0.03297 0.20093 0.60039 0.0
C479 C 0.03106 0.32679 0.62779 0.0
C480 C 0.02539 0.29516 0.66236 0.0
H481 H 0.04498 0.33853 0.55821 0.0
H482 H 0.02771 0.36211 0.63473 0.0
C483 C 0.02552 0.24989 0.65146 0.0
C484 C 0.92088 0.79191 0.83383 0.0
C485 C 0.96453 0.78329 0.81945 0.0
H486 H 0.87449 0.78912 0.88811 0.0
C487 C -0.00462 0.76586 0.85057 0.0
H488 H 0.89629 0.80525 0.8109 0.0
C489 C 0.9837 0.75955 0.89539 0.0
C490 C 0.94082 0.77039 0.9103 0.0
H491 H 0.02912 0.75798 0.84037 0.0
H492 H 0.00779 0.74497 0.91812 0.0
C493 C 0.90906 0.78491 0.87865 0.0
C494 C 0.47749 0.66408 0.12127 0.0
C495 C 0.46069 0.68408 0.16082 0.0
H496 H 0.47739 0.66269 0.04931 0.0
C497 C 0.42793 0.71688 0.15728 0.0
H498 H 0.50223 0.63775 0.12303 0.0
C499 C 0.41433 0.73133 0.11495 0.0
C500 C 0.43263 0.71275 0.07535 0.0
H501 H 0.41412 0.7324 0.18693 0.0
H502 H 0.38952 0.7576 0.11324 0.0
C503 C 0.4633 0.67797 0.07895 0.0
C504 C 0.1571 0.32869 0.26747 0.0
C505 C 0.12359 0.35011 0.29259 0.0
H506 H 0.20273 0.33328 0.21217 0.0
C507 C 0.10759 0.39159 0.27859 0.0
H508 H 0.16891 0.29591 0.2771 0.0
C509 C 0.12638 0.41264 0.2416 0.0
C510 C 0.16143 0.39243 0.21748 0.0
H511 H 0.08133 0.40821 0.2971 0.0
H512 H 0.1138 0.44528 0.23239 0.0
C513 C 0.17609 0.3498 0.23024 0.0
C514 C 0.90815 0.89785 0.51415 0.0
C515 C 0.88561 0.86569 0.53992 0.0
H516 H 0.90509 0.94255 0.45827 0.0
C517 C 0.84335 0.85117 0.52663 0.0
H518 H 0.9414 0.90858 0.5235 0.0
C519 C 0.82258 0.87049 0.48972 0.0
C520 C 0.84395 0.90447 0.46503 0.0
H521 H 0.82585 0.82597 0.54579 0.0
H522 H 0.78924 0.85936 0.48115 0.0
C523 C 0.88748 0.91713 0.4769 0.0
C524 C 0.35907 0.57428 0.74249 0.0
C525 C 0.3247 0.59422 0.71725 0.0
H526 H 0.40273 0.57948 0.79905 0.0
C527 C 0.31018 0.63728 0.72875 0.0
H528 H 0.37152 0.54132 0.73425 0.0
C529 C 0.32847 0.65902 0.76596 0.0
C530 C 0.36107 0.63782 0.79236 0.0
H531 H 0.28406 0.65361 0.7098 0.0
H532 H 0.31667 0.69206 0.77472 0.0
C533 C 0.37714 0.59596 0.77952 0.0
C534 C 0.64029 0.13164 0.02807 0.0
C535 C 0.59857 0.11596 0.04182 0.0
H536 H 0.69425 0.12473 0.98214 0.0
C537 C 0.57684 0.08285 0.01647 0.0
H538 H 0.65713 0.15758 0.04685 0.0
C539 C 0.5979 0.06372 0.97935 0.0
C540 C 0.64085 0.07781 0.96695 0.0
H541 H 0.54395 0.07126 0.02605 0.0
H542 H 0.58118 0.03721 0.96123 0.0
C543 C 0.66135 0.11265 0.99114 0.0
C544 C 0.65374 0.15656 0.7185 0.0
C545 C 0.61993 0.13528 0.69369 0.0
H546 H 0.70042 0.15148 0.77281 0.0
C547 C 0.60451 0.09341 0.70715 0.0
H548 H 0.66525 0.18952 0.70904 0.0
C549 C 0.62421 0.07186 0.74336 0.0
C550 C 0.65955 0.09201 0.76714 0.0
H551 H 0.57813 0.07687 0.68872 0.0
H552 H 0.61207 0.03896 0.75222 0.0
C553 C 0.6736 0.135 0.75493 0.0
C554 C 0.16611 0.38026 0.98733 0.0
C555 C 0.14354 0.40959 0.0165 0.0
H556 H 0.16248 0.33946 0.92855 0.0
C557 C 0.09786 0.41746 0.0098 0.0
H558 H 0.20126 0.37299 -0.00829 0.0
C559 C 0.07571 0.39756 0.97371 0.0
C560 C 0.09902 0.37013 0.94343 0.0
H561 H 0.07944 0.4393 0.03201 0.0
H562 H 0.04045 0.40389 0.96926 0.0
C563 C 0.14403 0.36072 0.95128 0.0
C564 C 0.81035 0.84646 0.25362 0.0
C565 C 0.82436 0.8896 0.26541 0.0
H566 H 0.81851 0.79159 0.208 0.0
C567 C 0.85948 0.90963 0.24121 0.0
H568 H 0.78373 0.83005 0.27182 0.0
C569 C 0.87893 0.88786 0.20498 0.0
C570 C 0.86351 0.84586 0.19191 0.0
H571 H 0.8716 0.94264 0.24974 0.0
H572 H 0.90508 0.90436 0.1862 0.0
C573 C 0.83 0.82465 0.21716 0.0
C574 C 0.32154 0.60538 0.49161 0.0
C575 C 0.34215 0.57143 0.5169 0.0
H576 H 0.32632 0.64975 0.43559 0.0
C577 C 0.38566 0.55807 0.50577 0.0
H578 H 0.2882 0.61695 0.49956 0.0
C579 C 0.40736 0.57729 0.46904 0.0
C580 C 0.38569 0.60971 0.44281 0.0
H581 H 0.40251 0.53234 0.5248 0.0
H582 H 0.44079 0.56643 0.46056 0.0
C583 C 0.3432 0.62441 0.45509 0.0
C584 C 0.22775 0.17411 0.34508 0.0
C585 C 0.21637 0.16005 0.38834 0.0
H586 H 0.27326 0.16661 0.29005 0.0
C587 C 0.2413 0.12554 0.40844 0.0
H588 H 0.20897 0.20027 0.32861 0.0
C589 C 0.27788 0.10683 0.38667 0.0
C590 C 0.29055 0.12237 0.34457 0.0
H591 H 0.23313 0.11338 0.44154 0.0
H592 H 0.29722 0.08118 0.40326 0.0
C593 C 0.2645 0.15515 0.32324 0.0
C594 C 0.08249 0.00881 0.571 0.0
C595 C 0.10982 0.03922 0.5943 0.0
H596 H 0.04102 0.95034 0.57487 0.0
C597 C 0.11875 0.03187 0.63953 0.0
H598 H 0.0764 0.01296 0.53562 0.0
C599 C 0.09917 -0.00397 0.66173 0.0
C600 C 0.07027 0.96648 0.63911 0.0
H601 H 0.13985 0.05472 0.65801 0.0
H602 H 0.1063 -0.00802 0.69699 0.0
C603 C 0.06254 0.97285 0.59331 0.0
C604 C 0.22194 0.83663 0.82098 0.0
C605 C 0.19277 0.866 0.84319 0.0
H606 H 0.27922 0.79384 0.82639 0.0
C607 C 0.20183 0.87854 0.8872 0.0
H608 H 0.21598 0.82765 0.78642 0.0
C609 C 0.23791 0.85987 0.90979 0.0
C610 C 0.2658 0.82833 0.88866 0.0
H611 H 0.17998 0.90156 0.90454 0.0
H612 H 0.24321 0.86947 0.9443 0.0
C613 C 0.25807 0.81756 0.84368 0.0
C614 C 0.42385 0.00756 0.09671 0.0
C615 C 0.41038 0.01907 0.14014 0.0
H616 H 0.41491 0.96246 0.0415 0.0
C617 C 0.37551 -0.00526 0.16042 0.0
H618 H 0.45028 0.02585 0.0801 0.0
C619 C 0.35573 0.95872 0.13857 0.0
C620 C 0.37056 0.94597 0.09621 0.0
H621 H 0.36381 0.00303 0.19367 0.0
H622 H 0.32972 0.9399 0.15523 0.0
C623 C 0.40388 0.97132 0.07482 0.0
C624 C 0.77568 0.37799 0.59748 0.0
C625 C 0.79053 0.3611 0.63832 0.0
H626 H 0.72893 0.37232 0.54419 0.0
C627 C 0.76639 0.32656 0.65918 0.0
H628 H 0.79347 0.40502 0.58133 0.0
C629 C 0.72929 0.30742 0.63803 0.0
C630 C 0.71574 0.32295 0.59593 0.0
H631 H 0.77677 0.31402 0.69149 0.0
H632 H 0.712 0.27996 0.65404 0.0
C633 C 0.73882 0.35904 0.57637 0.0
C634 C 0.9166 0.47606 0.8885 0.0
C635 C 0.90519 0.46583 0.84417 0.0
H636 H 0.90698 0.52097 0.9437 0.0
C637 C 0.87225 0.49166 0.82256 0.0
H638 H 0.94108 0.4564 0.90633 0.0
C639 C 0.85279 0.52811 0.84396 0.0
C640 C 0.86612 0.53972 0.88712 0.0
H641 H 0.86209 0.48439 0.78857 0.0
H642 H 0.82853 0.54829 0.8263 0.0
C643 C 0.89715 0.51281 0.90982 0.0
C644 C 0.75593 0.67272 0.13808 0.0
C645 C 0.76751 0.65825 0.09499 0.0
H646 H 0.71059 0.66521 0.19323 0.0
C647 C 0.7432 0.62299 0.07536 0.0
H648 H 0.77421 0.6995 0.15416 0.0
C649 C 0.70703 0.60386 0.09745 0.0
C650 C 0.69413 0.61976 0.13938 0.0
H651 H 0.75157 0.61055 0.0424 0.0
H652 H 0.68817 0.57755 0.08126 0.0
C653 C 0.71954 0.6534 0.16021 0.0
C654 C 0.63066 0.45623 0.34904 0.0
C655 C 0.61413 0.44265 0.39048 0.0
H656 H 0.62484 0.50179 0.29475 0.0
C657 C 0.58061 0.468 0.4115 0.0
H658 H 0.65693 0.43744 0.33276 0.0
C659 C 0.5618 0.5049 0.38986 0.0
C660 C 0.57672 0.51705 0.34711 0.0
H661 H 0.56838 0.45854 0.44422 0.0
H662 H 0.53494 0.52302 0.40595 0.0
C663 C 0.61206 0.49295 0.32744 0.0
C664 C 0.32759 0.26808 0.15274 0.0
C665 C 0.34926 0.29376 0.11986 0.0
H666 H 0.33208 0.21249 0.19786 0.0
C667 C 0.39101 0.28028 0.10406 0.0
H668 H 0.29466 0.27743 0.16439 0.0
C669 C 0.41215 0.24329 0.12269 0.0
C670 C 0.39172 0.21876 0.15732 0.0
H671 H 0.40781 0.29931 0.07829 0.0
H672 H 0.44505 0.23452 0.11048 0.0
C673 C 0.34876 0.2309 0.17155 0.0
C674 C 0.84909 0.25197 0.80956 0.0
C675 C 0.89152 0.26498 0.82467 0.0
H676 H 0.79535 0.20488 0.81617 0.0
C677 C 0.9116 0.24092 0.85982 0.0
H678 H 0.83266 0.26999 0.78283 0.0
C679 C 0.89053 0.20382 0.87838 0.0
C680 C 0.8492 0.18969 0.862 0.0
H681 H 0.94408 0.25029 0.8727 0.0
H682 H 0.90698 0.18537 0.90478 0.0
C683 C 0.828 0.21466 0.82829 0.0
C684 C 0.0277 0.6377 0.12831 0.0
C685 C 0.04138 0.59607 0.11238 0.0
H686 H 0.98193 0.69169 0.12192 0.0
C687 C 0.01605 0.5746 0.07904 0.0
H688 H 0.04643 0.65437 0.15441 0.0
C689 C 0.979 0.59587 0.05999 0.0
C690 C 0.96664 0.63872 0.07444 0.0
H691 H 0.02553 0.54175 0.06727 0.0
H692 H 0.96082 0.57935 0.0334 0.0
C693 C 0.99086 0.65892 0.10947 0.0
C694 C 0.59351 0.77908 0.37932 0.0
C695 C 0.63529 0.79246 0.36348 0.0
H696 H 0.53944 0.7332 0.37315 0.0
C697 C 0.65679 0.76676 0.3305 0.0
H698 H 0.57682 0.79815 0.40515 0.0
C699 C 0.63559 0.72946 0.31187 0.0
C700 C 0.5927 0.71724 0.32631 0.0
H701 H 0.68971 0.77608 0.31876 0.0
H702 H 0.65226 0.71091 0.28565 0.0
C703 C 0.57229 0.742 0.3608 0.0
C704 C 0.4923 0.32342 0.61361 0.0
C705 C 0.516 0.34313 0.57798 0.0
H706 H 0.43728 0.32861 0.65921 0.0
C707 C 0.50335 0.3857 0.56306 0.0
H708 H 0.5015 0.29086 0.62639 0.0
C709 C 0.46649 0.40716 0.58223 0.0
C710 C 0.44166 0.38619 0.61621 0.0
H711 H 0.52111 0.40183 0.53598 0.0
H712 H 0.45671 0.43976 0.57002 0.0
C713 C 0.45565 0.34487 0.63262 0.0
C714 C 0.0958 0.70517 0.60135 0.0
C715 C 0.13788 0.69272 0.61709 0.0
H716 H 0.04082 0.74982 0.60769 0.0
C717 C 0.1593 0.71935 0.64939 0.0
H718 H 0.07917 0.68539 0.576 0.0
C719 C 0.13746 0.75627 0.66798 0.0
C720 C 0.09409 0.7672 0.65405 0.0
H721 H 0.19246 0.71077 0.66098 0.0
H722 H 0.15388 0.77529 0.69405 0.0
C723 C 0.07401 0.74193 0.61971 0.0
C724 C 0.47356 0.88924 0.91933 0.0
C725 C 0.46525 0.84421 0.90931 0.0
H726 H 0.51636 0.94574 0.90828 0.0
C727 C 0.49319 0.82206 0.87853 0.0
H728 H 0.45241 0.90728 0.9425 0.0
C729 C 0.52964 0.84385 0.85955 0.0
C730 C 0.53905 0.88804 0.8711 0.0
H731 H 0.48748 0.78747 0.86958 0.0
H732 H 0.55136 0.82586 0.83689 0.0
C733 C 0.51009 0.91108 0.90003 0.0
C734 C 0.97528 0.07463 0.38757 0.0
C735 C 0.94307 0.09864 0.36327 0.0
H736 H 0.03539 0.07755 0.42639 0.0
C737 C 0.94906 0.1444 0.35635 0.0
H738 H 0.97198 0.03893 0.392 0.0
C739 C 0.98525 0.16643 0.37568 0.0
C740 C 0.01631 0.143 0.40218 0.0
H741 H 0.92471 0.16335 0.33751 0.0
H742 H 0.98814 0.20215 0.37075 0.0
C743 C 0.01156 0.09665 0.40708 0.0
loop_
_geom_bond_atom_site_label_1
_geom_bond_atom_site_label_2
_geom_bond_distance
_geom_bond_site_symmetry_2
_ccdc_geom_bond_type
Zn0 O1 2.055 . S
Zn0 O8 2.046 . S
Zn0 N16 2.036 . S
Zn0 O28 2.053 . S
Zn0 O30 2.066 . S
O1 Zn0 2.055 . S
O1 C4 1.259 . S
C2 O30 1.256 . S
C2 O31 1.244 . S
Zn3 O5 2.046 . S
Zn3 O7 2.055 . S
Zn3 N9 2.036 . S
Zn3 O27 2.066 . S
Zn3 O31 2.053 . S
C4 O1 1.259 . S
C4 O5 1.254 . S
O5 Zn3 2.046 . S
O5 C4 1.254 . S
C6 O27 1.256 . S
C6 O28 1.244 . S
O7 Zn3 2.055 . S
O7 C29 1.259 . S
O8 Zn0 2.046 . S
O8 C29 1.254 . S
N9 Zn3 2.036 . S
N9 C10 1.298 . S
N9 N12 1.398 . S
C10 N9 1.298 . S
C10 N13 1.367 . S
C10 C23 1.481 . S
C11 N12 1.299 . S
C11 N13 1.379 . S
N12 N9 1.398 . S
N12 C11 1.299 . S
N13 C10 1.367 . S
N13 C11 1.379 . S
C14 N16 1.298 . S
C14 N18 1.367 . S
C14 C22 1.481 . S
C15 N17 1.299 . S
C15 N18 1.379 . S
N16 Zn0 2.036 . S
N16 C14 1.298 . S
N16 N17 1.398 . S
N17 C15 1.299 . S
N17 N16 1.398 . S
N18 C14 1.367 . S
N18 C15 1.379 . S
H19 C22 0.980 . S
H20 C22 0.981 . S
H21 C22 0.981 . S
C22 C14 1.481 . S
C22 H19 0.980 . S
C22 H20 0.981 . S
C22 H21 0.981 . S
C23 C10 1.481 . S
C23 H24 0.980 . S
C23 H25 0.981 . S
C23 H26 0.981 . S
H24 C23 0.980 . S
H25 C23 0.981 . S
H26 C23 0.981 . S
O27 Zn3 2.066 . S
O27 C6 1.256 . S
O28 Zn0 2.053 . S
O28 C6 1.244 . S
C29 O7 1.259 . S
C29 O8 1.254 . S
O30 Zn0 2.066 . S
O30 C2 1.256 . S
O31 C2 1.244 . S
O31 Zn3 2.053 . S
Zn32 O33 2.055 . S
Zn32 O40 2.046 . S
Zn32 N48 2.036 . S
Zn32 O60 2.053 1_655 S
Zn32 O62 2.066 1_655 S
O33 Zn32 2.055 . S
O33 C36 1.259 . S
C34 O62 1.256 . S
C34 O63 1.244 . S
Zn35 O37 2.046 . S
Zn35 O39 2.055 . S
Zn35 N41 2.036 . S
Zn35 O59 2.066 . S
Zn35 O63 2.053 . S
C36 O33 1.259 . S
C36 O37 1.254 1_655 S
O37 Zn35 2.046 . S
O37 C36 1.254 1_455 S
C38 O59 1.256 . S
C38 O60 1.244 . S
O39 Zn35 2.055 . S
O39 C61 1.259 1_455 S
O40 Zn32 2.046 . S
O40 C61 1.254 . S
N41 Zn35 2.036 . S
N41 C42 1.298 . S
N41 N44 1.398 . S
C42 N41 1.298 . S
C42 N45 1.367 . S
C42 C55 1.481 . S
C43 N44 1.299 . S
C43 N45 1.379 . S
N44 N41 1.398 . S
N44 C43 1.299 . S
N45 C42 1.367 . S
N45 C43 1.379 . S
C46 N48 1.298 . S
C46 N50 1.367 . S
C46 C54 1.481 . S
C47 N49 1.299 . S
C47 N50 1.379 . S
N48 Zn32 2.036 . S
N48 C46 1.298 . S
N48 N49 1.398 . S
N49 C47 1.299 . S
N49 N48 1.398 . S
N50 C46 1.367 . S
N50 C47 1.379 . S
H51 C54 0.980 . S
H52 C54 0.981 . S
H53 C54 0.981 . S
C54 C46 1.481 . S
C54 H51 0.980 . S
C54 H52 0.981 . S
C54 H53 0.981 . S
C55 C42 1.481 . S
C55 H56 0.980 . S
C55 H57 0.981 . S
C55 H58 0.981 . S
H56 C55 0.980 . S
H57 C55 0.981 . S
H58 C55 0.981 . S
O59 Zn35 2.066 . S
O59 C38 1.256 . S
O60 Zn32 2.053 1_455 S
O60 C38 1.244 . S
C61 O39 1.259 1_655 S
C61 O40 1.254 . S
O62 Zn32 2.066 1_455 S
O62 C34 1.256 . S
O63 C34 1.244 . S
O63 Zn35 2.053 . S
Zn64 O65 2.055 . S
Zn64 O72 2.046 . S
Zn64 N80 2.036 . S
Zn64 O92 2.053 1_554 S
Zn64 O94 2.066 1_554 S
O65 Zn64 2.055 . S
O65 C68 1.259 . S
C66 O94 1.256 . S
C66 O95 1.244 . S
Zn67 O69 2.046 . S
Zn67 O71 2.055 . S
Zn67 N73 2.036 . S
Zn67 O91 2.066 . S
Zn67 O95 2.053 . S
C68 O65 1.259 . S
C68 O69 1.254 1_554 S
O69 Zn67 2.046 . S
O69 C68 1.254 1_556 S
C70 O91 1.256 . S
C70 O92 1.244 . S
O71 Zn67 2.055 . S
O71 C93 1.259 1_556 S
O72 Zn64 2.046 . S
O72 C93 1.254 . S
N73 Zn67 2.036 . S
N73 C74 1.298 . S
N73 N76 1.398 . S
C74 N73 1.298 . S
C74 N77 1.367 . S
C74 C87 1.481 . S
C75 N76 1.299 . S
C75 N77 1.379 . S
N76 N73 1.398 . S
N76 C75 1.299 . S
N77 C74 1.367 . S
N77 C75 1.379 . S
C78 N80 1.298 . S
C78 N82 1.367 . S
C78 C86 1.481 . S
C79 N81 1.299 . S
C79 N82 1.379 . S
N80 Zn64 2.036 . S
N80 C78 1.298 . S
N80 N81 1.398 . S
N81 C79 1.299 . S
N81 N80 1.398 . S
N82 C78 1.367 . S
N82 C79 1.379 . S
H83 C86 0.980 . S
H84 C86 0.981 . S
H85 C86 0.981 . S
C86 C78 1.481 . S
C86 H83 0.980 . S
C86 H84 0.981 . S
C86 H85 0.981 . S
C87 C74 1.481 . S
C87 H88 0.980 . S
C87 H89 0.981 . S
C87 H90 0.981 . S
H88 C87 0.980 . S
H89 C87 0.981 . S
H90 C87 0.981 . S
O91 Zn67 2.066 . S
O91 C70 1.256 . S
O92 Zn64 2.053 1_556 S
O92 C70 1.244 . S
C93 O71 1.259 1_554 S
C93 O72 1.254 . S
O94 Zn64 2.066 1_556 S
O94 C66 1.256 . S
O95 C66 1.244 . S
O95 Zn67 2.053 . S
Zn96 O97 2.055 . S
Zn96 O104 2.046 . S
Zn96 N112 2.036 . S
Zn96 O124 2.053 . S
Zn96 O126 2.066 . S
O97 Zn96 2.055 . S
O97 C100 1.259 . S
C98 O126 1.256 . S
C98 O127 1.244 . S
Zn99 O101 2.046 . S
Zn99 O103 2.055 . S
Zn99 N105 2.036 . S
Zn99 O123 2.066 . S
Zn99 O127 2.053 . S
C100 O97 1.259 . S
C100 O101 1.254 . S
O101 Zn99 2.046 . S
O101 C100 1.254 . S
C102 O123 1.256 . S
C102 O124 1.244 . S
O103 Zn99 2.055 . S
O103 C125 1.259 . S
O104 Zn96 2.046 . S
O104 C125 1.254 . S
N105 Zn99 2.036 . S
N105 C106 1.298 . S
N105 N108 1.398 . S
C106 N105 1.298 . S
C106 N109 1.367 . S
C106 C119 1.481 . S
C107 N108 1.299 . S
C107 N109 1.379 . S
N108 N105 1.398 . S
N108 C107 1.299 . S
N109 C106 1.367 . S
N109 C107 1.379 . S
C110 N112 1.298 . S
C110 N114 1.367 . S
C110 C118 1.481 . S
C111 N113 1.299 . S
C111 N114 1.379 . S
N112 Zn96 2.036 . S
N112 C110 1.298 . S
N112 N113 1.398 . S
N113 C111 1.299 . S
N113 N112 1.398 . S
N114 C110 1.367 . S
N114 C111 1.379 . S
H115 C118 0.980 . S
H116 C118 0.981 . S
H117 C118 0.981 . S
C118 C110 1.481 . S
C118 H115 0.980 . S
C118 H116 0.981 . S
C118 H117 0.981 . S
C119 C106 1.481 . S
C119 H120 0.980 . S
C119 H121 0.981 . S
C119 H122 0.981 . S
H120 C119 0.980 . S
H121 C119 0.981 . S
H122 C119 0.981 . S
O123 Zn99 2.066 . S
O123 C102 1.256 . S
O124 Zn96 2.053 . S
O124 C102 1.244 . S
C125 O103 1.259 . S
C125 O104 1.254 . S
O126 Zn96 2.066 . S
O126 C98 1.256 . S
O127 C98 1.244 . S
O127 Zn99 2.053 . S
Zn128 O129 2.055 . S
Zn128 O136 2.046 . S
Zn128 N144 2.036 . S
Zn128 O156 2.053 . S
Zn128 O158 2.066 . S
O129 Zn128 2.055 . S
O129 C132 1.259 . S
C130 O158 1.256 . S
C130 O159 1.244 . S
Zn131 O133 2.046 . S
Zn131 O135 2.055 . S
Zn131 N137 2.036 . S
Zn131 O155 2.066 . S
Zn131 O159 2.053 . S
C132 O129 1.259 . S
C132 O133 1.254 . S
O133 Zn131 2.046 . S
O133 C132 1.254 . S
C134 O155 1.256 . S
C134 O156 1.244 . S
O135 Zn131 2.055 . S
O135 C157 1.259 . S
O136 Zn128 2.046 . S
O136 C157 1.254 . S
N137 Zn131 2.036 . S
N137 C138 1.298 . S
N137 N140 1.398 . S
C138 N137 1.298 . S
C138 N141 1.367 . S
C138 C151 1.481 . S
C139 N140 1.299 . S
C139 N141 1.379 . S
N140 N137 1.398 . S
N140 C139 1.299 . S
N141 C138 1.367 . S
N141 C139 1.379 . S
C142 N144 1.298 . S
C142 N146 1.367 . S
C142 C150 1.481 . S
C143 N145 1.299 . S
C143 N146 1.379 . S
N144 Zn128 2.036 . S
N144 C142 1.298 . S
N144 N145 1.398 . S
N145 C143 1.299 . S
N145 N144 1.398 . S
N146 C142 1.367 . S
N146 C143 1.379 . S
H147 C150 0.980 . S
H148 C150 0.981 . S
H149 C150 0.981 . S
C150 C142 1.481 . S
C150 H147 0.980 . S
C150 H148 0.981 . S
C150 H149 0.981 . S
C151 C138 1.481 . S
C151 H152 0.980 . S
C151 H153 0.981 . S
C151 H154 0.981 . S
H152 C151 0.980 . S
H153 C151 0.981 . S
H154 C151 0.981 . S
O155 Zn131 2.066 . S
O155 C134 1.256 . S
O156 Zn128 2.053 . S
O156 C134 1.244 . S
C157 O135 1.259 . S
C157 O136 1.254 . S
O158 Zn128 2.066 . S
O158 C130 1.256 . S
O159 C130 1.244 . S
O159 Zn131 2.053 . S
Zn160 O161 2.055 . S
Zn160 O168 2.046 . S
Zn160 N176 2.036 . S
Zn160 O188 2.053 . S
Zn160 O190 2.066 . S
O161 Zn160 2.055 . S
O161 C164 1.259 1_655 S
C162 O190 1.256 . S
C162 O191 1.244 . S
Zn163 O165 2.046 . S
Zn163 O167 2.055 . S
Zn163 N169 2.036 . S
Zn163 O187 2.066 1_455 S
Zn163 O191 2.053 1_455 S
C164 O161 1.259 1_455 S
C164 O165 1.254 . S
O165 Zn163 2.046 . S
O165 C164 1.254 . S
C166 O187 1.256 . S
C166 O188 1.244 . S
O167 Zn163 2.055 . S
O167 C189 1.259 . S
O168 Zn160 2.046 . S
O168 C189 1.254 1_655 S
N169 Zn163 2.036 . S
N169 C170 1.298 . S
N169 N172 1.398 . S
C170 N169 1.298 . S
C170 N173 1.367 . S
C170 C183 1.481 . S
C171 N172 1.299 . S
C171 N173 1.379 . S
N172 N169 1.398 . S
N172 C171 1.299 . S
N173 C170 1.367 . S
N173 C171 1.379 . S
C174 N176 1.298 . S
C174 N178 1.367 . S
C174 C182 1.481 . S
C175 N177 1.299 . S
C175 N178 1.379 . S
N176 Zn160 2.036 . S
N176 C174 1.298 . S
N176 N177 1.398 . S
N177 C175 1.299 . S
N177 N176 1.398 . S
N178 C174 1.367 . S
N178 C175 1.379 . S
H179 C182 0.980 . S
H180 C182 0.981 . S
H181 C182 0.981 . S
C182 C174 1.481 . S
C182 H179 0.980 . S
C182 H180 0.981 . S
C182 H181 0.981 . S
C183 C170 1.481 . S
C183 H184 0.980 . S
C183 H185 0.981 . S
C183 H186 0.981 . S
H184 C183 0.980 . S
H185 C183 0.981 . S
H186 C183 0.981 . S
O187 Zn163 2.066 1_655 S
O187 C166 1.256 . S
O188 Zn160 2.053 . S
O188 C166 1.244 . S
C189 O167 1.259 . S
C189 O168 1.254 1_455 S
O190 Zn160 2.066 . S
O190 C162 1.256 . S
O191 C162 1.244 . S
O191 Zn163 2.053 1_655 S
Zn192 O193 2.055 . S
Zn192 O200 2.046 . S
Zn192 N208 2.036 . S
Zn192 O220 2.053 . S
Zn192 O222 2.066 . S
O193 Zn192 2.055 . S
O193 C196 1.259 1_554 S
C194 O222 1.256 . S
C194 O223 1.244 . S
Zn195 O197 2.046 . S
Zn195 O199 2.055 . S
Zn195 N201 2.036 . S
Zn195 O219 2.066 1_556 S
Zn195 O223 2.053 1_556 S
C196 O193 1.259 1_556 S
C196 O197 1.254 . S
O197 Zn195 2.046 . S
O197 C196 1.254 . S
C198 O219 1.256 . S
C198 O220 1.244 . S
O199 Zn195 2.055 . S
O199 C221 1.259 . S
O200 Zn192 2.046 . S
O200 C221 1.254 1_554 S
N201 Zn195 2.036 . S
N201 C202 1.298 . S
N201 N204 1.398 . S
C202 N201 1.298 . S
C202 N205 1.367 . S
C202 C215 1.481 . S
C203 N204 1.299 . S
C203 N205 1.379 . S
N204 N201 1.398 . S
N204 C203 1.299 . S
N205 C202 1.367 . S
N205 C203 1.379 . S
C206 N208 1.298 . S
C206 N210 1.367 . S
C206 C214 1.481 . S
C207 N209 1.299 . S
C207 N210 1.379 . S
N208 Zn192 2.036 . S
N208 C206 1.298 . S
N208 N209 1.398 . S
N209 C207 1.299 . S
N209 N208 1.398 . S
N210 C206 1.367 . S
N210 C207 1.379 . S
H211 C214 0.980 . S
H212 C214 0.981 . S
H213 C214 0.981 . S
C214 C206 1.481 . S
C214 H211 0.980 . S
C214 H212 0.981 . S
C214 H213 0.981 . S
C215 C202 1.481 . S
C215 H216 0.980 . S
C215 H217 0.981 . S
C215 H218 0.981 . S
H216 C215 0.980 . S
H217 C215 0.981 . S
H218 C215 0.981 . S
O219 Zn195 2.066 1_554 S
O219 C198 1.256 . S
O220 Zn192 2.053 . S
O220 C198 1.244 . S
C221 O199 1.259 . S
C221 O200 1.254 1_556 S
O222 Zn192 2.066 . S
O222 C194 1.256 . S
O223 C194 1.244 . S
O223 Zn195 2.053 1_554 S
Zn224 O225 2.055 . S
Zn224 O232 2.046 . S
Zn224 N240 2.036 . S
Zn224 O252 2.053 . S
Zn224 O254 2.066 . S
O225 Zn224 2.055 . S
O225 C228 1.259 . S
C226 O254 1.256 . S
C226 O255 1.244 . S
Zn227 O229 2.046 . S
Zn227 O231 2.055 . S
Zn227 N233 2.036 . S
Zn227 O251 2.066 . S
Zn227 O255 2.053 . S
C228 O225 1.259 . S
C228 O229 1.254 . S
O229 Zn227 2.046 . S
O229 C228 1.254 . S
C230 O251 1.256 . S
C230 O252 1.244 . S
O231 Zn227 2.055 . S
O231 C253 1.259 . S
O232 Zn224 2.046 . S
O232 C253 1.254 . S
N233 Zn227 2.036 . S
N233 C234 1.298 . S
N233 N236 1.398 . S
C234 N233 1.298 . S
C234 N237 1.367 . S
C234 C247 1.481 . S
C235 N236 1.299 . S
C235 N237 1.379 . S
N236 N233 1.398 . S
N236 C235 1.299 . S
N237 C234 1.367 . S
N237 C235 1.379 . S
C238 N240 1.298 . S
C238 N242 1.367 . S
C238 C246 1.481 . S
C239 N241 1.299 . S
C239 N242 1.379 . S
N240 Zn224 2.036 . S
N240 C238 1.298 . S
N240 N241 1.398 . S
N241 C239 1.299 . S
N241 N240 1.398 . S
N242 C238 1.367 . S
N242 C239 1.379 . S
H243 C246 0.980 . S
H244 C246 0.981 . S
H245 C246 0.981 . S
C246 C238 1.481 . S
C246 H243 0.980 . S
C246 H244 0.981 . S
C246 H245 0.981 . S
C247 C234 1.481 . S
C247 H248 0.980 . S
C247 H249 0.981 . S
C247 H250 0.981 . S
H248 C247 0.980 . S
H249 C247 0.981 . S
H250 C247 0.981 . S
O251 Zn227 2.066 . S
O251 C230 1.256 . S
O252 Zn224 2.053 . S
O252 C230 1.244 . S
C253 O231 1.259 . S
C253 O232 1.254 . S
O254 Zn224 2.066 . S
O254 C226 1.256 . S
O255 C226 1.244 . S
O255 Zn227 2.053 . S
Zn256 O257 2.055 . S
Zn256 O264 2.046 . S
Zn256 N272 2.036 . S
Zn256 O284 2.053 . S
Zn256 O286 2.066 . S
O257 Zn256 2.055 . S
O257 C260 1.259 . S
C258 O286 1.256 . S
C258 O287 1.244 . S
Zn259 O261 2.046 . S
Zn259 O263 2.055 . S
Zn259 N265 2.036 . S
Zn259 O283 2.066 . S
Zn259 O287 2.053 . S
C260 O257 1.259 . S
C260 O261 1.254 . S
O261 Zn259 2.046 . S
O261 C260 1.254 . S
C262 O283 1.256 . S
C262 O284 1.244 . S
O263 Zn259 2.055 . S
O263 C285 1.259 . S
O264 Zn256 2.046 . S
O264 C285 1.254 . S
N265 Zn259 2.036 . S
N265 C266 1.298 . S
N265 N268 1.398 . S
C266 N265 1.298 . S
C266 N269 1.367 . S
C266 C279 1.481 . S
C267 N268 1.299 . S
C267 N269 1.379 . S
N268 N265 1.398 . S
N268 C267 1.299 . S
N269 C266 1.367 . S
N269 C267 1.379 . S
C270 N272 1.298 . S
C270 N274 1.367 . S
C270 C278 1.481 . S
C271 N273 1.299 . S
C271 N274 1.379 . S
N272 Zn256 2.036 . S
N272 C270 1.298 . S
N272 N273 1.398 . S
N273 C271 1.299 . S
N273 N272 1.398 . S
N274 C270 1.367 . S
N274 C271 1.379 . S
H275 C278 0.980 . S
H276 C278 0.981 . S
H277 C278 0.981 . S
C278 C270 1.481 . S
C278 H275 0.980 . S
C278 H276 0.981 . S
C278 H277 0.981 . S
C279 C266 1.481 . S
C279 H280 0.980 . S
C279 H281 0.981 . S
C279 H282 0.981 . S
H280 C279 0.980 . S
H281 C279 0.981 . S
H282 C279 0.981 . S
O283 Zn259 2.066 . S
O283 C262 1.256 . S
O284 Zn256 2.053 . S
O284 C262 1.244 . S
C285 O263 1.259 . S
C285 O264 1.254 . S
O286 Zn256 2.066 . S
O286 C258 1.256 . S
O287 C258 1.244 . S
O287 Zn259 2.053 . S
Zn288 O289 2.055 . S
Zn288 O296 2.046 . S
Zn288 N304 2.036 . S
Zn288 O316 2.053 . S
Zn288 O318 2.066 . S
O289 Zn288 2.055 . S
O289 C292 1.259 1_545 S
C290 O318 1.256 . S
C290 O319 1.244 . S
Zn291 O293 2.046 . S
Zn291 O295 2.055 . S
Zn291 N297 2.036 . S
Zn291 O315 2.066 1_565 S
Zn291 O319 2.053 1_565 S
C292 O289 1.259 1_565 S
C292 O293 1.254 . S
O293 Zn291 2.046 . S
O293 C292 1.254 . S
C294 O315 1.256 . S
C294 O316 1.244 . S
O295 Zn291 2.055 . S
O295 C317 1.259 . S
O296 Zn288 2.046 . S
O296 C317 1.254 1_545 S
N297 Zn291 2.036 . S
N297 C298 1.298 . S
N297 N300 1.398 . S
C298 N297 1.298 . S
C298 N301 1.367 . S
C298 C311 1.481 . S
C299 N300 1.299 . S
C299 N301 1.379 . S
N300 N297 1.398 . S
N300 C299 1.299 . S
N301 C298 1.367 . S
N301 C299 1.379 . S
C302 N304 1.298 . S
C302 N306 1.367 . S
C302 C310 1.481 . S
C303 N305 1.299 . S
C303 N306 1.379 . S
N304 Zn288 2.036 . S
N304 C302 1.298 . S
N304 N305 1.398 . S
N305 C303 1.299 . S
N305 N304 1.398 . S
N306 C302 1.367 . S
N306 C303 1.379 . S
H307 C310 0.980 . S
H308 C310 0.981 . S
H309 C310 0.981 . S
C310 C302 1.481 . S
C310 H307 0.980 . S
C310 H308 0.981 . S
C310 H309 0.981 . S
C311 C298 1.481 . S
C311 H312 0.980 . S
C311 H313 0.981 . S
C311 H314 0.981 . S
H312 C311 0.980 . S
H313 C311 0.981 . S
H314 C311 0.981 . S
O315 Zn291 2.066 1_545 S
O315 C294 1.256 . S
O316 Zn288 2.053 . S
O316 C294 1.244 . S
C317 O295 1.259 . S
C317 O296 1.254 1_565 S
O318 Zn288 2.066 . S
O318 C290 1.256 . S
O319 C290 1.244 . S
O319 Zn291 2.053 1_545 S
Zn320 O321 2.055 . S
Zn320 O328 2.046 . S
Zn320 N336 2.036 . S
Zn320 O348 2.053 . S
Zn320 O350 2.066 . S
O321 Zn320 2.055 . S
O321 C324 1.259 1_565 S
C322 O350 1.256 . S
C322 O351 1.244 . S
Zn323 O325 2.046 . S
Zn323 O327 2.055 . S
Zn323 N329 2.036 . S
Zn323 O347 2.066 1_545 S
Zn323 O351 2.053 1_545 S
C324 O321 1.259 1_545 S
C324 O325 1.254 . S
O325 Zn323 2.046 . S
O325 C324 1.254 . S
C326 O347 1.256 . S
C326 O348 1.244 . S
O327 Zn323 2.055 . S
O327 C349 1.259 . S
O328 Zn320 2.046 . S
O328 C349 1.254 1_565 S
N329 Zn323 2.036 . S
N329 C330 1.298 . S
N329 N332 1.398 . S
C330 N329 1.298 . S
C330 N333 1.367 . S
C330 C343 1.481 . S
C331 N332 1.299 . S
C331 N333 1.379 . S
N332 N329 1.398 . S
N332 C331 1.299 . S
N333 C330 1.367 . S
N333 C331 1.379 . S
C334 N336 1.298 . S
C334 N338 1.367 . S
C334 C342 1.481 . S
C335 N337 1.299 . S
C335 N338 1.379 . S
N336 Zn320 2.036 . S
N336 C334 1.298 . S
N336 N337 1.398 . S
N337 C335 1.299 . S
N337 N336 1.398 . S
N338 C334 1.367 . S
N338 C335 1.379 . S
H339 C342 0.980 . S
H340 C342 0.981 . S
H341 C342 0.981 . S
C342 C334 1.481 . S
C342 H339 0.980 . S
C342 H340 0.981 . S
C342 H341 0.981 . S
C343 C330 1.481 . S
C343 H344 0.980 . S
C343 H345 0.981 . S
C343 H346 0.981 . S
H344 C343 0.980 . S
H345 C343 0.981 . S
H346 C343 0.981 . S
O347 Zn323 2.066 1_565 S
O347 C326 1.256 . S
O348 Zn320 2.053 . S
O348 C326 1.244 . S
C349 O327 1.259 . S
C349 O328 1.254 1_545 S
O350 Zn320 2.066 . S
O350 C322 1.256 . S
O351 C322 1.244 . S
O351 Zn323 2.053 1_565 S
Zn352 O353 2.055 . S
Zn352 O360 2.046 . S
Zn352 N368 2.036 . S
Zn352 O380 2.053 . S
Zn352 O382 2.066 . S
O353 Zn352 2.055 . S
O353 C356 1.259 . S
C354 O382 1.256 . S
C354 O383 1.244 . S
Zn355 O357 2.046 . S
Zn355 O359 2.055 . S
Zn355 N361 2.036 . S
Zn355 O379 2.066 . S
Zn355 O383 2.053 . S
C356 O353 1.259 . S
C356 O357 1.254 . S
O357 Zn355 2.046 . S
O357 C356 1.254 . S
C358 O379 1.256 . S
C358 O380 1.244 . S
O359 Zn355 2.055 . S
O359 C381 1.259 . S
O360 Zn352 2.046 . S
O360 C381 1.254 . S
N361 Zn355 2.036 . S
N361 C362 1.298 . S
N361 N364 1.398 . S
C362 N361 1.298 . S
C362 N365 1.367 . S
C362 C375 1.481 . S
C363 N364 1.299 . S
C363 N365 1.379 . S
N364 N361 1.398 . S
N364 C363 1.299 . S
N365 C362 1.367 . S
N365 C363 1.379 . S
C366 N368 1.298 . S
C366 N370 1.367 . S
C366 C374 1.481 . S
C367 N369 1.299 . S
C367 N370 1.379 . S
N368 Zn352 2.036 . S
N368 C366 1.298 . S
N368 N369 1.398 . S
N369 C367 1.299 . S
N369 N368 1.398 . S
N370 C366 1.367 . S
N370 C367 1.379 . S
H371 C374 0.980 . S
H372 C374 0.981 . S
H373 C374 0.981 . S
C374 C366 1.481 . S
C374 H371 0.980 . S
C374 H372 0.981 . S
C374 H373 0.981 . S
C375 C362 1.481 . S
C375 H376 0.980 . S
C375 H377 0.981 . S
C375 H378 0.981 . S
H376 C375 0.980 . S
H377 C375 0.981 . S
H378 C375 0.981 . S
O379 Zn355 2.066 . S
O379 C358 1.256 . S
O380 Zn352 2.053 . S
O380 C358 1.244 . S
C381 O359 1.259 . S
C381 O360 1.254 . S
O382 Zn352 2.066 . S
O382 C354 1.256 . S
O383 C354 1.244 . S
O383 Zn355 2.053 . S
C384 C385 1.387 . S
C384 H388 0.950 . S
C384 C393 1.390 . S
C385 C384 1.387 . S
C385 C387 1.387 . S
H386 C393 0.950 . S
C387 C385 1.387 . S
C387 C389 1.390 . S
C387 H391 0.950 . S
H388 C384 0.950 . S
C389 C387 1.390 . S
C389 C390 1.387 . S
C389 H392 0.950 . S
C390 C389 1.387 . S
C390 C393 1.387 . S
H391 C387 0.950 . S
H392 C389 0.950 . S
C393 C384 1.390 . S
C393 H386 0.950 . S
C393 C390 1.387 . S
C394 C395 1.387 1_545 S
C394 H398 0.950 . S
C394 C403 1.390 1_545 S
C395 C394 1.387 1_565 S
C395 C397 1.387 . S
H396 C403 0.943 1_545 S
C397 C395 1.387 . S
C397 C399 1.390 . S
C397 H401 0.950 . S
H398 C394 0.950 . S
C399 C397 1.390 . S
C399 C400 1.387 . S
C399 H402 0.950 . S
C400 C399 1.387 . S
C400 C403 1.395 . S
H401 C397 0.950 . S
H402 C399 0.950 . S
C403 C394 1.390 1_565 S
C403 H396 0.943 1_565 S
C403 C400 1.395 . S
C404 C405 1.387 . S
C404 H408 0.950 . S
C404 C413 1.390 . S
C405 C404 1.387 . S
C405 C407 1.387 1_554 S
H406 C413 0.950 . S
C407 C405 1.387 1_556 S
C407 C409 1.390 . S
C407 H411 0.950 . S
H408 C404 0.950 . S
C409 C407 1.390 . S
C409 C410 1.387 1_556 S
C409 H412 0.950 . S
C410 C409 1.387 1_554 S
C410 C413 1.387 . S
H411 C407 0.950 . S
H412 C409 0.950 . S
C413 C404 1.390 . S
C413 H406 0.950 . S
C413 C410 1.387 . S
C414 C415 1.387 . S
C414 H418 0.950 . S
C414 C423 1.390 . S
C415 C414 1.387 . S
C415 C417 1.387 . S
H416 C423 0.950 . S
C417 C415 1.387 . S
C417 C419 1.390 . S
C417 H421 0.950 . S
H418 C414 0.950 . S
C419 C417 1.390 . S
C419 C420 1.387 . S
C419 H422 0.950 . S
C420 C419 1.387 . S
C420 C423 1.387 . S
H421 C417 0.950 . S
H422 C419 0.950 . S
C423 C414 1.390 . S
C423 H416 0.950 . S
C423 C420 1.387 . S
C424 C425 1.387 . S
C424 H428 0.950 . S
C424 C433 1.390 . S
C425 C424 1.387 . S
C425 C427 1.387 . S
H426 C433 0.950 . S
C427 C425 1.387 . S
C427 C429 1.390 . S
C427 H431 0.950 . S
H428 C424 0.950 . S
C429 C427 1.390 . S
C429 C430 1.387 . S
C429 H432 0.950 . S
C430 C429 1.387 . S
C430 C433 1.387 . S
H431 C427 0.950 . S
H432 C429 0.950 . S
C433 C424 1.390 . S
C433 H426 0.950 . S
C433 C430 1.387 . S
C434 C435 1.387 . S
C434 H438 0.950 . S
C434 C443 1.390 . S
C435 C434 1.387 . S
C435 C437 1.387 . S
H436 C443 0.950 . S
C437 C435 1.387 . S
C437 C439 1.390 . S
C437 H441 0.950 . S
H438 C434 0.950 . S
C439 C437 1.390 . S
C439 C440 1.387 . S
C439 H442 0.950 . S
C440 C439 1.387 . S
C440 C443 1.387 . S
H441 C437 0.950 . S
H442 C439 0.950 . S
C443 C434 1.390 . S
C443 H436 0.950 . S
C443 C440 1.387 . S
C444 C445 1.387 . S
C444 H448 0.950 . S
C444 C453 1.390 . S
C445 C444 1.387 . S
C445 C447 1.387 1_556 S
H446 C453 0.950 . S
C447 C445 1.387 1_554 S
C447 C449 1.390 . S
C447 H451 0.950 . S
H448 C444 0.950 . S
C449 C447 1.390 . S
C449 C450 1.387 1_554 S
C449 H452 0.950 . S
C450 C449 1.387 1_556 S
C450 C453 1.387 . S
H451 C447 0.950 . S
H452 C449 0.950 . S
C453 C444 1.390 . S
C453 H446 0.950 . S
C453 C450 1.387 . S
C454 C455 1.387 . S
C454 H458 0.950 . S
C454 C463 1.390 . S
C455 C454 1.387 . S
C455 C457 1.387 . S
H456 C463 0.950 . S
C457 C455 1.387 . S
C457 C459 1.390 . S
C457 H461 0.950 . S
H458 C454 0.950 . S
C459 C457 1.390 . S
C459 C460 1.387 . S
C459 H462 0.950 . S
C460 C459 1.387 . S
C460 C463 1.387 . S
H461 C457 0.950 . S
H462 C459 0.950 . S
C463 C454 1.390 . S
C463 H456 0.950 . S
C463 C460 1.387 . S
C464 C465 1.387 . S
C464 H468 0.950 . S
C464 C473 1.390 . S
C465 C464 1.387 . S
C465 C467 1.387 . S
H466 C473 0.950 . S
C467 C465 1.387 . S
C467 C469 1.390 . S
C467 H471 0.950 . S
H468 C464 0.950 . S
C469 C467 1.390 . S
C469 C470 1.387 . S
C469 H472 0.950 . S
C470 C469 1.387 . S
C470 C473 1.387 . S
H471 C467 0.950 . S
H472 C469 0.950 . S
C473 C464 1.390 . S
C473 H466 0.950 . S
C473 C470 1.387 . S
C474 C475 1.387 . S
C474 H478 0.950 . S
C474 C483 1.390 . S
C475 C474 1.387 . S
C475 C477 1.387 . S
H476 C483 0.950 . S
C477 C475 1.387 . S
C477 C479 1.390 . S
C477 H481 0.950 . S
H478 C474 0.950 . S
C479 C477 1.390 . S
C479 C480 1.387 . S
C479 H482 0.950 . S
C480 C479 1.387 . S
C480 C483 1.387 . S
H481 C477 0.950 . S
H482 C479 0.950 . S
C483 C474 1.390 . S
C483 H476 0.950 . S
C483 C480 1.387 . S
C484 C485 1.387 . S
C484 H488 0.950 . S
C484 C493 1.390 . S
C485 C484 1.387 . S
C485 C487 1.387 . S
H486 C493 0.950 . S
C487 C485 1.387 . S
C487 C489 1.390 . S
C487 H491 0.950 1_655 S
H488 C484 0.950 . S
C489 C487 1.390 . S
C489 C490 1.387 . S
C489 H492 0.950 1_655 S
C490 C489 1.387 . S
C490 C493 1.387 . S
H491 C487 0.950 1_455 S
H492 C489 0.950 1_455 S
C493 C484 1.390 . S
C493 H486 0.950 . S
C493 C490 1.387 . S
C494 C495 1.387 . S
C494 H498 0.950 . S
C494 C503 1.390 . S
C495 C494 1.387 . S
C495 C497 1.387 . S
H496 C503 0.950 . S
C497 C495 1.387 . S
C497 C499 1.390 . S
C497 H501 0.950 . S
H498 C494 0.950 . S
C499 C497 1.390 . S
C499 C500 1.387 . S
C499 H502 0.950 . S
C500 C499 1.387 . S
C500 C503 1.387 . S
H501 C497 0.950 . S
H502 C499 0.950 . S
C503 C494 1.390 . S
C503 H496 0.950 . S
C503 C500 1.387 . S
C504 C505 1.387 . S
C504 H508 0.950 . S
C504 C513 1.390 . S
C505 C504 1.387 . S
C505 C507 1.387 . S
H506 C513 0.950 . S
C507 C505 1.387 . S
C507 C509 1.390 . S
C507 H511 0.950 . S
H508 C504 0.950 . S
C509 C507 1.390 . S
C509 C510 1.387 . S
C509 H512 0.950 . S
C510 C509 1.387 . S
C510 C513 1.387 . S
H511 C507 0.950 . S
H512 C509 0.950 . S
C513 C504 1.390 . S
C513 H506 0.950 . S
C513 C510 1.387 . S
C514 C515 1.387 . S
C514 H518 0.950 . S
C514 C523 1.390 . S
C515 C514 1.387 . S
C515 C517 1.387 . S
H516 C523 0.950 . S
C517 C515 1.387 . S
C517 C519 1.390 . S
C517 H521 0.950 . S
H518 C514 0.950 . S
C519 C517 1.390 . S
C519 C520 1.387 . S
C519 H522 0.950 . S
C520 C519 1.387 . S
C520 C523 1.387 . S
H521 C517 0.950 . S
H522 C519 0.950 . S
C523 C514 1.390 . S
C523 H516 0.950 . S
C523 C520 1.387 . S
C524 C525 1.387 . S
C524 H528 0.950 . S
C524 C533 1.390 . S
C525 C524 1.387 . S
C525 C527 1.387 . S
H526 C533 0.950 . S
C527 C525 1.387 . S
C527 C529 1.390 . S
C527 H531 0.950 . S
H528 C524 0.950 . S
C529 C527 1.390 . S
C529 C530 1.387 . S
C529 H532 0.950 . S
C530 C529 1.387 . S
C530 C533 1.387 . S
H531 C527 0.950 . S
H532 C529 0.950 . S
C533 C524 1.390 . S
C533 H526 0.950 . S
C533 C530 1.387 . S
C534 C535 1.387 . S
C534 H538 0.950 . S
C534 C543 1.390 1_554 S
C535 C534 1.387 . S
C535 C537 1.387 . S
H536 C543 0.950 . S
C537 C535 1.387 . S
C537 C539 1.390 . S
C537 H541 0.950 . S
H538 C534 0.950 . S
C539 C537 1.390 . S
C539 C540 1.387 1_554 S
C539 H542 0.950 . S
C540 C539 1.387 1_556 S
C540 C543 1.387 . S
H541 C537 0.950 . S
H542 C539 0.950 . S
C543 C534 1.390 1_556 S
C543 H536 0.950 . S
C543 C540 1.387 . S
C544 C545 1.387 . S
C544 H548 0.950 . S
C544 C553 1.390 . S
C545 C544 1.387 . S
C545 C547 1.387 . S
H546 C553 0.950 . S
C547 C545 1.387 . S
C547 C549 1.390 . S
C547 H551 0.950 . S
H548 C544 0.950 . S
C549 C547 1.390 . S
C549 C550 1.387 . S
C549 H552 0.950 . S
C550 C549 1.387 . S
C550 C553 1.387 . S
H551 C547 0.950 . S
H552 C549 0.950 . S
C553 C544 1.390 . S
C553 H546 0.950 . S
C553 C550 1.387 . S
C554 C555 1.387 1_556 S
C554 H558 0.950 . S
C554 C563 1.390 . S
C555 C554 1.387 1_554 S
C555 C557 1.387 . S
H556 C563 0.950 . S
C557 C555 1.387 . S
C557 C559 1.390 1_554 S
C557 H561 0.950 . S
H558 C554 0.950 . S
C559 C557 1.390 1_556 S
C559 C560 1.387 . S
C559 H562 0.950 . S
C560 C559 1.387 . S
C560 C563 1.387 . S
H561 C557 0.950 . S
H562 C559 0.950 . S
C563 C554 1.390 . S
C563 H556 0.950 . S
C563 C560 1.387 . S
C564 C565 1.387 . S
C564 H568 0.950 . S
C564 C573 1.390 . S
C565 C564 1.387 . S
C565 C567 1.387 . S
H566 C573 0.950 . S
C567 C565 1.387 . S
C567 C569 1.390 . S
C567 H571 0.950 . S
H568 C564 0.950 . S
C569 C567 1.390 . S
C569 C570 1.387 . S
C569 H572 0.950 . S
C570 C569 1.387 . S
C570 C573 1.387 . S
H571 C567 0.950 . S
H572 C569 0.950 . S
C573 C564 1.390 . S
C573 H566 0.950 . S
C573 C570 1.387 . S
C574 C575 1.387 . S
C574 H578 0.950 . S
C574 C583 1.390 . S
C575 C574 1.387 . S
C575 C577 1.387 . S
H576 C583 0.950 . S
C577 C575 1.387 . S
C577 C579 1.390 . S
C577 H581 0.950 . S
H578 C574 0.950 . S
C579 C577 1.390 . S
C579 C580 1.387 . S
C579 H582 0.950 . S
C580 C579 1.387 . S
C580 C583 1.387 . S
H581 C577 0.950 . S
H582 C579 0.950 . S
C583 C574 1.390 . S
C583 H576 0.950 . S
C583 C580 1.387 . S
C584 C585 1.387 . S
C584 H588 0.950 . S
C584 C593 1.390 . S
C585 C584 1.387 . S
C585 C587 1.387 . S
H586 C593 0.950 . S
C587 C585 1.387 . S
C587 C589 1.390 . S
C587 H591 0.950 . S
H588 C584 0.950 . S
C589 C587 1.390 . S
C589 C590 1.387 . S
C589 H592 0.950 . S
C590 C589 1.387 . S
C590 C593 1.387 . S
H591 C587 0.950 . S
H592 C589 0.950 . S
C593 C584 1.390 . S
C593 H586 0.950 . S
C593 C590 1.387 . S
C594 C595 1.387 . S
C594 H598 0.950 . S
C594 C603 1.390 1_545 S
C595 C594 1.387 . S
C595 C597 1.387 . S
H596 C603 0.950 . S
C597 C595 1.387 . S
C597 C599 1.390 . S
C597 H601 0.950 . S
H598 C594 0.950 . S
C599 C597 1.390 . S
C599 C600 1.387 1_545 S
C599 H602 0.950 . S
C600 C599 1.387 1_565 S
C600 C603 1.387 . S
H601 C597 0.950 . S
H602 C599 0.950 . S
C603 C594 1.390 1_565 S
C603 H596 0.950 . S
C603 C600 1.387 . S
C604 C605 1.387 . S
C604 H608 0.950 . S
C604 C613 1.390 . S
C605 C604 1.387 . S
C605 C607 1.387 . S
H606 C613 0.950 . S
C607 C605 1.387 . S
C607 C609 1.390 . S
C607 H611 0.950 . S
H608 C604 0.950 . S
C609 C607 1.390 . S
C609 C610 1.387 . S
C609 H612 0.950 . S
C610 C609 1.387 . S
C610 C613 1.387 . S
H611 C607 0.950 . S
H612 C609 0.950 . S
C613 C604 1.390 . S
C613 H606 0.950 . S
C613 C610 1.387 . S
C614 C615 1.387 1_565 S
C614 H618 0.950 . S
C614 C623 1.390 . S
C615 C614 1.387 1_545 S
C615 C617 1.387 . S
H616 C623 0.950 . S
C617 C615 1.387 . S
C617 C619 1.390 1_545 S
C617 H621 0.950 . S
H618 C614 0.950 . S
C619 C617 1.390 1_565 S
C619 C620 1.387 . S
C619 H622 0.950 . S
C620 C619 1.387 . S
C620 C623 1.387 . S
H621 C617 0.950 . S
H622 C619 0.950 . S
C623 C614 1.390 . S
C623 H616 0.950 . S
C623 C620 1.387 . S
C624 C625 1.387 . S
C624 H628 0.950 . S
C624 C633 1.390 . S
C625 C624 1.387 . S
C625 C627 1.387 . S
H626 C633 0.950 . S
C627 C625 1.387 . S
C627 C629 1.390 . S
C627 H631 0.950 . S
H628 C624 0.950 . S
C629 C627 1.390 . S
C629 C630 1.387 . S
C629 H632 0.950 . S
C630 C629 1.387 . S
C630 C633 1.387 . S
H631 C627 0.950 . S
H632 C629 0.950 . S
C633 C624 1.390 . S
C633 H626 0.950 . S
C633 C630 1.387 . S
C634 C635 1.387 . S
C634 H638 0.950 . S
C634 C643 1.390 . S
C635 C634 1.387 . S
C635 C637 1.387 . S
H636 C643 0.950 . S
C637 C635 1.387 . S
C637 C639 1.390 . S
C637 H641 0.950 . S
H638 C634 0.950 . S
C639 C637 1.390 . S
C639 C640 1.387 . S
C639 H642 0.950 . S
C640 C639 1.387 . S
C640 C643 1.387 . S
H641 C637 0.950 . S
H642 C639 0.950 . S
C643 C634 1.390 . S
C643 H636 0.950 . S
C643 C640 1.387 . S
C644 C645 1.387 . S
C644 H648 0.950 . S
C644 C653 1.390 . S
C645 C644 1.387 . S
C645 C647 1.387 . S
H646 C653 0.950 . S
C647 C645 1.387 . S
C647 C649 1.390 . S
C647 H651 0.950 . S
H648 C644 0.950 . S
C649 C647 1.390 . S
C649 C650 1.387 . S
C649 H652 0.950 . S
C650 C649 1.387 . S
C650 C653 1.387 . S
H651 C647 0.950 . S
H652 C649 0.950 . S
C653 C644 1.390 . S
C653 H646 0.950 . S
C653 C650 1.387 . S
C654 C655 1.387 . S
C654 H658 0.950 . S
C654 C663 1.390 . S
C655 C654 1.387 . S
C655 C657 1.387 . S
H656 C663 0.950 . S
C657 C655 1.387 . S
C657 C659 1.390 . S
C657 H661 0.950 . S
H658 C654 0.950 . S
C659 C657 1.390 . S
C659 C660 1.387 . S
C659 H662 0.950 . S
C660 C659 1.387 . S
C660 C663 1.387 . S
H661 C657 0.950 . S
H662 C659 0.950 . S
C663 C654 1.390 . S
C663 H656 0.950 . S
C663 C660 1.387 . S
C664 C665 1.387 . S
C664 H668 0.950 . S
C664 C673 1.390 . S
C665 C664 1.387 . S
C665 C667 1.387 . S
H666 C673 0.950 . S
C667 C665 1.387 . S
C667 C669 1.390 . S
C667 H671 0.950 . S
H668 C664 0.950 . S
C669 C667 1.390 . S
C669 C670 1.387 . S
C669 H672 0.950 . S
C670 C669 1.387 . S
C670 C673 1.387 . S
H671 C667 0.950 . S
H672 C669 0.950 . S
C673 C664 1.390 . S
C673 H666 0.950 . S
C673 C670 1.387 . S
C674 C675 1.387 . S
C674 H678 0.950 . S
C674 C683 1.390 . S
C675 C674 1.387 . S
C675 C677 1.387 . S
H676 C683 0.950 . S
C677 C675 1.387 . S
C677 C679 1.390 . S
C677 H681 0.950 . S
H678 C674 0.950 . S
C679 C677 1.390 . S
C679 C680 1.387 . S
C679 H682 0.950 . S
C680 C679 1.387 . S
C680 C683 1.387 . S
H681 C677 0.950 . S
H682 C679 0.950 . S
C683 C674 1.390 . S
C683 H676 0.950 . S
C683 C680 1.387 . S
C684 C685 1.387 . S
C684 H688 0.950 . S
C684 C693 1.390 1_455 S
C685 C684 1.387 . S
C685 C687 1.387 . S
H686 C693 0.950 . S
C687 C685 1.387 . S
C687 C689 1.390 1_455 S
C687 H691 0.950 . S
H688 C684 0.950 . S
C689 C687 1.390 1_655 S
C689 C690 1.387 . S
C689 H692 0.950 . S
C690 C689 1.387 . S
C690 C693 1.387 . S
H691 C687 0.950 . S
H692 C689 0.950 . S
C693 C684 1.390 1_655 S
C693 H686 0.950 . S
C693 C690 1.387 . S
C694 C695 1.387 . S
C694 H698 0.950 . S
C694 C703 1.390 . S
C695 C694 1.387 . S
C695 C697 1.387 . S
H696 C703 0.950 . S
C697 C695 1.387 . S
C697 C699 1.390 . S
C697 H701 0.950 . S
H698 C694 0.950 . S
C699 C697 1.390 . S
C699 C700 1.387 . S
C699 H702 0.950 . S
C700 C699 1.387 . S
C700 C703 1.387 . S
H701 C697 0.950 . S
H702 C699 0.950 . S
C703 C694 1.390 . S
C703 H696 0.950 . S
C703 C700 1.387 . S
C704 C705 1.387 . S
C704 H708 0.950 . S
C704 C713 1.390 . S
C705 C704 1.387 . S
C705 C707 1.387 . S
H706 C713 0.950 . S
C707 C705 1.387 . S
C707 C709 1.390 . S
C707 H711 0.950 . S
H708 C704 0.950 . S
C709 C707 1.390 . S
C709 C710 1.387 . S
C709 H712 0.950 . S
C710 C709 1.387 . S
C710 C713 1.387 . S
H711 C707 0.950 . S
H712 C709 0.950 . S
C713 C704 1.390 . S
C713 H706 0.950 . S
C713 C710 1.387 . S
C714 C715 1.387 . S
C714 H718 0.950 . S
C714 C723 1.390 . S
C715 C714 1.387 . S
C715 C717 1.387 . S
H716 C723 0.950 . S
C717 C715 1.387 . S
C717 C719 1.390 . S
C717 H721 0.950 . S
H718 C714 0.950 . S
C719 C717 1.390 . S
C719 C720 1.387 . S
C719 H722 0.950 . S
C720 C719 1.387 . S
C720 C723 1.387 . S
H721 C717 0.950 . S
H722 C719 0.950 . S
C723 C714 1.390 . S
C723 H716 0.950 . S
C723 C720 1.387 . S
C724 C725 1.387 . S
C724 H728 0.950 . S
C724 C733 1.390 . S
C725 C724 1.387 . S
C725 C727 1.387 . S
H726 C733 0.950 . S
C727 C725 1.387 . S
C727 C729 1.390 . S
C727 H731 0.950 . S
H728 C724 0.950 . S
C729 C727 1.390 . S
C729 C730 1.387 . S
C729 H732 0.950 . S
C730 C729 1.387 . S
C730 C733 1.387 . S
H731 C727 0.950 . S
H732 C729 0.950 . S
C733 C724 1.390 . S
C733 H726 0.950 . S
C733 C730 1.387 . S
C734 C735 1.387 . S
C734 H738 0.950 . S
C734 C743 1.370 1_655 S
C735 C734 1.387 . S
C735 C737 1.387 . S
H736 C743 0.957 . S
C737 C735 1.387 . S
C737 C739 1.390 1_655 S
C737 H741 0.950 . S
H738 C734 0.950 . S
C739 C737 1.390 1_455 S
C739 C740 1.387 . S
C739 H742 0.950 . S
C740 C739 1.387 . S
C740 C743 1.400 . S
H741 C737 0.950 . S
H742 C739 0.950 . S
C743 C734 1.370 1_455 S
C743 H736 0.957 . S
C743 C740 1.400 . S
C385 C4 1.542 . S
C390 C356 1.544 . S
C395 C292 1.544 . S
C400 C36 1.543 . S
C405 C93 1.539 . S
C410 C260 1.540 . S
C415 C100 1.539 . S
C420 C324 1.540 . S
C425 C132 1.541 . S
C430 C349 1.543 . S
C435 C189 1.539 . S
C440 C381 1.539 . S
C445 C317 1.540 . S
C450 C196 1.539 . S
C455 C253 1.539 . S
C460 C285 1.539 . S
C465 C125 1.539 . S
C470 C157 1.539 . S
C475 C29 1.544 . S
C480 C164 1.542 . S
C485 C61 1.539 . S
C490 C221 1.539 . S
C495 C228 1.542 . S
C500 C68 1.540 . S
C505 N18 1.418 . S
C510 C262 1.421 . S
C515 N50 1.419 . S
C520 C326 1.422 . S
C525 C358 1.422 . S
C530 N77 1.418 . S
C535 N114 1.417 . S
C540 C294 1.421 . S
C545 N146 1.418 . S
C550 C290 1.421 . S
C555 C258 1.422 . S
C560 N173 1.419 . S
C565 C322 1.421 . S
C570 N210 1.417 . S
C575 C354 1.422 . S
C580 N237 1.419 . S
C585 C2 1.422 . S
C590 N109 1.418 . S
C595 N13 1.418 . S
C600 C34 1.421 . S
C605 N45 1.418 . S
C610 C70 1.422 . S
C615 C98 1.422 . S
C620 N82 1.419 . S
C625 N178 1.418 . S
C630 C130 1.422 . S
C635 C166 1.421 . S
C640 N205 1.418 . S
C645 C194 1.422 . S
C650 N242 1.418 . S
C655 N141 1.418 . S
C660 C230 1.422 . S
C665 N269 1.418 . S
C670 C102 1.422 . S
C675 C162 1.422 . S
C680 N306 1.418 . S
C685 N274 1.418 . S
C690 C198 1.422 . S
C695 N338 1.417 . S
C700 C226 1.421 . S
C705 C134 1.422 . S
C710 N370 1.418 . S
C715 N365 1.417 . S
C720 C38 1.421 . S
C725 C66 1.422 . S
C730 N301 1.418 . S
C735 N333 1.419 . S
C740 C6 1.422 . S
