# Generated by pormake.
# Topology afw, (4)-cn, num edge types: 1
# Building blocks:
#     Node 0, Type 0, BuildingBlock: CEKHIL_clean_sbu_0, # of connection points: 4
#     Node 1, Type 0, BuildingBlock: CEKHIL_clean_sbu_0, # of connection points: 4
#     Node 2, Type 0, BuildingBlock: CEKHIL_clean_sbu_0, # of connection points: 4
#     Node 3, Type 0, BuildingBlock: CEKHIL_clean_sbu_0, # of connection points: 4
#     Node 4, Type 0, BuildingBlock: CEKHIL_clean_sbu_0, # of connection points: 4
#     Node 5, Type 0, BuildingBlock: CEKHIL_clean_sbu_0, # of connection points: 4
#     Node 6, Type 0, BuildingBlock: CEKHIL_clean_sbu_0, # of connection points: 4
#     Node 7, Type 0, BuildingBlock: CEKHIL_clean_sbu_0, # of connection points: 4
#     Node 8, Type 0, BuildingBlock: CEKHIL_clean_sbu_0, # of connection points: 4
#     Edge 9, Type (0, 0), BuildingBlock: UVAHIK_clean_linker_0, # of connection points: 2
#     Edge 10, Type (0, 0), BuildingBlock: UVAHIK_clean_linker_0, # of connection points: 2
#     Edge 11, Type (0, 0), BuildingBlock: UVAHIK_clean_linker_0, # of connection points: 2
#     Edge 12, Type (0, 0), BuildingBlock: UVAHIK_clean_linker_0, # of connection points: 2
#     Edge 13, Type (0, 0), BuildingBlock: UVAHIK_clean_linker_0, # of connection points: 2
#     Edge 14, Type (0, 0), BuildingBlock: UVAHIK_clean_linker_0, # of connection points: 2
#     Edge 15, Type (0, 0), BuildingBlock: UVAHIK_clean_linker_0, # of connection points: 2
#     Edge 16, Type (0, 0), BuildingBlock: UVAHIK_clean_linker_0, # of connection points: 2
#     Edge 17, Type (0, 0), BuildingBlock: UVAHIK_clean_linker_0, # of connection points: 2
#     Edge 18, Type (0, 0), BuildingBlock: UVAHIK_clean_linker_0, # of connection points: 2
#     Edge 19, Type (0, 0), BuildingBlock: UVAHIK_clean_linker_0, # of connection points: 2
#     Edge 20, Type (0, 0), BuildingBlock: UVAHIK_clean_linker_0, # of connection points: 2
#     Edge 21, Type (0, 0), BuildingBlock: UVAHIK_clean_linker_0, # of connection points: 2
#     Edge 22, Type (0, 0), BuildingBlock: UVAHIK_clean_linker_0, # of connection points: 2
#     Edge 23, Type (0, 0), BuildingBlock: UVAHIK_clean_linker_0, # of connection points: 2
#     Edge 24, Type (0, 0), BuildingBlock: UVAHIK_clean_linker_0, # of connection points: 2
#     Edge 25, Type (0, 0), BuildingBlock: UVAHIK_clean_linker_0, # of connection points: 2
#     Edge 26, Type (0, 0), BuildingBlock: UVAHIK_clean_linker_0, # of connection points: 2
# Relax obj value: 0.199
# Max RMSD: 0.208
# Mean RMSD: 0.200
data_MOF--net-afw--node1-CEKHIL_clean_sbu_0--edge1-UVAHIK_clean_linker_0
_symmetry_space_group_name_H-M    P1
_symmetry_Int_Tables_number       1
_symmetry_cell_setting            triclinic
loop_
_symmetry_equiv_pos_as_xyz
'x, y, z'
_cell_length_a     55.317458
_cell_length_b     55.672884
_cell_length_c     40.127361
_cell_angle_alpha  90.64173
_cell_angle_beta   90.648453
_cell_angle_gamma 119.95549
loop_
_atom_site_label
_atom_site_type_symbol
_atom_site_fract_x
_atom_site_fract_y
_atom_site_fract_z
_atom_type_partial_charge
Co0 Co 0.03142 0.225 0.01447 0.0
O1 O 0.05083 0.26215 -0.0018 0.0
O2 O 0.00685 0.23082 0.9854 0.0
C3 C 0.06468 0.21392 0.00547 0.0
O4 O 0.00481 0.18474 0.02586 0.0
Co5 Co 0.05421 0.21004 0.07736 0.0
O6 O 0.02399 0.17177 0.06655 0.0
C7 C 0.02568 0.24216 0.08514 0.0
C8 C 0.0278 0.2558 0.98222 0.0
C9 C 0.00459 0.16634 0.04522 0.0
O10 O 0.01901 0.23826 0.05397 0.0
O11 O 0.04151 0.23439 0.09902 0.0
O12 O 0.04836 0.21266 0.98114 0.0
O13 O 0.06267 0.22512 0.03295 0.0
Co14 Co 0.81317 0.81696 0.0289 0.0
O15 O 0.79556 0.77824 0.03873 0.0
O16 O 0.78516 0.8081 0.06226 0.0
C17 C 0.85719 0.82494 0.03121 0.0
O18 O 0.82744 0.85844 0.02592 0.0
Co19 Co 0.84828 0.83949 0.96455 0.0
O20 O 0.85555 0.87592 0.98179 0.0
C21 C 0.78681 0.80832 0.95988 0.0
C22 C 0.78081 0.7829 0.05999 0.0
C23 C 0.84361 0.87869 0.0073 0.0
O24 O 0.78504 0.80854 0.99182 0.0
O25 O 0.80989 0.81748 0.94467 0.0
O26 O 0.84463 0.82472 0.05847 0.0
O27 O 0.84211 0.81803 0.00428 0.0
Co28 Co 0.19299 0.99267 0.00769 0.0
O29 O 0.21403 0.97519 0.99557 0.0
O30 O 0.21871 0.01349 0.9731 0.0
C31 C 0.15096 0.95395 0.00702 0.0
O32 O 0.17444 0.01611 0.01265 0.0
Co33 Co 0.15941 0.9781 0.07343 0.0
O34 O 0.14483 0.0015 0.0555 0.0
C35 C 0.22078 0.01375 0.07565 0.0
C36 C 0.22602 0.99463 0.97388 0.0
C37 C 0.15573 0.01699 0.03054 0.0
O38 O 0.22141 0.01503 0.04363 0.0
O39 O 0.19855 -0.00157 0.09174 0.0
O40 O 0.16176 0.96646 0.97938 0.0
O41 O 0.16687 0.96366 0.03322 0.0
Co42 Co 0.64149 0.53196 0.34646 0.0
O43 O 0.62221 0.54955 0.36532 0.0
O44 O 0.66668 0.56236 0.37496 0.0
C45 C 0.60926 0.48751 0.35552 0.0
O46 O 0.6685 0.51891 0.3338 0.0
Co47 Co 0.61937 0.49332 0.28387 0.0
O48 O 0.64987 0.48544 0.29412 0.0
C49 C 0.64506 0.55358 0.27609 0.0
C50 C 0.64577 0.56617 0.38059 0.0
C51 C 0.66912 0.50026 0.31528 0.0
O52 O 0.65227 0.55725 0.30713 0.0
O53 O 0.63014 0.52958 0.26245 0.0
O54 O 0.62591 0.503 0.37954 0.0
O55 O 0.61029 0.50025 0.32833 0.0
Co56 Co 0.48925 0.13911 0.3537 0.0
O57 O 0.4672 0.10065 0.36476 0.0
O58 O 0.46098 0.13444 0.3849 0.0
C59 C 0.53147 0.1428 0.35968 0.0
O60 O 0.50819 0.18106 0.34896 0.0
Co61 Co 0.52709 0.1569 0.29134 0.0
O62 O 0.5403 0.19493 0.3088 0.0
C63 C 0.46624 0.13248 0.28286 0.0
C64 C 0.4535 0.10828 0.38413 0.0
C65 C 0.52796 0.20015 0.33201 0.0
O66 O 0.46348 0.13307 0.31463 0.0
O67 O 0.48942 0.13899 0.26908 0.0
O68 O 0.5184 0.14423 0.38567 0.0
O69 O 0.51733 0.13608 0.332 0.0
Co70 Co 0.87535 0.37284 0.34367 0.0
O71 O 0.91301 0.39455 0.36058 0.0
O72 O 0.88197 0.3524 0.3771 0.0
C73 C 0.86435 0.40651 0.34545 0.0
O74 O 0.83478 0.34458 0.33463 0.0
Co75 Co 0.85469 0.38471 0.27712 0.0
O76 O 0.81697 0.35598 0.29107 0.0
C77 C 0.88998 0.35889 0.27619 0.0
C78 C 0.90678 0.37391 0.38026 0.0
C79 C 0.81423 0.34063 0.31568 0.0
O80 O 0.88787 0.35612 0.30797 0.0
O81 O 0.88007 0.37165 0.25961 0.0
O82 O 0.86378 0.39347 0.37235 0.0
O83 O 0.87409 0.40074 0.3193 0.0
Co84 Co 0.3571 0.88286 0.66832 0.0
O85 O 0.37788 0.91931 0.65006 0.0
O86 O 0.33369 0.88877 0.63745 0.0
C87 C 0.3894 0.86992 0.66211 0.0
O88 O 0.3292 0.84308 0.68066 0.0
Co89 Co 0.37775 0.86789 0.73311 0.0
O90 O 0.3463 0.83 0.72363 0.0
C91 C 0.35359 0.90433 0.73708 0.0
C92 C 0.35532 0.91311 0.63304 0.0
C93 C 0.3278 0.82479 0.70112 0.0
O94 O 0.34534 0.89855 0.70642 0.0
O95 O 0.36905 0.89624 0.75124 0.0
O96 O 0.3737 0.86844 0.63693 0.0
O97 O 0.3874 0.88221 0.68855 0.0
Co98 Co 0.14316 0.47527 0.69335 0.0
O99 O 0.12642 0.43904 0.71236 0.0
O100 O 0.1175 0.4723 0.72734 0.0
C101 C 0.18734 0.4839 0.69439 0.0
O102 O 0.15699 0.51534 0.68069 0.0
Co103 Co 0.17291 0.48721 0.62519 0.0
O104 O 0.18353 0.52627 0.63511 0.0
C105 C 0.11216 0.45109 0.6288 0.0
C106 C 0.11291 0.44722 0.73128 0.0
C107 C 0.17311 0.53293 0.65924 0.0
O108 O 0.11264 0.4606 0.6583 0.0
O109 O 0.13429 0.45689 0.6129 0.0
O110 O 0.17663 0.48777 0.72121 0.0
O111 O 0.17037 0.47255 0.66935 0.0
Co112 Co 0.52323 0.65354 0.67333 0.0
O113 O 0.54725 0.63945 0.66031 0.0
O114 O 0.5504 0.67861 0.64274 0.0
C115 C 0.48236 0.61389 0.66681 0.0
O116 O 0.50225 0.67447 0.67973 0.0
Co117 Co 0.48544 0.63194 0.7354 0.0
O118 O 0.4706 0.65593 0.72014 0.0
C119 C 0.5462 0.66851 0.74406 0.0
C120 C 0.55962 0.66125 0.64188 0.0
C121 C 0.48223 0.67325 0.69695 0.0
O122 O 0.5486 0.67346 0.71266 0.0
O123 O 0.52332 0.65073 0.75727 0.0
O124 O 0.49456 0.6289 0.64109 0.0
O125 O 0.49656 0.62177 0.69443 0.0
C126 C 0.15146 0.04954 0.99138 0.0
C127 C 0.14783 0.03811 0.02327 0.0
C128 C 0.14519 0.07054 0.98529 0.0
C129 C 0.14388 0.12785 0.02555 0.0
H130 H 0.0855 0.1176 0.96287 0.0
C131 C 0.09154 0.19419 0.03259 0.0
C132 C 0.08043 0.19904 0.00354 0.0
C133 C 0.10346 0.17726 0.03146 0.0
C134 C 0.10234 0.12118 0.9799 0.0
H135 H 0.13477 0.03965 0.07368 0.0
H136 H 0.12455 0.07677 0.06313 0.0
H137 H 0.09909 0.08218 0.96675 0.0
H138 H 0.07451 0.1914 0.95016 0.0
H139 H 0.0963 0.16265 0.94792 0.0
H140 H 0.14757 0.16683 0.03867 0.0
C141 C 0.13199 0.06926 0.0429 0.0
C142 C 0.10995 0.10079 0.98219 0.0
C143 C 0.13766 0.04793 0.04882 0.0
C144 C 0.08271 0.18779 0.97303 0.0
C145 C 0.095 0.17115 0.9718 0.0
C146 C 0.13668 0.14846 0.02286 0.0
C147 C 0.13585 0.08081 0.01119 0.0
C148 C 0.13023 0.10369 0.00565 0.0
C149 C 0.10496 0.16515 0.00114 0.0
C150 C 0.11524 0.14504 0.00072 0.0
H151 H 0.15917 0.04228 0.97121 0.0
H152 H 0.14822 0.0792 0.96062 0.0
H153 H 0.15984 0.13057 0.04356 0.0
H154 H 0.0901 0.20257 0.05648 0.0
H155 H 0.11045 0.17281 0.05469 0.0
C156 C 0.85901 0.91925 0.04618 0.0
C157 C 0.8485 0.90663 0.0149 0.0
C158 C 0.86849 0.94754 0.05099 0.0
C159 C 0.89621 0.01033 4e-05 0.0
H160 H 0.90203 0.04651 0.08523 0.0
C161 C 0.9612 0.12893 0.01657 0.0
C162 C 0.98074 0.13763 0.04311 0.0
C163 C 0.93943 0.10143 0.01413 0.0
C164 C 0.90042 0.03664 0.06125 0.0
H165 H 0.83701 0.9124 0.96516 0.0
H166 H 0.85195 0.96125 0.97396 0.0
H167 H 0.87227 0.99622 0.07947 0.0
H168 H -0.00801 0.12448 0.08864 0.0
H169 H 0.95422 0.07668 0.08421 0.0
H170 H 0.92467 0.05059 0.98199 0.0
C171 C 0.85422 0.94994 0.99438 0.0
C172 C 0.88349 0.00785 0.05796 0.0
C173 C 0.84545 0.92194 0.98937 0.0
C174 C 0.97747 0.11847 0.06771 0.0
C175 C 0.95562 0.09112 0.06541 0.0
C176 C 0.91284 0.03904 0.00324 0.0
C177 C 0.86708 0.96344 0.02472 0.0
C178 C 0.88174 0.99425 0.0275 0.0
C179 C 0.93664 0.08221 0.03836 0.0
C180 C 0.91569 0.05241 0.03406 0.0
H181 H 0.86159 0.90772 0.06613 0.0
H182 H 0.87842 0.95719 0.07462 0.0
H183 H 0.89595 0.00071 0.97634 0.0
H184 H 0.96302 0.14318 0.99729 0.0
H185 H 0.92498 0.09511 0.99308 0.0
C186 C 0.90036 0.83756 -0.00011 0.0
C187 C 0.88703 0.83362 0.03054 0.0
C188 C 0.92868 0.84611 -0.00108 0.0
C189 C -0.00704 0.88165 0.05019 0.0
H190 H 0.02268 0.85665 0.97918 0.0
C191 C 0.11012 0.92228 0.04074 0.0
C192 C 0.12115 0.93333 0.00959 0.0
C193 C 0.08143 0.90545 0.04432 0.0
C194 C 0.0146 0.86374 -0.00086 0.0
H195 H 0.89254 0.83485 0.08421 0.0
H196 H 0.94207 0.84925 0.08256 0.0
H197 H 0.97221 0.83574 0.9845 0.0
H198 H 0.11114 0.93415 0.95737 0.0
H199 H 0.06082 0.90466 0.96366 0.0
H200 H 0.03533 0.90978 0.06463 0.0
C201 C 0.93075 0.84627 0.05927 0.0
C202 C 0.98578 0.85189 0.00214 0.0
C203 C 0.9024 0.83795 0.06024 0.0
C204 C 0.10316 0.92599 0.98169 0.0
C205 C 0.07441 0.90902 0.98526 0.0
C206 C 0.02172 0.89328 0.04735 0.0
C207 C 0.94424 0.85063 0.02858 0.0
C208 C 0.97466 0.86111 0.02732 0.0
C209 C 0.06328 0.89925 0.01679 0.0
C210 C 0.03281 0.88478 0.02148 0.0
H211 H 0.88904 0.83443 0.97657 0.0
H212 H 0.9385 0.84981 0.97487 0.0
H213 H 0.98514 0.88956 0.06952 0.0
H214 H 0.12354 0.92734 0.06263 0.0
H215 H 0.07336 0.89785 0.0688 0.0
C216 C 0.84388 0.43242 0.3731 0.0
C217 C 0.85082 0.42349 0.34376 0.0
C218 C 0.82869 0.44625 0.37154 0.0
C219 C 0.80167 0.47922 0.31237 0.0
H220 H 0.74343 0.45674 0.37766 0.0
C221 C 0.70022 0.4834 0.29318 0.0
C222 C 0.69307 0.49571 0.31912 0.0
C223 C 0.72265 0.47875 0.29716 0.0
C224 C 0.75982 0.46343 0.35951 0.0
H225 H 0.84835 0.42291 0.28978 0.0
H226 H 0.82081 0.44575 0.28698 0.0
H227 H 0.77758 0.44156 0.38313 0.0
H228 H 0.70368 0.51274 0.36955 0.0
H229 H 0.74245 0.50385 0.37671 0.0
H230 H 0.78257 0.49974 0.28782 0.0
C231 C 0.82763 0.44287 0.31125 0.0
C232 C 0.77953 0.45492 0.3627 0.0
C233 C 0.84324 0.42951 0.31282 0.0
C234 C 0.7088 0.50333 0.34906 0.0
C235 C 0.73089 0.49821 0.35324 0.0
C236 C 0.78162 0.4873 0.30888 0.0
C237 C 0.8197 0.45097 0.34061 0.0
C238 C 0.8005 0.46238 0.33892 0.0
C239 C 0.73795 0.48587 0.32733 0.0
C240 C 0.76038 0.47919 0.33222 0.0
H241 H 0.84981 0.42834 0.39729 0.0
H242 H 0.82358 0.45278 0.39464 0.0
H243 H 0.81784 0.48587 0.29398 0.0
H244 H 0.68853 0.4774 0.26981 0.0
H245 H 0.72762 0.46896 0.27697 0.0
C246 C 0.53071 0.23843 0.36868 0.0
C247 C 0.53575 0.22941 0.33805 0.0
C248 C 0.53791 0.2662 0.37361 0.0
C249 C 0.58062 0.33599 0.33615 0.0
H250 H 0.53412 0.35528 0.38871 0.0
C251 C 0.58522 0.44087 0.32732 0.0
C252 C 0.59527 0.45696 0.35678 0.0
C253 C 0.57603 0.41252 0.32759 0.0
C254 C 0.54725 0.35004 0.37408 0.0
H255 H 0.55154 0.24221 0.2883 0.0
H256 H 0.56285 0.28984 0.29624 0.0
H257 H 0.52267 0.30677 0.38427 0.0
H258 H 0.60168 0.45567 0.41003 0.0
H259 H 0.58466 0.40568 0.41051 0.0
H260 H 0.60435 0.37913 0.32483 0.0
C261 C 0.55448 0.27605 0.31708 0.0
C262 C 0.5409 0.32236 0.3717 0.0
C263 C 0.54781 0.24857 0.31241 0.0
C264 C 0.59418 0.4438 0.38691 0.0
C265 C 0.58442 0.41527 0.38726 0.0
C266 C 0.58655 0.36342 0.33798 0.0
C267 C 0.54987 0.28538 0.3478 0.0
C268 C 0.55735 0.31493 0.35234 0.0
C269 C 0.57607 0.39965 0.35743 0.0
C270 C 0.5698 0.37061 0.35668 0.0
H271 H 0.5215 0.22411 0.38893 0.0
H272 H 0.53434 0.27263 0.39774 0.0
H273 H 0.59433 0.33135 0.32186 0.0
H274 H 0.5856 0.45031 0.30376 0.0
H275 H 0.56953 0.40073 0.30433 0.0
C276 C 0.57579 0.15757 0.32996 0.0
C277 C 0.56196 0.15456 0.36005 0.0
C278 C 0.60478 0.17312 0.32894 0.0
C279 C 0.66308 0.23043 0.37558 0.0
H280 H 0.70647 0.22087 0.30682 0.0
C281 C 0.78045 0.30673 0.35547 0.0
C282 C 0.78644 0.31714 0.323 0.0
C283 C 0.75431 0.28435 0.36264 0.0
C284 C 0.69454 0.22367 0.32617 0.0
H285 H 0.56761 0.16317 0.41325 0.0
H286 H 0.61848 0.18951 0.41178 0.0
H287 H 0.65893 0.1837 0.31669 0.0
H288 H 0.76998 0.31215 0.27253 0.0
H289 H 0.72427 0.2725 0.28505 0.0
H290 H 0.69898 0.27037 0.38508 0.0
C291 C 0.60686 0.18075 0.3887 0.0
C292 C 0.66734 0.20249 0.3318 0.0
C293 C 0.57774 0.16547 0.38962 0.0
C294 C 0.76587 0.30462 0.29777 0.0
C295 C 0.73988 0.28187 0.30484 0.0
C296 C 0.69046 0.25135 0.37035 0.0
C297 C 0.62066 0.18565 0.35813 0.0
C298 C 0.65096 0.20595 0.3559 0.0
C299 C 0.73392 0.27167 0.33735 0.0
C300 C 0.70609 0.24841 0.34502 0.0
H301 H 0.56421 0.14914 0.30677 0.0
H302 H 0.6145 0.17659 0.30487 0.0
H303 H 0.65106 0.23411 0.39396 0.0
H304 H 0.79588 0.31607 0.37545 0.0
H305 H 0.75007 0.2768 0.38788 0.0
C306 C 0.41366 0.84913 0.69298 0.0
C307 C 0.40414 0.85397 0.66262 0.0
C308 C 0.42472 0.83148 0.69423 0.0
C309 C 0.4255 0.77467 0.64567 0.0
H310 H 0.47942 0.7836 0.71437 0.0
C311 C 0.47729 0.70608 0.65919 0.0
C312 C 0.47329 0.69374 0.69054 0.0
C313 C 0.46997 0.72639 0.65364 0.0
C314 C 0.46437 0.78094 0.69508 0.0
H315 H 0.40021 0.84545 0.60942 0.0
H316 H 0.42087 0.81568 0.61123 0.0
H317 H 0.46696 0.81955 0.70746 0.0
H318 H 0.45859 0.69296 0.74062 0.0
H319 H 0.44652 0.72905 0.73107 0.0
H320 H 0.42372 0.73627 0.63294 0.0
C321 C 0.41877 0.82461 0.63437 0.0
C322 C 0.45705 0.8014 0.69119 0.0
C323 C 0.40716 0.84188 0.63324 0.0
C324 C 0.46175 0.702 0.71617 0.0
C325 C 0.45502 0.72272 0.71082 0.0
C326 C 0.4333 0.7545 0.64914 0.0
C327 C 0.42714 0.81868 0.665 0.0
C328 C 0.43705 0.79828 0.66691 0.0
C329 C 0.45915 0.7351 0.67957 0.0
C330 C 0.45237 0.75726 0.67428 0.0
H331 H 0.41166 0.85815 0.71608 0.0
H332 H 0.43043 0.82716 0.71839 0.0
H333 H 0.40972 0.77121 0.62706 0.0
H334 H 0.48607 0.70004 0.63897 0.0
H335 H 0.4733 0.73573 0.62936 0.0
C336 C 0.29417 0.77976 0.72634 0.0
C337 C 0.30435 0.79607 0.69792 0.0
C338 C 0.27419 0.75169 0.7233 0.0
C339 C 0.22632 0.69614 0.66225 0.0
H340 H 0.23835 0.64919 0.72291 0.0
C341 C 0.19246 0.58083 0.63695 0.0
C342 C 0.18094 0.56241 0.66349 0.0
C343 C 0.2023 0.60915 0.64176 0.0
C344 C 0.23443 0.66202 0.7061 0.0
H345 H 0.3011 0.79615 0.64412 0.0
H346 H 0.26723 0.74679 0.6385 0.0
H347 H 0.26551 0.69916 0.7302 0.0
H348 H 0.1698 0.55918 0.71559 0.0
H349 H 0.18758 0.60881 0.72408 0.0
H350 H 0.19629 0.65849 0.63706 0.0
C351 C 0.2739 0.75572 0.66331 0.0
C352 C 0.24992 0.69077 0.71032 0.0
C353 C 0.29344 0.78403 0.66644 0.0
C354 C 0.17857 0.5728 0.69463 0.0
C355 C 0.18881 0.60119 0.69956 0.0
C356 C 0.21112 0.6673 0.65771 0.0
C357 C 0.26447 0.73901 0.69169 0.0
C358 C 0.2463 0.7083 0.68831 0.0
C359 C 0.2012 0.61967 0.67331 0.0
C360 C 0.21523 0.65001 0.67946 0.0
H361 H 0.30197 0.78867 0.75096 0.0
H362 H 0.26684 0.73981 0.74582 0.0
H363 H 0.22254 0.70885 0.64513 0.0
H364 H 0.19441 0.57347 0.61258 0.0
H365 H 0.21194 0.62298 0.62118 0.0
C366 C 0.23476 0.50175 0.71998 0.0
C367 C 0.21736 0.49391 0.69152 0.0
C368 C 0.26328 0.51149 0.71693 0.0
C369 C 0.31617 0.51584 0.65668 0.0
H370 H 0.3671 0.57553 0.71632 0.0
C371 C 0.43544 0.58921 0.63824 0.0
C372 C 0.45229 0.59357 0.66668 0.0
C373 C 0.40639 0.57333 0.64017 0.0
C374 C 0.35306 0.55869 0.69969 0.0
H375 H 0.21601 0.49009 0.63758 0.0
H376 H 0.26575 0.50824 0.63211 0.0
H377 H 0.31708 0.5559 0.72232 0.0
H378 H 0.45219 0.58312 0.71868 0.0
H379 H 0.40161 0.55592 0.72205 0.0
H380 H 0.35265 0.5198 0.63323 0.0
C381 C 0.25745 0.50609 0.65689 0.0
C382 C 0.3244 0.54731 0.70322 0.0
C383 C 0.22891 0.49591 0.66 0.0
C384 C 0.43975 0.58044 0.69644 0.0
C385 C 0.41083 0.56489 0.69844 0.0
C386 C 0.34493 0.52761 0.65281 0.0
C387 C 0.27502 0.51404 0.6853 0.0
C388 C 0.30555 0.52568 0.68183 0.0
C389 C 0.39393 0.56188 0.67062 0.0
C390 C 0.36353 0.54902 0.67442 0.0
H391 H 0.22631 0.50018 0.7446 0.0
H392 H 0.27608 0.51692 0.73942 0.0
H393 H 0.30229 0.49893 0.64007 0.0
H394 H 0.44459 0.59903 0.61496 0.0
H395 H 0.39365 0.57124 0.61842 0.0
C396 C 0.03907 0.30401 0.97097 0.0
C397 C 0.02608 0.2761 0.96079 0.0
C398 C 0.04046 0.32402 0.94922 0.0
C399 C 0.01839 0.33343 0.86331 0.0
H400 H 0.0898 0.40154 0.86913 0.0
C401 C 0.08241 0.4002 0.75389 0.0
C402 C 0.09415 0.42906 0.75703 0.0
C403 C 0.06713 0.38303 0.77983 0.0
C404 C 0.06954 0.38286 0.86753 0.0
H405 H 0.00341 0.24674 0.92075 0.0
H406 H 0.00753 0.2817 0.88172 0.0
H407 H 0.07632 0.36851 0.9136 0.0
H408 H 0.09827 0.46262 0.78897 0.0
H409 H 0.07241 0.43248 0.83509 0.0
H410 H 0.01329 0.34724 0.81534 0.0
C411 C 0.01568 0.28836 0.90683 0.0
C412 C 0.06162 0.36384 0.89317 0.0
C413 C 0.01347 0.26823 0.92907 0.0
C414 C 0.08939 0.44041 0.78596 0.0
C415 C 0.07464 0.42325 0.81226 0.0
C416 C 0.02671 0.35222 0.83723 0.0
C417 C 0.02988 0.31668 0.9163 0.0
C418 C 0.0362 0.33851 0.89114 0.0
C419 C 0.06383 0.39449 0.80956 0.0
C420 C 0.0526 0.37681 0.83893 0.0
H421 H 0.04854 0.3104 0.99563 0.0
H422 H 0.05064 0.34536 0.958 0.0
H423 H -0.00163 0.31457 0.86111 0.0
H424 H 0.08565 0.39095 0.73173 0.0
H425 H 0.05923 0.36093 0.77737 0.0
C426 C 0.76277 0.80349 0.90534 0.0
C427 C 0.76109 0.79688 0.93924 0.0
C428 C 0.73901 0.79139 0.8849 0.0
C429 C 0.66218 0.75324 0.88479 0.0
H430 H 0.67071 0.7266 0.79839 0.0
C431 C 0.56884 0.67907 0.80068 0.0
C432 C 0.57079 0.6843 0.76632 0.0
C433 C 0.59185 0.69397 0.82191 0.0
C434 C 0.66808 0.73424 0.82224 0.0
H435 H 0.73303 0.77314 0.97861 0.0
H436 H 0.69133 0.75147 0.94252 0.0
H437 H 0.71097 0.7507 0.83587 0.0
H438 H 0.59854 0.70944 0.72736 0.0
H439 H 0.63875 0.7356 0.76463 0.0
H440 H 0.61913 0.7364 0.87114 0.0
C441 C 0.71109 0.7663 0.93195 0.0
C442 C 0.69112 0.74804 0.84371 0.0
C443 C 0.73494 0.77861 0.95256 0.0
C444 C 0.59633 0.70482 0.75367 0.0
C445 C 0.61938 0.71974 0.77497 0.0
C446 C 0.63909 0.73937 0.86328 0.0
C447 C 0.71304 0.77223 0.89779 0.0
C448 C 0.68842 0.75772 0.87518 0.0
C449 C 0.61733 0.71443 0.80928 0.0
C450 C 0.64185 0.72973 0.83182 0.0
H451 H 0.78255 0.81789 0.89444 0.0
H452 H 0.74104 0.79687 0.85885 0.0
H453 H 0.65957 0.76073 0.90875 0.0
H454 H 0.54953 0.66335 0.81131 0.0
H455 H 0.5898 0.68914 0.84816 0.0
C456 C 0.34702 0.92034 0.79275 0.0
C457 C 0.34357 0.91959 0.75791 0.0
C458 C 0.33579 0.93255 0.81306 0.0
C459 C 0.31365 0.98227 0.82268 0.0
H460 H 0.26116 0.92985 0.88494 0.0
C461 C 0.24909 0.00643 0.91841 0.0
C462 C 0.24501 0.99346 0.94933 0.0
C463 C 0.26292 0.00091 0.89302 0.0
C464 C 0.27598 0.94485 0.86799 0.0
H465 H 0.32679 0.93242 0.71703 0.0
H466 H 0.30727 0.95425 0.75314 0.0
H467 H 0.28162 0.91397 0.84296 0.0
H468 H 0.25425 0.96671 0.97911 0.0
H469 H 0.279 0.95778 0.93545 0.0
H470 H 0.3086 0.0134 0.84863 0.0
C471 C 0.31861 0.94509 0.76431 0.0
C472 C 0.28745 0.93567 0.84382 0.0
C473 C 0.32962 0.93248 0.74379 0.0
C474 C 0.25673 0.97663 0.95533 0.0
C475 C 0.27072 0.97138 0.93023 0.0
C476 C 0.30226 0.9916 0.84724 0.0
C477 C 0.32114 0.94458 0.79909 0.0
C478 C 0.30678 0.95435 0.82146 0.0
C479 C 0.27295 0.9825 0.89839 0.0
C480 C 0.28385 0.97303 0.87066 0.0
H481 H 0.35767 0.91072 0.80457 0.0
H482 H 0.33805 0.93208 0.83987 0.0
H483 H 0.3286 -0.00303 0.8056 0.0
H484 H 0.24024 0.01953 0.91318 0.0
H485 H 0.26441 0.00985 0.86877 0.0
C486 C 0.4147 0.11247 0.27387 0.0
C487 C 0.44165 0.12433 0.26085 0.0
C488 C 0.39158 0.10428 0.25265 0.0
C489 C 0.36932 0.08381 0.16536 0.0
H490 H 0.30671 0.09281 0.19007 0.0
C491 C 0.27254 0.04633 0.07935 0.0
C492 C 0.24687 0.03072 0.0952 0.0
C493 C 0.29715 0.06146 0.09821 0.0
C494 C 0.32405 0.09013 0.1829 0.0
H495 H 0.46554 0.13779 0.21544 0.0
H496 H 0.42536 0.12383 0.17872 0.0
H497 H 0.34825 0.11221 0.22622 0.0
H498 H 0.2269 0.01949 0.14333 0.0
H499 H 0.26969 0.04549 0.17592 0.0
H500 H 0.34499 0.0613 0.1224 0.0
C501 C 0.42201 0.12033 0.20519 0.0
C502 C 0.34776 0.10115 0.20361 0.0
C503 C 0.44505 0.12837 0.2263 0.0
C504 C 0.24628 0.03115 0.13022 0.0
C505 C 0.2708 0.04629 0.14899 0.0
C506 C 0.34566 0.07283 0.14465 0.0
C507 C 0.39502 0.10791 0.21805 0.0
C508 C 0.37048 0.09776 0.19526 0.0
C509 C 0.29652 0.06136 0.13322 0.0
C510 C 0.32262 0.0755 0.15347 0.0
H511 H 0.41137 0.10906 0.30035 0.0
H512 H 0.37098 0.09447 0.26325 0.0
H513 H 0.38634 0.08052 0.15846 0.0
H514 H 0.27373 0.04658 0.05242 0.0
H515 H 0.3167 0.07313 0.08542 0.0
C516 C -0.00135 0.26689 0.0911 0.0
C517 C 0.01342 0.25523 0.10603 0.0
C518 C 0.98565 0.27782 0.11067 0.0
C519 C 0.98499 0.30404 0.19513 0.0
H520 H 0.91113 0.28864 0.16732 0.0
C521 C 0.91733 0.33406 0.27501 0.0
C522 C 0.90416 0.34642 0.25783 0.0
C523 C 0.93057 0.32218 0.25752 0.0
C524 C 0.93183 0.29327 0.17525 0.0
H525 H 0.02649 0.24633 0.15331 0.0
H526 H 0.00349 0.2652 0.18746 0.0
H527 H 0.93484 0.26961 0.13488 0.0
H528 H 0.89461 0.35593 0.20873 0.0
H529 H 0.91778 0.33535 0.1784 0.0
H530 H 0.98186 0.32772 0.23555 0.0
C531 C 0.00226 0.26612 0.16059 0.0
C532 C 0.94543 0.28243 0.15666 0.0
C533 C 0.01537 0.25525 0.141 0.0
C534 C 0.90452 0.3466 0.2228 0.0
C535 C 0.91763 0.33464 0.20537 0.0
C536 C 0.97132 0.31483 0.2138 0.0
C537 C 0.98702 0.27725 0.1456 0.0
C538 C 0.97228 0.28796 0.16617 0.0
C539 C 0.93076 0.32231 0.22253 0.0
C540 C 0.94474 0.30979 0.2038 0.0
H541 H -0.00306 0.26747 0.06424 0.0
H542 H 0.97454 0.28677 0.09838 0.0
H543 H 0.00577 0.30886 0.2029 0.0
H544 H 0.91745 0.33353 0.30199 0.0
H545 H 0.94035 0.3126 0.27135 0.0
C546 C 0.65518 0.57538 0.22006 0.0
C547 C 0.65509 0.5782 0.25488 0.0
C548 C 0.66548 0.59861 0.19996 0.0
C549 C 0.71112 0.67497 0.20308 0.0
H550 H 0.6799 0.66882 0.11425 0.0
C551 C 0.7533 0.76686 0.11226 0.0
C552 C 0.7611 0.76064 0.08158 0.0
C553 C 0.7371 0.74561 0.13418 0.0
C554 C 0.68872 0.67082 0.13906 0.0
H555 H 0.66514 0.60759 0.29589 0.0
H556 H 0.68235 0.64811 0.26072 0.0
H557 H 0.65747 0.62984 0.15182 0.0
H558 H 0.75713 0.72745 0.04904 0.0
H559 H 0.72834 0.69039 0.08693 0.0
H560 H 0.74233 0.71609 0.19007 0.0
C561 C 0.67511 0.628 0.24896 0.0
C562 C 0.67604 0.64847 0.16053 0.0
C563 C 0.66512 0.60475 0.26914 0.0
C564 C 0.75146 0.73282 0.07258 0.0
C565 C 0.73489 0.71162 0.09416 0.0
C566 C 0.72356 0.69747 0.18173 0.0
C567 C 0.6756 0.62525 0.21411 0.0
C568 C 0.68746 0.65 0.19254 0.0
C569 C 0.72799 0.71784 0.1254 0.0
C570 C 0.7128 0.69537 0.14931 0.0
H571 H 0.64786 0.55525 0.20828 0.0
H572 H 0.66609 0.59568 0.17332 0.0
H573 H 0.72075 0.67683 0.22732 0.0
H574 H 0.76058 0.78815 0.11985 0.0
H575 H 0.73195 0.75087 0.15813 0.0
C576 C 0.08373 0.41864 0.58256 0.0
C577 C 0.08509 0.43372 0.61152 0.0
C578 C 0.05912 0.40487 0.56368 0.0
C579 C 0.0022 0.37217 0.53035 0.0
H580 H 0.97636 0.42353 0.50933 0.0
C581 C 0.91867 0.35303 0.42794 0.0
C582 C 0.92592 0.37574 0.40719 0.0
C583 C 0.93507 0.35583 0.45603 0.0
C584 C 0.9833 0.40894 0.51507 0.0
H585 H 0.06112 0.44434 0.64492 0.0
H586 H 0.01799 0.42041 0.61149 0.0
H587 H 0.00855 0.43375 0.55618 0.0
H588 H 0.95657 0.41874 0.39858 0.0
H589 H 0.98523 0.42359 0.44756 0.0
H590 H 0.97779 0.34805 0.48803 0.0
C591 C 0.03614 0.41949 0.60341 0.0
C592 C 0.00138 0.41455 0.54217 0.0
C593 C 0.06078 0.43316 0.62249 0.0
C594 C 0.95042 0.40093 0.4142 0.0
C595 C 0.96666 0.40378 0.44235 0.0
C596 C 0.98393 0.36646 0.50327 0.0
C597 C 0.03539 0.40598 0.57328 0.0
C598 C 0.01174 0.39671 0.5494 0.0
C599 C 0.9588 0.38145 0.46388 0.0
C600 C 0.97515 0.38534 0.49477 0.0
H601 H 0.10197 0.41826 0.57374 0.0
H602 H 0.05927 0.39484 0.54046 0.0
H603 H 0.00975 0.35798 0.53559 0.0
H604 H 0.89991 0.33331 0.42305 0.0
H605 H 0.92867 0.33831 0.47222 0.0
C606 C 0.62838 0.59592 0.40543 0.0
C607 C 0.64827 0.5873 0.40496 0.0
C608 C 0.6291 0.61361 0.43088 0.0
C609 C 0.64126 0.62221 0.51704 0.0
H610 H 0.63663 0.68919 0.51028 0.0
C611 C 0.59988 0.65527 0.62691 0.0
C612 C 0.58136 0.66463 0.61864 0.0
C613 C 0.61769 0.65465 0.60295 0.0
C614 C 0.63763 0.67037 0.51266 0.0
H615 H 0.68523 0.59128 0.42968 0.0
H616 H 0.68568 0.6213 0.47497 0.0
H617 H 0.64922 0.67137 0.46155 0.0
H618 H 0.56764 0.68199 0.57979 0.0
H619 H 0.59687 0.67898 0.53731 0.0
H620 H 0.62707 0.61907 0.56658 0.0
C621 C 0.66997 0.61479 0.45529 0.0
C622 C 0.64515 0.66042 0.48481 0.0
C623 C 0.66962 0.59761 0.42947 0.0
C624 C 0.58187 0.67474 0.5867 0.0
C625 C 0.59891 0.6732 0.56239 0.0
C626 C 0.63299 0.63163 0.54454 0.0
C627 C 0.6494 0.62245 0.4565 0.0
C628 C 0.64637 0.63593 0.48668 0.0
C629 C 0.61642 0.66224 0.56985 0.0
C630 C 0.63023 0.65541 0.54253 0.0
H631 H 0.61182 0.58839 0.3867 0.0
H632 H 0.61284 0.61905 0.43162 0.0
H633 H 0.6418 0.60308 0.51887 0.0
H634 H 0.60011 0.6478 0.65167 0.0
H635 H 0.63158 0.64711 0.61017 0.0
C636 C 0.37411 0.96095 0.61171 0.0
C637 C 0.35494 0.93244 0.60856 0.0
C638 C 0.37584 0.97901 0.58679 0.0
C639 C 0.37266 0.9809 0.49921 0.0
H640 H 0.37331 0.05043 0.51085 0.0
C641 C 0.41544 0.06049 0.39588 0.0
C642 C 0.43203 0.08825 0.4062 0.0
C643 C 0.39803 0.04055 0.41839 0.0
C644 C 0.37349 0.03124 0.50716 0.0
H645 H 0.32193 0.90049 0.57758 0.0
H646 H 0.32585 0.9321 0.53316 0.0
H647 H 0.35792 0.01734 0.55618 0.0
H648 H 0.44281 0.11739 0.44745 0.0
H649 H 0.41404 0.08258 0.4874 0.0
H650 H 0.39047 0.99522 0.4518 0.0
C651 C 0.33905 0.94041 0.55528 0.0
C652 C 0.36437 0.01221 0.53304 0.0
C653 C 0.33684 0.92241 0.58062 0.0
C654 C 0.43003 0.09606 0.43891 0.0
C655 C 0.41331 0.076 0.46176 0.0
C656 C 0.38243 0.00013 0.47371 0.0
C657 C 0.35885 0.96876 0.558 0.0
C658 C 0.36435 0.98713 0.52941 0.0
C659 C 0.39767 0.04778 0.45207 0.0
C660 C 0.38357 0.02588 0.47751 0.0
H661 H 0.3882 0.9692 0.6331 0.0
H662 H 0.39146 0.00078 0.58921 0.0
H663 H 0.37316 0.96179 0.49607 0.0
H664 H 0.41641 0.05409 0.37056 0.0
H665 H 0.38561 0.0193 0.40951 0.0
loop_
_geom_bond_atom_site_label_1
_geom_bond_atom_site_label_2
_geom_bond_distance
_geom_bond_site_symmetry_2
_ccdc_geom_bond_type
Co0 O1 2.216 1_554 S
Co0 O2 2.091 1_554 S
Co0 O4 2.001 1_454 S
Co0 O10 2.021 1_455 S
Co0 O12 2.137 1_554 S
Co0 O13 2.244 . S
O1 Co0 2.216 1_556 S
O1 C8 1.247 . S
O2 Co0 2.091 1_556 S
O2 C8 1.261 . S
C3 O12 1.247 1_554 S
C3 O13 1.272 . S
O4 Co0 2.001 1_656 S
O4 C9 1.233 1_556 S
Co5 O6 2.061 1_455 S
Co5 O11 2.052 . S
Co5 O13 2.135 . S
O6 Co5 2.061 1_655 S
O6 C9 1.235 . S
C7 O10 1.238 . S
C7 O11 1.241 1_655 S
C8 O1 1.247 . S
C8 O2 1.261 . S
C9 O4 1.233 1_554 S
C9 O6 1.235 . S
O10 Co0 2.021 1_655 S
O10 C7 1.238 . S
O11 Co5 2.052 . S
O11 C7 1.241 1_455 S
O12 Co0 2.137 1_556 S
O12 C3 1.247 1_556 S
O13 Co0 2.244 . S
O13 C3 1.272 . S
O13 Co5 2.135 . S
Co14 O15 2.216 . S
Co14 O16 2.091 . S
Co14 O18 2.004 . S
Co14 O24 2.021 . S
Co14 O26 2.137 . S
Co14 O27 2.244 1_554 S
O15 Co14 2.216 . S
O15 C22 1.247 . S
O16 Co14 2.091 . S
O16 C22 1.261 . S
C17 O26 1.247 . S
C17 O27 1.272 1_554 S
O18 Co14 2.004 . S
O18 C23 1.259 . S
Co19 O20 2.061 . S
Co19 O25 2.052 . S
Co19 O27 2.135 . S
O20 Co19 2.061 . S
O20 C23 1.235 1_556 S
C21 O24 1.238 1_556 S
C21 O25 1.241 . S
C22 O15 1.247 . S
C22 O16 1.261 . S
C23 O18 1.259 . S
C23 O20 1.235 1_554 S
O24 Co14 2.021 . S
O24 C21 1.238 1_554 S
O25 Co19 2.052 . S
O25 C21 1.241 . S
O26 Co14 2.137 . S
O26 C17 1.247 . S
O27 Co14 2.244 1_556 S
O27 C17 1.272 1_556 S
O27 Co19 2.135 . S
Co28 O29 2.216 1_544 S
Co28 O30 2.091 1_554 S
Co28 O32 2.004 1_554 S
Co28 O38 2.021 . S
Co28 O40 2.137 1_544 S
Co28 O41 2.244 1_545 S
O29 Co28 2.216 1_566 S
O29 C36 1.247 . S
O30 Co28 2.091 1_556 S
O30 C36 1.261 1_545 S
C31 O40 1.247 1_554 S
C31 O41 1.272 . S
O32 Co28 2.004 1_556 S
O32 C37 1.259 1_556 S
Co33 O34 2.061 . S
Co33 O39 2.052 . S
Co33 O41 2.135 1_545 S
O34 Co33 2.061 . S
O34 C37 1.235 . S
C35 O38 1.238 . S
C35 O39 1.241 . S
C36 O29 1.247 . S
C36 O30 1.261 1_565 S
C37 O32 1.259 1_554 S
C37 O34 1.235 . S
O38 Co28 2.021 . S
O38 C35 1.238 . S
O39 Co33 2.052 . S
O39 C35 1.241 . S
O40 Co28 2.137 1_566 S
O40 C31 1.247 1_556 S
O41 Co28 2.244 1_565 S
O41 C31 1.272 . S
O41 Co33 2.135 1_565 S
Co42 O43 2.216 . S
Co42 O44 2.091 . S
Co42 O46 2.004 . S
Co42 O52 2.021 . S
Co42 O54 2.137 . S
Co42 O55 2.244 . S
O43 Co42 2.216 . S
O43 C50 1.247 . S
O44 Co42 2.091 . S
O44 C50 1.261 . S
C45 O54 1.247 . S
C45 O55 1.272 . S
O46 Co42 2.004 . S
O46 C51 1.259 . S
Co47 O48 2.061 . S
Co47 O53 2.052 . S
Co47 O55 2.135 . S
O48 Co47 2.061 . S
O48 C51 1.235 . S
C49 O52 1.238 . S
C49 O53 1.241 . S
C50 O43 1.247 . S
C50 O44 1.261 . S
C51 O46 1.259 . S
C51 O48 1.235 . S
O52 Co42 2.021 . S
O52 C49 1.238 . S
O53 Co47 2.052 . S
O53 C49 1.241 . S
O54 Co42 2.137 . S
O54 C45 1.247 . S
O55 Co42 2.244 . S
O55 C45 1.272 . S
O55 Co47 2.135 . S
Co56 O57 2.216 . S
Co56 O58 2.091 . S
Co56 O60 2.004 . S
Co56 O66 2.021 . S
Co56 O68 2.137 . S
Co56 O69 2.244 . S
O57 Co56 2.216 . S
O57 C64 1.247 . S
O58 Co56 2.091 . S
O58 C64 1.261 . S
C59 O68 1.247 . S
C59 O69 1.272 . S
O60 Co56 2.004 . S
O60 C65 1.259 . S
Co61 O62 2.061 . S
Co61 O67 2.052 . S
Co61 O69 2.135 . S
O62 Co61 2.061 . S
O62 C65 1.235 . S
C63 O66 1.238 . S
C63 O67 1.241 . S
C64 O57 1.247 . S
C64 O58 1.261 . S
C65 O60 1.259 . S
C65 O62 1.235 . S
O66 Co56 2.021 . S
O66 C63 1.238 . S
O67 Co61 2.052 . S
O67 C63 1.241 . S
O68 Co56 2.137 . S
O68 C59 1.247 . S
O69 Co56 2.244 . S
O69 C59 1.272 . S
O69 Co61 2.135 . S
Co70 O71 2.216 . S
Co70 O72 2.091 . S
Co70 O74 2.004 . S
Co70 O80 2.021 . S
Co70 O82 2.137 . S
Co70 O83 2.244 . S
O71 Co70 2.216 . S
O71 C78 1.247 . S
O72 Co70 2.091 . S
O72 C78 1.261 . S
C73 O82 1.247 . S
C73 O83 1.272 . S
O74 Co70 2.004 . S
O74 C79 1.259 . S
Co75 O76 2.061 . S
Co75 O81 2.052 . S
Co75 O83 2.135 . S
O76 Co75 2.061 . S
O76 C79 1.235 . S
C77 O80 1.238 . S
C77 O81 1.241 . S
C78 O71 1.247 . S
C78 O72 1.261 . S
C79 O74 1.259 . S
C79 O76 1.235 . S
O80 Co70 2.021 . S
O80 C77 1.238 . S
O81 Co75 2.052 . S
O81 C77 1.241 . S
O82 Co70 2.137 . S
O82 C73 1.247 . S
O83 Co70 2.244 . S
O83 C73 1.272 . S
O83 Co75 2.135 . S
Co84 O85 2.216 . S
Co84 O86 2.091 . S
Co84 O88 2.004 . S
Co84 O94 2.021 . S
Co84 O96 2.137 . S
Co84 O97 2.244 . S
O85 Co84 2.216 . S
O85 C92 1.247 . S
O86 Co84 2.091 . S
O86 C92 1.261 . S
C87 O96 1.247 . S
C87 O97 1.272 . S
O88 Co84 2.004 . S
O88 C93 1.259 . S
Co89 O90 2.061 . S
Co89 O95 2.052 . S
Co89 O97 2.135 . S
O90 Co89 2.061 . S
O90 C93 1.235 . S
C91 O94 1.238 . S
C91 O95 1.241 . S
C92 O85 1.247 . S
C92 O86 1.261 . S
C93 O88 1.259 . S
C93 O90 1.235 . S
O94 Co84 2.021 . S
O94 C91 1.238 . S
O95 Co89 2.052 . S
O95 C91 1.241 . S
O96 Co84 2.137 . S
O96 C87 1.247 . S
O97 Co84 2.244 . S
O97 C87 1.272 . S
O97 Co89 2.135 . S
Co98 O99 2.216 . S
Co98 O100 2.091 . S
Co98 O102 2.004 . S
Co98 O108 2.021 . S
Co98 O110 2.137 . S
Co98 O111 2.244 . S
O99 Co98 2.216 . S
O99 C106 1.247 . S
O100 Co98 2.091 . S
O100 C106 1.261 . S
C101 O110 1.247 . S
C101 O111 1.272 . S
O102 Co98 2.004 . S
O102 C107 1.259 . S
Co103 O104 2.061 . S
Co103 O109 2.052 . S
Co103 O111 2.135 . S
O104 Co103 2.061 . S
O104 C107 1.235 . S
C105 O108 1.238 . S
C105 O109 1.241 . S
C106 O99 1.247 . S
C106 O100 1.261 . S
C107 O102 1.259 . S
C107 O104 1.235 . S
O108 Co98 2.021 . S
O108 C105 1.238 . S
O109 Co103 2.052 . S
O109 C105 1.241 . S
O110 Co98 2.137 . S
O110 C101 1.247 . S
O111 Co98 2.244 . S
O111 C101 1.272 . S
O111 Co103 2.135 . S
Co112 O113 2.216 . S
Co112 O114 2.091 . S
Co112 O116 2.004 . S
Co112 O122 2.021 . S
Co112 O124 2.137 . S
Co112 O125 2.244 . S
O113 Co112 2.216 . S
O113 C120 1.247 . S
O114 Co112 2.091 . S
O114 C120 1.261 . S
C115 O124 1.247 . S
C115 O125 1.272 . S
O116 Co112 2.004 . S
O116 C121 1.259 . S
Co117 O118 2.061 . S
Co117 O123 2.052 . S
Co117 O125 2.135 . S
O118 Co117 2.061 . S
O118 C121 1.235 . S
C119 O122 1.238 . S
C119 O123 1.241 . S
C120 O113 1.247 . S
C120 O114 1.261 . S
C121 O116 1.259 . S
C121 O118 1.235 . S
O122 Co112 2.021 . S
O122 C119 1.238 . S
O123 Co117 2.052 . S
O123 C119 1.241 . S
O124 Co112 2.137 . S
O124 C115 1.247 . S
O125 Co112 2.244 . S
O125 C115 1.272 . S
O125 Co117 2.135 . S
C126 C127 1.349 . S
C126 C128 1.327 . S
C126 H151 0.950 1_554 S
C127 C126 1.349 . S
C127 C143 1.349 . S
C128 C126 1.327 . S
C128 C147 1.429 . S
C128 H152 0.950 1_554 S
C129 C146 1.574 . S
C129 C148 1.368 . S
C129 H153 0.949 . S
H130 C134 0.948 1_556 S
C131 C132 1.349 . S
C131 C133 1.327 . S
C131 H154 0.950 . S
C132 C131 1.349 . S
C132 C144 1.349 . S
C133 C131 1.327 . S
C133 C149 1.429 . S
C133 H155 0.950 . S
C134 H130 0.948 1_554 S
C134 C142 1.574 . S
C134 C150 1.368 . S
H135 C143 0.950 . S
H136 C141 0.950 . S
H137 C142 0.949 1_556 S
H138 C144 0.950 . S
H139 C145 0.950 . S
H140 C146 0.949 . S
C141 H136 0.950 . S
C141 C143 1.327 . S
C141 C147 1.429 . S
C142 C134 1.574 . S
C142 H137 0.949 1_554 S
C142 C148 1.368 . S
C143 C127 1.349 . S
C143 H135 0.950 . S
C143 C141 1.327 . S
C144 C132 1.349 . S
C144 H138 0.950 . S
C144 C145 1.327 . S
C145 H139 0.950 . S
C145 C144 1.327 . S
C145 C149 1.429 . S
C146 C129 1.574 . S
C146 H140 0.949 . S
C146 C150 1.368 . S
C147 C128 1.429 . S
C147 C141 1.429 . S
C147 C148 1.523 . S
C148 C129 1.368 . S
C148 C142 1.368 . S
C148 C147 1.523 . S
C149 C133 1.429 . S
C149 C145 1.429 . S
C149 C150 1.523 . S
C150 C134 1.368 . S
C150 C146 1.368 . S
C150 C149 1.523 . S
H151 C126 0.950 1_556 S
H152 C128 0.950 1_556 S
H153 C129 0.949 . S
H154 C131 0.950 . S
H155 C133 0.950 . S
C156 C157 1.349 . S
C156 C158 1.327 . S
C156 H181 0.950 . S
C157 C156 1.349 . S
C157 C173 1.349 1_554 S
C158 C156 1.327 . S
C158 C177 1.429 . S
C158 H182 0.950 . S
C159 C176 1.574 1_565 S
C159 C178 1.368 1_556 S
C159 H183 0.949 . S
H160 C164 0.949 . S
C161 C162 1.349 1_556 S
C161 C163 1.327 . S
C161 H184 0.950 . S
C162 C161 1.349 1_554 S
C162 C174 1.349 . S
C163 C161 1.327 . S
C163 C179 1.429 1_556 S
C163 H185 0.950 . S
C164 H160 0.949 . S
C164 C172 1.574 1_545 S
C164 C180 1.368 . S
H165 C173 0.950 . S
H166 C171 0.950 . S
H167 C172 0.949 . S
H168 C174 0.950 . S
H169 C175 0.950 . S
H170 C176 0.949 . S
C171 H166 0.950 . S
C171 C173 1.327 . S
C171 C177 1.429 1_556 S
C172 C164 1.574 1_565 S
C172 H167 0.949 . S
C172 C178 1.368 . S
C173 C157 1.349 1_556 S
C173 H165 0.950 . S
C173 C171 1.327 . S
C174 C162 1.349 . S
C174 H168 0.950 . S
C174 C175 1.327 . S
C175 H169 0.950 . S
C175 C174 1.327 . S
C175 C179 1.429 . S
C176 C159 1.574 1_545 S
C176 H170 0.949 . S
C176 C180 1.368 1_556 S
C177 C158 1.429 . S
C177 C171 1.429 1_554 S
C177 C178 1.523 . S
C178 C159 1.368 1_554 S
C178 C172 1.368 . S
C178 C177 1.523 . S
C179 C163 1.429 1_554 S
C179 C175 1.429 . S
C179 C180 1.523 . S
C180 C164 1.368 . S
C180 C176 1.368 1_554 S
C180 C179 1.523 . S
H181 C156 0.950 . S
H182 C158 0.950 . S
H183 C159 0.949 . S
H184 C161 0.950 . S
H185 C163 0.950 . S
C186 C187 1.349 1_556 S
C186 C188 1.327 . S
C186 H211 0.950 . S
C187 C186 1.349 1_554 S
C187 C203 1.349 . S
C188 C186 1.327 . S
C188 C207 1.429 1_556 S
C188 H212 0.950 . S
C189 C206 1.574 1_655 S
C189 C208 1.368 . S
C189 H213 0.949 . S
H190 C194 0.949 . S
C191 C192 1.349 . S
C191 C193 1.327 . S
C191 H214 0.950 . S
C192 C191 1.349 . S
C192 C204 1.349 1_554 S
C193 C191 1.327 . S
C193 C209 1.429 . S
C193 H215 0.950 . S
C194 H190 0.949 . S
C194 C202 1.574 1_455 S
C194 C210 1.368 1_556 S
H195 C203 0.950 . S
H196 C201 0.950 . S
H197 C202 0.949 . S
H198 C204 0.950 . S
H199 C205 0.950 . S
H200 C206 0.949 . S
C201 H196 0.950 . S
C201 C203 1.327 . S
C201 C207 1.429 . S
C202 C194 1.574 1_655 S
C202 H197 0.949 . S
C202 C208 1.368 1_556 S
C203 C187 1.349 . S
C203 H195 0.950 . S
C203 C201 1.327 . S
C204 C192 1.349 1_556 S
C204 H198 0.950 . S
C204 C205 1.327 . S
C205 H199 0.950 . S
C205 C204 1.327 . S
C205 C209 1.429 1_556 S
C206 C189 1.574 1_455 S
C206 H200 0.949 . S
C206 C210 1.368 . S
C207 C188 1.429 1_554 S
C207 C201 1.429 . S
C207 C208 1.523 . S
C208 C189 1.368 . S
C208 C202 1.368 1_554 S
C208 C207 1.523 . S
C209 C193 1.429 . S
C209 C205 1.429 1_554 S
C209 C210 1.523 . S
C210 C194 1.368 1_554 S
C210 C206 1.368 . S
C210 C209 1.523 . S
H211 C186 0.950 . S
H212 C188 0.950 . S
H213 C189 0.949 . S
H214 C191 0.950 . S
H215 C193 0.950 . S
C216 C217 1.349 . S
C216 C218 1.327 . S
C216 H241 0.950 . S
C217 C216 1.349 . S
C217 C233 1.349 . S
C218 C216 1.327 . S
C218 C237 1.429 . S
C218 H242 0.950 . S
C219 C236 1.574 . S
C219 C238 1.368 . S
C219 H243 0.949 . S
H220 C224 0.949 . S
C221 C222 1.349 . S
C221 C223 1.327 . S
C221 H244 0.950 . S
C222 C221 1.349 . S
C222 C234 1.349 . S
C223 C221 1.327 . S
C223 C239 1.429 . S
C223 H245 0.950 . S
C224 H220 0.949 . S
C224 C232 1.574 . S
C224 C240 1.368 . S
H225 C233 0.950 . S
H226 C231 0.950 . S
H227 C232 0.949 . S
H228 C234 0.950 . S
H229 C235 0.950 . S
H230 C236 0.949 . S
C231 H226 0.950 . S
C231 C233 1.327 . S
C231 C237 1.429 . S
C232 C224 1.574 . S
C232 H227 0.949 . S
C232 C238 1.368 . S
C233 C217 1.349 . S
C233 H225 0.950 . S
C233 C231 1.327 . S
C234 C222 1.349 . S
C234 H228 0.950 . S
C234 C235 1.327 . S
C235 H229 0.950 . S
C235 C234 1.327 . S
C235 C239 1.429 . S
C236 C219 1.574 . S
C236 H230 0.949 . S
C236 C240 1.368 . S
C237 C218 1.429 . S
C237 C231 1.429 . S
C237 C238 1.523 . S
C238 C219 1.368 . S
C238 C232 1.368 . S
C238 C237 1.523 . S
C239 C223 1.429 . S
C239 C235 1.429 . S
C239 C240 1.523 . S
C240 C224 1.368 . S
C240 C236 1.368 . S
C240 C239 1.523 . S
H241 C216 0.950 . S
H242 C218 0.950 . S
H243 C219 0.949 . S
H244 C221 0.950 . S
H245 C223 0.950 . S
C246 C247 1.349 . S
C246 C248 1.327 . S
C246 H271 0.950 . S
C247 C246 1.349 . S
C247 C263 1.349 . S
C248 C246 1.327 . S
C248 C267 1.429 . S
C248 H272 0.950 . S
C249 C266 1.574 . S
C249 C268 1.368 . S
C249 H273 0.949 . S
H250 C254 0.949 . S
C251 C252 1.349 . S
C251 C253 1.327 . S
C251 H274 0.950 . S
C252 C251 1.349 . S
C252 C264 1.349 . S
C253 C251 1.327 . S
C253 C269 1.429 . S
C253 H275 0.950 . S
C254 H250 0.949 . S
C254 C262 1.574 . S
C254 C270 1.368 . S
H255 C263 0.950 . S
H256 C261 0.950 . S
H257 C262 0.949 . S
H258 C264 0.950 . S
H259 C265 0.950 . S
H260 C266 0.949 . S
C261 H256 0.950 . S
C261 C263 1.327 . S
C261 C267 1.429 . S
C262 C254 1.574 . S
C262 H257 0.949 . S
C262 C268 1.368 . S
C263 C247 1.349 . S
C263 H255 0.950 . S
C263 C261 1.327 . S
C264 C252 1.349 . S
C264 H258 0.950 . S
C264 C265 1.327 . S
C265 H259 0.950 . S
C265 C264 1.327 . S
C265 C269 1.429 . S
C266 C249 1.574 . S
C266 H260 0.949 . S
C266 C270 1.368 . S
C267 C248 1.429 . S
C267 C261 1.429 . S
C267 C268 1.523 . S
C268 C249 1.368 . S
C268 C262 1.368 . S
C268 C267 1.523 . S
C269 C253 1.429 . S
C269 C265 1.429 . S
C269 C270 1.523 . S
C270 C254 1.368 . S
C270 C266 1.368 . S
C270 C269 1.523 . S
H271 C246 0.950 . S
H272 C248 0.950 . S
H273 C249 0.949 . S
H274 C251 0.950 . S
H275 C253 0.950 . S
C276 C277 1.349 . S
C276 C278 1.327 . S
C276 H301 0.950 . S
C277 C276 1.349 . S
C277 C293 1.349 . S
C278 C276 1.327 . S
C278 C297 1.429 . S
C278 H302 0.950 . S
C279 C296 1.574 . S
C279 C298 1.368 . S
C279 H303 0.949 . S
H280 C284 0.949 . S
C281 C282 1.349 . S
C281 C283 1.327 . S
C281 H304 0.950 . S
C282 C281 1.349 . S
C282 C294 1.349 . S
C283 C281 1.327 . S
C283 C299 1.429 . S
C283 H305 0.950 . S
C284 H280 0.949 . S
C284 C292 1.574 . S
C284 C300 1.368 . S
H285 C293 0.950 . S
H286 C291 0.950 . S
H287 C292 0.949 . S
H288 C294 0.950 . S
H289 C295 0.950 . S
H290 C296 0.949 . S
C291 H286 0.950 . S
C291 C293 1.327 . S
C291 C297 1.429 . S
C292 C284 1.574 . S
C292 H287 0.949 . S
C292 C298 1.368 . S
C293 C277 1.349 . S
C293 H285 0.950 . S
C293 C291 1.327 . S
C294 C282 1.349 . S
C294 H288 0.950 . S
C294 C295 1.327 . S
C295 H289 0.950 . S
C295 C294 1.327 . S
C295 C299 1.429 . S
C296 C279 1.574 . S
C296 H290 0.949 . S
C296 C300 1.368 . S
C297 C278 1.429 . S
C297 C291 1.429 . S
C297 C298 1.523 . S
C298 C279 1.368 . S
C298 C292 1.368 . S
C298 C297 1.523 . S
C299 C283 1.429 . S
C299 C295 1.429 . S
C299 C300 1.523 . S
C300 C284 1.368 . S
C300 C296 1.368 . S
C300 C299 1.523 . S
H301 C276 0.950 . S
H302 C278 0.950 . S
H303 C279 0.949 . S
H304 C281 0.950 . S
H305 C283 0.950 . S
C306 C307 1.349 . S
C306 C308 1.327 . S
C306 H331 0.950 . S
C307 C306 1.349 . S
C307 C323 1.349 . S
C308 C306 1.327 . S
C308 C327 1.429 . S
C308 H332 0.950 . S
C309 C326 1.574 . S
C309 C328 1.368 . S
C309 H333 0.949 . S
H310 C314 0.949 . S
C311 C312 1.349 . S
C311 C313 1.327 . S
C311 H334 0.950 . S
C312 C311 1.349 . S
C312 C324 1.349 . S
C313 C311 1.327 . S
C313 C329 1.429 . S
C313 H335 0.950 . S
C314 H310 0.949 . S
C314 C322 1.574 . S
C314 C330 1.368 . S
H315 C323 0.950 . S
H316 C321 0.950 . S
H317 C322 0.949 . S
H318 C324 0.950 . S
H319 C325 0.950 . S
H320 C326 0.949 . S
C321 H316 0.950 . S
C321 C323 1.327 . S
C321 C327 1.429 . S
C322 C314 1.574 . S
C322 H317 0.949 . S
C322 C328 1.368 . S
C323 C307 1.349 . S
C323 H315 0.950 . S
C323 C321 1.327 . S
C324 C312 1.349 . S
C324 H318 0.950 . S
C324 C325 1.327 . S
C325 H319 0.950 . S
C325 C324 1.327 . S
C325 C329 1.429 . S
C326 C309 1.574 . S
C326 H320 0.949 . S
C326 C330 1.368 . S
C327 C308 1.429 . S
C327 C321 1.429 . S
C327 C328 1.523 . S
C328 C309 1.368 . S
C328 C322 1.368 . S
C328 C327 1.523 . S
C329 C313 1.429 . S
C329 C325 1.429 . S
C329 C330 1.523 . S
C330 C314 1.368 . S
C330 C326 1.368 . S
C330 C329 1.523 . S
H331 C306 0.950 . S
H332 C308 0.950 . S
H333 C309 0.949 . S
H334 C311 0.950 . S
H335 C313 0.950 . S
C336 C337 1.349 . S
C336 C338 1.327 . S
C336 H361 0.950 . S
C337 C336 1.349 . S
C337 C353 1.349 . S
C338 C336 1.327 . S
C338 C357 1.429 . S
C338 H362 0.950 . S
C339 C356 1.574 . S
C339 C358 1.368 . S
C339 H363 0.949 . S
H340 C344 0.949 . S
C341 C342 1.349 . S
C341 C343 1.327 . S
C341 H364 0.950 . S
C342 C341 1.349 . S
C342 C354 1.349 . S
C343 C341 1.327 . S
C343 C359 1.429 . S
C343 H365 0.950 . S
C344 H340 0.949 . S
C344 C352 1.574 . S
C344 C360 1.368 . S
H345 C353 0.950 . S
H346 C351 0.950 . S
H347 C352 0.949 . S
H348 C354 0.950 . S
H349 C355 0.950 . S
H350 C356 0.949 . S
C351 H346 0.950 . S
C351 C353 1.327 . S
C351 C357 1.429 . S
C352 C344 1.574 . S
C352 H347 0.949 . S
C352 C358 1.368 . S
C353 C337 1.349 . S
C353 H345 0.950 . S
C353 C351 1.327 . S
C354 C342 1.349 . S
C354 H348 0.950 . S
C354 C355 1.327 . S
C355 H349 0.950 . S
C355 C354 1.327 . S
C355 C359 1.429 . S
C356 C339 1.574 . S
C356 H350 0.949 . S
C356 C360 1.368 . S
C357 C338 1.429 . S
C357 C351 1.429 . S
C357 C358 1.523 . S
C358 C339 1.368 . S
C358 C352 1.368 . S
C358 C357 1.523 . S
C359 C343 1.429 . S
C359 C355 1.429 . S
C359 C360 1.523 . S
C360 C344 1.368 . S
C360 C356 1.368 . S
C360 C359 1.523 . S
H361 C336 0.950 . S
H362 C338 0.950 . S
H363 C339 0.949 . S
H364 C341 0.950 . S
H365 C343 0.950 . S
C366 C367 1.349 . S
C366 C368 1.327 . S
C366 H391 0.950 . S
C367 C366 1.349 . S
C367 C383 1.349 . S
C368 C366 1.327 . S
C368 C387 1.429 . S
C368 H392 0.950 . S
C369 C386 1.574 . S
C369 C388 1.368 . S
C369 H393 0.949 . S
H370 C374 0.949 . S
C371 C372 1.349 . S
C371 C373 1.327 . S
C371 H394 0.950 . S
C372 C371 1.349 . S
C372 C384 1.349 . S
C373 C371 1.327 . S
C373 C389 1.429 . S
C373 H395 0.950 . S
C374 H370 0.949 . S
C374 C382 1.574 . S
C374 C390 1.368 . S
H375 C383 0.950 . S
H376 C381 0.950 . S
H377 C382 0.949 . S
H378 C384 0.950 . S
H379 C385 0.950 . S
H380 C386 0.949 . S
C381 H376 0.950 . S
C381 C383 1.327 . S
C381 C387 1.429 . S
C382 C374 1.574 . S
C382 H377 0.949 . S
C382 C388 1.368 . S
C383 C367 1.349 . S
C383 H375 0.950 . S
C383 C381 1.327 . S
C384 C372 1.349 . S
C384 H378 0.950 . S
C384 C385 1.327 . S
C385 H379 0.950 . S
C385 C384 1.327 . S
C385 C389 1.429 . S
C386 C369 1.574 . S
C386 H380 0.949 . S
C386 C390 1.368 . S
C387 C368 1.429 . S
C387 C381 1.429 . S
C387 C388 1.523 . S
C388 C369 1.368 . S
C388 C382 1.368 . S
C388 C387 1.523 . S
C389 C373 1.429 . S
C389 C385 1.429 . S
C389 C390 1.523 . S
C390 C374 1.368 . S
C390 C386 1.368 . S
C390 C389 1.523 . S
H391 C366 0.950 . S
H392 C368 0.950 . S
H393 C369 0.949 . S
H394 C371 0.950 . S
H395 C373 0.950 . S
C396 C397 1.349 . S
C396 C398 1.327 . S
C396 H421 0.950 . S
C397 C396 1.349 . S
C397 C413 1.349 . S
C398 C396 1.327 . S
C398 C417 1.429 . S
C398 H422 0.950 . S
C399 C416 1.574 . S
C399 C418 1.368 . S
C399 H423 0.949 . S
H400 C404 0.949 . S
C401 C402 1.349 . S
C401 C403 1.327 . S
C401 H424 0.950 . S
C402 C401 1.349 . S
C402 C414 1.349 . S
C403 C401 1.327 . S
C403 C419 1.429 . S
C403 H425 0.950 . S
C404 H400 0.949 . S
C404 C412 1.574 . S
C404 C420 1.368 . S
H405 C413 0.950 . S
H406 C411 0.950 . S
H407 C412 0.949 . S
H408 C414 0.950 . S
H409 C415 0.950 . S
H410 C416 0.949 . S
C411 H406 0.950 . S
C411 C413 1.327 . S
C411 C417 1.429 . S
C412 C404 1.574 . S
C412 H407 0.949 . S
C412 C418 1.368 . S
C413 C397 1.349 . S
C413 H405 0.950 . S
C413 C411 1.327 . S
C414 C402 1.349 . S
C414 H408 0.950 . S
C414 C415 1.327 . S
C415 H409 0.950 . S
C415 C414 1.327 . S
C415 C419 1.429 . S
C416 C399 1.574 . S
C416 H410 0.949 . S
C416 C420 1.368 . S
C417 C398 1.429 . S
C417 C411 1.429 . S
C417 C418 1.523 . S
C418 C399 1.368 . S
C418 C412 1.368 . S
C418 C417 1.523 . S
C419 C403 1.429 . S
C419 C415 1.429 . S
C419 C420 1.523 . S
C420 C404 1.368 . S
C420 C416 1.368 . S
C420 C419 1.523 . S
H421 C396 0.950 . S
H422 C398 0.950 . S
H423 C399 0.949 . S
H424 C401 0.950 . S
H425 C403 0.950 . S
C426 C427 1.349 . S
C426 C428 1.327 . S
C426 H451 0.950 . S
C427 C426 1.349 . S
C427 C443 1.349 . S
C428 C426 1.327 . S
C428 C447 1.429 . S
C428 H452 0.950 . S
C429 C446 1.574 . S
C429 C448 1.368 . S
C429 H453 0.949 . S
H430 C434 0.949 . S
C431 C432 1.349 . S
C431 C433 1.327 . S
C431 H454 0.950 . S
C432 C431 1.349 . S
C432 C444 1.349 . S
C433 C431 1.327 . S
C433 C449 1.429 . S
C433 H455 0.950 . S
C434 H430 0.949 . S
C434 C442 1.574 . S
C434 C450 1.368 . S
H435 C443 0.950 . S
H436 C441 0.950 . S
H437 C442 0.949 . S
H438 C444 0.950 . S
H439 C445 0.950 . S
H440 C446 0.949 . S
C441 H436 0.950 . S
C441 C443 1.327 . S
C441 C447 1.429 . S
C442 C434 1.574 . S
C442 H437 0.949 . S
C442 C448 1.368 . S
C443 C427 1.349 . S
C443 H435 0.950 . S
C443 C441 1.327 . S
C444 C432 1.349 . S
C444 H438 0.950 . S
C444 C445 1.327 . S
C445 H439 0.950 . S
C445 C444 1.327 . S
C445 C449 1.429 . S
C446 C429 1.574 . S
C446 H440 0.949 . S
C446 C450 1.368 . S
C447 C428 1.429 . S
C447 C441 1.429 . S
C447 C448 1.523 . S
C448 C429 1.368 . S
C448 C442 1.368 . S
C448 C447 1.523 . S
C449 C433 1.429 . S
C449 C445 1.429 . S
C449 C450 1.523 . S
C450 C434 1.368 . S
C450 C446 1.368 . S
C450 C449 1.523 . S
H451 C426 0.950 . S
H452 C428 0.950 . S
H453 C429 0.949 . S
H454 C431 0.950 . S
H455 C433 0.950 . S
C456 C457 1.349 . S
C456 C458 1.327 . S
C456 H481 0.950 . S
C457 C456 1.349 . S
C457 C473 1.349 . S
C458 C456 1.327 . S
C458 C477 1.429 . S
C458 H482 0.950 . S
C459 C476 1.574 . S
C459 C478 1.368 . S
C459 H483 0.949 . S
H460 C464 0.949 . S
C461 C462 1.349 1_545 S
C461 C463 1.327 1_545 S
C461 H484 0.950 . S
C462 C461 1.349 1_565 S
C462 C474 1.349 . S
C463 C461 1.327 1_565 S
C463 C479 1.429 . S
C463 H485 0.950 1_565 S
C464 H460 0.949 . S
C464 C472 1.574 . S
C464 C480 1.368 . S
H465 C473 0.950 . S
H466 C471 0.950 . S
H467 C472 0.949 . S
H468 C474 0.950 . S
H469 C475 0.950 . S
H470 C476 0.949 . S
C471 H466 0.950 . S
C471 C473 1.327 . S
C471 C477 1.429 . S
C472 C464 1.574 . S
C472 H467 0.949 . S
C472 C478 1.368 . S
C473 C457 1.349 . S
C473 H465 0.950 . S
C473 C471 1.327 . S
C474 C462 1.349 . S
C474 H468 0.950 . S
C474 C475 1.327 . S
C475 H469 0.950 . S
C475 C474 1.327 . S
C475 C479 1.429 . S
C476 C459 1.574 . S
C476 H470 0.949 . S
C476 C480 1.368 . S
C477 C458 1.429 . S
C477 C471 1.429 . S
C477 C478 1.523 . S
C478 C459 1.368 . S
C478 C472 1.368 . S
C478 C477 1.523 . S
C479 C463 1.429 . S
C479 C475 1.429 . S
C479 C480 1.523 . S
C480 C464 1.368 . S
C480 C476 1.368 . S
C480 C479 1.523 . S
H481 C456 0.950 . S
H482 C458 0.950 . S
H483 C459 0.949 . S
H484 C461 0.950 . S
H485 C463 0.950 1_545 S
C486 C487 1.349 . S
C486 C488 1.327 . S
C486 H511 0.950 . S
C487 C486 1.349 . S
C487 C503 1.349 . S
C488 C486 1.327 . S
C488 C507 1.429 . S
C488 H512 0.950 . S
C489 C506 1.574 . S
C489 C508 1.368 . S
C489 H513 0.949 . S
H490 C494 0.949 . S
C491 C492 1.349 . S
C491 C493 1.327 . S
C491 H514 0.950 . S
C492 C491 1.349 . S
C492 C504 1.349 . S
C493 C491 1.327 . S
C493 C509 1.429 . S
C493 H515 0.950 . S
C494 H490 0.949 . S
C494 C502 1.574 . S
C494 C510 1.368 . S
H495 C503 0.950 . S
H496 C501 0.950 . S
H497 C502 0.949 . S
H498 C504 0.950 . S
H499 C505 0.950 . S
H500 C506 0.949 . S
C501 H496 0.950 . S
C501 C503 1.327 . S
C501 C507 1.429 . S
C502 C494 1.574 . S
C502 H497 0.949 . S
C502 C508 1.368 . S
C503 C487 1.349 . S
C503 H495 0.950 . S
C503 C501 1.327 . S
C504 C492 1.349 . S
C504 H498 0.950 . S
C504 C505 1.327 . S
C505 H499 0.950 . S
C505 C504 1.327 . S
C505 C509 1.429 . S
C506 C489 1.574 . S
C506 H500 0.949 . S
C506 C510 1.368 . S
C507 C488 1.429 . S
C507 C501 1.429 . S
C507 C508 1.523 . S
C508 C489 1.368 . S
C508 C502 1.368 . S
C508 C507 1.523 . S
C509 C493 1.429 . S
C509 C505 1.429 . S
C509 C510 1.523 . S
C510 C494 1.368 . S
C510 C506 1.368 . S
C510 C509 1.523 . S
H511 C486 0.950 . S
H512 C488 0.950 . S
H513 C489 0.949 . S
H514 C491 0.950 . S
H515 C493 0.950 . S
C516 C517 1.349 . S
C516 C518 1.327 . S
C516 H541 0.950 1_655 S
C517 C516 1.349 . S
C517 C533 1.349 . S
C518 C516 1.327 . S
C518 C537 1.429 . S
C518 H542 0.950 . S
C519 C536 1.574 . S
C519 C538 1.368 . S
C519 H543 0.949 . S
H520 C524 0.949 . S
C521 C522 1.349 . S
C521 C523 1.327 . S
C521 H544 0.950 . S
C522 C521 1.349 . S
C522 C534 1.349 . S
C523 C521 1.327 . S
C523 C539 1.429 . S
C523 H545 0.950 . S
C524 H520 0.949 . S
C524 C532 1.574 . S
C524 C540 1.368 . S
H525 C533 0.950 . S
H526 C531 0.950 . S
H527 C532 0.949 . S
H528 C534 0.950 . S
H529 C535 0.950 . S
H530 C536 0.949 . S
C531 H526 0.950 . S
C531 C533 1.327 . S
C531 C537 1.429 . S
C532 C524 1.574 . S
C532 H527 0.949 . S
C532 C538 1.368 . S
C533 C517 1.349 . S
C533 H525 0.950 . S
C533 C531 1.327 . S
C534 C522 1.349 . S
C534 H528 0.950 . S
C534 C535 1.327 . S
C535 H529 0.950 . S
C535 C534 1.327 . S
C535 C539 1.429 . S
C536 C519 1.574 . S
C536 H530 0.949 . S
C536 C540 1.368 . S
C537 C518 1.429 . S
C537 C531 1.429 . S
C537 C538 1.523 . S
C538 C519 1.368 . S
C538 C532 1.368 . S
C538 C537 1.523 . S
C539 C523 1.429 . S
C539 C535 1.429 . S
C539 C540 1.523 . S
C540 C524 1.368 . S
C540 C536 1.368 . S
C540 C539 1.523 . S
H541 C516 0.950 1_455 S
H542 C518 0.950 . S
H543 C519 0.949 . S
H544 C521 0.950 . S
H545 C523 0.950 . S
C546 C547 1.349 . S
C546 C548 1.327 . S
C546 H571 0.950 . S
C547 C546 1.349 . S
C547 C563 1.349 . S
C548 C546 1.327 . S
C548 C567 1.429 . S
C548 H572 0.950 . S
C549 C566 1.574 . S
C549 C568 1.368 . S
C549 H573 0.949 . S
H550 C554 0.949 . S
C551 C552 1.349 . S
C551 C553 1.327 . S
C551 H574 0.950 . S
C552 C551 1.349 . S
C552 C564 1.349 . S
C553 C551 1.327 . S
C553 C569 1.429 . S
C553 H575 0.950 . S
C554 H550 0.949 . S
C554 C562 1.574 . S
C554 C570 1.368 . S
H555 C563 0.950 . S
H556 C561 0.950 . S
H557 C562 0.949 . S
H558 C564 0.950 . S
H559 C565 0.950 . S
H560 C566 0.949 . S
C561 H556 0.950 . S
C561 C563 1.327 . S
C561 C567 1.429 . S
C562 C554 1.574 . S
C562 H557 0.949 . S
C562 C568 1.368 . S
C563 C547 1.349 . S
C563 H555 0.950 . S
C563 C561 1.327 . S
C564 C552 1.349 . S
C564 H558 0.950 . S
C564 C565 1.327 . S
C565 H559 0.950 . S
C565 C564 1.327 . S
C565 C569 1.429 . S
C566 C549 1.574 . S
C566 H560 0.949 . S
C566 C570 1.368 . S
C567 C548 1.429 . S
C567 C561 1.429 . S
C567 C568 1.523 . S
C568 C549 1.368 . S
C568 C562 1.368 . S
C568 C567 1.523 . S
C569 C553 1.429 . S
C569 C565 1.429 . S
C569 C570 1.523 . S
C570 C554 1.368 . S
C570 C566 1.368 . S
C570 C569 1.523 . S
H571 C546 0.950 . S
H572 C548 0.950 . S
H573 C549 0.949 . S
H574 C551 0.950 . S
H575 C553 0.950 . S
C576 C577 1.349 . S
C576 C578 1.327 . S
C576 H601 0.950 . S
C577 C576 1.349 . S
C577 C593 1.349 . S
C578 C576 1.327 . S
C578 C597 1.429 . S
C578 H602 0.950 . S
C579 C596 1.574 1_455 S
C579 C598 1.368 . S
C579 H603 0.949 . S
H580 C584 0.949 . S
C581 C582 1.349 . S
C581 C583 1.327 . S
C581 H604 0.950 . S
C582 C581 1.349 . S
C582 C594 1.349 . S
C583 C581 1.327 . S
C583 C599 1.429 . S
C583 H605 0.950 . S
C584 H580 0.949 . S
C584 C592 1.574 . S
C584 C600 1.368 . S
H585 C593 0.950 . S
H586 C591 0.950 . S
H587 C592 0.949 . S
H588 C594 0.950 . S
H589 C595 0.923 1_455 S
H590 C596 0.949 . S
C591 H586 0.950 . S
C591 C593 1.327 . S
C591 C597 1.429 . S
C592 C584 1.574 . S
C592 H587 0.949 . S
C592 C598 1.368 . S
C593 C577 1.349 . S
C593 H585 0.950 . S
C593 C591 1.327 . S
C594 C582 1.349 . S
C594 H588 0.950 . S
C594 C595 1.327 . S
C595 H589 0.923 1_655 S
C595 C594 1.327 . S
C595 C599 1.429 . S
C596 C579 1.574 1_655 S
C596 H590 0.949 . S
C596 C600 1.368 1_655 S
C597 C578 1.429 . S
C597 C591 1.429 . S
C597 C598 1.523 . S
C598 C579 1.368 . S
C598 C592 1.368 . S
C598 C597 1.523 . S
C599 C583 1.429 . S
C599 C595 1.429 . S
C599 C600 1.523 1_655 S
C600 C584 1.368 . S
C600 C596 1.368 1_455 S
C600 C599 1.523 1_455 S
H601 C576 0.950 . S
H602 C578 0.950 . S
H603 C579 0.949 . S
H604 C581 0.950 . S
H605 C583 0.950 . S
C606 C607 1.349 . S
C606 C608 1.327 . S
C606 H631 0.950 . S
C607 C606 1.349 . S
C607 C623 1.349 . S
C608 C606 1.327 . S
C608 C627 1.429 . S
C608 H632 0.950 . S
C609 C626 1.574 . S
C609 C628 1.368 . S
C609 H633 0.949 . S
H610 C614 0.949 . S
C611 C612 1.349 . S
C611 C613 1.327 . S
C611 H634 0.950 . S
C612 C611 1.349 . S
C612 C624 1.349 . S
C613 C611 1.327 . S
C613 C629 1.429 . S
C613 H635 0.950 . S
C614 H610 0.949 . S
C614 C622 1.574 . S
C614 C630 1.368 . S
H615 C623 0.950 . S
H616 C621 0.950 . S
H617 C622 0.949 . S
H618 C624 0.950 . S
H619 C625 0.950 . S
H620 C626 0.949 . S
C621 H616 0.950 . S
C621 C623 1.327 . S
C621 C627 1.429 . S
C622 C614 1.574 . S
C622 H617 0.949 . S
C622 C628 1.368 . S
C623 C607 1.349 . S
C623 H615 0.950 . S
C623 C621 1.327 . S
C624 C612 1.349 . S
C624 H618 0.950 . S
C624 C625 1.327 . S
C625 H619 0.950 . S
C625 C624 1.327 . S
C625 C629 1.429 . S
C626 C609 1.574 . S
C626 H620 0.949 . S
C626 C630 1.368 . S
C627 C608 1.429 . S
C627 C621 1.429 . S
C627 C628 1.523 . S
C628 C609 1.368 . S
C628 C622 1.368 . S
C628 C627 1.523 . S
C629 C613 1.429 . S
C629 C625 1.429 . S
C629 C630 1.523 . S
C630 C614 1.368 . S
C630 C626 1.368 . S
C630 C629 1.523 . S
H631 C606 0.950 . S
H632 C608 0.950 . S
H633 C609 0.949 . S
H634 C611 0.950 . S
H635 C613 0.950 . S
C636 C637 1.349 . S
C636 C638 1.327 . S
C636 H661 0.950 . S
C637 C636 1.349 . S
C637 C653 1.349 . S
C638 C636 1.327 . S
C638 C657 1.429 . S
C638 H662 0.970 . S
C639 C656 1.574 1_565 S
C639 C658 1.368 . S
C639 H663 0.949 . S
H640 C644 0.949 . S
C641 C642 1.349 . S
C641 C643 1.327 . S
C641 H664 0.950 . S
C642 C641 1.349 . S
C642 C654 1.349 . S
C643 C641 1.327 . S
C643 C659 1.429 . S
C643 H665 0.950 . S
C644 H640 0.949 . S
C644 C652 1.574 . S
C644 C660 1.368 . S
H645 C653 0.950 . S
H646 C651 0.950 . S
H647 C652 0.949 . S
H648 C654 0.950 . S
H649 C655 0.950 . S
H650 C656 0.949 . S
C651 H646 0.950 . S
C651 C653 1.327 . S
C651 C657 1.429 . S
C652 C644 1.574 . S
C652 H647 0.949 . S
C652 C658 1.368 1_545 S
C653 C637 1.349 . S
C653 H645 0.950 . S
C653 C651 1.327 . S
C654 C642 1.349 . S
C654 H648 0.950 . S
C654 C655 1.327 . S
C655 H649 0.950 . S
C655 C654 1.327 . S
C655 C659 1.429 . S
C656 C639 1.574 1_545 S
C656 H650 0.949 . S
C656 C660 1.368 . S
C657 C638 1.429 . S
C657 C651 1.429 . S
C657 C658 1.523 . S
C658 C639 1.368 . S
C658 C652 1.368 1_565 S
C658 C657 1.523 . S
C659 C643 1.429 . S
C659 C655 1.429 . S
C659 C660 1.523 . S
C660 C644 1.368 . S
C660 C656 1.368 . S
C660 C659 1.523 . S
H661 C636 0.950 . S
H662 C638 0.970 . S
H663 C639 0.949 . S
H664 C641 0.950 . S
H665 C643 0.950 . S
C127 C37 0.850 . S
C132 C3 0.857 . S
C157 C23 0.864 . S
C162 C9 0.863 . S
C187 C17 0.895 . S
C192 C31 0.896 . S
C217 C73 0.853 . S
C222 C51 0.845 . S
C247 C65 0.834 . S
C252 C45 0.840 . S
C277 C59 0.864 . S
C282 C79 0.856 . S
C307 C87 0.845 . S
C312 C121 0.839 . S
C337 C93 0.803 . S
C342 C107 0.804 . S
C367 C101 0.829 . S
C372 C115 0.830 . S
C397 C8 1.354 . S
C402 C106 1.355 . S
C427 C21 1.365 . S
C432 C119 1.368 . S
C457 C91 1.347 . S
C462 C36 1.372 . S
C487 C63 1.326 . S
C492 C35 1.326 . S
C517 C7 1.348 . S
C522 C77 1.347 . S
C547 C49 1.362 . S
C552 C22 1.383 . S
C577 C105 1.341 . S
C582 C78 1.365 . S
C607 C50 1.375 . S
C612 C120 1.374 . S
C637 C92 1.394 . S
C642 C64 1.394 . S
