# Generated by pormake.
# Topology vby, (6)-cn, num edge types: 1
# Building blocks:
#     Node 0, Type 0, BuildingBlock: VOLQOD_clean_sbu_1, # of connection points: 6
#     Node 1, Type 0, BuildingBlock: VOLQOD_clean_sbu_1, # of connection points: 6
#     Node 2, Type 0, BuildingBlock: VOLQOD_clean_sbu_1, # of connection points: 6
#     Node 3, Type 0, BuildingBlock: VOLQOD_clean_sbu_1, # of connection points: 6
#     Node 4, Type 0, BuildingBlock: VOLQOD_clean_sbu_1, # of connection points: 6
#     Node 5, Type 0, BuildingBlock: VOLQOD_clean_sbu_1, # of connection points: 6
#     Node 6, Type 0, BuildingBlock: VOLQOD_clean_sbu_1, # of connection points: 6
#     Node 7, Type 0, BuildingBlock: VOLQOD_clean_sbu_1, # of connection points: 6
#     Edge 8, Type (0, 0), BuildingBlock: UVAHIK_clean_linker_0, # of connection points: 2
#     Edge 9, Type (0, 0), BuildingBlock: UVAHIK_clean_linker_0, # of connection points: 2
#     Edge 10, Type (0, 0), BuildingBlock: UVAHIK_clean_linker_0, # of connection points: 2
#     Edge 11, Type (0, 0), BuildingBlock: UVAHIK_clean_linker_0, # of connection points: 2
#     Edge 12, Type (0, 0), BuildingBlock: UVAHIK_clean_linker_0, # of connection points: 2
#     Edge 13, Type (0, 0), BuildingBlock: UVAHIK_clean_linker_0, # of connection points: 2
#     Edge 14, Type (0, 0), BuildingBlock: UVAHIK_clean_linker_0, # of connection points: 2
#     Edge 15, Type (0, 0), BuildingBlock: UVAHIK_clean_linker_0, # of connection points: 2
#     Edge 16, Type (0, 0), BuildingBlock: UVAHIK_clean_linker_0, # of connection points: 2
#     Edge 17, Type (0, 0), BuildingBlock: UVAHIK_clean_linker_0, # of connection points: 2
#     Edge 18, Type (0, 0), BuildingBlock: UVAHIK_clean_linker_0, # of connection points: 2
#     Edge 19, Type (0, 0), BuildingBlock: UVAHIK_clean_linker_0, # of connection points: 2
#     Edge 20, Type (0, 0), BuildingBlock: UVAHIK_clean_linker_0, # of connection points: 2
#     Edge 21, Type (0, 0), BuildingBlock: UVAHIK_clean_linker_0, # of connection points: 2
#     Edge 22, Type (0, 0), BuildingBlock: UVAHIK_clean_linker_0, # of connection points: 2
#     Edge 23, Type (0, 0), BuildingBlock: UVAHIK_clean_linker_0, # of connection points: 2
#     Edge 24, Type (0, 0), BuildingBlock: UVAHIK_clean_linker_0, # of connection points: 2
#     Edge 25, Type (0, 0), BuildingBlock: UVAHIK_clean_linker_0, # of connection points: 2
#     Edge 26, Type (0, 0), BuildingBlock: UVAHIK_clean_linker_0, # of connection points: 2
#     Edge 27, Type (0, 0), BuildingBlock: UVAHIK_clean_linker_0, # of connection points: 2
#     Edge 28, Type (0, 0), BuildingBlock: UVAHIK_clean_linker_0, # of connection points: 2
#     Edge 29, Type (0, 0), BuildingBlock: UVAHIK_clean_linker_0, # of connection points: 2
#     Edge 30, Type (0, 0), BuildingBlock: UVAHIK_clean_linker_0, # of connection points: 2
#     Edge 31, Type (0, 0), BuildingBlock: UVAHIK_clean_linker_0, # of connection points: 2
# Relax obj value: 0.082
# Max RMSD: 0.107
# Mean RMSD: 0.107
data_MOF--net-vby--node1-VOLQOD_clean_sbu_1--edge1-UVAHIK_clean_linker_0
_symmetry_space_group_name_H-M    P1
_symmetry_Int_Tables_number       1
_symmetry_cell_setting            triclinic
loop_
_symmetry_equiv_pos_as_xyz
'x, y, z'
_cell_length_a     21.366373
_cell_length_b     81.826796
_cell_length_c     42.421945
_cell_angle_alpha  89.951712
_cell_angle_beta   90.134832
_cell_angle_gamma 90.031298
loop_
_atom_site_label
_atom_site_type_symbol
_atom_site_fract_x
_atom_site_fract_y
_atom_site_fract_z
_atom_type_partial_charge
O0 O 0.18357 0.37643 0.01022 0.0
Zn1 Zn 0.08999 0.37761 0.00565 0.0
O2 O 0.04863 0.36599 0.04 0.0
Zn3 Zn 0.00642 0.34656 0.02312 0.0
Zn4 Zn 0.1098 0.35955 0.07147 0.0
Zn5 Zn -0.01053 0.38051 0.06032 0.0
O6 O 0.914 0.34729 0.03265 0.0
O7 O 0.9037 0.37144 0.05617 0.0
O8 O 0.06566 0.36822 0.96378 0.0
O9 O 0.01187 0.34586 0.97578 0.0
O10 O 0.04542 0.32579 0.03992 0.0
O11 O 0.11669 0.33523 0.07344 0.0
O12 O 0.08947 0.36765 0.11493 0.0
O13 O 0.06465 0.40129 0.00444 0.0
O14 O 0.00586 0.38306 0.10663 0.0
O15 O -0.0094 0.40283 0.04088 0.0
C16 C 0.21768 0.37301 0.03397 0.0
C17 C 0.88032 0.35828 0.04541 0.0
C18 C 0.08929 0.32337 0.05979 0.0
C19 C 0.03543 0.35552 0.9555 0.0
C20 C 0.04677 0.37708 0.12514 0.0
C21 C 0.0234 0.40941 0.01932 0.0
O22 O 0.19457 0.36756 0.05951 0.0
O23 O 0.78261 0.6136 0.00942 0.0
Zn24 Zn 0.87549 0.61316 0.00292 0.0
O25 O 0.91848 0.62454 0.03722 0.0
Zn26 Zn 0.96064 0.64399 0.02047 0.0
Zn27 Zn 0.85895 0.63081 0.06956 0.0
Zn28 Zn 0.97839 0.60992 0.05669 0.0
O29 O 0.05338 0.64319 0.02913 0.0
O30 O 0.06388 0.61901 0.05257 0.0
O31 O 0.8934 0.6237 0.96116 0.0
O32 O 0.95215 0.64516 0.97332 0.0
O33 O 0.92296 0.66465 0.03832 0.0
O34 O 0.85248 0.65513 0.07205 0.0
O35 O 0.88159 0.62247 0.11269 0.0
O36 O 0.90283 0.58959 -6e-05 0.0
O37 O 0.96402 0.60691 0.10295 0.0
O38 O 0.97696 0.58788 0.03651 0.0
C39 C 0.74946 0.61712 0.03334 0.0
C40 C 0.08714 0.63217 0.04182 0.0
C41 C 0.87985 0.66703 0.05853 0.0
C42 C 0.92437 0.6363 0.953 0.0
C43 C 0.92452 0.61286 0.12212 0.0
C44 C 0.94449 0.58144 0.01462 0.0
O45 O 0.77347 0.62287 0.05846 0.0
O46 O 0.17395 0.61019 0.56874 0.0
Zn47 Zn 0.08036 0.61018 0.57433 0.0
O48 O 0.03901 0.62157 0.53948 0.0
Zn49 Zn -0.00274 0.64139 0.55501 0.0
Zn50 Zn 0.10071 0.62719 0.50786 0.0
Zn51 Zn 0.97882 0.60721 0.5196 0.0
O52 O 0.90421 0.64082 0.54597 0.0
O53 O 0.89337 0.61636 0.52379 0.0
O54 O 0.06146 0.62111 0.61556 0.0
O55 O 0.00459 0.64274 0.60223 0.0
O56 O 0.03801 0.66181 0.53722 0.0
O57 O 0.11265 0.65131 0.50699 0.0
O58 O 0.07705 0.6198 0.46423 0.0
O59 O 0.05099 0.58674 0.57744 0.0
O60 O -0.00661 0.60455 0.47329 0.0
O61 O 0.97945 0.58511 0.53954 0.0
C62 C 0.20777 0.61283 0.54459 0.0
C63 C 0.8702 0.62965 0.53391 0.0
C64 C 0.08515 0.66356 0.51912 0.0
C65 C 0.03106 0.6339 0.62305 0.0
C66 C 0.03334 0.61055 0.45438 0.0
C67 C 0.01011 0.57865 0.56206 0.0
O68 O 0.18452 0.6181 0.5189 0.0
O69 O 0.7748 0.37211 0.56078 0.0
Zn70 Zn 0.86572 0.37439 0.57142 0.0
O71 O 0.91636 0.36239 0.54101 0.0
Zn72 Zn 0.95506 0.34341 0.56136 0.0
Zn73 Zn 0.86536 0.35476 0.50612 0.0
Zn74 Zn 0.97944 0.37707 0.52461 0.0
O75 O 0.04858 0.34417 0.55666 0.0
O76 O 0.06355 0.36916 0.53724 0.0
O77 O 0.87939 0.36558 0.61504 0.0
O78 O 0.93831 0.34354 0.60801 0.0
O79 O 0.92224 0.32217 0.54398 0.0
O80 O 0.86541 0.33038 0.50318 0.0
O81 O 0.89331 0.3638 0.46452 0.0
O82 O 0.88756 0.39833 0.57298 0.0
O83 O 0.97663 0.37857 0.47727 0.0
O84 O 0.96997 0.39972 0.54148 0.0
C85 C 0.74653 0.36644 0.53671 0.0
C86 C 0.08451 0.35582 0.54843 0.0
C87 C 0.88771 0.31901 0.52025 0.0
C88 C 0.90847 0.35323 0.62598 0.0
C89 C 0.93911 0.37287 0.45668 0.0
C90 C 0.93141 0.40648 0.56016 0.0
O91 O 0.77604 0.36021 0.51367 0.0
O92 O 0.68922 0.87641 0.01331 0.0
Zn93 Zn 0.59707 0.87795 0.00631 0.0
O94 O 0.55325 0.86675 0.04045 0.0
Zn95 Zn 0.50966 0.84761 0.02357 0.0
Zn96 Zn 0.61093 0.85973 0.07314 0.0
Zn97 Zn 0.49507 0.88186 0.05944 0.0
O98 O 0.41729 0.84936 0.03096 0.0
O99 O 0.40882 0.8743 0.0512 0.0
O100 O 0.57816 0.8677 0.96425 0.0
O101 O 0.51935 0.84631 0.97662 0.0
O102 O 0.54359 0.82656 0.04144 0.0
O103 O 0.61392 0.83535 0.07601 0.0
O104 O 0.58877 0.86827 0.11612 0.0
O105 O 0.57395 0.90183 0.00361 0.0
O106 O 0.50528 0.88349 0.10634 0.0
O107 O 0.50282 0.9043 0.04126 0.0
C108 C 0.72217 0.87199 0.03684 0.0
C109 C 0.38417 0.86122 0.04081 0.0
C110 C 0.58558 0.82374 0.06209 0.0
C111 C 0.54706 0.8551 0.95621 0.0
C112 C 0.54475 0.87749 0.12561 0.0
C113 C 0.53539 0.91048 0.0192 0.0
O114 O 0.69747 0.86633 0.06183 0.0
O115 O 0.29968 0.11517 0.0121 0.0
Zn116 Zn 0.3924 0.11429 0.00455 0.0
O117 O 0.43766 0.12591 0.0378 0.0
Zn118 Zn 0.47767 0.14537 0.01993 0.0
Zn119 Zn 0.38029 0.13229 0.07105 0.0
Zn120 Zn 0.49979 0.11154 0.05632 0.0
O121 O 0.5705 0.1452 0.02808 0.0
O122 O 0.58465 0.12121 0.05176 0.0
O123 O 0.40861 0.12438 0.96219 0.0
O124 O 0.46762 0.146 0.97287 0.0
O125 O 0.43924 0.166 0.03729 0.0
O126 O 0.37426 0.15664 0.07384 0.0
O127 O 0.40451 0.12354 0.1136 0.0
O128 O 0.41965 0.0907 0.00187 0.0
O129 O 0.48674 0.10811 0.10264 0.0
O130 O 0.49884 0.08955 0.03577 0.0
C131 C 0.26796 0.11909 0.0363 0.0
C132 C 0.60597 0.13453 0.04069 0.0
C133 C 0.39883 0.16847 0.05881 0.0
C134 C 0.43915 0.1369 0.9532 0.0
C135 C 0.44772 0.11384 0.12233 0.0
C136 C 0.4639 0.08284 0.01516 0.0
O137 O 0.29376 0.12482 0.06098 0.0
O138 O 0.68535 0.10977 0.56817 0.0
Zn139 Zn 0.59226 0.10942 0.57406 0.0
O140 O 0.54999 0.12033 0.53898 0.0
Zn141 Zn 0.50666 0.13981 0.55463 0.0
Zn142 Zn 0.61054 0.12654 0.50716 0.0
Zn143 Zn 0.49137 0.10538 0.51931 0.0
O144 O 0.41437 0.13865 0.54525 0.0
O145 O 0.40521 0.11416 0.52295 0.0
O146 O 0.5731 0.12034 0.61524 0.0
O147 O 0.5133 0.14138 0.60178 0.0
O148 O 0.54459 0.16045 0.53674 0.0
O149 O 0.61765 0.15083 0.5046 0.0
O150 O 0.58893 0.11822 0.46402 0.0
O151 O 0.56497 0.08591 0.5778 0.0
O152 O 0.50697 0.10234 0.47306 0.0
O153 O 0.49346 0.08343 0.54007 0.0
C154 C 0.71892 0.11294 0.5442 0.0
C155 C 0.38123 0.12737 0.53301 0.0
C156 C 0.5892 0.16277 0.51735 0.0
C157 C 0.54106 0.13286 0.62265 0.0
C158 C 0.54677 0.10848 0.45422 0.0
C159 C 0.52483 0.0774 0.56281 0.0
O160 O 0.69544 0.11846 0.51876 0.0
O161 O 0.28952 0.87346 0.57084 0.0
Zn162 Zn 0.38273 0.87388 0.57692 0.0
O163 O 0.42525 0.86277 0.54236 0.0
Zn164 Zn 0.46736 0.84307 0.55829 0.0
Zn165 Zn 0.36452 0.85701 0.51022 0.0
Zn166 Zn 0.48502 0.87747 0.52313 0.0
O167 O 0.55987 0.84367 0.54874 0.0
O168 O 0.5705 0.86828 0.52703 0.0
O169 O 0.40224 0.86318 0.61827 0.0
O170 O 0.46145 0.8419 0.60566 0.0
O171 O 0.42691 0.82257 0.54068 0.0
O172 O 0.35371 0.83284 0.50907 0.0
O173 O 0.38848 0.86472 0.46683 0.0
O174 O 0.41019 0.89739 0.58028 0.0
O175 O 0.47031 0.88052 0.47684 0.0
O176 O 0.48385 0.89944 0.5437 0.0
C177 C 0.25624 0.87084 0.54644 0.0
C178 C 0.59367 0.85489 0.53677 0.0
C179 C 0.38085 0.82069 0.52185 0.0
C180 C 0.43411 0.85069 0.62619 0.0
C181 C 0.43134 0.87438 0.45751 0.0
C182 C 0.45158 0.90569 0.56579 0.0
O183 O 0.28011 0.86579 0.52081 0.0
C184 C 0.31609 0.37102 0.00268 0.0
C185 C 0.28607 0.37413 0.03148 0.0
C186 C 0.38124 0.36975 0.00151 0.0
C187 C 0.50988 0.35445 0.01831 0.0
H188 H 0.61858 0.38764 0.05385 0.0
C189 C 0.78076 0.34953 0.01973 0.0
C190 C 0.81191 0.3567 0.04538 0.0
C191 C 0.71586 0.35105 0.01676 0.0
C192 C 0.58884 0.37813 0.04427 0.0
H193 H 0.29998 0.37925 0.08115 0.0
H194 H 0.4139 0.37757 0.07884 0.0
H195 H 0.50673 0.39287 0.04939 0.0
H196 H 0.80011 0.36978 0.08934 0.0
H197 H 0.68686 0.3717 0.0851 0.0
H198 H 0.59135 0.3394 0.01441 0.0
C199 C 0.3871 0.37589 0.05737 0.0
C200 C 0.52503 0.38123 0.04143 0.0
C201 C 0.32212 0.3768 0.05869 0.0
C202 C 0.77706 0.36432 0.06914 0.0
C203 C 0.71233 0.36557 0.0665 0.0
C204 C 0.57374 0.35123 0.02158 0.0
C205 C 0.41698 0.37199 0.02896 0.0
C206 C 0.48506 0.36936 0.02877 0.0
C207 C 0.68127 0.35955 0.03967 0.0
C208 C 0.61376 0.36296 0.03505 0.0
H209 H 0.28917 0.3688 0.98144 0.0
H210 H 0.40365 0.36678 0.97936 0.0
H211 H 0.47951 0.34506 0.00878 0.0
H212 H 0.80685 0.34369 0.00099 0.0
H213 H 0.69341 0.34629 -0.00422 0.0
C214 C 0.18978 0.62669 0.06677 0.0
C215 C 0.15543 0.63379 0.04213 0.0
C216 C 0.25453 0.62542 0.06472 0.0
C217 C 0.3938 0.63877 0.01953 0.0
H218 H 0.46025 0.59774 0.05114 0.0
C219 C 0.6504 0.6183 0.0023 0.0
C220 C 0.68103 0.61591 0.03128 0.0
C221 C 0.5853 0.61954 0.00119 0.0
C222 C 0.4421 0.6092 0.04215 0.0
H223 H 0.16119 0.64586 -0.00323 0.0
H224 H 0.27476 0.64317 0.99259 0.0
H225 H 0.34841 0.60312 0.05468 0.0
H226 H 0.66817 0.61201 0.08141 0.0
H227 H 0.55413 0.61367 0.07925 0.0
H228 H 0.48813 0.64458 0.00654 0.0
C229 C 0.25192 0.63887 0.01379 0.0
C230 C 0.37831 0.6124 0.04445 0.0
C231 C 0.18699 0.64043 0.01615 0.0
C232 C 0.64556 0.61391 0.05881 0.0
C233 C 0.58054 0.61481 0.05758 0.0
C234 C 0.45762 0.63544 0.0168 0.0
C235 C 0.28607 0.63088 0.03765 0.0
C236 C 0.3536 0.62736 0.03378 0.0
C237 C 0.55015 0.61803 0.02891 0.0
C238 C 0.48219 0.62075 0.02858 0.0
H239 H 0.16631 0.62166 0.08721 0.0
H240 H 0.27965 0.61971 0.084 0.0
H241 H 0.37636 0.65044 0.01127 0.0
H242 H 0.67684 0.61998 0.98078 0.0
H243 H 0.56245 0.62197 0.97884 0.0
C244 C 0.7672 0.62377 0.50955 0.0
C245 C 0.80174 0.63121 0.53374 0.0
C246 C 0.70252 0.62228 0.51195 0.0
C247 C 0.56306 0.63543 0.55736 0.0
H248 H 0.49835 0.59392 0.5273 0.0
C249 C 0.30681 0.61466 0.57571 0.0
C250 C 0.27626 0.61147 0.54699 0.0
C251 C 0.37194 0.6161 0.57672 0.0
C252 C 0.51595 0.60552 0.53585 0.0
H253 H 0.79614 0.64364 0.57868 0.0
H254 H 0.6827 0.64061 0.58347 0.0
H255 H 0.60978 0.59973 0.5231 0.0
H256 H 0.28949 0.60633 0.49733 0.0
H257 H 0.4034 0.60833 0.49934 0.0
H258 H 0.4686 0.64098 0.57052 0.0
C259 C 0.70537 0.6362 0.56233 0.0
C260 C 0.57956 0.60896 0.53317 0.0
C261 C 0.77026 0.63797 0.55961 0.0
C262 C 0.31196 0.60882 0.51974 0.0
C263 C 0.37699 0.60993 0.52089 0.0
C264 C 0.4994 0.63187 0.56044 0.0
C265 C 0.67112 0.62785 0.53896 0.0
C266 C 0.60372 0.62409 0.54327 0.0
C267 C 0.40732 0.614 0.54919 0.0
C268 C 0.47532 0.617 0.54921 0.0
H269 H 0.79053 0.61861 0.4892 0.0
H270 H 0.67736 0.61629 0.493 0.0
H271 H 0.58 0.64722 0.56521 0.0
H272 H 0.28027 0.61687 0.59701 0.0
H273 H 0.39461 0.61916 0.59881 0.0
C274 C 0.64823 0.35287 0.51957 0.0
C275 C 0.67798 0.36518 0.53712 0.0
C276 C 0.58424 0.3502 0.52269 0.0
C277 C 0.45188 0.35901 0.57638 0.0
H278 H 0.35206 0.34614 0.50402 0.0
C279 C 0.18746 0.368 0.56096 0.0
C280 C 0.15223 0.3542 0.55251 0.0
C281 C 0.25228 0.36704 0.56287 0.0
C282 C 0.37979 0.34944 0.52447 0.0
H283 H 0.66415 0.38481 0.57062 0.0
H284 H 0.55144 0.38077 0.57482 0.0
H285 H 0.46426 0.3503 0.49787 0.0
H286 H 0.15595 0.32854 0.54012 0.0
H287 H 0.2709 0.32705 0.54213 0.0
H288 H 0.36585 0.35918 0.60227 0.0
C289 C 0.57792 0.37273 0.55961 0.0
C290 C 0.44394 0.35184 0.52103 0.0
C291 C 0.64227 0.37519 0.55696 0.0
C292 C 0.18248 0.33929 0.54674 0.0
C293 C 0.24774 0.33844 0.54786 0.0
C294 C 0.38751 0.35692 0.57962 0.0
C295 C 0.5484 0.35999 0.54296 0.0
C296 C 0.48062 0.35685 0.54686 0.0
C297 C 0.28278 0.35237 0.55569 0.0
C298 C 0.35118 0.35228 0.5536 0.0
H299 H 0.6748 0.34481 0.5044 0.0
H300 H 0.56334 0.34013 0.50988 0.0
H301 H 0.47893 0.36246 0.59693 0.0
H302 H 0.16489 0.37959 0.56575 0.0
H303 H 0.27879 0.37793 0.56866 0.0
C304 C 0.81967 0.87579 0.00529 0.0
C305 C 0.79073 0.87173 0.03398 0.0
C306 C 0.8839 0.87359 0.00155 0.0
C307 C 0.01532 0.85019 0.03402 0.0
H308 H 0.11841 0.88515 0.00068 0.0
C309 C 0.28563 0.84679 0.02494 0.0
C310 C 0.31563 0.86051 0.03799 0.0
C311 C 0.22101 0.84692 0.02005 0.0
C312 C 0.08997 0.87525 0.00978 0.0
H313 H 0.80668 0.86281 0.08161 0.0
H314 H 0.91868 0.85923 0.07509 0.0
H315 H 0.00476 0.8881 0.00065 0.0
H316 H 0.30133 0.88493 0.0569 0.0
H317 H 0.18921 0.88503 0.04852 0.0
H318 H 0.1008 0.83767 0.04444 0.0
C319 C 0.89145 0.86374 0.05534 0.0
C320 C 0.02518 0.87689 0.00957 0.0
C321 C 0.82746 0.86597 0.05914 0.0
C322 C 0.27981 0.87417 0.04665 0.0
C323 C 0.21566 0.87433 0.04158 0.0
C324 C 0.08016 0.84853 0.03414 0.0
C325 C 0.91996 0.86726 0.02638 0.0
C326 C -0.01246 0.86459 0.0226 0.0
C327 C 0.18589 0.86081 0.02791 0.0
C328 C 0.11788 0.86128 0.02295 0.0
H329 H 0.79258 0.88023 0.98545 0.0
H330 H 0.90508 0.87643 0.97902 0.0
H331 H -0.01305 0.84044 0.04373 0.0
H332 H 0.31207 0.83609 0.01803 0.0
H333 H 0.19867 0.83633 0.00961 0.0
C334 C 0.16831 0.12151 0.00602 0.0
C335 C 0.19924 0.11889 0.03481 0.0
C336 C 0.10385 0.12428 0.00542 0.0
C337 C 0.9764 0.13765 0.05857 0.0
H338 H 0.86848 0.12278 0.9908 0.0
C339 C 0.70963 0.13045 0.06585 0.0
C340 C 0.67393 0.13703 0.04112 0.0
C341 C 0.77469 0.13081 0.06455 0.0
C342 C 0.89847 0.1272 0.00958 0.0
H343 H 0.18705 0.11588 0.08517 0.0
H344 H 0.07428 0.11984 0.08402 0.0
H345 H 0.98006 0.11641 0.98933 0.0
H346 H 0.67743 0.14956 -0.00388 0.0
H347 H 0.79224 0.14971 0.9934 0.0
H348 H 0.89375 0.14766 0.07953 0.0
C349 C 0.09984 0.12052 0.06205 0.0
C350 C 0.96225 0.12356 0.0088 0.0
C351 C 0.1643 0.11805 0.0627 0.0
C352 C 0.70418 0.14451 0.01554 0.0
C353 C 0.76948 0.14452 0.01389 0.0
C354 C 0.91256 0.14103 0.05957 0.0
C355 C 0.06917 0.12422 0.03356 0.0
C356 C 0.00179 0.12854 0.03354 0.0
C357 C 0.80497 0.13745 0.0382 0.0
C358 C 0.87314 0.13568 0.03527 0.0
H359 H 0.19434 0.12235 0.98419 0.0
H360 H 0.08185 0.12718 0.98309 0.0
H361 H 0.00574 0.14209 0.07757 0.0
H362 H 0.68719 0.12465 0.08583 0.0
H363 H 0.80133 0.1252 0.08344 0.0
C364 C 0.2814 0.13612 0.55803 0.0
C365 C 0.31282 0.12873 0.53279 0.0
C366 C 0.21656 0.13453 0.5608 0.0
C367 C 0.08982 0.10711 0.53366 0.0
H368 H 0.98063 0.14046 0.56793 0.0
C369 C 0.82262 0.10879 0.51915 0.0
C370 C 0.78724 0.11155 0.54645 0.0
C371 C 0.88767 0.10953 0.52033 0.0
C372 C 0.01097 0.131 0.55872 0.0
H373 H 0.30164 0.11514 0.48933 0.0
H374 H 0.18839 0.1131 0.49317 0.0
H375 H 0.09238 0.14611 0.56229 0.0
H376 H 0.79151 0.11681 0.59652 0.0
H377 H 0.90602 0.11854 0.59832 0.0
H378 H 0.00763 0.09233 0.52881 0.0
C379 C 0.21362 0.11946 0.51164 0.0
C380 C 0.07478 0.13421 0.55547 0.0
C381 C 0.27833 0.12077 0.50921 0.0
C382 C 0.81791 0.11453 0.5752 0.0
C383 C 0.88308 0.11563 0.57623 0.0
C384 C 0.02601 0.10403 0.53645 0.0
C385 C 0.18228 0.12574 0.53807 0.0
C386 C 0.11476 0.12236 0.5425 0.0
C387 C 0.91816 0.11336 0.54868 0.0
C388 C -0.01384 0.116 0.54872 0.0
H389 H 0.30725 0.14222 0.57661 0.0
H390 H 0.1939 0.13947 0.5815 0.0
H391 H 0.11954 0.09753 0.52446 0.0
H392 H 0.79994 0.10643 0.49674 0.0
H393 H 0.91405 0.10782 0.4988 0.0
C394 C 0.69405 0.84625 0.56173 0.0
C395 C 0.66198 0.8532 0.53614 0.0
C396 C 0.75905 0.84781 0.56401 0.0
C397 C 0.88468 0.87482 0.53437 0.0
H398 H -0.00448 0.84247 0.57115 0.0
C399 C 0.15223 0.87459 0.52104 0.0
C400 C 0.18775 0.87203 0.54848 0.0
C401 C 0.08722 0.87347 0.52198 0.0
C402 C 0.96474 0.85166 0.5612 0.0
H403 H 0.67203 0.86589 0.49162 0.0
H404 H 0.78545 0.86783 0.49463 0.0
H405 H 0.88389 0.83643 0.566 0.0
H406 H 0.18353 0.86677 0.59856 0.0
H407 H 0.06924 0.86445 0.59997 0.0
H408 H 0.96614 0.88974 0.52849 0.0
C409 C 0.76071 0.86187 0.5137 0.0
C410 C 0.90098 0.84822 0.55822 0.0
C411 C 0.6959 0.8606 0.51176 0.0
C412 C 0.15711 0.8689 0.57712 0.0
C413 C 0.09202 0.86745 0.57792 0.0
C414 C 0.94839 0.87813 0.53693 0.0
C415 C 0.79278 0.85612 0.54046 0.0
C416 C 0.86037 0.85969 0.5444 0.0
C417 C 0.05683 0.86948 0.55024 0.0
C418 C -0.0111 0.86654 0.55012 0.0
H419 H 0.66861 0.84059 0.58093 0.0
H420 H 0.78227 0.84327 0.58497 0.0
H421 H 0.85449 0.88414 0.52449 0.0
H422 H 0.1748 0.87705 0.49869 0.0
H423 H 0.06086 0.87501 0.50033 0.0
C424 C 0.00323 0.55529 0.02163 0.0
C425 C 0.95482 0.56404 0.00678 0.0
C426 C 0.01142 0.53869 0.01574 0.0
C427 C 0.03646 0.50507 0.98946 0.0
H428 H 0.88745 0.47813 -0.00573 0.0
C429 C 0.04924 0.43462 0.9882 0.0
C430 C 0.01328 0.42684 0.01155 0.0
C431 C 0.04048 0.45119 0.98157 0.0
C432 C 0.92947 0.4855 0.9928 0.0
H433 H 0.87815 0.56225 0.9733 0.0
H434 H 0.89263 0.53312 0.963 0.0
H435 H 0.87734 0.5078 0.99338 0.0
H436 H 0.93909 0.43033 0.04579 0.0
H437 H 0.92459 0.45919 0.03454 0.0
H438 H 0.08875 0.4828 0.99051 0.0
C439 C 0.92386 0.53918 0.9794 0.0
C440 C 0.92366 0.50248 0.99192 0.0
C441 C 0.91573 0.55586 0.98523 0.0
C442 C 0.96766 0.43592 0.02767 0.0
C443 C 0.95891 0.45245 0.02103 0.0
C444 C 0.04228 0.48809 0.99035 0.0
C445 C 0.97141 0.53039 -0.00514 0.0
C446 C 0.97718 0.51245 0.9911 0.0
C447 C -0.00449 0.46031 -0.00192 0.0
C448 C -0.01109 0.47814 0.99288 0.0
H449 H 0.03434 0.5612 0.03831 0.0
H450 H 0.04788 0.53223 0.02841 0.0
H451 H 0.07852 0.51244 0.98838 0.0
H452 H 0.08455 0.42796 0.97521 0.0
H453 H 0.06903 0.45689 0.96357 0.0
C454 C -0.01313 0.43312 0.55305 0.0
C455 C 0.93853 0.42409 0.56721 0.0
C456 C -0.0061 0.44973 0.55938 0.0
C457 C 0.01824 0.48287 0.58795 0.0
H458 H 0.86984 0.51005 0.58443 0.0
C459 C 0.03351 0.55323 0.59325 0.0
C460 C -0.00177 0.5613 0.56994 0.0
C461 C 0.02373 0.53663 0.59935 0.0
C462 C 0.91171 0.50261 0.58557 0.0
H463 H 0.86015 0.42542 0.59957 0.0
H464 H 0.87268 0.45453 0.6107 0.0
H465 H 0.85916 0.48041 0.58265 0.0
H466 H 0.92377 0.55834 0.53545 0.0
H467 H 0.90759 0.52951 0.54575 0.0
H468 H 0.07098 0.50507 0.58914 0.0
C469 C 0.90477 0.44871 0.59448 0.0
C470 C 0.90554 0.48563 0.58489 0.0
C471 C 0.89769 0.43204 0.58814 0.0
C472 C 0.95194 0.55253 0.55352 0.0
C473 C 0.94218 0.53599 0.55964 0.0
C474 C 0.02441 0.49984 0.58857 0.0
C475 C 0.95288 0.45773 0.58008 0.0
C476 C 0.95886 0.47559 0.58518 0.0
C477 C 0.97837 0.5278 0.58236 0.0
C478 C 0.97129 0.5099 0.5865 0.0
H479 H 0.01916 0.42742 0.53678 0.0
H480 H 0.0307 0.45639 0.54743 0.0
H481 H 0.06015 0.47543 0.58874 0.0
H482 H 0.06931 0.55966 0.60644 0.0
H483 H 0.05199 0.53066 0.6172 0.0
C484 C 0.56448 0.93562 0.98845 0.0
C485 C 0.52769 0.92803 0.01169 0.0
C486 C 0.55735 0.95229 0.98198 0.0
C487 C 0.56097 0.98932 0.99074 0.0
H488 H 0.39656 0.00935 0.99358 0.0
C489 C 0.52333 0.05674 0.02172 0.0
C490 C 0.47438 0.06545 0.00723 0.0
C491 C 0.53154 0.04013 0.01575 0.0
C492 C 0.44275 0.00396 0.99216 0.0
H493 H 0.45399 0.93198 0.04604 0.0
H494 H 0.44227 0.96091 0.03504 0.0
H495 H 0.40581 0.97969 -0.00561 0.0
H496 H 0.39695 0.06361 0.97421 0.0
H497 H 0.41156 0.03452 0.96371 0.0
H498 H 0.59791 0.01362 0.98885 0.0
C499 C 0.47598 0.95399 0.02147 0.0
C500 C 0.44808 0.98697 0.993 0.0
C501 C 0.48316 0.9374 0.02798 0.0
C502 C 0.43488 0.05724 0.98591 0.0
C503 C 0.44312 0.04058 0.97996 0.0
C504 C 0.55564 0.00633 0.98987 0.0
C505 C 0.51311 0.96164 -0.00149 0.0
C506 C 0.50728 0.97949 0.99319 0.0
C507 C 0.49108 0.0318 -0.00486 0.0
C508 C 0.49654 0.01384 0.99144 0.0
H509 H 0.59907 0.92874 0.97539 0.0
H510 H 0.58637 0.95784 0.96402 0.0
H511 H 0.60725 0.98393 0.99096 0.0
H512 H 0.55475 0.06265 0.03822 0.0
H513 H 0.56833 0.03369 0.02821 0.0
C514 C 0.55185 0.05254 0.59482 0.0
C515 C 0.51483 0.06009 0.57153 0.0
C516 C 0.5439 0.03598 0.60184 0.0
C517 C 0.54721 -0.00094 0.59273 0.0
H518 H 0.38313 0.97876 0.59102 0.0
C519 C 0.50923 0.93205 0.55924 0.0
C520 C 0.46185 0.92302 0.57421 0.0
C521 C 0.51725 0.94861 0.56581 0.0
C522 C 0.42925 0.98423 0.59213 0.0
H523 H 0.43925 0.05623 0.53803 0.0
H524 H 0.42606 0.02743 0.55 0.0
H525 H 0.39173 0.00846 0.5909 0.0
H526 H 0.38698 0.92422 0.60864 0.0
H527 H 0.40117 0.95324 0.62011 0.0
H528 H 0.58474 0.97482 0.59345 0.0
C529 C 0.4607 0.03432 0.56311 0.0
C530 C 0.43418 0.00124 0.59171 0.0
C531 C 0.4687 0.05082 0.55604 0.0
C532 C 0.42371 0.93085 0.59656 0.0
C533 C 0.43169 0.94746 0.60308 0.0
C534 C 0.54228 0.98205 0.59315 0.0
C535 C 0.4986 0.02667 0.58584 0.0
C536 C 0.49322 0.00881 0.59108 0.0
C537 C 0.47812 0.95655 0.5875 0.0
C538 C 0.48329 0.97446 0.59193 0.0
H539 H 0.58763 0.05935 0.6073 0.0
H540 H 0.57348 0.03042 0.61964 0.0
H541 H 0.59337 0.00452 0.59212 0.0
H542 H 0.53959 0.92643 0.54196 0.0
H543 H 0.55282 0.95531 0.55303 0.0
C544 C 0.161 0.30389 0.08743 0.0
C545 C 0.11332 0.30663 0.06512 0.0
C546 C 0.18987 0.28865 0.08974 0.0
C547 C 0.22677 0.25306 0.0984 0.0
H548 H 0.27096 0.23294 0.01876 0.0
C549 C 0.32935 0.18796 0.08767 0.0
C550 C 0.37482 0.18518 0.06435 0.0
C551 C 0.29994 0.20313 0.09011 0.0
C552 C 0.25952 0.23849 0.04119 0.0
H553 H 0.05632 0.29522 0.0289 0.0
H554 H 0.10646 0.26852 0.03319 0.0
H555 H 0.21027 0.25811 0.01897 0.0
H556 H 0.42753 0.19648 0.02647 0.0
H557 H 0.37657 0.22303 0.03101 0.0
H558 H 0.27707 0.23353 0.12057 0.0
C559 C 0.1221 0.27829 0.04851 0.0
C560 C 0.22388 0.25276 0.04132 0.0
C561 C 0.09307 0.29355 0.04623 0.0
C562 C 0.39249 0.19817 0.04459 0.0
C563 C 0.36295 0.21335 0.04701 0.0
C564 C 0.26235 0.23873 0.09827 0.0
C565 C 0.17176 0.2758 0.06979 0.0
C566 C 0.20716 0.26022 0.06991 0.0
C567 C 0.31532 0.21585 0.06929 0.0
C568 C 0.27924 0.23133 0.06965 0.0
H569 H 0.17764 0.31367 0.10246 0.0
H570 H 0.22823 0.28716 0.10622 0.0
H571 H 0.21434 0.25848 0.12081 0.0
H572 H 0.3147 0.17825 0.10337 0.0
H573 H 0.26321 0.20464 0.10741 0.0
C574 C 0.58754 0.79405 0.0477 0.0
C575 C 0.60705 0.8068 0.06764 0.0
C576 C 0.6153 0.77864 0.04985 0.0
C577 C 0.71691 0.75307 0.04325 0.0
H578 H 0.7591 0.7317 0.12212 0.0
C579 C 0.87861 0.69705 0.04653 0.0
C580 C 0.85684 0.68379 0.06451 0.0
C581 C 0.85085 0.71243 0.04946 0.0
C582 C 0.7475 0.73752 0.09992 0.0
H583 H 0.66819 0.81303 0.1068 0.0
H584 H 0.71645 0.78617 0.11046 0.0
H585 H 0.69872 0.75706 0.12274 0.0
H586 H 0.79105 0.67653 0.10091 0.0
H587 H 0.74265 0.70327 0.10579 0.0
H588 H 0.76478 0.73348 0.02036 0.0
C589 C 0.67979 0.7881 0.09318 0.0
C590 C 0.71325 0.75206 0.10028 0.0
C591 C 0.65226 0.80352 0.09096 0.0
C592 C 0.80887 0.68645 0.08658 0.0
C593 C 0.78126 0.70182 0.08954 0.0
C594 C 0.75129 0.73859 0.04289 0.0
C595 C 0.66283 0.77564 0.07208 0.0
C596 C 0.69744 0.75995 0.07193 0.0
C597 C 0.80094 0.71487 0.07048 0.0
C598 C 0.7669 0.73064 0.0712 0.0
H599 H 0.5527 0.79614 0.02956 0.0
H600 H 0.60055 0.76917 0.03363 0.0
H601 H 0.70628 0.75901 0.02104 0.0
H602 H 0.91566 0.69545 0.02943 0.0
H603 H 0.86768 0.72235 0.03484 0.0
C604 C 0.07872 0.69422 0.52036 0.0
C605 C 0.113 0.6799 0.51442 0.0
C606 C 0.10762 0.70953 0.51798 0.0
C607 C 0.253 0.72941 0.53134 0.0
H608 H 0.20383 0.76279 0.47136 0.0
C609 C 0.38904 0.79008 0.5227 0.0
C610 C 0.35404 0.80426 0.51676 0.0
C611 C 0.36138 0.77466 0.51964 0.0
C612 C 0.21764 0.75374 0.48863 0.0
H613 H 0.2042 0.6704 0.50114 0.0
H614 H 0.25454 0.69708 0.49798 0.0
H615 H 0.14835 0.7367 0.47226 0.0
H616 H 0.26265 0.81344 0.50303 0.0
H617 H 0.21395 0.78683 0.49918 0.0
H618 H 0.32016 0.74644 0.54892 0.0
C619 C 0.20533 0.69642 0.50398 0.0
C620 C 0.18597 0.7388 0.48895 0.0
C621 C 0.1763 0.6812 0.50567 0.0
C622 C 0.29119 0.80273 0.50741 0.0
C623 C 0.26326 0.78739 0.505 0.0
C624 C 0.28379 0.74445 0.53153 0.0
C625 C 0.17137 0.71066 0.51034 0.0
C626 C 0.20358 0.72656 0.51026 0.0
C627 C 0.29776 0.77313 0.51125 0.0
C628 C 0.26657 0.75685 0.51018 0.0
H629 H 0.02993 0.69359 0.52713 0.0
H630 H 0.08081 0.72045 0.52304 0.0
H631 H 0.26703 0.72008 0.54805 0.0
H632 H 0.43769 0.7909 0.52977 0.0
H633 H 0.3899 0.76396 0.52401 0.0
C634 C 0.8255 0.29859 0.48945 0.0
C635 C 0.86688 0.30202 0.51443 0.0
C636 C 0.79788 0.2832 0.4867 0.0
C637 C 0.76311 0.24735 0.47946 0.0
H638 H 0.70179 0.22906 0.55791 0.0
C639 C 0.66274 0.18209 0.49065 0.0
C640 C 0.61287 0.17951 0.51167 0.0
C641 C 0.69117 0.19739 0.48834 0.0
C642 C 0.71798 0.23409 0.53576 0.0
H643 H 0.91475 0.29163 0.55492 0.0
H644 H 0.8671 0.26468 0.54981 0.0
H645 H 0.76119 0.25443 0.5587 0.0
H646 H 0.55147 0.19126 0.54543 0.0
H647 H 0.60075 0.21807 0.54107 0.0
H648 H 0.71878 0.22711 0.4565 0.0
C649 C 0.8551 0.27403 0.53276 0.0
C650 C 0.75294 0.24849 0.53626 0.0
C651 C 0.88278 0.28943 0.53553 0.0
C652 C 0.58998 0.1928 0.52914 0.0
C653 C 0.61851 0.20812 0.52683 0.0
C654 C 0.72813 0.23292 0.47896 0.0
C655 C 0.81107 0.2709 0.50883 0.0
C656 C 0.77599 0.25527 0.50814 0.0
C657 C 0.67037 0.21046 0.50697 0.0
C658 C 0.70519 0.22614 0.50712 0.0
H659 H 0.81232 0.30798 0.4727 0.0
H660 H 0.76393 0.2812 0.4681 0.0
H661 H 0.78044 0.25225 0.45741 0.0
H662 H 0.68146 0.17214 0.47673 0.0
H663 H 0.73125 0.19876 0.47297 0.0
C664 C 0.07969 0.37174 0.1809 0.0
C665 C 0.0424 0.38043 0.15932 0.0
C666 C 0.07151 0.37381 0.21329 0.0
C667 C 0.95117 0.38637 0.27007 0.0
H668 H 0.08802 0.38293 0.32989 0.0
C669 C -0.00128 0.38688 0.41351 0.0
C670 C 0.94983 0.37646 0.42293 0.0
C671 C 0.01024 0.3897 0.38155 0.0
C672 C 0.04932 0.38415 0.31352 0.0
H673 H 0.96949 0.39876 0.15485 0.0
H674 H 0.95606 0.40257 0.21136 0.0
H675 H 0.11049 0.38443 0.27366 0.0
H676 H 0.87421 0.36101 0.40609 0.0
H677 H 0.89496 0.36569 0.35054 0.0
H678 H 0.89001 0.38619 0.30988 0.0
C679 C -0.00936 0.39387 0.20324 0.0
C680 C 0.06217 0.38481 0.28128 0.0
C681 C -0.00144 0.39174 0.17084 0.0
C682 C 0.91214 0.36914 0.3997 0.0
C683 C 0.92377 0.37192 0.3678 0.0
C684 C 0.93834 0.38577 0.30228 0.0
C685 C 0.02613 0.38469 0.22484 0.0
C686 C 0.01318 0.38563 0.25916 0.0
C687 C 0.97319 0.38214 0.35834 0.0
C688 C -0.01282 0.38433 0.32435 0.0
H689 H 0.11386 0.36291 0.17283 0.0
H690 H 0.09912 0.36639 0.22925 0.0
H691 H 0.91224 0.38684 0.2537 0.0
H692 H 0.02846 0.39279 0.4308 0.0
H693 H 0.04819 0.39779 0.37502 0.0
C694 C 0.97678 0.5982 0.16682 0.0
C695 C 0.93104 0.60925 0.15615 0.0
C696 C -0.0134 0.5958 0.19904 0.0
C697 C 0.91631 0.6027 0.27769 0.0
H698 H 0.08911 0.60217 0.30591 0.0
C699 C 0.06399 0.61577 0.39829 0.0
C700 C 0.02646 0.60743 0.4202 0.0
C701 C 0.05379 0.61386 0.36597 0.0
C702 C 0.04063 0.60234 0.29841 0.0
H703 H 0.85839 0.62608 0.171 0.0
H704 H 0.87617 0.62208 0.22716 0.0
H705 H 0.06586 0.60294 0.2497 0.0
H706 H 0.95051 0.58998 0.42529 0.0
H707 H 0.93347 0.58649 0.36894 0.0
H708 H 0.8911 0.60282 0.32642 0.0
C709 C 0.90394 0.6151 0.21063 0.0
C710 C 0.02726 0.60257 0.26619 0.0
C711 C 0.89396 0.61746 0.1784 0.0
C712 C 0.97997 0.5967 0.40906 0.0
C713 C 0.96993 0.59476 0.37676 0.0
C714 C 0.92968 0.6025 0.30992 0.0
C715 C 0.95102 0.60443 0.2213 0.0
C716 C 0.96495 0.60296 0.25547 0.0
C717 C 0.00602 0.60352 0.35486 0.0
C718 C -0.008 0.60253 0.32064 0.0
H719 H 0.00586 0.59157 0.15031 0.0
H720 H 0.02251 0.58729 0.20651 0.0
H721 H 0.86782 0.60281 0.27019 0.0
H722 H 0.10013 0.62415 0.40605 0.0
H723 H 0.08197 0.62094 0.34974 0.0
C724 C 0.97371 0.65211 0.90891 0.0
C725 C 0.93065 0.64023 0.91911 0.0
C726 C 0.98331 0.65482 0.87677 0.0
C727 C 0.91514 0.64781 0.79782 0.0
H728 H 0.08802 0.6469 0.77014 0.0
C729 C 0.05793 0.62956 0.6799 0.0
C730 C 0.02423 0.63817 0.65675 0.0
C731 C 0.04846 0.63279 0.71182 0.0
C732 C 0.03955 0.64725 0.77755 0.0
H733 H 0.86205 0.62238 0.90353 0.0
H734 H 0.87891 0.62712 0.84754 0.0
H735 H 0.0645 0.64722 0.82642 0.0
H736 H 0.95544 0.65729 0.649 0.0
H737 H 0.9388 0.66286 0.70488 0.0
H738 H 0.89018 0.6472 0.74896 0.0
C739 C 0.90505 0.63437 0.8644 0.0
C740 C 0.02609 0.64759 0.80973 0.0
C741 C 0.89575 0.63158 0.89649 0.0
C742 C 0.98207 0.6504 0.66623 0.0
C743 C 0.9723 0.65356 0.69821 0.0
C744 C 0.92862 0.64756 0.76564 0.0
C745 C 0.94967 0.64582 0.8542 0.0
C746 C 0.96373 0.6475 0.82018 0.0
C747 C 0.00488 0.64465 0.72131 0.0
C748 C -0.00906 0.64691 0.75521 0.0
H749 H 0.00126 0.65902 0.92572 0.0
H750 H 0.0176 0.66382 0.86955 0.0
H751 H 0.86667 0.64789 0.80524 0.0
H752 H 0.0909 0.62009 0.67343 0.0
H753 H 0.07374 0.6256 0.7291 0.0
C754 C 0.8966 0.36365 0.68091 0.0
C755 C 0.91099 0.35072 0.66045 0.0
C756 C 0.90425 0.36188 0.71338 0.0
C757 C -0.01004 0.33683 0.772 0.0
H758 H 0.88824 0.36168 0.83045 0.0
C759 C 0.00607 0.33711 0.91059 0.0
C760 C 0.02313 0.35269 0.9217 0.0
C761 C -0.00979 0.33484 0.87888 0.0
C762 C 0.91662 0.35461 0.81432 0.0
H763 H 0.94189 0.32551 0.65805 0.0
H764 H 0.95304 0.32219 0.71493 0.0
H765 H 0.85923 0.36078 0.77483 0.0
H766 H 0.0373 0.37804 0.90836 0.0
H767 H 0.00789 0.37408 0.85324 0.0
H768 H 0.04668 0.33056 0.81209 0.0
C769 C 0.9377 0.33389 0.70583 0.0
C770 C 0.90047 0.35418 0.78246 0.0
C771 C 0.93094 0.33575 0.67324 0.0
C772 C 0.02475 0.36588 0.90048 0.0
C773 C 0.00764 0.36367 0.86905 0.0
C774 C 0.00536 0.33702 0.80404 0.0
C775 C 0.92549 0.34703 0.72628 0.0
C776 C 0.93796 0.34568 0.76071 0.0
C777 C -0.01013 0.34818 0.85813 0.0
C778 C 0.96964 0.34625 0.82518 0.0
H779 H 0.88159 0.37539 0.67181 0.0
H780 H 0.89556 0.37239 0.7282 0.0
H781 H 0.02042 0.33032 0.75599 0.0
H782 H 0.00454 0.32673 0.92643 0.0
H783 H 0.97663 0.3228 0.87074 0.0
C784 C 0.57496 0.87237 0.18186 0.0
C785 C 0.53699 0.88051 0.15977 0.0
C786 C 0.56411 0.87414 0.21412 0.0
C787 C 0.43832 0.88452 0.26961 0.0
H788 H 0.57388 0.88491 0.33051 0.0
C789 C 0.48343 0.88913 0.41297 0.0
C790 C 0.43832 0.87787 0.42346 0.0
C791 C 0.49354 0.89152 0.38079 0.0
C792 C 0.53542 0.88504 0.31384 0.0
H793 H 0.45946 0.89743 0.15434 0.0
H794 H 0.44123 0.90067 0.21064 0.0
H795 H 0.59761 0.88594 0.27443 0.0
H796 H 0.36723 0.86061 0.4083 0.0
H797 H 0.38555 0.86459 0.35221 0.0
H798 H 0.37611 0.88373 0.30904 0.0
C799 C 0.4786 0.89268 0.20297 0.0
C800 C 0.54908 0.88542 0.28168 0.0
C801 C 0.48932 0.89088 0.1707 0.0
C802 C 0.40226 0.8694 0.40104 0.0
C803 C 0.41255 0.87175 0.36885 0.0
C804 C 0.42464 0.88417 0.30178 0.0
C805 C 0.51522 0.88412 0.22503 0.0
C806 C 0.50073 0.88495 0.2592 0.0
C807 C 0.45893 0.88267 0.35837 0.0
C808 C 0.47306 0.88421 0.32425 0.0
H809 H 0.61203 0.86426 0.17427 0.0
H810 H 0.59274 0.86722 0.23047 0.0
H811 H 0.39996 0.88398 0.25292 0.0
H812 H 0.51172 0.89596 0.42959 0.0
H813 H 0.52887 0.90022 0.37348 0.0
C814 C 0.41698 0.11737 0.17885 0.0
C815 C 0.45445 0.10967 0.1561 0.0
C816 C 0.4263 0.11428 0.21088 0.0
C817 C 0.54802 0.10048 0.26614 0.0
H818 H 0.41007 0.0999 0.32534 0.0
C819 C 0.49586 0.09414 0.4087 0.0
C820 C 0.54156 0.10502 0.42009 0.0
C821 C 0.48728 0.092 0.37632 0.0
C822 C 0.44915 0.09978 0.30912 0.0
H823 H 0.52954 0.09217 0.14916 0.0
H824 H 0.5451 0.08662 0.20504 0.0
H825 H 0.38848 0.10066 0.26898 0.0
H826 H 0.61559 0.12174 0.40636 0.0
H827 H 0.59992 0.11821 0.35002 0.0
H828 H 0.60868 0.09955 0.30628 0.0
C829 C 0.50931 0.09529 0.19811 0.0
C830 C 0.43674 0.10042 0.27683 0.0
C831 C 0.50016 0.09842 0.16607 0.0
C832 C 0.57996 0.11326 0.39841 0.0
C833 C 0.57123 0.11115 0.36606 0.0
C834 C 0.56042 0.09978 0.29843 0.0
C835 C 0.47309 0.10336 0.22089 0.0
C836 C 0.48604 0.10109 0.255 0.0
C837 C 0.52411 0.10071 0.35464 0.0
C838 C 0.51114 0.09973 0.32031 0.0
H839 H 0.38142 0.12612 0.172 0.0
H840 H 0.39813 0.12087 0.22782 0.0
H841 H 0.5871 0.10111 0.24997 0.0
H842 H 0.46578 0.0875 0.42476 0.0
H843 H 0.45124 0.08366 0.36826 0.0
C844 C 0.48517 0.15264 0.90815 0.0
C845 C 0.4441 0.14047 0.91912 0.0
C846 C 0.49364 0.15507 0.87584 0.0
C847 C 0.42506 0.14642 0.7976 0.0
H848 H 0.59745 0.14721 0.76914 0.0
C849 C 0.56902 0.12901 0.67949 0.0
C850 C 0.53379 0.13716 0.6563 0.0
C851 C 0.55931 0.13227 0.71138 0.0
C852 C 0.5491 0.14707 0.77676 0.0
H853 H 0.37778 0.12179 0.90472 0.0
H854 H 0.39275 0.12602 0.84845 0.0
H855 H 0.57488 0.14778 0.82549 0.0
H856 H 0.46188 0.15547 0.64842 0.0
H857 H 0.44484 0.16108 0.70425 0.0
H858 H 0.39939 0.1451 0.74888 0.0
C859 C 0.41816 0.13372 0.86482 0.0
C860 C 0.53614 0.14755 0.80898 0.0
C861 C 0.40995 0.13122 0.89709 0.0
C862 C 0.48974 0.14895 0.66569 0.0
C863 C 0.47973 0.15212 0.69764 0.0
C864 C 0.43801 0.14603 0.76536 0.0
C865 C 0.46088 0.14547 0.85388 0.0
C866 C 0.47404 0.14689 0.81973 0.0
C867 C 0.51396 0.14368 0.72078 0.0
C868 C 0.5002 0.146 0.75467 0.0
H869 H 0.51205 0.16003 0.92447 0.0
H870 H 0.5264 0.16433 0.86804 0.0
H871 H 0.37674 0.14604 0.80524 0.0
H872 H 0.60343 0.11989 0.67307 0.0
H873 H 0.5859 0.12544 0.72871 0.0
C874 C 0.488 0.83576 0.6702 0.0
C875 C 0.44215 0.84692 0.66006 0.0
C876 C 0.4993 0.83339 0.70236 0.0
C877 C 0.43179 0.83979 0.78145 0.0
H878 H 0.60472 0.84344 0.80862 0.0
C879 C 0.57286 0.85999 0.89937 0.0
C880 C 0.54079 0.85093 0.92241 0.0
C881 C 0.56369 0.85673 0.86738 0.0
C882 C 0.55626 0.84235 0.80136 0.0
H883 H 0.37043 0.86383 0.67574 0.0
H884 H 0.39012 0.85968 0.73166 0.0
H885 H 0.58016 0.84254 0.75239 0.0
H886 H 0.47547 0.83095 0.92986 0.0
H887 H 0.45952 0.82533 0.874 0.0
H888 H 0.40765 0.84021 0.83034 0.0
C889 C 0.41721 0.85273 0.7148 0.0
C890 C 0.54224 0.84167 0.76921 0.0
C891 C 0.40626 0.85519 0.68273 0.0
C892 C 0.50072 0.83823 0.91275 0.0
C893 C 0.49135 0.83503 0.88076 0.0
C894 C 0.44581 0.84038 0.81358 0.0
C895 C 0.46453 0.84202 0.72495 0.0
C896 C 0.47976 0.84073 0.75894 0.0
C897 C 0.5221 0.84439 0.85775 0.0
C898 C 0.50809 0.84201 0.82384 0.0
H899 H 0.51644 0.82918 0.65334 0.0
H900 H 0.53571 0.82497 0.70956 0.0
H901 H 0.38326 0.83893 0.77418 0.0
H902 H 0.60418 0.86983 0.90597 0.0
H903 H 0.58755 0.86427 0.85018 0.0
loop_
_geom_bond_atom_site_label_1
_geom_bond_atom_site_label_2
_geom_bond_distance
_geom_bond_site_symmetry_2
_ccdc_geom_bond_type
O0 Zn1 1.953 . S
O0 C16 1.225 . S
Zn1 O0 1.953 . S
Zn1 O2 1.949 . S
Zn1 O8 1.919 1_554 S
Zn1 O13 1.924 . S
O2 Zn1 1.949 . S
O2 Zn3 1.923 . S
O2 Zn4 1.950 . S
O2 Zn5 1.945 1_455 S
Zn3 O2 1.923 . S
Zn3 O6 1.933 1_455 S
Zn3 O9 1.941 1_554 S
Zn3 O10 1.965 . S
Zn4 O2 1.950 . S
Zn4 O11 1.938 . S
Zn4 O12 1.906 . S
Zn4 O22 1.953 . S
Zn5 O2 1.945 1_655 S
Zn5 O7 1.932 . S
Zn5 O14 1.977 1_655 S
Zn5 O15 1.910 1_655 S
O6 Zn3 1.933 1_655 S
O6 C17 1.226 . S
O7 Zn5 1.932 . S
O7 C17 1.307 . S
O8 Zn1 1.919 1_556 S
O8 C19 1.253 . S
O9 Zn3 1.941 1_556 S
O9 C19 1.283 . S
O10 Zn3 1.965 . S
O10 C18 1.303 . S
O11 Zn4 1.938 . S
O11 C18 1.247 . S
O12 Zn4 1.906 . S
O12 C20 1.304 . S
O13 Zn1 1.924 . S
O13 C21 1.311 . S
O14 Zn5 1.977 1_455 S
O14 C20 1.272 . S
O15 Zn5 1.910 1_455 S
O15 C21 1.231 . S
C16 O0 1.225 . S
C16 O22 1.298 . S
C17 O6 1.226 . S
C17 O7 1.307 . S
C18 O10 1.303 . S
C18 O11 1.247 . S
C19 O8 1.253 . S
C19 O9 1.283 . S
C20 O12 1.304 . S
C20 O14 1.272 . S
C21 O13 1.311 . S
C21 O15 1.231 . S
O22 Zn4 1.953 . S
O22 C16 1.298 . S
O23 Zn24 1.953 . S
O23 C39 1.225 . S
Zn24 O23 1.953 . S
Zn24 O25 1.949 . S
Zn24 O31 1.919 1_554 S
Zn24 O36 1.924 . S
O25 Zn24 1.949 . S
O25 Zn26 1.923 . S
O25 Zn27 1.950 . S
O25 Zn28 1.945 1_655 S
Zn26 O25 1.923 . S
Zn26 O29 1.933 1_655 S
Zn26 O32 1.941 1_554 S
Zn26 O33 1.965 . S
Zn27 O25 1.950 . S
Zn27 O34 1.938 . S
Zn27 O35 1.906 . S
Zn27 O45 1.953 . S
Zn28 O25 1.945 1_455 S
Zn28 O30 1.932 . S
Zn28 O37 1.977 1_455 S
Zn28 O38 1.910 1_455 S
O29 Zn26 1.933 1_455 S
O29 C40 1.226 . S
O30 Zn28 1.932 . S
O30 C40 1.307 . S
O31 Zn24 1.919 1_556 S
O31 C42 1.253 . S
O32 Zn26 1.941 1_556 S
O32 C42 1.283 . S
O33 Zn26 1.965 . S
O33 C41 1.303 . S
O34 Zn27 1.938 . S
O34 C41 1.247 . S
O35 Zn27 1.906 . S
O35 C43 1.304 . S
O36 Zn24 1.924 . S
O36 C44 1.311 . S
O37 Zn28 1.977 1_655 S
O37 C43 1.272 . S
O38 Zn28 1.910 1_655 S
O38 C44 1.231 . S
C39 O23 1.225 . S
C39 O45 1.298 . S
C40 O29 1.226 . S
C40 O30 1.307 . S
C41 O33 1.303 . S
C41 O34 1.247 . S
C42 O31 1.253 . S
C42 O32 1.283 . S
C43 O35 1.304 . S
C43 O37 1.272 . S
C44 O36 1.311 . S
C44 O38 1.231 . S
O45 Zn27 1.953 . S
O45 C39 1.298 . S
O46 Zn47 1.953 . S
O46 C62 1.225 . S
Zn47 O46 1.953 . S
Zn47 O48 1.949 . S
Zn47 O54 1.919 . S
Zn47 O59 1.924 . S
O48 Zn47 1.949 . S
O48 Zn49 1.923 . S
O48 Zn50 1.950 . S
O48 Zn51 1.945 1_455 S
Zn49 O48 1.923 . S
Zn49 O52 1.933 1_455 S
Zn49 O55 1.941 . S
Zn49 O56 1.965 . S
Zn50 O48 1.950 . S
Zn50 O57 1.938 . S
Zn50 O58 1.906 . S
Zn50 O68 1.953 . S
Zn51 O48 1.945 1_655 S
Zn51 O53 1.932 . S
Zn51 O60 1.977 1_655 S
Zn51 O61 1.910 1_655 S
O52 Zn49 1.933 1_655 S
O52 C63 1.226 . S
O53 Zn51 1.932 . S
O53 C63 1.307 . S
O54 Zn47 1.919 . S
O54 C65 1.253 . S
O55 Zn49 1.941 . S
O55 C65 1.283 . S
O56 Zn49 1.965 . S
O56 C64 1.303 . S
O57 Zn50 1.938 . S
O57 C64 1.247 . S
O58 Zn50 1.906 . S
O58 C66 1.304 . S
O59 Zn47 1.924 . S
O59 C67 1.311 . S
O60 Zn51 1.977 1_455 S
O60 C66 1.272 . S
O61 Zn51 1.910 1_455 S
O61 C67 1.231 . S
C62 O46 1.225 . S
C62 O68 1.298 . S
C63 O52 1.226 . S
C63 O53 1.307 . S
C64 O56 1.303 . S
C64 O57 1.247 . S
C65 O54 1.253 . S
C65 O55 1.283 . S
C66 O58 1.304 . S
C66 O60 1.272 . S
C67 O59 1.311 . S
C67 O61 1.231 . S
O68 Zn50 1.953 . S
O68 C62 1.298 . S
O69 Zn70 1.953 . S
O69 C85 1.225 . S
Zn70 O69 1.953 . S
Zn70 O71 1.949 . S
Zn70 O77 1.919 . S
Zn70 O82 1.924 . S
O71 Zn70 1.949 . S
O71 Zn72 1.923 . S
O71 Zn73 1.950 . S
O71 Zn74 1.945 1_655 S
Zn72 O71 1.923 . S
Zn72 O75 1.933 1_655 S
Zn72 O78 1.941 . S
Zn72 O79 1.965 . S
Zn73 O71 1.950 . S
Zn73 O80 1.938 . S
Zn73 O81 1.906 . S
Zn73 O91 1.953 . S
Zn74 O71 1.945 1_455 S
Zn74 O76 1.932 . S
Zn74 O83 1.977 1_455 S
Zn74 O84 1.910 1_455 S
O75 Zn72 1.933 1_455 S
O75 C86 1.226 . S
O76 Zn74 1.932 . S
O76 C86 1.307 . S
O77 Zn70 1.919 . S
O77 C88 1.253 . S
O78 Zn72 1.941 . S
O78 C88 1.283 . S
O79 Zn72 1.965 . S
O79 C87 1.303 . S
O80 Zn73 1.938 . S
O80 C87 1.247 . S
O81 Zn73 1.906 . S
O81 C89 1.304 . S
O82 Zn70 1.924 . S
O82 C90 1.311 . S
O83 Zn74 1.977 1_655 S
O83 C89 1.272 . S
O84 Zn74 1.910 1_655 S
O84 C90 1.231 . S
C85 O69 1.225 . S
C85 O91 1.298 . S
C86 O75 1.226 . S
C86 O76 1.307 . S
C87 O79 1.303 . S
C87 O80 1.247 . S
C88 O77 1.253 . S
C88 O78 1.283 . S
C89 O81 1.304 . S
C89 O83 1.272 . S
C90 O82 1.311 . S
C90 O84 1.231 . S
O91 Zn73 1.953 . S
O91 C85 1.298 . S
O92 Zn93 1.953 . S
O92 C108 1.225 . S
Zn93 O92 1.953 . S
Zn93 O94 1.949 . S
Zn93 O100 1.919 1_554 S
Zn93 O105 1.924 . S
O94 Zn93 1.949 . S
O94 Zn95 1.923 . S
O94 Zn96 1.950 . S
O94 Zn97 1.945 . S
Zn95 O94 1.923 . S
Zn95 O98 1.933 . S
Zn95 O101 1.941 1_554 S
Zn95 O102 1.965 . S
Zn96 O94 1.950 . S
Zn96 O103 1.938 . S
Zn96 O104 1.906 . S
Zn96 O114 1.953 . S
Zn97 O94 1.945 . S
Zn97 O99 1.932 . S
Zn97 O106 1.977 . S
Zn97 O107 1.910 . S
O98 Zn95 1.933 . S
O98 C109 1.226 . S
O99 Zn97 1.932 . S
O99 C109 1.307 . S
O100 Zn93 1.919 1_556 S
O100 C111 1.253 . S
O101 Zn95 1.941 1_556 S
O101 C111 1.283 . S
O102 Zn95 1.965 . S
O102 C110 1.303 . S
O103 Zn96 1.938 . S
O103 C110 1.247 . S
O104 Zn96 1.906 . S
O104 C112 1.304 . S
O105 Zn93 1.924 . S
O105 C113 1.311 . S
O106 Zn97 1.977 . S
O106 C112 1.272 . S
O107 Zn97 1.910 . S
O107 C113 1.231 . S
C108 O92 1.225 . S
C108 O114 1.298 . S
C109 O98 1.226 . S
C109 O99 1.307 . S
C110 O102 1.303 . S
C110 O103 1.247 . S
C111 O100 1.253 . S
C111 O101 1.283 . S
C112 O104 1.304 . S
C112 O106 1.272 . S
C113 O105 1.311 . S
C113 O107 1.231 . S
O114 Zn96 1.953 . S
O114 C108 1.298 . S
O115 Zn116 1.953 . S
O115 C131 1.225 . S
Zn116 O115 1.953 . S
Zn116 O117 1.949 . S
Zn116 O123 1.919 1_554 S
Zn116 O128 1.924 . S
O117 Zn116 1.949 . S
O117 Zn118 1.923 . S
O117 Zn119 1.950 . S
O117 Zn120 1.945 . S
Zn118 O117 1.923 . S
Zn118 O121 1.933 . S
Zn118 O124 1.941 1_554 S
Zn118 O125 1.965 . S
Zn119 O117 1.950 . S
Zn119 O126 1.938 . S
Zn119 O127 1.906 . S
Zn119 O137 1.953 . S
Zn120 O117 1.945 . S
Zn120 O122 1.932 . S
Zn120 O129 1.977 . S
Zn120 O130 1.910 . S
O121 Zn118 1.933 . S
O121 C132 1.226 . S
O122 Zn120 1.932 . S
O122 C132 1.307 . S
O123 Zn116 1.919 1_556 S
O123 C134 1.253 . S
O124 Zn118 1.941 1_556 S
O124 C134 1.283 . S
O125 Zn118 1.965 . S
O125 C133 1.303 . S
O126 Zn119 1.938 . S
O126 C133 1.247 . S
O127 Zn119 1.906 . S
O127 C135 1.304 . S
O128 Zn116 1.924 . S
O128 C136 1.311 . S
O129 Zn120 1.977 . S
O129 C135 1.272 . S
O130 Zn120 1.910 . S
O130 C136 1.231 . S
C131 O115 1.225 . S
C131 O137 1.298 . S
C132 O121 1.226 . S
C132 O122 1.307 . S
C133 O125 1.303 . S
C133 O126 1.247 . S
C134 O123 1.253 . S
C134 O124 1.283 . S
C135 O127 1.304 . S
C135 O129 1.272 . S
C136 O128 1.311 . S
C136 O130 1.231 . S
O137 Zn119 1.953 . S
O137 C131 1.298 . S
O138 Zn139 1.953 . S
O138 C154 1.225 . S
Zn139 O138 1.953 . S
Zn139 O140 1.949 . S
Zn139 O146 1.919 . S
Zn139 O151 1.924 . S
O140 Zn139 1.949 . S
O140 Zn141 1.923 . S
O140 Zn142 1.950 . S
O140 Zn143 1.945 . S
Zn141 O140 1.923 . S
Zn141 O144 1.933 . S
Zn141 O147 1.941 . S
Zn141 O148 1.965 . S
Zn142 O140 1.950 . S
Zn142 O149 1.938 . S
Zn142 O150 1.906 . S
Zn142 O160 1.953 . S
Zn143 O140 1.945 . S
Zn143 O145 1.932 . S
Zn143 O152 1.977 . S
Zn143 O153 1.910 . S
O144 Zn141 1.933 . S
O144 C155 1.226 . S
O145 Zn143 1.932 . S
O145 C155 1.307 . S
O146 Zn139 1.919 . S
O146 C157 1.253 . S
O147 Zn141 1.941 . S
O147 C157 1.283 . S
O148 Zn141 1.965 . S
O148 C156 1.303 . S
O149 Zn142 1.938 . S
O149 C156 1.247 . S
O150 Zn142 1.906 . S
O150 C158 1.304 . S
O151 Zn139 1.924 . S
O151 C159 1.311 . S
O152 Zn143 1.977 . S
O152 C158 1.272 . S
O153 Zn143 1.910 . S
O153 C159 1.231 . S
C154 O138 1.225 . S
C154 O160 1.298 . S
C155 O144 1.226 . S
C155 O145 1.307 . S
C156 O148 1.303 . S
C156 O149 1.247 . S
C157 O146 1.253 . S
C157 O147 1.283 . S
C158 O150 1.304 . S
C158 O152 1.272 . S
C159 O151 1.311 . S
C159 O153 1.231 . S
O160 Zn142 1.953 . S
O160 C154 1.298 . S
O161 Zn162 1.953 . S
O161 C177 1.225 . S
Zn162 O161 1.953 . S
Zn162 O163 1.949 . S
Zn162 O169 1.919 . S
Zn162 O174 1.924 . S
O163 Zn162 1.949 . S
O163 Zn164 1.923 . S
O163 Zn165 1.950 . S
O163 Zn166 1.945 . S
Zn164 O163 1.923 . S
Zn164 O167 1.933 . S
Zn164 O170 1.941 . S
Zn164 O171 1.965 . S
Zn165 O163 1.950 . S
Zn165 O172 1.938 . S
Zn165 O173 1.906 . S
Zn165 O183 1.953 . S
Zn166 O163 1.945 . S
Zn166 O168 1.932 . S
Zn166 O175 1.977 . S
Zn166 O176 1.910 . S
O167 Zn164 1.933 . S
O167 C178 1.226 . S
O168 Zn166 1.932 . S
O168 C178 1.307 . S
O169 Zn162 1.919 . S
O169 C180 1.253 . S
O170 Zn164 1.941 . S
O170 C180 1.283 . S
O171 Zn164 1.965 . S
O171 C179 1.303 . S
O172 Zn165 1.938 . S
O172 C179 1.247 . S
O173 Zn165 1.906 . S
O173 C181 1.304 . S
O174 Zn162 1.924 . S
O174 C182 1.311 . S
O175 Zn166 1.977 . S
O175 C181 1.272 . S
O176 Zn166 1.910 . S
O176 C182 1.231 . S
C177 O161 1.225 . S
C177 O183 1.298 . S
C178 O167 1.226 . S
C178 O168 1.307 . S
C179 O171 1.303 . S
C179 O172 1.247 . S
C180 O169 1.253 . S
C180 O170 1.283 . S
C181 O173 1.304 . S
C181 O175 1.272 . S
C182 O174 1.311 . S
C182 O176 1.231 . S
O183 Zn165 1.953 . S
O183 C177 1.298 . S
C184 C185 1.349 . S
C184 C186 1.327 . S
C184 H209 0.950 . S
C185 C184 1.349 . S
C185 C201 1.349 . S
C186 C184 1.327 . S
C186 C205 1.429 . S
C186 H210 0.950 . S
C187 C204 1.574 . S
C187 C206 1.368 . S
C187 H211 0.949 . S
H188 C192 0.949 . S
C189 C190 1.349 . S
C189 C191 1.327 . S
C189 H212 0.950 . S
C190 C189 1.349 . S
C190 C202 1.349 . S
C191 C189 1.327 . S
C191 C207 1.429 . S
C191 H213 0.950 . S
C192 H188 0.949 . S
C192 C200 1.574 . S
C192 C208 1.368 . S
H193 C201 0.950 . S
H194 C199 0.950 . S
H195 C200 0.949 . S
H196 C202 0.950 . S
H197 C203 0.950 . S
H198 C204 0.949 . S
C199 H194 0.950 . S
C199 C201 1.327 . S
C199 C205 1.429 . S
C200 C192 1.574 . S
C200 H195 0.949 . S
C200 C206 1.368 . S
C201 C185 1.349 . S
C201 H193 0.950 . S
C201 C199 1.327 . S
C202 C190 1.349 . S
C202 H196 0.950 . S
C202 C203 1.327 . S
C203 H197 0.950 . S
C203 C202 1.327 . S
C203 C207 1.429 . S
C204 C187 1.574 . S
C204 H198 0.949 . S
C204 C208 1.368 . S
C205 C186 1.429 . S
C205 C199 1.429 . S
C205 C206 1.523 . S
C206 C187 1.368 . S
C206 C200 1.368 . S
C206 C205 1.523 . S
C207 C191 1.429 . S
C207 C203 1.429 . S
C207 C208 1.523 . S
C208 C192 1.368 . S
C208 C204 1.368 . S
C208 C207 1.523 . S
H209 C184 0.950 . S
H210 C186 0.950 . S
H211 C187 0.949 . S
H212 C189 0.950 . S
H213 C191 0.950 . S
C214 C215 1.349 . S
C214 C216 1.327 . S
C214 H239 0.950 . S
C215 C214 1.349 . S
C215 C231 1.349 . S
C216 C214 1.327 . S
C216 C235 1.429 . S
C216 H240 0.950 . S
C217 C234 1.574 . S
C217 C236 1.368 . S
C217 H241 0.949 . S
H218 C222 0.949 . S
C219 C220 1.349 . S
C219 C221 1.327 . S
C219 H242 0.950 . S
C220 C219 1.349 . S
C220 C232 1.349 . S
C221 C219 1.327 . S
C221 C237 1.429 . S
C221 H243 0.950 . S
C222 H218 0.949 . S
C222 C230 1.574 . S
C222 C238 1.368 . S
H223 C231 0.950 . S
H224 C229 0.950 . S
H225 C230 0.949 . S
H226 C232 0.950 . S
H227 C233 0.950 . S
H228 C234 0.949 . S
C229 H224 0.950 . S
C229 C231 1.327 . S
C229 C235 1.429 . S
C230 C222 1.574 . S
C230 H225 0.949 . S
C230 C236 1.368 . S
C231 C215 1.349 . S
C231 H223 0.950 . S
C231 C229 1.327 . S
C232 C220 1.349 . S
C232 H226 0.950 . S
C232 C233 1.327 . S
C233 H227 0.950 . S
C233 C232 1.327 . S
C233 C237 1.429 . S
C234 C217 1.574 . S
C234 H228 0.949 . S
C234 C238 1.368 . S
C235 C216 1.429 . S
C235 C229 1.429 . S
C235 C236 1.523 . S
C236 C217 1.368 . S
C236 C230 1.368 . S
C236 C235 1.523 . S
C237 C221 1.429 . S
C237 C233 1.429 . S
C237 C238 1.523 . S
C238 C222 1.368 . S
C238 C234 1.368 . S
C238 C237 1.523 . S
H239 C214 0.950 . S
H240 C216 0.950 . S
H241 C217 0.949 . S
H242 C219 0.950 . S
H243 C221 0.950 . S
C244 C245 1.349 . S
C244 C246 1.327 . S
C244 H269 0.950 . S
C245 C244 1.349 . S
C245 C261 1.349 . S
C246 C244 1.327 . S
C246 C265 1.429 . S
C246 H270 0.950 . S
C247 C264 1.574 . S
C247 C266 1.368 . S
C247 H271 0.949 . S
H248 C252 0.949 . S
C249 C250 1.349 . S
C249 C251 1.327 . S
C249 H272 0.950 . S
C250 C249 1.349 . S
C250 C262 1.349 . S
C251 C249 1.327 . S
C251 C267 1.429 . S
C251 H273 0.950 . S
C252 H248 0.949 . S
C252 C260 1.574 . S
C252 C268 1.368 . S
H253 C261 0.950 . S
H254 C259 0.950 . S
H255 C260 0.949 . S
H256 C262 0.950 . S
H257 C263 0.950 . S
H258 C264 0.949 . S
C259 H254 0.950 . S
C259 C261 1.327 . S
C259 C265 1.429 . S
C260 C252 1.574 . S
C260 H255 0.949 . S
C260 C266 1.368 . S
C261 C245 1.349 . S
C261 H253 0.950 . S
C261 C259 1.327 . S
C262 C250 1.349 . S
C262 H256 0.950 . S
C262 C263 1.327 . S
C263 H257 0.950 . S
C263 C262 1.327 . S
C263 C267 1.429 . S
C264 C247 1.574 . S
C264 H258 0.949 . S
C264 C268 1.368 . S
C265 C246 1.429 . S
C265 C259 1.429 . S
C265 C266 1.523 . S
C266 C247 1.368 . S
C266 C260 1.368 . S
C266 C265 1.523 . S
C267 C251 1.429 . S
C267 C263 1.429 . S
C267 C268 1.523 . S
C268 C252 1.368 . S
C268 C264 1.368 . S
C268 C267 1.523 . S
H269 C244 0.950 . S
H270 C246 0.950 . S
H271 C247 0.949 . S
H272 C249 0.950 . S
H273 C251 0.950 . S
C274 C275 1.349 . S
C274 C276 1.327 . S
C274 H299 0.950 . S
C275 C274 1.349 . S
C275 C291 1.349 . S
C276 C274 1.327 . S
C276 C295 1.429 . S
C276 H300 0.950 . S
C277 C294 1.574 . S
C277 C296 1.368 . S
C277 H301 0.949 . S
H278 C282 0.949 . S
C279 C280 1.349 . S
C279 C281 1.327 . S
C279 H302 0.950 . S
C280 C279 1.349 . S
C280 C292 1.349 . S
C281 C279 1.327 . S
C281 C297 1.429 . S
C281 H303 0.950 . S
C282 H278 0.949 . S
C282 C290 1.574 . S
C282 C298 1.368 . S
H283 C291 0.950 . S
H284 C289 0.950 . S
H285 C290 0.949 . S
H286 C292 0.950 . S
H287 C293 0.950 . S
H288 C294 0.949 . S
C289 H284 0.950 . S
C289 C291 1.327 . S
C289 C295 1.429 . S
C290 C282 1.574 . S
C290 H285 0.949 . S
C290 C296 1.368 . S
C291 C275 1.349 . S
C291 H283 0.950 . S
C291 C289 1.327 . S
C292 C280 1.349 . S
C292 H286 0.950 . S
C292 C293 1.327 . S
C293 H287 0.950 . S
C293 C292 1.327 . S
C293 C297 1.429 . S
C294 C277 1.574 . S
C294 H288 0.949 . S
C294 C298 1.368 . S
C295 C276 1.429 . S
C295 C289 1.429 . S
C295 C296 1.523 . S
C296 C277 1.368 . S
C296 C290 1.368 . S
C296 C295 1.523 . S
C297 C281 1.429 . S
C297 C293 1.429 . S
C297 C298 1.523 . S
C298 C282 1.368 . S
C298 C294 1.368 . S
C298 C297 1.523 . S
H299 C274 0.950 . S
H300 C276 0.950 . S
H301 C277 0.949 . S
H302 C279 0.950 . S
H303 C281 0.950 . S
C304 C305 1.349 . S
C304 C306 1.327 . S
C304 H329 0.950 . S
C305 C304 1.349 . S
C305 C321 1.349 . S
C306 C304 1.327 . S
C306 C325 1.429 . S
C306 H330 0.950 . S
C307 C324 1.574 . S
C307 C326 1.368 1_455 S
C307 H331 0.949 1_455 S
H308 C312 0.949 . S
C309 C310 1.349 . S
C309 C311 1.327 . S
C309 H332 0.950 . S
C310 C309 1.349 . S
C310 C322 1.349 . S
C311 C309 1.327 . S
C311 C327 1.429 . S
C311 H333 0.950 . S
C312 H308 0.949 . S
C312 C320 1.574 . S
C312 C328 1.368 . S
H313 C321 0.950 . S
H314 C319 0.950 . S
H315 C320 0.949 1_655 S
H316 C322 0.950 . S
H317 C323 0.950 . S
H318 C324 0.949 . S
C319 H314 0.950 . S
C319 C321 1.327 . S
C319 C325 1.429 . S
C320 C312 1.574 . S
C320 H315 0.949 1_455 S
C320 C326 1.368 1_455 S
C321 C305 1.349 . S
C321 H313 0.950 . S
C321 C319 1.327 . S
C322 C310 1.349 . S
C322 H316 0.950 . S
C322 C323 1.327 . S
C323 H317 0.950 . S
C323 C322 1.327 . S
C323 C327 1.429 . S
C324 C307 1.574 . S
C324 H318 0.949 . S
C324 C328 1.368 . S
C325 C306 1.429 . S
C325 C319 1.429 . S
C325 C326 1.523 . S
C326 C307 1.368 1_655 S
C326 C320 1.368 1_655 S
C326 C325 1.523 . S
C327 C311 1.429 . S
C327 C323 1.429 . S
C327 C328 1.523 . S
C328 C312 1.368 . S
C328 C324 1.368 . S
C328 C327 1.523 . S
H329 C304 0.950 . S
H330 C306 0.950 . S
H331 C307 0.949 1_655 S
H332 C309 0.950 . S
H333 C311 0.950 . S
C334 C335 1.349 . S
C334 C336 1.327 . S
C334 H359 0.950 . S
C335 C334 1.349 . S
C335 C351 1.349 . S
C336 C334 1.327 . S
C336 C355 1.429 . S
C336 H360 0.950 . S
C337 C354 1.574 . S
C337 C356 1.368 1_655 S
C337 H361 0.949 1_655 S
H338 C342 0.949 . S
C339 C340 1.349 . S
C339 C341 1.327 . S
C339 H362 0.950 . S
C340 C339 1.349 . S
C340 C352 1.349 . S
C341 C339 1.327 . S
C341 C357 1.429 . S
C341 H363 0.950 . S
C342 H338 0.949 . S
C342 C350 1.574 . S
C342 C358 1.368 . S
H343 C351 0.950 . S
H344 C349 0.950 . S
H345 C350 0.949 1_455 S
H346 C352 0.950 . S
H347 C353 0.950 . S
H348 C354 0.949 . S
C349 H344 0.950 . S
C349 C351 1.327 . S
C349 C355 1.429 . S
C350 C342 1.574 . S
C350 H345 0.949 1_655 S
C350 C356 1.368 1_655 S
C351 C335 1.349 . S
C351 H343 0.950 . S
C351 C349 1.327 . S
C352 C340 1.349 . S
C352 H346 0.950 . S
C352 C353 1.327 . S
C353 H347 0.950 . S
C353 C352 1.327 . S
C353 C357 1.429 . S
C354 C337 1.574 . S
C354 H348 0.949 . S
C354 C358 1.368 . S
C355 C336 1.429 . S
C355 C349 1.429 . S
C355 C356 1.523 . S
C356 C337 1.368 1_455 S
C356 C350 1.368 1_455 S
C356 C355 1.523 . S
C357 C341 1.429 . S
C357 C353 1.429 . S
C357 C358 1.523 . S
C358 C342 1.368 . S
C358 C354 1.368 . S
C358 C357 1.523 . S
H359 C334 0.950 . S
H360 C336 0.950 . S
H361 C337 0.949 1_455 S
H362 C339 0.950 . S
H363 C341 0.950 . S
C364 C365 1.349 . S
C364 C366 1.327 . S
C364 H389 0.950 . S
C365 C364 1.349 . S
C365 C381 1.349 . S
C366 C364 1.327 . S
C366 C385 1.429 . S
C366 H390 0.950 . S
C367 C384 1.574 . S
C367 C386 1.368 . S
C367 H391 0.949 . S
H368 C372 0.949 1_655 S
C369 C370 1.349 . S
C369 C371 1.327 . S
C369 H392 0.950 . S
C370 C369 1.349 . S
C370 C382 1.349 . S
C371 C369 1.327 . S
C371 C387 1.429 . S
C371 H393 0.950 . S
C372 H368 0.949 1_455 S
C372 C380 1.574 . S
C372 C388 1.368 1_455 S
H373 C381 0.950 . S
H374 C379 0.950 . S
H375 C380 0.949 . S
H376 C382 0.950 . S
H377 C383 0.950 . S
H378 C384 0.949 1_655 S
C379 H374 0.950 . S
C379 C381 1.327 . S
C379 C385 1.429 . S
C380 C372 1.574 . S
C380 H375 0.949 . S
C380 C386 1.368 . S
C381 C365 1.349 . S
C381 H373 0.950 . S
C381 C379 1.327 . S
C382 C370 1.349 . S
C382 H376 0.950 . S
C382 C383 1.327 . S
C383 H377 0.950 . S
C383 C382 1.327 . S
C383 C387 1.429 . S
C384 C367 1.574 . S
C384 H378 0.949 1_455 S
C384 C388 1.368 1_455 S
C385 C366 1.429 . S
C385 C379 1.429 . S
C385 C386 1.523 . S
C386 C367 1.368 . S
C386 C380 1.368 . S
C386 C385 1.523 . S
C387 C371 1.429 . S
C387 C383 1.429 . S
C387 C388 1.523 . S
C388 C372 1.368 1_655 S
C388 C384 1.368 1_655 S
C388 C387 1.523 . S
H389 C364 0.950 . S
H390 C366 0.950 . S
H391 C367 0.949 . S
H392 C369 0.950 . S
H393 C371 0.950 . S
C394 C395 1.349 . S
C394 C396 1.327 . S
C394 H419 0.950 . S
C395 C394 1.349 . S
C395 C411 1.349 . S
C396 C394 1.327 . S
C396 C415 1.429 . S
C396 H420 0.950 . S
C397 C414 1.574 . S
C397 C416 1.368 . S
C397 H421 0.949 . S
H398 C402 0.949 1_455 S
C399 C400 1.349 . S
C399 C401 1.327 . S
C399 H422 0.950 . S
C400 C399 1.349 . S
C400 C412 1.349 . S
C401 C399 1.327 . S
C401 C417 1.429 . S
C401 H423 0.950 . S
C402 H398 0.949 1_655 S
C402 C410 1.574 . S
C402 C418 1.368 1_655 S
H403 C411 0.950 . S
H404 C409 0.950 . S
H405 C410 0.949 . S
H406 C412 0.950 . S
H407 C413 0.950 . S
H408 C414 0.949 1_455 S
C409 H404 0.950 . S
C409 C411 1.327 . S
C409 C415 1.429 . S
C410 C402 1.574 . S
C410 H405 0.949 . S
C410 C416 1.368 . S
C411 C395 1.349 . S
C411 H403 0.950 . S
C411 C409 1.327 . S
C412 C400 1.349 . S
C412 H406 0.950 . S
C412 C413 1.327 . S
C413 H407 0.950 . S
C413 C412 1.327 . S
C413 C417 1.429 . S
C414 C397 1.574 . S
C414 H408 0.949 1_655 S
C414 C418 1.368 1_655 S
C415 C396 1.429 . S
C415 C409 1.429 . S
C415 C416 1.523 . S
C416 C397 1.368 . S
C416 C410 1.368 . S
C416 C415 1.523 . S
C417 C401 1.429 . S
C417 C413 1.429 . S
C417 C418 1.523 . S
C418 C402 1.368 1_455 S
C418 C414 1.368 1_455 S
C418 C417 1.523 . S
H419 C394 0.950 . S
H420 C396 0.950 . S
H421 C397 0.949 . S
H422 C399 0.950 . S
H423 C401 0.950 . S
C424 C425 1.349 . S
C424 C426 1.327 . S
C424 H449 0.950 . S
C425 C424 1.349 . S
C425 C441 1.349 . S
C426 C424 1.327 . S
C426 C445 1.429 . S
C426 H450 0.950 . S
C427 C444 1.574 . S
C427 C446 1.368 1_455 S
C427 H451 0.949 . S
H428 C432 0.949 . S
C429 C430 1.349 . S
C429 C431 1.327 . S
C429 H452 0.950 . S
C430 C429 1.349 . S
C430 C442 1.349 . S
C431 C429 1.327 . S
C431 C447 1.429 . S
C431 H453 0.950 . S
C432 H428 0.949 . S
C432 C440 1.574 . S
C432 C448 1.368 1_655 S
H433 C441 0.950 . S
H434 C439 0.950 1_455 S
H435 C440 0.949 . S
H436 C442 0.950 . S
H437 C443 0.950 1_655 S
H438 C444 0.949 . S
C439 H434 0.950 1_655 S
C439 C441 1.327 . S
C439 C445 1.429 . S
C440 C432 1.574 . S
C440 H435 0.949 . S
C440 C446 1.368 . S
C441 C425 1.349 . S
C441 H433 0.950 . S
C441 C439 1.327 . S
C442 C430 1.349 . S
C442 H436 0.950 . S
C442 C443 1.327 . S
C443 H437 0.950 1_455 S
C443 C442 1.327 . S
C443 C447 1.429 . S
C444 C427 1.574 . S
C444 H438 0.949 . S
C444 C448 1.368 . S
C445 C426 1.429 . S
C445 C439 1.429 . S
C445 C446 1.523 . S
C446 C427 1.368 1_655 S
C446 C440 1.368 . S
C446 C445 1.523 . S
C447 C431 1.429 . S
C447 C443 1.429 . S
C447 C448 1.523 . S
C448 C432 1.368 1_455 S
C448 C444 1.368 . S
C448 C447 1.523 . S
H449 C424 0.950 . S
H450 C426 0.950 . S
H451 C427 0.949 . S
H452 C429 0.950 . S
H453 C431 0.950 . S
C454 C455 1.349 . S
C454 C456 1.327 . S
C454 H479 0.950 . S
C455 C454 1.349 . S
C455 C471 1.349 . S
C456 C454 1.327 . S
C456 C475 1.429 . S
C456 H480 0.950 . S
C457 C474 1.574 . S
C457 C476 1.368 1_455 S
C457 H481 0.949 . S
H458 C462 0.949 . S
C459 C460 1.349 . S
C459 C461 1.327 . S
C459 H482 0.950 . S
C460 C459 1.349 . S
C460 C472 1.349 . S
C461 C459 1.327 . S
C461 C477 1.429 . S
C461 H483 0.950 . S
C462 H458 0.949 . S
C462 C470 1.574 . S
C462 C478 1.368 1_655 S
H463 C471 0.950 . S
H464 C469 0.950 1_455 S
H465 C470 0.949 . S
H466 C472 0.950 . S
H467 C473 0.950 1_655 S
H468 C474 0.949 . S
C469 H464 0.950 1_655 S
C469 C471 1.327 . S
C469 C475 1.429 . S
C470 C462 1.574 . S
C470 H465 0.949 . S
C470 C476 1.368 . S
C471 C455 1.349 . S
C471 H463 0.950 . S
C471 C469 1.327 . S
C472 C460 1.349 . S
C472 H466 0.950 . S
C472 C473 1.327 . S
C473 H467 0.950 1_455 S
C473 C472 1.327 . S
C473 C477 1.429 . S
C474 C457 1.574 . S
C474 H468 0.949 . S
C474 C478 1.368 . S
C475 C456 1.429 . S
C475 C469 1.429 . S
C475 C476 1.523 . S
C476 C457 1.368 1_655 S
C476 C470 1.368 . S
C476 C475 1.523 . S
C477 C461 1.429 . S
C477 C473 1.429 . S
C477 C478 1.523 . S
C478 C462 1.368 1_455 S
C478 C474 1.368 . S
C478 C477 1.523 . S
H479 C454 0.950 . S
H480 C456 0.950 . S
H481 C457 0.949 . S
H482 C459 0.950 . S
H483 C461 0.950 . S
C484 C485 1.349 . S
C484 C486 1.327 . S
C484 H509 0.950 . S
C485 C484 1.349 . S
C485 C501 1.349 . S
C486 C484 1.327 . S
C486 C505 1.429 . S
C486 H510 0.950 . S
C487 C504 1.574 1_565 S
C487 C506 1.368 . S
C487 H511 0.949 . S
H488 C492 0.949 . S
C489 C490 1.349 . S
C489 C491 1.327 . S
C489 H512 0.950 . S
C490 C489 1.349 . S
C490 C502 1.349 . S
C491 C489 1.327 . S
C491 C507 1.429 . S
C491 H513 0.950 . S
C492 H488 0.949 . S
C492 C500 1.574 1_545 S
C492 C508 1.368 . S
H493 C501 0.950 . S
H494 C499 0.950 . S
H495 C500 0.949 . S
H496 C502 0.950 . S
H497 C503 0.950 . S
H498 C504 0.949 . S
C499 H494 0.950 . S
C499 C501 1.327 . S
C499 C505 1.429 . S
C500 C492 1.574 1_565 S
C500 H495 0.949 . S
C500 C506 1.368 . S
C501 C485 1.349 . S
C501 H493 0.950 . S
C501 C499 1.327 . S
C502 C490 1.349 . S
C502 H496 0.950 . S
C502 C503 1.327 . S
C503 H497 0.950 . S
C503 C502 1.327 . S
C503 C507 1.429 . S
C504 C487 1.574 1_545 S
C504 H498 0.949 . S
C504 C508 1.368 . S
C505 C486 1.429 . S
C505 C499 1.429 . S
C505 C506 1.523 . S
C506 C487 1.368 . S
C506 C500 1.368 . S
C506 C505 1.523 . S
C507 C491 1.429 . S
C507 C503 1.429 . S
C507 C508 1.523 . S
C508 C492 1.368 . S
C508 C504 1.368 . S
C508 C507 1.523 . S
H509 C484 0.950 . S
H510 C486 0.950 . S
H511 C487 0.949 . S
H512 C489 0.950 . S
H513 C491 0.950 . S
C514 C515 1.349 . S
C514 C516 1.327 . S
C514 H539 0.950 . S
C515 C514 1.349 . S
C515 C531 1.349 . S
C516 C514 1.327 . S
C516 C535 1.429 . S
C516 H540 0.950 . S
C517 C534 1.574 1_545 S
C517 C536 1.368 . S
C517 H541 0.949 . S
H518 C522 0.949 . S
C519 C520 1.349 . S
C519 C521 1.327 . S
C519 H542 0.950 . S
C520 C519 1.349 . S
C520 C532 1.349 . S
C521 C519 1.327 . S
C521 C537 1.429 . S
C521 H543 0.950 . S
C522 H518 0.949 . S
C522 C530 1.574 1_565 S
C522 C538 1.368 . S
H523 C531 0.950 . S
H524 C529 0.950 . S
H525 C530 0.949 . S
H526 C532 0.950 . S
H527 C533 0.950 . S
H528 C534 0.949 . S
C529 H524 0.950 . S
C529 C531 1.327 . S
C529 C535 1.429 . S
C530 C522 1.574 1_545 S
C530 H525 0.949 . S
C530 C536 1.368 . S
C531 C515 1.349 . S
C531 H523 0.950 . S
C531 C529 1.327 . S
C532 C520 1.349 . S
C532 H526 0.950 . S
C532 C533 1.327 . S
C533 H527 0.950 . S
C533 C532 1.327 . S
C533 C537 1.429 . S
C534 C517 1.574 1_565 S
C534 H528 0.949 . S
C534 C538 1.368 . S
C535 C516 1.429 . S
C535 C529 1.429 . S
C535 C536 1.523 . S
C536 C517 1.368 . S
C536 C530 1.368 . S
C536 C535 1.523 . S
C537 C521 1.429 . S
C537 C533 1.429 . S
C537 C538 1.523 . S
C538 C522 1.368 . S
C538 C534 1.368 . S
C538 C537 1.523 . S
H539 C514 0.950 . S
H540 C516 0.950 . S
H541 C517 0.949 . S
H542 C519 0.950 . S
H543 C521 0.950 . S
C544 C545 1.349 . S
C544 C546 1.327 . S
C544 H569 0.950 . S
C545 C544 1.349 . S
C545 C561 1.349 . S
C546 C544 1.327 . S
C546 C565 1.429 . S
C546 H570 0.950 . S
C547 C564 1.574 . S
C547 C566 1.368 . S
C547 H571 0.949 . S
H548 C552 0.949 . S
C549 C550 1.349 . S
C549 C551 1.327 . S
C549 H572 0.950 . S
C550 C549 1.349 . S
C550 C562 1.349 . S
C551 C549 1.327 . S
C551 C567 1.429 . S
C551 H573 0.950 . S
C552 H548 0.949 . S
C552 C560 1.574 . S
C552 C568 1.368 . S
H553 C561 0.950 . S
H554 C559 0.950 . S
H555 C560 0.949 . S
H556 C562 0.950 . S
H557 C563 0.950 . S
H558 C564 0.949 . S
C559 H554 0.950 . S
C559 C561 1.327 . S
C559 C565 1.429 . S
C560 C552 1.574 . S
C560 H555 0.949 . S
C560 C566 1.368 . S
C561 C545 1.349 . S
C561 H553 0.950 . S
C561 C559 1.327 . S
C562 C550 1.349 . S
C562 H556 0.950 . S
C562 C563 1.327 . S
C563 H557 0.950 . S
C563 C562 1.327 . S
C563 C567 1.429 . S
C564 C547 1.574 . S
C564 H558 0.949 . S
C564 C568 1.368 . S
C565 C546 1.429 . S
C565 C559 1.429 . S
C565 C566 1.523 . S
C566 C547 1.368 . S
C566 C560 1.368 . S
C566 C565 1.523 . S
C567 C551 1.429 . S
C567 C563 1.429 . S
C567 C568 1.523 . S
C568 C552 1.368 . S
C568 C564 1.368 . S
C568 C567 1.523 . S
H569 C544 0.950 . S
H570 C546 0.950 . S
H571 C547 0.949 . S
H572 C549 0.950 . S
H573 C551 0.950 . S
C574 C575 1.349 . S
C574 C576 1.327 . S
C574 H599 0.950 . S
C575 C574 1.349 . S
C575 C591 1.349 . S
C576 C574 1.327 . S
C576 C595 1.429 . S
C576 H600 0.950 . S
C577 C594 1.574 . S
C577 C596 1.368 . S
C577 H601 0.949 . S
H578 C582 0.949 . S
C579 C580 1.349 . S
C579 C581 1.327 . S
C579 H602 0.950 . S
C580 C579 1.349 . S
C580 C592 1.349 . S
C581 C579 1.327 . S
C581 C597 1.429 . S
C581 H603 0.950 . S
C582 H578 0.949 . S
C582 C590 1.574 . S
C582 C598 1.368 . S
H583 C591 0.950 . S
H584 C589 0.950 . S
H585 C590 0.949 . S
H586 C592 0.950 . S
H587 C593 0.950 . S
H588 C594 0.949 . S
C589 H584 0.950 . S
C589 C591 1.327 . S
C589 C595 1.429 . S
C590 C582 1.574 . S
C590 H585 0.949 . S
C590 C596 1.368 . S
C591 C575 1.349 . S
C591 H583 0.950 . S
C591 C589 1.327 . S
C592 C580 1.349 . S
C592 H586 0.950 . S
C592 C593 1.327 . S
C593 H587 0.950 . S
C593 C592 1.327 . S
C593 C597 1.429 . S
C594 C577 1.574 . S
C594 H588 0.949 . S
C594 C598 1.368 . S
C595 C576 1.429 . S
C595 C589 1.429 . S
C595 C596 1.523 . S
C596 C577 1.368 . S
C596 C590 1.368 . S
C596 C595 1.523 . S
C597 C581 1.429 . S
C597 C593 1.429 . S
C597 C598 1.523 . S
C598 C582 1.368 . S
C598 C594 1.368 . S
C598 C597 1.523 . S
H599 C574 0.950 . S
H600 C576 0.950 . S
H601 C577 0.949 . S
H602 C579 0.950 . S
H603 C581 0.950 . S
C604 C605 1.349 . S
C604 C606 1.327 . S
C604 H629 0.950 . S
C605 C604 1.349 . S
C605 C621 1.349 . S
C606 C604 1.327 . S
C606 C625 1.429 . S
C606 H630 0.950 . S
C607 C624 1.574 . S
C607 C626 1.368 . S
C607 H631 0.949 . S
H608 C612 0.949 . S
C609 C610 1.349 . S
C609 C611 1.327 . S
C609 H632 0.950 . S
C610 C609 1.349 . S
C610 C622 1.349 . S
C611 C609 1.327 . S
C611 C627 1.429 . S
C611 H633 0.950 . S
C612 H608 0.949 . S
C612 C620 1.574 . S
C612 C628 1.368 . S
H613 C621 0.950 . S
H614 C619 0.950 . S
H615 C620 0.949 . S
H616 C622 0.950 . S
H617 C623 0.950 . S
H618 C624 0.949 . S
C619 H614 0.950 . S
C619 C621 1.327 . S
C619 C625 1.429 . S
C620 C612 1.574 . S
C620 H615 0.949 . S
C620 C626 1.368 . S
C621 C605 1.349 . S
C621 H613 0.950 . S
C621 C619 1.327 . S
C622 C610 1.349 . S
C622 H616 0.950 . S
C622 C623 1.327 . S
C623 H617 0.950 . S
C623 C622 1.327 . S
C623 C627 1.429 . S
C624 C607 1.574 . S
C624 H618 0.949 . S
C624 C628 1.368 . S
C625 C606 1.429 . S
C625 C619 1.429 . S
C625 C626 1.523 . S
C626 C607 1.368 . S
C626 C620 1.368 . S
C626 C625 1.523 . S
C627 C611 1.429 . S
C627 C623 1.429 . S
C627 C628 1.523 . S
C628 C612 1.368 . S
C628 C624 1.368 . S
C628 C627 1.523 . S
H629 C604 0.950 . S
H630 C606 0.950 . S
H631 C607 0.949 . S
H632 C609 0.950 . S
H633 C611 0.950 . S
C634 C635 1.349 . S
C634 C636 1.327 . S
C634 H659 0.950 . S
C635 C634 1.349 . S
C635 C651 1.349 . S
C636 C634 1.327 . S
C636 C655 1.429 . S
C636 H660 0.950 . S
C637 C654 1.574 . S
C637 C656 1.368 . S
C637 H661 0.949 . S
H638 C642 0.949 . S
C639 C640 1.349 . S
C639 C641 1.327 . S
C639 H662 0.950 . S
C640 C639 1.349 . S
C640 C652 1.349 . S
C641 C639 1.327 . S
C641 C657 1.429 . S
C641 H663 0.950 . S
C642 H638 0.949 . S
C642 C650 1.574 . S
C642 C658 1.368 . S
H643 C651 0.950 . S
H644 C649 0.950 . S
H645 C650 0.949 . S
H646 C652 0.950 . S
H647 C653 0.950 . S
H648 C654 0.949 . S
C649 H644 0.950 . S
C649 C651 1.327 . S
C649 C655 1.429 . S
C650 C642 1.574 . S
C650 H645 0.949 . S
C650 C656 1.368 . S
C651 C635 1.349 . S
C651 H643 0.950 . S
C651 C649 1.327 . S
C652 C640 1.349 . S
C652 H646 0.950 . S
C652 C653 1.327 . S
C653 H647 0.950 . S
C653 C652 1.327 . S
C653 C657 1.429 . S
C654 C637 1.574 . S
C654 H648 0.949 . S
C654 C658 1.368 . S
C655 C636 1.429 . S
C655 C649 1.429 . S
C655 C656 1.523 . S
C656 C637 1.368 . S
C656 C650 1.368 . S
C656 C655 1.523 . S
C657 C641 1.429 . S
C657 C653 1.429 . S
C657 C658 1.523 . S
C658 C642 1.368 . S
C658 C654 1.368 . S
C658 C657 1.523 . S
H659 C634 0.950 . S
H660 C636 0.950 . S
H661 C637 0.949 . S
H662 C639 0.950 . S
H663 C641 0.950 . S
C664 C665 1.349 . S
C664 C666 1.327 . S
C664 H689 0.950 . S
C665 C664 1.349 . S
C665 C681 1.349 1_455 S
C666 C664 1.327 . S
C666 C685 1.429 . S
C666 H690 0.950 . S
C667 C684 1.574 . S
C667 C686 1.368 1_655 S
C667 H691 0.949 . S
H668 C672 0.949 . S
C669 C670 1.349 . S
C669 C671 1.327 . S
C669 H692 0.950 . S
C670 C669 1.349 . S
C670 C682 1.349 1_655 S
C671 C669 1.327 . S
C671 C687 1.429 . S
C671 H693 0.950 . S
C672 H668 0.949 . S
C672 C680 1.574 . S
C672 C688 1.368 1_455 S
H673 C681 0.950 . S
H674 C679 0.950 . S
H675 C680 0.949 . S
H676 C682 0.950 . S
H677 C683 0.950 . S
H678 C684 0.949 . S
C679 H674 0.950 . S
C679 C681 1.327 . S
C679 C685 1.429 1_655 S
C680 C672 1.574 . S
C680 H675 0.949 . S
C680 C686 1.368 . S
C681 C665 1.349 1_655 S
C681 H673 0.950 . S
C681 C679 1.327 . S
C682 C670 1.349 1_455 S
C682 H676 0.950 . S
C682 C683 1.327 . S
C683 H677 0.950 . S
C683 C682 1.327 . S
C683 C687 1.429 1_455 S
C684 C667 1.574 . S
C684 H678 0.949 . S
C684 C688 1.368 . S
C685 C666 1.429 . S
C685 C679 1.429 1_455 S
C685 C686 1.523 . S
C686 C667 1.368 1_455 S
C686 C680 1.368 . S
C686 C685 1.523 . S
C687 C671 1.429 . S
C687 C683 1.429 1_655 S
C687 C688 1.523 . S
C688 C672 1.368 1_655 S
C688 C684 1.368 . S
C688 C687 1.523 . S
H689 C664 0.950 . S
H690 C666 0.950 . S
H691 C667 0.949 . S
H692 C669 0.950 . S
H693 C671 0.950 . S
C694 C695 1.349 1_455 S
C694 C696 1.327 . S
C694 H719 0.950 . S
C695 C694 1.349 1_655 S
C695 C711 1.349 . S
C696 C694 1.327 . S
C696 C715 1.429 1_455 S
C696 H720 0.950 . S
C697 C714 1.574 . S
C697 C716 1.368 . S
C697 H721 0.949 . S
H698 C702 0.949 . S
C699 C700 1.349 1_655 S
C699 C701 1.327 . S
C699 H722 0.950 . S
C700 C699 1.349 1_455 S
C700 C712 1.349 . S
C701 C699 1.327 . S
C701 C717 1.429 1_655 S
C701 H723 0.950 . S
C702 H698 0.949 . S
C702 C710 1.574 . S
C702 C718 1.368 . S
H703 C711 0.950 . S
H704 C709 0.950 . S
H705 C710 0.949 . S
H706 C712 0.950 . S
H707 C713 0.950 . S
H708 C714 0.949 . S
C709 H704 0.950 . S
C709 C711 1.327 . S
C709 C715 1.429 . S
C710 C702 1.574 . S
C710 H705 0.949 . S
C710 C716 1.368 1_455 S
C711 C695 1.349 . S
C711 H703 0.950 . S
C711 C709 1.327 . S
C712 C700 1.349 . S
C712 H706 0.950 . S
C712 C713 1.327 . S
C713 H707 0.950 . S
C713 C712 1.327 . S
C713 C717 1.429 . S
C714 C697 1.574 . S
C714 H708 0.949 . S
C714 C718 1.368 1_655 S
C715 C696 1.429 1_655 S
C715 C709 1.429 . S
C715 C716 1.523 . S
C716 C697 1.368 . S
C716 C710 1.368 1_655 S
C716 C715 1.523 . S
C717 C701 1.429 1_455 S
C717 C713 1.429 . S
C717 C718 1.523 . S
C718 C702 1.368 . S
C718 C714 1.368 1_455 S
C718 C717 1.523 . S
H719 C694 0.950 . S
H720 C696 0.950 . S
H721 C697 0.949 . S
H722 C699 0.950 . S
H723 C701 0.950 . S
C724 C725 1.349 1_455 S
C724 C726 1.327 . S
C724 H749 0.950 . S
C725 C724 1.349 1_655 S
C725 C741 1.349 . S
C726 C724 1.327 . S
C726 C745 1.429 1_455 S
C726 H750 0.950 . S
C727 C744 1.574 . S
C727 C746 1.368 . S
C727 H751 0.949 . S
H728 C732 0.949 . S
C729 C730 1.349 1_655 S
C729 C731 1.327 . S
C729 H752 0.950 . S
C730 C729 1.349 1_455 S
C730 C742 1.349 . S
C731 C729 1.327 . S
C731 C747 1.429 1_655 S
C731 H753 0.950 . S
C732 H728 0.949 . S
C732 C740 1.574 . S
C732 C748 1.368 . S
H733 C741 0.950 . S
H734 C739 0.950 . S
H735 C740 0.949 . S
H736 C742 0.950 . S
H737 C743 0.950 . S
H738 C744 0.949 . S
C739 H734 0.950 . S
C739 C741 1.327 . S
C739 C745 1.429 . S
C740 C732 1.574 . S
C740 H735 0.949 . S
C740 C746 1.368 1_455 S
C741 C725 1.349 . S
C741 H733 0.950 . S
C741 C739 1.327 . S
C742 C730 1.349 . S
C742 H736 0.950 . S
C742 C743 1.327 . S
C743 H737 0.950 . S
C743 C742 1.327 . S
C743 C747 1.429 . S
C744 C727 1.574 . S
C744 H738 0.949 . S
C744 C748 1.368 1_655 S
C745 C726 1.429 1_655 S
C745 C739 1.429 . S
C745 C746 1.523 . S
C746 C727 1.368 . S
C746 C740 1.368 1_655 S
C746 C745 1.523 . S
C747 C731 1.429 1_455 S
C747 C743 1.429 . S
C747 C748 1.523 . S
C748 C732 1.368 . S
C748 C744 1.368 1_455 S
C748 C747 1.523 . S
H749 C724 0.950 . S
H750 C726 0.950 . S
H751 C727 0.949 . S
H752 C729 0.950 . S
H753 C731 0.950 . S
C754 C755 1.349 . S
C754 C756 1.327 . S
C754 H779 0.950 . S
C755 C754 1.349 . S
C755 C771 1.349 1_655 S
C756 C754 1.327 . S
C756 C775 1.429 . S
C756 H780 0.950 . S
C757 C774 1.574 . S
C757 C776 1.368 1_455 S
C757 H781 0.949 . S
H758 C762 0.949 . S
C759 C760 1.349 . S
C759 C761 1.327 . S
C759 H782 0.950 . S
C760 C759 1.349 . S
C760 C772 1.349 1_455 S
C761 C759 1.327 . S
C761 C777 1.429 . S
C761 H783 0.950 . S
C762 H758 0.949 . S
C762 C770 1.574 . S
C762 C778 1.368 1_655 S
H763 C771 0.950 . S
H764 C769 0.950 . S
H765 C770 0.949 . S
H766 C772 0.950 . S
H767 C773 0.950 . S
H768 C774 0.949 . S
C769 H764 0.950 . S
C769 C771 1.327 . S
C769 C775 1.429 1_455 S
C770 C762 1.574 . S
C770 H765 0.949 . S
C770 C776 1.368 . S
C771 C755 1.349 1_455 S
C771 H763 0.950 . S
C771 C769 1.327 . S
C772 C760 1.349 1_655 S
C772 H766 0.950 . S
C772 C773 1.327 . S
C773 H767 0.950 . S
C773 C772 1.327 . S
C773 C777 1.429 1_655 S
C774 C757 1.574 . S
C774 H768 0.949 . S
C774 C778 1.368 . S
C775 C756 1.429 . S
C775 C769 1.429 1_655 S
C775 C776 1.523 . S
C776 C757 1.368 1_655 S
C776 C770 1.368 . S
C776 C775 1.523 . S
C777 C761 1.429 . S
C777 C773 1.429 1_455 S
C777 C778 1.523 . S
C778 C762 1.368 1_455 S
C778 C774 1.368 . S
C778 C777 1.523 . S
H779 C754 0.950 . S
H780 C756 0.950 . S
H781 C757 0.949 . S
H782 C759 0.950 . S
H783 C761 0.950 . S
C784 C785 1.349 . S
C784 C786 1.327 . S
C784 H809 0.950 . S
C785 C784 1.349 . S
C785 C801 1.349 . S
C786 C784 1.327 . S
C786 C805 1.429 . S
C786 H810 0.950 . S
C787 C804 1.574 . S
C787 C806 1.368 . S
C787 H811 0.949 . S
H788 C792 0.949 . S
C789 C790 1.349 . S
C789 C791 1.327 . S
C789 H812 0.950 . S
C790 C789 1.349 . S
C790 C802 1.349 . S
C791 C789 1.327 . S
C791 C807 1.429 . S
C791 H813 0.950 . S
C792 H788 0.949 . S
C792 C800 1.574 . S
C792 C808 1.368 . S
H793 C801 0.950 . S
H794 C799 0.950 . S
H795 C800 0.949 . S
H796 C802 0.950 . S
H797 C803 0.950 . S
H798 C804 0.949 . S
C799 H794 0.950 . S
C799 C801 1.327 . S
C799 C805 1.429 . S
C800 C792 1.574 . S
C800 H795 0.949 . S
C800 C806 1.368 . S
C801 C785 1.349 . S
C801 H793 0.950 . S
C801 C799 1.327 . S
C802 C790 1.349 . S
C802 H796 0.950 . S
C802 C803 1.327 . S
C803 H797 0.950 . S
C803 C802 1.327 . S
C803 C807 1.429 . S
C804 C787 1.574 . S
C804 H798 0.949 . S
C804 C808 1.368 . S
C805 C786 1.429 . S
C805 C799 1.429 . S
C805 C806 1.523 . S
C806 C787 1.368 . S
C806 C800 1.368 . S
C806 C805 1.523 . S
C807 C791 1.429 . S
C807 C803 1.429 . S
C807 C808 1.523 . S
C808 C792 1.368 . S
C808 C804 1.368 . S
C808 C807 1.523 . S
H809 C784 0.950 . S
H810 C786 0.950 . S
H811 C787 0.949 . S
H812 C789 0.950 . S
H813 C791 0.950 . S
C814 C815 1.349 . S
C814 C816 1.327 . S
C814 H839 0.950 . S
C815 C814 1.349 . S
C815 C831 1.349 . S
C816 C814 1.327 . S
C816 C835 1.429 . S
C816 H840 0.950 . S
C817 C834 1.574 . S
C817 C836 1.368 . S
C817 H841 0.949 . S
H818 C822 0.949 . S
C819 C820 1.349 . S
C819 C821 1.327 . S
C819 H842 0.950 . S
C820 C819 1.349 . S
C820 C832 1.349 . S
C821 C819 1.327 . S
C821 C837 1.429 . S
C821 H843 0.950 . S
C822 H818 0.949 . S
C822 C830 1.574 . S
C822 C838 1.368 . S
H823 C831 0.950 . S
H824 C829 0.950 . S
H825 C830 0.949 . S
H826 C832 0.950 . S
H827 C833 0.950 . S
H828 C834 0.949 . S
C829 H824 0.950 . S
C829 C831 1.327 . S
C829 C835 1.429 . S
C830 C822 1.574 . S
C830 H825 0.949 . S
C830 C836 1.368 . S
C831 C815 1.349 . S
C831 H823 0.950 . S
C831 C829 1.327 . S
C832 C820 1.349 . S
C832 H826 0.950 . S
C832 C833 1.327 . S
C833 H827 0.950 . S
C833 C832 1.327 . S
C833 C837 1.429 . S
C834 C817 1.574 . S
C834 H828 0.949 . S
C834 C838 1.368 . S
C835 C816 1.429 . S
C835 C829 1.429 . S
C835 C836 1.523 . S
C836 C817 1.368 . S
C836 C830 1.368 . S
C836 C835 1.523 . S
C837 C821 1.429 . S
C837 C833 1.429 . S
C837 C838 1.523 . S
C838 C822 1.368 . S
C838 C834 1.368 . S
C838 C837 1.523 . S
H839 C814 0.950 . S
H840 C816 0.950 . S
H841 C817 0.949 . S
H842 C819 0.950 . S
H843 C821 0.950 . S
C844 C845 1.349 . S
C844 C846 1.327 . S
C844 H869 0.950 . S
C845 C844 1.349 . S
C845 C861 1.349 . S
C846 C844 1.327 . S
C846 C865 1.429 . S
C846 H870 0.950 . S
C847 C864 1.574 . S
C847 C866 1.368 . S
C847 H871 0.949 . S
H848 C852 0.949 . S
C849 C850 1.349 . S
C849 C851 1.327 . S
C849 H872 0.950 . S
C850 C849 1.349 . S
C850 C862 1.349 . S
C851 C849 1.327 . S
C851 C867 1.429 . S
C851 H873 0.950 . S
C852 H848 0.949 . S
C852 C860 1.574 . S
C852 C868 1.368 . S
H853 C861 0.950 . S
H854 C859 0.950 . S
H855 C860 0.949 . S
H856 C862 0.950 . S
H857 C863 0.950 . S
H858 C864 0.949 . S
C859 H854 0.950 . S
C859 C861 1.327 . S
C859 C865 1.429 . S
C860 C852 1.574 . S
C860 H855 0.949 . S
C860 C866 1.368 . S
C861 C845 1.349 . S
C861 H853 0.950 . S
C861 C859 1.327 . S
C862 C850 1.349 . S
C862 H856 0.950 . S
C862 C863 1.327 . S
C863 H857 0.950 . S
C863 C862 1.327 . S
C863 C867 1.429 . S
C864 C847 1.574 . S
C864 H858 0.949 . S
C864 C868 1.368 . S
C865 C846 1.429 . S
C865 C859 1.429 . S
C865 C866 1.523 . S
C866 C847 1.368 . S
C866 C860 1.368 . S
C866 C865 1.523 . S
C867 C851 1.429 . S
C867 C863 1.429 . S
C867 C868 1.523 . S
C868 C852 1.368 . S
C868 C864 1.368 . S
C868 C867 1.523 . S
H869 C844 0.950 . S
H870 C846 0.950 . S
H871 C847 0.949 . S
H872 C849 0.950 . S
H873 C851 0.950 . S
C874 C875 1.349 . S
C874 C876 1.327 . S
C874 H899 0.950 . S
C875 C874 1.349 . S
C875 C891 1.349 . S
C876 C874 1.327 . S
C876 C895 1.429 . S
C876 H900 0.950 . S
C877 C894 1.574 . S
C877 C896 1.368 . S
C877 H901 0.949 . S
H878 C882 0.949 . S
C879 C880 1.349 . S
C879 C881 1.327 . S
C879 H902 0.950 . S
C880 C879 1.349 . S
C880 C892 1.349 . S
C881 C879 1.327 . S
C881 C897 1.429 . S
C881 H903 0.950 . S
C882 H878 0.949 . S
C882 C890 1.574 . S
C882 C898 1.368 . S
H883 C891 0.950 . S
H884 C889 0.950 . S
H885 C890 0.949 . S
H886 C892 0.950 . S
H887 C893 0.950 . S
H888 C894 0.949 . S
C889 H884 0.950 . S
C889 C891 1.327 . S
C889 C895 1.429 . S
C890 C882 1.574 . S
C890 H885 0.949 . S
C890 C896 1.368 . S
C891 C875 1.349 . S
C891 H883 0.950 . S
C891 C889 1.327 . S
C892 C880 1.349 . S
C892 H886 0.950 . S
C892 C893 1.327 . S
C893 H887 0.950 . S
C893 C892 1.327 . S
C893 C897 1.429 . S
C894 C877 1.574 . S
C894 H888 0.949 . S
C894 C898 1.368 . S
C895 C876 1.429 . S
C895 C889 1.429 . S
C895 C896 1.523 . S
C896 C877 1.368 . S
C896 C890 1.368 . S
C896 C895 1.523 . S
C897 C881 1.429 . S
C897 C893 1.429 . S
C897 C898 1.523 . S
C898 C882 1.368 . S
C898 C894 1.368 . S
C898 C897 1.523 . S
H899 C874 0.950 . S
H900 C876 0.950 . S
H901 C877 0.949 . S
H902 C879 0.950 . S
H903 C881 0.950 . S
C185 C16 1.234 . S
C190 C17 1.236 . S
C215 C40 1.236 . S
C220 C39 1.234 . S
C245 C63 1.236 . S
C250 C62 1.234 . S
C275 C85 1.234 . S
C280 C86 1.236 . S
C305 C108 1.234 . S
C310 C109 1.236 . S
C335 C131 1.234 . S
C340 C132 1.236 . S
C365 C155 1.236 . S
C370 C154 1.234 . S
C395 C178 1.236 . S
C400 C177 1.234 . S
C425 C44 1.494 . S
C430 C21 1.494 . S
C455 C90 1.494 . S
C460 C67 1.494 . S
C485 C113 1.494 . S
C490 C136 1.494 . S
C515 C159 1.494 . S
C520 C182 1.494 . S
C545 C18 1.455 . S
C550 C133 1.455 . S
C575 C110 1.455 . S
C580 C41 1.455 . S
C605 C64 1.455 . S
C610 C179 1.455 . S
C635 C87 1.455 . S
C640 C156 1.455 . S
C665 C20 1.433 . S
C670 C89 1.433 . S
C695 C43 1.433 . S
C700 C66 1.433 . S
C725 C42 1.427 . S
C730 C65 1.427 . S
C755 C88 1.427 . S
C760 C19 1.427 . S
C785 C112 1.433 . S
C790 C181 1.433 . S
C815 C135 1.433 . S
C820 C158 1.433 . S
C845 C134 1.427 . S
C850 C157 1.427 . S
C875 C180 1.427 . S
C880 C111 1.427 . S
