# Generated by pormake.
# Topology und, (4)-cn, num edge types: 1
# Building blocks:
#     Node 0, Type 0, BuildingBlock: NAHDIM_clean_sbu_0, # of connection points: 4
#     Node 1, Type 0, BuildingBlock: NAHDIM_clean_sbu_0, # of connection points: 4
#     Node 2, Type 0, BuildingBlock: NAHDIM_clean_sbu_0, # of connection points: 4
#     Node 3, Type 0, BuildingBlock: NAHDIM_clean_sbu_0, # of connection points: 4
#     Node 4, Type 0, BuildingBlock: NAHDIM_clean_sbu_0, # of connection points: 4
#     Node 5, Type 0, BuildingBlock: NAHDIM_clean_sbu_0, # of connection points: 4
#     Node 6, Type 0, BuildingBlock: NAHDIM_clean_sbu_0, # of connection points: 4
#     Node 7, Type 0, BuildingBlock: NAHDIM_clean_sbu_0, # of connection points: 4
#     Node 8, Type 0, BuildingBlock: NAHDIM_clean_sbu_0, # of connection points: 4
#     Node 9, Type 0, BuildingBlock: NAHDIM_clean_sbu_0, # of connection points: 4
#     Node 10, Type 0, BuildingBlock: NAHDIM_clean_sbu_0, # of connection points: 4
#     Node 11, Type 0, BuildingBlock: NAHDIM_clean_sbu_0, # of connection points: 4
#     Node 12, Type 0, BuildingBlock: NAHDIM_clean_sbu_0, # of connection points: 4
#     Node 13, Type 0, BuildingBlock: NAHDIM_clean_sbu_0, # of connection points: 4
#     Node 14, Type 0, BuildingBlock: NAHDIM_clean_sbu_0, # of connection points: 4
#     Node 15, Type 0, BuildingBlock: NAHDIM_clean_sbu_0, # of connection points: 4
#     Edge 16, Type (0, 0), BuildingBlock: EYOCIG_clean_linker_4, # of connection points: 2
#     Edge 17, Type (0, 0), BuildingBlock: EYOCIG_clean_linker_4, # of connection points: 2
#     Edge 18, Type (0, 0), BuildingBlock: EYOCIG_clean_linker_4, # of connection points: 2
#     Edge 19, Type (0, 0), BuildingBlock: EYOCIG_clean_linker_4, # of connection points: 2
#     Edge 20, Type (0, 0), BuildingBlock: EYOCIG_clean_linker_4, # of connection points: 2
#     Edge 21, Type (0, 0), BuildingBlock: EYOCIG_clean_linker_4, # of connection points: 2
#     Edge 22, Type (0, 0), BuildingBlock: EYOCIG_clean_linker_4, # of connection points: 2
#     Edge 23, Type (0, 0), BuildingBlock: EYOCIG_clean_linker_4, # of connection points: 2
#     Edge 24, Type (0, 0), BuildingBlock: EYOCIG_clean_linker_4, # of connection points: 2
#     Edge 25, Type (0, 0), BuildingBlock: EYOCIG_clean_linker_4, # of connection points: 2
#     Edge 26, Type (0, 0), BuildingBlock: EYOCIG_clean_linker_4, # of connection points: 2
#     Edge 27, Type (0, 0), BuildingBlock: EYOCIG_clean_linker_4, # of connection points: 2
#     Edge 28, Type (0, 0), BuildingBlock: EYOCIG_clean_linker_4, # of connection points: 2
#     Edge 29, Type (0, 0), BuildingBlock: EYOCIG_clean_linker_4, # of connection points: 2
#     Edge 30, Type (0, 0), BuildingBlock: EYOCIG_clean_linker_4, # of connection points: 2
#     Edge 31, Type (0, 0), BuildingBlock: EYOCIG_clean_linker_4, # of connection points: 2
#     Edge 32, Type (0, 0), BuildingBlock: EYOCIG_clean_linker_4, # of connection points: 2
#     Edge 33, Type (0, 0), BuildingBlock: EYOCIG_clean_linker_4, # of connection points: 2
#     Edge 34, Type (0, 0), BuildingBlock: EYOCIG_clean_linker_4, # of connection points: 2
#     Edge 35, Type (0, 0), BuildingBlock: EYOCIG_clean_linker_4, # of connection points: 2
#     Edge 36, Type (0, 0), BuildingBlock: EYOCIG_clean_linker_4, # of connection points: 2
#     Edge 37, Type (0, 0), BuildingBlock: EYOCIG_clean_linker_4, # of connection points: 2
#     Edge 38, Type (0, 0), BuildingBlock: EYOCIG_clean_linker_4, # of connection points: 2
#     Edge 39, Type (0, 0), BuildingBlock: EYOCIG_clean_linker_4, # of connection points: 2
#     Edge 40, Type (0, 0), BuildingBlock: EYOCIG_clean_linker_4, # of connection points: 2
#     Edge 41, Type (0, 0), BuildingBlock: EYOCIG_clean_linker_4, # of connection points: 2
#     Edge 42, Type (0, 0), BuildingBlock: EYOCIG_clean_linker_4, # of connection points: 2
#     Edge 43, Type (0, 0), BuildingBlock: EYOCIG_clean_linker_4, # of connection points: 2
#     Edge 44, Type (0, 0), BuildingBlock: EYOCIG_clean_linker_4, # of connection points: 2
#     Edge 45, Type (0, 0), BuildingBlock: EYOCIG_clean_linker_4, # of connection points: 2
#     Edge 46, Type (0, 0), BuildingBlock: EYOCIG_clean_linker_4, # of connection points: 2
#     Edge 47, Type (0, 0), BuildingBlock: EYOCIG_clean_linker_4, # of connection points: 2
# Relax obj value: 0.114
# Max RMSD: 0.175
# Mean RMSD: 0.175
data_MOF--net-und--node1-NAHDIM_clean_sbu_0--edge1-EYOCIG_clean_linker_4
_symmetry_space_group_name_H-M    P1
_symmetry_Int_Tables_number       1
_symmetry_cell_setting            triclinic
loop_
_symmetry_equiv_pos_as_xyz
'x, y, z'
_cell_length_a     48.142549
_cell_length_b     48.134969
_cell_length_c     17.947904
_cell_angle_alpha  89.984902
_cell_angle_beta   90.00863
_cell_angle_gamma 99.07101
loop_
_atom_site_label
_atom_site_type_symbol
_atom_site_fract_x
_atom_site_fract_y
_atom_site_fract_z
_atom_type_partial_charge
C0 C 0.19651 0.38351 0.07124 0.0
O1 O 0.21697 0.38229 0.11883 0.0
O2 O 0.22839 0.32206 0.08236 0.0
Zn3 Zn 0.22757 0.34783 -0.00569 0.0
O4 O 0.26362 0.37508 -0.02015 0.0
C5 C 0.24233 0.31048 0.88722 0.0
O6 O 0.26518 0.31448 0.92815 0.0
O7 O 0.1959 0.37007 0.0102 0.0
C8 C 0.2653 0.38866 0.91885 0.0
O9 O 0.24431 0.3845 0.87143 0.0
C10 C 0.25028 0.31595 0.11352 0.0
O11 O 0.27533 0.32758 0.09085 0.0
O12 O 0.22185 0.32308 0.90345 0.0
C13 C 0.87303 0.06058 0.1678 0.0
O14 O 0.87424 0.04006 0.12038 0.0
O15 O 0.93454 0.02879 0.157 0.0
Zn16 Zn 0.90873 0.02961 0.24494 0.0
O17 O 0.8815 0.99354 0.25934 0.0
C18 C 0.94606 0.01487 0.35215 0.0
O19 O 0.94209 0.99203 0.31119 0.0
O20 O 0.88648 0.06126 0.22885 0.0
C21 C 0.8679 0.99183 0.32028 0.0
O22 O 0.87201 0.01282 0.36771 0.0
C23 C 0.94062 0.0069 0.12583 0.0
O24 O 0.92895 0.98184 0.14842 0.0
O25 O 0.93344 0.03535 0.33589 0.0
C26 C 0.28523 0.64865 0.57373 0.0
O27 O 0.2647 0.64986 0.6211 0.0
O28 O 0.25302 0.7099 0.58387 0.0
Zn29 Zn 0.25416 0.68414 0.49597 0.0
O30 O 0.21822 0.65679 0.48086 0.0
C31 C 0.23946 0.72129 0.38825 0.0
O32 O 0.21647 0.71709 0.42859 0.0
O33 O 0.28587 0.66201 0.51255 0.0
C34 C 0.21678 0.64321 0.41992 0.0
O35 O 0.23794 0.64738 0.37306 0.0
C36 C 0.23102 0.71605 0.61433 0.0
O37 O 0.20604 0.70447 0.591 0.0
O38 O 0.26002 0.70889 0.40511 0.0
C39 C 0.6081 0.97148 0.66615 0.0
O40 O 0.60667 0.99195 0.61871 0.0
O41 O 0.54672 0.00341 0.65669 0.0
Zn42 Zn 0.57264 0.00243 0.74437 0.0
O43 O 0.59985 0.0385 0.75908 0.0
C44 C 0.53555 0.01695 0.8525 0.0
O45 O 0.53961 0.03997 0.81223 0.0
O46 O 0.5949 0.97084 0.72756 0.0
C47 C 0.61351 0.04009 0.81992 0.0
O48 O 0.60949 0.01899 0.86704 0.0
C49 C 0.54034 0.02535 0.62639 0.0
O50 O 0.55175 0.05038 0.64975 0.0
O51 O 0.54803 -0.00354 0.83547 0.0
C52 C 0.78525 0.64865 0.91536 0.0
O53 O 0.76476 0.64999 0.86795 0.0
O54 O 0.75313 0.70991 0.90569 0.0
Zn55 Zn 0.7542 0.68405 -0.00654 0.0
O56 O 0.7182 0.65676 0.00834 0.0
C57 C 0.73959 0.72117 0.10139 0.0
O58 O 0.71659 0.71705 0.06107 0.0
O59 O 0.78587 0.66189 -0.02328 0.0
C60 C 0.71667 0.64314 0.06925 0.0
O61 O 0.73778 0.64725 0.11631 0.0
C62 C 0.73117 0.71617 0.87528 0.0
O63 O 0.70617 0.70466 0.89859 0.0
O64 O 0.76012 0.70873 0.08446 0.0
C65 C 0.10795 0.97179 0.82357 0.0
O66 O 0.10663 0.99227 0.87102 0.0
O67 O 0.04673 0.00398 0.8333 0.0
Zn68 Zn 0.07257 0.00291 0.74553 0.0
O69 O 0.0999 0.03888 0.73068 0.0
C70 C 0.03552 0.01759 0.63745 0.0
O71 O 0.0397 0.04062 0.67763 0.0
O72 O 0.0947 0.9712 0.76223 0.0
C73 C 0.11356 0.04037 0.66985 0.0
O74 O 0.10945 0.01924 0.62287 0.0
C75 C 0.04042 0.02595 0.86356 0.0
O76 O 0.05187 0.05096 0.84009 0.0
O77 O 0.04789 -0.00297 0.65453 0.0
C78 C 0.69687 0.38386 0.417 0.0
O79 O 0.71732 0.38267 0.36939 0.0
O80 O 0.72874 0.32246 0.40565 0.0
Zn81 Zn 0.72795 0.34817 0.49382 0.0
O82 O 0.76401 0.3754 0.50833 0.0
C83 C 0.7426 0.31053 0.60036 0.0
O84 O 0.76536 0.31437 0.55909 0.0
O85 O 0.69628 0.37041 0.47804 0.0
C86 C 0.76577 0.38887 0.56947 0.0
O87 O 0.74485 0.38463 0.61706 0.0
C88 C 0.7506 0.31652 0.37401 0.0
O89 O 0.77567 0.32828 0.39624 0.0
O90 O 0.72222 0.32334 0.58454 0.0
C91 C 0.37316 0.06015 0.32176 0.0
O92 O 0.3743 0.03963 0.36924 0.0
O93 O 0.43451 0.02814 0.33285 0.0
Zn94 Zn 0.40877 0.02904 0.2448 0.0
O95 O 0.38144 0.99304 0.23031 0.0
C96 C 0.44609 0.01419 0.13775 0.0
O97 O 0.44203 0.99134 0.17869 0.0
O98 O 0.38662 0.06077 0.26075 0.0
C99 C 0.36786 0.99142 0.16933 0.0
O100 O 0.37206 0.01242 0.12196 0.0
C101 C 0.44054 0.00622 0.36408 0.0
O102 O 0.42884 0.98118 0.34147 0.0
O103 O 0.43353 0.03471 0.15395 0.0
C104 C 0.69631 0.88345 0.5711 0.0
O105 O 0.71682 0.88225 0.61854 0.0
O106 O 0.72825 0.82206 0.5818 0.0
Zn107 Zn 0.72737 0.84788 0.49387 0.0
O108 O 0.76339 0.87518 0.47949 0.0
C109 C 0.74219 0.81061 0.38664 0.0
O110 O 0.76504 0.81463 0.42759 0.0
O111 O 0.69567 0.87005 0.51 0.0
C112 C 0.76506 0.88879 0.41855 0.0
O113 O 0.74408 0.88464 0.37111 0.0
C114 C 0.75016 0.816 0.61296 0.0
O115 O 0.7752 0.82771 0.59037 0.0
O116 O 0.72168 0.82317 0.40291 0.0
C117 C 0.37343 0.56044 0.66758 0.0
O118 O 0.37465 0.53999 0.61995 0.0
O119 O 0.43478 0.52845 0.6566 0.0
Zn120 Zn 0.40902 0.5293 0.74463 0.0
O121 O 0.38175 0.49325 0.75912 0.0
C122 C 0.44637 0.51451 0.85175 0.0
O123 O 0.44236 0.49165 0.81084 0.0
O124 O 0.38682 0.561 0.72869 0.0
C125 C 0.3682 0.49156 0.82014 0.0
O126 O 0.37239 0.51254 0.86759 0.0
C127 C 0.44086 0.50655 0.62545 0.0
O128 O 0.42922 0.4815 0.64811 0.0
O129 O 0.43378 0.535 0.83549 0.0
C130 C 0.78482 0.14866 0.07293 0.0
O131 O 0.7644 0.15016 0.12044 0.0
O132 O 0.75291 0.21004 0.082 0.0
Zn133 Zn 0.75384 0.18406 -0.00553 0.0
O134 O 0.71777 0.15684 -0.02009 0.0
C135 C 0.73932 0.22093 0.88559 0.0
O136 O 0.71618 0.21676 0.92533 0.0
O137 O 0.78542 0.1618 0.0114 0.0
C138 C 0.71625 0.14303 0.91931 0.0
O139 O 0.7374 0.14695 0.87238 0.0
C140 C 0.73101 0.21675 0.11172 0.0
O141 O 0.70597 0.20563 0.08782 0.0
O142 O 0.75985 0.20861 0.90323 0.0
C143 C 0.10855 0.47198 0.16471 0.0
O144 O 0.10732 0.49247 0.11719 0.0
O145 O 0.0474 0.50429 0.15439 0.0
Zn146 Zn 0.07314 0.50317 0.24236 0.0
O147 O 0.1005 0.53911 0.2574 0.0
C148 C 0.03598 0.5179 0.34998 0.0
O149 O 0.04019 0.5409 0.30964 0.0
O150 O 0.09523 0.47142 0.22594 0.0
C151 C 0.11409 0.54055 0.31836 0.0
O152 O 0.1099 0.5194 0.36528 0.0
C153 C 0.04124 0.52628 0.12384 0.0
O154 O 0.0528 0.55127 0.14713 0.0
O155 O 0.04837 0.49734 0.33318 0.0
C156 C 0.28508 0.14841 0.41595 0.0
O157 O 0.26461 0.14979 0.36847 0.0
O158 O 0.25308 0.20977 0.40617 0.0
Zn159 Zn 0.25408 0.1839 0.49394 0.0
O160 O 0.21804 0.15666 0.50876 0.0
C161 C 0.23952 0.22099 0.60201 0.0
O162 O 0.21649 0.21688 0.56179 0.0
O163 O 0.2857 0.16166 0.47728 0.0
C164 C 0.21651 0.14299 0.56961 0.0
O165 O 0.23763 0.14704 0.61663 0.0
C166 C 0.23114 0.21614 0.37589 0.0
O167 O 0.20612 0.20473 0.39933 0.0
O168 O 0.26003 0.20855 0.58496 0.0
C169 C 0.60852 0.47193 0.32315 0.0
O170 O 0.60719 0.49243 0.37052 0.0
O171 O 0.54708 0.50383 0.33297 0.0
Zn172 Zn 0.57294 0.50286 0.24521 0.0
O173 O 0.60017 0.5389 0.23037 0.0
C174 C 0.53587 0.51741 0.13702 0.0
O175 O 0.54 0.54046 0.17712 0.0
O176 O 0.5952 0.47125 0.2619 0.0
C177 C 0.61388 0.54039 0.16961 0.0
O178 O 0.60986 0.51923 0.12272 0.0
C179 C 0.54064 0.52577 0.36313 0.0
O180 O 0.55198 0.5508 0.33957 0.0
O181 O 0.54829 0.49689 0.15419 0.0
C182 C 0.19595 0.88346 0.91808 0.0
O183 O 0.21642 0.88221 0.87057 0.0
O184 O 0.22786 0.82202 0.9075 0.0
Zn185 Zn 0.227 0.84786 -0.00463 0.0
O186 O 0.26305 0.87512 0.00972 0.0
C187 C 0.24183 0.81067 0.10281 0.0
O188 O 0.2647 0.81472 0.06196 0.0
O189 O 0.19533 0.87008 -0.02078 0.0
C190 C 0.26475 0.88872 0.07066 0.0
O191 O 0.24376 0.8846 0.11808 0.0
C192 C 0.24977 0.81589 0.87654 0.0
O193 O 0.27481 0.82754 0.89928 0.0
O194 O 0.2213 0.82318 0.08639 0.0
C195 C 0.87364 0.5608 0.82025 0.0
O196 O 0.875 0.54033 0.86774 0.0
O197 O 0.9352 0.52911 0.83058 0.0
Zn198 Zn 0.9093 0.52989 0.74278 0.0
O199 O 0.88214 0.49376 0.7285 0.0
C200 C 0.94656 0.51525 0.63531 0.0
O201 O 0.94265 0.49239 0.67622 0.0
O202 O 0.88698 0.56147 0.75905 0.0
C203 C 0.86853 0.492 0.66756 0.0
O204 O 0.87259 0.51297 0.62005 0.0
C205 C 0.94141 0.50724 0.86157 0.0
O206 O 0.92983 0.48217 0.83891 0.0
O207 O 0.93393 0.5357 0.65169 0.0
C208 C 0.2433 0.27678 0.21765 0.0
C209 C 0.24729 0.29474 0.17034 0.0
C210 C 0.23802 0.2554 0.27198 0.0
C211 C 0.23406 0.23741 0.31921 0.0
C212 C 0.98121 0.01648 0.4652 0.0
C213 C 0.96501 0.01656 0.4141 0.0
C214 C 0.00037 0.01582 0.52435 0.0
C215 C 0.01656 0.01579 0.57549 0.0
C216 C 0.23769 0.75527 0.71831 0.0
C217 C 0.23382 0.73729 0.67105 0.0
C218 C 0.24289 0.77666 0.77261 0.0
C219 C 0.24683 0.79464 0.81983 0.0
C220 C 0.48128 0.01575 0.02481 0.0
C221 C 0.46507 0.01584 0.07586 0.0
C222 C 0.50044 0.01509 0.96567 0.0
C223 C 0.51662 0.01508 0.91452 0.0
C224 C 0.24034 0.77557 0.21599 0.0
C225 C 0.2402 0.79175 0.16484 0.0
C226 C 0.24109 0.75644 0.27516 0.0
C227 C 0.24119 0.74025 0.32629 0.0
C228 C 0.47969 0.01315 0.46823 0.0
C229 C 0.46174 0.00916 0.42092 0.0
C230 C 0.50107 0.01843 0.52255 0.0
C231 C 0.51906 0.0224 0.56975 0.0
C232 C 0.24136 0.25613 0.71512 0.0
C233 C 0.24137 0.23994 0.66398 0.0
C234 C 0.24072 0.27529 0.77425 0.0
C235 C 0.24065 0.2915 0.82532 0.0
C236 C 0.00118 0.01914 0.96747 0.0
C237 C 0.01916 0.02307 0.92024 0.0
C238 C 0.9798 0.01387 0.02178 0.0
C239 C 0.96184 0.00988 0.06905 0.0
C240 C 0.73798 0.75542 0.77134 0.0
C241 C 0.73404 0.73743 0.81858 0.0
C242 C 0.74324 0.7768 0.71703 0.0
C243 C 0.74721 0.79478 0.66975 0.0
C244 C 0.7435 0.27742 0.26974 0.0
C245 C 0.74757 0.29535 0.31709 0.0
C246 C 0.7381 0.25605 0.21543 0.0
C247 C 0.73405 0.23805 0.16827 0.0
C248 C 0.7414 0.25607 0.77236 0.0
C249 C 0.7413 0.23988 0.82357 0.0
C250 C 0.74088 0.27526 0.71321 0.0
C251 C 0.74088 0.29151 0.66219 0.0
C252 C 0.74135 0.75631 0.21448 0.0
C253 C 0.74139 0.74012 0.16336 0.0
C254 C 0.74065 0.77546 0.27361 0.0
C255 C 0.74054 0.79166 0.3247 0.0
C256 C 0.50073 0.51552 0.02388 0.0
C257 C 0.51692 0.51554 0.07503 0.0
C258 C 0.48156 0.51614 0.96473 0.0
C259 C 0.46535 0.51619 0.91365 0.0
C260 C 0.0008 0.51623 0.46297 0.0
C261 C 0.017 0.51616 0.41189 0.0
C262 C 0.98165 0.51691 0.52212 0.0
C263 C 0.96548 0.51698 0.57327 0.0
C264 C 0.00205 0.51952 0.01978 0.0
C265 C 0.02001 0.52344 0.06707 0.0
C266 C 0.98066 0.51426 0.96547 0.0
C267 C 0.96268 0.51026 0.91826 0.0
C268 C 0.48002 0.51354 0.52134 0.0
C269 C 0.46207 0.50953 0.56863 0.0
C270 C 0.5014 0.51884 0.46702 0.0
C271 C 0.51938 0.52282 0.41979 0.0
C272 C 0.14015 0.43386 0.12917 0.0
C273 C 0.1255 0.45081 0.14754 0.0
C274 C 0.15855 0.41534 0.1064 0.0
C275 C 0.17542 0.40058 0.08815 0.0
C276 C 0.80888 0.92644 0.38171 0.0
C277 C 0.78941 0.90905 0.40121 0.0
C278 C 0.83034 0.94794 0.35715 0.0
C279 C 0.84769 0.96745 0.33764 0.0
C280 C 0.32325 0.61695 0.60945 0.0
C281 C 0.30635 0.63165 0.591 0.0
C282 C 0.34171 0.59849 0.63229 0.0
C283 C 0.35642 0.58158 0.6506 0.0
C284 C 0.67243 0.10546 0.88207 0.0
C285 C 0.69188 0.12283 0.90177 0.0
C286 C 0.651 0.08398 0.85726 0.0
C287 C 0.63367 0.06448 0.83753 0.0
C288 C 0.15164 0.58427 0.35647 0.0
C289 C 0.13429 0.56486 0.33639 0.0
C290 C 0.17305 0.60568 0.38175 0.0
C291 C 0.19247 0.62301 0.40185 0.0
C292 C 0.63984 0.93355 0.62996 0.0
C293 C 0.62513 0.95042 0.64863 0.0
C294 C 0.65828 0.91513 0.60684 0.0
C295 C 0.67517 0.90043 0.58831 0.0
C296 C 0.33062 0.44771 0.85717 0.0
C297 C 0.34798 0.4672 0.83758 0.0
C298 C 0.30915 0.42624 0.88184 0.0
C299 C 0.28967 0.40887 0.90143 0.0
C300 C 0.82278 0.11695 0.10912 0.0
C301 C 0.80589 0.13164 0.09048 0.0
C302 C 0.84125 0.09854 0.13217 0.0
C303 C 0.85599 0.08168 0.15064 0.0
C304 C 0.8233 0.61705 0.8792 0.0
C305 C 0.80638 0.6317 0.89786 0.0
C306 C 0.8418 0.59868 0.85607 0.0
C307 C 0.85657 0.58185 0.83752 0.0
C308 C 0.17265 0.10552 0.60723 0.0
C309 C 0.19213 0.12284 0.58737 0.0
C310 C 0.15118 0.08411 0.63221 0.0
C311 C 0.1338 0.06469 0.65208 0.0
C312 C 0.65881 0.41558 0.3818 0.0
C313 C 0.67572 0.40087 0.40007 0.0
C314 C 0.64033 0.43401 0.35897 0.0
C315 C 0.62558 0.45088 0.34049 0.0
C316 C 0.33017 0.94766 0.13229 0.0
C317 C 0.34758 0.9671 0.15188 0.0
C318 C 0.30865 0.92623 0.10764 0.0
C319 C 0.28914 0.9089 0.08807 0.0
C320 C 0.80959 0.42652 0.6063 0.0
C321 C 0.79012 0.40913 0.58679 0.0
C322 C 0.83104 0.44804 0.63085 0.0
C323 C 0.84836 0.46757 0.65031 0.0
C324 C 0.32304 0.11666 0.38008 0.0
C325 C 0.30616 0.13138 0.39859 0.0
C326 C 0.34147 0.09821 0.35716 0.0
C327 C 0.35618 0.0813 0.33879 0.0
C328 C 0.65141 0.58419 0.13194 0.0
C329 C 0.63406 0.56475 0.15183 0.0
C330 C 0.67286 0.60562 0.10693 0.0
C331 C 0.69232 0.62296 0.08705 0.0
C332 C 0.15798 0.91524 0.88252 0.0
C333 C 0.17485 0.9005 0.90096 0.0
C334 C 0.13957 0.93373 0.85953 0.0
C335 C 0.12491 0.95065 0.84096 0.0
loop_
_geom_bond_atom_site_label_1
_geom_bond_atom_site_label_2
_geom_bond_distance
_geom_bond_site_symmetry_2
_ccdc_geom_bond_type
C0 O1 1.160 . S
C0 O7 1.185 . S
O1 C0 1.160 . S
O2 Zn3 1.899 . S
O2 C10 1.284 . S
Zn3 O2 1.899 . S
Zn3 O4 2.032 . S
Zn3 O7 2.086 . S
Zn3 O12 1.977 1_554 S
O4 Zn3 2.032 . S
O4 C8 1.278 1_554 S
C5 O6 1.203 . S
C5 O12 1.267 . S
O6 C5 1.203 . S
O7 C0 1.185 . S
O7 Zn3 2.086 . S
C8 O4 1.278 1_556 S
C8 O9 1.211 . S
O9 C8 1.211 . S
C10 O2 1.284 . S
C10 O11 1.273 . S
O11 C10 1.273 . S
O12 Zn3 1.977 1_556 S
O12 C5 1.267 . S
C13 O14 1.160 . S
C13 O20 1.185 . S
O14 C13 1.160 . S
O15 Zn16 1.899 . S
O15 C23 1.284 . S
Zn16 O15 1.899 . S
Zn16 O17 2.032 . S
Zn16 O20 2.086 . S
Zn16 O25 1.977 . S
O17 Zn16 2.032 . S
O17 C21 1.278 1_545 S
C18 O19 1.203 . S
C18 O25 1.267 . S
O19 C18 1.203 . S
O20 C13 1.185 . S
O20 Zn16 2.086 . S
C21 O17 1.278 1_565 S
C21 O22 1.211 . S
O22 C21 1.211 . S
C23 O15 1.284 . S
C23 O24 1.273 1_545 S
O24 C23 1.273 1_565 S
O25 Zn16 1.977 . S
O25 C18 1.267 . S
C26 O27 1.160 . S
C26 O33 1.185 . S
O27 C26 1.160 . S
O28 Zn29 1.899 . S
O28 C36 1.284 . S
Zn29 O28 1.899 . S
Zn29 O30 2.032 . S
Zn29 O33 2.086 . S
Zn29 O38 1.977 . S
O30 Zn29 2.032 . S
O30 C34 1.278 . S
C31 O32 1.203 . S
C31 O38 1.267 . S
O32 C31 1.203 . S
O33 C26 1.185 . S
O33 Zn29 2.086 . S
C34 O30 1.278 . S
C34 O35 1.211 . S
O35 C34 1.211 . S
C36 O28 1.284 . S
C36 O37 1.273 . S
O37 C36 1.273 . S
O38 Zn29 1.977 . S
O38 C31 1.267 . S
C39 O40 1.160 . S
C39 O46 1.185 . S
O40 C39 1.160 . S
O41 Zn42 1.899 . S
O41 C49 1.284 . S
Zn42 O41 1.899 . S
Zn42 O43 2.032 . S
Zn42 O46 2.086 1_545 S
Zn42 O51 1.977 . S
O43 Zn42 2.032 . S
O43 C47 1.278 . S
C44 O45 1.203 . S
C44 O51 1.267 . S
O45 C44 1.203 . S
O46 C39 1.185 . S
O46 Zn42 2.086 1_565 S
C47 O43 1.278 . S
C47 O48 1.211 . S
O48 C47 1.211 . S
C49 O41 1.284 . S
C49 O50 1.273 . S
O50 C49 1.273 . S
O51 Zn42 1.977 . S
O51 C44 1.267 . S
C52 O53 1.160 . S
C52 O59 1.185 1_556 S
O53 C52 1.160 . S
O54 Zn55 1.899 1_556 S
O54 C62 1.284 . S
Zn55 O54 1.899 1_554 S
Zn55 O56 2.032 . S
Zn55 O59 2.086 . S
Zn55 O64 1.977 . S
O56 Zn55 2.032 . S
O56 C60 1.278 . S
C57 O58 1.203 . S
C57 O64 1.267 . S
O58 C57 1.203 . S
O59 C52 1.185 1_554 S
O59 Zn55 2.086 . S
C60 O56 1.278 . S
C60 O61 1.211 . S
O61 C60 1.211 . S
C62 O54 1.284 . S
C62 O63 1.273 . S
O63 C62 1.273 . S
O64 Zn55 1.977 . S
O64 C57 1.267 . S
C65 O66 1.160 . S
C65 O72 1.185 . S
O66 C65 1.160 . S
O67 Zn68 1.899 . S
O67 C75 1.284 . S
Zn68 O67 1.899 . S
Zn68 O69 2.032 . S
Zn68 O72 2.086 1_545 S
Zn68 O77 1.977 . S
O69 Zn68 2.032 . S
O69 C73 1.278 . S
C70 O71 1.203 . S
C70 O77 1.267 . S
O71 C70 1.203 . S
O72 C65 1.185 . S
O72 Zn68 2.086 1_565 S
C73 O69 1.278 . S
C73 O74 1.211 . S
O74 C73 1.211 . S
C75 O67 1.284 . S
C75 O76 1.273 . S
O76 C75 1.273 . S
O77 Zn68 1.977 . S
O77 C70 1.267 . S
C78 O79 1.160 . S
C78 O85 1.185 . S
O79 C78 1.160 . S
O80 Zn81 1.899 . S
O80 C88 1.284 . S
Zn81 O80 1.899 . S
Zn81 O82 2.032 . S
Zn81 O85 2.086 . S
Zn81 O90 1.977 . S
O82 Zn81 2.032 . S
O82 C86 1.278 . S
C83 O84 1.203 . S
C83 O90 1.267 . S
O84 C83 1.203 . S
O85 C78 1.185 . S
O85 Zn81 2.086 . S
C86 O82 1.278 . S
C86 O87 1.211 . S
O87 C86 1.211 . S
C88 O80 1.284 . S
C88 O89 1.273 . S
O89 C88 1.273 . S
O90 Zn81 1.977 . S
O90 C83 1.267 . S
C91 O92 1.160 . S
C91 O98 1.185 . S
O92 C91 1.160 . S
O93 Zn94 1.899 . S
O93 C101 1.284 . S
Zn94 O93 1.899 . S
Zn94 O95 2.032 . S
Zn94 O98 2.086 . S
Zn94 O103 1.977 . S
O95 Zn94 2.032 . S
O95 C99 1.278 1_545 S
C96 O97 1.203 . S
C96 O103 1.267 . S
O97 C96 1.203 . S
O98 C91 1.185 . S
O98 Zn94 2.086 . S
C99 O95 1.278 1_565 S
C99 O100 1.211 . S
O100 C99 1.211 . S
C101 O93 1.284 . S
C101 O102 1.273 1_545 S
O102 C101 1.273 1_565 S
O103 Zn94 1.977 . S
O103 C96 1.267 . S
C104 O105 1.160 . S
C104 O111 1.185 . S
O105 C104 1.160 . S
O106 Zn107 1.899 . S
O106 C114 1.284 . S
Zn107 O106 1.899 . S
Zn107 O108 2.032 . S
Zn107 O111 2.086 . S
Zn107 O116 1.977 . S
O108 Zn107 2.032 . S
O108 C112 1.278 . S
C109 O110 1.203 . S
C109 O116 1.267 . S
O110 C109 1.203 . S
O111 C104 1.185 . S
O111 Zn107 2.086 . S
C112 O108 1.278 . S
C112 O113 1.211 . S
O113 C112 1.211 . S
C114 O106 1.284 . S
C114 O115 1.273 . S
O115 C114 1.273 . S
O116 Zn107 1.977 . S
O116 C109 1.267 . S
C117 O118 1.160 . S
C117 O124 1.185 . S
O118 C117 1.160 . S
O119 Zn120 1.899 . S
O119 C127 1.284 . S
Zn120 O119 1.899 . S
Zn120 O121 2.032 . S
Zn120 O124 2.086 . S
Zn120 O129 1.977 . S
O121 Zn120 2.032 . S
O121 C125 1.278 . S
C122 O123 1.203 . S
C122 O129 1.267 . S
O123 C122 1.203 . S
O124 C117 1.185 . S
O124 Zn120 2.086 . S
C125 O121 1.278 . S
C125 O126 1.211 . S
O126 C125 1.211 . S
C127 O119 1.284 . S
C127 O128 1.273 . S
O128 C127 1.273 . S
O129 Zn120 1.977 . S
O129 C122 1.267 . S
C130 O131 1.160 . S
C130 O137 1.185 . S
O131 C130 1.160 . S
O132 Zn133 1.899 . S
O132 C140 1.284 . S
Zn133 O132 1.899 . S
Zn133 O134 2.032 . S
Zn133 O137 2.086 . S
Zn133 O142 1.977 1_554 S
O134 Zn133 2.032 . S
O134 C138 1.278 1_554 S
C135 O136 1.203 . S
C135 O142 1.267 . S
O136 C135 1.203 . S
O137 C130 1.185 . S
O137 Zn133 2.086 . S
C138 O134 1.278 1_556 S
C138 O139 1.211 . S
O139 C138 1.211 . S
C140 O132 1.284 . S
C140 O141 1.273 . S
O141 C140 1.273 . S
O142 Zn133 1.977 1_556 S
O142 C135 1.267 . S
C143 O144 1.160 . S
C143 O150 1.185 . S
O144 C143 1.160 . S
O145 Zn146 1.899 . S
O145 C153 1.284 . S
Zn146 O145 1.899 . S
Zn146 O147 2.032 . S
Zn146 O150 2.086 . S
Zn146 O155 1.977 . S
O147 Zn146 2.032 . S
O147 C151 1.278 . S
C148 O149 1.203 . S
C148 O155 1.267 . S
O149 C148 1.203 . S
O150 C143 1.185 . S
O150 Zn146 2.086 . S
C151 O147 1.278 . S
C151 O152 1.211 . S
O152 C151 1.211 . S
C153 O145 1.284 . S
C153 O154 1.273 . S
O154 C153 1.273 . S
O155 Zn146 1.977 . S
O155 C148 1.267 . S
C156 O157 1.160 . S
C156 O163 1.185 . S
O157 C156 1.160 . S
O158 Zn159 1.899 . S
O158 C166 1.284 . S
Zn159 O158 1.899 . S
Zn159 O160 2.032 . S
Zn159 O163 2.086 . S
Zn159 O168 1.977 . S
O160 Zn159 2.032 . S
O160 C164 1.278 . S
C161 O162 1.203 . S
C161 O168 1.267 . S
O162 C161 1.203 . S
O163 C156 1.185 . S
O163 Zn159 2.086 . S
C164 O160 1.278 . S
C164 O165 1.211 . S
O165 C164 1.211 . S
C166 O158 1.284 . S
C166 O167 1.273 . S
O167 C166 1.273 . S
O168 Zn159 1.977 . S
O168 C161 1.267 . S
C169 O170 1.160 . S
C169 O176 1.185 . S
O170 C169 1.160 . S
O171 Zn172 1.899 . S
O171 C179 1.284 . S
Zn172 O171 1.899 . S
Zn172 O173 2.032 . S
Zn172 O176 2.086 . S
Zn172 O181 1.977 . S
O173 Zn172 2.032 . S
O173 C177 1.278 . S
C174 O175 1.203 . S
C174 O181 1.267 . S
O175 C174 1.203 . S
O176 C169 1.185 . S
O176 Zn172 2.086 . S
C177 O173 1.278 . S
C177 O178 1.211 . S
O178 C177 1.211 . S
C179 O171 1.284 . S
C179 O180 1.273 . S
O180 C179 1.273 . S
O181 Zn172 1.977 . S
O181 C174 1.267 . S
C182 O183 1.160 . S
C182 O189 1.185 1_556 S
O183 C182 1.160 . S
O184 Zn185 1.899 1_556 S
O184 C192 1.284 . S
Zn185 O184 1.899 1_554 S
Zn185 O186 2.032 . S
Zn185 O189 2.086 . S
Zn185 O194 1.977 . S
O186 Zn185 2.032 . S
O186 C190 1.278 . S
C187 O188 1.203 . S
C187 O194 1.267 . S
O188 C187 1.203 . S
O189 C182 1.185 1_554 S
O189 Zn185 2.086 . S
C190 O186 1.278 . S
C190 O191 1.211 . S
O191 C190 1.211 . S
C192 O184 1.284 . S
C192 O193 1.273 . S
O193 C192 1.273 . S
O194 Zn185 1.977 . S
O194 C187 1.267 . S
C195 O196 1.160 . S
C195 O202 1.185 . S
O196 C195 1.160 . S
O197 Zn198 1.899 . S
O197 C205 1.284 . S
Zn198 O197 1.899 . S
Zn198 O199 2.032 . S
Zn198 O202 2.086 . S
Zn198 O207 1.977 . S
O199 Zn198 2.032 . S
O199 C203 1.278 . S
C200 O201 1.203 . S
C200 O207 1.267 . S
O201 C200 1.203 . S
O202 C195 1.185 . S
O202 Zn198 2.086 . S
C203 O199 1.278 . S
C203 O204 1.211 . S
O204 C203 1.211 . S
C205 O197 1.284 . S
C205 O206 1.273 . S
O206 C205 1.273 . S
O207 Zn198 1.977 . S
O207 C200 1.267 . S
C208 C209 1.170 . S
C208 C210 1.380 . S
C209 C208 1.170 . S
C210 C208 1.380 . S
C210 C211 1.170 . S
C211 C210 1.170 . S
C212 C213 1.170 . S
C212 C214 1.380 1_655 S
C213 C212 1.170 . S
C214 C212 1.380 1_455 S
C214 C215 1.170 . S
C215 C214 1.170 . S
C216 C217 1.170 . S
C216 C218 1.380 . S
C217 C216 1.170 . S
C218 C216 1.380 . S
C218 C219 1.170 . S
C219 C218 1.170 . S
C220 C221 1.170 . S
C220 C222 1.380 1_554 S
C221 C220 1.170 . S
C222 C220 1.380 1_556 S
C222 C223 1.170 . S
C223 C222 1.170 . S
C224 C225 1.170 . S
C224 C226 1.380 . S
C225 C224 1.170 . S
C226 C224 1.380 . S
C226 C227 1.170 . S
C227 C226 1.170 . S
C228 C229 1.170 . S
C228 C230 1.380 . S
C229 C228 1.170 . S
C230 C228 1.380 . S
C230 C231 1.170 . S
C231 C230 1.170 . S
C232 C233 1.170 . S
C232 C234 1.380 . S
C233 C232 1.170 . S
C234 C232 1.380 . S
C234 C235 1.170 . S
C235 C234 1.170 . S
C236 C237 1.170 . S
C236 C238 1.380 1_456 S
C237 C236 1.170 . S
C238 C236 1.380 1_654 S
C238 C239 1.170 . S
C239 C238 1.170 . S
C240 C241 1.170 . S
C240 C242 1.380 . S
C241 C240 1.170 . S
C242 C240 1.380 . S
C242 C243 1.170 . S
C243 C242 1.170 . S
C244 C245 1.170 . S
C244 C246 1.380 . S
C245 C244 1.170 . S
C246 C244 1.380 . S
C246 C247 1.170 . S
C247 C246 1.170 . S
C248 C249 1.170 . S
C248 C250 1.380 . S
C249 C248 1.170 . S
C250 C248 1.380 . S
C250 C251 1.170 . S
C251 C250 1.170 . S
C252 C253 1.170 . S
C252 C254 1.380 . S
C253 C252 1.170 . S
C254 C252 1.380 . S
C254 C255 1.170 . S
C255 C254 1.170 . S
C256 C257 1.170 . S
C256 C258 1.381 . S
C257 C256 1.170 . S
C258 C256 1.381 . S
C258 C259 1.170 1_554 S
C259 C258 1.170 1_556 S
C260 C261 1.170 . S
C260 C262 1.380 1_455 S
C261 C260 1.170 . S
C262 C260 1.380 1_655 S
C262 C263 1.170 . S
C263 C262 1.170 . S
C264 C265 1.170 . S
C264 C266 1.380 1_454 S
C265 C264 1.170 . S
C266 C264 1.380 1_656 S
C266 C267 1.170 . S
C267 C266 1.170 . S
C268 C269 1.170 . S
C268 C270 1.380 . S
C269 C268 1.170 . S
C270 C268 1.380 . S
C270 C271 1.170 . S
C271 C270 1.170 . S
C272 C273 1.170 . S
C272 C274 1.380 . S
C273 C272 1.170 . S
C274 C272 1.380 . S
C274 C275 1.170 . S
C275 C274 1.170 . S
C276 C277 1.170 . S
C276 C278 1.380 . S
C277 C276 1.170 . S
C278 C276 1.380 . S
C278 C279 1.170 . S
C279 C278 1.170 . S
C280 C281 1.170 . S
C280 C282 1.380 . S
C281 C280 1.170 . S
C282 C280 1.380 . S
C282 C283 1.170 . S
C283 C282 1.170 . S
C284 C285 1.170 . S
C284 C286 1.380 . S
C285 C284 1.170 . S
C286 C284 1.380 . S
C286 C287 1.170 . S
C287 C286 1.170 . S
C288 C289 1.170 . S
C288 C290 1.380 . S
C289 C288 1.170 . S
C290 C288 1.380 . S
C290 C291 1.170 . S
C291 C290 1.170 . S
C292 C293 1.170 . S
C292 C294 1.380 . S
C293 C292 1.170 . S
C294 C292 1.380 . S
C294 C295 1.170 . S
C295 C294 1.170 . S
C296 C297 1.170 . S
C296 C298 1.380 . S
C297 C296 1.170 . S
C298 C296 1.380 . S
C298 C299 1.170 . S
C299 C298 1.170 . S
C300 C301 1.170 . S
C300 C302 1.380 . S
C301 C300 1.170 . S
C302 C300 1.380 . S
C302 C303 1.170 . S
C303 C302 1.170 . S
C304 C305 1.170 . S
C304 C306 1.380 . S
C305 C304 1.170 . S
C306 C304 1.380 . S
C306 C307 1.170 . S
C307 C306 1.170 . S
C308 C309 1.170 . S
C308 C310 1.380 . S
C309 C308 1.170 . S
C310 C308 1.380 . S
C310 C311 1.170 . S
C311 C310 1.170 . S
C312 C313 1.170 . S
C312 C314 1.380 . S
C313 C312 1.170 . S
C314 C312 1.380 . S
C314 C315 1.170 . S
C315 C314 1.170 . S
C316 C317 1.170 . S
C316 C318 1.380 . S
C317 C316 1.170 . S
C318 C316 1.380 . S
C318 C319 1.170 . S
C319 C318 1.170 . S
C320 C321 1.170 . S
C320 C322 1.380 . S
C321 C320 1.170 . S
C322 C320 1.380 . S
C322 C323 1.170 . S
C323 C322 1.170 . S
C324 C325 1.170 . S
C324 C326 1.380 . S
C325 C324 1.170 . S
C326 C324 1.380 . S
C326 C327 1.170 . S
C327 C326 1.170 . S
C328 C329 1.170 . S
C328 C330 1.380 . S
C329 C328 1.170 . S
C330 C328 1.380 . S
C330 C331 1.170 . S
C331 C330 1.170 . S
C332 C333 1.170 . S
C332 C334 1.380 . S
C333 C332 1.170 . S
C334 C332 1.380 . S
C334 C335 1.170 . S
C335 C334 1.170 . S
C209 C10 1.379 . S
C211 C166 1.367 . S
C213 C18 1.147 . S
C215 C70 1.090 . S
C217 C36 1.377 . S
C219 C192 1.368 . S
C221 C96 1.157 . S
C223 C44 1.091 . S
C225 C187 1.117 . S
C227 C31 1.150 . S
C229 C101 1.367 . S
C231 C49 1.379 . S
C233 C161 1.137 . S
C235 C5 1.095 . S
C237 C75 1.367 . S
C239 C23 1.379 . S
C241 C62 1.375 . S
C243 C114 1.376 . S
C245 C88 1.368 . S
C247 C140 1.378 . S
C249 C135 1.158 . S
C251 C83 1.091 . S
C253 C57 1.138 . S
C255 C109 1.131 . S
C257 C174 1.113 . S
C259 C122 1.115 . S
C261 C148 1.131 . S
C263 C200 1.138 . S
C265 C153 1.369 . S
C267 C205 1.376 . S
C269 C127 1.370 . S
C271 C179 1.375 . S
C273 C143 1.451 . S
C275 C0 1.448 . S
C277 C112 1.453 . S
C279 C21 1.467 . S
C281 C26 1.458 . S
C283 C117 1.440 . S
C285 C138 1.481 . S
C287 C47 1.447 . S
C289 C151 1.487 . S
C291 C34 1.475 . S
C293 C39 1.426 . S
C295 C104 1.464 . S
C297 C125 1.493 . S
C299 C8 1.451 . S
C301 C130 1.419 . S
C303 C13 1.458 . S
C305 C52 1.459 . S
C307 C195 1.434 . S
C309 C164 1.494 . S
C311 C73 1.446 . S
C313 C78 1.422 . S
C315 C169 1.454 . S
C317 C99 1.450 . S
C319 C190 1.493 . S
C321 C86 1.482 . S
C323 C203 1.465 . S
C325 C156 1.426 . S
C327 C91 1.463 . S
C329 C177 1.483 . S
C331 C60 1.454 . S
C333 C182 1.457 . S
C335 C65 1.436 . S
