# Generated by pormake.
# Topology umb, (4)-cn, num edge types: 1
# Building blocks:
#     Node 0, Type 0, BuildingBlock: QUQFOY_clean_sbu_3, # of connection points: 4
#     Node 1, Type 0, BuildingBlock: QUQFOY_clean_sbu_3, # of connection points: 4
#     Node 2, Type 0, BuildingBlock: QUQFOY_clean_sbu_3, # of connection points: 4
#     Node 3, Type 0, BuildingBlock: QUQFOY_clean_sbu_3, # of connection points: 4
#     Node 4, Type 0, BuildingBlock: QUQFOY_clean_sbu_3, # of connection points: 4
#     Node 5, Type 0, BuildingBlock: QUQFOY_clean_sbu_3, # of connection points: 4
#     Node 6, Type 0, BuildingBlock: QUQFOY_clean_sbu_3, # of connection points: 4
#     Node 7, Type 0, BuildingBlock: QUQFOY_clean_sbu_3, # of connection points: 4
#     Node 8, Type 0, BuildingBlock: QUQFOY_clean_sbu_3, # of connection points: 4
#     Node 9, Type 0, BuildingBlock: QUQFOY_clean_sbu_3, # of connection points: 4
#     Node 10, Type 0, BuildingBlock: QUQFOY_clean_sbu_3, # of connection points: 4
#     Node 11, Type 0, BuildingBlock: QUQFOY_clean_sbu_3, # of connection points: 4
#     Edge 12, Type (0, 0), BuildingBlock: XUDNAN_clean_linker_2, # of connection points: 2
#     Edge 13, Type (0, 0), BuildingBlock: XUDNAN_clean_linker_2, # of connection points: 2
#     Edge 14, Type (0, 0), BuildingBlock: XUDNAN_clean_linker_2, # of connection points: 2
#     Edge 15, Type (0, 0), BuildingBlock: XUDNAN_clean_linker_2, # of connection points: 2
#     Edge 16, Type (0, 0), BuildingBlock: XUDNAN_clean_linker_2, # of connection points: 2
#     Edge 17, Type (0, 0), BuildingBlock: XUDNAN_clean_linker_2, # of connection points: 2
#     Edge 18, Type (0, 0), BuildingBlock: XUDNAN_clean_linker_2, # of connection points: 2
#     Edge 19, Type (0, 0), BuildingBlock: XUDNAN_clean_linker_2, # of connection points: 2
#     Edge 20, Type (0, 0), BuildingBlock: XUDNAN_clean_linker_2, # of connection points: 2
#     Edge 21, Type (0, 0), BuildingBlock: XUDNAN_clean_linker_2, # of connection points: 2
#     Edge 22, Type (0, 0), BuildingBlock: XUDNAN_clean_linker_2, # of connection points: 2
#     Edge 23, Type (0, 0), BuildingBlock: XUDNAN_clean_linker_2, # of connection points: 2
#     Edge 24, Type (0, 0), BuildingBlock: XUDNAN_clean_linker_2, # of connection points: 2
#     Edge 25, Type (0, 0), BuildingBlock: XUDNAN_clean_linker_2, # of connection points: 2
#     Edge 26, Type (0, 0), BuildingBlock: XUDNAN_clean_linker_2, # of connection points: 2
#     Edge 27, Type (0, 0), BuildingBlock: XUDNAN_clean_linker_2, # of connection points: 2
#     Edge 28, Type (0, 0), BuildingBlock: XUDNAN_clean_linker_2, # of connection points: 2
#     Edge 29, Type (0, 0), BuildingBlock: XUDNAN_clean_linker_2, # of connection points: 2
#     Edge 30, Type (0, 0), BuildingBlock: XUDNAN_clean_linker_2, # of connection points: 2
#     Edge 31, Type (0, 0), BuildingBlock: XUDNAN_clean_linker_2, # of connection points: 2
#     Edge 32, Type (0, 0), BuildingBlock: XUDNAN_clean_linker_2, # of connection points: 2
#     Edge 33, Type (0, 0), BuildingBlock: XUDNAN_clean_linker_2, # of connection points: 2
#     Edge 34, Type (0, 0), BuildingBlock: XUDNAN_clean_linker_2, # of connection points: 2
#     Edge 35, Type (0, 0), BuildingBlock: XUDNAN_clean_linker_2, # of connection points: 2
# Relax obj value: 0.254
# Max RMSD: 0.247
# Mean RMSD: 0.247
data_MOF--net-umb--node1-QUQFOY_clean_sbu_3--edge1-XUDNAN_clean_linker_2
_symmetry_space_group_name_H-M    P1
_symmetry_Int_Tables_number       1
_symmetry_cell_setting            triclinic
loop_
_symmetry_equiv_pos_as_xyz
'x, y, z'
_cell_length_a     50.857689
_cell_length_b     50.461589
_cell_length_c     38.772489
_cell_angle_alpha  90.29613
_cell_angle_beta   89.459144
_cell_angle_gamma 120.48232
loop_
_atom_site_label
_atom_site_type_symbol
_atom_site_fract_x
_atom_site_fract_y
_atom_site_fract_z
_atom_type_partial_charge
C0 C 0.4547 0.1752 0.26777 0.0
O1 O 0.45118 0.18792 0.29424 0.0
Cd2 Cd 0.47596 0.18444 0.34524 0.0
O3 O 0.46603 0.15796 0.27083 0.0
Cd4 Cd 0.48355 0.13803 0.31823 0.0
C5 C 0.54518 0.20063 0.30959 0.0
O6 O 0.46578 0.13953 0.37822 0.0
O7 O 0.51324 0.15351 0.3695 0.0
O8 O 0.44674 0.08461 0.3042 0.0
C9 C 0.49143 0.14562 0.39064 0.0
O10 O 0.52871 0.20834 0.32693 0.0
C11 C 0.46681 0.07675 0.30277 0.0
O12 O 0.53431 0.17336 0.29858 0.0
O13 O 0.4943 0.09737 0.30805 0.0
C14 C 0.25369 0.46966 0.60554 0.0
O15 O 0.23751 0.46755 0.63165 0.0
Cd16 Cd 0.26265 0.4901 0.68692 0.0
O17 O 0.2818 0.47903 0.6093 0.0
Cd18 Cd 0.31964 0.49741 0.65416 0.0
C19 C 0.3133 0.55876 0.65176 0.0
O20 O 0.30337 0.4878 0.71618 0.0
O21 O 0.3427 0.53114 0.69985 0.0
O22 O 0.34334 0.46577 0.64825 0.0
C23 C 0.32639 0.51399 0.72429 0.0
O24 O 0.29128 0.54397 0.67286 0.0
C25 C 0.3682 0.48795 0.6365 0.0
O26 O 0.32619 0.54606 0.63621 0.0
O27 O 0.36944 0.51336 0.63146 0.0
C28 C 0.75845 0.27113 0.93938 0.0
O29 O 0.74863 0.25691 0.96776 0.0
Cd30 Cd 0.75227 0.28461 0.02054 0.0
O31 O 0.77365 0.30031 0.93858 0.0
Cd32 Cd 0.79367 0.34507 0.97705 0.0
C33 C 0.72291 0.3256 0.98001 0.0
O34 O 0.79604 0.33206 0.03761 0.0
O35 O 0.78971 0.37071 0.02635 0.0
O36 O 0.84735 0.3658 0.96722 0.0
C37 C 0.79279 0.35421 0.04864 0.0
O38 O 0.72283 0.30535 -0.00051 0.0
C39 C 0.85097 0.38918 0.95086 0.0
O40 O 0.74715 0.34571 0.9648 0.0
O41 O 0.82746 0.39129 0.94551 0.0
C42 C 0.45426 0.76789 0.27921 0.0
O43 O 0.44864 0.75449 0.30829 0.0
Cd44 Cd 0.42745 0.76247 0.36084 0.0
O45 O 0.45126 0.79124 0.27544 0.0
Cd46 Cd 0.43106 0.81548 0.3155 0.0
C47 C 0.36486 0.75036 0.31763 0.0
O48 O 0.44117 0.81293 0.3776 0.0
O49 O 0.39976 0.81222 0.36333 0.0
O50 O 0.46335 0.87074 0.30783 0.0
C51 C 0.41728 0.81337 0.38698 0.0
O52 O 0.37547 0.74267 0.34281 0.0
C53 C 0.4433 0.87304 0.29086 0.0
O54 O 0.38154 0.77406 0.29945 0.0
O55 O 0.41878 0.84838 0.28374 0.0
C56 C 0.66113 0.4765 0.60671 0.0
O57 O 0.67425 0.47676 0.6346 0.0
Cd58 Cd 0.64768 0.45276 0.68811 0.0
O59 O 0.63245 0.46552 0.6055 0.0
Cd60 Cd 0.58521 0.44198 0.63983 0.0
C61 C 0.59116 0.38617 0.64267 0.0
O62 O 0.60129 0.45215 0.70232 0.0
O63 O 0.55805 0.41239 0.68751 0.0
O64 O 0.57442 0.48275 0.63915 0.0
C65 C 0.57705 0.42715 0.71107 0.0
O66 O 0.61095 0.40954 0.65855 0.0
C67 C 0.54879 0.46764 0.62434 0.0
O68 O 0.57344 0.3893 0.62232 0.0
O69 O 0.54106 0.44086 0.61337 0.0
C70 C 0.15823 0.67728 0.9441 0.0
O71 O 0.17311 0.69027 0.97122 0.0
Cd72 Cd 0.16841 0.6641 0.02563 0.0
O73 O 0.1377 0.64902 0.94431 0.0
Cd74 Cd 0.1149 0.60573 0.9852 0.0
C75 C 0.18113 0.60984 0.98629 0.0
O76 O 0.12079 0.62307 0.04652 0.0
O77 O 0.11416 0.57823 0.03354 0.0
O78 O 0.06265 0.58938 0.97006 0.0
C79 C 0.11963 0.59831 0.05637 0.0
O80 O 0.18801 0.63264 0.00607 0.0
C81 C 0.0571 0.56296 0.96026 0.0
O82 O 0.15555 0.59555 0.97108 0.0
O83 O 0.07855 0.55709 0.96138 0.0
C84 C 0.75556 0.47964 0.3846 0.0
O85 O 0.74889 0.48472 0.35485 0.0
Cd86 Cd 0.75194 0.45574 0.30645 0.0
O87 O 0.77109 0.46649 0.3878 0.0
Cd88 Cd 0.79859 0.44914 0.3503 0.0
C89 C 0.73279 0.38771 0.35012 0.0
O90 O 0.79619 0.45549 0.28664 0.0
O91 O 0.79377 0.4145 0.30802 0.0
O92 O 0.85107 0.48868 0.35164 0.0
C93 C 0.7934 0.42904 0.28169 0.0
O94 O 0.72816 0.40485 0.33007 0.0
C95 C 0.85997 0.47309 0.36832 0.0
O96 O 0.75825 0.39764 0.36522 0.0
O97 O 0.83962 0.44707 0.38001 0.0
C98 C 0.24977 0.77104 0.72089 0.0
O99 O 0.23701 0.76105 0.69193 0.0
Cd100 Cd 0.26383 0.76627 0.63775 0.0
O101 O 0.27856 0.78855 0.72265 0.0
Cd102 Cd 0.32203 0.81296 0.68157 0.0
C103 C 0.31534 0.74572 0.6648 0.0
O104 O 0.30592 0.8148 0.62189 0.0
O105 O 0.34738 0.81321 0.63036 0.0
O106 O 0.34636 0.86821 0.6886 0.0
C107 C 0.32941 0.815 0.60941 0.0
O108 O 0.29309 0.74147 0.64606 0.0
C109 C 0.36861 0.87076 0.70592 0.0
O110 O 0.32898 0.76882 0.68483 0.0
O111 O 0.36815 0.84615 0.71402 0.0
C112 C 0.45936 0.27061 0.04609 0.0
O113 O 0.45824 0.2601 0.01594 0.0
Cd114 Cd 0.4874 0.29357 0.96885 0.0
O115 O 0.47014 0.29931 0.05062 0.0
Cd116 Cd 0.48961 0.34687 0.0154 0.0
C117 C 0.54986 0.34288 0.02089 0.0
O118 O 0.47891 0.33365 0.95433 0.0
O119 O 0.51977 0.37666 0.96691 0.0
O120 O 0.44756 0.35467 0.02421 0.0
C121 C 0.50252 0.35821 0.94395 0.0
O122 O 0.5353 0.32211 -0.00163 0.0
C123 C 0.4634 0.38117 0.0376 0.0
O124 O 0.53836 0.35723 0.03566 0.0
O125 O 0.49139 0.3907 0.04331 0.0
C126 C 0.15265 0.46607 0.38928 0.0
O127 O 0.15659 0.45775 0.3597 0.0
Cd128 Cd 0.15174 0.47887 0.30607 0.0
O129 O 0.14046 0.48257 0.39227 0.0
Cd130 Cd 0.11768 0.50222 0.35109 0.0
C131 C 0.18838 0.55435 0.33303 0.0
O132 O 0.11135 0.48678 0.28947 0.0
O133 O 0.12245 0.53321 0.30397 0.0
O134 O 0.0639 0.46949 0.36117 0.0
C135 C 0.11683 0.51358 0.28042 0.0
O136 O 0.18635 0.53201 0.31552 0.0
C137 C 0.06028 0.49076 0.37366 0.0
O138 O 0.16682 0.5507 0.3533 0.0
O139 O 0.08412 0.51674 0.37905 0.0
C140 C 0.66274 0.17661 0.71894 0.0
O141 O 0.67507 0.18351 0.68926 0.0
Cd142 Cd 0.64329 0.17992 0.64126 0.0
O143 O 0.63383 0.16158 0.72153 0.0
Cd144 Cd 0.59206 0.13714 0.67872 0.0
C145 C 0.59868 0.20358 0.68074 0.0
O146 O 0.603 0.13379 0.61598 0.0
O147 O 0.56879 0.1456 0.63078 0.0
O148 O 0.57436 0.08374 0.6937 0.0
C149 C 0.58072 0.13732 0.6075 0.0
O150 O 0.61887 0.20863 0.65796 0.0
C151 C 0.54744 0.07757 0.70099 0.0
O152 O 0.58532 0.17857 0.69759 0.0
O153 O 0.54176 0.09928 0.69952 0.0
C154 C 0.4567 0.67787 0.05334 0.0
O155 O 0.4563 0.69358 0.02796 0.0
Cd156 Cd 0.43742 0.67145 0.96996 0.0
O157 O 0.4501 0.65015 0.04892 0.0
Cd158 Cd 0.4334 0.6077 0.0084 0.0
C159 C 0.36991 0.6121 0.0037 0.0
O160 O 0.44501 0.63072 0.95157 0.0
O161 O 0.42263 0.58156 0.95407 0.0
O162 O 0.46173 0.58307 0.02648 0.0
C163 C 0.42842 0.60495 0.93654 0.0
O164 O 0.38617 0.63732 0.98761 0.0
C165 C 0.43692 0.55862 0.03459 0.0
O166 O 0.38101 0.5963 0.01519 0.0
O167 O 0.41229 0.55924 0.03392 0.0
H168 H 0.54299 0.18202 0.42641 0.0
H169 H 0.45284 0.10133 0.43631 0.0
H170 H 0.46787 0.08891 0.4919 0.0
H171 H 0.58478 0.15084 0.45674 0.0
H172 H 0.61224 0.18394 0.48078 0.0
H173 H 0.59378 0.18888 0.44402 0.0
H174 H 0.57407 0.21813 0.48107 0.0
H175 H 0.59366 0.21455 0.51761 0.0
H176 H 0.55342 0.20107 0.52053 0.0
H177 H 0.49473 0.08212 0.54213 0.0
H178 H 0.52763 0.08724 0.59124 0.0
H179 H 0.60007 0.1732 0.54949 0.0
C180 C 0.52613 0.16223 0.44086 0.0
C181 C 0.49673 0.14255 0.4273 0.0
C182 C 0.47529 0.11682 0.44659 0.0
C183 C 0.4838 0.10944 0.47789 0.0
C184 C 0.51359 0.12838 0.48954 0.0
C185 C 0.53411 0.15485 0.47225 0.0
C186 C 0.56475 0.1713 0.49019 0.0
C187 C 0.59039 0.17387 0.46651 0.0
C188 C 0.57188 0.20314 0.50313 0.0
C189 C 0.55856 0.14942 0.51988 0.0
C190 C 0.52899 0.1247 0.51877 0.0
C191 C 0.51784 0.1014 0.54334 0.0
C192 C 0.53682 0.10421 0.57078 0.0
C193 C 0.56655 0.13004 0.57339 0.0
C194 C 0.57781 0.15266 0.54729 0.0
H195 H 0.37834 0.56488 0.74459 0.0
H196 H 0.29187 0.4915 0.78431 0.0
H197 H 0.30587 0.51508 0.84264 0.0
H198 H 0.42332 0.56842 0.81132 0.0
H199 H 0.44803 0.60963 0.81044 0.0
H200 H 0.42884 0.58951 0.77191 0.0
H201 H 0.40525 0.62437 0.76644 0.0
H202 H 0.42409 0.64435 0.80545 0.0
H203 H 0.3833 0.62677 0.80179 0.0
H204 H 0.33082 0.54526 0.89655 0.0
H205 H 0.36744 0.57167 0.94321 0.0
H206 H 0.43911 0.62334 0.86826 0.0
C207 C 0.36202 0.55382 0.76539 0.0
C208 C 0.33385 0.52635 0.75987 0.0
C209 C 0.31351 0.51251 0.78795 0.0
C210 C 0.32116 0.526 0.82099 0.0
C211 C 0.3491 0.55332 0.82529 0.0
C212 C 0.36932 0.56682 0.79823 0.0
C213 C 0.39921 0.59417 0.80994 0.0
C214 C 0.42644 0.59016 0.80036 0.0
C215 C 0.4032 0.62419 0.79502 0.0
C216 C 0.39378 0.59262 0.84851 0.0
C217 C 0.36413 0.56989 0.85653 0.0
C218 C 0.35392 0.56314 0.89047 0.0
C219 C 0.37494 0.57846 0.91681 0.0
C220 C 0.40613 0.59965 0.90927 0.0
C221 C 0.41535 0.60784 0.8747 0.0
H222 H 0.80263 0.45291 0.21505 0.0
H223 H 0.7664 0.36774 0.27291 0.0
H224 H 0.75946 0.33916 0.21943 0.0
H225 H 0.75061 0.41494 0.13804 0.0
H226 H 0.77989 0.43997 0.10796 0.0
H227 H 0.77827 0.45369 0.15051 0.0
H228 H 0.8343 0.46838 0.1604 0.0
H229 H 0.83604 0.4542 0.11828 0.0
H230 H 0.84487 0.43939 0.15588 0.0
H231 H 0.76438 0.3207 0.16214 0.0
H232 H 0.77372 0.31236 0.10135 0.0
H233 H 0.80382 0.40779 0.07879 0.0
C234 C 0.79263 0.4282 0.21623 0.0
C235 C 0.78576 0.41276 0.24822 0.0
C236 C 0.7726 0.38032 0.24879 0.0
C237 C 0.76831 0.36369 0.2185 0.0
C238 C 0.77675 0.37961 0.18754 0.0
C239 C 0.78785 0.41096 0.18587 0.0
C240 C 0.79608 0.42225 0.14899 0.0
C241 C 0.77495 0.43337 0.13559 0.0
C242 C 0.82983 0.44754 0.14572 0.0
C243 C 0.78984 0.39281 0.13102 0.0
C244 C 0.7784 0.36845 0.15373 0.0
C245 C 0.77276 0.3394 0.1438 0.0
C246 C 0.77848 0.33494 0.10942 0.0
C247 C 0.78948 0.35937 0.08551 0.0
C248 C 0.7952 0.38862 0.09655 0.0
H249 H 0.43186 0.85265 0.44138 0.0
H250 H 0.37239 0.7582 0.40991 0.0
H251 H 0.3412 0.74852 0.46278 0.0
H252 H 0.42749 0.83723 0.53606 0.0
H253 H 0.42818 0.87249 0.54611 0.0
H254 H 0.44739 0.87008 0.50801 0.0
H255 H 0.41634 0.8874 0.47139 0.0
H256 H 0.39608 0.88859 0.50916 0.0
H257 H 0.37523 0.8652 0.47278 0.0
H258 H 0.31356 0.75092 0.51648 0.0
H259 H 0.29655 0.76318 0.57141 0.0
H260 H 0.37407 0.85586 0.56745 0.0
C261 C 0.41305 0.82966 0.44648 0.0
C262 C 0.40484 0.80594 0.42222 0.0
C263 C 0.37933 0.77641 0.42878 0.0
C264 C 0.36133 0.77081 0.45852 0.0
C265 C 0.36917 0.79508 0.48132 0.0
C266 C 0.39484 0.82372 0.47607 0.0
C267 C 0.39762 0.84618 0.50381 0.0
C268 C 0.4269 0.85713 0.52475 0.0
C269 C 0.39624 0.87345 0.48834 0.0
C270 C 0.36939 0.82594 0.52518 0.0
C271 C 0.35309 0.79657 0.51171 0.0
C272 C 0.32611 0.77389 0.52717 0.0
C273 C 0.31629 0.78115 0.55794 0.0
C274 C 0.33345 0.81076 0.57272 0.0
C275 C 0.36003 0.83342 0.55588 0.0
H276 H 0.54497 0.41183 0.913 0.0
H277 H 0.48415 0.31455 0.8934 0.0
H278 H 0.50414 0.32153 0.83381 0.0
H279 H 0.53544 0.43801 0.83324 0.0
H280 H 0.57444 0.4689 0.82902 0.0
H281 H 0.55805 0.45552 0.87115 0.0
H282 H 0.60209 0.44574 0.88561 0.0
H283 H 0.61833 0.45867 0.84318 0.0
H284 H 0.60918 0.42113 0.85805 0.0
H285 H 0.52759 0.33887 0.77674 0.0
H286 H 0.54713 0.36621 0.72217 0.0
H287 H 0.59302 0.4535 0.77647 0.0
C288 C 0.53605 0.39197 0.89618 0.0
C289 C 0.51306 0.3626 0.90774 0.0
C290 C 0.50163 0.33723 0.88498 0.0
C291 C 0.51314 0.34093 0.85128 0.0
C292 C 0.53599 0.37012 0.8408 0.0
C293 C 0.54708 0.39532 0.86233 0.0
C294 C 0.56949 0.42465 0.84345 0.0
C295 C 0.55869 0.44814 0.84426 0.0
C296 C 0.60169 0.43836 0.85847 0.0
C297 C 0.56803 0.4122 0.80738 0.0
C298 C 0.54929 0.38051 0.80699 0.0
C299 C 0.5425 0.36359 0.77675 0.0
C300 C 0.5538 0.37946 0.74583 0.0
C301 C 0.57175 0.41205 0.74506 0.0
C302 C 0.57989 0.42861 0.77638 0.0
H303 H 0.10039 0.55248 0.25349 0.0
H304 H 0.14379 0.5 0.22705 0.0
H305 H 0.1577 0.52507 0.16957 0.0
H306 H 0.06639 0.54635 0.17297 0.0
H307 H 0.07196 0.5846 0.17392 0.0
H308 H 0.06863 0.56486 0.21364 0.0
H309 H 0.12059 0.61086 0.23305 0.0
H310 H 0.12432 0.63032 0.19283 0.0
H311 H 0.15392 0.62305 0.20624 0.0
H312 H 0.16653 0.55538 0.11582 0.0
H313 H 0.15894 0.57821 0.06386 0.0
H314 H 0.10606 0.60834 0.12306 0.0
C315 C 0.11263 0.54612 0.23541 0.0
C316 C 0.12079 0.5241 0.24436 0.0
C317 C 0.13685 0.51636 0.22032 0.0
C318 C 0.14533 0.53094 0.18799 0.0
C319 C 0.13741 0.55302 0.18025 0.0
C320 C 0.12082 0.56008 0.20296 0.0
C321 C 0.11261 0.58237 0.1871 0.0
C322 C 0.07783 0.56871 0.18688 0.0
C323 C 0.12882 0.61349 0.20593 0.0
C324 C 0.1255 0.58529 0.151 0.0
C325 C 0.14103 0.56935 0.14834 0.0
C326 C 0.15435 0.56777 0.11758 0.0
C327 C 0.1499 0.58087 0.08823 0.0
C328 C 0.13158 0.59469 0.08947 0.0
C329 C 0.12042 0.59825 0.12155 0.0
H330 H 0.67342 0.36688 0.34439 0.0
H331 H 0.73848 0.33617 0.35565 0.0
H332 H 0.69779 0.28281 0.34094 0.0
H333 H 0.60596 0.29987 0.37456 0.0
H334 H 0.58292 0.30422 0.3426 0.0
H335 H 0.61661 0.33751 0.35854 0.0
H336 H 0.63622 0.35191 0.29527 0.0
H337 H 0.60319 0.3178 0.27937 0.0
H338 H 0.64087 0.32488 0.26916 0.0
H339 H 0.64763 0.23239 0.32375 0.0
H340 H 0.59424 0.19152 0.31133 0.0
H341 H 0.56843 0.26086 0.30279 0.0
C342 C 0.67904 0.34883 0.34463 0.0
C343 C 0.70876 0.35533 0.35148 0.0
C344 C 0.71545 0.33129 0.35121 0.0
C345 C 0.69268 0.30117 0.34229 0.0
C346 C 0.66393 0.2961 0.33332 0.0
C347 C 0.65731 0.31949 0.33467 0.0
C348 C 0.62579 0.30956 0.32234 0.0
C349 C 0.6067 0.31297 0.35123 0.0
C350 C 0.6266 0.32709 0.2896 0.0
C351 C 0.61499 0.27651 0.31448 0.0
C352 C 0.63698 0.26875 0.32088 0.0
C353 C 0.63048 0.2384 0.3182 0.0
C354 C 0.6003 0.21542 0.31071 0.0
C355 C 0.57759 0.2234 0.30601 0.0
C356 C 0.58555 0.25433 0.30602 0.0
H357 H 0.32615 0.71232 0.71178 0.0
H358 H 0.33097 0.73378 0.6031 0.0
H359 H 0.34346 0.69378 0.58919 0.0
H360 H 0.3852 0.68445 0.70808 0.0
H361 H 0.36272 0.65439 0.73866 0.0
H362 H 0.36437 0.69089 0.74172 0.0
H363 H 0.30535 0.6628 0.73949 0.0
H364 H 0.30355 0.62648 0.73624 0.0
H365 H 0.28578 0.63752 0.70378 0.0
H366 H 0.344 0.6459 0.5853 0.0
H367 H 0.33042 0.59164 0.59202 0.0
H368 H 0.32245 0.59894 0.70256 0.0
C369 C 0.33131 0.70935 0.68538 0.0
C370 C 0.32802 0.72594 0.65847 0.0
C371 C 0.33366 0.72112 0.62393 0.0
C372 C 0.34106 0.69873 0.61584 0.0
C373 C 0.34275 0.6815 0.64266 0.0
C374 C 0.33829 0.68663 0.67686 0.0
C375 C 0.33577 0.66132 0.69988 0.0
C376 C 0.36368 0.67349 0.72348 0.0
C377 C 0.30582 0.64614 0.72103 0.0
C378 C 0.33617 0.63982 0.67287 0.0
C379 C 0.34177 0.65255 0.64025 0.0
C380 C 0.34041 0.63591 0.61077 0.0
C381 C 0.33254 0.6052 0.6147 0.0
C382 C 0.32532 0.59159 0.64768 0.0
C383 C 0.32791 0.6092 0.67709 0.0
H384 H 0.60935 0.38874 0.01008 0.0
H385 H 0.55122 0.29912 0.05621 0.0
H386 H 0.59027 0.28539 0.04485 0.0
H387 H 0.64107 0.37269 0.94647 0.0
H388 H 0.68073 0.40191 0.95024 0.0
H389 H 0.65168 0.40876 0.96731 0.0
H390 H 0.67545 0.41973 0.02812 0.0
H391 H 0.70577 0.41489 0.01079 0.0
H392 H 0.68399 0.39262 0.04758 0.0
H393 H 0.62266 0.27507 0.00823 0.0
H394 H 0.66725 0.27582 0.98301 0.0
H395 H 0.71375 0.37542 0.9744 0.0
C396 C 0.60605 0.3673 0.02023 0.0
C397 C 0.57741 0.34466 0.03351 0.0
C398 C 0.57322 0.31657 0.04609 0.0
C399 C 0.59495 0.30836 0.03915 0.0
C400 C 0.62139 0.32957 0.02209 0.0
C401 C 0.6286 0.35941 0.01566 0.0
C402 C 0.65981 0.37743 -0.00164 0.0
C403 C 0.65818 0.39098 0.96353 0.0
C404 C 0.68262 0.40266 0.02266 0.0
C405 C 0.66722 0.35202 -0.00649 0.0
C406 C 0.64379 0.32451 0.00617 0.0
C407 C 0.64232 0.29668 0.00049 0.0
C408 C 0.66751 0.29735 0.98559 0.0
C409 C 0.69431 0.32576 0.97864 0.0
C410 C 0.6937 0.35345 0.98032 0.0
H411 H 0.31228 0.72995 0.35382 0.0
H412 H 0.3505 0.71993 0.25779 0.0
H413 H 0.30369 0.67046 0.24731 0.0
H414 H 0.28241 0.66321 0.3845 0.0
H415 H 0.24577 0.65578 0.40015 0.0
H416 H 0.27659 0.69468 0.39547 0.0
H417 H 0.2446 0.70786 0.3553 0.0
H418 H 0.21287 0.66927 0.36104 0.0
H419 H 0.22628 0.68404 0.31826 0.0
H420 H 0.26518 0.61844 0.25767 0.0
H421 H 0.22661 0.56811 0.27855 0.0
H422 H 0.20727 0.61036 0.3658 0.0
C423 C 0.30966 0.71805 0.32963 0.0
C424 C 0.33431 0.72835 0.30629 0.0
C425 C 0.33129 0.71237 0.27534 0.0
C426 C 0.30487 0.6843 0.2693 0.0
C427 C 0.28159 0.67348 0.29393 0.0
C428 C 0.28285 0.69042 0.32267 0.0
C429 C 0.25581 0.6718 0.34658 0.0
C430 C 0.26579 0.67134 0.38385 0.0
C431 C 0.23357 0.68396 0.34521 0.0
C432 C 0.24215 0.64055 0.32951 0.0
C433 C 0.2571 0.64251 0.29878 0.0
C434 C 0.25213 0.61669 0.28062 0.0
C435 C 0.23041 0.58806 0.29323 0.0
C436 C 0.21349 0.58522 0.32369 0.0
C437 C 0.21947 0.61188 0.34217 0.0
H438 H 0.57005 0.33129 0.60731 0.0
H439 H 0.60068 0.37487 0.70735 0.0
H440 H 0.5958 0.32788 0.73084 0.0
H441 H 0.51838 0.25007 0.64049 0.0
H442 H 0.53028 0.23381 0.60654 0.0
H443 H 0.52886 0.26827 0.59874 0.0
H444 H 0.58567 0.29669 0.57936 0.0
H445 H 0.5871 0.26234 0.58678 0.0
H446 H 0.61393 0.29767 0.60793 0.0
H447 H 0.59456 0.28002 0.7425 0.0
H448 H 0.60191 0.23516 0.73899 0.0
H449 H 0.57602 0.22316 0.63141 0.0
C450 C 0.57465 0.33036 0.63435 0.0
C451 C 0.58508 0.35637 0.65562 0.0
C452 C 0.59217 0.35497 0.69064 0.0
C453 C 0.58927 0.32829 0.70444 0.0
C454 C 0.57954 0.30313 0.68287 0.0
C455 C 0.5726 0.30386 0.6485 0.0
C456 C 0.5676 0.27533 0.62983 0.0
C457 C 0.53429 0.25571 0.61822 0.0
C458 C 0.58992 0.28352 0.59919 0.0
C459 C 0.57458 0.25968 0.65855 0.0
C460 C 0.58028 0.27553 0.68927 0.0
C461 C 0.58949 0.26688 0.71886 0.0
C462 C 0.59362 0.24155 0.71673 0.0
C463 C 0.58924 0.22611 0.68506 0.0
C464 C 0.57905 0.23474 0.65593 0.0
H465 H 0.24071 0.64839 0.98381 0.0
H466 H 0.17297 0.55128 0.9824 0.0
H467 H 0.21418 0.53884 0.99038 0.0
H468 H 0.30304 0.64586 0.94312 0.0
H469 H 0.33014 0.67564 0.97114 0.0
H470 H 0.2953 0.67451 0.96028 0.0
H471 H 0.28351 0.674 0.02584 0.0
H472 H 0.31759 0.67361 0.03681 0.0
H473 H 0.28106 0.64375 0.05268 0.0
H474 H 0.26576 0.53933 -0.00043 0.0
H475 H 0.31995 0.55276 0.00554 0.0
H476 H 0.34764 0.64928 0.01064 0.0
C477 C 0.23451 0.62443 0.9844 0.0
C478 C 0.20404 0.60077 0.98225 0.0
C479 C 0.19656 0.56967 0.98333 0.0
C480 C 0.21968 0.5625 0.98835 0.0
C481 C 0.24959 0.58681 -0.00745 0.0
C482 C 0.25671 0.6171 0.99045 0.0
C483 C 0.28953 0.63952 -0.00218 0.0
C484 C 0.30543 0.66006 0.96622 0.0
C485 C 0.2931 0.65883 0.03021 0.0
C486 C 0.30033 0.61738 0.0041 0.0
C487 C 0.27745 0.587 0.00073 0.0
C488 C 0.28368 0.56305 0.00264 0.0
C489 C 0.31432 0.57078 0.00637 0.0
C490 C 0.33765 0.60204 0.00836 0.0
C491 C 0.33018 0.62518 0.00903 0.0
H492 H 0.48923 0.0449 0.33458 0.0
H493 H 0.42628 0.03765 0.25543 0.0
H494 H 0.41549 -0.01492 0.24124 0.0
H495 H 0.52092 0.00491 0.29389 0.0
H496 H 0.52113 -0.01525 0.33205 0.0
H497 H 0.52381 0.02161 0.33593 0.0
H498 H 0.47657 -0.00184 0.37656 0.0
H499 H 0.47403 0.96131 0.37326 0.0
H500 H 0.44159 0.96495 0.36267 0.0
H501 H 0.41262 0.93417 0.23528 0.0
H502 H 0.41376 0.88603 0.24147 0.0
H503 H 0.47796 0.92669 0.32554 0.0
C504 C 0.47323 0.03216 0.31423 0.0
C505 C 0.4588 0.04507 0.29565 0.0
C506 C 0.43747 0.02783 0.26977 0.0
C507 C 0.43136 -0.00183 0.26151 0.0
C508 C 0.44635 -0.01383 0.27999 0.0
C509 C 0.46633 0.00236 0.3063 0.0
C510 C 0.4781 -0.01637 0.32352 0.0
C511 C 0.51307 -0.0003 0.32117 0.0
C512 C 0.4669 -0.0234 0.36123 0.0
C513 C 0.46286 0.95494 0.30158 0.0
C514 C 0.4444 0.95672 0.27685 0.0
C515 C 0.42703 0.9325 0.25445 0.0
C516 C 0.42795 0.90538 0.25803 0.0
C517 C 0.44631 0.90297 0.28358 0.0
C518 C 0.46435 0.92825 0.30519 0.0
H519 H 0.39167 0.46336 0.59006 0.0
H520 H 0.40834 0.5121 0.6872 0.0
H521 H 0.45838 0.51567 0.69147 0.0
H522 H 0.42532 0.41838 0.61193 0.0
H523 H 0.44264 0.42151 0.57022 0.0
H524 H 0.40854 0.42379 0.5738 0.0
H525 H 0.43603 0.47642 0.54251 0.0
H526 H 0.47039 0.47444 0.53924 0.0
H527 H 0.47134 0.50712 0.55952 0.0
H528 H 0.50594 0.51538 0.68528 0.0
H529 H 0.5471 0.50462 0.67348 0.0
H530 H 0.50006 0.45336 0.58168 0.0
C531 C 0.40598 0.47457 0.61216 0.0
C532 C 0.39659 0.48749 0.63842 0.0
C533 C 0.41555 0.5022 0.66696 0.0
C534 C 0.44395 0.50449 0.66948 0.0
C535 C 0.45301 0.49209 0.64304 0.0
C536 C 0.43465 0.47713 0.61507 0.0
C537 C 0.45001 0.46518 0.59097 0.0
C538 C 0.43046 0.43013 0.5865 0.0
C539 C 0.45737 0.48177 0.55598 0.0
C540 C 0.47902 0.47445 0.6108 0.0
C541 C 0.48057 0.4909 0.64007 0.0
C542 C 0.50512 0.50255 0.66246 0.0
C543 C 0.52849 0.4965 0.65535 0.0
C544 C 0.52675 0.47827 0.62661 0.0
C545 C 0.50191 0.46744 0.60374 0.0
H546 H 0.90443 0.40317 0.98133 0.0
H547 H 0.86587 0.43263 0.90121 0.0
H548 H 0.91624 0.47924 0.89175 0.0
H549 H 0.94838 0.47613 0.01737 0.0
H550 H -0.01991 0.47156 0.02891 0.0
H551 H 0.94234 0.43842 0.02635 0.0
H552 H -0.03856 0.41288 0.98255 0.0
H553 H -0.00061 0.44576 0.98536 0.0
H554 H -0.01875 0.43337 0.94396 0.0
H555 H -0.03185 0.5254 0.89659 0.0
H556 H 0.02038 0.56661 0.91223 0.0
H557 H 0.02521 0.50631 0.98782 0.0
C558 C 0.90685 0.41895 0.96103 0.0
C559 C 0.88153 0.41434 0.94166 0.0
C560 C 0.88518 0.43587 0.91613 0.0
C561 C 0.91362 0.46231 0.9106 0.0
C562 C 0.93794 0.46676 0.93096 0.0
C563 C 0.93495 0.44559 0.9555 0.0
C564 C -0.03613 0.45715 0.97608 0.0
C565 C -0.04168 0.46104 0.01443 0.0
C566 C -0.02272 0.43603 0.97168 0.0
C567 C -0.01634 0.48795 0.95892 0.0
C568 C -0.03182 0.49325 0.93327 0.0
C569 C -0.01919 0.52133 0.91605 0.0
C570 C 0.01022 0.54456 0.92514 0.0
C571 C 0.0265 0.53906 0.95062 0.0
C572 C 0.01321 0.5105 0.96758 0.0
H573 H 0.0135 0.47569 0.42083 0.0
H574 H 0.04195 0.50197 0.31462 0.0
H575 H -0.00554 0.50216 0.30311 0.0
H576 H 0.93292 0.4242 0.40191 0.0
H577 H 0.91961 0.43459 0.44002 0.0
H578 H 0.95604 0.43671 0.44016 0.0
H579 H -0.01808 0.4939 0.45868 0.0
H580 H 0.94559 0.49205 0.45806 0.0
H581 H -0.02296 0.52058 0.43266 0.0
H582 H 0.94723 0.50353 0.30373 0.0
H583 H 0.8966 0.49736 0.31324 0.0
H584 H 0.89468 0.46556 0.41759 0.0
C585 C 0.00947 0.48141 0.39529 0.0
C586 C 0.03116 0.48923 0.36859 0.0
C587 C 0.02543 0.49627 0.3353 0.0
C588 C -0.00132 0.49649 0.32857 0.0
C589 C -0.02212 0.48937 0.35544 0.0
C590 C -0.01752 0.48136 0.38794 0.0
C591 C 0.95562 0.47383 0.4116 0.0
C592 C 0.94013 0.44033 0.42415 0.0
C593 C -0.03435 0.49644 0.44206 0.0
C594 C 0.93535 0.47874 0.38713 0.0
C595 C 0.94917 0.4884 0.35518 0.0
C596 C 0.93597 0.49579 0.32852 0.0
C597 C 0.90739 0.49252 0.33431 0.0
C598 C 0.892 0.48122 0.36618 0.0
C599 C 0.90615 0.47435 0.39306 0.0
H600 H 0.5024 0.03943 0.65785 0.0
H601 H 0.53822 0.04556 0.76034 0.0
H602 H 0.49559 -0.00711 0.77332 0.0
H603 H 0.4239 -0.0013 0.67765 0.0
H604 H 0.41269 0.97414 0.64019 0.0
H605 H 0.44643 0.01168 0.63858 0.0
H606 H 0.47869 -0.01247 0.61996 0.0
H607 H 0.44498 0.94988 0.62121 0.0
H608 H 0.47796 0.95766 0.64596 0.0
H609 H 0.44927 0.93988 0.77484 0.0
H610 H 0.40218 0.88971 0.76482 0.0
H611 H 0.39607 0.91903 0.66181 0.0
C612 C 0.50114 0.02948 0.68294 0.0
C613 C 0.52314 0.04612 0.70834 0.0
C614 C 0.52135 0.03277 0.74078 0.0
C615 C 0.49731 0.00304 0.74828 0.0
C616 C 0.47571 -0.01289 0.72279 0.0
C617 C 0.47757 -0.00028 0.69063 0.0
C618 C 0.45173 -0.02244 0.66763 0.0
C619 C 0.43255 -0.00864 0.65532 0.0
C620 C 0.46408 0.96757 0.63688 0.0
C621 C 0.43412 0.95122 0.69254 0.0
C622 C 0.4487 0.95686 0.72393 0.0
C623 C 0.43752 0.93524 0.75048 0.0
C624 C 0.41083 0.90695 0.74466 0.0
C625 C 0.39539 0.90103 0.71294 0.0
C626 C 0.4071 0.92347 0.68667 0.0
H627 H 0.47491 0.5428 0.06801 0.0
H628 H 0.39516 0.50782 0.00277 0.0
H629 H 0.39118 0.4573 0.00068 0.0
H630 H 0.50842 0.50372 0.02906 0.0
H631 H 0.5203 0.49437 0.0686 0.0
H632 H 0.51632 0.52778 0.06661 0.0
H633 H 0.47903 0.50746 0.1188 0.0
H634 H 0.48268 0.47377 0.12073 0.0
H635 H 0.44553 0.46969 0.11681 0.0
H636 H 0.39619 0.41198 0.00328 0.0
H637 H 0.41197 0.37353 0.00796 0.0
H638 H 0.48809 0.43608 0.07235 0.0
C639 C 0.45649 0.52427 0.05376 0.0
C640 C 0.43498 0.52877 0.03609 0.0
C641 C 0.41133 0.50438 0.01722 0.0
C642 C 0.4089 0.47568 0.01578 0.0
C643 C 0.42998 0.47161 0.0339 0.0
C644 C 0.45327 0.49501 0.05266 0.0
C645 C 0.47295 0.48408 0.06923 0.0
C646 C 0.50648 0.50365 0.05764 0.0
C647 C 0.46987 0.48374 0.10874 0.0
C648 C 0.45807 0.45163 0.05505 0.0
C649 C 0.43289 0.44483 0.03545 0.0
C650 C 0.41561 0.41672 0.01893 0.0
C651 C 0.42467 0.39499 0.02193 0.0
C652 C 0.45107 0.40179 0.04078 0.0
C653 C 0.46764 0.43024 0.05808 0.0
H654 H 0.46315 0.23031 0.24483 0.0
H655 H 0.4352 0.13756 0.21166 0.0
H656 H 0.43031 0.15121 0.15185 0.0
H657 H 0.41629 0.2454 0.18721 0.0
H658 H 0.44584 0.28449 0.17864 0.0
H659 H 0.4448 0.26686 0.21931 0.0
H660 H 0.50029 0.27919 0.20929 0.0
H661 H 0.50152 0.29685 0.16861 0.0
H662 H 0.50979 0.26613 0.17033 0.0
H663 H 0.4299 0.17516 0.09559 0.0
H664 H 0.43649 0.20835 0.04593 0.0
H665 H 0.46691 0.28644 0.11497 0.0
C666 C 0.45522 0.2127 0.22509 0.0
C667 C 0.44874 0.18262 0.23292 0.0
C668 C 0.43974 0.16055 0.20622 0.0
C669 C 0.43695 0.16811 0.17221 0.0
C670 C 0.44373 0.19801 0.16523 0.0
C671 C 0.45296 0.22007 0.19082 0.0
C672 C 0.46119 0.25111 0.17588 0.0
C673 C 0.4408 0.26263 0.19117 0.0
C674 C 0.49521 0.2747 0.18135 0.0
C675 C 0.45439 0.24284 0.13805 0.0
C676 C 0.44439 0.2121 0.13251 0.0
C677 C 0.43751 0.19922 0.09962 0.0
C678 C 0.44123 0.21828 0.07155 0.0
C679 C 0.45186 0.25 0.07641 0.0
C680 C 0.45824 0.26223 0.11029 0.0
H681 H 0.13383 0.44076 0.45473 0.0
H682 H 0.21316 0.49179 0.38861 0.0
H683 H 0.24682 0.49681 0.43652 0.0
H684 H 0.1652 0.48129 0.53275 0.0
H685 H 0.14837 0.44799 0.56044 0.0
H686 H 0.12988 0.44744 0.52085 0.0
H687 H 0.13036 0.39852 0.5013 0.0
H688 H 0.14881 0.39887 0.54093 0.0
H689 H 0.16596 0.39886 0.50005 0.0
H690 H 0.27189 0.49763 0.49016 0.0
H691 H 0.28833 0.49451 0.54829 0.0
H692 H 0.19366 0.44213 0.5823 0.0
C693 C 0.15826 0.45253 0.45046 0.0
C694 C 0.17105 0.46547 0.41796 0.0
C695 C 0.20304 0.48111 0.41315 0.0
C696 C 0.22232 0.48423 0.44021 0.0
C697 C 0.2092 0.47106 0.47184 0.0
C698 C 0.17799 0.45524 0.47721 0.0
C699 C 0.17032 0.44309 0.51397 0.0
C700 C 0.15239 0.45573 0.53313 0.0
C701 C 0.15281 0.40774 0.51407 0.0
C702 C 0.20214 0.45585 0.52864 0.0
C703 C 0.22403 0.47144 0.50349 0.0
C704 C 0.25502 0.48521 0.51005 0.0
C705 C 0.26407 0.48307 0.54327 0.0
C706 C 0.24231 0.46766 0.56997 0.0
C707 C 0.21083 0.4538 0.56244 0.0
H708 H 0.70077 0.23656 0.91438 0.0
H709 H 0.79586 0.27099 0.88921 0.0
H710 H 0.78125 0.24847 0.83071 0.0
H711 H 0.66647 0.16534 0.86598 0.0
H712 H 0.63502 0.16895 0.85081 0.0
H713 H 0.65262 0.18585 0.8914 0.0
H714 H 0.66255 0.23877 0.87058 0.0
H715 H 0.64504 0.2221 0.82988 0.0
H716 H 0.6833 0.25469 0.83091 0.0
H717 H 0.75678 0.22384 0.77486 0.0
H718 H 0.72419 0.19972 0.7241 0.0
H719 H 0.64466 0.18249 0.78438 0.0
C720 C 0.71831 0.23847 0.89675 0.0
C721 C 0.74935 0.25441 0.90641 0.0
C722 C 0.77196 0.25805 0.88236 0.0
C723 C 0.76386 0.2455 0.84913 0.0
C724 C 0.73309 0.22999 0.8402 0.0
C725 C 0.71064 0.22667 0.86315 0.0
C726 C 0.67957 0.21102 0.84605 0.0
C727 C 0.6571 0.181 0.86468 0.0
C728 C 0.66688 0.23295 0.84425 0.0
C729 C 0.68795 0.20491 0.81038 0.0
C730 C 0.71899 0.21638 0.80753 0.0
C731 C 0.73241 0.21455 0.77681 0.0
C732 C 0.7137 0.20075 0.74812 0.0
C733 C 0.68182 0.18874 0.7503 0.0
C734 C 0.66885 0.1908 0.78202 0.0
H735 H 0.47056 0.73598 0.07777 0.0
H736 H 0.4475 0.64447 0.11137 0.0
H737 H 0.44618 0.65891 0.17119 0.0
H738 H 0.51985 0.77611 0.15217 0.0
H739 H 0.50805 0.80421 0.15552 0.0
H740 H 0.50804 0.78765 0.11419 0.0
H741 H 0.45107 0.7703 0.1065 0.0
H742 H 0.45092 0.78689 0.14769 0.0
H743 H 0.42382 0.74695 0.1393 0.0
H744 H 0.44648 0.6812 0.22683 0.0
H745 H 0.447 0.71078 0.27725 0.0
H746 H 0.46952 0.7891 0.21134 0.0
C747 C 0.46576 0.71921 0.0978 0.0
C748 C 0.45959 0.68913 0.0895 0.0
C749 C 0.45287 0.66778 0.11663 0.0
C750 C 0.4519 0.67568 0.15093 0.0
C751 C 0.45807 0.70523 0.15824 0.0
C752 C 0.46497 0.72685 0.13273 0.0
C753 C 0.47046 0.75696 0.14856 0.0
C754 C 0.50357 0.78277 0.14223 0.0
C755 C 0.44769 0.76577 0.13468 0.0
C756 C 0.46477 0.74833 0.18666 0.0
C757 C 0.45803 0.71843 0.19132 0.0
C758 C 0.45195 0.70476 0.22368 0.0
C759 C 0.45252 0.72195 0.2523 0.0
C760 C 0.45865 0.75252 0.24861 0.0
C761 C 0.46507 0.76594 0.21518 0.0
H762 H 0.6875 0.44736 0.57595 0.0
H763 H 0.67006 0.52225 0.5629 0.0
H764 H 0.69285 0.53184 0.50415 0.0
H765 H 0.7582 0.47762 0.52967 0.0
H766 H 0.74833 0.44154 0.50938 0.0
H767 H 0.73207 0.44182 0.55071 0.0
H768 H 0.67789 0.40758 0.52593 0.0
H769 H 0.69399 0.40746 0.48439 0.0
H770 H 0.66671 0.42009 0.48824 0.0
H771 H 0.71595 0.53186 0.4461 0.0
H772 H 0.73916 0.52339 0.39377 0.0
H773 H 0.74059 0.44793 0.44505 0.0
C774 C 0.68932 0.4663 0.56095 0.0
C775 C 0.67816 0.48488 0.57401 0.0
C776 C 0.67934 0.50843 0.55334 0.0
C777 C 0.69199 0.51383 0.52 0.0
C778 C 0.70262 0.49493 0.50759 0.0
C779 C 0.70122 0.4715 0.52737 0.0
C780 C 0.71244 0.4533 0.50726 0.0
C781 C 0.73938 0.45363 0.52534 0.0
C782 C 0.6862 0.42016 0.5011 0.0
C783 C 0.72221 0.4714 0.47392 0.0
C784 C 0.71566 0.49483 0.47423 0.0
C785 C 0.7215 0.5138 0.44567 0.0
C786 C 0.7347 0.50889 0.41614 0.0
C787 C 0.74239 0.48559 0.41574 0.0
C788 C 0.73582 0.46656 0.44499 0.0
H789 H 0.21421 0.70488 0.91321 0.0
H790 H 0.12137 0.68454 0.89938 0.0
H791 H 0.13514 0.70843 0.84131 0.0
H792 H 0.25473 0.77685 0.86852 0.0
H793 H 0.28145 0.76824 0.84786 0.0
H794 H 0.26467 0.75108 0.88884 0.0
H795 H 0.24512 0.69688 0.863 0.0
H796 H 0.26189 0.71388 0.82193 0.0
H797 H 0.22186 0.68555 0.82489 0.0
H798 H 0.15876 0.73283 0.78389 0.0
H799 H 0.19024 0.75538 0.73123 0.0
H800 H 0.26753 0.75918 0.78239 0.0
C801 C 0.19705 0.70619 0.89818 0.0
C802 C 0.16697 0.69383 0.91093 0.0
C803 C 0.14465 0.69451 0.89013 0.0
C804 C 0.15227 0.70791 0.85717 0.0
C805 C 0.18213 0.71983 0.84517 0.0
C806 C 0.2041 0.71878 0.8649 0.0
C807 C 0.23384 0.73106 0.845 0.0
C808 C 0.26022 0.75845 0.86367 0.0
C809 C 0.2411 0.70532 0.83832 0.0
C810 C 0.22572 0.74083 0.81175 0.0
C811 C 0.19561 0.7336 0.81208 0.0
C812 C 0.18244 0.73885 0.78347 0.0
C813 C 0.20045 0.75169 0.75372 0.0
C814 C 0.23143 0.75959 0.75301 0.0
C815 C 0.24415 0.75419 0.78254 0.0
loop_
_geom_bond_atom_site_label_1
_geom_bond_atom_site_label_2
_geom_bond_distance
_geom_bond_site_symmetry_2
_ccdc_geom_bond_type
C0 O1 1.306 . S
C0 O3 1.160 . S
O1 C0 1.306 . S
O1 Cd2 2.228 . S
Cd2 O1 2.228 . S
Cd2 O6 2.273 . S
Cd2 O10 2.277 . S
O3 C0 1.160 . S
O3 Cd4 2.203 . S
Cd4 O3 2.203 . S
Cd4 O6 2.411 . S
Cd4 O7 2.333 . S
Cd4 O8 2.352 . S
Cd4 O12 2.277 . S
Cd4 O13 2.356 . S
C5 O10 1.209 . S
C5 O12 1.226 . S
O6 Cd2 2.273 . S
O6 Cd4 2.411 . S
O6 C9 1.320 . S
O7 Cd4 2.333 . S
O7 C9 1.214 . S
O8 Cd4 2.352 . S
O8 C11 1.258 . S
C9 O6 1.320 . S
C9 O7 1.214 . S
O10 Cd2 2.277 . S
O10 C5 1.209 . S
C11 O8 1.258 . S
C11 O13 1.282 . S
O12 Cd4 2.277 . S
O12 C5 1.226 . S
O13 Cd4 2.356 . S
O13 C11 1.282 . S
C14 O15 1.306 . S
C14 O17 1.160 . S
O15 C14 1.306 . S
O15 Cd16 2.228 . S
Cd16 O15 2.228 . S
Cd16 O20 2.273 . S
Cd16 O24 2.277 . S
O17 C14 1.160 . S
O17 Cd18 2.203 . S
Cd18 O17 2.203 . S
Cd18 O20 2.411 . S
Cd18 O21 2.333 . S
Cd18 O22 2.352 . S
Cd18 O26 2.277 . S
Cd18 O27 2.356 . S
C19 O24 1.209 . S
C19 O26 1.226 . S
O20 Cd16 2.273 . S
O20 Cd18 2.411 . S
O20 C23 1.320 . S
O21 Cd18 2.333 . S
O21 C23 1.214 . S
O22 Cd18 2.352 . S
O22 C25 1.258 . S
C23 O20 1.320 . S
C23 O21 1.214 . S
O24 Cd16 2.277 . S
O24 C19 1.209 . S
C25 O22 1.258 . S
C25 O27 1.282 . S
O26 Cd18 2.277 . S
O26 C19 1.226 . S
O27 Cd18 2.356 . S
O27 C25 1.282 . S
C28 O29 1.306 . S
C28 O31 1.160 . S
O29 C28 1.306 . S
O29 Cd30 2.228 1_556 S
Cd30 O29 2.228 1_554 S
Cd30 O34 2.273 . S
Cd30 O38 2.277 . S
O31 C28 1.160 . S
O31 Cd32 2.203 . S
Cd32 O31 2.203 . S
Cd32 O34 2.411 1_556 S
Cd32 O35 2.333 1_556 S
Cd32 O36 2.352 . S
Cd32 O40 2.277 . S
Cd32 O41 2.356 . S
C33 O38 1.209 1_556 S
C33 O40 1.226 . S
O34 Cd30 2.273 . S
O34 Cd32 2.411 1_554 S
O34 C37 1.320 . S
O35 Cd32 2.333 1_554 S
O35 C37 1.214 . S
O36 Cd32 2.352 . S
O36 C39 1.258 . S
C37 O34 1.320 . S
C37 O35 1.214 . S
O38 Cd30 2.277 . S
O38 C33 1.209 1_554 S
C39 O36 1.258 . S
C39 O41 1.282 . S
O40 Cd32 2.277 . S
O40 C33 1.226 . S
O41 Cd32 2.356 . S
O41 C39 1.282 . S
C42 O43 1.306 . S
C42 O45 1.160 . S
O43 C42 1.306 . S
O43 Cd44 2.228 . S
Cd44 O43 2.228 . S
Cd44 O48 2.273 . S
Cd44 O52 2.277 . S
O45 C42 1.160 . S
O45 Cd46 2.203 . S
Cd46 O45 2.203 . S
Cd46 O48 2.411 . S
Cd46 O49 2.333 . S
Cd46 O50 2.352 . S
Cd46 O54 2.277 . S
Cd46 O55 2.356 . S
C47 O52 1.209 . S
C47 O54 1.226 . S
O48 Cd44 2.273 . S
O48 Cd46 2.411 . S
O48 C51 1.320 . S
O49 Cd46 2.333 . S
O49 C51 1.214 . S
O50 Cd46 2.352 . S
O50 C53 1.258 . S
C51 O48 1.320 . S
C51 O49 1.214 . S
O52 Cd44 2.277 . S
O52 C47 1.209 . S
C53 O50 1.258 . S
C53 O55 1.282 . S
O54 Cd46 2.277 . S
O54 C47 1.226 . S
O55 Cd46 2.356 . S
O55 C53 1.282 . S
C56 O57 1.306 . S
C56 O59 1.160 . S
O57 C56 1.306 . S
O57 Cd58 2.228 . S
Cd58 O57 2.228 . S
Cd58 O62 2.273 . S
Cd58 O66 2.277 . S
O59 C56 1.160 . S
O59 Cd60 2.203 . S
Cd60 O59 2.203 . S
Cd60 O62 2.411 . S
Cd60 O63 2.333 . S
Cd60 O64 2.352 . S
Cd60 O68 2.277 . S
Cd60 O69 2.356 . S
C61 O66 1.209 . S
C61 O68 1.226 . S
O62 Cd58 2.273 . S
O62 Cd60 2.411 . S
O62 C65 1.320 . S
O63 Cd60 2.333 . S
O63 C65 1.214 . S
O64 Cd60 2.352 . S
O64 C67 1.258 . S
C65 O62 1.320 . S
C65 O63 1.214 . S
O66 Cd58 2.277 . S
O66 C61 1.209 . S
C67 O64 1.258 . S
C67 O69 1.282 . S
O68 Cd60 2.277 . S
O68 C61 1.226 . S
O69 Cd60 2.356 . S
O69 C67 1.282 . S
C70 O71 1.306 . S
C70 O73 1.160 . S
O71 C70 1.306 . S
O71 Cd72 2.228 1_556 S
Cd72 O71 2.228 1_554 S
Cd72 O76 2.273 . S
Cd72 O80 2.277 . S
O73 C70 1.160 . S
O73 Cd74 2.203 . S
Cd74 O73 2.203 . S
Cd74 O76 2.411 1_556 S
Cd74 O77 2.333 1_556 S
Cd74 O78 2.352 . S
Cd74 O82 2.277 . S
Cd74 O83 2.356 . S
C75 O80 1.209 1_556 S
C75 O82 1.226 . S
O76 Cd72 2.273 . S
O76 Cd74 2.411 1_554 S
O76 C79 1.320 . S
O77 Cd74 2.333 1_554 S
O77 C79 1.214 . S
O78 Cd74 2.352 . S
O78 C81 1.258 . S
C79 O76 1.320 . S
C79 O77 1.214 . S
O80 Cd72 2.277 . S
O80 C75 1.209 1_554 S
C81 O78 1.258 . S
C81 O83 1.282 . S
O82 Cd74 2.277 . S
O82 C75 1.226 . S
O83 Cd74 2.356 . S
O83 C81 1.282 . S
C84 O85 1.306 . S
C84 O87 1.160 . S
O85 C84 1.306 . S
O85 Cd86 2.228 . S
Cd86 O85 2.228 . S
Cd86 O90 2.273 . S
Cd86 O94 2.277 . S
O87 C84 1.160 . S
O87 Cd88 2.203 . S
Cd88 O87 2.203 . S
Cd88 O90 2.411 . S
Cd88 O91 2.333 . S
Cd88 O92 2.352 . S
Cd88 O96 2.277 . S
Cd88 O97 2.356 . S
C89 O94 1.209 . S
C89 O96 1.226 . S
O90 Cd86 2.273 . S
O90 Cd88 2.411 . S
O90 C93 1.320 . S
O91 Cd88 2.333 . S
O91 C93 1.214 . S
O92 Cd88 2.352 . S
O92 C95 1.258 . S
C93 O90 1.320 . S
C93 O91 1.214 . S
O94 Cd86 2.277 . S
O94 C89 1.209 . S
C95 O92 1.258 . S
C95 O97 1.282 . S
O96 Cd88 2.277 . S
O96 C89 1.226 . S
O97 Cd88 2.356 . S
O97 C95 1.282 . S
C98 O99 1.306 . S
C98 O101 1.160 . S
O99 C98 1.306 . S
O99 Cd100 2.228 . S
Cd100 O99 2.228 . S
Cd100 O104 2.273 . S
Cd100 O108 2.277 . S
O101 C98 1.160 . S
O101 Cd102 2.203 . S
Cd102 O101 2.203 . S
Cd102 O104 2.411 . S
Cd102 O105 2.333 . S
Cd102 O106 2.352 . S
Cd102 O110 2.277 . S
Cd102 O111 2.356 . S
C103 O108 1.209 . S
C103 O110 1.226 . S
O104 Cd100 2.273 . S
O104 Cd102 2.411 . S
O104 C107 1.320 . S
O105 Cd102 2.333 . S
O105 C107 1.214 . S
O106 Cd102 2.352 . S
O106 C109 1.258 . S
C107 O104 1.320 . S
C107 O105 1.214 . S
O108 Cd100 2.277 . S
O108 C103 1.209 . S
C109 O106 1.258 . S
C109 O111 1.282 . S
O110 Cd102 2.277 . S
O110 C103 1.226 . S
O111 Cd102 2.356 . S
O111 C109 1.282 . S
C112 O113 1.306 . S
C112 O115 1.160 . S
O113 C112 1.306 . S
O113 Cd114 2.228 1_554 S
Cd114 O113 2.228 1_556 S
Cd114 O118 2.273 . S
Cd114 O122 2.277 1_556 S
O115 C112 1.160 . S
O115 Cd116 2.203 . S
Cd116 O115 2.203 . S
Cd116 O118 2.411 1_554 S
Cd116 O119 2.333 1_554 S
Cd116 O120 2.352 . S
Cd116 O124 2.277 . S
Cd116 O125 2.356 . S
C117 O122 1.209 . S
C117 O124 1.226 . S
O118 Cd114 2.273 . S
O118 Cd116 2.411 1_556 S
O118 C121 1.320 . S
O119 Cd116 2.333 1_556 S
O119 C121 1.214 . S
O120 Cd116 2.352 . S
O120 C123 1.258 . S
C121 O118 1.320 . S
C121 O119 1.214 . S
O122 Cd114 2.277 1_554 S
O122 C117 1.209 . S
C123 O120 1.258 . S
C123 O125 1.282 . S
O124 Cd116 2.277 . S
O124 C117 1.226 . S
O125 Cd116 2.356 . S
O125 C123 1.282 . S
C126 O127 1.306 . S
C126 O129 1.160 . S
O127 C126 1.306 . S
O127 Cd128 2.228 . S
Cd128 O127 2.228 . S
Cd128 O132 2.273 . S
Cd128 O136 2.277 . S
O129 C126 1.160 . S
O129 Cd130 2.203 . S
Cd130 O129 2.203 . S
Cd130 O132 2.411 . S
Cd130 O133 2.333 . S
Cd130 O134 2.352 . S
Cd130 O138 2.277 . S
Cd130 O139 2.356 . S
C131 O136 1.209 . S
C131 O138 1.226 . S
O132 Cd128 2.273 . S
O132 Cd130 2.411 . S
O132 C135 1.320 . S
O133 Cd130 2.333 . S
O133 C135 1.214 . S
O134 Cd130 2.352 . S
O134 C137 1.258 . S
C135 O132 1.320 . S
C135 O133 1.214 . S
O136 Cd128 2.277 . S
O136 C131 1.209 . S
C137 O134 1.258 . S
C137 O139 1.282 . S
O138 Cd130 2.277 . S
O138 C131 1.226 . S
O139 Cd130 2.356 . S
O139 C137 1.282 . S
C140 O141 1.306 . S
C140 O143 1.160 . S
O141 C140 1.306 . S
O141 Cd142 2.228 . S
Cd142 O141 2.228 . S
Cd142 O146 2.273 . S
Cd142 O150 2.277 . S
O143 C140 1.160 . S
O143 Cd144 2.203 . S
Cd144 O143 2.203 . S
Cd144 O146 2.411 . S
Cd144 O147 2.333 . S
Cd144 O148 2.352 . S
Cd144 O152 2.277 . S
Cd144 O153 2.356 . S
C145 O150 1.209 . S
C145 O152 1.226 . S
O146 Cd142 2.273 . S
O146 Cd144 2.411 . S
O146 C149 1.320 . S
O147 Cd144 2.333 . S
O147 C149 1.214 . S
O148 Cd144 2.352 . S
O148 C151 1.258 . S
C149 O146 1.320 . S
C149 O147 1.214 . S
O150 Cd142 2.277 . S
O150 C145 1.209 . S
C151 O148 1.258 . S
C151 O153 1.282 . S
O152 Cd144 2.277 . S
O152 C145 1.226 . S
O153 Cd144 2.356 . S
O153 C151 1.282 . S
C154 O155 1.306 . S
C154 O157 1.160 . S
O155 C154 1.306 . S
O155 Cd156 2.228 1_554 S
Cd156 O155 2.228 1_556 S
Cd156 O160 2.273 . S
Cd156 O164 2.277 1_556 S
O157 C154 1.160 . S
O157 Cd158 2.203 . S
Cd158 O157 2.203 . S
Cd158 O160 2.411 1_554 S
Cd158 O161 2.333 1_554 S
Cd158 O162 2.352 . S
Cd158 O166 2.277 . S
Cd158 O167 2.356 . S
C159 O164 1.209 . S
C159 O166 1.226 . S
O160 Cd156 2.273 . S
O160 Cd158 2.411 1_556 S
O160 C163 1.320 . S
O161 Cd158 2.333 1_556 S
O161 C163 1.214 . S
O162 Cd158 2.352 . S
O162 C165 1.258 . S
C163 O160 1.320 . S
C163 O161 1.214 . S
O164 Cd156 2.277 1_554 S
O164 C159 1.209 . S
C165 O162 1.258 . S
C165 O167 1.282 . S
O166 Cd158 2.277 . S
O166 C159 1.226 . S
O167 Cd158 2.356 . S
O167 C165 1.282 . S
H168 C180 0.930 . S
H169 C182 0.930 . S
H170 C183 0.930 . S
H171 C187 0.959 . S
H172 C187 0.959 . S
H173 C187 0.961 . S
H174 C188 0.960 . S
H175 C188 0.961 . S
H176 C188 0.959 . S
H177 C191 0.929 . S
H178 C192 0.931 . S
H179 C194 0.930 . S
C180 H168 0.930 . S
C180 C181 1.399 . S
C180 C185 1.399 . S
C181 C180 1.399 . S
C181 C182 1.376 . S
C182 H169 0.930 . S
C182 C181 1.376 . S
C182 C183 1.388 . S
C183 H170 0.930 . S
C183 C182 1.388 . S
C183 C184 1.390 . S
C184 C183 1.390 . S
C184 C185 1.394 . S
C184 C190 1.465 . S
C185 C180 1.399 . S
C185 C184 1.394 . S
C185 C186 1.516 . S
C186 C185 1.516 . S
C186 C187 1.502 . S
C186 C188 1.561 . S
C186 C189 1.526 . S
C187 H171 0.959 . S
C187 H172 0.959 . S
C187 H173 0.961 . S
C187 C186 1.502 . S
C188 H174 0.960 . S
C188 H175 0.961 . S
C188 H176 0.959 . S
C188 C186 1.561 . S
C189 C186 1.526 . S
C189 C190 1.396 . S
C189 C194 1.390 . S
C190 C184 1.465 . S
C190 C189 1.396 . S
C190 C191 1.399 . S
C191 H177 0.929 . S
C191 C190 1.399 . S
C191 C192 1.385 . S
C192 H178 0.931 . S
C192 C191 1.385 . S
C192 C193 1.389 . S
C193 C192 1.389 . S
C193 C194 1.387 . S
C194 H179 0.930 . S
C194 C189 1.390 . S
C194 C193 1.387 . S
H195 C207 0.930 . S
H196 C209 0.930 . S
H197 C210 0.930 . S
H198 C214 0.959 . S
H199 C214 0.959 . S
H200 C214 0.961 . S
H201 C215 0.960 . S
H202 C215 0.961 . S
H203 C215 0.959 . S
H204 C218 0.929 . S
H205 C219 0.931 . S
H206 C221 0.930 . S
C207 H195 0.930 . S
C207 C208 1.399 . S
C207 C212 1.399 . S
C208 C207 1.399 . S
C208 C209 1.376 . S
C209 H196 0.930 . S
C209 C208 1.376 . S
C209 C210 1.388 . S
C210 H197 0.930 . S
C210 C209 1.388 . S
C210 C211 1.390 . S
C211 C210 1.390 . S
C211 C212 1.394 . S
C211 C217 1.465 . S
C212 C207 1.399 . S
C212 C211 1.394 . S
C212 C213 1.516 . S
C213 C212 1.516 . S
C213 C214 1.502 . S
C213 C215 1.561 . S
C213 C216 1.526 . S
C214 H198 0.959 . S
C214 H199 0.959 . S
C214 H200 0.961 . S
C214 C213 1.502 . S
C215 H201 0.960 . S
C215 H202 0.961 . S
C215 H203 0.959 . S
C215 C213 1.561 . S
C216 C213 1.526 . S
C216 C217 1.396 . S
C216 C221 1.390 . S
C217 C211 1.465 . S
C217 C216 1.396 . S
C217 C218 1.399 . S
C218 H204 0.929 . S
C218 C217 1.399 . S
C218 C219 1.385 . S
C219 H205 0.931 . S
C219 C218 1.385 . S
C219 C220 1.389 . S
C220 C219 1.389 . S
C220 C221 1.387 . S
C221 H206 0.930 . S
C221 C216 1.390 . S
C221 C220 1.387 . S
H222 C234 0.930 . S
H223 C236 0.930 . S
H224 C237 0.930 . S
H225 C241 0.959 . S
H226 C241 0.959 . S
H227 C241 0.961 . S
H228 C242 0.960 . S
H229 C242 0.961 . S
H230 C242 0.959 . S
H231 C245 0.929 . S
H232 C246 0.931 . S
H233 C248 0.930 . S
C234 H222 0.930 . S
C234 C235 1.399 . S
C234 C239 1.399 . S
C235 C234 1.399 . S
C235 C236 1.376 . S
C236 H223 0.930 . S
C236 C235 1.376 . S
C236 C237 1.388 . S
C237 H224 0.930 . S
C237 C236 1.388 . S
C237 C238 1.390 . S
C238 C237 1.390 . S
C238 C239 1.394 . S
C238 C244 1.465 . S
C239 C234 1.399 . S
C239 C238 1.394 . S
C239 C240 1.516 . S
C240 C239 1.516 . S
C240 C241 1.502 . S
C240 C242 1.561 . S
C240 C243 1.526 . S
C241 H225 0.959 . S
C241 H226 0.959 . S
C241 H227 0.961 . S
C241 C240 1.502 . S
C242 H228 0.960 . S
C242 H229 0.961 . S
C242 H230 0.959 . S
C242 C240 1.561 . S
C243 C240 1.526 . S
C243 C244 1.396 . S
C243 C248 1.390 . S
C244 C238 1.465 . S
C244 C243 1.396 . S
C244 C245 1.399 . S
C245 H231 0.929 . S
C245 C244 1.399 . S
C245 C246 1.385 . S
C246 H232 0.931 . S
C246 C245 1.385 . S
C246 C247 1.389 . S
C247 C246 1.389 . S
C247 C248 1.387 . S
C248 H233 0.930 . S
C248 C243 1.390 . S
C248 C247 1.387 . S
H249 C261 0.930 . S
H250 C263 0.930 . S
H251 C264 0.930 . S
H252 C268 0.959 . S
H253 C268 0.959 . S
H254 C268 0.961 . S
H255 C269 0.960 . S
H256 C269 0.961 . S
H257 C269 0.959 . S
H258 C272 0.929 . S
H259 C273 0.931 . S
H260 C275 0.930 . S
C261 H249 0.930 . S
C261 C262 1.399 . S
C261 C266 1.399 . S
C262 C261 1.399 . S
C262 C263 1.376 . S
C263 H250 0.930 . S
C263 C262 1.376 . S
C263 C264 1.388 . S
C264 H251 0.930 . S
C264 C263 1.388 . S
C264 C265 1.390 . S
C265 C264 1.390 . S
C265 C266 1.394 . S
C265 C271 1.465 . S
C266 C261 1.399 . S
C266 C265 1.394 . S
C266 C267 1.516 . S
C267 C266 1.516 . S
C267 C268 1.502 . S
C267 C269 1.561 . S
C267 C270 1.526 . S
C268 H252 0.959 . S
C268 H253 0.959 . S
C268 H254 0.961 . S
C268 C267 1.502 . S
C269 H255 0.960 . S
C269 H256 0.961 . S
C269 H257 0.959 . S
C269 C267 1.561 . S
C270 C267 1.526 . S
C270 C271 1.396 . S
C270 C275 1.390 . S
C271 C265 1.465 . S
C271 C270 1.396 . S
C271 C272 1.399 . S
C272 H258 0.929 . S
C272 C271 1.399 . S
C272 C273 1.385 . S
C273 H259 0.931 . S
C273 C272 1.385 . S
C273 C274 1.389 . S
C274 C273 1.389 . S
C274 C275 1.387 . S
C275 H260 0.930 . S
C275 C270 1.390 . S
C275 C274 1.387 . S
H276 C288 0.930 . S
H277 C290 0.930 . S
H278 C291 0.930 . S
H279 C295 0.959 . S
H280 C295 0.959 . S
H281 C295 0.961 . S
H282 C296 0.960 . S
H283 C296 0.961 . S
H284 C296 0.959 . S
H285 C299 0.929 . S
H286 C300 0.931 . S
H287 C302 0.930 . S
C288 H276 0.930 . S
C288 C289 1.399 . S
C288 C293 1.399 . S
C289 C288 1.399 . S
C289 C290 1.376 . S
C290 H277 0.930 . S
C290 C289 1.376 . S
C290 C291 1.388 . S
C291 H278 0.930 . S
C291 C290 1.388 . S
C291 C292 1.390 . S
C292 C291 1.390 . S
C292 C293 1.394 . S
C292 C298 1.465 . S
C293 C288 1.399 . S
C293 C292 1.394 . S
C293 C294 1.516 . S
C294 C293 1.516 . S
C294 C295 1.502 . S
C294 C296 1.561 . S
C294 C297 1.526 . S
C295 H279 0.959 . S
C295 H280 0.959 . S
C295 H281 0.961 . S
C295 C294 1.502 . S
C296 H282 0.960 . S
C296 H283 0.961 . S
C296 H284 0.959 . S
C296 C294 1.561 . S
C297 C294 1.526 . S
C297 C298 1.396 . S
C297 C302 1.390 . S
C298 C292 1.465 . S
C298 C297 1.396 . S
C298 C299 1.399 . S
C299 H285 0.929 . S
C299 C298 1.399 . S
C299 C300 1.385 . S
C300 H286 0.931 . S
C300 C299 1.385 . S
C300 C301 1.389 . S
C301 C300 1.389 . S
C301 C302 1.387 . S
C302 H287 0.930 . S
C302 C297 1.390 . S
C302 C301 1.387 . S
H303 C315 0.930 . S
H304 C317 0.930 . S
H305 C318 0.930 . S
H306 C322 0.959 . S
H307 C322 0.959 . S
H308 C322 0.961 . S
H309 C323 0.960 . S
H310 C323 0.961 . S
H311 C323 0.959 . S
H312 C326 0.929 . S
H313 C327 0.931 . S
H314 C329 0.930 . S
C315 H303 0.930 . S
C315 C316 1.399 . S
C315 C320 1.399 . S
C316 C315 1.399 . S
C316 C317 1.376 . S
C317 H304 0.930 . S
C317 C316 1.376 . S
C317 C318 1.388 . S
C318 H305 0.930 . S
C318 C317 1.388 . S
C318 C319 1.390 . S
C319 C318 1.390 . S
C319 C320 1.394 . S
C319 C325 1.465 . S
C320 C315 1.399 . S
C320 C319 1.394 . S
C320 C321 1.516 . S
C321 C320 1.516 . S
C321 C322 1.502 . S
C321 C323 1.561 . S
C321 C324 1.526 . S
C322 H306 0.959 . S
C322 H307 0.959 . S
C322 H308 0.961 . S
C322 C321 1.502 . S
C323 H309 0.960 . S
C323 H310 0.961 . S
C323 H311 0.959 . S
C323 C321 1.561 . S
C324 C321 1.526 . S
C324 C325 1.396 . S
C324 C329 1.390 . S
C325 C319 1.465 . S
C325 C324 1.396 . S
C325 C326 1.399 . S
C326 H312 0.929 . S
C326 C325 1.399 . S
C326 C327 1.385 . S
C327 H313 0.931 . S
C327 C326 1.385 . S
C327 C328 1.389 . S
C328 C327 1.389 . S
C328 C329 1.387 . S
C329 H314 0.930 . S
C329 C324 1.390 . S
C329 C328 1.387 . S
H330 C342 0.930 . S
H331 C344 0.930 . S
H332 C345 0.930 . S
H333 C349 0.959 . S
H334 C349 0.959 . S
H335 C349 0.961 . S
H336 C350 0.960 . S
H337 C350 0.961 . S
H338 C350 0.959 . S
H339 C353 0.929 . S
H340 C354 0.931 . S
H341 C356 0.930 . S
C342 H330 0.930 . S
C342 C343 1.399 . S
C342 C347 1.399 . S
C343 C342 1.399 . S
C343 C344 1.376 . S
C344 H331 0.930 . S
C344 C343 1.376 . S
C344 C345 1.388 . S
C345 H332 0.930 . S
C345 C344 1.388 . S
C345 C346 1.390 . S
C346 C345 1.390 . S
C346 C347 1.394 . S
C346 C352 1.465 . S
C347 C342 1.399 . S
C347 C346 1.394 . S
C347 C348 1.516 . S
C348 C347 1.516 . S
C348 C349 1.502 . S
C348 C350 1.561 . S
C348 C351 1.526 . S
C349 H333 0.959 . S
C349 H334 0.959 . S
C349 H335 0.961 . S
C349 C348 1.502 . S
C350 H336 0.960 . S
C350 H337 0.961 . S
C350 H338 0.959 . S
C350 C348 1.561 . S
C351 C348 1.526 . S
C351 C352 1.396 . S
C351 C356 1.390 . S
C352 C346 1.465 . S
C352 C351 1.396 . S
C352 C353 1.399 . S
C353 H339 0.929 . S
C353 C352 1.399 . S
C353 C354 1.385 . S
C354 H340 0.931 . S
C354 C353 1.385 . S
C354 C355 1.389 . S
C355 C354 1.389 . S
C355 C356 1.387 . S
C356 H341 0.930 . S
C356 C351 1.390 . S
C356 C355 1.387 . S
H357 C369 0.930 . S
H358 C371 0.930 . S
H359 C372 0.930 . S
H360 C376 0.959 . S
H361 C376 0.959 . S
H362 C376 0.961 . S
H363 C377 0.960 . S
H364 C377 0.961 . S
H365 C377 0.959 . S
H366 C380 0.929 . S
H367 C381 0.931 . S
H368 C383 0.930 . S
C369 H357 0.930 . S
C369 C370 1.399 . S
C369 C374 1.399 . S
C370 C369 1.399 . S
C370 C371 1.376 . S
C371 H358 0.930 . S
C371 C370 1.376 . S
C371 C372 1.388 . S
C372 H359 0.930 . S
C372 C371 1.388 . S
C372 C373 1.390 . S
C373 C372 1.390 . S
C373 C374 1.394 . S
C373 C379 1.465 . S
C374 C369 1.399 . S
C374 C373 1.394 . S
C374 C375 1.516 . S
C375 C374 1.516 . S
C375 C376 1.502 . S
C375 C377 1.561 . S
C375 C378 1.526 . S
C376 H360 0.959 . S
C376 H361 0.959 . S
C376 H362 0.961 . S
C376 C375 1.502 . S
C377 H363 0.960 . S
C377 H364 0.961 . S
C377 H365 0.959 . S
C377 C375 1.561 . S
C378 C375 1.526 . S
C378 C379 1.396 . S
C378 C383 1.390 . S
C379 C373 1.465 . S
C379 C378 1.396 . S
C379 C380 1.399 . S
C380 H366 0.929 . S
C380 C379 1.399 . S
C380 C381 1.385 . S
C381 H367 0.931 . S
C381 C380 1.385 . S
C381 C382 1.389 . S
C382 C381 1.389 . S
C382 C383 1.387 . S
C383 H368 0.930 . S
C383 C378 1.390 . S
C383 C382 1.387 . S
H384 C396 0.930 . S
H385 C398 0.930 . S
H386 C399 0.930 . S
H387 C403 0.959 . S
H388 C403 0.959 . S
H389 C403 0.961 . S
H390 C404 0.960 . S
H391 C404 0.961 . S
H392 C404 0.959 . S
H393 C407 0.929 . S
H394 C408 0.931 . S
H395 C410 0.930 . S
C396 H384 0.930 . S
C396 C397 1.399 . S
C396 C401 1.399 . S
C397 C396 1.399 . S
C397 C398 1.376 . S
C398 H385 0.930 . S
C398 C397 1.376 . S
C398 C399 1.388 . S
C399 H386 0.930 . S
C399 C398 1.388 . S
C399 C400 1.390 . S
C400 C399 1.390 . S
C400 C401 1.394 . S
C400 C406 1.465 . S
C401 C396 1.399 . S
C401 C400 1.394 . S
C401 C402 1.516 . S
C402 C401 1.516 . S
C402 C403 1.502 1_554 S
C402 C404 1.561 . S
C402 C405 1.526 1_554 S
C403 H387 0.959 . S
C403 H388 0.959 . S
C403 H389 0.961 . S
C403 C402 1.502 1_556 S
C404 H390 0.960 . S
C404 H391 0.961 . S
C404 H392 0.959 . S
C404 C402 1.561 . S
C405 C402 1.526 1_556 S
C405 C406 1.396 1_556 S
C405 C410 1.390 . S
C406 C400 1.465 . S
C406 C405 1.396 1_554 S
C406 C407 1.399 . S
C407 H393 0.929 . S
C407 C406 1.399 . S
C407 C408 1.385 1_554 S
C408 H394 0.931 . S
C408 C407 1.385 1_556 S
C408 C409 1.389 . S
C409 C408 1.389 . S
C409 C410 1.387 . S
C410 H395 0.930 . S
C410 C405 1.390 . S
C410 C409 1.387 . S
H411 C423 0.930 . S
H412 C425 0.930 . S
H413 C426 0.930 . S
H414 C430 0.959 . S
H415 C430 0.959 . S
H416 C430 0.961 . S
H417 C431 0.960 . S
H418 C431 0.961 . S
H419 C431 0.959 . S
H420 C434 0.929 . S
H421 C435 0.931 . S
H422 C437 0.930 . S
C423 H411 0.930 . S
C423 C424 1.399 . S
C423 C428 1.399 . S
C424 C423 1.399 . S
C424 C425 1.376 . S
C425 H412 0.930 . S
C425 C424 1.376 . S
C425 C426 1.388 . S
C426 H413 0.930 . S
C426 C425 1.388 . S
C426 C427 1.390 . S
C427 C426 1.390 . S
C427 C428 1.394 . S
C427 C433 1.465 . S
C428 C423 1.399 . S
C428 C427 1.394 . S
C428 C429 1.516 . S
C429 C428 1.516 . S
C429 C430 1.502 . S
C429 C431 1.561 . S
C429 C432 1.526 . S
C430 H414 0.959 . S
C430 H415 0.959 . S
C430 H416 0.961 . S
C430 C429 1.502 . S
C431 H417 0.960 . S
C431 H418 0.961 . S
C431 H419 0.959 . S
C431 C429 1.561 . S
C432 C429 1.526 . S
C432 C433 1.396 . S
C432 C437 1.390 . S
C433 C427 1.465 . S
C433 C432 1.396 . S
C433 C434 1.399 . S
C434 H420 0.929 . S
C434 C433 1.399 . S
C434 C435 1.385 . S
C435 H421 0.931 . S
C435 C434 1.385 . S
C435 C436 1.389 . S
C436 C435 1.389 . S
C436 C437 1.387 . S
C437 H422 0.930 . S
C437 C432 1.390 . S
C437 C436 1.387 . S
H438 C450 0.930 . S
H439 C452 0.930 . S
H440 C453 0.930 . S
H441 C457 0.959 . S
H442 C457 0.959 . S
H443 C457 0.961 . S
H444 C458 0.960 . S
H445 C458 0.961 . S
H446 C458 0.959 . S
H447 C461 0.929 . S
H448 C462 0.931 . S
H449 C464 0.930 . S
C450 H438 0.930 . S
C450 C451 1.399 . S
C450 C455 1.399 . S
C451 C450 1.399 . S
C451 C452 1.376 . S
C452 H439 0.930 . S
C452 C451 1.376 . S
C452 C453 1.388 . S
C453 H440 0.930 . S
C453 C452 1.388 . S
C453 C454 1.390 . S
C454 C453 1.390 . S
C454 C455 1.394 . S
C454 C460 1.465 . S
C455 C450 1.399 . S
C455 C454 1.394 . S
C455 C456 1.516 . S
C456 C455 1.516 . S
C456 C457 1.502 . S
C456 C458 1.561 . S
C456 C459 1.526 . S
C457 H441 0.959 . S
C457 H442 0.959 . S
C457 H443 0.961 . S
C457 C456 1.502 . S
C458 H444 0.960 . S
C458 H445 0.961 . S
C458 H446 0.959 . S
C458 C456 1.561 . S
C459 C456 1.526 . S
C459 C460 1.396 . S
C459 C464 1.390 . S
C460 C454 1.465 . S
C460 C459 1.396 . S
C460 C461 1.399 . S
C461 H447 0.929 . S
C461 C460 1.399 . S
C461 C462 1.385 . S
C462 H448 0.931 . S
C462 C461 1.385 . S
C462 C463 1.389 . S
C463 C462 1.389 . S
C463 C464 1.387 . S
C464 H449 0.930 . S
C464 C459 1.390 . S
C464 C463 1.387 . S
H465 C477 0.930 . S
H466 C479 0.930 . S
H467 C480 0.930 . S
H468 C484 0.959 . S
H469 C484 0.959 . S
H470 C484 0.961 . S
H471 C485 0.960 . S
H472 C485 0.961 . S
H473 C485 0.959 . S
H474 C488 0.929 . S
H475 C489 0.931 . S
H476 C491 0.930 . S
C477 H465 0.930 . S
C477 C478 1.399 . S
C477 C482 1.400 1_556 S
C478 C477 1.399 . S
C478 C479 1.376 . S
C479 H466 0.930 . S
C479 C478 1.376 . S
C479 C480 1.388 1_556 S
C480 H467 0.930 . S
C480 C479 1.388 1_554 S
C480 C481 1.390 . S
C481 C480 1.390 . S
C481 C482 1.393 . S
C481 C487 1.465 . S
C482 C477 1.400 1_554 S
C482 C481 1.393 . S
C482 C483 1.516 . S
C483 C482 1.516 . S
C483 C484 1.502 1_554 S
C483 C485 1.561 . S
C483 C486 1.526 . S
C484 H468 0.959 . S
C484 H469 0.959 . S
C484 H470 0.961 . S
C484 C483 1.502 1_556 S
C485 H471 0.960 . S
C485 H472 0.961 . S
C485 H473 0.959 . S
C485 C483 1.561 . S
C486 C483 1.526 . S
C486 C487 1.396 . S
C486 C491 1.390 . S
C487 C481 1.465 . S
C487 C486 1.396 . S
C487 C488 1.399 . S
C488 H474 0.929 . S
C488 C487 1.399 . S
C488 C489 1.385 . S
C489 H475 0.931 . S
C489 C488 1.385 . S
C489 C490 1.389 . S
C490 C489 1.389 . S
C490 C491 1.387 . S
C491 H476 0.930 . S
C491 C486 1.390 . S
C491 C490 1.387 . S
H492 C504 0.930 . S
H493 C506 0.930 . S
H494 C507 0.930 . S
H495 C511 0.959 . S
H496 C511 0.959 . S
H497 C511 0.961 . S
H498 C512 0.969 . S
H499 C512 0.952 1_565 S
H500 C512 0.960 1_565 S
H501 C515 0.929 . S
H502 C516 0.931 . S
H503 C518 0.930 . S
C504 H492 0.930 . S
C504 C505 1.399 . S
C504 C509 1.399 . S
C505 C504 1.399 . S
C505 C506 1.376 . S
C506 H493 0.930 . S
C506 C505 1.376 . S
C506 C507 1.388 . S
C507 H494 0.930 . S
C507 C506 1.388 . S
C507 C508 1.390 . S
C508 C507 1.390 . S
C508 C509 1.394 . S
C508 C514 1.465 1_545 S
C509 C504 1.399 . S
C509 C508 1.394 . S
C509 C510 1.516 . S
C510 C509 1.516 . S
C510 C511 1.502 . S
C510 C512 1.560 . S
C510 C513 1.526 1_545 S
C511 H495 0.959 . S
C511 H496 0.959 . S
C511 H497 0.961 . S
C511 C510 1.502 . S
C512 H498 0.969 . S
C512 H499 0.952 1_545 S
C512 H500 0.960 1_545 S
C512 C510 1.560 . S
C513 C510 1.526 1_565 S
C513 C514 1.396 . S
C513 C518 1.390 . S
C514 C508 1.465 1_565 S
C514 C513 1.396 . S
C514 C515 1.399 . S
C515 H501 0.929 . S
C515 C514 1.399 . S
C515 C516 1.385 . S
C516 H502 0.931 . S
C516 C515 1.385 . S
C516 C517 1.389 . S
C517 C516 1.389 . S
C517 C518 1.387 . S
C518 H503 0.930 . S
C518 C513 1.390 . S
C518 C517 1.387 . S
H519 C531 0.930 . S
H520 C533 0.930 . S
H521 C534 0.930 . S
H522 C538 0.959 . S
H523 C538 0.959 . S
H524 C538 0.961 . S
H525 C539 0.960 . S
H526 C539 0.961 . S
H527 C539 0.959 . S
H528 C542 0.929 . S
H529 C543 0.931 . S
H530 C545 0.930 . S
C531 H519 0.930 . S
C531 C532 1.399 . S
C531 C536 1.399 . S
C532 C531 1.399 . S
C532 C533 1.376 . S
C533 H520 0.930 . S
C533 C532 1.376 . S
C533 C534 1.388 . S
C534 H521 0.930 . S
C534 C533 1.388 . S
C534 C535 1.390 . S
C535 C534 1.390 . S
C535 C536 1.394 . S
C535 C541 1.465 . S
C536 C531 1.399 . S
C536 C535 1.394 . S
C536 C537 1.516 . S
C537 C536 1.516 . S
C537 C538 1.502 . S
C537 C539 1.561 . S
C537 C540 1.526 . S
C538 H522 0.959 . S
C538 H523 0.959 . S
C538 H524 0.961 . S
C538 C537 1.502 . S
C539 H525 0.960 . S
C539 H526 0.961 . S
C539 H527 0.959 . S
C539 C537 1.561 . S
C540 C537 1.526 . S
C540 C541 1.396 . S
C540 C545 1.390 . S
C541 C535 1.465 . S
C541 C540 1.396 . S
C541 C542 1.399 . S
C542 H528 0.929 . S
C542 C541 1.399 . S
C542 C543 1.385 . S
C543 H529 0.931 . S
C543 C542 1.385 . S
C543 C544 1.389 . S
C544 C543 1.389 . S
C544 C545 1.387 . S
C545 H530 0.930 . S
C545 C540 1.390 . S
C545 C544 1.387 . S
H546 C558 0.930 1_554 S
H547 C560 0.930 . S
H548 C561 0.930 . S
H549 C565 0.976 . S
H550 C565 0.959 . S
H551 C565 0.961 1_655 S
H552 C566 0.960 1_554 S
H553 C566 0.961 1_554 S
H554 C566 0.959 . S
H555 C569 0.929 . S
H556 C570 0.931 . S
H557 C572 0.930 1_554 S
C558 H546 0.930 1_556 S
C558 C559 1.399 . S
C558 C563 1.399 . S
C559 C558 1.399 . S
C559 C560 1.376 . S
C560 H547 0.930 . S
C560 C559 1.376 . S
C560 C561 1.388 . S
C561 H548 0.930 . S
C561 C560 1.388 . S
C561 C562 1.390 . S
C562 C561 1.390 . S
C562 C563 1.394 . S
C562 C568 1.465 1_655 S
C563 C558 1.399 . S
C563 C562 1.394 . S
C563 C564 1.516 1_656 S
C564 C563 1.516 1_454 S
C564 C565 1.502 . S
C564 C566 1.561 1_554 S
C564 C567 1.526 1_554 S
C565 H549 0.976 . S
C565 H550 0.959 . S
C565 H551 0.961 1_455 S
C565 C564 1.502 . S
C566 H552 0.960 1_556 S
C566 H553 0.961 1_556 S
C566 H554 0.959 . S
C566 C564 1.561 1_556 S
C567 C564 1.526 1_556 S
C567 C568 1.396 . S
C567 C572 1.390 . S
C568 C562 1.465 1_455 S
C568 C567 1.396 . S
C568 C569 1.399 . S
C569 H555 0.929 . S
C569 C568 1.399 . S
C569 C570 1.385 . S
C570 H556 0.931 . S
C570 C569 1.385 . S
C570 C571 1.389 . S
C571 C570 1.389 . S
C571 C572 1.387 . S
C572 H557 0.930 1_556 S
C572 C567 1.390 . S
C572 C571 1.387 . S
H573 C585 0.930 . S
H574 C587 0.930 . S
H575 C588 0.930 . S
H576 C592 0.959 . S
H577 C592 0.959 . S
H578 C592 0.961 1_455 S
H579 C593 0.960 . S
H580 C593 0.961 1_655 S
H581 C593 0.959 . S
H582 C596 0.929 . S
H583 C597 0.931 . S
H584 C599 0.930 . S
C585 H573 0.930 . S
C585 C586 1.399 . S
C585 C590 1.399 . S
C586 C585 1.399 . S
C586 C587 1.376 . S
C587 H574 0.930 . S
C587 C586 1.376 . S
C587 C588 1.388 . S
C588 H575 0.930 . S
C588 C587 1.388 . S
C588 C589 1.390 . S
C589 C588 1.390 . S
C589 C590 1.394 . S
C589 C595 1.465 1_455 S
C590 C585 1.399 . S
C590 C589 1.394 . S
C590 C591 1.516 1_455 S
C591 C590 1.516 1_655 S
C591 C592 1.502 . S
C591 C593 1.561 1_655 S
C591 C594 1.526 . S
C592 H576 0.959 . S
C592 H577 0.959 . S
C592 H578 0.961 1_655 S
C592 C591 1.502 . S
C593 H579 0.960 . S
C593 H580 0.961 1_455 S
C593 H581 0.959 . S
C593 C591 1.561 1_455 S
C594 C591 1.526 . S
C594 C595 1.396 . S
C594 C599 1.390 . S
C595 C589 1.465 1_655 S
C595 C594 1.396 . S
C595 C596 1.399 . S
C596 H582 0.929 . S
C596 C595 1.399 . S
C596 C597 1.385 . S
C597 H583 0.931 . S
C597 C596 1.385 . S
C597 C598 1.389 . S
C598 C597 1.389 . S
C598 C599 1.387 . S
C599 H584 0.930 . S
C599 C594 1.390 . S
C599 C598 1.387 . S
H600 C612 0.930 . S
H601 C614 0.930 . S
H602 C615 0.930 . S
H603 C619 0.959 . S
H604 C619 0.959 1_565 S
H605 C619 0.961 . S
H606 C620 0.960 1_545 S
H607 C620 0.961 . S
H608 C620 0.959 . S
H609 C623 0.929 . S
H610 C624 0.931 . S
H611 C626 0.930 . S
C612 H600 0.930 . S
C612 C613 1.399 . S
C612 C617 1.399 . S
C613 C612 1.399 . S
C613 C614 1.376 . S
C614 H601 0.930 . S
C614 C613 1.376 . S
C614 C615 1.388 . S
C615 H602 0.930 . S
C615 C614 1.388 . S
C615 C616 1.390 . S
C616 C615 1.390 . S
C616 C617 1.394 . S
C616 C622 1.465 1_545 S
C617 C612 1.399 . S
C617 C616 1.394 . S
C617 C618 1.516 . S
C618 C617 1.516 . S
C618 C619 1.502 . S
C618 C620 1.561 1_545 S
C618 C621 1.526 1_545 S
C619 H603 0.959 . S
C619 H604 0.959 1_545 S
C619 H605 0.961 . S
C619 C618 1.502 . S
C620 H606 0.960 1_565 S
C620 H607 0.961 . S
C620 H608 0.959 . S
C620 C618 1.561 1_565 S
C621 C618 1.526 1_565 S
C621 C622 1.396 . S
C621 C626 1.390 . S
C622 C616 1.465 1_565 S
C622 C621 1.396 . S
C622 C623 1.399 . S
C623 H609 0.929 . S
C623 C622 1.399 . S
C623 C624 1.385 . S
C624 H610 0.931 . S
C624 C623 1.385 . S
C624 C625 1.389 . S
C625 C624 1.389 . S
C625 C626 1.387 . S
C626 H611 0.930 . S
C626 C621 1.390 . S
C626 C625 1.387 . S
H627 C639 0.930 . S
H628 C641 0.930 1_556 S
H629 C642 0.930 1_556 S
H630 C646 0.959 . S
H631 C646 0.959 . S
H632 C646 0.961 . S
H633 C647 0.960 . S
H634 C647 0.961 . S
H635 C647 0.959 . S
H636 C650 0.929 1_556 S
H637 C651 0.931 1_556 S
H638 C653 0.930 . S
C639 H627 0.930 . S
C639 C640 1.399 . S
C639 C644 1.399 . S
C640 C639 1.399 . S
C640 C641 1.376 . S
C641 H628 0.930 1_554 S
C641 C640 1.376 . S
C641 C642 1.388 . S
C642 H629 0.930 1_554 S
C642 C641 1.388 . S
C642 C643 1.390 . S
C643 C642 1.390 . S
C643 C644 1.394 . S
C643 C649 1.465 . S
C644 C639 1.399 . S
C644 C643 1.394 . S
C644 C645 1.516 . S
C645 C644 1.516 . S
C645 C646 1.502 . S
C645 C647 1.561 . S
C645 C648 1.526 . S
C646 H630 0.959 . S
C646 H631 0.959 . S
C646 H632 0.961 . S
C646 C645 1.502 . S
C647 H633 0.960 . S
C647 H634 0.961 . S
C647 H635 0.959 . S
C647 C645 1.561 . S
C648 C645 1.526 . S
C648 C649 1.396 . S
C648 C653 1.390 . S
C649 C643 1.465 . S
C649 C648 1.396 . S
C649 C650 1.399 . S
C650 H636 0.929 1_554 S
C650 C649 1.399 . S
C650 C651 1.385 . S
C651 H637 0.931 1_554 S
C651 C650 1.385 . S
C651 C652 1.389 . S
C652 C651 1.389 . S
C652 C653 1.387 . S
C653 H638 0.930 . S
C653 C648 1.390 . S
C653 C652 1.387 . S
H654 C666 0.930 . S
H655 C668 0.930 . S
H656 C669 0.930 . S
H657 C673 0.959 . S
H658 C673 0.959 . S
H659 C673 0.961 . S
H660 C674 0.960 . S
H661 C674 0.961 . S
H662 C674 0.959 . S
H663 C677 0.929 . S
H664 C678 0.931 . S
H665 C680 0.930 . S
C666 H654 0.930 . S
C666 C667 1.399 . S
C666 C671 1.399 . S
C667 C666 1.399 . S
C667 C668 1.376 . S
C668 H655 0.930 . S
C668 C667 1.376 . S
C668 C669 1.388 . S
C669 H656 0.930 . S
C669 C668 1.388 . S
C669 C670 1.390 . S
C670 C669 1.390 . S
C670 C671 1.394 . S
C670 C676 1.465 . S
C671 C666 1.399 . S
C671 C670 1.394 . S
C671 C672 1.516 . S
C672 C671 1.516 . S
C672 C673 1.502 . S
C672 C674 1.561 . S
C672 C675 1.526 . S
C673 H657 0.959 . S
C673 H658 0.959 . S
C673 H659 0.961 . S
C673 C672 1.502 . S
C674 H660 0.960 . S
C674 H661 0.961 . S
C674 H662 0.959 . S
C674 C672 1.561 . S
C675 C672 1.526 . S
C675 C676 1.396 . S
C675 C680 1.390 . S
C676 C670 1.465 . S
C676 C675 1.396 . S
C676 C677 1.399 . S
C677 H663 0.929 . S
C677 C676 1.399 . S
C677 C678 1.385 . S
C678 H664 0.931 . S
C678 C677 1.385 . S
C678 C679 1.389 . S
C679 C678 1.389 . S
C679 C680 1.387 . S
C680 H665 0.930 . S
C680 C675 1.390 . S
C680 C679 1.387 . S
H681 C693 0.930 . S
H682 C695 0.930 . S
H683 C696 0.930 . S
H684 C700 0.959 . S
H685 C700 0.959 . S
H686 C700 0.961 . S
H687 C701 0.960 . S
H688 C701 0.961 . S
H689 C701 0.959 . S
H690 C704 0.929 . S
H691 C705 0.931 . S
H692 C707 0.930 . S
C693 H681 0.930 . S
C693 C694 1.399 . S
C693 C698 1.399 . S
C694 C693 1.399 . S
C694 C695 1.376 . S
C695 H682 0.930 . S
C695 C694 1.376 . S
C695 C696 1.388 . S
C696 H683 0.930 . S
C696 C695 1.388 . S
C696 C697 1.390 . S
C697 C696 1.390 . S
C697 C698 1.394 . S
C697 C703 1.465 . S
C698 C693 1.399 . S
C698 C697 1.394 . S
C698 C699 1.516 . S
C699 C698 1.516 . S
C699 C700 1.502 . S
C699 C701 1.561 . S
C699 C702 1.526 . S
C700 H684 0.959 . S
C700 H685 0.959 . S
C700 H686 0.961 . S
C700 C699 1.502 . S
C701 H687 0.960 . S
C701 H688 0.961 . S
C701 H689 0.959 . S
C701 C699 1.561 . S
C702 C699 1.526 . S
C702 C703 1.396 . S
C702 C707 1.390 . S
C703 C697 1.465 . S
C703 C702 1.396 . S
C703 C704 1.399 . S
C704 H690 0.929 . S
C704 C703 1.399 . S
C704 C705 1.385 . S
C705 H691 0.931 . S
C705 C704 1.385 . S
C705 C706 1.389 . S
C706 C705 1.389 . S
C706 C707 1.387 . S
C707 H692 0.930 . S
C707 C702 1.390 . S
C707 C706 1.387 . S
H708 C720 0.930 . S
H709 C722 0.930 . S
H710 C723 0.930 . S
H711 C727 0.959 . S
H712 C727 0.959 . S
H713 C727 0.961 . S
H714 C728 0.960 . S
H715 C728 0.961 . S
H716 C728 0.959 . S
H717 C731 0.929 . S
H718 C732 0.931 . S
H719 C734 0.930 . S
C720 H708 0.930 . S
C720 C721 1.399 . S
C720 C725 1.399 . S
C721 C720 1.399 . S
C721 C722 1.376 . S
C722 H709 0.930 . S
C722 C721 1.376 . S
C722 C723 1.388 . S
C723 H710 0.930 . S
C723 C722 1.388 . S
C723 C724 1.390 . S
C724 C723 1.390 . S
C724 C725 1.394 . S
C724 C730 1.465 . S
C725 C720 1.399 . S
C725 C724 1.394 . S
C725 C726 1.516 . S
C726 C725 1.516 . S
C726 C727 1.502 . S
C726 C728 1.561 . S
C726 C729 1.526 . S
C727 H711 0.959 . S
C727 H712 0.959 . S
C727 H713 0.961 . S
C727 C726 1.502 . S
C728 H714 0.960 . S
C728 H715 0.961 . S
C728 H716 0.959 . S
C728 C726 1.561 . S
C729 C726 1.526 . S
C729 C730 1.396 . S
C729 C734 1.390 . S
C730 C724 1.465 . S
C730 C729 1.396 . S
C730 C731 1.399 . S
C731 H717 0.929 . S
C731 C730 1.399 . S
C731 C732 1.385 . S
C732 H718 0.931 . S
C732 C731 1.385 . S
C732 C733 1.389 . S
C733 C732 1.389 . S
C733 C734 1.387 . S
C734 H719 0.930 . S
C734 C729 1.390 . S
C734 C733 1.387 . S
H735 C747 0.930 . S
H736 C749 0.930 . S
H737 C750 0.930 . S
H738 C754 0.959 . S
H739 C754 0.959 . S
H740 C754 0.961 . S
H741 C755 0.960 . S
H742 C755 0.961 . S
H743 C755 0.959 . S
H744 C758 0.929 . S
H745 C759 0.931 . S
H746 C761 0.930 . S
C747 H735 0.930 . S
C747 C748 1.399 . S
C747 C752 1.399 . S
C748 C747 1.399 . S
C748 C749 1.376 . S
C749 H736 0.930 . S
C749 C748 1.376 . S
C749 C750 1.388 . S
C750 H737 0.930 . S
C750 C749 1.388 . S
C750 C751 1.390 . S
C751 C750 1.390 . S
C751 C752 1.394 . S
C751 C757 1.465 . S
C752 C747 1.399 . S
C752 C751 1.394 . S
C752 C753 1.516 . S
C753 C752 1.516 . S
C753 C754 1.502 . S
C753 C755 1.561 . S
C753 C756 1.526 . S
C754 H738 0.959 . S
C754 H739 0.959 . S
C754 H740 0.961 . S
C754 C753 1.502 . S
C755 H741 0.960 . S
C755 H742 0.961 . S
C755 H743 0.959 . S
C755 C753 1.561 . S
C756 C753 1.526 . S
C756 C757 1.396 . S
C756 C761 1.390 . S
C757 C751 1.465 . S
C757 C756 1.396 . S
C757 C758 1.399 . S
C758 H744 0.929 . S
C758 C757 1.399 . S
C758 C759 1.385 . S
C759 H745 0.931 . S
C759 C758 1.385 . S
C759 C760 1.389 . S
C760 C759 1.389 . S
C760 C761 1.387 . S
C761 H746 0.930 . S
C761 C756 1.390 . S
C761 C760 1.387 . S
H762 C774 0.930 . S
H763 C776 0.930 . S
H764 C777 0.930 . S
H765 C781 0.959 . S
H766 C781 0.959 . S
H767 C781 0.961 . S
H768 C782 0.960 . S
H769 C782 0.961 . S
H770 C782 0.959 . S
H771 C785 0.929 . S
H772 C786 0.931 . S
H773 C788 0.930 . S
C774 H762 0.930 . S
C774 C775 1.399 . S
C774 C779 1.399 . S
C775 C774 1.399 . S
C775 C776 1.376 . S
C776 H763 0.930 . S
C776 C775 1.376 . S
C776 C777 1.388 . S
C777 H764 0.930 . S
C777 C776 1.388 . S
C777 C778 1.390 . S
C778 C777 1.390 . S
C778 C779 1.394 . S
C778 C784 1.465 . S
C779 C774 1.399 . S
C779 C778 1.394 . S
C779 C780 1.516 . S
C780 C779 1.516 . S
C780 C781 1.502 . S
C780 C782 1.561 . S
C780 C783 1.526 . S
C781 H765 0.959 . S
C781 H766 0.959 . S
C781 H767 0.961 . S
C781 C780 1.502 . S
C782 H768 0.960 . S
C782 H769 0.961 . S
C782 H770 0.959 . S
C782 C780 1.561 . S
C783 C780 1.526 . S
C783 C784 1.396 . S
C783 C788 1.390 . S
C784 C778 1.465 . S
C784 C783 1.396 . S
C784 C785 1.399 . S
C785 H771 0.929 . S
C785 C784 1.399 . S
C785 C786 1.385 . S
C786 H772 0.931 . S
C786 C785 1.385 . S
C786 C787 1.389 . S
C787 C786 1.389 . S
C787 C788 1.387 . S
C788 H773 0.930 . S
C788 C783 1.390 . S
C788 C787 1.387 . S
H789 C801 0.930 . S
H790 C803 0.930 . S
H791 C804 0.930 . S
H792 C808 0.959 . S
H793 C808 0.959 . S
H794 C808 0.961 . S
H795 C809 0.960 . S
H796 C809 0.961 . S
H797 C809 0.959 . S
H798 C812 0.929 . S
H799 C813 0.931 . S
H800 C815 0.930 . S
C801 H789 0.930 . S
C801 C802 1.399 . S
C801 C806 1.399 . S
C802 C801 1.399 . S
C802 C803 1.376 . S
C803 H790 0.930 . S
C803 C802 1.376 . S
C803 C804 1.388 . S
C804 H791 0.930 . S
C804 C803 1.388 . S
C804 C805 1.390 . S
C805 C804 1.390 . S
C805 C806 1.394 . S
C805 C811 1.465 . S
C806 C801 1.399 . S
C806 C805 1.394 . S
C806 C807 1.516 . S
C807 C806 1.516 . S
C807 C808 1.502 . S
C807 C809 1.561 . S
C807 C810 1.526 . S
C808 H792 0.959 . S
C808 H793 0.959 . S
C808 H794 0.961 . S
C808 C807 1.502 . S
C809 H795 0.960 . S
C809 H796 0.961 . S
C809 H797 0.959 . S
C809 C807 1.561 . S
C810 C807 1.526 . S
C810 C811 1.396 . S
C810 C815 1.390 . S
C811 C805 1.465 . S
C811 C810 1.396 . S
C811 C812 1.399 . S
C812 H798 0.929 . S
C812 C811 1.399 . S
C812 C813 1.385 . S
C813 H799 0.931 . S
C813 C812 1.385 . S
C813 C814 1.389 . S
C814 C813 1.389 . S
C814 C815 1.387 . S
C815 H800 0.930 . S
C815 C810 1.390 . S
C815 C814 1.387 . S
C181 C9 1.594 . S
C193 C149 1.506 . S
C208 C23 1.595 . S
C220 C163 1.497 . S
C235 C93 1.494 . S
C247 C37 1.600 . S
C262 C51 1.513 . S
C274 C107 1.574 . S
C289 C121 1.586 . S
C301 C65 1.505 . S
C316 C135 1.583 . S
C328 C79 1.507 . S
C343 C89 0.469 . S
C355 C5 0.495 . S
C370 C103 0.392 . S
C382 C19 0.510 . S
C397 C117 0.479 . S
C409 C33 0.414 . S
C424 C47 0.507 . S
C436 C131 0.394 . S
C451 C61 0.396 . S
C463 C145 0.502 . S
C478 C75 0.457 . S
C490 C159 0.504 . S
C505 C11 1.425 . S
C517 C53 1.401 . S
C532 C25 1.373 . S
C544 C67 1.393 . S
C559 C39 1.416 . S
C571 C81 1.425 . S
C586 C137 1.373 . S
C598 C95 1.389 . S
C613 C151 1.426 . S
C625 C109 1.412 . S
C640 C165 1.374 . S
C652 C123 1.400 . S
C667 C0 1.498 . S
C679 C112 1.491 . S
C694 C126 1.478 . S
C706 C14 1.485 . S
C721 C28 1.514 . S
C733 C140 1.507 . S
C748 C154 1.473 . S
C760 C42 1.469 . S
C775 C56 1.524 . S
C787 C84 1.518 . S
C802 C70 1.523 . S
C814 C98 1.517 . S
