# Generated by pormake.
# Topology uoo, (4)-cn, num edge types: 1
# Building blocks:
#     Node 0, Type 0, BuildingBlock: QUQFOY_clean_sbu_1, # of connection points: 4
#     Node 1, Type 0, BuildingBlock: QUQFOY_clean_sbu_1, # of connection points: 4
#     Node 2, Type 0, BuildingBlock: QUQFOY_clean_sbu_1, # of connection points: 4
#     Node 3, Type 0, BuildingBlock: QUQFOY_clean_sbu_1, # of connection points: 4
#     Node 4, Type 0, BuildingBlock: QUQFOY_clean_sbu_1, # of connection points: 4
#     Node 5, Type 0, BuildingBlock: QUQFOY_clean_sbu_1, # of connection points: 4
#     Edge 6, Type (0, 0), BuildingBlock: XUDNAN_clean_linker_2, # of connection points: 2
#     Edge 7, Type (0, 0), BuildingBlock: XUDNAN_clean_linker_2, # of connection points: 2
#     Edge 8, Type (0, 0), BuildingBlock: XUDNAN_clean_linker_2, # of connection points: 2
#     Edge 9, Type (0, 0), BuildingBlock: XUDNAN_clean_linker_2, # of connection points: 2
#     Edge 10, Type (0, 0), BuildingBlock: XUDNAN_clean_linker_2, # of connection points: 2
#     Edge 11, Type (0, 0), BuildingBlock: XUDNAN_clean_linker_2, # of connection points: 2
#     Edge 12, Type (0, 0), BuildingBlock: XUDNAN_clean_linker_2, # of connection points: 2
#     Edge 13, Type (0, 0), BuildingBlock: XUDNAN_clean_linker_2, # of connection points: 2
#     Edge 14, Type (0, 0), BuildingBlock: XUDNAN_clean_linker_2, # of connection points: 2
#     Edge 15, Type (0, 0), BuildingBlock: XUDNAN_clean_linker_2, # of connection points: 2
#     Edge 16, Type (0, 0), BuildingBlock: XUDNAN_clean_linker_2, # of connection points: 2
#     Edge 17, Type (0, 0), BuildingBlock: XUDNAN_clean_linker_2, # of connection points: 2
# Relax obj value: 0.244
# Max RMSD: 0.195
# Mean RMSD: 0.195
data_MOF--net-uoo--node1-QUQFOY_clean_sbu_1--edge1-XUDNAN_clean_linker_2
_symmetry_space_group_name_H-M    P1
_symmetry_Int_Tables_number       1
_symmetry_cell_setting            triclinic
loop_
_symmetry_equiv_pos_as_xyz
'x, y, z'
_cell_length_a     24.998226
_cell_length_b     25.018066
_cell_length_c     41.127927
_cell_angle_alpha  90.09332
_cell_angle_beta   90.043892
_cell_angle_gamma 120.01025
loop_
_atom_site_label
_atom_site_type_symbol
_atom_site_fract_x
_atom_site_fract_y
_atom_site_fract_z
_atom_type_partial_charge
O0 O 0.14566 0.25769 0.95525 0.0
Cd1 Cd 0.15446 0.31689 0.99293 0.0
Cd2 Cd 0.04667 0.21314 0.01068 0.0
O3 O 0.06033 0.17355 0.96989 0.0
O4 O 0.23621 0.38976 0.98275 0.0
O5 O 0.21828 0.337 0.02832 0.0
C6 C 0.25647 0.38177 0.01001 0.0
C7 C 0.04082 0.17273 0.06215 0.0
C8 C 0.10489 0.20166 0.95019 0.0
C9 C 0.03836 0.32646 0.99935 0.0
O10 O 0.0082 0.26867 0.00465 0.0
O11 O 0.09652 0.35391 0.99509 0.0
O12 O 0.99566 0.14579 0.04179 0.0
O13 O 0.09031 0.2221 0.05299 0.0
O14 O 0.89469 0.14573 0.28944 0.0
Cd15 Cd 0.84598 0.16085 0.32572 0.0
Cd16 Cd 0.83572 0.05133 0.34588 0.0
O17 O 0.88579 0.05722 0.30495 0.0
O18 O 0.86269 0.24509 0.31464 0.0
O19 O 0.89095 0.22357 0.36144 0.0
C20 C 0.88929 0.26377 0.34245 0.0
C21 C 0.8656 0.03669 0.39717 0.0
C22 C 0.90546 0.10166 0.28492 0.0
C23 C 0.71749 0.05178 0.332 0.0
O24 O 0.74299 0.02061 0.33974 0.0
O25 O 0.75022 0.10913 0.32606 0.0
O26 O 0.83839 0.99168 0.37678 0.0
O27 O 0.87813 0.09114 0.38801 0.0
O28 O 0.70561 0.74647 0.67888 0.0
Cd29 Cd 0.78164 0.83494 0.68347 0.0
Cd30 Cd 0.69797 0.87338 0.66801 0.0
O31 O 0.63973 0.78003 0.67258 0.0
O32 O 0.84348 0.83516 0.71415 0.0
O33 O 0.78721 0.87902 0.72522 0.0
C34 C 0.82838 0.86516 0.73419 0.0
C35 C 0.65156 0.93188 0.68155 0.0
C36 C 0.65043 0.73575 0.67575 0.0
C37 C 0.80577 0.90608 0.62222 0.0
O38 O 0.75545 0.90503 0.62815 0.0
O39 O 0.82736 0.88258 0.64191 0.0
O40 O 0.63867 0.90047 0.65508 0.0
O41 O 0.69158 0.9307 0.70091 0.0
O42 O 0.83875 0.7512 0.96373 0.0
Cd43 Cd 0.81118 0.68383 0.99921 0.0
Cd44 Cd 0.93275 0.76078 0.01659 0.0
O45 O 0.93764 0.81011 0.97537 0.0
O46 O 0.72392 0.62937 0.98553 0.0
O47 O 0.74886 0.67248 0.03413 0.0
C48 C 0.70661 0.63737 0.01365 0.0
C49 C 0.9381 0.79916 0.06876 0.0
C50 C 0.89142 0.79734 0.95734 0.0
C51 C 0.89795 0.63068 0.00361 0.0
O52 O 0.94233 0.68385 0.0111 0.0
O53 O 0.84431 0.62275 0.99832 0.0
O54 O 0.98755 0.81573 0.05189 0.0
O55 O 0.88534 0.76194 0.05547 0.0
O56 O 0.08039 0.83575 0.29957 0.0
Cd57 Cd 0.13234 0.81901 0.33303 0.0
Cd58 Cd 0.17733 0.94712 0.34043 0.0
O59 O 0.12365 0.93728 0.30019 0.0
O60 O 0.10645 0.73321 0.31938 0.0
O61 O 0.0888 0.7553 0.36869 0.0
C62 C 0.0837 0.71442 0.34783 0.0
C63 C 0.15135 0.96339 0.39207 0.0
C64 C 0.08459 0.88509 0.28853 0.0
C65 C 0.27308 0.91372 0.32954 0.0
O66 O 0.26413 0.95906 0.33333 0.0
O67 O 0.22761 0.85872 0.32901 0.0
O68 O 0.1777 0.00832 0.37161 0.0
O69 O 0.13851 0.90872 0.38298 0.0
O70 O 0.2877 0.26377 0.67436 0.0
Cd71 Cd 0.23046 0.16975 0.67837 0.0
Cd72 Cd 0.33322 0.16563 0.65919 0.0
O73 O 0.37218 0.26053 0.66271 0.0
O74 O 0.16289 0.15356 0.70941 0.0
O75 O 0.23728 0.13217 0.7201 0.0
C76 C 0.18868 0.13366 0.72945 0.0
C77 C 0.39578 0.12595 0.67601 0.0
C78 C 0.34539 0.29132 0.66861 0.0
C79 C 0.21863 0.10472 0.61593 0.0
O80 O 0.27425 0.11836 0.62088 0.0
O81 O 0.19083 0.1203 0.63638 0.0
O82 O 0.40483 0.15478 0.64889 0.0
O83 O 0.35109 0.11993 0.69424 0.0
H84 H 0.25601 0.18711 0.78345 0.0
H85 H 0.07168 0.05464 0.75071 0.0
H86 H 0.03265 0.04548 0.80703 0.0
H87 H 0.24687 0.12727 0.86808 0.0
H88 H 0.2886 0.20436 0.88456 0.0
H89 H 0.30419 0.18944 0.84377 0.0
H90 H 0.28202 0.27361 0.82198 0.0
H91 H 0.26596 0.28844 0.86253 0.0
H92 H 0.20894 0.26833 0.83096 0.0
H93 H 0.01239 0.05884 0.86577 0.0
H94 H 0.00992 0.10145 0.9197 0.0
H95 H 0.20602 0.23293 0.91216 0.0
C96 C 0.20799 0.15431 0.78855 0.0
C97 C 0.16701 0.12006 0.76325 0.0
C98 C 0.10379 0.08006 0.77013 0.0
C99 C 0.0814 0.07453 0.80199 0.0
C100 C 0.12274 0.11028 0.82643 0.0
C101 C 0.18469 0.14981 0.81997 0.0
C102 C 0.21753 0.19041 0.84901 0.0
C103 C 0.26724 0.17704 0.86213 0.0
C104 C 0.2452 0.25923 0.8406 0.0
C105 C 0.16418 0.16888 0.87253 0.0
C106 C 0.11027 0.12143 0.85946 0.0
C107 C 0.05445 0.09572 0.8763 0.0
C108 C 0.0535 0.12017 0.90694 0.0
C109 C 0.10772 0.17068 0.92005 0.0
C110 C 0.16383 0.19436 0.90277 0.0
H111 H 0.98456 0.19994 0.24768 0.0
H112 H 0.89549 1.00047 0.25338 0.0
H113 H 0.93417 0.99762 0.19843 0.0
H114 H 0.94992 0.21058 0.16908 0.0
H115 H 0.0222 0.27808 0.15873 0.0
H116 H 0.99625 0.26514 0.20019 0.0
H117 H 0.09846 0.27128 0.21837 0.0
H118 H 0.12503 0.28467 0.17685 0.0
H119 H 0.1226 0.22179 0.19942 0.0
H120 H 0.96257 0.01538 0.1391 0.0
H121 H 0.99005 0.05352 0.08261 0.0
H122 H 0.0694 0.24171 0.1171 0.0
C123 C 0.97458 0.1558 0.2377 0.0
C124 C 0.9369 0.10042 0.25469 0.0
C125 C 0.92462 0.0435 0.24084 0.0
C126 C 0.94633 0.04145 0.20963 0.0
C127 C 0.98154 0.09685 0.19301 0.0
C128 C 0.99692 0.15311 0.20692 0.0
C129 C 0.03202 0.20567 0.18332 0.0
C130 C 0.99804 0.24194 0.17749 0.0
C131 C 0.09848 0.24837 0.1952 0.0
C132 C 0.03096 0.17002 0.15333 0.0
C133 C 1.00178 0.10725 0.15939 0.0
C134 C 0.98757 0.06449 0.13434 0.0
C135 C 0.00307 0.08643 0.10237 0.0
C136 C 0.03323 0.15047 0.09586 0.0
C137 C 0.04856 0.19269 0.12173 0.0
H138 H 0.7953 0.93288 0.43174 0.0
H139 H 0.95819 0.11422 0.43905 0.0
H140 H 0.96965 0.09451 0.49711 0.0
H141 H 0.7334 0.94215 0.50531 0.0
H142 H 0.69943 0.86141 0.51504 0.0
H143 H 0.71123 0.88563 0.47328 0.0
H144 H 0.77515 0.83122 0.46405 0.0
H145 H 0.76355 0.80679 0.50591 0.0
H146 H 0.84073 0.85027 0.4898 0.0
H147 H 0.95802 0.05622 0.55585 0.0
H148 H 0.91793 0.00882 0.60999 0.0
H149 H 0.75804 0.85795 0.56364 0.0
C150 C 0.83439 0.96778 0.44533 0.0
C151 C 0.87658 0.02456 0.43092 0.0
C152 C 0.92577 0.07014 0.44971 0.0
C153 C 0.93273 0.05918 0.48258 0.0
C154 C 0.88947 0.00285 0.49627 0.0
C155 C 0.84089 0.95825 0.47818 0.0
C156 C 0.79598 0.90509 0.49914 0.0
C157 C 0.73123 0.89823 0.49813 0.0
C158 C 0.79376 0.84478 0.48912 0.0
C159 C 0.826 0.92705 0.53205 0.0
C160 C 0.88075 0.98271 0.52996 0.0
C161 C 0.91541 0.0125 0.55766 0.0
C162 C 0.89259 0.98534 0.58822 0.0
C163 C 0.83532 0.92989 0.5906 0.0
C164 C 0.80228 0.90017 0.56221 0.0
H165 H 0.80169 0.80299 0.92213 0.0
H166 H 0.99815 0.86724 0.92291 0.0
H167 H 0.00678 0.90725 0.86709 0.0
H168 H 0.77141 0.74667 0.84571 0.0
H169 H 0.71615 0.77022 0.83539 0.0
H170 H 0.72745 0.75747 0.87716 0.0
H171 H 0.75231 0.86828 0.89197 0.0
H172 H 0.74049 0.88132 0.85013 0.0
H173 H 0.81222 0.93316 0.87025 0.0
H174 H 0.9891 0.91807 0.80783 0.0
H175 H 0.94849 0.90956 0.75195 0.0
H176 H 0.76557 0.84655 0.79072 0.0
C177 C 0.84689 0.82717 0.91093 0.0
C178 C 0.89923 0.83191 0.92683 0.0
C179 C 0.95751 0.86348 0.9113 0.0
C180 C 0.96282 0.88629 0.87956 0.0
C181 C 0.9097 0.87844 0.86403 0.0
C182 C 0.85309 0.85098 0.87953 0.0
C183 C 0.80217 0.84371 0.85678 0.0
C184 C 0.75136 0.77549 0.85358 0.0
C185 C 0.77522 0.88404 0.86795 0.0
C186 C 0.83819 0.86783 0.8255 0.0
C187 C 0.90029 0.88807 0.83018 0.0
C188 C 0.94107 0.90439 0.80406 0.0
C189 C 0.91766 0.8992 0.77244 0.0
C190 C 0.85436 0.87881 0.76732 0.0
C191 C 0.81459 0.8644 0.79421 0.0
H192 H 0.12321 0.94699 0.23116 0.0
H193 H 0.96109 0.8086 0.28171 0.0
H194 H 0.89985 0.78609 0.23116 0.0
H195 H 0.04026 0.99504 0.17055 0.0
H196 H 0.09119 0.00132 0.13791 0.0
H197 H 0.11974 0.01878 0.17911 0.0
H198 H 0.15668 0.93926 0.17596 0.0
H199 H 0.12995 0.92183 0.13469 0.0
H200 H 0.10273 0.86075 0.16432 0.0
H201 H 0.86066 0.76719 0.1743 0.0
H202 H 0.84841 0.74738 0.11522 0.0
H203 H 0.03805 0.89244 0.10037 0.0
C204 C 0.07415 0.91405 0.23175 0.0
C205 C 0.04618 0.88055 0.26032 0.0
C206 C 0.98275 0.83544 0.26009 0.0
C207 C 0.94768 0.82258 0.23154 0.0
C208 C 0.97696 0.85476 0.20334 0.0
C209 C 0.03888 0.89959 0.20318 0.0
C210 C 0.06163 0.9201 0.16877 0.0
C211 C 0.07925 0.98783 0.16378 0.0
C212 C 0.11591 0.90982 0.16047 0.0
C213 C 0.00407 0.87705 0.14958 0.0
C214 C 0.95514 0.84143 0.17001 0.0
C215 C 0.89834 0.79549 0.15804 0.0
C216 C 0.89182 0.7845 0.12441 0.0
C217 C 0.94229 0.81827 0.10321 0.0
C218 C 0.99856 0.86612 0.11598 0.0
H219 H 0.24396 0.0312 0.57728 0.0
H220 H 0.12613 0.11206 0.58419 0.0
H221 H 0.08661 0.07462 0.52872 0.0
H222 H 0.28856 0.06832 0.49781 0.0
H223 H 0.28682 0.99749 0.4873 0.0
H224 H 0.29996 0.02398 0.52875 0.0
H225 H 0.20702 0.92005 0.54742 0.0
H226 H 0.19377 0.89294 0.50595 0.0
H227 H 0.13234 0.89279 0.52895 0.0
H228 H 0.07521 0.04515 0.46917 0.0
H229 H 0.08326 0.01456 0.41274 0.0
H230 H 0.2 0.94387 0.4465 0.0
C231 C 0.20885 0.03986 0.56738 0.0
C232 C 0.18824 0.07469 0.58494 0.0
C233 C 0.14229 0.08514 0.57121 0.0
C234 C 0.1197 0.06418 0.5397 0.0
C235 C 0.14244 0.03154 0.52262 0.0
C236 C 0.1849 0.01812 0.53631 0.0
C237 C 0.20382 0.98438 0.5125 0.0
C238 C 0.27393 0.02074 0.50623 0.0
C239 C 0.18297 0.91863 0.52442 0.0
C240 C 0.16767 0.98341 0.48276 0.0
C241 C 0.13252 0.01089 0.48901 0.0
C242 C 0.10098 0.02183 0.46425 0.0
C243 C 0.10586 0.00455 0.43234 0.0
C244 C 0.14085 0.97557 0.42575 0.0
C245 C 0.17124 0.96405 0.45131 0.0
H246 H 0.35081 0.45288 0.96924 0.0
H247 H 0.31069 0.39969 0.07049 0.0
H248 H 0.42188 0.46626 0.0839 0.0
H249 H 0.48912 0.44791 0.9662 0.0
H250 H 0.52692 0.51205 0.93858 0.0
H251 H 0.44412 0.46469 0.93809 0.0
H252 H 0.43396 0.56182 0.94729 0.0
H253 H 0.51685 0.60951 0.94793 0.0
H254 H 0.47183 0.61127 0.9817 0.0
H255 H 0.53962 0.53924 0.08534 0.0
H256 H 0.65198 0.60226 0.07386 0.0
H257 H 0.61158 0.60042 0.9712 0.0
C258 C 0.36512 0.45576 0.99435 0.0
C259 C 0.32214 0.42173 0.01892 0.0
C260 C 0.34298 0.42568 0.05134 0.0
C261 C 0.40591 0.46354 0.05916 0.0
C262 C 0.44717 0.49648 0.0342 0.0
C263 C 0.42742 0.49228 1.0024 0.0
C264 C 0.48076 0.52843 0.97951 0.0
C265 C 0.4855 0.48571 0.95412 0.0
C266 C 0.47552 0.58087 0.96316 0.0
C267 C 0.53399 0.55341 0.00325 0.0
C268 C 0.514 0.53556 0.03479 0.0
C269 C 0.55563 0.55338 0.06071 0.0
C270 C 0.61923 0.58931 0.05403 0.0
C271 C 0.64021 0.60582 0.02166 0.0
C272 C 0.59683 0.58816 0.99618 0.0
H273 H 0.9215 0.35985 0.30142 0.0
H274 H 0.92248 0.31668 0.40342 0.0
H275 H 0.96929 0.42795 0.4171 0.0
H276 H 0.06773 0.49809 0.30192 0.0
H277 H 0.04443 0.53668 0.27302 0.0
H278 H 0.00888 0.45391 0.27216 0.0
H279 H 0.90085 0.44386 0.2776 0.0
H280 H 0.93611 0.52665 0.2786 0.0
H281 H 0.88582 0.48094 0.31115 0.0
H282 H 0.01496 0.5461 0.41883 0.0
H283 H 0.06244 0.65847 0.40794 0.0
H284 H 0.03446 0.62011 0.30454 0.0
C285 C 0.93112 0.37357 0.32671 0.0
C286 C 0.9179 0.32969 0.35142 0.0
C287 C 0.93221 0.3497 0.38413 0.0
C288 C 0.95855 0.41268 0.3921 0.0
C289 C 0.97079 0.4548 0.367 0.0
C290 C 0.95801 0.43583 0.33494 0.0
C291 C 0.97765 0.48967 0.31214 0.0
C292 C 0.02765 0.49488 0.28843 0.0
C293 C 0.92177 0.48498 0.29381 0.0
C294 C 0.00354 0.54224 0.33626 0.0
C295 C 0.99873 0.52162 0.36786 0.0
C296 C 0.01916 0.56262 0.39414 0.0
C297 C 0.04582 0.62622 0.38778 0.0
C298 C 0.05248 0.64785 0.35542 0.0
C299 C 0.03058 0.60504 0.32954 0.0
H300 H 0.45905 0.09334 0.63477 0.0
H301 H 0.41966 0.09763 0.73708 0.0
H302 H 0.48716 0.05426 0.75074 0.0
H303 H 0.45319 0.94864 0.63731 0.0
H304 H 0.51324 0.97012 0.60745 0.0
H305 H 0.46544 0.00505 0.60664 0.0
H306 H 0.56331 0.1136 0.60957 0.0
H307 H 0.61143 0.07895 0.6106 0.0
H308 H 0.61764 0.13151 0.64236 0.0
H309 H 0.56138 0.01092 0.7524 0.0
H310 H 0.62434 0.96124 0.74152 0.0
H311 H 0.60717 0.98086 0.63793 0.0
C312 C 0.46502 0.08573 0.66011 0.0
C313 C 0.43486 0.09942 0.68494 0.0
C314 C 0.44266 0.08754 0.71773 0.0
C315 C 0.48109 0.06326 0.72568 0.0
C316 C 0.51047 0.0505 0.70048 0.0
C317 C 0.502 0.06065 0.66833 0.0
C318 C 0.53506 0.03964 0.64545 0.0
C319 C 0.48898 0.98778 0.6229 0.0
C320 C 0.58481 0.09419 0.62585 0.0
C321 C 0.56364 0.01592 0.66964 0.0
C322 C 0.54997 0.02329 0.70132 0.0
C323 C 0.57211 0.00479 0.72767 0.0
C324 C 0.60801 0.97696 0.72132 0.0
C325 C 0.62017 0.96707 0.68893 0.0
C326 C 0.59821 0.98752 0.66295 0.0
H327 H 0.47186 0.36601 0.66535 0.0
H328 H 0.30147 0.37145 0.67442 0.0
H329 H 0.36158 0.48499 0.67743 0.0
H330 H 0.56095 0.48998 0.72121 0.0
H331 H 0.63142 0.52064 0.69808 0.0
H332 H 0.5753 0.43953 0.69594 0.0
H333 H 0.57068 0.44686 0.63328 0.0
H334 H 0.62695 0.52795 0.6352 0.0
H335 H 0.55349 0.50254 0.61568 0.0
H336 H 0.43874 0.59674 0.67941 0.0
H337 H 0.5288 0.70141 0.68045 0.0
H338 H 0.65092 0.6254 0.6711 0.0
C339 C 0.44712 0.39106 0.6678 0.0
C340 C 0.38179 0.35967 0.66956 0.0
C341 C 0.35137 0.39429 0.67301 0.0
C342 C 0.38511 0.45884 0.67474 0.0
C343 C 0.44929 0.48819 0.67312 0.0
C344 C 0.48014 0.45563 0.66975 0.0
C345 C 0.54957 0.4988 0.66895 0.0
C346 C 0.58116 0.48649 0.69776 0.0
C347 C 0.57676 0.49373 0.63633 0.0
C348 C 0.55282 0.56073 0.67239 0.0
C349 C 0.4943 0.55326 0.67467 0.0
C350 C 0.48482 0.60325 0.67766 0.0
C351 C 0.53647 0.66262 0.67818 0.0
C352 C 0.59716 0.67185 0.67584 0.0
C353 C 0.60526 0.61996 0.67308 0.0
H354 H 0.00804 0.63002 0.00551 0.0
H355 H 0.80951 0.5092 0.99722 0.0
H356 H 0.82401 0.4189 0.99478 0.0
H357 H 0.04983 0.54436 0.95013 0.0
H358 H 0.1166 0.55765 0.97334 0.0
H359 H 0.09088 0.61325 0.97448 0.0
H360 H 0.08343 0.60492 0.03729 0.0
H361 H 0.10911 0.54929 0.03634 0.0
H362 H 0.03724 0.53032 0.05588 0.0
H363 H 0.85925 0.34116 0.99486 0.0
H364 H 0.91364 0.28161 0.99544 0.0
H365 H 0.08941 0.45251 1.00197 0.0
C366 C 0.96762 0.5846 1.00315 0.0
C367 C 0.90761 0.57687 1.0016 0.0
C368 C 0.85599 0.51652 0.99839 0.0
C369 C 0.86368 0.4648 0.99702 0.0
C370 C 0.92332 0.474 0.99868 0.0
C371 C 0.97446 0.53234 1.00149 0.0
C372 C 0.0335 0.52929 1.00257 0.0
C373 C 0.07515 0.56314 0.97339 0.0
C374 C 0.06783 0.55497 0.03495 0.0
C375 C 0.00744 0.46015 1.00011 0.0
C376 C 0.94377 0.42913 0.99802 0.0
C377 C 0.90916 0.36494 0.99629 0.0
C378 C 0.94047 0.3315 0.9967 0.0
C379 C 0.0058 0.3623 0.99858 0.0
C380 C 0.03949 0.42755 1.00021 0.0
H381 H 0.64366 0.10479 0.32999 0.0
H382 H 0.63672 0.9278 0.32931 0.0
H383 H 0.52315 0.87448 0.32629 0.0
H384 H 0.51137 0.05715 0.38087 0.0
H385 H 0.48426 0.10242 0.35999 0.0
H386 H 0.56546 0.12736 0.36044 0.0
H387 H 0.56736 0.1305 0.29747 0.0
H388 H 0.48609 0.10547 0.29683 0.0
H389 H 0.51461 0.06245 0.27484 0.0
H390 H 0.41123 0.83991 0.32401 0.0
H391 H 0.30648 0.82543 0.32514 0.0
H392 H 0.38392 0.02432 0.32881 0.0
C393 C 0.61824 0.05484 0.32894 0.0
C394 C 0.64922 0.02049 0.32976 0.0
C395 C 0.61417 0.95516 0.32876 0.0
C396 C 0.54959 0.92439 0.32693 0.0
C397 C 0.52054 0.95951 0.32629 0.0
C398 C 0.55351 0.02322 0.32743 0.0
C399 C 0.51042 0.04957 0.3277 0.0
C400 C 0.51836 0.08628 0.35912 0.0
C401 C 0.52021 0.08934 0.2974 0.0
C402 C 0.44817 0.99061 0.32671 0.0
C403 C 0.45533 0.93934 0.32563 0.0
C404 C 0.40495 0.87967 0.32482 0.0
C405 C 0.34553 0.872 0.32545 0.0
C406 C 0.33668 0.9237 0.32708 0.0
C407 C 0.38897 0.98384 0.3275 0.0
loop_
_geom_bond_atom_site_label_1
_geom_bond_atom_site_label_2
_geom_bond_distance
_geom_bond_site_symmetry_2
_ccdc_geom_bond_type
O0 Cd1 2.223 . S
O0 C8 1.315 . S
Cd1 O0 2.223 . S
Cd1 O4 2.297 . S
Cd1 O5 2.439 1_556 S
Cd1 O11 2.240 1_556 S
Cd2 O3 2.240 1_554 S
Cd2 O10 2.223 1_554 S
Cd2 O12 2.297 1_455 S
Cd2 O13 2.439 . S
O3 Cd2 2.240 1_556 S
O3 C8 1.279 . S
O4 Cd1 2.297 . S
O4 C6 1.247 1_556 S
O5 Cd1 2.439 1_554 S
O5 C6 1.208 . S
C6 O4 1.247 1_554 S
C6 O5 1.208 . S
C7 O12 1.247 1_455 S
C7 O13 1.208 . S
C8 O0 1.315 . S
C8 O3 1.279 . S
C9 O10 1.315 . S
C9 O11 1.279 1_556 S
O10 Cd2 2.223 1_556 S
O10 C9 1.315 . S
O11 Cd1 2.240 1_554 S
O11 C9 1.279 1_554 S
O12 Cd2 2.297 1_655 S
O12 C7 1.247 1_655 S
O13 Cd2 2.439 . S
O13 C7 1.208 . S
O14 Cd15 2.223 . S
O14 C22 1.315 . S
Cd15 O14 2.223 . S
Cd15 O18 2.297 . S
Cd15 O19 2.439 . S
Cd15 O25 2.240 . S
Cd16 O17 2.240 . S
Cd16 O24 2.223 . S
Cd16 O26 2.297 1_545 S
Cd16 O27 2.439 . S
O17 Cd16 2.240 . S
O17 C22 1.279 . S
O18 Cd15 2.297 . S
O18 C20 1.247 . S
O19 Cd15 2.439 . S
O19 C20 1.208 . S
C20 O18 1.247 . S
C20 O19 1.208 . S
C21 O26 1.247 1_545 S
C21 O27 1.208 . S
C22 O14 1.315 . S
C22 O17 1.279 . S
C23 O24 1.315 . S
C23 O25 1.279 . S
O24 Cd16 2.223 . S
O24 C23 1.315 . S
O25 Cd15 2.240 . S
O25 C23 1.279 . S
O26 Cd16 2.297 1_565 S
O26 C21 1.247 1_565 S
O27 Cd16 2.439 . S
O27 C21 1.208 . S
O28 Cd29 2.223 . S
O28 C36 1.315 . S
Cd29 O28 2.223 . S
Cd29 O32 2.297 . S
Cd29 O33 2.439 . S
Cd29 O39 2.240 . S
Cd30 O31 2.240 . S
Cd30 O38 2.223 . S
Cd30 O40 2.297 . S
Cd30 O41 2.439 . S
O31 Cd30 2.240 . S
O31 C36 1.279 . S
O32 Cd29 2.297 . S
O32 C34 1.247 . S
O33 Cd29 2.439 . S
O33 C34 1.208 . S
C34 O32 1.247 . S
C34 O33 1.208 . S
C35 O40 1.247 . S
C35 O41 1.208 . S
C36 O28 1.315 . S
C36 O31 1.279 . S
C37 O38 1.315 . S
C37 O39 1.279 . S
O38 Cd30 2.223 . S
O38 C37 1.315 . S
O39 Cd29 2.240 . S
O39 C37 1.279 . S
O40 Cd30 2.297 . S
O40 C35 1.247 . S
O41 Cd30 2.439 . S
O41 C35 1.208 . S
O42 Cd43 2.223 . S
O42 C50 1.315 . S
Cd43 O42 2.223 . S
Cd43 O46 2.297 . S
Cd43 O47 2.439 1_556 S
Cd43 O53 2.240 1_556 S
Cd44 O45 2.240 1_554 S
Cd44 O52 2.223 1_554 S
Cd44 O54 2.297 1_655 S
Cd44 O55 2.439 . S
O45 Cd44 2.240 1_556 S
O45 C50 1.279 . S
O46 Cd43 2.297 . S
O46 C48 1.247 1_556 S
O47 Cd43 2.439 1_554 S
O47 C48 1.208 . S
C48 O46 1.247 1_554 S
C48 O47 1.208 . S
C49 O54 1.247 1_655 S
C49 O55 1.208 . S
C50 O42 1.315 . S
C50 O45 1.279 . S
C51 O52 1.315 . S
C51 O53 1.279 1_556 S
O52 Cd44 2.223 1_556 S
O52 C51 1.315 . S
O53 Cd43 2.240 1_554 S
O53 C51 1.279 1_554 S
O54 Cd44 2.297 1_455 S
O54 C49 1.247 1_455 S
O55 Cd44 2.439 . S
O55 C49 1.208 . S
O56 Cd57 2.223 . S
O56 C64 1.315 . S
Cd57 O56 2.223 . S
Cd57 O60 2.297 . S
Cd57 O61 2.439 . S
Cd57 O67 2.240 . S
Cd58 O59 2.240 . S
Cd58 O66 2.223 . S
Cd58 O68 2.297 1_565 S
Cd58 O69 2.439 . S
O59 Cd58 2.240 . S
O59 C64 1.279 . S
O60 Cd57 2.297 . S
O60 C62 1.247 . S
O61 Cd57 2.439 . S
O61 C62 1.208 . S
C62 O60 1.247 . S
C62 O61 1.208 . S
C63 O68 1.247 1_565 S
C63 O69 1.208 . S
C64 O56 1.315 . S
C64 O59 1.279 . S
C65 O66 1.315 . S
C65 O67 1.279 . S
O66 Cd58 2.223 . S
O66 C65 1.315 . S
O67 Cd57 2.240 . S
O67 C65 1.279 . S
O68 Cd58 2.297 1_545 S
O68 C63 1.247 1_545 S
O69 Cd58 2.439 . S
O69 C63 1.208 . S
O70 Cd71 2.223 . S
O70 C78 1.315 . S
Cd71 O70 2.223 . S
Cd71 O74 2.297 . S
Cd71 O75 2.439 . S
Cd71 O81 2.240 . S
Cd72 O73 2.240 . S
Cd72 O80 2.223 . S
Cd72 O82 2.297 . S
Cd72 O83 2.439 . S
O73 Cd72 2.240 . S
O73 C78 1.279 . S
O74 Cd71 2.297 . S
O74 C76 1.247 . S
O75 Cd71 2.439 . S
O75 C76 1.208 . S
C76 O74 1.247 . S
C76 O75 1.208 . S
C77 O82 1.247 . S
C77 O83 1.208 . S
C78 O70 1.315 . S
C78 O73 1.279 . S
C79 O80 1.315 . S
C79 O81 1.279 . S
O80 Cd72 2.223 . S
O80 C79 1.315 . S
O81 Cd71 2.240 . S
O81 C79 1.279 . S
O82 Cd72 2.297 . S
O82 C77 1.247 . S
O83 Cd72 2.439 . S
O83 C77 1.208 . S
H84 C96 0.930 . S
H85 C98 0.930 . S
H86 C99 0.930 . S
H87 C103 0.959 . S
H88 C103 0.959 . S
H89 C103 0.961 . S
H90 C104 0.960 . S
H91 C104 0.961 . S
H92 C104 0.959 . S
H93 C107 0.929 . S
H94 C108 0.931 . S
H95 C110 0.930 . S
C96 H84 0.930 . S
C96 C97 1.399 . S
C96 C101 1.399 . S
C97 C96 1.399 . S
C97 C98 1.376 . S
C98 H85 0.930 . S
C98 C97 1.376 . S
C98 C99 1.388 . S
C99 H86 0.930 . S
C99 C98 1.388 . S
C99 C100 1.390 . S
C100 C99 1.390 . S
C100 C101 1.394 . S
C100 C106 1.465 . S
C101 C96 1.399 . S
C101 C100 1.394 . S
C101 C102 1.516 . S
C102 C101 1.516 . S
C102 C103 1.502 . S
C102 C104 1.561 . S
C102 C105 1.526 . S
C103 H87 0.959 . S
C103 H88 0.959 . S
C103 H89 0.961 . S
C103 C102 1.502 . S
C104 H90 0.960 . S
C104 H91 0.961 . S
C104 H92 0.959 . S
C104 C102 1.561 . S
C105 C102 1.526 . S
C105 C106 1.396 . S
C105 C110 1.390 . S
C106 C100 1.465 . S
C106 C105 1.396 . S
C106 C107 1.399 . S
C107 H93 0.929 . S
C107 C106 1.399 . S
C107 C108 1.385 . S
C108 H94 0.931 . S
C108 C107 1.385 . S
C108 C109 1.389 . S
C109 C108 1.389 . S
C109 C110 1.387 . S
C110 H95 0.930 . S
C110 C105 1.390 . S
C110 C109 1.387 . S
H111 C123 0.930 . S
H112 C125 0.930 . S
H113 C126 0.930 . S
H114 C130 0.959 . S
H115 C130 0.959 . S
H116 C130 0.961 . S
H117 C131 0.960 . S
H118 C131 0.961 . S
H119 C131 0.959 . S
H120 C134 0.929 . S
H121 C135 0.931 1_455 S
H122 C137 0.930 . S
C123 H111 0.930 . S
C123 C124 1.399 . S
C123 C128 1.399 . S
C124 C123 1.399 . S
C124 C125 1.376 . S
C125 H112 0.930 . S
C125 C124 1.376 . S
C125 C126 1.388 . S
C126 H113 0.930 . S
C126 C125 1.388 . S
C126 C127 1.390 . S
C127 C126 1.390 . S
C127 C128 1.394 . S
C127 C133 1.465 . S
C128 C123 1.399 . S
C128 C127 1.394 . S
C128 C129 1.516 . S
C129 C128 1.516 . S
C129 C130 1.502 . S
C129 C131 1.561 1_655 S
C129 C132 1.526 . S
C130 H114 0.959 . S
C130 H115 0.959 . S
C130 H116 0.961 . S
C130 C129 1.502 . S
C131 H117 0.960 . S
C131 H118 0.961 . S
C131 H119 0.959 . S
C131 C129 1.561 1_455 S
C132 C129 1.526 . S
C132 C133 1.396 . S
C132 C137 1.390 1_655 S
C133 C127 1.465 . S
C133 C132 1.396 . S
C133 C134 1.399 . S
C134 H120 0.929 . S
C134 C133 1.399 . S
C134 C135 1.385 . S
C135 H121 0.931 1_655 S
C135 C134 1.385 . S
C135 C136 1.389 1_655 S
C136 C135 1.389 1_455 S
C136 C137 1.387 . S
C137 H122 0.930 . S
C137 C132 1.390 1_455 S
C137 C136 1.387 . S
H138 C150 0.930 . S
H139 C152 0.930 . S
H140 C153 0.930 . S
H141 C157 0.959 . S
H142 C157 0.959 . S
H143 C157 0.961 . S
H144 C158 0.960 . S
H145 C158 0.961 . S
H146 C158 0.959 . S
H147 C161 0.929 1_545 S
H148 C162 0.931 . S
H149 C164 0.930 . S
C150 H138 0.930 . S
C150 C151 1.399 1_565 S
C150 C155 1.399 . S
C151 C150 1.399 1_545 S
C151 C152 1.376 . S
C152 H139 0.930 . S
C152 C151 1.376 . S
C152 C153 1.388 . S
C153 H140 0.930 . S
C153 C152 1.388 . S
C153 C154 1.390 1_545 S
C154 C153 1.390 1_565 S
C154 C155 1.394 . S
C154 C160 1.465 . S
C155 C150 1.399 . S
C155 C154 1.394 . S
C155 C156 1.516 . S
C156 C155 1.516 . S
C156 C157 1.502 . S
C156 C158 1.561 . S
C156 C159 1.526 . S
C157 H141 0.959 . S
C157 H142 0.959 . S
C157 H143 0.961 . S
C157 C156 1.502 . S
C158 H144 0.960 . S
C158 H145 0.961 . S
C158 H146 0.959 . S
C158 C156 1.561 . S
C159 C156 1.526 . S
C159 C160 1.396 . S
C159 C164 1.390 . S
C160 C154 1.465 . S
C160 C159 1.396 . S
C160 C161 1.399 . S
C161 H147 0.929 1_565 S
C161 C160 1.399 . S
C161 C162 1.385 . S
C162 H148 0.931 . S
C162 C161 1.385 . S
C162 C163 1.389 . S
C163 C162 1.389 . S
C163 C164 1.387 . S
C164 H149 0.930 . S
C164 C159 1.390 . S
C164 C163 1.387 . S
H165 C177 0.930 . S
H166 C179 0.930 . S
H167 C180 0.930 . S
H168 C184 0.959 . S
H169 C184 0.959 . S
H170 C184 0.961 . S
H171 C185 0.960 . S
H172 C185 0.961 . S
H173 C185 0.959 . S
H174 C188 0.929 . S
H175 C189 0.931 . S
H176 C191 0.930 . S
C177 H165 0.930 . S
C177 C178 1.399 . S
C177 C182 1.399 . S
C178 C177 1.399 . S
C178 C179 1.376 . S
C179 H166 0.930 . S
C179 C178 1.376 . S
C179 C180 1.388 . S
C180 H167 0.930 . S
C180 C179 1.388 . S
C180 C181 1.390 . S
C181 C180 1.390 . S
C181 C182 1.394 . S
C181 C187 1.465 . S
C182 C177 1.399 . S
C182 C181 1.394 . S
C182 C183 1.516 . S
C183 C182 1.516 . S
C183 C184 1.502 . S
C183 C185 1.561 . S
C183 C186 1.526 . S
C184 H168 0.959 . S
C184 H169 0.959 . S
C184 H170 0.961 . S
C184 C183 1.502 . S
C185 H171 0.960 . S
C185 H172 0.961 . S
C185 H173 0.959 . S
C185 C183 1.561 . S
C186 C183 1.526 . S
C186 C187 1.396 . S
C186 C191 1.390 . S
C187 C181 1.465 . S
C187 C186 1.396 . S
C187 C188 1.399 . S
C188 H174 0.929 . S
C188 C187 1.399 . S
C188 C189 1.385 . S
C189 H175 0.931 . S
C189 C188 1.385 . S
C189 C190 1.389 . S
C190 C189 1.389 . S
C190 C191 1.387 . S
C191 H176 0.930 . S
C191 C186 1.390 . S
C191 C190 1.387 . S
H192 C204 0.930 . S
H193 C206 0.930 . S
H194 C207 0.930 . S
H195 C211 0.959 1_655 S
H196 C211 0.959 . S
H197 C211 0.961 . S
H198 C212 0.960 . S
H199 C212 0.961 . S
H200 C212 0.959 . S
H201 C215 0.929 . S
H202 C216 0.931 . S
H203 C218 0.930 . S
C204 H192 0.930 . S
C204 C205 1.399 . S
C204 C209 1.399 . S
C205 C204 1.399 . S
C205 C206 1.376 . S
C206 H193 0.930 . S
C206 C205 1.376 . S
C206 C207 1.388 . S
C207 H194 0.930 . S
C207 C206 1.388 . S
C207 C208 1.390 . S
C208 C207 1.390 . S
C208 C209 1.394 . S
C208 C214 1.465 . S
C209 C204 1.399 . S
C209 C208 1.394 . S
C209 C210 1.516 . S
C210 C209 1.516 . S
C210 C211 1.502 . S
C210 C212 1.561 . S
C210 C213 1.526 . S
C211 H195 0.959 1_455 S
C211 H196 0.959 . S
C211 H197 0.961 . S
C211 C210 1.502 . S
C212 H198 0.960 . S
C212 H199 0.961 . S
C212 H200 0.959 . S
C212 C210 1.561 . S
C213 C210 1.526 . S
C213 C214 1.396 . S
C213 C218 1.390 . S
C214 C208 1.465 . S
C214 C213 1.396 . S
C214 C215 1.399 . S
C215 H201 0.929 . S
C215 C214 1.399 . S
C215 C216 1.385 1_455 S
C216 H202 0.931 . S
C216 C215 1.385 1_655 S
C216 C217 1.389 . S
C217 C216 1.389 . S
C217 C218 1.387 1_655 S
C218 H203 0.930 . S
C218 C213 1.390 . S
C218 C217 1.387 1_455 S
H219 C231 0.930 . S
H220 C233 0.930 . S
H221 C234 0.930 . S
H222 C238 0.959 . S
H223 C238 0.959 1_565 S
H224 C238 0.961 . S
H225 C239 0.960 . S
H226 C239 0.961 . S
H227 C239 0.959 . S
H228 C242 0.929 . S
H229 C243 0.931 . S
H230 C245 0.930 . S
C231 H219 0.930 . S
C231 C232 1.399 . S
C231 C236 1.399 . S
C232 C231 1.399 . S
C232 C233 1.376 . S
C233 H220 0.930 . S
C233 C232 1.376 . S
C233 C234 1.388 . S
C234 H221 0.930 . S
C234 C233 1.388 . S
C234 C235 1.390 . S
C235 C234 1.390 . S
C235 C236 1.394 . S
C235 C241 1.465 . S
C236 C231 1.399 . S
C236 C235 1.394 . S
C236 C237 1.516 . S
C237 C236 1.516 . S
C237 C238 1.502 . S
C237 C239 1.561 1_545 S
C237 C240 1.526 . S
C238 H222 0.959 . S
C238 H223 0.959 1_545 S
C238 H224 0.961 . S
C238 C237 1.502 . S
C239 H225 0.960 . S
C239 H226 0.961 . S
C239 H227 0.959 . S
C239 C237 1.561 1_565 S
C240 C237 1.526 . S
C240 C241 1.396 . S
C240 C245 1.390 1_545 S
C241 C235 1.465 . S
C241 C240 1.396 . S
C241 C242 1.399 . S
C242 H228 0.929 . S
C242 C241 1.399 . S
C242 C243 1.385 . S
C243 H229 0.931 . S
C243 C242 1.385 . S
C243 C244 1.389 1_545 S
C244 C243 1.389 1_565 S
C244 C245 1.387 . S
C245 H230 0.930 . S
C245 C240 1.390 1_565 S
C245 C244 1.387 . S
H246 C258 0.930 . S
H247 C260 0.930 . S
H248 C261 0.930 . S
H249 C265 0.959 . S
H250 C265 0.959 . S
H251 C265 0.961 . S
H252 C266 0.960 . S
H253 C266 0.961 . S
H254 C266 0.959 . S
H255 C269 0.929 . S
H256 C270 0.931 . S
H257 C272 0.930 . S
C258 H246 0.930 . S
C258 C259 1.399 1_556 S
C258 C263 1.399 . S
C259 C258 1.399 1_554 S
C259 C260 1.376 . S
C260 H247 0.930 . S
C260 C259 1.376 . S
C260 C261 1.388 . S
C261 H248 0.930 . S
C261 C260 1.388 . S
C261 C262 1.390 . S
C262 C261 1.390 . S
C262 C263 1.394 1_554 S
C262 C268 1.465 . S
C263 C258 1.399 . S
C263 C262 1.394 1_556 S
C263 C264 1.516 . S
C264 C263 1.516 . S
C264 C265 1.502 . S
C264 C266 1.561 . S
C264 C267 1.526 . S
C265 H249 0.959 . S
C265 H250 0.959 . S
C265 H251 0.961 . S
C265 C264 1.502 . S
C266 H252 0.960 . S
C266 H253 0.961 . S
C266 H254 0.959 . S
C266 C264 1.561 . S
C267 C264 1.526 . S
C267 C268 1.396 1_556 S
C267 C272 1.390 . S
C268 C262 1.465 . S
C268 C267 1.396 1_554 S
C268 C269 1.399 . S
C269 H255 0.929 . S
C269 C268 1.399 . S
C269 C270 1.385 . S
C270 H256 0.931 . S
C270 C269 1.385 . S
C270 C271 1.389 . S
C271 C270 1.389 . S
C271 C272 1.387 1_554 S
C272 H257 0.930 . S
C272 C267 1.390 . S
C272 C271 1.387 1_556 S
H273 C285 0.930 . S
H274 C287 0.930 . S
H275 C288 0.930 . S
H276 C292 0.959 . S
H277 C292 0.959 . S
H278 C292 0.961 . S
H279 C293 0.960 . S
H280 C293 0.961 . S
H281 C293 0.959 . S
H282 C296 0.929 . S
H283 C297 0.931 . S
H284 C299 0.930 . S
C285 H273 0.930 . S
C285 C286 1.399 . S
C285 C290 1.399 . S
C286 C285 1.399 . S
C286 C287 1.376 . S
C287 H274 0.930 . S
C287 C286 1.376 . S
C287 C288 1.388 . S
C288 H275 0.930 . S
C288 C287 1.388 . S
C288 C289 1.390 . S
C289 C288 1.390 . S
C289 C290 1.394 . S
C289 C295 1.465 1_655 S
C290 C285 1.399 . S
C290 C289 1.394 . S
C290 C291 1.516 . S
C291 C290 1.516 . S
C291 C292 1.502 1_655 S
C291 C293 1.561 . S
C291 C294 1.526 1_655 S
C292 H276 0.959 . S
C292 H277 0.959 . S
C292 H278 0.961 . S
C292 C291 1.502 1_455 S
C293 H279 0.960 . S
C293 H280 0.961 . S
C293 H281 0.959 . S
C293 C291 1.561 . S
C294 C291 1.526 1_455 S
C294 C295 1.396 . S
C294 C299 1.390 . S
C295 C289 1.465 1_455 S
C295 C294 1.396 . S
C295 C296 1.399 . S
C296 H282 0.929 . S
C296 C295 1.399 . S
C296 C297 1.385 . S
C297 H283 0.931 . S
C297 C296 1.385 . S
C297 C298 1.389 . S
C298 C297 1.389 . S
C298 C299 1.387 . S
C299 H284 0.930 . S
C299 C294 1.390 . S
C299 C298 1.387 . S
H300 C312 0.930 . S
H301 C314 0.930 . S
H302 C315 0.930 . S
H303 C319 0.959 . S
H304 C319 0.959 . S
H305 C319 0.961 . S
H306 C320 0.960 . S
H307 C320 0.961 . S
H308 C320 0.959 . S
H309 C323 0.929 . S
H310 C324 0.931 . S
H311 C326 0.930 . S
C312 H300 0.930 . S
C312 C313 1.399 . S
C312 C317 1.399 . S
C313 C312 1.399 . S
C313 C314 1.376 . S
C314 H301 0.930 . S
C314 C313 1.376 . S
C314 C315 1.388 . S
C315 H302 0.930 . S
C315 C314 1.388 . S
C315 C316 1.390 . S
C316 C315 1.390 . S
C316 C317 1.394 . S
C316 C322 1.465 1_545 S
C317 C312 1.399 . S
C317 C316 1.394 . S
C317 C318 1.516 . S
C318 C317 1.516 . S
C318 C319 1.502 1_545 S
C318 C320 1.561 . S
C318 C321 1.526 1_545 S
C319 H303 0.959 . S
C319 H304 0.959 . S
C319 H305 0.961 . S
C319 C318 1.502 1_565 S
C320 H306 0.960 . S
C320 H307 0.961 . S
C320 H308 0.959 . S
C320 C318 1.561 . S
C321 C318 1.526 1_565 S
C321 C322 1.396 . S
C321 C326 1.390 . S
C322 C316 1.465 1_565 S
C322 C321 1.396 . S
C322 C323 1.399 . S
C323 H309 0.929 . S
C323 C322 1.399 . S
C323 C324 1.385 . S
C324 H310 0.931 . S
C324 C323 1.385 . S
C324 C325 1.389 . S
C325 C324 1.389 . S
C325 C326 1.387 . S
C326 H311 0.930 . S
C326 C321 1.390 . S
C326 C325 1.387 . S
H327 C339 0.930 . S
H328 C341 0.930 . S
H329 C342 0.930 . S
H330 C346 0.959 . S
H331 C346 0.959 . S
H332 C346 0.961 . S
H333 C347 0.960 . S
H334 C347 0.961 . S
H335 C347 0.959 . S
H336 C350 0.929 . S
H337 C351 0.931 . S
H338 C353 0.930 . S
C339 H327 0.930 . S
C339 C340 1.399 . S
C339 C344 1.399 . S
C340 C339 1.399 . S
C340 C341 1.376 . S
C341 H328 0.930 . S
C341 C340 1.376 . S
C341 C342 1.388 . S
C342 H329 0.930 . S
C342 C341 1.388 . S
C342 C343 1.390 . S
C343 C342 1.390 . S
C343 C344 1.394 . S
C343 C349 1.465 . S
C344 C339 1.399 . S
C344 C343 1.394 . S
C344 C345 1.516 . S
C345 C344 1.516 . S
C345 C346 1.502 . S
C345 C347 1.561 . S
C345 C348 1.526 . S
C346 H330 0.959 . S
C346 H331 0.959 . S
C346 H332 0.961 . S
C346 C345 1.502 . S
C347 H333 0.960 . S
C347 H334 0.961 . S
C347 H335 0.959 . S
C347 C345 1.561 . S
C348 C345 1.526 . S
C348 C349 1.396 . S
C348 C353 1.390 . S
C349 C343 1.465 . S
C349 C348 1.396 . S
C349 C350 1.399 . S
C350 H336 0.929 . S
C350 C349 1.399 . S
C350 C351 1.385 . S
C351 H337 0.931 . S
C351 C350 1.385 . S
C351 C352 1.389 . S
C352 C351 1.389 . S
C352 C353 1.387 . S
C353 H338 0.930 . S
C353 C348 1.390 . S
C353 C352 1.387 . S
H354 C366 0.930 . S
H355 C368 0.930 . S
H356 C369 0.930 . S
H357 C373 0.959 . S
H358 C373 0.959 . S
H359 C373 0.961 . S
H360 C374 0.960 . S
H361 C374 0.961 . S
H362 C374 0.959 . S
H363 C377 0.929 . S
H364 C378 0.931 . S
H365 C380 0.930 . S
C366 H354 0.930 . S
C366 C367 1.399 1_554 S
C366 C371 1.399 . S
C367 C366 1.399 1_556 S
C367 C368 1.376 . S
C368 H355 0.930 . S
C368 C367 1.376 . S
C368 C369 1.388 . S
C369 H356 0.930 . S
C369 C368 1.388 . S
C369 C370 1.390 . S
C370 C369 1.390 . S
C370 C371 1.394 1_556 S
C370 C376 1.465 . S
C371 C366 1.399 . S
C371 C370 1.394 1_554 S
C371 C372 1.516 1_655 S
C372 C371 1.516 1_455 S
C372 C373 1.502 . S
C372 C374 1.561 1_455 S
C372 C375 1.526 . S
C373 H357 0.959 . S
C373 H358 0.959 . S
C373 H359 0.961 . S
C373 C372 1.502 . S
C374 H360 0.960 . S
C374 H361 0.961 . S
C374 H362 0.959 . S
C374 C372 1.561 1_655 S
C375 C372 1.526 . S
C375 C376 1.396 1_454 S
C375 C380 1.390 . S
C376 C370 1.465 . S
C376 C375 1.396 1_656 S
C376 C377 1.399 . S
C377 H363 0.929 . S
C377 C376 1.399 . S
C377 C378 1.385 1_655 S
C378 H364 0.931 . S
C378 C377 1.385 1_455 S
C378 C379 1.389 . S
C379 C378 1.389 . S
C379 C380 1.387 1_556 S
C380 H365 0.930 . S
C380 C375 1.390 . S
C380 C379 1.387 1_554 S
H381 C393 0.930 . S
H382 C395 0.930 . S
H383 C396 0.930 . S
H384 C400 0.959 . S
H385 C400 0.959 . S
H386 C400 0.961 . S
H387 C401 0.960 . S
H388 C401 0.961 . S
H389 C401 0.959 . S
H390 C404 0.929 . S
H391 C405 0.931 . S
H392 C407 0.930 . S
C393 H381 0.930 . S
C393 C394 1.399 . S
C393 C398 1.399 . S
C394 C393 1.399 . S
C394 C395 1.376 . S
C395 H382 0.930 . S
C395 C394 1.376 . S
C395 C396 1.388 1_545 S
C396 H383 0.930 . S
C396 C395 1.388 1_565 S
C396 C397 1.390 . S
C397 C396 1.390 . S
C397 C398 1.394 1_565 S
C397 C403 1.465 . S
C398 C393 1.399 . S
C398 C397 1.394 1_545 S
C398 C399 1.516 . S
C399 C398 1.516 . S
C399 C400 1.502 . S
C399 C401 1.561 1_545 S
C399 C402 1.526 1_545 S
C400 H384 0.959 . S
C400 H385 0.959 . S
C400 H386 0.961 . S
C400 C399 1.502 . S
C401 H387 0.960 . S
C401 H388 0.961 . S
C401 H389 0.959 . S
C401 C399 1.561 1_565 S
C402 C399 1.526 1_565 S
C402 C403 1.396 . S
C402 C407 1.390 . S
C403 C397 1.465 . S
C403 C402 1.396 . S
C403 C404 1.399 . S
C404 H390 0.929 . S
C404 C403 1.399 . S
C404 C405 1.385 . S
C405 H391 0.931 . S
C405 C404 1.385 . S
C405 C406 1.389 . S
C406 C405 1.389 . S
C406 C407 1.387 . S
C407 H392 0.930 . S
C407 C402 1.390 . S
C407 C406 1.387 . S
C97 C76 1.338 . S
C109 C8 1.345 . S
C124 C22 1.342 . S
C136 C7 1.344 . S
C151 C21 1.362 . S
C163 C37 1.317 . S
C178 C50 1.347 . S
C190 C34 1.335 . S
C205 C64 1.255 . S
C217 C49 1.349 . S
C232 C79 1.347 . S
C244 C63 1.336 . S
C259 C6 1.307 . S
C271 C48 1.365 . S
C286 C20 1.321 . S
C298 C62 1.355 . S
C313 C77 1.321 . S
C325 C35 1.356 . S
C340 C78 1.504 . S
C352 C36 1.493 . S
C367 C51 1.533 . S
C379 C9 1.543 . S
C394 C23 1.504 . S
C406 C65 1.493 . S
