# Generated by pormake.
# Topology ukm, (4)-cn, num edge types: 1
# Building blocks:
#     Node 0, Type 0, BuildingBlock: GALJAG_clean_sbu_0, # of connection points: 4
#     Node 1, Type 0, BuildingBlock: GALJAG_clean_sbu_0, # of connection points: 4
#     Node 2, Type 0, BuildingBlock: GALJAG_clean_sbu_0, # of connection points: 4
#     Node 3, Type 0, BuildingBlock: GALJAG_clean_sbu_0, # of connection points: 4
#     Node 4, Type 0, BuildingBlock: GALJAG_clean_sbu_0, # of connection points: 4
#     Node 5, Type 0, BuildingBlock: GALJAG_clean_sbu_0, # of connection points: 4
#     Node 6, Type 0, BuildingBlock: GALJAG_clean_sbu_0, # of connection points: 4
#     Node 7, Type 0, BuildingBlock: GALJAG_clean_sbu_0, # of connection points: 4
#     Node 8, Type 0, BuildingBlock: GALJAG_clean_sbu_0, # of connection points: 4
#     Node 9, Type 0, BuildingBlock: GALJAG_clean_sbu_0, # of connection points: 4
#     Node 10, Type 0, BuildingBlock: GALJAG_clean_sbu_0, # of connection points: 4
#     Node 11, Type 0, BuildingBlock: GALJAG_clean_sbu_0, # of connection points: 4
#     Node 12, Type 0, BuildingBlock: GALJAG_clean_sbu_0, # of connection points: 4
#     Node 13, Type 0, BuildingBlock: GALJAG_clean_sbu_0, # of connection points: 4
#     Node 14, Type 0, BuildingBlock: GALJAG_clean_sbu_0, # of connection points: 4
#     Node 15, Type 0, BuildingBlock: GALJAG_clean_sbu_0, # of connection points: 4
#     Node 16, Type 0, BuildingBlock: GALJAG_clean_sbu_0, # of connection points: 4
#     Node 17, Type 0, BuildingBlock: GALJAG_clean_sbu_0, # of connection points: 4
#     Node 18, Type 0, BuildingBlock: GALJAG_clean_sbu_0, # of connection points: 4
#     Node 19, Type 0, BuildingBlock: GALJAG_clean_sbu_0, # of connection points: 4
#     Node 20, Type 0, BuildingBlock: GALJAG_clean_sbu_0, # of connection points: 4
#     Node 21, Type 0, BuildingBlock: GALJAG_clean_sbu_0, # of connection points: 4
#     Node 22, Type 0, BuildingBlock: GALJAG_clean_sbu_0, # of connection points: 4
#     Node 23, Type 0, BuildingBlock: GALJAG_clean_sbu_0, # of connection points: 4
#     Node 24, Type 0, BuildingBlock: GALJAG_clean_sbu_0, # of connection points: 4
#     Node 25, Type 0, BuildingBlock: GALJAG_clean_sbu_0, # of connection points: 4
#     Node 26, Type 0, BuildingBlock: GALJAG_clean_sbu_0, # of connection points: 4
#     Node 27, Type 0, BuildingBlock: GALJAG_clean_sbu_0, # of connection points: 4
#     Node 28, Type 0, BuildingBlock: GALJAG_clean_sbu_0, # of connection points: 4
#     Node 29, Type 0, BuildingBlock: GALJAG_clean_sbu_0, # of connection points: 4
#     Node 30, Type 0, BuildingBlock: GALJAG_clean_sbu_0, # of connection points: 4
#     Node 31, Type 0, BuildingBlock: GALJAG_clean_sbu_0, # of connection points: 4
#     Edge 32, Type (0, 0), BuildingBlock: EZIPEK_clean_linker_0, # of connection points: 2
#     Edge 33, Type (0, 0), BuildingBlock: EZIPEK_clean_linker_0, # of connection points: 2
#     Edge 34, Type (0, 0), BuildingBlock: EZIPEK_clean_linker_0, # of connection points: 2
#     Edge 35, Type (0, 0), BuildingBlock: EZIPEK_clean_linker_0, # of connection points: 2
#     Edge 36, Type (0, 0), BuildingBlock: EZIPEK_clean_linker_0, # of connection points: 2
#     Edge 37, Type (0, 0), BuildingBlock: EZIPEK_clean_linker_0, # of connection points: 2
#     Edge 38, Type (0, 0), BuildingBlock: EZIPEK_clean_linker_0, # of connection points: 2
#     Edge 39, Type (0, 0), BuildingBlock: EZIPEK_clean_linker_0, # of connection points: 2
#     Edge 40, Type (0, 0), BuildingBlock: EZIPEK_clean_linker_0, # of connection points: 2
#     Edge 41, Type (0, 0), BuildingBlock: EZIPEK_clean_linker_0, # of connection points: 2
#     Edge 42, Type (0, 0), BuildingBlock: EZIPEK_clean_linker_0, # of connection points: 2
#     Edge 43, Type (0, 0), BuildingBlock: EZIPEK_clean_linker_0, # of connection points: 2
#     Edge 44, Type (0, 0), BuildingBlock: EZIPEK_clean_linker_0, # of connection points: 2
#     Edge 45, Type (0, 0), BuildingBlock: EZIPEK_clean_linker_0, # of connection points: 2
#     Edge 46, Type (0, 0), BuildingBlock: EZIPEK_clean_linker_0, # of connection points: 2
#     Edge 47, Type (0, 0), BuildingBlock: EZIPEK_clean_linker_0, # of connection points: 2
#     Edge 48, Type (0, 0), BuildingBlock: EZIPEK_clean_linker_0, # of connection points: 2
#     Edge 49, Type (0, 0), BuildingBlock: EZIPEK_clean_linker_0, # of connection points: 2
#     Edge 50, Type (0, 0), BuildingBlock: EZIPEK_clean_linker_0, # of connection points: 2
#     Edge 51, Type (0, 0), BuildingBlock: EZIPEK_clean_linker_0, # of connection points: 2
#     Edge 52, Type (0, 0), BuildingBlock: EZIPEK_clean_linker_0, # of connection points: 2
#     Edge 53, Type (0, 0), BuildingBlock: EZIPEK_clean_linker_0, # of connection points: 2
#     Edge 54, Type (0, 0), BuildingBlock: EZIPEK_clean_linker_0, # of connection points: 2
#     Edge 55, Type (0, 0), BuildingBlock: EZIPEK_clean_linker_0, # of connection points: 2
#     Edge 56, Type (0, 0), BuildingBlock: EZIPEK_clean_linker_0, # of connection points: 2
#     Edge 57, Type (0, 0), BuildingBlock: EZIPEK_clean_linker_0, # of connection points: 2
#     Edge 58, Type (0, 0), BuildingBlock: EZIPEK_clean_linker_0, # of connection points: 2
#     Edge 59, Type (0, 0), BuildingBlock: EZIPEK_clean_linker_0, # of connection points: 2
#     Edge 60, Type (0, 0), BuildingBlock: EZIPEK_clean_linker_0, # of connection points: 2
#     Edge 61, Type (0, 0), BuildingBlock: EZIPEK_clean_linker_0, # of connection points: 2
#     Edge 62, Type (0, 0), BuildingBlock: EZIPEK_clean_linker_0, # of connection points: 2
#     Edge 63, Type (0, 0), BuildingBlock: EZIPEK_clean_linker_0, # of connection points: 2
#     Edge 64, Type (0, 0), BuildingBlock: EZIPEK_clean_linker_0, # of connection points: 2
#     Edge 65, Type (0, 0), BuildingBlock: EZIPEK_clean_linker_0, # of connection points: 2
#     Edge 66, Type (0, 0), BuildingBlock: EZIPEK_clean_linker_0, # of connection points: 2
#     Edge 67, Type (0, 0), BuildingBlock: EZIPEK_clean_linker_0, # of connection points: 2
#     Edge 68, Type (0, 0), BuildingBlock: EZIPEK_clean_linker_0, # of connection points: 2
#     Edge 69, Type (0, 0), BuildingBlock: EZIPEK_clean_linker_0, # of connection points: 2
#     Edge 70, Type (0, 0), BuildingBlock: EZIPEK_clean_linker_0, # of connection points: 2
#     Edge 71, Type (0, 0), BuildingBlock: EZIPEK_clean_linker_0, # of connection points: 2
#     Edge 72, Type (0, 0), BuildingBlock: EZIPEK_clean_linker_0, # of connection points: 2
#     Edge 73, Type (0, 0), BuildingBlock: EZIPEK_clean_linker_0, # of connection points: 2
#     Edge 74, Type (0, 0), BuildingBlock: EZIPEK_clean_linker_0, # of connection points: 2
#     Edge 75, Type (0, 0), BuildingBlock: EZIPEK_clean_linker_0, # of connection points: 2
#     Edge 76, Type (0, 0), BuildingBlock: EZIPEK_clean_linker_0, # of connection points: 2
#     Edge 77, Type (0, 0), BuildingBlock: EZIPEK_clean_linker_0, # of connection points: 2
#     Edge 78, Type (0, 0), BuildingBlock: EZIPEK_clean_linker_0, # of connection points: 2
#     Edge 79, Type (0, 0), BuildingBlock: EZIPEK_clean_linker_0, # of connection points: 2
#     Edge 80, Type (0, 0), BuildingBlock: EZIPEK_clean_linker_0, # of connection points: 2
#     Edge 81, Type (0, 0), BuildingBlock: EZIPEK_clean_linker_0, # of connection points: 2
#     Edge 82, Type (0, 0), BuildingBlock: EZIPEK_clean_linker_0, # of connection points: 2
#     Edge 83, Type (0, 0), BuildingBlock: EZIPEK_clean_linker_0, # of connection points: 2
#     Edge 84, Type (0, 0), BuildingBlock: EZIPEK_clean_linker_0, # of connection points: 2
#     Edge 85, Type (0, 0), BuildingBlock: EZIPEK_clean_linker_0, # of connection points: 2
#     Edge 86, Type (0, 0), BuildingBlock: EZIPEK_clean_linker_0, # of connection points: 2
#     Edge 87, Type (0, 0), BuildingBlock: EZIPEK_clean_linker_0, # of connection points: 2
#     Edge 88, Type (0, 0), BuildingBlock: EZIPEK_clean_linker_0, # of connection points: 2
#     Edge 89, Type (0, 0), BuildingBlock: EZIPEK_clean_linker_0, # of connection points: 2
#     Edge 90, Type (0, 0), BuildingBlock: EZIPEK_clean_linker_0, # of connection points: 2
#     Edge 91, Type (0, 0), BuildingBlock: EZIPEK_clean_linker_0, # of connection points: 2
#     Edge 92, Type (0, 0), BuildingBlock: EZIPEK_clean_linker_0, # of connection points: 2
#     Edge 93, Type (0, 0), BuildingBlock: EZIPEK_clean_linker_0, # of connection points: 2
#     Edge 94, Type (0, 0), BuildingBlock: EZIPEK_clean_linker_0, # of connection points: 2
#     Edge 95, Type (0, 0), BuildingBlock: EZIPEK_clean_linker_0, # of connection points: 2
# Relax obj value: 0.098
# Max RMSD: 0.122
# Mean RMSD: 0.122
data_MOF--net-ukm--node1-GALJAG_clean_sbu_0--edge1-EZIPEK_clean_linker_0
_symmetry_space_group_name_H-M    P1
_symmetry_Int_Tables_number       1
_symmetry_cell_setting            triclinic
loop_
_symmetry_equiv_pos_as_xyz
'x, y, z'
_cell_length_a     18.345052
_cell_length_b     74.851771
_cell_length_c     32.98863
_cell_angle_alpha  89.997194
_cell_angle_beta   89.940914
_cell_angle_gamma 89.997001
loop_
_atom_site_label
_atom_site_type_symbol
_atom_site_fract_x
_atom_site_fract_y
_atom_site_fract_z
_atom_type_partial_charge
In0 In 0.13817 0.31564 0.28091 0.0
O1 O 0.07237 0.32801 0.33309 0.0
O2 O 0.11234 0.34524 0.28712 0.0
C3 C 0.07677 0.28384 0.26542 0.0
C4 C 0.25688 0.30998 0.32689 0.0
C5 C 0.15329 0.32398 0.20288 0.0
O6 O 0.04017 0.29675 0.2795 0.0
O7 O 0.1438 0.2868 0.26064 0.0
O8 O 0.20746 0.32239 0.22623 0.0
O9 O 0.09151 0.32218 0.21931 0.0
C10 C 0.07846 0.3438 0.32011 0.0
O11 O 0.25781 0.31985 0.29592 0.0
O12 O 0.19651 0.30264 0.33442 0.0
In13 In 0.1452 0.92925 0.27855 0.0
O14 O 0.02237 0.92703 0.285 0.0
O15 O 0.08098 0.9386 0.33418 0.0
C16 C 0.15431 0.92146 0.19931 0.0
C17 C 0.19839 0.90012 0.31663 0.0
C18 C 0.2016 0.96232 0.27267 0.0
O19 O 0.09426 0.92389 0.21701 0.0
O20 O 0.20987 0.92232 0.22168 0.0
O21 O 0.23358 0.95004 0.29203 0.0
O22 O 0.14033 0.95817 0.25827 0.0
C23 C 0.02012 0.93385 0.31991 0.0
O24 O 0.231 0.91496 0.31764 0.0
O25 O 0.14112 0.89999 0.29561 0.0
In26 In 0.12248 0.93288 0.94826 0.0
O27 O 0.03195 0.9198 0.91039 0.0
O28 O 0.11672 0.9034 0.93359 0.0
C29 C 0.06601 0.96533 0.96394 0.0
C30 C 0.23312 0.93916 0.89687 0.0
C31 C 0.14189 0.92323 0.02567 0.0
O32 O 0.02729 0.95252 0.9514 0.0
O33 O 0.13313 0.96201 0.96695 0.0
O34 O 0.19348 0.92342 0.00041 0.0
O35 O 0.07995 0.927 0.01154 0.0
C36 C 0.05983 0.90441 0.9124 0.0
O37 O 0.24266 0.93412 0.93289 0.0
O38 O 0.16758 0.94142 0.88646 0.0
In39 In 0.14473 0.3157 0.9512 0.0
O40 O 0.02411 0.32211 0.94653 0.0
O41 O 0.07181 0.30665 0.899 0.0
C42 C 0.15246 0.325 0.02937 0.0
C43 C 0.20591 0.34166 0.90611 0.0
C44 C 0.19915 0.2828 0.96539 0.0
O45 O 0.09596 0.31816 0.01418 0.0
O46 O 0.20351 0.32809 0.00481 0.0
O47 O 0.23966 0.29607 0.95835 0.0
O48 O 0.1319 0.28579 0.96196 0.0
C49 C 0.0153 0.31397 0.91337 0.0
O50 O 0.22295 0.32541 0.90128 0.0
O51 O 0.15974 0.34456 0.93364 0.0
In52 In 0.89969 0.67955 0.69882 0.0
O53 O 0.78332 0.66921 0.69213 0.0
O54 O 0.82269 0.68749 0.64766 0.0
C55 C 0.90002 0.67207 0.77809 0.0
C56 C 0.97611 0.65483 0.65676 0.0
C57 C 0.9498 0.71299 0.71102 0.0
O58 O 0.84439 0.67808 0.76027 0.0
O59 O 0.95415 0.66894 0.75567 0.0
O60 O 0.992 0.69996 0.70496 0.0
O61 O 0.88301 0.70944 0.70796 0.0
C62 C 0.77022 0.67814 0.6605 0.0
O63 O 0.97112 0.67087 0.64511 0.0
O64 O 0.94129 0.6515 0.68886 0.0
In65 In 0.85918 0.0716 0.70037 0.0
O66 O 0.77364 0.07942 0.65301 0.0
O67 O 0.83686 0.09996 0.68059 0.0
C68 C 0.81087 0.03818 0.71504 0.0
C69 C 0.98583 0.0709 0.65916 0.0
C70 C 0.85292 0.08104 0.77859 0.0
O71 O 0.7683 0.05089 0.70662 0.0
O72 O 0.87764 0.04203 0.71355 0.0
O73 O 0.90949 0.07444 0.7629 0.0
O74 O 0.80137 0.08403 0.75437 0.0
C75 C 0.78787 0.09591 0.65543 0.0
O76 O 0.9779 0.07957 0.69169 0.0
O77 O 0.92979 0.06265 0.64709 0.0
In78 In 0.87052 0.06378 0.02691 0.0
O79 O 0.74718 0.06021 0.02458 0.0
O80 O 0.79911 0.0581 0.08203 0.0
C81 C 0.85654 0.07556 0.95088 0.0
C82 C 0.92694 0.09095 0.07086 0.0
C83 C 0.93784 0.03219 0.01517 0.0
O84 O 0.81039 0.07922 0.97803 0.0
O85 O 0.91102 0.06664 0.96246 0.0
O86 O 0.973 0.04643 0.02137 0.0
O87 O 0.86955 0.03373 0.01696 0.0
C88 C 0.74023 0.05811 0.0623 0.0
O89 O 0.92233 0.07526 0.08458 0.0
O90 O 0.90698 0.09264 0.03462 0.0
In91 In 0.86639 0.68239 0.02996 0.0
O92 O 0.9788 0.67206 0.04712 0.0
O93 O 0.93266 0.69248 0.08405 0.0
C94 C 0.88465 0.67468 0.95161 0.0
C95 C 0.78278 0.65623 0.06336 0.0
C96 C 0.82032 0.71603 0.01594 0.0
O97 O 0.93777 0.67602 0.97573 0.0
O98 O 0.82238 0.67665 0.96723 0.0
O99 O 0.77773 0.70398 0.02853 0.0
O100 O 0.88582 0.71136 0.01195 0.0
C101 C 0.98612 0.6823 0.07716 0.0
O102 O 0.78927 0.67149 0.07929 0.0
O103 O 0.81926 0.65444 0.03129 0.0
In104 In 0.11881 0.81296 0.78471 0.0
O105 O 0.03377 0.82463 0.8286 0.0
O106 O 0.10681 0.84236 0.79901 0.0
C107 C 0.06299 0.7806 0.76751 0.0
C108 C 0.23501 0.80763 0.83261 0.0
C109 C 0.13437 0.82293 0.7073 0.0
O110 O 0.02379 0.79331 0.78013 0.0
O111 O 0.13022 0.78393 0.76536 0.0
O112 O 0.18738 0.82214 0.73151 0.0
O113 O 0.07273 0.81971 0.72265 0.0
C114 C 0.05613 0.84047 0.82439 0.0
O115 O 0.23992 0.81414 0.79753 0.0
O116 O 0.1715 0.80329 0.84363 0.0
In117 In 0.14084 0.43407 0.78538 0.0
O118 O 0.23141 0.42152 0.82473 0.0
O119 O 0.14969 0.40471 0.80017 0.0
C120 C 0.20207 0.46687 0.78087 0.0
C121 C 0.01324 0.43495 0.82537 0.0
C122 C 0.12583 0.42941 0.70523 0.0
O123 O 0.23118 0.45323 0.76548 0.0
O124 O 0.14518 0.46385 0.80115 0.0
O125 O 0.08013 0.43798 0.72619 0.0
O126 O 0.17818 0.42274 0.72476 0.0
C127 C 0.20607 0.40589 0.82167 0.0
O128 O 0.01906 0.42881 0.78987 0.0
O129 O 0.07168 0.44068 0.84092 0.0
In130 In 0.10696 0.43806 0.45191 0.0
O131 O 0.22712 0.43097 0.44604 0.0
O132 O 0.18212 0.44903 0.40271 0.0
C133 C 0.11451 0.43097 0.53107 0.0
C134 C 0.0581 0.40879 0.4127 0.0
C135 C 0.03829 0.46973 0.45917 0.0
O136 O 0.16974 0.43561 0.51075 0.0
O137 O 0.05582 0.42954 0.51144 0.0
O138 O 0.00713 0.45638 0.44334 0.0
O139 O 0.10409 0.46733 0.46821 0.0
C140 C 0.23732 0.44049 0.41491 0.0
O141 O 0.07723 0.42276 0.3942 0.0
O142 O 0.05717 0.41017 0.4507 0.0
In143 In 0.13049 0.81195 0.45695 0.0
O144 O 0.20775 0.82097 0.40603 0.0
O145 O 0.14474 0.84056 0.43723 0.0
C146 C 0.18483 0.77911 0.47211 0.0
C147 C 1.0012 0.81016 0.41887 0.0
C148 C 0.14133 0.82273 0.53417 0.0
O149 O 0.22418 0.79165 0.45876 0.0
O150 O 0.11809 0.7828 0.4753 0.0
O151 O 0.08483 0.81534 0.52035 0.0
O152 O 0.19108 0.82556 0.50861 0.0
C153 C 0.1901 0.83725 0.4095 0.0
O154 O 0.01043 0.81884 0.45123 0.0
O155 O 0.05696 0.80212 0.40569 0.0
In156 In 0.88988 0.18367 0.21212 0.0
O157 O 0.93838 0.16963 0.1564 0.0
O158 O 0.90603 0.15384 0.20698 0.0
C159 C 0.95265 0.21596 0.21878 0.0
C160 C 0.75954 0.18701 0.17644 0.0
C161 C 0.9022 0.17664 0.29087 0.0
O162 O 0.98954 0.20217 0.21031 0.0
O163 O 0.88489 0.21357 0.22083 0.0
O164 O 0.84305 0.18198 0.27538 0.0
O165 O 0.95404 0.1741 0.26636 0.0
C166 C 0.92946 0.15418 0.17112 0.0
O167 O 0.76672 0.17999 0.21105 0.0
O168 O 0.81759 0.19258 0.16021 0.0
In169 In 0.86914 0.57015 0.19778 0.0
O170 O 0.98773 0.57697 0.18658 0.0
O171 O 0.93574 0.55988 0.14373 0.0
C172 C 0.87696 0.58031 0.27547 0.0
C173 C 0.79722 0.59476 0.1534 0.0
C174 C 0.82013 0.53721 0.21736 0.0
O175 O 0.93279 0.57672 0.25472 0.0
O176 O 0.81747 0.57986 0.25645 0.0
O177 O 0.77759 0.54997 0.20929 0.0
O178 O 0.88684 0.54069 0.2129 0.0
C179 C 0.99326 0.56788 0.15454 0.0
O180 O 0.785 0.57823 0.14969 0.0
O181 O 0.84363 0.59872 0.18003 0.0
In182 In 0.86466 0.56977 0.52759 0.0
O183 O 0.96521 0.57881 0.56338 0.0
O184 O 0.88268 0.59794 0.55045 0.0
C185 C 0.91305 0.53637 0.51366 0.0
C186 C 0.74112 0.56802 0.57195 0.0
C187 C 0.86914 0.57997 0.44965 0.0
O188 O 0.94184 0.54636 0.54004 0.0
O189 O 0.8581 0.54283 0.49609 0.0
O190 O 0.8119 0.57404 0.466 0.0
O191 O 0.9233 0.58142 0.47287 0.0
C192 C 0.94334 0.59473 0.56682 0.0
O193 O 0.74895 0.57868 0.54275 0.0
O194 O 0.79532 0.55816 0.57912 0.0
In195 In 0.86679 0.18424 0.54172 0.0
O196 O 0.78667 0.17248 0.58865 0.0
O197 O 0.81679 0.15666 0.53851 0.0
C198 C 0.81967 0.21775 0.52722 0.0
C199 C 0.98474 0.18419 0.59047 0.0
C200 C 0.89166 0.17714 0.46371 0.0
O201 O 0.77808 0.2058 0.54126 0.0
O202 O 0.88511 0.21309 0.52264 0.0
O203 O 0.9424 0.17732 0.48954 0.0
O204 O 0.82851 0.17998 0.47743 0.0
C205 C 0.77888 0.15782 0.57018 0.0
O206 O 0.97777 0.17371 0.56085 0.0
O207 O 0.93129 0.19447 0.59654 0.0
In208 In 0.61029 0.31622 0.79023 0.0
O209 O 0.73111 0.32171 0.79805 0.0
O210 O 0.67921 0.30621 0.84377 0.0
C211 C 0.60446 0.32568 0.71197 0.0
C212 C 0.54859 0.34344 0.83142 0.0
C213 C 0.55485 0.28328 0.77829 0.0
O214 O 0.66358 0.32219 0.72968 0.0
O215 O 0.54811 0.32487 0.73383 0.0
O216 O 0.52088 0.29513 0.79796 0.0
O217 O 0.61792 0.2877 0.76688 0.0
C218 C 0.73711 0.31343 0.83108 0.0
O219 O 0.52711 0.32753 0.83567 0.0
O220 O 0.59883 0.34549 0.8058 0.0
In221 In 0.63851 0.93754 0.78001 0.0
O222 O 0.51551 0.93601 0.77297 0.0
O223 O 0.55836 0.94508 0.82957 0.0
C224 C 0.66504 0.92756 0.70374 0.0
C225 C 0.67446 0.90971 0.8276 0.0
C226 C 0.69619 0.97047 0.77141 0.0
O227 O 0.60267 0.93242 0.71554 0.0
O228 O 0.71342 0.92684 0.73081 0.0
O229 O 0.73499 0.95706 0.78008 0.0
O230 O 0.62873 0.96749 0.77035 0.0
C231 C 0.50272 0.94113 0.8088 0.0
O232 O 0.69531 0.92541 0.83596 0.0
O233 O 0.63803 0.90825 0.79544 0.0
In234 In 0.62981 0.93633 0.45587 0.0
O235 O 0.74658 0.92859 0.44277 0.0
O236 O 0.69617 0.94706 0.40226 0.0
C237 C 0.66071 0.92778 0.5326 0.0
C238 C 0.55938 0.90826 0.4222 0.0
C239 C 0.57195 0.96898 0.46905 0.0
O240 O 0.70721 0.92631 0.50461 0.0
O241 O 0.59825 0.93287 0.52161 0.0
O242 O 0.53434 0.95617 0.45551 0.0
O243 O 0.63877 0.96564 0.47337 0.0
C244 C 0.75223 0.93809 0.41138 0.0
O245 O 0.58236 0.92118 0.40134 0.0
O246 O 0.56622 0.91026 0.45983 0.0
In247 In 0.64491 0.31796 0.46197 0.0
O248 O 0.52563 0.31017 0.45793 0.0
O249 O 0.58175 0.31537 0.40267 0.0
C250 C 0.62464 0.32812 0.53901 0.0
C251 C 0.70318 0.34543 0.42041 0.0
C252 C 0.70983 0.28604 0.47315 0.0
O253 O 0.57569 0.32982 0.51253 0.0
O254 O 0.68491 0.32236 0.52622 0.0
O255 O 0.74557 0.30044 0.47262 0.0
O256 O 0.64279 0.28763 0.46592 0.0
C257 C 0.52232 0.31147 0.41987 0.0
O258 O 0.72362 0.32951 0.41474 0.0
O259 O 0.65698 0.34747 0.44831 0.0
In260 In 0.37357 0.68005 0.21741 0.0
O261 O 0.25328 0.6747 0.20625 0.0
O262 O 0.31244 0.68744 0.15903 0.0
C263 C 0.36272 0.67065 0.2952 0.0
C264 C 0.45629 0.65372 0.18384 0.0
C265 C 0.41758 0.71379 0.23332 0.0
O266 O 0.30909 0.66999 0.2713 0.0
O267 O 0.42258 0.67531 0.27951 0.0
O268 O 0.45869 0.7025 0.21637 0.0
O269 O 0.35388 0.70836 0.24033 0.0
C270 C 0.25209 0.68137 0.17124 0.0
O271 O 0.45707 0.66959 0.17101 0.0
O272 O 0.41219 0.6513 0.2126 0.0
In273 In 0.36551 0.06401 0.20791 0.0
O274 O 0.48536 0.06482 0.19152 0.0
O275 O 0.41182 0.05459 0.14716 0.0
C276 C 0.38186 0.07396 0.28528 0.0
C277 C 0.30273 0.09207 0.17065 0.0
C278 C 0.31323 0.03125 0.22469 0.0
O279 O 0.43526 0.07203 0.26156 0.0
O280 O 0.31991 0.07165 0.26958 0.0
O281 O 0.27242 0.04375 0.21252 0.0
O282 O 0.37997 0.03508 0.22681 0.0
C283 C 0.47664 0.0585 0.15647 0.0
O284 O 0.27613 0.07655 0.16824 0.0
O285 O 0.35828 0.09339 0.19283 0.0
In286 In 0.39306 0.06883 0.5372 0.0
O287 O 0.27415 0.07707 0.54297 0.0
O288 O 0.31793 0.06016 0.58888 0.0
C289 C 0.39374 0.07776 0.45855 0.0
C290 C 0.45921 0.09311 0.58481 0.0
C291 C 0.44961 0.03608 0.52402 0.0
O292 O 0.34118 0.06968 0.47494 0.0
O293 O 0.44473 0.08216 0.4821 0.0
O294 O 0.489 0.04977 0.52795 0.0
O295 O 0.38239 0.03864 0.52933 0.0
C296 C 0.26348 0.06867 0.57561 0.0
O297 O 0.47205 0.07659 0.58813 0.0
O298 O 0.41581 0.09722 0.55672 0.0
In299 In 0.35595 0.67928 0.54626 0.0
O300 O 0.47467 0.67085 0.55133 0.0
O301 O 0.43181 0.68752 0.59797 0.0
C302 C 0.35554 0.66913 0.46848 0.0
C303 C 0.28436 0.65635 0.59491 0.0
C304 C 0.30158 0.71208 0.53071 0.0
O305 O 0.40639 0.67821 0.48369 0.0
O306 O 0.30634 0.66434 0.49284 0.0
O307 O 0.26141 0.69855 0.53488 0.0
O308 O 0.36845 0.70939 0.53682 0.0
C309 C 0.48608 0.6791 0.58406 0.0
O310 O 0.27318 0.67299 0.59636 0.0
O311 O 0.3298 0.65141 0.56848 0.0
In312 In 0.59687 0.81383 0.29534 0.0
O313 O 0.5294 0.82593 0.34702 0.0
O314 O 0.58252 0.84352 0.30579 0.0
C315 C 0.5287 0.78217 0.28632 0.0
C316 C 0.72446 0.81117 0.33517 0.0
C317 C 0.60315 0.82075 0.21594 0.0
O318 O 0.49458 0.79616 0.2963 0.0
O319 O 0.59679 0.78398 0.28359 0.0
O320 O 0.65598 0.8142 0.23523 0.0
O321 O 0.54695 0.82415 0.23664 0.0
C322 C 0.54443 0.84184 0.33733 0.0
O323 O 0.71758 0.81964 0.3024 0.0
O324 O 0.66709 0.80371 0.34793 0.0
In325 In 0.64202 0.43902 0.29101 0.0
O326 O 0.52266 0.43164 0.29811 0.0
O327 O 0.56879 0.44945 0.34164 0.0
C328 C 0.62867 0.431 0.21231 0.0
C329 C 0.69823 0.41034 0.32987 0.0
C330 C 0.70847 0.47096 0.28202 0.0
O331 O 0.57442 0.4352 0.23386 0.0
O332 O 0.68905 0.43048 0.2305 0.0
O333 O 0.74096 0.45777 0.29758 0.0
O334 O 0.64237 0.46838 0.27405 0.0
C335 C 0.51337 0.4409 0.32972 0.0
O336 O 0.67205 0.42353 0.34861 0.0
O337 O 0.70146 0.41226 0.29203 0.0
In338 In 0.61781 0.43429 0.95795 0.0
O339 O 0.53195 0.42307 0.91435 0.0
O340 O 0.60263 0.40494 0.9445 0.0
C341 C 0.56223 0.4673 0.96742 0.0
C342 C 0.74056 0.43541 0.9133 0.0
C343 C 0.62258 0.42811 0.03807 0.0
O344 O 0.52283 0.45409 0.95808 0.0
O345 O 0.62959 0.4641 0.96905 0.0
O346 O 0.67736 0.43321 0.01813 0.0
O347 O 0.56593 0.42531 0.01746 0.0
C348 C 0.55187 0.40707 0.91921 0.0
O349 O 0.73589 0.42686 0.94612 0.0
O350 O 0.68326 0.44352 0.90266 0.0
In351 In 0.6291 0.81537 0.96269 0.0
O352 O 0.5062 0.8122 0.96217 0.0
O353 O 0.56197 0.81004 0.90567 0.0
C354 C 0.61567 0.82161 0.04203 0.0
C355 C 0.66919 0.84586 0.92509 0.0
C356 C 0.70595 0.78467 0.96865 0.0
O357 O 0.5628 0.81675 0.02031 0.0
O358 O 0.67524 0.82395 0.02362 0.0
O359 O 0.73632 0.79977 0.96955 0.0
O360 O 0.63854 0.78502 0.96186 0.0
C361 C 0.50174 0.81006 0.92435 0.0
O362 O 0.68852 0.83072 0.91202 0.0
O363 O 0.63255 0.84552 0.95739 0.0
In364 In 0.38629 0.1816 0.71762 0.0
O365 O 0.4808 0.16961 0.68065 0.0
O366 O 0.39206 0.15287 0.69692 0.0
C367 C 0.4352 0.21528 0.72791 0.0
C368 C 0.25789 0.18397 0.67806 0.0
C369 C 0.39861 0.17177 0.79531 0.0
O370 O 0.46228 0.20495 0.70161 0.0
O371 O 0.38167 0.209 0.74706 0.0
O372 O 0.33801 0.17518 0.77912 0.0
O373 O 0.45301 0.17253 0.77197 0.0
C374 C 0.45244 0.15427 0.67894 0.0
O375 O 0.26393 0.17734 0.71297 0.0
O376 O 0.31661 0.18976 0.66291 0.0
In377 In 0.36169 0.56974 0.71852 0.0
O378 O 0.27895 0.58122 0.6728 0.0
O379 O 0.31891 0.59818 0.71858 0.0
C380 C 0.30846 0.5366 0.73295 0.0
C381 C 0.47903 0.56778 0.66941 0.0
C382 C 0.39706 0.57961 0.79393 0.0
O383 O 0.26917 0.5504 0.73388 0.0
O384 O 0.37367 0.53933 0.72271 0.0
O385 O 0.43877 0.58241 0.76419 0.0
O386 O 0.33712 0.57224 0.78563 0.0
C387 C 0.27683 0.59654 0.68872 0.0
O388 O 0.48373 0.5696 0.70728 0.0
O389 O 0.41479 0.56666 0.65581 0.0
In390 In 0.40522 0.56892 0.03812 0.0
O391 O 0.28435 0.57538 0.04131 0.0
O392 O 0.32774 0.55856 0.08738 0.0
C393 C 0.42624 0.58168 0.96292 0.0
C394 C 0.46408 0.59345 0.08793 0.0
C395 C 0.45423 0.53575 0.02207 0.0
O396 O 0.36524 0.57623 0.97552 0.0
O397 O 0.47663 0.58117 0.98881 0.0
O398 O 0.49059 0.54668 0.04305 0.0
O399 O 0.39269 0.54124 0.01073 0.0
C400 C 0.27271 0.56651 0.07313 0.0
O401 O 0.48166 0.57715 0.08986 0.0
O402 O 0.41895 0.59728 0.0605 0.0
In403 In 0.36623 0.1834 0.04455 0.0
O404 O 0.48751 0.18714 0.0522 0.0
O405 O 0.42292 0.18733 0.10584 0.0
C406 C 0.38369 0.17216 0.96818 0.0
C407 C 0.30062 0.15607 0.08318 0.0
C408 C 0.31182 0.21614 0.02873 0.0
O409 O 0.43296 0.17051 0.99447 0.0
O410 O 0.32418 0.17845 0.98087 0.0
O411 O 0.27139 0.20315 0.03823 0.0
O412 O 0.37918 0.21294 0.02969 0.0
C413 C 0.48585 0.18798 0.09032 0.0
O414 O 0.27995 0.17203 0.08805 0.0
O415 O 0.35115 0.15406 0.05771 0.0
C416 C 1.0013 0.38678 0.36434 0.0
C417 C 0.05721 0.39121 0.39231 0.0
C418 C 0.12594 0.36461 0.37244 0.0
C419 C 0.06794 0.35948 0.34659 0.0
N420 N 0.94587 0.3639 0.32199 0.0
N421 N 0.16638 0.38249 0.4288 0.0
C422 C 0.00395 0.37001 0.34385 0.0
C423 C 0.11705 0.37946 0.39848 0.0
N424 N 0.9468 0.39875 0.35674 0.0
N425 N 0.19161 0.35599 0.37033 0.0
H426 H 0.16674 0.39385 0.44697 0.0
H427 H 0.20475 0.37303 0.43784 0.0
H428 H 0.20123 0.34511 0.35143 0.0
H429 H 0.2387 0.36061 0.38449 0.0
H430 H 0.90855 0.39716 0.33373 0.0
H431 H 0.94237 0.41088 0.37214 0.0
H432 H 0.89498 0.37007 0.32194 0.0
H433 H 0.94713 0.35179 0.3063 0.0
C434 C 0.21858 0.86729 0.31801 0.0
C435 C 0.22253 0.88386 0.33866 0.0
C436 C 0.24177 0.86774 0.40226 0.0
C437 C 0.21804 0.8518 0.38326 0.0
N438 N 0.18372 0.8362 0.32193 0.0
N439 N 0.23884 0.89999 0.40174 0.0
C440 C 0.2082 0.85134 0.34061 0.0
C441 C 0.23638 0.88419 0.38103 0.0
N442 N 0.22445 0.86689 0.27673 0.0
N443 N 0.26887 0.86706 0.44078 0.0
H444 H 0.23564 0.91245 0.38795 0.0
H445 H 0.23946 0.90072 0.43327 0.0
H446 H 0.27412 0.85504 0.45661 0.0
H447 H 0.29318 0.87795 0.45505 0.0
H448 H 0.22817 0.85508 0.26014 0.0
H449 H 0.23371 0.87842 0.25967 0.0
H450 H 0.16691 0.83592 0.29178 0.0
H451 H 0.17562 0.82414 0.33697 0.0
C452 C 0.0262 0.8723 0.91246 0.0
C453 C 0.03158 0.88854 0.89066 0.0
C454 C 0.01524 0.87203 0.82734 0.0
C455 C 0.02941 0.8559 0.84833 0.0
N456 N 0.04792 0.84047 0.91206 0.0
N457 N 0.03083 0.90407 0.82625 0.0
C458 C 0.03277 0.85584 0.89136 0.0
C459 C 0.02399 0.88857 0.84781 0.0
N460 N 0.01539 0.87271 0.95343 0.0
N461 N 0.99417 0.87142 0.78766 0.0
H462 H 0.03696 0.91657 0.83959 0.0
H463 H 0.03509 0.9044 0.79477 0.0
H464 H 0.98665 0.85936 0.77232 0.0
H465 H 0.9768 0.88262 0.77158 0.0
H466 H 0.00467 0.86135 0.97067 0.0
H467 H 0.00938 0.88469 0.96932 0.0
H468 H 0.06062 0.84026 0.94282 0.0
H469 H 0.05235 0.82801 0.89836 0.0
C470 C 0.23695 0.37366 0.81863 0.0
C471 C 0.23726 0.38973 0.84135 0.0
C472 C 0.25801 0.37224 0.90288 0.0
C473 C 0.23569 0.35667 0.88184 0.0
N474 N 0.20759 0.34218 0.81819 0.0
N475 N 0.25472 0.40449 0.90596 0.0
C476 C 0.22827 0.3571 0.83906 0.0
C477 C 0.2519 0.38916 0.8836 0.0
N478 N 0.24418 0.37439 0.77745 0.0
N479 N 0.28451 0.37072 0.9414 0.0
H480 H 0.25341 0.41721 0.89333 0.0
H481 H 0.25532 0.40459 0.93753 0.0
H482 H 0.29027 0.35833 0.95565 0.0
H483 H 0.30782 0.38132 0.95722 0.0
H484 H 0.25034 0.36308 0.75934 0.0
H485 H 0.25209 0.38645 0.76214 0.0
H486 H 0.19231 0.34243 0.78779 0.0
H487 H 0.20179 0.32967 0.83155 0.0
C488 C 0.99701 0.62536 0.56677 0.0
C489 C 0.98488 0.60899 0.58762 0.0
C490 C 0.0185 0.62337 0.6513 0.0
C491 C 0.00853 0.64009 0.63232 0.0
N492 N 0.02993 0.65685 0.57148 0.0
N493 N 0.99434 0.59162 0.64929 0.0
C494 C 0.01134 0.64111 0.5896 0.0
C495 C 1.00126 0.60758 0.62957 0.0
N496 N 0.99242 0.62574 0.52544 0.0
N497 N 0.0447 0.62285 0.68998 0.0
H498 H 0.98315 0.57965 0.63451 0.0
H499 H 0.99678 0.59036 0.68068 0.0
H500 H 0.05957 0.63452 0.70525 0.0
H501 H 0.05922 0.61109 0.70479 0.0
H502 H 0.99352 0.63736 0.50817 0.0
H503 H 0.98711 0.6141 0.50823 0.0
H504 H 0.03505 0.65859 0.54033 0.0
H505 H 0.04843 0.66776 0.58823 0.0
C506 C 0.75691 0.10949 0.58773 0.0
C507 C 0.75186 0.10987 0.63068 0.0
C508 C 0.71812 0.14158 0.62838 0.0
C509 C 0.74149 0.14183 0.58757 0.0
N510 N 0.73575 0.12561 0.52494 0.0
N511 N 0.70696 0.12437 0.69082 0.0
C512 C 0.74493 0.12556 0.56598 0.0
C513 C 0.72443 0.12532 0.65061 0.0
N514 N 0.77901 0.0944 0.56796 0.0
N515 N 0.68836 0.15662 0.64487 0.0
H516 H 0.70728 0.11228 0.70662 0.0
H517 H 0.69164 0.13526 0.70844 0.0
H518 H 0.67702 0.16785 0.6272 0.0
H519 H 0.66855 0.15753 0.67434 0.0
H520 H 0.79277 0.09421 0.53732 0.0
H521 H 0.78687 0.08219 0.58234 0.0
H522 H 0.73225 0.11401 0.50759 0.0
H523 H 0.72249 0.13729 0.50929 0.0
C524 C 0.86416 0.12854 0.13922 0.0
C525 C 0.93078 0.1378 0.14602 0.0
C526 C 0.99721 0.11495 0.10725 0.0
C527 C 0.92992 0.10662 0.09794 0.0
N528 N 0.79826 0.10657 0.10011 0.0
N529 N 0.06 0.14087 0.13478 0.0
C530 C 0.8632 0.11367 0.11271 0.0
C531 C 0.99723 0.13133 0.12943 0.0
N532 N 0.80139 0.13381 0.15828 0.0
N533 N 0.06083 0.10697 0.09554 0.0
H534 H 0.06246 0.15241 0.15248 0.0
H535 H 0.10876 0.13799 0.12005 0.0
H536 H 0.06208 0.09517 0.07869 0.0
H537 H 0.11208 0.11125 0.1048 0.0
H538 H 0.75448 0.126 0.15952 0.0
H539 H 0.79621 0.14559 0.17477 0.0
H540 H 0.74798 0.11269 0.10478 0.0
H541 H 0.79431 0.09514 0.08229 0.0
C542 C 0.7663 0.60819 0.0852 0.0
C543 C 0.76258 0.6088 0.12819 0.0
C544 C 0.73056 0.64062 0.12548 0.0
C545 C 0.7483 0.64045 0.08365 0.0
N546 N 0.73653 0.62337 0.02241 0.0
N547 N 0.71294 0.62323 0.18721 0.0
C548 C 0.75018 0.62391 0.06304 0.0
C549 C 0.7351 0.62432 0.14772 0.0
N550 N 0.7907 0.59329 0.0655 0.0
N551 N 0.71013 0.65621 0.14362 0.0
H552 H 0.71387 0.6112 0.20323 0.0
H553 H 0.68825 0.63363 0.20299 0.0
H554 H 0.69556 0.66746 0.12682 0.0
H555 H 0.70504 0.65788 0.1748 0.0
H556 H 0.80272 0.59316 0.03462 0.0
H557 H 0.80329 0.58136 0.08002 0.0
H558 H 0.73186 0.61149 0.00615 0.0
H559 H 0.72085 0.63478 0.00643 0.0
C560 C 0.51709 0.39158 0.8536 0.0
C561 C 0.52158 0.3916 0.89662 0.0
C562 C 0.51843 0.35891 0.89767 0.0
C563 C 0.51996 0.35891 0.85462 0.0
N564 N 0.48913 0.37441 0.7932 0.0
N565 N 0.49471 0.37607 0.95866 0.0
C566 C 0.50816 0.37503 0.8332 0.0
C567 C 0.51106 0.37546 0.91828 0.0
N568 N 0.52694 0.40693 0.83187 0.0
N569 N 0.52954 0.34352 0.91905 0.0
H570 H 0.4877 0.38815 0.97404 0.0
H571 H 0.48028 0.36483 0.97547 0.0
H572 H 0.53407 0.33099 0.90571 0.0
H573 H 0.53839 0.34335 0.95023 0.0
H574 H 0.53385 0.40704 0.80052 0.0
H575 H 0.53229 0.4195 0.84487 0.0
H576 H 0.47355 0.38565 0.77671 0.0
H577 H 0.4812 0.36233 0.77799 0.0
C578 C 0.60818 0.87089 0.88918 0.0
C579 C 0.67405 0.86233 0.9004 0.0
C580 C 0.74384 0.88551 0.86462 0.0
C581 C 0.6777 0.8947 0.85666 0.0
N582 N 0.54979 0.89862 0.87106 0.0
N583 N 0.80535 0.86237 0.90352 0.0
C584 C 0.61081 0.88815 0.87205 0.0
C585 C 0.74237 0.86988 0.88946 0.0
N586 N 0.54304 0.86214 0.89268 0.0
N587 N 0.80724 0.8914 0.84746 0.0
H588 H 0.8058 0.85086 0.92136 0.0
H589 H 0.85651 0.86818 0.8999 0.0
H590 H 0.81 0.90304 0.83013 0.0
H591 H 0.85591 0.88426 0.84844 0.0
H592 H 0.49427 0.86715 0.88118 0.0
H593 H 0.53893 0.84897 0.90266 0.0
H594 H 0.5011 0.89512 0.8853 0.0
H595 H 0.55028 0.91165 0.85997 0.0
C596 C 0.58523 0.85927 0.39687 0.0
C597 C 0.53426 0.85711 0.36508 0.0
C598 C 0.48819 0.88746 0.37705 0.0
C599 C 0.54681 0.89042 0.40426 0.0
N600 N 0.65967 0.88001 0.43429 0.0
N601 N 0.43618 0.86859 0.32436 0.0
C602 C 0.59711 0.8765 0.41311 0.0
C603 C 0.48493 0.87104 0.35516 0.0
N604 N 0.62352 0.84491 0.41113 0.0
N605 N 0.43563 0.90025 0.37263 0.0
H606 H 0.43038 0.85636 0.30951 0.0
H607 H 0.40346 0.8787 0.31263 0.0
H608 H 0.43704 0.91234 0.38837 0.0
H609 H 0.38825 0.89844 0.3558 0.0
H610 H 0.65575 0.84543 0.43709 0.0
H611 H 0.61793 0.83205 0.39952 0.0
H612 H 0.70227 0.87088 0.43698 0.0
H613 H 0.67327 0.89255 0.44562 0.0
C614 C 0.75339 0.37619 0.40966 0.0
C615 C 0.72216 0.36045 0.39318 0.0
C616 C 0.67928 0.37717 0.33431 0.0
C617 C 0.71216 0.39294 0.34998 0.0
N618 N 0.79351 0.40669 0.39809 0.0
N619 N 0.67592 0.34492 0.33435 0.0
C620 C 0.75351 0.3922 0.38631 0.0
C621 C 0.693 0.36056 0.35346 0.0
N622 N 0.78155 0.37583 0.44799 0.0
N623 N 0.62909 0.37811 0.30369 0.0
H624 H 0.68388 0.3324 0.3473 0.0
H625 H 0.66127 0.34431 0.30387 0.0
H626 H 0.61161 0.39001 0.2906 0.0
H627 H 0.59782 0.36723 0.29448 0.0
H628 H 0.79711 0.38723 0.46387 0.0
H629 H 0.78665 0.36402 0.46457 0.0
H630 H 0.82949 0.40656 0.42246 0.0
H631 H 0.79604 0.41843 0.38107 0.0
C632 C 0.52015 0.62339 0.09923 0.0
C633 C 0.49158 0.60737 0.11592 0.0
C634 C 0.48941 0.62143 0.1826 0.0
C635 C 0.49381 0.63833 0.16363 0.0
N636 N 0.54092 0.65529 0.10724 0.0
N637 N 0.45378 0.59058 0.17509 0.0
C638 C 0.51893 0.63932 0.12297 0.0
C639 C 0.47969 0.60601 0.15831 0.0
N640 N 0.54899 0.62312 0.06102 0.0
N641 N 0.49504 0.62024 0.22375 0.0
H642 H 0.44584 0.57886 0.15872 0.0
H643 H 0.43589 0.58976 0.20502 0.0
H644 H 0.50646 0.63143 0.24156 0.0
H645 H 0.49752 0.60812 0.23924 0.0
H646 H 0.57487 0.63393 0.04741 0.0
H647 H 0.55219 0.61138 0.04401 0.0
H648 H 0.55067 0.65752 0.07659 0.0
H649 H 0.55255 0.66626 0.12555 0.0
C650 C 0.26167 0.12437 0.08495 0.0
C651 C 0.27248 0.14054 0.10641 0.0
C652 C 0.26523 0.12393 0.17021 0.0
C653 C 0.2745 0.1078 0.14839 0.0
N654 N 0.28127 0.09246 0.0839 0.0
N655 N 0.28293 0.1559 0.17088 0.0
C656 C 0.27076 0.10784 0.10543 0.0
C657 C 0.27177 0.14051 0.14952 0.0
N658 N 0.24321 0.12493 0.04487 0.0
N659 N 0.25089 0.1233 0.21083 0.0
H660 H 0.28645 0.16847 0.15765 0.0
H661 H 0.29278 0.15609 0.20197 0.0
H662 H 0.24508 0.11123 0.22638 0.0
H663 H 0.2372 0.13451 0.22792 0.0
H664 H 0.22844 0.11364 0.02833 0.0
H665 H 0.23498 0.13698 0.02957 0.0
H666 H 0.2883 0.09226 0.05257 0.0
H667 H 0.28768 0.07998 0.09731 0.0
C668 C 0.51478 0.12299 0.59527 0.0
C669 C 0.48796 0.10698 0.61263 0.0
C670 C 0.48069 0.12193 0.67831 0.0
C671 C 0.4856 0.13861 0.65832 0.0
N672 N 0.51602 0.15529 0.59776 0.0
N673 N 0.44954 0.0907 0.67242 0.0
C674 C 0.50741 0.13929 0.61703 0.0
C675 C 0.47425 0.1061 0.65495 0.0
N676 N 0.5465 0.12248 0.55783 0.0
N677 N 0.48135 0.12138 0.7197 0.0
H678 H 0.44556 0.0786 0.65711 0.0
H679 H 0.4294 0.09014 0.70193 0.0
H680 H 0.48739 0.13291 0.7372 0.0
H681 H 0.48401 0.10953 0.73622 0.0
H682 H 0.57285 0.13337 0.54472 0.0
H683 H 0.553 0.11052 0.5419 0.0
H684 H 0.52251 0.15648 0.56651 0.0
H685 H 0.51409 0.16754 0.6126 0.0
C686 C 0.21854 0.62754 0.60558 0.0
C687 C 0.24988 0.64321 0.62257 0.0
C688 C 0.24785 0.62914 0.68929 0.0
C689 C 0.2404 0.6124 0.67002 0.0
N690 N 0.18139 0.59654 0.61601 0.0
N691 N 0.28623 0.65982 0.6823 0.0
C692 C 0.21332 0.61183 0.6299 0.0
C693 C 0.25976 0.64453 0.66517 0.0
N694 N 0.19566 0.62781 0.56618 0.0
N695 N 0.24253 0.63018 0.73047 0.0
H696 H 0.29447 0.67162 0.66626 0.0
H697 H 0.30339 0.66055 0.71234 0.0
H698 H 0.22932 0.61901 0.74799 0.0
H699 H 0.24207 0.64221 0.74634 0.0
H700 H 0.17534 0.61681 0.55065 0.0
H701 H 0.19548 0.63955 0.54908 0.0
H702 H 0.1608 0.59486 0.58693 0.0
H703 H 0.16964 0.5859 0.63538 0.0
C704 C 0.3899 0.31894 0.41137 0.0
C705 C 0.4528 0.3097 0.39743 0.0
C706 C 0.38536 0.29964 0.3375 0.0
C707 C 0.32161 0.30791 0.35305 0.0
N708 N 0.25856 0.32104 0.4101 0.0
N709 N 0.5054 0.2878 0.35233 0.0
C710 C 0.32222 0.316 0.39186 0.0
C711 C 0.44924 0.29906 0.36186 0.0
N712 N 0.39538 0.33155 0.44122 0.0
N713 N 0.3849 0.29237 0.29951 0.0
H714 H 0.55177 0.28646 0.37033 0.0
H715 H 0.50293 0.27849 0.32892 0.0
H716 H 0.33777 0.2914 0.28195 0.0
H717 H 0.43192 0.28814 0.28461 0.0
H718 H 0.35243 0.33994 0.44932 0.0
H719 H 0.44454 0.33519 0.45467 0.0
H720 H 0.25593 0.32539 0.44008 0.0
H721 H 0.20755 0.31928 0.39685 0.0
C722 C 0.91099 0.91948 0.35152 0.0
C723 C 0.95126 0.93523 0.34304 0.0
C724 C 0.86143 0.95311 0.38035 0.0
C725 C 0.81845 0.93755 0.38589 0.0
N726 N 0.79405 0.90671 0.36936 0.0
N727 N 0.95914 0.9674 0.34286 0.0
C728 C 0.84084 0.92095 0.36931 0.0
C729 C 0.92498 0.95218 0.35567 0.0
N730 N 0.94105 0.90306 0.34427 0.0
N731 N 0.84318 0.96858 0.39991 0.0
H732 H 0.00526 0.96723 0.32437 0.0
H733 H 0.93824 0.98017 0.34755 0.0
H734 H 0.79688 0.9698 0.41808 0.0
H735 H 0.87682 0.97978 0.40073 0.0
H736 H 0.91737 0.89114 0.3539 0.0
H737 H 0.99311 0.90135 0.33215 0.0
H738 H 0.80459 0.89482 0.35405 0.0
H739 H 0.74138 0.90738 0.38122 0.0
C740 C 0.38405 0.92593 0.82546 0.0
C741 C 0.42834 0.94153 0.82628 0.0
C742 C 0.33971 0.95644 0.8705 0.0
C743 C 0.29489 0.94106 0.86863 0.0
N744 N 0.26493 0.91289 0.83749 0.0
N745 N 0.4404 0.97295 0.84105 0.0
C746 C 0.31381 0.92642 0.84357 0.0
C747 C 0.40376 0.95721 0.84628 0.0
N748 N 0.4108 0.91025 0.81015 0.0
N749 N 0.32183 0.97012 0.8961 0.0
H750 H 0.48628 0.9741 0.82251 0.0
H751 H 0.42149 0.98519 0.85176 0.0
H752 H 0.27337 0.97036 0.91269 0.0
H753 H 0.35669 0.98071 0.90259 0.0
H754 H 0.38424 0.89804 0.81327 0.0
H755 H 0.46265 0.90895 0.79764 0.0
H756 H 0.27255 0.9028 0.81615 0.0
H757 H 0.21362 0.9126 0.85114 0.0
C758 C 0.84247 0.29687 0.86228 0.0
C759 C 0.80644 0.31325 0.85401 0.0
C760 C 0.9106 0.32992 0.88098 0.0
C761 C 0.94399 0.31359 0.8924 0.0
N762 N 0.93665 0.2816 0.90048 0.0
N763 N 0.79876 0.34518 0.86328 0.0
C764 C 0.90858 0.29706 0.88485 0.0
C765 C 0.8384 0.32974 0.86558 0.0
N766 N 0.8152 0.28123 0.84721 0.0
N767 N 0.94896 0.34556 0.88317 0.0
H768 H 0.74496 0.34557 0.8531 0.0
H769 H 0.81654 0.35729 0.87528 0.0
H770 H 0.00263 0.34626 0.89347 0.0
H771 H 0.93017 0.35755 0.87106 0.0
H772 H 0.84328 0.26915 0.84835 0.0
H773 H 0.76699 0.28054 0.83055 0.0
H774 H 0.9092 0.26943 0.89976 0.0
H775 H 0.98467 0.2812 0.91735 0.0
C776 C 0.66546 0.66215 0.6275 0.0
C777 C 0.6974 0.67834 0.64108 0.0
C778 C 0.59339 0.69517 0.61427 0.0
C779 C 0.55813 0.67887 0.60442 0.0
N780 N 0.55445 0.64668 0.60885 0.0
N781 N 0.68497 0.70986 0.65514 0.0
C782 C 0.59248 0.66229 0.61299 0.0
C783 C 0.65951 0.69476 0.63663 0.0
N784 N 0.70562 0.64676 0.62707 0.0
N785 N 0.56575 0.71105 0.60071 0.0
H786 H 0.73229 0.71011 0.67262 0.0
H787 H 0.65537 0.72173 0.65653 0.0
H788 H 0.51856 0.71198 0.58326 0.0
H789 H 0.59352 0.72313 0.60331 0.0
H790 H 0.68788 0.63501 0.61336 0.0
H791 H 0.75955 0.64615 0.63696 0.0
H792 H 0.57452 0.63433 0.61803 0.0
H793 H 0.49999 0.64622 0.59988 0.0
C794 C 0.08981 0.08638 0.62434 0.0
C795 C 0.05629 0.07026 0.63719 0.0
C796 C 0.1554 0.053 0.60616 0.0
C797 C 0.19251 0.06915 0.59711 0.0
N798 N 0.2018 0.10116 0.60465 0.0
N799 N 0.06364 0.03834 0.64716 0.0
C800 C 0.16156 0.08585 0.60809 0.0
C801 C 0.09076 0.05357 0.62994 0.0
N802 N 0.05215 0.10213 0.62623 0.0
N803 N 0.18013 0.03717 0.5907 0.0
H804 H 0.0172 0.03818 0.66541 0.0
H805 H 0.091 0.02615 0.64656 0.0
H806 H 0.22651 0.03619 0.57253 0.0
H807 H 0.15089 0.02527 0.59266 0.0
H808 H 0.07089 0.11395 0.61324 0.0
H809 H 0.99896 0.10304 0.63724 0.0
H810 H 0.18465 0.11344 0.61593 0.0
H811 H 0.25542 0.10132 0.59414 0.0
C812 C 0.54841 0.06986 0.0977 0.0
C813 C 0.53826 0.0567 0.12804 0.0
C814 C 0.65334 0.04241 0.1088 0.0
C815 C 0.66828 0.05695 0.08247 0.0
N816 N 0.63437 0.08586 0.05557 0.0
N817 N 0.58088 0.03086 0.16453 0.0
C818 C 0.61659 0.07093 0.07739 0.0
C819 C 0.59062 0.04304 0.13411 0.0
N820 N 0.49323 0.08149 0.08866 0.0
N821 N 0.69785 0.02775 0.10854 0.0
H822 H 0.53357 0.0303 0.18209 0.0
H823 H 0.62105 0.02193 0.17382 0.0
H824 H 0.74328 0.02669 0.08964 0.0
H825 H 0.68626 0.016 0.12414 0.0
H826 H 0.49436 0.09005 0.06379 0.0
H827 H 0.44347 0.08158 0.10398 0.0
H828 H 0.60248 0.09737 0.05502 0.0
H829 H 0.68403 0.08753 0.04073 0.0
C830 C 0.07472 0.66649 0.12219 0.0
C831 C 0.05306 0.68236 0.1021 0.0
C832 C 0.15882 0.6981 0.13014 0.0
C833 C 0.18467 0.68174 0.14649 0.0
N834 N 0.17401 0.64965 0.15165 0.0
N835 N 0.08024 0.71252 0.08105 0.0
C836 C 0.1444 0.66572 0.14083 0.0
C837 C 0.09662 0.69799 0.10446 0.0
N838 N 0.02775 0.65234 0.12459 0.0
N839 N 0.19141 0.71387 0.14062 0.0
H840 H 0.03538 0.71298 0.06169 0.0
H841 H 0.11466 0.72352 0.07813 0.0
H842 H 0.2359 0.71463 0.16016 0.0
H843 H 0.17007 0.72633 0.13308 0.0
H844 H 0.03721 0.64119 0.14273 0.0
H845 H 0.97587 0.65246 0.11166 0.0
H846 H 0.14956 0.63744 0.1452 0.0
H847 H 0.22639 0.64835 0.16355 0.0
C848 C 0.37623 0.82175 0.90942 0.0
C849 C 0.43072 0.80849 0.90332 0.0
C850 C 0.35435 0.79393 0.85207 0.0
C851 C 0.29888 0.80669 0.85962 0.0
N852 N 0.25041 0.83074 0.90017 0.0
N853 N 0.46538 0.77984 0.87586 0.0
C854 C 0.30755 0.81986 0.89006 0.0
C855 C 0.41808 0.79396 0.87657 0.0
N856 N 0.39147 0.83678 0.93148 0.0
N857 N 0.34644 0.78192 0.82115 0.0
H858 H 0.5115 0.77914 0.89426 0.0
H859 H 0.45549 0.76807 0.86 0.0
H860 H 0.29873 0.78084 0.80413 0.0
H861 H 0.38848 0.77374 0.81087 0.0
H862 H 0.35722 0.84785 0.93268 0.0
H863 H 0.44116 0.83903 0.94579 0.0
H864 H 0.25064 0.83914 0.92533 0.0
H865 H 0.20024 0.8304 0.88537 0.0
C866 C 0.8368 0.41918 0.87418 0.0
C867 C 0.80838 0.43556 0.88898 0.0
C868 C 0.91069 0.45176 0.85824 0.0
C869 C 0.94282 0.4352 0.84726 0.0
N870 N 0.94276 0.40299 0.8502 0.0
N871 N 0.82254 0.46722 0.90035 0.0
C872 C 0.90751 0.41885 0.85659 0.0
C873 C 0.84628 0.45183 0.88231 0.0
N874 N 0.79511 0.40404 0.87561 0.0
N875 N 0.9403 0.46739 0.84451 0.0
H876 H 0.77569 0.46785 0.91822 0.0
H877 H 0.85238 0.47905 0.90038 0.0
H878 H 0.98728 0.46788 0.8267 0.0
H879 H 0.91496 0.47976 0.84773 0.0
H880 H 0.80971 0.39214 0.86141 0.0
H881 H 0.74251 0.4038 0.88767 0.0
H882 H 0.92311 0.39077 0.86058 0.0
H883 H 0.99494 0.40217 0.83774 0.0
C884 C 0.40821 0.4574 0.36145 0.0
C885 C 0.44332 0.441 0.35213 0.0
C886 C 0.33922 0.4245 0.37965 0.0
C887 C 0.30789 0.44079 0.39305 0.0
N888 N 0.31871 0.47262 0.40308 0.0
N889 N 0.44969 0.40897 0.36079 0.0
C890 C 0.34404 0.45724 0.38572 0.0
C891 C 0.41097 0.42453 0.36361 0.0
N892 N 0.43418 0.47307 0.34576 0.0
N893 N 0.29928 0.40908 0.38043 0.0
H894 H 0.50351 0.40842 0.35066 0.0
H895 H 0.43109 0.39688 0.37258 0.0
H896 H 0.24522 0.40866 0.39009 0.0
H897 H 0.317 0.39718 0.36735 0.0
H898 H 0.40635 0.48516 0.34806 0.0
H899 H 0.48001 0.47374 0.32711 0.0
H900 H 0.34724 0.48465 0.4023 0.0
H901 H 0.27252 0.47303 0.42152 0.0
C902 C 0.82772 0.7941 0.36698 0.0
C903 C 0.79438 0.8107 0.35751 0.0
C904 C 0.90069 0.82667 0.38403 0.0
C905 C 0.93074 0.81019 0.39711 0.0
N906 N 0.91782 0.77843 0.40727 0.0
N907 N 0.79221 0.84284 0.36433 0.0
C908 C 0.89293 0.79393 0.39029 0.0
C909 C 0.82892 0.82702 0.36807 0.0
N910 N 0.79898 0.77855 0.35228 0.0
N911 N 0.94182 0.8419 0.38525 0.0
H912 H 0.739 0.84372 0.35344 0.0
H913 H 0.81178 0.8549 0.37573 0.0
H914 H 0.99538 0.84217 0.39582 0.0
H915 H 0.9255 0.8539 0.37207 0.0
H916 H 0.82529 0.76626 0.35447 0.0
H917 H 0.75188 0.77809 0.33464 0.0
H918 H 0.88829 0.76655 0.40708 0.0
H919 H 0.96516 0.77777 0.42469 0.0
C920 C 0.67741 0.17573 0.12192 0.0
C921 C 0.68897 0.18745 0.15503 0.0
C922 C 0.56723 0.20031 0.14527 0.0
C923 C 0.55367 0.18747 0.11453 0.0
N924 N 0.58839 0.15979 0.08204 0.0
N925 N 0.64259 0.20932 0.20217 0.0
C926 C 0.60668 0.17428 0.10518 0.0
C927 C 0.6329 0.19918 0.16814 0.0
N928 N 0.73389 0.16606 0.10609 0.0
N929 N 0.51948 0.21408 0.15119 0.0
H930 H 0.69135 0.20955 0.2184 0.0
H931 H 0.60085 0.2166 0.21579 0.0
H932 H 0.47158 0.21555 0.13454 0.0
H933 H 0.53015 0.22489 0.17015 0.0
H934 H 0.72976 0.1588 0.07924 0.0
H935 H 0.7867 0.16646 0.11763 0.0
H936 H 0.62292 0.1489 0.07776 0.0
H937 H 0.53587 0.1576 0.07104 0.0
C938 C 0.16864 0.58308 0.10454 0.0
C939 C 0.20075 0.56654 0.09354 0.0
C940 C 0.09729 0.55054 0.12368 0.0
C941 C 0.06238 0.56715 0.13129 0.0
N942 N 0.05753 0.59902 0.12048 0.0
N943 N 0.19021 0.5346 0.08582 0.0
C944 C 0.09595 0.58337 0.11923 0.0
C945 C 0.16358 0.55025 0.10118 0.0
N946 N 0.2087 0.59847 0.10283 0.0
N947 N 0.06911 0.53512 0.13945 0.0
H948 H 0.23824 0.53387 0.06895 0.0
H949 H 0.16146 0.5226 0.08668 0.0
H950 H 0.02118 0.53473 0.15644 0.0
H951 H 0.09647 0.52293 0.13868 0.0
H952 H 0.19035 0.6106 0.1144 0.0
H953 H 0.26315 0.59884 0.09374 0.0
H954 H 0.07678 0.61091 0.10803 0.0
H955 H 0.00336 0.59974 0.13001 0.0
C956 C 0.66019 0.58209 0.62386 0.0
C957 C 0.67422 0.56773 0.59695 0.0
C958 C 0.56152 0.55288 0.61866 0.0
C959 C 0.54457 0.56793 0.64312 0.0
N960 N 0.57099 0.59813 0.66408 0.0
N961 N 0.63516 0.54061 0.56416 0.0
C962 C 0.59215 0.58289 0.64443 0.0
C963 C 0.62402 0.55343 0.59306 0.0
N964 N 0.71281 0.5947 0.63058 0.0
N965 N 0.51988 0.53777 0.62129 0.0
H966 H 0.68104 0.5404 0.54543 0.0
H967 H 0.59661 0.53097 0.55663 0.0
H968 H 0.47396 0.53681 0.63982 0.0
H969 H 0.53398 0.5257 0.60771 0.0
H970 H 0.70941 0.60435 0.65324 0.0
H971 H 0.7631 0.59465 0.61578 0.0
H972 H 0.60058 0.60999 0.66352 0.0
H973 H 0.52043 0.59951 0.67824 0.0
C974 C 0.09522 0.20037 0.61658 0.0
C975 C 0.05212 0.18462 0.61511 0.0
C976 C 0.147 0.16818 0.65162 0.0
C977 C 0.18729 0.18427 0.65617 0.0
N978 N 0.1925 0.21639 0.65035 0.0
N979 N 0.02955 0.15458 0.63828 0.0
C980 C 0.15941 0.20059 0.64071 0.0
C981 C 0.07582 0.16882 0.63477 0.0
N982 N 0.07683 0.21486 0.59353 0.0
N983 N 0.17797 0.15214 0.66153 0.0
H984 H 0.97662 0.15465 0.62672 0.0
H985 H 0.04086 0.14342 0.65607 0.0
H986 H 0.23119 0.15092 0.67222 0.0
H987 H 0.15355 0.13989 0.65543 0.0
H988 H 0.11072 0.22591 0.58988 0.0
H989 H 0.03071 0.21526 0.57512 0.0
H990 H 0.17013 0.22882 0.64353 0.0
H991 H 0.23877 0.21717 0.66858 0.0
C992 C 0.97531 0.23964 0.27096 0.0
C993 C 0.98597 0.23316 0.23076 0.0
C994 C 0.04926 0.26083 0.21256 0.0
C995 C 0.04365 0.26664 0.25346 0.0
N996 N 0.01284 0.26051 0.32312 0.0
N997 N 0.04042 0.23637 0.16457 0.0
C998 C 0.00942 0.25581 0.28307 0.0
C999 C 0.0257 0.24334 0.20202 0.0
N1000 N 0.93259 0.23037 0.29771 0.0
N1001 N 0.07346 0.2724 0.1834 0.0
H1002 H 0.02038 0.22407 0.15482 0.0
H1003 H 0.07644 0.24222 0.14408 0.0
H1004 H 0.08849 0.28554 0.1897 0.0
H1005 H 0.07224 0.26964 0.15249 0.0
H1006 H 0.91491 0.23559 0.32528 0.0
H1007 H 0.91122 0.21776 0.29175 0.0
H1008 H 0.99672 0.25215 0.3467 0.0
H1009 H 0.03769 0.27221 0.33327 0.0
C1010 C 0.20365 0.9956 0.28024 0.0
C1011 C 0.2352 0.97986 0.26398 0.0
C1012 C 0.31366 0.99786 0.21976 0.0
C1013 C 0.28517 0.01361 0.23769 0.0
N1014 N 0.21504 0.0275 0.29109 0.0
N1015 N 0.32936 0.96579 0.22388 0.0
C1016 C 0.23322 0.01252 0.26956 0.0
C1017 C 0.29343 0.98093 0.23569 0.0
N1018 N 0.1453 0.99438 0.30591 0.0
N1019 N 0.35695 0.99905 0.18607 0.0
H1020 H 0.31471 0.95303 0.23349 0.0
H1021 H 0.37732 0.96596 0.20698 0.0
H1022 H 0.37161 0.01118 0.17283 0.0
H1023 H 0.37272 0.98804 0.16889 0.0
H1024 H 0.11395 0.00533 0.31463 0.0
H1025 H 0.1258 0.98222 0.31692 0.0
H1026 H 0.1836 0.02723 0.31737 0.0
H1027 H 0.23677 0.04008 0.28499 0.0
C1028 C 0.96116 0.00916 0.96158 0.0
C1029 C 0.97309 0.01541 0.00178 0.0
C1030 C 0.04265 0.98835 0.01759 0.0
C1031 C 0.03454 0.98263 0.97675 0.0
N1032 N 0.99718 0.98869 0.90812 0.0
N1033 N 0.03324 0.0125 0.06638 0.0
C1034 C 0.9965 0.9933 0.94827 0.0
C1035 C 0.01677 0.00552 0.02919 0.0
N1036 N 0.91611 0.0184 0.93604 0.0
N1037 N 0.07133 0.97696 0.04583 0.0
H1038 H 0.01209 0.02459 0.07683 0.0
H1039 H 0.07177 0.00695 0.08582 0.0
H1040 H 0.08903 0.96408 0.03889 0.0
H1041 H 0.07171 0.97956 0.07683 0.0
H1042 H 0.89753 0.01337 0.90851 0.0
H1043 H 0.89379 0.03082 0.94312 0.0
H1044 H 0.97742 0.99686 0.88508 0.0
H1045 H 0.02319 0.97728 0.89717 0.0
C1046 C 0.29737 0.23803 0.97181 0.0
C1047 C 0.28262 0.23318 0.01269 0.0
C1048 C 0.20864 0.26019 0.02147 0.0
C1049 C 0.22765 0.26566 0.98143 0.0
N1050 N 0.29648 0.26103 0.92 0.0
N1051 N 0.23353 0.24049 0.07832 0.0
C1052 C 0.27431 0.25499 0.95716 0.0
C1053 C 0.24034 0.24443 0.03799 0.0
N1054 N 0.33007 0.22602 0.94633 0.0
N1055 N 0.16055 0.27009 0.04388 0.0
H1056 H 0.256 0.22906 0.09141 0.0
H1057 H 0.21078 0.24912 0.09958 0.0
H1058 H 0.14067 0.28248 0.03477 0.0
H1059 H 0.13729 0.26568 0.07088 0.0
H1060 H 0.33512 0.2279 0.91519 0.0
H1061 H 0.34682 0.21335 0.95553 0.0
H1062 H 0.33767 0.25502 0.9031 0.0
H1063 H 0.27684 0.27276 0.90691 0.0
C1064 C 0.96058 0.73641 0.76504 0.0
C1065 C 0.97627 0.73063 0.72486 0.0
C1066 C 0.04122 0.75864 0.71154 0.0
C1067 C 0.03197 0.76354 0.75285 0.0
N1068 N 0.99209 0.75625 0.82046 0.0
N1069 N 0.03558 0.73532 0.66053 0.0
C1070 C 0.99366 0.75227 0.77999 0.0
C1071 C 0.01818 0.74144 0.69837 0.0
N1072 N 0.91402 0.72679 0.789 0.0
N1073 N 0.06872 0.77076 0.68451 0.0
H1074 H 0.01607 0.72328 0.64886 0.0
H1075 H 0.07245 0.74167 0.6414 0.0
H1076 H 0.08411 0.78366 0.69274 0.0
H1077 H 0.07026 0.76874 0.6533 0.0
H1078 H 0.89364 0.73144 0.81652 0.0
H1079 H 0.89174 0.71456 0.78049 0.0
H1080 H 0.97269 0.74752 0.84256 0.0
H1081 H 0.01593 0.76771 0.83259 0.0
C1082 C 0.71168 0.99348 0.71683 0.0
C1083 C 0.72729 0.98765 0.75703 0.0
C1084 C 0.80106 0.01453 0.76883 0.0
C1085 C 0.78434 0.02049 0.72888 0.0
N1086 N 0.7206 0.01671 0.66566 0.0
N1087 N 0.79256 0.99117 0.81985 0.0
C1088 C 0.73866 0.01026 0.70316 0.0
C1089 C 0.77395 0.99773 0.78254 0.0
N1090 N 0.67507 0.9824 0.69078 0.0
N1091 N 0.83862 0.02551 0.79462 0.0
H1092 H 0.76934 0.97969 0.83225 0.0
H1093 H 0.83351 0.99649 0.83799 0.0
H1094 H 0.85905 0.03795 0.78619 0.0
H1095 H 0.84552 0.02308 0.82541 0.0
H1096 H 0.66877 0.98481 0.65994 0.0
H1097 H 0.65557 0.96983 0.69888 0.0
H1098 H 0.67961 0.01141 0.64754 0.0
H1099 H 0.74456 0.02804 0.65295 0.0
C1100 C 0.74733 0.75387 0.95057 0.0
C1101 C 0.74373 0.76785 0.97944 0.0
C1102 C 0.79896 0.74837 0.0309 0.0
C1103 C 0.79479 0.7339 0.00336 0.0
N1104 N 0.76273 0.72217 0.93766 0.0
N1105 N 0.75947 0.77829 0.04824 0.0
C1106 C 0.76852 0.73646 0.96329 0.0
C1107 C 0.76851 0.76516 0.01984 0.0
N1108 N 0.73258 0.75744 0.91075 0.0
N1109 N 0.83283 0.74611 0.06746 0.0
H1110 H 0.73913 0.79093 0.04147 0.0
H1111 H 0.76734 0.77633 0.07917 0.0
H1112 H 0.85361 0.73384 0.07707 0.0
H1113 H 0.8452 0.75658 0.08703 0.0
H1114 H 0.74106 0.74838 0.88729 0.0
H1115 H 0.71766 0.77012 0.90054 0.0
H1116 H 0.73662 0.72266 0.9097 0.0
H1117 H 0.78034 0.70938 0.94535 0.0
C1118 C 0.31925 0.50886 0.77572 0.0
C1119 C 0.28114 0.51879 0.74569 0.0
C1120 C 0.1848 0.4961 0.745 0.0
C1121 C 0.22742 0.48516 0.77105 0.0
N1122 N 0.33899 0.48013 0.80788 0.0
N1123 N 0.18463 0.52024 0.69616 0.0
C1124 C 0.29605 0.4912 0.7852 0.0
C1125 C 0.21553 0.51203 0.72896 0.0
N1126 N 0.37482 0.51663 0.79699 0.0
N1127 N 0.11498 0.49134 0.73535 0.0
H1128 H 0.20679 0.53157 0.68248 0.0
H1129 H 0.14139 0.5148 0.67987 0.0
H1130 H 0.09084 0.47943 0.74463 0.0
H1131 H 0.07891 0.49986 0.72049 0.0
H1132 H 0.39955 0.51067 0.82196 0.0
H1133 H 0.39143 0.5298 0.79257 0.0
H1134 H 0.39311 0.48299 0.81488 0.0
H1135 H 0.322 0.46754 0.81761 0.0
C1136 C 0.93808 0.48649 0.49529 0.0
C1137 C 1.00084 0.48663 0.46994 0.0
C1138 C 0.01176 0.51901 0.47895 0.0
C1139 C 0.94506 0.51912 0.50082 0.0
N1140 N 0.83884 0.50339 0.52509 0.0
N1141 N 0.08761 0.5034 0.4304 0.0
C1142 C 0.90607 0.503 0.50721 0.0
C1143 C 0.03489 0.50302 0.45973 0.0
N1144 N 0.91187 0.47073 0.5104 0.0
N1145 N 0.05359 0.5341 0.47668 0.0
H1146 H 0.10417 0.49201 0.41464 0.0
H1147 H 0.10922 0.51519 0.41867 0.0
H1148 H 0.03818 0.54631 0.48919 0.0
H1149 H 0.10641 0.53417 0.46506 0.0
H1150 H 0.87164 0.47005 0.53265 0.0
H1151 H 0.93457 0.45832 0.50374 0.0
H1152 H 0.8042 0.49237 0.52604 0.0
H1153 H 0.81564 0.51503 0.53678 0.0
C1154 C 0.23111 0.74028 0.54231 0.0
C1155 C 0.27312 0.72941 0.51604 0.0
C1156 C 0.25343 0.75054 0.46007 0.0
C1157 C 0.21538 0.76198 0.48703 0.0
N1158 N 0.17718 0.76929 0.5552 0.0
N1159 N 0.33178 0.7247 0.45135 0.0
C1160 C 0.2064 0.75724 0.52854 0.0
C1161 C 0.2868 0.73474 0.47537 0.0
N1162 N 0.21465 0.73432 0.58043 0.0
N1163 N 0.2545 0.75433 0.4195 0.0
H1164 H 0.35419 0.71257 0.46057 0.0
H1165 H 0.35072 0.72885 0.42313 0.0
H1166 H 0.2302 0.7657 0.40719 0.0
H1167 H 0.27407 0.74558 0.39751 0.0
H1168 H 0.17779 0.74064 0.59961 0.0
H1169 H 0.23473 0.72238 0.59229 0.0
H1170 H 0.17686 0.76756 0.5865 0.0
H1171 H 0.15829 0.78185 0.54655 0.0
C1172 C 0.79167 0.48733 0.23457 0.0
C1173 C 0.7455 0.48761 0.2692 0.0
C1174 C 0.75602 0.52022 0.27251 0.0
C1175 C 0.79461 0.52011 0.2351 0.0
N1176 N 0.84244 0.50387 0.17789 0.0
N1177 N 0.67852 0.50414 0.31962 0.0
C1178 C 0.81135 0.50372 0.21561 0.0
C1179 C 0.72619 0.50402 0.28772 0.0
N1180 N 0.8162 0.4714 0.21953 0.0
N1181 N 0.75076 0.53565 0.29452 0.0
H1182 H 0.6594 0.49249 0.33336 0.0
H1183 H 0.65485 0.51574 0.33105 0.0
H1184 H 0.77258 0.54777 0.28489 0.0
H1185 H 0.73074 0.53616 0.32404 0.0
H1186 H 0.8562 0.47037 0.19725 0.0
H1187 H 0.8007 0.45905 0.23131 0.0
H1188 H 0.84838 0.49252 0.15995 0.0
H1189 H 0.85679 0.5156 0.16282 0.0
C1190 C 0.75751 0.24693 0.54173 0.0
C1191 C 0.79287 0.23545 0.51376 0.0
C1192 C 0.78286 0.25833 0.46066 0.0
C1193 C 0.74121 0.26901 0.48744 0.0
N1194 N 0.68229 0.27315 0.55228 0.0
N1195 N 0.82779 0.22875 0.44472 0.0
C1196 C 0.72646 0.26319 0.52764 0.0
C1197 C 0.803 0.24079 0.47273 0.0
N1198 N 0.75653 0.24268 0.58206 0.0
N1199 N 0.80309 0.26496 0.4237 0.0
H1200 H 0.84019 0.21554 0.45183 0.0
H1201 H 0.8294 0.23127 0.4137 0.0
H1202 H 0.78714 0.27755 0.41341 0.0
H1203 H 0.84025 0.25862 0.40463 0.0
H1204 H 0.73863 0.25137 0.6046 0.0
H1205 H 0.77959 0.231 0.59358 0.0
H1206 H 0.66211 0.26861 0.57993 0.0
H1207 H 0.66192 0.28564 0.54407 0.0
C1208 C 0.45607 0.2654 0.74415 0.0
C1209 C 0.5221 0.26589 0.76672 0.0
C1210 C 0.53585 0.23347 0.75851 0.0
C1211 C 0.46716 0.23281 0.73869 0.0
N1212 N 0.3573 0.2476 0.71674 0.0
N1213 N 0.6176 0.25021 0.80201 0.0
C1214 C 0.42577 0.24862 0.73294 0.0
C1215 C 0.56026 0.24987 0.77552 0.0
N1216 N 0.42423 0.28095 0.73145 0.0
N1217 N 0.57774 0.2184 0.76136 0.0
H1218 H 0.63561 0.26188 0.81609 0.0
H1219 H 0.64287 0.23878 0.81321 0.0
H1220 H 0.5605 0.20586 0.75162 0.0
H1221 H 0.63179 0.2185 0.77094 0.0
H1222 H 0.38145 0.28142 0.71077 0.0
H1223 H 0.44411 0.29359 0.73867 0.0
H1224 H 0.32061 0.25821 0.71675 0.0
H1225 H 0.33531 0.23579 0.70526 0.0
C1226 C 0.46318 0.01242 0.47066 0.0
C1227 C 0.47932 0.0187 0.51035 0.0
C1228 C 0.54984 0.99158 0.52397 0.0
C1229 C 0.53937 0.98605 0.4831 0.0
N1230 N 0.49603 0.99242 0.4157 0.0
N1231 N 0.54485 0.01558 0.57325 0.0
C1232 C 0.49828 0.99673 0.45597 0.0
C1233 C 0.52507 0.00871 0.53645 0.0
N1234 N 0.41447 0.02144 0.44689 0.0
N1235 N 0.57986 0.98006 0.55153 0.0
H1236 H 0.52434 0.02758 0.5846 0.0
H1237 H 0.58523 0.00999 0.59141 0.0
H1238 H 0.59684 0.96719 0.5442 0.0
H1239 H 0.58169 0.98256 0.58256 0.0
H1240 H 0.39395 0.01643 0.41977 0.0
H1241 H 0.39073 0.03354 0.45529 0.0
H1242 H 0.47416 0.00073 0.39352 0.0
H1243 H 0.52185 0.98119 0.40371 0.0
C1244 C 0.51805 0.74914 0.29474 0.0
C1245 C 0.49268 0.76501 0.27604 0.0
C1246 C 0.41152 0.74732 0.23242 0.0
C1247 C 0.44359 0.73143 0.24772 0.0
N1248 N 0.52982 0.71694 0.29231 0.0
N1249 N 0.42027 0.7794 0.22418 0.0
C1250 C 0.49776 0.73227 0.27847 0.0
C1251 C 0.43993 0.76421 0.24449 0.0
N1252 N 0.55898 0.75025 0.32931 0.0
N1253 N 0.35422 0.7463 0.20603 0.0
H1254 H 0.43895 0.79209 0.23175 0.0
H1255 H 0.38972 0.77937 0.19761 0.0
H1256 H 0.33562 0.7343 0.19375 0.0
H1257 H 0.32213 0.75722 0.19809 0.0
H1258 H 0.57324 0.73926 0.34694 0.0
H1259 H 0.57278 0.76239 0.3428 0.0
H1260 H 0.57618 0.71682 0.31047 0.0
H1261 H 0.51284 0.70419 0.28395 0.0
C1262 C 0.48185 0.48556 0.01318 0.0
C1263 C 0.53195 0.48475 0.98028 0.0
C1264 C 0.53798 0.51748 0.9787 0.0
C1265 C 0.48303 0.51823 0.00901 0.0
N1266 N 0.39489 0.50324 0.0513 0.0
N1267 N 0.59889 0.49971 0.92733 0.0
C1268 C 0.45231 0.50233 0.02491 0.0
C1269 C 0.55788 0.50067 0.96191 0.0
N1270 N 0.46593 0.4705 0.03498 0.0
N1271 N 0.57116 0.53285 0.96594 0.0
H1272 H 0.61309 0.48764 0.91364 0.0
H1273 H 0.61325 0.5108 0.91004 0.0
H1274 H 0.55605 0.54548 0.97618 0.0
H1275 H 0.61713 0.53304 0.94741 0.0
H1276 H 0.43665 0.47068 0.06204 0.0
H1277 H 0.48767 0.45797 0.02847 0.0
H1278 H 0.36435 0.49213 0.0599 0.0
H1279 H 0.37452 0.51526 0.06262 0.0
C1280 C 0.12414 0.33981 0.13822 0.0
C1281 C 0.16119 0.32583 0.15865 0.0
C1282 C 0.20694 0.31439 0.09404 0.0
C1283 C 0.16152 0.32675 0.07347 0.0
N1284 N 0.07408 0.35076 0.07486 0.0
N1285 N 0.22779 0.29792 0.15581 0.0
C1286 C 0.11933 0.33938 0.09525 0.0
C1287 C 0.20081 0.31273 0.13664 0.0
N1288 N 0.09547 0.35371 0.15989 0.0
N1289 N 0.25517 0.30398 0.07299 0.0
H1290 H 0.22325 0.2957 0.18687 0.0
H1291 H 0.24842 0.28688 0.14039 0.0
H1292 H 0.25931 0.30396 0.04152 0.0
H1293 H 0.29531 0.29631 0.08697 0.0
H1294 H 0.07368 0.36514 0.14662 0.0
H1295 H 0.09948 0.35457 0.19139 0.0
H1296 H 0.03549 0.35881 0.0891 0.0
H1297 H 0.07252 0.3515 0.04328 0.0
C1298 C 0.12359 0.90663 0.09079 0.0
C1299 C 0.1541 0.92134 0.06959 0.0
C1300 C 0.18773 0.93565 0.13353 0.0
C1301 C 0.15939 0.9207 0.15478 0.0
N1302 N 0.11184 0.89074 0.15475 0.0
N1303 N 0.22658 0.94836 0.06973 0.0
C1304 C 0.13067 0.90579 0.1337 0.0
C1305 C 0.19049 0.93527 0.09063 0.0
N1306 N 0.08711 0.89365 0.06988 0.0
N1307 N 0.20705 0.95078 0.15419 0.0
H1308 H 0.22568 0.94957 0.03829 0.0
H1309 H 0.26185 0.95743 0.08343 0.0
H1310 H 0.20478 0.95182 0.18561 0.0
H1311 H 0.21931 0.96289 0.14024 0.0
H1312 H 0.05635 0.88367 0.08367 0.0
H1313 H 0.08483 0.89331 0.03828 0.0
H1314 H 0.09686 0.87877 0.14108 0.0
H1315 H 0.11675 0.88978 0.1862 0.0
C1316 C 0.94696 0.68351 0.84396 0.0
C1317 C 0.90381 0.67092 0.82257 0.0
C1318 C 0.85924 0.6586 0.88671 0.0
C1319 C 0.89455 0.67272 0.90755 0.0
N1320 N 0.96019 0.70073 0.90534 0.0
N1321 N 0.81577 0.64701 0.82243 0.0
C1322 C 0.93598 0.68565 0.88614 0.0
C1323 C 0.85896 0.65859 0.84363 0.0
N1324 N 0.99774 0.69363 0.8241 0.0
N1325 N 0.82809 0.64494 0.90812 0.0
H1326 H 0.81771 0.64588 0.79092 0.0
H1327 H 0.77546 0.63919 0.83582 0.0
H1328 H 0.82854 0.64439 0.93973 0.0
H1329 H 0.80753 0.6334 0.89475 0.0
H1330 H 0.03619 0.70145 0.83911 0.0
H1331 H 0.00557 0.69331 0.79286 0.0
H1332 H 0.98268 0.71159 0.89004 0.0
H1333 H 0.95124 0.70333 0.93597 0.0
C1334 C 0.89469 0.09302 0.84514 0.0
C1335 C 0.84446 0.08255 0.82287 0.0
C1336 C 0.78877 0.07192 0.88593 0.0
C1337 C 0.84607 0.08017 0.90788 0.0
N1338 N 0.95297 0.09886 0.9098 0.0
N1339 N 0.74747 0.0606 0.82138 0.0
C1340 C 0.89866 0.09092 0.88788 0.0
C1341 C 0.79143 0.0719 0.84299 0.0
N1342 N 0.93729 0.10522 0.82532 0.0
N1343 N 0.73267 0.0637 0.90592 0.0
H1344 H 0.74715 0.05983 0.78989 0.0
H1345 H 0.71536 0.05073 0.83464 0.0
H1346 H 0.73056 0.06214 0.93724 0.0
H1347 H 0.68495 0.05957 0.89165 0.0
H1348 H 0.97065 0.11443 0.83993 0.0
H1349 H 0.93452 0.10718 0.79403 0.0
H1350 H 0.99819 0.10501 0.89681 0.0
H1351 H 0.95423 0.09872 0.94143 0.0
C1352 C 0.19173 0.81316 0.64217 0.0
C1353 C 0.14449 0.82501 0.6632 0.0
C1354 C 0.10166 0.83732 0.59872 0.0
C1355 C 0.15058 0.82583 0.57798 0.0
N1356 N 0.25604 0.80641 0.5802 0.0
N1357 N 0.06694 0.85099 0.66263 0.0
C1358 C 0.20075 0.81511 0.5998 0.0
C1359 C 0.10315 0.83793 0.64179 0.0
N1360 N 0.22323 0.79902 0.66181 0.0
N1361 N 0.05327 0.84745 0.5772 0.0
H1362 H 0.06828 0.85197 0.69418 0.0
H1363 H 0.04116 0.86176 0.64873 0.0
H1364 H 0.05433 0.84828 0.54562 0.0
H1365 H 0.01027 0.85441 0.59045 0.0
H1366 H 0.2504 0.78875 0.64676 0.0
H1367 H 0.21604 0.79633 0.69252 0.0
H1368 H 0.29865 0.80013 0.59545 0.0
H1369 H 0.2633 0.80662 0.54892 0.0
C1370 C 0.12295 0.44601 0.63992 0.0
C1371 C 0.12356 0.4294 0.66057 0.0
C1372 C 0.12429 0.41354 0.5956 0.0
C1373 C 0.116 0.43014 0.57552 0.0
N1374 N 0.09267 0.46186 0.57845 0.0
N1375 N 0.11606 0.39723 0.65907 0.0
C1376 C 0.11071 0.44629 0.59766 0.0
C1377 C 0.12213 0.41307 0.63872 0.0
N1378 N 0.13849 0.46147 0.66024 0.0
N1379 N 0.13539 0.39833 0.57348 0.0
H1380 H 0.11391 0.39643 0.69061 0.0
H1381 H 0.10749 0.38501 0.64478 0.0
H1382 H 0.13536 0.39823 0.54184 0.0
H1383 H 0.14958 0.38611 0.58631 0.0
H1384 H 0.14566 0.47374 0.64589 0.0
H1385 H 0.15259 0.46171 0.69081 0.0
H1386 H 0.08015 0.47361 0.59391 0.0
H1387 H 0.08345 0.46267 0.54735 0.0
C1388 C 0.95746 0.186 0.35663 0.0
C1389 C 0.91043 0.17438 0.33495 0.0
C1390 C 0.86721 0.1614 0.39867 0.0
C1391 C 0.90488 0.17498 0.42001 0.0
N1392 N 0.97932 0.20166 0.41948 0.0
N1393 N 0.82099 0.15077 0.3342 0.0
C1394 C 0.94934 0.1875 0.3992 0.0
C1395 C 0.86557 0.16193 0.35567 0.0
N1396 N 0.00911 0.19584 0.33673 0.0
N1397 N 0.83476 0.14778 0.41963 0.0
H1398 H 0.82263 0.14981 0.30265 0.0
H1399 H 0.78034 0.143 0.3474 0.0
H1400 H 0.83647 0.14685 0.45118 0.0
H1401 H 0.81196 0.13658 0.4059 0.0
H1402 H 0.05008 0.20289 0.35161 0.0
H1403 H 0.01521 0.19595 0.30536 0.0
H1404 H 0.0037 0.21247 0.40494 0.0
H1405 H 0.97442 0.20356 0.45064 0.0
C1406 C 0.84439 0.59561 0.38385 0.0
C1407 C 0.87636 0.5812 0.4053 0.0
C1408 C 0.906 0.56613 0.34172 0.0
C1409 C 0.87921 0.58113 0.32005 0.0
N1410 N 0.83184 0.61115 0.31954 0.0
N1411 N 0.94867 0.55419 0.40525 0.0
C1412 C 0.85075 0.59619 0.34085 0.0
C1413 C 0.91114 0.56701 0.38439 0.0
N1414 N 0.80736 0.60856 0.40458 0.0
N1415 N 0.92157 0.5505 0.32194 0.0
H1416 H 0.95046 0.55363 0.4367 0.0
H1417 H 0.98282 0.5449 0.39136 0.0
H1418 H 0.91656 0.54884 0.29076 0.0
H1419 H 0.93219 0.53851 0.33683 0.0
H1420 H 0.77601 0.61838 0.3906 0.0
H1421 H 0.80463 0.6089 0.43618 0.0
H1422 H 0.81721 0.62319 0.33308 0.0
H1423 H 0.8363 0.61197 0.28806 0.0
C1424 C 0.64239 0.34302 0.60615 0.0
C1425 C 0.6093 0.3294 0.58268 0.0
C1426 C 0.57018 0.31383 0.64407 0.0
C1427 C 0.60095 0.32776 0.66765 0.0
N1428 N 0.65483 0.35701 0.67226 0.0
N1429 N 0.52979 0.30367 0.57831 0.0
C1430 C 0.63361 0.34282 0.64899 0.0
C1431 C 0.56867 0.31551 0.60134 0.0
N1432 N 0.68325 0.35589 0.58746 0.0
N1433 N 0.5475 0.29837 0.66226 0.0
H1434 H 0.53047 0.30357 0.54675 0.0
H1435 H 0.49224 0.29472 0.59048 0.0
H1436 H 0.54948 0.29631 0.69343 0.0
H1437 H 0.53302 0.28689 0.64636 0.0
H1438 H 0.71572 0.36501 0.60297 0.0
H1439 H 0.68741 0.35692 0.55599 0.0
H1440 H 0.67294 0.3691 0.66037 0.0
H1441 H 0.64881 0.3572 0.70373 0.0
C1442 C 0.63541 0.91164 0.59709 0.0
C1443 C 0.67746 0.92441 0.57558 0.0
C1444 C 0.72675 0.93624 0.63902 0.0
C1445 C 0.68043 0.92434 0.66054 0.0
N1446 N 0.60667 0.89783 0.66188 0.0
N1447 N 0.77582 0.9459 0.57442 0.0
C1448 C 0.63985 0.91107 0.64003 0.0
C1449 C 0.728 0.93558 0.59601 0.0
N1450 N 0.59026 0.90035 0.57632 0.0
N1451 N 0.76526 0.94904 0.65946 0.0
H1452 H 0.77563 0.94685 0.54296 0.0
H1453 H 0.81958 0.95264 0.58739 0.0
H1454 H 0.76801 0.94975 0.69093 0.0
H1455 H 0.79147 0.95973 0.64551 0.0
H1456 H 0.55144 0.8922 0.58999 0.0
H1457 H 0.59041 0.89945 0.54474 0.0
H1458 H 0.58054 0.88688 0.64902 0.0
H1459 H 0.61061 0.89702 0.6934 0.0
C1460 C 0.29944 0.67815 0.40318 0.0
C1461 C 0.34893 0.667 0.42435 0.0
C1462 C 0.39694 0.65561 0.36011 0.0
C1463 C 0.35437 0.66847 0.33929 0.0
N1464 N 0.27454 0.6942 0.34125 0.0
N1465 N 0.44754 0.64575 0.42429 0.0
C1466 C 0.30733 0.6802 0.36075 0.0
C1467 C 0.39842 0.65584 0.40318 0.0
N1468 N 0.24569 0.68709 0.42358 0.0
N1469 N 0.43437 0.64295 0.33865 0.0
H1470 H 0.44725 0.64489 0.45587 0.0
H1471 H 0.49072 0.63897 0.41076 0.0
H1472 H 0.43353 0.64232 0.30706 0.0
H1473 H 0.46109 0.63218 0.35201 0.0
H1474 H 0.20318 0.69374 0.40909 0.0
H1475 H 0.2397 0.68674 0.45496 0.0
H1476 H 0.24744 0.70446 0.35634 0.0
H1477 H 0.28009 0.69667 0.31033 0.0
C1478 C 0.44389 0.06648 0.39351 0.0
C1479 C 0.39985 0.07909 0.41419 0.0
C1480 C 0.35546 0.09071 0.34939 0.0
C1481 C 0.39135 0.07644 0.32929 0.0
N1482 N 0.45807 0.04858 0.33322 0.0
N1483 N 0.31051 0.10266 0.41311 0.0
C1484 C 0.43324 0.06384 0.35147 0.0
C1485 C 0.35474 0.0911 0.39249 0.0
N1486 N 0.49516 0.05679 0.41403 0.0
N1487 N 0.32392 0.10407 0.32727 0.0
H1488 H 0.31169 0.1039 0.44462 0.0
H1489 H 0.27018 0.1103 0.39927 0.0
H1490 H 0.32468 0.1043 0.29564 0.0
H1491 H 0.30276 0.11568 0.34007 0.0
H1492 H 0.53391 0.04884 0.39958 0.0
H1493 H 0.50333 0.05779 0.44517 0.0
H1494 H 0.48114 0.038 0.3492 0.0
H1495 H 0.44894 0.04552 0.30284 0.0
C1496 C 0.59771 0.80542 0.10702 0.0
C1497 C 0.61068 0.82177 0.08648 0.0
C1498 C 0.62072 0.8376 0.15121 0.0
C1499 C 0.60336 0.82146 0.17146 0.0
N1500 N 0.56588 0.79057 0.1697 0.0
N1501 N 0.62553 0.85375 0.08738 0.0
C1502 C 0.58895 0.80554 0.14964 0.0
C1503 C 0.61991 0.83799 0.10811 0.0
N1504 N 0.59746 0.78964 0.08602 0.0
N1505 N 0.63974 0.85235 0.17323 0.0
H1506 H 0.62537 0.85444 0.05579 0.0
H1507 H 0.62511 0.86624 0.10122 0.0
H1508 H 0.63892 0.85258 0.20486 0.0
H1509 H 0.66064 0.86399 0.16047 0.0
H1510 H 0.59741 0.77714 0.09985 0.0
H1511 H 0.60355 0.78882 0.05466 0.0
H1512 H 0.54522 0.7793 0.15523 0.0
H1513 H 0.56239 0.78982 0.20116 0.0
C1514 C 0.60842 0.41281 0.10539 0.0
C1515 C 0.62143 0.4286 0.08273 0.0
C1516 C 0.64085 0.44559 0.14508 0.0
C1517 C 0.62433 0.43006 0.16786 0.0
N1518 N 0.58293 0.39958 0.17125 0.0
N1519 N 0.63281 0.46076 0.08066 0.0
C1520 C 0.605 0.41385 0.14846 0.0
C1521 C 0.63304 0.4452 0.10245 0.0
N1522 N 0.60215 0.39678 0.0858 0.0
N1523 N 0.66502 0.46071 0.16413 0.0
H1524 H 0.62588 0.46119 0.04937 0.0
H1525 H 0.63224 0.47339 0.09389 0.0
H1526 H 0.66774 0.46196 0.19553 0.0
H1527 H 0.68723 0.47159 0.14881 0.0
H1528 H 0.59998 0.38452 0.1006 0.0
H1529 H 0.60413 0.39561 0.0543 0.0
H1530 H 0.56111 0.38794 0.159 0.0
H1531 H 0.58187 0.39984 0.20288 0.0
C1532 C 0.36931 0.1558 0.85965 0.0
C1533 C 0.40572 0.16995 0.83955 0.0
C1534 C 0.44259 0.18271 0.90465 0.0
C1535 C 0.39797 0.16995 0.9246 0.0
N1536 N 0.31723 0.1446 0.92242 0.0
N1537 N 0.46966 0.1982 0.84221 0.0
C1538 C 0.36108 0.15648 0.90248 0.0
C1539 C 0.44159 0.1836 0.86178 0.0
N1540 N 0.344 0.1416 0.83771 0.0
N1541 N 0.48471 0.1943 0.92656 0.0
H1542 H 0.47011 0.19962 0.81085 0.0
H1543 H 0.48729 0.20969 0.85703 0.0
H1544 H 0.48337 0.19523 0.95804 0.0
H1545 H 0.52522 0.20222 0.91366 0.0
H1546 H 0.32256 0.13007 0.85067 0.0
H1547 H 0.35015 0.14072 0.80631 0.0
H1548 H 0.28217 0.13576 0.90785 0.0
H1549 H 0.3134 0.14413 0.95398 0.0
C1550 C 0.49012 0.57792 0.89633 0.0
C1551 C 0.43666 0.58681 0.91993 0.0
C1552 C 0.37462 0.59639 0.8579 0.0
C1553 C 0.41745 0.584 0.83586 0.0
N1554 N 0.51456 0.56219 0.83376 0.0
N1555 N 0.33512 0.60706 0.9239 0.0
C1556 C 0.47586 0.5748 0.85471 0.0
C1557 C 0.38153 0.59705 0.90076 0.0
N1558 N 0.55424 0.57251 0.91334 0.0
N1559 N 0.32815 0.60754 0.83767 0.0
H1560 H 0.34351 0.60901 0.95489 0.0
H1561 H 0.28812 0.61312 0.91284 0.0
H1562 H 0.32305 0.60741 0.80616 0.0
H1563 H 0.29918 0.61784 0.85142 0.0
H1564 H 0.59703 0.56708 0.8966 0.0
H1565 H 0.56891 0.57558 0.94296 0.0
H1566 H 0.55126 0.55348 0.84752 0.0
H1567 H 0.50597 0.55939 0.80318 0.0
loop_
_geom_bond_atom_site_label_1
_geom_bond_atom_site_label_2
_geom_bond_distance
_geom_bond_site_symmetry_2
_ccdc_geom_bond_type
In0 O1 2.294 . S
In0 O2 2.326 . S
In0 O6 2.266 . S
In0 O7 2.326 . S
In0 O8 2.266 . S
In0 O9 2.326 . S
In0 O11 2.294 . S
In0 O12 2.326 . S
O1 In0 2.294 . S
O1 C10 1.240 . S
O2 In0 2.326 . S
O2 C10 1.252 . S
C3 O6 1.252 . S
C3 O7 1.260 . S
C4 O11 1.240 . S
C4 O12 1.252 . S
C5 O8 1.252 . S
C5 O9 1.260 . S
O6 In0 2.266 . S
O6 C3 1.252 . S
O7 In0 2.326 . S
O7 C3 1.260 . S
O8 In0 2.266 . S
O8 C5 1.252 . S
O9 In0 2.326 . S
O9 C5 1.260 . S
C10 O1 1.240 . S
C10 O2 1.252 . S
O11 In0 2.294 . S
O11 C4 1.240 . S
O12 In0 2.326 . S
O12 C4 1.252 . S
In13 O14 2.294 . S
In13 O15 2.326 . S
In13 O19 2.266 . S
In13 O20 2.326 . S
In13 O21 2.266 . S
In13 O22 2.326 . S
In13 O24 2.294 . S
In13 O25 2.326 . S
O14 In13 2.294 . S
O14 C23 1.240 . S
O15 In13 2.326 . S
O15 C23 1.252 . S
C16 O19 1.252 . S
C16 O20 1.260 . S
C17 O24 1.240 . S
C17 O25 1.252 . S
C18 O21 1.252 . S
C18 O22 1.260 . S
O19 In13 2.266 . S
O19 C16 1.252 . S
O20 In13 2.326 . S
O20 C16 1.260 . S
O21 In13 2.266 . S
O21 C18 1.252 . S
O22 In13 2.326 . S
O22 C18 1.260 . S
C23 O14 1.240 . S
C23 O15 1.252 . S
O24 In13 2.294 . S
O24 C17 1.240 . S
O25 In13 2.326 . S
O25 C17 1.252 . S
In26 O27 2.294 . S
In26 O28 2.326 . S
In26 O32 2.266 . S
In26 O33 2.326 . S
In26 O34 2.266 1_556 S
In26 O35 2.326 1_556 S
In26 O37 2.294 . S
In26 O38 2.326 . S
O27 In26 2.294 . S
O27 C36 1.240 . S
O28 In26 2.326 . S
O28 C36 1.252 . S
C29 O32 1.252 . S
C29 O33 1.260 . S
C30 O37 1.240 . S
C30 O38 1.252 . S
C31 O34 1.252 . S
C31 O35 1.260 . S
O32 In26 2.266 . S
O32 C29 1.252 . S
O33 In26 2.326 . S
O33 C29 1.260 . S
O34 In26 2.266 1_554 S
O34 C31 1.252 . S
O35 In26 2.326 1_554 S
O35 C31 1.260 . S
C36 O27 1.240 . S
C36 O28 1.252 . S
O37 In26 2.294 . S
O37 C30 1.240 . S
O38 In26 2.326 . S
O38 C30 1.252 . S
In39 O40 2.294 . S
In39 O41 2.326 . S
In39 O45 2.266 1_556 S
In39 O46 2.326 1_556 S
In39 O47 2.266 . S
In39 O48 2.326 . S
In39 O50 2.294 . S
In39 O51 2.326 . S
O40 In39 2.294 . S
O40 C49 1.240 . S
O41 In39 2.326 . S
O41 C49 1.252 . S
C42 O45 1.252 . S
C42 O46 1.260 . S
C43 O50 1.240 . S
C43 O51 1.252 . S
C44 O47 1.252 . S
C44 O48 1.260 . S
O45 In39 2.266 1_554 S
O45 C42 1.252 . S
O46 In39 2.326 1_554 S
O46 C42 1.260 . S
O47 In39 2.266 . S
O47 C44 1.252 . S
O48 In39 2.326 . S
O48 C44 1.260 . S
C49 O40 1.240 . S
C49 O41 1.252 . S
O50 In39 2.294 . S
O50 C43 1.240 . S
O51 In39 2.326 . S
O51 C43 1.252 . S
In52 O53 2.294 . S
In52 O54 2.326 . S
In52 O58 2.266 . S
In52 O59 2.326 . S
In52 O60 2.266 . S
In52 O61 2.326 . S
In52 O63 2.294 . S
In52 O64 2.326 . S
O53 In52 2.294 . S
O53 C62 1.240 . S
O54 In52 2.326 . S
O54 C62 1.252 . S
C55 O58 1.252 . S
C55 O59 1.260 . S
C56 O63 1.240 . S
C56 O64 1.252 . S
C57 O60 1.252 . S
C57 O61 1.260 . S
O58 In52 2.266 . S
O58 C55 1.252 . S
O59 In52 2.326 . S
O59 C55 1.260 . S
O60 In52 2.266 . S
O60 C57 1.252 . S
O61 In52 2.326 . S
O61 C57 1.260 . S
C62 O53 1.240 . S
C62 O54 1.252 . S
O63 In52 2.294 . S
O63 C56 1.240 . S
O64 In52 2.326 . S
O64 C56 1.252 . S
In65 O66 2.294 . S
In65 O67 2.326 . S
In65 O71 2.266 . S
In65 O72 2.326 . S
In65 O73 2.266 . S
In65 O74 2.326 . S
In65 O76 2.294 . S
In65 O77 2.326 . S
O66 In65 2.294 . S
O66 C75 1.240 . S
O67 In65 2.326 . S
O67 C75 1.252 . S
C68 O71 1.252 . S
C68 O72 1.260 . S
C69 O76 1.240 . S
C69 O77 1.252 . S
C70 O73 1.252 . S
C70 O74 1.260 . S
O71 In65 2.266 . S
O71 C68 1.252 . S
O72 In65 2.326 . S
O72 C68 1.260 . S
O73 In65 2.266 . S
O73 C70 1.252 . S
O74 In65 2.326 . S
O74 C70 1.260 . S
C75 O66 1.240 . S
C75 O67 1.252 . S
O76 In65 2.294 . S
O76 C69 1.240 . S
O77 In65 2.326 . S
O77 C69 1.252 . S
In78 O79 2.294 . S
In78 O80 2.326 . S
In78 O84 2.266 1_554 S
In78 O85 2.326 1_554 S
In78 O86 2.266 . S
In78 O87 2.326 . S
In78 O89 2.294 . S
In78 O90 2.326 . S
O79 In78 2.294 . S
O79 C88 1.240 . S
O80 In78 2.326 . S
O80 C88 1.252 . S
C81 O84 1.252 . S
C81 O85 1.260 . S
C82 O89 1.240 . S
C82 O90 1.252 . S
C83 O86 1.252 . S
C83 O87 1.260 . S
O84 In78 2.266 1_556 S
O84 C81 1.252 . S
O85 In78 2.326 1_556 S
O85 C81 1.260 . S
O86 In78 2.266 . S
O86 C83 1.252 . S
O87 In78 2.326 . S
O87 C83 1.260 . S
C88 O79 1.240 . S
C88 O80 1.252 . S
O89 In78 2.294 . S
O89 C82 1.240 . S
O90 In78 2.326 . S
O90 C82 1.252 . S
In91 O92 2.294 . S
In91 O93 2.326 . S
In91 O97 2.266 1_554 S
In91 O98 2.326 1_554 S
In91 O99 2.266 . S
In91 O100 2.326 . S
In91 O102 2.294 . S
In91 O103 2.326 . S
O92 In91 2.294 . S
O92 C101 1.240 . S
O93 In91 2.326 . S
O93 C101 1.252 . S
C94 O97 1.252 . S
C94 O98 1.260 . S
C95 O102 1.240 . S
C95 O103 1.252 . S
C96 O99 1.252 . S
C96 O100 1.260 . S
O97 In91 2.266 1_556 S
O97 C94 1.252 . S
O98 In91 2.326 1_556 S
O98 C94 1.260 . S
O99 In91 2.266 . S
O99 C96 1.252 . S
O100 In91 2.326 . S
O100 C96 1.260 . S
C101 O92 1.240 . S
C101 O93 1.252 . S
O102 In91 2.294 . S
O102 C95 1.240 . S
O103 In91 2.326 . S
O103 C95 1.252 . S
In104 O105 2.294 . S
In104 O106 2.326 . S
In104 O110 2.266 . S
In104 O111 2.326 . S
In104 O112 2.266 . S
In104 O113 2.326 . S
In104 O115 2.294 . S
In104 O116 2.326 . S
O105 In104 2.294 . S
O105 C114 1.240 . S
O106 In104 2.326 . S
O106 C114 1.252 . S
C107 O110 1.252 . S
C107 O111 1.260 . S
C108 O115 1.240 . S
C108 O116 1.252 . S
C109 O112 1.252 . S
C109 O113 1.260 . S
O110 In104 2.266 . S
O110 C107 1.252 . S
O111 In104 2.326 . S
O111 C107 1.260 . S
O112 In104 2.266 . S
O112 C109 1.252 . S
O113 In104 2.326 . S
O113 C109 1.260 . S
C114 O105 1.240 . S
C114 O106 1.252 . S
O115 In104 2.294 . S
O115 C108 1.240 . S
O116 In104 2.326 . S
O116 C108 1.252 . S
In117 O118 2.294 . S
In117 O119 2.326 . S
In117 O123 2.266 . S
In117 O124 2.326 . S
In117 O125 2.266 . S
In117 O126 2.326 . S
In117 O128 2.294 . S
In117 O129 2.326 . S
O118 In117 2.294 . S
O118 C127 1.240 . S
O119 In117 2.326 . S
O119 C127 1.252 . S
C120 O123 1.252 . S
C120 O124 1.260 . S
C121 O128 1.240 . S
C121 O129 1.252 . S
C122 O125 1.252 . S
C122 O126 1.260 . S
O123 In117 2.266 . S
O123 C120 1.252 . S
O124 In117 2.326 . S
O124 C120 1.260 . S
O125 In117 2.266 . S
O125 C122 1.252 . S
O126 In117 2.326 . S
O126 C122 1.260 . S
C127 O118 1.240 . S
C127 O119 1.252 . S
O128 In117 2.294 . S
O128 C121 1.240 . S
O129 In117 2.326 . S
O129 C121 1.252 . S
In130 O131 2.294 . S
In130 O132 2.326 . S
In130 O136 2.266 . S
In130 O137 2.326 . S
In130 O138 2.266 . S
In130 O139 2.326 . S
In130 O141 2.294 . S
In130 O142 2.326 . S
O131 In130 2.294 . S
O131 C140 1.240 . S
O132 In130 2.326 . S
O132 C140 1.252 . S
C133 O136 1.252 . S
C133 O137 1.260 . S
C134 O141 1.240 . S
C134 O142 1.252 . S
C135 O138 1.252 . S
C135 O139 1.260 . S
O136 In130 2.266 . S
O136 C133 1.252 . S
O137 In130 2.326 . S
O137 C133 1.260 . S
O138 In130 2.266 . S
O138 C135 1.252 . S
O139 In130 2.326 . S
O139 C135 1.260 . S
C140 O131 1.240 . S
C140 O132 1.252 . S
O141 In130 2.294 . S
O141 C134 1.240 . S
O142 In130 2.326 . S
O142 C134 1.252 . S
In143 O144 2.294 . S
In143 O145 2.326 . S
In143 O149 2.266 . S
In143 O150 2.326 . S
In143 O151 2.266 . S
In143 O152 2.326 . S
In143 O154 2.294 . S
In143 O155 2.326 . S
O144 In143 2.294 . S
O144 C153 1.240 . S
O145 In143 2.326 . S
O145 C153 1.252 . S
C146 O149 1.252 . S
C146 O150 1.260 . S
C147 O154 1.240 . S
C147 O155 1.252 . S
C148 O151 1.252 . S
C148 O152 1.260 . S
O149 In143 2.266 . S
O149 C146 1.252 . S
O150 In143 2.326 . S
O150 C146 1.260 . S
O151 In143 2.266 . S
O151 C148 1.252 . S
O152 In143 2.326 . S
O152 C148 1.260 . S
C153 O144 1.240 . S
C153 O145 1.252 . S
O154 In143 2.294 . S
O154 C147 1.240 . S
O155 In143 2.326 . S
O155 C147 1.252 . S
In156 O157 2.294 . S
In156 O158 2.326 . S
In156 O162 2.266 . S
In156 O163 2.326 . S
In156 O164 2.266 . S
In156 O165 2.326 . S
In156 O167 2.294 . S
In156 O168 2.326 . S
O157 In156 2.294 . S
O157 C166 1.240 . S
O158 In156 2.326 . S
O158 C166 1.252 . S
C159 O162 1.252 . S
C159 O163 1.260 . S
C160 O167 1.240 . S
C160 O168 1.252 . S
C161 O164 1.252 . S
C161 O165 1.260 . S
O162 In156 2.266 . S
O162 C159 1.252 . S
O163 In156 2.326 . S
O163 C159 1.260 . S
O164 In156 2.266 . S
O164 C161 1.252 . S
O165 In156 2.326 . S
O165 C161 1.260 . S
C166 O157 1.240 . S
C166 O158 1.252 . S
O167 In156 2.294 . S
O167 C160 1.240 . S
O168 In156 2.326 . S
O168 C160 1.252 . S
In169 O170 2.294 . S
In169 O171 2.326 . S
In169 O175 2.266 . S
In169 O176 2.326 . S
In169 O177 2.266 . S
In169 O178 2.326 . S
In169 O180 2.294 . S
In169 O181 2.326 . S
O170 In169 2.294 . S
O170 C179 1.240 . S
O171 In169 2.326 . S
O171 C179 1.252 . S
C172 O175 1.252 . S
C172 O176 1.260 . S
C173 O180 1.240 . S
C173 O181 1.252 . S
C174 O177 1.252 . S
C174 O178 1.260 . S
O175 In169 2.266 . S
O175 C172 1.252 . S
O176 In169 2.326 . S
O176 C172 1.260 . S
O177 In169 2.266 . S
O177 C174 1.252 . S
O178 In169 2.326 . S
O178 C174 1.260 . S
C179 O170 1.240 . S
C179 O171 1.252 . S
O180 In169 2.294 . S
O180 C173 1.240 . S
O181 In169 2.326 . S
O181 C173 1.252 . S
In182 O183 2.294 . S
In182 O184 2.326 . S
In182 O188 2.266 . S
In182 O189 2.326 . S
In182 O190 2.266 . S
In182 O191 2.326 . S
In182 O193 2.294 . S
In182 O194 2.326 . S
O183 In182 2.294 . S
O183 C192 1.240 . S
O184 In182 2.326 . S
O184 C192 1.252 . S
C185 O188 1.252 . S
C185 O189 1.260 . S
C186 O193 1.240 . S
C186 O194 1.252 . S
C187 O190 1.252 . S
C187 O191 1.260 . S
O188 In182 2.266 . S
O188 C185 1.252 . S
O189 In182 2.326 . S
O189 C185 1.260 . S
O190 In182 2.266 . S
O190 C187 1.252 . S
O191 In182 2.326 . S
O191 C187 1.260 . S
C192 O183 1.240 . S
C192 O184 1.252 . S
O193 In182 2.294 . S
O193 C186 1.240 . S
O194 In182 2.326 . S
O194 C186 1.252 . S
In195 O196 2.294 . S
In195 O197 2.326 . S
In195 O201 2.266 . S
In195 O202 2.326 . S
In195 O203 2.266 . S
In195 O204 2.326 . S
In195 O206 2.294 . S
In195 O207 2.326 . S
O196 In195 2.294 . S
O196 C205 1.240 . S
O197 In195 2.326 . S
O197 C205 1.252 . S
C198 O201 1.252 . S
C198 O202 1.260 . S
C199 O206 1.240 . S
C199 O207 1.252 . S
C200 O203 1.252 . S
C200 O204 1.260 . S
O201 In195 2.266 . S
O201 C198 1.252 . S
O202 In195 2.326 . S
O202 C198 1.260 . S
O203 In195 2.266 . S
O203 C200 1.252 . S
O204 In195 2.326 . S
O204 C200 1.260 . S
C205 O196 1.240 . S
C205 O197 1.252 . S
O206 In195 2.294 . S
O206 C199 1.240 . S
O207 In195 2.326 . S
O207 C199 1.252 . S
In208 O209 2.294 . S
In208 O210 2.326 . S
In208 O214 2.266 . S
In208 O215 2.326 . S
In208 O216 2.266 . S
In208 O217 2.326 . S
In208 O219 2.294 . S
In208 O220 2.326 . S
O209 In208 2.294 . S
O209 C218 1.240 . S
O210 In208 2.326 . S
O210 C218 1.252 . S
C211 O214 1.252 . S
C211 O215 1.260 . S
C212 O219 1.240 . S
C212 O220 1.252 . S
C213 O216 1.252 . S
C213 O217 1.260 . S
O214 In208 2.266 . S
O214 C211 1.252 . S
O215 In208 2.326 . S
O215 C211 1.260 . S
O216 In208 2.266 . S
O216 C213 1.252 . S
O217 In208 2.326 . S
O217 C213 1.260 . S
C218 O209 1.240 . S
C218 O210 1.252 . S
O219 In208 2.294 . S
O219 C212 1.240 . S
O220 In208 2.326 . S
O220 C212 1.252 . S
In221 O222 2.294 . S
In221 O223 2.326 . S
In221 O227 2.266 . S
In221 O228 2.326 . S
In221 O229 2.266 . S
In221 O230 2.326 . S
In221 O232 2.294 . S
In221 O233 2.326 . S
O222 In221 2.294 . S
O222 C231 1.240 . S
O223 In221 2.326 . S
O223 C231 1.252 . S
C224 O227 1.252 . S
C224 O228 1.260 . S
C225 O232 1.240 . S
C225 O233 1.252 . S
C226 O229 1.252 . S
C226 O230 1.260 . S
O227 In221 2.266 . S
O227 C224 1.252 . S
O228 In221 2.326 . S
O228 C224 1.260 . S
O229 In221 2.266 . S
O229 C226 1.252 . S
O230 In221 2.326 . S
O230 C226 1.260 . S
C231 O222 1.240 . S
C231 O223 1.252 . S
O232 In221 2.294 . S
O232 C225 1.240 . S
O233 In221 2.326 . S
O233 C225 1.252 . S
In234 O235 2.294 . S
In234 O236 2.326 . S
In234 O240 2.266 . S
In234 O241 2.326 . S
In234 O242 2.266 . S
In234 O243 2.326 . S
In234 O245 2.294 . S
In234 O246 2.326 . S
O235 In234 2.294 . S
O235 C244 1.240 . S
O236 In234 2.326 . S
O236 C244 1.252 . S
C237 O240 1.252 . S
C237 O241 1.260 . S
C238 O245 1.240 . S
C238 O246 1.252 . S
C239 O242 1.252 . S
C239 O243 1.260 . S
O240 In234 2.266 . S
O240 C237 1.252 . S
O241 In234 2.326 . S
O241 C237 1.260 . S
O242 In234 2.266 . S
O242 C239 1.252 . S
O243 In234 2.326 . S
O243 C239 1.260 . S
C244 O235 1.240 . S
C244 O236 1.252 . S
O245 In234 2.294 . S
O245 C238 1.240 . S
O246 In234 2.326 . S
O246 C238 1.252 . S
In247 O248 2.294 . S
In247 O249 2.326 . S
In247 O253 2.266 . S
In247 O254 2.326 . S
In247 O255 2.266 . S
In247 O256 2.326 . S
In247 O258 2.294 . S
In247 O259 2.326 . S
O248 In247 2.294 . S
O248 C257 1.240 . S
O249 In247 2.326 . S
O249 C257 1.252 . S
C250 O253 1.252 . S
C250 O254 1.260 . S
C251 O258 1.240 . S
C251 O259 1.252 . S
C252 O255 1.252 . S
C252 O256 1.260 . S
O253 In247 2.266 . S
O253 C250 1.252 . S
O254 In247 2.326 . S
O254 C250 1.260 . S
O255 In247 2.266 . S
O255 C252 1.252 . S
O256 In247 2.326 . S
O256 C252 1.260 . S
C257 O248 1.240 . S
C257 O249 1.252 . S
O258 In247 2.294 . S
O258 C251 1.240 . S
O259 In247 2.326 . S
O259 C251 1.252 . S
In260 O261 2.294 . S
In260 O262 2.326 . S
In260 O266 2.266 . S
In260 O267 2.326 . S
In260 O268 2.266 . S
In260 O269 2.326 . S
In260 O271 2.294 . S
In260 O272 2.326 . S
O261 In260 2.294 . S
O261 C270 1.240 . S
O262 In260 2.326 . S
O262 C270 1.252 . S
C263 O266 1.252 . S
C263 O267 1.260 . S
C264 O271 1.240 . S
C264 O272 1.252 . S
C265 O268 1.252 . S
C265 O269 1.260 . S
O266 In260 2.266 . S
O266 C263 1.252 . S
O267 In260 2.326 . S
O267 C263 1.260 . S
O268 In260 2.266 . S
O268 C265 1.252 . S
O269 In260 2.326 . S
O269 C265 1.260 . S
C270 O261 1.240 . S
C270 O262 1.252 . S
O271 In260 2.294 . S
O271 C264 1.240 . S
O272 In260 2.326 . S
O272 C264 1.252 . S
In273 O274 2.294 . S
In273 O275 2.326 . S
In273 O279 2.266 . S
In273 O280 2.326 . S
In273 O281 2.266 . S
In273 O282 2.326 . S
In273 O284 2.294 . S
In273 O285 2.326 . S
O274 In273 2.294 . S
O274 C283 1.240 . S
O275 In273 2.326 . S
O275 C283 1.252 . S
C276 O279 1.252 . S
C276 O280 1.260 . S
C277 O284 1.240 . S
C277 O285 1.252 . S
C278 O281 1.252 . S
C278 O282 1.260 . S
O279 In273 2.266 . S
O279 C276 1.252 . S
O280 In273 2.326 . S
O280 C276 1.260 . S
O281 In273 2.266 . S
O281 C278 1.252 . S
O282 In273 2.326 . S
O282 C278 1.260 . S
C283 O274 1.240 . S
C283 O275 1.252 . S
O284 In273 2.294 . S
O284 C277 1.240 . S
O285 In273 2.326 . S
O285 C277 1.252 . S
In286 O287 2.294 . S
In286 O288 2.326 . S
In286 O292 2.266 . S
In286 O293 2.326 . S
In286 O294 2.266 . S
In286 O295 2.326 . S
In286 O297 2.294 . S
In286 O298 2.326 . S
O287 In286 2.294 . S
O287 C296 1.240 . S
O288 In286 2.326 . S
O288 C296 1.252 . S
C289 O292 1.252 . S
C289 O293 1.260 . S
C290 O297 1.240 . S
C290 O298 1.252 . S
C291 O294 1.252 . S
C291 O295 1.260 . S
O292 In286 2.266 . S
O292 C289 1.252 . S
O293 In286 2.326 . S
O293 C289 1.260 . S
O294 In286 2.266 . S
O294 C291 1.252 . S
O295 In286 2.326 . S
O295 C291 1.260 . S
C296 O287 1.240 . S
C296 O288 1.252 . S
O297 In286 2.294 . S
O297 C290 1.240 . S
O298 In286 2.326 . S
O298 C290 1.252 . S
In299 O300 2.294 . S
In299 O301 2.326 . S
In299 O305 2.266 . S
In299 O306 2.326 . S
In299 O307 2.266 . S
In299 O308 2.326 . S
In299 O310 2.294 . S
In299 O311 2.326 . S
O300 In299 2.294 . S
O300 C309 1.240 . S
O301 In299 2.326 . S
O301 C309 1.252 . S
C302 O305 1.252 . S
C302 O306 1.260 . S
C303 O310 1.240 . S
C303 O311 1.252 . S
C304 O307 1.252 . S
C304 O308 1.260 . S
O305 In299 2.266 . S
O305 C302 1.252 . S
O306 In299 2.326 . S
O306 C302 1.260 . S
O307 In299 2.266 . S
O307 C304 1.252 . S
O308 In299 2.326 . S
O308 C304 1.260 . S
C309 O300 1.240 . S
C309 O301 1.252 . S
O310 In299 2.294 . S
O310 C303 1.240 . S
O311 In299 2.326 . S
O311 C303 1.252 . S
In312 O313 2.294 . S
In312 O314 2.326 . S
In312 O318 2.266 . S
In312 O319 2.326 . S
In312 O320 2.266 . S
In312 O321 2.326 . S
In312 O323 2.294 . S
In312 O324 2.326 . S
O313 In312 2.294 . S
O313 C322 1.240 . S
O314 In312 2.326 . S
O314 C322 1.252 . S
C315 O318 1.252 . S
C315 O319 1.260 . S
C316 O323 1.240 . S
C316 O324 1.252 . S
C317 O320 1.252 . S
C317 O321 1.260 . S
O318 In312 2.266 . S
O318 C315 1.252 . S
O319 In312 2.326 . S
O319 C315 1.260 . S
O320 In312 2.266 . S
O320 C317 1.252 . S
O321 In312 2.326 . S
O321 C317 1.260 . S
C322 O313 1.240 . S
C322 O314 1.252 . S
O323 In312 2.294 . S
O323 C316 1.240 . S
O324 In312 2.326 . S
O324 C316 1.252 . S
In325 O326 2.294 . S
In325 O327 2.326 . S
In325 O331 2.266 . S
In325 O332 2.326 . S
In325 O333 2.266 . S
In325 O334 2.326 . S
In325 O336 2.294 . S
In325 O337 2.326 . S
O326 In325 2.294 . S
O326 C335 1.240 . S
O327 In325 2.326 . S
O327 C335 1.252 . S
C328 O331 1.252 . S
C328 O332 1.260 . S
C329 O336 1.240 . S
C329 O337 1.252 . S
C330 O333 1.252 . S
C330 O334 1.260 . S
O331 In325 2.266 . S
O331 C328 1.252 . S
O332 In325 2.326 . S
O332 C328 1.260 . S
O333 In325 2.266 . S
O333 C330 1.252 . S
O334 In325 2.326 . S
O334 C330 1.260 . S
C335 O326 1.240 . S
C335 O327 1.252 . S
O336 In325 2.294 . S
O336 C329 1.240 . S
O337 In325 2.326 . S
O337 C329 1.252 . S
In338 O339 2.294 . S
In338 O340 2.326 . S
In338 O344 2.266 . S
In338 O345 2.326 . S
In338 O346 2.266 1_556 S
In338 O347 2.326 1_556 S
In338 O349 2.294 . S
In338 O350 2.326 . S
O339 In338 2.294 . S
O339 C348 1.240 . S
O340 In338 2.326 . S
O340 C348 1.252 . S
C341 O344 1.252 . S
C341 O345 1.260 . S
C342 O349 1.240 . S
C342 O350 1.252 . S
C343 O346 1.252 . S
C343 O347 1.260 . S
O344 In338 2.266 . S
O344 C341 1.252 . S
O345 In338 2.326 . S
O345 C341 1.260 . S
O346 In338 2.266 1_554 S
O346 C343 1.252 . S
O347 In338 2.326 1_554 S
O347 C343 1.260 . S
C348 O339 1.240 . S
C348 O340 1.252 . S
O349 In338 2.294 . S
O349 C342 1.240 . S
O350 In338 2.326 . S
O350 C342 1.252 . S
In351 O352 2.294 . S
In351 O353 2.326 . S
In351 O357 2.266 1_556 S
In351 O358 2.326 1_556 S
In351 O359 2.266 . S
In351 O360 2.326 . S
In351 O362 2.294 . S
In351 O363 2.326 . S
O352 In351 2.294 . S
O352 C361 1.240 . S
O353 In351 2.326 . S
O353 C361 1.252 . S
C354 O357 1.252 . S
C354 O358 1.260 . S
C355 O362 1.240 . S
C355 O363 1.252 . S
C356 O359 1.252 . S
C356 O360 1.260 . S
O357 In351 2.266 1_554 S
O357 C354 1.252 . S
O358 In351 2.326 1_554 S
O358 C354 1.260 . S
O359 In351 2.266 . S
O359 C356 1.252 . S
O360 In351 2.326 . S
O360 C356 1.260 . S
C361 O352 1.240 . S
C361 O353 1.252 . S
O362 In351 2.294 . S
O362 C355 1.240 . S
O363 In351 2.326 . S
O363 C355 1.252 . S
In364 O365 2.294 . S
In364 O366 2.326 . S
In364 O370 2.266 . S
In364 O371 2.326 . S
In364 O372 2.266 . S
In364 O373 2.326 . S
In364 O375 2.294 . S
In364 O376 2.326 . S
O365 In364 2.294 . S
O365 C374 1.240 . S
O366 In364 2.326 . S
O366 C374 1.252 . S
C367 O370 1.252 . S
C367 O371 1.260 . S
C368 O375 1.240 . S
C368 O376 1.252 . S
C369 O372 1.252 . S
C369 O373 1.260 . S
O370 In364 2.266 . S
O370 C367 1.252 . S
O371 In364 2.326 . S
O371 C367 1.260 . S
O372 In364 2.266 . S
O372 C369 1.252 . S
O373 In364 2.326 . S
O373 C369 1.260 . S
C374 O365 1.240 . S
C374 O366 1.252 . S
O375 In364 2.294 . S
O375 C368 1.240 . S
O376 In364 2.326 . S
O376 C368 1.252 . S
In377 O378 2.294 . S
In377 O379 2.326 . S
In377 O383 2.266 . S
In377 O384 2.326 . S
In377 O385 2.266 . S
In377 O386 2.326 . S
In377 O388 2.294 . S
In377 O389 2.326 . S
O378 In377 2.294 . S
O378 C387 1.240 . S
O379 In377 2.326 . S
O379 C387 1.252 . S
C380 O383 1.252 . S
C380 O384 1.260 . S
C381 O388 1.240 . S
C381 O389 1.252 . S
C382 O385 1.252 . S
C382 O386 1.260 . S
O383 In377 2.266 . S
O383 C380 1.252 . S
O384 In377 2.326 . S
O384 C380 1.260 . S
O385 In377 2.266 . S
O385 C382 1.252 . S
O386 In377 2.326 . S
O386 C382 1.260 . S
C387 O378 1.240 . S
C387 O379 1.252 . S
O388 In377 2.294 . S
O388 C381 1.240 . S
O389 In377 2.326 . S
O389 C381 1.252 . S
In390 O391 2.294 . S
In390 O392 2.326 . S
In390 O396 2.266 1_554 S
In390 O397 2.326 1_554 S
In390 O398 2.266 . S
In390 O399 2.326 . S
In390 O401 2.294 . S
In390 O402 2.326 . S
O391 In390 2.294 . S
O391 C400 1.240 . S
O392 In390 2.326 . S
O392 C400 1.252 . S
C393 O396 1.252 . S
C393 O397 1.260 . S
C394 O401 1.240 . S
C394 O402 1.252 . S
C395 O398 1.252 . S
C395 O399 1.260 . S
O396 In390 2.266 1_556 S
O396 C393 1.252 . S
O397 In390 2.326 1_556 S
O397 C393 1.260 . S
O398 In390 2.266 . S
O398 C395 1.252 . S
O399 In390 2.326 . S
O399 C395 1.260 . S
C400 O391 1.240 . S
C400 O392 1.252 . S
O401 In390 2.294 . S
O401 C394 1.240 . S
O402 In390 2.326 . S
O402 C394 1.252 . S
In403 O404 2.294 . S
In403 O405 2.326 . S
In403 O409 2.266 1_554 S
In403 O410 2.326 1_554 S
In403 O411 2.266 . S
In403 O412 2.326 . S
In403 O414 2.294 . S
In403 O415 2.326 . S
O404 In403 2.294 . S
O404 C413 1.240 . S
O405 In403 2.326 . S
O405 C413 1.252 . S
C406 O409 1.252 . S
C406 O410 1.260 . S
C407 O414 1.240 . S
C407 O415 1.252 . S
C408 O411 1.252 . S
C408 O412 1.260 . S
O409 In403 2.266 1_556 S
O409 C406 1.252 . S
O410 In403 2.326 1_556 S
O410 C406 1.260 . S
O411 In403 2.266 . S
O411 C408 1.252 . S
O412 In403 2.326 . S
O412 C408 1.260 . S
C413 O404 1.240 . S
C413 O405 1.252 . S
O414 In403 2.294 . S
O414 C407 1.240 . S
O415 In403 2.326 . S
O415 C407 1.252 . S
C416 C417 1.363 . S
C416 C422 1.379 . S
C416 N424 1.356 1_455 S
C417 C416 1.363 . S
C417 C423 1.363 . S
C418 C419 1.363 . S
C418 C423 1.379 . S
C418 N425 1.356 . S
C419 C418 1.363 . S
C419 C422 1.363 . S
N420 C422 1.356 1_655 S
N420 H432 0.984 . S
N420 H433 0.985 1_655 S
N421 C423 1.356 . S
N421 H426 0.984 . S
N421 H427 0.985 . S
C422 C416 1.379 . S
C422 C419 1.363 . S
C422 N420 1.356 1_455 S
C423 C417 1.363 . S
C423 C418 1.379 . S
C423 N421 1.356 . S
N424 C416 1.356 1_655 S
N424 H430 0.984 . S
N424 H431 0.984 1_655 S
N425 C418 1.356 . S
N425 H428 0.984 . S
N425 H429 0.985 . S
H426 N421 0.984 . S
H427 N421 0.985 . S
H428 N425 0.984 . S
H429 N425 0.985 . S
H430 N424 0.984 . S
H431 N424 0.984 1_455 S
H432 N420 0.984 . S
H433 N420 0.985 1_455 S
C434 C435 1.363 . S
C434 C440 1.379 . S
C434 N442 1.356 . S
C435 C434 1.363 . S
C435 C441 1.363 . S
C436 C437 1.363 . S
C436 C441 1.379 . S
C436 N443 1.356 . S
C437 C436 1.363 . S
C437 C440 1.363 . S
N438 C440 1.356 . S
N438 H450 0.984 . S
N438 H451 0.985 . S
N439 C441 1.356 . S
N439 H444 0.984 . S
N439 H445 0.985 . S
C440 C434 1.379 . S
C440 C437 1.363 . S
C440 N438 1.356 . S
C441 C435 1.363 . S
C441 C436 1.379 . S
C441 N439 1.356 . S
N442 C434 1.356 . S
N442 H448 0.984 . S
N442 H449 0.984 . S
N443 C436 1.356 . S
N443 H446 0.984 . S
N443 H447 0.985 . S
H444 N439 0.984 . S
H445 N439 0.985 . S
H446 N443 0.984 . S
H447 N443 0.985 . S
H448 N442 0.984 . S
H449 N442 0.984 . S
H450 N438 0.984 . S
H451 N438 0.985 . S
C452 C453 1.363 . S
C452 C458 1.379 . S
C452 N460 1.356 . S
C453 C452 1.363 . S
C453 C459 1.363 . S
C454 C455 1.363 . S
C454 C459 1.379 . S
C454 N461 1.356 . S
C455 C454 1.363 . S
C455 C458 1.363 . S
N456 C458 1.356 . S
N456 H468 0.984 . S
N456 H469 0.985 . S
N457 C459 1.356 . S
N457 H462 0.984 . S
N457 H463 0.985 . S
C458 C452 1.379 . S
C458 C455 1.363 . S
C458 N456 1.356 . S
C459 C453 1.363 . S
C459 C454 1.379 . S
C459 N457 1.356 . S
N460 C452 1.356 . S
N460 H466 0.984 . S
N460 H467 0.984 . S
N461 C454 1.356 . S
N461 H464 0.984 . S
N461 H465 0.985 . S
H462 N457 0.984 . S
H463 N457 0.985 . S
H464 N461 0.984 . S
H465 N461 0.985 . S
H466 N460 0.984 . S
H467 N460 0.984 . S
H468 N456 0.984 . S
H469 N456 0.985 . S
C470 C471 1.363 . S
C470 C476 1.379 . S
C470 N478 1.356 . S
C471 C470 1.363 . S
C471 C477 1.363 . S
C472 C473 1.363 . S
C472 C477 1.379 . S
C472 N479 1.356 . S
C473 C472 1.363 . S
C473 C476 1.363 . S
N474 C476 1.356 . S
N474 H486 0.984 . S
N474 H487 0.985 . S
N475 C477 1.356 . S
N475 H480 0.984 . S
N475 H481 0.985 . S
C476 C470 1.379 . S
C476 C473 1.363 . S
C476 N474 1.356 . S
C477 C471 1.363 . S
C477 C472 1.379 . S
C477 N475 1.356 . S
N478 C470 1.356 . S
N478 H484 0.984 . S
N478 H485 0.984 . S
N479 C472 1.356 . S
N479 H482 0.984 . S
N479 H483 0.985 . S
H480 N475 0.984 . S
H481 N475 0.985 . S
H482 N479 0.984 . S
H483 N479 0.985 . S
H484 N478 0.984 . S
H485 N478 0.984 . S
H486 N474 0.984 . S
H487 N474 0.985 . S
C488 C489 1.363 . S
C488 C494 1.379 . S
C488 N496 1.356 . S
C489 C488 1.363 . S
C489 C495 1.363 . S
C490 C491 1.363 . S
C490 C495 1.379 . S
C490 N497 1.356 . S
C491 C490 1.363 . S
C491 C494 1.363 . S
N492 C494 1.356 . S
N492 H504 0.984 . S
N492 H505 0.985 . S
N493 C495 1.356 . S
N493 H498 0.984 . S
N493 H499 0.985 . S
C494 C488 1.379 . S
C494 C491 1.363 . S
C494 N492 1.356 . S
C495 C489 1.363 . S
C495 C490 1.379 . S
C495 N493 1.356 . S
N496 C488 1.356 . S
N496 H502 0.984 . S
N496 H503 0.984 . S
N497 C490 1.356 . S
N497 H500 0.984 . S
N497 H501 0.985 . S
H498 N493 0.984 . S
H499 N493 0.985 . S
H500 N497 0.984 . S
H501 N497 0.985 . S
H502 N496 0.984 . S
H503 N496 0.984 . S
H504 N492 0.984 . S
H505 N492 0.985 . S
C506 C507 1.363 . S
C506 C512 1.379 . S
C506 N514 1.356 . S
C507 C506 1.363 . S
C507 C513 1.363 . S
C508 C509 1.363 . S
C508 C513 1.379 . S
C508 N515 1.356 . S
C509 C508 1.363 . S
C509 C512 1.363 . S
N510 C512 1.356 . S
N510 H522 0.984 . S
N510 H523 0.985 . S
N511 C513 1.356 . S
N511 H516 0.984 . S
N511 H517 0.985 . S
C512 C506 1.379 . S
C512 C509 1.363 . S
C512 N510 1.356 . S
C513 C507 1.363 . S
C513 C508 1.379 . S
C513 N511 1.356 . S
N514 C506 1.356 . S
N514 H520 0.984 . S
N514 H521 0.984 . S
N515 C508 1.356 . S
N515 H518 0.984 . S
N515 H519 0.985 . S
H516 N511 0.984 . S
H517 N511 0.985 . S
H518 N515 0.984 . S
H519 N515 0.985 . S
H520 N514 0.984 . S
H521 N514 0.984 . S
H522 N510 0.984 . S
H523 N510 0.985 . S
C524 C525 1.363 . S
C524 C530 1.379 . S
C524 N532 1.356 . S
C525 C524 1.363 . S
C525 C531 1.363 . S
C526 C527 1.363 . S
C526 C531 1.379 . S
C526 N533 1.356 1_655 S
C527 C526 1.363 . S
C527 C530 1.363 . S
N528 C530 1.356 . S
N528 H540 0.984 . S
N528 H541 0.985 . S
N529 C531 1.356 1_455 S
N529 H534 0.984 1_455 S
N529 H535 0.985 . S
C530 C524 1.379 . S
C530 C527 1.363 . S
C530 N528 1.356 . S
C531 C525 1.363 . S
C531 C526 1.379 . S
C531 N529 1.356 1_655 S
N532 C524 1.356 . S
N532 H538 0.984 . S
N532 H539 0.984 . S
N533 C526 1.356 1_455 S
N533 H536 0.984 1_455 S
N533 H537 0.985 . S
H534 N529 0.984 1_655 S
H535 N529 0.985 . S
H536 N533 0.984 1_655 S
H537 N533 0.985 . S
H538 N532 0.984 . S
H539 N532 0.984 . S
H540 N528 0.984 . S
H541 N528 0.985 . S
C542 C543 1.363 . S
C542 C548 1.379 . S
C542 N550 1.356 . S
C543 C542 1.363 . S
C543 C549 1.363 . S
C544 C545 1.363 . S
C544 C549 1.379 . S
C544 N551 1.356 . S
C545 C544 1.363 . S
C545 C548 1.363 . S
N546 C548 1.356 . S
N546 H558 0.984 . S
N546 H559 0.985 . S
N547 C549 1.356 . S
N547 H552 0.984 . S
N547 H553 0.985 . S
C548 C542 1.379 . S
C548 C545 1.363 . S
C548 N546 1.356 . S
C549 C543 1.363 . S
C549 C544 1.379 . S
C549 N547 1.356 . S
N550 C542 1.356 . S
N550 H556 0.984 . S
N550 H557 0.984 . S
N551 C544 1.356 . S
N551 H554 0.984 . S
N551 H555 0.985 . S
H552 N547 0.984 . S
H553 N547 0.985 . S
H554 N551 0.984 . S
H555 N551 0.985 . S
H556 N550 0.984 . S
H557 N550 0.984 . S
H558 N546 0.984 . S
H559 N546 0.985 . S
C560 C561 1.363 . S
C560 C566 1.379 . S
C560 N568 1.356 . S
C561 C560 1.363 . S
C561 C567 1.363 . S
C562 C563 1.363 . S
C562 C567 1.379 . S
C562 N569 1.356 . S
C563 C562 1.363 . S
C563 C566 1.363 . S
N564 C566 1.356 . S
N564 H576 0.984 . S
N564 H577 0.985 . S
N565 C567 1.356 . S
N565 H570 0.984 . S
N565 H571 0.985 . S
C566 C560 1.379 . S
C566 C563 1.363 . S
C566 N564 1.356 . S
C567 C561 1.363 . S
C567 C562 1.379 . S
C567 N565 1.356 . S
N568 C560 1.356 . S
N568 H574 0.984 . S
N568 H575 0.984 . S
N569 C562 1.356 . S
N569 H572 0.984 . S
N569 H573 0.985 . S
H570 N565 0.984 . S
H571 N565 0.985 . S
H572 N569 0.984 . S
H573 N569 0.985 . S
H574 N568 0.984 . S
H575 N568 0.984 . S
H576 N564 0.984 . S
H577 N564 0.985 . S
C578 C579 1.363 . S
C578 C584 1.379 . S
C578 N586 1.356 . S
C579 C578 1.363 . S
C579 C585 1.363 . S
C580 C581 1.363 . S
C580 C585 1.379 . S
C580 N587 1.356 . S
C581 C580 1.363 . S
C581 C584 1.363 . S
N582 C584 1.356 . S
N582 H594 0.984 . S
N582 H595 0.985 . S
N583 C585 1.356 . S
N583 H588 0.984 . S
N583 H589 0.985 . S
C584 C578 1.379 . S
C584 C581 1.363 . S
C584 N582 1.356 . S
C585 C579 1.363 . S
C585 C580 1.379 . S
C585 N583 1.356 . S
N586 C578 1.356 . S
N586 H592 0.984 . S
N586 H593 0.984 . S
N587 C580 1.356 . S
N587 H590 0.984 . S
N587 H591 0.985 . S
H588 N583 0.984 . S
H589 N583 0.985 . S
H590 N587 0.984 . S
H591 N587 0.985 . S
H592 N586 0.984 . S
H593 N586 0.984 . S
H594 N582 0.984 . S
H595 N582 0.985 . S
C596 C597 1.363 . S
C596 C602 1.379 . S
C596 N604 1.356 . S
C597 C596 1.363 . S
C597 C603 1.363 . S
C598 C599 1.363 . S
C598 C603 1.379 . S
C598 N605 1.356 . S
C599 C598 1.363 . S
C599 C602 1.363 . S
N600 C602 1.356 . S
N600 H612 0.984 . S
N600 H613 0.985 . S
N601 C603 1.356 . S
N601 H606 0.984 . S
N601 H607 0.985 . S
C602 C596 1.379 . S
C602 C599 1.363 . S
C602 N600 1.356 . S
C603 C597 1.363 . S
C603 C598 1.379 . S
C603 N601 1.356 . S
N604 C596 1.356 . S
N604 H610 0.984 . S
N604 H611 0.984 . S
N605 C598 1.356 . S
N605 H608 0.984 . S
N605 H609 0.985 . S
H606 N601 0.984 . S
H607 N601 0.985 . S
H608 N605 0.984 . S
H609 N605 0.985 . S
H610 N604 0.984 . S
H611 N604 0.984 . S
H612 N600 0.984 . S
H613 N600 0.985 . S
C614 C615 1.363 . S
C614 C620 1.379 . S
C614 N622 1.356 . S
C615 C614 1.363 . S
C615 C621 1.363 . S
C616 C617 1.363 . S
C616 C621 1.379 . S
C616 N623 1.356 . S
C617 C616 1.363 . S
C617 C620 1.363 . S
N618 C620 1.356 . S
N618 H630 0.984 . S
N618 H631 0.985 . S
N619 C621 1.356 . S
N619 H624 0.984 . S
N619 H625 0.985 . S
C620 C614 1.379 . S
C620 C617 1.363 . S
C620 N618 1.356 . S
C621 C615 1.363 . S
C621 C616 1.379 . S
C621 N619 1.356 . S
N622 C614 1.356 . S
N622 H628 0.984 . S
N622 H629 0.984 . S
N623 C616 1.356 . S
N623 H626 0.984 . S
N623 H627 0.985 . S
H624 N619 0.984 . S
H625 N619 0.985 . S
H626 N623 0.984 . S
H627 N623 0.985 . S
H628 N622 0.984 . S
H629 N622 0.984 . S
H630 N618 0.984 . S
H631 N618 0.985 . S
C632 C633 1.363 . S
C632 C638 1.379 . S
C632 N640 1.356 . S
C633 C632 1.363 . S
C633 C639 1.363 . S
C634 C635 1.363 . S
C634 C639 1.379 . S
C634 N641 1.356 . S
C635 C634 1.363 . S
C635 C638 1.363 . S
N636 C638 1.356 . S
N636 H648 0.984 . S
N636 H649 0.985 . S
N637 C639 1.356 . S
N637 H642 0.984 . S
N637 H643 0.985 . S
C638 C632 1.379 . S
C638 C635 1.363 . S
C638 N636 1.356 . S
C639 C633 1.363 . S
C639 C634 1.379 . S
C639 N637 1.356 . S
N640 C632 1.356 . S
N640 H646 0.984 . S
N640 H647 0.984 . S
N641 C634 1.356 . S
N641 H644 0.984 . S
N641 H645 0.985 . S
H642 N637 0.984 . S
H643 N637 0.985 . S
H644 N641 0.984 . S
H645 N641 0.985 . S
H646 N640 0.984 . S
H647 N640 0.984 . S
H648 N636 0.984 . S
H649 N636 0.985 . S
C650 C651 1.363 . S
C650 C656 1.379 . S
C650 N658 1.356 . S
C651 C650 1.363 . S
C651 C657 1.363 . S
C652 C653 1.363 . S
C652 C657 1.379 . S
C652 N659 1.356 . S
C653 C652 1.363 . S
C653 C656 1.363 . S
N654 C656 1.356 . S
N654 H666 0.984 . S
N654 H667 0.985 . S
N655 C657 1.356 . S
N655 H660 0.984 . S
N655 H661 0.985 . S
C656 C650 1.379 . S
C656 C653 1.363 . S
C656 N654 1.356 . S
C657 C651 1.363 . S
C657 C652 1.379 . S
C657 N655 1.356 . S
N658 C650 1.356 . S
N658 H664 0.984 . S
N658 H665 0.984 . S
N659 C652 1.356 . S
N659 H662 0.984 . S
N659 H663 0.985 . S
H660 N655 0.984 . S
H661 N655 0.985 . S
H662 N659 0.984 . S
H663 N659 0.985 . S
H664 N658 0.984 . S
H665 N658 0.984 . S
H666 N654 0.984 . S
H667 N654 0.985 . S
C668 C669 1.363 . S
C668 C674 1.379 . S
C668 N676 1.356 . S
C669 C668 1.363 . S
C669 C675 1.363 . S
C670 C671 1.363 . S
C670 C675 1.379 . S
C670 N677 1.356 . S
C671 C670 1.363 . S
C671 C674 1.363 . S
N672 C674 1.356 . S
N672 H684 0.984 . S
N672 H685 0.985 . S
N673 C675 1.356 . S
N673 H678 0.984 . S
N673 H679 0.985 . S
C674 C668 1.379 . S
C674 C671 1.363 . S
C674 N672 1.356 . S
C675 C669 1.363 . S
C675 C670 1.379 . S
C675 N673 1.356 . S
N676 C668 1.356 . S
N676 H682 0.984 . S
N676 H683 0.984 . S
N677 C670 1.356 . S
N677 H680 0.984 . S
N677 H681 0.985 . S
H678 N673 0.984 . S
H679 N673 0.985 . S
H680 N677 0.984 . S
H681 N677 0.985 . S
H682 N676 0.984 . S
H683 N676 0.984 . S
H684 N672 0.984 . S
H685 N672 0.985 . S
C686 C687 1.363 . S
C686 C692 1.379 . S
C686 N694 1.356 . S
C687 C686 1.363 . S
C687 C693 1.363 . S
C688 C689 1.363 . S
C688 C693 1.379 . S
C688 N695 1.356 . S
C689 C688 1.363 . S
C689 C692 1.363 . S
N690 C692 1.356 . S
N690 H702 0.984 . S
N690 H703 0.985 . S
N691 C693 1.356 . S
N691 H696 0.984 . S
N691 H697 0.985 . S
C692 C686 1.379 . S
C692 C689 1.363 . S
C692 N690 1.356 . S
C693 C687 1.363 . S
C693 C688 1.379 . S
C693 N691 1.356 . S
N694 C686 1.356 . S
N694 H700 0.984 . S
N694 H701 0.984 . S
N695 C688 1.356 . S
N695 H698 0.984 . S
N695 H699 0.985 . S
H696 N691 0.984 . S
H697 N691 0.985 . S
H698 N695 0.984 . S
H699 N695 0.985 . S
H700 N694 0.984 . S
H701 N694 0.984 . S
H702 N690 0.984 . S
H703 N690 0.985 . S
C704 C705 1.363 . S
C704 C710 1.379 . S
C704 N712 1.356 . S
C705 C704 1.363 . S
C705 C711 1.363 . S
C706 C707 1.363 . S
C706 C711 1.379 . S
C706 N713 1.356 . S
C707 C706 1.363 . S
C707 C710 1.363 . S
N708 C710 1.356 . S
N708 H720 0.984 . S
N708 H721 0.985 . S
N709 C711 1.356 . S
N709 H714 0.984 . S
N709 H715 0.985 . S
C710 C704 1.379 . S
C710 C707 1.363 . S
C710 N708 1.356 . S
C711 C705 1.363 . S
C711 C706 1.379 . S
C711 N709 1.356 . S
N712 C704 1.356 . S
N712 H718 0.984 . S
N712 H719 0.984 . S
N713 C706 1.356 . S
N713 H716 0.984 . S
N713 H717 0.985 . S
H714 N709 0.984 . S
H715 N709 0.985 . S
H716 N713 0.984 . S
H717 N713 0.985 . S
H718 N712 0.984 . S
H719 N712 0.984 . S
H720 N708 0.984 . S
H721 N708 0.985 . S
C722 C723 1.363 . S
C722 C728 1.379 . S
C722 N730 1.356 . S
C723 C722 1.363 . S
C723 C729 1.363 . S
C724 C725 1.363 . S
C724 C729 1.379 . S
C724 N731 1.356 . S
C725 C724 1.363 . S
C725 C728 1.363 . S
N726 C728 1.356 . S
N726 H738 0.984 . S
N726 H739 0.985 . S
N727 C729 1.356 . S
N727 H732 0.984 1_655 S
N727 H733 0.985 . S
C728 C722 1.379 . S
C728 C725 1.363 . S
C728 N726 1.356 . S
C729 C723 1.363 . S
C729 C724 1.379 . S
C729 N727 1.356 . S
N730 C722 1.356 . S
N730 H736 0.984 . S
N730 H737 0.984 . S
N731 C724 1.356 . S
N731 H734 0.984 . S
N731 H735 0.985 . S
H732 N727 0.984 1_455 S
H733 N727 0.985 . S
H734 N731 0.984 . S
H735 N731 0.985 . S
H736 N730 0.984 . S
H737 N730 0.984 . S
H738 N726 0.984 . S
H739 N726 0.985 . S
C740 C741 1.363 . S
C740 C746 1.379 . S
C740 N748 1.356 . S
C741 C740 1.363 . S
C741 C747 1.363 . S
C742 C743 1.363 . S
C742 C747 1.379 . S
C742 N749 1.356 . S
C743 C742 1.363 . S
C743 C746 1.363 . S
N744 C746 1.356 . S
N744 H756 0.984 . S
N744 H757 0.985 . S
N745 C747 1.356 . S
N745 H750 0.984 . S
N745 H751 0.985 . S
C746 C740 1.379 . S
C746 C743 1.363 . S
C746 N744 1.356 . S
C747 C741 1.363 . S
C747 C742 1.379 . S
C747 N745 1.356 . S
N748 C740 1.356 . S
N748 H754 0.984 . S
N748 H755 0.984 . S
N749 C742 1.356 . S
N749 H752 0.984 . S
N749 H753 0.985 . S
H750 N745 0.984 . S
H751 N745 0.985 . S
H752 N749 0.984 . S
H753 N749 0.985 . S
H754 N748 0.984 . S
H755 N748 0.984 . S
H756 N744 0.984 . S
H757 N744 0.985 . S
C758 C759 1.363 . S
C758 C764 1.379 . S
C758 N766 1.356 . S
C759 C758 1.363 . S
C759 C765 1.363 . S
C760 C761 1.363 . S
C760 C765 1.379 . S
C760 N767 1.356 . S
C761 C760 1.363 . S
C761 C764 1.363 . S
N762 C764 1.356 . S
N762 H774 0.984 . S
N762 H775 0.985 . S
N763 C765 1.356 . S
N763 H768 0.984 . S
N763 H769 0.985 . S
C764 C758 1.379 . S
C764 C761 1.363 . S
C764 N762 1.356 . S
C765 C759 1.363 . S
C765 C760 1.379 . S
C765 N763 1.356 . S
N766 C758 1.356 . S
N766 H772 0.984 . S
N766 H773 0.984 . S
N767 C760 1.356 . S
N767 H770 0.984 1_655 S
N767 H771 0.985 . S
H768 N763 0.984 . S
H769 N763 0.985 . S
H770 N767 0.984 1_455 S
H771 N767 0.985 . S
H772 N766 0.984 . S
H773 N766 0.984 . S
H774 N762 0.984 . S
H775 N762 0.985 . S
C776 C777 1.363 . S
C776 C782 1.379 . S
C776 N784 1.356 . S
C777 C776 1.363 . S
C777 C783 1.363 . S
C778 C779 1.363 . S
C778 C783 1.379 . S
C778 N785 1.356 . S
C779 C778 1.363 . S
C779 C782 1.363 . S
N780 C782 1.356 . S
N780 H792 0.984 . S
N780 H793 0.985 . S
N781 C783 1.356 . S
N781 H786 0.984 . S
N781 H787 0.985 . S
C782 C776 1.379 . S
C782 C779 1.363 . S
C782 N780 1.356 . S
C783 C777 1.363 . S
C783 C778 1.379 . S
C783 N781 1.356 . S
N784 C776 1.356 . S
N784 H790 0.984 . S
N784 H791 0.984 . S
N785 C778 1.356 . S
N785 H788 0.984 . S
N785 H789 0.985 . S
H786 N781 0.984 . S
H787 N781 0.985 . S
H788 N785 0.984 . S
H789 N785 0.985 . S
H790 N784 0.984 . S
H791 N784 0.984 . S
H792 N780 0.984 . S
H793 N780 0.985 . S
C794 C795 1.363 . S
C794 C800 1.379 . S
C794 N802 1.356 . S
C795 C794 1.363 . S
C795 C801 1.363 . S
C796 C797 1.363 . S
C796 C801 1.379 . S
C796 N803 1.356 . S
C797 C796 1.363 . S
C797 C800 1.363 . S
N798 C800 1.356 . S
N798 H810 0.984 . S
N798 H811 0.985 . S
N799 C801 1.356 . S
N799 H804 0.984 . S
N799 H805 0.985 . S
C800 C794 1.379 . S
C800 C797 1.363 . S
C800 N798 1.356 . S
C801 C795 1.363 . S
C801 C796 1.379 . S
C801 N799 1.356 . S
N802 C794 1.356 . S
N802 H808 0.984 . S
N802 H809 0.984 1_455 S
N803 C796 1.356 . S
N803 H806 0.984 . S
N803 H807 0.985 . S
H804 N799 0.984 . S
H805 N799 0.985 . S
H806 N803 0.984 . S
H807 N803 0.985 . S
H808 N802 0.984 . S
H809 N802 0.984 1_655 S
H810 N798 0.984 . S
H811 N798 0.985 . S
C812 C813 1.363 . S
C812 C818 1.379 . S
C812 N820 1.356 . S
C813 C812 1.363 . S
C813 C819 1.363 . S
C814 C815 1.363 . S
C814 C819 1.379 . S
C814 N821 1.356 . S
C815 C814 1.363 . S
C815 C818 1.363 . S
N816 C818 1.356 . S
N816 H828 0.984 . S
N816 H829 0.985 . S
N817 C819 1.356 . S
N817 H822 0.984 . S
N817 H823 0.985 . S
C818 C812 1.379 . S
C818 C815 1.363 . S
C818 N816 1.356 . S
C819 C813 1.363 . S
C819 C814 1.379 . S
C819 N817 1.356 . S
N820 C812 1.356 . S
N820 H826 0.984 . S
N820 H827 0.984 . S
N821 C814 1.356 . S
N821 H824 0.984 . S
N821 H825 0.985 . S
H822 N817 0.984 . S
H823 N817 0.985 . S
H824 N821 0.984 . S
H825 N821 0.985 . S
H826 N820 0.984 . S
H827 N820 0.984 . S
H828 N816 0.984 . S
H829 N816 0.985 . S
C830 C831 1.363 . S
C830 C836 1.379 . S
C830 N838 1.356 . S
C831 C830 1.363 . S
C831 C837 1.363 . S
C832 C833 1.363 . S
C832 C837 1.379 . S
C832 N839 1.356 . S
C833 C832 1.363 . S
C833 C836 1.363 . S
N834 C836 1.356 . S
N834 H846 0.984 . S
N834 H847 0.985 . S
N835 C837 1.356 . S
N835 H840 0.984 . S
N835 H841 0.985 . S
C836 C830 1.379 . S
C836 C833 1.363 . S
C836 N834 1.356 . S
C837 C831 1.363 . S
C837 C832 1.379 . S
C837 N835 1.356 . S
N838 C830 1.356 . S
N838 H844 0.984 . S
N838 H845 0.984 1_455 S
N839 C832 1.356 . S
N839 H842 0.984 . S
N839 H843 0.985 . S
H840 N835 0.984 . S
H841 N835 0.985 . S
H842 N839 0.984 . S
H843 N839 0.985 . S
H844 N838 0.984 . S
H845 N838 0.984 1_655 S
H846 N834 0.984 . S
H847 N834 0.985 . S
C848 C849 1.363 . S
C848 C854 1.379 . S
C848 N856 1.356 . S
C849 C848 1.363 . S
C849 C855 1.363 . S
C850 C851 1.363 . S
C850 C855 1.379 . S
C850 N857 1.356 . S
C851 C850 1.363 . S
C851 C854 1.363 . S
N852 C854 1.356 . S
N852 H864 0.984 . S
N852 H865 0.985 . S
N853 C855 1.356 . S
N853 H858 0.984 . S
N853 H859 0.985 . S
C854 C848 1.379 . S
C854 C851 1.363 . S
C854 N852 1.356 . S
C855 C849 1.363 . S
C855 C850 1.379 . S
C855 N853 1.356 . S
N856 C848 1.356 . S
N856 H862 0.984 . S
N856 H863 0.984 . S
N857 C850 1.356 . S
N857 H860 0.984 . S
N857 H861 0.985 . S
H858 N853 0.984 . S
H859 N853 0.985 . S
H860 N857 0.984 . S
H861 N857 0.985 . S
H862 N856 0.984 . S
H863 N856 0.984 . S
H864 N852 0.984 . S
H865 N852 0.985 . S
C866 C867 1.363 . S
C866 C872 1.379 . S
C866 N874 1.356 . S
C867 C866 1.363 . S
C867 C873 1.363 . S
C868 C869 1.363 . S
C868 C873 1.379 . S
C868 N875 1.356 . S
C869 C868 1.363 . S
C869 C872 1.363 . S
N870 C872 1.356 . S
N870 H882 0.984 . S
N870 H883 0.985 1_655 S
N871 C873 1.356 . S
N871 H876 0.984 . S
N871 H877 0.985 . S
C872 C866 1.379 . S
C872 C869 1.363 . S
C872 N870 1.356 . S
C873 C867 1.363 . S
C873 C868 1.379 . S
C873 N871 1.356 . S
N874 C866 1.356 . S
N874 H880 0.984 . S
N874 H881 0.984 . S
N875 C868 1.356 . S
N875 H878 0.984 . S
N875 H879 0.985 . S
H876 N871 0.984 . S
H877 N871 0.985 . S
H878 N875 0.984 . S
H879 N875 0.985 . S
H880 N874 0.984 . S
H881 N874 0.984 . S
H882 N870 0.984 . S
H883 N870 0.985 1_455 S
C884 C885 1.363 . S
C884 C890 1.379 . S
C884 N892 1.356 . S
C885 C884 1.363 . S
C885 C891 1.363 . S
C886 C887 1.363 . S
C886 C891 1.379 . S
C886 N893 1.356 . S
C887 C886 1.363 . S
C887 C890 1.363 . S
N888 C890 1.356 . S
N888 H900 0.984 . S
N888 H901 0.985 . S
N889 C891 1.356 . S
N889 H894 0.984 . S
N889 H895 0.985 . S
C890 C884 1.379 . S
C890 C887 1.363 . S
C890 N888 1.356 . S
C891 C885 1.363 . S
C891 C886 1.379 . S
C891 N889 1.356 . S
N892 C884 1.356 . S
N892 H898 0.984 . S
N892 H899 0.984 . S
N893 C886 1.356 . S
N893 H896 0.984 . S
N893 H897 0.985 . S
H894 N889 0.984 . S
H895 N889 0.985 . S
H896 N893 0.984 . S
H897 N893 0.985 . S
H898 N892 0.984 . S
H899 N892 0.984 . S
H900 N888 0.984 . S
H901 N888 0.985 . S
C902 C903 1.363 . S
C902 C908 1.379 . S
C902 N910 1.356 . S
C903 C902 1.363 . S
C903 C909 1.363 . S
C904 C905 1.363 . S
C904 C909 1.379 . S
C904 N911 1.356 . S
C905 C904 1.363 . S
C905 C908 1.363 . S
N906 C908 1.356 . S
N906 H918 0.984 . S
N906 H919 0.985 . S
N907 C909 1.356 . S
N907 H912 0.984 . S
N907 H913 0.985 . S
C908 C902 1.379 . S
C908 C905 1.363 . S
C908 N906 1.356 . S
C909 C903 1.363 . S
C909 C904 1.379 . S
C909 N907 1.356 . S
N910 C902 1.356 . S
N910 H916 0.984 . S
N910 H917 0.984 . S
N911 C904 1.356 . S
N911 H914 0.984 1_655 S
N911 H915 0.985 . S
H912 N907 0.984 . S
H913 N907 0.985 . S
H914 N911 0.984 1_455 S
H915 N911 0.985 . S
H916 N910 0.984 . S
H917 N910 0.984 . S
H918 N906 0.984 . S
H919 N906 0.985 . S
C920 C921 1.363 . S
C920 C926 1.379 . S
C920 N928 1.356 . S
C921 C920 1.363 . S
C921 C927 1.363 . S
C922 C923 1.363 . S
C922 C927 1.379 . S
C922 N929 1.356 . S
C923 C922 1.363 . S
C923 C926 1.363 . S
N924 C926 1.356 . S
N924 H936 0.984 . S
N924 H937 0.985 . S
N925 C927 1.356 . S
N925 H930 0.984 . S
N925 H931 0.985 . S
C926 C920 1.379 . S
C926 C923 1.363 . S
C926 N924 1.356 . S
C927 C921 1.363 . S
C927 C922 1.379 . S
C927 N925 1.356 . S
N928 C920 1.356 . S
N928 H934 0.984 . S
N928 H935 0.984 . S
N929 C922 1.356 . S
N929 H932 0.984 . S
N929 H933 0.985 . S
H930 N925 0.984 . S
H931 N925 0.985 . S
H932 N929 0.984 . S
H933 N929 0.985 . S
H934 N928 0.984 . S
H935 N928 0.984 . S
H936 N924 0.984 . S
H937 N924 0.985 . S
C938 C939 1.363 . S
C938 C944 1.379 . S
C938 N946 1.356 . S
C939 C938 1.363 . S
C939 C945 1.363 . S
C940 C941 1.363 . S
C940 C945 1.379 . S
C940 N947 1.356 . S
C941 C940 1.363 . S
C941 C944 1.363 . S
N942 C944 1.356 . S
N942 H954 0.984 . S
N942 H955 0.985 . S
N943 C945 1.356 . S
N943 H948 0.984 . S
N943 H949 0.985 . S
C944 C938 1.379 . S
C944 C941 1.363 . S
C944 N942 1.356 . S
C945 C939 1.363 . S
C945 C940 1.379 . S
C945 N943 1.356 . S
N946 C938 1.356 . S
N946 H952 0.984 . S
N946 H953 0.984 . S
N947 C940 1.356 . S
N947 H950 0.984 1_455 S
N947 H951 0.985 . S
H948 N943 0.984 . S
H949 N943 0.985 . S
H950 N947 0.984 1_655 S
H951 N947 0.985 . S
H952 N946 0.984 . S
H953 N946 0.984 . S
H954 N942 0.984 . S
H955 N942 0.985 . S
C956 C957 1.363 . S
C956 C962 1.379 . S
C956 N964 1.356 . S
C957 C956 1.363 . S
C957 C963 1.363 . S
C958 C959 1.363 . S
C958 C963 1.379 . S
C958 N965 1.356 . S
C959 C958 1.363 . S
C959 C962 1.363 . S
N960 C962 1.356 . S
N960 H972 0.984 . S
N960 H973 0.985 . S
N961 C963 1.356 . S
N961 H966 0.984 . S
N961 H967 0.985 . S
C962 C956 1.379 . S
C962 C959 1.363 . S
C962 N960 1.356 . S
C963 C957 1.363 . S
C963 C958 1.379 . S
C963 N961 1.356 . S
N964 C956 1.356 . S
N964 H970 0.984 . S
N964 H971 0.984 . S
N965 C958 1.356 . S
N965 H968 0.984 . S
N965 H969 0.985 . S
H966 N961 0.984 . S
H967 N961 0.985 . S
H968 N965 0.984 . S
H969 N965 0.985 . S
H970 N964 0.984 . S
H971 N964 0.984 . S
H972 N960 0.984 . S
H973 N960 0.985 . S
C974 C975 1.363 . S
C974 C980 1.379 . S
C974 N982 1.356 . S
C975 C974 1.363 . S
C975 C981 1.363 . S
C976 C977 1.363 . S
C976 C981 1.379 . S
C976 N983 1.356 . S
C977 C976 1.363 . S
C977 C980 1.363 . S
N978 C980 1.356 . S
N978 H990 0.984 . S
N978 H991 0.985 . S
N979 C981 1.356 . S
N979 H984 0.984 1_455 S
N979 H985 0.985 . S
C980 C974 1.379 . S
C980 C977 1.363 . S
C980 N978 1.356 . S
C981 C975 1.363 . S
C981 C976 1.379 . S
C981 N979 1.356 . S
N982 C974 1.356 . S
N982 H988 0.984 . S
N982 H989 0.984 . S
N983 C976 1.356 . S
N983 H986 0.984 . S
N983 H987 0.985 . S
H984 N979 0.984 1_655 S
H985 N979 0.985 . S
H986 N983 0.984 . S
H987 N983 0.985 . S
H988 N982 0.984 . S
H989 N982 0.984 . S
H990 N978 0.984 . S
H991 N978 0.985 . S
C992 C993 1.363 . S
C992 C998 1.379 . S
C992 N1000 1.356 . S
C993 C992 1.363 . S
C993 C999 1.363 1_655 S
C994 C995 1.363 . S
C994 C999 1.379 . S
C994 N1001 1.356 . S
C995 C994 1.363 . S
C995 C998 1.363 1_455 S
N996 C998 1.356 . S
N996 H1008 0.984 . S
N996 H1009 0.985 1_655 S
N997 C999 1.356 . S
N997 H1002 0.984 1_455 S
N997 H1003 0.985 . S
C998 C992 1.379 . S
C998 C995 1.363 1_655 S
C998 N996 1.356 . S
C999 C993 1.363 1_455 S
C999 C994 1.379 . S
C999 N997 1.356 . S
N1000 C992 1.356 . S
N1000 H1006 0.984 . S
N1000 H1007 0.984 . S
N1001 C994 1.356 . S
N1001 H1004 0.984 . S
N1001 H1005 0.985 . S
H1002 N997 0.984 1_655 S
H1003 N997 0.985 . S
H1004 N1001 0.984 . S
H1005 N1001 0.985 . S
H1006 N1000 0.984 . S
H1007 N1000 0.984 . S
H1008 N996 0.984 . S
H1009 N996 0.985 1_455 S
C1010 C1011 1.374 . S
C1010 C1016 1.368 1_565 S
C1010 N1018 1.360 . S
C1011 C1010 1.374 . S
C1011 C1017 1.363 . S
C1012 C1013 1.374 . S
C1012 C1017 1.368 1_545 S
C1012 N1019 1.360 . S
C1013 C1012 1.374 . S
C1013 C1016 1.363 . S
N1014 C1016 1.356 . S
N1014 H1026 0.984 . S
N1014 H1027 0.985 . S
N1015 C1017 1.356 . S
N1015 H1020 0.984 . S
N1015 H1021 0.985 . S
C1016 C1010 1.368 1_545 S
C1016 C1013 1.363 . S
C1016 N1014 1.356 . S
C1017 C1011 1.363 . S
C1017 C1012 1.368 1_565 S
C1017 N1015 1.356 . S
N1018 C1010 1.360 . S
N1018 H1024 0.984 1_565 S
N1018 H1025 0.984 . S
N1019 C1012 1.360 . S
N1019 H1022 0.984 . S
N1019 H1023 0.985 1_545 S
H1020 N1015 0.984 . S
H1021 N1015 0.985 . S
H1022 N1019 0.984 . S
H1023 N1019 0.985 1_565 S
H1024 N1018 0.984 1_545 S
H1025 N1018 0.984 . S
H1026 N1014 0.984 . S
H1027 N1014 0.985 . S
C1028 C1029 1.363 1_556 S
C1028 C1034 1.379 1_545 S
C1028 N1036 1.356 . S
C1029 C1028 1.363 1_554 S
C1029 C1035 1.363 1_655 S
C1030 C1031 1.363 1_554 S
C1030 C1035 1.379 1_565 S
C1030 N1037 1.356 . S
C1031 C1030 1.363 1_556 S
C1031 C1034 1.363 1_455 S
N1032 C1034 1.356 . S
N1032 H1044 0.984 . S
N1032 H1045 0.985 . S
N1033 C1035 1.356 . S
N1033 H1038 0.984 . S
N1033 H1039 0.985 . S
C1034 C1028 1.379 1_565 S
C1034 C1031 1.363 1_655 S
C1034 N1032 1.356 . S
C1035 C1029 1.363 1_455 S
C1035 C1030 1.379 1_545 S
C1035 N1033 1.356 . S
N1036 C1028 1.356 . S
N1036 H1042 0.984 . S
N1036 H1043 0.986 . S
N1037 C1030 1.356 . S
N1037 H1040 0.986 . S
N1037 H1041 0.985 . S
H1038 N1033 0.984 . S
H1039 N1033 0.985 . S
H1040 N1037 0.986 . S
H1041 N1037 0.985 . S
H1042 N1036 0.984 . S
H1043 N1036 0.986 . S
H1044 N1032 0.984 . S
H1045 N1032 0.985 . S
C1046 C1047 1.363 1_556 S
C1046 C1052 1.379 . S
C1046 N1054 1.356 . S
C1047 C1046 1.363 1_554 S
C1047 C1053 1.363 . S
C1048 C1049 1.363 1_554 S
C1048 C1053 1.379 . S
C1048 N1055 1.356 . S
C1049 C1048 1.363 1_556 S
C1049 C1052 1.363 . S
N1050 C1052 1.356 . S
N1050 H1062 0.984 . S
N1050 H1063 0.985 . S
N1051 C1053 1.356 . S
N1051 H1056 0.984 . S
N1051 H1057 0.985 . S
C1052 C1046 1.379 . S
C1052 C1049 1.363 . S
C1052 N1050 1.356 . S
C1053 C1047 1.363 . S
C1053 C1048 1.379 . S
C1053 N1051 1.356 . S
N1054 C1046 1.356 . S
N1054 H1060 0.984 . S
N1054 H1061 0.984 . S
N1055 C1048 1.356 . S
N1055 H1058 0.984 . S
N1055 H1059 0.985 . S
H1056 N1051 0.984 . S
H1057 N1051 0.985 . S
H1058 N1055 0.984 . S
H1059 N1055 0.985 . S
H1060 N1054 0.984 . S
H1061 N1054 0.984 . S
H1062 N1050 0.984 . S
H1063 N1050 0.985 . S
C1064 C1065 1.363 . S
C1064 C1070 1.379 . S
C1064 N1072 1.356 . S
C1065 C1064 1.363 . S
C1065 C1071 1.363 1_655 S
C1066 C1067 1.363 . S
C1066 C1071 1.379 . S
C1066 N1073 1.356 . S
C1067 C1066 1.363 . S
C1067 C1070 1.363 1_455 S
N1068 C1070 1.356 . S
N1068 H1080 0.984 . S
N1068 H1081 0.985 . S
N1069 C1071 1.356 . S
N1069 H1074 0.984 . S
N1069 H1075 0.985 . S
C1070 C1064 1.379 . S
C1070 C1067 1.363 1_655 S
C1070 N1068 1.356 . S
C1071 C1065 1.363 1_455 S
C1071 C1066 1.379 . S
C1071 N1069 1.356 . S
N1072 C1064 1.356 . S
N1072 H1078 0.984 . S
N1072 H1079 0.984 . S
N1073 C1066 1.356 . S
N1073 H1076 0.984 . S
N1073 H1077 0.985 . S
H1074 N1069 0.984 . S
H1075 N1069 0.985 . S
H1076 N1073 0.984 . S
H1077 N1073 0.985 . S
H1078 N1072 0.984 . S
H1079 N1072 0.984 . S
H1080 N1068 0.984 . S
H1081 N1068 0.985 . S
C1082 C1083 1.363 . S
C1082 C1088 1.379 1_565 S
C1082 N1090 1.356 . S
C1083 C1082 1.363 . S
C1083 C1089 1.363 . S
C1084 C1085 1.363 . S
C1084 C1089 1.379 1_545 S
C1084 N1091 1.356 . S
C1085 C1084 1.363 . S
C1085 C1088 1.363 . S
N1086 C1088 1.356 . S
N1086 H1098 0.984 . S
N1086 H1099 0.985 . S
N1087 C1089 1.356 . S
N1087 H1092 0.984 . S
N1087 H1093 0.985 . S
C1088 C1082 1.379 1_545 S
C1088 C1085 1.363 . S
C1088 N1086 1.356 . S
C1089 C1083 1.363 . S
C1089 C1084 1.379 1_565 S
C1089 N1087 1.356 . S
N1090 C1082 1.356 . S
N1090 H1096 0.984 . S
N1090 H1097 0.984 . S
N1091 C1084 1.356 . S
N1091 H1094 0.984 . S
N1091 H1095 0.985 . S
H1092 N1087 0.984 . S
H1093 N1087 0.985 . S
H1094 N1091 0.984 . S
H1095 N1091 0.985 . S
H1096 N1090 0.984 . S
H1097 N1090 0.984 . S
H1098 N1086 0.984 . S
H1099 N1086 0.985 . S
C1100 C1101 1.363 . S
C1100 C1106 1.379 . S
C1100 N1108 1.356 . S
C1101 C1100 1.363 . S
C1101 C1107 1.363 1_556 S
C1102 C1103 1.363 . S
C1102 C1107 1.379 . S
C1102 N1109 1.356 . S
C1103 C1102 1.363 . S
C1103 C1106 1.363 1_554 S
N1104 C1106 1.356 . S
N1104 H1116 0.984 . S
N1104 H1117 0.985 . S
N1105 C1107 1.356 . S
N1105 H1110 0.984 . S
N1105 H1111 0.985 . S
C1106 C1100 1.379 . S
C1106 C1103 1.363 1_556 S
C1106 N1104 1.356 . S
C1107 C1101 1.363 1_554 S
C1107 C1102 1.379 . S
C1107 N1105 1.356 . S
N1108 C1100 1.356 . S
N1108 H1114 0.984 . S
N1108 H1115 0.984 . S
N1109 C1102 1.356 . S
N1109 H1112 0.984 . S
N1109 H1113 0.985 . S
H1110 N1105 0.984 . S
H1111 N1105 0.985 . S
H1112 N1109 0.984 . S
H1113 N1109 0.985 . S
H1114 N1108 0.984 . S
H1115 N1108 0.984 . S
H1116 N1104 0.984 . S
H1117 N1104 0.985 . S
C1118 C1119 1.363 . S
C1118 C1124 1.379 . S
C1118 N1126 1.356 . S
C1119 C1118 1.363 . S
C1119 C1125 1.363 . S
C1120 C1121 1.363 . S
C1120 C1125 1.379 . S
C1120 N1127 1.356 . S
C1121 C1120 1.363 . S
C1121 C1124 1.363 . S
N1122 C1124 1.356 . S
N1122 H1134 0.984 . S
N1122 H1135 0.985 . S
N1123 C1125 1.356 . S
N1123 H1128 0.984 . S
N1123 H1129 0.985 . S
C1124 C1118 1.379 . S
C1124 C1121 1.363 . S
C1124 N1122 1.356 . S
C1125 C1119 1.363 . S
C1125 C1120 1.379 . S
C1125 N1123 1.356 . S
N1126 C1118 1.356 . S
N1126 H1132 0.984 . S
N1126 H1133 0.984 . S
N1127 C1120 1.356 . S
N1127 H1130 0.984 . S
N1127 H1131 0.985 . S
H1128 N1123 0.984 . S
H1129 N1123 0.985 . S
H1130 N1127 0.984 . S
H1131 N1127 0.985 . S
H1132 N1126 0.984 . S
H1133 N1126 0.984 . S
H1134 N1122 0.984 . S
H1135 N1122 0.985 . S
C1136 C1137 1.363 1_655 S
C1136 C1142 1.379 . S
C1136 N1144 1.356 . S
C1137 C1136 1.363 1_455 S
C1137 C1143 1.363 . S
C1138 C1139 1.363 1_455 S
C1138 C1143 1.379 . S
C1138 N1145 1.356 . S
C1139 C1138 1.363 1_655 S
C1139 C1142 1.363 . S
N1140 C1142 1.356 . S
N1140 H1152 0.984 . S
N1140 H1153 0.985 . S
N1141 C1143 1.356 . S
N1141 H1146 0.984 . S
N1141 H1147 0.985 . S
C1142 C1136 1.379 . S
C1142 C1139 1.363 . S
C1142 N1140 1.356 . S
C1143 C1137 1.363 . S
C1143 C1138 1.379 . S
C1143 N1141 1.356 . S
N1144 C1136 1.356 . S
N1144 H1150 0.984 . S
N1144 H1151 0.984 . S
N1145 C1138 1.356 . S
N1145 H1148 0.984 . S
N1145 H1149 0.985 . S
H1146 N1141 0.984 . S
H1147 N1141 0.985 . S
H1148 N1145 0.984 . S
H1149 N1145 0.985 . S
H1150 N1144 0.984 . S
H1151 N1144 0.984 . S
H1152 N1140 0.984 . S
H1153 N1140 0.985 . S
C1154 C1155 1.363 . S
C1154 C1160 1.379 . S
C1154 N1162 1.356 . S
C1155 C1154 1.363 . S
C1155 C1161 1.363 . S
C1156 C1157 1.363 . S
C1156 C1161 1.379 . S
C1156 N1163 1.356 . S
C1157 C1156 1.363 . S
C1157 C1160 1.363 . S
N1158 C1160 1.356 . S
N1158 H1170 0.984 . S
N1158 H1171 0.985 . S
N1159 C1161 1.356 . S
N1159 H1164 0.984 . S
N1159 H1165 0.985 . S
C1160 C1154 1.379 . S
C1160 C1157 1.363 . S
C1160 N1158 1.356 . S
C1161 C1155 1.363 . S
C1161 C1156 1.379 . S
C1161 N1159 1.356 . S
N1162 C1154 1.356 . S
N1162 H1168 0.984 . S
N1162 H1169 0.984 . S
N1163 C1156 1.356 . S
N1163 H1166 0.984 . S
N1163 H1167 0.985 . S
H1164 N1159 0.984 . S
H1165 N1159 0.985 . S
H1166 N1163 0.984 . S
H1167 N1163 0.985 . S
H1168 N1162 0.984 . S
H1169 N1162 0.984 . S
H1170 N1158 0.984 . S
H1171 N1158 0.985 . S
C1172 C1173 1.363 . S
C1172 C1178 1.379 . S
C1172 N1180 1.356 . S
C1173 C1172 1.363 . S
C1173 C1179 1.363 . S
C1174 C1175 1.363 . S
C1174 C1179 1.379 . S
C1174 N1181 1.356 . S
C1175 C1174 1.363 . S
C1175 C1178 1.363 . S
N1176 C1178 1.356 . S
N1176 H1188 0.984 . S
N1176 H1189 0.985 . S
N1177 C1179 1.356 . S
N1177 H1182 0.984 . S
N1177 H1183 0.985 . S
C1178 C1172 1.379 . S
C1178 C1175 1.363 . S
C1178 N1176 1.356 . S
C1179 C1173 1.363 . S
C1179 C1174 1.379 . S
C1179 N1177 1.356 . S
N1180 C1172 1.356 . S
N1180 H1186 0.984 . S
N1180 H1187 0.984 . S
N1181 C1174 1.356 . S
N1181 H1184 0.984 . S
N1181 H1185 0.985 . S
H1182 N1177 0.984 . S
H1183 N1177 0.985 . S
H1184 N1181 0.984 . S
H1185 N1181 0.985 . S
H1186 N1180 0.984 . S
H1187 N1180 0.984 . S
H1188 N1176 0.984 . S
H1189 N1176 0.985 . S
C1190 C1191 1.363 . S
C1190 C1196 1.379 . S
C1190 N1198 1.356 . S
C1191 C1190 1.363 . S
C1191 C1197 1.363 . S
C1192 C1193 1.363 . S
C1192 C1197 1.379 . S
C1192 N1199 1.356 . S
C1193 C1192 1.363 . S
C1193 C1196 1.363 . S
N1194 C1196 1.356 . S
N1194 H1206 0.984 . S
N1194 H1207 0.985 . S
N1195 C1197 1.356 . S
N1195 H1200 0.984 . S
N1195 H1201 0.985 . S
C1196 C1190 1.379 . S
C1196 C1193 1.363 . S
C1196 N1194 1.356 . S
C1197 C1191 1.363 . S
C1197 C1192 1.379 . S
C1197 N1195 1.356 . S
N1198 C1190 1.356 . S
N1198 H1204 0.984 . S
N1198 H1205 0.984 . S
N1199 C1192 1.356 . S
N1199 H1202 0.984 . S
N1199 H1203 0.985 . S
H1200 N1195 0.984 . S
H1201 N1195 0.985 . S
H1202 N1199 0.984 . S
H1203 N1199 0.985 . S
H1204 N1198 0.984 . S
H1205 N1198 0.984 . S
H1206 N1194 0.984 . S
H1207 N1194 0.985 . S
C1208 C1209 1.363 . S
C1208 C1214 1.379 . S
C1208 N1216 1.356 . S
C1209 C1208 1.363 . S
C1209 C1215 1.363 . S
C1210 C1211 1.363 . S
C1210 C1215 1.379 . S
C1210 N1217 1.356 . S
C1211 C1210 1.363 . S
C1211 C1214 1.363 . S
N1212 C1214 1.356 . S
N1212 H1224 0.984 . S
N1212 H1225 0.985 . S
N1213 C1215 1.356 . S
N1213 H1218 0.984 . S
N1213 H1219 0.985 . S
C1214 C1208 1.379 . S
C1214 C1211 1.363 . S
C1214 N1212 1.356 . S
C1215 C1209 1.363 . S
C1215 C1210 1.379 . S
C1215 N1213 1.356 . S
N1216 C1208 1.356 . S
N1216 H1222 0.984 . S
N1216 H1223 0.984 . S
N1217 C1210 1.356 . S
N1217 H1220 0.984 . S
N1217 H1221 0.985 . S
H1218 N1213 0.984 . S
H1219 N1213 0.985 . S
H1220 N1217 0.984 . S
H1221 N1217 0.985 . S
H1222 N1216 0.984 . S
H1223 N1216 0.984 . S
H1224 N1212 0.984 . S
H1225 N1212 0.985 . S
C1226 C1227 1.363 . S
C1226 C1232 1.379 1_545 S
C1226 N1234 1.356 . S
C1227 C1226 1.363 . S
C1227 C1233 1.363 . S
C1228 C1229 1.363 . S
C1228 C1233 1.379 1_565 S
C1228 N1235 1.356 . S
C1229 C1228 1.363 . S
C1229 C1232 1.363 . S
N1230 C1232 1.356 . S
N1230 H1242 0.984 . S
N1230 H1243 0.985 . S
N1231 C1233 1.356 . S
N1231 H1236 0.984 . S
N1231 H1237 0.985 . S
C1232 C1226 1.379 1_565 S
C1232 C1229 1.363 . S
C1232 N1230 1.356 . S
C1233 C1227 1.363 . S
C1233 C1228 1.379 1_545 S
C1233 N1231 1.356 . S
N1234 C1226 1.356 . S
N1234 H1240 0.984 . S
N1234 H1241 0.984 . S
N1235 C1228 1.356 . S
N1235 H1238 0.984 . S
N1235 H1239 0.985 . S
H1236 N1231 0.984 . S
H1237 N1231 0.985 . S
H1238 N1235 0.984 . S
H1239 N1235 0.985 . S
H1240 N1234 0.984 . S
H1241 N1234 0.984 . S
H1242 N1230 0.984 . S
H1243 N1230 0.985 . S
C1244 C1245 1.363 . S
C1244 C1250 1.379 . S
C1244 N1252 1.356 . S
C1245 C1244 1.363 . S
C1245 C1251 1.363 . S
C1246 C1247 1.363 . S
C1246 C1251 1.379 . S
C1246 N1253 1.356 . S
C1247 C1246 1.363 . S
C1247 C1250 1.363 . S
N1248 C1250 1.356 . S
N1248 H1260 0.984 . S
N1248 H1261 0.985 . S
N1249 C1251 1.356 . S
N1249 H1254 0.984 . S
N1249 H1255 0.985 . S
C1250 C1244 1.379 . S
C1250 C1247 1.363 . S
C1250 N1248 1.356 . S
C1251 C1245 1.363 . S
C1251 C1246 1.379 . S
C1251 N1249 1.356 . S
N1252 C1244 1.356 . S
N1252 H1258 0.984 . S
N1252 H1259 0.984 . S
N1253 C1246 1.356 . S
N1253 H1256 0.984 . S
N1253 H1257 0.985 . S
H1254 N1249 0.984 . S
H1255 N1249 0.985 . S
H1256 N1253 0.984 . S
H1257 N1253 0.985 . S
H1258 N1252 0.984 . S
H1259 N1252 0.984 . S
H1260 N1248 0.984 . S
H1261 N1248 0.985 . S
C1262 C1263 1.363 1_554 S
C1262 C1268 1.379 . S
C1262 N1270 1.356 . S
C1263 C1262 1.363 1_556 S
C1263 C1269 1.363 . S
C1264 C1265 1.363 1_556 S
C1264 C1269 1.379 . S
C1264 N1271 1.356 . S
C1265 C1264 1.363 1_554 S
C1265 C1268 1.363 . S
N1266 C1268 1.356 . S
N1266 H1278 0.984 . S
N1266 H1279 0.985 . S
N1267 C1269 1.356 . S
N1267 H1272 0.984 . S
N1267 H1273 0.985 . S
C1268 C1262 1.379 . S
C1268 C1265 1.363 . S
C1268 N1266 1.356 . S
C1269 C1263 1.363 . S
C1269 C1264 1.379 . S
C1269 N1267 1.356 . S
N1270 C1262 1.356 . S
N1270 H1276 0.984 . S
N1270 H1277 0.984 1_554 S
N1271 C1264 1.356 . S
N1271 H1274 0.984 1_556 S
N1271 H1275 0.985 . S
H1272 N1267 0.984 . S
H1273 N1267 0.985 . S
H1274 N1271 0.984 1_554 S
H1275 N1271 0.985 . S
H1276 N1270 0.984 . S
H1277 N1270 0.984 1_556 S
H1278 N1266 0.984 . S
H1279 N1266 0.985 . S
C1280 C1281 1.363 . S
C1280 C1286 1.379 . S
C1280 N1288 1.356 . S
C1281 C1280 1.363 . S
C1281 C1287 1.363 . S
C1282 C1283 1.363 . S
C1282 C1287 1.379 . S
C1282 N1289 1.356 . S
C1283 C1282 1.363 . S
C1283 C1286 1.363 . S
N1284 C1286 1.356 . S
N1284 H1296 0.984 . S
N1284 H1297 0.985 . S
N1285 C1287 1.356 . S
N1285 H1290 0.984 . S
N1285 H1291 0.985 . S
C1286 C1280 1.379 . S
C1286 C1283 1.363 . S
C1286 N1284 1.356 . S
C1287 C1281 1.363 . S
C1287 C1282 1.379 . S
C1287 N1285 1.356 . S
N1288 C1280 1.356 . S
N1288 H1294 0.984 . S
N1288 H1295 0.984 . S
N1289 C1282 1.356 . S
N1289 H1292 0.984 . S
N1289 H1293 0.985 . S
H1290 N1285 0.984 . S
H1291 N1285 0.985 . S
H1292 N1289 0.984 . S
H1293 N1289 0.985 . S
H1294 N1288 0.984 . S
H1295 N1288 0.984 . S
H1296 N1284 0.984 . S
H1297 N1284 0.985 . S
C1298 C1299 1.363 . S
C1298 C1304 1.379 . S
C1298 N1306 1.356 . S
C1299 C1298 1.363 . S
C1299 C1305 1.363 . S
C1300 C1301 1.363 . S
C1300 C1305 1.379 . S
C1300 N1307 1.356 . S
C1301 C1300 1.363 . S
C1301 C1304 1.363 . S
N1302 C1304 1.356 . S
N1302 H1314 0.984 . S
N1302 H1315 0.985 . S
N1303 C1305 1.356 . S
N1303 H1308 0.984 . S
N1303 H1309 0.985 . S
C1304 C1298 1.379 . S
C1304 C1301 1.363 . S
C1304 N1302 1.356 . S
C1305 C1299 1.363 . S
C1305 C1300 1.379 . S
C1305 N1303 1.356 . S
N1306 C1298 1.356 . S
N1306 H1312 0.984 . S
N1306 H1313 0.984 . S
N1307 C1300 1.356 . S
N1307 H1310 0.984 . S
N1307 H1311 0.985 . S
H1308 N1303 0.984 . S
H1309 N1303 0.985 . S
H1310 N1307 0.984 . S
H1311 N1307 0.985 . S
H1312 N1306 0.984 . S
H1313 N1306 0.984 . S
H1314 N1302 0.984 . S
H1315 N1302 0.985 . S
C1316 C1317 1.363 . S
C1316 C1322 1.379 . S
C1316 N1324 1.356 . S
C1317 C1316 1.363 . S
C1317 C1323 1.363 . S
C1318 C1319 1.363 . S
C1318 C1323 1.379 . S
C1318 N1325 1.356 . S
C1319 C1318 1.363 . S
C1319 C1322 1.363 . S
N1320 C1322 1.356 . S
N1320 H1332 0.984 . S
N1320 H1333 0.985 . S
N1321 C1323 1.356 . S
N1321 H1326 0.984 . S
N1321 H1327 0.985 . S
C1322 C1316 1.379 . S
C1322 C1319 1.363 . S
C1322 N1320 1.356 . S
C1323 C1317 1.363 . S
C1323 C1318 1.379 . S
C1323 N1321 1.356 . S
N1324 C1316 1.356 . S
N1324 H1330 0.984 . S
N1324 H1331 0.984 . S
N1325 C1318 1.356 . S
N1325 H1328 0.984 . S
N1325 H1329 0.985 . S
H1326 N1321 0.984 . S
H1327 N1321 0.985 . S
H1328 N1325 0.984 . S
H1329 N1325 0.985 . S
H1330 N1324 0.984 . S
H1331 N1324 0.984 . S
H1332 N1320 0.984 . S
H1333 N1320 0.985 . S
C1334 C1335 1.363 . S
C1334 C1340 1.379 . S
C1334 N1342 1.356 . S
C1335 C1334 1.363 . S
C1335 C1341 1.363 . S
C1336 C1337 1.363 . S
C1336 C1341 1.379 . S
C1336 N1343 1.356 . S
C1337 C1336 1.363 . S
C1337 C1340 1.363 . S
N1338 C1340 1.356 . S
N1338 H1350 0.984 . S
N1338 H1351 0.985 . S
N1339 C1341 1.356 . S
N1339 H1344 0.984 . S
N1339 H1345 0.985 . S
C1340 C1334 1.379 . S
C1340 C1337 1.363 . S
C1340 N1338 1.356 . S
C1341 C1335 1.363 . S
C1341 C1336 1.379 . S
C1341 N1339 1.356 . S
N1342 C1334 1.356 . S
N1342 H1348 0.984 . S
N1342 H1349 0.984 . S
N1343 C1336 1.356 . S
N1343 H1346 0.984 . S
N1343 H1347 0.985 . S
H1344 N1339 0.984 . S
H1345 N1339 0.985 . S
H1346 N1343 0.984 . S
H1347 N1343 0.985 . S
H1348 N1342 0.984 . S
H1349 N1342 0.984 . S
H1350 N1338 0.984 . S
H1351 N1338 0.985 . S
C1352 C1353 1.363 . S
C1352 C1358 1.379 . S
C1352 N1360 1.356 . S
C1353 C1352 1.363 . S
C1353 C1359 1.363 . S
C1354 C1355 1.363 . S
C1354 C1359 1.379 . S
C1354 N1361 1.356 . S
C1355 C1354 1.363 . S
C1355 C1358 1.363 . S
N1356 C1358 1.356 . S
N1356 H1368 0.984 . S
N1356 H1369 0.985 . S
N1357 C1359 1.356 . S
N1357 H1362 0.984 . S
N1357 H1363 0.985 . S
C1358 C1352 1.379 . S
C1358 C1355 1.363 . S
C1358 N1356 1.356 . S
C1359 C1353 1.363 . S
C1359 C1354 1.379 . S
C1359 N1357 1.356 . S
N1360 C1352 1.356 . S
N1360 H1366 0.984 . S
N1360 H1367 0.984 . S
N1361 C1354 1.356 . S
N1361 H1364 0.984 . S
N1361 H1365 0.985 . S
H1362 N1357 0.984 . S
H1363 N1357 0.985 . S
H1364 N1361 0.984 . S
H1365 N1361 0.985 . S
H1366 N1360 0.984 . S
H1367 N1360 0.984 . S
H1368 N1356 0.984 . S
H1369 N1356 0.985 . S
C1370 C1371 1.363 . S
C1370 C1376 1.379 . S
C1370 N1378 1.356 . S
C1371 C1370 1.363 . S
C1371 C1377 1.363 . S
C1372 C1373 1.363 . S
C1372 C1377 1.379 . S
C1372 N1379 1.356 . S
C1373 C1372 1.363 . S
C1373 C1376 1.363 . S
N1374 C1376 1.356 . S
N1374 H1386 0.984 . S
N1374 H1387 0.985 . S
N1375 C1377 1.356 . S
N1375 H1380 0.984 . S
N1375 H1381 0.985 . S
C1376 C1370 1.379 . S
C1376 C1373 1.363 . S
C1376 N1374 1.356 . S
C1377 C1371 1.363 . S
C1377 C1372 1.379 . S
C1377 N1375 1.356 . S
N1378 C1370 1.356 . S
N1378 H1384 0.984 . S
N1378 H1385 0.984 . S
N1379 C1372 1.356 . S
N1379 H1382 0.984 . S
N1379 H1383 0.985 . S
H1380 N1375 0.984 . S
H1381 N1375 0.985 . S
H1382 N1379 0.984 . S
H1383 N1379 0.985 . S
H1384 N1378 0.984 . S
H1385 N1378 0.984 . S
H1386 N1374 0.984 . S
H1387 N1374 0.985 . S
C1388 C1389 1.363 . S
C1388 C1394 1.379 . S
C1388 N1396 1.356 . S
C1389 C1388 1.363 . S
C1389 C1395 1.363 . S
C1390 C1391 1.363 . S
C1390 C1395 1.379 . S
C1390 N1397 1.356 . S
C1391 C1390 1.363 . S
C1391 C1394 1.363 . S
N1392 C1394 1.356 . S
N1392 H1404 0.984 . S
N1392 H1405 0.985 . S
N1393 C1395 1.356 . S
N1393 H1398 0.984 . S
N1393 H1399 0.985 . S
C1394 C1388 1.379 . S
C1394 C1391 1.363 . S
C1394 N1392 1.356 . S
C1395 C1389 1.363 . S
C1395 C1390 1.379 . S
C1395 N1393 1.356 . S
N1396 C1388 1.356 . S
N1396 H1402 0.984 . S
N1396 H1403 0.984 . S
N1397 C1390 1.356 . S
N1397 H1400 0.984 . S
N1397 H1401 0.985 . S
H1398 N1393 0.984 . S
H1399 N1393 0.985 . S
H1400 N1397 0.984 . S
H1401 N1397 0.985 . S
H1402 N1396 0.984 . S
H1403 N1396 0.984 . S
H1404 N1392 0.984 . S
H1405 N1392 0.985 . S
C1406 C1407 1.363 . S
C1406 C1412 1.379 . S
C1406 N1414 1.356 . S
C1407 C1406 1.363 . S
C1407 C1413 1.363 . S
C1408 C1409 1.363 . S
C1408 C1413 1.379 . S
C1408 N1415 1.356 . S
C1409 C1408 1.363 . S
C1409 C1412 1.363 . S
N1410 C1412 1.356 . S
N1410 H1422 0.984 . S
N1410 H1423 0.985 . S
N1411 C1413 1.356 . S
N1411 H1416 0.984 . S
N1411 H1417 0.985 . S
C1412 C1406 1.379 . S
C1412 C1409 1.363 . S
C1412 N1410 1.356 . S
C1413 C1407 1.363 . S
C1413 C1408 1.379 . S
C1413 N1411 1.356 . S
N1414 C1406 1.356 . S
N1414 H1420 0.984 . S
N1414 H1421 0.984 . S
N1415 C1408 1.356 . S
N1415 H1418 0.984 . S
N1415 H1419 0.985 . S
H1416 N1411 0.984 . S
H1417 N1411 0.985 . S
H1418 N1415 0.984 . S
H1419 N1415 0.985 . S
H1420 N1414 0.984 . S
H1421 N1414 0.984 . S
H1422 N1410 0.984 . S
H1423 N1410 0.985 . S
C1424 C1425 1.363 . S
C1424 C1430 1.379 . S
C1424 N1432 1.356 . S
C1425 C1424 1.363 . S
C1425 C1431 1.363 . S
C1426 C1427 1.363 . S
C1426 C1431 1.379 . S
C1426 N1433 1.356 . S
C1427 C1426 1.363 . S
C1427 C1430 1.363 . S
N1428 C1430 1.356 . S
N1428 H1440 0.984 . S
N1428 H1441 0.985 . S
N1429 C1431 1.356 . S
N1429 H1434 0.984 . S
N1429 H1435 0.985 . S
C1430 C1424 1.379 . S
C1430 C1427 1.363 . S
C1430 N1428 1.356 . S
C1431 C1425 1.363 . S
C1431 C1426 1.379 . S
C1431 N1429 1.356 . S
N1432 C1424 1.356 . S
N1432 H1438 0.984 . S
N1432 H1439 0.984 . S
N1433 C1426 1.356 . S
N1433 H1436 0.984 . S
N1433 H1437 0.985 . S
H1434 N1429 0.984 . S
H1435 N1429 0.985 . S
H1436 N1433 0.984 . S
H1437 N1433 0.985 . S
H1438 N1432 0.984 . S
H1439 N1432 0.984 . S
H1440 N1428 0.984 . S
H1441 N1428 0.985 . S
C1442 C1443 1.363 . S
C1442 C1448 1.379 . S
C1442 N1450 1.356 . S
C1443 C1442 1.363 . S
C1443 C1449 1.363 . S
C1444 C1445 1.363 . S
C1444 C1449 1.379 . S
C1444 N1451 1.356 . S
C1445 C1444 1.363 . S
C1445 C1448 1.363 . S
N1446 C1448 1.356 . S
N1446 H1458 0.984 . S
N1446 H1459 0.985 . S
N1447 C1449 1.356 . S
N1447 H1452 0.984 . S
N1447 H1453 0.985 . S
C1448 C1442 1.379 . S
C1448 C1445 1.363 . S
C1448 N1446 1.356 . S
C1449 C1443 1.363 . S
C1449 C1444 1.379 . S
C1449 N1447 1.356 . S
N1450 C1442 1.356 . S
N1450 H1456 0.984 . S
N1450 H1457 0.984 . S
N1451 C1444 1.356 . S
N1451 H1454 0.984 . S
N1451 H1455 0.985 . S
H1452 N1447 0.984 . S
H1453 N1447 0.985 . S
H1454 N1451 0.984 . S
H1455 N1451 0.985 . S
H1456 N1450 0.984 . S
H1457 N1450 0.984 . S
H1458 N1446 0.984 . S
H1459 N1446 0.985 . S
C1460 C1461 1.363 . S
C1460 C1466 1.379 . S
C1460 N1468 1.356 . S
C1461 C1460 1.363 . S
C1461 C1467 1.363 . S
C1462 C1463 1.363 . S
C1462 C1467 1.379 . S
C1462 N1469 1.356 . S
C1463 C1462 1.363 . S
C1463 C1466 1.363 . S
N1464 C1466 1.356 . S
N1464 H1476 0.984 . S
N1464 H1477 0.985 . S
N1465 C1467 1.356 . S
N1465 H1470 0.984 . S
N1465 H1471 0.985 . S
C1466 C1460 1.379 . S
C1466 C1463 1.363 . S
C1466 N1464 1.356 . S
C1467 C1461 1.363 . S
C1467 C1462 1.379 . S
C1467 N1465 1.356 . S
N1468 C1460 1.356 . S
N1468 H1474 0.984 . S
N1468 H1475 0.984 . S
N1469 C1462 1.356 . S
N1469 H1472 0.984 . S
N1469 H1473 0.985 . S
H1470 N1465 0.984 . S
H1471 N1465 0.985 . S
H1472 N1469 0.984 . S
H1473 N1469 0.985 . S
H1474 N1468 0.984 . S
H1475 N1468 0.984 . S
H1476 N1464 0.984 . S
H1477 N1464 0.985 . S
C1478 C1479 1.363 . S
C1478 C1484 1.379 . S
C1478 N1486 1.356 . S
C1479 C1478 1.363 . S
C1479 C1485 1.363 . S
C1480 C1481 1.363 . S
C1480 C1485 1.379 . S
C1480 N1487 1.356 . S
C1481 C1480 1.363 . S
C1481 C1484 1.363 . S
N1482 C1484 1.356 . S
N1482 H1494 0.984 . S
N1482 H1495 0.985 . S
N1483 C1485 1.356 . S
N1483 H1488 0.984 . S
N1483 H1489 0.985 . S
C1484 C1478 1.379 . S
C1484 C1481 1.363 . S
C1484 N1482 1.356 . S
C1485 C1479 1.363 . S
C1485 C1480 1.379 . S
C1485 N1483 1.356 . S
N1486 C1478 1.356 . S
N1486 H1492 0.984 . S
N1486 H1493 0.984 . S
N1487 C1480 1.356 . S
N1487 H1490 0.984 . S
N1487 H1491 0.985 . S
H1488 N1483 0.984 . S
H1489 N1483 0.985 . S
H1490 N1487 0.984 . S
H1491 N1487 0.985 . S
H1492 N1486 0.984 . S
H1493 N1486 0.984 . S
H1494 N1482 0.984 . S
H1495 N1482 0.985 . S
C1496 C1497 1.363 . S
C1496 C1502 1.379 . S
C1496 N1504 1.356 . S
C1497 C1496 1.363 . S
C1497 C1503 1.363 . S
C1498 C1499 1.363 . S
C1498 C1503 1.379 . S
C1498 N1505 1.356 . S
C1499 C1498 1.363 . S
C1499 C1502 1.363 . S
N1500 C1502 1.356 . S
N1500 H1512 0.984 . S
N1500 H1513 0.985 . S
N1501 C1503 1.356 . S
N1501 H1506 0.984 . S
N1501 H1507 0.985 . S
C1502 C1496 1.379 . S
C1502 C1499 1.363 . S
C1502 N1500 1.356 . S
C1503 C1497 1.363 . S
C1503 C1498 1.379 . S
C1503 N1501 1.356 . S
N1504 C1496 1.356 . S
N1504 H1510 0.984 . S
N1504 H1511 0.984 . S
N1505 C1498 1.356 . S
N1505 H1508 0.984 . S
N1505 H1509 0.985 . S
H1506 N1501 0.984 . S
H1507 N1501 0.985 . S
H1508 N1505 0.984 . S
H1509 N1505 0.985 . S
H1510 N1504 0.984 . S
H1511 N1504 0.984 . S
H1512 N1500 0.984 . S
H1513 N1500 0.985 . S
C1514 C1515 1.363 . S
C1514 C1520 1.379 . S
C1514 N1522 1.356 . S
C1515 C1514 1.363 . S
C1515 C1521 1.363 . S
C1516 C1517 1.363 . S
C1516 C1521 1.379 . S
C1516 N1523 1.356 . S
C1517 C1516 1.363 . S
C1517 C1520 1.363 . S
N1518 C1520 1.356 . S
N1518 H1530 0.984 . S
N1518 H1531 0.985 . S
N1519 C1521 1.356 . S
N1519 H1524 0.984 . S
N1519 H1525 0.985 . S
C1520 C1514 1.379 . S
C1520 C1517 1.363 . S
C1520 N1518 1.356 . S
C1521 C1515 1.363 . S
C1521 C1516 1.379 . S
C1521 N1519 1.356 . S
N1522 C1514 1.356 . S
N1522 H1528 0.984 . S
N1522 H1529 0.984 . S
N1523 C1516 1.356 . S
N1523 H1526 0.984 . S
N1523 H1527 0.985 . S
H1524 N1519 0.984 . S
H1525 N1519 0.985 . S
H1526 N1523 0.984 . S
H1527 N1523 0.985 . S
H1528 N1522 0.984 . S
H1529 N1522 0.984 . S
H1530 N1518 0.984 . S
H1531 N1518 0.985 . S
C1532 C1533 1.363 . S
C1532 C1538 1.379 . S
C1532 N1540 1.356 . S
C1533 C1532 1.363 . S
C1533 C1539 1.363 . S
C1534 C1535 1.363 . S
C1534 C1539 1.379 . S
C1534 N1541 1.356 . S
C1535 C1534 1.363 . S
C1535 C1538 1.363 . S
N1536 C1538 1.356 . S
N1536 H1548 0.984 . S
N1536 H1549 0.985 . S
N1537 C1539 1.356 . S
N1537 H1542 0.984 . S
N1537 H1543 0.985 . S
C1538 C1532 1.379 . S
C1538 C1535 1.363 . S
C1538 N1536 1.356 . S
C1539 C1533 1.363 . S
C1539 C1534 1.379 . S
C1539 N1537 1.356 . S
N1540 C1532 1.356 . S
N1540 H1546 0.984 . S
N1540 H1547 0.984 . S
N1541 C1534 1.356 . S
N1541 H1544 0.984 . S
N1541 H1545 0.985 . S
H1542 N1537 0.984 . S
H1543 N1537 0.985 . S
H1544 N1541 0.984 . S
H1545 N1541 0.985 . S
H1546 N1540 0.984 . S
H1547 N1540 0.984 . S
H1548 N1536 0.984 . S
H1549 N1536 0.985 . S
C1550 C1551 1.363 . S
C1550 C1556 1.379 . S
C1550 N1558 1.356 . S
C1551 C1550 1.363 . S
C1551 C1557 1.363 . S
C1552 C1553 1.363 . S
C1552 C1557 1.379 . S
C1552 N1559 1.356 . S
C1553 C1552 1.363 . S
C1553 C1556 1.363 . S
N1554 C1556 1.356 . S
N1554 H1566 0.984 . S
N1554 H1567 0.985 . S
N1555 C1557 1.356 . S
N1555 H1560 0.984 . S
N1555 H1561 0.985 . S
C1556 C1550 1.379 . S
C1556 C1553 1.363 . S
C1556 N1554 1.356 . S
C1557 C1551 1.363 . S
C1557 C1552 1.379 . S
C1557 N1555 1.356 . S
N1558 C1550 1.356 . S
N1558 H1564 0.984 . S
N1558 H1565 0.984 . S
N1559 C1552 1.356 . S
N1559 H1562 0.984 . S
N1559 H1563 0.985 . S
H1560 N1555 0.984 . S
H1561 N1555 0.985 . S
H1562 N1559 0.984 . S
H1563 N1559 0.985 . S
H1564 N1558 0.984 . S
H1565 N1558 0.984 . S
H1566 N1554 0.984 . S
H1567 N1554 0.985 . S
C417 C134 1.417 . S
C419 C10 1.417 . S
C435 C17 1.417 . S
C437 C153 1.417 . S
C453 C36 1.417 . S
C455 C114 1.417 . S
C471 C127 1.417 . S
C473 C43 1.417 . S
C489 C192 1.417 . S
C491 C56 1.417 . S
C507 C75 1.417 . S
C509 C205 1.417 . S
C525 C166 1.417 . S
C527 C82 1.417 . S
C543 C173 1.417 . S
C545 C95 1.417 . S
C561 C348 1.417 . S
C563 C212 1.417 . S
C579 C355 1.417 . S
C581 C225 1.417 . S
C597 C322 1.417 . S
C599 C238 1.417 . S
C615 C251 1.417 . S
C617 C329 1.417 . S
C633 C394 1.417 . S
C635 C264 1.417 . S
C651 C407 1.417 . S
C653 C277 1.417 . S
C669 C290 1.417 . S
C671 C374 1.417 . S
C687 C303 1.417 . S
C689 C387 1.417 . S
C705 C257 1.394 . S
C707 C4 1.394 . S
C723 C23 1.394 1_655 S
C725 C244 1.394 . S
C741 C231 1.394 . S
C743 C30 1.394 . S
C759 C218 1.394 . S
C761 C49 1.394 1_655 S
C777 C62 1.394 . S
C779 C309 1.394 . S
C795 C69 1.394 1_455 S
C797 C296 1.394 . S
C813 C283 1.394 . S
C815 C88 1.394 . S
C831 C101 1.394 1_455 S
C833 C270 1.394 . S
C849 C361 1.394 . S
C851 C108 1.394 . S
C867 C342 1.394 . S
C869 C121 1.394 1_655 S
C885 C335 1.394 . S
C887 C140 1.394 . S
C903 C316 1.394 . S
C905 C147 1.394 1_655 S
C921 C160 1.394 . S
C923 C413 1.394 . S
C939 C400 1.394 . S
C941 C179 1.394 1_455 S
C957 C186 1.394 . S
C959 C381 1.394 . S
C975 C199 1.394 1_455 S
C977 C368 1.394 . S
C993 C159 1.427 . S
C995 C3 1.427 . S
C1011 C18 1.427 . S
C1013 C278 1.427 . S
C1029 C83 1.427 . S
C1031 C29 1.427 . S
C1047 C408 1.427 . S
C1049 C44 1.427 . S
C1065 C57 1.427 . S
C1067 C107 1.427 . S
C1083 C226 1.427 . S
C1085 C68 1.427 . S
C1101 C356 1.427 . S
C1103 C96 1.427 . S
C1119 C380 1.427 . S
C1121 C120 1.427 . S
C1137 C135 1.427 . S
C1139 C185 1.427 . S
C1155 C304 1.427 . S
C1157 C146 1.427 . S
C1173 C330 1.427 . S
C1175 C174 1.427 . S
C1191 C198 1.427 . S
C1193 C252 1.427 . S
C1209 C213 1.427 . S
C1211 C367 1.427 . S
C1227 C291 1.427 . S
C1229 C239 1.427 . S
C1245 C315 1.427 . S
C1247 C265 1.427 . S
C1263 C341 1.427 . S
C1265 C395 1.427 . S
C1281 C5 1.366 . S
C1283 C42 1.366 . S
C1299 C31 1.366 . S
C1301 C16 1.366 . S
C1317 C55 1.366 . S
C1319 C94 1.366 . S
C1335 C70 1.366 . S
C1337 C81 1.366 . S
C1353 C109 1.366 . S
C1355 C148 1.366 . S
C1371 C122 1.366 . S
C1373 C133 1.366 . S
C1389 C161 1.366 . S
C1391 C200 1.366 . S
C1407 C187 1.366 . S
C1409 C172 1.366 . S
C1425 C250 1.366 . S
C1427 C211 1.366 . S
C1443 C237 1.366 . S
C1445 C224 1.366 . S
C1461 C302 1.366 . S
C1463 C263 1.366 . S
C1479 C289 1.366 . S
C1481 C276 1.366 . S
C1497 C354 1.366 . S
C1499 C317 1.366 . S
C1515 C343 1.366 . S
C1517 C328 1.366 . S
C1533 C369 1.366 . S
C1535 C406 1.366 . S
C1551 C393 1.366 . S
C1553 C382 1.366 . S
