# Generated by pormake.
# Topology mdf, (4)-cn, num edge types: 1
# Building blocks:
#     Node 0, Type 0, BuildingBlock: ICAMEG_clean_sbu_1, # of connection points: 4
#     Node 1, Type 0, BuildingBlock: ICAMEG_clean_sbu_1, # of connection points: 4
#     Node 2, Type 0, BuildingBlock: ICAMEG_clean_sbu_1, # of connection points: 4
#     Node 3, Type 0, BuildingBlock: ICAMEG_clean_sbu_1, # of connection points: 4
#     Node 4, Type 0, BuildingBlock: ICAMEG_clean_sbu_1, # of connection points: 4
#     Node 5, Type 0, BuildingBlock: ICAMEG_clean_sbu_1, # of connection points: 4
#     Node 6, Type 0, BuildingBlock: ICAMEG_clean_sbu_1, # of connection points: 4
#     Node 7, Type 0, BuildingBlock: ICAMEG_clean_sbu_1, # of connection points: 4
#     Edge 8, Type (0, 0), BuildingBlock: AJUNOK_clean_linker_0, # of connection points: 2
#     Edge 9, Type (0, 0), BuildingBlock: AJUNOK_clean_linker_0, # of connection points: 2
#     Edge 10, Type (0, 0), BuildingBlock: AJUNOK_clean_linker_0, # of connection points: 2
#     Edge 11, Type (0, 0), BuildingBlock: AJUNOK_clean_linker_0, # of connection points: 2
#     Edge 12, Type (0, 0), BuildingBlock: AJUNOK_clean_linker_0, # of connection points: 2
#     Edge 13, Type (0, 0), BuildingBlock: AJUNOK_clean_linker_0, # of connection points: 2
#     Edge 14, Type (0, 0), BuildingBlock: AJUNOK_clean_linker_0, # of connection points: 2
#     Edge 15, Type (0, 0), BuildingBlock: AJUNOK_clean_linker_0, # of connection points: 2
#     Edge 16, Type (0, 0), BuildingBlock: AJUNOK_clean_linker_0, # of connection points: 2
#     Edge 17, Type (0, 0), BuildingBlock: AJUNOK_clean_linker_0, # of connection points: 2
#     Edge 18, Type (0, 0), BuildingBlock: AJUNOK_clean_linker_0, # of connection points: 2
#     Edge 19, Type (0, 0), BuildingBlock: AJUNOK_clean_linker_0, # of connection points: 2
#     Edge 20, Type (0, 0), BuildingBlock: AJUNOK_clean_linker_0, # of connection points: 2
#     Edge 21, Type (0, 0), BuildingBlock: AJUNOK_clean_linker_0, # of connection points: 2
#     Edge 22, Type (0, 0), BuildingBlock: AJUNOK_clean_linker_0, # of connection points: 2
#     Edge 23, Type (0, 0), BuildingBlock: AJUNOK_clean_linker_0, # of connection points: 2
# Relax obj value: 0.008
# Max RMSD: 0.045
# Mean RMSD: 0.045
data_MOF--net-mdf--node1-ICAMEG_clean_sbu_1--edge1-AJUNOK_clean_linker_0
_symmetry_space_group_name_H-M    P1
_symmetry_Int_Tables_number       1
_symmetry_cell_setting            triclinic
loop_
_symmetry_equiv_pos_as_xyz
'x, y, z'
_cell_length_a     30.649949
_cell_length_b     30.678102
_cell_length_c     9.7115086
_cell_angle_alpha  90.343632
_cell_angle_beta   90.613711
_cell_angle_gamma 89.652826
loop_
_atom_site_label
_atom_site_type_symbol
_atom_site_fract_x
_atom_site_fract_y
_atom_site_fract_z
_atom_type_partial_charge
Co0 Co 0.25072 0.50791 0.49156 0.0
Co1 Co 0.27834 0.50988 0.15651 0.0
O2 O 0.26393 0.54301 0.32536 0.0
C3 C 0.20059 0.59398 0.54044 0.0
O4 O 0.20605 0.60619 0.41249 0.0
C5 C 0.36422 0.55741 0.10439 0.0
O6 O 0.38608 0.52696 0.17016 0.0
O7 O 0.32576 0.47889 0.25562 0.0
O8 O 0.28472 0.45495 0.42187 0.0
H9 H 0.31509 0.36674 -0.04243 0.0
H10 H 0.28103 0.59833 0.56371 0.0
O11 O 0.21559 0.5572 0.58029 0.0
H12 H 0.41213 0.50713 0.59408 0.0
H13 H 0.1374 0.43983 0.77794 0.0
H14 H 0.29139 0.4307 0.65111 0.0
H15 H 0.34088 0.47346 0.59024 0.0
H16 H 0.1701 0.49854 0.64549 0.0
O17 O 0.32238 0.5567 0.10117 0.0
H18 H 0.26727 0.41504 0.07471 0.0
H19 H 0.32675 0.52387 0.88445 0.0
H20 H 0.25836 0.37143 0.77614 0.0
H21 H 0.35116 0.63265 0.5852 0.0
H22 H 0.18283 0.3782 0.85872 0.0
H23 H 0.41827 0.58721 0.58627 0.0
O24 O 0.1977 0.48511 0.39591 0.0
H25 H 0.2075 0.65629 0.006 0.0
H26 H 0.20137 0.47714 0.0066 0.0
H27 H 0.12585 0.4942 0.92699 0.0
H28 H 0.09955 0.57501 0.87677 0.0
H29 H 0.2656 0.60343 0.10504 0.0
H30 H 0.38613 0.47529 0.80618 0.0
H31 H 0.37838 0.39606 0.82644 0.0
O32 O 0.23433 0.46335 0.21088 0.0
C33 C 0.31839 0.45128 0.34751 0.0
C34 C 0.32024 0.40125 -0.05203 0.0
C35 C 0.35832 0.46227 0.8585 0.0
N36 N 0.29514 0.47413 -0.00202 0.0
C37 C 0.2913 0.42983 0.01126 0.0
C38 C 0.32548 0.48972 0.90907 0.0
C39 C 0.35484 0.41762 0.87398 0.0
C40 C 0.30832 0.57715 0.5794 0.0
N41 N 0.30438 0.53254 0.57549 0.0
C42 C 0.34893 0.59745 0.58747 0.0
C43 C 0.38653 0.57217 0.58876 0.0
C44 C 0.383 0.52726 0.59123 0.0
C45 C 0.34171 0.50814 0.58775 0.0
C46 C 0.17197 0.43929 0.75704 0.0
C47 C 0.2585 0.4353 0.684 0.0
C48 C 0.19126 0.47297 0.6834 0.0
N49 N 0.23443 0.47133 0.64756 0.0
C50 C 0.23984 0.40083 0.75561 0.0
C51 C 0.19706 0.404 0.79872 0.0
C52 C 0.20085 0.46168 0.28805 0.0
C53 C 0.20303 0.62098 0.00088 0.0
C54 C 0.1949 0.51157 0.00647 0.0
C55 C 0.14807 0.52073 -0.05401 0.0
C56 C 0.13221 0.56774 0.91701 0.0
N57 N 0.2312 0.54078 0.05463 0.0
C58 C 0.23807 0.58871 0.05415 0.0
Co59 Co 0.51369 0.79455 0.41067 0.0
Co60 Co 0.51896 0.75011 0.72778 0.0
O61 O 0.4828 0.7701 0.56991 0.0
C62 C 0.4261 0.84564 0.40946 0.0
O63 O 0.41196 0.82965 0.52577 0.0
C64 C 0.45656 0.67312 0.72978 0.0
O65 O 0.47134 0.65952 0.61059 0.0
O66 O 0.54595 0.7065 0.60627 0.0
O67 O 0.56586 0.75393 0.44567 0.0
H68 H 0.65094 0.74564 0.05146 0.0
H69 H 0.42356 0.76364 0.36841 0.0
O70 O 0.46298 0.83423 0.36188 0.0
H71 H 0.51336 0.65411 0.13737 0.0
H72 H 0.55679 0.92684 0.14581 0.0
H73 H 0.59468 0.77389 0.23481 0.0
H74 H 0.54652 0.72282 0.21565 0.0
H75 H 0.51323 0.88407 0.2999 0.0
O76 O 0.47146 0.70797 0.78431 0.0
H77 H 0.59855 0.78152 0.89747 0.0
H78 H 0.53058 0.66256 0.85056 0.0
H79 H 0.64073 0.81768 0.08528 0.0
H80 H 0.38932 0.69892 0.27335 0.0
H81 H 0.61999 0.89313 0.02905 0.0
H82 H 0.43541 0.64191 0.16617 0.0
O83 O 0.53861 0.83958 0.53279 0.0
H84 H 0.3871 0.83364 0.86927 0.0
H85 H 0.54731 0.83025 0.89609 0.0
H86 H 0.50804 0.89755 -0.04875 0.0
H87 H 0.42801 0.90001 0.93475 0.0
H88 H 0.42692 0.76931 0.79287 0.0
H89 H 0.58038 0.62716 0.01065 0.0
H90 H 0.64005 0.66945 0.1197 0.0
O91 O 0.56762 0.79306 0.68224 0.0
C92 C 0.56886 0.7166 0.50353 0.0
C93 C 0.62254 0.72836 0.01407 0.0
C94 C 0.58339 0.6617 -0.00927 0.0
N95 N 0.55644 0.72658 0.8764 0.0
C96 C 0.59187 0.74871 0.92729 0.0
C97 C 0.55391 0.68274 0.90246 0.0
C98 C 0.61695 0.68523 0.05103 0.0
C99 C 0.44345 0.74226 0.30784 0.0
N100 N 0.48731 0.74938 0.29365 0.0
C101 C 0.42373 0.70452 0.2574 0.0
C102 C 0.44933 0.67272 0.19598 0.0
C103 C 0.4935 0.67994 0.17916 0.0
C104 C 0.51196 0.71908 0.22528 0.0
C105 C 0.56405 0.89255 0.15955 0.0
C106 C 0.58359 0.80603 0.20881 0.0
C107 C 0.53795 0.86698 0.24319 0.0
N108 N 0.5461 0.82326 0.2626 0.0
C109 C 0.61072 0.831 0.12526 0.0
C110 C 0.59975 0.87388 0.09586 0.0
C111 C 0.56686 0.83035 0.62402 0.0
C112 C 0.42234 0.8327 0.87781 0.0
C113 C 0.5124 0.82972 0.89248 0.0
C114 C 0.49029 0.86828 0.92562 0.0
C115 C 0.44512 0.86978 0.91664 0.0
N116 N 0.4903 0.79439 0.8419 0.0
C117 C 0.44551 0.79549 0.83836 0.0
Co118 Co 0.23887 0.03265 0.64446 0.0
Co119 Co 0.27997 0.03133 -0.02963 0.0
O120 O 0.25883 0.99922 0.80712 0.0
C121 C 0.18614 0.94755 0.62854 0.0
O122 O 0.20399 0.92986 0.73847 0.0
C123 C 0.31805 0.94219 0.01497 0.0
O124 O 0.28267 0.92557 -0.04131 0.0
O125 O 0.32437 0.05918 0.85755 0.0
O126 O 0.28091 0.08156 0.68776 0.0
H127 H 0.27624 0.15459 0.31517 0.0
H128 H 0.26984 0.94031 0.61174 0.0
O129 O 0.19601 0.98588 0.59126 0.0
H130 H 0.38359 0.03225 0.42 0.0
H131 H 0.15181 0.05534 0.2051 0.0
H132 H 0.22981 0.12794 0.58635 0.0
H133 H 0.30985 0.06284 0.46284 0.0
H134 H 0.19337 1.01244 0.37141 0.0
O135 O 0.32387 0.9834 0.01245 0.0
H136 H 0.24327 0.09893 0.16474 0.0
H137 H 0.36759 0.04096 0.10259 0.0
H138 H 0.19189 0.17193 0.41405 0.0
H139 H 0.33999 0.90809 0.55568 0.0
H140 H 0.15015 0.13596 0.22573 0.0
H141 H 0.39911 0.95562 0.47181 0.0
O142 O 0.19349 0.06162 0.75522 0.0
H143 H 0.24444 0.92668 0.33485 0.0
H144 H 0.18684 1.00484 0.93205 0.0
H145 H 0.1457 0.94429 0.02409 0.0
H146 H 0.17813 0.90105 0.21133 0.0
H147 H 0.28355 0.99012 0.24414 0.0
H148 H 0.4001 0.09188 0.26889 0.0
H149 H 0.35524 0.15122 0.36942 0.0
O150 O 0.2361 0.08041 0.93403 0.0
C151 C 0.31688 0.08271 0.75408 0.0
C152 C 0.29608 0.12875 0.27223 0.0
C153 C 0.36579 0.09432 0.24351 0.0
N154 N 0.30273 0.06543 0.12573 0.0
C155 C 0.27753 0.09686 0.18664 0.0
C156 C 0.34659 0.0642 0.15341 0.0
C157 C 0.34052 0.12726 0.30137 0.0
C158 C 0.2929 0.96046 0.56103 0.0
N159 N 0.28478 1.00385 0.53952 0.0
C160 C 0.33346 0.94197 0.53214 0.0
C161 C 0.36642 0.96833 0.48338 0.0
C162 C 0.35751 1.0117 0.45419 0.0
C163 C 0.31586 0.02871 0.47911 0.0
C164 C 0.17001 0.07149 0.28653 0.0
C165 C 0.21527 0.11132 0.49941 0.0
C166 C 0.19457 0.04715 0.38114 0.0
N167 N 0.21689 0.06676 0.48736 0.0
C168 C 0.19231 0.13679 0.40392 0.0
C169 C 0.16894 0.11666 0.2982 0.0
C170 C 0.20119 0.08477 0.86149 0.0
C171 C 0.23081 0.9451 0.24996 0.0
C172 C 0.19848 0.99022 0.0255 0.0
C173 C 0.17533 0.95495 0.07541 0.0
C174 C 0.19295 0.93112 0.18351 0.0
N175 N 0.23779 1.00158 0.08269 0.0
C176 C 0.25238 0.98152 0.19972 0.0
Co177 Co 0.9986 0.78583 0.25223 0.0
Co178 Co 1.00187 0.7443 0.92863 0.0
O179 O 0.03233 0.76737 0.09059 0.0
C180 C 0.08056 0.84312 0.25248 0.0
O181 O 0.09614 0.8259 0.13905 0.0
C182 C 0.09354 0.71122 0.8938 0.0
O183 O 0.10782 0.74942 0.93509 0.0
O184 O 0.97581 0.69897 0.0418 0.0
O185 O 0.95181 0.7413 0.21129 0.0
H186 H 0.88098 0.74028 0.57388 0.0
H187 H 0.09176 0.75938 0.27332 0.0
O188 O 0.04399 0.83121 0.30052 0.0
H189 H 1.00917 0.64263 0.48897 0.0
H190 H 0.97077 0.87454 0.68454 0.0
H191 H 0.90293 0.78824 0.31349 0.0
H192 H 0.9737 0.714 0.43944 0.0
H193 H 0.01591 0.83714 0.51636 0.0
O194 O 0.05266 0.70326 0.89144 0.0
H195 H 0.93409 0.77689 0.72691 0.0
H196 H 0.99711 0.6559 0.80446 0.0
H197 H 0.85694 0.82348 0.48395 0.0
H198 H 0.12696 0.69008 0.31663 0.0
H199 H 0.89028 0.86851 0.66908 0.0
H200 H 0.08592 0.63061 0.42836 0.0
O201 O 0.96665 0.8286 0.14075 0.0
H202 H 0.09878 0.79316 0.55249 0.0
H203 H 0.02091 0.83865 -0.03267 0.0
H204 H 0.0687 0.89008 0.85744 0.0
H205 H 0.10995 0.86679 0.65721 0.0
H206 H 0.04558 0.74377 0.65824 0.0
H207 H 0.94859 0.61963 0.63862 0.0
H208 H 0.88881 0.66147 0.52515 0.0
O209 O 0.95012 0.78502 -0.03818 0.0
C210 C 0.95054 0.70623 0.14105 0.0
C211 C 0.90747 0.72206 0.62057 0.0
C212 C 0.94484 0.65419 0.6585 0.0
N213 N 0.96991 0.71928 0.7728 0.0
C214 C 0.93777 0.74263 0.70756 0.0
C215 C 0.97337 0.67539 0.74927 0.0
C216 C 0.91146 0.67764 0.59454 0.0
C217 C 0.07361 0.73549 0.32803 0.0
N218 N 0.03044 0.74187 0.35713 0.0
C219 C 0.09399 0.69554 0.35151 0.0
C220 C 0.07078 0.66216 0.41206 0.0
C221 C 0.0276 0.66929 0.44807 0.0
C222 C 1.00792 0.70973 0.42102 0.0
C223 C 0.95583 0.8542 0.60599 0.0
C224 C 0.91891 0.80441 0.39863 0.0
C225 C 0.98165 0.83173 0.51095 0.0
N226 N 0.96357 0.8065 0.4088 0.0
C227 C 0.89208 0.82573 0.49341 0.0
C228 C 0.91071 0.85102 0.59717 0.0
C229 C 0.94352 0.81914 0.03561 0.0
C230 C 0.08051 0.80364 0.64133 0.0
C231 C 0.03498 0.8291 0.8716 0.0
C232 C 0.06338 0.85822 0.81193 0.0
C233 C 0.08685 0.8449 0.6984 0.0
N234 N 0.02893 0.78833 0.81729 0.0
C235 C 0.04983 0.77615 0.69983 0.0
Co236 Co 0.74244 1.00658 -0.0304 0.0
Co237 Co 0.78606 1.00386 0.64826 0.0
O238 O 0.76558 0.03773 0.80781 0.0
C239 C 0.69262 0.09511 -0.02402 0.0
O240 O 0.71118 0.11166 0.86698 0.0
C241 C 0.83511 0.08823 0.61045 0.0
O242 O 0.801 0.11 0.65534 0.0
O243 O 0.82609 0.97108 0.76814 0.0
O244 O 0.78068 0.95379 0.93471 0.0
H245 H 0.77527 0.88596 0.28576 0.0
H246 H 0.77898 0.09589 -0.00086 0.0
O247 O 0.70217 0.05677 0.01637 0.0
H248 H 0.88439 0.9971 0.22036 0.0
H249 H 0.65657 0.99451 0.40931 0.0
H250 H 0.72538 0.91272 0.03196 0.0
H251 H 0.81016 0.9717 0.16071 0.0
H252 H 0.7011 0.03238 0.24097 0.0
O253 O 0.83534 0.04657 0.61551 0.0
H254 H 0.74604 0.94336 0.43898 0.0
H255 H 0.87426 0.9813 0.54794 0.0
H256 H 0.68757 0.8733 0.21171 0.0
H257 H 0.85082 0.12331 0.0663 0.0
H258 H 0.64924 0.91412 0.39591 0.0
H259 H 0.90553 0.07213 0.1642 0.0
O260 O 0.69619 0.98065 0.85419 0.0
H261 H 0.7632 0.11249 0.27835 0.0
H262 H 0.69473 0.03844 0.66665 0.0
H263 H 0.65746 0.10053 0.55987 0.0
H264 H 0.69434 0.14062 0.374 0.0
H265 H 0.79758 0.04704 0.38012 0.0
H266 H 0.90466 0.9276 0.38712 0.0
H267 H 0.85492 0.87902 0.25497 0.0
O268 O 0.73724 0.9594 0.67545 0.0
C269 C 0.81583 0.94792 0.86913 0.0
C270 C 0.79698 0.90814 0.33902 0.0
C271 C 0.86966 0.93128 0.39605 0.0
N272 N 0.8079 0.96791 0.49702 0.0
C273 C 0.78055 0.94097 0.42513 0.0
C274 C 0.85208 0.96276 0.4843 0.0
C275 C 0.84181 0.90391 0.32253 0.0
C276 C 0.80057 0.07453 0.05477 0.0
N277 N 0.78954 0.03208 0.07812 0.0
C278 C 0.84185 0.09015 0.09026 0.0
C279 C 0.87236 0.06176 0.14753 0.0
C280 C 0.86044 0.01932 0.17784 0.0
C281 C 0.81836 1.0052 0.14446 0.0
C282 C 0.67282 0.9763 0.32884 0.0
C283 C 0.71288 0.93115 0.11791 0.0
C284 C 0.69857 0.99769 0.23256 0.0
N285 N 0.71783 0.97545 0.12652 0.0
C286 C 0.68977 0.90841 0.2174 0.0
C287 C 0.66852 0.93127 0.32116 0.0
C288 C 0.70246 0.9572 0.74771 0.0
C289 C 0.74718 0.09498 0.35942 0.0
C290 C 0.7088 0.05246 0.57641 0.0
C291 C 0.68789 0.08851 0.51814 0.0
C292 C 0.7082 0.11075 0.41255 0.0
N293 N 0.74832 0.03837 0.52881 0.0
C294 C 0.7661 0.05755 0.41615 0.0
Co295 Co 0.02069 0.29509 0.90391 0.0
Co296 Co 0.01788 0.2518 0.22511 0.0
O297 O 0.9866 0.27552 0.06389 0.0
C298 C 0.93834 0.35561 0.88715 0.0
O299 O 0.91762 0.33979 -0.0067 0.0
C300 C 0.95629 0.17263 0.23306 0.0
O301 O 0.97879 0.1501 0.14256 0.0
O302 O 0.04626 0.20738 0.1073 0.0
O303 O 0.06892 0.25107 -0.05794 0.0
H304 H 0.13613 0.25278 0.58923 0.0
H305 H 0.92773 0.27038 0.86667 0.0
O306 O 0.97568 0.34085 0.85359 0.0
H307 H 1.01258 0.15392 0.64604 0.0
H308 H 0.04224 0.37839 0.46419 0.0
H309 H 0.11607 0.30277 0.84705 0.0
H310 H 0.04821 0.22257 0.71845 0.0
H311 H 0.99989 0.33637 0.6287 0.0
O312 O 0.96694 0.21164 0.26327 0.0
H313 H 0.0812 0.28624 0.43468 0.0
H314 H 0.03281 0.1614 0.33235 0.0
H315 H 0.15957 0.33658 0.66732 0.0
H316 H 0.8905 0.20486 0.7847 0.0
H317 H 0.12299 0.37949 0.48457 0.0
H318 H 0.93391 0.14471 0.68359 0.0
O319 O 0.05092 0.33853 0.02082 0.0
H320 H 0.90993 0.28746 0.58397 0.0
H321 H 0.99395 0.34686 0.20162 0.0
H322 H 0.93565 0.39064 0.30199 0.0
H323 H 0.89009 0.35858 0.48384 0.0
H324 H 0.97195 0.24604 0.48918 0.0
H325 H 0.08368 0.1274 0.49384 0.0
H326 H 0.13603 0.17326 0.62548 0.0
O327 O 0.06817 0.29457 0.19709 0.0
C328 C 0.0709 0.21525 0.00716 0.0
C329 C 0.11191 0.23298 0.53759 0.0
C330 C 0.08283 0.16252 0.48359 0.0
N331 N 0.05112 0.22673 0.37942 0.0
C332 C 0.08042 0.25181 0.45057 0.0
C333 C 0.05281 0.18236 0.39429 0.0
C334 C 0.11235 0.18814 0.55659 0.0
C335 C 0.94636 0.24656 0.81097 0.0
N336 N 0.99031 0.2514 0.7939 0.0
C337 C 0.92507 0.20882 0.7672 0.0
C338 C 0.94925 0.17522 0.7088 0.0
C339 C 0.99366 0.18051 0.68824 0.0
C340 C 1.01359 0.21943 0.72912 0.0
C341 C 0.05862 0.36085 0.54623 0.0
C342 C 0.0993 0.31711 0.76016 0.0
C343 C 0.0347 0.33659 0.64025 0.0
N344 N 0.05475 0.31599 0.74857 0.0
C345 C 0.12439 0.3382 0.66191 0.0
C346 C 0.10386 0.36156 0.55748 0.0
C347 C 0.07279 0.33011 0.12957 0.0
C348 C 0.9297 0.3013 0.50401 0.0
C349 C 0.97819 0.33455 0.29127 0.0
C350 C 0.94405 0.35926 0.3456 0.0
C351 C 0.91877 0.34163 0.449 0.0
N352 N 0.98768 0.29389 0.3409 0.0
C353 C 0.96515 0.27825 0.45066 0.0
Co354 Co 0.73572 0.53282 0.13247 0.0
Co355 Co 0.77459 0.53378 0.46122 0.0
O356 O 0.75478 0.5008 0.29863 0.0
C357 C 0.6821 0.44828 0.12806 0.0
O358 O 0.70003 0.43248 0.24068 0.0
C359 C 0.85263 0.47071 0.48585 0.0
O360 O 0.87412 0.48976 0.38702 0.0
O361 O 0.82039 0.55995 0.35088 0.0
O362 O 0.77937 0.58101 0.17194 0.0
H363 H 0.76871 0.65946 0.79642 0.0
H364 H 0.76701 0.44026 0.11557 0.0
O365 O 0.69192 0.48599 0.08459 0.0
H366 H 0.87796 0.52863 0.8924 0.0
H367 H 0.6448 0.5528 0.70062 0.0
H368 H 0.72969 0.62743 0.0628 0.0
H369 H 0.8047 0.56003 -0.05885 0.0
H370 H 0.68827 0.51068 0.86413 0.0
O371 O 0.81421 0.48338 0.51526 0.0
H372 H 0.73674 0.60271 0.64699 0.0
H373 H 0.86151 0.54448 0.6021 0.0
H374 H 0.69012 0.67039 0.89138 0.0
H375 H 0.83724 0.40758 0.06042 0.0
H376 H 0.64455 0.63349 0.71403 0.0
H377 H 0.89484 0.45368 -0.04074 0.0
O378 O 0.69105 0.56406 0.2386 0.0
H379 H 0.73557 0.42408 0.80013 0.0
H380 H 0.67968 0.51272 0.41888 0.0
H381 H 0.6368 0.45197 0.49656 0.0
H382 H 0.66792 0.40329 0.67085 0.0
H383 H 0.77521 0.48918 0.72923 0.0
H384 H 0.89199 0.59482 0.77185 0.0
H385 H 0.84648 0.65494 0.86411 0.0
O386 O 0.73336 0.58434 0.41585 0.0
C387 C 0.81439 0.5825 0.24391 0.0
C388 C 0.78856 0.63277 0.75909 0.0
C389 C 0.85808 0.59748 0.74202 0.0
N390 N 0.79627 0.56841 0.61751 0.0
C391 C 0.77069 0.60044 0.67351 0.0
C392 C 0.83983 0.56739 0.64991 0.0
C393 C 0.83242 0.6308 0.79533 0.0
C394 C 0.78954 0.45946 0.05897 0.0
N395 N 0.78095 0.5023 0.03021 0.0
C396 C 0.83011 0.44085 0.03075 0.0
C397 C 0.86224 0.4664 -0.02717 0.0
C398 C 0.85255 0.5089 0.93514 0.0
C399 C 0.81119 0.52625 -0.03752 0.0
C400 C 0.66451 0.56933 0.77764 0.0
C401 C 0.71345 0.61026 -0.01998 0.0
C402 C 0.6901 0.54546 0.87078 0.0
N403 N 0.71411 0.56562 -0.02776 0.0
C404 C 0.68944 0.63518 0.88556 0.0
C405 C 0.66406 0.61454 0.78566 0.0
C406 C 0.699 0.58869 0.34114 0.0
C407 C 0.72206 0.44476 0.72052 0.0
C408 C 0.6908 0.49628 0.5092 0.0
C409 C 0.66665 0.46058 0.55048 0.0
C410 C 0.68369 0.43356 0.65154 0.0
N411 N 0.73032 0.50543 0.56903 0.0
C412 C 0.74431 0.48197 0.68035 0.0
Co413 Co 0.5026 0.2847 0.72315 0.0
Co414 Co 0.50313 0.24189 0.39922 0.0
O415 O 0.53509 0.26451 0.5605 0.0
C416 C 0.58648 0.34033 0.73406 0.0
O417 O 0.60468 0.32307 0.62458 0.0
C418 C 0.59248 0.20308 0.35998 0.0
O419 O 0.60951 0.23944 0.40756 0.0
O420 O 0.47404 0.19853 0.5142 0.0
O421 O 0.45378 0.24211 0.68494 0.0
H422 H 0.38073 0.23995 0.04703 0.0
H423 H 0.59566 0.25647 0.75273 0.0
O424 O 0.54874 0.32882 0.7719 0.0
H425 H 0.50916 0.14107 -0.04025 0.0
H426 H 0.48197 0.37018 0.16617 0.0
H427 H 0.40848 0.29153 0.79027 0.0
H428 H 0.47505 0.21261 0.90636 0.0
H429 H 0.52493 0.33145 -0.00586 0.0
O430 O 0.55123 0.19755 0.36429 0.0
H431 H 0.43385 0.27514 0.20292 0.0
H432 H 0.49574 0.15331 0.27333 0.0
H433 H 0.36578 0.31956 -0.02161 0.0
H434 H 0.6312 0.18864 0.81907 0.0
H435 H 0.40096 0.36527 0.15843 0.0
H436 H 0.58676 0.1289 0.91466 0.0
O437 O 0.47163 0.32903 0.61092 0.0
H438 H 0.60939 0.276 0.03746 0.0
H439 H 0.52877 0.33516 0.43094 0.0
H440 H 0.58946 0.37618 0.33971 0.0
H441 H 0.63394 0.34295 0.15798 0.0
H442 H 0.54588 0.23671 0.12784 0.0
H443 H 0.44735 0.11861 0.10485 0.0
H444 H 0.38779 0.16136 -0.00518 0.0
O445 O 0.45424 0.28642 0.42987 0.0
C446 C 0.44996 0.20712 0.6154 0.0
C447 C 0.40717 0.22134 0.0925 0.0
C448 C 0.44396 0.15309 0.12655 0.0
N449 N 0.46976 0.21742 0.24439 0.0
C450 C 0.43758 0.24118 0.18096 0.0
C451 C 0.47257 0.17354 0.21886 0.0
C452 C 0.41076 0.17707 0.06411 0.0
C453 C 0.57667 0.23309 0.80656 0.0
N454 N 0.53305 0.23968 0.82812 0.0
C455 C 0.59704 0.19387 0.84143 0.0
C456 C 0.57234 0.16054 0.89605 0.0
C457 C 0.52842 0.16759 0.92178 0.0
C458 C 0.50941 0.20796 0.89043 0.0
C459 C 0.46579 0.35135 0.08637 0.0
C460 C 0.42556 0.30534 0.87668 0.0
C461 C 0.49012 0.32884 -0.01247 0.0
N462 N 0.4701 0.30628 0.88247 0.0
C463 C 0.40051 0.32424 -0.02043 0.0
C464 C 0.42053 0.34899 0.08186 0.0
C465 C 0.44923 0.32115 0.50247 0.0
C466 C 0.59032 0.28992 0.11988 0.0
C467 C 0.54399 0.32303 0.33941 0.0
C468 C 0.57927 0.3462 0.28988 0.0
C469 C 0.60374 0.32819 0.18453 0.0
N470 N 0.53328 0.28327 0.28474 0.0
C471 C 0.55386 0.26828 0.16969 0.0
C472 C 0.3922 0.65535 0.87876 0.0
C473 C 0.43212 0.64284 0.81941 0.0
C474 C 0.36996 0.62741 -0.03104 0.0
C475 C 0.38783 0.58676 0.00813 0.0
H476 H 0.37796 0.68682 0.85459 0.0
H477 H 0.33913 0.63823 0.01104 0.0
S478 S 0.49156 0.53893 0.87928 0.0
N479 N 0.48799 0.58677 0.80305 0.0
N480 N 0.44771 0.53528 -0.02431 0.0
C481 C 0.42789 0.57413 -0.05086 0.0
C482 C 0.44974 0.60199 0.85478 0.0
C483 C 0.41294 0.90733 0.24672 0.0
C484 C 0.39682 0.87072 0.31592 0.0
C485 C 0.38709 0.93037 0.1513 0.0
C486 C 0.34525 0.9158 0.1124 0.0
H487 H 0.44541 0.91917 0.26957 0.0
H488 H 0.40054 0.9593 0.10496 0.0
S489 S 0.28846 0.82031 0.25986 0.0
N490 N 0.33614 0.82109 0.34069 0.0
N491 N 0.28888 0.86179 0.1523 0.0
C492 C 0.32908 0.87848 0.17875 0.0
C493 C 0.35461 0.85644 0.28179 0.0
C494 C 0.14712 0.85363 0.40086 0.0
C495 C 0.10855 0.87072 0.34123 0.0
C496 C 0.17245 0.87868 0.49366 0.0
C497 C 0.15943 0.92123 0.53154 0.0
H498 H 0.15751 0.82069 0.37645 0.0
H499 H 0.20196 0.86455 0.53716 0.0
S500 S 0.06306 0.98135 0.39605 0.0
N501 N 0.05994 0.93297 0.32122 0.0
N502 N 0.10718 0.97998 0.49501 0.0
C503 C 0.12167 0.93884 0.46925 0.0
C504 C 0.09603 0.9134 0.37544 0.0
C505 C 0.13654 0.69222 0.68384 0.0
C506 C 0.12317 0.68168 0.81803 0.0
C507 C 0.1628 0.6649 0.60046 0.0
C508 C 0.17916 0.62409 0.64195 0.0
H509 H 0.12557 0.7226 0.63939 0.0
H510 H 0.17057 0.67638 0.49887 0.0
S511 S 0.15746 0.58205 0.12967 0.0
N512 N 0.12985 0.63302 0.03438 0.0
N513 N 0.19542 0.5732 0.85627 0.0
C514 C 0.17339 0.61337 0.78003 0.0
C515 C 0.13946 0.64409 0.8786 0.0
C516 C 0.85824 0.15148 0.46268 0.0
C517 C 0.86772 0.11041 0.52108 0.0
C518 C 0.88669 0.17115 0.36856 0.0
C519 C 0.92551 0.15036 0.32713 0.0
H520 H 0.82822 0.16837 0.48786 0.0
H521 H 0.87799 0.20272 0.32674 0.0
S522 S 0.96855 0.04561 0.46193 0.0
N523 N 0.92112 0.05179 0.53853 0.0
N524 N 0.97409 0.08859 0.36239 0.0
C525 C 0.93622 0.11023 0.38836 0.0
C526 C 0.90733 0.09015 0.4839 0.0
C527 C 0.87126 0.38474 0.76467 0.0
C528 C 0.91654 0.38655 0.78988 0.0
C529 C 0.85096 0.41195 0.66618 0.0
C530 C 0.87529 0.44105 0.58537 0.0
H531 H 0.85137 0.36195 0.82064 0.0
H532 H 0.816 0.40949 0.65135 0.0
S533 S 0.99428 0.46085 0.61939 0.0
N534 N 0.98447 0.42248 0.73322 0.0
N535 N 0.94691 0.47163 0.54429 0.0
C536 C 0.92049 0.44344 0.61082 0.0
C537 C 0.94094 0.41659 0.7133 0.0
C538 C 0.61599 0.43173 -0.01604 0.0
C539 C 0.6577 0.41948 0.03209 0.0
C540 C 0.5932 0.40591 0.88737 0.0
C541 C 0.61191 0.36769 0.83197 0.0
H542 H 0.60077 0.46134 0.02204 0.0
H543 H 0.56086 0.41616 0.85457 0.0
S544 S 0.72051 0.32171 0.92337 0.0
N545 N 0.71701 0.36683 0.01647 0.0
N546 N 0.67429 0.31841 0.83488 0.0
C547 C 0.65368 0.35515 0.87907 0.0
C548 C 0.6768 0.38137 -0.02231 0.0
C549 C 0.67459 0.16719 0.08804 0.0
C550 C 0.66532 0.12269 0.06865 0.0
C551 C 0.65176 0.19259 0.18516 0.0
C552 C 0.61837 0.17465 0.26585 0.0
H553 H 0.70032 0.18234 0.02994 0.0
H554 H 0.66021 0.22665 0.19622 0.0
S555 S 0.58034 0.06015 0.25115 0.0
N556 N 0.61965 0.06207 0.13643 0.0
N557 N 0.57675 0.10975 0.31716 0.0
C558 C 0.60833 0.1304 0.24574 0.0
C559 C 0.63192 0.10442 0.14836 0.0
C560 C 0.39643 0.42694 0.38037 0.0
C561 C 0.35154 0.4171 0.38071 0.0
C562 C 0.42798 0.39598 0.42204 0.0
C563 C 0.41588 0.3535 0.45916 0.0
H564 H 0.40718 0.45916 0.35174 0.0
H565 H 0.46209 0.40506 0.42301 0.0
S566 S 0.30332 0.31143 0.47898 0.0
N567 N 0.29708 0.36247 0.4295 0.0
N568 N 0.35645 0.30328 0.49329 0.0
C569 C 0.37144 0.34311 0.45751 0.0
C570 C 0.33928 0.37514 0.42194 0.0
C571 C 0.67827 0.88102 0.6929 0.0
C572 C 0.66811 0.92552 0.70956 0.0
C573 C 0.64524 0.85007 0.66881 0.0
C574 C 0.60115 0.86284 0.65655 0.0
H575 H 0.71181 0.86995 0.70193 0.0
H576 H 0.65431 0.81607 0.6574 0.0
S577 S 0.55782 0.97547 0.69044 0.0
N578 N 0.611 0.98065 0.71388 0.0
N579 N 0.54933 0.92303 0.66243 0.0
C580 C 0.59081 0.90732 0.67117 0.0
C581 C 0.62418 0.93851 0.69939 0.0
C582 C 0.09235 0.13948 -0.06226 0.0
C583 C 0.10441 0.18258 -0.03078 0.0
C584 C 0.12386 0.10803 0.90163 0.0
C585 C 0.16858 0.11824 0.90108 0.0
H586 H 0.05829 0.13023 -0.0611 0.0
H587 H 0.11323 0.07532 0.876 0.0
S588 S 0.21685 0.22608 -0.02086 0.0
N589 N 0.1638 0.23393 -0.00452 0.0
N590 N 0.22316 0.17421 -0.06282 0.0
C591 C 0.18098 0.16098 0.93491 0.0
C592 C 0.14883 0.19333 -0.03365 0.0
C593 C 0.87293 0.68849 0.18675 0.0
C594 C 0.91621 0.67442 0.16761 0.0
C595 C 0.83938 0.6583 0.20528 0.0
C596 C 0.84856 0.61345 0.20862 0.0
H597 H 0.86489 0.72292 0.1853 0.0
H598 H 0.80639 0.67008 0.22085 0.0
S599 S 0.9564 0.56033 0.16442 0.0
N600 N 0.96629 0.61298 0.15085 0.0
N601 N 0.90347 0.55636 0.19141 0.0
C602 C 0.89163 0.5991 0.19013 0.0
C603 C 0.92548 0.62963 0.16801 0.0
C604 C 0.39243 0.10069 0.68426 0.0
C605 C 0.34993 0.11455 0.71592 0.0
C606 C 0.4246 0.13091 0.64979 0.0
C607 C 0.41556 0.17591 0.65117 0.0
H608 H 0.40068 0.0663 0.68491 0.0
H609 H 0.45694 0.11909 0.62445 0.0
S610 S 0.30948 0.22807 0.73413 0.0
N611 N 0.30032 0.17535 0.74757 0.0
N612 N 0.3611 0.23244 0.68984 0.0
C613 C 0.37326 0.18991 0.68519 0.0
C614 C 0.34029 0.1591 0.71569 0.0
C615 C 0.89009 0.92632 -0.05486 0.0
C616 C 0.84689 0.91436 0.91499 0.0
C617 C 0.92103 0.89512 -0.01464 0.0
C618 C 0.91009 0.85079 -0.00784 0.0
H619 H 0.8999 0.96012 -0.06139 0.0
H620 H 0.95398 0.90564 0.00906 0.0
S621 S 0.80152 0.8028 0.92093 0.0
N622 N 0.79437 0.85562 0.89567 0.0
N623 N 0.85336 0.79633 -0.03457 0.0
C624 C 0.86713 0.83829 -0.03916 0.0
C625 C 0.83522 0.87033 0.92394 0.0
C626 C 0.09292 0.4071 0.19342 0.0
C627 C 0.105 0.36289 0.17809 0.0
C628 C 0.12359 0.43886 0.23475 0.0
C629 C 0.16767 0.42769 0.25732 0.0
H630 H 0.05947 0.41712 0.17396 0.0
H631 H 0.11307 0.47249 0.24479 0.0
S632 S 0.21582 0.31692 0.22671 0.0
N633 N 0.16361 0.30983 0.1907 0.0
N634 N 0.22158 0.3695 0.25856 0.0
C635 C 0.17997 0.38375 0.24055 0.0
C636 C 0.14857 0.35134 0.20365 0.0
C637 C 0.64612 0.69566 0.45135 0.0
C638 C 0.60168 0.6847 0.45608 0.0
C639 C 0.67782 0.66422 0.41637 0.0
C640 C 0.66574 0.6214 0.38042 0.0
H641 H 0.6565 0.72833 0.47841 0.0
H642 H 0.71185 0.67355 0.4157 0.0
S643 S 0.55341 0.57708 0.37424 0.0
N644 N 0.5473 0.62833 0.42353 0.0
N645 N 0.60626 0.57005 0.35035 0.0
C646 C 0.62128 0.61051 0.38219 0.0
C647 C 0.58938 0.64199 0.42196 0.0
loop_
_geom_bond_atom_site_label_1
_geom_bond_atom_site_label_2
_geom_bond_distance
_geom_bond_site_symmetry_2
_ccdc_geom_bond_type
Co0 O2 2.143 . S
Co0 O8 2.074 . S
Co0 O11 2.093 . S
Co0 O24 2.097 . S
Co0 N41 2.151 . S
Co0 N49 2.214 . S
Co1 O2 2.160 . S
Co1 O7 2.058 . S
Co1 O17 2.057 . S
Co1 O32 2.037 . S
Co1 N36 2.145 1_554 S
Co1 N57 2.257 . S
O2 Co0 2.143 . S
O2 Co1 2.160 . S
C3 O4 1.278 . S
C3 O11 1.224 . S
O4 C3 1.278 . S
C5 O6 1.245 . S
C5 O17 1.232 . S
O6 C5 1.245 . S
O7 Co1 2.058 . S
O7 C33 1.269 . S
O8 Co0 2.074 . S
O8 C33 1.257 . S
H9 C34 0.930 . S
H10 C40 0.930 . S
O11 Co0 2.093 . S
O11 C3 1.224 . S
H12 C44 0.929 1_554 S
H13 C46 0.930 . S
H14 C47 0.930 . S
H15 C45 0.929 . S
H16 C48 0.928 . S
O17 Co1 2.057 . S
O17 C5 1.232 . S
H18 C37 0.929 1_554 S
H19 C38 0.929 . S
H20 C50 0.931 . S
H21 C42 0.929 . S
H22 C51 0.930 . S
H23 C43 0.931 1_554 S
O24 Co0 2.097 . S
O24 C52 1.214 . S
H25 C53 0.929 1_554 S
H26 C54 0.929 . S
H27 C55 0.930 . S
H28 C56 0.929 . S
H29 C58 0.930 . S
H30 C35 0.930 . S
H31 C39 0.930 . S
O32 Co1 2.037 . S
O32 C52 1.234 . S
C33 O7 1.269 . S
C33 O8 1.257 . S
C34 H9 0.930 . S
C34 C37 1.388 . S
C34 C39 1.418 . S
C35 H30 0.930 . S
C35 C38 1.404 . S
C35 C39 1.353 . S
N36 Co1 2.145 1_556 S
N36 C37 1.397 . S
N36 C38 1.334 . S
C37 H18 0.929 1_556 S
C37 C34 1.388 . S
C37 N36 1.397 . S
C38 H19 0.929 . S
C38 C35 1.404 . S
C38 N36 1.334 . S
C39 H31 0.930 . S
C39 C34 1.418 . S
C39 C35 1.353 . S
C40 H10 0.930 . S
C40 N41 1.330 . S
C40 C42 1.446 . S
N41 Co0 2.151 . S
N41 C40 1.330 . S
N41 C45 1.418 . S
C42 H21 0.929 . S
C42 C40 1.446 . S
C42 C43 1.332 . S
C43 H23 0.931 1_556 S
C43 C42 1.332 . S
C43 C44 1.267 . S
C44 H12 0.929 1_556 S
C44 C43 1.267 . S
C44 C45 1.251 . S
C45 H15 0.929 . S
C45 N41 1.418 . S
C45 C44 1.251 . S
C46 H13 0.930 . S
C46 C48 1.406 1_554 S
C46 C51 1.261 . S
C47 H14 0.930 . S
C47 N49 1.325 . S
C47 C50 1.357 . S
C48 H16 0.928 . S
C48 C46 1.406 1_556 S
C48 N49 1.261 . S
N49 Co0 2.214 . S
N49 C47 1.325 . S
N49 C48 1.261 . S
C50 H20 0.931 . S
C50 C47 1.357 . S
C50 C51 1.312 1_556 S
C51 H22 0.930 . S
C51 C46 1.261 . S
C51 C50 1.312 1_554 S
C52 O24 1.214 . S
C52 O32 1.234 . S
C53 H25 0.929 1_556 S
C53 C56 1.391 . S
C53 C58 1.391 1_556 S
C54 H26 0.929 . S
C54 C55 1.390 . S
C54 N57 1.391 1_556 S
C55 H27 0.930 . S
C55 C54 1.390 . S
C55 C56 1.392 . S
C56 H28 0.929 . S
C56 C53 1.391 . S
C56 C55 1.392 . S
N57 Co1 2.257 . S
N57 C54 1.391 1_554 S
N57 C58 1.388 . S
C58 H29 0.930 . S
C58 C53 1.391 1_554 S
C58 N57 1.388 . S
Co59 O61 2.143 . S
Co59 O67 2.074 . S
Co59 O70 2.093 . S
Co59 O83 2.097 . S
Co59 N100 2.151 . S
Co59 N108 2.214 . S
Co60 O61 2.160 . S
Co60 O66 2.058 . S
Co60 O76 2.057 . S
Co60 O91 2.037 . S
Co60 N95 2.145 1_556 S
Co60 N116 2.257 . S
O61 Co59 2.143 . S
O61 Co60 2.160 . S
C62 O63 1.278 . S
C62 O70 1.224 . S
O63 C62 1.278 . S
C64 O65 1.245 . S
C64 O76 1.232 . S
O65 C64 1.245 . S
O66 Co60 2.058 . S
O66 C92 1.269 . S
O67 Co59 2.074 . S
O67 C92 1.257 . S
H68 C93 0.930 . S
H69 C99 0.930 . S
O70 Co59 2.093 . S
O70 C62 1.224 . S
H71 C103 0.929 1_556 S
H72 C105 0.930 . S
H73 C106 0.930 . S
H74 C104 0.929 . S
H75 C107 0.928 . S
O76 Co60 2.057 . S
O76 C64 1.232 . S
H77 C96 0.929 1_556 S
H78 C97 0.929 . S
H79 C109 0.931 . S
H80 C101 0.929 . S
H81 C110 0.930 . S
H82 C102 0.931 1_556 S
O83 Co59 2.097 . S
O83 C111 1.214 . S
H84 C112 0.929 1_556 S
H85 C113 0.929 . S
H86 C114 0.930 . S
H87 C115 0.929 . S
H88 C117 0.930 . S
H89 C94 0.930 . S
H90 C98 0.930 . S
O91 Co60 2.037 . S
O91 C111 1.234 . S
C92 O66 1.269 . S
C92 O67 1.257 . S
C93 H68 0.930 . S
C93 C96 1.388 . S
C93 C98 1.418 . S
C94 H89 0.930 . S
C94 C97 1.404 . S
C94 C98 1.353 . S
N95 Co60 2.145 1_554 S
N95 C96 1.397 . S
N95 C97 1.334 . S
C96 H77 0.929 1_554 S
C96 C93 1.388 . S
C96 N95 1.397 . S
C97 H78 0.929 . S
C97 C94 1.404 . S
C97 N95 1.334 . S
C98 H90 0.930 . S
C98 C93 1.418 . S
C98 C94 1.353 . S
C99 H69 0.930 . S
C99 N100 1.330 . S
C99 C101 1.446 . S
N100 Co59 2.151 . S
N100 C99 1.330 . S
N100 C104 1.418 . S
C101 H80 0.929 . S
C101 C99 1.446 . S
C101 C102 1.332 . S
C102 H82 0.931 1_554 S
C102 C101 1.332 . S
C102 C103 1.267 . S
C103 H71 0.929 1_554 S
C103 C102 1.267 . S
C103 C104 1.251 . S
C104 H74 0.929 . S
C104 N100 1.418 . S
C104 C103 1.251 . S
C105 H72 0.930 . S
C105 C107 1.406 1_556 S
C105 C110 1.261 . S
C106 H73 0.930 . S
C106 N108 1.325 . S
C106 C109 1.357 . S
C107 H75 0.928 . S
C107 C105 1.406 1_554 S
C107 N108 1.261 . S
N108 Co59 2.214 . S
N108 C106 1.325 . S
N108 C107 1.261 . S
C109 H79 0.931 . S
C109 C106 1.357 . S
C109 C110 1.312 1_554 S
C110 H81 0.930 . S
C110 C105 1.261 . S
C110 C109 1.312 1_556 S
C111 O83 1.214 . S
C111 O91 1.234 . S
C112 H84 0.929 1_554 S
C112 C115 1.391 . S
C112 C117 1.391 1_554 S
C113 H85 0.929 . S
C113 C114 1.390 . S
C113 N116 1.391 1_554 S
C114 H86 0.930 . S
C114 C113 1.390 . S
C114 C115 1.392 . S
C115 H87 0.929 . S
C115 C112 1.391 . S
C115 C114 1.392 . S
N116 Co60 2.257 . S
N116 C113 1.391 1_556 S
N116 C117 1.388 . S
C117 H88 0.930 . S
C117 C112 1.391 1_556 S
C117 N116 1.388 . S
Co118 O120 2.143 1_545 S
Co118 O126 2.074 . S
Co118 O129 2.093 1_545 S
Co118 O142 2.097 . S
Co118 N159 2.151 1_545 S
Co118 N167 2.214 . S
Co119 O120 2.160 1_544 S
Co119 O125 2.058 1_554 S
Co119 O135 2.057 1_545 S
Co119 O150 2.037 . S
Co119 N154 2.145 . S
Co119 N175 2.257 1_545 S
O120 Co118 2.143 1_565 S
O120 Co119 2.160 1_566 S
C121 O122 1.278 . S
C121 O129 1.224 . S
O122 C121 1.278 . S
C123 O124 1.245 1_554 S
C123 O135 1.232 . S
O124 C123 1.245 1_556 S
O125 Co119 2.058 1_556 S
O125 C151 1.269 . S
O126 Co118 2.074 . S
O126 C151 1.257 . S
H127 C152 0.930 . S
H128 C158 0.930 . S
O129 Co118 2.093 1_565 S
O129 C121 1.224 . S
H130 C162 0.929 1_545 S
H131 C164 0.930 . S
H132 C165 0.930 . S
H133 C163 0.929 . S
H134 C166 0.928 . S
O135 Co119 2.057 1_565 S
O135 C123 1.232 . S
H136 C155 0.929 . S
H137 C156 0.929 1_565 S
H138 C168 0.931 . S
H139 C160 0.929 . S
H140 C169 0.930 . S
H141 C161 0.931 . S
O142 Co118 2.097 . S
O142 C170 1.214 . S
H143 C171 0.929 . S
H144 C172 0.929 1_545 S
H145 C173 0.930 . S
H146 C174 0.929 . S
H147 C176 0.930 . S
H148 C153 0.930 . S
H149 C157 0.930 . S
O150 Co119 2.037 . S
O150 C170 1.234 1_554 S
C151 O125 1.269 . S
C151 O126 1.257 . S
C152 H127 0.930 . S
C152 C155 1.388 . S
C152 C157 1.418 . S
C153 H148 0.930 . S
C153 C156 1.404 . S
C153 C157 1.353 . S
N154 Co119 2.145 . S
N154 C155 1.397 . S
N154 C156 1.334 . S
C155 H136 0.929 . S
C155 C152 1.388 . S
C155 N154 1.397 . S
C156 H137 0.929 1_545 S
C156 C153 1.404 . S
C156 N154 1.334 . S
C157 H149 0.930 . S
C157 C152 1.418 . S
C157 C153 1.353 . S
C158 H128 0.930 . S
C158 N159 1.330 . S
C158 C160 1.446 . S
N159 Co118 2.151 1_565 S
N159 C158 1.330 . S
N159 C163 1.418 1_565 S
C160 H139 0.929 . S
C160 C158 1.446 . S
C160 C161 1.332 . S
C161 H141 0.931 . S
C161 C160 1.332 . S
C161 C162 1.267 . S
C162 H130 0.929 1_565 S
C162 C161 1.267 . S
C162 C163 1.251 1_565 S
C163 H133 0.929 . S
C163 N159 1.418 1_545 S
C163 C162 1.251 1_545 S
C164 H131 0.930 . S
C164 C166 1.406 . S
C164 C169 1.261 . S
C165 H132 0.930 . S
C165 N167 1.325 . S
C165 C168 1.357 . S
C166 H134 0.928 . S
C166 C164 1.406 . S
C166 N167 1.261 . S
N167 Co118 2.214 . S
N167 C165 1.325 . S
N167 C166 1.261 . S
C168 H138 0.931 . S
C168 C165 1.357 . S
C168 C169 1.312 . S
C169 H140 0.930 . S
C169 C164 1.261 . S
C169 C168 1.312 . S
C170 O142 1.214 . S
C170 O150 1.234 1_556 S
C171 H143 0.929 . S
C171 C174 1.391 . S
C171 C176 1.391 . S
C172 H144 0.929 1_565 S
C172 C173 1.390 . S
C172 N175 1.391 . S
C173 H145 0.930 . S
C173 C172 1.390 . S
C173 C174 1.392 . S
C174 H146 0.929 . S
C174 C171 1.391 . S
C174 C173 1.392 . S
N175 Co119 2.257 1_565 S
N175 C172 1.391 . S
N175 C176 1.388 . S
C176 H147 0.930 . S
C176 C171 1.391 . S
C176 N175 1.388 . S
Co177 O179 2.143 1_655 S
Co177 O185 2.074 . S
Co177 O188 2.093 1_655 S
Co177 O201 2.097 . S
Co177 N218 2.151 1_655 S
Co177 N226 2.214 . S
Co178 O179 2.160 1_656 S
Co178 O184 2.058 1_556 S
Co178 O194 2.057 1_655 S
Co178 O209 2.037 . S
Co178 N213 2.145 . S
Co178 N234 2.257 1_655 S
O179 Co177 2.143 1_455 S
O179 Co178 2.160 1_454 S
C180 O181 1.278 . S
C180 O188 1.224 . S
O181 C180 1.278 . S
C182 O183 1.245 1_556 S
C182 O194 1.232 . S
O183 C182 1.245 1_554 S
O184 Co178 2.058 1_554 S
O184 C210 1.269 . S
O185 Co177 2.074 . S
O185 C210 1.257 . S
H186 C211 0.930 . S
H187 C217 0.930 . S
O188 Co177 2.093 1_455 S
O188 C180 1.224 . S
H189 C221 0.929 1_655 S
H190 C223 0.930 . S
H191 C224 0.930 . S
H192 C222 0.929 . S
H193 C225 0.928 . S
O194 Co178 2.057 1_455 S
O194 C182 1.232 . S
H195 C214 0.929 . S
H196 C215 0.929 1_455 S
H197 C227 0.931 . S
H198 C219 0.929 . S
H199 C228 0.930 . S
H200 C220 0.931 . S
O201 Co177 2.097 . S
O201 C229 1.214 . S
H202 C230 0.929 . S
H203 C231 0.929 1_655 S
H204 C232 0.930 . S
H205 C233 0.929 . S
H206 C235 0.930 . S
H207 C212 0.930 . S
H208 C216 0.930 . S
O209 Co178 2.037 . S
O209 C229 1.234 1_556 S
C210 O184 1.269 . S
C210 O185 1.257 . S
C211 H186 0.930 . S
C211 C214 1.388 . S
C211 C216 1.418 . S
C212 H207 0.930 . S
C212 C215 1.404 . S
C212 C216 1.353 . S
N213 Co178 2.145 . S
N213 C214 1.397 . S
N213 C215 1.334 . S
C214 H195 0.929 . S
C214 C211 1.388 . S
C214 N213 1.397 . S
C215 H196 0.929 1_655 S
C215 C212 1.404 . S
C215 N213 1.334 . S
C216 H208 0.930 . S
C216 C211 1.418 . S
C216 C212 1.353 . S
C217 H187 0.930 . S
C217 N218 1.330 . S
C217 C219 1.446 . S
N218 Co177 2.151 1_455 S
N218 C217 1.330 . S
N218 C222 1.418 1_455 S
C219 H198 0.929 . S
C219 C217 1.446 . S
C219 C220 1.332 . S
C220 H200 0.931 . S
C220 C219 1.332 . S
C220 C221 1.267 . S
C221 H189 0.929 1_455 S
C221 C220 1.267 . S
C221 C222 1.251 1_455 S
C222 H192 0.929 . S
C222 N218 1.418 1_655 S
C222 C221 1.251 1_655 S
C223 H190 0.930 . S
C223 C225 1.406 . S
C223 C228 1.261 . S
C224 H191 0.930 . S
C224 N226 1.325 . S
C224 C227 1.357 . S
C225 H193 0.928 . S
C225 C223 1.406 . S
C225 N226 1.261 . S
N226 Co177 2.214 . S
N226 C224 1.325 . S
N226 C225 1.261 . S
C227 H197 0.931 . S
C227 C224 1.357 . S
C227 C228 1.312 . S
C228 H199 0.930 . S
C228 C223 1.261 . S
C228 C227 1.312 . S
C229 O201 1.214 . S
C229 O209 1.234 1_554 S
C230 H202 0.929 . S
C230 C233 1.391 . S
C230 C235 1.391 . S
C231 H203 0.929 1_455 S
C231 C232 1.390 . S
C231 N234 1.391 . S
C232 H204 0.930 . S
C232 C231 1.390 . S
C232 C233 1.392 . S
C233 H205 0.929 . S
C233 C230 1.391 . S
C233 C232 1.392 . S
N234 Co178 2.257 1_455 S
N234 C231 1.391 . S
N234 C235 1.388 . S
C235 H206 0.930 . S
C235 C230 1.391 . S
C235 N234 1.388 . S
Co236 O238 2.143 1_564 S
Co236 O244 2.074 . S
Co236 O247 2.093 1_565 S
Co236 O260 2.097 1_554 S
Co236 N277 2.151 1_565 S
Co236 N285 2.214 . S
Co237 O238 2.160 1_565 S
Co237 O243 2.058 . S
Co237 O253 2.057 1_565 S
Co237 O268 2.037 . S
Co237 N272 2.145 . S
Co237 N293 2.257 1_565 S
O238 Co236 2.143 1_546 S
O238 Co237 2.160 1_545 S
C239 O240 1.278 1_554 S
C239 O247 1.224 . S
O240 C239 1.278 1_556 S
C241 O242 1.245 . S
C241 O253 1.232 . S
O242 C241 1.245 . S
O243 Co237 2.058 . S
O243 C269 1.269 . S
O244 Co236 2.074 . S
O244 C269 1.257 1_554 S
H245 C270 0.930 . S
H246 C276 0.930 . S
O247 Co236 2.093 1_545 S
O247 C239 1.224 . S
H248 C280 0.929 1_565 S
H249 C282 0.930 . S
H250 C283 0.930 . S
H251 C281 0.929 . S
H252 C284 0.928 . S
O253 Co237 2.057 1_545 S
O253 C241 1.232 . S
H254 C273 0.929 . S
H255 C274 0.929 1_545 S
H256 C286 0.931 . S
H257 C278 0.929 . S
H258 C287 0.930 . S
H259 C279 0.931 . S
O260 Co236 2.097 1_556 S
O260 C288 1.214 . S
H261 C289 0.929 . S
H262 C290 0.929 1_565 S
H263 C291 0.930 . S
H264 C292 0.929 . S
H265 C294 0.930 . S
H266 C271 0.930 . S
H267 C275 0.930 . S
O268 Co237 2.037 . S
O268 C288 1.234 . S
C269 O243 1.269 . S
C269 O244 1.257 1_556 S
C270 H245 0.930 . S
C270 C273 1.388 . S
C270 C275 1.418 . S
C271 H266 0.930 . S
C271 C274 1.404 . S
C271 C275 1.353 . S
N272 Co237 2.145 . S
N272 C273 1.397 . S
N272 C274 1.334 . S
C273 H254 0.929 . S
C273 C270 1.388 . S
C273 N272 1.397 . S
C274 H255 0.929 1_565 S
C274 C271 1.404 . S
C274 N272 1.334 . S
C275 H267 0.930 . S
C275 C270 1.418 . S
C275 C271 1.353 . S
C276 H246 0.930 . S
C276 N277 1.330 . S
C276 C278 1.446 . S
N277 Co236 2.151 1_545 S
N277 C276 1.330 . S
N277 C281 1.418 1_545 S
C278 H257 0.929 . S
C278 C276 1.446 . S
C278 C279 1.332 . S
C279 H259 0.931 . S
C279 C278 1.332 . S
C279 C280 1.267 . S
C280 H248 0.929 1_545 S
C280 C279 1.267 . S
C280 C281 1.251 1_545 S
C281 H251 0.929 . S
C281 N277 1.418 1_565 S
C281 C280 1.251 1_565 S
C282 H249 0.930 . S
C282 C284 1.406 . S
C282 C287 1.261 . S
C283 H250 0.930 . S
C283 N285 1.325 . S
C283 C286 1.357 . S
C284 H252 0.928 . S
C284 C282 1.406 . S
C284 N285 1.261 . S
N285 Co236 2.214 . S
N285 C283 1.325 . S
N285 C284 1.261 . S
C286 H256 0.931 . S
C286 C283 1.357 . S
C286 C287 1.312 . S
C287 H258 0.930 . S
C287 C282 1.261 . S
C287 C286 1.312 . S
C288 O260 1.214 . S
C288 O268 1.234 . S
C289 H261 0.929 . S
C289 C292 1.391 . S
C289 C294 1.391 . S
C290 H262 0.929 1_545 S
C290 C291 1.390 . S
C290 N293 1.391 . S
C291 H263 0.930 . S
C291 C290 1.390 . S
C291 C292 1.392 . S
C292 H264 0.929 . S
C292 C289 1.391 . S
C292 C291 1.392 . S
N293 Co237 2.257 1_545 S
N293 C290 1.391 . S
N293 C294 1.388 . S
C294 H265 0.930 . S
C294 C289 1.391 . S
C294 N293 1.388 . S
Co295 O297 2.143 1_456 S
Co295 O303 2.074 . S
Co295 O306 2.093 1_455 S
Co295 O319 2.097 1_556 S
Co295 N336 2.151 1_455 S
Co295 N344 2.214 . S
Co296 O297 2.160 1_455 S
Co296 O302 2.058 . S
Co296 O312 2.057 1_455 S
Co296 O327 2.037 . S
Co296 N331 2.145 . S
Co296 N352 2.257 1_455 S
O297 Co295 2.143 1_654 S
O297 Co296 2.160 1_655 S
C298 O299 1.278 1_556 S
C298 O306 1.224 . S
O299 C298 1.278 1_554 S
C300 O301 1.245 . S
C300 O312 1.232 . S
O301 C300 1.245 . S
O302 Co296 2.058 . S
O302 C328 1.269 . S
O303 Co295 2.074 . S
O303 C328 1.257 1_556 S
H304 C329 0.930 . S
H305 C335 0.930 . S
O306 Co295 2.093 1_655 S
O306 C298 1.224 . S
H307 C339 0.929 1_455 S
H308 C341 0.930 . S
H309 C342 0.930 . S
H310 C340 0.929 . S
H311 C343 0.928 . S
O312 Co296 2.057 1_655 S
O312 C300 1.232 . S
H313 C332 0.929 . S
H314 C333 0.929 1_655 S
H315 C345 0.931 . S
H316 C337 0.929 . S
H317 C346 0.930 . S
H318 C338 0.931 . S
O319 Co295 2.097 1_554 S
O319 C347 1.214 . S
H320 C348 0.929 . S
H321 C349 0.929 1_455 S
H322 C350 0.930 . S
H323 C351 0.929 . S
H324 C353 0.930 . S
H325 C330 0.930 . S
H326 C334 0.930 . S
O327 Co296 2.037 . S
O327 C347 1.234 . S
C328 O302 1.269 . S
C328 O303 1.257 1_554 S
C329 H304 0.930 . S
C329 C332 1.388 . S
C329 C334 1.418 . S
C330 H325 0.930 . S
C330 C333 1.404 . S
C330 C334 1.353 . S
N331 Co296 2.145 . S
N331 C332 1.397 . S
N331 C333 1.334 . S
C332 H313 0.929 . S
C332 C329 1.388 . S
C332 N331 1.397 . S
C333 H314 0.929 1_455 S
C333 C330 1.404 . S
C333 N331 1.334 . S
C334 H326 0.930 . S
C334 C329 1.418 . S
C334 C330 1.353 . S
C335 H305 0.930 . S
C335 N336 1.330 . S
C335 C337 1.446 . S
N336 Co295 2.151 1_655 S
N336 C335 1.330 . S
N336 C340 1.418 1_655 S
C337 H316 0.929 . S
C337 C335 1.446 . S
C337 C338 1.332 . S
C338 H318 0.931 . S
C338 C337 1.332 . S
C338 C339 1.267 . S
C339 H307 0.929 1_655 S
C339 C338 1.267 . S
C339 C340 1.251 1_655 S
C340 H310 0.929 . S
C340 N336 1.418 1_455 S
C340 C339 1.251 1_455 S
C341 H308 0.930 . S
C341 C343 1.406 . S
C341 C346 1.261 . S
C342 H309 0.930 . S
C342 N344 1.325 . S
C342 C345 1.357 . S
C343 H311 0.928 . S
C343 C341 1.406 . S
C343 N344 1.261 . S
N344 Co295 2.214 . S
N344 C342 1.325 . S
N344 C343 1.261 . S
C345 H315 0.931 . S
C345 C342 1.357 . S
C345 C346 1.312 . S
C346 H317 0.930 . S
C346 C341 1.261 . S
C346 C345 1.312 . S
C347 O319 1.214 . S
C347 O327 1.234 . S
C348 H320 0.929 . S
C348 C351 1.391 . S
C348 C353 1.391 . S
C349 H321 0.929 1_655 S
C349 C350 1.390 . S
C349 N352 1.391 . S
C350 H322 0.930 . S
C350 C349 1.390 . S
C350 C351 1.392 . S
C351 H323 0.929 . S
C351 C348 1.391 . S
C351 C350 1.392 . S
N352 Co296 2.257 1_655 S
N352 C349 1.391 . S
N352 C353 1.388 . S
C353 H324 0.930 . S
C353 C348 1.391 . S
C353 N352 1.388 . S
Co354 O356 2.143 . S
Co354 O362 2.074 . S
Co354 O365 2.093 . S
Co354 O378 2.097 . S
Co354 N395 2.151 . S
Co354 N403 2.214 1_554 S
Co355 O356 2.160 . S
Co355 O361 2.058 . S
Co355 O371 2.057 . S
Co355 O386 2.037 . S
Co355 N390 2.145 . S
Co355 N411 2.257 . S
O356 Co354 2.143 . S
O356 Co355 2.160 . S
C357 O358 1.278 . S
C357 O365 1.224 . S
O358 C357 1.278 . S
C359 O360 1.245 . S
C359 O371 1.232 . S
O360 C359 1.245 . S
O361 Co355 2.058 . S
O361 C387 1.269 . S
O362 Co354 2.074 . S
O362 C387 1.257 . S
H363 C388 0.930 . S
H364 C394 0.930 1_554 S
O365 Co354 2.093 . S
O365 C357 1.224 . S
H366 C398 0.929 . S
H367 C400 0.930 . S
H368 C401 0.930 1_554 S
H369 C399 0.929 . S
H370 C402 0.928 . S
O371 Co355 2.057 . S
O371 C359 1.232 . S
H372 C391 0.929 . S
H373 C392 0.929 . S
H374 C404 0.931 . S
H375 C396 0.929 . S
H376 C405 0.930 . S
H377 C397 0.931 . S
O378 Co354 2.097 . S
O378 C406 1.214 . S
H379 C407 0.929 . S
H380 C408 0.929 . S
H381 C409 0.930 . S
H382 C410 0.929 . S
H383 C412 0.930 . S
H384 C389 0.930 . S
H385 C393 0.930 . S
O386 Co355 2.037 . S
O386 C406 1.234 . S
C387 O361 1.269 . S
C387 O362 1.257 . S
C388 H363 0.930 . S
C388 C391 1.388 . S
C388 C393 1.418 1_556 S
C389 H384 0.930 . S
C389 C392 1.404 1_554 S
C389 C393 1.353 . S
N390 Co355 2.145 . S
N390 C391 1.397 . S
N390 C392 1.334 . S
C391 H372 0.929 . S
C391 C388 1.388 . S
C391 N390 1.397 . S
C392 H373 0.929 . S
C392 C389 1.404 1_556 S
C392 N390 1.334 . S
C393 H385 0.930 . S
C393 C388 1.418 1_554 S
C393 C389 1.353 . S
C394 H364 0.930 1_556 S
C394 N395 1.330 1_556 S
C394 C396 1.446 . S
N395 Co354 2.151 . S
N395 C394 1.330 1_554 S
N395 C399 1.418 1_554 S
C396 H375 0.929 . S
C396 C394 1.446 . S
C396 C397 1.332 . S
C397 H377 0.931 . S
C397 C396 1.332 . S
C397 C398 1.267 . S
C398 H366 0.929 . S
C398 C397 1.267 . S
C398 C399 1.251 . S
C399 H369 0.929 . S
C399 N395 1.418 1_556 S
C399 C398 1.251 . S
C400 H367 0.930 . S
C400 C402 1.406 . S
C400 C405 1.261 . S
C401 H368 0.930 1_556 S
C401 N403 1.325 . S
C401 C404 1.357 . S
C402 H370 0.928 . S
C402 C400 1.406 . S
C402 N403 1.261 . S
N403 Co354 2.214 1_556 S
N403 C401 1.325 . S
N403 C402 1.261 . S
C404 H374 0.931 . S
C404 C401 1.357 . S
C404 C405 1.312 . S
C405 H376 0.930 . S
C405 C400 1.261 . S
C405 C404 1.312 . S
C406 O378 1.214 . S
C406 O386 1.234 . S
C407 H379 0.929 . S
C407 C410 1.391 . S
C407 C412 1.391 . S
C408 H380 0.929 . S
C408 C409 1.390 . S
C408 N411 1.391 . S
C409 H381 0.930 . S
C409 C408 1.390 . S
C409 C410 1.392 . S
C410 H382 0.929 . S
C410 C407 1.391 . S
C410 C409 1.392 . S
N411 Co355 2.257 . S
N411 C408 1.391 . S
N411 C412 1.388 . S
C412 H383 0.930 . S
C412 C407 1.391 . S
C412 N411 1.388 . S
Co413 O415 2.143 . S
Co413 O421 2.074 . S
Co413 O424 2.093 . S
Co413 O437 2.097 . S
Co413 N454 2.151 . S
Co413 N462 2.214 1_556 S
Co414 O415 2.160 . S
Co414 O420 2.058 . S
Co414 O430 2.057 . S
Co414 O445 2.037 . S
Co414 N449 2.145 . S
Co414 N470 2.257 . S
O415 Co413 2.143 . S
O415 Co414 2.160 . S
C416 O417 1.278 . S
C416 O424 1.224 . S
O417 C416 1.278 . S
C418 O419 1.245 . S
C418 O430 1.232 . S
O419 C418 1.245 . S
O420 Co414 2.058 . S
O420 C446 1.269 . S
O421 Co413 2.074 . S
O421 C446 1.257 . S
H422 C447 0.930 . S
H423 C453 0.930 1_556 S
O424 Co413 2.093 . S
O424 C416 1.224 . S
H425 C457 0.929 . S
H426 C459 0.930 . S
H427 C460 0.930 1_556 S
H428 C458 0.929 . S
H429 C461 0.928 . S
O430 Co414 2.057 . S
O430 C418 1.232 . S
H431 C450 0.929 . S
H432 C451 0.929 . S
H433 C463 0.931 . S
H434 C455 0.929 . S
H435 C464 0.930 . S
H436 C456 0.931 . S
O437 Co413 2.097 . S
O437 C465 1.214 . S
H438 C466 0.929 . S
H439 C467 0.929 . S
H440 C468 0.930 . S
H441 C469 0.929 . S
H442 C471 0.930 . S
H443 C448 0.930 . S
H444 C452 0.930 . S
O445 Co414 2.037 . S
O445 C465 1.234 . S
C446 O420 1.269 . S
C446 O421 1.257 . S
C447 H422 0.930 . S
C447 C450 1.388 . S
C447 C452 1.418 1_554 S
C448 H443 0.930 . S
C448 C451 1.404 1_556 S
C448 C452 1.353 . S
N449 Co414 2.145 . S
N449 C450 1.397 . S
N449 C451 1.334 . S
C450 H431 0.929 . S
C450 C447 1.388 . S
C450 N449 1.397 . S
C451 H432 0.929 . S
C451 C448 1.404 1_554 S
C451 N449 1.334 . S
C452 H444 0.930 . S
C452 C447 1.418 1_556 S
C452 C448 1.353 . S
C453 H423 0.930 1_554 S
C453 N454 1.330 1_554 S
C453 C455 1.446 . S
N454 Co413 2.151 . S
N454 C453 1.330 1_556 S
N454 C458 1.418 1_556 S
C455 H434 0.929 . S
C455 C453 1.446 . S
C455 C456 1.332 . S
C456 H436 0.931 . S
C456 C455 1.332 . S
C456 C457 1.267 . S
C457 H425 0.929 . S
C457 C456 1.267 . S
C457 C458 1.251 . S
C458 H428 0.929 . S
C458 N454 1.418 1_554 S
C458 C457 1.251 . S
C459 H426 0.930 . S
C459 C461 1.406 . S
C459 C464 1.261 . S
C460 H427 0.930 1_554 S
C460 N462 1.325 . S
C460 C463 1.357 . S
C461 H429 0.928 . S
C461 C459 1.406 . S
C461 N462 1.261 . S
N462 Co413 2.214 1_554 S
N462 C460 1.325 . S
N462 C461 1.261 . S
C463 H433 0.931 . S
C463 C460 1.357 . S
C463 C464 1.312 . S
C464 H435 0.930 . S
C464 C459 1.261 . S
C464 C463 1.312 . S
C465 O437 1.214 . S
C465 O445 1.234 . S
C466 H438 0.929 . S
C466 C469 1.391 . S
C466 C471 1.391 . S
C467 H439 0.929 . S
C467 C468 1.390 . S
C467 N470 1.391 . S
C468 H440 0.930 . S
C468 C467 1.390 . S
C468 C469 1.392 . S
C469 H441 0.929 . S
C469 C466 1.391 . S
C469 C468 1.392 . S
N470 Co414 2.257 . S
N470 C467 1.391 . S
N470 C471 1.388 . S
C471 H442 0.930 . S
C471 C466 1.391 . S
C471 N470 1.388 . S
C472 C473 1.369 . S
C472 C474 1.419 . S
C472 H476 0.930 . S
C473 C472 1.369 . S
C473 C482 1.429 1_556 S
C474 C472 1.419 . S
C474 C475 1.363 1_556 S
C474 H477 0.929 . S
C475 C474 1.363 1_554 S
C475 C481 1.428 . S
H476 C472 0.930 . S
H477 C474 0.929 . S
S478 N479 1.613 . S
S478 N480 1.610 . S
N479 S478 1.613 . S
N479 C482 1.350 . S
N480 S478 1.610 . S
N480 C481 1.351 . S
C481 C475 1.428 . S
C481 N480 1.351 . S
C481 C482 1.434 . S
C482 C473 1.429 1_554 S
C482 N479 1.350 . S
C482 C481 1.434 . S
C483 C484 1.369 . S
C483 C485 1.419 . S
C483 H487 0.930 . S
C484 C483 1.369 . S
C484 C493 1.429 . S
C485 C483 1.419 . S
C485 C486 1.363 . S
C485 H488 0.929 . S
C486 C485 1.363 . S
C486 C492 1.428 . S
H487 C483 0.930 . S
H488 C485 0.929 . S
S489 N490 1.613 1_556 S
S489 N491 1.610 . S
N490 S489 1.613 1_554 S
N490 C493 1.350 . S
N491 S489 1.610 . S
N491 C492 1.351 1_556 S
C492 C486 1.428 . S
C492 N491 1.351 1_554 S
C492 C493 1.434 . S
C493 C484 1.429 . S
C493 N490 1.350 . S
C493 C492 1.434 . S
C494 C495 1.369 . S
C494 C496 1.419 . S
C494 H498 0.930 . S
C495 C494 1.369 . S
C495 C504 1.429 . S
C496 C494 1.419 . S
C496 C497 1.363 . S
C496 H499 0.929 . S
C497 C496 1.363 . S
C497 C503 1.428 . S
H498 C494 0.930 . S
H499 C496 0.929 . S
S500 N501 1.613 . S
S500 N502 1.610 . S
N501 S500 1.613 . S
N501 C504 1.350 . S
N502 S500 1.610 . S
N502 C503 1.351 . S
C503 C497 1.428 . S
C503 N502 1.351 . S
C503 C504 1.434 . S
C504 C495 1.429 . S
C504 N501 1.350 . S
C504 C503 1.434 . S
C505 C506 1.369 . S
C505 C507 1.419 . S
C505 H509 0.930 . S
C506 C505 1.369 . S
C506 C515 1.429 . S
C507 C505 1.419 . S
C507 C508 1.363 . S
C507 H510 0.929 . S
C508 C507 1.363 . S
C508 C514 1.428 . S
H509 C505 0.930 . S
H510 C507 0.929 . S
S511 N512 1.613 . S
S511 N513 1.610 1_554 S
N512 S511 1.613 . S
N512 C515 1.350 1_554 S
N513 S511 1.610 1_556 S
N513 C514 1.351 . S
C514 C508 1.428 . S
C514 N513 1.351 . S
C514 C515 1.434 . S
C515 C506 1.429 . S
C515 N512 1.350 1_556 S
C515 C514 1.434 . S
C516 C517 1.369 . S
C516 C518 1.419 . S
C516 H520 0.930 . S
C517 C516 1.369 . S
C517 C526 1.429 . S
C518 C516 1.419 . S
C518 C519 1.363 . S
C518 H521 0.929 . S
C519 C518 1.363 . S
C519 C525 1.428 . S
H520 C516 0.930 . S
H521 C518 0.929 . S
S522 N523 1.613 . S
S522 N524 1.610 . S
N523 S522 1.613 . S
N523 C526 1.350 . S
N524 S522 1.610 . S
N524 C525 1.351 . S
C525 C519 1.428 . S
C525 N524 1.351 . S
C525 C526 1.434 . S
C526 C517 1.429 . S
C526 N523 1.350 . S
C526 C525 1.434 . S
C527 C528 1.369 . S
C527 C529 1.419 . S
C527 H531 0.930 . S
C528 C527 1.369 . S
C528 C537 1.429 . S
C529 C527 1.419 . S
C529 C530 1.363 . S
C529 H532 0.929 . S
C530 C529 1.363 . S
C530 C536 1.428 . S
H531 C527 0.930 . S
H532 C529 0.929 . S
S533 N534 1.613 . S
S533 N535 1.610 1_554 S
N534 S533 1.613 . S
N534 C537 1.350 1_554 S
N535 S533 1.610 1_556 S
N535 C536 1.351 . S
C536 C530 1.428 . S
C536 N535 1.351 . S
C536 C537 1.434 . S
C537 C528 1.429 . S
C537 N534 1.350 1_556 S
C537 C536 1.434 . S
C538 C539 1.369 . S
C538 C540 1.419 . S
C538 H542 0.930 . S
C539 C538 1.369 . S
C539 C548 1.429 1_554 S
C540 C538 1.419 . S
C540 C541 1.363 1_554 S
C540 H543 0.929 . S
C541 C540 1.363 1_556 S
C541 C547 1.428 . S
H542 C538 0.930 . S
H543 C540 0.929 . S
S544 N545 1.613 . S
S544 N546 1.610 . S
N545 S544 1.613 . S
N545 C548 1.350 . S
N546 S544 1.610 . S
N546 C547 1.351 . S
C547 C541 1.428 . S
C547 N546 1.351 . S
C547 C548 1.434 . S
C548 C539 1.429 1_556 S
C548 N545 1.350 . S
C548 C547 1.434 . S
C549 C550 1.369 . S
C549 C551 1.419 . S
C549 H553 0.930 . S
C550 C549 1.369 . S
C550 C559 1.429 . S
C551 C549 1.419 . S
C551 C552 1.363 . S
C551 H554 0.929 . S
C552 C551 1.363 . S
C552 C558 1.428 . S
H553 C549 0.930 . S
H554 C551 0.929 . S
S555 N556 1.613 . S
S555 N557 1.610 . S
N556 S555 1.613 . S
N556 C559 1.350 . S
N557 S555 1.610 . S
N557 C558 1.351 . S
C558 C552 1.428 . S
C558 N557 1.351 . S
C558 C559 1.434 . S
C559 C550 1.429 . S
C559 N556 1.350 . S
C559 C558 1.434 . S
C560 C561 1.369 . S
C560 C562 1.419 . S
C560 H564 0.930 . S
C561 C560 1.369 . S
C561 C570 1.429 . S
C562 C560 1.419 . S
C562 C563 1.363 . S
C562 H565 0.929 . S
C563 C562 1.363 . S
C563 C569 1.428 . S
H564 C560 0.930 . S
H565 C562 0.929 . S
S566 N567 1.613 . S
S566 N568 1.610 . S
N567 S566 1.613 . S
N567 C570 1.350 . S
N568 S566 1.610 . S
N568 C569 1.351 . S
C569 C563 1.428 . S
C569 N568 1.351 . S
C569 C570 1.434 . S
C570 C561 1.429 . S
C570 N567 1.350 . S
C570 C569 1.434 . S
C571 C572 1.369 . S
C571 C573 1.419 . S
C571 H575 0.930 . S
C572 C571 1.369 . S
C572 C581 1.429 . S
C573 C571 1.419 . S
C573 C574 1.363 . S
C573 H576 0.929 . S
C574 C573 1.363 . S
C574 C580 1.428 . S
H575 C571 0.930 . S
H576 C573 0.929 . S
S577 N578 1.613 . S
S577 N579 1.610 . S
N578 S577 1.613 . S
N578 C581 1.350 . S
N579 S577 1.610 . S
N579 C580 1.351 . S
C580 C574 1.428 . S
C580 N579 1.351 . S
C580 C581 1.434 . S
C581 C572 1.429 . S
C581 N578 1.350 . S
C581 C580 1.434 . S
C582 C583 1.369 . S
C582 C584 1.419 1_554 S
C582 H586 0.930 . S
C583 C582 1.369 . S
C583 C592 1.429 . S
C584 C582 1.419 1_556 S
C584 C585 1.363 . S
C584 H587 0.929 . S
C585 C584 1.363 . S
C585 C591 1.428 . S
H586 C582 0.930 . S
H587 C584 0.929 . S
S588 N589 1.613 1_556 S
S588 N590 1.610 . S
N589 S588 1.613 1_554 S
N589 C592 1.350 . S
N590 S588 1.610 . S
N590 C591 1.351 . S
C591 C585 1.428 . S
C591 N590 1.351 . S
C591 C592 1.434 1_556 S
C592 C583 1.429 . S
C592 N589 1.350 . S
C592 C591 1.434 1_554 S
C593 C594 1.369 . S
C593 C595 1.419 . S
C593 H597 0.930 . S
C594 C593 1.369 . S
C594 C603 1.429 . S
C595 C593 1.419 . S
C595 C596 1.363 . S
C595 H598 0.929 . S
C596 C595 1.363 . S
C596 C602 1.428 . S
H597 C593 0.930 . S
H598 C595 0.929 . S
S599 N600 1.613 . S
S599 N601 1.610 . S
N600 S599 1.613 . S
N600 C603 1.350 . S
N601 S599 1.610 . S
N601 C602 1.351 . S
C602 C596 1.428 . S
C602 N601 1.351 . S
C602 C603 1.434 . S
C603 C594 1.429 . S
C603 N600 1.350 . S
C603 C602 1.434 . S
C604 C605 1.369 . S
C604 C606 1.419 . S
C604 H608 0.930 . S
C605 C604 1.369 . S
C605 C614 1.429 . S
C606 C604 1.419 . S
C606 C607 1.363 . S
C606 H609 0.929 . S
C607 C606 1.363 . S
C607 C613 1.428 . S
H608 C604 0.930 . S
H609 C606 0.929 . S
S610 N611 1.613 . S
S610 N612 1.610 . S
N611 S610 1.613 . S
N611 C614 1.350 . S
N612 S610 1.610 . S
N612 C613 1.351 . S
C613 C607 1.428 . S
C613 N612 1.351 . S
C613 C614 1.434 . S
C614 C605 1.429 . S
C614 N611 1.350 . S
C614 C613 1.434 . S
C615 C616 1.369 . S
C615 C617 1.419 . S
C615 H619 0.930 . S
C616 C615 1.369 . S
C616 C625 1.429 1_556 S
C617 C615 1.419 . S
C617 C618 1.363 1_556 S
C617 H620 0.929 . S
C618 C617 1.363 1_554 S
C618 C624 1.428 . S
H619 C615 0.930 . S
H620 C617 0.929 . S
S621 N622 1.613 . S
S621 N623 1.610 . S
N622 S621 1.613 . S
N622 C625 1.350 . S
N623 S621 1.610 . S
N623 C624 1.351 . S
C624 C618 1.428 . S
C624 N623 1.351 . S
C624 C625 1.434 . S
C625 C616 1.429 1_554 S
C625 N622 1.350 . S
C625 C624 1.434 . S
C626 C627 1.369 . S
C626 C628 1.419 . S
C626 H630 0.930 . S
C627 C626 1.369 . S
C627 C636 1.429 . S
C628 C626 1.419 . S
C628 C629 1.363 . S
C628 H631 0.929 . S
C629 C628 1.363 . S
C629 C635 1.428 . S
H630 C626 0.930 . S
H631 C628 0.929 . S
S632 N633 1.613 . S
S632 N634 1.610 . S
N633 S632 1.613 . S
N633 C636 1.350 . S
N634 S632 1.610 . S
N634 C635 1.351 . S
C635 C629 1.428 . S
C635 N634 1.351 . S
C635 C636 1.434 . S
C636 C627 1.429 . S
C636 N633 1.350 . S
C636 C635 1.434 . S
C637 C638 1.369 . S
C637 C639 1.419 . S
C637 H641 0.930 . S
C638 C637 1.369 . S
C638 C647 1.429 . S
C639 C637 1.419 . S
C639 C640 1.363 . S
C639 H642 0.929 . S
C640 C639 1.363 . S
C640 C646 1.428 . S
H641 C637 0.930 . S
H642 C639 0.929 . S
S643 N644 1.613 . S
S643 N645 1.610 . S
N644 S643 1.613 . S
N644 C647 1.350 . S
N645 S643 1.610 . S
N645 C646 1.351 . S
C646 C640 1.428 . S
C646 N645 1.351 . S
C646 C647 1.434 . S
C647 C638 1.429 . S
C647 N644 1.350 . S
C647 C646 1.434 . S
C473 C64 1.503 . S
C475 C5 1.503 . S
C484 C62 1.496 . S
C486 C123 1.506 . S
C495 C180 1.497 . S
C497 C121 1.497 . S
C506 C182 1.506 . S
C508 C3 1.496 . S
C517 C241 1.503 . S
C519 C300 1.503 . S
C528 C298 1.496 . S
C530 C359 1.506 . S
C539 C357 1.499 . S
C541 C416 1.499 . S
C550 C239 1.494 . S
C552 C418 1.505 . S
C561 C33 1.515 . S
C563 C465 1.513 . S
C572 C288 1.508 . S
C574 C111 1.508 . S
C583 C328 1.515 . S
C585 C170 1.513 . S
C594 C210 1.519 . S
C596 C387 1.519 . S
C605 C151 1.519 . S
C607 C446 1.519 . S
C616 C269 1.515 . S
C618 C229 1.513 . S
C627 C347 1.508 . S
C629 C52 1.509 . S
C638 C92 1.514 . S
C640 C406 1.513 . S
