# Generated by pormake.
# Topology qtz-x, (6)-cn, num edge types: 1
# Building blocks:
#     Node 0, Type 0, BuildingBlock: KUMBUR_clean_sbu_1, # of connection points: 6
#     Node 1, Type 0, BuildingBlock: KUMBUR_clean_sbu_1, # of connection points: 6
#     Node 2, Type 0, BuildingBlock: KUMBUR_clean_sbu_1, # of connection points: 6
#     Edge 3, Type (0, 0), BuildingBlock: MIFKUJ_clean_linker_0, # of connection points: 2
#     Edge 4, Type (0, 0), BuildingBlock: MIFKUJ_clean_linker_0, # of connection points: 2
#     Edge 5, Type (0, 0), BuildingBlock: MIFKUJ_clean_linker_0, # of connection points: 2
#     Edge 6, Type (0, 0), BuildingBlock: MIFKUJ_clean_linker_0, # of connection points: 2
#     Edge 7, Type (0, 0), BuildingBlock: MIFKUJ_clean_linker_0, # of connection points: 2
#     Edge 8, Type (0, 0), BuildingBlock: MIFKUJ_clean_linker_0, # of connection points: 2
#     Edge 9, Type (0, 0), BuildingBlock: MIFKUJ_clean_linker_0, # of connection points: 2
#     Edge 10, Type (0, 0), BuildingBlock: MIFKUJ_clean_linker_0, # of connection points: 2
#     Edge 11, Type (0, 0), BuildingBlock: MIFKUJ_clean_linker_0, # of connection points: 2
# Relax obj value: 0.202
# Max RMSD: 0.275
# Mean RMSD: 0.275
data_MOF--net-qtz-x--node1-KUMBUR_clean_sbu_1--edge1-MIFKUJ_clean_linker_0
_symmetry_space_group_name_H-M    P1
_symmetry_Int_Tables_number       1
_symmetry_cell_setting            triclinic
loop_
_symmetry_equiv_pos_as_xyz
'x, y, z'
_cell_length_a     19.324602
_cell_length_b     19.31641
_cell_length_c     64.275878
_cell_angle_alpha  89.994429
_cell_angle_beta   89.970467
_cell_angle_gamma 119.97215
loop_
_atom_site_label
_atom_site_type_symbol
_atom_site_fract_x
_atom_site_fract_y
_atom_site_fract_z
_atom_type_partial_charge
Tb0 Tb 0.01113 0.39795 0.14953 0.0
C1 C 0.38235 0.52514 0.16114 0.0
N2 N 0.31954 0.47258 0.17291 0.0
C3 C 0.37825 0.38904 0.1761 0.0
C4 C 0.44451 0.51031 0.15577 0.0
C5 C 0.31852 0.40692 0.1812 0.0
C6 C 0.44103 0.44043 0.16311 0.0
C7 C 0.45089 0.6529 0.14333 0.0
C8 C 0.38559 0.59543 0.15498 0.0
C9 C 0.51187 0.63744 0.13742 0.0
C10 C 0.50864 0.56625 0.1436 0.0
Tb11 Tb 0.22442 0.5071 0.17939 0.0
N12 N 0.32471 0.60757 0.16059 0.0
C13 C 0.4533 0.72451 0.13819 0.0
C14 C 0.32916 0.67939 0.15673 0.0
C15 C 0.39266 0.73819 0.14515 0.0
H16 H 0.27262 0.36891 0.19209 0.0
H17 H 0.39504 0.79418 0.14171 0.0
H18 H 0.95943 0.5354 0.15643 0.0
H19 H 0.8755 0.08849 0.17457 0.0
H20 H 0.28388 0.69133 0.16256 0.0
H21 H 0.50247 0.77023 0.12925 0.0
H22 H 0.97064 0.20665 0.15498 0.0
H23 H 0.37639 0.33621 0.18244 0.0
H24 H 0.56228 0.68057 0.12832 0.0
H25 H 0.55668 0.55564 0.13919 0.0
H26 H 0.85311 0.54667 0.17467 0.0
H27 H 0.48754 0.42675 0.15931 0.0
H28 H 0.76739 0.09011 0.19465 0.0
N29 N 0.92008 0.41725 0.1671 0.0
C30 C 0.86196 0.35213 0.17715 0.0
C31 C 0.85545 0.49195 0.17568 0.0
C32 C 0.79896 0.3552 0.18735 0.0
C33 C 0.91641 0.48588 0.16564 0.0
C34 C 0.79669 0.4265 0.18668 0.0
N35 N 0.92647 0.28111 0.16648 0.0
C36 C 0.92832 0.21143 0.16487 0.0
C37 C 0.80665 0.21372 0.18738 0.0
C38 C 0.86605 0.28237 0.17712 0.0
C39 C 0.81144 0.14391 0.1868 0.0
C40 C 0.87247 0.14281 0.17548 0.0
H41 H 0.7492 0.43121 0.19431 0.0
H42 H 0.69064 0.28786 0.20538 0.0
H43 H 0.69594 0.16353 0.20478 0.0
O44 O 0.92051 0.31564 0.12962 0.0
O45 O 0.02264 0.43629 0.18228 0.0
O46 O 0.11807 0.40933 0.19325 0.0
O47 O 0.98183 0.44134 0.12296 0.0
O48 O 0.07983 0.33481 0.14853 0.0
O49 O 0.15986 0.37533 0.17812 0.0
O50 O 0.22333 0.57575 0.20465 0.0
O51 O 0.22352 0.52736 0.14568 0.0
O52 O 0.11497 0.41409 0.13198 0.0
O53 O 0.30687 0.53336 0.20374 0.0
O54 O 0.15666 0.56982 0.177 0.0
O55 O 0.08265 0.52799 0.14649 0.0
C56 C 0.05582 0.41665 0.19722 0.0
C57 C 0.85106 0.3656 0.10989 0.0
C58 C 0.77319 0.37091 0.08049 0.0
C59 C 0.71842 0.37214 0.0948 0.0
C60 C 0.79427 0.364 0.12371 0.0
C61 C 0.72838 0.36737 0.11617 0.0
C62 C 0.83904 0.36654 0.08842 0.0
C63 C 0.12689 0.3269 0.16211 0.0
C64 C 0.92578 0.37101 0.11717 0.0
C65 C 0.7399 0.28698 0.19758 0.0
C66 C 0.74344 0.21633 0.19744 0.0
C67 C 0.18637 0.47754 0.13029 0.0
C68 C 0.34567 0.65376 0.22187 0.0
C69 C 0.40212 0.74514 0.25123 0.0
C70 C 0.45884 0.80333 0.23782 0.0
C71 C 0.40427 0.71155 0.20883 0.0
C72 C 0.34526 0.67058 0.24307 0.0
C73 C 0.46002 0.78627 0.21675 0.0
C74 C 0.1217 0.58191 0.16095 0.0
C75 C 0.2834 0.57616 0.21384 0.0
H76 H 0.66832 0.37807 0.0897 0.0
H77 H 0.80079 0.36086 0.14023 0.0
H78 H 0.68549 0.36763 0.12697 0.0
H79 H 0.88192 0.36417 0.07804 0.0
H80 H 0.50344 0.86117 0.24373 0.0
H81 H 0.4074 0.69908 0.19263 0.0
H82 H 0.30026 0.62578 0.2532 0.0
H83 H 0.50469 0.83085 0.20656 0.0
Tb84 Tb 0.62659 0.11882 0.48818 0.0
C85 C 0.37231 0.76729 0.4846 0.0
N86 N 0.38057 0.82427 0.49843 0.0
C87 C 0.24079 0.7805 0.49516 0.0
C88 C 0.2983 0.71631 0.47504 0.0
C89 C 0.31485 0.82794 0.5047 0.0
C90 C 0.23269 0.72517 0.48003 0.0
C91 C 0.42987 0.69488 0.4679 0.0
C92 C 0.43691 0.75615 0.48116 0.0
C93 C 0.35694 0.64559 0.45784 0.0
C94 C 0.2912 0.65589 0.46157 0.0
Tb95 Tb 0.5051 0.89719 0.51288 0.0
N96 N 0.50647 0.80473 0.49121 0.0
C97 C 0.49581 0.68388 0.46557 0.0
C98 C 0.5696 0.79167 0.48989 0.0
C99 C 0.56571 0.73199 0.47679 0.0
H100 H 0.31801 0.86482 0.51762 0.0
H101 H 0.61631 0.72268 0.47548 0.0
H102 H 0.81219 0.1726 0.50089 0.0
H103 H 0.46431 0.27824 0.49636 0.0
H104 H 0.62301 0.82733 0.49889 0.0
H105 H 0.4928 0.63741 0.45553 0.0
H106 H 0.49663 0.18257 0.48025 0.0
H107 H 0.18945 0.78501 0.49994 0.0
H108 H 0.35013 0.59802 0.4476 0.0
H109 H 0.23429 0.61505 0.45457 0.0
H110 H 0.91631 0.26974 0.52468 0.0
H111 H 0.17485 0.6873 0.47296 0.0
H112 H 0.54897 0.36674 0.52471 0.0
N113 N 0.72722 0.20712 0.50916 0.0
C114 C 0.71365 0.2607 0.51939 0.0
C115 C 0.85927 0.2673 0.52348 0.0
C116 C 0.77136 0.3178 0.53286 0.0
C117 C 0.80031 0.21224 0.5101 0.0
C118 C 0.84424 0.31944 0.53518 0.0
N119 N 0.59245 0.20831 0.501 0.0
C120 C 0.53113 0.21704 0.49344 0.0
C121 C 0.62921 0.31885 0.52443 0.0
C122 C 0.64329 0.2606 0.51535 0.0
C123 C 0.56189 0.32273 0.51816 0.0
C124 C 0.51368 0.27269 0.50225 0.0
H125 H 0.8902 0.3624 0.54541 0.0
H126 H 0.79907 0.41738 0.55338 0.0
H127 H 0.67506 0.41916 0.54567 0.0
O128 O 0.66447 0.22048 0.46931 0.0
O129 O 0.65056 0.09697 0.52035 0.0
O130 O 0.52791 1.00018 0.53191 0.0
O131 O 0.69358 0.13089 0.46113 0.0
O132 O 0.49504 0.0605 0.48854 0.0
O133 O 0.45106 0.97362 0.51674 0.0
O134 O 0.5506 0.86107 0.5378 0.0
O135 O 0.54319 0.91818 0.48016 0.0
O136 O 0.52726 0.02332 0.47112 0.0
O137 O 0.42528 0.79936 0.5311 0.0
O138 O 0.63548 0.9546 0.51397 0.0
O139 O 0.68309 0.04478 0.48631 0.0
C140 C 0.59857 0.06226 0.53541 0.0
C141 C 0.66187 0.19137 0.4339 0.0
C142 C 0.68312 0.22409 0.39684 0.0
C143 C 0.5997 0.18056 0.3939 0.0
C144 C 0.57906 0.15114 0.43062 0.0
C145 C 0.54829 0.14499 0.4107 0.0
C146 C 0.71389 0.22823 0.41702 0.0
C147 C 0.443 0.02148 0.50349 0.0
C148 C 0.69313 0.19472 0.45497 0.0
C149 C 0.75569 0.37318 0.54286 0.0
C150 C 0.6849 0.37394 0.53857 0.0
C151 C 0.52084 0.95414 0.46673 0.0
C152 C 0.46207 0.81273 0.5661 0.0
C153 C 0.4533 0.76879 0.60206 0.0
C154 C 0.43011 0.82448 0.60803 0.0
C155 C 0.43732 0.86659 0.57231 0.0
C156 C 0.46953 0.76364 0.58093 0.0
C157 C 0.42189 0.87266 0.59321 0.0
C158 C 0.69091 0.99886 0.50022 0.0
C159 C 0.47994 0.80758 0.54417 0.0
H160 H 0.57388 0.17361 0.37856 0.0
H161 H 0.53813 0.12462 0.44351 0.0
H162 H 0.48431 0.11263 0.40827 0.0
H163 H 0.77778 0.26102 0.4197 0.0
H164 H 0.41943 0.8318 0.6242 0.0
H165 H 0.42981 0.90377 0.56099 0.0
H166 H 0.48729 0.72118 0.57594 0.0
H167 H 0.40385 0.9151 0.59795 0.0
Tb168 Tb 0.73925 0.49431 0.81658 0.0
C169 C 0.60799 0.71962 0.81224 0.0
N170 N 0.66464 0.72034 0.825 0.0
C171 C 0.75453 0.85717 0.81573 0.0
C172 C 0.62392 0.7866 0.8 0.0
C173 C 0.73494 0.79007 0.82802 0.0
C174 C 0.6993 0.85506 0.80141 0.0
C175 C 0.4706 0.65071 0.80009 0.0
C176 C 0.53219 0.65282 0.81227 0.0
C177 C 0.48699 0.71622 0.78734 0.0
C178 C 0.56355 0.78393 0.78725 0.0
Tb179 Tb 0.62562 0.60306 0.84263 0.0
N180 N 0.51912 0.5894 0.82422 0.0
C181 C 0.39448 0.58272 0.80112 0.0
C182 C 0.4445 0.52424 0.82596 0.0
C183 C 0.38123 0.51956 0.81427 0.0
H184 H 0.77557 0.79567 0.84021 0.0
H185 H 0.32233 0.46733 0.81541 0.0
H186 H 0.62083 0.30284 0.82564 0.0
H187 H 0.05379 0.68845 0.83349 0.0
H188 H 0.43383 0.47575 0.83628 0.0
H189 H 0.34547 0.57874 0.792 0.0
H190 H 0.92954 0.64397 0.8138 0.0
H191 H 0.8117 0.91097 0.81758 0.0
H192 H 0.4407 0.7155 0.77769 0.0
H193 H 0.57496 0.83461 0.77762 0.0
H194 H 0.62185 0.1973 0.8473 0.0
H195 H 0.71422 0.90763 0.79217 0.0
H196 H 0.06024 0.60122 0.86071 0.0
N197 N 0.73494 0.39357 0.83603 0.0
C198 C 0.8013 0.41125 0.84721 0.0
C199 C 0.67244 0.25742 0.84753 0.0
C200 C 0.8046 0.35343 0.85984 0.0
C201 C 0.67182 0.31725 0.83539 0.0
C202 C 0.73872 0.27579 0.86002 0.0
N203 N 0.86175 0.5388 0.83189 0.0
C204 C 0.92951 0.60804 0.82662 0.0
C205 C 0.93738 0.50796 0.85635 0.0
C206 C 0.86636 0.48727 0.84545 0.0
C207 C 0.0045 0.58284 0.85264 0.0
C208 C 0.001 0.63235 0.83735 0.0
H209 H 0.73891 0.22944 0.86947 0.0
H210 H 0.87728 0.33157 0.88158 0.0
H211 H 0.99374 0.46716 0.87856 0.0
O212 O 0.81741 0.48594 0.79542 0.0
O213 O 0.69687 0.46602 0.84885 0.0
O214 O 0.71409 0.5861 0.85942 0.0
O215 O 0.69056 0.41653 0.79092 0.0
O216 O 0.79706 0.62575 0.81502 0.0
O217 O 0.7569 0.66542 0.84451 0.0
O218 O 0.55874 0.5616 0.87043 0.0
O219 O 0.59752 0.5574 0.8106 0.0
O220 O 0.71991 0.58166 0.80002 0.0
O221 O 0.60553 0.68259 0.8603 0.0
O222 O 0.56051 0.47197 0.84373 0.0
O223 O 0.60788 0.42661 0.81625 0.0
C224 C 0.70458 0.51567 0.86374 0.0
C225 C 0.76832 0.36201 0.77852 0.0
C226 C 0.76251 0.27121 0.75141 0.0
C227 C 0.79456 0.23856 0.76532 0.0
C228 C 0.80004 0.32867 0.79233 0.0
C229 C 0.81244 0.26675 0.78575 0.0
C230 C 0.74868 0.33232 0.7582 0.0
C231 C 0.81052 0.6772 0.83013 0.0
C232 C 0.76015 0.43115 0.78434 0.0
C233 C 0.87377 0.37478 0.87154 0.0
C234 C 0.93999 0.45206 0.86987 0.0
C235 C 0.64878 0.5699 0.79568 0.0
C236 C 0.60832 0.66213 0.89621 0.0
C237 C 0.59602 0.65834 0.93409 0.0
C238 C 0.6776 0.71596 0.93553 0.0
C239 C 0.68946 0.72057 0.89806 0.0
C240 C 0.56178 0.63143 0.91427 0.0
C241 C 0.72379 0.74679 0.91762 0.0
C242 C 0.5536 0.41682 0.83032 0.0
C243 C 0.57262 0.63256 0.87554 0.0
H244 H 0.80573 0.19142 0.76036 0.0
H245 H 0.81671 0.35137 0.80799 0.0
H246 H 0.83722 0.24147 0.79642 0.0
H247 H 0.72545 0.35892 0.74741 0.0
H248 H 0.70545 0.73851 0.95051 0.0
H249 H 0.72684 0.74487 0.88439 0.0
H250 H 0.49928 0.58628 0.91287 0.0
H251 H 0.78644 0.79129 0.91891 0.0
H252 H 0.11033 0.65691 0.12616 0.0
H253 H 0.12017 0.78824 0.12418 0.0
H254 H 0.14434 0.8102 0.19099 0.0
H255 H 0.13817 0.68121 0.1929 0.0
H256 H 0.03314 0.8448 0.13827 0.0
H257 H 0.2563 0.99926 0.20624 0.0
H258 H 0.36691 0.99215 0.22331 0.0
H259 H 0.41367 0.90402 0.16685 0.0
H260 H 0.30408 0.91155 0.14933 0.0
H261 H 0.14041 0.24132 0.19397 0.0
H262 H 0.14631 0.11801 0.19153 0.0
H263 H 0.13628 0.12682 0.12455 0.0
H264 H 0.12861 0.24935 0.12699 0.0
H265 H 0.24898 0.08118 0.17438 0.0
H266 H 0.03777 0.939 0.10525 0.0
H267 H 0.92593 0.94216 0.08764 0.0
H268 H 0.85764 0.0037 0.1452 0.0
H269 H 0.96915 0.00098 0.16322 0.0
C270 C 0.11794 0.69004 0.14038 0.0
C271 C 0.12428 0.65938 0.15965 0.0
C272 C 0.12353 0.76496 0.13925 0.0
C273 C 0.13472 0.80997 0.15739 0.0
C274 C 0.13827 0.7779 0.1767 0.0
C275 C 0.13425 0.7039 0.1778 0.0
C276 C 0.14123 0.8898 0.15625 0.0
C277 C 0.08117 0.89679 0.14586 0.0
C278 C 0.2034 0.95756 0.16637 0.0
C279 C 0.27145 0.95546 0.17652 0.0
C280 C 0.29054 0.97892 0.19741 0.0
C281 C 0.35295 0.97463 0.20718 0.0
C282 C 0.39707 0.94735 0.19618 0.0
C283 C 0.37919 0.92478 0.17536 0.0
C284 C 0.31692 0.92904 0.1655 0.0
C285 C 0.14019 0.21725 0.17874 0.0
C286 C 0.13401 0.25459 0.16067 0.0
C287 C 0.14348 0.14682 0.17735 0.0
C288 C 0.14072 0.11257 0.15788 0.0
C289 C 0.13683 0.1512 0.13976 0.0
C290 C 0.13264 0.22118 0.14116 0.0
C291 C 0.14017 0.03559 0.1567 0.0
C292 C 0.20148 0.02925 0.16663 0.0
C293 C 0.07958 0.96858 0.14601 0.0
C294 C 0.01223 0.97047 0.1355 0.0
C295 C 0.99885 0.95318 0.11415 0.0
C296 C 0.93567 0.95508 0.10411 0.0
C297 C 0.88505 0.9736 0.1153 0.0
C298 C 0.8974 0.99008 0.13657 0.0
C299 C 0.96066 0.9885 0.14669 0.0
H300 H 0.83609 0.97493 0.10751 0.0
H301 H 0.44519 0.94384 0.20379 0.0
H302 H 0.37269 0.05963 0.47218 0.0
H303 H 0.24768 0.06246 0.47369 0.0
H304 H 0.22005 0.99389 0.53833 0.0
H305 H 0.34708 0.9944 0.53724 0.0
H306 H 0.08382 0.89723 0.51142 0.0
H307 H 0.25953 0.16986 0.53115 0.0
H308 H 0.3759 0.30575 0.5284 0.0
H309 H 0.29554 0.33459 0.46846 0.0
H310 H 0.17872 0.19862 0.47082 0.0
H311 H 0.74656 0.94247 0.53117 0.0
H312 H 0.87574 0.9487 0.53283 0.0
H313 H 0.93734 0.06161 0.47248 0.0
H314 H 0.80894 0.05705 0.47084 0.0
H315 H 0.05804 0.13684 0.49886 0.0
H316 H 0.88106 0.86439 0.47913 0.0
H317 H 0.76259 0.73008 0.48228 0.0
H318 H 0.84512 0.69894 0.54166 0.0
H319 H 0.96347 0.83374 0.53904 0.0
C320 C 0.341 0.04697 0.48685 0.0
C321 C 0.3697 0.02705 0.50462 0.0
C322 C 0.26948 0.04819 0.48764 0.0
C323 C 0.22507 0.02846 0.50612 0.0
C324 C 0.25373 0.00919 0.52394 0.0
C325 C 0.32603 0.00939 0.52326 0.0
C326 C 0.14685 0.02449 0.50647 0.0
C327 C 0.07793 0.94966 0.50901 0.0
C328 C 0.13979 0.09275 0.50279 0.0
C329 C 0.21081 0.17381 0.50108 0.0
C330 C 0.26705 0.2049 0.5173 0.0
C331 C 0.33281 0.28211 0.51587 0.0
C332 C 0.34312 0.32876 0.49826 0.0
C333 C 0.2875 0.29837 0.48208 0.0
C334 C 0.22138 0.22133 0.48348 0.0
C335 C 0.7873 0.96811 0.51817 0.0
C336 C 0.76742 0.99914 0.50085 0.0
C337 C 0.86108 0.97151 0.51914 0.0
C338 C 0.91581 0.00496 0.50269 0.0
C339 C 0.89597 0.03565 0.48535 0.0
C340 C 0.82246 0.03276 0.48442 0.0
C341 C 0.99442 0.00933 0.50368 0.0
C342 C 0.06358 0.08425 0.50134 0.0
C343 C 0.00159 0.94096 0.50745 0.0
C344 C 0.93076 0.85955 0.50898 0.0
C345 C 0.87365 0.82919 0.49294 0.0
C346 C 0.80654 0.75293 0.49462 0.0
C347 C 0.79623 0.70608 0.51218 0.0
C348 C 0.85312 0.73535 0.52808 0.0
C349 C 0.92025 0.81167 0.5265 0.0
H350 H 0.74425 0.64704 0.51345 0.0
H351 H 0.39424 0.38843 0.49716 0.0
H352 H 0.88948 0.76301 0.8643 0.0
H353 H 0.01787 0.88766 0.86537 0.0
H354 H 0.03206 0.88577 0.79836 0.0
H355 H 0.9043 0.76027 0.79728 0.0
H356 H 0.1717 0.92008 0.8162 0.0
H357 H 0.98001 0.01435 0.82424 0.0
H358 H 0.86852 0.02048 0.84132 0.0
H359 H 0.99445 0.07916 0.89941 0.0
H360 H 0.10708 0.07462 0.88268 0.0
H361 H 0.47946 0.31579 0.79794 0.0
H362 H 0.35419 0.18834 0.79887 0.0
H363 H 0.33732 0.21438 0.86512 0.0
H364 H 0.46054 0.34376 0.86402 0.0
H365 H 0.20016 0.16504 0.84925 0.0
H366 H 0.39394 0.08208 0.84289 0.0
H367 H 0.50958 0.0785 0.82788 0.0
H368 H 0.38441 0.99269 0.77003 0.0
H369 H 0.26827 0.9966 0.7846 0.0
C370 C 0.92003 0.78952 0.84982 0.0
C371 C 0.88745 0.75237 0.83071 0.0
C372 C 0.99308 0.86069 0.85044 0.0
C373 C 0.03392 0.89639 0.83192 0.0
C374 C 0.00142 0.85912 0.81282 0.0
C375 C 0.92865 0.78765 0.81221 0.0
C376 C 0.11113 0.97211 0.83241 0.0
C377 C 0.17791 0.97403 0.82319 0.0
C378 C 0.11965 0.0414 0.84225 0.0
C379 C 0.05159 0.04351 0.85226 0.0
C380 C 0.98366 0.02812 0.84068 0.0
C381 C 0.92037 0.03141 0.85028 0.0
C382 C 0.92414 0.04947 0.87144 0.0
C383 C 0.99151 0.06498 0.88303 0.0
C384 C 0.05523 0.06247 0.87349 0.0
C385 C 0.44902 0.294 0.81269 0.0
C386 C 0.47935 0.33926 0.83091 0.0
C387 C 0.37775 0.22102 0.81324 0.0
C388 C 0.33698 0.19101 0.83214 0.0
C389 C 0.36765 0.23628 0.85037 0.0
C390 C 0.43797 0.31006 0.84973 0.0
C391 C 0.26106 0.11365 0.83281 0.0
C392 C 0.19442 0.11125 0.84228 0.0
C393 C 0.25314 0.04354 0.82354 0.0
C394 C 0.3226 0.04027 0.81479 0.0
C395 C 0.39123 0.06291 0.82692 0.0
C396 C 0.45687 0.0608 0.8185 0.0
C397 C 0.45445 0.03565 0.798 0.0
C398 C 0.38624 0.01225 0.7859 0.0
C399 C 0.32043 0.01428 0.79424 0.0
H400 H 0.50536 0.03412 0.79151 0.0
H401 H 0.875 0.05179 0.87883 0.0
H402 H 0.4458 0.63481 0.94067 0.0
H403 H 0.36962 0.59685 0.97316 0.0
H404 H 0.55986 0.58029 0.00355 0.0
H405 H 0.63513 0.61557 0.97094 0.0
H406 H 0.41894 0.46149 0.01579 0.0
H407 H 0.54037 0.7455 0.00916 0.0
H408 H 0.57366 0.87364 0.99262 0.0
H409 H 0.32506 0.80388 0.99107 0.0
H410 H 0.29016 0.67474 0.00737 0.0
H411 H 0.33227 0.49748 0.12077 0.0
H412 H 0.39667 0.52504 0.0867 0.0
H413 H 0.18879 0.51578 0.05902 0.0
H414 H 0.12536 0.49067 0.09348 0.0
H415 H 0.33254 0.6443 0.04484 0.0
H416 H 0.21538 0.3609 0.0544 0.0
H417 H 0.18981 0.23978 0.07357 0.0
H418 H 0.43969 0.31494 0.07144 0.0
H419 H 0.46702 0.43736 0.05261 0.0
C420 C 0.47079 0.62172 0.95417 0.0
C421 C 0.54681 0.62888 0.95328 0.0
C422 C 0.42755 0.60084 0.97279 0.0
C423 C 0.45966 0.58715 0.99089 0.0
C424 C 0.53411 0.59111 0.98982 0.0
C425 C 0.57733 0.61188 0.97122 0.0
C426 C 0.41683 0.57087 0.01108 0.0
C427 C 0.40067 0.50183 0.02221 0.0
C428 C 0.39192 0.62292 0.01934 0.0
C429 C 0.41258 0.70003 0.00926 0.0
C430 C 0.49272 0.75711 0.0051 0.0
C431 C 0.5119 0.83001 0.99581 0.0
C432 C 0.4515 0.84681 0.99074 0.0
C433 C 0.37178 0.79072 0.99497 0.0
C434 C 0.35226 0.71768 0.00424 0.0
C435 C 0.3015 0.50375 0.10757 0.0
C436 C 0.22513 0.49431 0.10978 0.0
C437 C 0.3376 0.51801 0.08802 0.0
C438 C 0.29733 0.52212 0.07031 0.0
C439 C 0.22089 0.51297 0.07251 0.0
C440 C 0.18471 0.49839 0.0921 0.0
C441 C 0.33492 0.5352 0.0495 0.0
C442 C 0.35019 0.60367 0.03829 0.0
C443 C 0.35988 0.48319 0.0413 0.0
C444 C 0.34333 0.40871 0.05224 0.0
C445 C 0.26497 0.35191 0.05814 0.0
C446 C 0.25015 0.28299 0.06894 0.0
C447 C 0.3131 0.26976 0.07375 0.0
C448 C 0.39099 0.32531 0.06772 0.0
C449 C 0.40617 0.39446 0.05697 0.0
H450 H 0.3015 0.21639 0.08213 0.0
H451 H 0.4665 0.90338 0.98361 0.0
H452 H 0.82923 0.23801 0.38795 0.0
H453 H 0.90826 0.29118 0.35606 0.0
H454 H 0.73576 0.35091 0.3326 0.0
H455 H 0.65849 0.30161 0.36458 0.0
H456 H 0.76357 0.24165 0.30803 0.0
H457 H 0.90109 0.4944 0.34203 0.0
H458 H 0.98363 0.59549 0.36815 0.0
H459 H 0.17906 0.55582 0.35521 0.0
H460 H 0.09703 0.45286 0.3294 0.0
H461 H 0.93694 0.44059 0.21255 0.0
H462 H 0.88261 0.41479 0.24784 0.0
H463 H 0.05943 0.35399 0.26695 0.0
H464 H 0.11078 0.37438 0.23133 0.0
H465 H 0.03595 0.46675 0.29423 0.0
H466 H 0.90209 0.20948 0.26332 0.0
H467 H 0.82038 0.098 0.23957 0.0
H468 H 0.62169 0.13604 0.24848 0.0
H469 H 0.70294 0.24929 0.2719 0.0
C470 C 0.80925 0.26453 0.37628 0.0
C471 C 0.73662 0.26418 0.37873 0.0
C472 C 0.85454 0.29488 0.35807 0.0
C473 C 0.82775 0.32496 0.34203 0.0
C474 C 0.7574 0.32796 0.34482 0.0
C475 C 0.71282 0.29877 0.36304 0.0
C476 C 0.86614 0.34271 0.32129 0.0
C477 C 0.82273 0.29126 0.30496 0.0
C478 C 0.94448 0.40634 0.31757 0.0
C479 C 0.99233 0.46486 0.33397 0.0
C480 C 0.96104 0.50588 0.34505 0.0
C481 C 0.0079 0.56383 0.35975 0.0
C482 C 0.08642 0.58188 0.36338 0.0
C483 C 0.11811 0.54156 0.35245 0.0
C484 C 0.0714 0.4833 0.3378 0.0
C485 C 0.96303 0.41983 0.22407 0.0
C486 C 0.02636 0.40695 0.2189 0.0
C487 C 0.93261 0.40615 0.2443 0.0
C488 C 0.96674 0.3819 0.25988 0.0
C489 C 0.03223 0.37243 0.25507 0.0
C490 C 0.0613 0.38402 0.2347 0.0
C491 C 0.93277 0.36513 0.2811 0.0
C492 C 0.97685 0.41673 0.29742 0.0
C493 C 0.85533 0.30065 0.28502 0.0
C494 C 0.80909 0.23874 0.26914 0.0
C495 C 0.84165 0.19546 0.25983 0.0
C496 C 0.79517 0.13144 0.24658 0.0
C497 C 0.71571 0.1095 0.24269 0.0
C498 C 0.68313 0.15282 0.25163 0.0
C499 C 0.7295 0.21721 0.2648 0.0
H500 H 0.67954 0.05929 0.23262 0.0
H501 H 0.12283 0.62756 0.37453 0.0
H502 H 0.50356 0.53662 0.78029 0.0
H503 H 0.47099 0.55294 0.74476 0.0
H504 H 0.71 0.61852 0.72533 0.0
H505 H 0.74481 0.60893 0.76133 0.0
H506 H 0.67266 0.7123 0.70739 0.0
H507 H 0.53997 0.43022 0.71403 0.0
H508 H 0.45372 0.29877 0.73023 0.0
H509 H 0.25083 0.33176 0.724 0.0
H510 H 0.33608 0.46398 0.70803 0.0
H511 H 0.56913 0.72617 0.60404 0.0
H512 H 0.59633 0.66131 0.63295 0.0
H513 H 0.39048 0.63717 0.66565 0.0
H514 H 0.36001 0.69768 0.63632 0.0
H515 H 0.41996 0.51105 0.67383 0.0
H516 H 0.56803 0.80427 0.66946 0.0
H517 H 0.65288 0.92105 0.64746 0.0
H518 H 0.83573 0.85661 0.6471 0.0
H519 H 0.75016 0.73699 0.66821 0.0
C520 C 0.54964 0.55601 0.76857 0.0
C521 C 0.62726 0.57351 0.77378 0.0
C522 C 0.5305 0.56374 0.7481 0.0
C523 C 0.58767 0.58589 0.7322 0.0
C524 C 0.66482 0.60149 0.73729 0.0
C525 C 0.68452 0.5956 0.75788 0.0
C526 C 0.56757 0.59569 0.71047 0.0
C527 C 0.61811 0.66744 0.69998 0.0
C528 C 0.49648 0.53737 0.70061 0.0
C529 C 0.4446 0.45731 0.70994 0.0
C530 C 0.47704 0.40965 0.71621 0.0
C531 C 0.42832 0.33498 0.72535 0.0
C532 C 0.34687 0.30699 0.72817 0.0
C533 C 0.31394 0.35353 0.7218 0.0
C534 C 0.36242 0.4283 0.71268 0.0
C535 C 0.52795 0.70463 0.61703 0.0
C536 C 0.46338 0.71891 0.61806 0.0
C537 C 0.54378 0.66771 0.63358 0.0
C538 C 0.49638 0.64607 0.6516 0.0
C539 C 0.42813 0.65398 0.65194 0.0
C540 C 0.41163 0.68987 0.6353 0.0
C541 C 0.5242 0.62762 0.67119 0.0
C542 C 0.47502 0.55482 0.68126 0.0
C543 C 0.59728 0.68415 0.68051 0.0
C544 C 0.65233 0.76119 0.6702 0.0
C545 C 0.62638 0.81507 0.66472 0.0
C546 C 0.67423 0.88127 0.65222 0.0
C547 C 0.74934 0.89582 0.64574 0.0
C548 C 0.77725 0.84485 0.652 0.0
C549 C 0.72894 0.77762 0.66415 0.0
H550 H 0.78618 0.94694 0.636 0.0
H551 H 0.30926 0.2492 0.73527 0.0
H552 H 0.72925 0.60661 0.89822 0.0
H553 H 0.72939 0.5701 0.9344 0.0
H554 H 0.68726 0.33805 0.91504 0.0
H555 H 0.67625 0.37131 0.87905 0.0
H556 H 0.61765 0.31779 0.94905 0.0
H557 H 0.88021 0.49815 0.92759 0.0
H558 H 0.98862 0.61943 0.91123 0.0
H559 H 0.95981 0.76527 0.95695 0.0
H560 H 0.85023 0.64478 0.9734 0.0
H561 H 0.88986 0.43208 0.04995 0.0
H562 H 0.87347 0.43805 0.01296 0.0
H563 H 0.62015 0.3425 0.02149 0.0
H564 H 0.63381 0.32386 0.05818 0.0
H565 H 0.8434 0.51873 0.99136 0.0
H566 H 0.51181 0.2651 0.97902 0.0
H567 H 0.41973 0.1284 0.99151 0.0
H568 H 0.61912 0.10064 0.00878 0.0
H569 H 0.7124 0.23684 0.99621 0.0
C570 C 0.71794 0.54726 0.90169 0.0
C571 C 0.70396 0.49249 0.88568 0.0
C572 C 0.71937 0.52668 0.9224 0.0
C573 C 0.71112 0.45218 0.92749 0.0
C574 C 0.69467 0.39626 0.91158 0.0
C575 C 0.68992 0.41587 0.89091 0.0
C576 C 0.72304 0.43442 0.94927 0.0
C577 C 0.66713 0.36146 0.95833 0.0
C578 C 0.78951 0.48975 0.96113 0.0
C579 C 0.85673 0.56247 0.95166 0.0
C580 C 0.89685 0.55611 0.93412 0.0
C581 C 0.95845 0.6247 0.92482 0.0
C582 C 0.98105 0.70003 0.93304 0.0
C583 C 0.94223 0.70686 0.95061 0.0
C584 C 0.88042 0.63843 0.95995 0.0
C585 C 0.82985 0.40892 0.04411 0.0
C586 C 0.76318 0.37643 0.05752 0.0
C587 C 0.82081 0.41411 0.02274 0.0
C588 C 0.74541 0.39018 0.01413 0.0
C589 C 0.67887 0.35934 0.02745 0.0
C590 C 0.68728 0.35068 0.04873 0.0
C591 C 0.73758 0.40176 0.99148 0.0
C592 C 0.79421 0.47412 0.98219 0.0
C593 C 0.67485 0.3433 0.97907 0.0
C594 C 0.61908 0.26153 0.98685 0.0
C595 C 0.53601 0.22978 0.98544 0.0
C596 C 0.48361 0.15239 0.99255 0.0
C597 C 0.51356 0.10595 0.00099 0.0
C598 C 0.596 0.1368 0.00232 0.0
C599 C 0.64867 0.21415 0.99525 0.0
H600 H 0.4729 0.046 0.00644 0.0
H601 H 0.0287 0.7531 0.9258 0.0
H602 H 0.41061 0.87606 0.26997 0.0
H603 H 0.41724 0.90404 0.30729 0.0
H604 H 0.40616 0.67957 0.32052 0.0
H605 H 0.3968 0.65038 0.28327 0.0
H606 H 0.31997 0.70144 0.34758 0.0
H607 H 0.58592 0.86403 0.3213 0.0
H608 H 0.69045 0.96341 0.29824 0.0
H609 H 0.63587 0.14209 0.3191 0.0
H610 H 0.53112 0.04386 0.34217 0.0
H611 H 0.5483 0.84646 0.44594 0.0
H612 H 0.50853 0.79771 0.41027 0.0
H613 H 0.39625 0.94131 0.4041 0.0
H614 H 0.43058 0.98571 0.44016 0.0
H615 H 0.53987 0.95873 0.37431 0.0
H616 H 0.27339 0.78843 0.40179 0.0
H617 H 0.16868 0.68319 0.42356 0.0
H618 H 0.2316 0.51327 0.40051 0.0
H619 H 0.33797 0.61802 0.37894 0.0
C620 C 0.40949 0.83278 0.28089 0.0
C621 C 0.40362 0.7613 0.27379 0.0
C622 C 0.41347 0.84882 0.30219 0.0
C623 C 0.41371 0.79457 0.31674 0.0
C624 C 0.40611 0.72236 0.30964 0.0
C625 C 0.40085 0.70575 0.28836 0.0
C626 C 0.42355 0.81364 0.33932 0.0
C627 C 0.36864 0.75736 0.35341 0.0
C628 C 0.48645 0.88695 0.347 0.0
C629 C 0.55014 0.9464 0.33328 0.0
C630 C 0.59604 0.92446 0.32087 0.0
C631 C 0.65548 0.98062 0.30783 0.0
C632 C 0.66992 0.05901 0.30719 0.0
C633 C 0.62504 0.0815 0.31961 0.0
C634 C 0.56564 0.02562 0.3327 0.0
C635 C 0.51285 0.8655 0.43723 0.0
C636 C 0.49271 0.92 0.44582 0.0
C637 C 0.49056 0.83795 0.41686 0.0
C638 C 0.44909 0.86566 0.40473 0.0
C639 C 0.4277 0.91889 0.41335 0.0
C640 C 0.44822 0.94487 0.43384 0.0
C641 C 0.43648 0.84659 0.38236 0.0
C642 C 0.49127 0.9029 0.36837 0.0
C643 C 0.37448 0.77283 0.37488 0.0
C644 C 0.31434 0.71137 0.38894 0.0
C645 C 0.2661 0.72911 0.40168 0.0
C646 C 0.206 0.66937 0.41387 0.0
C647 C 0.19314 0.59148 0.41329 0.0
C648 C 0.24139 0.57353 0.40087 0.0
C649 C 0.30169 0.63311 0.38869 0.0
H650 H 0.14602 0.5451 0.42257 0.0
H651 H 0.71603 0.10214 0.29709 0.0
H652 H 0.62359 0.21661 0.72992 0.0
H653 H 0.59991 0.17956 0.69308 0.0
H654 H 0.84513 0.23605 0.68654 0.0
H655 H 0.86736 0.26901 0.72359 0.0
H656 H 0.65947 0.26426 0.66005 0.0
H657 H 0.86865 0.13639 0.64832 0.0
H658 H 0.92491 0.06859 0.66904 0.0
H659 H 0.71623 0.96375 0.70791 0.0
H660 H 0.65874 0.0308 0.68742 0.0
H661 H 0.74778 0.13534 0.55283 0.0
H662 H 0.78252 0.17426 0.58939 0.0
H663 H 0.53415 0.08734 0.60338 0.0
H664 H 0.4996 0.05016 0.56695 0.0
H665 H 0.72887 0.07723 0.62545 0.0
H666 H 0.51719 0.201 0.63558 0.0
H667 H 0.46876 0.27973 0.61658 0.0
H668 H 0.68961 0.39994 0.58275 0.0
H669 H 0.73783 0.31961 0.60087 0.0
C670 C 0.67188 0.21988 0.7206 0.0
C671 C 0.74697 0.24475 0.72951 0.0
C672 C 0.65853 0.1991 0.69958 0.0
C673 C 0.72038 0.20394 0.68703 0.0
C674 C 0.79576 0.22957 0.69596 0.0
C675 C 0.80858 0.24867 0.71709 0.0
C676 C 0.70649 0.1849 0.66447 0.0
C677 C 0.67361 0.22239 0.65262 0.0
C678 C 0.72728 0.13233 0.65453 0.0
C679 C 0.75968 0.08896 0.66639 0.0
C680 C 0.83467 0.09859 0.66123 0.0
C681 C 0.86696 0.06068 0.67301 0.0
C682 C 0.82436 0.01225 0.68985 0.0
C683 C 0.74937 0.00165 0.69495 0.0
C684 C 0.71699 0.03971 0.68328 0.0
C685 C 0.70091 0.12564 0.56368 0.0
C686 C 0.62098 0.08962 0.55709 0.0
C687 C 0.72069 0.14717 0.58456 0.0
C688 C 0.66096 0.13391 0.59907 0.0
C689 C 0.5813 0.09872 0.59242 0.0
C690 C 0.56154 0.07694 0.57164 0.0
C691 C 0.68086 0.15588 0.62126 0.0
C692 C 0.71479 0.11895 0.63299 0.0
C693 C 0.6611 0.20893 0.6312 0.0
C694 C 0.6307 0.25403 0.61944 0.0
C695 C 0.55491 0.24366 0.6239 0.0
C696 C 0.52734 0.28815 0.61318 0.0
C697 C 0.57567 0.34408 0.59823 0.0
C698 C 0.65151 0.35534 0.59393 0.0
C699 C 0.67877 0.30999 0.60432 0.0
H700 H 0.55463 0.3791 0.59009 0.0
H701 H 0.84925 0.98258 0.69887 0.0
loop_
_geom_bond_atom_site_label_1
_geom_bond_atom_site_label_2
_geom_bond_distance
_geom_bond_site_symmetry_2
_ccdc_geom_bond_type
Tb0 N29 2.617 . S
Tb0 N35 2.572 . S
Tb0 O44 2.465 . S
Tb0 O45 2.387 . S
Tb0 O47 2.428 . S
Tb0 O48 2.308 . S
Tb0 O52 2.349 1_655 S
Tb0 O55 2.393 . S
Tb0 C64 2.802 . S
C1 N2 1.379 . S
C1 C4 1.416 . S
C1 C8 1.424 . S
N2 C1 1.379 . S
N2 C5 1.334 . S
N2 Tb11 2.617 . S
C3 C5 1.390 . S
C3 C6 1.339 . S
C3 H23 0.930 . S
C4 C1 1.416 . S
C4 C6 1.416 . S
C4 C10 1.448 . S
C5 N2 1.334 . S
C5 C3 1.390 . S
C5 H16 0.930 . S
C6 C3 1.339 . S
C6 C4 1.416 . S
C6 H27 0.930 . S
C7 C8 1.413 . S
C7 C9 1.427 . S
C7 C13 1.416 . S
C8 C1 1.424 . S
C8 C7 1.413 . S
C8 N12 1.361 . S
C9 C7 1.427 . S
C9 C10 1.328 . S
C9 H24 0.929 . S
C10 C4 1.448 . S
C10 C9 1.328 . S
C10 H25 0.930 . S
Tb11 N2 2.617 . S
Tb11 N12 2.572 . S
Tb11 O46 2.349 1_455 S
Tb11 O49 2.393 . S
Tb11 O50 2.465 . S
Tb11 O51 2.387 . S
Tb11 O53 2.428 . S
Tb11 O54 2.308 . S
Tb11 C75 2.802 . S
N12 C8 1.361 . S
N12 Tb11 2.572 . S
N12 C14 1.340 . S
C13 C7 1.416 . S
C13 C15 1.332 . S
C13 H21 0.931 . S
C14 N12 1.340 . S
C14 C15 1.407 . S
C14 H20 0.930 . S
C15 C13 1.332 . S
C15 C14 1.407 . S
C15 H17 0.929 . S
H16 C5 0.930 . S
H17 C15 0.929 . S
H18 C33 0.930 . S
H19 C40 0.929 . S
H20 C14 0.930 . S
H21 C13 0.931 . S
H22 C36 0.930 . S
H23 C3 0.930 . S
H24 C9 0.929 . S
H25 C10 0.930 . S
H26 C31 0.930 . S
H27 C6 0.930 . S
H28 C39 0.931 . S
N29 Tb0 2.617 . S
N29 C30 1.379 . S
N29 C33 1.334 . S
C30 N29 1.379 . S
C30 C32 1.416 . S
C30 C38 1.424 . S
C31 H26 0.930 . S
C31 C33 1.390 . S
C31 C34 1.339 . S
C32 C30 1.416 . S
C32 C34 1.416 . S
C32 C65 1.448 . S
C33 H18 0.930 . S
C33 N29 1.334 . S
C33 C31 1.390 . S
C34 C31 1.339 . S
C34 C32 1.416 . S
C34 H41 0.930 . S
N35 Tb0 2.572 . S
N35 C36 1.340 . S
N35 C38 1.361 . S
C36 H22 0.930 . S
C36 N35 1.340 . S
C36 C40 1.407 . S
C37 C38 1.413 . S
C37 C39 1.416 . S
C37 C66 1.427 . S
C38 C30 1.424 . S
C38 N35 1.361 . S
C38 C37 1.413 . S
C39 H28 0.931 . S
C39 C37 1.416 . S
C39 C40 1.332 . S
C40 H19 0.929 . S
C40 C36 1.407 . S
C40 C39 1.332 . S
H41 C34 0.930 . S
H42 C65 0.930 . S
H43 C66 0.929 . S
O44 Tb0 2.465 . S
O44 C64 1.264 . S
O45 Tb0 2.387 . S
O45 C56 1.264 . S
O46 Tb11 2.349 1_655 S
O46 C56 1.243 . S
O47 Tb0 2.428 . S
O47 C64 1.256 . S
O48 Tb0 2.308 . S
O48 C63 1.266 . S
O49 Tb11 2.393 . S
O49 C63 1.248 1_455 S
O50 Tb11 2.465 . S
O50 C75 1.264 . S
O51 Tb11 2.387 . S
O51 C67 1.264 . S
O52 Tb0 2.349 1_455 S
O52 C67 1.243 . S
O53 Tb11 2.428 . S
O53 C75 1.256 . S
O54 Tb11 2.308 . S
O54 C74 1.266 . S
O55 Tb0 2.393 . S
O55 C74 1.248 1_655 S
C56 O45 1.264 . S
C56 O46 1.243 . S
C57 C60 1.399 . S
C57 C62 1.383 . S
C57 C64 1.496 . S
C58 C59 1.399 . S
C58 C62 1.389 . S
C59 C58 1.399 . S
C59 C61 1.380 . S
C59 H76 0.929 . S
C60 C57 1.399 . S
C60 C61 1.392 . S
C60 H77 0.929 . S
C61 C59 1.380 . S
C61 C60 1.392 . S
C61 H78 0.929 . S
C62 C57 1.383 . S
C62 C58 1.389 . S
C62 H79 0.931 . S
C63 O48 1.266 . S
C63 O49 1.248 1_655 S
C64 Tb0 2.802 . S
C64 O44 1.264 . S
C64 O47 1.256 . S
C64 C57 1.496 . S
C65 C32 1.448 . S
C65 H42 0.930 . S
C65 C66 1.328 . S
C66 C37 1.427 . S
C66 H43 0.929 . S
C66 C65 1.328 . S
C67 O51 1.264 . S
C67 O52 1.243 . S
C68 C71 1.399 . S
C68 C72 1.383 . S
C68 C75 1.496 . S
C69 C70 1.399 . S
C69 C72 1.389 . S
C70 C69 1.399 . S
C70 C73 1.380 . S
C70 H80 0.929 . S
C71 C68 1.399 . S
C71 C73 1.392 . S
C71 H81 0.929 . S
C72 C68 1.383 . S
C72 C69 1.389 . S
C72 H82 0.931 . S
C73 C70 1.380 . S
C73 C71 1.392 . S
C73 H83 0.929 . S
C74 O54 1.266 . S
C74 O55 1.248 1_455 S
C75 Tb11 2.802 . S
C75 O50 1.264 . S
C75 O53 1.256 . S
C75 C68 1.496 . S
H76 C59 0.929 . S
H77 C60 0.929 . S
H78 C61 0.929 . S
H79 C62 0.931 . S
H80 C70 0.929 . S
H81 C71 0.929 . S
H82 C72 0.931 . S
H83 C73 0.929 . S
Tb84 N113 2.617 . S
Tb84 N119 2.572 . S
Tb84 O128 2.465 . S
Tb84 O129 2.387 . S
Tb84 O131 2.428 . S
Tb84 O132 2.308 . S
Tb84 O136 2.349 . S
Tb84 O139 2.393 . S
Tb84 C148 2.802 . S
C85 N86 1.379 . S
C85 C88 1.416 . S
C85 C92 1.424 . S
N86 C85 1.379 . S
N86 C89 1.334 . S
N86 Tb95 2.617 1_565 S
C87 C89 1.390 . S
C87 C90 1.339 . S
C87 H107 0.930 . S
C88 C85 1.416 . S
C88 C90 1.416 . S
C88 C94 1.448 . S
C89 N86 1.334 . S
C89 C87 1.390 . S
C89 H100 0.930 . S
C90 C87 1.339 . S
C90 C88 1.416 . S
C90 H111 0.930 . S
C91 C92 1.413 . S
C91 C93 1.427 . S
C91 C97 1.416 . S
C92 C85 1.424 . S
C92 C91 1.413 . S
C92 N96 1.361 . S
C93 C91 1.427 . S
C93 C94 1.328 . S
C93 H108 0.929 . S
C94 C88 1.448 . S
C94 C93 1.328 . S
C94 H109 0.930 . S
Tb95 N86 2.617 1_545 S
Tb95 N96 2.572 1_545 S
Tb95 O130 2.349 . S
Tb95 O133 2.393 . S
Tb95 O134 2.465 1_545 S
Tb95 O135 2.387 . S
Tb95 O137 2.428 1_545 S
Tb95 O138 2.308 . S
Tb95 C159 2.802 1_545 S
N96 C92 1.361 . S
N96 Tb95 2.572 1_565 S
N96 C98 1.340 . S
C97 C91 1.416 . S
C97 C99 1.332 . S
C97 H105 0.931 . S
C98 N96 1.340 . S
C98 C99 1.407 . S
C98 H104 0.930 . S
C99 C97 1.332 . S
C99 C98 1.407 . S
C99 H101 0.929 . S
H100 C89 0.930 . S
H101 C99 0.929 . S
H102 C117 0.930 . S
H103 C124 0.929 . S
H104 C98 0.930 . S
H105 C97 0.931 . S
H106 C120 0.930 . S
H107 C87 0.930 . S
H108 C93 0.929 . S
H109 C94 0.930 . S
H110 C115 0.930 . S
H111 C90 0.930 . S
H112 C123 0.931 . S
N113 Tb84 2.617 . S
N113 C114 1.379 . S
N113 C117 1.334 . S
C114 N113 1.379 . S
C114 C116 1.416 . S
C114 C122 1.424 . S
C115 H110 0.930 . S
C115 C117 1.390 1_455 S
C115 C118 1.339 . S
C116 C114 1.416 . S
C116 C118 1.416 1_655 S
C116 C149 1.448 . S
C117 H102 0.930 . S
C117 N113 1.334 . S
C117 C115 1.390 1_655 S
C118 C115 1.339 . S
C118 C116 1.416 1_455 S
C118 H125 0.930 . S
N119 Tb84 2.572 . S
N119 C120 1.340 . S
N119 C122 1.361 . S
C120 H106 0.930 . S
C120 N119 1.340 . S
C120 C124 1.407 . S
C121 C122 1.413 . S
C121 C123 1.416 . S
C121 C150 1.427 . S
C122 C114 1.424 . S
C122 N119 1.361 . S
C122 C121 1.413 . S
C123 H112 0.931 . S
C123 C121 1.416 . S
C123 C124 1.332 . S
C124 H103 0.929 . S
C124 C120 1.407 . S
C124 C123 1.332 . S
H125 C118 0.930 . S
H126 C149 0.930 1_455 S
H127 C150 0.929 . S
O128 Tb84 2.465 . S
O128 C148 1.264 . S
O129 Tb84 2.387 . S
O129 C140 1.264 . S
O130 Tb95 2.349 . S
O130 C140 1.243 . S
O131 Tb84 2.428 . S
O131 C148 1.256 . S
O132 Tb84 2.308 . S
O132 C147 1.266 . S
O133 Tb95 2.393 . S
O133 C147 1.248 . S
O134 Tb95 2.465 1_565 S
O134 C159 1.264 . S
O135 Tb95 2.387 . S
O135 C151 1.264 . S
O136 Tb84 2.349 . S
O136 C151 1.243 . S
O137 Tb95 2.428 1_565 S
O137 C159 1.256 . S
O138 Tb95 2.308 . S
O138 C158 1.266 . S
O139 Tb84 2.393 . S
O139 C158 1.248 . S
C140 O129 1.264 . S
C140 O130 1.243 . S
C141 C144 1.399 . S
C141 C146 1.383 . S
C141 C148 1.496 . S
C142 C143 1.399 . S
C142 C146 1.389 . S
C143 C142 1.399 . S
C143 C145 1.380 . S
C143 H160 0.929 . S
C144 C141 1.399 . S
C144 C145 1.392 . S
C144 H161 0.929 . S
C145 C143 1.380 . S
C145 C144 1.392 . S
C145 H162 0.929 . S
C146 C141 1.383 . S
C146 C142 1.389 . S
C146 H163 0.931 . S
C147 O132 1.266 . S
C147 O133 1.248 . S
C148 Tb84 2.802 . S
C148 O128 1.264 . S
C148 O131 1.256 . S
C148 C141 1.496 . S
C149 C116 1.448 . S
C149 H126 0.930 1_655 S
C149 C150 1.328 . S
C150 C121 1.427 . S
C150 H127 0.929 . S
C150 C149 1.328 . S
C151 O135 1.264 . S
C151 O136 1.243 . S
C152 C155 1.399 . S
C152 C156 1.383 . S
C152 C159 1.496 . S
C153 C154 1.399 . S
C153 C156 1.389 . S
C154 C153 1.399 . S
C154 C157 1.380 . S
C154 H164 0.929 . S
C155 C152 1.399 . S
C155 C157 1.392 . S
C155 H165 0.929 . S
C156 C152 1.383 . S
C156 C153 1.389 . S
C156 H166 0.931 . S
C157 C154 1.380 . S
C157 C155 1.392 . S
C157 H167 0.929 . S
C158 O138 1.266 . S
C158 O139 1.248 . S
C159 Tb95 2.802 1_565 S
C159 O134 1.264 . S
C159 O137 1.256 . S
C159 C152 1.496 . S
H160 C143 0.929 . S
H161 C144 0.929 . S
H162 C145 0.929 . S
H163 C146 0.931 . S
H164 C154 0.929 . S
H165 C155 0.929 . S
H166 C156 0.931 . S
H167 C157 0.929 . S
Tb168 N197 2.617 . S
Tb168 N203 2.572 . S
Tb168 O212 2.465 . S
Tb168 O213 2.387 . S
Tb168 O215 2.428 . S
Tb168 O216 2.308 . S
Tb168 O220 2.349 . S
Tb168 O223 2.393 . S
Tb168 C232 2.802 . S
C169 N170 1.379 . S
C169 C172 1.416 . S
C169 C176 1.424 . S
N170 C169 1.379 . S
N170 C173 1.334 . S
N170 Tb179 2.617 . S
C171 C173 1.390 . S
C171 C174 1.339 . S
C171 H191 0.930 . S
C172 C169 1.416 . S
C172 C174 1.416 . S
C172 C178 1.448 . S
C173 N170 1.334 . S
C173 C171 1.390 . S
C173 H184 0.930 . S
C174 C171 1.339 . S
C174 C172 1.416 . S
C174 H195 0.930 . S
C175 C176 1.413 . S
C175 C177 1.427 . S
C175 C181 1.416 . S
C176 C169 1.424 . S
C176 C175 1.413 . S
C176 N180 1.361 . S
C177 C175 1.427 . S
C177 C178 1.328 . S
C177 H192 0.929 . S
C178 C172 1.448 . S
C178 C177 1.328 . S
C178 H193 0.930 . S
Tb179 N170 2.617 . S
Tb179 N180 2.572 . S
Tb179 O214 2.349 . S
Tb179 O217 2.393 . S
Tb179 O218 2.465 . S
Tb179 O219 2.387 . S
Tb179 O221 2.428 . S
Tb179 O222 2.308 . S
Tb179 C243 2.802 . S
N180 C176 1.361 . S
N180 Tb179 2.572 . S
N180 C182 1.340 . S
C181 C175 1.416 . S
C181 C183 1.332 . S
C181 H189 0.931 . S
C182 N180 1.340 . S
C182 C183 1.407 . S
C182 H188 0.930 . S
C183 C181 1.332 . S
C183 C182 1.407 . S
C183 H185 0.929 . S
H184 C173 0.930 . S
H185 C183 0.929 . S
H186 C201 0.930 . S
H187 C208 0.929 1_455 S
H188 C182 0.930 . S
H189 C181 0.931 . S
H190 C204 0.930 . S
H191 C171 0.930 . S
H192 C177 0.929 . S
H193 C178 0.930 . S
H194 C199 0.930 . S
H195 C174 0.930 . S
H196 C207 0.931 . S
N197 Tb168 2.617 . S
N197 C198 1.379 . S
N197 C201 1.334 . S
C198 N197 1.379 . S
C198 C200 1.416 . S
C198 C206 1.424 . S
C199 H194 0.930 . S
C199 C201 1.390 . S
C199 C202 1.339 . S
C200 C198 1.416 . S
C200 C202 1.416 . S
C200 C233 1.448 . S
C201 H186 0.930 . S
C201 N197 1.334 . S
C201 C199 1.390 . S
C202 C199 1.339 . S
C202 C200 1.416 . S
C202 H209 0.930 . S
N203 Tb168 2.572 . S
N203 C204 1.340 . S
N203 C206 1.361 . S
C204 H190 0.930 . S
C204 N203 1.340 . S
C204 C208 1.407 . S
C205 C206 1.413 . S
C205 C207 1.416 . S
C205 C234 1.427 . S
C206 C198 1.424 . S
C206 N203 1.361 . S
C206 C205 1.413 . S
C207 H196 0.931 . S
C207 C205 1.416 . S
C207 C208 1.332 . S
C208 H187 0.929 1_655 S
C208 C204 1.407 . S
C208 C207 1.332 . S
H209 C202 0.930 . S
H210 C233 0.930 . S
H211 C234 0.929 . S
O212 Tb168 2.465 . S
O212 C232 1.264 . S
O213 Tb168 2.387 . S
O213 C224 1.264 . S
O214 Tb179 2.349 . S
O214 C224 1.243 . S
O215 Tb168 2.428 . S
O215 C232 1.256 . S
O216 Tb168 2.308 . S
O216 C231 1.266 . S
O217 Tb179 2.393 . S
O217 C231 1.248 . S
O218 Tb179 2.465 . S
O218 C243 1.264 . S
O219 Tb179 2.387 . S
O219 C235 1.264 . S
O220 Tb168 2.349 . S
O220 C235 1.243 . S
O221 Tb179 2.428 . S
O221 C243 1.256 . S
O222 Tb179 2.308 . S
O222 C242 1.266 . S
O223 Tb168 2.393 . S
O223 C242 1.248 . S
C224 O213 1.264 . S
C224 O214 1.243 . S
C225 C228 1.399 . S
C225 C230 1.383 . S
C225 C232 1.496 . S
C226 C227 1.399 . S
C226 C230 1.389 . S
C227 C226 1.399 . S
C227 C229 1.380 . S
C227 H244 0.929 . S
C228 C225 1.399 . S
C228 C229 1.392 . S
C228 H245 0.929 . S
C229 C227 1.380 . S
C229 C228 1.392 . S
C229 H246 0.929 . S
C230 C225 1.383 . S
C230 C226 1.389 . S
C230 H247 0.931 . S
C231 O216 1.266 . S
C231 O217 1.248 . S
C232 Tb168 2.802 . S
C232 O212 1.264 . S
C232 O215 1.256 . S
C232 C225 1.496 . S
C233 C200 1.448 . S
C233 H210 0.930 . S
C233 C234 1.328 . S
C234 C205 1.427 . S
C234 H211 0.929 . S
C234 C233 1.328 . S
C235 O219 1.264 . S
C235 O220 1.243 . S
C236 C239 1.399 . S
C236 C240 1.383 . S
C236 C243 1.496 . S
C237 C238 1.399 . S
C237 C240 1.389 . S
C238 C237 1.399 . S
C238 C241 1.380 . S
C238 H248 0.929 . S
C239 C236 1.399 . S
C239 C241 1.392 . S
C239 H249 0.929 . S
C240 C236 1.383 . S
C240 C237 1.389 . S
C240 H250 0.931 . S
C241 C238 1.380 . S
C241 C239 1.392 . S
C241 H251 0.929 . S
C242 O222 1.266 . S
C242 O223 1.248 . S
C243 Tb179 2.802 . S
C243 O218 1.264 . S
C243 O221 1.256 . S
C243 C236 1.496 . S
H244 C227 0.929 . S
H245 C228 0.929 . S
H246 C229 0.929 . S
H247 C230 0.931 . S
H248 C238 0.929 . S
H249 C239 0.929 . S
H250 C240 0.931 . S
H251 C241 0.929 . S
H252 C270 0.951 . S
H253 C272 0.951 . S
H254 C274 0.950 . S
H255 C275 0.950 . S
H256 C277 0.950 . S
H257 C280 0.950 1_655 S
H258 C281 0.950 . S
H259 C283 0.950 1_545 S
H260 C284 0.950 1_545 S
H261 C285 0.951 . S
H262 C287 0.951 . S
H263 C289 0.950 . S
H264 C290 0.950 . S
H265 C292 0.952 . S
H266 C295 0.950 1_455 S
H267 C296 0.950 . S
H268 C298 0.950 . S
H269 C299 0.950 . S
C270 H252 0.951 . S
C270 C271 1.366 . S
C270 C272 1.388 . S
C271 C270 1.366 . S
C271 C275 1.385 1_455 S
C272 H253 0.951 . S
C272 C270 1.388 . S
C272 C273 1.366 . S
C273 C272 1.366 . S
C273 C274 1.414 1_455 S
C273 C276 1.499 . S
C274 H254 0.950 . S
C274 C273 1.414 1_655 S
C274 C275 1.374 . S
C275 H255 0.950 . S
C275 C271 1.385 1_655 S
C275 C274 1.374 . S
C276 C273 1.499 . S
C276 C277 1.373 1_455 S
C276 C278 1.389 . S
C277 H256 0.950 . S
C277 C276 1.373 1_655 S
C277 C293 1.377 . S
C278 C276 1.389 . S
C278 C279 1.524 . S
C278 C292 1.373 1_565 S
C279 C278 1.524 . S
C279 C280 1.397 . S
C279 C284 1.363 . S
C280 H257 0.950 1_455 S
C280 C279 1.397 . S
C280 C281 1.334 . S
C281 H258 0.950 . S
C281 C280 1.334 . S
C281 C282 1.287 . S
C282 C281 1.287 . S
C282 C283 1.524 . S
C282 H301 0.913 . S
C283 H259 0.950 1_565 S
C283 C282 1.524 . S
C283 C284 1.415 . S
C284 H260 0.950 1_565 S
C284 C279 1.363 . S
C284 C283 1.415 . S
C285 H261 0.951 . S
C285 C286 1.366 . S
C285 C287 1.388 . S
C286 C285 1.366 . S
C286 C290 1.385 1_655 S
C287 H262 0.951 . S
C287 C285 1.388 . S
C287 C288 1.366 . S
C288 C287 1.366 . S
C288 C289 1.414 1_655 S
C288 C291 1.507 . S
C289 H263 0.950 . S
C289 C288 1.414 1_455 S
C289 C290 1.374 . S
C290 H264 0.950 . S
C290 C286 1.385 1_455 S
C290 C289 1.374 . S
C291 C288 1.507 . S
C291 C292 1.366 1_655 S
C291 C293 1.390 1_545 S
C292 H265 0.952 . S
C292 C278 1.373 1_545 S
C292 C291 1.366 1_455 S
C293 C277 1.377 . S
C293 C291 1.390 1_565 S
C293 C294 1.524 . S
C294 C293 1.524 . S
C294 C295 1.397 1_565 S
C294 C299 1.363 . S
C295 H266 0.950 1_655 S
C295 C294 1.397 1_545 S
C295 C296 1.334 . S
C296 H267 0.950 . S
C296 C295 1.334 . S
C296 C297 1.287 1_545 S
C297 C296 1.287 1_565 S
C297 C298 1.524 . S
C297 H300 0.999 . S
C298 H268 0.950 . S
C298 C297 1.524 . S
C298 C299 1.415 . S
C299 H269 0.950 . S
C299 C294 1.363 . S
C299 C298 1.415 . S
H300 C297 0.999 . S
H301 C282 0.913 . S
H302 C320 0.951 . S
H303 C322 0.951 . S
H304 C324 0.950 . S
H305 C325 0.950 . S
H306 C327 0.950 . S
H307 C330 0.950 . S
H308 C331 0.950 . S
H309 C333 0.950 . S
H310 C334 0.950 . S
H311 C335 0.951 . S
H312 C337 0.951 . S
H313 C339 0.950 . S
H314 C340 0.950 . S
H315 C342 0.950 . S
H316 C345 0.950 1_565 S
H317 C346 0.950 . S
H318 C348 0.950 . S
H319 C349 0.950 . S
C320 H302 0.951 . S
C320 C321 1.366 . S
C320 C322 1.388 . S
C321 C320 1.366 . S
C321 C325 1.385 . S
C322 H303 0.951 . S
C322 C320 1.388 . S
C322 C323 1.366 . S
C323 C322 1.366 . S
C323 C324 1.414 . S
C323 C326 1.499 . S
C324 H304 0.950 . S
C324 C323 1.414 . S
C324 C325 1.374 . S
C325 H305 0.950 . S
C325 C321 1.385 . S
C325 C324 1.374 . S
C326 C323 1.499 . S
C326 C327 1.373 . S
C326 C328 1.389 . S
C327 H306 0.950 . S
C327 C326 1.373 . S
C327 C343 1.377 . S
C328 C326 1.389 . S
C328 C329 1.524 . S
C328 C342 1.377 . S
C329 C328 1.524 . S
C329 C330 1.397 . S
C329 C334 1.363 . S
C330 H307 0.950 . S
C330 C329 1.397 . S
C330 C331 1.334 . S
C331 H308 0.950 . S
C331 C330 1.334 . S
C331 C332 1.287 . S
C332 C331 1.287 . S
C332 C333 1.524 . S
C332 H351 0.913 . S
C333 H309 0.950 . S
C333 C332 1.524 . S
C333 C334 1.415 . S
C334 H310 0.950 . S
C334 C329 1.363 . S
C334 C333 1.415 . S
C335 H311 0.951 . S
C335 C336 1.366 . S
C335 C337 1.388 1_655 S
C336 C335 1.366 . S
C336 C340 1.385 . S
C337 H312 0.951 . S
C337 C335 1.388 1_455 S
C337 C338 1.366 . S
C338 C337 1.366 . S
C338 C339 1.414 1_455 S
C338 C341 1.499 . S
C339 H313 0.950 . S
C339 C338 1.414 1_655 S
C339 C340 1.374 . S
C340 H314 0.950 . S
C340 C336 1.385 . S
C340 C339 1.374 . S
C341 C338 1.499 . S
C341 C342 1.373 . S
C341 C343 1.389 . S
C342 H315 0.950 . S
C342 C328 1.377 . S
C342 C341 1.373 . S
C343 C327 1.377 . S
C343 C341 1.389 . S
C343 C344 1.524 . S
C344 C343 1.524 . S
C344 C345 1.397 . S
C344 C349 1.363 . S
C345 H316 0.950 1_545 S
C345 C344 1.397 . S
C345 C346 1.334 1_445 S
C346 H317 0.950 . S
C346 C345 1.334 1_665 S
C346 C347 1.287 1_665 S
C347 C346 1.287 1_445 S
C347 C348 1.524 . S
C347 H350 0.999 . S
C348 H318 0.950 . S
C348 C347 1.524 . S
C348 C349 1.415 . S
C349 H319 0.950 . S
C349 C344 1.363 . S
C349 C348 1.415 . S
H350 C347 0.999 . S
H351 C332 0.913 . S
H352 C370 0.951 . S
H353 C372 0.951 1_455 S
H354 C374 0.949 1_455 S
H355 C375 0.950 . S
H356 C377 0.950 . S
H357 C380 0.950 . S
H358 C381 0.950 . S
H359 C383 0.950 . S
H360 C384 0.950 . S
H361 C385 0.951 . S
H362 C387 0.951 . S
H363 C389 0.950 . S
H364 C390 0.950 . S
H365 C392 0.950 1_545 S
H366 C395 0.950 . S
H367 C396 0.950 . S
H368 C398 0.950 . S
H369 C399 0.950 . S
C370 H352 0.951 . S
C370 C371 1.366 . S
C370 C372 1.388 . S
C371 C370 1.366 . S
C371 C375 1.385 . S
C372 H353 0.951 1_655 S
C372 C370 1.388 . S
C372 C373 1.366 1_655 S
C373 C372 1.366 1_455 S
C373 C374 1.412 1_455 S
C373 C376 1.499 . S
C374 H354 0.949 1_655 S
C374 C373 1.412 1_655 S
C374 C375 1.377 . S
C375 H355 0.950 . S
C375 C371 1.385 . S
C375 C374 1.377 . S
C376 C373 1.499 . S
C376 C377 1.373 . S
C376 C378 1.389 . S
C377 H356 0.950 . S
C377 C376 1.373 . S
C377 C393 1.377 . S
C378 C376 1.389 . S
C378 C379 1.524 . S
C378 C392 1.377 . S
C379 C378 1.524 . S
C379 C380 1.397 1_455 S
C379 C384 1.363 . S
C380 H357 0.950 . S
C380 C379 1.397 1_655 S
C380 C381 1.334 . S
C381 H358 0.950 . S
C381 C380 1.334 . S
C381 C382 1.287 . S
C382 C381 1.287 . S
C382 C383 1.524 . S
C382 H401 0.913 . S
C383 H359 0.950 . S
C383 C382 1.524 . S
C383 C384 1.415 1_655 S
C384 H360 0.950 . S
C384 C379 1.363 . S
C384 C383 1.415 1_455 S
C385 H361 0.951 . S
C385 C386 1.366 . S
C385 C387 1.388 . S
C386 C385 1.366 . S
C386 C390 1.385 . S
C387 H362 0.951 . S
C387 C385 1.388 . S
C387 C388 1.366 . S
C388 C387 1.366 . S
C388 C389 1.414 . S
C388 C391 1.499 . S
C389 H363 0.950 . S
C389 C388 1.414 . S
C389 C390 1.374 . S
C390 H364 0.950 . S
C390 C386 1.385 . S
C390 C389 1.374 . S
C391 C388 1.499 . S
C391 C392 1.373 1_545 S
C391 C393 1.389 1_545 S
C392 H365 0.950 1_565 S
C392 C378 1.377 . S
C392 C391 1.373 1_565 S
C393 C377 1.377 . S
C393 C391 1.389 1_565 S
C393 C394 1.524 . S
C394 C393 1.524 . S
C394 C395 1.397 . S
C394 C399 1.363 . S
C395 H366 0.950 . S
C395 C394 1.397 . S
C395 C396 1.334 . S
C396 H367 0.950 . S
C396 C395 1.334 . S
C396 C397 1.287 . S
C397 C396 1.287 . S
C397 C398 1.524 . S
C397 H400 0.999 . S
C398 H368 0.950 . S
C398 C397 1.524 . S
C398 C399 1.415 . S
C399 H369 0.950 . S
C399 C394 1.363 . S
C399 C398 1.415 . S
H400 C397 0.999 . S
H401 C382 0.913 . S
H402 C420 0.951 . S
H403 C422 0.951 . S
H404 C424 0.950 1_554 S
H405 C425 0.950 . S
H406 C427 0.950 . S
H407 C430 0.950 . S
H408 C431 0.950 . S
H409 C433 0.950 . S
H410 C434 0.950 . S
H411 C435 0.951 . S
H412 C437 0.951 . S
H413 C439 0.950 . S
H414 C440 0.950 . S
H415 C442 0.950 . S
H416 C445 0.950 . S
H417 C446 0.950 . S
H418 C448 0.950 . S
H419 C449 0.950 . S
C420 H402 0.951 . S
C420 C421 1.366 . S
C420 C422 1.388 . S
C421 C420 1.366 . S
C421 C425 1.385 . S
C422 H403 0.951 . S
C422 C420 1.388 . S
C422 C423 1.366 . S
C423 C422 1.366 . S
C423 C424 1.414 . S
C423 C426 1.499 1_556 S
C424 H404 0.950 1_556 S
C424 C423 1.414 . S
C424 C425 1.374 . S
C425 H405 0.950 . S
C425 C421 1.385 . S
C425 C424 1.374 . S
C426 C423 1.499 1_554 S
C426 C427 1.373 . S
C426 C428 1.389 . S
C427 H406 0.950 . S
C427 C426 1.373 . S
C427 C443 1.377 . S
C428 C426 1.389 . S
C428 C429 1.524 1_554 S
C428 C442 1.377 . S
C429 C428 1.524 1_556 S
C429 C430 1.397 . S
C429 C434 1.363 . S
C430 H407 0.950 . S
C430 C429 1.397 . S
C430 C431 1.334 . S
C431 H408 0.950 . S
C431 C430 1.334 . S
C431 C432 1.287 . S
C432 C431 1.287 . S
C432 C433 1.524 . S
C432 H451 0.913 . S
C433 H409 0.950 . S
C433 C432 1.524 . S
C433 C434 1.415 . S
C434 H410 0.950 . S
C434 C429 1.363 . S
C434 C433 1.415 . S
C435 H411 0.951 . S
C435 C436 1.366 . S
C435 C437 1.388 . S
C436 C435 1.366 . S
C436 C440 1.385 . S
C437 H412 0.951 . S
C437 C435 1.388 . S
C437 C438 1.366 . S
C438 C437 1.366 . S
C438 C439 1.414 . S
C438 C441 1.499 . S
C439 H413 0.950 . S
C439 C438 1.414 . S
C439 C440 1.374 . S
C440 H414 0.950 . S
C440 C436 1.385 . S
C440 C439 1.374 . S
C441 C438 1.499 . S
C441 C442 1.373 . S
C441 C443 1.389 . S
C442 H415 0.950 . S
C442 C428 1.377 . S
C442 C441 1.373 . S
C443 C427 1.377 . S
C443 C441 1.389 . S
C443 C444 1.524 . S
C444 C443 1.524 . S
C444 C445 1.397 . S
C444 C449 1.363 . S
C445 H416 0.950 . S
C445 C444 1.397 . S
C445 C446 1.334 . S
C446 H417 0.950 . S
C446 C445 1.334 . S
C446 C447 1.287 . S
C447 C446 1.287 . S
C447 C448 1.524 . S
C447 H450 0.999 . S
C448 H418 0.950 . S
C448 C447 1.524 . S
C448 C449 1.415 . S
C449 H419 0.950 . S
C449 C444 1.363 . S
C449 C448 1.415 . S
H450 C447 0.999 . S
H451 C432 0.913 . S
H452 C470 0.951 . S
H453 C472 0.951 . S
H454 C474 0.950 . S
H455 C475 0.950 . S
H456 C477 0.950 . S
H457 C480 0.950 . S
H458 C481 0.950 . S
H459 C483 0.950 . S
H460 C484 0.950 . S
H461 C485 0.951 . S
H462 C487 0.951 . S
H463 C489 0.950 . S
H464 C490 0.950 . S
H465 C492 0.950 . S
H466 C495 0.950 . S
H467 C496 0.950 . S
H468 C498 0.950 . S
H469 C499 0.950 . S
C470 H452 0.951 . S
C470 C471 1.366 . S
C470 C472 1.388 . S
C471 C470 1.366 . S
C471 C475 1.385 . S
C472 H453 0.951 . S
C472 C470 1.388 . S
C472 C473 1.366 . S
C473 C472 1.366 . S
C473 C474 1.414 . S
C473 C476 1.499 . S
C474 H454 0.950 . S
C474 C473 1.414 . S
C474 C475 1.374 . S
C475 H455 0.950 . S
C475 C471 1.385 . S
C475 C474 1.374 . S
C476 C473 1.499 . S
C476 C477 1.373 . S
C476 C478 1.389 . S
C477 H456 0.950 . S
C477 C476 1.373 . S
C477 C493 1.377 . S
C478 C476 1.389 . S
C478 C479 1.524 . S
C478 C492 1.377 . S
C479 C478 1.524 . S
C479 C480 1.397 . S
C479 C484 1.363 . S
C480 H457 0.950 . S
C480 C479 1.397 . S
C480 C481 1.334 . S
C481 H458 0.950 . S
C481 C480 1.334 . S
C481 C482 1.287 . S
C482 C481 1.287 . S
C482 C483 1.524 1_655 S
C482 H501 0.913 . S
C483 H459 0.950 . S
C483 C482 1.524 1_455 S
C483 C484 1.415 1_455 S
C484 H460 0.950 . S
C484 C479 1.363 . S
C484 C483 1.415 1_655 S
C485 H461 0.951 . S
C485 C486 1.366 . S
C485 C487 1.388 . S
C486 C485 1.366 . S
C486 C490 1.385 . S
C487 H462 0.951 . S
C487 C485 1.388 . S
C487 C488 1.366 . S
C488 C487 1.366 . S
C488 C489 1.414 . S
C488 C491 1.499 . S
C489 H463 0.950 . S
C489 C488 1.414 . S
C489 C490 1.374 . S
C490 H464 0.950 . S
C490 C486 1.385 . S
C490 C489 1.374 . S
C491 C488 1.499 . S
C491 C492 1.373 . S
C491 C493 1.389 . S
C492 H465 0.950 . S
C492 C478 1.377 . S
C492 C491 1.373 . S
C493 C477 1.377 . S
C493 C491 1.389 . S
C493 C494 1.524 . S
C494 C493 1.524 . S
C494 C495 1.397 . S
C494 C499 1.363 . S
C495 H466 0.950 . S
C495 C494 1.397 . S
C495 C496 1.334 . S
C496 H467 0.950 . S
C496 C495 1.334 . S
C496 C497 1.287 . S
C497 C496 1.287 . S
C497 C498 1.524 . S
C497 H500 0.999 . S
C498 H468 0.950 . S
C498 C497 1.524 . S
C498 C499 1.415 . S
C499 H469 0.950 . S
C499 C494 1.363 . S
C499 C498 1.415 . S
H500 C497 0.999 . S
H501 C482 0.913 . S
H502 C520 0.951 . S
H503 C522 0.951 . S
H504 C524 0.950 . S
H505 C525 0.950 . S
H506 C527 0.950 . S
H507 C530 0.950 . S
H508 C531 0.950 . S
H509 C533 0.950 . S
H510 C534 0.950 . S
H511 C535 0.951 . S
H512 C537 0.951 . S
H513 C539 0.950 . S
H514 C540 0.950 . S
H515 C542 0.950 . S
H516 C545 0.950 . S
H517 C546 0.950 1_545 S
H518 C548 0.950 . S
H519 C549 0.950 . S
C520 H502 0.951 . S
C520 C521 1.366 . S
C520 C522 1.388 . S
C521 C520 1.366 . S
C521 C525 1.385 . S
C522 H503 0.951 . S
C522 C520 1.388 . S
C522 C523 1.366 . S
C523 C522 1.366 . S
C523 C524 1.414 . S
C523 C526 1.499 . S
C524 H504 0.950 . S
C524 C523 1.414 . S
C524 C525 1.374 . S
C525 H505 0.950 . S
C525 C521 1.385 . S
C525 C524 1.374 . S
C526 C523 1.499 . S
C526 C527 1.373 . S
C526 C528 1.389 . S
C527 H506 0.950 . S
C527 C526 1.373 . S
C527 C543 1.377 . S
C528 C526 1.389 . S
C528 C529 1.524 . S
C528 C542 1.377 . S
C529 C528 1.524 . S
C529 C530 1.397 . S
C529 C534 1.363 . S
C530 H507 0.950 . S
C530 C529 1.397 . S
C530 C531 1.334 . S
C531 H508 0.950 . S
C531 C530 1.334 . S
C531 C532 1.287 . S
C532 C531 1.287 . S
C532 C533 1.524 . S
C532 H551 0.913 . S
C533 H509 0.950 . S
C533 C532 1.524 . S
C533 C534 1.415 . S
C534 H510 0.950 . S
C534 C529 1.363 . S
C534 C533 1.415 . S
C535 H511 0.951 . S
C535 C536 1.366 . S
C535 C537 1.388 . S
C536 C535 1.366 . S
C536 C540 1.385 . S
C537 H512 0.951 . S
C537 C535 1.388 . S
C537 C538 1.366 . S
C538 C537 1.366 . S
C538 C539 1.414 . S
C538 C541 1.499 . S
C539 H513 0.950 . S
C539 C538 1.414 . S
C539 C540 1.374 . S
C540 H514 0.950 . S
C540 C536 1.385 . S
C540 C539 1.374 . S
C541 C538 1.499 . S
C541 C542 1.373 . S
C541 C543 1.389 . S
C542 H515 0.950 . S
C542 C528 1.377 . S
C542 C541 1.373 . S
C543 C527 1.377 . S
C543 C541 1.389 . S
C543 C544 1.524 . S
C544 C543 1.524 . S
C544 C545 1.397 . S
C544 C549 1.363 . S
C545 H516 0.950 . S
C545 C544 1.397 . S
C545 C546 1.334 . S
C546 H517 0.950 1_565 S
C546 C545 1.334 . S
C546 C547 1.287 . S
C547 C546 1.287 . S
C547 C548 1.524 . S
C547 H550 0.999 1_565 S
C548 H518 0.950 . S
C548 C547 1.524 . S
C548 C549 1.415 . S
C549 H519 0.950 . S
C549 C544 1.363 . S
C549 C548 1.415 . S
H550 C547 0.999 1_545 S
H551 C532 0.913 . S
H552 C570 0.951 . S
H553 C572 0.951 . S
H554 C574 0.950 . S
H555 C575 0.950 . S
H556 C577 0.950 . S
H557 C580 0.950 . S
H558 C581 0.950 1_455 S
H559 C583 0.950 . S
H560 C584 0.950 . S
H561 C585 0.951 . S
H562 C587 0.951 . S
H563 C589 0.950 . S
H564 C590 0.950 . S
H565 C592 0.950 . S
H566 C595 0.956 . S
H567 C596 0.950 1_554 S
H568 C598 0.950 . S
H569 C599 0.950 . S
C570 H552 0.951 . S
C570 C571 1.366 . S
C570 C572 1.388 . S
C571 C570 1.366 . S
C571 C575 1.385 . S
C572 H553 0.951 . S
C572 C570 1.388 . S
C572 C573 1.366 . S
C573 C572 1.366 . S
C573 C574 1.414 . S
C573 C576 1.499 . S
C574 H554 0.950 . S
C574 C573 1.414 . S
C574 C575 1.374 . S
C575 H555 0.950 . S
C575 C571 1.385 . S
C575 C574 1.374 . S
C576 C573 1.499 . S
C576 C577 1.373 . S
C576 C578 1.389 . S
C577 H556 0.950 . S
C577 C576 1.373 . S
C577 C593 1.377 . S
C578 C576 1.389 . S
C578 C579 1.524 . S
C578 C592 1.377 . S
C579 C578 1.524 . S
C579 C580 1.397 . S
C579 C584 1.363 . S
C580 H557 0.950 . S
C580 C579 1.397 . S
C580 C581 1.334 . S
C581 H558 0.950 1_655 S
C581 C580 1.334 . S
C581 C582 1.287 . S
C582 C581 1.287 . S
C582 C583 1.524 . S
C582 H601 0.913 1_655 S
C583 H559 0.950 . S
C583 C582 1.524 . S
C583 C584 1.415 . S
C584 H560 0.950 . S
C584 C579 1.363 . S
C584 C583 1.415 . S
C585 H561 0.951 . S
C585 C586 1.366 . S
C585 C587 1.388 . S
C586 C585 1.366 . S
C586 C590 1.385 . S
C587 H562 0.951 . S
C587 C585 1.388 . S
C587 C588 1.366 . S
C588 C587 1.366 . S
C588 C589 1.414 . S
C588 C591 1.499 1_554 S
C589 H563 0.950 . S
C589 C588 1.414 . S
C589 C590 1.374 . S
C590 H564 0.950 . S
C590 C586 1.385 . S
C590 C589 1.374 . S
C591 C588 1.499 1_556 S
C591 C592 1.373 . S
C591 C593 1.389 . S
C592 H565 0.950 . S
C592 C578 1.377 . S
C592 C591 1.373 . S
C593 C577 1.377 . S
C593 C591 1.389 . S
C593 C594 1.524 . S
C594 C593 1.524 . S
C594 C595 1.397 . S
C594 C599 1.363 . S
C595 H566 0.956 . S
C595 C594 1.397 . S
C595 C596 1.334 . S
C596 H567 0.950 1_556 S
C596 C595 1.334 . S
C596 C597 1.287 1_545 S
C597 C596 1.287 1_565 S
C597 C598 1.524 . S
C597 H600 0.999 . S
C598 H568 0.950 . S
C598 C597 1.524 . S
C598 C599 1.415 1_565 S
C599 H569 0.950 . S
C599 C594 1.363 . S
C599 C598 1.415 1_545 S
H600 C597 0.999 . S
H601 C582 0.913 1_455 S
H602 C620 0.951 . S
H603 C622 0.951 . S
H604 C624 0.950 . S
H605 C625 0.950 . S
H606 C627 0.950 . S
H607 C630 0.950 . S
H608 C631 0.950 . S
H609 C633 0.950 . S
H610 C634 0.950 1_545 S
H611 C635 0.951 . S
H612 C637 0.951 . S
H613 C639 0.950 . S
H614 C640 0.950 . S
H615 C642 0.950 . S
H616 C645 0.950 . S
H617 C646 0.950 . S
H618 C648 0.950 . S
H619 C649 0.950 . S
C620 H602 0.951 . S
C620 C621 1.366 . S
C620 C622 1.388 . S
C621 C620 1.366 . S
C621 C625 1.385 . S
C622 H603 0.951 . S
C622 C620 1.388 . S
C622 C623 1.366 . S
C623 C622 1.366 . S
C623 C624 1.414 . S
C623 C626 1.499 . S
C624 H604 0.950 . S
C624 C623 1.414 . S
C624 C625 1.374 . S
C625 H605 0.950 . S
C625 C621 1.385 . S
C625 C624 1.374 . S
C626 C623 1.499 . S
C626 C627 1.373 . S
C626 C628 1.389 . S
C627 H606 0.950 . S
C627 C626 1.373 . S
C627 C643 1.377 . S
C628 C626 1.389 . S
C628 C629 1.524 . S
C628 C642 1.377 . S
C629 C628 1.524 . S
C629 C630 1.397 . S
C629 C634 1.363 . S
C630 H607 0.950 . S
C630 C629 1.397 . S
C630 C631 1.334 . S
C631 H608 0.950 . S
C631 C630 1.334 . S
C631 C632 1.287 . S
C632 C631 1.287 . S
C632 C633 1.524 1_565 S
C632 H651 0.913 . S
C633 H609 0.950 . S
C633 C632 1.524 1_545 S
C633 C634 1.415 1_545 S
C634 H610 0.950 1_565 S
C634 C629 1.363 . S
C634 C633 1.415 1_565 S
C635 H611 0.951 . S
C635 C636 1.366 . S
C635 C637 1.388 . S
C636 C635 1.366 . S
C636 C640 1.385 1_565 S
C637 H612 0.951 . S
C637 C635 1.388 . S
C637 C638 1.366 . S
C638 C637 1.366 . S
C638 C639 1.414 1_565 S
C638 C641 1.499 . S
C639 H613 0.950 . S
C639 C638 1.414 1_545 S
C639 C640 1.374 . S
C640 H614 0.950 . S
C640 C636 1.385 1_545 S
C640 C639 1.374 . S
C641 C638 1.499 . S
C641 C642 1.373 . S
C641 C643 1.389 . S
C642 H615 0.950 . S
C642 C628 1.377 . S
C642 C641 1.373 . S
C643 C627 1.377 . S
C643 C641 1.389 . S
C643 C644 1.524 . S
C644 C643 1.524 . S
C644 C645 1.397 . S
C644 C649 1.363 . S
C645 H616 0.950 . S
C645 C644 1.397 . S
C645 C646 1.334 . S
C646 H617 0.950 . S
C646 C645 1.334 . S
C646 C647 1.287 . S
C647 C646 1.287 . S
C647 C648 1.524 . S
C647 H650 0.999 . S
C648 H618 0.950 . S
C648 C647 1.524 . S
C648 C649 1.415 . S
C649 H619 0.950 . S
C649 C644 1.363 . S
C649 C648 1.415 . S
H650 C647 0.999 . S
H651 C632 0.913 . S
H652 C670 0.951 . S
H653 C672 0.951 . S
H654 C674 0.950 . S
H655 C675 0.950 1_455 S
H656 C677 0.950 . S
H657 C680 0.950 . S
H658 C681 0.950 . S
H659 C683 0.950 . S
H660 C684 0.950 . S
H661 C685 0.951 . S
H662 C687 0.951 . S
H663 C689 0.950 . S
H664 C690 0.950 . S
H665 C692 0.950 . S
H666 C695 0.950 . S
H667 C696 0.950 . S
H668 C698 0.950 . S
H669 C699 0.950 . S
C670 H652 0.951 . S
C670 C671 1.366 . S
C670 C672 1.388 . S
C671 C670 1.366 . S
C671 C675 1.385 . S
C672 H653 0.951 . S
C672 C670 1.388 . S
C672 C673 1.366 . S
C673 C672 1.366 . S
C673 C674 1.414 . S
C673 C676 1.499 . S
C674 H654 0.950 . S
C674 C673 1.414 . S
C674 C675 1.374 . S
C675 H655 0.950 1_655 S
C675 C671 1.385 . S
C675 C674 1.374 . S
C676 C673 1.499 . S
C676 C677 1.373 . S
C676 C678 1.389 . S
C677 H656 0.950 . S
C677 C676 1.373 . S
C677 C693 1.377 . S
C678 C676 1.389 . S
C678 C679 1.524 . S
C678 C692 1.377 . S
C679 C678 1.524 . S
C679 C680 1.397 . S
C679 C684 1.363 . S
C680 H657 0.950 . S
C680 C679 1.397 . S
C680 C681 1.334 . S
C681 H658 0.950 . S
C681 C680 1.334 . S
C681 C682 1.287 . S
C682 C681 1.287 . S
C682 C683 1.524 . S
C682 H701 0.913 . S
C683 H659 0.950 . S
C683 C682 1.524 . S
C683 C684 1.415 . S
C684 H660 0.950 . S
C684 C679 1.363 . S
C684 C683 1.415 . S
C685 H661 0.951 . S
C685 C686 1.366 . S
C685 C687 1.388 . S
C686 C685 1.366 . S
C686 C690 1.385 . S
C687 H662 0.951 . S
C687 C685 1.388 . S
C687 C688 1.366 . S
C688 C687 1.366 . S
C688 C689 1.414 . S
C688 C691 1.499 . S
C689 H663 0.950 . S
C689 C688 1.414 . S
C689 C690 1.374 . S
C690 H664 0.950 . S
C690 C686 1.385 . S
C690 C689 1.374 . S
C691 C688 1.499 . S
C691 C692 1.373 . S
C691 C693 1.389 . S
C692 H665 0.950 . S
C692 C678 1.377 . S
C692 C691 1.373 . S
C693 C677 1.377 . S
C693 C691 1.389 . S
C693 C694 1.524 . S
C694 C693 1.524 . S
C694 C695 1.397 . S
C694 C699 1.363 . S
C695 H666 0.950 . S
C695 C694 1.397 . S
C695 C696 1.334 . S
C696 H667 0.950 . S
C696 C695 1.334 . S
C696 C697 1.287 . S
C697 C696 1.287 . S
C697 C698 1.524 . S
C697 H700 0.999 . S
C698 H668 0.950 . S
C698 C697 1.524 . S
C698 C699 1.415 . S
C699 H669 0.950 . S
C699 C694 1.363 . S
C699 C698 1.415 . S
H700 C697 0.999 . S
H701 C682 0.913 . S
C271 C74 1.421 . S
C286 C63 1.421 . S
C321 C147 1.421 . S
C336 C158 1.421 . S
C371 C231 1.422 . S
C386 C242 1.422 . S
C421 C237 1.528 . S
C436 C67 1.660 . S
C471 C142 0.854 . S
C486 C56 1.082 . S
C521 C235 1.659 . S
C536 C153 1.527 . S
C571 C224 1.082 . S
C586 C58 0.853 . S
C621 C69 1.528 . S
C636 C151 1.660 1_565 S
C671 C226 0.854 . S
C686 C140 1.081 . S
