# Generated by pormake.
# Topology qtz-g, (3)-cn, num edge types: 1
# Building blocks:
#     Node 0, Type 0, BuildingBlock: OLANEW_clean_sbu_2, # of connection points: 3
#     Node 1, Type 0, BuildingBlock: OLANEW_clean_sbu_2, # of connection points: 3
#     Node 2, Type 0, BuildingBlock: OLANEW_clean_sbu_2, # of connection points: 3
#     Node 3, Type 0, BuildingBlock: OLANEW_clean_sbu_2, # of connection points: 3
#     Node 4, Type 0, BuildingBlock: OLANEW_clean_sbu_2, # of connection points: 3
#     Node 5, Type 0, BuildingBlock: OLANEW_clean_sbu_2, # of connection points: 3
#     Node 6, Type 0, BuildingBlock: OLANEW_clean_sbu_2, # of connection points: 3
#     Node 7, Type 0, BuildingBlock: OLANEW_clean_sbu_2, # of connection points: 3
#     Node 8, Type 0, BuildingBlock: OLANEW_clean_sbu_2, # of connection points: 3
#     Node 9, Type 0, BuildingBlock: OLANEW_clean_sbu_2, # of connection points: 3
#     Node 10, Type 0, BuildingBlock: OLANEW_clean_sbu_2, # of connection points: 3
#     Node 11, Type 0, BuildingBlock: OLANEW_clean_sbu_2, # of connection points: 3
#     Edge 12, Type (0, 0), BuildingBlock: FUNLAD_clean_linker_0, # of connection points: 2
#     Edge 13, Type (0, 0), BuildingBlock: FUNLAD_clean_linker_0, # of connection points: 2
#     Edge 14, Type (0, 0), BuildingBlock: FUNLAD_clean_linker_0, # of connection points: 2
#     Edge 15, Type (0, 0), BuildingBlock: FUNLAD_clean_linker_0, # of connection points: 2
#     Edge 16, Type (0, 0), BuildingBlock: FUNLAD_clean_linker_0, # of connection points: 2
#     Edge 17, Type (0, 0), BuildingBlock: FUNLAD_clean_linker_0, # of connection points: 2
#     Edge 18, Type (0, 0), BuildingBlock: FUNLAD_clean_linker_0, # of connection points: 2
#     Edge 19, Type (0, 0), BuildingBlock: FUNLAD_clean_linker_0, # of connection points: 2
#     Edge 20, Type (0, 0), BuildingBlock: FUNLAD_clean_linker_0, # of connection points: 2
#     Edge 21, Type (0, 0), BuildingBlock: FUNLAD_clean_linker_0, # of connection points: 2
#     Edge 22, Type (0, 0), BuildingBlock: FUNLAD_clean_linker_0, # of connection points: 2
#     Edge 23, Type (0, 0), BuildingBlock: FUNLAD_clean_linker_0, # of connection points: 2
#     Edge 24, Type (0, 0), BuildingBlock: FUNLAD_clean_linker_0, # of connection points: 2
#     Edge 25, Type (0, 0), BuildingBlock: FUNLAD_clean_linker_0, # of connection points: 2
#     Edge 26, Type (0, 0), BuildingBlock: FUNLAD_clean_linker_0, # of connection points: 2
#     Edge 27, Type (0, 0), BuildingBlock: FUNLAD_clean_linker_0, # of connection points: 2
#     Edge 28, Type (0, 0), BuildingBlock: FUNLAD_clean_linker_0, # of connection points: 2
#     Edge 29, Type (0, 0), BuildingBlock: FUNLAD_clean_linker_0, # of connection points: 2
# Relax obj value: 0.011
# Max RMSD: 0.029
# Mean RMSD: 0.029
data_MOF--net-qtz-g--node1-OLANEW_clean_sbu_2--edge1-FUNLAD_clean_linker_0
_symmetry_space_group_name_H-M    P1
_symmetry_Int_Tables_number       1
_symmetry_cell_setting            triclinic
loop_
_symmetry_equiv_pos_as_xyz
'x, y, z'
_cell_length_a     51.065096
_cell_length_b     51.081714
_cell_length_c     96.093122
_cell_angle_alpha  90.000113
_cell_angle_beta   90.0009
_cell_angle_gamma 120.00704
loop_
_atom_site_label
_atom_site_type_symbol
_atom_site_fract_x
_atom_site_fract_y
_atom_site_fract_z
_atom_type_partial_charge
O0 O 0.99881 0.37076 0.0277 0.0
Cd1 Cd 0.99698 0.32244 0.02442 0.0
O2 O 0.01009 0.37023 0.04967 0.0
Cd3 Cd 0.01677 0.38635 0.07118 0.0
O4 O 0.01613 0.39241 0.09366 0.0
C5 C 0.99677 0.37007 0.10075 0.0
O6 O 0.97824 0.34481 0.09426 0.0
C7 C 0.00494 0.38321 0.03962 0.0
C8 C 0.05349 0.3293 0.0183 0.0
O9 O 0.03586 0.32844 0.00859 0.0
O10 O 0.04444 0.3271 0.03091 0.0
O11 O 0.62757 0.00055 0.36006 0.0
Cd12 Cd 0.67355 0.99774 0.3567 0.0
O13 O 0.63156 0.9957 0.38248 0.0
Cd14 Cd 0.61995 0.99483 0.40447 0.0
O15 O 0.61313 0.9943 0.42693 0.0
C16 C 0.62099 0.97907 0.43455 0.0
O17 O 0.63256 0.96394 0.42864 0.0
C18 C 0.61724 0.9985 0.37229 0.0
C19 C 0.72382 0.05341 0.35006 0.0
O20 O 0.70659 0.03558 0.34052 0.0
O21 O 0.71711 0.04499 0.36276 0.0
O22 O 0.63824 0.62895 0.69853 0.0
Cd23 Cd 0.68721 0.67464 0.69517 0.0
O24 O 0.63853 0.64188 0.7203 0.0
Cd25 Cd 0.6215 0.63385 0.74167 0.0
O26 O 0.61306 0.62783 0.76405 0.0
C27 C 0.62469 0.61499 0.77098 0.0
O28 O 0.64079 0.60532 0.76439 0.0
C29 C 0.62542 0.62348 0.71035 0.0
C30 C 0.68111 0.72257 0.68513 0.0
O31 O 0.68328 0.70417 0.67678 0.0
O32 O 0.68178 0.71825 0.69824 0.0
O33 O 0.00277 0.63296 0.0285 0.0
Cd34 Cd 0.00555 0.68181 0.02563 0.0
O35 O 0.99063 0.63258 0.05041 0.0
Cd36 Cd 0.98304 0.61556 0.07178 0.0
O37 O 0.98331 0.60917 0.09425 0.0
C38 C 0.00093 0.63211 0.10151 0.0
O39 O 0.01784 0.65807 0.0952 0.0
C40 C 0.99601 0.61994 0.04028 0.0
C41 C 0.94967 0.67635 0.01939 0.0
O42 O 0.96735 0.67722 0.00971 0.0
O43 O 0.95834 0.67783 0.03203 0.0
O44 O 0.36353 0.00353 0.36237 0.0
Cd45 Cd 0.3158 0.00367 0.36355 0.0
O46 O 0.361 0.99596 0.38486 0.0
Cd47 Cd 0.37623 0.99212 0.40568 0.0
O48 O 0.38358 0.98775 0.42775 0.0
C49 C 0.38215 0.006 0.43629 0.0
O50 O 0.37701 0.0271 0.43148 0.0
C51 C 0.37501 0.99984 0.37341 0.0
C52 C 0.26595 0.94845 0.35601 0.0
O53 O 0.28076 0.96892 0.34689 0.0
O54 O 0.27489 0.95401 0.36869 0.0
O55 O 0.36831 0.37974 0.69838 0.0
Cd56 Cd 0.31839 0.33521 0.69516 0.0
O57 O 0.36844 0.36608 0.71998 0.0
Cd58 Cd 0.38572 0.37307 0.7413 0.0
O59 O 0.39187 0.37677 0.76386 0.0
C60 C 0.36892 0.36007 0.77132 0.0
O61 O 0.34326 0.34147 0.76514 0.0
C62 C 0.38152 0.38463 0.71008 0.0
C63 C 0.32157 0.28383 0.68824 0.0
O64 O 0.32169 0.3016 0.67879 0.0
O65 O 0.32009 0.29046 0.70097 0.0
O66 O 0.63573 0.00526 0.63611 0.0
Cd67 Cd 0.68507 0.00894 0.63873 0.0
O68 O 0.63905 0.00092 0.61361 0.0
Cd69 Cd 0.62389 0.99355 0.59193 0.0
O70 O 0.61499 0.98839 0.56959 0.0
C71 C 0.62191 0.01156 0.56218 0.0
O72 O 0.63373 0.03814 0.56823 0.0
C73 C 0.62451 0.00247 0.62403 0.0
C74 C 0.68132 0.95602 0.64891 0.0
O75 O 0.6835 0.97669 0.6572 0.0
O76 O 0.68065 0.96029 0.6358 0.0
O77 O 0.61993 0.63509 0.97222 0.0
Cd78 Cd 0.66754 0.6824 0.97544 0.0
O79 O 0.63236 0.63397 0.95049 0.0
Cd80 Cd 0.62327 0.61723 0.92907 0.0
O81 O 0.61751 0.61084 0.90657 0.0
C82 C 0.62032 0.63295 0.89935 0.0
O83 O 0.62626 0.65809 0.90573 0.0
C84 C 0.61358 0.62212 0.96042 0.0
C85 C 0.71588 0.67362 0.98187 0.0
O86 O 0.69937 0.67528 0.99148 0.0
O87 O 0.70935 0.67586 0.9692 0.0
O88 O 0.98748 0.62199 0.3023 0.0
Cd89 Cd 0.98298 0.66682 0.30621 0.0
O90 O 1.0 0.63581 0.2806 0.0
Cd91 Cd 0.00917 0.62881 0.2591 0.0
O92 O 0.01111 0.62385 0.2366 0.0
C93 C 0.98644 0.60897 0.22994 0.0
O94 O 0.96082 0.59659 0.23687 0.0
C95 C 0.99505 0.61717 0.2904 0.0
C96 C 0.03814 0.71696 0.3136 0.0
O97 O 0.0202 0.6988 0.32287 0.0
O98 O 0.02999 0.71136 0.30082 0.0
O99 O 0.36958 0.00194 0.63941 0.0
Cd100 Cd 0.32108 0.00061 0.63969 0.0
O101 O 0.37001 0.00503 0.61669 0.0
Cd102 Cd 0.38795 0.01086 0.59552 0.0
O103 O 0.39768 0.01669 0.57323 0.0
C104 C 0.38436 0.99408 0.56514 0.0
O105 O 0.36564 0.96744 0.57046 0.0
C106 C 0.38257 0.00364 0.62789 0.0
C107 C 0.32682 0.05596 0.64727 0.0
O108 O 0.32262 0.03604 0.65647 0.0
O109 O 0.32845 0.04973 0.63449 0.0
O110 O 0.37847 0.35954 0.97303 0.0
Cd111 Cd 0.33105 0.31207 0.97634 0.0
O112 O 0.36625 0.35969 0.95119 0.0
Cd113 Cd 0.37494 0.37536 0.9296 0.0
O114 O 0.37715 0.37965 0.90695 0.0
C115 C 0.35307 0.36314 0.90013 0.0
O116 O 0.32823 0.34501 0.90699 0.0
C117 C 0.38489 0.37205 0.96113 0.0
C118 C 0.28203 0.32015 0.98219 0.0
O119 O 0.29845 0.31898 0.99199 0.0
O120 O 0.289 0.31781 0.96961 0.0
O121 O 0.01168 0.3755 0.30154 0.0
Cd122 Cd 0.01634 0.33061 0.30494 0.0
O123 O 0.99897 0.36213 0.27982 0.0
Cd124 Cd 0.98961 0.36959 0.25842 0.0
O125 O 0.98779 0.37527 0.23597 0.0
C126 C 0.01254 0.38858 0.22927 0.0
O127 O 0.0381 0.39889 0.23612 0.0
C128 C 0.00397 0.38055 0.28972 0.0
C129 C 0.96102 0.27978 0.3115 0.0
O130 O 0.9786 0.29718 0.32107 0.0
O131 O 0.9696 0.28649 0.29882 0.0
C132 C 0.01602 0.58535 0.03513 0.0
C133 C 0.99508 0.59082 0.04211 0.0
C134 C 0.01452 0.55738 0.03633 0.0
C135 C 0.99167 0.53415 0.04435 0.0
C136 C 0.97057 0.53955 0.05122 0.0
C137 C 0.97247 0.56778 0.05025 0.0
C138 C 0.9882 0.50358 0.04484 0.0
C139 C 0.01202 0.49911 0.04492 0.0
C140 C 0.00863 0.46858 0.04426 0.0
C141 C 0.02955 0.46301 0.05119 0.0
C142 C 0.02782 0.43489 0.05004 0.0
C143 C 0.00557 0.41213 0.04166 0.0
H144 H 0.97012 0.44948 0.03024 0.0
C145 C 0.98479 0.41775 0.03462 0.0
C146 C 0.98611 0.44562 0.036 0.0
H147 H 0.96758 0.40061 0.028 0.0
H148 H 0.03352 0.60271 0.0287 0.0
H149 H 0.03066 0.55365 0.03062 0.0
H150 H 0.95251 0.52186 0.05729 0.0
H151 H 0.95564 0.57123 0.05548 0.0
H152 H 0.96541 0.48428 0.04544 0.0
H153 H 0.03478 0.51839 0.04576 0.0
H154 H 0.04735 0.48052 0.05745 0.0
H155 H 0.04454 0.43135 0.05531 0.0
C156 C 0.58177 0.01647 0.36536 0.0
C157 C 0.58914 0.99958 0.37443 0.0
C158 C 0.55474 0.0168 0.36697 0.0
C159 C 0.53417 0.99974 0.37758 0.0
C160 C 0.5418 0.98317 0.38674 0.0
C161 C 0.56888 0.98291 0.38513 0.0
C162 C 0.50479 0.99882 0.37951 0.0
C163 C 0.49048 0.00461 0.3692 0.0
C164 C 0.46092 0.00336 0.3709 0.0
C165 C 0.45309 0.01905 0.36132 0.0
C166 C 0.42529 0.01799 0.36224 0.0
C167 C 0.40458 0.00114 0.37277 0.0
H168 H 0.44448 0.97259 0.38858 0.0
C169 C 0.41207 0.98496 0.38223 0.0
C170 C 0.43995 0.98605 0.38133 0.0
H171 H 0.39605 0.97061 0.39003 0.0
H172 H 0.59707 0.02966 0.35706 0.0
H173 H 0.55037 0.03074 0.35996 0.0
H174 H 0.52645 0.96984 0.39499 0.0
H175 H 0.57342 0.96885 0.39199 0.0
H176 H 0.49449 0.99248 0.38973 0.0
H177 H 0.50075 0.0108 0.35897 0.0
H178 H 0.4686 0.03229 0.35309 0.0
H179 H 0.42007 0.03052 0.35472 0.0
C180 C 0.41821 0.43897 0.70542 0.0
C181 C 0.41141 0.41182 0.71206 0.0
C182 C 0.4469 0.4645 0.70673 0.0
C183 C 0.4695 0.46316 0.71454 0.0
C184 C 0.46276 0.43592 0.72107 0.0
C185 C 0.43385 0.41054 0.71998 0.0
C186 C 0.50075 0.48923 0.71516 0.0
C187 C 0.50678 0.51806 0.71535 0.0
C188 C 0.53799 0.54421 0.71481 0.0
C189 C 0.54458 0.5712 0.72156 0.0
C190 C 0.57335 0.59678 0.72048 0.0
C191 C 0.5958 0.59597 0.71237 0.0
H192 H 0.55602 0.5231 0.7012 0.0
C193 C 0.58918 0.56906 0.70554 0.0
C194 C 0.56063 0.54332 0.70684 0.0
H195 H 0.60606 0.56797 0.69913 0.0
H196 H 0.40134 0.44044 0.69915 0.0
H197 H 0.45161 0.48493 0.70126 0.0
H198 H 0.47994 0.43423 0.72697 0.0
H199 H 0.4294 0.38965 0.72491 0.0
H200 H 0.51922 0.48447 0.71576 0.0
H201 H 0.48829 0.52275 0.7162 0.0
H202 H 0.52737 0.57256 0.72759 0.0
H203 H 0.57764 0.61748 0.72555 0.0
C204 C 0.57354 0.98911 0.63313 0.0
C205 C 0.59499 0.00094 0.62237 0.0
C206 C 0.54605 0.98865 0.63197 0.0
C207 C 0.53956 0.00044 0.62006 0.0
C208 C 0.56082 0.01184 0.60921 0.0
C209 C 0.58838 0.01237 0.6104 0.0
C210 C 0.51081 0.0009 0.61859 0.0
C211 C 0.49543 0.0027 0.6296 0.0
C212 C 0.46688 0.00366 0.62848 0.0
C213 C 0.4583 0.01531 0.6397 0.0
C214 C 0.43114 0.01566 0.63937 0.0
C215 C 0.41186 0.00432 0.62779 0.0
H216 H 0.45261 0.98179 0.60827 0.0
C217 C 0.4202 0.99235 0.61659 0.0
C218 C 0.44744 0.99203 0.61691 0.0
H219 H 0.40522 0.98215 0.60782 0.0
H220 H 0.57797 0.98003 0.64246 0.0
H221 H 0.52988 0.97877 0.64037 0.0
H222 H 0.55641 0.02106 0.59993 0.0
H223 H 0.60484 0.02268 0.60216 0.0
H224 H 0.50321 0.00157 0.60811 0.0
H225 H 0.50481 0.00498 0.63997 0.0
H226 H 0.47264 0.02413 0.6488 0.0
H227 H 0.42522 0.02481 0.64821 0.0
C228 C 0.41578 0.42331 0.95045 0.0
C229 C 0.41397 0.40011 0.95896 0.0
C230 C 0.44312 0.4505 0.94905 0.0
C231 C 0.46919 0.45477 0.95604 0.0
C232 C 0.46751 0.43123 0.96421 0.0
C233 C 0.44006 0.40432 0.96583 0.0
C234 C 0.49835 0.48355 0.9551 0.0
C235 C 0.49994 0.51065 0.95488 0.0
C236 C 0.52911 0.53944 0.95566 0.0
C237 C 0.53077 0.56342 0.96347 0.0
C238 C 0.55828 0.59034 0.96498 0.0
C239 C 0.58442 0.59409 0.95834 0.0
H240 H 0.55452 0.52533 0.9426 0.0
C241 C 0.58263 0.57045 0.95018 0.0
C242 C 0.55524 0.54327 0.94889 0.0
H243 H 0.60257 0.57263 0.94512 0.0
H244 H 0.39588 0.42078 0.9452 0.0
H245 H 0.44386 0.4681 0.94249 0.0
H246 H 0.48733 0.43395 0.96964 0.0
H247 H 0.43924 0.38672 0.97243 0.0
H248 H 0.51901 0.48248 0.956 0.0
H249 H 0.47927 0.51176 0.95553 0.0
H250 H 0.51092 0.56104 0.96872 0.0
H251 H 0.55909 0.60828 0.97132 0.0
C252 C 0.97779 0.56281 0.29479 0.0
C253 C 0.99774 0.59007 0.28811 0.0
C254 C 0.9812 0.53747 0.29329 0.0
C255 C 0.005 0.53911 0.28525 0.0
C256 C 0.02503 0.56642 0.27864 0.0
C257 C 0.02125 0.59161 0.27992 0.0
C258 C 0.01067 0.51337 0.28454 0.0
C259 C 0.98821 0.48438 0.28453 0.0
C260 C 0.99388 0.45864 0.28509 0.0
C261 C 0.97377 0.4314 0.27844 0.0
C262 C 0.97758 0.40621 0.27956 0.0
C263 C 0.0012 0.40766 0.28763 0.0
H264 H 0.03319 0.4806 0.29858 0.0
C265 C 0.02121 0.43482 0.29437 0.0
C266 C 0.01777 0.46017 0.29302 0.0
H267 H 0.03944 0.43639 0.30075 0.0
H268 H 0.95965 0.56116 0.30127 0.0
H269 H 0.96585 0.51698 0.29883 0.0
H270 H 0.04379 0.56834 0.27256 0.0
H271 H 0.03738 0.61258 0.27494 0.0
H272 H 0.03401 0.51852 0.28377 0.0
H273 H 0.96486 0.47924 0.28386 0.0
H274 H 0.95494 0.42956 0.27245 0.0
H275 H 0.9614 0.3853 0.27455 0.0
C276 C 0.98537 0.37968 0.20648 0.0
C277 C 0.01263 0.39127 0.21392 0.0
C278 C 0.9855 0.38114 0.19194 0.0
C279 C 0.01295 0.39404 0.18452 0.0
C280 C 0.04018 0.40641 0.192 0.0
C281 C 0.04005 0.40495 0.20652 0.0
C282 C 0.01422 0.39522 0.16905 0.0
C283 C 0.99128 0.37568 0.16086 0.0
C284 C 0.99312 0.37532 0.14541 0.0
C285 C 0.97325 0.34863 0.1383 0.0
C286 C 0.97438 0.34699 0.12382 0.0
C287 C 0.99532 0.37214 0.11607 0.0
H288 H 0.02873 0.42207 0.14261 0.0
C289 C 0.01483 0.3991 0.12312 0.0
C290 C 0.0137 0.40075 0.13763 0.0
H291 H 0.03101 0.41899 0.11744 0.0
H292 H 0.96386 0.36931 0.21187 0.0
H293 H 0.96405 0.37232 0.18663 0.0
H294 H 0.06167 0.41678 0.18658 0.0
H295 H 0.06149 0.41428 0.21193 0.0
H296 H 0.03563 0.41139 0.16436 0.0
H297 H 0.97089 0.35777 0.16562 0.0
H298 H 0.95699 0.32878 0.14399 0.0
H299 H 0.9589 0.3259 0.11873 0.0
C300 C 0.60595 0.99544 0.4563 0.0
C301 C 0.61798 0.97903 0.44988 0.0
C302 C 0.6039 0.99601 0.4708 0.0
C303 C 0.61407 0.98029 0.47921 0.0
C304 C 0.62541 0.96335 0.47275 0.0
C305 C 0.62746 0.96279 0.45827 0.0
C306 C 0.61296 0.98065 0.49468 0.0
C307 C 0.61253 0.00286 0.50207 0.0
C308 C 0.61358 0.00414 0.51755 0.0
C309 C 0.62482 0.03231 0.52411 0.0
C310 C 0.62717 0.03469 0.5386 0.0
C311 C 0.61808 0.00886 0.54687 0.0
H312 H 0.59375 0.95587 0.52125 0.0
C313 C 0.60594 0.98052 0.54034 0.0
C314 C 0.60359 0.97814 0.52585 0.0
H315 H 0.59838 0.96012 0.54641 0.0
H316 H 0.59813 0.00794 0.45013 0.0
H317 H 0.59406 0.00852 0.47531 0.0
H318 H 0.63314 0.95079 0.47895 0.0
H319 H 0.63669 0.94977 0.45368 0.0
H320 H 0.61469 0.96294 0.5001 0.0
H321 H 0.61363 0.02206 0.49668 0.0
H322 H 0.63236 0.05266 0.518 0.0
H323 H 0.63645 0.05685 0.5433 0.0
C324 C 0.60463 0.62297 0.79345 0.0
C325 C 0.62133 0.61215 0.7863 0.0
C326 C 0.60255 0.62139 0.80797 0.0
C327 C 0.61737 0.60915 0.81567 0.0
C328 C 0.63326 0.59754 0.80848 0.0
C329 C 0.63534 0.5991 0.79397 0.0
C330 C 0.6167 0.60795 0.83115 0.0
C331 C 0.61225 0.62706 0.83915 0.0
C332 C 0.61368 0.62747 0.85462 0.0
C333 C 0.61944 0.65396 0.86162 0.0
C334 C 0.62146 0.65566 0.87612 0.0
C335 C 0.61755 0.63077 0.88399 0.0
H336 H 0.60365 0.58112 0.8576 0.0
C337 C 0.61116 0.604 0.87704 0.0
C338 C 0.60913 0.6023 0.86252 0.0
H339 H 0.60771 0.58431 0.88282 0.0
H340 H 0.59326 0.63282 0.78784 0.0
H341 H 0.58915 0.6296 0.81305 0.0
H342 H 0.64461 0.58769 0.81411 0.0
H343 H 0.64822 0.59038 0.78879 0.0
H344 H 0.62226 0.59217 0.83602 0.0
H345 H 0.60944 0.64462 0.83422 0.0
H346 H 0.62278 0.67361 0.85583 0.0
H347 H 0.62627 0.67659 0.88113 0.0
C348 C 0.01371 0.62073 0.20707 0.0
C349 C 0.98643 0.6068 0.21457 0.0
C350 C 0.01356 0.61978 0.19252 0.0
C351 C 0.98604 0.60503 0.18515 0.0
C352 C 0.95888 0.59035 0.19269 0.0
C353 C 0.95903 0.5913 0.20722 0.0
C354 C 0.9847 0.60431 0.16968 0.0
C355 C 0.00658 0.62552 0.16158 0.0
C356 C 0.00463 0.62617 0.14614 0.0
C357 C 0.02263 0.65368 0.13922 0.0
C358 C 0.02144 0.65556 0.12475 0.0
C359 C 0.00231 0.62986 0.11683 0.0
H360 H 0.97231 0.5784 0.14303 0.0
C361 C 0.98463 0.60215 0.1237 0.0
C362 C 0.98584 0.60026 0.13819 0.0
H363 H 0.96989 0.58185 0.11789 0.0
H364 H 0.03523 0.63256 0.21241 0.0
H365 H 0.03505 0.63045 0.18715 0.0
H366 H 0.93738 0.57853 0.18731 0.0
H367 H 0.9376 0.58016 0.21268 0.0
H368 H 0.96398 0.58687 0.16494 0.0
H369 H 0.02602 0.64446 0.16643 0.0
H370 H 0.0375 0.67395 0.14503 0.0
H371 H 0.03547 0.67725 0.1198 0.0
C372 C 0.38258 0.02266 0.46084 0.0
C373 C 0.38495 0.00283 0.45146 0.0
C374 C 0.38402 0.01909 0.47519 0.0
C375 C 0.3881 0.99567 0.4805 0.0
C376 C 0.39049 0.9759 0.47111 0.0
C377 C 0.38908 0.97949 0.45675 0.0
C378 C 0.38817 0.99016 0.4957 0.0
C379 C 0.39538 0.01177 0.50541 0.0
C380 C 0.39365 0.00609 0.52066 0.0
C381 C 0.40976 0.03071 0.52966 0.0
C382 C 0.4073 0.02675 0.54409 0.0
C383 C 0.38843 0.99802 0.54987 0.0
H384 H 0.36147 0.95777 0.51995 0.0
C385 C 0.37253 0.97328 0.54088 0.0
C386 C 0.37499 0.97724 0.52645 0.0
H387 H 0.35763 0.95087 0.54499 0.0
H388 H 0.37913 0.04073 0.45712 0.0
H389 H 0.38106 0.03423 0.48202 0.0
H390 H 0.39335 0.9575 0.4749 0.0
H391 H 0.39087 0.96375 0.44982 0.0
H392 H 0.38278 0.96762 0.49888 0.0
H393 H 0.40355 0.03492 0.50213 0.0
H394 H 0.42411 0.05322 0.52552 0.0
H395 H 0.41983 0.04632 0.55071 0.0
C396 C 0.37985 0.38154 0.87723 0.0
C397 C 0.35307 0.36353 0.88472 0.0
C398 C 0.37981 0.38117 0.86266 0.0
C399 C 0.35291 0.36266 0.85528 0.0
C400 C 0.32611 0.34517 0.8628 0.0
C401 C 0.32617 0.34547 0.87733 0.0
C402 C 0.35148 0.36116 0.83982 0.0
C403 C 0.37554 0.36881 0.83151 0.0
C404 C 0.37328 0.36608 0.81608 0.0
C405 C 0.39898 0.38436 0.80799 0.0
C406 C 0.39771 0.38242 0.79346 0.0
C407 C 0.3707 0.3619 0.7867 0.0
H408 H 0.32641 0.32973 0.81511 0.0
C409 C 0.34515 0.34316 0.7948 0.0
C410 C 0.34642 0.3451 0.8093 0.0
H411 H 0.32408 0.32685 0.78994 0.0
H412 H 0.40092 0.3959 0.88261 0.0
H413 H 0.4008 0.39574 0.85732 0.0
H414 H 0.30502 0.33089 0.85742 0.0
H415 H 0.30509 0.33142 0.88276 0.0
H416 H 0.32931 0.3527 0.83518 0.0
H417 H 0.39786 0.37763 0.83602 0.0
H418 H 0.42006 0.40044 0.81293 0.0
H419 H 0.41785 0.39709 0.78753 0.0
C420 C 0.24728 0.32478 0.99916 0.0
C421 C 0.25537 0.32336 0.98532 0.0
C422 C 0.22143 0.32659 0.00215 0.0
C423 C 0.20316 0.32725 0.99133 0.0
C424 C 0.21138 0.32594 0.9775 0.0
C425 C 0.23722 0.32413 0.97452 0.0
C426 C 0.17463 0.32768 0.99394 0.0
C427 C 0.16819 0.33681 0.006 0.0
C428 C 0.13896 0.33567 0.00877 0.0
C429 C 0.12975 0.33452 0.02263 0.0
C430 C 0.10213 0.33268 0.02574 0.0
C431 C 0.08317 0.3322 0.01503 0.0
H432 H 0.12694 0.33791 0.98724 0.0
C433 C 0.09268 0.33414 0.00116 0.0
C434 C 0.1203 0.33596 0.99804 0.0
H435 H 0.07876 0.33418 0.99266 0.0
H436 H 0.26064 0.32399 0.00773 0.0
H437 H 0.21557 0.3266 0.01296 0.0
H438 H 0.19767 0.32619 0.96895 0.0
H439 H 0.24276 0.323 0.96374 0.0
H440 H 0.15828 0.31984 0.98553 0.0
H441 H 0.18445 0.34461 0.01445 0.0
H442 H 0.14376 0.33456 0.03111 0.0
H443 H 0.09558 0.33139 0.03655 0.0
C444 C 0.92287 0.24515 0.32893 0.0
C445 C 0.93182 0.2526 0.31499 0.0
C446 C 0.89556 0.2192 0.33225 0.0
C447 C 0.87643 0.20018 0.32166 0.0
C448 C 0.88551 0.20762 0.30774 0.0
C449 C 0.91281 0.23357 0.30443 0.0
C450 C 0.84758 0.17181 0.32463 0.0
C451 C 0.83217 0.16628 0.33669 0.0
C452 C 0.80387 0.13744 0.33974 0.0
C453 C 0.79589 0.12905 0.35369 0.0
C454 C 0.76982 0.10189 0.35706 0.0
C455 C 0.75096 0.0826 0.34652 0.0
H456 H 0.78924 0.1245 0.31832 0.0
C457 C 0.75849 0.0913 0.33256 0.0
C458 C 0.78459 0.11845 0.32919 0.0
H459 H 0.74426 0.07711 0.32419 0.0
H460 H 0.93712 0.2592 0.33733 0.0
H461 H 0.89005 0.21393 0.34313 0.0
H462 H 0.87141 0.19331 0.29936 0.0
H463 H 0.91907 0.23859 0.29357 0.0
H464 H 0.8389 0.1549 0.31645 0.0
H465 H 0.8408 0.18309 0.34491 0.0
H466 H 0.81012 0.14336 0.36204 0.0
H467 H 0.76458 0.09596 0.36793 0.0
C468 C 0.67627 0.7685 0.68903 0.0
C469 C 0.67818 0.74818 0.6798 0.0
C470 C 0.674 0.79297 0.68399 0.0
C471 C 0.6738 0.79778 0.66957 0.0
C472 C 0.67508 0.77709 0.66037 0.0
C473 C 0.67739 0.75265 0.66541 0.0
C474 C 0.67175 0.82365 0.66369 0.0
C475 C 0.68063 0.84975 0.6706 0.0
C476 C 0.67965 0.87617 0.66464 0.0
C477 C 0.68088 0.89821 0.67379 0.0
C478 C 0.68104 0.92393 0.66871 0.0
C479 C 0.68018 0.92832 0.65432 0.0
H480 H 0.67879 0.86479 0.64273 0.0
C481 C 0.67895 0.90632 0.64513 0.0
C482 C 0.6788 0.88059 0.65021 0.0
H483 H 0.67852 0.90914 0.63398 0.0
H484 H 0.67649 0.76551 0.70018 0.0
H485 H 0.67199 0.80769 0.69147 0.0
H486 H 0.67467 0.78004 0.64922 0.0
H487 H 0.67865 0.73733 0.65801 0.0
H488 H 0.66329 0.82108 0.65313 0.0
H489 H 0.68918 0.85224 0.68114 0.0
H490 H 0.68177 0.89557 0.68494 0.0
H491 H 0.68209 0.94048 0.67607 0.0
C492 C 0.91137 0.67331 0.00217 0.0
C493 C 0.92036 0.67427 0.01607 0.0
C494 C 0.88416 0.67233 0.99901 0.0
C495 C 0.86519 0.67207 0.00972 0.0
C496 C 0.87424 0.673 0.0236 0.0
C497 C 0.90143 0.67396 0.02676 0.0
C498 C 0.83667 0.67239 0.00692 0.0
C499 C 0.82124 0.66334 0.99483 0.0
C500 C 0.79355 0.66511 0.99189 0.0
C501 C 0.78578 0.66623 0.97797 0.0
C502 C 0.76044 0.66872 0.9747 0.0
C503 C 0.7421 0.66988 0.9853 0.0
H504 H 0.77915 0.66354 0.01335 0.0
C505 C 0.74934 0.66793 0.99923 0.0
C506 C 0.77471 0.66547 0.0025 0.0
H507 H 0.73548 0.66841 0.00764 0.0
H508 H 0.92555 0.67376 0.99369 0.0
H509 H 0.87866 0.67261 0.98817 0.0
H510 H 0.86025 0.67306 0.03207 0.0
H511 H 0.90772 0.67476 0.03758 0.0
H512 H 0.82837 0.68068 0.01524 0.0
H513 H 0.82951 0.65509 0.98649 0.0
H514 H 0.79967 0.66569 0.96957 0.0
H515 H 0.75541 0.66999 0.96385 0.0
C516 C 0.22934 0.91361 0.33814 0.0
C517 C 0.23897 0.91947 0.35206 0.0
C518 C 0.20334 0.88666 0.33446 0.0
C519 C 0.18644 0.86484 0.34465 0.0
C520 C 0.19609 0.87078 0.35856 0.0
C521 C 0.22212 0.8977 0.36223 0.0
C522 C 0.15795 0.83639 0.34135 0.0
C523 C 0.15122 0.82356 0.32862 0.0
C524 C 0.12225 0.79569 0.32516 0.0
C525 C 0.11338 0.78983 0.31114 0.0
C526 C 0.08618 0.76424 0.30737 0.0
C527 C 0.06725 0.74376 0.31755 0.0
H528 H 0.10989 0.77773 0.34619 0.0
C529 C 0.07634 0.74923 0.33155 0.0
C530 C 0.10357 0.77481 0.33533 0.0
H531 H 0.06243 0.73371 0.33964 0.0
H532 H 0.24167 0.93003 0.33006 0.0
H533 H 0.19626 0.88352 0.32369 0.0
H534 H 0.18342 0.85453 0.36665 0.0
H535 H 0.22884 0.90155 0.37307 0.0
H536 H 0.14212 0.82587 0.34986 0.0
H537 H 0.16722 0.83412 0.32017 0.0
H538 H 0.12738 0.80532 0.30306 0.0
H539 H 0.07992 0.76063 0.29647 0.0
C540 C 0.32439 0.24926 0.67055 0.0
C541 C 0.32272 0.25628 0.68455 0.0
C542 C 0.32484 0.22292 0.66703 0.0
C543 C 0.32381 0.20307 0.67747 0.0
C544 C 0.32199 0.21008 0.69144 0.0
C545 C 0.3216 0.23643 0.69496 0.0
C546 C 0.32321 0.17428 0.67424 0.0
C547 C 0.33396 0.16928 0.66232 0.0
C548 C 0.33251 0.14015 0.65888 0.0
C549 C 0.33462 0.13362 0.64487 0.0
C550 C 0.33294 0.1064 0.64109 0.0
C551 C 0.32931 0.08511 0.65129 0.0
H552 H 0.32887 0.12353 0.68008 0.0
C553 C 0.32782 0.09185 0.66534 0.0
C554 C 0.32952 0.11909 0.66912 0.0
H555 H 0.32536 0.07607 0.67347 0.0
H556 H 0.32503 0.26395 0.66227 0.0
H557 H 0.32524 0.21799 0.65612 0.0
H558 H 0.32091 0.19511 0.6997 0.0
H559 H 0.32019 0.2411 0.70584 0.0
H560 H 0.3135 0.15673 0.68211 0.0
H561 H 0.34373 0.18693 0.6545 0.0
H562 H 0.33721 0.1495 0.63677 0.0
H563 H 0.33431 0.10199 0.63017 0.0
loop_
_geom_bond_atom_site_label_1
_geom_bond_atom_site_label_2
_geom_bond_distance
_geom_bond_site_symmetry_2
_ccdc_geom_bond_type
O0 Cd1 2.300 . S
O0 C7 1.275 . S
Cd1 O0 2.300 . S
Cd1 O9 2.381 . S
Cd1 O10 2.378 . S
O2 Cd3 2.385 . S
O2 C7 1.255 . S
Cd3 O2 2.385 . S
Cd3 O4 2.317 . S
O4 Cd3 2.317 . S
O4 C5 1.232 . S
C5 O4 1.232 . S
C5 O6 1.218 . S
O6 C5 1.218 . S
C7 O0 1.275 . S
C7 O2 1.255 . S
C8 O9 1.258 . S
C8 O10 1.256 . S
O9 Cd1 2.381 . S
O9 C8 1.258 . S
O10 Cd1 2.378 . S
O10 C8 1.256 . S
O11 Cd12 2.300 . S
O11 C18 1.275 . S
Cd12 O11 2.300 . S
Cd12 O20 2.381 . S
Cd12 O21 2.378 . S
O13 Cd14 2.385 . S
O13 C18 1.255 . S
Cd14 O13 2.385 . S
Cd14 O15 2.317 . S
O15 Cd14 2.317 . S
O15 C16 1.232 . S
C16 O15 1.232 . S
C16 O17 1.218 . S
O17 C16 1.218 . S
C18 O11 1.275 . S
C18 O13 1.255 . S
C19 O20 1.258 . S
C19 O21 1.256 . S
O20 Cd12 2.381 . S
O20 C19 1.258 . S
O21 Cd12 2.378 . S
O21 C19 1.256 . S
O22 Cd23 2.300 . S
O22 C29 1.275 . S
Cd23 O22 2.300 . S
Cd23 O31 2.381 . S
Cd23 O32 2.378 . S
O24 Cd25 2.385 . S
O24 C29 1.255 . S
Cd25 O24 2.385 . S
Cd25 O26 2.317 . S
O26 Cd25 2.317 . S
O26 C27 1.232 . S
C27 O26 1.232 . S
C27 O28 1.218 . S
O28 C27 1.218 . S
C29 O22 1.275 . S
C29 O24 1.255 . S
C30 O31 1.258 . S
C30 O32 1.256 . S
O31 Cd23 2.381 . S
O31 C30 1.258 . S
O32 Cd23 2.378 . S
O32 C30 1.256 . S
O33 Cd34 2.300 . S
O33 C40 1.275 . S
Cd34 O33 2.300 . S
Cd34 O42 2.381 . S
Cd34 O43 2.378 . S
O35 Cd36 2.385 . S
O35 C40 1.255 . S
Cd36 O35 2.385 . S
Cd36 O37 2.317 . S
O37 Cd36 2.317 . S
O37 C38 1.232 . S
C38 O37 1.232 . S
C38 O39 1.218 . S
O39 C38 1.218 . S
C40 O33 1.275 . S
C40 O35 1.255 . S
C41 O42 1.258 . S
C41 O43 1.256 . S
O42 Cd34 2.381 . S
O42 C41 1.258 . S
O43 Cd34 2.378 . S
O43 C41 1.256 . S
O44 Cd45 2.300 . S
O44 C51 1.275 . S
Cd45 O44 2.300 . S
Cd45 O53 2.381 . S
Cd45 O54 2.378 . S
O46 Cd47 2.385 . S
O46 C51 1.255 . S
Cd47 O46 2.385 . S
Cd47 O48 2.317 . S
O48 Cd47 2.317 . S
O48 C49 1.232 . S
C49 O48 1.232 . S
C49 O50 1.218 . S
O50 C49 1.218 . S
C51 O44 1.275 . S
C51 O46 1.255 . S
C52 O53 1.258 . S
C52 O54 1.256 . S
O53 Cd45 2.381 . S
O53 C52 1.258 . S
O54 Cd45 2.378 . S
O54 C52 1.256 . S
O55 Cd56 2.300 . S
O55 C62 1.275 . S
Cd56 O55 2.300 . S
Cd56 O64 2.381 . S
Cd56 O65 2.378 . S
O57 Cd58 2.385 . S
O57 C62 1.255 . S
Cd58 O57 2.385 . S
Cd58 O59 2.317 . S
O59 Cd58 2.317 . S
O59 C60 1.232 . S
C60 O59 1.232 . S
C60 O61 1.218 . S
O61 C60 1.218 . S
C62 O55 1.275 . S
C62 O57 1.255 . S
C63 O64 1.258 . S
C63 O65 1.256 . S
O64 Cd56 2.381 . S
O64 C63 1.258 . S
O65 Cd56 2.378 . S
O65 C63 1.256 . S
O66 Cd67 2.300 . S
O66 C73 1.275 . S
Cd67 O66 2.300 . S
Cd67 O75 2.381 . S
Cd67 O76 2.378 . S
O68 Cd69 2.385 . S
O68 C73 1.255 . S
Cd69 O68 2.385 . S
Cd69 O70 2.317 . S
O70 Cd69 2.317 . S
O70 C71 1.232 . S
C71 O70 1.232 . S
C71 O72 1.218 . S
O72 C71 1.218 . S
C73 O66 1.275 . S
C73 O68 1.255 . S
C74 O75 1.258 . S
C74 O76 1.256 . S
O75 Cd67 2.381 . S
O75 C74 1.258 . S
O76 Cd67 2.378 . S
O76 C74 1.256 . S
O77 Cd78 2.300 . S
O77 C84 1.275 . S
Cd78 O77 2.300 . S
Cd78 O86 2.381 . S
Cd78 O87 2.378 . S
O79 Cd80 2.385 . S
O79 C84 1.255 . S
Cd80 O79 2.385 . S
Cd80 O81 2.317 . S
O81 Cd80 2.317 . S
O81 C82 1.232 . S
C82 O81 1.232 . S
C82 O83 1.218 . S
O83 C82 1.218 . S
C84 O77 1.275 . S
C84 O79 1.255 . S
C85 O86 1.258 . S
C85 O87 1.256 . S
O86 Cd78 2.381 . S
O86 C85 1.258 . S
O87 Cd78 2.378 . S
O87 C85 1.256 . S
O88 Cd89 2.300 . S
O88 C95 1.275 . S
Cd89 O88 2.300 . S
Cd89 O97 2.381 . S
Cd89 O98 2.378 . S
O90 Cd91 2.385 . S
O90 C95 1.255 . S
Cd91 O90 2.385 . S
Cd91 O92 2.317 . S
O92 Cd91 2.317 . S
O92 C93 1.232 . S
C93 O92 1.232 . S
C93 O94 1.218 . S
O94 C93 1.218 . S
C95 O88 1.275 . S
C95 O90 1.255 . S
C96 O97 1.258 . S
C96 O98 1.256 . S
O97 Cd89 2.381 . S
O97 C96 1.258 . S
O98 Cd89 2.378 . S
O98 C96 1.256 . S
O99 Cd100 2.300 . S
O99 C106 1.275 . S
Cd100 O99 2.300 . S
Cd100 O108 2.381 . S
Cd100 O109 2.378 . S
O101 Cd102 2.385 . S
O101 C106 1.255 . S
Cd102 O101 2.385 . S
Cd102 O103 2.317 . S
O103 Cd102 2.317 . S
O103 C104 1.232 . S
C104 O103 1.232 . S
C104 O105 1.218 . S
O105 C104 1.218 . S
C106 O99 1.275 . S
C106 O101 1.255 . S
C107 O108 1.258 . S
C107 O109 1.256 . S
O108 Cd100 2.381 . S
O108 C107 1.258 . S
O109 Cd100 2.378 . S
O109 C107 1.256 . S
O110 Cd111 2.300 . S
O110 C117 1.275 . S
Cd111 O110 2.300 . S
Cd111 O119 2.381 . S
Cd111 O120 2.378 . S
O112 Cd113 2.385 . S
O112 C117 1.255 . S
Cd113 O112 2.385 . S
Cd113 O114 2.317 . S
O114 Cd113 2.317 . S
O114 C115 1.232 . S
C115 O114 1.232 . S
C115 O116 1.218 . S
O116 C115 1.218 . S
C117 O110 1.275 . S
C117 O112 1.255 . S
C118 O119 1.258 . S
C118 O120 1.256 . S
O119 Cd111 2.381 . S
O119 C118 1.258 . S
O120 Cd111 2.378 . S
O120 C118 1.256 . S
O121 Cd122 2.300 . S
O121 C128 1.275 . S
Cd122 O121 2.300 . S
Cd122 O130 2.381 . S
Cd122 O131 2.378 . S
O123 Cd124 2.385 . S
O123 C128 1.255 . S
Cd124 O123 2.385 . S
Cd124 O125 2.317 . S
O125 Cd124 2.317 . S
O125 C126 1.232 . S
C126 O125 1.232 . S
C126 O127 1.218 . S
O127 C126 1.218 . S
C128 O121 1.275 . S
C128 O123 1.255 . S
C129 O130 1.258 . S
C129 O131 1.256 . S
O130 Cd122 2.381 . S
O130 C129 1.258 . S
O131 Cd122 2.378 . S
O131 C129 1.256 . S
C132 C133 1.386 1_455 S
C132 C134 1.383 . S
C132 H148 0.951 . S
C133 C132 1.386 1_655 S
C133 C137 1.383 . S
C134 C132 1.383 . S
C134 C135 1.402 1_455 S
C134 H149 0.951 . S
C135 C134 1.402 1_655 S
C135 C136 1.375 . S
C135 C138 1.481 . S
C136 C135 1.375 . S
C136 C137 1.367 . S
C136 H150 0.951 . S
C137 C133 1.383 . S
C137 C136 1.367 . S
C137 H151 0.950 . S
C138 C135 1.481 . S
C138 C139 1.297 1_655 S
C138 H152 0.950 . S
C139 C138 1.297 1_455 S
C139 C140 1.479 . S
C139 H153 0.950 . S
C140 C139 1.479 . S
C140 C141 1.375 . S
C140 C146 1.404 1_455 S
C141 C140 1.375 . S
C141 C142 1.369 . S
C141 H154 0.950 . S
C142 C141 1.369 . S
C142 C143 1.392 . S
C142 H155 0.951 . S
C143 C142 1.392 . S
C143 C145 1.384 1_455 S
H144 C146 0.949 . S
C145 C143 1.384 1_655 S
C145 C146 1.385 . S
C145 H147 0.950 . S
C146 C140 1.404 1_655 S
C146 H144 0.949 . S
C146 C145 1.385 . S
H147 C145 0.950 . S
H148 C132 0.951 . S
H149 C134 0.951 . S
H150 C136 0.951 . S
H151 C137 0.950 . S
H152 C138 0.950 . S
H153 C139 0.950 . S
H154 C141 0.950 . S
H155 C142 0.951 . S
C156 C157 1.386 . S
C156 C158 1.383 . S
C156 H172 0.951 . S
C157 C156 1.386 . S
C157 C161 1.383 1_545 S
C158 C156 1.383 . S
C158 C159 1.402 1_545 S
C158 H173 0.951 . S
C159 C158 1.402 1_565 S
C159 C160 1.375 . S
C159 C162 1.481 . S
C160 C159 1.375 . S
C160 C161 1.367 . S
C160 H174 0.951 . S
C161 C157 1.383 1_565 S
C161 C160 1.367 . S
C161 H175 0.950 . S
C162 C159 1.481 . S
C162 C163 1.297 . S
C162 H176 0.950 . S
C163 C162 1.297 . S
C163 C164 1.479 . S
C163 H177 0.950 1_565 S
C164 C163 1.479 . S
C164 C165 1.375 1_565 S
C164 C170 1.404 . S
C165 C164 1.375 1_545 S
C165 C166 1.369 . S
C165 H178 0.950 . S
C166 C165 1.369 . S
C166 C167 1.392 1_545 S
C166 H179 0.951 . S
C167 C166 1.392 1_565 S
C167 C169 1.384 . S
H168 C170 0.949 . S
C169 C167 1.384 . S
C169 C170 1.385 . S
C169 H171 0.950 . S
C170 C164 1.404 . S
C170 H168 0.949 . S
C170 C169 1.385 . S
H171 C169 0.950 . S
H172 C156 0.951 . S
H173 C158 0.951 . S
H174 C160 0.951 . S
H175 C161 0.950 . S
H176 C162 0.950 . S
H177 C163 0.950 1_545 S
H178 C165 0.950 . S
H179 C166 0.951 . S
C180 C181 1.386 . S
C180 C182 1.383 . S
C180 H196 0.951 . S
C181 C180 1.386 . S
C181 C185 1.383 . S
C182 C180 1.383 . S
C182 C183 1.402 . S
C182 H197 0.951 . S
C183 C182 1.402 . S
C183 C184 1.375 . S
C183 C186 1.481 . S
C184 C183 1.375 . S
C184 C185 1.367 . S
C184 H198 0.951 . S
C185 C181 1.383 . S
C185 C184 1.367 . S
C185 H199 0.950 . S
C186 C183 1.481 . S
C186 C187 1.297 . S
C186 H200 0.950 . S
C187 C186 1.297 . S
C187 C188 1.479 . S
C187 H201 0.950 . S
C188 C187 1.479 . S
C188 C189 1.375 . S
C188 C194 1.404 . S
C189 C188 1.375 . S
C189 C190 1.369 . S
C189 H202 0.950 . S
C190 C189 1.369 . S
C190 C191 1.392 . S
C190 H203 0.951 . S
C191 C190 1.392 . S
C191 C193 1.384 . S
H192 C194 0.949 . S
C193 C191 1.384 . S
C193 C194 1.385 . S
C193 H195 0.950 . S
C194 C188 1.404 . S
C194 H192 0.949 . S
C194 C193 1.385 . S
H195 C193 0.950 . S
H196 C180 0.951 . S
H197 C182 0.951 . S
H198 C184 0.951 . S
H199 C185 0.950 . S
H200 C186 0.950 . S
H201 C187 0.950 . S
H202 C189 0.950 . S
H203 C190 0.951 . S
C204 C205 1.386 1_545 S
C204 C206 1.383 . S
C204 H220 0.951 . S
C205 C204 1.386 1_565 S
C205 C209 1.383 . S
C206 C204 1.383 . S
C206 C207 1.402 1_545 S
C206 H221 0.951 . S
C207 C206 1.402 1_565 S
C207 C208 1.375 . S
C207 C210 1.500 . S
C208 C207 1.375 . S
C208 C209 1.367 . S
C208 H222 0.951 . S
C209 C205 1.383 . S
C209 C208 1.367 . S
C209 H223 0.950 . S
C210 C207 1.500 . S
C210 C211 1.267 1_565 S
C210 H224 0.963 . S
C211 C210 1.267 1_545 S
C211 C212 1.479 . S
C211 H225 0.950 . S
C212 C211 1.479 . S
C212 C213 1.375 . S
C212 C218 1.403 1_545 S
C213 C212 1.375 . S
C213 C214 1.369 . S
C213 H226 0.950 . S
C214 C213 1.369 . S
C214 C215 1.392 . S
C214 H227 0.951 . S
C215 C214 1.392 . S
C215 C217 1.384 1_545 S
H216 C218 0.951 . S
C217 C215 1.384 1_565 S
C217 C218 1.383 . S
C217 H219 0.950 . S
C218 C212 1.403 1_565 S
C218 H216 0.951 . S
C218 C217 1.383 . S
H219 C217 0.950 . S
H220 C204 0.951 . S
H221 C206 0.951 . S
H222 C208 0.951 . S
H223 C209 0.950 . S
H224 C210 0.963 . S
H225 C211 0.950 . S
H226 C213 0.950 . S
H227 C214 0.951 . S
C228 C229 1.386 . S
C228 C230 1.383 . S
C228 H244 0.951 . S
C229 C228 1.386 . S
C229 C233 1.383 . S
C230 C228 1.383 . S
C230 C231 1.402 . S
C230 H245 0.951 . S
C231 C230 1.402 . S
C231 C232 1.375 . S
C231 C234 1.481 . S
C232 C231 1.375 . S
C232 C233 1.367 . S
C232 H246 0.951 . S
C233 C229 1.383 . S
C233 C232 1.367 . S
C233 H247 0.950 . S
C234 C231 1.481 . S
C234 C235 1.297 . S
C234 H248 0.950 . S
C235 C234 1.297 . S
C235 C236 1.479 . S
C235 H249 0.950 . S
C236 C235 1.479 . S
C236 C237 1.375 . S
C236 C242 1.404 . S
C237 C236 1.375 . S
C237 C238 1.369 . S
C237 H250 0.950 . S
C238 C237 1.369 . S
C238 C239 1.392 . S
C238 H251 0.951 . S
C239 C238 1.392 . S
C239 C241 1.384 . S
H240 C242 0.949 . S
C241 C239 1.384 . S
C241 C242 1.385 . S
C241 H243 0.950 . S
C242 C236 1.404 . S
C242 H240 0.949 . S
C242 C241 1.385 . S
H243 C241 0.950 . S
H244 C228 0.951 . S
H245 C230 0.951 . S
H246 C232 0.951 . S
H247 C233 0.950 . S
H248 C234 0.950 . S
H249 C235 0.950 . S
H250 C237 0.950 . S
H251 C238 0.951 . S
C252 C253 1.386 1_655 S
C252 C254 1.383 . S
C252 H268 0.951 . S
C253 C252 1.386 1_455 S
C253 C257 1.383 . S
C254 C252 1.383 . S
C254 C255 1.402 1_655 S
C254 H269 0.951 . S
C255 C254 1.402 1_455 S
C255 C256 1.375 . S
C255 C258 1.481 . S
C256 C255 1.375 . S
C256 C257 1.367 . S
C256 H270 0.951 . S
C257 C253 1.383 . S
C257 C256 1.367 . S
C257 H271 0.950 . S
C258 C255 1.481 . S
C258 C259 1.297 1_455 S
C258 H272 0.950 . S
C259 C258 1.297 1_655 S
C259 C260 1.479 . S
C259 H273 0.950 . S
C260 C259 1.479 . S
C260 C261 1.375 . S
C260 C266 1.404 1_655 S
C261 C260 1.375 . S
C261 C262 1.369 . S
C261 H274 0.950 . S
C262 C261 1.369 . S
C262 C263 1.392 . S
C262 H275 0.951 . S
C263 C262 1.392 . S
C263 C265 1.384 1_655 S
H264 C266 0.949 . S
C265 C263 1.384 1_455 S
C265 C266 1.385 . S
C265 H267 0.950 . S
C266 C260 1.404 1_455 S
C266 H264 0.949 . S
C266 C265 1.385 . S
H267 C265 0.950 . S
H268 C252 0.951 . S
H269 C254 0.951 . S
H270 C256 0.951 . S
H271 C257 0.950 . S
H272 C258 0.950 . S
H273 C259 0.950 . S
H274 C261 0.950 . S
H275 C262 0.951 . S
C276 C277 1.386 . S
C276 C278 1.383 . S
C276 H292 0.951 . S
C277 C276 1.386 . S
C277 C281 1.383 1_655 S
C278 C276 1.383 . S
C278 C279 1.402 . S
C278 H293 0.951 . S
C279 C278 1.402 . S
C279 C280 1.375 1_655 S
C279 C282 1.481 . S
C280 C279 1.375 1_455 S
C280 C281 1.367 . S
C280 H294 0.951 . S
C281 C277 1.383 1_455 S
C281 C280 1.367 . S
C281 H295 0.950 . S
C282 C279 1.481 . S
C282 C283 1.297 . S
C282 H296 0.950 1_655 S
C283 C282 1.297 . S
C283 C284 1.479 . S
C283 H297 0.950 . S
C284 C283 1.479 . S
C284 C285 1.375 . S
C284 C290 1.404 . S
C285 C284 1.375 . S
C285 C286 1.369 . S
C285 H298 0.950 . S
C286 C285 1.369 . S
C286 C287 1.392 . S
C286 H299 0.951 . S
C287 C286 1.392 . S
C287 C289 1.384 1_655 S
H288 C290 0.949 1_455 S
C289 C287 1.384 1_455 S
C289 C290 1.385 1_455 S
C289 H291 0.950 . S
C290 C284 1.404 . S
C290 H288 0.949 1_655 S
C290 C289 1.385 1_655 S
H291 C289 0.950 . S
H292 C276 0.951 . S
H293 C278 0.951 . S
H294 C280 0.951 . S
H295 C281 0.950 . S
H296 C282 0.950 1_455 S
H297 C283 0.950 . S
H298 C285 0.950 . S
H299 C286 0.951 . S
C300 C301 1.399 . S
C300 C302 1.383 . S
C300 H316 0.951 . S
C301 C300 1.399 . S
C301 C305 1.367 1_545 S
C302 C300 1.383 . S
C302 C303 1.402 1_545 S
C302 H317 0.951 . S
C303 C302 1.402 1_565 S
C303 C304 1.375 . S
C303 C306 1.481 . S
C304 C303 1.375 . S
C304 C305 1.367 . S
C304 H318 0.951 . S
C305 C301 1.367 1_565 S
C305 C304 1.367 . S
C305 H319 0.950 . S
C306 C303 1.481 . S
C306 C307 1.297 . S
C306 H320 0.950 . S
C307 C306 1.297 . S
C307 C308 1.479 . S
C307 H321 0.950 . S
C308 C307 1.479 . S
C308 C309 1.375 1_565 S
C308 C314 1.404 . S
C309 C308 1.375 1_545 S
C309 C310 1.369 . S
C309 H322 0.950 . S
C310 C309 1.369 . S
C310 C311 1.392 1_545 S
C310 H323 0.951 . S
C311 C310 1.392 1_565 S
C311 C313 1.384 . S
H312 C314 0.949 . S
C313 C311 1.384 . S
C313 C314 1.385 . S
C313 H315 0.950 . S
C314 C308 1.404 . S
C314 H312 0.949 . S
C314 C313 1.385 . S
H315 C313 0.950 . S
H316 C300 0.951 . S
H317 C302 0.951 . S
H318 C304 0.951 . S
H319 C305 0.950 . S
H320 C306 0.950 . S
H321 C307 0.950 . S
H322 C309 0.950 . S
H323 C310 0.951 . S
C324 C325 1.386 . S
C324 C326 1.383 . S
C324 H340 0.951 . S
C325 C324 1.386 . S
C325 C329 1.383 . S
C326 C324 1.383 . S
C326 C327 1.402 . S
C326 H341 0.951 . S
C327 C326 1.402 . S
C327 C328 1.375 . S
C327 C330 1.481 . S
C328 C327 1.375 . S
C328 C329 1.367 . S
C328 H342 0.951 . S
C329 C325 1.383 . S
C329 C328 1.367 . S
C329 H343 0.950 . S
C330 C327 1.481 . S
C330 C331 1.297 . S
C330 H344 0.950 . S
C331 C330 1.297 . S
C331 C332 1.479 . S
C331 H345 0.950 . S
C332 C331 1.479 . S
C332 C333 1.375 . S
C332 C338 1.404 . S
C333 C332 1.375 . S
C333 C334 1.369 . S
C333 H346 0.950 . S
C334 C333 1.369 . S
C334 C335 1.392 . S
C334 H347 0.951 . S
C335 C334 1.392 . S
C335 C337 1.384 . S
H336 C338 0.949 . S
C337 C335 1.384 . S
C337 C338 1.385 . S
C337 H339 0.950 . S
C338 C332 1.404 . S
C338 H336 0.949 . S
C338 C337 1.385 . S
H339 C337 0.950 . S
H340 C324 0.951 . S
H341 C326 0.951 . S
H342 C328 0.951 . S
H343 C329 0.950 . S
H344 C330 0.950 . S
H345 C331 0.950 . S
H346 C333 0.950 . S
H347 C334 0.951 . S
C348 C349 1.386 . S
C348 C350 1.383 . S
C348 H364 0.951 . S
C349 C348 1.386 . S
C349 C353 1.383 1_455 S
C350 C348 1.383 . S
C350 C351 1.402 . S
C350 H365 0.951 . S
C351 C350 1.402 . S
C351 C352 1.375 1_455 S
C351 C354 1.481 . S
C352 C351 1.375 1_655 S
C352 C353 1.367 . S
C352 H366 0.951 . S
C353 C349 1.383 1_655 S
C353 C352 1.367 . S
C353 H367 0.950 . S
C354 C351 1.481 . S
C354 C355 1.297 . S
C354 H368 0.950 1_455 S
C355 C354 1.297 . S
C355 C356 1.479 . S
C355 H369 0.950 . S
C356 C355 1.479 . S
C356 C357 1.375 . S
C356 C362 1.404 . S
C357 C356 1.375 . S
C357 C358 1.369 . S
C357 H370 0.950 . S
C358 C357 1.369 . S
C358 C359 1.392 . S
C358 H371 0.951 . S
C359 C358 1.392 . S
C359 C361 1.394 1_455 S
H360 C362 0.949 . S
C361 C359 1.394 1_655 S
C361 C362 1.382 1_655 S
C361 H363 0.945 . S
C362 C356 1.404 . S
C362 H360 0.949 . S
C362 C361 1.382 1_455 S
H363 C361 0.945 . S
H364 C348 0.951 . S
H365 C350 0.951 . S
H366 C352 0.951 . S
H367 C353 0.950 . S
H368 C354 0.950 1_655 S
H369 C355 0.950 . S
H370 C357 0.950 . S
H371 C358 0.951 . S
C372 C373 1.386 1_545 S
C372 C374 1.383 . S
C372 H388 0.951 . S
C373 C372 1.386 1_565 S
C373 C377 1.383 . S
C374 C372 1.383 . S
C374 C375 1.402 1_545 S
C374 H389 0.951 . S
C375 C374 1.402 1_565 S
C375 C376 1.375 . S
C375 C378 1.481 . S
C376 C375 1.375 . S
C376 C377 1.367 . S
C376 H390 0.951 . S
C377 C373 1.383 . S
C377 C376 1.367 . S
C377 H391 0.950 . S
C378 C375 1.481 . S
C378 C379 1.297 . S
C378 H392 0.950 . S
C379 C378 1.297 . S
C379 C380 1.479 . S
C379 H393 0.950 . S
C380 C379 1.479 . S
C380 C381 1.375 1_565 S
C380 C386 1.404 . S
C381 C380 1.375 1_545 S
C381 C382 1.369 . S
C381 H394 0.950 . S
C382 C381 1.369 . S
C382 C383 1.372 1_545 S
C382 H395 0.951 . S
C383 C382 1.372 1_565 S
C383 C385 1.407 . S
H384 C386 0.949 . S
C385 C383 1.407 . S
C385 C386 1.385 . S
C385 H387 0.950 . S
C386 C380 1.404 . S
C386 H384 0.949 . S
C386 C385 1.385 . S
H387 C385 0.950 . S
H388 C372 0.951 . S
H389 C374 0.951 . S
H390 C376 0.951 . S
H391 C377 0.950 . S
H392 C378 0.950 . S
H393 C379 0.950 . S
H394 C381 0.950 . S
H395 C382 0.951 . S
C396 C397 1.386 . S
C396 C398 1.383 . S
C396 H412 0.951 . S
C397 C396 1.386 . S
C397 C401 1.383 . S
C398 C396 1.383 . S
C398 C399 1.402 . S
C398 H413 0.951 . S
C399 C398 1.402 . S
C399 C400 1.375 . S
C399 C402 1.481 . S
C400 C399 1.375 . S
C400 C401 1.367 . S
C400 H414 0.951 . S
C401 C397 1.383 . S
C401 C400 1.367 . S
C401 H415 0.950 . S
C402 C399 1.481 . S
C402 C403 1.297 . S
C402 H416 0.950 . S
C403 C402 1.297 . S
C403 C404 1.479 . S
C403 H417 0.950 . S
C404 C403 1.479 . S
C404 C405 1.375 . S
C404 C410 1.404 . S
C405 C404 1.375 . S
C405 C406 1.369 . S
C405 H418 0.950 . S
C406 C405 1.369 . S
C406 C407 1.392 . S
C406 H419 0.951 . S
C407 C406 1.392 . S
C407 C409 1.384 . S
H408 C410 0.949 . S
C409 C407 1.384 . S
C409 C410 1.385 . S
C409 H411 0.950 . S
C410 C404 1.404 . S
C410 H408 0.949 . S
C410 C409 1.385 . S
H411 C409 0.950 . S
H412 C396 0.951 . S
H413 C398 0.951 . S
H414 C400 0.951 . S
H415 C401 0.950 . S
H416 C402 0.950 . S
H417 C403 0.950 . S
H418 C405 0.950 . S
H419 C406 0.951 . S
C420 C421 1.386 . S
C420 C422 1.383 . S
C420 H436 0.951 . S
C421 C420 1.386 . S
C421 C425 1.383 . S
C422 C420 1.383 . S
C422 C423 1.402 . S
C422 H437 0.951 . S
C423 C422 1.402 . S
C423 C424 1.375 . S
C423 C426 1.481 . S
C424 C423 1.375 . S
C424 C425 1.367 . S
C424 H438 0.951 . S
C425 C421 1.383 . S
C425 C424 1.367 . S
C425 H439 0.950 . S
C426 C423 1.481 . S
C426 C427 1.296 . S
C426 H440 0.950 . S
C427 C426 1.296 . S
C427 C428 1.481 1_556 S
C427 H441 0.948 1_556 S
C428 C427 1.481 1_554 S
C428 C429 1.375 . S
C428 C434 1.404 . S
C429 C428 1.375 . S
C429 C430 1.369 . S
C429 H442 0.950 . S
C430 C429 1.369 . S
C430 C431 1.392 . S
C430 H443 0.951 . S
C431 C430 1.392 . S
C431 C433 1.384 . S
H432 C434 0.893 1_556 S
C433 C431 1.384 . S
C433 C434 1.385 . S
C433 H435 0.950 . S
C434 C428 1.404 . S
C434 H432 0.893 1_554 S
C434 C433 1.385 . S
H435 C433 0.950 . S
H436 C420 0.951 . S
H437 C422 0.951 . S
H438 C424 0.951 . S
H439 C425 0.950 . S
H440 C426 0.950 . S
H441 C427 0.948 1_554 S
H442 C429 0.950 . S
H443 C430 0.951 . S
C444 C445 1.386 . S
C444 C446 1.383 . S
C444 H460 0.951 . S
C445 C444 1.386 . S
C445 C449 1.383 . S
C446 C444 1.383 . S
C446 C447 1.402 . S
C446 H461 0.951 . S
C447 C446 1.402 . S
C447 C448 1.375 . S
C447 C450 1.481 . S
C448 C447 1.375 . S
C448 C449 1.367 . S
C448 H462 0.951 . S
C449 C445 1.383 . S
C449 C448 1.367 . S
C449 H463 0.950 . S
C450 C447 1.481 . S
C450 C451 1.297 . S
C450 H464 0.950 . S
C451 C450 1.297 . S
C451 C452 1.479 . S
C451 H465 0.950 . S
C452 C451 1.479 . S
C452 C453 1.375 . S
C452 C458 1.404 . S
C453 C452 1.375 . S
C453 C454 1.369 . S
C453 H466 0.950 . S
C454 C453 1.369 . S
C454 C455 1.392 . S
C454 H467 0.951 . S
C455 C454 1.392 . S
C455 C457 1.384 . S
H456 C458 0.949 . S
C457 C455 1.384 . S
C457 C458 1.385 . S
C457 H459 0.950 . S
C458 C452 1.404 . S
C458 H456 0.949 . S
C458 C457 1.385 . S
H459 C457 0.950 . S
H460 C444 0.951 . S
H461 C446 0.951 . S
H462 C448 0.951 . S
H463 C449 0.950 . S
H464 C450 0.950 . S
H465 C451 0.950 . S
H466 C453 0.950 . S
H467 C454 0.951 . S
C468 C469 1.386 . S
C468 C470 1.383 . S
C468 H484 0.951 . S
C469 C468 1.386 . S
C469 C473 1.383 . S
C470 C468 1.383 . S
C470 C471 1.402 . S
C470 H485 0.951 . S
C471 C470 1.402 . S
C471 C472 1.375 . S
C471 C474 1.481 . S
C472 C471 1.375 . S
C472 C473 1.367 . S
C472 H486 0.951 . S
C473 C469 1.383 . S
C473 C472 1.367 . S
C473 H487 0.950 . S
C474 C471 1.481 . S
C474 C475 1.297 . S
C474 H488 0.950 . S
C475 C474 1.297 . S
C475 C476 1.479 . S
C475 H489 0.950 . S
C476 C475 1.479 . S
C476 C477 1.375 . S
C476 C482 1.404 . S
C477 C476 1.375 . S
C477 C478 1.369 . S
C477 H490 0.950 . S
C478 C477 1.369 . S
C478 C479 1.392 . S
C478 H491 0.951 . S
C479 C478 1.392 . S
C479 C481 1.384 . S
H480 C482 0.949 . S
C481 C479 1.384 . S
C481 C482 1.385 . S
C481 H483 0.950 . S
C482 C476 1.404 . S
C482 H480 0.949 . S
C482 C481 1.385 . S
H483 C481 0.950 . S
H484 C468 0.951 . S
H485 C470 0.951 . S
H486 C472 0.951 . S
H487 C473 0.950 . S
H488 C474 0.950 . S
H489 C475 0.950 . S
H490 C477 0.950 . S
H491 C478 0.951 . S
C492 C493 1.386 . S
C492 C494 1.383 . S
C492 H508 0.951 . S
C493 C492 1.386 . S
C493 C497 1.383 . S
C494 C492 1.383 . S
C494 C495 1.402 . S
C494 H509 0.951 . S
C495 C494 1.402 . S
C495 C496 1.375 . S
C495 C498 1.481 . S
C496 C495 1.375 . S
C496 C497 1.367 . S
C496 H510 0.951 . S
C497 C493 1.383 . S
C497 C496 1.367 . S
C497 H511 0.950 . S
C498 C495 1.481 . S
C498 C499 1.297 1_554 S
C498 H512 0.950 . S
C499 C498 1.297 1_556 S
C499 C500 1.479 . S
C499 H513 0.950 . S
C500 C499 1.479 . S
C500 C501 1.375 . S
C500 C506 1.404 . S
C501 C500 1.375 . S
C501 C502 1.369 . S
C501 H514 0.950 . S
C502 C501 1.369 . S
C502 C503 1.392 . S
C502 H515 0.951 . S
C503 C502 1.392 . S
C503 C505 1.384 . S
H504 C506 0.949 1_554 S
C505 C503 1.384 . S
C505 C506 1.385 . S
C505 H507 0.950 . S
C506 C500 1.404 . S
C506 H504 0.949 1_556 S
C506 C505 1.385 . S
H507 C505 0.950 . S
H508 C492 0.951 . S
H509 C494 0.951 . S
H510 C496 0.951 . S
H511 C497 0.950 . S
H512 C498 0.950 . S
H513 C499 0.950 . S
H514 C501 0.950 . S
H515 C502 0.951 . S
C516 C517 1.386 . S
C516 C518 1.383 . S
C516 H532 0.951 . S
C517 C516 1.386 . S
C517 C521 1.383 . S
C518 C516 1.383 . S
C518 C519 1.402 . S
C518 H533 0.951 . S
C519 C518 1.402 . S
C519 C520 1.375 . S
C519 C522 1.481 . S
C520 C519 1.375 . S
C520 C521 1.367 . S
C520 H534 0.951 . S
C521 C517 1.383 . S
C521 C520 1.367 . S
C521 H535 0.950 . S
C522 C519 1.481 . S
C522 C523 1.297 . S
C522 H536 0.950 . S
C523 C522 1.297 . S
C523 C524 1.479 . S
C523 H537 0.950 . S
C524 C523 1.479 . S
C524 C525 1.375 . S
C524 C530 1.404 . S
C525 C524 1.375 . S
C525 C526 1.369 . S
C525 H538 0.950 . S
C526 C525 1.369 . S
C526 C527 1.392 . S
C526 H539 0.951 . S
C527 C526 1.392 . S
C527 C529 1.384 . S
H528 C530 0.949 . S
C529 C527 1.384 . S
C529 C530 1.385 . S
C529 H531 0.950 . S
C530 C524 1.404 . S
C530 H528 0.949 . S
C530 C529 1.385 . S
H531 C529 0.950 . S
H532 C516 0.951 . S
H533 C518 0.951 . S
H534 C520 0.951 . S
H535 C521 0.950 . S
H536 C522 0.950 . S
H537 C523 0.950 . S
H538 C525 0.950 . S
H539 C526 0.951 . S
C540 C541 1.386 . S
C540 C542 1.383 . S
C540 H556 0.951 . S
C541 C540 1.386 . S
C541 C545 1.383 . S
C542 C540 1.383 . S
C542 C543 1.402 . S
C542 H557 0.951 . S
C543 C542 1.402 . S
C543 C544 1.375 . S
C543 C546 1.481 . S
C544 C543 1.375 . S
C544 C545 1.367 . S
C544 H558 0.951 . S
C545 C541 1.383 . S
C545 C544 1.367 . S
C545 H559 0.950 . S
C546 C543 1.481 . S
C546 C547 1.297 . S
C546 H560 0.950 . S
C547 C546 1.297 . S
C547 C548 1.479 . S
C547 H561 0.950 . S
C548 C547 1.479 . S
C548 C549 1.375 . S
C548 C554 1.404 . S
C549 C548 1.375 . S
C549 C550 1.369 . S
C549 H562 0.950 . S
C550 C549 1.369 . S
C550 C551 1.392 . S
C550 H563 0.951 . S
C551 C550 1.392 . S
C551 C553 1.384 . S
H552 C554 0.949 . S
C553 C551 1.384 . S
C553 C554 1.385 . S
C553 H555 0.950 . S
C554 C548 1.404 . S
C554 H552 0.949 . S
C554 C553 1.385 . S
H555 C553 0.950 . S
H556 C540 0.951 . S
H557 C542 0.951 . S
H558 C544 0.951 . S
H559 C545 0.950 . S
H560 C546 0.950 . S
H561 C547 0.950 . S
H562 C549 0.950 . S
H563 C550 0.951 . S
C133 C40 1.514 . S
C143 C7 1.555 . S
C157 C18 1.581 . S
C167 C51 1.488 . S
C181 C62 1.517 . S
C191 C29 1.546 . S
C205 C73 1.551 . S
C215 C106 1.489 . S
C229 C117 1.578 . S
C239 C84 1.516 . S
C253 C95 1.524 . S
C263 C128 1.531 . S
C277 C126 1.251 . S
C287 C5 1.351 1_655 S
C301 C16 1.372 . S
C311 C71 1.191 . S
C325 C27 1.259 . S
C335 C82 1.333 . S
C349 C93 1.247 . S
C359 C38 1.363 1_455 S
C373 C49 1.246 . S
C383 C104 1.395 1_565 S
C397 C115 1.362 . S
C407 C60 1.222 . S
C421 C118 1.624 . S
C431 C8 1.620 . S
C445 C129 1.608 . S
C455 C19 1.586 . S
C469 C30 1.653 . S
C479 C74 1.660 . S
C493 C41 1.618 . S
C503 C85 1.609 . S
C517 C52 1.618 . S
C527 C96 1.594 . S
C541 C63 1.615 . S
C551 C107 1.603 . S
