# Generated by pormake.
# Topology gis, (4)-cn, num edge types: 1
# Building blocks:
#     Node 0, Type 0, BuildingBlock: UXUYUI_clean_sbu_0, # of connection points: 4
#     Node 1, Type 0, BuildingBlock: UXUYUI_clean_sbu_0, # of connection points: 4
#     Node 2, Type 0, BuildingBlock: UXUYUI_clean_sbu_0, # of connection points: 4
#     Node 3, Type 0, BuildingBlock: UXUYUI_clean_sbu_0, # of connection points: 4
#     Node 4, Type 0, BuildingBlock: UXUYUI_clean_sbu_0, # of connection points: 4
#     Node 5, Type 0, BuildingBlock: UXUYUI_clean_sbu_0, # of connection points: 4
#     Node 6, Type 0, BuildingBlock: UXUYUI_clean_sbu_0, # of connection points: 4
#     Node 7, Type 0, BuildingBlock: UXUYUI_clean_sbu_0, # of connection points: 4
#     Node 8, Type 0, BuildingBlock: UXUYUI_clean_sbu_0, # of connection points: 4
#     Node 9, Type 0, BuildingBlock: UXUYUI_clean_sbu_0, # of connection points: 4
#     Node 10, Type 0, BuildingBlock: UXUYUI_clean_sbu_0, # of connection points: 4
#     Node 11, Type 0, BuildingBlock: UXUYUI_clean_sbu_0, # of connection points: 4
#     Node 12, Type 0, BuildingBlock: UXUYUI_clean_sbu_0, # of connection points: 4
#     Node 13, Type 0, BuildingBlock: UXUYUI_clean_sbu_0, # of connection points: 4
#     Node 14, Type 0, BuildingBlock: UXUYUI_clean_sbu_0, # of connection points: 4
#     Node 15, Type 0, BuildingBlock: UXUYUI_clean_sbu_0, # of connection points: 4
#     Edge 16, Type (0, 0), BuildingBlock: CIFDUS_clean_linker_0, # of connection points: 2
#     Edge 17, Type (0, 0), BuildingBlock: CIFDUS_clean_linker_0, # of connection points: 2
#     Edge 18, Type (0, 0), BuildingBlock: CIFDUS_clean_linker_0, # of connection points: 2
#     Edge 19, Type (0, 0), BuildingBlock: CIFDUS_clean_linker_0, # of connection points: 2
#     Edge 20, Type (0, 0), BuildingBlock: CIFDUS_clean_linker_0, # of connection points: 2
#     Edge 21, Type (0, 0), BuildingBlock: CIFDUS_clean_linker_0, # of connection points: 2
#     Edge 22, Type (0, 0), BuildingBlock: CIFDUS_clean_linker_0, # of connection points: 2
#     Edge 23, Type (0, 0), BuildingBlock: CIFDUS_clean_linker_0, # of connection points: 2
#     Edge 24, Type (0, 0), BuildingBlock: CIFDUS_clean_linker_0, # of connection points: 2
#     Edge 25, Type (0, 0), BuildingBlock: CIFDUS_clean_linker_0, # of connection points: 2
#     Edge 26, Type (0, 0), BuildingBlock: CIFDUS_clean_linker_0, # of connection points: 2
#     Edge 27, Type (0, 0), BuildingBlock: CIFDUS_clean_linker_0, # of connection points: 2
#     Edge 28, Type (0, 0), BuildingBlock: CIFDUS_clean_linker_0, # of connection points: 2
#     Edge 29, Type (0, 0), BuildingBlock: CIFDUS_clean_linker_0, # of connection points: 2
#     Edge 30, Type (0, 0), BuildingBlock: CIFDUS_clean_linker_0, # of connection points: 2
#     Edge 31, Type (0, 0), BuildingBlock: CIFDUS_clean_linker_0, # of connection points: 2
#     Edge 32, Type (0, 0), BuildingBlock: CIFDUS_clean_linker_0, # of connection points: 2
#     Edge 33, Type (0, 0), BuildingBlock: CIFDUS_clean_linker_0, # of connection points: 2
#     Edge 34, Type (0, 0), BuildingBlock: CIFDUS_clean_linker_0, # of connection points: 2
#     Edge 35, Type (0, 0), BuildingBlock: CIFDUS_clean_linker_0, # of connection points: 2
#     Edge 36, Type (0, 0), BuildingBlock: CIFDUS_clean_linker_0, # of connection points: 2
#     Edge 37, Type (0, 0), BuildingBlock: CIFDUS_clean_linker_0, # of connection points: 2
#     Edge 38, Type (0, 0), BuildingBlock: CIFDUS_clean_linker_0, # of connection points: 2
#     Edge 39, Type (0, 0), BuildingBlock: CIFDUS_clean_linker_0, # of connection points: 2
#     Edge 40, Type (0, 0), BuildingBlock: CIFDUS_clean_linker_0, # of connection points: 2
#     Edge 41, Type (0, 0), BuildingBlock: CIFDUS_clean_linker_0, # of connection points: 2
#     Edge 42, Type (0, 0), BuildingBlock: CIFDUS_clean_linker_0, # of connection points: 2
#     Edge 43, Type (0, 0), BuildingBlock: CIFDUS_clean_linker_0, # of connection points: 2
#     Edge 44, Type (0, 0), BuildingBlock: CIFDUS_clean_linker_0, # of connection points: 2
#     Edge 45, Type (0, 0), BuildingBlock: CIFDUS_clean_linker_0, # of connection points: 2
#     Edge 46, Type (0, 0), BuildingBlock: CIFDUS_clean_linker_0, # of connection points: 2
#     Edge 47, Type (0, 0), BuildingBlock: CIFDUS_clean_linker_0, # of connection points: 2
# Relax obj value: 0.245
# Max RMSD: 0.177
# Mean RMSD: 0.176
data_MOF--net-gis--node1-UXUYUI_clean_sbu_0--edge1-CIFDUS_clean_linker_0
_symmetry_space_group_name_H-M    P1
_symmetry_Int_Tables_number       1
_symmetry_cell_setting            triclinic
loop_
_symmetry_equiv_pos_as_xyz
'x, y, z'
_cell_length_a     61.752685
_cell_length_b     61.738987
_cell_length_c     65.796029
_cell_angle_alpha  90.030227
_cell_angle_beta   89.987291
_cell_angle_gamma 90.019435
loop_
_atom_site_label
_atom_site_type_symbol
_atom_site_fract_x
_atom_site_fract_y
_atom_site_fract_z
_atom_type_partial_charge
Li0 Li 0.16674 0.60851 0.11821 0.0
Li1 Li 0.17653 0.57653 0.13837 0.0
Li2 Li 0.17299 0.57414 0.1028 0.0
Li3 Li 0.14135 0.57873 0.12253 0.0
C4 C 0.20954 0.59482 0.10311 0.0
N5 N 0.23984 0.59921 0.07247 0.0
C6 C 0.22958 0.58442 0.10461 0.0
C7 C 0.20495 0.60751 0.08606 0.0
C8 C 0.24467 0.58683 0.08895 0.0
C9 C 0.22047 0.60951 0.07073 0.0
C10 C 0.15768 0.6119 0.15932 0.0
C11 C 0.14622 0.63335 0.188 0.0
N12 N 0.16692 0.64035 0.19055 0.0
C13 C 0.17885 0.61934 0.16219 0.0
C14 C 0.14122 0.61897 0.17228 0.0
C15 C 0.18319 0.63371 0.17808 0.0
C16 C 0.14906 0.64979 0.11764 0.0
N17 N 0.16825 0.63907 0.11712 0.0
C18 C 0.18785 0.67241 0.11843 0.0
C19 C 0.18748 0.64981 0.1175 0.0
C20 C 0.16825 0.68389 0.11935 0.0
C21 C 0.14867 0.67233 0.11881 0.0
H22 H 0.13406 0.64072 0.11759 0.0
H23 H 0.2025 0.64083 0.1176 0.0
C24 C 0.21124 0.55589 0.15694 0.0
N25 N 0.1923 0.56617 0.16102 0.0
C26 C 0.22496 0.54974 0.17274 0.0
C27 C 0.19858 0.5634 0.19671 0.0
C28 C 0.18541 0.56933 0.18042 0.0
C29 C 0.21892 0.55404 0.19291 0.0
H30 H 0.21587 0.5529 0.14136 0.0
H31 H 0.17 0.57702 0.18329 0.0
C32 C 0.13588 0.58717 0.08168 0.0
N33 N 0.10959 0.57264 0.05054 0.0
C34 C 0.13205 0.565 0.0792 0.0
C35 C 0.12629 0.60194 0.06835 0.0
C36 C 0.11873 0.55798 0.06336 0.0
C37 C 0.11306 0.59428 0.0527 0.0
C38 C 0.15394 0.53833 0.13638 0.0
C39 C 0.15663 0.51635 0.132 0.0
C40 C 0.14353 0.54452 0.15435 0.0
C41 C 0.14886 0.50089 0.14567 0.0
C42 C 0.136 0.52857 0.16764 0.0
N43 N 0.13879 0.50727 0.16306 0.0
C44 C 0.19488 0.5402 0.08468 0.0
C45 C 0.18178 0.56577 0.06078 0.0
C46 C 0.20132 0.52634 0.0691 0.0
N47 N 0.18473 0.55912 0.08027 0.0
C48 C 0.1878 0.55232 0.04471 0.0
C49 C 0.19706 0.53198 0.04882 0.0
H50 H 0.19719 0.53552 0.10038 0.0
H51 H 0.17385 0.58104 0.05773 0.0
C52 C 0.0988 0.59038 0.12998 0.0
N53 N 0.11129 0.57308 0.12505 0.0
C54 C 0.07638 0.58822 0.13128 0.0
C55 C 0.08009 0.55034 0.12255 0.0
C56 C 0.10247 0.55329 0.12131 0.0
C57 C 0.0667 0.56799 0.12751 0.0
H58 H 0.1063 0.60598 0.13257 0.0
H59 H 0.11276 0.53984 0.11714 0.0
O60 O 0.19432 0.59237 0.11806 0.0
O61 O 0.15289 0.59802 0.14374 0.0
O62 O 0.14883 0.59457 0.09707 0.0
O63 O 0.1615 0.55353 0.12301 0.0
H64 H 0.2335 0.57463 0.11771 0.0
H65 H 0.18943 0.61548 0.08453 0.0
H66 H 0.26023 0.57885 0.0899 0.0
H67 H 0.21708 0.61919 0.0574 0.0
H68 H 0.13363 0.63894 0.19816 0.0
H69 H 0.19182 0.61408 0.15231 0.0
H70 H 0.12474 0.61341 0.17019 0.0
H71 H 0.1995 0.63958 0.1805 0.0
H72 H 0.20325 0.68078 0.11908 0.0
H73 H 0.13324 0.68064 0.11938 0.0
H74 H 0.24035 0.5422 0.16922 0.0
H75 H 0.19335 0.56709 0.21203 0.0
H76 H 0.13935 0.5533 0.0893 0.0
H77 H 0.12908 0.61916 0.0701 0.0
H78 H 0.11567 0.54088 0.06124 0.0
H79 H 0.10555 0.60553 0.04226 0.0
H80 H 0.16463 0.51131 0.11814 0.0
H81 H 0.14116 0.5614 0.15802 0.0
H82 H 0.15082 0.48382 0.14246 0.0
H83 H 0.1279 0.53313 0.18158 0.0
H84 H 0.20878 0.511 0.07293 0.0
H85 H 0.18403 0.55727 0.02932 0.0
H86 H 0.06671 0.60238 0.13471 0.0
H87 H 0.07336 0.53444 0.11966 0.0
Li88 Li 0.63841 0.91757 0.37336 0.0
Li89 Li 0.67238 0.9241 0.38868 0.0
Li90 Li 0.67218 0.91912 0.35314 0.0
Li91 Li 0.66707 0.88771 0.37765 0.0
C92 C 0.64801 0.95654 0.3547 0.0
N93 N 0.62834 0.98375 0.3269 0.0
C94 C 0.64802 0.97895 0.35781 0.0
C95 C 0.63812 0.94804 0.33733 0.0
C96 C 0.63795 0.99242 0.34362 0.0
C97 C 0.62823 0.96203 0.32349 0.0
C98 C 0.6494 0.90645 0.41846 0.0
C99 C 0.66114 0.89658 0.45215 0.0
N100 N 0.64989 0.91364 0.45988 0.0
C101 C 0.63773 0.92372 0.42674 0.0
C102 C 0.66106 0.89264 0.43123 0.0
C103 C 0.63828 0.92715 0.44773 0.0
C104 C 0.59608 0.903 0.374 0.0
N105 N 0.60801 0.92146 0.37361 0.0
C106 C 0.57595 0.94309 0.37331 0.0
C107 C 0.59849 0.94131 0.37365 0.0
C108 C 0.56316 0.92425 0.37322 0.0
C109 C 0.57353 0.904 0.3738 0.0
H110 H 0.60415 0.88745 0.37434 0.0
H111 H 0.60832 0.95578 0.37388 0.0
C112 C 0.69688 0.93135 0.4253 0.0
N113 N 0.68414 0.94046 0.41077 0.0
C114 C 0.7013 0.94255 0.44326 0.0
C115 C 0.6802 0.97261 0.4306 0.0
C116 C 0.67625 0.96086 0.4129 0.0
C117 C 0.69236 0.96322 0.44632 0.0
H118 H 0.70242 0.91487 0.42362 0.0
H119 H 0.66567 0.96748 0.40143 0.0
C120 C 0.64175 0.88324 0.33822 0.0
N121 N 0.62621 0.85665 0.30769 0.0
C122 C 0.65362 0.86512 0.33203 0.0
C123 C 0.62191 0.88778 0.32888 0.0
C124 C 0.64551 0.8519 0.31657 0.0
C125 C 0.61435 0.87416 0.31348 0.0
C126 C 0.71266 0.91048 0.38056 0.0
C127 C 0.72205 0.93076 0.37719 0.0
C128 C 0.72374 0.89499 0.39203 0.0
C129 C 0.74234 0.93529 0.38556 0.0
C130 C 0.74402 0.90014 0.40012 0.0
N131 N 0.75281 0.92002 0.39675 0.0
C132 C 0.69384 0.94671 0.32578 0.0
C133 C 0.68261 0.91328 0.31152 0.0
C134 C 0.70314 0.95296 0.30734 0.0
N135 N 0.68401 0.92708 0.32755 0.0
C136 C 0.69147 0.91894 0.29279 0.0
C137 C 0.70206 0.93892 0.29059 0.0
H138 H 0.69456 0.95746 0.33874 0.0
H139 H 0.67491 0.89776 0.31327 0.0
C140 C 0.65479 0.84698 0.39213 0.0
N141 N 0.67067 0.85764 0.38193 0.0
C142 C 0.65618 0.82464 0.39507 0.0
C143 C 0.69027 0.82472 0.37696 0.0
C144 C 0.68831 0.84711 0.37452 0.0
C145 C 0.674 0.8132 0.38727 0.0
H146 H 0.64091 0.85584 0.39776 0.0
H147 H 0.70062 0.85605 0.36638 0.0
O148 O 0.65793 0.94321 0.36852 0.0
O149 O 0.6496 0.90321 0.39792 0.0
O150 O 0.64932 0.89624 0.35354 0.0
O151 O 0.69291 0.90565 0.37237 0.0
H152 H 0.65575 0.98591 0.37104 0.0
H153 H 0.63819 0.93087 0.33444 0.0
H154 H 0.63782 0.00977 0.34588 0.0
H155 H 0.62052 0.95561 0.31001 0.0
H156 H 0.67025 0.88616 0.46221 0.0
H157 H 0.62863 0.93454 0.41701 0.0
H158 H 0.67021 0.87923 0.42501 0.0
H159 H 0.62954 0.9406 0.45435 0.0
H160 H 0.56867 0.95903 0.37283 0.0
H161 H 0.56435 0.88906 0.37424 0.0
H162 H 0.71083 0.93475 0.45497 0.0
H163 H 0.67263 0.98831 0.43244 0.0
H164 H 0.66912 0.86152 0.33884 0.0
H165 H 0.61243 0.90168 0.33341 0.0
H166 H 0.65461 0.83789 0.31159 0.0
H167 H 0.59905 0.87751 0.30612 0.0
H168 H 0.71366 0.94292 0.36838 0.0
H169 H 0.71668 0.87923 0.39482 0.0
H170 H 0.74976 0.95096 0.38317 0.0
H171 H 0.75274 0.88835 0.4091 0.0
H172 H 0.71111 0.96854 0.3062 0.0
H173 H 0.69063 0.90749 0.28033 0.0
H174 H 0.64316 0.81634 0.40287 0.0
H175 H 0.70434 0.81652 0.37084 0.0
Li176 Li 0.32416 0.42496 0.60292 0.0
Li177 Li 0.35891 0.41836 0.61975 0.0
Li178 Li 0.33236 0.38919 0.61386 0.0
Li179 Li 0.32546 0.41759 0.6392 0.0
C180 C 0.35592 0.3912 0.58058 0.0
N181 N 0.37097 0.3585 0.5556 0.0
C182 C 0.37794 0.38594 0.58036 0.0
C183 C 0.34159 0.37993 0.56796 0.0
C184 C 0.38522 0.36934 0.56765 0.0
C185 C 0.34951 0.36341 0.5555 0.0
C186 C 0.3502 0.46045 0.62747 0.0
C187 C 0.37384 0.48231 0.64823 0.0
N188 N 0.37581 0.49673 0.63272 0.0
C189 C 0.35239 0.47552 0.61175 0.0
C190 C 0.36092 0.4639 0.64589 0.0
C191 C 0.36543 0.49375 0.61471 0.0
C192 C 0.30125 0.46118 0.58821 0.0
N193 N 0.31082 0.44222 0.58277 0.0
C194 C 0.30621 0.45031 0.54762 0.0
C195 C 0.31294 0.43635 0.56298 0.0
C196 C 0.29751 0.47061 0.55272 0.0
C197 C 0.29449 0.47578 0.57331 0.0
H198 H 0.29991 0.46543 0.60412 0.0
H199 H 0.3208 0.42129 0.55912 0.0
C200 C 0.40165 0.41151 0.63221 0.0
N201 N 0.38901 0.42474 0.62077 0.0
C202 C 0.42399 0.41467 0.63299 0.0
C203 C 0.41996 0.44516 0.6103 0.0
C204 C 0.39771 0.44114 0.60966 0.0
C205 C 0.4335 0.43175 0.62201 0.0
H206 H 0.39445 0.39814 0.64036 0.0
H207 H 0.38743 0.45094 0.6001 0.0
C208 C 0.28573 0.41148 0.6115 0.0
N209 N 0.24696 0.42603 0.59568 0.0
C210 C 0.27349 0.42681 0.62209 0.0
C211 C 0.27823 0.40346 0.59292 0.0
C212 C 0.25392 0.43397 0.61383 0.0
C213 C 0.2586 0.41106 0.58516 0.0
C214 C 0.35146 0.38835 0.65794 0.0
C215 C 0.34331 0.368 0.66325 0.0
C216 C 0.36165 0.40111 0.67265 0.0
C217 C 0.34523 0.36088 0.68332 0.0
C218 C 0.36322 0.39343 0.69256 0.0
N219 N 0.35503 0.37365 0.69744 0.0
C220 C 0.34825 0.34704 0.60953 0.0
C221 C 0.31002 0.34962 0.60725 0.0
C222 C 0.34726 0.32459 0.6076 0.0
N223 N 0.3298 0.359 0.60931 0.0
C224 C 0.30825 0.32713 0.60548 0.0
C225 C 0.32704 0.31428 0.60587 0.0
H226 H 0.36373 0.35496 0.61153 0.0
H227 H 0.2956 0.35953 0.60752 0.0
C228 C 0.31179 0.44347 0.67264 0.0
N229 N 0.3127 0.4231 0.6648 0.0
C230 C 0.30237 0.447 0.69168 0.0
C231 C 0.29509 0.40856 0.694 0.0
C232 C 0.30414 0.40587 0.6748 0.0
C233 C 0.29421 0.42931 0.70261 0.0
H234 H 0.31823 0.45695 0.66409 0.0
H235 H 0.30436 0.39003 0.66783 0.0
O236 O 0.34844 0.40724 0.59309 0.0
O237 O 0.33754 0.44247 0.62487 0.0
O238 O 0.30517 0.40467 0.61908 0.0
O239 O 0.34953 0.39571 0.63841 0.0
H240 H 0.38928 0.39451 0.58996 0.0
H241 H 0.32447 0.38362 0.56808 0.0
H242 H 0.40221 0.36505 0.56739 0.0
H243 H 0.33857 0.35443 0.5458 0.0
H244 H 0.38229 0.48513 0.66239 0.0
H245 H 0.34438 0.47304 0.59733 0.0
H246 H 0.35932 0.45247 0.65824 0.0
H247 H 0.36736 0.50549 0.60264 0.0
H248 H 0.30914 0.44586 0.53193 0.0
H249 H 0.28781 0.49127 0.57782 0.0
H250 H 0.4337 0.40343 0.64171 0.0
H251 H 0.42643 0.45858 0.60163 0.0
H252 H 0.27913 0.43325 0.63644 0.0
H253 H 0.28761 0.39171 0.58447 0.0
H254 H 0.24431 0.4459 0.62181 0.0
H255 H 0.25265 0.40511 0.57073 0.0
H256 H 0.33536 0.35791 0.65207 0.0
H257 H 0.36823 0.41679 0.66875 0.0
H258 H 0.33887 0.34523 0.68768 0.0
H259 H 0.37096 0.40318 0.70413 0.0
H260 H 0.3622 0.3154 0.60766 0.0
H261 H 0.29231 0.31989 0.60449 0.0
H262 H 0.30168 0.46324 0.69789 0.0
H263 H 0.28851 0.39466 0.70193 0.0
Li264 Li 0.82999 0.11036 0.86848 0.0
Li265 Li 0.82432 0.07601 0.84989 0.0
Li266 Li 0.83166 0.07571 0.8863 0.0
Li267 Li 0.85979 0.08486 0.86129 0.0
C268 C 0.78732 0.09883 0.87405 0.0
N269 N 0.74839 0.12058 0.87742 0.0
C270 C 0.77329 0.10003 0.85741 0.0
C271 C 0.78149 0.10858 0.89243 0.0
C272 C 0.75368 0.11111 0.85942 0.0
C273 C 0.76177 0.11956 0.89381 0.0
C274 C 0.85716 0.10896 0.8287 0.0
C275 C 0.88416 0.1026 0.80288 0.0
N276 N 0.88989 0.12386 0.8037 0.0
C277 C 0.8632 0.13077 0.82918 0.0
C278 C 0.8676 0.09477 0.81533 0.0
C279 C 0.87982 0.13798 0.81645 0.0
C280 C 0.84027 0.15235 0.87956 0.0
N281 N 0.82397 0.14049 0.87124 0.0
C282 C 0.80277 0.17247 0.86622 0.0
C283 C 0.8055 0.15007 0.86442 0.0
C284 C 0.81951 0.18501 0.8745 0.0
C285 C 0.83843 0.17477 0.88123 0.0
H286 H 0.85499 0.14444 0.88441 0.0
H287 H 0.79308 0.1405 0.85719 0.0
C288 C 0.79235 0.048 0.83325 0.0
N289 N 0.80787 0.06294 0.8289 0.0
C290 C 0.77945 0.0395 0.81774 0.0
C291 C 0.79878 0.06195 0.79371 0.0
C292 C 0.81136 0.06987 0.80962 0.0
C293 C 0.78241 0.04669 0.79766 0.0
H294 H 0.78971 0.04306 0.84882 0.0
H295 H 0.82347 0.08209 0.80666 0.0
C296 C 0.85873 0.10328 0.90637 0.0
N297 N 0.87048 0.10866 0.94655 0.0
C298 C 0.87919 0.09667 0.913 0.0
C299 C 0.84435 0.11287 0.92008 0.0
C300 C 0.8848 0.09948 0.9334 0.0
C301 C 0.85057 0.11537 0.94036 0.0
C302 C 0.83964 0.0371 0.85768 0.0
C303 C 0.82665 0.02311 0.86909 0.0
C304 C 0.84684 0.03076 0.83844 0.0
C305 C 0.82087 0.00302 0.86093 0.0
C306 C 0.84067 0.01056 0.8308 0.0
N307 N 0.82792 0.99723 0.8421 0.0
C308 C 0.80589 0.06024 0.9189 0.0
C309 C 0.84374 0.05454 0.922 0.0
C310 C 0.80233 0.05091 0.93795 0.0
N311 N 0.82638 0.06212 0.91153 0.0
C312 C 0.84099 0.04558 0.94124 0.0
C313 C 0.8201 0.04383 0.94941 0.0
H314 H 0.79235 0.06604 0.91003 0.0
H315 H 0.85976 0.05566 0.91546 0.0
C316 C 0.90124 0.10261 0.85859 0.0
N317 N 0.88996 0.08386 0.85638 0.0
C318 C 0.92357 0.10292 0.85557 0.0
C319 C 0.92233 0.06451 0.84837 0.0
C320 C 0.89995 0.06498 0.85137 0.0
C321 C 0.93441 0.08367 0.85051 0.0
H322 H 0.89283 0.11728 0.86288 0.0
H323 H 0.89056 0.05029 0.8499 0.0
O324 O 0.80651 0.08794 0.87243 0.0
O325 O 0.84122 0.10149 0.84134 0.0
O326 O 0.8528 0.10029 0.88655 0.0
O327 O 0.84525 0.05693 0.86531 0.0
H328 H 0.77754 0.09263 0.84305 0.0
H329 H 0.79211 0.10771 0.90548 0.0
H330 H 0.7427 0.11223 0.84666 0.0
H331 H 0.75709 0.12725 0.90792 0.0
H332 H 0.8925 0.09176 0.7926 0.0
H333 H 0.85522 0.142 0.83932 0.0
H334 H 0.86316 0.07783 0.81481 0.0
H335 H 0.88473 0.15479 0.81674 0.0
H336 H 0.7881 0.18 0.8606 0.0
H337 H 0.8517 0.18406 0.88757 0.0
H338 H 0.76707 0.02774 0.82148 0.0
H339 H 0.80131 0.06846 0.77861 0.0
H340 H 0.8905 0.08923 0.90255 0.0
H341 H 0.82854 0.1182 0.91512 0.0
H342 H 0.90051 0.0943 0.93879 0.0
H343 H 0.83956 0.12264 0.95118 0.0
H344 H 0.82094 0.02776 0.88401 0.0
H345 H 0.85687 0.04141 0.82941 0.0
H346 H 0.81074 0.99206 0.86954 0.0
H347 H 0.84599 0.0055 0.81587 0.0
H348 H 0.78599 0.0496 0.94383 0.0
H349 H 0.85499 0.0399 0.9496 0.0
H350 H 0.93233 0.11795 0.85769 0.0
H351 H 0.93011 0.04936 0.84442 0.0
Li352 Li 0.13657 0.41923 0.86733 0.0
Li353 Li 0.16707 0.42591 0.8903 0.0
Li354 Li 0.17234 0.42044 0.85325 0.0
Li355 Li 0.16339 0.38964 0.87481 0.0
C356 C 0.1431 0.46145 0.86556 0.0
N357 N 0.11446 0.49563 0.86223 0.0
C358 C 0.13825 0.47416 0.88255 0.0
C359 C 0.13358 0.46627 0.84684 0.0
C360 C 0.12369 0.49135 0.88056 0.0
C361 C 0.11907 0.48357 0.84548 0.0
C362 C 0.1372 0.39819 0.91257 0.0
C363 C 0.14374 0.37715 0.94285 0.0
N364 N 0.12497 0.38474 0.95098 0.0
C365 C 0.11781 0.40553 0.92112 0.0
C366 C 0.15014 0.38367 0.92343 0.0
C367 C 0.11198 0.39866 0.9406 0.0
C368 C 0.09681 0.41219 0.84806 0.0
N369 N 0.10646 0.42387 0.86303 0.0
C370 C 0.07217 0.43748 0.87406 0.0
C371 C 0.09471 0.43664 0.87576 0.0
C372 C 0.06171 0.4249 0.85921 0.0
C373 C 0.07437 0.41254 0.8458 0.0
H374 H 0.10646 0.40193 0.83831 0.0
H375 H 0.10273 0.44546 0.88779 0.0
C376 C 0.19685 0.45078 0.91256 0.0
N377 N 0.17677 0.44173 0.91321 0.0
C378 C 0.20441 0.46309 0.92891 0.0
C379 C 0.17048 0.45643 0.94618 0.0
C380 C 0.16354 0.44445 0.92949 0.0
C381 C 0.19114 0.46594 0.94601 0.0
H382 H 0.20691 0.44851 0.89927 0.0
H383 H 0.14743 0.43776 0.92937 0.0
C384 C 0.1525 0.39277 0.82863 0.0
N385 N 0.15876 0.38275 0.78812 0.0
C386 C 0.16236 0.37325 0.82315 0.0
C387 C 0.14556 0.40706 0.8135 0.0
C388 C 0.16544 0.36851 0.80258 0.0
C389 C 0.14896 0.40175 0.79311 0.0
C390 C 0.20682 0.399 0.88578 0.0
C391 C 0.22511 0.39276 0.8747 0.0
C392 C 0.20655 0.39617 0.90685 0.0
C393 C 0.24261 0.38334 0.88483 0.0
C394 C 0.22437 0.38671 0.91644 0.0
N395 N 0.24187 0.38051 0.90532 0.0
C396 C 0.18957 0.44841 0.82268 0.0
C397 C 0.20215 0.41213 0.82283 0.0
C398 C 0.2027 0.45325 0.80597 0.0
N399 N 0.18956 0.4281 0.83065 0.0
C400 C 0.21532 0.41616 0.80612 0.0
C401 C 0.21585 0.43698 0.79751 0.0
H402 H 0.17948 0.46083 0.82935 0.0
H403 H 0.20178 0.39615 0.82952 0.0
C404 C 0.14692 0.34901 0.88346 0.0
N405 N 0.16558 0.35923 0.8782 0.0
C406 C 0.14613 0.32649 0.88443 0.0
C407 C 0.18383 0.32532 0.87456 0.0
C408 C 0.18392 0.34795 0.87388 0.0
C409 C 0.16464 0.31431 0.87959 0.0
H410 H 0.1325 0.35841 0.88647 0.0
H411 H 0.19835 0.35641 0.86913 0.0
O412 O 0.15717 0.44445 0.86724 0.0
O413 O 0.14307 0.40474 0.89345 0.0
O414 O 0.14968 0.39787 0.84869 0.0
O415 O 0.18959 0.40836 0.87605 0.0
H416 H 0.14555 0.47074 0.89713 0.0
H417 H 0.13728 0.45671 0.83352 0.0
H418 H 0.11971 0.50125 0.8936 0.0
H419 H 0.11149 0.4874 0.83111 0.0
H420 H 0.15364 0.36595 0.95142 0.0
H421 H 0.10745 0.41657 0.91291 0.0
H422 H 0.1648 0.3772 0.91687 0.0
H423 H 0.09712 0.40437 0.94745 0.0
H424 H 0.06301 0.44703 0.88487 0.0
H425 H 0.06697 0.4028 0.834 0.0
H426 H 0.22041 0.47023 0.92823 0.0
H427 H 0.15955 0.45872 0.95889 0.0
H428 H 0.16774 0.36195 0.83463 0.0
H429 H 0.13778 0.42216 0.81748 0.0
H430 H 0.17317 0.35352 0.79812 0.0
H431 H 0.14382 0.41274 0.78126 0.0
H432 H 0.22579 0.39509 0.85844 0.0
H433 H 0.19289 0.40144 0.91579 0.0
H434 H 0.25679 0.37831 0.87641 0.0
H435 H 0.22433 0.38439 0.93273 0.0
H436 H 0.20272 0.46954 0.79989 0.0
H437 H 0.22476 0.40297 0.79986 0.0
H438 H 0.13106 0.3187 0.88862 0.0
H439 H 0.19836 0.31656 0.87041 0.0
Li440 Li 0.82513 0.92816 0.10457 0.0
Li441 Li 0.85607 0.91834 0.12569 0.0
Li442 Li 0.82679 0.89219 0.11929 0.0
Li443 Li 0.8217 0.92392 0.14128 0.0
C444 C 0.85187 0.90652 0.07969 0.0
N445 N 0.86128 0.9105 0.03881 0.0
C446 C 0.87003 0.91827 0.07342 0.0
C447 C 0.83862 0.89662 0.0652 0.0
C448 C 0.87448 0.92014 0.05267 0.0
C449 C 0.84361 0.89887 0.0446 0.0
C450 C 0.8336 0.96398 0.13589 0.0
C451 C 0.83545 0.98763 0.16503 0.0
N452 N 0.82033 0.00073 0.15638 0.0
C453 C 0.8181 0.97768 0.12728 0.0
C454 C 0.8424 0.969 0.15489 0.0
C455 C 0.81161 0.99619 0.13788 0.0
C456 C 0.79761 0.94403 0.0727 0.0
N457 N 0.81747 0.94474 0.08157 0.0
C458 C 0.82996 0.97036 0.05717 0.0
C459 C 0.83339 0.95782 0.0744 0.0
C460 C 0.80971 0.96991 0.04742 0.0
C461 C 0.79334 0.95659 0.05548 0.0
H462 H 0.78509 0.93381 0.07899 0.0
H463 H 0.84889 0.95829 0.08203 0.0
C464 C 0.8988 0.90444 0.12041 0.0
N465 N 0.88657 0.92102 0.12765 0.0
C466 C 0.92133 0.9058 0.12079 0.0
C467 C 0.91826 0.94121 0.13626 0.0
C468 C 0.89575 0.93922 0.13544 0.0
C469 C 0.93138 0.92439 0.12878 0.0
H470 H 0.89098 0.89027 0.1141 0.0
H471 H 0.88562 0.95222 0.14092 0.0
C472 C 0.78388 0.90112 0.11682 0.0
N473 N 0.74728 0.87601 0.1115 0.0
C474 C 0.76961 0.89777 0.13301 0.0
C475 C 0.77949 0.89179 0.09791 0.0
C476 C 0.75119 0.88502 0.13001 0.0
C477 C 0.76093 0.8791 0.09554 0.0
C478 C 0.85888 0.89092 0.1553 0.0
C479 C 0.86608 0.86994 0.15106 0.0
C480 C 0.87046 0.90385 0.16896 0.0
C481 C 0.88488 0.8623 0.16044 0.0
C482 C 0.8892 0.89563 0.178 0.0
N483 N 0.89597 0.8752 0.17358 0.0
C484 C 0.83449 0.85132 0.10256 0.0
C485 C 0.80535 0.85173 0.12604 0.0
C486 C 0.83273 0.82892 0.10043 0.0
N487 N 0.821 0.86221 0.1153 0.0
C488 C 0.80269 0.82935 0.124 0.0
C489 C 0.81676 0.81772 0.11133 0.0
H490 H 0.84715 0.85995 0.09461 0.0
H491 H 0.79536 0.86059 0.13664 0.0
C492 C 0.78885 0.94639 0.16235 0.0
N493 N 0.80696 0.93412 0.16462 0.0
C494 C 0.77713 0.95305 0.17939 0.0
C495 C 0.80327 0.93476 0.2007 0.0
C496 C 0.8144 0.92838 0.18327 0.0
C497 C 0.7842 0.94698 0.19886 0.0
H498 H 0.78329 0.9506 0.14727 0.0
H499 H 0.82866 0.91838 0.1846 0.0
O500 O 0.8471 0.90472 0.09992 0.0
O501 O 0.83987 0.94556 0.12592 0.0
O502 O 0.80197 0.91358 0.11946 0.0
O503 O 0.8408 0.89889 0.14589 0.0
H504 H 0.88042 0.92611 0.08442 0.0
H505 H 0.82463 0.88729 0.06981 0.0
H506 H 0.88839 0.92931 0.04759 0.0
H507 H 0.83345 0.89135 0.03321 0.0
H508 H 0.842 0.99163 0.1798 0.0
H509 H 0.81099 0.97399 0.11266 0.0
H510 H 0.85419 0.95844 0.16191 0.0
H511 H 0.79958 0.0069 0.13143 0.0
H512 H 0.84324 0.98 0.05136 0.0
H513 H 0.7774 0.95597 0.04865 0.0
H514 H 0.93073 0.8926 0.1145 0.0
H515 H 0.92527 0.95571 0.14276 0.0
H516 H 0.77278 0.90482 0.14777 0.0
H517 H 0.79035 0.89424 0.08524 0.0
H518 H 0.74003 0.88224 0.14241 0.0
H519 H 0.75738 0.87171 0.081 0.0
H520 H 0.85734 0.85969 0.14056 0.0
H521 H 0.86529 0.92022 0.17224 0.0
H522 H 0.89068 0.84612 0.15724 0.0
H523 H 0.89843 0.90553 0.18844 0.0
H524 H 0.84395 0.82036 0.09064 0.0
H525 H 0.79044 0.8211 0.1329 0.0
H526 H 0.76253 0.96251 0.17735 0.0
H527 H 0.80904 0.92937 0.2154 0.0
Li528 Li 0.32626 0.60882 0.37725 0.0
Li529 Li 0.31939 0.5778 0.35487 0.0
Li530 Li 0.32465 0.57327 0.39253 0.0
Li531 Li 0.35556 0.58149 0.37033 0.0
C532 C 0.28362 0.60136 0.38107 0.0
N533 N 0.24831 0.62787 0.38781 0.0
C534 C 0.26967 0.60656 0.36508 0.0
C535 C 0.27945 0.60938 0.40054 0.0
C536 C 0.25195 0.62006 0.36878 0.0
C537 C 0.26157 0.62283 0.40363 0.0
C538 C 0.34632 0.60577 0.33157 0.0
C539 C 0.36337 0.59502 0.30017 0.0
N540 N 0.35749 0.61421 0.29168 0.0
C541 C 0.34065 0.6255 0.32261 0.0
C542 C 0.35794 0.59048 0.32034 0.0
C543 C 0.34636 0.62942 0.3024 0.0
C544 C 0.33113 0.64973 0.39574 0.0
N545 N 0.3206 0.63877 0.38081 0.0
C546 C 0.3031 0.67119 0.36976 0.0
C547 C 0.30683 0.64899 0.36787 0.0
C548 C 0.31394 0.68304 0.38491 0.0
C549 C 0.32801 0.67197 0.39809 0.0
H550 H 0.34235 0.64131 0.40553 0.0
H551 H 0.29901 0.63995 0.35587 0.0
C552 C 0.29708 0.54737 0.33041 0.0
N553 N 0.30382 0.5683 0.33183 0.0
C554 C 0.28536 0.54047 0.31342 0.0
C555 C 0.28777 0.57682 0.29988 0.0
C556 C 0.29909 0.58305 0.31719 0.0
C557 C 0.28082 0.55529 0.29785 0.0
H558 H 0.30076 0.53609 0.3425 0.0
H559 H 0.3038 0.59975 0.3191 0.0
C560 C 0.35377 0.59543 0.41615 0.0
N561 N 0.36638 0.5942 0.45642 0.0
C562 C 0.37404 0.58711 0.42146 0.0
C563 C 0.34003 0.6034 0.43129 0.0
C564 C 0.38009 0.58657 0.44191 0.0
C565 C 0.34666 0.60255 0.45158 0.0
C566 C 0.34629 0.53669 0.36448 0.0
C567 C 0.35213 0.52171 0.37943 0.0
C568 C 0.35025 0.53194 0.34404 0.0
C569 C 0.36232 0.50245 0.37372 0.0
C570 C 0.36046 0.5125 0.33893 0.0
N571 N 0.36626 0.49829 0.35376 0.0
C572 C 0.29373 0.55416 0.41839 0.0
C573 C 0.33022 0.54915 0.42863 0.0
C574 C 0.28635 0.54262 0.43529 0.0
N575 N 0.31532 0.55733 0.41553 0.0
C576 C 0.32356 0.53797 0.44591 0.0
C577 C 0.3014 0.53467 0.44936 0.0
H578 H 0.28226 0.56053 0.40752 0.0
H579 H 0.34728 0.55122 0.42565 0.0
C580 C 0.39634 0.59514 0.35705 0.0
N581 N 0.38586 0.57825 0.36592 0.0
C582 C 0.41864 0.59426 0.35379 0.0
C583 C 0.41909 0.55872 0.36916 0.0
C584 C 0.39674 0.56028 0.37208 0.0
C585 C 0.43033 0.57589 0.35995 0.0
H586 H 0.3874 0.60948 0.35275 0.0
H587 H 0.38823 0.54735 0.37965 0.0
O588 O 0.30116 0.58833 0.3777 0.0
O589 O 0.34066 0.60163 0.3513 0.0
O590 O 0.34754 0.59599 0.39621 0.0
O591 O 0.33623 0.55559 0.36983 0.0
H592 H 0.27258 0.60037 0.34994 0.0
H593 H 0.2899 0.60525 0.41312 0.0
H594 H 0.24109 0.62434 0.35652 0.0
H595 H 0.2582 0.62924 0.4186 0.0
H596 H 0.37233 0.5833 0.29129 0.0
H597 H 0.33181 0.63759 0.33114 0.0
H598 H 0.36291 0.57539 0.32717 0.0
H599 H 0.34195 0.64455 0.29523 0.0
H600 H 0.29199 0.67899 0.35935 0.0
H601 H 0.33706 0.68049 0.40971 0.0
H602 H 0.28007 0.52378 0.31236 0.0
H603 H 0.28406 0.58881 0.28839 0.0
H604 H 0.38494 0.58103 0.40993 0.0
H605 H 0.32441 0.61012 0.42744 0.0
H606 H 0.39568 0.58006 0.44625 0.0
H607 H 0.33614 0.60854 0.46346 0.0
H608 H 0.34898 0.52501 0.3953 0.0
H609 H 0.34529 0.54301 0.33221 0.0
H610 H 0.36708 0.4908 0.38515 0.0
H611 H 0.36368 0.50866 0.32318 0.0
H612 H 0.26913 0.54016 0.43749 0.0
H613 H 0.33559 0.53164 0.4563 0.0
H614 H 0.42671 0.60806 0.34702 0.0
H615 H 0.42746 0.54425 0.37413 0.0
Li616 Li 0.66837 0.1065 0.62375 0.0
Li617 Li 0.67473 0.07267 0.64223 0.0
Li618 Li 0.66835 0.07271 0.60582 0.0
Li619 Li 0.63912 0.0804 0.62981 0.0
C620 C 0.71031 0.09918 0.62057 0.0
N621 N 0.74507 0.12738 0.62113 0.0
C622 C 0.72402 0.09997 0.63746 0.0
C623 C 0.71432 0.11269 0.60394 0.0
C624 C 0.74151 0.11433 0.63744 0.0
C625 C 0.73195 0.12687 0.60454 0.0
C626 C 0.64036 0.10495 0.66255 0.0
C627 C 0.61338 0.09934 0.68854 0.0
N628 N 0.60709 0.12036 0.68664 0.0
C629 C 0.63371 0.12652 0.66093 0.0
C630 C 0.63021 0.09126 0.67654 0.0
C631 C 0.61684 0.13399 0.67323 0.0
C632 C 0.66342 0.14847 0.60844 0.0
N633 N 0.67433 0.13665 0.62249 0.0
C634 C 0.69087 0.16861 0.63593 0.0
C635 C 0.68782 0.14618 0.63619 0.0
C636 C 0.67947 0.18123 0.62179 0.0
C637 C 0.66575 0.17091 0.60782 0.0
H638 H 0.65245 0.14054 0.59804 0.0
H639 H 0.69584 0.13643 0.64756 0.0
C640 C 0.70658 0.04524 0.65975 0.0
N641 N 0.69083 0.06003 0.66369 0.0
C642 C 0.71938 0.03719 0.67554 0.0
C643 C 0.69947 0.05983 0.699 0.0
C644 C 0.68698 0.06727 0.68283 0.0
C645 C 0.71612 0.04476 0.69546 0.0
H646 H 0.70956 0.0401 0.64429 0.0
H647 H 0.67471 0.07939 0.68546 0.0
C648 C 0.6398 0.09418 0.58491 0.0
N649 N 0.62753 0.0884 0.54491 0.0
C650 C 0.62146 0.08188 0.58024 0.0
C651 C 0.65186 0.10362 0.56926 0.0
C652 C 0.61552 0.07915 0.55991 0.0
C653 C 0.64541 0.10046 0.54912 0.0
C654 C 0.65998 0.03362 0.63475 0.0
C655 C 0.67364 0.01924 0.6245 0.0
C656 C 0.65177 0.02803 0.65384 0.0
C657 C 0.67893 -0.00051 0.6336 0.0
C658 C 0.65748 0.00815 0.66243 0.0
N659 N 0.67083 0.99441 0.65222 0.0
C660 C 0.69254 0.06516 0.56982 0.0
C661 C 0.66149 0.04304 0.57424 0.0
C662 C 0.69706 0.05527 0.55122 0.0
N663 N 0.67497 0.05895 0.58082 0.0
C664 C 0.66551 0.03256 0.55586 0.0
C665 C 0.68349 0.03867 0.54411 0.0
H666 H 0.70303 0.07778 0.57547 0.0
H667 H 0.64758 0.03854 0.58331 0.0
C668 C 0.59729 0.09705 0.63247 0.0
N669 N 0.60888 0.0785 0.63462 0.0
C670 C 0.57506 0.09712 0.63612 0.0
C671 C 0.57696 0.05879 0.64348 0.0
C672 C 0.59925 0.05951 0.63988 0.0
C673 C 0.56463 0.07781 0.64171 0.0
H674 H 0.60537 0.11181 0.62792 0.0
H675 H 0.60883 0.04494 0.6412 0.0
O676 O 0.69306 0.08527 0.62032 0.0
O677 O 0.65658 0.0972 0.65038 0.0
O678 O 0.64619 0.09659 0.60468 0.0
O679 O 0.65479 0.05312 0.62619 0.0
H680 H 0.72117 0.0897 0.65049 0.0
H681 H 0.7037 0.11255 0.59087 0.0
H682 H 0.75223 0.11513 0.65042 0.0
H683 H 0.73515 0.13752 0.59184 0.0
H684 H 0.60527 0.08889 0.69932 0.0
H685 H 0.64131 0.13734 0.65017 0.0
H686 H 0.63509 0.07451 0.67795 0.0
H687 H 0.61146 0.15061 0.67206 0.0
H688 H 0.70137 0.17607 0.64711 0.0
H689 H 0.65672 0.18014 0.59668 0.0
H690 H 0.73196 0.02554 0.6721 0.0
H691 H 0.6967 0.06662 0.71395 0.0
H692 H 0.61204 0.07433 0.59216 0.0
H693 H 0.66621 0.11302 0.57262 0.0
H694 H 0.60142 0.0696 0.55606 0.0
H695 H 0.65467 0.10754 0.53685 0.0
H696 H 0.6803 0.02336 0.6098 0.0
H697 H 0.64132 0.03903 0.66204 0.0
H698 H 0.68955 0.98823 0.62588 0.0
H699 H 0.65135 0.00368 0.67725 0.0
H700 H 0.71115 0.06031 0.54263 0.0
H701 H 0.65453 0.02 0.55075 0.0
H702 H 0.56607 0.11204 0.63422 0.0
H703 H 0.56948 0.04359 0.64776 0.0
Li704 Li 0.8215 0.42253 0.85627 0.0
Li705 Li 0.82639 0.42233 0.89208 0.0
Li706 Li 0.85849 0.41981 0.86983 0.0
Li707 Li 0.83273 0.38953 0.87399 0.0
C708 C 0.84392 0.46196 0.86118 0.0
N709 N 0.85803 0.49738 0.83914 0.0
C710 C 0.8376 0.48286 0.8668 0.0
C711 C 0.85753 0.45912 0.84441 0.0
C712 C 0.84485 0.50055 0.85543 0.0
C713 C 0.86448 0.47721 0.83346 0.0
C714 C 0.78759 0.40831 0.88849 0.0
C715 C 0.76582 0.39846 0.91747 0.0
N716 N 0.75278 0.4158 0.91391 0.0
C717 C 0.77396 0.42601 0.88508 0.0
C718 C 0.78349 0.39438 0.90477 0.0
C719 C 0.75645 0.42953 0.89811 0.0
C720 C 0.78523 0.41913 0.83195 0.0
N721 N 0.80319 0.43161 0.83435 0.0
C722 C 0.7934 0.45295 0.80543 0.0
C723 C 0.80742 0.44837 0.82152 0.0
C724 C 0.77482 0.44021 0.80261 0.0
C725 C 0.77075 0.42318 0.81618 0.0
H726 H 0.78231 0.40569 0.84211 0.0
H727 H 0.82169 0.45812 0.82347 0.0
C728 C 0.82036 0.42557 0.93481 0.0
N729 N 0.81656 0.43518 0.9166 0.0
C730 C 0.81536 0.43641 0.95283 0.0
C731 C 0.80195 0.46647 0.93294 0.0
C732 C 0.80711 0.455 0.91533 0.0
C733 C 0.80662 0.45742 0.95203 0.0
H734 H 0.82791 0.40982 0.93538 0.0
H735 H 0.80424 0.46218 0.90059 0.0
C736 C 0.84004 0.39548 0.82927 0.0
N737 N 0.82898 0.38357 0.79013 0.0
C738 C 0.82296 0.38106 0.8259 0.0
C739 C 0.85153 0.40381 0.81271 0.0
C740 C 0.81761 0.37525 0.80601 0.0
C741 C 0.84569 0.39759 0.79305 0.0
C742 C 0.86099 0.38594 0.90449 0.0
C743 C 0.88306 0.38162 0.90205 0.0
C744 C 0.84836 0.37228 0.91661 0.0
C745 C 0.89208 0.36354 0.91161 0.0
C746 C 0.85798 0.35435 0.92588 0.0
N747 N 0.87945 0.35039 0.92321 0.0
C748 C 0.89795 0.44097 0.87906 0.0
C749 C 0.89967 0.41516 0.8524 0.0
C750 C 0.92021 0.44473 0.8776 0.0
N751 N 0.88828 0.42627 0.86665 0.0
C752 C 0.92189 0.41847 0.85035 0.0
C753 C 0.93253 0.43319 0.86325 0.0
H754 H 0.88841 0.44943 0.89034 0.0
H755 H 0.89151 0.40347 0.84285 0.0
C756 C 0.81239 0.34804 0.87491 0.0
N757 N 0.83155 0.35875 0.87341 0.0
C758 C 0.81179 0.32546 0.87343 0.0
C759 C 0.85068 0.32545 0.86928 0.0
C760 C 0.85045 0.34799 0.87037 0.0
C761 C 0.83115 0.3138 0.87059 0.0
H762 H 0.79752 0.35706 0.87677 0.0
H763 H 0.86538 0.35697 0.86875 0.0
O764 O 0.83757 0.44458 0.87265 0.0
O765 O 0.80509 0.40489 0.87616 0.0
O766 O 0.8452 0.40175 0.84863 0.0
O767 O 0.85182 0.40345 0.89509 0.0
H768 H 0.8273 0.48543 0.87988 0.0
H769 H 0.86235 0.44312 0.83965 0.0
H770 H 0.84005 0.5168 0.85961 0.0
H771 H 0.87492 0.47519 0.82039 0.0
H772 H 0.76249 0.38786 0.93018 0.0
H773 H 0.77705 0.4371 0.87268 0.0
H774 H 0.79392 0.38066 0.90768 0.0
H775 H 0.74583 0.44322 0.89572 0.0
H776 H 0.79706 0.46628 0.7953 0.0
H777 H 0.75683 0.41268 0.81431 0.0
H778 H 0.81893 0.42869 0.96722 0.0
H779 H 0.79544 0.48269 0.93156 0.0
H780 H 0.81365 0.37472 0.83848 0.0
H781 H 0.86483 0.41496 0.81498 0.0
H782 H 0.80433 0.36421 0.80319 0.0
H783 H 0.85443 0.40393 0.7801 0.0
H784 H 0.89313 0.39203 0.89282 0.0
H785 H 0.83124 0.37528 0.91856 0.0
H786 H 0.90912 0.35996 0.90979 0.0
H787 H 0.84835 0.34355 0.93515 0.0
H788 H 0.92776 0.45603 0.88801 0.0
H789 H 0.93068 0.40945 0.83889 0.0
H790 H 0.79627 0.31735 0.87406 0.0
H791 H 0.86609 0.31733 0.86747 0.0
Li792 Li 0.33692 0.11014 0.61982 0.0
Li793 Li 0.36198 0.08073 0.6277 0.0
Li794 Li 0.33108 0.07458 0.60369 0.0
Li795 Li 0.32541 0.07745 0.64011 0.0
C796 C 0.3615 0.10651 0.58419 0.0
N797 N 0.37188 0.1309 0.55031 0.0
C798 C 0.38238 0.11492 0.58186 0.0
C799 C 0.34606 0.11015 0.56905 0.0
C800 C 0.38727 0.12732 0.5647 0.0
C801 C 0.35157 0.1226 0.5521 0.0
C802 C 0.36242 0.10454 0.66136 0.0
C803 C 0.3851 0.09281 0.68911 0.0
N804 N 0.39447 0.11273 0.68968 0.0
C805 C 0.37209 0.12499 0.66241 0.0
C806 C 0.36879 0.0884 0.67499 0.0
C807 C 0.38832 0.12878 0.67676 0.0
C808 C 0.31654 0.15166 0.61911 0.0
N809 N 0.33551 0.1407 0.61703 0.0
C810 C 0.35513 0.17381 0.61347 0.0
C811 C 0.35457 0.15127 0.61419 0.0
C812 C 0.33585 0.18558 0.61566 0.0
C813 C 0.3163 0.17429 0.61823 0.0
H814 H 0.30168 0.14289 0.62188 0.0
H815 H 0.36948 0.1422 0.61321 0.0
C816 C 0.39944 0.05495 0.63533 0.0
N817 N 0.39177 0.07535 0.63249 0.0
C818 C 0.42164 0.05145 0.63787 0.0
C819 C 0.42745 0.09002 0.6346 0.0
C820 C 0.40522 0.09275 0.63218 0.0
C821 C 0.43599 0.06913 0.63736 0.0
H822 H 0.38838 0.04138 0.63532 0.0
H823 H 0.39866 0.10877 0.62971 0.0
C824 C 0.29081 0.09594 0.60735 0.0
N825 N 0.25281 0.10195 0.58584 0.0
C826 C 0.27221 0.08421 0.61245 0.0
C827 C 0.2899 0.11107 0.59158 0.0
C828 C 0.25321 0.08738 0.60132 0.0
C829 C 0.2706 0.11378 0.58081 0.0
C830 C 0.33661 0.03588 0.63372 0.0
C831 C 0.32188 0.02246 0.62364 0.0
C832 C 0.3452 0.02934 0.65238 0.0
C833 C 0.31566 0.0029 0.63259 0.0
C834 C 0.33857 0.00968 0.66085 0.0
N835 N 0.32404 0.99699 0.65088 0.0
C836 C 0.33984 0.05601 0.56638 0.0
C837 C 0.30305 0.05193 0.57587 0.0
C838 C 0.33644 0.04398 0.54878 0.0
N839 N 0.32328 0.05976 0.57948 0.0
C840 C 0.29895 0.03956 0.5585 0.0
C841 C 0.31587 0.03522 0.54481 0.0
H842 H 0.35585 0.0621 0.56979 0.0
H843 H 0.2903 0.0545 0.58682 0.0
C844 C 0.3106 0.07794 0.68032 0.0
N845 N 0.30778 0.06809 0.66205 0.0
C846 C 0.2974 0.07258 0.69673 0.0
C847 C 0.27852 0.047 0.67526 0.0
C848 C 0.2922 0.05279 0.65927 0.0
C849 C 0.28096 0.05708 0.69425 0.0
H850 H 0.32277 0.09037 0.68203 0.0
H851 H 0.2901 0.04538 0.64453 0.0
O852 O 0.35643 0.09438 0.60097 0.0
O853 O 0.34675 0.10038 0.64716 0.0
O854 O 0.30952 0.0931 0.61821 0.0
O855 O 0.3428 0.05515 0.62522 0.0
H856 H 0.39468 0.11201 0.59321 0.0
H857 H 0.33009 0.10317 0.57019 0.0
H858 H 0.40331 0.13407 0.56281 0.0
H859 H 0.33972 0.12556 0.54031 0.0
H860 H 0.39027 0.08039 0.69964 0.0
H861 H 0.36715 0.1378 0.65226 0.0
H862 H 0.36125 0.07264 0.67464 0.0
H863 H 0.39603 0.14449 0.67764 0.0
H864 H 0.37051 0.18196 0.61145 0.0
H865 H 0.30115 0.18287 0.62025 0.0
H866 H 0.42751 0.03509 0.6401 0.0
H867 H 0.43788 0.10409 0.63369 0.0
H868 H 0.27244 0.07269 0.62479 0.0
H869 H 0.30383 0.12086 0.58785 0.0
H870 H 0.23877 0.07827 0.60502 0.0
H871 H 0.26973 0.12539 0.56853 0.0
H872 H 0.31518 0.02712 0.60913 0.0
H873 H 0.3569 0.03927 0.66024 0.0
H874 H 0.30416 0.99244 0.625 0.0
H875 H 0.34501 0.00449 0.67534 0.0
H876 H 0.34989 0.04141 0.53849 0.0
H877 H 0.28293 0.03286 0.55621 0.0
H878 H 0.29953 0.08107 0.711 0.0
H879 H 0.26604 0.03496 0.67276 0.0
Li880 Li 0.66343 0.60983 0.37435 0.0
Li881 Li 0.63417 0.5818 0.36934 0.0
Li882 Li 0.66614 0.57371 0.38858 0.0
Li883 Li 0.66917 0.57719 0.35266 0.0
C884 C 0.64317 0.59528 0.41518 0.0
N885 N 0.64292 0.59137 0.45699 0.0
C886 C 0.6284 0.58142 0.42465 0.0
C887 C 0.65766 0.60733 0.42695 0.0
C888 C 0.62857 0.57962 0.44582 0.0
C889 C 0.65731 0.60509 0.44807 0.0
C890 C 0.63864 0.59942 0.3299 0.0
C891 C 0.6206 0.57813 0.30425 0.0
N892 N 0.62009 0.59575 0.29186 0.0
C893 C 0.63797 0.61731 0.31692 0.0
C894 C 0.62992 0.57965 0.32354 0.0
C895 C 0.6285 0.61513 0.29774 0.0
C896 C 0.68635 0.64824 0.36649 0.0
N897 N 0.66906 0.63978 0.37649 0.0
C898 C 0.65802 0.67492 0.38749 0.0
C899 C 0.65505 0.65251 0.38699 0.0
C900 C 0.67557 0.68427 0.37705 0.0
C901 C 0.68999 0.67056 0.36665 0.0
H902 H 0.69712 0.63765 0.35816 0.0
H903 H 0.6413 0.64528 0.39459 0.0
C904 C 0.5954 0.559 0.37461 0.0
N905 N 0.60395 0.57786 0.36764 0.0
C906 C 0.573 0.55595 0.37473 0.0
C907 C 0.56876 0.59167 0.36016 0.0
C908 C 0.59123 0.59406 0.36042 0.0
C909 C 0.55937 0.57249 0.36757 0.0
H910 H 0.60599 0.54648 0.38038 0.0
H911 H 0.59855 0.60897 0.35518 0.0
C912 C 0.7088 0.59089 0.38086 0.0
N913 N 0.75065 0.59305 0.39558 0.0
C914 C 0.72431 0.5759 0.37442 0.0
C915 C 0.7147 0.60727 0.39447 0.0
C916 C 0.74534 0.57718 0.38213 0.0
C917 C 0.73591 0.608 0.40182 0.0
C918 C 0.65946 0.53501 0.36432 0.0
C919 C 0.68093 0.52984 0.36886 0.0
C920 C 0.64577 0.51918 0.35623 0.0
C921 C 0.68842 0.50886 0.36515 0.0
C922 C 0.65387 0.49838 0.35272 0.0
N923 N 0.67486 0.4937 0.35722 0.0
C924 C 0.662 0.54005 0.41632 0.0
C925 C 0.69137 0.5632 0.42439 0.0
C926 C 0.66571 0.52776 0.43372 0.0
N927 N 0.67475 0.55739 0.41198 0.0
C928 C 0.69567 0.55135 0.44201 0.0
C929 C 0.68265 0.53344 0.44691 0.0
H930 H 0.64849 0.53613 0.40654 0.0
H931 H 0.70094 0.57733 0.42104 0.0
C932 C 0.7007 0.58206 0.32387 0.0
N933 N 0.68401 0.56879 0.32883 0.0
C934 C 0.71307 0.57799 0.30662 0.0
C935 C 0.69065 0.54673 0.29963 0.0
C936 C 0.67866 0.55143 0.31712 0.0
C937 C 0.70819 0.56008 0.29427 0.0
H938 H 0.7043 0.59595 0.33332 0.0
H939 H 0.66506 0.54133 0.32124 0.0
O940 O 0.64376 0.59671 0.39447 0.0
O941 O 0.64801 0.60128 0.34864 0.0
O942 O 0.68825 0.5902 0.37314 0.0
O943 O 0.65174 0.55545 0.3677 0.0
H944 H 0.61712 0.57195 0.41571 0.0
H945 H 0.66918 0.61813 0.41983 0.0
H946 H 0.61736 0.56882 0.45336 0.0
H947 H 0.66853 0.61419 0.45738 0.0
H948 H 0.6138 0.56293 0.29912 0.0
H949 H 0.64472 0.63271 0.32163 0.0
H950 H 0.63037 0.56561 0.33334 0.0
H951 H 0.62785 0.62884 0.28753 0.0
H952 H 0.64629 0.68485 0.39543 0.0
H953 H 0.70386 0.67702 0.35859 0.0
H954 H 0.56643 0.54086 0.38042 0.0
H955 H 0.55882 0.60494 0.35478 0.0
H956 H 0.72024 0.56352 0.36342 0.0
H957 H 0.70299 0.61917 0.39942 0.0
H958 H 0.75748 0.56562 0.37733 0.0
H959 H 0.74065 0.62047 0.41249 0.0
H960 H 0.69163 0.54183 0.37532 0.0
H961 H 0.6291 0.52297 0.35262 0.0
H962 H 0.70501 0.50462 0.36862 0.0
H963 H 0.64348 0.48597 0.34642 0.0
H964 H 0.65494 0.51441 0.43715 0.0
H965 H 0.70889 0.55628 0.45178 0.0
H966 H 0.72609 0.58903 0.3028 0.0
H967 H 0.68634 0.53279 0.29049 0.0
Li968 Li 0.16905 0.92334 0.10518 0.0
Li969 Li 0.17145 0.91972 0.14062 0.0
Li970 Li 0.16654 0.88793 0.11962 0.0
Li971 Li 0.13585 0.91364 0.1257 0.0
C972 C 0.20925 0.91343 0.10909 0.0
N973 N 0.24398 0.9263 0.08549 0.0
C974 C 0.22193 0.93112 0.11498 0.0
C975 C 0.21429 0.90226 0.09122 0.0
C976 C 0.23942 0.93736 0.10285 0.0
C977 C 0.23188 0.90904 0.07948 0.0
C978 C 0.15155 0.95866 0.13802 0.0
C979 C 0.13058 0.98222 0.15968 0.0
N980 N 0.14833 0.99492 0.1625 0.0
C981 C 0.16957 0.97199 0.1411 0.0
C982 C 0.13187 0.96383 0.14735 0.0
C983 C 0.16762 0.99022 0.15356 0.0
C984 C 0.17227 0.9338 0.06327 0.0
N985 N 0.1779 0.94006 0.08236 0.0
C986 C 0.19368 0.97267 0.06965 0.0
C987 C 0.1886 0.95895 0.08576 0.0
C988 C 0.18746 0.967 0.04985 0.0
C989 C 0.17699 0.94707 0.04667 0.0
H990 H 0.16346 0.91888 0.061 0.0
H991 H 0.19284 0.96359 0.10102 0.0
C992 C 0.20635 0.92243 0.16732 0.0
N993 N 0.18555 0.9291 0.16497 0.0
C994 C 0.2178 0.92754 0.1849 0.0
C995 C 0.18606 0.94595 0.1977 0.0
C996 C 0.1752 0.94042 0.17984 0.0
C997 C 0.20767 0.93948 0.20038 0.0
H998 H 0.21392 0.91263 0.15572 0.0
H999 H 0.15838 0.94479 0.17807 0.0
C1000 C 0.14017 0.88388 0.08795 0.0
N1001 N 0.12787 0.84789 0.06577 0.0
C1002 C 0.1195 0.87503 0.09044 0.0
C1003 C 0.1545 0.87454 0.07402 0.0
C1004 C 0.11361 0.85681 0.07912 0.0
C1005 C 0.14801 0.85631 0.06301 0.0
C1006 C 0.15542 0.88972 0.16479 0.0
C1007 C 0.17283 0.87609 0.16931 0.0
C1008 C 0.14309 0.89856 0.18056 0.0
C1009 C 0.17767 0.87158 0.18962 0.0
C1010 C 0.14846 0.89365 0.20067 0.0
N1011 N 0.1655 0.88039 0.20474 0.0
C1012 C 0.1913 0.84911 0.11313 0.0
C1013 C 0.15394 0.84494 0.1204 0.0
C1014 C 0.19387 0.82664 0.11187 0.0
N1015 N 0.1715 0.85772 0.11716 0.0
C1016 C 0.15569 0.82251 0.11906 0.0
C1017 C 0.17588 0.81301 0.11485 0.0
H1018 H 0.20513 0.85963 0.11117 0.0
H1019 H 0.1385 0.85225 0.12401 0.0
C1020 C 0.09363 0.92716 0.11506 0.0
N1021 N 0.10544 0.91511 0.1283 0.0
C1022 C 0.07103 0.92691 0.11601 0.0
C1023 C 0.07332 0.90214 0.14439 0.0
C1024 C 0.09582 0.90273 0.14276 0.0
C1025 C 0.06057 0.91413 0.13075 0.0
H1026 H 0.10179 0.93658 0.1035 0.0
H1027 H 0.10561 0.89294 0.15278 0.0
O1028 O 0.19188 0.90721 0.12064 0.0
O1029 O 0.15295 0.94091 0.12563 0.0
O1030 O 0.14639 0.9015 0.09918 0.0
O1031 O 0.15089 0.89488 0.14503 0.0
H1032 H 0.21812 0.94019 0.12858 0.0
H1033 H 0.20464 0.88861 0.08637 0.0
H1034 H 0.2493 0.95108 0.10718 0.0
H1035 H 0.2359 0.90058 0.06558 0.0
H1036 H 0.11546 0.98639 0.16701 0.0
H1037 H 0.18504 0.96804 0.13441 0.0
H1038 H 0.11774 0.95377 0.14515 0.0
H1039 H 0.18148 0.00056 0.1562 0.0
H1040 H 0.20197 0.98778 0.07273 0.0
H1041 H 0.1716 0.94225 0.03168 0.0
H1042 H 0.23419 0.9216 0.1866 0.0
H1043 H 0.1776 0.95503 0.20934 0.0
H1044 H 0.10818 0.88198 0.10113 0.0
H1045 H 0.17053 0.88117 0.07186 0.0
H1046 H 0.09771 0.84972 0.08098 0.0
H1047 H 0.159 0.84885 0.05229 0.0
H1048 H 0.18268 0.8693 0.15729 0.0
H1049 H 0.12981 0.90946 0.17735 0.0
H1050 H 0.19116 0.86115 0.19335 0.0
H1051 H 0.13917 0.90051 0.21304 0.0
H1052 H 0.20981 0.82004 0.10896 0.0
H1053 H 0.1413 0.81275 0.12118 0.0
H1054 H 0.06188 0.93613 0.10496 0.0
H1055 H 0.06603 0.89228 0.15615 0.0
Li1056 Li 0.83716 0.61406 0.11966 0.0
Li1057 Li 0.86424 0.58628 0.12822 0.0
Li1058 Li 0.83288 0.57733 0.10572 0.0
Li1059 Li 0.82788 0.58216 0.1422 0.0
C1060 C 0.86064 0.60904 0.08348 0.0
N1061 N 0.86805 0.63118 0.04768 0.0
C1062 C 0.88136 0.61677 0.07896 0.0
C1063 C 0.84376 0.61232 0.0697 0.0
C1064 C 0.88476 0.62801 0.06082 0.0
C1065 C 0.84781 0.62361 0.05171 0.0
C1066 C 0.86301 0.61148 0.16184 0.0
C1067 C 0.88385 0.60159 0.1914 0.0
N1068 N 0.89217 0.62198 0.19212 0.0
C1069 C 0.87161 0.63239 0.16295 0.0
C1070 C 0.86903 0.596 0.17624 0.0
C1071 C 0.88639 0.63736 0.17834 0.0
C1072 C 0.81544 0.65472 0.12019 0.0
N1073 N 0.8343 0.64435 0.11591 0.0
C1074 C 0.85206 0.67796 0.10936 0.0
C1075 C 0.85241 0.65545 0.11058 0.0
C1076 C 0.83303 0.68933 0.11427 0.0
C1077 C 0.81443 0.67735 0.11948 0.0
H1078 H 0.80139 0.64547 0.12479 0.0
H1079 H 0.86736 0.64686 0.1079 0.0
C1080 C 0.90318 0.56243 0.13338 0.0
N1081 N 0.8943 0.58255 0.13243 0.0
C1082 C 0.92551 0.56002 0.136 0.0
C1083 C 0.92895 0.59904 0.13673 0.0
C1084 C 0.90668 0.60069 0.13375 0.0
C1085 C 0.9386 0.57851 0.13783 0.0
H1086 H 0.89298 0.54829 0.13188 0.0
H1087 H 0.89924 0.61646 0.13226 0.0
C1088 C 0.79084 0.59415 0.11079 0.0
N1089 N 0.75049 0.59151 0.09283 0.0
C1090 C 0.77559 0.57925 0.11793 0.0
C1091 C 0.78544 0.60799 0.09478 0.0
C1092 C 0.75531 0.5781 0.10859 0.0
C1093 C 0.765 0.60631 0.08582 0.0
C1094 C 0.84218 0.54034 0.1368 0.0
C1095 C 0.82756 0.52587 0.1279 0.0
C1096 C 0.85324 0.53435 0.15445 0.0
C1097 C 0.82403 0.50574 0.137 0.0
C1098 C 0.84923 0.51408 0.1631 0.0
N1099 N 0.83482 0.50032 0.15428 0.0
C1100 C 0.8441 0.55552 0.0711 0.0
C1101 C 0.80661 0.55168 0.07793 0.0
C1102 C 0.84261 0.54124 0.05479 0.0
N1103 N 0.82632 0.56033 0.08239 0.0
C1104 C 0.8044 0.53717 0.06174 0.0
C1105 C 0.82267 0.53148 0.05018 0.0
H1106 H 0.85963 0.56235 0.07516 0.0
H1107 H 0.79281 0.55524 0.08736 0.0
C1108 C 0.81321 0.58864 0.18158 0.0
N1109 N 0.81215 0.57426 0.16597 0.0
C1110 C 0.80268 0.58438 0.19984 0.0
C1111 C 0.7893 0.5509 0.18552 0.0
C1112 C 0.80032 0.55573 0.16751 0.0
C1113 C 0.7906 0.56527 0.202 0.0
H1114 H 0.82214 0.60356 0.17981 0.0
H1115 H 0.79923 0.54478 0.15477 0.0
O1116 O 0.85702 0.59822 0.10129 0.0
O1117 O 0.84862 0.60626 0.14681 0.0
O1118 O 0.81068 0.59566 0.1199 0.0
O1119 O 0.846 0.56004 0.12799 0.0
H1120 H 0.89463 0.61426 0.08946 0.0
H1121 H 0.82774 0.60611 0.07282 0.0
H1122 H 0.90068 0.63422 0.05718 0.0
H1123 H 0.83488 0.62631 0.04092 0.0
H1124 H 0.8887 0.58974 0.20261 0.0
H1125 H 0.86701 0.6446 0.15199 0.0
H1126 H 0.86229 0.57985 0.17574 0.0
H1127 H 0.89327 0.65344 0.17934 0.0
H1128 H 0.86671 0.68635 0.10493 0.0
H1129 H 0.79949 0.68534 0.12369 0.0
H1130 H 0.93246 0.54393 0.13668 0.0
H1131 H 0.9386 0.61366 0.13766 0.0
H1132 H 0.77943 0.56856 0.13041 0.0
H1133 H 0.79683 0.62002 0.08943 0.0
H1134 H 0.74341 0.56652 0.11385 0.0
H1135 H 0.76063 0.61685 0.07335 0.0
H1136 H 0.81892 0.53018 0.11422 0.0
H1137 H 0.86487 0.54518 0.16135 0.0
H1138 H 0.81268 0.49443 0.13033 0.0
H1139 H 0.85763 0.50927 0.1768 0.0
H1140 H 0.85705 0.53762 0.04608 0.0
H1141 H 0.78877 0.52983 0.05883 0.0
H1142 H 0.80363 0.59614 0.21204 0.0
H1143 H 0.78001 0.53606 0.18659 0.0
Li1144 Li 0.13749 0.08295 0.86732 0.0
Li1145 Li 0.16489 0.11047 0.87511 0.0
Li1146 Li 0.17302 0.07806 0.85309 0.0
Li1147 Li 0.16927 0.07387 0.88957 0.0
C1148 C 0.13674 0.10955 0.83533 0.0
N1149 N 0.10369 0.12346 0.81019 0.0
C1150 C 0.12869 0.13063 0.83707 0.0
C1151 C 0.12823 0.09569 0.82056 0.0
C1152 C 0.11192 0.13733 0.82428 0.0
C1153 C 0.11145 0.10297 0.80807 0.0
C1154 C 0.14088 0.10644 0.91162 0.0
C1155 C 0.15199 0.12142 0.94385 0.0
N1156 N 0.13171 0.12948 0.94663 0.0
C1157 C 0.12005 0.11458 0.91496 0.0
C1158 C 0.1569 0.10965 0.92631 0.0
C1159 C 0.11578 0.1263 0.93268 0.0
C1160 C 0.099 0.05893 0.86039 0.0
N1161 N 0.10728 0.07906 0.86353 0.0
C1162 C 0.07194 0.09467 0.86232 0.0
C1163 C 0.09428 0.09678 0.86454 0.0
C1164 C 0.06285 0.07409 0.8591 0.0
C1165 C 0.0767 0.05606 0.85809 0.0
H1166 H 0.10968 0.04509 0.85988 0.0
H1167 H 0.10128 0.11255 0.86733 0.0
C1168 C 0.18856 0.14991 0.87422 0.0
N1169 N 0.16924 0.14068 0.87907 0.0
C1170 C 0.19141 0.17229 0.8761 0.0
C1171 C 0.15441 0.17516 0.8878 0.0
C1172 C 0.15232 0.1528 0.88576 0.0
C1173 C 0.17409 0.18521 0.88275 0.0
H1174 H 0.20163 0.13994 0.86853 0.0
H1175 H 0.13693 0.14521 0.88887 0.0
C1176 C 0.15915 0.03728 0.8578 0.0
N1177 N 0.16731 -0.00086 0.83714 0.0
C1178 C 0.17242 0.02143 0.86644 0.0
C1179 C 0.14976 0.03356 0.83879 0.0
C1180 C 0.17642 0.0023 0.85573 0.0
C1181 C 0.15416 0.01424 0.82854 0.0
C1182 C 0.21028 0.09339 0.88496 0.0
C1183 C 0.22813 0.08098 0.87902 0.0
C1184 C 0.21244 0.1081 0.90098 0.0
C1185 C 0.24764 0.08304 0.88959 0.0
C1186 C 0.23222 0.10972 0.91117 0.0
N1187 N 0.24926 0.09723 0.90534 0.0
C1188 C 0.18608 0.07875 0.81222 0.0
C1189 C 0.20381 0.05231 0.83233 0.0
C1190 C 0.1986 0.07314 0.79539 0.0
N1191 N 0.18901 0.06844 0.83023 0.0
C1192 C 0.21673 0.0462 0.81591 0.0
C1193 C 0.21438 0.05687 0.7972 0.0
H1194 H 0.17445 0.09176 0.81106 0.0
H1195 H 0.20592 0.04449 0.84688 0.0
C1196 C 0.16343 0.05563 0.92787 0.0
N1197 N 0.17809 0.05766 0.9126 0.0
C1198 C 0.16831 0.04329 0.94497 0.0
C1199 C 0.20303 0.03462 0.93004 0.0
C1200 C 0.19757 0.04741 0.9133 0.0
C1201 C 0.18829 0.03254 0.94615 0.0
H1202 H 0.14777 0.06331 0.92662 0.0
H1203 H 0.20861 0.0486 0.90064 0.0
O1204 O 0.15296 0.1026 0.84793 0.0
O1205 O 0.14535 0.09501 0.89425 0.0
O1206 O 0.15518 0.05619 0.86801 0.0
O1207 O 0.19107 0.09162 0.87468 0.0
H1208 H 0.13523 0.14169 0.8482 0.0
H1209 H 0.13447 0.07947 0.81876 0.0
H1210 H 0.10545 0.15355 0.82557 0.0
H1211 H 0.10462 0.09234 0.79667 0.0
H1212 H 0.16428 0.12405 0.95531 0.0
H1213 H 0.10733 0.11199 0.90395 0.0
H1214 H 0.17285 0.10281 0.92439 0.0
H1215 H 0.09978 0.13283 0.93536 0.0
H1216 H 0.06187 0.10896 0.8636 0.0
H1217 H 0.07038 0.03992 0.85552 0.0
H1218 H 0.20675 0.17945 0.87178 0.0
H1219 H 0.14067 0.18451 0.89307 0.0
H1220 H 0.17963 0.02388 0.88122 0.0
H1221 H 0.1392 0.04547 0.83201 0.0
H1222 H 0.18676 0.98996 0.86219 0.0
H1223 H 0.14709 0.01123 0.81377 0.0
H1224 H 0.22693 0.06976 0.86647 0.0
H1225 H 0.19912 0.11842 0.90535 0.0
H1226 H 0.26151 0.07339 0.88526 0.0
H1227 H 0.23406 0.121 0.92364 0.0
H1228 H 0.19654 0.08207 0.78136 0.0
H1229 H 0.22865 0.0335 0.8179 0.0
H1230 H 0.15631 0.04166 0.95688 0.0
H1231 H 0.21851 0.02639 0.93037 0.0
Li1232 Li 0.6662 0.42014 0.6047 0.0
Li1233 Li 0.67205 0.41971 0.64027 0.0
Li1234 Li 0.66245 0.38515 0.62102 0.0
Li1235 Li 0.63552 0.41539 0.62708 0.0
C1236 C 0.70704 0.4049 0.60781 0.0
N1237 N 0.74384 0.40796 0.58413 0.0
C1238 C 0.71781 0.4247 0.60592 0.0
C1239 C 0.71505 0.3866 0.59781 0.0
C1240 C 0.73636 0.42593 0.59382 0.0
C1241 C 0.73368 0.38849 0.58588 0.0
C1242 C 0.65829 0.46008 0.63425 0.0
C1243 C 0.65056 0.48549 0.66113 0.0
N1244 N 0.66618 0.49891 0.65379 0.0
C1245 C 0.67416 0.47419 0.62688 0.0
C1246 C 0.64628 0.46582 0.65142 0.0
C1247 C 0.67794 0.49373 0.637 0.0
C1248 C 0.66475 0.45351 0.57632 0.0
N1249 N 0.67364 0.43367 0.57944 0.0
C1250 C 0.68922 0.434 0.54615 0.0
C1251 C 0.68554 0.42371 0.56474 0.0
C1252 C 0.68043 0.45463 0.54266 0.0
C1253 C 0.66805 0.46438 0.55804 0.0
H1254 H 0.65461 0.46071 0.58787 0.0
H1255 H 0.69173 0.40758 0.56719 0.0
C1256 C 0.6855 0.41881 0.68068 0.0
N1257 N 0.6887 0.42947 0.66289 0.0
C1258 C 0.6977 0.42401 0.69779 0.0
C1259 C 0.71652 0.4511 0.67803 0.0
C1260 C 0.70395 0.44528 0.66123 0.0
C1261 C 0.71351 0.44031 0.69662 0.0
H1262 H 0.67389 0.40578 0.6815 0.0
H1263 H 0.70669 0.45314 0.64682 0.0
C1264 C 0.6377 0.39965 0.58183 0.0
N1265 N 0.63012 0.40269 0.54057 0.0
C1266 C 0.62314 0.41503 0.57437 0.0
C1267 C 0.64832 0.38573 0.56836 0.0
C1268 C 0.61957 0.41634 0.55343 0.0
C1269 C 0.64427 0.38753 0.54754 0.0
C1270 C 0.63622 0.39067 0.66177 0.0
C1271 C 0.62908 0.36921 0.66283 0.0
C1272 C 0.62835 0.40589 0.67566 0.0
C1273 C 0.61391 0.36341 0.67763 0.0
C1274 C 0.61319 0.39946 0.69022 0.0
N1275 N 0.60633 0.37853 0.69088 0.0
C1276 C 0.6804 0.34434 0.63102 0.0
C1277 C 0.65008 0.34375 0.60892 0.0
C1278 C 0.6809 0.3217 0.63148 0.0
N1279 N 0.66505 0.35477 0.61994 0.0
C1280 C 0.65008 0.32119 0.60881 0.0
C1281 C 0.66543 0.30982 0.62043 0.0
H1282 H 0.6919 0.35361 0.63987 0.0
H1283 H 0.63785 0.35251 0.60052 0.0
C1284 C 0.59726 0.44077 0.62881 0.0
N1285 N 0.60552 0.42049 0.63104 0.0
C1286 C 0.57501 0.44431 0.63094 0.0
C1287 C 0.57037 0.40611 0.63783 0.0
C1288 C 0.59255 0.40323 0.63507 0.0
C1289 C 0.56142 0.42683 0.63567 0.0
H1290 H 0.60788 0.4541 0.62506 0.0
H1291 H 0.59938 0.38716 0.63586 0.0
O1292 O 0.68892 0.4033 0.61963 0.0
O1293 O 0.6543 0.44091 0.6245 0.0
O1294 O 0.64183 0.39849 0.6022 0.0
O1295 O 0.65099 0.39666 0.64732 0.0
H1296 H 0.71174 0.43902 0.61346 0.0
H1297 H 0.7069 0.37115 0.59918 0.0
H1298 H 0.74478 0.44119 0.59209 0.0
H1299 H 0.74004 0.37449 0.57799 0.0
H1300 H 0.64143 0.4901 0.67448 0.0
H1301 H 0.68367 0.47001 0.61364 0.0
H1302 H 0.63374 0.45526 0.65715 0.0
H1303 H 0.69027 0.50474 0.63154 0.0
H1304 H 0.69874 0.42586 0.53463 0.0
H1305 H 0.66045 0.48 0.55577 0.0
H1306 H 0.69524 0.4148 0.71161 0.0
H1307 H 0.72856 0.46373 0.67644 0.0
H1308 H 0.61488 0.42597 0.58463 0.0
H1309 H 0.65983 0.3739 0.5739 0.0
H1310 H 0.60844 0.42824 0.54741 0.0
H1311 H 0.65248 0.37697 0.53692 0.0
H1312 H 0.63506 0.35718 0.65227 0.0
H1313 H 0.63392 0.42248 0.67522 0.0
H1314 H 0.60816 0.34689 0.67857 0.0
H1315 H 0.60691 0.4111 0.70101 0.0
H1316 H 0.69285 0.31365 0.64085 0.0
H1317 H 0.63806 0.31275 0.59981 0.0
H1318 H 0.5685 0.46046 0.62895 0.0
H1319 H 0.56021 0.39221 0.64104 0.0
Li1320 Li 0.32572 0.91967 0.35061 0.0
Li1321 Li 0.329 0.92146 0.38626 0.0
Li1322 Li 0.35959 0.91096 0.36593 0.0
Li1323 Li 0.32845 0.88543 0.37129 0.0
C1324 C 0.34091 0.95782 0.35591 0.0
N1325 N 0.33188 0.99505 0.33423 0.0
C1326 C 0.32545 0.97248 0.36309 0.0
C1327 C 0.35185 0.96214 0.33776 0.0
C1328 C 0.32111 0.99121 0.3519 0.0
C1329 C 0.34701 0.98103 0.32699 0.0
C1330 C 0.28696 0.9098 0.38273 0.0
C1331 C 0.25954 0.89445 0.40451 0.0
N1332 N 0.25016 0.9143 0.40626 0.0
C1333 C 0.27703 0.93003 0.38471 0.0
C1334 C 0.27815 0.89184 0.39269 0.0
C1335 C 0.25845 0.93198 0.39669 0.0
C1336 C 0.31946 0.92418 0.30851 0.0
N1337 N 0.31216 0.93096 0.32692 0.0
C1338 C 0.28382 0.95127 0.31122 0.0
C1339 C 0.29487 0.94447 0.32857 0.0
C1340 C 0.29063 0.94399 0.29204 0.0
C1341 C 0.30895 0.93061 0.29078 0.0
H1342 H 0.33301 0.9132 0.30761 0.0
H1343 H 0.28937 0.94962 0.34335 0.0
C1344 C 0.33712 0.95399 0.41383 0.0
N1345 N 0.32317 0.93728 0.41068 0.0
C1346 C 0.33685 0.96537 0.43208 0.0
C1347 C 0.3074 0.94261 0.44352 0.0
C1348 C 0.30853 0.93134 0.42513 0.0
C1349 C 0.32195 0.95958 0.44715 0.0
H1350 H 0.3491 0.95794 0.40244 0.0
H1351 H 0.29838 0.91733 0.42286 0.0
C1352 C 0.3602 0.88414 0.33483 0.0
N1353 N 0.3947 0.86557 0.31451 0.0
C1354 C 0.36462 0.86207 0.33712 0.0
C1355 C 0.37323 0.89672 0.32206 0.0
C1356 C 0.38216 0.853 0.32674 0.0
C1357 C 0.39063 0.88705 0.31198 0.0
C1358 C 0.35301 0.89821 0.41131 0.0
C1359 C 0.37009 0.91088 0.41856 0.0
C1360 C 0.33926 0.88774 0.42503 0.0
C1361 C 0.37299 0.91309 0.43952 0.0
C1362 C 0.34273 0.89032 0.44587 0.0
N1363 N 0.35936 0.90286 0.45262 0.0
C1364 C 0.40058 0.93076 0.3607 0.0
C1365 C 0.40122 0.89294 0.367 0.0
C1366 C 0.42315 0.93132 0.35965 0.0
N1367 N 0.39017 0.91172 0.36416 0.0
C1368 C 0.42376 0.8927 0.36583 0.0
C1369 C 0.43498 0.91208 0.36213 0.0
H1370 H 0.39138 0.94551 0.35889 0.0
H1371 H 0.39248 0.87814 0.37019 0.0
C1372 C 0.30576 0.84762 0.36055 0.0
N1373 N 0.32091 0.85592 0.37333 0.0
C1374 C 0.30163 0.82538 0.36036 0.0
C1375 C 0.32849 0.82086 0.38678 0.0
C1376 C 0.33214 0.84314 0.38641 0.0
C1377 C 0.31329 0.81167 0.37343 0.0
H1378 H 0.29727 0.85824 0.35018 0.0
H1379 H 0.34446 0.85017 0.39604 0.0
O1380 O 0.34511 0.9392 0.36646 0.0
O1381 O 0.30492 0.90742 0.37076 0.0
O1382 O 0.34331 0.89341 0.34514 0.0
O1383 O 0.34946 0.89646 0.39087 0.0
H1384 H 0.3167 0.96934 0.37702 0.0
H1385 H 0.36376 0.95091 0.33191 0.0
H1386 H 0.30912 0.00265 0.35723 0.0
H1387 H 0.35526 0.98451 0.31286 0.0
H1388 H 0.25256 0.8807 0.41232 0.0
H1389 H 0.28378 0.94417 0.37741 0.0
H1390 H 0.2856 0.87606 0.39136 0.0
H1391 H 0.25068 0.94757 0.39846 0.0
H1392 H 0.26983 0.9617 0.31282 0.0
H1393 H 0.3145 0.92431 0.27632 0.0
H1394 H 0.34841 0.9783 0.43457 0.0
H1395 H 0.29601 0.93754 0.4551 0.0
H1396 H 0.35473 0.85205 0.34687 0.0
H1397 H 0.37015 0.91384 0.32021 0.0
H1398 H 0.38581 0.83596 0.32844 0.0
H1399 H 0.40095 0.89663 0.3022 0.0
H1400 H 0.3808 0.91917 0.4081 0.0
H1401 H 0.32582 0.87806 0.41963 0.0
H1402 H 0.38603 0.923 0.44537 0.0
H1403 H 0.33212 0.88246 0.45668 0.0
H1404 H 0.43126 0.94657 0.35677 0.0
H1405 H 0.43234 0.87761 0.36816 0.0
H1406 H 0.2897 0.81894 0.34992 0.0
H1407 H 0.33811 0.81084 0.39682 0.0
H1408 H 0.15589 0.78304 0.13867 0.0
H1409 H 0.20075 0.78896 0.08863 0.0
H1410 H 0.20317 0.74955 0.08625 0.0
H1411 H 0.19127 0.71332 0.09744 0.0
H1412 H 0.14495 0.70784 0.14625 0.0
H1413 H 0.14396 0.74722 0.1497 0.0
C1414 C 0.16603 0.77578 0.12706 0.0
C1415 C 0.17801 0.78903 0.11378 0.0
C1416 C 0.16695 0.75316 0.12545 0.0
C1417 C 0.19151 0.77921 0.09921 0.0
C1418 C 0.19278 0.75666 0.09773 0.0
C1419 C 0.18109 0.7208 0.1089 0.0
C1420 C 0.16813 0.70776 0.12151 0.0
C1421 C 0.18043 0.74347 0.11066 0.0
C1422 C 0.15486 0.71759 0.1362 0.0
C1423 C 0.15436 0.74008 0.13824 0.0
H1424 H 0.46233 0.93988 0.38115 0.0
H1425 H 0.46116 0.88442 0.34128 0.0
H1426 H 0.50075 0.88371 0.34073 0.0
H1427 H 0.53553 0.89855 0.3519 0.0
H1428 H 0.53678 0.95307 0.39301 0.0
H1429 H 0.49729 0.9548 0.39233 0.0
C1430 C 0.47078 0.92779 0.3722 0.0
C1431 C 0.45892 0.91222 0.36128 0.0
C1432 C 0.4935 0.92735 0.37212 0.0
C1433 C 0.47001 0.89644 0.34995 0.0
C1434 C 0.4926 0.89608 0.34958 0.0
C1435 C 0.52719 0.91069 0.36089 0.0
C1436 C 0.53915 0.9256 0.37254 0.0
C1437 C 0.50449 0.91134 0.36074 0.0
C1438 C 0.52803 0.94153 0.38371 0.0
C1439 C 0.50543 0.94245 0.38345 0.0
H1440 H 0.35101 0.2856 0.62758 0.0
H1441 H 0.29961 0.28887 0.58323 0.0
H1442 H 0.29718 0.24935 0.5829 0.0
H1443 H 0.31029 0.21373 0.59475 0.0
H1444 H 0.36275 0.21097 0.63795 0.0
H1445 H 0.36444 0.25046 0.63886 0.0
C1446 C 0.33947 0.27772 0.61759 0.0
C1447 C 0.3256 0.29024 0.60538 0.0
C1448 C 0.3384 0.25506 0.61722 0.0
C1449 C 0.31036 0.27967 0.59295 0.0
C1450 C 0.30904 0.25706 0.59266 0.0
C1451 C 0.32199 0.22185 0.60441 0.0
C1452 C 0.33642 0.20953 0.61621 0.0
C1453 C 0.32301 0.24459 0.60471 0.0
C1454 C 0.35164 0.22016 0.62856 0.0
C1455 C 0.35256 0.2427 0.62915 0.0
H1456 H 0.03444 0.0999 0.83883 0.0
H1457 H 0.03766 0.04244 0.87605 0.0
H1458 H 0.99825 0.03946 0.87541 0.0
H1459 H 0.96278 0.05459 0.86624 0.0
H1460 H 0.95954 0.1127 0.82999 0.0
H1461 H -0.00094 0.11421 0.82856 0.0
C1462 C 0.02652 0.08675 0.84685 0.0
C1463 C 0.039 0.07149 0.85755 0.0
C1464 C 0.00385 0.08535 0.84673 0.0
C1465 C 0.02849 0.0543 0.86753 0.0
C1466 C 0.00593 0.05267 0.8673 0.0
C1467 C 0.97074 0.06738 0.85777 0.0
C1468 C 0.95829 0.08355 0.8483 0.0
C1469 C 0.99344 0.06826 0.85717 0.0
C1470 C 0.96881 0.10021 0.8376 0.0
C1471 C 0.99138 0.10105 0.83673 0.0
H1472 H 0.19473 0.28503 0.89275 0.0
H1473 H 0.13194 0.28964 0.8642 0.0
H1474 H 0.12939 0.25031 0.86288 0.0
H1475 H 0.14493 0.21466 0.86946 0.0
H1476 H 0.2078 0.20941 0.89757 0.0
H1477 H 0.21062 0.24896 0.89897 0.0
C1478 C 0.18057 0.27741 0.88612 0.0
C1479 C 0.16347 0.2903 0.87877 0.0
C1480 C 0.17925 0.2547 0.88522 0.0
C1481 C 0.14515 0.28015 0.87035 0.0
C1482 C 0.14372 0.25765 0.86945 0.0
C1483 C 0.15916 0.22216 0.87609 0.0
C1484 C 0.17605 0.20915 0.88354 0.0
C1485 C 0.16063 0.24479 0.87688 0.0
C1486 C 0.19462 0.2191 0.89164 0.0
C1487 C 0.19619 0.24169 0.89252 0.0
H1488 H 0.96079 0.89271 0.13688 0.0
H1489 H 0.95601 0.96042 0.12111 0.0
H1490 H 0.99541 0.96339 0.121 0.0
H1491 H 0.03125 0.94664 0.12485 0.0
H1492 H 0.03577 0.87832 0.13828 0.0
H1493 H 0.99645 0.87578 0.13976 0.0
C1494 C 0.96833 0.90808 0.13319 0.0
C1495 C 0.95538 0.92629 0.12901 0.0
C1496 C 0.99098 0.9096 0.13276 0.0
C1497 C 0.96551 0.94619 0.12469 0.0
C1498 C 0.98807 0.94788 0.12446 0.0
C1499 C 0.02365 0.93114 0.1279 0.0
C1500 C 0.03654 0.91275 0.13155 0.0
C1501 C 0.00097 0.92967 0.12838 0.0
C1502 C 0.02634 0.89286 0.13579 0.0
C1503 C 0.00382 0.89133 0.1365 0.0
H1504 H 0.31124 0.71187 0.35376 0.0
H1505 H 0.31137 0.70801 0.41927 0.0
H1506 H 0.31028 0.74747 0.42152 0.0
H1507 H 0.31073 0.7831 0.40483 0.0
H1508 H 0.31047 0.78671 0.33934 0.0
H1509 H 0.3094 0.74727 0.33716 0.0
C1510 C 0.3106 0.71959 0.36855 0.0
C1511 C 0.31151 0.70694 0.38631 0.0
C1512 C 0.30987 0.74226 0.36974 0.0
C1513 C 0.31105 0.71734 0.40534 0.0
C1514 C 0.31031 0.73991 0.40665 0.0
C1515 C 0.3104 0.77523 0.3901 0.0
C1516 C 0.31075 0.78782 0.37229 0.0
C1517 C 0.31003 0.75253 0.38894 0.0
C1518 C 0.30998 0.77742 0.35329 0.0
C1519 C 0.30955 0.75486 0.35202 0.0
H1520 H 0.53554 0.04862 0.62723 0.0
H1521 H 0.54055 0.10664 0.66349 0.0
H1522 H 0.50115 0.10814 0.66662 0.0
H1523 H 0.46532 0.09409 0.65752 0.0
H1524 H 0.46023 0.037 0.61992 0.0
H1525 H 0.4996 0.03361 0.61941 0.0
C1526 C 0.52799 0.06139 0.63608 0.0
C1527 C 0.54089 0.07756 0.64501 0.0
C1528 C 0.50533 0.06229 0.63761 0.0
C1529 C 0.53092 0.09416 0.65625 0.0
C1530 C 0.50842 0.09499 0.6581 0.0
C1531 C 0.47281 0.08092 0.64918 0.0
C1532 C 0.4598 0.06592 0.63867 0.0
C1533 C 0.49546 0.07936 0.64853 0.0
C1534 C 0.4698 0.04867 0.62832 0.0
C1535 C 0.49234 0.04682 0.62786 0.0
H1536 H 0.84513 0.21359 0.85523 0.0
H1537 H 0.79022 0.20935 0.89538 0.0
H1538 H 0.78893 0.24902 0.89792 0.0
H1539 H 0.80443 0.28462 0.88958 0.0
H1540 H 0.85749 0.28849 0.84684 0.0
H1541 H 0.85876 0.24923 0.84479 0.0
C1542 C 0.83288 0.22145 0.86447 0.0
C1543 C 0.81789 0.20881 0.87523 0.0
C1544 C 0.83206 0.24411 0.86555 0.0
C1545 C 0.80188 0.21895 0.88699 0.0
C1546 C 0.80121 0.24154 0.88847 0.0
C1547 C 0.81606 0.27698 0.87954 0.0
C1548 C 0.83106 0.28972 0.86866 0.0
C1549 C 0.81632 0.25428 0.8779 0.0
C1550 C 0.84614 0.27928 0.85592 0.0
C1551 C 0.84677 0.25675 0.85454 0.0
H1552 H 0.66927 0.7134 0.40768 0.0
H1553 H 0.68751 0.70901 0.34446 0.0
H1554 H 0.68996 0.74836 0.34246 0.0
H1555 H 0.68483 0.78411 0.35803 0.0
H1556 H 0.66542 0.78868 0.42087 0.0
H1557 H 0.6651 0.74918 0.42353 0.0
C1558 C 0.6737 0.72104 0.39344 0.0
C1559 C 0.67816 0.7082 0.37626 0.0
C1560 C 0.67469 0.74373 0.39227 0.0
C1561 C 0.68426 0.71841 0.35802 0.0
C1562 C 0.6855 0.74096 0.3568 0.0
C1563 C 0.68084 0.77646 0.37239 0.0
C1564 C 0.67512 0.78929 0.38922 0.0
C1565 C 0.68053 0.75377 0.37376 0.0
C1566 C 0.66965 0.77914 0.40763 0.0
C1567 C 0.66953 0.75657 0.40918 0.0
H1568 H 0.80023 0.71713 0.10372 0.0
H1569 H 0.86583 0.71605 0.12659 0.0
H1570 H 0.86671 0.75538 0.12679 0.0
H1571 H 0.84896 0.79026 0.12081 0.0
H1572 H 0.78261 0.79198 0.10073 0.0
H1573 H 0.78173 0.75223 0.09946 0.0
C1574 C 0.81465 0.72545 0.10896 0.0
C1575 C 0.83304 0.71347 0.1148 0.0
C1576 C 0.8149 0.74822 0.10959 0.0
C1577 C 0.85162 0.72469 0.12141 0.0
C1578 C 0.8521 0.74726 0.12173 0.0
C1579 C 0.83437 0.78186 0.11608 0.0
C1580 C 0.81596 0.79383 0.11066 0.0
C1581 C 0.8339 0.75917 0.11579 0.0
C1582 C 0.79697 0.78294 0.10491 0.0
C1583 C 0.7965 0.76029 0.10417 0.0
H1584 H 0.69953 0.28154 0.62105 0.0
H1585 H 0.62963 0.28398 0.6224 0.0
H1586 H 0.62798 0.2446 0.62271 0.0
H1587 H 0.64618 0.20944 0.62235 0.0
H1588 H 0.71591 0.20641 0.6225 0.0
H1589 H 0.71787 0.24609 0.62231 0.0
C1590 C 0.68394 0.27347 0.62163 0.0
C1591 C 0.66474 0.28578 0.62141 0.0
C1592 C 0.68307 0.25073 0.62212 0.0
C1593 C 0.64468 0.27498 0.62204 0.0
C1594 C 0.64369 0.25244 0.62238 0.0
C1595 C 0.6618 0.21751 0.62224 0.0
C1596 C 0.68087 0.20514 0.62222 0.0
C1597 C 0.66276 0.24017 0.62227 0.0
C1598 C 0.70102 0.21568 0.62252 0.0
C1599 C 0.70213 0.23832 0.62235 0.0
H1600 H 0.03214 0.45759 0.86302 0.0
H1601 H 0.03744 0.38845 0.85459 0.0
H1602 H 0.99815 0.3851 0.85467 0.0
H1603 H 0.96239 0.40143 0.85825 0.0
H1604 H 0.95646 0.47052 0.86648 0.0
H1605 H 0.9959 0.47418 0.86587 0.0
C1606 C 0.02466 0.44181 0.86124 0.0
C1607 C 0.03773 0.42333 0.85867 0.0
C1608 C 0.00197 0.43994 0.86144 0.0
C1609 C 0.0278 0.40299 0.85623 0.0
C1610 C 0.00531 0.40102 0.85643 0.0
C1611 C 0.96967 0.41736 0.8596 0.0
C1612 C 0.95645 0.43567 0.86234 0.0
C1613 C 0.99227 0.41935 0.85908 0.0
C1614 C 0.96624 0.45611 0.86455 0.0
C1615 C 0.98879 0.45823 0.8641 0.0
H1616 H 0.52981 0.58359 0.33872 0.0
H1617 H 0.53532 0.55626 0.39884 0.0
H1618 H 0.49595 0.55392 0.40136 0.0
H1619 H 0.45999 0.56139 0.38725 0.0
H1620 H 0.45433 0.58889 0.32721 0.0
H1621 H 0.49374 0.58976 0.32404 0.0
C1622 C 0.52238 0.57717 0.35238 0.0
C1623 C 0.53548 0.57015 0.36857 0.0
C1624 C 0.49972 0.57605 0.35381 0.0
C1625 C 0.52562 0.56156 0.38607 0.0
C1626 C 0.5031 0.56034 0.38758 0.0
C1627 C 0.46736 0.56726 0.37334 0.0
C1628 C 0.45423 0.57514 0.35753 0.0
C1629 C 0.49 0.56771 0.37162 0.0
C1630 C 0.46407 0.58301 0.33972 0.0
C1631 C 0.4866 0.58343 0.33786 0.0
H1632 H 0.53418 0.44147 0.60669 0.0
H1633 H 0.53604 0.41794 0.66829 0.0
H1634 H 0.49644 0.41935 0.67015 0.0
H1635 H 0.46148 0.42529 0.65357 0.0
H1636 H 0.45964 0.44504 0.5906 0.0
H1637 H 0.49897 0.44775 0.59015 0.0
C1638 C 0.52583 0.43698 0.62057 0.0
C1639 C 0.53779 0.42973 0.63737 0.0
C1640 C 0.50311 0.43716 0.62127 0.0
C1641 C 0.52699 0.42359 0.65522 0.0
C1642 C 0.50442 0.42436 0.65626 0.0
C1643 C 0.46961 0.43001 0.63966 0.0
C1644 C 0.45744 0.43483 0.62213 0.0
C1645 C 0.49231 0.43072 0.63923 0.0
C1646 C 0.46841 0.44151 0.60445 0.0
C1647 C 0.49098 0.44287 0.60409 0.0
H1648 H 0.03867 0.58636 0.15439 0.0
H1649 H 0.04083 0.54434 0.10195 0.0
H1650 H 0.00137 0.54233 0.10169 0.0
H1651 H 0.96613 0.55466 0.11483 0.0
H1652 H 0.9641 0.59851 0.16581 0.0
H1653 H 0.00363 0.59791 0.16801 0.0
C1654 C 0.03053 0.57684 0.14282 0.0
C1655 C 0.04275 0.56563 0.12816 0.0
C1656 C 0.00784 0.5762 0.14243 0.0
C1657 C 0.0319 0.55296 0.11358 0.0
C1658 C 0.0093 0.55193 0.1133 0.0
C1659 C 0.97439 0.56382 0.12657 0.0
C1660 C 0.96234 0.57663 0.14013 0.0
C1661 C 0.9971 0.56373 0.12747 0.0
C1662 C 0.97314 0.58866 0.15514 0.0
C1663 C 0.99569 0.58831 0.1564 0.0
H1664 H 0.21166 0.53865 0.01009 0.0
H1665 H 0.18776 0.48889 0.05041 0.0
H1666 H 0.18656 0.46325 0.0224 0.0
H1667 H 0.188 0.45612 0.9859 0.0
H1668 H 0.20983 0.50605 0.94494 0.0
H1669 H 0.21627 0.53038 0.9737 0.0
C1670 C 0.20635 0.52215 0.01275 0.0
C1671 C 0.19968 0.5158 0.03231 0.0
C1672 C 0.20514 0.50755 0.99642 0.0
C1673 C 0.19322 0.49422 0.0356 0.0
C1674 C 0.19231 0.47955 0.01953 0.0
C1675 C 0.19433 0.47228 0.98332 0.0
C1676 C 0.19814 0.47943 0.96339 0.0
C1677 C 0.19757 0.48623 -0.00019 0.0
C1678 C 0.20679 0.50021 0.96019 0.0
C1679 C 0.21032 0.51416 0.9766 0.0
H1680 H 0.74273 0.9546 0.28574 0.0
H1681 H 0.68617 0.93463 0.25214 0.0
H1682 H 0.70619 0.93794 0.22024 0.0
H1683 H 0.74079 0.94227 0.20252 0.0
H1684 H 0.79772 0.96114 0.23614 0.0
H1685 H 0.77647 0.96273 0.26747 0.0
C1686 C 0.73467 0.95148 0.27139 0.0
C1687 C 0.7131 0.9442 0.27125 0.0
C1688 C 0.74639 0.95299 0.25318 0.0
C1689 C 0.70288 0.93997 0.25259 0.0
C1690 C 0.71429 0.94187 0.23438 0.0
C1691 C 0.74843 0.94727 0.2166 0.0
C1692 C 0.7708 0.95142 0.21707 0.0
C1693 C 0.73622 0.94774 0.23456 0.0
C1694 C 0.78055 0.95759 0.23548 0.0
C1695 C 0.76842 0.95851 0.25337 0.0
H1696 H 0.27798 0.46583 0.5159 0.0
H1697 H 0.3113 0.51236 0.55356 0.0
H1698 H 0.31341 0.53751 0.52507 0.0
H1699 H 0.31016 0.54419 0.48842 0.0
H1700 H 0.27716 0.49789 0.45046 0.0
H1701 H 0.27045 0.47469 0.48004 0.0
C1702 C 0.28536 0.48163 0.51789 0.0
C1703 C 0.29463 0.48717 0.53671 0.0
C1704 C 0.28682 0.49589 0.50135 0.0
C1705 C 0.30391 0.50778 0.53925 0.0
C1706 C 0.30533 0.52209 0.52292 0.0
C1707 C 0.30122 0.52916 0.48678 0.0
C1708 C 0.29436 0.5225 0.46744 0.0
C1709 C 0.29752 0.516 0.50376 0.0
C1710 C 0.28256 0.50321 0.46531 0.0
C1711 C 0.27884 0.48994 0.48216 0.0
H1712 H 0.70623 0.03728 0.73524 0.0
H1713 H 0.76004 0.03918 0.69334 0.0
H1714 H 0.78536 0.036 0.72154 0.0
H1715 H 0.79235 0.03815 0.75812 0.0
H1716 H 0.73856 0.0406 0.79999 0.0
H1717 H 0.71324 0.0363 0.77188 0.0
C1718 C 0.7235 0.03689 0.73225 0.0
C1719 C 0.73116 0.03884 0.71219 0.0
C1720 C 0.73804 0.036 0.7486 0.0
C1721 C 0.75359 0.03763 0.70857 0.0
C1722 C 0.76814 0.03604 0.72473 0.0
C1723 C 0.77509 0.03764 0.76112 0.0
C1724 C 0.76741 0.04008 0.78112 0.0
C1725 C 0.76056 0.03608 0.74481 0.0
C1726 C 0.745 0.0387 0.78479 0.0
C1727 C 0.73046 0.03645 0.76868 0.0
H1728 H 0.8349 0.45957 0.98337 0.0
H1729 H 0.77399 0.48557 0.96248 0.0
H1730 H 0.77311 0.51039 0.99148 0.0
H1731 H 0.79092 0.52616 0.02165 0.0
H1732 H 0.85148 0.49916 0.04243 0.0
H1733 H 0.85109 0.47316 0.01462 0.0
C1734 C 0.82114 0.47028 0.98537 0.0
C1735 C 0.80455 0.4707 0.97075 0.0
C1736 C 0.8208 0.48451 0.00195 0.0
C1737 C 0.78711 0.48508 0.9734 0.0
C1738 C 0.78657 0.49924 0.98999 0.0
C1739 C 0.80387 0.51439 0.02023 0.0
C1740 C 0.82138 0.51485 0.03392 0.0
C1741 C 0.80353 0.49935 0.00418 0.0
C1742 C 0.83808 0.49953 0.03182 0.0
C1743 C 0.83781 0.48454 0.016 0.0
H1744 H 0.20438 0.05275 0.75713 0.0
H1745 H 0.25813 0.0513 0.79902 0.0
H1746 H 0.28349 0.04875 0.77069 0.0
H1747 H 0.29055 0.05077 0.73405 0.0
H1748 H 0.23695 0.05388 0.69212 0.0
H1749 H 0.21138 0.05172 0.72038 0.0
C1750 C 0.22165 0.05175 0.76003 0.0
C1751 C 0.22937 0.05242 0.78012 0.0
C1752 C 0.23616 0.05069 0.74366 0.0
C1753 C 0.25174 0.05068 0.7837 0.0
C1754 C 0.26628 0.0494 0.7675 0.0
C1755 C 0.27326 0.05083 0.73112 0.0
C1756 C 0.26564 0.05272 0.71108 0.0
C1757 C 0.25869 0.04998 0.74744 0.0
C1758 C 0.24322 0.05234 0.70742 0.0
C1759 C 0.22859 0.05128 0.72358 0.0
H1760 H 0.68092 0.48983 0.45271 0.0
H1761 H 0.69124 0.55013 0.48449 0.0
H1762 H 0.69325 0.53076 0.51675 0.0
H1763 H 0.68951 0.49709 0.53617 0.0
H1764 H 0.67743 0.43698 0.50465 0.0
H1765 H 0.6788 0.45586 0.47205 0.0
C1766 C 0.68361 0.49872 0.46671 0.0
C1767 C 0.6858 0.5214 0.4662 0.0
C1768 C 0.68437 0.48753 0.48525 0.0
C1769 C 0.68971 0.53266 0.48441 0.0
C1770 C 0.69069 0.52162 0.50289 0.0
C1771 C 0.68719 0.48813 0.52215 0.0
C1772 C 0.68322 0.46571 0.52284 0.0
C1773 C 0.68764 0.49912 0.50352 0.0
C1774 C 0.68067 0.45422 0.50454 0.0
C1775 C 0.68129 0.46503 0.4859 0.0
H1776 H 0.24702 0.94175 0.28841 0.0
H1777 H 0.30507 0.95565 0.25431 0.0
H1778 H 0.28393 0.95759 0.22294 0.0
H1779 H 0.24955 0.95206 0.20498 0.0
H1780 H 0.19191 0.93643 0.23907 0.0
H1781 H 0.21218 0.9392 0.27079 0.0
C1782 C 0.25497 0.94573 0.27419 0.0
C1783 C 0.27757 0.94843 0.27363 0.0
C1784 C 0.2428 0.94645 0.25623 0.0
C1785 C 0.28771 0.95325 0.25505 0.0
C1786 C 0.27564 0.95438 0.23714 0.0
C1787 C 0.24142 0.94934 0.21937 0.0
C1788 C 0.21932 0.94383 0.21965 0.0
C1789 C 0.25329 0.95041 0.2375 0.0
C1790 C 0.20888 0.94082 0.23842 0.0
C1791 C 0.2205 0.94223 0.25656 0.0
H1792 H 0.68374 0.99555 0.53675 0.0
H1793 H 0.69337 0.0574 0.5077 0.0
H1794 H 0.6988 0.03936 0.47496 0.0
H1795 H 0.69876 0.00608 0.45437 0.0
H1796 H 0.68791 0.9444 0.48355 0.0
H1797 H 0.68546 0.96225 0.51651 0.0
C1798 C 0.68702 0.00504 0.52323 0.0
C1799 C 0.68797 0.02773 0.52454 0.0
C1800 C 0.69004 0.99459 0.50453 0.0
C1801 C 0.69264 0.03988 0.50703 0.0
C1802 C 0.69566 0.02959 0.48833 0.0
C1803 C 0.69595 0.99656 0.46797 0.0
C1804 C 0.69352 0.97395 0.46647 0.0
C1805 C 0.69411 0.00697 0.48686 0.0
C1806 C 0.69017 0.96179 0.48426 0.0
C1807 C 0.68853 0.972 0.50312 0.0
H1808 H 0.259 0.45337 0.71194 0.0
H1809 H 0.30707 0.4111 0.73797 0.0
H1810 H 0.2882 0.41194 0.77067 0.0
H1811 H 0.25654 0.42207 0.79073 0.0
H1812 H 0.20645 0.46153 0.76391 0.0
H1813 H 0.22785 0.465 0.73283 0.0
C1814 C 0.26544 0.44471 0.72494 0.0
C1815 C 0.28428 0.43221 0.72276 0.0
C1816 C 0.25412 0.44471 0.74345 0.0
C1817 C 0.29251 0.42077 0.73947 0.0
C1818 C 0.28173 0.42122 0.75808 0.0
C1819 C 0.25025 0.43139 0.77808 0.0
C1820 C 0.22978 0.44125 0.77956 0.0
C1821 C 0.26224 0.43266 0.76006 0.0
C1822 C 0.22219 0.45383 0.76323 0.0
C1823 C 0.23433 0.45568 0.74538 0.0
H1824 H 0.79637 0.00857 0.95948 0.0
H1825 H 0.83761 0.05811 0.98463 0.0
H1826 H 0.83584 0.04081 0.01804 0.0
H1827 H 0.82481 0.01034 0.03924 0.0
H1828 H 0.78662 0.95863 0.01337 0.0
H1829 H 0.78428 0.97836 0.9813 0.0
C1830 C 0.80466 0.01565 0.97241 0.0
C1831 C 0.81712 0.03447 0.96979 0.0
C1832 C 0.8041 0.00525 0.99138 0.0
C1833 C 0.82803 0.04353 0.98645 0.0
C1834 C 0.82702 0.03367 0.00547 0.0
C1835 C 0.81606 0.00328 0.02658 0.0
C1836 C 0.80618 0.98287 0.02868 0.0
C1837 C 0.81552 0.01426 0.00798 0.0
C1838 C 0.7943 0.97435 0.01227 0.0
C1839 C 0.79311 0.98554 0.99384 0.0
H1840 H 0.21125 0.53695 0.23044 0.0
H1841 H 0.26159 0.56475 0.19312 0.0
H1842 H 0.28617 0.56515 0.22207 0.0
H1843 H 0.29193 0.56174 0.25874 0.0
H1844 H 0.24171 0.53481 0.29655 0.0
H1845 H 0.21853 0.52975 0.26668 0.0
C1846 C 0.22768 0.54287 0.22865 0.0
C1847 C 0.23453 0.55098 0.20974 0.0
C1848 C 0.24167 0.54337 0.24546 0.0
C1849 C 0.25596 0.55828 0.20749 0.0
C1850 C 0.26998 0.5587 0.22407 0.0
C1851 C 0.276 0.55451 0.26033 0.0
C1852 C 0.26833 0.5489 0.2797 0.0
C1853 C 0.26279 0.5519 0.24322 0.0
C1854 C 0.24786 0.53923 0.2817 0.0
C1855 C 0.2346 0.53648 0.26468 0.0
H1856 H 0.34332 0.00482 0.53005 0.0
H1857 H 0.28065 0.03357 0.51935 0.0
H1858 H 0.27608 0.01113 0.489 0.0
H1859 H 0.29109 0.98491 0.46423 0.0
H1860 H 0.35486 0.95862 0.474 0.0
H1861 H 0.358 0.97872 0.50593 0.0
C1862 C 0.32874 0.00639 0.52099 0.0
C1863 C 0.31249 0.02106 0.52684 0.0
C1864 C 0.32648 0.9939 0.50337 0.0
C1865 C 0.29339 0.02234 0.51525 0.0
C1866 C 0.29082 0.00961 0.49783 0.0
C1867 C 0.30551 0.98352 0.47355 0.0
C1868 C 0.32274 0.97045 0.46701 0.0
C1869 C 0.30738 0.99554 0.4916 0.0
C1870 C 0.34149 0.96872 0.47891 0.0
C1871 C 0.34327 0.98018 0.49707 0.0
H1872 H 0.74871 0.55263 0.20664 0.0
H1873 H 0.80639 0.56868 0.24043 0.0
H1874 H 0.78624 0.56628 0.27228 0.0
H1875 H 0.75176 0.56268 0.29018 0.0
H1876 H 0.69352 0.54846 0.25651 0.0
H1877 H 0.71446 0.54636 0.22502 0.0
C1878 C 0.75691 0.55518 0.22102 0.0
C1879 C 0.77892 0.56102 0.22123 0.0
C1880 C 0.74513 0.55414 0.23926 0.0
C1881 C 0.78937 0.56446 0.23992 0.0
C1882 C 0.77788 0.56306 0.25811 0.0
C1883 C 0.74365 0.55909 0.27595 0.0
C1884 C 0.7211 0.55604 0.27564 0.0
C1885 C 0.75566 0.55847 0.2579 0.0
C1886 C 0.71089 0.55082 0.25718 0.0
C1887 C 0.72282 0.54979 0.23914 0.0
H1888 H 0.20085 0.95878 0.0111 0.0
H1889 H 0.17952 0.01033 0.05068 0.0
H1890 H 0.18003 0.03568 0.02234 0.0
H1891 H 0.18333 0.0425 0.98585 0.0
H1892 H 0.20365 0.99109 0.9458 0.0
H1893 H 0.20692 0.96642 0.97476 0.0
C1894 C 0.19641 0.97559 0.01349 0.0
C1895 C 0.19004 0.98262 0.03293 0.0
C1896 C 0.19647 0.99007 0.99705 0.0
C1897 C 0.18468 0.00452 0.03592 0.0
C1898 C 0.1848 0.01902 0.01969 0.0
C1899 C 0.18862 0.02592 0.98352 0.0
C1900 C 0.19302 0.0185 0.96379 0.0
C1901 C 0.1902 0.01186 0.00014 0.0
C1902 C 0.20023 0.99714 0.96092 0.0
C1903 C 0.20195 0.98302 0.97743 0.0
H1904 H 0.70152 0.44278 0.73629 0.0
H1905 H 0.7572 0.4478 0.6969 0.0
H1906 H 0.78094 0.45058 0.72644 0.0
H1907 H 0.78622 0.44748 0.76335 0.0
H1908 H 0.73066 0.4407 0.8026 0.0
H1909 H 0.70656 0.44231 0.7732 0.0
C1910 C 0.71885 0.44453 0.73417 0.0
C1911 C 0.72757 0.44484 0.71442 0.0
C1912 C 0.73246 0.44551 0.75119 0.0
C1913 C 0.75001 0.44765 0.71192 0.0
C1914 C 0.76364 0.44904 0.72881 0.0
C1915 C 0.76882 0.44679 0.76548 0.0
C1916 C 0.76022 0.4438 0.78507 0.0
C1917 C 0.75509 0.44744 0.7485 0.0
C1918 C 0.73765 0.44269 0.78761 0.0
C1919 C 0.72388 0.44367 0.77084 0.0
loop_
_geom_bond_atom_site_label_1
_geom_bond_atom_site_label_2
_geom_bond_distance
_geom_bond_site_symmetry_2
_ccdc_geom_bond_type
Li0 N17 1.990 . S
Li0 O60 1.956 . S
Li0 O61 1.970 . S
Li0 O62 1.961 . S
Li1 N25 1.990 . S
Li1 O60 1.970 . S
Li1 O61 1.956 . S
Li1 O63 1.961 . S
Li2 N47 1.990 . S
Li2 O60 1.961 . S
Li2 O62 1.956 . S
Li2 O63 1.970 . S
Li3 N53 1.990 . S
Li3 O61 1.961 . S
Li3 O62 1.970 . S
Li3 O63 1.956 . S
C4 C6 1.348 . S
C4 C7 1.356 . S
C4 O60 1.325 . S
N5 C8 1.314 . S
N5 C9 1.279 . S
C6 C4 1.348 . S
C6 C8 1.353 . S
C6 H64 0.929 . S
C7 C4 1.356 . S
C7 C9 1.358 . S
C7 H65 0.930 . S
C8 N5 1.314 . S
C8 C6 1.353 . S
C8 H66 0.930 . S
C9 N5 1.279 . S
C9 C7 1.358 . S
C9 H67 0.930 . S
C10 C13 1.348 . S
C10 C14 1.356 . S
C10 O61 1.325 . S
C11 N12 1.279 . S
C11 C14 1.358 . S
C11 H68 0.930 . S
N12 C11 1.279 . S
N12 C15 1.314 . S
C13 C10 1.348 . S
C13 C15 1.353 . S
C13 H69 0.929 . S
C14 C10 1.356 . S
C14 C11 1.358 . S
C14 H70 0.930 . S
C15 N12 1.314 . S
C15 C13 1.353 . S
C15 H71 0.930 . S
C16 N17 1.314 . S
C16 C21 1.353 . S
C16 H22 0.930 . S
N17 Li0 1.990 . S
N17 C16 1.314 . S
N17 C19 1.279 . S
C18 C19 1.358 . S
C18 C20 1.356 . S
C18 H72 0.930 . S
C19 N17 1.279 . S
C19 C18 1.358 . S
C19 H23 0.930 . S
C20 C18 1.356 . S
C20 C21 1.348 . S
C21 C16 1.353 . S
C21 C20 1.348 . S
C21 H73 0.929 . S
H22 C16 0.930 . S
H23 C19 0.930 . S
C24 N25 1.314 . S
C24 C26 1.353 . S
C24 H30 0.930 . S
N25 Li1 1.990 . S
N25 C24 1.314 . S
N25 C28 1.279 . S
C26 C24 1.353 . S
C26 C29 1.348 . S
C26 H74 0.929 . S
C27 C28 1.358 . S
C27 C29 1.356 . S
C27 H75 0.930 . S
C28 N25 1.279 . S
C28 C27 1.358 . S
C28 H31 0.930 . S
C29 C26 1.348 . S
C29 C27 1.356 . S
H30 C24 0.930 . S
H31 C28 0.930 . S
C32 C34 1.348 . S
C32 C35 1.356 . S
C32 O62 1.325 . S
N33 C36 1.314 . S
N33 C37 1.279 . S
C34 C32 1.348 . S
C34 C36 1.353 . S
C34 H76 0.929 . S
C35 C32 1.356 . S
C35 C37 1.358 . S
C35 H77 0.930 . S
C36 N33 1.314 . S
C36 C34 1.353 . S
C36 H78 0.930 . S
C37 N33 1.279 . S
C37 C35 1.358 . S
C37 H79 0.930 . S
C38 C39 1.348 . S
C38 C40 1.356 . S
C38 O63 1.325 . S
C39 C38 1.348 . S
C39 C41 1.353 . S
C39 H80 0.929 . S
C40 C38 1.356 . S
C40 C42 1.358 . S
C40 H81 0.930 . S
C41 C39 1.353 . S
C41 N43 1.314 . S
C41 H82 0.930 . S
C42 C40 1.358 . S
C42 N43 1.279 . S
C42 H83 0.930 . S
N43 C41 1.314 . S
N43 C42 1.279 . S
C44 C46 1.353 . S
C44 N47 1.314 . S
C44 H50 0.930 . S
C45 N47 1.279 . S
C45 C48 1.358 . S
C45 H51 0.930 . S
C46 C44 1.353 . S
C46 C49 1.348 . S
C46 H84 0.929 . S
N47 Li2 1.990 . S
N47 C44 1.314 . S
N47 C45 1.279 . S
C48 C45 1.358 . S
C48 C49 1.356 . S
C48 H85 0.930 . S
C49 C46 1.348 . S
C49 C48 1.356 . S
H50 C44 0.930 . S
H51 C45 0.930 . S
C52 N53 1.314 . S
C52 C54 1.353 . S
C52 H58 0.930 . S
N53 Li3 1.990 . S
N53 C52 1.314 . S
N53 C56 1.279 . S
C54 C52 1.353 . S
C54 C57 1.348 . S
C54 H86 0.929 . S
C55 C56 1.358 . S
C55 C57 1.356 . S
C55 H87 0.930 . S
C56 N53 1.279 . S
C56 C55 1.358 . S
C56 H59 0.930 . S
C57 C54 1.348 . S
C57 C55 1.356 . S
H58 C52 0.930 . S
H59 C56 0.930 . S
O60 Li0 1.956 . S
O60 Li1 1.970 . S
O60 Li2 1.961 . S
O60 C4 1.325 . S
O61 Li0 1.970 . S
O61 Li1 1.956 . S
O61 Li3 1.961 . S
O61 C10 1.325 . S
O62 Li0 1.961 . S
O62 Li2 1.956 . S
O62 Li3 1.970 . S
O62 C32 1.325 . S
O63 Li1 1.961 . S
O63 Li2 1.970 . S
O63 Li3 1.956 . S
O63 C38 1.325 . S
H64 C6 0.929 . S
H65 C7 0.930 . S
H66 C8 0.930 . S
H67 C9 0.930 . S
H68 C11 0.930 . S
H69 C13 0.929 . S
H70 C14 0.930 . S
H71 C15 0.930 . S
H72 C18 0.930 . S
H73 C21 0.929 . S
H74 C26 0.929 . S
H75 C27 0.930 . S
H76 C34 0.929 . S
H77 C35 0.930 . S
H78 C36 0.930 . S
H79 C37 0.930 . S
H80 C39 0.929 . S
H81 C40 0.930 . S
H82 C41 0.930 . S
H83 C42 0.930 . S
H84 C46 0.929 . S
H85 C48 0.930 . S
H86 C54 0.929 . S
H87 C55 0.930 . S
Li88 N105 1.990 . S
Li88 O148 1.956 . S
Li88 O149 1.970 . S
Li88 O150 1.961 . S
Li89 N113 1.990 . S
Li89 O148 1.970 . S
Li89 O149 1.956 . S
Li89 O151 1.961 . S
Li90 N135 1.990 . S
Li90 O148 1.961 . S
Li90 O150 1.956 . S
Li90 O151 1.970 . S
Li91 N141 1.990 . S
Li91 O149 1.961 . S
Li91 O150 1.970 . S
Li91 O151 1.956 . S
C92 C94 1.348 . S
C92 C95 1.356 . S
C92 O148 1.325 . S
N93 C96 1.314 . S
N93 C97 1.279 1_545 S
C94 C92 1.348 . S
C94 C96 1.353 1_565 S
C94 H152 0.929 . S
C95 C92 1.356 . S
C95 C97 1.358 . S
C95 H153 0.930 . S
C96 N93 1.314 . S
C96 C94 1.353 1_545 S
C96 H154 0.930 . S
C97 N93 1.279 1_565 S
C97 C95 1.358 . S
C97 H155 0.930 . S
C98 C101 1.348 . S
C98 C102 1.356 . S
C98 O149 1.325 . S
C99 N100 1.279 . S
C99 C102 1.358 . S
C99 H156 0.930 . S
N100 C99 1.279 . S
N100 C103 1.314 . S
C101 C98 1.348 . S
C101 C103 1.353 . S
C101 H157 0.929 . S
C102 C98 1.356 . S
C102 C99 1.358 . S
C102 H158 0.930 . S
C103 N100 1.314 . S
C103 C101 1.353 . S
C103 H159 0.930 . S
C104 N105 1.314 . S
C104 C109 1.353 . S
C104 H110 0.930 . S
N105 Li88 1.990 . S
N105 C104 1.314 . S
N105 C107 1.279 . S
C106 C107 1.358 . S
C106 C108 1.356 . S
C106 H160 0.930 . S
C107 N105 1.279 . S
C107 C106 1.358 . S
C107 H111 0.930 . S
C108 C106 1.356 . S
C108 C109 1.348 . S
C109 C104 1.353 . S
C109 C108 1.348 . S
C109 H161 0.929 . S
H110 C104 0.930 . S
H111 C107 0.930 . S
C112 N113 1.314 . S
C112 C114 1.353 . S
C112 H118 0.930 . S
N113 Li89 1.990 . S
N113 C112 1.314 . S
N113 C116 1.279 . S
C114 C112 1.353 . S
C114 C117 1.348 . S
C114 H162 0.929 . S
C115 C116 1.358 . S
C115 C117 1.356 . S
C115 H163 0.930 . S
C116 N113 1.279 . S
C116 C115 1.358 . S
C116 H119 0.930 . S
C117 C114 1.348 . S
C117 C115 1.356 . S
H118 C112 0.930 . S
H119 C116 0.930 . S
C120 C122 1.348 . S
C120 C123 1.356 . S
C120 O150 1.325 . S
N121 C124 1.314 . S
N121 C125 1.279 . S
C122 C120 1.348 . S
C122 C124 1.353 . S
C122 H164 0.929 . S
C123 C120 1.356 . S
C123 C125 1.358 . S
C123 H165 0.930 . S
C124 N121 1.314 . S
C124 C122 1.353 . S
C124 H166 0.930 . S
C125 N121 1.279 . S
C125 C123 1.358 . S
C125 H167 0.930 . S
C126 C127 1.348 . S
C126 C128 1.356 . S
C126 O151 1.325 . S
C127 C126 1.348 . S
C127 C129 1.353 . S
C127 H168 0.929 . S
C128 C126 1.356 . S
C128 C130 1.358 . S
C128 H169 0.930 . S
C129 C127 1.353 . S
C129 N131 1.314 . S
C129 H170 0.930 . S
C130 C128 1.358 . S
C130 N131 1.279 . S
C130 H171 0.930 . S
N131 C129 1.314 . S
N131 C130 1.279 . S
C132 C134 1.353 . S
C132 N135 1.314 . S
C132 H138 0.930 . S
C133 N135 1.279 . S
C133 C136 1.358 . S
C133 H139 0.930 . S
C134 C132 1.353 . S
C134 C137 1.348 . S
C134 H172 0.929 . S
N135 Li90 1.990 . S
N135 C132 1.314 . S
N135 C133 1.279 . S
C136 C133 1.358 . S
C136 C137 1.356 . S
C136 H173 0.930 . S
C137 C134 1.348 . S
C137 C136 1.356 . S
H138 C132 0.930 . S
H139 C133 0.930 . S
C140 N141 1.314 . S
C140 C142 1.353 . S
C140 H146 0.930 . S
N141 Li91 1.990 . S
N141 C140 1.314 . S
N141 C144 1.279 . S
C142 C140 1.353 . S
C142 C145 1.348 . S
C142 H174 0.929 . S
C143 C144 1.358 . S
C143 C145 1.356 . S
C143 H175 0.930 . S
C144 N141 1.279 . S
C144 C143 1.358 . S
C144 H147 0.930 . S
C145 C142 1.348 . S
C145 C143 1.356 . S
H146 C140 0.930 . S
H147 C144 0.930 . S
O148 Li88 1.956 . S
O148 Li89 1.970 . S
O148 Li90 1.961 . S
O148 C92 1.325 . S
O149 Li88 1.970 . S
O149 Li89 1.956 . S
O149 Li91 1.961 . S
O149 C98 1.325 . S
O150 Li88 1.961 . S
O150 Li90 1.956 . S
O150 Li91 1.970 . S
O150 C120 1.325 . S
O151 Li89 1.961 . S
O151 Li90 1.970 . S
O151 Li91 1.956 . S
O151 C126 1.325 . S
H152 C94 0.929 . S
H153 C95 0.930 . S
H154 C96 0.930 . S
H155 C97 0.930 . S
H156 C99 0.930 . S
H157 C101 0.929 . S
H158 C102 0.930 . S
H159 C103 0.930 . S
H160 C106 0.930 . S
H161 C109 0.929 . S
H162 C114 0.929 . S
H163 C115 0.930 . S
H164 C122 0.929 . S
H165 C123 0.930 . S
H166 C124 0.930 . S
H167 C125 0.930 . S
H168 C127 0.929 . S
H169 C128 0.930 . S
H170 C129 0.930 . S
H171 C130 0.930 . S
H172 C134 0.929 . S
H173 C136 0.930 . S
H174 C142 0.929 . S
H175 C143 0.930 . S
Li176 N193 1.990 . S
Li176 O236 1.956 . S
Li176 O237 1.970 . S
Li176 O238 1.961 . S
Li177 N201 1.990 . S
Li177 O236 1.970 . S
Li177 O237 1.956 . S
Li177 O239 1.961 . S
Li178 N223 1.990 . S
Li178 O236 1.961 . S
Li178 O238 1.956 . S
Li178 O239 1.970 . S
Li179 N229 1.990 . S
Li179 O237 1.961 . S
Li179 O238 1.970 . S
Li179 O239 1.956 . S
C180 C182 1.348 . S
C180 C183 1.356 . S
C180 O236 1.325 . S
N181 C184 1.314 . S
N181 C185 1.279 . S
C182 C180 1.348 . S
C182 C184 1.353 . S
C182 H240 0.929 . S
C183 C180 1.356 . S
C183 C185 1.358 . S
C183 H241 0.930 . S
C184 N181 1.314 . S
C184 C182 1.353 . S
C184 H242 0.930 . S
C185 N181 1.279 . S
C185 C183 1.358 . S
C185 H243 0.930 . S
C186 C189 1.348 . S
C186 C190 1.356 . S
C186 O237 1.325 . S
C187 N188 1.279 . S
C187 C190 1.358 . S
C187 H244 0.930 . S
N188 C187 1.279 . S
N188 C191 1.314 . S
C189 C186 1.348 . S
C189 C191 1.353 . S
C189 H245 0.929 . S
C190 C186 1.356 . S
C190 C187 1.358 . S
C190 H246 0.930 . S
C191 N188 1.314 . S
C191 C189 1.353 . S
C191 H247 0.930 . S
C192 N193 1.314 . S
C192 C197 1.353 . S
C192 H198 0.930 . S
N193 Li176 1.990 . S
N193 C192 1.314 . S
N193 C195 1.279 . S
C194 C195 1.358 . S
C194 C196 1.356 . S
C194 H248 0.930 . S
C195 N193 1.279 . S
C195 C194 1.358 . S
C195 H199 0.930 . S
C196 C194 1.356 . S
C196 C197 1.348 . S
C197 C192 1.353 . S
C197 C196 1.348 . S
C197 H249 0.929 . S
H198 C192 0.930 . S
H199 C195 0.930 . S
C200 N201 1.314 . S
C200 C202 1.353 . S
C200 H206 0.930 . S
N201 Li177 1.990 . S
N201 C200 1.314 . S
N201 C204 1.279 . S
C202 C200 1.353 . S
C202 C205 1.348 . S
C202 H250 0.929 . S
C203 C204 1.358 . S
C203 C205 1.356 . S
C203 H251 0.930 . S
C204 N201 1.279 . S
C204 C203 1.358 . S
C204 H207 0.930 . S
C205 C202 1.348 . S
C205 C203 1.356 . S
H206 C200 0.930 . S
H207 C204 0.930 . S
C208 C210 1.348 . S
C208 C211 1.356 . S
C208 O238 1.325 . S
N209 C212 1.314 . S
N209 C213 1.279 . S
C210 C208 1.348 . S
C210 C212 1.353 . S
C210 H252 0.929 . S
C211 C208 1.356 . S
C211 C213 1.358 . S
C211 H253 0.930 . S
C212 N209 1.314 . S
C212 C210 1.353 . S
C212 H254 0.930 . S
C213 N209 1.279 . S
C213 C211 1.358 . S
C213 H255 0.930 . S
C214 C215 1.348 . S
C214 C216 1.356 . S
C214 O239 1.325 . S
C215 C214 1.348 . S
C215 C217 1.353 . S
C215 H256 0.929 . S
C216 C214 1.356 . S
C216 C218 1.358 . S
C216 H257 0.930 . S
C217 C215 1.353 . S
C217 N219 1.314 . S
C217 H258 0.930 . S
C218 C216 1.358 . S
C218 N219 1.279 . S
C218 H259 0.930 . S
N219 C217 1.314 . S
N219 C218 1.279 . S
C220 C222 1.353 . S
C220 N223 1.314 . S
C220 H226 0.930 . S
C221 N223 1.279 . S
C221 C224 1.358 . S
C221 H227 0.930 . S
C222 C220 1.353 . S
C222 C225 1.348 . S
C222 H260 0.929 . S
N223 Li178 1.990 . S
N223 C220 1.314 . S
N223 C221 1.279 . S
C224 C221 1.358 . S
C224 C225 1.356 . S
C224 H261 0.930 . S
C225 C222 1.348 . S
C225 C224 1.356 . S
H226 C220 0.930 . S
H227 C221 0.930 . S
C228 N229 1.314 . S
C228 C230 1.353 . S
C228 H234 0.930 . S
N229 Li179 1.990 . S
N229 C228 1.314 . S
N229 C232 1.279 . S
C230 C228 1.353 . S
C230 C233 1.348 . S
C230 H262 0.929 . S
C231 C232 1.358 . S
C231 C233 1.356 . S
C231 H263 0.930 . S
C232 N229 1.279 . S
C232 C231 1.358 . S
C232 H235 0.930 . S
C233 C230 1.348 . S
C233 C231 1.356 . S
H234 C228 0.930 . S
H235 C232 0.930 . S
O236 Li176 1.956 . S
O236 Li177 1.970 . S
O236 Li178 1.961 . S
O236 C180 1.325 . S
O237 Li176 1.970 . S
O237 Li177 1.956 . S
O237 Li179 1.961 . S
O237 C186 1.325 . S
O238 Li176 1.961 . S
O238 Li178 1.956 . S
O238 Li179 1.970 . S
O238 C208 1.325 . S
O239 Li177 1.961 . S
O239 Li178 1.970 . S
O239 Li179 1.956 . S
O239 C214 1.325 . S
H240 C182 0.929 . S
H241 C183 0.930 . S
H242 C184 0.930 . S
H243 C185 0.930 . S
H244 C187 0.930 . S
H245 C189 0.929 . S
H246 C190 0.930 . S
H247 C191 0.930 . S
H248 C194 0.930 . S
H249 C197 0.929 . S
H250 C202 0.929 . S
H251 C203 0.930 . S
H252 C210 0.929 . S
H253 C211 0.930 . S
H254 C212 0.930 . S
H255 C213 0.930 . S
H256 C215 0.929 . S
H257 C216 0.930 . S
H258 C217 0.930 . S
H259 C218 0.930 . S
H260 C222 0.929 . S
H261 C224 0.930 . S
H262 C230 0.929 . S
H263 C231 0.930 . S
Li264 N281 1.990 . S
Li264 O324 1.956 . S
Li264 O325 1.970 . S
Li264 O326 1.961 . S
Li265 N289 1.990 . S
Li265 O324 1.970 . S
Li265 O325 1.956 . S
Li265 O327 1.961 . S
Li266 N311 1.990 . S
Li266 O324 1.961 . S
Li266 O326 1.956 . S
Li266 O327 1.970 . S
Li267 N317 1.990 . S
Li267 O325 1.961 . S
Li267 O326 1.970 . S
Li267 O327 1.956 . S
C268 C270 1.348 . S
C268 C271 1.356 . S
C268 O324 1.325 . S
N269 C272 1.314 . S
N269 C273 1.279 . S
C270 C268 1.348 . S
C270 C272 1.353 . S
C270 H328 0.929 . S
C271 C268 1.356 . S
C271 C273 1.358 . S
C271 H329 0.930 . S
C272 N269 1.314 . S
C272 C270 1.353 . S
C272 H330 0.930 . S
C273 N269 1.279 . S
C273 C271 1.358 . S
C273 H331 0.930 . S
C274 C277 1.348 . S
C274 C278 1.356 . S
C274 O325 1.325 . S
C275 N276 1.279 . S
C275 C278 1.358 . S
C275 H332 0.930 . S
N276 C275 1.279 . S
N276 C279 1.314 . S
C277 C274 1.348 . S
C277 C279 1.353 . S
C277 H333 0.929 . S
C278 C274 1.356 . S
C278 C275 1.358 . S
C278 H334 0.930 . S
C279 N276 1.314 . S
C279 C277 1.353 . S
C279 H335 0.930 . S
C280 N281 1.314 . S
C280 C285 1.353 . S
C280 H286 0.930 . S
N281 Li264 1.990 . S
N281 C280 1.314 . S
N281 C283 1.279 . S
C282 C283 1.358 . S
C282 C284 1.356 . S
C282 H336 0.930 . S
C283 N281 1.279 . S
C283 C282 1.358 . S
C283 H287 0.930 . S
C284 C282 1.356 . S
C284 C285 1.348 . S
C285 C280 1.353 . S
C285 C284 1.348 . S
C285 H337 0.929 . S
H286 C280 0.930 . S
H287 C283 0.930 . S
C288 N289 1.314 . S
C288 C290 1.353 . S
C288 H294 0.930 . S
N289 Li265 1.990 . S
N289 C288 1.314 . S
N289 C292 1.279 . S
C290 C288 1.353 . S
C290 C293 1.348 . S
C290 H338 0.929 . S
C291 C292 1.358 . S
C291 C293 1.356 . S
C291 H339 0.930 . S
C292 N289 1.279 . S
C292 C291 1.358 . S
C292 H295 0.930 . S
C293 C290 1.348 . S
C293 C291 1.356 . S
H294 C288 0.930 . S
H295 C292 0.930 . S
C296 C298 1.348 . S
C296 C299 1.356 . S
C296 O326 1.325 . S
N297 C300 1.314 . S
N297 C301 1.279 . S
C298 C296 1.348 . S
C298 C300 1.353 . S
C298 H340 0.929 . S
C299 C296 1.356 . S
C299 C301 1.358 . S
C299 H341 0.930 . S
C300 N297 1.314 . S
C300 C298 1.353 . S
C300 H342 0.930 . S
C301 N297 1.279 . S
C301 C299 1.358 . S
C301 H343 0.930 . S
C302 C303 1.348 . S
C302 C304 1.356 . S
C302 O327 1.325 . S
C303 C302 1.348 . S
C303 C305 1.353 1_545 S
C303 H344 0.929 . S
C304 C302 1.356 . S
C304 C306 1.358 . S
C304 H345 0.930 . S
C305 C303 1.353 1_565 S
C305 N307 1.314 . S
C305 H346 0.930 . S
C306 C304 1.358 . S
C306 N307 1.279 1_545 S
C306 H347 0.930 . S
N307 C305 1.314 . S
N307 C306 1.279 1_565 S
C308 C310 1.353 . S
C308 N311 1.314 . S
C308 H314 0.930 . S
C309 N311 1.279 . S
C309 C312 1.358 . S
C309 H315 0.930 . S
C310 C308 1.353 . S
C310 C313 1.348 . S
C310 H348 0.929 . S
N311 Li266 1.990 . S
N311 C308 1.314 . S
N311 C309 1.279 . S
C312 C309 1.358 . S
C312 C313 1.356 . S
C312 H349 0.930 . S
C313 C310 1.348 . S
C313 C312 1.356 . S
H314 C308 0.930 . S
H315 C309 0.930 . S
C316 N317 1.314 . S
C316 C318 1.353 . S
C316 H322 0.930 . S
N317 Li267 1.990 . S
N317 C316 1.314 . S
N317 C320 1.279 . S
C318 C316 1.353 . S
C318 C321 1.348 . S
C318 H350 0.929 . S
C319 C320 1.358 . S
C319 C321 1.356 . S
C319 H351 0.930 . S
C320 N317 1.279 . S
C320 C319 1.358 . S
C320 H323 0.930 . S
C321 C318 1.348 . S
C321 C319 1.356 . S
H322 C316 0.930 . S
H323 C320 0.930 . S
O324 Li264 1.956 . S
O324 Li265 1.970 . S
O324 Li266 1.961 . S
O324 C268 1.325 . S
O325 Li264 1.970 . S
O325 Li265 1.956 . S
O325 Li267 1.961 . S
O325 C274 1.325 . S
O326 Li264 1.961 . S
O326 Li266 1.956 . S
O326 Li267 1.970 . S
O326 C296 1.325 . S
O327 Li265 1.961 . S
O327 Li266 1.970 . S
O327 Li267 1.956 . S
O327 C302 1.325 . S
H328 C270 0.929 . S
H329 C271 0.930 . S
H330 C272 0.930 . S
H331 C273 0.930 . S
H332 C275 0.930 . S
H333 C277 0.929 . S
H334 C278 0.930 . S
H335 C279 0.930 . S
H336 C282 0.930 . S
H337 C285 0.929 . S
H338 C290 0.929 . S
H339 C291 0.930 . S
H340 C298 0.929 . S
H341 C299 0.930 . S
H342 C300 0.930 . S
H343 C301 0.930 . S
H344 C303 0.929 . S
H345 C304 0.930 . S
H346 C305 0.930 . S
H347 C306 0.930 . S
H348 C310 0.929 . S
H349 C312 0.930 . S
H350 C318 0.929 . S
H351 C319 0.930 . S
Li352 N369 1.990 . S
Li352 O412 1.956 . S
Li352 O413 1.970 . S
Li352 O414 1.961 . S
Li353 N377 1.990 . S
Li353 O412 1.970 . S
Li353 O413 1.956 . S
Li353 O415 1.961 . S
Li354 N399 1.990 . S
Li354 O412 1.961 . S
Li354 O414 1.956 . S
Li354 O415 1.970 . S
Li355 N405 1.990 . S
Li355 O413 1.961 . S
Li355 O414 1.970 . S
Li355 O415 1.956 . S
C356 C358 1.348 . S
C356 C359 1.356 . S
C356 O412 1.325 . S
N357 C360 1.314 . S
N357 C361 1.279 . S
C358 C356 1.348 . S
C358 C360 1.353 . S
C358 H416 0.929 . S
C359 C356 1.356 . S
C359 C361 1.358 . S
C359 H417 0.930 . S
C360 N357 1.314 . S
C360 C358 1.353 . S
C360 H418 0.930 . S
C361 N357 1.279 . S
C361 C359 1.358 . S
C361 H419 0.930 . S
C362 C365 1.348 . S
C362 C366 1.356 . S
C362 O413 1.325 . S
C363 N364 1.279 . S
C363 C366 1.358 . S
C363 H420 0.930 . S
N364 C363 1.279 . S
N364 C367 1.314 . S
C365 C362 1.348 . S
C365 C367 1.353 . S
C365 H421 0.929 . S
C366 C362 1.356 . S
C366 C363 1.358 . S
C366 H422 0.930 . S
C367 N364 1.314 . S
C367 C365 1.353 . S
C367 H423 0.930 . S
C368 N369 1.314 . S
C368 C373 1.353 . S
C368 H374 0.930 . S
N369 Li352 1.990 . S
N369 C368 1.314 . S
N369 C371 1.279 . S
C370 C371 1.358 . S
C370 C372 1.356 . S
C370 H424 0.930 . S
C371 N369 1.279 . S
C371 C370 1.358 . S
C371 H375 0.930 . S
C372 C370 1.356 . S
C372 C373 1.348 . S
C373 C368 1.353 . S
C373 C372 1.348 . S
C373 H425 0.929 . S
H374 C368 0.930 . S
H375 C371 0.930 . S
C376 N377 1.314 . S
C376 C378 1.353 . S
C376 H382 0.930 . S
N377 Li353 1.990 . S
N377 C376 1.314 . S
N377 C380 1.279 . S
C378 C376 1.353 . S
C378 C381 1.348 . S
C378 H426 0.929 . S
C379 C380 1.358 . S
C379 C381 1.356 . S
C379 H427 0.930 . S
C380 N377 1.279 . S
C380 C379 1.358 . S
C380 H383 0.930 . S
C381 C378 1.348 . S
C381 C379 1.356 . S
H382 C376 0.930 . S
H383 C380 0.930 . S
C384 C386 1.348 . S
C384 C387 1.356 . S
C384 O414 1.325 . S
N385 C388 1.314 . S
N385 C389 1.279 . S
C386 C384 1.348 . S
C386 C388 1.353 . S
C386 H428 0.929 . S
C387 C384 1.356 . S
C387 C389 1.358 . S
C387 H429 0.930 . S
C388 N385 1.314 . S
C388 C386 1.353 . S
C388 H430 0.930 . S
C389 N385 1.279 . S
C389 C387 1.358 . S
C389 H431 0.930 . S
C390 C391 1.348 . S
C390 C392 1.356 . S
C390 O415 1.325 . S
C391 C390 1.348 . S
C391 C393 1.353 . S
C391 H432 0.929 . S
C392 C390 1.356 . S
C392 C394 1.358 . S
C392 H433 0.930 . S
C393 C391 1.353 . S
C393 N395 1.314 . S
C393 H434 0.930 . S
C394 C392 1.358 . S
C394 N395 1.279 . S
C394 H435 0.930 . S
N395 C393 1.314 . S
N395 C394 1.279 . S
C396 C398 1.353 . S
C396 N399 1.314 . S
C396 H402 0.930 . S
C397 N399 1.279 . S
C397 C400 1.358 . S
C397 H403 0.930 . S
C398 C396 1.353 . S
C398 C401 1.348 . S
C398 H436 0.929 . S
N399 Li354 1.990 . S
N399 C396 1.314 . S
N399 C397 1.279 . S
C400 C397 1.358 . S
C400 C401 1.356 . S
C400 H437 0.930 . S
C401 C398 1.348 . S
C401 C400 1.356 . S
H402 C396 0.930 . S
H403 C397 0.930 . S
C404 N405 1.314 . S
C404 C406 1.353 . S
C404 H410 0.930 . S
N405 Li355 1.990 . S
N405 C404 1.314 . S
N405 C408 1.279 . S
C406 C404 1.353 . S
C406 C409 1.348 . S
C406 H438 0.929 . S
C407 C408 1.358 . S
C407 C409 1.356 . S
C407 H439 0.930 . S
C408 N405 1.279 . S
C408 C407 1.358 . S
C408 H411 0.930 . S
C409 C406 1.348 . S
C409 C407 1.356 . S
H410 C404 0.930 . S
H411 C408 0.930 . S
O412 Li352 1.956 . S
O412 Li353 1.970 . S
O412 Li354 1.961 . S
O412 C356 1.325 . S
O413 Li352 1.970 . S
O413 Li353 1.956 . S
O413 Li355 1.961 . S
O413 C362 1.325 . S
O414 Li352 1.961 . S
O414 Li354 1.956 . S
O414 Li355 1.970 . S
O414 C384 1.325 . S
O415 Li353 1.961 . S
O415 Li354 1.970 . S
O415 Li355 1.956 . S
O415 C390 1.325 . S
H416 C358 0.929 . S
H417 C359 0.930 . S
H418 C360 0.930 . S
H419 C361 0.930 . S
H420 C363 0.930 . S
H421 C365 0.929 . S
H422 C366 0.930 . S
H423 C367 0.930 . S
H424 C370 0.930 . S
H425 C373 0.929 . S
H426 C378 0.929 . S
H427 C379 0.930 . S
H428 C386 0.929 . S
H429 C387 0.930 . S
H430 C388 0.930 . S
H431 C389 0.930 . S
H432 C391 0.929 . S
H433 C392 0.930 . S
H434 C393 0.930 . S
H435 C394 0.930 . S
H436 C398 0.929 . S
H437 C400 0.930 . S
H438 C406 0.929 . S
H439 C407 0.930 . S
Li440 N457 1.990 . S
Li440 O500 1.956 . S
Li440 O501 1.970 . S
Li440 O502 1.961 . S
Li441 N465 1.990 . S
Li441 O500 1.970 . S
Li441 O501 1.956 . S
Li441 O503 1.961 . S
Li442 N487 1.990 . S
Li442 O500 1.961 . S
Li442 O502 1.956 . S
Li442 O503 1.970 . S
Li443 N493 1.990 . S
Li443 O501 1.961 . S
Li443 O502 1.970 . S
Li443 O503 1.956 . S
C444 C446 1.348 . S
C444 C447 1.356 . S
C444 O500 1.325 . S
N445 C448 1.314 . S
N445 C449 1.279 . S
C446 C444 1.348 . S
C446 C448 1.353 . S
C446 H504 0.929 . S
C447 C444 1.356 . S
C447 C449 1.358 . S
C447 H505 0.930 . S
C448 N445 1.314 . S
C448 C446 1.353 . S
C448 H506 0.930 . S
C449 N445 1.279 . S
C449 C447 1.358 . S
C449 H507 0.930 . S
C450 C453 1.348 . S
C450 C454 1.356 . S
C450 O501 1.325 . S
C451 N452 1.279 1_565 S
C451 C454 1.358 . S
C451 H508 0.930 . S
N452 C451 1.279 1_545 S
N452 C455 1.314 . S
C453 C450 1.348 . S
C453 C455 1.353 1_565 S
C453 H509 0.929 . S
C454 C450 1.356 . S
C454 C451 1.358 . S
C454 H510 0.930 . S
C455 N452 1.314 . S
C455 C453 1.353 1_545 S
C455 H511 0.930 . S
C456 N457 1.314 . S
C456 C461 1.353 . S
C456 H462 0.930 . S
N457 Li440 1.990 . S
N457 C456 1.314 . S
N457 C459 1.279 . S
C458 C459 1.358 . S
C458 C460 1.356 . S
C458 H512 0.930 . S
C459 N457 1.279 . S
C459 C458 1.358 . S
C459 H463 0.930 . S
C460 C458 1.356 . S
C460 C461 1.348 . S
C461 C456 1.353 . S
C461 C460 1.348 . S
C461 H513 0.929 . S
H462 C456 0.930 . S
H463 C459 0.930 . S
C464 N465 1.314 . S
C464 C466 1.353 . S
C464 H470 0.930 . S
N465 Li441 1.990 . S
N465 C464 1.314 . S
N465 C468 1.279 . S
C466 C464 1.353 . S
C466 C469 1.348 . S
C466 H514 0.929 . S
C467 C468 1.358 . S
C467 C469 1.356 . S
C467 H515 0.930 . S
C468 N465 1.279 . S
C468 C467 1.358 . S
C468 H471 0.930 . S
C469 C466 1.348 . S
C469 C467 1.356 . S
H470 C464 0.930 . S
H471 C468 0.930 . S
C472 C474 1.348 . S
C472 C475 1.356 . S
C472 O502 1.325 . S
N473 C476 1.314 . S
N473 C477 1.279 . S
C474 C472 1.348 . S
C474 C476 1.353 . S
C474 H516 0.929 . S
C475 C472 1.356 . S
C475 C477 1.358 . S
C475 H517 0.930 . S
C476 N473 1.314 . S
C476 C474 1.353 . S
C476 H518 0.930 . S
C477 N473 1.279 . S
C477 C475 1.358 . S
C477 H519 0.930 . S
C478 C479 1.348 . S
C478 C480 1.356 . S
C478 O503 1.325 . S
C479 C478 1.348 . S
C479 C481 1.353 . S
C479 H520 0.929 . S
C480 C478 1.356 . S
C480 C482 1.358 . S
C480 H521 0.930 . S
C481 C479 1.353 . S
C481 N483 1.314 . S
C481 H522 0.930 . S
C482 C480 1.358 . S
C482 N483 1.279 . S
C482 H523 0.930 . S
N483 C481 1.314 . S
N483 C482 1.279 . S
C484 C486 1.353 . S
C484 N487 1.314 . S
C484 H490 0.930 . S
C485 N487 1.279 . S
C485 C488 1.358 . S
C485 H491 0.930 . S
C486 C484 1.353 . S
C486 C489 1.348 . S
C486 H524 0.929 . S
N487 Li442 1.990 . S
N487 C484 1.314 . S
N487 C485 1.279 . S
C488 C485 1.358 . S
C488 C489 1.356 . S
C488 H525 0.930 . S
C489 C486 1.348 . S
C489 C488 1.356 . S
H490 C484 0.930 . S
H491 C485 0.930 . S
C492 N493 1.314 . S
C492 C494 1.353 . S
C492 H498 0.930 . S
N493 Li443 1.990 . S
N493 C492 1.314 . S
N493 C496 1.279 . S
C494 C492 1.353 . S
C494 C497 1.348 . S
C494 H526 0.929 . S
C495 C496 1.358 . S
C495 C497 1.356 . S
C495 H527 0.930 . S
C496 N493 1.279 . S
C496 C495 1.358 . S
C496 H499 0.930 . S
C497 C494 1.348 . S
C497 C495 1.356 . S
H498 C492 0.930 . S
H499 C496 0.930 . S
O500 Li440 1.956 . S
O500 Li441 1.970 . S
O500 Li442 1.961 . S
O500 C444 1.325 . S
O501 Li440 1.970 . S
O501 Li441 1.956 . S
O501 Li443 1.961 . S
O501 C450 1.325 . S
O502 Li440 1.961 . S
O502 Li442 1.956 . S
O502 Li443 1.970 . S
O502 C472 1.325 . S
O503 Li441 1.961 . S
O503 Li442 1.970 . S
O503 Li443 1.956 . S
O503 C478 1.325 . S
H504 C446 0.929 . S
H505 C447 0.930 . S
H506 C448 0.930 . S
H507 C449 0.930 . S
H508 C451 0.930 . S
H509 C453 0.929 . S
H510 C454 0.930 . S
H511 C455 0.930 . S
H512 C458 0.930 . S
H513 C461 0.929 . S
H514 C466 0.929 . S
H515 C467 0.930 . S
H516 C474 0.929 . S
H517 C475 0.930 . S
H518 C476 0.930 . S
H519 C477 0.930 . S
H520 C479 0.929 . S
H521 C480 0.930 . S
H522 C481 0.930 . S
H523 C482 0.930 . S
H524 C486 0.929 . S
H525 C488 0.930 . S
H526 C494 0.929 . S
H527 C495 0.930 . S
Li528 N545 1.990 . S
Li528 O588 1.956 . S
Li528 O589 1.970 . S
Li528 O590 1.961 . S
Li529 N553 1.990 . S
Li529 O588 1.970 . S
Li529 O589 1.956 . S
Li529 O591 1.961 . S
Li530 N575 1.990 . S
Li530 O588 1.961 . S
Li530 O590 1.956 . S
Li530 O591 1.970 . S
Li531 N581 1.990 . S
Li531 O589 1.961 . S
Li531 O590 1.970 . S
Li531 O591 1.956 . S
C532 C534 1.348 . S
C532 C535 1.356 . S
C532 O588 1.325 . S
N533 C536 1.314 . S
N533 C537 1.279 . S
C534 C532 1.348 . S
C534 C536 1.353 . S
C534 H592 0.929 . S
C535 C532 1.356 . S
C535 C537 1.358 . S
C535 H593 0.930 . S
C536 N533 1.314 . S
C536 C534 1.353 . S
C536 H594 0.930 . S
C537 N533 1.279 . S
C537 C535 1.358 . S
C537 H595 0.930 . S
C538 C541 1.348 . S
C538 C542 1.356 . S
C538 O589 1.325 . S
C539 N540 1.279 . S
C539 C542 1.358 . S
C539 H596 0.930 . S
N540 C539 1.279 . S
N540 C543 1.314 . S
C541 C538 1.348 . S
C541 C543 1.353 . S
C541 H597 0.929 . S
C542 C538 1.356 . S
C542 C539 1.358 . S
C542 H598 0.930 . S
C543 N540 1.314 . S
C543 C541 1.353 . S
C543 H599 0.930 . S
C544 N545 1.314 . S
C544 C549 1.353 . S
C544 H550 0.930 . S
N545 Li528 1.990 . S
N545 C544 1.314 . S
N545 C547 1.279 . S
C546 C547 1.358 . S
C546 C548 1.356 . S
C546 H600 0.930 . S
C547 N545 1.279 . S
C547 C546 1.358 . S
C547 H551 0.930 . S
C548 C546 1.356 . S
C548 C549 1.348 . S
C549 C544 1.353 . S
C549 C548 1.348 . S
C549 H601 0.929 . S
H550 C544 0.930 . S
H551 C547 0.930 . S
C552 N553 1.314 . S
C552 C554 1.353 . S
C552 H558 0.930 . S
N553 Li529 1.990 . S
N553 C552 1.314 . S
N553 C556 1.279 . S
C554 C552 1.353 . S
C554 C557 1.348 . S
C554 H602 0.929 . S
C555 C556 1.358 . S
C555 C557 1.356 . S
C555 H603 0.930 . S
C556 N553 1.279 . S
C556 C555 1.358 . S
C556 H559 0.930 . S
C557 C554 1.348 . S
C557 C555 1.356 . S
H558 C552 0.930 . S
H559 C556 0.930 . S
C560 C562 1.348 . S
C560 C563 1.356 . S
C560 O590 1.325 . S
N561 C564 1.314 . S
N561 C565 1.279 . S
C562 C560 1.348 . S
C562 C564 1.353 . S
C562 H604 0.929 . S
C563 C560 1.356 . S
C563 C565 1.358 . S
C563 H605 0.930 . S
C564 N561 1.314 . S
C564 C562 1.353 . S
C564 H606 0.930 . S
C565 N561 1.279 . S
C565 C563 1.358 . S
C565 H607 0.930 . S
C566 C567 1.348 . S
C566 C568 1.356 . S
C566 O591 1.325 . S
C567 C566 1.348 . S
C567 C569 1.353 . S
C567 H608 0.929 . S
C568 C566 1.356 . S
C568 C570 1.358 . S
C568 H609 0.930 . S
C569 C567 1.353 . S
C569 N571 1.314 . S
C569 H610 0.930 . S
C570 C568 1.358 . S
C570 N571 1.279 . S
C570 H611 0.930 . S
N571 C569 1.314 . S
N571 C570 1.279 . S
C572 C574 1.353 . S
C572 N575 1.314 . S
C572 H578 0.930 . S
C573 N575 1.279 . S
C573 C576 1.358 . S
C573 H579 0.930 . S
C574 C572 1.353 . S
C574 C577 1.348 . S
C574 H612 0.929 . S
N575 Li530 1.990 . S
N575 C572 1.314 . S
N575 C573 1.279 . S
C576 C573 1.358 . S
C576 C577 1.356 . S
C576 H613 0.930 . S
C577 C574 1.348 . S
C577 C576 1.356 . S
H578 C572 0.930 . S
H579 C573 0.930 . S
C580 N581 1.314 . S
C580 C582 1.353 . S
C580 H586 0.930 . S
N581 Li531 1.990 . S
N581 C580 1.314 . S
N581 C584 1.279 . S
C582 C580 1.353 . S
C582 C585 1.348 . S
C582 H614 0.929 . S
C583 C584 1.358 . S
C583 C585 1.356 . S
C583 H615 0.930 . S
C584 N581 1.279 . S
C584 C583 1.358 . S
C584 H587 0.930 . S
C585 C582 1.348 . S
C585 C583 1.356 . S
H586 C580 0.930 . S
H587 C584 0.930 . S
O588 Li528 1.956 . S
O588 Li529 1.970 . S
O588 Li530 1.961 . S
O588 C532 1.325 . S
O589 Li528 1.970 . S
O589 Li529 1.956 . S
O589 Li531 1.961 . S
O589 C538 1.325 . S
O590 Li528 1.961 . S
O590 Li530 1.956 . S
O590 Li531 1.970 . S
O590 C560 1.325 . S
O591 Li529 1.961 . S
O591 Li530 1.970 . S
O591 Li531 1.956 . S
O591 C566 1.325 . S
H592 C534 0.929 . S
H593 C535 0.930 . S
H594 C536 0.930 . S
H595 C537 0.930 . S
H596 C539 0.930 . S
H597 C541 0.929 . S
H598 C542 0.930 . S
H599 C543 0.930 . S
H600 C546 0.930 . S
H601 C549 0.929 . S
H602 C554 0.929 . S
H603 C555 0.930 . S
H604 C562 0.929 . S
H605 C563 0.930 . S
H606 C564 0.930 . S
H607 C565 0.930 . S
H608 C567 0.929 . S
H609 C568 0.930 . S
H610 C569 0.930 . S
H611 C570 0.930 . S
H612 C574 0.929 . S
H613 C576 0.930 . S
H614 C582 0.929 . S
H615 C583 0.930 . S
Li616 N633 1.990 . S
Li616 O676 1.956 . S
Li616 O677 1.970 . S
Li616 O678 1.961 . S
Li617 N641 1.990 . S
Li617 O676 1.970 . S
Li617 O677 1.956 . S
Li617 O679 1.961 . S
Li618 N663 1.990 . S
Li618 O676 1.961 . S
Li618 O678 1.956 . S
Li618 O679 1.970 . S
Li619 N669 1.990 . S
Li619 O677 1.961 . S
Li619 O678 1.970 . S
Li619 O679 1.956 . S
C620 C622 1.348 . S
C620 C623 1.356 . S
C620 O676 1.325 . S
N621 C624 1.314 . S
N621 C625 1.279 . S
C622 C620 1.348 . S
C622 C624 1.353 . S
C622 H680 0.929 . S
C623 C620 1.356 . S
C623 C625 1.358 . S
C623 H681 0.930 . S
C624 N621 1.314 . S
C624 C622 1.353 . S
C624 H682 0.930 . S
C625 N621 1.279 . S
C625 C623 1.358 . S
C625 H683 0.930 . S
C626 C629 1.348 . S
C626 C630 1.356 . S
C626 O677 1.325 . S
C627 N628 1.279 . S
C627 C630 1.358 . S
C627 H684 0.930 . S
N628 C627 1.279 . S
N628 C631 1.314 . S
C629 C626 1.348 . S
C629 C631 1.353 . S
C629 H685 0.929 . S
C630 C626 1.356 . S
C630 C627 1.358 . S
C630 H686 0.930 . S
C631 N628 1.314 . S
C631 C629 1.353 . S
C631 H687 0.930 . S
C632 N633 1.314 . S
C632 C637 1.353 . S
C632 H638 0.930 . S
N633 Li616 1.990 . S
N633 C632 1.314 . S
N633 C635 1.279 . S
C634 C635 1.358 . S
C634 C636 1.356 . S
C634 H688 0.930 . S
C635 N633 1.279 . S
C635 C634 1.358 . S
C635 H639 0.930 . S
C636 C634 1.356 . S
C636 C637 1.348 . S
C637 C632 1.353 . S
C637 C636 1.348 . S
C637 H689 0.929 . S
H638 C632 0.930 . S
H639 C635 0.930 . S
C640 N641 1.314 . S
C640 C642 1.353 . S
C640 H646 0.930 . S
N641 Li617 1.990 . S
N641 C640 1.314 . S
N641 C644 1.279 . S
C642 C640 1.353 . S
C642 C645 1.348 . S
C642 H690 0.929 . S
C643 C644 1.358 . S
C643 C645 1.356 . S
C643 H691 0.930 . S
C644 N641 1.279 . S
C644 C643 1.358 . S
C644 H647 0.930 . S
C645 C642 1.348 . S
C645 C643 1.356 . S
H646 C640 0.930 . S
H647 C644 0.930 . S
C648 C650 1.348 . S
C648 C651 1.356 . S
C648 O678 1.325 . S
N649 C652 1.314 . S
N649 C653 1.279 . S
C650 C648 1.348 . S
C650 C652 1.353 . S
C650 H692 0.929 . S
C651 C648 1.356 . S
C651 C653 1.358 . S
C651 H693 0.930 . S
C652 N649 1.314 . S
C652 C650 1.353 . S
C652 H694 0.930 . S
C653 N649 1.279 . S
C653 C651 1.358 . S
C653 H695 0.930 . S
C654 C655 1.348 . S
C654 C656 1.356 . S
C654 O679 1.325 . S
C655 C654 1.348 . S
C655 C657 1.353 1_545 S
C655 H696 0.929 . S
C656 C654 1.356 . S
C656 C658 1.358 . S
C656 H697 0.930 . S
C657 C655 1.353 1_565 S
C657 N659 1.314 . S
C657 H698 0.930 . S
C658 C656 1.358 . S
C658 N659 1.279 1_545 S
C658 H699 0.930 . S
N659 C657 1.314 . S
N659 C658 1.279 1_565 S
C660 C662 1.353 . S
C660 N663 1.314 . S
C660 H666 0.930 . S
C661 N663 1.279 . S
C661 C664 1.358 . S
C661 H667 0.930 . S
C662 C660 1.353 . S
C662 C665 1.348 . S
C662 H700 0.929 . S
N663 Li618 1.990 . S
N663 C660 1.314 . S
N663 C661 1.279 . S
C664 C661 1.358 . S
C664 C665 1.356 . S
C664 H701 0.930 . S
C665 C662 1.348 . S
C665 C664 1.356 . S
H666 C660 0.930 . S
H667 C661 0.930 . S
C668 N669 1.314 . S
C668 C670 1.353 . S
C668 H674 0.930 . S
N669 Li619 1.990 . S
N669 C668 1.314 . S
N669 C672 1.279 . S
C670 C668 1.353 . S
C670 C673 1.348 . S
C670 H702 0.929 . S
C671 C672 1.358 . S
C671 C673 1.356 . S
C671 H703 0.930 . S
C672 N669 1.279 . S
C672 C671 1.358 . S
C672 H675 0.930 . S
C673 C670 1.348 . S
C673 C671 1.356 . S
H674 C668 0.930 . S
H675 C672 0.930 . S
O676 Li616 1.956 . S
O676 Li617 1.970 . S
O676 Li618 1.961 . S
O676 C620 1.325 . S
O677 Li616 1.970 . S
O677 Li617 1.956 . S
O677 Li619 1.961 . S
O677 C626 1.325 . S
O678 Li616 1.961 . S
O678 Li618 1.956 . S
O678 Li619 1.970 . S
O678 C648 1.325 . S
O679 Li617 1.961 . S
O679 Li618 1.970 . S
O679 Li619 1.956 . S
O679 C654 1.325 . S
H680 C622 0.929 . S
H681 C623 0.930 . S
H682 C624 0.930 . S
H683 C625 0.930 . S
H684 C627 0.930 . S
H685 C629 0.929 . S
H686 C630 0.930 . S
H687 C631 0.930 . S
H688 C634 0.930 . S
H689 C637 0.929 . S
H690 C642 0.929 . S
H691 C643 0.930 . S
H692 C650 0.929 . S
H693 C651 0.930 . S
H694 C652 0.930 . S
H695 C653 0.930 . S
H696 C655 0.929 . S
H697 C656 0.930 . S
H698 C657 0.930 . S
H699 C658 0.930 . S
H700 C662 0.929 . S
H701 C664 0.930 . S
H702 C670 0.929 . S
H703 C671 0.930 . S
Li704 N721 1.990 . S
Li704 O764 1.956 . S
Li704 O765 1.970 . S
Li704 O766 1.961 . S
Li705 N729 1.990 . S
Li705 O764 1.970 . S
Li705 O765 1.956 . S
Li705 O767 1.961 . S
Li706 N751 1.990 . S
Li706 O764 1.961 . S
Li706 O766 1.956 . S
Li706 O767 1.970 . S
Li707 N757 1.990 . S
Li707 O765 1.961 . S
Li707 O766 1.970 . S
Li707 O767 1.956 . S
C708 C710 1.348 . S
C708 C711 1.356 . S
C708 O764 1.325 . S
N709 C712 1.314 . S
N709 C713 1.279 . S
C710 C708 1.348 . S
C710 C712 1.353 . S
C710 H768 0.929 . S
C711 C708 1.356 . S
C711 C713 1.358 . S
C711 H769 0.930 . S
C712 N709 1.314 . S
C712 C710 1.353 . S
C712 H770 0.930 . S
C713 N709 1.279 . S
C713 C711 1.358 . S
C713 H771 0.930 . S
C714 C717 1.348 . S
C714 C718 1.356 . S
C714 O765 1.325 . S
C715 N716 1.279 . S
C715 C718 1.358 . S
C715 H772 0.930 . S
N716 C715 1.279 . S
N716 C719 1.314 . S
C717 C714 1.348 . S
C717 C719 1.353 . S
C717 H773 0.929 . S
C718 C714 1.356 . S
C718 C715 1.358 . S
C718 H774 0.930 . S
C719 N716 1.314 . S
C719 C717 1.353 . S
C719 H775 0.930 . S
C720 N721 1.314 . S
C720 C725 1.353 . S
C720 H726 0.930 . S
N721 Li704 1.990 . S
N721 C720 1.314 . S
N721 C723 1.279 . S
C722 C723 1.358 . S
C722 C724 1.356 . S
C722 H776 0.930 . S
C723 N721 1.279 . S
C723 C722 1.358 . S
C723 H727 0.930 . S
C724 C722 1.356 . S
C724 C725 1.348 . S
C725 C720 1.353 . S
C725 C724 1.348 . S
C725 H777 0.929 . S
H726 C720 0.930 . S
H727 C723 0.930 . S
C728 N729 1.314 . S
C728 C730 1.353 . S
C728 H734 0.930 . S
N729 Li705 1.990 . S
N729 C728 1.314 . S
N729 C732 1.279 . S
C730 C728 1.353 . S
C730 C733 1.348 . S
C730 H778 0.929 . S
C731 C732 1.358 . S
C731 C733 1.356 . S
C731 H779 0.930 . S
C732 N729 1.279 . S
C732 C731 1.358 . S
C732 H735 0.930 . S
C733 C730 1.348 . S
C733 C731 1.356 . S
H734 C728 0.930 . S
H735 C732 0.930 . S
C736 C738 1.348 . S
C736 C739 1.356 . S
C736 O766 1.325 . S
N737 C740 1.314 . S
N737 C741 1.279 . S
C738 C736 1.348 . S
C738 C740 1.353 . S
C738 H780 0.929 . S
C739 C736 1.356 . S
C739 C741 1.358 . S
C739 H781 0.930 . S
C740 N737 1.314 . S
C740 C738 1.353 . S
C740 H782 0.930 . S
C741 N737 1.279 . S
C741 C739 1.358 . S
C741 H783 0.930 . S
C742 C743 1.348 . S
C742 C744 1.356 . S
C742 O767 1.325 . S
C743 C742 1.348 . S
C743 C745 1.353 . S
C743 H784 0.929 . S
C744 C742 1.356 . S
C744 C746 1.358 . S
C744 H785 0.930 . S
C745 C743 1.353 . S
C745 N747 1.314 . S
C745 H786 0.930 . S
C746 C744 1.358 . S
C746 N747 1.279 . S
C746 H787 0.930 . S
N747 C745 1.314 . S
N747 C746 1.279 . S
C748 C750 1.353 . S
C748 N751 1.314 . S
C748 H754 0.930 . S
C749 N751 1.279 . S
C749 C752 1.358 . S
C749 H755 0.930 . S
C750 C748 1.353 . S
C750 C753 1.348 . S
C750 H788 0.929 . S
N751 Li706 1.990 . S
N751 C748 1.314 . S
N751 C749 1.279 . S
C752 C749 1.358 . S
C752 C753 1.356 . S
C752 H789 0.930 . S
C753 C750 1.348 . S
C753 C752 1.356 . S
H754 C748 0.930 . S
H755 C749 0.930 . S
C756 N757 1.314 . S
C756 C758 1.353 . S
C756 H762 0.930 . S
N757 Li707 1.990 . S
N757 C756 1.314 . S
N757 C760 1.279 . S
C758 C756 1.353 . S
C758 C761 1.348 . S
C758 H790 0.929 . S
C759 C760 1.358 . S
C759 C761 1.356 . S
C759 H791 0.930 . S
C760 N757 1.279 . S
C760 C759 1.358 . S
C760 H763 0.930 . S
C761 C758 1.348 . S
C761 C759 1.356 . S
H762 C756 0.930 . S
H763 C760 0.930 . S
O764 Li704 1.956 . S
O764 Li705 1.970 . S
O764 Li706 1.961 . S
O764 C708 1.325 . S
O765 Li704 1.970 . S
O765 Li705 1.956 . S
O765 Li707 1.961 . S
O765 C714 1.325 . S
O766 Li704 1.961 . S
O766 Li706 1.956 . S
O766 Li707 1.970 . S
O766 C736 1.325 . S
O767 Li705 1.961 . S
O767 Li706 1.970 . S
O767 Li707 1.956 . S
O767 C742 1.325 . S
H768 C710 0.929 . S
H769 C711 0.930 . S
H770 C712 0.930 . S
H771 C713 0.930 . S
H772 C715 0.930 . S
H773 C717 0.929 . S
H774 C718 0.930 . S
H775 C719 0.930 . S
H776 C722 0.930 . S
H777 C725 0.929 . S
H778 C730 0.929 . S
H779 C731 0.930 . S
H780 C738 0.929 . S
H781 C739 0.930 . S
H782 C740 0.930 . S
H783 C741 0.930 . S
H784 C743 0.929 . S
H785 C744 0.930 . S
H786 C745 0.930 . S
H787 C746 0.930 . S
H788 C750 0.929 . S
H789 C752 0.930 . S
H790 C758 0.929 . S
H791 C759 0.930 . S
Li792 N809 1.990 . S
Li792 O852 1.956 . S
Li792 O853 1.970 . S
Li792 O854 1.961 . S
Li793 N817 1.990 . S
Li793 O852 1.970 . S
Li793 O853 1.956 . S
Li793 O855 1.961 . S
Li794 N839 1.990 . S
Li794 O852 1.961 . S
Li794 O854 1.956 . S
Li794 O855 1.970 . S
Li795 N845 1.990 . S
Li795 O853 1.961 . S
Li795 O854 1.970 . S
Li795 O855 1.956 . S
C796 C798 1.348 . S
C796 C799 1.356 . S
C796 O852 1.325 . S
N797 C800 1.314 . S
N797 C801 1.279 . S
C798 C796 1.348 . S
C798 C800 1.353 . S
C798 H856 0.929 . S
C799 C796 1.356 . S
C799 C801 1.358 . S
C799 H857 0.930 . S
C800 N797 1.314 . S
C800 C798 1.353 . S
C800 H858 0.930 . S
C801 N797 1.279 . S
C801 C799 1.358 . S
C801 H859 0.930 . S
C802 C805 1.348 . S
C802 C806 1.356 . S
C802 O853 1.325 . S
C803 N804 1.279 . S
C803 C806 1.358 . S
C803 H860 0.930 . S
N804 C803 1.279 . S
N804 C807 1.314 . S
C805 C802 1.348 . S
C805 C807 1.353 . S
C805 H861 0.929 . S
C806 C802 1.356 . S
C806 C803 1.358 . S
C806 H862 0.930 . S
C807 N804 1.314 . S
C807 C805 1.353 . S
C807 H863 0.930 . S
C808 N809 1.314 . S
C808 C813 1.353 . S
C808 H814 0.930 . S
N809 Li792 1.990 . S
N809 C808 1.314 . S
N809 C811 1.279 . S
C810 C811 1.358 . S
C810 C812 1.356 . S
C810 H864 0.930 . S
C811 N809 1.279 . S
C811 C810 1.358 . S
C811 H815 0.930 . S
C812 C810 1.356 . S
C812 C813 1.348 . S
C813 C808 1.353 . S
C813 C812 1.348 . S
C813 H865 0.929 . S
H814 C808 0.930 . S
H815 C811 0.930 . S
C816 N817 1.314 . S
C816 C818 1.353 . S
C816 H822 0.930 . S
N817 Li793 1.990 . S
N817 C816 1.314 . S
N817 C820 1.279 . S
C818 C816 1.353 . S
C818 C821 1.348 . S
C818 H866 0.929 . S
C819 C820 1.358 . S
C819 C821 1.356 . S
C819 H867 0.930 . S
C820 N817 1.279 . S
C820 C819 1.358 . S
C820 H823 0.930 . S
C821 C818 1.348 . S
C821 C819 1.356 . S
H822 C816 0.930 . S
H823 C820 0.930 . S
C824 C826 1.348 . S
C824 C827 1.356 . S
C824 O854 1.325 . S
N825 C828 1.314 . S
N825 C829 1.279 . S
C826 C824 1.348 . S
C826 C828 1.353 . S
C826 H868 0.929 . S
C827 C824 1.356 . S
C827 C829 1.358 . S
C827 H869 0.930 . S
C828 N825 1.314 . S
C828 C826 1.353 . S
C828 H870 0.930 . S
C829 N825 1.279 . S
C829 C827 1.358 . S
C829 H871 0.930 . S
C830 C831 1.348 . S
C830 C832 1.356 . S
C830 O855 1.325 . S
C831 C830 1.348 . S
C831 C833 1.353 1_545 S
C831 H872 0.929 . S
C832 C830 1.356 . S
C832 C834 1.358 . S
C832 H873 0.930 . S
C833 C831 1.353 1_565 S
C833 N835 1.314 . S
C833 H874 0.930 . S
C834 C832 1.358 . S
C834 N835 1.279 1_545 S
C834 H875 0.930 . S
N835 C833 1.314 . S
N835 C834 1.279 1_565 S
C836 C838 1.353 . S
C836 N839 1.314 . S
C836 H842 0.930 . S
C837 N839 1.279 . S
C837 C840 1.358 . S
C837 H843 0.930 . S
C838 C836 1.353 . S
C838 C841 1.348 . S
C838 H876 0.929 . S
N839 Li794 1.990 . S
N839 C836 1.314 . S
N839 C837 1.279 . S
C840 C837 1.358 . S
C840 C841 1.356 . S
C840 H877 0.930 . S
C841 C838 1.348 . S
C841 C840 1.356 . S
H842 C836 0.930 . S
H843 C837 0.930 . S
C844 N845 1.314 . S
C844 C846 1.353 . S
C844 H850 0.930 . S
N845 Li795 1.990 . S
N845 C844 1.314 . S
N845 C848 1.279 . S
C846 C844 1.353 . S
C846 C849 1.348 . S
C846 H878 0.929 . S
C847 C848 1.358 . S
C847 C849 1.356 . S
C847 H879 0.930 . S
C848 N845 1.279 . S
C848 C847 1.358 . S
C848 H851 0.930 . S
C849 C846 1.348 . S
C849 C847 1.356 . S
H850 C844 0.930 . S
H851 C848 0.930 . S
O852 Li792 1.956 . S
O852 Li793 1.970 . S
O852 Li794 1.961 . S
O852 C796 1.325 . S
O853 Li792 1.970 . S
O853 Li793 1.956 . S
O853 Li795 1.961 . S
O853 C802 1.325 . S
O854 Li792 1.961 . S
O854 Li794 1.956 . S
O854 Li795 1.970 . S
O854 C824 1.325 . S
O855 Li793 1.961 . S
O855 Li794 1.970 . S
O855 Li795 1.956 . S
O855 C830 1.325 . S
H856 C798 0.929 . S
H857 C799 0.930 . S
H858 C800 0.930 . S
H859 C801 0.930 . S
H860 C803 0.930 . S
H861 C805 0.929 . S
H862 C806 0.930 . S
H863 C807 0.930 . S
H864 C810 0.930 . S
H865 C813 0.929 . S
H866 C818 0.929 . S
H867 C819 0.930 . S
H868 C826 0.929 . S
H869 C827 0.930 . S
H870 C828 0.930 . S
H871 C829 0.930 . S
H872 C831 0.929 . S
H873 C832 0.930 . S
H874 C833 0.930 . S
H875 C834 0.930 . S
H876 C838 0.929 . S
H877 C840 0.930 . S
H878 C846 0.929 . S
H879 C847 0.930 . S
Li880 N897 1.990 . S
Li880 O940 1.956 . S
Li880 O941 1.970 . S
Li880 O942 1.961 . S
Li881 N905 1.990 . S
Li881 O940 1.970 . S
Li881 O941 1.956 . S
Li881 O943 1.961 . S
Li882 N927 1.990 . S
Li882 O940 1.961 . S
Li882 O942 1.956 . S
Li882 O943 1.970 . S
Li883 N933 1.990 . S
Li883 O941 1.961 . S
Li883 O942 1.970 . S
Li883 O943 1.956 . S
C884 C886 1.348 . S
C884 C887 1.356 . S
C884 O940 1.325 . S
N885 C888 1.314 . S
N885 C889 1.279 . S
C886 C884 1.348 . S
C886 C888 1.353 . S
C886 H944 0.929 . S
C887 C884 1.356 . S
C887 C889 1.358 . S
C887 H945 0.930 . S
C888 N885 1.314 . S
C888 C886 1.353 . S
C888 H946 0.930 . S
C889 N885 1.279 . S
C889 C887 1.358 . S
C889 H947 0.930 . S
C890 C893 1.348 . S
C890 C894 1.356 . S
C890 O941 1.325 . S
C891 N892 1.279 . S
C891 C894 1.358 . S
C891 H948 0.930 . S
N892 C891 1.279 . S
N892 C895 1.314 . S
C893 C890 1.348 . S
C893 C895 1.353 . S
C893 H949 0.929 . S
C894 C890 1.356 . S
C894 C891 1.358 . S
C894 H950 0.930 . S
C895 N892 1.314 . S
C895 C893 1.353 . S
C895 H951 0.930 . S
C896 N897 1.314 . S
C896 C901 1.353 . S
C896 H902 0.930 . S
N897 Li880 1.990 . S
N897 C896 1.314 . S
N897 C899 1.279 . S
C898 C899 1.358 . S
C898 C900 1.356 . S
C898 H952 0.930 . S
C899 N897 1.279 . S
C899 C898 1.358 . S
C899 H903 0.930 . S
C900 C898 1.356 . S
C900 C901 1.348 . S
C901 C896 1.353 . S
C901 C900 1.348 . S
C901 H953 0.929 . S
H902 C896 0.930 . S
H903 C899 0.930 . S
C904 N905 1.314 . S
C904 C906 1.353 . S
C904 H910 0.930 . S
N905 Li881 1.990 . S
N905 C904 1.314 . S
N905 C908 1.279 . S
C906 C904 1.353 . S
C906 C909 1.348 . S
C906 H954 0.929 . S
C907 C908 1.358 . S
C907 C909 1.356 . S
C907 H955 0.930 . S
C908 N905 1.279 . S
C908 C907 1.358 . S
C908 H911 0.930 . S
C909 C906 1.348 . S
C909 C907 1.356 . S
H910 C904 0.930 . S
H911 C908 0.930 . S
C912 C914 1.348 . S
C912 C915 1.356 . S
C912 O942 1.325 . S
N913 C916 1.314 . S
N913 C917 1.279 . S
C914 C912 1.348 . S
C914 C916 1.353 . S
C914 H956 0.929 . S
C915 C912 1.356 . S
C915 C917 1.358 . S
C915 H957 0.930 . S
C916 N913 1.314 . S
C916 C914 1.353 . S
C916 H958 0.930 . S
C917 N913 1.279 . S
C917 C915 1.358 . S
C917 H959 0.930 . S
C918 C919 1.348 . S
C918 C920 1.356 . S
C918 O943 1.325 . S
C919 C918 1.348 . S
C919 C921 1.353 . S
C919 H960 0.929 . S
C920 C918 1.356 . S
C920 C922 1.358 . S
C920 H961 0.930 . S
C921 C919 1.353 . S
C921 N923 1.314 . S
C921 H962 0.930 . S
C922 C920 1.358 . S
C922 N923 1.279 . S
C922 H963 0.930 . S
N923 C921 1.314 . S
N923 C922 1.279 . S
C924 C926 1.353 . S
C924 N927 1.314 . S
C924 H930 0.930 . S
C925 N927 1.279 . S
C925 C928 1.358 . S
C925 H931 0.930 . S
C926 C924 1.353 . S
C926 C929 1.348 . S
C926 H964 0.929 . S
N927 Li882 1.990 . S
N927 C924 1.314 . S
N927 C925 1.279 . S
C928 C925 1.358 . S
C928 C929 1.356 . S
C928 H965 0.930 . S
C929 C926 1.348 . S
C929 C928 1.356 . S
H930 C924 0.930 . S
H931 C925 0.930 . S
C932 N933 1.314 . S
C932 C934 1.353 . S
C932 H938 0.930 . S
N933 Li883 1.990 . S
N933 C932 1.314 . S
N933 C936 1.279 . S
C934 C932 1.353 . S
C934 C937 1.348 . S
C934 H966 0.929 . S
C935 C936 1.358 . S
C935 C937 1.356 . S
C935 H967 0.930 . S
C936 N933 1.279 . S
C936 C935 1.358 . S
C936 H939 0.930 . S
C937 C934 1.348 . S
C937 C935 1.356 . S
H938 C932 0.930 . S
H939 C936 0.930 . S
O940 Li880 1.956 . S
O940 Li881 1.970 . S
O940 Li882 1.961 . S
O940 C884 1.325 . S
O941 Li880 1.970 . S
O941 Li881 1.956 . S
O941 Li883 1.961 . S
O941 C890 1.325 . S
O942 Li880 1.961 . S
O942 Li882 1.956 . S
O942 Li883 1.970 . S
O942 C912 1.325 . S
O943 Li881 1.961 . S
O943 Li882 1.970 . S
O943 Li883 1.956 . S
O943 C918 1.325 . S
H944 C886 0.929 . S
H945 C887 0.930 . S
H946 C888 0.930 . S
H947 C889 0.930 . S
H948 C891 0.930 . S
H949 C893 0.929 . S
H950 C894 0.930 . S
H951 C895 0.930 . S
H952 C898 0.930 . S
H953 C901 0.929 . S
H954 C906 0.929 . S
H955 C907 0.930 . S
H956 C914 0.929 . S
H957 C915 0.930 . S
H958 C916 0.930 . S
H959 C917 0.930 . S
H960 C919 0.929 . S
H961 C920 0.930 . S
H962 C921 0.930 . S
H963 C922 0.930 . S
H964 C926 0.929 . S
H965 C928 0.930 . S
H966 C934 0.929 . S
H967 C935 0.930 . S
Li968 N985 1.990 . S
Li968 O1028 1.956 . S
Li968 O1029 1.970 . S
Li968 O1030 1.961 . S
Li969 N993 1.990 . S
Li969 O1028 1.970 . S
Li969 O1029 1.956 . S
Li969 O1031 1.961 . S
Li970 N1015 1.990 . S
Li970 O1028 1.961 . S
Li970 O1030 1.956 . S
Li970 O1031 1.970 . S
Li971 N1021 1.990 . S
Li971 O1029 1.961 . S
Li971 O1030 1.970 . S
Li971 O1031 1.956 . S
C972 C974 1.348 . S
C972 C975 1.356 . S
C972 O1028 1.325 . S
N973 C976 1.314 . S
N973 C977 1.279 . S
C974 C972 1.348 . S
C974 C976 1.353 . S
C974 H1032 0.929 . S
C975 C972 1.356 . S
C975 C977 1.358 . S
C975 H1033 0.930 . S
C976 N973 1.314 . S
C976 C974 1.353 . S
C976 H1034 0.930 . S
C977 N973 1.279 . S
C977 C975 1.358 . S
C977 H1035 0.930 . S
C978 C981 1.348 . S
C978 C982 1.356 . S
C978 O1029 1.325 . S
C979 N980 1.279 1_565 S
C979 C982 1.358 . S
C979 H1036 0.930 . S
N980 C979 1.279 1_545 S
N980 C983 1.314 . S
C981 C978 1.348 . S
C981 C983 1.353 1_565 S
C981 H1037 0.929 . S
C982 C978 1.356 . S
C982 C979 1.358 . S
C982 H1038 0.930 . S
C983 N980 1.314 . S
C983 C981 1.353 1_545 S
C983 H1039 0.930 . S
C984 N985 1.314 . S
C984 C989 1.353 . S
C984 H990 0.930 . S
N985 Li968 1.990 . S
N985 C984 1.314 . S
N985 C987 1.279 . S
C986 C987 1.358 . S
C986 C988 1.356 . S
C986 H1040 0.930 . S
C987 N985 1.279 . S
C987 C986 1.358 . S
C987 H991 0.930 . S
C988 C986 1.356 . S
C988 C989 1.348 . S
C989 C984 1.353 . S
C989 C988 1.348 . S
C989 H1041 0.929 . S
H990 C984 0.930 . S
H991 C987 0.930 . S
C992 N993 1.314 . S
C992 C994 1.353 . S
C992 H998 0.930 . S
N993 Li969 1.990 . S
N993 C992 1.314 . S
N993 C996 1.279 . S
C994 C992 1.353 . S
C994 C997 1.348 . S
C994 H1042 0.929 . S
C995 C996 1.358 . S
C995 C997 1.356 . S
C995 H1043 0.930 . S
C996 N993 1.279 . S
C996 C995 1.358 . S
C996 H999 0.930 . S
C997 C994 1.348 . S
C997 C995 1.356 . S
H998 C992 0.930 . S
H999 C996 0.930 . S
C1000 C1002 1.348 . S
C1000 C1003 1.356 . S
C1000 O1030 1.325 . S
N1001 C1004 1.314 . S
N1001 C1005 1.279 . S
C1002 C1000 1.348 . S
C1002 C1004 1.353 . S
C1002 H1044 0.929 . S
C1003 C1000 1.356 . S
C1003 C1005 1.358 . S
C1003 H1045 0.930 . S
C1004 N1001 1.314 . S
C1004 C1002 1.353 . S
C1004 H1046 0.930 . S
C1005 N1001 1.279 . S
C1005 C1003 1.358 . S
C1005 H1047 0.930 . S
C1006 C1007 1.348 . S
C1006 C1008 1.356 . S
C1006 O1031 1.325 . S
C1007 C1006 1.348 . S
C1007 C1009 1.353 . S
C1007 H1048 0.929 . S
C1008 C1006 1.356 . S
C1008 C1010 1.358 . S
C1008 H1049 0.930 . S
C1009 C1007 1.353 . S
C1009 N1011 1.314 . S
C1009 H1050 0.930 . S
C1010 C1008 1.358 . S
C1010 N1011 1.279 . S
C1010 H1051 0.930 . S
N1011 C1009 1.314 . S
N1011 C1010 1.279 . S
C1012 C1014 1.353 . S
C1012 N1015 1.314 . S
C1012 H1018 0.930 . S
C1013 N1015 1.279 . S
C1013 C1016 1.358 . S
C1013 H1019 0.930 . S
C1014 C1012 1.353 . S
C1014 C1017 1.348 . S
C1014 H1052 0.929 . S
N1015 Li970 1.990 . S
N1015 C1012 1.314 . S
N1015 C1013 1.279 . S
C1016 C1013 1.358 . S
C1016 C1017 1.356 . S
C1016 H1053 0.930 . S
C1017 C1014 1.348 . S
C1017 C1016 1.356 . S
H1018 C1012 0.930 . S
H1019 C1013 0.930 . S
C1020 N1021 1.314 . S
C1020 C1022 1.353 . S
C1020 H1026 0.930 . S
N1021 Li971 1.990 . S
N1021 C1020 1.314 . S
N1021 C1024 1.279 . S
C1022 C1020 1.353 . S
C1022 C1025 1.348 . S
C1022 H1054 0.929 . S
C1023 C1024 1.358 . S
C1023 C1025 1.356 . S
C1023 H1055 0.930 . S
C1024 N1021 1.279 . S
C1024 C1023 1.358 . S
C1024 H1027 0.930 . S
C1025 C1022 1.348 . S
C1025 C1023 1.356 . S
H1026 C1020 0.930 . S
H1027 C1024 0.930 . S
O1028 Li968 1.956 . S
O1028 Li969 1.970 . S
O1028 Li970 1.961 . S
O1028 C972 1.325 . S
O1029 Li968 1.970 . S
O1029 Li969 1.956 . S
O1029 Li971 1.961 . S
O1029 C978 1.325 . S
O1030 Li968 1.961 . S
O1030 Li970 1.956 . S
O1030 Li971 1.970 . S
O1030 C1000 1.325 . S
O1031 Li969 1.961 . S
O1031 Li970 1.970 . S
O1031 Li971 1.956 . S
O1031 C1006 1.325 . S
H1032 C974 0.929 . S
H1033 C975 0.930 . S
H1034 C976 0.930 . S
H1035 C977 0.930 . S
H1036 C979 0.930 . S
H1037 C981 0.929 . S
H1038 C982 0.930 . S
H1039 C983 0.930 . S
H1040 C986 0.930 . S
H1041 C989 0.929 . S
H1042 C994 0.929 . S
H1043 C995 0.930 . S
H1044 C1002 0.929 . S
H1045 C1003 0.930 . S
H1046 C1004 0.930 . S
H1047 C1005 0.930 . S
H1048 C1007 0.929 . S
H1049 C1008 0.930 . S
H1050 C1009 0.930 . S
H1051 C1010 0.930 . S
H1052 C1014 0.929 . S
H1053 C1016 0.930 . S
H1054 C1022 0.929 . S
H1055 C1023 0.930 . S
Li1056 N1073 1.990 . S
Li1056 O1116 1.956 . S
Li1056 O1117 1.970 . S
Li1056 O1118 1.961 . S
Li1057 N1081 1.990 . S
Li1057 O1116 1.970 . S
Li1057 O1117 1.956 . S
Li1057 O1119 1.961 . S
Li1058 N1103 1.990 . S
Li1058 O1116 1.961 . S
Li1058 O1118 1.956 . S
Li1058 O1119 1.970 . S
Li1059 N1109 1.990 . S
Li1059 O1117 1.961 . S
Li1059 O1118 1.970 . S
Li1059 O1119 1.956 . S
C1060 C1062 1.348 . S
C1060 C1063 1.356 . S
C1060 O1116 1.325 . S
N1061 C1064 1.314 . S
N1061 C1065 1.279 . S
C1062 C1060 1.348 . S
C1062 C1064 1.353 . S
C1062 H1120 0.929 . S
C1063 C1060 1.356 . S
C1063 C1065 1.358 . S
C1063 H1121 0.930 . S
C1064 N1061 1.314 . S
C1064 C1062 1.353 . S
C1064 H1122 0.930 . S
C1065 N1061 1.279 . S
C1065 C1063 1.358 . S
C1065 H1123 0.930 . S
C1066 C1069 1.348 . S
C1066 C1070 1.356 . S
C1066 O1117 1.325 . S
C1067 N1068 1.279 . S
C1067 C1070 1.358 . S
C1067 H1124 0.930 . S
N1068 C1067 1.279 . S
N1068 C1071 1.314 . S
C1069 C1066 1.348 . S
C1069 C1071 1.353 . S
C1069 H1125 0.929 . S
C1070 C1066 1.356 . S
C1070 C1067 1.358 . S
C1070 H1126 0.930 . S
C1071 N1068 1.314 . S
C1071 C1069 1.353 . S
C1071 H1127 0.930 . S
C1072 N1073 1.314 . S
C1072 C1077 1.353 . S
C1072 H1078 0.930 . S
N1073 Li1056 1.990 . S
N1073 C1072 1.314 . S
N1073 C1075 1.279 . S
C1074 C1075 1.358 . S
C1074 C1076 1.356 . S
C1074 H1128 0.930 . S
C1075 N1073 1.279 . S
C1075 C1074 1.358 . S
C1075 H1079 0.930 . S
C1076 C1074 1.356 . S
C1076 C1077 1.348 . S
C1077 C1072 1.353 . S
C1077 C1076 1.348 . S
C1077 H1129 0.929 . S
H1078 C1072 0.930 . S
H1079 C1075 0.930 . S
C1080 N1081 1.314 . S
C1080 C1082 1.353 . S
C1080 H1086 0.930 . S
N1081 Li1057 1.990 . S
N1081 C1080 1.314 . S
N1081 C1084 1.279 . S
C1082 C1080 1.353 . S
C1082 C1085 1.348 . S
C1082 H1130 0.929 . S
C1083 C1084 1.358 . S
C1083 C1085 1.356 . S
C1083 H1131 0.930 . S
C1084 N1081 1.279 . S
C1084 C1083 1.358 . S
C1084 H1087 0.930 . S
C1085 C1082 1.348 . S
C1085 C1083 1.356 . S
H1086 C1080 0.930 . S
H1087 C1084 0.930 . S
C1088 C1090 1.348 . S
C1088 C1091 1.356 . S
C1088 O1118 1.325 . S
N1089 C1092 1.314 . S
N1089 C1093 1.279 . S
C1090 C1088 1.348 . S
C1090 C1092 1.353 . S
C1090 H1132 0.929 . S
C1091 C1088 1.356 . S
C1091 C1093 1.358 . S
C1091 H1133 0.930 . S
C1092 N1089 1.314 . S
C1092 C1090 1.353 . S
C1092 H1134 0.930 . S
C1093 N1089 1.279 . S
C1093 C1091 1.358 . S
C1093 H1135 0.930 . S
C1094 C1095 1.348 . S
C1094 C1096 1.356 . S
C1094 O1119 1.325 . S
C1095 C1094 1.348 . S
C1095 C1097 1.353 . S
C1095 H1136 0.929 . S
C1096 C1094 1.356 . S
C1096 C1098 1.358 . S
C1096 H1137 0.930 . S
C1097 C1095 1.353 . S
C1097 N1099 1.314 . S
C1097 H1138 0.930 . S
C1098 C1096 1.358 . S
C1098 N1099 1.279 . S
C1098 H1139 0.930 . S
N1099 C1097 1.314 . S
N1099 C1098 1.279 . S
C1100 C1102 1.353 . S
C1100 N1103 1.314 . S
C1100 H1106 0.930 . S
C1101 N1103 1.279 . S
C1101 C1104 1.358 . S
C1101 H1107 0.930 . S
C1102 C1100 1.353 . S
C1102 C1105 1.348 . S
C1102 H1140 0.929 . S
N1103 Li1058 1.990 . S
N1103 C1100 1.314 . S
N1103 C1101 1.279 . S
C1104 C1101 1.358 . S
C1104 C1105 1.356 . S
C1104 H1141 0.930 . S
C1105 C1102 1.348 . S
C1105 C1104 1.356 . S
H1106 C1100 0.930 . S
H1107 C1101 0.930 . S
C1108 N1109 1.314 . S
C1108 C1110 1.353 . S
C1108 H1114 0.930 . S
N1109 Li1059 1.990 . S
N1109 C1108 1.314 . S
N1109 C1112 1.279 . S
C1110 C1108 1.353 . S
C1110 C1113 1.348 . S
C1110 H1142 0.929 . S
C1111 C1112 1.358 . S
C1111 C1113 1.356 . S
C1111 H1143 0.930 . S
C1112 N1109 1.279 . S
C1112 C1111 1.358 . S
C1112 H1115 0.930 . S
C1113 C1110 1.348 . S
C1113 C1111 1.356 . S
H1114 C1108 0.930 . S
H1115 C1112 0.930 . S
O1116 Li1056 1.956 . S
O1116 Li1057 1.970 . S
O1116 Li1058 1.961 . S
O1116 C1060 1.325 . S
O1117 Li1056 1.970 . S
O1117 Li1057 1.956 . S
O1117 Li1059 1.961 . S
O1117 C1066 1.325 . S
O1118 Li1056 1.961 . S
O1118 Li1058 1.956 . S
O1118 Li1059 1.970 . S
O1118 C1088 1.325 . S
O1119 Li1057 1.961 . S
O1119 Li1058 1.970 . S
O1119 Li1059 1.956 . S
O1119 C1094 1.325 . S
H1120 C1062 0.929 . S
H1121 C1063 0.930 . S
H1122 C1064 0.930 . S
H1123 C1065 0.930 . S
H1124 C1067 0.930 . S
H1125 C1069 0.929 . S
H1126 C1070 0.930 . S
H1127 C1071 0.930 . S
H1128 C1074 0.930 . S
H1129 C1077 0.929 . S
H1130 C1082 0.929 . S
H1131 C1083 0.930 . S
H1132 C1090 0.929 . S
H1133 C1091 0.930 . S
H1134 C1092 0.930 . S
H1135 C1093 0.930 . S
H1136 C1095 0.929 . S
H1137 C1096 0.930 . S
H1138 C1097 0.930 . S
H1139 C1098 0.930 . S
H1140 C1102 0.929 . S
H1141 C1104 0.930 . S
H1142 C1110 0.929 . S
H1143 C1111 0.930 . S
Li1144 N1161 1.990 . S
Li1144 O1204 1.956 . S
Li1144 O1205 1.970 . S
Li1144 O1206 1.961 . S
Li1145 N1169 1.990 . S
Li1145 O1204 1.970 . S
Li1145 O1205 1.956 . S
Li1145 O1207 1.961 . S
Li1146 N1191 1.990 . S
Li1146 O1204 1.961 . S
Li1146 O1206 1.956 . S
Li1146 O1207 1.970 . S
Li1147 N1197 1.990 . S
Li1147 O1205 1.961 . S
Li1147 O1206 1.970 . S
Li1147 O1207 1.956 . S
C1148 C1150 1.348 . S
C1148 C1151 1.356 . S
C1148 O1204 1.325 . S
N1149 C1152 1.314 . S
N1149 C1153 1.279 . S
C1150 C1148 1.348 . S
C1150 C1152 1.353 . S
C1150 H1208 0.929 . S
C1151 C1148 1.356 . S
C1151 C1153 1.358 . S
C1151 H1209 0.930 . S
C1152 N1149 1.314 . S
C1152 C1150 1.353 . S
C1152 H1210 0.930 . S
C1153 N1149 1.279 . S
C1153 C1151 1.358 . S
C1153 H1211 0.930 . S
C1154 C1157 1.348 . S
C1154 C1158 1.356 . S
C1154 O1205 1.325 . S
C1155 N1156 1.279 . S
C1155 C1158 1.358 . S
C1155 H1212 0.930 . S
N1156 C1155 1.279 . S
N1156 C1159 1.314 . S
C1157 C1154 1.348 . S
C1157 C1159 1.353 . S
C1157 H1213 0.929 . S
C1158 C1154 1.356 . S
C1158 C1155 1.358 . S
C1158 H1214 0.930 . S
C1159 N1156 1.314 . S
C1159 C1157 1.353 . S
C1159 H1215 0.930 . S
C1160 N1161 1.314 . S
C1160 C1165 1.353 . S
C1160 H1166 0.930 . S
N1161 Li1144 1.990 . S
N1161 C1160 1.314 . S
N1161 C1163 1.279 . S
C1162 C1163 1.358 . S
C1162 C1164 1.356 . S
C1162 H1216 0.930 . S
C1163 N1161 1.279 . S
C1163 C1162 1.358 . S
C1163 H1167 0.930 . S
C1164 C1162 1.356 . S
C1164 C1165 1.348 . S
C1165 C1160 1.353 . S
C1165 C1164 1.348 . S
C1165 H1217 0.929 . S
H1166 C1160 0.930 . S
H1167 C1163 0.930 . S
C1168 N1169 1.314 . S
C1168 C1170 1.353 . S
C1168 H1174 0.930 . S
N1169 Li1145 1.990 . S
N1169 C1168 1.314 . S
N1169 C1172 1.279 . S
C1170 C1168 1.353 . S
C1170 C1173 1.348 . S
C1170 H1218 0.929 . S
C1171 C1172 1.358 . S
C1171 C1173 1.356 . S
C1171 H1219 0.930 . S
C1172 N1169 1.279 . S
C1172 C1171 1.358 . S
C1172 H1175 0.930 . S
C1173 C1170 1.348 . S
C1173 C1171 1.356 . S
H1174 C1168 0.930 . S
H1175 C1172 0.930 . S
C1176 C1178 1.348 . S
C1176 C1179 1.356 . S
C1176 O1206 1.325 . S
N1177 C1180 1.314 . S
N1177 C1181 1.279 1_565 S
C1178 C1176 1.348 . S
C1178 C1180 1.353 1_545 S
C1178 H1220 0.929 . S
C1179 C1176 1.356 . S
C1179 C1181 1.358 . S
C1179 H1221 0.930 . S
C1180 N1177 1.314 . S
C1180 C1178 1.353 1_565 S
C1180 H1222 0.930 . S
C1181 N1177 1.279 1_545 S
C1181 C1179 1.358 . S
C1181 H1223 0.930 . S
C1182 C1183 1.348 . S
C1182 C1184 1.356 . S
C1182 O1207 1.325 . S
C1183 C1182 1.348 . S
C1183 C1185 1.353 . S
C1183 H1224 0.929 . S
C1184 C1182 1.356 . S
C1184 C1186 1.358 . S
C1184 H1225 0.930 . S
C1185 C1183 1.353 . S
C1185 N1187 1.314 . S
C1185 H1226 0.930 . S
C1186 C1184 1.358 . S
C1186 N1187 1.279 . S
C1186 H1227 0.930 . S
N1187 C1185 1.314 . S
N1187 C1186 1.279 . S
C1188 C1190 1.353 . S
C1188 N1191 1.314 . S
C1188 H1194 0.930 . S
C1189 N1191 1.279 . S
C1189 C1192 1.358 . S
C1189 H1195 0.930 . S
C1190 C1188 1.353 . S
C1190 C1193 1.348 . S
C1190 H1228 0.929 . S
N1191 Li1146 1.990 . S
N1191 C1188 1.314 . S
N1191 C1189 1.279 . S
C1192 C1189 1.358 . S
C1192 C1193 1.356 . S
C1192 H1229 0.930 . S
C1193 C1190 1.348 . S
C1193 C1192 1.356 . S
H1194 C1188 0.930 . S
H1195 C1189 0.930 . S
C1196 N1197 1.314 . S
C1196 C1198 1.353 . S
C1196 H1202 0.930 . S
N1197 Li1147 1.990 . S
N1197 C1196 1.314 . S
N1197 C1200 1.279 . S
C1198 C1196 1.353 . S
C1198 C1201 1.348 . S
C1198 H1230 0.929 . S
C1199 C1200 1.358 . S
C1199 C1201 1.356 . S
C1199 H1231 0.930 . S
C1200 N1197 1.279 . S
C1200 C1199 1.358 . S
C1200 H1203 0.930 . S
C1201 C1198 1.348 . S
C1201 C1199 1.356 . S
H1202 C1196 0.930 . S
H1203 C1200 0.930 . S
O1204 Li1144 1.956 . S
O1204 Li1145 1.970 . S
O1204 Li1146 1.961 . S
O1204 C1148 1.325 . S
O1205 Li1144 1.970 . S
O1205 Li1145 1.956 . S
O1205 Li1147 1.961 . S
O1205 C1154 1.325 . S
O1206 Li1144 1.961 . S
O1206 Li1146 1.956 . S
O1206 Li1147 1.970 . S
O1206 C1176 1.325 . S
O1207 Li1145 1.961 . S
O1207 Li1146 1.970 . S
O1207 Li1147 1.956 . S
O1207 C1182 1.325 . S
H1208 C1150 0.929 . S
H1209 C1151 0.930 . S
H1210 C1152 0.930 . S
H1211 C1153 0.930 . S
H1212 C1155 0.930 . S
H1213 C1157 0.929 . S
H1214 C1158 0.930 . S
H1215 C1159 0.930 . S
H1216 C1162 0.930 . S
H1217 C1165 0.929 . S
H1218 C1170 0.929 . S
H1219 C1171 0.930 . S
H1220 C1178 0.929 . S
H1221 C1179 0.930 . S
H1222 C1180 0.930 . S
H1223 C1181 0.930 . S
H1224 C1183 0.929 . S
H1225 C1184 0.930 . S
H1226 C1185 0.930 . S
H1227 C1186 0.930 . S
H1228 C1190 0.929 . S
H1229 C1192 0.930 . S
H1230 C1198 0.929 . S
H1231 C1199 0.930 . S
Li1232 N1249 1.990 . S
Li1232 O1292 1.956 . S
Li1232 O1293 1.970 . S
Li1232 O1294 1.961 . S
Li1233 N1257 1.990 . S
Li1233 O1292 1.970 . S
Li1233 O1293 1.956 . S
Li1233 O1295 1.961 . S
Li1234 N1279 1.990 . S
Li1234 O1292 1.961 . S
Li1234 O1294 1.956 . S
Li1234 O1295 1.970 . S
Li1235 N1285 1.990 . S
Li1235 O1293 1.961 . S
Li1235 O1294 1.970 . S
Li1235 O1295 1.956 . S
C1236 C1238 1.348 . S
C1236 C1239 1.356 . S
C1236 O1292 1.325 . S
N1237 C1240 1.314 . S
N1237 C1241 1.279 . S
C1238 C1236 1.348 . S
C1238 C1240 1.353 . S
C1238 H1296 0.929 . S
C1239 C1236 1.356 . S
C1239 C1241 1.358 . S
C1239 H1297 0.930 . S
C1240 N1237 1.314 . S
C1240 C1238 1.353 . S
C1240 H1298 0.930 . S
C1241 N1237 1.279 . S
C1241 C1239 1.358 . S
C1241 H1299 0.930 . S
C1242 C1245 1.348 . S
C1242 C1246 1.356 . S
C1242 O1293 1.325 . S
C1243 N1244 1.279 . S
C1243 C1246 1.358 . S
C1243 H1300 0.930 . S
N1244 C1243 1.279 . S
N1244 C1247 1.314 . S
C1245 C1242 1.348 . S
C1245 C1247 1.353 . S
C1245 H1301 0.929 . S
C1246 C1242 1.356 . S
C1246 C1243 1.358 . S
C1246 H1302 0.930 . S
C1247 N1244 1.314 . S
C1247 C1245 1.353 . S
C1247 H1303 0.930 . S
C1248 N1249 1.314 . S
C1248 C1253 1.353 . S
C1248 H1254 0.930 . S
N1249 Li1232 1.990 . S
N1249 C1248 1.314 . S
N1249 C1251 1.279 . S
C1250 C1251 1.358 . S
C1250 C1252 1.356 . S
C1250 H1304 0.930 . S
C1251 N1249 1.279 . S
C1251 C1250 1.358 . S
C1251 H1255 0.930 . S
C1252 C1250 1.356 . S
C1252 C1253 1.348 . S
C1253 C1248 1.353 . S
C1253 C1252 1.348 . S
C1253 H1305 0.929 . S
H1254 C1248 0.930 . S
H1255 C1251 0.930 . S
C1256 N1257 1.314 . S
C1256 C1258 1.353 . S
C1256 H1262 0.930 . S
N1257 Li1233 1.990 . S
N1257 C1256 1.314 . S
N1257 C1260 1.279 . S
C1258 C1256 1.353 . S
C1258 C1261 1.348 . S
C1258 H1306 0.929 . S
C1259 C1260 1.358 . S
C1259 C1261 1.356 . S
C1259 H1307 0.930 . S
C1260 N1257 1.279 . S
C1260 C1259 1.358 . S
C1260 H1263 0.930 . S
C1261 C1258 1.348 . S
C1261 C1259 1.356 . S
H1262 C1256 0.930 . S
H1263 C1260 0.930 . S
C1264 C1266 1.348 . S
C1264 C1267 1.356 . S
C1264 O1294 1.325 . S
N1265 C1268 1.314 . S
N1265 C1269 1.279 . S
C1266 C1264 1.348 . S
C1266 C1268 1.353 . S
C1266 H1308 0.929 . S
C1267 C1264 1.356 . S
C1267 C1269 1.358 . S
C1267 H1309 0.930 . S
C1268 N1265 1.314 . S
C1268 C1266 1.353 . S
C1268 H1310 0.930 . S
C1269 N1265 1.279 . S
C1269 C1267 1.358 . S
C1269 H1311 0.930 . S
C1270 C1271 1.348 . S
C1270 C1272 1.356 . S
C1270 O1295 1.325 . S
C1271 C1270 1.348 . S
C1271 C1273 1.353 . S
C1271 H1312 0.929 . S
C1272 C1270 1.356 . S
C1272 C1274 1.358 . S
C1272 H1313 0.930 . S
C1273 C1271 1.353 . S
C1273 N1275 1.314 . S
C1273 H1314 0.930 . S
C1274 C1272 1.358 . S
C1274 N1275 1.279 . S
C1274 H1315 0.930 . S
N1275 C1273 1.314 . S
N1275 C1274 1.279 . S
C1276 C1278 1.353 . S
C1276 N1279 1.314 . S
C1276 H1282 0.930 . S
C1277 N1279 1.279 . S
C1277 C1280 1.358 . S
C1277 H1283 0.930 . S
C1278 C1276 1.353 . S
C1278 C1281 1.348 . S
C1278 H1316 0.929 . S
N1279 Li1234 1.990 . S
N1279 C1276 1.314 . S
N1279 C1277 1.279 . S
C1280 C1277 1.358 . S
C1280 C1281 1.356 . S
C1280 H1317 0.930 . S
C1281 C1278 1.348 . S
C1281 C1280 1.356 . S
H1282 C1276 0.930 . S
H1283 C1277 0.930 . S
C1284 N1285 1.314 . S
C1284 C1286 1.353 . S
C1284 H1290 0.930 . S
N1285 Li1235 1.990 . S
N1285 C1284 1.314 . S
N1285 C1288 1.279 . S
C1286 C1284 1.353 . S
C1286 C1289 1.348 . S
C1286 H1318 0.929 . S
C1287 C1288 1.358 . S
C1287 C1289 1.356 . S
C1287 H1319 0.930 . S
C1288 N1285 1.279 . S
C1288 C1287 1.358 . S
C1288 H1291 0.930 . S
C1289 C1286 1.348 . S
C1289 C1287 1.356 . S
H1290 C1284 0.930 . S
H1291 C1288 0.930 . S
O1292 Li1232 1.956 . S
O1292 Li1233 1.970 . S
O1292 Li1234 1.961 . S
O1292 C1236 1.325 . S
O1293 Li1232 1.970 . S
O1293 Li1233 1.956 . S
O1293 Li1235 1.961 . S
O1293 C1242 1.325 . S
O1294 Li1232 1.961 . S
O1294 Li1234 1.956 . S
O1294 Li1235 1.970 . S
O1294 C1264 1.325 . S
O1295 Li1233 1.961 . S
O1295 Li1234 1.970 . S
O1295 Li1235 1.956 . S
O1295 C1270 1.325 . S
H1296 C1238 0.929 . S
H1297 C1239 0.930 . S
H1298 C1240 0.930 . S
H1299 C1241 0.930 . S
H1300 C1243 0.930 . S
H1301 C1245 0.929 . S
H1302 C1246 0.930 . S
H1303 C1247 0.930 . S
H1304 C1250 0.930 . S
H1305 C1253 0.929 . S
H1306 C1258 0.929 . S
H1307 C1259 0.930 . S
H1308 C1266 0.929 . S
H1309 C1267 0.930 . S
H1310 C1268 0.930 . S
H1311 C1269 0.930 . S
H1312 C1271 0.929 . S
H1313 C1272 0.930 . S
H1314 C1273 0.930 . S
H1315 C1274 0.930 . S
H1316 C1278 0.929 . S
H1317 C1280 0.930 . S
H1318 C1286 0.929 . S
H1319 C1287 0.930 . S
Li1320 N1337 1.990 . S
Li1320 O1380 1.956 . S
Li1320 O1381 1.970 . S
Li1320 O1382 1.961 . S
Li1321 N1345 1.990 . S
Li1321 O1380 1.970 . S
Li1321 O1381 1.956 . S
Li1321 O1383 1.961 . S
Li1322 N1367 1.990 . S
Li1322 O1380 1.961 . S
Li1322 O1382 1.956 . S
Li1322 O1383 1.970 . S
Li1323 N1373 1.990 . S
Li1323 O1381 1.961 . S
Li1323 O1382 1.970 . S
Li1323 O1383 1.956 . S
C1324 C1326 1.348 . S
C1324 C1327 1.356 . S
C1324 O1380 1.325 . S
N1325 C1328 1.314 . S
N1325 C1329 1.279 1_545 S
C1326 C1324 1.348 . S
C1326 C1328 1.353 1_565 S
C1326 H1384 0.929 . S
C1327 C1324 1.356 . S
C1327 C1329 1.358 . S
C1327 H1385 0.930 . S
C1328 N1325 1.314 . S
C1328 C1326 1.353 1_545 S
C1328 H1386 0.930 . S
C1329 N1325 1.279 1_565 S
C1329 C1327 1.358 . S
C1329 H1387 0.930 . S
C1330 C1333 1.348 . S
C1330 C1334 1.356 . S
C1330 O1381 1.325 . S
C1331 N1332 1.279 . S
C1331 C1334 1.358 . S
C1331 H1388 0.930 . S
N1332 C1331 1.279 . S
N1332 C1335 1.314 . S
C1333 C1330 1.348 . S
C1333 C1335 1.353 . S
C1333 H1389 0.929 . S
C1334 C1330 1.356 . S
C1334 C1331 1.358 . S
C1334 H1390 0.930 . S
C1335 N1332 1.314 . S
C1335 C1333 1.353 . S
C1335 H1391 0.930 . S
C1336 N1337 1.314 . S
C1336 C1341 1.353 . S
C1336 H1342 0.930 . S
N1337 Li1320 1.990 . S
N1337 C1336 1.314 . S
N1337 C1339 1.279 . S
C1338 C1339 1.358 . S
C1338 C1340 1.356 . S
C1338 H1392 0.930 . S
C1339 N1337 1.279 . S
C1339 C1338 1.358 . S
C1339 H1343 0.930 . S
C1340 C1338 1.356 . S
C1340 C1341 1.348 . S
C1341 C1336 1.353 . S
C1341 C1340 1.348 . S
C1341 H1393 0.929 . S
H1342 C1336 0.930 . S
H1343 C1339 0.930 . S
C1344 N1345 1.314 . S
C1344 C1346 1.353 . S
C1344 H1350 0.930 . S
N1345 Li1321 1.990 . S
N1345 C1344 1.314 . S
N1345 C1348 1.279 . S
C1346 C1344 1.353 . S
C1346 C1349 1.348 . S
C1346 H1394 0.929 . S
C1347 C1348 1.358 . S
C1347 C1349 1.356 . S
C1347 H1395 0.930 . S
C1348 N1345 1.279 . S
C1348 C1347 1.358 . S
C1348 H1351 0.930 . S
C1349 C1346 1.348 . S
C1349 C1347 1.356 . S
H1350 C1344 0.930 . S
H1351 C1348 0.930 . S
C1352 C1354 1.348 . S
C1352 C1355 1.356 . S
C1352 O1382 1.325 . S
N1353 C1356 1.314 . S
N1353 C1357 1.279 . S
C1354 C1352 1.348 . S
C1354 C1356 1.353 . S
C1354 H1396 0.929 . S
C1355 C1352 1.356 . S
C1355 C1357 1.358 . S
C1355 H1397 0.930 . S
C1356 N1353 1.314 . S
C1356 C1354 1.353 . S
C1356 H1398 0.930 . S
C1357 N1353 1.279 . S
C1357 C1355 1.358 . S
C1357 H1399 0.930 . S
C1358 C1359 1.348 . S
C1358 C1360 1.356 . S
C1358 O1383 1.325 . S
C1359 C1358 1.348 . S
C1359 C1361 1.353 . S
C1359 H1400 0.929 . S
C1360 C1358 1.356 . S
C1360 C1362 1.358 . S
C1360 H1401 0.930 . S
C1361 C1359 1.353 . S
C1361 N1363 1.314 . S
C1361 H1402 0.930 . S
C1362 C1360 1.358 . S
C1362 N1363 1.279 . S
C1362 H1403 0.930 . S
N1363 C1361 1.314 . S
N1363 C1362 1.279 . S
C1364 C1366 1.353 . S
C1364 N1367 1.314 . S
C1364 H1370 0.930 . S
C1365 N1367 1.279 . S
C1365 C1368 1.358 . S
C1365 H1371 0.930 . S
C1366 C1364 1.353 . S
C1366 C1369 1.348 . S
C1366 H1404 0.929 . S
N1367 Li1322 1.990 . S
N1367 C1364 1.314 . S
N1367 C1365 1.279 . S
C1368 C1365 1.358 . S
C1368 C1369 1.356 . S
C1368 H1405 0.930 . S
C1369 C1366 1.348 . S
C1369 C1368 1.356 . S
H1370 C1364 0.930 . S
H1371 C1365 0.930 . S
C1372 N1373 1.314 . S
C1372 C1374 1.353 . S
C1372 H1378 0.930 . S
N1373 Li1323 1.990 . S
N1373 C1372 1.314 . S
N1373 C1376 1.279 . S
C1374 C1372 1.353 . S
C1374 C1377 1.348 . S
C1374 H1406 0.929 . S
C1375 C1376 1.358 . S
C1375 C1377 1.356 . S
C1375 H1407 0.930 . S
C1376 N1373 1.279 . S
C1376 C1375 1.358 . S
C1376 H1379 0.930 . S
C1377 C1374 1.348 . S
C1377 C1375 1.356 . S
H1378 C1372 0.930 . S
H1379 C1376 0.930 . S
O1380 Li1320 1.956 . S
O1380 Li1321 1.970 . S
O1380 Li1322 1.961 . S
O1380 C1324 1.325 . S
O1381 Li1320 1.970 . S
O1381 Li1321 1.956 . S
O1381 Li1323 1.961 . S
O1381 C1330 1.325 . S
O1382 Li1320 1.961 . S
O1382 Li1322 1.956 . S
O1382 Li1323 1.970 . S
O1382 C1352 1.325 . S
O1383 Li1321 1.961 . S
O1383 Li1322 1.970 . S
O1383 Li1323 1.956 . S
O1383 C1358 1.325 . S
H1384 C1326 0.929 . S
H1385 C1327 0.930 . S
H1386 C1328 0.930 . S
H1387 C1329 0.930 . S
H1388 C1331 0.930 . S
H1389 C1333 0.929 . S
H1390 C1334 0.930 . S
H1391 C1335 0.930 . S
H1392 C1338 0.930 . S
H1393 C1341 0.929 . S
H1394 C1346 0.929 . S
H1395 C1347 0.930 . S
H1396 C1354 0.929 . S
H1397 C1355 0.930 . S
H1398 C1356 0.930 . S
H1399 C1357 0.930 . S
H1400 C1359 0.929 . S
H1401 C1360 0.930 . S
H1402 C1361 0.930 . S
H1403 C1362 0.930 . S
H1404 C1366 0.929 . S
H1405 C1368 0.930 . S
H1406 C1374 0.929 . S
H1407 C1375 0.930 . S
H1408 C1414 0.930 . S
H1409 C1417 0.930 . S
H1410 C1418 0.930 . S
H1411 C1419 0.930 . S
H1412 C1422 0.930 . S
H1413 C1423 0.930 . S
C1414 H1408 0.930 . S
C1414 C1415 1.355 . S
C1414 C1416 1.415 . S
C1415 C1414 1.355 . S
C1415 C1417 1.419 . S
C1416 C1414 1.415 . S
C1416 C1421 1.425 . S
C1416 C1423 1.409 . S
C1417 H1409 0.930 . S
C1417 C1415 1.419 . S
C1417 C1418 1.362 . S
C1418 H1410 0.930 . S
C1418 C1417 1.362 . S
C1418 C1421 1.409 . S
C1419 H1411 0.930 . S
C1419 C1420 1.355 . S
C1419 C1421 1.415 . S
C1420 C1419 1.355 . S
C1420 C1422 1.419 . S
C1421 C1416 1.425 . S
C1421 C1418 1.409 . S
C1421 C1419 1.415 . S
C1422 H1412 0.930 . S
C1422 C1420 1.419 . S
C1422 C1423 1.362 . S
C1423 H1413 0.930 . S
C1423 C1416 1.409 . S
C1423 C1422 1.362 . S
H1424 C1430 0.930 . S
H1425 C1433 0.930 . S
H1426 C1434 0.930 . S
H1427 C1435 0.930 . S
H1428 C1438 0.930 . S
H1429 C1439 0.930 . S
C1430 H1424 0.930 . S
C1430 C1431 1.355 . S
C1430 C1432 1.415 . S
C1431 C1430 1.355 . S
C1431 C1433 1.419 . S
C1432 C1430 1.415 . S
C1432 C1437 1.425 . S
C1432 C1439 1.409 . S
C1433 H1425 0.930 . S
C1433 C1431 1.419 . S
C1433 C1434 1.362 . S
C1434 H1426 0.930 . S
C1434 C1433 1.362 . S
C1434 C1437 1.409 . S
C1435 H1427 0.930 . S
C1435 C1436 1.355 . S
C1435 C1437 1.415 . S
C1436 C1435 1.355 . S
C1436 C1438 1.419 . S
C1437 C1432 1.425 . S
C1437 C1434 1.409 . S
C1437 C1435 1.415 . S
C1438 H1428 0.930 . S
C1438 C1436 1.419 . S
C1438 C1439 1.362 . S
C1439 H1429 0.930 . S
C1439 C1432 1.409 . S
C1439 C1438 1.362 . S
H1440 C1446 0.930 . S
H1441 C1449 0.930 . S
H1442 C1450 0.930 . S
H1443 C1451 0.930 . S
H1444 C1454 0.930 . S
H1445 C1455 0.930 . S
C1446 H1440 0.930 . S
C1446 C1447 1.355 . S
C1446 C1448 1.415 . S
C1447 C1446 1.355 . S
C1447 C1449 1.419 . S
C1448 C1446 1.415 . S
C1448 C1453 1.425 . S
C1448 C1455 1.409 . S
C1449 H1441 0.930 . S
C1449 C1447 1.419 . S
C1449 C1450 1.362 . S
C1450 H1442 0.930 . S
C1450 C1449 1.362 . S
C1450 C1453 1.409 . S
C1451 H1443 0.930 . S
C1451 C1452 1.355 . S
C1451 C1453 1.415 . S
C1452 C1451 1.355 . S
C1452 C1454 1.419 . S
C1453 C1448 1.425 . S
C1453 C1450 1.409 . S
C1453 C1451 1.415 . S
C1454 H1444 0.930 . S
C1454 C1452 1.419 . S
C1454 C1455 1.362 . S
C1455 H1445 0.930 . S
C1455 C1448 1.409 . S
C1455 C1454 1.362 . S
H1456 C1462 0.930 . S
H1457 C1465 0.930 . S
H1458 C1466 0.930 . S
H1459 C1467 0.930 . S
H1460 C1470 0.930 . S
H1461 C1471 0.930 . S
C1462 H1456 0.930 . S
C1462 C1463 1.355 . S
C1462 C1464 1.415 . S
C1463 C1462 1.355 . S
C1463 C1465 1.419 . S
C1464 C1462 1.415 . S
C1464 C1469 1.425 1_455 S
C1464 C1471 1.409 1_455 S
C1465 H1457 0.930 . S
C1465 C1463 1.419 . S
C1465 C1466 1.362 . S
C1466 H1458 0.930 . S
C1466 C1465 1.362 . S
C1466 C1469 1.409 1_455 S
C1467 H1459 0.930 . S
C1467 C1468 1.355 . S
C1467 C1469 1.415 . S
C1468 C1467 1.355 . S
C1468 C1470 1.419 . S
C1469 C1464 1.425 1_655 S
C1469 C1466 1.409 1_655 S
C1469 C1467 1.415 . S
C1470 H1460 0.930 . S
C1470 C1468 1.419 . S
C1470 C1471 1.362 . S
C1471 H1461 0.930 . S
C1471 C1464 1.409 1_655 S
C1471 C1470 1.362 . S
H1472 C1478 0.930 . S
H1473 C1481 0.930 . S
H1474 C1482 0.930 . S
H1475 C1483 0.930 . S
H1476 C1486 0.930 . S
H1477 C1487 0.930 . S
C1478 H1472 0.930 . S
C1478 C1479 1.355 . S
C1478 C1480 1.415 . S
C1479 C1478 1.355 . S
C1479 C1481 1.419 . S
C1480 C1478 1.415 . S
C1480 C1485 1.425 . S
C1480 C1487 1.409 . S
C1481 H1473 0.930 . S
C1481 C1479 1.419 . S
C1481 C1482 1.362 . S
C1482 H1474 0.930 . S
C1482 C1481 1.362 . S
C1482 C1485 1.409 . S
C1483 H1475 0.930 . S
C1483 C1484 1.355 . S
C1483 C1485 1.415 . S
C1484 C1483 1.355 . S
C1484 C1486 1.419 . S
C1485 C1480 1.425 . S
C1485 C1482 1.409 . S
C1485 C1483 1.415 . S
C1486 H1476 0.930 . S
C1486 C1484 1.419 . S
C1486 C1487 1.362 . S
C1487 H1477 0.930 . S
C1487 C1480 1.409 . S
C1487 C1486 1.362 . S
H1488 C1494 0.930 . S
H1489 C1497 0.930 . S
H1490 C1498 0.930 . S
H1491 C1499 0.930 . S
H1492 C1502 0.930 . S
H1493 C1503 0.930 . S
C1494 H1488 0.930 . S
C1494 C1495 1.355 . S
C1494 C1496 1.415 . S
C1495 C1494 1.355 . S
C1495 C1497 1.419 . S
C1496 C1494 1.415 . S
C1496 C1501 1.425 1_655 S
C1496 C1503 1.409 1_655 S
C1497 H1489 0.930 . S
C1497 C1495 1.419 . S
C1497 C1498 1.362 . S
C1498 H1490 0.930 . S
C1498 C1497 1.362 . S
C1498 C1501 1.409 1_655 S
C1499 H1491 0.930 . S
C1499 C1500 1.355 . S
C1499 C1501 1.415 . S
C1500 C1499 1.355 . S
C1500 C1502 1.419 . S
C1501 C1496 1.425 1_455 S
C1501 C1498 1.409 1_455 S
C1501 C1499 1.415 . S
C1502 H1492 0.930 . S
C1502 C1500 1.419 . S
C1502 C1503 1.362 . S
C1503 H1493 0.930 . S
C1503 C1496 1.409 1_455 S
C1503 C1502 1.362 . S
H1504 C1510 0.930 . S
H1505 C1513 0.930 . S
H1506 C1514 0.930 . S
H1507 C1515 0.930 . S
H1508 C1518 0.930 . S
H1509 C1519 0.930 . S
C1510 H1504 0.930 . S
C1510 C1511 1.355 . S
C1510 C1512 1.415 . S
C1511 C1510 1.355 . S
C1511 C1513 1.419 . S
C1512 C1510 1.415 . S
C1512 C1517 1.425 . S
C1512 C1519 1.409 . S
C1513 H1505 0.930 . S
C1513 C1511 1.419 . S
C1513 C1514 1.362 . S
C1514 H1506 0.930 . S
C1514 C1513 1.362 . S
C1514 C1517 1.409 . S
C1515 H1507 0.930 . S
C1515 C1516 1.355 . S
C1515 C1517 1.415 . S
C1516 C1515 1.355 . S
C1516 C1518 1.419 . S
C1517 C1512 1.425 . S
C1517 C1514 1.409 . S
C1517 C1515 1.415 . S
C1518 H1508 0.930 . S
C1518 C1516 1.419 . S
C1518 C1519 1.362 . S
C1519 H1509 0.930 . S
C1519 C1512 1.409 . S
C1519 C1518 1.362 . S
H1520 C1526 0.930 . S
H1521 C1529 0.930 . S
H1522 C1530 0.930 . S
H1523 C1531 0.930 . S
H1524 C1534 0.930 . S
H1525 C1535 0.930 . S
C1526 H1520 0.930 . S
C1526 C1527 1.355 . S
C1526 C1528 1.415 . S
C1527 C1526 1.355 . S
C1527 C1529 1.419 . S
C1528 C1526 1.415 . S
C1528 C1533 1.425 . S
C1528 C1535 1.409 . S
C1529 H1521 0.930 . S
C1529 C1527 1.419 . S
C1529 C1530 1.362 . S
C1530 H1522 0.930 . S
C1530 C1529 1.362 . S
C1530 C1533 1.409 . S
C1531 H1523 0.930 . S
C1531 C1532 1.355 . S
C1531 C1533 1.415 . S
C1532 C1531 1.355 . S
C1532 C1534 1.419 . S
C1533 C1528 1.425 . S
C1533 C1530 1.409 . S
C1533 C1531 1.415 . S
C1534 H1524 0.930 . S
C1534 C1532 1.419 . S
C1534 C1535 1.362 . S
C1535 H1525 0.930 . S
C1535 C1528 1.409 . S
C1535 C1534 1.362 . S
H1536 C1542 0.930 . S
H1537 C1545 0.930 . S
H1538 C1546 0.930 . S
H1539 C1547 0.930 . S
H1540 C1550 0.930 . S
H1541 C1551 0.930 . S
C1542 H1536 0.930 . S
C1542 C1543 1.355 . S
C1542 C1544 1.415 . S
C1543 C1542 1.355 . S
C1543 C1545 1.419 . S
C1544 C1542 1.415 . S
C1544 C1549 1.425 . S
C1544 C1551 1.409 . S
C1545 H1537 0.930 . S
C1545 C1543 1.419 . S
C1545 C1546 1.362 . S
C1546 H1538 0.930 . S
C1546 C1545 1.362 . S
C1546 C1549 1.409 . S
C1547 H1539 0.930 . S
C1547 C1548 1.355 . S
C1547 C1549 1.415 . S
C1548 C1547 1.355 . S
C1548 C1550 1.419 . S
C1549 C1544 1.425 . S
C1549 C1546 1.409 . S
C1549 C1547 1.415 . S
C1550 H1540 0.930 . S
C1550 C1548 1.419 . S
C1550 C1551 1.362 . S
C1551 H1541 0.930 . S
C1551 C1544 1.409 . S
C1551 C1550 1.362 . S
H1552 C1558 0.930 . S
H1553 C1561 0.930 . S
H1554 C1562 0.930 . S
H1555 C1563 0.930 . S
H1556 C1566 0.930 . S
H1557 C1567 0.930 . S
C1558 H1552 0.930 . S
C1558 C1559 1.355 . S
C1558 C1560 1.415 . S
C1559 C1558 1.355 . S
C1559 C1561 1.419 . S
C1560 C1558 1.415 . S
C1560 C1565 1.425 . S
C1560 C1567 1.409 . S
C1561 H1553 0.930 . S
C1561 C1559 1.419 . S
C1561 C1562 1.362 . S
C1562 H1554 0.930 . S
C1562 C1561 1.362 . S
C1562 C1565 1.409 . S
C1563 H1555 0.930 . S
C1563 C1564 1.355 . S
C1563 C1565 1.415 . S
C1564 C1563 1.355 . S
C1564 C1566 1.419 . S
C1565 C1560 1.425 . S
C1565 C1562 1.409 . S
C1565 C1563 1.415 . S
C1566 H1556 0.930 . S
C1566 C1564 1.419 . S
C1566 C1567 1.362 . S
C1567 H1557 0.930 . S
C1567 C1560 1.409 . S
C1567 C1566 1.362 . S
H1568 C1574 0.930 . S
H1569 C1577 0.930 . S
H1570 C1578 0.930 . S
H1571 C1579 0.930 . S
H1572 C1582 0.930 . S
H1573 C1583 0.930 . S
C1574 H1568 0.930 . S
C1574 C1575 1.355 . S
C1574 C1576 1.415 . S
C1575 C1574 1.355 . S
C1575 C1577 1.419 . S
C1576 C1574 1.415 . S
C1576 C1581 1.425 . S
C1576 C1583 1.409 . S
C1577 H1569 0.930 . S
C1577 C1575 1.419 . S
C1577 C1578 1.362 . S
C1578 H1570 0.930 . S
C1578 C1577 1.362 . S
C1578 C1581 1.409 . S
C1579 H1571 0.930 . S
C1579 C1580 1.355 . S
C1579 C1581 1.415 . S
C1580 C1579 1.355 . S
C1580 C1582 1.419 . S
C1581 C1576 1.425 . S
C1581 C1578 1.409 . S
C1581 C1579 1.415 . S
C1582 H1572 0.930 . S
C1582 C1580 1.419 . S
C1582 C1583 1.362 . S
C1583 H1573 0.930 . S
C1583 C1576 1.409 . S
C1583 C1582 1.362 . S
H1584 C1590 0.930 . S
H1585 C1593 0.930 . S
H1586 C1594 0.930 . S
H1587 C1595 0.930 . S
H1588 C1598 0.930 . S
H1589 C1599 0.930 . S
C1590 H1584 0.930 . S
C1590 C1591 1.355 . S
C1590 C1592 1.415 . S
C1591 C1590 1.355 . S
C1591 C1593 1.419 . S
C1592 C1590 1.415 . S
C1592 C1597 1.425 . S
C1592 C1599 1.409 . S
C1593 H1585 0.930 . S
C1593 C1591 1.419 . S
C1593 C1594 1.362 . S
C1594 H1586 0.930 . S
C1594 C1593 1.362 . S
C1594 C1597 1.409 . S
C1595 H1587 0.930 . S
C1595 C1596 1.355 . S
C1595 C1597 1.415 . S
C1596 C1595 1.355 . S
C1596 C1598 1.419 . S
C1597 C1592 1.425 . S
C1597 C1594 1.409 . S
C1597 C1595 1.415 . S
C1598 H1588 0.930 . S
C1598 C1596 1.419 . S
C1598 C1599 1.362 . S
C1599 H1589 0.930 . S
C1599 C1592 1.409 . S
C1599 C1598 1.362 . S
H1600 C1606 0.930 . S
H1601 C1609 0.930 . S
H1602 C1610 0.930 . S
H1603 C1611 0.930 . S
H1604 C1614 0.930 . S
H1605 C1615 0.930 . S
C1606 H1600 0.930 . S
C1606 C1607 1.355 . S
C1606 C1608 1.415 . S
C1607 C1606 1.355 . S
C1607 C1609 1.419 . S
C1608 C1606 1.415 . S
C1608 C1613 1.425 1_455 S
C1608 C1615 1.409 1_455 S
C1609 H1601 0.930 . S
C1609 C1607 1.419 . S
C1609 C1610 1.362 . S
C1610 H1602 0.930 . S
C1610 C1609 1.362 . S
C1610 C1613 1.409 1_455 S
C1611 H1603 0.930 . S
C1611 C1612 1.355 . S
C1611 C1613 1.415 . S
C1612 C1611 1.355 . S
C1612 C1614 1.419 . S
C1613 C1608 1.425 1_655 S
C1613 C1610 1.409 1_655 S
C1613 C1611 1.415 . S
C1614 H1604 0.930 . S
C1614 C1612 1.419 . S
C1614 C1615 1.362 . S
C1615 H1605 0.930 . S
C1615 C1608 1.409 1_655 S
C1615 C1614 1.362 . S
H1616 C1622 0.930 . S
H1617 C1625 0.930 . S
H1618 C1626 0.930 . S
H1619 C1627 0.930 . S
H1620 C1630 0.930 . S
H1621 C1631 0.930 . S
C1622 H1616 0.930 . S
C1622 C1623 1.355 . S
C1622 C1624 1.415 . S
C1623 C1622 1.355 . S
C1623 C1625 1.419 . S
C1624 C1622 1.415 . S
C1624 C1629 1.425 . S
C1624 C1631 1.409 . S
C1625 H1617 0.930 . S
C1625 C1623 1.419 . S
C1625 C1626 1.362 . S
C1626 H1618 0.930 . S
C1626 C1625 1.362 . S
C1626 C1629 1.409 . S
C1627 H1619 0.930 . S
C1627 C1628 1.355 . S
C1627 C1629 1.415 . S
C1628 C1627 1.355 . S
C1628 C1630 1.419 . S
C1629 C1624 1.425 . S
C1629 C1626 1.409 . S
C1629 C1627 1.415 . S
C1630 H1620 0.930 . S
C1630 C1628 1.419 . S
C1630 C1631 1.362 . S
C1631 H1621 0.930 . S
C1631 C1624 1.409 . S
C1631 C1630 1.362 . S
H1632 C1638 0.930 . S
H1633 C1641 0.930 . S
H1634 C1642 0.930 . S
H1635 C1643 0.930 . S
H1636 C1646 0.930 . S
H1637 C1647 0.930 . S
C1638 H1632 0.930 . S
C1638 C1639 1.355 . S
C1638 C1640 1.415 . S
C1639 C1638 1.355 . S
C1639 C1641 1.419 . S
C1640 C1638 1.415 . S
C1640 C1645 1.425 . S
C1640 C1647 1.409 . S
C1641 H1633 0.930 . S
C1641 C1639 1.419 . S
C1641 C1642 1.362 . S
C1642 H1634 0.930 . S
C1642 C1641 1.362 . S
C1642 C1645 1.409 . S
C1643 H1635 0.930 . S
C1643 C1644 1.355 . S
C1643 C1645 1.415 . S
C1644 C1643 1.355 . S
C1644 C1646 1.419 . S
C1645 C1640 1.425 . S
C1645 C1642 1.409 . S
C1645 C1643 1.415 . S
C1646 H1636 0.930 . S
C1646 C1644 1.419 . S
C1646 C1647 1.362 . S
C1647 H1637 0.930 . S
C1647 C1640 1.409 . S
C1647 C1646 1.362 . S
H1648 C1654 0.930 . S
H1649 C1657 0.930 . S
H1650 C1658 0.930 . S
H1651 C1659 0.930 . S
H1652 C1662 0.930 . S
H1653 C1663 0.930 . S
C1654 H1648 0.930 . S
C1654 C1655 1.355 . S
C1654 C1656 1.415 . S
C1655 C1654 1.355 . S
C1655 C1657 1.419 . S
C1656 C1654 1.415 . S
C1656 C1661 1.425 1_455 S
C1656 C1663 1.409 1_455 S
C1657 H1649 0.930 . S
C1657 C1655 1.419 . S
C1657 C1658 1.362 . S
C1658 H1650 0.930 . S
C1658 C1657 1.362 . S
C1658 C1661 1.409 1_455 S
C1659 H1651 0.930 . S
C1659 C1660 1.355 . S
C1659 C1661 1.415 . S
C1660 C1659 1.355 . S
C1660 C1662 1.419 . S
C1661 C1656 1.425 1_655 S
C1661 C1658 1.409 1_655 S
C1661 C1659 1.415 . S
C1662 H1652 0.930 . S
C1662 C1660 1.419 . S
C1662 C1663 1.362 . S
C1663 H1653 0.930 . S
C1663 C1656 1.409 1_655 S
C1663 C1662 1.362 . S
H1664 C1670 0.930 . S
H1665 C1673 0.930 . S
H1666 C1674 0.930 . S
H1667 C1675 0.930 . S
H1668 C1678 0.930 . S
H1669 C1679 0.930 . S
C1670 H1664 0.930 . S
C1670 C1671 1.355 . S
C1670 C1672 1.381 1_554 S
C1671 C1670 1.355 . S
C1671 C1673 1.419 . S
C1672 C1670 1.381 1_556 S
C1672 C1677 1.422 1_556 S
C1672 C1679 1.446 . S
C1673 H1665 0.930 . S
C1673 C1671 1.419 . S
C1673 C1674 1.362 . S
C1674 H1666 0.930 . S
C1674 C1673 1.362 . S
C1674 C1677 1.446 . S
C1675 H1667 0.930 . S
C1675 C1676 1.355 . S
C1675 C1677 1.381 1_556 S
C1676 C1675 1.355 . S
C1676 C1678 1.419 . S
C1677 C1672 1.422 1_554 S
C1677 C1674 1.446 . S
C1677 C1675 1.381 1_554 S
C1678 H1668 0.930 . S
C1678 C1676 1.419 . S
C1678 C1679 1.362 . S
C1679 H1669 0.930 . S
C1679 C1672 1.446 . S
C1679 C1678 1.362 . S
H1680 C1686 0.930 . S
H1681 C1689 0.930 . S
H1682 C1690 0.930 . S
H1683 C1691 0.930 . S
H1684 C1694 0.930 . S
H1685 C1695 0.930 . S
C1686 H1680 0.930 . S
C1686 C1687 1.355 . S
C1686 C1688 1.415 . S
C1687 C1686 1.355 . S
C1687 C1689 1.419 . S
C1688 C1686 1.415 . S
C1688 C1693 1.425 . S
C1688 C1695 1.409 . S
C1689 H1681 0.930 . S
C1689 C1687 1.419 . S
C1689 C1690 1.362 . S
C1690 H1682 0.930 . S
C1690 C1689 1.362 . S
C1690 C1693 1.409 . S
C1691 H1683 0.930 . S
C1691 C1692 1.355 . S
C1691 C1693 1.415 . S
C1692 C1691 1.355 . S
C1692 C1694 1.419 . S
C1693 C1688 1.425 . S
C1693 C1690 1.409 . S
C1693 C1691 1.415 . S
C1694 H1684 0.930 . S
C1694 C1692 1.419 . S
C1694 C1695 1.362 . S
C1695 H1685 0.930 . S
C1695 C1688 1.409 . S
C1695 C1694 1.362 . S
H1696 C1702 0.930 . S
H1697 C1705 0.930 . S
H1698 C1706 0.930 . S
H1699 C1707 0.930 . S
H1700 C1710 0.930 . S
H1701 C1711 0.930 . S
C1702 H1696 0.930 . S
C1702 C1703 1.355 . S
C1702 C1704 1.415 . S
C1703 C1702 1.355 . S
C1703 C1705 1.419 . S
C1704 C1702 1.415 . S
C1704 C1709 1.425 . S
C1704 C1711 1.409 . S
C1705 H1697 0.930 . S
C1705 C1703 1.419 . S
C1705 C1706 1.362 . S
C1706 H1698 0.930 . S
C1706 C1705 1.362 . S
C1706 C1709 1.409 . S
C1707 H1699 0.930 . S
C1707 C1708 1.355 . S
C1707 C1709 1.415 . S
C1708 C1707 1.355 . S
C1708 C1710 1.419 . S
C1709 C1704 1.425 . S
C1709 C1706 1.409 . S
C1709 C1707 1.415 . S
C1710 H1700 0.930 . S
C1710 C1708 1.419 . S
C1710 C1711 1.362 . S
C1711 H1701 0.930 . S
C1711 C1704 1.409 . S
C1711 C1710 1.362 . S
H1712 C1718 0.930 . S
H1713 C1721 0.930 . S
H1714 C1722 0.930 . S
H1715 C1723 0.930 . S
H1716 C1726 0.930 . S
H1717 C1727 0.930 . S
C1718 H1712 0.930 . S
C1718 C1719 1.355 . S
C1718 C1720 1.415 . S
C1719 C1718 1.355 . S
C1719 C1721 1.419 . S
C1720 C1718 1.415 . S
C1720 C1725 1.425 . S
C1720 C1727 1.409 . S
C1721 H1713 0.930 . S
C1721 C1719 1.419 . S
C1721 C1722 1.362 . S
C1722 H1714 0.930 . S
C1722 C1721 1.362 . S
C1722 C1725 1.409 . S
C1723 H1715 0.930 . S
C1723 C1724 1.355 . S
C1723 C1725 1.415 . S
C1724 C1723 1.355 . S
C1724 C1726 1.419 . S
C1725 C1720 1.425 . S
C1725 C1722 1.409 . S
C1725 C1723 1.415 . S
C1726 H1716 0.930 . S
C1726 C1724 1.419 . S
C1726 C1727 1.362 . S
C1727 H1717 0.930 . S
C1727 C1720 1.409 . S
C1727 C1726 1.362 . S
H1728 C1734 0.930 . S
H1729 C1737 0.930 . S
H1730 C1738 0.930 . S
H1731 C1739 0.930 . S
H1732 C1742 0.930 . S
H1733 C1743 0.930 . S
C1734 H1728 0.930 . S
C1734 C1735 1.355 . S
C1734 C1736 1.415 . S
C1735 C1734 1.355 . S
C1735 C1737 1.419 . S
C1736 C1734 1.415 . S
C1736 C1741 1.425 1_556 S
C1736 C1743 1.409 1_556 S
C1737 H1729 0.930 . S
C1737 C1735 1.419 . S
C1737 C1738 1.362 . S
C1738 H1730 0.930 . S
C1738 C1737 1.362 . S
C1738 C1741 1.409 1_556 S
C1739 H1731 0.930 . S
C1739 C1740 1.355 . S
C1739 C1741 1.415 . S
C1740 C1739 1.355 . S
C1740 C1742 1.419 . S
C1741 C1736 1.425 1_554 S
C1741 C1738 1.409 1_554 S
C1741 C1739 1.415 . S
C1742 H1732 0.930 . S
C1742 C1740 1.419 . S
C1742 C1743 1.362 . S
C1743 H1733 0.930 . S
C1743 C1736 1.409 1_554 S
C1743 C1742 1.362 . S
H1744 C1750 0.930 . S
H1745 C1753 0.930 . S
H1746 C1754 0.930 . S
H1747 C1755 0.930 . S
H1748 C1758 0.930 . S
H1749 C1759 0.930 . S
C1750 H1744 0.930 . S
C1750 C1751 1.355 . S
C1750 C1752 1.415 . S
C1751 C1750 1.355 . S
C1751 C1753 1.419 . S
C1752 C1750 1.415 . S
C1752 C1757 1.425 . S
C1752 C1759 1.409 . S
C1753 H1745 0.930 . S
C1753 C1751 1.419 . S
C1753 C1754 1.362 . S
C1754 H1746 0.930 . S
C1754 C1753 1.362 . S
C1754 C1757 1.409 . S
C1755 H1747 0.930 . S
C1755 C1756 1.355 . S
C1755 C1757 1.415 . S
C1756 C1755 1.355 . S
C1756 C1758 1.419 . S
C1757 C1752 1.425 . S
C1757 C1754 1.409 . S
C1757 C1755 1.415 . S
C1758 H1748 0.930 . S
C1758 C1756 1.419 . S
C1758 C1759 1.362 . S
C1759 H1749 0.930 . S
C1759 C1752 1.409 . S
C1759 C1758 1.362 . S
H1760 C1766 0.930 . S
H1761 C1769 0.930 . S
H1762 C1770 0.930 . S
H1763 C1771 0.930 . S
H1764 C1774 0.930 . S
H1765 C1775 0.930 . S
C1766 H1760 0.930 . S
C1766 C1767 1.355 . S
C1766 C1768 1.415 . S
C1767 C1766 1.355 . S
C1767 C1769 1.419 . S
C1768 C1766 1.415 . S
C1768 C1773 1.425 . S
C1768 C1775 1.409 . S
C1769 H1761 0.930 . S
C1769 C1767 1.419 . S
C1769 C1770 1.362 . S
C1770 H1762 0.930 . S
C1770 C1769 1.362 . S
C1770 C1773 1.409 . S
C1771 H1763 0.930 . S
C1771 C1772 1.355 . S
C1771 C1773 1.415 . S
C1772 C1771 1.355 . S
C1772 C1774 1.419 . S
C1773 C1768 1.425 . S
C1773 C1770 1.409 . S
C1773 C1771 1.415 . S
C1774 H1764 0.930 . S
C1774 C1772 1.419 . S
C1774 C1775 1.362 . S
C1775 H1765 0.930 . S
C1775 C1768 1.409 . S
C1775 C1774 1.362 . S
H1776 C1782 0.930 . S
H1777 C1785 0.930 . S
H1778 C1786 0.930 . S
H1779 C1787 0.930 . S
H1780 C1790 0.930 . S
H1781 C1791 0.930 . S
C1782 H1776 0.930 . S
C1782 C1783 1.355 . S
C1782 C1784 1.415 . S
C1783 C1782 1.355 . S
C1783 C1785 1.419 . S
C1784 C1782 1.415 . S
C1784 C1789 1.425 . S
C1784 C1791 1.409 . S
C1785 H1777 0.930 . S
C1785 C1783 1.419 . S
C1785 C1786 1.362 . S
C1786 H1778 0.930 . S
C1786 C1785 1.362 . S
C1786 C1789 1.409 . S
C1787 H1779 0.930 . S
C1787 C1788 1.355 . S
C1787 C1789 1.415 . S
C1788 C1787 1.355 . S
C1788 C1790 1.419 . S
C1789 C1784 1.425 . S
C1789 C1786 1.409 . S
C1789 C1787 1.415 . S
C1790 H1780 0.930 . S
C1790 C1788 1.419 . S
C1790 C1791 1.362 . S
C1791 H1781 0.930 . S
C1791 C1784 1.409 . S
C1791 C1790 1.362 . S
H1792 C1798 0.930 1_565 S
H1793 C1801 0.930 . S
H1794 C1802 0.930 . S
H1795 C1803 0.930 1_545 S
H1796 C1806 0.930 . S
H1797 C1807 0.930 . S
C1798 H1792 0.930 1_545 S
C1798 C1799 1.355 . S
C1798 C1800 1.415 1_545 S
C1799 C1798 1.355 . S
C1799 C1801 1.419 . S
C1800 C1798 1.415 1_565 S
C1800 C1805 1.425 1_565 S
C1800 C1807 1.409 . S
C1801 H1793 0.930 . S
C1801 C1799 1.419 . S
C1801 C1802 1.362 . S
C1802 H1794 0.930 . S
C1802 C1801 1.362 . S
C1802 C1805 1.409 . S
C1803 H1795 0.930 1_565 S
C1803 C1804 1.355 . S
C1803 C1805 1.415 1_565 S
C1804 C1803 1.355 . S
C1804 C1806 1.419 . S
C1805 C1800 1.425 1_545 S
C1805 C1802 1.409 . S
C1805 C1803 1.415 1_545 S
C1806 H1796 0.930 . S
C1806 C1804 1.419 . S
C1806 C1807 1.362 . S
C1807 H1797 0.930 . S
C1807 C1800 1.409 . S
C1807 C1806 1.362 . S
H1808 C1814 0.930 . S
H1809 C1817 0.930 . S
H1810 C1818 0.930 . S
H1811 C1819 0.930 . S
H1812 C1822 0.930 . S
H1813 C1823 0.930 . S
C1814 H1808 0.930 . S
C1814 C1815 1.355 . S
C1814 C1816 1.415 . S
C1815 C1814 1.355 . S
C1815 C1817 1.419 . S
C1816 C1814 1.415 . S
C1816 C1821 1.425 . S
C1816 C1823 1.409 . S
C1817 H1809 0.930 . S
C1817 C1815 1.419 . S
C1817 C1818 1.362 . S
C1818 H1810 0.930 . S
C1818 C1817 1.362 . S
C1818 C1821 1.409 . S
C1819 H1811 0.930 . S
C1819 C1820 1.355 . S
C1819 C1821 1.415 . S
C1820 C1819 1.355 . S
C1820 C1822 1.419 . S
C1821 C1816 1.425 . S
C1821 C1818 1.409 . S
C1821 C1819 1.415 . S
C1822 H1812 0.930 . S
C1822 C1820 1.419 . S
C1822 C1823 1.362 . S
C1823 H1813 0.930 . S
C1823 C1816 1.409 . S
C1823 C1822 1.362 . S
H1824 C1830 0.930 1_565 S
H1825 C1833 0.930 . S
H1826 C1834 0.929 1_554 S
H1827 C1835 0.930 1_545 S
H1828 C1838 0.930 . S
H1829 C1839 0.929 1_556 S
C1830 H1824 0.930 1_545 S
C1830 C1831 1.355 . S
C1830 C1832 1.415 1_545 S
C1831 C1830 1.355 . S
C1831 C1833 1.419 . S
C1832 C1830 1.415 1_565 S
C1832 C1837 1.425 1_566 S
C1832 C1839 1.408 1_556 S
C1833 H1825 0.930 . S
C1833 C1831 1.419 . S
C1833 C1834 1.365 . S
C1834 H1826 0.929 1_556 S
C1834 C1833 1.365 . S
C1834 C1837 1.408 1_556 S
C1835 H1827 0.930 1_565 S
C1835 C1836 1.355 . S
C1835 C1837 1.415 1_565 S
C1836 C1835 1.355 . S
C1836 C1838 1.419 . S
C1837 C1832 1.425 1_544 S
C1837 C1834 1.408 1_554 S
C1837 C1835 1.415 1_545 S
C1838 H1828 0.930 . S
C1838 C1836 1.419 . S
C1838 C1839 1.365 . S
C1839 H1829 0.929 1_554 S
C1839 C1832 1.408 1_554 S
C1839 C1838 1.365 . S
H1840 C1846 0.930 . S
H1841 C1849 0.930 . S
H1842 C1850 0.930 . S
H1843 C1851 0.930 . S
H1844 C1854 0.930 . S
H1845 C1855 0.930 . S
C1846 H1840 0.930 . S
C1846 C1847 1.355 . S
C1846 C1848 1.415 . S
C1847 C1846 1.355 . S
C1847 C1849 1.419 . S
C1848 C1846 1.415 . S
C1848 C1853 1.425 . S
C1848 C1855 1.409 . S
C1849 H1841 0.930 . S
C1849 C1847 1.419 . S
C1849 C1850 1.362 . S
C1850 H1842 0.930 . S
C1850 C1849 1.362 . S
C1850 C1853 1.409 . S
C1851 H1843 0.930 . S
C1851 C1852 1.355 . S
C1851 C1853 1.415 . S
C1852 C1851 1.355 . S
C1852 C1854 1.419 . S
C1853 C1848 1.425 . S
C1853 C1850 1.409 . S
C1853 C1851 1.415 . S
C1854 H1844 0.930 . S
C1854 C1852 1.419 . S
C1854 C1855 1.362 . S
C1855 H1845 0.930 . S
C1855 C1848 1.409 . S
C1855 C1854 1.362 . S
H1856 C1862 0.930 . S
H1857 C1865 0.930 . S
H1858 C1866 0.930 . S
H1859 C1867 0.930 . S
H1860 C1870 0.930 . S
H1861 C1871 0.930 . S
C1862 H1856 0.930 . S
C1862 C1863 1.355 . S
C1862 C1864 1.427 . S
C1863 C1862 1.355 . S
C1863 C1865 1.419 . S
C1864 C1862 1.427 . S
C1864 C1869 1.424 1_545 S
C1864 C1871 1.399 1_545 S
C1865 H1857 0.930 . S
C1865 C1863 1.419 . S
C1865 C1866 1.362 . S
C1866 H1858 0.930 . S
C1866 C1865 1.362 . S
C1866 C1869 1.399 1_545 S
C1867 H1859 0.930 . S
C1867 C1868 1.355 . S
C1867 C1869 1.427 . S
C1868 C1867 1.355 . S
C1868 C1870 1.419 . S
C1869 C1864 1.424 1_565 S
C1869 C1866 1.399 1_565 S
C1869 C1867 1.427 . S
C1870 H1860 0.930 . S
C1870 C1868 1.419 . S
C1870 C1871 1.362 . S
C1871 H1861 0.930 . S
C1871 C1864 1.399 1_565 S
C1871 C1870 1.362 . S
H1872 C1878 0.930 . S
H1873 C1881 0.930 . S
H1874 C1882 0.930 . S
H1875 C1883 0.930 . S
H1876 C1886 0.930 . S
H1877 C1887 0.930 . S
C1878 H1872 0.930 . S
C1878 C1879 1.355 . S
C1878 C1880 1.415 . S
C1879 C1878 1.355 . S
C1879 C1881 1.419 . S
C1880 C1878 1.415 . S
C1880 C1885 1.425 . S
C1880 C1887 1.409 . S
C1881 H1873 0.930 . S
C1881 C1879 1.419 . S
C1881 C1882 1.362 . S
C1882 H1874 0.930 . S
C1882 C1881 1.362 . S
C1882 C1885 1.409 . S
C1883 H1875 0.930 . S
C1883 C1884 1.355 . S
C1883 C1885 1.415 . S
C1884 C1883 1.355 . S
C1884 C1886 1.419 . S
C1885 C1880 1.425 . S
C1885 C1882 1.409 . S
C1885 C1883 1.415 . S
C1886 H1876 0.930 . S
C1886 C1884 1.419 . S
C1886 C1887 1.362 . S
C1887 H1877 0.930 . S
C1887 C1880 1.409 . S
C1887 C1886 1.362 . S
H1888 C1894 0.930 . S
H1889 C1897 0.930 . S
H1890 C1898 0.930 . S
H1891 C1899 0.930 . S
H1892 C1902 0.930 . S
H1893 C1903 0.930 . S
C1894 H1888 0.930 . S
C1894 C1895 1.355 . S
C1894 C1896 1.415 1_554 S
C1895 C1894 1.355 . S
C1895 C1897 1.419 1_565 S
C1896 C1894 1.415 1_556 S
C1896 C1901 1.425 1_566 S
C1896 C1903 1.409 . S
C1897 H1889 0.930 . S
C1897 C1895 1.419 1_545 S
C1897 C1898 1.362 . S
C1898 H1890 0.930 . S
C1898 C1897 1.362 . S
C1898 C1901 1.409 . S
C1899 H1891 0.930 . S
C1899 C1900 1.355 . S
C1899 C1901 1.415 1_556 S
C1900 C1899 1.355 . S
C1900 C1902 1.419 1_545 S
C1901 C1896 1.425 1_544 S
C1901 C1898 1.409 . S
C1901 C1899 1.415 1_554 S
C1902 H1892 0.930 . S
C1902 C1900 1.419 1_565 S
C1902 C1903 1.362 . S
C1903 H1893 0.930 . S
C1903 C1896 1.409 . S
C1903 C1902 1.362 . S
H1904 C1910 0.930 . S
H1905 C1913 0.930 . S
H1906 C1914 0.930 . S
H1907 C1915 0.930 . S
H1908 C1918 0.930 . S
H1909 C1919 0.930 . S
C1910 H1904 0.930 . S
C1910 C1911 1.355 . S
C1910 C1912 1.415 . S
C1911 C1910 1.355 . S
C1911 C1913 1.419 . S
C1912 C1910 1.415 . S
C1912 C1917 1.425 . S
C1912 C1919 1.409 . S
C1913 H1905 0.930 . S
C1913 C1911 1.419 . S
C1913 C1914 1.362 . S
C1914 H1906 0.930 . S
C1914 C1913 1.362 . S
C1914 C1917 1.409 . S
C1915 H1907 0.930 . S
C1915 C1916 1.355 . S
C1915 C1917 1.415 . S
C1916 C1915 1.355 . S
C1916 C1918 1.419 . S
C1917 C1912 1.425 . S
C1917 C1914 1.409 . S
C1917 C1915 1.415 . S
C1918 H1908 0.930 . S
C1918 C1916 1.419 . S
C1918 C1919 1.362 . S
C1919 H1909 0.930 . S
C1919 C1912 1.409 . S
C1919 C1918 1.362 . S
C1415 C1017 1.503 . S
C1420 C20 1.479 . S
C1431 C1369 1.491 . S
C1436 C108 1.487 . S
C1447 C225 1.503 . S
C1452 C812 1.477 . S
C1463 C1164 1.477 . S
C1468 C321 1.503 . S
C1479 C409 1.478 . S
C1484 C1173 1.503 . S
C1495 C469 1.500 . S
C1500 C1025 1.479 . S
C1511 C548 1.499 . S
C1516 C1377 1.483 . S
C1527 C673 1.492 . S
C1532 C821 1.491 . S
C1543 C284 1.503 . S
C1548 C761 1.476 . S
C1559 C900 1.477 . S
C1564 C145 1.504 . S
C1575 C1076 1.480 . S
C1580 C489 1.499 . S
C1591 C1281 1.476 . S
C1596 C636 1.503 . S
C1607 C372 1.480 . S
C1612 C753 1.502 . S
C1623 C909 1.478 . S
C1628 C585 1.502 . S
C1639 C1289 1.501 . S
C1644 C205 1.479 . S
C1655 C57 1.487 . S
C1660 C1085 1.492 . S
C1671 C49 1.005 . S
C1676 C381 1.050 . S
C1687 C137 1.017 . S
C1692 C497 0.996 . S
C1703 C196 1.013 . S
C1708 C577 1.048 . S
C1719 C645 1.020 . S
C1724 C293 1.044 . S
C1735 C733 1.041 . S
C1740 C1105 0.993 . S
C1751 C1193 1.042 . S
C1756 C849 1.026 . S
C1767 C929 1.027 . S
C1772 C1252 0.996 . S
C1783 C1340 0.996 . S
C1788 C997 1.028 . S
C1799 C665 0.996 . S
C1804 C117 1.017 . S
C1815 C233 0.999 . S
C1820 C401 1.013 . S
C1831 C313 0.996 . S
C1836 C460 1.017 . S
C1847 C29 1.018 . S
C1852 C557 1.045 . S
C1863 C841 1.039 . S
C1868 C1349 0.993 . S
C1879 C1113 0.993 . S
C1884 C937 1.036 . S
C1895 C988 1.045 . S
C1900 C1201 1.022 . S
C1911 C1261 1.049 . S
C1916 C724 1.014 . S
