# Generated by pormake.
# Topology smm, (6)-cn, num edge types: 1
# Building blocks:
#     Node 0, Type 0, BuildingBlock: FUNLAD_clean_sbu_0, # of connection points: 6
#     Node 1, Type 0, BuildingBlock: FUNLAD_clean_sbu_0, # of connection points: 6
#     Node 2, Type 0, BuildingBlock: FUNLAD_clean_sbu_0, # of connection points: 6
#     Node 3, Type 0, BuildingBlock: FUNLAD_clean_sbu_0, # of connection points: 6
#     Node 4, Type 0, BuildingBlock: FUNLAD_clean_sbu_0, # of connection points: 6
#     Node 5, Type 0, BuildingBlock: FUNLAD_clean_sbu_0, # of connection points: 6
#     Node 6, Type 0, BuildingBlock: FUNLAD_clean_sbu_0, # of connection points: 6
#     Node 7, Type 0, BuildingBlock: FUNLAD_clean_sbu_0, # of connection points: 6
#     Node 8, Type 0, BuildingBlock: FUNLAD_clean_sbu_0, # of connection points: 6
#     Edge 9, Type (0, 0), BuildingBlock: UVAHIK_clean_linker_0, # of connection points: 2
#     Edge 10, Type (0, 0), BuildingBlock: UVAHIK_clean_linker_0, # of connection points: 2
#     Edge 11, Type (0, 0), BuildingBlock: UVAHIK_clean_linker_0, # of connection points: 2
#     Edge 12, Type (0, 0), BuildingBlock: UVAHIK_clean_linker_0, # of connection points: 2
#     Edge 13, Type (0, 0), BuildingBlock: UVAHIK_clean_linker_0, # of connection points: 2
#     Edge 14, Type (0, 0), BuildingBlock: UVAHIK_clean_linker_0, # of connection points: 2
#     Edge 15, Type (0, 0), BuildingBlock: UVAHIK_clean_linker_0, # of connection points: 2
#     Edge 16, Type (0, 0), BuildingBlock: UVAHIK_clean_linker_0, # of connection points: 2
#     Edge 17, Type (0, 0), BuildingBlock: UVAHIK_clean_linker_0, # of connection points: 2
#     Edge 18, Type (0, 0), BuildingBlock: UVAHIK_clean_linker_0, # of connection points: 2
#     Edge 19, Type (0, 0), BuildingBlock: UVAHIK_clean_linker_0, # of connection points: 2
#     Edge 20, Type (0, 0), BuildingBlock: UVAHIK_clean_linker_0, # of connection points: 2
#     Edge 21, Type (0, 0), BuildingBlock: UVAHIK_clean_linker_0, # of connection points: 2
#     Edge 22, Type (0, 0), BuildingBlock: UVAHIK_clean_linker_0, # of connection points: 2
#     Edge 23, Type (0, 0), BuildingBlock: UVAHIK_clean_linker_0, # of connection points: 2
#     Edge 24, Type (0, 0), BuildingBlock: UVAHIK_clean_linker_0, # of connection points: 2
#     Edge 25, Type (0, 0), BuildingBlock: UVAHIK_clean_linker_0, # of connection points: 2
#     Edge 26, Type (0, 0), BuildingBlock: UVAHIK_clean_linker_0, # of connection points: 2
#     Edge 27, Type (0, 0), BuildingBlock: UVAHIK_clean_linker_0, # of connection points: 2
#     Edge 28, Type (0, 0), BuildingBlock: UVAHIK_clean_linker_0, # of connection points: 2
#     Edge 29, Type (0, 0), BuildingBlock: UVAHIK_clean_linker_0, # of connection points: 2
#     Edge 30, Type (0, 0), BuildingBlock: UVAHIK_clean_linker_0, # of connection points: 2
#     Edge 31, Type (0, 0), BuildingBlock: UVAHIK_clean_linker_0, # of connection points: 2
#     Edge 32, Type (0, 0), BuildingBlock: UVAHIK_clean_linker_0, # of connection points: 2
#     Edge 33, Type (0, 0), BuildingBlock: UVAHIK_clean_linker_0, # of connection points: 2
#     Edge 34, Type (0, 0), BuildingBlock: UVAHIK_clean_linker_0, # of connection points: 2
#     Edge 35, Type (0, 0), BuildingBlock: UVAHIK_clean_linker_0, # of connection points: 2
# Relax obj value: 0.384
# Max RMSD: 0.269
# Mean RMSD: 0.267
data_MOF--net-smm--node1-FUNLAD_clean_sbu_0--edge1-UVAHIK_clean_linker_0
_symmetry_space_group_name_H-M    P1
_symmetry_Int_Tables_number       1
_symmetry_cell_setting            triclinic
loop_
_symmetry_equiv_pos_as_xyz
'x, y, z'
_cell_length_a     61.914406
_cell_length_b     61.804564
_cell_length_c     25.596818
_cell_angle_alpha  90.422617
_cell_angle_beta   90.500658
_cell_angle_gamma 120.04322
loop_
_atom_site_label
_atom_site_type_symbol
_atom_site_fract_x
_atom_site_fract_y
_atom_site_fract_z
_atom_type_partial_charge
C0 C -0.00341 0.14597 0.03237 0.0
N1 N 0.0348 0.19904 0.15198 0.0
C2 C 0.0156 0.18178 0.1807 0.0
C3 C 0.01848 0.18041 0.23417 0.0
C4 C 0.04127 0.19709 0.25859 0.0
C5 C 0.06087 0.21477 0.22827 0.0
C6 C 0.05725 0.21533 0.17444 0.0
Zn7 Zn 0.02815 0.19919 0.07448 0.0
C8 C 0.06507 0.19647 0.01155 0.0
N9 N 0.00974 0.19589 0.91411 0.0
C10 C 0.98757 0.17946 0.89079 0.0
C11 C 0.02955 0.21242 0.88571 0.0
C12 C 0.02769 0.21275 0.83173 0.0
C13 C 0.00534 0.19566 0.80641 0.0
C14 C 0.985 0.17889 0.83639 0.0
Zn15 Zn 0.01602 0.19585 -0.00807 0.0
O16 O 0.00793 0.15856 0.07326 0.0
C17 C 0.97902 0.19734 0.05965 0.0
O18 O -0.00322 0.15733 -0.00869 0.0
H19 H 0.04717 0.22498 0.9048 0.0
H20 H -0.00218 0.1692 0.16224 0.0
H21 H 0.97212 0.16642 0.91424 0.0
O22 O 0.99544 0.19899 0.0918 0.0
O23 O 0.98222 0.19627 0.01081 0.0
H24 H 0.07224 0.22883 0.15069 0.0
O25 O 0.03515 0.23443 -0.00829 0.0
O26 O 0.04862 0.23973 0.07293 0.0
O27 O 0.04995 0.1948 0.9755 0.0
O28 O 0.06047 0.19909 0.05846 0.0
C29 C 0.04748 0.24885 0.02926 0.0
H30 H 0.00274 0.16688 0.25643 0.0
H31 H 0.07869 0.22798 0.246 0.0
H32 H 0.04397 0.22559 0.80986 0.0
H33 H 0.96749 0.16539 0.81795 0.0
C34 C 0.84241 0.87925 0.98751 0.0
N35 N 0.83245 0.82828 0.86655 0.0
C36 C 0.83008 0.8455 0.83813 0.0
C37 C 0.83304 0.8465 0.78434 0.0
C38 C 0.83829 0.82947 0.75919 0.0
C39 C 0.84122 0.81219 0.78937 0.0
C40 C 0.83831 0.812 0.84353 0.0
Zn41 Zn 0.82434 0.82679 0.94365 0.0
C42 C 0.86342 0.8314 0.01162 0.0
N43 N 0.805 0.82729 0.10166 0.0
C44 C 0.79716 0.84218 0.12396 0.0
C45 C 0.80927 0.81146 0.13078 0.0
C46 C 0.8059 0.81025 0.18443 0.0
C47 C 0.79844 0.82577 0.20878 0.0
C48 C 0.79392 0.84186 0.17804 0.0
Zn49 Zn 0.81298 0.82873 0.02446 0.0
O50 O 0.84351 0.8673 0.94783 0.0
C51 C 0.77469 0.82489 0.9522 0.0
O52 O 0.82952 0.86719 0.02622 0.0
H53 H 0.81598 0.80014 0.11261 0.0
H54 H 0.82498 0.85799 0.8569 0.0
H55 H 0.79399 0.8547 0.10002 0.0
O56 O 0.79121 0.82558 0.92234 0.0
O57 O 0.77769 0.82508 0.00152 0.0
H58 H 0.84008 0.79846 0.86695 0.0
O59 O 0.79635 0.79016 0.02322 0.0
O60 O 0.80602 0.78641 0.94286 0.0
O61 O 0.84913 0.83289 0.0452 0.0
O62 O 0.85701 0.828 0.96385 0.0
C63 C 0.79575 0.77641 0.98574 0.0
H64 H 0.83009 0.85975 0.76243 0.0
H65 H 0.84529 0.79877 0.77123 0.0
H66 H 0.81012 0.79801 0.20694 0.0
H67 H 0.78823 0.85417 0.19569 0.0
C68 C 0.16373 0.03768 0.97548 0.0
N69 N 0.18172 0.99355 0.07123 0.0
C70 C 0.19473 0.01472 0.10066 0.0
C71 C 0.19662 0.01328 0.15449 0.0
C72 C 0.18486 0.98982 0.1783 0.0
C73 C 0.1722 0.9682 0.14693 0.0
C74 C 0.17093 0.97051 0.09298 0.0
Zn75 Zn 0.1771 0.99746 -0.00565 0.0
C76 C 0.12486 0.96535 0.96061 0.0
N77 N 0.16772 0.00777 0.83472 0.0
C78 C 0.1794 0.03075 0.81269 0.0
C79 C 0.1536 0.98669 0.80568 0.0
C80 C 0.15155 0.98813 0.75188 0.0
C81 C 0.1642 0.01148 0.72773 0.0
C82 C 0.17789 0.03306 0.75882 0.0
Zn83 Zn 0.17242 0.00386 0.9115 0.0
O84 O 0.16812 0.02669 0.01255 0.0
C85 C 0.22462 0.03591 0.94981 0.0
O86 O 0.16453 0.0314 0.92876 0.0
H87 H 0.14457 0.96862 0.82405 0.0
H88 H 0.203 0.03285 0.08256 0.0
H89 H 0.19041 0.04724 0.83673 0.0
O90 O 0.21421 0.02398 0.99054 0.0
O91 O 0.21197 0.03162 0.90767 0.0
H92 H 0.16074 0.95396 0.06864 0.0
O93 O 0.18018 0.97595 0.89277 0.0
O94 O 0.18638 0.96896 0.97379 0.0
O95 O 0.1333 0.9766 0.91771 0.0
O96 O 0.13962 0.97052 -0.00075 0.0
C97 C 0.18563 0.96402 0.92517 0.0
H98 H 0.20618 0.03041 0.17743 0.0
H99 H 0.16298 0.94979 0.16403 0.0
H100 H 0.14115 0.971 0.72922 0.0
H101 H 0.18775 0.05141 0.74155 0.0
C102 C 0.69805 0.49215 0.30633 0.0
N103 N 0.65981 0.50285 0.18157 0.0
C104 C 0.6794 0.5054 0.15322 0.0
C105 C 0.67717 0.50201 0.09934 0.0
C106 C 0.65462 0.49609 0.07425 0.0
C107 C 0.63442 0.49287 0.10447 0.0
C108 C 0.63743 0.49628 0.15858 0.0
Zn109 Zn 0.66592 0.5111 0.25882 0.0
C110 C 0.62841 0.47199 0.3227 0.0
N111 N 0.68186 0.52985 0.41912 0.0
C112 C 0.70452 0.53753 0.442 0.0
C113 C 0.66187 0.52606 0.44763 0.0
C114 C 0.66402 0.52947 0.50149 0.0
C115 C 0.6869 0.53658 0.52644 0.0
C116 C 0.70744 0.5409 0.49615 0.0
Zn117 Zn 0.67589 0.52168 0.3418 0.0
O118 O 0.68714 0.49197 0.26378 0.0
C119 C 0.71286 0.5603 0.27359 0.0
O120 O 0.69664 0.50391 0.34561 0.0
H121 H 0.64395 0.51966 0.42876 0.0
H122 H 0.6971 0.51088 0.17221 0.0
H123 H 0.72014 0.54042 0.41842 0.0
O124 O 0.69808 0.54416 0.24072 0.0
O125 O 0.70854 0.55658 0.32221 0.0
H126 H 0.62211 0.49428 0.18206 0.0
O127 O 0.65548 0.53951 0.33891 0.0
O128 O 0.64425 0.53005 0.25664 0.0
O129 O 0.64257 0.48633 0.35926 0.0
O130 O 0.63408 0.47833 0.2757 0.0
C131 C 0.64385 0.54061 0.29921 0.0
H132 H 0.69334 0.50515 0.07735 0.0
H133 H 0.61671 0.48823 0.08639 0.0
H134 H 0.64762 0.52548 0.52361 0.0
H135 H 0.72538 0.5464 0.51421 0.0
C136 C 0.48833 0.21205 0.3128 0.0
N137 N 0.49479 0.17173 0.1875 0.0
C138 C 0.48384 0.18198 0.15835 0.0
C139 C 0.48871 0.18592 0.10534 0.0
C140 C 0.50493 0.17914 0.08209 0.0
C141 C 0.51612 0.1687 0.11304 0.0
C142 C 0.51081 0.16521 0.16616 0.0
Zn143 Zn 0.48706 0.16699 0.26434 0.0
C144 C 0.53216 0.18459 0.32718 0.0
N145 N 0.46998 0.15799 0.4245 0.0
C146 C 0.45644 0.16705 0.44792 0.0
C147 C 0.48126 0.14776 0.45267 0.0
C148 C 0.48007 0.1473 0.50682 0.0
C149 C 0.46727 0.15759 0.53229 0.0
C150 C 0.45488 0.1671 0.50227 0.0
Zn151 Zn 0.477 0.16232 0.34726 0.0
O152 O 0.49024 0.20339 0.26888 0.0
C153 C 0.43241 0.14448 0.2797 0.0
O154 O 0.48308 0.19846 0.35274 0.0
H155 H 0.49214 0.14089 0.43329 0.0
H156 H 0.4711 0.18693 0.17617 0.0
H157 H 0.44765 0.17509 0.42457 0.0
O158 O 0.44934 0.15024 0.24637 0.0
O159 O 0.43804 0.14813 0.32818 0.0
H160 H 0.51941 0.15725 0.19033 0.0
O161 O 0.47099 0.12637 0.34291 0.0
O162 O 0.48443 0.1306 0.2625 0.0
O163 O 0.51649 0.17642 0.36411 0.0
O164 O 0.52444 0.18349 0.28085 0.0
C165 C 0.4763 0.11758 0.30353 0.0
H166 H 0.47934 0.19356 0.0825 0.0
H167 H 0.52876 0.16329 0.09634 0.0
H168 H 0.49024 0.14018 0.52854 0.0
H169 H 0.4447 0.17506 0.52064 0.0
C170 C 0.79315 0.28018 0.34912 0.0
N171 N 0.85414 0.32813 0.25644 0.0
C172 C 0.84679 0.30722 0.22669 0.0
C173 C 0.85029 0.30898 0.17308 0.0
C174 C 0.86118 0.33247 0.1496 0.0
C175 C 0.86889 0.35387 0.18105 0.0
C176 C 0.8653 0.35126 0.23497 0.0
Zn177 Zn 0.84623 0.32291 0.33345 0.0
C178 C 0.82357 0.35108 0.37127 0.0
N179 N 0.82737 0.30715 0.49214 0.0
C180 C 0.81763 0.2842 0.51405 0.0
C181 C 0.83323 0.32786 0.5214 0.0
C182 C 0.82991 0.32614 0.57508 0.0
C183 C 0.82062 0.30288 0.59908 0.0
C184 C 0.81417 0.28164 0.56798 0.0
Zn185 Zn 0.83534 0.3124 0.41524 0.0
O186 O 0.80827 0.29373 0.31402 0.0
C187 C 0.8572 0.28375 0.37236 0.0
O188 O 0.80022 0.28384 0.39647 0.0
H189 H 0.84121 0.34596 0.5033 0.0
H190 H 0.83763 0.28899 0.24439 0.0
H191 H 0.81306 0.268 0.48987 0.0
O192 O 0.85818 0.29696 0.33403 0.0
O193 O 0.84853 0.28601 0.41561 0.0
H194 H 0.87095 0.3676 0.25949 0.0
O195 O 0.87078 0.3411 0.43529 0.0
O196 O 0.88346 0.35222 0.35528 0.0
O197 O 0.82151 0.33854 0.41209 0.0
O198 O 0.83425 0.34853 0.33173 0.0
C199 C 0.88775 0.35526 0.40434 0.0
H200 H 0.84362 0.292 0.14997 0.0
H201 H 0.8773 0.37228 0.16407 0.0
H202 H 0.8356 0.34305 0.5978 0.0
H203 H 0.80691 0.26338 0.58525 0.0
C204 C 0.32211 0.81931 0.67401 0.0
N205 N 0.37034 0.88249 0.76624 0.0
C206 C 0.34944 0.87582 0.79437 0.0
C207 C 0.35093 0.87892 0.84835 0.0
C208 C 0.37412 0.88868 0.87392 0.0
C209 C 0.39556 0.89606 0.84401 0.0
C210 C 0.39324 0.8929 0.78971 0.0
Zn211 Zn 0.36511 0.8732 0.68898 0.0
C212 C 0.393 0.84911 0.65574 0.0
N213 N 0.34916 0.85016 0.53018 0.0
C214 C 0.32639 0.8409 0.50657 0.0
C215 C 0.36978 0.85542 0.50229 0.0
C216 C 0.36821 0.85229 0.4483 0.0
C217 C 0.34523 0.8438 0.42252 0.0
C218 C 0.324 0.83763 0.45232 0.0
Zn219 Zn 0.35446 0.8596 0.60735 0.0
O220 O 0.33559 0.83545 0.70887 0.0
C221 C 0.32616 0.88311 0.6449 0.0
O222 O 0.32598 0.82506 0.62632 0.0
H223 H 0.38775 0.86306 0.52167 0.0
H224 H 0.33135 0.86716 0.77519 0.0
H225 H 0.31025 0.8368 0.52958 0.0
O226 O 0.33951 0.88549 0.68456 0.0
O227 O 0.32813 0.87276 0.60351 0.0
H228 H 0.40959 0.89797 0.76653 0.0
O229 O 0.38343 0.8945 0.58715 0.0
O230 O 0.39427 0.91008 0.66662 0.0
O231 O 0.38012 0.84578 0.61429 0.0
O232 O 0.39082 0.861 0.6939 0.0
C233 C 0.39746 0.91251 0.61743 0.0
H234 H 0.33389 0.87253 0.87004 0.0
H235 H 0.41378 0.90369 0.86249 0.0
H236 H 0.38512 0.85771 0.42678 0.0
H237 H 0.30592 0.8309 0.43379 0.0
C238 C 0.18597 0.55274 0.69604 0.0
N239 N 0.17546 0.50202 0.57499 0.0
C240 C 0.17171 0.51819 0.54588 0.0
C241 C 0.17603 0.51996 0.49255 0.0
C242 C 0.1841 0.50481 0.46873 0.0
C243 C 0.18803 0.48837 0.49956 0.0
C244 C 0.18368 0.48736 0.55317 0.0
Zn245 Zn 0.168 0.50063 0.65204 0.0
C246 C 0.20878 0.50502 0.7166 0.0
N247 N 0.1518 0.50055 0.81197 0.0
C248 C 0.14401 0.51543 0.83451 0.0
C249 C 0.15651 0.48496 0.84083 0.0
C250 C 0.15388 0.48417 0.89465 0.0
C251 C 0.14661 0.4998 0.91924 0.0
C252 C 0.14142 0.51546 0.88867 0.0
Zn253 Zn 0.15892 0.50188 0.73477 0.0
O254 O 0.18528 0.54085 0.65466 0.0
C255 C 0.11841 0.49706 0.66553 0.0
O256 O 0.17591 0.54067 0.73703 0.0
H257 H 0.16304 0.47356 0.82227 0.0
H258 H 0.16496 0.52951 0.56389 0.0
H259 H 0.14043 0.52769 0.81064 0.0
O260 O 0.13398 0.49754 0.6332 0.0
O261 O 0.12331 0.49846 0.71431 0.0
H262 H 0.18661 0.47472 0.57724 0.0
O263 O 0.14189 0.46332 0.73332 0.0
O264 O 0.151 0.46029 0.65195 0.0
O265 O 0.19488 0.50502 0.75304 0.0
O266 O 0.20166 0.50358 0.6696 0.0
C267 C 0.14112 0.45001 0.69488 0.0
H268 H 0.17227 0.53248 0.46989 0.0
H269 H 0.19424 0.47638 0.48235 0.0
H270 H 0.15857 0.47223 0.917 0.0
H271 H 0.13581 0.52779 0.90651 0.0
C272 C 0.49303 0.68739 0.69641 0.0
N273 N 0.52362 0.65417 0.79209 0.0
C274 C 0.5335 0.67568 0.82086 0.0
C275 C 0.53528 0.67503 0.87495 0.0
C276 C 0.5267 0.652 0.89961 0.0
C277 C 0.51776 0.63023 0.8688 0.0
C278 C 0.5164 0.63175 0.81467 0.0
Zn279 Zn 0.5167 0.65576 0.71535 0.0
C280 C 0.46554 0.61599 0.68621 0.0
N281 N 0.50096 0.65976 0.55588 0.0
C282 C 0.50805 0.68226 0.53383 0.0
C283 C 0.49017 0.63825 0.52702 0.0
C284 C 0.48713 0.63895 0.47326 0.0
C285 C 0.49528 0.66203 0.44907 0.0
C286 C 0.50535 0.68383 0.48012 0.0
Zn287 Zn 0.50817 0.65807 0.6324 0.0
O288 O 0.50181 0.68032 0.7335 0.0
C289 C 0.55914 0.69833 0.66606 0.0
O290 O 0.49355 0.68038 0.65015 0.0
H291 H 0.4847 0.62059 0.54545 0.0
H292 H 0.539 0.69327 0.80205 0.0
H293 H 0.51644 0.69909 0.55772 0.0
O294 O 0.55173 0.68645 0.7082 0.0
O295 O 0.54497 0.69101 0.62572 0.0
H296 H 0.50863 0.61492 0.79086 0.0
O297 O 0.52255 0.63532 0.61338 0.0
O298 O 0.53175 0.63181 0.6948 0.0
O299 O 0.47179 0.62591 0.64144 0.0
O300 O 0.48118 0.62484 0.7237 0.0
C301 C 0.5313 0.62655 0.64645 0.0
H302 H 0.54197 0.69221 0.89732 0.0
H303 H 0.51117 0.61215 0.88647 0.0
H304 H 0.47961 0.62175 0.45065 0.0
H305 H 0.51162 0.70195 0.4629 0.0
C306 C 0.0482 0.28696 0.00065 0.0
C307 C 0.06167 0.27558 0.01767 0.0
C308 C 0.05875 0.30675 0.96573 0.0
C309 C 0.11616 0.352 0.89768 0.0
H310 H 0.06987 0.33797 0.78195 0.0
C311 C 0.14675 0.41432 0.71685 0.0
C312 C 0.13053 0.42326 0.70438 0.0
C313 C 0.13873 0.39344 0.74883 0.0
C314 C 0.08302 0.34221 0.81393 0.0
H315 H 0.09728 0.27706 0.01507 0.0
H316 H 0.11607 0.31212 0.95472 0.0
H317 H 0.0565 0.31105 0.85788 0.0
H318 H 0.09297 0.41665 0.71195 0.0
H319 H 0.07869 0.37995 0.76616 0.0
H320 H 0.14256 0.38347 0.854 0.0
C321 C 0.09738 0.30586 0.96849 0.0
C322 C 0.07531 0.32689 0.85767 0.0
C323 C 0.08678 0.28602 0.00367 0.0
C324 C 0.10559 0.40965 0.71989 0.0
C325 C 0.09752 0.38874 0.75145 0.0
C326 C 0.12387 0.36744 0.8539 0.0
C327 C 0.08292 0.31538 0.94681 0.0
C328 C 0.09163 0.33184 0.90047 0.0
C329 C 0.11436 0.3812 0.76864 0.0
C330 C 0.10726 0.36293 0.81179 0.0
H331 H 0.02864 0.27886 0.01005 0.0
H332 H 0.04733 0.31409 0.95065 0.0
H333 H 0.12918 0.35623 0.92993 0.0
H334 H 0.16626 0.42495 0.7065 0.0
H335 H 0.15205 0.38786 0.7607 0.0
C336 C 0.75469 0.83494 0.87976 0.0
C337 C 0.75214 0.82276 0.92735 0.0
C338 C 0.73397 0.82845 0.84774 0.0
C339 C 0.66486 0.79165 0.838 0.0
H340 H 0.67783 0.77886 0.69626 0.0
C341 C 0.58474 0.74286 0.68934 0.0
C342 C 0.58342 0.72131 0.66763 0.0
C343 C 0.60688 0.76132 0.71294 0.0
C344 C 0.67394 0.78252 0.7355 0.0
H345 H 0.72582 0.79558 0.98076 0.0
H346 H 0.68927 0.78388 0.9243 0.0
H347 H 0.71227 0.79963 0.75884 0.0
H348 H 0.60417 0.70261 0.65058 0.0
H349 H 0.64311 0.73511 0.69032 0.0
H350 H 0.62632 0.77341 0.81511 0.0
C351 C 0.70734 0.79868 0.91201 0.0
C352 C 0.69369 0.7946 0.77136 0.0
C353 C 0.7282 0.80539 0.94447 0.0
C354 C 0.60504 0.71947 0.66563 0.0
C355 C 0.62725 0.738 0.68889 0.0
C356 C 0.6451 0.77966 0.80198 0.0
C357 C 0.71022 0.80939 0.86226 0.0
C358 C 0.68935 0.79891 0.82331 0.0
C359 C 0.628 0.75845 0.71521 0.0
C360 C 0.64937 0.77451 0.75063 0.0
H361 H 0.77299 0.84856 0.86587 0.0
H362 H 0.73675 0.8375 0.81033 0.0
H363 H 0.66093 0.79481 0.87757 0.0
H364 H 0.56805 0.74427 0.69254 0.0
H365 H 0.60698 0.777 0.73238 0.0
C366 C 0.18435 0.93629 0.85344 0.0
C367 C 0.19278 0.94625 0.90391 0.0
C368 C 0.19515 0.92457 0.82642 0.0
C369 C 0.25538 0.92673 0.82117 0.0
H370 H 0.22224 0.87819 0.70911 0.0
C371 C 0.31365 0.9142 0.66593 0.0
C372 C 0.30661 0.88959 0.65165 0.0
C373 C 0.2971 0.91932 0.69255 0.0
C374 C 0.2318 0.89163 0.74042 0.0
H375 H 0.21762 0.94979 0.96759 0.0
H376 H 0.23628 0.92856 0.92071 0.0
H377 H 0.1975 0.88625 0.7714 0.0
H378 H 0.27663 0.85116 0.65145 0.0
H379 H 0.24767 0.85989 0.69859 0.0
H380 H 0.28959 0.93158 0.79145 0.0
C381 C 0.22166 0.93043 0.90154 0.0
C382 C 0.21762 0.8964 0.77602 0.0
C383 C 0.21078 0.94229 0.92872 0.0
C384 C 0.28216 0.8704 0.66082 0.0
C385 C 0.26568 0.87543 0.68833 0.0
C386 C 0.26952 0.92178 0.786 0.0
C387 C 0.21465 0.92235 0.84923 0.0
C388 C 0.22925 0.9144 0.81625 0.0
C389 C 0.27342 0.8998 0.70674 0.0
C390 C 0.25799 0.90456 0.74444 0.0
H391 H 0.17033 0.93888 0.8334 0.0
H392 H 0.18931 0.91885 0.78627 0.0
H393 H 0.26511 0.94093 0.8511 0.0
H394 H 0.3326 0.92919 0.66003 0.0
H395 H 0.30344 0.93843 0.7046 0.0
C396 C 0.39708 0.10859 0.23599 0.0
C397 C 0.40662 0.13211 0.26006 0.0
C398 C 0.37667 0.09954 0.20175 0.0
C399 C 0.34623 0.12306 0.11241 0.0
H400 H 0.29927 0.05237 0.09273 0.0
C401 C 0.2575 0.07778 0.97774 0.0
C402 C 0.25112 0.05461 0.95474 0.0
C403 C 0.27917 0.09063 0.00859 0.0
C404 C 0.31251 0.07216 0.09726 0.0
H405 H 0.40212 0.16443 0.26894 0.0
H406 H 0.36559 0.14824 0.21021 0.0
H407 H 0.32791 0.06639 0.16718 0.0
H408 H 0.26327 0.0278 0.94153 0.0
H409 H 0.30148 0.0505 -0.00596 0.0
H410 H 0.33011 0.12864 0.04271 0.0
C411 C 0.37404 0.13685 0.21739 0.0
C412 C 0.32886 0.08023 0.14015 0.0
C413 C 0.39459 0.14592 0.25179 0.0
C414 C 0.26811 0.04593 0.95787 0.0
C415 C 0.2897 0.05868 0.98879 0.0
C416 C 0.32959 0.11496 0.06967 0.0
C417 C 0.3654 0.11392 0.19054 0.0
C418 C 0.34622 0.10574 0.14795 0.0
C419 C 0.29456 0.08028 0.01711 0.0
C420 C 0.31285 0.08937 0.06123 0.0
H421 H 0.40658 0.09799 0.24072 0.0
H422 H 0.37089 0.08202 0.1814 0.0
H423 H 0.35956 0.14283 0.11671 0.0
H424 H 0.24429 0.08444 0.97707 0.0
H425 H 0.28242 0.10721 0.02997 0.0
C426 C 0.84685 0.24307 0.33429 0.0
C427 C 0.86394 0.26455 0.36247 0.0
C428 C 0.85511 0.22954 0.30494 0.0
C429 C 0.88207 0.22351 0.21168 0.0
H430 H 0.93384 0.20883 0.25159 0.0
C431 C 0.94934 0.21357 0.06822 0.0
C432 C 0.95659 0.19614 0.08164 0.0
C433 C 0.93318 0.2171 0.10073 0.0
C434 C 0.91915 0.21253 0.23988 0.0
H435 H 0.90273 0.28816 0.38447 0.0
H436 H 0.91724 0.26401 0.33472 0.0
H437 H 0.91525 0.22272 0.31799 0.0
H438 H 0.95117 0.16725 0.13612 0.0
H439 H 0.92265 0.17292 0.19176 0.0
H440 H 0.88654 0.21399 0.13322 0.0
C441 C 0.89742 0.25749 0.33544 0.0
C442 C 0.90866 0.22064 0.27792 0.0
C443 C 0.88914 0.27117 0.3644 0.0
C444 C 0.94582 0.18084 0.12506 0.0
C445 C 0.92971 0.18425 0.15718 0.0
C446 C 0.89278 0.21564 0.17347 0.0
C447 C 0.88064 0.23729 0.3034 0.0
C448 C 0.89014 0.22639 0.2642 0.0
C449 C 0.92417 0.20322 0.14686 0.0
C450 C 0.91154 0.2102 0.18715 0.0
H451 H 0.82742 0.2381 0.33112 0.0
H452 H 0.84175 0.21392 0.28105 0.0
H453 H 0.86808 0.22817 0.1998 0.0
H454 H 0.95773 0.22581 0.03535 0.0
H455 H 0.92922 0.23188 0.09185 0.0
C456 C 0.76703 0.73869 0.03437 0.0
C457 C 0.78581 0.74975 -0.00314 0.0
C458 C 0.76286 0.71716 0.05983 0.0
C459 C 0.76605 0.66179 0.06408 0.0
H460 H 0.78214 0.6776 0.21147 0.0
C461 C 0.74506 0.58355 0.2076 0.0
C462 C 0.73275 0.58406 0.25301 0.0
C463 C 0.75779 0.60487 0.17724 0.0
C464 C 0.77748 0.67279 0.17057 0.0
H465 H 0.81342 0.74573 0.9531 0.0
H466 H 0.80542 0.7071 -0.00293 0.0
H467 H 0.78954 0.71074 0.15052 0.0
H468 H 0.72537 0.60746 0.30436 0.0
H469 H 0.74709 0.64468 0.25101 0.0
H470 H 0.75238 0.62367 0.08407 0.0
C471 C 0.79426 0.71553 0.00685 0.0
C472 C 0.78189 0.69179 0.13569 0.0
C473 C 0.79861 0.73739 0.98137 0.0
C474 C 0.7351 0.60675 0.26998 0.0
C475 C 0.7475 0.62805 0.23909 0.0
C476 C 0.76129 0.64266 0.09909 0.0
C477 C 0.77718 0.70606 0.04795 0.0
C478 C 0.77571 0.68635 0.08245 0.0
C479 C 0.75801 0.62704 0.19106 0.0
C480 C 0.76642 0.64783 0.15306 0.0
H481 H 0.75687 0.74783 0.04699 0.0
H482 H 0.74936 0.70992 0.09093 0.0
H483 H 0.76101 0.65722 0.0232 0.0
H484 H 0.74344 0.56618 0.19374 0.0
H485 H 0.76627 0.60355 0.14144 0.0
C486 C 0.09345 0.50046 0.59329 0.0
C487 C 0.09431 0.49278 0.64446 0.0
C488 C 0.07077 0.49135 0.56666 0.0
C489 C 0.00212 0.45619 0.5786 0.0
H490 H 0.00433 0.42815 0.44385 0.0
C491 C 0.91498 0.37622 0.48194 0.0
C492 C 0.91176 0.37494 0.42728 0.0
C493 C 0.93701 0.39448 0.50548 0.0
C494 C 0.0034 0.4363 0.48077 0.0
H495 H 0.07204 0.47116 0.70945 0.0
H496 H 0.03204 0.45506 0.66271 0.0
H497 H 0.04287 0.45408 0.49283 0.0
H498 H 0.92934 0.39213 0.35446 0.0
H499 H 0.9683 0.42448 0.39602 0.0
H500 H 0.96258 0.43804 0.56692 0.0
C501 C 0.04901 0.46825 0.64331 0.0
C502 C 0.02551 0.45114 0.50899 0.0
C503 C 0.07186 0.47749 0.67019 0.0
C504 C 0.93128 0.39257 0.39661 0.0
C505 C 0.95355 0.41104 0.42043 0.0
C506 C 0.98001 0.44149 0.5502 0.0
C507 C 0.04839 0.47427 0.59051 0.0
C508 C 0.02507 0.46081 0.5587 0.0
C509 C 0.95659 0.4122 0.47525 0.0
C510 C 0.98032 0.43081 0.50157 0.0
H511 H 0.11051 0.51247 0.57267 0.0
H512 H 0.07085 0.49678 0.52648 0.0
H513 H 0.00123 0.46366 0.61642 0.0
H514 H 0.90046 0.36294 0.50704 0.0
H515 H 0.93885 0.39433 0.54757 0.0
C516 C 0.52654 0.58989 0.59761 0.0
C517 C 0.54209 0.6119 0.62597 0.0
C518 C 0.53658 0.58048 0.56134 0.0
C519 C 0.59645 0.58879 0.50899 0.0
H520 H 0.55807 0.56594 0.37938 0.0
C521 C 0.64122 0.57719 0.32688 0.0
C522 C 0.62886 0.55265 0.30686 0.0
C523 C 0.62883 0.58546 0.35955 0.0
C524 C 0.56893 0.57225 0.41535 0.0
H525 H 0.58024 0.64095 0.64043 0.0
H526 H 0.59798 0.62482 0.57689 0.0
H527 H 0.54065 0.57594 0.45485 0.0
H528 H 0.59337 0.51832 0.30075 0.0
H529 H 0.57133 0.53303 0.35679 0.0
H530 H 0.62494 0.58566 0.46887 0.0
C531 C 0.57807 0.61429 0.58329 0.0
C532 C 0.5589 0.57774 0.45889 0.0
C533 C 0.56799 0.62348 0.62015 0.0
C534 C 0.60312 0.53754 0.31465 0.0
C535 C 0.59063 0.54586 0.34735 0.0
C536 C 0.60656 0.58363 0.46532 0.0
C537 C 0.56237 0.59327 0.55178 0.0
C538 C 0.57255 0.58612 0.50635 0.0
C539 C 0.60385 0.5693 0.37269 0.0
C540 C 0.59299 0.57544 0.41798 0.0
H541 H 0.50644 0.58099 0.60078 0.0
H542 H 0.52397 0.56389 0.53891 0.0
H543 H 0.60735 0.59475 0.54491 0.0
H544 H 0.66118 0.589 0.32212 0.0
H545 H 0.63934 0.60378 0.37784 0.0
C546 C 0.45203 0.07173 0.31062 0.0
C547 C 0.47537 0.09365 0.31027 0.0
C548 C 0.44878 0.05097 0.33858 0.0
C549 C 0.44864 0.00715 0.39398 0.0
H550 H 0.47275 0.02716 0.53666 0.0
C551 C 0.42808 0.9335 0.54779 0.0
C552 C 0.4165 0.93569 0.59289 0.0
C553 C 0.44059 0.95365 0.51449 0.0
C554 C 0.46601 0.02131 0.49697 0.0
H555 H 0.51385 0.11092 0.33638 0.0
H556 H 0.5083 0.07453 0.38488 0.0
H557 H 0.48438 0.05896 0.46946 0.0
H558 H 0.41043 0.9611 0.64074 0.0
H559 H 0.43257 0.99678 0.58215 0.0
H560 H 0.42967 0.96962 0.42154 0.0
C561 C 0.49256 0.07328 0.36338 0.0
C562 C 0.47286 0.03946 0.45837 0.0
C563 C 0.49585 0.0939 0.33484 0.0
C564 C 0.41947 0.95907 0.60652 0.0
C565 C 0.43201 0.97938 0.57282 0.0
C566 C 0.44203 0.98903 0.43236 0.0
C567 C 0.46874 0.05205 0.36749 0.0
C568 C 0.46394 0.03258 0.40662 0.0
C569 C 0.44168 0.97646 0.5253 0.0
C570 C 0.45037 0.99591 0.48443 0.0
H571 H 0.43584 0.07146 0.29341 0.0
H572 H 0.43016 0.03494 0.34132 0.0
H573 H 0.44146 0.00131 0.35453 0.0
H574 H 0.42614 0.91566 0.53655 0.0
H575 H 0.44832 0.95098 0.47883 0.0
C576 C 0.16435 0.07187 0.03123 0.0
C577 C 0.15788 0.05781 0.98452 0.0
C578 C 0.16042 0.09229 0.03601 0.0
C579 C 0.14905 0.13525 0.95391 0.0
H580 H 0.11816 0.14354 0.07753 0.0
C581 C 0.08567 0.17859 0.95623 0.0
C582 C 0.08573 0.19165 0.00139 0.0
C583 C 0.10128 0.16832 0.95345 0.0
C584 C 0.12726 0.14182 0.04308 0.0
H585 H 0.1412 0.05334 0.90728 0.0
H586 H 0.1339 0.08804 0.91609 0.0
H587 H 0.13198 0.11291 0.07719 0.0
H588 H 0.10408 0.20664 0.07639 0.0
H589 H 0.13127 0.18881 0.07126 0.0
H590 H 0.14309 0.16326 0.91893 0.0
C591 C 0.14279 0.08412 0.94838 0.0
C592 C 0.13519 0.12427 0.04296 0.0
C593 C 0.14677 0.064 0.94358 0.0
C594 C 0.10334 0.19633 0.04135 0.0
C595 C 0.11885 0.18605 0.03861 0.0
C596 C 0.14093 0.15263 0.9539 0.0
C597 C 0.14993 0.09881 -0.00583 0.0
C598 C 0.14543 0.12022 -0.00223 0.0
C599 C 0.11717 0.171 -0.00426 0.0
C600 C 0.12935 0.15561 -0.002 0.0
H601 H 0.17302 0.06754 0.06331 0.0
H602 H 0.16601 0.10323 0.07191 0.0
H603 H 0.15743 0.13298 0.91886 0.0
H604 H 0.07229 0.17468 0.92487 0.0
H605 H 0.09956 0.15675 0.9199 0.0
C606 C 0.87123 0.92109 0.94853 0.0
C607 C 0.85744 0.90681 0.9911 0.0
C608 C 0.88673 0.94699 0.95398 0.0
C609 C 0.89943 0.00085 0.0408 0.0
H610 H 0.96331 0.03273 0.97159 0.0
C611 C 0.97462 0.10459 0.07744 0.0
C612 C 0.98324 0.11841 0.03141 0.0
C613 C 0.96036 0.07845 0.07489 0.0
C614 C 0.94551 0.02403 0.99113 0.0
H615 H 0.84897 0.90855 0.0727 0.0
H616 H 0.87627 0.95327 0.08242 0.0
H617 H 0.93538 0.98779 0.96083 0.0
H618 H 0.98466 0.11581 0.947 0.0
H619 H 0.96024 0.07043 0.94282 0.0
H620 H 0.90984 0.03718 0.07151 0.0
C621 C 0.8748 0.94474 0.04447 0.0
C622 C 0.92941 -0.00166 0.98463 0.0
C623 C 0.85919 0.91899 0.0389 0.0
C624 C 0.97814 0.10566 0.98315 0.0
C625 C 0.9643 0.07967 0.98071 0.0
C626 C 0.91566 0.02648 0.04774 0.0
C627 C 0.8889 0.95908 0.00223 0.0
C628 C 0.90607 0.98645 0.00906 0.0
C629 C 0.95498 0.06581 0.0264 0.0
C630 C 0.93875 0.03834 0.0226 0.0
H631 H 0.87023 0.91225 0.91118 0.0
H632 H 0.89701 0.95753 0.92035 0.0
H633 H 0.88147 0.99243 0.05957 0.0
H634 H 0.97827 0.11397 0.11511 0.0
H635 H 0.95344 0.06811 0.11071 0.0
C636 C 0.90413 0.8573 0.05794 0.0
C637 C 0.88877 0.83684 0.02532 0.0
C638 C 0.93002 0.86727 0.05803 0.0
C639 C 0.98528 0.88332 0.05765 0.0
H640 H 0.00901 0.88568 0.91683 0.0
C641 C 0.09016 0.93246 0.01237 0.0
C642 C 0.09808 0.94712 0.96722 0.0
C643 C 0.06484 0.91652 0.02135 0.0
C644 C 0.00272 0.88533 0.95633 0.0
H645 H 0.88771 0.80902 0.97185 0.0
H646 H 0.93263 0.82552 0.97403 0.0
H647 H 0.96463 0.86167 0.93373 0.0
H648 H 0.08567 0.95619 0.89552 0.0
H649 H 0.04129 0.92861 0.91156 0.0
H650 H 0.02339 0.90809 0.07956 0.0
C651 C 0.92501 0.83459 -0.00216 0.0
C652 C 0.97725 0.87119 0.96629 0.0
C653 C 0.89928 0.82494 -0.00293 0.0
C654 C 0.08014 0.94505 0.93053 0.0
C655 C 0.05472 0.92917 0.93971 0.0
C656 C 0.01079 0.89761 0.0476 0.0
C657 C 0.94081 0.85669 0.02599 0.0
C658 C 0.96816 0.87012 0.017 0.0
C659 C 0.04678 0.91494 0.98556 0.0
C660 C 0.01978 0.89896 -0.00331 0.0
H661 H 0.89642 0.86693 0.07961 0.0
H662 H 0.94159 0.88433 0.08012 0.0
H663 H 0.97895 0.88282 0.09717 0.0
H664 H 0.10354 0.93344 0.04125 0.0
H665 H 0.05943 0.90546 0.05648 0.0
C666 C 0.71789 0.46876 0.26813 0.0
C667 C 0.71151 0.47815 0.31181 0.0
C668 C 0.73061 0.45553 0.27466 0.0
C669 C 0.76804 0.44352 0.37319 0.0
H670 H 0.75236 0.38682 0.28271 0.0
C671 C 0.80179 0.37229 0.41092 0.0
C672 C 0.81222 0.36712 0.36738 0.0
C673 C 0.78991 0.3864 0.40527 0.0
C674 C 0.75696 0.40269 0.30813 0.0
H675 H 0.71298 0.48059 0.39659 0.0
H676 H 0.73422 0.45701 0.4079 0.0
H677 H 0.73083 0.41035 0.2694 0.0
H678 H 0.81859 0.37295 0.28395 0.0
H679 H 0.79773 0.39712 0.27439 0.0
H680 H 0.79379 0.43534 0.41254 0.0
C681 C 0.73025 0.46044 0.36852 0.0
C682 C 0.74477 0.41629 0.30031 0.0
C683 C 0.71787 0.47386 0.36199 0.0
C684 C 0.81078 0.37656 0.3184 0.0
C685 C 0.79868 0.39029 0.31271 0.0
C686 C 0.77998 0.42971 0.3814 0.0
C687 C 0.73693 0.4512 0.32503 0.0
C688 C 0.75019 0.43693 0.33266 0.0
C689 C 0.78797 0.39519 0.3559 0.0
C690 C 0.77464 0.40926 0.34878 0.0
H691 H 0.71328 0.47184 0.22899 0.0
H692 H 0.73573 0.44894 0.24021 0.0
H693 H 0.77306 0.45957 0.39829 0.0
H694 H 0.8026 0.36527 0.4491 0.0
H695 H 0.78173 0.38994 0.43917 0.0
C696 C 0.5906 0.43336 0.29115 0.0
C697 C 0.60641 0.44729 0.33308 0.0
C698 C 0.57199 0.40865 0.29761 0.0
C699 C 0.55835 0.35511 0.38009 0.0
H700 H 0.49987 0.32242 0.28919 0.0
C701 C 0.4962 0.24827 0.36976 0.0
C702 C 0.49432 0.23829 0.3192 0.0
C703 C 0.50492 0.2737 0.37727 0.0
C704 C 0.51607 0.33135 0.31494 0.0
H705 H 0.61385 0.44678 0.41579 0.0
H706 H 0.58071 0.40341 0.42761 0.0
H707 H 0.52317 0.36799 0.29641 0.0
H708 H 0.49872 0.24694 0.2367 0.0
H709 H 0.51367 0.29158 0.24995 0.0
H710 H 0.55116 0.31837 0.39838 0.0
C711 C 0.58321 0.41155 0.38927 0.0
C712 C 0.52949 0.35742 0.31905 0.0
C713 C 0.60207 0.43644 0.38267 0.0
C714 C 0.50003 0.25408 0.27608 0.0
C715 C 0.50847 0.27956 0.28364 0.0
C716 C 0.54467 0.32906 0.37667 0.0
C717 C 0.56844 0.39714 0.34636 0.0
C718 C 0.55134 0.36967 0.3502 0.0
C719 C 0.51159 0.28965 0.33441 0.0
C720 C 0.52388 0.317 0.34285 0.0
H721 H 0.59325 0.44119 0.25242 0.0
H722 H 0.56136 0.39822 0.2634 0.0
H723 H 0.57521 0.36376 0.4039 0.0
H724 H 0.49185 0.23663 0.40391 0.0
H725 H 0.507 0.28102 0.41673 0.0
C726 C 0.56797 0.18589 0.3771 0.0
C727 C 0.55904 0.19415 0.33569 0.0
C728 C 0.5931 0.19212 0.3789 0.0
C729 C 0.64662 0.21157 0.29063 0.0
H730 H 0.68677 0.23266 0.41762 0.0
C731 C 0.75443 0.26637 0.2951 0.0
C732 C 0.76661 0.26249 0.33738 0.0
C733 C 0.72833 0.25358 0.29216 0.0
C734 C 0.6757 0.22636 0.38193 0.0
H735 H 0.56953 0.2167 0.26585 0.0
H736 H 0.61306 0.22797 0.26975 0.0
H737 H 0.64268 0.22005 0.4213 0.0
H738 H 0.76134 0.24045 0.40666 0.0
H739 H 0.71598 0.21783 0.40086 0.0
H740 H 0.67977 0.21846 0.25106 0.0
C741 C 0.60073 0.21605 0.29983 0.0
C742 C 0.65044 0.21918 0.3841 0.0
C743 C 0.57582 0.20978 0.29791 0.0
C744 C 0.7524 0.24404 0.37395 0.0
C745 C 0.72642 0.23122 0.37089 0.0
C746 C 0.67187 0.21879 0.28844 0.0
C747 C 0.60954 0.20674 0.3394 0.0
C748 C 0.63576 0.21219 0.33831 0.0
C749 C 0.71409 0.23664 0.33132 0.0
C750 C 0.68678 0.22663 0.33393 0.0
H751 H 0.55537 0.17369 0.40651 0.0
H752 H 0.5994 0.18474 0.41 0.0
H753 H 0.63563 0.20575 0.25478 0.0
H754 H 0.76494 0.28057 0.26655 0.0
H755 H 0.71936 0.2582 0.2612 0.0
C756 C 0.49044 0.7213 0.74668 0.0
C757 C 0.48287 0.70422 0.70453 0.0
C758 C 0.4835 0.73974 0.74784 0.0
C759 C 0.46772 0.77475 0.65608 0.0
H760 H 0.43366 0.78703 0.7687 0.0
C761 C 0.40912 0.82167 0.62269 0.0
C762 C 0.40878 0.83756 0.66174 0.0
C763 C 0.42188 0.80868 0.63108 0.0
C764 C 0.44359 0.78417 0.73726 0.0
H765 H 0.46054 0.69172 0.63307 0.0
H766 H 0.4486 0.7235 0.63534 0.0
H767 H 0.44874 0.75753 0.78114 0.0
H768 H 0.42243 0.85305 0.73946 0.0
H769 H 0.44488 0.83055 0.7537 0.0
H770 H 0.46226 0.80081 0.61167 0.0
C771 C 0.46029 0.72315 0.66671 0.0
C772 C 0.45219 0.7673 0.74448 0.0
C773 C 0.46708 0.70489 0.66562 0.0
C774 C 0.42222 0.84086 0.70859 0.0
C775 C 0.43496 0.82785 0.71698 0.0
C776 C 0.45927 0.79161 0.64894 0.0
C777 C 0.46906 0.74124 0.70678 0.0
C778 C 0.4636 0.7619 0.7033 0.0
C779 C 0.43462 0.81133 0.67865 0.0
C780 C 0.44644 0.79595 0.68884 0.0
H781 H 0.50263 0.72116 0.77713 0.0
H782 H 0.4903 0.75344 0.77938 0.0
H783 H 0.47686 0.77117 0.624 0.0
H784 H 0.39888 0.81865 0.58628 0.0
H785 H 0.421 0.79584 0.60097 0.0
C786 C 0.20496 0.59329 0.74547 0.0
C787 C 0.19873 0.58033 0.69732 0.0
C788 C 0.21743 0.61938 0.74725 0.0
C789 C 0.25526 0.67466 0.6648 0.0
H790 H 0.24099 0.71012 0.77248 0.0
C791 C 0.28697 0.77769 0.6474 0.0
C792 C 0.30358 0.79323 0.68685 0.0
C793 C 0.27274 0.752 0.65422 0.0
C794 C 0.24523 0.70037 0.74256 0.0
H795 H 0.20018 0.5845 0.61326 0.0
H796 H 0.22112 0.63 0.61614 0.0
H797 H 0.21879 0.66434 0.77144 0.0
H798 H 0.31673 0.79424 0.76611 0.0
H799 H 0.29118 0.7488 0.77836 0.0
H800 H 0.28098 0.71069 0.63493 0.0
C801 C 0.21709 0.62009 0.65269 0.0
C802 C 0.23263 0.67419 0.74191 0.0
C803 C 0.20493 0.59398 0.65093 0.0
C804 C 0.30412 0.78272 0.73504 0.0
C805 C 0.28959 0.7568 0.74202 0.0
C806 C 0.2675 0.70069 0.66503 0.0
C807 C 0.2237 0.63315 0.70089 0.0
C808 C 0.23735 0.661 0.70268 0.0
C809 C 0.27455 0.74124 0.7008 0.0
C810 C 0.26244 0.71375 0.70356 0.0
H811 H 0.20057 0.58328 0.78197 0.0
H812 H 0.22254 0.62871 0.78504 0.0
H813 H 0.25994 0.66528 0.63488 0.0
H814 H 0.28579 0.78521 0.61006 0.0
H815 H 0.26096 0.74038 0.62223 0.0
C816 C 0.42196 0.585 0.65618 0.0
C817 C 0.43969 0.59616 0.69678 0.0
C818 C 0.3969 0.56862 0.66757 0.0
C819 C 0.35213 0.55995 0.76529 0.0
H820 H 0.30878 0.49745 0.6926 0.0
C821 C 0.2453 0.51476 0.77617 0.0
C822 C 0.23343 0.50748 0.72698 0.0
C823 C 0.26992 0.51978 0.78262 0.0
C824 C 0.32061 0.51491 0.71322 0.0
H825 H 0.44524 0.59794 0.78105 0.0
H826 H 0.40148 0.56986 0.80056 0.0
H827 H 0.35389 0.51769 0.68169 0.0
H828 H 0.23744 0.49816 0.64696 0.0
H829 H 0.2799 0.50746 0.65767 0.0
H830 H 0.31906 0.55837 0.79376 0.0
C831 C 0.40701 0.57371 0.76011 0.0
C832 C 0.3464 0.52639 0.70703 0.0
C833 C 0.43205 0.58974 0.74877 0.0
C834 C 0.24608 0.50398 0.68536 0.0
C835 C 0.27048 0.50902 0.6917 0.0
C836 C 0.32632 0.54873 0.77074 0.0
C837 C 0.38916 0.56342 0.71971 0.0
C838 C 0.3623 0.54934 0.73188 0.0
C839 C 0.28298 0.51754 0.74 0.0
C840 C 0.31019 0.5265 0.7433 0.0
H841 H 0.42729 0.58954 0.61579 0.0
H842 H 0.38338 0.561 0.63575 0.0
H843 H 0.36406 0.57775 0.7847 0.0
H844 H 0.23594 0.51744 0.80903 0.0
H845 H 0.27892 0.52602 0.82057 0.0
C846 C -0.00346 0.17152 0.72278 0.0
C847 C 0.00448 0.1944 0.74883 0.0
C848 C 0.00039 0.171 0.66923 0.0
C849 C 0.04283 0.21146 0.56879 0.0
H850 H 0.9953 0.16165 0.47155 0.0
C851 C 0.05223 0.21902 0.34516 0.0
C852 C 0.04349 0.19682 0.31594 0.0
C853 C 0.04978 0.21817 0.39934 0.0
C854 C 0.00893 0.17543 0.49847 0.0
H855 H 0.02075 0.23435 0.73925 0.0
H856 H 0.02714 0.23343 0.64555 0.0
H857 H 0.98388 0.16107 0.56266 0.0
H858 H 0.02743 0.15666 0.32024 0.0
H859 H 0.02343 0.15519 0.4151 0.0
H860 H 0.06782 0.22593 0.50456 0.0
C861 C 0.01857 0.21601 0.66661 0.0
C862 C 0.00232 0.17515 0.5505 0.0
C863 C 0.01477 0.21652 0.72003 0.0
C864 C 0.03395 0.17398 0.34199 0.0
C865 C 0.03156 0.17314 0.39611 0.0
C866 C 0.04944 0.21173 0.5168 0.0
C867 C 0.01218 0.19336 0.64107 0.0
C868 C 0.01911 0.19333 0.586 0.0
C869 C 0.03864 0.19512 0.42507 0.0
C870 C 0.03249 0.19383 0.48104 0.0
H871 H 0.98878 0.15424 0.74428 0.0
H872 H 0.99534 0.15329 0.65049 0.0
H873 H 0.05635 0.22538 0.59564 0.0
H874 H 0.05946 0.23683 0.3259 0.0
H875 H 0.05527 0.23541 0.42064 0.0
C876 C 0.84978 0.85096 0.67316 0.0
C877 C 0.83838 0.82865 0.70146 0.0
C878 C 0.84603 0.85057 0.61931 0.0
C879 C 0.82391 0.80988 0.50204 0.0
H880 H 0.80583 0.8581 0.45324 0.0
C881 C 0.78656 0.80385 0.29412 0.0
C882 C 0.79759 0.82631 0.26637 0.0
C883 C 0.78984 0.80408 0.3481 0.0
C884 C 0.81102 0.84466 0.46619 0.0
H885 H 0.81522 0.78834 0.69535 0.0
H886 H 0.80879 0.78763 0.60104 0.0
H887 H 0.81751 0.85877 0.54472 0.0
H888 H 0.81952 0.86666 0.2733 0.0
H889 H 0.82535 0.86714 0.36782 0.0
H890 H 0.81757 0.79584 0.42353 0.0
C891 C 0.82069 0.8054 0.6205 0.0
C892 C 0.8178 0.84509 0.51848 0.0
C893 C 0.82444 0.8058 0.67444 0.0
C894 C 0.81063 0.8491 0.2939 0.0
C895 C 0.81401 0.84935 0.34796 0.0
C896 C 0.81718 0.80948 0.44974 0.0
C897 C 0.83083 0.82786 0.59271 0.0
C898 C 0.82434 0.82772 0.5369 0.0
C899 C 0.8043 0.82679 0.37533 0.0
C900 C 0.81064 0.82684 0.43127 0.0
H901 H 0.86093 0.86881 0.69298 0.0
H902 H 0.85453 0.86811 0.59865 0.0
H903 H 0.82909 0.79644 0.51506 0.0
H904 H 0.77616 0.78604 0.27374 0.0
H905 H 0.78163 0.78644 0.36832 0.0
C906 C 0.18785 0.02734 0.64519 0.0
C907 C 0.16498 0.01277 0.67017 0.0
C908 C 0.18952 0.0255 0.59126 0.0
C909 C 0.15923 0.98035 0.48487 0.0
H910 H 0.19971 0.03673 0.39633 0.0
C911 C 0.16097 0.97345 0.26039 0.0
C912 C 0.18386 0.98841 0.23581 0.0
C913 C 0.159 0.97528 0.31425 0.0
C914 C 0.18863 0.02078 0.42078 0.0
H915 H 0.12561 0.98625 0.6582 0.0
H916 H 0.12852 0.98308 0.56367 0.0
H917 H 0.19442 0.04403 0.48786 0.0
H918 H 0.223 0.01558 0.24831 0.0
H919 H 0.21963 0.01861 0.34271 0.0
H920 H 0.1535 0.95709 0.41785 0.0
C921 C 0.14521 0.99553 0.586 0.0
C922 C 0.1855 0.02498 0.47301 0.0
C923 C 0.14354 0.99739 0.63994 0.0
C924 C 0.20507 0.00411 0.26632 0.0
C925 C 0.20311 0.00592 0.32018 0.0
C926 C 0.16238 0.97614 0.43265 0.0
C927 C 0.16835 0.00905 0.56142 0.0
C928 C 0.17079 0.0048 0.50551 0.0
C929 C 0.17991 0.99207 0.34438 0.0
C930 C 0.17715 0.99632 0.40016 0.0
H931 H 0.20475 0.0391 0.66758 0.0
H932 H 0.20763 0.03599 0.57334 0.0
H933 H 0.14816 0.96441 0.50937 0.0
H934 H 0.14427 0.96141 0.23769 0.0
H935 H 0.14085 0.96452 0.33183 0.0
C936 C 0.69838 0.52419 0.61005 0.0
C937 C 0.68826 0.53707 0.58403 0.0
C938 C 0.69554 0.52061 0.66384 0.0
C939 C 0.65273 0.51597 0.7665 0.0
H940 H 0.70305 0.51737 0.85991 0.0
C941 C 0.64361 0.50902 0.99066 0.0
C942 C 0.65331 0.49573 0.0166 0.0
C943 C 0.64639 0.51251 0.93685 0.0
C944 C 0.68871 0.51657 0.83407 0.0
H945 H 0.66901 0.55798 0.5939 0.0
H946 H 0.66434 0.55203 0.68815 0.0
H947 H 0.71334 0.52941 0.76905 0.0
H948 H 0.67172 0.47401 0.00642 0.0
H949 H 0.67644 0.48 0.91218 0.0
H950 H 0.62813 0.50319 0.8316 0.0
C951 C 0.6739 0.54417 0.66683 0.0
C952 C 0.69465 0.52357 0.78219 0.0
C953 C 0.67668 0.54769 0.61308 0.0
C954 C 0.66443 0.48467 0.98739 0.0
C955 C 0.66721 0.48817 0.93363 0.0
C956 C 0.64681 0.509 0.8184 0.0
C957 C 0.6826 0.52992 0.69243 0.0
C958 C 0.67672 0.52336 0.74793 0.0
C959 C 0.65889 0.50276 0.90815 0.0
C960 C 0.66474 0.50921 0.85264 0.0
H961 H 0.70715 0.51559 0.58844 0.0
H962 H 0.70231 0.50942 0.68249 0.0
H963 H 0.63837 0.51514 0.74068 0.0
H964 H 0.6352 0.51797 0.01231 0.0
H965 H 0.63993 0.52397 0.91823 0.0
C966 C 0.46784 0.14132 0.62096 0.0
C967 C 0.46915 0.1605 0.5897 0.0
C968 C 0.47362 0.14548 0.6741 0.0
C969 C 0.47995 0.18575 0.7854 0.0
H970 H 0.5245 0.16382 0.83952 0.0
C971 C 0.51181 0.2028 -0.00056 0.0
C972 C 0.50855 0.18139 0.02513 0.0
C973 C 0.5112 0.2033 0.94505 0.0
C974 C 0.51202 0.16999 0.82495 0.0
H975 H 0.47654 0.19873 0.58974 0.0
H976 H 0.48628 0.20586 0.68303 0.0
H977 H 0.51266 0.15755 0.74711 0.0
H978 H 0.50345 0.14428 0.01448 0.0
H979 H 0.50221 0.14504 0.91951 0.0
H980 H 0.47875 0.19761 0.86336 0.0
C981 C 0.48078 0.18764 0.66631 0.0
C982 C 0.50518 0.16633 0.77223 0.0
C983 C 0.47507 0.1835 0.61305 0.0
C984 C 0.50623 0.1611 -0.0044 0.0
C985 C 0.50553 0.16156 0.94122 0.0
C986 C 0.48671 0.18933 0.83818 0.0
C987 C 0.48072 0.16886 0.69693 0.0
C988 C 0.48878 0.17381 0.75222 0.0
C989 C 0.50725 0.18236 0.9155 0.0
C990 C 0.50251 0.18114 0.8586 0.0
H991 H 0.46297 0.1233 0.60403 0.0
H992 H 0.47291 0.13053 0.69721 0.0
H993 H 0.46718 0.19157 0.77092 0.0
H994 H 0.51404 0.21885 0.02147 0.0
H995 H 0.51305 0.21976 0.92615 0.0
C996 C 0.81176 0.31553 0.68551 0.0
C997 C 0.81993 0.30163 0.65664 0.0
C998 C 0.81537 0.31815 0.73949 0.0
C999 C 0.83068 0.29327 0.85545 0.0
H1000 H 0.8604 0.36166 0.90685 0.0
C1001 C 0.87001 0.31956 0.06358 0.0
C1002 C 0.8623 0.33392 0.09213 0.0
C1003 C 0.86664 0.31707 0.00954 0.0
C1004 C 0.85195 0.34247 0.89312 0.0
H1005 H 0.83697 0.27843 0.66165 0.0
H1006 H 0.84314 0.28288 0.75619 0.0
H1007 H 0.84791 0.35218 0.81512 0.0
H1008 H 0.84635 0.35805 0.0867 0.0
H1009 H 0.84039 0.35369 -0.00793 0.0
H1010 H 0.83463 0.28352 0.93343 0.0
C1011 C 0.83388 0.29167 0.7371 0.0
C1012 C 0.8447 0.33701 0.84075 0.0
C1013 C 0.83028 0.28905 0.68305 0.0
C1014 C 0.85265 0.34706 0.06546 0.0
C1015 C 0.8492 0.3445 0.01135 0.0
C1016 C 0.83789 0.29872 0.90784 0.0
C1017 C 0.82717 0.30689 0.76553 0.0
C1018 C 0.83398 0.31237 0.82146 0.0
C1019 C 0.85542 0.32883 0.98315 0.0
C1020 C 0.84863 0.32337 0.92716 0.0
H1021 H 0.80337 0.3251 0.66608 0.0
H1022 H 0.80953 0.32954 0.7607 0.0
H1023 H 0.82226 0.27409 0.84167 0.0
H1024 H 0.8778 0.30951 0.08332 0.0
H1025 H 0.87214 0.30534 0.98859 0.0
C1026 C 0.35816 0.83594 0.33533 0.0
C1027 C 0.34428 0.84388 0.36475 0.0
C1028 C 0.36073 0.83992 0.28163 0.0
C1029 C 0.33531 0.85579 0.16662 0.0
H1030 H 0.40304 0.88467 0.11634 0.0
C1031 C 0.36081 0.89612 0.96095 0.0
C1032 C 0.37515 0.88872 0.93165 0.0
C1033 C 0.35824 0.89207 0.01462 0.0
C1034 C 0.38401 0.87644 0.1297 0.0
H1035 H 0.32127 0.86116 0.3607 0.0
H1036 H 0.32561 0.86796 0.26681 0.0
H1037 H 0.39422 0.87211 0.2073 0.0
H1038 H 0.39895 0.87235 0.93574 0.0
H1039 H 0.3945 0.86528 0.02959 0.0
H1040 H 0.32508 0.86005 0.08903 0.0
C1041 C 0.3344 0.85855 0.28521 0.0
C1042 C 0.37894 0.86916 0.18169 0.0
C1043 C 0.33184 0.85457 0.33896 0.0
C1044 C 0.38802 0.8785 0.95747 0.0
C1045 C 0.3854 0.87439 0.01119 0.0
C1046 C 0.34038 0.86304 0.11461 0.0
C1047 C 0.34944 0.85189 0.25631 0.0
C1048 C 0.35454 0.85877 0.20067 0.0
C1049 C 0.36992 0.88049 0.04002 0.0
C1050 C 0.36479 0.87348 0.09563 0.0
H1051 H 0.36764 0.8273 0.35413 0.0
H1052 H 0.37199 0.83412 0.2601 0.0
H1053 H 0.3163 0.84761 0.18004 0.0
H1054 H 0.35095 0.90433 0.94203 0.0
H1055 H 0.34665 0.89749 0.03605 0.0
C1056 C 0.13688 0.47897 0.00573 0.0
C1057 C 0.14679 0.50104 0.97679 0.0
C1058 C 0.14124 0.48004 0.0594 0.0
C1059 C 0.16208 0.52142 0.17524 0.0
H1060 H 0.18415 0.47621 0.224 0.0
C1061 C 0.1975 0.52783 0.3848 0.0
C1062 C 0.18637 0.50505 0.41142 0.0
C1063 C 0.19551 0.52809 0.33059 0.0
C1064 C 0.17792 0.48885 0.21096 0.0
H1065 H 0.16779 0.54151 0.98131 0.0
H1066 H 0.17533 0.54341 0.07544 0.0
H1067 H 0.1723 0.47492 0.13242 0.0
H1068 H 0.1658 0.46472 0.40238 0.0
H1069 H 0.16227 0.46514 0.30753 0.0
H1070 H 0.16746 0.53519 0.25385 0.0
C1071 C 0.16413 0.52531 0.05664 0.0
C1072 C 0.17103 0.48804 0.1587 0.0
C1073 C 0.15974 0.52424 0.00287 0.0
C1074 C 0.17471 0.48252 0.38272 0.0
C1075 C 0.17267 0.48278 0.32846 0.0
C1076 C 0.16895 0.52221 0.22753 0.0
C1077 C 0.15559 0.50319 0.08503 0.0
C1078 C 0.16285 0.50417 0.14047 0.0
C1079 C 0.18232 0.50558 0.30212 0.0
C1080 C 0.17679 0.50583 0.24594 0.0
H1081 H 0.12654 0.46086 0.9865 0.0
H1082 H 0.13395 0.46272 0.08062 0.0
H1083 H 0.15569 0.53393 0.16226 0.0
H1084 H 0.20692 0.54545 0.40613 0.0
H1085 H 0.20359 0.54592 0.3111 0.0
C1086 C 0.47565 0.64508 0.36128 0.0
C1087 C 0.49556 0.66342 0.39147 0.0
C1088 C 0.47763 0.6443 0.30715 0.0
C1089 C 0.51435 0.68048 0.19437 0.0
H1090 H 0.49591 0.61517 0.13653 0.0
C1091 C 0.54361 0.66906 0.98899 0.0
C1092 C 0.52465 0.65064 0.95708 0.0
C1093 C 0.54 0.66991 0.04247 0.0
C1094 C 0.50094 0.63347 0.15206 0.0
H1095 H 0.53276 0.69585 0.38862 0.0
H1096 H 0.53614 0.69455 0.29426 0.0
H1097 H 0.48787 0.61917 0.22817 0.0
H1098 H 0.48741 0.61818 0.95629 0.0
H1099 H 0.48119 0.61958 0.04975 0.0
H1100 H 0.52758 0.69481 0.11834 0.0
C1101 C 0.51892 0.68093 0.31227 0.0
C1102 C 0.49623 0.63576 0.20437 0.0
C1103 C 0.51695 0.68171 0.36633 0.0
C1104 C 0.5025 0.63238 0.98002 0.0
C1105 C 0.49889 0.63323 0.0335 0.0
C1106 C 0.51907 0.6782 0.14207 0.0
C1107 C 0.49955 0.66184 0.28234 0.0
C1108 C 0.50302 0.6593 0.22607 0.0
C1109 C 0.51737 0.65236 0.06496 0.0
C1110 C 0.51255 0.6547 0.12054 0.0
H1111 H 0.4588 0.63098 0.37964 0.0
H1112 H 0.46224 0.62965 0.28482 0.0
H1113 H 0.51952 0.69881 0.20998 0.0
H1114 H 0.561 0.68316 0.97236 0.0
H1115 H 0.55474 0.68456 0.06609 0.0
loop_
_geom_bond_atom_site_label_1
_geom_bond_atom_site_label_2
_geom_bond_distance
_geom_bond_site_symmetry_2
_ccdc_geom_bond_type
C0 O16 1.251 . S
C0 O18 1.254 1_554 S
N1 C2 1.333 . S
N1 C6 1.307 . S
N1 Zn7 2.020 . S
C2 N1 1.333 . S
C2 C3 1.379 . S
C2 H20 0.952 1_455 S
C3 C2 1.379 . S
C3 C4 1.390 . S
C3 H30 0.949 1_455 S
C4 C3 1.390 . S
C4 C5 1.357 . S
C5 C4 1.357 . S
C5 C6 1.370 . S
C5 H31 0.950 . S
C6 N1 1.307 . S
C6 C5 1.370 . S
C6 H24 0.948 . S
Zn7 N1 2.020 . S
Zn7 O16 2.039 1_455 S
Zn7 O22 2.034 1_455 S
Zn7 O26 2.025 . S
Zn7 O28 2.024 . S
C8 O27 1.246 . S
C8 O28 1.249 1_556 S
N9 C10 1.307 . S
N9 C11 1.333 1_655 S
N9 Zn15 2.020 1_655 S
C10 N9 1.307 . S
C10 C14 1.370 . S
C10 H21 0.948 . S
C11 N9 1.333 1_455 S
C11 C12 1.379 . S
C11 H19 0.952 . S
C12 C11 1.379 . S
C12 C13 1.390 1_455 S
C12 H32 0.949 . S
C13 C12 1.390 1_655 S
C13 C14 1.357 . S
C14 C10 1.370 . S
C14 C13 1.357 . S
C14 H33 0.950 . S
Zn15 N9 2.020 1_455 S
Zn15 O18 2.025 1_455 S
Zn15 O23 2.024 1_455 S
Zn15 O25 2.039 . S
Zn15 O27 2.034 . S
O16 C0 1.251 . S
O16 Zn7 2.039 1_655 S
C17 O22 1.246 . S
C17 O23 1.249 1_554 S
O18 C0 1.254 1_556 S
O18 Zn15 2.025 1_655 S
H19 C11 0.952 . S
H20 C2 0.952 1_655 S
H21 C10 0.948 . S
O22 Zn7 2.034 1_655 S
O22 C17 1.246 . S
O23 Zn15 2.024 1_655 S
O23 C17 1.249 1_556 S
H24 C6 0.948 . S
O25 Zn15 2.039 . S
O25 C29 1.251 . S
O26 Zn7 2.025 . S
O26 C29 1.254 1_554 S
O27 C8 1.246 . S
O27 Zn15 2.034 . S
O28 Zn7 2.024 . S
O28 C8 1.249 1_554 S
C29 O25 1.251 . S
C29 O26 1.254 1_556 S
H30 C3 0.949 1_655 S
H31 C5 0.950 . S
H32 C12 0.949 . S
H33 C14 0.950 . S
C34 O50 1.251 . S
C34 O52 1.254 1_556 S
N35 C36 1.333 . S
N35 C40 1.307 . S
N35 Zn41 2.020 . S
C36 N35 1.333 . S
C36 C37 1.379 . S
C36 H54 0.952 . S
C37 C36 1.379 . S
C37 C38 1.390 . S
C37 H64 0.949 . S
C38 C37 1.390 . S
C38 C39 1.357 . S
C39 C38 1.357 . S
C39 C40 1.370 . S
C39 H65 0.950 . S
C40 N35 1.307 . S
C40 C39 1.370 . S
C40 H58 0.948 . S
Zn41 N35 2.020 . S
Zn41 O50 2.039 . S
Zn41 O56 2.034 . S
Zn41 O60 2.025 . S
Zn41 O62 2.024 . S
C42 O61 1.246 . S
C42 O62 1.249 1_554 S
N43 C44 1.307 . S
N43 C45 1.333 . S
N43 Zn49 2.020 . S
C44 N43 1.307 . S
C44 C48 1.370 . S
C44 H55 0.948 . S
C45 N43 1.333 . S
C45 C46 1.379 . S
C45 H53 0.952 . S
C46 C45 1.379 . S
C46 C47 1.390 . S
C46 H66 0.949 . S
C47 C46 1.390 . S
C47 C48 1.357 . S
C48 C44 1.370 . S
C48 C47 1.357 . S
C48 H67 0.950 . S
Zn49 N43 2.020 . S
Zn49 O52 2.025 . S
Zn49 O57 2.024 . S
Zn49 O59 2.039 . S
Zn49 O61 2.034 . S
O50 C34 1.251 . S
O50 Zn41 2.039 . S
C51 O56 1.246 . S
C51 O57 1.249 1_556 S
O52 C34 1.254 1_554 S
O52 Zn49 2.025 . S
H53 C45 0.952 . S
H54 C36 0.952 . S
H55 C44 0.948 . S
O56 Zn41 2.034 . S
O56 C51 1.246 . S
O57 Zn49 2.024 . S
O57 C51 1.249 1_554 S
H58 C40 0.948 . S
O59 Zn49 2.039 . S
O59 C63 1.251 . S
O60 Zn41 2.025 . S
O60 C63 1.254 1_556 S
O61 C42 1.246 . S
O61 Zn49 2.034 . S
O62 Zn41 2.024 . S
O62 C42 1.249 1_556 S
C63 O59 1.251 . S
C63 O60 1.254 1_554 S
H64 C37 0.949 . S
H65 C39 0.950 . S
H66 C46 0.949 . S
H67 C48 0.950 . S
C68 O84 1.251 . S
C68 O86 1.254 1_554 S
N69 C70 1.333 1_565 S
N69 C74 1.307 . S
N69 Zn75 2.020 1_565 S
C70 N69 1.333 1_545 S
C70 C71 1.379 . S
C70 H88 0.952 . S
C71 C70 1.379 . S
C71 C72 1.390 1_545 S
C71 H98 0.949 . S
C72 C71 1.390 1_565 S
C72 C73 1.357 . S
C73 C72 1.357 . S
C73 C74 1.370 . S
C73 H99 0.950 . S
C74 N69 1.307 . S
C74 C73 1.370 . S
C74 H92 0.948 . S
Zn75 N69 2.020 1_545 S
Zn75 O84 2.039 . S
Zn75 O90 2.034 . S
Zn75 O94 2.025 1_545 S
Zn75 O96 2.024 1_545 S
C76 O95 1.246 . S
C76 O96 1.249 1_556 S
N77 C78 1.307 . S
N77 C79 1.333 . S
N77 Zn83 2.020 . S
C78 N77 1.307 . S
C78 C82 1.370 . S
C78 H89 0.948 . S
C79 N77 1.333 . S
C79 C80 1.379 . S
C79 H87 0.952 1_545 S
C80 C79 1.379 . S
C80 C81 1.390 . S
C80 H100 0.949 1_545 S
C81 C80 1.390 . S
C81 C82 1.357 . S
C82 C78 1.370 . S
C82 C81 1.357 . S
C82 H101 0.950 . S
Zn83 N77 2.020 . S
Zn83 O86 2.025 . S
Zn83 O91 2.024 . S
Zn83 O93 2.039 1_545 S
Zn83 O95 2.034 1_545 S
O84 C68 1.251 . S
O84 Zn75 2.039 . S
C85 O90 1.246 . S
C85 O91 1.249 1_554 S
O86 C68 1.254 1_556 S
O86 Zn83 2.025 . S
H87 C79 0.952 1_565 S
H88 C70 0.952 . S
H89 C78 0.948 . S
O90 Zn75 2.034 . S
O90 C85 1.246 . S
O91 Zn83 2.024 . S
O91 C85 1.249 1_556 S
H92 C74 0.948 . S
O93 Zn83 2.039 1_565 S
O93 C97 1.251 . S
O94 Zn75 2.025 1_565 S
O94 C97 1.254 1_554 S
O95 C76 1.246 . S
O95 Zn83 2.034 1_565 S
O96 Zn75 2.024 1_565 S
O96 C76 1.249 1_554 S
C97 O93 1.251 . S
C97 O94 1.254 1_556 S
H98 C71 0.949 . S
H99 C73 0.950 . S
H100 C80 0.949 1_565 S
H101 C82 0.950 . S
C102 O118 1.251 . S
C102 O120 1.254 . S
N103 C104 1.333 . S
N103 C108 1.307 . S
N103 Zn109 2.020 . S
C104 N103 1.333 . S
C104 C105 1.379 . S
C104 H122 0.952 . S
C105 C104 1.379 . S
C105 C106 1.390 . S
C105 H132 0.949 . S
C106 C105 1.390 . S
C106 C107 1.357 . S
C107 C106 1.357 . S
C107 C108 1.370 . S
C107 H133 0.950 . S
C108 N103 1.307 . S
C108 C107 1.370 . S
C108 H126 0.948 . S
Zn109 N103 2.020 . S
Zn109 O118 2.039 . S
Zn109 O124 2.034 . S
Zn109 O128 2.025 . S
Zn109 O130 2.024 . S
C110 O129 1.246 . S
C110 O130 1.249 . S
N111 C112 1.307 . S
N111 C113 1.333 . S
N111 Zn117 2.020 . S
C112 N111 1.307 . S
C112 C116 1.370 . S
C112 H123 0.948 . S
C113 N111 1.333 . S
C113 C114 1.379 . S
C113 H121 0.952 . S
C114 C113 1.379 . S
C114 C115 1.390 . S
C114 H134 0.949 . S
C115 C114 1.390 . S
C115 C116 1.357 . S
C116 C112 1.370 . S
C116 C115 1.357 . S
C116 H135 0.950 . S
Zn117 N111 2.020 . S
Zn117 O120 2.025 . S
Zn117 O125 2.024 . S
Zn117 O127 2.039 . S
Zn117 O129 2.034 . S
O118 C102 1.251 . S
O118 Zn109 2.039 . S
C119 O124 1.246 . S
C119 O125 1.249 . S
O120 C102 1.254 . S
O120 Zn117 2.025 . S
H121 C113 0.952 . S
H122 C104 0.952 . S
H123 C112 0.948 . S
O124 Zn109 2.034 . S
O124 C119 1.246 . S
O125 Zn117 2.024 . S
O125 C119 1.249 . S
H126 C108 0.948 . S
O127 Zn117 2.039 . S
O127 C131 1.251 . S
O128 Zn109 2.025 . S
O128 C131 1.254 . S
O129 C110 1.246 . S
O129 Zn117 2.034 . S
O130 Zn109 2.024 . S
O130 C110 1.249 . S
C131 O127 1.251 . S
C131 O128 1.254 . S
H132 C105 0.949 . S
H133 C107 0.950 . S
H134 C114 0.949 . S
H135 C116 0.950 . S
C136 O152 1.251 . S
C136 O154 1.254 . S
N137 C138 1.333 . S
N137 C142 1.307 . S
N137 Zn143 2.020 . S
C138 N137 1.333 . S
C138 C139 1.379 . S
C138 H156 0.952 . S
C139 C138 1.379 . S
C139 C140 1.390 . S
C139 H166 0.949 . S
C140 C139 1.390 . S
C140 C141 1.357 . S
C141 C140 1.357 . S
C141 C142 1.370 . S
C141 H167 0.950 . S
C142 N137 1.307 . S
C142 C141 1.370 . S
C142 H160 0.948 . S
Zn143 N137 2.020 . S
Zn143 O152 2.039 . S
Zn143 O158 2.034 . S
Zn143 O162 2.025 . S
Zn143 O164 2.024 . S
C144 O163 1.246 . S
C144 O164 1.249 . S
N145 C146 1.307 . S
N145 C147 1.333 . S
N145 Zn151 2.020 . S
C146 N145 1.307 . S
C146 C150 1.370 . S
C146 H157 0.948 . S
C147 N145 1.333 . S
C147 C148 1.379 . S
C147 H155 0.952 . S
C148 C147 1.379 . S
C148 C149 1.390 . S
C148 H168 0.949 . S
C149 C148 1.390 . S
C149 C150 1.357 . S
C150 C146 1.370 . S
C150 C149 1.357 . S
C150 H169 0.950 . S
Zn151 N145 2.020 . S
Zn151 O154 2.025 . S
Zn151 O159 2.024 . S
Zn151 O161 2.039 . S
Zn151 O163 2.034 . S
O152 C136 1.251 . S
O152 Zn143 2.039 . S
C153 O158 1.246 . S
C153 O159 1.249 . S
O154 C136 1.254 . S
O154 Zn151 2.025 . S
H155 C147 0.952 . S
H156 C138 0.952 . S
H157 C146 0.948 . S
O158 Zn143 2.034 . S
O158 C153 1.246 . S
O159 Zn151 2.024 . S
O159 C153 1.249 . S
H160 C142 0.948 . S
O161 Zn151 2.039 . S
O161 C165 1.251 . S
O162 Zn143 2.025 . S
O162 C165 1.254 . S
O163 C144 1.246 . S
O163 Zn151 2.034 . S
O164 Zn143 2.024 . S
O164 C144 1.249 . S
C165 O161 1.251 . S
C165 O162 1.254 . S
H166 C139 0.949 . S
H167 C141 0.950 . S
H168 C148 0.949 . S
H169 C150 0.950 . S
C170 O186 1.251 . S
C170 O188 1.254 . S
N171 C172 1.333 . S
N171 C176 1.307 . S
N171 Zn177 2.020 . S
C172 N171 1.333 . S
C172 C173 1.379 . S
C172 H190 0.952 . S
C173 C172 1.379 . S
C173 C174 1.390 . S
C173 H200 0.949 . S
C174 C173 1.390 . S
C174 C175 1.357 . S
C175 C174 1.357 . S
C175 C176 1.370 . S
C175 H201 0.950 . S
C176 N171 1.307 . S
C176 C175 1.370 . S
C176 H194 0.948 . S
Zn177 N171 2.020 . S
Zn177 O186 2.039 . S
Zn177 O192 2.034 . S
Zn177 O196 2.025 . S
Zn177 O198 2.024 . S
C178 O197 1.246 . S
C178 O198 1.249 . S
N179 C180 1.307 . S
N179 C181 1.333 . S
N179 Zn185 2.020 . S
C180 N179 1.307 . S
C180 C184 1.370 . S
C180 H191 0.948 . S
C181 N179 1.333 . S
C181 C182 1.379 . S
C181 H189 0.952 . S
C182 C181 1.379 . S
C182 C183 1.390 . S
C182 H202 0.949 . S
C183 C182 1.390 . S
C183 C184 1.357 . S
C184 C180 1.370 . S
C184 C183 1.357 . S
C184 H203 0.950 . S
Zn185 N179 2.020 . S
Zn185 O188 2.025 . S
Zn185 O193 2.024 . S
Zn185 O195 2.039 . S
Zn185 O197 2.034 . S
O186 C170 1.251 . S
O186 Zn177 2.039 . S
C187 O192 1.246 . S
C187 O193 1.249 . S
O188 C170 1.254 . S
O188 Zn185 2.025 . S
H189 C181 0.952 . S
H190 C172 0.952 . S
H191 C180 0.948 . S
O192 Zn177 2.034 . S
O192 C187 1.246 . S
O193 Zn185 2.024 . S
O193 C187 1.249 . S
H194 C176 0.948 . S
O195 Zn185 2.039 . S
O195 C199 1.251 . S
O196 Zn177 2.025 . S
O196 C199 1.254 . S
O197 C178 1.246 . S
O197 Zn185 2.034 . S
O198 Zn177 2.024 . S
O198 C178 1.249 . S
C199 O195 1.251 . S
C199 O196 1.254 . S
H200 C173 0.949 . S
H201 C175 0.950 . S
H202 C182 0.949 . S
H203 C184 0.950 . S
C204 O220 1.251 . S
C204 O222 1.254 . S
N205 C206 1.333 . S
N205 C210 1.307 . S
N205 Zn211 2.020 . S
C206 N205 1.333 . S
C206 C207 1.379 . S
C206 H224 0.952 . S
C207 C206 1.379 . S
C207 C208 1.390 . S
C207 H234 0.949 . S
C208 C207 1.390 . S
C208 C209 1.357 . S
C209 C208 1.357 . S
C209 C210 1.370 . S
C209 H235 0.950 . S
C210 N205 1.307 . S
C210 C209 1.370 . S
C210 H228 0.948 . S
Zn211 N205 2.020 . S
Zn211 O220 2.039 . S
Zn211 O226 2.034 . S
Zn211 O230 2.025 . S
Zn211 O232 2.024 . S
C212 O231 1.246 . S
C212 O232 1.249 . S
N213 C214 1.307 . S
N213 C215 1.333 . S
N213 Zn219 2.020 . S
C214 N213 1.307 . S
C214 C218 1.370 . S
C214 H225 0.948 . S
C215 N213 1.333 . S
C215 C216 1.379 . S
C215 H223 0.952 . S
C216 C215 1.379 . S
C216 C217 1.390 . S
C216 H236 0.949 . S
C217 C216 1.390 . S
C217 C218 1.357 . S
C218 C214 1.370 . S
C218 C217 1.357 . S
C218 H237 0.950 . S
Zn219 N213 2.020 . S
Zn219 O222 2.025 . S
Zn219 O227 2.024 . S
Zn219 O229 2.039 . S
Zn219 O231 2.034 . S
O220 C204 1.251 . S
O220 Zn211 2.039 . S
C221 O226 1.246 . S
C221 O227 1.249 . S
O222 C204 1.254 . S
O222 Zn219 2.025 . S
H223 C215 0.952 . S
H224 C206 0.952 . S
H225 C214 0.948 . S
O226 Zn211 2.034 . S
O226 C221 1.246 . S
O227 Zn219 2.024 . S
O227 C221 1.249 . S
H228 C210 0.948 . S
O229 Zn219 2.039 . S
O229 C233 1.251 . S
O230 Zn211 2.025 . S
O230 C233 1.254 . S
O231 C212 1.246 . S
O231 Zn219 2.034 . S
O232 Zn211 2.024 . S
O232 C212 1.249 . S
C233 O229 1.251 . S
C233 O230 1.254 . S
H234 C207 0.949 . S
H235 C209 0.950 . S
H236 C216 0.949 . S
H237 C218 0.950 . S
C238 O254 1.251 . S
C238 O256 1.254 . S
N239 C240 1.333 . S
N239 C244 1.307 . S
N239 Zn245 2.020 . S
C240 N239 1.333 . S
C240 C241 1.379 . S
C240 H258 0.952 . S
C241 C240 1.379 . S
C241 C242 1.390 . S
C241 H268 0.949 . S
C242 C241 1.390 . S
C242 C243 1.357 . S
C243 C242 1.357 . S
C243 C244 1.370 . S
C243 H269 0.950 . S
C244 N239 1.307 . S
C244 C243 1.370 . S
C244 H262 0.948 . S
Zn245 N239 2.020 . S
Zn245 O254 2.039 . S
Zn245 O260 2.034 . S
Zn245 O264 2.025 . S
Zn245 O266 2.024 . S
C246 O265 1.246 . S
C246 O266 1.249 . S
N247 C248 1.307 . S
N247 C249 1.333 . S
N247 Zn253 2.020 . S
C248 N247 1.307 . S
C248 C252 1.370 . S
C248 H259 0.948 . S
C249 N247 1.333 . S
C249 C250 1.379 . S
C249 H257 0.952 . S
C250 C249 1.379 . S
C250 C251 1.390 . S
C250 H270 0.949 . S
C251 C250 1.390 . S
C251 C252 1.357 . S
C252 C248 1.370 . S
C252 C251 1.357 . S
C252 H271 0.950 . S
Zn253 N247 2.020 . S
Zn253 O256 2.025 . S
Zn253 O261 2.024 . S
Zn253 O263 2.039 . S
Zn253 O265 2.034 . S
O254 C238 1.251 . S
O254 Zn245 2.039 . S
C255 O260 1.246 . S
C255 O261 1.249 . S
O256 C238 1.254 . S
O256 Zn253 2.025 . S
H257 C249 0.952 . S
H258 C240 0.952 . S
H259 C248 0.948 . S
O260 Zn245 2.034 . S
O260 C255 1.246 . S
O261 Zn253 2.024 . S
O261 C255 1.249 . S
H262 C244 0.948 . S
O263 Zn253 2.039 . S
O263 C267 1.251 . S
O264 Zn245 2.025 . S
O264 C267 1.254 . S
O265 C246 1.246 . S
O265 Zn253 2.034 . S
O266 Zn245 2.024 . S
O266 C246 1.249 . S
C267 O263 1.251 . S
C267 O264 1.254 . S
H268 C241 0.949 . S
H269 C243 0.950 . S
H270 C250 0.949 . S
H271 C252 0.950 . S
C272 O288 1.251 . S
C272 O290 1.254 . S
N273 C274 1.333 . S
N273 C278 1.307 . S
N273 Zn279 2.020 . S
C274 N273 1.333 . S
C274 C275 1.379 . S
C274 H292 0.952 . S
C275 C274 1.379 . S
C275 C276 1.390 . S
C275 H302 0.949 . S
C276 C275 1.390 . S
C276 C277 1.357 . S
C277 C276 1.357 . S
C277 C278 1.370 . S
C277 H303 0.950 . S
C278 N273 1.307 . S
C278 C277 1.370 . S
C278 H296 0.948 . S
Zn279 N273 2.020 . S
Zn279 O288 2.039 . S
Zn279 O294 2.034 . S
Zn279 O298 2.025 . S
Zn279 O300 2.024 . S
C280 O299 1.246 . S
C280 O300 1.249 . S
N281 C282 1.307 . S
N281 C283 1.333 . S
N281 Zn287 2.020 . S
C282 N281 1.307 . S
C282 C286 1.370 . S
C282 H293 0.948 . S
C283 N281 1.333 . S
C283 C284 1.379 . S
C283 H291 0.952 . S
C284 C283 1.379 . S
C284 C285 1.390 . S
C284 H304 0.949 . S
C285 C284 1.390 . S
C285 C286 1.357 . S
C286 C282 1.370 . S
C286 C285 1.357 . S
C286 H305 0.950 . S
Zn287 N281 2.020 . S
Zn287 O290 2.025 . S
Zn287 O295 2.024 . S
Zn287 O297 2.039 . S
Zn287 O299 2.034 . S
O288 C272 1.251 . S
O288 Zn279 2.039 . S
C289 O294 1.246 . S
C289 O295 1.249 . S
O290 C272 1.254 . S
O290 Zn287 2.025 . S
H291 C283 0.952 . S
H292 C274 0.952 . S
H293 C282 0.948 . S
O294 Zn279 2.034 . S
O294 C289 1.246 . S
O295 Zn287 2.024 . S
O295 C289 1.249 . S
H296 C278 0.948 . S
O297 Zn287 2.039 . S
O297 C301 1.251 . S
O298 Zn279 2.025 . S
O298 C301 1.254 . S
O299 C280 1.246 . S
O299 Zn287 2.034 . S
O300 Zn279 2.024 . S
O300 C280 1.249 . S
C301 O297 1.251 . S
C301 O298 1.254 . S
H302 C275 0.949 . S
H303 C277 0.950 . S
H304 C284 0.949 . S
H305 C286 0.950 . S
C306 C307 1.349 . S
C306 C308 1.327 . S
C306 H331 0.950 . S
C307 C306 1.349 . S
C307 C323 1.349 . S
C308 C306 1.327 . S
C308 C327 1.429 . S
C308 H332 0.950 . S
C309 C326 1.574 . S
C309 C328 1.368 . S
C309 H333 0.949 . S
H310 C314 0.949 . S
C311 C312 1.349 . S
C311 C313 1.327 . S
C311 H334 0.950 . S
C312 C311 1.349 . S
C312 C324 1.349 . S
C313 C311 1.327 . S
C313 C329 1.429 . S
C313 H335 0.950 . S
C314 H310 0.949 . S
C314 C322 1.574 . S
C314 C330 1.368 . S
H315 C323 0.950 1_554 S
H316 C321 0.950 . S
H317 C322 0.949 . S
H318 C324 0.950 . S
H319 C325 0.950 . S
H320 C326 0.949 . S
C321 H316 0.950 . S
C321 C323 1.327 . S
C321 C327 1.429 . S
C322 C314 1.574 . S
C322 H317 0.949 . S
C322 C328 1.368 . S
C323 C307 1.349 . S
C323 H315 0.950 1_556 S
C323 C321 1.327 . S
C324 C312 1.349 . S
C324 H318 0.950 . S
C324 C325 1.327 . S
C325 H319 0.950 . S
C325 C324 1.327 . S
C325 C329 1.429 . S
C326 C309 1.574 . S
C326 H320 0.949 . S
C326 C330 1.368 . S
C327 C308 1.429 . S
C327 C321 1.429 . S
C327 C328 1.523 . S
C328 C309 1.368 . S
C328 C322 1.368 . S
C328 C327 1.523 . S
C329 C313 1.429 . S
C329 C325 1.429 . S
C329 C330 1.523 . S
C330 C314 1.368 . S
C330 C326 1.368 . S
C330 C329 1.523 . S
H331 C306 0.950 . S
H332 C308 0.950 . S
H333 C309 0.949 . S
H334 C311 0.950 . S
H335 C313 0.950 . S
C336 C337 1.349 . S
C336 C338 1.327 . S
C336 H361 0.950 . S
C337 C336 1.349 . S
C337 C353 1.349 . S
C338 C336 1.327 . S
C338 C357 1.429 . S
C338 H362 0.950 . S
C339 C356 1.574 . S
C339 C358 1.368 . S
C339 H363 0.949 . S
H340 C344 0.949 . S
C341 C342 1.349 . S
C341 C343 1.327 . S
C341 H364 0.950 . S
C342 C341 1.349 . S
C342 C354 1.349 . S
C343 C341 1.327 . S
C343 C359 1.429 . S
C343 H365 0.950 . S
C344 H340 0.949 . S
C344 C352 1.574 . S
C344 C360 1.368 . S
H345 C353 0.950 1_554 S
H346 C351 0.950 . S
H347 C352 0.949 . S
H348 C354 0.950 . S
H349 C355 0.950 . S
H350 C356 0.949 . S
C351 H346 0.950 . S
C351 C353 1.327 . S
C351 C357 1.429 . S
C352 C344 1.574 . S
C352 H347 0.949 . S
C352 C358 1.368 . S
C353 C337 1.349 . S
C353 H345 0.950 1_556 S
C353 C351 1.327 . S
C354 C342 1.349 . S
C354 H348 0.950 . S
C354 C355 1.327 . S
C355 H349 0.950 . S
C355 C354 1.327 . S
C355 C359 1.429 . S
C356 C339 1.574 . S
C356 H350 0.949 . S
C356 C360 1.368 . S
C357 C338 1.429 . S
C357 C351 1.429 . S
C357 C358 1.523 . S
C358 C339 1.368 . S
C358 C352 1.368 . S
C358 C357 1.523 . S
C359 C343 1.429 . S
C359 C355 1.429 . S
C359 C360 1.523 . S
C360 C344 1.368 . S
C360 C356 1.368 . S
C360 C359 1.523 . S
H361 C336 0.950 . S
H362 C338 0.950 . S
H363 C339 0.949 . S
H364 C341 0.950 . S
H365 C343 0.950 . S
C366 C367 1.349 . S
C366 C368 1.327 . S
C366 H391 0.950 . S
C367 C366 1.349 . S
C367 C383 1.349 . S
C368 C366 1.327 . S
C368 C387 1.429 . S
C368 H392 0.950 . S
C369 C386 1.574 . S
C369 C388 1.368 . S
C369 H393 0.949 . S
H370 C374 0.949 . S
C371 C372 1.349 . S
C371 C373 1.327 . S
C371 H394 0.950 . S
C372 C371 1.349 . S
C372 C384 1.349 . S
C373 C371 1.327 . S
C373 C389 1.429 . S
C373 H395 0.950 . S
C374 H370 0.949 . S
C374 C382 1.574 . S
C374 C390 1.368 . S
H375 C383 0.950 . S
H376 C381 0.950 . S
H377 C382 0.949 . S
H378 C384 0.950 . S
H379 C385 0.950 . S
H380 C386 0.949 . S
C381 H376 0.950 . S
C381 C383 1.327 . S
C381 C387 1.429 . S
C382 C374 1.574 . S
C382 H377 0.949 . S
C382 C388 1.368 . S
C383 C367 1.349 . S
C383 H375 0.950 . S
C383 C381 1.327 . S
C384 C372 1.349 . S
C384 H378 0.950 . S
C384 C385 1.327 . S
C385 H379 0.950 . S
C385 C384 1.327 . S
C385 C389 1.429 . S
C386 C369 1.574 . S
C386 H380 0.949 . S
C386 C390 1.368 . S
C387 C368 1.429 . S
C387 C381 1.429 . S
C387 C388 1.523 . S
C388 C369 1.368 . S
C388 C382 1.368 . S
C388 C387 1.523 . S
C389 C373 1.429 . S
C389 C385 1.429 . S
C389 C390 1.523 . S
C390 C374 1.368 . S
C390 C386 1.368 . S
C390 C389 1.523 . S
H391 C366 0.950 . S
H392 C368 0.950 . S
H393 C369 0.949 . S
H394 C371 0.950 . S
H395 C373 0.950 . S
C396 C397 1.349 . S
C396 C398 1.327 . S
C396 H421 0.950 . S
C397 C396 1.349 . S
C397 C413 1.349 . S
C398 C396 1.327 . S
C398 C417 1.429 . S
C398 H422 0.950 . S
C399 C416 1.574 . S
C399 C418 1.368 . S
C399 H423 0.949 . S
H400 C404 0.949 . S
C401 C402 1.349 . S
C401 C403 1.327 . S
C401 H424 0.950 . S
C402 C401 1.349 . S
C402 C414 1.349 . S
C403 C401 1.327 . S
C403 C419 1.429 . S
C403 H425 0.950 . S
C404 H400 0.949 . S
C404 C412 1.574 . S
C404 C420 1.368 . S
H405 C413 0.950 . S
H406 C411 0.950 . S
H407 C412 0.949 . S
H408 C414 0.950 . S
H409 C415 0.950 . S
H410 C416 0.949 . S
C411 H406 0.950 . S
C411 C413 1.327 . S
C411 C417 1.429 . S
C412 C404 1.574 . S
C412 H407 0.949 . S
C412 C418 1.368 . S
C413 C397 1.349 . S
C413 H405 0.950 . S
C413 C411 1.327 . S
C414 C402 1.349 . S
C414 H408 0.950 . S
C414 C415 1.327 . S
C415 H409 0.950 . S
C415 C414 1.327 . S
C415 C419 1.429 . S
C416 C399 1.574 . S
C416 H410 0.949 . S
C416 C420 1.368 . S
C417 C398 1.429 . S
C417 C411 1.429 . S
C417 C418 1.523 . S
C418 C399 1.368 . S
C418 C412 1.368 . S
C418 C417 1.523 . S
C419 C403 1.429 . S
C419 C415 1.429 . S
C419 C420 1.523 . S
C420 C404 1.368 . S
C420 C416 1.368 . S
C420 C419 1.523 . S
H421 C396 0.950 . S
H422 C398 0.950 . S
H423 C399 0.949 . S
H424 C401 0.950 . S
H425 C403 0.950 . S
C426 C427 1.349 . S
C426 C428 1.327 . S
C426 H451 0.950 . S
C427 C426 1.349 . S
C427 C443 1.349 . S
C428 C426 1.327 . S
C428 C447 1.429 . S
C428 H452 0.950 . S
C429 C446 1.574 . S
C429 C448 1.368 . S
C429 H453 0.949 . S
H430 C434 0.949 . S
C431 C432 1.349 . S
C431 C433 1.327 . S
C431 H454 0.950 . S
C432 C431 1.349 . S
C432 C444 1.349 . S
C433 C431 1.327 . S
C433 C449 1.429 . S
C433 H455 0.950 . S
C434 H430 0.949 . S
C434 C442 1.574 . S
C434 C450 1.368 . S
H435 C443 0.950 . S
H436 C441 0.950 . S
H437 C442 0.949 . S
H438 C444 0.950 . S
H439 C445 0.950 . S
H440 C446 0.949 . S
C441 H436 0.950 . S
C441 C443 1.327 . S
C441 C447 1.429 . S
C442 C434 1.574 . S
C442 H437 0.949 . S
C442 C448 1.368 . S
C443 C427 1.349 . S
C443 H435 0.950 . S
C443 C441 1.327 . S
C444 C432 1.349 . S
C444 H438 0.950 . S
C444 C445 1.327 . S
C445 H439 0.950 . S
C445 C444 1.327 . S
C445 C449 1.429 . S
C446 C429 1.574 . S
C446 H440 0.949 . S
C446 C450 1.368 . S
C447 C428 1.429 . S
C447 C441 1.429 . S
C447 C448 1.523 . S
C448 C429 1.368 . S
C448 C442 1.368 . S
C448 C447 1.523 . S
C449 C433 1.429 . S
C449 C445 1.429 . S
C449 C450 1.523 . S
C450 C434 1.368 . S
C450 C446 1.368 . S
C450 C449 1.523 . S
H451 C426 0.950 . S
H452 C428 0.950 . S
H453 C429 0.949 . S
H454 C431 0.950 . S
H455 C433 0.950 . S
C456 C457 1.349 . S
C456 C458 1.327 . S
C456 H481 0.950 . S
C457 C456 1.349 . S
C457 C473 1.349 . S
C458 C456 1.327 . S
C458 C477 1.429 . S
C458 H482 0.950 . S
C459 C476 1.574 . S
C459 C478 1.368 . S
C459 H483 0.949 . S
H460 C464 0.949 . S
C461 C462 1.349 . S
C461 C463 1.327 . S
C461 H484 0.950 . S
C462 C461 1.349 . S
C462 C474 1.349 . S
C463 C461 1.327 . S
C463 C479 1.429 . S
C463 H485 0.950 . S
C464 H460 0.949 . S
C464 C472 1.574 . S
C464 C480 1.368 . S
H465 C473 0.950 1_556 S
H466 C471 0.950 . S
H467 C472 0.949 . S
H468 C474 0.950 . S
H469 C475 0.950 . S
H470 C476 0.949 . S
C471 H466 0.950 . S
C471 C473 1.327 . S
C471 C477 1.429 . S
C472 C464 1.574 . S
C472 H467 0.949 . S
C472 C478 1.368 . S
C473 C457 1.349 . S
C473 H465 0.950 1_554 S
C473 C471 1.327 . S
C474 C462 1.349 . S
C474 H468 0.950 . S
C474 C475 1.327 . S
C475 H469 0.950 . S
C475 C474 1.327 . S
C475 C479 1.429 . S
C476 C459 1.574 . S
C476 H470 0.949 . S
C476 C480 1.368 . S
C477 C458 1.429 . S
C477 C471 1.429 . S
C477 C478 1.523 . S
C478 C459 1.368 . S
C478 C472 1.368 . S
C478 C477 1.523 . S
C479 C463 1.429 . S
C479 C475 1.429 . S
C479 C480 1.523 . S
C480 C464 1.368 . S
C480 C476 1.368 . S
C480 C479 1.523 . S
H481 C456 0.950 . S
H482 C458 0.950 . S
H483 C459 0.949 . S
H484 C461 0.950 . S
H485 C463 0.950 . S
C486 C487 1.349 . S
C486 C488 1.327 . S
C486 H511 0.950 . S
C487 C486 1.349 . S
C487 C503 1.349 . S
C488 C486 1.327 . S
C488 C507 1.429 . S
C488 H512 0.950 . S
C489 C506 1.574 1_455 S
C489 C508 1.368 . S
C489 H513 0.949 . S
H490 C494 0.949 . S
C491 C492 1.349 . S
C491 C493 1.327 . S
C491 H514 0.950 . S
C492 C491 1.349 . S
C492 C504 1.349 . S
C493 C491 1.327 . S
C493 C509 1.429 . S
C493 H515 0.950 . S
C494 H490 0.949 . S
C494 C502 1.574 . S
C494 C510 1.368 1_455 S
H495 C503 0.950 . S
H496 C501 0.950 . S
H497 C502 0.949 . S
H498 C504 0.950 . S
H499 C505 0.950 . S
H500 C506 0.949 . S
C501 H496 0.950 . S
C501 C503 1.327 . S
C501 C507 1.429 . S
C502 C494 1.574 . S
C502 H497 0.949 . S
C502 C508 1.368 . S
C503 C487 1.349 . S
C503 H495 0.950 . S
C503 C501 1.327 . S
C504 C492 1.349 . S
C504 H498 0.950 . S
C504 C505 1.327 . S
C505 H499 0.950 . S
C505 C504 1.327 . S
C505 C509 1.429 . S
C506 C489 1.574 1_655 S
C506 H500 0.949 . S
C506 C510 1.368 . S
C507 C488 1.429 . S
C507 C501 1.429 . S
C507 C508 1.523 . S
C508 C489 1.368 . S
C508 C502 1.368 . S
C508 C507 1.523 . S
C509 C493 1.429 . S
C509 C505 1.429 . S
C509 C510 1.523 . S
C510 C494 1.368 1_655 S
C510 C506 1.368 . S
C510 C509 1.523 . S
H511 C486 0.950 . S
H512 C488 0.950 . S
H513 C489 0.949 . S
H514 C491 0.950 . S
H515 C493 0.950 . S
C516 C517 1.349 . S
C516 C518 1.327 . S
C516 H541 0.950 . S
C517 C516 1.349 . S
C517 C533 1.349 . S
C518 C516 1.327 . S
C518 C537 1.429 . S
C518 H542 0.950 . S
C519 C536 1.574 . S
C519 C538 1.368 . S
C519 H543 0.949 . S
H520 C524 0.949 . S
C521 C522 1.349 . S
C521 C523 1.327 . S
C521 H544 0.950 . S
C522 C521 1.349 . S
C522 C534 1.349 . S
C523 C521 1.327 . S
C523 C539 1.429 . S
C523 H545 0.950 . S
C524 H520 0.949 . S
C524 C532 1.574 . S
C524 C540 1.368 . S
H525 C533 0.950 . S
H526 C531 0.950 . S
H527 C532 0.949 . S
H528 C534 0.950 . S
H529 C535 0.950 . S
H530 C536 0.949 . S
C531 H526 0.950 . S
C531 C533 1.327 . S
C531 C537 1.429 . S
C532 C524 1.574 . S
C532 H527 0.949 . S
C532 C538 1.368 . S
C533 C517 1.349 . S
C533 H525 0.950 . S
C533 C531 1.327 . S
C534 C522 1.349 . S
C534 H528 0.950 . S
C534 C535 1.327 . S
C535 H529 0.950 . S
C535 C534 1.327 . S
C535 C539 1.429 . S
C536 C519 1.574 . S
C536 H530 0.949 . S
C536 C540 1.368 . S
C537 C518 1.429 . S
C537 C531 1.429 . S
C537 C538 1.523 . S
C538 C519 1.368 . S
C538 C532 1.368 . S
C538 C537 1.523 . S
C539 C523 1.429 . S
C539 C535 1.429 . S
C539 C540 1.523 . S
C540 C524 1.368 . S
C540 C536 1.368 . S
C540 C539 1.523 . S
H541 C516 0.950 . S
H542 C518 0.950 . S
H543 C519 0.949 . S
H544 C521 0.950 . S
H545 C523 0.950 . S
C546 C547 1.349 . S
C546 C548 1.327 . S
C546 H571 0.950 . S
C547 C546 1.349 . S
C547 C563 1.349 . S
C548 C546 1.327 . S
C548 C567 1.429 . S
C548 H572 0.950 . S
C549 C566 1.574 1_545 S
C549 C568 1.368 . S
C549 H573 0.949 . S
H550 C554 0.949 . S
C551 C552 1.349 . S
C551 C553 1.327 . S
C551 H574 0.950 . S
C552 C551 1.349 . S
C552 C564 1.349 . S
C553 C551 1.327 . S
C553 C569 1.429 . S
C553 H575 0.950 . S
C554 H550 0.949 . S
C554 C562 1.574 . S
C554 C570 1.368 1_545 S
H555 C563 0.950 . S
H556 C561 0.950 . S
H557 C562 0.949 . S
H558 C564 0.950 . S
H559 C565 0.950 . S
H560 C566 0.949 . S
C561 H556 0.950 . S
C561 C563 1.327 . S
C561 C567 1.429 . S
C562 C554 1.574 . S
C562 H557 0.949 . S
C562 C568 1.368 . S
C563 C547 1.349 . S
C563 H555 0.950 . S
C563 C561 1.327 . S
C564 C552 1.349 . S
C564 H558 0.950 . S
C564 C565 1.327 . S
C565 H559 0.950 . S
C565 C564 1.327 . S
C565 C569 1.429 . S
C566 C549 1.574 1_565 S
C566 H560 0.949 . S
C566 C570 1.368 . S
C567 C548 1.429 . S
C567 C561 1.429 . S
C567 C568 1.523 . S
C568 C549 1.368 . S
C568 C562 1.368 . S
C568 C567 1.523 . S
C569 C553 1.429 . S
C569 C565 1.429 . S
C569 C570 1.523 . S
C570 C554 1.368 1_565 S
C570 C566 1.368 . S
C570 C569 1.523 . S
H571 C546 0.950 . S
H572 C548 0.950 . S
H573 C549 0.949 . S
H574 C551 0.950 . S
H575 C553 0.950 . S
C576 C577 1.349 . S
C576 C578 1.327 . S
C576 H601 0.950 . S
C577 C576 1.349 . S
C577 C593 1.349 1_554 S
C578 C576 1.327 . S
C578 C597 1.429 . S
C578 H602 0.950 . S
C579 C596 1.574 . S
C579 C598 1.368 1_556 S
C579 H603 0.949 . S
H580 C584 0.949 . S
C581 C582 1.349 . S
C581 C583 1.327 . S
C581 H604 0.950 . S
C582 C581 1.349 . S
C582 C594 1.349 1_556 S
C583 C581 1.327 . S
C583 C599 1.429 1_556 S
C583 H605 0.950 . S
C584 H580 0.949 . S
C584 C592 1.574 . S
C584 C600 1.368 . S
H585 C593 0.950 . S
H586 C591 0.950 . S
H587 C592 0.949 . S
H588 C594 0.950 . S
H589 C595 0.950 . S
H590 C596 0.949 . S
C591 H586 0.950 . S
C591 C593 1.327 . S
C591 C597 1.429 1_556 S
C592 C584 1.574 . S
C592 H587 0.949 . S
C592 C598 1.368 . S
C593 C577 1.349 1_556 S
C593 H585 0.950 . S
C593 C591 1.327 . S
C594 C582 1.349 1_554 S
C594 H588 0.950 . S
C594 C595 1.327 . S
C595 H589 0.950 . S
C595 C594 1.327 . S
C595 C599 1.429 . S
C596 C579 1.574 . S
C596 H590 0.949 . S
C596 C600 1.368 1_556 S
C597 C578 1.429 . S
C597 C591 1.429 1_554 S
C597 C598 1.523 . S
C598 C579 1.368 1_554 S
C598 C592 1.368 . S
C598 C597 1.523 . S
C599 C583 1.429 1_554 S
C599 C595 1.429 . S
C599 C600 1.523 . S
C600 C584 1.368 . S
C600 C596 1.368 1_554 S
C600 C599 1.523 . S
H601 C576 0.950 . S
H602 C578 0.950 . S
H603 C579 0.949 . S
H604 C581 0.950 . S
H605 C583 0.950 . S
C606 C607 1.349 . S
C606 C608 1.327 . S
C606 H631 0.950 . S
C607 C606 1.349 . S
C607 C623 1.349 1_556 S
C608 C606 1.327 . S
C608 C627 1.429 1_556 S
C608 H632 0.950 . S
C609 C626 1.574 1_565 S
C609 C628 1.368 . S
C609 H633 0.949 . S
H610 C614 0.949 . S
C611 C612 1.349 . S
C611 C613 1.327 . S
C611 H634 0.950 . S
C612 C611 1.349 . S
C612 C624 1.349 1_554 S
C613 C611 1.327 . S
C613 C629 1.429 . S
C613 H635 0.950 . S
C614 H610 0.949 . S
C614 C622 1.574 1_545 S
C614 C630 1.368 1_556 S
H615 C623 0.950 . S
H616 C621 0.950 . S
H617 C622 0.949 . S
H618 C624 0.950 . S
H619 C625 0.950 . S
H620 C626 0.949 . S
C621 H616 0.950 . S
C621 C623 1.327 . S
C621 C627 1.429 . S
C622 C614 1.574 1_565 S
C622 H617 0.949 . S
C622 C628 1.368 1_556 S
C623 C607 1.349 1_554 S
C623 H615 0.950 . S
C623 C621 1.327 . S
C624 C612 1.349 1_556 S
C624 H618 0.950 . S
C624 C625 1.327 . S
C625 H619 0.950 . S
C625 C624 1.327 . S
C625 C629 1.429 1_556 S
C626 C609 1.574 1_545 S
C626 H620 0.949 . S
C626 C630 1.368 . S
C627 C608 1.429 1_554 S
C627 C621 1.429 . S
C627 C628 1.523 . S
C628 C609 1.368 . S
C628 C622 1.368 1_554 S
C628 C627 1.523 . S
C629 C613 1.429 . S
C629 C625 1.429 1_554 S
C629 C630 1.523 . S
C630 C614 1.368 1_554 S
C630 C626 1.368 . S
C630 C629 1.523 . S
H631 C606 0.950 . S
H632 C608 0.950 . S
H633 C609 0.949 . S
H634 C611 0.950 . S
H635 C613 0.950 . S
C636 C637 1.349 . S
C636 C638 1.327 . S
C636 H661 0.950 . S
C637 C636 1.349 . S
C637 C653 1.349 . S
C638 C636 1.327 . S
C638 C657 1.429 . S
C638 H662 0.949 1_554 S
C639 C656 1.574 1_655 S
C639 C658 1.368 . S
C639 H663 0.949 . S
H640 C644 0.949 . S
C641 C642 1.349 1_554 S
C641 C643 1.327 . S
C641 H664 0.950 . S
C642 C641 1.349 1_556 S
C642 C654 1.349 . S
C643 C641 1.327 . S
C643 C659 1.429 1_554 S
C643 H665 0.950 . S
C644 H640 0.949 . S
C644 C652 1.574 1_455 S
C644 C660 1.368 1_556 S
H645 C653 0.950 . S
H646 C651 0.950 . S
H647 C652 0.949 . S
H648 C654 0.950 . S
H649 C655 0.950 . S
H650 C656 0.949 . S
C651 H646 0.950 . S
C651 C653 1.327 . S
C651 C657 1.429 . S
C652 C644 1.574 1_655 S
C652 H647 0.949 . S
C652 C658 1.368 1_556 S
C653 C637 1.349 . S
C653 H645 0.950 . S
C653 C651 1.327 . S
C654 C642 1.349 . S
C654 H648 0.950 . S
C654 C655 1.327 . S
C655 H649 0.950 . S
C655 C654 1.327 . S
C655 C659 1.429 . S
C656 C639 1.574 1_455 S
C656 H650 0.949 . S
C656 C660 1.368 . S
C657 C638 1.429 . S
C657 C651 1.429 . S
C657 C658 1.523 . S
C658 C639 1.368 . S
C658 C652 1.368 1_554 S
C658 C657 1.523 . S
C659 C643 1.429 1_556 S
C659 C655 1.429 . S
C659 C660 1.523 1_556 S
C660 C644 1.368 1_554 S
C660 C656 1.368 . S
C660 C659 1.523 1_554 S
H661 C636 0.950 . S
H662 C638 0.949 1_556 S
H663 C639 0.949 . S
H664 C641 0.950 . S
H665 C643 0.950 . S
C666 C667 1.349 . S
C666 C668 1.327 . S
C666 H691 0.950 . S
C667 C666 1.349 . S
C667 C683 1.349 . S
C668 C666 1.327 . S
C668 C687 1.429 . S
C668 H692 0.950 . S
C669 C686 1.574 . S
C669 C688 1.368 . S
C669 H693 0.949 . S
H670 C674 0.949 . S
C671 C672 1.349 . S
C671 C673 1.327 . S
C671 H694 0.950 . S
C672 C671 1.349 . S
C672 C684 1.349 . S
C673 C671 1.327 . S
C673 C689 1.429 . S
C673 H695 0.950 . S
C674 H670 0.949 . S
C674 C682 1.574 . S
C674 C690 1.368 . S
H675 C683 0.950 . S
H676 C681 0.950 . S
H677 C682 0.949 . S
H678 C684 0.950 . S
H679 C685 0.950 . S
H680 C686 0.949 . S
C681 H676 0.950 . S
C681 C683 1.327 . S
C681 C687 1.429 . S
C682 C674 1.574 . S
C682 H677 0.949 . S
C682 C688 1.368 . S
C683 C667 1.349 . S
C683 H675 0.950 . S
C683 C681 1.327 . S
C684 C672 1.349 . S
C684 H678 0.950 . S
C684 C685 1.327 . S
C685 H679 0.950 . S
C685 C684 1.327 . S
C685 C689 1.429 . S
C686 C669 1.574 . S
C686 H680 0.949 . S
C686 C690 1.368 . S
C687 C668 1.429 . S
C687 C681 1.429 . S
C687 C688 1.523 . S
C688 C669 1.368 . S
C688 C682 1.368 . S
C688 C687 1.523 . S
C689 C673 1.429 . S
C689 C685 1.429 . S
C689 C690 1.523 . S
C690 C674 1.368 . S
C690 C686 1.368 . S
C690 C689 1.523 . S
H691 C666 0.950 . S
H692 C668 0.950 . S
H693 C669 0.949 . S
H694 C671 0.950 . S
H695 C673 0.950 . S
C696 C697 1.349 . S
C696 C698 1.327 . S
C696 H721 0.950 . S
C697 C696 1.349 . S
C697 C713 1.349 . S
C698 C696 1.327 . S
C698 C717 1.429 . S
C698 H722 0.950 . S
C699 C716 1.574 . S
C699 C718 1.368 . S
C699 H723 0.949 . S
H700 C704 0.949 . S
C701 C702 1.349 . S
C701 C703 1.327 . S
C701 H724 0.950 . S
C702 C701 1.349 . S
C702 C714 1.349 . S
C703 C701 1.327 . S
C703 C719 1.429 . S
C703 H725 0.950 . S
C704 H700 0.949 . S
C704 C712 1.574 . S
C704 C720 1.368 . S
H705 C713 0.950 . S
H706 C711 0.950 . S
H707 C712 0.949 . S
H708 C714 0.950 . S
H709 C715 0.950 . S
H710 C716 0.949 . S
C711 H706 0.950 . S
C711 C713 1.327 . S
C711 C717 1.429 . S
C712 C704 1.574 . S
C712 H707 0.949 . S
C712 C718 1.368 . S
C713 C697 1.349 . S
C713 H705 0.950 . S
C713 C711 1.327 . S
C714 C702 1.349 . S
C714 H708 0.950 . S
C714 C715 1.327 . S
C715 H709 0.950 . S
C715 C714 1.327 . S
C715 C719 1.429 . S
C716 C699 1.574 . S
C716 H710 0.949 . S
C716 C720 1.368 . S
C717 C698 1.429 . S
C717 C711 1.429 . S
C717 C718 1.523 . S
C718 C699 1.368 . S
C718 C712 1.368 . S
C718 C717 1.523 . S
C719 C703 1.429 . S
C719 C715 1.429 . S
C719 C720 1.523 . S
C720 C704 1.368 . S
C720 C716 1.368 . S
C720 C719 1.523 . S
H721 C696 0.950 . S
H722 C698 0.950 . S
H723 C699 0.949 . S
H724 C701 0.950 . S
H725 C703 0.950 . S
C726 C727 1.349 . S
C726 C728 1.327 . S
C726 H751 0.950 . S
C727 C726 1.349 . S
C727 C743 1.349 . S
C728 C726 1.327 . S
C728 C747 1.429 . S
C728 H752 0.950 . S
C729 C746 1.574 . S
C729 C748 1.368 . S
C729 H753 0.949 . S
H730 C734 0.949 . S
C731 C732 1.349 . S
C731 C733 1.327 . S
C731 H754 0.950 . S
C732 C731 1.349 . S
C732 C744 1.349 . S
C733 C731 1.327 . S
C733 C749 1.429 . S
C733 H755 0.950 . S
C734 H730 0.949 . S
C734 C742 1.574 . S
C734 C750 1.368 . S
H735 C743 0.950 . S
H736 C741 0.950 . S
H737 C742 0.949 . S
H738 C744 0.950 . S
H739 C745 0.950 . S
H740 C746 0.949 . S
C741 H736 0.950 . S
C741 C743 1.327 . S
C741 C747 1.429 . S
C742 C734 1.574 . S
C742 H737 0.949 . S
C742 C748 1.368 . S
C743 C727 1.349 . S
C743 H735 0.950 . S
C743 C741 1.327 . S
C744 C732 1.349 . S
C744 H738 0.950 . S
C744 C745 1.327 . S
C745 H739 0.950 . S
C745 C744 1.327 . S
C745 C749 1.429 . S
C746 C729 1.574 . S
C746 H740 0.949 . S
C746 C750 1.368 . S
C747 C728 1.429 . S
C747 C741 1.429 . S
C747 C748 1.523 . S
C748 C729 1.368 . S
C748 C742 1.368 . S
C748 C747 1.523 . S
C749 C733 1.429 . S
C749 C745 1.429 . S
C749 C750 1.523 . S
C750 C734 1.368 . S
C750 C746 1.368 . S
C750 C749 1.523 . S
H751 C726 0.950 . S
H752 C728 0.950 . S
H753 C729 0.949 . S
H754 C731 0.950 . S
H755 C733 0.950 . S
C756 C757 1.349 . S
C756 C758 1.327 . S
C756 H781 0.950 . S
C757 C756 1.349 . S
C757 C773 1.349 . S
C758 C756 1.327 . S
C758 C777 1.429 . S
C758 H782 0.950 . S
C759 C776 1.574 . S
C759 C778 1.368 . S
C759 H783 0.949 . S
H760 C764 0.949 . S
C761 C762 1.349 . S
C761 C763 1.327 . S
C761 H784 0.950 . S
C762 C761 1.349 . S
C762 C774 1.349 . S
C763 C761 1.327 . S
C763 C779 1.429 . S
C763 H785 0.950 . S
C764 H760 0.949 . S
C764 C772 1.574 . S
C764 C780 1.368 . S
H765 C773 0.950 . S
H766 C771 0.950 . S
H767 C772 0.949 . S
H768 C774 0.950 . S
H769 C775 0.950 . S
H770 C776 0.949 . S
C771 H766 0.950 . S
C771 C773 1.327 . S
C771 C777 1.429 . S
C772 C764 1.574 . S
C772 H767 0.949 . S
C772 C778 1.368 . S
C773 C757 1.349 . S
C773 H765 0.950 . S
C773 C771 1.327 . S
C774 C762 1.349 . S
C774 H768 0.950 . S
C774 C775 1.327 . S
C775 H769 0.950 . S
C775 C774 1.327 . S
C775 C779 1.429 . S
C776 C759 1.574 . S
C776 H770 0.949 . S
C776 C780 1.368 . S
C777 C758 1.429 . S
C777 C771 1.429 . S
C777 C778 1.523 . S
C778 C759 1.368 . S
C778 C772 1.368 . S
C778 C777 1.523 . S
C779 C763 1.429 . S
C779 C775 1.429 . S
C779 C780 1.523 . S
C780 C764 1.368 . S
C780 C776 1.368 . S
C780 C779 1.523 . S
H781 C756 0.950 . S
H782 C758 0.950 . S
H783 C759 0.949 . S
H784 C761 0.950 . S
H785 C763 0.950 . S
C786 C787 1.349 . S
C786 C788 1.327 . S
C786 H811 0.950 . S
C787 C786 1.349 . S
C787 C803 1.349 . S
C788 C786 1.327 . S
C788 C807 1.429 . S
C788 H812 0.950 . S
C789 C806 1.574 . S
C789 C808 1.368 . S
C789 H813 0.949 . S
H790 C794 0.949 . S
C791 C792 1.349 . S
C791 C793 1.327 . S
C791 H814 0.950 . S
C792 C791 1.349 . S
C792 C804 1.349 . S
C793 C791 1.327 . S
C793 C809 1.429 . S
C793 H815 0.950 . S
C794 H790 0.949 . S
C794 C802 1.574 . S
C794 C810 1.368 . S
H795 C803 0.950 . S
H796 C801 0.950 . S
H797 C802 0.949 . S
H798 C804 0.950 . S
H799 C805 0.950 . S
H800 C806 0.949 . S
C801 H796 0.950 . S
C801 C803 1.327 . S
C801 C807 1.429 . S
C802 C794 1.574 . S
C802 H797 0.949 . S
C802 C808 1.368 . S
C803 C787 1.349 . S
C803 H795 0.950 . S
C803 C801 1.327 . S
C804 C792 1.349 . S
C804 H798 0.950 . S
C804 C805 1.327 . S
C805 H799 0.950 . S
C805 C804 1.327 . S
C805 C809 1.429 . S
C806 C789 1.574 . S
C806 H800 0.949 . S
C806 C810 1.368 . S
C807 C788 1.429 . S
C807 C801 1.429 . S
C807 C808 1.523 . S
C808 C789 1.368 . S
C808 C802 1.368 . S
C808 C807 1.523 . S
C809 C793 1.429 . S
C809 C805 1.429 . S
C809 C810 1.523 . S
C810 C794 1.368 . S
C810 C806 1.368 . S
C810 C809 1.523 . S
H811 C786 0.950 . S
H812 C788 0.950 . S
H813 C789 0.949 . S
H814 C791 0.950 . S
H815 C793 0.950 . S
C816 C817 1.349 . S
C816 C818 1.327 . S
C816 H841 0.950 . S
C817 C816 1.349 . S
C817 C833 1.349 . S
C818 C816 1.327 . S
C818 C837 1.429 . S
C818 H842 0.950 . S
C819 C836 1.574 . S
C819 C838 1.368 . S
C819 H843 0.949 . S
H820 C824 0.949 . S
C821 C822 1.349 . S
C821 C823 1.327 . S
C821 H844 0.950 . S
C822 C821 1.349 . S
C822 C834 1.349 . S
C823 C821 1.327 . S
C823 C839 1.429 . S
C823 H845 0.950 . S
C824 H820 0.949 . S
C824 C832 1.574 . S
C824 C840 1.368 . S
H825 C833 0.950 . S
H826 C831 0.950 . S
H827 C832 0.949 . S
H828 C834 0.950 . S
H829 C835 0.950 . S
H830 C836 0.949 . S
C831 H826 0.950 . S
C831 C833 1.327 . S
C831 C837 1.429 . S
C832 C824 1.574 . S
C832 H827 0.949 . S
C832 C838 1.368 . S
C833 C817 1.349 . S
C833 H825 0.950 . S
C833 C831 1.327 . S
C834 C822 1.349 . S
C834 H828 0.950 . S
C834 C835 1.327 . S
C835 H829 0.950 . S
C835 C834 1.327 . S
C835 C839 1.429 . S
C836 C819 1.574 . S
C836 H830 0.949 . S
C836 C840 1.368 . S
C837 C818 1.429 . S
C837 C831 1.429 . S
C837 C838 1.523 . S
C838 C819 1.368 . S
C838 C832 1.368 . S
C838 C837 1.523 . S
C839 C823 1.429 . S
C839 C835 1.429 . S
C839 C840 1.523 . S
C840 C824 1.368 . S
C840 C836 1.368 . S
C840 C839 1.523 . S
H841 C816 0.950 . S
H842 C818 0.950 . S
H843 C819 0.949 . S
H844 C821 0.950 . S
H845 C823 0.950 . S
C846 C847 1.349 . S
C846 C848 1.327 . S
C846 H871 0.950 . S
C847 C846 1.349 . S
C847 C863 1.349 1_655 S
C848 C846 1.327 . S
C848 C867 1.428 1_655 S
C848 H872 0.950 . S
C849 C866 1.574 . S
C849 C868 1.368 . S
C849 H873 0.949 . S
H850 C854 0.949 . S
C851 C852 1.349 . S
C851 C853 1.327 . S
C851 H874 0.950 . S
C852 C851 1.349 . S
C852 C864 1.349 . S
C853 C851 1.327 . S
C853 C869 1.429 . S
C853 H875 0.950 . S
C854 H850 0.949 . S
C854 C862 1.574 . S
C854 C870 1.368 1_655 S
H855 C863 0.950 . S
H856 C861 0.950 . S
H857 C862 0.949 . S
H858 C864 0.950 1_655 S
H859 C865 0.950 1_655 S
H860 C866 0.949 . S
C861 H856 0.950 . S
C861 C863 1.327 . S
C861 C867 1.429 . S
C862 C854 1.574 . S
C862 H857 0.949 . S
C862 C868 1.368 1_655 S
C863 C847 1.349 1_455 S
C863 H855 0.950 . S
C863 C861 1.327 . S
C864 C852 1.349 . S
C864 H858 0.950 1_455 S
C864 C865 1.327 . S
C865 H859 0.950 1_455 S
C865 C864 1.327 . S
C865 C869 1.429 . S
C866 C849 1.574 . S
C866 H860 0.949 . S
C866 C870 1.368 . S
C867 C848 1.428 1_455 S
C867 C861 1.429 . S
C867 C868 1.523 . S
C868 C849 1.368 . S
C868 C862 1.368 1_455 S
C868 C867 1.523 . S
C869 C853 1.429 . S
C869 C865 1.429 . S
C869 C870 1.523 . S
C870 C854 1.368 1_455 S
C870 C866 1.368 . S
C870 C869 1.523 . S
H871 C846 0.950 . S
H872 C848 0.950 . S
H873 C849 0.949 . S
H874 C851 0.950 . S
H875 C853 0.950 . S
C876 C877 1.349 . S
C876 C878 1.327 . S
C876 H901 0.950 . S
C877 C876 1.349 . S
C877 C893 1.349 . S
C878 C876 1.327 . S
C878 C897 1.429 . S
C878 H902 0.950 . S
C879 C896 1.574 . S
C879 C898 1.368 . S
C879 H903 0.949 . S
H880 C884 0.949 . S
C881 C882 1.349 . S
C881 C883 1.327 . S
C881 H904 0.950 . S
C882 C881 1.349 . S
C882 C894 1.349 . S
C883 C881 1.327 . S
C883 C899 1.429 . S
C883 H905 0.950 . S
C884 H880 0.949 . S
C884 C892 1.574 . S
C884 C900 1.368 . S
H885 C893 0.950 . S
H886 C891 0.950 . S
H887 C892 0.949 . S
H888 C894 0.950 . S
H889 C895 0.950 . S
H890 C896 0.949 . S
C891 H886 0.950 . S
C891 C893 1.327 . S
C891 C897 1.429 . S
C892 C884 1.574 . S
C892 H887 0.949 . S
C892 C898 1.368 . S
C893 C877 1.349 . S
C893 H885 0.950 . S
C893 C891 1.327 . S
C894 C882 1.349 . S
C894 H888 0.950 . S
C894 C895 1.327 . S
C895 H889 0.950 . S
C895 C894 1.327 . S
C895 C899 1.429 . S
C896 C879 1.574 . S
C896 H890 0.949 . S
C896 C900 1.368 . S
C897 C878 1.429 . S
C897 C891 1.429 . S
C897 C898 1.523 . S
C898 C879 1.368 . S
C898 C892 1.368 . S
C898 C897 1.523 . S
C899 C883 1.429 . S
C899 C895 1.429 . S
C899 C900 1.523 . S
C900 C884 1.368 . S
C900 C896 1.368 . S
C900 C899 1.523 . S
H901 C876 0.950 . S
H902 C878 0.950 . S
H903 C879 0.949 . S
H904 C881 0.950 . S
H905 C883 0.950 . S
C906 C907 1.349 . S
C906 C908 1.327 . S
C906 H931 0.950 . S
C907 C906 1.349 . S
C907 C923 1.349 . S
C908 C906 1.327 . S
C908 C927 1.429 . S
C908 H932 0.950 . S
C909 C926 1.574 . S
C909 C928 1.368 1_565 S
C909 H933 0.949 . S
H910 C914 0.949 . S
C911 C912 1.349 . S
C911 C913 1.327 . S
C911 H934 0.950 . S
C912 C911 1.349 . S
C912 C924 1.349 1_565 S
C913 C911 1.327 . S
C913 C929 1.429 . S
C913 H935 0.950 . S
C914 H910 0.949 . S
C914 C922 1.574 . S
C914 C930 1.368 . S
H915 C923 0.953 . S
H916 C921 0.950 1_565 S
H917 C922 0.949 . S
H918 C924 0.950 . S
H919 C925 0.950 . S
H920 C926 0.949 . S
C921 H916 0.950 1_545 S
C921 C923 1.327 . S
C921 C927 1.429 . S
C922 C914 1.574 . S
C922 H917 0.949 . S
C922 C928 1.368 . S
C923 C907 1.349 . S
C923 H915 0.953 . S
C923 C921 1.327 . S
C924 C912 1.349 1_545 S
C924 H918 0.950 . S
C924 C925 1.327 . S
C925 H919 0.950 . S
C925 C924 1.327 . S
C925 C929 1.429 1_545 S
C926 C909 1.574 . S
C926 H920 0.949 . S
C926 C930 1.368 1_565 S
C927 C908 1.429 . S
C927 C921 1.429 . S
C927 C928 1.523 . S
C928 C909 1.368 1_545 S
C928 C922 1.368 . S
C928 C927 1.523 . S
C929 C913 1.429 . S
C929 C925 1.429 1_565 S
C929 C930 1.523 1_565 S
C930 C914 1.368 . S
C930 C926 1.368 1_545 S
C930 C929 1.523 1_545 S
H931 C906 0.950 . S
H932 C908 0.950 . S
H933 C909 0.949 . S
H934 C911 0.950 . S
H935 C913 0.950 . S
C936 C937 1.349 . S
C936 C938 1.327 . S
C936 H961 0.950 . S
C937 C936 1.349 . S
C937 C953 1.349 . S
C938 C936 1.327 . S
C938 C957 1.429 . S
C938 H962 0.950 . S
C939 C956 1.574 . S
C939 C958 1.368 . S
C939 H963 0.949 . S
H940 C944 0.949 . S
C941 C942 1.349 . S
C941 C943 1.327 1_554 S
C941 H964 0.950 . S
C942 C941 1.349 . S
C942 C954 1.349 . S
C943 C941 1.327 1_556 S
C943 C959 1.429 . S
C943 H965 0.950 . S
C944 H940 0.949 . S
C944 C952 1.574 . S
C944 C960 1.368 . S
H945 C953 0.950 . S
H946 C951 0.950 . S
H947 C952 0.949 . S
H948 C954 0.950 . S
H949 C955 0.950 . S
H950 C956 0.949 . S
C951 H946 0.950 . S
C951 C953 1.327 . S
C951 C957 1.429 . S
C952 C944 1.574 . S
C952 H947 0.949 . S
C952 C958 1.368 . S
C953 C937 1.349 . S
C953 H945 0.950 . S
C953 C951 1.327 . S
C954 C942 1.349 . S
C954 H948 0.950 . S
C954 C955 1.327 1_554 S
C955 H949 0.950 . S
C955 C954 1.327 1_556 S
C955 C959 1.429 . S
C956 C939 1.574 . S
C956 H950 0.949 . S
C956 C960 1.368 . S
C957 C938 1.429 . S
C957 C951 1.429 . S
C957 C958 1.523 . S
C958 C939 1.368 . S
C958 C952 1.368 . S
C958 C957 1.523 . S
C959 C943 1.429 . S
C959 C955 1.429 . S
C959 C960 1.523 . S
C960 C944 1.368 . S
C960 C956 1.368 . S
C960 C959 1.523 . S
H961 C936 0.950 . S
H962 C938 0.950 . S
H963 C939 0.949 . S
H964 C941 0.950 . S
H965 C943 0.950 . S
C966 C967 1.349 . S
C966 C968 1.327 . S
C966 H991 0.950 . S
C967 C966 1.349 . S
C967 C983 1.349 . S
C968 C966 1.327 . S
C968 C987 1.429 . S
C968 H992 0.950 . S
C969 C986 1.574 . S
C969 C988 1.368 . S
C969 H993 0.949 . S
H970 C974 0.949 . S
C971 C972 1.349 . S
C971 C973 1.327 1_554 S
C971 H994 0.950 . S
C972 C971 1.349 . S
C972 C984 1.349 . S
C973 C971 1.327 1_556 S
C973 C989 1.429 . S
C973 H995 0.950 . S
C974 H970 0.949 . S
C974 C982 1.574 . S
C974 C990 1.368 . S
H975 C983 0.950 . S
H976 C981 0.950 . S
H977 C982 0.949 . S
H978 C984 0.950 . S
H979 C985 0.950 . S
H980 C986 0.949 . S
C981 H976 0.950 . S
C981 C983 1.327 . S
C981 C987 1.429 . S
C982 C974 1.574 . S
C982 H977 0.949 . S
C982 C988 1.368 . S
C983 C967 1.349 . S
C983 H975 0.950 . S
C983 C981 1.327 . S
C984 C972 1.349 . S
C984 H978 0.950 . S
C984 C985 1.327 1_554 S
C985 H979 0.950 . S
C985 C984 1.327 1_556 S
C985 C989 1.429 . S
C986 C969 1.574 . S
C986 H980 0.949 . S
C986 C990 1.368 . S
C987 C968 1.429 . S
C987 C981 1.429 . S
C987 C988 1.523 . S
C988 C969 1.368 . S
C988 C982 1.368 . S
C988 C987 1.523 . S
C989 C973 1.429 . S
C989 C985 1.429 . S
C989 C990 1.523 . S
C990 C974 1.368 . S
C990 C986 1.368 . S
C990 C989 1.523 . S
H991 C966 0.950 . S
H992 C968 0.950 . S
H993 C969 0.949 . S
H994 C971 0.950 . S
H995 C973 0.950 . S
C996 C997 1.349 . S
C996 C998 1.327 . S
C996 H1021 0.950 . S
C997 C996 1.349 . S
C997 C1013 1.349 . S
C998 C996 1.327 . S
C998 C1017 1.429 . S
C998 H1022 0.950 . S
C999 C1016 1.574 . S
C999 C1018 1.368 . S
C999 H1023 0.949 . S
H1000 C1004 0.949 . S
C1001 C1002 1.349 . S
C1001 C1003 1.327 1_554 S
C1001 H1024 0.950 . S
C1002 C1001 1.349 . S
C1002 C1014 1.349 . S
C1003 C1001 1.327 1_556 S
C1003 C1019 1.429 . S
C1003 H1025 0.950 . S
C1004 H1000 0.949 . S
C1004 C1012 1.574 . S
C1004 C1020 1.368 . S
H1005 C1013 0.950 . S
H1006 C1011 0.950 . S
H1007 C1012 0.949 . S
H1008 C1014 0.950 . S
H1009 C1015 0.950 . S
H1010 C1016 0.949 . S
C1011 H1006 0.950 . S
C1011 C1013 1.327 . S
C1011 C1017 1.429 . S
C1012 C1004 1.574 . S
C1012 H1007 0.949 . S
C1012 C1018 1.368 . S
C1013 C997 1.349 . S
C1013 H1005 0.950 . S
C1013 C1011 1.327 . S
C1014 C1002 1.349 . S
C1014 H1008 0.950 . S
C1014 C1015 1.327 1_554 S
C1015 H1009 0.950 . S
C1015 C1014 1.327 1_556 S
C1015 C1019 1.429 . S
C1016 C999 1.574 . S
C1016 H1010 0.949 . S
C1016 C1020 1.368 . S
C1017 C998 1.429 . S
C1017 C1011 1.429 . S
C1017 C1018 1.523 . S
C1018 C999 1.368 . S
C1018 C1012 1.368 . S
C1018 C1017 1.523 . S
C1019 C1003 1.429 . S
C1019 C1015 1.429 . S
C1019 C1020 1.523 . S
C1020 C1004 1.368 . S
C1020 C1016 1.368 . S
C1020 C1019 1.523 . S
H1021 C996 0.950 . S
H1022 C998 0.950 . S
H1023 C999 0.949 . S
H1024 C1001 0.950 . S
H1025 C1003 0.950 . S
C1026 C1027 1.349 . S
C1026 C1028 1.327 . S
C1026 H1051 0.950 . S
C1027 C1026 1.349 . S
C1027 C1043 1.349 . S
C1028 C1026 1.327 . S
C1028 C1047 1.429 . S
C1028 H1052 0.950 . S
C1029 C1046 1.574 . S
C1029 C1048 1.368 . S
C1029 H1053 0.949 . S
H1030 C1034 0.949 . S
C1031 C1032 1.349 . S
C1031 C1033 1.327 1_556 S
C1031 H1054 0.950 . S
C1032 C1031 1.349 . S
C1032 C1044 1.349 . S
C1033 C1031 1.327 1_554 S
C1033 C1049 1.429 . S
C1033 H1055 0.950 . S
C1034 H1030 0.949 . S
C1034 C1042 1.574 . S
C1034 C1050 1.368 . S
H1035 C1043 0.950 . S
H1036 C1041 0.950 . S
H1037 C1042 0.949 . S
H1038 C1044 0.950 . S
H1039 C1045 0.950 . S
H1040 C1046 0.949 . S
C1041 H1036 0.950 . S
C1041 C1043 1.327 . S
C1041 C1047 1.429 . S
C1042 C1034 1.574 . S
C1042 H1037 0.949 . S
C1042 C1048 1.368 . S
C1043 C1027 1.349 . S
C1043 H1035 0.950 . S
C1043 C1041 1.327 . S
C1044 C1032 1.349 . S
C1044 H1038 0.950 . S
C1044 C1045 1.327 1_556 S
C1045 H1039 0.950 . S
C1045 C1044 1.327 1_554 S
C1045 C1049 1.429 . S
C1046 C1029 1.574 . S
C1046 H1040 0.949 . S
C1046 C1050 1.368 . S
C1047 C1028 1.429 . S
C1047 C1041 1.429 . S
C1047 C1048 1.523 . S
C1048 C1029 1.368 . S
C1048 C1042 1.368 . S
C1048 C1047 1.523 . S
C1049 C1033 1.429 . S
C1049 C1045 1.429 . S
C1049 C1050 1.523 . S
C1050 C1034 1.368 . S
C1050 C1046 1.368 . S
C1050 C1049 1.523 . S
H1051 C1026 0.950 . S
H1052 C1028 0.950 . S
H1053 C1029 0.949 . S
H1054 C1031 0.950 . S
H1055 C1033 0.950 . S
C1056 C1057 1.349 . S
C1056 C1058 1.327 1_556 S
C1056 H1081 0.950 . S
C1057 C1056 1.349 . S
C1057 C1073 1.349 . S
C1058 C1056 1.327 1_554 S
C1058 C1077 1.429 . S
C1058 H1082 0.950 . S
C1059 C1076 1.574 . S
C1059 C1078 1.368 . S
C1059 H1083 0.949 . S
H1060 C1064 0.949 . S
C1061 C1062 1.349 . S
C1061 C1063 1.327 . S
C1061 H1084 0.950 . S
C1062 C1061 1.349 . S
C1062 C1074 1.349 . S
C1063 C1061 1.327 . S
C1063 C1079 1.429 . S
C1063 H1085 0.950 . S
C1064 H1060 0.949 . S
C1064 C1072 1.574 . S
C1064 C1080 1.368 . S
H1065 C1073 0.950 . S
H1066 C1071 0.950 . S
H1067 C1072 0.949 . S
H1068 C1074 0.950 . S
H1069 C1075 0.950 . S
H1070 C1076 0.949 . S
C1071 H1066 0.950 . S
C1071 C1073 1.327 1_554 S
C1071 C1077 1.429 . S
C1072 C1064 1.574 . S
C1072 H1067 0.949 . S
C1072 C1078 1.368 . S
C1073 C1057 1.349 . S
C1073 H1065 0.950 . S
C1073 C1071 1.327 1_556 S
C1074 C1062 1.349 . S
C1074 H1068 0.950 . S
C1074 C1075 1.327 . S
C1075 H1069 0.950 . S
C1075 C1074 1.327 . S
C1075 C1079 1.429 . S
C1076 C1059 1.574 . S
C1076 H1070 0.949 . S
C1076 C1080 1.368 . S
C1077 C1058 1.429 . S
C1077 C1071 1.429 . S
C1077 C1078 1.523 . S
C1078 C1059 1.368 . S
C1078 C1072 1.368 . S
C1078 C1077 1.523 . S
C1079 C1063 1.429 . S
C1079 C1075 1.429 . S
C1079 C1080 1.523 . S
C1080 C1064 1.368 . S
C1080 C1076 1.368 . S
C1080 C1079 1.523 . S
H1081 C1056 0.950 . S
H1082 C1058 0.950 . S
H1083 C1059 0.949 . S
H1084 C1061 0.950 . S
H1085 C1063 0.950 . S
C1086 C1087 1.349 . S
C1086 C1088 1.327 . S
C1086 H1111 0.950 . S
C1087 C1086 1.349 . S
C1087 C1103 1.349 . S
C1088 C1086 1.327 . S
C1088 C1107 1.429 . S
C1088 H1112 0.950 . S
C1089 C1106 1.574 . S
C1089 C1108 1.368 . S
C1089 H1113 0.949 . S
H1090 C1094 0.949 . S
C1091 C1092 1.349 . S
C1091 C1093 1.327 1_556 S
C1091 H1114 0.950 . S
C1092 C1091 1.349 . S
C1092 C1104 1.349 . S
C1093 C1091 1.327 1_554 S
C1093 C1109 1.429 . S
C1093 H1115 0.950 . S
C1094 H1090 0.949 . S
C1094 C1102 1.574 . S
C1094 C1110 1.368 . S
H1095 C1103 0.950 . S
H1096 C1101 0.950 . S
H1097 C1102 0.949 . S
H1098 C1104 0.950 . S
H1099 C1105 0.950 . S
H1100 C1106 0.949 . S
C1101 H1096 0.950 . S
C1101 C1103 1.327 . S
C1101 C1107 1.429 . S
C1102 C1094 1.574 . S
C1102 H1097 0.949 . S
C1102 C1108 1.368 . S
C1103 C1087 1.349 . S
C1103 H1095 0.950 . S
C1103 C1101 1.327 . S
C1104 C1092 1.349 . S
C1104 H1098 0.950 . S
C1104 C1105 1.327 1_556 S
C1105 H1099 0.950 . S
C1105 C1104 1.327 1_554 S
C1105 C1109 1.429 . S
C1106 C1089 1.574 . S
C1106 H1100 0.949 . S
C1106 C1110 1.368 . S
C1107 C1088 1.429 . S
C1107 C1101 1.429 . S
C1107 C1108 1.523 . S
C1108 C1089 1.368 . S
C1108 C1102 1.368 . S
C1108 C1107 1.523 . S
C1109 C1093 1.429 . S
C1109 C1105 1.429 . S
C1109 C1110 1.523 . S
C1110 C1094 1.368 . S
C1110 C1106 1.368 . S
C1110 C1109 1.523 . S
H1111 C1086 0.950 . S
H1112 C1088 0.950 . S
H1113 C1089 0.949 . S
H1114 C1091 0.950 . S
H1115 C1093 0.950 . S
C307 C29 1.618 . S
C312 C267 1.619 . S
C337 C51 1.585 . S
C342 C289 1.586 . S
C367 C97 1.600 . S
C372 C221 1.604 . S
C397 C153 1.535 . S
C402 C85 1.534 . S
C427 C187 1.567 . S
C432 C17 1.567 . S
C457 C63 1.595 . S
C462 C119 1.598 . S
C487 C255 1.610 . S
C492 C199 1.606 . S
C517 C301 1.637 . S
C522 C131 1.637 . S
C547 C165 1.669 . S
C552 C233 1.671 . S
C577 C68 1.132 . S
C582 C8 1.135 . S
C607 C34 1.143 . S
C612 C0 1.143 . S
C637 C42 1.151 . S
C642 C76 1.151 . S
C667 C102 1.148 . S
C672 C178 1.151 . S
C697 C110 1.158 . S
C702 C136 1.155 . S
C727 C144 1.146 . S
C732 C170 1.142 . S
C757 C272 1.165 . S
C762 C212 1.168 . S
C787 C238 1.148 . S
C792 C204 1.147 . S
C817 C280 1.156 . S
C822 C246 1.156 . S
C847 C13 0.895 . S
C852 C4 0.895 . S
C877 C38 0.877 . S
C882 C47 0.877 . S
C907 C81 0.869 . S
C912 C72 0.869 . S
C937 C115 0.894 . S
C942 C106 0.894 . S
C967 C149 0.885 . S
C972 C140 0.885 . S
C997 C183 0.878 . S
C1002 C174 0.878 . S
C1027 C217 0.901 . S
C1032 C208 0.901 . S
C1057 C251 0.893 . S
C1062 C242 0.893 . S
C1087 C285 0.876 . S
C1092 C276 0.876 . S
