# Generated by pormake.
# Topology zfu, (5)-cn, num edge types: 1
# Building blocks:
#     Node 0, Type 0, BuildingBlock: XOMCOT_clean_sbu_1, # of connection points: 5
#     Node 1, Type 0, BuildingBlock: XOMCOT_clean_sbu_1, # of connection points: 5
#     Node 2, Type 0, BuildingBlock: XOMCOT_clean_sbu_1, # of connection points: 5
#     Node 3, Type 0, BuildingBlock: XOMCOT_clean_sbu_1, # of connection points: 5
#     Node 4, Type 0, BuildingBlock: XOMCOT_clean_sbu_1, # of connection points: 5
#     Node 5, Type 0, BuildingBlock: XOMCOT_clean_sbu_1, # of connection points: 5
#     Node 6, Type 0, BuildingBlock: XOMCOT_clean_sbu_1, # of connection points: 5
#     Node 7, Type 0, BuildingBlock: XOMCOT_clean_sbu_1, # of connection points: 5
#     Edge 8, Type (0, 0), BuildingBlock: TEMPAE_clean_linker_10, # of connection points: 2
#     Edge 9, Type (0, 0), BuildingBlock: TEMPAE_clean_linker_10, # of connection points: 2
#     Edge 10, Type (0, 0), BuildingBlock: TEMPAE_clean_linker_10, # of connection points: 2
#     Edge 11, Type (0, 0), BuildingBlock: TEMPAE_clean_linker_10, # of connection points: 2
#     Edge 12, Type (0, 0), BuildingBlock: TEMPAE_clean_linker_10, # of connection points: 2
#     Edge 13, Type (0, 0), BuildingBlock: TEMPAE_clean_linker_10, # of connection points: 2
#     Edge 14, Type (0, 0), BuildingBlock: TEMPAE_clean_linker_10, # of connection points: 2
#     Edge 15, Type (0, 0), BuildingBlock: TEMPAE_clean_linker_10, # of connection points: 2
#     Edge 16, Type (0, 0), BuildingBlock: TEMPAE_clean_linker_10, # of connection points: 2
#     Edge 17, Type (0, 0), BuildingBlock: TEMPAE_clean_linker_10, # of connection points: 2
#     Edge 18, Type (0, 0), BuildingBlock: TEMPAE_clean_linker_10, # of connection points: 2
#     Edge 19, Type (0, 0), BuildingBlock: TEMPAE_clean_linker_10, # of connection points: 2
#     Edge 20, Type (0, 0), BuildingBlock: TEMPAE_clean_linker_10, # of connection points: 2
#     Edge 21, Type (0, 0), BuildingBlock: TEMPAE_clean_linker_10, # of connection points: 2
#     Edge 22, Type (0, 0), BuildingBlock: TEMPAE_clean_linker_10, # of connection points: 2
#     Edge 23, Type (0, 0), BuildingBlock: TEMPAE_clean_linker_10, # of connection points: 2
#     Edge 24, Type (0, 0), BuildingBlock: TEMPAE_clean_linker_10, # of connection points: 2
#     Edge 25, Type (0, 0), BuildingBlock: TEMPAE_clean_linker_10, # of connection points: 2
#     Edge 26, Type (0, 0), BuildingBlock: TEMPAE_clean_linker_10, # of connection points: 2
#     Edge 27, Type (0, 0), BuildingBlock: TEMPAE_clean_linker_10, # of connection points: 2
# Relax obj value: 0.127
# Max RMSD: 0.160
# Mean RMSD: 0.160
data_MOF--net-zfu--node1-XOMCOT_clean_sbu_1--edge1-TEMPAE_clean_linker_10
_symmetry_space_group_name_H-M    P1
_symmetry_Int_Tables_number       1
_symmetry_cell_setting            triclinic
loop_
_symmetry_equiv_pos_as_xyz
'x, y, z'
_cell_length_a     39.686251
_cell_length_b     39.701404
_cell_length_c     27.139271
_cell_angle_alpha  89.995526
_cell_angle_beta   90.078029
_cell_angle_gamma 89.978539
loop_
_atom_site_label
_atom_site_type_symbol
_atom_site_fract_x
_atom_site_fract_y
_atom_site_fract_z
_atom_type_partial_charge
C0 C 0.44752 0.69416 0.97658 0.0
C1 C 0.46529 0.66478 0.98385 0.0
N2 N 0.49834 0.67199 0.98096 0.0
N3 N 0.46932 0.71961 0.96842 0.0
C4 C 0.5002 0.70531 0.97169 0.0
H5 H 0.4204 0.69679 0.97662 0.0
Co6 Co 0.45679 0.76396 0.95402 0.0
C7 C 0.523 0.79789 0.94262 0.0
O8 O 0.51462 0.80846 0.89839 0.0
N9 N 0.44395 0.80892 0.93951 0.0
C10 C 0.43776 0.86439 0.94689 0.0
C11 C 0.45163 0.83596 0.96746 0.0
C12 C 0.42525 0.82173 0.90203 0.0
N13 N 0.42112 0.85554 0.90554 0.0
O14 O 0.46498 0.75442 0.88598 0.0
H15 H 0.46625 0.83504 0.00111 0.0
H16 H 0.41502 0.8067 0.87244 0.0
O17 O 0.50258 0.77937 0.96671 0.0
C18 C 0.43693 0.74184 0.87192 0.0
O19 O 0.41104 0.74358 0.90194 0.0
N20 N 0.44534 0.76991 0.01974 0.0
C21 C 0.41831 0.7519 0.11014 0.0
C22 C 0.45335 0.75275 0.10345 0.0
C23 C 0.46648 0.76194 0.0577 0.0
C24 C 0.41148 0.77224 0.02697 0.0
C25 C 0.39737 0.76359 0.07221 0.0
H26 H 0.49315 0.75888 0.05146 0.0
H27 H 0.39506 0.7775 -0.00394 0.0
H28 H 0.52363 0.71879 0.96658 0.0
H29 H 0.45484 0.64008 0.99105 0.0
H30 H 0.43931 0.88955 0.96204 0.0
H31 H 0.47027 0.74401 0.13209 0.0
H32 H 0.3702 0.76298 0.07584 0.0
C33 C 0.84931 0.94414 0.24906 0.0
C34 C 0.87841 0.96159 0.25924 0.0
N35 N 0.87391 0.99408 0.24624 0.0
N36 N 0.8264 0.96539 0.22968 0.0
C37 C 0.84213 0.99561 0.22812 0.0
H38 H 0.84504 0.91759 0.25543 0.0
Co39 Co 0.78272 0.95306 0.21075 0.0
C40 C 0.74837 1.01834 0.19304 0.0
O41 O 0.73699 1.00767 0.15032 0.0
N42 N 0.73846 0.94039 0.19188 0.0
C43 C 0.68267 0.93516 0.19359 0.0
C44 C 0.71029 0.94838 0.21713 0.0
C45 C 0.72714 0.92206 0.15302 0.0
N46 N 0.69313 0.91862 0.15302 0.0
O47 O 0.79594 0.95885 0.14344 0.0
H48 H 0.70982 0.96301 0.25074 0.0
H49 H 0.74342 0.91175 0.12492 0.0
O50 O 0.76769 0.99945 0.21855 0.0
C51 C 0.81013 0.93058 0.1346 0.0
O52 O 0.80736 0.9064 0.16743 0.0
N53 N 0.77294 0.94379 0.27632 0.0
C54 C 0.78403 0.91905 0.37065 0.0
C55 C 0.78403 0.95391 0.36175 0.0
C56 C 0.77842 0.96589 0.31401 0.0
C57 C 0.76976 0.91019 0.28513 0.0
C58 C 0.77499 0.89726 0.3322 0.0
H59 H 0.78198 0.99239 0.30667 0.0
H60 H 0.76648 0.893 0.25458 0.0
H61 H 0.8303 1.01838 0.21466 0.0
H62 H 0.90126 0.95093 0.27447 0.0
H63 H 0.65688 0.9372 0.2061 0.0
H64 H 0.79068 0.97155 0.39062 0.0
H65 H 0.7751 0.87019 0.33722 0.0
C66 C 0.59807 0.34985 0.47925 0.0
C67 C 0.57703 0.37715 0.48429 0.0
N68 N 0.54502 0.36594 0.48524 0.0
N69 N 0.57948 0.32151 0.47659 0.0
C70 C 0.54713 0.3321 0.48065 0.0
H71 H 0.62525 0.3506 0.47663 0.0
Co72 Co 0.59843 0.27915 0.46488 0.0
C73 C 0.54806 0.2308 0.50408 0.0
O74 O 0.57278 0.21488 0.52602 0.0
N75 N 0.61903 0.23563 0.45141 0.0
C76 C 0.64784 0.18738 0.45891 0.0
C77 C 0.63512 0.21476 0.48335 0.0
C78 C 0.62317 0.21994 0.40716 0.0
N79 N 0.64055 0.19071 0.41093 0.0
O80 O 0.58813 0.28534 0.39673 0.0
H81 H 0.6376 0.21861 0.52256 0.0
H82 H 0.61389 0.22961 0.37248 0.0
O83 O 0.5543 0.25728 0.47866 0.0
C84 C 0.6153 0.29818 0.37988 0.0
O85 O 0.64216 0.29846 0.4082 0.0
N86 N 0.61221 0.2782 0.53051 0.0
C87 C 0.6412 0.30213 0.61718 0.0
C88 C 0.60648 0.29528 0.61496 0.0
C89 C 0.59228 0.28363 0.57077 0.0
C90 C 0.64605 0.28368 0.53294 0.0
C91 C 0.66114 0.29476 0.5761 0.0
H92 H 0.56518 0.28204 0.56771 0.0
H93 H 0.66124 0.28131 0.50009 0.0
H94 H 0.52549 0.3156 0.47876 0.0
H95 H 0.58463 0.40327 0.48704 0.0
H96 H 0.66229 0.167 0.475 0.0
H97 H 0.59017 0.30132 0.64567 0.0
H98 H 0.68803 0.29945 0.57632 0.0
C99 C 0.1868 0.09583 0.72713 0.0
C100 C 0.15844 0.07632 0.7332 0.0
N101 N 0.16779 0.04371 0.73252 0.0
N102 N 0.21389 0.07563 0.72213 0.0
C103 C 0.2015 0.04394 0.72583 0.0
H104 H 0.18764 0.12304 0.72589 0.0
Co105 Co 0.25775 0.09069 0.70988 0.0
C106 C 0.29548 0.02669 0.70144 0.0
O107 O 0.30595 0.03548 0.65736 0.0
N108 N 0.30234 0.10595 0.69773 0.0
C109 C 0.3569 0.11554 0.71053 0.0
C110 C 0.32869 0.09951 0.72784 0.0
C111 C 0.31545 0.12598 0.66197 0.0
N112 N 0.34863 0.13234 0.66915 0.0
O113 O 0.25064 0.08108 0.64162 0.0
H114 H 0.32739 0.08427 0.76083 0.0
H115 H 0.30098 0.13639 0.63184 0.0
O116 O 0.27551 0.04608 0.7249 0.0
C117 C 0.23748 0.10844 0.6259 0.0
O118 O 0.23676 0.13462 0.65547 0.0
N119 N 0.26139 0.10369 0.77531 0.0
C120 C 0.24873 0.13262 0.86674 0.0
C121 C 0.24969 0.0974 0.86136 0.0
C122 C 0.25594 0.08333 0.815 0.0
C123 C 0.26234 0.13776 0.78039 0.0
C124 C 0.2563 0.15277 0.82581 0.0
H125 H 0.25395 0.05638 0.8104 0.0
H126 H 0.2655 0.15349 0.74819 0.0
H127 H 0.21667 1.0214 0.72268 0.0
H128 H 0.13293 0.08538 0.73818 0.0
H129 H 0.38174 0.11465 0.72701 0.0
H130 H 0.24408 0.08095 0.8921 0.0
H131 H 0.25517 0.17999 0.82785 0.0
C132 C 0.94142 0.84936 0.80025 0.0
C133 C 0.96175 0.87715 0.79534 0.0
N134 N 0.99373 0.86654 0.78974 0.0
N135 N 0.96045 0.82128 0.79825 0.0
C136 C 0.99234 0.83252 0.79143 0.0
H137 H 0.91446 0.84954 0.806 0.0
Co138 Co 0.94215 0.77856 0.80842 0.0
C139 C 0.9916 0.73183 0.76363 0.0
O140 O 0.96609 0.7181 0.74048 0.0
N141 N 0.92217 0.73461 0.82042 0.0
C142 C 0.89338 0.68642 0.81229 0.0
C143 C 0.90534 0.71439 0.78843 0.0
C144 C 0.9194 0.71787 0.86405 0.0
N145 N 0.90198 0.68874 0.85994 0.0
O146 O 0.95342 0.78341 0.87648 0.0
H147 H 0.90169 0.71916 0.74964 0.0
H148 H 0.92962 0.72675 0.89861 0.0
O149 O 0.98625 0.75692 0.7924 0.0
C150 C 0.92631 0.79489 0.89554 0.0
O151 O 0.89863 0.7946 0.86895 0.0
N152 N 0.92736 0.77911 0.74311 0.0
C153 C 0.89699 0.80375 0.65776 0.0
C154 C 0.93186 0.79765 0.65913 0.0
C155 C 0.94674 0.78576 0.70267 0.0
C156 C 0.89342 0.78424 0.7417 0.0
C157 C 0.87766 0.79569 0.6992 0.0
H158 H 0.9739 0.78474 0.70506 0.0
H159 H 0.87866 0.78114 0.77484 0.0
H160 H 1.0142 0.81629 0.78917 0.0
H161 H 0.9537 0.90321 0.79588 0.0
H162 H 0.87845 0.66643 0.79617 0.0
H163 H 0.94775 0.80437 0.62825 0.0
H164 H 0.85069 0.79992 0.69971 0.0
C165 C 0.69363 0.44219 0.03716 0.0
C166 C 0.66465 0.46052 0.02931 0.0
N167 N 0.67217 0.49337 0.03449 0.0
N168 N 0.71913 0.4634 0.04796 0.0
C169 C 0.70527 0.49452 0.04571 0.0
H170 H 0.69596 0.41507 0.03553 0.0
Co171 Co 0.76309 0.45004 0.06345 0.0
C172 C 0.79893 0.51454 0.07923 0.0
O173 O 0.81098 0.50365 0.12145 0.0
N174 N 0.80771 0.4364 0.07887 0.0
C175 C 0.86338 0.43081 0.07332 0.0
C176 C 0.83512 0.44434 0.05182 0.0
C177 C 0.82013 0.41767 0.1166 0.0
N178 N 0.85404 0.41404 0.11423 0.0
O179 O 0.75247 0.4565 0.13157 0.0
H180 H 0.83463 0.45927 0.01848 0.0
H181 H 0.8048 0.40729 0.14576 0.0
O182 O 0.77894 0.49596 0.05441 0.0
C183 C 0.739 0.42843 0.14345 0.0
O184 O 0.74075 0.40332 0.11201 0.0
N185 N 0.77016 0.44037 -0.00262 0.0
C186 C 0.75607 0.41575 0.90386 0.0
C187 C 0.75688 0.45061 0.91263 0.0
C188 C 0.76404 0.46252 0.95996 0.0
C189 C 0.77226 0.40669 0.98859 0.0
C190 C 0.76556 0.39381 0.9419 0.0
H191 H 0.76135 0.48913 0.96737 0.0
H192 H 0.77604 0.38949 0.01901 0.0
H193 H 0.71891 0.51761 0.05285 0.0
H194 H 0.64005 0.45059 0.02 0.0
H195 H 0.88883 0.43285 0.05938 0.0
H196 H 0.74987 0.46834 0.88406 0.0
H197 H 0.76482 0.36675 0.93694 0.0
C198 C 0.10588 0.19317 0.27297 0.0
C199 C 0.08806 0.16409 0.26384 0.0
N200 N 0.05527 0.16975 0.27408 0.0
N201 N 0.08451 0.21719 0.28881 0.0
C202 C 0.05393 0.20215 0.28945 0.0
H203 H 0.13271 0.19668 0.26829 0.0
Co204 Co 0.09632 0.26138 0.30546 0.0
C205 C 0.02905 0.29293 0.3158 0.0
O206 O 0.03611 0.30148 0.36143 0.0
N207 N 0.10825 0.30619 0.32204 0.0
C208 C 0.11372 0.36171 0.31465 0.0
C209 C 0.09863 0.33343 0.29578 0.0
C210 C 0.12932 0.31874 0.35698 0.0
N211 N 0.13323 0.35255 0.35302 0.0
O212 O 0.08667 0.25067 0.37263 0.0
H213 H 0.08221 0.33271 0.26396 0.0
H214 H 0.14247 0.3034 0.38373 0.0
O215 O 0.0506 0.2763 0.29084 0.0
C216 C 0.1143 0.23743 0.38714 0.0
O217 O 0.1406 0.23906 0.35787 0.0
N218 N 0.10948 0.26877 0.24067 0.0
C219 C 0.14091 0.25411 0.15199 0.0
C220 C 0.10561 0.25344 0.1555 0.0
C221 C 0.09023 0.26087 0.20058 0.0
C222 C 0.14341 0.2728 0.23646 0.0
C223 C 0.15964 0.26592 0.19222 0.0
H224 H 0.0635 0.25654 0.20456 0.0
H225 H 0.15838 0.27812 0.26885 0.0
H226 H 0.03104 0.2149 0.30029 0.0
H227 H 0.09862 0.1405 0.25121 0.0
H228 H 0.1106 0.38713 0.30098 0.0
H229 H 0.09032 0.24419 0.12532 0.0
H230 H 0.18689 0.26719 0.19072 0.0
C231 C 0.35629 0.59601 0.54073 0.0
C232 C 0.38296 0.57415 0.53657 0.0
N233 N 0.37088 0.54248 0.53745 0.0
N234 N 0.32744 0.57833 0.54474 0.0
C235 C 0.3371 0.54562 0.54224 0.0
H236 H 0.35781 0.6232 0.54166 0.0
Co237 Co 0.28586 0.59948 0.5542 0.0
C238 C 0.23344 0.54919 0.52375 0.0
O239 O 0.21371 0.57381 0.50968 0.0
N240 N 0.24344 0.62304 0.56476 0.0
C241 C 0.19916 0.6567 0.55171 0.0
C242 C 0.22529 0.63985 0.53022 0.0
C243 C 0.22702 0.6305 0.60754 0.0
N244 N 0.20031 0.65136 0.60054 0.0
O245 O 0.29072 0.59109 0.62325 0.0
H246 H 0.22979 0.63956 0.49102 0.0
H247 H 0.23499 0.62177 0.64344 0.0
O248 O 0.26244 0.55582 0.54225 0.0
C249 C 0.30466 0.61799 0.63919 0.0
O250 O 0.30626 0.64415 0.60968 0.0
N251 N 0.28619 0.61092 0.4879 0.0
C252 C 0.30947 0.63575 0.39841 0.0
C253 C 0.29906 0.602 0.40253 0.0
C254 C 0.28769 0.58985 0.44818 0.0
C255 C 0.29528 0.64385 0.48375 0.0
C256 C 0.30606 0.65696 0.43924 0.0
H257 H 0.28277 0.56324 0.4524 0.0
H258 H 0.29547 0.65978 0.51604 0.0
H259 H 0.31999 0.52452 0.54508 0.0
H260 H 0.40926 0.58095 0.53298 0.0
H261 H 0.18042 0.67153 0.53245 0.0
H262 H 0.30184 0.58475 0.37189 0.0
H263 H 0.31337 0.68323 0.43755 0.0
C264 C 0.65784 0.54842 -0.00181 0.0
C265 C 0.64939 0.52127 0.02869 0.0
C266 C 0.63471 0.57463 0.9894 0.0
C267 C 0.60287 0.5741 0.01304 0.0
C268 C 0.59487 0.54726 0.04542 0.0
C269 C 0.61801 0.52087 0.05213 0.0
C270 C 0.64386 0.60216 0.95349 0.0
C271 C 0.56172 0.54621 0.07261 0.0
C272 C 0.55117 0.65488 0.02143 0.0
C273 C 0.52576 0.64869 0.9868 0.0
C274 C 0.57665 0.63097 0.03023 0.0
C275 C 0.57725 0.60071 0.00247 0.0
C276 C 0.55227 0.59511 0.96598 0.0
C277 C 0.52647 0.61891 0.95927 0.0
C278 C 0.60211 0.63748 0.07048 0.0
C279 C 0.55254 0.56379 0.93444 0.0
H280 H 0.68207 0.54842 0.97983 0.0
H281 H 0.61176 0.49991 0.07601 0.0
H282 H 0.62618 0.60165 0.92178 0.0
H283 H 0.64135 0.6272 0.9712 0.0
H284 H 0.66999 0.59947 0.93935 0.0
H285 H 0.56057 0.52514 0.0995 0.0
H286 H 0.55759 0.57026 0.09257 0.0
H287 H 0.54071 0.54326 0.04597 0.0
H288 H 0.55026 0.67789 0.04289 0.0
H289 H 0.50681 0.61443 0.93228 0.0
H290 H 0.62807 0.63571 0.05563 0.0
H291 H 0.59968 0.61794 0.0995 0.0
H292 H 0.59879 0.66265 0.08769 0.0
H293 H 0.57766 0.56045 0.91721 0.0
H294 H 0.53315 0.56467 0.90489 0.0
H295 H 0.54776 0.54132 0.95769 0.0
C296 C 0.02992 0.1189 0.23635 0.0
C297 C 0.02763 0.14618 0.26914 0.0
C298 C 1.00375 0.09526 0.23198 0.0
C299 C 0.97431 0.09892 0.2609 0.0
C300 C 0.97146 0.1267 0.29338 0.0
C301 C 0.99814 0.14992 0.29719 0.0
C302 C 1.00784 0.06604 0.19685 0.0
C303 C 0.94048 0.13157 0.32479 0.0
C304 C 0.8965 0.04966 0.22047 0.0
C305 C 0.89812 1.02117 0.25108 0.0
C306 C 0.92068 0.0755 0.22387 0.0
C307 C 0.94724 0.07281 0.25859 0.0
C308 C 0.94867 0.04446 0.29015 0.0
C309 C 0.92412 1.01914 0.28613 0.0
C310 C 0.91815 0.10539 0.18968 0.0
C311 C 0.97649 0.04058 0.32777 0.0
H312 H 0.0522 0.11604 0.21377 0.0
H313 H 0.99611 0.17061 0.32298 0.0
H314 H 1.00719 0.04198 0.21762 0.0
H315 H 0.98661 0.06554 0.17022 0.0
H316 H 0.03186 0.06729 0.17596 0.0
H317 H 0.94134 0.15541 0.34618 0.0
H318 H 0.91756 0.13171 0.30134 0.0
H319 H 0.93797 0.11025 0.35095 0.0
H320 H 0.87677 0.05146 0.19301 0.0
H321 H 0.9253 0.99771 0.31071 0.0
H322 H 0.94045 0.10609 0.16508 0.0
H323 H 0.91815 0.12914 0.21123 0.0
H324 H 0.89505 0.10462 0.16655 0.0
H325 H 1.00125 0.03955 0.30888 0.0
H326 H 0.97357 1.01745 0.35039 0.0
H327 H 0.97695 0.06271 0.35271 0.0
C328 C 0.48927 0.37775 0.52197 0.0
C329 C 0.51523 0.38652 0.48945 0.0
C330 C 0.46212 0.39988 0.53065 0.0
C331 C 0.4606 0.43111 0.50531 0.0
C332 C 0.48584 0.43901 0.47027 0.0
C333 C 0.513 0.41686 0.46329 0.0
C334 C 0.43614 0.39065 0.56887 0.0
C335 C 0.48489 0.47154 0.44144 0.0
C336 C 0.38162 0.48616 0.50186 0.0
C337 C 0.39077 0.51219 0.53408 0.0
C338 C 0.40347 0.45876 0.49331 0.0
C339 C 0.43481 0.45711 0.51846 0.0
C340 C 0.44304 0.48239 0.55331 0.0
C341 C 0.42115 0.50976 0.56018 0.0
C342 C 0.39389 0.43273 0.45533 0.0
C343 C 0.47568 0.48132 0.58193 0.0
H344 H 0.49111 0.35435 0.54236 0.0
H345 H 0.53287 0.42339 0.43767 0.0
H346 H 0.4392 0.40721 0.60151 0.0
H347 H 0.41032 0.39471 0.55437 0.0
H348 H 0.43857 0.36403 0.58101 0.0
H349 H 0.50428 0.47223 0.41197 0.0
H350 H 0.45971 0.47511 0.4244 0.0
H351 H 0.4893 0.49309 0.46666 0.0
H352 H 0.35821 0.48819 0.48146 0.0
H353 H 0.42799 0.52973 0.58551 0.0
H354 H 0.39804 0.40693 0.46981 0.0
H355 H 0.41018 0.43571 0.42241 0.0
H356 H 0.36716 0.43517 0.44363 0.0
H357 H 0.47921 0.45617 0.59901 0.0
H358 H 0.4766 0.50075 0.61135 0.0
H359 H 0.49716 0.48557 0.55655 0.0
C360 C 0.04699 0.8812 0.74783 0.0
C361 C 0.02287 0.88785 0.78419 0.0
C362 C 0.07324 0.9042 0.73835 0.0
C363 C 0.07576 0.93411 0.76674 0.0
C364 C 0.05239 0.93989 0.80525 0.0
C365 C 0.02605 0.91693 0.81305 0.0
C366 C 0.09721 0.89731 0.69644 0.0
C367 C 0.05454 0.97093 0.83728 0.0
C368 C 0.15578 0.98745 0.76729 0.0
C369 C 0.14602 1.01489 0.73804 0.0
C370 C 0.13353 0.96049 0.77614 0.0
C371 C 0.10107 0.96065 0.75424 0.0
C372 C 0.09177 0.98768 0.7229 0.0
C373 C 0.11417 1.01461 0.71571 0.0
C374 C 0.14423 0.9326 0.81057 0.0
C375 C 0.05778 0.98857 0.69786 0.0
H376 H 0.04434 0.8588 0.72533 0.0
H377 H 1.00757 0.92182 0.84154 0.0
H378 H 0.09318 0.9162 0.66686 0.0
H379 H 0.12369 0.89985 0.70901 0.0
H380 H 0.09366 0.87175 0.68059 0.0
H381 H 0.03648 0.97009 0.86849 0.0
H382 H 0.08041 0.97377 0.85229 0.0
H383 H 0.04906 0.99365 0.81486 0.0
H384 H 0.18032 0.98779 0.78483 0.0
H385 H 0.10682 0.03562 0.69257 0.0
H386 H 0.1404 0.90769 0.79296 0.0
H387 H 0.12834 0.93322 0.84418 0.0
H388 H 0.17106 0.93489 0.82178 0.0
H389 H 0.05317 0.96458 0.678 0.0
H390 H 0.05561 1.00973 0.67125 0.0
H391 H 0.03766 0.99131 0.72591 0.0
C392 C 0.35577 0.66862 0.35964 0.0
C393 C 0.32676 0.64878 0.35393 0.0
C394 C 0.37098 0.6843 0.3193 0.0
C395 C 0.35724 0.67956 0.27175 0.0
C396 C 0.32892 0.65826 0.26522 0.0
C397 C 0.3139 0.64308 0.30657 0.0
C398 C 0.40121 0.70671 0.32783 0.0
C399 C 0.314 0.65224 0.21481 0.0
C400 C 0.37613 0.74819 0.17846 0.0
C401 C 0.40346 0.73429 0.15298 0.0
C402 C 0.36049 0.73039 0.21679 0.0
C403 C 0.37223 0.69779 0.22935 0.0
C404 C 0.39963 0.68353 0.2034 0.0
C405 C 0.41502 0.70203 0.16566 0.0
C406 C 0.33164 0.74659 0.24421 0.0
C407 C 0.41266 0.64874 0.21546 0.0
H408 H 0.36636 0.67235 0.39609 0.0
H409 H 0.29156 0.62768 0.30205 0.0
H410 H 0.42278 0.69801 0.30524 0.0
H411 H 0.39526 0.73284 0.31615 0.0
H412 H 0.40913 0.7072 0.36711 0.0
H413 H 0.29345 0.63326 0.21556 0.0
H414 H 0.30375 0.67619 0.19998 0.0
H415 H 0.33382 0.64355 0.18896 0.0
H416 H 0.36712 0.77306 0.1685 0.0
H417 H 0.43564 0.69089 0.14516 0.0
H418 H 0.33839 0.7495 0.28368 0.0
H419 H 0.30903 0.73021 0.24244 0.0
H420 H 0.32502 0.77175 0.2291 0.0
H421 H 0.42221 0.64811 0.25388 0.0
H422 H 0.43329 0.64077 0.19041 0.0
H423 H 0.3919 0.63011 0.21294 0.0
C424 C 0.82881 0.91767 0.43536 0.0
C425 C 0.79833 0.90497 0.41682 0.0
C426 C 0.84535 0.90191 0.47481 0.0
C427 C 0.83108 0.87273 0.49621 0.0
C428 C 0.79988 0.86028 0.47857 0.0
C429 C 0.78388 0.87656 0.43904 0.0
C430 C 0.87855 0.91596 0.49268 0.0
C431 C 0.78375 0.82939 0.50083 0.0
C432 C 0.88809 0.81269 0.56698 0.0
C433 C 0.88098 0.82163 0.6158 0.0
C434 C 0.87212 0.82921 0.52753 0.0
C435 C 0.84868 0.85532 0.53732 0.0
C436 C 0.84191 0.86481 0.58651 0.0
C437 C 0.8582 0.84794 0.62507 0.0
C438 C 0.88002 0.81853 0.47543 0.0
C439 C 0.81735 0.89272 0.59845 0.0
H440 H 0.8405 0.93918 0.4177 0.0
H441 H 0.76029 0.86673 0.42491 0.0
H442 H 0.87725 0.92136 0.53273 0.0
H443 H 0.89878 0.89703 0.48723 0.0
H444 H 0.88572 0.93944 0.47306 0.0
H445 H 0.75917 0.82327 0.48337 0.0
H446 H 0.8008 0.80742 0.49665 0.0
H447 H 0.77972 0.83323 0.54088 0.0
H448 H 0.90566 0.79238 0.5597 0.0
H449 H 0.85322 0.85554 0.66273 0.0
H450 H 0.88936 0.84039 0.45397 0.0
H451 H 0.85675 0.80946 0.45704 0.0
H452 H 0.89924 0.7982 0.47403 0.0
H453 H 0.82552 0.91651 0.58068 0.0
H454 H 0.81502 0.89711 0.63873 0.0
H455 H 0.79208 0.88646 0.5835 0.0
C456 C 0.70999 0.41481 0.84114 0.0
C457 C 0.74077 0.4019 0.85828 0.0
C458 C 0.69273 0.39937 0.80209 0.0
C459 C 0.70662 0.37037 0.77962 0.0
C460 C 0.73807 0.3577 0.79594 0.0
C461 C 0.75475 0.3736 0.83516 0.0
C462 C 0.65926 0.41362 0.78566 0.0
C463 C 0.75385 0.32705 0.77243 0.0
C464 C 0.64958 0.31074 0.70818 0.0
C465 C 0.65648 0.32021 0.65951 0.0
C466 C 0.66545 0.32712 0.74785 0.0
C467 C 0.68855 0.35358 0.73842 0.0
C468 C 0.69489 0.36375 0.68941 0.0
C469 C 0.67869 0.34706 0.65064 0.0
C470 C 0.65795 0.31579 0.79978 0.0
C471 C 0.71913 0.392 0.67782 0.0
H472 H 0.69871 0.43625 0.85953 0.0
H473 H 0.77857 0.36362 0.84824 0.0
H474 H 0.66004 0.41972 0.74579 0.0
H475 H 0.63916 0.39455 0.79094 0.0
H476 H 0.65228 0.43675 0.80632 0.0
H477 H 0.77858 0.32058 0.78916 0.0
H478 H 0.73677 0.30509 0.77629 0.0
H479 H 0.75751 0.33145 0.73242 0.0
H480 H 0.63242 0.29005 0.71513 0.0
H481 H 0.68344 0.35508 0.61311 0.0
H482 H 0.64905 0.33742 0.82213 0.0
H483 H 0.68133 0.30622 0.81736 0.0
H484 H 0.63856 0.29563 0.80097 0.0
H485 H 0.71114 0.41542 0.6968 0.0
H486 H 0.72084 0.39716 0.63767 0.0
H487 H 0.74464 0.38555 0.69169 0.0
C488 C 0.20758 0.13556 0.93643 0.0
C489 C 0.23608 0.14864 0.91261 0.0
C490 C 0.1926 0.15272 0.97592 0.0
C491 C 0.2063 0.18382 0.99171 0.0
C492 C 0.23557 0.19671 0.96875 0.0
C493 C 0.25021 0.17888 0.92964 0.0
C494 C 0.1616 0.138 -0.0001 0.0
C495 C 0.25097 0.22973 0.98478 0.0
C496 C 0.14838 0.24339 0.06139 0.0
C497 C 0.15841 0.23767 0.11018 0.0
C498 C 0.16408 0.22635 0.02226 0.0
C499 C 0.19004 0.2028 0.03242 0.0
C500 C 0.20021 0.19697 0.08161 0.0
C501 C 0.18431 0.21449 0.11983 0.0
C502 C 0.15276 0.23332 0.97013 0.0
C503 C 0.22746 0.17175 0.09399 0.0
H504 H 0.19614 0.11253 0.92301 0.0
H505 H 0.27243 0.18893 0.91174 0.0
H506 H 0.16561 0.13545 0.04019 0.0
H507 H 0.13987 0.1552 0.99449 0.0
H508 H 0.15496 0.1129 0.98463 0.0
H509 H 0.27398 0.23609 0.96345 0.0
H510 H 0.23236 0.25035 0.98007 0.0
H511 H 0.25761 0.22869 0.02447 0.0
H512 H 0.12834 0.26124 0.05389 0.0
H513 H 0.19159 0.20934 0.15761 0.0
H514 H 0.14293 0.20988 0.95315 0.0
H515 H 0.1745 0.24173 0.9476 0.0
H516 H 0.1328 0.25291 0.96839 0.0
H517 H 0.21979 0.14629 0.08137 0.0
H518 H 0.23281 0.17062 0.13415 0.0
H519 H 0.25108 0.17827 0.0744 0.0
C520 C 0.31676 0.63615 0.72431 0.0
C521 C 0.32705 0.61865 0.68226 0.0
C522 C 0.34059 0.65082 0.75611 0.0
C523 C 0.37537 0.64909 0.7442 0.0
C524 C 0.3859 0.62902 0.704 0.0
C525 C 0.36154 0.61359 0.67397 0.0
C526 C 0.32831 0.67074 0.79991 0.0
C527 C 0.42249 0.62685 0.68922 0.0
C528 C 0.41914 0.72885 0.78677 0.0
C529 C 0.434 0.71807 0.83073 0.0
C530 C 0.40258 0.70583 0.7557 0.0
C531 C 0.39976 0.67157 0.77014 0.0
C532 C 0.41713 0.66022 0.81255 0.0
C533 C 0.43442 0.68362 0.84198 0.0
C534 C 0.38556 0.7188 0.70968 0.0
C535 C 0.41448 0.62421 0.82997 0.0
H536 H 0.29012 0.64072 0.73011 0.0
H537 H 0.36951 0.60057 0.64095 0.0
H538 H 0.34391 0.66518 0.8329 0.0
H539 H 0.33064 0.69807 0.79203 0.0
H540 H 0.30153 0.66519 0.80858 0.0
H541 H 0.42713 0.60571 0.66327 0.0
H542 H 0.42986 0.65068 0.67076 0.0
H543 H 0.43901 0.62372 0.72187 0.0
H544 H 0.41811 0.75559 0.77868 0.0
H545 H 0.44537 0.67538 0.87651 0.0
H546 H 0.35793 0.71988 0.71564 0.0
H547 H 0.39026 0.70156 0.67824 0.0
H548 H 0.39445 0.74443 0.69964 0.0
H549 H 0.3894 0.62032 0.8471 0.0
H550 H 0.43413 0.61806 0.85777 0.0
H551 H 0.41663 0.60631 0.79877 0.0
C552 C 0.82483 0.91768 0.0476 0.0
C553 C 0.83517 0.92564 0.09543 0.0
C554 C 0.84667 0.90048 0.01539 0.0
C555 C 0.87917 0.8906 0.03203 0.0
C556 C 0.89059 0.90142 0.07878 0.0
C557 C 0.86842 0.91886 0.10987 0.0
C558 C 0.83378 0.89014 0.9653 0.0
C559 C 0.92485 0.89152 0.0982 0.0
C560 C 0.9043 0.80611 0.97847 0.0
C561 C 0.92576 0.81571 0.94017 0.0
C562 C 0.89102 0.83012 0.01105 0.0
C563 C 0.8986 0.8647 0.00407 0.0
C564 C 0.9224 0.87416 0.96777 0.0
C565 C 0.93599 0.8494 0.93649 0.0
C566 C 0.86661 0.81868 0.05028 0.0
C567 C 0.93105 0.91064 0.95869 0.0
H568 H 0.79891 0.92231 0.03687 0.0
H569 H 0.87618 0.9246 0.14728 0.0
H570 H 0.85325 0.8946 0.93672 0.0
H571 H 0.82805 0.86278 0.96547 0.0
H572 H 0.81051 0.90401 0.95496 0.0
H573 H 0.93221 0.90681 0.13078 0.0
H574 H 0.92434 0.86463 0.10932 0.0
H575 H 0.94442 0.89432 0.06937 0.0
H576 H 0.89579 0.78018 0.9805 0.0
H577 H 0.95196 0.85694 0.90605 0.0
H578 H 0.84076 0.82698 0.04041 0.0
H579 H 0.87305 0.83024 0.0863 0.0
H580 H 0.86648 0.79085 0.05457 0.0
H581 H 0.90975 0.92298 0.93924 0.0
H582 H 0.95401 0.91334 0.93563 0.0
H583 H 0.93496 0.92427 0.99391 0.0
C584 C 0.72516 0.41306 0.22959 0.0
C585 C 0.71456 0.42501 0.1837 0.0
C586 C 0.70233 0.39686 0.26136 0.0
C587 C 0.66851 0.39169 0.24594 0.0
C588 C 0.6572 0.40626 0.20135 0.0
C589 C 0.68038 0.42296 0.17096 0.0
C590 C 0.71518 0.38266 0.30943 0.0
C591 C 0.62163 0.40119 0.18306 0.0
C592 C 0.63531 0.3089 0.29561 0.0
C593 C 0.6164 0.3197 0.33603 0.0
C594 C 0.65008 0.33228 0.26337 0.0
C595 C 0.64676 0.36726 0.27299 0.0
C596 C 0.62538 0.37819 0.31152 0.0
C597 C 0.61014 0.35417 0.3423 0.0
C598 C 0.6717 0.31946 0.22165 0.0
C599 C 0.62134 0.41508 0.32357 0.0
H600 H 0.75172 0.41397 0.23892 0.0
H601 H 0.67231 0.43168 0.13501 0.0
H602 H 0.69715 0.38801 0.33966 0.0
H603 H 0.71758 0.3549 0.30626 0.0
H604 H 0.7402 0.39317 0.31951 0.0
H605 H 0.61522 0.41888 0.15273 0.0
H606 H 0.61894 0.37507 0.16901 0.0
H607 H 0.60315 0.40448 0.21329 0.0
H608 H 0.64086 0.28228 0.29157 0.0
H609 H 0.59618 0.36253 0.37435 0.0
H610 H 0.69865 0.32386 0.23046 0.0
H611 H 0.66592 0.33328 0.18711 0.0
H612 H 0.66801 0.29208 0.21511 0.0
H613 H 0.64447 0.42415 0.34238 0.0
H614 H 0.59952 0.41963 0.34829 0.0
H615 H 0.6181 0.43029 0.28962 0.0
C616 C 0.12853 0.22272 0.47328 0.0
C617 C 0.11608 0.21277 0.42736 0.0
C618 C 0.1436 0.19914 0.50512 0.0
C619 C 0.14712 0.16511 0.48982 0.0
C620 C 0.13205 0.15457 0.44514 0.0
C621 C 0.11653 0.17855 0.41457 0.0
C622 C 0.15846 0.21131 0.55314 0.0
C623 C 0.13532 0.11878 0.42705 0.0
C624 C 0.228 0.12803 0.54089 0.0
C625 C 0.21613 0.11031 0.58182 0.0
C626 C 0.20547 0.14358 0.50798 0.0
C627 C 0.17032 0.14217 0.5173 0.0
C628 C 0.1582 0.12191 0.55635 0.0
C629 C 0.18134 0.106 0.58798 0.0
C630 C 0.21951 0.16407 0.46589 0.0
C631 C 0.1211 0.11981 0.568 0.0
H632 H 0.12894 0.24928 0.48256 0.0
H633 H 0.10759 0.17103 0.37844 0.0
H634 H 0.15201 0.19377 0.58353 0.0
H635 H 0.18634 0.21203 0.55013 0.0
H636 H 0.14943 0.23694 0.56293 0.0
H637 H 0.11734 0.11326 0.39668 0.0
H638 H 0.16129 0.1147 0.41313 0.0
H639 H 0.13105 0.10056 0.45738 0.0
H640 H 0.25489 0.13211 0.53692 0.0
H641 H 0.17217 0.093 0.62044 0.0
H642 H 0.21653 0.19129 0.4741 0.0
H643 H 0.20547 0.15873 0.43138 0.0
H644 H 0.24667 0.15885 0.45963 0.0
H645 H 0.11301 0.14358 0.58596 0.0
H646 H 0.11539 0.09858 0.59332 0.0
H647 H 0.10594 0.11683 0.53391 0.0
C648 C 0.40988 0.9124 0.87152 0.0
C649 C 0.40256 0.87778 0.87286 0.0
C650 C 0.39139 0.93469 0.8417 0.0
C651 C 0.36491 0.92222 0.8118 0.0
C652 C 0.35769 0.88726 0.81212 0.0
C653 C 0.3765 0.86551 0.84266 0.0
C654 C 0.40004 0.97173 0.84254 0.0
C655 C 0.32979 0.87291 0.78066 0.0
C656 C 0.29939 0.98754 0.774 0.0
C657 C 0.31071 0.99716 0.72705 0.0
C658 C 0.31597 0.96229 0.80115 0.0
C659 C 0.34464 0.9461 0.781 0.0
C660 C 0.35531 0.95464 0.73278 0.0
C661 C 0.33824 0.98001 0.70642 0.0
C662 C 0.30359 0.95393 0.85229 0.0
C663 C 0.38564 0.93796 0.70977 0.0
H664 H 0.43029 0.92224 0.89373 0.0
H665 H 0.37029 0.83897 0.84353 0.0
H666 H 0.40662 0.9804 0.80491 0.0
H667 H 0.37784 0.98655 0.85469 0.0
H668 H 0.42147 0.97742 0.86757 0.0
H669 H 0.32815 0.84504 0.78355 0.0
H670 H 0.30528 0.88388 0.79197 0.0
H671 H 0.3338 0.87977 0.74148 0.0
H672 H 0.27797 1.00032 0.79018 0.0
H673 H 0.34723 0.98713 0.6702 0.0
H674 H 0.3228 0.9616 0.87983 0.0
H675 H 0.29991 0.92637 0.85616 0.0
H676 H 0.27951 0.96685 0.86116 0.0
H677 H 0.40869 0.94516 0.73043 0.0
H678 H 0.38899 0.94525 0.67056 0.0
H679 H 0.38332 0.91016 0.712 0.0
C680 C 0.57204 0.83806 0.94677 0.0
C681 C 0.55332 0.81179 0.96798 0.0
C682 C 0.5979 0.85434 0.97323 0.0
C683 C 0.60522 0.84424 0.02219 0.0
C684 C 0.58757 0.81664 0.04282 0.0
C685 C 0.56202 0.80072 0.01547 0.0
C686 C 0.61628 0.88341 0.94958 0.0
C687 C 0.59446 0.80495 0.09482 0.0
C688 C 0.68457 0.8744 0.0892 0.0
C689 C 0.67192 0.901 0.11791 0.0
C690 C 0.66344 0.85612 0.05702 0.0
C691 C 0.62878 0.86448 0.05355 0.0
C692 C 0.61609 0.89174 0.08157 0.0
C693 C 0.63775 0.90968 0.11301 0.0
C694 C 0.67805 0.82742 0.0275 0.0
C695 C 0.57936 0.90165 0.07909 0.0
H696 H 0.56572 0.84679 0.91007 0.0
H697 H 0.54815 0.78017 0.03206 0.0
H698 H 0.60897 0.90726 0.96801 0.0
H699 H 0.6439 0.88045 0.95421 0.0
H700 H 0.61049 0.88568 0.90966 0.0
H701 H 0.58064 0.78144 0.10401 0.0
H702 H 0.62181 0.80053 0.10023 0.0
H703 H 0.58673 0.82487 0.12118 0.0
H704 H 0.71079 0.86727 0.09272 0.0
H705 H 0.62773 0.93061 0.1339 0.0
H706 H 0.67198 0.83064 0.98786 0.0
H707 H 0.66659 0.80332 0.03955 0.0
H708 H 0.70584 0.82552 0.03171 0.0
H709 H 0.5722 0.90761 0.04054 0.0
H710 H 0.57355 0.92382 0.10256 0.0
H711 H 0.5634 0.88026 0.09123 0.0
C712 C 0.75009 0.06439 0.25617 0.0
C713 C 0.73367 0.04884 0.21643 0.0
C714 C 0.73449 0.09034 0.28308 0.0
C715 C 0.7013 0.10058 0.27074 0.0
C716 C 0.6851 0.08584 0.22947 0.0
C717 C 0.7016 0.0604 0.20255 0.0
C718 C 0.75302 0.10576 0.32614 0.0
C719 C 0.64956 0.0955 0.21549 0.0
C720 C 0.65069 0.13351 0.37949 0.0
C721 C 0.6519 0.16845 0.37238 0.0
C722 C 0.66541 0.11122 0.3456 0.0
C723 C 0.68255 0.12416 0.30392 0.0
C724 C 0.68304 0.15946 0.29577 0.0
C725 C 0.66738 0.18119 0.32989 0.0
C726 C 0.66349 0.07381 0.35531 0.0
C727 C 0.70146 0.17436 0.25234 0.0
H728 H 0.77494 0.05573 0.26698 0.0
H729 H 0.68857 0.04834 0.17218 0.0
H730 H 0.75189 0.13365 0.32413 0.0
H731 H 0.74074 0.09805 0.36106 0.0
H732 H 0.77987 0.09786 0.32749 0.0
H733 H 0.64169 0.08418 0.17985 0.0
H734 H 0.63194 0.08685 0.24458 0.0
H735 H 0.64709 0.12326 0.21287 0.0
H736 H 0.63857 0.1237 0.41224 0.0
H737 H 0.66869 0.20823 0.32472 0.0
H738 H 0.68907 0.06383 0.36303 0.0
H739 H 0.6538 0.06049 0.32226 0.0
H740 H 0.64697 0.06774 0.38711 0.0
H741 H 0.72888 0.1696 0.25636 0.0
H742 H 0.69736 0.20196 0.24909 0.0
H743 H 0.69324 0.16211 0.21763 0.0
C744 C 0.48621 0.24155 0.51909 0.0
C745 C 0.51324 0.21904 0.51415 0.0
C746 C 0.455 0.23064 0.5383 0.0
C747 C 0.45084 0.19647 0.55253 0.0
C748 C 0.47738 0.17335 0.54409 0.0
C749 C 0.50814 0.18492 0.52525 0.0
C750 C 0.42734 0.2561 0.54631 0.0
C751 C 0.4742 0.13666 0.55818 0.0
C752 C 0.39814 0.16956 0.66213 0.0
C753 C 0.37123 0.15255 0.63962 0.0
C754 C 0.42294 0.18591 0.63413 0.0
C755 C 0.421 0.1853 0.58201 0.0
C756 C 0.39277 0.16999 0.55902 0.0
C757 C 0.36816 0.15383 0.58812 0.0
C758 C 0.45232 0.20212 0.66044 0.0
C759 C 0.38955 0.16894 0.50367 0.0
H760 H 0.49002 0.26798 0.51081 0.0
H761 H 0.52883 0.16731 0.52102 0.0
H762 H 0.40265 0.24578 0.53448 0.0
H763 H 0.42547 0.26198 0.58618 0.0
H764 H 0.43218 0.27994 0.52607 0.0
H765 H 0.49575 0.12137 0.54472 0.0
H766 H 0.47306 0.13439 0.5989 0.0
H767 H 0.45056 0.12589 0.5431 0.0
H768 H 0.40025 0.16941 0.70192 0.0
H769 H 0.34743 0.14079 0.57046 0.0
H770 H 0.45654 0.228 0.64636 0.0
H771 H 0.47558 0.18741 0.65322 0.0
H772 H 0.44842 0.2034 0.70093 0.0
H773 H 0.39548 0.19389 0.48744 0.0
H774 H 0.36387 0.16128 0.49178 0.0
H775 H 0.40792 0.15059 0.48855 0.0
C776 C 0.89216 0.63116 0.89002 0.0
C777 C 0.8914 0.66598 0.89829 0.0
C778 C 0.87826 0.60851 0.92412 0.0
C779 C 0.86239 0.621 0.96716 0.0
C780 C 0.86233 0.65618 0.97637 0.0
C781 C 0.87719 0.67825 0.94201 0.0
C782 C 0.87968 0.57123 0.91328 0.0
C783 C 0.84521 0.6706 0.02126 0.0
C784 C 0.79586 0.56116 0.01724 0.0
C785 C 0.81326 0.54507 0.05562 0.0
C786 C 0.81088 0.5873 0.99009 0.0
C787 C 0.84444 0.59714 0.00074 0.0
C788 C 0.86167 0.58183 0.04066 0.0
C789 C 0.84575 0.55622 0.06792 0.0
C790 C 0.79126 0.60338 0.94859 0.0
C791 C 0.89763 0.59108 0.05278 0.0
H792 H 0.90331 0.62174 0.8563 0.0
H793 H 0.87622 0.70521 0.94806 0.0
H794 H 0.89019 0.55741 0.94535 0.0
H795 H 0.85385 0.56151 0.9068 0.0
H796 H 0.89527 0.56548 0.88037 0.0
H797 H 0.84952 0.69814 0.02501 0.0
H798 H 0.81767 0.66602 0.01875 0.0
H799 H 0.85433 0.65787 0.05512 0.0
H800 H 0.77068 0.5528 0.00769 0.0
H801 H 0.85949 0.54373 0.09725 0.0
H802 H 0.80248 0.59599 0.91276 0.0
H803 H 0.79267 0.63124 0.95121 0.0
H804 H 0.76434 0.59572 0.94867 0.0
H805 H 0.91437 0.58272 0.02242 0.0
H806 H 0.90642 0.57924 0.08759 0.0
H807 H 0.90035 0.61879 0.05602 0.0
C808 C 0.99102 0.2976 0.24205 0.0
C809 C 0.99864 0.30684 0.29075 0.0
C810 C 0.96488 0.31341 0.21574 0.0
C811 C 0.94572 0.33917 0.23854 0.0
C812 C 0.95221 0.34751 0.28843 0.0
C813 C 0.97853 0.33125 0.31392 0.0
C814 C 0.95878 0.30356 0.16274 0.0
C815 C 0.93238 0.37472 0.31424 0.0
C816 C 0.90994 0.40618 0.15289 0.0
C817 C 0.87617 0.3962 0.14774 0.0
C818 C 0.93249 0.3882 0.18291 0.0
C819 C 0.92118 0.35938 0.20879 0.0
C820 C 0.88693 0.34956 0.20482 0.0
C821 C 0.86483 0.3681 0.17442 0.0
C822 C 0.96868 0.3998 0.18627 0.0
C823 C 0.87383 0.31903 0.2318 0.0
H824 H 1.0061 0.27857 0.22386 0.0
H825 H 0.98406 0.33858 0.35154 0.0
H826 H 0.9317 0.29801 0.15665 0.0
H827 H 0.96556 0.32487 0.13823 0.0
H828 H 0.9738 0.28119 0.15169 0.0
H829 H 0.93812 0.37591 0.35428 0.0
H830 H 0.93835 0.39953 0.29757 0.0
H831 H 0.90494 0.37048 0.30943 0.0
H832 H 0.91883 0.42822 0.13335 0.0
H833 H 0.8389 0.36004 0.1705 0.0
H834 H 0.98566 0.37982 0.17212 0.0
H835 H 0.97563 0.40441 0.22529 0.0
H836 H 0.97327 0.42323 0.16492 0.0
H837 H 0.88667 0.29608 0.21795 0.0
H838 H 0.84621 0.31578 0.22713 0.0
H839 H 0.87959 0.32104 0.2717 0.0
C840 C 0.18811 0.50762 0.50628 0.0
C841 C 0.22262 0.51424 0.51203 0.0
C842 C 0.17663 0.47718 0.48616 0.0
C843 C 0.20019 0.45247 0.47111 0.0
C844 C 0.23503 0.45794 0.48005 0.0
C845 C 0.24588 0.48882 0.50047 0.0
C846 C 0.13927 0.4726 0.47774 0.0
C847 C 0.261 0.43215 0.46515 0.0
C848 C 0.15921 0.36942 0.43266 0.0
C849 C 0.15415 0.37487 0.38208 0.0
C850 C 0.17612 0.39346 0.46198 0.0
C851 C 0.18826 0.42358 0.44017 0.0
C852 C 0.18499 0.42808 0.3886 0.0
C853 C 0.16807 0.40376 0.36038 0.0
C854 C 0.17933 0.38746 0.51666 0.0
C855 C 0.19766 0.45957 0.36347 0.0
H856 H 0.16993 0.52698 0.51566 0.0
H857 H 0.27258 0.49375 0.50458 0.0
H858 H 0.13387 0.47329 0.43762 0.0
H859 H 0.1309 0.44773 0.49174 0.0
H860 H 0.1241 0.49254 0.49597 0.0
H861 H 0.28598 0.43734 0.48207 0.0
H862 H 0.2528 0.40645 0.47582 0.0
H863 H 0.26391 0.43245 0.4245 0.0
H864 H 0.14861 0.34715 0.44971 0.0
H865 H 0.16506 0.40775 0.32114 0.0
H866 H 0.16132 0.40394 0.53655 0.0
H867 H 0.20502 0.39399 0.52967 0.0
H868 H 0.17386 0.36088 0.52663 0.0
H869 H 0.1826 0.48155 0.37585 0.0
H870 H 0.19589 0.45788 0.32269 0.0
H871 H 0.22428 0.46443 0.37372 0.0
C872 C 0.16865 0.6488 0.67963 0.0
C873 C 0.17732 0.66587 0.63616 0.0
C874 C 0.14237 0.66069 0.7101 0.0
C875 C 0.12411 0.69 0.6964 0.0
C876 C 0.13459 0.7086 0.65467 0.0
C877 C 0.16116 0.69653 0.62557 0.0
C878 C 0.13279 0.64071 0.7552 0.0
C879 C 0.116 0.73988 0.63825 0.0
C880 C 0.02969 0.69383 0.71625 0.0
C881 C 0.02615 0.71962 0.75135 0.0
C882 C 0.06141 0.68316 0.6999 0.0
C883 C 0.09085 0.6981 0.71958 0.0
C884 C 0.08772 0.72293 0.75698 0.0
C885 C 0.05536 0.73368 0.77211 0.0
C886 C 0.06322 0.65698 0.65952 0.0
C887 C 0.11843 0.73894 0.77986 0.0
H888 H 0.18115 0.62532 0.68851 0.0
H889 H 0.16845 0.71063 0.59315 0.0
H890 H 0.12704 0.65776 0.7865 0.0
H891 H 0.10976 0.62582 0.74734 0.0
H892 H 0.15312 0.62304 0.76642 0.0
H893 H 0.12916 0.75315 0.60781 0.0
H894 H 0.0904 0.73285 0.62534 0.0
H895 H 0.11293 0.75763 0.66945 0.0
H896 H 1.00749 0.68243 0.70005 0.0
H897 H 0.05299 0.75342 0.79948 0.0
H898 H 0.07941 0.63564 0.67115 0.0
H899 H 0.07476 0.66819 0.62608 0.0
H900 H 0.03803 0.64691 0.64944 0.0
H901 H 0.1382 0.71978 0.78709 0.0
H902 H 0.11226 0.75199 0.81492 0.0
H903 H 0.12911 0.75774 0.75402 0.0
loop_
_geom_bond_atom_site_label_1
_geom_bond_atom_site_label_2
_geom_bond_distance
_geom_bond_site_symmetry_2
_ccdc_geom_bond_type
C0 C1 1.351 . S
C0 N3 1.368 . S
C0 H5 0.931 . S
C1 C0 1.351 . S
C1 N2 1.373 . S
C1 H29 0.930 . S
N2 C1 1.373 . S
N2 C4 1.340 . S
N3 C0 1.368 . S
N3 C4 1.321 . S
N3 Co6 2.135 . S
C4 N2 1.340 . S
C4 N3 1.321 . S
C4 H28 0.930 1_556 S
H5 C0 0.931 . S
Co6 N3 2.135 . S
Co6 N9 2.121 . S
Co6 O14 2.055 . S
Co6 O17 2.039 . S
Co6 N20 2.140 1_556 S
C7 O8 1.227 . S
C7 O17 1.265 1_554 S
O8 C7 1.227 . S
N9 Co6 2.121 . S
N9 C11 1.375 1_556 S
N9 C12 1.313 . S
C10 C11 1.338 . S
C10 N13 1.377 1_554 S
C10 H30 0.930 . S
C11 N9 1.375 1_554 S
C11 C10 1.338 . S
C11 H15 0.931 . S
C12 N9 1.313 . S
C12 N13 1.344 . S
C12 H16 0.930 . S
N13 C10 1.377 1_556 S
N13 C12 1.344 . S
O14 Co6 2.055 . S
O14 C18 1.253 . S
H15 C11 0.931 . S
H16 C12 0.930 . S
O17 Co6 2.039 . S
O17 C7 1.265 1_556 S
C18 O14 1.253 . S
C18 O19 1.227 . S
O19 C18 1.227 . S
N20 Co6 2.140 1_554 S
N20 C23 1.346 . S
N20 C24 1.345 . S
C21 C22 1.387 . S
C21 C25 1.391 . S
C22 C21 1.387 . S
C22 C23 1.369 . S
C22 H31 0.929 . S
C23 N20 1.346 . S
C23 C22 1.369 . S
C23 H26 0.928 . S
C24 N20 1.345 . S
C24 C25 1.371 . S
C24 H27 0.931 . S
C25 C21 1.391 . S
C25 C24 1.371 . S
C25 H32 0.930 . S
H26 C23 0.928 . S
H27 C24 0.931 . S
H28 C4 0.930 1_554 S
H29 C1 0.930 . S
H30 C10 0.930 . S
H31 C22 0.929 . S
H32 C25 0.930 . S
C33 C34 1.351 . S
C33 N36 1.368 . S
C33 H38 0.931 . S
C34 C33 1.351 . S
C34 N35 1.373 . S
C34 H62 0.930 . S
N35 C34 1.373 . S
N35 C37 1.340 . S
N36 C33 1.368 . S
N36 C37 1.321 . S
N36 Co39 2.135 . S
C37 N35 1.340 . S
C37 N36 1.321 . S
C37 H61 0.930 1_565 S
H38 C33 0.931 . S
Co39 N36 2.135 . S
Co39 N42 2.121 . S
Co39 O47 2.055 . S
Co39 O50 2.039 . S
Co39 N53 2.140 . S
C40 O41 1.227 . S
C40 O50 1.265 . S
O41 C40 1.227 . S
N42 Co39 2.121 . S
N42 C44 1.375 . S
N42 C45 1.313 . S
C43 C44 1.338 . S
C43 N46 1.377 . S
C43 H63 0.930 . S
C44 N42 1.375 . S
C44 C43 1.338 . S
C44 H48 0.931 . S
C45 N42 1.313 . S
C45 N46 1.344 . S
C45 H49 0.930 . S
N46 C43 1.377 . S
N46 C45 1.344 . S
O47 Co39 2.055 . S
O47 C51 1.253 . S
H48 C44 0.931 . S
H49 C45 0.930 . S
O50 Co39 2.039 . S
O50 C40 1.265 . S
C51 O47 1.253 . S
C51 O52 1.227 . S
O52 C51 1.227 . S
N53 Co39 2.140 . S
N53 C56 1.346 . S
N53 C57 1.345 . S
C54 C55 1.387 . S
C54 C58 1.391 . S
C55 C54 1.387 . S
C55 C56 1.369 . S
C55 H64 0.929 . S
C56 N53 1.346 . S
C56 C55 1.369 . S
C56 H59 0.928 . S
C57 N53 1.345 . S
C57 C58 1.371 . S
C57 H60 0.931 . S
C58 C54 1.391 . S
C58 C57 1.371 . S
C58 H65 0.930 . S
H59 C56 0.928 . S
H60 C57 0.931 . S
H61 C37 0.930 1_545 S
H62 C34 0.930 . S
H63 C43 0.930 . S
H64 C55 0.929 . S
H65 C58 0.930 . S
C66 C67 1.351 . S
C66 N69 1.368 . S
C66 H71 0.931 . S
C67 C66 1.351 . S
C67 N68 1.373 . S
C67 H95 0.930 . S
N68 C67 1.373 . S
N68 C70 1.340 . S
N69 C66 1.368 . S
N69 C70 1.321 . S
N69 Co72 2.135 . S
C70 N68 1.340 . S
C70 N69 1.321 . S
C70 H94 0.930 . S
H71 C66 0.931 . S
Co72 N69 2.135 . S
Co72 N75 2.121 . S
Co72 O80 2.055 . S
Co72 O83 2.039 . S
Co72 N86 2.140 . S
C73 O74 1.227 . S
C73 O83 1.265 . S
O74 C73 1.227 . S
N75 Co72 2.121 . S
N75 C77 1.375 . S
N75 C78 1.313 . S
C76 C77 1.338 . S
C76 N79 1.377 . S
C76 H96 0.930 . S
C77 N75 1.375 . S
C77 C76 1.338 . S
C77 H81 0.931 . S
C78 N75 1.313 . S
C78 N79 1.344 . S
C78 H82 0.930 . S
N79 C76 1.377 . S
N79 C78 1.344 . S
O80 Co72 2.055 . S
O80 C84 1.253 . S
H81 C77 0.931 . S
H82 C78 0.930 . S
O83 Co72 2.039 . S
O83 C73 1.265 . S
C84 O80 1.253 . S
C84 O85 1.227 . S
O85 C84 1.227 . S
N86 Co72 2.140 . S
N86 C89 1.346 . S
N86 C90 1.345 . S
C87 C88 1.387 . S
C87 C91 1.391 . S
C88 C87 1.387 . S
C88 C89 1.369 . S
C88 H97 0.929 . S
C89 N86 1.346 . S
C89 C88 1.369 . S
C89 H92 0.928 . S
C90 N86 1.345 . S
C90 C91 1.371 . S
C90 H93 0.931 . S
C91 C87 1.391 . S
C91 C90 1.371 . S
C91 H98 0.930 . S
H92 C89 0.928 . S
H93 C90 0.931 . S
H94 C70 0.930 . S
H95 C67 0.930 . S
H96 C76 0.930 . S
H97 C88 0.929 . S
H98 C91 0.930 . S
C99 C100 1.351 . S
C99 N102 1.368 . S
C99 H104 0.931 . S
C100 C99 1.351 . S
C100 N101 1.373 . S
C100 H128 0.930 . S
N101 C100 1.373 . S
N101 C103 1.340 . S
N102 C99 1.368 . S
N102 C103 1.321 . S
N102 Co105 2.135 . S
C103 N101 1.340 . S
C103 N102 1.321 . S
C103 H127 0.930 1_545 S
H104 C99 0.931 . S
Co105 N102 2.135 . S
Co105 N108 2.121 . S
Co105 O113 2.055 . S
Co105 O116 2.039 . S
Co105 N119 2.140 . S
C106 O107 1.227 . S
C106 O116 1.265 . S
O107 C106 1.227 . S
N108 Co105 2.121 . S
N108 C110 1.375 . S
N108 C111 1.313 . S
C109 C110 1.338 . S
C109 N112 1.377 . S
C109 H129 0.930 . S
C110 N108 1.375 . S
C110 C109 1.338 . S
C110 H114 0.931 . S
C111 N108 1.313 . S
C111 N112 1.344 . S
C111 H115 0.930 . S
N112 C109 1.377 . S
N112 C111 1.344 . S
O113 Co105 2.055 . S
O113 C117 1.253 . S
H114 C110 0.931 . S
H115 C111 0.930 . S
O116 Co105 2.039 . S
O116 C106 1.265 . S
C117 O113 1.253 . S
C117 O118 1.227 . S
O118 C117 1.227 . S
N119 Co105 2.140 . S
N119 C122 1.346 . S
N119 C123 1.345 . S
C120 C121 1.387 . S
C120 C124 1.391 . S
C121 C120 1.387 . S
C121 C122 1.369 . S
C121 H130 0.929 . S
C122 N119 1.346 . S
C122 C121 1.369 . S
C122 H125 0.928 . S
C123 N119 1.345 . S
C123 C124 1.371 . S
C123 H126 0.931 . S
C124 C120 1.391 . S
C124 C123 1.371 . S
C124 H131 0.930 . S
H125 C122 0.928 . S
H126 C123 0.931 . S
H127 C103 0.930 1_565 S
H128 C100 0.930 . S
H129 C109 0.930 . S
H130 C121 0.929 . S
H131 C124 0.930 . S
C132 C133 1.351 . S
C132 N135 1.368 . S
C132 H137 0.931 . S
C133 C132 1.351 . S
C133 N134 1.373 . S
C133 H161 0.930 . S
N134 C133 1.373 . S
N134 C136 1.340 . S
N135 C132 1.368 . S
N135 C136 1.321 . S
N135 Co138 2.135 . S
C136 N134 1.340 . S
C136 N135 1.321 . S
C136 H160 0.930 1_655 S
H137 C132 0.931 . S
Co138 N135 2.135 . S
Co138 N141 2.121 . S
Co138 O146 2.055 . S
Co138 O149 2.039 . S
Co138 N152 2.140 . S
C139 O140 1.227 . S
C139 O149 1.265 . S
O140 C139 1.227 . S
N141 Co138 2.121 . S
N141 C143 1.375 . S
N141 C144 1.313 . S
C142 C143 1.338 . S
C142 N145 1.377 . S
C142 H162 0.930 . S
C143 N141 1.375 . S
C143 C142 1.338 . S
C143 H147 0.931 . S
C144 N141 1.313 . S
C144 N145 1.344 . S
C144 H148 0.930 . S
N145 C142 1.377 . S
N145 C144 1.344 . S
O146 Co138 2.055 . S
O146 C150 1.253 . S
H147 C143 0.931 . S
H148 C144 0.930 . S
O149 Co138 2.039 . S
O149 C139 1.265 . S
C150 O146 1.253 . S
C150 O151 1.227 . S
O151 C150 1.227 . S
N152 Co138 2.140 . S
N152 C155 1.346 . S
N152 C156 1.345 . S
C153 C154 1.387 . S
C153 C157 1.391 . S
C154 C153 1.387 . S
C154 C155 1.369 . S
C154 H163 0.929 . S
C155 N152 1.346 . S
C155 C154 1.369 . S
C155 H158 0.928 . S
C156 N152 1.345 . S
C156 C157 1.371 . S
C156 H159 0.931 . S
C157 C153 1.391 . S
C157 C156 1.371 . S
C157 H164 0.930 . S
H158 C155 0.928 . S
H159 C156 0.931 . S
H160 C136 0.930 1_455 S
H161 C133 0.930 . S
H162 C142 0.930 . S
H163 C154 0.929 . S
H164 C157 0.930 . S
C165 C166 1.351 . S
C165 N168 1.368 . S
C165 H170 0.931 . S
C166 C165 1.351 . S
C166 N167 1.373 . S
C166 H194 0.930 . S
N167 C166 1.373 . S
N167 C169 1.340 . S
N168 C165 1.368 . S
N168 C169 1.321 . S
N168 Co171 2.135 . S
C169 N167 1.340 . S
C169 N168 1.321 . S
C169 H193 0.930 . S
H170 C165 0.931 . S
Co171 N168 2.135 . S
Co171 N174 2.121 . S
Co171 O179 2.055 . S
Co171 O182 2.039 . S
Co171 N185 2.140 1_554 S
C172 O173 1.227 1_554 S
C172 O182 1.265 . S
O173 C172 1.227 1_556 S
N174 Co171 2.121 . S
N174 C176 1.375 . S
N174 C177 1.313 . S
C175 C176 1.338 . S
C175 N178 1.377 . S
C175 H195 0.930 . S
C176 N174 1.375 . S
C176 C175 1.338 . S
C176 H180 0.931 1_554 S
C177 N174 1.313 . S
C177 N178 1.344 . S
C177 H181 0.930 . S
N178 C175 1.377 . S
N178 C177 1.344 . S
O179 Co171 2.055 . S
O179 C183 1.253 . S
H180 C176 0.931 1_556 S
H181 C177 0.930 . S
O182 Co171 2.039 . S
O182 C172 1.265 . S
C183 O179 1.253 . S
C183 O184 1.227 . S
O184 C183 1.227 . S
N185 Co171 2.140 1_556 S
N185 C188 1.346 . S
N185 C189 1.345 . S
C186 C187 1.387 . S
C186 C190 1.391 . S
C187 C186 1.387 . S
C187 C188 1.369 . S
C187 H196 0.929 . S
C188 N185 1.346 . S
C188 C187 1.369 . S
C188 H191 0.928 . S
C189 N185 1.345 . S
C189 C190 1.371 . S
C189 H192 0.931 1_556 S
C190 C186 1.391 . S
C190 C189 1.371 . S
C190 H197 0.930 . S
H191 C188 0.928 . S
H192 C189 0.931 1_554 S
H193 C169 0.930 . S
H194 C166 0.930 . S
H195 C175 0.930 . S
H196 C187 0.929 . S
H197 C190 0.930 . S
C198 C199 1.351 . S
C198 N201 1.368 . S
C198 H203 0.931 . S
C199 C198 1.351 . S
C199 N200 1.373 . S
C199 H227 0.930 . S
N200 C199 1.373 . S
N200 C202 1.340 . S
N201 C198 1.368 . S
N201 C202 1.321 . S
N201 Co204 2.135 . S
C202 N200 1.340 . S
C202 N201 1.321 . S
C202 H226 0.930 1_455 S
H203 C198 0.931 . S
Co204 N201 2.135 . S
Co204 N207 2.121 . S
Co204 O212 2.055 . S
Co204 O215 2.039 . S
Co204 N218 2.140 . S
C205 O206 1.227 . S
C205 O215 1.265 . S
O206 C205 1.227 . S
N207 Co204 2.121 . S
N207 C209 1.375 . S
N207 C210 1.313 . S
C208 C209 1.338 . S
C208 N211 1.377 . S
C208 H228 0.930 . S
C209 N207 1.375 . S
C209 C208 1.338 . S
C209 H213 0.931 . S
C210 N207 1.313 . S
C210 N211 1.344 . S
C210 H214 0.930 . S
N211 C208 1.377 . S
N211 C210 1.344 . S
O212 Co204 2.055 . S
O212 C216 1.253 . S
H213 C209 0.931 . S
H214 C210 0.930 . S
O215 Co204 2.039 . S
O215 C205 1.265 . S
C216 O212 1.253 . S
C216 O217 1.227 . S
O217 C216 1.227 . S
N218 Co204 2.140 . S
N218 C221 1.346 . S
N218 C222 1.345 . S
C219 C220 1.387 . S
C219 C223 1.391 . S
C220 C219 1.387 . S
C220 C221 1.369 . S
C220 H229 0.929 . S
C221 N218 1.346 . S
C221 C220 1.369 . S
C221 H224 0.928 . S
C222 N218 1.345 . S
C222 C223 1.371 . S
C222 H225 0.931 . S
C223 C219 1.391 . S
C223 C222 1.371 . S
C223 H230 0.930 . S
H224 C221 0.928 . S
H225 C222 0.931 . S
H226 C202 0.930 1_655 S
H227 C199 0.930 . S
H228 C208 0.930 . S
H229 C220 0.929 . S
H230 C223 0.930 . S
C231 C232 1.351 . S
C231 N234 1.368 . S
C231 H236 0.931 . S
C232 C231 1.351 . S
C232 N233 1.373 . S
C232 H260 0.930 . S
N233 C232 1.373 . S
N233 C235 1.340 . S
N234 C231 1.368 . S
N234 C235 1.321 . S
N234 Co237 2.135 . S
C235 N233 1.340 . S
C235 N234 1.321 . S
C235 H259 0.930 . S
H236 C231 0.931 . S
Co237 N234 2.135 . S
Co237 N240 2.121 . S
Co237 O245 2.055 . S
Co237 O248 2.039 . S
Co237 N251 2.140 . S
C238 O239 1.227 . S
C238 O248 1.265 . S
O239 C238 1.227 . S
N240 Co237 2.121 . S
N240 C242 1.375 . S
N240 C243 1.313 . S
C241 C242 1.338 . S
C241 N244 1.377 . S
C241 H261 0.930 . S
C242 N240 1.375 . S
C242 C241 1.338 . S
C242 H246 0.931 . S
C243 N240 1.313 . S
C243 N244 1.344 . S
C243 H247 0.930 . S
N244 C241 1.377 . S
N244 C243 1.344 . S
O245 Co237 2.055 . S
O245 C249 1.253 . S
H246 C242 0.931 . S
H247 C243 0.930 . S
O248 Co237 2.039 . S
O248 C238 1.265 . S
C249 O245 1.253 . S
C249 O250 1.227 . S
O250 C249 1.227 . S
N251 Co237 2.140 . S
N251 C254 1.346 . S
N251 C255 1.345 . S
C252 C253 1.387 . S
C252 C256 1.391 . S
C253 C252 1.387 . S
C253 C254 1.369 . S
C253 H262 0.929 . S
C254 N251 1.346 . S
C254 C253 1.369 . S
C254 H257 0.928 . S
C255 N251 1.345 . S
C255 C256 1.371 . S
C255 H258 0.931 . S
C256 C252 1.391 . S
C256 C255 1.371 . S
C256 H263 0.930 . S
H257 C254 0.928 . S
H258 C255 0.931 . S
H259 C235 0.930 . S
H260 C232 0.930 . S
H261 C241 0.930 . S
H262 C253 0.929 . S
H263 C256 0.930 . S
C264 C265 1.391 1_556 S
C264 C266 1.394 . S
C264 H280 0.931 . S
C265 C264 1.391 1_554 S
C265 C269 1.376 . S
C266 C264 1.394 . S
C266 C267 1.369 1_556 S
C266 C270 1.531 . S
C267 C266 1.369 1_554 S
C267 C268 1.410 . S
C267 C275 1.503 . S
C268 C267 1.410 . S
C268 C269 1.392 . S
C268 C271 1.511 . S
C269 C265 1.376 . S
C269 C268 1.392 . S
C269 H281 0.929 . S
C270 C266 1.531 . S
C270 H282 0.960 . S
C270 H283 0.962 . S
C270 H284 0.960 . S
C271 C268 1.511 . S
C271 H285 0.961 . S
C271 H286 0.961 . S
C271 H287 0.961 . S
C272 C273 1.370 . S
C272 C274 1.363 . S
C272 H288 0.931 . S
C273 C272 1.370 . S
C273 C277 1.408 1_554 S
C274 C272 1.363 . S
C274 C275 1.370 . S
C274 C278 1.524 . S
C275 C267 1.503 . S
C275 C274 1.370 . S
C275 C276 1.403 1_554 S
C276 C275 1.403 1_556 S
C276 C277 1.404 . S
C276 C279 1.539 . S
C277 C273 1.408 1_556 S
C277 C276 1.404 . S
C277 H289 0.930 . S
C278 C274 1.524 . S
C278 H290 0.956 . S
C278 H291 0.961 . S
C278 H292 0.961 . S
C279 C276 1.539 . S
C279 H293 0.958 . S
C279 H294 0.961 . S
C279 H295 0.960 . S
H280 C264 0.931 . S
H281 C269 0.929 . S
H282 C270 0.960 . S
H283 C270 0.962 . S
H284 C270 0.960 . S
H285 C271 0.961 . S
H286 C271 0.961 . S
H287 C271 0.961 . S
H288 C272 0.931 . S
H289 C277 0.930 . S
H290 C278 0.956 . S
H291 C278 0.961 . S
H292 C278 0.961 . S
H293 C279 0.958 . S
H294 C279 0.961 . S
H295 C279 0.960 . S
C296 C297 1.391 . S
C296 C298 1.394 . S
C296 H312 0.931 . S
C297 C296 1.391 . S
C297 C301 1.376 . S
C298 C296 1.394 . S
C298 C299 1.369 . S
C298 C302 1.531 . S
C299 C298 1.369 . S
C299 C300 1.410 . S
C299 C307 1.503 . S
C300 C299 1.410 . S
C300 C301 1.392 . S
C300 C303 1.511 . S
C301 C297 1.376 . S
C301 C300 1.392 . S
C301 H313 0.929 . S
C302 C298 1.531 . S
C302 H314 0.960 . S
C302 H315 0.962 . S
C302 H316 0.960 . S
C303 C300 1.511 . S
C303 H317 0.961 . S
C303 H318 0.961 . S
C303 H319 0.961 . S
C304 C305 1.370 . S
C304 C306 1.363 . S
C304 H320 0.931 . S
C305 C304 1.370 . S
C305 C309 1.408 . S
C306 C304 1.363 . S
C306 C307 1.370 . S
C306 C310 1.524 . S
C307 C299 1.503 . S
C307 C306 1.370 . S
C307 C308 1.403 . S
C308 C307 1.403 . S
C308 C309 1.404 . S
C308 C311 1.539 . S
C309 C305 1.408 . S
C309 C308 1.404 . S
C309 H321 0.930 1_545 S
C310 C306 1.524 . S
C310 H322 0.956 . S
C310 H323 0.961 . S
C310 H324 0.961 . S
C311 C308 1.539 . S
C311 H325 0.958 . S
C311 H326 0.961 . S
C311 H327 0.960 . S
H312 C296 0.931 . S
H313 C301 0.929 . S
H314 C302 0.960 . S
H315 C302 0.962 . S
H316 C302 0.960 . S
H317 C303 0.961 . S
H318 C303 0.961 . S
H319 C303 0.961 . S
H320 C304 0.931 . S
H321 C309 0.930 1_565 S
H322 C310 0.956 . S
H323 C310 0.961 . S
H324 C310 0.961 . S
H325 C311 0.958 . S
H326 C311 0.961 . S
H327 C311 0.960 . S
C328 C329 1.391 . S
C328 C330 1.394 . S
C328 H344 0.931 . S
C329 C328 1.391 . S
C329 C333 1.376 . S
C330 C328 1.394 . S
C330 C331 1.369 . S
C330 C334 1.531 . S
C331 C330 1.369 . S
C331 C332 1.410 . S
C331 C339 1.503 . S
C332 C331 1.410 . S
C332 C333 1.392 . S
C332 C335 1.511 . S
C333 C329 1.376 . S
C333 C332 1.392 . S
C333 H345 0.929 . S
C334 C330 1.531 . S
C334 H346 0.960 . S
C334 H347 0.962 . S
C334 H348 0.960 . S
C335 C332 1.511 . S
C335 H349 0.961 . S
C335 H350 0.961 . S
C335 H351 0.961 . S
C336 C337 1.370 . S
C336 C338 1.363 . S
C336 H352 0.931 . S
C337 C336 1.370 . S
C337 C341 1.408 . S
C338 C336 1.363 . S
C338 C339 1.370 . S
C338 C342 1.524 . S
C339 C331 1.503 . S
C339 C338 1.370 . S
C339 C340 1.403 . S
C340 C339 1.403 . S
C340 C341 1.404 . S
C340 C343 1.539 . S
C341 C337 1.408 . S
C341 C340 1.404 . S
C341 H353 0.930 . S
C342 C338 1.524 . S
C342 H354 0.956 . S
C342 H355 0.961 . S
C342 H356 0.961 . S
C343 C340 1.539 . S
C343 H357 0.958 . S
C343 H358 0.961 . S
C343 H359 0.960 . S
H344 C328 0.931 . S
H345 C333 0.929 . S
H346 C334 0.960 . S
H347 C334 0.962 . S
H348 C334 0.960 . S
H349 C335 0.961 . S
H350 C335 0.961 . S
H351 C335 0.961 . S
H352 C336 0.931 . S
H353 C341 0.930 . S
H354 C342 0.956 . S
H355 C342 0.961 . S
H356 C342 0.961 . S
H357 C343 0.958 . S
H358 C343 0.961 . S
H359 C343 0.960 . S
C360 C361 1.391 . S
C360 C362 1.394 . S
C360 H376 0.931 . S
C361 C360 1.391 . S
C361 C365 1.376 . S
C362 C360 1.394 . S
C362 C363 1.369 . S
C362 C366 1.531 . S
C363 C362 1.369 . S
C363 C364 1.410 . S
C363 C371 1.503 . S
C364 C363 1.410 . S
C364 C365 1.392 . S
C364 C367 1.511 . S
C365 C361 1.376 . S
C365 C364 1.392 . S
C365 H377 0.929 1_455 S
C366 C362 1.531 . S
C366 H378 0.960 . S
C366 H379 0.962 . S
C366 H380 0.960 . S
C367 C364 1.511 . S
C367 H381 0.961 . S
C367 H382 0.961 . S
C367 H383 0.961 . S
C368 C369 1.370 . S
C368 C370 1.363 . S
C368 H384 0.931 . S
C369 C368 1.370 . S
C369 C373 1.408 . S
C370 C368 1.363 . S
C370 C371 1.370 . S
C370 C374 1.524 . S
C371 C363 1.503 . S
C371 C370 1.370 . S
C371 C372 1.403 . S
C372 C371 1.403 . S
C372 C373 1.404 . S
C372 C375 1.539 . S
C373 C369 1.408 . S
C373 C372 1.404 . S
C373 H385 0.930 . S
C374 C370 1.524 . S
C374 H386 0.956 . S
C374 H387 0.961 . S
C374 H388 0.961 . S
C375 C372 1.539 . S
C375 H389 0.958 . S
C375 H390 0.961 . S
C375 H391 0.960 . S
H376 C360 0.931 . S
H377 C365 0.929 1_655 S
H378 C366 0.960 . S
H379 C366 0.962 . S
H380 C366 0.960 . S
H381 C367 0.961 . S
H382 C367 0.961 . S
H383 C367 0.961 . S
H384 C368 0.931 . S
H385 C373 0.930 . S
H386 C374 0.956 . S
H387 C374 0.961 . S
H388 C374 0.961 . S
H389 C375 0.958 . S
H390 C375 0.961 . S
H391 C375 0.960 . S
C392 C393 1.391 . S
C392 C394 1.394 . S
C392 H408 0.931 . S
C393 C392 1.391 . S
C393 C397 1.376 . S
C394 C392 1.394 . S
C394 C395 1.369 . S
C394 C398 1.531 . S
C395 C394 1.369 . S
C395 C396 1.410 . S
C395 C403 1.503 . S
C396 C395 1.410 . S
C396 C397 1.392 . S
C396 C399 1.511 . S
C397 C393 1.376 . S
C397 C396 1.392 . S
C397 H409 0.929 . S
C398 C394 1.531 . S
C398 H410 0.960 . S
C398 H411 0.962 . S
C398 H412 0.960 . S
C399 C396 1.511 . S
C399 H413 0.961 . S
C399 H414 0.961 . S
C399 H415 0.961 . S
C400 C401 1.370 . S
C400 C402 1.363 . S
C400 H416 0.931 . S
C401 C400 1.370 . S
C401 C405 1.408 . S
C402 C400 1.363 . S
C402 C403 1.370 . S
C402 C406 1.524 . S
C403 C395 1.503 . S
C403 C402 1.370 . S
C403 C404 1.403 . S
C404 C403 1.403 . S
C404 C405 1.404 . S
C404 C407 1.539 . S
C405 C401 1.408 . S
C405 C404 1.404 . S
C405 H417 0.930 . S
C406 C402 1.524 . S
C406 H418 0.956 . S
C406 H419 0.961 . S
C406 H420 0.961 . S
C407 C404 1.539 . S
C407 H421 0.958 . S
C407 H422 0.961 . S
C407 H423 0.960 . S
H408 C392 0.931 . S
H409 C397 0.929 . S
H410 C398 0.960 . S
H411 C398 0.962 . S
H412 C398 0.960 . S
H413 C399 0.961 . S
H414 C399 0.961 . S
H415 C399 0.961 . S
H416 C400 0.931 . S
H417 C405 0.930 . S
H418 C406 0.956 . S
H419 C406 0.961 . S
H420 C406 0.961 . S
H421 C407 0.958 . S
H422 C407 0.961 . S
H423 C407 0.960 . S
C424 C425 1.391 . S
C424 C426 1.394 . S
C424 H440 0.931 . S
C425 C424 1.391 . S
C425 C429 1.376 . S
C426 C424 1.394 . S
C426 C427 1.369 . S
C426 C430 1.531 . S
C427 C426 1.369 . S
C427 C428 1.410 . S
C427 C435 1.503 . S
C428 C427 1.410 . S
C428 C429 1.392 . S
C428 C431 1.511 . S
C429 C425 1.376 . S
C429 C428 1.392 . S
C429 H441 0.929 . S
C430 C426 1.531 . S
C430 H442 0.960 . S
C430 H443 0.962 . S
C430 H444 0.960 . S
C431 C428 1.511 . S
C431 H445 0.961 . S
C431 H446 0.961 . S
C431 H447 0.961 . S
C432 C433 1.370 . S
C432 C434 1.363 . S
C432 H448 0.931 . S
C433 C432 1.370 . S
C433 C437 1.408 . S
C434 C432 1.363 . S
C434 C435 1.370 . S
C434 C438 1.524 . S
C435 C427 1.503 . S
C435 C434 1.370 . S
C435 C436 1.403 . S
C436 C435 1.403 . S
C436 C437 1.404 . S
C436 C439 1.539 . S
C437 C433 1.408 . S
C437 C436 1.404 . S
C437 H449 0.930 . S
C438 C434 1.524 . S
C438 H450 0.956 . S
C438 H451 0.961 . S
C438 H452 0.961 . S
C439 C436 1.539 . S
C439 H453 0.958 . S
C439 H454 0.961 . S
C439 H455 0.960 . S
H440 C424 0.931 . S
H441 C429 0.929 . S
H442 C430 0.960 . S
H443 C430 0.962 . S
H444 C430 0.960 . S
H445 C431 0.961 . S
H446 C431 0.961 . S
H447 C431 0.961 . S
H448 C432 0.931 . S
H449 C437 0.930 . S
H450 C438 0.956 . S
H451 C438 0.961 . S
H452 C438 0.961 . S
H453 C439 0.958 . S
H454 C439 0.961 . S
H455 C439 0.960 . S
C456 C457 1.391 . S
C456 C458 1.394 . S
C456 H472 0.931 . S
C457 C456 1.391 . S
C457 C461 1.376 . S
C458 C456 1.394 . S
C458 C459 1.369 . S
C458 C462 1.531 . S
C459 C458 1.369 . S
C459 C460 1.410 . S
C459 C467 1.503 . S
C460 C459 1.410 . S
C460 C461 1.392 . S
C460 C463 1.511 . S
C461 C457 1.376 . S
C461 C460 1.392 . S
C461 H473 0.929 . S
C462 C458 1.531 . S
C462 H474 0.960 . S
C462 H475 0.962 . S
C462 H476 0.960 . S
C463 C460 1.511 . S
C463 H477 0.961 . S
C463 H478 0.961 . S
C463 H479 0.961 . S
C464 C465 1.370 . S
C464 C466 1.363 . S
C464 H480 0.931 . S
C465 C464 1.370 . S
C465 C469 1.408 . S
C466 C464 1.363 . S
C466 C467 1.370 . S
C466 C470 1.524 . S
C467 C459 1.503 . S
C467 C466 1.370 . S
C467 C468 1.403 . S
C468 C467 1.403 . S
C468 C469 1.404 . S
C468 C471 1.539 . S
C469 C465 1.408 . S
C469 C468 1.404 . S
C469 H481 0.930 . S
C470 C466 1.524 . S
C470 H482 0.956 . S
C470 H483 0.961 . S
C470 H484 0.961 . S
C471 C468 1.539 . S
C471 H485 0.958 . S
C471 H486 0.961 . S
C471 H487 0.960 . S
H472 C456 0.931 . S
H473 C461 0.929 . S
H474 C462 0.960 . S
H475 C462 0.962 . S
H476 C462 0.960 . S
H477 C463 0.961 . S
H478 C463 0.961 . S
H479 C463 0.961 . S
H480 C464 0.931 . S
H481 C469 0.930 . S
H482 C470 0.956 . S
H483 C470 0.961 . S
H484 C470 0.961 . S
H485 C471 0.958 . S
H486 C471 0.961 . S
H487 C471 0.960 . S
C488 C489 1.391 . S
C488 C490 1.394 . S
C488 H504 0.931 . S
C489 C488 1.391 . S
C489 C493 1.376 . S
C490 C488 1.394 . S
C490 C491 1.369 . S
C490 C494 1.531 . S
C491 C490 1.369 . S
C491 C492 1.410 . S
C491 C499 1.503 1_556 S
C492 C491 1.410 . S
C492 C493 1.392 . S
C492 C495 1.511 1_556 S
C493 C489 1.376 . S
C493 C492 1.392 . S
C493 H505 0.929 . S
C494 C490 1.531 . S
C494 H506 0.960 1_556 S
C494 H507 0.962 . S
C494 H508 0.960 . S
C495 C492 1.511 1_554 S
C495 H509 0.969 . S
C495 H510 0.961 . S
C495 H511 0.961 . S
C496 C497 1.370 . S
C496 C498 1.363 . S
C496 H512 0.931 . S
C497 C496 1.370 . S
C497 C501 1.408 . S
C498 C496 1.363 . S
C498 C499 1.370 . S
C498 C502 1.524 1_554 S
C499 C491 1.503 1_554 S
C499 C498 1.370 . S
C499 C500 1.403 . S
C500 C499 1.403 . S
C500 C501 1.404 . S
C500 C503 1.539 . S
C501 C497 1.408 . S
C501 C500 1.404 . S
C501 H513 0.930 . S
C502 C498 1.524 1_556 S
C502 H514 0.956 . S
C502 H515 0.961 . S
C502 H516 0.961 . S
C503 C500 1.539 . S
C503 H517 0.958 . S
C503 H518 0.961 . S
C503 H519 0.960 . S
H504 C488 0.931 . S
H505 C493 0.929 . S
H506 C494 0.960 1_554 S
H507 C494 0.962 . S
H508 C494 0.960 . S
H509 C495 0.969 . S
H510 C495 0.961 . S
H511 C495 0.961 . S
H512 C496 0.931 . S
H513 C501 0.930 . S
H514 C502 0.956 . S
H515 C502 0.961 . S
H516 C502 0.961 . S
H517 C503 0.958 . S
H518 C503 0.961 . S
H519 C503 0.960 . S
C520 C521 1.391 . S
C520 C522 1.394 . S
C520 H536 0.931 . S
C521 C520 1.391 . S
C521 C525 1.376 . S
C522 C520 1.394 . S
C522 C523 1.369 . S
C522 C526 1.531 . S
C523 C522 1.369 . S
C523 C524 1.410 . S
C523 C531 1.503 . S
C524 C523 1.410 . S
C524 C525 1.392 . S
C524 C527 1.511 . S
C525 C521 1.376 . S
C525 C524 1.392 . S
C525 H537 0.929 . S
C526 C522 1.531 . S
C526 H538 0.960 . S
C526 H539 0.962 . S
C526 H540 0.960 . S
C527 C524 1.511 . S
C527 H541 0.961 . S
C527 H542 0.961 . S
C527 H543 0.961 . S
C528 C529 1.370 . S
C528 C530 1.363 . S
C528 H544 0.931 . S
C529 C528 1.370 . S
C529 C533 1.408 . S
C530 C528 1.363 . S
C530 C531 1.370 . S
C530 C534 1.524 . S
C531 C523 1.503 . S
C531 C530 1.370 . S
C531 C532 1.403 . S
C532 C531 1.403 . S
C532 C533 1.404 . S
C532 C535 1.539 . S
C533 C529 1.408 . S
C533 C532 1.404 . S
C533 H545 0.930 . S
C534 C530 1.524 . S
C534 H546 0.956 . S
C534 H547 0.961 . S
C534 H548 0.961 . S
C535 C532 1.539 . S
C535 H549 0.958 . S
C535 H550 0.961 . S
C535 H551 0.960 . S
H536 C520 0.931 . S
H537 C525 0.929 . S
H538 C526 0.960 . S
H539 C526 0.962 . S
H540 C526 0.960 . S
H541 C527 0.961 . S
H542 C527 0.961 . S
H543 C527 0.961 . S
H544 C528 0.931 . S
H545 C533 0.930 . S
H546 C534 0.956 . S
H547 C534 0.961 . S
H548 C534 0.961 . S
H549 C535 0.958 . S
H550 C535 0.961 . S
H551 C535 0.960 . S
C552 C553 1.391 . S
C552 C554 1.394 . S
C552 H568 0.931 . S
C553 C552 1.391 . S
C553 C557 1.376 . S
C554 C552 1.394 . S
C554 C555 1.369 . S
C554 C558 1.531 1_554 S
C555 C554 1.369 . S
C555 C556 1.410 . S
C555 C563 1.503 1_554 S
C556 C555 1.410 . S
C556 C557 1.392 . S
C556 C559 1.511 . S
C557 C553 1.376 . S
C557 C556 1.392 . S
C557 H569 0.929 . S
C558 C554 1.531 1_556 S
C558 H570 0.960 . S
C558 H571 0.962 . S
C558 H572 0.960 . S
C559 C556 1.511 . S
C559 H573 0.961 . S
C559 H574 0.961 . S
C559 H575 0.961 . S
C560 C561 1.370 . S
C560 C562 1.363 . S
C560 H576 0.931 . S
C561 C560 1.370 . S
C561 C565 1.408 . S
C562 C560 1.363 . S
C562 C563 1.370 . S
C562 C566 1.524 . S
C563 C555 1.503 1_556 S
C563 C562 1.370 . S
C563 C564 1.403 . S
C564 C563 1.403 . S
C564 C565 1.404 . S
C564 C567 1.539 1_556 S
C565 C561 1.408 . S
C565 C564 1.404 . S
C565 H577 0.930 . S
C566 C562 1.524 . S
C566 H578 0.956 . S
C566 H579 0.961 1_556 S
C566 H580 0.961 . S
C567 C564 1.539 1_554 S
C567 H581 0.958 . S
C567 H582 0.961 . S
C567 H583 0.960 . S
H568 C552 0.931 . S
H569 C557 0.929 . S
H570 C558 0.960 . S
H571 C558 0.962 . S
H572 C558 0.960 . S
H573 C559 0.961 . S
H574 C559 0.961 . S
H575 C559 0.961 . S
H576 C560 0.931 . S
H577 C565 0.930 . S
H578 C566 0.956 . S
H579 C566 0.961 1_554 S
H580 C566 0.961 . S
H581 C567 0.958 . S
H582 C567 0.961 . S
H583 C567 0.960 . S
C584 C585 1.391 . S
C584 C586 1.394 . S
C584 H600 0.931 . S
C585 C584 1.391 . S
C585 C589 1.376 . S
C586 C584 1.394 . S
C586 C587 1.369 . S
C586 C590 1.531 . S
C587 C586 1.369 . S
C587 C588 1.410 . S
C587 C595 1.503 . S
C588 C587 1.410 . S
C588 C589 1.392 . S
C588 C591 1.511 . S
C589 C585 1.376 . S
C589 C588 1.392 . S
C589 H601 0.929 . S
C590 C586 1.531 . S
C590 H602 0.960 . S
C590 H603 0.962 . S
C590 H604 0.960 . S
C591 C588 1.511 . S
C591 H605 0.961 . S
C591 H606 0.961 . S
C591 H607 0.961 . S
C592 C593 1.370 . S
C592 C594 1.363 . S
C592 H608 0.931 . S
C593 C592 1.370 . S
C593 C597 1.408 . S
C594 C592 1.363 . S
C594 C595 1.370 . S
C594 C598 1.524 . S
C595 C587 1.503 . S
C595 C594 1.370 . S
C595 C596 1.403 . S
C596 C595 1.403 . S
C596 C597 1.404 . S
C596 C599 1.539 . S
C597 C593 1.408 . S
C597 C596 1.404 . S
C597 H609 0.930 . S
C598 C594 1.524 . S
C598 H610 0.956 . S
C598 H611 0.961 . S
C598 H612 0.961 . S
C599 C596 1.539 . S
C599 H613 0.958 . S
C599 H614 0.961 . S
C599 H615 0.960 . S
H600 C584 0.931 . S
H601 C589 0.929 . S
H602 C590 0.960 . S
H603 C590 0.962 . S
H604 C590 0.960 . S
H605 C591 0.961 . S
H606 C591 0.961 . S
H607 C591 0.961 . S
H608 C592 0.931 . S
H609 C597 0.930 . S
H610 C598 0.956 . S
H611 C598 0.961 . S
H612 C598 0.961 . S
H613 C599 0.958 . S
H614 C599 0.961 . S
H615 C599 0.960 . S
C616 C617 1.391 . S
C616 C618 1.394 . S
C616 H632 0.931 . S
C617 C616 1.391 . S
C617 C621 1.376 . S
C618 C616 1.394 . S
C618 C619 1.369 . S
C618 C622 1.531 . S
C619 C618 1.369 . S
C619 C620 1.410 . S
C619 C627 1.503 . S
C620 C619 1.410 . S
C620 C621 1.392 . S
C620 C623 1.511 . S
C621 C617 1.376 . S
C621 C620 1.392 . S
C621 H633 0.929 . S
C622 C618 1.531 . S
C622 H634 0.960 . S
C622 H635 0.962 . S
C622 H636 0.960 . S
C623 C620 1.511 . S
C623 H637 0.961 . S
C623 H638 0.961 . S
C623 H639 0.961 . S
C624 C625 1.370 . S
C624 C626 1.363 . S
C624 H640 0.931 . S
C625 C624 1.370 . S
C625 C629 1.408 . S
C626 C624 1.363 . S
C626 C627 1.370 . S
C626 C630 1.524 . S
C627 C619 1.503 . S
C627 C626 1.370 . S
C627 C628 1.403 . S
C628 C627 1.403 . S
C628 C629 1.404 . S
C628 C631 1.539 . S
C629 C625 1.408 . S
C629 C628 1.404 . S
C629 H641 0.930 . S
C630 C626 1.524 . S
C630 H642 0.956 . S
C630 H643 0.961 . S
C630 H644 0.961 . S
C631 C628 1.539 . S
C631 H645 0.958 . S
C631 H646 0.961 . S
C631 H647 0.960 . S
H632 C616 0.931 . S
H633 C621 0.929 . S
H634 C622 0.960 . S
H635 C622 0.962 . S
H636 C622 0.960 . S
H637 C623 0.961 . S
H638 C623 0.961 . S
H639 C623 0.961 . S
H640 C624 0.931 . S
H641 C629 0.930 . S
H642 C630 0.956 . S
H643 C630 0.961 . S
H644 C630 0.961 . S
H645 C631 0.958 . S
H646 C631 0.961 . S
H647 C631 0.960 . S
C648 C649 1.391 . S
C648 C650 1.394 . S
C648 H664 0.931 . S
C649 C648 1.391 . S
C649 C653 1.376 . S
C650 C648 1.394 . S
C650 C651 1.369 . S
C650 C654 1.531 . S
C651 C650 1.369 . S
C651 C652 1.410 . S
C651 C659 1.503 . S
C652 C651 1.410 . S
C652 C653 1.392 . S
C652 C655 1.511 . S
C653 C649 1.376 . S
C653 C652 1.392 . S
C653 H665 0.929 . S
C654 C650 1.531 . S
C654 H666 0.960 . S
C654 H667 0.962 . S
C654 H668 0.960 . S
C655 C652 1.511 . S
C655 H669 0.961 . S
C655 H670 0.961 . S
C655 H671 0.961 . S
C656 C657 1.370 . S
C656 C658 1.363 . S
C656 H672 0.931 . S
C657 C656 1.370 . S
C657 C661 1.408 . S
C658 C656 1.363 . S
C658 C659 1.370 . S
C658 C662 1.524 . S
C659 C651 1.503 . S
C659 C658 1.370 . S
C659 C660 1.403 . S
C660 C659 1.403 . S
C660 C661 1.404 . S
C660 C663 1.539 . S
C661 C657 1.408 . S
C661 C660 1.404 . S
C661 H673 0.930 1_565 S
C662 C658 1.524 . S
C662 H674 0.956 . S
C662 H675 0.961 . S
C662 H676 0.961 . S
C663 C660 1.539 . S
C663 H677 0.958 . S
C663 H678 0.961 . S
C663 H679 0.960 . S
H664 C648 0.931 . S
H665 C653 0.929 . S
H666 C654 0.960 . S
H667 C654 0.962 . S
H668 C654 0.960 . S
H669 C655 0.961 . S
H670 C655 0.961 . S
H671 C655 0.961 . S
H672 C656 0.931 . S
H673 C661 0.930 1_545 S
H674 C662 0.956 . S
H675 C662 0.961 . S
H676 C662 0.961 . S
H677 C663 0.958 . S
H678 C663 0.961 . S
H679 C663 0.960 . S
C680 C681 1.391 . S
C680 C682 1.394 . S
C680 H696 0.931 . S
C681 C680 1.391 . S
C681 C685 1.376 . S
C682 C680 1.394 . S
C682 C683 1.369 . S
C682 C686 1.531 . S
C683 C682 1.369 . S
C683 C684 1.410 . S
C683 C691 1.503 . S
C684 C683 1.410 . S
C684 C685 1.392 . S
C684 C687 1.511 . S
C685 C681 1.376 . S
C685 C684 1.392 . S
C685 H697 0.929 1_554 S
C686 C682 1.531 . S
C686 H698 0.960 . S
C686 H699 0.962 . S
C686 H700 0.960 . S
C687 C684 1.511 . S
C687 H701 0.961 1_554 S
C687 H702 0.961 . S
C687 H703 0.961 . S
C688 C689 1.370 . S
C688 C690 1.363 . S
C688 H704 0.931 . S
C689 C688 1.370 . S
C689 C693 1.408 . S
C690 C688 1.363 . S
C690 C691 1.370 . S
C690 C694 1.524 . S
C691 C683 1.503 . S
C691 C690 1.370 . S
C691 C692 1.403 . S
C692 C691 1.403 . S
C692 C693 1.404 . S
C692 C695 1.539 . S
C693 C689 1.408 . S
C693 C692 1.404 . S
C693 H705 0.930 . S
C694 C690 1.524 . S
C694 H706 0.956 . S
C694 H707 0.961 . S
C694 H708 0.961 . S
C695 C692 1.539 . S
C695 H709 0.958 . S
C695 H710 0.961 . S
C695 H711 0.960 . S
H696 C680 0.931 . S
H697 C685 0.929 1_556 S
H698 C686 0.960 . S
H699 C686 0.962 . S
H700 C686 0.960 . S
H701 C687 0.961 1_556 S
H702 C687 0.961 . S
H703 C687 0.961 . S
H704 C688 0.931 . S
H705 C693 0.930 . S
H706 C694 0.956 . S
H707 C694 0.961 . S
H708 C694 0.961 . S
H709 C695 0.958 . S
H710 C695 0.961 . S
H711 C695 0.960 . S
C712 C713 1.391 . S
C712 C714 1.394 . S
C712 H728 0.931 . S
C713 C712 1.391 . S
C713 C717 1.376 . S
C714 C712 1.394 . S
C714 C715 1.369 . S
C714 C718 1.531 . S
C715 C714 1.369 . S
C715 C716 1.410 . S
C715 C723 1.503 . S
C716 C715 1.410 . S
C716 C717 1.392 . S
C716 C719 1.511 . S
C717 C713 1.376 . S
C717 C716 1.392 . S
C717 H729 0.929 1_545 S
C718 C714 1.531 . S
C718 H730 0.960 . S
C718 H731 0.962 . S
C718 H732 0.960 . S
C719 C716 1.511 . S
C719 H733 0.961 . S
C719 H734 0.961 . S
C719 H735 0.961 . S
C720 C721 1.370 . S
C720 C722 1.363 . S
C720 H736 0.931 . S
C721 C720 1.370 . S
C721 C725 1.408 . S
C722 C720 1.363 . S
C722 C723 1.370 . S
C722 C726 1.524 . S
C723 C715 1.503 . S
C723 C722 1.370 . S
C723 C724 1.403 . S
C724 C723 1.403 . S
C724 C725 1.404 . S
C724 C727 1.539 . S
C725 C721 1.408 . S
C725 C724 1.404 . S
C725 H737 0.930 . S
C726 C722 1.524 . S
C726 H738 0.956 . S
C726 H739 0.961 . S
C726 H740 0.961 . S
C727 C724 1.539 . S
C727 H741 0.958 . S
C727 H742 0.961 . S
C727 H743 0.960 . S
H728 C712 0.931 . S
H729 C717 0.929 1_565 S
H730 C718 0.960 . S
H731 C718 0.962 . S
H732 C718 0.960 . S
H733 C719 0.961 . S
H734 C719 0.961 . S
H735 C719 0.961 . S
H736 C720 0.931 . S
H737 C725 0.930 . S
H738 C726 0.956 . S
H739 C726 0.961 . S
H740 C726 0.961 . S
H741 C727 0.958 . S
H742 C727 0.961 . S
H743 C727 0.960 . S
C744 C745 1.391 . S
C744 C746 1.394 . S
C744 H760 0.931 . S
C745 C744 1.391 . S
C745 C749 1.376 . S
C746 C744 1.394 . S
C746 C747 1.369 . S
C746 C750 1.531 . S
C747 C746 1.369 . S
C747 C748 1.410 . S
C747 C755 1.503 . S
C748 C747 1.410 . S
C748 C749 1.392 . S
C748 C751 1.511 . S
C749 C745 1.376 . S
C749 C748 1.392 . S
C749 H761 0.929 . S
C750 C746 1.531 . S
C750 H762 0.960 . S
C750 H763 0.962 . S
C750 H764 0.960 . S
C751 C748 1.511 . S
C751 H765 0.961 . S
C751 H766 0.961 . S
C751 H767 0.961 . S
C752 C753 1.370 . S
C752 C754 1.363 . S
C752 H768 0.931 . S
C753 C752 1.370 . S
C753 C757 1.408 . S
C754 C752 1.363 . S
C754 C755 1.370 . S
C754 C758 1.524 . S
C755 C747 1.503 . S
C755 C754 1.370 . S
C755 C756 1.403 . S
C756 C755 1.403 . S
C756 C757 1.404 . S
C756 C759 1.539 . S
C757 C753 1.408 . S
C757 C756 1.404 . S
C757 H769 0.930 . S
C758 C754 1.524 . S
C758 H770 0.956 . S
C758 H771 0.961 . S
C758 H772 0.961 . S
C759 C756 1.539 . S
C759 H773 0.958 . S
C759 H774 0.961 . S
C759 H775 0.960 . S
H760 C744 0.931 . S
H761 C749 0.929 . S
H762 C750 0.960 . S
H763 C750 0.962 . S
H764 C750 0.960 . S
H765 C751 0.961 . S
H766 C751 0.961 . S
H767 C751 0.961 . S
H768 C752 0.931 . S
H769 C757 0.930 . S
H770 C758 0.956 . S
H771 C758 0.961 . S
H772 C758 0.961 . S
H773 C759 0.958 . S
H774 C759 0.961 . S
H775 C759 0.960 . S
C776 C777 1.391 . S
C776 C778 1.394 . S
C776 H792 0.931 . S
C777 C776 1.391 . S
C777 C781 1.376 . S
C778 C776 1.394 . S
C778 C779 1.369 . S
C778 C782 1.531 . S
C779 C778 1.369 . S
C779 C780 1.410 . S
C779 C787 1.503 . S
C780 C779 1.410 . S
C780 C781 1.392 . S
C780 C783 1.511 . S
C781 C777 1.376 . S
C781 C780 1.392 . S
C781 H793 0.929 . S
C782 C778 1.531 . S
C782 H794 0.960 . S
C782 H795 0.962 . S
C782 H796 0.960 . S
C783 C780 1.511 . S
C783 H797 0.961 . S
C783 H798 0.961 . S
C783 H799 0.957 1_556 S
C784 C785 1.370 . S
C784 C786 1.363 . S
C784 H800 0.931 . S
C785 C784 1.370 . S
C785 C789 1.408 . S
C786 C784 1.363 . S
C786 C787 1.370 . S
C786 C790 1.524 . S
C787 C779 1.503 . S
C787 C786 1.370 . S
C787 C788 1.403 . S
C788 C787 1.403 . S
C788 C789 1.404 . S
C788 C791 1.539 . S
C789 C785 1.408 . S
C789 C788 1.404 . S
C789 H801 0.930 . S
C790 C786 1.524 . S
C790 H802 0.956 . S
C790 H803 0.961 . S
C790 H804 0.961 . S
C791 C788 1.539 . S
C791 H805 0.958 . S
C791 H806 0.961 . S
C791 H807 0.960 . S
H792 C776 0.931 . S
H793 C781 0.929 . S
H794 C782 0.960 . S
H795 C782 0.962 . S
H796 C782 0.960 . S
H797 C783 0.961 . S
H798 C783 0.961 . S
H799 C783 0.957 1_554 S
H800 C784 0.931 . S
H801 C789 0.930 . S
H802 C790 0.956 . S
H803 C790 0.961 . S
H804 C790 0.961 . S
H805 C791 0.958 . S
H806 C791 0.961 . S
H807 C791 0.960 . S
C808 C809 1.391 . S
C808 C810 1.394 . S
C808 H824 0.931 . S
C809 C808 1.391 . S
C809 C813 1.376 . S
C810 C808 1.394 . S
C810 C811 1.369 . S
C810 C814 1.531 . S
C811 C810 1.369 . S
C811 C812 1.410 . S
C811 C819 1.503 . S
C812 C811 1.410 . S
C812 C813 1.392 . S
C812 C815 1.511 . S
C813 C809 1.376 . S
C813 C812 1.392 . S
C813 H825 0.929 . S
C814 C810 1.531 . S
C814 H826 0.960 . S
C814 H827 0.962 . S
C814 H828 0.960 . S
C815 C812 1.511 . S
C815 H829 0.961 . S
C815 H830 0.961 . S
C815 H831 0.961 . S
C816 C817 1.370 . S
C816 C818 1.363 . S
C816 H832 0.931 . S
C817 C816 1.370 . S
C817 C821 1.408 . S
C818 C816 1.363 . S
C818 C819 1.370 . S
C818 C822 1.524 . S
C819 C811 1.503 . S
C819 C818 1.370 . S
C819 C820 1.403 . S
C820 C819 1.403 . S
C820 C821 1.404 . S
C820 C823 1.539 . S
C821 C817 1.408 . S
C821 C820 1.404 . S
C821 H833 0.930 . S
C822 C818 1.524 . S
C822 H834 0.956 . S
C822 H835 0.961 . S
C822 H836 0.961 . S
C823 C820 1.539 . S
C823 H837 0.958 . S
C823 H838 0.961 . S
C823 H839 0.960 . S
H824 C808 0.931 . S
H825 C813 0.929 . S
H826 C814 0.960 . S
H827 C814 0.962 . S
H828 C814 0.960 . S
H829 C815 0.961 . S
H830 C815 0.961 . S
H831 C815 0.961 . S
H832 C816 0.931 . S
H833 C821 0.930 . S
H834 C822 0.956 . S
H835 C822 0.961 . S
H836 C822 0.961 . S
H837 C823 0.958 . S
H838 C823 0.961 . S
H839 C823 0.960 . S
C840 C841 1.391 . S
C840 C842 1.394 . S
C840 H856 0.931 . S
C841 C840 1.391 . S
C841 C845 1.376 . S
C842 C840 1.394 . S
C842 C843 1.369 . S
C842 C846 1.531 . S
C843 C842 1.369 . S
C843 C844 1.410 . S
C843 C851 1.503 . S
C844 C843 1.410 . S
C844 C845 1.392 . S
C844 C847 1.511 . S
C845 C841 1.376 . S
C845 C844 1.392 . S
C845 H857 0.929 . S
C846 C842 1.531 . S
C846 H858 0.960 . S
C846 H859 0.962 . S
C846 H860 0.960 . S
C847 C844 1.511 . S
C847 H861 0.961 . S
C847 H862 0.961 . S
C847 H863 0.961 . S
C848 C849 1.370 . S
C848 C850 1.363 . S
C848 H864 0.931 . S
C849 C848 1.370 . S
C849 C853 1.408 . S
C850 C848 1.363 . S
C850 C851 1.370 . S
C850 C854 1.524 . S
C851 C843 1.503 . S
C851 C850 1.370 . S
C851 C852 1.403 . S
C852 C851 1.403 . S
C852 C853 1.404 . S
C852 C855 1.539 . S
C853 C849 1.408 . S
C853 C852 1.404 . S
C853 H865 0.930 . S
C854 C850 1.524 . S
C854 H866 0.956 . S
C854 H867 0.961 . S
C854 H868 0.961 . S
C855 C852 1.539 . S
C855 H869 0.958 . S
C855 H870 0.961 . S
C855 H871 0.960 . S
H856 C840 0.931 . S
H857 C845 0.929 . S
H858 C846 0.960 . S
H859 C846 0.962 . S
H860 C846 0.960 . S
H861 C847 0.961 . S
H862 C847 0.961 . S
H863 C847 0.961 . S
H864 C848 0.931 . S
H865 C853 0.930 . S
H866 C854 0.956 . S
H867 C854 0.961 . S
H868 C854 0.961 . S
H869 C855 0.958 . S
H870 C855 0.961 . S
H871 C855 0.960 . S
C872 C873 1.391 . S
C872 C874 1.394 . S
C872 H888 0.931 . S
C873 C872 1.391 . S
C873 C877 1.376 . S
C874 C872 1.394 . S
C874 C875 1.369 . S
C874 C878 1.531 . S
C875 C874 1.369 . S
C875 C876 1.410 . S
C875 C883 1.503 . S
C876 C875 1.410 . S
C876 C877 1.392 . S
C876 C879 1.511 . S
C877 C873 1.376 . S
C877 C876 1.392 . S
C877 H889 0.929 . S
C878 C874 1.531 . S
C878 H890 0.960 . S
C878 H891 0.962 . S
C878 H892 0.960 . S
C879 C876 1.511 . S
C879 H893 0.961 . S
C879 H894 0.961 . S
C879 H895 0.961 . S
C880 C881 1.370 . S
C880 C882 1.363 . S
C880 H896 0.931 . S
C881 C880 1.370 . S
C881 C885 1.408 . S
C882 C880 1.363 . S
C882 C883 1.370 . S
C882 C886 1.524 . S
C883 C875 1.503 . S
C883 C882 1.370 . S
C883 C884 1.403 . S
C884 C883 1.403 . S
C884 C885 1.404 . S
C884 C887 1.539 . S
C885 C881 1.408 . S
C885 C884 1.404 . S
C885 H897 0.930 . S
C886 C882 1.524 . S
C886 H898 0.956 . S
C886 H899 0.961 . S
C886 H900 0.961 . S
C887 C884 1.539 . S
C887 H901 0.958 . S
C887 H902 0.961 . S
C887 H903 0.960 . S
H888 C872 0.931 . S
H889 C877 0.929 . S
H890 C878 0.960 . S
H891 C878 0.962 . S
H892 C878 0.960 . S
H893 C879 0.961 . S
H894 C879 0.961 . S
H895 C879 0.961 . S
H896 C880 0.931 . S
H897 C885 0.930 . S
H898 C886 0.956 . S
H899 C886 0.961 . S
H900 C886 0.961 . S
H901 C887 0.958 . S
H902 C887 0.961 . S
H903 C887 0.960 . S
C265 N167 1.280 . S
C273 N2 1.247 1_554 S
C297 N200 1.230 1_655 S
C305 N35 1.265 1_545 S
C329 N68 1.281 . S
C337 N233 1.247 . S
C361 N134 1.283 1_455 S
C369 N101 1.247 1_565 S
C393 C252 0.879 . S
C401 C21 0.889 . S
C425 C54 0.895 . S
C433 C153 0.896 . S
C457 C186 0.886 . S
C465 C87 0.892 . S
C489 C120 0.885 . S
C497 C219 0.892 . S
C521 C249 1.607 . S
C529 C18 1.583 . S
C553 C51 1.575 . S
C561 C150 1.596 . S
C585 C183 1.610 . S
C593 C84 1.581 . S
C617 C216 1.584 . S
C625 C117 1.593 . S
C649 N13 1.668 . S
C657 C106 1.665 1_565 S
C681 C7 1.650 . S
C689 N46 1.688 . S
C713 C40 1.695 1_545 S
C721 N79 1.670 . S
C745 C73 1.694 . S
C753 N112 1.672 . S
C777 N145 1.646 . S
C785 C172 1.682 1_556 S
C809 C205 1.661 1_655 S
C817 N178 1.686 . S
C841 C238 1.640 . S
C849 N211 1.687 . S
C873 N244 1.675 . S
C881 C139 1.679 1_455 S
