# Generated by pormake.
# Topology msp, (4)-cn, num edge types: 1
# Building blocks:
#     Node 0, Type 0, BuildingBlock: NAWXER_clean_sbu_0, # of connection points: 4
#     Node 1, Type 0, BuildingBlock: NAWXER_clean_sbu_0, # of connection points: 4
#     Node 2, Type 0, BuildingBlock: NAWXER_clean_sbu_0, # of connection points: 4
#     Node 3, Type 0, BuildingBlock: NAWXER_clean_sbu_0, # of connection points: 4
#     Node 4, Type 0, BuildingBlock: NAWXER_clean_sbu_0, # of connection points: 4
#     Node 5, Type 0, BuildingBlock: NAWXER_clean_sbu_0, # of connection points: 4
#     Node 6, Type 0, BuildingBlock: NAWXER_clean_sbu_0, # of connection points: 4
#     Node 7, Type 0, BuildingBlock: NAWXER_clean_sbu_0, # of connection points: 4
#     Edge 8, Type (0, 0), BuildingBlock: FUNLAD_clean_linker_1, # of connection points: 2
#     Edge 9, Type (0, 0), BuildingBlock: FUNLAD_clean_linker_1, # of connection points: 2
#     Edge 10, Type (0, 0), BuildingBlock: FUNLAD_clean_linker_1, # of connection points: 2
#     Edge 11, Type (0, 0), BuildingBlock: FUNLAD_clean_linker_1, # of connection points: 2
#     Edge 12, Type (0, 0), BuildingBlock: FUNLAD_clean_linker_1, # of connection points: 2
#     Edge 13, Type (0, 0), BuildingBlock: FUNLAD_clean_linker_1, # of connection points: 2
#     Edge 14, Type (0, 0), BuildingBlock: FUNLAD_clean_linker_1, # of connection points: 2
#     Edge 15, Type (0, 0), BuildingBlock: FUNLAD_clean_linker_1, # of connection points: 2
#     Edge 16, Type (0, 0), BuildingBlock: FUNLAD_clean_linker_1, # of connection points: 2
#     Edge 17, Type (0, 0), BuildingBlock: FUNLAD_clean_linker_1, # of connection points: 2
#     Edge 18, Type (0, 0), BuildingBlock: FUNLAD_clean_linker_1, # of connection points: 2
#     Edge 19, Type (0, 0), BuildingBlock: FUNLAD_clean_linker_1, # of connection points: 2
#     Edge 20, Type (0, 0), BuildingBlock: FUNLAD_clean_linker_1, # of connection points: 2
#     Edge 21, Type (0, 0), BuildingBlock: FUNLAD_clean_linker_1, # of connection points: 2
#     Edge 22, Type (0, 0), BuildingBlock: FUNLAD_clean_linker_1, # of connection points: 2
#     Edge 23, Type (0, 0), BuildingBlock: FUNLAD_clean_linker_1, # of connection points: 2
# Relax obj value: 0.113
# Max RMSD: 0.238
# Mean RMSD: 0.238
data_MOF--net-msp--node1-NAWXER_clean_sbu_0--edge1-FUNLAD_clean_linker_1
_symmetry_space_group_name_H-M    P1
_symmetry_Int_Tables_number       1
_symmetry_cell_setting            triclinic
loop_
_symmetry_equiv_pos_as_xyz
'x, y, z'
_cell_length_a     23.517066
_cell_length_b     20.279424
_cell_length_c     45.662418
_cell_angle_alpha  90.196799
_cell_angle_beta   100.80337
_cell_angle_gamma 89.945879
loop_
_atom_site_label
_atom_site_type_symbol
_atom_site_fract_x
_atom_site_fract_y
_atom_site_fract_z
_atom_type_partial_charge
C0 C 0.14259 0.26303 0.40713 0.0
C1 C 0.96817 0.28133 0.33118 0.0
O2 O 0.14091 0.31645 0.39211 0.0
Zn3 Zn 0.0815 0.36546 0.3572 0.0
O4 O 0.10113 0.22183 0.40169 0.0
Zn5 Zn 0.05531 0.27254 0.37028 0.0
O6 O 0.11047 0.27078 0.33674 0.0
O7 O 0.12901 0.37484 0.32762 0.0
O8 O 0.98154 0.23693 0.35075 0.0
O9 O 1.00157 0.33111 0.33099 0.0
O10 O 0.06359 0.44391 0.37836 0.0
O11 O 0.03435 0.35302 0.39719 0.0
C12 C 0.13546 0.31379 0.32283 0.0
C13 C 0.04113 0.41572 0.39822 0.0
C14 C 0.39858 0.37732 0.69924 0.0
C15 C 0.49097 0.45021 0.61872 0.0
O16 O 0.42253 0.32881 0.68808 0.0
Zn17 Zn 0.47499 0.31597 0.65431 0.0
O18 O 0.40523 0.43543 0.69036 0.0
Zn19 Zn 0.45165 0.41298 0.66132 0.0
O20 O 0.39179 0.35604 0.6282 0.0
O21 O 0.4278 0.25491 0.62879 0.0
O22 O 0.47058 0.48434 0.63764 0.0
O23 O 0.49609 0.38741 0.6221 0.0
O24 O 0.54722 0.28148 0.67486 0.0
O25 O 0.53376 0.38416 0.6878 0.0
C26 C 0.38868 0.29628 0.61856 0.0
C27 C 0.56476 0.33172 0.69048 0.0
C28 C 0.90645 0.62929 0.69437 0.0
C29 C 0.99614 0.5422 0.61416 0.0
O30 O 0.91293 0.56942 0.68748 0.0
Zn31 Zn 0.95844 0.58457 0.65722 0.0
O32 O 0.93075 0.67497 0.68164 0.0
Zn33 Zn 0.98424 0.6802 0.64766 0.0
O34 O 0.93747 0.73652 0.61873 0.0
O35 O 0.89814 0.63948 0.62473 0.0
O36 O 1.00393 0.60461 0.61744 0.0
O37 O 0.97351 0.51052 0.63299 0.0
O38 O 0.04153 0.61252 0.68235 0.0
O39 O 0.05841 0.71315 0.66814 0.0
C40 C 0.89589 0.69578 0.61192 0.0
C41 C 0.0744 0.66333 0.68434 0.0
C42 C 0.44119 0.72793 0.33617 0.0
C43 C 0.61885 0.75086 0.40897 0.0
O44 O 0.4593 0.77596 0.35318 0.0
Zn45 Zn 0.53173 0.73843 0.37257 0.0
O46 O 0.47171 0.67529 0.33728 0.0
Zn47 Zn 0.5533 0.64214 0.36254 0.0
O48 O 0.53352 0.56757 0.38416 0.0
O49 O 0.5098 0.66238 0.40256 0.0
O50 O 0.61417 0.69314 0.39708 0.0
O51 O 0.58087 0.79463 0.40028 0.0
O52 O 0.58334 0.73011 0.33807 0.0
O53 O 0.59916 0.62385 0.3329 0.0
C54 C 0.51402 0.5992 0.40415 0.0
C55 C 0.60638 0.68297 0.3255 0.0
C56 C 0.62704 0.83689 0.82351 0.0
C57 C 0.52119 0.90959 0.90027 0.0
O58 O 0.60499 0.78846 0.83558 0.0
Zn59 Zn 0.54903 0.7756 0.86765 0.0
O60 O 0.61561 0.89561 0.83022 0.0
Zn61 Zn 0.56778 0.87501 0.85906 0.0
O62 O 0.62849 0.82671 0.8934 0.0
O63 O 0.59778 0.72498 0.8984 0.0
O64 O 0.54428 0.94578 0.88302 0.0
O65 O 0.51834 0.84712 0.89605 0.0
O66 O 0.47959 0.73516 0.84547 0.0
O67 O 0.48866 0.83864 0.83241 0.0
C68 C 0.63425 0.77088 0.90661 0.0
C69 C 0.46035 0.78425 0.82945 0.0
C70 C 0.88207 0.87248 0.19304 0.0
C71 C 0.98332 0.94496 0.11588 0.0
O72 O 0.91055 0.82466 0.1842 0.0
Zn73 Zn 0.96929 0.81302 0.15315 0.0
O74 O 0.8866 0.92997 0.18297 0.0
Zn75 Zn 0.93877 0.90857 0.15677 0.0
O76 O 0.88644 0.84476 0.12332 0.0
O77 O 0.92983 0.74744 0.12691 0.0
O78 O 0.95761 0.9794 0.13262 0.0
O79 O 0.99139 0.88308 0.12102 0.0
O80 O 0.04172 0.78621 0.17678 0.0
O81 O 0.01955 0.88839 0.18657 0.0
C82 C 0.88896 0.78465 0.11455 0.0
C83 C 0.05404 0.839 0.1915 0.0
C84 C 0.52979 0.09353 0.11293 0.0
C85 C 0.4186 0.12819 0.19199 0.0
O86 O 0.51209 0.04995 0.12908 0.0
Zn87 Zn 0.48064 0.10991 0.15502 0.0
O88 O 0.52456 0.15481 0.11892 0.0
Zn89 Zn 0.48508 0.21286 0.14956 0.0
O90 O 0.54634 0.26226 0.17349 0.0
O91 O 0.55561 0.15542 0.18214 0.0
O92 O 0.43304 0.18236 0.18098 0.0
O93 O 0.43778 0.07396 0.18382 0.0
O94 O 0.4127 0.1535 0.12225 0.0
O95 O 0.42972 0.26073 0.12116 0.0
C96 C 0.57428 0.21461 0.18715 0.0
C97 C 0.39933 0.21076 0.11128 0.0
C98 C 0.95108 0.20702 0.83304 0.0
C99 C 0.11984 0.24186 0.91013 0.0
O100 O 0.96519 0.25574 0.85028 0.0
Zn101 Zn 0.03738 0.22278 0.87159 0.0
O102 O 0.98426 0.15641 0.83509 0.0
Zn103 Zn 0.06589 0.129 0.86245 0.0
O104 O 0.04768 0.05208 0.88319 0.0
O105 O 0.01602 0.1444 0.90029 0.0
O106 O 0.12096 0.18441 0.89821 0.0
O107 O 0.07884 0.28148 0.90055 0.0
O108 O 0.09413 0.21997 0.83931 0.0
O109 O 0.11573 0.11516 0.83424 0.0
C110 C 0.0235 0.08165 0.90209 0.0
C111 C 0.12098 0.17505 0.8274 0.0
H112 H 0.05316 0.50085 0.42899 0.0
C113 C 0.03223 0.45306 0.42495 0.0
H114 H 0.9854 0.37836 0.4417 0.0
H115 H 0.08925 0.42859 0.57709 0.0
H116 H 0.11651 0.31547 0.5696 0.0
H117 H 0.09349 0.26383 0.51984 0.0
H118 H 0.0455 0.32554 0.47721 0.0
C119 C 1.00575 0.42639 0.44589 0.0
C120 C 1.01099 0.4554 0.47658 0.0
C121 C 0.03573 0.41689 0.50177 0.0
C122 C 0.04619 0.44541 0.53088 0.0
C123 C 0.07669 0.40801 0.55495 0.0
C124 C 0.09325 0.34321 0.55091 0.0
C125 C 0.08035 0.31419 0.5229 0.0
C126 C 0.05232 0.35036 0.49855 0.0
H127 H 0.98547 0.46073 0.58153 0.0
C128 C 1.00519 0.50893 0.58647 0.0
H129 H 0.05043 0.587 0.57109 0.0
H130 H 0.95315 0.53957 0.43443 0.0
H131 H 0.92788 0.65332 0.44188 0.0
H132 H 0.94922 0.70399 0.49188 0.0
H133 H 0.99399 0.6408 0.53475 0.0
C134 C 0.03126 0.5386 0.56611 0.0
C135 C 0.02806 0.51092 0.53528 0.0
C136 C 1.00386 0.54967 0.51008 0.0
C137 C 0.99395 0.52141 0.4809 0.0
C138 C 0.96509 0.55963 0.45669 0.0
C139 C 0.94966 0.62487 0.46071 0.0
C140 C 0.96162 0.65335 0.48885 0.0
C141 C 0.9877 0.61631 0.51335 0.0
H142 H 0.50773 0.50983 0.43064 0.0
C143 C 0.50333 0.56322 0.43066 0.0
H144 H 0.49448 0.64755 0.45657 0.0
H145 H 0.42411 0.39015 0.53537 0.0
H146 H 0.34475 0.37046 0.49411 0.0
H147 H 0.33293 0.43813 0.44869 0.0
H148 H 0.40158 0.52462 0.4438 0.0
C149 C 0.49581 0.59402 0.45579 0.0
C150 C 0.49906 0.55695 0.4843 0.0
C151 C 0.45758 0.50774 0.48718 0.0
C152 C 0.46321 0.4703 0.51391 0.0
C153 C 0.42166 0.42071 0.51584 0.0
C154 C 0.37571 0.40895 0.49235 0.0
C155 C 0.36926 0.44681 0.46668 0.0
C156 C 0.40936 0.49591 0.46406 0.0
H157 H 0.49806 0.53622 0.59036 0.0
C158 C 0.50234 0.48284 0.59154 0.0
H159 H 0.51207 0.3957 0.5676 0.0
H160 H 0.5858 0.64825 0.48665 0.0
H161 H 0.66608 0.66646 0.52764 0.0
H162 H 0.67683 0.59985 0.57332 0.0
H163 H 0.60676 0.51517 0.57859 0.0
C164 C 0.51072 0.44926 0.56725 0.0
C165 C 0.50903 0.48374 0.53822 0.0
C166 C 0.55093 0.53231 0.5352 0.0
C167 C 0.5455 0.56954 0.50843 0.0
C168 C 0.58782 0.61813 0.50629 0.0
C169 C 0.63427 0.62908 0.52962 0.0
C170 C 0.64022 0.59172 0.55542 0.0
C171 C 0.59933 0.54368 0.55826 0.0
H172 H 0.57111 0.11283 0.07424 0.0
C173 C 0.54819 0.07582 0.0847 0.0
H174 H 0.50025 0.98746 0.07818 0.0
H175 H 0.42967 0.03286 0.93922 0.0
H176 H 0.34255 0.07018 0.95551 0.0
H177 H 0.34052 0.0841 1.00898 0.0
H178 H 0.42534 0.05994 0.04654 0.0
C179 C 0.52759 0.02194 0.06901 0.0
C180 C 0.53022 0.01554 0.03673 0.0
C181 C 0.48007 0.02931 0.01499 0.0
C182 C 0.48115 0.0212 0.9841 0.0
C183 C 0.43085 0.03681 0.96296 0.0
C184 C 0.38064 0.05862 0.972 0.0
C185 C 0.37948 0.06642 1.00211 0.0
C186 C 0.42849 0.05224 0.02344 0.0
H187 H 0.47787 0.90562 0.939 0.0
C188 C 0.50553 0.93589 0.92791 0.0
H189 H 0.56523 0.01436 0.93296 0.0
H190 H 0.634 0.98673 0.07245 0.0
H191 H 0.72125 0.94925 0.05625 0.0
H192 H 0.72232 0.93125 1.00293 0.0
H193 H 0.63702 0.95277 0.96536 0.0
C194 C 0.53356 0.98729 0.94272 0.0
C195 C 0.53222 0.99857 0.97495 0.0
C196 C 0.58258 0.98548 0.99672 0.0
C197 C 0.58167 0.99446 0.02759 0.0
C198 C 0.63247 0.98101 0.04875 0.0
C199 C 0.68278 0.95931 0.03977 0.0
C200 C 0.68342 0.94926 1.00973 0.0
C201 C 0.63407 0.96195 0.98838 0.0
H202 H 0.99619 0.02866 0.08712 0.0
C203 C 0.99783 0.97521 0.08892 0.0
H204 H 1.00262 0.88542 0.06593 0.0
H205 H 0.90322 0.01883 0.94143 0.0
H206 H 0.82155 0.95209 0.94893 0.0
H207 H 0.82339 0.89316 0.99624 0.0
H208 H 0.90665 0.90085 0.03645 0.0
C209 C 1.00503 0.9389 0.06521 0.0
C210 C 1.00621 0.97069 0.036 0.0
C211 C 0.95748 0.96484 0.01254 0.0
C212 C 0.95659 0.99842 0.98513 0.0
C213 C 0.90661 0.99347 0.96248 0.0
C214 C 0.85931 0.95555 0.96654 0.0
C215 C 0.86031 0.92239 0.99319 0.0
C216 C 0.90852 0.92708 0.01606 0.0
H217 H 0.01277 0.99093 0.92711 0.0
C218 C 1.01046 0.04445 0.92775 0.0
H219 H 1.00575 0.1282 0.95473 0.0
H220 H 0.10848 0.9865 0.0753 0.0
H221 H 0.19208 0.04877 0.06699 0.0
H222 H 0.19151 0.10501 0.01919 0.0
H223 H 0.10673 0.10125 0.97965 0.0
C224 C 1.00383 0.07473 0.95312 0.0
C225 C 1.00484 0.03695 0.98112 0.0
C226 C 0.05444 0.04069 1.00419 0.0
C227 C 0.05508 0.00762 0.03167 0.0
C228 C 0.10544 0.01139 0.05415 0.0
C229 C 0.15384 0.04666 0.04962 0.0
C230 C 0.15346 0.0785 0.02271 0.0
C231 C 0.10444 0.07595 1.00022 0.0
H232 H 0.623 0.26987 0.22513 0.0
C233 C 0.62544 0.22836 0.21032 0.0
H234 H 0.67647 0.15248 0.19751 0.0
H235 H 0.835 0.36289 0.29688 0.0
H236 H 0.79741 0.45151 0.26329 0.0
H237 H 0.73232 0.42786 0.21543 0.0
H238 H 0.70177 0.31596 0.20191 0.0
C239 C 0.6746 0.19317 0.21285 0.0
C240 C 0.72589 0.20591 0.23717 0.0
C241 C 0.74881 0.27059 0.24285 0.0
C242 C 0.79196 0.28327 0.26857 0.0
C243 C 0.80677 0.34967 0.27621 0.0
C244 C 0.78489 0.40117 0.2573 0.0
C245 C 0.74789 0.38793 0.2305 0.0
C246 C 0.73002 0.32351 0.22322 0.0
H247 H 0.91831 0.29704 0.28597 0.0
C248 C 0.91681 0.2742 0.3073 0.0
H249 H 0.868 0.21904 0.33263 0.0
H250 H 0.6932 0.07553 0.23322 0.0
H251 H 0.73987 0.98553 0.26308 0.0
H252 H 0.82434 0.00557 0.303 0.0
H253 H 0.86206 0.1155 0.31364 0.0
C254 C 0.86908 0.24135 0.31113 0.0
C255 C 0.81885 0.23 0.28608 0.0
C256 C 0.79858 0.1647 0.27927 0.0
C257 C 0.75118 0.15288 0.25538 0.0
C258 C 0.73008 0.0875 0.25034 0.0
C259 C 0.75633 0.03516 0.26742 0.0
C260 C 0.80381 0.0464 0.28992 0.0
C261 C 0.82487 0.11012 0.29588 0.0
H262 H 0.63262 0.37312 0.72586 0.0
C263 C 0.61947 0.32946 0.71242 0.0
H264 H 0.64019 0.23102 0.70308 0.0
H265 H 0.90698 0.26475 0.75785 0.0
H266 H 0.90979 0.26486 0.70509 0.0
H267 H 0.81958 0.26768 0.6675 0.0
H268 H 0.72597 0.27095 0.68252 0.0
C269 C 0.65199 0.27454 0.71682 0.0
C270 C 0.70608 0.27172 0.73967 0.0
C271 C 0.76038 0.26831 0.73053 0.0
C272 C 0.81236 0.26553 0.75222 0.0
C273 C 0.86607 0.265 0.74241 0.0
C274 C 0.86834 0.2655 0.71215 0.0
C275 C 0.81756 0.26717 0.69099 0.0
C276 C 0.76411 0.26885 0.69993 0.0
H277 H 0.88612 0.16555 0.79628 0.0
C278 C 0.89755 0.20882 0.81026 0.0
H279 H 0.87399 0.30578 0.82024 0.0
H280 H 0.60885 0.27196 0.76477 0.0
H281 H 0.60594 0.27116 0.81753 0.0
H282 H 0.69609 0.2676 0.85514 0.0
H283 H 0.7897 0.26443 0.84017 0.0
C284 C 0.86378 0.26279 0.80596 0.0
C285 C 0.80977 0.26475 0.78302 0.0
C286 C 0.75543 0.26785 0.79214 0.0
C287 C 0.70348 0.27078 0.77046 0.0
C288 C 0.64974 0.27139 0.78023 0.0
C289 C 0.64741 0.27052 0.81048 0.0
C290 C 0.69815 0.26846 0.83166 0.0
C291 C 0.75162 0.26687 0.82274 0.0
H292 H 0.13991 0.62034 0.72021 0.0
C293 C 0.12952 0.66351 0.70617 0.0
H294 H 0.15517 0.75957 0.69664 0.0
H295 H 0.30656 0.80868 0.82443 0.0
H296 H 0.22501 0.88097 0.82558 0.0
H297 H 0.13975 0.87932 0.78485 0.0
H298 H 0.13538 0.80489 0.74287 0.0
C299 C 0.16601 0.71521 0.7098 0.0
C300 C 0.21865 0.71659 0.7339 0.0
C301 C 0.22131 0.76166 0.75797 0.0
C302 C 0.2711 0.76365 0.78117 0.0
C303 C 0.27101 0.8068 0.80563 0.0
C304 C 0.22416 0.84819 0.80673 0.0
C305 C 0.17612 0.84719 0.78383 0.0
C306 C 0.17432 0.80433 0.75978 0.0
H307 H 0.39303 0.82265 0.79326 0.0
C308 C 0.40607 0.77976 0.80712 0.0
H309 H 0.3859 0.68158 0.81653 0.0
H310 H 0.22952 0.62674 0.69029 0.0
H311 H 0.31038 0.55296 0.68962 0.0
H312 H 0.3961 0.55555 0.73005 0.0
H313 H 0.40166 0.63222 0.77132 0.0
C314 C 0.37262 0.72542 0.8034 0.0
C315 C 0.31903 0.72176 0.7799 0.0
C316 C 0.31599 0.67592 0.75609 0.0
C317 C 0.26606 0.67372 0.73295 0.0
C318 C 0.26544 0.62924 0.7089 0.0
C319 C 0.31181 0.5869 0.70809 0.0
C320 C 0.36011 0.58841 0.73084 0.0
C321 C 0.36262 0.63258 0.75448 0.0
H322 H 0.37383 0.69111 0.2995 0.0
C323 C 0.38602 0.73236 0.31464 0.0
H324 H 0.36354 0.82762 0.3275 0.0
H325 H 0.20509 0.89313 0.20309 0.0
H326 H 0.28305 0.97185 0.20501 0.0
H327 H 0.36817 0.96885 0.24578 0.0
H328 H 0.3761 0.88671 0.2847 0.0
C329 C 0.35111 0.78538 0.31301 0.0
C330 C 0.29717 0.79024 0.28996 0.0
C331 C 0.29246 0.83972 0.26771 0.0
C332 C 0.24283 0.84212 0.24444 0.0
C333 C 0.24076 0.89013 0.22179 0.0
C334 C 0.28545 0.93547 0.22249 0.0
C335 C 0.33343 0.93373 0.24541 0.0
C336 C 0.33733 0.88631 0.26768 0.0
H337 H 0.11333 0.887 0.22883 0.0
C338 C 0.10696 0.84341 0.21467 0.0
H339 H 0.13973 0.75047 0.20516 0.0
H340 H 0.28778 0.69617 0.33181 0.0
H341 H 0.20921 0.61841 0.33042 0.0
H342 H 0.12432 0.62069 0.28949 0.0
H343 H 0.11732 0.70116 0.24988 0.0
C344 C 0.1466 0.79481 0.21881 0.0
C345 C 0.19745 0.7957 0.2438 0.0
C346 C 0.2014 0.74753 0.26657 0.0
C347 C 0.2509 0.74531 0.28986 0.0
C348 C 0.25234 0.69854 0.31297 0.0
C349 C 0.20721 0.65395 0.31262 0.0
C350 C 0.15939 0.6553 0.2896 0.0
C351 C 0.1561 0.70163 0.2669 0.0
H352 H 0.37214 0.0837 0.22511 0.0
C353 C 0.37913 0.12906 0.21372 0.0
H354 H 0.35898 0.23017 0.20811 0.0
H355 H 0.1344 0.14384 0.26661 0.0
H356 H 0.10777 0.06997 0.22438 0.0
H357 H 0.17391 0.05103 0.18918 0.0
H358 H 0.26705 0.10548 0.19602 0.0
C359 C 0.35122 0.18451 0.21912 0.0
C360 C 0.31327 0.18873 0.24183 0.0
C361 C 0.25853 0.15691 0.23725 0.0
C362 C 0.21991 0.16864 0.25734 0.0
C363 C 0.1654 0.13668 0.25212 0.0
C364 C 0.14948 0.09427 0.22792 0.0
C365 C 0.18673 0.08358 0.20811 0.0
C366 C 0.24038 0.11487 0.21244 0.0
H367 H 0.19062 0.33152 0.28957 0.0
C368 C 0.17406 0.29332 0.30237 0.0
H369 H 0.17626 0.19195 0.31316 0.0
H370 H 0.4169 0.25233 0.25867 0.0
H371 H 0.44576 0.32076 0.30257 0.0
H372 H 0.38004 0.33823 0.33811 0.0
H373 H 0.28491 0.28808 0.32978 0.0
C374 C 0.19263 0.23082 0.30067 0.0
C375 C 0.23558 0.21304 0.2816 0.0
C376 C 0.29186 0.24118 0.28728 0.0
C377 C 0.3303 0.22979 0.26716 0.0
C378 C 0.38582 0.25952 0.27312 0.0
C379 C 0.40311 0.29864 0.29834 0.0
C380 C 0.36609 0.30856 0.31832 0.0
C381 C 0.31126 0.28001 0.31308 0.0
H382 H 0.34186 0.4084 0.73023 0.0
C383 C 0.36069 0.36585 0.72106 0.0
H384 H 0.36239 0.26192 0.71815 0.0
H385 H 0.25324 0.30211 0.84096 0.0
H386 H 0.34783 0.34454 0.8634 0.0
H387 H 0.42256 0.36338 0.83296 0.0
H388 H 0.40312 0.34005 0.77991 0.0
C389 C 0.34604 0.30482 0.72827 0.0
C390 C 0.30142 0.29391 0.74693 0.0
C391 C 0.31359 0.30785 0.77793 0.0
C392 C 0.27066 0.29635 0.79553 0.0
C393 C 0.28412 0.3101 0.8265 0.0
C394 C 0.33831 0.33436 0.83969 0.0
C395 C 0.38037 0.34501 0.82255 0.0
C396 C 0.3685 0.33176 0.79206 0.0
H397 H 0.17957 0.15219 0.79628 0.0
C398 C 0.15954 0.19223 0.80659 0.0
H399 H 0.15508 0.29547 0.81223 0.0
H400 H 0.26384 0.26289 0.68804 0.0
H401 H 0.16897 0.22141 0.66554 0.0
H402 H 0.09405 0.20327 0.69592 0.0
H403 H 0.11367 0.22616 0.74901 0.0
C404 C 0.1726 0.2549 0.80108 0.0
C405 C 0.21602 0.27011 0.78217 0.0
C406 C 0.20355 0.25719 0.75108 0.0
C407 C 0.24649 0.26852 0.7335 0.0
C408 C 0.23294 0.25502 0.70251 0.0
C409 C 0.17857 0.23136 0.68926 0.0
C410 C 0.13641 0.22108 0.70637 0.0
C411 C 0.14841 0.234 0.73689 0.0
H412 H 0.68396 0.86704 0.79242 0.0
C413 C 0.6675 0.82482 0.80284 0.0
H414 H 0.66933 0.72119 0.80751 0.0
H415 H 0.75766 0.66254 0.68763 0.0
H416 H 0.65738 0.62889 0.67397 0.0
H417 H 0.58845 0.65067 0.70745 0.0
H418 H 0.61936 0.70685 0.75471 0.0
C419 C 0.68628 0.7639 0.79768 0.0
C420 C 0.72838 0.75178 0.7775 0.0
C421 C 0.71003 0.71766 0.7502 0.0
C422 C 0.75011 0.70396 0.73113 0.0
C423 C 0.72973 0.67235 0.70344 0.0
C424 C 0.67207 0.65319 0.69518 0.0
C425 C 0.63325 0.66553 0.71401 0.0
C426 C 0.65166 0.69763 0.74114 0.0
H427 H 0.84982 0.60528 0.72638 0.0
C428 C 0.86798 0.6457 0.71554 0.0
H429 H 0.86985 0.74901 0.70976 0.0
H430 H 0.77935 0.814 0.8292 0.0
H431 H 0.87951 0.84823 0.8427 0.0
H432 H 0.94849 0.82609 0.80929 0.0
H433 H 0.91774 0.76903 0.76222 0.0
C434 C 0.8516 0.70794 0.72012 0.0
C435 C 0.80899 0.72307 0.73971 0.0
C436 C 0.8272 0.75786 0.76684 0.0
C437 C 0.78709 0.77165 0.7859 0.0
C438 C 0.80733 0.80387 0.81345 0.0
C439 C 0.86491 0.82344 0.8216 0.0
C440 C 0.90377 0.8109 0.80281 0.0
C441 C 0.88548 0.77825 0.7758 0.0
H442 H 0.81952 0.9035 0.22086 0.0
C443 C 0.84227 0.8612 0.21393 0.0
H444 H 0.85198 0.75767 0.2158 0.0
H445 H 0.72889 0.82315 0.3329 0.0
H446 H 0.81865 0.87847 0.35381 0.0
H447 H 0.89539 0.89256 0.32422 0.0
H448 H 0.88251 0.85214 0.27342 0.0
C449 C 0.83146 0.80076 0.22351 0.0
C450 C 0.78645 0.79025 0.24202 0.0
C451 C 0.79482 0.81398 0.27178 0.0
C452 C 0.75091 0.80483 0.289 0.0
C453 C 0.76058 0.82879 0.31872 0.0
C454 C 0.81206 0.86048 0.33107 0.0
C455 C 0.85524 0.86844 0.31441 0.0
C456 C 0.84705 0.84546 0.28515 0.0
H457 H 0.66487 0.65512 0.29502 0.0
C458 C 0.64389 0.69669 0.30373 0.0
H459 H 0.63602 0.80032 0.30489 0.0
H460 H 0.7569 0.73827 0.18577 0.0
H461 H 0.66697 0.68331 0.16471 0.0
H462 H 0.58994 0.66967 0.19417 0.0
H463 H 0.60256 0.71052 0.24491 0.0
C464 C 0.65513 0.75822 0.29557 0.0
C465 C 0.6992 0.77081 0.27666 0.0
C466 C 0.69062 0.74768 0.24678 0.0
C467 C 0.73461 0.7567 0.22959 0.0
C468 C 0.72504 0.73276 0.19988 0.0
C469 C 0.67351 0.70125 0.18745 0.0
C470 C 0.63019 0.69349 0.20405 0.0
C471 C 0.63824 0.71667 0.23329 0.0
H472 H 0.32205 0.23024 0.59366 0.0
C473 C 0.34368 0.27745 0.59324 0.0
H474 H 0.35928 0.35982 0.56823 0.0
H475 H 0.23321 0.13288 0.46921 0.0
H476 H 0.31026 0.05794 0.4908 0.0
H477 H 0.38447 0.09228 0.53375 0.0
H478 H 0.38109 0.20036 0.55589 0.0
C479 C 0.33579 0.31369 0.5683 0.0
C480 C 0.29554 0.29407 0.54048 0.0
C481 C 0.3006 0.23164 0.52682 0.0
C482 C 0.26011 0.21324 0.50091 0.0
C483 C 0.26376 0.14961 0.48855 0.0
C484 C 0.30779 0.10624 0.50065 0.0
C485 C 0.34942 0.12549 0.5249 0.0
C486 C 0.34637 0.1875 0.53775 0.0
H487 H 0.23115 0.27689 0.43188 0.0
C488 C 0.18914 0.25586 0.43312 0.0
H489 H 0.13338 0.22629 0.46187 0.0
H490 H 0.27457 0.41871 0.55998 0.0
H491 H 0.20794 0.49894 0.53353 0.0
H492 H 0.14732 0.4718 0.48486 0.0
H493 H 0.15039 0.36287 0.46328 0.0
C494 C 0.17688 0.24101 0.45979 0.0
C495 C 0.21819 0.2591 0.48729 0.0
C496 C 0.21675 0.32359 0.49921 0.0
C497 C 0.254 0.34034 0.52642 0.0
C498 C 0.24902 0.40388 0.53878 0.0
C499 C 0.21081 0.45052 0.52386 0.0
C500 C 0.17662 0.43521 0.4965 0.0
C501 C 0.17895 0.37243 0.48434 0.0
H502 H 0.80884 0.67784 0.58606 0.0
C503 C 0.84726 0.70836 0.58733 0.0
H504 H 0.89199 0.77413 0.5638 0.0
H505 H 0.73718 0.61628 0.45145 0.0
H506 H 0.80663 0.529 0.46632 0.0
H507 H 0.8777 0.53667 0.51327 0.0
H508 H 0.88197 0.63348 0.54474 0.0
C509 C 0.85299 0.74549 0.56384 0.0
C510 C 0.80933 0.74065 0.53584 0.0
C511 C 0.80811 0.68397 0.51743 0.0
C512 C 0.76574 0.67848 0.49092 0.0
C513 C 0.76692 0.6223 0.47242 0.0
C514 C 0.80681 0.57179 0.48059 0.0
C515 C 0.84691 0.57618 0.50697 0.0
C516 C 0.84849 0.63196 0.52497 0.0
H517 H 0.68647 0.81184 0.43664 0.0
C518 C 0.6652 0.76407 0.43461 0.0
H519 H 0.6542 0.67255 0.4541 0.0
H520 H 0.8005 0.85507 0.56632 0.0
H521 H 0.7235 0.9362 0.55527 0.0
H522 H 0.64316 0.92073 0.51257 0.0
H523 H 0.64008 0.82552 0.48032 0.0
C524 C 0.6773 0.71928 0.45647 0.0
C525 C 0.72321 0.72844 0.48344 0.0
C526 C 0.72265 0.78345 0.50282 0.0
C527 C 0.76715 0.79061 0.52844 0.0
C528 C 0.76706 0.84686 0.54688 0.0
C529 C 0.72311 0.89366 0.54084 0.0
C530 C 0.67801 0.88508 0.51674 0.0
C531 C 0.67729 0.83051 0.49805 0.0
H532 H 0.84909 0.70766 0.08309 0.0
C533 C 0.84782 0.75982 0.08855 0.0
H534 H 0.81201 0.85287 0.07484 0.0
H535 H 0.77589 0.68608 0.94753 0.0
H536 H 0.8808 0.68538 0.95464 0.0
H537 H 0.9402 0.72893 1.00096 0.0
H538 H 0.89532 0.77161 0.04065 0.0
C539 C 0.81394 0.8006 0.06977 0.0
C540 C 0.77865 0.77631 0.04133 0.0
C541 C 0.80593 0.75322 0.01801 0.0
C542 C 0.77176 0.73148 0.99065 0.0
C543 C 0.79989 0.70574 0.96826 0.0
C544 C 0.86004 0.70468 0.97211 0.0
C545 C 0.89347 0.72891 0.99824 0.0
C546 C 0.86703 0.75284 0.02099 0.0
H547 H 0.71264 0.80331 0.93697 0.0
C548 C 0.67942 0.76528 0.93346 0.0
H549 H 0.63934 0.68941 0.95365 0.0
H550 H 0.71307 0.81524 0.08186 0.0
H551 H 0.60841 0.82514 0.07311 0.0
H552 H 0.54939 0.79652 0.02419 0.0
H553 H 0.59433 0.75578 0.98409 0.0
C554 C 0.67497 0.72428 0.9559 0.0
C555 C 0.71059 0.73665 0.98598 0.0
C556 C 0.68339 0.76039 1.0092 0.0
C557 C 0.71748 0.77919 0.03706 0.0
C558 C 0.68924 0.80141 0.06008 0.0
C559 C 0.62921 0.80725 0.05538 0.0
C560 C 0.59598 0.79109 0.02785 0.0
C561 C 0.62244 0.7677 1.00499 0.0
H562 H 0.32403 0.17295 0.07994 0.0
C563 C 0.35209 0.21563 0.08532 0.0
H564 H 0.37836 0.3066 0.06984 0.0
H565 H 0.29679 0.2138 0.93573 0.0
H566 H 0.40129 0.21404 0.94029 0.0
H567 H 0.46493 0.23405 0.98893 0.0
H568 H 0.42453 0.25523 0.03316 0.0
C569 C 0.34796 0.26575 0.06597 0.0
C570 C 0.30929 0.25959 0.0364 0.0
C571 C 0.33378 0.2477 0.01076 0.0
C572 C 0.29721 0.2348 0.98286 0.0
C573 C 0.32266 0.22322 0.95755 0.0
C574 C 0.38257 0.22336 0.95983 0.0
C575 C 0.4184 0.23468 0.98721 0.0
C576 C 0.39457 0.24676 0.01244 0.0
H577 H 0.16223 0.31065 0.94492 0.0
C578 C 0.16304 0.26053 0.93646 0.0
H579 H 0.20027 0.16567 0.94385 0.0
H580 H 0.24875 0.28638 0.0807 0.0
H581 H 0.14445 0.28144 0.07673 0.0
H582 H 0.081 0.25331 0.02894 0.0
H583 H 0.12119 0.23077 0.9849 0.0
C584 C 0.19869 0.216 0.95192 0.0
C585 C 0.23637 0.23343 0.98074 0.0
C586 C 0.21179 0.24607 1.00633 0.0
C587 C 0.24837 0.26005 0.03412 0.0
C588 C 0.22292 0.27367 0.05924 0.0
C589 C 0.16313 0.27136 0.05724 0.0
C590 C 0.12741 0.2558 0.03032 0.0
C591 C 0.15114 0.24339 1.0051 0.0
loop_
_geom_bond_atom_site_label_1
_geom_bond_atom_site_label_2
_geom_bond_distance
_geom_bond_site_symmetry_2
_ccdc_geom_bond_type
C0 O2 1.247 . S
C0 O4 1.258 . S
C1 O8 1.247 . S
C1 O9 1.258 . S
O2 C0 1.247 . S
O2 Zn3 2.028 . S
Zn3 O2 2.028 . S
Zn3 O7 2.035 . S
Zn3 O9 2.035 1_455 S
Zn3 O10 2.028 . S
O4 C0 1.258 . S
O4 Zn5 2.035 . S
Zn5 O4 2.035 . S
Zn5 O6 2.028 . S
Zn5 O8 2.028 1_455 S
Zn5 O11 2.035 1_455 S
O6 Zn5 2.028 . S
O6 C12 1.247 . S
O7 Zn3 2.035 . S
O7 C12 1.258 . S
O8 C1 1.247 . S
O8 Zn5 2.028 1_655 S
O9 C1 1.258 . S
O9 Zn3 2.035 1_655 S
O10 Zn3 2.028 . S
O10 C13 1.246 . S
O11 Zn5 2.035 1_655 S
O11 C13 1.258 1_655 S
C12 O6 1.247 . S
C12 O7 1.258 . S
C13 O10 1.246 . S
C13 O11 1.258 1_455 S
C14 O16 1.247 . S
C14 O18 1.258 . S
C15 O22 1.247 . S
C15 O23 1.258 . S
O16 C14 1.247 . S
O16 Zn17 2.028 . S
Zn17 O16 2.028 . S
Zn17 O21 2.035 . S
Zn17 O23 2.035 . S
Zn17 O24 2.028 . S
O18 C14 1.258 . S
O18 Zn19 2.035 . S
Zn19 O18 2.035 . S
Zn19 O20 2.028 . S
Zn19 O22 2.028 . S
Zn19 O25 2.035 . S
O20 Zn19 2.028 . S
O20 C26 1.247 . S
O21 Zn17 2.035 . S
O21 C26 1.258 . S
O22 C15 1.247 . S
O22 Zn19 2.028 . S
O23 C15 1.258 . S
O23 Zn17 2.035 . S
O24 Zn17 2.028 . S
O24 C27 1.247 . S
O25 Zn19 2.035 . S
O25 C27 1.258 . S
C26 O20 1.247 . S
C26 O21 1.258 . S
C27 O24 1.247 . S
C27 O25 1.258 . S
C28 O30 1.247 . S
C28 O32 1.258 . S
C29 O36 1.247 . S
C29 O37 1.259 1_455 S
O30 C28 1.247 . S
O30 Zn31 2.028 . S
Zn31 O30 2.028 . S
Zn31 O35 2.035 . S
Zn31 O37 2.035 . S
Zn31 O38 2.028 1_655 S
O32 C28 1.258 . S
O32 Zn33 2.035 . S
Zn33 O32 2.035 . S
Zn33 O34 2.028 . S
Zn33 O36 2.028 1_655 S
Zn33 O39 2.035 1_655 S
O34 Zn33 2.028 . S
O34 C40 1.247 . S
O35 Zn31 2.035 . S
O35 C40 1.258 . S
O36 C29 1.247 . S
O36 Zn33 2.028 1_455 S
O37 C29 1.259 1_655 S
O37 Zn31 2.035 . S
O38 Zn31 2.028 1_455 S
O38 C41 1.247 . S
O39 Zn33 2.035 1_455 S
O39 C41 1.258 . S
C40 O34 1.247 . S
C40 O35 1.258 . S
C41 O38 1.247 . S
C41 O39 1.258 . S
C42 O44 1.247 . S
C42 O46 1.258 . S
C43 O50 1.247 . S
C43 O51 1.258 . S
O44 C42 1.247 . S
O44 Zn45 2.028 . S
Zn45 O44 2.028 . S
Zn45 O49 2.035 . S
Zn45 O51 2.035 . S
Zn45 O52 2.028 . S
O46 C42 1.258 . S
O46 Zn47 2.035 . S
Zn47 O46 2.035 . S
Zn47 O48 2.028 . S
Zn47 O50 2.028 . S
Zn47 O53 2.035 . S
O48 Zn47 2.028 . S
O48 C54 1.247 . S
O49 Zn45 2.035 . S
O49 C54 1.258 . S
O50 C43 1.247 . S
O50 Zn47 2.028 . S
O51 C43 1.258 . S
O51 Zn45 2.035 . S
O52 Zn45 2.028 . S
O52 C55 1.247 . S
O53 Zn47 2.035 . S
O53 C55 1.258 . S
C54 O48 1.247 . S
C54 O49 1.258 . S
C55 O52 1.247 . S
C55 O53 1.258 . S
C56 O58 1.247 . S
C56 O60 1.258 . S
C57 O64 1.247 . S
C57 O65 1.258 . S
O58 C56 1.247 . S
O58 Zn59 2.028 . S
Zn59 O58 2.028 . S
Zn59 O63 2.035 . S
Zn59 O65 2.035 . S
Zn59 O66 2.028 . S
O60 C56 1.258 . S
O60 Zn61 2.035 . S
Zn61 O60 2.035 . S
Zn61 O62 2.028 . S
Zn61 O64 2.028 . S
Zn61 O67 2.035 . S
O62 Zn61 2.028 . S
O62 C68 1.247 . S
O63 Zn59 2.035 . S
O63 C68 1.258 . S
O64 C57 1.247 . S
O64 Zn61 2.028 . S
O65 C57 1.258 . S
O65 Zn59 2.035 . S
O66 Zn59 2.028 . S
O66 C69 1.247 . S
O67 Zn61 2.035 . S
O67 C69 1.258 . S
C68 O62 1.247 . S
C68 O63 1.258 . S
C69 O66 1.247 . S
C69 O67 1.258 . S
C70 O72 1.247 . S
C70 O74 1.258 . S
C71 O78 1.246 . S
C71 O79 1.258 1_655 S
O72 C70 1.247 . S
O72 Zn73 2.028 . S
Zn73 O72 2.028 . S
Zn73 O77 2.035 . S
Zn73 O79 2.035 1_655 S
Zn73 O80 2.028 1_655 S
O74 C70 1.258 . S
O74 Zn75 2.035 . S
Zn75 O74 2.035 . S
Zn75 O76 2.028 . S
Zn75 O78 2.028 . S
Zn75 O81 2.035 1_655 S
O76 Zn75 2.028 . S
O76 C82 1.247 . S
O77 Zn73 2.035 . S
O77 C82 1.258 . S
O78 C71 1.246 . S
O78 Zn75 2.028 . S
O79 C71 1.258 1_455 S
O79 Zn73 2.035 1_455 S
O80 Zn73 2.028 1_455 S
O80 C83 1.247 . S
O81 Zn75 2.035 1_455 S
O81 C83 1.258 . S
C82 O76 1.247 . S
C82 O77 1.258 . S
C83 O80 1.247 . S
C83 O81 1.258 . S
C84 O86 1.247 . S
C84 O88 1.258 . S
C85 O92 1.247 . S
C85 O93 1.258 . S
O86 C84 1.247 . S
O86 Zn87 2.028 . S
Zn87 O86 2.028 . S
Zn87 O91 2.035 . S
Zn87 O93 2.035 . S
Zn87 O94 2.028 . S
O88 C84 1.258 . S
O88 Zn89 2.035 . S
Zn89 O88 2.035 . S
Zn89 O90 2.028 . S
Zn89 O92 2.028 . S
Zn89 O95 2.035 . S
O90 Zn89 2.028 . S
O90 C96 1.247 . S
O91 Zn87 2.035 . S
O91 C96 1.258 . S
O92 C85 1.247 . S
O92 Zn89 2.028 . S
O93 C85 1.258 . S
O93 Zn87 2.035 . S
O94 Zn87 2.028 . S
O94 C97 1.247 . S
O95 Zn89 2.035 . S
O95 C97 1.258 . S
C96 O90 1.247 . S
C96 O91 1.258 . S
C97 O94 1.247 . S
C97 O95 1.258 . S
C98 O100 1.247 . S
C98 O102 1.258 . S
C99 O106 1.247 . S
C99 O107 1.258 . S
O100 C98 1.247 . S
O100 Zn101 2.028 1_655 S
Zn101 O100 2.028 1_455 S
Zn101 O105 2.035 1_455 S
Zn101 O107 2.035 . S
Zn101 O108 2.028 . S
O102 C98 1.258 . S
O102 Zn103 2.035 1_655 S
Zn103 O102 2.035 1_455 S
Zn103 O104 2.028 . S
Zn103 O106 2.028 . S
Zn103 O109 2.035 . S
O104 Zn103 2.028 . S
O104 C110 1.246 . S
O105 Zn101 2.035 1_655 S
O105 C110 1.258 1_655 S
O106 C99 1.247 . S
O106 Zn103 2.028 . S
O107 C99 1.258 . S
O107 Zn101 2.035 . S
O108 Zn101 2.028 . S
O108 C111 1.247 . S
O109 Zn103 2.035 . S
O109 C111 1.258 . S
C110 O104 1.246 . S
C110 O105 1.258 1_455 S
C111 O108 1.247 . S
C111 O109 1.258 . S
H112 C113 0.951 1_455 S
C113 H112 0.951 1_655 S
C113 C119 1.265 . S
H114 C119 0.950 . S
H115 C123 0.949 . S
H116 C124 0.950 . S
H117 C125 0.951 . S
H118 C126 0.951 . S
C119 C113 1.265 . S
C119 H114 0.950 . S
C119 C120 1.478 . S
C120 C119 1.478 . S
C120 C121 1.397 . S
C120 C137 1.394 1_655 S
C121 C120 1.397 . S
C121 C122 1.438 . S
C121 C126 1.429 . S
C122 C121 1.438 . S
C122 C123 1.428 . S
C122 C135 1.394 1_655 S
C123 H115 0.949 . S
C123 C122 1.428 . S
C123 C124 1.345 . S
C124 H116 0.950 . S
C124 C123 1.345 . S
C124 C125 1.424 . S
C125 H117 0.951 . S
C125 C124 1.424 . S
C125 C126 1.347 . S
C126 H118 0.951 . S
C126 C121 1.429 . S
C126 C125 1.347 . S
H127 C128 0.951 1_655 S
C128 H127 0.951 1_455 S
C128 C134 1.265 . S
H129 C134 0.950 . S
H130 C138 0.949 . S
H131 C139 0.950 . S
H132 C140 0.951 . S
H133 C141 0.951 . S
C134 C128 1.265 . S
C134 H129 0.950 . S
C134 C135 1.478 . S
C135 C122 1.394 1_455 S
C135 C134 1.478 . S
C135 C136 1.397 . S
C136 C135 1.397 . S
C136 C137 1.438 . S
C136 C141 1.429 . S
C137 C120 1.394 1_455 S
C137 C136 1.438 . S
C137 C138 1.428 . S
C138 H130 0.949 . S
C138 C137 1.428 . S
C138 C139 1.345 . S
C139 H131 0.950 . S
C139 C138 1.345 . S
C139 C140 1.424 . S
C140 H132 0.951 . S
C140 C139 1.424 . S
C140 C141 1.347 . S
C141 H133 0.951 . S
C141 C136 1.429 . S
C141 C140 1.347 . S
H142 C143 0.951 . S
C143 H142 0.951 . S
C143 C149 1.265 . S
H144 C149 0.950 . S
H145 C153 0.949 . S
H146 C154 0.950 . S
H147 C155 0.951 . S
H148 C156 0.951 . S
C149 C143 1.265 . S
C149 H144 0.950 . S
C149 C150 1.478 . S
C150 C149 1.478 . S
C150 C151 1.397 . S
C150 C167 1.394 . S
C151 C150 1.397 . S
C151 C152 1.438 . S
C151 C156 1.429 . S
C152 C151 1.438 . S
C152 C153 1.428 . S
C152 C165 1.394 . S
C153 H145 0.949 . S
C153 C152 1.428 . S
C153 C154 1.345 . S
C154 H146 0.950 . S
C154 C153 1.345 . S
C154 C155 1.424 . S
C155 H147 0.951 . S
C155 C154 1.424 . S
C155 C156 1.347 . S
C156 H148 0.951 . S
C156 C151 1.429 . S
C156 C155 1.347 . S
H157 C158 0.951 . S
C158 H157 0.951 . S
C158 C164 1.265 . S
H159 C164 0.950 . S
H160 C168 0.949 . S
H161 C169 0.950 . S
H162 C170 0.951 . S
H163 C171 0.951 . S
C164 C158 1.265 . S
C164 H159 0.950 . S
C164 C165 1.478 . S
C165 C152 1.394 . S
C165 C164 1.478 . S
C165 C166 1.397 . S
C166 C165 1.397 . S
C166 C167 1.438 . S
C166 C171 1.429 . S
C167 C150 1.394 . S
C167 C166 1.438 . S
C167 C168 1.428 . S
C168 H160 0.949 . S
C168 C167 1.428 . S
C168 C169 1.345 . S
C169 H161 0.950 . S
C169 C168 1.345 . S
C169 C170 1.424 . S
C170 H162 0.951 . S
C170 C169 1.424 . S
C170 C171 1.347 . S
C171 H163 0.951 . S
C171 C166 1.429 . S
C171 C170 1.347 . S
H172 C173 0.951 . S
C173 H172 0.951 . S
C173 C179 1.265 . S
H174 C179 0.950 . S
H175 C183 0.949 1_556 S
H176 C184 0.950 . S
H177 C185 0.951 . S
H178 C186 0.951 . S
C179 C173 1.265 . S
C179 H174 0.950 . S
C179 C180 1.478 . S
C180 C179 1.478 . S
C180 C181 1.397 1_545 S
C180 C197 1.394 1_554 S
C181 C180 1.397 1_565 S
C181 C182 1.438 . S
C181 C186 1.429 . S
C182 C181 1.438 . S
C182 C183 1.428 . S
C182 C195 1.394 1_554 S
C183 H175 0.949 1_554 S
C183 C182 1.428 . S
C183 C184 1.345 . S
C184 H176 0.950 . S
C184 C183 1.345 . S
C184 C185 1.424 . S
C185 H177 0.951 . S
C185 C184 1.424 . S
C185 C186 1.347 . S
C186 H178 0.951 . S
C186 C181 1.429 . S
C186 C185 1.347 . S
H187 C188 0.951 . S
C188 H187 0.951 . S
C188 C194 1.265 . S
H189 C194 0.950 . S
H190 C198 0.949 1_554 S
H191 C199 0.950 . S
H192 C200 0.951 . S
H193 C201 0.951 . S
C194 C188 1.265 . S
C194 H189 0.950 . S
C194 C195 1.478 . S
C195 C182 1.394 1_556 S
C195 C194 1.478 . S
C195 C196 1.397 1_565 S
C196 C195 1.397 1_545 S
C196 C197 1.438 . S
C196 C201 1.429 . S
C197 C180 1.394 1_556 S
C197 C196 1.438 . S
C197 C198 1.428 . S
C198 H190 0.949 1_556 S
C198 C197 1.428 . S
C198 C199 1.345 . S
C199 H191 0.950 . S
C199 C198 1.345 . S
C199 C200 1.424 . S
C200 H192 0.951 . S
C200 C199 1.424 . S
C200 C201 1.347 . S
C201 H193 0.951 . S
C201 C196 1.429 . S
C201 C200 1.347 . S
H202 C203 0.951 . S
C203 H202 0.951 . S
C203 C209 1.265 1_455 S
H204 C209 0.950 . S
H205 C213 0.949 . S
H206 C214 0.950 . S
H207 C215 0.951 . S
H208 C216 0.951 . S
C209 C203 1.265 1_655 S
C209 H204 0.950 . S
C209 C210 1.478 . S
C210 C209 1.478 . S
C210 C211 1.397 . S
C210 C227 1.394 1_655 S
C211 C210 1.397 . S
C211 C212 1.438 1_564 S
C211 C216 1.429 . S
C212 C211 1.438 1_546 S
C212 C213 1.428 . S
C212 C225 1.394 1_655 S
C213 H205 0.949 . S
C213 C212 1.428 . S
C213 C214 1.345 . S
C214 H206 0.950 . S
C214 C213 1.345 . S
C214 C215 1.424 1_556 S
C215 H207 0.951 . S
C215 C214 1.424 1_554 S
C215 C216 1.347 1_545 S
C216 H208 0.951 . S
C216 C211 1.429 . S
C216 C215 1.347 1_565 S
H217 C218 0.951 . S
C218 H217 0.951 . S
C218 C224 1.265 1_655 S
H219 C224 0.950 . S
H220 C228 0.949 . S
H221 C229 0.950 . S
H222 C230 0.951 . S
H223 C231 0.951 . S
C224 C218 1.265 1_455 S
C224 H219 0.950 . S
C224 C225 1.478 . S
C225 C212 1.394 1_455 S
C225 C224 1.478 . S
C225 C226 1.397 . S
C226 C225 1.397 . S
C226 C227 1.438 1_546 S
C226 C231 1.429 . S
C227 C210 1.394 1_455 S
C227 C226 1.438 1_564 S
C227 C228 1.428 . S
C228 H220 0.949 . S
C228 C227 1.428 . S
C228 C229 1.345 . S
C229 H221 0.950 . S
C229 C228 1.345 . S
C229 C230 1.424 1_554 S
C230 H222 0.951 . S
C230 C229 1.424 1_556 S
C230 C231 1.347 1_565 S
C231 H223 0.951 . S
C231 C226 1.429 . S
C231 C230 1.347 1_545 S
H232 C233 0.951 . S
C233 H232 0.951 . S
C233 C239 1.265 . S
H234 C239 0.950 . S
H235 C243 0.949 . S
H236 C244 0.950 . S
H237 C245 0.951 . S
H238 C246 0.951 . S
C239 C233 1.265 . S
C239 H234 0.950 . S
C239 C240 1.478 . S
C240 C239 1.478 . S
C240 C241 1.397 . S
C240 C257 1.394 . S
C241 C240 1.397 . S
C241 C242 1.438 . S
C241 C246 1.429 . S
C242 C241 1.438 . S
C242 C243 1.428 . S
C242 C255 1.394 . S
C243 H235 0.949 . S
C243 C242 1.428 . S
C243 C244 1.345 . S
C244 H236 0.950 . S
C244 C243 1.345 . S
C244 C245 1.424 . S
C245 H237 0.951 . S
C245 C244 1.424 . S
C245 C246 1.347 . S
C246 H238 0.951 . S
C246 C241 1.429 . S
C246 C245 1.347 . S
H247 C248 0.951 . S
C248 H247 0.951 . S
C248 C254 1.265 . S
H249 C254 0.950 . S
H250 C258 0.949 . S
H251 C259 0.950 . S
H252 C260 0.951 . S
H253 C261 0.951 . S
C254 C248 1.265 . S
C254 H249 0.950 . S
C254 C255 1.478 . S
C255 C242 1.394 . S
C255 C254 1.478 . S
C255 C256 1.397 . S
C256 C255 1.397 . S
C256 C257 1.438 . S
C256 C261 1.429 . S
C257 C240 1.394 . S
C257 C256 1.438 . S
C257 C258 1.428 . S
C258 H250 0.949 . S
C258 C257 1.428 . S
C258 C259 1.345 . S
C259 H251 0.950 . S
C259 C258 1.345 . S
C259 C260 1.424 . S
C260 H252 0.951 . S
C260 C259 1.424 . S
C260 C261 1.347 . S
C261 H253 0.951 . S
C261 C256 1.429 . S
C261 C260 1.347 . S
H262 C263 0.951 . S
C263 H262 0.951 . S
C263 C269 1.265 . S
H264 C269 0.950 . S
H265 C273 0.949 . S
H266 C274 0.950 . S
H267 C275 0.951 . S
H268 C276 0.951 . S
C269 C263 1.265 . S
C269 H264 0.950 . S
C269 C270 1.478 . S
C270 C269 1.478 . S
C270 C271 1.397 . S
C270 C287 1.394 . S
C271 C270 1.397 . S
C271 C272 1.438 . S
C271 C276 1.429 . S
C272 C271 1.438 . S
C272 C273 1.428 . S
C272 C285 1.394 . S
C273 H265 0.949 . S
C273 C272 1.428 . S
C273 C274 1.345 . S
C274 H266 0.950 . S
C274 C273 1.345 . S
C274 C275 1.424 . S
C275 H267 0.951 . S
C275 C274 1.424 . S
C275 C276 1.347 . S
C276 H268 0.951 . S
C276 C271 1.429 . S
C276 C275 1.347 . S
H277 C278 0.951 . S
C278 H277 0.951 . S
C278 C284 1.265 . S
H279 C284 0.950 . S
H280 C288 0.949 . S
H281 C289 0.950 . S
H282 C290 0.951 . S
H283 C291 0.951 . S
C284 C278 1.265 . S
C284 H279 0.950 . S
C284 C285 1.478 . S
C285 C272 1.394 . S
C285 C284 1.478 . S
C285 C286 1.397 . S
C286 C285 1.397 . S
C286 C287 1.438 . S
C286 C291 1.429 . S
C287 C270 1.394 . S
C287 C286 1.438 . S
C287 C288 1.428 . S
C288 H280 0.949 . S
C288 C287 1.428 . S
C288 C289 1.345 . S
C289 H281 0.950 . S
C289 C288 1.345 . S
C289 C290 1.424 . S
C290 H282 0.951 . S
C290 C289 1.424 . S
C290 C291 1.347 . S
C291 H283 0.951 . S
C291 C286 1.429 . S
C291 C290 1.347 . S
H292 C293 0.951 . S
C293 H292 0.951 . S
C293 C299 1.265 . S
H294 C299 0.950 . S
H295 C303 0.949 . S
H296 C304 0.950 . S
H297 C305 0.951 . S
H298 C306 0.951 . S
C299 C293 1.265 . S
C299 H294 0.950 . S
C299 C300 1.478 . S
C300 C299 1.478 . S
C300 C301 1.397 . S
C300 C317 1.394 . S
C301 C300 1.397 . S
C301 C302 1.438 . S
C301 C306 1.429 . S
C302 C301 1.438 . S
C302 C303 1.428 . S
C302 C315 1.394 . S
C303 H295 0.949 . S
C303 C302 1.428 . S
C303 C304 1.345 . S
C304 H296 0.950 . S
C304 C303 1.345 . S
C304 C305 1.424 . S
C305 H297 0.951 . S
C305 C304 1.424 . S
C305 C306 1.347 . S
C306 H298 0.951 . S
C306 C301 1.429 . S
C306 C305 1.347 . S
H307 C308 0.951 . S
C308 H307 0.951 . S
C308 C314 1.265 . S
H309 C314 0.950 . S
H310 C318 0.949 . S
H311 C319 0.950 . S
H312 C320 0.951 . S
H313 C321 0.951 . S
C314 C308 1.265 . S
C314 H309 0.950 . S
C314 C315 1.478 . S
C315 C302 1.394 . S
C315 C314 1.478 . S
C315 C316 1.397 . S
C316 C315 1.397 . S
C316 C317 1.438 . S
C316 C321 1.429 . S
C317 C300 1.394 . S
C317 C316 1.438 . S
C317 C318 1.428 . S
C318 H310 0.949 . S
C318 C317 1.428 . S
C318 C319 1.345 . S
C319 H311 0.950 . S
C319 C318 1.345 . S
C319 C320 1.424 . S
C320 H312 0.951 . S
C320 C319 1.424 . S
C320 C321 1.347 . S
C321 H313 0.951 . S
C321 C316 1.429 . S
C321 C320 1.347 . S
H322 C323 0.951 . S
C323 H322 0.951 . S
C323 C329 1.265 . S
H324 C329 0.950 . S
H325 C333 0.949 . S
H326 C334 0.950 . S
H327 C335 0.951 . S
H328 C336 0.951 . S
C329 C323 1.265 . S
C329 H324 0.950 . S
C329 C330 1.478 . S
C330 C329 1.478 . S
C330 C331 1.397 . S
C330 C347 1.394 . S
C331 C330 1.397 . S
C331 C332 1.438 . S
C331 C336 1.429 . S
C332 C331 1.438 . S
C332 C333 1.428 . S
C332 C345 1.394 . S
C333 H325 0.949 . S
C333 C332 1.428 . S
C333 C334 1.345 . S
C334 H326 0.950 . S
C334 C333 1.345 . S
C334 C335 1.424 . S
C335 H327 0.951 . S
C335 C334 1.424 . S
C335 C336 1.347 . S
C336 H328 0.951 . S
C336 C331 1.429 . S
C336 C335 1.347 . S
H337 C338 0.951 . S
C338 H337 0.951 . S
C338 C344 1.265 . S
H339 C344 0.950 . S
H340 C348 0.949 . S
H341 C349 0.950 . S
H342 C350 0.951 . S
H343 C351 0.951 . S
C344 C338 1.265 . S
C344 H339 0.950 . S
C344 C345 1.478 . S
C345 C332 1.394 . S
C345 C344 1.478 . S
C345 C346 1.397 . S
C346 C345 1.397 . S
C346 C347 1.438 . S
C346 C351 1.429 . S
C347 C330 1.394 . S
C347 C346 1.438 . S
C347 C348 1.428 . S
C348 H340 0.949 . S
C348 C347 1.428 . S
C348 C349 1.345 . S
C349 H341 0.950 . S
C349 C348 1.345 . S
C349 C350 1.424 . S
C350 H342 0.951 . S
C350 C349 1.424 . S
C350 C351 1.347 . S
C351 H343 0.951 . S
C351 C346 1.429 . S
C351 C350 1.347 . S
H352 C353 0.951 . S
C353 H352 0.951 . S
C353 C359 1.265 . S
H354 C359 0.950 . S
H355 C363 0.949 . S
H356 C364 0.950 . S
H357 C365 0.951 . S
H358 C366 0.951 . S
C359 C353 1.265 . S
C359 H354 0.950 . S
C359 C360 1.478 . S
C360 C359 1.478 . S
C360 C361 1.397 . S
C360 C377 1.394 . S
C361 C360 1.397 . S
C361 C362 1.438 . S
C361 C366 1.429 . S
C362 C361 1.438 . S
C362 C363 1.428 . S
C362 C375 1.394 . S
C363 H355 0.949 . S
C363 C362 1.428 . S
C363 C364 1.345 . S
C364 H356 0.950 . S
C364 C363 1.345 . S
C364 C365 1.424 . S
C365 H357 0.951 . S
C365 C364 1.424 . S
C365 C366 1.347 . S
C366 H358 0.951 . S
C366 C361 1.429 . S
C366 C365 1.347 . S
H367 C368 0.951 . S
C368 H367 0.951 . S
C368 C374 1.265 . S
H369 C374 0.950 . S
H370 C378 0.949 . S
H371 C379 0.950 . S
H372 C380 0.951 . S
H373 C381 0.951 . S
C374 C368 1.265 . S
C374 H369 0.950 . S
C374 C375 1.478 . S
C375 C362 1.394 . S
C375 C374 1.478 . S
C375 C376 1.397 . S
C376 C375 1.397 . S
C376 C377 1.438 . S
C376 C381 1.429 . S
C377 C360 1.394 . S
C377 C376 1.438 . S
C377 C378 1.428 . S
C378 H370 0.949 . S
C378 C377 1.428 . S
C378 C379 1.345 . S
C379 H371 0.950 . S
C379 C378 1.345 . S
C379 C380 1.424 . S
C380 H372 0.951 . S
C380 C379 1.424 . S
C380 C381 1.347 . S
C381 H373 0.951 . S
C381 C376 1.429 . S
C381 C380 1.347 . S
H382 C383 0.951 . S
C383 H382 0.951 . S
C383 C389 1.265 . S
H384 C389 0.950 . S
H385 C393 0.949 . S
H386 C394 0.950 . S
H387 C395 0.951 . S
H388 C396 0.951 . S
C389 C383 1.265 . S
C389 H384 0.950 . S
C389 C390 1.478 . S
C390 C389 1.478 . S
C390 C391 1.397 . S
C390 C407 1.394 . S
C391 C390 1.397 . S
C391 C392 1.438 . S
C391 C396 1.429 . S
C392 C391 1.438 . S
C392 C393 1.428 . S
C392 C405 1.394 . S
C393 H385 0.949 . S
C393 C392 1.428 . S
C393 C394 1.345 . S
C394 H386 0.950 . S
C394 C393 1.345 . S
C394 C395 1.424 . S
C395 H387 0.951 . S
C395 C394 1.424 . S
C395 C396 1.347 . S
C396 H388 0.951 . S
C396 C391 1.429 . S
C396 C395 1.347 . S
H397 C398 0.951 . S
C398 H397 0.951 . S
C398 C404 1.265 . S
H399 C404 0.950 . S
H400 C408 0.949 . S
H401 C409 0.950 . S
H402 C410 0.951 . S
H403 C411 0.951 . S
C404 C398 1.265 . S
C404 H399 0.950 . S
C404 C405 1.478 . S
C405 C392 1.394 . S
C405 C404 1.478 . S
C405 C406 1.397 . S
C406 C405 1.397 . S
C406 C407 1.438 . S
C406 C411 1.429 . S
C407 C390 1.394 . S
C407 C406 1.438 . S
C407 C408 1.428 . S
C408 H400 0.949 . S
C408 C407 1.428 . S
C408 C409 1.345 . S
C409 H401 0.950 . S
C409 C408 1.345 . S
C409 C410 1.424 . S
C410 H402 0.951 . S
C410 C409 1.424 . S
C410 C411 1.347 . S
C411 H403 0.951 . S
C411 C406 1.429 . S
C411 C410 1.347 . S
H412 C413 0.951 . S
C413 H412 0.951 . S
C413 C419 1.265 . S
H414 C419 0.950 . S
H415 C423 0.949 . S
H416 C424 0.950 . S
H417 C425 0.951 . S
H418 C426 0.951 . S
C419 C413 1.265 . S
C419 H414 0.950 . S
C419 C420 1.478 . S
C420 C419 1.478 . S
C420 C421 1.397 . S
C420 C437 1.394 . S
C421 C420 1.397 . S
C421 C422 1.438 . S
C421 C426 1.429 . S
C422 C421 1.438 . S
C422 C423 1.428 . S
C422 C435 1.394 . S
C423 H415 0.949 . S
C423 C422 1.428 . S
C423 C424 1.345 . S
C424 H416 0.950 . S
C424 C423 1.345 . S
C424 C425 1.424 . S
C425 H417 0.951 . S
C425 C424 1.424 . S
C425 C426 1.347 . S
C426 H418 0.951 . S
C426 C421 1.429 . S
C426 C425 1.347 . S
H427 C428 0.951 . S
C428 H427 0.951 . S
C428 C434 1.265 . S
H429 C434 0.950 . S
H430 C438 0.949 . S
H431 C439 0.950 . S
H432 C440 0.951 . S
H433 C441 0.951 . S
C434 C428 1.265 . S
C434 H429 0.950 . S
C434 C435 1.478 . S
C435 C422 1.394 . S
C435 C434 1.478 . S
C435 C436 1.397 . S
C436 C435 1.397 . S
C436 C437 1.438 . S
C436 C441 1.429 . S
C437 C420 1.394 . S
C437 C436 1.438 . S
C437 C438 1.428 . S
C438 H430 0.949 . S
C438 C437 1.428 . S
C438 C439 1.345 . S
C439 H431 0.950 . S
C439 C438 1.345 . S
C439 C440 1.424 . S
C440 H432 0.951 . S
C440 C439 1.424 . S
C440 C441 1.347 . S
C441 H433 0.951 . S
C441 C436 1.429 . S
C441 C440 1.347 . S
H442 C443 0.951 . S
C443 H442 0.951 . S
C443 C449 1.265 . S
H444 C449 0.950 . S
H445 C453 0.949 . S
H446 C454 0.950 . S
H447 C455 0.951 . S
H448 C456 0.951 . S
C449 C443 1.265 . S
C449 H444 0.950 . S
C449 C450 1.478 . S
C450 C449 1.478 . S
C450 C451 1.397 . S
C450 C467 1.394 . S
C451 C450 1.397 . S
C451 C452 1.438 . S
C451 C456 1.429 . S
C452 C451 1.438 . S
C452 C453 1.428 . S
C452 C465 1.394 . S
C453 H445 0.949 . S
C453 C452 1.428 . S
C453 C454 1.345 . S
C454 H446 0.950 . S
C454 C453 1.345 . S
C454 C455 1.424 . S
C455 H447 0.951 . S
C455 C454 1.424 . S
C455 C456 1.347 . S
C456 H448 0.951 . S
C456 C451 1.429 . S
C456 C455 1.347 . S
H457 C458 0.951 . S
C458 H457 0.951 . S
C458 C464 1.265 . S
H459 C464 0.950 . S
H460 C468 0.949 . S
H461 C469 0.950 . S
H462 C470 0.951 . S
H463 C471 0.951 . S
C464 C458 1.265 . S
C464 H459 0.950 . S
C464 C465 1.478 . S
C465 C452 1.394 . S
C465 C464 1.478 . S
C465 C466 1.397 . S
C466 C465 1.397 . S
C466 C467 1.438 . S
C466 C471 1.429 . S
C467 C450 1.394 . S
C467 C466 1.438 . S
C467 C468 1.428 . S
C468 H460 0.949 . S
C468 C467 1.428 . S
C468 C469 1.345 . S
C469 H461 0.950 . S
C469 C468 1.345 . S
C469 C470 1.424 . S
C470 H462 0.951 . S
C470 C469 1.424 . S
C470 C471 1.347 . S
C471 H463 0.951 . S
C471 C466 1.429 . S
C471 C470 1.347 . S
H472 C473 0.951 . S
C473 H472 0.951 . S
C473 C479 1.265 . S
H474 C479 0.950 . S
H475 C483 0.949 . S
H476 C484 0.950 . S
H477 C485 0.951 . S
H478 C486 0.951 . S
C479 C473 1.265 . S
C479 H474 0.950 . S
C479 C480 1.478 . S
C480 C479 1.478 . S
C480 C481 1.397 . S
C480 C497 1.394 . S
C481 C480 1.397 . S
C481 C482 1.438 . S
C481 C486 1.429 . S
C482 C481 1.438 . S
C482 C483 1.428 . S
C482 C495 1.394 . S
C483 H475 0.949 . S
C483 C482 1.428 . S
C483 C484 1.345 . S
C484 H476 0.950 . S
C484 C483 1.345 . S
C484 C485 1.424 . S
C485 H477 0.951 . S
C485 C484 1.424 . S
C485 C486 1.347 . S
C486 H478 0.951 . S
C486 C481 1.429 . S
C486 C485 1.347 . S
H487 C488 0.951 . S
C488 H487 0.951 . S
C488 C494 1.265 . S
H489 C494 0.950 . S
H490 C498 0.949 . S
H491 C499 0.950 . S
H492 C500 0.951 . S
H493 C501 0.951 . S
C494 C488 1.265 . S
C494 H489 0.950 . S
C494 C495 1.478 . S
C495 C482 1.394 . S
C495 C494 1.478 . S
C495 C496 1.397 . S
C496 C495 1.397 . S
C496 C497 1.438 . S
C496 C501 1.429 . S
C497 C480 1.394 . S
C497 C496 1.438 . S
C497 C498 1.428 . S
C498 H490 0.949 . S
C498 C497 1.428 . S
C498 C499 1.345 . S
C499 H491 0.950 . S
C499 C498 1.345 . S
C499 C500 1.424 . S
C500 H492 0.951 . S
C500 C499 1.424 . S
C500 C501 1.347 . S
C501 H493 0.951 . S
C501 C496 1.429 . S
C501 C500 1.347 . S
H502 C503 0.951 . S
C503 H502 0.951 . S
C503 C509 1.265 . S
H504 C509 0.950 . S
H505 C513 0.949 . S
H506 C514 0.950 . S
H507 C515 0.951 . S
H508 C516 0.951 . S
C509 C503 1.265 . S
C509 H504 0.950 . S
C509 C510 1.478 . S
C510 C509 1.478 . S
C510 C511 1.397 . S
C510 C527 1.394 . S
C511 C510 1.397 . S
C511 C512 1.438 . S
C511 C516 1.429 . S
C512 C511 1.438 . S
C512 C513 1.428 . S
C512 C525 1.394 . S
C513 H505 0.949 . S
C513 C512 1.428 . S
C513 C514 1.345 . S
C514 H506 0.950 . S
C514 C513 1.345 . S
C514 C515 1.424 . S
C515 H507 0.951 . S
C515 C514 1.424 . S
C515 C516 1.347 . S
C516 H508 0.951 . S
C516 C511 1.429 . S
C516 C515 1.347 . S
H517 C518 0.951 . S
C518 H517 0.951 . S
C518 C524 1.265 . S
H519 C524 0.950 . S
H520 C528 0.949 . S
H521 C529 0.950 . S
H522 C530 0.951 . S
H523 C531 0.951 . S
C524 C518 1.265 . S
C524 H519 0.950 . S
C524 C525 1.478 . S
C525 C512 1.394 . S
C525 C524 1.478 . S
C525 C526 1.397 . S
C526 C525 1.397 . S
C526 C527 1.438 . S
C526 C531 1.429 . S
C527 C510 1.394 . S
C527 C526 1.438 . S
C527 C528 1.428 . S
C528 H520 0.949 . S
C528 C527 1.428 . S
C528 C529 1.345 . S
C529 H521 0.950 . S
C529 C528 1.345 . S
C529 C530 1.424 . S
C530 H522 0.951 . S
C530 C529 1.424 . S
C530 C531 1.347 . S
C531 H523 0.951 . S
C531 C526 1.429 . S
C531 C530 1.347 . S
H532 C533 0.951 . S
C533 H532 0.951 . S
C533 C539 1.265 . S
H534 C539 0.950 . S
H535 C543 0.949 . S
H536 C544 0.950 . S
H537 C545 0.951 . S
H538 C546 0.951 . S
C539 C533 1.265 . S
C539 H534 0.950 . S
C539 C540 1.478 . S
C540 C539 1.478 . S
C540 C541 1.397 . S
C540 C557 1.394 . S
C541 C540 1.397 . S
C541 C542 1.438 1_554 S
C541 C546 1.429 . S
C542 C541 1.438 1_556 S
C542 C543 1.428 . S
C542 C555 1.394 . S
C543 H535 0.949 . S
C543 C542 1.428 . S
C543 C544 1.345 . S
C544 H536 0.950 . S
C544 C543 1.345 . S
C544 C545 1.424 . S
C545 H537 0.951 . S
C545 C544 1.424 . S
C545 C546 1.347 1_556 S
C546 H538 0.951 . S
C546 C541 1.429 . S
C546 C545 1.347 1_554 S
H547 C548 0.951 . S
C548 H547 0.951 . S
C548 C554 1.265 . S
H549 C554 0.950 . S
H550 C558 0.949 . S
H551 C559 0.950 . S
H552 C560 0.951 . S
H553 C561 0.951 . S
C554 C548 1.265 . S
C554 H549 0.950 . S
C554 C555 1.478 . S
C555 C542 1.394 . S
C555 C554 1.478 . S
C555 C556 1.397 . S
C556 C555 1.397 . S
C556 C557 1.438 1_556 S
C556 C561 1.429 . S
C557 C540 1.394 . S
C557 C556 1.438 1_554 S
C557 C558 1.428 . S
C558 H550 0.949 . S
C558 C557 1.428 . S
C558 C559 1.345 . S
C559 H551 0.950 . S
C559 C558 1.345 . S
C559 C560 1.424 . S
C560 H552 0.951 . S
C560 C559 1.424 . S
C560 C561 1.347 1_554 S
C561 H553 0.951 . S
C561 C556 1.429 . S
C561 C560 1.347 1_556 S
H562 C563 0.951 . S
C563 H562 0.951 . S
C563 C569 1.265 . S
H564 C569 0.950 . S
H565 C573 0.949 . S
H566 C574 0.950 . S
H567 C575 0.951 . S
H568 C576 0.951 . S
C569 C563 1.265 . S
C569 H564 0.950 . S
C569 C570 1.478 . S
C570 C569 1.478 . S
C570 C571 1.397 . S
C570 C587 1.394 . S
C571 C570 1.397 . S
C571 C572 1.438 1_554 S
C571 C576 1.429 . S
C572 C571 1.438 1_556 S
C572 C573 1.428 . S
C572 C585 1.394 . S
C573 H565 0.949 . S
C573 C572 1.428 . S
C573 C574 1.345 . S
C574 H566 0.950 . S
C574 C573 1.345 . S
C574 C575 1.424 . S
C575 H567 0.951 . S
C575 C574 1.424 . S
C575 C576 1.347 1_556 S
C576 H568 0.951 . S
C576 C571 1.429 . S
C576 C575 1.347 1_554 S
H577 C578 0.951 . S
C578 H577 0.951 . S
C578 C584 1.265 . S
H579 C584 0.950 . S
H580 C588 0.949 . S
H581 C589 0.950 . S
H582 C590 0.951 . S
H583 C591 0.951 . S
C584 C578 1.265 . S
C584 H579 0.950 . S
C584 C585 1.478 . S
C585 C572 1.394 . S
C585 C584 1.478 . S
C585 C586 1.397 . S
C586 C585 1.397 . S
C586 C587 1.438 1_556 S
C586 C591 1.429 . S
C587 C570 1.394 . S
C587 C586 1.438 1_554 S
C587 C588 1.428 . S
C588 H580 0.949 . S
C588 C587 1.428 . S
C588 C589 1.345 . S
C589 H581 0.950 . S
C589 C588 1.345 . S
C589 C590 1.424 . S
C590 H582 0.951 . S
C590 C589 1.424 . S
C590 C591 1.347 1_554 S
C591 H583 0.951 . S
C591 C586 1.429 . S
C591 C590 1.347 1_556 S
C113 C13 1.777 1_655 S
C128 C29 1.780 . S
C143 C54 1.765 . S
C158 C15 1.765 . S
C173 C84 1.806 . S
C188 C57 1.806 . S
C203 C71 1.804 1_455 S
C218 C110 1.804 1_655 S
C233 C96 1.970 . S
C248 C1 1.970 . S
C263 C27 1.951 . S
C278 C98 1.951 . S
C293 C41 1.971 . S
C308 C69 1.970 . S
C323 C42 1.970 . S
C338 C83 1.970 . S
C353 C85 2.099 . S
C368 C12 2.099 . S
C383 C14 2.081 . S
C398 C111 2.081 . S
C413 C56 2.094 . S
C428 C28 2.090 . S
C443 C70 2.085 . S
C458 C55 2.085 . S
C473 C26 0.657 . S
C488 C0 0.656 . S
C503 C40 0.657 . S
C518 C43 0.653 . S
C533 C82 0.657 . S
C548 C68 0.657 . S
C563 C97 0.657 . S
C578 C99 0.657 . S
