# Generated by pormake.
# Topology wld, (5)-cn, num edge types: 1
# Building blocks:
#     Node 0, Type 0, BuildingBlock: BEQFEK_clean_sbu_0, # of connection points: 5
#     Node 1, Type 0, BuildingBlock: BEQFEK_clean_sbu_0, # of connection points: 5
#     Node 2, Type 0, BuildingBlock: BEQFEK_clean_sbu_0, # of connection points: 5
#     Node 3, Type 0, BuildingBlock: BEQFEK_clean_sbu_0, # of connection points: 5
#     Node 4, Type 0, BuildingBlock: BEQFEK_clean_sbu_0, # of connection points: 5
#     Node 5, Type 0, BuildingBlock: BEQFEK_clean_sbu_0, # of connection points: 5
#     Node 6, Type 0, BuildingBlock: BEQFEK_clean_sbu_0, # of connection points: 5
#     Node 7, Type 0, BuildingBlock: BEQFEK_clean_sbu_0, # of connection points: 5
#     Node 8, Type 0, BuildingBlock: BEQFEK_clean_sbu_0, # of connection points: 5
#     Node 9, Type 0, BuildingBlock: BEQFEK_clean_sbu_0, # of connection points: 5
#     Node 10, Type 0, BuildingBlock: BEQFEK_clean_sbu_0, # of connection points: 5
#     Node 11, Type 0, BuildingBlock: BEQFEK_clean_sbu_0, # of connection points: 5
#     Edge 12, Type (0, 0), BuildingBlock: XIVTED_clean_linker_0, # of connection points: 2
#     Edge 13, Type (0, 0), BuildingBlock: XIVTED_clean_linker_0, # of connection points: 2
#     Edge 14, Type (0, 0), BuildingBlock: XIVTED_clean_linker_0, # of connection points: 2
#     Edge 15, Type (0, 0), BuildingBlock: XIVTED_clean_linker_0, # of connection points: 2
#     Edge 16, Type (0, 0), BuildingBlock: XIVTED_clean_linker_0, # of connection points: 2
#     Edge 17, Type (0, 0), BuildingBlock: XIVTED_clean_linker_0, # of connection points: 2
#     Edge 18, Type (0, 0), BuildingBlock: XIVTED_clean_linker_0, # of connection points: 2
#     Edge 19, Type (0, 0), BuildingBlock: XIVTED_clean_linker_0, # of connection points: 2
#     Edge 20, Type (0, 0), BuildingBlock: XIVTED_clean_linker_0, # of connection points: 2
#     Edge 21, Type (0, 0), BuildingBlock: XIVTED_clean_linker_0, # of connection points: 2
#     Edge 22, Type (0, 0), BuildingBlock: XIVTED_clean_linker_0, # of connection points: 2
#     Edge 23, Type (0, 0), BuildingBlock: XIVTED_clean_linker_0, # of connection points: 2
#     Edge 24, Type (0, 0), BuildingBlock: XIVTED_clean_linker_0, # of connection points: 2
#     Edge 25, Type (0, 0), BuildingBlock: XIVTED_clean_linker_0, # of connection points: 2
#     Edge 26, Type (0, 0), BuildingBlock: XIVTED_clean_linker_0, # of connection points: 2
#     Edge 27, Type (0, 0), BuildingBlock: XIVTED_clean_linker_0, # of connection points: 2
#     Edge 28, Type (0, 0), BuildingBlock: XIVTED_clean_linker_0, # of connection points: 2
#     Edge 29, Type (0, 0), BuildingBlock: XIVTED_clean_linker_0, # of connection points: 2
#     Edge 30, Type (0, 0), BuildingBlock: XIVTED_clean_linker_0, # of connection points: 2
#     Edge 31, Type (0, 0), BuildingBlock: XIVTED_clean_linker_0, # of connection points: 2
#     Edge 32, Type (0, 0), BuildingBlock: XIVTED_clean_linker_0, # of connection points: 2
#     Edge 33, Type (0, 0), BuildingBlock: XIVTED_clean_linker_0, # of connection points: 2
#     Edge 34, Type (0, 0), BuildingBlock: XIVTED_clean_linker_0, # of connection points: 2
#     Edge 35, Type (0, 0), BuildingBlock: XIVTED_clean_linker_0, # of connection points: 2
#     Edge 36, Type (0, 0), BuildingBlock: XIVTED_clean_linker_0, # of connection points: 2
#     Edge 37, Type (0, 0), BuildingBlock: XIVTED_clean_linker_0, # of connection points: 2
#     Edge 38, Type (0, 0), BuildingBlock: XIVTED_clean_linker_0, # of connection points: 2
#     Edge 39, Type (0, 0), BuildingBlock: XIVTED_clean_linker_0, # of connection points: 2
#     Edge 40, Type (0, 0), BuildingBlock: XIVTED_clean_linker_0, # of connection points: 2
#     Edge 41, Type (0, 0), BuildingBlock: XIVTED_clean_linker_0, # of connection points: 2
# Relax obj value: 0.307
# Max RMSD: 0.212
# Mean RMSD: 0.212
data_MOF--net-wld--node1-BEQFEK_clean_sbu_0--edge1-XIVTED_clean_linker_0
_symmetry_space_group_name_H-M    P1
_symmetry_Int_Tables_number       1
_symmetry_cell_setting            triclinic
loop_
_symmetry_equiv_pos_as_xyz
'x, y, z'
_cell_length_a     40.012628
_cell_length_b     40.024171
_cell_length_c     42.091882
_cell_angle_alpha  90.035626
_cell_angle_beta   89.980311
_cell_angle_gamma 119.9655
loop_
_atom_site_label
_atom_site_type_symbol
_atom_site_fract_x
_atom_site_fract_y
_atom_site_fract_z
_atom_type_partial_charge
Co0 Co 0.37493 0.25534 0.11164 0.0
Co1 Co 0.40199 0.21576 0.16148 0.0
C2 C 0.45031 0.30016 0.14333 0.0
O3 O 0.42746 0.29858 0.1216 0.0
O4 O 0.44251 0.27072 0.16004 0.0
C5 C 0.3655 0.28865 0.05301 0.0
O6 O 0.3983 0.29196 0.04354 0.0
C7 C 0.46138 0.19882 0.17897 0.0
C8 C 0.43216 0.14737 0.20967 0.0
C9 C 0.46706 0.17194 0.19507 0.0
N10 N 0.42491 0.19072 0.18376 0.0
N11 N 0.40767 0.16032 0.20262 0.0
C12 C 0.48796 0.22775 0.15515 0.0
H13 H 0.47113 0.23134 0.13586 0.0
H14 H 0.50772 0.21886 0.14457 0.0
H15 H 0.50553 0.25597 0.16716 0.0
C16 C 0.36161 0.18717 0.07309 0.0
N17 N 0.37485 0.20982 0.0991 0.0
N18 N 0.38696 0.19366 0.11991 0.0
C19 C 0.38265 0.16066 0.10744 0.0
C20 C 0.36622 0.1553 0.07747 0.0
C21 C 0.34098 0.19363 0.04624 0.0
H22 H 0.32281 0.20519 0.05543 0.0
H23 H 0.36252 0.21493 0.02955 0.0
H24 H 0.3224 0.16652 0.03307 0.0
O25 O 0.34185 0.24368 0.14924 0.0
O26 O 0.35717 0.21266 0.18495 0.0
H27 H 0.37811 0.12362 0.14587 0.0
H28 H 0.39118 0.11101 0.10845 0.0
C29 C 0.39489 0.1352 0.12367 0.0
H30 H 0.42585 0.15231 0.12971 0.0
H31 H 0.37874 0.14729 0.20934 0.0
O32 O 0.35151 0.27354 0.07978 0.0
C33 C 0.33635 0.2268 0.17593 0.0
Co34 Co 0.74396 0.12454 0.1084 0.0
Co35 Co 0.78771 0.18917 0.1592 0.0
C36 C 0.70294 0.15739 0.14151 0.0
O37 O 0.70193 0.13496 0.11963 0.0
O38 O 0.73354 0.17783 0.15742 0.0
C39 C 0.70665 0.07945 0.05123 0.0
O40 O 0.69789 0.10594 0.04346 0.0
C41 C 0.81635 0.27 0.16764 0.0
C42 C 0.84569 0.28467 0.21415 0.0
C43 C 0.83661 0.30029 0.1884 0.0
N44 N 0.81415 0.23803 0.17997 0.0
N45 N 0.8317 0.24685 0.20786 0.0
C46 C 0.79703 0.27085 0.13737 0.0
H47 H 0.78145 0.287 0.14102 0.0
H48 H 0.77671 0.24134 0.12885 0.0
H49 H 0.81905 0.28596 0.11868 0.0
C50 C 0.811 0.17973 0.06881 0.0
N51 N 0.79004 0.16931 0.09582 0.0
N52 N 0.80954 0.19473 0.11812 0.0
C53 C 0.84385 0.22157 0.10628 0.0
C54 C 0.84566 0.21342 0.07457 0.0
C55 C 0.79788 0.15784 0.03826 0.0
H56 H 0.79353 0.12844 0.04168 0.0
H57 H 0.76986 0.15498 0.03137 0.0
H58 H 0.81878 0.17248 0.01874 0.0
O59 O 0.75545 0.10218 0.14571 0.0
O60 O 0.78852 0.1464 0.18254 0.0
H61 H 0.90458 0.25697 0.11628 0.0
H62 H 0.87608 0.279 0.12476 0.0
C63 C 0.8764 0.25149 0.12579 0.0
H64 H 0.87374 0.24203 0.15086 0.0
H65 H 0.8338 0.22709 0.22269 0.0
O66 O 0.72574 0.08315 0.07633 0.0
C67 C 0.77258 0.11169 0.17246 0.0
Co68 Co 0.88191 0.62726 0.11063 0.0
Co69 Co 0.8155 0.60125 0.16046 0.0
C70 C 0.85176 0.55246 0.14197 0.0
O71 O 0.87335 0.5752 0.12034 0.0
O72 O 0.82996 0.56044 0.1584 0.0
C73 C 0.92774 0.63661 0.05418 0.0
O74 O 0.90244 0.60057 0.04748 0.0
C75 C 0.73503 0.54642 0.16827 0.0
C76 C 0.71876 0.56104 0.21412 0.0
C77 C 0.70415 0.53596 0.18851 0.0
N78 N 0.76633 0.57679 0.18079 0.0
N79 N 0.75657 0.58545 0.2083 0.0
C80 C 0.73536 0.52646 0.13822 0.0
H81 H 0.71954 0.49474 0.14181 0.0
H82 H 0.76524 0.53614 0.13035 0.0
H83 H 0.72056 0.53305 0.11906 0.0
C84 C 0.82569 0.63689 0.07081 0.0
N85 N 0.83624 0.62643 0.09778 0.0
N86 N 0.80956 0.61794 0.11955 0.0
C87 C 0.78166 0.62365 0.10735 0.0
C88 C 0.79056 0.63512 0.07599 0.0
C89 C 0.84878 0.64807 0.04079 0.0
H90 H 0.87743 0.6738 0.04526 0.0
H91 H 0.85339 0.62415 0.03327 0.0
H92 H 0.83411 0.6543 0.02128 0.0
O93 O 0.90255 0.66003 0.14889 0.0
O94 O 0.85643 0.64518 0.18479 0.0
H95 H 0.75805 0.62968 0.15159 0.0
H96 H 0.74264 0.6449 0.1169 0.0
C97 C 0.74972 0.62325 0.12627 0.0
H98 H 0.72339 0.59454 0.12431 0.0
H99 H 0.77561 0.60787 0.22307 0.0
O100 O 0.92336 0.65236 0.07879 0.0
C101 C 0.8914 0.66567 0.1757 0.0
Co102 Co 0.25415 0.3776 0.38564 0.0
Co103 Co 0.21365 0.40044 0.33318 0.0
C104 C 0.29768 0.45196 0.35318 0.0
O105 O 0.29671 0.43026 0.37565 0.0
O106 O 0.26819 0.44248 0.33594 0.0
C107 C 0.30474 0.36564 0.42622 0.0
O108 O 0.33194 0.39528 0.41077 0.0
C109 C 0.18695 0.45388 0.32266 0.0
C110 C 0.1564 0.43738 0.2767 0.0
C111 C 0.16632 0.46321 0.30172 0.0
N112 N 0.18853 0.4234 0.31117 0.0
N113 N 0.17033 0.41363 0.28356 0.0
C114 C 0.20664 0.4749 0.35255 0.0
H115 H 0.22423 0.50628 0.34768 0.0
H116 H 0.22515 0.46415 0.36243 0.0
H117 H 0.18487 0.47081 0.37072 0.0
C118 C 0.18545 0.36406 0.42229 0.0
N119 N 0.20793 0.3766 0.39623 0.0
N120 N 0.18963 0.3836 0.3736 0.0
C121 C 0.15433 0.37471 0.38423 0.0
C122 C 0.15066 0.36239 0.41555 0.0
C123 C 0.1957 0.34993 0.45157 0.0
H124 H 0.19735 0.3238 0.44558 0.0
H125 H 0.22462 0.37225 0.46004 0.0
H126 H 0.17416 0.34265 0.47076 0.0
O127 O 0.24447 0.34409 0.34821 0.0
O128 O 0.21328 0.35666 0.3105 0.0
H129 H 0.12659 0.36994 0.33935 0.0
H130 H 0.09481 0.35767 0.37297 0.0
C131 C 0.12446 0.37713 0.36442 0.0
H132 H 0.12923 0.40684 0.36557 0.0
H133 H 0.16743 0.39087 0.26946 0.0
O134 O 0.26961 0.35432 0.42 0.0
C135 C 0.22845 0.3373 0.32097 0.0
Co136 Co 0.62489 0.8803 0.38038 0.0
Co137 Co 0.60023 0.81377 0.33058 0.0
C138 C 0.54895 0.84663 0.35007 0.0
O139 O 0.57163 0.86966 0.37108 0.0
O140 O 0.55813 0.82563 0.33392 0.0
C141 C 0.63499 0.92421 0.43852 0.0
O142 O 0.60141 0.89565 0.44765 0.0
C143 C 0.54501 0.7337 0.32222 0.0
C144 C 0.56025 0.71686 0.27694 0.0
C145 C 0.53446 0.70276 0.30211 0.0
N146 N 0.57611 0.76464 0.31012 0.0
N147 N 0.58511 0.75455 0.2829 0.0
C148 C 0.52458 0.73434 0.35188 0.0
H149 H 0.53952 0.76309 0.36333 0.0
H150 H 0.52313 0.7127 0.36907 0.0
H151 H 0.49452 0.72656 0.34595 0.0
C152 C 0.64182 0.82748 0.41852 0.0
N153 N 0.62751 0.83598 0.39268 0.0
N154 N 0.6188 0.80909 0.37105 0.0
C155 C 0.62756 0.78283 0.38226 0.0
C156 C 0.64219 0.79347 0.4128 0.0
C157 C 0.6587 0.8535 0.44665 0.0
H158 H 0.67803 0.88347 0.43852 0.0
H159 H 0.63507 0.85293 0.46084 0.0
H160 H 0.67536 0.84452 0.46199 0.0
O161 O 0.65677 0.90162 0.342 0.0
O162 O 0.64281 0.85599 0.30574 0.0
H163 H 0.62936 0.75591 0.3386 0.0
H164 H 0.63916 0.73588 0.37325 0.0
C165 C 0.62187 0.74823 0.36391 0.0
H166 H 0.59124 0.72532 0.36559 0.0
H167 H 0.60804 0.77329 0.26842 0.0
O168 O 0.649 0.92234 0.41196 0.0
C169 C 0.66259 0.89098 0.31503 0.0
Co170 Co 0.12451 0.74744 0.38036 0.0
Co171 Co 0.18873 0.78478 0.32799 0.0
C172 C 0.15081 0.70018 0.3465 0.0
O173 O 0.13078 0.70257 0.36897 0.0
O174 O 0.17261 0.72938 0.32959 0.0
C175 C 0.07154 0.70225 0.43074 0.0
O176 O 0.08181 0.67647 0.42452 0.0
C177 C 0.26395 0.79985 0.30932 0.0
C178 C 0.28668 0.85128 0.27856 0.0
C179 C 0.29666 0.82647 0.29325 0.0
N180 N 0.23587 0.80835 0.30449 0.0
N181 N 0.24929 0.83869 0.28553 0.0
C182 C 0.26135 0.77104 0.3334 0.0
H183 H 0.24123 0.76806 0.35277 0.0
H184 H 0.28996 0.77961 0.34386 0.0
H185 H 0.25018 0.7426 0.32166 0.0
C186 C 0.18285 0.81353 0.41757 0.0
N187 N 0.17164 0.79141 0.39125 0.0
N188 N 0.19858 0.8074 0.36938 0.0
C189 C 0.22817 0.84016 0.3813 0.0
C190 C 0.21911 0.84529 0.41213 0.0
C191 C 0.15722 0.80632 0.4457 0.0
H192 H 0.12974 0.804 0.43765 0.0
H193 H 0.15022 0.77839 0.45674 0.0
H194 H 0.17061 0.82964 0.46364 0.0
O195 O 0.10194 0.76018 0.34402 0.0
O196 O 0.1465 0.78891 0.30645 0.0
H197 H 0.25781 0.87622 0.34153 0.0
H198 H 0.28552 0.89081 0.37793 0.0
C199 C 0.26469 0.86582 0.36362 0.0
H200 H 0.27898 0.8492 0.35724 0.0
H201 H 0.23374 0.85214 0.27893 0.0
O202 O 0.08678 0.73369 0.41529 0.0
C203 C 0.11232 0.77636 0.31696 0.0
Co204 Co 0.62195 0.74616 0.88389 0.0
Co205 Co 0.59986 0.78804 0.83204 0.0
C206 C 0.54727 0.70408 0.8518 0.0
O207 O 0.56909 0.70358 0.87357 0.0
O208 O 0.55723 0.73422 0.83536 0.0
C209 C 0.63366 0.6964 0.92663 0.0
O210 O 0.60327 0.66818 0.9127 0.0
C211 C 0.54642 0.81475 0.82213 0.0
C212 C 0.56288 0.84616 0.77657 0.0
C213 C 0.53702 0.83566 0.80162 0.0
N214 N 0.57697 0.81349 0.8104 0.0
N215 N 0.58671 0.83218 0.78302 0.0
C216 C 0.52544 0.79469 0.8519 0.0
H217 H 0.49475 0.77414 0.84621 0.0
H218 H 0.5386 0.77905 0.86321 0.0
H219 H 0.52599 0.81591 0.86913 0.0
C220 C 0.63549 0.81455 0.92132 0.0
N221 N 0.62348 0.79268 0.89487 0.0
N222 N 0.61705 0.8116 0.87243 0.0
C223 C 0.62561 0.84658 0.88359 0.0
C224 C 0.63729 0.8495 0.91505 0.0
C225 C 0.64863 0.80346 0.95073 0.0
H226 H 0.67479 0.80167 0.94512 0.0
H227 H 0.62589 0.77445 0.95863 0.0
H228 H 0.6556 0.82461 0.97019 0.0
O229 O 0.65544 0.75586 0.84646 0.0
O230 O 0.643 0.78741 0.80898 0.0
H231 H 0.62957 0.87486 0.83915 0.0
H232 H 0.64181 0.90607 0.87309 0.0
C233 C 0.62254 0.87648 0.86436 0.0
H234 H 0.59268 0.87127 0.86594 0.0
H235 H 0.60952 0.83544 0.76881 0.0
O236 O 0.64521 0.73099 0.91839 0.0
C237 C 0.66217 0.77193 0.81925 0.0
Co238 Co 0.25607 0.88242 0.87944 0.0
Co239 Co 0.21517 0.8154 0.82991 0.0
C240 C 0.29968 0.85043 0.84803 0.0
O241 O 0.29902 0.87252 0.86949 0.0
O242 O 0.26972 0.8288 0.83185 0.0
C243 C 0.29005 0.92567 0.93771 0.0
O244 O 0.29483 0.89682 0.94643 0.0
C245 C 0.19436 0.73701 0.81733 0.0
C246 C 0.15127 0.71774 0.7788 0.0
C247 C 0.16989 0.70525 0.79928 0.0
N248 N 0.1901 0.76688 0.80851 0.0
N249 N 0.16466 0.75545 0.78513 0.0
C250 C 0.22147 0.73929 0.84292 0.0
H251 H 0.25068 0.7509 0.83252 0.0
H252 H 0.22328 0.75934 0.86193 0.0
H253 H 0.21274 0.71062 0.85324 0.0
C254 C 0.18771 0.8286 0.91827 0.0
N255 N 0.21012 0.83749 0.89214 0.0
N256 N 0.19291 0.80957 0.87115 0.0
C257 C 0.15921 0.78185 0.88338 0.0
C258 C 0.15479 0.79299 0.91363 0.0
C259 C 0.19562 0.85545 0.94562 0.0
H260 H 0.20633 0.88514 0.93673 0.0
H261 H 0.21815 0.85544 0.96095 0.0
H262 H 0.16936 0.84668 0.96012 0.0
O263 O 0.24453 0.90353 0.84148 0.0
O264 O 0.21284 0.85711 0.80591 0.0
H265 H 0.12654 0.75137 0.84225 0.0
H266 H 0.10468 0.72765 0.87924 0.0
C267 C 0.13232 0.74499 0.8666 0.0
H268 H 0.14609 0.72701 0.86499 0.0
H269 H 0.15566 0.77298 0.77414 0.0
O270 O 0.27414 0.92423 0.91126 0.0
C271 C 0.22752 0.89217 0.81481 0.0
Co272 Co 0.12492 0.37977 0.88315 0.0
Co273 Co 0.18866 0.4041 0.83072 0.0
C274 C 0.15277 0.45299 0.84891 0.0
O275 O 0.13272 0.43139 0.87172 0.0
O276 O 0.17368 0.44435 0.83197 0.0
C277 C 0.07102 0.37287 0.93234 0.0
O278 O 0.08135 0.40876 0.92548 0.0
C279 C 0.26447 0.46318 0.81273 0.0
C280 C 0.28651 0.43439 0.78126 0.0
C281 C 0.29699 0.46903 0.79645 0.0
N282 N 0.23598 0.42691 0.80749 0.0
N283 N 0.24902 0.40992 0.78817 0.0
C284 C 0.26229 0.48929 0.83717 0.0
H285 H 0.24172 0.47214 0.85625 0.0
H286 H 0.29093 0.50854 0.84795 0.0
H287 H 0.25197 0.50741 0.82565 0.0
C288 C 0.18182 0.36968 0.92039 0.0
N289 N 0.17129 0.38133 0.89413 0.0
N290 N 0.19795 0.39107 0.87215 0.0
C291 C 0.22662 0.38624 0.88389 0.0
C292 C 0.21728 0.3723 0.91476 0.0
C293 C 0.15601 0.35207 0.94855 0.0
H294 H 0.12839 0.32703 0.94061 0.0
H295 H 0.14933 0.37347 0.95913 0.0
H296 H 0.16909 0.3422 0.96681 0.0
O297 O 0.10168 0.34469 0.84676 0.0
O298 O 0.14589 0.358 0.80935 0.0
H299 H 0.25423 0.37744 0.84378 0.0
H300 H 0.28228 0.3891 0.87996 0.0
C301 C 0.26234 0.39484 0.86587 0.0
H302 H 0.27813 0.42574 0.85941 0.0
H303 H 0.23308 0.38111 0.78115 0.0
O304 O 0.08676 0.35649 0.91781 0.0
C305 C 0.11149 0.33772 0.81987 0.0
Co306 Co 0.74829 0.62594 0.60958 0.0
Co307 Co 0.78848 0.60096 0.66048 0.0
C308 C 0.70399 0.5511 0.64043 0.0
O309 O 0.70509 0.57345 0.61846 0.0
O310 O 0.73354 0.5598 0.65739 0.0
C311 C 0.71319 0.63699 0.55263 0.0
O312 O 0.70279 0.60134 0.54477 0.0
C313 C 0.81452 0.54645 0.66792 0.0
C314 C 0.84274 0.5588 0.71486 0.0
C315 C 0.83372 0.53494 0.68853 0.0
N316 N 0.81289 0.57624 0.68093 0.0
N317 N 0.82976 0.58358 0.70908 0.0
C318 C 0.79575 0.5278 0.63706 0.0
H319 H 0.77565 0.53752 0.62902 0.0
H320 H 0.81809 0.53558 0.61849 0.0
H321 H 0.78004 0.49594 0.6396 0.0
C322 C 0.81574 0.63715 0.57114 0.0
N323 N 0.79399 0.62624 0.5977 0.0
N324 N 0.8121 0.6185 0.62004 0.0
C325 C 0.84642 0.62524 0.60869 0.0
C326 C 0.8496 0.6366 0.57723 0.0
C327 C 0.80391 0.64738 0.54061 0.0
H328 H 0.8015 0.67356 0.54418 0.0
H329 H 0.77517 0.62348 0.53356 0.0
H330 H 0.82459 0.65247 0.52115 0.0
O331 O 0.75885 0.65792 0.64817 0.0
O332 O 0.79003 0.64415 0.68495 0.0
H333 H 0.90656 0.64816 0.61984 0.0
H334 H 0.87645 0.59751 0.62678 0.0
C335 C 0.87777 0.62577 0.62853 0.0
H336 H 0.87459 0.63171 0.65374 0.0
H337 H 0.83217 0.60519 0.72439 0.0
O338 O 0.73248 0.65159 0.57781 0.0
C339 C 0.77497 0.66392 0.6753 0.0
Co340 Co 0.38237 0.11987 0.60761 0.0
Co341 Co 0.40371 0.18658 0.65639 0.0
C342 C 0.45569 0.15271 0.64174 0.0
O343 O 0.43436 0.1298 0.62007 0.0
O344 O 0.44586 0.17417 0.65653 0.0
C345 C 0.37569 0.07316 0.552 0.0
O346 O 0.41134 0.09921 0.54491 0.0
C347 C 0.45642 0.26748 0.66359 0.0
C348 C 0.44042 0.28391 0.70871 0.0
C349 C 0.4659 0.2985 0.68336 0.0
N350 N 0.42621 0.23604 0.67607 0.0
N351 N 0.4167 0.2459 0.70315 0.0
C352 C 0.47734 0.26721 0.63412 0.0
H353 H 0.46817 0.23738 0.62646 0.0
H354 H 0.47116 0.28187 0.61456 0.0
H355 H 0.50895 0.28327 0.63836 0.0
C356 C 0.37171 0.17403 0.56564 0.0
N357 N 0.38209 0.16458 0.59323 0.0
N358 N 0.3885 0.19114 0.61461 0.0
C359 C 0.38166 0.21786 0.60153 0.0
C360 C 0.37153 0.20834 0.57001 0.0
C361 C 0.36183 0.1504 0.53597 0.0
H362 H 0.33683 0.12131 0.54058 0.0
H363 H 0.38665 0.14694 0.52906 0.0
H364 H 0.35497 0.16403 0.51601 0.0
O365 O 0.34773 0.0992 0.64469 0.0
O366 O 0.35925 0.14517 0.67992 0.0
H367 H 0.37236 0.2406 0.64496 0.0
H368 H 0.35734 0.25463 0.60937 0.0
C369 C 0.37955 0.24896 0.61971 0.0
H370 H 0.40767 0.27609 0.61828 0.0
H371 H 0.39428 0.22676 0.71787 0.0
O372 O 0.35949 0.07762 0.57627 0.0
C373 C 0.34004 0.11011 0.67076 0.0
Co374 Co 0.87913 0.25207 0.61411 0.0
Co375 Co 0.81354 0.21197 0.66478 0.0
C376 C 0.84816 0.29621 0.64646 0.0
O377 O 0.86918 0.29485 0.62437 0.0
O378 O 0.8272 0.26674 0.66338 0.0
C379 C 0.92064 0.28417 0.55451 0.0
O380 O 0.89031 0.28558 0.54443 0.0
C381 C 0.73716 0.19413 0.6831 0.0
C382 C 0.71559 0.14229 0.71324 0.0
C383 C 0.70479 0.16674 0.69907 0.0
N384 N 0.76587 0.18645 0.68754 0.0
N385 N 0.75311 0.15583 0.70611 0.0
C386 C 0.73895 0.22309 0.65957 0.0
H387 H 0.74976 0.25127 0.67169 0.0
H388 H 0.75901 0.22676 0.63993 0.0
H389 H 0.71011 0.2142 0.64942 0.0
C390 C 0.82443 0.18307 0.5762 0.0
N391 N 0.83393 0.206 0.60206 0.0
N392 N 0.80604 0.18974 0.62319 0.0
C393 C 0.77745 0.15645 0.61103 0.0
C394 C 0.78824 0.15099 0.58098 0.0
C395 C 0.85128 0.18929 0.54921 0.0
H396 H 0.88125 0.20193 0.55807 0.0
H397 H 0.84996 0.2095 0.53193 0.0
H398 H 0.84325 0.16185 0.53676 0.0
O399 O 0.90155 0.24103 0.65133 0.0
O400 O 0.85612 0.20961 0.68765 0.0
H401 H 0.7458 0.11926 0.64965 0.0
H402 H 0.71955 0.10647 0.61252 0.0
C403 C 0.74009 0.13075 0.62762 0.0
H404 H 0.72607 0.14762 0.63398 0.0
H405 H 0.76931 0.14297 0.71246 0.0
O406 O 0.92036 0.27069 0.58185 0.0
C407 C 0.89095 0.22421 0.6781 0.0
H408 H 0.69905 0.21284 0.17623 0.0
H409 H 0.4685 0.10664 0.17876 0.0
H410 H 0.62727 0.10617 0.12626 0.0
H411 H 0.54234 0.22597 0.20401 0.0
H412 H 0.52597 0.10175 0.16637 0.0
H413 H 0.64143 0.21444 0.19248 0.0
C414 C 0.67113 0.18974 0.1686 0.0
C415 C 0.668 0.15932 0.14979 0.0
C416 C 0.52955 0.12889 0.17485 0.0
C417 C 0.60172 0.16086 0.16865 0.0
C418 C 0.49687 0.13155 0.18223 0.0
C419 C 0.50095 0.1668 0.19225 0.0
C420 C 0.56637 0.16162 0.17796 0.0
C421 C 0.53816 0.19838 0.19612 0.0
C422 C 0.63822 0.1907 0.17791 0.0
C423 C 0.63102 0.13028 0.14059 0.0
N424 N 0.56945 0.19509 0.18889 0.0
N425 N 0.59925 0.13166 0.15024 0.0
H426 H 0.82342 0.34432 0.23047 0.0
H427 H 0.8878 0.52017 0.10872 0.0
H428 H 0.86906 0.34712 0.13714 0.0
H429 H 0.8179 0.50322 0.19194 0.0
H430 H 0.88879 0.46106 0.12182 0.0
H431 H 0.83011 0.40782 0.22034 0.0
C432 C 0.83523 0.35858 0.208 0.0
C433 C 0.84499 0.34035 0.18435 0.0
C434 C 0.87329 0.47037 0.1372 0.0
C435 C 0.85266 0.41253 0.17251 0.0
C436 C 0.87269 0.50409 0.12972 0.0
C437 C 0.85256 0.51662 0.14913 0.0
C438 C 0.85393 0.44922 0.16443 0.0
C439 C 0.8336 0.4946 0.17613 0.0
C440 C 0.83879 0.39458 0.20212 0.0
C441 C 0.86024 0.35987 0.15564 0.0
N442 N 0.83479 0.46205 0.18298 0.0
N443 N 0.86345 0.39485 0.15044 0.0
H444 H 0.65881 0.48011 0.23099 0.0
H445 H 0.48367 0.36753 0.10872 0.0
H446 H 0.65872 0.5201 0.13597 0.0
H447 H 0.49886 0.31639 0.19386 0.0
H448 H 0.54354 0.42733 0.12112 0.0
H449 H 0.59498 0.42381 0.22099 0.0
C450 C 0.64515 0.4771 0.20813 0.0
C451 C 0.66424 0.50412 0.18401 0.0
C452 C 0.53365 0.40297 0.13706 0.0
C453 C 0.59158 0.44023 0.17235 0.0
C454 C 0.4995 0.36886 0.13001 0.0
C455 C 0.48629 0.33678 0.15016 0.0
C456 C 0.5545 0.40512 0.16461 0.0
C457 C 0.50799 0.34023 0.17748 0.0
C458 C 0.60893 0.44495 0.20233 0.0
C459 C 0.64538 0.49919 0.15483 0.0
N460 N 0.54094 0.37374 0.18389 0.0
N461 N 0.61013 0.46775 0.14975 0.0
H462 H 0.17923 0.51987 0.25924 0.0
H463 H 0.11479 0.63227 0.38038 0.0
H464 H 0.13266 0.47728 0.35234 0.0
H465 H 0.18204 0.68319 0.29559 0.0
H466 H 0.1133 0.5718 0.3675 0.0
H467 H 0.17147 0.57618 0.26868 0.0
C468 C 0.16702 0.52228 0.28152 0.0
C469 C 0.15738 0.49458 0.30535 0.0
C470 C 0.12826 0.59624 0.35171 0.0
C471 C 0.14849 0.55852 0.31642 0.0
C472 C 0.12913 0.63075 0.35906 0.0
C473 C 0.14879 0.66298 0.33919 0.0
C474 C 0.14692 0.59388 0.32419 0.0
C475 C 0.16676 0.65924 0.31178 0.0
C476 C 0.16283 0.55444 0.28701 0.0
C477 C 0.14153 0.49875 0.33378 0.0
N478 N 0.16541 0.6254 0.30513 0.0
N479 N 0.13777 0.53026 0.33862 0.0
H480 H 0.47394 0.66033 0.26235 0.0
H481 H 0.3668 0.48495 0.38537 0.0
H482 H 0.52232 0.65548 0.35249 0.0
H483 H 0.31135 0.50128 0.30358 0.0
H484 H 0.42642 0.54397 0.37123 0.0
H485 H 0.41682 0.59755 0.27389 0.0
C486 C 0.47259 0.64575 0.2844 0.0
C487 C 0.50229 0.66313 0.30678 0.0
C488 C 0.40116 0.53457 0.35641 0.0
C489 C 0.43744 0.59185 0.32028 0.0
C490 C 0.36709 0.50091 0.36451 0.0
C491 C 0.3339 0.48814 0.34575 0.0
C492 C 0.40214 0.55546 0.32924 0.0
C493 C 0.33611 0.51001 0.31887 0.0
C494 C 0.43999 0.61017 0.29112 0.0
C495 C 0.49944 0.64329 0.33501 0.0
N496 N 0.36959 0.5425 0.31143 0.0
N497 N 0.46748 0.60876 0.34105 0.0
H498 H 0.52523 0.89861 0.36535 0.0
H499 H 0.31816 0.77271 0.28418 0.0
H500 H 0.48812 0.79011 0.31766 0.0
H501 H 0.36278 0.89127 0.31155 0.0
H502 H 0.38007 0.77826 0.298 0.0
H503 H 0.4649 0.89573 0.3489 0.0
C504 C 0.50433 0.8741 0.35168 0.0
C505 C 0.51178 0.84461 0.34283 0.0
C506 C 0.3766 0.80327 0.30071 0.0
C507 C 0.44309 0.84126 0.32383 0.0
C508 C 0.34135 0.8001 0.29269 0.0
C509 C 0.33562 0.83159 0.29672 0.0
C510 C 0.40623 0.8381 0.31324 0.0
C511 C 0.36636 0.86646 0.3079 0.0
C512 C 0.4701 0.87263 0.34208 0.0
C513 C 0.48378 0.81363 0.32491 0.0
N514 N 0.40034 0.86871 0.31613 0.0
N515 N 0.45077 0.81278 0.31608 0.0
H516 H 0.31237 0.81308 0.79929 0.0
H517 H 0.52676 0.87327 0.85114 0.0
H518 H 0.36973 0.88815 0.879 0.0
H519 H 0.47639 0.81791 0.76209 0.0
H520 H 0.47001 0.87957 0.8619 0.0
H521 H 0.37197 0.81401 0.78593 0.0
C522 C 0.33749 0.82976 0.81408 0.0
C523 C 0.3359 0.8505 0.84044 0.0
C524 C 0.47143 0.86633 0.83988 0.0
C525 C 0.40459 0.85169 0.82504 0.0
C526 C 0.5037 0.86263 0.8338 0.0
C527 C 0.50575 0.84456 0.80593 0.0
C528 C 0.44087 0.85153 0.818 0.0
C529 C 0.4757 0.83197 0.78387 0.0
C530 C 0.37164 0.83041 0.80627 0.0
C531 C 0.36955 0.87167 0.85853 0.0
N532 N 0.4442 0.83526 0.79054 0.0
N533 N 0.40249 0.87157 0.85058 0.0
H534 H 0.11859 0.48704 0.88249 0.0
H535 H 0.18173 0.65993 0.75766 0.0
H536 H 0.18428 0.49995 0.79736 0.0
H537 H 0.13935 0.66058 0.85161 0.0
H538 H 0.17408 0.59614 0.76857 0.0
H539 H 0.11811 0.54629 0.86872 0.0
C540 C 0.13282 0.50223 0.86091 0.0
C541 C 0.15168 0.48856 0.84118 0.0
C542 C 0.16624 0.61013 0.78675 0.0
C543 C 0.15096 0.55611 0.82516 0.0
C544 C 0.17039 0.64631 0.78042 0.0
C545 C 0.16156 0.66536 0.80395 0.0
C546 C 0.15281 0.59297 0.8167 0.0
C547 C 0.14689 0.64676 0.83306 0.0
C548 C 0.13254 0.53603 0.85306 0.0
C549 C 0.16957 0.50944 0.81344 0.0
N550 N 0.14314 0.61164 0.83871 0.0
N551 N 0.16876 0.5421 0.80629 0.0
H552 H 0.48712 0.70037 0.81873 0.0
H553 H 0.36339 0.4699 0.81324 0.0
H554 H 0.52316 0.62822 0.86656 0.0
H555 H 0.31857 0.54443 0.78828 0.0
H556 H 0.42556 0.52706 0.8267 0.0
H557 H 0.428 0.64298 0.80236 0.0
C558 C 0.48255 0.67239 0.82591 0.0
C559 C 0.51018 0.66912 0.84409 0.0
C560 C 0.40219 0.53086 0.81804 0.0
C561 C 0.44237 0.603 0.82505 0.0
C562 C 0.36699 0.49837 0.81003 0.0
C563 C 0.33606 0.50271 0.79973 0.0
C564 C 0.40638 0.56776 0.8153 0.0
C565 C 0.3418 0.54002 0.79629 0.0
C566 C 0.44872 0.63959 0.81651 0.0
C567 C 0.50252 0.63206 0.85273 0.0
N568 N 0.37622 0.5711 0.80413 0.0
N569 N 0.46935 0.60035 0.84298 0.0
H570 H 0.86531 0.52041 0.63659 0.0
H571 H 0.8149 0.31155 0.69689 0.0
H572 H 0.82016 0.47702 0.72989 0.0
H573 H 0.88196 0.36396 0.61231 0.0
H574 H 0.81527 0.37133 0.70859 0.0
H575 H 0.87113 0.4633 0.62676 0.0
C576 C 0.85654 0.49872 0.65498 0.0
C577 C 0.84147 0.50288 0.68384 0.0
C578 C 0.83005 0.36986 0.68754 0.0
C579 C 0.84831 0.43768 0.67292 0.0
C580 C 0.82971 0.33562 0.6807 0.0
C581 C 0.84834 0.3326 0.65345 0.0
C582 C 0.84887 0.40141 0.66689 0.0
C583 C 0.8672 0.36493 0.63354 0.0
C584 C 0.86012 0.46629 0.64945 0.0
C585 C 0.83173 0.47469 0.70727 0.0
N586 N 0.8668 0.39793 0.64058 0.0
N587 N 0.83489 0.44299 0.70117 0.0
H588 H 0.68877 0.5029 0.69106 0.0
H589 H 0.48068 0.34337 0.63077 0.0
H590 H 0.63628 0.51686 0.60622 0.0
H591 H 0.52255 0.34416 0.72523 0.0
H592 H 0.53759 0.40637 0.62075 0.0
H593 H 0.62885 0.44383 0.7031 0.0
C594 C 0.66467 0.49354 0.67488 0.0
C595 C 0.66768 0.51491 0.64747 0.0
C596 C 0.53427 0.39295 0.64375 0.0
C597 C 0.59876 0.44705 0.66129 0.0
C598 C 0.50195 0.35694 0.6494 0.0
C599 C 0.49747 0.33845 0.67865 0.0
C600 C 0.56247 0.41039 0.66747 0.0
C601 C 0.52516 0.35757 0.70233 0.0
C602 C 0.63035 0.45986 0.68192 0.0
C603 C 0.63532 0.50134 0.62757 0.0
N604 N 0.55681 0.39236 0.6961 0.0
N605 N 0.60226 0.46814 0.63478 0.0
H606 H 0.63927 0.10178 0.68019 0.0
H607 H 0.51336 0.20655 0.67882 0.0
H608 H 0.68197 0.21918 0.71017 0.0
H609 H 0.4807 0.10181 0.62651 0.0
H610 H 0.57178 0.20748 0.69632 0.0
H611 H 0.57692 0.09662 0.66719 0.0
C612 C 0.63513 0.12614 0.68463 0.0
C613 C 0.66553 0.16096 0.69619 0.0
C614 C 0.55191 0.18429 0.68099 0.0
C615 C 0.59499 0.15553 0.68117 0.0
C616 C 0.51847 0.18371 0.67094 0.0
C617 C 0.49204 0.15407 0.65107 0.0
C618 C 0.55907 0.15489 0.67134 0.0
C619 C 0.50038 0.12533 0.64166 0.0
C620 C 0.59982 0.12336 0.67691 0.0
C621 C 0.65913 0.1919 0.70119 0.0
N622 N 0.53316 0.12639 0.65196 0.0
N623 N 0.62461 0.18851 0.69356 0.0
H624 H 0.38041 0.15582 0.01395 0.0
H625 H 0.30149 0.93021 0.00211 0.0
H626 H 0.32349 0.0788 0.0924 0.0
H627 H 0.3054 0.9977 0.92078 0.0
H628 H 0.31934 0.98644 0.03622 0.0
H629 H 0.36171 0.09972 0.97942 0.0
C630 C 0.36391 0.12708 0.02382 0.0
C631 C 0.35392 0.12181 0.05608 0.0
C632 C 0.31625 0.98881 0.01089 0.0
C633 C 0.33318 0.05789 0.01714 0.0
C634 C 0.30632 0.95689 0.99145 0.0
C635 C 0.30191 0.95935 0.95864 0.0
C636 C 0.32253 0.02352 -0.00271 0.0
C637 C 0.3083 0.99454 0.94601 0.0
C638 C 0.35337 0.09519 0.00421 0.0
C639 C 0.33256 0.08404 0.0678 0.0
N640 N 0.31853 0.02534 0.96534 0.0
N641 N 0.32322 0.05347 0.04841 0.0
H642 H 0.88473 0.18785 0.03775 0.0
H643 H 0.02941 0.39751 0.96708 0.0
H644 H 0.88063 0.29019 0.06268 0.0
H645 H 0.03975 0.29689 0.94864 0.0
H646 H 0.97434 0.35859 0.00167 0.0
H647 H 0.94052 0.22699 0.00357 0.0
C648 C 0.89541 0.21853 0.03567 0.0
C649 C 0.87806 0.23592 0.05266 0.0
C650 C 0.98874 0.34507 0.99013 0.0
C651 C 0.94198 0.2809 0.01427 0.0
C652 C 0.02024 0.3673 0.97041 0.0
C653 C 0.03916 0.35044 0.95485 0.0
C654 C 0.97597 0.30564 0.99422 0.0
C655 C 0.026 0.31113 0.96009 0.0
C656 C 0.92737 0.2409 0.01643 0.0
C657 C 0.89335 0.27583 0.04986 0.0
N658 N 0.99514 0.29005 0.97921 0.0
N659 N 0.92442 0.29701 0.03098 0.0
H660 H 0.71524 0.58878 0.06064 0.0
H661 H 0.70331 0.74711 0.9532 0.0
H662 H 0.81301 0.70105 0.04181 0.0
H663 H 0.61534 0.62678 0.95326 0.0
H664 H 0.74156 0.73238 0.98974 0.0
H665 H 0.67593 0.60371 0.02512 0.0
C666 C 0.72835 0.61655 0.04886 0.0
C667 C 0.76734 0.64364 0.05373 0.0
C668 C 0.71388 0.70921 0.98177 0.0
C669 C 0.72276 0.66109 0.01348 0.0
C670 C 0.69192 0.7176 0.96101 0.0
C671 C 0.65608 0.68808 0.95005 0.0
C672 C 0.69982 0.67109 0.99191 0.0
C673 C 0.64285 0.65041 0.961 0.0
C674 C 0.70602 0.62503 0.02861 0.0
C675 C 0.78313 0.67924 0.03816 0.0
N676 N 0.66471 0.64299 0.98135 0.0
N677 N 0.76073 0.68702 0.01875 0.0
H678 H 0.99495 0.31314 0.57356 0.0
H679 H 0.07704 0.30384 0.40515 0.0
H680 H 0.92405 0.28384 0.48952 0.0
H681 H 0.14784 0.39045 0.4738 0.0
H682 H 0.02028 0.28598 0.43858 0.0
H683 H 0.05158 0.33211 0.53991 0.0
C684 C 0.99136 0.31075 0.548 0.0
C685 C 0.95489 0.29703 0.53419 0.0
C686 C 0.04825 0.30897 0.4462 0.0
C687 C 0.0192 0.31789 0.49584 0.0
C688 C 0.08049 0.31924 0.42718 0.0
C689 C 0.1168 0.34924 0.43651 0.0
C690 C 0.05271 0.32811 0.47515 0.0
C691 C 0.12018 0.36729 0.46581 0.0
C692 C 0.02363 0.32166 0.5289 0.0
C693 C 0.95176 0.29456 0.501 0.0
N694 N 0.08848 0.35636 0.48422 0.0
N695 N 0.98353 0.30451 0.48288 0.0
H696 H 0.69631 0.77242 0.40076 0.0
H697 H 0.6988 0.69348 0.57178 0.0
H698 H 0.6197 0.7703 0.47376 0.0
H699 H 0.70444 0.63425 0.48805 0.0
H700 H 0.68262 0.73345 0.53819 0.0
H701 H 0.71321 0.73329 0.43481 0.0
C702 C 0.68287 0.76343 0.42388 0.0
C703 C 0.65565 0.77336 0.43419 0.0
C704 C 0.68738 0.71165 0.52728 0.0
C705 C 0.6761 0.73048 0.47352 0.0
C706 C 0.6967 0.68898 0.5463 0.0
C707 C 0.70279 0.66052 0.53255 0.0
C708 C 0.68526 0.7065 0.49427 0.0
C709 C 0.69964 0.65572 0.4995 0.0
C710 C 0.69266 0.74139 0.44326 0.0
C711 C 0.64049 0.76276 0.46492 0.0
N712 N 0.69147 0.67884 0.48135 0.0
N713 N 0.65097 0.74185 0.48363 0.0
H714 H 0.31814 0.00248 0.5703 0.0
H715 H 0.24938 0.92134 0.39745 0.0
H716 H 0.38297 0.06616 0.48803 0.0
H717 H 0.23914 0.84554 0.47425 0.0
H718 H 0.28959 0.97701 0.43141 0.0
H719 H 0.27994 0.94621 0.53641 0.0
C720 C 0.32432 0.00456 0.54508 0.0
C721 C 0.35373 0.03889 0.53184 0.0
C722 C 0.27858 0.94817 0.44073 0.0
C723 C 0.3098 0.97513 0.49313 0.0
C724 C 0.25577 0.9165 0.42146 0.0
C725 C 0.24152 0.87894 0.43303 0.0
C726 C 0.2862 0.94215 0.47206 0.0
C727 C 0.24962 0.87411 0.46453 0.0
C728 C 0.30265 0.97247 0.52588 0.0
C729 C 0.36069 0.04009 0.49911 0.0
N730 N 0.27133 0.90544 0.4831 0.0
N731 N 0.33851 0.00872 0.48072 0.0
H732 H 0.70121 0.07505 0.98644 0.0
H733 H 0.6073 0.8494 0.97316 0.0
H734 H 0.68635 0.00693 0.07021 0.0
H735 H 0.6942 0.92425 0.9063 0.0
H736 H 0.62401 0.90562 0.00719 0.0
H737 H 0.68531 0.0182 0.95343 0.0
C738 C 0.69421 0.04804 -0.00219 0.0
C739 C 0.6951 0.04547 0.03095 0.0
C740 C 0.63927 0.90957 0.985 0.0
C741 C 0.67654 0.98089 0.99374 0.0
C742 C 0.62993 0.87767 0.96576 0.0
C743 C 0.64896 0.88252 0.93673 0.0
C744 C 0.6672 0.94644 0.97469 0.0
C745 C 0.67804 0.91961 0.92807 0.0
C746 C 0.68547 0.01588 0.97907 0.0
C747 C 0.68614 0.01 0.04466 0.0
N748 N 0.68595 0.95037 0.94676 0.0
N749 N 0.67686 0.9789 0.02599 0.0
H750 H 0.93304 0.62861 0.99013 0.0
H751 H 0.1565 0.77595 0.97612 0.0
H752 H 0.99806 0.69625 0.07091 0.0
H753 H 0.07824 0.76396 0.90081 0.0
H754 H 0.10088 0.73824 0.01112 0.0
H755 H 0.98877 0.66857 0.9559 0.0
C756 C 0.95911 0.65167 0.00063 0.0
C757 C 0.96108 0.6593 0.03328 0.0
C758 C 0.09603 0.7439 0.98689 0.0
C759 C 0.02455 0.7044 0.99464 0.0
C760 C 0.1276 0.7654 0.96704 0.0
C761 C 0.12174 0.77226 0.93545 0.0
C762 C 0.05853 0.72874 0.97478 0.0
C763 C 0.08383 0.75818 0.92476 0.0
C764 C 0.99066 0.67452 0.98114 0.0
C765 C 0.99539 0.68965 0.04577 0.0
N766 N 0.05354 0.73656 0.94426 0.0
N767 N 0.02598 0.71093 0.02646 0.0
H768 H 0.24243 0.32233 0.89956 0.0
H769 H 0.31425 0.3105 0.07213 0.0
H770 H 0.23923 0.39172 0.97659 0.0
H771 H 0.3683 0.29676 0.98825 0.0
H772 H 0.27792 0.33112 0.03861 0.0
H773 H 0.28009 0.30306 0.933 0.0
C774 C 0.24983 0.33358 0.92352 0.0
C775 C 0.23828 0.35902 0.93531 0.0
C776 C 0.29783 0.32371 0.0276 0.0
C777 C 0.2802 0.33635 0.97376 0.0
C778 C 0.31843 0.3118 0.04663 0.0
C779 C 0.34431 0.30196 0.03287 0.0
C780 C 0.3025 0.32494 0.99455 0.0
C781 C 0.34878 0.30431 -0.00024 0.0
C782 C 0.27121 0.32257 0.94251 0.0
C783 C 0.24764 0.37201 0.96671 0.0
N784 N 0.32775 0.31523 0.98163 0.0
N785 N 0.26798 0.3604 0.98498 0.0
H786 H 0.0424 0.74868 0.44775 0.0
H787 H 0.88317 0.59341 0.56517 0.0
H788 H 0.02991 0.63692 0.46647 0.0
H789 H 0.89056 0.70158 0.54123 0.0
H790 H 0.93866 0.60992 0.53082 0.0
H791 H 0.98886 0.7332 0.4838 0.0
C792 C 0.02851 0.72091 0.45954 0.0
C793 C 0.04059 0.69396 0.45395 0.0
C794 C 0.92814 0.63004 0.53295 0.0
C795 C 0.9791 0.67605 0.49526 0.0
C796 C 0.89657 0.62065 0.55257 0.0
C797 C 0.88226 0.64608 0.55569 0.0
C798 C 0.94565 0.66527 0.51649 0.0
C799 C 0.90044 0.68096 0.53895 0.0
C800 C 0.99786 0.71208 0.48009 0.0
C801 C 0.02154 0.65853 0.46999 0.0
N802 N 0.93125 0.68957 0.52004 0.0
N803 N 0.99168 0.65057 0.48986 0.0
H804 H 0.30531 0.18262 0.53539 0.0
H805 H 0.37583 0.38578 0.45039 0.0
H806 H 0.41534 0.28366 0.554 0.0
H807 H 0.25669 0.29489 0.45246 0.0
H808 H 0.39243 0.34702 0.48478 0.0
H809 H 0.28861 0.22124 0.50042 0.0
C810 C 0.32606 0.21284 0.53171 0.0
C811 C 0.36181 0.2301 0.54717 0.0
C812 C 0.36264 0.33564 0.47779 0.0
C813 C 0.34297 0.27438 0.50785 0.0
C814 C 0.35314 0.35774 0.45817 0.0
C815 C 0.31483 0.34355 0.44853 0.0
C816 C 0.33369 0.29888 0.48756 0.0
C817 C 0.2866 0.30702 0.45937 0.0
C818 C 0.31646 0.23492 0.51207 0.0
C819 C 0.38752 0.26944 0.54231 0.0
N820 N 0.29664 0.28583 0.47815 0.0
N821 N 0.37766 0.29029 0.52298 0.0
H822 H 0.75555 0.07469 0.59634 0.0
H823 H 0.69152 0.99593 0.42081 0.0
H824 H 0.77378 0.15072 0.51753 0.0
H825 H 0.62976 0.92934 0.50308 0.0
H826 H 0.72977 0.05146 0.45529 0.0
H827 H 0.71726 0.01917 0.56172 0.0
C828 C 0.75127 0.07963 0.57175 0.0
C829 C 0.76708 0.11724 0.55984 0.0
C830 C 0.70777 0.02471 0.46573 0.0
C831 C 0.72449 0.05409 0.52004 0.0
C832 C 0.68602 0.99301 0.44615 0.0
C833 C 0.65738 0.95803 0.45916 0.0
C834 C 0.70138 0.02119 0.49862 0.0
C835 C 0.65139 0.95586 0.4921 0.0
C836 C 0.72956 0.04802 0.55206 0.0
C837 C 0.76188 0.12212 0.5276 0.0
N838 N 0.67347 0.98697 0.51079 0.0
N839 N 0.74102 0.09086 0.50874 0.0
H840 H 0.24958 0.28489 0.33876 0.0
H841 H 0.27766 0.23956 0.16008 0.0
H842 H 0.21331 0.32381 0.25698 0.0
H843 H 0.32991 0.21693 0.2408 0.0
H844 H 0.23986 0.2553 0.19607 0.0
H845 H 0.2648 0.24561 0.30408 0.0
C846 C 0.2443 0.28482 0.31351 0.0
C847 C 0.2309 0.3084 0.30067 0.0
C848 C 0.25912 0.24633 0.20595 0.0
C849 C 0.24847 0.26339 0.26082 0.0
C850 C 0.28073 0.23727 0.18543 0.0
C851 C 0.30765 0.22773 0.19748 0.0
C852 C 0.26456 0.24608 0.23882 0.0
C853 C 0.30982 0.22453 0.23049 0.0
C854 C 0.25301 0.2623 0.29375 0.0
C855 C 0.22399 0.30647 0.26788 0.0
N856 N 0.28903 0.23437 0.25006 0.0
N857 N 0.23342 0.28481 0.249 0.0
H858 H 0.75332 0.03893 0.15409 0.0
H859 H 0.71997 0.96252 0.33196 0.0
H860 H 0.78624 0.1127 0.23669 0.0
H861 H 0.67007 0.88905 0.25008 0.0
H862 H 0.75837 0.01672 0.29686 0.0
H863 H 0.73726 0.98397 0.18836 0.0
C864 C 0.75773 0.04372 0.17945 0.0
C865 C 0.77037 0.08041 0.19263 0.0
C866 C 0.73947 0.98867 0.28653 0.0
C867 C 0.75179 0.01731 0.23199 0.0
C868 C 0.71747 0.95762 0.30654 0.0
C869 C 0.69109 0.92133 0.29389 0.0
C870 C 0.735 0.98355 0.25356 0.0
C871 C 0.68972 0.91659 0.26083 0.0
C872 C 0.74851 0.01223 0.19898 0.0
C873 C 0.7762 0.0849 0.22555 0.0
N874 N 0.71091 0.94757 0.24175 0.0
N875 N 0.76626 0.05355 0.24418 0.0
H876 H 0.88635 0.67459 0.23999 0.0
H877 H 0.04555 0.77299 0.3358 0.0
H878 H 0.96466 0.72138 0.1606 0.0
H879 H 0.1098 0.77819 0.25182 0.0
H880 H 0.98975 0.75758 0.30283 0.0
H881 H 0.93971 0.71285 0.27587 0.0
C882 C 0.91458 0.69374 0.23006 0.0
C883 C 0.92111 0.69424 0.19731 0.0
C884 C 0.01583 0.76188 0.29146 0.0
C885 C 0.98274 0.7388 0.23822 0.0
C886 C 0.04797 0.7712 0.31029 0.0
C887 C 0.08209 0.77597 0.29657 0.0
C888 C 0.01758 0.75651 0.25867 0.0
C889 C 0.08395 0.77431 0.26341 0.0
C890 C 0.94527 0.71589 0.25061 0.0
C891 C 0.95837 0.71954 0.18576 0.0
N892 N 0.05187 0.76403 0.24563 0.0
N893 N 0.98782 0.74026 0.20621 0.0
H894 H 0.75821 0.7197 0.65856 0.0
H895 H 0.71539 0.7519 0.837 0.0
H896 H 0.78517 0.67211 0.74012 0.0
H897 H 0.67415 0.78526 0.75494 0.0
H898 H 0.75427 0.73615 0.80233 0.0
H899 H 0.74123 0.75707 0.69392 0.0
C900 C 0.76112 0.71751 0.68395 0.0
C901 C 0.77239 0.69207 0.69644 0.0
C902 C 0.73714 0.74739 0.7919 0.0
C903 C 0.75266 0.73475 0.73707 0.0
C904 C 0.71486 0.75642 0.81167 0.0
C905 C 0.69079 0.7692 0.79878 0.0
C906 C 0.73531 0.75097 0.75892 0.0
C907 C 0.69193 0.77512 0.76588 0.0
C908 C 0.75137 0.7389 0.70411 0.0
C909 C 0.77627 0.69104 0.72947 0.0
N910 N 0.71337 0.76539 0.74701 0.0
N911 N 0.76581 0.71161 0.74869 0.0
H912 H 0.21333 0.88703 0.75047 0.0
H913 H 0.32588 0.11482 0.73417 0.0
H914 H 0.24474 0.96527 0.82998 0.0
H915 H 0.28673 0.03647 0.65439 0.0
H916 H 0.28548 0.06066 0.76921 0.0
H917 H 0.22877 0.9409 0.71456 0.0
C918 C 0.22269 0.91532 0.76042 0.0
C919 C 0.22864 0.92182 0.79319 0.0
C920 C 0.28525 0.05545 0.74394 0.0
C921 C 0.24683 0.98363 0.75235 0.0
C922 C 0.30825 0.08643 0.72394 0.0
C923 C 0.31042 0.08003 0.69145 0.0
C924 C 0.26454 0.01791 0.73131 0.0
C925 C 0.28669 0.04264 0.67944 0.0
C926 C 0.23165 0.94614 0.73992 0.0
C927 C 0.24059 0.95907 0.80479 0.0
N928 N 0.26527 0.01292 0.69942 0.0
N929 N 0.24991 0.98865 0.78438 0.0
H930 H 0.03954 0.28236 0.8385 0.0
H931 H 0.96239 0.23813 0.66081 0.0
H932 H 0.11264 0.32502 0.75565 0.0
H933 H 0.8892 0.21414 0.74294 0.0
H934 H 0.01689 0.25433 0.69576 0.0
H935 H 0.98476 0.24229 0.80436 0.0
C936 C 0.04426 0.28288 0.81312 0.0
C937 C 0.08066 0.3078 0.79984 0.0
C938 C 0.98882 0.24495 0.70617 0.0
C939 C 0.01776 0.26193 0.76062 0.0
C940 C 0.9576 0.23564 0.68625 0.0
C941 C 0.92129 0.22557 0.69902 0.0
C942 C 0.98387 0.24439 0.73916 0.0
C943 C 0.91672 0.22214 0.73209 0.0
C944 C 0.01287 0.25994 0.79366 0.0
C945 C 0.08507 0.30661 0.76688 0.0
N946 N 0.94786 0.23219 0.75108 0.0
N947 N 0.0538 0.28453 0.74833 0.0
loop_
_geom_bond_atom_site_label_1
_geom_bond_atom_site_label_2
_geom_bond_distance
_geom_bond_site_symmetry_2
_ccdc_geom_bond_type
Co0 O3 1.970 . S
Co0 N17 1.989 . S
Co0 O25 1.967 . S
Co0 O32 1.920 . S
Co1 O4 1.966 . S
Co1 N10 2.022 . S
Co1 N18 1.993 . S
Co1 O26 1.941 . S
C2 O3 1.258 . S
C2 O4 1.263 . S
O3 Co0 1.970 . S
O3 C2 1.258 . S
O4 Co1 1.966 . S
O4 C2 1.263 . S
C5 O6 1.235 . S
C5 O32 1.289 . S
O6 C5 1.235 . S
C7 C9 1.400 . S
C7 N10 1.351 . S
C7 C12 1.501 . S
C8 C9 1.387 . S
C8 N11 1.341 . S
C9 C7 1.400 . S
C9 C8 1.387 . S
N10 Co1 2.022 . S
N10 C7 1.351 . S
N10 N11 1.365 . S
N11 C8 1.341 . S
N11 N10 1.365 . S
N11 H31 0.862 . S
C12 C7 1.501 . S
C12 H13 0.961 . S
C12 H14 0.961 . S
C12 H15 0.960 . S
H13 C12 0.961 . S
H14 C12 0.961 . S
H15 C12 0.960 . S
C16 N17 1.342 . S
C16 C20 1.401 . S
C16 C21 1.499 . S
N17 Co0 1.989 . S
N17 C16 1.342 . S
N17 N18 1.388 . S
N18 Co1 1.993 . S
N18 N17 1.388 . S
N18 C19 1.346 . S
C19 N18 1.346 . S
C19 C20 1.396 . S
C19 C29 1.510 . S
C20 C16 1.401 . S
C20 C19 1.396 . S
C21 C16 1.499 . S
C21 H22 0.959 . S
C21 H23 0.960 . S
C21 H24 0.961 . S
H22 C21 0.959 . S
H23 C21 0.960 . S
H24 C21 0.961 . S
O25 Co0 1.967 . S
O25 C33 1.258 . S
O26 Co1 1.941 . S
O26 C33 1.266 . S
H27 C29 0.959 . S
H28 C29 0.961 . S
C29 C19 1.510 . S
C29 H27 0.959 . S
C29 H28 0.961 . S
C29 H30 0.960 . S
H30 C29 0.960 . S
H31 N11 0.862 . S
O32 Co0 1.920 . S
O32 C5 1.289 . S
C33 O25 1.258 . S
C33 O26 1.266 . S
Co34 O37 1.970 . S
Co34 N51 1.989 . S
Co34 O59 1.967 . S
Co34 O66 1.920 . S
Co35 O38 1.966 . S
Co35 N44 2.022 . S
Co35 N52 1.993 . S
Co35 O60 1.941 . S
C36 O37 1.258 . S
C36 O38 1.263 . S
O37 Co34 1.970 . S
O37 C36 1.258 . S
O38 Co35 1.966 . S
O38 C36 1.263 . S
C39 O40 1.235 . S
C39 O66 1.289 . S
O40 C39 1.235 . S
C41 C43 1.400 . S
C41 N44 1.351 . S
C41 C46 1.501 . S
C42 C43 1.387 . S
C42 N45 1.341 . S
C43 C41 1.400 . S
C43 C42 1.387 . S
N44 Co35 2.022 . S
N44 C41 1.351 . S
N44 N45 1.365 . S
N45 C42 1.341 . S
N45 N44 1.365 . S
N45 H65 0.862 . S
C46 C41 1.501 . S
C46 H47 0.961 . S
C46 H48 0.961 . S
C46 H49 0.960 . S
H47 C46 0.961 . S
H48 C46 0.961 . S
H49 C46 0.960 . S
C50 N51 1.342 . S
C50 C54 1.401 . S
C50 C55 1.499 . S
N51 Co34 1.989 . S
N51 C50 1.342 . S
N51 N52 1.388 . S
N52 Co35 1.993 . S
N52 N51 1.388 . S
N52 C53 1.346 . S
C53 N52 1.346 . S
C53 C54 1.396 . S
C53 C63 1.510 . S
C54 C50 1.401 . S
C54 C53 1.396 . S
C55 C50 1.499 . S
C55 H56 0.959 . S
C55 H57 0.960 . S
C55 H58 0.961 . S
H56 C55 0.959 . S
H57 C55 0.960 . S
H58 C55 0.961 . S
O59 Co34 1.967 . S
O59 C67 1.258 . S
O60 Co35 1.941 . S
O60 C67 1.266 . S
H61 C63 0.959 . S
H62 C63 0.961 . S
C63 C53 1.510 . S
C63 H61 0.959 . S
C63 H62 0.961 . S
C63 H64 0.960 . S
H64 C63 0.960 . S
H65 N45 0.862 . S
O66 Co34 1.920 . S
O66 C39 1.289 . S
C67 O59 1.258 . S
C67 O60 1.266 . S
Co68 O71 1.970 . S
Co68 N85 1.989 . S
Co68 O93 1.967 . S
Co68 O100 1.920 . S
Co69 O72 1.966 . S
Co69 N78 2.022 . S
Co69 N86 1.993 . S
Co69 O94 1.941 . S
C70 O71 1.258 . S
C70 O72 1.263 . S
O71 Co68 1.970 . S
O71 C70 1.258 . S
O72 Co69 1.966 . S
O72 C70 1.263 . S
C73 O74 1.235 . S
C73 O100 1.289 . S
O74 C73 1.235 . S
C75 C77 1.400 . S
C75 N78 1.351 . S
C75 C80 1.501 . S
C76 C77 1.387 . S
C76 N79 1.341 . S
C77 C75 1.400 . S
C77 C76 1.387 . S
N78 Co69 2.022 . S
N78 C75 1.351 . S
N78 N79 1.365 . S
N79 C76 1.341 . S
N79 N78 1.365 . S
N79 H99 0.862 . S
C80 C75 1.501 . S
C80 H81 0.961 . S
C80 H82 0.961 . S
C80 H83 0.960 . S
H81 C80 0.961 . S
H82 C80 0.961 . S
H83 C80 0.960 . S
C84 N85 1.342 . S
C84 C88 1.401 . S
C84 C89 1.499 . S
N85 Co68 1.989 . S
N85 C84 1.342 . S
N85 N86 1.388 . S
N86 Co69 1.993 . S
N86 N85 1.388 . S
N86 C87 1.346 . S
C87 N86 1.346 . S
C87 C88 1.396 . S
C87 C97 1.510 . S
C88 C84 1.401 . S
C88 C87 1.396 . S
C89 C84 1.499 . S
C89 H90 0.959 . S
C89 H91 0.960 . S
C89 H92 0.961 . S
H90 C89 0.959 . S
H91 C89 0.960 . S
H92 C89 0.961 . S
O93 Co68 1.967 . S
O93 C101 1.258 . S
O94 Co69 1.941 . S
O94 C101 1.266 . S
H95 C97 0.959 . S
H96 C97 0.961 . S
C97 C87 1.510 . S
C97 H95 0.959 . S
C97 H96 0.961 . S
C97 H98 0.960 . S
H98 C97 0.960 . S
H99 N79 0.862 . S
O100 Co68 1.920 . S
O100 C73 1.289 . S
C101 O93 1.258 . S
C101 O94 1.266 . S
Co102 O105 1.970 . S
Co102 N119 1.989 . S
Co102 O127 1.967 . S
Co102 O134 1.920 . S
Co103 O106 1.966 . S
Co103 N112 2.022 . S
Co103 N120 1.993 . S
Co103 O128 1.941 . S
C104 O105 1.258 . S
C104 O106 1.263 . S
O105 Co102 1.970 . S
O105 C104 1.258 . S
O106 Co103 1.966 . S
O106 C104 1.263 . S
C107 O108 1.235 . S
C107 O134 1.289 . S
O108 C107 1.235 . S
C109 C111 1.400 . S
C109 N112 1.351 . S
C109 C114 1.501 . S
C110 C111 1.387 . S
C110 N113 1.341 . S
C111 C109 1.400 . S
C111 C110 1.387 . S
N112 Co103 2.022 . S
N112 C109 1.351 . S
N112 N113 1.365 . S
N113 C110 1.341 . S
N113 N112 1.365 . S
N113 H133 0.862 . S
C114 C109 1.501 . S
C114 H115 0.961 . S
C114 H116 0.961 . S
C114 H117 0.960 . S
H115 C114 0.961 . S
H116 C114 0.961 . S
H117 C114 0.960 . S
C118 N119 1.342 . S
C118 C122 1.401 . S
C118 C123 1.499 . S
N119 Co102 1.989 . S
N119 C118 1.342 . S
N119 N120 1.388 . S
N120 Co103 1.993 . S
N120 N119 1.388 . S
N120 C121 1.346 . S
C121 N120 1.346 . S
C121 C122 1.396 . S
C121 C131 1.510 . S
C122 C118 1.401 . S
C122 C121 1.396 . S
C123 C118 1.499 . S
C123 H124 0.959 . S
C123 H125 0.960 . S
C123 H126 0.961 . S
H124 C123 0.959 . S
H125 C123 0.960 . S
H126 C123 0.961 . S
O127 Co102 1.967 . S
O127 C135 1.258 . S
O128 Co103 1.941 . S
O128 C135 1.266 . S
H129 C131 0.959 . S
H130 C131 0.961 . S
C131 C121 1.510 . S
C131 H129 0.959 . S
C131 H130 0.961 . S
C131 H132 0.960 . S
H132 C131 0.960 . S
H133 N113 0.862 . S
O134 Co102 1.920 . S
O134 C107 1.289 . S
C135 O127 1.258 . S
C135 O128 1.266 . S
Co136 O139 1.970 . S
Co136 N153 1.989 . S
Co136 O161 1.967 . S
Co136 O168 1.920 . S
Co137 O140 1.966 . S
Co137 N146 2.022 . S
Co137 N154 1.993 . S
Co137 O162 1.941 . S
C138 O139 1.258 . S
C138 O140 1.263 . S
O139 Co136 1.970 . S
O139 C138 1.258 . S
O140 Co137 1.966 . S
O140 C138 1.263 . S
C141 O142 1.235 . S
C141 O168 1.289 . S
O142 C141 1.235 . S
C143 C145 1.400 . S
C143 N146 1.351 . S
C143 C148 1.501 . S
C144 C145 1.387 . S
C144 N147 1.341 . S
C145 C143 1.400 . S
C145 C144 1.387 . S
N146 Co137 2.022 . S
N146 C143 1.351 . S
N146 N147 1.365 . S
N147 C144 1.341 . S
N147 N146 1.365 . S
N147 H167 0.862 . S
C148 C143 1.501 . S
C148 H149 0.961 . S
C148 H150 0.961 . S
C148 H151 0.960 . S
H149 C148 0.961 . S
H150 C148 0.961 . S
H151 C148 0.960 . S
C152 N153 1.342 . S
C152 C156 1.401 . S
C152 C157 1.499 . S
N153 Co136 1.989 . S
N153 C152 1.342 . S
N153 N154 1.388 . S
N154 Co137 1.993 . S
N154 N153 1.388 . S
N154 C155 1.346 . S
C155 N154 1.346 . S
C155 C156 1.396 . S
C155 C165 1.510 . S
C156 C152 1.401 . S
C156 C155 1.396 . S
C157 C152 1.499 . S
C157 H158 0.959 . S
C157 H159 0.960 . S
C157 H160 0.961 . S
H158 C157 0.959 . S
H159 C157 0.960 . S
H160 C157 0.961 . S
O161 Co136 1.967 . S
O161 C169 1.258 . S
O162 Co137 1.941 . S
O162 C169 1.266 . S
H163 C165 0.959 . S
H164 C165 0.961 . S
C165 C155 1.510 . S
C165 H163 0.959 . S
C165 H164 0.961 . S
C165 H166 0.960 . S
H166 C165 0.960 . S
H167 N147 0.862 . S
O168 Co136 1.920 . S
O168 C141 1.289 . S
C169 O161 1.258 . S
C169 O162 1.266 . S
Co170 O173 1.970 . S
Co170 N187 1.989 . S
Co170 O195 1.967 . S
Co170 O202 1.920 . S
Co171 O174 1.966 . S
Co171 N180 2.022 . S
Co171 N188 1.993 . S
Co171 O196 1.941 . S
C172 O173 1.258 . S
C172 O174 1.263 . S
O173 Co170 1.970 . S
O173 C172 1.258 . S
O174 Co171 1.966 . S
O174 C172 1.263 . S
C175 O176 1.235 . S
C175 O202 1.289 . S
O176 C175 1.235 . S
C177 C179 1.400 . S
C177 N180 1.351 . S
C177 C182 1.501 . S
C178 C179 1.387 . S
C178 N181 1.341 . S
C179 C177 1.400 . S
C179 C178 1.387 . S
N180 Co171 2.022 . S
N180 C177 1.351 . S
N180 N181 1.365 . S
N181 C178 1.341 . S
N181 N180 1.365 . S
N181 H201 0.862 . S
C182 C177 1.501 . S
C182 H183 0.961 . S
C182 H184 0.961 . S
C182 H185 0.960 . S
H183 C182 0.961 . S
H184 C182 0.961 . S
H185 C182 0.960 . S
C186 N187 1.342 . S
C186 C190 1.401 . S
C186 C191 1.499 . S
N187 Co170 1.989 . S
N187 C186 1.342 . S
N187 N188 1.388 . S
N188 Co171 1.993 . S
N188 N187 1.388 . S
N188 C189 1.346 . S
C189 N188 1.346 . S
C189 C190 1.396 . S
C189 C199 1.510 . S
C190 C186 1.401 . S
C190 C189 1.396 . S
C191 C186 1.499 . S
C191 H192 0.959 . S
C191 H193 0.960 . S
C191 H194 0.961 . S
H192 C191 0.959 . S
H193 C191 0.960 . S
H194 C191 0.961 . S
O195 Co170 1.967 . S
O195 C203 1.258 . S
O196 Co171 1.941 . S
O196 C203 1.266 . S
H197 C199 0.959 . S
H198 C199 0.961 . S
C199 C189 1.510 . S
C199 H197 0.959 . S
C199 H198 0.961 . S
C199 H200 0.960 . S
H200 C199 0.960 . S
H201 N181 0.862 . S
O202 Co170 1.920 . S
O202 C175 1.289 . S
C203 O195 1.258 . S
C203 O196 1.266 . S
Co204 O207 1.970 . S
Co204 N221 1.989 . S
Co204 O229 1.967 . S
Co204 O236 1.920 . S
Co205 O208 1.966 . S
Co205 N214 2.022 . S
Co205 N222 1.993 . S
Co205 O230 1.941 . S
C206 O207 1.258 . S
C206 O208 1.263 . S
O207 Co204 1.970 . S
O207 C206 1.258 . S
O208 Co205 1.966 . S
O208 C206 1.263 . S
C209 O210 1.235 . S
C209 O236 1.289 . S
O210 C209 1.235 . S
C211 C213 1.400 . S
C211 N214 1.351 . S
C211 C216 1.501 . S
C212 C213 1.387 . S
C212 N215 1.341 . S
C213 C211 1.400 . S
C213 C212 1.387 . S
N214 Co205 2.022 . S
N214 C211 1.351 . S
N214 N215 1.365 . S
N215 C212 1.341 . S
N215 N214 1.365 . S
N215 H235 0.862 . S
C216 C211 1.501 . S
C216 H217 0.961 . S
C216 H218 0.961 . S
C216 H219 0.960 . S
H217 C216 0.961 . S
H218 C216 0.961 . S
H219 C216 0.960 . S
C220 N221 1.342 . S
C220 C224 1.401 . S
C220 C225 1.499 . S
N221 Co204 1.989 . S
N221 C220 1.342 . S
N221 N222 1.388 . S
N222 Co205 1.993 . S
N222 N221 1.388 . S
N222 C223 1.346 . S
C223 N222 1.346 . S
C223 C224 1.396 . S
C223 C233 1.510 . S
C224 C220 1.401 . S
C224 C223 1.396 . S
C225 C220 1.499 . S
C225 H226 0.959 . S
C225 H227 0.960 . S
C225 H228 0.961 . S
H226 C225 0.959 . S
H227 C225 0.960 . S
H228 C225 0.961 . S
O229 Co204 1.967 . S
O229 C237 1.258 . S
O230 Co205 1.941 . S
O230 C237 1.266 . S
H231 C233 0.959 . S
H232 C233 0.961 . S
C233 C223 1.510 . S
C233 H231 0.959 . S
C233 H232 0.961 . S
C233 H234 0.960 . S
H234 C233 0.960 . S
H235 N215 0.862 . S
O236 Co204 1.920 . S
O236 C209 1.289 . S
C237 O229 1.258 . S
C237 O230 1.266 . S
Co238 O241 1.970 . S
Co238 N255 1.989 . S
Co238 O263 1.967 . S
Co238 O270 1.920 . S
Co239 O242 1.966 . S
Co239 N248 2.022 . S
Co239 N256 1.993 . S
Co239 O264 1.941 . S
C240 O241 1.258 . S
C240 O242 1.263 . S
O241 Co238 1.970 . S
O241 C240 1.258 . S
O242 Co239 1.966 . S
O242 C240 1.263 . S
C243 O244 1.235 . S
C243 O270 1.289 . S
O244 C243 1.235 . S
C245 C247 1.400 . S
C245 N248 1.351 . S
C245 C250 1.501 . S
C246 C247 1.387 . S
C246 N249 1.341 . S
C247 C245 1.400 . S
C247 C246 1.387 . S
N248 Co239 2.022 . S
N248 C245 1.351 . S
N248 N249 1.365 . S
N249 C246 1.341 . S
N249 N248 1.365 . S
N249 H269 0.862 . S
C250 C245 1.501 . S
C250 H251 0.961 . S
C250 H252 0.961 . S
C250 H253 0.960 . S
H251 C250 0.961 . S
H252 C250 0.961 . S
H253 C250 0.960 . S
C254 N255 1.342 . S
C254 C258 1.401 . S
C254 C259 1.499 . S
N255 Co238 1.989 . S
N255 C254 1.342 . S
N255 N256 1.388 . S
N256 Co239 1.993 . S
N256 N255 1.388 . S
N256 C257 1.346 . S
C257 N256 1.346 . S
C257 C258 1.396 . S
C257 C267 1.510 . S
C258 C254 1.401 . S
C258 C257 1.396 . S
C259 C254 1.499 . S
C259 H260 0.959 . S
C259 H261 0.960 . S
C259 H262 0.961 . S
H260 C259 0.959 . S
H261 C259 0.960 . S
H262 C259 0.961 . S
O263 Co238 1.967 . S
O263 C271 1.258 . S
O264 Co239 1.941 . S
O264 C271 1.266 . S
H265 C267 0.959 . S
H266 C267 0.961 . S
C267 C257 1.510 . S
C267 H265 0.959 . S
C267 H266 0.961 . S
C267 H268 0.960 . S
H268 C267 0.960 . S
H269 N249 0.862 . S
O270 Co238 1.920 . S
O270 C243 1.289 . S
C271 O263 1.258 . S
C271 O264 1.266 . S
Co272 O275 1.970 . S
Co272 N289 1.989 . S
Co272 O297 1.967 . S
Co272 O304 1.920 . S
Co273 O276 1.966 . S
Co273 N282 2.022 . S
Co273 N290 1.993 . S
Co273 O298 1.941 . S
C274 O275 1.258 . S
C274 O276 1.263 . S
O275 Co272 1.970 . S
O275 C274 1.258 . S
O276 Co273 1.966 . S
O276 C274 1.263 . S
C277 O278 1.235 . S
C277 O304 1.289 . S
O278 C277 1.235 . S
C279 C281 1.400 . S
C279 N282 1.351 . S
C279 C284 1.501 . S
C280 C281 1.387 . S
C280 N283 1.341 . S
C281 C279 1.400 . S
C281 C280 1.387 . S
N282 Co273 2.022 . S
N282 C279 1.351 . S
N282 N283 1.365 . S
N283 C280 1.341 . S
N283 N282 1.365 . S
N283 H303 0.862 . S
C284 C279 1.501 . S
C284 H285 0.961 . S
C284 H286 0.961 . S
C284 H287 0.960 . S
H285 C284 0.961 . S
H286 C284 0.961 . S
H287 C284 0.960 . S
C288 N289 1.342 . S
C288 C292 1.401 . S
C288 C293 1.499 . S
N289 Co272 1.989 . S
N289 C288 1.342 . S
N289 N290 1.388 . S
N290 Co273 1.993 . S
N290 N289 1.388 . S
N290 C291 1.346 . S
C291 N290 1.346 . S
C291 C292 1.396 . S
C291 C301 1.510 . S
C292 C288 1.401 . S
C292 C291 1.396 . S
C293 C288 1.499 . S
C293 H294 0.959 . S
C293 H295 0.960 . S
C293 H296 0.961 . S
H294 C293 0.959 . S
H295 C293 0.960 . S
H296 C293 0.961 . S
O297 Co272 1.967 . S
O297 C305 1.258 . S
O298 Co273 1.941 . S
O298 C305 1.266 . S
H299 C301 0.959 . S
H300 C301 0.961 . S
C301 C291 1.510 . S
C301 H299 0.959 . S
C301 H300 0.961 . S
C301 H302 0.960 . S
H302 C301 0.960 . S
H303 N283 0.862 . S
O304 Co272 1.920 . S
O304 C277 1.289 . S
C305 O297 1.258 . S
C305 O298 1.266 . S
Co306 O309 1.970 . S
Co306 N323 1.989 . S
Co306 O331 1.967 . S
Co306 O338 1.920 . S
Co307 O310 1.966 . S
Co307 N316 2.022 . S
Co307 N324 1.993 . S
Co307 O332 1.941 . S
C308 O309 1.258 . S
C308 O310 1.263 . S
O309 Co306 1.970 . S
O309 C308 1.258 . S
O310 Co307 1.966 . S
O310 C308 1.263 . S
C311 O312 1.235 . S
C311 O338 1.289 . S
O312 C311 1.235 . S
C313 C315 1.400 . S
C313 N316 1.351 . S
C313 C318 1.501 . S
C314 C315 1.387 . S
C314 N317 1.341 . S
C315 C313 1.400 . S
C315 C314 1.387 . S
N316 Co307 2.022 . S
N316 C313 1.351 . S
N316 N317 1.365 . S
N317 C314 1.341 . S
N317 N316 1.365 . S
N317 H337 0.862 . S
C318 C313 1.501 . S
C318 H319 0.961 . S
C318 H320 0.961 . S
C318 H321 0.960 . S
H319 C318 0.961 . S
H320 C318 0.961 . S
H321 C318 0.960 . S
C322 N323 1.342 . S
C322 C326 1.401 . S
C322 C327 1.499 . S
N323 Co306 1.989 . S
N323 C322 1.342 . S
N323 N324 1.388 . S
N324 Co307 1.993 . S
N324 N323 1.388 . S
N324 C325 1.346 . S
C325 N324 1.346 . S
C325 C326 1.396 . S
C325 C335 1.510 . S
C326 C322 1.401 . S
C326 C325 1.396 . S
C327 C322 1.499 . S
C327 H328 0.959 . S
C327 H329 0.960 . S
C327 H330 0.961 . S
H328 C327 0.959 . S
H329 C327 0.960 . S
H330 C327 0.961 . S
O331 Co306 1.967 . S
O331 C339 1.258 . S
O332 Co307 1.941 . S
O332 C339 1.266 . S
H333 C335 0.959 . S
H334 C335 0.961 . S
C335 C325 1.510 . S
C335 H333 0.959 . S
C335 H334 0.961 . S
C335 H336 0.960 . S
H336 C335 0.960 . S
H337 N317 0.862 . S
O338 Co306 1.920 . S
O338 C311 1.289 . S
C339 O331 1.258 . S
C339 O332 1.266 . S
Co340 O343 1.970 . S
Co340 N357 1.989 . S
Co340 O365 1.967 . S
Co340 O372 1.920 . S
Co341 O344 1.966 . S
Co341 N350 2.022 . S
Co341 N358 1.993 . S
Co341 O366 1.941 . S
C342 O343 1.258 . S
C342 O344 1.263 . S
O343 Co340 1.970 . S
O343 C342 1.258 . S
O344 Co341 1.966 . S
O344 C342 1.263 . S
C345 O346 1.235 . S
C345 O372 1.289 . S
O346 C345 1.235 . S
C347 C349 1.400 . S
C347 N350 1.351 . S
C347 C352 1.501 . S
C348 C349 1.387 . S
C348 N351 1.341 . S
C349 C347 1.400 . S
C349 C348 1.387 . S
N350 Co341 2.022 . S
N350 C347 1.351 . S
N350 N351 1.365 . S
N351 C348 1.341 . S
N351 N350 1.365 . S
N351 H371 0.862 . S
C352 C347 1.501 . S
C352 H353 0.961 . S
C352 H354 0.961 . S
C352 H355 0.960 . S
H353 C352 0.961 . S
H354 C352 0.961 . S
H355 C352 0.960 . S
C356 N357 1.342 . S
C356 C360 1.401 . S
C356 C361 1.499 . S
N357 Co340 1.989 . S
N357 C356 1.342 . S
N357 N358 1.388 . S
N358 Co341 1.993 . S
N358 N357 1.388 . S
N358 C359 1.346 . S
C359 N358 1.346 . S
C359 C360 1.396 . S
C359 C369 1.510 . S
C360 C356 1.401 . S
C360 C359 1.396 . S
C361 C356 1.499 . S
C361 H362 0.959 . S
C361 H363 0.960 . S
C361 H364 0.961 . S
H362 C361 0.959 . S
H363 C361 0.960 . S
H364 C361 0.961 . S
O365 Co340 1.967 . S
O365 C373 1.258 . S
O366 Co341 1.941 . S
O366 C373 1.266 . S
H367 C369 0.959 . S
H368 C369 0.961 . S
C369 C359 1.510 . S
C369 H367 0.959 . S
C369 H368 0.961 . S
C369 H370 0.960 . S
H370 C369 0.960 . S
H371 N351 0.862 . S
O372 Co340 1.920 . S
O372 C345 1.289 . S
C373 O365 1.258 . S
C373 O366 1.266 . S
Co374 O377 1.970 . S
Co374 N391 1.989 . S
Co374 O399 1.967 . S
Co374 O406 1.920 . S
Co375 O378 1.966 . S
Co375 N384 2.022 . S
Co375 N392 1.993 . S
Co375 O400 1.941 . S
C376 O377 1.258 . S
C376 O378 1.263 . S
O377 Co374 1.970 . S
O377 C376 1.258 . S
O378 Co375 1.966 . S
O378 C376 1.263 . S
C379 O380 1.235 . S
C379 O406 1.289 . S
O380 C379 1.235 . S
C381 C383 1.400 . S
C381 N384 1.351 . S
C381 C386 1.501 . S
C382 C383 1.387 . S
C382 N385 1.341 . S
C383 C381 1.400 . S
C383 C382 1.387 . S
N384 Co375 2.022 . S
N384 C381 1.351 . S
N384 N385 1.365 . S
N385 C382 1.341 . S
N385 N384 1.365 . S
N385 H405 0.862 . S
C386 C381 1.501 . S
C386 H387 0.961 . S
C386 H388 0.961 . S
C386 H389 0.960 . S
H387 C386 0.961 . S
H388 C386 0.961 . S
H389 C386 0.960 . S
C390 N391 1.342 . S
C390 C394 1.401 . S
C390 C395 1.499 . S
N391 Co374 1.989 . S
N391 C390 1.342 . S
N391 N392 1.388 . S
N392 Co375 1.993 . S
N392 N391 1.388 . S
N392 C393 1.346 . S
C393 N392 1.346 . S
C393 C394 1.396 . S
C393 C403 1.510 . S
C394 C390 1.401 . S
C394 C393 1.396 . S
C395 C390 1.499 . S
C395 H396 0.959 . S
C395 H397 0.960 . S
C395 H398 0.961 . S
H396 C395 0.959 . S
H397 C395 0.960 . S
H398 C395 0.961 . S
O399 Co374 1.967 . S
O399 C407 1.258 . S
O400 Co375 1.941 . S
O400 C407 1.266 . S
H401 C403 0.959 . S
H402 C403 0.961 . S
C403 C393 1.510 . S
C403 H401 0.959 . S
C403 H402 0.961 . S
C403 H404 0.960 . S
H404 C403 0.960 . S
H405 N385 0.862 . S
O406 Co374 1.920 . S
O406 C379 1.289 . S
C407 O399 1.258 . S
C407 O400 1.266 . S
H408 C414 0.930 . S
H409 C418 0.930 . S
H410 C423 0.929 . S
H411 C421 0.929 . S
H412 C416 0.929 . S
H413 C422 0.929 . S
C414 H408 0.930 . S
C414 C415 1.367 . S
C414 C422 1.378 . S
C415 C414 1.367 . S
C415 C423 1.433 . S
C416 H412 0.929 . S
C416 C418 1.378 . S
C416 C420 1.350 . S
C417 C420 1.463 . S
C417 C422 1.350 . S
C417 N425 1.427 . S
C418 H409 0.930 . S
C418 C416 1.378 . S
C418 C419 1.367 . S
C419 C418 1.367 . S
C419 C421 1.433 . S
C420 C416 1.350 . S
C420 C417 1.463 . S
C420 N424 1.427 . S
C421 H411 0.929 . S
C421 C419 1.433 . S
C421 N424 1.384 . S
C422 H413 0.929 . S
C422 C414 1.378 . S
C422 C417 1.350 . S
C423 H410 0.929 . S
C423 C415 1.433 . S
C423 N425 1.384 . S
N424 C420 1.427 . S
N424 C421 1.384 . S
N425 C417 1.427 . S
N425 C423 1.384 . S
H426 C432 0.930 . S
H427 C436 0.930 . S
H428 C441 0.929 . S
H429 C439 0.929 . S
H430 C434 0.929 . S
H431 C440 0.929 . S
C432 H426 0.930 . S
C432 C433 1.367 . S
C432 C440 1.378 . S
C433 C432 1.367 . S
C433 C441 1.433 . S
C434 H430 0.929 . S
C434 C436 1.378 . S
C434 C438 1.350 . S
C435 C438 1.463 . S
C435 C440 1.350 . S
C435 N443 1.427 . S
C436 H427 0.930 . S
C436 C434 1.378 . S
C436 C437 1.367 . S
C437 C436 1.367 . S
C437 C439 1.433 . S
C438 C434 1.350 . S
C438 C435 1.463 . S
C438 N442 1.427 . S
C439 H429 0.929 . S
C439 C437 1.433 . S
C439 N442 1.384 . S
C440 H431 0.929 . S
C440 C432 1.378 . S
C440 C435 1.350 . S
C441 H428 0.929 . S
C441 C433 1.433 . S
C441 N443 1.384 . S
N442 C438 1.427 . S
N442 C439 1.384 . S
N443 C435 1.427 . S
N443 C441 1.384 . S
H444 C450 0.930 . S
H445 C454 0.930 . S
H446 C459 0.929 . S
H447 C457 0.929 . S
H448 C452 0.929 . S
H449 C458 0.929 . S
C450 H444 0.930 . S
C450 C451 1.367 . S
C450 C458 1.378 . S
C451 C450 1.367 . S
C451 C459 1.433 . S
C452 H448 0.929 . S
C452 C454 1.378 . S
C452 C456 1.350 . S
C453 C456 1.463 . S
C453 C458 1.350 . S
C453 N461 1.427 . S
C454 H445 0.930 . S
C454 C452 1.378 . S
C454 C455 1.367 . S
C455 C454 1.367 . S
C455 C457 1.433 . S
C456 C452 1.350 . S
C456 C453 1.463 . S
C456 N460 1.427 . S
C457 H447 0.929 . S
C457 C455 1.433 . S
C457 N460 1.384 . S
C458 H449 0.929 . S
C458 C450 1.378 . S
C458 C453 1.350 . S
C459 H446 0.929 . S
C459 C451 1.433 . S
C459 N461 1.384 . S
N460 C456 1.427 . S
N460 C457 1.384 . S
N461 C453 1.427 . S
N461 C459 1.384 . S
H462 C468 0.930 . S
H463 C472 0.930 . S
H464 C477 0.929 . S
H465 C475 0.929 . S
H466 C470 0.929 . S
H467 C476 0.929 . S
C468 H462 0.930 . S
C468 C469 1.367 . S
C468 C476 1.378 . S
C469 C468 1.367 . S
C469 C477 1.433 . S
C470 H466 0.929 . S
C470 C472 1.378 . S
C470 C474 1.350 . S
C471 C474 1.463 . S
C471 C476 1.350 . S
C471 N479 1.427 . S
C472 H463 0.930 . S
C472 C470 1.378 . S
C472 C473 1.367 . S
C473 C472 1.367 . S
C473 C475 1.433 . S
C474 C470 1.350 . S
C474 C471 1.463 . S
C474 N478 1.427 . S
C475 H465 0.929 . S
C475 C473 1.433 . S
C475 N478 1.384 . S
C476 H467 0.929 . S
C476 C468 1.378 . S
C476 C471 1.350 . S
C477 H464 0.929 . S
C477 C469 1.433 . S
C477 N479 1.384 . S
N478 C474 1.427 . S
N478 C475 1.384 . S
N479 C471 1.427 . S
N479 C477 1.384 . S
H480 C486 0.930 . S
H481 C490 0.930 . S
H482 C495 0.929 . S
H483 C493 0.929 . S
H484 C488 0.929 . S
H485 C494 0.929 . S
C486 H480 0.930 . S
C486 C487 1.367 . S
C486 C494 1.378 . S
C487 C486 1.367 . S
C487 C495 1.433 . S
C488 H484 0.929 . S
C488 C490 1.378 . S
C488 C492 1.350 . S
C489 C492 1.463 . S
C489 C494 1.350 . S
C489 N497 1.427 . S
C490 H481 0.930 . S
C490 C488 1.378 . S
C490 C491 1.367 . S
C491 C490 1.367 . S
C491 C493 1.433 . S
C492 C488 1.350 . S
C492 C489 1.463 . S
C492 N496 1.427 . S
C493 H483 0.929 . S
C493 C491 1.433 . S
C493 N496 1.384 . S
C494 H485 0.929 . S
C494 C486 1.378 . S
C494 C489 1.350 . S
C495 H482 0.929 . S
C495 C487 1.433 . S
C495 N497 1.384 . S
N496 C492 1.427 . S
N496 C493 1.384 . S
N497 C489 1.427 . S
N497 C495 1.384 . S
H498 C504 0.930 . S
H499 C508 0.930 . S
H500 C513 0.929 . S
H501 C511 0.929 . S
H502 C506 0.929 . S
H503 C512 0.929 . S
C504 H498 0.930 . S
C504 C505 1.367 . S
C504 C512 1.378 . S
C505 C504 1.367 . S
C505 C513 1.433 . S
C506 H502 0.929 . S
C506 C508 1.378 . S
C506 C510 1.350 . S
C507 C510 1.463 . S
C507 C512 1.350 . S
C507 N515 1.427 . S
C508 H499 0.930 . S
C508 C506 1.378 . S
C508 C509 1.367 . S
C509 C508 1.367 . S
C509 C511 1.433 . S
C510 C506 1.350 . S
C510 C507 1.463 . S
C510 N514 1.427 . S
C511 H501 0.929 . S
C511 C509 1.433 . S
C511 N514 1.384 . S
C512 H503 0.929 . S
C512 C504 1.378 . S
C512 C507 1.350 . S
C513 H500 0.929 . S
C513 C505 1.433 . S
C513 N515 1.384 . S
N514 C510 1.427 . S
N514 C511 1.384 . S
N515 C507 1.427 . S
N515 C513 1.384 . S
H516 C522 0.930 . S
H517 C526 0.930 . S
H518 C531 0.929 . S
H519 C529 0.929 . S
H520 C524 0.929 . S
H521 C530 0.929 . S
C522 H516 0.930 . S
C522 C523 1.367 . S
C522 C530 1.378 . S
C523 C522 1.367 . S
C523 C531 1.433 . S
C524 H520 0.929 . S
C524 C526 1.378 . S
C524 C528 1.350 . S
C525 C528 1.463 . S
C525 C530 1.350 . S
C525 N533 1.427 . S
C526 H517 0.930 . S
C526 C524 1.378 . S
C526 C527 1.367 . S
C527 C526 1.367 . S
C527 C529 1.433 . S
C528 C524 1.350 . S
C528 C525 1.463 . S
C528 N532 1.427 . S
C529 H519 0.929 . S
C529 C527 1.433 . S
C529 N532 1.384 . S
C530 H521 0.929 . S
C530 C522 1.378 . S
C530 C525 1.350 . S
C531 H518 0.929 . S
C531 C523 1.433 . S
C531 N533 1.384 . S
N532 C528 1.427 . S
N532 C529 1.384 . S
N533 C525 1.427 . S
N533 C531 1.384 . S
H534 C540 0.930 . S
H535 C544 0.930 . S
H536 C549 0.929 . S
H537 C547 0.929 . S
H538 C542 0.929 . S
H539 C548 0.929 . S
C540 H534 0.930 . S
C540 C541 1.367 . S
C540 C548 1.378 . S
C541 C540 1.367 . S
C541 C549 1.433 . S
C542 H538 0.929 . S
C542 C544 1.378 . S
C542 C546 1.350 . S
C543 C546 1.463 . S
C543 C548 1.350 . S
C543 N551 1.427 . S
C544 H535 0.930 . S
C544 C542 1.378 . S
C544 C545 1.367 . S
C545 C544 1.367 . S
C545 C547 1.433 . S
C546 C542 1.350 . S
C546 C543 1.463 . S
C546 N550 1.427 . S
C547 H537 0.929 . S
C547 C545 1.433 . S
C547 N550 1.384 . S
C548 H539 0.929 . S
C548 C540 1.378 . S
C548 C543 1.350 . S
C549 H536 0.929 . S
C549 C541 1.433 . S
C549 N551 1.384 . S
N550 C546 1.427 . S
N550 C547 1.384 . S
N551 C543 1.427 . S
N551 C549 1.384 . S
H552 C558 0.930 . S
H553 C562 0.930 . S
H554 C567 0.929 . S
H555 C565 0.929 . S
H556 C560 0.929 . S
H557 C566 0.929 . S
C558 H552 0.930 . S
C558 C559 1.367 . S
C558 C566 1.378 . S
C559 C558 1.367 . S
C559 C567 1.433 . S
C560 H556 0.929 . S
C560 C562 1.378 . S
C560 C564 1.350 . S
C561 C564 1.463 . S
C561 C566 1.350 . S
C561 N569 1.427 . S
C562 H553 0.930 . S
C562 C560 1.378 . S
C562 C563 1.367 . S
C563 C562 1.367 . S
C563 C565 1.433 . S
C564 C560 1.350 . S
C564 C561 1.463 . S
C564 N568 1.427 . S
C565 H555 0.929 . S
C565 C563 1.433 . S
C565 N568 1.384 . S
C566 H557 0.929 . S
C566 C558 1.378 . S
C566 C561 1.350 . S
C567 H554 0.929 . S
C567 C559 1.433 . S
C567 N569 1.384 . S
N568 C564 1.427 . S
N568 C565 1.384 . S
N569 C561 1.427 . S
N569 C567 1.384 . S
H570 C576 0.930 . S
H571 C580 0.930 . S
H572 C585 0.929 . S
H573 C583 0.929 . S
H574 C578 0.929 . S
H575 C584 0.929 . S
C576 H570 0.930 . S
C576 C577 1.367 . S
C576 C584 1.378 . S
C577 C576 1.367 . S
C577 C585 1.433 . S
C578 H574 0.929 . S
C578 C580 1.378 . S
C578 C582 1.350 . S
C579 C582 1.463 . S
C579 C584 1.350 . S
C579 N587 1.427 . S
C580 H571 0.930 . S
C580 C578 1.378 . S
C580 C581 1.367 . S
C581 C580 1.367 . S
C581 C583 1.433 . S
C582 C578 1.350 . S
C582 C579 1.463 . S
C582 N586 1.427 . S
C583 H573 0.929 . S
C583 C581 1.433 . S
C583 N586 1.384 . S
C584 H575 0.929 . S
C584 C576 1.378 . S
C584 C579 1.350 . S
C585 H572 0.929 . S
C585 C577 1.433 . S
C585 N587 1.384 . S
N586 C582 1.427 . S
N586 C583 1.384 . S
N587 C579 1.427 . S
N587 C585 1.384 . S
H588 C594 0.930 . S
H589 C598 0.930 . S
H590 C603 0.929 . S
H591 C601 0.929 . S
H592 C596 0.929 . S
H593 C602 0.929 . S
C594 H588 0.930 . S
C594 C595 1.367 . S
C594 C602 1.378 . S
C595 C594 1.367 . S
C595 C603 1.433 . S
C596 H592 0.929 . S
C596 C598 1.378 . S
C596 C600 1.350 . S
C597 C600 1.463 . S
C597 C602 1.350 . S
C597 N605 1.427 . S
C598 H589 0.930 . S
C598 C596 1.378 . S
C598 C599 1.367 . S
C599 C598 1.367 . S
C599 C601 1.433 . S
C600 C596 1.350 . S
C600 C597 1.463 . S
C600 N604 1.427 . S
C601 H591 0.929 . S
C601 C599 1.433 . S
C601 N604 1.384 . S
C602 H593 0.929 . S
C602 C594 1.378 . S
C602 C597 1.350 . S
C603 H590 0.929 . S
C603 C595 1.433 . S
C603 N605 1.384 . S
N604 C600 1.427 . S
N604 C601 1.384 . S
N605 C597 1.427 . S
N605 C603 1.384 . S
H606 C612 0.930 . S
H607 C616 0.930 . S
H608 C621 0.929 . S
H609 C619 0.929 . S
H610 C614 0.929 . S
H611 C620 0.929 . S
C612 H606 0.930 . S
C612 C613 1.367 . S
C612 C620 1.378 . S
C613 C612 1.367 . S
C613 C621 1.433 . S
C614 H610 0.929 . S
C614 C616 1.378 . S
C614 C618 1.350 . S
C615 C618 1.463 . S
C615 C620 1.350 . S
C615 N623 1.427 . S
C616 H607 0.930 . S
C616 C614 1.378 . S
C616 C617 1.367 . S
C617 C616 1.367 . S
C617 C619 1.433 . S
C618 C614 1.350 . S
C618 C615 1.463 . S
C618 N622 1.427 . S
C619 H609 0.929 . S
C619 C617 1.433 . S
C619 N622 1.384 . S
C620 H611 0.929 . S
C620 C612 1.378 . S
C620 C615 1.350 . S
C621 H608 0.929 . S
C621 C613 1.433 . S
C621 N623 1.384 . S
N622 C618 1.427 . S
N622 C619 1.384 . S
N623 C615 1.427 . S
N623 C621 1.384 . S
H624 C630 0.930 . S
H625 C634 0.930 . S
H626 C639 0.929 . S
H627 C637 0.929 1_545 S
H628 C632 0.929 . S
H629 C638 0.929 1_556 S
C630 H624 0.930 . S
C630 C631 1.367 . S
C630 C638 1.378 . S
C631 C630 1.367 . S
C631 C639 1.433 . S
C632 H628 0.929 . S
C632 C634 1.378 1_554 S
C632 C636 1.350 1_564 S
C633 C636 1.463 1_554 S
C633 C638 1.350 . S
C633 N641 1.427 . S
C634 H625 0.930 . S
C634 C632 1.378 1_556 S
C634 C635 1.367 . S
C635 C634 1.367 . S
C635 C637 1.433 . S
C636 C632 1.350 1_546 S
C636 C633 1.463 1_556 S
C636 N640 1.427 . S
C637 H627 0.929 1_565 S
C637 C635 1.433 . S
C637 N640 1.384 1_565 S
C638 H629 0.929 1_554 S
C638 C630 1.378 . S
C638 C633 1.350 . S
C639 H626 0.929 . S
C639 C631 1.433 . S
C639 N641 1.384 . S
N640 C636 1.427 . S
N640 C637 1.384 1_545 S
N641 C633 1.427 . S
N641 C639 1.384 . S
H642 C648 0.930 . S
H643 C652 0.930 . S
H644 C657 0.929 . S
H645 C655 0.929 . S
H646 C650 0.929 1_554 S
H647 C656 0.929 . S
C648 H642 0.930 . S
C648 C649 1.367 . S
C648 C656 1.378 . S
C649 C648 1.367 . S
C649 C657 1.433 . S
C650 H646 0.929 1_556 S
C650 C652 1.378 . S
C650 C654 1.350 1_455 S
C651 C654 1.463 1_554 S
C651 C656 1.350 . S
C651 N659 1.427 . S
C652 H643 0.930 . S
C652 C650 1.378 . S
C652 C653 1.367 . S
C653 C652 1.367 . S
C653 C655 1.433 . S
C654 C650 1.350 1_655 S
C654 C651 1.463 1_556 S
C654 N658 1.427 . S
C655 H645 0.929 . S
C655 C653 1.433 . S
C655 N658 1.384 1_455 S
C656 H647 0.929 . S
C656 C648 1.378 . S
C656 C651 1.350 . S
C657 H644 0.929 . S
C657 C649 1.433 . S
C657 N659 1.384 . S
N658 C654 1.427 . S
N658 C655 1.384 1_655 S
N659 C651 1.427 . S
N659 C657 1.384 . S
H660 C666 0.930 . S
H661 C670 0.930 . S
H662 C675 0.929 . S
H663 C673 0.929 . S
H664 C668 0.929 1_554 S
H665 C674 0.929 . S
C666 H660 0.930 . S
C666 C667 1.367 . S
C666 C674 1.378 . S
C667 C666 1.367 . S
C667 C675 1.433 . S
C668 H664 0.929 1_556 S
C668 C670 1.378 . S
C668 C672 1.350 . S
C669 C672 1.463 1_554 S
C669 C674 1.350 . S
C669 N677 1.427 . S
C670 H661 0.930 . S
C670 C668 1.378 . S
C670 C671 1.367 . S
C671 C670 1.367 . S
C671 C673 1.433 . S
C672 C668 1.350 . S
C672 C669 1.463 1_556 S
C672 N676 1.427 . S
C673 H663 0.929 . S
C673 C671 1.433 . S
C673 N676 1.384 . S
C674 H665 0.929 . S
C674 C666 1.378 . S
C674 C669 1.350 . S
C675 H662 0.929 . S
C675 C667 1.433 . S
C675 N677 1.384 . S
N676 C672 1.427 . S
N676 C673 1.384 . S
N677 C669 1.427 . S
N677 C675 1.384 . S
H678 C684 0.931 . S
H679 C688 0.930 . S
H680 C693 0.929 . S
H681 C691 0.929 . S
H682 C686 0.929 . S
H683 C692 0.929 . S
C684 H678 0.931 . S
C684 C685 1.367 . S
C684 C692 1.378 1_655 S
C685 C684 1.367 . S
C685 C693 1.433 . S
C686 H682 0.929 . S
C686 C688 1.378 . S
C686 C690 1.350 . S
C687 C690 1.463 . S
C687 C692 1.350 . S
C687 N695 1.427 1_455 S
C688 H679 0.930 . S
C688 C686 1.378 . S
C688 C689 1.367 . S
C689 C688 1.367 . S
C689 C691 1.433 . S
C690 C686 1.350 . S
C690 C687 1.463 . S
C690 N694 1.427 . S
C691 H681 0.929 . S
C691 C689 1.433 . S
C691 N694 1.384 . S
C692 H683 0.929 . S
C692 C684 1.378 1_455 S
C692 C687 1.350 . S
C693 H680 0.929 . S
C693 C685 1.433 . S
C693 N695 1.384 . S
N694 C690 1.427 . S
N694 C691 1.384 . S
N695 C687 1.427 1_655 S
N695 C693 1.384 . S
H696 C702 0.930 . S
H697 C706 0.930 . S
H698 C711 0.929 . S
H699 C709 0.929 . S
H700 C704 0.929 . S
H701 C710 0.929 . S
C702 H696 0.930 . S
C702 C703 1.367 . S
C702 C710 1.378 . S
C703 C702 1.367 . S
C703 C711 1.433 . S
C704 H700 0.929 . S
C704 C706 1.378 . S
C704 C708 1.350 . S
C705 C708 1.463 . S
C705 C710 1.350 . S
C705 N713 1.427 . S
C706 H697 0.930 . S
C706 C704 1.378 . S
C706 C707 1.367 . S
C707 C706 1.367 . S
C707 C709 1.433 . S
C708 C704 1.350 . S
C708 C705 1.463 . S
C708 N712 1.427 . S
C709 H699 0.929 . S
C709 C707 1.433 . S
C709 N712 1.384 . S
C710 H701 0.929 . S
C710 C702 1.378 . S
C710 C705 1.350 . S
C711 H698 0.929 . S
C711 C703 1.433 . S
C711 N713 1.384 . S
N712 C708 1.427 . S
N712 C709 1.384 . S
N713 C705 1.427 . S
N713 C711 1.384 . S
H714 C720 0.931 1_565 S
H715 C724 0.930 . S
H716 C729 0.929 . S
H717 C727 0.929 . S
H718 C722 0.929 . S
H719 C728 0.929 . S
C720 H714 0.931 1_545 S
C720 C721 1.367 . S
C720 C728 1.378 1_545 S
C721 C720 1.367 . S
C721 C729 1.433 . S
C722 H718 0.929 . S
C722 C724 1.378 . S
C722 C726 1.350 . S
C723 C726 1.463 . S
C723 C728 1.350 . S
C723 N731 1.427 1_565 S
C724 H715 0.930 . S
C724 C722 1.378 . S
C724 C725 1.367 . S
C725 C724 1.367 . S
C725 C727 1.433 . S
C726 C722 1.350 . S
C726 C723 1.463 . S
C726 N730 1.427 . S
C727 H717 0.929 . S
C727 C725 1.433 . S
C727 N730 1.384 . S
C728 H719 0.929 . S
C728 C720 1.378 1_565 S
C728 C723 1.350 . S
C729 H716 0.929 . S
C729 C721 1.433 . S
C729 N731 1.384 . S
N730 C726 1.427 . S
N730 C727 1.384 . S
N731 C723 1.427 1_545 S
N731 C729 1.384 . S
H732 C738 0.930 . S
H733 C742 0.930 . S
H734 C747 0.926 . S
H735 C745 0.929 . S
H736 C740 0.929 . S
H737 C746 0.929 1_556 S
C738 H732 0.930 . S
C738 C739 1.367 . S
C738 C746 1.378 . S
C739 C738 1.367 . S
C739 C747 1.433 . S
C740 H736 0.929 . S
C740 C742 1.378 . S
C740 C744 1.350 . S
C741 C744 1.463 1_554 S
C741 C746 1.350 1_565 S
C741 N749 1.427 . S
C742 H733 0.930 . S
C742 C740 1.378 . S
C742 C743 1.367 . S
C743 C742 1.367 . S
C743 C745 1.433 . S
C744 C740 1.350 . S
C744 C741 1.463 1_556 S
C744 N748 1.427 . S
C745 H735 0.929 . S
C745 C743 1.433 . S
C745 N748 1.384 . S
C746 H737 0.929 1_554 S
C746 C738 1.378 . S
C746 C741 1.350 1_545 S
C747 H734 0.926 . S
C747 C739 1.433 . S
C747 N749 1.384 1_545 S
N748 C744 1.427 . S
N748 C745 1.384 . S
N749 C741 1.427 . S
N749 C747 1.384 1_565 S
H750 C756 0.930 . S
H751 C760 0.930 . S
H752 C765 0.929 . S
H753 C763 0.929 . S
H754 C758 0.929 . S
H755 C764 0.929 1_556 S
C756 H750 0.930 . S
C756 C757 1.367 . S
C756 C764 1.378 . S
C757 C756 1.367 . S
C757 C765 1.433 . S
C758 H754 0.929 . S
C758 C760 1.378 . S
C758 C762 1.350 . S
C759 C762 1.463 1_554 S
C759 C764 1.350 1_455 S
C759 N767 1.427 . S
C760 H751 0.930 . S
C760 C758 1.378 . S
C760 C761 1.367 . S
C761 C760 1.367 . S
C761 C763 1.433 . S
C762 C758 1.350 . S
C762 C759 1.463 1_556 S
C762 N766 1.427 . S
C763 H753 0.929 . S
C763 C761 1.433 . S
C763 N766 1.384 . S
C764 H755 0.929 1_554 S
C764 C756 1.378 . S
C764 C759 1.350 1_655 S
C765 H752 0.929 . S
C765 C757 1.433 . S
C765 N767 1.384 1_655 S
N766 C762 1.427 . S
N766 C763 1.384 . S
N767 C759 1.427 . S
N767 C765 1.384 1_455 S
H768 C774 0.930 . S
H769 C778 0.930 . S
H770 C783 0.929 . S
H771 C781 0.929 . S
H772 C776 0.929 . S
H773 C782 0.929 . S
C774 H768 0.930 . S
C774 C775 1.367 . S
C774 C782 1.378 . S
C775 C774 1.367 . S
C775 C783 1.433 . S
C776 H772 0.929 . S
C776 C778 1.378 . S
C776 C780 1.350 . S
C777 C780 1.463 1_556 S
C777 C782 1.350 . S
C777 N785 1.427 . S
C778 H769 0.930 . S
C778 C776 1.378 . S
C778 C779 1.367 . S
C779 C778 1.367 . S
C779 C781 1.433 . S
C780 C776 1.350 . S
C780 C777 1.463 1_554 S
C780 N784 1.427 1_554 S
C781 H771 0.929 . S
C781 C779 1.433 . S
C781 N784 1.384 1_554 S
C782 H773 0.929 . S
C782 C774 1.378 . S
C782 C777 1.350 . S
C783 H770 0.929 . S
C783 C775 1.433 . S
C783 N785 1.384 . S
N784 C780 1.427 1_556 S
N784 C781 1.384 1_556 S
N785 C777 1.427 . S
N785 C783 1.384 . S
H786 C792 0.930 . S
H787 C796 0.930 . S
H788 C801 0.929 . S
H789 C799 0.929 . S
H790 C794 0.929 . S
H791 C800 0.929 1_655 S
C792 H786 0.930 . S
C792 C793 1.367 . S
C792 C800 1.378 . S
C793 C792 1.367 . S
C793 C801 1.433 . S
C794 H790 0.929 . S
C794 C796 1.378 . S
C794 C798 1.350 . S
C795 C798 1.463 . S
C795 C800 1.350 1_655 S
C795 N803 1.427 . S
C796 H787 0.930 . S
C796 C794 1.378 . S
C796 C797 1.367 . S
C797 C796 1.367 . S
C797 C799 1.433 . S
C798 C794 1.350 . S
C798 C795 1.463 . S
C798 N802 1.427 . S
C799 H789 0.929 . S
C799 C797 1.433 . S
C799 N802 1.384 . S
C800 H791 0.929 1_455 S
C800 C792 1.378 . S
C800 C795 1.350 1_455 S
C801 H788 0.929 . S
C801 C793 1.433 . S
C801 N803 1.384 1_455 S
N802 C798 1.427 . S
N802 C799 1.384 . S
N803 C795 1.427 . S
N803 C801 1.384 1_655 S
H804 C810 0.930 . S
H805 C814 0.930 . S
H806 C819 0.929 . S
H807 C817 0.929 . S
H808 C812 0.929 . S
H809 C818 0.929 . S
C810 H804 0.930 . S
C810 C811 1.367 . S
C810 C818 1.378 . S
C811 C810 1.367 . S
C811 C819 1.433 . S
C812 H808 0.929 . S
C812 C814 1.378 . S
C812 C816 1.350 . S
C813 C816 1.463 . S
C813 C818 1.350 . S
C813 N821 1.427 . S
C814 H805 0.930 . S
C814 C812 1.378 . S
C814 C815 1.367 . S
C815 C814 1.367 . S
C815 C817 1.433 . S
C816 C812 1.350 . S
C816 C813 1.463 . S
C816 N820 1.427 . S
C817 H807 0.929 . S
C817 C815 1.433 . S
C817 N820 1.384 . S
C818 H809 0.929 . S
C818 C810 1.378 . S
C818 C813 1.350 . S
C819 H806 0.929 . S
C819 C811 1.433 . S
C819 N821 1.384 . S
N820 C816 1.427 . S
N820 C817 1.384 . S
N821 C813 1.427 . S
N821 C819 1.384 . S
H822 C828 0.930 . S
H823 C832 0.930 1_545 S
H824 C837 0.929 . S
H825 C835 0.929 . S
H826 C830 0.929 . S
H827 C836 0.901 1_565 S
C828 H822 0.930 . S
C828 C829 1.367 . S
C828 C836 1.378 . S
C829 C828 1.367 . S
C829 C837 1.433 . S
C830 H826 0.929 . S
C830 C832 1.378 1_545 S
C830 C834 1.350 . S
C831 C834 1.463 . S
C831 C836 1.350 . S
C831 N839 1.427 . S
C832 H823 0.930 1_565 S
C832 C830 1.378 1_565 S
C832 C833 1.367 . S
C833 C832 1.367 . S
C833 C835 1.433 . S
C834 C830 1.350 . S
C834 C831 1.463 . S
C834 N838 1.427 1_545 S
C835 H825 0.929 . S
C835 C833 1.433 . S
C835 N838 1.384 . S
C836 H827 0.901 1_545 S
C836 C828 1.378 . S
C836 C831 1.350 . S
C837 H824 0.929 . S
C837 C829 1.433 . S
C837 N839 1.384 . S
N838 C834 1.427 1_565 S
N838 C835 1.384 . S
N839 C831 1.427 . S
N839 C837 1.384 . S
H840 C846 0.930 . S
H841 C850 0.930 . S
H842 C855 0.929 . S
H843 C853 0.929 . S
H844 C848 0.929 . S
H845 C854 0.929 . S
C846 H840 0.930 . S
C846 C847 1.367 . S
C846 C854 1.378 . S
C847 C846 1.367 . S
C847 C855 1.433 . S
C848 H844 0.929 . S
C848 C850 1.378 . S
C848 C852 1.350 . S
C849 C852 1.463 . S
C849 C854 1.350 . S
C849 N857 1.427 . S
C850 H841 0.930 . S
C850 C848 1.378 . S
C850 C851 1.367 . S
C851 C850 1.367 . S
C851 C853 1.433 . S
C852 C848 1.350 . S
C852 C849 1.463 . S
C852 N856 1.427 . S
C853 H843 0.929 . S
C853 C851 1.433 . S
C853 N856 1.384 . S
C854 H845 0.929 . S
C854 C846 1.378 . S
C854 C849 1.350 . S
C855 H842 0.929 . S
C855 C847 1.433 . S
C855 N857 1.384 . S
N856 C852 1.427 . S
N856 C853 1.384 . S
N857 C849 1.427 . S
N857 C855 1.384 . S
H858 C864 0.930 . S
H859 C868 0.930 . S
H860 C873 0.929 . S
H861 C871 0.929 . S
H862 C866 0.929 . S
H863 C872 0.929 . S
C864 H858 0.930 . S
C864 C865 1.367 . S
C864 C872 1.378 . S
C865 C864 1.367 . S
C865 C873 1.433 . S
C866 H862 0.929 . S
C866 C868 1.378 . S
C866 C870 1.350 . S
C867 C870 1.463 1_545 S
C867 C872 1.350 . S
C867 N875 1.427 . S
C868 H859 0.930 . S
C868 C866 1.378 . S
C868 C869 1.367 . S
C869 C868 1.367 . S
C869 C871 1.433 . S
C870 C866 1.350 . S
C870 C867 1.463 1_565 S
C870 N874 1.427 . S
C871 H861 0.929 . S
C871 C869 1.433 . S
C871 N874 1.384 . S
C872 H863 0.929 . S
C872 C864 1.378 . S
C872 C867 1.350 . S
C873 H860 0.929 . S
C873 C865 1.433 . S
C873 N875 1.384 . S
N874 C870 1.427 . S
N874 C871 1.384 . S
N875 C867 1.427 . S
N875 C873 1.384 . S
H876 C882 0.930 . S
H877 C886 0.930 . S
H878 C891 0.929 . S
H879 C889 0.929 . S
H880 C884 0.929 . S
H881 C890 0.929 . S
C882 H876 0.930 . S
C882 C883 1.367 . S
C882 C890 1.378 . S
C883 C882 1.367 . S
C883 C891 1.433 . S
C884 H880 0.929 . S
C884 C886 1.378 . S
C884 C888 1.350 . S
C885 C888 1.463 1_655 S
C885 C890 1.350 . S
C885 N893 1.427 . S
C886 H877 0.930 . S
C886 C884 1.378 . S
C886 C887 1.367 . S
C887 C886 1.367 . S
C887 C889 1.433 . S
C888 C884 1.350 . S
C888 C885 1.463 1_455 S
C888 N892 1.427 . S
C889 H879 0.929 . S
C889 C887 1.433 . S
C889 N892 1.384 . S
C890 H881 0.929 . S
C890 C882 1.378 . S
C890 C885 1.350 . S
C891 H878 0.929 . S
C891 C883 1.433 . S
C891 N893 1.384 . S
N892 C888 1.427 . S
N892 C889 1.384 . S
N893 C885 1.427 . S
N893 C891 1.384 . S
H894 C900 0.930 . S
H895 C904 0.930 . S
H896 C909 0.929 . S
H897 C907 0.929 . S
H898 C902 0.929 . S
H899 C908 0.929 . S
C900 H894 0.930 . S
C900 C901 1.367 . S
C900 C908 1.378 . S
C901 C900 1.367 . S
C901 C909 1.433 . S
C902 H898 0.929 . S
C902 C904 1.378 . S
C902 C906 1.350 . S
C903 C906 1.463 . S
C903 C908 1.350 . S
C903 N911 1.427 . S
C904 H895 0.930 . S
C904 C902 1.378 . S
C904 C905 1.367 . S
C905 C904 1.367 . S
C905 C907 1.433 . S
C906 C902 1.350 . S
C906 C903 1.463 . S
C906 N910 1.427 . S
C907 H897 0.929 . S
C907 C905 1.433 . S
C907 N910 1.384 . S
C908 H899 0.929 . S
C908 C900 1.378 . S
C908 C903 1.350 . S
C909 H896 0.929 . S
C909 C901 1.433 . S
C909 N911 1.384 . S
N910 C906 1.427 . S
N910 C907 1.384 . S
N911 C903 1.427 . S
N911 C909 1.384 . S
H912 C918 0.930 . S
H913 C922 0.930 . S
H914 C927 0.929 . S
H915 C925 0.929 . S
H916 C920 0.929 . S
H917 C926 0.929 . S
C918 H912 0.930 . S
C918 C919 1.367 . S
C918 C926 1.378 . S
C919 C918 1.367 . S
C919 C927 1.433 . S
C920 H916 0.929 . S
C920 C922 1.378 . S
C920 C924 1.350 . S
C921 C924 1.463 1_565 S
C921 C926 1.350 . S
C921 N929 1.427 . S
C922 H913 0.930 . S
C922 C920 1.378 . S
C922 C923 1.367 . S
C923 C922 1.367 . S
C923 C925 1.433 . S
C924 C920 1.350 . S
C924 C921 1.463 1_545 S
C924 N928 1.427 . S
C925 H915 0.929 . S
C925 C923 1.433 . S
C925 N928 1.384 . S
C926 H917 0.929 . S
C926 C918 1.378 . S
C926 C921 1.350 . S
C927 H914 0.929 . S
C927 C919 1.433 . S
C927 N929 1.384 . S
N928 C924 1.427 . S
N928 C925 1.384 . S
N929 C921 1.427 . S
N929 C927 1.384 . S
H930 C936 0.930 . S
H931 C940 0.930 . S
H932 C945 0.929 . S
H933 C943 0.929 . S
H934 C938 0.929 . S
H935 C944 0.929 . S
C936 H930 0.930 . S
C936 C937 1.367 . S
C936 C944 1.378 . S
C937 C936 1.367 . S
C937 C945 1.433 . S
C938 H934 0.929 . S
C938 C940 1.378 . S
C938 C942 1.350 . S
C939 C942 1.463 1_455 S
C939 C944 1.350 . S
C939 N947 1.427 . S
C940 H931 0.930 . S
C940 C938 1.378 . S
C940 C941 1.367 . S
C941 C940 1.367 . S
C941 C943 1.433 . S
C942 C938 1.350 . S
C942 C939 1.463 1_655 S
C942 N946 1.427 . S
C943 H933 0.929 . S
C943 C941 1.433 . S
C943 N946 1.384 . S
C944 H935 0.929 . S
C944 C936 1.378 . S
C944 C939 1.350 . S
C945 H932 0.929 . S
C945 C937 1.433 . S
C945 N947 1.384 . S
N946 C942 1.427 . S
N946 C943 1.384 . S
N947 C939 1.427 . S
N947 C945 1.384 . S
C415 C36 1.627 . S
C419 C9 1.634 . S
C433 C43 1.635 . S
C437 C70 1.630 . S
C451 C77 1.635 . S
C455 C2 1.631 . S
C469 C111 1.635 . S
C473 C172 1.631 . S
C487 C145 1.634 . S
C491 C104 1.630 . S
C505 C138 1.629 . S
C509 C179 1.633 . S
C523 C240 1.626 . S
C527 C213 1.631 . S
C541 C274 1.630 . S
C545 C247 1.635 . S
C559 C206 1.628 . S
C563 C281 1.635 . S
C577 C315 1.632 . S
C581 C376 1.625 . S
C595 C308 1.627 . S
C599 C349 1.631 . S
C613 C383 1.632 . S
C617 C342 1.625 . S
C631 C20 1.376 . S
C635 C243 1.362 . S
C649 C54 1.380 . S
C653 C277 1.364 . S
C667 C88 1.377 . S
C671 C209 1.369 . S
C685 C379 1.376 . S
C689 C122 1.385 . S
C703 C156 1.387 . S
C707 C311 1.376 . S
C721 C345 1.376 . S
C725 C190 1.385 . S
C739 C39 1.365 . S
C743 C224 1.375 . S
C757 C73 1.363 . S
C761 C258 1.378 . S
C775 C292 1.386 . S
C779 C5 1.376 . S
C793 C175 1.371 . S
C797 C326 1.378 . S
C811 C360 1.383 . S
C815 C107 1.367 . S
C829 C394 1.387 . S
C833 C141 1.376 . S
C847 C135 1.700 . S
C851 C33 1.705 . S
C865 C67 1.702 . S
C869 C169 1.699 . S
C883 C101 1.703 . S
C887 C203 1.709 . S
C901 C339 1.702 . S
C905 C237 1.699 . S
C919 C271 1.712 . S
C923 C373 1.710 . S
C937 C305 1.699 . S
C941 C407 1.700 . S
