# Generated by pormake.
# Topology umy, (4)-cn, num edge types: 1
# Building blocks:
#     Node 0, Type 0, BuildingBlock: QUQFOY_clean_sbu_3, # of connection points: 4
#     Node 1, Type 0, BuildingBlock: QUQFOY_clean_sbu_3, # of connection points: 4
#     Node 2, Type 0, BuildingBlock: QUQFOY_clean_sbu_3, # of connection points: 4
#     Node 3, Type 0, BuildingBlock: QUQFOY_clean_sbu_3, # of connection points: 4
#     Node 4, Type 0, BuildingBlock: QUQFOY_clean_sbu_3, # of connection points: 4
#     Node 5, Type 0, BuildingBlock: QUQFOY_clean_sbu_3, # of connection points: 4
#     Node 6, Type 0, BuildingBlock: QUQFOY_clean_sbu_3, # of connection points: 4
#     Node 7, Type 0, BuildingBlock: QUQFOY_clean_sbu_3, # of connection points: 4
#     Node 8, Type 0, BuildingBlock: QUQFOY_clean_sbu_3, # of connection points: 4
#     Node 9, Type 0, BuildingBlock: QUQFOY_clean_sbu_3, # of connection points: 4
#     Node 10, Type 0, BuildingBlock: QUQFOY_clean_sbu_3, # of connection points: 4
#     Node 11, Type 0, BuildingBlock: QUQFOY_clean_sbu_3, # of connection points: 4
#     Edge 12, Type (0, 0), BuildingBlock: ZUJKAS_clean_linker_0, # of connection points: 2
#     Edge 13, Type (0, 0), BuildingBlock: ZUJKAS_clean_linker_0, # of connection points: 2
#     Edge 14, Type (0, 0), BuildingBlock: ZUJKAS_clean_linker_0, # of connection points: 2
#     Edge 15, Type (0, 0), BuildingBlock: ZUJKAS_clean_linker_0, # of connection points: 2
#     Edge 16, Type (0, 0), BuildingBlock: ZUJKAS_clean_linker_0, # of connection points: 2
#     Edge 17, Type (0, 0), BuildingBlock: ZUJKAS_clean_linker_0, # of connection points: 2
#     Edge 18, Type (0, 0), BuildingBlock: ZUJKAS_clean_linker_0, # of connection points: 2
#     Edge 19, Type (0, 0), BuildingBlock: ZUJKAS_clean_linker_0, # of connection points: 2
#     Edge 20, Type (0, 0), BuildingBlock: ZUJKAS_clean_linker_0, # of connection points: 2
#     Edge 21, Type (0, 0), BuildingBlock: ZUJKAS_clean_linker_0, # of connection points: 2
#     Edge 22, Type (0, 0), BuildingBlock: ZUJKAS_clean_linker_0, # of connection points: 2
#     Edge 23, Type (0, 0), BuildingBlock: ZUJKAS_clean_linker_0, # of connection points: 2
#     Edge 24, Type (0, 0), BuildingBlock: ZUJKAS_clean_linker_0, # of connection points: 2
#     Edge 25, Type (0, 0), BuildingBlock: ZUJKAS_clean_linker_0, # of connection points: 2
#     Edge 26, Type (0, 0), BuildingBlock: ZUJKAS_clean_linker_0, # of connection points: 2
#     Edge 27, Type (0, 0), BuildingBlock: ZUJKAS_clean_linker_0, # of connection points: 2
#     Edge 28, Type (0, 0), BuildingBlock: ZUJKAS_clean_linker_0, # of connection points: 2
#     Edge 29, Type (0, 0), BuildingBlock: ZUJKAS_clean_linker_0, # of connection points: 2
#     Edge 30, Type (0, 0), BuildingBlock: ZUJKAS_clean_linker_0, # of connection points: 2
#     Edge 31, Type (0, 0), BuildingBlock: ZUJKAS_clean_linker_0, # of connection points: 2
#     Edge 32, Type (0, 0), BuildingBlock: ZUJKAS_clean_linker_0, # of connection points: 2
#     Edge 33, Type (0, 0), BuildingBlock: ZUJKAS_clean_linker_0, # of connection points: 2
#     Edge 34, Type (0, 0), BuildingBlock: ZUJKAS_clean_linker_0, # of connection points: 2
#     Edge 35, Type (0, 0), BuildingBlock: ZUJKAS_clean_linker_0, # of connection points: 2
# Relax obj value: 0.099
# Max RMSD: 0.072
# Mean RMSD: 0.072
data_MOF--net-umy--node1-QUQFOY_clean_sbu_3--edge1-ZUJKAS_clean_linker_0
_symmetry_space_group_name_H-M    P1
_symmetry_Int_Tables_number       1
_symmetry_cell_setting            triclinic
loop_
_symmetry_equiv_pos_as_xyz
'x, y, z'
_cell_length_a     51.009779
_cell_length_b     51.049059
_cell_length_c     67.897511
_cell_angle_alpha  89.996166
_cell_angle_beta   90.03157
_cell_angle_gamma 119.89566
loop_
_atom_site_label
_atom_site_type_symbol
_atom_site_fract_x
_atom_site_fract_y
_atom_site_fract_z
_atom_type_partial_charge
C0 C -0.00336 0.26204 0.11551 0.0
O1 O 0.01208 0.25028 0.10957 0.0
Cd2 Cd 0.06467 0.27897 0.10122 0.0
O3 O 0.00861 0.29063 0.1169 0.0
Cd4 Cd 0.05773 0.33653 0.1107 0.0
C5 C 0.09204 0.31572 0.14524 0.0
O6 O 0.06912 0.31895 0.0806 0.0
O7 O 0.1056 0.36037 0.09237 0.0
O8 O 0.03123 0.36111 0.09743 0.0
C9 C 0.09559 0.34117 0.07852 0.0
O10 O 0.09121 0.29669 0.13275 0.0
C11 C 0.04403 0.38407 0.10859 0.0
O12 O 0.08003 0.33182 0.14138 0.0
O13 O 0.06271 0.38453 0.12116 0.0
C14 C 0.72116 0.00256 0.2872 0.0
O15 O 0.74857 0.01568 0.28163 0.0
Cd16 Cd 0.77415 0.06577 0.26826 0.0
O17 O 0.70551 0.01559 0.28546 0.0
Cd18 Cd 0.71084 0.06341 0.27302 0.0
C19 C 0.7645 0.10275 0.30741 0.0
O20 O 0.74006 0.06633 0.24425 0.0
O21 O 0.73727 0.10629 0.25035 0.0
O22 O 0.65933 0.03304 0.26099 0.0
C23 C 0.74573 0.09237 0.23885 0.0
O24 O 0.7827 0.09885 0.29661 0.0
C25 C 0.65018 0.05028 0.26771 0.0
O26 O 0.73665 0.09079 0.30286 0.0
O27 O 0.66921 0.07344 0.27724 0.0
C28 C 0.70807 0.72317 0.45705 0.0
O29 O 0.72273 0.75104 0.45266 0.0
Cd30 Cd 0.6986 0.77935 0.44385 0.0
O31 O 0.67929 0.7086 0.45626 0.0
Cd32 Cd 0.63703 0.71679 0.44714 0.0
C33 C 0.65411 0.76596 0.48494 0.0
O34 O 0.66204 0.74962 0.41929 0.0
O35 O 0.61963 0.74585 0.42802 0.0
O36 O 0.6148 0.66715 0.43197 0.0
C37 C 0.64134 0.75586 0.41587 0.0
O38 O 0.67655 0.7846 0.4746 0.0
C39 C 0.58871 0.65746 0.43934 0.0
O40 O 0.63671 0.73915 0.47884 0.0
O41 O 0.58527 0.67523 0.45077 0.0
C42 C 0.9742 0.71557 0.61959 0.0
O43 O 0.95963 0.72815 0.61346 0.0
Cd44 Cd 0.90787 0.70058 0.60317 0.0
O45 O 0.962 0.68688 0.61968 0.0
Cd46 Cd 0.91413 0.64159 0.60992 0.0
C47 C 0.87695 0.65771 0.64497 0.0
O48 O 0.9054 0.66336 0.5807 0.0
O49 O 0.86862 0.61983 0.58936 0.0
O50 O 0.94488 0.62123 0.59724 0.0
C51 C 0.87938 0.64126 0.57699 0.0
O52 O 0.87982 0.67903 0.63378 0.0
C53 C 0.9298 0.5957 0.60558 0.0
O54 O 0.88832 0.64137 0.64017 0.0
O55 O 0.9078 0.59182 0.61637 0.0
C56 C 0.24881 0.97216 0.79342 0.0
O57 O 0.22159 0.9587 0.78742 0.0
Cd58 Cd 0.19669 0.9085 0.77449 0.0
O59 O 0.26495 0.9596 0.79199 0.0
Cd60 Cd 0.26093 0.91232 0.77905 0.0
C61 C 0.20804 0.87242 0.81371 0.0
O62 O 0.23101 0.90863 0.75049 0.0
O63 O 0.2352 0.86937 0.75624 0.0
O64 O 0.31204 0.94364 0.76661 0.0
C65 C 0.22586 0.88281 0.74498 0.0
O66 O 0.18975 0.87681 0.80335 0.0
C67 C 0.32207 0.92716 0.7734 0.0
O68 O 0.23563 0.88383 0.80865 0.0
O69 O 0.30369 0.90395 0.78315 0.0
C70 C 0.26771 0.26359 0.95805 0.0
O71 O 0.25265 0.23546 0.95438 0.0
Cd72 Cd 0.27556 0.20591 0.94561 0.0
O73 O 0.29643 0.27789 0.95666 0.0
Cd74 Cd 0.33792 0.26861 0.94759 0.0
C75 C 0.32115 0.22075 0.98623 0.0
O76 O 0.31189 0.23432 0.92075 0.0
O77 O 0.35403 0.23743 0.92945 0.0
O78 O 0.36129 0.31634 0.93002 0.0
C79 C 0.33185 0.22699 0.9176 0.0
O80 O 0.29869 0.2015 0.97615 0.0
C81 C 0.38646 0.32739 0.93894 0.0
O82 O 0.33815 0.24743 0.97978 0.0
O83 O 0.38898 0.31111 0.95212 0.0
C84 C 0.71087 0.97792 0.69785 0.0
O85 O 0.72481 0.96479 0.70414 0.0
Cd86 Cd 0.69986 0.91451 0.71691 0.0
O87 O 0.68214 0.96502 0.69894 0.0
Cd88 Cd 0.63907 0.91751 0.71168 0.0
C89 C 0.65353 0.87827 0.67727 0.0
O90 O 0.66482 0.91391 0.74054 0.0
O91 O 0.62198 0.87432 0.73422 0.0
O92 O 0.61813 0.94802 0.72391 0.0
C93 C 0.64434 0.88786 0.74577 0.0
O94 O 0.67612 0.88291 0.68782 0.0
C95 C 0.59191 0.9313 0.71681 0.0
O96 O 0.63693 0.88931 0.68218 0.0
O97 O 0.58781 0.90839 0.70697 0.0
C98 C 0.72837 0.71714 0.8672 0.0
O99 O 0.75588 0.72919 0.87246 0.0
Cd100 Cd 0.78013 0.70078 0.88066 0.0
O101 O 0.71164 0.6885 0.86677 0.0
Cd102 Cd 0.71483 0.64282 0.87448 0.0
C103 C 0.7662 0.65933 0.83806 0.0
O104 O 0.74673 0.66284 0.90328 0.0
O105 O 0.73973 0.61992 0.8928 0.0
O106 O 0.66544 0.62075 0.88997 0.0
C107 C 0.75063 0.64044 0.90582 0.0
O108 O 0.78528 0.68021 0.84923 0.0
C109 C 0.65374 0.59663 0.87986 0.0
O110 O 0.73872 0.64315 0.84333 0.0
O111 O 0.6703 0.59437 0.86678 0.0
C112 C -0.00444 0.71874 0.0312 0.0
O113 O 0.00745 0.74675 0.03497 0.0
Cd114 Cd 0.05911 0.77784 0.04463 0.0
O115 O 0.01072 0.70524 0.03321 0.0
Cd116 Cd 0.06139 0.71616 0.04426 0.0
C117 C 0.09378 0.76379 0.00569 0.0
O118 O 0.06666 0.7505 0.07044 0.0
O119 O 0.10693 0.74853 0.06359 0.0
O120 O 0.03703 0.66894 0.06239 0.0
C121 C 0.09388 0.75865 0.07456 0.0
O122 O 0.08822 0.78222 0.01491 0.0
C123 C 0.05226 0.6582 0.05459 0.0
O124 O 0.08536 0.7376 0.01263 0.0
O125 O 0.07163 0.67434 0.04167 0.0
C126 C 0.26346 0.01428 0.19876 0.0
O127 O 0.25117 0.02931 0.20456 0.0
Cd128 Cd 0.27781 0.07887 0.21893 0.0
O129 O 0.29188 0.02494 0.20046 0.0
Cd130 Cd 0.33699 0.07053 0.21295 0.0
C131 C 0.32577 0.11496 0.18025 0.0
O132 O 0.31123 0.07449 0.24141 0.0
O133 O 0.35766 0.10986 0.23885 0.0
O134 O 0.35575 0.03688 0.22262 0.0
C135 C 0.33322 0.09806 0.24857 0.0
O136 O 0.30407 0.11202 0.19107 0.0
C137 C 0.38206 0.05348 0.2156 0.0
O138 O 0.34018 0.10125 0.1844 0.0
O139 O 0.38699 0.07754 0.20688 0.0
C140 C 0.25492 0.26808 0.36869 0.0
O141 O 0.22844 0.25409 0.37589 0.0
Cd142 Cd 0.20049 0.27945 0.38253 0.0
O143 O 0.26865 0.29662 0.36635 0.0
Cd144 Cd 0.26227 0.34045 0.37376 0.0
C145 C 0.20899 0.31646 0.33824 0.0
O146 O 0.23301 0.32035 0.40359 0.0
O147 O 0.2349 0.36066 0.39215 0.0
O148 O 0.31351 0.36381 0.38637 0.0
C149 C 0.22654 0.34111 0.40575 0.0
O150 O 0.19168 0.29598 0.35032 0.0
C151 C 0.32254 0.389 0.37785 0.0
O152 O 0.23639 0.33495 0.34269 0.0
O153 O 0.30361 0.3914 0.36693 0.0
C154 C 0.973 0.25816 0.5262 0.0
O155 O 0.95989 0.23037 0.53085 0.0
Cd156 Cd 0.90808 0.20292 0.54117 0.0
O157 O 0.95907 0.273 0.52746 0.0
Cd158 Cd 0.90973 0.26631 0.53768 0.0
C159 C 0.87588 0.21622 0.50055 0.0
O160 O 0.90346 0.23424 0.5655 0.0
O161 O 0.8643 0.23787 0.55803 0.0
O162 O 0.93957 0.31622 0.55193 0.0
C163 C 0.87677 0.22795 0.56969 0.0
O164 O 0.87916 0.19741 0.5111 0.0
C165 C 0.92347 0.32666 0.5451 0.0
O166 O 0.88636 0.24343 0.50619 0.0
O167 O 0.90094 0.30901 0.53452 0.0
H168 H 0.01871 0.62326 0.08537 0.0
H169 H 0.01442 0.5759 0.09686 0.0
H170 H 0.07159 0.57872 0.04915 0.0
H171 H 0.0767 0.62656 0.03787 0.0
H172 H -0.0073 0.52119 0.07955 0.0
H173 H 0.11442 0.56972 0.09659 0.0
H174 H 0.09782 0.59294 0.09121 0.0
H175 H 0.10793 0.57604 0.07151 0.0
C176 C 0.03036 0.61379 0.07731 0.0
C177 C 0.04829 0.62874 0.06082 0.0
C178 C 0.02786 0.58673 0.08389 0.0
C179 C 0.04318 0.57415 0.07409 0.0
C180 C 0.06024 0.58849 0.05723 0.0
H181 H 0.01397 0.39355 0.07876 0.0
H182 H 0.01119 0.43913 0.07237 0.0
C183 C 0.06298 0.6157 0.05073 0.0
C184 C 0.04132 0.54603 0.08153 0.0
H185 H 0.08466 0.51595 0.0962 0.0
C186 C 0.01276 0.52005 0.08335 0.0
C187 C 0.06748 0.5448 0.08689 0.0
C188 C 0.09861 0.57244 0.08666 0.0
C189 C 0.00974 0.49255 0.08977 0.0
C190 C 0.03604 0.49092 0.09401 0.0
C191 C 0.06451 0.51715 0.09279 0.0
C192 C 0.0349 0.46213 0.09899 0.0
C193 C 0.97841 0.46566 0.09209 0.0
C194 C 0.04942 0.45999 0.11598 0.0
C195 C 0.05152 0.43414 0.1195 0.0
C196 C 0.03904 0.40997 0.10609 0.0
C197 C 0.02361 0.41173 0.08944 0.0
C198 C 0.0218 0.4377 0.08583 0.0
H199 H 0.96143 0.47284 0.09481 0.0
H200 H 0.97192 0.45222 0.0783 0.0
H201 H 0.97744 0.45089 0.10441 0.0
H202 H 0.05979 0.47865 0.12628 0.0
H203 H 0.06351 0.4334 0.13246 0.0
H204 H 0.60407 0.00123 0.24943 0.0
H205 H 0.55424 -0.0063 0.24062 0.0
H206 H 0.57701 0.0789 0.26769 0.0
H207 H 0.62656 0.08632 0.27691 0.0
H208 H 0.51882 0.03338 0.27625 0.0
H209 H 0.54217 0.04016 0.19584 0.0
H210 H 0.54581 0.01152 0.20888 0.0
H211 H 0.57143 0.0507 0.21412 0.0
C212 C 0.59837 0.01825 0.25363 0.0
C213 C 0.6193 0.0445 0.26372 0.0
C214 C 0.56997 0.01397 0.24849 0.0
C215 C 0.56223 0.03601 0.25318 0.0
C216 C 0.58266 0.06169 0.26386 0.0
H217 H 0.44127 0.08754 0.20506 0.0
H218 H 0.48276 0.0788 0.21364 0.0
C219 C 0.61096 0.06591 0.2691 0.0
C220 C 0.53325 0.033 0.24653 0.0
H221 H 0.49448 0.03245 0.20541 0.0
C222 C 0.5133 0.03289 0.26078 0.0
C223 C 0.52638 0.03266 0.22631 0.0
C224 C 0.54763 0.03401 0.21036 0.0
C225 C 0.48693 0.03321 0.25535 0.0
C226 C 0.48012 0.03299 0.23512 0.0
C227 C 0.4997 0.03234 0.22088 0.0
C228 C 0.45435 0.03633 0.22847 0.0
C229 C 0.46737 0.0352 0.27129 0.0
C230 C 0.42454 0.01486 0.23346 0.0
C231 C 0.40076 0.01989 0.22869 0.0
C232 C 0.40645 0.04634 0.21868 0.0
C233 C 0.43616 0.06701 0.21284 0.0
C234 C 0.45989 0.06204 0.2177 0.0
H235 H 0.4791 0.04151 0.28576 0.0
H236 H 0.46051 0.05205 0.26738 0.0
H237 H 0.44657 0.01289 0.27294 0.0
H238 H 0.41976 -0.00543 0.24142 0.0
H239 H 0.37805 0.00343 0.23325 0.0
H240 H 0.59071 0.61304 0.41814 0.0
H241 H 0.54793 0.565 0.40728 0.0
H242 H 0.48642 0.5867 0.437 0.0
H243 H 0.52909 0.63439 0.44834 0.0
H244 H 0.47197 0.52817 0.44271 0.0
H245 H 0.49068 0.55754 0.36324 0.0
H246 H 0.52259 0.55918 0.37559 0.0
H247 H 0.50987 0.58504 0.38243 0.0
C248 C 0.56808 0.60749 0.42246 0.0
C249 C 0.5632 0.62755 0.43398 0.0
C250 C 0.54367 0.58015 0.41613 0.0
C251 C 0.51402 0.57265 0.42098 0.0
C252 C 0.50916 0.59219 0.433 0.0
H253 H 0.34436 0.44792 0.36744 0.0
H254 H 0.39243 0.49151 0.37739 0.0
C255 C 0.53355 0.61941 0.43947 0.0
C256 C 0.48788 0.54459 0.41344 0.0
H257 H 0.45184 0.50814 0.3712 0.0
C258 C 0.46758 0.52371 0.42708 0.0
C259 C 0.4821 0.5391 0.39304 0.0
C260 C 0.50227 0.5615 0.3777 0.0
C261 C 0.44145 0.49752 0.42088 0.0
C262 C 0.43596 0.49174 0.40047 0.0
C263 C 0.45634 0.51253 0.38683 0.0
C264 C 0.40826 0.46507 0.39304 0.0
C265 C 0.41949 0.47685 0.43625 0.0
C266 C 0.40174 0.43576 0.39799 0.0
C267 C 0.3742 0.41086 0.39248 0.0
C268 C 0.35294 0.41488 0.38168 0.0
C269 C 0.36026 0.44414 0.3758 0.0
C270 C 0.38769 0.46904 0.38147 0.0
H271 H 0.42321 0.48831 0.45074 0.0
H272 H 0.39576 0.46859 0.43162 0.0
H273 H 0.4226 0.457 0.43827 0.0
H274 H 0.41766 0.43219 0.40649 0.0
H275 H 0.36931 0.38854 0.39704 0.0
H276 H 0.89689 0.537 0.61747 0.0
H277 H 0.90427 0.49504 0.60794 0.0
H278 H 0.98456 0.55643 0.57566 0.0
H279 H 0.97693 0.59852 0.58476 0.0
H280 H 0.94655 0.50876 0.55366 0.0
H281 H 0.96272 0.46825 0.62567 0.0
H282 H 0.92899 0.47094 0.62531 0.0
H283 H 0.9653 0.50462 0.62269 0.0
C284 C 0.91641 0.54167 0.60862 0.0
C285 C 0.93629 0.57103 0.60182 0.0
C286 C 0.92072 0.51768 0.6033 0.0
C287 C 0.9452 0.52269 0.59132 0.0
C288 C 0.96561 0.55213 0.58499 0.0
H289 H 0.97234 0.37021 0.56493 0.0
H290 H 0.98169 0.42024 0.57475 0.0
C291 C 0.96122 0.57613 0.59022 0.0
C292 C 0.94778 0.49679 0.58396 0.0
H293 H 0.94728 0.43274 0.5988 0.0
C294 C 0.94718 0.49236 0.56352 0.0
C295 C 0.94908 0.47568 0.59681 0.0
C296 C 0.95189 0.48027 0.61883 0.0
C297 C 0.94639 0.46662 0.55561 0.0
C298 C 0.94545 0.44444 0.56852 0.0
C299 C 0.94756 0.44958 0.58892 0.0
C300 C 0.94096 0.41516 0.56128 0.0
C301 C 0.94639 0.46337 0.53352 0.0
C302 C 0.91498 0.39577 0.55042 0.0
C303 C 0.90966 0.36728 0.54468 0.0
C304 C 0.93006 0.35753 0.54994 0.0
C305 C 0.95621 0.3771 0.56066 0.0
C306 C 0.96159 0.40566 0.56629 0.0
H307 H 0.95695 0.48575 0.52611 0.0
H308 H 0.95866 0.45148 0.52903 0.0
H309 H 0.9227 0.45009 0.52823 0.0
H310 H 0.89838 0.40237 0.54682 0.0
H311 H 0.88921 0.35262 0.53656 0.0
H312 H 0.53267 0.89673 0.70624 0.0
H313 H 0.49065 0.90435 0.71536 0.0
H314 H 0.5525 0.98698 0.74531 0.0
H315 H 0.59467 0.97923 0.73656 0.0
H316 H 0.50453 0.94984 0.76813 0.0
H317 H 0.46434 0.96226 0.69491 0.0
H318 H 0.46727 0.92873 0.69649 0.0
H319 H 0.50082 0.96525 0.69853 0.0
C320 C 0.53741 0.91675 0.71453 0.0
C321 C 0.56696 0.93736 0.7207 0.0
C322 C 0.51339 0.92118 0.71962 0.0
C323 C 0.51854 0.94646 0.73076 0.0
C324 C 0.5481 0.96741 0.7366 0.0
H325 H 0.36636 0.97584 0.75378 0.0
H326 H 0.41669 0.98493 0.74486 0.0
C327 C 0.57214 0.96295 0.73158 0.0
C328 C 0.49272 0.94959 0.73762 0.0
H329 H 0.42903 0.94901 0.72168 0.0
C330 C 0.48824 0.95012 0.75798 0.0
C331 C 0.47178 0.95045 0.72436 0.0
C332 C 0.47644 0.95197 0.70236 0.0
C333 C 0.46254 0.94995 0.76545 0.0
C334 C 0.44054 0.94862 0.75218 0.0
C335 C 0.44577 0.94964 0.73183 0.0
C336 C 0.41121 0.94453 0.75903 0.0
C337 C 0.45912 0.95099 0.78746 0.0
C338 C 0.39153 0.91885 0.77 0.0
C339 C 0.36286 0.91366 0.77519 0.0
C340 C 0.35324 0.9339 0.76929 0.0
C341 C 0.37315 0.95984 0.75855 0.0
C342 C 0.40188 0.96507 0.75343 0.0
H343 H 0.48143 0.96164 0.79499 0.0
H344 H 0.44742 0.96368 0.79139 0.0
H345 H 0.44553 0.92758 0.79315 0.0
H346 H 0.39801 0.90235 0.77407 0.0
H347 H 0.34796 0.89338 0.78336 0.0
H348 H 0.44033 0.35958 0.95817 0.0
H349 H 0.48343 0.40812 0.94842 0.0
H350 H 0.43364 0.41074 0.89778 0.0
H351 H 0.3902 0.36272 0.90773 0.0
H352 H 0.51566 0.41971 0.91528 0.0
H353 H 0.46662 0.49503 0.91932 0.0
H354 H 0.4483 0.4577 0.93002 0.0
H355 H 0.44501 0.46253 0.90405 0.0
C356 C 0.43845 0.3707 0.9451 0.0
C357 C 0.41191 0.3574 0.93372 0.0
C358 C 0.46306 0.3984 0.93955 0.0
C359 C 0.46158 0.41323 0.92253 0.0
C360 C 0.43501 0.40009 0.91124 0.0
H361 H 0.62108 0.54449 0.8589 0.0
H362 H 0.57287 0.50053 0.86826 0.0
C363 C 0.41029 0.37253 0.91687 0.0
C364 C 0.48858 0.44129 0.91586 0.0
H365 H 0.51404 0.51464 0.90276 0.0
C366 C 0.51535 0.44052 0.91264 0.0
C367 C 0.48816 0.46845 0.9126 0.0
C368 C 0.46057 0.47114 0.91686 0.0
C369 C 0.5417 0.4661 0.90609 0.0
C370 C 0.54098 0.49293 0.9021 0.0
C371 C 0.51433 0.49386 0.90554 0.0
C372 C 0.56812 0.52059 0.89515 0.0
C373 C 0.57023 0.46429 0.90396 0.0
C374 C 0.58049 0.54693 0.90661 0.0
C375 C 0.60776 0.5722 0.90116 0.0
C376 C 0.62313 0.57146 0.88417 0.0
C377 C 0.60991 0.54558 0.87219 0.0
C378 C 0.58249 0.52042 0.87756 0.0
H379 H 0.56902 0.44516 0.91251 0.0
H380 H 0.57345 0.46072 0.88823 0.0
H381 H 0.59033 0.48552 0.90896 0.0
H382 H 0.56962 0.54756 0.92017 0.0
H383 H 0.61734 0.59186 0.91066 0.0
H384 H 0.15445 0.38402 0.07129 0.0
H385 H 0.18759 0.38282 0.04562 0.0
H386 H 0.11381 0.29926 0.02346 0.0
H387 H 0.08058 0.30057 0.04869 0.0
H388 H 0.20188 0.33875 0.04288 0.0
H389 H 0.14987 0.34435 0.97283 0.0
H390 H 0.1407 0.35492 -0.00388 0.0
H391 H 0.12249 0.31584 0.98876 0.0
C392 C 0.14519 0.36571 0.0607 0.0
C393 C 0.11498 0.3423 0.06205 0.0
C394 C 0.1641 0.36511 0.04603 0.0
C395 C 0.15303 0.34122 0.03244 0.0
C396 C 0.12263 0.31835 0.03344 0.0
H397 H 0.20708 0.24004 0.96417 0.0
H398 H 0.18218 0.26477 0.98002 0.0
C399 C 0.10374 0.31896 0.04802 0.0
C400 C 0.17383 0.33785 0.01888 0.0
H401 H 0.18072 0.32035 0.97136 0.0
C402 C 0.19777 0.33549 0.02716 0.0
C403 C 0.16834 0.33357 -0.00161 0.0
C404 C 0.14412 0.33762 0.98849 0.0
C405 C 0.21509 0.3269 0.01573 0.0
C406 C 0.20848 0.32096 -0.00455 0.0
C407 C 0.18558 0.32483 0.98694 0.0
C408 C 0.22317 0.30785 0.98343 0.0
C409 C 0.2391 0.32247 0.02566 0.0
C410 C 0.25429 0.32427 0.9796 0.0
C411 C 0.26865 0.31019 0.97062 0.0
C412 C 0.25204 0.27948 0.96531 0.0
C413 C 0.22056 0.26363 0.9682 0.0
C414 C 0.20627 0.27774 0.97718 0.0
H415 H 0.23811 0.32349 0.04197 0.0
H416 H 0.23668 0.30035 0.02145 0.0
H417 H 0.26176 0.34046 0.02079 0.0
H418 H 0.26759 0.34766 0.98414 0.0
H419 H 0.29288 0.32313 0.96844 0.0
H420 H 0.7646 0.06675 0.21123 0.0
H421 H 0.80123 0.09235 0.18487 0.0
H422 H 0.80786 0.17703 0.20137 0.0
H423 H 0.77077 0.1515 0.22763 0.0
H424 H 0.80779 0.16723 0.1594 0.0
H425 H 0.8907 0.1473 0.20043 0.0
H426 H 0.8552 0.11401 0.19519 0.0
H427 H 0.85637 0.14225 0.21154 0.0
C428 C 0.77358 0.09077 0.20912 0.0
C429 C 0.76519 0.10725 0.22167 0.0
C430 C 0.79449 0.10532 0.19407 0.0
C431 C 0.80754 0.13659 0.19146 0.0
C432 C 0.79804 0.15286 0.20325 0.0
H433 H 0.95844 0.27927 0.1316 0.0
H434 H 0.90943 0.24681 0.1469 0.0
C435 C 0.77696 0.13827 0.21826 0.0
C436 C 0.83282 0.1527 0.17753 0.0
H437 H 0.90611 0.17139 0.1697 0.0
C438 C 0.82928 0.16809 0.16154 0.0
C439 C 0.86076 0.15374 0.18048 0.0
C440 C 0.86622 0.13869 0.19791 0.0
C441 C 0.85312 0.18454 0.14833 0.0
C442 C 0.88116 0.18586 0.15145 0.0
C443 C 0.88446 0.17008 0.16727 0.0
C444 C 0.90821 0.20501 0.13942 0.0
C445 C 0.84808 0.20023 0.13115 0.0
C446 C 0.92372 0.19224 0.13009 0.0
C447 C 0.95193 0.21074 0.12151 0.0
C448 C 0.96518 0.24237 0.12223 0.0
C449 C 0.9489 0.25501 0.13079 0.0
C450 C 0.92072 0.23648 0.1394 0.0
H451 H 0.82368 0.18981 0.12745 0.0
H452 H 0.8565 0.22424 0.13504 0.0
H453 H 0.8605 0.19961 0.11789 0.0
H454 H 0.91447 0.16798 0.13007 0.0
H455 H 0.96379 0.20026 0.11496 0.0
H456 H 0.60136 0.77445 0.40569 0.0
H457 H 0.60743 0.81055 0.37987 0.0
H458 H 0.6933 0.8194 0.36382 0.0
H459 H 0.68725 0.78311 0.38932 0.0
H460 H 0.65379 0.86935 0.37873 0.0
H461 H 0.65324 0.80988 0.31039 0.0
H462 H 0.63949 0.79058 0.33363 0.0
H463 H 0.67939 0.8108 0.32845 0.0
C464 C 0.62133 0.78379 0.39647 0.0
C465 C 0.64388 0.77605 0.39954 0.0
C466 C 0.62472 0.80432 0.38173 0.0
C467 C 0.65057 0.81724 0.36976 0.0
C468 C 0.67283 0.80911 0.37258 0.0
H469 H 0.74855 0.96938 0.29535 0.0
H470 H 0.72757 0.92221 0.31395 0.0
C471 C 0.66945 0.78858 0.38727 0.0
C472 C 0.65585 0.84145 0.35569 0.0
H473 H 0.67437 0.86369 0.3079 0.0
C474 C 0.65777 0.86796 0.36317 0.0
C475 C 0.6611 0.8395 0.33544 0.0
C476 C 0.65791 0.81103 0.32645 0.0
C477 C 0.66622 0.89318 0.35111 0.0
C478 C 0.67242 0.89157 0.33099 0.0
C479 C 0.66962 0.86477 0.32335 0.0
C480 C 0.68366 0.91821 0.31803 0.0
C481 C 0.66981 0.9218 0.36018 0.0
C482 C 0.66556 0.931 0.31376 0.0
C483 C 0.67748 0.95801 0.30322 0.0
C484 C 0.70769 0.97257 0.29671 0.0
C485 C 0.72528 0.95887 0.30025 0.0
C486 C 0.71333 0.93188 0.31082 0.0
H487 H 0.66987 0.92107 0.37653 0.0
H488 H 0.69114 0.94176 0.35517 0.0
H489 H 0.65071 0.92492 0.35546 0.0
H490 H 0.64245 0.92045 0.31899 0.0
H491 H 0.66323 0.96781 0.30059 0.0
H492 H 0.7691 0.74735 0.46152 0.0
H493 H 0.7954 0.72366 0.47676 0.0
H494 H 0.71061 0.64082 0.48399 0.0
H495 H 0.68395 0.6644 0.46893 0.0
H496 H 0.7429 0.66232 0.51838 0.0
H497 H 0.81681 0.65997 0.45958 0.0
H498 H 0.81989 0.69638 0.46224 0.0
H499 H 0.78458 0.66461 0.45448 0.0
C500 C 0.75605 0.72393 0.46602 0.0
C501 C 0.72439 0.70784 0.46415 0.0
C502 C 0.77118 0.71033 0.47457 0.0
C503 C 0.75498 0.68038 0.48124 0.0
C504 C 0.72351 0.6639 0.47877 0.0
H505 H 0.82282 0.59755 0.56563 0.0
H506 H 0.79081 0.60171 0.54034 0.0
C507 C 0.70834 0.67746 0.47021 0.0
C508 C 0.77046 0.66777 0.493 0.0
H509 H 0.83119 0.65682 0.49296 0.0
C510 C 0.76181 0.66047 0.51275 0.0
C511 C 0.79514 0.66553 0.48557 0.0
C512 C 0.80448 0.67175 0.46424 0.0
C513 C 0.77832 0.65271 0.52562 0.0
C514 C 0.80377 0.65165 0.51838 0.0
C515 C 0.81165 0.65767 0.49842 0.0
C516 C 0.82405 0.6472 0.53177 0.0
C517 C 0.76943 0.64746 0.54708 0.0
C518 C 0.85369 0.67092 0.53466 0.0
C519 C 0.87205 0.66855 0.54895 0.0
C520 C 0.86101 0.64242 0.5606 0.0
C521 C 0.8318 0.6181 0.55702 0.0
C522 C 0.81348 0.62044 0.54263 0.0
H523 H 0.75295 0.65487 0.55091 0.0
H524 H 0.75881 0.62298 0.55039 0.0
H525 H 0.78961 0.65969 0.55668 0.0
H526 H 0.86223 0.69173 0.52637 0.0
H527 H 0.89452 0.6876 0.55127 0.0
H528 H 0.00951 0.69627 0.63765 0.0
H529 H 0.05738 0.72722 0.65484 0.0
H530 H 0.05645 0.80794 0.63731 0.0
H531 H 0.00834 0.77726 0.62033 0.0
H532 H 0.11514 0.77627 0.64312 0.0
H533 H 0.05661 0.81002 0.69804 0.0
H534 H 0.03637 0.77937 0.68092 0.0
H535 H 0.05211 0.81785 0.67287 0.0
C536 C 0.01962 0.72063 0.63725 0.0
C537 C 0.00486 0.73429 0.62788 0.0
C538 C 0.04701 0.73825 0.64703 0.0
C539 C 0.06008 0.76975 0.64759 0.0
C540 C 0.04637 0.78358 0.63731 0.0
H541 H 0.20327 0.90683 0.71877 0.0
H542 H 0.16615 0.88041 0.69282 0.0
C543 C 0.01891 0.766 0.62759 0.0
C544 C 0.08679 0.78792 0.66012 0.0
H545 H 0.10939 0.83205 0.70127 0.0
C546 C 0.11401 0.78856 0.65581 0.0
C547 C 0.08502 0.80369 0.67672 0.0
C548 C 0.05592 0.80258 0.68258 0.0
C549 C 0.13976 0.80498 0.66763 0.0
C550 C 0.13792 0.82069 0.68422 0.0
C551 C 0.11072 0.82011 0.68843 0.0
C552 C 0.1635 0.83732 0.69791 0.0
C553 C 0.16875 0.80566 0.66217 0.0
C554 C 0.17457 0.82187 0.70917 0.0
C555 C 0.19583 0.83692 0.72404 0.0
C556 C 0.20605 0.86755 0.72796 0.0
C557 C 0.1957 0.88318 0.71617 0.0
C558 C 0.17456 0.86816 0.70131 0.0
H559 H 0.16869 0.79928 0.64652 0.0
H560 H 0.18859 0.82844 0.66471 0.0
H561 H 0.1714 0.78929 0.67151 0.0
H562 H 0.16585 0.7979 0.70702 0.0
H563 H 0.20338 0.82429 0.73291 0.0
H564 H 0.22146 0.00614 0.79801 0.0
H565 H 0.24022 0.05313 0.81649 0.0
H566 H 0.32265 0.05248 0.82952 0.0
H567 H 0.30429 0.0056 0.81084 0.0
H568 H 0.25449 0.05748 0.85655 0.0
H569 H 0.35298 0.14042 0.81254 0.0
H570 H 0.32403 0.10487 0.80252 0.0
H571 H 0.35271 0.10596 0.81842 0.0
C572 C 0.24377 0.01616 0.80455 0.0
C573 C 0.26132 0.00202 0.80303 0.0
C574 C 0.25445 0.04304 0.81508 0.0
C575 C 0.28289 0.05635 0.82419 0.0
C576 C 0.30087 0.04282 0.82227 0.0
H577 H 0.36749 0.20206 0.90994 0.0
H578 H 0.35709 0.16138 0.88654 0.0
C579 C 0.29023 0.01593 0.81169 0.0
C580 C 0.29235 0.08274 0.83721 0.0
H581 H 0.34588 0.1568 0.84382 0.0
C582 C 0.2744 0.07923 0.85373 0.0
C583 C 0.31851 0.11093 0.83354 0.0
C584 C 0.3381 0.11599 0.81571 0.0
C585 C 0.28189 0.1032 0.86675 0.0
C586 C 0.30775 0.13152 0.86293 0.0
C587 C 0.32602 0.135 0.84659 0.0
C588 C 0.31558 0.15782 0.87566 0.0
C589 C 0.26224 0.09794 0.8846 0.0
C590 C 0.29605 0.16965 0.87681 0.0
C591 C 0.30182 0.19269 0.89013 0.0
C592 C 0.32732 0.20438 0.90246 0.0
C593 C 0.34757 0.19336 0.90069 0.0
C594 C 0.34173 0.17022 0.88734 0.0
H595 H 0.24783 0.07349 0.88793 0.0
H596 H 0.27624 0.10943 0.89776 0.0
H597 H 0.24715 0.10739 0.88182 0.0
H598 H 0.27598 0.16059 0.86768 0.0
H599 H 0.28595 0.2009 0.89101 0.0
H600 H 0.75704 0.77889 0.86671 0.0
H601 H 0.73922 0.81052 0.85149 0.0
H602 H 0.65508 0.731 0.83623 0.0
H603 H 0.67243 0.69916 0.85166 0.0
H604 H 0.72577 0.80593 0.81201 0.0
H605 H 0.62672 0.78833 0.85603 0.0
H606 H 0.65429 0.77894 0.86517 0.0
H607 H 0.62516 0.75388 0.84847 0.0
C608 C 0.7345 0.76812 0.86046 0.0
C609 C 0.71625 0.73647 0.86026 0.0
C610 C 0.72434 0.78625 0.85182 0.0
C611 C 0.69574 0.77311 0.84292 0.0
C612 C 0.67697 0.74163 0.84339 0.0
H613 H 0.60987 0.82854 0.75654 0.0
H614 H 0.62155 0.80203 0.78213 0.0
C615 C 0.68706 0.72346 0.85208 0.0
C616 C 0.68721 0.7919 0.83097 0.0
H617 H 0.63258 0.81113 0.8243 0.0
C618 C 0.70562 0.80741 0.81485 0.0
C619 C 0.66073 0.79344 0.83463 0.0
C620 C 0.6407 0.77798 0.85212 0.0
C621 C 0.6979 0.82387 0.80196 0.0
C622 C 0.67133 0.82529 0.80551 0.0
C623 C 0.65298 0.81001 0.82171 0.0
C624 C 0.66206 0.84194 0.79208 0.0
C625 C 0.71775 0.8388 0.78426 0.0
C626 C 0.68047 0.87324 0.78975 0.0
C627 C 0.67403 0.88835 0.7751 0.0
C628 C 0.64892 0.87241 0.76267 0.0
C629 C 0.62948 0.84136 0.76583 0.0
C630 C 0.63605 0.82622 0.78045 0.0
H631 H 0.73328 0.82989 0.78127 0.0
H632 H 0.70385 0.83547 0.7709 0.0
H633 H 0.73173 0.86344 0.78699 0.0
H634 H 0.7004 0.88578 0.79883 0.0
H635 H 0.68922 0.91236 0.77317 0.0
H636 H 0.78036 0.68388 0.93354 0.0
H637 H 0.815 0.68514 0.95879 0.0
H638 H 0.7981 0.59714 0.94049 0.0
H639 H 0.76366 0.59589 0.91482 0.0
H640 H 0.80781 0.64598 0.9904 0.0
H641 H 0.88994 0.6513 0.93418 0.0
H642 H 0.85873 0.65693 0.92791 0.0
H643 H 0.85221 0.61957 0.93275 0.0
C644 C 0.78384 0.66468 0.93493 0.0
C645 C 0.76963 0.63995 0.92204 0.0
C646 C 0.80353 0.66539 0.94943 0.0
C647 C 0.80935 0.64141 0.9513 0.0
C648 C 0.79422 0.61607 0.93903 0.0
H649 H 0.96478 0.66029 0.018 0.0
H650 H 0.91554 0.63492 0.00157 0.0
C651 C 0.77456 0.61538 0.92443 0.0
C652 C 0.83274 0.64421 0.96533 0.0
H653 H 0.90498 0.65698 0.96717 0.0
C654 C 0.8289 0.64793 0.98541 0.0
C655 C 0.86014 0.64661 0.95872 0.0
C656 C 0.86577 0.64362 0.93722 0.0
C657 C 0.85229 0.65522 -0.00103 0.0
C658 C 0.88024 0.65926 0.99216 0.0
C659 C 0.88346 0.65383 0.9723 0.0
C660 C 0.90755 0.67254 0.00469 0.0
C661 C 0.84715 0.65924 0.02036 0.0
C662 C 0.91916 0.70197 0.01199 0.0
C663 C 0.94728 0.71658 0.02128 0.0
C664 C 0.96441 0.70207 0.02333 0.0
C665 C 0.95218 0.67213 0.01665 0.0
C666 C 0.92405 0.65755 0.00729 0.0
H667 H 0.82277 0.64595 0.02423 0.0
H668 H 0.86004 0.65231 0.03017 0.0
H669 H 0.85482 0.68342 0.02316 0.0
H670 H 0.9071 0.71419 0.00972 0.0
H671 H 0.956 0.73961 0.02627 0.0
H672 H 0.20223 0.98405 0.19293 0.0
H673 H 0.17212 0.93683 0.17493 0.0
H674 H 0.25222 0.93061 0.16442 0.0
H675 H 0.28249 0.97752 0.18263 0.0
H676 H 0.18118 0.92888 0.13572 0.0
H677 H 0.19115 0.84514 0.18257 0.0
H678 H 0.20019 0.88207 0.19145 0.0
H679 H 0.22671 0.87769 0.17637 0.0
C680 C 0.21341 0.97245 0.18703 0.0
C681 C 0.24479 0.98461 0.18917 0.0
C682 C 0.19616 0.94547 0.17677 0.0
C683 C 0.20991 0.93011 0.16858 0.0
C684 C 0.24108 0.94181 0.17101 0.0
H685 H 0.15358 0.78411 0.08469 0.0
H686 H 0.18136 0.82489 0.10849 0.0
C687 C 0.25837 0.96875 0.1813 0.0
C688 C 0.19214 0.90333 0.15602 0.0
H689 H 0.17057 0.82881 0.15042 0.0
C690 C 0.17862 0.90692 0.13902 0.0
C691 C 0.18912 0.87485 0.16033 0.0
C692 C 0.20233 0.86953 0.17876 0.0
C693 C 0.16251 0.88287 0.12598 0.0
C694 C 0.1595 0.85441 0.13027 0.0
C695 C 0.17299 0.85073 0.14725 0.0
C696 C 0.14235 0.82827 0.11715 0.0
C697 C 0.14939 0.88827 0.10751 0.0
C698 C 0.11118 0.81635 0.11459 0.0
C699 C 0.09532 0.79322 0.10103 0.0
C700 C 0.11038 0.78156 0.08987 0.0
C701 C 0.14143 0.79278 0.09301 0.0
C702 C 0.15729 0.81597 0.1066 0.0
H703 H 0.15952 0.91273 0.10419 0.0
H704 H 0.15294 0.87694 0.09466 0.0
H705 H 0.12468 0.87869 0.10947 0.0
H706 H 0.09924 0.82532 0.12286 0.0
H707 H 0.07137 0.78487 0.09906 0.0
H708 H 0.37534 0.13139 0.27646 0.0
H709 H 0.36833 0.15631 0.30526 0.0
H710 H 0.27616 0.12499 0.28719 0.0
H711 H 0.28248 0.09833 0.25956 0.0
H712 H 0.3598 0.1997 0.30848 0.0
H713 H 0.26005 0.10633 0.34298 0.0
H714 H 0.28028 0.09967 0.32367 0.0
H715 H 0.2502 0.10743 0.31785 0.0
C716 C 0.35349 0.1295 0.27896 0.0
C717 C 0.32935 0.1128 0.26601 0.0
C718 C 0.34946 0.14367 0.29538 0.0
C719 C 0.32142 0.14188 0.29881 0.0
C720 C 0.29756 0.12559 0.28553 0.0
H721 H 0.28796 0.27787 0.33565 0.0
H722 H 0.30845 0.24733 0.32271 0.0
C723 C 0.30129 0.11067 0.26955 0.0
C724 C 0.31759 0.15925 0.31499 0.0
H725 H 0.26396 0.15641 0.34615 0.0
C726 C 0.33918 0.18999 0.31711 0.0
C727 C 0.29145 0.14664 0.32702 0.0
C728 C 0.26948 0.1131 0.3279 0.0
C729 C 0.33391 0.2089 0.32944 0.0
C730 C 0.30556 0.19716 0.33897 0.0
C731 C 0.28534 0.16588 0.33838 0.0
C732 C 0.29511 0.21701 0.34779 0.0
C733 C 0.35874 0.2413 0.33182 0.0
C734 C 0.27946 0.20952 0.36583 0.0
C735 C 0.26639 0.22618 0.37276 0.0
C736 C 0.26947 0.25104 0.36202 0.0
C737 C 0.28574 0.25905 0.34432 0.0
C738 C 0.29784 0.24181 0.33706 0.0
H739 H 0.38126 0.24285 0.33175 0.0
H740 H 0.35825 0.25481 0.31916 0.0
H741 H 0.35641 0.25141 0.34572 0.0
H742 H 0.27682 0.19042 0.37436 0.0
H743 H 0.25393 0.21968 0.38649 0.0
H744 H 0.20738 0.38144 0.41355 0.0
H745 H 0.17113 0.37709 0.43878 0.0
H746 H 0.1646 0.29406 0.45932 0.0
H747 H 0.2011 0.29851 0.4345 0.0
H748 H 0.11349 0.33098 0.44023 0.0
H749 H 0.17008 0.33629 0.51078 0.0
H750 H 0.19042 0.34851 0.48777 0.0
H751 H 0.17052 0.30907 0.4943 0.0
C752 C 0.1986 0.36255 0.42368 0.0
C753 C 0.20694 0.34023 0.422 0.0
C754 C 0.17799 0.36015 0.4381 0.0
C755 C 0.16555 0.33551 0.45111 0.0
C756 C 0.17451 0.31368 0.44979 0.0
H757 H 0.00888 0.23319 0.51983 0.0
H758 H 0.05807 0.25663 0.50345 0.0
C759 C 0.19516 0.3161 0.43545 0.0
C760 C 0.14056 0.33048 0.46443 0.0
H761 H 0.1155 0.31215 0.51177 0.0
C762 C 0.11412 0.3275 0.45595 0.0
C763 C 0.14147 0.32588 0.4849 0.0
C764 C 0.16979 0.33041 0.495 0.0
C765 C 0.08798 0.31839 0.4672 0.0
C766 C 0.0885 0.31251 0.48749 0.0
C767 C 0.11525 0.31661 0.49617 0.0
C768 C 0.06077 0.29996 0.4995 0.0
C769 C 0.05954 0.31361 0.45709 0.0
C770 C 0.04656 0.31692 0.50314 0.0
C771 C 0.01842 0.3036 0.51242 0.0
C772 C 0.0041 0.2731 0.51825 0.0
C773 C 0.01918 0.25665 0.51542 0.0
C774 C 0.04732 0.27002 0.50613 0.0
H775 H 0.06159 0.31418 0.44079 0.0
H776 H 0.03989 0.2916 0.46147 0.0
H777 H 0.0548 0.33173 0.46161 0.0
H778 H 0.05686 0.3402 0.4983 0.0
H779 H 0.00756 0.317 0.51453 0.0
H780 H 0.81725 0.2049 0.57963 0.0
H781 H 0.78871 0.16629 0.60452 0.0
H782 H 0.86972 0.16501 0.62103 0.0
H783 H 0.8983 0.20323 0.59613 0.0
H784 H 0.82025 0.10833 0.6111 0.0
H785 H 0.7881 0.1689 0.66544 0.0
H786 H 0.77997 0.17234 0.64011 0.0
H787 H 0.81855 0.18844 0.64801 0.0
C788 C 0.82905 0.19669 0.58876 0.0
C789 C 0.85995 0.20692 0.58585 0.0
C790 C 0.81277 0.17482 0.60305 0.0
C791 C 0.82723 0.16308 0.61469 0.0
C792 C 0.85824 0.17394 0.61221 0.0
H793 H 0.77222 0.01318 0.69458 0.0
H794 H 0.80028 0.05968 0.6756 0.0
C795 C 0.87449 0.19572 0.59796 0.0
C796 C 0.80965 0.13744 0.62811 0.0
H797 H 0.76623 0.11589 0.66966 0.0
C798 C 0.80855 0.11001 0.62396 0.0
C799 C 0.79424 0.13974 0.64473 0.0
C800 C 0.79536 0.16898 0.65001 0.0
C801 C 0.7923 0.08464 0.63595 0.0
C802 C 0.77724 0.08701 0.65274 0.0
C803 C 0.778 0.11433 0.65682 0.0
C804 C 0.76052 0.06108 0.6661 0.0
C805 C 0.79094 0.05537 0.63034 0.0
C806 C 0.729 0.04731 0.66768 0.0
C807 C 0.71284 0.02078 0.6786 0.0
C808 C 0.72803 0.00767 0.68811 0.0
C809 C 0.75979 0.02246 0.68726 0.0
C810 C 0.77588 0.049 0.6764 0.0
H811 H 0.79731 0.05536 0.61469 0.0
H812 H 0.80698 0.05215 0.63967 0.0
H813 H 0.76791 0.03583 0.63275 0.0
H814 H 0.71682 0.05646 0.65987 0.0
H815 H 0.68842 0.01005 0.67904 0.0
H816 H 0.15014 0.28835 0.32575 0.0
H817 H 0.13134 0.2901 0.29294 0.0
H818 H 0.22268 0.34942 0.27326 0.0
H819 H 0.24161 0.34858 0.30618 0.0
H820 H 0.18523 0.36794 0.25994 0.0
H821 H 0.13531 0.24546 0.24526 0.0
H822 H 0.12046 0.25302 0.2671 0.0
H823 H 0.15984 0.2638 0.26598 0.0
C824 C 0.16624 0.30179 0.31445 0.0
C825 C 0.1974 0.31816 0.31856 0.0
C826 C 0.15546 0.30261 0.29566 0.0
C827 C 0.17566 0.31934 0.28052 0.0
C828 C 0.2067 0.33621 0.28469 0.0
H829 H 0.12892 0.29366 0.15628 0.0
H830 H 0.15087 0.29652 0.18875 0.0
C831 C 0.21748 0.33569 0.30352 0.0
C832 C 0.16448 0.31943 0.26035 0.0
H833 H 0.12305 0.27321 0.22254 0.0
C834 C 0.17174 0.34724 0.25172 0.0
C835 C 0.14734 0.29246 0.24949 0.0
C836 C 0.14053 0.26203 0.25734 0.0
C837 C 0.16195 0.34879 0.23264 0.0
C838 C 0.14368 0.3217 0.22214 0.0
C839 C 0.1368 0.29394 0.23067 0.0
C840 C 0.13156 0.3215 0.20222 0.0
C841 C 0.17184 0.37946 0.22382 0.0
C842 C 0.11337 0.33457 0.19898 0.0
C843 C 0.1011 0.3333 0.18036 0.0
C844 C 0.10629 0.31841 0.1647 0.0
C845 C 0.12444 0.30527 0.16801 0.0
C846 C 0.137 0.30687 0.18657 0.0
H847 H 0.19275 0.39734 0.23096 0.0
H848 H 0.17602 0.37968 0.20776 0.0
H849 H 0.15379 0.38527 0.22611 0.0
H850 H 0.10817 0.34525 0.21094 0.0
H851 H 0.08695 0.34338 0.17836 0.0
H852 H 0.84146 0.15865 0.48669 0.0
H853 H 0.82143 0.14299 0.45344 0.0
H854 H 0.85828 0.23628 0.43658 0.0
H855 H 0.87766 0.25217 0.47003 0.0
H856 H 0.8025 0.2008 0.42086 0.0
H857 H 0.87444 0.14964 0.40742 0.0
H858 H 0.85051 0.1338 0.42853 0.0
H859 H 0.87942 0.17303 0.42858 0.0
C860 C 0.84515 0.17586 0.47596 0.0
C861 C 0.86145 0.20668 0.48095 0.0
C862 C 0.83383 0.16687 0.45692 0.0
C863 C 0.83906 0.1885 0.4424 0.0
C864 C 0.85421 0.21923 0.44753 0.0
H865 H 0.82306 0.14112 0.31825 0.0
H866 H 0.84149 0.16562 0.35016 0.0
C867 C 0.86525 0.22825 0.46665 0.0
C868 C 0.82941 0.17905 0.42177 0.0
H869 H 0.83565 0.13857 0.38392 0.0
C870 C 0.80988 0.18735 0.41271 0.0
C871 C 0.83959 0.16209 0.411 0.0
C872 C 0.8624 0.15439 0.4193 0.0
C873 C 0.79957 0.17841 0.39333 0.0
C874 C 0.80846 0.16004 0.38297 0.0
C875 C 0.82859 0.15242 0.3919 0.0
C876 C 0.79697 0.14795 0.36298 0.0
C877 C 0.77965 0.18913 0.38412 0.0
C878 C 0.76579 0.13014 0.35945 0.0
C879 C 0.75517 0.11644 0.34111 0.0
C880 C 0.77558 0.11977 0.32608 0.0
C881 C 0.80676 0.13803 0.32954 0.0
C882 C 0.81733 0.15204 0.34778 0.0
H883 H 0.7832 0.21034 0.3911 0.0
H884 H 0.78396 0.19309 0.36807 0.0
H885 H 0.7556 0.17167 0.38629 0.0
H886 H 0.74964 0.12593 0.37108 0.0
H887 H 0.73102 0.10229 0.33899 0.0
H888 H 0.60605 0.86149 0.65181 0.0
H889 H 0.59852 0.83686 0.61976 0.0
H890 H 0.68052 0.83324 0.62793 0.0
H891 H 0.68789 0.85717 0.66008 0.0
H892 H 0.63504 0.85848 0.58825 0.0
H893 H 0.62314 0.74844 0.6093 0.0
H894 H 0.62047 0.77339 0.62701 0.0
H895 H 0.65688 0.77946 0.61933 0.0
C896 C 0.62226 0.85505 0.64693 0.0
C897 C 0.64757 0.86129 0.65855 0.0
C898 C 0.61791 0.84098 0.6286 0.0
C899 C 0.63871 0.8328 0.62157 0.0
C900 C 0.66375 0.83863 0.63325 0.0
H901 H 0.68924 0.81969 0.50378 0.0
H902 H 0.68187 0.83451 0.53653 0.0
C903 C 0.66804 0.85254 0.6516 0.0
C904 C 0.63564 0.82037 0.60142 0.0
H905 H 0.63628 0.76344 0.57547 0.0
C906 C 0.63488 0.83748 0.58547 0.0
C907 C 0.63493 0.79273 0.59778 0.0
C908 C 0.63357 0.7723 0.61428 0.0
C909 C 0.63485 0.8284 0.56596 0.0
C910 C 0.63631 0.80187 0.56233 0.0
C911 C 0.6356 0.78401 0.57827 0.0
C912 C 0.64002 0.79302 0.54219 0.0
C913 C 0.63339 0.84742 0.54945 0.0
C914 C 0.61931 0.76444 0.53464 0.0
C915 C 0.62362 0.75572 0.51594 0.0
C916 C 0.64882 0.77541 0.50448 0.0
C917 C 0.66946 0.80404 0.51211 0.0
C918 C 0.66519 0.81266 0.53081 0.0
H919 H 0.62266 0.86064 0.55437 0.0
H920 H 0.65669 0.86369 0.54451 0.0
H921 H 0.62053 0.83325 0.53667 0.0
H922 H 0.59984 0.74886 0.54325 0.0
H923 H 0.60731 0.73349 0.51054 0.0
H924 H 0.86167 0.61143 0.67114 0.0
H925 H 0.83814 0.60491 0.7035 0.0
H926 H 0.83455 0.68678 0.69487 0.0
H927 H 0.85729 0.69308 0.66239 0.0
H928 H 0.85982 0.64143 0.73483 0.0
H929 H 0.74992 0.63006 0.71373 0.0
H930 H 0.77479 0.62724 0.69603 0.0
H931 H 0.78101 0.66369 0.70368 0.0
C932 C 0.85553 0.62786 0.67602 0.0
C933 C 0.86129 0.65274 0.66413 0.0
C934 C 0.84209 0.62409 0.69453 0.0
C935 C 0.83413 0.64507 0.70148 0.0
C936 C 0.83973 0.66984 0.68961 0.0
H937 H 0.82065 0.69421 0.81995 0.0
H938 H 0.83597 0.68747 0.78719 0.0
C939 C 0.85296 0.67352 0.67107 0.0
C940 C 0.82182 0.64229 0.72163 0.0
H941 H 0.76495 0.64318 0.74752 0.0
C942 C 0.83887 0.64141 0.7376 0.0
C943 C 0.79423 0.64172 0.72525 0.0
C944 C 0.77378 0.64039 0.70874 0.0
C945 C 0.82973 0.64132 0.7571 0.0
C946 C 0.80324 0.6429 0.76071 0.0
C947 C 0.78549 0.64241 0.74475 0.0
C948 C 0.79414 0.64626 0.78086 0.0
C949 C 0.84858 0.63951 0.77361 0.0
C950 C 0.76522 0.62577 0.78802 0.0
C951 C 0.75619 0.62979 0.80669 0.0
C952 C 0.77596 0.65443 0.81853 0.0
C953 C 0.80495 0.67484 0.81131 0.0
C954 C 0.81385 0.67091 0.79262 0.0
H955 H 0.8616 0.62858 0.76866 0.0
H956 H 0.86507 0.66271 0.77861 0.0
H957 H 0.83431 0.62669 0.78636 0.0
H958 H 0.74958 0.6067 0.77913 0.0
H959 H 0.7337 0.61366 0.81178 0.0
H960 H 0.23998 0.8574 0.83939 0.0
H961 H 0.22348 0.83295 0.87155 0.0
H962 H 0.13633 0.82571 0.86294 0.0
H963 H 0.15229 0.84946 0.83072 0.0
H964 H 0.20725 0.85415 0.90274 0.0
H965 H 0.11205 0.74199 0.88244 0.0
H966 H 0.13921 0.76711 0.86461 0.0
H967 H 0.1079 0.77191 0.87187 0.0
C968 C 0.21713 0.85017 0.8442 0.0
C969 C 0.19746 0.85539 0.83244 0.0
C970 C 0.20776 0.83621 0.86259 0.0
C971 C 0.17853 0.82709 0.86953 0.0
C972 C 0.15871 0.83183 0.85769 0.0
H973 H 0.11191 0.81648 0.98563 0.0
H974 H 0.13521 0.83032 0.95317 0.0
C975 C 0.16799 0.84565 0.8393 0.0
C976 C 0.16947 0.81498 0.88976 0.0
H977 H 0.11265 0.7579 0.91599 0.0
C978 C 0.18682 0.83287 0.90563 0.0
C979 C 0.1431 0.78699 0.89356 0.0
C980 C 0.12469 0.76576 0.8772 0.0
C981 C 0.17764 0.82428 0.92517 0.0
C982 C 0.15007 0.79742 0.92891 0.0
C983 C 0.13357 0.77872 0.9131 0.0
C984 C 0.13705 0.78923 0.94899 0.0
C985 C 0.19747 0.84422 0.94161 0.0
C986 C 0.12968 0.7612 0.95727 0.0
C987 C 0.11603 0.75303 0.97583 0.0
C988 C 0.10936 0.77273 0.98638 0.0
C989 C 0.1169 0.80083 0.97802 0.0
C990 C 0.13044 0.8089 0.95948 0.0
H991 H 0.22145 0.85769 0.93686 0.0
H992 H 0.1898 0.86029 0.94591 0.0
H993 H 0.19626 0.83072 0.95475 0.0
H994 H 0.13439 0.74559 0.94933 0.0
H995 H 0.11047 0.73119 0.9818 0.0
H996 H 0.35675 0.11235 0.14817 0.0
H997 H 0.3614 0.13574 0.11604 0.0
H998 H 0.31484 0.18067 0.13828 0.0
H999 H 0.30913 0.15647 0.17026 0.0
H1000 H 0.28998 0.15234 0.10547 0.0
H1001 H 0.4136 0.21843 0.09377 0.0
H1002 H 0.40126 0.17964 0.09924 0.0
H1003 H 0.39719 0.20299 0.11748 0.0
C1004 C 0.34803 0.12768 0.14634 0.0
C1005 C 0.33245 0.13246 0.16174 0.0
C1006 C 0.35088 0.14122 0.12797 0.0
C1007 C 0.33881 0.16029 0.12477 0.0
C1008 C 0.32438 0.16608 0.1404 0.0
H1009 H 0.35795 0.25829 0.0153 0.0
H1010 H 0.36311 0.24457 0.04904 0.0
C1011 C 0.32114 0.15223 0.15868 0.0
C1012 C 0.33839 0.17164 0.10471 0.0
H1013 H 0.38257 0.20822 0.06494 0.0
C1014 C 0.31031 0.16485 0.09671 0.0
C1015 C 0.3649 0.18824 0.09332 0.0
C1016 C 0.39596 0.19803 0.10148 0.0
C1017 C 0.30788 0.17353 0.07753 0.0
C1018 C 0.33415 0.18861 0.06574 0.0
C1019 C 0.36238 0.1962 0.07388 0.0
C1020 C 0.33263 0.19667 0.04496 0.0
C1021 C 0.27717 0.16675 0.07019 0.0
C1022 C 0.31449 0.1742 0.03133 0.0
C1023 C 0.31123 0.18197 0.01214 0.0
C1024 C 0.3265 0.21236 0.00609 0.0
C1025 C 0.34582 0.23469 0.01951 0.0
C1026 C 0.34881 0.2269 0.03879 0.0
H1027 H 0.26167 0.16371 0.08258 0.0
H1028 H 0.27892 0.18511 0.06053 0.0
H1029 H 0.26684 0.14543 0.0616 0.0
H1030 H 0.30247 0.15064 0.03563 0.0
H1031 H 0.2965 0.16418 0.0021 0.0
loop_
_geom_bond_atom_site_label_1
_geom_bond_atom_site_label_2
_geom_bond_distance
_geom_bond_site_symmetry_2
_ccdc_geom_bond_type
C0 O1 1.306 . S
C0 O3 1.160 . S
O1 C0 1.306 . S
O1 Cd2 2.228 . S
Cd2 O1 2.228 . S
Cd2 O6 2.273 . S
Cd2 O10 2.277 . S
O3 C0 1.160 . S
O3 Cd4 2.203 . S
Cd4 O3 2.203 . S
Cd4 O6 2.411 . S
Cd4 O7 2.333 . S
Cd4 O8 2.352 . S
Cd4 O12 2.277 . S
Cd4 O13 2.356 . S
C5 O10 1.209 . S
C5 O12 1.226 . S
O6 Cd2 2.273 . S
O6 Cd4 2.411 . S
O6 C9 1.320 . S
O7 Cd4 2.333 . S
O7 C9 1.214 . S
O8 Cd4 2.352 . S
O8 C11 1.258 . S
C9 O6 1.320 . S
C9 O7 1.214 . S
O10 Cd2 2.277 . S
O10 C5 1.209 . S
C11 O8 1.258 . S
C11 O13 1.282 . S
O12 Cd4 2.277 . S
O12 C5 1.226 . S
O13 Cd4 2.356 . S
O13 C11 1.282 . S
C14 O15 1.306 . S
C14 O17 1.160 . S
O15 C14 1.306 . S
O15 Cd16 2.228 . S
Cd16 O15 2.228 . S
Cd16 O20 2.273 . S
Cd16 O24 2.277 . S
O17 C14 1.160 . S
O17 Cd18 2.203 . S
Cd18 O17 2.203 . S
Cd18 O20 2.411 . S
Cd18 O21 2.333 . S
Cd18 O22 2.352 . S
Cd18 O26 2.277 . S
Cd18 O27 2.356 . S
C19 O24 1.209 . S
C19 O26 1.226 . S
O20 Cd16 2.273 . S
O20 Cd18 2.411 . S
O20 C23 1.320 . S
O21 Cd18 2.333 . S
O21 C23 1.214 . S
O22 Cd18 2.352 . S
O22 C25 1.258 . S
C23 O20 1.320 . S
C23 O21 1.214 . S
O24 Cd16 2.277 . S
O24 C19 1.209 . S
C25 O22 1.258 . S
C25 O27 1.282 . S
O26 Cd18 2.277 . S
O26 C19 1.226 . S
O27 Cd18 2.356 . S
O27 C25 1.282 . S
C28 O29 1.306 . S
C28 O31 1.160 . S
O29 C28 1.306 . S
O29 Cd30 2.228 . S
Cd30 O29 2.228 . S
Cd30 O34 2.273 . S
Cd30 O38 2.277 . S
O31 C28 1.160 . S
O31 Cd32 2.203 . S
Cd32 O31 2.203 . S
Cd32 O34 2.411 . S
Cd32 O35 2.333 . S
Cd32 O36 2.352 . S
Cd32 O40 2.277 . S
Cd32 O41 2.356 . S
C33 O38 1.209 . S
C33 O40 1.226 . S
O34 Cd30 2.273 . S
O34 Cd32 2.411 . S
O34 C37 1.320 . S
O35 Cd32 2.333 . S
O35 C37 1.214 . S
O36 Cd32 2.352 . S
O36 C39 1.258 . S
C37 O34 1.320 . S
C37 O35 1.214 . S
O38 Cd30 2.277 . S
O38 C33 1.209 . S
C39 O36 1.258 . S
C39 O41 1.282 . S
O40 Cd32 2.277 . S
O40 C33 1.226 . S
O41 Cd32 2.356 . S
O41 C39 1.282 . S
C42 O43 1.306 . S
C42 O45 1.160 . S
O43 C42 1.306 . S
O43 Cd44 2.228 . S
Cd44 O43 2.228 . S
Cd44 O48 2.273 . S
Cd44 O52 2.277 . S
O45 C42 1.160 . S
O45 Cd46 2.203 . S
Cd46 O45 2.203 . S
Cd46 O48 2.411 . S
Cd46 O49 2.333 . S
Cd46 O50 2.352 . S
Cd46 O54 2.277 . S
Cd46 O55 2.356 . S
C47 O52 1.209 . S
C47 O54 1.226 . S
O48 Cd44 2.273 . S
O48 Cd46 2.411 . S
O48 C51 1.320 . S
O49 Cd46 2.333 . S
O49 C51 1.214 . S
O50 Cd46 2.352 . S
O50 C53 1.258 . S
C51 O48 1.320 . S
C51 O49 1.214 . S
O52 Cd44 2.277 . S
O52 C47 1.209 . S
C53 O50 1.258 . S
C53 O55 1.282 . S
O54 Cd46 2.277 . S
O54 C47 1.226 . S
O55 Cd46 2.356 . S
O55 C53 1.282 . S
C56 O57 1.306 . S
C56 O59 1.160 . S
O57 C56 1.306 . S
O57 Cd58 2.228 . S
Cd58 O57 2.228 . S
Cd58 O62 2.273 . S
Cd58 O66 2.277 . S
O59 C56 1.160 . S
O59 Cd60 2.203 . S
Cd60 O59 2.203 . S
Cd60 O62 2.411 . S
Cd60 O63 2.333 . S
Cd60 O64 2.352 . S
Cd60 O68 2.277 . S
Cd60 O69 2.356 . S
C61 O66 1.209 . S
C61 O68 1.226 . S
O62 Cd58 2.273 . S
O62 Cd60 2.411 . S
O62 C65 1.320 . S
O63 Cd60 2.333 . S
O63 C65 1.214 . S
O64 Cd60 2.352 . S
O64 C67 1.258 . S
C65 O62 1.320 . S
C65 O63 1.214 . S
O66 Cd58 2.277 . S
O66 C61 1.209 . S
C67 O64 1.258 . S
C67 O69 1.282 . S
O68 Cd60 2.277 . S
O68 C61 1.226 . S
O69 Cd60 2.356 . S
O69 C67 1.282 . S
C70 O71 1.306 . S
C70 O73 1.160 . S
O71 C70 1.306 . S
O71 Cd72 2.228 . S
Cd72 O71 2.228 . S
Cd72 O76 2.273 . S
Cd72 O80 2.277 . S
O73 C70 1.160 . S
O73 Cd74 2.203 . S
Cd74 O73 2.203 . S
Cd74 O76 2.411 . S
Cd74 O77 2.333 . S
Cd74 O78 2.352 . S
Cd74 O82 2.277 . S
Cd74 O83 2.356 . S
C75 O80 1.219 . S
C75 O82 1.230 . S
O76 Cd72 2.273 . S
O76 Cd74 2.411 . S
O76 C79 1.320 . S
O77 Cd74 2.333 . S
O77 C79 1.214 . S
O78 Cd74 2.352 . S
O78 C81 1.258 . S
C79 O76 1.320 . S
C79 O77 1.214 . S
O80 Cd72 2.277 . S
O80 C75 1.219 . S
C81 O78 1.258 . S
C81 O83 1.282 . S
O82 Cd74 2.277 . S
O82 C75 1.230 . S
O83 Cd74 2.356 . S
O83 C81 1.282 . S
C84 O85 1.306 . S
C84 O87 1.160 . S
O85 C84 1.306 . S
O85 Cd86 2.228 . S
Cd86 O85 2.228 . S
Cd86 O90 2.273 . S
Cd86 O94 2.277 . S
O87 C84 1.160 . S
O87 Cd88 2.203 . S
Cd88 O87 2.203 . S
Cd88 O90 2.411 . S
Cd88 O91 2.333 . S
Cd88 O92 2.352 . S
Cd88 O96 2.277 . S
Cd88 O97 2.356 . S
C89 O94 1.209 . S
C89 O96 1.226 . S
O90 Cd86 2.273 . S
O90 Cd88 2.411 . S
O90 C93 1.320 . S
O91 Cd88 2.333 . S
O91 C93 1.214 . S
O92 Cd88 2.352 . S
O92 C95 1.258 . S
C93 O90 1.320 . S
C93 O91 1.214 . S
O94 Cd86 2.277 . S
O94 C89 1.209 . S
C95 O92 1.258 . S
C95 O97 1.282 . S
O96 Cd88 2.277 . S
O96 C89 1.226 . S
O97 Cd88 2.356 . S
O97 C95 1.282 . S
C98 O99 1.306 . S
C98 O101 1.160 . S
O99 C98 1.306 . S
O99 Cd100 2.228 . S
Cd100 O99 2.228 . S
Cd100 O104 2.273 . S
Cd100 O108 2.277 . S
O101 C98 1.160 . S
O101 Cd102 2.203 . S
Cd102 O101 2.203 . S
Cd102 O104 2.411 . S
Cd102 O105 2.333 . S
Cd102 O106 2.352 . S
Cd102 O110 2.277 . S
Cd102 O111 2.356 . S
C103 O108 1.209 . S
C103 O110 1.226 . S
O104 Cd100 2.273 . S
O104 Cd102 2.411 . S
O104 C107 1.320 . S
O105 Cd102 2.333 . S
O105 C107 1.214 . S
O106 Cd102 2.352 . S
O106 C109 1.258 . S
C107 O104 1.320 . S
C107 O105 1.214 . S
O108 Cd100 2.277 . S
O108 C103 1.209 . S
C109 O106 1.258 . S
C109 O111 1.282 . S
O110 Cd102 2.277 . S
O110 C103 1.226 . S
O111 Cd102 2.356 . S
O111 C109 1.282 . S
C112 O113 1.306 . S
C112 O115 1.160 . S
O113 C112 1.306 . S
O113 Cd114 2.228 . S
Cd114 O113 2.228 . S
Cd114 O118 2.273 . S
Cd114 O122 2.277 . S
O115 C112 1.160 . S
O115 Cd116 2.203 . S
Cd116 O115 2.203 . S
Cd116 O118 2.411 . S
Cd116 O119 2.333 . S
Cd116 O120 2.352 . S
Cd116 O124 2.277 . S
Cd116 O125 2.356 . S
C117 O122 1.219 . S
C117 O124 1.230 . S
O118 Cd114 2.273 . S
O118 Cd116 2.411 . S
O118 C121 1.320 . S
O119 Cd116 2.333 . S
O119 C121 1.214 . S
O120 Cd116 2.352 . S
O120 C123 1.258 . S
C121 O118 1.320 . S
C121 O119 1.214 . S
O122 Cd114 2.277 . S
O122 C117 1.219 . S
C123 O120 1.258 . S
C123 O125 1.282 . S
O124 Cd116 2.277 . S
O124 C117 1.230 . S
O125 Cd116 2.356 . S
O125 C123 1.282 . S
C126 O127 1.306 . S
C126 O129 1.160 . S
O127 C126 1.306 . S
O127 Cd128 2.228 . S
Cd128 O127 2.228 . S
Cd128 O132 2.273 . S
Cd128 O136 2.277 . S
O129 C126 1.160 . S
O129 Cd130 2.203 . S
Cd130 O129 2.203 . S
Cd130 O132 2.411 . S
Cd130 O133 2.333 . S
Cd130 O134 2.352 . S
Cd130 O138 2.277 . S
Cd130 O139 2.356 . S
C131 O136 1.209 . S
C131 O138 1.226 . S
O132 Cd128 2.273 . S
O132 Cd130 2.411 . S
O132 C135 1.320 . S
O133 Cd130 2.333 . S
O133 C135 1.214 . S
O134 Cd130 2.352 . S
O134 C137 1.258 . S
C135 O132 1.320 . S
C135 O133 1.214 . S
O136 Cd128 2.277 . S
O136 C131 1.209 . S
C137 O134 1.258 . S
C137 O139 1.282 . S
O138 Cd130 2.277 . S
O138 C131 1.226 . S
O139 Cd130 2.356 . S
O139 C137 1.282 . S
C140 O141 1.306 . S
C140 O143 1.160 . S
O141 C140 1.306 . S
O141 Cd142 2.228 . S
Cd142 O141 2.228 . S
Cd142 O146 2.273 . S
Cd142 O150 2.277 . S
O143 C140 1.160 . S
O143 Cd144 2.203 . S
Cd144 O143 2.203 . S
Cd144 O146 2.411 . S
Cd144 O147 2.333 . S
Cd144 O148 2.352 . S
Cd144 O152 2.277 . S
Cd144 O153 2.356 . S
C145 O150 1.209 . S
C145 O152 1.226 . S
O146 Cd142 2.273 . S
O146 Cd144 2.411 . S
O146 C149 1.320 . S
O147 Cd144 2.333 . S
O147 C149 1.214 . S
O148 Cd144 2.352 . S
O148 C151 1.258 . S
C149 O146 1.320 . S
C149 O147 1.214 . S
O150 Cd142 2.277 . S
O150 C145 1.209 . S
C151 O148 1.258 . S
C151 O153 1.282 . S
O152 Cd144 2.277 . S
O152 C145 1.226 . S
O153 Cd144 2.356 . S
O153 C151 1.282 . S
C154 O155 1.306 . S
C154 O157 1.160 . S
O155 C154 1.306 . S
O155 Cd156 2.228 . S
Cd156 O155 2.228 . S
Cd156 O160 2.273 . S
Cd156 O164 2.277 . S
O157 C154 1.160 . S
O157 Cd158 2.203 . S
Cd158 O157 2.203 . S
Cd158 O160 2.411 . S
Cd158 O161 2.333 . S
Cd158 O162 2.352 . S
Cd158 O166 2.277 . S
Cd158 O167 2.356 . S
C159 O164 1.209 . S
C159 O166 1.226 . S
O160 Cd156 2.273 . S
O160 Cd158 2.411 . S
O160 C163 1.320 . S
O161 Cd158 2.333 . S
O161 C163 1.214 . S
O162 Cd158 2.352 . S
O162 C165 1.258 . S
C163 O160 1.320 . S
C163 O161 1.214 . S
O164 Cd156 2.277 . S
O164 C159 1.209 . S
C165 O162 1.258 . S
C165 O167 1.282 . S
O166 Cd158 2.277 . S
O166 C159 1.226 . S
O167 Cd158 2.356 . S
O167 C165 1.282 . S
H168 C176 0.929 . S
H169 C178 0.930 . S
H170 C180 0.930 . S
H171 C183 0.929 . S
H172 C186 0.930 1_655 S
H173 C188 0.960 . S
H174 C188 0.960 . S
H175 C188 0.960 . S
C176 H168 0.929 . S
C176 C177 1.377 . S
C176 C178 1.384 . S
C177 C176 1.377 . S
C177 C183 1.390 . S
C178 H169 0.930 . S
C178 C176 1.384 . S
C178 C179 1.372 . S
C179 C178 1.372 . S
C179 C180 1.400 . S
C179 C184 1.490 . S
C180 H170 0.930 . S
C180 C179 1.400 . S
C180 C183 1.386 . S
H181 C197 0.930 . S
H182 C198 0.931 . S
C183 H171 0.929 . S
C183 C177 1.390 . S
C183 C180 1.386 . S
C184 C179 1.490 . S
C184 C186 1.395 . S
C184 C187 1.403 . S
H185 C191 0.930 . S
C186 H172 0.930 1_455 S
C186 C184 1.395 . S
C186 C189 1.403 . S
C187 C184 1.403 . S
C187 C188 1.524 . S
C187 C191 1.400 . S
C188 H173 0.960 . S
C188 H174 0.960 . S
C188 H175 0.960 . S
C188 C187 1.524 . S
C189 C186 1.403 . S
C189 C190 1.392 . S
C189 C193 1.495 1_455 S
C190 C189 1.392 . S
C190 C191 1.385 . S
C190 C192 1.478 . S
C191 H185 0.930 . S
C191 C187 1.400 . S
C191 C190 1.385 . S
C192 C190 1.478 . S
C192 C194 1.381 . S
C192 C198 1.383 . S
C193 C189 1.495 1_655 S
C193 H199 0.959 . S
C193 H200 0.961 . S
C193 H201 0.960 . S
C194 C192 1.381 . S
C194 C195 1.394 . S
C194 H202 0.930 . S
C195 C194 1.394 . S
C195 C196 1.383 . S
C195 H203 0.929 . S
C196 C195 1.383 . S
C196 C197 1.377 . S
C197 H181 0.930 . S
C197 C196 1.377 . S
C197 C198 1.379 . S
C198 H182 0.931 . S
C198 C192 1.383 . S
C198 C197 1.379 . S
H199 C193 0.959 . S
H200 C193 0.961 . S
H201 C193 0.960 . S
H202 C194 0.930 . S
H203 C195 0.929 . S
H204 C212 0.929 . S
H205 C214 0.930 . S
H206 C216 0.930 . S
H207 C219 0.929 . S
H208 C222 0.930 . S
H209 C224 0.960 . S
H210 C224 0.960 . S
H211 C224 0.960 . S
C212 H204 0.929 . S
C212 C213 1.377 . S
C212 C214 1.384 . S
C213 C212 1.377 . S
C213 C219 1.390 . S
C214 H205 0.930 . S
C214 C212 1.384 . S
C214 C215 1.372 . S
C215 C214 1.372 . S
C215 C216 1.400 . S
C215 C220 1.490 . S
C216 H206 0.930 . S
C216 C215 1.400 . S
C216 C219 1.386 . S
H217 C233 0.930 . S
H218 C234 0.931 . S
C219 H207 0.929 . S
C219 C213 1.390 . S
C219 C216 1.386 . S
C220 C215 1.490 . S
C220 C222 1.395 . S
C220 C223 1.403 . S
H221 C227 0.930 . S
C222 H208 0.930 . S
C222 C220 1.395 . S
C222 C225 1.403 . S
C223 C220 1.403 . S
C223 C224 1.524 . S
C223 C227 1.400 . S
C224 H209 0.960 . S
C224 H210 0.960 . S
C224 H211 0.960 . S
C224 C223 1.524 . S
C225 C222 1.403 . S
C225 C226 1.392 . S
C225 C229 1.495 . S
C226 C225 1.392 . S
C226 C227 1.385 . S
C226 C228 1.478 . S
C227 H221 0.930 . S
C227 C223 1.400 . S
C227 C226 1.385 . S
C228 C226 1.478 . S
C228 C230 1.381 . S
C228 C234 1.383 . S
C229 C225 1.495 . S
C229 H235 0.959 . S
C229 H236 0.961 . S
C229 H237 0.960 . S
C230 C228 1.381 . S
C230 C231 1.394 . S
C230 H238 0.930 . S
C231 C230 1.394 . S
C231 C232 1.383 . S
C231 H239 0.929 . S
C232 C231 1.383 . S
C232 C233 1.377 . S
C233 H217 0.930 . S
C233 C232 1.377 . S
C233 C234 1.379 . S
C234 H218 0.931 . S
C234 C228 1.383 . S
C234 C233 1.379 . S
H235 C229 0.959 . S
H236 C229 0.961 . S
H237 C229 0.960 . S
H238 C230 0.930 . S
H239 C231 0.929 . S
H240 C248 0.929 . S
H241 C250 0.930 . S
H242 C252 0.930 . S
H243 C255 0.929 . S
H244 C258 0.930 . S
H245 C260 0.960 . S
H246 C260 0.960 . S
H247 C260 0.960 . S
C248 H240 0.929 . S
C248 C249 1.377 . S
C248 C250 1.384 . S
C249 C248 1.377 . S
C249 C255 1.390 . S
C250 H241 0.930 . S
C250 C248 1.384 . S
C250 C251 1.372 . S
C251 C250 1.372 . S
C251 C252 1.400 . S
C251 C256 1.490 . S
C252 H242 0.930 . S
C252 C251 1.400 . S
C252 C255 1.386 . S
H253 C269 0.930 . S
H254 C270 0.931 . S
C255 H243 0.929 . S
C255 C249 1.390 . S
C255 C252 1.386 . S
C256 C251 1.490 . S
C256 C258 1.395 . S
C256 C259 1.403 . S
H257 C263 0.930 . S
C258 H244 0.930 . S
C258 C256 1.395 . S
C258 C261 1.403 . S
C259 C256 1.403 . S
C259 C260 1.524 . S
C259 C263 1.400 . S
C260 H245 0.960 . S
C260 H246 0.960 . S
C260 H247 0.960 . S
C260 C259 1.524 . S
C261 C258 1.403 . S
C261 C262 1.392 . S
C261 C265 1.495 . S
C262 C261 1.392 . S
C262 C263 1.385 . S
C262 C264 1.478 . S
C263 H257 0.930 . S
C263 C259 1.400 . S
C263 C262 1.385 . S
C264 C262 1.478 . S
C264 C266 1.381 . S
C264 C270 1.383 . S
C265 C261 1.495 . S
C265 H271 0.959 . S
C265 H272 0.961 . S
C265 H273 0.960 . S
C266 C264 1.381 . S
C266 C267 1.394 . S
C266 H274 0.930 . S
C267 C266 1.394 . S
C267 C268 1.383 . S
C267 H275 0.929 . S
C268 C267 1.383 . S
C268 C269 1.377 . S
C269 H253 0.930 . S
C269 C268 1.377 . S
C269 C270 1.379 . S
C270 H254 0.931 . S
C270 C264 1.383 . S
C270 C269 1.379 . S
H271 C265 0.959 . S
H272 C265 0.961 . S
H273 C265 0.960 . S
H274 C266 0.930 . S
H275 C267 0.929 . S
H276 C284 0.929 . S
H277 C286 0.930 . S
H278 C288 0.930 . S
H279 C291 0.929 . S
H280 C294 0.930 . S
H281 C296 0.960 . S
H282 C296 0.960 1_655 S
H283 C296 0.960 . S
C284 H276 0.929 . S
C284 C285 1.377 . S
C284 C286 1.384 . S
C285 C284 1.377 . S
C285 C291 1.390 . S
C286 H277 0.930 . S
C286 C284 1.384 . S
C286 C287 1.372 . S
C287 C286 1.372 . S
C287 C288 1.400 . S
C287 C292 1.490 . S
C288 H278 0.930 . S
C288 C287 1.400 . S
C288 C291 1.386 . S
H289 C305 0.930 . S
H290 C306 0.931 . S
C291 H279 0.929 . S
C291 C285 1.390 . S
C291 C288 1.386 . S
C292 C287 1.490 . S
C292 C294 1.395 . S
C292 C295 1.403 . S
H293 C299 0.930 . S
C294 H280 0.930 . S
C294 C292 1.395 . S
C294 C297 1.403 . S
C295 C292 1.403 . S
C295 C296 1.524 1_655 S
C295 C299 1.400 . S
C296 H281 0.960 . S
C296 H282 0.960 1_455 S
C296 H283 0.960 . S
C296 C295 1.524 1_455 S
C297 C294 1.403 . S
C297 C298 1.392 . S
C297 C301 1.495 . S
C298 C297 1.392 . S
C298 C299 1.385 . S
C298 C300 1.478 . S
C299 H293 0.930 . S
C299 C295 1.400 . S
C299 C298 1.385 . S
C300 C298 1.478 . S
C300 C302 1.381 . S
C300 C306 1.383 . S
C301 C297 1.495 . S
C301 H307 0.959 . S
C301 H308 0.961 . S
C301 H309 0.960 . S
C302 C300 1.381 . S
C302 C303 1.394 . S
C302 H310 0.930 . S
C303 C302 1.394 . S
C303 C304 1.383 . S
C303 H311 0.929 . S
C304 C303 1.383 . S
C304 C305 1.377 . S
C305 H289 0.930 . S
C305 C304 1.377 . S
C305 C306 1.379 . S
C306 H290 0.931 . S
C306 C300 1.383 . S
C306 C305 1.379 . S
H307 C301 0.959 . S
H308 C301 0.961 . S
H309 C301 0.960 . S
H310 C302 0.930 . S
H311 C303 0.929 . S
H312 C320 0.929 . S
H313 C322 0.930 . S
H314 C324 0.930 . S
H315 C327 0.929 . S
H316 C330 0.930 . S
H317 C332 0.960 . S
H318 C332 0.960 . S
H319 C332 0.960 . S
C320 H312 0.929 . S
C320 C321 1.377 . S
C320 C322 1.384 . S
C321 C320 1.377 . S
C321 C327 1.390 . S
C322 H313 0.930 . S
C322 C320 1.384 . S
C322 C323 1.372 . S
C323 C322 1.372 . S
C323 C324 1.400 . S
C323 C328 1.490 . S
C324 H314 0.930 . S
C324 C323 1.400 . S
C324 C327 1.386 . S
H325 C341 0.930 . S
H326 C342 0.931 . S
C327 H315 0.929 . S
C327 C321 1.390 . S
C327 C324 1.386 . S
C328 C323 1.490 . S
C328 C330 1.395 . S
C328 C331 1.403 . S
H329 C335 0.930 . S
C330 H316 0.930 . S
C330 C328 1.395 . S
C330 C333 1.403 . S
C331 C328 1.403 . S
C331 C332 1.524 . S
C331 C335 1.400 . S
C332 H317 0.960 . S
C332 H318 0.960 . S
C332 H319 0.960 . S
C332 C331 1.524 . S
C333 C330 1.403 . S
C333 C334 1.392 . S
C333 C337 1.495 . S
C334 C333 1.392 . S
C334 C335 1.385 . S
C334 C336 1.478 . S
C335 H329 0.930 . S
C335 C331 1.400 . S
C335 C334 1.385 . S
C336 C334 1.478 . S
C336 C338 1.381 . S
C336 C342 1.383 . S
C337 C333 1.495 . S
C337 H343 0.959 . S
C337 H344 0.961 . S
C337 H345 0.960 . S
C338 C336 1.381 . S
C338 C339 1.394 . S
C338 H346 0.930 . S
C339 C338 1.394 . S
C339 C340 1.383 . S
C339 H347 0.929 . S
C340 C339 1.383 . S
C340 C341 1.377 . S
C341 H325 0.930 . S
C341 C340 1.377 . S
C341 C342 1.379 . S
C342 H326 0.931 . S
C342 C336 1.383 . S
C342 C341 1.379 . S
H343 C337 0.959 . S
H344 C337 0.961 . S
H345 C337 0.960 . S
H346 C338 0.930 . S
H347 C339 0.929 . S
H348 C356 0.929 . S
H349 C358 0.930 . S
H350 C360 0.930 . S
H351 C363 0.929 . S
H352 C366 0.930 . S
H353 C368 0.960 . S
H354 C368 0.960 . S
H355 C368 0.960 . S
C356 H348 0.929 . S
C356 C357 1.377 . S
C356 C358 1.384 . S
C357 C356 1.377 . S
C357 C363 1.390 . S
C358 H349 0.930 . S
C358 C356 1.384 . S
C358 C359 1.372 . S
C359 C358 1.372 . S
C359 C360 1.400 . S
C359 C364 1.490 . S
C360 H350 0.930 . S
C360 C359 1.400 . S
C360 C363 1.386 . S
H361 C377 0.930 . S
H362 C378 0.931 . S
C363 H351 0.929 . S
C363 C357 1.390 . S
C363 C360 1.386 . S
C364 C359 1.490 . S
C364 C366 1.395 . S
C364 C367 1.403 . S
H365 C371 0.930 . S
C366 H352 0.930 . S
C366 C364 1.395 . S
C366 C369 1.403 . S
C367 C364 1.403 . S
C367 C368 1.524 . S
C367 C371 1.400 . S
C368 H353 0.960 . S
C368 H354 0.960 . S
C368 H355 0.960 . S
C368 C367 1.524 . S
C369 C366 1.403 . S
C369 C370 1.392 . S
C369 C373 1.495 . S
C370 C369 1.392 . S
C370 C371 1.385 . S
C370 C372 1.478 . S
C371 H365 0.930 . S
C371 C367 1.400 . S
C371 C370 1.385 . S
C372 C370 1.478 . S
C372 C374 1.381 . S
C372 C378 1.383 . S
C373 C369 1.495 . S
C373 H379 0.959 . S
C373 H380 0.961 . S
C373 H381 0.960 . S
C374 C372 1.381 . S
C374 C375 1.394 . S
C374 H382 0.930 . S
C375 C374 1.394 . S
C375 C376 1.383 . S
C375 H383 0.929 . S
C376 C375 1.383 . S
C376 C377 1.377 . S
C377 H361 0.930 . S
C377 C376 1.377 . S
C377 C378 1.379 . S
C378 H362 0.931 . S
C378 C372 1.383 . S
C378 C377 1.379 . S
H379 C373 0.959 . S
H380 C373 0.961 . S
H381 C373 0.960 . S
H382 C374 0.930 . S
H383 C375 0.929 . S
H384 C392 0.929 . S
H385 C394 0.930 . S
H386 C396 0.930 . S
H387 C399 0.929 . S
H388 C402 0.930 . S
H389 C404 0.960 . S
H390 C404 0.960 . S
H391 C404 0.960 . S
C392 H384 0.929 . S
C392 C393 1.377 . S
C392 C394 1.384 . S
C393 C392 1.377 . S
C393 C399 1.390 . S
C394 H385 0.930 . S
C394 C392 1.384 . S
C394 C395 1.372 . S
C395 C394 1.372 . S
C395 C396 1.400 . S
C395 C400 1.490 . S
C396 H386 0.930 . S
C396 C395 1.400 . S
C396 C399 1.386 . S
H397 C413 0.936 . S
H398 C414 0.931 . S
C399 H387 0.929 . S
C399 C393 1.390 . S
C399 C396 1.386 . S
C400 C395 1.490 . S
C400 C402 1.395 . S
C400 C403 1.403 . S
H401 C407 0.930 . S
C402 H388 0.930 . S
C402 C400 1.395 . S
C402 C405 1.403 . S
C403 C400 1.403 . S
C403 C404 1.524 . S
C403 C407 1.400 . S
C404 H389 0.960 . S
C404 H390 0.960 . S
C404 H391 0.960 . S
C404 C403 1.524 . S
C405 C402 1.403 . S
C405 C406 1.392 . S
C405 C409 1.495 . S
C406 C405 1.392 . S
C406 C407 1.385 . S
C406 C408 1.478 . S
C407 H401 0.930 . S
C407 C403 1.400 . S
C407 C406 1.385 . S
C408 C406 1.478 . S
C408 C410 1.381 . S
C408 C414 1.383 . S
C409 C405 1.495 . S
C409 H415 0.959 . S
C409 H416 0.961 . S
C409 H417 0.960 . S
C410 C408 1.381 . S
C410 C411 1.394 . S
C410 H418 0.930 . S
C411 C410 1.394 . S
C411 C412 1.383 1_554 S
C411 H419 0.929 1_554 S
C412 C411 1.383 1_556 S
C412 C413 1.382 . S
C413 H397 0.936 . S
C413 C412 1.382 . S
C413 C414 1.369 1_556 S
C414 H398 0.931 . S
C414 C408 1.383 . S
C414 C413 1.369 1_554 S
H415 C409 0.959 . S
H416 C409 0.961 . S
H417 C409 0.960 . S
H418 C410 0.930 . S
H419 C411 0.929 1_556 S
H420 C428 0.929 . S
H421 C430 0.930 . S
H422 C432 0.930 . S
H423 C435 0.929 . S
H424 C438 0.930 . S
H425 C440 0.960 . S
H426 C440 0.960 . S
H427 C440 0.960 . S
C428 H420 0.929 . S
C428 C429 1.377 . S
C428 C430 1.384 . S
C429 C428 1.377 . S
C429 C435 1.390 . S
C430 H421 0.930 . S
C430 C428 1.384 . S
C430 C431 1.372 . S
C431 C430 1.372 . S
C431 C432 1.400 . S
C431 C436 1.490 . S
C432 H422 0.930 . S
C432 C431 1.400 . S
C432 C435 1.386 . S
H433 C449 0.930 . S
H434 C450 0.931 . S
C435 H423 0.929 . S
C435 C429 1.390 . S
C435 C432 1.386 . S
C436 C431 1.490 . S
C436 C438 1.395 . S
C436 C439 1.403 . S
H437 C443 0.930 . S
C438 H424 0.930 . S
C438 C436 1.395 . S
C438 C441 1.403 . S
C439 C436 1.403 . S
C439 C440 1.524 . S
C439 C443 1.400 . S
C440 H425 0.960 . S
C440 H426 0.960 . S
C440 H427 0.960 . S
C440 C439 1.524 . S
C441 C438 1.403 . S
C441 C442 1.392 . S
C441 C445 1.495 . S
C442 C441 1.392 . S
C442 C443 1.385 . S
C442 C444 1.478 . S
C443 H437 0.930 . S
C443 C439 1.400 . S
C443 C442 1.385 . S
C444 C442 1.478 . S
C444 C446 1.381 . S
C444 C450 1.383 . S
C445 C441 1.495 . S
C445 H451 0.959 . S
C445 H452 0.961 . S
C445 H453 0.960 . S
C446 C444 1.381 . S
C446 C447 1.394 . S
C446 H454 0.930 . S
C447 C446 1.394 . S
C447 C448 1.383 . S
C447 H455 0.929 . S
C448 C447 1.383 . S
C448 C449 1.377 . S
C449 H433 0.930 . S
C449 C448 1.377 . S
C449 C450 1.379 . S
C450 H434 0.931 . S
C450 C444 1.383 . S
C450 C449 1.379 . S
H451 C445 0.959 . S
H452 C445 0.961 . S
H453 C445 0.960 . S
H454 C446 0.930 . S
H455 C447 0.929 . S
H456 C464 0.929 . S
H457 C466 0.930 . S
H458 C468 0.930 . S
H459 C471 0.929 . S
H460 C474 0.930 . S
H461 C476 0.960 . S
H462 C476 0.960 . S
H463 C476 0.960 . S
C464 H456 0.929 . S
C464 C465 1.377 . S
C464 C466 1.384 . S
C465 C464 1.377 . S
C465 C471 1.390 . S
C466 H457 0.930 . S
C466 C464 1.384 . S
C466 C467 1.372 . S
C467 C466 1.372 . S
C467 C468 1.400 . S
C467 C472 1.490 . S
C468 H458 0.930 . S
C468 C467 1.400 . S
C468 C471 1.386 . S
H469 C485 0.930 . S
H470 C486 0.931 . S
C471 H459 0.929 . S
C471 C465 1.390 . S
C471 C468 1.386 . S
C472 C467 1.490 . S
C472 C474 1.395 . S
C472 C475 1.403 . S
H473 C479 0.930 . S
C474 H460 0.930 . S
C474 C472 1.395 . S
C474 C477 1.403 . S
C475 C472 1.403 . S
C475 C476 1.524 . S
C475 C479 1.400 . S
C476 H461 0.960 . S
C476 H462 0.960 . S
C476 H463 0.960 . S
C476 C475 1.524 . S
C477 C474 1.403 . S
C477 C478 1.392 . S
C477 C481 1.495 . S
C478 C477 1.392 . S
C478 C479 1.385 . S
C478 C480 1.478 . S
C479 H473 0.930 . S
C479 C475 1.400 . S
C479 C478 1.385 . S
C480 C478 1.478 . S
C480 C482 1.381 . S
C480 C486 1.383 . S
C481 C477 1.495 . S
C481 H487 0.959 . S
C481 H488 0.961 . S
C481 H489 0.960 . S
C482 C480 1.381 . S
C482 C483 1.394 . S
C482 H490 0.930 . S
C483 C482 1.394 . S
C483 C484 1.383 . S
C483 H491 0.929 . S
C484 C483 1.383 . S
C484 C485 1.377 . S
C485 H469 0.930 . S
C485 C484 1.377 . S
C485 C486 1.379 . S
C486 H470 0.931 . S
C486 C480 1.383 . S
C486 C485 1.379 . S
H487 C481 0.959 . S
H488 C481 0.961 . S
H489 C481 0.960 . S
H490 C482 0.930 . S
H491 C483 0.929 . S
H492 C500 0.929 . S
H493 C502 0.930 . S
H494 C504 0.930 . S
H495 C507 0.929 . S
H496 C510 0.930 . S
H497 C512 0.960 . S
H498 C512 0.960 . S
H499 C512 0.960 . S
C500 H492 0.929 . S
C500 C501 1.377 . S
C500 C502 1.384 . S
C501 C500 1.377 . S
C501 C507 1.390 . S
C502 H493 0.930 . S
C502 C500 1.384 . S
C502 C503 1.372 . S
C503 C502 1.372 . S
C503 C504 1.400 . S
C503 C508 1.490 . S
C504 H494 0.930 . S
C504 C503 1.400 . S
C504 C507 1.386 . S
H505 C521 0.930 . S
H506 C522 0.931 . S
C507 H495 0.929 . S
C507 C501 1.390 . S
C507 C504 1.386 . S
C508 C503 1.490 . S
C508 C510 1.395 . S
C508 C511 1.403 . S
H509 C515 0.930 . S
C510 H496 0.930 . S
C510 C508 1.395 . S
C510 C513 1.403 . S
C511 C508 1.403 . S
C511 C512 1.524 . S
C511 C515 1.400 . S
C512 H497 0.960 . S
C512 H498 0.960 . S
C512 H499 0.960 . S
C512 C511 1.524 . S
C513 C510 1.403 . S
C513 C514 1.392 . S
C513 C517 1.495 . S
C514 C513 1.392 . S
C514 C515 1.385 . S
C514 C516 1.478 . S
C515 H509 0.930 . S
C515 C511 1.400 . S
C515 C514 1.385 . S
C516 C514 1.478 . S
C516 C518 1.381 . S
C516 C522 1.383 . S
C517 C513 1.495 . S
C517 H523 0.959 . S
C517 H524 0.961 . S
C517 H525 0.960 . S
C518 C516 1.381 . S
C518 C519 1.394 . S
C518 H526 0.930 . S
C519 C518 1.394 . S
C519 C520 1.383 . S
C519 H527 0.929 . S
C520 C519 1.383 . S
C520 C521 1.377 . S
C521 H505 0.930 . S
C521 C520 1.377 . S
C521 C522 1.379 . S
C522 H506 0.931 . S
C522 C516 1.383 . S
C522 C521 1.379 . S
H523 C517 0.959 . S
H524 C517 0.961 . S
H525 C517 0.960 . S
H526 C518 0.930 . S
H527 C519 0.929 . S
H528 C536 0.929 . S
H529 C538 0.930 . S
H530 C540 0.930 . S
H531 C543 0.929 . S
H532 C546 0.930 . S
H533 C548 0.960 . S
H534 C548 0.960 . S
H535 C548 0.960 . S
C536 H528 0.929 . S
C536 C537 1.377 . S
C536 C538 1.384 . S
C537 C536 1.377 . S
C537 C543 1.390 . S
C538 H529 0.930 . S
C538 C536 1.384 . S
C538 C539 1.372 . S
C539 C538 1.372 . S
C539 C540 1.400 . S
C539 C544 1.490 . S
C540 H530 0.930 . S
C540 C539 1.400 . S
C540 C543 1.386 . S
H541 C557 0.930 . S
H542 C558 0.931 . S
C543 H531 0.929 . S
C543 C537 1.390 . S
C543 C540 1.386 . S
C544 C539 1.490 . S
C544 C546 1.395 . S
C544 C547 1.403 . S
H545 C551 0.930 . S
C546 H532 0.930 . S
C546 C544 1.395 . S
C546 C549 1.403 . S
C547 C544 1.403 . S
C547 C548 1.524 . S
C547 C551 1.400 . S
C548 H533 0.960 . S
C548 H534 0.960 . S
C548 H535 0.960 . S
C548 C547 1.524 . S
C549 C546 1.403 . S
C549 C550 1.392 . S
C549 C553 1.495 . S
C550 C549 1.392 . S
C550 C551 1.385 . S
C550 C552 1.478 . S
C551 H545 0.930 . S
C551 C547 1.400 . S
C551 C550 1.385 . S
C552 C550 1.478 . S
C552 C554 1.381 . S
C552 C558 1.383 . S
C553 C549 1.495 . S
C553 H559 0.959 . S
C553 H560 0.961 . S
C553 H561 0.960 . S
C554 C552 1.381 . S
C554 C555 1.394 . S
C554 H562 0.930 . S
C555 C554 1.394 . S
C555 C556 1.383 . S
C555 H563 0.929 . S
C556 C555 1.383 . S
C556 C557 1.377 . S
C557 H541 0.930 . S
C557 C556 1.377 . S
C557 C558 1.379 . S
C558 H542 0.931 . S
C558 C552 1.383 . S
C558 C557 1.379 . S
H559 C553 0.959 . S
H560 C553 0.961 . S
H561 C553 0.960 . S
H562 C554 0.930 . S
H563 C555 0.929 . S
H564 C572 0.929 . S
H565 C574 0.930 . S
H566 C576 0.930 . S
H567 C579 0.929 . S
H568 C582 0.930 . S
H569 C584 0.960 . S
H570 C584 0.960 . S
H571 C584 0.960 . S
C572 H564 0.929 . S
C572 C573 1.377 . S
C572 C574 1.384 . S
C573 C572 1.377 . S
C573 C579 1.390 . S
C574 H565 0.930 . S
C574 C572 1.384 . S
C574 C575 1.372 . S
C575 C574 1.372 . S
C575 C576 1.400 . S
C575 C580 1.490 . S
C576 H566 0.930 . S
C576 C575 1.400 . S
C576 C579 1.386 . S
H577 C593 0.930 . S
H578 C594 0.931 . S
C579 H567 0.929 . S
C579 C573 1.390 . S
C579 C576 1.386 . S
C580 C575 1.490 . S
C580 C582 1.395 . S
C580 C583 1.403 . S
H581 C587 0.930 . S
C582 H568 0.930 . S
C582 C580 1.395 . S
C582 C585 1.403 . S
C583 C580 1.403 . S
C583 C584 1.524 . S
C583 C587 1.400 . S
C584 H569 0.960 . S
C584 H570 0.960 . S
C584 H571 0.960 . S
C584 C583 1.524 . S
C585 C582 1.403 . S
C585 C586 1.392 . S
C585 C589 1.495 . S
C586 C585 1.392 . S
C586 C587 1.385 . S
C586 C588 1.478 . S
C587 H581 0.930 . S
C587 C583 1.400 . S
C587 C586 1.385 . S
C588 C586 1.478 . S
C588 C590 1.381 . S
C588 C594 1.383 . S
C589 C585 1.495 . S
C589 H595 0.959 . S
C589 H596 0.961 . S
C589 H597 0.960 . S
C590 C588 1.381 . S
C590 C591 1.394 . S
C590 H598 0.930 . S
C591 C590 1.394 . S
C591 C592 1.383 . S
C591 H599 0.929 . S
C592 C591 1.383 . S
C592 C593 1.377 . S
C593 H577 0.930 . S
C593 C592 1.377 . S
C593 C594 1.379 . S
C594 H578 0.931 . S
C594 C588 1.383 . S
C594 C593 1.379 . S
H595 C589 0.959 . S
H596 C589 0.961 . S
H597 C589 0.960 . S
H598 C590 0.930 . S
H599 C591 0.929 . S
H600 C608 0.929 . S
H601 C610 0.930 . S
H602 C612 0.930 . S
H603 C615 0.929 . S
H604 C618 0.930 . S
H605 C620 0.960 . S
H606 C620 0.960 . S
H607 C620 0.960 . S
C608 H600 0.929 . S
C608 C609 1.377 . S
C608 C610 1.384 . S
C609 C608 1.377 . S
C609 C615 1.390 . S
C610 H601 0.930 . S
C610 C608 1.384 . S
C610 C611 1.372 . S
C611 C610 1.372 . S
C611 C612 1.400 . S
C611 C616 1.490 . S
C612 H602 0.930 . S
C612 C611 1.400 . S
C612 C615 1.386 . S
H613 C629 0.930 . S
H614 C630 0.931 . S
C615 H603 0.929 . S
C615 C609 1.390 . S
C615 C612 1.386 . S
C616 C611 1.490 . S
C616 C618 1.395 . S
C616 C619 1.403 . S
H617 C623 0.930 . S
C618 H604 0.930 . S
C618 C616 1.395 . S
C618 C621 1.403 . S
C619 C616 1.403 . S
C619 C620 1.524 . S
C619 C623 1.400 . S
C620 H605 0.960 . S
C620 H606 0.960 . S
C620 H607 0.960 . S
C620 C619 1.524 . S
C621 C618 1.403 . S
C621 C622 1.392 . S
C621 C625 1.495 . S
C622 C621 1.392 . S
C622 C623 1.385 . S
C622 C624 1.478 . S
C623 H617 0.930 . S
C623 C619 1.400 . S
C623 C622 1.385 . S
C624 C622 1.478 . S
C624 C626 1.381 . S
C624 C630 1.383 . S
C625 C621 1.495 . S
C625 H631 0.959 . S
C625 H632 0.961 . S
C625 H633 0.960 . S
C626 C624 1.381 . S
C626 C627 1.394 . S
C626 H634 0.930 . S
C627 C626 1.394 . S
C627 C628 1.383 . S
C627 H635 0.929 . S
C628 C627 1.383 . S
C628 C629 1.377 . S
C629 H613 0.930 . S
C629 C628 1.377 . S
C629 C630 1.379 . S
C630 H614 0.931 . S
C630 C624 1.383 . S
C630 C629 1.379 . S
H631 C625 0.959 . S
H632 C625 0.961 . S
H633 C625 0.960 . S
H634 C626 0.930 . S
H635 C627 0.929 . S
H636 C644 0.929 . S
H637 C646 0.930 . S
H638 C648 0.930 . S
H639 C651 0.929 . S
H640 C654 0.930 . S
H641 C656 0.960 . S
H642 C656 0.960 . S
H643 C656 0.960 . S
C644 H636 0.929 . S
C644 C645 1.377 . S
C644 C646 1.384 . S
C645 C644 1.377 . S
C645 C651 1.390 . S
C646 H637 0.930 . S
C646 C644 1.384 . S
C646 C647 1.372 . S
C647 C646 1.372 . S
C647 C648 1.400 . S
C647 C652 1.490 . S
C648 H638 0.930 . S
C648 C647 1.400 . S
C648 C651 1.386 . S
H649 C665 0.930 . S
H650 C666 0.931 . S
C651 H639 0.929 . S
C651 C645 1.390 . S
C651 C648 1.386 . S
C652 C647 1.490 . S
C652 C654 1.395 . S
C652 C655 1.403 . S
H653 C659 0.930 . S
C654 H640 0.930 . S
C654 C652 1.395 . S
C654 C657 1.403 . S
C655 C652 1.403 . S
C655 C656 1.524 . S
C655 C659 1.400 . S
C656 H641 0.960 . S
C656 H642 0.960 . S
C656 H643 0.960 . S
C656 C655 1.524 . S
C657 C654 1.403 . S
C657 C658 1.392 . S
C657 C661 1.495 1_556 S
C658 C657 1.392 . S
C658 C659 1.385 . S
C658 C660 1.478 . S
C659 H653 0.930 . S
C659 C655 1.400 . S
C659 C658 1.385 . S
C660 C658 1.478 . S
C660 C662 1.381 1_556 S
C660 C666 1.383 . S
C661 C657 1.495 1_554 S
C661 H667 0.959 . S
C661 H668 0.961 . S
C661 H669 0.960 . S
C662 C660 1.381 1_554 S
C662 C663 1.394 . S
C662 H670 0.930 . S
C663 C662 1.394 . S
C663 C664 1.383 . S
C663 H671 0.929 . S
C664 C663 1.383 . S
C664 C665 1.377 1_554 S
C665 H649 0.930 . S
C665 C664 1.377 1_556 S
C665 C666 1.379 . S
C666 H650 0.931 . S
C666 C660 1.383 . S
C666 C665 1.379 . S
H667 C661 0.959 . S
H668 C661 0.961 . S
H669 C661 0.960 . S
H670 C662 0.930 . S
H671 C663 0.929 . S
H672 C680 0.929 . S
H673 C682 0.930 . S
H674 C684 0.930 . S
H675 C687 0.929 . S
H676 C690 0.930 . S
H677 C692 0.960 . S
H678 C692 0.960 . S
H679 C692 0.960 . S
C680 H672 0.929 . S
C680 C681 1.377 . S
C680 C682 1.384 . S
C681 C680 1.377 . S
C681 C687 1.390 . S
C682 H673 0.930 . S
C682 C680 1.384 . S
C682 C683 1.372 . S
C683 C682 1.372 . S
C683 C684 1.400 . S
C683 C688 1.490 . S
C684 H674 0.930 . S
C684 C683 1.400 . S
C684 C687 1.386 . S
H685 C701 0.930 . S
H686 C702 0.931 . S
C687 H675 0.929 . S
C687 C681 1.390 . S
C687 C684 1.386 . S
C688 C683 1.490 . S
C688 C690 1.395 . S
C688 C691 1.403 . S
H689 C695 0.930 . S
C690 H676 0.930 . S
C690 C688 1.395 . S
C690 C693 1.403 . S
C691 C688 1.403 . S
C691 C692 1.524 . S
C691 C695 1.400 . S
C692 H677 0.960 . S
C692 H678 0.960 . S
C692 H679 0.960 . S
C692 C691 1.524 . S
C693 C690 1.403 . S
C693 C694 1.392 . S
C693 C697 1.495 . S
C694 C693 1.392 . S
C694 C695 1.385 . S
C694 C696 1.478 . S
C695 H689 0.930 . S
C695 C691 1.400 . S
C695 C694 1.385 . S
C696 C694 1.478 . S
C696 C698 1.381 . S
C696 C702 1.383 . S
C697 C693 1.495 . S
C697 H703 0.959 . S
C697 H704 0.961 . S
C697 H705 0.960 . S
C698 C696 1.381 . S
C698 C699 1.394 . S
C698 H706 0.930 . S
C699 C698 1.394 . S
C699 C700 1.383 . S
C699 H707 0.929 . S
C700 C699 1.383 . S
C700 C701 1.377 . S
C701 H685 0.930 . S
C701 C700 1.377 . S
C701 C702 1.379 . S
C702 H686 0.931 . S
C702 C696 1.383 . S
C702 C701 1.379 . S
H703 C697 0.959 . S
H704 C697 0.961 . S
H705 C697 0.960 . S
H706 C698 0.930 . S
H707 C699 0.929 . S
H708 C716 0.929 . S
H709 C718 0.930 . S
H710 C720 0.930 . S
H711 C723 0.929 . S
H712 C726 0.930 . S
H713 C728 0.960 . S
H714 C728 0.960 . S
H715 C728 0.960 . S
C716 H708 0.929 . S
C716 C717 1.377 . S
C716 C718 1.384 . S
C717 C716 1.377 . S
C717 C723 1.390 . S
C718 H709 0.930 . S
C718 C716 1.384 . S
C718 C719 1.372 . S
C719 C718 1.372 . S
C719 C720 1.400 . S
C719 C724 1.490 . S
C720 H710 0.930 . S
C720 C719 1.400 . S
C720 C723 1.386 . S
H721 C737 0.930 . S
H722 C738 0.931 . S
C723 H711 0.929 . S
C723 C717 1.390 . S
C723 C720 1.386 . S
C724 C719 1.490 . S
C724 C726 1.395 . S
C724 C727 1.403 . S
H725 C731 0.930 . S
C726 H712 0.930 . S
C726 C724 1.395 . S
C726 C729 1.403 . S
C727 C724 1.403 . S
C727 C728 1.524 . S
C727 C731 1.400 . S
C728 H713 0.960 . S
C728 H714 0.960 . S
C728 H715 0.960 . S
C728 C727 1.524 . S
C729 C726 1.403 . S
C729 C730 1.392 . S
C729 C733 1.495 . S
C730 C729 1.392 . S
C730 C731 1.385 . S
C730 C732 1.478 . S
C731 H725 0.930 . S
C731 C727 1.400 . S
C731 C730 1.385 . S
C732 C730 1.478 . S
C732 C734 1.381 . S
C732 C738 1.383 . S
C733 C729 1.495 . S
C733 H739 0.959 . S
C733 H740 0.961 . S
C733 H741 0.960 . S
C734 C732 1.381 . S
C734 C735 1.394 . S
C734 H742 0.930 . S
C735 C734 1.394 . S
C735 C736 1.383 . S
C735 H743 0.929 . S
C736 C735 1.383 . S
C736 C737 1.377 . S
C737 H721 0.930 . S
C737 C736 1.377 . S
C737 C738 1.379 . S
C738 H722 0.931 . S
C738 C732 1.383 . S
C738 C737 1.379 . S
H739 C733 0.959 . S
H740 C733 0.961 . S
H741 C733 0.960 . S
H742 C734 0.930 . S
H743 C735 0.929 . S
H744 C752 0.929 . S
H745 C754 0.930 . S
H746 C756 0.930 . S
H747 C759 0.929 . S
H748 C762 0.930 . S
H749 C764 0.960 . S
H750 C764 0.960 . S
H751 C764 0.960 . S
C752 H744 0.929 . S
C752 C753 1.377 . S
C752 C754 1.384 . S
C753 C752 1.377 . S
C753 C759 1.390 . S
C754 H745 0.930 . S
C754 C752 1.384 . S
C754 C755 1.372 . S
C755 C754 1.372 . S
C755 C756 1.400 . S
C755 C760 1.490 . S
C756 H746 0.930 . S
C756 C755 1.400 . S
C756 C759 1.386 . S
H757 C773 0.930 . S
H758 C774 0.931 . S
C759 H747 0.929 . S
C759 C753 1.390 . S
C759 C756 1.386 . S
C760 C755 1.490 . S
C760 C762 1.395 . S
C760 C763 1.403 . S
H761 C767 0.930 . S
C762 H748 0.930 . S
C762 C760 1.395 . S
C762 C765 1.403 . S
C763 C760 1.403 . S
C763 C764 1.524 . S
C763 C767 1.400 . S
C764 H749 0.960 . S
C764 H750 0.960 . S
C764 H751 0.960 . S
C764 C763 1.524 . S
C765 C762 1.403 . S
C765 C766 1.392 . S
C765 C769 1.495 . S
C766 C765 1.392 . S
C766 C767 1.385 . S
C766 C768 1.478 . S
C767 H761 0.930 . S
C767 C763 1.400 . S
C767 C766 1.385 . S
C768 C766 1.478 . S
C768 C770 1.381 . S
C768 C774 1.383 . S
C769 C765 1.495 . S
C769 H775 0.959 . S
C769 H776 0.961 . S
C769 H777 0.960 . S
C770 C768 1.381 . S
C770 C771 1.394 . S
C770 H778 0.930 . S
C771 C770 1.394 . S
C771 C772 1.383 . S
C771 H779 0.929 . S
C772 C771 1.383 . S
C772 C773 1.377 . S
C773 H757 0.930 . S
C773 C772 1.377 . S
C773 C774 1.379 . S
C774 H758 0.931 . S
C774 C768 1.383 . S
C774 C773 1.379 . S
H775 C769 0.959 . S
H776 C769 0.961 . S
H777 C769 0.960 . S
H778 C770 0.930 . S
H779 C771 0.929 . S
H780 C788 0.929 . S
H781 C790 0.930 . S
H782 C792 0.930 . S
H783 C795 0.929 . S
H784 C798 0.930 . S
H785 C800 0.960 . S
H786 C800 0.960 . S
H787 C800 0.960 . S
C788 H780 0.929 . S
C788 C789 1.377 . S
C788 C790 1.384 . S
C789 C788 1.377 . S
C789 C795 1.390 . S
C790 H781 0.930 . S
C790 C788 1.384 . S
C790 C791 1.372 . S
C791 C790 1.372 . S
C791 C792 1.400 . S
C791 C796 1.490 . S
C792 H782 0.930 . S
C792 C791 1.400 . S
C792 C795 1.386 . S
H793 C809 0.930 . S
H794 C810 0.931 . S
C795 H783 0.929 . S
C795 C789 1.390 . S
C795 C792 1.386 . S
C796 C791 1.490 . S
C796 C798 1.395 . S
C796 C799 1.403 . S
H797 C803 0.930 . S
C798 H784 0.930 . S
C798 C796 1.395 . S
C798 C801 1.403 . S
C799 C796 1.403 . S
C799 C800 1.524 . S
C799 C803 1.400 . S
C800 H785 0.960 . S
C800 H786 0.960 . S
C800 H787 0.960 . S
C800 C799 1.524 . S
C801 C798 1.403 . S
C801 C802 1.392 . S
C801 C805 1.495 . S
C802 C801 1.392 . S
C802 C803 1.385 . S
C802 C804 1.478 . S
C803 H797 0.930 . S
C803 C799 1.400 . S
C803 C802 1.385 . S
C804 C802 1.478 . S
C804 C806 1.381 . S
C804 C810 1.383 . S
C805 C801 1.495 . S
C805 H811 0.959 . S
C805 H812 0.961 . S
C805 H813 0.960 . S
C806 C804 1.381 . S
C806 C807 1.394 . S
C806 H814 0.930 . S
C807 C806 1.394 . S
C807 C808 1.383 . S
C807 H815 0.929 . S
C808 C807 1.383 . S
C808 C809 1.377 . S
C809 H793 0.930 . S
C809 C808 1.377 . S
C809 C810 1.379 . S
C810 H794 0.931 . S
C810 C804 1.383 . S
C810 C809 1.379 . S
H811 C805 0.959 . S
H812 C805 0.961 . S
H813 C805 0.960 . S
H814 C806 0.930 . S
H815 C807 0.929 . S
H816 C824 0.929 . S
H817 C826 0.930 . S
H818 C828 0.930 . S
H819 C831 0.929 . S
H820 C834 0.930 . S
H821 C836 0.960 . S
H822 C836 0.960 . S
H823 C836 0.960 . S
C824 H816 0.929 . S
C824 C825 1.377 . S
C824 C826 1.384 . S
C825 C824 1.377 . S
C825 C831 1.390 . S
C826 H817 0.930 . S
C826 C824 1.384 . S
C826 C827 1.372 . S
C827 C826 1.372 . S
C827 C828 1.400 . S
C827 C832 1.490 . S
C828 H818 0.930 . S
C828 C827 1.400 . S
C828 C831 1.386 . S
H829 C845 0.930 . S
H830 C846 0.931 . S
C831 H819 0.929 . S
C831 C825 1.390 . S
C831 C828 1.386 . S
C832 C827 1.490 . S
C832 C834 1.395 . S
C832 C835 1.403 . S
H833 C839 0.930 . S
C834 H820 0.930 . S
C834 C832 1.395 . S
C834 C837 1.403 . S
C835 C832 1.403 . S
C835 C836 1.524 . S
C835 C839 1.400 . S
C836 H821 0.960 . S
C836 H822 0.960 . S
C836 H823 0.960 . S
C836 C835 1.524 . S
C837 C834 1.403 . S
C837 C838 1.392 . S
C837 C841 1.495 . S
C838 C837 1.392 . S
C838 C839 1.385 . S
C838 C840 1.478 . S
C839 H833 0.930 . S
C839 C835 1.400 . S
C839 C838 1.385 . S
C840 C838 1.478 . S
C840 C842 1.381 . S
C840 C846 1.383 . S
C841 C837 1.495 . S
C841 H847 0.959 . S
C841 H848 0.961 . S
C841 H849 0.960 . S
C842 C840 1.381 . S
C842 C843 1.394 . S
C842 H850 0.930 . S
C843 C842 1.394 . S
C843 C844 1.383 . S
C843 H851 0.929 . S
C844 C843 1.383 . S
C844 C845 1.377 . S
C845 H829 0.930 . S
C845 C844 1.377 . S
C845 C846 1.379 . S
C846 H830 0.931 . S
C846 C840 1.383 . S
C846 C845 1.379 . S
H847 C841 0.959 . S
H848 C841 0.961 . S
H849 C841 0.960 . S
H850 C842 0.930 . S
H851 C843 0.929 . S
H852 C860 0.929 . S
H853 C862 0.930 . S
H854 C864 0.930 . S
H855 C867 0.929 . S
H856 C870 0.930 . S
H857 C872 0.960 . S
H858 C872 0.960 . S
H859 C872 0.960 . S
C860 H852 0.929 . S
C860 C861 1.377 . S
C860 C862 1.384 . S
C861 C860 1.377 . S
C861 C867 1.390 . S
C862 H853 0.930 . S
C862 C860 1.384 . S
C862 C863 1.372 . S
C863 C862 1.372 . S
C863 C864 1.400 . S
C863 C868 1.490 . S
C864 H854 0.930 . S
C864 C863 1.400 . S
C864 C867 1.386 . S
H865 C881 0.930 . S
H866 C882 0.931 . S
C867 H855 0.929 . S
C867 C861 1.390 . S
C867 C864 1.386 . S
C868 C863 1.490 . S
C868 C870 1.395 . S
C868 C871 1.403 . S
H869 C875 0.930 . S
C870 H856 0.930 . S
C870 C868 1.395 . S
C870 C873 1.403 . S
C871 C868 1.403 . S
C871 C872 1.524 . S
C871 C875 1.400 . S
C872 H857 0.960 . S
C872 H858 0.960 . S
C872 H859 0.960 . S
C872 C871 1.524 . S
C873 C870 1.403 . S
C873 C874 1.392 . S
C873 C877 1.495 . S
C874 C873 1.392 . S
C874 C875 1.385 . S
C874 C876 1.478 . S
C875 H869 0.930 . S
C875 C871 1.400 . S
C875 C874 1.385 . S
C876 C874 1.478 . S
C876 C878 1.381 . S
C876 C882 1.383 . S
C877 C873 1.495 . S
C877 H883 0.959 . S
C877 H884 0.961 . S
C877 H885 0.960 . S
C878 C876 1.381 . S
C878 C879 1.394 . S
C878 H886 0.930 . S
C879 C878 1.394 . S
C879 C880 1.383 . S
C879 H887 0.929 . S
C880 C879 1.383 . S
C880 C881 1.377 . S
C881 H865 0.930 . S
C881 C880 1.377 . S
C881 C882 1.379 . S
C882 H866 0.931 . S
C882 C876 1.383 . S
C882 C881 1.379 . S
H883 C877 0.959 . S
H884 C877 0.961 . S
H885 C877 0.960 . S
H886 C878 0.930 . S
H887 C879 0.929 . S
H888 C896 0.929 . S
H889 C898 0.930 . S
H890 C900 0.930 . S
H891 C903 0.929 . S
H892 C906 0.930 . S
H893 C908 0.960 . S
H894 C908 0.960 . S
H895 C908 0.960 . S
C896 H888 0.929 . S
C896 C897 1.377 . S
C896 C898 1.384 . S
C897 C896 1.377 . S
C897 C903 1.390 . S
C898 H889 0.930 . S
C898 C896 1.384 . S
C898 C899 1.372 . S
C899 C898 1.372 . S
C899 C900 1.400 . S
C899 C904 1.490 . S
C900 H890 0.930 . S
C900 C899 1.400 . S
C900 C903 1.386 . S
H901 C917 0.930 . S
H902 C918 0.931 . S
C903 H891 0.929 . S
C903 C897 1.390 . S
C903 C900 1.386 . S
C904 C899 1.490 . S
C904 C906 1.395 . S
C904 C907 1.403 . S
H905 C911 0.930 . S
C906 H892 0.930 . S
C906 C904 1.395 . S
C906 C909 1.403 . S
C907 C904 1.403 . S
C907 C908 1.524 . S
C907 C911 1.400 . S
C908 H893 0.960 . S
C908 H894 0.960 . S
C908 H895 0.960 . S
C908 C907 1.524 . S
C909 C906 1.403 . S
C909 C910 1.392 . S
C909 C913 1.495 . S
C910 C909 1.392 . S
C910 C911 1.385 . S
C910 C912 1.478 . S
C911 H905 0.930 . S
C911 C907 1.400 . S
C911 C910 1.385 . S
C912 C910 1.478 . S
C912 C914 1.381 . S
C912 C918 1.383 . S
C913 C909 1.495 . S
C913 H919 0.959 . S
C913 H920 0.961 . S
C913 H921 0.960 . S
C914 C912 1.381 . S
C914 C915 1.394 . S
C914 H922 0.930 . S
C915 C914 1.394 . S
C915 C916 1.383 . S
C915 H923 0.929 . S
C916 C915 1.383 . S
C916 C917 1.377 . S
C917 H901 0.930 . S
C917 C916 1.377 . S
C917 C918 1.379 . S
C918 H902 0.931 . S
C918 C912 1.383 . S
C918 C917 1.379 . S
H919 C913 0.959 . S
H920 C913 0.961 . S
H921 C913 0.960 . S
H922 C914 0.930 . S
H923 C915 0.929 . S
H924 C932 0.929 . S
H925 C934 0.930 . S
H926 C936 0.930 . S
H927 C939 0.929 . S
H928 C942 0.930 . S
H929 C944 0.960 . S
H930 C944 0.960 . S
H931 C944 0.960 . S
C932 H924 0.929 . S
C932 C933 1.377 . S
C932 C934 1.384 . S
C933 C932 1.377 . S
C933 C939 1.390 . S
C934 H925 0.930 . S
C934 C932 1.384 . S
C934 C935 1.372 . S
C935 C934 1.372 . S
C935 C936 1.400 . S
C935 C940 1.490 . S
C936 H926 0.930 . S
C936 C935 1.400 . S
C936 C939 1.386 . S
H937 C953 0.930 . S
H938 C954 0.931 . S
C939 H927 0.929 . S
C939 C933 1.390 . S
C939 C936 1.386 . S
C940 C935 1.490 . S
C940 C942 1.395 . S
C940 C943 1.403 . S
H941 C947 0.930 . S
C942 H928 0.930 . S
C942 C940 1.395 . S
C942 C945 1.403 . S
C943 C940 1.403 . S
C943 C944 1.524 . S
C943 C947 1.400 . S
C944 H929 0.960 . S
C944 H930 0.960 . S
C944 H931 0.960 . S
C944 C943 1.524 . S
C945 C942 1.403 . S
C945 C946 1.392 . S
C945 C949 1.495 . S
C946 C945 1.392 . S
C946 C947 1.385 . S
C946 C948 1.478 . S
C947 H941 0.930 . S
C947 C943 1.400 . S
C947 C946 1.385 . S
C948 C946 1.478 . S
C948 C950 1.381 . S
C948 C954 1.383 . S
C949 C945 1.495 . S
C949 H955 0.959 . S
C949 H956 0.961 . S
C949 H957 0.960 . S
C950 C948 1.381 . S
C950 C951 1.394 . S
C950 H958 0.930 . S
C951 C950 1.394 . S
C951 C952 1.383 . S
C951 H959 0.929 . S
C952 C951 1.383 . S
C952 C953 1.377 . S
C953 H937 0.930 . S
C953 C952 1.377 . S
C953 C954 1.379 . S
C954 H938 0.931 . S
C954 C948 1.383 . S
C954 C953 1.379 . S
H955 C949 0.959 . S
H956 C949 0.961 . S
H957 C949 0.960 . S
H958 C950 0.930 . S
H959 C951 0.929 . S
H960 C968 0.929 . S
H961 C970 0.930 . S
H962 C972 0.930 . S
H963 C975 0.929 . S
H964 C978 0.930 . S
H965 C980 0.960 . S
H966 C980 0.960 . S
H967 C980 0.960 . S
C968 H960 0.929 . S
C968 C969 1.377 . S
C968 C970 1.384 . S
C969 C968 1.377 . S
C969 C975 1.390 . S
C970 H961 0.930 . S
C970 C968 1.384 . S
C970 C971 1.372 . S
C971 C970 1.372 . S
C971 C972 1.400 . S
C971 C976 1.490 . S
C972 H962 0.930 . S
C972 C971 1.400 . S
C972 C975 1.386 . S
H973 C989 0.930 . S
H974 C990 0.931 . S
C975 H963 0.929 . S
C975 C969 1.390 . S
C975 C972 1.386 . S
C976 C971 1.490 . S
C976 C978 1.395 . S
C976 C979 1.403 . S
H977 C983 0.930 . S
C978 H964 0.930 . S
C978 C976 1.395 . S
C978 C981 1.403 . S
C979 C976 1.403 . S
C979 C980 1.524 . S
C979 C983 1.400 . S
C980 H965 0.960 . S
C980 H966 0.960 . S
C980 H967 0.960 . S
C980 C979 1.524 . S
C981 C978 1.403 . S
C981 C982 1.392 . S
C981 C985 1.495 . S
C982 C981 1.392 . S
C982 C983 1.385 . S
C982 C984 1.478 . S
C983 H977 0.930 . S
C983 C979 1.400 . S
C983 C982 1.385 . S
C984 C982 1.478 . S
C984 C986 1.381 . S
C984 C990 1.383 . S
C985 C981 1.495 . S
C985 H991 0.959 . S
C985 H992 0.961 . S
C985 H993 0.960 . S
C986 C984 1.381 . S
C986 C987 1.394 . S
C986 H994 0.930 . S
C987 C986 1.394 . S
C987 C988 1.383 . S
C987 H995 0.929 . S
C988 C987 1.383 . S
C988 C989 1.377 . S
C989 H973 0.930 . S
C989 C988 1.377 . S
C989 C990 1.379 . S
C990 H974 0.931 . S
C990 C984 1.383 . S
C990 C989 1.379 . S
H991 C985 0.959 . S
H992 C985 0.961 . S
H993 C985 0.960 . S
H994 C986 0.930 . S
H995 C987 0.929 . S
H996 C1004 0.929 . S
H997 C1006 0.930 . S
H998 C1008 0.930 . S
H999 C1011 0.929 . S
H1000 C1014 0.930 . S
H1001 C1016 0.960 . S
H1002 C1016 0.960 . S
H1003 C1016 0.960 . S
C1004 H996 0.929 . S
C1004 C1005 1.377 . S
C1004 C1006 1.384 . S
C1005 C1004 1.377 . S
C1005 C1011 1.390 . S
C1006 H997 0.930 . S
C1006 C1004 1.384 . S
C1006 C1007 1.372 . S
C1007 C1006 1.372 . S
C1007 C1008 1.400 . S
C1007 C1012 1.490 . S
C1008 H998 0.930 . S
C1008 C1007 1.400 . S
C1008 C1011 1.386 . S
H1009 C1025 0.930 . S
H1010 C1026 0.931 . S
C1011 H999 0.929 . S
C1011 C1005 1.390 . S
C1011 C1008 1.386 . S
C1012 C1007 1.490 . S
C1012 C1014 1.395 . S
C1012 C1015 1.403 . S
H1013 C1019 0.930 . S
C1014 H1000 0.930 . S
C1014 C1012 1.395 . S
C1014 C1017 1.403 . S
C1015 C1012 1.403 . S
C1015 C1016 1.524 . S
C1015 C1019 1.400 . S
C1016 H1001 0.960 . S
C1016 H1002 0.960 . S
C1016 H1003 0.960 . S
C1016 C1015 1.524 . S
C1017 C1014 1.403 . S
C1017 C1018 1.392 . S
C1017 C1021 1.495 . S
C1018 C1017 1.392 . S
C1018 C1019 1.385 . S
C1018 C1020 1.478 . S
C1019 H1013 0.930 . S
C1019 C1015 1.400 . S
C1019 C1018 1.385 . S
C1020 C1018 1.478 . S
C1020 C1022 1.381 . S
C1020 C1026 1.383 . S
C1021 C1017 1.495 . S
C1021 H1027 0.959 . S
C1021 H1028 0.961 . S
C1021 H1029 0.960 . S
C1022 C1020 1.381 . S
C1022 C1023 1.394 . S
C1022 H1030 0.930 . S
C1023 C1022 1.394 . S
C1023 C1024 1.383 . S
C1023 H1031 0.875 1_554 S
C1024 C1023 1.383 . S
C1024 C1025 1.377 . S
C1025 H1009 0.930 . S
C1025 C1024 1.377 . S
C1025 C1026 1.379 . S
C1026 H1010 0.931 . S
C1026 C1020 1.383 . S
C1026 C1025 1.379 . S
H1027 C1021 0.959 . S
H1028 C1021 0.961 . S
H1029 C1021 0.960 . S
H1030 C1022 0.930 . S
H1031 C1023 0.875 1_556 S
C177 C123 1.355 . S
C196 C11 1.365 . S
C213 C25 1.357 . S
C232 C137 1.361 . S
C249 C39 1.356 . S
C268 C151 1.367 . S
C285 C53 1.351 . S
C304 C165 1.334 . S
C321 C95 1.350 . S
C340 C67 1.341 . S
C357 C81 1.353 . S
C376 C109 1.339 . S
C393 C9 1.504 . S
C412 C70 1.468 . S
C429 C23 1.507 . S
C448 C0 1.497 1_655 S
C465 C37 1.503 . S
C484 C14 1.461 1_565 S
C501 C28 1.476 . S
C520 C51 1.490 . S
C537 C42 1.476 1_455 S
C556 C65 1.490 . S
C573 C56 1.480 1_545 S
C592 C79 1.500 . S
C609 C98 1.481 . S
C628 C93 1.502 . S
C645 C107 1.507 . S
C664 C112 1.495 1_655 S
C681 C126 1.482 1_565 S
C700 C121 1.506 . S
C717 C135 1.506 . S
C736 C140 1.491 . S
C753 C149 1.502 . S
C772 C154 1.456 1_455 S
C789 C163 1.502 . S
C808 C84 1.456 1_545 S
C825 C145 1.224 . S
C844 C5 1.226 . S
C861 C159 1.224 . S
C880 C19 1.226 . S
C897 C89 1.225 . S
C916 C33 1.224 . S
C933 C47 1.225 . S
C952 C103 1.222 . S
C969 C61 1.225 . S
C988 C117 1.212 1_556 S
C1005 C131 1.225 . S
C1024 C75 1.204 1_554 S
