# Generated by pormake.
# Topology mmt, (4)-cn, num edge types: 1
# Building blocks:
#     Node 0, Type 0, BuildingBlock: CEKHIL_clean_sbu_0, # of connection points: 4
#     Node 1, Type 0, BuildingBlock: CEKHIL_clean_sbu_0, # of connection points: 4
#     Node 2, Type 0, BuildingBlock: CEKHIL_clean_sbu_0, # of connection points: 4
#     Node 3, Type 0, BuildingBlock: CEKHIL_clean_sbu_0, # of connection points: 4
#     Node 4, Type 0, BuildingBlock: CEKHIL_clean_sbu_0, # of connection points: 4
#     Node 5, Type 0, BuildingBlock: CEKHIL_clean_sbu_0, # of connection points: 4
#     Node 6, Type 0, BuildingBlock: CEKHIL_clean_sbu_0, # of connection points: 4
#     Node 7, Type 0, BuildingBlock: CEKHIL_clean_sbu_0, # of connection points: 4
#     Edge 8, Type (0, 0), BuildingBlock: XUDNAN_clean_linker_2, # of connection points: 2
#     Edge 9, Type (0, 0), BuildingBlock: XUDNAN_clean_linker_2, # of connection points: 2
#     Edge 10, Type (0, 0), BuildingBlock: XUDNAN_clean_linker_2, # of connection points: 2
#     Edge 11, Type (0, 0), BuildingBlock: XUDNAN_clean_linker_2, # of connection points: 2
#     Edge 12, Type (0, 0), BuildingBlock: XUDNAN_clean_linker_2, # of connection points: 2
#     Edge 13, Type (0, 0), BuildingBlock: XUDNAN_clean_linker_2, # of connection points: 2
#     Edge 14, Type (0, 0), BuildingBlock: XUDNAN_clean_linker_2, # of connection points: 2
#     Edge 15, Type (0, 0), BuildingBlock: XUDNAN_clean_linker_2, # of connection points: 2
#     Edge 16, Type (0, 0), BuildingBlock: XUDNAN_clean_linker_2, # of connection points: 2
#     Edge 17, Type (0, 0), BuildingBlock: XUDNAN_clean_linker_2, # of connection points: 2
#     Edge 18, Type (0, 0), BuildingBlock: XUDNAN_clean_linker_2, # of connection points: 2
#     Edge 19, Type (0, 0), BuildingBlock: XUDNAN_clean_linker_2, # of connection points: 2
#     Edge 20, Type (0, 0), BuildingBlock: XUDNAN_clean_linker_2, # of connection points: 2
#     Edge 21, Type (0, 0), BuildingBlock: XUDNAN_clean_linker_2, # of connection points: 2
#     Edge 22, Type (0, 0), BuildingBlock: XUDNAN_clean_linker_2, # of connection points: 2
#     Edge 23, Type (0, 0), BuildingBlock: XUDNAN_clean_linker_2, # of connection points: 2
# Relax obj value: 0.032
# Max RMSD: 0.050
# Mean RMSD: 0.050
data_MOF--net-mmt--node1-CEKHIL_clean_sbu_0--edge1-XUDNAN_clean_linker_2
_symmetry_space_group_name_H-M    P1
_symmetry_Int_Tables_number       1
_symmetry_cell_setting            triclinic
loop_
_symmetry_equiv_pos_as_xyz
'x, y, z'
_cell_length_a     22.191171
_cell_length_b     36.489344
_cell_length_c     43.552312
_cell_angle_alpha  89.961653
_cell_angle_beta   89.91383
_cell_angle_gamma 89.831297
loop_
_atom_site_label
_atom_site_type_symbol
_atom_site_fract_x
_atom_site_fract_y
_atom_site_fract_z
_atom_type_partial_charge
Co0 Co 0.12702 0.57824 0.36666 0.0
O1 O 0.07987 0.57871 0.40436 0.0
O2 O 0.13792 0.53293 0.3894 0.0
C3 C 0.16412 0.63593 0.37269 0.0
O4 O 0.18486 0.56766 0.33063 0.0
Co5 Co 0.10545 0.63426 0.31404 0.0
O6 O 0.18166 0.61448 0.29716 0.0
C7 C 0.01874 0.57379 0.3244 0.0
C8 C 0.10178 0.54643 0.41009 0.0
C9 C 0.20447 0.58437 0.30645 0.0
O10 O 0.05533 0.55744 0.34304 0.0
O11 O 0.02885 0.60566 0.31323 0.0
O12 O 0.19005 0.60843 0.38639 0.0
O13 O 0.11622 0.62799 0.35757 0.0
Co14 Co 0.38821 0.93832 0.3735 0.0
O15 O 0.43475 0.93864 0.41122 0.0
O16 O 0.37813 0.98452 0.39509 0.0
C17 C 0.34586 0.88241 0.37976 0.0
O18 O 0.33117 0.94758 0.33703 0.0
Co19 Co 0.41596 0.8825 0.32225 0.0
O20 O 0.33717 0.89885 0.30566 0.0
C21 C 0.49298 0.94764 0.32756 0.0
C22 C 0.41356 0.97128 0.41618 0.0
C23 C 0.31239 0.92888 0.31375 0.0
O24 O 0.45892 0.95901 0.34963 0.0
O25 O 0.4856 0.91652 0.31454 0.0
O26 O 0.32411 0.91111 0.39352 0.0
O27 O 0.39653 0.88739 0.36555 0.0
Co28 Co 0.62778 0.43623 0.15224 0.0
O29 O 0.58136 0.43242 0.11431 0.0
O30 O 0.6316 0.48134 0.12922 0.0
C31 C 0.67719 0.38192 0.1483 0.0
O32 O 0.68243 0.45194 0.18751 0.0
Co33 Co 0.61568 0.38559 0.20787 0.0
O34 O 0.69125 0.40824 0.22337 0.0
C35 C 0.52612 0.44485 0.1996 0.0
C36 C 0.59815 0.46587 0.10856 0.0
C37 C 0.70677 0.43892 0.21204 0.0
O38 O 0.55499 0.45493 0.17535 0.0
O39 O 0.54128 0.41659 0.21532 0.0
O40 O 0.69499 0.41072 0.1333 0.0
O41 O 0.62707 0.38567 0.16339 0.0
Co42 Co 0.88697 0.07462 0.15641 0.0
O43 O 0.93373 0.07328 0.11857 0.0
O44 O 0.87126 0.02993 0.13352 0.0
C45 C 0.85429 0.13336 0.15125 0.0
O46 O 0.82865 0.06624 0.19243 0.0
Co47 Co 0.91688 0.12766 0.20946 0.0
O48 O 0.83743 0.11258 0.22598 0.0
C49 C 0.99062 0.06082 0.2017 0.0
C50 C 0.90861 0.04196 0.1128 0.0
C51 C 0.81101 0.08374 0.21658 0.0
O52 O 0.95534 0.05001 0.17992 0.0
O53 O 0.98507 0.09207 0.21477 0.0
O54 O 0.8268 0.10689 0.13714 0.0
O55 O 0.90267 0.12417 0.16575 0.0
Co56 Co 0.91911 0.4233 0.65297 0.0
O57 O 0.97153 0.41268 0.61892 0.0
O58 O 0.93263 0.46725 0.62763 0.0
C59 C 0.85933 0.37348 0.64602 0.0
O60 O 0.86099 0.44317 0.68613 0.0
Co61 Co 0.91398 0.36614 0.70627 0.0
O62 O 0.8468 0.39764 0.72049 0.0
C63 C 0.01678 0.41748 0.70242 0.0
C64 C 0.96596 0.44638 0.61017 0.0
C65 C 0.83539 0.42975 0.71038 0.0
O66 O 0.99134 0.43504 0.68012 0.0
O67 O 0.99543 0.38778 0.71367 0.0
O68 O 0.84971 0.40334 0.63056 0.0
O69 O 0.907 0.37364 0.6628 0.0
Co70 Co 0.58963 0.0859 0.66227 0.0
O71 O 0.53152 0.09876 0.63098 0.0
O72 O 0.57969 0.04592 0.63287 0.0
C73 C 0.63888 0.1404 0.65933 0.0
O74 O 0.65451 0.06271 0.68977 0.0
Co75 Co 0.60532 0.12947 0.72253 0.0
O76 O 0.6776 0.09874 0.7298 0.0
C77 C 0.49966 0.08067 0.71442 0.0
C78 C 0.5419 0.06712 0.61845 0.0
C79 C 0.68638 0.07004 0.71379 0.0
O80 O 0.52281 0.06648 0.68989 0.0
O81 O 0.5232 0.10791 0.72849 0.0
O82 O 0.65184 0.11409 0.64032 0.0
O83 O 0.59622 0.13354 0.67855 0.0
Co84 Co 0.41579 0.58039 0.86298 0.0
O85 O 0.47025 0.59432 0.89547 0.0
O86 O 0.42545 0.54059 0.89261 0.0
C87 C 0.36107 0.63314 0.86427 0.0
O88 O 0.35488 0.55606 0.83415 0.0
Co89 Co 0.40942 0.62104 0.80191 0.0
O90 O 0.33582 0.5922 0.79364 0.0
C91 C 0.50969 0.5696 0.8118 0.0
C92 C 0.46105 0.56238 0.90768 0.0
C93 C 0.32522 0.56363 0.80946 0.0
O94 O 0.48566 0.56104 0.83778 0.0
O95 O 0.48784 0.59447 0.79428 0.0
O96 O 0.35066 0.60652 0.8833 0.0
O97 O 0.40701 0.62848 0.84623 0.0
Co98 Co 0.08855 0.92093 0.86929 0.0
O99 O 0.03062 0.9082 0.90084 0.0
O100 O 0.07226 0.96267 0.89616 0.0
C101 C 0.14721 0.87009 0.87532 0.0
O102 O 0.15167 0.94427 0.84099 0.0
Co103 Co 0.10999 0.87285 0.81147 0.0
O104 O 0.18064 0.9048 0.80416 0.0
C105 C 1.00236 0.9214 0.81468 0.0
C106 C 0.03675 0.94114 0.91161 0.0
C107 C 0.18572 0.93531 0.8181 0.0
O108 O 0.0214 0.93583 0.83994 0.0
O109 O 0.0289 0.89435 0.80158 0.0
O110 O 0.15278 0.89808 0.89348 0.0
O111 O 0.1038 0.87243 0.85571 0.0
H112 H 0.26669 0.51828 0.31463 0.0
H113 H 0.25416 0.61316 0.25447 0.0
H114 H 0.33142 0.5867 0.22091 0.0
H115 H 0.42896 0.50662 0.30731 0.0
H116 H 0.42624 0.45725 0.3074 0.0
H117 H 0.36908 0.48323 0.32725 0.0
H118 H 0.28648 0.4501 0.29595 0.0
H119 H 0.34344 0.42418 0.27586 0.0
H120 H 0.28952 0.45108 0.25459 0.0
H121 H 0.40791 0.55067 0.19285 0.0
H122 H 0.48513 0.50829 0.17342 0.0
H123 H 0.453 0.43603 0.25113 0.0
C124 C 0.28033 0.53352 0.29447 0.0
C125 C 0.25362 0.56791 0.28736 0.0
C126 C 0.27322 0.58682 0.26065 0.0
C127 C 0.31726 0.57199 0.24125 0.0
C128 C 0.34201 0.5381 0.24866 0.0
C129 C 0.32485 0.51909 0.27468 0.0
C130 C 0.35995 0.48328 0.27717 0.0
C131 C 0.39834 0.48257 0.30653 0.0
C132 C 0.31729 0.45021 0.27581 0.0
C133 C 0.39929 0.4854 0.24854 0.0
C134 C 0.38761 0.51722 0.23244 0.0
C135 C 0.41763 0.52565 0.20526 0.0
C136 C 0.46148 0.50122 0.19436 0.0
C137 C 0.47559 0.46859 0.2106 0.0
C138 C 0.44342 0.46058 0.23802 0.0
H139 H 0.07088 0.07352 0.2487 0.0
H140 H 0.01821 0.99082 0.18229 0.0
H141 H 0.09375 0.94837 0.20422 0.0
H142 H 0.23029 0.05289 0.24857 0.0
H143 H 0.23886 0.06114 0.28913 0.0
H144 H 0.1815 0.08514 0.26782 0.0
H145 H 0.1004 0.06125 0.30561 0.0
H146 H 0.15741 0.03696 0.32693 0.0
H147 H 0.09326 0.01263 0.31199 0.0
H148 H 0.17358 0.91458 0.23399 0.0
H149 H 0.254 0.89218 0.26793 0.0
H150 H 0.25524 0.99682 0.31549 0.0
C151 C 0.07526 0.04658 0.23852 0.0
C152 C 0.03829 0.03565 0.21359 0.0
C153 C 0.04581 1.0 0.20125 0.0
C154 C 0.08858 0.97564 0.21363 0.0
C155 C 0.12361 0.98725 0.23837 0.0
C156 C 0.11761 0.02193 0.2506 0.0
C157 C 0.16061 0.02757 0.27729 0.0
C158 C 0.20548 0.05852 0.27027 0.0
C159 C 0.12583 0.03504 0.30723 0.0
C160 C 0.19187 0.99056 0.27823 0.0
C161 C 0.16969 0.96776 0.25557 0.0
C162 C 0.19135 0.93225 0.25173 0.0
C163 C 0.23725 0.9198 0.27124 0.0
C164 C 0.2615 0.94268 0.29452 0.0
C165 C 0.23784 0.97853 0.29809 0.0
H166 H 0.81103 0.42091 0.24406 0.0
H167 H 0.69303 0.51166 0.22039 0.0
H168 H 0.75472 0.55319 0.25174 0.0
H169 H 0.84763 0.44957 0.32233 0.0
H170 H 0.92598 0.43673 0.31976 0.0
H171 H 0.87045 0.41257 0.29745 0.0
H172 H 0.92937 0.42703 0.24755 0.0
H173 H 0.98541 0.45076 0.26976 0.0
H174 H 0.94784 0.47393 0.2386 0.0
H175 H 0.82612 0.58487 0.28502 0.0
H176 H 0.91459 0.60867 0.31199 0.0
H177 H 0.9948 0.49996 0.31237 0.0
C178 C 0.79827 0.44951 0.24572 0.0
C179 C 0.74697 0.4631 0.22997 0.0
C180 C 0.73214 0.50074 0.23216 0.0
C181 C 0.76659 0.52447 0.25015 0.0
C182 C 0.81649 0.51036 0.26552 0.0
C183 C 0.83339 0.47402 0.26307 0.0
C184 C 0.89248 0.46719 0.27997 0.0
C185 C 0.88358 0.43989 0.30645 0.0
C186 C 0.94168 0.45395 0.25764 0.0
C187 C 0.90601 0.50546 0.29205 0.0
C188 C 0.86052 0.5295 0.28384 0.0
C189 C 0.86218 0.56641 0.29151 0.0
C190 C 0.91275 0.57964 0.30688 0.0
C191 C 0.96185 0.55629 0.31422 0.0
C192 C 0.95769 0.51837 0.30746 0.0
H193 H 0.75314 0.01645 0.21239 0.0
H194 H 0.75353 0.11832 0.264 0.0
H195 H 0.6742 0.09426 0.29782 0.0
H196 H 0.59106 1.00096 0.21707 0.0
H197 H 0.59857 0.95201 0.22131 0.0
H198 H 0.65474 0.97744 0.2004 0.0
H199 H 0.73768 0.95106 0.23595 0.0
H200 H 0.6817 0.92579 0.25711 0.0
H201 H 0.73112 0.95692 0.27693 0.0
H202 H 0.59684 0.05913 0.32723 0.0
H203 H 0.52281 0.01599 0.3488 0.0
H204 H 0.57084 0.9364 0.27864 0.0
C205 C 0.73618 0.03383 0.23062 0.0
C206 C 0.76006 0.06936 0.23542 0.0
C207 C 0.73655 0.09101 0.25976 0.0
C208 C 0.69132 0.07758 0.2792 0.0
C209 C 0.6696 0.04236 0.27418 0.0
C210 C 0.69083 0.0208 0.25041 0.0
C211 C 0.65964 0.98377 0.25036 0.0
C212 C 0.62387 0.97823 0.22051 0.0
C213 C 0.70526 0.95255 0.25539 0.0
C214 C 0.61786 0.98798 0.27783 0.0
C215 C 0.62452 0.02201 0.29122 0.0
C216 C 0.59109 0.03241 0.3169 0.0
C217 C 0.54915 0.00759 0.32906 0.0
C218 C 0.54068 0.97261 0.31557 0.0
C219 C 0.5761 0.96278 0.28967 0.0
H220 H 0.56012 0.56531 0.75349 0.0
H221 H 0.58326 0.52707 0.84726 0.0
H222 H 0.67182 0.49118 0.83124 0.0
H223 H 0.59846 0.48048 0.71755 0.0
H224 H 0.63797 0.50078 0.68563 0.0
H225 H 0.57834 0.52576 0.70443 0.0
H226 H 0.65116 0.57976 0.71433 0.0
H227 H 0.71111 0.55491 0.69557 0.0
H228 H 0.72108 0.57147 0.73421 0.0
H229 H 0.75402 0.45767 0.80583 0.0
H230 H 0.82542 0.42606 0.77196 0.0
H231 H 0.75236 0.48414 0.69321 0.0
C232 C 0.5843 0.54975 0.77071 0.0
C233 C 0.5646 0.54925 0.80177 0.0
C234 C 0.59711 0.52802 0.82341 0.0
C235 C 0.64774 0.50759 0.81455 0.0
C236 C 0.6656 0.50847 0.78388 0.0
C237 C 0.63505 0.52885 0.76218 0.0
C238 C 0.66271 0.52332 0.73045 0.0
C239 C 0.61662 0.50659 0.70821 0.0
C240 C 0.68802 0.55953 0.7179 0.0
C241 C 0.71309 0.49631 0.73776 0.0
C242 C 0.71373 0.48851 0.76885 0.0
C243 C 0.75415 0.46363 0.78149 0.0
C244 C 0.79446 0.44569 0.76192 0.0
C245 C 0.79458 0.45243 0.72982 0.0
C246 C 0.75385 0.47866 0.71763 0.0
H247 H 0.76719 0.07703 0.76171 0.0
H248 H 0.70937 1.00146 0.69061 0.0
H249 H 0.78065 0.95515 0.7103 0.0
H250 H 0.92495 0.05142 0.76005 0.0
H251 H 0.93469 0.05615 0.80094 0.0
H252 H 0.87911 0.08349 0.78128 0.0
H253 H 0.79673 0.05909 0.81812 0.0
H254 H 0.85198 0.03139 0.83769 0.0
H255 H 0.78562 0.01035 0.82176 0.0
H256 H 0.85623 0.91664 0.73786 0.0
H257 H 0.93677 0.88944 0.76913 0.0
H258 H 0.94802 0.98961 0.82269 0.0
C259 C 0.76958 0.05081 0.75015 0.0
C260 C 0.73229 0.04302 0.72451 0.0
C261 C 0.73727 0.00829 0.71015 0.0
C262 C 0.77752 0.98169 0.72127 0.0
C263 C 0.81282 0.99012 0.74675 0.0
C264 C 0.80975 0.02391 0.76088 0.0
C265 C 0.85361 0.02601 0.78763 0.0
C266 C 0.90089 0.05605 0.78214 0.0
C267 C 0.81996 0.03206 0.8181 0.0
C268 C 0.8818 0.98805 0.78632 0.0
C269 C 0.8572 0.96786 0.76261 0.0
C270 C 0.87593 0.93223 0.75642 0.0
C271 C 0.92188 0.91701 0.77443 0.0
C272 C 0.94917 0.93728 0.79848 0.0
C273 C 0.92796 0.9732 0.80472 0.0
H274 H 0.24012 0.57392 0.76401 0.0
H275 H 0.31033 0.49222 0.82725 0.0
H276 H 0.24306 0.44599 0.80449 0.0
H277 H 0.08537 0.54206 0.76604 0.0
H278 H 0.07193 0.55174 0.72604 0.0
H279 H 0.12587 0.57847 0.74719 0.0
H280 H 0.20772 0.56239 0.70691 0.0
H281 H 0.1542 0.53521 0.68584 0.0
H282 H 0.22402 0.51498 0.69861 0.0
H283 H 0.17169 0.40818 0.77415 0.0
H284 H 0.09169 0.38204 0.7422 0.0
H285 H 0.06349 0.48811 0.69899 0.0
C286 C 0.24121 0.54634 0.77318 0.0
C287 C 0.28088 0.53675 0.79744 0.0
C288 C 0.28041 0.50038 0.80883 0.0
C289 C 0.24259 0.47382 0.7959 0.0
C290 C 0.20501 0.48404 0.77172 0.0
C291 C 0.20325 0.5195 0.76073 0.0
C292 C 0.15717 0.52332 0.7351 0.0
C293 C 0.10712 0.5505 0.74414 0.0
C294 C 0.18762 0.53465 0.70482 0.0
C295 C 0.13345 0.48437 0.73337 0.0
C296 C 0.1623 0.46223 0.75456 0.0
C297 C 0.14853 0.42528 0.75761 0.0
C298 C 0.10288 0.41069 0.73921 0.0
C299 C 0.07074 0.43294 0.71802 0.0
C300 C 0.08728 0.47023 0.71472 0.0
H301 H 0.27647 0.92398 0.77562 0.0
H302 H 0.19373 0.00828 0.83226 0.0
H303 H 0.26097 0.05438 0.80916 0.0
H304 H 0.42833 0.95926 0.78054 0.0
H305 H 0.44738 0.94724 0.74157 0.0
H306 H 0.39225 0.92082 0.7623 0.0
H307 H 0.31497 0.93247 0.71884 0.0
H308 H 0.36966 0.95934 0.69818 0.0
H309 H 0.29734 0.97888 0.70774 0.0
H310 H 0.33488 0.09142 0.77985 0.0
H311 H 0.41849 0.11693 0.74975 0.0
H312 H 0.45654 0.00918 0.71197 0.0
C313 C 0.27253 0.95212 0.78326 0.0
C314 C 0.22945 0.96245 0.80579 0.0
C315 C 0.22627 0.99956 0.81519 0.0
C316 C 0.26407 0.02602 0.80204 0.0
C317 C 0.30515 0.01501 0.77961 0.0
C318 C 0.31027 0.97893 0.77051 0.0
C319 C 0.35973 0.97439 0.74657 0.0
C320 C 0.4099 0.94892 0.75846 0.0
C321 C 0.33386 0.96045 0.71602 0.0
C322 C 0.38162 0.01364 0.74368 0.0
C323 C 0.34894 0.03651 0.76283 0.0
C324 C 0.36088 0.07378 0.76485 0.0
C325 C 0.40859 0.08799 0.74759 0.0
C326 C 0.44434 0.06509 0.7285 0.0
C327 C 0.42971 0.02747 0.72605 0.0
H328 H 0.02505 0.56725 0.45738 0.0
H329 H 0.14751 0.48063 0.42894 0.0
H330 H 0.12806 0.44791 0.47747 0.0
H331 H 0.0643 0.56622 0.53817 0.0
H332 H 0.98835 0.57397 0.55145 0.0
H333 H 0.01172 0.59124 0.51454 0.0
H334 H 0.9239 0.55669 0.48848 0.0
H335 H 0.9001 0.53946 0.52532 0.0
H336 H 0.91611 0.50803 0.49443 0.0
H337 H 0.09655 0.42441 0.52843 0.0
H338 H 0.05144 0.40944 0.5783 0.0
H339 H 0.94708 0.51028 0.57559 0.0
C340 C 0.04771 0.54136 0.46137 0.0
C341 C 0.088 0.52655 0.4392 0.0
C342 C 0.11654 0.49259 0.44538 0.0
C343 C 0.10587 0.47381 0.47299 0.0
C344 C 0.06636 0.4892 0.49435 0.0
C345 C 0.03737 0.52208 0.48892 0.0
C346 C 0.99627 0.53199 0.51578 0.0
C347 C 0.01638 0.568 0.53088 0.0
C348 C 0.93017 0.53416 0.50538 0.0
C349 C 0.0067 0.49947 0.53707 0.0
C350 C 0.04759 0.47533 0.5241 0.0
C351 C 0.06448 0.44309 0.5388 0.0
C352 C 0.03843 0.43485 0.56726 0.0
C353 C 0.99555 0.4586 0.5811 0.0
C354 C 0.98 0.49167 0.56583 0.0
H355 H 0.48726 0.95009 0.46417 0.0
H356 H 0.37024 0.03842 0.43377 0.0
H357 H 0.38907 0.07135 0.48233 0.0
H358 H 0.44376 0.95193 0.54382 0.0
H359 H 0.5185 0.94278 0.55812 0.0
H360 H 0.49651 0.92606 0.52088 0.0
H361 H 0.58744 0.95915 0.49608 0.0
H362 H 0.6099 0.97581 0.53325 0.0
H363 H 0.59721 0.00762 0.50223 0.0
H364 H 0.41912 0.09443 0.53437 0.0
H365 H 0.4614 0.10756 0.58542 0.0
H366 H 0.5604 0.0048 0.58286 0.0
C367 C 0.46576 0.97643 0.46766 0.0
C368 C 0.42715 0.99165 0.44501 0.0
C369 C 0.39998 0.02618 0.45062 0.0
C370 C 0.41033 0.04508 0.47821 0.0
C371 C 0.44813 0.02922 0.5001 0.0
C372 C 0.47575 0.99577 0.49512 0.0
C373 C 0.5147 0.98502 0.52243 0.0
C374 C 0.49199 0.94933 0.53718 0.0
C375 C 0.58126 0.98171 0.51292 0.0
C376 C 0.50458 0.01762 0.54357 0.0
C377 C 0.46584 0.04268 0.53018 0.0
C378 C 0.44953 0.07501 0.54504 0.0
C379 C 0.4738 0.08219 0.57415 0.0
C380 C 0.51424 0.05726 0.58836 0.0
C381 C 0.52944 0.02438 0.57278 0.0
H382 H 0.52695 0.44213 0.05989 0.0
H383 H 0.63325 0.53434 0.09166 0.0
H384 H 0.61066 0.56757 0.0439 0.0
H385 H 0.56973 0.44837 0.97989 0.0
H386 H 0.49616 0.43692 0.96534 0.0
H387 H 0.52006 0.41974 1.00217 0.0
H388 H 0.42562 0.4484 0.02768 0.0
H389 H 0.40132 0.46554 0.99091 0.0
H390 H 0.41046 0.4966 0.02272 0.0
H391 H 0.57865 0.59102 0.99301 0.0
H392 H 0.53569 0.6045 0.94222 0.0
H393 H 0.44787 0.49828 0.94183 0.0
C394 C 0.54531 0.46934 0.05679 0.0
C395 C 0.58204 0.48554 0.07969 0.0
C396 C 0.60507 0.52123 0.07464 0.0
C397 C 0.59256 0.5404 0.04749 0.0
C398 C 0.55668 0.5237 0.02538 0.0
C399 C 0.53302 0.48909 0.02965 0.0
C400 C 0.49528 0.47791 1.00203 0.0
C401 C 0.52191 0.4437 0.98644 0.0
C402 C 0.42925 0.47176 1.0114 0.0
C403 C 0.5017 0.51162 0.98167 0.0
C404 C 0.53753 0.53755 0.99572 0.0
C405 C 0.55044 0.57096 0.98178 0.0
C406 C 0.52579 0.57833 0.95281 0.0
C407 C 0.48833 0.55253 0.93785 0.0
C408 C 0.47641 0.51858 0.95255 0.0
H409 H 0.055 0.00419 0.94613 0.0
H410 H 0.95375 0.90262 0.94464 0.0
H411 H 0.91018 0.91755 0.99521 0.0
H412 H 0.0904 1.00202 0.02639 0.0
H413 H 0.08252 0.05073 0.03204 0.0
H414 H 0.10426 0.03313 0.995 0.0
H415 H 0.01454 0.06717 0.96981 0.0
H416 H 0.9927 0.08504 1.00676 0.0
H417 H 0.9393 0.05961 0.98411 0.0
H418 H 0.87935 0.94227 0.0468 0.0
H419 H 0.86175 0.97592 0.09518 0.0
H420 H 0.98271 0.06169 0.06432 0.0
C421 C 0.02309 0.98532 0.95628 0.0
C422 C 0.00767 0.95222 0.94116 0.0
C423 C 0.96627 0.92815 0.95554 0.0
C424 C 0.94124 0.93637 0.98437 0.0
C425 C 0.95789 0.96886 0.99882 0.0
C426 C 0.99768 0.99308 0.98527 0.0
C427 C 0.00871 0.0258 1.00616 0.0
C428 C 0.07544 0.02803 0.01544 0.0
C429 C 0.98754 0.06152 0.99079 0.0
C430 C 0.96912 0.01607 0.03352 0.0
C431 C 0.94022 0.9831 0.02875 0.0
C432 C 0.90162 0.96819 0.05074 0.0
C433 C 0.89196 0.98751 0.07824 0.0
C434 C 0.92072 0.02149 0.08374 0.0
C435 C 0.95997 0.03579 0.06094 0.0
H436 H 0.2804 0.66478 0.37493 0.0
H437 H 0.09089 0.69446 0.37582 0.0
H438 H 0.11776 0.75973 0.37779 0.0
H439 H 0.3335 0.73818 0.42509 0.0
H440 H 0.40146 0.74639 0.40347 0.0
H441 H 0.36824 0.70139 0.40379 0.0
H442 H 0.36393 0.70206 0.34439 0.0
H443 H 0.39686 0.74715 0.3439 0.0
H444 H 0.32584 0.73916 0.32505 0.0
H445 H 0.16274 0.82106 0.38043 0.0
H446 H 0.2247 0.87685 0.38129 0.0
H447 H 0.38696 0.81058 0.3748 0.0
C448 C 0.24485 0.68514 0.37595 0.0
C449 C 0.18346 0.67459 0.37554 0.0
C450 C 0.13811 0.70193 0.37618 0.0
C451 C 0.15289 0.73911 0.37733 0.0
C452 C 0.21345 0.74878 0.37733 0.0
C453 C 0.25894 0.72283 0.37643 0.0
C454 C 0.3203 0.74141 0.37528 0.0
C455 C 0.3581 0.73123 0.4036 0.0
C456 C 0.3537 0.73187 0.34537 0.0
C457 C 0.30182 0.78164 0.37592 0.0
C458 C 0.23985 0.78496 0.37737 0.0
C459 C 0.21132 0.8189 0.37915 0.0
C460 C 0.24694 0.85045 0.37968 0.0
C461 C 0.31053 0.84809 0.378 0.0
C462 C 0.33837 0.81318 0.37577 0.0
H463 H 0.746 0.16576 0.16731 0.0
H464 H 0.92268 0.18836 0.12937 0.0
H465 H 0.89608 0.25396 0.12459 0.0
H466 H 0.65995 0.23088 0.12285 0.0
H467 H 0.61234 0.24499 0.1543 0.0
H468 H 0.64405 0.19949 0.1538 0.0
H469 H 0.69142 0.21066 0.20725 0.0
H470 H 0.65993 0.25625 0.20789 0.0
H471 H 0.73984 0.24966 0.21289 0.0
H472 H 0.85053 0.3162 0.12267 0.0
H473 H 0.79063 0.37291 0.12603 0.0
H474 H 0.6443 0.31253 0.16859 0.0
C475 C 0.77862 0.18464 0.15776 0.0
C476 C 0.83614 0.17218 0.14825 0.0
C477 C 0.87838 0.19753 0.13658 0.0
C478 C 0.86365 0.23477 0.13379 0.0
C479 C 0.80684 0.2464 0.14345 0.0
C480 C 0.76511 0.2223 0.15556 0.0
C481 C 0.7084 0.24266 0.16554 0.0
C482 C 0.6529 0.22867 0.14806 0.0
C483 C 0.69937 0.23962 0.20046 0.0
C484 C 0.72419 0.28168 0.15625 0.0
C485 C 0.78129 0.28301 0.14359 0.0
C486 C 0.80593 0.31558 0.13272 0.0
C487 C 0.77141 0.3477 0.13472 0.0
C488 C 0.71278 0.34732 0.14765 0.0
C489 C 0.68909 0.31378 0.15876 0.0
H490 H 0.75676 0.16272 0.65025 0.0
H491 H 0.57411 0.20286 0.66206 0.0
H492 H 0.61012 0.26656 0.65758 0.0
H493 H 0.82448 0.23281 0.69688 0.0
H494 H 0.89171 0.23659 0.67383 0.0
H495 H 0.8514 0.19386 0.67535 0.0
H496 H 0.84226 0.19401 0.61606 0.0
H497 H 0.88252 0.23678 0.61437 0.0
H498 H 0.80909 0.23304 0.59704 0.0
H499 H 0.66481 0.32581 0.65021 0.0
H500 H 0.73693 0.37736 0.64696 0.0
H501 H 0.8857 0.30013 0.64595 0.0
C502 C 0.72455 0.18502 0.65155 0.0
C503 C 0.66258 0.17802 0.65611 0.0
C504 C 0.62174 0.20776 0.65845 0.0
C505 C 0.6417 0.244 0.65582 0.0
C506 C 0.70297 0.25018 0.65147 0.0
C507 C 0.74406 0.22164 0.64986 0.0
C508 C 0.80791 0.23622 0.64733 0.0
C509 C 0.84611 0.22415 0.675 0.0
C510 C 0.83716 0.2243 0.61689 0.0
C511 C 0.79609 0.27725 0.64779 0.0
C512 C 0.73509 0.28464 0.64952 0.0
C513 C 0.71273 0.32042 0.64909 0.0
C514 C 0.75386 0.34948 0.64713 0.0
C515 C 0.81654 0.34259 0.64641 0.0
C516 C 0.83787 0.30603 0.64679 0.0
H517 H 0.29795 0.67828 0.82451 0.0
H518 H 0.36505 0.67014 0.91767 0.0
H519 H 0.32207 0.73104 0.92959 0.0
H520 H 0.31755 0.77696 0.81461 0.0
H521 H 0.24791 0.78315 0.79397 0.0
H522 H 0.28759 0.74006 0.7918 0.0
H523 H 0.19191 0.70605 0.81029 0.0
H524 H 0.15194 0.74901 0.81246 0.0
H525 H 0.15634 0.71973 0.84574 0.0
H526 H 0.27363 0.79282 0.93146 0.0
H527 H 0.21327 0.8492 0.92494 0.0
H528 H 0.16871 0.81621 0.83202 0.0
C529 C 0.30391 0.68966 0.84725 0.0
C530 C 0.33529 0.66987 0.87016 0.0
C531 C 0.3413 0.68506 0.89987 0.0
C532 C 0.31724 0.71964 0.90679 0.0
C533 C 0.28628 0.73852 0.88389 0.0
C534 C 0.27871 0.72398 0.85483 0.0
C535 C 0.23989 0.74916 0.83521 0.0
C536 C 0.27537 0.76316 0.80724 0.0
C537 C 0.18156 0.72983 0.82535 0.0
C538 C 0.22698 0.77998 0.8578 0.0
C539 C 0.25512 0.77346 0.88555 0.0
C540 C 0.2511 0.79815 0.90989 0.0
C541 C 0.21684 0.83018 0.90594 0.0
C542 C 0.18603 0.83705 0.87808 0.0
C543 C 0.19143 0.81158 0.85367 0.0
loop_
_geom_bond_atom_site_label_1
_geom_bond_atom_site_label_2
_geom_bond_distance
_geom_bond_site_symmetry_2
_ccdc_geom_bond_type
Co0 O1 2.216 . S
Co0 O2 2.091 . S
Co0 O4 2.004 . S
Co0 O10 2.021 . S
Co0 O12 2.137 . S
Co0 O13 2.244 . S
O1 Co0 2.216 . S
O1 C8 1.247 . S
O2 Co0 2.091 . S
O2 C8 1.261 . S
C3 O12 1.247 . S
C3 O13 1.272 . S
O4 Co0 2.004 . S
O4 C9 1.259 . S
Co5 O6 2.061 . S
Co5 O11 2.052 . S
Co5 O13 2.135 . S
O6 Co5 2.061 . S
O6 C9 1.235 . S
C7 O10 1.238 . S
C7 O11 1.241 . S
C8 O1 1.247 . S
C8 O2 1.261 . S
C9 O4 1.259 . S
C9 O6 1.235 . S
O10 Co0 2.021 . S
O10 C7 1.238 . S
O11 Co5 2.052 . S
O11 C7 1.241 . S
O12 Co0 2.137 . S
O12 C3 1.247 . S
O13 Co0 2.244 . S
O13 C3 1.272 . S
O13 Co5 2.135 . S
Co14 O15 2.216 . S
Co14 O16 2.091 . S
Co14 O18 2.004 . S
Co14 O24 2.021 . S
Co14 O26 2.137 . S
Co14 O27 2.244 . S
O15 Co14 2.216 . S
O15 C22 1.247 . S
O16 Co14 2.091 . S
O16 C22 1.261 . S
C17 O26 1.247 . S
C17 O27 1.272 . S
O18 Co14 2.004 . S
O18 C23 1.259 . S
Co19 O20 2.061 . S
Co19 O25 2.052 . S
Co19 O27 2.135 . S
O20 Co19 2.061 . S
O20 C23 1.235 . S
C21 O24 1.238 . S
C21 O25 1.241 . S
C22 O15 1.247 . S
C22 O16 1.261 . S
C23 O18 1.259 . S
C23 O20 1.235 . S
O24 Co14 2.021 . S
O24 C21 1.238 . S
O25 Co19 2.052 . S
O25 C21 1.241 . S
O26 Co14 2.137 . S
O26 C17 1.247 . S
O27 Co14 2.244 . S
O27 C17 1.272 . S
O27 Co19 2.135 . S
Co28 O29 2.216 . S
Co28 O30 2.091 . S
Co28 O32 2.004 . S
Co28 O38 2.021 . S
Co28 O40 2.137 . S
Co28 O41 2.244 . S
O29 Co28 2.216 . S
O29 C36 1.247 . S
O30 Co28 2.091 . S
O30 C36 1.261 . S
C31 O40 1.247 . S
C31 O41 1.272 . S
O32 Co28 2.004 . S
O32 C37 1.259 . S
Co33 O34 2.061 . S
Co33 O39 2.052 . S
Co33 O41 2.135 . S
O34 Co33 2.061 . S
O34 C37 1.235 . S
C35 O38 1.238 . S
C35 O39 1.241 . S
C36 O29 1.247 . S
C36 O30 1.261 . S
C37 O32 1.259 . S
C37 O34 1.235 . S
O38 Co28 2.021 . S
O38 C35 1.238 . S
O39 Co33 2.052 . S
O39 C35 1.241 . S
O40 Co28 2.137 . S
O40 C31 1.247 . S
O41 Co28 2.244 . S
O41 C31 1.272 . S
O41 Co33 2.135 . S
Co42 O43 2.216 . S
Co42 O44 2.091 . S
Co42 O46 2.004 . S
Co42 O52 2.021 . S
Co42 O54 2.137 . S
Co42 O55 2.244 . S
O43 Co42 2.216 . S
O43 C50 1.247 . S
O44 Co42 2.091 . S
O44 C50 1.261 . S
C45 O54 1.247 . S
C45 O55 1.272 . S
O46 Co42 2.004 . S
O46 C51 1.259 . S
Co47 O48 2.061 . S
Co47 O53 2.052 . S
Co47 O55 2.135 . S
O48 Co47 2.061 . S
O48 C51 1.235 . S
C49 O52 1.238 . S
C49 O53 1.241 . S
C50 O43 1.247 . S
C50 O44 1.261 . S
C51 O46 1.259 . S
C51 O48 1.235 . S
O52 Co42 2.021 . S
O52 C49 1.238 . S
O53 Co47 2.052 . S
O53 C49 1.241 . S
O54 Co42 2.137 . S
O54 C45 1.247 . S
O55 Co42 2.244 . S
O55 C45 1.272 . S
O55 Co47 2.135 . S
Co56 O57 2.216 . S
Co56 O58 2.091 . S
Co56 O60 2.004 . S
Co56 O66 2.021 . S
Co56 O68 2.137 . S
Co56 O69 2.244 . S
O57 Co56 2.216 . S
O57 C64 1.247 . S
O58 Co56 2.091 . S
O58 C64 1.261 . S
C59 O68 1.247 . S
C59 O69 1.272 . S
O60 Co56 2.004 . S
O60 C65 1.259 . S
Co61 O62 2.061 . S
Co61 O67 2.052 . S
Co61 O69 2.135 . S
O62 Co61 2.061 . S
O62 C65 1.235 . S
C63 O66 1.238 . S
C63 O67 1.241 . S
C64 O57 1.247 . S
C64 O58 1.261 . S
C65 O60 1.259 . S
C65 O62 1.235 . S
O66 Co56 2.021 . S
O66 C63 1.238 . S
O67 Co61 2.052 . S
O67 C63 1.241 . S
O68 Co56 2.137 . S
O68 C59 1.247 . S
O69 Co56 2.244 . S
O69 C59 1.272 . S
O69 Co61 2.135 . S
Co70 O71 2.216 . S
Co70 O72 2.091 . S
Co70 O74 2.004 . S
Co70 O80 2.021 . S
Co70 O82 2.137 . S
Co70 O83 2.244 . S
O71 Co70 2.216 . S
O71 C78 1.247 . S
O72 Co70 2.091 . S
O72 C78 1.261 . S
C73 O82 1.247 . S
C73 O83 1.272 . S
O74 Co70 2.004 . S
O74 C79 1.259 . S
Co75 O76 2.061 . S
Co75 O81 2.052 . S
Co75 O83 2.135 . S
O76 Co75 2.061 . S
O76 C79 1.235 . S
C77 O80 1.238 . S
C77 O81 1.241 . S
C78 O71 1.247 . S
C78 O72 1.261 . S
C79 O74 1.259 . S
C79 O76 1.235 . S
O80 Co70 2.021 . S
O80 C77 1.238 . S
O81 Co75 2.052 . S
O81 C77 1.241 . S
O82 Co70 2.137 . S
O82 C73 1.247 . S
O83 Co70 2.244 . S
O83 C73 1.272 . S
O83 Co75 2.135 . S
Co84 O85 2.216 . S
Co84 O86 2.091 . S
Co84 O88 2.004 . S
Co84 O94 2.021 . S
Co84 O96 2.137 . S
Co84 O97 2.244 . S
O85 Co84 2.216 . S
O85 C92 1.247 . S
O86 Co84 2.091 . S
O86 C92 1.261 . S
C87 O96 1.247 . S
C87 O97 1.272 . S
O88 Co84 2.004 . S
O88 C93 1.259 . S
Co89 O90 2.061 . S
Co89 O95 2.052 . S
Co89 O97 2.135 . S
O90 Co89 2.061 . S
O90 C93 1.235 . S
C91 O94 1.238 . S
C91 O95 1.241 . S
C92 O85 1.247 . S
C92 O86 1.261 . S
C93 O88 1.259 . S
C93 O90 1.235 . S
O94 Co84 2.021 . S
O94 C91 1.238 . S
O95 Co89 2.052 . S
O95 C91 1.241 . S
O96 Co84 2.137 . S
O96 C87 1.247 . S
O97 Co84 2.244 . S
O97 C87 1.272 . S
O97 Co89 2.135 . S
Co98 O99 2.216 . S
Co98 O100 2.091 . S
Co98 O102 2.004 . S
Co98 O108 2.021 . S
Co98 O110 2.137 . S
Co98 O111 2.244 . S
O99 Co98 2.216 . S
O99 C106 1.247 . S
O100 Co98 2.091 . S
O100 C106 1.261 . S
C101 O110 1.247 . S
C101 O111 1.272 . S
O102 Co98 2.004 . S
O102 C107 1.259 . S
Co103 O104 2.061 . S
Co103 O109 2.052 . S
Co103 O111 2.135 . S
O104 Co103 2.061 . S
O104 C107 1.235 . S
C105 O108 1.238 . S
C105 O109 1.241 . S
C106 O99 1.247 . S
C106 O100 1.261 . S
C107 O102 1.259 . S
C107 O104 1.235 . S
O108 Co98 2.021 . S
O108 C105 1.238 . S
O109 Co103 2.052 . S
O109 C105 1.241 . S
O110 Co98 2.137 . S
O110 C101 1.247 . S
O111 Co98 2.244 . S
O111 C101 1.272 . S
O111 Co103 2.135 . S
H112 C124 0.930 . S
H113 C126 0.930 . S
H114 C127 0.930 . S
H115 C131 0.959 . S
H116 C131 0.959 . S
H117 C131 0.961 . S
H118 C132 0.960 . S
H119 C132 0.961 . S
H120 C132 0.959 . S
H121 C135 0.929 . S
H122 C136 0.931 . S
H123 C138 0.930 . S
C124 H112 0.930 . S
C124 C125 1.399 . S
C124 C129 1.399 . S
C125 C124 1.399 . S
C125 C126 1.376 . S
C126 H113 0.930 . S
C126 C125 1.376 . S
C126 C127 1.388 . S
C127 H114 0.930 . S
C127 C126 1.388 . S
C127 C128 1.390 . S
C128 C127 1.390 . S
C128 C129 1.394 . S
C128 C134 1.465 . S
C129 C124 1.399 . S
C129 C128 1.394 . S
C129 C130 1.516 . S
C130 C129 1.516 . S
C130 C131 1.502 . S
C130 C132 1.561 . S
C130 C133 1.526 . S
C131 H115 0.959 . S
C131 H116 0.959 . S
C131 H117 0.961 . S
C131 C130 1.502 . S
C132 H118 0.960 . S
C132 H119 0.961 . S
C132 H120 0.959 . S
C132 C130 1.561 . S
C133 C130 1.526 . S
C133 C134 1.396 . S
C133 C138 1.390 . S
C134 C128 1.465 . S
C134 C133 1.396 . S
C134 C135 1.399 . S
C135 H121 0.929 . S
C135 C134 1.399 . S
C135 C136 1.385 . S
C136 H122 0.931 . S
C136 C135 1.385 . S
C136 C137 1.389 . S
C137 C136 1.389 . S
C137 C138 1.387 . S
C138 H123 0.930 . S
C138 C133 1.390 . S
C138 C137 1.387 . S
H139 C151 0.930 . S
H140 C153 0.930 . S
H141 C154 0.930 . S
H142 C158 0.959 . S
H143 C158 0.959 . S
H144 C158 0.961 . S
H145 C159 0.960 . S
H146 C159 0.961 . S
H147 C159 0.959 . S
H148 C162 0.929 . S
H149 C163 0.931 . S
H150 C165 0.930 . S
C151 H139 0.930 . S
C151 C152 1.399 1_455 S
C151 C156 1.399 . S
C152 C151 1.399 1_655 S
C152 C153 1.376 1_545 S
C153 H140 0.930 . S
C153 C152 1.376 1_565 S
C153 C154 1.388 1_655 S
C154 H141 0.930 . S
C154 C153 1.388 1_455 S
C154 C155 1.390 . S
C155 C154 1.390 . S
C155 C156 1.394 1_565 S
C155 C161 1.465 . S
C156 C151 1.399 . S
C156 C155 1.394 1_545 S
C156 C157 1.516 . S
C157 C156 1.516 . S
C157 C158 1.502 . S
C157 C159 1.561 . S
C157 C160 1.526 . S
C158 H142 0.959 . S
C158 H143 0.959 . S
C158 H144 0.961 . S
C158 C157 1.502 . S
C159 H145 0.960 . S
C159 H146 0.961 . S
C159 H147 0.959 . S
C159 C157 1.561 . S
C160 C157 1.526 . S
C160 C161 1.396 1_545 S
C160 C165 1.390 . S
C161 C155 1.465 . S
C161 C160 1.396 1_565 S
C161 C162 1.399 . S
C162 H148 0.929 . S
C162 C161 1.399 . S
C162 C163 1.385 . S
C163 H149 0.931 . S
C163 C162 1.385 . S
C163 C164 1.389 . S
C164 C163 1.389 . S
C164 C165 1.387 1_565 S
C165 H150 0.930 . S
C165 C160 1.390 . S
C165 C164 1.387 1_545 S
H166 C178 0.930 . S
H167 C180 0.930 . S
H168 C181 0.930 . S
H169 C185 0.959 . S
H170 C185 0.959 . S
H171 C185 0.961 . S
H172 C186 0.960 . S
H173 C186 0.961 . S
H174 C186 0.959 . S
H175 C189 0.929 . S
H176 C190 0.933 . S
H177 C192 0.930 . S
C178 H166 0.930 . S
C178 C179 1.399 . S
C178 C183 1.399 . S
C179 C178 1.399 . S
C179 C180 1.376 . S
C180 H167 0.930 . S
C180 C179 1.376 . S
C180 C181 1.388 . S
C181 H168 0.930 . S
C181 C180 1.388 . S
C181 C182 1.390 . S
C182 C181 1.390 . S
C182 C183 1.394 . S
C182 C188 1.465 . S
C183 C178 1.399 . S
C183 C182 1.394 . S
C183 C184 1.516 . S
C184 C183 1.516 . S
C184 C185 1.502 . S
C184 C186 1.561 . S
C184 C187 1.526 . S
C185 H169 0.959 . S
C185 H170 0.959 . S
C185 H171 0.961 . S
C185 C184 1.502 . S
C186 H172 0.960 . S
C186 H173 0.961 . S
C186 H174 0.959 . S
C186 C184 1.561 . S
C187 C184 1.526 . S
C187 C188 1.396 . S
C187 C192 1.390 . S
C188 C182 1.465 . S
C188 C187 1.396 . S
C188 C189 1.399 . S
C189 H175 0.929 . S
C189 C188 1.399 . S
C189 C190 1.385 . S
C190 H176 0.933 . S
C190 C189 1.385 . S
C190 C191 1.387 1_655 S
C191 C190 1.387 1_455 S
C191 C192 1.383 1_455 S
C192 H177 0.930 . S
C192 C187 1.390 . S
C192 C191 1.383 1_655 S
H193 C205 0.930 . S
H194 C207 0.930 . S
H195 C208 0.930 . S
H196 C212 0.959 . S
H197 C212 0.959 . S
H198 C212 0.961 . S
H199 C213 0.960 . S
H200 C213 0.961 . S
H201 C213 0.959 . S
H202 C216 0.929 . S
H203 C217 0.931 . S
H204 C219 0.930 . S
C205 H193 0.930 . S
C205 C206 1.399 1_565 S
C205 C210 1.399 . S
C206 C205 1.399 1_545 S
C206 C207 1.376 . S
C207 H194 0.930 . S
C207 C206 1.376 . S
C207 C208 1.388 . S
C208 H195 0.930 . S
C208 C207 1.388 . S
C208 C209 1.390 . S
C209 C208 1.390 . S
C209 C210 1.394 1_545 S
C209 C215 1.465 . S
C210 C205 1.399 . S
C210 C209 1.394 1_565 S
C210 C211 1.516 . S
C211 C210 1.516 . S
C211 C212 1.502 . S
C211 C213 1.561 . S
C211 C214 1.526 . S
C212 H196 0.959 . S
C212 H197 0.959 . S
C212 H198 0.961 . S
C212 C211 1.502 . S
C213 H199 0.960 . S
C213 H200 0.961 . S
C213 H201 0.959 . S
C213 C211 1.561 . S
C214 C211 1.526 . S
C214 C215 1.396 1_565 S
C214 C219 1.390 . S
C215 C209 1.465 . S
C215 C214 1.396 1_545 S
C215 C216 1.399 . S
C216 H202 0.929 . S
C216 C215 1.399 . S
C216 C217 1.385 . S
C217 H203 0.931 . S
C217 C216 1.385 . S
C217 C218 1.389 1_545 S
C218 C217 1.389 1_565 S
C218 C219 1.387 . S
C219 H204 0.930 . S
C219 C214 1.390 . S
C219 C218 1.387 . S
H220 C232 0.930 . S
H221 C234 0.930 . S
H222 C235 0.930 . S
H223 C239 0.959 . S
H224 C239 0.959 . S
H225 C239 0.961 . S
H226 C240 0.960 . S
H227 C240 0.961 . S
H228 C240 0.959 . S
H229 C243 0.929 . S
H230 C244 0.931 . S
H231 C246 0.930 . S
C232 H220 0.930 . S
C232 C233 1.399 . S
C232 C237 1.399 . S
C233 C232 1.399 . S
C233 C234 1.376 . S
C234 H221 0.930 . S
C234 C233 1.376 . S
C234 C235 1.388 . S
C235 H222 0.930 . S
C235 C234 1.388 . S
C235 C236 1.390 . S
C236 C235 1.390 . S
C236 C237 1.394 . S
C236 C242 1.465 . S
C237 C232 1.399 . S
C237 C236 1.394 . S
C237 C238 1.516 . S
C238 C237 1.516 . S
C238 C239 1.502 . S
C238 C240 1.561 . S
C238 C241 1.526 . S
C239 H223 0.959 . S
C239 H224 0.959 . S
C239 H225 0.961 . S
C239 C238 1.502 . S
C240 H226 0.960 . S
C240 H227 0.961 . S
C240 H228 0.959 . S
C240 C238 1.561 . S
C241 C238 1.526 . S
C241 C242 1.396 . S
C241 C246 1.390 . S
C242 C236 1.465 . S
C242 C241 1.396 . S
C242 C243 1.399 . S
C243 H229 0.929 . S
C243 C242 1.399 . S
C243 C244 1.385 . S
C244 H230 0.931 . S
C244 C243 1.385 . S
C244 C245 1.389 . S
C245 C244 1.389 . S
C245 C246 1.387 . S
C246 H231 0.930 . S
C246 C241 1.390 . S
C246 C245 1.387 . S
H247 C259 0.930 . S
H248 C261 0.930 . S
H249 C262 0.930 . S
H250 C266 0.959 . S
H251 C266 0.959 . S
H252 C266 0.961 . S
H253 C267 0.960 . S
H254 C267 0.961 . S
H255 C267 0.959 . S
H256 C270 0.929 . S
H257 C271 0.931 . S
H258 C273 0.930 1_455 S
C259 H247 0.930 . S
C259 C260 1.399 . S
C259 C264 1.399 . S
C260 C259 1.399 . S
C260 C261 1.376 1_545 S
C261 H248 0.930 . S
C261 C260 1.376 1_565 S
C261 C262 1.388 . S
C262 H249 0.930 . S
C262 C261 1.388 . S
C262 C263 1.390 . S
C263 C262 1.390 . S
C263 C264 1.394 1_565 S
C263 C269 1.465 . S
C264 C259 1.399 . S
C264 C263 1.394 1_545 S
C264 C265 1.516 . S
C265 C264 1.516 . S
C265 C266 1.502 . S
C265 C267 1.561 . S
C265 C268 1.526 . S
C266 H250 0.959 . S
C266 H251 0.959 . S
C266 H252 0.961 . S
C266 C265 1.502 . S
C267 H253 0.960 . S
C267 H254 0.961 . S
C267 H255 0.959 . S
C267 C265 1.561 . S
C268 C265 1.526 . S
C268 C269 1.396 1_545 S
C268 C273 1.390 . S
C269 C263 1.465 . S
C269 C268 1.396 1_565 S
C269 C270 1.399 . S
C270 H256 0.929 . S
C270 C269 1.399 . S
C270 C271 1.385 . S
C271 H257 0.931 . S
C271 C270 1.385 . S
C271 C272 1.389 . S
C272 C271 1.389 . S
C272 C273 1.387 1_565 S
C273 H258 0.930 1_655 S
C273 C268 1.390 . S
C273 C272 1.387 1_545 S
H274 C286 0.930 . S
H275 C288 0.930 . S
H276 C289 0.930 . S
H277 C293 0.959 . S
H278 C293 0.959 . S
H279 C293 0.961 . S
H280 C294 0.960 . S
H281 C294 0.961 . S
H282 C294 0.959 . S
H283 C297 0.929 . S
H284 C298 0.930 . S
H285 C300 0.930 . S
C286 H274 0.930 . S
C286 C287 1.399 . S
C286 C291 1.399 . S
C287 C286 1.399 . S
C287 C288 1.376 . S
C288 H275 0.930 . S
C288 C287 1.376 . S
C288 C289 1.388 . S
C289 H276 0.930 . S
C289 C288 1.388 . S
C289 C290 1.390 . S
C290 C289 1.390 . S
C290 C291 1.394 . S
C290 C296 1.465 . S
C291 C286 1.399 . S
C291 C290 1.394 . S
C291 C292 1.516 . S
C292 C291 1.516 . S
C292 C293 1.502 . S
C292 C294 1.561 . S
C292 C295 1.526 . S
C293 H277 0.959 . S
C293 H278 0.959 . S
C293 H279 0.961 . S
C293 C292 1.502 . S
C294 H280 0.960 . S
C294 H281 0.961 . S
C294 H282 0.959 . S
C294 C292 1.561 . S
C295 C292 1.526 . S
C295 C296 1.396 . S
C295 C300 1.390 . S
C296 C290 1.465 . S
C296 C295 1.396 . S
C296 C297 1.399 . S
C297 H283 0.929 . S
C297 C296 1.399 . S
C297 C298 1.385 1_455 S
C298 H284 0.930 . S
C298 C297 1.385 1_655 S
C298 C299 1.389 . S
C299 C298 1.389 . S
C299 C300 1.387 1_655 S
C300 H285 0.930 . S
C300 C295 1.390 . S
C300 C299 1.387 1_455 S
H301 C313 0.930 . S
H302 C315 0.930 . S
H303 C316 0.930 . S
H304 C320 0.959 . S
H305 C320 0.959 . S
H306 C320 0.961 . S
H307 C321 0.960 . S
H308 C321 0.961 . S
H309 C321 0.959 . S
H310 C324 0.929 . S
H311 C325 0.931 . S
H312 C327 0.930 . S
C313 H301 0.930 . S
C313 C314 1.399 . S
C313 C318 1.399 . S
C314 C313 1.399 . S
C314 C315 1.376 1_565 S
C315 H302 0.930 . S
C315 C314 1.376 1_545 S
C315 C316 1.388 . S
C316 H303 0.930 . S
C316 C315 1.388 . S
C316 C317 1.390 . S
C317 C316 1.390 . S
C317 C318 1.394 1_545 S
C317 C323 1.465 . S
C318 C313 1.399 . S
C318 C317 1.394 1_565 S
C318 C319 1.516 . S
C319 C318 1.516 . S
C319 C320 1.502 . S
C319 C321 1.561 . S
C319 C322 1.526 . S
C320 H304 0.959 . S
C320 H305 0.959 . S
C320 H306 0.961 . S
C320 C319 1.502 . S
C321 H307 0.960 . S
C321 H308 0.961 . S
C321 H309 0.959 . S
C321 C319 1.561 . S
C322 C319 1.526 . S
C322 C323 1.396 1_565 S
C322 C327 1.390 . S
C323 C317 1.465 . S
C323 C322 1.396 1_545 S
C323 C324 1.399 . S
C324 H310 0.929 . S
C324 C323 1.399 . S
C324 C325 1.385 . S
C325 H311 0.931 . S
C325 C324 1.385 . S
C325 C326 1.389 . S
C326 C325 1.389 . S
C326 C327 1.387 1_545 S
C327 H312 0.930 . S
C327 C322 1.390 . S
C327 C326 1.387 1_565 S
H328 C340 0.930 . S
H329 C342 0.931 . S
H330 C343 0.930 . S
H331 C347 0.959 . S
H332 C347 0.959 . S
H333 C347 0.961 . S
H334 C348 0.960 . S
H335 C348 0.961 . S
H336 C348 0.959 1_655 S
H337 C351 0.929 . S
H338 C352 0.931 . S
H339 C354 0.930 . S
C340 H328 0.930 . S
C340 C341 1.399 . S
C340 C345 1.399 . S
C341 C340 1.399 . S
C341 C342 1.376 . S
C342 H329 0.931 . S
C342 C341 1.376 . S
C342 C343 1.388 1_455 S
C343 H330 0.930 . S
C343 C342 1.388 1_655 S
C343 C344 1.390 . S
C344 C343 1.390 . S
C344 C345 1.394 1_655 S
C344 C350 1.465 . S
C345 C340 1.399 . S
C345 C344 1.394 1_455 S
C345 C346 1.516 . S
C346 C345 1.516 . S
C346 C347 1.502 . S
C346 C348 1.561 . S
C346 C349 1.526 1_455 S
C347 H331 0.959 . S
C347 H332 0.959 . S
C347 H333 0.961 . S
C347 C346 1.502 . S
C348 H334 0.960 . S
C348 H335 0.961 . S
C348 H336 0.959 1_455 S
C348 C346 1.561 . S
C349 C346 1.526 1_655 S
C349 C350 1.396 . S
C349 C354 1.390 . S
C350 C344 1.465 . S
C350 C349 1.396 . S
C350 C351 1.399 . S
C351 H337 0.929 . S
C351 C350 1.399 . S
C351 C352 1.385 . S
C352 H338 0.931 . S
C352 C351 1.385 . S
C352 C353 1.389 . S
C353 C352 1.389 . S
C353 C354 1.387 . S
C354 H339 0.930 . S
C354 C349 1.390 . S
C354 C353 1.387 . S
H355 C367 0.930 . S
H356 C369 0.930 1_545 S
H357 C370 0.930 . S
H358 C374 0.959 . S
H359 C374 0.959 . S
H360 C374 0.961 . S
H361 C375 0.960 . S
H362 C375 0.961 . S
H363 C375 0.959 . S
H364 C378 0.929 . S
H365 C379 0.931 . S
H366 C381 0.930 1_565 S
C367 H355 0.930 . S
C367 C368 1.399 . S
C367 C372 1.399 . S
C368 C367 1.399 . S
C368 C369 1.376 . S
C369 H356 0.930 1_565 S
C369 C368 1.376 . S
C369 C370 1.388 1_565 S
C370 H357 0.930 . S
C370 C369 1.388 1_545 S
C370 C371 1.390 . S
C371 C370 1.390 . S
C371 C372 1.394 1_545 S
C371 C377 1.465 . S
C372 C367 1.399 . S
C372 C371 1.394 1_565 S
C372 C373 1.516 . S
C373 C372 1.516 . S
C373 C374 1.502 . S
C373 C375 1.561 . S
C373 C376 1.526 . S
C374 H358 0.959 . S
C374 H359 0.959 . S
C374 H360 0.961 . S
C374 C373 1.502 . S
C375 H361 0.960 . S
C375 H362 0.961 . S
C375 H363 0.959 . S
C375 C373 1.561 . S
C376 C373 1.526 . S
C376 C377 1.396 1_565 S
C376 C381 1.390 1_565 S
C377 C371 1.465 . S
C377 C376 1.396 1_545 S
C377 C378 1.399 . S
C378 H364 0.929 . S
C378 C377 1.399 . S
C378 C379 1.385 . S
C379 H365 0.931 . S
C379 C378 1.385 . S
C379 C380 1.389 . S
C380 C379 1.389 . S
C380 C381 1.387 . S
C381 H366 0.930 1_545 S
C381 C376 1.390 1_545 S
C381 C380 1.387 . S
H382 C394 0.930 . S
H383 C396 0.930 . S
H384 C397 0.930 . S
H385 C401 0.959 . S
H386 C401 0.959 . S
H387 C401 0.961 . S
H388 C402 0.960 . S
H389 C402 0.961 . S
H390 C402 0.959 . S
H391 C405 0.929 1_554 S
H392 C406 0.931 . S
H393 C408 0.930 . S
C394 H382 0.930 . S
C394 C395 1.399 . S
C394 C399 1.399 . S
C395 C394 1.399 . S
C395 C396 1.376 . S
C396 H383 0.930 . S
C396 C395 1.376 . S
C396 C397 1.388 . S
C397 H384 0.930 . S
C397 C396 1.388 . S
C397 C398 1.390 . S
C398 C397 1.390 . S
C398 C399 1.394 . S
C398 C404 1.465 1_554 S
C399 C394 1.399 . S
C399 C398 1.394 . S
C399 C400 1.516 1_554 S
C400 C399 1.516 1_556 S
C400 C401 1.502 . S
C400 C402 1.561 . S
C400 C403 1.526 . S
C401 H385 0.959 . S
C401 H386 0.959 . S
C401 H387 0.961 . S
C401 C400 1.502 . S
C402 H388 0.960 . S
C402 H389 0.961 . S
C402 H390 0.959 . S
C402 C400 1.561 . S
C403 C400 1.526 . S
C403 C404 1.396 . S
C403 C408 1.390 . S
C404 C398 1.465 1_556 S
C404 C403 1.396 . S
C404 C405 1.399 . S
C405 H391 0.929 1_556 S
C405 C404 1.399 . S
C405 C406 1.385 . S
C406 H392 0.931 . S
C406 C405 1.385 . S
C406 C407 1.389 . S
C407 C406 1.389 . S
C407 C408 1.387 . S
C408 H393 0.930 . S
C408 C403 1.390 . S
C408 C407 1.387 . S
H409 C421 0.930 . S
H410 C423 0.936 . S
H411 C424 0.930 . S
H412 C428 0.959 1_565 S
H413 C428 0.959 . S
H414 C428 0.961 . S
H415 C429 0.960 . S
H416 C429 0.961 1_554 S
H417 C429 0.959 . S
H418 C432 0.929 . S
H419 C433 0.931 . S
H420 C435 0.930 1_455 S
C421 H409 0.930 . S
C421 C422 1.399 . S
C421 C426 1.398 1_565 S
C422 C421 1.399 . S
C422 C423 1.363 1_455 S
C423 H410 0.936 . S
C423 C422 1.363 1_655 S
C423 C424 1.397 . S
C424 H411 0.930 . S
C424 C423 1.397 . S
C424 C425 1.390 . S
C425 C424 1.390 . S
C425 C426 1.392 1_665 S
C425 C431 1.461 1_566 S
C426 C421 1.398 1_545 S
C426 C425 1.392 1_445 S
C426 C427 1.519 1_556 S
C427 C426 1.519 1_554 S
C427 C428 1.502 . S
C427 C429 1.561 1_554 S
C427 C430 1.533 . S
C428 H412 0.959 1_545 S
C428 H413 0.959 . S
C428 H414 0.961 . S
C428 C427 1.502 . S
C429 H415 0.960 . S
C429 H416 0.961 1_556 S
C429 H417 0.959 . S
C429 C427 1.561 1_556 S
C430 C427 1.533 . S
C430 C431 1.397 1_455 S
C430 C435 1.388 1_455 S
C431 C425 1.461 1_544 S
C431 C430 1.397 1_655 S
C431 C432 1.397 1_545 S
C432 H418 0.929 . S
C432 C431 1.397 1_565 S
C432 C433 1.385 1_565 S
C433 H419 0.931 . S
C433 C432 1.385 1_545 S
C433 C434 1.389 . S
C434 C433 1.389 . S
C434 C435 1.387 . S
C435 H420 0.930 1_655 S
C435 C430 1.388 1_655 S
C435 C434 1.387 . S
H436 C448 0.930 . S
H437 C450 0.930 . S
H438 C451 0.930 . S
H439 C455 0.959 . S
H440 C455 0.959 . S
H441 C455 0.961 . S
H442 C456 0.960 . S
H443 C456 0.961 . S
H444 C456 0.959 . S
H445 C459 0.929 . S
H446 C460 0.931 . S
H447 C462 0.930 . S
C448 H436 0.930 . S
C448 C449 1.399 . S
C448 C453 1.399 . S
C449 C448 1.399 . S
C449 C450 1.376 . S
C450 H437 0.930 . S
C450 C449 1.376 . S
C450 C451 1.388 . S
C451 H438 0.930 . S
C451 C450 1.388 . S
C451 C452 1.390 . S
C452 C451 1.390 . S
C452 C453 1.394 . S
C452 C458 1.465 . S
C453 C448 1.399 . S
C453 C452 1.394 . S
C453 C454 1.516 . S
C454 C453 1.516 . S
C454 C455 1.502 . S
C454 C456 1.561 . S
C454 C457 1.526 . S
C455 H439 0.959 . S
C455 H440 0.959 . S
C455 H441 0.961 . S
C455 C454 1.502 . S
C456 H442 0.960 . S
C456 H443 0.961 . S
C456 H444 0.959 . S
C456 C454 1.561 . S
C457 C454 1.526 . S
C457 C458 1.396 . S
C457 C462 1.390 . S
C458 C452 1.465 . S
C458 C457 1.396 . S
C458 C459 1.399 . S
C459 H445 0.929 . S
C459 C458 1.399 . S
C459 C460 1.385 . S
C460 H446 0.931 . S
C460 C459 1.385 . S
C460 C461 1.389 . S
C461 C460 1.389 . S
C461 C462 1.387 . S
C462 H447 0.930 . S
C462 C457 1.390 . S
C462 C461 1.387 . S
H463 C475 0.930 . S
H464 C477 0.930 . S
H465 C478 0.930 . S
H466 C482 0.959 . S
H467 C482 0.959 . S
H468 C482 0.961 . S
H469 C483 0.960 . S
H470 C483 0.961 . S
H471 C483 0.959 . S
H472 C486 0.929 . S
H473 C487 0.931 . S
H474 C489 0.930 . S
C475 H463 0.930 . S
C475 C476 1.399 . S
C475 C480 1.399 . S
C476 C475 1.399 . S
C476 C477 1.376 . S
C477 H464 0.930 . S
C477 C476 1.376 . S
C477 C478 1.388 . S
C478 H465 0.930 . S
C478 C477 1.388 . S
C478 C479 1.390 . S
C479 C478 1.390 . S
C479 C480 1.394 . S
C479 C485 1.465 . S
C480 C475 1.399 . S
C480 C479 1.394 . S
C480 C481 1.516 . S
C481 C480 1.516 . S
C481 C482 1.502 . S
C481 C483 1.561 . S
C481 C484 1.526 . S
C482 H466 0.959 . S
C482 H467 0.959 . S
C482 H468 0.961 . S
C482 C481 1.502 . S
C483 H469 0.960 . S
C483 H470 0.961 . S
C483 H471 0.959 . S
C483 C481 1.561 . S
C484 C481 1.526 . S
C484 C485 1.396 . S
C484 C489 1.390 . S
C485 C479 1.465 . S
C485 C484 1.396 . S
C485 C486 1.399 . S
C486 H472 0.929 . S
C486 C485 1.399 . S
C486 C487 1.385 . S
C487 H473 0.931 . S
C487 C486 1.385 . S
C487 C488 1.389 . S
C488 C487 1.389 . S
C488 C489 1.387 . S
C489 H474 0.930 . S
C489 C484 1.390 . S
C489 C488 1.387 . S
H490 C502 0.930 . S
H491 C504 0.930 . S
H492 C505 0.930 . S
H493 C509 0.959 . S
H494 C509 0.959 . S
H495 C509 0.961 . S
H496 C510 0.960 . S
H497 C510 0.961 . S
H498 C510 0.959 . S
H499 C513 0.929 . S
H500 C514 0.931 . S
H501 C516 0.930 . S
C502 H490 0.930 . S
C502 C503 1.399 . S
C502 C507 1.399 . S
C503 C502 1.399 . S
C503 C504 1.376 . S
C504 H491 0.930 . S
C504 C503 1.376 . S
C504 C505 1.388 . S
C505 H492 0.930 . S
C505 C504 1.388 . S
C505 C506 1.390 . S
C506 C505 1.390 . S
C506 C507 1.394 . S
C506 C512 1.465 . S
C507 C502 1.399 . S
C507 C506 1.394 . S
C507 C508 1.516 . S
C508 C507 1.516 . S
C508 C509 1.502 . S
C508 C510 1.561 . S
C508 C511 1.526 . S
C509 H493 0.959 . S
C509 H494 0.959 . S
C509 H495 0.961 . S
C509 C508 1.502 . S
C510 H496 0.960 . S
C510 H497 0.961 . S
C510 H498 0.959 . S
C510 C508 1.561 . S
C511 C508 1.526 . S
C511 C512 1.396 . S
C511 C516 1.390 . S
C512 C506 1.465 . S
C512 C511 1.396 . S
C512 C513 1.399 . S
C513 H499 0.929 . S
C513 C512 1.399 . S
C513 C514 1.385 . S
C514 H500 0.931 . S
C514 C513 1.385 . S
C514 C515 1.389 . S
C515 C514 1.389 . S
C515 C516 1.387 . S
C516 H501 0.930 . S
C516 C511 1.390 . S
C516 C515 1.387 . S
H517 C529 0.930 . S
H518 C531 0.930 . S
H519 C532 0.930 . S
H520 C536 0.959 . S
H521 C536 0.959 . S
H522 C536 0.961 . S
H523 C537 0.960 . S
H524 C537 0.961 . S
H525 C537 0.959 . S
H526 C540 0.929 . S
H527 C541 0.931 . S
H528 C543 0.930 . S
C529 H517 0.930 . S
C529 C530 1.399 . S
C529 C534 1.399 . S
C530 C529 1.399 . S
C530 C531 1.376 . S
C531 H518 0.930 . S
C531 C530 1.376 . S
C531 C532 1.388 . S
C532 H519 0.930 . S
C532 C531 1.388 . S
C532 C533 1.390 . S
C533 C532 1.390 . S
C533 C534 1.394 . S
C533 C539 1.465 . S
C534 C529 1.399 . S
C534 C533 1.394 . S
C534 C535 1.516 . S
C535 C534 1.516 . S
C535 C536 1.502 . S
C535 C537 1.561 . S
C535 C538 1.526 . S
C536 H520 0.959 . S
C536 H521 0.959 . S
C536 H522 0.961 . S
C536 C535 1.502 . S
C537 H523 0.960 . S
C537 H524 0.961 . S
C537 H525 0.959 . S
C537 C535 1.561 . S
C538 C535 1.526 . S
C538 C539 1.396 . S
C538 C543 1.390 . S
C539 C533 1.465 . S
C539 C538 1.396 . S
C539 C540 1.399 . S
C540 H526 0.929 . S
C540 C539 1.399 . S
C540 C541 1.385 . S
C541 H527 0.931 . S
C541 C540 1.385 . S
C541 C542 1.389 . S
C542 C541 1.389 . S
C542 C543 1.387 . S
C543 H528 0.930 . S
C543 C538 1.390 . S
C543 C542 1.387 . S
C125 C9 1.378 . S
C137 C35 1.374 . S
C152 C49 1.366 . S
C164 C23 1.384 . S
C179 C37 1.420 . S
C191 C7 1.356 . S
C206 C51 1.362 . S
C218 C21 1.410 . S
C233 C91 1.414 . S
C245 C65 1.362 . S
C260 C79 1.398 . S
C272 C105 1.369 1_655 S
C287 C93 1.418 . S
C299 C63 1.346 . S
C314 C107 1.403 . S
C326 C77 1.363 . S
C341 C8 1.512 . S
C353 C64 1.518 . S
C368 C22 1.510 . S
C380 C78 1.520 . S
C395 C36 1.510 . S
C407 C92 1.520 . S
C422 C106 1.514 . S
C434 C50 1.512 . S
C449 C3 1.523 . S
C461 C17 1.513 . S
C476 C45 1.529 . S
C488 C31 1.519 . S
C503 C73 1.524 . S
C515 C59 1.515 . S
C530 C87 1.517 . S
C542 C101 1.527 . S
