# Generated by pormake.
# Topology zfu, (5)-cn, num edge types: 1
# Building blocks:
#     Node 0, Type 0, BuildingBlock: XOMCOT_clean_sbu_0, # of connection points: 5
#     Node 1, Type 0, BuildingBlock: XOMCOT_clean_sbu_0, # of connection points: 5
#     Node 2, Type 0, BuildingBlock: XOMCOT_clean_sbu_0, # of connection points: 5
#     Node 3, Type 0, BuildingBlock: XOMCOT_clean_sbu_0, # of connection points: 5
#     Node 4, Type 0, BuildingBlock: XOMCOT_clean_sbu_0, # of connection points: 5
#     Node 5, Type 0, BuildingBlock: XOMCOT_clean_sbu_0, # of connection points: 5
#     Node 6, Type 0, BuildingBlock: XOMCOT_clean_sbu_0, # of connection points: 5
#     Node 7, Type 0, BuildingBlock: XOMCOT_clean_sbu_0, # of connection points: 5
#     Edge 8, Type (0, 0), BuildingBlock: CIFDUS_clean_linker_0, # of connection points: 2
#     Edge 9, Type (0, 0), BuildingBlock: CIFDUS_clean_linker_0, # of connection points: 2
#     Edge 10, Type (0, 0), BuildingBlock: CIFDUS_clean_linker_0, # of connection points: 2
#     Edge 11, Type (0, 0), BuildingBlock: CIFDUS_clean_linker_0, # of connection points: 2
#     Edge 12, Type (0, 0), BuildingBlock: CIFDUS_clean_linker_0, # of connection points: 2
#     Edge 13, Type (0, 0), BuildingBlock: CIFDUS_clean_linker_0, # of connection points: 2
#     Edge 14, Type (0, 0), BuildingBlock: CIFDUS_clean_linker_0, # of connection points: 2
#     Edge 15, Type (0, 0), BuildingBlock: CIFDUS_clean_linker_0, # of connection points: 2
#     Edge 16, Type (0, 0), BuildingBlock: CIFDUS_clean_linker_0, # of connection points: 2
#     Edge 17, Type (0, 0), BuildingBlock: CIFDUS_clean_linker_0, # of connection points: 2
#     Edge 18, Type (0, 0), BuildingBlock: CIFDUS_clean_linker_0, # of connection points: 2
#     Edge 19, Type (0, 0), BuildingBlock: CIFDUS_clean_linker_0, # of connection points: 2
#     Edge 20, Type (0, 0), BuildingBlock: CIFDUS_clean_linker_0, # of connection points: 2
#     Edge 21, Type (0, 0), BuildingBlock: CIFDUS_clean_linker_0, # of connection points: 2
#     Edge 22, Type (0, 0), BuildingBlock: CIFDUS_clean_linker_0, # of connection points: 2
#     Edge 23, Type (0, 0), BuildingBlock: CIFDUS_clean_linker_0, # of connection points: 2
#     Edge 24, Type (0, 0), BuildingBlock: CIFDUS_clean_linker_0, # of connection points: 2
#     Edge 25, Type (0, 0), BuildingBlock: CIFDUS_clean_linker_0, # of connection points: 2
#     Edge 26, Type (0, 0), BuildingBlock: CIFDUS_clean_linker_0, # of connection points: 2
#     Edge 27, Type (0, 0), BuildingBlock: CIFDUS_clean_linker_0, # of connection points: 2
# Relax obj value: 0.179
# Max RMSD: 0.196
# Mean RMSD: 0.196
data_MOF--net-zfu--node1-XOMCOT_clean_sbu_0--edge1-CIFDUS_clean_linker_0
_symmetry_space_group_name_H-M    P1
_symmetry_Int_Tables_number       1
_symmetry_cell_setting            triclinic
loop_
_symmetry_equiv_pos_as_xyz
'x, y, z'
_cell_length_a     36.249894
_cell_length_b     36.248489
_cell_length_c     22.210015
_cell_angle_alpha  89.938091
_cell_angle_beta   90.529959
_cell_angle_gamma 90.016413
loop_
_atom_site_label
_atom_site_type_symbol
_atom_site_fract_x
_atom_site_fract_y
_atom_site_fract_z
_atom_type_partial_charge
Co0 Co 0.46305 0.78015 0.9903 0.0
C1 C 0.51546 0.71627 1.01483 0.0
C2 C 0.51835 0.73875 0.92583 0.0
C3 C 0.54303 0.71016 0.93008 0.0
N4 N 0.50091 0.74277 0.97881 0.0
N5 N 0.54115 0.69598 0.98601 0.0
H6 H 0.50782 0.71132 0.06075 0.0
H7 H 0.51289 0.75521 0.88609 0.0
C8 C 0.42728 0.72331 0.91295 0.0
O9 O 0.4419 0.69887 0.9498 0.0
N10 N 0.42614 0.81813 0.99682 0.0
C11 C 0.41247 0.83327 0.04714 0.0
C12 C 0.38768 0.86035 0.03058 0.0
C13 C 0.41001 0.83633 0.95047 0.0
N14 N 0.38613 0.86225 0.96977 0.0
C15 C 0.45459 0.74705 0.10575 0.0
C16 C 0.38325 0.7218 0.09258 0.0
C17 C 0.40179 0.71613 0.14774 0.0
C18 C 0.43782 0.72928 0.15374 0.0
C19 C 0.40119 0.7401 0.04527 0.0
N20 N 0.4372 0.75099 0.05123 0.0
H21 H 0.4821 0.7575 0.113 0.0
H22 H 0.38577 0.74623 1.00466 0.0
H23 H 0.42024 0.82543 0.09251 0.0
H24 H 0.41556 0.83053 0.90364 0.0
O25 O 0.49396 0.80618 0.04579 0.0
O26 O 0.49527 0.81521 0.9475 0.0
O27 O 0.43349 0.75772 0.92145 0.0
C28 C 0.50821 0.82346 1.00095 0.0
H29 H 0.56024 0.69995 0.89419 0.0
H30 H 0.37251 0.87778 0.06116 0.0
H31 H 0.35489 0.71305 0.08658 0.0
H32 H 0.4533 0.72567 0.19529 0.0
Co33 Co 0.76529 0.95586 0.22987 0.0
C34 C 0.82478 1.0079 0.26479 0.0
C35 C 0.82847 0.99098 0.17245 0.0
C36 C 0.85534 0.01689 0.18355 0.0
N37 N 0.80942 0.98529 0.22337 0.0
N38 N 0.85293 0.02769 0.24151 0.0
H39 H 0.81484 1.0105 0.31037 0.0
H40 H 0.82223 0.97856 0.12933 0.0
C41 C 0.78306 0.88919 0.15713 0.0
O42 O 0.77041 0.86924 0.20182 0.0
N43 N 0.72016 0.92681 0.23218 0.0
C44 C 0.70163 0.91206 0.27886 0.0
C45 C 0.66807 0.89926 0.2583 0.0
C46 C 0.69745 0.92244 0.18393 0.0
N47 N 0.66543 0.90594 0.19873 0.0
C48 C 0.77872 0.92939 0.34852 0.0
C49 C 0.84252 0.89037 0.32803 0.0
C50 C 0.82978 0.89347 0.38762 0.0
C51 C 0.79766 0.91399 0.39687 0.0
C52 C 0.82309 0.90752 0.28052 0.0
N53 N 0.79046 0.92538 0.29063 0.0
H54 H 0.75516 0.94613 0.35905 0.0
H55 H 0.83504 0.90732 0.23618 0.0
H56 H 0.7104 0.91146 0.32517 0.0
H57 H 0.70342 0.93306 0.1395 0.0
O58 O 0.74552 0.99046 0.28554 0.0
O59 O 0.73719 0.99501 0.18741 0.0
O60 O 0.78265 0.92443 0.16018 0.0
C61 C 0.73151 1.00859 0.24107 0.0
H62 H 0.87382 0.02836 0.15042 0.0
H63 H 0.64672 0.88689 0.2855 0.0
H64 H 0.86758 0.8755 0.31795 0.0
H65 H 0.78753 0.91971 0.44156 0.0
Co66 Co 0.55717 0.24277 0.4712 0.0
C67 C 0.50985 0.30658 0.51049 0.0
C68 C 0.51605 0.30193 0.41481 0.0
C69 C 0.49252 0.3305 0.42609 0.0
N70 N 0.52733 0.28706 0.46741 0.0
N71 N 0.4885 0.33367 0.48616 0.0
H72 H 0.5122 0.30061 0.55812 0.0
H73 H 0.52307 0.29159 0.37075 0.0
C74 C 0.61762 0.26917 0.39082 0.0
O75 O 0.6415 0.25906 0.43255 0.0
N76 N 0.58581 0.19688 0.4689 0.0
C77 C 0.58531 0.16849 0.50855 0.0
C78 C 0.60665 0.14009 0.487 0.0
C79 C 0.60533 0.18372 0.42166 0.0
N80 N 0.61885 0.14971 0.43223 0.0
C81 C 0.60374 0.24827 0.57522 0.0
C82 C 0.6221 0.3218 0.56469 0.0
C83 C 0.63324 0.30245 0.61675 0.0
C84 C 0.62451 0.26496 0.62047 0.0
C85 C 0.60169 0.30366 0.51943 0.0
N86 N 0.59273 0.26712 0.52497 0.0
H87 H 0.5949 0.22053 0.58296 0.0
H88 H 0.59215 0.3193 0.48084 0.0
H89 H 0.56999 0.16785 0.55006 0.0
H90 H 0.60939 0.19809 0.3797 0.0
O91 O 0.5271 0.2241 0.5343 0.0
O92 O 0.51489 0.21519 0.43756 0.0
O93 O 0.58333 0.26143 0.39669 0.0
C94 C 0.50528 0.21049 0.49377 0.0
H95 H 0.47801 0.34645 0.39216 0.0
H96 H 0.61255 0.11422 0.5095 0.0
H97 H 0.62777 0.35098 0.55993 0.0
H98 H 0.63273 0.24854 0.65909 0.0
Co99 Co 0.25983 0.06754 0.74273 0.0
C100 C 0.2088 1.00266 0.75908 0.0
C101 C 0.18134 0.05054 0.72402 0.0
C102 C 0.15573 0.02289 0.73049 0.0
N103 N 0.21477 0.03798 0.74178 0.0
N104 N 0.17297 0.9928 0.75263 0.0
H105 H 0.22986 0.9845 0.77662 0.0
H106 H 0.17563 0.07836 0.70902 0.0
C107 C 0.2429 0.12387 0.6414 0.0
O108 O 0.26914 0.14685 0.65733 0.0
N109 N 0.30482 0.09656 0.74148 0.0
C110 C 0.32089 0.1134 0.78887 0.0
C111 C 0.35112 0.13264 0.76893 0.0
C112 C 0.32679 0.10397 0.69395 0.0
N113 N 0.35449 0.1273 0.70901 0.0
C114 C 0.21995 0.08695 0.84621 0.0
C115 C 0.22517 0.16274 0.83911 0.0
C116 C 0.20984 0.14673 0.89067 0.0
C117 C 0.20664 0.10835 0.8931 0.0
C118 C 0.23825 0.14011 0.79278 0.0
N119 N 0.23575 0.10254 0.79667 0.0
H120 H 0.21881 0.05734 0.85113 0.0
H121 H 0.25241 0.1531 0.75653 0.0
H122 H 0.31066 0.11267 0.83445 0.0
H123 H 0.32098 0.09469 0.64853 0.0
O124 O 0.2807 0.03845 0.80597 0.0
O125 O 0.28764 0.02557 0.70945 0.0
O126 O 0.23919 0.0925 0.66738 0.0
C127 C 0.29436 0.01683 0.76576 0.0
H128 H 0.12639 0.02528 0.72187 0.0
H129 H 0.36867 0.15018 0.79629 0.0
H130 H 0.22859 0.19235 0.8358 0.0
H131 H 0.1945 0.09474 0.93158 0.0
Co132 Co 0.96611 0.74386 0.85509 0.0
C133 C 0.01746 0.80442 0.81913 0.0
C134 C 0.01599 0.79481 0.91458 0.0
C135 C 0.04117 0.8222 0.9035 0.0
N136 N 1.00114 0.7837 0.86192 0.0
N137 N 0.04218 0.82825 0.84359 0.0
H138 H 0.01181 0.80178 0.7714 0.0
H139 H 1.0091 0.78347 0.95812 0.0
C140 C 0.90231 0.77063 0.92658 0.0
O141 O 0.8814 0.75995 0.88121 0.0
N142 N 0.93131 0.70275 0.85287 0.0
C143 C 0.91659 0.68424 0.80573 0.0
C144 C 0.89258 0.65797 0.82702 0.0
C145 C 0.91713 0.68608 0.90226 0.0
N146 N 0.89284 0.65926 0.88764 0.0
C147 C 0.93928 0.75949 0.73657 0.0
C148 C 0.90715 0.827 0.75878 0.0
C149 C 0.90632 0.81273 0.70011 0.0
C150 C 0.92314 0.77889 0.68928 0.0
C151 C 0.92461 0.80686 0.80504 0.0
N152 N 0.93848 0.77232 0.79444 0.0
H153 H 0.95356 0.73451 0.72531 0.0
H154 H 0.92749 0.81943 0.84888 0.0
H155 H 0.92249 0.68865 0.75896 0.0
H156 H 0.92339 0.69439 0.94802 0.0
O157 O 0.99737 0.71929 0.79932 0.0
O158 O 1.00166 0.71156 0.89773 0.0
O159 O 0.93738 0.766 0.92473 0.0
C160 C 0.0137 0.70336 0.84404 0.0
H161 H 0.05712 0.83697 0.93714 0.0
H162 H 0.876 0.63936 0.79993 0.0
H163 H 0.89534 0.85377 0.76835 0.0
H164 H 0.92377 0.76734 0.6443 0.0
Co165 Co 0.76053 0.4567 0.08788 0.0
C166 C 0.70229 0.51268 0.05323 0.0
C167 C 0.69856 0.49376 0.14416 0.0
C168 C 0.67285 0.52094 0.13565 0.0
N169 N 0.71631 0.48728 0.09202 0.0
N170 N 0.67511 0.53288 0.07845 0.0
H171 H 0.71301 0.51819 1.00906 0.0
H172 H 0.70539 0.48132 0.18706 0.0
C173 C 0.70779 0.40898 0.15455 0.0
O174 O 0.68409 0.41629 0.111 0.0
N175 N 0.80518 0.42746 0.08978 0.0
C176 C 0.83302 0.42677 0.04992 0.0
C177 C 0.86316 0.40973 0.07676 0.0
C178 C 0.81863 0.41079 0.13977 0.0
N179 N 0.85376 0.39971 0.13304 0.0
C180 C 0.72987 0.44146 0.97185 0.0
C181 C 0.72557 0.36572 0.98122 0.0
C182 C 0.71369 0.3828 0.92755 0.0
C183 C 0.71627 0.42117 0.92346 0.0
C184 C 0.7393 0.38733 0.02899 0.0
N185 N 0.73974 0.425 0.02488 0.0
H186 H 0.73358 0.47048 0.96526 0.0
H187 H 0.74967 0.37376 0.06906 0.0
H188 H 0.83227 0.4396 1.00595 0.0
H189 H 0.80412 0.40914 0.182 0.0
O190 O 0.78259 0.49123 0.03428 0.0
O191 O 0.78685 0.49547 0.13343 0.0
O192 O 0.73988 0.42391 0.15403 0.0
C193 C 0.79449 0.5093 0.0805 0.0
H194 H 0.65555 0.53268 0.17016 0.0
H195 H 0.89013 0.40592 0.05718 0.0
H196 H 0.72495 0.33598 0.98583 0.0
H197 H 0.70779 0.43571 0.88301 0.0
Co198 Co 0.05845 0.27861 0.34936 0.0
C199 C 1.0092 0.21297 0.31828 0.0
C200 C 1.00391 0.23351 0.40816 0.0
C201 C 0.98034 0.20422 0.40128 0.0
N202 N 0.02225 0.23915 0.35641 0.0
N203 N 0.98363 0.19126 0.34479 0.0
H204 H 0.01771 0.20942 0.27243 0.0
H205 H 1.00794 0.24945 0.44882 0.0
C206 C 0.09372 0.22288 0.42858 0.0
O207 O 0.08074 0.19844 0.39025 0.0
N208 N 0.09323 0.31877 0.34737 0.0
C209 C 0.10679 0.33612 0.29879 0.0
C210 C 0.12557 0.36708 0.31803 0.0
C211 C 0.10387 0.33916 0.39534 0.0
N212 N 0.12357 0.36899 0.37869 0.0
C213 C 0.07457 0.24626 0.23589 0.0
C214 C 0.14801 0.23048 0.25743 0.0
C215 C 0.13309 0.22409 0.19984 0.0
C216 C 0.0958 0.23196 0.18972 0.0
C217 C 0.12558 0.24497 0.30276 0.0
N218 N 0.08888 0.25157 0.2923 0.0
H219 H 0.04659 0.2541 0.22522 0.0
H220 H 0.13822 0.25237 0.34527 0.0
H221 H 0.10189 0.32782 0.25263 0.0
H222 H 0.09521 0.33363 0.44099 0.0
O223 O 0.02833 0.30297 0.29036 0.0
O224 O 0.0229 0.31167 0.38849 0.0
O225 O 0.08653 0.2572 0.4207 0.0
C226 C 0.0117 0.31937 0.3338 0.0
H227 H 0.96279 0.19285 0.43582 0.0
H228 H 0.13859 0.38736 0.2894 0.0
H229 H 0.177 0.22568 0.26669 0.0
H230 H 0.08303 0.22751 0.14604 0.0
Co231 Co 0.26192 0.56184 0.60504 0.0
C232 C 0.32229 0.50987 0.56751 0.0
C233 C 0.31673 0.5162 0.66312 0.0
C234 C 0.34382 0.4908 0.65279 0.0
N235 N 0.30329 0.52838 0.61001 0.0
N236 N 0.34729 0.48651 0.59284 0.0
H237 H 0.31721 0.51262 0.51962 0.0
H238 H 0.30682 0.52459 0.70677 0.0
C239 C 0.28613 0.62325 0.68601 0.0
O240 O 0.27205 0.64641 0.64647 0.0
N241 N 0.21926 0.59474 0.60644 0.0
C242 C 0.20045 0.61196 0.56174 0.0
C243 C 0.16864 0.62676 0.5848 0.0
C244 C 0.19825 0.59957 0.65605 0.0
N245 N 0.16724 0.61889 0.64399 0.0
C246 C 0.2752 0.59432 0.4907 0.0
C247 C 0.34245 0.62675 0.51459 0.0
C248 C 0.32726 0.62973 0.45616 0.0
C249 C 0.29298 0.61334 0.44525 0.0
C250 C 0.32307 0.60769 0.55977 0.0
N251 N 0.28895 0.59297 0.54812 0.0
H252 H 0.25044 0.57981 0.47822 0.0
H253 H 0.33612 0.60383 0.60323 0.0
H254 H 0.20742 0.61278 0.51492 0.0
H255 H 0.20443 0.58711 0.6993 0.0
O256 O 0.23878 0.53185 0.54526 0.0
O257 O 0.23095 0.52334 0.64265 0.0
O258 O 0.28304 0.58847 0.67755 0.0
C259 C 0.22302 0.51345 0.5874 0.0
H260 H 0.35977 0.47655 0.68706 0.0
H261 H 0.1473 0.64095 0.5594 0.0
H262 H 0.36944 0.63801 0.52488 0.0
H263 H 0.27974 0.61472 0.40141 0.0
H264 H 0.60723 0.55493 0.1094 0.0
H265 H 0.69692 0.57942 0.9894 0.0
H266 H 0.66283 0.63233 0.94944 0.0
H267 H 0.60834 0.67278 0.95123 0.0
H268 H 0.51923 0.64825 0.07245 0.0
H269 H 0.55293 0.59486 0.11083 0.0
C270 C 0.6195 0.57198 0.07484 0.0
C271 C 0.65465 0.56322 0.05267 0.0
C272 C 0.60003 0.60261 0.05283 0.0
C273 C 0.66977 0.58519 1.00688 0.0
C274 C 0.6504 0.61566 0.98435 0.0
C275 C 0.59615 0.65559 0.98566 0.0
C276 C 0.56132 0.66466 1.00902 0.0
C277 C 0.6156 0.62473 1.00726 0.0
C278 C 0.5462 0.64235 0.05433 0.0
C279 C 0.56533 0.61161 0.07598 0.0
H280 H 0.91702 0.16536 0.37743 0.0
H281 H 1.00664 0.14658 0.25466 0.0
H282 H 0.97427 0.09324 0.21286 0.0
H283 H 0.92077 0.05174 0.2118 0.0
H284 H 0.83101 0.07101 0.33418 0.0
H285 H 0.86396 0.1235 0.37725 0.0
C286 C 0.92972 0.14943 0.34198 0.0
C287 C 0.96428 0.1601 0.3193 0.0
C288 C 0.91112 0.1186 0.31858 0.0
C289 C 0.9799 0.13942 0.27246 0.0
C290 C 0.96152 0.1087 0.24886 0.0
C291 C 0.90828 0.0675 0.24766 0.0
C292 C 0.87337 0.05733 0.26953 0.0
C293 C 0.92712 0.09807 0.27156 0.0
C294 C 0.85799 0.07775 0.31689 0.0
C295 C 0.87669 0.10805 0.34121 0.0
H296 H 0.46371 0.39887 0.44288 0.0
H297 H 0.45701 0.32583 0.5961 0.0
H298 H 0.41186 0.36683 0.64222 0.0
H299 H 0.37294 0.42211 0.63732 0.0
H300 H 0.37856 0.49437 0.48321 0.0
H301 H 0.42438 0.45373 0.43746 0.0
C302 C 0.4522 0.39155 0.48608 0.0
C303 C 0.46374 0.35899 0.51567 0.0
C304 C 0.42565 0.41479 0.51162 0.0
C305 C 0.44906 0.35075 0.57246 0.0
C306 C 0.42294 0.37404 0.5986 0.0
C307 C 0.38438 0.42923 0.59394 0.0
C308 C 0.3725 0.46149 0.56391 0.0
C309 C 0.41088 0.40596 0.56836 0.0
C310 C 0.38697 0.46966 0.50702 0.0
C311 C 0.41339 0.44658 0.48117 0.0
H312 H 0.10965 0.85142 0.87725 0.0
H313 H 0.02446 0.86695 0.74298 0.0
H314 H 0.05908 0.91851 0.69975 0.0
H315 H 0.11145 0.96192 0.70523 0.0
H316 H 0.19557 0.94677 0.84176 0.0
H317 H 0.16364 0.89217 0.87881 0.0
C318 C 0.09868 0.86608 0.83848 0.0
C319 C 0.06431 0.85571 0.81383 0.0
C320 C 0.11851 0.89582 0.81446 0.0
C321 C 0.05088 0.87434 0.76265 0.0
C322 C 0.07055 0.90397 0.73825 0.0
C323 C 0.12278 0.94667 0.74308 0.0
C324 C 0.15573 0.95873 0.77096 0.0
C325 C 0.10403 0.91542 0.7646 0.0
C326 C 0.17046 0.9381 0.81913 0.0
C327 C 0.15206 0.90697 0.84065 0.0
H328 H 0.32865 0.60988 0.33759 0.0
H329 H 0.36912 0.69305 0.46061 0.0
H330 H 0.39531 0.72725 0.37607 0.0
H331 H 0.40422 0.73484 0.26679 0.0
H332 H 0.36081 0.65293 0.1443 0.0
H333 H 0.33637 0.61792 0.22921 0.0
C334 C 0.34273 0.63575 0.34621 0.0
C335 C 0.3464 0.64901 0.40575 0.0
C336 C 0.35654 0.65586 0.29732 0.0
C337 C 0.36602 0.68194 0.41562 0.0
C338 C 0.38066 0.70174 0.36714 0.0
C339 C 0.38948 0.70926 0.25866 0.0
C340 C 0.38439 0.69649 0.19912 0.0
C341 C 0.37567 0.68917 0.30776 0.0
C342 C 0.36474 0.66361 0.18943 0.0
C343 C 0.35109 0.6434 0.23804 0.0
H344 H 0.8012 0.87009 0.49516 0.0
H345 H 0.90473 0.88072 0.40134 0.0
H346 H 0.93743 0.85762 0.49 0.0
H347 H 0.93678 0.83502 0.59513 0.0
H348 H 0.83413 0.83169 0.69129 0.0
H349 H 0.80111 0.85377 0.60152 0.0
C350 C 0.83101 0.86845 0.4939 0.0
C351 C 0.85016 0.87761 0.44076 0.0
C352 C 0.84994 0.85715 0.5461 0.0
C353 C 0.88879 0.87343 0.44053 0.0
C354 C 0.90771 0.86068 0.49173 0.0
C355 C 0.90725 0.83977 0.59645 0.0
C356 C 0.88778 0.83197 0.64953 0.0
C357 C 0.88858 0.85268 0.54484 0.0
C358 C 0.84961 0.83802 0.65108 0.0
C359 C 0.83076 0.85021 0.59963 0.0
H360 H 0.72729 0.3929 0.808 0.0
H361 H 0.66502 0.32517 0.93055 0.0
H362 H 0.63468 0.29469 0.84531 0.0
H363 H 0.62328 0.28991 0.73678 0.0
H364 H 0.686 0.35695 0.61364 0.0
H365 H 0.71754 0.38634 0.69877 0.0
C366 C 0.70703 0.37149 0.81613 0.0
C367 C 0.69828 0.36151 0.87576 0.0
C368 C 0.68931 0.35449 0.76692 0.0
C369 C 0.67254 0.33318 0.8853 0.0
C370 C 0.65492 0.31601 0.83654 0.0
C371 C 0.64429 0.31049 0.72818 0.0
C372 C 0.6523 0.32097 0.66845 0.0
C373 C 0.66276 0.32678 0.77725 0.0
C374 C 0.67889 0.34854 0.65886 0.0
C375 C 0.69719 0.36515 0.70758 0.0
H376 H 0.22282 0.13322 1.00923 0.0
H377 H 0.17021 0.21096 0.88886 0.0
H378 H 0.14497 0.24418 0.97503 0.0
H379 H 0.13347 0.2477 0.08366 0.0
H380 H 0.18356 0.16806 0.20357 0.0
H381 H 0.21464 0.1392 0.11841 0.0
C382 C 0.20582 0.15746 1.00186 0.0
C383 C 0.19787 0.16928 0.9427 0.0
C384 C 0.19095 0.17597 0.05146 0.0
C385 C 0.1767 0.20131 0.9339 0.0
C386 C 0.1621 0.22015 0.98312 0.0
C387 C 0.15124 0.22404 0.09117 0.0
C388 C 0.15575 0.20965 0.14974 0.0
C389 C 0.16834 0.20719 0.04194 0.0
C390 C 0.17966 0.17966 0.159 0.0
C391 C 0.1972 0.163 0.11027 0.0
H392 H 0.30983 0.69403 0.70512 0.0
H393 H 0.31855 0.58349 0.77662 0.0
H394 H 0.36311 0.60469 0.85183 0.0
H395 H 0.40075 0.65393 0.89595 0.0
H396 H 0.39243 0.76473 0.82576 0.0
H397 H 0.34679 0.74397 0.75123 0.0
C398 C 0.32119 0.6746 0.73748 0.0
C399 C 0.3107 0.63714 0.735 0.0
C400 C 0.34719 0.68693 0.78054 0.0
C401 C 0.32598 0.61243 0.77726 0.0
C402 C 0.35162 0.62451 0.82027 0.0
C403 C 0.38912 0.67363 0.86428 0.0
C404 C 0.4003 0.71086 0.86635 0.0
C405 C 0.3627 0.66158 0.82196 0.0
C406 C 0.38455 0.73591 0.82512 0.0
C407 C 0.35834 0.72405 0.78256 0.0
H408 H 0.83648 0.83724 0.16598 0.0
H409 H 0.77369 0.90078 0.03702 0.0
H410 H 0.80483 0.86922 0.95405 0.0
H411 H 0.8493 0.82275 0.91846 0.0
H412 H 0.91682 0.76382 0.04699 0.0
H413 H 0.88483 0.79445 0.13013 0.0
C414 C 0.82966 0.84401 0.11961 0.0
C415 C 0.80248 0.87078 0.10727 0.0
C416 C 0.84863 0.82668 0.07235 0.0
C417 C 0.79438 0.88009 0.04729 0.0
C418 C 0.81216 0.86205 1.00001 0.0
C419 C 0.857 0.81673 0.96476 0.0
C420 C 0.88504 0.79082 0.97685 0.0
C421 C 0.83921 0.83519 1.01201 0.0
C422 C 0.89532 0.78368 0.03679 0.0
C423 C 0.87693 0.80107 0.0842 0.0
H424 H 0.6425 0.3729 0.16619 0.0
H425 H 0.74919 0.38577 0.25161 0.0
H426 H 0.73132 0.34221 0.33035 0.0
H427 H 0.6849 0.30148 0.37605 0.0
H428 H 0.57801 0.28963 0.29084 0.0
H429 H 0.59669 0.33159 0.21064 0.0
C430 C 0.66194 0.36627 0.20198 0.0
C431 C 0.69714 0.38281 0.20295 0.0
C432 C 0.65149 0.34122 0.24707 0.0
C433 C 0.72189 0.37365 0.24973 0.0
C434 C 0.7117 0.34865 0.29475 0.0
C435 C 0.66577 0.30774 0.33964 0.0
C436 C 0.63006 0.29225 0.33955 0.0
C437 C 0.67654 0.33233 0.29396 0.0
C438 C 0.60562 0.30105 0.29218 0.0
C439 C 0.61626 0.32515 0.24631 0.0
H440 H 0.10997 0.15263 0.46169 0.0
H441 H 0.14043 0.26578 0.49671 0.0
H442 H 0.19027 0.24494 0.56355 0.0
H443 H 0.22596 0.19452 0.61028 0.0
H444 H 0.19416 0.08152 0.57719 0.0
H445 H 0.14433 0.10244 0.51057 0.0
C446 C 0.12735 0.17282 0.48416 0.0
C447 C 0.12143 0.21076 0.47405 0.0
C448 C 0.15601 0.16064 0.52225 0.0
C449 C 0.14416 0.23645 0.50388 0.0
C450 C 0.17285 0.22453 0.54179 0.0
C451 C 0.20839 0.17442 0.58801 0.0
C452 C 0.21414 0.13643 0.5981 0.0
C453 C 0.17927 0.18668 0.55079 0.0
C454 C 0.19055 0.11086 0.56987 0.0
C455 C 0.16196 0.12282 0.53197 0.0
H456 H 0.40005 0.88921 0.85743 0.0
H457 H 0.32034 0.89049 1.00072 0.0
H458 H 0.2836 0.93569 0.94608 0.0
H459 H 0.27616 0.97807 0.86269 0.0
H460 H 0.35416 0.97938 0.71752 0.0
H461 H 0.38912 0.92916 0.7669 0.0
C462 C 0.37442 0.89905 0.87624 0.0
C463 C 0.36341 0.88686 0.93394 0.0
C464 C 0.35315 0.9254 0.84424 0.0
C465 C 0.33005 0.89998 0.95746 0.0
C466 C 0.30883 0.92568 0.92598 0.0
C467 C 0.30062 0.96713 0.84124 0.0
C468 C 0.31276 0.98257 0.78676 0.0
C469 C 0.3205 0.93909 0.87016 0.0
C470 C 0.34418 0.9678 0.75928 0.0
C471 C 0.36427 0.93936 0.78789 0.0
H472 H 0.51026 0.87254 0.08941 0.0
H473 H 0.57555 0.82904 0.94508 0.0
H474 H 0.63162 0.85512 0.99178 0.0
H475 H 0.66266 0.88125 0.08351 0.0
H476 H 0.59551 0.91911 0.2302 0.0
H477 H 0.53965 0.90418 0.17341 0.0
C478 C 0.53666 0.86987 0.06712 0.0
C479 C 0.53887 0.84914 1.01388 0.0
C480 C 0.56857 0.88306 0.09583 0.0
C481 C 0.57312 0.8455 0.98553 0.0
C482 C 0.60522 0.85982 1.01292 0.0
C483 C 0.63571 0.88672 0.10228 0.0
C484 C 0.63311 0.90064 0.16141 0.0
C485 C 0.60345 0.87721 0.06956 0.0
C486 C 0.59813 0.90767 0.18542 0.0
C487 C 0.56621 0.89935 0.15282 0.0
H488 H 0.74693 0.05524 0.32967 0.0
H489 H 0.66813 0.03641 0.18665 0.0
H490 H 0.62652 0.08253 0.2313 0.0
H491 H 0.60958 0.12193 0.31997 0.0
H492 H 0.6874 0.13343 0.46633 0.0
H493 H 0.73244 0.09619 0.41218 0.0
C494 C 0.72089 0.06171 0.3075 0.0
C495 C 0.71048 0.04243 0.25512 0.0
C496 C 0.69673 0.08643 0.33503 0.0
C497 C 0.6769 0.05122 0.22663 0.0
C498 C 0.65294 0.07716 0.25275 0.0
C499 C 0.63662 0.11645 0.33918 0.0
C500 C 0.64542 0.13001 0.39706 0.0
C501 C 0.66202 0.09393 0.30825 0.0
C502 C 0.68027 0.12287 0.42213 0.0
C503 C 0.70592 0.10174 0.39113 0.0
H504 H 0.46163 0.23597 0.57915 0.0
H505 H 0.47327 0.14456 0.45729 0.0
H506 H 0.42509 0.1105 0.5121 0.0
H507 H 0.38448 0.10481 0.60279 0.0
H508 H 0.37684 0.19738 0.72414 0.0
H509 H 0.41883 0.23263 0.66209 0.0
C510 C 0.4531 0.20881 0.56378 0.0
C511 C 0.47082 0.19277 0.51431 0.0
C512 C 0.42664 0.18929 0.59649 0.0
C513 C 0.45959 0.15767 0.49475 0.0
C514 C 0.43244 0.13807 0.52669 0.0
C515 C 0.39187 0.13277 0.61518 0.0
C516 C 0.37814 0.14802 0.66912 0.0
C517 C 0.41652 0.1532 0.5789 0.0
C518 C 0.38779 0.18444 0.68422 0.0
C519 C 0.41157 0.20485 0.64836 0.0
H520 H 0.91052 0.62549 0.99336 0.0
H521 H 0.82075 0.64764 0.86998 0.0
H522 H 0.77995 0.60832 0.92855 0.0
H523 H 0.7719 0.56178 1.00587 0.0
H524 H 0.86153 0.53365 0.12572 0.0
H525 H 0.90002 0.58186 0.07942 0.0
C526 C 0.88186 0.62202 0.98019 0.0
C527 C 0.86869 0.63898 0.92692 0.0
C528 C 0.85862 0.59841 1.01362 0.0
C529 C 0.83157 0.63433 0.91008 0.0
C530 C 0.80822 0.61201 0.94371 0.0
C531 C 0.79955 0.56696 0.02309 0.0
C532 C 0.81387 0.54447 0.06925 0.0
C533 C 0.82172 0.59312 0.99434 0.0
C534 C 0.84973 0.55112 0.09095 0.0
C535 C 0.87187 0.57825 0.06369 0.0
H536 H 0.93909 0.30441 0.32448 0.0
H537 H 0.01977 0.39001 0.29951 0.0
H538 H 0.97703 0.42372 0.2336 0.0
H539 H 0.91973 0.42425 0.17198 0.0
H540 H 0.83848 0.3394 0.19829 0.0
H541 H 0.87812 0.30965 0.27424 0.0
C542 C 0.94646 0.33135 0.30696 0.0
C543 C 0.98203 0.34533 0.31807 0.0
C544 C 0.92209 0.34993 0.26754 0.0
C545 C 0.99203 0.37944 0.2931 0.0
C546 C 0.96788 0.3983 0.25441 0.0
C547 C 0.91087 0.39932 0.1947 0.0
C548 C 0.87681 0.38337 0.17892 0.0
C549 C 0.93344 0.38302 0.23932 0.0
C550 C 0.86491 0.35167 0.20944 0.0
C551 C 0.88747 0.33484 0.25292 0.0
H552 H 0.17642 0.51664 0.49505 0.0
H553 H 0.21352 0.44356 0.63605 0.0
H554 H 0.18275 0.39139 0.58494 0.0
H555 H 0.152 0.36589 0.49221 0.0
H556 H 0.12042 0.44079 0.34978 0.0
H557 H 0.14279 0.4929 0.40871 0.0
C558 C 0.17715 0.48937 0.51535 0.0
C559 C 0.19716 0.48385 0.56912 0.0
C560 C 0.16112 0.45975 0.48445 0.0
C561 C 0.19785 0.44854 0.5951 0.0
C562 C 0.18074 0.4187 0.5653 0.0
C563 C 0.14977 0.39371 0.47465 0.0
C564 C 0.13514 0.39944 0.41617 0.0
C565 C 0.16339 0.42378 0.50875 0.0
C566 C 0.13232 0.43559 0.39386 0.0
C567 C 0.14484 0.46542 0.42776 0.0
H568 H 0.16723 0.64569 0.75809 0.0
H569 H 0.09683 0.60481 0.61572 0.0
H570 H 0.04222 0.6206 0.6735 0.0
H571 H 0.01462 0.65342 0.75694 0.0
H572 H 0.0829 0.70005 0.89694 0.0
H573 H 0.13811 0.67369 0.84945 0.0
C574 C 0.13986 0.63976 0.74059 0.0
C575 C 0.13591 0.62457 0.68239 0.0
C576 C 0.1083 0.64987 0.7738 0.0
C577 C 0.10041 0.61702 0.65987 0.0
C578 C 0.06923 0.6259 0.693 0.0
C579 C 0.04152 0.65682 0.77813 0.0
C580 C 0.04477 0.67841 0.83041 0.0
C581 C 0.07285 0.64333 0.749 0.0
C582 C 0.07968 0.68294 0.85728 0.0
C583 C 0.11126 0.66841 0.82943 0.0
loop_
_geom_bond_atom_site_label_1
_geom_bond_atom_site_label_2
_geom_bond_distance
_geom_bond_site_symmetry_2
_ccdc_geom_bond_type
Co0 N4 2.148 . S
Co0 N10 2.128 . S
Co0 N20 2.194 1_556 S
Co0 O25 2.351 1_556 S
Co0 O26 2.155 . S
Co0 O27 2.096 . S
C1 N4 1.301 1_554 S
C1 N5 1.328 . S
C1 H6 0.930 . S
C2 C3 1.333 . S
C2 N4 1.317 . S
C2 H7 0.930 . S
C3 C2 1.333 . S
C3 N5 1.350 1_556 S
C3 H29 0.931 . S
N4 Co0 2.148 . S
N4 C1 1.301 1_556 S
N4 C2 1.317 . S
N5 C1 1.328 . S
N5 C3 1.350 1_554 S
H6 C1 0.930 . S
H7 C2 0.930 . S
C8 O9 1.224 . S
C8 O27 1.247 . S
O9 C8 1.224 . S
N10 Co0 2.128 . S
N10 C11 1.355 1_556 S
N10 C13 1.311 . S
C11 N10 1.355 1_554 S
C11 C12 1.363 . S
C11 H23 0.929 . S
C12 C11 1.363 . S
C12 N14 1.375 1_554 S
C12 H30 0.931 . S
C13 N10 1.311 . S
C13 N14 1.347 . S
C13 H24 0.929 . S
N14 C12 1.375 1_556 S
N14 C13 1.347 . S
C15 C18 1.365 . S
C15 N20 1.328 . S
C15 H21 0.929 . S
C16 C17 1.362 . S
C16 C19 1.378 . S
C16 H31 0.929 . S
C17 C16 1.362 . S
C17 C18 1.366 . S
C18 C15 1.365 . S
C18 C17 1.366 . S
C18 H32 0.930 . S
C19 C16 1.378 . S
C19 N20 1.315 . S
C19 H22 0.930 . S
N20 Co0 2.194 1_554 S
N20 C15 1.328 . S
N20 C19 1.315 . S
H21 C15 0.929 . S
H22 C19 0.930 . S
H23 C11 0.929 . S
H24 C13 0.929 . S
O25 Co0 2.351 1_554 S
O25 C28 1.244 . S
O26 Co0 2.155 . S
O26 C28 1.240 1_556 S
O27 Co0 2.096 . S
O27 C8 1.247 . S
C28 O25 1.244 . S
C28 O26 1.240 1_554 S
H29 C3 0.931 . S
H30 C12 0.931 . S
H31 C16 0.929 . S
H32 C18 0.930 . S
Co33 N37 2.148 . S
Co33 N43 2.128 . S
Co33 N53 2.194 . S
Co33 O58 2.351 . S
Co33 O59 2.155 . S
Co33 O60 2.096 . S
C34 N37 1.301 . S
C34 N38 1.328 1_565 S
C34 H39 0.930 . S
C35 C36 1.333 . S
C35 N37 1.317 . S
C35 H40 0.930 . S
C36 C35 1.333 . S
C36 N38 1.350 1_565 S
C36 H62 0.931 1_565 S
N37 Co33 2.148 . S
N37 C34 1.301 . S
N37 C35 1.317 . S
N38 C34 1.328 1_545 S
N38 C36 1.350 1_545 S
H39 C34 0.930 . S
H40 C35 0.930 . S
C41 O42 1.224 . S
C41 O60 1.247 . S
O42 C41 1.224 . S
N43 Co33 2.128 . S
N43 C44 1.355 . S
N43 C46 1.311 . S
C44 N43 1.355 . S
C44 C45 1.363 . S
C44 H56 0.929 . S
C45 C44 1.363 . S
C45 N47 1.375 . S
C45 H63 0.931 . S
C46 N43 1.311 . S
C46 N47 1.347 . S
C46 H57 0.929 . S
N47 C45 1.375 . S
N47 C46 1.347 . S
C48 C51 1.365 . S
C48 N53 1.328 . S
C48 H54 0.929 . S
C49 C50 1.362 . S
C49 C52 1.378 . S
C49 H64 0.929 . S
C50 C49 1.362 . S
C50 C51 1.366 . S
C51 C48 1.365 . S
C51 C50 1.366 . S
C51 H65 0.930 . S
C52 C49 1.378 . S
C52 N53 1.315 . S
C52 H55 0.930 . S
N53 Co33 2.194 . S
N53 C48 1.328 . S
N53 C52 1.315 . S
H54 C48 0.929 . S
H55 C52 0.930 . S
H56 C44 0.929 . S
H57 C46 0.929 . S
O58 Co33 2.351 . S
O58 C61 1.244 . S
O59 Co33 2.155 . S
O59 C61 1.240 . S
O60 Co33 2.096 . S
O60 C41 1.247 . S
C61 O58 1.244 . S
C61 O59 1.240 . S
H62 C36 0.931 1_545 S
H63 C45 0.931 . S
H64 C49 0.929 . S
H65 C51 0.930 . S
Co66 N70 2.148 . S
Co66 N76 2.128 . S
Co66 N86 2.194 . S
Co66 O91 2.351 . S
Co66 O92 2.155 . S
Co66 O93 2.096 . S
C67 N70 1.301 . S
C67 N71 1.328 . S
C67 H72 0.930 . S
C68 C69 1.333 . S
C68 N70 1.317 . S
C68 H73 0.930 . S
C69 C68 1.333 . S
C69 N71 1.350 . S
C69 H95 0.931 . S
N70 Co66 2.148 . S
N70 C67 1.301 . S
N70 C68 1.317 . S
N71 C67 1.328 . S
N71 C69 1.350 . S
H72 C67 0.930 . S
H73 C68 0.930 . S
C74 O75 1.224 . S
C74 O93 1.247 . S
O75 C74 1.224 . S
N76 Co66 2.128 . S
N76 C77 1.355 . S
N76 C79 1.311 . S
C77 N76 1.355 . S
C77 C78 1.363 . S
C77 H89 0.929 . S
C78 C77 1.363 . S
C78 N80 1.375 . S
C78 H96 0.931 . S
C79 N76 1.311 . S
C79 N80 1.347 . S
C79 H90 0.929 . S
N80 C78 1.375 . S
N80 C79 1.347 . S
C81 C84 1.365 . S
C81 N86 1.328 . S
C81 H87 0.929 . S
C82 C83 1.362 . S
C82 C85 1.378 . S
C82 H97 0.929 . S
C83 C82 1.362 . S
C83 C84 1.366 . S
C84 C81 1.365 . S
C84 C83 1.366 . S
C84 H98 0.930 . S
C85 C82 1.378 . S
C85 N86 1.315 . S
C85 H88 0.930 . S
N86 Co66 2.194 . S
N86 C81 1.328 . S
N86 C85 1.315 . S
H87 C81 0.929 . S
H88 C85 0.930 . S
H89 C77 0.929 . S
H90 C79 0.929 . S
O91 Co66 2.351 . S
O91 C94 1.244 . S
O92 Co66 2.155 . S
O92 C94 1.240 . S
O93 Co66 2.096 . S
O93 C74 1.247 . S
C94 O91 1.244 . S
C94 O92 1.240 . S
H95 C69 0.931 . S
H96 C78 0.931 . S
H97 C82 0.929 . S
H98 C84 0.930 . S
Co99 N103 2.148 . S
Co99 N109 2.128 . S
Co99 N119 2.194 . S
Co99 O124 2.351 . S
Co99 O125 2.155 . S
Co99 O126 2.096 . S
C100 N103 1.301 . S
C100 N104 1.328 1_545 S
C100 H105 0.930 . S
C101 C102 1.333 . S
C101 N103 1.317 . S
C101 H106 0.930 . S
C102 C101 1.333 . S
C102 N104 1.350 1_545 S
C102 H128 0.931 1_545 S
N103 Co99 2.148 . S
N103 C100 1.301 . S
N103 C101 1.317 . S
N104 C100 1.328 1_565 S
N104 C102 1.350 1_565 S
H105 C100 0.930 . S
H106 C101 0.930 . S
C107 O108 1.224 . S
C107 O126 1.247 . S
O108 C107 1.224 . S
N109 Co99 2.128 . S
N109 C110 1.355 . S
N109 C112 1.311 . S
C110 N109 1.355 . S
C110 C111 1.363 . S
C110 H122 0.929 . S
C111 C110 1.363 . S
C111 N113 1.375 . S
C111 H129 0.931 . S
C112 N109 1.311 . S
C112 N113 1.347 . S
C112 H123 0.929 . S
N113 C111 1.375 . S
N113 C112 1.347 . S
C114 C117 1.365 . S
C114 N119 1.328 . S
C114 H120 0.929 . S
C115 C116 1.362 . S
C115 C118 1.378 . S
C115 H130 0.929 . S
C116 C115 1.362 . S
C116 C117 1.366 . S
C117 C114 1.365 . S
C117 C116 1.366 . S
C117 H131 0.930 . S
C118 C115 1.378 . S
C118 N119 1.315 . S
C118 H121 0.930 . S
N119 Co99 2.194 . S
N119 C114 1.328 . S
N119 C118 1.315 . S
H120 C114 0.929 . S
H121 C118 0.930 . S
H122 C110 0.929 . S
H123 C112 0.929 . S
O124 Co99 2.351 . S
O124 C127 1.244 . S
O125 Co99 2.155 . S
O125 C127 1.240 . S
O126 Co99 2.096 . S
O126 C107 1.247 . S
C127 O124 1.244 . S
C127 O125 1.240 . S
H128 C102 0.931 1_565 S
H129 C111 0.931 . S
H130 C115 0.929 . S
H131 C117 0.930 . S
Co132 N136 2.148 . S
Co132 N142 2.128 . S
Co132 N152 2.194 . S
Co132 O157 2.351 . S
Co132 O158 2.155 . S
Co132 O159 2.096 . S
C133 N136 1.301 . S
C133 N137 1.328 1_655 S
C133 H138 0.930 . S
C134 C135 1.333 . S
C134 N136 1.317 . S
C134 H139 0.930 . S
C135 C134 1.333 . S
C135 N137 1.350 1_655 S
C135 H161 0.931 1_655 S
N136 Co132 2.148 . S
N136 C133 1.301 . S
N136 C134 1.317 . S
N137 C133 1.328 1_455 S
N137 C135 1.350 1_455 S
H138 C133 0.930 . S
H139 C134 0.930 . S
C140 O141 1.224 . S
C140 O159 1.247 . S
O141 C140 1.224 . S
N142 Co132 2.128 . S
N142 C143 1.355 . S
N142 C145 1.311 . S
C143 N142 1.355 . S
C143 C144 1.363 . S
C143 H155 0.929 . S
C144 C143 1.363 . S
C144 N146 1.375 . S
C144 H162 0.931 . S
C145 N142 1.311 . S
C145 N146 1.347 . S
C145 H156 0.929 . S
N146 C144 1.375 . S
N146 C145 1.347 . S
C147 C150 1.365 . S
C147 N152 1.328 . S
C147 H153 0.929 . S
C148 C149 1.362 . S
C148 C151 1.378 . S
C148 H163 0.929 . S
C149 C148 1.362 . S
C149 C150 1.366 . S
C150 C147 1.365 . S
C150 C149 1.366 . S
C150 H164 0.930 . S
C151 C148 1.378 . S
C151 N152 1.315 . S
C151 H154 0.930 . S
N152 Co132 2.194 . S
N152 C147 1.328 . S
N152 C151 1.315 . S
H153 C147 0.929 . S
H154 C151 0.930 . S
H155 C143 0.929 . S
H156 C145 0.929 . S
O157 Co132 2.351 . S
O157 C160 1.244 . S
O158 Co132 2.155 . S
O158 C160 1.240 . S
O159 Co132 2.096 . S
O159 C140 1.247 . S
C160 O157 1.244 . S
C160 O158 1.240 . S
H161 C135 0.931 1_455 S
H162 C144 0.931 . S
H163 C148 0.929 . S
H164 C150 0.930 . S
Co165 N169 2.148 . S
Co165 N175 2.128 . S
Co165 N185 2.194 1_554 S
Co165 O190 2.351 1_554 S
Co165 O191 2.155 . S
Co165 O192 2.096 . S
C166 N169 1.301 . S
C166 N170 1.328 . S
C166 H171 0.930 1_554 S
C167 C168 1.333 . S
C167 N169 1.317 . S
C167 H172 0.930 . S
C168 C167 1.333 . S
C168 N170 1.350 . S
C168 H194 0.931 . S
N169 Co165 2.148 . S
N169 C166 1.301 . S
N169 C167 1.317 . S
N170 C166 1.328 . S
N170 C168 1.350 . S
H171 C166 0.930 1_556 S
H172 C167 0.930 . S
C173 O174 1.224 . S
C173 O192 1.247 . S
O174 C173 1.224 . S
N175 Co165 2.128 . S
N175 C176 1.355 . S
N175 C178 1.311 . S
C176 N175 1.355 . S
C176 C177 1.363 . S
C176 H188 0.929 1_554 S
C177 C176 1.363 . S
C177 N179 1.375 . S
C177 H195 0.931 . S
C178 N175 1.311 . S
C178 N179 1.347 . S
C178 H189 0.929 . S
N179 C177 1.375 . S
N179 C178 1.347 . S
C180 C183 1.365 . S
C180 N185 1.328 . S
C180 H186 0.929 . S
C181 C182 1.362 . S
C181 C184 1.378 . S
C181 H196 0.929 . S
C182 C181 1.362 . S
C182 C183 1.366 . S
C183 C180 1.365 . S
C183 C182 1.366 . S
C183 H197 0.930 . S
C184 C181 1.378 . S
C184 N185 1.315 . S
C184 H187 0.930 1_556 S
N185 Co165 2.194 1_556 S
N185 C180 1.328 . S
N185 C184 1.315 . S
H186 C180 0.929 . S
H187 C184 0.930 1_554 S
H188 C176 0.929 1_556 S
H189 C178 0.929 . S
O190 Co165 2.351 1_556 S
O190 C193 1.244 1_556 S
O191 Co165 2.155 . S
O191 C193 1.240 . S
O192 Co165 2.096 . S
O192 C173 1.247 . S
C193 O190 1.244 1_554 S
C193 O191 1.240 . S
H194 C168 0.931 . S
H195 C177 0.931 . S
H196 C181 0.929 . S
H197 C183 0.930 . S
Co198 N202 2.148 . S
Co198 N208 2.128 . S
Co198 N218 2.194 . S
Co198 O223 2.351 . S
Co198 O224 2.155 . S
Co198 O225 2.096 . S
C199 N202 1.301 . S
C199 N203 1.328 1_455 S
C199 H204 0.930 . S
C200 C201 1.333 . S
C200 N202 1.317 . S
C200 H205 0.930 . S
C201 C200 1.333 . S
C201 N203 1.350 1_455 S
C201 H227 0.931 1_455 S
N202 Co198 2.148 . S
N202 C199 1.301 . S
N202 C200 1.317 . S
N203 C199 1.328 1_655 S
N203 C201 1.350 1_655 S
H204 C199 0.930 . S
H205 C200 0.930 . S
C206 O207 1.224 . S
C206 O225 1.247 . S
O207 C206 1.224 . S
N208 Co198 2.128 . S
N208 C209 1.355 . S
N208 C211 1.311 . S
C209 N208 1.355 . S
C209 C210 1.363 . S
C209 H221 0.929 . S
C210 C209 1.363 . S
C210 N212 1.375 . S
C210 H228 0.931 . S
C211 N208 1.311 . S
C211 N212 1.347 . S
C211 H222 0.929 . S
N212 C210 1.375 . S
N212 C211 1.347 . S
C213 C216 1.365 . S
C213 N218 1.328 . S
C213 H219 0.929 . S
C214 C215 1.362 . S
C214 C217 1.378 . S
C214 H229 0.929 . S
C215 C214 1.362 . S
C215 C216 1.366 . S
C216 C213 1.365 . S
C216 C215 1.366 . S
C216 H230 0.930 . S
C217 C214 1.378 . S
C217 N218 1.315 . S
C217 H220 0.930 . S
N218 Co198 2.194 . S
N218 C213 1.328 . S
N218 C217 1.315 . S
H219 C213 0.929 . S
H220 C217 0.930 . S
H221 C209 0.929 . S
H222 C211 0.929 . S
O223 Co198 2.351 . S
O223 C226 1.244 . S
O224 Co198 2.155 . S
O224 C226 1.240 . S
O225 Co198 2.096 . S
O225 C206 1.247 . S
C226 O223 1.244 . S
C226 O224 1.240 . S
H227 C201 0.931 1_655 S
H228 C210 0.931 . S
H229 C214 0.929 . S
H230 C216 0.930 . S
Co231 N235 2.148 . S
Co231 N241 2.128 . S
Co231 N251 2.194 . S
Co231 O256 2.351 . S
Co231 O257 2.155 . S
Co231 O258 2.096 . S
C232 N235 1.301 . S
C232 N236 1.328 . S
C232 H237 0.930 . S
C233 C234 1.333 . S
C233 N235 1.317 . S
C233 H238 0.930 . S
C234 C233 1.333 . S
C234 N236 1.350 . S
C234 H260 0.931 . S
N235 Co231 2.148 . S
N235 C232 1.301 . S
N235 C233 1.317 . S
N236 C232 1.328 . S
N236 C234 1.350 . S
H237 C232 0.930 . S
H238 C233 0.930 . S
C239 O240 1.224 . S
C239 O258 1.247 . S
O240 C239 1.224 . S
N241 Co231 2.128 . S
N241 C242 1.355 . S
N241 C244 1.311 . S
C242 N241 1.355 . S
C242 C243 1.363 . S
C242 H254 0.929 . S
C243 C242 1.363 . S
C243 N245 1.375 . S
C243 H261 0.931 . S
C244 N241 1.311 . S
C244 N245 1.347 . S
C244 H255 0.929 . S
N245 C243 1.375 . S
N245 C244 1.347 . S
C246 C249 1.365 . S
C246 N251 1.328 . S
C246 H252 0.929 . S
C247 C248 1.362 . S
C247 C250 1.378 . S
C247 H262 0.929 . S
C248 C247 1.362 . S
C248 C249 1.366 . S
C249 C246 1.365 . S
C249 C248 1.366 . S
C249 H263 0.930 . S
C250 C247 1.378 . S
C250 N251 1.315 . S
C250 H253 0.930 . S
N251 Co231 2.194 . S
N251 C246 1.328 . S
N251 C250 1.315 . S
H252 C246 0.929 . S
H253 C250 0.930 . S
H254 C242 0.929 . S
H255 C244 0.929 . S
O256 Co231 2.351 . S
O256 C259 1.244 . S
O257 Co231 2.155 . S
O257 C259 1.240 . S
O258 Co231 2.096 . S
O258 C239 1.247 . S
C259 O256 1.244 . S
C259 O257 1.240 . S
H260 C234 0.931 . S
H261 C243 0.931 . S
H262 C247 0.929 . S
H263 C249 0.930 . S
H264 C270 0.930 . S
H265 C273 0.930 1_556 S
H266 C274 0.930 1_556 S
H267 C275 0.930 . S
H268 C278 0.930 . S
H269 C279 0.930 . S
C270 H264 0.930 . S
C270 C271 1.355 . S
C270 C272 1.415 . S
C271 C270 1.355 . S
C271 C273 1.419 . S
C272 C270 1.415 . S
C272 C277 1.425 . S
C272 C279 1.409 . S
C273 H265 0.930 1_554 S
C273 C271 1.419 . S
C273 C274 1.362 . S
C274 H266 0.930 1_554 S
C274 C273 1.362 . S
C274 C277 1.409 . S
C275 H267 0.930 . S
C275 C276 1.355 . S
C275 C277 1.415 . S
C276 C275 1.355 . S
C276 C278 1.419 . S
C277 C272 1.425 . S
C277 C274 1.409 . S
C277 C275 1.415 . S
C278 H268 0.930 . S
C278 C276 1.419 . S
C278 C279 1.362 . S
C279 H269 0.930 . S
C279 C272 1.409 . S
C279 C278 1.362 . S
H280 C286 0.930 . S
H281 C289 0.930 1_455 S
H282 C290 0.930 . S
H283 C291 0.930 . S
H284 C294 0.930 . S
H285 C295 0.930 . S
C286 H280 0.930 . S
C286 C287 1.355 . S
C286 C288 1.415 . S
C287 C286 1.355 . S
C287 C289 1.419 . S
C288 C286 1.415 . S
C288 C293 1.425 . S
C288 C295 1.409 . S
C289 H281 0.930 1_655 S
C289 C287 1.419 . S
C289 C290 1.362 . S
C290 H282 0.930 . S
C290 C289 1.362 . S
C290 C293 1.409 . S
C291 H283 0.930 . S
C291 C292 1.355 . S
C291 C293 1.415 . S
C292 C291 1.355 . S
C292 C294 1.419 . S
C293 C288 1.425 . S
C293 C290 1.409 . S
C293 C291 1.415 . S
C294 H284 0.930 . S
C294 C292 1.419 . S
C294 C295 1.362 . S
C295 H285 0.930 . S
C295 C288 1.409 . S
C295 C294 1.362 . S
H296 C302 0.930 . S
H297 C305 0.930 . S
H298 C306 0.930 . S
H299 C307 0.930 . S
H300 C310 0.930 . S
H301 C311 0.930 . S
C302 H296 0.930 . S
C302 C303 1.355 . S
C302 C304 1.415 . S
C303 C302 1.355 . S
C303 C305 1.419 . S
C304 C302 1.415 . S
C304 C309 1.425 . S
C304 C311 1.409 . S
C305 H297 0.930 . S
C305 C303 1.419 . S
C305 C306 1.362 . S
C306 H298 0.930 . S
C306 C305 1.362 . S
C306 C309 1.409 . S
C307 H299 0.930 . S
C307 C308 1.355 . S
C307 C309 1.415 . S
C308 C307 1.355 . S
C308 C310 1.419 . S
C309 C304 1.425 . S
C309 C306 1.409 . S
C309 C307 1.415 . S
C310 H300 0.930 . S
C310 C308 1.419 . S
C310 C311 1.362 . S
C311 H301 0.930 . S
C311 C304 1.409 . S
C311 C310 1.362 . S
H312 C318 0.930 . S
H313 C321 0.930 1_655 S
H314 C322 0.930 . S
H315 C323 0.930 . S
H316 C326 0.930 . S
H317 C327 0.930 . S
C318 H312 0.930 . S
C318 C319 1.355 . S
C318 C320 1.415 . S
C319 C318 1.355 . S
C319 C321 1.419 . S
C320 C318 1.415 . S
C320 C325 1.425 . S
C320 C327 1.409 . S
C321 H313 0.930 1_455 S
C321 C319 1.419 . S
C321 C322 1.362 . S
C322 H314 0.930 . S
C322 C321 1.362 . S
C322 C325 1.409 . S
C323 H315 0.930 . S
C323 C324 1.355 . S
C323 C325 1.415 . S
C324 C323 1.355 . S
C324 C326 1.419 . S
C325 C320 1.425 . S
C325 C322 1.409 . S
C325 C323 1.415 . S
C326 H316 0.930 . S
C326 C324 1.419 . S
C326 C327 1.362 . S
C327 H317 0.930 . S
C327 C320 1.409 . S
C327 C326 1.362 . S
H328 C334 0.930 . S
H329 C337 0.930 . S
H330 C338 0.930 . S
H331 C339 0.930 . S
H332 C342 0.930 . S
H333 C343 0.930 . S
C334 H328 0.930 . S
C334 C335 1.355 . S
C334 C336 1.415 . S
C335 C334 1.355 . S
C335 C337 1.419 . S
C336 C334 1.415 . S
C336 C341 1.425 . S
C336 C343 1.409 . S
C337 H329 0.930 . S
C337 C335 1.419 . S
C337 C338 1.362 . S
C338 H330 0.930 . S
C338 C337 1.362 . S
C338 C341 1.409 . S
C339 H331 0.930 . S
C339 C340 1.355 . S
C339 C341 1.415 . S
C340 C339 1.355 . S
C340 C342 1.419 . S
C341 C336 1.425 . S
C341 C338 1.409 . S
C341 C339 1.415 . S
C342 H332 0.930 . S
C342 C340 1.419 . S
C342 C343 1.362 . S
C343 H333 0.930 . S
C343 C336 1.409 . S
C343 C342 1.362 . S
H344 C350 0.930 . S
H345 C353 0.930 . S
H346 C354 0.930 . S
H347 C355 0.930 . S
H348 C358 0.930 . S
H349 C359 0.930 . S
C350 H344 0.930 . S
C350 C351 1.355 . S
C350 C352 1.415 . S
C351 C350 1.355 . S
C351 C353 1.419 . S
C352 C350 1.415 . S
C352 C357 1.425 . S
C352 C359 1.409 . S
C353 H345 0.930 . S
C353 C351 1.419 . S
C353 C354 1.362 . S
C354 H346 0.930 . S
C354 C353 1.362 . S
C354 C357 1.409 . S
C355 H347 0.930 . S
C355 C356 1.355 . S
C355 C357 1.415 . S
C356 C355 1.355 . S
C356 C358 1.419 . S
C357 C352 1.425 . S
C357 C354 1.409 . S
C357 C355 1.415 . S
C358 H348 0.930 . S
C358 C356 1.419 . S
C358 C359 1.362 . S
C359 H349 0.930 . S
C359 C352 1.409 . S
C359 C358 1.362 . S
H360 C366 0.930 . S
H361 C369 0.930 . S
H362 C370 0.930 . S
H363 C371 0.930 . S
H364 C374 0.930 . S
H365 C375 0.930 . S
C366 H360 0.930 . S
C366 C367 1.355 . S
C366 C368 1.415 . S
C367 C366 1.355 . S
C367 C369 1.419 . S
C368 C366 1.415 . S
C368 C373 1.425 . S
C368 C375 1.409 . S
C369 H361 0.930 . S
C369 C367 1.419 . S
C369 C370 1.362 . S
C370 H362 0.930 . S
C370 C369 1.362 . S
C370 C373 1.409 . S
C371 H363 0.930 . S
C371 C372 1.355 . S
C371 C373 1.415 . S
C372 C371 1.355 . S
C372 C374 1.419 . S
C373 C368 1.425 . S
C373 C370 1.409 . S
C373 C371 1.415 . S
C374 H364 0.930 . S
C374 C372 1.419 . S
C374 C375 1.362 . S
C375 H365 0.930 . S
C375 C368 1.409 . S
C375 C374 1.362 . S
H376 C382 0.930 . S
H377 C385 0.930 . S
H378 C386 0.930 . S
H379 C387 0.930 . S
H380 C390 0.930 . S
H381 C391 0.930 . S
C382 H376 0.930 . S
C382 C383 1.355 . S
C382 C384 1.415 1_556 S
C383 C382 1.355 . S
C383 C385 1.419 . S
C384 C382 1.415 1_554 S
C384 C389 1.425 . S
C384 C391 1.409 . S
C385 H377 0.930 . S
C385 C383 1.419 . S
C385 C386 1.362 . S
C386 H378 0.930 . S
C386 C385 1.362 . S
C386 C389 1.409 1_556 S
C387 H379 0.930 . S
C387 C388 1.355 . S
C387 C389 1.415 . S
C388 C387 1.355 . S
C388 C390 1.419 . S
C389 C384 1.425 . S
C389 C386 1.409 1_554 S
C389 C387 1.415 . S
C390 H380 0.930 . S
C390 C388 1.419 . S
C390 C391 1.362 . S
C391 H381 0.930 . S
C391 C384 1.409 . S
C391 C390 1.362 . S
H392 C398 0.930 . S
H393 C401 0.930 . S
H394 C402 0.930 . S
H395 C403 0.930 . S
H396 C406 0.930 . S
H397 C407 0.930 . S
C398 H392 0.930 . S
C398 C399 1.355 . S
C398 C400 1.415 . S
C399 C398 1.355 . S
C399 C401 1.419 . S
C400 C398 1.415 . S
C400 C405 1.425 . S
C400 C407 1.409 . S
C401 H393 0.930 . S
C401 C399 1.419 . S
C401 C402 1.362 . S
C402 H394 0.930 . S
C402 C401 1.362 . S
C402 C405 1.409 . S
C403 H395 0.930 . S
C403 C404 1.355 . S
C403 C405 1.415 . S
C404 C403 1.355 . S
C404 C406 1.419 . S
C405 C400 1.425 . S
C405 C402 1.409 . S
C405 C403 1.415 . S
C406 H396 0.930 . S
C406 C404 1.419 . S
C406 C407 1.362 . S
C407 H397 0.930 . S
C407 C400 1.409 . S
C407 C406 1.362 . S
H408 C414 0.930 . S
H409 C417 0.930 . S
H410 C418 0.930 . S
H411 C419 0.930 . S
H412 C422 0.930 . S
H413 C423 0.930 . S
C414 H408 0.930 . S
C414 C415 1.355 . S
C414 C416 1.415 . S
C415 C414 1.355 . S
C415 C417 1.419 . S
C416 C414 1.415 . S
C416 C421 1.425 1_554 S
C416 C423 1.409 . S
C417 H409 0.930 . S
C417 C415 1.419 . S
C417 C418 1.362 1_554 S
C418 H410 0.930 . S
C418 C417 1.362 1_556 S
C418 C421 1.409 . S
C419 H411 0.930 . S
C419 C420 1.355 . S
C419 C421 1.415 . S
C420 C419 1.355 . S
C420 C422 1.419 1_556 S
C421 C416 1.425 1_556 S
C421 C418 1.409 . S
C421 C419 1.415 . S
C422 H412 0.930 . S
C422 C420 1.419 1_554 S
C422 C423 1.362 . S
C423 H413 0.930 . S
C423 C416 1.409 . S
C423 C422 1.362 . S
H424 C430 0.930 . S
H425 C433 0.930 . S
H426 C434 0.930 . S
H427 C435 0.930 . S
H428 C438 0.930 . S
H429 C439 0.930 . S
C430 H424 0.930 . S
C430 C431 1.355 . S
C430 C432 1.415 . S
C431 C430 1.355 . S
C431 C433 1.419 . S
C432 C430 1.415 . S
C432 C437 1.425 . S
C432 C439 1.409 . S
C433 H425 0.930 . S
C433 C431 1.419 . S
C433 C434 1.362 . S
C434 H426 0.930 . S
C434 C433 1.362 . S
C434 C437 1.409 . S
C435 H427 0.930 . S
C435 C436 1.355 . S
C435 C437 1.415 . S
C436 C435 1.355 . S
C436 C438 1.419 . S
C437 C432 1.425 . S
C437 C434 1.409 . S
C437 C435 1.415 . S
C438 H428 0.930 . S
C438 C436 1.419 . S
C438 C439 1.362 . S
C439 H429 0.930 . S
C439 C432 1.409 . S
C439 C438 1.362 . S
H440 C446 0.930 . S
H441 C449 0.930 . S
H442 C450 0.930 . S
H443 C451 0.930 . S
H444 C454 0.930 . S
H445 C455 0.930 . S
C446 H440 0.930 . S
C446 C447 1.355 . S
C446 C448 1.415 . S
C447 C446 1.355 . S
C447 C449 1.419 . S
C448 C446 1.415 . S
C448 C453 1.425 . S
C448 C455 1.409 . S
C449 H441 0.930 . S
C449 C447 1.419 . S
C449 C450 1.362 . S
C450 H442 0.930 . S
C450 C449 1.362 . S
C450 C453 1.409 . S
C451 H443 0.930 . S
C451 C452 1.355 . S
C451 C453 1.415 . S
C452 C451 1.355 . S
C452 C454 1.419 . S
C453 C448 1.425 . S
C453 C450 1.409 . S
C453 C451 1.415 . S
C454 H444 0.930 . S
C454 C452 1.419 . S
C454 C455 1.362 . S
C455 H445 0.930 . S
C455 C448 1.409 . S
C455 C454 1.362 . S
H456 C462 0.930 . S
H457 C465 0.930 . S
H458 C466 0.930 . S
H459 C467 0.930 . S
H460 C470 0.930 . S
H461 C471 0.930 . S
C462 H456 0.930 . S
C462 C463 1.355 . S
C462 C464 1.415 . S
C463 C462 1.355 . S
C463 C465 1.419 . S
C464 C462 1.415 . S
C464 C469 1.425 . S
C464 C471 1.409 . S
C465 H457 0.930 . S
C465 C463 1.419 . S
C465 C466 1.362 . S
C466 H458 0.930 . S
C466 C465 1.362 . S
C466 C469 1.409 . S
C467 H459 0.930 . S
C467 C468 1.355 . S
C467 C469 1.415 . S
C468 C467 1.355 . S
C468 C470 1.419 . S
C469 C464 1.425 . S
C469 C466 1.409 . S
C469 C467 1.415 . S
C470 H460 0.930 . S
C470 C468 1.419 . S
C470 C471 1.362 . S
C471 H461 0.930 . S
C471 C464 1.409 . S
C471 C470 1.362 . S
H472 C478 0.930 . S
H473 C481 0.930 . S
H474 C482 0.930 . S
H475 C483 0.930 . S
H476 C486 0.930 . S
H477 C487 0.930 . S
C478 H472 0.930 . S
C478 C479 1.355 . S
C478 C480 1.415 . S
C479 C478 1.355 . S
C479 C481 1.419 . S
C480 C478 1.415 . S
C480 C485 1.425 . S
C480 C487 1.409 . S
C481 H473 0.930 . S
C481 C479 1.419 . S
C481 C482 1.362 . S
C482 H474 0.930 . S
C482 C481 1.362 . S
C482 C485 1.409 . S
C483 H475 0.930 . S
C483 C484 1.355 . S
C483 C485 1.415 . S
C484 C483 1.355 . S
C484 C486 1.419 . S
C485 C480 1.425 . S
C485 C482 1.409 . S
C485 C483 1.415 . S
C486 H476 0.930 . S
C486 C484 1.419 . S
C486 C487 1.362 . S
C487 H477 0.930 . S
C487 C480 1.409 . S
C487 C486 1.362 . S
H488 C494 0.930 . S
H489 C497 0.928 1_565 S
H490 C498 0.930 . S
H491 C499 0.930 . S
H492 C502 0.930 . S
H493 C503 0.930 . S
C494 H488 0.930 . S
C494 C495 1.355 . S
C494 C496 1.415 . S
C495 C494 1.355 . S
C495 C497 1.419 . S
C496 C494 1.415 . S
C496 C501 1.425 . S
C496 C503 1.409 . S
C497 H489 0.928 1_545 S
C497 C495 1.419 . S
C497 C498 1.362 . S
C498 H490 0.930 . S
C498 C497 1.362 . S
C498 C501 1.409 . S
C499 H491 0.930 . S
C499 C500 1.355 . S
C499 C501 1.415 . S
C500 C499 1.355 . S
C500 C502 1.419 . S
C501 C496 1.425 . S
C501 C498 1.409 . S
C501 C499 1.415 . S
C502 H492 0.930 . S
C502 C500 1.419 . S
C502 C503 1.362 . S
C503 H493 0.930 . S
C503 C496 1.409 . S
C503 C502 1.362 . S
H504 C510 0.930 . S
H505 C513 0.930 . S
H506 C514 0.930 . S
H507 C515 0.930 . S
H508 C518 0.930 . S
H509 C519 0.930 . S
C510 H504 0.930 . S
C510 C511 1.355 . S
C510 C512 1.415 . S
C511 C510 1.355 . S
C511 C513 1.419 . S
C512 C510 1.415 . S
C512 C517 1.425 . S
C512 C519 1.409 . S
C513 H505 0.930 . S
C513 C511 1.419 . S
C513 C514 1.362 . S
C514 H506 0.930 . S
C514 C513 1.362 . S
C514 C517 1.409 . S
C515 H507 0.930 . S
C515 C516 1.355 . S
C515 C517 1.415 . S
C516 C515 1.355 . S
C516 C518 1.419 . S
C517 C512 1.425 . S
C517 C514 1.409 . S
C517 C515 1.415 . S
C518 H508 0.930 . S
C518 C516 1.419 . S
C518 C519 1.362 . S
C519 H509 0.930 . S
C519 C512 1.409 . S
C519 C518 1.362 . S
H520 C526 0.930 . S
H521 C529 0.930 . S
H522 C530 0.930 . S
H523 C531 0.930 . S
H524 C534 0.930 . S
H525 C535 0.930 . S
C526 H520 0.930 . S
C526 C527 1.355 . S
C526 C528 1.415 . S
C527 C526 1.355 . S
C527 C529 1.419 . S
C528 C526 1.415 . S
C528 C533 1.425 . S
C528 C535 1.409 1_556 S
C529 H521 0.930 . S
C529 C527 1.419 . S
C529 C530 1.362 . S
C530 H522 0.930 . S
C530 C529 1.362 . S
C530 C533 1.409 . S
C531 H523 0.930 . S
C531 C532 1.355 1_556 S
C531 C533 1.415 . S
C532 C531 1.355 1_554 S
C532 C534 1.419 . S
C533 C528 1.425 . S
C533 C530 1.409 . S
C533 C531 1.415 . S
C534 H524 0.930 . S
C534 C532 1.419 . S
C534 C535 1.362 . S
C535 H525 0.930 . S
C535 C528 1.409 1_554 S
C535 C534 1.362 . S
H536 C542 0.930 . S
H537 C545 0.930 . S
H538 C546 0.930 . S
H539 C547 0.930 . S
H540 C550 0.930 . S
H541 C551 0.930 . S
C542 H536 0.930 . S
C542 C543 1.355 . S
C542 C544 1.415 . S
C543 C542 1.355 . S
C543 C545 1.419 . S
C544 C542 1.415 . S
C544 C549 1.425 . S
C544 C551 1.409 . S
C545 H537 0.930 . S
C545 C543 1.419 . S
C545 C546 1.362 . S
C546 H538 0.930 . S
C546 C545 1.362 . S
C546 C549 1.409 . S
C547 H539 0.930 . S
C547 C548 1.355 . S
C547 C549 1.415 . S
C548 C547 1.355 . S
C548 C550 1.419 . S
C549 C544 1.425 . S
C549 C546 1.409 . S
C549 C547 1.415 . S
C550 H540 0.930 . S
C550 C548 1.419 . S
C550 C551 1.362 . S
C551 H541 0.930 . S
C551 C544 1.409 . S
C551 C550 1.362 . S
H552 C558 0.930 . S
H553 C561 0.930 . S
H554 C562 0.930 . S
H555 C563 0.930 . S
H556 C566 0.930 . S
H557 C567 0.930 . S
C558 H552 0.930 . S
C558 C559 1.355 . S
C558 C560 1.415 . S
C559 C558 1.355 . S
C559 C561 1.419 . S
C560 C558 1.415 . S
C560 C565 1.425 . S
C560 C567 1.409 . S
C561 H553 0.930 . S
C561 C559 1.419 . S
C561 C562 1.362 . S
C562 H554 0.930 . S
C562 C561 1.362 . S
C562 C565 1.409 . S
C563 H555 0.930 . S
C563 C564 1.355 . S
C563 C565 1.415 . S
C564 C563 1.355 . S
C564 C566 1.419 . S
C565 C560 1.425 . S
C565 C562 1.409 . S
C565 C563 1.415 . S
C566 H556 0.930 . S
C566 C564 1.419 . S
C566 C567 1.362 . S
C567 H557 0.930 . S
C567 C560 1.409 . S
C567 C566 1.362 . S
H568 C574 0.930 . S
H569 C577 0.930 . S
H570 C578 0.930 . S
H571 C579 0.930 . S
H572 C582 0.930 . S
H573 C583 0.930 . S
C574 H568 0.930 . S
C574 C575 1.355 . S
C574 C576 1.415 . S
C575 C574 1.355 . S
C575 C577 1.419 . S
C576 C574 1.415 . S
C576 C581 1.425 . S
C576 C583 1.409 . S
C577 H569 0.930 . S
C577 C575 1.419 . S
C577 C578 1.362 . S
C578 H570 0.930 . S
C578 C577 1.362 . S
C578 C581 1.409 . S
C579 H571 0.930 . S
C579 C580 1.355 . S
C579 C581 1.415 . S
C580 C579 1.355 . S
C580 C582 1.419 . S
C581 C576 1.425 . S
C581 C578 1.409 . S
C581 C579 1.415 . S
C582 H572 0.930 . S
C582 C580 1.419 . S
C582 C583 1.362 . S
C583 H573 0.930 . S
C583 C576 1.409 . S
C583 C582 1.362 . S
C271 N170 1.317 . S
C276 N5 1.301 . S
C287 N203 1.256 . S
C292 N38 1.272 . S
C303 N71 1.310 . S
C308 N236 1.292 . S
C319 N137 1.252 . S
C324 N104 1.265 . S
C335 C248 0.931 . S
C340 C17 0.890 . S
C351 C50 0.880 . S
C356 C149 0.916 . S
C367 C182 0.883 . S
C372 C83 0.936 . S
C383 C116 0.889 . S
C388 C215 0.933 . S
C399 C239 1.621 . S
C404 C8 1.625 . S
C415 C41 1.679 . S
C420 C140 1.680 . S
C431 C173 1.641 . S
C436 C74 1.638 . S
C447 C206 1.642 . S
C452 C107 1.639 . S
C463 N14 1.796 . S
C468 C127 1.784 1_565 S
C479 C28 1.756 . S
C484 N47 1.749 . S
C495 C61 1.746 1_545 S
C500 N80 1.770 . S
C511 C94 1.746 . S
C516 N113 1.771 . S
C527 N146 1.769 . S
C532 C193 1.793 . S
C543 C226 1.746 1_655 S
C548 N179 1.768 . S
C559 C259 1.747 . S
C564 N212 1.760 . S
C575 N245 1.750 . S
C580 C160 1.774 1_455 S
