# Generated by pormake.
# Topology whk, (6)-cn, num edge types: 1
# Building blocks:
#     Node 0, Type 0, BuildingBlock: VOLQOD_clean_sbu_1, # of connection points: 6
#     Node 1, Type 0, BuildingBlock: VOLQOD_clean_sbu_1, # of connection points: 6
#     Node 2, Type 0, BuildingBlock: VOLQOD_clean_sbu_1, # of connection points: 6
#     Node 3, Type 0, BuildingBlock: VOLQOD_clean_sbu_1, # of connection points: 6
#     Node 4, Type 0, BuildingBlock: VOLQOD_clean_sbu_1, # of connection points: 6
#     Node 5, Type 0, BuildingBlock: VOLQOD_clean_sbu_1, # of connection points: 6
#     Node 6, Type 0, BuildingBlock: VOLQOD_clean_sbu_1, # of connection points: 6
#     Node 7, Type 0, BuildingBlock: VOLQOD_clean_sbu_1, # of connection points: 6
#     Node 8, Type 0, BuildingBlock: VOLQOD_clean_sbu_1, # of connection points: 6
#     Node 9, Type 0, BuildingBlock: VOLQOD_clean_sbu_1, # of connection points: 6
#     Node 10, Type 0, BuildingBlock: VOLQOD_clean_sbu_1, # of connection points: 6
#     Node 11, Type 0, BuildingBlock: VOLQOD_clean_sbu_1, # of connection points: 6
#     Node 12, Type 0, BuildingBlock: VOLQOD_clean_sbu_1, # of connection points: 6
#     Node 13, Type 0, BuildingBlock: VOLQOD_clean_sbu_1, # of connection points: 6
#     Node 14, Type 0, BuildingBlock: VOLQOD_clean_sbu_1, # of connection points: 6
#     Node 15, Type 0, BuildingBlock: VOLQOD_clean_sbu_1, # of connection points: 6
#     Edge 16, Type (0, 0), BuildingBlock: XUDNAN_clean_linker_2, # of connection points: 2
#     Edge 17, Type (0, 0), BuildingBlock: XUDNAN_clean_linker_2, # of connection points: 2
#     Edge 18, Type (0, 0), BuildingBlock: XUDNAN_clean_linker_2, # of connection points: 2
#     Edge 19, Type (0, 0), BuildingBlock: XUDNAN_clean_linker_2, # of connection points: 2
#     Edge 20, Type (0, 0), BuildingBlock: XUDNAN_clean_linker_2, # of connection points: 2
#     Edge 21, Type (0, 0), BuildingBlock: XUDNAN_clean_linker_2, # of connection points: 2
#     Edge 22, Type (0, 0), BuildingBlock: XUDNAN_clean_linker_2, # of connection points: 2
#     Edge 23, Type (0, 0), BuildingBlock: XUDNAN_clean_linker_2, # of connection points: 2
#     Edge 24, Type (0, 0), BuildingBlock: XUDNAN_clean_linker_2, # of connection points: 2
#     Edge 25, Type (0, 0), BuildingBlock: XUDNAN_clean_linker_2, # of connection points: 2
#     Edge 26, Type (0, 0), BuildingBlock: XUDNAN_clean_linker_2, # of connection points: 2
#     Edge 27, Type (0, 0), BuildingBlock: XUDNAN_clean_linker_2, # of connection points: 2
#     Edge 28, Type (0, 0), BuildingBlock: XUDNAN_clean_linker_2, # of connection points: 2
#     Edge 29, Type (0, 0), BuildingBlock: XUDNAN_clean_linker_2, # of connection points: 2
#     Edge 30, Type (0, 0), BuildingBlock: XUDNAN_clean_linker_2, # of connection points: 2
#     Edge 31, Type (0, 0), BuildingBlock: XUDNAN_clean_linker_2, # of connection points: 2
#     Edge 32, Type (0, 0), BuildingBlock: XUDNAN_clean_linker_2, # of connection points: 2
#     Edge 33, Type (0, 0), BuildingBlock: XUDNAN_clean_linker_2, # of connection points: 2
#     Edge 34, Type (0, 0), BuildingBlock: XUDNAN_clean_linker_2, # of connection points: 2
#     Edge 35, Type (0, 0), BuildingBlock: XUDNAN_clean_linker_2, # of connection points: 2
#     Edge 36, Type (0, 0), BuildingBlock: XUDNAN_clean_linker_2, # of connection points: 2
#     Edge 37, Type (0, 0), BuildingBlock: XUDNAN_clean_linker_2, # of connection points: 2
#     Edge 38, Type (0, 0), BuildingBlock: XUDNAN_clean_linker_2, # of connection points: 2
#     Edge 39, Type (0, 0), BuildingBlock: XUDNAN_clean_linker_2, # of connection points: 2
#     Edge 40, Type (0, 0), BuildingBlock: XUDNAN_clean_linker_2, # of connection points: 2
#     Edge 41, Type (0, 0), BuildingBlock: XUDNAN_clean_linker_2, # of connection points: 2
#     Edge 42, Type (0, 0), BuildingBlock: XUDNAN_clean_linker_2, # of connection points: 2
#     Edge 43, Type (0, 0), BuildingBlock: XUDNAN_clean_linker_2, # of connection points: 2
#     Edge 44, Type (0, 0), BuildingBlock: XUDNAN_clean_linker_2, # of connection points: 2
#     Edge 45, Type (0, 0), BuildingBlock: XUDNAN_clean_linker_2, # of connection points: 2
#     Edge 46, Type (0, 0), BuildingBlock: XUDNAN_clean_linker_2, # of connection points: 2
#     Edge 47, Type (0, 0), BuildingBlock: XUDNAN_clean_linker_2, # of connection points: 2
#     Edge 48, Type (0, 0), BuildingBlock: XUDNAN_clean_linker_2, # of connection points: 2
#     Edge 49, Type (0, 0), BuildingBlock: XUDNAN_clean_linker_2, # of connection points: 2
#     Edge 50, Type (0, 0), BuildingBlock: XUDNAN_clean_linker_2, # of connection points: 2
#     Edge 51, Type (0, 0), BuildingBlock: XUDNAN_clean_linker_2, # of connection points: 2
#     Edge 52, Type (0, 0), BuildingBlock: XUDNAN_clean_linker_2, # of connection points: 2
#     Edge 53, Type (0, 0), BuildingBlock: XUDNAN_clean_linker_2, # of connection points: 2
#     Edge 54, Type (0, 0), BuildingBlock: XUDNAN_clean_linker_2, # of connection points: 2
#     Edge 55, Type (0, 0), BuildingBlock: XUDNAN_clean_linker_2, # of connection points: 2
#     Edge 56, Type (0, 0), BuildingBlock: XUDNAN_clean_linker_2, # of connection points: 2
#     Edge 57, Type (0, 0), BuildingBlock: XUDNAN_clean_linker_2, # of connection points: 2
#     Edge 58, Type (0, 0), BuildingBlock: XUDNAN_clean_linker_2, # of connection points: 2
#     Edge 59, Type (0, 0), BuildingBlock: XUDNAN_clean_linker_2, # of connection points: 2
#     Edge 60, Type (0, 0), BuildingBlock: XUDNAN_clean_linker_2, # of connection points: 2
#     Edge 61, Type (0, 0), BuildingBlock: XUDNAN_clean_linker_2, # of connection points: 2
#     Edge 62, Type (0, 0), BuildingBlock: XUDNAN_clean_linker_2, # of connection points: 2
#     Edge 63, Type (0, 0), BuildingBlock: XUDNAN_clean_linker_2, # of connection points: 2
# Relax obj value: 0.404
# Max RMSD: 0.246
# Mean RMSD: 0.242
data_MOF--net-whk--node1-VOLQOD_clean_sbu_1--edge1-XUDNAN_clean_linker_2
_symmetry_space_group_name_H-M    P1
_symmetry_Int_Tables_number       1
_symmetry_cell_setting            triclinic
loop_
_symmetry_equiv_pos_as_xyz
'x, y, z'
_cell_length_a     37.127473
_cell_length_b     37.112603
_cell_length_c     54.959226
_cell_angle_alpha  90.068033
_cell_angle_beta   90.145208
_cell_angle_gamma 89.877003
loop_
_atom_site_label
_atom_site_type_symbol
_atom_site_fract_x
_atom_site_fract_y
_atom_site_fract_z
_atom_type_partial_charge
O0 O 0.55854 0.22762 0.44691 0.0
Zn1 Zn 0.55494 0.21712 0.41162 0.0
O2 O 0.54347 0.16837 0.40549 0.0
Zn3 Zn 0.58585 0.14277 0.39567 0.0
Zn4 Zn 0.52233 0.14983 0.43516 0.0
Zn5 Zn 0.51194 0.16767 0.37794 0.0
O6 O 0.57556 0.11164 0.36622 0.0
O7 O 0.53617 0.14764 0.34775 0.0
O8 O 0.59856 0.23125 0.39369 0.0
O9 O 0.62272 0.17832 0.38404 0.0
O10 O 0.60545 0.11489 0.42432 0.0
O11 O 0.55992 0.11698 0.45073 0.0
O12 O 0.47607 0.12171 0.42618 0.0
O13 O 0.51555 0.24825 0.40025 0.0
O14 O 0.47443 0.13276 0.38626 0.0
O15 O 0.48667 0.21555 0.37274 0.0
C16 C 0.53512 0.21893 0.46268 0.0
C17 C 0.55823 0.12121 0.34718 0.0
C18 C 0.59167 0.10674 0.44485 0.0
C19 C 0.62309 0.21263 0.38363 0.0
C20 C 0.46222 0.11705 0.40503 0.0
C21 C 0.49074 0.24485 0.38453 0.0
O22 O 0.51423 0.19191 0.45945 0.0
O23 O 0.25809 0.58097 0.42659 0.0
Zn24 Zn 0.27089 0.57932 0.39124 0.0
O25 O 0.31826 0.56008 0.38661 0.0
Zn26 Zn 0.35065 0.59788 0.37813 0.0
Zn27 Zn 0.33384 0.53704 0.4164 0.0
Zn28 Zn 0.31598 0.52784 0.35926 0.0
O29 O 0.38174 0.58338 0.34996 0.0
O30 O 0.34397 0.54699 0.33033 0.0
O31 O 0.26522 0.62641 0.37378 0.0
O32 O 0.3225 0.64005 0.36631 0.0
O33 O 0.37938 0.61362 0.40713 0.0
O34 O 0.37102 0.56877 0.43333 0.0
O35 O 0.35329 0.48662 0.40874 0.0
O36 O 0.23504 0.54476 0.37856 0.0
O37 O 0.34013 0.48305 0.36923 0.0
O38 O 0.26513 0.51092 0.35238 0.0
C39 C 0.26462 0.55627 0.44213 0.0
C40 C 0.37256 0.56612 0.33085 0.0
C41 C 0.38515 0.599 0.42773 0.0
C42 C 0.28907 0.64725 0.365 0.0
C43 C 0.35292 0.46936 0.38859 0.0
C44 C 0.23604 0.51898 0.36341 0.0
O45 O 0.29091 0.53436 0.43934 0.0
O46 O 0.91707 0.28205 0.44808 0.0
Zn47 Zn 0.91639 0.29281 0.41258 0.0
O48 O 0.94175 0.336 0.40554 0.0
Zn49 Zn 0.90886 0.37186 0.39367 0.0
Zn50 Zn 0.96426 0.35322 0.4353 0.0
Zn51 Zn 0.97433 0.32658 0.37913 0.0
O52 O 0.92898 0.39847 0.36525 0.0
O53 O 0.95806 0.35272 0.34805 0.0
O54 O 0.86761 0.29381 0.39806 0.0
O55 O 0.86453 0.34791 0.38094 0.0
O56 O 0.89285 0.40423 0.4207 0.0
O57 O 0.93083 0.39088 0.4507 0.0
O58 O 0.01478 0.37246 0.42618 0.0
O59 O 0.94067 0.25069 0.39782 0.0
O60 O 0.02018 0.34883 0.38891 0.0
O61 O 0.98383 0.27282 0.37438 0.0
C62 C 0.9416 0.28797 0.46384 0.0
C63 C 0.94352 0.38395 0.34668 0.0
C64 C 0.90334 0.40793 0.44263 0.0
C65 C 0.85151 0.31679 0.38476 0.0
C66 C 0.03302 0.36645 0.40679 0.0
C67 C 0.96697 0.24615 0.38346 0.0
O68 O 0.96562 0.31215 0.46045 0.0
O69 O 0.13641 0.96783 0.33432 0.0
Zn70 Zn 0.17476 0.95546 0.35863 0.0
O71 O 0.15485 0.94681 0.39029 0.0
Zn72 Zn 0.16414 0.98736 0.41132 0.0
Zn73 Zn 0.10441 0.93779 0.38482 0.0
Zn74 Zn 0.17824 0.90694 0.4049 0.0
O75 O 0.18242 0.97235 0.44502 0.0
O76 O 0.21017 0.92275 0.43231 0.0
O77 O 0.21454 0.99173 0.36111 0.0
O78 O 0.20677 0.01404 0.39823 0.0
O79 O 0.12019 0.01942 0.41058 0.0
O80 O 0.07847 0.98407 0.39352 0.0
O81 O 0.08783 0.89466 0.40536 0.0
O82 O 0.19703 0.91011 0.34585 0.0
O83 O 0.14079 0.87389 0.41828 0.0
O84 O 0.20668 0.87994 0.38022 0.0
C85 C 0.10851 0.94846 0.33096 0.0
C86 C 0.20609 0.94766 0.44803 0.0
C87 C 0.08821 0.01424 0.40265 0.0
C88 C 0.22444 0.01231 0.37845 0.0
C89 C 0.10656 0.87174 0.41736 0.0
C90 C 0.21017 0.88347 0.35733 0.0
O91 O 0.09535 0.92964 0.34826 0.0
O92 O 0.03885 0.83993 0.16372 0.0
Zn93 Zn 0.03797 0.8032 0.13599 0.0
O94 O 0.04195 0.82796 0.10447 0.0
Zn95 Zn -0.00051 0.82326 0.08412 0.0
Zn96 Zn 0.05279 0.87831 0.10949 0.0
Zn97 Zn 0.07856 0.8061 0.0857 0.0
O98 O 0.00799 0.80138 0.05025 0.0
O99 O 0.05897 0.77402 0.06006 0.0
O100 O 0.99345 0.77069 0.13545 0.0
O101 O 0.96934 0.78655 0.09993 0.0
O102 O 0.97053 0.86892 0.08441 0.0
O103 O 0.00717 0.90646 0.10394 0.0
O104 O 0.0934 0.89556 0.08704 0.0
O105 O 0.08179 0.77127 0.1419 0.0
O106 O 0.10836 0.84345 0.06978 0.0
O107 O 0.10939 0.77602 0.10626 0.0
C108 C 0.05337 0.87115 0.16442 0.0
C109 C 0.0319 0.77742 0.0461 0.0
C110 C 0.97679 0.89942 0.0942 0.0
C111 C 0.96901 0.76755 0.11915 0.0
C112 C 0.11218 0.87736 0.0719 0.0
C113 C 0.10777 0.76354 0.12772 0.0
O114 O 0.06376 0.88696 0.14503 0.0
O115 O 0.64967 0.03114 0.1783 0.0
Zn116 Zn 0.68636 0.04495 0.15361 0.0
O117 O 0.66475 0.05107 0.12217 0.0
Zn118 Zn 0.67422 0.00913 0.10243 0.0
Zn119 Zn 0.61419 0.05957 0.12777 0.0
Zn120 Zn 0.68763 0.09012 0.10638 0.0
O121 O 0.69129 0.02188 0.06822 0.0
O122 O 0.71861 0.0726 0.07905 0.0
O123 O 0.72821 0.01109 0.15116 0.0
O124 O 0.71806 0.98432 0.1157 0.0
O125 O 0.63078 0.97672 0.10383 0.0
O126 O 0.58834 0.01322 0.11881 0.0
O127 O 0.59718 0.10337 0.10749 0.0
O128 O 0.70719 0.09148 0.16531 0.0
O129 O 0.64965 0.12298 0.09316 0.0
O130 O 0.71773 0.11803 0.1298 0.0
C131 C 0.62019 0.04804 0.18172 0.0
C132 C 0.71464 0.04642 0.0643 0.0
C133 C 0.59843 0.98248 0.11074 0.0
C134 C 0.73754 0.98912 0.13451 0.0
C135 C 0.61551 0.12575 0.09483 0.0
C136 C 0.72108 0.11659 0.15282 0.0
O137 O 0.60533 0.06608 0.16456 0.0
O138 O 0.42193 0.71947 0.06547 0.0
Zn139 Zn 0.41793 0.70648 0.10068 0.0
O140 O 0.44268 0.66223 0.10689 0.0
Zn141 Zn 0.40999 0.62867 0.12189 0.0
Zn142 Zn 0.45865 0.64231 0.07647 0.0
Zn143 Zn 0.48289 0.6704 0.12832 0.0
O144 O 0.4318 0.60622 0.15163 0.0
O145 O 0.47091 0.64939 0.16142 0.0
O146 O 0.3665 0.70457 0.11189 0.0
O147 O 0.36683 0.65479 0.1344 0.0
O148 O 0.38894 0.59419 0.09691 0.0
O149 O 0.41968 0.60938 0.06388 0.0
O150 O 0.5054 0.61537 0.08265 0.0
O151 O 0.44269 0.74725 0.11743 0.0
O152 O 0.52539 0.64173 0.11657 0.0
O153 O 0.49461 0.72403 0.13032 0.0
C154 C 0.44362 0.70975 0.04875 0.0
C155 C 0.45255 0.6215 0.16703 0.0
C156 C 0.39406 0.59219 0.07399 0.0
C157 C 0.35169 0.68352 0.12715 0.0
C158 C 0.52945 0.61944 0.09912 0.0
C159 C 0.47405 0.75107 0.12645 0.0
O160 O 0.46339 0.68175 0.05104 0.0
O161 O 0.77426 0.40897 0.07948 0.0
Zn162 Zn 0.78672 0.41299 0.11509 0.0
O163 O 0.83127 0.43777 0.12074 0.0
Zn164 Zn 0.86597 0.40479 0.13452 0.0
Zn165 Zn 0.84788 0.45474 0.08961 0.0
Zn166 Zn 0.82325 0.47711 0.14322 0.0
O167 O 0.88825 0.42522 0.16503 0.0
O168 O 0.84612 0.46509 0.17587 0.0
O169 O 0.78442 0.36661 0.13331 0.0
O170 O 0.84085 0.36074 0.14644 0.0
O171 O 0.9007 0.38708 0.10885 0.0
O172 O 0.88468 0.41924 0.07644 0.0
O173 O 0.86683 0.50576 0.09302 0.0
O174 O 0.74684 0.44297 0.12657 0.0
O175 O 0.84985 0.51977 0.13081 0.0
O176 O 0.76945 0.49133 0.14453 0.0
C177 C 0.78064 0.43271 0.0633 0.0
C178 C 0.87405 0.44616 0.18079 0.0
C179 C 0.90316 0.39398 0.08617 0.0
C180 C 0.80858 0.34966 0.1451 0.0
C181 C 0.86537 0.52767 0.11092 0.0
C182 C 0.74248 0.47335 0.13669 0.0
O183 O 0.80642 0.45505 0.06581 0.0
O184 O 0.42494 0.76556 0.57283 0.0
Zn185 Zn 0.43311 0.78382 0.60619 0.0
O186 O 0.44574 0.83368 0.60674 0.0
Zn187 Zn 0.40568 0.86119 0.62008 0.0
Zn188 Zn 0.4576 0.84752 0.57337 0.0
Zn189 Zn 0.48644 0.83819 0.62844 0.0
O190 O 0.42062 0.8897 0.65003 0.0
O191 O 0.47249 0.86304 0.65955 0.0
O192 O 0.39111 0.77329 0.6268 0.0
O193 O 0.36714 0.82749 0.63243 0.0
O194 O 0.38335 0.89184 0.59355 0.0
O195 O 0.41732 0.88026 0.56102 0.0
O196 O 0.50702 0.87269 0.5731 0.0
O197 O 0.47327 0.75349 0.61701 0.0
O198 O 0.52219 0.86913 0.61236 0.0
O199 O 0.51229 0.79046 0.63432 0.0
C200 C 0.44136 0.77336 0.55329 0.0
C201 C 0.44681 0.88458 0.66474 0.0
C202 C 0.39012 0.89555 0.57091 0.0
C203 C 0.36645 0.79343 0.6352 0.0
C204 C 0.52824 0.87983 0.59083 0.0
C205 C 0.50312 0.75895 0.62754 0.0
O206 O 0.45856 0.80293 0.55101 0.0
O207 O 0.72567 0.41657 0.58239 0.0
Zn208 Zn 0.71437 0.42145 0.6176 0.0
O209 O 0.66673 0.43865 0.62306 0.0
Zn210 Zn 0.63716 0.39929 0.63325 0.0
Zn211 Zn 0.64943 0.45967 0.59284 0.0
Zn212 Zn 0.66953 0.47171 0.65008 0.0
O213 O 0.60678 0.41315 0.66207 0.0
O214 O 0.6434 0.45252 0.67996 0.0
O215 O 0.72368 0.37705 0.63661 0.0
O216 O 0.66826 0.3593 0.64588 0.0
O217 O 0.60788 0.38128 0.60497 0.0
O218 O 0.61133 0.42597 0.57798 0.0
O219 O 0.63051 0.5109 0.60011 0.0
O220 O 0.74922 0.45782 0.62846 0.0
O221 O 0.64481 0.5159 0.63945 0.0
O222 O 0.72045 0.48951 0.65644 0.0
C223 C 0.71826 0.43975 0.56604 0.0
C224 C 0.6162 0.43149 0.68068 0.0
C225 C 0.59946 0.39508 0.58449 0.0
C226 C 0.70224 0.35515 0.64683 0.0
C227 C 0.63162 0.52894 0.61999 0.0
C228 C 0.74882 0.48272 0.64425 0.0
O229 O 0.69153 0.46132 0.56843 0.0
O230 O 0.07852 0.69348 0.55253 0.0
Zn231 Zn 0.07728 0.69545 0.58887 0.0
O232 O 0.05091 0.65679 0.60195 0.0
Zn233 Zn 0.08386 0.62258 0.61478 0.0
Zn234 Zn 0.02457 0.63775 0.57482 0.0
Zn235 Zn 0.02155 0.67262 0.62839 0.0
O236 O 0.06366 0.60056 0.64482 0.0
O237 O 0.03918 0.65018 0.66057 0.0
O238 O 0.12528 0.69897 0.60447 0.0
O239 O 0.12885 0.64805 0.6255 0.0
O240 O 0.09696 0.58727 0.58866 0.0
O241 O 0.05531 0.59795 0.56029 0.0
O242 O 0.97519 0.62146 0.58718 0.0
O243 O 0.05163 0.74043 0.59666 0.0
O244 O 0.97353 0.65084 0.62265 0.0
O245 O 0.01522 0.72744 0.62742 0.0
C246 C 0.04988 0.69176 0.53974 0.0
C247 C 0.05118 0.61796 0.66298 0.0
C248 C 0.08361 0.58154 0.56762 0.0
C249 C 0.14152 0.6786 0.61953 0.0
C250 C 0.95881 0.63071 0.60671 0.0
C251 C 0.02846 0.75002 0.61235 0.0
O252 O 0.02184 0.67593 0.54791 0.0
O253 O 0.76509 0.07294 0.58776 0.0
Zn254 Zn 0.78215 0.06361 0.6216 0.0
O255 O 0.83128 0.04759 0.62146 0.0
Zn256 Zn 0.86237 0.08272 0.63658 0.0
Zn257 Zn 0.8457 0.03839 0.5883 0.0
Zn258 Zn 0.83312 0.00461 0.64044 0.0
O259 O 0.88908 0.06151 0.66536 0.0
O260 O 0.85236 0.01596 0.6742 0.0
O261 O 0.77538 0.1064 0.64294 0.0
O262 O 0.83185 0.12055 0.65216 0.0
O263 O 0.89302 0.10843 0.61119 0.0
O264 O 0.87571 0.08046 0.57728 0.0
O265 O 0.8762 0.99236 0.58732 0.0
O266 O 0.74859 0.02471 0.63152 0.0
O267 O 0.86782 0.97174 0.62492 0.0
O268 O 0.78512 0.97878 0.63903 0.0
C269 C 0.77208 0.05523 0.56847 0.0
C270 C 0.87755 0.03773 0.68022 0.0
C271 C 0.89319 0.10546 0.58801 0.0
C272 C 0.79816 0.12627 0.65386 0.0
C273 C 0.88227 0.9692 0.60405 0.0
C274 C 0.75359 0.99141 0.63557 0.0
O275 O 0.80085 0.03647 0.5664 0.0
O276 O 0.92696 0.22131 0.94327 0.0
Zn277 Zn 0.93245 0.20704 0.90848 0.0
O278 O 0.94643 0.15788 0.90437 0.0
Zn279 Zn 0.90595 0.13044 0.89252 0.0
Zn280 Zn 0.96283 0.14103 0.93611 0.0
Zn281 Zn 0.98292 0.15614 0.87921 0.0
O282 O 0.91946 0.1002 0.86358 0.0
O283 O 0.96463 0.13192 0.84807 0.0
O284 O 0.88884 0.21808 0.88942 0.0
O285 O 0.86701 0.16398 0.88037 0.0
O286 O 0.88582 0.09993 0.91932 0.0
O287 O 0.9254 0.10589 0.94959 0.0
O288 O 0.01303 0.11866 0.93206 0.0
O289 O 0.97051 0.23909 0.89688 0.0
O290 O 0.02274 0.12611 0.89222 0.0
O291 O 0.00568 0.2055 0.87357 0.0
C292 C 0.9459 0.21156 0.96144 0.0
C293 C 0.94094 0.10714 0.84616 0.0
C294 C 0.89616 0.09289 0.94093 0.0
C295 C 0.86521 0.19822 0.87949 0.0
C296 C 0.03223 0.11426 0.91298 0.0
C297 C -0.00228 0.23577 0.8832 0.0
O298 O 0.96469 0.18269 0.96069 0.0
O299 O 0.2779 0.92074 0.92662 0.0
Zn300 Zn 0.28977 0.93111 0.89171 0.0
O301 O 0.33864 0.94584 0.88857 0.0
Zn302 Zn 0.36699 0.90819 0.8739 0.0
Zn303 Zn 0.35601 0.95633 0.92082 0.0
Zn304 Zn 0.34044 0.98743 0.86777 0.0
O305 O 0.39564 0.92814 0.84602 0.0
O306 O 0.35996 0.97341 0.83434 0.0
O307 O 0.27941 0.88935 0.87032 0.0
O308 O 0.33406 0.87119 0.85914 0.0
O309 O 0.3975 0.88229 0.899 0.0
O310 O 0.38678 0.91496 0.93211 0.0
O311 O 0.38582 0.00162 0.92002 0.0
O312 O 0.25687 0.97103 0.88287 0.0
O313 O 0.37561 0.02161 0.88241 0.0
O314 O 0.29212 0.01348 0.86746 0.0
C315 C 0.28716 0.93887 0.94533 0.0
C316 C 0.38578 0.95137 0.83023 0.0
C317 C 0.4013 0.88783 0.92177 0.0
C318 C 0.29994 0.868 0.85868 0.0
C319 C 0.39107 0.0244 0.90303 0.0
C320 C 0.26123 0.00243 0.87425 0.0
O321 O 0.31466 0.95944 0.94494 0.0
O322 O 0.58357 0.3067 0.9611 0.0
Zn323 Zn 0.57967 0.30326 0.92491 0.0
O324 O 0.55325 0.34216 0.91142 0.0
Zn325 Zn 0.58595 0.37486 0.89604 0.0
Zn326 Zn 0.52933 0.3629 0.93907 0.0
Zn327 Zn 0.52065 0.32518 0.88738 0.0
O328 O 0.56663 0.3927 0.86382 0.0
O329 O 0.53474 0.34391 0.85413 0.0
O330 O 0.62672 0.29789 0.90852 0.0
O331 O 0.6305 0.34783 0.88651 0.0
O332 O 0.60077 0.41214 0.92074 0.0
O333 O 0.56279 0.40188 0.95137 0.0
O334 O 0.47915 0.38046 0.92837 0.0
O335 O 0.55331 0.25809 0.91875 0.0
O336 O 0.47372 0.34793 0.89443 0.0
O337 O 0.51443 0.27098 0.88926 0.0
C338 C 0.5557 0.30912 0.97448 0.0
C339 C 0.55001 0.37343 0.84813 0.0
C340 C 0.59021 0.41793 0.94251 0.0
C341 C 0.64285 0.31732 0.89297 0.0
C342 C 0.46076 0.36974 0.91 0.0
C343 C 0.52887 0.24852 0.90392 0.0
O344 O 0.52757 0.32557 0.9668 0.0
O345 O 0.21866 0.57849 0.93154 0.0
Zn346 Zn 0.20835 0.57397 0.896 0.0
O347 O 0.16108 0.55446 0.88987 0.0
Zn348 Zn 0.12979 0.59121 0.87644 0.0
Zn349 Zn 0.14235 0.53599 0.92059 0.0
Zn350 Zn 0.16611 0.51775 0.86532 0.0
O351 O 0.10539 0.57588 0.84532 0.0
O352 O 0.14121 0.53095 0.83381 0.0
O353 O 0.21519 0.62048 0.87838 0.0
O354 O 0.15959 0.63301 0.86597 0.0
O355 O 0.09478 0.60856 0.90176 0.0
O356 O 0.10371 0.57082 0.9327 0.0
O357 O 0.12357 0.4842 0.91557 0.0
O358 O 0.2462 0.53949 0.88533 0.0
O359 O 0.14268 0.47419 0.87773 0.0
O360 O 0.21756 0.502 0.8607 0.0
C361 C 0.20939 0.5576 0.94879 0.0
C362 C 0.11583 0.55323 0.82937 0.0
C363 C 0.08805 0.5983 0.92341 0.0
C364 C 0.1929 0.64071 0.86722 0.0
C365 C 0.1274 0.46359 0.89706 0.0
C366 C 0.24627 0.51229 0.87131 0.0
O367 O 0.18232 0.53659 0.94659 0.0
H368 H 0.54389 0.14446 0.30058 0.0
H369 H 0.58772 0.05428 0.34134 0.0
H370 H 0.60146 0.02286 0.3029 0.0
H371 H 0.50547 0.09166 0.24958 0.0
H372 H 0.51804 0.12477 0.2272 0.0
H373 H 0.50771 0.13863 0.25786 0.0
H374 H 0.56988 0.16985 0.26124 0.0
H375 H 0.58031 0.15622 0.23063 0.0
H376 H 0.61018 0.14418 0.25523 0.0
H377 H 0.61508 0.00338 0.26068 0.0
H378 H 0.63049 -0.00186 0.21726 0.0
H379 H 0.57855 0.1009 0.20311 0.0
C380 C 0.55573 0.1178 0.30141 0.0
C381 C 0.56451 0.10172 0.32401 0.0
C382 C 0.58072 0.06714 0.32429 0.0
C383 C 0.58844 0.04898 0.30254 0.0
C384 C 0.57985 0.06573 0.2806 0.0
C385 C 0.56395 0.09939 0.27981 0.0
C386 C 0.56033 0.11259 0.25377 0.0
C387 C 0.52051 0.11717 0.24669 0.0
C388 C 0.58144 0.14778 0.25 0.0
C389 C 0.57745 0.08142 0.24012 0.0
C390 C 0.58806 0.05451 0.25599 0.0
C391 C 0.60652 0.02404 0.24804 0.0
C392 C 0.61519 0.02134 0.22333 0.0
C393 C 0.60551 0.04897 0.20676 0.0
C394 C 0.58563 0.079 0.21523 0.0
H395 H 0.40336 0.57686 0.18835 0.0
H396 H 0.49953 0.63929 0.20373 0.0
H397 H 0.49341 0.62511 0.24742 0.0
H398 H 0.35453 0.60751 0.23704 0.0
H399 H 0.33184 0.56567 0.24336 0.0
H400 H 0.34713 0.57517 0.21304 0.0
H401 H 0.38404 0.51583 0.21272 0.0
H402 H 0.36862 0.50595 0.24306 0.0
H403 H 0.4162 0.50727 0.23667 0.0
H404 H 0.47262 0.61081 0.28954 0.0
H405 H 0.43883 0.59774 0.32701 0.0
H406 H 0.35555 0.54532 0.2842 0.0
C407 C 0.42382 0.58665 0.20077 0.0
C408 C 0.45213 0.60896 0.19258 0.0
C409 C 0.47774 0.62201 0.20956 0.0
C410 C 0.47454 0.614 0.2344 0.0
C411 C 0.44565 0.59285 0.24194 0.0
C412 C 0.42084 0.57918 0.2256 0.0
C413 C 0.39024 0.56034 0.23856 0.0
C414 C 0.3538 0.57826 0.23265 0.0
C415 C 0.38977 0.51994 0.23238 0.0
C416 C 0.40106 0.5666 0.26478 0.0
C417 C 0.43337 0.58493 0.26633 0.0
C418 C 0.4476 0.59597 0.28857 0.0
C419 C 0.42809 0.58852 0.30976 0.0
C420 C 0.39454 0.5704 0.30859 0.0
C421 C 0.38131 0.55877 0.28577 0.0
H422 H 0.95375 0.35593 0.30068 0.0
H423 H 0.92333 0.45379 0.3389 0.0
H424 H 0.908 0.48253 0.29989 0.0
H425 H 0.99074 0.40137 0.24531 0.0
H426 H 0.97318 0.367 0.22537 0.0
H427 H 0.98652 0.35566 0.25598 0.0
H428 H 0.9231 0.32923 0.26391 0.0
H429 H 0.90949 0.34071 0.23346 0.0
H430 H 0.88392 0.35712 0.25903 0.0
H431 H 0.88784 0.49781 0.25781 0.0
H432 H 0.86754 0.49952 0.21496 0.0
H433 H 0.91259 0.39287 0.2035 0.0
C434 C 0.94489 0.38374 0.30079 0.0
C435 C 0.93985 0.40256 0.32291 0.0
C436 C 0.92744 0.43873 0.32224 0.0
C437 C 0.91872 0.45539 0.30014 0.0
C438 C 0.92282 0.43573 0.27875 0.0
C439 C 0.93603 0.40086 0.27881 0.0
C440 C 0.93536 0.38487 0.2534 0.0
C441 C 0.97374 0.37676 0.24449 0.0
C442 C 0.91155 0.35099 0.25241 0.0
C443 C 0.91862 0.41576 0.23928 0.0
C444 C 0.91179 0.44492 0.25422 0.0
C445 C 0.89373 0.47546 0.24579 0.0
C446 C 0.88216 0.47614 0.22147 0.0
C447 C 0.88887 0.44656 0.20583 0.0
C448 C 0.9078 0.41625 0.21486 0.0
H449 H 0.07684 0.88967 0.30907 0.0
H450 H 0.10955 8e-05 0.29595 0.0
H451 H 0.09421 0.9933 0.2525 0.0
H452 H 0.11484 0.85418 0.25625 0.0
H453 H 0.07991 0.82175 0.25011 0.0
H454 H 0.08827 0.83634 0.28084 0.0
H455 H 0.0216 0.85596 0.28516 0.0
H456 H 0.0129 0.84108 0.25447 0.0
H457 H 0.00236 0.88669 0.26329 0.0
H458 H 0.08157 0.97331 0.21026 0.0
H459 H 0.0711 0.94175 0.17153 0.0
H460 H 0.0472 0.84333 0.211 0.0
C461 C 0.07964 0.91271 0.29715 0.0
C462 C 0.09395 0.94559 0.30592 0.0
C463 C 0.09841 0.97477 0.28964 0.0
C464 C 0.08974 0.97118 0.26494 0.0
C465 C 0.07674 0.93816 0.2567 0.0
C466 C 0.07149 0.90944 0.27227 0.0
C467 C 0.05998 0.87606 0.25824 0.0
C468 C 0.08739 0.84528 0.26156 0.0
C469 C 0.02195 0.86426 0.26574 0.0
C470 C 0.06035 0.89038 0.23236 0.0
C471 C 0.06982 0.92636 0.232 0.0
C472 C 0.07372 0.94525 0.21031 0.0
C473 C 0.06786 0.92695 0.18835 0.0
C474 C 0.05824 0.88999 0.1881 0.0
C475 C 0.05417 0.87163 0.21052 0.0
H476 H 0.35445 0.95915 0.78533 0.0
H477 H 0.45658 0.93914 0.82129 0.0
H478 H 0.48524 0.92826 0.78148 0.0
H479 H 0.36186 0.88898 0.74468 0.0
H480 H 0.34076 0.91124 0.71922 0.0
H481 H 0.32963 0.92461 0.74974 0.0
H482 H 0.34735 0.99048 0.73994 0.0
H483 H 0.35835 0.97734 0.70925 0.0
H484 H 0.39142 -0.0001 0.72784 0.0
H485 H 0.50101 0.91188 0.73912 0.0
H486 H 0.50277 0.88956 0.69694 0.0
H487 H 0.39002 0.91803 0.68785 0.0
C488 C 0.38312 0.95381 0.78465 0.0
C489 C 0.40354 0.95057 0.80626 0.0
C490 C 0.44065 0.94208 0.80487 0.0
C491 C 0.45716 0.93599 0.78235 0.0
C492 C 0.43612 0.93825 0.76138 0.0
C493 C 0.39991 0.947 0.76226 0.0
C494 C 0.38255 0.94324 0.73736 0.0
C495 C 0.35191 0.91536 0.73779 0.0
C496 C 0.36913 0.97993 0.72805 0.0
C497 C 0.41436 0.92988 0.72259 0.0
C498 C 0.4451 0.92783 0.73674 0.0
C499 C 0.47727 0.91388 0.72773 0.0
C500 C 0.47794 0.90111 0.70375 0.0
C501 C 0.44658 0.90212 0.689 0.0
C502 C 0.4146 0.9174 0.69849 0.0
H503 H 0.59768 0.4183 0.82495 0.0
H504 H 0.50334 0.35185 0.81249 0.0
H505 H 0.50658 0.36506 0.76856 0.0
H506 H 0.57897 0.48633 0.77712 0.0
H507 H 0.6258 0.48989 0.7689 0.0
H508 H 0.61347 0.47906 0.79974 0.0
H509 H 0.65277 0.42136 0.79773 0.0
H510 H 0.66514 0.43194 0.76694 0.0
H511 H 0.64495 0.38903 0.77379 0.0
H512 H 0.52295 0.38077 0.72589 0.0
H513 H 0.55214 0.39658 0.68717 0.0
H514 H 0.63667 0.45227 0.72687 0.0
C515 C 0.57718 0.40727 0.81306 0.0
C516 C 0.55004 0.38428 0.82219 0.0
C517 C 0.52429 0.3696 0.80593 0.0
C518 C 0.52582 0.37707 0.78095 0.0
C519 C 0.5533 0.39923 0.77247 0.0
C520 C 0.57853 0.41416 0.788 0.0
C521 C 0.60709 0.43452 0.77393 0.0
C522 C 0.60627 0.47485 0.7803 0.0
C523 C 0.6447 0.41823 0.77836 0.0
C524 C 0.59441 0.428 0.74805 0.0
C525 C 0.56309 0.40796 0.74767 0.0
C526 C 0.54724 0.39683 0.72595 0.0
C527 C 0.56412 0.40591 0.70402 0.0
C528 C 0.59667 0.42582 0.7039 0.0
C529 C 0.61157 0.43749 0.72628 0.0
H530 H 0.04815 0.65014 0.70833 0.0
H531 H 0.06025 0.54653 0.67245 0.0
H532 H 0.07185 0.51775 0.71197 0.0
H533 H 0.11838 0.639 0.74941 0.0
H534 H 0.0968 0.66088 0.7748 0.0
H535 H 0.08445 0.67299 0.74421 0.0
H536 H 0.01767 0.65843 0.75347 0.0
H537 H 0.0298 0.64644 0.7842 0.0
H538 H 0.00594 0.61471 0.76528 0.0
H539 H 0.0902 0.50135 0.75396 0.0
H540 H 0.11145 0.49815 0.79653 0.0
H541 H 0.08591 0.61142 0.80613 0.0
C542 C 0.05225 0.62126 0.7089 0.0
C543 C 0.05322 0.60064 0.68725 0.0
C544 C 0.05944 0.56298 0.68873 0.0
C545 C 0.06594 0.54628 0.71113 0.0
C546 C 0.0659 0.56747 0.73202 0.0
C547 C 0.05887 0.60406 0.73122 0.0
C548 C 0.06308 0.62092 0.75623 0.0
C549 C 0.09242 0.65016 0.75614 0.0
C550 C 0.02696 0.63601 0.76533 0.0
C551 C 0.07468 0.5883 0.77094 0.0
C552 C 0.07589 0.55772 0.75662 0.0
C553 C 0.08867 0.52492 0.76553 0.0
C554 C 0.10081 0.52338 0.78967 0.0
C555 C 0.09989 0.55437 0.80469 0.0
C556 C 0.08611 0.58707 0.79524 0.0
H557 H 0.91983 0.08885 0.70256 0.0
H558 H 0.86518 0.98743 0.71574 0.0
H559 H 0.88174 0.9912 0.75917 0.0
H560 H 0.99364 0.07601 0.74778 0.0
H561 H 0.9931 0.12289 0.7564 0.0
H562 H 0.98122 0.10988 0.7258 0.0
H563 H 0.92017 0.14321 0.73009 0.0
H564 H 0.93175 0.15617 0.76067 0.0
H565 H 0.89064 0.13182 0.7549 0.0
H566 H 0.89753 0.00938 0.80164 0.0
H567 H 0.91224 0.0402 0.84016 0.0
H568 H 0.95753 0.12962 0.79978 0.0
C569 C 0.91214 0.06691 0.71442 0.0
C570 C 0.89134 0.03769 0.70562 0.0
C571 C 0.88121 0.01001 0.72195 0.0
C572 C 0.89057 0.01187 0.74667 0.0
C573 C 0.91027 0.04148 0.75483 0.0
C574 C 0.92118 0.0684 0.73918 0.0
C575 C 0.93961 0.09873 0.75292 0.0
C576 C 0.97925 0.10206 0.74527 0.0
C577 C 0.91932 0.13459 0.74944 0.0
C578 C 0.93641 0.08515 0.77883 0.0
C579 C 0.91967 0.05191 0.77946 0.0
C580 C 0.91121 0.0351 0.80135 0.0
C581 C 0.91957 0.05289 0.82314 0.0
C582 C 0.93634 0.08716 0.82299 0.0
C583 C 0.94545 0.10311 0.80049 0.0
H584 H 0.40013 0.10898 0.43235 0.0
H585 H 0.45479 0.07201 0.3672 0.0
H586 H 0.39932 0.04256 0.35316 0.0
H587 H 0.34188 0.02629 0.43883 0.0
H588 H 0.30408 0.05236 0.44951 0.0
H589 H 0.34933 0.0671 0.45593 0.0
H590 H 0.33446 0.12879 0.4362 0.0
H591 H 0.28953 0.11387 0.42909 0.0
H592 H 0.31841 0.13022 0.40522 0.0
H593 H 0.3375 0.02434 0.34329 0.0
H594 H 0.27359 0.00728 0.34165 0.0
H595 H 0.25767 0.05385 0.41349 0.0
C596 C 0.4006 0.09352 0.41563 0.0
C597 C 0.43161 0.0927 0.40082 0.0
C598 C 0.43119 0.07295 0.37875 0.0
C599 C 0.39982 0.05625 0.37055 0.0
C600 C 0.36911 0.05921 0.38477 0.0
C601 C 0.36927 0.07638 0.40714 0.0
C602 C 0.33193 0.07603 0.4183 0.0
C603 C 0.3318 0.05413 0.44205 0.0
C604 C 0.31776 0.11453 0.42244 0.0
C605 C 0.31091 0.05702 0.39835 0.0
C606 C 0.33298 0.04777 0.37918 0.0
C607 C 0.31991 0.03089 0.35834 0.0
C608 C 0.28344 0.02164 0.35749 0.0
C609 C 0.26051 0.02906 0.37744 0.0
C610 C 0.27439 0.04782 0.39788 0.0
H611 H 0.40635 0.43686 0.41574 0.0
H612 H 0.33001 0.41813 0.35712 0.0
H613 H 0.35551 0.35772 0.35052 0.0
H614 H 0.48013 0.39573 0.387 0.0
H615 H 0.49877 0.37579 0.41415 0.0
H616 H 0.4723 0.41635 0.41624 0.0
H617 H 0.42936 0.38534 0.44686 0.0
H618 H 0.456 0.3448 0.44504 0.0
H619 H 0.40837 0.34325 0.43872 0.0
H620 H 0.39137 0.30105 0.34829 0.0
H621 H 0.43499 0.2508 0.35167 0.0
H622 H 0.48859 0.30706 0.41093 0.0
C623 C 0.3946 0.41969 0.40191 0.0
C624 C 0.36631 0.43209 0.38695 0.0
C625 C 0.35192 0.40917 0.3687 0.0
C626 C 0.36609 0.37477 0.36483 0.0
C627 C 0.39465 0.36365 0.37936 0.0
C628 C 0.40867 0.38523 0.39763 0.0
C629 C 0.44073 0.36741 0.40967 0.0
C630 C 0.475 0.39018 0.40656 0.0
C631 C 0.43314 0.35974 0.43667 0.0
C632 C 0.44271 0.33291 0.39503 0.0
C633 C 0.41577 0.33109 0.37776 0.0
C634 C 0.41254 0.30197 0.36184 0.0
C635 C 0.43747 0.27367 0.36381 0.0
C636 C 0.46525 0.27502 0.38145 0.0
C637 C 0.46778 0.30517 0.39714 0.0
H638 H 0.05761 0.43406 0.4193 0.0
H639 H 0.08856 0.33408 0.38404 0.0
H640 H 0.14231 0.36344 0.36709 0.0
H641 H 0.08147 0.49168 0.37236 0.0
H642 H 0.09988 0.52715 0.39104 0.0
H643 H 0.06569 0.49789 0.40309 0.0
H644 H 0.1072 0.48069 0.43915 0.0
H645 H 0.14144 0.51039 0.42755 0.0
H646 H 0.15187 0.46373 0.43321 0.0
H647 H 0.18888 0.40455 0.3504 0.0
H648 H 0.23249 0.45271 0.34128 0.0
H649 H 0.17149 0.52637 0.38697 0.0
C650 C 0.0765 0.41812 0.40882 0.0
C651 C 0.06914 0.38181 0.40305 0.0
C652 C 0.09391 0.36194 0.38872 0.0
C653 C 0.12434 0.37841 0.37885 0.0
C654 C 0.1298 0.41476 0.38362 0.0
C655 C 0.10723 0.43423 0.39877 0.0
C656 C 0.11922 0.47316 0.40047 0.0
C657 C 0.0898 0.49897 0.39118 0.0
C658 C 0.13061 0.48254 0.42665 0.0
C659 C 0.15135 0.4725 0.3835 0.0
C660 C 0.15689 0.43859 0.37392 0.0
C661 C 0.18506 0.43124 0.35793 0.0
C662 C 0.20946 0.4589 0.3526 0.0
C663 C 0.20553 0.49339 0.36336 0.0
C664 C 0.17526 0.50042 0.37829 0.0
H665 H 0.1054 0.08601 0.40368 0.0
H666 H 0.01511 0.01267 0.39588 0.0
H667 H 0.97507 0.06423 0.38692 0.0
H668 H 0.05624 0.15938 0.43184 0.0
H669 H 0.08129 0.19358 0.41597 0.0
H670 H 0.10209 0.15088 0.42273 0.0
H671 H 0.11676 0.14268 0.37695 0.0
H672 H 0.09522 0.18499 0.36999 0.0
H673 H 0.08078 0.14435 0.35489 0.0
H674 H 0.94491 0.12348 0.37919 0.0
H675 H 0.92583 0.18708 0.37562 0.0
H676 H 0.03628 0.22158 0.38596 0.0
C677 C 0.07708 0.08079 0.40053 0.0
C678 C 0.06331 0.04528 0.40069 0.0
C679 C 0.02621 0.03963 0.39598 0.0
C680 C 0.00332 0.06871 0.39074 0.0
C681 C 0.01801 0.10321 0.39001 0.0
C682 C 0.05396 0.10943 0.39494 0.0
C683 C 0.06301 0.1491 0.39279 0.0
C684 C 0.07644 0.16411 0.41729 0.0
C685 C 0.09058 0.15564 0.37244 0.0
C686 C 0.02643 0.16429 0.38609 0.0
C687 C 0.00088 0.1373 0.38456 0.0
C688 C 0.96472 0.14479 0.38005 0.0
C689 C 0.95418 0.1809 0.37789 0.0
C690 C 0.97976 0.20898 0.37996 0.0
C691 C 0.01646 0.20051 0.38348 0.0
H692 H 0.90924 0.89777 0.07371 0.0
H693 H 0.97398 0.95381 0.12769 0.0
H694 H 0.91917 0.98139 0.1446 0.0
H695 H 0.84175 0.97285 0.06594 0.0
H696 H 0.80557 0.9412 0.06157 0.0
H697 H 0.85053 0.92977 0.05194 0.0
H698 H 0.84727 0.87171 0.0781 0.0
H699 H 0.80292 0.88365 0.08854 0.0
H700 H 0.83844 0.87537 0.11026 0.0
H701 H 0.85714 0.99542 0.15952 0.0
H702 H 0.79237 0.00638 0.16586 0.0
H703 H 0.76801 0.94264 0.10152 0.0
C704 C 0.91204 0.91676 0.08857 0.0
C705 C 0.94594 0.92344 0.09942 0.0
C706 C 0.9484 0.94836 0.11893 0.0
C707 C 0.91735 0.96394 0.12886 0.0
C708 C 0.88418 0.95494 0.11873 0.0
C709 C 0.88137 0.93297 0.0985 0.0
C710 C 0.84236 0.92726 0.09137 0.0
C711 C 0.8346 0.94376 0.06622 0.0
C712 C 0.83218 0.88711 0.09212 0.0
C713 C 0.82375 0.94821 0.11137 0.0
C714 C 0.84834 0.96386 0.12699 0.0
C715 C 0.83758 0.9838 0.14719 0.0
C716 C 0.80066 0.98946 0.15081 0.0
C717 C 0.77498 0.97545 0.13418 0.0
C718 C 0.78684 0.95368 0.11463 0.0
H719 H 0.54352 0.77499 0.12139 0.0
H720 H 0.43459 0.81115 0.13634 0.0
H721 H 0.45454 0.87441 0.13375 0.0
H722 H 0.5907 0.8482 0.15397 0.0
H723 H 0.62571 0.85085 0.13139 0.0
H724 H 0.60347 0.80859 0.13702 0.0
H725 H 0.58717 0.80418 0.09124 0.0
H726 H 0.60865 0.84678 0.08555 0.0
H727 H 0.56218 0.84025 0.07709 0.0
H728 H 0.48523 0.9335 0.12701 0.0
H729 H 0.52571 0.98483 0.11918 0.0
H730 H 0.61429 0.91032 0.10707 0.0
C731 C 0.52416 0.79624 0.12486 0.0
C732 C 0.4876 0.78822 0.12936 0.0
C733 C 0.46278 0.81676 0.13305 0.0
C734 C 0.47381 0.85275 0.13153 0.0
C735 C 0.50973 0.85978 0.12616 0.0
C736 C 0.53464 0.8324 0.1231 0.0
C737 C 0.57118 0.84736 0.11627 0.0
C738 C 0.59943 0.83821 0.13583 0.0
C739 C 0.58297 0.83383 0.09104 0.0
C740 C 0.56282 0.88735 0.11584 0.0
C741 C 0.52725 0.89391 0.12166 0.0
C742 C 0.5132 0.92873 0.12252 0.0
C743 C 0.53637 0.95771 0.11792 0.0
C744 C 0.57317 0.9517 0.11238 0.0
C745 C 0.58625 0.91591 0.11098 0.0
H746 H 0.5966 0.63081 0.11896 0.0
H747 H 0.53026 0.54992 0.08358 0.0
H748 H 0.57605 0.50366 0.09279 0.0
H749 H 0.68269 0.59402 0.09656 0.0
H750 H 0.70661 0.60554 0.12406 0.0
H751 H 0.66873 0.63237 0.11439 0.0
H752 H 0.63876 0.62211 0.15633 0.0
H753 H 0.67614 0.59447 0.1659 0.0
H754 H 0.63099 0.57676 0.16676 0.0
H755 H 0.62472 0.46558 0.10938 0.0
H756 H 0.6813 0.43861 0.1232 0.0
H757 H 0.72069 0.54433 0.14459 0.0
C758 C 0.59208 0.60345 0.11281 0.0
C759 C 0.55986 0.59386 0.10059 0.0
C760 C 0.55485 0.55789 0.09275 0.0
C761 C 0.58049 0.53136 0.09816 0.0
C762 C 0.61127 0.54142 0.111 0.0
C763 C 0.61787 0.57671 0.11754 0.0
C764 C 0.65415 0.58025 0.13017 0.0
C765 C 0.67955 0.60447 0.11541 0.0
C766 C 0.64973 0.59423 0.15634 0.0
C767 C 0.66666 0.54128 0.12994 0.0
C768 C 0.64095 0.51945 0.11926 0.0
C769 C 0.64535 0.48243 0.1174 0.0
C770 C 0.67769 0.46739 0.12549 0.0
C771 C 0.70591 0.48936 0.13475 0.0
C772 C 0.69977 0.52676 0.1377 0.0
H773 H 0.97019 0.7066 0.14803 0.0
H774 H 0.90971 0.75981 0.09053 0.0
H775 H 0.87688 0.7038 0.08241 0.0
H776 H 0.98208 0.62526 0.11992 0.0
H777 H 0.97494 0.59684 0.14604 0.0
H778 H 0.9911 0.64213 0.15011 0.0
H779 H 0.93775 0.65694 0.17873 0.0
H780 H 0.92199 0.61129 0.17541 0.0
H781 H 0.89232 0.64847 0.16862 0.0
H782 H 0.85928 0.64039 0.07503 0.0
H783 H 0.84594 0.57507 0.07591 0.0
H784 H 0.91247 0.56338 0.14036 0.0
C785 C 0.94908 0.70685 0.1344 0.0
C786 C 0.94293 0.73751 0.11973 0.0
C787 C 0.91526 0.73659 0.10187 0.0
C788 C 0.89646 0.70484 0.09701 0.0
C789 C 0.90489 0.67446 0.1106 0.0
C790 C 0.92945 0.67539 0.12956 0.0
C791 C 0.93368 0.63845 0.14098 0.0
C792 C 0.97277 0.62489 0.13914 0.0
C793 C 0.92064 0.63881 0.16751 0.0
C794 C 0.90872 0.61662 0.12486 0.0
C795 C 0.89279 0.6379 0.10725 0.0
C796 C 0.87086 0.6235 0.08907 0.0
C797 C 0.86386 0.58645 0.08947 0.0
C798 C 0.8783 0.56464 0.10813 0.0
C799 C 0.90116 0.57979 0.12594 0.0
H800 H 0.6817 0.00546 0.6403 0.0
H801 H 0.75733 0.92344 0.61658 0.0
H802 H 0.70747 0.88986 0.5972 0.0
H803 H 0.60842 0.9434 0.65418 0.0
H804 H 0.57449 0.97498 0.64427 0.0
H805 H 0.61647 0.99118 0.65646 0.0
H806 H 0.62584 0.0284 0.617 0.0
H807 H 0.5845 0.0111 0.60437 0.0
H808 H 0.62616 0.00565 0.58801 0.0
H809 H 0.64971 0.86749 0.57798 0.0
H810 H 0.58659 0.85007 0.56937 0.0
H811 H 0.54896 0.94536 0.60707 0.0
C812 C 0.68764 0.97998 0.63154 0.0
C813 C 0.72334 0.96696 0.63005 0.0
C814 C 0.73009 0.93363 0.61829 0.0
C815 C 0.70205 0.91471 0.60686 0.0
C816 C 0.66743 0.92929 0.60761 0.0
C817 C 0.65998 0.96055 0.62033 0.0
C818 C 0.62027 0.96971 0.61938 0.0
C819 C 0.60395 0.96979 0.64509 0.0
C820 C 0.61384 0.00587 0.60642 0.0
C821 C 0.60643 0.93856 0.60425 0.0
C822 C 0.63416 0.91603 0.59709 0.0
C823 C 0.6278 0.88499 0.58341 0.0
C824 C 0.59198 0.87561 0.57822 0.0
C825 C 0.56324 0.89698 0.58699 0.0
C826 C 0.57062 0.92934 0.59947 0.0
H827 H 0.57527 0.562 0.59569 0.0
H828 H 0.66165 0.58126 0.64742 0.0
H829 H 0.63997 0.6432 0.65378 0.0
H830 H 0.57289 0.65468 0.57003 0.0
H831 H 0.52448 0.65467 0.56744 0.0
H832 H 0.54921 0.61303 0.56473 0.0
H833 H 0.51068 0.58547 0.59928 0.0
H834 H 0.48618 0.62713 0.60221 0.0
H835 H 0.50855 0.608 0.62834 0.0
H836 H 0.60717 0.70182 0.65668 0.0
H837 H 0.56479 0.75347 0.65535 0.0
H838 H 0.49883 0.69529 0.6031 0.0
C839 C 0.58998 0.5796 0.60788 0.0
C840 C 0.62007 0.56693 0.62103 0.0
C841 C 0.63835 0.59045 0.63724 0.0
C842 C 0.62638 0.62573 0.64093 0.0
C843 C 0.59603 0.63719 0.62831 0.0
C844 C 0.57812 0.615 0.61201 0.0
C845 C 0.54484 0.63343 0.60203 0.0
C846 C 0.54807 0.6393 0.57442 0.0
C847 C 0.51055 0.61224 0.60836 0.0
C848 C 0.54656 0.66883 0.61574 0.0
C849 C 0.57652 0.67073 0.63054 0.0
C850 C 0.58361 0.7008 0.64507 0.0
C851 C 0.55941 0.72991 0.64429 0.0
C852 C 0.52838 0.7283 0.62936 0.0
C853 C 0.52208 0.69727 0.61497 0.0
H854 H 0.92877 0.56705 0.59096 0.0
H855 H 0.9092 0.65997 0.63719 0.0
H856 H 0.85462 0.6311 0.65333 0.0
H857 H 0.83354 0.54782 0.5776 0.0
H858 H 0.84024 0.49973 0.57838 0.0
H859 H 0.87645 0.52882 0.56912 0.0
H860 H 0.91745 0.5008 0.60229 0.0
H861 H 0.88125 0.47196 0.61189 0.0
H862 H 0.90297 0.50127 0.63358 0.0
H863 H 0.80378 0.59115 0.66605 0.0
H864 H 0.7566 0.54485 0.6712 0.0
H865 H 0.81072 0.47751 0.61778 0.0
C866 C 0.91249 0.58165 0.60401 0.0
C867 C 0.92317 0.61574 0.61278 0.0
C868 C 0.90152 0.63375 0.63023 0.0
C869 C 0.87053 0.61757 0.63959 0.0
C870 C 0.86151 0.58335 0.63133 0.0
C871 C 0.8815 0.56576 0.61369 0.0
C872 C 0.86621 0.52881 0.60838 0.0
C873 C 0.85334 0.52616 0.5818 0.0
C874 C 0.89361 0.49896 0.61441 0.0
C875 C 0.83484 0.52842 0.62592 0.0
C876 C 0.83253 0.56008 0.63899 0.0
C877 C 0.80523 0.56617 0.65591 0.0
C878 C 0.77873 0.53963 0.65888 0.0
C879 C 0.77994 0.50748 0.64501 0.0
C880 C 0.80901 0.50162 0.62885 0.0
H881 H 0.88242 0.90522 0.62787 0.0
H882 H 0.93899 0.96512 0.57203 0.0
H883 H 0.98483 0.9165 0.56986 0.0
H884 H 0.9591 0.8718 0.65917 0.0
H885 H 0.93963 0.82836 0.6655 0.0
H886 H 0.91098 0.86729 0.66224 0.0
H887 H 0.87454 0.83516 0.62829 0.0
H888 H 0.90263 0.79588 0.63176 0.0
H889 H 0.8979 0.81682 0.60234 0.0
H890 H 0.02551 0.86283 0.57547 0.0
H891 H 0.0543 0.80451 0.58404 0.0
H892 H 0.96978 0.77936 0.63585 0.0
C893 C 0.90434 0.90808 0.61505 0.0
C894 C 0.90738 0.93896 0.60017 0.0
C895 C 0.93616 0.94155 0.58346 0.0
C896 C 0.96239 0.91427 0.58228 0.0
C897 C 0.95905 0.88467 0.59778 0.0
C898 C 0.9304 0.88116 0.61353 0.0
C899 C 0.93246 0.84643 0.62787 0.0
C900 C 0.93574 0.85394 0.65532 0.0
C901 C 0.89996 0.82214 0.62222 0.0
C902 C 0.96694 0.8308 0.61781 0.0
C903 C 0.98202 0.85346 0.60066 0.0
C904 C 0.01384 0.84481 0.58875 0.0
C905 C 0.03003 0.81159 0.59386 0.0
C906 C 0.01422 0.78718 0.61061 0.0
C907 C 0.98267 0.79741 0.62311 0.0
H908 H 0.05531 0.04978 0.8957 0.0
H909 H 0.09092 0.14769 0.93116 0.0
H910 H 0.15438 0.13172 0.92223 0.0
H911 H 0.13213 0.99302 0.91696 0.0
H912 H 0.13276 0.96781 0.88891 0.0
H913 H 0.09103 0.98628 0.90003 0.0
H914 H 0.08224 0.01886 0.85872 0.0
H915 H 0.12464 0.00167 0.84785 0.0
H916 H 0.11636 0.04955 0.84815 0.0
H917 H 0.213 0.1084 0.90487 0.0
H918 H 0.26417 0.07238 0.88921 0.0
H919 H 0.19013 0.98816 0.86723 0.0
C920 C 0.07667 0.06698 0.90244 0.0
C921 C 0.06868 0.09943 0.9146 0.0
C922 C 0.09691 0.12216 0.92246 0.0
C923 C 0.13286 0.11358 0.91713 0.0
C924 C 0.13987 0.08202 0.90418 0.0
C925 C 0.11266 0.05846 0.89767 0.0
C926 C 0.12736 0.02618 0.88407 0.0
C927 C 0.12043 0.99126 0.89835 0.0
C928 C 0.1117 0.02396 0.85816 0.0
C929 C 0.16699 0.03552 0.8836 0.0
C930 C 0.17362 0.06813 0.89488 0.0
C931 C 0.20819 0.08264 0.89622 0.0
C932 C 0.237 0.06231 0.88694 0.0
C933 C 0.23093 0.02772 0.87689 0.0
C934 C 0.19539 0.0147 0.87464 0.0
H935 H 0.39562 0.08608 0.87633 0.0
H936 H 0.44291 0.03092 0.93837 0.0
H937 H 0.48606 0.081 0.94358 0.0
H938 H 0.47775 0.12336 0.85226 0.0
H939 H 0.45694 0.16533 0.84353 0.0
H940 H 0.43071 0.12455 0.84409 0.0
H941 H 0.38491 0.1547 0.87332 0.0
H942 H 0.41083 0.19562 0.87271 0.0
H943 H 0.40075 0.1744 0.90137 0.0
H944 H 0.52357 0.13663 0.94196 0.0
H945 H 0.54999 0.19664 0.93616 0.0
H946 H 0.47684 0.21619 0.87568 0.0
C947 C 0.41516 0.08438 0.89096 0.0
C948 C 0.41612 0.05457 0.90689 0.0
C949 C 0.44172 0.05359 0.926 0.0
C950 C 0.46643 0.08175 0.929 0.0
C951 C 0.46489 0.11059 0.91281 0.0
C952 C 0.43971 0.11228 0.89433 0.0
C953 C 0.44264 0.14702 0.8801 0.0
C954 C 0.45261 0.1396 0.85342 0.0
C955 C 0.40771 0.16924 0.88201 0.0
C956 C 0.47331 0.16481 0.89362 0.0
C957 C 0.48601 0.14312 0.91221 0.0
C958 C 0.5139 0.15386 0.92746 0.0
C959 C 0.52875 0.18803 0.92394 0.0
C960 C 0.51542 0.21121 0.90545 0.0
C961 C 0.48767 0.19911 0.8899 0.0
H962 H 0.43122 0.43493 0.92434 0.0
H963 H 0.40907 0.33793 0.88264 0.0
H964 H 0.35373 0.36542 0.86655 0.0
H965 H 0.33612 0.45415 0.9391 0.0
H966 H 0.34137 0.50221 0.93642 0.0
H967 H 0.37885 0.47478 0.94607 0.0
H968 H 0.41775 0.50041 0.91124 0.0
H969 H 0.3806 0.52806 0.90134 0.0
H970 H 0.40179 0.49741 0.88029 0.0
H971 H 0.30342 0.40404 0.85256 0.0
H972 H 0.25536 0.44902 0.84629 0.0
H973 H 0.30913 0.5212 0.89699 0.0
C974 C 0.41423 0.41923 0.91232 0.0
C975 C 0.42457 0.38437 0.90466 0.0
C976 C 0.40183 0.3648 0.88864 0.0
C977 C 0.37037 0.38018 0.8793 0.0
C978 C 0.36177 0.41511 0.88626 0.0
C979 C 0.38247 0.43422 0.90278 0.0
C980 C 0.36675 0.4714 0.90708 0.0
C981 C 0.35509 0.47588 0.93375 0.0
C982 C 0.39332 0.50106 0.89953 0.0
C983 C 0.33446 0.47016 0.89014 0.0
C984 C 0.33225 0.43749 0.87825 0.0
C985 C 0.30465 0.42974 0.86185 0.0
C986 C 0.27763 0.45558 0.85826 0.0
C987 C 0.27839 0.48868 0.87109 0.0
C988 C 0.30781 0.49631 0.88672 0.0
H989 H 0.06357 0.43522 0.91394 0.0
H990 H 0.16474 0.40726 0.87936 0.0
H991 H 0.14276 0.34568 0.87188 0.0
H992 H 0.0471 0.34539 0.94205 0.0
H993 H -0.00068 0.3479 0.9364 0.0
H994 H 0.02469 0.38852 0.94159 0.0
H995 H 0.00104 0.41401 0.90065 0.0
H996 H 0.97629 0.37315 0.8951 0.0
H997 H 0.00841 0.38887 0.873 0.0
H998 H 0.1084 0.28893 0.86485 0.0
H999 H 0.06516 0.23839 0.8625 0.0
H1000 H 0.98595 0.30372 0.90057 0.0
C1001 C 0.08136 0.4157 0.90554 0.0
C1002 C 0.11585 0.42572 0.89737 0.0
C1003 C 0.13819 0.39989 0.88579 0.0
C1004 C 0.12597 0.36491 0.88141 0.0
C1005 C 0.09129 0.35615 0.88869 0.0
C1006 C 0.06941 0.38053 0.90081 0.0
C1007 C 0.03263 0.36455 0.90554 0.0
C1008 C 0.02553 0.36139 0.93302 0.0
C1009 C 0.00285 0.38646 0.8928 0.0
C1010 C 0.03727 0.32783 0.89387 0.0
C1011 C 0.07128 0.32346 0.88429 0.0
C1012 C 0.08168 0.29184 0.87243 0.0
C1013 C 0.05688 0.26342 0.87097 0.0
C1014 C 0.02218 0.267 0.88129 0.0
C1015 C 0.01225 0.29998 0.89245 0.0
H1016 H 0.69026 0.1864 0.37545 0.0
H1017 H 0.62393 0.2819 0.36724 0.0
H1018 H 0.67734 0.3169 0.35553 0.0
H1019 H 0.75379 0.2243 0.40648 0.0
H1020 H 0.79212 0.20084 0.39401 0.0
H1021 H 0.74858 0.1803 0.39294 0.0
H1022 H 0.75329 0.17353 0.34612 0.0
H1023 H 0.79738 0.19382 0.34705 0.0
H1024 H 0.76284 0.21244 0.32765 0.0
H1025 H 0.7372 0.34432 0.35542 0.0
H1026 H 0.79863 0.36188 0.36784 0.0
H1027 H 0.82658 0.24921 0.37727 0.0
C1028 C 0.68686 0.21427 0.37008 0.0
C1029 C 0.65327 0.23154 0.37224 0.0
C1030 C 0.64966 0.26826 0.36576 0.0
C1031 C 0.67976 0.28825 0.35881 0.0
C1032 C 0.71309 0.27101 0.35829 0.0
C1033 C 0.71677 0.23465 0.36349 0.0
C1034 C 0.75585 0.22415 0.3665 0.0
C1035 C 0.76295 0.20642 0.39146 0.0
C1036 C 0.76805 0.19954 0.34557 0.0
C1037 C 0.77313 0.26082 0.36467 0.0
C1038 C 0.74831 0.28729 0.35885 0.0
C1039 C 0.75715 0.32379 0.35927 0.0
C1040 C 0.79196 0.33354 0.3665 0.0
C1041 C 0.81698 0.30682 0.3737 0.0
C1042 C 0.80781 0.27012 0.37187 0.0
H1043 H 0.32208 0.7115 0.36943 0.0
H1044 H 0.23073 0.65886 0.33571 0.0
H1045 H 0.21047 0.71731 0.31889 0.0
H1046 H 0.27466 0.77921 0.3923 0.0
H1047 H 0.30848 0.81369 0.38914 0.0
H1048 H 0.3218 0.76744 0.39143 0.0
H1049 H 0.35654 0.77317 0.35071 0.0
H1050 H 0.3427 0.81964 0.3482 0.0
H1051 H 0.33328 0.78853 0.3238 0.0
H1052 H 0.19454 0.78095 0.31202 0.0
H1053 H 0.17753 0.84335 0.3227 0.0
H1054 H 0.27596 0.8548 0.3642 0.0
C1055 C 0.29856 0.71227 0.35773 0.0
C1056 C 0.27811 0.68105 0.35347 0.0
C1057 C 0.24671 0.68278 0.33898 0.0
C1058 C 0.23539 0.71569 0.32909 0.0
C1059 C 0.25567 0.74644 0.33412 0.0
C1060 C 0.28641 0.74501 0.34842 0.0
C1061 C 0.29879 0.78218 0.35587 0.0
C1062 C 0.30099 0.78582 0.38381 0.0
C1063 C 0.33497 0.79142 0.34392 0.0
C1064 C 0.26862 0.80456 0.3452 0.0
C1065 C 0.24516 0.78374 0.33152 0.0
C1066 C 0.21309 0.79771 0.32217 0.0
C1067 C 0.20368 0.83315 0.32821 0.0
C1068 C 0.22584 0.85339 0.34398 0.0
C1069 C 0.2593 0.8397 0.35161 0.0
H1070 H 0.2945 0.68197 0.09742 0.0
H1071 H 0.32571 0.69855 0.1725 0.0
H1072 H 0.26189 0.71123 0.1833 0.0
H1073 H 0.23307 0.74987 0.09255 0.0
H1074 H 0.20169 0.72549 0.07366 0.0
H1075 H 0.24856 0.71366 0.0733 0.0
H1076 H 0.2321 0.64774 0.08437 0.0
H1077 H 0.18501 0.65965 0.08505 0.0
H1078 H 0.20577 0.6389 0.11121 0.0
H1079 H 0.19627 0.73116 0.18383 0.0
H1080 H 0.13625 0.75689 0.17388 0.0
H1081 H 0.14862 0.72138 0.09922 0.0
C1082 C 0.28763 0.68787 0.11616 0.0
C1083 C 0.31438 0.6899 0.13415 0.0
C1084 C 0.30506 0.69723 0.15857 0.0
C1085 C 0.26903 0.70412 0.16482 0.0
C1086 C 0.24299 0.70231 0.14651 0.0
C1087 C 0.25194 0.69382 0.12273 0.0
C1088 C 0.2198 0.69578 0.10601 0.0
C1089 C 0.22617 0.72282 0.08519 0.0
C1090 C 0.21011 0.65828 0.09609 0.0
C1091 C 0.19177 0.70909 0.1237 0.0
C1092 C 0.20521 0.71213 0.1471 0.0
C1093 C 0.18513 0.72802 0.16574 0.0
C1094 C 0.15108 0.74243 0.16 0.0
C1095 C 0.13807 0.74101 0.13582 0.0
C1096 C 0.15796 0.72261 0.11789 0.0
H1097 H 0.83908 0.28475 0.13773 0.0
H1098 H 0.75551 0.33955 0.17818 0.0
H1099 H 0.73496 0.28127 0.19488 0.0
H1100 H 0.78551 0.22169 0.11603 0.0
H1101 H 0.81725 0.18484 0.11614 0.0
H1102 H 0.83326 0.23024 0.11453 0.0
H1103 H 0.87268 0.21938 0.15287 0.0
H1104 H 0.8564 0.1737 0.15465 0.0
H1105 H 0.8521 0.20336 0.18048 0.0
H1106 H 0.71629 0.21841 0.20064 0.0
H1107 H 0.69456 0.1577 0.18945 0.0
H1108 H 0.78618 0.14368 0.14187 0.0
C1109 C 0.81746 0.28429 0.15093 0.0
C1110 C 0.7991 0.31607 0.15717 0.0
C1111 C 0.76993 0.31508 0.17355 0.0
C1112 C 0.75847 0.28225 0.1833 0.0
C1113 C 0.77628 0.25084 0.17617 0.0
C1114 C 0.80501 0.2516 0.16011 0.0
C1115 C 0.81404 0.21435 0.15078 0.0
C1116 C 0.81235 0.21272 0.12274 0.0
C1117 C 0.851 0.20197 0.16027 0.0
C1118 C 0.78404 0.19305 0.16242 0.0
C1119 C 0.76383 0.21412 0.17811 0.0
C1120 C 0.73235 0.20138 0.1889 0.0
C1121 C 0.7202 0.16695 0.1825 0.0
C1122 C 0.73903 0.14654 0.16498 0.0
C1123 C 0.77194 0.15897 0.15564 0.0
H1124 H 0.1653 0.74766 0.62085 0.0
H1125 H 0.19286 0.63921 0.64383 0.0
H1126 H 0.25082 0.66157 0.66001 0.0
H1127 H 0.2453 0.76973 0.59789 0.0
H1128 H 0.24534 0.8162 0.60749 0.0
H1129 H 0.20343 0.79322 0.60304 0.0
H1130 H 0.1847 0.80899 0.64724 0.0
H1131 H 0.22697 0.8319 0.65187 0.0
H1132 H 0.21359 0.79636 0.67224 0.0
H1133 H 0.30915 0.69244 0.66536 0.0
H1134 H 0.36368 0.72866 0.65831 0.0
H1135 H 0.29759 0.8178 0.63353 0.0
C1136 C 0.1832 0.72871 0.62975 0.0
C1137 C 0.17486 0.69171 0.63096 0.0
C1138 C 0.19883 0.66771 0.64275 0.0
C1139 C 0.23161 0.68023 0.65217 0.0
C1140 C 0.23943 0.71686 0.65012 0.0
C1141 C 0.21568 0.74081 0.63941 0.0
C1142 C 0.23213 0.77775 0.63648 0.0
C1143 C 0.23154 0.78988 0.60965 0.0
C1144 C 0.21322 0.80538 0.65295 0.0
C1145 C 0.26992 0.77011 0.64534 0.0
C1146 C 0.2733 0.73512 0.65382 0.0
C1147 C 0.3067 0.72017 0.6595 0.0
C1148 C 0.3375 0.74086 0.65535 0.0
C1149 C 0.33455 0.776 0.64555 0.0
C1150 C 0.30036 0.79138 0.64168 0.0
H1151 H 0.7292 0.15079 0.65736 0.0
H1152 H 0.83904 0.17555 0.67854 0.0
H1153 H 0.8202 0.23649 0.69042 0.0
H1154 H 0.71364 0.22163 0.62688 0.0
H1155 H 0.66748 0.23045 0.63514 0.0
H1156 H 0.68503 0.18566 0.63741 0.0
H1157 H 0.66766 0.18291 0.68296 0.0
H1158 H 0.64924 0.22782 0.68077 0.0
H1159 H 0.68286 0.21764 0.70348 0.0
H1160 H 0.79625 0.29685 0.68618 0.0
H1161 H 0.76721 0.35126 0.66961 0.0
H1162 H 0.6717 0.28933 0.65234 0.0
C1163 C 0.7489 0.16852 0.66557 0.0
C1164 C 0.78557 0.15871 0.66673 0.0
C1165 C 0.81077 0.18262 0.67732 0.0
C1166 C 0.80024 0.21724 0.68435 0.0
C1167 C 0.76436 0.22723 0.68107 0.0
C1168 C 0.73875 0.20324 0.67253 0.0
C1169 C 0.70381 0.22223 0.66631 0.0
C1170 C 0.69188 0.21455 0.63988 0.0
C1171 C 0.67414 0.21205 0.68447 0.0
C1172 C 0.71529 0.26094 0.66975 0.0
C1173 C 0.74986 0.26319 0.67914 0.0
C1174 C 0.76869 0.29562 0.67978 0.0
C1175 C 0.75222 0.32626 0.67003 0.0
C1176 C 0.7173 0.32417 0.65985 0.0
C1177 C 0.69812 0.29154 0.6606 0.0
H1178 H 0.79627 0.17479 0.8807 0.0
H1179 H 0.8636 0.26252 0.85603 0.0
H1180 H 0.8096 0.29927 0.84779 0.0
H1181 H 0.71233 0.1973 0.84092 0.0
H1182 H 0.68335 0.18535 0.8659 0.0
H1183 H 0.72528 0.16165 0.86143 0.0
H1184 H 0.74376 0.17701 0.90571 0.0
H1185 H 0.70257 0.20133 0.9102 0.0
H1186 H 0.74509 0.22353 0.91522 0.0
H1187 H 0.75187 0.3311 0.85218 0.0
H1188 H 0.69453 0.35507 0.86825 0.0
H1189 H 0.66509 0.24767 0.89206 0.0
C1190 C 0.79934 0.20098 0.87229 0.0
C1191 C 0.83369 0.21589 0.86876 0.0
C1192 C 0.83722 0.25074 0.85869 0.0
C1193 C 0.80673 0.27167 0.85381 0.0
C1194 C 0.77308 0.25725 0.85912 0.0
C1195 C 0.76913 0.22244 0.86785 0.0
C1196 C 0.7312 0.21581 0.87667 0.0
C1197 C 0.71189 0.18841 0.86024 0.0
C1198 C 0.73068 0.20376 0.90353 0.0
C1199 C 0.71551 0.25309 0.87354 0.0
C1200 C 0.73955 0.27627 0.86256 0.0
C1201 C 0.7324 0.31302 0.86019 0.0
C1202 C 0.69997 0.32645 0.86954 0.0
C1203 C 0.67569 0.30321 0.88155 0.0
C1204 C 0.68328 0.26605 0.88301 0.0
H1205 H 0.32737 0.80057 0.85666 0.0
H1206 H 0.23484 0.86497 0.83604 0.0
H1207 H 0.20122 0.80976 0.8259 0.0
H1208 H 0.30817 0.71867 0.81399 0.0
H1209 H 0.32274 0.6884 0.83769 0.0
H1210 H 0.34388 0.73184 0.8344 0.0
H1211 H 0.3294 0.746 0.87948 0.0
H1212 H 0.30768 0.70326 0.88283 0.0
H1213 H 0.28332 0.74407 0.88972 0.0
H1214 H 0.17313 0.75057 0.82864 0.0
H1215 H 0.15253 0.69184 0.84379 0.0
H1216 H 0.26218 0.6651 0.86481 0.0
C1217 C 0.30076 0.80291 0.84869 0.0
C1218 C 0.28366 0.83666 0.8468 0.0
C1219 C 0.24832 0.83911 0.83737 0.0
C1220 C 0.22916 0.80794 0.83142 0.0
C1221 C 0.24581 0.77469 0.8351 0.0
C1222 C 0.28105 0.77193 0.84327 0.0
C1223 C 0.29015 0.73369 0.85062 0.0
C1224 C 0.31787 0.71717 0.83312 0.0
C1225 C 0.30337 0.73169 0.87723 0.0
C1226 C 0.2537 0.71625 0.84748 0.0
C1227 C 0.22889 0.73994 0.83759 0.0
C1228 C 0.19248 0.73141 0.83574 0.0
C1229 C 0.18098 0.6981 0.84463 0.0
C1230 C 0.20577 0.67402 0.85562 0.0
C1231 C 0.24267 0.68288 0.85637 0.0
H1232 H 0.66555 0.10283 0.44686 0.0
H1233 H 0.56884 0.07023 0.48514 0.0
H1234 H 0.60621 0.04634 0.51862 0.0
H1235 H 0.72471 0.02699 0.46785 0.0
H1236 H 0.76329 0.05608 0.47086 0.0
H1237 H 0.72949 0.06541 0.44809 0.0
H1238 H 0.72139 0.12971 0.46561 0.0
H1239 H 0.75492 0.12056 0.48847 0.0
H1240 H 0.71056 0.13527 0.49736 0.0
H1241 H 0.65239 0.0335 0.5499 0.0
H1242 H 0.70493 0.03226 0.57746 0.0
H1243 H 0.77286 0.07274 0.51961 0.0
C1244 C 0.65228 0.08964 0.46193 0.0
C1245 C 0.61421 0.08805 0.46325 0.0
C1246 C 0.59789 0.07157 0.48365 0.0
C1247 C 0.61892 0.05781 0.50272 0.0
C1248 C 0.65627 0.06068 0.50116 0.0
C1249 C 0.67292 0.07602 0.48127 0.0
C1250 C 0.71333 0.07896 0.48528 0.0
C1251 C 0.73392 0.05545 0.46693 0.0
C1252 C 0.72575 0.11847 0.48412 0.0
C1253 C 0.71662 0.06396 0.51086 0.0
C1254 C 0.68334 0.05318 0.51948 0.0
C1255 C 0.67867 0.04116 0.54323 0.0
C1256 C 0.7086 0.04066 0.55874 0.0
C1257 C 0.74282 0.05197 0.55046 0.0
C1258 C 0.7471 0.06313 0.5261 0.0
H1259 H 0.42733 0.77615 0.50388 0.0
H1260 H 0.46094 0.70498 0.56219 0.0
H1261 H 0.45873 0.65311 0.53425 0.0
H1262 H 0.36331 0.71899 0.47988 0.0
H1263 H 0.37086 0.72957 0.4483 0.0
H1264 H 0.3814 0.76223 0.47141 0.0
H1265 H 0.4469 0.76614 0.45551 0.0
H1266 H 0.43648 0.73344 0.43225 0.0
H1267 H 0.4735 0.72563 0.45287 0.0
H1268 H 0.44394 0.60812 0.50261 0.0
H1269 H 0.41842 0.57282 0.46859 0.0
H1270 H 0.39479 0.67206 0.42996 0.0
C1271 C 0.43534 0.74979 0.51039 0.0
C1272 C 0.4446 0.74443 0.53504 0.0
C1273 C 0.45387 0.70948 0.54329 0.0
C1274 C 0.45285 0.6799 0.52755 0.0
C1275 C 0.44247 0.68563 0.50353 0.0
C1276 C 0.43409 0.71968 0.49485 0.0
C1277 C 0.4201 0.71761 0.46892 0.0
C1278 C 0.38164 0.733 0.46704 0.0
C1279 C 0.44579 0.73684 0.45135 0.0
C1280 C 0.42061 0.67712 0.46487 0.0
C1281 C 0.43408 0.65926 0.48496 0.0
C1282 C 0.4341 0.62175 0.4865 0.0
C1283 C 0.41946 0.6019 0.46715 0.0
C1284 C 0.40509 0.6196 0.4465 0.0
C1285 C 0.40644 0.65769 0.44521 0.0
H1286 H 0.89721 0.39739 0.49179 0.0
H1287 H 0.85184 0.45839 0.43179 0.0
H1288 H 0.80141 0.47761 0.45799 0.0
H1289 H 0.81848 0.36207 0.51173 0.0
H1290 H 0.82815 0.36412 0.54385 0.0
H1291 H 0.86445 0.36107 0.52237 0.0
H1292 H 0.89292 0.41914 0.53998 0.0
H1293 H 0.85694 0.42244 0.56184 0.0
H1294 H 0.86636 0.45974 0.5419 0.0
H1295 H 0.7515 0.4834 0.48916 0.0
H1296 H 0.70832 0.47734 0.52322 0.0
H1297 H 0.78573 0.41073 0.56191 0.0
C1298 C 0.87755 0.41606 0.48446 0.0
C1299 C 0.87878 0.42671 0.45979 0.0
C1300 C 0.8517 0.45015 0.45069 0.0
C1301 C 0.82287 0.46117 0.46544 0.0
C1302 C 0.82146 0.44865 0.48931 0.0
C1303 C 0.8484 0.42703 0.49888 0.0
C1304 C 0.83887 0.41438 0.52425 0.0
C1305 C 0.83739 0.37297 0.5256 0.0
C1306 C 0.86534 0.42985 0.54311 0.0
C1307 C 0.80178 0.43092 0.52703 0.0
C1308 C 0.79239 0.45114 0.50691 0.0
C1309 C 0.75879 0.46796 0.50512 0.0
C1310 C 0.73433 0.46422 0.52449 0.0
C1311 C 0.74339 0.44332 0.54517 0.0
C1312 C 0.77769 0.42665 0.54631 0.0
H1313 H 0.10702 0.71127 0.51196 0.0
H1314 H 0.99071 0.71979 0.51598 0.0
H1315 H 0.99128 0.76315 0.48169 0.0
H1316 H 0.12412 0.80066 0.50309 0.0
H1317 H 0.1612 0.79445 0.48238 0.0
H1318 H 0.1509 0.76011 0.50429 0.0
H1319 H 0.1448 0.71276 0.46982 0.0
H1320 H 0.15559 0.74691 0.44773 0.0
H1321 H 0.11461 0.72131 0.44473 0.0
H1322 H 0.00628 0.8124 0.45053 0.0
H1323 H 0.03378 0.85967 0.42471 0.0
H1324 H 0.13983 0.81713 0.44188 0.0
C1325 C 0.08154 0.72154 0.50526 0.0
C1326 C 0.04882 0.71216 0.51661 0.0
C1327 C 0.01607 0.72632 0.50737 0.0
C1328 C 0.01618 0.75107 0.48796 0.0
C1329 C 0.04918 0.76085 0.4778 0.0
C1330 C 0.08119 0.74597 0.48596 0.0
C1331 C 0.11332 0.76248 0.47342 0.0
C1332 C 0.13886 0.78049 0.4919 0.0
C1333 C 0.13325 0.73418 0.458 0.0
C1334 C 0.09464 0.79006 0.45757 0.0
C1335 C 0.05765 0.78863 0.46004 0.0
C1336 C 0.0352 0.8133 0.44818 0.0
C1337 C 0.05104 0.84013 0.4336 0.0
C1338 C 0.08898 0.84222 0.43119 0.0
C1339 C 0.11074 0.81638 0.44315 0.0
H1340 H 0.23997 0.88558 0.95682 0.0
H1341 H 0.28328 0.98655 0.98375 0.0
H1342 H 0.24232 0.98328 0.01927 0.0
H1343 H 0.14894 0.90027 0.97361 0.0
H1344 H 0.14128 0.85404 0.98214 0.0
H1345 H 0.17419 0.86459 0.95925 0.0
H1346 H 0.2233 0.83069 0.98394 0.0
H1347 H 0.19047 0.81978 0.00682 0.0
H1348 H 0.23128 0.84292 0.01525 0.0
H1349 H 0.19355 0.96919 0.0513 0.0
H1350 H 0.14632 0.94308 0.07795 0.0
H1351 H 0.13821 0.85118 0.02938 0.0
C1352 C 0.24098 0.90704 0.97017 0.0
C1353 C 0.26467 0.93641 0.96746 0.0
C1354 C 0.26537 0.96372 0.98551 0.0
C1355 C 0.2421 0.96216 0.00567 0.0
C1356 C 0.21866 0.93295 0.00757 0.0
C1357 C 0.21839 0.90571 0.99038 0.0
C1358 C 0.19139 0.87682 0.99655 0.0
C1359 C 0.16223 0.87378 0.97671 0.0
C1360 C 0.21024 0.84041 1.00091 0.0
C1361 C 0.1762 0.89205 0.01985 0.0
C1362 C 0.19189 0.92454 0.02598 0.0
C1363 C 0.1813 0.94363 0.04671 0.0
C1364 C 0.15438 0.92874 0.06167 0.0
C1365 C 0.1388 0.895 0.05586 0.0
C1366 C 0.14983 0.87683 0.03454 0.0
H1367 H 0.64832 0.17956 0.06946 0.0
H1368 H 0.54251 0.13947 0.0889 0.0
H1369 H 0.51453 0.18753 0.06376 0.0
H1370 H 0.62508 0.27578 0.06765 0.0
H1371 H 0.65414 0.28382 0.04202 0.0
H1372 H 0.66519 0.24899 0.06363 0.0
H1373 H 0.66784 0.20196 0.02872 0.0
H1374 H 0.65706 0.23661 0.00707 0.0
H1375 H 0.62951 0.19677 0.00883 0.0
H1376 H 0.49876 0.23792 0.03318 0.0
H1377 H 0.49724 0.28216 0.99939 0.0
H1378 H 0.61387 0.28751 1.00091 0.0
C1379 C 0.6192 0.18097 0.06881 0.0
C1380 C 0.59765 0.15559 0.08125 0.0
C1381 C 0.55965 0.15861 0.07965 0.0
C1382 C 0.54354 0.18591 0.06545 0.0
C1383 C 0.56578 0.21016 0.05316 0.0
C1384 C 0.60285 0.20786 0.05486 0.0
C1385 C 0.62117 0.23519 0.03871 0.0
C1386 C 0.64266 0.26256 0.05392 0.0
C1387 C 0.64529 0.21651 0.01971 0.0
C1388 C 0.58872 0.25267 0.02698 0.0
C1389 C 0.55689 0.23845 0.03574 0.0
C1390 C 0.52356 0.24945 0.02646 0.0
C1391 C 0.52292 0.27475 0.00734 0.0
C1392 C 0.55542 0.28834 0.99753 0.0
C1393 C 0.58853 0.27774 0.00805 0.0
H1394 H 0.27825 0.58228 0.95317 0.0
H1395 H 0.19389 0.52894 0.99397 0.0
H1396 H 0.23421 0.52653 0.03003 0.0
H1397 H 0.35319 0.53209 0.97912 0.0
H1398 H 0.38261 0.57063 0.97888 0.0
H1399 H 0.34744 0.56667 0.9564 0.0
H1400 H 0.32225 0.62918 0.96915 0.0
H1401 H 0.35748 0.63331 0.99149 0.0
H1402 H 0.31103 0.63725 1.00059 0.0
H1403 H 0.28346 0.53402 0.0625 0.0
H1404 H 0.33563 0.55141 0.08801 0.0
H1405 H 0.38763 0.59703 0.0245 0.0
C1406 C 0.26806 0.57009 0.96966 0.0
C1407 C 0.23271 0.55607 0.97079 0.0
C1408 C 0.22081 0.53995 0.99269 0.0
C1409 C 0.24358 0.53837 0.01322 0.0
C1410 C 0.27833 0.55248 0.0114 0.0
C1411 C 0.29046 0.56787 0.99007 0.0
C1412 C 0.3285 0.58191 0.99273 0.0
C1413 C 0.35446 0.5616 0.97577 0.0
C1414 C 0.32987 0.62283 0.98824 0.0
C1415 C 0.33577 0.57287 0.01911 0.0
C1416 C 0.30668 0.55573 0.02963 0.0
C1417 C 0.30653 0.54696 0.05431 0.0
C1418 C 0.33639 0.55684 0.06867 0.0
C1419 C 0.36606 0.57527 0.0583 0.0
C1420 C 0.36586 0.58238 0.03303 0.0
H1421 H 0.90012 0.38915 0.03641 0.0
H1422 H 0.94764 0.33819 0.09991 0.0
H1423 H 0.9681 0.28748 0.07427 0.0
H1424 H 0.86414 0.31281 0.01184 0.0
H1425 H 0.87227 0.32395 0.98042 0.0
H1426 H 0.8671 0.35928 1.00255 0.0
H1427 H 0.92923 0.38572 0.99073 0.0
H1428 H 0.9343 0.35081 0.96816 0.0
H1429 H 0.96848 0.35704 0.9911 0.0
H1430 H 0.97679 0.23855 0.04234 0.0
H1431 H 0.97502 0.19755 0.00674 0.0
H1432 H 0.92008 0.28042 0.965 0.0
C1433 C 0.91596 0.36804 0.04485 0.0
C1434 C 0.92246 0.36794 0.07022 0.0
C1435 C 0.94253 0.33914 0.08052 0.0
C1436 C 0.95422 0.31012 0.06608 0.0
C1437 C 0.94584 0.31029 0.04134 0.0
C1438 C 0.92759 0.3388 0.03076 0.0
C1439 C 0.91913 0.3312 1.00428 0.0
C1440 C 0.87825 0.33184 0.99952 0.0
C1441 C 0.93897 0.35777 0.98758 0.0
C1442 C 0.93432 0.2935 1.00183 0.0
C1443 C 0.95011 0.282 0.02323 0.0
C1444 C 0.96486 0.24749 0.02541 0.0
C1445 C 0.9636 0.22432 0.00512 0.0
C1446 C 0.94728 0.2356 0.98307 0.0
C1447 C 0.93263 0.27076 0.98157 0.0
H1448 H 0.38086 0.88835 0.52173 0.0
H1449 H 0.33698 0.94287 0.58495 0.0
H1450 H 0.28686 0.96633 0.55976 0.0
H1451 H 0.35372 0.95619 0.47563 0.0
H1452 H 0.34314 0.92183 0.45356 0.0
H1453 H 0.37801 0.91407 0.47582 0.0
H1454 H 0.34551 0.85574 0.48951 0.0
H1455 H 0.31037 0.86359 0.46756 0.0
H1456 H 0.29923 0.85821 0.49925 0.0
H1457 H 0.2387 0.98027 0.52772 0.0
H1458 H 0.19698 0.98173 0.49236 0.0
H1459 H 0.27169 0.91516 0.45152 0.0
C1460 C 0.36136 0.90611 0.53017 0.0
C1461 C 0.36317 0.91412 0.55528 0.0
C1462 C 0.33637 0.93658 0.56571 0.0
C1463 C 0.30778 0.95006 0.55153 0.0
C1464 C 0.30624 0.94073 0.52696 0.0
C1465 C 0.33246 0.91932 0.51639 0.0
C1466 C 0.32318 0.91053 0.49022 0.0
C1467 C 0.35118 0.92662 0.47278 0.0
C1468 C 0.31934 0.8696 0.48643 0.0
C1469 C 0.28726 0.92956 0.48786 0.0
C1470 C 0.2781 0.9474 0.50903 0.0
C1471 C 0.24574 0.96648 0.51103 0.0
C1472 C 0.22218 0.96715 0.4909 0.0
C1473 C 0.23085 0.94829 0.46927 0.0
C1474 C 0.26399 0.92955 0.46786 0.0
H1475 H 0.59913 0.32179 0.58071 0.0
H1476 H 0.55439 0.41829 0.54796 0.0
H1477 H 0.52396 0.3808 0.5168 0.0
H1478 H 0.6215 0.28086 0.52612 0.0
H1479 H 0.61216 0.23548 0.53588 0.0
H1480 H 0.62481 0.26907 0.55787 0.0
H1481 H 0.56656 0.25623 0.58219 0.0
H1482 H 0.5536 0.22265 0.56012 0.0
H1483 H 0.52344 0.25932 0.56716 0.0
H1484 H 0.50339 0.33364 0.48711 0.0
H1485 H 0.4998 0.28194 0.45882 0.0
H1486 H 0.56057 0.21635 0.50949 0.0
C1487 C 0.58204 0.33496 0.56741 0.0
C1488 C 0.5785 0.37294 0.56702 0.0
C1489 C 0.55711 0.38925 0.54874 0.0
C1490 C 0.53959 0.36813 0.53108 0.0
C1491 C 0.54403 0.33075 0.53179 0.0
C1492 C 0.56503 0.31434 0.54938 0.0
C1493 C 0.56938 0.27435 0.54434 0.0
C1494 C 0.60932 0.26438 0.54084 0.0
C1495 C 0.55221 0.25181 0.56467 0.0
C1496 C 0.54834 0.27089 0.52079 0.0
C1497 C 0.53318 0.3036 0.5142 0.0
C1498 C 0.51456 0.30781 0.49233 0.0
C1499 C 0.51242 0.27827 0.47645 0.0
C1500 C 0.52894 0.24504 0.48241 0.0
C1501 C 0.54653 0.24109 0.50503 0.0
H1502 H 0.19819 0.58725 0.44797 0.0
H1503 H 0.27364 0.51392 0.48272 0.0
H1504 H 0.23067 0.50524 0.5165 0.0
H1505 H 0.16871 0.63062 0.50097 0.0
H1506 H 0.12263 0.63518 0.49104 0.0
H1507 H 0.1582 0.63308 0.46897 0.0
H1508 H 0.12688 0.57832 0.44797 0.0
H1509 H 0.0912 0.58131 0.47007 0.0
H1510 H 0.11524 0.53955 0.46606 0.0
H1511 H 0.182 0.50935 0.54831 0.0
H1512 H 0.13299 0.52797 0.57606 0.0
H1513 H 0.08825 0.59574 0.51927 0.0
C1514 C 0.20574 0.56925 0.46263 0.0
C1515 C 0.23944 0.55142 0.46275 0.0
C1516 C 0.24804 0.52794 0.48223 0.0
C1517 C 0.2237 0.52266 0.50143 0.0
C1518 C 0.19068 0.54061 0.50067 0.0
C1519 C 0.18167 0.56339 0.48172 0.0
C1520 C 0.1454 0.58107 0.48581 0.0
C1521 C 0.14897 0.62241 0.48677 0.0
C1522 C 0.11809 0.56936 0.4663 0.0
C1523 C 0.13587 0.56556 0.51041 0.0
C1524 C 0.16212 0.54201 0.51861 0.0
C1525 C 0.16089 0.52712 0.54188 0.0
C1526 C 0.13288 0.53768 0.55748 0.0
C1527 C 0.1064 0.56266 0.54965 0.0
C1528 C 0.10731 0.57562 0.5255 0.0
H1529 H 0.88712 0.11435 0.53888 0.0
H1530 H 0.93664 0.16183 0.60291 0.0
H1531 H 0.95844 0.21265 0.57775 0.0
H1532 H 0.95488 0.14227 0.49437 0.0
H1533 H 0.92122 0.15086 0.4714 0.0
H1534 H 0.91369 0.11663 0.49403 0.0
H1535 H 0.85367 0.14769 0.50605 0.0
H1536 H 0.86115 0.18214 0.48366 0.0
H1537 H 0.85397 0.19443 0.51501 0.0
H1538 H 0.97168 0.26072 0.54497 0.0
H1539 H 0.97325 0.30073 0.50873 0.0
H1540 H 0.91223 0.22135 0.46798 0.0
C1541 C 0.90326 0.13491 0.54764 0.0
C1542 C 0.91042 0.1338 0.5729 0.0
C1543 C 0.93101 0.16186 0.58357 0.0
C1544 C 0.9435 0.19087 0.5694 0.0
C1545 C 0.9351 0.19148 0.54463 0.0
C1546 C 0.91547 0.16406 0.53392 0.0
C1547 C 0.90752 0.1719 0.50747 0.0
C1548 C 0.92541 0.14374 0.49084 0.0
C1549 C 0.86667 0.17419 0.50279 0.0
C1550 C 0.92522 0.2083 0.50494 0.0
C1551 C 0.94148 0.21916 0.52636 0.0
C1552 C 0.95911 0.25232 0.52811 0.0
C1553 C 0.9599 0.27488 0.50748 0.0
C1554 C 0.94263 0.26434 0.4856 0.0
C1555 C 0.9254 0.23047 0.48448 0.0
H1556 H 0.89034 0.0985 0.99039 0.0
H1557 H 0.84334 0.04535 0.92763 0.0
H1558 H 0.79421 0.02204 0.95343 0.0
H1559 H 0.86266 0.0302 0.03712 0.0
H1560 H 0.85339 0.06488 0.05922 0.0
H1561 H 0.88826 0.07142 0.03691 0.0
H1562 H 0.85755 0.13088 0.02324 0.0
H1563 H 0.82242 0.12438 0.04524 0.0
H1564 H 0.81112 0.1301 0.01356 0.0
H1565 H 0.7465 0.00987 0.98544 0.0
H1566 H 0.70451 0.01128 0.02052 0.0
H1567 H 0.78159 0.07547 0.06107 0.0
C1568 C 0.8705 0.08082 0.98226 0.0
C1569 C 0.87098 0.07331 0.95707 0.0
C1570 C 0.84371 0.05115 0.94695 0.0
C1571 C 0.8157 0.03775 0.96147 0.0
C1572 C 0.81523 0.04682 0.98608 0.0
C1573 C 0.84209 0.0677 0.99642 0.0
C1574 C 0.83342 0.07694 0.02259 0.0
C1575 C 0.86108 0.05983 0.03999 0.0
C1576 C 0.83097 0.118 0.02636 0.0
C1577 C 0.79694 0.05923 0.02507 0.0
C1578 C 0.78716 0.04125 1.00407 0.0
C1579 C 0.75404 0.02365 1.00205 0.0
C1580 C 0.73032 0.02465 0.02199 0.0
C1581 C 0.73959 0.04381 0.04338 0.0
C1582 C 0.77351 0.06093 0.04486 0.0
H1583 H 0.40167 0.88443 0.97134 0.0
H1584 H 0.43857 0.82721 0.90711 0.0
H1585 H 0.45897 0.77672 0.93314 0.0
H1586 H 0.47191 0.85231 0.01401 0.0
H1587 H 0.44004 0.84901 0.03859 0.0
H1588 H 0.43386 0.88251 0.01523 0.0
H1589 H 0.36972 0.85786 0.00681 0.0
H1590 H 0.3758 0.82409 0.02988 0.0
H1591 H 0.36405 0.8109 0.99931 0.0
H1592 H 0.47006 0.72983 0.96644 0.0
H1593 H 0.46974 0.69146 1.00339 0.0
H1594 H 0.42289 0.77973 0.04444 0.0
C1595 C 0.41497 0.86182 0.96269 0.0
C1596 C 0.41879 0.86 0.93716 0.0
C1597 C 0.4356 0.82939 0.92665 0.0
C1598 C 0.44728 0.80057 0.9413 0.0
C1599 C 0.44195 0.8028 0.96638 0.0
C1600 C 0.42633 0.83283 0.97693 0.0
C1601 C 0.42038 0.82756 1.00388 0.0
C1602 C 0.4429 0.85444 0.0188 0.0
C1603 C 0.38011 0.83025 0.01033 0.0
C1604 C 0.4343 0.78955 0.00682 0.0
C1605 C 0.44718 0.77575 0.98516 0.0
C1606 C 0.46032 0.74054 0.98353 0.0
C1607 C 0.46002 0.71893 1.00457 0.0
C1608 C 0.44612 0.73253 0.02674 0.0
C1609 C 0.43351 0.76841 0.02775 0.0
H1610 H 0.71211 0.40608 0.05929 0.0
H1611 H 0.79158 0.46986 0.02085 0.0
H1612 H 0.74773 0.48034 0.98766 0.0
H1613 H 0.67394 0.36298 0.00777 0.0
H1614 H 0.62865 0.36423 0.01945 0.0
H1615 H 0.66621 0.36315 0.04014 0.0
H1616 H 0.64231 0.42138 0.06082 0.0
H1617 H 0.60505 0.42299 0.03976 0.0
H1618 H 0.6347 0.46115 0.04273 0.0
H1619 H 0.69656 0.48018 0.9574 0.0
H1620 H 0.64376 0.46615 0.93161 0.0
H1621 H 0.59674 0.40594 0.99119 0.0
C1622 C 0.72043 0.42208 0.04384 0.0
C1623 C 0.7554 0.43693 0.04258 0.0
C1624 C 0.76497 0.45812 0.02217 0.0
C1625 C 0.74018 0.46442 1.00331 0.0
C1626 C 0.70575 0.44983 0.00531 0.0
C1627 C 0.69591 0.42904 0.02505 0.0
C1628 C 0.65764 0.41554 0.02253 0.0
C1629 C 0.65657 0.37404 0.02245 0.0
C1630 C 0.6335 0.43121 0.04266 0.0
C1631 C 0.64785 0.43098 0.99788 0.0
C1632 C 0.67581 0.45098 0.98833 0.0
C1633 C 0.67423 0.46512 0.96484 0.0
C1634 C 0.64404 0.45721 0.95036 0.0
C1635 C 0.61581 0.43548 0.95946 0.0
C1636 C 0.61725 0.42357 0.98389 0.0
H1637 H 0.06093 0.71053 0.04345 0.0
H1638 H 0.9959 0.78633 1.00234 0.0
H1639 H 0.99627 0.74417 0.96717 0.0
H1640 H 0.11745 0.68454 0.99702 0.0
H1641 H 0.12061 0.63802 0.00619 0.0
H1642 H 0.11134 0.67226 0.02846 0.0
H1643 H 0.05336 0.63845 0.04123 0.0
H1644 H 0.06242 0.60406 0.01887 0.0
H1645 H 0.01989 0.62757 0.01858 0.0
H1646 H 0.01142 0.69684 0.93495 0.0
H1647 H 0.0383 0.64908 0.90929 0.0
H1648 H 0.09061 0.60365 0.97291 0.0
C1649 C 0.04631 0.71818 0.02717 0.0
C1650 C 0.02856 0.75181 0.02552 0.0
C1651 C 0.00957 0.76064 1.00398 0.0
C1652 C 0.00965 0.73684 0.98397 0.0
C1653 C 0.02815 0.70411 0.9861 0.0
C1654 C 0.04572 0.69469 0.00735 0.0
C1655 C 0.06539 0.65914 0.00485 0.0
C1656 C 0.10609 0.6638 0.00939 0.0
C1657 C 0.04928 0.63062 0.0219 0.0
C1658 C 0.05744 0.65047 0.97851 0.0
C1659 C 0.0357 0.67651 0.96798 0.0
C1660 C 0.02776 0.67594 0.94317 0.0
C1661 C 0.04315 0.64868 0.92873 0.0
C1662 C 0.06613 0.62227 0.93914 0.0
C1663 C 0.07237 0.62276 0.96449 0.0
loop_
_geom_bond_atom_site_label_1
_geom_bond_atom_site_label_2
_geom_bond_distance
_geom_bond_site_symmetry_2
_ccdc_geom_bond_type
O0 Zn1 1.953 . S
O0 C16 1.225 . S
Zn1 O0 1.953 . S
Zn1 O2 1.949 . S
Zn1 O8 1.919 . S
Zn1 O13 1.924 . S
O2 Zn1 1.949 . S
O2 Zn3 1.923 . S
O2 Zn4 1.950 . S
O2 Zn5 1.945 . S
Zn3 O2 1.923 . S
Zn3 O6 1.933 . S
Zn3 O9 1.941 . S
Zn3 O10 1.965 . S
Zn4 O2 1.950 . S
Zn4 O11 1.938 . S
Zn4 O12 1.906 . S
Zn4 O22 1.953 . S
Zn5 O2 1.945 . S
Zn5 O7 1.932 . S
Zn5 O14 1.977 . S
Zn5 O15 1.910 . S
O6 Zn3 1.933 . S
O6 C17 1.226 . S
O7 Zn5 1.932 . S
O7 C17 1.307 . S
O8 Zn1 1.919 . S
O8 C19 1.253 . S
O9 Zn3 1.941 . S
O9 C19 1.283 . S
O10 Zn3 1.965 . S
O10 C18 1.303 . S
O11 Zn4 1.938 . S
O11 C18 1.247 . S
O12 Zn4 1.906 . S
O12 C20 1.304 . S
O13 Zn1 1.924 . S
O13 C21 1.311 . S
O14 Zn5 1.977 . S
O14 C20 1.272 . S
O15 Zn5 1.910 . S
O15 C21 1.231 . S
C16 O0 1.225 . S
C16 O22 1.298 . S
C17 O6 1.226 . S
C17 O7 1.307 . S
C18 O10 1.303 . S
C18 O11 1.247 . S
C19 O8 1.253 . S
C19 O9 1.283 . S
C20 O12 1.304 . S
C20 O14 1.272 . S
C21 O13 1.311 . S
C21 O15 1.231 . S
O22 Zn4 1.953 . S
O22 C16 1.298 . S
O23 Zn24 1.953 . S
O23 C39 1.225 . S
Zn24 O23 1.953 . S
Zn24 O25 1.949 . S
Zn24 O31 1.919 . S
Zn24 O36 1.924 . S
O25 Zn24 1.949 . S
O25 Zn26 1.923 . S
O25 Zn27 1.950 . S
O25 Zn28 1.945 . S
Zn26 O25 1.923 . S
Zn26 O29 1.933 . S
Zn26 O32 1.941 . S
Zn26 O33 1.965 . S
Zn27 O25 1.950 . S
Zn27 O34 1.938 . S
Zn27 O35 1.906 . S
Zn27 O45 1.953 . S
Zn28 O25 1.945 . S
Zn28 O30 1.932 . S
Zn28 O37 1.977 . S
Zn28 O38 1.910 . S
O29 Zn26 1.933 . S
O29 C40 1.226 . S
O30 Zn28 1.932 . S
O30 C40 1.307 . S
O31 Zn24 1.919 . S
O31 C42 1.253 . S
O32 Zn26 1.941 . S
O32 C42 1.283 . S
O33 Zn26 1.965 . S
O33 C41 1.303 . S
O34 Zn27 1.938 . S
O34 C41 1.247 . S
O35 Zn27 1.906 . S
O35 C43 1.304 . S
O36 Zn24 1.924 . S
O36 C44 1.311 . S
O37 Zn28 1.977 . S
O37 C43 1.272 . S
O38 Zn28 1.910 . S
O38 C44 1.231 . S
C39 O23 1.225 . S
C39 O45 1.298 . S
C40 O29 1.226 . S
C40 O30 1.307 . S
C41 O33 1.303 . S
C41 O34 1.247 . S
C42 O31 1.253 . S
C42 O32 1.283 . S
C43 O35 1.304 . S
C43 O37 1.272 . S
C44 O36 1.311 . S
C44 O38 1.231 . S
O45 Zn27 1.953 . S
O45 C39 1.298 . S
O46 Zn47 1.953 . S
O46 C62 1.225 . S
Zn47 O46 1.953 . S
Zn47 O48 1.949 . S
Zn47 O54 1.919 . S
Zn47 O59 1.924 . S
O48 Zn47 1.949 . S
O48 Zn49 1.923 . S
O48 Zn50 1.950 . S
O48 Zn51 1.945 . S
Zn49 O48 1.923 . S
Zn49 O52 1.933 . S
Zn49 O55 1.941 . S
Zn49 O56 1.965 . S
Zn50 O48 1.950 . S
Zn50 O57 1.938 . S
Zn50 O58 1.905 1_655 S
Zn50 O68 1.953 . S
Zn51 O48 1.945 . S
Zn51 O53 1.932 . S
Zn51 O60 1.977 1_655 S
Zn51 O61 1.910 . S
O52 Zn49 1.933 . S
O52 C63 1.226 . S
O53 Zn51 1.932 . S
O53 C63 1.307 . S
O54 Zn47 1.919 . S
O54 C65 1.253 . S
O55 Zn49 1.941 . S
O55 C65 1.283 . S
O56 Zn49 1.965 . S
O56 C64 1.303 . S
O57 Zn50 1.938 . S
O57 C64 1.247 . S
O58 Zn50 1.905 1_455 S
O58 C66 1.305 . S
O59 Zn47 1.924 . S
O59 C67 1.311 . S
O60 Zn51 1.977 1_455 S
O60 C66 1.272 . S
O61 Zn51 1.910 . S
O61 C67 1.231 . S
C62 O46 1.225 . S
C62 O68 1.298 . S
C63 O52 1.226 . S
C63 O53 1.307 . S
C64 O56 1.303 . S
C64 O57 1.247 . S
C65 O54 1.253 . S
C65 O55 1.283 . S
C66 O58 1.305 . S
C66 O60 1.272 . S
C67 O59 1.311 . S
C67 O61 1.231 . S
O68 Zn50 1.953 . S
O68 C62 1.298 . S
O69 Zn70 1.953 . S
O69 C85 1.225 . S
Zn70 O69 1.953 . S
Zn70 O71 1.949 . S
Zn70 O77 1.919 . S
Zn70 O82 1.924 . S
O71 Zn70 1.949 . S
O71 Zn72 1.923 . S
O71 Zn73 1.950 . S
O71 Zn74 1.945 . S
Zn72 O71 1.923 . S
Zn72 O75 1.933 . S
Zn72 O78 1.941 1_565 S
Zn72 O79 1.965 1_565 S
Zn73 O71 1.950 . S
Zn73 O80 1.938 . S
Zn73 O81 1.906 . S
Zn73 O91 1.953 . S
Zn74 O71 1.945 . S
Zn74 O76 1.932 . S
Zn74 O83 1.977 . S
Zn74 O84 1.910 . S
O75 Zn72 1.933 . S
O75 C86 1.226 . S
O76 Zn74 1.932 . S
O76 C86 1.307 . S
O77 Zn70 1.919 . S
O77 C88 1.253 . S
O78 Zn72 1.941 1_545 S
O78 C88 1.283 1_545 S
O79 Zn72 1.965 1_545 S
O79 C87 1.303 . S
O80 Zn73 1.938 . S
O80 C87 1.247 1_565 S
O81 Zn73 1.906 . S
O81 C89 1.304 . S
O82 Zn70 1.924 . S
O82 C90 1.311 . S
O83 Zn74 1.977 . S
O83 C89 1.272 . S
O84 Zn74 1.910 . S
O84 C90 1.231 . S
C85 O69 1.225 . S
C85 O91 1.298 . S
C86 O75 1.226 . S
C86 O76 1.307 . S
C87 O79 1.303 . S
C87 O80 1.247 1_545 S
C88 O77 1.253 . S
C88 O78 1.283 1_565 S
C89 O81 1.304 . S
C89 O83 1.272 . S
C90 O82 1.311 . S
C90 O84 1.231 . S
O91 Zn73 1.953 . S
O91 C85 1.298 . S
O92 Zn93 1.953 . S
O92 C108 1.225 . S
Zn93 O92 1.953 . S
Zn93 O94 1.949 . S
Zn93 O100 1.919 . S
Zn93 O105 1.924 . S
O94 Zn93 1.949 . S
O94 Zn95 1.923 . S
O94 Zn96 1.950 . S
O94 Zn97 1.945 . S
Zn95 O94 1.923 . S
Zn95 O98 1.933 . S
Zn95 O101 1.941 1_455 S
Zn95 O102 1.965 1_455 S
Zn96 O94 1.950 . S
Zn96 O103 1.938 . S
Zn96 O104 1.906 . S
Zn96 O114 1.953 . S
Zn97 O94 1.945 . S
Zn97 O99 1.932 . S
Zn97 O106 1.977 . S
Zn97 O107 1.910 . S
O98 Zn95 1.933 . S
O98 C109 1.226 . S
O99 Zn97 1.932 . S
O99 C109 1.307 . S
O100 Zn93 1.919 . S
O100 C111 1.253 . S
O101 Zn95 1.941 1_655 S
O101 C111 1.283 1_655 S
O102 Zn95 1.965 1_655 S
O102 C110 1.303 . S
O103 Zn96 1.938 . S
O103 C110 1.247 1_455 S
O104 Zn96 1.906 . S
O104 C112 1.304 . S
O105 Zn93 1.924 . S
O105 C113 1.311 . S
O106 Zn97 1.977 . S
O106 C112 1.272 . S
O107 Zn97 1.910 . S
O107 C113 1.231 . S
C108 O92 1.225 . S
C108 O114 1.298 . S
C109 O98 1.226 . S
C109 O99 1.307 . S
C110 O102 1.303 . S
C110 O103 1.247 1_655 S
C111 O100 1.253 . S
C111 O101 1.283 1_455 S
C112 O104 1.304 . S
C112 O106 1.272 . S
C113 O105 1.311 . S
C113 O107 1.231 . S
O114 Zn96 1.953 . S
O114 C108 1.298 . S
O115 Zn116 1.953 . S
O115 C131 1.225 . S
Zn116 O115 1.953 . S
Zn116 O117 1.949 . S
Zn116 O123 1.919 . S
Zn116 O128 1.924 . S
O117 Zn116 1.949 . S
O117 Zn118 1.923 . S
O117 Zn119 1.950 . S
O117 Zn120 1.945 . S
Zn118 O117 1.923 . S
Zn118 O121 1.933 . S
Zn118 O124 1.941 1_545 S
Zn118 O125 1.965 1_545 S
Zn119 O117 1.950 . S
Zn119 O126 1.938 . S
Zn119 O127 1.906 . S
Zn119 O137 1.953 . S
Zn120 O117 1.945 . S
Zn120 O122 1.932 . S
Zn120 O129 1.977 . S
Zn120 O130 1.910 . S
O121 Zn118 1.933 . S
O121 C132 1.226 . S
O122 Zn120 1.932 . S
O122 C132 1.307 . S
O123 Zn116 1.919 . S
O123 C134 1.253 . S
O124 Zn118 1.941 1_565 S
O124 C134 1.283 1_565 S
O125 Zn118 1.965 1_565 S
O125 C133 1.303 . S
O126 Zn119 1.938 . S
O126 C133 1.247 1_545 S
O127 Zn119 1.906 . S
O127 C135 1.304 . S
O128 Zn116 1.924 . S
O128 C136 1.311 . S
O129 Zn120 1.977 . S
O129 C135 1.272 . S
O130 Zn120 1.910 . S
O130 C136 1.231 . S
C131 O115 1.225 . S
C131 O137 1.298 . S
C132 O121 1.226 . S
C132 O122 1.307 . S
C133 O125 1.303 . S
C133 O126 1.247 1_565 S
C134 O123 1.253 . S
C134 O124 1.283 1_545 S
C135 O127 1.304 . S
C135 O129 1.272 . S
C136 O128 1.311 . S
C136 O130 1.231 . S
O137 Zn119 1.953 . S
O137 C131 1.298 . S
O138 Zn139 1.953 . S
O138 C154 1.225 . S
Zn139 O138 1.953 . S
Zn139 O140 1.949 . S
Zn139 O146 1.919 . S
Zn139 O151 1.924 . S
O140 Zn139 1.949 . S
O140 Zn141 1.923 . S
O140 Zn142 1.950 . S
O140 Zn143 1.945 . S
Zn141 O140 1.923 . S
Zn141 O144 1.933 . S
Zn141 O147 1.941 . S
Zn141 O148 1.965 . S
Zn142 O140 1.950 . S
Zn142 O149 1.938 . S
Zn142 O150 1.906 . S
Zn142 O160 1.953 . S
Zn143 O140 1.945 . S
Zn143 O145 1.932 . S
Zn143 O152 1.977 . S
Zn143 O153 1.910 . S
O144 Zn141 1.933 . S
O144 C155 1.226 . S
O145 Zn143 1.932 . S
O145 C155 1.307 . S
O146 Zn139 1.919 . S
O146 C157 1.253 . S
O147 Zn141 1.941 . S
O147 C157 1.283 . S
O148 Zn141 1.965 . S
O148 C156 1.303 . S
O149 Zn142 1.938 . S
O149 C156 1.247 . S
O150 Zn142 1.906 . S
O150 C158 1.304 . S
O151 Zn139 1.924 . S
O151 C159 1.311 . S
O152 Zn143 1.977 . S
O152 C158 1.272 . S
O153 Zn143 1.910 . S
O153 C159 1.231 . S
C154 O138 1.225 . S
C154 O160 1.298 . S
C155 O144 1.226 . S
C155 O145 1.307 . S
C156 O148 1.303 . S
C156 O149 1.247 . S
C157 O146 1.253 . S
C157 O147 1.283 . S
C158 O150 1.304 . S
C158 O152 1.272 . S
C159 O151 1.311 . S
C159 O153 1.231 . S
O160 Zn142 1.953 . S
O160 C154 1.298 . S
O161 Zn162 1.953 . S
O161 C177 1.225 . S
Zn162 O161 1.953 . S
Zn162 O163 1.949 . S
Zn162 O169 1.919 . S
Zn162 O174 1.924 . S
O163 Zn162 1.949 . S
O163 Zn164 1.923 . S
O163 Zn165 1.950 . S
O163 Zn166 1.945 . S
Zn164 O163 1.923 . S
Zn164 O167 1.933 . S
Zn164 O170 1.941 . S
Zn164 O171 1.965 . S
Zn165 O163 1.950 . S
Zn165 O172 1.938 . S
Zn165 O173 1.906 . S
Zn165 O183 1.953 . S
Zn166 O163 1.945 . S
Zn166 O168 1.932 . S
Zn166 O175 1.977 . S
Zn166 O176 1.910 . S
O167 Zn164 1.933 . S
O167 C178 1.226 . S
O168 Zn166 1.932 . S
O168 C178 1.307 . S
O169 Zn162 1.919 . S
O169 C180 1.253 . S
O170 Zn164 1.941 . S
O170 C180 1.283 . S
O171 Zn164 1.965 . S
O171 C179 1.303 . S
O172 Zn165 1.938 . S
O172 C179 1.247 . S
O173 Zn165 1.906 . S
O173 C181 1.304 . S
O174 Zn162 1.924 . S
O174 C182 1.311 . S
O175 Zn166 1.977 . S
O175 C181 1.272 . S
O176 Zn166 1.910 . S
O176 C182 1.231 . S
C177 O161 1.225 . S
C177 O183 1.298 . S
C178 O167 1.226 . S
C178 O168 1.307 . S
C179 O171 1.303 . S
C179 O172 1.247 . S
C180 O169 1.253 . S
C180 O170 1.283 . S
C181 O173 1.304 . S
C181 O175 1.272 . S
C182 O174 1.311 . S
C182 O176 1.231 . S
O183 Zn165 1.953 . S
O183 C177 1.298 . S
O184 Zn185 1.953 . S
O184 C200 1.225 . S
Zn185 O184 1.953 . S
Zn185 O186 1.949 . S
Zn185 O192 1.919 . S
Zn185 O197 1.924 . S
O186 Zn185 1.949 . S
O186 Zn187 1.923 . S
O186 Zn188 1.950 . S
O186 Zn189 1.945 . S
Zn187 O186 1.923 . S
Zn187 O190 1.933 . S
Zn187 O193 1.941 . S
Zn187 O194 1.965 . S
Zn188 O186 1.950 . S
Zn188 O195 1.938 . S
Zn188 O196 1.906 . S
Zn188 O206 1.953 . S
Zn189 O186 1.945 . S
Zn189 O191 1.932 . S
Zn189 O198 1.977 . S
Zn189 O199 1.910 . S
O190 Zn187 1.933 . S
O190 C201 1.226 . S
O191 Zn189 1.932 . S
O191 C201 1.307 . S
O192 Zn185 1.919 . S
O192 C203 1.253 . S
O193 Zn187 1.941 . S
O193 C203 1.283 . S
O194 Zn187 1.965 . S
O194 C202 1.303 . S
O195 Zn188 1.938 . S
O195 C202 1.247 . S
O196 Zn188 1.906 . S
O196 C204 1.304 . S
O197 Zn185 1.924 . S
O197 C205 1.311 . S
O198 Zn189 1.977 . S
O198 C204 1.272 . S
O199 Zn189 1.910 . S
O199 C205 1.231 . S
C200 O184 1.225 . S
C200 O206 1.298 . S
C201 O190 1.226 . S
C201 O191 1.307 . S
C202 O194 1.303 . S
C202 O195 1.247 . S
C203 O192 1.253 . S
C203 O193 1.283 . S
C204 O196 1.304 . S
C204 O198 1.272 . S
C205 O197 1.311 . S
C205 O199 1.231 . S
O206 Zn188 1.953 . S
O206 C200 1.298 . S
O207 Zn208 1.953 . S
O207 C223 1.225 . S
Zn208 O207 1.953 . S
Zn208 O209 1.949 . S
Zn208 O215 1.919 . S
Zn208 O220 1.924 . S
O209 Zn208 1.949 . S
O209 Zn210 1.923 . S
O209 Zn211 1.950 . S
O209 Zn212 1.945 . S
Zn210 O209 1.923 . S
Zn210 O213 1.933 . S
Zn210 O216 1.941 . S
Zn210 O217 1.965 . S
Zn211 O209 1.950 . S
Zn211 O218 1.938 . S
Zn211 O219 1.906 . S
Zn211 O229 1.953 . S
Zn212 O209 1.945 . S
Zn212 O214 1.932 . S
Zn212 O221 1.977 . S
Zn212 O222 1.910 . S
O213 Zn210 1.933 . S
O213 C224 1.226 . S
O214 Zn212 1.932 . S
O214 C224 1.307 . S
O215 Zn208 1.919 . S
O215 C226 1.253 . S
O216 Zn210 1.941 . S
O216 C226 1.283 . S
O217 Zn210 1.965 . S
O217 C225 1.303 . S
O218 Zn211 1.938 . S
O218 C225 1.247 . S
O219 Zn211 1.906 . S
O219 C227 1.304 . S
O220 Zn208 1.924 . S
O220 C228 1.311 . S
O221 Zn212 1.977 . S
O221 C227 1.272 . S
O222 Zn212 1.910 . S
O222 C228 1.231 . S
C223 O207 1.225 . S
C223 O229 1.298 . S
C224 O213 1.226 . S
C224 O214 1.307 . S
C225 O217 1.303 . S
C225 O218 1.247 . S
C226 O215 1.253 . S
C226 O216 1.283 . S
C227 O219 1.304 . S
C227 O221 1.272 . S
C228 O220 1.311 . S
C228 O222 1.231 . S
O229 Zn211 1.953 . S
O229 C223 1.298 . S
O230 Zn231 1.953 . S
O230 C246 1.225 . S
Zn231 O230 1.953 . S
Zn231 O232 1.949 . S
Zn231 O238 1.919 . S
Zn231 O243 1.924 . S
O232 Zn231 1.949 . S
O232 Zn233 1.923 . S
O232 Zn234 1.950 . S
O232 Zn235 1.945 . S
Zn233 O232 1.923 . S
Zn233 O236 1.933 . S
Zn233 O239 1.941 . S
Zn233 O240 1.965 . S
Zn234 O232 1.950 . S
Zn234 O241 1.938 . S
Zn234 O242 1.910 . S
Zn234 O252 1.953 . S
Zn235 O232 1.945 . S
Zn235 O237 1.932 . S
Zn235 O244 1.977 1_455 S
Zn235 O245 1.910 . S
O236 Zn233 1.933 . S
O236 C247 1.226 . S
O237 Zn235 1.932 . S
O237 C247 1.307 . S
O238 Zn231 1.919 . S
O238 C249 1.253 . S
O239 Zn233 1.941 . S
O239 C249 1.283 . S
O240 Zn233 1.965 . S
O240 C248 1.303 . S
O241 Zn234 1.938 . S
O241 C248 1.247 . S
O242 Zn234 1.910 . S
O242 C250 1.302 1_455 S
O243 Zn231 1.924 . S
O243 C251 1.311 . S
O244 Zn235 1.977 1_655 S
O244 C250 1.272 . S
O245 Zn235 1.910 . S
O245 C251 1.231 . S
C246 O230 1.225 . S
C246 O252 1.298 . S
C247 O236 1.226 . S
C247 O237 1.307 . S
C248 O240 1.303 . S
C248 O241 1.247 . S
C249 O238 1.253 . S
C249 O239 1.283 . S
C250 O242 1.302 1_655 S
C250 O244 1.272 . S
C251 O243 1.311 . S
C251 O245 1.231 . S
O252 Zn234 1.953 . S
O252 C246 1.298 . S
O253 Zn254 1.953 . S
O253 C269 1.225 . S
Zn254 O253 1.953 . S
Zn254 O255 1.949 . S
Zn254 O261 1.919 . S
Zn254 O266 1.924 . S
O255 Zn254 1.949 . S
O255 Zn256 1.923 . S
O255 Zn257 1.950 . S
O255 Zn258 1.945 . S
Zn256 O255 1.923 . S
Zn256 O259 1.933 . S
Zn256 O262 1.941 . S
Zn256 O263 1.965 . S
Zn257 O255 1.950 . S
Zn257 O264 1.938 . S
Zn257 O265 1.918 . S
Zn257 O275 1.953 . S
Zn258 O255 1.945 . S
Zn258 O260 1.932 . S
Zn258 O267 1.977 1_545 S
Zn258 O268 1.910 . S
O259 Zn256 1.933 . S
O259 C270 1.226 . S
O260 Zn258 1.932 . S
O260 C270 1.307 . S
O261 Zn254 1.919 . S
O261 C272 1.253 . S
O262 Zn256 1.941 . S
O262 C272 1.283 . S
O263 Zn256 1.965 . S
O263 C271 1.303 . S
O264 Zn257 1.938 . S
O264 C271 1.247 . S
O265 Zn257 1.918 . S
O265 C273 1.296 1_545 S
O266 Zn254 1.924 . S
O266 C274 1.311 . S
O267 Zn258 1.977 1_565 S
O267 C273 1.272 . S
O268 Zn258 1.910 . S
O268 C274 1.231 . S
C269 O253 1.225 . S
C269 O275 1.298 . S
C270 O259 1.226 . S
C270 O260 1.307 . S
C271 O263 1.303 . S
C271 O264 1.247 . S
C272 O261 1.253 . S
C272 O262 1.283 . S
C273 O265 1.296 1_565 S
C273 O267 1.272 . S
C274 O266 1.311 . S
C274 O268 1.231 . S
O275 Zn257 1.953 . S
O275 C269 1.298 . S
O276 Zn277 1.953 . S
O276 C292 1.225 . S
Zn277 O276 1.953 . S
Zn277 O278 1.949 . S
Zn277 O284 1.919 . S
Zn277 O289 1.924 . S
O278 Zn277 1.949 . S
O278 Zn279 1.923 . S
O278 Zn280 1.950 . S
O278 Zn281 1.945 . S
Zn279 O278 1.923 . S
Zn279 O282 1.933 . S
Zn279 O285 1.941 . S
Zn279 O286 1.965 . S
Zn280 O278 1.950 . S
Zn280 O287 1.938 . S
Zn280 O288 1.904 1_655 S
Zn280 O298 1.953 . S
Zn281 O278 1.945 . S
Zn281 O283 1.932 . S
Zn281 O290 1.977 1_655 S
Zn281 O291 1.910 . S
O282 Zn279 1.933 . S
O282 C293 1.226 . S
O283 Zn281 1.932 . S
O283 C293 1.307 . S
O284 Zn277 1.919 . S
O284 C295 1.253 . S
O285 Zn279 1.941 . S
O285 C295 1.283 . S
O286 Zn279 1.965 . S
O286 C294 1.303 . S
O287 Zn280 1.938 . S
O287 C294 1.247 . S
O288 Zn280 1.904 1_455 S
O288 C296 1.306 . S
O289 Zn277 1.924 . S
O289 C297 1.311 . S
O290 Zn281 1.977 1_455 S
O290 C296 1.272 . S
O291 Zn281 1.910 . S
O291 C297 1.231 . S
C292 O276 1.225 . S
C292 O298 1.298 . S
C293 O282 1.226 . S
C293 O283 1.307 . S
C294 O286 1.303 . S
C294 O287 1.247 . S
C295 O284 1.253 . S
C295 O285 1.283 . S
C296 O288 1.306 . S
C296 O290 1.272 . S
C297 O289 1.311 . S
C297 O291 1.231 . S
O298 Zn280 1.953 . S
O298 C292 1.298 . S
O299 Zn300 1.953 . S
O299 C315 1.225 . S
Zn300 O299 1.953 . S
Zn300 O301 1.949 . S
Zn300 O307 1.919 . S
Zn300 O312 1.924 . S
O301 Zn300 1.949 . S
O301 Zn302 1.923 . S
O301 Zn303 1.950 . S
O301 Zn304 1.945 . S
Zn302 O301 1.923 . S
Zn302 O305 1.933 . S
Zn302 O308 1.941 . S
Zn302 O309 1.965 . S
Zn303 O301 1.950 . S
Zn303 O310 1.938 . S
Zn303 O311 1.912 . S
Zn303 O321 1.953 . S
Zn304 O301 1.945 . S
Zn304 O306 1.932 . S
Zn304 O313 1.977 1_565 S
Zn304 O314 1.910 . S
O305 Zn302 1.933 . S
O305 C316 1.226 . S
O306 Zn304 1.932 . S
O306 C316 1.307 . S
O307 Zn300 1.919 . S
O307 C318 1.253 . S
O308 Zn302 1.941 . S
O308 C318 1.283 . S
O309 Zn302 1.965 . S
O309 C317 1.303 . S
O310 Zn303 1.938 . S
O310 C317 1.247 . S
O311 Zn303 1.912 . S
O311 C319 1.301 1_565 S
O312 Zn300 1.924 . S
O312 C320 1.311 . S
O313 Zn304 1.977 1_545 S
O313 C319 1.272 . S
O314 Zn304 1.910 . S
O314 C320 1.231 . S
C315 O299 1.225 . S
C315 O321 1.298 . S
C316 O305 1.226 . S
C316 O306 1.307 . S
C317 O309 1.303 . S
C317 O310 1.247 . S
C318 O307 1.253 . S
C318 O308 1.283 . S
C319 O311 1.301 1_545 S
C319 O313 1.272 . S
C320 O312 1.311 . S
C320 O314 1.231 . S
O321 Zn303 1.953 . S
O321 C315 1.298 . S
O322 Zn323 1.953 . S
O322 C338 1.225 . S
Zn323 O322 1.953 . S
Zn323 O324 1.949 . S
Zn323 O330 1.919 . S
Zn323 O335 1.924 . S
O324 Zn323 1.949 . S
O324 Zn325 1.923 . S
O324 Zn326 1.950 . S
O324 Zn327 1.945 . S
Zn325 O324 1.923 . S
Zn325 O328 1.933 . S
Zn325 O331 1.941 . S
Zn325 O332 1.965 . S
Zn326 O324 1.950 . S
Zn326 O333 1.938 . S
Zn326 O334 1.906 . S
Zn326 O344 1.953 . S
Zn327 O324 1.945 . S
Zn327 O329 1.932 . S
Zn327 O336 1.977 . S
Zn327 O337 1.910 . S
O328 Zn325 1.933 . S
O328 C339 1.226 . S
O329 Zn327 1.932 . S
O329 C339 1.307 . S
O330 Zn323 1.919 . S
O330 C341 1.253 . S
O331 Zn325 1.941 . S
O331 C341 1.283 . S
O332 Zn325 1.965 . S
O332 C340 1.303 . S
O333 Zn326 1.938 . S
O333 C340 1.247 . S
O334 Zn326 1.906 . S
O334 C342 1.304 . S
O335 Zn323 1.924 . S
O335 C343 1.311 . S
O336 Zn327 1.977 . S
O336 C342 1.272 . S
O337 Zn327 1.910 . S
O337 C343 1.231 . S
C338 O322 1.225 . S
C338 O344 1.298 . S
C339 O328 1.226 . S
C339 O329 1.307 . S
C340 O332 1.303 . S
C340 O333 1.247 . S
C341 O330 1.253 . S
C341 O331 1.283 . S
C342 O334 1.304 . S
C342 O336 1.272 . S
C343 O335 1.311 . S
C343 O337 1.231 . S
O344 Zn326 1.953 . S
O344 C338 1.298 . S
O345 Zn346 1.953 . S
O345 C361 1.225 . S
Zn346 O345 1.953 . S
Zn346 O347 1.949 . S
Zn346 O353 1.919 . S
Zn346 O358 1.924 . S
O347 Zn346 1.949 . S
O347 Zn348 1.923 . S
O347 Zn349 1.950 . S
O347 Zn350 1.945 . S
Zn348 O347 1.923 . S
Zn348 O351 1.933 . S
Zn348 O354 1.941 . S
Zn348 O355 1.965 . S
Zn349 O347 1.950 . S
Zn349 O356 1.938 . S
Zn349 O357 1.906 . S
Zn349 O367 1.953 . S
Zn350 O347 1.945 . S
Zn350 O352 1.932 . S
Zn350 O359 1.977 . S
Zn350 O360 1.910 . S
O351 Zn348 1.933 . S
O351 C362 1.226 . S
O352 Zn350 1.932 . S
O352 C362 1.307 . S
O353 Zn346 1.919 . S
O353 C364 1.253 . S
O354 Zn348 1.941 . S
O354 C364 1.283 . S
O355 Zn348 1.965 . S
O355 C363 1.303 . S
O356 Zn349 1.938 . S
O356 C363 1.247 . S
O357 Zn349 1.906 . S
O357 C365 1.304 . S
O358 Zn346 1.924 . S
O358 C366 1.311 . S
O359 Zn350 1.977 . S
O359 C365 1.272 . S
O360 Zn350 1.910 . S
O360 C366 1.231 . S
C361 O345 1.225 . S
C361 O367 1.298 . S
C362 O351 1.226 . S
C362 O352 1.307 . S
C363 O355 1.303 . S
C363 O356 1.247 . S
C364 O353 1.253 . S
C364 O354 1.283 . S
C365 O357 1.304 . S
C365 O359 1.272 . S
C366 O358 1.311 . S
C366 O360 1.231 . S
O367 Zn349 1.953 . S
O367 C361 1.298 . S
H368 C380 0.930 . S
H369 C382 0.930 . S
H370 C383 0.930 . S
H371 C387 0.959 . S
H372 C387 0.959 . S
H373 C387 0.961 . S
H374 C388 0.960 . S
H375 C388 0.961 . S
H376 C388 0.959 . S
H377 C391 0.929 . S
H378 C392 0.931 . S
H379 C394 0.930 . S
C380 H368 0.930 . S
C380 C381 1.399 . S
C380 C385 1.399 . S
C381 C380 1.399 . S
C381 C382 1.376 . S
C382 H369 0.930 . S
C382 C381 1.376 . S
C382 C383 1.388 . S
C383 H370 0.930 . S
C383 C382 1.388 . S
C383 C384 1.390 . S
C384 C383 1.390 . S
C384 C385 1.394 . S
C384 C390 1.465 . S
C385 C380 1.399 . S
C385 C384 1.394 . S
C385 C386 1.516 . S
C386 C385 1.516 . S
C386 C387 1.502 . S
C386 C388 1.561 . S
C386 C389 1.526 . S
C387 H371 0.959 . S
C387 H372 0.959 . S
C387 H373 0.961 . S
C387 C386 1.502 . S
C388 H374 0.960 . S
C388 H375 0.961 . S
C388 H376 0.959 . S
C388 C386 1.561 . S
C389 C386 1.526 . S
C389 C390 1.396 . S
C389 C394 1.390 . S
C390 C384 1.465 . S
C390 C389 1.396 . S
C390 C391 1.399 . S
C391 H377 0.929 . S
C391 C390 1.399 . S
C391 C392 1.385 . S
C392 H378 0.931 . S
C392 C391 1.385 . S
C392 C393 1.389 . S
C393 C392 1.389 . S
C393 C394 1.387 . S
C394 H379 0.930 . S
C394 C389 1.390 . S
C394 C393 1.387 . S
H395 C407 0.930 . S
H396 C409 0.930 . S
H397 C410 0.930 . S
H398 C414 0.959 . S
H399 C414 0.959 . S
H400 C414 0.961 . S
H401 C415 0.960 . S
H402 C415 0.961 . S
H403 C415 0.959 . S
H404 C418 0.929 . S
H405 C419 0.931 . S
H406 C421 0.930 . S
C407 H395 0.930 . S
C407 C408 1.399 . S
C407 C412 1.399 . S
C408 C407 1.399 . S
C408 C409 1.376 . S
C409 H396 0.930 . S
C409 C408 1.376 . S
C409 C410 1.388 . S
C410 H397 0.930 . S
C410 C409 1.388 . S
C410 C411 1.390 . S
C411 C410 1.390 . S
C411 C412 1.394 . S
C411 C417 1.465 . S
C412 C407 1.399 . S
C412 C411 1.394 . S
C412 C413 1.516 . S
C413 C412 1.516 . S
C413 C414 1.502 . S
C413 C415 1.561 . S
C413 C416 1.526 . S
C414 H398 0.959 . S
C414 H399 0.959 . S
C414 H400 0.961 . S
C414 C413 1.502 . S
C415 H401 0.960 . S
C415 H402 0.961 . S
C415 H403 0.959 . S
C415 C413 1.561 . S
C416 C413 1.526 . S
C416 C417 1.396 . S
C416 C421 1.390 . S
C417 C411 1.465 . S
C417 C416 1.396 . S
C417 C418 1.399 . S
C418 H404 0.929 . S
C418 C417 1.399 . S
C418 C419 1.385 . S
C419 H405 0.931 . S
C419 C418 1.385 . S
C419 C420 1.389 . S
C420 C419 1.389 . S
C420 C421 1.387 . S
C421 H406 0.930 . S
C421 C416 1.390 . S
C421 C420 1.387 . S
H422 C434 0.930 . S
H423 C436 0.930 . S
H424 C437 0.930 . S
H425 C441 0.959 . S
H426 C441 0.959 . S
H427 C441 0.961 . S
H428 C442 0.960 . S
H429 C442 0.961 . S
H430 C442 0.959 . S
H431 C445 0.929 . S
H432 C446 0.931 . S
H433 C448 0.930 . S
C434 H422 0.930 . S
C434 C435 1.399 . S
C434 C439 1.399 . S
C435 C434 1.399 . S
C435 C436 1.376 . S
C436 H423 0.930 . S
C436 C435 1.376 . S
C436 C437 1.388 . S
C437 H424 0.930 . S
C437 C436 1.388 . S
C437 C438 1.390 . S
C438 C437 1.390 . S
C438 C439 1.394 . S
C438 C444 1.465 . S
C439 C434 1.399 . S
C439 C438 1.394 . S
C439 C440 1.516 . S
C440 C439 1.516 . S
C440 C441 1.502 . S
C440 C442 1.561 . S
C440 C443 1.526 . S
C441 H425 0.959 . S
C441 H426 0.959 . S
C441 H427 0.961 . S
C441 C440 1.502 . S
C442 H428 0.960 . S
C442 H429 0.961 . S
C442 H430 0.959 . S
C442 C440 1.561 . S
C443 C440 1.526 . S
C443 C444 1.396 . S
C443 C448 1.390 . S
C444 C438 1.465 . S
C444 C443 1.396 . S
C444 C445 1.399 . S
C445 H431 0.929 . S
C445 C444 1.399 . S
C445 C446 1.385 . S
C446 H432 0.931 . S
C446 C445 1.385 . S
C446 C447 1.389 . S
C447 C446 1.389 . S
C447 C448 1.387 . S
C448 H433 0.930 . S
C448 C443 1.390 . S
C448 C447 1.387 . S
H449 C461 0.930 . S
H450 C463 0.930 . S
H451 C464 0.930 . S
H452 C468 0.959 . S
H453 C468 0.959 . S
H454 C468 0.961 . S
H455 C469 0.960 . S
H456 C469 0.961 . S
H457 C469 0.959 . S
H458 C472 0.929 . S
H459 C473 0.931 . S
H460 C475 0.930 . S
C461 H449 0.930 . S
C461 C462 1.399 . S
C461 C466 1.399 . S
C462 C461 1.399 . S
C462 C463 1.376 . S
C463 H450 0.930 . S
C463 C462 1.376 . S
C463 C464 1.388 . S
C464 H451 0.930 . S
C464 C463 1.388 . S
C464 C465 1.390 . S
C465 C464 1.390 . S
C465 C466 1.394 . S
C465 C471 1.465 . S
C466 C461 1.399 . S
C466 C465 1.394 . S
C466 C467 1.516 . S
C467 C466 1.516 . S
C467 C468 1.502 . S
C467 C469 1.561 . S
C467 C470 1.526 . S
C468 H452 0.959 . S
C468 H453 0.959 . S
C468 H454 0.961 . S
C468 C467 1.502 . S
C469 H455 0.960 . S
C469 H456 0.961 . S
C469 H457 0.959 . S
C469 C467 1.561 . S
C470 C467 1.526 . S
C470 C471 1.396 . S
C470 C475 1.390 . S
C471 C465 1.465 . S
C471 C470 1.396 . S
C471 C472 1.399 . S
C472 H458 0.929 . S
C472 C471 1.399 . S
C472 C473 1.385 . S
C473 H459 0.931 . S
C473 C472 1.385 . S
C473 C474 1.389 . S
C474 C473 1.389 . S
C474 C475 1.387 . S
C475 H460 0.930 . S
C475 C470 1.390 . S
C475 C474 1.387 . S
H476 C488 0.930 . S
H477 C490 0.930 . S
H478 C491 0.930 . S
H479 C495 0.959 . S
H480 C495 0.959 . S
H481 C495 0.961 . S
H482 C496 0.960 . S
H483 C496 0.961 . S
H484 C496 0.959 . S
H485 C499 0.929 . S
H486 C500 0.931 . S
H487 C502 0.930 . S
C488 H476 0.930 . S
C488 C489 1.399 . S
C488 C493 1.399 . S
C489 C488 1.399 . S
C489 C490 1.376 . S
C490 H477 0.930 . S
C490 C489 1.376 . S
C490 C491 1.388 . S
C491 H478 0.930 . S
C491 C490 1.388 . S
C491 C492 1.390 . S
C492 C491 1.390 . S
C492 C493 1.394 . S
C492 C498 1.465 . S
C493 C488 1.399 . S
C493 C492 1.394 . S
C493 C494 1.516 . S
C494 C493 1.516 . S
C494 C495 1.502 . S
C494 C496 1.561 . S
C494 C497 1.526 . S
C495 H479 0.959 . S
C495 H480 0.959 . S
C495 H481 0.961 . S
C495 C494 1.502 . S
C496 H482 0.960 . S
C496 H483 0.961 . S
C496 H484 0.959 . S
C496 C494 1.561 . S
C497 C494 1.526 . S
C497 C498 1.396 . S
C497 C502 1.390 . S
C498 C492 1.465 . S
C498 C497 1.396 . S
C498 C499 1.399 . S
C499 H485 0.929 . S
C499 C498 1.399 . S
C499 C500 1.385 . S
C500 H486 0.931 . S
C500 C499 1.385 . S
C500 C501 1.389 . S
C501 C500 1.389 . S
C501 C502 1.387 . S
C502 H487 0.930 . S
C502 C497 1.390 . S
C502 C501 1.387 . S
H503 C515 0.930 . S
H504 C517 0.930 . S
H505 C518 0.930 . S
H506 C522 0.959 . S
H507 C522 0.959 . S
H508 C522 0.961 . S
H509 C523 0.960 . S
H510 C523 0.961 . S
H511 C523 0.959 . S
H512 C526 0.929 . S
H513 C527 0.931 . S
H514 C529 0.930 . S
C515 H503 0.930 . S
C515 C516 1.399 . S
C515 C520 1.399 . S
C516 C515 1.399 . S
C516 C517 1.376 . S
C517 H504 0.930 . S
C517 C516 1.376 . S
C517 C518 1.388 . S
C518 H505 0.930 . S
C518 C517 1.388 . S
C518 C519 1.390 . S
C519 C518 1.390 . S
C519 C520 1.394 . S
C519 C525 1.465 . S
C520 C515 1.399 . S
C520 C519 1.394 . S
C520 C521 1.516 . S
C521 C520 1.516 . S
C521 C522 1.502 . S
C521 C523 1.561 . S
C521 C524 1.526 . S
C522 H506 0.959 . S
C522 H507 0.959 . S
C522 H508 0.961 . S
C522 C521 1.502 . S
C523 H509 0.960 . S
C523 H510 0.961 . S
C523 H511 0.959 . S
C523 C521 1.561 . S
C524 C521 1.526 . S
C524 C525 1.396 . S
C524 C529 1.390 . S
C525 C519 1.465 . S
C525 C524 1.396 . S
C525 C526 1.399 . S
C526 H512 0.929 . S
C526 C525 1.399 . S
C526 C527 1.385 . S
C527 H513 0.931 . S
C527 C526 1.385 . S
C527 C528 1.389 . S
C528 C527 1.389 . S
C528 C529 1.387 . S
C529 H514 0.930 . S
C529 C524 1.390 . S
C529 C528 1.387 . S
H530 C542 0.930 . S
H531 C544 0.930 . S
H532 C545 0.930 . S
H533 C549 0.959 . S
H534 C549 0.959 . S
H535 C549 0.961 . S
H536 C550 0.960 . S
H537 C550 0.961 . S
H538 C550 0.959 . S
H539 C553 0.929 . S
H540 C554 0.931 . S
H541 C556 0.930 . S
C542 H530 0.930 . S
C542 C543 1.399 . S
C542 C547 1.399 . S
C543 C542 1.399 . S
C543 C544 1.376 . S
C544 H531 0.930 . S
C544 C543 1.376 . S
C544 C545 1.388 . S
C545 H532 0.930 . S
C545 C544 1.388 . S
C545 C546 1.390 . S
C546 C545 1.390 . S
C546 C547 1.394 . S
C546 C552 1.465 . S
C547 C542 1.399 . S
C547 C546 1.394 . S
C547 C548 1.516 . S
C548 C547 1.516 . S
C548 C549 1.502 . S
C548 C550 1.561 . S
C548 C551 1.526 . S
C549 H533 0.959 . S
C549 H534 0.959 . S
C549 H535 0.961 . S
C549 C548 1.502 . S
C550 H536 0.960 . S
C550 H537 0.961 . S
C550 H538 0.959 . S
C550 C548 1.561 . S
C551 C548 1.526 . S
C551 C552 1.396 . S
C551 C556 1.390 . S
C552 C546 1.465 . S
C552 C551 1.396 . S
C552 C553 1.399 . S
C553 H539 0.929 . S
C553 C552 1.399 . S
C553 C554 1.385 . S
C554 H540 0.931 . S
C554 C553 1.385 . S
C554 C555 1.389 . S
C555 C554 1.389 . S
C555 C556 1.387 . S
C556 H541 0.930 . S
C556 C551 1.390 . S
C556 C555 1.387 . S
H557 C569 0.930 . S
H558 C571 0.930 . S
H559 C572 0.930 . S
H560 C576 0.959 . S
H561 C576 0.959 . S
H562 C576 0.961 . S
H563 C577 0.960 . S
H564 C577 0.961 . S
H565 C577 0.959 . S
H566 C580 0.929 . S
H567 C581 0.931 . S
H568 C583 0.930 . S
C569 H557 0.930 . S
C569 C570 1.399 . S
C569 C574 1.399 . S
C570 C569 1.399 . S
C570 C571 1.376 . S
C571 H558 0.930 . S
C571 C570 1.376 . S
C571 C572 1.388 . S
C572 H559 0.930 . S
C572 C571 1.388 . S
C572 C573 1.390 . S
C573 C572 1.390 . S
C573 C574 1.394 . S
C573 C579 1.465 . S
C574 C569 1.399 . S
C574 C573 1.394 . S
C574 C575 1.516 . S
C575 C574 1.516 . S
C575 C576 1.502 . S
C575 C577 1.561 . S
C575 C578 1.526 . S
C576 H560 0.959 . S
C576 H561 0.959 . S
C576 H562 0.961 . S
C576 C575 1.502 . S
C577 H563 0.960 . S
C577 H564 0.961 . S
C577 H565 0.959 . S
C577 C575 1.561 . S
C578 C575 1.526 . S
C578 C579 1.396 . S
C578 C583 1.390 . S
C579 C573 1.465 . S
C579 C578 1.396 . S
C579 C580 1.399 . S
C580 H566 0.929 . S
C580 C579 1.399 . S
C580 C581 1.385 . S
C581 H567 0.931 . S
C581 C580 1.385 . S
C581 C582 1.389 . S
C582 C581 1.389 . S
C582 C583 1.387 . S
C583 H568 0.930 . S
C583 C578 1.390 . S
C583 C582 1.387 . S
H584 C596 0.930 . S
H585 C598 0.930 . S
H586 C599 0.930 . S
H587 C603 0.959 . S
H588 C603 0.959 . S
H589 C603 0.961 . S
H590 C604 0.960 . S
H591 C604 0.961 . S
H592 C604 0.959 . S
H593 C607 0.929 . S
H594 C608 0.931 . S
H595 C610 0.930 . S
C596 H584 0.930 . S
C596 C597 1.399 . S
C596 C601 1.399 . S
C597 C596 1.399 . S
C597 C598 1.376 . S
C598 H585 0.930 . S
C598 C597 1.376 . S
C598 C599 1.388 . S
C599 H586 0.930 . S
C599 C598 1.388 . S
C599 C600 1.390 . S
C600 C599 1.390 . S
C600 C601 1.394 . S
C600 C606 1.465 . S
C601 C596 1.399 . S
C601 C600 1.394 . S
C601 C602 1.516 . S
C602 C601 1.516 . S
C602 C603 1.502 . S
C602 C604 1.561 . S
C602 C605 1.526 . S
C603 H587 0.959 . S
C603 H588 0.959 . S
C603 H589 0.961 . S
C603 C602 1.502 . S
C604 H590 0.960 . S
C604 H591 0.961 . S
C604 H592 0.959 . S
C604 C602 1.561 . S
C605 C602 1.526 . S
C605 C606 1.396 . S
C605 C610 1.390 . S
C606 C600 1.465 . S
C606 C605 1.396 . S
C606 C607 1.399 . S
C607 H593 0.929 . S
C607 C606 1.399 . S
C607 C608 1.385 . S
C608 H594 0.931 . S
C608 C607 1.385 . S
C608 C609 1.389 . S
C609 C608 1.389 . S
C609 C610 1.387 . S
C610 H595 0.930 . S
C610 C605 1.390 . S
C610 C609 1.387 . S
H611 C623 0.930 . S
H612 C625 0.930 . S
H613 C626 0.930 . S
H614 C630 0.959 . S
H615 C630 0.959 . S
H616 C630 0.961 . S
H617 C631 0.960 . S
H618 C631 0.961 . S
H619 C631 0.959 . S
H620 C634 0.929 . S
H621 C635 0.931 . S
H622 C637 0.930 . S
C623 H611 0.930 . S
C623 C624 1.399 . S
C623 C628 1.399 . S
C624 C623 1.399 . S
C624 C625 1.376 . S
C625 H612 0.930 . S
C625 C624 1.376 . S
C625 C626 1.388 . S
C626 H613 0.930 . S
C626 C625 1.388 . S
C626 C627 1.390 . S
C627 C626 1.390 . S
C627 C628 1.394 . S
C627 C633 1.465 . S
C628 C623 1.399 . S
C628 C627 1.394 . S
C628 C629 1.516 . S
C629 C628 1.516 . S
C629 C630 1.502 . S
C629 C631 1.561 . S
C629 C632 1.526 . S
C630 H614 0.959 . S
C630 H615 0.959 . S
C630 H616 0.961 . S
C630 C629 1.502 . S
C631 H617 0.960 . S
C631 H618 0.961 . S
C631 H619 0.959 . S
C631 C629 1.561 . S
C632 C629 1.526 . S
C632 C633 1.396 . S
C632 C637 1.390 . S
C633 C627 1.465 . S
C633 C632 1.396 . S
C633 C634 1.399 . S
C634 H620 0.929 . S
C634 C633 1.399 . S
C634 C635 1.385 . S
C635 H621 0.931 . S
C635 C634 1.385 . S
C635 C636 1.389 . S
C636 C635 1.389 . S
C636 C637 1.387 . S
C637 H622 0.930 . S
C637 C632 1.390 . S
C637 C636 1.387 . S
H638 C650 0.930 . S
H639 C652 0.930 . S
H640 C653 0.930 . S
H641 C657 0.959 . S
H642 C657 0.959 . S
H643 C657 0.961 . S
H644 C658 0.960 . S
H645 C658 0.961 . S
H646 C658 0.959 . S
H647 C661 0.929 . S
H648 C662 0.931 . S
H649 C664 0.930 . S
C650 H638 0.930 . S
C650 C651 1.399 . S
C650 C655 1.399 . S
C651 C650 1.399 . S
C651 C652 1.376 . S
C652 H639 0.930 . S
C652 C651 1.376 . S
C652 C653 1.388 . S
C653 H640 0.930 . S
C653 C652 1.388 . S
C653 C654 1.390 . S
C654 C653 1.390 . S
C654 C655 1.394 . S
C654 C660 1.465 . S
C655 C650 1.399 . S
C655 C654 1.394 . S
C655 C656 1.516 . S
C656 C655 1.516 . S
C656 C657 1.502 . S
C656 C658 1.561 . S
C656 C659 1.526 . S
C657 H641 0.959 . S
C657 H642 0.959 . S
C657 H643 0.961 . S
C657 C656 1.502 . S
C658 H644 0.960 . S
C658 H645 0.961 . S
C658 H646 0.959 . S
C658 C656 1.561 . S
C659 C656 1.526 . S
C659 C660 1.396 . S
C659 C664 1.390 . S
C660 C654 1.465 . S
C660 C659 1.396 . S
C660 C661 1.399 . S
C661 H647 0.929 . S
C661 C660 1.399 . S
C661 C662 1.385 . S
C662 H648 0.931 . S
C662 C661 1.385 . S
C662 C663 1.389 . S
C663 C662 1.389 . S
C663 C664 1.387 . S
C664 H649 0.930 . S
C664 C659 1.390 . S
C664 C663 1.387 . S
H665 C677 0.930 . S
H666 C679 0.930 . S
H667 C680 0.930 . S
H668 C684 0.959 . S
H669 C684 0.959 . S
H670 C684 0.961 . S
H671 C685 0.960 . S
H672 C685 0.961 . S
H673 C685 0.959 . S
H674 C688 0.929 . S
H675 C689 0.931 . S
H676 C691 0.930 . S
C677 H665 0.930 . S
C677 C678 1.399 . S
C677 C682 1.399 . S
C678 C677 1.399 . S
C678 C679 1.376 . S
C679 H666 0.930 . S
C679 C678 1.376 . S
C679 C680 1.388 . S
C680 H667 0.930 . S
C680 C679 1.388 . S
C680 C681 1.390 . S
C681 C680 1.390 . S
C681 C682 1.394 . S
C681 C687 1.465 . S
C682 C677 1.399 . S
C682 C681 1.394 . S
C682 C683 1.516 . S
C683 C682 1.516 . S
C683 C684 1.502 . S
C683 C685 1.561 . S
C683 C686 1.526 . S
C684 H668 0.959 . S
C684 H669 0.959 . S
C684 H670 0.961 . S
C684 C683 1.502 . S
C685 H671 0.960 . S
C685 H672 0.961 . S
C685 H673 0.959 . S
C685 C683 1.561 . S
C686 C683 1.526 . S
C686 C687 1.396 . S
C686 C691 1.390 . S
C687 C681 1.465 . S
C687 C686 1.396 . S
C687 C688 1.399 . S
C688 H674 0.929 . S
C688 C687 1.399 . S
C688 C689 1.385 . S
C689 H675 0.931 . S
C689 C688 1.385 . S
C689 C690 1.389 . S
C690 C689 1.389 . S
C690 C691 1.387 . S
C691 H676 0.930 . S
C691 C686 1.390 . S
C691 C690 1.387 . S
H692 C704 0.930 . S
H693 C706 0.930 . S
H694 C707 0.930 . S
H695 C711 0.959 . S
H696 C711 0.959 1_545 S
H697 C711 0.961 . S
H698 C712 0.960 . S
H699 C712 0.961 . S
H700 C712 0.959 . S
H701 C715 0.929 . S
H702 C716 0.931 . S
H703 C718 0.930 1_545 S
C704 H692 0.930 . S
C704 C705 1.399 . S
C704 C709 1.399 . S
C705 C704 1.399 . S
C705 C706 1.376 . S
C706 H693 0.930 . S
C706 C705 1.376 . S
C706 C707 1.388 . S
C707 H694 0.930 . S
C707 C706 1.388 . S
C707 C708 1.390 . S
C708 C707 1.390 . S
C708 C709 1.394 . S
C708 C714 1.465 . S
C709 C704 1.399 . S
C709 C708 1.394 . S
C709 C710 1.516 . S
C710 C709 1.516 . S
C710 C711 1.502 . S
C710 C712 1.561 . S
C710 C713 1.526 . S
C711 H695 0.959 . S
C711 H696 0.959 1_565 S
C711 H697 0.961 . S
C711 C710 1.502 . S
C712 H698 0.960 . S
C712 H699 0.961 . S
C712 H700 0.959 . S
C712 C710 1.561 . S
C713 C710 1.526 . S
C713 C714 1.396 . S
C713 C718 1.390 . S
C714 C708 1.465 . S
C714 C713 1.396 . S
C714 C715 1.399 . S
C715 H701 0.929 . S
C715 C714 1.399 . S
C715 C716 1.385 . S
C716 H702 0.931 . S
C716 C715 1.385 . S
C716 C717 1.389 . S
C717 C716 1.389 . S
C717 C718 1.387 . S
C718 H703 0.930 1_565 S
C718 C713 1.390 . S
C718 C717 1.387 . S
H719 C731 0.930 . S
H720 C733 0.930 . S
H721 C734 0.930 . S
H722 C738 0.959 . S
H723 C738 0.959 . S
H724 C738 0.961 . S
H725 C739 0.960 . S
H726 C739 0.961 . S
H727 C739 0.959 . S
H728 C742 0.929 . S
H729 C743 0.931 . S
H730 C745 0.930 . S
C731 H719 0.930 . S
C731 C732 1.399 . S
C731 C736 1.399 . S
C732 C731 1.399 . S
C732 C733 1.376 . S
C733 H720 0.930 . S
C733 C732 1.376 . S
C733 C734 1.388 . S
C734 H721 0.930 . S
C734 C733 1.388 . S
C734 C735 1.390 . S
C735 C734 1.390 . S
C735 C736 1.394 . S
C735 C741 1.465 . S
C736 C731 1.399 . S
C736 C735 1.394 . S
C736 C737 1.516 . S
C737 C736 1.516 . S
C737 C738 1.502 . S
C737 C739 1.561 . S
C737 C740 1.526 . S
C738 H722 0.959 . S
C738 H723 0.959 . S
C738 H724 0.961 . S
C738 C737 1.502 . S
C739 H725 0.960 . S
C739 H726 0.961 . S
C739 H727 0.959 . S
C739 C737 1.561 . S
C740 C737 1.526 . S
C740 C741 1.396 . S
C740 C745 1.390 . S
C741 C735 1.465 . S
C741 C740 1.396 . S
C741 C742 1.399 . S
C742 H728 0.929 . S
C742 C741 1.399 . S
C742 C743 1.385 . S
C743 H729 0.931 . S
C743 C742 1.385 . S
C743 C744 1.389 . S
C744 C743 1.389 . S
C744 C745 1.387 . S
C745 H730 0.930 . S
C745 C740 1.390 . S
C745 C744 1.387 . S
H746 C758 0.930 . S
H747 C760 0.930 . S
H748 C761 0.930 . S
H749 C765 0.959 . S
H750 C765 0.959 . S
H751 C765 0.961 . S
H752 C766 0.960 . S
H753 C766 0.961 . S
H754 C766 0.959 . S
H755 C769 0.929 . S
H756 C770 0.931 . S
H757 C772 0.930 . S
C758 H746 0.930 . S
C758 C759 1.399 . S
C758 C763 1.399 . S
C759 C758 1.399 . S
C759 C760 1.376 . S
C760 H747 0.930 . S
C760 C759 1.376 . S
C760 C761 1.388 . S
C761 H748 0.930 . S
C761 C760 1.388 . S
C761 C762 1.390 . S
C762 C761 1.390 . S
C762 C763 1.394 . S
C762 C768 1.465 . S
C763 C758 1.399 . S
C763 C762 1.394 . S
C763 C764 1.516 . S
C764 C763 1.516 . S
C764 C765 1.502 . S
C764 C766 1.561 . S
C764 C767 1.526 . S
C765 H749 0.959 . S
C765 H750 0.959 . S
C765 H751 0.961 . S
C765 C764 1.502 . S
C766 H752 0.960 . S
C766 H753 0.961 . S
C766 H754 0.959 . S
C766 C764 1.561 . S
C767 C764 1.526 . S
C767 C768 1.396 . S
C767 C772 1.390 . S
C768 C762 1.465 . S
C768 C767 1.396 . S
C768 C769 1.399 . S
C769 H755 0.929 . S
C769 C768 1.399 . S
C769 C770 1.385 . S
C770 H756 0.931 . S
C770 C769 1.385 . S
C770 C771 1.389 . S
C771 C770 1.389 . S
C771 C772 1.387 . S
C772 H757 0.930 . S
C772 C767 1.390 . S
C772 C771 1.387 . S
H773 C785 0.930 . S
H774 C787 0.930 . S
H775 C788 0.930 . S
H776 C792 0.959 . S
H777 C792 0.959 . S
H778 C792 0.961 . S
H779 C793 0.960 . S
H780 C793 0.961 . S
H781 C793 0.959 . S
H782 C796 0.929 . S
H783 C797 0.931 . S
H784 C799 0.930 . S
C785 H773 0.930 . S
C785 C786 1.399 . S
C785 C790 1.399 . S
C786 C785 1.399 . S
C786 C787 1.376 . S
C787 H774 0.930 . S
C787 C786 1.376 . S
C787 C788 1.388 . S
C788 H775 0.930 . S
C788 C787 1.388 . S
C788 C789 1.390 . S
C789 C788 1.390 . S
C789 C790 1.394 . S
C789 C795 1.465 . S
C790 C785 1.399 . S
C790 C789 1.394 . S
C790 C791 1.516 . S
C791 C790 1.516 . S
C791 C792 1.502 . S
C791 C793 1.561 . S
C791 C794 1.526 . S
C792 H776 0.959 . S
C792 H777 0.959 . S
C792 H778 0.961 . S
C792 C791 1.502 . S
C793 H779 0.960 . S
C793 H780 0.961 . S
C793 H781 0.959 . S
C793 C791 1.561 . S
C794 C791 1.526 . S
C794 C795 1.396 . S
C794 C799 1.390 . S
C795 C789 1.465 . S
C795 C794 1.396 . S
C795 C796 1.399 . S
C796 H782 0.929 . S
C796 C795 1.399 . S
C796 C797 1.385 . S
C797 H783 0.931 . S
C797 C796 1.385 . S
C797 C798 1.389 . S
C798 C797 1.389 . S
C798 C799 1.387 . S
C799 H784 0.930 . S
C799 C794 1.390 . S
C799 C798 1.387 . S
H800 C812 0.930 1_545 S
H801 C814 0.930 . S
H802 C815 0.930 . S
H803 C819 0.959 . S
H804 C819 0.959 . S
H805 C819 0.961 . S
H806 C820 0.960 . S
H807 C820 0.961 . S
H808 C820 0.958 1_565 S
H809 C823 0.929 . S
H810 C824 0.931 . S
H811 C826 0.930 . S
C812 H800 0.930 1_565 S
C812 C813 1.399 . S
C812 C817 1.399 . S
C813 C812 1.399 . S
C813 C814 1.376 . S
C814 H801 0.930 . S
C814 C813 1.376 . S
C814 C815 1.388 . S
C815 H802 0.930 . S
C815 C814 1.388 . S
C815 C816 1.390 . S
C816 C815 1.390 . S
C816 C817 1.394 . S
C816 C822 1.465 . S
C817 C812 1.399 . S
C817 C816 1.394 . S
C817 C818 1.516 . S
C818 C817 1.516 . S
C818 C819 1.502 . S
C818 C820 1.561 1_565 S
C818 C821 1.526 . S
C819 H803 0.959 . S
C819 H804 0.959 . S
C819 H805 0.961 . S
C819 C818 1.502 . S
C820 H806 0.960 . S
C820 H807 0.961 . S
C820 H808 0.958 1_545 S
C820 C818 1.561 1_545 S
C821 C818 1.526 . S
C821 C822 1.396 . S
C821 C826 1.390 . S
C822 C816 1.465 . S
C822 C821 1.396 . S
C822 C823 1.399 . S
C823 H809 0.929 . S
C823 C822 1.399 . S
C823 C824 1.385 . S
C824 H810 0.931 . S
C824 C823 1.385 . S
C824 C825 1.389 . S
C825 C824 1.389 . S
C825 C826 1.387 . S
C826 H811 0.930 . S
C826 C821 1.390 . S
C826 C825 1.387 . S
H827 C839 0.930 . S
H828 C841 0.930 . S
H829 C842 0.930 . S
H830 C846 0.959 . S
H831 C846 0.959 . S
H832 C846 0.961 . S
H833 C847 0.960 . S
H834 C847 0.961 . S
H835 C847 0.959 . S
H836 C850 0.929 . S
H837 C851 0.931 . S
H838 C853 0.930 . S
C839 H827 0.930 . S
C839 C840 1.399 . S
C839 C844 1.399 . S
C840 C839 1.399 . S
C840 C841 1.376 . S
C841 H828 0.930 . S
C841 C840 1.376 . S
C841 C842 1.388 . S
C842 H829 0.930 . S
C842 C841 1.388 . S
C842 C843 1.390 . S
C843 C842 1.390 . S
C843 C844 1.394 . S
C843 C849 1.465 . S
C844 C839 1.399 . S
C844 C843 1.394 . S
C844 C845 1.516 . S
C845 C844 1.516 . S
C845 C846 1.502 . S
C845 C847 1.561 . S
C845 C848 1.526 . S
C846 H830 0.959 . S
C846 H831 0.959 . S
C846 H832 0.961 . S
C846 C845 1.502 . S
C847 H833 0.960 . S
C847 H834 0.961 . S
C847 H835 0.959 . S
C847 C845 1.561 . S
C848 C845 1.526 . S
C848 C849 1.396 . S
C848 C853 1.390 . S
C849 C843 1.465 . S
C849 C848 1.396 . S
C849 C850 1.399 . S
C850 H836 0.929 . S
C850 C849 1.399 . S
C850 C851 1.385 . S
C851 H837 0.931 . S
C851 C850 1.385 . S
C851 C852 1.389 . S
C852 C851 1.389 . S
C852 C853 1.387 . S
C853 H838 0.930 . S
C853 C848 1.390 . S
C853 C852 1.387 . S
H854 C866 0.930 . S
H855 C868 0.930 . S
H856 C869 0.930 . S
H857 C873 0.959 . S
H858 C873 0.959 . S
H859 C873 0.961 . S
H860 C874 0.960 . S
H861 C874 0.961 . S
H862 C874 0.959 . S
H863 C877 0.929 . S
H864 C878 0.931 . S
H865 C880 0.930 . S
C866 H854 0.930 . S
C866 C867 1.399 . S
C866 C871 1.399 . S
C867 C866 1.399 . S
C867 C868 1.376 . S
C868 H855 0.930 . S
C868 C867 1.376 . S
C868 C869 1.388 . S
C869 H856 0.930 . S
C869 C868 1.388 . S
C869 C870 1.390 . S
C870 C869 1.390 . S
C870 C871 1.394 . S
C870 C876 1.465 . S
C871 C866 1.399 . S
C871 C870 1.394 . S
C871 C872 1.516 . S
C872 C871 1.516 . S
C872 C873 1.502 . S
C872 C874 1.561 . S
C872 C875 1.526 . S
C873 H857 0.959 . S
C873 H858 0.959 . S
C873 H859 0.961 . S
C873 C872 1.502 . S
C874 H860 0.960 . S
C874 H861 0.961 . S
C874 H862 0.959 . S
C874 C872 1.561 . S
C875 C872 1.526 . S
C875 C876 1.396 . S
C875 C880 1.390 . S
C876 C870 1.465 . S
C876 C875 1.396 . S
C876 C877 1.399 . S
C877 H863 0.929 . S
C877 C876 1.399 . S
C877 C878 1.385 . S
C878 H864 0.931 . S
C878 C877 1.385 . S
C878 C879 1.389 . S
C879 C878 1.389 . S
C879 C880 1.387 . S
C880 H865 0.930 . S
C880 C875 1.390 . S
C880 C879 1.387 . S
H881 C893 0.930 . S
H882 C895 0.930 . S
H883 C896 0.930 . S
H884 C900 0.959 . S
H885 C900 0.959 . S
H886 C900 0.961 . S
H887 C901 0.960 . S
H888 C901 0.961 . S
H889 C901 0.959 . S
H890 C904 0.929 1_455 S
H891 C905 0.931 . S
H892 C907 0.930 . S
C893 H881 0.930 . S
C893 C894 1.399 . S
C893 C898 1.399 . S
C894 C893 1.399 . S
C894 C895 1.376 . S
C895 H882 0.930 . S
C895 C894 1.376 . S
C895 C896 1.388 . S
C896 H883 0.930 . S
C896 C895 1.388 . S
C896 C897 1.390 . S
C897 C896 1.390 . S
C897 C898 1.394 . S
C897 C903 1.465 . S
C898 C893 1.399 . S
C898 C897 1.394 . S
C898 C899 1.516 . S
C899 C898 1.516 . S
C899 C900 1.502 . S
C899 C901 1.561 . S
C899 C902 1.526 . S
C900 H884 0.959 . S
C900 H885 0.959 . S
C900 H886 0.961 . S
C900 C899 1.502 . S
C901 H887 0.960 . S
C901 H888 0.961 . S
C901 H889 0.959 . S
C901 C899 1.561 . S
C902 C899 1.526 . S
C902 C903 1.396 . S
C902 C907 1.390 . S
C903 C897 1.465 . S
C903 C902 1.396 . S
C903 C904 1.399 . S
C904 H890 0.929 1_655 S
C904 C903 1.399 . S
C904 C905 1.385 1_655 S
C905 H891 0.931 . S
C905 C904 1.385 1_455 S
C905 C906 1.389 1_455 S
C906 C905 1.389 1_655 S
C906 C907 1.387 . S
C907 H892 0.930 . S
C907 C902 1.390 . S
C907 C906 1.387 . S
H908 C920 0.930 . S
H909 C922 0.930 . S
H910 C923 0.930 . S
H911 C927 0.959 . S
H912 C927 0.959 . S
H913 C927 0.961 . S
H914 C928 0.960 . S
H915 C928 0.961 . S
H916 C928 0.959 . S
H917 C931 0.929 . S
H918 C932 0.931 1_565 S
H919 C934 0.930 . S
C920 H908 0.930 . S
C920 C921 1.399 . S
C920 C925 1.399 . S
C921 C920 1.399 . S
C921 C922 1.376 . S
C922 H909 0.930 . S
C922 C921 1.376 . S
C922 C923 1.388 . S
C923 H910 0.930 . S
C923 C922 1.388 . S
C923 C924 1.390 . S
C924 C923 1.390 . S
C924 C925 1.394 . S
C924 C930 1.465 . S
C925 C920 1.399 . S
C925 C924 1.394 . S
C925 C926 1.516 . S
C926 C925 1.516 . S
C926 C927 1.502 . S
C926 C928 1.561 . S
C926 C929 1.526 . S
C927 H911 0.959 . S
C927 H912 0.959 . S
C927 H913 0.961 . S
C927 C926 1.502 . S
C928 H914 0.960 . S
C928 H915 0.961 . S
C928 H916 0.959 . S
C928 C926 1.561 . S
C929 C926 1.526 . S
C929 C930 1.396 . S
C929 C934 1.390 . S
C930 C924 1.465 . S
C930 C929 1.396 . S
C930 C931 1.399 . S
C931 H917 0.929 . S
C931 C930 1.399 . S
C931 C932 1.385 . S
C932 H918 0.931 1_545 S
C932 C931 1.385 . S
C932 C933 1.389 . S
C933 C932 1.389 . S
C933 C934 1.387 . S
C934 H919 0.930 . S
C934 C929 1.390 . S
C934 C933 1.387 . S
H935 C947 0.930 . S
H936 C949 0.930 . S
H937 C950 0.930 . S
H938 C954 0.959 . S
H939 C954 0.959 . S
H940 C954 0.961 . S
H941 C955 0.960 . S
H942 C955 0.961 . S
H943 C955 0.959 . S
H944 C958 0.929 . S
H945 C959 0.931 . S
H946 C961 0.930 . S
C947 H935 0.930 . S
C947 C948 1.399 . S
C947 C952 1.399 . S
C948 C947 1.399 . S
C948 C949 1.376 . S
C949 H936 0.930 . S
C949 C948 1.376 . S
C949 C950 1.388 . S
C950 H937 0.930 . S
C950 C949 1.388 . S
C950 C951 1.390 . S
C951 C950 1.390 . S
C951 C952 1.394 . S
C951 C957 1.465 . S
C952 C947 1.399 . S
C952 C951 1.394 . S
C952 C953 1.516 . S
C953 C952 1.516 . S
C953 C954 1.502 . S
C953 C955 1.561 . S
C953 C956 1.526 . S
C954 H938 0.959 . S
C954 H939 0.959 . S
C954 H940 0.961 . S
C954 C953 1.502 . S
C955 H941 0.960 . S
C955 H942 0.961 . S
C955 H943 0.959 . S
C955 C953 1.561 . S
C956 C953 1.526 . S
C956 C957 1.396 . S
C956 C961 1.390 . S
C957 C951 1.465 . S
C957 C956 1.396 . S
C957 C958 1.399 . S
C958 H944 0.929 . S
C958 C957 1.399 . S
C958 C959 1.385 . S
C959 H945 0.931 . S
C959 C958 1.385 . S
C959 C960 1.389 . S
C960 C959 1.389 . S
C960 C961 1.387 . S
C961 H946 0.930 . S
C961 C956 1.390 . S
C961 C960 1.387 . S
H962 C974 0.930 . S
H963 C976 0.930 . S
H964 C977 0.930 . S
H965 C981 0.959 . S
H966 C981 0.959 . S
H967 C981 0.961 . S
H968 C982 0.960 . S
H969 C982 0.961 . S
H970 C982 0.959 . S
H971 C985 0.929 . S
H972 C986 0.931 . S
H973 C988 0.930 . S
C974 H962 0.930 . S
C974 C975 1.399 . S
C974 C979 1.399 . S
C975 C974 1.399 . S
C975 C976 1.376 . S
C976 H963 0.930 . S
C976 C975 1.376 . S
C976 C977 1.388 . S
C977 H964 0.930 . S
C977 C976 1.388 . S
C977 C978 1.390 . S
C978 C977 1.390 . S
C978 C979 1.394 . S
C978 C984 1.465 . S
C979 C974 1.399 . S
C979 C978 1.394 . S
C979 C980 1.516 . S
C980 C979 1.516 . S
C980 C981 1.502 . S
C980 C982 1.561 . S
C980 C983 1.526 . S
C981 H965 0.959 . S
C981 H966 0.959 . S
C981 H967 0.961 . S
C981 C980 1.502 . S
C982 H968 0.960 . S
C982 H969 0.961 . S
C982 H970 0.959 . S
C982 C980 1.561 . S
C983 C980 1.526 . S
C983 C984 1.396 . S
C983 C988 1.390 . S
C984 C978 1.465 . S
C984 C983 1.396 . S
C984 C985 1.399 . S
C985 H971 0.929 . S
C985 C984 1.399 . S
C985 C986 1.385 . S
C986 H972 0.931 . S
C986 C985 1.385 . S
C986 C987 1.389 . S
C987 C986 1.389 . S
C987 C988 1.387 . S
C988 H973 0.930 . S
C988 C983 1.390 . S
C988 C987 1.387 . S
H989 C1001 0.930 . S
H990 C1003 0.930 . S
H991 C1004 0.930 . S
H992 C1008 0.959 . S
H993 C1008 0.959 . S
H994 C1008 0.961 . S
H995 C1009 0.960 . S
H996 C1009 0.961 . S
H997 C1009 0.959 . S
H998 C1012 0.929 . S
H999 C1013 0.931 1_655 S
H1000 C1015 0.930 . S
C1001 H989 0.930 . S
C1001 C1002 1.399 . S
C1001 C1006 1.399 . S
C1002 C1001 1.399 . S
C1002 C1003 1.376 . S
C1003 H990 0.930 . S
C1003 C1002 1.376 . S
C1003 C1004 1.388 . S
C1004 H991 0.930 . S
C1004 C1003 1.388 . S
C1004 C1005 1.390 . S
C1005 C1004 1.390 . S
C1005 C1006 1.394 . S
C1005 C1011 1.465 . S
C1006 C1001 1.399 . S
C1006 C1005 1.394 . S
C1006 C1007 1.516 . S
C1007 C1006 1.516 . S
C1007 C1008 1.502 . S
C1007 C1009 1.561 . S
C1007 C1010 1.526 . S
C1008 H992 0.959 . S
C1008 H993 0.959 . S
C1008 H994 0.961 . S
C1008 C1007 1.502 . S
C1009 H995 0.960 . S
C1009 H996 0.961 . S
C1009 H997 0.959 . S
C1009 C1007 1.561 . S
C1010 C1007 1.526 . S
C1010 C1011 1.396 . S
C1010 C1015 1.390 . S
C1011 C1005 1.465 . S
C1011 C1010 1.396 . S
C1011 C1012 1.399 . S
C1012 H998 0.929 . S
C1012 C1011 1.399 . S
C1012 C1013 1.385 . S
C1013 H999 0.931 1_455 S
C1013 C1012 1.385 . S
C1013 C1014 1.389 . S
C1014 C1013 1.389 . S
C1014 C1015 1.387 . S
C1015 H1000 0.930 . S
C1015 C1010 1.390 . S
C1015 C1014 1.387 . S
H1016 C1028 0.930 . S
H1017 C1030 0.930 . S
H1018 C1031 0.930 . S
H1019 C1035 0.959 . S
H1020 C1035 0.959 . S
H1021 C1035 0.961 . S
H1022 C1036 0.960 . S
H1023 C1036 0.961 . S
H1024 C1036 0.959 . S
H1025 C1039 0.929 . S
H1026 C1040 0.931 . S
H1027 C1042 0.930 . S
C1028 H1016 0.930 . S
C1028 C1029 1.399 . S
C1028 C1033 1.399 . S
C1029 C1028 1.399 . S
C1029 C1030 1.376 . S
C1030 H1017 0.930 . S
C1030 C1029 1.376 . S
C1030 C1031 1.388 . S
C1031 H1018 0.930 . S
C1031 C1030 1.388 . S
C1031 C1032 1.390 . S
C1032 C1031 1.390 . S
C1032 C1033 1.394 . S
C1032 C1038 1.465 . S
C1033 C1028 1.399 . S
C1033 C1032 1.394 . S
C1033 C1034 1.516 . S
C1034 C1033 1.516 . S
C1034 C1035 1.502 . S
C1034 C1036 1.561 . S
C1034 C1037 1.526 . S
C1035 H1019 0.959 . S
C1035 H1020 0.959 . S
C1035 H1021 0.961 . S
C1035 C1034 1.502 . S
C1036 H1022 0.960 . S
C1036 H1023 0.961 . S
C1036 H1024 0.959 . S
C1036 C1034 1.561 . S
C1037 C1034 1.526 . S
C1037 C1038 1.396 . S
C1037 C1042 1.390 . S
C1038 C1032 1.465 . S
C1038 C1037 1.396 . S
C1038 C1039 1.399 . S
C1039 H1025 0.929 . S
C1039 C1038 1.399 . S
C1039 C1040 1.385 . S
C1040 H1026 0.931 . S
C1040 C1039 1.385 . S
C1040 C1041 1.389 . S
C1041 C1040 1.389 . S
C1041 C1042 1.387 . S
C1042 H1027 0.930 . S
C1042 C1037 1.390 . S
C1042 C1041 1.387 . S
H1043 C1055 0.930 . S
H1044 C1057 0.930 . S
H1045 C1058 0.930 . S
H1046 C1062 0.959 . S
H1047 C1062 0.959 . S
H1048 C1062 0.961 . S
H1049 C1063 0.960 . S
H1050 C1063 0.961 . S
H1051 C1063 0.959 . S
H1052 C1066 0.929 . S
H1053 C1067 0.931 . S
H1054 C1069 0.930 . S
C1055 H1043 0.930 . S
C1055 C1056 1.399 . S
C1055 C1060 1.399 . S
C1056 C1055 1.399 . S
C1056 C1057 1.376 . S
C1057 H1044 0.930 . S
C1057 C1056 1.376 . S
C1057 C1058 1.388 . S
C1058 H1045 0.930 . S
C1058 C1057 1.388 . S
C1058 C1059 1.390 . S
C1059 C1058 1.390 . S
C1059 C1060 1.394 . S
C1059 C1065 1.465 . S
C1060 C1055 1.399 . S
C1060 C1059 1.394 . S
C1060 C1061 1.516 . S
C1061 C1060 1.516 . S
C1061 C1062 1.502 . S
C1061 C1063 1.561 . S
C1061 C1064 1.526 . S
C1062 H1046 0.959 . S
C1062 H1047 0.959 . S
C1062 H1048 0.961 . S
C1062 C1061 1.502 . S
C1063 H1049 0.960 . S
C1063 H1050 0.961 . S
C1063 H1051 0.959 . S
C1063 C1061 1.561 . S
C1064 C1061 1.526 . S
C1064 C1065 1.396 . S
C1064 C1069 1.390 . S
C1065 C1059 1.465 . S
C1065 C1064 1.396 . S
C1065 C1066 1.399 . S
C1066 H1052 0.929 . S
C1066 C1065 1.399 . S
C1066 C1067 1.385 . S
C1067 H1053 0.931 . S
C1067 C1066 1.385 . S
C1067 C1068 1.389 . S
C1068 C1067 1.389 . S
C1068 C1069 1.387 . S
C1069 H1054 0.930 . S
C1069 C1064 1.390 . S
C1069 C1068 1.387 . S
H1070 C1082 0.930 . S
H1071 C1084 0.930 . S
H1072 C1085 0.930 . S
H1073 C1089 0.959 . S
H1074 C1089 0.959 . S
H1075 C1089 0.961 . S
H1076 C1090 0.960 . S
H1077 C1090 0.961 . S
H1078 C1090 0.959 . S
H1079 C1093 0.929 . S
H1080 C1094 0.931 . S
H1081 C1096 0.930 . S
C1082 H1070 0.930 . S
C1082 C1083 1.399 . S
C1082 C1087 1.399 . S
C1083 C1082 1.399 . S
C1083 C1084 1.376 . S
C1084 H1071 0.930 . S
C1084 C1083 1.376 . S
C1084 C1085 1.388 . S
C1085 H1072 0.930 . S
C1085 C1084 1.388 . S
C1085 C1086 1.390 . S
C1086 C1085 1.390 . S
C1086 C1087 1.394 . S
C1086 C1092 1.465 . S
C1087 C1082 1.399 . S
C1087 C1086 1.394 . S
C1087 C1088 1.516 . S
C1088 C1087 1.516 . S
C1088 C1089 1.502 . S
C1088 C1090 1.561 . S
C1088 C1091 1.526 . S
C1089 H1073 0.959 . S
C1089 H1074 0.959 . S
C1089 H1075 0.961 . S
C1089 C1088 1.502 . S
C1090 H1076 0.960 . S
C1090 H1077 0.961 . S
C1090 H1078 0.959 . S
C1090 C1088 1.561 . S
C1091 C1088 1.526 . S
C1091 C1092 1.396 . S
C1091 C1096 1.390 . S
C1092 C1086 1.465 . S
C1092 C1091 1.396 . S
C1092 C1093 1.399 . S
C1093 H1079 0.929 . S
C1093 C1092 1.399 . S
C1093 C1094 1.385 . S
C1094 H1080 0.931 . S
C1094 C1093 1.385 . S
C1094 C1095 1.389 . S
C1095 C1094 1.389 . S
C1095 C1096 1.387 . S
C1096 H1081 0.930 . S
C1096 C1091 1.390 . S
C1096 C1095 1.387 . S
H1097 C1109 0.930 . S
H1098 C1111 0.930 . S
H1099 C1112 0.930 . S
H1100 C1116 0.959 . S
H1101 C1116 0.959 . S
H1102 C1116 0.961 . S
H1103 C1117 0.960 . S
H1104 C1117 0.961 . S
H1105 C1117 0.959 . S
H1106 C1120 0.929 . S
H1107 C1121 0.931 . S
H1108 C1123 0.930 . S
C1109 H1097 0.930 . S
C1109 C1110 1.399 . S
C1109 C1114 1.399 . S
C1110 C1109 1.399 . S
C1110 C1111 1.376 . S
C1111 H1098 0.930 . S
C1111 C1110 1.376 . S
C1111 C1112 1.388 . S
C1112 H1099 0.930 . S
C1112 C1111 1.388 . S
C1112 C1113 1.390 . S
C1113 C1112 1.390 . S
C1113 C1114 1.394 . S
C1113 C1119 1.465 . S
C1114 C1109 1.399 . S
C1114 C1113 1.394 . S
C1114 C1115 1.516 . S
C1115 C1114 1.516 . S
C1115 C1116 1.502 . S
C1115 C1117 1.561 . S
C1115 C1118 1.526 . S
C1116 H1100 0.959 . S
C1116 H1101 0.959 . S
C1116 H1102 0.961 . S
C1116 C1115 1.502 . S
C1117 H1103 0.960 . S
C1117 H1104 0.961 . S
C1117 H1105 0.959 . S
C1117 C1115 1.561 . S
C1118 C1115 1.526 . S
C1118 C1119 1.396 . S
C1118 C1123 1.390 . S
C1119 C1113 1.465 . S
C1119 C1118 1.396 . S
C1119 C1120 1.399 . S
C1120 H1106 0.929 . S
C1120 C1119 1.399 . S
C1120 C1121 1.385 . S
C1121 H1107 0.931 . S
C1121 C1120 1.385 . S
C1121 C1122 1.389 . S
C1122 C1121 1.389 . S
C1122 C1123 1.387 . S
C1123 H1108 0.930 . S
C1123 C1118 1.390 . S
C1123 C1122 1.387 . S
H1124 C1136 0.930 . S
H1125 C1138 0.930 . S
H1126 C1139 0.930 . S
H1127 C1143 0.959 . S
H1128 C1143 0.959 . S
H1129 C1143 0.961 . S
H1130 C1144 0.960 . S
H1131 C1144 0.961 . S
H1132 C1144 0.959 . S
H1133 C1147 0.929 . S
H1134 C1148 0.931 . S
H1135 C1150 0.930 . S
C1136 H1124 0.930 . S
C1136 C1137 1.399 . S
C1136 C1141 1.399 . S
C1137 C1136 1.399 . S
C1137 C1138 1.376 . S
C1138 H1125 0.930 . S
C1138 C1137 1.376 . S
C1138 C1139 1.388 . S
C1139 H1126 0.930 . S
C1139 C1138 1.388 . S
C1139 C1140 1.390 . S
C1140 C1139 1.390 . S
C1140 C1141 1.394 . S
C1140 C1146 1.465 . S
C1141 C1136 1.399 . S
C1141 C1140 1.394 . S
C1141 C1142 1.516 . S
C1142 C1141 1.516 . S
C1142 C1143 1.502 . S
C1142 C1144 1.561 . S
C1142 C1145 1.526 . S
C1143 H1127 0.959 . S
C1143 H1128 0.959 . S
C1143 H1129 0.961 . S
C1143 C1142 1.502 . S
C1144 H1130 0.960 . S
C1144 H1131 0.961 . S
C1144 H1132 0.959 . S
C1144 C1142 1.561 . S
C1145 C1142 1.526 . S
C1145 C1146 1.396 . S
C1145 C1150 1.390 . S
C1146 C1140 1.465 . S
C1146 C1145 1.396 . S
C1146 C1147 1.399 . S
C1147 H1133 0.929 . S
C1147 C1146 1.399 . S
C1147 C1148 1.385 . S
C1148 H1134 0.931 . S
C1148 C1147 1.385 . S
C1148 C1149 1.389 . S
C1149 C1148 1.389 . S
C1149 C1150 1.387 . S
C1150 H1135 0.930 . S
C1150 C1145 1.390 . S
C1150 C1149 1.387 . S
H1151 C1163 0.930 . S
H1152 C1165 0.930 . S
H1153 C1166 0.930 . S
H1154 C1170 0.959 . S
H1155 C1170 0.959 . S
H1156 C1170 0.961 . S
H1157 C1171 0.960 . S
H1158 C1171 0.961 . S
H1159 C1171 0.959 . S
H1160 C1174 0.929 . S
H1161 C1175 0.931 . S
H1162 C1177 0.930 . S
C1163 H1151 0.930 . S
C1163 C1164 1.399 . S
C1163 C1168 1.399 . S
C1164 C1163 1.399 . S
C1164 C1165 1.376 . S
C1165 H1152 0.930 . S
C1165 C1164 1.376 . S
C1165 C1166 1.388 . S
C1166 H1153 0.930 . S
C1166 C1165 1.388 . S
C1166 C1167 1.390 . S
C1167 C1166 1.390 . S
C1167 C1168 1.394 . S
C1167 C1173 1.465 . S
C1168 C1163 1.399 . S
C1168 C1167 1.394 . S
C1168 C1169 1.516 . S
C1169 C1168 1.516 . S
C1169 C1170 1.502 . S
C1169 C1171 1.561 . S
C1169 C1172 1.526 . S
C1170 H1154 0.959 . S
C1170 H1155 0.959 . S
C1170 H1156 0.961 . S
C1170 C1169 1.502 . S
C1171 H1157 0.960 . S
C1171 H1158 0.961 . S
C1171 H1159 0.959 . S
C1171 C1169 1.561 . S
C1172 C1169 1.526 . S
C1172 C1173 1.396 . S
C1172 C1177 1.390 . S
C1173 C1167 1.465 . S
C1173 C1172 1.396 . S
C1173 C1174 1.399 . S
C1174 H1160 0.929 . S
C1174 C1173 1.399 . S
C1174 C1175 1.385 . S
C1175 H1161 0.931 . S
C1175 C1174 1.385 . S
C1175 C1176 1.389 . S
C1176 C1175 1.389 . S
C1176 C1177 1.387 . S
C1177 H1162 0.930 . S
C1177 C1172 1.390 . S
C1177 C1176 1.387 . S
H1178 C1190 0.930 . S
H1179 C1192 0.930 . S
H1180 C1193 0.930 . S
H1181 C1197 0.959 . S
H1182 C1197 0.959 . S
H1183 C1197 0.961 . S
H1184 C1198 0.960 . S
H1185 C1198 0.961 . S
H1186 C1198 0.959 . S
H1187 C1201 0.929 . S
H1188 C1202 0.931 . S
H1189 C1204 0.930 . S
C1190 H1178 0.930 . S
C1190 C1191 1.399 . S
C1190 C1195 1.399 . S
C1191 C1190 1.399 . S
C1191 C1192 1.376 . S
C1192 H1179 0.930 . S
C1192 C1191 1.376 . S
C1192 C1193 1.388 . S
C1193 H1180 0.930 . S
C1193 C1192 1.388 . S
C1193 C1194 1.390 . S
C1194 C1193 1.390 . S
C1194 C1195 1.394 . S
C1194 C1200 1.465 . S
C1195 C1190 1.399 . S
C1195 C1194 1.394 . S
C1195 C1196 1.516 . S
C1196 C1195 1.516 . S
C1196 C1197 1.502 . S
C1196 C1198 1.561 . S
C1196 C1199 1.526 . S
C1197 H1181 0.959 . S
C1197 H1182 0.959 . S
C1197 H1183 0.961 . S
C1197 C1196 1.502 . S
C1198 H1184 0.960 . S
C1198 H1185 0.961 . S
C1198 H1186 0.959 . S
C1198 C1196 1.561 . S
C1199 C1196 1.526 . S
C1199 C1200 1.396 . S
C1199 C1204 1.390 . S
C1200 C1194 1.465 . S
C1200 C1199 1.396 . S
C1200 C1201 1.399 . S
C1201 H1187 0.929 . S
C1201 C1200 1.399 . S
C1201 C1202 1.385 . S
C1202 H1188 0.931 . S
C1202 C1201 1.385 . S
C1202 C1203 1.389 . S
C1203 C1202 1.389 . S
C1203 C1204 1.387 . S
C1204 H1189 0.930 . S
C1204 C1199 1.390 . S
C1204 C1203 1.387 . S
H1205 C1217 0.930 . S
H1206 C1219 0.930 . S
H1207 C1220 0.930 . S
H1208 C1224 0.959 . S
H1209 C1224 0.959 . S
H1210 C1224 0.961 . S
H1211 C1225 0.960 . S
H1212 C1225 0.961 . S
H1213 C1225 0.959 . S
H1214 C1228 0.929 . S
H1215 C1229 0.931 . S
H1216 C1231 0.930 . S
C1217 H1205 0.930 . S
C1217 C1218 1.399 . S
C1217 C1222 1.399 . S
C1218 C1217 1.399 . S
C1218 C1219 1.376 . S
C1219 H1206 0.930 . S
C1219 C1218 1.376 . S
C1219 C1220 1.388 . S
C1220 H1207 0.930 . S
C1220 C1219 1.388 . S
C1220 C1221 1.390 . S
C1221 C1220 1.390 . S
C1221 C1222 1.394 . S
C1221 C1227 1.465 . S
C1222 C1217 1.399 . S
C1222 C1221 1.394 . S
C1222 C1223 1.516 . S
C1223 C1222 1.516 . S
C1223 C1224 1.502 . S
C1223 C1225 1.561 . S
C1223 C1226 1.526 . S
C1224 H1208 0.959 . S
C1224 H1209 0.959 . S
C1224 H1210 0.961 . S
C1224 C1223 1.502 . S
C1225 H1211 0.960 . S
C1225 H1212 0.961 . S
C1225 H1213 0.959 . S
C1225 C1223 1.561 . S
C1226 C1223 1.526 . S
C1226 C1227 1.396 . S
C1226 C1231 1.390 . S
C1227 C1221 1.465 . S
C1227 C1226 1.396 . S
C1227 C1228 1.399 . S
C1228 H1214 0.929 . S
C1228 C1227 1.399 . S
C1228 C1229 1.385 . S
C1229 H1215 0.931 . S
C1229 C1228 1.385 . S
C1229 C1230 1.389 . S
C1230 C1229 1.389 . S
C1230 C1231 1.387 . S
C1231 H1216 0.930 . S
C1231 C1226 1.390 . S
C1231 C1230 1.387 . S
H1232 C1244 0.930 . S
H1233 C1246 0.930 . S
H1234 C1247 0.930 . S
H1235 C1251 0.959 . S
H1236 C1251 0.959 . S
H1237 C1251 0.961 . S
H1238 C1252 0.960 . S
H1239 C1252 0.961 . S
H1240 C1252 0.959 . S
H1241 C1255 0.929 . S
H1242 C1256 0.931 . S
H1243 C1258 0.930 . S
C1244 H1232 0.930 . S
C1244 C1245 1.399 . S
C1244 C1249 1.399 . S
C1245 C1244 1.399 . S
C1245 C1246 1.376 . S
C1246 H1233 0.930 . S
C1246 C1245 1.376 . S
C1246 C1247 1.388 . S
C1247 H1234 0.930 . S
C1247 C1246 1.388 . S
C1247 C1248 1.390 . S
C1248 C1247 1.390 . S
C1248 C1249 1.394 . S
C1248 C1254 1.465 . S
C1249 C1244 1.399 . S
C1249 C1248 1.394 . S
C1249 C1250 1.516 . S
C1250 C1249 1.516 . S
C1250 C1251 1.502 . S
C1250 C1252 1.561 . S
C1250 C1253 1.526 . S
C1251 H1235 0.959 . S
C1251 H1236 0.959 . S
C1251 H1237 0.961 . S
C1251 C1250 1.502 . S
C1252 H1238 0.960 . S
C1252 H1239 0.961 . S
C1252 H1240 0.959 . S
C1252 C1250 1.561 . S
C1253 C1250 1.526 . S
C1253 C1254 1.396 . S
C1253 C1258 1.390 . S
C1254 C1248 1.465 . S
C1254 C1253 1.396 . S
C1254 C1255 1.399 . S
C1255 H1241 0.929 . S
C1255 C1254 1.399 . S
C1255 C1256 1.385 . S
C1256 H1242 0.931 . S
C1256 C1255 1.385 . S
C1256 C1257 1.389 . S
C1257 C1256 1.389 . S
C1257 C1258 1.387 . S
C1258 H1243 0.930 . S
C1258 C1253 1.390 . S
C1258 C1257 1.387 . S
H1259 C1271 0.930 . S
H1260 C1273 0.930 . S
H1261 C1274 0.930 . S
H1262 C1278 0.959 . S
H1263 C1278 0.959 . S
H1264 C1278 0.961 . S
H1265 C1279 0.960 . S
H1266 C1279 0.961 . S
H1267 C1279 0.959 . S
H1268 C1282 0.929 . S
H1269 C1283 0.931 . S
H1270 C1285 0.930 . S
C1271 H1259 0.930 . S
C1271 C1272 1.399 . S
C1271 C1276 1.399 . S
C1272 C1271 1.399 . S
C1272 C1273 1.376 . S
C1273 H1260 0.930 . S
C1273 C1272 1.376 . S
C1273 C1274 1.388 . S
C1274 H1261 0.930 . S
C1274 C1273 1.388 . S
C1274 C1275 1.390 . S
C1275 C1274 1.390 . S
C1275 C1276 1.394 . S
C1275 C1281 1.465 . S
C1276 C1271 1.399 . S
C1276 C1275 1.394 . S
C1276 C1277 1.516 . S
C1277 C1276 1.516 . S
C1277 C1278 1.502 . S
C1277 C1279 1.561 . S
C1277 C1280 1.526 . S
C1278 H1262 0.959 . S
C1278 H1263 0.959 . S
C1278 H1264 0.961 . S
C1278 C1277 1.502 . S
C1279 H1265 0.960 . S
C1279 H1266 0.961 . S
C1279 H1267 0.959 . S
C1279 C1277 1.561 . S
C1280 C1277 1.526 . S
C1280 C1281 1.396 . S
C1280 C1285 1.390 . S
C1281 C1275 1.465 . S
C1281 C1280 1.396 . S
C1281 C1282 1.399 . S
C1282 H1268 0.929 . S
C1282 C1281 1.399 . S
C1282 C1283 1.385 . S
C1283 H1269 0.931 . S
C1283 C1282 1.385 . S
C1283 C1284 1.389 . S
C1284 C1283 1.389 . S
C1284 C1285 1.387 . S
C1285 H1270 0.930 . S
C1285 C1280 1.390 . S
C1285 C1284 1.387 . S
H1286 C1298 0.930 . S
H1287 C1300 0.930 . S
H1288 C1301 0.930 . S
H1289 C1305 0.959 . S
H1290 C1305 0.959 . S
H1291 C1305 0.961 . S
H1292 C1306 0.960 . S
H1293 C1306 0.961 . S
H1294 C1306 0.959 . S
H1295 C1309 0.929 . S
H1296 C1310 0.931 . S
H1297 C1312 0.930 . S
C1298 H1286 0.930 . S
C1298 C1299 1.399 . S
C1298 C1303 1.399 . S
C1299 C1298 1.399 . S
C1299 C1300 1.376 . S
C1300 H1287 0.930 . S
C1300 C1299 1.376 . S
C1300 C1301 1.388 . S
C1301 H1288 0.930 . S
C1301 C1300 1.388 . S
C1301 C1302 1.390 . S
C1302 C1301 1.390 . S
C1302 C1303 1.394 . S
C1302 C1308 1.465 . S
C1303 C1298 1.399 . S
C1303 C1302 1.394 . S
C1303 C1304 1.516 . S
C1304 C1303 1.516 . S
C1304 C1305 1.502 . S
C1304 C1306 1.561 . S
C1304 C1307 1.526 . S
C1305 H1289 0.959 . S
C1305 H1290 0.959 . S
C1305 H1291 0.961 . S
C1305 C1304 1.502 . S
C1306 H1292 0.960 . S
C1306 H1293 0.961 . S
C1306 H1294 0.959 . S
C1306 C1304 1.561 . S
C1307 C1304 1.526 . S
C1307 C1308 1.396 . S
C1307 C1312 1.390 . S
C1308 C1302 1.465 . S
C1308 C1307 1.396 . S
C1308 C1309 1.399 . S
C1309 H1295 0.929 . S
C1309 C1308 1.399 . S
C1309 C1310 1.385 . S
C1310 H1296 0.931 . S
C1310 C1309 1.385 . S
C1310 C1311 1.389 . S
C1311 C1310 1.389 . S
C1311 C1312 1.387 . S
C1312 H1297 0.930 . S
C1312 C1307 1.390 . S
C1312 C1311 1.387 . S
H1313 C1325 0.930 . S
H1314 C1327 0.930 . S
H1315 C1328 0.930 . S
H1316 C1332 0.959 . S
H1317 C1332 0.959 . S
H1318 C1332 0.961 . S
H1319 C1333 0.960 . S
H1320 C1333 0.961 . S
H1321 C1333 0.959 . S
H1322 C1336 0.929 . S
H1323 C1337 0.931 . S
H1324 C1339 0.930 . S
C1325 H1313 0.930 . S
C1325 C1326 1.399 . S
C1325 C1330 1.399 . S
C1326 C1325 1.399 . S
C1326 C1327 1.376 . S
C1327 H1314 0.930 . S
C1327 C1326 1.376 . S
C1327 C1328 1.388 . S
C1328 H1315 0.930 . S
C1328 C1327 1.388 . S
C1328 C1329 1.390 . S
C1329 C1328 1.390 . S
C1329 C1330 1.394 . S
C1329 C1335 1.465 . S
C1330 C1325 1.399 . S
C1330 C1329 1.394 . S
C1330 C1331 1.516 . S
C1331 C1330 1.516 . S
C1331 C1332 1.502 . S
C1331 C1333 1.561 . S
C1331 C1334 1.526 . S
C1332 H1316 0.959 . S
C1332 H1317 0.959 . S
C1332 H1318 0.961 . S
C1332 C1331 1.502 . S
C1333 H1319 0.960 . S
C1333 H1320 0.961 . S
C1333 H1321 0.959 . S
C1333 C1331 1.561 . S
C1334 C1331 1.526 . S
C1334 C1335 1.396 . S
C1334 C1339 1.390 . S
C1335 C1329 1.465 . S
C1335 C1334 1.396 . S
C1335 C1336 1.399 . S
C1336 H1322 0.929 . S
C1336 C1335 1.399 . S
C1336 C1337 1.385 . S
C1337 H1323 0.931 . S
C1337 C1336 1.385 . S
C1337 C1338 1.389 . S
C1338 C1337 1.389 . S
C1338 C1339 1.387 . S
C1339 H1324 0.930 . S
C1339 C1334 1.390 . S
C1339 C1338 1.387 . S
H1340 C1352 0.930 . S
H1341 C1354 0.930 . S
H1342 C1355 0.930 . S
H1343 C1359 0.959 . S
H1344 C1359 0.959 . S
H1345 C1359 0.961 . S
H1346 C1360 0.960 1_545 S
H1347 C1360 0.961 . S
H1348 C1360 0.959 . S
H1349 C1363 0.931 . S
H1350 C1364 0.931 . S
H1351 C1366 0.930 . S
C1352 H1340 0.930 . S
C1352 C1353 1.399 . S
C1352 C1357 1.399 1_556 S
C1353 C1352 1.399 . S
C1353 C1354 1.376 . S
C1354 H1341 0.930 . S
C1354 C1353 1.376 . S
C1354 C1355 1.388 . S
C1355 H1342 0.930 . S
C1355 C1354 1.388 . S
C1355 C1356 1.390 . S
C1356 C1355 1.390 . S
C1356 C1357 1.394 1_556 S
C1356 C1362 1.465 1_556 S
C1357 C1352 1.399 1_554 S
C1357 C1356 1.394 1_554 S
C1357 C1358 1.516 . S
C1358 C1357 1.516 . S
C1358 C1359 1.502 . S
C1358 C1360 1.561 . S
C1358 C1361 1.526 . S
C1359 H1343 0.959 . S
C1359 H1344 0.959 . S
C1359 H1345 0.961 . S
C1359 C1358 1.502 . S
C1360 H1346 0.960 1_565 S
C1360 H1347 0.961 . S
C1360 H1348 0.959 . S
C1360 C1358 1.561 . S
C1361 C1358 1.526 . S
C1361 C1362 1.396 . S
C1361 C1366 1.390 . S
C1362 C1356 1.465 1_554 S
C1362 C1361 1.396 . S
C1362 C1363 1.399 . S
C1363 H1349 0.931 . S
C1363 C1362 1.399 . S
C1363 C1364 1.385 . S
C1364 H1350 0.931 . S
C1364 C1363 1.385 . S
C1364 C1365 1.389 . S
C1365 C1364 1.389 . S
C1365 C1366 1.387 . S
C1366 H1351 0.930 . S
C1366 C1361 1.390 . S
C1366 C1365 1.387 . S
H1367 C1379 0.930 . S
H1368 C1381 0.930 . S
H1369 C1382 0.930 . S
H1370 C1386 0.959 . S
H1371 C1386 0.959 . S
H1372 C1386 0.961 . S
H1373 C1387 0.960 . S
H1374 C1387 0.961 . S
H1375 C1387 0.959 . S
H1376 C1390 0.929 . S
H1377 C1391 0.931 . S
H1378 C1393 0.930 . S
C1379 H1367 0.930 . S
C1379 C1380 1.399 . S
C1379 C1384 1.399 . S
C1380 C1379 1.399 . S
C1380 C1381 1.376 . S
C1381 H1368 0.930 . S
C1381 C1380 1.376 . S
C1381 C1382 1.388 . S
C1382 H1369 0.930 . S
C1382 C1381 1.388 . S
C1382 C1383 1.390 . S
C1383 C1382 1.390 . S
C1383 C1384 1.394 . S
C1383 C1389 1.465 . S
C1384 C1379 1.399 . S
C1384 C1383 1.394 . S
C1384 C1385 1.516 1_554 S
C1385 C1384 1.516 1_556 S
C1385 C1386 1.502 . S
C1385 C1387 1.561 . S
C1385 C1388 1.526 . S
C1386 H1370 0.959 . S
C1386 H1371 0.959 . S
C1386 H1372 0.961 . S
C1386 C1385 1.502 . S
C1387 H1373 0.960 . S
C1387 H1374 0.961 . S
C1387 H1375 0.959 . S
C1387 C1385 1.561 . S
C1388 C1385 1.526 . S
C1388 C1389 1.396 1_556 S
C1388 C1393 1.390 . S
C1389 C1383 1.465 . S
C1389 C1388 1.396 1_554 S
C1389 C1390 1.399 . S
C1390 H1376 0.929 . S
C1390 C1389 1.399 . S
C1390 C1391 1.385 1_554 S
C1391 H1377 0.931 . S
C1391 C1390 1.385 1_556 S
C1391 C1392 1.389 . S
C1392 C1391 1.389 . S
C1392 C1393 1.387 . S
C1393 H1378 0.930 . S
C1393 C1388 1.390 . S
C1393 C1392 1.387 . S
H1394 C1406 0.930 . S
H1395 C1408 0.930 . S
H1396 C1409 0.930 . S
H1397 C1413 0.959 . S
H1398 C1413 0.959 . S
H1399 C1413 0.961 . S
H1400 C1414 0.960 . S
H1401 C1414 0.961 . S
H1402 C1414 0.959 . S
H1403 C1417 0.929 . S
H1404 C1418 0.931 . S
H1405 C1420 0.930 . S
C1406 H1394 0.930 . S
C1406 C1407 1.399 . S
C1406 C1411 1.399 1_556 S
C1407 C1406 1.399 . S
C1407 C1408 1.376 . S
C1408 H1395 0.930 . S
C1408 C1407 1.376 . S
C1408 C1409 1.388 . S
C1409 H1396 0.930 . S
C1409 C1408 1.388 . S
C1409 C1410 1.390 . S
C1410 C1409 1.390 . S
C1410 C1411 1.394 1_556 S
C1410 C1416 1.465 1_556 S
C1411 C1406 1.399 1_554 S
C1411 C1410 1.394 1_554 S
C1411 C1412 1.516 . S
C1412 C1411 1.516 . S
C1412 C1413 1.502 . S
C1412 C1414 1.561 . S
C1412 C1415 1.526 . S
C1413 H1397 0.959 . S
C1413 H1398 0.959 . S
C1413 H1399 0.961 . S
C1413 C1412 1.502 . S
C1414 H1400 0.960 . S
C1414 H1401 0.961 . S
C1414 H1402 0.959 . S
C1414 C1412 1.561 . S
C1415 C1412 1.526 . S
C1415 C1416 1.396 . S
C1415 C1420 1.390 . S
C1416 C1410 1.465 1_554 S
C1416 C1415 1.396 . S
C1416 C1417 1.399 . S
C1417 H1403 0.929 . S
C1417 C1416 1.399 . S
C1417 C1418 1.385 . S
C1418 H1404 0.931 . S
C1418 C1417 1.385 . S
C1418 C1419 1.389 . S
C1419 C1418 1.389 . S
C1419 C1420 1.387 . S
C1420 H1405 0.930 . S
C1420 C1415 1.390 . S
C1420 C1419 1.387 . S
H1421 C1433 0.930 . S
H1422 C1435 0.930 . S
H1423 C1436 0.930 . S
H1424 C1440 0.959 . S
H1425 C1440 0.959 1_455 S
H1426 C1440 0.961 . S
H1427 C1441 0.960 . S
H1428 C1441 0.961 . S
H1429 C1441 0.959 . S
H1430 C1444 0.929 . S
H1431 C1445 0.931 . S
H1432 C1447 0.930 . S
C1433 H1421 0.930 . S
C1433 C1434 1.399 . S
C1433 C1438 1.399 . S
C1434 C1433 1.399 . S
C1434 C1435 1.376 . S
C1435 H1422 0.930 . S
C1435 C1434 1.376 . S
C1435 C1436 1.388 . S
C1436 H1423 0.930 . S
C1436 C1435 1.388 . S
C1436 C1437 1.390 . S
C1437 C1436 1.390 . S
C1437 C1438 1.394 . S
C1437 C1443 1.465 1_554 S
C1438 C1433 1.399 . S
C1438 C1437 1.394 . S
C1438 C1439 1.516 . S
C1439 C1438 1.516 . S
C1439 C1440 1.502 . S
C1439 C1441 1.561 . S
C1439 C1442 1.526 . S
C1440 H1424 0.959 . S
C1440 H1425 0.959 1_655 S
C1440 H1426 0.961 . S
C1440 C1439 1.502 . S
C1441 H1427 0.960 . S
C1441 H1428 0.961 . S
C1441 H1429 0.959 . S
C1441 C1439 1.561 . S
C1442 C1439 1.526 . S
C1442 C1443 1.396 1_554 S
C1442 C1447 1.390 1_554 S
C1443 C1437 1.465 1_556 S
C1443 C1442 1.396 1_556 S
C1443 C1444 1.399 . S
C1444 H1430 0.929 . S
C1444 C1443 1.399 . S
C1444 C1445 1.385 . S
C1445 H1431 0.931 . S
C1445 C1444 1.385 . S
C1445 C1446 1.389 . S
C1446 C1445 1.389 . S
C1446 C1447 1.387 . S
C1447 H1432 0.930 . S
C1447 C1442 1.390 1_556 S
C1447 C1446 1.387 . S
H1448 C1460 0.930 . S
H1449 C1462 0.930 . S
H1450 C1463 0.930 . S
H1451 C1467 0.959 . S
H1452 C1467 0.959 . S
H1453 C1467 0.961 . S
H1454 C1468 0.960 . S
H1455 C1468 0.961 . S
H1456 C1468 0.959 . S
H1457 C1471 0.929 . S
H1458 C1472 0.931 . S
H1459 C1474 0.930 . S
C1460 H1448 0.930 . S
C1460 C1461 1.399 . S
C1460 C1465 1.399 . S
C1461 C1460 1.399 . S
C1461 C1462 1.376 . S
C1462 H1449 0.930 . S
C1462 C1461 1.376 . S
C1462 C1463 1.388 . S
C1463 H1450 0.930 . S
C1463 C1462 1.388 . S
C1463 C1464 1.390 . S
C1464 C1463 1.390 . S
C1464 C1465 1.394 . S
C1464 C1470 1.465 . S
C1465 C1460 1.399 . S
C1465 C1464 1.394 . S
C1465 C1466 1.516 . S
C1466 C1465 1.516 . S
C1466 C1467 1.502 . S
C1466 C1468 1.561 . S
C1466 C1469 1.526 . S
C1467 H1451 0.959 . S
C1467 H1452 0.959 . S
C1467 H1453 0.961 . S
C1467 C1466 1.502 . S
C1468 H1454 0.960 . S
C1468 H1455 0.961 . S
C1468 H1456 0.959 . S
C1468 C1466 1.561 . S
C1469 C1466 1.526 . S
C1469 C1470 1.396 . S
C1469 C1474 1.390 . S
C1470 C1464 1.465 . S
C1470 C1469 1.396 . S
C1470 C1471 1.399 . S
C1471 H1457 0.929 . S
C1471 C1470 1.399 . S
C1471 C1472 1.385 . S
C1472 H1458 0.931 . S
C1472 C1471 1.385 . S
C1472 C1473 1.389 . S
C1473 C1472 1.389 . S
C1473 C1474 1.387 . S
C1474 H1459 0.930 . S
C1474 C1469 1.390 . S
C1474 C1473 1.387 . S
H1475 C1487 0.930 . S
H1476 C1489 0.930 . S
H1477 C1490 0.930 . S
H1478 C1494 0.959 . S
H1479 C1494 0.959 . S
H1480 C1494 0.961 . S
H1481 C1495 0.960 . S
H1482 C1495 0.961 . S
H1483 C1495 0.959 . S
H1484 C1498 0.929 . S
H1485 C1499 0.931 . S
H1486 C1501 0.930 . S
C1487 H1475 0.930 . S
C1487 C1488 1.399 . S
C1487 C1492 1.399 . S
C1488 C1487 1.399 . S
C1488 C1489 1.376 . S
C1489 H1476 0.930 . S
C1489 C1488 1.376 . S
C1489 C1490 1.388 . S
C1490 H1477 0.930 . S
C1490 C1489 1.388 . S
C1490 C1491 1.390 . S
C1491 C1490 1.390 . S
C1491 C1492 1.394 . S
C1491 C1497 1.465 . S
C1492 C1487 1.399 . S
C1492 C1491 1.394 . S
C1492 C1493 1.516 . S
C1493 C1492 1.516 . S
C1493 C1494 1.502 . S
C1493 C1495 1.561 . S
C1493 C1496 1.526 . S
C1494 H1478 0.959 . S
C1494 H1479 0.959 . S
C1494 H1480 0.961 . S
C1494 C1493 1.502 . S
C1495 H1481 0.960 . S
C1495 H1482 0.961 . S
C1495 H1483 0.959 . S
C1495 C1493 1.561 . S
C1496 C1493 1.526 . S
C1496 C1497 1.396 . S
C1496 C1501 1.390 . S
C1497 C1491 1.465 . S
C1497 C1496 1.396 . S
C1497 C1498 1.399 . S
C1498 H1484 0.929 . S
C1498 C1497 1.399 . S
C1498 C1499 1.385 . S
C1499 H1485 0.931 . S
C1499 C1498 1.385 . S
C1499 C1500 1.389 . S
C1500 C1499 1.389 . S
C1500 C1501 1.387 . S
C1501 H1486 0.930 . S
C1501 C1496 1.390 . S
C1501 C1500 1.387 . S
H1502 C1514 0.930 . S
H1503 C1516 0.930 . S
H1504 C1517 0.930 . S
H1505 C1521 0.959 . S
H1506 C1521 0.959 . S
H1507 C1521 0.961 . S
H1508 C1522 0.960 . S
H1509 C1522 0.961 . S
H1510 C1522 0.959 . S
H1511 C1525 0.929 . S
H1512 C1526 0.931 . S
H1513 C1528 0.930 . S
C1514 H1502 0.930 . S
C1514 C1515 1.399 . S
C1514 C1519 1.399 . S
C1515 C1514 1.399 . S
C1515 C1516 1.376 . S
C1516 H1503 0.930 . S
C1516 C1515 1.376 . S
C1516 C1517 1.388 . S
C1517 H1504 0.930 . S
C1517 C1516 1.388 . S
C1517 C1518 1.390 . S
C1518 C1517 1.390 . S
C1518 C1519 1.394 . S
C1518 C1524 1.465 . S
C1519 C1514 1.399 . S
C1519 C1518 1.394 . S
C1519 C1520 1.516 . S
C1520 C1519 1.516 . S
C1520 C1521 1.502 . S
C1520 C1522 1.561 . S
C1520 C1523 1.526 . S
C1521 H1505 0.959 . S
C1521 H1506 0.959 . S
C1521 H1507 0.961 . S
C1521 C1520 1.502 . S
C1522 H1508 0.960 . S
C1522 H1509 0.961 . S
C1522 H1510 0.959 . S
C1522 C1520 1.561 . S
C1523 C1520 1.526 . S
C1523 C1524 1.396 . S
C1523 C1528 1.390 . S
C1524 C1518 1.465 . S
C1524 C1523 1.396 . S
C1524 C1525 1.399 . S
C1525 H1511 0.929 . S
C1525 C1524 1.399 . S
C1525 C1526 1.385 . S
C1526 H1512 0.931 . S
C1526 C1525 1.385 . S
C1526 C1527 1.389 . S
C1527 C1526 1.389 . S
C1527 C1528 1.387 . S
C1528 H1513 0.930 . S
C1528 C1523 1.390 . S
C1528 C1527 1.387 . S
H1529 C1541 0.930 . S
H1530 C1543 0.930 . S
H1531 C1544 0.930 . S
H1532 C1548 0.959 . S
H1533 C1548 0.959 . S
H1534 C1548 0.961 . S
H1535 C1549 0.960 . S
H1536 C1549 0.961 . S
H1537 C1549 0.959 . S
H1538 C1552 0.929 . S
H1539 C1553 0.931 . S
H1540 C1555 0.930 . S
C1541 H1529 0.930 . S
C1541 C1542 1.399 . S
C1541 C1546 1.399 . S
C1542 C1541 1.399 . S
C1542 C1543 1.376 . S
C1543 H1530 0.930 . S
C1543 C1542 1.376 . S
C1543 C1544 1.388 . S
C1544 H1531 0.930 . S
C1544 C1543 1.388 . S
C1544 C1545 1.390 . S
C1545 C1544 1.390 . S
C1545 C1546 1.394 . S
C1545 C1551 1.465 . S
C1546 C1541 1.399 . S
C1546 C1545 1.394 . S
C1546 C1547 1.516 . S
C1547 C1546 1.516 . S
C1547 C1548 1.502 . S
C1547 C1549 1.561 . S
C1547 C1550 1.526 . S
C1548 H1532 0.959 . S
C1548 H1533 0.959 . S
C1548 H1534 0.961 . S
C1548 C1547 1.502 . S
C1549 H1535 0.960 . S
C1549 H1536 0.961 . S
C1549 H1537 0.959 . S
C1549 C1547 1.561 . S
C1550 C1547 1.526 . S
C1550 C1551 1.396 . S
C1550 C1555 1.390 . S
C1551 C1545 1.465 . S
C1551 C1550 1.396 . S
C1551 C1552 1.399 . S
C1552 H1538 0.929 . S
C1552 C1551 1.399 . S
C1552 C1553 1.385 . S
C1553 H1539 0.931 . S
C1553 C1552 1.385 . S
C1553 C1554 1.389 . S
C1554 C1553 1.389 . S
C1554 C1555 1.387 . S
C1555 H1540 0.930 . S
C1555 C1550 1.390 . S
C1555 C1554 1.387 . S
H1556 C1568 0.930 . S
H1557 C1570 0.930 . S
H1558 C1571 0.930 . S
H1559 C1575 0.959 . S
H1560 C1575 0.959 . S
H1561 C1575 0.961 . S
H1562 C1576 0.960 . S
H1563 C1576 0.942 1_554 S
H1564 C1576 0.959 . S
H1565 C1579 0.929 . S
H1566 C1580 0.931 . S
H1567 C1582 0.930 . S
C1568 H1556 0.930 . S
C1568 C1569 1.399 . S
C1568 C1573 1.399 . S
C1569 C1568 1.399 . S
C1569 C1570 1.376 . S
C1570 H1557 0.930 . S
C1570 C1569 1.376 . S
C1570 C1571 1.388 . S
C1571 H1558 0.930 . S
C1571 C1570 1.388 . S
C1571 C1572 1.390 . S
C1572 C1571 1.390 . S
C1572 C1573 1.394 . S
C1572 C1578 1.465 . S
C1573 C1568 1.399 . S
C1573 C1572 1.394 . S
C1573 C1574 1.516 . S
C1574 C1573 1.516 . S
C1574 C1575 1.502 1_556 S
C1574 C1576 1.561 . S
C1574 C1577 1.526 1_556 S
C1575 H1559 0.959 . S
C1575 H1560 0.959 . S
C1575 H1561 0.961 . S
C1575 C1574 1.502 1_554 S
C1576 H1562 0.960 . S
C1576 H1563 0.942 1_556 S
C1576 H1564 0.959 . S
C1576 C1574 1.561 . S
C1577 C1574 1.526 1_554 S
C1577 C1578 1.396 1_554 S
C1577 C1582 1.390 . S
C1578 C1572 1.465 . S
C1578 C1577 1.396 1_556 S
C1578 C1579 1.399 . S
C1579 H1565 0.929 . S
C1579 C1578 1.399 . S
C1579 C1580 1.385 1_556 S
C1580 H1566 0.931 . S
C1580 C1579 1.385 1_554 S
C1580 C1581 1.389 . S
C1581 C1580 1.389 . S
C1581 C1582 1.387 . S
C1582 H1567 0.930 . S
C1582 C1577 1.390 . S
C1582 C1581 1.387 . S
H1583 C1595 0.930 . S
H1584 C1597 0.930 . S
H1585 C1598 0.930 . S
H1586 C1602 0.959 1_556 S
H1587 C1602 0.959 . S
H1588 C1602 0.961 1_556 S
H1589 C1603 0.960 . S
H1590 C1603 0.961 . S
H1591 C1603 0.959 . S
H1592 C1606 0.929 . S
H1593 C1607 0.931 . S
H1594 C1609 0.930 . S
C1595 H1583 0.930 . S
C1595 C1596 1.399 . S
C1595 C1600 1.399 . S
C1596 C1595 1.399 . S
C1596 C1597 1.376 . S
C1597 H1584 0.930 . S
C1597 C1596 1.376 . S
C1597 C1598 1.388 . S
C1598 H1585 0.930 . S
C1598 C1597 1.388 . S
C1598 C1599 1.390 . S
C1599 C1598 1.390 . S
C1599 C1600 1.394 . S
C1599 C1605 1.465 . S
C1600 C1595 1.399 . S
C1600 C1599 1.394 . S
C1600 C1601 1.516 1_556 S
C1601 C1600 1.516 1_554 S
C1601 C1602 1.502 . S
C1601 C1603 1.561 . S
C1601 C1604 1.526 . S
C1602 H1586 0.959 1_554 S
C1602 H1587 0.959 . S
C1602 H1588 0.961 1_554 S
C1602 C1601 1.502 . S
C1603 H1589 0.960 . S
C1603 H1590 0.961 . S
C1603 H1591 0.959 . S
C1603 C1601 1.561 . S
C1604 C1601 1.526 . S
C1604 C1605 1.396 1_554 S
C1604 C1609 1.390 . S
C1605 C1599 1.465 . S
C1605 C1604 1.396 1_556 S
C1605 C1606 1.399 . S
C1606 H1592 0.929 . S
C1606 C1605 1.399 . S
C1606 C1607 1.385 1_556 S
C1607 H1593 0.931 . S
C1607 C1606 1.385 1_554 S
C1607 C1608 1.389 . S
C1608 C1607 1.389 . S
C1608 C1609 1.387 . S
C1609 H1594 0.930 . S
C1609 C1604 1.390 . S
C1609 C1608 1.387 . S
H1610 C1622 0.930 . S
H1611 C1624 0.930 . S
H1612 C1625 0.930 . S
H1613 C1629 0.959 . S
H1614 C1629 0.959 . S
H1615 C1629 0.961 . S
H1616 C1630 0.960 . S
H1617 C1630 0.948 1_556 S
H1618 C1630 0.959 . S
H1619 C1633 0.929 . S
H1620 C1634 0.931 . S
H1621 C1636 0.930 . S
C1622 H1610 0.930 . S
C1622 C1623 1.399 . S
C1622 C1627 1.399 . S
C1623 C1622 1.399 . S
C1623 C1624 1.376 . S
C1624 H1611 0.930 . S
C1624 C1623 1.376 . S
C1624 C1625 1.388 . S
C1625 H1612 0.930 . S
C1625 C1624 1.388 . S
C1625 C1626 1.378 1_554 S
C1626 C1625 1.378 1_556 S
C1626 C1627 1.388 1_556 S
C1626 C1632 1.484 . S
C1627 C1622 1.399 . S
C1627 C1626 1.388 1_554 S
C1627 C1628 1.516 1_554 S
C1628 C1627 1.516 1_556 S
C1628 C1629 1.502 . S
C1628 C1630 1.561 1_556 S
C1628 C1631 1.526 . S
C1629 H1613 0.959 . S
C1629 H1614 0.959 . S
C1629 H1615 0.961 . S
C1629 C1628 1.502 . S
C1630 H1616 0.960 . S
C1630 H1617 0.948 1_554 S
C1630 H1618 0.959 . S
C1630 C1628 1.561 1_554 S
C1631 C1628 1.526 . S
C1631 C1632 1.396 . S
C1631 C1636 1.390 . S
C1632 C1626 1.484 . S
C1632 C1631 1.396 . S
C1632 C1633 1.399 . S
C1633 H1619 0.929 . S
C1633 C1632 1.399 . S
C1633 C1634 1.385 . S
C1634 H1620 0.931 . S
C1634 C1633 1.385 . S
C1634 C1635 1.389 . S
C1635 C1634 1.389 . S
C1635 C1636 1.387 . S
C1636 H1621 0.930 . S
C1636 C1631 1.390 . S
C1636 C1635 1.387 . S
H1637 C1649 0.930 . S
H1638 C1651 0.930 . S
H1639 C1652 0.930 . S
H1640 C1656 0.959 1_556 S
H1641 C1656 0.959 . S
H1642 C1656 0.961 . S
H1643 C1657 0.960 . S
H1644 C1657 0.961 . S
H1645 C1657 0.959 . S
H1646 C1660 0.929 . S
H1647 C1661 0.931 . S
H1648 C1663 0.930 . S
C1649 H1637 0.930 . S
C1649 C1650 1.399 . S
C1649 C1654 1.399 . S
C1650 C1649 1.399 . S
C1650 C1651 1.376 . S
C1651 H1638 0.930 . S
C1651 C1650 1.376 . S
C1651 C1652 1.388 1_554 S
C1652 H1639 0.930 . S
C1652 C1651 1.388 1_556 S
C1652 C1653 1.390 . S
C1653 C1652 1.390 . S
C1653 C1654 1.394 1_556 S
C1653 C1659 1.465 . S
C1654 C1649 1.399 . S
C1654 C1653 1.394 1_554 S
C1654 C1655 1.516 . S
C1655 C1654 1.516 . S
C1655 C1656 1.502 . S
C1655 C1657 1.561 . S
C1655 C1658 1.526 1_554 S
C1656 H1640 0.959 1_554 S
C1656 H1641 0.959 . S
C1656 H1642 0.961 . S
C1656 C1655 1.502 . S
C1657 H1643 0.960 . S
C1657 H1644 0.961 . S
C1657 H1645 0.959 . S
C1657 C1655 1.561 . S
C1658 C1655 1.526 1_556 S
C1658 C1659 1.396 . S
C1658 C1663 1.390 . S
C1659 C1653 1.465 . S
C1659 C1658 1.396 . S
C1659 C1660 1.399 . S
C1660 H1646 0.929 . S
C1660 C1659 1.399 . S
C1660 C1661 1.385 . S
C1661 H1647 0.931 . S
C1661 C1660 1.385 . S
C1661 C1662 1.389 . S
C1662 C1661 1.389 . S
C1662 C1663 1.387 . S
C1663 H1648 0.930 . S
C1663 C1658 1.390 . S
C1663 C1662 1.387 . S
C381 C17 1.698 . S
C393 C131 1.694 . S
C408 C155 1.661 . S
C420 C40 1.654 . S
C435 C63 1.660 . S
C447 C178 1.668 . S
C462 C85 1.730 . S
C474 C108 1.729 . S
C489 C316 1.686 . S
C501 C201 1.685 . S
C516 C339 1.673 . S
C528 C224 1.674 . S
C543 C247 1.701 . S
C555 C362 1.701 . S
C570 C270 1.685 . S
C582 C293 1.686 . S
C597 C20 1.528 . S
C609 C88 1.545 1_545 S
C624 C43 1.509 . S
C636 C21 1.517 . S
C651 C66 1.510 . S
C663 C44 1.544 . S
C678 C87 1.568 . S
C690 C67 1.571 1_455 S
C705 C110 1.594 . S
C717 C134 1.575 1_565 S
C732 C159 1.574 . S
C744 C133 1.563 . S
C759 C158 1.523 . S
C771 C182 1.511 . S
C786 C111 1.516 1_655 S
C798 C181 1.534 . S
C813 C274 1.516 1_565 S
C825 C204 1.509 . S
C840 C227 1.525 . S
C852 C205 1.536 . S
C867 C250 1.511 . S
C879 C228 1.516 . S
C894 C273 1.534 . S
C906 C251 1.524 1_655 S
C921 C296 1.515 . S
C933 C320 1.508 1_545 S
C948 C319 1.508 . S
C960 C343 1.507 . S
C975 C342 1.525 . S
C987 C366 1.523 . S
C1002 C365 1.523 . S
C1014 C297 1.529 1_455 S
C1029 C19 0.684 . S
C1041 C65 0.724 . S
C1056 C42 0.706 . S
C1068 C90 0.650 . S
C1083 C157 0.712 . S
C1095 C113 0.664 . S
C1110 C180 0.563 . S
C1122 C136 0.502 . S
C1137 C249 0.723 . S
C1149 C203 0.711 . S
C1164 C272 0.501 . S
C1176 C226 0.529 . S
C1191 C295 0.717 . S
C1203 C341 0.702 . S
C1218 C318 0.709 . S
C1230 C364 0.688 . S
C1245 C18 1.211 . S
C1257 C269 1.184 . S
C1272 C200 1.171 . S
C1284 C41 1.193 . S
C1299 C64 1.215 . S
C1311 C223 1.144 . S
C1326 C246 1.173 . S
C1338 C89 1.196 . S
C1353 C315 1.121 . S
C1365 C112 1.158 . S
C1380 C135 1.156 . S
C1392 C338 1.192 . S
C1407 C361 1.139 . S
C1419 C156 1.209 . S
C1434 C179 1.206 . S
C1446 C292 1.132 . S
C1461 C202 1.194 . S
C1473 C86 1.195 . S
C1488 C225 1.203 . S
C1500 C16 1.176 . S
C1515 C39 1.205 . S
C1527 C248 1.217 . S
C1542 C271 1.209 . S
C1554 C62 1.163 . S
C1569 C294 1.192 . S
C1581 C132 1.200 . S
C1596 C317 1.221 . S
C1608 C154 1.185 . S
C1623 C177 1.188 . S
C1635 C340 1.210 . S
C1650 C109 1.193 . S
C1662 C363 1.184 . S
