# Generated by pormake.
# Topology zfn, (5)-cn, num edge types: 1
# Building blocks:
#     Node 0, Type 0, BuildingBlock: BEQFEK_clean_sbu_0, # of connection points: 5
#     Node 1, Type 0, BuildingBlock: BEQFEK_clean_sbu_0, # of connection points: 5
#     Node 2, Type 0, BuildingBlock: BEQFEK_clean_sbu_0, # of connection points: 5
#     Node 3, Type 0, BuildingBlock: BEQFEK_clean_sbu_0, # of connection points: 5
#     Node 4, Type 0, BuildingBlock: BEQFEK_clean_sbu_0, # of connection points: 5
#     Node 5, Type 0, BuildingBlock: BEQFEK_clean_sbu_0, # of connection points: 5
#     Node 6, Type 0, BuildingBlock: BEQFEK_clean_sbu_0, # of connection points: 5
#     Node 7, Type 0, BuildingBlock: BEQFEK_clean_sbu_0, # of connection points: 5
#     Node 8, Type 0, BuildingBlock: BEQFEK_clean_sbu_0, # of connection points: 5
#     Node 9, Type 0, BuildingBlock: BEQFEK_clean_sbu_0, # of connection points: 5
#     Node 10, Type 0, BuildingBlock: BEQFEK_clean_sbu_0, # of connection points: 5
#     Node 11, Type 0, BuildingBlock: BEQFEK_clean_sbu_0, # of connection points: 5
#     Node 12, Type 0, BuildingBlock: BEQFEK_clean_sbu_0, # of connection points: 5
#     Node 13, Type 0, BuildingBlock: BEQFEK_clean_sbu_0, # of connection points: 5
#     Node 14, Type 0, BuildingBlock: BEQFEK_clean_sbu_0, # of connection points: 5
#     Node 15, Type 0, BuildingBlock: BEQFEK_clean_sbu_0, # of connection points: 5
#     Edge 16, Type (0, 0), BuildingBlock: TEMPAE_clean_linker_10, # of connection points: 2
#     Edge 17, Type (0, 0), BuildingBlock: TEMPAE_clean_linker_10, # of connection points: 2
#     Edge 18, Type (0, 0), BuildingBlock: TEMPAE_clean_linker_10, # of connection points: 2
#     Edge 19, Type (0, 0), BuildingBlock: TEMPAE_clean_linker_10, # of connection points: 2
#     Edge 20, Type (0, 0), BuildingBlock: TEMPAE_clean_linker_10, # of connection points: 2
#     Edge 21, Type (0, 0), BuildingBlock: TEMPAE_clean_linker_10, # of connection points: 2
#     Edge 22, Type (0, 0), BuildingBlock: TEMPAE_clean_linker_10, # of connection points: 2
#     Edge 23, Type (0, 0), BuildingBlock: TEMPAE_clean_linker_10, # of connection points: 2
#     Edge 24, Type (0, 0), BuildingBlock: TEMPAE_clean_linker_10, # of connection points: 2
#     Edge 25, Type (0, 0), BuildingBlock: TEMPAE_clean_linker_10, # of connection points: 2
#     Edge 26, Type (0, 0), BuildingBlock: TEMPAE_clean_linker_10, # of connection points: 2
#     Edge 27, Type (0, 0), BuildingBlock: TEMPAE_clean_linker_10, # of connection points: 2
#     Edge 28, Type (0, 0), BuildingBlock: TEMPAE_clean_linker_10, # of connection points: 2
#     Edge 29, Type (0, 0), BuildingBlock: TEMPAE_clean_linker_10, # of connection points: 2
#     Edge 30, Type (0, 0), BuildingBlock: TEMPAE_clean_linker_10, # of connection points: 2
#     Edge 31, Type (0, 0), BuildingBlock: TEMPAE_clean_linker_10, # of connection points: 2
#     Edge 32, Type (0, 0), BuildingBlock: TEMPAE_clean_linker_10, # of connection points: 2
#     Edge 33, Type (0, 0), BuildingBlock: TEMPAE_clean_linker_10, # of connection points: 2
#     Edge 34, Type (0, 0), BuildingBlock: TEMPAE_clean_linker_10, # of connection points: 2
#     Edge 35, Type (0, 0), BuildingBlock: TEMPAE_clean_linker_10, # of connection points: 2
#     Edge 36, Type (0, 0), BuildingBlock: TEMPAE_clean_linker_10, # of connection points: 2
#     Edge 37, Type (0, 0), BuildingBlock: TEMPAE_clean_linker_10, # of connection points: 2
#     Edge 38, Type (0, 0), BuildingBlock: TEMPAE_clean_linker_10, # of connection points: 2
#     Edge 39, Type (0, 0), BuildingBlock: TEMPAE_clean_linker_10, # of connection points: 2
#     Edge 40, Type (0, 0), BuildingBlock: TEMPAE_clean_linker_10, # of connection points: 2
#     Edge 41, Type (0, 0), BuildingBlock: TEMPAE_clean_linker_10, # of connection points: 2
#     Edge 42, Type (0, 0), BuildingBlock: TEMPAE_clean_linker_10, # of connection points: 2
#     Edge 43, Type (0, 0), BuildingBlock: TEMPAE_clean_linker_10, # of connection points: 2
#     Edge 44, Type (0, 0), BuildingBlock: TEMPAE_clean_linker_10, # of connection points: 2
#     Edge 45, Type (0, 0), BuildingBlock: TEMPAE_clean_linker_10, # of connection points: 2
#     Edge 46, Type (0, 0), BuildingBlock: TEMPAE_clean_linker_10, # of connection points: 2
#     Edge 47, Type (0, 0), BuildingBlock: TEMPAE_clean_linker_10, # of connection points: 2
#     Edge 48, Type (0, 0), BuildingBlock: TEMPAE_clean_linker_10, # of connection points: 2
#     Edge 49, Type (0, 0), BuildingBlock: TEMPAE_clean_linker_10, # of connection points: 2
#     Edge 50, Type (0, 0), BuildingBlock: TEMPAE_clean_linker_10, # of connection points: 2
#     Edge 51, Type (0, 0), BuildingBlock: TEMPAE_clean_linker_10, # of connection points: 2
#     Edge 52, Type (0, 0), BuildingBlock: TEMPAE_clean_linker_10, # of connection points: 2
#     Edge 53, Type (0, 0), BuildingBlock: TEMPAE_clean_linker_10, # of connection points: 2
#     Edge 54, Type (0, 0), BuildingBlock: TEMPAE_clean_linker_10, # of connection points: 2
#     Edge 55, Type (0, 0), BuildingBlock: TEMPAE_clean_linker_10, # of connection points: 2
# Relax obj value: 0.138
# Max RMSD: 0.173
# Mean RMSD: 0.173
data_MOF--net-zfn--node1-BEQFEK_clean_sbu_0--edge1-TEMPAE_clean_linker_10
_symmetry_space_group_name_H-M    P1
_symmetry_Int_Tables_number       1
_symmetry_cell_setting            triclinic
loop_
_symmetry_equiv_pos_as_xyz
'x, y, z'
_cell_length_a     74.996979
_cell_length_b     75.020782
_cell_length_c     19.221436
_cell_angle_alpha  90.001956
_cell_angle_beta   90.028777
_cell_angle_gamma 89.998725
loop_
_atom_site_label
_atom_site_type_symbol
_atom_site_fract_x
_atom_site_fract_y
_atom_site_fract_z
_atom_type_partial_charge
Co0 Co 0.00116 0.35607 0.0632 0.0
Co1 Co 0.00731 0.36633 0.21928 0.0
C2 C 0.97536 0.37893 0.14463 0.0
O3 O 0.9807 0.37166 0.08859 0.0
O4 O 0.98415 0.37764 0.2009 0.0
C5 C 0.98339 0.35055 0.93275 0.0
O6 O 0.96994 0.35851 0.9635 0.0
C7 C 0.00102 0.36855 0.36902 0.0
C8 C 0.02848 0.36831 0.41087 0.0
C9 C 0.01071 0.36815 0.43035 0.0
N10 N 0.01255 0.36851 0.31559 0.0
N11 N 0.02894 0.36867 0.34088 0.0
C12 C 0.98117 0.36925 0.36061 0.0
H13 H 0.97672 0.35866 0.32425 0.0
H14 H 0.9741 0.36796 0.41098 0.0
H15 H 0.97749 0.38224 0.33706 0.0
C16 C 0.0056 0.31975 0.12068 0.0
N17 N 0.00455 0.33755 0.128 0.0
N18 N 0.00658 0.34175 0.19399 0.0
C19 C 0.0083 0.32664 0.23132 0.0
C20 C 0.00798 0.31217 0.18604 0.0
C21 C 0.00547 0.31047 0.05173 0.0
H22 H 0.01285 0.31852 0.01288 0.0
H23 H 0.99148 0.30912 0.03355 0.0
H24 H 0.01162 0.29705 0.05517 0.0
O25 O 0.02283 0.37045 0.05845 0.0
O26 O 0.02643 0.37942 0.16771 0.0
H27 H 0.0216 0.33131 0.32822 0.0
H28 H 0.00657 0.31244 0.3299 0.0
C29 C 0.00866 0.32605 0.30923 0.0
H30 H 0.99784 0.3345 0.32993 0.0
H31 H 0.04044 0.36841 0.31031 0.0
O32 O 0.99739 0.34713 0.96756 0.0
C33 C 0.03123 0.37934 0.10412 0.0
Co34 Co 0.14108 0.99659 0.56075 0.0
Co35 Co 0.13121 0.00825 0.71238 0.0
C36 C 0.11747 0.97422 0.64592 0.0
O37 O 0.12607 0.97653 0.5897 0.0
O38 O 0.11824 0.98543 0.69559 0.0
C39 C 0.14411 0.98076 0.42608 0.0
O40 O 0.13281 0.96908 0.45149 0.0
C41 C 0.1336 0.00256 0.86213 0.0
C42 C 0.12508 0.02859 0.90447 0.0
C43 C 0.13129 0.0119 0.92373 0.0
N44 N 0.1293 0.01337 0.80893 0.0
N45 N 0.12412 0.02887 0.83453 0.0
C46 C 0.13913 0.98347 0.85382 0.0
H47 H 0.13466 0.97808 0.80323 0.0
H48 H 0.15386 0.98246 0.85544 0.0
H49 H 0.13362 0.97524 0.8967 0.0
C50 C 0.1775 -0.00059 0.61897 0.0
N51 N 0.15967 0.00071 0.6248 0.0
N52 N 0.15561 0.00644 0.68753 0.0
C53 C 0.17081 0.00949 0.72297 0.0
C54 C 0.18512 0.00486 0.68119 0.0
C55 C 0.18687 0.99248 0.55584 0.0
H56 H 0.18737 0.00317 0.51597 0.0
H57 H 0.17931 0.9811 0.53369 0.0
H58 H 0.20067 0.9882 0.56821 0.0
O59 O 0.12555 0.01771 0.5519 0.0
O60 O 0.11951 0.02747 0.65842 0.0
H61 H 0.16083 0.02798 0.79913 0.0
H62 H 0.18475 0.0255 0.7988 0.0
C63 C 0.17189 0.01834 0.79272 0.0
H64 H 0.1711 0.00814 0.83423 0.0
H65 H 0.12014 0.03971 0.80422 0.0
O66 O 0.1503 0.9928 0.46576 0.0
C67 C 0.11812 0.02882 0.59261 0.0
Co68 Co 0.50135 0.1393 0.07741 0.0
Co69 Co 0.48949 0.12881 0.22814 0.0
C70 C 0.52378 0.11587 0.1677 0.0
O71 O 0.52172 0.12492 0.11228 0.0
O72 O 0.51207 0.11578 0.21552 0.0
C73 C 0.51321 0.13583 0.94272 0.0
O74 O 0.51771 0.12037 0.96955 0.0
C75 C 0.49269 0.1254 0.37918 0.0
C76 C 0.46492 0.12974 0.41375 0.0
C77 C 0.48218 0.12753 0.43794 0.0
N78 N 0.4822 0.1269 0.32279 0.0
N79 N 0.46557 0.12913 0.34377 0.0
C80 C 0.51235 0.12194 0.37591 0.0
H81 H 0.51906 0.13311 0.34861 0.0
H82 H 0.51828 0.12008 0.42822 0.0
H83 H 0.51477 0.10963 0.34541 0.0
C84 C 0.4957 0.17561 0.13277 0.0
N85 N 0.49595 0.15778 0.13972 0.0
N86 N 0.49219 0.15349 0.20443 0.0
C87 C 0.49025 0.16858 0.24172 0.0
C88 C 0.49213 0.18315 0.1974 0.0
C89 C 0.49784 0.18498 0.06454 0.0
H90 H 0.49179 0.17694 0.02229 0.0
H91 H 0.51226 0.18655 0.05316 0.0
H92 H 0.49146 0.19832 0.0654 0.0
O93 O 0.48018 0.12439 0.06412 0.0
O94 O 0.47091 0.11708 0.16994 0.0
H95 H 0.47476 0.16535 0.33432 0.0
H96 H 0.49179 0.18232 0.34109 0.0
C97 C 0.48855 0.16903 0.31934 0.0
H98 H 0.49792 0.15935 0.34258 0.0
H99 H 0.45478 0.13101 0.31027 0.0
O100 O 0.50677 0.14771 0.98257 0.0
C101 C 0.46922 0.11655 0.10404 0.0
Co102 Co 0.35677 0.50105 0.56253 0.0
Co103 Co 0.36572 0.48737 0.71202 0.0
C104 C 0.37997 0.52213 0.65328 0.0
O105 O 0.37075 0.5213 0.59783 0.0
O106 O 0.37963 0.50971 0.69842 0.0
C107 C 0.35836 0.51431 0.42612 0.0
O108 O 0.373 0.52157 0.45075 0.0
C109 C 0.36551 0.49212 0.86226 0.0
C110 C 0.36789 0.46449 0.90114 0.0
C111 C 0.36562 0.48198 0.92262 0.0
N112 N 0.36717 0.48107 0.80768 0.0
N113 N 0.36879 0.46459 0.83116 0.0
C114 C 0.36472 0.51201 0.85558 0.0
H115 H 0.37655 0.51671 0.82638 0.0
H116 H 0.35272 0.51583 0.82527 0.0
H117 H 0.36469 0.51883 0.90666 0.0
C118 C 0.32002 0.49751 0.61552 0.0
N119 N 0.33779 0.49597 0.62309 0.0
N120 N 0.34143 0.4904 0.68645 0.0
C121 C 0.32599 0.48816 0.72124 0.0
C122 C 0.312 0.49266 0.67756 0.0
C123 C 0.31113 0.50435 0.55118 0.0
H124 H 0.31773 0.51685 0.53421 0.0
H125 H 0.29671 0.50684 0.55974 0.0
H126 H 0.31277 0.49441 0.50887 0.0
O127 O 0.37266 0.48018 0.55145 0.0
O128 O 0.37685 0.46833 0.65599 0.0
H129 H 0.33339 0.46967 0.80116 0.0
H130 H 0.31061 0.47724 0.80648 0.0
C131 C 0.32448 0.4813 0.79412 0.0
H132 H 0.32854 0.49191 0.831 0.0
H133 H 0.37009 0.45339 0.79937 0.0
O134 O 0.34824 0.50578 0.46733 0.0
C135 C 0.37918 0.46813 0.59044 0.0
Co136 Co 0.9971 0.13833 0.44175 0.0
Co137 Co 0.00621 0.12955 0.28682 0.0
C138 C 0.97244 0.11697 0.35249 0.0
O139 O 0.97625 0.12446 0.40992 0.0
O140 O 0.98287 0.11777 0.30043 0.0
C141 C 0.98052 0.14037 0.57496 0.0
O142 O 0.96925 0.12893 0.54771 0.0
C143 C 0.00124 0.12806 0.13667 0.0
C144 C 0.02895 0.12953 0.09788 0.0
C145 C 0.01132 0.12919 0.07656 0.0
N146 N 0.01239 0.12819 0.1913 0.0
N147 N 0.02895 0.12879 0.16788 0.0
C148 C 0.98138 0.12654 0.14285 0.0
H149 H 0.97626 0.13707 0.17812 0.0
H150 H 0.97459 0.12737 0.09175 0.0
H151 H 0.97809 0.11347 0.16648 0.0
C152 C 0.00359 0.1751 0.39092 0.0
N153 N 0.00237 0.15738 0.38088 0.0
N154 N 0.00511 0.15379 0.3148 0.0
C155 C 0.00747 0.16919 0.27997 0.0
C156 C 0.00686 0.18323 0.32715 0.0
C157 C 0.00263 0.18377 0.46096 0.0
H158 H 0.00957 0.17538 0.49999 0.0
H159 H 0.98845 0.18495 0.47676 0.0
H160 H 0.00881 0.1972 0.46048 0.0
O161 O 0.01745 0.12206 0.44919 0.0
O162 O 0.02515 0.1167 0.33958 0.0
H163 H 0.02185 0.16578 0.1847 0.0
H164 H 0.00632 0.18423 0.18327 0.0
C165 C 0.00857 0.17047 0.20229 0.0
H166 H 0.99821 0.16192 0.17872 0.0
H167 H 0.0402 0.12927 0.19975 0.0
O168 O 0.99278 0.14687 0.53714 0.0
C169 C 0.02755 0.11468 0.40469 0.0
Co170 Co 0.36042 0.00242 0.92806 0.0
Co171 Co 0.36768 0.00944 0.77165 0.0
C172 C 0.3821 0.97721 0.84314 0.0
O173 O 0.37545 0.98194 0.90115 0.0
O174 O 0.37993 0.98647 0.78834 0.0
C175 C 0.34996 0.98561 0.05893 0.0
O176 O 0.3478 0.97044 0.02586 0.0
C177 C 0.36488 0.00167 0.62455 0.0
C178 C 0.36611 0.02853 0.57746 0.0
C179 C 0.36356 0.01067 0.56205 0.0
N180 N 0.36786 0.01368 0.67492 0.0
N181 N 0.36889 0.02969 0.64648 0.0
C182 C 0.36133 0.98232 0.63764 0.0
H183 H 0.35581 0.98037 0.69065 0.0
H184 H 0.35191 0.97685 0.59854 0.0
H185 H 0.37407 0.97486 0.63382 0.0
C186 C 0.32286 0.00425 0.88067 0.0
N187 N 0.34056 0.00505 0.8694 0.0
N188 N 0.34356 0.00844 0.80324 0.0
C189 C 0.32774 0.00988 0.77025 0.0
C190 C 0.31422 0.00715 0.81804 0.0
C191 C 0.31453 4e-05 0.9494 0.0
H192 H 0.31799 0.98617 0.96413 0.0
H193 H 0.29981 0.00138 0.94768 0.0
H194 H 0.32004 0.00905 0.9898 0.0
O195 O 0.37459 0.02435 0.92764 0.0
O196 O 0.38139 0.029 0.81679 0.0
H197 H 0.31144 0.01826 0.6832 0.0
H198 H 0.32867 0.00242 0.66302 0.0
C199 C 0.32538 0.01428 0.69485 0.0
H200 H 0.33435 0.02537 0.68022 0.0
H201 H 0.37072 0.04145 0.67457 0.0
O202 O 0.35396 -0.00035 0.02567 0.0
C203 C 0.38235 0.03333 0.88065 0.0
Co204 Co 0.49998 0.35846 0.44057 0.0
Co205 Co 0.49054 0.36646 0.2858 0.0
C206 C 0.52437 0.3795 0.34896 0.0
O207 O 0.52071 0.37223 0.40695 0.0
O208 O 0.51385 0.37844 0.29727 0.0
C209 C 0.51536 0.35903 0.57454 0.0
O210 O 0.52415 0.37261 0.54839 0.0
C211 C 0.49459 0.36808 0.13534 0.0
C212 C 0.46686 0.36433 0.09904 0.0
C213 C 0.48428 0.36596 0.07622 0.0
N214 N 0.48381 0.36723 0.1909 0.0
N215 N 0.46721 0.36528 0.16897 0.0
C216 C 0.51431 0.37114 0.13965 0.0
H217 H 0.51678 0.38408 0.16584 0.0
H218 H 0.52055 0.36054 0.17172 0.0
H219 H 0.52068 0.37162 0.0877 0.0
C220 C 0.4938 0.32142 0.39266 0.0
N221 N 0.49468 0.33911 0.38148 0.0
N222 N 0.49202 0.34236 0.31512 0.0
C223 C 0.49019 0.32677 0.28112 0.0
C224 C 0.49098 0.31292 0.32923 0.0
C225 C 0.49473 0.3131 0.46335 0.0
H226 H 0.48785 0.32172 0.50178 0.0
H227 H 0.5089 0.31186 0.47921 0.0
H228 H 0.48844 0.29971 0.46384 0.0
O229 O 0.47957 0.37462 0.44823 0.0
O230 O 0.47172 0.37947 0.33849 0.0
H231 H 0.47616 0.32862 0.1844 0.0
H232 H 0.49319 0.31155 0.18562 0.0
C233 C 0.48969 0.32516 0.20344 0.0
H234 H 0.49941 0.33448 0.18024 0.0
H235 H 0.45622 0.364 0.20185 0.0
O236 O 0.50484 0.35029 0.53565 0.0
C237 C 0.46938 0.38179 0.40346 0.0
Co238 Co 0.13882 0.499 0.93553 0.0
Co239 Co 0.12888 0.48985 0.78137 0.0
C240 C 0.11477 0.52245 0.85346 0.0
O241 O 0.12271 0.51877 0.91013 0.0
O242 O 0.11619 0.51251 0.80014 0.0
C243 C 0.14415 0.51616 0.06742 0.0
O244 O 0.13516 0.52935 0.03933 0.0
C245 C 0.13103 0.4963 0.63175 0.0
C246 C 0.12301 0.47024 0.58817 0.0
C247 C 0.12889 0.48711 0.56977 0.0
N248 N 0.12696 0.48525 0.68445 0.0
N249 N 0.12205 0.46973 0.65808 0.0
C250 C 0.13616 0.51548 0.6407 0.0
H251 H 0.13154 0.52069 0.69135 0.0
H252 H 0.15086 0.51684 0.63924 0.0
H253 H 0.1305 0.52367 0.59795 0.0
C254 C 0.17518 0.49757 0.87732 0.0
N255 N 0.15737 0.49634 0.87066 0.0
N256 N 0.15338 0.49151 0.80667 0.0
C257 C 0.16867 0.4891 0.77095 0.0
C258 C 0.18289 0.49311 0.8142 0.0
C259 C 0.18445 0.50328 0.94252 0.0
H260 H 0.18366 0.49235 0.98129 0.0
H261 H 0.17758 0.51507 0.96478 0.0
H262 H 0.19866 0.50655 0.93278 0.0
O263 O 0.12498 0.47675 0.94155 0.0
O264 O 0.1168 0.4704 0.83322 0.0
H265 H 0.15902 0.4718 0.69002 0.0
H266 H 0.18291 0.47455 0.69169 0.0
C267 C 0.16995 0.48144 0.69919 0.0
H268 H 0.16912 0.49229 0.66033 0.0
H269 H 0.11831 0.45872 0.68786 0.0
O270 O 0.14806 0.50267 0.0305 0.0
C271 C 0.1168 0.46693 0.89808 0.0
Co272 Co 0.00193 0.64286 0.93754 0.0
Co273 Co 0.98781 0.63334 0.7893 0.0
C274 C 0.02255 0.61894 0.84925 0.0
O275 O 0.02208 0.62867 0.90336 0.0
O276 O 0.00995 0.61905 0.80476 0.0
C277 C 0.01492 0.64138 0.07408 0.0
O278 O 0.02213 0.6267 0.04967 0.0
C279 C 0.99264 0.63503 0.63876 0.0
C280 C 0.96572 0.62859 0.59934 0.0
C281 C 0.9827 0.63347 0.5781 0.0
N282 N 0.98191 0.63162 0.69318 0.0
N283 N 0.96587 0.62767 0.6693 0.0
C284 C 0.01214 0.63912 0.64523 0.0
H285 H 0.0176 0.63385 0.6945 0.0
H286 H 0.01415 0.65375 0.6454 0.0
H287 H 0.01964 0.63338 0.60081 0.0
C288 C -0.00138 0.67939 0.88211 0.0
N289 N 0.99703 0.66161 0.87579 0.0
N290 N 0.99081 0.65773 0.81359 0.0
C291 C 0.98787 0.67305 0.77876 0.0
C292 C 0.99293 0.68719 0.82067 0.0
C293 C 0.00608 0.68852 0.94486 0.0
H294 H 0.99582 0.68864 0.98643 0.0
H295 H 0.01778 0.681 0.96459 0.0
H296 H 0.01006 0.70245 0.93304 0.0
O297 O 0.98089 0.62716 0.94908 0.0
O298 O 0.96863 0.62259 0.84547 0.0
H299 H 0.96864 0.66394 0.70384 0.0
H300 H 0.97269 0.68764 0.70203 0.0
C301 C 0.979 0.67438 0.70914 0.0
H302 H 0.98907 0.67261 0.6676 0.0
H303 H 0.95497 0.62459 0.70079 0.0
O304 O 0.00656 0.65158 0.0326 0.0
C305 C 0.96864 0.62055 0.91119 0.0
Co306 Co 0.85471 -0.00026 0.4126 0.0
Co307 Co 0.8668 0.98806 0.26279 0.0
C308 C 0.87878 0.02252 0.32984 0.0
O309 O 0.86917 0.02042 0.38368 0.0
O310 O 0.87931 0.01087 0.28173 0.0
C311 C 0.85221 0.01466 0.54814 0.0
O312 O 0.86438 0.02551 0.52329 0.0
C313 C 0.86532 0.99368 0.11257 0.0
C314 C 0.87413 0.96767 0.0711 0.0
C315 C 0.86776 0.98425 0.05119 0.0
N316 N 0.86962 0.983 0.16622 0.0
N317 N 0.87505 0.96753 0.14109 0.0
C318 C 0.8595 0.01269 0.12037 0.0
H319 H 0.86497 0.01857 0.16863 0.0
H320 H 0.84476 0.01333 0.12376 0.0
H321 H 0.86385 0.02074 0.075 0.0
C322 C 0.8191 0.996 0.34867 0.0
N323 N 0.837 0.99508 0.34603 0.0
N324 N 0.84196 0.98933 0.28427 0.0
C325 C 0.82723 0.98584 0.24635 0.0
C326 C 0.81234 0.99023 0.28541 0.0
C327 C 0.80887 0.0029 0.40977 0.0
H328 H 0.81632 0.01396 0.43481 0.0
H329 H 0.79543 0.00761 0.39407 0.0
H330 H 0.80735 0.99203 0.44847 0.0
O331 O 0.87007 0.97845 0.42376 0.0
O332 O 0.87863 0.96943 0.31877 0.0
H333 H 0.81453 0.96926 0.16915 0.0
H334 H 0.82809 0.98685 0.13504 0.0
C335 C 0.82713 0.97677 0.17693 0.0
H336 H 0.83848 0.96739 0.17281 0.0
H337 H 0.879 0.95675 0.17176 0.0
O338 O 0.84493 0.00346 0.5074 0.0
C339 C 0.87856 0.96771 0.38466 0.0
Co340 Co 0.49285 0.85473 0.9266 0.0
Co341 Co 0.50712 0.86449 0.77865 0.0
C342 C 0.47244 0.87901 0.83874 0.0
O343 O 0.47286 0.86925 0.89277 0.0
O344 O 0.48503 0.87882 0.79428 0.0
C345 C 0.47965 0.85594 0.06318 0.0
O346 O 0.4722 0.87051 0.03882 0.0
C347 C 0.50217 0.8628 0.62819 0.0
C348 C 0.52889 0.86974 0.58826 0.0
C349 C 0.51196 0.86458 0.5673 0.0
N350 N 0.51292 0.86635 0.68243 0.0
N351 N 0.52885 0.8706 0.65824 0.0
C352 C 0.48275 0.85837 0.63506 0.0
H353 H 0.47732 0.86342 0.68471 0.0
H354 H 0.48098 0.8437 0.63472 0.0
H355 H 0.47506 0.86409 0.59104 0.0
C356 C 0.49585 0.81829 0.86942 0.0
N357 N 0.49758 0.83608 0.86402 0.0
N358 N 0.50398 0.84009 0.80225 0.0
C359 C 0.50697 0.82486 0.76693 0.0
C360 C 0.50168 0.81062 0.80788 0.0
C361 C 0.48817 0.80901 0.93144 0.0
H362 H 0.47682 0.81683 0.95239 0.0
H363 H 0.48365 0.79534 0.9182 0.0
H364 H 0.49853 0.80818 0.97258 0.0
O365 O 0.51409 0.87016 0.9387 0.0
O366 O 0.52638 0.87497 0.83533 0.0
H367 H 0.52648 0.83427 0.69372 0.0
H368 H 0.52281 0.81052 0.69164 0.0
C369 C 0.51626 0.82368 0.69811 0.0
H370 H 0.5064 0.82526 0.65564 0.0
H371 H 0.53975 0.87385 0.68954 0.0
O372 O 0.48819 0.8459 0.02165 0.0
C373 C 0.5264 0.87677 0.90117 0.0
Co374 Co 0.64129 0.49674 0.41387 0.0
Co375 Co 0.63034 0.5081 0.26294 0.0
C376 C 0.61794 0.47383 0.32466 0.0
O377 O 0.62704 0.47617 0.37983 0.0
O378 O 0.61764 0.48539 0.27631 0.0
C379 C 0.63817 0.48469 0.54848 0.0
O380 O 0.62281 0.47986 0.52158 0.0
C381 C 0.62676 0.50473 0.112 0.0
C382 C 0.6307 0.53252 0.07704 0.0
C383 C 0.6287 0.51522 0.0531 0.0
N384 N 0.62817 0.51527 0.16824 0.0
N385 N 0.63016 0.53191 0.14703 0.0
C386 C 0.62359 0.48503 0.11553 0.0
H387 H 0.61133 0.48246 0.14613 0.0
H388 H 0.63487 0.4785 0.14289 0.0
H389 H 0.62181 0.47904 0.06328 0.0
C390 C 0.67744 0.50245 0.35696 0.0
N391 N 0.65958 0.50217 0.35077 0.0
N392 N 0.6551 0.50575 0.28608 0.0
C393 C 0.6701 0.50763 0.24811 0.0
C394 C 0.68479 0.50587 0.29188 0.0
C395 C 0.68702 0.50036 0.4248 0.0
H396 H 0.67909 0.50642 0.46734 0.0
H397 H 0.68865 0.48596 0.43627 0.0
H398 H 0.70036 0.50676 0.42325 0.0
O399 O 0.6262 0.51781 0.427 0.0
O400 O 0.61842 0.52656 0.32096 0.0
H401 H 0.66643 0.52279 0.15489 0.0
H402 H 0.68361 0.50596 0.14826 0.0
C403 C 0.67034 0.5091 0.1704 0.0
H404 H 0.66072 0.49954 0.148 0.0
H405 H 0.63193 0.54275 0.18037 0.0
O406 O 0.64988 0.49149 0.50873 0.0
C407 C 0.61806 0.52848 0.38676 0.0
Co408 Co 0.99532 0.86213 0.57693 0.0
Co409 Co 0.98588 0.87022 0.73122 0.0
C410 C 0.01905 0.88448 0.66334 0.0
O411 O 0.01614 0.87631 0.60646 0.0
O412 O 0.00823 0.88367 0.71423 0.0
C413 C 0.0119 0.85204 0.44372 0.0
O414 O 0.02753 0.85084 0.47419 0.0
C415 C 0.99342 0.86825 0.87874 0.0
C416 C 0.96645 0.86865 0.92515 0.0
C417 C 0.98437 0.86677 0.94108 0.0
N418 N 0.98138 0.8707 0.82795 0.0
N419 N 0.96531 0.87125 0.85599 0.0
C420 C 0.01289 0.8653 0.86619 0.0
H421 H 0.01504 0.85947 0.81381 0.0
H422 H 0.01869 0.85639 0.90639 0.0
H423 H 0.01988 0.87832 0.86847 0.0
C424 C 0.99324 0.82495 0.62618 0.0
N425 N 0.99197 0.84265 0.63614 0.0
N426 N 0.98787 0.84591 0.70151 0.0
C427 C 0.9864 0.83021 0.7353 0.0
C428 C 0.98984 0.81654 0.68884 0.0
C429 C -0.0015 0.81647 0.55884 0.0
H430 H 0.01202 0.82112 0.54419 0.0
H431 H -0.00149 0.8017 0.5624 0.0
H432 H 0.98915 0.82077 0.51736 0.0
O433 O 0.97354 0.8768 0.57462 0.0
O434 O 0.96609 0.88277 0.68382 0.0
H435 H 0.97764 0.81413 0.82235 0.0
H436 H 0.99279 0.83192 0.84344 0.0
C437 C 0.98134 0.82811 0.81016 0.0
H438 H 0.96987 0.83685 0.82239 0.0
H439 H 0.95352 0.87257 0.82756 0.0
O440 O 0.99805 0.85534 0.47931 0.0
C441 C 0.96323 0.88401 0.61882 0.0
Co442 Co 0.63612 0.99631 0.04483 0.0
Co443 Co 0.631 0.98703 0.20073 0.0
C444 C 0.6165 0.02081 0.13669 0.0
O445 O 0.62295 0.01728 0.07714 0.0
O446 O 0.61849 0.01028 0.18809 0.0
C447 C 0.64634 0.01297 0.91285 0.0
O448 O 0.65015 0.02781 0.9459 0.0
C449 C 0.63532 0.99451 0.34721 0.0
C450 C 0.63372 0.96774 0.39484 0.0
C451 C 0.63661 0.98557 0.40987 0.0
N452 N 0.63195 0.98251 0.2972 0.0
N453 N 0.63079 0.96654 0.3259 0.0
C454 C 0.63903 0.0138 0.33358 0.0
H455 H 0.64425 0.01565 0.28006 0.0
H456 H 0.64876 0.01916 0.37176 0.0
H457 H 0.62642 0.02142 0.33851 0.0
C458 C 0.67433 0.99257 0.08413 0.0
N459 N 0.65675 0.99201 0.09857 0.0
N460 N 0.65456 0.98799 0.16468 0.0
C461 C 0.67071 0.98589 0.19436 0.0
C462 C 0.68366 0.98884 0.14455 0.0
C463 C 0.68197 0.99751 0.01495 0.0
H464 H 0.67537 0.98962 0.97349 0.0
H465 H 0.67931 0.01182 0.00485 0.0
H466 H 0.69658 0.99521 0.0132 0.0
O467 O 0.6199 0.97577 0.04641 0.0
O468 O 0.61712 0.96751 0.15662 0.0
H469 H 0.66496 0.9698 0.28369 0.0
H470 H 0.6879 0.97674 0.27754 0.0
C471 C 0.67388 0.98092 0.26876 0.0
H472 H 0.67105 0.99256 0.30244 0.0
H473 H 0.62855 0.9548 0.29815 0.0
O474 O 0.64141 -0.00075 0.94626 0.0
C475 C 0.61359 0.9654 0.09242 0.0
Co476 Co 0.50207 0.63529 0.56216 0.0
Co477 Co 0.50947 0.62832 0.71848 0.0
C478 C 0.47744 0.61315 0.64775 0.0
O479 O 0.48193 0.61985 0.58954 0.0
O480 O 0.48675 0.61554 0.70231 0.0
C481 C 0.485 0.64531 0.43106 0.0
O482 O 0.46977 0.64718 0.46391 0.0
C483 C 0.50175 0.63096 0.86562 0.0
C484 C 0.52868 0.63046 0.91249 0.0
C485 C 0.51076 0.63251 0.92805 0.0
N486 N 0.51381 0.62831 0.81516 0.0
N487 N 0.52987 0.62773 0.84346 0.0
C488 C 0.4823 0.63397 0.85267 0.0
H489 H 0.48017 0.63949 0.79976 0.0
H490 H 0.47658 0.64319 0.89193 0.0
H491 H 0.47521 0.62102 0.85632 0.0
C492 C 0.50303 0.6729 0.60904 0.0
N493 N 0.50429 0.65524 0.62051 0.0
N494 N 0.50783 0.65238 0.68667 0.0
C495 C 0.50888 0.66824 0.71945 0.0
C496 C 0.50576 0.68165 0.67153 0.0
C497 C 0.49857 0.68108 0.54026 0.0
H498 H 0.50765 0.67573 0.49979 0.0
H499 H 0.48475 0.67735 0.5258 0.0
H500 H 0.49963 0.69583 0.5418 0.0
O501 O 0.52431 0.62164 0.56246 0.0
O502 O 0.52935 0.61508 0.67324 0.0
H503 H 0.51679 0.68483 0.80634 0.0
H504 H 0.50149 0.66714 0.82671 0.0
C505 C 0.51323 0.67078 0.79482 0.0
H506 H 0.5246 0.66215 0.8095 0.0
H507 H 0.54166 0.62622 0.81527 0.0
O508 O 0.49911 0.64162 0.46453 0.0
C509 C 0.5336 0.61416 0.60927 0.0
Co510 Co 0.86119 0.49839 0.05658 0.0
Co511 Co 0.86801 0.50736 0.21119 0.0
C512 C 0.88204 0.47391 0.14439 0.0
O513 O 0.8738 0.47672 0.08755 0.0
O514 O 0.88152 0.48503 0.1944 0.0
C515 C 0.85104 0.48231 0.92316 0.0
O516 O 0.84991 0.46664 0.95335 0.0
C517 C 0.86828 0.50047 0.35999 0.0
C518 C 0.86215 0.52719 0.40241 0.0
C519 C 0.86447 0.5095 0.42082 0.0
N520 N 0.86795 0.51227 0.30754 0.0
N521 N 0.8647 0.52828 0.33328 0.0
C522 C 0.86961 0.48071 0.3501 0.0
H523 H 0.86177 0.47662 0.30378 0.0
H524 H 0.86476 0.47333 0.39639 0.0
H525 H 0.88375 0.47712 0.34056 0.0
C526 C 0.82361 0.50401 0.09948 0.0
N527 N 0.84123 0.50319 0.11267 0.0
N528 N 0.844 0.50554 0.17954 0.0
C529 C 0.82813 0.50719 0.21176 0.0
C530 C 0.81466 0.50659 0.16201 0.0
C531 C 0.81579 0.50327 0.02789 0.0
H532 H 0.82455 0.51043 0.99081 0.0
H533 H 0.81488 0.48915 0.01108 0.0
H534 H 0.80231 0.50935 0.02636 0.0
O535 O 0.87787 0.51861 0.05589 0.0
O536 O 0.88046 0.52749 0.16536 0.0
H537 H 0.82906 0.52097 0.3092 0.0
H538 H 0.81206 0.50394 0.30494 0.0
C539 C 0.82582 0.50749 0.28917 0.0
H540 H 0.83489 0.49768 0.31332 0.0
H541 H 0.86321 0.53975 0.30312 0.0
O542 O 0.85468 0.49602 0.95897 0.0
C543 C 0.88394 0.52936 0.10107 0.0
C544 C 0.95632 0.4015 0.08635 0.0
C545 C 0.95937 0.39027 0.14325 0.0
C546 C 0.94249 0.41405 0.08765 0.0
C547 C 0.93106 0.41485 0.14624 0.0
C548 C 0.93345 0.40276 0.20202 0.0
C549 C 0.94785 0.39083 0.20052 0.0
C550 C 0.94074 0.42708 0.02812 0.0
C551 C 0.92111 0.40276 0.26406 0.0
C552 C 0.91006 0.45967 0.18471 0.0
C553 C 0.89367 0.45818 0.15028 0.0
C554 C 0.92226 0.44554 0.18452 0.0
C555 C 0.91764 0.42933 0.15135 0.0
C556 C 0.90069 0.42745 0.1197 0.0
C557 C 0.88902 0.44207 0.11826 0.0
C558 C 0.94041 0.44827 0.21698 0.0
C559 C 0.89505 0.41013 0.08629 0.0
H560 H 0.96536 0.40112 0.04234 0.0
H561 H 0.95016 0.38199 0.24423 0.0
H562 H 0.92708 0.42663 0.00619 0.0
H563 H 0.94301 0.44084 0.04746 0.0
H564 H 0.95041 0.42433 0.98567 0.0
H565 H 0.92335 0.39105 0.29833 0.0
H566 H 0.92324 0.41503 0.29515 0.0
H567 H 0.907 0.40277 0.24669 0.0
H568 H 0.91369 0.4722 0.20897 0.0
H569 H 0.87626 0.44092 0.0921 0.0
H570 H 0.95091 0.44666 0.17678 0.0
H571 H 0.94287 0.43808 0.2576 0.0
H572 H 0.94185 0.46168 0.24088 0.0
H573 H 0.90313 0.40767 0.03897 0.0
H574 H 0.88074 0.41021 0.07128 0.0
H575 H 0.89744 0.39884 0.1224 0.0
C576 C 0.09539 0.95376 0.59248 0.0
C577 C 0.1051 0.95906 0.65117 0.0
C578 C 0.08212 0.94069 0.59751 0.0
C579 C 0.07899 0.93227 0.66231 0.0
C580 C 0.08942 0.93695 0.721 0.0
C581 C 0.10213 0.9506 0.71507 0.0
C582 C 0.07091 0.9365 0.53425 0.0
C583 C 0.08691 0.92778 0.79022 0.0
C584 C 0.0326 0.91373 0.69091 0.0
C585 C 0.03471 0.89611 0.66871 0.0
C586 C 0.04701 0.92562 0.68999 0.0
C587 C 0.06404 0.91944 0.66915 0.0
C588 C 0.06639 0.90135 0.65024 0.0
C589 C 0.05155 0.88996 0.64864 0.0
C590 C 0.04381 0.94495 0.70807 0.0
C591 C 0.08448 0.89413 0.63048 0.0
H592 H 0.09758 0.96045 0.54322 0.0
H593 H 0.10976 0.95465 0.76032 0.0
H594 H 0.07169 0.92209 0.52183 0.0
H595 H 0.05672 0.93963 0.54522 0.0
H596 H 0.07515 0.94419 0.48771 0.0
H597 H 0.09742 0.93151 0.82827 0.0
H598 H 0.07375 0.9314 0.81242 0.0
H599 H 0.08705 0.91309 0.78329 0.0
H600 H 0.01947 0.91843 0.70586 0.0
H601 H 0.0531 0.87623 0.63201 0.0
H602 H 0.04699 0.95346 0.66249 0.0
H603 H 0.05272 0.94912 0.75112 0.0
H604 H 0.02979 0.94753 0.72378 0.0
H605 H 0.08876 0.89994 0.58014 0.0
H606 H 0.08443 0.87937 0.62542 0.0
H607 H 0.09456 0.89799 0.67003 0.0
C608 C 0.59344 0.04132 0.09069 0.0
C609 C 0.60513 0.03666 0.14449 0.0
C610 C 0.58126 0.05529 0.09886 0.0
C611 C 0.58124 0.06525 0.16145 0.0
C612 C 0.59362 0.06112 0.21476 0.0
C613 C 0.60521 0.04659 0.20618 0.0
C614 C 0.56791 0.0589 0.04162 0.0
C615 C 0.59443 0.07188 0.28104 0.0
C616 C 0.55571 0.10861 0.14446 0.0
C617 C 0.53928 0.10393 0.17384 0.0
C618 C 0.57001 0.09654 0.14457 0.0
C619 C 0.56749 0.07921 0.17205 0.0
C620 C 0.55104 0.07464 0.2035 0.0
C621 C 0.53723 0.0872 0.20514 0.0
C622 C 0.58758 0.10211 0.11308 0.0
C623 C 0.54762 0.05612 0.23139 0.0
H624 H 0.59329 0.0335 0.04323 0.0
H625 H 0.6144 0.04304 0.24746 0.0
H626 H 0.55416 0.05723 0.062 0.0
H627 H 0.56916 0.07284 0.0232 0.0
H628 H 0.56968 0.04984 -0.00359 0.0
H629 H 0.606 0.06812 0.31402 0.0
H630 H 0.5953 0.08631 0.26876 0.0
H631 H 0.58205 0.06984 0.31157 0.0
H632 H 0.55732 0.12164 0.12088 0.0
H633 H 0.52447 0.08356 0.22748 0.0
H634 H 0.58952 0.09522 0.0626 0.0
H635 H 0.5988 0.0982 0.14755 0.0
H636 H 0.58822 0.11672 0.10388 0.0
H637 H 0.54817 0.04636 0.18804 0.0
H638 H 0.5344 0.055 0.25711 0.0
H639 H 0.55807 0.05232 0.26935 0.0
C640 C 0.38868 0.55388 0.63461 0.0
C641 C 0.39251 0.53706 0.66249 0.0
C642 C 0.4013 0.56767 0.63738 0.0
C643 C 0.41832 0.56428 0.66634 0.0
C644 C 0.42207 0.54743 0.69613 0.0
C645 C 0.40898 0.5341 0.69488 0.0
C646 C 0.39662 0.58567 0.60737 0.0
C647 C 0.44023 0.54312 0.72573 0.0
C648 C 0.4575 0.5904 0.59521 0.0
C649 C 0.46163 0.60157 0.65128 0.0
C650 C 0.44335 0.57826 0.59941 0.0
C651 C 0.43273 0.57775 0.66029 0.0
C652 C 0.43642 0.58953 0.71602 0.0
C653 C 0.45107 0.6011 0.71135 0.0
C654 C 0.44017 0.56556 0.53967 0.0
C655 C 0.425 0.58978 0.78069 0.0
H656 H 0.37586 0.55621 0.61008 0.0
H657 H 0.41199 0.52104 0.716 0.0
H658 H 0.40033 0.59642 0.64429 0.0
H659 H 0.40427 0.58791 0.55878 0.0
H660 H 0.38218 0.58682 0.59522 0.0
H661 H 0.44073 0.52962 0.74946 0.0
H662 H 0.45037 0.54381 0.68378 0.0
H663 H 0.44403 0.55305 0.76579 0.0
H664 H 0.46579 0.59067 0.54899 0.0
H665 H 0.4542 0.60989 0.75444 0.0
H666 H 0.42645 0.56724 0.51917 0.0
H667 H 0.44139 0.5516 0.55819 0.0
H668 H 0.44975 0.56762 0.49631 0.0
H669 H 0.41075 0.59133 0.76634 0.0
H670 H 0.42878 0.60073 0.81671 0.0
H671 H 0.4263 0.57693 0.80875 0.0
C672 C 0.88541 0.05456 0.35327 0.0
C673 C 0.89064 0.0381 0.3256 0.0
C674 C 0.89719 0.06911 0.35366 0.0
C675 C 0.91477 0.06682 0.32842 0.0
C676 C 0.91999 0.05026 0.29948 0.0
C677 C 0.90773 0.03619 0.29727 0.0
C678 C 0.89096 0.08676 0.38248 0.0
C679 C 0.93879 0.04711 0.27403 0.0
C680 C 0.94643 0.10478 0.28695 0.0
C681 C 0.95646 0.10567 0.34833 0.0
C682 C 0.93207 0.09288 0.28106 0.0
C683 C 0.9282 0.08119 0.33689 0.0
C684 C 0.93811 0.08233 0.39946 0.0
C685 C 0.95193 0.0948 0.40482 0.0
C686 C 0.92134 0.09251 0.2146 0.0
C687 C 0.93476 0.06974 0.45941 0.0
H688 H 0.87212 0.05604 0.37467 0.0
H689 H 0.91181 0.0234 0.27641 0.0
H690 H 0.89784 0.08952 0.43241 0.0
H691 H 0.89441 0.09772 0.34611 0.0
H692 H 0.87634 0.08695 0.39183 0.0
H693 H 0.94059 0.03354 0.25204 0.0
H694 H 0.94234 0.05702 0.23355 0.0
H695 H 0.94831 0.04886 0.31775 0.0
H696 H 0.94986 0.11336 0.24359 0.0
H697 H 0.95982 0.09542 0.45207 0.0
H698 H 0.90686 0.09286 0.22648 0.0
H699 H 0.924 0.07994 0.18608 0.0
H700 H 0.92462 0.10388 0.17987 0.0
H701 H 0.92065 0.07053 0.47621 0.0
H702 H 0.94342 0.07265 0.50492 0.0
H703 H 0.93726 0.05582 0.44242 0.0
C704 C 0.4407 0.88792 0.85635 0.0
C705 C 0.45769 0.8918 0.83018 0.0
C706 C 0.427 0.90064 0.85365 0.0
C707 C 0.43065 0.9178 0.82647 0.0
C708 C 0.4477 0.92162 0.79857 0.0
C709 C 0.46094 0.90844 0.79975 0.0
C710 C 0.40881 0.8959 0.88167 0.0
C711 C 0.45225 0.9399 0.77086 0.0
C712 C 0.39425 0.95085 0.77969 0.0
C713 C 0.39348 0.96123 0.84021 0.0
C714 C 0.40577 0.93615 0.77541 0.0
C715 C 0.41717 0.9322 0.8321 0.0
C716 C 0.4163 0.9426 0.89351 0.0
C717 C 0.40424 0.95682 0.89721 0.0
C718 C 0.40591 0.92499 0.71004 0.0
C719 C 0.42858 0.93912 0.95437 0.0
H720 H 0.43816 0.87497 0.87935 0.0
H721 H 0.47413 0.91149 0.77996 0.0
H722 H 0.40627 0.90341 0.93037 0.0
H723 H 0.3983 0.89975 0.84387 0.0
H724 H 0.40756 0.88144 0.893 0.0
H725 H 0.46593 0.9405 0.74883 0.0
H726 H 0.44264 0.94389 0.72988 0.0
H727 H 0.45123 0.94985 0.81341 0.0
H728 H 0.3858 0.9542 0.73583 0.0
H729 H 0.40374 0.96496 0.9438 0.0
H730 H 0.40431 0.91068 0.72334 0.0
H731 H 0.41892 0.92643 0.68322 0.0
H732 H 0.39516 0.92888 0.67329 0.0
H733 H 0.42679 0.9253 0.97355 0.0
H734 H 0.42619 0.94846 -0.00176 0.0
H735 H 0.44266 0.94046 0.93748 0.0
C736 C 0.58933 0.45993 0.28931 0.0
C737 C 0.60625 0.45814 0.31935 0.0
C738 C 0.57708 0.44585 0.2911 0.0
C739 C 0.58216 0.4294 0.32131 0.0
C740 C 0.59964 0.42719 0.34788 0.0
C741 C 0.61139 0.44176 0.34796 0.0
C742 C 0.55839 0.44893 0.26428 0.0
C743 C 0.60574 0.40964 0.37795 0.0
C744 C 0.54481 0.40201 0.39927 0.0
C745 C 0.54031 0.39082 0.34371 0.0
C746 C 0.55865 0.41443 0.39301 0.0
C747 C 0.56863 0.41516 0.33055 0.0
C748 C 0.56476 0.40318 0.27565 0.0
C749 C 0.55034 0.39136 0.28234 0.0
C750 C 0.56197 0.42736 0.4519 0.0
C751 C 0.57557 0.40311 0.20943 0.0
H752 H 0.58534 0.47266 0.26764 0.0
H753 H 0.62456 0.44038 0.37063 0.0
H754 H 0.55489 0.43877 0.22472 0.0
H755 H 0.54873 0.44756 0.30768 0.0
H756 H 0.55675 0.46236 0.24073 0.0
H757 H 0.62036 0.40939 0.38724 0.0
H758 H 0.59889 0.40718 0.42814 0.0
H759 H 0.60219 0.39852 0.34245 0.0
H760 H 0.5369 0.40167 0.44647 0.0
H761 H 0.54691 0.38256 0.23967 0.0
H762 H 0.55973 0.4412 0.43346 0.0
H763 H 0.57602 0.42647 0.46956 0.0
H764 H 0.55312 0.42486 0.49721 0.0
H765 H 0.57301 0.41552 0.17974 0.0
H766 H 0.57227 0.39155 0.17564 0.0
H767 H 0.59003 0.40276 0.2217 0.0
C768 C 0.03399 0.58921 0.81415 0.0
C769 C 0.03735 0.60625 0.8408 0.0
C770 C 0.04738 0.57618 0.81337 0.0
C771 C 0.06467 0.58057 0.83756 0.0
C772 C 0.06837 0.59807 0.86097 0.0
C773 C 0.05453 0.61064 0.86362 0.0
C774 C 0.04278 0.55752 0.78996 0.0
C775 C 0.0868 0.6034 0.88476 0.0
C776 C 0.09291 0.54288 0.9089 0.0
C777 C 0.10293 0.53807 0.85042 0.0
C778 C 0.08046 0.55678 0.90546 0.0
C779 C 0.0785 0.56647 0.84268 0.0
C780 C 0.08915 0.56214 0.78431 0.0
C781 C 0.10104 0.54774 0.78849 0.0
C782 C 0.06897 0.56066 0.96819 0.0
C783 C 0.08785 0.57258 0.71734 0.0
H784 H 0.02063 0.58579 0.79712 0.0
H785 H 0.05712 0.62389 0.88376 0.0
H786 H 0.05185 0.55323 0.74759 0.0
H787 H 0.04465 0.54809 0.83387 0.0
H788 H 0.02881 0.55643 0.7712 0.0
H789 H 0.08792 0.61798 0.89375 0.0
H790 H 0.09012 0.59641 0.93393 0.0
H791 H 0.09688 0.59937 0.84553 0.0
H792 H 0.09429 0.53529 0.95662 0.0
H793 H 0.10892 0.54408 0.74343 0.0
H794 H 0.0547 0.55888 0.95448 0.0
H795 H 0.07073 0.5747 0.98482 0.0
H796 H 0.07215 0.55183 0.01292 0.0
H797 H 0.07453 0.57059 0.69354 0.0
H798 H 0.09817 0.56851 0.67903 0.0
H799 H 0.08932 0.58705 0.72799 0.0
C800 C 0.05761 0.38444 0.02857 0.0
C801 C 0.04617 0.39057 0.08096 0.0
C802 C 0.07064 0.39565 -9e-05 0.0
C803 C 0.07174 0.41356 0.02249 0.0
C804 C 0.06045 0.41969 0.07659 0.0
C805 C 0.04797 0.40798 0.10606 0.0
C806 C 0.08286 0.38845 0.94418 0.0
C807 C 0.06095 0.43883 0.10088 0.0
C808 C 0.11191 0.44263 0.98418 0.0
C809 C 0.10617 0.45194 0.92505 0.0
C810 C 0.10114 0.42954 0.01486 0.0
C811 C 0.08399 0.42617 0.98705 0.0
C812 C 0.07827 0.43534 0.92656 0.0
C813 C 0.08958 0.44793 0.89556 0.0
C814 C 0.10795 0.41958 0.07776 0.0
C815 C 0.05991 0.4324 0.8963 0.0
H816 H 0.05623 0.37091 0.00951 0.0
H817 H 0.03895 0.41273 0.14607 0.0
H818 H 0.07969 0.39482 0.8936 0.0
H819 H 0.09694 0.3917 0.95663 0.0
H820 H 0.0816 0.37378 0.93808 0.0
H821 H 0.05157 0.44135 0.1445 0.0
H822 H 0.0746 0.44245 0.11798 0.0
H823 H 0.05741 0.44779 0.05703 0.0
H824 H 0.12481 0.44569 0.00672 0.0
H825 H 0.08508 0.45528 0.85025 0.0
H826 H 0.10648 0.405 0.0699 0.0
H827 H 0.09993 0.42321 0.12412 0.0
H828 H 0.12217 0.42258 0.08887 0.0
H829 H 0.05806 0.41815 0.88277 0.0
H830 H 0.05755 0.44055 0.84893 0.0
H831 H 0.04964 0.43584 0.93561 0.0
C832 C 0.09704 0.03891 0.50114 0.0
C833 C 0.10656 0.04266 0.56218 0.0
C834 C 0.08493 0.05123 0.47352 0.0
C835 C 0.08274 0.06794 0.50654 0.0
C836 C 0.0929 0.07212 0.56654 0.0
C837 C 0.10448 0.05926 0.59451 0.0
C838 C 0.07392 0.04603 0.41088 0.0
C839 C 0.09131 0.09003 0.60179 0.0
C840 C 0.05884 0.10335 0.40024 0.0
C841 C 0.04181 0.1029 0.42998 0.0
C842 C 0.07255 0.09247 0.42623 0.0
C843 C 0.06884 0.08043 0.48116 0.0
C844 C 0.05153 0.07979 0.51044 0.0
C845 C 0.03832 0.09129 0.48532 0.0
C846 C 0.091 0.09391 0.39538 0.0
C847 C 0.04685 0.06669 0.5673 0.0
H848 H 0.09852 0.026 0.47642 0.0
H849 H 0.11196 0.0622 0.6414 0.0
H850 H 0.05958 0.04586 0.42513 0.0
H851 H 0.07557 0.05596 0.36868 0.0
H852 H 0.07759 0.03268 0.39033 0.0
H853 H 0.10151 0.09187 0.64312 0.0
H854 H 0.09274 0.1009 0.56302 0.0
H855 H 0.07792 0.09137 0.62563 0.0
H856 H 0.06151 0.11251 0.35784 0.0
H857 H 0.02507 0.09091 0.50787 0.0
H858 H 0.09478 0.08113 0.3705 0.0
H859 H 0.10088 0.09656 0.43713 0.0
H860 H 0.09193 0.10469 0.35589 0.0
H861 H 0.04956 0.05289 0.5494 0.0
H862 H 0.03263 0.06762 0.58309 0.0
H863 H 0.05529 0.06911 0.61375 0.0
C864 C 0.4489 0.09023 0.10206 0.0
C865 C 0.4547 0.10619 0.07196 0.0
C866 C 0.43654 0.07931 0.06759 0.0
C867 C 0.42944 0.08483 0.00269 0.0
C868 C 0.43468 0.10133 0.97366 0.0
C869 C 0.44748 0.11169 0.00815 0.0
C870 C 0.43156 0.06159 0.0994 0.0
C871 C 0.42698 0.10793 0.90576 0.0
C872 C 0.4117 0.04857 0.88371 0.0
C873 C 0.3937 0.04822 0.90268 0.0
C874 C 0.42349 0.06068 0.91503 0.0
C875 C 0.4169 0.07305 0.96449 0.0
C876 C 0.39847 0.07345 0.98024 0.0
C877 C 0.38714 0.06074 0.9502 0.0
C878 C 0.44313 0.05953 0.89827 0.0
C879 C 0.39084 0.08688 0.03058 0.0
H880 H 0.45463 0.08591 0.15106 0.0
H881 H 0.45189 0.12412 0.98508 0.0
H882 H 0.41695 0.06092 0.10794 0.0
H883 H 0.43512 0.05064 0.06313 0.0
H884 H 0.43838 0.05923 0.14988 0.0
H885 H 0.43137 0.12171 0.89325 0.0
H886 H 0.43113 0.09901 0.8627 0.0
H887 H 0.41219 0.10766 0.90788 0.0
H888 H 0.41674 0.03864 0.84771 0.0
H889 H 0.37317 0.06037 0.96472 0.0
H890 H 0.45065 0.0558 0.94582 0.0
H891 H 0.44821 0.07269 0.881 0.0
H892 H 0.44599 0.04956 0.85704 0.0
H893 H 0.39556 0.08389 0.084 0.0
H894 H 0.37602 0.08678 0.03068 0.0
H895 H 0.3955 0.1005 0.01729 0.0
C896 C 0.4009 0.45857 0.50028 0.0
C897 C 0.39061 0.45435 0.55885 0.0
C898 C 0.41293 0.44622 0.47228 0.0
C899 C 0.41426 0.42905 0.50233 0.0
C900 C 0.40328 0.42444 0.55953 0.0
C901 C 0.39179 0.43729 0.588 0.0
C902 C 0.42479 0.45185 0.41269 0.0
C903 C 0.40396 0.40607 0.59151 0.0
C904 C 0.43847 0.39404 0.3951 0.0
C905 C 0.45511 0.39366 0.42815 0.0
C906 C 0.42478 0.40513 0.41996 0.0
C907 C 0.42814 0.41649 0.47736 0.0
C908 C 0.44505 0.41629 0.51009 0.0
C909 C 0.45822 0.40464 0.4858 0.0
C910 C 0.40673 0.4046 0.38525 0.0
C911 C 0.44936 0.42862 0.56993 0.0
H912 H 0.40009 0.47183 0.47799 0.0
H913 H 0.3837 0.43398 0.63291 0.0
H914 H 0.43894 0.45155 0.42964 0.0
H915 H 0.42347 0.44241 0.36861 0.0
H916 H 0.42164 0.46548 0.39376 0.0
H917 H 0.3932 0.40401 0.63042 0.0
H918 H 0.40275 0.39574 0.55047 0.0
H919 H 0.41699 0.40406 0.61763 0.0
H920 H 0.43606 0.38541 0.35085 0.0
H921 H 0.47117 0.40442 0.51093 0.0
H922 H 0.40362 0.41778 0.36213 0.0
H923 H 0.39625 0.40174 0.42445 0.0
H924 H 0.40602 0.39435 0.34362 0.0
H925 H 0.44725 0.44268 0.55389 0.0
H926 H 0.46333 0.42712 0.58826 0.0
H927 H 0.44029 0.42596 0.61425 0.0
C928 C 0.89502 0.56075 0.10831 0.0
C929 C 0.89573 0.54384 0.07759 0.0
C930 C 0.90582 0.57468 0.08355 0.0
C931 C 0.91796 0.57133 0.02865 0.0
C932 C 0.91893 0.55414 -0.00142 0.0
C933 C 0.90758 0.54069 0.02267 0.0
C934 C 0.90408 0.59299 0.11538 0.0
C935 C 0.9321 0.54987 0.94147 0.0
C936 C 0.93809 0.60717 0.9139 0.0
C937 C 0.95493 0.6093 0.94433 0.0
C938 C 0.92546 0.59561 0.94336 0.0
C939 C 0.93005 0.58557 0.00316 0.0
C940 C 0.94691 0.58798 0.03486 0.0
C941 C 0.95905 0.60001 0.00558 0.0
C942 C 0.9074 0.59376 0.90936 0.0
C943 C 0.95251 0.57716 0.09745 0.0
H944 H 0.88571 0.56318 0.1504 0.0
H945 H 0.9082 0.52754 -0.00067 0.0
H946 H 0.91694 0.59709 0.13897 0.0
H947 H 0.90085 0.60288 0.07432 0.0
H948 H 0.89358 0.59352 0.15604 0.0
H949 H 0.93155 0.53565 0.92547 0.0
H950 H 0.92938 0.55827 0.89519 0.0
H951 H 0.94585 0.55294 0.95915 0.0
H952 H 0.93483 0.61448 0.86693 0.0
H953 H 0.97211 0.60155 0.02903 0.0
H954 H 0.89668 0.59481 0.94892 0.0
H955 H 0.90624 0.58042 0.88485 0.0
H956 H 0.90514 0.60404 0.86872 0.0
H957 H 0.94247 0.57832 0.13953 0.0
H958 H 0.96567 0.58138 0.11824 0.0
H959 H 0.95332 0.56286 0.0829 0.0
C960 C 0.93764 0.88812 0.53864 0.0
C961 C 0.94827 0.89472 0.59272 0.0
C962 C 0.92471 0.8989 0.50698 0.0
C963 C 0.92297 0.91689 0.52806 0.0
C964 C 0.93344 0.92348 0.58385 0.0
C965 C 0.94579 0.91216 0.61645 0.0
C966 C 0.91332 0.8912 0.44958 0.0
C967 C 0.93234 0.94273 0.60646 0.0
C968 C 0.90635 0.94974 0.39266 0.0
C969 C 0.88926 0.95361 0.41761 0.0
C970 C 0.91749 0.93782 0.42835 0.0
C971 C 0.91108 0.92912 0.48883 0.0
C972 C 0.89352 0.93243 0.5124 0.0
C973 C 0.88292 0.94493 0.47722 0.0
C974 C 0.93632 0.93502 0.40272 0.0
C975 C 0.88599 0.9229 0.57505 0.0
H976 H 0.93961 0.87457 0.5206 0.0
H977 H 0.95422 0.91725 0.65776 0.0
H978 H 0.89906 0.89441 0.45863 0.0
H979 H 0.91715 0.89721 0.39904 0.0
H980 H 0.91478 0.8765 0.44546 0.0
H981 H 0.941 0.94559 0.65203 0.0
H982 H 0.93645 0.9515 0.56282 0.0
H983 H 0.91841 0.94627 0.61995 0.0
H984 H 0.91129 0.95664 0.34701 0.0
H985 H 0.86964 0.94791 0.49622 0.0
H986 H 0.93852 0.92076 0.39017 0.0
H987 H 0.94594 0.93866 0.44429 0.0
H988 H 0.93934 0.94308 0.3557 0.0
H989 H 0.88761 0.90828 0.56902 0.0
H990 H 0.87163 0.9259 0.58311 0.0
H991 H 0.89341 0.92689 0.62247 0.0
C992 C 0.60147 0.93439 0.10093 0.0
C993 C 0.60126 0.95128 0.06989 0.0
C994 C 0.59021 0.92077 0.07649 0.0
C995 C 0.57813 0.92444 0.02159 0.0
C996 C 0.57762 0.94164 0.99145 0.0
C997 C 0.5894 0.95475 0.01523 0.0
C998 C 0.59143 0.90244 0.10842 0.0
C999 C 0.56456 0.94626 0.93435 0.0
C1000 C 0.55727 0.88935 0.90527 0.0
C1001 C 0.54032 0.88763 0.93503 0.0
C1002 C 0.57017 0.90047 0.93561 0.0
C1003 C 0.56575 0.9105 0.99563 0.0
C1004 C 0.54877 0.90849 0.02667 0.0
C1005 C 0.53634 0.89688 -0.00349 0.0
C1006 C 0.58834 0.9019 0.90224 0.0
C1007 C 0.54334 0.91933 0.08942 0.0
H1008 H 0.61076 0.93172 0.14286 0.0
H1009 H 0.58915 0.96788 0.9917 0.0
H1010 H 0.57839 0.89859 0.13114 0.0
H1011 H 0.59463 0.89249 0.06754 0.0
H1012 H 0.60176 0.90169 0.14976 0.0
H1013 H 0.56539 0.96049 0.91869 0.0
H1014 H 0.56713 0.93789 0.88789 0.0
H1015 H 0.55074 0.94344 0.95181 0.0
H1016 H 0.56042 0.88206 0.85816 0.0
H1017 H 0.5232 0.89564 0.01946 0.0
H1018 H 0.59895 0.90053 0.94213 0.0
H1019 H 0.58988 0.91522 0.878 0.0
H1020 H 0.59041 0.8916 0.8615 0.0
H1021 H 0.55334 0.91795 0.13157 0.0
H1022 H 0.53009 0.91531 0.10999 0.0
H1023 H 0.54278 0.93365 0.07509 0.0
C1024 C 0.61362 0.55129 0.47897 0.0
C1025 C 0.6075 0.54289 0.41835 0.0
C1026 C 0.60313 0.56402 0.51327 0.0
C1027 C 0.58589 0.5679 0.4876 0.0
C1028 C 0.57971 0.55954 0.42599 0.0
C1029 C 0.59075 0.54733 0.39135 0.0
C1030 C 0.61042 0.57314 0.57729 0.0
C1031 C 0.56121 0.56302 0.39801 0.0
C1032 C 0.55054 0.5857 0.61058 0.0
C1033 C 0.54881 0.60325 0.58694 0.0
C1034 C 0.56289 0.57408 0.57969 0.0
C1035 C 0.57409 0.58044 0.52571 0.0
C1036 C 0.57316 0.59852 0.50516 0.0
C1037 C 0.56026 0.60963 0.5351 0.0
C1038 C 0.56318 0.55477 0.60182 0.0
C1039 C 0.58533 0.60597 0.44975 0.0
H1040 H 0.62664 0.54787 0.49959 0.0
H1041 H 0.58598 0.54065 0.3449 0.0
H1042 H 0.60929 0.58782 0.57176 0.0
H1043 H 0.6025 0.56924 0.62355 0.0
H1044 H 0.62461 0.56968 0.58705 0.0
H1045 H 0.55835 0.55519 0.35024 0.0
H1046 H 0.55114 0.55958 0.4381 0.0
H1047 H 0.55958 0.57737 0.38584 0.0
H1048 H 0.54148 0.58076 0.65006 0.0
H1049 H 0.55886 0.62326 0.51708 0.0
H1050 H 0.57689 0.5507 0.61652 0.0
H1051 H 0.55903 0.54623 0.55752 0.0
H1052 H 0.55415 0.55214 0.64645 0.0
H1053 H 0.59938 0.60222 0.46056 0.0
H1054 H 0.58444 0.62072 0.44615 0.0
H1055 H 0.58173 0.60025 0.39843 0.0
C1056 C 0.02208 0.28747 0.2536 0.0
C1057 C 0.00952 0.29306 0.20419 0.0
C1058 C 0.02248 0.26978 0.27686 0.0
C1059 C 0.01073 0.25719 0.24684 0.0
C1060 C -0.00126 0.26254 0.19389 0.0
C1061 C 0.998 0.28052 0.17432 0.0
C1062 C 0.03501 0.26472 0.33514 0.0
C1063 C 0.98652 0.24933 0.15861 0.0
C1064 C 0.02195 0.20819 0.2648 0.0
C1065 C 0.00886 0.20245 0.31171 0.0
C1066 C 0.02269 0.22597 0.24282 0.0
C1067 C 0.01069 0.23849 0.2717 0.0
C1068 C 0.9982 0.233 0.32261 0.0
C1069 C 0.99716 0.21493 0.34085 0.0
C1070 C 0.03577 0.23117 0.18664 0.0
C1071 C 0.98569 0.24612 0.35671 0.0
H1072 H 0.03132 0.29707 0.27544 0.0
H1073 H 0.98817 0.28482 0.13651 0.0
H1074 H 0.02726 0.25932 0.37959 0.0
H1075 H 0.04424 0.25407 0.31782 0.0
H1076 H 0.04303 0.27623 0.35375 0.0
H1077 H 0.97934 0.25531 0.11373 0.0
H1078 H 0.99426 0.23767 0.13994 0.0
H1079 H 0.97652 0.24433 0.19633 0.0
H1080 H 0.0313 0.19862 0.24354 0.0
H1081 H 0.98693 0.21054 0.37671 0.0
H1082 H 0.04466 0.24197 0.20531 0.0
H1083 H 0.02841 0.23643 0.1409 0.0
H1084 H 0.04413 0.21977 0.16949 0.0
H1085 H 0.99323 0.25784 0.37616 0.0
H1086 H 0.97828 0.24009 0.40084 0.0
H1087 H 0.97589 0.25105 0.31802 0.0
C1088 C 0.28336 0.0189 0.82983 0.0
C1089 C 0.29505 0.00612 0.80303 0.0
C1090 C 0.26531 0.01884 0.81078 0.0
C1091 C 0.25893 0.00553 0.76477 0.0
C1092 C 0.2707 0.99236 0.73897 0.0
C1093 C 0.28872 0.99292 0.75802 0.0
C1094 C 0.25315 0.03322 0.83858 0.0
C1095 C 0.26432 0.97779 0.69077 0.0
C1096 C 0.20935 0.99602 0.76201 0.0
C1097 C 0.20407 0.00482 0.7012 0.0
C1098 C 0.2272 0.9961 0.7833 0.0
C1099 C 0.23996 0.00542 0.74308 0.0
C1100 C 0.23463 0.01439 0.68161 0.0
C1101 C 0.21669 0.01387 0.66107 0.0
C1102 C 0.23243 0.98615 0.84848 0.0
C1103 C 0.24786 0.02464 0.63797 0.0
H1104 H 0.28848 0.02917 0.86412 0.0
H1105 H 0.29793 0.98311 0.73745 0.0
H1106 H 0.2475 0.04101 0.79473 0.0
H1107 H 0.2418 0.02713 0.86689 0.0
H1108 H 0.2602 0.0425 0.87426 0.0
H1109 H 0.27509 0.96821 0.67744 0.0
H1110 H 0.25318 0.97036 0.71524 0.0
H1111 H 0.25914 0.98372 0.64191 0.0
H1112 H 0.19948 0.98893 0.7926 0.0
H1113 H 0.21245 0.0208 0.6144 0.0
H1114 H 0.23858 0.99544 0.88644 0.0
H1115 H 0.24256 0.97587 0.83583 0.0
H1116 H 0.22086 0.97953 0.87366 0.0
H1117 H 0.25444 0.03502 0.67011 0.0
H1118 H 0.24148 0.03117 0.59243 0.0
H1119 H 0.25846 0.01556 0.61893 0.0
C1120 C 0.50118 0.28149 0.34735 0.0
C1121 C 0.48962 0.29358 0.31489 0.0
C1122 C 0.50061 0.26328 0.3311 0.0
C1123 C 0.48885 0.25723 0.27853 0.0
C1124 C 0.47708 0.26935 0.24586 0.0
C1125 C 0.47723 0.28728 0.26612 0.0
C1126 C 0.5128 0.2506 0.36934 0.0
C1127 C 0.46484 0.26356 0.18767 0.0
C1128 C 0.50293 0.21461 0.18812 0.0
C1129 C 0.49083 0.20228 0.21571 0.0
C1130 C 0.50201 0.23268 0.20628 0.0
C1131 C 0.4893 0.23833 0.25605 0.0
C1132 C 0.47716 0.22592 0.28461 0.0
C1133 C 0.47771 0.20814 0.26236 0.0
C1134 C 0.5147 0.24569 0.17243 0.0
C1135 C 0.46389 0.23128 0.33988 0.0
H1136 H 0.51094 0.28629 0.38447 0.0
H1137 H 0.46795 0.29651 0.24224 0.0
H1138 H 0.50516 0.23889 0.3883 0.0
H1139 H 0.52323 0.24557 0.33349 0.0
H1140 H 0.51946 0.25706 0.41441 0.0
H1141 H 0.45683 0.27478 0.1666 0.0
H1142 H 0.47282 0.25773 0.14468 0.0
H1143 H 0.4556 0.25304 0.20616 0.0
H1144 H 0.51326 0.21013 0.15285 0.0
H1145 H 0.46804 0.19874 0.28249 0.0
H1146 H 0.52413 0.251 0.21175 0.0
H1147 H 0.5072 0.25719 0.15085 0.0
H1148 H 0.52253 0.23945 0.12986 0.0
H1149 H 0.47098 0.23747 0.38447 0.0
H1150 H 0.45603 0.21977 0.35934 0.0
H1151 H 0.45453 0.24139 0.31903 0.0
C1152 C 0.28705 0.50461 0.74801 0.0
C1153 C 0.29297 0.4932 0.69537 0.0
C1154 C 0.26906 0.50494 0.76746 0.0
C1155 C 0.2569 0.49326 0.73433 0.0
C1156 C 0.26291 0.48165 0.68113 0.0
C1157 C 0.28093 0.48191 0.66169 0.0
C1158 C 0.26307 0.51776 0.8233 0.0
C1159 C 0.25037 0.46879 0.6456 0.0
C1160 C 0.2141 0.48267 0.83095 0.0
C1161 C 0.20187 0.49333 0.79522 0.0
C1162 C 0.2321 0.48234 0.81114 0.0
C1163 C 0.23788 0.49323 0.75532 0.0
C1164 C 0.22552 0.5042 0.71977 0.0
C1165 C 0.20757 0.50396 0.73976 0.0
C1166 C 0.24486 0.47023 0.84931 0.0
C1167 C 0.23127 0.51626 0.661 0.0
H1168 H 0.29653 0.51333 0.77368 0.0
H1169 H 0.28572 0.47303 0.62129 0.0
H1170 H 0.2523 0.52647 0.80291 0.0
H1171 H 0.25748 0.51029 0.86804 0.0
H1172 H 0.27414 0.52631 0.84237 0.0
H1173 H 0.25724 0.46048 0.60598 0.0
H1174 H 0.24419 0.45986 0.68478 0.0
H1175 H 0.23941 0.47621 0.61983 0.0
H1176 H 0.2095 0.47435 0.87345 0.0
H1177 H 0.19797 0.51222 0.71252 0.0
H1178 H 0.25565 0.4782 0.8736 0.0
H1179 H 0.25125 0.46091 0.81205 0.0
H1180 H 0.23813 0.46233 0.89052 0.0
H1181 H 0.24178 0.52554 0.67943 0.0
H1182 H 0.22002 0.52421 0.63972 0.0
H1183 H 0.23711 0.50824 0.61823 0.0
C1184 C 0.97863 0.78555 0.67595 0.0
C1185 C 0.99093 0.79743 0.70476 0.0
C1186 C 0.97888 0.76747 0.69449 0.0
C1187 C 0.99195 0.76126 0.74188 0.0
C1188 C 0.00464 0.77325 0.76987 0.0
C1189 C 0.00385 0.7913 0.75143 0.0
C1190 C 0.96497 0.7551 0.6645 0.0
C1191 C 0.01898 0.76705 0.81947 0.0
C1192 C 0.98355 0.71854 0.84208 0.0
C1193 C 0.99296 0.70619 0.80189 0.0
C1194 C 0.98296 0.73655 0.82274 0.0
C1195 C 0.9923 0.74224 0.76264 0.0
C1196 C 0.00204 0.72977 0.72255 0.0
C1197 C 0.0021 0.71181 0.74239 0.0
C1198 C 0.9722 0.74945 0.86602 0.0
C1199 C 0.01243 0.73541 0.65899 0.0
H1200 H 0.96859 0.79051 0.64024 0.0
H1201 H 0.01331 0.80066 0.77343 0.0
H1202 H 0.97151 0.74405 0.6359 0.0
H1203 H 0.95707 0.74904 0.70718 0.0
H1204 H 0.95572 0.76208 0.62848 0.0
H1205 H 0.0282 0.77798 0.8345 0.0
H1206 H 0.0128 0.76156 0.86732 0.0
H1207 H 0.02686 0.75617 0.79529 0.0
H1208 H 0.97639 0.71401 0.88777 0.0
H1209 H 0.00943 0.70213 0.71175 0.0
H1210 H 0.96192 0.75596 0.83314 0.0
H1211 H 0.98096 0.76012 0.88661 0.0
H1212 H 0.96547 0.7428 0.91049 0.0
H1213 H 0.00332 0.7414 0.61999 0.0
H1214 H 0.01958 0.72408 0.63434 0.0
H1215 H 0.02233 0.74578 0.67337 0.0
C1216 C 0.78893 -0.00152 0.19999 0.0
C1217 C 0.79364 0.98996 0.26211 0.0
C1218 C 0.77123 -0.00152 0.17666 0.0
C1219 C 0.75807 0.98956 0.2162 0.0
C1220 C 0.76285 0.98073 0.27867 0.0
C1221 C 0.78063 0.98116 0.3012 0.0
C1222 C 0.76658 0.00827 0.11045 0.0
C1223 C 0.74918 0.9709 0.3217 0.0
C1224 C 0.70966 0.0032 0.20041 0.0
C1225 C 0.70296 0.98989 0.15677 0.0
C1226 C 0.72772 0.00351 0.21871 0.0
C1227 C 0.73917 0.98997 0.19357 0.0
C1228 C 0.73245 0.97664 0.1484 0.0
C1229 C 0.71433 0.97683 0.1301 0.0
C1230 C 0.73446 0.0181 0.26609 0.0
C1231 C 0.74425 0.96189 0.12131 0.0
H1232 H 0.79907 0.0054 0.17023 0.0
H1233 H 0.78443 0.97445 0.34893 0.0
H1234 H 0.76007 -0.00093 0.07309 0.0
H1235 H 0.75691 0.01907 0.12197 0.0
H1236 H 0.77848 0.01423 0.08511 0.0
H1237 H 0.75522 0.96417 0.36748 0.0
H1238 H 0.73885 0.98034 0.34038 0.0
H1239 H 0.74233 0.96075 0.28929 0.0
H1240 H 0.70066 0.01321 0.22101 0.0
H1241 H 0.70892 0.96646 0.09692 0.0
H1242 H 0.74598 0.02497 0.24182 0.0
H1243 H 0.73919 0.01224 0.31577 0.0
H1244 H 0.72401 0.02814 0.27794 0.0
H1245 H 0.75596 0.96758 0.09401 0.0
H1246 H 0.73707 0.95288 0.08496 0.0
H1247 H 0.74938 0.95387 0.16551 0.0
C1248 C 0.51044 0.77906 0.82907 0.0
C1249 C 0.50162 0.79168 0.78808 0.0
C1250 C 0.5111 0.76113 0.8086 0.0
C1251 C 0.50248 0.75581 0.74636 0.0
C1252 C 0.49333 0.76854 0.70541 0.0
C1253 C 0.49314 0.7864 0.72659 0.0
C1254 C 0.52119 0.74794 0.85301 0.0
C1255 C 0.48372 0.7633 0.63945 0.0
C1256 C 0.51701 0.71267 0.66044 0.0
C1257 C 0.50429 0.70079 0.68623 0.0
C1258 C 0.51658 0.73072 0.67946 0.0
C1259 C 0.50292 0.73688 0.72435 0.0
C1260 C 0.48978 0.7249 0.749 0.0
C1261 C 0.49074 0.7069 0.73009 0.0
C1262 C 0.53093 0.74308 0.653 0.0
C1263 C 0.47485 0.73105 0.79592 0.0
H1264 H 0.51711 0.78331 0.8763 0.0
H1265 H 0.48625 0.79627 0.69532 0.0
H1266 H 0.51208 0.73723 0.87093 0.0
H1267 H 0.53184 0.74151 0.82177 0.0
H1268 H 0.52737 0.75431 0.8993 0.0
H1269 H 0.47703 0.77481 0.61417 0.0
H1270 H 0.49327 0.75738 0.60195 0.0
H1271 H 0.47355 0.75298 0.6511 0.0
H1272 H 0.52756 0.70772 0.62704 0.0
H1273 H 0.48098 0.69752 0.74992 0.0
H1274 H 0.53843 0.74878 0.69756 0.0
H1275 H 0.52485 0.75439 0.62435 0.0
H1276 H 0.5405 0.7362 0.61799 0.0
H1277 H 0.48042 0.73618 0.84548 0.0
H1278 H 0.46529 0.72017 0.80803 0.0
H1279 H 0.46746 0.74217 0.77105 0.0
C1280 C 0.78877 0.52058 0.22242 0.0
C1281 C 0.79523 0.50813 0.17428 0.0
C1282 C 0.77077 0.52077 0.24168 0.0
C1283 C 0.75876 0.50897 0.20862 0.0
C1284 C 0.76497 0.49722 0.15632 0.0
C1285 C 0.78324 0.49663 0.141 0.0
C1286 C 0.76481 0.53303 0.29952 0.0
C1287 C 0.7524 0.48501 0.11766 0.0
C1288 C 0.71624 0.49493 0.29992 0.0
C1289 C 0.70388 0.50705 0.27262 0.0
C1290 C 0.73427 0.49575 0.28101 0.0
C1291 C 0.73984 0.5084 0.23087 0.0
C1292 C 0.72738 0.52053 0.20243 0.0
C1293 C 0.70965 0.52006 0.22536 0.0
C1294 C 0.74733 0.48308 0.31469 0.0
C1295 C 0.73266 0.53373 0.14682 0.0
H1296 H 0.79795 0.52983 0.24686 0.0
H1297 H 0.78817 0.48687 0.10418 0.0
H1298 H 0.7542 0.54213 0.28073 0.0
H1299 H 0.75905 0.52505 0.34262 0.0
H1300 H 0.77594 0.54119 0.32054 0.0
H1301 H 0.75896 0.47844 0.07262 0.0
H1302 H 0.7474 0.47451 0.15326 0.0
H1303 H 0.74066 0.49258 0.0986 0.0
H1304 H 0.71182 0.48468 0.33562 0.0
H1305 H 0.70022 0.52973 0.20538 0.0
H1306 H 0.75878 0.49061 0.33656 0.0
H1307 H 0.75272 0.47375 0.27521 0.0
H1308 H 0.74111 0.47515 0.35703 0.0
H1309 H 0.74266 0.54323 0.16757 0.0
H1310 H 0.72107 0.54145 0.127 0.0
H1311 H 0.73896 0.52663 0.10253 0.0
C1312 C 0.9718 0.35894 0.81553 0.0
C1313 C 0.98396 0.34925 0.85609 0.0
C1314 C 0.97436 0.3609 0.74367 0.0
C1315 C 0.9893 0.3528 0.7118 0.0
C1316 C 0.0008 0.34183 0.75153 0.0
C1317 C 0.99803 0.34025 0.82336 0.0
C1318 C 0.9618 0.37267 0.70291 0.0
C1319 C 0.01669 0.3327 0.71906 0.0
C1320 C 0.99263 0.35075 0.51503 0.0
C1321 C 0.00418 0.365 0.50142 0.0
C1322 C 0.98741 0.34672 0.58328 0.0
C1323 C 0.99396 0.35722 0.63882 0.0
C1324 C 0.00552 0.37174 0.62506 0.0
C1325 C 0.01065 0.37534 0.55639 0.0
C1326 C 0.97531 0.33097 0.5961 0.0
C1327 C 0.01268 0.38332 0.68298 0.0
H1328 H 0.96086 0.3659 0.8404 0.0
H1329 H 0.00736 0.33257 0.85435 0.0
H1330 H 0.96881 0.3851 0.68774 0.0
H1331 H 0.9575 0.36595 0.65432 0.0
H1332 H 0.94976 0.37633 0.73343 0.0
H1333 H 0.02299 0.32296 0.75503 0.0
H1334 H 0.01273 0.32565 0.67074 0.0
H1335 H 0.02682 0.34282 0.70457 0.0
H1336 H 0.9881 0.34242 0.47243 0.0
H1337 H 0.01975 0.38622 0.54553 0.0
H1338 H 0.96351 0.33514 0.6268 0.0
H1339 H 0.98249 0.32077 0.62711 0.0
H1340 H 0.97066 0.32474 0.5469 0.0
H1341 H 0.00151 0.38888 0.71394 0.0
H1342 H 0.02091 0.39454 0.66314 0.0
H1343 H 0.02098 0.37518 0.7187 0.0
C1344 C 0.14976 0.99538 0.01112 0.0
C1345 C 0.13484 0.00593 0.99563 0.0
C1346 C 0.15319 0.98976 0.07941 0.0
C1347 C 0.14157 0.9951 0.13343 0.0
C1348 C 0.12664 0.006 0.11822 0.0
C1349 C 0.12349 0.01132 0.04943 0.0
C1350 C 0.1693 0.97826 0.09384 0.0
C1351 C 0.11401 0.01207 0.17464 0.0
C1352 C 0.13759 0.97065 0.30487 0.0
C1353 C 0.14647 0.98237 0.34997 0.0
C1354 C 0.13678 0.97407 0.23322 0.0
C1355 C 0.145 0.98958 0.20631 0.0
C1356 C 0.15507 0.00074 0.25077 0.0
C1357 C 0.15575 0.99696 0.32212 0.0
C1358 C 0.12614 0.96171 0.1871 0.0
C1359 C 0.16411 0.01737 0.22392 0.0
H1360 H 0.15902 0.99182 0.97027 0.0
H1361 H 0.11204 0.0196 0.03758 0.0
H1362 H 0.17852 0.98532 0.12961 0.0
H1363 H 0.16516 0.96576 0.1201 0.0
H1364 H 0.17667 0.97478 0.04559 0.0
H1365 H 0.10303 0.0205 0.15404 0.0
H1366 H 0.10809 0.00033 0.20107 0.0
H1367 H 0.12139 0.0198 0.21456 0.0
H1368 H 0.13053 0.95925 0.32586 0.0
H1369 H 0.16277 0.00601 0.3565 0.0
H1370 H 0.13385 0.95826 0.13973 0.0
H1371 H 0.11377 0.96854 0.1699 0.0
H1372 H 0.12237 0.94921 0.2143 0.0
H1373 H 0.17194 0.01438 0.17642 0.0
H1374 H 0.17311 0.02341 0.26329 0.0
H1375 H 0.15384 0.02736 0.20949 0.0
C1376 C 0.5199 0.12481 0.82341 0.0
C1377 C 0.51208 0.13773 0.86637 0.0
C1378 C 0.51627 0.12432 0.75195 0.0
C1379 C 0.50448 0.13703 0.72294 0.0
C1380 C 0.49741 0.15077 0.76518 0.0
C1381 C 0.50136 0.15101 0.83654 0.0
C1382 C 0.52427 0.10962 0.7083 0.0
C1383 C 0.48481 0.16457 0.73595 0.0
C1384 C 0.50255 0.14089 0.5264 0.0
C1385 C 0.48796 0.12992 0.51066 0.0
C1386 C 0.50805 0.14344 0.59537 0.0
C1387 C 0.49852 0.13505 0.64973 0.0
C1388 C 0.48345 0.12437 0.63419 0.0
C1389 C 0.4783 0.122 0.56465 0.0
C1390 C 0.52409 0.15501 0.61004 0.0
C1391 C 0.47287 0.11532 0.69094 0.0
H1392 H 0.52833 0.11461 0.8461 0.0
H1393 H 0.49526 0.16103 0.86946 0.0
H1394 H 0.51358 0.1004 0.69101 0.0
H1395 H 0.53057 0.11523 0.6609 0.0
H1396 H 0.53443 0.10181 0.73734 0.0
H1397 H 0.48205 0.17544 0.77371 0.0
H1398 H 0.49036 0.17051 0.68774 0.0
H1399 H 0.47199 0.15812 0.72196 0.0
H1400 H 0.50955 0.14766 0.48476 0.0
H1401 H 0.46684 0.11377 0.55235 0.0
H1402 H 0.5345 0.1471 0.63711 0.0
H1403 H 0.52033 0.16612 0.64518 0.0
H1404 H 0.52994 0.1607 0.56181 0.0
H1405 H 0.48156 0.1059 0.71982 0.0
H1406 H 0.46125 0.10783 0.67018 0.0
H1407 H 0.46799 0.12535 0.72883 0.0
C1408 C 0.37319 0.48036 0.04842 0.0
C1409 C 0.36295 0.48787 0.99512 0.0
C1410 C 0.37089 0.48573 0.11768 0.0
C1411 C 0.35801 0.49891 0.13376 0.0
C1412 C 0.34737 0.50628 0.08023 0.0
C1413 C 0.3498 0.50047 0.01155 0.0
C1414 C 0.38232 0.47737 0.17359 0.0
C1415 C 0.33349 0.52033 0.09547 0.0
C1416 C 0.34402 0.50001 0.32296 0.0
C1417 C 0.35582 0.51275 0.35012 0.0
C1418 C 0.34399 0.49592 0.25178 0.0
C1419 C 0.35586 0.50496 0.20678 0.0
C1420 C 0.36685 0.51874 0.23308 0.0
C1421 C 0.36676 0.52242 0.30459 0.0
C1422 C 0.33211 0.48109 0.2257 0.0
C1423 C 0.37944 0.5289 0.18636 0.0
H1424 H 0.38317 0.47041 0.03577 0.0
H1425 H 0.3413 0.50568 0.97074 0.0
H1426 H 0.39049 0.48777 0.19946 0.0
H1427 H 0.37375 0.47123 0.21405 0.0
H1428 H 0.3914 0.46698 0.15258 0.0
H1429 H 0.32646 0.52485 0.04774 0.0
H1430 H 0.32349 0.51505 0.13264 0.0
H1431 H 0.33987 0.53204 0.12044 0.0
H1432 H 0.3355 0.4925 0.35779 0.0
H1433 H 0.37579 0.5324 0.32518 0.0
H1434 H 0.34044 0.46944 0.21118 0.0
H1435 H 0.32479 0.48533 0.17837 0.0
H1436 H 0.32229 0.47677 0.26552 0.0
H1437 H 0.39024 0.51991 0.16847 0.0
H1438 H 0.38559 0.54048 0.21328 0.0
H1439 H 0.37232 0.53376 0.13942 0.0
C1440 C 0.99459 0.15359 0.68063 0.0
C1441 C 0.98143 0.14265 0.65116 0.0
C1442 C 0.99807 0.15311 0.75219 0.0
C1443 C 0.98813 0.14143 0.795 0.0
C1444 C 0.97391 0.13144 0.76648 0.0
C1445 C 0.97068 0.1322 0.69473 0.0
C1446 C 0.0132 0.16415 0.78102 0.0
C1447 C 0.96291 0.11898 0.81081 0.0
C1448 C 0.01226 0.12205 0.9506 0.0
C1449 C 0.00504 0.13205 0.00502 0.0
C1450 C 0.0067 0.12489 0.88191 0.0
C1451 C 0.99384 0.13825 0.86771 0.0
C1452 C 0.9867 0.14857 0.92258 0.0
C1453 C 0.99247 0.14538 0.99079 0.0
C1454 C 0.01461 0.11363 0.82456 0.0
C1455 C 0.97315 0.16305 0.90916 0.0
H1456 H 0.0028 0.16188 0.64736 0.0
H1457 H 0.96037 0.12383 0.67244 0.0
H1458 H 0.00901 0.17117 0.8291 0.0
H1459 H 0.02448 0.15528 0.79503 0.0
H1460 H 0.01807 0.17418 0.74294 0.0
H1461 H 0.95106 0.11381 0.78255 0.0
H1462 H 0.97124 0.10748 0.82702 0.0
H1463 H 0.95836 0.12581 0.8588 0.0
H1464 H 0.02215 0.11191 0.96196 0.0
H1465 H 0.98736 0.1535 0.03297 0.0
H1466 H 0.02153 0.12228 0.78631 0.0
H1467 H 0.00386 0.1065 0.79633 0.0
H1468 H 0.02428 0.10365 0.8446 0.0
H1469 H 0.97896 0.17336 0.87458 0.0
H1470 H 0.96861 0.16957 0.95794 0.0
H1471 H 0.96137 0.15744 0.88197 0.0
C1472 C 0.33986 0.97526 0.17649 0.0
C1473 C 0.3506 0.98627 0.13528 0.0
C1474 C 0.34026 0.97672 0.24943 0.0
C1475 C 0.35198 0.98915 0.28088 0.0
C1476 C 0.36329 -0.00021 0.23917 0.0
C1477 C 0.3623 -0.00166 0.16697 0.0
C1478 C 0.32784 0.96543 0.2926 0.0
C1479 C 0.37627 0.01296 0.27064 0.0
C1480 C 0.34585 0.01195 0.45336 0.0
C1481 C 0.35881 0.00339 0.4936 0.0
C1482 C 0.3422 0.00623 0.38555 0.0
C1483 C 0.35215 0.99196 0.35709 0.0
C1484 C 0.36459 0.98266 0.39898 0.0
C1485 C 0.36771 0.98847 0.46722 0.0
C1486 C 0.32861 0.01629 0.34284 0.0
C1487 C 0.37565 0.96757 0.37011 0.0
H1488 H 0.33082 0.96593 0.15173 0.0
H1489 H 0.37086 0.00665 0.13511 0.0
H1490 H 0.33538 0.95827 0.33366 0.0
H1491 H 0.31801 0.97413 0.3192 0.0
H1492 H 0.32049 0.95552 0.26059 0.0
H1493 H 0.3849 0.01934 0.23083 0.0
H1494 H 0.36884 0.02358 0.29842 0.0
H1495 H 0.38493 0.00619 0.30928 0.0
H1496 H 0.33881 0.02336 0.47451 0.0
H1497 H 0.37781 0.98194 0.49856 0.0
H1498 H 0.32001 0.00691 0.31344 0.0
H1499 H 0.33558 0.02484 0.3044 0.0
H1500 H 0.32002 0.02494 0.37567 0.0
H1501 H 0.36728 0.95829 0.3393 0.0
H1502 H 0.38248 0.95994 0.41191 0.0
H1503 H 0.38595 0.97307 0.33467 0.0
C1504 C 0.50307 0.34374 0.67916 0.0
C1505 C 0.51474 0.35637 0.6505 0.0
C1506 C 0.49952 0.34354 0.75064 0.0
C1507 C 0.50791 0.35622 0.79414 0.0
C1508 C 0.5208 0.36801 0.76642 0.0
C1509 C 0.52408 0.36793 0.69472 0.0
C1510 C 0.48582 0.33065 0.77863 0.0
C1511 C 0.53018 0.38155 0.8116 0.0
C1512 C 0.4819 0.37254 0.95016 0.0
C1513 C 0.49038 0.36347 0.00432 0.0
C1514 C 0.48753 0.37027 0.8813 0.0
C1515 C 0.50181 0.35848 0.86675 0.0
C1516 C 0.51015 0.34899 0.9213 0.0
C1517 C 0.50423 0.35153 0.98965 0.0
C1518 C 0.47828 0.38057 0.82419 0.0
C1519 C 0.52527 0.33618 0.90746 0.0
H1520 H 0.49595 0.33462 0.64536 0.0
H1521 H 0.53328 0.37759 0.673 0.0
H1522 H 0.49074 0.32412 0.82672 0.0
H1523 H 0.47349 0.33803 0.79237 0.0
H1524 H 0.48233 0.32017 0.74011 0.0
H1525 H 0.54131 0.38823 0.7838 0.0
H1526 H 0.5205 0.39189 0.82835 0.0
H1527 H 0.53552 0.37515 0.85926 0.0
H1528 H 0.47103 0.38159 0.96188 0.0
H1529 H 0.51034 0.34405 0.03165 0.0
H1530 H 0.4726 0.37121 0.78536 0.0
H1531 H 0.48805 0.38913 0.7966 0.0
H1532 H 0.46736 0.38914 0.84438 0.0
H1533 H 0.52079 0.32551 0.87153 0.0
H1534 H 0.53036 0.3299 0.95592 0.0
H1535 H 0.53644 0.34326 0.88161 0.0
C1536 C 0.15494 0.50039 0.17364 0.0
C1537 C 0.14625 0.51508 0.14376 0.0
C1538 C 0.15391 0.49714 0.24529 0.0
C1539 C 0.144 0.50889 0.28792 0.0
C1540 C 0.1364 0.52448 0.25896 0.0
C1541 C 0.13765 0.52742 0.18707 0.0
C1542 C 0.16236 0.48045 0.27441 0.0
C1543 C 0.1259 0.5374 0.30304 0.0
C1544 C 0.12131 0.48805 0.44395 0.0
C1545 C 0.13258 0.49326 0.4983 0.0
C1546 C 0.12478 0.49329 0.37533 0.0
C1547 C 0.13999 0.50385 0.36085 0.0
C1548 C 0.15146 0.5091 0.41552 0.0
C1549 C 0.14767 0.50363 0.48369 0.0
C1550 C 0.11225 0.48738 0.31824 0.0
C1551 C 0.16789 0.5202 0.40186 0.0
H1552 H 0.1618 0.4909 0.14061 0.0
H1553 H 0.13101 0.53887 0.16447 0.0
H1554 H 0.17005 0.48353 0.32224 0.0
H1555 H 0.15177 0.47082 0.28892 0.0
H1556 H 0.1714 0.47393 0.23634 0.0
H1557 H 0.12273 0.54989 0.27454 0.0
H1558 H 0.11319 0.53108 0.31936 0.0
H1559 H 0.13338 0.54084 0.35099 0.0
H1560 H 0.10971 0.47992 0.45523 0.0
H1561 H 0.15682 0.50707 0.5251 0.0
H1562 H 0.11957 0.47914 0.27977 0.0
H1563 H 0.10695 0.49917 0.2902 0.0
H1564 H 0.10084 0.47949 0.3385 0.0
H1565 H 0.17726 0.51268 0.36819 0.0
H1566 H 0.17493 0.52392 0.45061 0.0
H1567 H 0.16423 0.53256 0.37358 0.0
C1568 C 0.98111 0.62592 0.45209 0.0
C1569 C 0.98841 0.63638 0.5053 0.0
C1570 C 0.98636 0.62828 0.38271 0.0
C1571 C -0.00074 0.64141 0.3663 0.0
C1572 C 0.00644 0.65225 0.41958 0.0
C1573 C 0.00073 0.64976 0.48837 0.0
C1574 C 0.97819 0.61664 0.32705 0.0
C1575 C 0.02018 0.6664 0.40395 0.0
C1576 C 0.02302 0.63308 0.19571 0.0
C1577 C 0.01321 0.64386 0.15004 0.0
C1578 C 0.01926 0.6329 0.26715 0.0
C1579 C 0.00524 0.64361 0.29322 0.0
C1580 C 0.996 0.6553 0.24805 0.0
C1581 C 0.00018 0.65538 0.17695 0.0
C1582 C 0.02965 0.62053 0.31405 0.0
C1583 C 0.9809 0.66685 0.27388 0.0
H1584 H 0.97143 0.6157 0.46485 0.0
H1585 H 0.00577 0.6585 0.52854 0.0
H1586 H 0.9719 0.62504 0.28638 0.0
H1587 H 0.98874 0.60862 0.30137 0.0
H1588 H 0.96796 0.60741 0.34825 0.0
H1589 H 0.02463 0.67354 0.45153 0.0
H1590 H 0.03199 0.66026 0.37878 0.0
H1591 H 0.01465 0.67628 0.36683 0.0
H1592 H 0.03321 0.62427 0.17528 0.0
H1593 H 0.99253 0.66375 0.14197 0.0
H1594 H 0.02083 0.60959 0.33213 0.0
H1595 H 0.0344 0.62776 0.36086 0.0
H1596 H 0.04132 0.61454 0.28721 0.0
H1597 H 0.96942 0.65828 0.28842 0.0
H1598 H 0.97637 0.67654 0.2339 0.0
H1599 H 0.98496 0.67429 0.32115 0.0
C1600 C 0.84853 1e-05 0.96397 0.0
C1601 C 0.86374 0.98985 0.97908 0.0
C1602 C 0.8446 0.00519 0.89549 0.0
C1603 C 0.85605 -0.00015 0.84086 0.0
C1604 C 0.87125 0.98929 0.85571 0.0
C1605 C 0.87486 0.98436 0.92466 0.0
C1606 C 0.8282 0.01631 0.88157 0.0
C1607 C 0.88374 0.98325 0.79876 0.0
C1608 C 0.84127 0.99793 0.65237 0.0
C1609 C 0.85014 0.01276 0.62439 0.0
C1610 C 0.8423 0.99403 0.72367 0.0
C1611 C 0.85233 0.0053 0.76795 0.0
C1612 C 0.86019 0.02099 0.74088 0.0
C1613 C 0.85901 0.02452 0.66937 0.0
C1614 C 0.83365 0.97723 0.75067 0.0
C1615 C 0.87079 0.03346 0.78664 0.0
H1616 H 0.83946 0.00364 0.00538 0.0
H1617 H 0.88653 0.97635 0.93617 0.0
H1618 H 0.83202 0.02896 0.85566 0.0
H1619 H 0.81913 0.00911 0.84565 0.0
H1620 H 0.82078 0.01952 0.92999 0.0
H1621 H 0.89487 0.97497 0.81898 0.0
H1622 H 0.87629 0.97538 0.75943 0.0
H1623 H 0.88944 0.99501 0.77173 0.0
H1624 H 0.83432 0.9888 0.61808 0.0
H1625 H 0.86576 0.0361 0.64831 0.0
H1626 H 0.82596 0.98002 0.79871 0.0
H1627 H 0.84414 0.96738 0.76424 0.0
H1628 H 0.82459 0.9711 0.71169 0.0
H1629 H 0.86313 0.03688 0.83414 0.0
H1630 H 0.87443 0.04598 0.75928 0.0
H1631 H 0.88324 0.02675 0.80366 0.0
C1632 C 0.49414 0.84796 0.47771 0.0
C1633 C 0.50619 0.86161 0.49456 0.0
C1634 C 0.48845 0.84534 0.40892 0.0
C1635 C 0.49534 0.85635 0.35558 0.0
C1636 C 0.50792 0.86979 0.37197 0.0
C1637 C 0.51318 0.87226 0.44131 0.0
C1638 C 0.47506 0.83085 0.39336 0.0
C1639 C 0.51574 0.88165 0.31629 0.0
C1640 C 0.49476 0.84233 0.16617 0.0
C1641 C 0.48143 0.8535 0.13918 0.0
C1642 C 0.49894 0.84253 0.2373 0.0
C1643 C 0.4894 0.85398 0.28245 0.0
C1644 C 0.47509 0.8643 0.2563 0.0
C1645 C 0.47134 0.86401 0.18483 0.0
C1646 C 0.51435 0.83139 0.2632 0.0
C1647 C 0.46438 0.8764 0.30314 0.0
H1648 H 0.48934 0.8391 0.51791 0.0
H1649 H 0.52264 0.88269 0.45402 0.0
H1650 H 0.46311 0.83667 0.36802 0.0
H1651 H 0.48086 0.82109 0.3564 0.0
H1652 H 0.47078 0.82364 0.44099 0.0
H1653 H 0.5257 0.89118 0.33748 0.0
H1654 H 0.52227 0.87342 0.27568 0.0
H1655 H 0.50497 0.88935 0.29055 0.0
H1656 H 0.50263 0.83417 0.13122 0.0
H1657 H 0.46092 0.87255 0.16436 0.0
H1658 H 0.51048 0.82384 0.31043 0.0
H1659 H 0.52558 0.84026 0.27783 0.0
H1660 H 0.51914 0.82182 0.22323 0.0
H1661 H 0.45984 0.86905 0.34997 0.0
H1662 H 0.45255 0.88206 0.27627 0.0
H1663 H 0.4729 0.88757 0.32121 0.0
C1664 C 0.62317 0.51889 0.92629 0.0
C1665 C 0.63124 0.50943 0.9805 0.0
C1666 C 0.62576 0.51379 0.85684 0.0
C1667 C 0.63682 0.49899 0.84159 0.0
C1668 C 0.64533 0.48964 0.89618 0.0
C1669 C 0.64254 0.49508 0.96509 0.0
C1670 C 0.61653 0.52415 0.79984 0.0
C1671 C 0.65731 0.47389 0.88183 0.0
C1672 C 0.62731 0.4775 0.66753 0.0
C1673 C 0.64004 0.48572 0.62486 0.0
C1674 C 0.62668 0.48103 0.73904 0.0
C1675 C 0.63906 0.4931 0.76842 0.0
C1676 C 0.65266 0.50056 0.72649 0.0
C1677 C 0.65304 0.49672 0.65505 0.0
C1678 C 0.61213 0.47262 0.78233 0.0
C1679 C 0.66614 0.51344 0.75614 0.0
H1680 H 0.61468 0.53018 0.93837 0.0
H1681 H 0.6494 0.48823 0.00692 0.0
H1682 H 0.62651 0.52932 0.76232 0.0
H1683 H 0.60741 0.51523 0.77062 0.0
H1684 H 0.6087 0.53556 0.82042 0.0
H1685 H 0.66304 0.46816 0.93023 0.0
H1686 H 0.64971 0.46332 0.85444 0.0
H1687 H 0.6684 0.47794 0.84709 0.0
H1688 H 0.61733 0.46885 0.64458 0.0
H1689 H 0.66292 0.50312 0.62235 0.0
H1690 H 0.6026 0.48305 0.79941 0.0
H1691 H 0.61784 0.46646 0.82985 0.0
H1692 H 0.60464 0.46227 0.75308 0.0
H1693 H 0.65937 0.52611 0.76997 0.0
H1694 H 0.677 0.51646 0.71868 0.0
H1695 H 0.67211 0.50802 0.8045 0.0
C1696 C 0.99703 0.86341 0.33794 0.0
C1697 C 0.01036 0.85272 0.3674 0.0
C1698 C 0.99504 0.86474 0.26597 0.0
C1699 C 0.00641 0.85476 0.22209 0.0
C1700 C 0.01996 0.84392 0.25126 0.0
C1701 C 0.02196 0.84321 0.32402 0.0
C1702 C 0.98065 0.87677 0.23703 0.0
C1703 C 0.03204 0.83284 0.20579 0.0
C1704 C 0.98407 0.84842 0.04832 0.0
C1705 C 0.99172 0.86224 0.00968 0.0
C1706 C 0.98997 0.84472 0.11591 0.0
C1707 C 0.00342 0.8555 0.14594 0.0
C1708 C 0.01174 0.86897 0.10577 0.0
C1709 C 0.00586 0.87207 0.03756 0.0
C1710 C 0.98103 0.83001 0.1566 0.0
C1711 C 0.02585 0.88098 0.13641 0.0
H1712 H 0.98822 0.87104 0.37136 0.0
H1713 H 0.03226 0.83495 0.34694 0.0
H1714 H 0.98649 0.88636 0.1995 0.0
H1715 H 0.97063 0.86871 0.2085 0.0
H1716 H 0.97366 0.8844 0.27836 0.0
H1717 H 0.04233 0.82563 0.23641 0.0
H1718 H 0.02398 0.82294 0.17656 0.0
H1719 H 0.03879 0.84141 0.16686 0.0
H1720 H 0.97329 0.84068 0.02595 0.0
H1721 H 0.0117 0.88279 0.00733 0.0
H1722 H 0.97199 0.83592 0.19605 0.0
H1723 H 0.99108 0.8219 0.18473 0.0
H1724 H 0.97304 0.82109 0.12253 0.0
H1725 H 0.01954 0.89025 0.17409 0.0
H1726 H 0.03272 0.889 0.09589 0.0
H1727 H 0.03594 0.8731 0.16524 0.0
C1728 C 0.65774 0.02228 0.79583 0.0
C1729 C 0.64599 0.0122 0.8365 0.0
C1730 C 0.65791 0.02034 0.72307 0.0
C1731 C 0.64582 0.00834 0.69118 0.0
C1732 C 0.63347 -0.00127 0.73218 0.0
C1733 C 0.63383 0.00067 0.8043 0.0
C1734 C 0.67136 0.03061 0.68065 0.0
C1735 C 0.62011 0.98605 0.70013 0.0
C1736 C 0.63228 0.00842 0.50228 0.0
C1737 C 0.64085 0.99299 0.47868 0.0
C1738 C 0.63486 0.01452 0.57043 0.0
C1739 C 0.64632 0.00492 0.6154 0.0
C1740 C 0.65587 0.98998 0.59018 0.0
C1741 C 0.65283 0.98405 0.52216 0.0
C1742 C 0.62426 0.03034 0.59577 0.0
C1743 C 0.66835 0.97954 0.6364 0.0
H1744 H 0.66714 0.03117 0.82097 0.0
H1745 H 0.62453 0.99308 0.83572 0.0
H1746 H 0.681 0.02119 0.65684 0.0
H1747 H 0.66464 0.03778 0.6375 0.0
H1748 H 0.67887 0.0404 0.71264 0.0
H1749 H 0.61075 0.98046 0.73922 0.0
H1750 H 0.61224 0.99297 0.65941 0.0
H1751 H 0.62721 0.97483 0.67474 0.0
H1752 H 0.62283 0.01518 0.46876 0.0
H1753 H 0.65958 0.97221 0.50335 0.0
H1754 H 0.63275 0.03943 0.62696 0.0
H1755 H 0.61332 0.02562 0.63 0.0
H1756 H 0.61829 0.03798 0.55206 0.0
H1757 H 0.67718 0.98866 0.66604 0.0
H1758 H 0.67676 0.97011 0.60622 0.0
H1759 H 0.66048 0.97177 0.67471 0.0
C1760 C 0.51162 0.65014 0.03698 0.0
C1761 C 0.50339 0.63701 -0.00342 0.0
C1762 C 0.50579 0.65361 0.10478 0.0
C1763 C 0.49173 0.64331 0.13305 0.0
C1764 C 0.48277 0.63066 0.09102 0.0
C1765 C 0.48868 0.62771 0.02283 0.0
C1766 C 0.51549 0.66741 0.14765 0.0
C1767 C 0.46794 0.61922 0.1197 0.0
C1768 C 0.49814 0.63328 0.32328 0.0
C1769 C 0.48575 0.64469 0.35473 0.0
C1770 C 0.49971 0.63235 0.25112 0.0
C1771 C 0.48885 0.6434 0.2092 0.0
C1772 C 0.4761 0.65482 0.24039 0.0
C1773 C 0.47453 0.65517 0.3133 0.0
C1774 C 0.51323 0.61971 0.21992 0.0
C1775 C 0.46455 0.66697 0.19698 0.0
H1776 H 0.52285 0.65747 0.01595 0.0
H1777 H 0.48242 0.61748 0.99138 0.0
H1778 H 0.50588 0.67579 0.17688 0.0
H1779 H 0.52416 0.66064 0.18626 0.0
H1780 H 0.52397 0.6762 0.11497 0.0
H1781 H 0.46053 0.61219 0.07783 0.0
H1782 H 0.47367 0.60908 0.15532 0.0
H1783 H 0.45841 0.62736 0.15029 0.0
H1784 H 0.50662 0.62492 0.35531 0.0
H1785 H 0.46496 0.66397 0.33787 0.0
H1786 H 0.5237 0.62739 0.1923 0.0
H1787 H 0.50672 0.61088 0.18118 0.0
H1788 H 0.51979 0.61124 0.25986 0.0
H1789 H 0.47305 0.67697 0.17037 0.0
H1790 H 0.45447 0.67411 0.22882 0.0
H1791 H 0.45759 0.65925 0.15593 0.0
C1792 C 0.84414 0.50536 0.52089 0.0
C1793 C 0.86054 0.50183 0.48921 0.0
C1794 C 0.84057 0.49926 0.58824 0.0
C1795 C 0.85399 0.48992 0.62502 0.0
C1796 C 0.87026 0.48557 0.59167 0.0
C1797 C 0.87328 0.49148 0.52354 0.0
C1798 C 0.82292 0.50382 0.62156 0.0
C1799 C 0.88502 0.47594 0.62967 0.0
C1800 C 0.85675 0.5 0.81664 0.0
C1801 C 0.85058 0.48412 0.84675 0.0
C1802 C 0.85789 0.50193 0.74465 0.0
C1803 C 0.85237 0.48776 0.70126 0.0
C1804 C 0.84562 0.47184 0.73087 0.0
C1805 C 0.84498 0.47012 0.80368 0.0
C1806 C 0.86535 0.51908 0.71516 0.0
C1807 C 0.83927 0.45666 0.68572 0.0
H1808 H 0.83421 0.51315 0.49329 0.0
H1809 H 0.88593 0.48877 0.49833 0.0
H1810 H 0.81753 0.49219 0.65033 0.0
H1811 H 0.82486 0.51477 0.65961 0.0
H1812 H 0.81291 0.5082 0.58253 0.0
H1813 H 0.89578 0.47153 0.59389 0.0
H1814 H 0.89092 0.48498 0.66917 0.0
H1815 H 0.87972 0.46414 0.65758 0.0
H1816 H 0.86119 0.51089 0.84941 0.0
H1817 H 0.84015 0.45786 0.82676 0.0
H1818 H 0.85526 0.52564 0.68166 0.0
H1819 H 0.87714 0.51616 0.68219 0.0
H1820 H 0.86942 0.52863 0.7564 0.0
H1821 H 0.82911 0.46151 0.64821 0.0
H1822 H 0.83342 0.44563 0.71677 0.0
H1823 H 0.85056 0.45132 0.65488 0.0
loop_
_geom_bond_atom_site_label_1
_geom_bond_atom_site_label_2
_geom_bond_distance
_geom_bond_site_symmetry_2
_ccdc_geom_bond_type
Co0 O3 1.970 1_455 S
Co0 N17 1.989 . S
Co0 O25 1.967 . S
Co0 O32 1.920 1_554 S
Co1 O4 1.966 1_455 S
Co1 N10 2.022 . S
Co1 N18 1.993 . S
Co1 O26 1.941 . S
C2 O3 1.258 . S
C2 O4 1.263 . S
O3 Co0 1.970 1_655 S
O3 C2 1.258 . S
O4 Co1 1.966 1_655 S
O4 C2 1.263 . S
C5 O6 1.235 . S
C5 O32 1.289 1_655 S
O6 C5 1.235 . S
C7 C9 1.400 . S
C7 N10 1.351 . S
C7 C12 1.501 1_455 S
C8 C9 1.387 . S
C8 N11 1.341 . S
C9 C7 1.400 . S
C9 C8 1.387 . S
N10 Co1 2.022 . S
N10 C7 1.351 . S
N10 N11 1.365 . S
N11 C8 1.341 . S
N11 N10 1.365 . S
N11 H31 0.862 . S
C12 C7 1.501 1_655 S
C12 H13 0.961 . S
C12 H14 0.961 . S
C12 H15 0.960 . S
H13 C12 0.961 . S
H14 C12 0.961 . S
H15 C12 0.960 . S
C16 N17 1.342 . S
C16 C20 1.401 . S
C16 C21 1.499 . S
N17 Co0 1.989 . S
N17 C16 1.342 . S
N17 N18 1.388 . S
N18 Co1 1.993 . S
N18 N17 1.388 . S
N18 C19 1.346 . S
C19 N18 1.346 . S
C19 C20 1.396 . S
C19 C29 1.510 . S
C20 C16 1.401 . S
C20 C19 1.396 . S
C21 C16 1.499 . S
C21 H22 0.959 . S
C21 H23 0.960 . S
C21 H24 0.961 . S
H22 C21 0.959 . S
H23 C21 0.960 . S
H24 C21 0.961 . S
O25 Co0 1.967 . S
O25 C33 1.258 . S
O26 Co1 1.941 . S
O26 C33 1.266 . S
H27 C29 0.959 . S
H28 C29 0.961 . S
C29 C19 1.510 . S
C29 H27 0.959 . S
C29 H28 0.961 . S
C29 H30 0.960 . S
H30 C29 0.960 . S
H31 N11 0.862 . S
O32 Co0 1.920 1_556 S
O32 C5 1.289 1_455 S
C33 O25 1.258 . S
C33 O26 1.266 . S
Co34 O37 1.970 1_545 S
Co34 N51 1.989 . S
Co34 O59 1.967 . S
Co34 O66 1.920 . S
Co35 O38 1.966 1_545 S
Co35 N44 2.022 . S
Co35 N52 1.993 . S
Co35 O60 1.941 . S
C36 O37 1.258 . S
C36 O38 1.263 . S
O37 Co34 1.970 1_565 S
O37 C36 1.258 . S
O38 Co35 1.966 1_565 S
O38 C36 1.263 . S
C39 O40 1.235 . S
C39 O66 1.289 1_565 S
O40 C39 1.235 . S
C41 C43 1.400 . S
C41 N44 1.351 . S
C41 C46 1.501 1_545 S
C42 C43 1.387 . S
C42 N45 1.341 . S
C43 C41 1.400 . S
C43 C42 1.387 . S
N44 Co35 2.022 . S
N44 C41 1.351 . S
N44 N45 1.365 . S
N45 C42 1.341 . S
N45 N44 1.365 . S
N45 H65 0.862 . S
C46 C41 1.501 1_565 S
C46 H47 0.961 . S
C46 H48 0.961 . S
C46 H49 0.960 . S
H47 C46 0.961 . S
H48 C46 0.961 . S
H49 C46 0.960 . S
C50 N51 1.342 . S
C50 C54 1.401 . S
C50 C55 1.499 . S
N51 Co34 1.989 . S
N51 C50 1.342 . S
N51 N52 1.388 . S
N52 Co35 1.993 . S
N52 N51 1.388 . S
N52 C53 1.346 . S
C53 N52 1.346 . S
C53 C54 1.396 . S
C53 C63 1.510 . S
C54 C50 1.401 . S
C54 C53 1.396 . S
C55 C50 1.499 . S
C55 H56 0.959 . S
C55 H57 0.960 . S
C55 H58 0.961 . S
H56 C55 0.959 . S
H57 C55 0.960 . S
H58 C55 0.961 . S
O59 Co34 1.967 . S
O59 C67 1.258 . S
O60 Co35 1.941 . S
O60 C67 1.266 . S
H61 C63 0.959 . S
H62 C63 0.961 . S
C63 C53 1.510 . S
C63 H61 0.959 . S
C63 H62 0.961 . S
C63 H64 0.960 . S
H64 C63 0.960 . S
H65 N45 0.862 . S
O66 Co34 1.920 . S
O66 C39 1.289 1_545 S
C67 O59 1.258 . S
C67 O60 1.266 . S
Co68 O71 1.970 . S
Co68 N85 1.989 . S
Co68 O93 1.967 . S
Co68 O100 1.920 1_554 S
Co69 O72 1.966 . S
Co69 N78 2.022 . S
Co69 N86 1.993 . S
Co69 O94 1.941 . S
C70 O71 1.258 . S
C70 O72 1.263 . S
O71 Co68 1.970 . S
O71 C70 1.258 . S
O72 Co69 1.966 . S
O72 C70 1.263 . S
C73 O74 1.235 . S
C73 O100 1.289 . S
O74 C73 1.235 . S
C75 C77 1.400 . S
C75 N78 1.351 . S
C75 C80 1.501 . S
C76 C77 1.387 . S
C76 N79 1.341 . S
C77 C75 1.400 . S
C77 C76 1.387 . S
N78 Co69 2.022 . S
N78 C75 1.351 . S
N78 N79 1.365 . S
N79 C76 1.341 . S
N79 N78 1.365 . S
N79 H99 0.862 . S
C80 C75 1.501 . S
C80 H81 0.961 . S
C80 H82 0.961 . S
C80 H83 0.960 . S
H81 C80 0.961 . S
H82 C80 0.961 . S
H83 C80 0.960 . S
C84 N85 1.342 . S
C84 C88 1.401 . S
C84 C89 1.499 . S
N85 Co68 1.989 . S
N85 C84 1.342 . S
N85 N86 1.388 . S
N86 Co69 1.993 . S
N86 N85 1.388 . S
N86 C87 1.346 . S
C87 N86 1.346 . S
C87 C88 1.396 . S
C87 C97 1.510 . S
C88 C84 1.401 . S
C88 C87 1.396 . S
C89 C84 1.499 . S
C89 H90 0.959 . S
C89 H91 0.960 . S
C89 H92 0.961 . S
H90 C89 0.959 . S
H91 C89 0.960 . S
H92 C89 0.961 . S
O93 Co68 1.967 . S
O93 C101 1.258 . S
O94 Co69 1.941 . S
O94 C101 1.266 . S
H95 C97 0.959 . S
H96 C97 0.961 . S
C97 C87 1.510 . S
C97 H95 0.959 . S
C97 H96 0.961 . S
C97 H98 0.960 . S
H98 C97 0.960 . S
H99 N79 0.862 . S
O100 Co68 1.920 1_556 S
O100 C73 1.289 . S
C101 O93 1.258 . S
C101 O94 1.266 . S
Co102 O105 1.970 . S
Co102 N119 1.989 . S
Co102 O127 1.967 . S
Co102 O134 1.920 . S
Co103 O106 1.966 . S
Co103 N112 2.022 . S
Co103 N120 1.993 . S
Co103 O128 1.941 . S
C104 O105 1.258 . S
C104 O106 1.263 . S
O105 Co102 1.970 . S
O105 C104 1.258 . S
O106 Co103 1.966 . S
O106 C104 1.263 . S
C107 O108 1.235 . S
C107 O134 1.289 . S
O108 C107 1.235 . S
C109 C111 1.400 . S
C109 N112 1.351 . S
C109 C114 1.501 . S
C110 C111 1.387 . S
C110 N113 1.341 . S
C111 C109 1.400 . S
C111 C110 1.387 . S
N112 Co103 2.022 . S
N112 C109 1.351 . S
N112 N113 1.365 . S
N113 C110 1.341 . S
N113 N112 1.365 . S
N113 H133 0.862 . S
C114 C109 1.501 . S
C114 H115 0.961 . S
C114 H116 0.961 . S
C114 H117 0.960 . S
H115 C114 0.961 . S
H116 C114 0.961 . S
H117 C114 0.960 . S
C118 N119 1.342 . S
C118 C122 1.401 . S
C118 C123 1.499 . S
N119 Co102 1.989 . S
N119 C118 1.342 . S
N119 N120 1.388 . S
N120 Co103 1.993 . S
N120 N119 1.388 . S
N120 C121 1.346 . S
C121 N120 1.346 . S
C121 C122 1.396 . S
C121 C131 1.510 . S
C122 C118 1.401 . S
C122 C121 1.396 . S
C123 C118 1.499 . S
C123 H124 0.959 . S
C123 H125 0.960 . S
C123 H126 0.961 . S
H124 C123 0.959 . S
H125 C123 0.960 . S
H126 C123 0.961 . S
O127 Co102 1.967 . S
O127 C135 1.258 . S
O128 Co103 1.941 . S
O128 C135 1.266 . S
H129 C131 0.959 . S
H130 C131 0.961 . S
C131 C121 1.510 . S
C131 H129 0.959 . S
C131 H130 0.961 . S
C131 H132 0.960 . S
H132 C131 0.960 . S
H133 N113 0.862 . S
O134 Co102 1.920 . S
O134 C107 1.289 . S
C135 O127 1.258 . S
C135 O128 1.266 . S
Co136 O139 1.970 1_455 S
Co136 N153 1.989 . S
Co136 O161 1.967 . S
Co136 O168 1.920 . S
Co137 O140 1.966 1_455 S
Co137 N146 2.022 . S
Co137 N154 1.993 . S
Co137 O162 1.941 . S
C138 O139 1.258 . S
C138 O140 1.263 . S
O139 Co136 1.970 1_655 S
O139 C138 1.258 . S
O140 Co137 1.966 1_655 S
O140 C138 1.263 . S
C141 O142 1.235 . S
C141 O168 1.289 1_655 S
O142 C141 1.235 . S
C143 C145 1.400 . S
C143 N146 1.351 . S
C143 C148 1.501 1_455 S
C144 C145 1.387 . S
C144 N147 1.341 . S
C145 C143 1.400 . S
C145 C144 1.387 . S
N146 Co137 2.022 . S
N146 C143 1.351 . S
N146 N147 1.365 . S
N147 C144 1.341 . S
N147 N146 1.365 . S
N147 H167 0.862 . S
C148 C143 1.501 1_655 S
C148 H149 0.961 . S
C148 H150 0.961 . S
C148 H151 0.960 . S
H149 C148 0.961 . S
H150 C148 0.961 . S
H151 C148 0.960 . S
C152 N153 1.342 . S
C152 C156 1.401 . S
C152 C157 1.499 . S
N153 Co136 1.989 . S
N153 C152 1.342 . S
N153 N154 1.388 . S
N154 Co137 1.993 . S
N154 N153 1.388 . S
N154 C155 1.346 . S
C155 N154 1.346 . S
C155 C156 1.396 . S
C155 C165 1.510 . S
C156 C152 1.401 . S
C156 C155 1.396 . S
C157 C152 1.499 . S
C157 H158 0.959 . S
C157 H159 0.960 . S
C157 H160 0.961 . S
H158 C157 0.959 . S
H159 C157 0.960 . S
H160 C157 0.961 . S
O161 Co136 1.967 . S
O161 C169 1.258 . S
O162 Co137 1.941 . S
O162 C169 1.266 . S
H163 C165 0.959 . S
H164 C165 0.961 . S
C165 C155 1.510 . S
C165 H163 0.959 . S
C165 H164 0.961 . S
C165 H166 0.960 . S
H166 C165 0.960 . S
H167 N147 0.862 . S
O168 Co136 1.920 . S
O168 C141 1.289 1_455 S
C169 O161 1.258 . S
C169 O162 1.266 . S
Co170 O173 1.970 1_545 S
Co170 N187 1.989 . S
Co170 O195 1.967 . S
Co170 O202 1.920 1_556 S
Co171 O174 1.966 1_545 S
Co171 N180 2.022 . S
Co171 N188 1.993 . S
Co171 O196 1.941 . S
C172 O173 1.258 . S
C172 O174 1.263 . S
O173 Co170 1.970 1_565 S
O173 C172 1.258 . S
O174 Co171 1.966 1_565 S
O174 C172 1.263 . S
C175 O176 1.235 . S
C175 O202 1.289 1_565 S
O176 C175 1.235 . S
C177 C179 1.400 . S
C177 N180 1.351 . S
C177 C182 1.501 1_545 S
C178 C179 1.387 . S
C178 N181 1.341 . S
C179 C177 1.400 . S
C179 C178 1.387 . S
N180 Co171 2.022 . S
N180 C177 1.351 . S
N180 N181 1.365 . S
N181 C178 1.341 . S
N181 N180 1.365 . S
N181 H201 0.862 . S
C182 C177 1.501 1_565 S
C182 H183 0.961 . S
C182 H184 0.961 . S
C182 H185 0.960 . S
H183 C182 0.961 . S
H184 C182 0.961 . S
H185 C182 0.960 . S
C186 N187 1.342 . S
C186 C190 1.401 . S
C186 C191 1.499 . S
N187 Co170 1.989 . S
N187 C186 1.342 . S
N187 N188 1.388 . S
N188 Co171 1.993 . S
N188 N187 1.388 . S
N188 C189 1.346 . S
C189 N188 1.346 . S
C189 C190 1.396 . S
C189 C199 1.510 . S
C190 C186 1.401 . S
C190 C189 1.396 . S
C191 C186 1.499 . S
C191 H192 0.959 . S
C191 H193 0.960 . S
C191 H194 0.961 . S
H192 C191 0.959 . S
H193 C191 0.960 . S
H194 C191 0.961 . S
O195 Co170 1.967 . S
O195 C203 1.258 . S
O196 Co171 1.941 . S
O196 C203 1.266 . S
H197 C199 0.959 . S
H198 C199 0.961 . S
C199 C189 1.510 . S
C199 H197 0.959 . S
C199 H198 0.961 . S
C199 H200 0.960 . S
H200 C199 0.960 . S
H201 N181 0.862 . S
O202 Co170 1.920 1_554 S
O202 C175 1.289 1_545 S
C203 O195 1.258 . S
C203 O196 1.266 . S
Co204 O207 1.970 . S
Co204 N221 1.989 . S
Co204 O229 1.967 . S
Co204 O236 1.920 . S
Co205 O208 1.966 . S
Co205 N214 2.022 . S
Co205 N222 1.993 . S
Co205 O230 1.941 . S
C206 O207 1.258 . S
C206 O208 1.263 . S
O207 Co204 1.970 . S
O207 C206 1.258 . S
O208 Co205 1.966 . S
O208 C206 1.263 . S
C209 O210 1.235 . S
C209 O236 1.289 . S
O210 C209 1.235 . S
C211 C213 1.400 . S
C211 N214 1.351 . S
C211 C216 1.501 . S
C212 C213 1.387 . S
C212 N215 1.341 . S
C213 C211 1.400 . S
C213 C212 1.387 . S
N214 Co205 2.022 . S
N214 C211 1.351 . S
N214 N215 1.365 . S
N215 C212 1.341 . S
N215 N214 1.365 . S
N215 H235 0.862 . S
C216 C211 1.501 . S
C216 H217 0.961 . S
C216 H218 0.961 . S
C216 H219 0.960 . S
H217 C216 0.961 . S
H218 C216 0.961 . S
H219 C216 0.960 . S
C220 N221 1.342 . S
C220 C224 1.401 . S
C220 C225 1.499 . S
N221 Co204 1.989 . S
N221 C220 1.342 . S
N221 N222 1.388 . S
N222 Co205 1.993 . S
N222 N221 1.388 . S
N222 C223 1.346 . S
C223 N222 1.346 . S
C223 C224 1.396 . S
C223 C233 1.510 . S
C224 C220 1.401 . S
C224 C223 1.396 . S
C225 C220 1.499 . S
C225 H226 0.959 . S
C225 H227 0.960 . S
C225 H228 0.961 . S
H226 C225 0.959 . S
H227 C225 0.960 . S
H228 C225 0.961 . S
O229 Co204 1.967 . S
O229 C237 1.258 . S
O230 Co205 1.941 . S
O230 C237 1.266 . S
H231 C233 0.959 . S
H232 C233 0.961 . S
C233 C223 1.510 . S
C233 H231 0.959 . S
C233 H232 0.961 . S
C233 H234 0.960 . S
H234 C233 0.960 . S
H235 N215 0.862 . S
O236 Co204 1.920 . S
O236 C209 1.289 . S
C237 O229 1.258 . S
C237 O230 1.266 . S
Co238 O241 1.970 . S
Co238 N255 1.989 . S
Co238 O263 1.967 . S
Co238 O270 1.920 1_556 S
Co239 O242 1.966 . S
Co239 N248 2.022 . S
Co239 N256 1.993 . S
Co239 O264 1.941 . S
C240 O241 1.258 . S
C240 O242 1.263 . S
O241 Co238 1.970 . S
O241 C240 1.258 . S
O242 Co239 1.966 . S
O242 C240 1.263 . S
C243 O244 1.235 . S
C243 O270 1.289 . S
O244 C243 1.235 . S
C245 C247 1.400 . S
C245 N248 1.351 . S
C245 C250 1.501 . S
C246 C247 1.387 . S
C246 N249 1.341 . S
C247 C245 1.400 . S
C247 C246 1.387 . S
N248 Co239 2.022 . S
N248 C245 1.351 . S
N248 N249 1.365 . S
N249 C246 1.341 . S
N249 N248 1.365 . S
N249 H269 0.862 . S
C250 C245 1.501 . S
C250 H251 0.961 . S
C250 H252 0.961 . S
C250 H253 0.960 . S
H251 C250 0.961 . S
H252 C250 0.961 . S
H253 C250 0.960 . S
C254 N255 1.342 . S
C254 C258 1.401 . S
C254 C259 1.499 . S
N255 Co238 1.989 . S
N255 C254 1.342 . S
N255 N256 1.388 . S
N256 Co239 1.993 . S
N256 N255 1.388 . S
N256 C257 1.346 . S
C257 N256 1.346 . S
C257 C258 1.396 . S
C257 C267 1.510 . S
C258 C254 1.401 . S
C258 C257 1.396 . S
C259 C254 1.499 . S
C259 H260 0.959 . S
C259 H261 0.960 . S
C259 H262 0.961 . S
H260 C259 0.959 . S
H261 C259 0.960 . S
H262 C259 0.961 . S
O263 Co238 1.967 . S
O263 C271 1.258 . S
O264 Co239 1.941 . S
O264 C271 1.266 . S
H265 C267 0.959 . S
H266 C267 0.961 . S
C267 C257 1.510 . S
C267 H265 0.959 . S
C267 H266 0.961 . S
C267 H268 0.960 . S
H268 C267 0.960 . S
H269 N249 0.862 . S
O270 Co238 1.920 1_554 S
O270 C243 1.289 . S
C271 O263 1.258 . S
C271 O264 1.266 . S
Co272 O275 1.970 1_655 S
Co272 N289 1.989 . S
Co272 O297 1.967 . S
Co272 O304 1.920 1_556 S
Co273 O276 1.966 1_655 S
Co273 N282 2.022 . S
Co273 N290 1.993 . S
Co273 O298 1.941 . S
C274 O275 1.258 . S
C274 O276 1.263 . S
O275 Co272 1.970 1_455 S
O275 C274 1.258 . S
O276 Co273 1.966 1_455 S
O276 C274 1.263 . S
C277 O278 1.235 . S
C277 O304 1.289 1_455 S
O278 C277 1.235 . S
C279 C281 1.400 . S
C279 N282 1.351 . S
C279 C284 1.501 1_655 S
C280 C281 1.387 . S
C280 N283 1.341 . S
C281 C279 1.400 . S
C281 C280 1.387 . S
N282 Co273 2.022 . S
N282 C279 1.351 . S
N282 N283 1.365 . S
N283 C280 1.341 . S
N283 N282 1.365 . S
N283 H303 0.862 . S
C284 C279 1.501 1_455 S
C284 H285 0.961 . S
C284 H286 0.961 . S
C284 H287 0.960 . S
H285 C284 0.961 . S
H286 C284 0.961 . S
H287 C284 0.960 . S
C288 N289 1.342 . S
C288 C292 1.401 . S
C288 C293 1.499 . S
N289 Co272 1.989 . S
N289 C288 1.342 . S
N289 N290 1.388 . S
N290 Co273 1.993 . S
N290 N289 1.388 . S
N290 C291 1.346 . S
C291 N290 1.346 . S
C291 C292 1.396 . S
C291 C301 1.510 . S
C292 C288 1.401 . S
C292 C291 1.396 . S
C293 C288 1.499 . S
C293 H294 0.959 . S
C293 H295 0.960 . S
C293 H296 0.961 . S
H294 C293 0.959 . S
H295 C293 0.960 . S
H296 C293 0.961 . S
O297 Co272 1.967 . S
O297 C305 1.258 . S
O298 Co273 1.941 . S
O298 C305 1.266 . S
H299 C301 0.959 . S
H300 C301 0.961 . S
C301 C291 1.510 . S
C301 H299 0.959 . S
C301 H300 0.961 . S
C301 H302 0.960 . S
H302 C301 0.960 . S
H303 N283 0.862 . S
O304 Co272 1.920 1_554 S
O304 C277 1.289 1_655 S
C305 O297 1.258 . S
C305 O298 1.266 . S
Co306 O309 1.970 1_565 S
Co306 N323 1.989 . S
Co306 O331 1.967 . S
Co306 O338 1.920 . S
Co307 O310 1.966 1_565 S
Co307 N316 2.022 . S
Co307 N324 1.993 . S
Co307 O332 1.941 . S
C308 O309 1.258 . S
C308 O310 1.263 . S
O309 Co306 1.970 1_545 S
O309 C308 1.258 . S
O310 Co307 1.966 1_545 S
O310 C308 1.263 . S
C311 O312 1.235 . S
C311 O338 1.289 1_545 S
O312 C311 1.235 . S
C313 C315 1.400 . S
C313 N316 1.351 . S
C313 C318 1.501 1_565 S
C314 C315 1.387 . S
C314 N317 1.341 . S
C315 C313 1.400 . S
C315 C314 1.387 . S
N316 Co307 2.022 . S
N316 C313 1.351 . S
N316 N317 1.365 . S
N317 C314 1.341 . S
N317 N316 1.365 . S
N317 H337 0.862 . S
C318 C313 1.501 1_545 S
C318 H319 0.961 . S
C318 H320 0.961 . S
C318 H321 0.960 . S
H319 C318 0.961 . S
H320 C318 0.961 . S
H321 C318 0.960 . S
C322 N323 1.342 . S
C322 C326 1.401 . S
C322 C327 1.499 . S
N323 Co306 1.989 . S
N323 C322 1.342 . S
N323 N324 1.388 . S
N324 Co307 1.993 . S
N324 N323 1.388 . S
N324 C325 1.346 . S
C325 N324 1.346 . S
C325 C326 1.396 . S
C325 C335 1.510 . S
C326 C322 1.401 . S
C326 C325 1.396 . S
C327 C322 1.499 . S
C327 H328 0.959 . S
C327 H329 0.960 . S
C327 H330 0.961 . S
H328 C327 0.959 . S
H329 C327 0.960 . S
H330 C327 0.961 . S
O331 Co306 1.967 . S
O331 C339 1.258 . S
O332 Co307 1.941 . S
O332 C339 1.266 . S
H333 C335 0.959 . S
H334 C335 0.961 . S
C335 C325 1.510 . S
C335 H333 0.959 . S
C335 H334 0.961 . S
C335 H336 0.960 . S
H336 C335 0.960 . S
H337 N317 0.862 . S
O338 Co306 1.920 . S
O338 C311 1.289 1_565 S
C339 O331 1.258 . S
C339 O332 1.266 . S
Co340 O343 1.970 . S
Co340 N357 1.989 . S
Co340 O365 1.967 . S
Co340 O372 1.920 1_556 S
Co341 O344 1.966 . S
Co341 N350 2.022 . S
Co341 N358 1.993 . S
Co341 O366 1.941 . S
C342 O343 1.258 . S
C342 O344 1.263 . S
O343 Co340 1.970 . S
O343 C342 1.258 . S
O344 Co341 1.966 . S
O344 C342 1.263 . S
C345 O346 1.235 . S
C345 O372 1.289 . S
O346 C345 1.235 . S
C347 C349 1.400 . S
C347 N350 1.351 . S
C347 C352 1.501 . S
C348 C349 1.387 . S
C348 N351 1.341 . S
C349 C347 1.400 . S
C349 C348 1.387 . S
N350 Co341 2.022 . S
N350 C347 1.351 . S
N350 N351 1.365 . S
N351 C348 1.341 . S
N351 N350 1.365 . S
N351 H371 0.862 . S
C352 C347 1.501 . S
C352 H353 0.961 . S
C352 H354 0.961 . S
C352 H355 0.960 . S
H353 C352 0.961 . S
H354 C352 0.961 . S
H355 C352 0.960 . S
C356 N357 1.342 . S
C356 C360 1.401 . S
C356 C361 1.499 . S
N357 Co340 1.989 . S
N357 C356 1.342 . S
N357 N358 1.388 . S
N358 Co341 1.993 . S
N358 N357 1.388 . S
N358 C359 1.346 . S
C359 N358 1.346 . S
C359 C360 1.396 . S
C359 C369 1.510 . S
C360 C356 1.401 . S
C360 C359 1.396 . S
C361 C356 1.499 . S
C361 H362 0.959 . S
C361 H363 0.960 . S
C361 H364 0.961 . S
H362 C361 0.959 . S
H363 C361 0.960 . S
H364 C361 0.961 . S
O365 Co340 1.967 . S
O365 C373 1.258 . S
O366 Co341 1.941 . S
O366 C373 1.266 . S
H367 C369 0.959 . S
H368 C369 0.961 . S
C369 C359 1.510 . S
C369 H367 0.959 . S
C369 H368 0.961 . S
C369 H370 0.960 . S
H370 C369 0.960 . S
H371 N351 0.862 . S
O372 Co340 1.920 1_554 S
O372 C345 1.289 . S
C373 O365 1.258 . S
C373 O366 1.266 . S
Co374 O377 1.970 . S
Co374 N391 1.989 . S
Co374 O399 1.967 . S
Co374 O406 1.920 . S
Co375 O378 1.966 . S
Co375 N384 2.022 . S
Co375 N392 1.993 . S
Co375 O400 1.941 . S
C376 O377 1.258 . S
C376 O378 1.263 . S
O377 Co374 1.970 . S
O377 C376 1.258 . S
O378 Co375 1.966 . S
O378 C376 1.263 . S
C379 O380 1.235 . S
C379 O406 1.289 . S
O380 C379 1.235 . S
C381 C383 1.400 . S
C381 N384 1.351 . S
C381 C386 1.501 . S
C382 C383 1.387 . S
C382 N385 1.341 . S
C383 C381 1.400 . S
C383 C382 1.387 . S
N384 Co375 2.022 . S
N384 C381 1.351 . S
N384 N385 1.365 . S
N385 C382 1.341 . S
N385 N384 1.365 . S
N385 H405 0.862 . S
C386 C381 1.501 . S
C386 H387 0.961 . S
C386 H388 0.961 . S
C386 H389 0.960 . S
H387 C386 0.961 . S
H388 C386 0.961 . S
H389 C386 0.960 . S
C390 N391 1.342 . S
C390 C394 1.401 . S
C390 C395 1.499 . S
N391 Co374 1.989 . S
N391 C390 1.342 . S
N391 N392 1.388 . S
N392 Co375 1.993 . S
N392 N391 1.388 . S
N392 C393 1.346 . S
C393 N392 1.346 . S
C393 C394 1.396 . S
C393 C403 1.510 . S
C394 C390 1.401 . S
C394 C393 1.396 . S
C395 C390 1.499 . S
C395 H396 0.959 . S
C395 H397 0.960 . S
C395 H398 0.961 . S
H396 C395 0.959 . S
H397 C395 0.960 . S
H398 C395 0.961 . S
O399 Co374 1.967 . S
O399 C407 1.258 . S
O400 Co375 1.941 . S
O400 C407 1.266 . S
H401 C403 0.959 . S
H402 C403 0.961 . S
C403 C393 1.510 . S
C403 H401 0.959 . S
C403 H402 0.961 . S
C403 H404 0.960 . S
H404 C403 0.960 . S
H405 N385 0.862 . S
O406 Co374 1.920 . S
O406 C379 1.289 . S
C407 O399 1.258 . S
C407 O400 1.266 . S
Co408 O411 1.970 1_655 S
Co408 N425 1.989 . S
Co408 O433 1.967 . S
Co408 O440 1.920 . S
Co409 O412 1.966 1_655 S
Co409 N418 2.022 . S
Co409 N426 1.993 . S
Co409 O434 1.941 . S
C410 O411 1.258 . S
C410 O412 1.263 . S
O411 Co408 1.970 1_455 S
O411 C410 1.258 . S
O412 Co409 1.966 1_455 S
O412 C410 1.263 . S
C413 O414 1.235 . S
C413 O440 1.289 1_455 S
O414 C413 1.235 . S
C415 C417 1.400 . S
C415 N418 1.351 . S
C415 C420 1.501 1_655 S
C416 C417 1.387 . S
C416 N419 1.341 . S
C417 C415 1.400 . S
C417 C416 1.387 . S
N418 Co409 2.022 . S
N418 C415 1.351 . S
N418 N419 1.365 . S
N419 C416 1.341 . S
N419 N418 1.365 . S
N419 H439 0.862 . S
C420 C415 1.501 1_455 S
C420 H421 0.961 . S
C420 H422 0.961 . S
C420 H423 0.960 . S
H421 C420 0.961 . S
H422 C420 0.961 . S
H423 C420 0.960 . S
C424 N425 1.342 . S
C424 C428 1.401 . S
C424 C429 1.499 . S
N425 Co408 1.989 . S
N425 C424 1.342 . S
N425 N426 1.388 . S
N426 Co409 1.993 . S
N426 N425 1.388 . S
N426 C427 1.346 . S
C427 N426 1.346 . S
C427 C428 1.396 . S
C427 C437 1.510 . S
C428 C424 1.401 . S
C428 C427 1.396 . S
C429 C424 1.499 . S
C429 H430 0.959 . S
C429 H431 0.960 . S
C429 H432 0.961 . S
H430 C429 0.959 . S
H431 C429 0.960 . S
H432 C429 0.961 . S
O433 Co408 1.967 . S
O433 C441 1.258 . S
O434 Co409 1.941 . S
O434 C441 1.266 . S
H435 C437 0.959 . S
H436 C437 0.961 . S
C437 C427 1.510 . S
C437 H435 0.959 . S
C437 H436 0.961 . S
C437 H438 0.960 . S
H438 C437 0.960 . S
H439 N419 0.862 . S
O440 Co408 1.920 . S
O440 C413 1.289 1_655 S
C441 O433 1.258 . S
C441 O434 1.266 . S
Co442 O445 1.970 1_565 S
Co442 N459 1.989 . S
Co442 O467 1.967 . S
Co442 O474 1.920 1_554 S
Co443 O446 1.966 1_565 S
Co443 N452 2.022 . S
Co443 N460 1.993 . S
Co443 O468 1.941 . S
C444 O445 1.258 . S
C444 O446 1.263 . S
O445 Co442 1.970 1_545 S
O445 C444 1.258 . S
O446 Co443 1.966 1_545 S
O446 C444 1.263 . S
C447 O448 1.235 . S
C447 O474 1.289 1_545 S
O448 C447 1.235 . S
C449 C451 1.400 . S
C449 N452 1.351 . S
C449 C454 1.501 1_565 S
C450 C451 1.387 . S
C450 N453 1.341 . S
C451 C449 1.400 . S
C451 C450 1.387 . S
N452 Co443 2.022 . S
N452 C449 1.351 . S
N452 N453 1.365 . S
N453 C450 1.341 . S
N453 N452 1.365 . S
N453 H473 0.862 . S
C454 C449 1.501 1_545 S
C454 H455 0.961 . S
C454 H456 0.961 . S
C454 H457 0.960 . S
H455 C454 0.961 . S
H456 C454 0.961 . S
H457 C454 0.960 . S
C458 N459 1.342 . S
C458 C462 1.401 . S
C458 C463 1.499 . S
N459 Co442 1.989 . S
N459 C458 1.342 . S
N459 N460 1.388 . S
N460 Co443 1.993 . S
N460 N459 1.388 . S
N460 C461 1.346 . S
C461 N460 1.346 . S
C461 C462 1.396 . S
C461 C471 1.510 . S
C462 C458 1.401 . S
C462 C461 1.396 . S
C463 C458 1.499 . S
C463 H464 0.959 . S
C463 H465 0.960 . S
C463 H466 0.961 . S
H464 C463 0.959 . S
H465 C463 0.960 . S
H466 C463 0.961 . S
O467 Co442 1.967 . S
O467 C475 1.258 . S
O468 Co443 1.941 . S
O468 C475 1.266 . S
H469 C471 0.959 . S
H470 C471 0.961 . S
C471 C461 1.510 . S
C471 H469 0.959 . S
C471 H470 0.961 . S
C471 H472 0.960 . S
H472 C471 0.960 . S
H473 N453 0.862 . S
O474 Co442 1.920 1_556 S
O474 C447 1.289 1_565 S
C475 O467 1.258 . S
C475 O468 1.266 . S
Co476 O479 1.970 . S
Co476 N493 1.989 . S
Co476 O501 1.967 . S
Co476 O508 1.920 . S
Co477 O480 1.966 . S
Co477 N486 2.022 . S
Co477 N494 1.993 . S
Co477 O502 1.941 . S
C478 O479 1.258 . S
C478 O480 1.263 . S
O479 Co476 1.970 . S
O479 C478 1.258 . S
O480 Co477 1.966 . S
O480 C478 1.263 . S
C481 O482 1.235 . S
C481 O508 1.289 . S
O482 C481 1.235 . S
C483 C485 1.400 . S
C483 N486 1.351 . S
C483 C488 1.501 . S
C484 C485 1.387 . S
C484 N487 1.341 . S
C485 C483 1.400 . S
C485 C484 1.387 . S
N486 Co477 2.022 . S
N486 C483 1.351 . S
N486 N487 1.365 . S
N487 C484 1.341 . S
N487 N486 1.365 . S
N487 H507 0.862 . S
C488 C483 1.501 . S
C488 H489 0.961 . S
C488 H490 0.961 . S
C488 H491 0.960 . S
H489 C488 0.961 . S
H490 C488 0.961 . S
H491 C488 0.960 . S
C492 N493 1.342 . S
C492 C496 1.401 . S
C492 C497 1.499 . S
N493 Co476 1.989 . S
N493 C492 1.342 . S
N493 N494 1.388 . S
N494 Co477 1.993 . S
N494 N493 1.388 . S
N494 C495 1.346 . S
C495 N494 1.346 . S
C495 C496 1.396 . S
C495 C505 1.510 . S
C496 C492 1.401 . S
C496 C495 1.396 . S
C497 C492 1.499 . S
C497 H498 0.959 . S
C497 H499 0.960 . S
C497 H500 0.961 . S
H498 C497 0.959 . S
H499 C497 0.960 . S
H500 C497 0.961 . S
O501 Co476 1.967 . S
O501 C509 1.258 . S
O502 Co477 1.941 . S
O502 C509 1.266 . S
H503 C505 0.959 . S
H504 C505 0.961 . S
C505 C495 1.510 . S
C505 H503 0.959 . S
C505 H504 0.961 . S
C505 H506 0.960 . S
H506 C505 0.960 . S
H507 N487 0.862 . S
O508 Co476 1.920 . S
O508 C481 1.289 . S
C509 O501 1.258 . S
C509 O502 1.266 . S
Co510 O513 1.970 . S
Co510 N527 1.989 . S
Co510 O535 1.967 . S
Co510 O542 1.920 1_554 S
Co511 O514 1.966 . S
Co511 N520 2.022 . S
Co511 N528 1.993 . S
Co511 O536 1.941 . S
C512 O513 1.258 . S
C512 O514 1.263 . S
O513 Co510 1.970 . S
O513 C512 1.258 . S
O514 Co511 1.966 . S
O514 C512 1.263 . S
C515 O516 1.235 . S
C515 O542 1.289 . S
O516 C515 1.235 . S
C517 C519 1.400 . S
C517 N520 1.351 . S
C517 C522 1.501 . S
C518 C519 1.387 . S
C518 N521 1.341 . S
C519 C517 1.400 . S
C519 C518 1.387 . S
N520 Co511 2.022 . S
N520 C517 1.351 . S
N520 N521 1.365 . S
N521 C518 1.341 . S
N521 N520 1.365 . S
N521 H541 0.862 . S
C522 C517 1.501 . S
C522 H523 0.961 . S
C522 H524 0.961 . S
C522 H525 0.960 . S
H523 C522 0.961 . S
H524 C522 0.961 . S
H525 C522 0.960 . S
C526 N527 1.342 . S
C526 C530 1.401 . S
C526 C531 1.499 . S
N527 Co510 1.989 . S
N527 C526 1.342 . S
N527 N528 1.388 . S
N528 Co511 1.993 . S
N528 N527 1.388 . S
N528 C529 1.346 . S
C529 N528 1.346 . S
C529 C530 1.396 . S
C529 C539 1.510 . S
C530 C526 1.401 . S
C530 C529 1.396 . S
C531 C526 1.499 . S
C531 H532 0.959 . S
C531 H533 0.960 . S
C531 H534 0.961 . S
H532 C531 0.959 . S
H533 C531 0.960 . S
H534 C531 0.961 . S
O535 Co510 1.967 . S
O535 C543 1.258 . S
O536 Co511 1.941 . S
O536 C543 1.266 . S
H537 C539 0.959 . S
H538 C539 0.961 . S
C539 C529 1.510 . S
C539 H537 0.959 . S
C539 H538 0.961 . S
C539 H540 0.960 . S
H540 C539 0.960 . S
H541 N521 0.862 . S
O542 Co510 1.920 1_556 S
O542 C515 1.289 . S
C543 O535 1.258 . S
C543 O536 1.266 . S
C544 C545 1.391 . S
C544 C546 1.394 . S
C544 H560 0.931 . S
C545 C544 1.391 . S
C545 C549 1.376 . S
C546 C544 1.394 . S
C546 C547 1.369 . S
C546 C550 1.531 . S
C547 C546 1.369 . S
C547 C548 1.410 . S
C547 C555 1.503 . S
C548 C547 1.410 . S
C548 C549 1.392 . S
C548 C551 1.511 . S
C549 C545 1.376 . S
C549 C548 1.392 . S
C549 H561 0.929 . S
C550 C546 1.531 . S
C550 H562 0.960 . S
C550 H563 0.962 . S
C550 H564 0.960 . S
C551 C548 1.511 . S
C551 H565 0.961 . S
C551 H566 0.961 . S
C551 H567 0.961 . S
C552 C553 1.370 . S
C552 C554 1.363 . S
C552 H568 0.931 . S
C553 C552 1.370 . S
C553 C557 1.408 . S
C554 C552 1.363 . S
C554 C555 1.370 . S
C554 C558 1.524 . S
C555 C547 1.503 . S
C555 C554 1.370 . S
C555 C556 1.403 . S
C556 C555 1.403 . S
C556 C557 1.404 . S
C556 C559 1.539 . S
C557 C553 1.408 . S
C557 C556 1.404 . S
C557 H569 0.930 . S
C558 C554 1.524 . S
C558 H570 0.956 . S
C558 H571 0.961 . S
C558 H572 0.961 . S
C559 C556 1.539 . S
C559 H573 0.958 1_554 S
C559 H574 0.961 . S
C559 H575 0.960 . S
H560 C544 0.931 . S
H561 C549 0.929 . S
H562 C550 0.960 . S
H563 C550 0.962 . S
H564 C550 0.960 . S
H565 C551 0.961 . S
H566 C551 0.961 . S
H567 C551 0.961 . S
H568 C552 0.931 . S
H569 C557 0.930 . S
H570 C558 0.956 . S
H571 C558 0.961 . S
H572 C558 0.961 . S
H573 C559 0.958 1_556 S
H574 C559 0.961 . S
H575 C559 0.960 . S
C576 C577 1.391 . S
C576 C578 1.394 . S
C576 H592 0.931 . S
C577 C576 1.391 . S
C577 C581 1.376 . S
C578 C576 1.394 . S
C578 C579 1.369 . S
C578 C582 1.531 . S
C579 C578 1.369 . S
C579 C580 1.410 . S
C579 C587 1.503 . S
C580 C579 1.410 . S
C580 C581 1.392 . S
C580 C583 1.511 . S
C581 C577 1.376 . S
C581 C580 1.392 . S
C581 H593 0.929 . S
C582 C578 1.531 . S
C582 H594 0.960 . S
C582 H595 0.962 . S
C582 H596 0.960 . S
C583 C580 1.511 . S
C583 H597 0.961 . S
C583 H598 0.961 . S
C583 H599 0.961 . S
C584 C585 1.370 . S
C584 C586 1.363 . S
C584 H600 0.931 . S
C585 C584 1.370 . S
C585 C589 1.408 . S
C586 C584 1.363 . S
C586 C587 1.370 . S
C586 C590 1.524 . S
C587 C579 1.503 . S
C587 C586 1.370 . S
C587 C588 1.403 . S
C588 C587 1.403 . S
C588 C589 1.404 . S
C588 C591 1.539 . S
C589 C585 1.408 . S
C589 C588 1.404 . S
C589 H601 0.930 . S
C590 C586 1.524 . S
C590 H602 0.956 . S
C590 H603 0.961 . S
C590 H604 0.961 . S
C591 C588 1.539 . S
C591 H605 0.958 . S
C591 H606 0.961 . S
C591 H607 0.960 . S
H592 C576 0.931 . S
H593 C581 0.929 . S
H594 C582 0.960 . S
H595 C582 0.962 . S
H596 C582 0.960 . S
H597 C583 0.961 . S
H598 C583 0.961 . S
H599 C583 0.961 . S
H600 C584 0.931 . S
H601 C589 0.930 . S
H602 C590 0.956 . S
H603 C590 0.961 . S
H604 C590 0.961 . S
H605 C591 0.958 . S
H606 C591 0.961 . S
H607 C591 0.960 . S
C608 C609 1.391 . S
C608 C610 1.394 . S
C608 H624 0.931 . S
C609 C608 1.391 . S
C609 C613 1.376 . S
C610 C608 1.394 . S
C610 C611 1.369 . S
C610 C614 1.531 . S
C611 C610 1.369 . S
C611 C612 1.410 . S
C611 C619 1.503 . S
C612 C611 1.410 . S
C612 C613 1.392 . S
C612 C615 1.511 . S
C613 C609 1.376 . S
C613 C612 1.392 . S
C613 H625 0.929 . S
C614 C610 1.531 . S
C614 H626 0.960 . S
C614 H627 0.962 . S
C614 H628 0.960 1_554 S
C615 C612 1.511 . S
C615 H629 0.961 . S
C615 H630 0.961 . S
C615 H631 0.961 . S
C616 C617 1.370 . S
C616 C618 1.363 . S
C616 H632 0.931 . S
C617 C616 1.370 . S
C617 C621 1.408 . S
C618 C616 1.363 . S
C618 C619 1.370 . S
C618 C622 1.524 . S
C619 C611 1.503 . S
C619 C618 1.370 . S
C619 C620 1.403 . S
C620 C619 1.403 . S
C620 C621 1.404 . S
C620 C623 1.539 . S
C621 C617 1.408 . S
C621 C620 1.404 . S
C621 H633 0.930 . S
C622 C618 1.524 . S
C622 H634 0.956 . S
C622 H635 0.961 . S
C622 H636 0.961 . S
C623 C620 1.539 . S
C623 H637 0.958 . S
C623 H638 0.961 . S
C623 H639 0.960 . S
H624 C608 0.931 . S
H625 C613 0.929 . S
H626 C614 0.960 . S
H627 C614 0.962 . S
H628 C614 0.960 1_556 S
H629 C615 0.961 . S
H630 C615 0.961 . S
H631 C615 0.961 . S
H632 C616 0.931 . S
H633 C621 0.930 . S
H634 C622 0.956 . S
H635 C622 0.961 . S
H636 C622 0.961 . S
H637 C623 0.958 . S
H638 C623 0.961 . S
H639 C623 0.960 . S
C640 C641 1.391 . S
C640 C642 1.394 . S
C640 H656 0.931 . S
C641 C640 1.391 . S
C641 C645 1.376 . S
C642 C640 1.394 . S
C642 C643 1.369 . S
C642 C646 1.531 . S
C643 C642 1.369 . S
C643 C644 1.410 . S
C643 C651 1.503 . S
C644 C643 1.410 . S
C644 C645 1.392 . S
C644 C647 1.511 . S
C645 C641 1.376 . S
C645 C644 1.392 . S
C645 H657 0.929 . S
C646 C642 1.531 . S
C646 H658 0.960 . S
C646 H659 0.962 . S
C646 H660 0.960 . S
C647 C644 1.511 . S
C647 H661 0.961 . S
C647 H662 0.961 . S
C647 H663 0.961 . S
C648 C649 1.370 . S
C648 C650 1.363 . S
C648 H664 0.931 . S
C649 C648 1.370 . S
C649 C653 1.408 . S
C650 C648 1.363 . S
C650 C651 1.370 . S
C650 C654 1.524 . S
C651 C643 1.503 . S
C651 C650 1.370 . S
C651 C652 1.403 . S
C652 C651 1.403 . S
C652 C653 1.404 . S
C652 C655 1.539 . S
C653 C649 1.408 . S
C653 C652 1.404 . S
C653 H665 0.930 . S
C654 C650 1.524 . S
C654 H666 0.956 . S
C654 H667 0.961 . S
C654 H668 0.961 . S
C655 C652 1.539 . S
C655 H669 0.958 . S
C655 H670 0.961 . S
C655 H671 0.960 . S
H656 C640 0.931 . S
H657 C645 0.929 . S
H658 C646 0.960 . S
H659 C646 0.962 . S
H660 C646 0.960 . S
H661 C647 0.961 . S
H662 C647 0.961 . S
H663 C647 0.961 . S
H664 C648 0.931 . S
H665 C653 0.930 . S
H666 C654 0.956 . S
H667 C654 0.961 . S
H668 C654 0.961 . S
H669 C655 0.958 . S
H670 C655 0.961 . S
H671 C655 0.960 . S
C672 C673 1.391 . S
C672 C674 1.394 . S
C672 H688 0.931 . S
C673 C672 1.391 . S
C673 C677 1.376 . S
C674 C672 1.394 . S
C674 C675 1.369 . S
C674 C678 1.531 . S
C675 C674 1.369 . S
C675 C676 1.410 . S
C675 C683 1.503 . S
C676 C675 1.410 . S
C676 C677 1.392 . S
C676 C679 1.511 . S
C677 C673 1.376 . S
C677 C676 1.392 . S
C677 H689 0.929 . S
C678 C674 1.531 . S
C678 H690 0.960 . S
C678 H691 0.962 . S
C678 H692 0.960 . S
C679 C676 1.511 . S
C679 H693 0.961 . S
C679 H694 0.961 . S
C679 H695 0.961 . S
C680 C681 1.370 . S
C680 C682 1.363 . S
C680 H696 0.931 . S
C681 C680 1.370 . S
C681 C685 1.408 . S
C682 C680 1.363 . S
C682 C683 1.370 . S
C682 C686 1.524 . S
C683 C675 1.503 . S
C683 C682 1.370 . S
C683 C684 1.403 . S
C684 C683 1.403 . S
C684 C685 1.404 . S
C684 C687 1.539 . S
C685 C681 1.408 . S
C685 C684 1.404 . S
C685 H697 0.930 . S
C686 C682 1.524 . S
C686 H698 0.956 . S
C686 H699 0.961 . S
C686 H700 0.961 . S
C687 C684 1.539 . S
C687 H701 0.958 . S
C687 H702 0.961 . S
C687 H703 0.960 . S
H688 C672 0.931 . S
H689 C677 0.929 . S
H690 C678 0.960 . S
H691 C678 0.962 . S
H692 C678 0.960 . S
H693 C679 0.961 . S
H694 C679 0.961 . S
H695 C679 0.961 . S
H696 C680 0.931 . S
H697 C685 0.930 . S
H698 C686 0.956 . S
H699 C686 0.961 . S
H700 C686 0.961 . S
H701 C687 0.958 . S
H702 C687 0.961 . S
H703 C687 0.960 . S
C704 C705 1.391 . S
C704 C706 1.394 . S
C704 H720 0.931 . S
C705 C704 1.391 . S
C705 C709 1.376 . S
C706 C704 1.394 . S
C706 C707 1.369 . S
C706 C710 1.531 . S
C707 C706 1.369 . S
C707 C708 1.410 . S
C707 C715 1.503 . S
C708 C707 1.410 . S
C708 C709 1.392 . S
C708 C711 1.511 . S
C709 C705 1.376 . S
C709 C708 1.392 . S
C709 H721 0.929 . S
C710 C706 1.531 . S
C710 H722 0.960 . S
C710 H723 0.962 . S
C710 H724 0.960 . S
C711 C708 1.511 . S
C711 H725 0.961 . S
C711 H726 0.961 . S
C711 H727 0.961 . S
C712 C713 1.370 . S
C712 C714 1.363 . S
C712 H728 0.931 . S
C713 C712 1.370 . S
C713 C717 1.408 . S
C714 C712 1.363 . S
C714 C715 1.370 . S
C714 C718 1.524 . S
C715 C707 1.503 . S
C715 C714 1.370 . S
C715 C716 1.403 . S
C716 C715 1.403 . S
C716 C717 1.404 . S
C716 C719 1.539 . S
C717 C713 1.408 . S
C717 C716 1.404 . S
C717 H729 0.930 . S
C718 C714 1.524 . S
C718 H730 0.956 . S
C718 H731 0.961 . S
C718 H732 0.961 . S
C719 C716 1.539 . S
C719 H733 0.958 1_556 S
C719 H734 0.961 1_556 S
C719 H735 0.960 . S
H720 C704 0.931 . S
H721 C709 0.929 . S
H722 C710 0.960 . S
H723 C710 0.962 . S
H724 C710 0.960 . S
H725 C711 0.961 . S
H726 C711 0.961 . S
H727 C711 0.961 . S
H728 C712 0.931 . S
H729 C717 0.930 . S
H730 C718 0.956 . S
H731 C718 0.961 . S
H732 C718 0.961 . S
H733 C719 0.958 1_554 S
H734 C719 0.961 1_554 S
H735 C719 0.960 . S
C736 C737 1.391 . S
C736 C738 1.394 . S
C736 H752 0.931 . S
C737 C736 1.391 . S
C737 C741 1.376 . S
C738 C736 1.394 . S
C738 C739 1.369 . S
C738 C742 1.531 . S
C739 C738 1.369 . S
C739 C740 1.410 . S
C739 C747 1.503 . S
C740 C739 1.410 . S
C740 C741 1.392 . S
C740 C743 1.511 . S
C741 C737 1.376 . S
C741 C740 1.392 . S
C741 H753 0.929 . S
C742 C738 1.531 . S
C742 H754 0.960 . S
C742 H755 0.962 . S
C742 H756 0.960 . S
C743 C740 1.511 . S
C743 H757 0.961 . S
C743 H758 0.961 . S
C743 H759 0.961 . S
C744 C745 1.370 . S
C744 C746 1.363 . S
C744 H760 0.931 . S
C745 C744 1.370 . S
C745 C749 1.408 . S
C746 C744 1.363 . S
C746 C747 1.370 . S
C746 C750 1.524 . S
C747 C739 1.503 . S
C747 C746 1.370 . S
C747 C748 1.403 . S
C748 C747 1.403 . S
C748 C749 1.404 . S
C748 C751 1.539 . S
C749 C745 1.408 . S
C749 C748 1.404 . S
C749 H761 0.930 . S
C750 C746 1.524 . S
C750 H762 0.956 . S
C750 H763 0.961 . S
C750 H764 0.961 . S
C751 C748 1.539 . S
C751 H765 0.958 . S
C751 H766 0.961 . S
C751 H767 0.960 . S
H752 C736 0.931 . S
H753 C741 0.929 . S
H754 C742 0.960 . S
H755 C742 0.962 . S
H756 C742 0.960 . S
H757 C743 0.961 . S
H758 C743 0.961 . S
H759 C743 0.961 . S
H760 C744 0.931 . S
H761 C749 0.930 . S
H762 C750 0.956 . S
H763 C750 0.961 . S
H764 C750 0.961 . S
H765 C751 0.958 . S
H766 C751 0.961 . S
H767 C751 0.960 . S
C768 C769 1.391 . S
C768 C770 1.394 . S
C768 H784 0.931 . S
C769 C768 1.391 . S
C769 C773 1.376 . S
C770 C768 1.394 . S
C770 C771 1.369 . S
C770 C774 1.531 . S
C771 C770 1.369 . S
C771 C772 1.410 . S
C771 C779 1.503 . S
C772 C771 1.410 . S
C772 C773 1.392 . S
C772 C775 1.511 . S
C773 C769 1.376 . S
C773 C772 1.392 . S
C773 H785 0.929 . S
C774 C770 1.531 . S
C774 H786 0.960 . S
C774 H787 0.962 . S
C774 H788 0.960 . S
C775 C772 1.511 . S
C775 H789 0.961 . S
C775 H790 0.961 . S
C775 H791 0.961 . S
C776 C777 1.370 . S
C776 C778 1.363 . S
C776 H792 0.931 . S
C777 C776 1.370 . S
C777 C781 1.408 . S
C778 C776 1.363 . S
C778 C779 1.370 . S
C778 C782 1.524 . S
C779 C771 1.503 . S
C779 C778 1.370 . S
C779 C780 1.403 . S
C780 C779 1.403 . S
C780 C781 1.404 . S
C780 C783 1.539 . S
C781 C777 1.408 . S
C781 C780 1.404 . S
C781 H793 0.930 . S
C782 C778 1.524 . S
C782 H794 0.956 . S
C782 H795 0.961 . S
C782 H796 0.961 . S
C783 C780 1.539 . S
C783 H797 0.958 . S
C783 H798 0.961 . S
C783 H799 0.960 . S
H784 C768 0.931 . S
H785 C773 0.929 . S
H786 C774 0.960 . S
H787 C774 0.962 . S
H788 C774 0.960 . S
H789 C775 0.961 . S
H790 C775 0.961 . S
H791 C775 0.961 . S
H792 C776 0.931 . S
H793 C781 0.930 . S
H794 C782 0.956 . S
H795 C782 0.961 . S
H796 C782 0.961 . S
H797 C783 0.958 . S
H798 C783 0.961 . S
H799 C783 0.960 . S
C800 C801 1.391 . S
C800 C802 1.394 . S
C800 H816 0.931 . S
C801 C800 1.391 . S
C801 C805 1.376 . S
C802 C800 1.394 . S
C802 C803 1.369 . S
C802 C806 1.531 1_554 S
C803 C802 1.369 . S
C803 C804 1.410 . S
C803 C811 1.503 1_554 S
C804 C803 1.410 . S
C804 C805 1.392 . S
C804 C807 1.511 . S
C805 C801 1.376 . S
C805 C804 1.392 . S
C805 H817 0.929 . S
C806 C802 1.531 1_556 S
C806 H818 0.960 . S
C806 H819 0.962 1_556 S
C806 H820 0.960 . S
C807 C804 1.511 . S
C807 H821 0.961 . S
C807 H822 0.961 . S
C807 H823 0.961 1_554 S
C808 C809 1.370 . S
C808 C810 1.363 1_556 S
C808 H824 0.931 . S
C809 C808 1.370 . S
C809 C813 1.408 . S
C810 C808 1.363 1_554 S
C810 C811 1.370 1_554 S
C810 C814 1.524 . S
C811 C803 1.503 1_556 S
C811 C810 1.370 1_556 S
C811 C812 1.403 . S
C812 C811 1.403 . S
C812 C813 1.404 . S
C812 C815 1.539 . S
C813 C809 1.408 . S
C813 C812 1.404 . S
C813 H825 0.930 . S
C814 C810 1.524 . S
C814 H826 0.956 . S
C814 H827 0.961 . S
C814 H828 0.961 . S
C815 C812 1.539 . S
C815 H829 0.958 . S
C815 H830 0.961 . S
C815 H831 0.960 . S
H816 C800 0.931 . S
H817 C805 0.929 . S
H818 C806 0.960 . S
H819 C806 0.962 1_554 S
H820 C806 0.960 . S
H821 C807 0.961 . S
H822 C807 0.961 . S
H823 C807 0.961 1_556 S
H824 C808 0.931 . S
H825 C813 0.930 . S
H826 C814 0.956 . S
H827 C814 0.961 . S
H828 C814 0.961 . S
H829 C815 0.958 . S
H830 C815 0.961 . S
H831 C815 0.960 . S
C832 C833 1.391 . S
C832 C834 1.394 . S
C832 H848 0.931 . S
C833 C832 1.391 . S
C833 C837 1.376 . S
C834 C832 1.394 . S
C834 C835 1.369 . S
C834 C838 1.531 . S
C835 C834 1.369 . S
C835 C836 1.410 . S
C835 C843 1.503 . S
C836 C835 1.410 . S
C836 C837 1.392 . S
C836 C839 1.511 . S
C837 C833 1.376 . S
C837 C836 1.392 . S
C837 H849 0.929 . S
C838 C834 1.531 . S
C838 H850 0.960 . S
C838 H851 0.962 . S
C838 H852 0.960 . S
C839 C836 1.511 . S
C839 H853 0.961 . S
C839 H854 0.961 . S
C839 H855 0.961 . S
C840 C841 1.370 . S
C840 C842 1.363 . S
C840 H856 0.931 . S
C841 C840 1.370 . S
C841 C845 1.408 . S
C842 C840 1.363 . S
C842 C843 1.370 . S
C842 C846 1.524 . S
C843 C835 1.503 . S
C843 C842 1.370 . S
C843 C844 1.403 . S
C844 C843 1.403 . S
C844 C845 1.404 . S
C844 C847 1.539 . S
C845 C841 1.408 . S
C845 C844 1.404 . S
C845 H857 0.930 . S
C846 C842 1.524 . S
C846 H858 0.956 . S
C846 H859 0.961 . S
C846 H860 0.961 . S
C847 C844 1.539 . S
C847 H861 0.958 . S
C847 H862 0.961 . S
C847 H863 0.960 . S
H848 C832 0.931 . S
H849 C837 0.929 . S
H850 C838 0.960 . S
H851 C838 0.962 . S
H852 C838 0.960 . S
H853 C839 0.961 . S
H854 C839 0.961 . S
H855 C839 0.961 . S
H856 C840 0.931 . S
H857 C845 0.930 . S
H858 C846 0.956 . S
H859 C846 0.961 . S
H860 C846 0.961 . S
H861 C847 0.958 . S
H862 C847 0.961 . S
H863 C847 0.960 . S
C864 C865 1.391 . S
C864 C866 1.394 . S
C864 H880 0.931 . S
C865 C864 1.391 . S
C865 C869 1.376 . S
C866 C864 1.394 . S
C866 C867 1.369 . S
C866 C870 1.531 . S
C867 C866 1.369 . S
C867 C868 1.410 1_554 S
C867 C875 1.503 1_554 S
C868 C867 1.410 1_556 S
C868 C869 1.392 1_556 S
C868 C871 1.511 . S
C869 C865 1.376 . S
C869 C868 1.392 1_554 S
C869 H881 0.929 . S
C870 C866 1.531 . S
C870 H882 0.960 . S
C870 H883 0.962 . S
C870 H884 0.960 . S
C871 C868 1.511 . S
C871 H885 0.961 . S
C871 H886 0.961 . S
C871 H887 0.961 . S
C872 C873 1.370 . S
C872 C874 1.363 . S
C872 H888 0.931 . S
C873 C872 1.370 . S
C873 C877 1.408 . S
C874 C872 1.363 . S
C874 C875 1.370 . S
C874 C878 1.524 . S
C875 C867 1.503 1_556 S
C875 C874 1.370 . S
C875 C876 1.403 . S
C876 C875 1.403 . S
C876 C877 1.404 . S
C876 C879 1.539 . S
C877 C873 1.408 . S
C877 C876 1.404 . S
C877 H889 0.930 . S
C878 C874 1.524 . S
C878 H890 0.956 1_556 S
C878 H891 0.961 . S
C878 H892 0.961 . S
C879 C876 1.539 . S
C879 H893 0.958 1_556 S
C879 H894 0.961 . S
C879 H895 0.960 . S
H880 C864 0.931 . S
H881 C869 0.929 . S
H882 C870 0.960 . S
H883 C870 0.962 . S
H884 C870 0.960 . S
H885 C871 0.961 . S
H886 C871 0.961 . S
H887 C871 0.961 . S
H888 C872 0.931 . S
H889 C877 0.930 . S
H890 C878 0.956 1_554 S
H891 C878 0.961 . S
H892 C878 0.961 . S
H893 C879 0.958 1_554 S
H894 C879 0.961 . S
H895 C879 0.960 . S
C896 C897 1.391 . S
C896 C898 1.394 . S
C896 H912 0.931 . S
C897 C896 1.391 . S
C897 C901 1.376 . S
C898 C896 1.394 . S
C898 C899 1.369 . S
C898 C902 1.531 . S
C899 C898 1.369 . S
C899 C900 1.410 . S
C899 C907 1.503 . S
C900 C899 1.410 . S
C900 C901 1.392 . S
C900 C903 1.511 . S
C901 C897 1.376 . S
C901 C900 1.392 . S
C901 H913 0.929 . S
C902 C898 1.531 . S
C902 H914 0.960 . S
C902 H915 0.962 . S
C902 H916 0.960 . S
C903 C900 1.511 . S
C903 H917 0.961 . S
C903 H918 0.961 . S
C903 H919 0.961 . S
C904 C905 1.370 . S
C904 C906 1.363 . S
C904 H920 0.931 . S
C905 C904 1.370 . S
C905 C909 1.408 . S
C906 C904 1.363 . S
C906 C907 1.370 . S
C906 C910 1.524 . S
C907 C899 1.503 . S
C907 C906 1.370 . S
C907 C908 1.403 . S
C908 C907 1.403 . S
C908 C909 1.404 . S
C908 C911 1.539 . S
C909 C905 1.408 . S
C909 C908 1.404 . S
C909 H921 0.930 . S
C910 C906 1.524 . S
C910 H922 0.956 . S
C910 H923 0.961 . S
C910 H924 0.961 . S
C911 C908 1.539 . S
C911 H925 0.958 . S
C911 H926 0.961 . S
C911 H927 0.960 . S
H912 C896 0.931 . S
H913 C901 0.929 . S
H914 C902 0.960 . S
H915 C902 0.962 . S
H916 C902 0.960 . S
H917 C903 0.961 . S
H918 C903 0.961 . S
H919 C903 0.961 . S
H920 C904 0.931 . S
H921 C909 0.930 . S
H922 C910 0.956 . S
H923 C910 0.961 . S
H924 C910 0.961 . S
H925 C911 0.958 . S
H926 C911 0.961 . S
H927 C911 0.960 . S
C928 C929 1.391 . S
C928 C930 1.394 . S
C928 H944 0.931 . S
C929 C928 1.391 . S
C929 C933 1.376 . S
C930 C928 1.394 . S
C930 C931 1.369 . S
C930 C934 1.531 . S
C931 C930 1.369 . S
C931 C932 1.410 . S
C931 C939 1.503 1_554 S
C932 C931 1.410 . S
C932 C933 1.392 . S
C932 C935 1.511 1_554 S
C933 C929 1.376 . S
C933 C932 1.392 . S
C933 H945 0.929 . S
C934 C930 1.531 . S
C934 H946 0.960 . S
C934 H947 0.962 . S
C934 H948 0.960 . S
C935 C932 1.511 1_556 S
C935 H949 0.961 . S
C935 H950 0.961 . S
C935 H951 0.961 1_556 S
C936 C937 1.370 . S
C936 C938 1.363 . S
C936 H952 0.931 . S
C937 C936 1.370 . S
C937 C941 1.408 . S
C938 C936 1.363 . S
C938 C939 1.370 . S
C938 C942 1.524 . S
C939 C931 1.503 1_556 S
C939 C938 1.370 . S
C939 C940 1.403 1_556 S
C940 C939 1.403 1_554 S
C940 C941 1.404 1_554 S
C940 C943 1.539 . S
C941 C937 1.408 . S
C941 C940 1.404 1_556 S
C941 H953 0.930 . S
C942 C938 1.524 . S
C942 H954 0.956 . S
C942 H955 0.961 . S
C942 H956 0.961 . S
C943 C940 1.539 . S
C943 H957 0.958 . S
C943 H958 0.961 . S
C943 H959 0.960 . S
H944 C928 0.931 . S
H945 C933 0.929 . S
H946 C934 0.960 . S
H947 C934 0.962 . S
H948 C934 0.960 . S
H949 C935 0.961 . S
H950 C935 0.961 . S
H951 C935 0.961 1_554 S
H952 C936 0.931 . S
H953 C941 0.930 . S
H954 C942 0.956 . S
H955 C942 0.961 . S
H956 C942 0.961 . S
H957 C943 0.958 . S
H958 C943 0.961 . S
H959 C943 0.960 . S
C960 C961 1.391 . S
C960 C962 1.394 . S
C960 H976 0.931 . S
C961 C960 1.391 . S
C961 C965 1.376 . S
C962 C960 1.394 . S
C962 C963 1.369 . S
C962 C966 1.531 . S
C963 C962 1.369 . S
C963 C964 1.410 . S
C963 C971 1.503 . S
C964 C963 1.410 . S
C964 C965 1.392 . S
C964 C967 1.511 . S
C965 C961 1.376 . S
C965 C964 1.392 . S
C965 H977 0.929 . S
C966 C962 1.531 . S
C966 H978 0.960 . S
C966 H979 0.962 . S
C966 H980 0.960 . S
C967 C964 1.511 . S
C967 H981 0.961 . S
C967 H982 0.961 . S
C967 H983 0.961 . S
C968 C969 1.370 . S
C968 C970 1.363 . S
C968 H984 0.931 . S
C969 C968 1.370 . S
C969 C973 1.408 . S
C970 C968 1.363 . S
C970 C971 1.370 . S
C970 C974 1.524 . S
C971 C963 1.503 . S
C971 C970 1.370 . S
C971 C972 1.403 . S
C972 C971 1.403 . S
C972 C973 1.404 . S
C972 C975 1.539 . S
C973 C969 1.408 . S
C973 C972 1.404 . S
C973 H985 0.930 . S
C974 C970 1.524 . S
C974 H986 0.956 . S
C974 H987 0.961 . S
C974 H988 0.961 . S
C975 C972 1.539 . S
C975 H989 0.958 . S
C975 H990 0.961 . S
C975 H991 0.960 . S
H976 C960 0.931 . S
H977 C965 0.929 . S
H978 C966 0.960 . S
H979 C966 0.962 . S
H980 C966 0.960 . S
H981 C967 0.961 . S
H982 C967 0.961 . S
H983 C967 0.961 . S
H984 C968 0.931 . S
H985 C973 0.930 . S
H986 C974 0.956 . S
H987 C974 0.961 . S
H988 C974 0.961 . S
H989 C975 0.958 . S
H990 C975 0.961 . S
H991 C975 0.960 . S
C992 C993 1.391 . S
C992 C994 1.394 . S
C992 H1008 0.931 . S
C993 C992 1.391 . S
C993 C997 1.376 . S
C994 C992 1.394 . S
C994 C995 1.369 . S
C994 C998 1.531 . S
C995 C994 1.369 . S
C995 C996 1.410 1_554 S
C995 C1003 1.503 1_554 S
C996 C995 1.410 1_556 S
C996 C997 1.392 1_556 S
C996 C999 1.511 . S
C997 C993 1.376 . S
C997 C996 1.392 1_554 S
C997 H1009 0.929 . S
C998 C994 1.531 . S
C998 H1010 0.960 . S
C998 H1011 0.962 . S
C998 H1012 0.960 . S
C999 C996 1.511 . S
C999 H1013 0.961 . S
C999 H1014 0.961 . S
C999 H1015 0.961 . S
C1000 C1001 1.370 . S
C1000 C1002 1.363 . S
C1000 H1016 0.931 . S
C1001 C1000 1.370 . S
C1001 C1005 1.408 . S
C1002 C1000 1.363 . S
C1002 C1003 1.370 . S
C1002 C1006 1.524 . S
C1003 C995 1.503 1_556 S
C1003 C1002 1.370 . S
C1003 C1004 1.403 . S
C1004 C1003 1.403 . S
C1004 C1005 1.404 . S
C1004 C1007 1.539 . S
C1005 C1001 1.408 . S
C1005 C1004 1.404 . S
C1005 H1017 0.930 . S
C1006 C1002 1.524 . S
C1006 H1018 0.956 1_556 S
C1006 H1019 0.961 . S
C1006 H1020 0.961 . S
C1007 C1004 1.539 . S
C1007 H1021 0.958 1_556 S
C1007 H1022 0.961 . S
C1007 H1023 0.960 . S
H1008 C992 0.931 . S
H1009 C997 0.929 . S
H1010 C998 0.960 . S
H1011 C998 0.962 . S
H1012 C998 0.960 . S
H1013 C999 0.961 . S
H1014 C999 0.961 . S
H1015 C999 0.961 . S
H1016 C1000 0.931 . S
H1017 C1005 0.930 . S
H1018 C1006 0.956 1_554 S
H1019 C1006 0.961 . S
H1020 C1006 0.961 . S
H1021 C1007 0.958 1_554 S
H1022 C1007 0.961 . S
H1023 C1007 0.960 . S
C1024 C1025 1.391 . S
C1024 C1026 1.394 . S
C1024 H1040 0.931 . S
C1025 C1024 1.391 . S
C1025 C1029 1.376 . S
C1026 C1024 1.394 . S
C1026 C1027 1.369 . S
C1026 C1030 1.531 . S
C1027 C1026 1.369 . S
C1027 C1028 1.410 . S
C1027 C1035 1.503 . S
C1028 C1027 1.410 . S
C1028 C1029 1.392 . S
C1028 C1031 1.511 . S
C1029 C1025 1.376 . S
C1029 C1028 1.392 . S
C1029 H1041 0.929 . S
C1030 C1026 1.531 . S
C1030 H1042 0.960 . S
C1030 H1043 0.962 . S
C1030 H1044 0.960 . S
C1031 C1028 1.511 . S
C1031 H1045 0.961 . S
C1031 H1046 0.961 . S
C1031 H1047 0.961 . S
C1032 C1033 1.370 . S
C1032 C1034 1.363 . S
C1032 H1048 0.931 . S
C1033 C1032 1.370 . S
C1033 C1037 1.408 . S
C1034 C1032 1.363 . S
C1034 C1035 1.370 . S
C1034 C1038 1.524 . S
C1035 C1027 1.503 . S
C1035 C1034 1.370 . S
C1035 C1036 1.403 . S
C1036 C1035 1.403 . S
C1036 C1037 1.404 . S
C1036 C1039 1.539 . S
C1037 C1033 1.408 . S
C1037 C1036 1.404 . S
C1037 H1049 0.930 . S
C1038 C1034 1.524 . S
C1038 H1050 0.956 . S
C1038 H1051 0.961 . S
C1038 H1052 0.961 . S
C1039 C1036 1.539 . S
C1039 H1053 0.958 . S
C1039 H1054 0.961 . S
C1039 H1055 0.960 . S
H1040 C1024 0.931 . S
H1041 C1029 0.929 . S
H1042 C1030 0.960 . S
H1043 C1030 0.962 . S
H1044 C1030 0.960 . S
H1045 C1031 0.961 . S
H1046 C1031 0.961 . S
H1047 C1031 0.961 . S
H1048 C1032 0.931 . S
H1049 C1037 0.930 . S
H1050 C1038 0.956 . S
H1051 C1038 0.961 . S
H1052 C1038 0.961 . S
H1053 C1039 0.958 . S
H1054 C1039 0.961 . S
H1055 C1039 0.960 . S
C1056 C1057 1.391 . S
C1056 C1058 1.394 . S
C1056 H1072 0.931 . S
C1057 C1056 1.391 . S
C1057 C1061 1.376 . S
C1058 C1056 1.394 . S
C1058 C1059 1.369 . S
C1058 C1062 1.531 . S
C1059 C1058 1.369 . S
C1059 C1060 1.410 . S
C1059 C1067 1.503 . S
C1060 C1059 1.410 . S
C1060 C1061 1.392 . S
C1060 C1063 1.511 1_455 S
C1061 C1057 1.376 . S
C1061 C1060 1.392 . S
C1061 H1073 0.929 1_455 S
C1062 C1058 1.531 . S
C1062 H1074 0.960 . S
C1062 H1075 0.962 . S
C1062 H1076 0.960 . S
C1063 C1060 1.511 1_655 S
C1063 H1077 0.961 . S
C1063 H1078 0.961 . S
C1063 H1079 0.961 . S
C1064 C1065 1.370 . S
C1064 C1066 1.363 . S
C1064 H1080 0.931 . S
C1065 C1064 1.370 . S
C1065 C1069 1.408 . S
C1066 C1064 1.363 . S
C1066 C1067 1.370 . S
C1066 C1070 1.524 . S
C1067 C1059 1.503 . S
C1067 C1066 1.370 . S
C1067 C1068 1.403 . S
C1068 C1067 1.403 . S
C1068 C1069 1.404 . S
C1068 C1071 1.539 . S
C1069 C1065 1.408 . S
C1069 C1068 1.404 . S
C1069 H1081 0.930 . S
C1070 C1066 1.524 . S
C1070 H1082 0.956 . S
C1070 H1083 0.961 . S
C1070 H1084 0.961 . S
C1071 C1068 1.539 . S
C1071 H1085 0.958 . S
C1071 H1086 0.961 1_455 S
C1071 H1087 0.942 1_455 S
H1072 C1056 0.931 . S
H1073 C1061 0.929 1_655 S
H1074 C1062 0.960 . S
H1075 C1062 0.962 . S
H1076 C1062 0.960 . S
H1077 C1063 0.961 . S
H1078 C1063 0.961 . S
H1079 C1063 0.961 . S
H1080 C1064 0.931 . S
H1081 C1069 0.930 . S
H1082 C1070 0.956 . S
H1083 C1070 0.961 . S
H1084 C1070 0.961 . S
H1085 C1071 0.958 . S
H1086 C1071 0.961 1_655 S
H1087 C1071 0.942 1_655 S
C1088 C1089 1.391 . S
C1088 C1090 1.394 . S
C1088 H1104 0.931 . S
C1089 C1088 1.391 . S
C1089 C1093 1.376 . S
C1090 C1088 1.394 . S
C1090 C1091 1.369 . S
C1090 C1094 1.531 . S
C1091 C1090 1.369 . S
C1091 C1092 1.410 . S
C1091 C1099 1.503 . S
C1092 C1091 1.410 . S
C1092 C1093 1.392 . S
C1092 C1095 1.511 . S
C1093 C1089 1.376 . S
C1093 C1092 1.392 . S
C1093 H1105 0.929 . S
C1094 C1090 1.531 . S
C1094 H1106 0.960 . S
C1094 H1107 0.962 . S
C1094 H1108 0.960 . S
C1095 C1092 1.511 . S
C1095 H1109 0.961 1_545 S
C1095 H1110 0.961 1_545 S
C1095 H1111 0.961 . S
C1096 C1097 1.370 . S
C1096 C1098 1.363 . S
C1096 H1112 0.931 1_545 S
C1097 C1096 1.370 . S
C1097 C1101 1.408 . S
C1098 C1096 1.363 . S
C1098 C1099 1.370 . S
C1098 C1102 1.524 1_545 S
C1099 C1091 1.503 . S
C1099 C1098 1.370 . S
C1099 C1100 1.403 . S
C1100 C1099 1.403 . S
C1100 C1101 1.404 . S
C1100 C1103 1.539 . S
C1101 C1097 1.408 . S
C1101 C1100 1.404 . S
C1101 H1113 0.930 . S
C1102 C1098 1.524 1_565 S
C1102 H1114 0.956 . S
C1102 H1115 0.961 . S
C1102 H1116 0.961 . S
C1103 C1100 1.539 . S
C1103 H1117 0.958 . S
C1103 H1118 0.961 . S
C1103 H1119 0.960 . S
H1104 C1088 0.931 . S
H1105 C1093 0.929 . S
H1106 C1094 0.960 . S
H1107 C1094 0.962 . S
H1108 C1094 0.960 . S
H1109 C1095 0.961 1_565 S
H1110 C1095 0.961 1_565 S
H1111 C1095 0.961 . S
H1112 C1096 0.931 1_565 S
H1113 C1101 0.930 . S
H1114 C1102 0.956 . S
H1115 C1102 0.961 . S
H1116 C1102 0.961 . S
H1117 C1103 0.958 . S
H1118 C1103 0.961 . S
H1119 C1103 0.960 . S
C1120 C1121 1.391 . S
C1120 C1122 1.394 . S
C1120 H1136 0.931 . S
C1121 C1120 1.391 . S
C1121 C1125 1.376 . S
C1122 C1120 1.394 . S
C1122 C1123 1.369 . S
C1122 C1126 1.531 . S
C1123 C1122 1.369 . S
C1123 C1124 1.410 . S
C1123 C1131 1.503 . S
C1124 C1123 1.410 . S
C1124 C1125 1.392 . S
C1124 C1127 1.511 . S
C1125 C1121 1.376 . S
C1125 C1124 1.392 . S
C1125 H1137 0.929 . S
C1126 C1122 1.531 . S
C1126 H1138 0.960 . S
C1126 H1139 0.962 . S
C1126 H1140 0.960 . S
C1127 C1124 1.511 . S
C1127 H1141 0.961 . S
C1127 H1142 0.961 . S
C1127 H1143 0.961 . S
C1128 C1129 1.370 . S
C1128 C1130 1.363 . S
C1128 H1144 0.931 . S
C1129 C1128 1.370 . S
C1129 C1133 1.408 . S
C1130 C1128 1.363 . S
C1130 C1131 1.370 . S
C1130 C1134 1.524 . S
C1131 C1123 1.503 . S
C1131 C1130 1.370 . S
C1131 C1132 1.403 . S
C1132 C1131 1.403 . S
C1132 C1133 1.404 . S
C1132 C1135 1.539 . S
C1133 C1129 1.408 . S
C1133 C1132 1.404 . S
C1133 H1145 0.930 . S
C1134 C1130 1.524 . S
C1134 H1146 0.956 . S
C1134 H1147 0.961 . S
C1134 H1148 0.961 . S
C1135 C1132 1.539 . S
C1135 H1149 0.958 . S
C1135 H1150 0.961 . S
C1135 H1151 0.960 . S
H1136 C1120 0.931 . S
H1137 C1125 0.929 . S
H1138 C1126 0.960 . S
H1139 C1126 0.962 . S
H1140 C1126 0.960 . S
H1141 C1127 0.961 . S
H1142 C1127 0.961 . S
H1143 C1127 0.961 . S
H1144 C1128 0.931 . S
H1145 C1133 0.930 . S
H1146 C1134 0.956 . S
H1147 C1134 0.961 . S
H1148 C1134 0.961 . S
H1149 C1135 0.958 . S
H1150 C1135 0.961 . S
H1151 C1135 0.960 . S
C1152 C1153 1.391 . S
C1152 C1154 1.394 . S
C1152 H1168 0.931 . S
C1153 C1152 1.391 . S
C1153 C1157 1.376 . S
C1154 C1152 1.394 . S
C1154 C1155 1.369 . S
C1154 C1158 1.531 . S
C1155 C1154 1.369 . S
C1155 C1156 1.410 . S
C1155 C1163 1.503 . S
C1156 C1155 1.410 . S
C1156 C1157 1.392 . S
C1156 C1159 1.511 . S
C1157 C1153 1.376 . S
C1157 C1156 1.392 . S
C1157 H1169 0.929 . S
C1158 C1154 1.531 . S
C1158 H1170 0.960 . S
C1158 H1171 0.962 . S
C1158 H1172 0.960 . S
C1159 C1156 1.511 . S
C1159 H1173 0.961 . S
C1159 H1174 0.961 . S
C1159 H1175 0.961 . S
C1160 C1161 1.370 . S
C1160 C1162 1.363 . S
C1160 H1176 0.931 . S
C1161 C1160 1.370 . S
C1161 C1165 1.408 . S
C1162 C1160 1.363 . S
C1162 C1163 1.370 . S
C1162 C1166 1.524 . S
C1163 C1155 1.503 . S
C1163 C1162 1.370 . S
C1163 C1164 1.403 . S
C1164 C1163 1.403 . S
C1164 C1165 1.404 . S
C1164 C1167 1.539 . S
C1165 C1161 1.408 . S
C1165 C1164 1.404 . S
C1165 H1177 0.930 . S
C1166 C1162 1.524 . S
C1166 H1178 0.956 . S
C1166 H1179 0.961 . S
C1166 H1180 0.961 . S
C1167 C1164 1.539 . S
C1167 H1181 0.958 . S
C1167 H1182 0.961 . S
C1167 H1183 0.960 . S
H1168 C1152 0.931 . S
H1169 C1157 0.929 . S
H1170 C1158 0.960 . S
H1171 C1158 0.962 . S
H1172 C1158 0.960 . S
H1173 C1159 0.961 . S
H1174 C1159 0.961 . S
H1175 C1159 0.961 . S
H1176 C1160 0.931 . S
H1177 C1165 0.930 . S
H1178 C1166 0.956 . S
H1179 C1166 0.961 . S
H1180 C1166 0.961 . S
H1181 C1167 0.958 . S
H1182 C1167 0.961 . S
H1183 C1167 0.960 . S
C1184 C1185 1.391 . S
C1184 C1186 1.394 . S
C1184 H1200 0.931 . S
C1185 C1184 1.391 . S
C1185 C1189 1.376 . S
C1186 C1184 1.394 . S
C1186 C1187 1.369 . S
C1186 C1190 1.531 . S
C1187 C1186 1.369 . S
C1187 C1188 1.410 . S
C1187 C1195 1.503 . S
C1188 C1187 1.410 . S
C1188 C1189 1.392 . S
C1188 C1191 1.511 1_655 S
C1189 C1185 1.376 . S
C1189 C1188 1.392 . S
C1189 H1201 0.929 1_655 S
C1190 C1186 1.531 . S
C1190 H1202 0.960 . S
C1190 H1203 0.962 . S
C1190 H1204 0.960 . S
C1191 C1188 1.511 1_455 S
C1191 H1205 0.961 . S
C1191 H1206 0.961 . S
C1191 H1207 0.961 . S
C1192 C1193 1.370 . S
C1192 C1194 1.363 . S
C1192 H1208 0.931 . S
C1193 C1192 1.370 . S
C1193 C1197 1.408 . S
C1194 C1192 1.363 . S
C1194 C1195 1.370 . S
C1194 C1198 1.524 . S
C1195 C1187 1.503 . S
C1195 C1194 1.370 . S
C1195 C1196 1.403 . S
C1196 C1195 1.403 . S
C1196 C1197 1.404 . S
C1196 C1199 1.539 1_655 S
C1197 C1193 1.408 . S
C1197 C1196 1.404 . S
C1197 H1209 0.930 1_655 S
C1198 C1194 1.524 . S
C1198 H1210 0.956 . S
C1198 H1211 0.961 . S
C1198 H1212 0.961 . S
C1199 C1196 1.539 1_455 S
C1199 H1213 0.958 . S
C1199 H1214 0.961 . S
C1199 H1215 0.960 . S
H1200 C1184 0.931 . S
H1201 C1189 0.929 1_455 S
H1202 C1190 0.960 . S
H1203 C1190 0.962 . S
H1204 C1190 0.960 . S
H1205 C1191 0.961 . S
H1206 C1191 0.961 . S
H1207 C1191 0.961 . S
H1208 C1192 0.931 . S
H1209 C1197 0.930 1_455 S
H1210 C1198 0.956 . S
H1211 C1198 0.961 . S
H1212 C1198 0.961 . S
H1213 C1199 0.958 . S
H1214 C1199 0.961 . S
H1215 C1199 0.960 . S
C1216 C1217 1.391 . S
C1216 C1218 1.394 . S
C1216 H1232 0.931 . S
C1217 C1216 1.391 . S
C1217 C1221 1.376 . S
C1218 C1216 1.394 . S
C1218 C1219 1.369 . S
C1218 C1222 1.531 . S
C1219 C1218 1.369 . S
C1219 C1220 1.410 . S
C1219 C1227 1.503 . S
C1220 C1219 1.410 . S
C1220 C1221 1.392 . S
C1220 C1223 1.511 . S
C1221 C1217 1.376 . S
C1221 C1220 1.392 . S
C1221 H1233 0.929 . S
C1222 C1218 1.531 . S
C1222 H1234 0.960 . S
C1222 H1235 0.962 . S
C1222 H1236 0.960 . S
C1223 C1220 1.511 . S
C1223 H1237 0.961 . S
C1223 H1238 0.961 . S
C1223 H1239 0.961 . S
C1224 C1225 1.370 . S
C1224 C1226 1.363 . S
C1224 H1240 0.931 1_565 S
C1225 C1224 1.370 . S
C1225 C1229 1.408 . S
C1226 C1224 1.363 . S
C1226 C1227 1.370 . S
C1226 C1230 1.524 1_565 S
C1227 C1219 1.503 . S
C1227 C1226 1.370 . S
C1227 C1228 1.403 . S
C1228 C1227 1.403 . S
C1228 C1229 1.404 . S
C1228 C1231 1.539 . S
C1229 C1225 1.408 . S
C1229 C1228 1.404 . S
C1229 H1241 0.930 . S
C1230 C1226 1.524 1_545 S
C1230 H1242 0.956 . S
C1230 H1243 0.961 . S
C1230 H1244 0.961 . S
C1231 C1228 1.539 . S
C1231 H1245 0.958 . S
C1231 H1246 0.961 . S
C1231 H1247 0.960 . S
H1232 C1216 0.931 . S
H1233 C1221 0.929 . S
H1234 C1222 0.960 . S
H1235 C1222 0.962 . S
H1236 C1222 0.960 . S
H1237 C1223 0.961 . S
H1238 C1223 0.961 . S
H1239 C1223 0.961 . S
H1240 C1224 0.931 1_545 S
H1241 C1229 0.930 . S
H1242 C1230 0.956 . S
H1243 C1230 0.961 . S
H1244 C1230 0.961 . S
H1245 C1231 0.958 . S
H1246 C1231 0.961 . S
H1247 C1231 0.960 . S
C1248 C1249 1.391 . S
C1248 C1250 1.394 . S
C1248 H1264 0.931 . S
C1249 C1248 1.391 . S
C1249 C1253 1.376 . S
C1250 C1248 1.394 . S
C1250 C1251 1.369 . S
C1250 C1254 1.531 . S
C1251 C1250 1.369 . S
C1251 C1252 1.410 . S
C1251 C1259 1.503 . S
C1252 C1251 1.410 . S
C1252 C1253 1.392 . S
C1252 C1255 1.511 . S
C1253 C1249 1.376 . S
C1253 C1252 1.392 . S
C1253 H1265 0.929 . S
C1254 C1250 1.531 . S
C1254 H1266 0.960 . S
C1254 H1267 0.962 . S
C1254 H1268 0.960 . S
C1255 C1252 1.511 . S
C1255 H1269 0.961 . S
C1255 H1270 0.961 . S
C1255 H1271 0.961 . S
C1256 C1257 1.370 . S
C1256 C1258 1.363 . S
C1256 H1272 0.931 . S
C1257 C1256 1.370 . S
C1257 C1261 1.408 . S
C1258 C1256 1.363 . S
C1258 C1259 1.370 . S
C1258 C1262 1.524 . S
C1259 C1251 1.503 . S
C1259 C1258 1.370 . S
C1259 C1260 1.403 . S
C1260 C1259 1.403 . S
C1260 C1261 1.404 . S
C1260 C1263 1.539 . S
C1261 C1257 1.408 . S
C1261 C1260 1.404 . S
C1261 H1273 0.930 . S
C1262 C1258 1.524 . S
C1262 H1274 0.956 . S
C1262 H1275 0.961 . S
C1262 H1276 0.961 . S
C1263 C1260 1.539 . S
C1263 H1277 0.958 . S
C1263 H1278 0.961 . S
C1263 H1279 0.960 . S
H1264 C1248 0.931 . S
H1265 C1253 0.929 . S
H1266 C1254 0.960 . S
H1267 C1254 0.962 . S
H1268 C1254 0.960 . S
H1269 C1255 0.961 . S
H1270 C1255 0.961 . S
H1271 C1255 0.961 . S
H1272 C1256 0.931 . S
H1273 C1261 0.930 . S
H1274 C1262 0.956 . S
H1275 C1262 0.961 . S
H1276 C1262 0.961 . S
H1277 C1263 0.958 . S
H1278 C1263 0.961 . S
H1279 C1263 0.960 . S
C1280 C1281 1.391 . S
C1280 C1282 1.394 . S
C1280 H1296 0.931 . S
C1281 C1280 1.391 . S
C1281 C1285 1.376 . S
C1282 C1280 1.394 . S
C1282 C1283 1.369 . S
C1282 C1286 1.531 . S
C1283 C1282 1.369 . S
C1283 C1284 1.410 . S
C1283 C1291 1.503 . S
C1284 C1283 1.410 . S
C1284 C1285 1.392 . S
C1284 C1287 1.511 . S
C1285 C1281 1.376 . S
C1285 C1284 1.392 . S
C1285 H1297 0.929 . S
C1286 C1282 1.531 . S
C1286 H1298 0.960 . S
C1286 H1299 0.962 . S
C1286 H1300 0.960 . S
C1287 C1284 1.511 . S
C1287 H1301 0.961 . S
C1287 H1302 0.961 . S
C1287 H1303 0.961 . S
C1288 C1289 1.370 . S
C1288 C1290 1.363 . S
C1288 H1304 0.931 . S
C1289 C1288 1.370 . S
C1289 C1293 1.408 . S
C1290 C1288 1.363 . S
C1290 C1291 1.370 . S
C1290 C1294 1.524 . S
C1291 C1283 1.503 . S
C1291 C1290 1.370 . S
C1291 C1292 1.403 . S
C1292 C1291 1.403 . S
C1292 C1293 1.404 . S
C1292 C1295 1.539 . S
C1293 C1289 1.408 . S
C1293 C1292 1.404 . S
C1293 H1305 0.930 . S
C1294 C1290 1.524 . S
C1294 H1306 0.956 . S
C1294 H1307 0.961 . S
C1294 H1308 0.961 . S
C1295 C1292 1.539 . S
C1295 H1309 0.958 . S
C1295 H1310 0.961 . S
C1295 H1311 0.960 . S
H1296 C1280 0.931 . S
H1297 C1285 0.929 . S
H1298 C1286 0.960 . S
H1299 C1286 0.962 . S
H1300 C1286 0.960 . S
H1301 C1287 0.961 . S
H1302 C1287 0.961 . S
H1303 C1287 0.961 . S
H1304 C1288 0.931 . S
H1305 C1293 0.930 . S
H1306 C1294 0.956 . S
H1307 C1294 0.961 . S
H1308 C1294 0.961 . S
H1309 C1295 0.958 . S
H1310 C1295 0.961 . S
H1311 C1295 0.960 . S
C1312 C1313 1.391 . S
C1312 C1314 1.394 . S
C1312 H1328 0.931 . S
C1313 C1312 1.391 . S
C1313 C1317 1.376 1_655 S
C1314 C1312 1.394 . S
C1314 C1315 1.369 . S
C1314 C1318 1.531 . S
C1315 C1314 1.369 . S
C1315 C1316 1.410 1_655 S
C1315 C1323 1.500 1_655 S
C1316 C1315 1.410 1_455 S
C1316 C1317 1.392 . S
C1316 C1319 1.511 . S
C1317 C1313 1.376 1_455 S
C1317 C1316 1.392 . S
C1317 H1329 0.929 . S
C1318 C1314 1.531 . S
C1318 H1330 0.960 . S
C1318 H1331 0.962 . S
C1318 H1332 0.960 . S
C1319 C1316 1.511 . S
C1319 H1333 0.961 . S
C1319 H1334 0.961 . S
C1319 H1335 0.961 . S
C1320 C1321 1.370 . S
C1320 C1322 1.363 . S
C1320 H1336 0.931 . S
C1321 C1320 1.370 . S
C1321 C1325 1.408 . S
C1322 C1320 1.363 . S
C1322 C1323 1.377 . S
C1322 C1326 1.524 . S
C1323 C1315 1.500 1_455 S
C1323 C1322 1.377 . S
C1323 C1324 1.400 1_455 S
C1324 C1323 1.400 1_655 S
C1324 C1325 1.400 1_655 S
C1324 C1327 1.543 . S
C1325 C1321 1.408 . S
C1325 C1324 1.400 1_455 S
C1325 H1337 0.930 . S
C1326 C1322 1.524 . S
C1326 H1338 0.956 1_455 S
C1326 H1339 0.961 . S
C1326 H1340 0.961 . S
C1327 C1324 1.543 . S
C1327 H1341 0.958 . S
C1327 H1342 0.961 1_655 S
C1327 H1343 0.960 1_655 S
H1328 C1312 0.931 . S
H1329 C1317 0.929 . S
H1330 C1318 0.960 . S
H1331 C1318 0.962 . S
H1332 C1318 0.960 . S
H1333 C1319 0.961 . S
H1334 C1319 0.961 . S
H1335 C1319 0.961 . S
H1336 C1320 0.931 . S
H1337 C1325 0.930 . S
H1338 C1326 0.956 1_655 S
H1339 C1326 0.961 . S
H1340 C1326 0.961 . S
H1341 C1327 0.958 . S
H1342 C1327 0.961 1_455 S
H1343 C1327 0.960 1_455 S
C1344 C1345 1.391 . S
C1344 C1346 1.394 . S
C1344 H1360 0.931 . S
C1345 C1344 1.391 . S
C1345 C1349 1.376 . S
C1346 C1344 1.394 . S
C1346 C1347 1.369 . S
C1346 C1350 1.531 . S
C1347 C1346 1.369 . S
C1347 C1348 1.410 . S
C1347 C1355 1.503 . S
C1348 C1347 1.410 . S
C1348 C1349 1.392 . S
C1348 C1351 1.515 . S
C1349 C1345 1.376 . S
C1349 C1348 1.392 . S
C1349 H1361 0.929 . S
C1350 C1346 1.531 . S
C1350 H1362 0.960 . S
C1350 H1363 0.944 1_545 S
C1350 H1364 0.960 . S
C1351 C1348 1.515 . S
C1351 H1365 0.949 1_545 S
C1351 H1366 0.949 1_545 S
C1351 H1367 0.982 . S
C1352 C1353 1.370 . S
C1352 C1354 1.363 . S
C1352 H1368 0.931 . S
C1353 C1352 1.370 . S
C1353 C1357 1.408 1_565 S
C1354 C1352 1.363 . S
C1354 C1355 1.370 1_565 S
C1354 C1358 1.524 . S
C1355 C1347 1.503 . S
C1355 C1354 1.370 1_545 S
C1355 C1356 1.403 . S
C1356 C1355 1.403 . S
C1356 C1357 1.404 . S
C1356 C1359 1.539 . S
C1357 C1353 1.408 1_545 S
C1357 C1356 1.404 . S
C1357 H1369 0.930 . S
C1358 C1354 1.524 . S
C1358 H1370 0.956 . S
C1358 H1371 0.961 . S
C1358 H1372 0.961 . S
C1359 C1356 1.539 . S
C1359 H1373 0.958 . S
C1359 H1374 0.961 . S
C1359 H1375 0.960 . S
H1360 C1344 0.931 . S
H1361 C1349 0.929 . S
H1362 C1350 0.960 . S
H1363 C1350 0.944 1_565 S
H1364 C1350 0.960 . S
H1365 C1351 0.949 1_565 S
H1366 C1351 0.949 1_565 S
H1367 C1351 0.982 . S
H1368 C1352 0.931 . S
H1369 C1357 0.930 . S
H1370 C1358 0.956 . S
H1371 C1358 0.961 . S
H1372 C1358 0.961 . S
H1373 C1359 0.958 . S
H1374 C1359 0.961 . S
H1375 C1359 0.960 . S
C1376 C1377 1.391 . S
C1376 C1378 1.394 . S
C1376 H1392 0.931 . S
C1377 C1376 1.391 . S
C1377 C1381 1.376 . S
C1378 C1376 1.394 . S
C1378 C1379 1.369 . S
C1378 C1382 1.531 . S
C1379 C1378 1.369 . S
C1379 C1380 1.410 . S
C1379 C1387 1.503 . S
C1380 C1379 1.410 . S
C1380 C1381 1.392 . S
C1380 C1383 1.511 . S
C1381 C1377 1.376 . S
C1381 C1380 1.392 . S
C1381 H1393 0.929 . S
C1382 C1378 1.531 . S
C1382 H1394 0.960 . S
C1382 H1395 0.962 . S
C1382 H1396 0.960 . S
C1383 C1380 1.511 . S
C1383 H1397 0.961 . S
C1383 H1398 0.961 . S
C1383 H1399 0.961 . S
C1384 C1385 1.370 . S
C1384 C1386 1.363 . S
C1384 H1400 0.931 . S
C1385 C1384 1.370 . S
C1385 C1389 1.408 . S
C1386 C1384 1.363 . S
C1386 C1387 1.370 . S
C1386 C1390 1.524 . S
C1387 C1379 1.503 . S
C1387 C1386 1.370 . S
C1387 C1388 1.403 . S
C1388 C1387 1.403 . S
C1388 C1389 1.404 . S
C1388 C1391 1.539 . S
C1389 C1385 1.408 . S
C1389 C1388 1.404 . S
C1389 H1401 0.930 . S
C1390 C1386 1.524 . S
C1390 H1402 0.956 . S
C1390 H1403 0.961 . S
C1390 H1404 0.961 . S
C1391 C1388 1.539 . S
C1391 H1405 0.958 . S
C1391 H1406 0.961 . S
C1391 H1407 0.960 . S
H1392 C1376 0.931 . S
H1393 C1381 0.929 . S
H1394 C1382 0.960 . S
H1395 C1382 0.962 . S
H1396 C1382 0.960 . S
H1397 C1383 0.961 . S
H1398 C1383 0.961 . S
H1399 C1383 0.961 . S
H1400 C1384 0.931 . S
H1401 C1389 0.930 . S
H1402 C1390 0.956 . S
H1403 C1390 0.961 . S
H1404 C1390 0.961 . S
H1405 C1391 0.958 . S
H1406 C1391 0.961 . S
H1407 C1391 0.960 . S
C1408 C1409 1.391 . S
C1408 C1410 1.394 . S
C1408 H1424 0.931 . S
C1409 C1408 1.391 . S
C1409 C1413 1.376 . S
C1410 C1408 1.394 . S
C1410 C1411 1.369 . S
C1410 C1414 1.531 . S
C1411 C1410 1.369 . S
C1411 C1412 1.410 . S
C1411 C1419 1.503 . S
C1412 C1411 1.410 . S
C1412 C1413 1.392 . S
C1412 C1415 1.511 . S
C1413 C1409 1.376 . S
C1413 C1412 1.392 . S
C1413 H1425 0.929 . S
C1414 C1410 1.531 . S
C1414 H1426 0.960 . S
C1414 H1427 0.962 . S
C1414 H1428 0.960 . S
C1415 C1412 1.511 . S
C1415 H1429 0.961 . S
C1415 H1430 0.961 . S
C1415 H1431 0.961 . S
C1416 C1417 1.370 . S
C1416 C1418 1.363 . S
C1416 H1432 0.931 . S
C1417 C1416 1.370 . S
C1417 C1421 1.408 . S
C1418 C1416 1.363 . S
C1418 C1419 1.370 . S
C1418 C1422 1.524 . S
C1419 C1411 1.503 . S
C1419 C1418 1.370 . S
C1419 C1420 1.403 . S
C1420 C1419 1.403 . S
C1420 C1421 1.404 . S
C1420 C1423 1.539 . S
C1421 C1417 1.408 . S
C1421 C1420 1.404 . S
C1421 H1433 0.930 . S
C1422 C1418 1.524 . S
C1422 H1434 0.956 . S
C1422 H1435 0.961 . S
C1422 H1436 0.961 . S
C1423 C1420 1.539 . S
C1423 H1437 0.958 . S
C1423 H1438 0.961 . S
C1423 H1439 0.960 . S
H1424 C1408 0.931 . S
H1425 C1413 0.929 . S
H1426 C1414 0.960 . S
H1427 C1414 0.962 . S
H1428 C1414 0.960 . S
H1429 C1415 0.961 . S
H1430 C1415 0.961 . S
H1431 C1415 0.961 . S
H1432 C1416 0.931 . S
H1433 C1421 0.930 . S
H1434 C1422 0.956 . S
H1435 C1422 0.961 . S
H1436 C1422 0.961 . S
H1437 C1423 0.958 . S
H1438 C1423 0.961 . S
H1439 C1423 0.960 . S
C1440 C1441 1.391 1_455 S
C1440 C1442 1.394 . S
C1440 H1456 0.931 . S
C1441 C1440 1.391 1_655 S
C1441 C1445 1.376 . S
C1442 C1440 1.394 . S
C1442 C1443 1.369 1_455 S
C1442 C1446 1.531 . S
C1443 C1442 1.369 1_655 S
C1443 C1444 1.410 . S
C1443 C1451 1.498 1_655 S
C1444 C1443 1.410 . S
C1444 C1445 1.392 . S
C1444 C1447 1.511 . S
C1445 C1441 1.376 . S
C1445 C1444 1.392 . S
C1445 H1457 0.929 . S
C1446 C1442 1.531 . S
C1446 H1458 0.960 . S
C1446 H1459 0.962 . S
C1446 H1460 0.960 . S
C1447 C1444 1.511 . S
C1447 H1461 0.961 . S
C1447 H1462 0.961 . S
C1447 H1463 0.961 . S
C1448 C1449 1.370 . S
C1448 C1450 1.363 . S
C1448 H1464 0.931 . S
C1449 C1448 1.370 . S
C1449 C1453 1.408 . S
C1450 C1448 1.363 . S
C1450 C1451 1.379 . S
C1450 C1454 1.524 . S
C1451 C1443 1.498 1_455 S
C1451 C1450 1.379 . S
C1451 C1452 1.404 . S
C1452 C1451 1.404 . S
C1452 C1453 1.404 . S
C1452 C1455 1.539 1_455 S
C1453 C1449 1.408 . S
C1453 C1452 1.404 . S
C1453 H1465 0.930 1_556 S
C1454 C1450 1.524 . S
C1454 H1466 0.956 . S
C1454 H1467 0.961 1_455 S
C1454 H1468 0.961 . S
C1455 C1452 1.539 1_655 S
C1455 H1469 0.958 1_655 S
C1455 H1470 0.961 . S
C1455 H1471 0.960 . S
H1456 C1440 0.931 . S
H1457 C1445 0.929 . S
H1458 C1446 0.960 . S
H1459 C1446 0.962 . S
H1460 C1446 0.960 . S
H1461 C1447 0.961 . S
H1462 C1447 0.961 . S
H1463 C1447 0.961 . S
H1464 C1448 0.931 . S
H1465 C1453 0.930 1_554 S
H1466 C1454 0.956 . S
H1467 C1454 0.961 1_655 S
H1468 C1454 0.961 . S
H1469 C1455 0.958 1_455 S
H1470 C1455 0.961 . S
H1471 C1455 0.960 . S
C1472 C1473 1.391 . S
C1472 C1474 1.394 . S
C1472 H1488 0.931 . S
C1473 C1472 1.391 . S
C1473 C1477 1.376 1_565 S
C1474 C1472 1.394 . S
C1474 C1475 1.369 . S
C1474 C1478 1.531 . S
C1475 C1474 1.369 . S
C1475 C1476 1.410 1_565 S
C1475 C1483 1.503 . S
C1476 C1475 1.410 1_545 S
C1476 C1477 1.392 . S
C1476 C1479 1.511 . S
C1477 C1473 1.376 1_545 S
C1477 C1476 1.392 . S
C1477 H1489 0.929 . S
C1478 C1474 1.531 . S
C1478 H1490 0.960 . S
C1478 H1491 0.962 . S
C1478 H1492 0.960 . S
C1479 C1476 1.511 . S
C1479 H1493 0.961 . S
C1479 H1494 0.961 . S
C1479 H1495 0.961 . S
C1480 C1481 1.370 . S
C1480 C1482 1.363 . S
C1480 H1496 0.931 . S
C1481 C1480 1.370 . S
C1481 C1485 1.408 1_545 S
C1482 C1480 1.363 . S
C1482 C1483 1.370 1_545 S
C1482 C1486 1.524 . S
C1483 C1475 1.503 . S
C1483 C1482 1.370 1_565 S
C1483 C1484 1.403 . S
C1484 C1483 1.403 . S
C1484 C1485 1.404 . S
C1484 C1487 1.539 . S
C1485 C1481 1.408 1_565 S
C1485 C1484 1.404 . S
C1485 H1497 0.930 . S
C1486 C1482 1.524 . S
C1486 H1498 0.956 . S
C1486 H1499 0.961 . S
C1486 H1500 0.961 . S
C1487 C1484 1.539 . S
C1487 H1501 0.958 . S
C1487 H1502 0.961 . S
C1487 H1503 0.960 . S
H1488 C1472 0.931 . S
H1489 C1477 0.929 . S
H1490 C1478 0.960 . S
H1491 C1478 0.962 . S
H1492 C1478 0.960 . S
H1493 C1479 0.961 . S
H1494 C1479 0.961 . S
H1495 C1479 0.961 . S
H1496 C1480 0.931 . S
H1497 C1485 0.930 . S
H1498 C1486 0.956 . S
H1499 C1486 0.961 . S
H1500 C1486 0.961 . S
H1501 C1487 0.958 . S
H1502 C1487 0.961 . S
H1503 C1487 0.960 . S
C1504 C1505 1.391 . S
C1504 C1506 1.394 . S
C1504 H1520 0.931 . S
C1505 C1504 1.391 . S
C1505 C1509 1.376 . S
C1506 C1504 1.394 . S
C1506 C1507 1.369 . S
C1506 C1510 1.531 . S
C1507 C1506 1.369 . S
C1507 C1508 1.410 . S
C1507 C1515 1.503 . S
C1508 C1507 1.410 . S
C1508 C1509 1.392 . S
C1508 C1511 1.511 . S
C1509 C1505 1.376 . S
C1509 C1508 1.392 . S
C1509 H1521 0.929 . S
C1510 C1506 1.531 . S
C1510 H1522 0.960 . S
C1510 H1523 0.962 . S
C1510 H1524 0.960 . S
C1511 C1508 1.511 . S
C1511 H1525 0.961 . S
C1511 H1526 0.961 . S
C1511 H1527 0.961 . S
C1512 C1513 1.370 . S
C1512 C1514 1.363 . S
C1512 H1528 0.931 . S
C1513 C1512 1.370 . S
C1513 C1517 1.408 . S
C1514 C1512 1.363 . S
C1514 C1515 1.370 . S
C1514 C1518 1.524 . S
C1515 C1507 1.503 . S
C1515 C1514 1.370 . S
C1515 C1516 1.403 . S
C1516 C1515 1.403 . S
C1516 C1517 1.404 . S
C1516 C1519 1.539 . S
C1517 C1513 1.408 . S
C1517 C1516 1.404 . S
C1517 H1529 0.930 1_556 S
C1518 C1514 1.524 . S
C1518 H1530 0.956 . S
C1518 H1531 0.961 . S
C1518 H1532 0.961 . S
C1519 C1516 1.539 . S
C1519 H1533 0.958 . S
C1519 H1534 0.961 . S
C1519 H1535 0.960 . S
H1520 C1504 0.931 . S
H1521 C1509 0.929 . S
H1522 C1510 0.960 . S
H1523 C1510 0.962 . S
H1524 C1510 0.960 . S
H1525 C1511 0.961 . S
H1526 C1511 0.961 . S
H1527 C1511 0.961 . S
H1528 C1512 0.931 . S
H1529 C1517 0.930 1_554 S
H1530 C1518 0.956 . S
H1531 C1518 0.961 . S
H1532 C1518 0.961 . S
H1533 C1519 0.958 . S
H1534 C1519 0.961 . S
H1535 C1519 0.960 . S
C1536 C1537 1.391 . S
C1536 C1538 1.394 . S
C1536 H1552 0.931 . S
C1537 C1536 1.391 . S
C1537 C1541 1.376 . S
C1538 C1536 1.394 . S
C1538 C1539 1.369 . S
C1538 C1542 1.531 . S
C1539 C1538 1.369 . S
C1539 C1540 1.410 . S
C1539 C1547 1.503 . S
C1540 C1539 1.410 . S
C1540 C1541 1.392 . S
C1540 C1543 1.511 . S
C1541 C1537 1.376 . S
C1541 C1540 1.392 . S
C1541 H1553 0.929 . S
C1542 C1538 1.531 . S
C1542 H1554 0.960 . S
C1542 H1555 0.962 . S
C1542 H1556 0.960 . S
C1543 C1540 1.511 . S
C1543 H1557 0.961 . S
C1543 H1558 0.961 . S
C1543 H1559 0.961 . S
C1544 C1545 1.370 . S
C1544 C1546 1.363 . S
C1544 H1560 0.931 . S
C1545 C1544 1.370 . S
C1545 C1549 1.408 . S
C1546 C1544 1.363 . S
C1546 C1547 1.370 . S
C1546 C1550 1.524 . S
C1547 C1539 1.503 . S
C1547 C1546 1.370 . S
C1547 C1548 1.403 . S
C1548 C1547 1.403 . S
C1548 C1549 1.404 . S
C1548 C1551 1.539 . S
C1549 C1545 1.408 . S
C1549 C1548 1.404 . S
C1549 H1561 0.930 . S
C1550 C1546 1.524 . S
C1550 H1562 0.956 . S
C1550 H1563 0.961 . S
C1550 H1564 0.961 . S
C1551 C1548 1.539 . S
C1551 H1565 0.958 . S
C1551 H1566 0.961 . S
C1551 H1567 0.960 . S
H1552 C1536 0.931 . S
H1553 C1541 0.929 . S
H1554 C1542 0.960 . S
H1555 C1542 0.962 . S
H1556 C1542 0.960 . S
H1557 C1543 0.961 . S
H1558 C1543 0.961 . S
H1559 C1543 0.961 . S
H1560 C1544 0.931 . S
H1561 C1549 0.930 . S
H1562 C1550 0.956 . S
H1563 C1550 0.961 . S
H1564 C1550 0.961 . S
H1565 C1551 0.958 . S
H1566 C1551 0.961 . S
H1567 C1551 0.960 . S
C1568 C1569 1.391 . S
C1568 C1570 1.394 . S
C1568 H1584 0.931 . S
C1569 C1568 1.391 . S
C1569 C1573 1.376 1_655 S
C1570 C1568 1.394 . S
C1570 C1571 1.369 . S
C1570 C1574 1.531 . S
C1571 C1570 1.369 . S
C1571 C1572 1.410 1_655 S
C1571 C1579 1.498 1_655 S
C1572 C1571 1.410 1_455 S
C1572 C1573 1.392 . S
C1572 C1575 1.511 . S
C1573 C1569 1.376 1_455 S
C1573 C1572 1.392 . S
C1573 H1585 0.929 . S
C1574 C1570 1.531 . S
C1574 H1586 0.960 . S
C1574 H1587 0.962 . S
C1574 H1588 0.960 . S
C1575 C1572 1.511 . S
C1575 H1589 0.961 . S
C1575 H1590 0.961 . S
C1575 H1591 0.961 . S
C1576 C1577 1.370 . S
C1576 C1578 1.363 . S
C1576 H1592 0.931 . S
C1577 C1576 1.370 . S
C1577 C1581 1.408 . S
C1578 C1576 1.363 . S
C1578 C1579 1.372 . S
C1578 C1582 1.522 1_455 S
C1579 C1571 1.498 1_455 S
C1579 C1578 1.372 . S
C1579 C1580 1.410 . S
C1580 C1579 1.410 . S
C1580 C1581 1.404 . S
C1580 C1583 1.539 . S
C1581 C1577 1.408 . S
C1581 C1580 1.404 . S
C1581 H1593 0.930 . S
C1582 C1578 1.522 1_655 S
C1582 H1594 0.990 . S
C1582 H1595 0.935 1_655 S
C1582 H1596 0.956 1_655 S
C1583 C1580 1.539 . S
C1583 H1597 0.958 1_455 S
C1583 H1598 0.961 . S
C1583 H1599 0.960 . S
H1584 C1568 0.931 . S
H1585 C1573 0.929 . S
H1586 C1574 0.960 . S
H1587 C1574 0.962 . S
H1588 C1574 0.960 . S
H1589 C1575 0.961 . S
H1590 C1575 0.961 . S
H1591 C1575 0.961 . S
H1592 C1576 0.931 . S
H1593 C1581 0.930 . S
H1594 C1582 0.990 . S
H1595 C1582 0.935 1_455 S
H1596 C1582 0.956 1_455 S
H1597 C1583 0.958 1_655 S
H1598 C1583 0.961 . S
H1599 C1583 0.960 . S
C1600 C1601 1.391 1_545 S
C1600 C1602 1.394 . S
C1600 H1616 0.931 . S
C1601 C1600 1.391 1_565 S
C1601 C1605 1.376 . S
C1602 C1600 1.394 . S
C1602 C1603 1.369 . S
C1602 C1606 1.531 . S
C1603 C1602 1.369 . S
C1603 C1604 1.410 1_545 S
C1603 C1611 1.503 . S
C1604 C1603 1.410 1_565 S
C1604 C1605 1.392 . S
C1604 C1607 1.511 . S
C1605 C1601 1.376 . S
C1605 C1604 1.392 . S
C1605 H1617 0.929 . S
C1606 C1602 1.531 . S
C1606 H1618 0.960 . S
C1606 H1619 0.962 . S
C1606 H1620 0.960 . S
C1607 C1604 1.511 . S
C1607 H1621 0.961 . S
C1607 H1622 0.961 . S
C1607 H1623 0.961 . S
C1608 C1609 1.370 1_565 S
C1608 C1610 1.363 . S
C1608 H1624 0.931 . S
C1609 C1608 1.370 1_545 S
C1609 C1613 1.408 . S
C1610 C1608 1.363 . S
C1610 C1611 1.370 1_565 S
C1610 C1614 1.524 . S
C1611 C1603 1.503 . S
C1611 C1610 1.370 1_545 S
C1611 C1612 1.403 . S
C1612 C1611 1.403 . S
C1612 C1613 1.404 . S
C1612 C1615 1.539 . S
C1613 C1609 1.408 . S
C1613 C1612 1.404 . S
C1613 H1625 0.930 . S
C1614 C1610 1.524 . S
C1614 H1626 0.956 . S
C1614 H1627 0.961 . S
C1614 H1628 0.961 . S
C1615 C1612 1.539 . S
C1615 H1629 0.958 . S
C1615 H1630 0.961 . S
C1615 H1631 0.960 . S
H1616 C1600 0.931 . S
H1617 C1605 0.929 . S
H1618 C1606 0.960 . S
H1619 C1606 0.962 . S
H1620 C1606 0.960 . S
H1621 C1607 0.961 . S
H1622 C1607 0.961 . S
H1623 C1607 0.961 . S
H1624 C1608 0.931 . S
H1625 C1613 0.930 . S
H1626 C1614 0.956 . S
H1627 C1614 0.961 . S
H1628 C1614 0.961 . S
H1629 C1615 0.958 . S
H1630 C1615 0.961 . S
H1631 C1615 0.960 . S
C1632 C1633 1.391 . S
C1632 C1634 1.394 . S
C1632 H1648 0.931 . S
C1633 C1632 1.391 . S
C1633 C1637 1.376 . S
C1634 C1632 1.394 . S
C1634 C1635 1.369 . S
C1634 C1638 1.531 . S
C1635 C1634 1.369 . S
C1635 C1636 1.410 . S
C1635 C1643 1.503 . S
C1636 C1635 1.410 . S
C1636 C1637 1.392 . S
C1636 C1639 1.511 . S
C1637 C1633 1.376 . S
C1637 C1636 1.392 . S
C1637 H1649 0.929 . S
C1638 C1634 1.531 . S
C1638 H1650 0.960 . S
C1638 H1651 0.962 . S
C1638 H1652 0.960 . S
C1639 C1636 1.511 . S
C1639 H1653 0.961 . S
C1639 H1654 0.961 . S
C1639 H1655 0.961 . S
C1640 C1641 1.370 . S
C1640 C1642 1.363 . S
C1640 H1656 0.931 . S
C1641 C1640 1.370 . S
C1641 C1645 1.408 . S
C1642 C1640 1.363 . S
C1642 C1643 1.370 . S
C1642 C1646 1.524 . S
C1643 C1635 1.503 . S
C1643 C1642 1.370 . S
C1643 C1644 1.403 . S
C1644 C1643 1.403 . S
C1644 C1645 1.404 . S
C1644 C1647 1.539 . S
C1645 C1641 1.408 . S
C1645 C1644 1.404 . S
C1645 H1657 0.930 . S
C1646 C1642 1.524 . S
C1646 H1658 0.956 . S
C1646 H1659 0.961 . S
C1646 H1660 0.961 . S
C1647 C1644 1.539 . S
C1647 H1661 0.958 . S
C1647 H1662 0.961 . S
C1647 H1663 0.960 . S
H1648 C1632 0.931 . S
H1649 C1637 0.929 . S
H1650 C1638 0.960 . S
H1651 C1638 0.962 . S
H1652 C1638 0.960 . S
H1653 C1639 0.961 . S
H1654 C1639 0.961 . S
H1655 C1639 0.961 . S
H1656 C1640 0.931 . S
H1657 C1645 0.930 . S
H1658 C1646 0.956 . S
H1659 C1646 0.961 . S
H1660 C1646 0.961 . S
H1661 C1647 0.958 . S
H1662 C1647 0.961 . S
H1663 C1647 0.960 . S
C1664 C1665 1.391 . S
C1664 C1666 1.394 . S
C1664 H1680 0.931 . S
C1665 C1664 1.391 . S
C1665 C1669 1.376 . S
C1666 C1664 1.394 . S
C1666 C1667 1.369 . S
C1666 C1670 1.531 . S
C1667 C1666 1.369 . S
C1667 C1668 1.410 . S
C1667 C1675 1.503 . S
C1668 C1667 1.410 . S
C1668 C1669 1.392 . S
C1668 C1671 1.511 . S
C1669 C1665 1.376 . S
C1669 C1668 1.392 . S
C1669 H1681 0.929 . S
C1670 C1666 1.531 . S
C1670 H1682 0.960 . S
C1670 H1683 0.962 . S
C1670 H1684 0.960 . S
C1671 C1668 1.511 . S
C1671 H1685 0.961 . S
C1671 H1686 0.961 . S
C1671 H1687 0.961 . S
C1672 C1673 1.370 . S
C1672 C1674 1.363 . S
C1672 H1688 0.931 . S
C1673 C1672 1.370 . S
C1673 C1677 1.408 . S
C1674 C1672 1.363 . S
C1674 C1675 1.370 . S
C1674 C1678 1.524 . S
C1675 C1667 1.503 . S
C1675 C1674 1.370 . S
C1675 C1676 1.403 . S
C1676 C1675 1.403 . S
C1676 C1677 1.404 . S
C1676 C1679 1.539 . S
C1677 C1673 1.408 . S
C1677 C1676 1.404 . S
C1677 H1689 0.930 . S
C1678 C1674 1.524 . S
C1678 H1690 0.956 . S
C1678 H1691 0.961 . S
C1678 H1692 0.961 . S
C1679 C1676 1.539 . S
C1679 H1693 0.958 . S
C1679 H1694 0.961 . S
C1679 H1695 0.960 . S
H1680 C1664 0.931 . S
H1681 C1669 0.929 . S
H1682 C1670 0.960 . S
H1683 C1670 0.962 . S
H1684 C1670 0.960 . S
H1685 C1671 0.961 . S
H1686 C1671 0.961 . S
H1687 C1671 0.961 . S
H1688 C1672 0.931 . S
H1689 C1677 0.930 . S
H1690 C1678 0.956 . S
H1691 C1678 0.961 . S
H1692 C1678 0.961 . S
H1693 C1679 0.958 . S
H1694 C1679 0.961 . S
H1695 C1679 0.960 . S
C1696 C1697 1.391 1_655 S
C1696 C1698 1.394 . S
C1696 H1712 0.931 . S
C1697 C1696 1.391 1_455 S
C1697 C1701 1.376 . S
C1698 C1696 1.394 . S
C1698 C1699 1.369 1_655 S
C1698 C1702 1.531 . S
C1699 C1698 1.369 1_455 S
C1699 C1700 1.410 . S
C1699 C1707 1.508 . S
C1700 C1699 1.410 . S
C1700 C1701 1.392 . S
C1700 C1703 1.511 . S
C1701 C1697 1.376 . S
C1701 C1700 1.392 . S
C1701 H1713 0.929 . S
C1702 C1698 1.531 . S
C1702 H1714 0.960 . S
C1702 H1715 0.962 . S
C1702 H1716 0.960 . S
C1703 C1700 1.511 . S
C1703 H1717 0.961 . S
C1703 H1718 0.961 . S
C1703 H1719 0.961 . S
C1704 C1705 1.370 . S
C1704 C1706 1.363 . S
C1704 H1720 0.931 . S
C1705 C1704 1.370 . S
C1705 C1709 1.408 1_655 S
C1706 C1704 1.363 . S
C1706 C1707 1.353 1_655 S
C1706 C1710 1.524 . S
C1707 C1699 1.508 . S
C1707 C1706 1.353 1_455 S
C1707 C1708 1.416 . S
C1708 C1707 1.416 . S
C1708 C1709 1.404 . S
C1708 C1711 1.539 . S
C1709 C1705 1.408 1_455 S
C1709 C1708 1.404 . S
C1709 H1721 0.930 . S
C1710 C1706 1.524 . S
C1710 H1722 0.956 . S
C1710 H1723 0.961 . S
C1710 H1724 0.961 . S
C1711 C1708 1.539 . S
C1711 H1725 0.958 . S
C1711 H1726 0.961 . S
C1711 H1727 0.960 . S
H1712 C1696 0.931 . S
H1713 C1701 0.929 . S
H1714 C1702 0.960 . S
H1715 C1702 0.962 . S
H1716 C1702 0.960 . S
H1717 C1703 0.961 . S
H1718 C1703 0.961 . S
H1719 C1703 0.961 . S
H1720 C1704 0.931 . S
H1721 C1709 0.930 . S
H1722 C1710 0.956 . S
H1723 C1710 0.961 . S
H1724 C1710 0.961 . S
H1725 C1711 0.958 . S
H1726 C1711 0.961 . S
H1727 C1711 0.960 . S
C1728 C1729 1.391 . S
C1728 C1730 1.394 . S
C1728 H1744 0.931 . S
C1729 C1728 1.391 . S
C1729 C1733 1.376 1_545 S
C1730 C1728 1.394 . S
C1730 C1731 1.369 1_545 S
C1730 C1734 1.531 . S
C1731 C1730 1.369 1_565 S
C1731 C1732 1.410 . S
C1731 C1739 1.503 . S
C1732 C1731 1.410 . S
C1732 C1733 1.392 . S
C1732 C1735 1.511 . S
C1733 C1729 1.376 1_565 S
C1733 C1732 1.392 . S
C1733 H1745 0.929 . S
C1734 C1730 1.531 . S
C1734 H1746 0.960 . S
C1734 H1747 0.962 . S
C1734 H1748 0.960 . S
C1735 C1732 1.511 . S
C1735 H1749 0.961 . S
C1735 H1750 0.961 . S
C1735 H1751 0.961 . S
C1736 C1737 1.370 1_545 S
C1736 C1738 1.363 . S
C1736 H1752 0.931 . S
C1737 C1736 1.370 1_565 S
C1737 C1741 1.408 . S
C1738 C1736 1.363 . S
C1738 C1739 1.370 1_545 S
C1738 C1742 1.524 . S
C1739 C1731 1.503 . S
C1739 C1738 1.370 1_565 S
C1739 C1740 1.403 . S
C1740 C1739 1.403 . S
C1740 C1741 1.404 . S
C1740 C1743 1.539 . S
C1741 C1737 1.408 . S
C1741 C1740 1.404 . S
C1741 H1753 0.930 . S
C1742 C1738 1.524 . S
C1742 H1754 0.956 . S
C1742 H1755 0.961 . S
C1742 H1756 0.961 . S
C1743 C1740 1.539 . S
C1743 H1757 0.958 . S
C1743 H1758 0.961 . S
C1743 H1759 0.960 . S
H1744 C1728 0.931 . S
H1745 C1733 0.929 . S
H1746 C1734 0.960 . S
H1747 C1734 0.962 . S
H1748 C1734 0.960 . S
H1749 C1735 0.961 . S
H1750 C1735 0.961 . S
H1751 C1735 0.961 . S
H1752 C1736 0.931 . S
H1753 C1741 0.930 . S
H1754 C1742 0.956 . S
H1755 C1742 0.961 . S
H1756 C1742 0.961 . S
H1757 C1743 0.958 . S
H1758 C1743 0.961 . S
H1759 C1743 0.960 . S
C1760 C1761 1.391 . S
C1760 C1762 1.394 . S
C1760 H1776 0.931 . S
C1761 C1760 1.391 . S
C1761 C1765 1.376 . S
C1762 C1760 1.394 . S
C1762 C1763 1.369 . S
C1762 C1766 1.531 . S
C1763 C1762 1.369 . S
C1763 C1764 1.410 . S
C1763 C1771 1.503 . S
C1764 C1763 1.410 . S
C1764 C1765 1.392 . S
C1764 C1767 1.511 . S
C1765 C1761 1.376 . S
C1765 C1764 1.392 . S
C1765 H1777 0.929 . S
C1766 C1762 1.531 . S
C1766 H1778 0.960 . S
C1766 H1779 0.962 . S
C1766 H1780 0.960 . S
C1767 C1764 1.511 . S
C1767 H1781 0.961 . S
C1767 H1782 0.961 . S
C1767 H1783 0.961 . S
C1768 C1769 1.370 . S
C1768 C1770 1.363 . S
C1768 H1784 0.931 . S
C1769 C1768 1.370 . S
C1769 C1773 1.408 . S
C1770 C1768 1.363 . S
C1770 C1771 1.370 . S
C1770 C1774 1.524 . S
C1771 C1763 1.503 . S
C1771 C1770 1.370 . S
C1771 C1772 1.403 . S
C1772 C1771 1.403 . S
C1772 C1773 1.404 . S
C1772 C1775 1.539 . S
C1773 C1769 1.408 . S
C1773 C1772 1.404 . S
C1773 H1785 0.930 . S
C1774 C1770 1.524 . S
C1774 H1786 0.956 . S
C1774 H1787 0.961 . S
C1774 H1788 0.961 . S
C1775 C1772 1.539 . S
C1775 H1789 0.958 . S
C1775 H1790 0.961 . S
C1775 H1791 0.960 . S
H1776 C1760 0.931 . S
H1777 C1765 0.929 . S
H1778 C1766 0.960 . S
H1779 C1766 0.962 . S
H1780 C1766 0.960 . S
H1781 C1767 0.961 . S
H1782 C1767 0.961 . S
H1783 C1767 0.961 . S
H1784 C1768 0.931 . S
H1785 C1773 0.930 . S
H1786 C1774 0.956 . S
H1787 C1774 0.961 . S
H1788 C1774 0.961 . S
H1789 C1775 0.958 . S
H1790 C1775 0.961 . S
H1791 C1775 0.960 . S
C1792 C1793 1.391 . S
C1792 C1794 1.394 . S
C1792 H1808 0.931 . S
C1793 C1792 1.391 . S
C1793 C1797 1.376 . S
C1794 C1792 1.394 . S
C1794 C1795 1.369 . S
C1794 C1798 1.531 . S
C1795 C1794 1.369 . S
C1795 C1796 1.410 . S
C1795 C1803 1.503 . S
C1796 C1795 1.410 . S
C1796 C1797 1.392 . S
C1796 C1799 1.511 . S
C1797 C1793 1.376 . S
C1797 C1796 1.392 . S
C1797 H1809 0.929 . S
C1798 C1794 1.531 . S
C1798 H1810 0.960 . S
C1798 H1811 0.962 . S
C1798 H1812 0.960 . S
C1799 C1796 1.511 . S
C1799 H1813 0.961 . S
C1799 H1814 0.961 . S
C1799 H1815 0.961 . S
C1800 C1801 1.370 . S
C1800 C1802 1.363 . S
C1800 H1816 0.931 . S
C1801 C1800 1.370 . S
C1801 C1805 1.408 . S
C1802 C1800 1.363 . S
C1802 C1803 1.370 . S
C1802 C1806 1.524 . S
C1803 C1795 1.503 . S
C1803 C1802 1.370 . S
C1803 C1804 1.403 . S
C1804 C1803 1.403 . S
C1804 C1805 1.404 . S
C1804 C1807 1.539 . S
C1805 C1801 1.408 . S
C1805 C1804 1.404 . S
C1805 H1817 0.930 . S
C1806 C1802 1.524 . S
C1806 H1818 0.956 . S
C1806 H1819 0.961 . S
C1806 H1820 0.961 . S
C1807 C1804 1.539 . S
C1807 H1821 0.958 . S
C1807 H1822 0.961 . S
C1807 H1823 0.960 . S
H1808 C1792 0.931 . S
H1809 C1797 0.929 . S
H1810 C1798 0.960 . S
H1811 C1798 0.962 . S
H1812 C1798 0.960 . S
H1813 C1799 0.961 . S
H1814 C1799 0.961 . S
H1815 C1799 0.961 . S
H1816 C1800 0.931 . S
H1817 C1805 0.930 . S
H1818 C1806 0.956 . S
H1819 C1806 0.961 . S
H1820 C1806 0.961 . S
H1821 C1807 0.958 . S
H1822 C1807 0.961 . S
H1823 C1807 0.960 . S
C545 C2 1.715 . S
C553 C512 1.721 . S
C577 C36 1.717 . S
C585 C410 1.722 . S
C609 C444 1.718 . S
C617 C70 1.722 . S
C641 C104 1.720 . S
C649 C478 1.723 . S
C673 C308 1.715 . S
C681 C138 1.721 . S
C705 C342 1.715 . S
C713 C172 1.721 . S
C737 C376 1.720 . S
C745 C206 1.723 . S
C769 C274 1.720 . S
C777 C240 1.723 . S
C801 C33 1.226 . S
C809 C271 1.258 . S
C833 C67 1.243 . S
C841 C169 1.243 . S
C865 C101 1.259 . S
C873 C203 1.259 . S
C897 C135 1.243 . S
C905 C237 1.243 . S
C929 C543 1.262 . S
C937 C305 1.242 . S
C961 C441 1.272 . S
C969 C339 1.247 . S
C993 C475 1.239 . S
C1001 C373 1.247 . S
C1025 C407 1.271 . S
C1033 C509 1.244 . S
C1057 C20 1.540 . S
C1065 C156 1.560 . S
C1089 C190 1.559 . S
C1097 C54 1.566 . S
C1121 C224 1.569 . S
C1129 C88 1.558 . S
C1153 C122 1.552 . S
C1161 C258 1.552 . S
C1185 C428 1.552 . S
C1193 C292 1.552 . S
C1217 C326 1.566 . S
C1225 C462 1.564 . S
C1249 C360 1.554 . S
C1257 C496 1.552 . S
C1281 C530 1.568 . S
C1289 C394 1.554 . S
C1313 C5 1.236 . S
C1321 C9 1.223 . S
C1345 C43 1.187 1_554 S
C1353 C39 1.249 . S
C1377 C73 1.236 . S
C1385 C77 1.218 . S
C1409 C111 1.226 1_554 S
C1417 C107 1.247 . S
C1441 C141 1.261 . S
C1449 C145 1.225 1_556 S
C1473 C175 1.244 . S
C1481 C179 1.233 . S
C1505 C209 1.259 . S
C1513 C213 1.233 1_556 S
C1537 C243 1.260 . S
C1545 C247 1.232 . S
C1569 C281 1.219 . S
C1577 C277 1.257 . S
C1601 C315 1.245 1_556 S
C1609 C311 1.248 . S
C1633 C349 1.244 . S
C1641 C345 1.248 . S
C1665 C383 1.202 1_556 S
C1673 C379 1.256 . S
C1697 C413 1.240 . S
C1705 C417 1.233 1_554 S
C1729 C447 1.253 . S
C1737 C451 1.209 . S
C1761 C485 1.224 1_554 S
C1769 C481 1.257 . S
C1793 C519 1.249 . S
C1801 C515 1.254 . S
