# Generated by pormake.
# Topology ukc, (4)-cn, num edge types: 1
# Building blocks:
#     Node 0, Type 0, BuildingBlock: KUFVIS_clean_sbu_0, # of connection points: 4
#     Node 1, Type 0, BuildingBlock: KUFVIS_clean_sbu_0, # of connection points: 4
#     Node 2, Type 0, BuildingBlock: KUFVIS_clean_sbu_0, # of connection points: 4
#     Node 3, Type 0, BuildingBlock: KUFVIS_clean_sbu_0, # of connection points: 4
#     Node 4, Type 0, BuildingBlock: KUFVIS_clean_sbu_0, # of connection points: 4
#     Node 5, Type 0, BuildingBlock: KUFVIS_clean_sbu_0, # of connection points: 4
#     Node 6, Type 0, BuildingBlock: KUFVIS_clean_sbu_0, # of connection points: 4
#     Node 7, Type 0, BuildingBlock: KUFVIS_clean_sbu_0, # of connection points: 4
#     Node 8, Type 0, BuildingBlock: KUFVIS_clean_sbu_0, # of connection points: 4
#     Node 9, Type 0, BuildingBlock: KUFVIS_clean_sbu_0, # of connection points: 4
#     Node 10, Type 0, BuildingBlock: KUFVIS_clean_sbu_0, # of connection points: 4
#     Node 11, Type 0, BuildingBlock: KUFVIS_clean_sbu_0, # of connection points: 4
#     Node 12, Type 0, BuildingBlock: KUFVIS_clean_sbu_0, # of connection points: 4
#     Node 13, Type 0, BuildingBlock: KUFVIS_clean_sbu_0, # of connection points: 4
#     Node 14, Type 0, BuildingBlock: KUFVIS_clean_sbu_0, # of connection points: 4
#     Node 15, Type 0, BuildingBlock: KUFVIS_clean_sbu_0, # of connection points: 4
#     Node 16, Type 0, BuildingBlock: KUFVIS_clean_sbu_0, # of connection points: 4
#     Node 17, Type 0, BuildingBlock: KUFVIS_clean_sbu_0, # of connection points: 4
#     Node 18, Type 0, BuildingBlock: KUFVIS_clean_sbu_0, # of connection points: 4
#     Node 19, Type 0, BuildingBlock: KUFVIS_clean_sbu_0, # of connection points: 4
#     Node 20, Type 0, BuildingBlock: KUFVIS_clean_sbu_0, # of connection points: 4
#     Node 21, Type 0, BuildingBlock: KUFVIS_clean_sbu_0, # of connection points: 4
#     Node 22, Type 0, BuildingBlock: KUFVIS_clean_sbu_0, # of connection points: 4
#     Node 23, Type 0, BuildingBlock: KUFVIS_clean_sbu_0, # of connection points: 4
#     Node 24, Type 0, BuildingBlock: KUFVIS_clean_sbu_0, # of connection points: 4
#     Node 25, Type 0, BuildingBlock: KUFVIS_clean_sbu_0, # of connection points: 4
#     Node 26, Type 0, BuildingBlock: KUFVIS_clean_sbu_0, # of connection points: 4
#     Node 27, Type 0, BuildingBlock: KUFVIS_clean_sbu_0, # of connection points: 4
#     Node 28, Type 0, BuildingBlock: KUFVIS_clean_sbu_0, # of connection points: 4
#     Node 29, Type 0, BuildingBlock: KUFVIS_clean_sbu_0, # of connection points: 4
#     Node 30, Type 0, BuildingBlock: KUFVIS_clean_sbu_0, # of connection points: 4
#     Node 31, Type 0, BuildingBlock: KUFVIS_clean_sbu_0, # of connection points: 4
#     Edge 32, Type (0, 0), BuildingBlock: XIVTED_clean_linker_0, # of connection points: 2
#     Edge 33, Type (0, 0), BuildingBlock: XIVTED_clean_linker_0, # of connection points: 2
#     Edge 34, Type (0, 0), BuildingBlock: XIVTED_clean_linker_0, # of connection points: 2
#     Edge 35, Type (0, 0), BuildingBlock: XIVTED_clean_linker_0, # of connection points: 2
#     Edge 36, Type (0, 0), BuildingBlock: XIVTED_clean_linker_0, # of connection points: 2
#     Edge 37, Type (0, 0), BuildingBlock: XIVTED_clean_linker_0, # of connection points: 2
#     Edge 38, Type (0, 0), BuildingBlock: XIVTED_clean_linker_0, # of connection points: 2
#     Edge 39, Type (0, 0), BuildingBlock: XIVTED_clean_linker_0, # of connection points: 2
#     Edge 40, Type (0, 0), BuildingBlock: XIVTED_clean_linker_0, # of connection points: 2
#     Edge 41, Type (0, 0), BuildingBlock: XIVTED_clean_linker_0, # of connection points: 2
#     Edge 42, Type (0, 0), BuildingBlock: XIVTED_clean_linker_0, # of connection points: 2
#     Edge 43, Type (0, 0), BuildingBlock: XIVTED_clean_linker_0, # of connection points: 2
#     Edge 44, Type (0, 0), BuildingBlock: XIVTED_clean_linker_0, # of connection points: 2
#     Edge 45, Type (0, 0), BuildingBlock: XIVTED_clean_linker_0, # of connection points: 2
#     Edge 46, Type (0, 0), BuildingBlock: XIVTED_clean_linker_0, # of connection points: 2
#     Edge 47, Type (0, 0), BuildingBlock: XIVTED_clean_linker_0, # of connection points: 2
#     Edge 48, Type (0, 0), BuildingBlock: XIVTED_clean_linker_0, # of connection points: 2
#     Edge 49, Type (0, 0), BuildingBlock: XIVTED_clean_linker_0, # of connection points: 2
#     Edge 50, Type (0, 0), BuildingBlock: XIVTED_clean_linker_0, # of connection points: 2
#     Edge 51, Type (0, 0), BuildingBlock: XIVTED_clean_linker_0, # of connection points: 2
#     Edge 52, Type (0, 0), BuildingBlock: XIVTED_clean_linker_0, # of connection points: 2
#     Edge 53, Type (0, 0), BuildingBlock: XIVTED_clean_linker_0, # of connection points: 2
#     Edge 54, Type (0, 0), BuildingBlock: XIVTED_clean_linker_0, # of connection points: 2
#     Edge 55, Type (0, 0), BuildingBlock: XIVTED_clean_linker_0, # of connection points: 2
#     Edge 56, Type (0, 0), BuildingBlock: XIVTED_clean_linker_0, # of connection points: 2
#     Edge 57, Type (0, 0), BuildingBlock: XIVTED_clean_linker_0, # of connection points: 2
#     Edge 58, Type (0, 0), BuildingBlock: XIVTED_clean_linker_0, # of connection points: 2
#     Edge 59, Type (0, 0), BuildingBlock: XIVTED_clean_linker_0, # of connection points: 2
#     Edge 60, Type (0, 0), BuildingBlock: XIVTED_clean_linker_0, # of connection points: 2
#     Edge 61, Type (0, 0), BuildingBlock: XIVTED_clean_linker_0, # of connection points: 2
#     Edge 62, Type (0, 0), BuildingBlock: XIVTED_clean_linker_0, # of connection points: 2
#     Edge 63, Type (0, 0), BuildingBlock: XIVTED_clean_linker_0, # of connection points: 2
#     Edge 64, Type (0, 0), BuildingBlock: XIVTED_clean_linker_0, # of connection points: 2
#     Edge 65, Type (0, 0), BuildingBlock: XIVTED_clean_linker_0, # of connection points: 2
#     Edge 66, Type (0, 0), BuildingBlock: XIVTED_clean_linker_0, # of connection points: 2
#     Edge 67, Type (0, 0), BuildingBlock: XIVTED_clean_linker_0, # of connection points: 2
#     Edge 68, Type (0, 0), BuildingBlock: XIVTED_clean_linker_0, # of connection points: 2
#     Edge 69, Type (0, 0), BuildingBlock: XIVTED_clean_linker_0, # of connection points: 2
#     Edge 70, Type (0, 0), BuildingBlock: XIVTED_clean_linker_0, # of connection points: 2
#     Edge 71, Type (0, 0), BuildingBlock: XIVTED_clean_linker_0, # of connection points: 2
#     Edge 72, Type (0, 0), BuildingBlock: XIVTED_clean_linker_0, # of connection points: 2
#     Edge 73, Type (0, 0), BuildingBlock: XIVTED_clean_linker_0, # of connection points: 2
#     Edge 74, Type (0, 0), BuildingBlock: XIVTED_clean_linker_0, # of connection points: 2
#     Edge 75, Type (0, 0), BuildingBlock: XIVTED_clean_linker_0, # of connection points: 2
#     Edge 76, Type (0, 0), BuildingBlock: XIVTED_clean_linker_0, # of connection points: 2
#     Edge 77, Type (0, 0), BuildingBlock: XIVTED_clean_linker_0, # of connection points: 2
#     Edge 78, Type (0, 0), BuildingBlock: XIVTED_clean_linker_0, # of connection points: 2
#     Edge 79, Type (0, 0), BuildingBlock: XIVTED_clean_linker_0, # of connection points: 2
#     Edge 80, Type (0, 0), BuildingBlock: XIVTED_clean_linker_0, # of connection points: 2
#     Edge 81, Type (0, 0), BuildingBlock: XIVTED_clean_linker_0, # of connection points: 2
#     Edge 82, Type (0, 0), BuildingBlock: XIVTED_clean_linker_0, # of connection points: 2
#     Edge 83, Type (0, 0), BuildingBlock: XIVTED_clean_linker_0, # of connection points: 2
#     Edge 84, Type (0, 0), BuildingBlock: XIVTED_clean_linker_0, # of connection points: 2
#     Edge 85, Type (0, 0), BuildingBlock: XIVTED_clean_linker_0, # of connection points: 2
#     Edge 86, Type (0, 0), BuildingBlock: XIVTED_clean_linker_0, # of connection points: 2
#     Edge 87, Type (0, 0), BuildingBlock: XIVTED_clean_linker_0, # of connection points: 2
#     Edge 88, Type (0, 0), BuildingBlock: XIVTED_clean_linker_0, # of connection points: 2
#     Edge 89, Type (0, 0), BuildingBlock: XIVTED_clean_linker_0, # of connection points: 2
#     Edge 90, Type (0, 0), BuildingBlock: XIVTED_clean_linker_0, # of connection points: 2
#     Edge 91, Type (0, 0), BuildingBlock: XIVTED_clean_linker_0, # of connection points: 2
#     Edge 92, Type (0, 0), BuildingBlock: XIVTED_clean_linker_0, # of connection points: 2
#     Edge 93, Type (0, 0), BuildingBlock: XIVTED_clean_linker_0, # of connection points: 2
#     Edge 94, Type (0, 0), BuildingBlock: XIVTED_clean_linker_0, # of connection points: 2
#     Edge 95, Type (0, 0), BuildingBlock: XIVTED_clean_linker_0, # of connection points: 2
# Relax obj value: 0.035
# Max RMSD: 0.053
# Mean RMSD: 0.053
data_MOF--net-ukc--node1-KUFVIS_clean_sbu_0--edge1-XIVTED_clean_linker_0
_symmetry_space_group_name_H-M    P1
_symmetry_Int_Tables_number       1
_symmetry_cell_setting            triclinic
loop_
_symmetry_equiv_pos_as_xyz
'x, y, z'
_cell_length_a     44.003955
_cell_length_b     44.0046
_cell_length_c     88.436406
_cell_angle_alpha  89.998616
_cell_angle_beta   89.987042
_cell_angle_gamma 90.002239
loop_
_atom_site_label
_atom_site_type_symbol
_atom_site_fract_x
_atom_site_fract_y
_atom_site_fract_z
_atom_type_partial_charge
Mn0 Mn 0.10134 0.39078 0.05718 0.0
Mn1 Mn 0.09527 0.35692 0.02301 0.0
C2 C 0.0676 0.35083 0.05379 0.0
C3 C 0.12206 0.39593 0.08136 0.0
C4 C 0.06573 0.41712 0.03019 0.0
O5 O 0.1404 0.40446 0.04658 0.0
O6 O 0.13282 0.3817 0.02409 0.0
C7 C 0.148 0.31565 0.02635 0.0
N8 N 0.11778 0.31981 0.02372 0.0
C9 C 0.10961 0.26595 0.02154 0.0
C10 C 0.14067 0.26109 0.02411 0.0
C11 C 0.15995 0.28606 0.02653 0.0
C12 C 0.09907 0.29597 0.02133 0.0
H13 H 0.16288 0.33473 0.02836 0.0
C14 C 0.14839 0.3985 0.033 0.0
O15 O 0.10858 0.41839 0.07463 0.0
O16 O 0.12489 0.37086 0.07373 0.0
N17 N 0.0603 0.3319 0.02021 0.0
C18 C 0.03083 0.34051 0.01822 0.0
C19 C 0.00848 0.31819 0.01613 0.0
C20 C 0.01678 0.2874 0.01597 0.0
C21 C 0.0474 0.27915 0.01734 0.0
C22 C 0.06868 0.30241 0.01931 0.0
H23 H 0.02435 0.36417 0.01856 0.0
O24 O 0.06365 0.37028 0.06462 0.0
O25 O 0.09126 0.35523 0.04519 0.0
O26 O 0.07605 0.41891 0.04364 0.0
O27 O 0.071 0.3946 0.02146 0.0
C28 C 0.05751 0.24876 0.01749 0.0
C29 C 0.08859 0.24216 0.01952 0.0
H30 H 0.14992 0.23828 0.02439 0.0
H31 H 0.18392 0.2825 0.0286 0.0
H32 H 0.98485 0.32462 0.01501 0.0
H33 H 0.99937 0.2703 0.01526 0.0
H34 H 0.04156 0.23022 0.0164 0.0
H35 H 0.09601 0.2187 0.01976 0.0
Mn36 Mn 0.87242 0.85176 0.31001 0.0
Mn37 Mn 0.90526 0.84355 0.27566 0.0
C38 C 0.91177 0.81722 0.30665 0.0
C39 C 0.86801 0.87277 0.33423 0.0
C40 C 0.84519 0.81484 0.28364 0.0
O41 O 0.85901 0.89073 0.2991 0.0
O42 O 0.88034 0.88093 0.27649 0.0
C43 C 0.9463 0.89667 0.27822 0.0
N44 N 0.94224 0.86634 0.27586 0.0
C45 C 0.99609 0.85844 0.27336 0.0
C46 C 1.00083 0.88961 0.27565 0.0
C47 C 0.97581 0.9088 0.27809 0.0
C48 C 0.96613 0.8477 0.27346 0.0
H49 H 0.92719 0.9115 0.28026 0.0
C50 C 0.86421 0.89746 0.28526 0.0
O51 O 0.84523 0.85971 0.32757 0.0
O52 O 0.89291 0.87536 0.32644 0.0
N53 N 0.93043 0.80866 0.27295 0.0
C54 C 0.92192 0.77915 0.27101 0.0
C55 C 0.9443 0.75694 0.26868 0.0
C56 C 0.97503 0.76542 0.26824 0.0
C57 C 0.98315 0.79608 0.26957 0.0
C58 C 0.95983 0.81723 0.2717 0.0
H59 H 0.89832 0.77254 0.27154 0.0
O60 O 0.89253 0.81396 0.31763 0.0
O61 O 0.90758 0.84065 0.29788 0.0
O62 O 0.84368 0.82643 0.29684 0.0
O63 O 0.86767 0.81899 0.27473 0.0
C64 C 0.01348 0.80636 0.26948 0.0
C65 C 0.01995 0.83751 0.27132 0.0
H66 H 0.02359 0.899 0.27569 0.0
H67 H 0.97928 0.93286 0.27996 0.0
H68 H 0.93797 0.73327 0.26758 0.0
H69 H 0.99225 0.74814 0.26738 0.0
H70 H 0.03207 0.79049 0.26832 0.0
H71 H 0.04338 0.84508 0.27134 0.0
Mn72 Mn 0.40301 0.61853 0.55782 0.0
Mn73 Mn 0.41441 0.65147 0.52375 0.0
C74 C 0.43835 0.65736 0.55531 0.0
C75 C 0.37915 0.61492 0.58134 0.0
C76 C 0.43948 0.58962 0.53195 0.0
O77 O 0.36488 0.60622 0.54598 0.0
O78 O 0.37455 0.63041 0.52401 0.0
C79 C 0.36582 0.69787 0.52543 0.0
N80 N 0.39571 0.69064 0.52368 0.0
C81 C 0.40962 0.74338 0.52191 0.0
C82 C 0.37896 0.7514 0.52357 0.0
C83 C 0.35696 0.72853 0.52531 0.0
C84 C 0.41702 0.71243 0.52183 0.0
H85 H 0.34888 0.68039 0.52698 0.0
C86 C 0.35773 0.61378 0.53246 0.0
O87 O 0.3925 0.59174 0.57519 0.0
O88 O 0.37814 0.63979 0.57345 0.0
N89 N 0.45202 0.67277 0.52196 0.0
C90 C 0.48071 0.66122 0.52114 0.0
C91 C 0.50547 0.68113 0.51983 0.0
C92 C 0.50042 0.7126 0.5194 0.0
C93 C 0.47062 0.72387 0.51977 0.0
C94 C 0.44682 0.70293 0.52079 0.0
H95 H 0.48474 0.63706 0.52178 0.0
O96 O 0.44039 0.63807 0.56635 0.0
O97 O 0.41582 0.65327 0.54599 0.0
O98 O 0.42897 0.5891 0.54538 0.0
O99 O 0.43508 0.61168 0.52285 0.0
C100 C 0.46369 0.75508 0.52004 0.0
C101 C 0.43325 0.76488 0.52094 0.0
H102 H 0.37211 0.77504 0.52372 0.0
H103 H 0.33328 0.73454 0.5267 0.0
H104 H 0.52842 0.6723 0.51955 0.0
H105 H 0.51962 0.72786 0.5193 0.0
H106 H 0.48169 0.77168 0.52027 0.0
H107 H 0.42834 0.78899 0.52131 0.0
Mn108 Mn 0.633 0.15759 0.80595 0.0
Mn109 Mn 0.60421 0.16215 0.7706 0.0
C110 C 0.59485 0.19257 0.80032 0.0
C111 C 0.63479 0.13975 0.83091 0.0
C112 C 0.66396 0.19055 0.77932 0.0
O113 O 0.64655 0.11689 0.79678 0.0
O114 O 0.62809 0.12452 0.77337 0.0
C115 C 0.56162 0.11034 0.77354 0.0
N116 N 0.56688 0.14004 0.77008 0.0
C117 C 0.51533 0.14688 0.76175 0.0
C118 C 0.50934 0.11634 0.76518 0.0
C119 C 0.53254 0.09806 0.77122 0.0
C120 C 0.54453 0.15802 0.76468 0.0
H121 H 0.57952 0.0961 0.77796 0.0
C122 C 0.64277 0.10869 0.78303 0.0
O123 O 0.65834 0.15152 0.82435 0.0
O124 O 0.61047 0.13674 0.82271 0.0
N125 N 0.58027 0.19697 0.76574 0.0
C126 C 0.58986 0.22591 0.76305 0.0
C127 C 0.56984 0.24681 0.75641 0.0
C128 C 0.54037 0.23761 0.75239 0.0
C129 C 0.53081 0.20787 0.75549 0.0
C130 C 0.55181 0.18803 0.76207 0.0
H131 H 0.61285 0.23276 0.76562 0.0
O132 O 0.61312 0.19677 0.81163 0.0
O133 O 0.59916 0.16783 0.79254 0.0
O134 O 0.66386 0.18044 0.79283 0.0
O135 O 0.64227 0.1859 0.77003 0.0
C136 C 0.50153 0.1969 0.75198 0.0
C137 C 0.49363 0.16659 0.75536 0.0
H138 H 0.48705 0.10669 0.7632 0.0
H139 H 0.5281 0.07448 0.7739 0.0
H140 H 0.57731 0.26977 0.75407 0.0
H141 H 0.52531 0.25356 0.74684 0.0
H142 H 0.48487 0.21159 0.74671 0.0
H143 H 0.47095 0.15855 0.75279 0.0
Mn144 Mn 0.10246 0.6211 0.46561 0.0
Mn145 Mn 0.09698 0.65421 0.5 0.0
C146 C 0.06764 0.65991 0.46961 0.0
C147 C 0.12183 0.6166 0.44109 0.0
C148 C 0.06867 0.59347 0.4929 0.0
O149 O 0.14252 0.60856 0.47563 0.0
O150 O 0.13494 0.63021 0.49839 0.0
C151 C 0.14872 0.69658 0.49618 0.0
N152 N 0.11874 0.69177 0.49919 0.0
C153 C 0.1096 0.74543 0.50165 0.0
C154 C 0.14042 0.75095 0.49869 0.0
C155 C 0.16006 0.7264 0.49595 0.0
C156 C 0.09968 0.7152 0.5019 0.0
H157 H 0.16387 0.67784 0.4939 0.0
C158 C 0.15074 0.61423 0.48921 0.0
O159 O 0.10958 0.59375 0.44806 0.0
O160 O 0.12433 0.64177 0.44866 0.0
N161 N 0.0617 0.67848 0.50337 0.0
C162 C 0.03255 0.66924 0.50579 0.0
C163 C 0.00991 0.69107 0.50835 0.0
C164 C 0.0176 0.72202 0.5085 0.0
C165 C 0.04794 0.73091 0.50666 0.0
C166 C 0.06955 0.70812 0.5043 0.0
H167 H 0.02652 0.64547 0.50545 0.0
O168 O 0.06372 0.64047 0.45877 0.0
O169 O 0.0919 0.65619 0.47787 0.0
O170 O 0.07879 0.59209 0.4794 0.0
O171 O 0.0735 0.61604 0.50166 0.0
C172 C 0.05739 0.76151 0.50643 0.0
C173 C 0.08821 0.76876 0.50399 0.0
H174 H 0.14918 0.77395 0.49836 0.0
H175 H 0.18384 0.73048 0.49357 0.0
H176 H 0.98649 0.68415 0.50983 0.0
H177 H 0.99992 0.73876 0.50953 0.0
H178 H 0.04113 0.77969 0.5078 0.0
H179 H 0.09514 0.79238 0.50372 0.0
Mn180 Mn 0.63015 0.852 0.71945 0.0
Mn181 Mn 0.6031 0.84544 0.75502 0.0
C182 C 0.59314 0.81588 0.72518 0.0
C183 C 0.62978 0.87073 0.69465 0.0
C184 C 0.66292 0.81853 0.74537 0.0
O185 O 0.64287 0.89278 0.72878 0.0
O186 O 0.62652 0.88345 0.7524 0.0
C187 C 0.55995 0.89698 0.75316 0.0
N188 N 0.56561 0.86718 0.75621 0.0
C189 C 0.51455 0.85953 0.76511 0.0
C190 C 0.50814 0.89016 0.7621 0.0
C191 C 0.53089 0.9089 0.75599 0.0
C192 C 0.54369 0.84877 0.76169 0.0
H193 H 0.57749 0.91158 0.74869 0.0
C194 C 0.6401 0.90014 0.7427 0.0
O195 O 0.65432 0.86003 0.70076 0.0
O196 O 0.60581 0.87216 0.70319 0.0
N197 N 0.57967 0.81018 0.75975 0.0
C198 C 0.58957 0.78118 0.76192 0.0
C199 C 0.56996 0.75975 0.76848 0.0
C200 C 0.54062 0.76851 0.77296 0.0
C201 C 0.53077 0.79837 0.77042 0.0
C202 C 0.55132 0.81871 0.76386 0.0
H203 H 0.61248 0.77463 0.75899 0.0
O204 O 0.61118 0.81238 0.71371 0.0
O205 O 0.5972 0.84046 0.73312 0.0
O206 O 0.66239 0.8297 0.73206 0.0
O207 O 0.64132 0.82203 0.75484 0.0
C208 C 0.50161 0.80894 0.77443 0.0
C209 C 0.49332 0.83935 0.77153 0.0
H210 H 0.48588 0.89953 0.76447 0.0
H211 H 0.52614 0.93256 0.75363 0.0
H212 H 0.57765 0.7367 0.77037 0.0
H213 H 0.52586 0.75212 0.77839 0.0
H214 H 0.4853 0.79385 0.7797 0.0
H215 H 0.47071 0.84707 0.77447 0.0
Mn216 Mn 0.40372 0.3925 0.96839 0.0
Mn217 Mn 0.40999 0.35891 1.00261 0.0
C218 C 0.43764 0.35271 0.97184 0.0
C219 C 0.38278 0.39724 0.94423 0.0
C220 C 0.43933 0.41917 0.99529 0.0
O221 O 0.36462 0.4061 0.97898 0.0
O222 O 0.37235 0.38353 1.00151 0.0
C223 C 0.3574 0.31743 0.99937 0.0
N224 N 0.38761 0.32172 1.00197 0.0
C225 C 0.39598 0.2679 1.00421 0.0
C226 C 0.36493 0.26291 1.00167 0.0
C227 C 0.34556 0.2878 0.99924 0.0
C228 C 0.40642 0.29796 1.00438 0.0
H229 H 0.34245 0.33644 0.99735 0.0
C230 C 0.35667 0.40018 0.99257 0.0
O231 O 0.39624 0.41985 0.95084 0.0
O232 O 0.38015 0.37227 0.95194 0.0
N233 N 0.44506 0.33405 1.00543 0.0
C234 C 0.4745 0.34278 1.00741 0.0
C235 C 0.49693 0.32055 1.00953 0.0
C236 C 0.48875 0.28973 1.00974 0.0
C237 C 0.45816 0.28136 1.00836 0.0
C238 C 0.43679 0.30452 1.00638 0.0
H239 H 0.48089 0.36646 1.00703 0.0
O240 O 0.44147 0.37206 0.96096 0.0
O241 O 0.41398 0.3571 0.98044 0.0
O242 O 0.42897 0.42086 0.98184 0.0
O243 O 0.43412 0.39668 1.00406 0.0
C244 C 0.44815 0.25093 1.00824 0.0
C245 C 0.41709 0.24421 1.00624 0.0
H246 H 0.35578 0.24006 1.00142 0.0
H247 H 0.3216 0.28414 0.99718 0.0
H248 H 0.52054 0.32708 1.01066 0.0
H249 H 0.50623 0.27271 1.01052 0.0
H250 H 0.46416 0.23245 1.00933 0.0
H251 H 0.40976 0.22071 1.00602 0.0
Mn252 Mn 0.8744 0.15239 0.21911 0.0
Mn253 Mn 0.90271 0.15705 0.25451 0.0
C254 C 0.91153 0.18826 0.225 0.0
C255 C 0.87418 0.13497 0.19405 0.0
C256 C 0.84261 0.18451 0.24577 0.0
O257 O 0.8619 0.11113 0.22801 0.0
O258 O 0.87902 0.11932 0.25161 0.0
C259 C 0.94565 0.10555 0.25152 0.0
N260 N 0.94018 0.13518 0.25503 0.0
C261 C 0.99166 0.1423 0.26342 0.0
C262 C 0.99787 0.11184 0.25993 0.0
C263 C 0.97481 0.09345 0.25384 0.0
C264 C 0.96239 0.15326 0.2605 0.0
H265 H 0.92788 0.09123 0.24705 0.0
C266 C 0.86501 0.10319 0.24183 0.0
O267 O 0.84976 0.14533 0.20044 0.0
O268 O 0.8983 0.13307 0.20245 0.0
N269 N 0.92639 0.19197 0.25952 0.0
C270 C 0.91659 0.22081 0.26227 0.0
C271 C 0.93647 0.24181 0.26895 0.0
C272 C 0.96601 0.23279 0.27294 0.0
C273 C 0.97576 0.20313 0.26979 0.0
C274 C 0.95491 0.18319 0.26317 0.0
H275 H 0.89355 0.22753 0.25971 0.0
O276 O 0.89316 0.19231 0.21372 0.0
O277 O 0.90778 0.16326 0.23264 0.0
O278 O 0.84258 0.17406 0.2323 0.0
O279 O 0.86458 0.1805 0.25497 0.0
C280 C 0.00511 0.19234 0.27329 0.0
C281 C 0.01322 0.1621 0.26986 0.0
H282 H 0.02022 0.10231 0.26191 0.0
H283 H 0.97942 0.06992 0.25111 0.0
H284 H 0.92885 0.2647 0.27132 0.0
H285 H 0.98097 0.24881 0.27851 0.0
H286 H 0.02167 0.20711 0.27858 0.0
H287 H 0.03595 0.1542 0.27242 0.0
Mn288 Mn 0.90223 0.6182 0.96578 0.0
Mn289 Mn 0.90833 0.65114 1.0002 0.0
C290 C 0.93636 0.65776 0.96961 0.0
C291 C 0.88237 0.61413 0.9413 0.0
C292 C 0.93742 0.59091 0.9927 0.0
O293 O 0.86273 0.60461 0.97618 0.0
O294 O 0.87079 0.62653 0.99884 0.0
C295 C 0.8558 0.69272 0.99698 0.0
N296 N 0.88595 0.68835 0.99972 0.0
C297 C 0.89423 0.74207 1.00254 0.0
C298 C 0.86324 0.74714 0.99986 0.0
C299 C 0.84395 0.72234 0.99707 0.0
C300 C 0.90469 0.71202 1.00245 0.0
H301 H 0.84091 0.67377 0.9947 0.0
C302 C 0.85497 0.61014 0.98986 0.0
O303 O 0.89522 0.59126 0.94799 0.0
O304 O 0.87935 0.63886 0.94917 0.0
N305 N 0.94334 0.67594 1.00334 0.0
C306 C 0.97271 0.66714 1.00548 0.0
C307 C 0.99506 0.68928 1.00801 0.0
C308 C 0.98684 0.72008 1.00849 0.0
C309 C 0.95629 0.72849 1.00697 0.0
C310 C 0.93501 0.70541 1.00455 0.0
H311 H 0.97912 0.64348 1.00493 0.0
O312 O 0.94033 0.63857 0.95868 0.0
O313 O 0.91251 0.65336 0.97806 0.0
O314 O 0.92701 0.5894 0.97925 0.0
O315 O 0.93242 0.61336 1.00151 0.0
C316 C 0.94627 0.75891 1.00713 0.0
C317 C 0.91526 0.76569 1.00497 0.0
H318 H 0.85406 0.76998 0.9998 0.0
H319 H 0.82003 0.72606 0.99491 0.0
H320 H 0.01863 0.68272 1.00926 0.0
H321 H 0.00427 0.73709 1.00958 0.0
H322 H 0.96224 0.77733 1.00857 0.0
H323 H 0.90791 0.78919 1.00497 0.0
Mn324 Mn 0.13937 0.15254 0.71868 0.0
Mn325 Mn 0.10641 0.1606 0.75296 0.0
C326 C 0.09995 0.187 0.72196 0.0
C327 C 0.14353 0.13085 0.69466 0.0
C328 C 0.16679 0.18907 0.74508 0.0
O329 O 0.15274 0.11369 0.72961 0.0
O330 O 0.13073 0.12273 0.75215 0.0
C331 C 0.06457 0.10814 0.75038 0.0
N332 N 0.06907 0.13842 0.75268 0.0
C333 C 0.01533 0.1472 0.75496 0.0
C334 C 0.01012 0.11609 0.75273 0.0
C335 C 0.03487 0.09648 0.75043 0.0
C336 C 0.04545 0.15746 0.75496 0.0
H337 H 0.08346 0.09298 0.74845 0.0
C338 C 0.14701 0.10642 0.74332 0.0
O339 O 0.1664 0.14421 0.70109 0.0
O340 O 0.11868 0.12864 0.7025 0.0
N341 N 0.08178 0.19592 0.75552 0.0
C342 C 0.0907 0.22538 0.75721 0.0
C343 C 0.06862 0.24802 0.75921 0.0
C344 C 0.03775 0.24003 0.7596 0.0
C345 C 0.02919 0.20944 0.7585 0.0
C346 C 0.05221 0.18787 0.75664 0.0
H347 H 0.11441 0.23161 0.7567 0.0
O348 O 0.11919 0.19023 0.71098 0.0
O349 O 0.10425 0.16363 0.73077 0.0
O350 O 0.16816 0.17799 0.73177 0.0
O351 O 0.14438 0.18456 0.754 0.0
C352 C 0.9987 0.19962 0.75854 0.0
C353 C 0.99178 0.16853 0.75684 0.0
H354 H 0.98722 0.10707 0.75262 0.0
H355 H 0.03104 0.07246 0.7486 0.0
H356 H 0.0753 0.27162 0.76013 0.0
H357 H 0.02083 0.25763 0.76032 0.0
H358 H 0.98033 0.21576 0.7595 0.0
H359 H 0.96824 0.16134 0.75674 0.0
Mn360 Mn 0.60263 0.38556 0.46921 0.0
Mn361 Mn 0.59817 0.35642 0.5045 0.0
C362 C 0.56734 0.34776 0.47482 0.0
C363 C 0.62072 0.38702 0.44428 0.0
C364 C 0.57002 0.41644 0.49593 0.0
O365 O 0.6433 0.39901 0.47841 0.0
O366 O 0.63614 0.37973 0.50169 0.0
C367 C 0.6492 0.31298 0.50135 0.0
N368 N 0.61961 0.3187 0.50486 0.0
C369 C 0.61196 0.26723 0.51314 0.0
C370 C 0.64237 0.26074 0.50964 0.0
C371 C 0.661 0.28368 0.50361 0.0
C372 C 0.60128 0.29661 0.51025 0.0
H373 H 0.66371 0.33069 0.49695 0.0
C374 C 0.65182 0.39471 0.49207 0.0
O375 O 0.60901 0.41072 0.45075 0.0
O376 O 0.62351 0.36279 0.45256 0.0
N377 N 0.56297 0.33305 0.50939 0.0
C378 C 0.53428 0.34318 0.51224 0.0
C379 C 0.51311 0.32352 0.51895 0.0
C380 C 0.52182 0.29386 0.52289 0.0
C381 C 0.55133 0.28376 0.51963 0.0
C382 C 0.57144 0.3044 0.51296 0.0
H383 H 0.5278 0.3663 0.50974 0.0
O384 O 0.56339 0.36598 0.46347 0.0
O385 O 0.59215 0.35176 0.48259 0.0
O386 O 0.57976 0.41645 0.48235 0.0
O387 O 0.57505 0.39478 0.50519 0.0
C388 C 0.56183 0.25428 0.52308 0.0
C389 C 0.59196 0.24586 0.51958 0.0
H390 H 0.65167 0.23829 0.51159 0.0
H391 H 0.68449 0.27887 0.50088 0.0
H392 H 0.49034 0.3314 0.52139 0.0
H393 H 0.50565 0.27907 0.52846 0.0
H394 H 0.54691 0.23786 0.52839 0.0
H395 H 0.59963 0.22303 0.52212 0.0
Mn396 Mn 0.37583 0.84946 0.2165 0.0
Mn397 Mn 0.40767 0.84314 0.25114 0.0
C398 C 0.41517 0.81522 0.22054 0.0
C399 C 0.37225 0.8697 0.19213 0.0
C400 C 0.3476 0.8143 0.24316 0.0
O401 O 0.36204 0.88886 0.22683 0.0
O402 O 0.38328 0.88086 0.24966 0.0
C403 C 0.4496 0.89547 0.24829 0.0
N404 N 0.44501 0.86532 0.25093 0.0
C405 C 0.49863 0.8567 0.25395 0.0
C406 C 0.50393 0.88769 0.25137 0.0
C407 C 0.47929 0.90715 0.24853 0.0
C408 C 0.46852 0.84642 0.25372 0.0
H409 H 0.43079 0.91049 0.24596 0.0
C410 C 0.3672 0.89668 0.24053 0.0
O411 O 0.34925 0.85671 0.19864 0.0
O412 O 0.39689 0.87248 0.20009 0.0
N413 N 0.4322 0.80798 0.25437 0.0
C414 C 0.42319 0.77862 0.25633 0.0
C415 C 0.44517 0.7561 0.25886 0.0
C416 C 0.476 0.76413 0.25949 0.0
C417 C 0.48462 0.79465 0.25812 0.0
C418 C 0.46169 0.81611 0.25571 0.0
H419 H 0.39951 0.77234 0.25565 0.0
O420 O 0.39628 0.8114 0.20946 0.0
O421 O 0.41059 0.83903 0.229 0.0
O422 O 0.34668 0.8247 0.2297 0.0
O423 O 0.3697 0.81922 0.25219 0.0
C424 C 0.51509 0.8045 0.25843 0.0
C425 C 0.52209 0.8355 0.2564 0.0
H426 H 0.52683 0.89673 0.25142 0.0
H427 H 0.4832 0.93107 0.24645 0.0
H428 H 0.43845 0.73255 0.25998 0.0
H429 H 0.49288 0.74658 0.26058 0.0
H430 H 0.5334 0.78841 0.25987 0.0
H431 H 0.54563 0.84271 0.25651 0.0
Mn432 Mn 0.90899 0.38676 0.55558 0.0
Mn433 Mn 0.91305 0.35739 0.52036 0.0
C434 C 0.9437 0.34837 0.55004 0.0
C435 C 0.89077 0.38843 0.58048 0.0
C436 C 0.94199 0.41713 0.52883 0.0
O437 O 0.86846 0.40063 0.5464 0.0
O438 O 0.87547 0.38136 0.52311 0.0
C439 C 0.86119 0.31495 0.52355 0.0
N440 N 0.8909 0.32008 0.52004 0.0
C441 C 0.89756 0.26844 0.51184 0.0
C442 C 0.86702 0.26255 0.51532 0.0
C443 C 0.84883 0.28587 0.52132 0.0
C444 C 0.90881 0.29762 0.5147 0.0
H445 H 0.84701 0.33294 0.52792 0.0
C446 C 0.85993 0.39647 0.53273 0.0
O447 O 0.90288 0.41199 0.57406 0.0
O448 O 0.88777 0.36425 0.57219 0.0
N449 N 0.94781 0.33332 0.51553 0.0
C450 C 0.97673 0.34285 0.51273 0.0
C451 C 0.99756 0.32268 0.50613 0.0
C452 C 0.98829 0.29316 0.50224 0.0
C453 C 0.95853 0.28372 0.50541 0.0
C454 C 0.9388 0.30481 0.51201 0.0
H455 H 0.98364 0.36587 0.51519 0.0
O456 O 0.94797 0.36664 0.56134 0.0
O457 O 0.91897 0.35274 0.54227 0.0
O458 O 0.9322 0.41738 0.54241 0.0
O459 O 0.93683 0.39537 0.51964 0.0
C460 C 0.94745 0.25446 0.50196 0.0
C461 C 0.91715 0.24665 0.50543 0.0
H462 H 0.85729 0.24028 0.51339 0.0
H463 H 0.82525 0.28153 0.52404 0.0
H464 H 0.02053 0.33006 0.50374 0.0
H465 H 0.00422 0.27795 0.49678 0.0
H466 H 0.96205 0.23773 0.49668 0.0
H467 H 0.90903 0.22397 0.5029 0.0
Mn468 Mn 0.36754 0.15074 0.30689 0.0
Mn469 Mn 0.40062 0.15876 0.27263 0.0
C470 C 0.40649 0.18572 0.30354 0.0
C471 C 0.36313 0.12975 0.33107 0.0
C472 C 0.33986 0.18651 0.28029 0.0
O473 O 0.35496 0.11142 0.29613 0.0
O474 O 0.37668 0.12067 0.27354 0.0
C475 C 0.443 0.10677 0.27542 0.0
N476 N 0.43819 0.13698 0.27302 0.0
C477 C 0.49185 0.14635 0.27087 0.0
C478 C 0.49738 0.11532 0.2732 0.0
C479 C 0.47283 0.09545 0.27547 0.0
C480 C 0.46161 0.15626 0.27074 0.0
H481 H 0.42426 0.09143 0.27734 0.0
C482 C 0.36071 0.10417 0.28242 0.0
O483 O 0.34025 0.14251 0.32436 0.0
O484 O 0.38822 0.1276 0.32339 0.0
N485 N 0.42487 0.1943 0.26997 0.0
C486 C 0.41563 0.22362 0.26815 0.0
C487 C 0.43746 0.24648 0.2661 0.0
C488 C 0.46842 0.23884 0.26585 0.0
C489 C 0.47733 0.20838 0.26711 0.0
C490 C 0.45453 0.18656 0.26895 0.0
H491 H 0.39185 0.2296 0.26858 0.0
O492 O 0.38703 0.18892 0.31443 0.0
O493 O 0.40265 0.16212 0.29484 0.0
O494 O 0.33852 0.17544 0.2936 0.0
O495 O 0.36242 0.18232 0.27143 0.0
C496 C 0.50793 0.19892 0.26726 0.0
C497 C 0.51519 0.16793 0.26906 0.0
H498 H 0.52038 0.10656 0.27341 0.0
H499 H 0.4769 0.07149 0.27737 0.0
H500 H 0.43052 0.26998 0.26508 0.0
H501 H 0.48514 0.25663 0.26516 0.0
H502 H 0.52612 0.21528 0.26634 0.0
H503 H 0.53881 0.16102 0.26928 0.0
Mn504 Mn 0.60422 0.61863 0.05983 0.0
Mn505 Mn 0.5979 0.6525 0.02564 0.0
C506 C 0.57027 0.6585 0.05637 0.0
C507 C 0.62436 0.61355 0.08421 0.0
C508 C 0.56856 0.59225 0.03284 0.0
O509 O 0.6435 0.60509 0.04922 0.0
O510 O 0.63533 0.62766 0.02673 0.0
C511 C 0.65067 0.69373 0.02897 0.0
N512 N 0.62047 0.68958 0.02629 0.0
C513 C 0.61244 0.74341 0.02379 0.0
C514 C 0.64349 0.74826 0.02642 0.0
C515 C 0.66268 0.72329 0.02902 0.0
C516 C 0.60183 0.71341 0.02375 0.0
H517 H 0.66548 0.67465 0.0311 0.0
C518 C 0.65115 0.61093 0.03556 0.0
O519 O 0.61127 0.59104 0.07735 0.0
O520 O 0.62743 0.63857 0.07657 0.0
N521 N 0.56299 0.67754 0.02275 0.0
C522 C 0.53354 0.66894 0.02065 0.0
C523 C 0.51128 0.69125 0.01832 0.0
C524 C 0.51965 0.72201 0.018 0.0
C525 C 0.55026 0.73024 0.01946 0.0
C526 C 0.57145 0.70699 0.02168 0.0
H527 H 0.52701 0.6453 0.02108 0.0
O528 O 0.56634 0.63903 0.06719 0.0
O529 O 0.594 0.6542 0.04782 0.0
O530 O 0.57912 0.59039 0.04625 0.0
O531 O 0.57358 0.61487 0.02414 0.0
C532 C 0.56043 0.76061 0.01943 0.0
C533 C 0.5915 0.76719 0.02155 0.0
H534 H 0.65279 0.77105 0.02658 0.0
H535 H 0.68664 0.72685 0.03113 0.0
H536 H 0.48766 0.68484 0.01711 0.0
H537 H 0.5023 0.73914 0.0171 0.0
H538 H 0.54453 0.77914 0.01813 0.0
H539 H 0.59898 0.79064 0.02165 0.0
Mn540 Mn 0.13614 0.85218 0.81021 0.0
Mn541 Mn 0.10434 0.8469 0.77551 0.0
C542 C 0.09681 0.81805 0.80588 0.0
C543 C 0.13956 0.87169 0.83475 0.0
C544 C 0.16445 0.81781 0.7833 0.0
O545 O 0.14991 0.89192 0.80018 0.0
O546 O 0.12875 0.88455 0.77729 0.0
C547 C 0.06247 0.8992 0.77872 0.0
N548 N 0.06703 0.86912 0.77587 0.0
C549 C 0.01341 0.86068 0.77272 0.0
C550 C 0.00815 0.89159 0.77552 0.0
C551 C 0.03281 0.91093 0.77853 0.0
C552 C 0.0435 0.85034 0.77292 0.0
H553 H 0.0813 0.91412 0.78118 0.0
C554 C 0.14477 0.90013 0.78654 0.0
O555 O 0.1626 0.85893 0.82817 0.0
O556 O 0.11496 0.87468 0.82677 0.0
N557 N 0.07977 0.81187 0.772 0.0
C558 C 0.08873 0.78256 0.76981 0.0
C559 C 0.06673 0.76016 0.76706 0.0
C560 C 0.03591 0.76826 0.76645 0.0
C561 C 0.02734 0.79875 0.76808 0.0
C562 C 0.05029 0.82009 0.77069 0.0
H563 H 0.1124 0.77623 0.77046 0.0
O564 O 0.11568 0.81387 0.81694 0.0
O565 O 0.1014 0.84212 0.79761 0.0
O566 O 0.16542 0.82783 0.79683 0.0
O567 O 0.14229 0.82298 0.77432 0.0
C568 C 0.99688 0.80865 0.76782 0.0
C569 C 0.98993 0.83959 0.77008 0.0
H570 H 0.98527 0.90067 0.77551 0.0
H571 H 0.02893 0.9348 0.78078 0.0
H572 H 0.07342 0.73665 0.76574 0.0
H573 H 0.01901 0.75079 0.76516 0.0
H574 H 0.97855 0.79265 0.76623 0.0
H575 H 0.96641 0.84685 0.77 0.0
Mn576 Mn 0.59617 0.88607 0.55706 0.0
Mn577 Mn 0.59019 0.8595 0.52134 0.0
C578 C 0.5591 0.8502 0.55088 0.0
C579 C 0.61445 0.88445 0.58194 0.0
C580 C 0.56659 0.92105 0.53088 0.0
O581 O 0.63759 0.89757 0.548 0.0
O582 O 0.63024 0.87871 0.52461 0.0
C583 C 0.6365 0.81083 0.52325 0.0
N584 N 0.60766 0.81991 0.52001 0.0
C585 C 0.59529 0.77109 0.50947 0.0
C586 C 0.62485 0.76111 0.51273 0.0
C587 C 0.64545 0.78099 0.51978 0.0
C588 C 0.58738 0.80068 0.51369 0.0
H589 H 0.65257 0.82635 0.52832 0.0
C590 C 0.64642 0.8926 0.53443 0.0
O591 O 0.60459 0.90947 0.57596 0.0
O592 O 0.61524 0.86067 0.57325 0.0
N593 N 0.55274 0.84032 0.5161 0.0
C594 C 0.52509 0.8535 0.51386 0.0
C595 C 0.50222 0.8372 0.50634 0.0
C596 C 0.50826 0.80783 0.50092 0.0
C597 C 0.53666 0.79447 0.50366 0.0
C598 C 0.55846 0.81172 0.51132 0.0
H599 H 0.52077 0.87657 0.51742 0.0
O600 O 0.5558 0.86808 0.56243 0.0
O601 O 0.58395 0.85385 0.54315 0.0
O602 O 0.57518 0.9194 0.54461 0.0
O603 O 0.57107 0.89986 0.52132 0.0
C604 C 0.54447 0.76504 0.49875 0.0
C605 C 0.57356 0.7531 0.50193 0.0
H606 H 0.63203 0.73832 0.50978 0.0
H607 H 0.66833 0.77349 0.5223 0.0
H608 H 0.48026 0.84754 0.50438 0.0
H609 H 0.49079 0.7956 0.4948 0.0
H610 H 0.52814 0.75123 0.49269 0.0
H611 H 0.5791 0.73023 0.49833 0.0
Mn612 Mn 0.36727 0.35548 0.80851 0.0
Mn613 Mn 0.39966 0.34829 0.77403 0.0
C614 C 0.40687 0.32137 0.80491 0.0
C615 C 0.36312 0.37695 0.83258 0.0
C616 C 0.3396 0.3193 0.78205 0.0
O617 O 0.35335 0.39431 0.79779 0.0
O618 O 0.3752 0.38604 0.77514 0.0
C619 C 0.44142 0.4008 0.77665 0.0
N620 N 0.43694 0.37056 0.77422 0.0
C621 C 0.49064 0.36199 0.77149 0.0
C622 C 0.49582 0.39307 0.77385 0.0
C623 C 0.47108 0.41256 0.77644 0.0
C624 C 0.46055 0.35164 0.77167 0.0
H625 H 0.42253 0.41585 0.7788 0.0
C626 C 0.35885 0.40195 0.78411 0.0
O627 O 0.34037 0.36338 0.82616 0.0
O628 O 0.38794 0.37938 0.82472 0.0
N629 N 0.42433 0.31309 0.77116 0.0
C630 C 0.41544 0.28364 0.76938 0.0
C631 C 0.43752 0.26111 0.76711 0.0
C632 C 0.46834 0.26921 0.76655 0.0
C633 C 0.47685 0.29979 0.76772 0.0
C634 C 0.45383 0.32126 0.76988 0.0
H635 H 0.39176 0.27733 0.77002 0.0
O636 O 0.38789 0.31786 0.81598 0.0
O637 O 0.40225 0.34484 0.79621 0.0
O638 O 0.33847 0.32998 0.79545 0.0
O639 O 0.36175 0.32423 0.77303 0.0
C640 C 0.50731 0.30971 0.76749 0.0
C641 C 0.51419 0.34078 0.76931 0.0
H642 H 0.51869 0.40217 0.77383 0.0
H643 H 0.47489 0.43655 0.77836 0.0
H644 H 0.43088 0.23751 0.76613 0.0
H645 H 0.48529 0.25167 0.76565 0.0
H646 H 0.52569 0.29363 0.76626 0.0
H647 H 0.53771 0.34805 0.76925 0.0
Mn648 Mn 0.9036 0.12494 0.05624 0.0
Mn649 Mn 0.9094 0.15269 0.02076 0.0
C650 C 0.93949 0.16221 0.0505 0.0
C651 C 0.8852 0.1246 0.08112 0.0
C652 C 0.93671 0.09283 0.03 0.0
O653 O 0.86274 0.1121 0.04701 0.0
O654 O 0.87157 0.12914 0.02346 0.0
C655 C 0.85787 0.19575 0.02313 0.0
N656 N 0.88759 0.19016 0.01985 0.0
C657 C 0.89491 0.2413 1.01101 0.0
C658 C 0.86437 0.24765 0.01426 0.0
C659 C 0.84583 0.22482 0.02046 0.0
C660 C 0.90581 0.21217 0.01429 0.0
H661 H 0.84343 0.17813 0.02766 0.0
C662 C 0.85517 0.11516 0.03314 0.0
O663 O 0.89599 0.1003 0.07483 0.0
O664 O 0.88354 0.14879 0.07274 0.0
N665 N 0.94451 0.17623 0.01589 0.0
C666 C 0.97341 0.16633 0.01342 0.0
C667 C 0.99457 0.18593 1.00665 0.0
C668 C 0.98563 0.21527 1.00227 0.0
C669 C 0.9559 0.22516 1.00515 0.0
C670 C 0.93581 0.20459 1.01189 0.0
H671 H 0.98007 0.14341 0.01626 0.0
O672 O 0.94323 0.14406 0.06191 0.0
O673 O 0.91479 0.15817 0.04266 0.0
O674 O 0.92589 0.09308 0.04338 0.0
O675 O 0.93286 0.11455 0.02064 0.0
C676 C 0.94518 0.25434 1.00127 0.0
C677 C 0.91487 0.26259 1.00445 0.0
H678 H 0.8549 0.26991 1.012 0.0
H679 H 0.82224 0.22952 0.023 0.0
H680 H 0.01751 0.17821 1.00449 0.0
H681 H 1.00177 0.22998 0.99663 0.0
H682 H 0.96006 0.27067 0.99587 0.0
H683 H 0.90702 0.28521 1.00161 0.0
Mn684 Mn 0.13872 0.6559 0.30442 0.0
Mn685 Mn 0.10943 0.66063 0.26923 0.0
C686 C 0.10075 0.69104 0.29905 0.0
C687 C 0.14025 0.63678 0.32908 0.0
C688 C 0.16949 0.68884 0.2778 0.0
O689 O 0.15219 0.61551 0.29511 0.0
O690 O 0.13292 0.62261 0.27183 0.0
C691 C 0.06631 0.60929 0.27223 0.0
N692 N 0.07182 0.63899 0.26886 0.0
C693 C 0.02017 0.64653 0.26085 0.0
C694 C 0.01392 0.61601 0.26419 0.0
C695 C 0.03704 0.59737 0.27002 0.0
C696 C 0.04955 0.65731 0.26367 0.0
H697 H 0.08415 0.59478 0.27648 0.0
C698 C 0.14786 0.60695 0.28147 0.0
O699 O 0.16391 0.64903 0.32281 0.0
O700 O 0.11597 0.63446 0.32081 0.0
N701 N 0.0858 0.6958 0.26458 0.0
C702 C 0.09563 0.72469 0.26198 0.0
C703 C 0.07559 0.746 0.25566 0.0
C704 C 0.04589 0.73722 0.25182 0.0
C705 C 0.03617 0.70745 0.25476 0.0
C706 C 0.05712 0.68726 0.26112 0.0
H707 H 0.11876 0.73125 0.26443 0.0
O708 O 0.11905 0.69492 0.31038 0.0
O709 O 0.10485 0.6664 0.29116 0.0
O710 O 0.16953 0.67902 0.29136 0.0
O711 O 0.14775 0.68392 0.26856 0.0
C712 C 0.00672 0.69684 0.25134 0.0
C713 C 0.99856 0.66656 0.25463 0.0
H714 H 0.99148 0.60662 0.26228 0.0
H715 H 0.03241 0.5738 0.27263 0.0
H716 H 0.0832 0.76896 0.25346 0.0
H717 H 0.03074 0.75353 0.24661 0.0
H718 H 0.99009 0.71182 0.24624 0.0
H719 H 0.97574 0.65881 0.25215 0.0
Mn720 Mn 0.59986 0.12534 0.96865 0.0
Mn721 Mn 0.59487 0.15305 1.00421 0.0
C722 C 0.56522 0.16373 0.97442 0.0
C723 C 0.61811 0.1238 0.94375 0.0
C724 C 0.56597 0.09398 0.99484 0.0
O725 O 0.64018 0.11098 0.97792 0.0
O726 O 0.63221 0.12879 1.00142 0.0
C727 C 0.64726 0.19507 1.00189 0.0
N728 N 0.61743 0.19007 1.00517 0.0
C729 C 0.61114 0.24132 0.01404 0.0
C730 C 0.64181 0.24706 1.01079 0.0
C731 C 0.65988 0.22389 1.00457 0.0
C732 C 0.59966 0.21241 1.01074 0.0
H733 H 0.66134 0.17718 0.99733 0.0
C734 C 0.64807 0.11419 0.99175 0.0
O735 O 0.60594 0.10031 0.95017 0.0
O736 O 0.62129 0.14796 0.95207 0.0
N737 N 0.56026 0.17725 1.00914 0.0
C738 C 0.53121 0.16787 1.01168 0.0
C739 C 0.5105 0.18781 0.01855 0.0
C740 C 0.52003 0.21697 0.02293 0.0
C741 C 0.54989 0.22633 0.01996 0.0
C742 C 0.56953 0.20542 0.01316 0.0
H743 H 0.5241 0.14508 1.00884 0.0
O744 O 0.56103 0.14589 0.96293 0.0
O745 O 0.58975 0.15889 0.98228 0.0
O746 O 0.5764 0.0944 0.98141 0.0
O747 O 0.57064 0.1153 1.00434 0.0
C748 C 0.56118 0.2553 0.02383 0.0
C749 C 0.59163 0.26297 0.02063 0.0
H750 H 0.65173 0.26912 0.01307 0.0
H751 H 0.68356 0.22812 1.00203 0.0
H752 H 0.48746 0.18049 0.02078 0.0
H753 H 0.50425 0.23191 0.02866 0.0
H754 H 0.54664 0.27189 0.02927 0.0
H755 H 0.59993 0.28542 0.02348 0.0
Mn756 Mn 0.13868 0.35173 0.21684 0.0
Mn757 Mn 0.10607 0.34454 0.25127 0.0
C758 C 0.09914 0.31756 0.22039 0.0
C759 C 0.14314 0.37309 0.19275 0.0
C760 C 0.16634 0.31582 0.24337 0.0
O761 O 0.15236 0.39063 0.22756 0.0
O762 O 0.13023 0.38249 0.25015 0.0
C763 C 0.06393 0.39673 0.24857 0.0
N764 N 0.06862 0.36653 0.25103 0.0
C765 C 0.01499 0.35758 0.25378 0.0
C766 C 0.00959 0.38861 0.25139 0.0
C767 C 0.03418 0.40827 0.24877 0.0
C768 C 0.04515 0.34744 0.25359 0.0
H769 H 0.08271 0.4119 0.24641 0.0
C770 C 0.1466 0.39841 0.24119 0.0
O771 O 0.16581 0.35962 0.19929 0.0
O772 O 0.11817 0.37551 0.20051 0.0
N773 N 0.08165 0.30915 0.25413 0.0
C774 C 0.09074 0.27977 0.25591 0.0
C775 C 0.06882 0.25709 0.2582 0.0
C776 C 0.03794 0.26497 0.25878 0.0
C777 C 0.02922 0.29549 0.25758 0.0
C778 C 0.05209 0.31712 0.25541 0.0
H779 H 0.11446 0.27362 0.25527 0.0
O780 O 0.11821 0.31404 0.20935 0.0
O781 O 0.10364 0.34106 0.22908 0.0
O782 O 0.16743 0.32639 0.22995 0.0
O783 O 0.14416 0.32075 0.25237 0.0
C784 C 0.9987 0.30519 0.25783 0.0
C785 C 0.99159 0.33621 0.25599 0.0
H786 H 0.98665 0.39754 0.25141 0.0
H787 H 0.0302 0.43222 0.24683 0.0
H788 H 0.07563 0.23354 0.25918 0.0
H789 H 0.02112 0.24732 0.25971 0.0
H790 H 0.98043 0.28898 0.25908 0.0
H791 H 0.96802 0.34331 0.25606 0.0
Mn792 Mn 0.90458 0.88633 0.47133 0.0
Mn793 Mn 0.90994 0.85622 0.50637 0.0
C794 C 0.93982 0.84817 0.4764 0.0
C795 C 0.88562 0.88891 0.44661 0.0
C796 C 0.93792 0.91648 0.498 0.0
O797 O 0.86422 0.8995 0.4809 0.0
O798 O 0.87191 0.87963 0.504 0.0
C799 C 0.85868 0.81303 0.50334 0.0
N800 N 0.88839 0.81857 0.50665 0.0
C801 C 0.89606 0.7669 0.5146 0.0
C802 C 0.86553 0.7606 0.5113 0.0
C803 C 0.84683 0.78373 0.50552 0.0
C804 C 0.90679 0.7963 0.51179 0.0
H805 H 0.84411 0.83088 0.49914 0.0
C806 C 0.85599 0.89478 0.49456 0.0
O807 O 0.89774 0.91225 0.45321 0.0
O808 O 0.88311 0.86428 0.45463 0.0
N809 N 0.94522 0.83261 0.51082 0.0
C810 C 0.97406 0.84253 0.51346 0.0
C811 C 0.99538 0.82258 0.51983 0.0
C812 C 0.98667 0.79287 0.52367 0.0
C813 C 0.95697 0.78302 0.52067 0.0
C814 C 0.93674 0.80391 0.5143 0.0
H815 H 0.98055 0.86569 0.51103 0.0
O816 O 0.94359 0.86674 0.46516 0.0
O817 O 0.91527 0.8521 0.48438 0.0
O818 O 0.92783 0.91678 0.4845 0.0
O819 O 0.93319 0.89456 0.50716 0.0
C820 C 0.94643 0.75353 0.52408 0.0
C821 C 0.91616 0.74532 0.52079 0.0
H822 H 0.8562 0.73815 0.51321 0.0
H823 H 0.82324 0.77907 0.50295 0.0
H824 H 0.01829 0.83028 0.52208 0.0
H825 H 1.00296 0.77785 0.52899 0.0
H826 H 0.96141 0.73695 0.5292 0.0
H827 H 0.90845 0.72248 0.52328 0.0
Mn828 Mn 0.36391 0.65525 0.71702 0.0
Mn829 Mn 0.39795 0.66131 0.75115 0.0
C830 C 0.40382 0.68908 0.72041 0.0
C831 C 0.35822 0.63488 0.69278 0.0
C832 C 0.33771 0.69076 0.7441 0.0
O833 O 0.35055 0.616 0.72754 0.0
O834 O 0.37301 0.62388 0.75008 0.0
C835 C 0.43892 0.60837 0.74766 0.0
N836 N 0.43494 0.6386 0.75035 0.0
C837 C 0.48885 0.64644 0.75249 0.0
C838 C 0.49353 0.61537 0.74985 0.0
C839 C 0.46844 0.59626 0.74743 0.0
C840 C 0.4589 0.65716 0.75274 0.0
H841 H 0.41976 0.59361 0.74565 0.0
C842 C 0.35639 0.60814 0.74115 0.0
O843 O 0.33591 0.64811 0.69974 0.0
O844 O 0.38354 0.63208 0.70021 0.0
N845 N 0.42319 0.69613 0.75397 0.0
C846 C 0.41476 0.72562 0.7561 0.0
C847 C 0.43723 0.7478 0.75828 0.0
C848 C 0.46797 0.73931 0.7584 0.0
C849 C 0.47603 0.70867 0.75688 0.0
C850 C 0.45264 0.68756 0.75483 0.0
H851 H 0.39114 0.73223 0.75581 0.0
O852 O 0.38423 0.69313 0.70965 0.0
O853 O 0.39955 0.66533 0.72896 0.0
O854 O 0.33587 0.68022 0.7307 0.0
O855 O 0.36036 0.68578 0.75279 0.0
C856 C 0.50636 0.69839 0.75667 0.0
C857 C 0.51277 0.6673 0.75453 0.0
H858 H 0.51629 0.606 0.74953 0.0
H859 H 0.47185 0.57228 0.7453 0.0
H860 H 0.43095 0.77144 0.75953 0.0
H861 H 0.48521 0.75659 0.75922 0.0
H862 H 0.525 0.71421 0.75778 0.0
H863 H 0.53619 0.65974 0.75425 0.0
Mn864 Mn 0.40275 0.12161 0.46716 0.0
Mn865 Mn 0.41006 0.15573 0.50125 0.0
C866 C 0.4373 0.16092 0.47029 0.0
C867 C 0.38161 0.11615 0.44308 0.0
C868 C 0.43869 0.09522 0.49403 0.0
O869 O 0.36375 0.10854 0.47801 0.0
O870 O 0.37219 0.13144 0.50039 0.0
C871 C 0.35792 0.19777 0.49795 0.0
N872 N 0.38808 0.19316 0.50054 0.0
C873 C 0.39711 0.24691 0.5026 0.0
C874 C 0.36611 0.25223 0.50007 0.0
C875 C 0.34643 0.22753 0.49774 0.0
C876 C 0.40718 0.21673 0.50285 0.0
H877 H 0.34275 0.17889 0.49599 0.0
C878 C 0.35621 0.1147 0.49163 0.0
O879 O 0.39486 0.0937 0.44991 0.0
O880 O 0.37917 0.14144 0.45056 0.0
N881 N 0.4454 0.18023 0.50392 0.0
C882 C 0.47472 0.17115 0.50599 0.0
C883 C 0.4974 0.19311 0.5081 0.0
C884 C 0.48959 0.22402 0.5082 0.0
C885 C 0.45912 0.23276 0.50678 0.0
C886 C 0.43747 0.20984 0.50484 0.0
H887 H 0.48083 0.14739 0.50569 0.0
O888 O 0.44058 0.14137 0.45945 0.0
O889 O 0.41371 0.15714 0.47902 0.0
O890 O 0.42797 0.09348 0.48066 0.0
O891 O 0.43384 0.11777 0.5028 0.0
C892 C 0.44951 0.26331 0.50656 0.0
C893 C 0.41852 0.27038 0.50453 0.0
H894 H 0.35722 0.27518 0.49976 0.0
H895 H 0.3225 0.23145 0.49569 0.0
H896 H 0.52092 0.18631 0.50927 0.0
H897 H 0.50728 0.24082 0.50886 0.0
H898 H 0.46577 0.28159 0.50765 0.0
H899 H 0.41147 0.29396 0.50426 0.0
Mn900 Mn 0.64123 0.65122 0.22122 0.0
Mn901 Mn 0.61154 0.65611 0.25637 0.0
C902 C 0.60276 0.68607 0.22645 0.0
C903 C 0.64379 0.63251 0.19644 0.0
C904 C 0.67142 0.68467 0.24786 0.0
O905 O 0.65491 0.61091 0.23068 0.0
O906 O 0.63533 0.61833 0.25387 0.0
C907 C 0.56882 0.60444 0.25338 0.0
N908 N 0.57411 0.63417 0.25676 0.0
C909 C 0.5224 0.64133 0.26478 0.0
C910 C 0.51636 0.61077 0.26143 0.0
C911 C 0.53963 0.59231 0.25559 0.0
C912 C 0.55171 0.65231 0.26198 0.0
H913 H 0.58676 0.59007 0.24911 0.0
C914 C 0.65051 0.6026 0.24436 0.0
O915 O 0.66706 0.64476 0.20304 0.0
O916 O 0.61924 0.62969 0.20449 0.0
N917 N 0.58762 0.69111 0.26097 0.0
C918 C 0.59726 0.72005 0.26359 0.0
C919 C 0.57716 0.74114 0.27004 0.0
C920 C 0.54757 0.73212 0.27394 0.0
C921 C 0.53797 0.70236 0.2709 0.0
C922 C 0.55904 0.68233 0.26451 0.0
H923 H 0.62033 0.72679 0.26111 0.0
O924 O 0.62119 0.69009 0.21518 0.0
O925 O 0.60705 0.66152 0.23439 0.0
O926 O 0.67161 0.67463 0.23435 0.0
O927 O 0.64965 0.67975 0.25708 0.0
C928 C 0.50857 0.69156 0.27428 0.0
C929 C 0.50063 0.66122 0.27098 0.0
H930 H 0.49399 0.60123 0.26332 0.0
H931 H 0.53516 0.56871 0.25296 0.0
H932 H 0.58467 0.76411 0.27232 0.0
H933 H 0.53246 0.74821 0.27935 0.0
H934 H 0.49184 0.70639 0.2794 0.0
H935 H 0.47785 0.65331 0.27344 0.0
Mn936 Mn 0.09886 0.88448 0.97163 0.0
Mn937 Mn 0.09371 0.85499 1.0068 0.0
C938 C 0.06406 0.84601 0.97679 0.0
C939 C 0.11809 0.88694 0.94698 0.0
C940 C 0.06511 0.91476 0.99815 0.0
O941 O 0.13898 0.89824 0.98116 0.0
O942 O 0.13161 0.87874 1.00437 0.0
C943 C 0.14537 0.8122 1.004 0.0
N944 N 0.1156 0.81753 1.00728 0.0
C945 C 0.10823 0.76581 0.01523 0.0
C946 C 0.13883 0.75973 1.01198 0.0
C947 C 0.15741 0.78299 1.00622 0.0
C948 C 0.09734 0.79516 1.01242 0.0
H949 H 0.15983 0.83012 0.99978 0.0
C950 C 0.14732 0.89387 0.99482 0.0
O951 O 0.10558 0.91021 0.95346 0.0
O952 O 0.12073 0.86241 0.95507 0.0
N953 N 0.05862 0.83112 1.0113 0.0
C954 C 0.02962 0.84077 0.01377 0.0
C955 C 0.00837 0.82065 0.02007 0.0
C956 C 0.01728 0.79102 0.02396 0.0
C957 C 0.04711 0.78144 0.0211 0.0
C958 C 0.0673 0.80252 0.01484 0.0
H959 H 0.02295 0.86385 1.01127 0.0
O960 O 0.06015 0.86438 0.96549 0.0
O961 O 0.0885 0.85037 0.98481 0.0
O962 O 0.0752 0.91483 0.98465 0.0
O963 O 0.07009 0.89313 1.00744 0.0
C964 C 0.05781 0.75201 0.02449 0.0
C965 C 0.0882 0.74404 0.02131 0.0
H966 H 0.1483 0.73734 0.01388 0.0
H967 H 0.18105 0.77848 1.00367 0.0
H968 H 0.98534 0.82814 0.02221 0.0
H969 H 1.00101 0.77585 0.0292 0.0
H970 H 0.04283 0.73526 0.02949 0.0
H971 H 0.09602 0.72124 0.02378 0.0
Mn972 Mn 0.87299 0.34956 0.7179 0.0
Mn973 Mn 0.9005 0.346 0.75353 0.0
C974 C 0.91143 0.31524 0.72399 0.0
C975 C 0.87191 0.36766 0.69297 0.0
C976 C 0.84153 0.31649 0.74434 0.0
O977 O 0.85832 0.39 0.72684 0.0
O978 O 0.87631 0.38332 0.75039 0.0
C979 C 0.94258 0.39825 0.75076 0.0
N980 N 0.93755 0.36854 0.75429 0.0
C981 C 0.98886 0.36247 0.76313 0.0
C982 C 0.99462 0.39301 0.75962 0.0
C983 C 0.97143 0.41091 0.7533 0.0
C984 C 0.95991 0.35093 0.75998 0.0
H985 H 0.92469 0.41219 0.74611 0.0
C986 C 0.86162 0.39865 0.74054 0.0
O987 O 0.84834 0.35528 0.69925 0.0
O988 O 0.89587 0.37088 0.70141 0.0
N989 N 0.92467 0.31154 0.75877 0.0
C990 C 0.91529 0.28256 0.76153 0.0
C991 C 0.9353 0.26203 0.76847 0.0
C992 C 0.96452 0.27165 0.7727 0.0
C993 C 0.97386 0.30142 0.76952 0.0
C994 C 0.95289 0.32089 0.76265 0.0
H995 H 0.89248 0.27539 0.75879 0.0
O996 O 0.89378 0.31072 0.71246 0.0
O997 O 0.90642 0.33998 0.73167 0.0
O998 O 0.84202 0.32622 0.73076 0.0
O999 O 0.86271 0.32182 0.75383 0.0
C1000 C 1.00287 0.31279 0.77325 0.0
C1001 C 0.01054 0.34314 0.7698 0.0
H1002 H 0.01671 0.40297 0.76177 0.0
H1003 H 0.97569 0.4345 0.75055 0.0
H1004 H 0.928 0.23905 0.77087 0.0
H1005 H 0.97954 0.25601 0.77849 0.0
H1006 H 0.0195 0.2984 0.77874 0.0
H1007 H 0.03303 0.35149 0.77255 0.0
Mn1008 Mn 0.40708 0.88482 0.0551 0.0
Mn1009 Mn 0.41228 0.85548 0.01991 0.0
C1010 C 0.44234 0.84681 0.04983 0.0
C1011 C 0.38861 0.8876 0.07988 0.0
C1012 C 0.43991 0.91566 0.02847 0.0
O1013 O 0.36654 0.89781 0.04575 0.0
O1014 O 0.37413 0.87878 0.02245 0.0
C1015 C 0.36116 0.81204 0.02274 0.0
N1016 N 0.39085 0.81775 0.01943 0.0
C1017 C 0.39873 0.76624 1.01126 0.0
C1018 C 0.36824 0.75976 0.01456 0.0
C1019 C 0.34943 0.78272 0.02043 0.0
C1020 C 0.40931 0.79566 0.01416 0.0
H1021 H 0.34653 0.82974 0.02703 0.0
C1022 C 0.35822 0.89353 0.03207 0.0
O1023 O 0.4004 0.91088 0.0731 0.0
O1024 O 0.38615 0.86276 0.07201 0.0
N1025 N 0.44762 0.83206 0.01533 0.0
C1026 C 0.47651 0.84205 0.01287 0.0
C1027 C 0.49796 0.82225 1.00649 0.0
C1028 C 0.48936 0.79259 1.00249 0.0
C1029 C 0.45963 0.78265 1.00534 0.0
C1030 C 0.43925 0.80341 1.0117 0.0
H1031 H 0.48294 0.86516 0.01544 0.0
O1032 O 0.44628 0.86539 0.06105 0.0
O1033 O 0.4177 0.85079 0.04191 0.0
O1034 O 0.42982 0.9155 0.04196 0.0
O1035 O 0.43544 0.89392 0.0192 0.0
C1036 C 0.44923 0.75315 1.00185 0.0
C1037 C 0.41896 0.7448 1.00506 0.0
H1038 H 0.359 0.73729 1.01259 0.0
H1039 H 0.32587 0.77791 0.02301 0.0
H1040 H 0.52091 0.83001 1.00437 0.0
H1041 H 0.50578 0.77765 0.9972 0.0
H1042 H 0.46436 0.73665 0.99676 0.0
H1043 H 0.41137 0.72194 1.00252 0.0
Mn1044 Mn 0.87033 0.65474 0.8043 0.0
Mn1045 Mn 0.8994 0.66067 0.76905 0.0
C1046 C 0.90883 0.68961 0.79918 0.0
C1047 C 0.86797 0.63519 0.82892 0.0
C1048 C 0.83983 0.68922 0.77804 0.0
O1049 O 0.85637 0.6148 0.79458 0.0
O1050 O 0.87547 0.62289 0.77135 0.0
C1051 C 0.94189 0.60867 0.77147 0.0
N1052 N 0.93672 0.63854 0.76835 0.0
C1053 C 0.98839 0.64571 0.76027 0.0
C1054 C 0.9943 0.61501 0.76336 0.0
C1055 C 0.97099 0.59647 0.7691 0.0
C1056 C 0.95916 0.65674 0.76323 0.0
H1057 H 0.92392 0.59425 0.77567 0.0
C1058 C 0.86047 0.60688 0.78082 0.0
O1059 O 0.8447 0.64778 0.8225 0.0
O1060 O 0.89244 0.63258 0.82078 0.0
N1061 N 0.92346 0.69568 0.76465 0.0
C1062 C 0.91395 0.72476 0.7623 0.0
C1063 C 0.93411 0.74597 0.756 0.0
C1064 C 0.96363 0.73693 0.75197 0.0
C1065 C 0.97309 0.70702 0.75472 0.0
C1066 C 0.95196 0.68688 0.76097 0.0
H1067 H 0.89094 0.73154 0.76489 0.0
O1068 O 0.89061 0.69333 0.81056 0.0
O1069 O 0.90432 0.66534 0.79106 0.0
O1070 O 0.83989 0.67868 0.79146 0.0
O1071 O 0.86138 0.68455 0.76867 0.0
C1072 C 1.00241 0.69619 0.75119 0.0
C1073 C 0.01021 0.6657 0.75421 0.0
H1074 H 0.01661 0.60543 0.76133 0.0
H1075 H 0.97537 0.57277 0.77151 0.0
H1076 H 0.92672 0.76906 0.75393 0.0
H1077 H 0.97879 0.75313 0.74666 0.0
H1078 H 0.01917 0.71112 0.74616 0.0
H1079 H 0.03293 0.65777 0.75162 0.0
Mn1080 Mn 0.10339 0.11887 0.55881 0.0
Mn1081 Mn 0.09612 0.15245 0.52462 0.0
C1082 C 0.06902 0.15832 0.55553 0.0
C1083 C 0.12431 0.11335 0.58296 0.0
C1084 C 0.06724 0.0922 0.53206 0.0
O1085 O 0.14252 0.1058 0.54809 0.0
O1086 O 0.13366 0.12767 0.52551 0.0
C1087 C 0.14897 0.1937 0.52765 0.0
N1088 N 0.1187 0.18954 0.52515 0.0
C1089 C 0.11055 0.24341 0.52295 0.0
C1090 C 0.14165 0.24825 0.52539 0.0
C1091 C 0.16095 0.22327 0.52775 0.0
C1092 C 0.09998 0.21339 0.52281 0.0
H1093 H 0.16387 0.17462 0.52962 0.0
C1094 C 0.14982 0.11137 0.53437 0.0
O1095 O 0.11118 0.09094 0.57604 0.0
O1096 O 0.12672 0.13873 0.57553 0.0
N1097 N 0.06115 0.17749 0.5219 0.0
C1098 C 0.03168 0.16888 0.51989 0.0
C1099 C 0.00936 0.19121 0.51771 0.0
C1100 C 0.01769 0.22199 0.51751 0.0
C1101 C 0.0483 0.23023 0.51891 0.0
C1102 C 0.06956 0.20697 0.52089 0.0
H1103 H 0.02518 0.14524 0.52026 0.0
O1104 O 0.06548 0.1388 0.56637 0.0
O1105 O 0.09264 0.15431 0.54685 0.0
O1106 O 0.07836 0.09052 0.54535 0.0
O1107 O 0.07174 0.11478 0.52327 0.0
C1108 C 0.05841 0.26062 0.51905 0.0
C1109 C 0.08951 0.2672 0.521 0.0
H1110 H 0.15092 0.27106 0.52561 0.0
H1111 H 0.18496 0.22682 0.52972 0.0
H1112 H 0.98573 0.18478 0.51656 0.0
H1113 H 1.00031 0.23911 0.51677 0.0
H1114 H 0.04245 0.27915 0.51798 0.0
H1115 H 0.09695 0.29067 0.52121 0.0
Mn1116 Mn 0.63584 0.34508 0.30689 0.0
Mn1117 Mn 0.60677 0.34287 0.27154 0.0
C1118 C 0.59672 0.31142 0.30097 0.0
C1119 C 0.6383 0.36261 0.33191 0.0
C1120 C 0.66557 0.31211 0.2799 0.0
O1121 O 0.65084 0.3855 0.29804 0.0
O1122 O 0.63178 0.37964 0.27464 0.0
C1123 C 0.56577 0.39575 0.27518 0.0
N1124 N 0.57009 0.36606 0.27138 0.0
C1125 C 0.51829 0.36115 0.26312 0.0
C1126 C 0.51324 0.39168 0.26691 0.0
C1127 C 0.53704 0.40899 0.27308 0.0
C1128 C 0.54715 0.34899 0.26587 0.0
H1129 H 0.58413 0.40925 0.2797 0.0
C1130 C 0.64716 0.39448 0.28441 0.0
O1131 O 0.66138 0.34998 0.32531 0.0
O1132 O 0.61403 0.36638 0.32375 0.0
N1133 N 0.58178 0.309 0.26631 0.0
C1134 C 0.59062 0.28006 0.26306 0.0
C1135 C 0.57002 0.26017 0.2561 0.0
C1136 C 0.54075 0.27039 0.25233 0.0
C1137 C 0.53199 0.30012 0.25599 0.0
C1138 C 0.55354 0.31894 0.26287 0.0
H1139 H 0.61346 0.27244 0.26543 0.0
O1140 O 0.6147 0.30643 0.31232 0.0
O1141 O 0.60171 0.3363 0.2934 0.0
O1142 O 0.66583 0.32155 0.29354 0.0
O1143 O 0.6441 0.31804 0.27066 0.0
C1144 C 0.50302 0.31211 0.25268 0.0
C1145 C 0.496 0.34243 0.2565 0.0
H1146 H 0.49125 0.4021 0.26507 0.0
H1147 H 0.53334 0.43257 0.27603 0.0
H1148 H 0.57689 0.23722 0.25332 0.0
H1149 H 0.52526 0.25524 0.24652 0.0
H1150 H 0.48594 0.29824 0.24719 0.0
H1151 H 0.47356 0.35128 0.25405 0.0
H1152 H 0.96578 0.58569 0.02025 0.0
H1153 H 0.03734 0.42201 1.0026 0.0
H1154 H 0.9525 0.53781 0.97812 0.0
H1155 H 0.05036 0.47017 0.04467 0.0
H1156 H 0.00619 0.46409 0.99343 0.0
H1157 H 0.99678 0.54352 0.02933 0.0
C1158 C 0.96931 0.56633 0.01289 0.0
C1159 C 0.95638 0.5654 0.99837 0.0
C1160 C 0.01587 0.46544 1.00467 0.0
C1161 C 0.99204 0.51688 1.00877 0.0
C1162 C 0.03371 0.44139 1.00992 0.0
C1163 C 0.04662 0.44245 0.02445 0.0
C1164 C 0.01083 0.49082 0.01397 0.0
C1165 C 0.04095 0.46824 0.0334 0.0
C1166 C 0.98708 0.54222 0.0181 0.0
C1167 C 0.96193 0.53963 0.98938 0.0
N1168 N 0.02353 0.49134 0.02802 0.0
N1169 N 0.97931 0.51644 0.99473 0.0
H1170 H 0.72361 0.69879 0.23231 0.0
H1171 H 0.79284 0.80065 0.29897 0.0
H1172 H 0.67893 0.71336 0.27521 0.0
H1173 H 0.83889 0.78466 0.25656 0.0
H1174 H 0.75097 0.7688 0.29037 0.0
H1175 H 0.76597 0.73014 0.24094 0.0
C1176 C 0.72266 0.70852 0.24355 0.0
C1177 C 0.69755 0.70333 0.25303 0.0
C1178 C 0.77023 0.77224 0.28294 0.0
C1179 C 0.74615 0.73939 0.26297 0.0
C1180 C 0.79422 0.79048 0.28784 0.0
C1181 C 0.81955 0.79548 0.27848 0.0
C1182 C 0.77141 0.75881 0.26855 0.0
C1183 C 0.81988 0.78157 0.26417 0.0
C1184 C 0.74691 0.72644 0.24847 0.0
C1185 C 0.69775 0.71661 0.26749 0.0
N1186 N 0.79619 0.76391 0.25965 0.0
N1187 N 0.72161 0.73402 0.27199 0.0
H1188 H 0.55465 0.46812 0.48024 0.0
H1189 H 0.45443 0.53766 0.54751 0.0
H1190 H 0.54235 0.42418 0.5235 0.0
H1191 H 0.46776 0.58228 0.5045 0.0
H1192 H 0.4863 0.49576 0.53883 0.0
H1193 H 0.52281 0.51007 0.48891 0.0
C1194 C 0.54534 0.46726 0.49157 0.0
C1195 C 0.5513 0.44248 0.50114 0.0
C1196 C 0.48223 0.51471 0.53129 0.0
C1197 C 0.51465 0.49057 0.51113 0.0
C1198 C 0.46397 0.53869 0.53623 0.0
C1199 C 0.4583 0.56365 0.52674 0.0
C1200 C 0.49498 0.5156 0.51673 0.0
C1201 C 0.47139 0.56357 0.51224 0.0
C1202 C 0.52712 0.49127 0.49651 0.0
C1203 C 0.53851 0.44276 0.51571 0.0
N1204 N 0.4891 0.53996 0.5077 0.0
N1205 N 0.5208 0.46637 0.52024 0.0
H1206 H 0.79048 0.30132 0.72812 0.0
H1207 H 0.71549 0.20495 0.7953 0.0
H1208 H 0.83231 0.28906 0.77188 0.0
H1209 H 0.67297 0.21809 0.75177 0.0
H1210 H 0.75857 0.23538 0.78683 0.0
H1211 H 0.74747 0.27063 0.7365 0.0
C1212 C 0.79068 0.29222 0.73949 0.0
C1213 C 0.81516 0.29791 0.7493 0.0
C1214 C 0.73983 0.2316 0.77912 0.0
C1215 C 0.76579 0.2626 0.75898 0.0
C1216 C 0.71515 0.21418 0.78395 0.0
C1217 C 0.69044 0.20884 0.77425 0.0
C1218 C 0.73993 0.24386 0.76446 0.0
C1219 C 0.69145 0.22149 0.75966 0.0
C1220 C 0.76605 0.27466 0.74427 0.0
C1221 C 0.814 0.28541 0.76391 0.0
N1222 N 0.71575 0.23838 0.75523 0.0
N1223 N 0.78976 0.26838 0.76829 0.0
H1224 H 0.96946 0.42436 0.5012 0.0
H1225 H 0.04092 0.58726 0.52064 0.0
H1226 H 0.95719 0.46939 0.54418 0.0
H1227 H 0.05382 0.5407 0.47811 0.0
H1228 H 0.01011 0.5446 0.52951 0.0
H1229 H 1.00018 0.46708 0.49262 0.0
C1230 C 0.97314 0.44323 0.50885 0.0
C1231 C 0.96058 0.44318 0.52346 0.0
C1232 C 0.01972 0.54373 0.51824 0.0
C1233 C 0.99599 0.49237 0.51364 0.0
C1234 C 0.03737 0.5681 0.51316 0.0
C1235 C 0.05011 0.56767 0.49858 0.0
C1236 C 0.01469 0.5187 0.5087 0.0
C1237 C 0.04455 0.54216 0.48943 0.0
C1238 C 0.99077 0.46766 0.50393 0.0
C1239 C 0.96634 0.46835 0.53283 0.0
N1240 N 0.02729 0.51879 0.49463 0.0
N1241 N 0.98359 0.4919 0.52776 0.0
H1242 H 0.71447 0.80554 0.72897 0.0
H1243 H 0.78846 0.70316 0.79421 0.0
H1244 H 0.6723 0.78906 0.77232 0.0
H1245 H 0.83126 0.71873 0.75093 0.0
H1246 H 0.74588 0.73475 0.78629 0.0
H1247 H 0.75755 0.77419 0.73676 0.0
C1248 C 0.71423 0.79542 0.74014 0.0
C1249 C 0.6896 0.80006 0.75 0.0
C1250 C 0.76456 0.73126 0.77851 0.0
C1251 C 0.73898 0.764 0.75897 0.0
C1252 C 0.78896 0.71317 0.78302 0.0
C1253 C 0.81361 0.70815 0.77323 0.0
C1254 C 0.76465 0.74458 0.76408 0.0
C1255 C 0.81279 0.72184 0.75887 0.0
C1256 C 0.73888 0.77748 0.74457 0.0
C1257 C 0.6907 0.78626 0.76432 0.0
N1258 N 0.78875 0.73941 0.75474 0.0
N1259 N 0.71491 0.76889 0.76835 0.0
H1260 H 0.46787 0.42399 0.02283 0.0
H1261 H 0.53988 0.58755 1.00533 0.0
H1262 H 0.45464 0.47228 0.98081 0.0
H1263 H 0.55336 0.53905 0.04726 0.0
H1264 H 0.50857 0.54561 0.99618 0.0
H1265 H 0.49917 0.46594 0.03196 0.0
C1266 C 0.47147 0.44339 0.01551 0.0
C1267 C 0.45847 0.4445 1.001 0.0
C1268 C 0.51839 0.54414 1.00738 0.0
C1269 C 0.49446 0.49275 1.01144 0.0
C1270 C 0.53633 0.56811 1.01263 0.0
C1271 C 0.54941 0.56693 0.02711 0.0
C1272 C 0.51341 0.5187 0.01666 0.0
C1273 C 0.54382 0.54108 0.03603 0.0
C1274 C 0.48941 0.46736 0.02074 0.0
C1275 C 0.46413 0.47031 0.99206 0.0
N1276 N 0.52628 0.51804 0.03066 0.0
N1277 N 0.48166 0.49336 0.99742 0.0
H1278 H 0.83423 0.21166 0.27338 0.0
H1279 H 0.6731 0.28484 0.25217 0.0
H1280 H 0.79063 0.19923 0.23006 0.0
H1281 H 0.71693 0.29574 0.29553 0.0
H1282 H 0.71571 0.25344 0.24382 0.0
H1283 H 0.79121 0.24231 0.28161 0.0
C1284 C 0.81561 0.21527 0.26558 0.0
C1285 C 0.81617 0.20273 0.25097 0.0
C1286 C 0.71599 0.26271 0.25516 0.0
C1287 C 0.76664 0.23809 0.26039 0.0
C1288 C 0.69165 0.28071 0.25994 0.0
C1289 C 0.69134 0.29309 0.2746 0.0
C1290 C 0.74027 0.257 0.26507 0.0
C1291 C 0.71607 0.28677 0.28415 0.0
C1292 C 0.791 0.23286 0.27031 0.0
C1293 C 0.79127 0.20837 0.24141 0.0
N1294 N 0.73947 0.26922 0.27921 0.0
N1295 N 0.76756 0.22564 0.24629 0.0
H1296 H 0.28709 0.30478 0.79722 0.0
H1297 H 0.21944 0.20334 0.72998 0.0
H1298 H 0.33338 0.28994 0.75477 0.0
H1299 H 0.17285 0.21871 0.7723 0.0
H1300 H 0.26134 0.23489 0.73889 0.0
H1301 H 0.24518 0.27325 0.7883 0.0
C1302 C 0.28851 0.29492 0.78602 0.0
C1303 C 0.31393 0.30014 0.77674 0.0
C1304 C 0.24196 0.23136 0.74623 0.0
C1305 C 0.26577 0.26386 0.76645 0.0
C1306 C 0.21795 0.21331 0.74115 0.0
C1307 C 0.19246 0.20823 0.75039 0.0
C1308 C 0.2406 0.24454 0.76068 0.0
C1309 C 0.19198 0.22186 0.76476 0.0
C1310 C 0.26449 0.27689 0.78093 0.0
C1311 C 0.31431 0.28667 0.76233 0.0
N1312 N 0.21566 0.23935 0.76945 0.0
N1313 N 0.29063 0.26918 0.75765 0.0
H1314 H 0.17745 0.71633 0.25021 0.0
H1315 H 0.34051 0.78614 0.27071 0.0
H1316 H 0.22164 0.70329 0.29334 0.0
H1317 H 0.29543 0.79948 0.22783 0.0
H1318 H 0.29745 0.7555 0.27919 0.0
H1319 H 0.22074 0.74656 0.24183 0.0
C1320 C 0.19624 0.71973 0.25793 0.0
C1321 C 0.1958 0.70712 0.27253 0.0
C1322 C 0.297 0.76515 0.26792 0.0
C1323 C 0.2456 0.74192 0.26295 0.0
C1324 C 0.3216 0.78269 0.26306 0.0
C1325 C 0.32169 0.79553 0.24851 0.0
C1326 C 0.27223 0.76035 0.25819 0.0
C1327 C 0.29648 0.79011 0.23913 0.0
C1328 C 0.22099 0.73707 0.25313 0.0
C1329 C 0.22088 0.7125 0.282 0.0
N1330 N 0.27284 0.77298 0.24413 0.0
N1331 N 0.24472 0.72947 0.27705 0.0
H1332 H 0.28699 0.20019 0.29533 0.0
H1333 H 0.21889 0.30155 0.22821 0.0
H1334 H 0.33359 0.21611 0.25306 0.0
H1335 H 0.17269 0.28647 0.27066 0.0
H1336 H 0.2609 0.27015 0.23709 0.0
H1337 H 0.2449 0.23148 0.28644 0.0
C1338 C 0.28844 0.21021 0.28417 0.0
C1339 C 0.314 0.20538 0.27494 0.0
C1340 C 0.24159 0.27371 0.24447 0.0
C1341 C 0.26563 0.2414 0.26468 0.0
C1342 C 0.21751 0.29167 0.2394 0.0
C1343 C 0.19208 0.29678 0.24869 0.0
C1344 C 0.24038 0.26064 0.25894 0.0
C1345 C 0.19177 0.28329 0.26309 0.0
C1346 C 0.26432 0.22812 0.2791 0.0
C1347 C 0.31441 0.21907 0.26059 0.0
N1348 N 0.21551 0.26586 0.26776 0.0
N1349 N 0.29062 0.23643 0.25591 0.0
H1350 H 0.21719 0.80295 0.79823 0.0
H1351 H 0.28488 0.70585 0.72943 0.0
H1352 H 0.17087 0.79003 0.75565 0.0
H1353 H 0.3321 0.71904 0.77174 0.0
H1354 H 0.24305 0.73668 0.73892 0.0
H1355 H 0.25941 0.77233 0.78881 0.0
C1356 C 0.21582 0.79371 0.7869 0.0
C1357 C 0.19031 0.7992 0.77773 0.0
C1358 C 0.26255 0.73285 0.74614 0.0
C1359 C 0.23878 0.76399 0.76687 0.0
C1360 C 0.28654 0.7152 0.74072 0.0
C1361 C 0.31219 0.7097 0.74979 0.0
C1362 C 0.26405 0.74521 0.76076 0.0
C1363 C 0.31284 0.72255 0.76434 0.0
C1364 C 0.24001 0.77621 0.78153 0.0
C1365 C 0.19 0.78654 0.76314 0.0
N1366 N 0.28915 0.73967 0.76936 0.0
N1367 N 0.21382 0.76957 0.75819 0.0
H1368 H 0.55045 0.97199 0.54721 0.0
H1369 H 0.45576 0.04394 0.47868 0.0
H1370 H 0.54321 0.93197 0.50275 0.0
H1371 H 0.46612 0.08872 0.52185 0.0
H1372 H 0.48779 1.00271 0.48766 0.0
H1373 H 0.51994 0.01509 0.53842 0.0
C1374 C 0.54262 0.97228 0.53561 0.0
C1375 C 0.54945 0.94819 0.52573 0.0
C1376 C 0.48311 0.02154 0.49519 0.0
C1377 C 0.51441 0.99737 0.51565 0.0
C1378 C 0.46472 0.04515 0.49007 0.0
C1379 C 0.45808 0.06993 0.49951 0.0
C1380 C 0.49505 0.02249 0.50991 0.0
C1381 C 0.47053 0.07009 0.51416 0.0
C1382 C 0.52517 0.99688 0.5306 0.0
C1383 C 0.53861 0.94989 0.51081 0.0
N1384 N 0.48837 0.04671 0.51892 0.0
N1385 N 0.52161 0.97393 0.50627 0.0
H1386 H 0.03655 0.92286 0.02553 0.0
H1387 H 0.9653 0.08403 1.00277 0.0
H1388 H 0.05041 0.96626 0.98226 0.0
H1389 H 0.95061 0.04117 0.04612 0.0
H1390 H 0.99639 0.04086 0.99513 0.0
H1391 H 0.00508 0.96584 0.03334 0.0
C1392 C 0.03308 0.94141 0.01767 0.0
C1393 C 0.04627 0.94085 1.0032 0.0
C1394 C 0.98634 0.04085 1.00631 0.0
C1395 C 0.0101 0.99018 1.01209 0.0
C1396 C 0.9685 0.06554 1.0107 0.0
C1397 C 0.95519 0.06634 0.02514 0.0
C1398 C 0.99103 0.01667 0.01641 0.0
C1399 C 0.96034 0.04162 0.03488 0.0
C1400 C 0.01504 0.96595 0.02214 0.0
C1401 C 0.04079 0.96558 0.99352 0.0
N1402 N 0.97785 0.01784 0.03034 0.0
N1403 N 0.02316 0.98917 0.99814 0.0
H1404 H 0.55201 0.04285 0.97845 0.0
H1405 H 0.45316 0.96734 0.0445 0.0
H1406 H 0.53723 0.08464 0.02204 0.0
H1407 H 0.46824 0.92484 1.0011 0.0
H1408 H 0.48355 0.01059 0.03632 0.0
H1409 H 0.52117 0.99967 0.98644 0.0
C1410 C 0.54232 0.04301 0.9897 0.0
C1411 C 0.54734 0.06753 0.99958 0.0
C1412 C 0.48021 0.99183 0.02857 0.0
C1413 C 0.51188 0.01795 1.00879 0.0
C1414 C 0.4628 0.96705 0.03323 0.0
C1415 C 0.45804 0.94228 0.02348 0.0
C1416 C 0.49305 0.99199 0.01404 0.0
C1417 C 0.4712 0.94337 1.00901 0.0
C1418 C 0.52468 0.01828 0.99425 0.0
C1419 C 0.53411 0.0663 0.01403 0.0
N1420 N 0.4881 0.96779 1.00474 0.0
N1421 N 0.51701 0.04196 0.01818 0.0
H1422 H 0.03748 0.08635 0.50483 0.0
H1423 H 0.96638 0.92381 0.52539 0.0
H1424 H 0.05277 0.03969 0.54713 0.0
H1425 H 0.95211 0.96882 0.48256 0.0
H1426 H 0.9975 0.96658 0.53359 0.0
H1427 H 0.00568 0.04396 0.49651 0.0
C1428 C 0.03423 0.06724 0.51237 0.0
C1429 C 0.04795 0.06668 0.52672 0.0
C1430 C 0.98754 0.96713 0.5224 0.0
C1431 C 0.01144 0.01804 0.51724 0.0
C1432 C 0.96968 0.94268 0.5177 0.0
C1433 C 0.9565 0.9426 0.50324 0.0
C1434 C 0.99234 0.9918 0.51261 0.0
C1435 C 0.96177 0.96779 0.4938 0.0
C1436 C 0.01602 0.04303 0.50761 0.0
C1437 C 0.04275 0.04124 0.53598 0.0
N1438 N 0.97926 0.99132 0.49865 0.0
N1439 N 0.02496 0.01802 0.53109 0.0
H1440 H 0.9211 0.22052 0.04548 0.0
H1441 H 0.08767 0.29231 0.05483 0.0
H1442 H 1.00095 0.16655 0.0539 0.0
H1443 H 0.00584 0.34583 0.05333 0.0
H1444 H 0.0568 0.24586 0.05402 0.0
H1445 H 0.95235 0.26657 0.04643 0.0
C1446 C 0.94538 0.21837 0.04716 0.0
C1447 C 0.95865 0.1897 0.04919 0.0
C1448 C 0.04553 0.26772 0.05383 0.0
C1449 C 0.99438 0.24233 0.0511 0.0
C1450 C 0.06316 0.29418 0.05419 0.0
C1451 C 0.04921 0.32277 0.05345 0.0
C1452 C 0.01374 0.26995 0.05265 0.0
C1453 C 0.0174 0.32411 0.0534 0.0
C1454 C 0.96314 0.24467 0.04797 0.0
C1455 C 0.98997 0.18825 0.05206 0.0
N1456 N 1.00072 0.29809 0.05272 0.0
N1457 N 0.00679 0.21417 0.0529 0.0
H1458 H 0.09749 0.75252 0.30129 0.0
H1459 H 0.91536 0.75531 0.30673 0.0
H1460 H 0.04175 0.67286 0.2957 0.0
H1461 H 0.97071 0.83597 0.30677 0.0
H1462 H 0.96159 0.7242 0.3047 0.0
H1463 H 0.05146 0.7834 0.30402 0.0
C1464 C 0.07546 0.74167 0.30036 0.0
C1465 C 0.07332 0.71027 0.29794 0.0
C1466 C 0.96367 0.7487 0.30516 0.0
C1467 C 0.02055 0.74513 0.30169 0.0
C1468 C 0.93733 0.76639 0.30632 0.0
C1469 C 0.93935 0.79816 0.30615 0.0
C1470 C 0.99221 0.76298 0.30419 0.0
C1471 C 0.96826 0.81151 0.30623 0.0
C1472 C 0.04921 0.75922 0.30205 0.0
C1473 C 0.04432 0.69716 0.29713 0.0
N1474 N 0.99357 0.79389 0.30511 0.0
N1475 N 0.01905 0.71461 0.29907 0.0
H1476 H 0.50008 0.66305 0.55702 0.0
H1477 H 0.49778 0.84545 0.55455 0.0
H1478 H 0.41755 0.71551 0.55583 0.0
H1479 H 0.57799 0.79197 0.54612 0.0
H1480 H 0.46815 0.79844 0.55702 0.0
H1481 H 0.52963 0.71047 0.55631 0.0
C1482 C 0.48826 0.68463 0.55662 0.0
C1483 C 0.4565 0.68555 0.55568 0.0
C1484 C 0.49218 0.79697 0.55449 0.0
C1485 C 0.48985 0.73971 0.55525 0.0
C1486 C 0.50898 0.82377 0.55295 0.0
C1487 C 0.54017 0.82254 0.54977 0.0
C1488 C 0.50685 0.76869 0.55323 0.0
C1489 C 0.5538 0.79391 0.54811 0.0
C1490 C 0.50506 0.71165 0.55623 0.0
C1491 C 0.44211 0.71396 0.55584 0.0
N1492 N 0.53711 0.76812 0.54993 0.0
N1493 N 0.45887 0.73994 0.55547 0.0
H1494 H 0.53631 0.17403 0.79586 0.0
H1495 H 0.4655 0.34108 0.80523 0.0
H1496 H 0.5907 0.25405 0.80313 0.0
H1497 H 0.41147 0.25954 0.80464 0.0
H1498 H 0.51172 0.30996 0.80397 0.0
H1499 H 0.49032 0.2054 0.79711 0.0
C1500 C 0.53855 0.19835 0.79734 0.0
C1501 C 0.56731 0.21164 0.79898 0.0
C1502 C 0.4898 0.2988 0.80408 0.0
C1503 C 0.51482 0.24751 0.80123 0.0
C1504 C 0.46347 0.31657 0.8047 0.0
C1505 C 0.43478 0.30278 0.80435 0.0
C1506 C 0.48735 0.267 0.80303 0.0
C1507 C 0.43326 0.27096 0.80442 0.0
C1508 C 0.5123 0.21618 0.79833 0.0
C1509 C 0.56892 0.24304 0.80159 0.0
N1510 N 0.45916 0.25412 0.80348 0.0
N1511 N 0.54308 0.25991 0.80262 0.0
H1512 H 1.00137 0.84524 0.47413 0.0
H1513 H 0.00574 0.6629 0.47057 0.0
H1514 H 0.92205 0.78907 0.47982 0.0
H1515 H 0.08577 0.71906 0.46893 0.0
H1516 H 0.97425 0.70886 0.47257 0.0
H1517 H 0.03266 0.79935 0.47195 0.0
C1518 C 0.99067 0.82316 0.47517 0.0
C1519 C 0.95925 0.82086 0.47749 0.0
C1520 C 0.9987 0.71118 0.47179 0.0
C1521 C 0.9946 0.76822 0.47441 0.0
C1522 C 0.0166 0.68499 0.47066 0.0
C1523 C 0.04836 0.68733 0.47034 0.0
C1524 C 0.0127 0.73992 0.47224 0.0
C1525 C 0.06138 0.71637 0.46985 0.0
C1526 C 0.00846 0.79698 0.47382 0.0
C1527 C 0.94634 0.79178 0.47846 0.0
N1528 N 0.04354 0.74154 0.47094 0.0
N1529 N 0.96404 0.76659 0.47686 0.0
H1530 H 0.53491 0.83441 0.73042 0.0
H1531 H 0.4622 0.66878 0.71915 0.0
H1532 H 0.58844 0.75462 0.72117 0.0
H1533 H 0.40911 0.75086 0.72108 0.0
H1534 H 0.50881 0.69936 0.72023 0.0
H1535 H 0.48866 0.80355 0.72891 0.0
C1536 C 0.53692 0.81021 0.72845 0.0
C1537 C 0.56553 0.79684 0.72634 0.0
C1538 C 0.48701 0.71075 0.72044 0.0
C1539 C 0.51267 0.76161 0.72377 0.0
C1540 C 0.46046 0.69329 0.71992 0.0
C1541 C 0.43194 0.70737 0.72071 0.0
C1542 C 0.48495 0.74251 0.72187 0.0
C1543 C 0.43077 0.73919 0.72095 0.0
C1544 C 0.5105 0.79269 0.72731 0.0
C1545 C 0.5668 0.76566 0.72309 0.0
N1546 N 0.45689 0.7557 0.72182 0.0
N1547 N 0.54077 0.74909 0.72193 0.0
H1548 H 0.58408 0.22192 0.97959 0.0
H1549 H 0.41754 0.29424 0.97086 0.0
H1550 H 0.50378 0.16842 0.97147 0.0
H1551 H 0.49942 0.34769 0.9723 0.0
H1552 H 0.44834 0.24777 0.97166 0.0
H1553 H 0.553 0.26814 0.97892 0.0
C1554 C 0.55976 0.21991 0.97803 0.0
C1555 C 0.5463 0.19133 0.97599 0.0
C1556 C 0.45965 0.26962 0.97184 0.0
C1557 C 0.51076 0.24413 0.97442 0.0
C1558 C 0.44206 0.29608 0.97149 0.0
C1559 C 0.45603 0.32466 0.9722 0.0
C1560 C 0.49146 0.2718 0.97298 0.0
C1561 C 0.48785 0.32597 0.97224 0.0
C1562 C 0.54209 0.24631 0.97739 0.0
C1563 C 0.51492 0.19005 0.97331 0.0
N1564 N 0.50451 0.29993 0.97291 0.0
N1565 N 0.4982 0.21604 0.97263 0.0
H1566 H 0.04048 0.3372 0.22003 0.0
H1567 H 0.97012 0.17002 0.22943 0.0
H1568 H 0.09462 0.25574 0.22064 0.0
H1569 H 0.9154 0.24981 0.22212 0.0
H1570 H 0.01596 0.20154 0.22817 0.0
H1571 H 0.99429 0.30601 0.22129 0.0
C1572 C 0.04254 0.31269 0.22056 0.0
C1573 C 0.07125 0.29894 0.22091 0.0
C1574 C 0.99395 0.21225 0.22695 0.0
C1575 C 0.01873 0.26309 0.22223 0.0
C1576 C 0.96777 0.19433 0.22794 0.0
C1577 C 0.93896 0.20751 0.2263 0.0
C1578 C 0.99131 0.24355 0.22403 0.0
C1579 C 0.93723 0.23889 0.22367 0.0
C1580 C 0.01624 0.29489 0.22118 0.0
C1581 C 0.07282 0.26714 0.22085 0.0
N1582 N 0.96301 0.25586 0.22263 0.0
N1583 N 0.04695 0.25026 0.22178 0.0
H1584 H 0.91662 0.71633 0.96894 0.0
H1585 H 0.08279 0.78744 0.98105 0.0
H1586 H 0.9982 0.66243 0.97048 0.0
H1587 H 1.00277 0.84164 0.97341 0.0
H1588 H 0.05179 0.74132 0.97893 0.0
H1589 H 0.94755 0.76257 0.97072 0.0
C1590 C 0.9411 0.71434 0.96977 0.0
C1591 C 0.95492 0.68568 0.97026 0.0
C1592 C 0.04092 0.76328 0.97783 0.0
C1593 C 0.9905 0.73828 0.97221 0.0
C1594 C 0.05853 0.78959 0.97932 0.0
C1595 C 0.04512 0.81833 0.97782 0.0
C1596 C 0.00975 0.76575 0.97454 0.0
C1597 C 0.01385 0.81986 0.97487 0.0
C1598 C 0.95878 0.74068 0.97069 0.0
C1599 C 0.98673 0.6842 0.97058 0.0
N1600 N 0.99722 0.79398 0.97334 0.0
N1601 N 0.00347 0.71012 0.97183 0.0
H1602 H 0.96969 0.33417 0.72897 0.0
H1603 H 0.04141 0.16714 0.72129 0.0
H1604 H 0.91594 0.25373 0.72165 0.0
H1605 H 0.0952 0.24885 0.72189 0.0
H1606 H 0.99508 0.19815 0.72199 0.0
H1607 H 0.01586 0.30295 0.7284 0.0
C1608 C 0.96762 0.3098 0.72762 0.0
C1609 C 0.93898 0.29634 0.72577 0.0
C1610 C 0.01697 0.20938 0.72201 0.0
C1611 C 0.9917 0.26064 0.7243 0.0
C1612 C 0.04336 0.19167 0.72171 0.0
C1613 C 0.072 0.20555 0.72221 0.0
C1614 C 0.01929 0.24121 0.7229 0.0
C1615 C 0.07344 0.23736 0.72199 0.0
C1616 C 0.99397 0.29205 0.72703 0.0
C1617 C 0.93761 0.26487 0.72335 0.0
N1618 N 0.04746 0.25415 0.72262 0.0
N1619 N 0.96355 0.24809 0.72271 0.0
H1620 H 0.50571 0.3456 0.47323 0.0
H1621 H 0.49918 0.16334 0.47041 0.0
H1622 H 0.58454 0.28857 0.47845 0.0
H1623 H 0.41962 0.22024 0.4697 0.0
H1624 H 0.5312 0.20899 0.47182 0.0
H1625 H 0.47378 0.30006 0.47157 0.0
C1626 C 0.51617 0.32341 0.47428 0.0
C1627 C 0.54764 0.32075 0.4763 0.0
C1628 C 0.50675 0.21155 0.47137 0.0
C1629 C 0.51155 0.26853 0.47381 0.0
C1630 C 0.48853 0.18554 0.47058 0.0
C1631 C 0.4568 0.18819 0.47071 0.0
C1632 C 0.49305 0.24042 0.47194 0.0
C1633 C 0.44402 0.21734 0.4703 0.0
C1634 C 0.49801 0.29743 0.47322 0.0
C1635 C 0.56023 0.29155 0.47731 0.0
N1636 N 0.46216 0.24234 0.47106 0.0
N1637 N 0.54218 0.26655 0.47599 0.0
H1638 H 0.47387 0.83472 0.2203 0.0
H1639 H 0.54409 0.66764 0.23068 0.0
H1640 H 0.41956 0.75337 0.22123 0.0
H1641 H 0.59875 0.74752 0.2235 0.0
H1642 H 0.49817 0.69907 0.22914 0.0
H1643 H 0.51996 0.80349 0.22192 0.0
C1644 C 0.47174 0.81023 0.22098 0.0
C1645 C 0.443 0.79654 0.22131 0.0
C1646 C 0.52019 0.70981 0.22802 0.0
C1647 C 0.49544 0.76063 0.22306 0.0
C1648 C 0.5464 0.69194 0.22916 0.0
C1649 C 0.57521 0.70518 0.22763 0.0
C1650 C 0.52282 0.7411 0.22505 0.0
C1651 C 0.57692 0.73655 0.22496 0.0
C1652 C 0.498 0.79239 0.22181 0.0
C1653 C 0.44137 0.76473 0.22145 0.0
N1654 N 0.55113 0.75345 0.22377 0.0
N1655 N 0.46721 0.74783 0.22259 0.0
H1656 H 0.00524 0.3446 0.55192 0.0
H1657 H 0.00712 0.16224 0.55551 0.0
H1658 H 0.92506 0.28955 0.54655 0.0
H1659 H 0.08806 0.21718 0.55605 0.0
H1660 H 0.97624 0.20868 0.55392 0.0
H1661 H 0.03593 0.29829 0.55393 0.0
C1662 C 0.99423 0.32268 0.5509 0.0
C1663 C 0.96273 0.32082 0.54873 0.0
C1664 C 1.00075 0.21063 0.55438 0.0
C1665 C 0.9974 0.26769 0.55165 0.0
C1666 C 0.01831 0.18416 0.55528 0.0
C1667 C 0.0501 0.18603 0.55515 0.0
C1668 C 0.01516 0.23914 0.5537 0.0
C1669 C 0.06359 0.21487 0.55547 0.0
C1670 C 0.01167 0.29626 0.55217 0.0
C1671 C 0.94941 0.29192 0.5478 0.0
N1672 N 0.04608 0.2403 0.5546 0.0
N1673 N 0.96678 0.26648 0.54932 0.0
H1674 H 0.4103 0.24765 0.30381 0.0
H1675 H 0.59279 0.24981 0.3018 0.0
H1676 H 0.46539 0.16682 0.30401 0.0
H1677 H 0.538 0.3304 0.29739 0.0
H1678 H 0.5464 0.21903 0.30277 0.0
H1679 H 0.45672 0.27867 0.30271 0.0
C1680 C 0.43225 0.23651 0.30359 0.0
C1681 C 0.43416 0.20473 0.30326 0.0
C1682 C 0.54444 0.24341 0.30145 0.0
C1683 C 0.48727 0.23983 0.30239 0.0
C1684 C 0.57091 0.26092 0.30079 0.0
C1685 C 0.56915 0.29255 0.29918 0.0
C1686 C 0.5159 0.25772 0.30088 0.0
C1687 C 0.5403 0.30596 0.29822 0.0
C1688 C 0.45871 0.25416 0.30297 0.0
C1689 C 0.46303 0.1913 0.30359 0.0
N1690 N 0.51479 0.28851 0.29914 0.0
N1691 N 0.48845 0.20888 0.30302 0.0
H1692 H 0.42379 0.78821 0.04549 0.0
H1693 H 0.59003 0.71709 0.05729 0.0
H1694 H 0.50365 0.84249 0.05339 0.0
H1695 H 0.50843 0.66322 0.05571 0.0
H1696 H 0.55907 0.76337 0.0558 0.0
H1697 H 0.45485 0.74214 0.04755 0.0
C1698 C 0.44803 0.7904 0.04727 0.0
C1699 C 0.46137 0.81916 0.04886 0.0
C1700 C 0.54785 0.74148 0.05576 0.0
C1701 C 0.49683 0.76659 0.05207 0.0
C1702 C 0.56554 0.71511 0.05652 0.0
C1703 C 0.55172 0.68645 0.05592 0.0
C1704 C 0.51611 0.7391 0.05429 0.0
C1705 C 0.51991 0.68499 0.05568 0.0
C1706 C 0.46567 0.76411 0.04873 0.0
C1707 C 0.49262 0.82071 0.05188 0.0
N1708 N 0.50316 0.71093 0.05458 0.0
N1709 N 0.5093 0.79483 0.05336 0.0
H1710 H 0.96739 0.67116 0.79462 0.0
H1711 H 0.03817 0.83769 0.80625 0.0
H1712 H 0.91303 0.75095 0.80256 0.0
H1713 H 0.09224 0.75622 0.80471 0.0
H1714 H 0.99199 0.80665 0.80436 0.0
H1715 H 0.01342 0.70242 0.7963 0.0
C1716 C 0.96517 0.69542 0.79634 0.0
C1717 C 0.93641 0.70868 0.79805 0.0
C1718 C 0.01392 0.79549 0.80439 0.0
C1719 C 0.98893 0.74438 0.80079 0.0
C1720 C 0.04022 0.81321 0.80538 0.0
C1721 C 0.06892 0.79946 0.80496 0.0
C1722 C 0.01638 0.76376 0.80291 0.0
C1723 C 0.07046 0.76765 0.80457 0.0
C1724 C 0.99144 0.71318 0.79757 0.0
C1725 C 0.93482 0.73997 0.80096 0.0
N1726 N 0.04458 0.75087 0.80329 0.0
N1727 N 0.96067 0.75676 0.80223 0.0
H1728 H 0.34065 0.40966 0.02195 0.0
H1729 H 0.16435 0.40767 1.00359 0.0
H1730 H 0.30474 0.41416 0.97661 0.0
H1731 H 0.20011 0.41354 0.04892 0.0
H1732 H 0.2151 0.4168 0.99356 0.0
H1733 H 0.28971 0.41789 0.03196 0.0
C1734 C 0.32206 0.41283 0.01407 0.0
C1735 C 0.32693 0.41082 0.99839 0.0
C1736 C 0.21188 0.41655 1.0057 0.0
C1737 C 0.26826 0.4199 1.00986 0.0
C1738 C 0.18286 0.4113 1.01146 0.0
C1739 C 0.17801 0.40943 0.02715 0.0
C1740 C 0.2365 0.41958 0.01566 0.0
C1741 C 0.2028 0.4147 0.03676 0.0
C1742 C 0.29294 0.41756 0.01982 0.0
C1743 C 0.30204 0.41547 0.98876 0.0
N1744 N 0.23108 0.41904 0.03086 0.0
N1745 N 0.27368 0.41928 0.99466 0.0
H1746 H 0.84701 0.08896 0.27033 0.0
H1747 H 0.8552 0.91078 0.25553 0.0
H1748 H 0.85812 0.0494 0.22604 0.0
H1749 H 0.84916 0.9508 0.29997 0.0
H1750 H 0.84687 0.96061 0.2443 0.0
H1751 H 0.83825 0.03854 0.2808 0.0
C1752 C 0.84716 0.06963 0.26274 0.0
C1753 C 0.85374 0.07339 0.24729 0.0
C1754 C 0.84695 0.95853 0.2565 0.0
C1755 C 0.844 0.01527 0.25933 0.0
C1756 C 0.8517 0.93003 0.26297 0.0
C1757 C 0.85335 0.92661 0.27877 0.0
C1758 C 0.84399 0.98406 0.26586 0.0
C1759 C 0.84818 0.95233 0.28777 0.0
C1760 C 0.84217 0.0408 0.26876 0.0
C1761 C 0.85321 0.04757 0.238 0.0
N1762 N 0.84418 0.98006 0.28118 0.0
N1763 N 0.84892 0.01952 0.24421 0.0
H1764 H 0.20281 0.60238 0.4729 0.0
H1765 H 0.30612 0.59534 0.5476 0.0
H1766 H 0.1673 0.60347 0.51838 0.0
H1767 H 0.34118 0.61156 0.50273 0.0
H1768 H 0.25552 0.58733 0.53666 0.0
H1769 H 0.25399 0.59459 0.48326 0.0
C1770 C 0.20567 0.60034 0.48502 0.0
C1771 C 0.18081 0.60398 0.49479 0.0
C1772 C 0.27441 0.5923 0.52921 0.0
C1773 C 0.23918 0.5953 0.50673 0.0
C1774 C 0.30332 0.59673 0.53545 0.0
C1775 C 0.32788 0.60456 0.52611 0.0
C1776 C 0.27009 0.59552 0.51351 0.0
C1777 C 0.32284 0.60606 0.51042 0.0
C1778 C 0.23489 0.59611 0.49095 0.0
C1779 C 0.18588 0.60126 0.51043 0.0
N1780 N 0.29455 0.60184 0.50464 0.0
N1781 N 0.21445 0.59736 0.5159 0.0
H1782 H 0.65739 0.09301 0.7542 0.0
H1783 H 0.65354 0.91557 0.77175 0.0
H1784 H 0.65198 0.05579 0.79925 0.0
H1785 H 0.65101 0.95302 0.72667 0.0
H1786 H 0.66263 0.96618 0.78188 0.0
H1787 H 0.66492 0.04205 0.74415 0.0
C1788 C 0.65825 0.0741 0.76204 0.0
C1789 C 0.65361 0.07867 0.77761 0.0
C1790 C 0.66047 0.96338 0.76976 0.0
C1791 C 0.66196 0.01995 0.76605 0.0
C1792 C 0.65527 0.93443 0.76392 0.0
C1793 C 0.65102 0.93002 0.7483 0.0
C1794 C 0.66132 0.98839 0.75997 0.0
C1795 C 0.65401 0.95531 0.73876 0.0
C1796 C 0.66251 0.04496 0.75625 0.0
C1797 C 0.65539 0.05335 0.78719 0.0
N1798 N 0.65855 0.98348 0.74477 0.0
N1799 N 0.65897 0.02499 0.78123 0.0
H1800 H 0.70378 0.59568 0.05079 0.0
H1801 H 0.80213 0.59651 0.97444 0.0
H1802 H 0.66543 0.60151 1.00599 0.0
H1803 H 0.84058 0.59935 0.01929 0.0
H1804 H 0.75183 0.5879 0.98571 0.0
H1805 H 0.75389 0.58661 0.03942 0.0
C1806 C 0.70577 0.59443 0.0386 0.0
C1807 C 0.68046 0.59983 0.02935 0.0
C1808 C 0.77139 0.58996 0.99307 0.0
C1809 C 0.73764 0.58976 0.01623 0.0
C1810 C 0.80011 0.59467 0.98661 0.0
C1811 C 0.82551 0.59911 0.99592 0.0
C1812 C 0.76814 0.58959 1.00892 0.0
C1813 C 0.82153 0.59658 1.01166 0.0
C1814 C 0.73439 0.58944 0.03209 0.0
C1815 C 0.68441 0.59801 0.01358 0.0
N1816 N 0.79343 0.59234 0.01765 0.0
N1817 N 0.71242 0.59347 1.00754 0.0
H1818 H 0.15817 0.95204 0.80275 0.0
H1819 H 0.16324 0.05452 0.72779 0.0
H1820 H 0.15582 0.91624 0.75734 0.0
H1821 H 0.1537 0.0905 0.77294 0.0
H1822 H 0.1713 0.00385 0.73865 0.0
H1823 H 0.16727 1.00291 0.79226 0.0
C1824 C 0.16019 0.95475 0.79061 0.0
C1825 C 0.1558 0.92992 0.78091 0.0
C1826 C 0.16786 0.02295 0.74618 0.0
C1827 C 0.16594 0.98797 0.76882 0.0
C1828 C 0.16343 0.05191 0.73997 0.0
C1829 C 0.15734 0.07674 0.74944 0.0
C1830 C 0.16628 0.01885 0.76196 0.0
C1831 C 0.15781 0.07194 0.76517 0.0
C1832 C 0.16519 0.98381 0.78461 0.0
C1833 C 0.15857 0.93481 0.76525 0.0
N1834 N 0.16185 0.04359 0.77091 0.0
N1835 N 0.16314 0.96322 0.75971 0.0
H1836 H 0.80827 0.40861 0.54942 0.0
H1837 H 0.70334 0.40795 0.47543 0.0
H1838 H 0.84291 0.40846 0.50376 0.0
H1839 H 0.66885 0.40596 0.52111 0.0
H1840 H 0.75447 0.41723 0.48555 0.0
H1841 H 0.75696 0.41685 0.53932 0.0
C1842 C 0.8052 0.41095 0.53732 0.0
C1843 C 0.82985 0.40736 0.52743 0.0
C1844 C 0.7356 0.41517 0.49334 0.0
C1845 C 0.77128 0.41638 0.51576 0.0
C1846 C 0.70639 0.41004 0.48754 0.0
C1847 C 0.68185 0.40567 0.49742 0.0
C1848 C 0.74021 0.41596 0.50911 0.0
C1849 C 0.68718 0.4086 0.51305 0.0
C1850 C 0.77589 0.41545 0.53153 0.0
C1851 C 0.82449 0.41053 0.51182 0.0
N1852 N 0.71573 0.4132 0.51839 0.0
N1853 N 0.79585 0.41447 0.50648 0.0
H1854 H 0.3517 0.08891 0.2529 0.0
H1855 H 0.35598 0.91173 0.26986 0.0
H1856 H 0.34815 0.05121 0.2979 0.0
H1857 H 0.35338 0.94906 0.22477 0.0
H1858 H 0.346 0.96207 0.28016 0.0
H1859 H 0.34508 0.03814 0.24242 0.0
C1860 C 0.34907 0.06996 0.26061 0.0
C1861 C 0.35087 0.07432 0.27634 0.0
C1862 C 0.34718 0.9593 0.268 0.0
C1863 C 0.34362 0.01581 0.26431 0.0
C1864 C 0.35292 0.93051 0.26209 0.0
C1865 C 0.35593 0.92619 0.2464 0.0
C1866 C 0.34474 0.98426 0.25822 0.0
C1867 C 0.35133 0.95132 0.23692 0.0
C1868 C 0.34529 0.04092 0.25458 0.0
C1869 C 0.34696 0.04893 0.28573 0.0
N1870 N 0.34644 0.97938 0.24299 0.0
N1871 N 0.344 0.0207 0.27956 0.0
H1872 H 0.80457 0.90817 0.47797 0.0
H1873 H 0.6979 0.90403 0.55146 0.0
H1874 H 0.83836 0.90393 0.52373 0.0
H1875 H 0.66472 0.90314 0.50553 0.0
H1876 H 0.74946 0.91287 0.54171 0.0
H1877 H 0.75311 0.91555 0.488 0.0
C1878 C 0.80128 0.90939 0.49009 0.0
C1879 C 0.82575 0.90495 0.5 0.0
C1880 C 0.73077 0.91109 0.5338 0.0
C1881 C 0.76699 0.913 0.51159 0.0
C1882 C 0.70135 0.90616 0.53938 0.0
C1883 C 0.67704 0.90231 0.52931 0.0
C1884 C 0.73579 0.91228 0.51806 0.0
C1885 C 0.68285 0.90535 0.51373 0.0
C1886 C 0.77189 0.91341 0.49584 0.0
C1887 C 0.8201 0.90671 0.51565 0.0
N1888 N 0.71156 0.90985 0.50861 0.0
N1889 N 0.79136 0.91023 0.52094 0.0
H1890 H 0.3415 0.55642 0.72521 0.0
H1891 H 0.34253 0.45337 0.79997 0.0
H1892 H 0.34781 0.59195 0.77058 0.0
H1893 H 0.35077 0.4181 0.75462 0.0
H1894 H 0.33307 0.50402 0.78937 0.0
H1895 H 0.33341 0.5055 0.73579 0.0
C1896 C 0.34054 0.55364 0.73737 0.0
C1897 C 0.34578 0.5784 0.74701 0.0
C1898 C 0.33653 0.48507 0.78175 0.0
C1899 C 0.3368 0.52029 0.7592 0.0
C1900 C 0.34177 0.45614 0.78781 0.0
C1901 C 0.34791 0.43154 0.77819 0.0
C1902 C 0.3373 0.48936 0.76597 0.0
C1903 C 0.34666 0.4365 0.76249 0.0
C1904 C 0.33612 0.52455 0.74342 0.0
C1905 C 0.34437 0.57342 0.76271 0.0
N1906 N 0.34181 0.46482 0.75689 0.0
N1907 N 0.34034 0.54497 0.7683 0.0
H1908 H 0.84056 0.10033 1.0042 0.0
H1909 H 0.66266 0.09849 0.02057 0.0
H1910 H 0.80189 0.10504 0.04898 0.0
H1911 H 0.70129 0.10463 0.97583 0.0
H1912 H 0.71323 0.09016 0.03095 0.0
H1913 H 0.79016 0.0913 0.9938 0.0
C1914 C 0.82146 0.09907 1.01191 0.0
C1915 C 0.82545 0.10396 0.0275 0.0
C1916 C 0.7107 0.09289 0.01884 0.0
C1917 C 0.76736 0.09375 0.01554 0.0
C1918 C 0.68179 0.0976 0.01287 0.0
C1919 C 0.67775 0.10273 0.99729 0.0
C1920 C 0.736 0.09342 1.00923 0.0
C1921 C 0.70333 0.10088 0.98789 0.0
C1922 C 0.79264 0.09391 1.00592 0.0
C1923 C 0.7999 0.10154 0.0369 0.0
N1924 N 0.73145 0.09682 0.99404 0.0
N1925 N 0.77185 0.09704 0.03074 0.0
H1926 H 0.15932 0.55575 0.29852 0.0
H1927 H 0.1647 0.449 0.22514 0.0
H1928 H 0.15975 0.58899 0.25261 0.0
H1929 H 0.1521 0.41593 0.27066 0.0
H1930 H 0.17371 0.5 0.23536 0.0
H1931 H 0.16753 0.50411 0.28885 0.0
C1932 C 0.16177 0.5523 0.28645 0.0
C1933 C 0.15839 0.57665 0.27636 0.0
C1934 C 0.16937 0.48146 0.24311 0.0
C1935 C 0.16752 0.51774 0.26521 0.0
C1936 C 0.16438 0.45231 0.23727 0.0
C1937 C 0.15716 0.42822 0.24702 0.0
C1938 C 0.16724 0.4865 0.2588 0.0
C1939 C 0.15706 0.43391 0.26268 0.0
C1940 C 0.16626 0.52281 0.28092 0.0
C1941 C 0.1617 0.57082 0.26081 0.0
N1942 N 0.16167 0.46244 0.26805 0.0
N1943 N 0.16575 0.542 0.25572 0.0
H1944 H 0.16449 0.10104 0.5049 0.0
H1945 H 0.34162 0.10561 0.52121 0.0
H1946 H 0.20268 0.09848 0.54981 0.0
H1947 H 0.3038 0.09945 0.47631 0.0
H1948 H 0.29146 0.09602 0.53183 0.0
H1949 H 0.21504 0.09331 0.49433 0.0
C1950 C 0.1835 0.09839 0.51257 0.0
C1951 C 0.17938 0.10082 0.52829 0.0
C1952 C 0.2941 0.09633 0.51965 0.0
C1953 C 0.2376 0.09232 0.51617 0.0
C1954 C 0.32278 0.10186 0.51355 0.0
C1955 C 0.32687 0.10377 0.49782 0.0
C1956 C 0.26905 0.09303 0.50999 0.0
C1957 C 0.30168 0.09829 0.48849 0.0
C1958 C 0.21241 0.09396 0.5065 0.0
C1959 C 0.2048 0.09684 0.53764 0.0
N1960 N 0.27374 0.09365 0.49472 0.0
N1961 N 0.23291 0.09329 0.53143 0.0
H1962 H 0.65988 0.44557 0.30141 0.0
H1963 H 0.66418 0.5512 0.22776 0.0
H1964 H 0.66089 0.41154 0.25566 0.0
H1965 H 0.66073 0.58532 0.27348 0.0
H1966 H 0.6725 0.49991 0.23784 0.0
H1967 H 0.66975 0.49682 0.29158 0.0
C1968 C 0.66283 0.44875 0.28936 0.0
C1969 C 0.65906 0.42433 0.27935 0.0
C1970 C 0.67036 0.51873 0.24566 0.0
C1971 C 0.66997 0.48281 0.26797 0.0
C1972 C 0.66578 0.54803 0.23988 0.0
C1973 C 0.66124 0.57252 0.24977 0.0
C1974 C 0.67041 0.51396 0.26142 0.0
C1975 C 0.66353 0.56703 0.26541 0.0
C1976 C 0.66827 0.47802 0.28371 0.0
C1977 C 0.66306 0.4298 0.26379 0.0
N1978 N 0.66757 0.53838 0.27073 0.0
N1979 N 0.6679 0.45841 0.25859 0.0
H1980 H 0.16485 0.90514 0.02382 0.0
H1981 H 0.34059 0.90481 1.00309 0.0
H1982 H 0.19873 0.90615 0.97803 0.0
H1983 H 0.30678 0.90562 0.04889 0.0
H1984 H 0.2892 0.91334 0.99383 0.0
H1985 H 0.21629 0.91341 0.03311 0.0
C1986 C 0.1831 0.90752 0.01568 0.0
C1987 C 0.17749 0.90451 1.0001 0.0
C1988 C 0.29297 0.91207 1.00591 0.0
C1989 C 0.23675 0.91372 1.01075 0.0
C1990 C 0.32237 0.90717 1.01124 0.0
C1991 C 0.32799 0.90404 0.02682 0.0
C1992 C 0.26876 0.91359 0.01619 0.0
C1993 C 0.30351 0.90776 0.03681 0.0
C1994 C 0.21252 0.91226 0.02102 0.0
C1995 C 0.20199 0.90822 0.99012 0.0
N1996 N 0.27488 0.91188 0.03131 0.0
N1997 N 0.23063 0.91216 0.99563 0.0
H1998 H 0.85014 0.45005 0.72355 0.0
H1999 H 0.84601 0.55551 0.79727 0.0
H2000 H 0.84779 0.41588 0.76928 0.0
H2001 H 0.8509 0.58975 0.7516 0.0
H2002 H 0.83732 0.50437 0.7871 0.0
H2003 H 0.84103 0.50142 0.73339 0.0
C2004 C 0.84707 0.45323 0.7356 0.0
C2005 C 0.85022 0.42871 0.7456 0.0
C2006 C 0.83987 0.52319 0.77932 0.0
C2007 C 0.84018 0.48734 0.75698 0.0
C2008 C 0.84467 0.55242 0.78514 0.0
C2009 C 0.84969 0.5769 0.7753 0.0
C2010 C 0.84009 0.51847 0.76355 0.0
C2011 C 0.84772 0.57148 0.75964 0.0
C2012 C 0.84206 0.48257 0.74124 0.0
C2013 C 0.84609 0.4342 0.76115 0.0
N2014 N 0.84345 0.54289 0.75428 0.0
N2015 N 0.84167 0.46288 0.76635 0.0
H2016 H 0.1039 0.43807 0.10219 0.0
H2017 H 0.18626 0.35728 0.17198 0.0
H2018 H 0.15877 0.35736 0.09746 0.0
H2019 H 0.10327 0.40866 0.17671 0.0
H2020 H 0.18509 0.36656 0.1447 0.0
H2021 H 0.11238 0.43668 0.12956 0.0
C2022 C 0.11817 0.42035 0.10686 0.0
C2023 C 0.13054 0.39768 0.09754 0.0
C2024 C 0.16734 0.37606 0.15175 0.0
C2025 C 0.14035 0.3961 0.12881 0.0
C2026 C 0.16805 0.37094 0.16733 0.0
C2027 C 0.1447 0.38208 0.17663 0.0
C2028 C 0.14337 0.39281 0.14543 0.0
C2029 C 0.12163 0.39952 0.16994 0.0
C2030 C 0.12282 0.4195 0.12249 0.0
C2031 C 0.14869 0.37519 0.10424 0.0
N2032 N 0.1215 0.40432 0.15474 0.0
N2033 N 0.15302 0.37493 0.11948 0.0
H2034 H 0.8518 0.848 0.43022 0.0
H2035 H 0.90746 0.90832 0.35053 0.0
H2036 H 0.90292 0.93117 0.42569 0.0
H2037 H 0.82642 0.85394 0.35518 0.0
H2038 H 0.90837 0.91523 0.37805 0.0
H2039 H 0.84415 0.84751 0.40272 0.0
C2040 C 0.86115 0.86629 0.42347 0.0
C2041 C 0.87802 0.88964 0.43027 0.0
C2042 C 0.89018 0.9021 0.37301 0.0
C2043 C 0.86988 0.88892 0.39882 0.0
C2044 C 0.88965 0.89817 0.35731 0.0
C2045 C 0.86682 0.88056 0.35054 0.0
C2046 C 0.86813 0.88775 0.38204 0.0
C2047 C 0.84438 0.86781 0.35991 0.0
C2048 C 0.85675 0.86603 0.40779 0.0
C2049 C 0.88968 0.91276 0.42095 0.0
N2050 N 0.84584 0.87128 0.37518 0.0
N2051 N 0.88574 0.9116 0.40571 0.0
H2052 H 0.31182 0.64782 0.67326 0.0
H2053 H 0.34343 0.65613 0.5963 0.0
H2054 H 0.39931 0.6037 0.67528 0.0
H2055 H 0.39315 0.57267 0.60291 0.0
H2056 H 0.33337 0.65811 0.62348 0.0
H2057 H 0.31115 0.64024 0.64588 0.0
C2058 C 0.33078 0.63628 0.66797 0.0
C2059 C 0.35585 0.62669 0.67657 0.0
C2060 C 0.3458 0.63894 0.61895 0.0
C2061 C 0.35544 0.61846 0.64516 0.0
C2062 C 0.3517 0.6379 0.60343 0.0
C2063 C 0.36906 0.61416 0.59732 0.0
C2064 C 0.35772 0.61627 0.62847 0.0
C2065 C 0.37948 0.59129 0.60712 0.0
C2066 C 0.33051 0.63227 0.6523 0.0
C2067 C 0.37967 0.61171 0.66908 0.0
N2068 N 0.3741 0.59319 0.62224 0.0
N2069 N 0.37891 0.60811 0.65379 0.0
H2070 H 0.59372 0.10632 0.84743 0.0
H2071 H 0.65151 0.16513 0.9273 0.0
H2072 H 0.67574 0.15924 0.85201 0.0
H2073 H 0.59922 0.08273 0.92262 0.0
H2074 H 0.65799 0.16647 0.89971 0.0
H2075 H 0.59231 0.10018 0.87502 0.0
C2076 C 0.61156 0.1164 0.85421 0.0
C2077 C 0.63491 0.13324 0.84739 0.0
C2078 C 0.64535 0.14796 0.90477 0.0
C2079 C 0.63308 0.12688 0.87895 0.0
C2080 C 0.64164 0.1472 0.9205 0.0
C2081 C 0.62486 0.12377 0.9273 0.0
C2082 C 0.63161 0.12551 0.89575 0.0
C2083 C 0.61246 0.10117 0.9179 0.0
C2084 C 0.61076 0.11289 0.86995 0.0
C2085 C 0.65739 0.14592 0.85677 0.0
N2086 N 0.61576 0.10279 0.90262 0.0
N2087 N 0.65572 0.14281 0.87205 0.0
H2088 H 0.09847 0.60236 0.34441 0.0
H2089 H 0.10871 0.57063 0.42135 0.0
H2090 H 0.18136 0.65314 0.3508 0.0
H2091 H 0.1513 0.65886 0.42352 0.0
H2092 H 0.1151 0.57087 0.39389 0.0
H2093 H 0.09629 0.59325 0.37169 0.0
C2094 C 0.11646 0.61119 0.35153 0.0
C2095 C 0.1402 0.62841 0.34531 0.0
C2096 C 0.12297 0.59021 0.40036 0.0
C2097 C 0.13791 0.61808 0.37655 0.0
C2098 C 0.11966 0.58996 0.41607 0.0
C2099 C 0.12921 0.61492 0.42475 0.0
C2100 C 0.13607 0.61555 0.39325 0.0
C2101 C 0.14338 0.63925 0.41727 0.0
C2102 C 0.11533 0.6058 0.3671 0.0
C2103 C 0.16276 0.63954 0.35509 0.0
N2104 N 0.14636 0.63897 0.40194 0.0
N2105 N 0.16082 0.63456 0.37025 0.0
H2106 H 0.67457 0.89318 0.67615 0.0
H2107 H 0.60489 0.83592 0.60045 0.0
H2108 H 0.58202 0.86103 0.67571 0.0
H2109 H 0.63692 0.92854 0.60085 0.0
H2110 H 0.60881 0.83475 0.62816 0.0
H2111 H 0.67275 0.89782 0.64835 0.0
C2112 C 0.65383 0.88741 0.67022 0.0
C2113 C 0.62828 0.87701 0.67822 0.0
C2114 C 0.61528 0.85515 0.62211 0.0
C2115 C 0.62661 0.88099 0.64664 0.0
C2116 C 0.61334 0.85578 0.60634 0.0
C2117 C 0.62067 0.88236 0.59837 0.0
C2118 C 0.62551 0.88093 0.62992 0.0
C2119 C 0.63106 0.90762 0.6066 0.0
C2120 C 0.65286 0.89002 0.65443 0.0
C2121 C 0.60205 0.86952 0.66999 0.0
N2122 N 0.63344 0.90625 0.62196 0.0
N2123 N 0.60205 0.87114 0.65463 0.0
H2124 H 0.40305 0.413 0.84827 0.0
H2125 H 0.34582 0.3584 0.92848 0.0
H2126 H 0.32084 0.36067 0.85371 0.0
H2127 H 0.40072 0.43891 0.9231 0.0
H2128 H 0.33721 0.35768 0.9011 0.0
H2129 H 0.40381 0.42201 0.87563 0.0
C2130 C 0.38496 0.40374 0.85519 0.0
C2131 C 0.3619 0.38599 0.8487 0.0
C2132 C 0.35079 0.37574 0.90595 0.0
C2133 C 0.36296 0.3957 0.88 0.0
C2134 C 0.35573 0.37614 0.92156 0.0
C2135 C 0.37405 0.39871 0.92807 0.0
C2136 C 0.36481 0.39767 0.89674 0.0
C2137 C 0.38638 0.42113 0.91857 0.0
C2138 C 0.38539 0.40891 0.87079 0.0
C2139 C 0.33904 0.37452 0.85822 0.0
N2140 N 0.38192 0.41979 0.90336 0.0
N2141 N 0.34039 0.37919 0.8734 0.0
H2142 H 0.9224 0.14363 0.17526 0.0
H2143 H 0.86293 0.07914 0.09925 0.0
H2144 H 0.82856 0.11537 0.17519 0.0
H2145 H 0.89482 0.17176 0.10048 0.0
H2146 H 0.85856 0.0799 0.12708 0.0
H2147 H 0.9226 0.14112 0.14751 0.0
C2148 C 0.90204 0.1363 0.16943 0.0
C2149 C 0.87543 0.12961 0.17752 0.0
C2150 C 0.86621 0.10006 0.12116 0.0
C2151 C 0.87575 0.12637 0.14591 0.0
C2152 C 0.86868 0.09969 0.10536 0.0
C2153 C 0.87896 0.12554 0.09758 0.0
C2154 C 0.87525 0.12602 0.12918 0.0
C2155 C 0.88642 0.1515 0.10603 0.0
C2156 C 0.90213 0.13516 0.15364 0.0
C2157 C 0.84952 0.12069 0.16935 0.0
N2158 N 0.88496 0.15091 0.1214 0.0
N2159 N 0.85036 0.11905 0.15395 0.0
H2160 H 0.90924 0.60135 0.84515 0.0
H2161 H 0.84649 0.65332 0.92509 0.0
H2162 H 0.82544 0.65134 0.84991 0.0
H2163 H 0.90281 0.57371 0.92011 0.0
H2164 H 0.84029 0.65507 0.89755 0.0
H2165 H 0.90956 0.59279 0.8726 0.0
C2166 C 0.89079 0.61027 0.85193 0.0
C2167 C 0.8673 0.6271 0.84522 0.0
C2168 C 0.8537 0.63701 0.90251 0.0
C2169 C 0.86781 0.61789 0.87661 0.0
C2170 C 0.85724 0.636 0.91822 0.0
C2171 C 0.87515 0.61332 0.92492 0.0
C2172 C 0.86875 0.6156 0.89339 0.0
C2173 C 0.88866 0.59151 0.91544 0.0
C2174 C 0.89095 0.60535 0.86759 0.0
C2175 C 0.84397 0.63817 0.85458 0.0
N2176 N 0.88555 0.59343 0.90016 0.0
N2177 N 0.84502 0.63371 0.86979 0.0
H2178 H 0.11367 0.06587 0.60216 0.0
H2179 H 0.1037 0.09447 0.67923 0.0
H2180 H 0.15373 0.15535 0.60073 0.0
H2181 H 0.18504 0.14788 0.67324 0.0
H2182 H 0.10215 0.08561 0.65195 0.0
H2183 H 0.12131 0.06476 0.62951 0.0
C2184 C 0.12433 0.0852 0.60757 0.0
C2185 C 0.13274 0.11093 0.59914 0.0
C2186 C 0.12079 0.09863 0.65662 0.0
C2187 C 0.141 0.10999 0.63054 0.0
C2188 C 0.12156 0.10384 0.6722 0.0
C2189 C 0.14459 0.12183 0.67853 0.0
C2190 C 0.14298 0.11185 0.64726 0.0
C2191 C 0.167 0.13367 0.66886 0.0
C2192 C 0.12837 0.08466 0.62322 0.0
C2193 C 0.14665 0.13518 0.60679 0.0
N2194 N 0.16535 0.1289 0.65367 0.0
N2195 N 0.15027 0.13416 0.62208 0.0
H2196 H 0.6023 0.42808 0.42298 0.0
H2197 H 0.6794 0.34316 0.35294 0.0
H2198 H 0.65355 0.3451 0.42799 0.0
H2199 H 0.59847 0.39771 0.34835 0.0
H2200 H 0.67786 0.35115 0.38033 0.0
H2201 H 0.6086 0.42463 0.39551 0.0
C2202 C 0.61526 0.40935 0.41833 0.0
C2203 C 0.62738 0.38679 0.42782 0.0
C2204 C 0.66057 0.36152 0.37331 0.0
C2205 C 0.63471 0.38284 0.39636 0.0
C2206 C 0.6615 0.35714 0.35766 0.0
C2207 C 0.63896 0.36974 0.34832 0.0
C2208 C 0.63724 0.37907 0.37969 0.0
C2209 C 0.61624 0.3875 0.35511 0.0
C2210 C 0.61865 0.40732 0.40264 0.0
C2211 C 0.64377 0.36295 0.42111 0.0
N2212 N 0.61599 0.3917 0.37038 0.0
N2213 N 0.647 0.36162 0.4058 0.0
H2214 H 0.39919 0.93443 0.09941 0.0
H2215 H 0.41214 0.90548 0.17636 0.0
H2216 H 0.36213 0.84368 0.09778 0.0
H2217 H 0.33137 0.85106 0.17076 0.0
H2218 H 0.41371 0.91342 0.14899 0.0
H2219 H 0.39295 0.93449 0.12682 0.0
C2220 C 0.38954 0.91454 0.10479 0.0
C2221 C 0.38147 0.88884 0.09626 0.0
C2222 C 0.39524 0.90031 0.15377 0.0
C2223 C 0.37476 0.88864 0.12777 0.0
C2224 C 0.39444 0.89564 0.16939 0.0
C2225 C 0.37149 0.87776 0.17586 0.0
C2226 C 0.37315 0.88664 0.1445 0.0
C2227 C 0.34931 0.86526 0.16626 0.0
C2228 C 0.38629 0.91452 0.12049 0.0
C2229 C 0.36887 0.86387 0.10391 0.0
N2230 N 0.35095 0.86955 0.15104 0.0
N2231 N 0.36592 0.86438 0.11925 0.0
H2232 H 0.91334 0.40192 0.67711 0.0
H2233 H 0.85625 0.34742 0.59638 0.0
H2234 H 0.83138 0.34934 0.67143 0.0
H2235 H 0.91001 0.4286 0.60205 0.0
H2236 H 0.84925 0.34511 0.62388 0.0
H2237 H 0.91524 0.40964 0.64962 0.0
C2238 C 0.89563 0.39222 0.67011 0.0
C2239 C 0.87216 0.37498 0.67659 0.0
C2240 C 0.86232 0.36359 0.61908 0.0
C2241 C 0.87452 0.38322 0.64514 0.0
C2242 C 0.86633 0.3649 0.60339 0.0
C2243 C 0.88369 0.38826 0.59689 0.0
C2244 C 0.87631 0.3854 0.62838 0.0
C2245 C 0.89632 0.41027 0.60655 0.0
C2246 C 0.8967 0.39666 0.65443 0.0
C2247 C 0.84983 0.36289 0.66694 0.0
N2248 N 0.89271 0.4081 0.6218 0.0
N2249 N 0.85176 0.36692 0.65172 0.0
H2250 H 0.4031 0.09497 0.34744 0.0
H2251 H 0.34557 0.15483 0.42662 0.0
H2252 H 0.32047 0.14704 0.35179 0.0
H2253 H 0.39908 0.07306 0.42261 0.0
H2254 H 0.33729 0.15401 0.39919 0.0
H2255 H 0.40363 0.08785 0.37495 0.0
C2256 C 0.38487 0.10455 0.35415 0.0
C2257 C 0.36174 0.12165 0.34731 0.0
C2258 C 0.3505 0.13603 0.40436 0.0
C2259 C 0.36256 0.11416 0.37877 0.0
C2260 C 0.35525 0.13651 0.42 0.0
C2261 C 0.37307 0.11401 0.42691 0.0
C2262 C 0.36424 0.11329 0.39554 0.0
C2263 C 0.38512 0.09083 0.41777 0.0
C2264 C 0.38517 0.10047 0.36984 0.0
C2265 C 0.33871 0.13362 0.35658 0.0
N2266 N 0.38088 0.09131 0.40254 0.0
N2267 N 0.33995 0.13005 0.37184 0.0
H2268 H 0.6864 0.6496 0.17566 0.0
H2269 H 0.60489 0.57162 0.10487 0.0
H2270 H 0.60269 0.59921 0.17982 0.0
H2271 H 0.6601 0.65224 0.10087 0.0
H2272 H 0.61197 0.57295 0.13235 0.0
H2273 H 0.68485 0.64207 0.14826 0.0
C2274 C 0.66789 0.63658 0.17085 0.0
C2275 C 0.64455 0.62511 0.18007 0.0
C2276 C 0.62275 0.59015 0.12543 0.0
C2277 C 0.64281 0.61632 0.14867 0.0
C2278 C 0.61893 0.58932 0.10973 0.0
C2279 C 0.63188 0.61192 0.10054 0.0
C2280 C 0.64007 0.61345 0.13198 0.0
C2281 C 0.64964 0.63442 0.10751 0.0
C2282 C 0.66697 0.63246 0.15519 0.0
C2283 C 0.62109 0.60854 0.17315 0.0
N2284 N 0.65323 0.63461 0.12281 0.0
N2285 N 0.62081 0.60463 0.15786 0.0
H2286 H 0.0998 0.90722 0.85081 0.0
H2287 H 0.15239 0.846 0.93086 0.0
H2288 H 0.18013 0.85201 0.85601 0.0
H2289 H 0.10145 0.9292 0.92595 0.0
H2290 H 0.16099 0.84558 0.90342 0.0
H2291 H 0.09791 0.9138 0.87833 0.0
C2292 C 0.11723 0.89679 0.85772 0.0
C2293 C 0.14015 0.87906 0.8511 0.0
C2294 C 0.14822 0.86408 0.9084 0.0
C2295 C 0.13775 0.88592 0.88259 0.0
C2296 C 0.14327 0.8643 0.92404 0.0
C2297 C 0.12617 0.88764 0.93071 0.0
C2298 C 0.13542 0.88701 0.89934 0.0
C2299 C 0.11484 0.91078 0.92132 0.0
C2300 C 0.11616 0.90055 0.87341 0.0
C2301 C 0.16212 0.86598 0.86062 0.0
N2302 N 0.11933 0.90967 0.90611 0.0
N2303 N 0.16014 0.86931 0.87589 0.0
loop_
_geom_bond_atom_site_label_1
_geom_bond_atom_site_label_2
_geom_bond_distance
_geom_bond_site_symmetry_2
_ccdc_geom_bond_type
Mn0 O5 2.095 . S
Mn0 O15 2.162 . S
Mn0 O16 2.297 . S
Mn0 O24 2.385 . S
Mn0 O25 2.209 . S
Mn0 O26 2.094 . S
Mn1 O6 2.121 . S
Mn1 N8 2.266 . S
Mn1 N17 2.282 . S
Mn1 O25 2.215 . S
Mn1 O27 2.117 . S
C2 O24 1.234 . S
C2 O25 1.283 . S
C3 O15 1.281 . S
C3 O16 1.236 . S
C4 O26 1.240 . S
C4 O27 1.264 . S
O5 Mn0 2.095 . S
O5 C14 1.250 . S
O6 Mn1 2.121 . S
O6 C14 1.258 . S
C7 N8 1.324 1_556 S
C7 C11 1.460 . S
C7 H13 0.929 1_556 S
N8 Mn1 2.266 . S
N8 C7 1.324 1_554 S
N8 C12 1.355 1_554 S
C9 C10 1.258 . S
C9 C12 1.431 . S
C9 C29 1.449 . S
C10 C9 1.258 . S
C10 C11 1.477 . S
C10 H30 0.931 . S
C11 C7 1.460 . S
C11 C10 1.477 . S
C11 H31 0.930 . S
C12 N8 1.355 1_556 S
C12 C9 1.431 . S
C12 C22 1.476 . S
H13 C7 0.929 1_554 S
C14 O5 1.250 . S
C14 O6 1.258 . S
O15 Mn0 2.162 . S
O15 C3 1.281 . S
O16 Mn0 2.297 . S
O16 C3 1.236 . S
N17 Mn1 2.282 . S
N17 C18 1.328 . S
N17 C22 1.318 1_554 S
C18 N17 1.328 . S
C18 C19 1.457 1_455 S
C18 H23 0.929 . S
C19 C18 1.457 1_655 S
C19 C20 1.291 1_554 S
C19 H32 0.931 . S
C20 C19 1.291 1_556 S
C20 C21 1.373 1_655 S
C20 H33 0.929 . S
C21 C20 1.373 1_455 S
C21 C22 1.396 . S
C21 C28 1.403 . S
C22 C12 1.476 . S
C22 N17 1.318 1_556 S
C22 C21 1.396 . S
H23 C18 0.929 . S
O24 Mn0 2.385 . S
O24 C2 1.234 . S
O25 Mn0 2.209 . S
O25 Mn1 2.215 . S
O25 C2 1.283 . S
O26 Mn0 2.094 . S
O26 C4 1.240 . S
O27 Mn1 2.117 . S
O27 C4 1.264 . S
C28 C21 1.403 . S
C28 C29 1.399 . S
C28 H34 0.929 . S
C29 C9 1.449 . S
C29 C28 1.399 . S
C29 H35 0.930 . S
H30 C10 0.931 . S
H31 C11 0.930 . S
H32 C19 0.931 . S
H33 C20 0.929 . S
H34 C28 0.929 . S
H35 C29 0.930 . S
Mn36 O41 2.095 . S
Mn36 O51 2.162 . S
Mn36 O52 2.297 . S
Mn36 O60 2.385 . S
Mn36 O61 2.209 . S
Mn36 O62 2.094 . S
Mn37 O42 2.121 . S
Mn37 N44 2.257 . S
Mn37 N53 2.282 . S
Mn37 O61 2.215 . S
Mn37 O63 2.117 . S
C38 O60 1.234 . S
C38 O61 1.283 . S
C39 O51 1.281 . S
C39 O52 1.236 . S
C40 O62 1.240 . S
C40 O63 1.264 . S
O41 Mn36 2.095 . S
O41 C50 1.250 . S
O42 Mn37 2.121 . S
O42 C50 1.258 . S
C43 N44 1.326 . S
C43 C47 1.460 . S
C43 H49 0.929 . S
N44 Mn37 2.257 . S
N44 C43 1.326 . S
N44 C48 1.362 . S
C45 C46 1.258 . S
C45 C48 1.431 . S
C45 C65 1.449 . S
C46 C45 1.258 . S
C46 C47 1.477 . S
C46 H66 0.931 1_655 S
C47 C43 1.460 . S
C47 C46 1.477 . S
C47 H67 0.930 . S
C48 N44 1.362 . S
C48 C45 1.431 . S
C48 C58 1.476 . S
H49 C43 0.929 . S
C50 O41 1.250 . S
C50 O42 1.258 . S
O51 Mn36 2.162 . S
O51 C39 1.281 . S
O52 Mn36 2.297 . S
O52 C39 1.236 . S
N53 Mn37 2.282 . S
N53 C54 1.328 . S
N53 C58 1.318 . S
C54 N53 1.328 . S
C54 C55 1.457 . S
C54 H59 0.929 . S
C55 C54 1.457 . S
C55 C56 1.291 . S
C55 H68 0.931 . S
C56 C55 1.291 . S
C56 C57 1.373 . S
C56 H69 0.929 . S
C57 C56 1.373 . S
C57 C58 1.396 . S
C57 C64 1.403 . S
C58 C48 1.476 . S
C58 N53 1.318 . S
C58 C57 1.396 . S
H59 C54 0.929 . S
O60 Mn36 2.385 . S
O60 C38 1.234 . S
O61 Mn36 2.209 . S
O61 Mn37 2.215 . S
O61 C38 1.283 . S
O62 Mn36 2.094 . S
O62 C40 1.240 . S
O63 Mn37 2.117 . S
O63 C40 1.264 . S
C64 C57 1.403 . S
C64 C65 1.399 . S
C64 H70 0.929 . S
C65 C45 1.449 . S
C65 C64 1.399 . S
C65 H71 0.930 1_655 S
H66 C46 0.931 1_455 S
H67 C47 0.930 . S
H68 C55 0.931 . S
H69 C56 0.929 . S
H70 C64 0.929 . S
H71 C65 0.930 1_455 S
Mn72 O77 2.095 . S
Mn72 O87 2.162 . S
Mn72 O88 2.297 . S
Mn72 O96 2.385 . S
Mn72 O97 2.209 . S
Mn72 O98 2.094 . S
Mn73 O78 2.121 . S
Mn73 N80 2.257 . S
Mn73 N89 2.282 . S
Mn73 O97 2.215 . S
Mn73 O99 2.117 . S
C74 O96 1.234 . S
C74 O97 1.283 . S
C75 O87 1.281 . S
C75 O88 1.236 . S
C76 O98 1.240 . S
C76 O99 1.264 . S
O77 Mn72 2.095 . S
O77 C86 1.250 . S
O78 Mn73 2.121 . S
O78 C86 1.258 . S
C79 N80 1.326 . S
C79 C83 1.460 . S
C79 H85 0.929 . S
N80 Mn73 2.257 . S
N80 C79 1.326 . S
N80 C84 1.362 . S
C81 C82 1.258 . S
C81 C84 1.431 . S
C81 C101 1.449 . S
C82 C81 1.258 . S
C82 C83 1.477 . S
C82 H102 0.931 . S
C83 C79 1.460 . S
C83 C82 1.477 . S
C83 H103 0.930 . S
C84 N80 1.362 . S
C84 C81 1.431 . S
C84 C94 1.476 . S
H85 C79 0.929 . S
C86 O77 1.250 . S
C86 O78 1.258 . S
O87 Mn72 2.162 . S
O87 C75 1.281 . S
O88 Mn72 2.297 . S
O88 C75 1.236 . S
N89 Mn73 2.282 . S
N89 C90 1.328 . S
N89 C94 1.318 . S
C90 N89 1.328 . S
C90 C91 1.457 . S
C90 H95 0.929 . S
C91 C90 1.457 . S
C91 C92 1.291 . S
C91 H104 0.931 . S
C92 C91 1.291 . S
C92 C93 1.373 . S
C92 H105 0.929 . S
C93 C92 1.373 . S
C93 C94 1.396 . S
C93 C100 1.403 . S
C94 C84 1.476 . S
C94 N89 1.318 . S
C94 C93 1.396 . S
H95 C90 0.929 . S
O96 Mn72 2.385 . S
O96 C74 1.234 . S
O97 Mn72 2.209 . S
O97 Mn73 2.215 . S
O97 C74 1.283 . S
O98 Mn72 2.094 . S
O98 C76 1.240 . S
O99 Mn73 2.117 . S
O99 C76 1.264 . S
C100 C93 1.403 . S
C100 C101 1.399 . S
C100 H106 0.929 . S
C101 C81 1.449 . S
C101 C100 1.399 . S
C101 H107 0.930 . S
H102 C82 0.931 . S
H103 C83 0.930 . S
H104 C91 0.931 . S
H105 C92 0.929 . S
H106 C100 0.929 . S
H107 C101 0.930 . S
Mn108 O113 2.095 . S
Mn108 O123 2.162 . S
Mn108 O124 2.297 . S
Mn108 O132 2.385 . S
Mn108 O133 2.209 . S
Mn108 O134 2.094 . S
Mn109 O114 2.121 . S
Mn109 N116 2.257 . S
Mn109 N125 2.282 . S
Mn109 O133 2.215 . S
Mn109 O135 2.117 . S
C110 O132 1.234 . S
C110 O133 1.283 . S
C111 O123 1.281 . S
C111 O124 1.236 . S
C112 O134 1.240 . S
C112 O135 1.264 . S
O113 Mn108 2.095 . S
O113 C122 1.250 . S
O114 Mn109 2.121 . S
O114 C122 1.258 . S
C115 N116 1.326 . S
C115 C119 1.460 . S
C115 H121 0.929 . S
N116 Mn109 2.257 . S
N116 C115 1.326 . S
N116 C120 1.362 . S
C117 C118 1.258 . S
C117 C120 1.431 . S
C117 C137 1.449 . S
C118 C117 1.258 . S
C118 C119 1.477 . S
C118 H138 0.931 . S
C119 C115 1.460 . S
C119 C118 1.477 . S
C119 H139 0.930 . S
C120 N116 1.362 . S
C120 C117 1.431 . S
C120 C130 1.476 . S
H121 C115 0.929 . S
C122 O113 1.250 . S
C122 O114 1.258 . S
O123 Mn108 2.162 . S
O123 C111 1.281 . S
O124 Mn108 2.297 . S
O124 C111 1.236 . S
N125 Mn109 2.282 . S
N125 C126 1.328 . S
N125 C130 1.318 . S
C126 N125 1.328 . S
C126 C127 1.457 . S
C126 H131 0.929 . S
C127 C126 1.457 . S
C127 C128 1.291 . S
C127 H140 0.931 . S
C128 C127 1.291 . S
C128 C129 1.373 . S
C128 H141 0.929 . S
C129 C128 1.373 . S
C129 C130 1.396 . S
C129 C136 1.403 . S
C130 C120 1.476 . S
C130 N125 1.318 . S
C130 C129 1.396 . S
H131 C126 0.929 . S
O132 Mn108 2.385 . S
O132 C110 1.234 . S
O133 Mn108 2.209 . S
O133 Mn109 2.215 . S
O133 C110 1.283 . S
O134 Mn108 2.094 . S
O134 C112 1.240 . S
O135 Mn109 2.117 . S
O135 C112 1.264 . S
C136 C129 1.403 . S
C136 C137 1.399 . S
C136 H142 0.929 . S
C137 C117 1.449 . S
C137 C136 1.399 . S
C137 H143 0.930 . S
H138 C118 0.931 . S
H139 C119 0.930 . S
H140 C127 0.931 . S
H141 C128 0.929 . S
H142 C136 0.929 . S
H143 C137 0.930 . S
Mn144 O149 2.095 . S
Mn144 O159 2.162 . S
Mn144 O160 2.297 . S
Mn144 O168 2.385 . S
Mn144 O169 2.209 . S
Mn144 O170 2.094 . S
Mn145 O150 2.121 . S
Mn145 N152 2.257 . S
Mn145 N161 2.282 . S
Mn145 O169 2.215 . S
Mn145 O171 2.117 . S
C146 O168 1.234 . S
C146 O169 1.283 . S
C147 O159 1.281 . S
C147 O160 1.236 . S
C148 O170 1.240 . S
C148 O171 1.264 . S
O149 Mn144 2.095 . S
O149 C158 1.250 . S
O150 Mn145 2.121 . S
O150 C158 1.258 . S
C151 N152 1.326 . S
C151 C155 1.460 . S
C151 H157 0.929 . S
N152 Mn145 2.257 . S
N152 C151 1.326 . S
N152 C156 1.362 . S
C153 C154 1.258 . S
C153 C156 1.431 . S
C153 C173 1.449 . S
C154 C153 1.258 . S
C154 C155 1.477 . S
C154 H174 0.931 . S
C155 C151 1.460 . S
C155 C154 1.477 . S
C155 H175 0.930 . S
C156 N152 1.362 . S
C156 C153 1.431 . S
C156 C166 1.476 . S
H157 C151 0.929 . S
C158 O149 1.250 . S
C158 O150 1.258 . S
O159 Mn144 2.162 . S
O159 C147 1.281 . S
O160 Mn144 2.297 . S
O160 C147 1.236 . S
N161 Mn145 2.282 . S
N161 C162 1.328 . S
N161 C166 1.318 . S
C162 N161 1.328 . S
C162 C163 1.457 1_455 S
C162 H167 0.929 . S
C163 C162 1.457 1_655 S
C163 C164 1.291 . S
C163 H176 0.931 . S
C164 C163 1.291 . S
C164 C165 1.373 1_655 S
C164 H177 0.929 . S
C165 C164 1.373 1_455 S
C165 C166 1.396 . S
C165 C172 1.403 . S
C166 C156 1.476 . S
C166 N161 1.318 . S
C166 C165 1.396 . S
H167 C162 0.929 . S
O168 Mn144 2.385 . S
O168 C146 1.234 . S
O169 Mn144 2.209 . S
O169 Mn145 2.215 . S
O169 C146 1.283 . S
O170 Mn144 2.094 . S
O170 C148 1.240 . S
O171 Mn145 2.117 . S
O171 C148 1.264 . S
C172 C165 1.403 . S
C172 C173 1.399 . S
C172 H178 0.929 . S
C173 C153 1.449 . S
C173 C172 1.399 . S
C173 H179 0.930 . S
H174 C154 0.931 . S
H175 C155 0.930 . S
H176 C163 0.931 . S
H177 C164 0.929 . S
H178 C172 0.929 . S
H179 C173 0.930 . S
Mn180 O185 2.095 . S
Mn180 O195 2.162 . S
Mn180 O196 2.297 . S
Mn180 O204 2.385 . S
Mn180 O205 2.209 . S
Mn180 O206 2.094 . S
Mn181 O186 2.121 . S
Mn181 N188 2.257 . S
Mn181 N197 2.282 . S
Mn181 O205 2.215 . S
Mn181 O207 2.117 . S
C182 O204 1.234 . S
C182 O205 1.283 . S
C183 O195 1.281 . S
C183 O196 1.236 . S
C184 O206 1.240 . S
C184 O207 1.264 . S
O185 Mn180 2.095 . S
O185 C194 1.250 . S
O186 Mn181 2.121 . S
O186 C194 1.258 . S
C187 N188 1.326 . S
C187 C191 1.460 . S
C187 H193 0.929 . S
N188 Mn181 2.257 . S
N188 C187 1.326 . S
N188 C192 1.362 . S
C189 C190 1.258 . S
C189 C192 1.431 . S
C189 C209 1.449 . S
C190 C189 1.258 . S
C190 C191 1.477 . S
C190 H210 0.931 . S
C191 C187 1.460 . S
C191 C190 1.477 . S
C191 H211 0.930 . S
C192 N188 1.362 . S
C192 C189 1.431 . S
C192 C202 1.476 . S
H193 C187 0.929 . S
C194 O185 1.250 . S
C194 O186 1.258 . S
O195 Mn180 2.162 . S
O195 C183 1.281 . S
O196 Mn180 2.297 . S
O196 C183 1.236 . S
N197 Mn181 2.282 . S
N197 C198 1.328 . S
N197 C202 1.318 . S
C198 N197 1.328 . S
C198 C199 1.457 . S
C198 H203 0.929 . S
C199 C198 1.457 . S
C199 C200 1.291 . S
C199 H212 0.931 . S
C200 C199 1.291 . S
C200 C201 1.373 . S
C200 H213 0.929 . S
C201 C200 1.373 . S
C201 C202 1.396 . S
C201 C208 1.403 . S
C202 C192 1.476 . S
C202 N197 1.318 . S
C202 C201 1.396 . S
H203 C198 0.929 . S
O204 Mn180 2.385 . S
O204 C182 1.234 . S
O205 Mn180 2.209 . S
O205 Mn181 2.215 . S
O205 C182 1.283 . S
O206 Mn180 2.094 . S
O206 C184 1.240 . S
O207 Mn181 2.117 . S
O207 C184 1.264 . S
C208 C201 1.403 . S
C208 C209 1.399 . S
C208 H214 0.929 . S
C209 C189 1.449 . S
C209 C208 1.399 . S
C209 H215 0.930 . S
H210 C190 0.931 . S
H211 C191 0.930 . S
H212 C199 0.931 . S
H213 C200 0.929 . S
H214 C208 0.929 . S
H215 C209 0.930 . S
Mn216 O221 2.095 . S
Mn216 O231 2.162 . S
Mn216 O232 2.297 . S
Mn216 O240 2.385 . S
Mn216 O241 2.209 . S
Mn216 O242 2.094 . S
Mn217 O222 2.121 . S
Mn217 N224 2.266 . S
Mn217 N233 2.282 . S
Mn217 O241 2.215 . S
Mn217 O243 2.117 . S
C218 O240 1.234 . S
C218 O241 1.283 . S
C219 O231 1.281 . S
C219 O232 1.236 . S
C220 O242 1.240 . S
C220 O243 1.264 . S
O221 Mn216 2.095 . S
O221 C230 1.250 . S
O222 Mn217 2.121 . S
O222 C230 1.258 . S
C223 N224 1.324 1_554 S
C223 C227 1.460 . S
C223 H229 0.929 1_554 S
N224 Mn217 2.266 . S
N224 C223 1.324 1_556 S
N224 C228 1.355 1_556 S
C225 C226 1.258 . S
C225 C228 1.431 . S
C225 C245 1.449 . S
C226 C225 1.258 . S
C226 C227 1.477 . S
C226 H246 0.931 . S
C227 C223 1.460 . S
C227 C226 1.477 . S
C227 H247 0.930 . S
C228 N224 1.355 1_554 S
C228 C225 1.431 . S
C228 C238 1.476 . S
H229 C223 0.929 1_556 S
C230 O221 1.250 . S
C230 O222 1.258 . S
O231 Mn216 2.162 . S
O231 C219 1.281 . S
O232 Mn216 2.297 . S
O232 C219 1.236 . S
N233 Mn217 2.282 . S
N233 C234 1.328 . S
N233 C238 1.318 1_556 S
C234 N233 1.328 . S
C234 C235 1.457 . S
C234 H239 0.929 . S
C235 C234 1.457 . S
C235 C236 1.291 1_556 S
C235 H248 0.931 . S
C236 C235 1.291 1_554 S
C236 C237 1.373 . S
C236 H249 0.929 . S
C237 C236 1.373 . S
C237 C238 1.396 . S
C237 C244 1.403 . S
C238 C228 1.476 . S
C238 N233 1.318 1_554 S
C238 C237 1.396 . S
H239 C234 0.929 . S
O240 Mn216 2.385 . S
O240 C218 1.234 . S
O241 Mn216 2.209 . S
O241 Mn217 2.215 . S
O241 C218 1.283 . S
O242 Mn216 2.094 . S
O242 C220 1.240 . S
O243 Mn217 2.117 . S
O243 C220 1.264 . S
C244 C237 1.403 . S
C244 C245 1.399 . S
C244 H250 0.929 . S
C245 C225 1.449 . S
C245 C244 1.399 . S
C245 H251 0.930 . S
H246 C226 0.931 . S
H247 C227 0.930 . S
H248 C235 0.931 . S
H249 C236 0.929 . S
H250 C244 0.929 . S
H251 C245 0.930 . S
Mn252 O257 2.095 . S
Mn252 O267 2.162 . S
Mn252 O268 2.297 . S
Mn252 O276 2.385 . S
Mn252 O277 2.209 . S
Mn252 O278 2.094 . S
Mn253 O258 2.121 . S
Mn253 N260 2.257 . S
Mn253 N269 2.282 . S
Mn253 O277 2.215 . S
Mn253 O279 2.117 . S
C254 O276 1.234 . S
C254 O277 1.283 . S
C255 O267 1.281 . S
C255 O268 1.236 . S
C256 O278 1.240 . S
C256 O279 1.264 . S
O257 Mn252 2.095 . S
O257 C266 1.250 . S
O258 Mn253 2.121 . S
O258 C266 1.258 . S
C259 N260 1.326 . S
C259 C263 1.460 . S
C259 H265 0.929 . S
N260 Mn253 2.257 . S
N260 C259 1.326 . S
N260 C264 1.362 . S
C261 C262 1.258 . S
C261 C264 1.431 . S
C261 C281 1.449 . S
C262 C261 1.258 . S
C262 C263 1.477 . S
C262 H282 0.931 1_655 S
C263 C259 1.460 . S
C263 C262 1.477 . S
C263 H283 0.930 . S
C264 N260 1.362 . S
C264 C261 1.431 . S
C264 C274 1.476 . S
H265 C259 0.929 . S
C266 O257 1.250 . S
C266 O258 1.258 . S
O267 Mn252 2.162 . S
O267 C255 1.281 . S
O268 Mn252 2.297 . S
O268 C255 1.236 . S
N269 Mn253 2.282 . S
N269 C270 1.328 . S
N269 C274 1.318 . S
C270 N269 1.328 . S
C270 C271 1.457 . S
C270 H275 0.929 . S
C271 C270 1.457 . S
C271 C272 1.291 . S
C271 H284 0.931 . S
C272 C271 1.291 . S
C272 C273 1.373 . S
C272 H285 0.929 . S
C273 C272 1.373 . S
C273 C274 1.396 . S
C273 C280 1.403 . S
C274 C264 1.476 . S
C274 N269 1.318 . S
C274 C273 1.396 . S
H275 C270 0.929 . S
O276 Mn252 2.385 . S
O276 C254 1.234 . S
O277 Mn252 2.209 . S
O277 Mn253 2.215 . S
O277 C254 1.283 . S
O278 Mn252 2.094 . S
O278 C256 1.240 . S
O279 Mn253 2.117 . S
O279 C256 1.264 . S
C280 C273 1.403 . S
C280 C281 1.399 . S
C280 H286 0.929 . S
C281 C261 1.449 . S
C281 C280 1.399 . S
C281 H287 0.930 1_655 S
H282 C262 0.931 1_455 S
H283 C263 0.930 . S
H284 C271 0.931 . S
H285 C272 0.929 . S
H286 C280 0.929 . S
H287 C281 0.930 1_455 S
Mn288 O293 2.095 . S
Mn288 O303 2.162 . S
Mn288 O304 2.297 . S
Mn288 O312 2.385 . S
Mn288 O313 2.209 . S
Mn288 O314 2.094 . S
Mn289 O294 2.121 . S
Mn289 N296 2.266 . S
Mn289 N305 2.282 . S
Mn289 O313 2.215 . S
Mn289 O315 2.117 . S
C290 O312 1.234 . S
C290 O313 1.283 . S
C291 O303 1.281 . S
C291 O304 1.236 . S
C292 O314 1.240 . S
C292 O315 1.264 . S
O293 Mn288 2.095 . S
O293 C302 1.250 . S
O294 Mn289 2.121 . S
O294 C302 1.258 . S
C295 N296 1.324 1_554 S
C295 C299 1.460 . S
C295 H301 0.929 1_554 S
N296 Mn289 2.266 . S
N296 C295 1.324 1_556 S
N296 C300 1.355 1_556 S
C297 C298 1.258 . S
C297 C300 1.431 . S
C297 C317 1.449 . S
C298 C297 1.258 . S
C298 C299 1.477 . S
C298 H318 0.931 . S
C299 C295 1.460 . S
C299 C298 1.477 . S
C299 H319 0.930 . S
C300 N296 1.355 1_554 S
C300 C297 1.431 . S
C300 C310 1.476 . S
H301 C295 0.929 1_556 S
C302 O293 1.250 . S
C302 O294 1.258 . S
O303 Mn288 2.162 . S
O303 C291 1.281 . S
O304 Mn288 2.297 . S
O304 C291 1.236 . S
N305 Mn289 2.282 . S
N305 C306 1.328 . S
N305 C310 1.318 1_556 S
C306 N305 1.328 . S
C306 C307 1.457 1_655 S
C306 H311 0.929 . S
C307 C306 1.457 1_455 S
C307 C308 1.291 1_556 S
C307 H320 0.931 . S
C308 C307 1.291 1_554 S
C308 C309 1.373 1_455 S
C308 H321 0.929 . S
C309 C308 1.373 1_655 S
C309 C310 1.396 . S
C309 C316 1.403 . S
C310 C300 1.476 . S
C310 N305 1.318 1_554 S
C310 C309 1.396 . S
H311 C306 0.929 . S
O312 Mn288 2.385 . S
O312 C290 1.234 . S
O313 Mn288 2.209 . S
O313 Mn289 2.215 . S
O313 C290 1.283 . S
O314 Mn288 2.094 . S
O314 C292 1.240 . S
O315 Mn289 2.117 . S
O315 C292 1.264 . S
C316 C309 1.403 . S
C316 C317 1.399 . S
C316 H322 0.929 . S
C317 C297 1.449 . S
C317 C316 1.399 . S
C317 H323 0.930 . S
H318 C298 0.931 . S
H319 C299 0.930 . S
H320 C307 0.931 . S
H321 C308 0.929 . S
H322 C316 0.929 . S
H323 C317 0.930 . S
Mn324 O329 2.095 . S
Mn324 O339 2.162 . S
Mn324 O340 2.297 . S
Mn324 O348 2.385 . S
Mn324 O349 2.209 . S
Mn324 O350 2.094 . S
Mn325 O330 2.121 . S
Mn325 N332 2.257 . S
Mn325 N341 2.282 . S
Mn325 O349 2.215 . S
Mn325 O351 2.117 . S
C326 O348 1.234 . S
C326 O349 1.283 . S
C327 O339 1.281 . S
C327 O340 1.236 . S
C328 O350 1.240 . S
C328 O351 1.264 . S
O329 Mn324 2.095 . S
O329 C338 1.250 . S
O330 Mn325 2.121 . S
O330 C338 1.258 . S
C331 N332 1.326 . S
C331 C335 1.460 . S
C331 H337 0.929 . S
N332 Mn325 2.257 . S
N332 C331 1.326 . S
N332 C336 1.362 . S
C333 C334 1.258 . S
C333 C336 1.431 . S
C333 C353 1.449 . S
C334 C333 1.258 . S
C334 C335 1.477 . S
C334 H354 0.931 1_455 S
C335 C331 1.460 . S
C335 C334 1.477 . S
C335 H355 0.930 . S
C336 N332 1.362 . S
C336 C333 1.431 . S
C336 C346 1.476 . S
H337 C331 0.929 . S
C338 O329 1.250 . S
C338 O330 1.258 . S
O339 Mn324 2.162 . S
O339 C327 1.281 . S
O340 Mn324 2.297 . S
O340 C327 1.236 . S
N341 Mn325 2.282 . S
N341 C342 1.328 . S
N341 C346 1.318 . S
C342 N341 1.328 . S
C342 C343 1.457 . S
C342 H347 0.929 . S
C343 C342 1.457 . S
C343 C344 1.291 . S
C343 H356 0.931 . S
C344 C343 1.291 . S
C344 C345 1.373 . S
C344 H357 0.929 . S
C345 C344 1.373 . S
C345 C346 1.396 . S
C345 C352 1.403 . S
C346 C336 1.476 . S
C346 N341 1.318 . S
C346 C345 1.396 . S
H347 C342 0.929 . S
O348 Mn324 2.385 . S
O348 C326 1.234 . S
O349 Mn324 2.209 . S
O349 Mn325 2.215 . S
O349 C326 1.283 . S
O350 Mn324 2.094 . S
O350 C328 1.240 . S
O351 Mn325 2.117 . S
O351 C328 1.264 . S
C352 C345 1.403 . S
C352 C353 1.399 . S
C352 H358 0.929 . S
C353 C333 1.449 . S
C353 C352 1.399 . S
C353 H359 0.930 1_455 S
H354 C334 0.931 1_655 S
H355 C335 0.930 . S
H356 C343 0.931 . S
H357 C344 0.929 . S
H358 C352 0.929 . S
H359 C353 0.930 1_655 S
Mn360 O365 2.095 . S
Mn360 O375 2.162 . S
Mn360 O376 2.297 . S
Mn360 O384 2.385 . S
Mn360 O385 2.209 . S
Mn360 O386 2.094 . S
Mn361 O366 2.121 . S
Mn361 N368 2.257 . S
Mn361 N377 2.282 . S
Mn361 O385 2.215 . S
Mn361 O387 2.117 . S
C362 O384 1.234 . S
C362 O385 1.283 . S
C363 O375 1.281 . S
C363 O376 1.236 . S
C364 O386 1.240 . S
C364 O387 1.264 . S
O365 Mn360 2.095 . S
O365 C374 1.250 . S
O366 Mn361 2.121 . S
O366 C374 1.258 . S
C367 N368 1.326 . S
C367 C371 1.460 . S
C367 H373 0.929 . S
N368 Mn361 2.257 . S
N368 C367 1.326 . S
N368 C372 1.362 . S
C369 C370 1.258 . S
C369 C372 1.431 . S
C369 C389 1.449 . S
C370 C369 1.258 . S
C370 C371 1.477 . S
C370 H390 0.931 . S
C371 C367 1.460 . S
C371 C370 1.477 . S
C371 H391 0.930 . S
C372 N368 1.362 . S
C372 C369 1.431 . S
C372 C382 1.476 . S
H373 C367 0.929 . S
C374 O365 1.250 . S
C374 O366 1.258 . S
O375 Mn360 2.162 . S
O375 C363 1.281 . S
O376 Mn360 2.297 . S
O376 C363 1.236 . S
N377 Mn361 2.282 . S
N377 C378 1.328 . S
N377 C382 1.318 . S
C378 N377 1.328 . S
C378 C379 1.457 . S
C378 H383 0.929 . S
C379 C378 1.457 . S
C379 C380 1.291 . S
C379 H392 0.931 . S
C380 C379 1.291 . S
C380 C381 1.373 . S
C380 H393 0.929 . S
C381 C380 1.373 . S
C381 C382 1.396 . S
C381 C388 1.403 . S
C382 C372 1.476 . S
C382 N377 1.318 . S
C382 C381 1.396 . S
H383 C378 0.929 . S
O384 Mn360 2.385 . S
O384 C362 1.234 . S
O385 Mn360 2.209 . S
O385 Mn361 2.215 . S
O385 C362 1.283 . S
O386 Mn360 2.094 . S
O386 C364 1.240 . S
O387 Mn361 2.117 . S
O387 C364 1.264 . S
C388 C381 1.403 . S
C388 C389 1.399 . S
C388 H394 0.929 . S
C389 C369 1.449 . S
C389 C388 1.399 . S
C389 H395 0.930 . S
H390 C370 0.931 . S
H391 C371 0.930 . S
H392 C379 0.931 . S
H393 C380 0.929 . S
H394 C388 0.929 . S
H395 C389 0.930 . S
Mn396 O401 2.095 . S
Mn396 O411 2.162 . S
Mn396 O412 2.297 . S
Mn396 O420 2.385 . S
Mn396 O421 2.209 . S
Mn396 O422 2.094 . S
Mn397 O402 2.121 . S
Mn397 N404 2.257 . S
Mn397 N413 2.282 . S
Mn397 O421 2.215 . S
Mn397 O423 2.117 . S
C398 O420 1.234 . S
C398 O421 1.283 . S
C399 O411 1.281 . S
C399 O412 1.236 . S
C400 O422 1.240 . S
C400 O423 1.264 . S
O401 Mn396 2.095 . S
O401 C410 1.250 . S
O402 Mn397 2.121 . S
O402 C410 1.258 . S
C403 N404 1.326 . S
C403 C407 1.460 . S
C403 H409 0.929 . S
N404 Mn397 2.257 . S
N404 C403 1.326 . S
N404 C408 1.362 . S
C405 C406 1.258 . S
C405 C408 1.431 . S
C405 C425 1.449 . S
C406 C405 1.258 . S
C406 C407 1.477 . S
C406 H426 0.931 . S
C407 C403 1.460 . S
C407 C406 1.477 . S
C407 H427 0.930 . S
C408 N404 1.362 . S
C408 C405 1.431 . S
C408 C418 1.476 . S
H409 C403 0.929 . S
C410 O401 1.250 . S
C410 O402 1.258 . S
O411 Mn396 2.162 . S
O411 C399 1.281 . S
O412 Mn396 2.297 . S
O412 C399 1.236 . S
N413 Mn397 2.282 . S
N413 C414 1.328 . S
N413 C418 1.318 . S
C414 N413 1.328 . S
C414 C415 1.457 . S
C414 H419 0.929 . S
C415 C414 1.457 . S
C415 C416 1.291 . S
C415 H428 0.931 . S
C416 C415 1.291 . S
C416 C417 1.373 . S
C416 H429 0.929 . S
C417 C416 1.373 . S
C417 C418 1.396 . S
C417 C424 1.403 . S
C418 C408 1.476 . S
C418 N413 1.318 . S
C418 C417 1.396 . S
H419 C414 0.929 . S
O420 Mn396 2.385 . S
O420 C398 1.234 . S
O421 Mn396 2.209 . S
O421 Mn397 2.215 . S
O421 C398 1.283 . S
O422 Mn396 2.094 . S
O422 C400 1.240 . S
O423 Mn397 2.117 . S
O423 C400 1.264 . S
C424 C417 1.403 . S
C424 C425 1.399 . S
C424 H430 0.929 . S
C425 C405 1.449 . S
C425 C424 1.399 . S
C425 H431 0.930 . S
H426 C406 0.931 . S
H427 C407 0.930 . S
H428 C415 0.931 . S
H429 C416 0.929 . S
H430 C424 0.929 . S
H431 C425 0.930 . S
Mn432 O437 2.095 . S
Mn432 O447 2.162 . S
Mn432 O448 2.297 . S
Mn432 O456 2.385 . S
Mn432 O457 2.209 . S
Mn432 O458 2.094 . S
Mn433 O438 2.121 . S
Mn433 N440 2.257 . S
Mn433 N449 2.282 . S
Mn433 O457 2.215 . S
Mn433 O459 2.117 . S
C434 O456 1.234 . S
C434 O457 1.283 . S
C435 O447 1.281 . S
C435 O448 1.236 . S
C436 O458 1.240 . S
C436 O459 1.264 . S
O437 Mn432 2.095 . S
O437 C446 1.250 . S
O438 Mn433 2.121 . S
O438 C446 1.258 . S
C439 N440 1.326 . S
C439 C443 1.460 . S
C439 H445 0.929 . S
N440 Mn433 2.257 . S
N440 C439 1.326 . S
N440 C444 1.362 . S
C441 C442 1.258 . S
C441 C444 1.431 . S
C441 C461 1.449 . S
C442 C441 1.258 . S
C442 C443 1.477 . S
C442 H462 0.931 . S
C443 C439 1.460 . S
C443 C442 1.477 . S
C443 H463 0.930 . S
C444 N440 1.362 . S
C444 C441 1.431 . S
C444 C454 1.476 . S
H445 C439 0.929 . S
C446 O437 1.250 . S
C446 O438 1.258 . S
O447 Mn432 2.162 . S
O447 C435 1.281 . S
O448 Mn432 2.297 . S
O448 C435 1.236 . S
N449 Mn433 2.282 . S
N449 C450 1.328 . S
N449 C454 1.318 . S
C450 N449 1.328 . S
C450 C451 1.457 1_655 S
C450 H455 0.929 . S
C451 C450 1.457 1_455 S
C451 C452 1.291 . S
C451 H464 0.931 . S
C452 C451 1.291 . S
C452 C453 1.373 1_455 S
C452 H465 0.929 . S
C453 C452 1.373 1_655 S
C453 C454 1.396 . S
C453 C460 1.403 . S
C454 C444 1.476 . S
C454 N449 1.318 . S
C454 C453 1.396 . S
H455 C450 0.929 . S
O456 Mn432 2.385 . S
O456 C434 1.234 . S
O457 Mn432 2.209 . S
O457 Mn433 2.215 . S
O457 C434 1.283 . S
O458 Mn432 2.094 . S
O458 C436 1.240 . S
O459 Mn433 2.117 . S
O459 C436 1.264 . S
C460 C453 1.403 . S
C460 C461 1.399 . S
C460 H466 0.929 . S
C461 C441 1.449 . S
C461 C460 1.399 . S
C461 H467 0.930 . S
H462 C442 0.931 . S
H463 C443 0.930 . S
H464 C451 0.931 . S
H465 C452 0.929 . S
H466 C460 0.929 . S
H467 C461 0.930 . S
Mn468 O473 2.095 . S
Mn468 O483 2.162 . S
Mn468 O484 2.297 . S
Mn468 O492 2.385 . S
Mn468 O493 2.209 . S
Mn468 O494 2.094 . S
Mn469 O474 2.121 . S
Mn469 N476 2.257 . S
Mn469 N485 2.282 . S
Mn469 O493 2.215 . S
Mn469 O495 2.117 . S
C470 O492 1.234 . S
C470 O493 1.283 . S
C471 O483 1.281 . S
C471 O484 1.236 . S
C472 O494 1.240 . S
C472 O495 1.264 . S
O473 Mn468 2.095 . S
O473 C482 1.250 . S
O474 Mn469 2.121 . S
O474 C482 1.258 . S
C475 N476 1.326 . S
C475 C479 1.460 . S
C475 H481 0.929 . S
N476 Mn469 2.257 . S
N476 C475 1.326 . S
N476 C480 1.362 . S
C477 C478 1.258 . S
C477 C480 1.431 . S
C477 C497 1.449 . S
C478 C477 1.258 . S
C478 C479 1.477 . S
C478 H498 0.931 . S
C479 C475 1.460 . S
C479 C478 1.477 . S
C479 H499 0.930 . S
C480 N476 1.362 . S
C480 C477 1.431 . S
C480 C490 1.476 . S
H481 C475 0.929 . S
C482 O473 1.250 . S
C482 O474 1.258 . S
O483 Mn468 2.162 . S
O483 C471 1.281 . S
O484 Mn468 2.297 . S
O484 C471 1.236 . S
N485 Mn469 2.282 . S
N485 C486 1.328 . S
N485 C490 1.318 . S
C486 N485 1.328 . S
C486 C487 1.457 . S
C486 H491 0.929 . S
C487 C486 1.457 . S
C487 C488 1.291 . S
C487 H500 0.931 . S
C488 C487 1.291 . S
C488 C489 1.373 . S
C488 H501 0.929 . S
C489 C488 1.373 . S
C489 C490 1.396 . S
C489 C496 1.403 . S
C490 C480 1.476 . S
C490 N485 1.318 . S
C490 C489 1.396 . S
H491 C486 0.929 . S
O492 Mn468 2.385 . S
O492 C470 1.234 . S
O493 Mn468 2.209 . S
O493 Mn469 2.215 . S
O493 C470 1.283 . S
O494 Mn468 2.094 . S
O494 C472 1.240 . S
O495 Mn469 2.117 . S
O495 C472 1.264 . S
C496 C489 1.403 . S
C496 C497 1.399 . S
C496 H502 0.929 . S
C497 C477 1.449 . S
C497 C496 1.399 . S
C497 H503 0.930 . S
H498 C478 0.931 . S
H499 C479 0.930 . S
H500 C487 0.931 . S
H501 C488 0.929 . S
H502 C496 0.929 . S
H503 C497 0.930 . S
Mn504 O509 2.095 . S
Mn504 O519 2.162 . S
Mn504 O520 2.297 . S
Mn504 O528 2.385 . S
Mn504 O529 2.209 . S
Mn504 O530 2.094 . S
Mn505 O510 2.121 . S
Mn505 N512 2.266 . S
Mn505 N521 2.282 . S
Mn505 O529 2.215 . S
Mn505 O531 2.117 . S
C506 O528 1.234 . S
C506 O529 1.283 . S
C507 O519 1.281 . S
C507 O520 1.236 . S
C508 O530 1.240 . S
C508 O531 1.264 . S
O509 Mn504 2.095 . S
O509 C518 1.250 . S
O510 Mn505 2.121 . S
O510 C518 1.258 . S
C511 N512 1.324 1_556 S
C511 C515 1.460 . S
C511 H517 0.929 1_556 S
N512 Mn505 2.266 . S
N512 C511 1.324 1_554 S
N512 C516 1.355 1_554 S
C513 C514 1.258 . S
C513 C516 1.431 . S
C513 C533 1.449 . S
C514 C513 1.258 . S
C514 C515 1.477 . S
C514 H534 0.931 . S
C515 C511 1.460 . S
C515 C514 1.477 . S
C515 H535 0.930 . S
C516 N512 1.355 1_556 S
C516 C513 1.431 . S
C516 C526 1.476 . S
H517 C511 0.929 1_554 S
C518 O509 1.250 . S
C518 O510 1.258 . S
O519 Mn504 2.162 . S
O519 C507 1.281 . S
O520 Mn504 2.297 . S
O520 C507 1.236 . S
N521 Mn505 2.282 . S
N521 C522 1.328 . S
N521 C526 1.318 1_554 S
C522 N521 1.328 . S
C522 C523 1.457 . S
C522 H527 0.929 . S
C523 C522 1.457 . S
C523 C524 1.291 1_554 S
C523 H536 0.931 . S
C524 C523 1.291 1_556 S
C524 C525 1.373 . S
C524 H537 0.929 . S
C525 C524 1.373 . S
C525 C526 1.396 . S
C525 C532 1.403 . S
C526 C516 1.476 . S
C526 N521 1.318 1_556 S
C526 C525 1.396 . S
H527 C522 0.929 . S
O528 Mn504 2.385 . S
O528 C506 1.234 . S
O529 Mn504 2.209 . S
O529 Mn505 2.215 . S
O529 C506 1.283 . S
O530 Mn504 2.094 . S
O530 C508 1.240 . S
O531 Mn505 2.117 . S
O531 C508 1.264 . S
C532 C525 1.403 . S
C532 C533 1.399 . S
C532 H538 0.929 . S
C533 C513 1.449 . S
C533 C532 1.399 . S
C533 H539 0.930 . S
H534 C514 0.931 . S
H535 C515 0.930 . S
H536 C523 0.931 . S
H537 C524 0.929 . S
H538 C532 0.929 . S
H539 C533 0.930 . S
Mn540 O545 2.095 . S
Mn540 O555 2.162 . S
Mn540 O556 2.297 . S
Mn540 O564 2.385 . S
Mn540 O565 2.209 . S
Mn540 O566 2.094 . S
Mn541 O546 2.121 . S
Mn541 N548 2.257 . S
Mn541 N557 2.282 . S
Mn541 O565 2.215 . S
Mn541 O567 2.117 . S
C542 O564 1.234 . S
C542 O565 1.283 . S
C543 O555 1.281 . S
C543 O556 1.236 . S
C544 O566 1.240 . S
C544 O567 1.264 . S
O545 Mn540 2.095 . S
O545 C554 1.250 . S
O546 Mn541 2.121 . S
O546 C554 1.258 . S
C547 N548 1.326 . S
C547 C551 1.460 . S
C547 H553 0.929 . S
N548 Mn541 2.257 . S
N548 C547 1.326 . S
N548 C552 1.362 . S
C549 C550 1.258 . S
C549 C552 1.431 . S
C549 C569 1.449 . S
C550 C549 1.258 . S
C550 C551 1.477 . S
C550 H570 0.931 1_455 S
C551 C547 1.460 . S
C551 C550 1.477 . S
C551 H571 0.930 . S
C552 N548 1.362 . S
C552 C549 1.431 . S
C552 C562 1.476 . S
H553 C547 0.929 . S
C554 O545 1.250 . S
C554 O546 1.258 . S
O555 Mn540 2.162 . S
O555 C543 1.281 . S
O556 Mn540 2.297 . S
O556 C543 1.236 . S
N557 Mn541 2.282 . S
N557 C558 1.328 . S
N557 C562 1.318 . S
C558 N557 1.328 . S
C558 C559 1.457 . S
C558 H563 0.929 . S
C559 C558 1.457 . S
C559 C560 1.291 . S
C559 H572 0.931 . S
C560 C559 1.291 . S
C560 C561 1.373 . S
C560 H573 0.929 . S
C561 C560 1.373 . S
C561 C562 1.396 . S
C561 C568 1.403 . S
C562 C552 1.476 . S
C562 N557 1.318 . S
C562 C561 1.396 . S
H563 C558 0.929 . S
O564 Mn540 2.385 . S
O564 C542 1.234 . S
O565 Mn540 2.209 . S
O565 Mn541 2.215 . S
O565 C542 1.283 . S
O566 Mn540 2.094 . S
O566 C544 1.240 . S
O567 Mn541 2.117 . S
O567 C544 1.264 . S
C568 C561 1.403 . S
C568 C569 1.399 . S
C568 H574 0.929 . S
C569 C549 1.449 . S
C569 C568 1.399 . S
C569 H575 0.930 1_455 S
H570 C550 0.931 1_655 S
H571 C551 0.930 . S
H572 C559 0.931 . S
H573 C560 0.929 . S
H574 C568 0.929 . S
H575 C569 0.930 1_655 S
Mn576 O581 2.095 . S
Mn576 O591 2.162 . S
Mn576 O592 2.297 . S
Mn576 O600 2.385 . S
Mn576 O601 2.209 . S
Mn576 O602 2.094 . S
Mn577 O582 2.121 . S
Mn577 N584 2.257 . S
Mn577 N593 2.282 . S
Mn577 O601 2.215 . S
Mn577 O603 2.117 . S
C578 O600 1.234 . S
C578 O601 1.283 . S
C579 O591 1.281 . S
C579 O592 1.236 . S
C580 O602 1.240 . S
C580 O603 1.264 . S
O581 Mn576 2.095 . S
O581 C590 1.250 . S
O582 Mn577 2.121 . S
O582 C590 1.258 . S
C583 N584 1.326 . S
C583 C587 1.460 . S
C583 H589 0.929 . S
N584 Mn577 2.257 . S
N584 C583 1.326 . S
N584 C588 1.362 . S
C585 C586 1.258 . S
C585 C588 1.431 . S
C585 C605 1.449 . S
C586 C585 1.258 . S
C586 C587 1.477 . S
C586 H606 0.931 . S
C587 C583 1.460 . S
C587 C586 1.477 . S
C587 H607 0.930 . S
C588 N584 1.362 . S
C588 C585 1.431 . S
C588 C598 1.476 . S
H589 C583 0.929 . S
C590 O581 1.250 . S
C590 O582 1.258 . S
O591 Mn576 2.162 . S
O591 C579 1.281 . S
O592 Mn576 2.297 . S
O592 C579 1.236 . S
N593 Mn577 2.282 . S
N593 C594 1.328 . S
N593 C598 1.318 . S
C594 N593 1.328 . S
C594 C595 1.457 . S
C594 H599 0.929 . S
C595 C594 1.457 . S
C595 C596 1.291 . S
C595 H608 0.931 . S
C596 C595 1.291 . S
C596 C597 1.373 . S
C596 H609 0.929 . S
C597 C596 1.373 . S
C597 C598 1.396 . S
C597 C604 1.403 . S
C598 C588 1.476 . S
C598 N593 1.318 . S
C598 C597 1.396 . S
H599 C594 0.929 . S
O600 Mn576 2.385 . S
O600 C578 1.234 . S
O601 Mn576 2.209 . S
O601 Mn577 2.215 . S
O601 C578 1.283 . S
O602 Mn576 2.094 . S
O602 C580 1.240 . S
O603 Mn577 2.117 . S
O603 C580 1.264 . S
C604 C597 1.403 . S
C604 C605 1.399 . S
C604 H610 0.929 . S
C605 C585 1.449 . S
C605 C604 1.399 . S
C605 H611 0.930 . S
H606 C586 0.931 . S
H607 C587 0.930 . S
H608 C595 0.931 . S
H609 C596 0.929 . S
H610 C604 0.929 . S
H611 C605 0.930 . S
Mn612 O617 2.095 . S
Mn612 O627 2.162 . S
Mn612 O628 2.297 . S
Mn612 O636 2.385 . S
Mn612 O637 2.209 . S
Mn612 O638 2.094 . S
Mn613 O618 2.121 . S
Mn613 N620 2.257 . S
Mn613 N629 2.282 . S
Mn613 O637 2.215 . S
Mn613 O639 2.117 . S
C614 O636 1.234 . S
C614 O637 1.283 . S
C615 O627 1.281 . S
C615 O628 1.236 . S
C616 O638 1.240 . S
C616 O639 1.264 . S
O617 Mn612 2.095 . S
O617 C626 1.250 . S
O618 Mn613 2.121 . S
O618 C626 1.258 . S
C619 N620 1.326 . S
C619 C623 1.460 . S
C619 H625 0.929 . S
N620 Mn613 2.257 . S
N620 C619 1.326 . S
N620 C624 1.362 . S
C621 C622 1.258 . S
C621 C624 1.431 . S
C621 C641 1.449 . S
C622 C621 1.258 . S
C622 C623 1.477 . S
C622 H642 0.931 . S
C623 C619 1.460 . S
C623 C622 1.477 . S
C623 H643 0.930 . S
C624 N620 1.362 . S
C624 C621 1.431 . S
C624 C634 1.476 . S
H625 C619 0.929 . S
C626 O617 1.250 . S
C626 O618 1.258 . S
O627 Mn612 2.162 . S
O627 C615 1.281 . S
O628 Mn612 2.297 . S
O628 C615 1.236 . S
N629 Mn613 2.282 . S
N629 C630 1.328 . S
N629 C634 1.318 . S
C630 N629 1.328 . S
C630 C631 1.457 . S
C630 H635 0.929 . S
C631 C630 1.457 . S
C631 C632 1.291 . S
C631 H644 0.931 . S
C632 C631 1.291 . S
C632 C633 1.373 . S
C632 H645 0.929 . S
C633 C632 1.373 . S
C633 C634 1.396 . S
C633 C640 1.403 . S
C634 C624 1.476 . S
C634 N629 1.318 . S
C634 C633 1.396 . S
H635 C630 0.929 . S
O636 Mn612 2.385 . S
O636 C614 1.234 . S
O637 Mn612 2.209 . S
O637 Mn613 2.215 . S
O637 C614 1.283 . S
O638 Mn612 2.094 . S
O638 C616 1.240 . S
O639 Mn613 2.117 . S
O639 C616 1.264 . S
C640 C633 1.403 . S
C640 C641 1.399 . S
C640 H646 0.929 . S
C641 C621 1.449 . S
C641 C640 1.399 . S
C641 H647 0.930 . S
H642 C622 0.931 . S
H643 C623 0.930 . S
H644 C631 0.931 . S
H645 C632 0.929 . S
H646 C640 0.929 . S
H647 C641 0.930 . S
Mn648 O653 2.095 . S
Mn648 O663 2.162 . S
Mn648 O664 2.297 . S
Mn648 O672 2.385 . S
Mn648 O673 2.209 . S
Mn648 O674 2.094 . S
Mn649 O654 2.121 . S
Mn649 N656 2.266 . S
Mn649 N665 2.282 . S
Mn649 O673 2.215 . S
Mn649 O675 2.117 . S
C650 O672 1.234 . S
C650 O673 1.283 . S
C651 O663 1.281 . S
C651 O664 1.236 . S
C652 O674 1.240 . S
C652 O675 1.264 . S
O653 Mn648 2.095 . S
O653 C662 1.250 . S
O654 Mn649 2.121 . S
O654 C662 1.258 . S
C655 N656 1.324 1_556 S
C655 C659 1.460 . S
C655 H661 0.929 1_556 S
N656 Mn649 2.266 . S
N656 C655 1.324 1_554 S
N656 C660 1.355 1_554 S
C657 C658 1.258 . S
C657 C660 1.431 . S
C657 C677 1.449 . S
C658 C657 1.258 . S
C658 C659 1.477 . S
C658 H678 0.931 . S
C659 C655 1.460 . S
C659 C658 1.477 . S
C659 H679 0.930 . S
C660 N656 1.355 1_556 S
C660 C657 1.431 . S
C660 C670 1.476 . S
H661 C655 0.929 1_554 S
C662 O653 1.250 . S
C662 O654 1.258 . S
O663 Mn648 2.162 . S
O663 C651 1.281 . S
O664 Mn648 2.297 . S
O664 C651 1.236 . S
N665 Mn649 2.282 . S
N665 C666 1.328 . S
N665 C670 1.318 1_554 S
C666 N665 1.328 . S
C666 C667 1.457 1_655 S
C666 H671 0.929 . S
C667 C666 1.457 1_455 S
C667 C668 1.291 1_554 S
C667 H680 0.931 . S
C668 C667 1.291 1_556 S
C668 C669 1.373 1_455 S
C668 H681 0.929 . S
C669 C668 1.373 1_655 S
C669 C670 1.396 . S
C669 C676 1.403 . S
C670 C660 1.476 . S
C670 N665 1.318 1_556 S
C670 C669 1.396 . S
H671 C666 0.929 . S
O672 Mn648 2.385 . S
O672 C650 1.234 . S
O673 Mn648 2.209 . S
O673 Mn649 2.215 . S
O673 C650 1.283 . S
O674 Mn648 2.094 . S
O674 C652 1.240 . S
O675 Mn649 2.117 . S
O675 C652 1.264 . S
C676 C669 1.403 . S
C676 C677 1.399 . S
C676 H682 0.929 . S
C677 C657 1.449 . S
C677 C676 1.399 . S
C677 H683 0.930 . S
H678 C658 0.931 . S
H679 C659 0.930 . S
H680 C667 0.931 . S
H681 C668 0.929 . S
H682 C676 0.929 . S
H683 C677 0.930 . S
Mn684 O689 2.095 . S
Mn684 O699 2.162 . S
Mn684 O700 2.297 . S
Mn684 O708 2.385 . S
Mn684 O709 2.209 . S
Mn684 O710 2.094 . S
Mn685 O690 2.121 . S
Mn685 N692 2.257 . S
Mn685 N701 2.282 . S
Mn685 O709 2.215 . S
Mn685 O711 2.117 . S
C686 O708 1.234 . S
C686 O709 1.283 . S
C687 O699 1.281 . S
C687 O700 1.236 . S
C688 O710 1.240 . S
C688 O711 1.264 . S
O689 Mn684 2.095 . S
O689 C698 1.250 . S
O690 Mn685 2.121 . S
O690 C698 1.258 . S
C691 N692 1.326 . S
C691 C695 1.460 . S
C691 H697 0.929 . S
N692 Mn685 2.257 . S
N692 C691 1.326 . S
N692 C696 1.362 . S
C693 C694 1.258 . S
C693 C696 1.431 . S
C693 C713 1.449 . S
C694 C693 1.258 . S
C694 C695 1.477 . S
C694 H714 0.931 1_455 S
C695 C691 1.460 . S
C695 C694 1.477 . S
C695 H715 0.930 . S
C696 N692 1.362 . S
C696 C693 1.431 . S
C696 C706 1.476 . S
H697 C691 0.929 . S
C698 O689 1.250 . S
C698 O690 1.258 . S
O699 Mn684 2.162 . S
O699 C687 1.281 . S
O700 Mn684 2.297 . S
O700 C687 1.236 . S
N701 Mn685 2.282 . S
N701 C702 1.328 . S
N701 C706 1.318 . S
C702 N701 1.328 . S
C702 C703 1.457 . S
C702 H707 0.929 . S
C703 C702 1.457 . S
C703 C704 1.291 . S
C703 H716 0.931 . S
C704 C703 1.291 . S
C704 C705 1.373 . S
C704 H717 0.929 . S
C705 C704 1.373 . S
C705 C706 1.396 . S
C705 C712 1.403 . S
C706 C696 1.476 . S
C706 N701 1.318 . S
C706 C705 1.396 . S
H707 C702 0.929 . S
O708 Mn684 2.385 . S
O708 C686 1.234 . S
O709 Mn684 2.209 . S
O709 Mn685 2.215 . S
O709 C686 1.283 . S
O710 Mn684 2.094 . S
O710 C688 1.240 . S
O711 Mn685 2.117 . S
O711 C688 1.264 . S
C712 C705 1.403 . S
C712 C713 1.399 . S
C712 H718 0.929 . S
C713 C693 1.449 . S
C713 C712 1.399 . S
C713 H719 0.930 1_455 S
H714 C694 0.931 1_655 S
H715 C695 0.930 . S
H716 C703 0.931 . S
H717 C704 0.929 . S
H718 C712 0.929 . S
H719 C713 0.930 1_655 S
Mn720 O725 2.095 . S
Mn720 O735 2.162 . S
Mn720 O736 2.297 . S
Mn720 O744 2.385 . S
Mn720 O745 2.209 . S
Mn720 O746 2.094 . S
Mn721 O726 2.121 . S
Mn721 N728 2.266 . S
Mn721 N737 2.282 . S
Mn721 O745 2.215 . S
Mn721 O747 2.117 . S
C722 O744 1.234 . S
C722 O745 1.283 . S
C723 O735 1.281 . S
C723 O736 1.236 . S
C724 O746 1.240 . S
C724 O747 1.264 . S
O725 Mn720 2.095 . S
O725 C734 1.250 . S
O726 Mn721 2.121 . S
O726 C734 1.258 . S
C727 N728 1.324 1_554 S
C727 C731 1.460 . S
C727 H733 0.929 1_554 S
N728 Mn721 2.266 . S
N728 C727 1.324 1_556 S
N728 C732 1.355 1_556 S
C729 C730 1.258 . S
C729 C732 1.431 . S
C729 C749 1.449 . S
C730 C729 1.258 . S
C730 C731 1.477 . S
C730 H750 0.931 . S
C731 C727 1.460 . S
C731 C730 1.477 . S
C731 H751 0.930 . S
C732 N728 1.355 1_554 S
C732 C729 1.431 . S
C732 C742 1.476 . S
H733 C727 0.929 1_556 S
C734 O725 1.250 . S
C734 O726 1.258 . S
O735 Mn720 2.162 . S
O735 C723 1.281 . S
O736 Mn720 2.297 . S
O736 C723 1.236 . S
N737 Mn721 2.282 . S
N737 C738 1.328 . S
N737 C742 1.318 1_556 S
C738 N737 1.328 . S
C738 C739 1.457 . S
C738 H743 0.929 . S
C739 C738 1.457 . S
C739 C740 1.291 1_556 S
C739 H752 0.931 . S
C740 C739 1.291 1_554 S
C740 C741 1.373 . S
C740 H753 0.929 . S
C741 C740 1.373 . S
C741 C742 1.396 . S
C741 C748 1.403 . S
C742 C732 1.476 . S
C742 N737 1.318 1_554 S
C742 C741 1.396 . S
H743 C738 0.929 . S
O744 Mn720 2.385 . S
O744 C722 1.234 . S
O745 Mn720 2.209 . S
O745 Mn721 2.215 . S
O745 C722 1.283 . S
O746 Mn720 2.094 . S
O746 C724 1.240 . S
O747 Mn721 2.117 . S
O747 C724 1.264 . S
C748 C741 1.403 . S
C748 C749 1.399 . S
C748 H754 0.929 . S
C749 C729 1.449 . S
C749 C748 1.399 . S
C749 H755 0.930 . S
H750 C730 0.931 . S
H751 C731 0.930 . S
H752 C739 0.931 . S
H753 C740 0.929 . S
H754 C748 0.929 . S
H755 C749 0.930 . S
Mn756 O761 2.095 . S
Mn756 O771 2.162 . S
Mn756 O772 2.297 . S
Mn756 O780 2.385 . S
Mn756 O781 2.209 . S
Mn756 O782 2.094 . S
Mn757 O762 2.121 . S
Mn757 N764 2.257 . S
Mn757 N773 2.282 . S
Mn757 O781 2.215 . S
Mn757 O783 2.117 . S
C758 O780 1.234 . S
C758 O781 1.283 . S
C759 O771 1.281 . S
C759 O772 1.236 . S
C760 O782 1.240 . S
C760 O783 1.264 . S
O761 Mn756 2.095 . S
O761 C770 1.250 . S
O762 Mn757 2.121 . S
O762 C770 1.258 . S
C763 N764 1.326 . S
C763 C767 1.460 . S
C763 H769 0.929 . S
N764 Mn757 2.257 . S
N764 C763 1.326 . S
N764 C768 1.362 . S
C765 C766 1.258 . S
C765 C768 1.431 . S
C765 C785 1.449 . S
C766 C765 1.258 . S
C766 C767 1.477 . S
C766 H786 0.931 1_455 S
C767 C763 1.460 . S
C767 C766 1.477 . S
C767 H787 0.930 . S
C768 N764 1.362 . S
C768 C765 1.431 . S
C768 C778 1.476 . S
H769 C763 0.929 . S
C770 O761 1.250 . S
C770 O762 1.258 . S
O771 Mn756 2.162 . S
O771 C759 1.281 . S
O772 Mn756 2.297 . S
O772 C759 1.236 . S
N773 Mn757 2.282 . S
N773 C774 1.328 . S
N773 C778 1.318 . S
C774 N773 1.328 . S
C774 C775 1.457 . S
C774 H779 0.929 . S
C775 C774 1.457 . S
C775 C776 1.291 . S
C775 H788 0.931 . S
C776 C775 1.291 . S
C776 C777 1.373 . S
C776 H789 0.929 . S
C777 C776 1.373 . S
C777 C778 1.396 . S
C777 C784 1.403 . S
C778 C768 1.476 . S
C778 N773 1.318 . S
C778 C777 1.396 . S
H779 C774 0.929 . S
O780 Mn756 2.385 . S
O780 C758 1.234 . S
O781 Mn756 2.209 . S
O781 Mn757 2.215 . S
O781 C758 1.283 . S
O782 Mn756 2.094 . S
O782 C760 1.240 . S
O783 Mn757 2.117 . S
O783 C760 1.264 . S
C784 C777 1.403 . S
C784 C785 1.399 . S
C784 H790 0.929 . S
C785 C765 1.449 . S
C785 C784 1.399 . S
C785 H791 0.930 1_455 S
H786 C766 0.931 1_655 S
H787 C767 0.930 . S
H788 C775 0.931 . S
H789 C776 0.929 . S
H790 C784 0.929 . S
H791 C785 0.930 1_655 S
Mn792 O797 2.095 . S
Mn792 O807 2.162 . S
Mn792 O808 2.297 . S
Mn792 O816 2.385 . S
Mn792 O817 2.209 . S
Mn792 O818 2.094 . S
Mn793 O798 2.121 . S
Mn793 N800 2.257 . S
Mn793 N809 2.282 . S
Mn793 O817 2.215 . S
Mn793 O819 2.117 . S
C794 O816 1.234 . S
C794 O817 1.283 . S
C795 O807 1.281 . S
C795 O808 1.236 . S
C796 O818 1.240 . S
C796 O819 1.264 . S
O797 Mn792 2.095 . S
O797 C806 1.250 . S
O798 Mn793 2.121 . S
O798 C806 1.258 . S
C799 N800 1.326 . S
C799 C803 1.460 . S
C799 H805 0.929 . S
N800 Mn793 2.257 . S
N800 C799 1.326 . S
N800 C804 1.362 . S
C801 C802 1.258 . S
C801 C804 1.431 . S
C801 C821 1.449 . S
C802 C801 1.258 . S
C802 C803 1.477 . S
C802 H822 0.931 . S
C803 C799 1.460 . S
C803 C802 1.477 . S
C803 H823 0.930 . S
C804 N800 1.362 . S
C804 C801 1.431 . S
C804 C814 1.476 . S
H805 C799 0.929 . S
C806 O797 1.250 . S
C806 O798 1.258 . S
O807 Mn792 2.162 . S
O807 C795 1.281 . S
O808 Mn792 2.297 . S
O808 C795 1.236 . S
N809 Mn793 2.282 . S
N809 C810 1.328 . S
N809 C814 1.318 . S
C810 N809 1.328 . S
C810 C811 1.457 1_655 S
C810 H815 0.929 . S
C811 C810 1.457 1_455 S
C811 C812 1.291 . S
C811 H824 0.931 . S
C812 C811 1.291 . S
C812 C813 1.373 1_455 S
C812 H825 0.929 . S
C813 C812 1.373 1_655 S
C813 C814 1.396 . S
C813 C820 1.403 . S
C814 C804 1.476 . S
C814 N809 1.318 . S
C814 C813 1.396 . S
H815 C810 0.929 . S
O816 Mn792 2.385 . S
O816 C794 1.234 . S
O817 Mn792 2.209 . S
O817 Mn793 2.215 . S
O817 C794 1.283 . S
O818 Mn792 2.094 . S
O818 C796 1.240 . S
O819 Mn793 2.117 . S
O819 C796 1.264 . S
C820 C813 1.403 . S
C820 C821 1.399 . S
C820 H826 0.929 . S
C821 C801 1.449 . S
C821 C820 1.399 . S
C821 H827 0.930 . S
H822 C802 0.931 . S
H823 C803 0.930 . S
H824 C811 0.931 . S
H825 C812 0.929 . S
H826 C820 0.929 . S
H827 C821 0.930 . S
Mn828 O833 2.095 . S
Mn828 O843 2.162 . S
Mn828 O844 2.297 . S
Mn828 O852 2.385 . S
Mn828 O853 2.209 . S
Mn828 O854 2.094 . S
Mn829 O834 2.121 . S
Mn829 N836 2.257 . S
Mn829 N845 2.282 . S
Mn829 O853 2.215 . S
Mn829 O855 2.117 . S
C830 O852 1.234 . S
C830 O853 1.283 . S
C831 O843 1.281 . S
C831 O844 1.236 . S
C832 O854 1.240 . S
C832 O855 1.264 . S
O833 Mn828 2.095 . S
O833 C842 1.250 . S
O834 Mn829 2.121 . S
O834 C842 1.258 . S
C835 N836 1.326 . S
C835 C839 1.460 . S
C835 H841 0.929 . S
N836 Mn829 2.257 . S
N836 C835 1.326 . S
N836 C840 1.362 . S
C837 C838 1.258 . S
C837 C840 1.431 . S
C837 C857 1.449 . S
C838 C837 1.258 . S
C838 C839 1.477 . S
C838 H858 0.931 . S
C839 C835 1.460 . S
C839 C838 1.477 . S
C839 H859 0.930 . S
C840 N836 1.362 . S
C840 C837 1.431 . S
C840 C850 1.476 . S
H841 C835 0.929 . S
C842 O833 1.250 . S
C842 O834 1.258 . S
O843 Mn828 2.162 . S
O843 C831 1.281 . S
O844 Mn828 2.297 . S
O844 C831 1.236 . S
N845 Mn829 2.282 . S
N845 C846 1.328 . S
N845 C850 1.318 . S
C846 N845 1.328 . S
C846 C847 1.457 . S
C846 H851 0.929 . S
C847 C846 1.457 . S
C847 C848 1.291 . S
C847 H860 0.931 . S
C848 C847 1.291 . S
C848 C849 1.373 . S
C848 H861 0.929 . S
C849 C848 1.373 . S
C849 C850 1.396 . S
C849 C856 1.403 . S
C850 C840 1.476 . S
C850 N845 1.318 . S
C850 C849 1.396 . S
H851 C846 0.929 . S
O852 Mn828 2.385 . S
O852 C830 1.234 . S
O853 Mn828 2.209 . S
O853 Mn829 2.215 . S
O853 C830 1.283 . S
O854 Mn828 2.094 . S
O854 C832 1.240 . S
O855 Mn829 2.117 . S
O855 C832 1.264 . S
C856 C849 1.403 . S
C856 C857 1.399 . S
C856 H862 0.929 . S
C857 C837 1.449 . S
C857 C856 1.399 . S
C857 H863 0.930 . S
H858 C838 0.931 . S
H859 C839 0.930 . S
H860 C847 0.931 . S
H861 C848 0.929 . S
H862 C856 0.929 . S
H863 C857 0.930 . S
Mn864 O869 2.095 . S
Mn864 O879 2.162 . S
Mn864 O880 2.297 . S
Mn864 O888 2.385 . S
Mn864 O889 2.209 . S
Mn864 O890 2.094 . S
Mn865 O870 2.121 . S
Mn865 N872 2.257 . S
Mn865 N881 2.282 . S
Mn865 O889 2.215 . S
Mn865 O891 2.117 . S
C866 O888 1.234 . S
C866 O889 1.283 . S
C867 O879 1.281 . S
C867 O880 1.236 . S
C868 O890 1.240 . S
C868 O891 1.264 . S
O869 Mn864 2.095 . S
O869 C878 1.250 . S
O870 Mn865 2.121 . S
O870 C878 1.258 . S
C871 N872 1.326 . S
C871 C875 1.460 . S
C871 H877 0.929 . S
N872 Mn865 2.257 . S
N872 C871 1.326 . S
N872 C876 1.362 . S
C873 C874 1.258 . S
C873 C876 1.431 . S
C873 C893 1.449 . S
C874 C873 1.258 . S
C874 C875 1.477 . S
C874 H894 0.931 . S
C875 C871 1.460 . S
C875 C874 1.477 . S
C875 H895 0.930 . S
C876 N872 1.362 . S
C876 C873 1.431 . S
C876 C886 1.476 . S
H877 C871 0.929 . S
C878 O869 1.250 . S
C878 O870 1.258 . S
O879 Mn864 2.162 . S
O879 C867 1.281 . S
O880 Mn864 2.297 . S
O880 C867 1.236 . S
N881 Mn865 2.282 . S
N881 C882 1.328 . S
N881 C886 1.318 . S
C882 N881 1.328 . S
C882 C883 1.457 . S
C882 H887 0.929 . S
C883 C882 1.457 . S
C883 C884 1.291 . S
C883 H896 0.931 . S
C884 C883 1.291 . S
C884 C885 1.373 . S
C884 H897 0.929 . S
C885 C884 1.373 . S
C885 C886 1.396 . S
C885 C892 1.403 . S
C886 C876 1.476 . S
C886 N881 1.318 . S
C886 C885 1.396 . S
H887 C882 0.929 . S
O888 Mn864 2.385 . S
O888 C866 1.234 . S
O889 Mn864 2.209 . S
O889 Mn865 2.215 . S
O889 C866 1.283 . S
O890 Mn864 2.094 . S
O890 C868 1.240 . S
O891 Mn865 2.117 . S
O891 C868 1.264 . S
C892 C885 1.403 . S
C892 C893 1.399 . S
C892 H898 0.929 . S
C893 C873 1.449 . S
C893 C892 1.399 . S
C893 H899 0.930 . S
H894 C874 0.931 . S
H895 C875 0.930 . S
H896 C883 0.931 . S
H897 C884 0.929 . S
H898 C892 0.929 . S
H899 C893 0.930 . S
Mn900 O905 2.095 . S
Mn900 O915 2.162 . S
Mn900 O916 2.297 . S
Mn900 O924 2.385 . S
Mn900 O925 2.209 . S
Mn900 O926 2.094 . S
Mn901 O906 2.121 . S
Mn901 N908 2.257 . S
Mn901 N917 2.282 . S
Mn901 O925 2.215 . S
Mn901 O927 2.117 . S
C902 O924 1.234 . S
C902 O925 1.283 . S
C903 O915 1.281 . S
C903 O916 1.236 . S
C904 O926 1.240 . S
C904 O927 1.264 . S
O905 Mn900 2.095 . S
O905 C914 1.250 . S
O906 Mn901 2.121 . S
O906 C914 1.258 . S
C907 N908 1.326 . S
C907 C911 1.460 . S
C907 H913 0.929 . S
N908 Mn901 2.257 . S
N908 C907 1.326 . S
N908 C912 1.362 . S
C909 C910 1.258 . S
C909 C912 1.431 . S
C909 C929 1.449 . S
C910 C909 1.258 . S
C910 C911 1.477 . S
C910 H930 0.931 . S
C911 C907 1.460 . S
C911 C910 1.477 . S
C911 H931 0.930 . S
C912 N908 1.362 . S
C912 C909 1.431 . S
C912 C922 1.476 . S
H913 C907 0.929 . S
C914 O905 1.250 . S
C914 O906 1.258 . S
O915 Mn900 2.162 . S
O915 C903 1.281 . S
O916 Mn900 2.297 . S
O916 C903 1.236 . S
N917 Mn901 2.282 . S
N917 C918 1.328 . S
N917 C922 1.318 . S
C918 N917 1.328 . S
C918 C919 1.457 . S
C918 H923 0.929 . S
C919 C918 1.457 . S
C919 C920 1.291 . S
C919 H932 0.931 . S
C920 C919 1.291 . S
C920 C921 1.373 . S
C920 H933 0.929 . S
C921 C920 1.373 . S
C921 C922 1.396 . S
C921 C928 1.403 . S
C922 C912 1.476 . S
C922 N917 1.318 . S
C922 C921 1.396 . S
H923 C918 0.929 . S
O924 Mn900 2.385 . S
O924 C902 1.234 . S
O925 Mn900 2.209 . S
O925 Mn901 2.215 . S
O925 C902 1.283 . S
O926 Mn900 2.094 . S
O926 C904 1.240 . S
O927 Mn901 2.117 . S
O927 C904 1.264 . S
C928 C921 1.403 . S
C928 C929 1.399 . S
C928 H934 0.929 . S
C929 C909 1.449 . S
C929 C928 1.399 . S
C929 H935 0.930 . S
H930 C910 0.931 . S
H931 C911 0.930 . S
H932 C919 0.931 . S
H933 C920 0.929 . S
H934 C928 0.929 . S
H935 C929 0.930 . S
Mn936 O941 2.095 . S
Mn936 O951 2.162 . S
Mn936 O952 2.297 . S
Mn936 O960 2.385 . S
Mn936 O961 2.209 . S
Mn936 O962 2.094 . S
Mn937 O942 2.121 . S
Mn937 N944 2.266 . S
Mn937 N953 2.282 . S
Mn937 O961 2.215 . S
Mn937 O963 2.117 . S
C938 O960 1.234 . S
C938 O961 1.283 . S
C939 O951 1.281 . S
C939 O952 1.236 . S
C940 O962 1.240 . S
C940 O963 1.264 . S
O941 Mn936 2.095 . S
O941 C950 1.250 . S
O942 Mn937 2.121 . S
O942 C950 1.258 . S
C943 N944 1.324 1_554 S
C943 C947 1.460 . S
C943 H949 0.929 1_554 S
N944 Mn937 2.266 . S
N944 C943 1.324 1_556 S
N944 C948 1.355 1_556 S
C945 C946 1.258 . S
C945 C948 1.431 . S
C945 C965 1.449 . S
C946 C945 1.258 . S
C946 C947 1.477 . S
C946 H966 0.931 . S
C947 C943 1.460 . S
C947 C946 1.477 . S
C947 H967 0.930 . S
C948 N944 1.355 1_554 S
C948 C945 1.431 . S
C948 C958 1.476 . S
H949 C943 0.929 1_556 S
C950 O941 1.250 . S
C950 O942 1.258 . S
O951 Mn936 2.162 . S
O951 C939 1.281 . S
O952 Mn936 2.297 . S
O952 C939 1.236 . S
N953 Mn937 2.282 . S
N953 C954 1.328 . S
N953 C958 1.318 1_556 S
C954 N953 1.328 . S
C954 C955 1.457 1_455 S
C954 H959 0.929 . S
C955 C954 1.457 1_655 S
C955 C956 1.291 1_556 S
C955 H968 0.931 . S
C956 C955 1.291 1_554 S
C956 C957 1.373 1_655 S
C956 H969 0.929 . S
C957 C956 1.373 1_455 S
C957 C958 1.396 . S
C957 C964 1.403 . S
C958 C948 1.476 . S
C958 N953 1.318 1_554 S
C958 C957 1.396 . S
H959 C954 0.929 . S
O960 Mn936 2.385 . S
O960 C938 1.234 . S
O961 Mn936 2.209 . S
O961 Mn937 2.215 . S
O961 C938 1.283 . S
O962 Mn936 2.094 . S
O962 C940 1.240 . S
O963 Mn937 2.117 . S
O963 C940 1.264 . S
C964 C957 1.403 . S
C964 C965 1.399 . S
C964 H970 0.929 . S
C965 C945 1.449 . S
C965 C964 1.399 . S
C965 H971 0.930 . S
H966 C946 0.931 . S
H967 C947 0.930 . S
H968 C955 0.931 . S
H969 C956 0.929 . S
H970 C964 0.929 . S
H971 C965 0.930 . S
Mn972 O977 2.095 . S
Mn972 O987 2.162 . S
Mn972 O988 2.297 . S
Mn972 O996 2.385 . S
Mn972 O997 2.209 . S
Mn972 O998 2.094 . S
Mn973 O978 2.121 . S
Mn973 N980 2.257 . S
Mn973 N989 2.282 . S
Mn973 O997 2.215 . S
Mn973 O999 2.117 . S
C974 O996 1.234 . S
C974 O997 1.283 . S
C975 O987 1.281 . S
C975 O988 1.236 . S
C976 O998 1.240 . S
C976 O999 1.264 . S
O977 Mn972 2.095 . S
O977 C986 1.250 . S
O978 Mn973 2.121 . S
O978 C986 1.258 . S
C979 N980 1.326 . S
C979 C983 1.460 . S
C979 H985 0.929 . S
N980 Mn973 2.257 . S
N980 C979 1.326 . S
N980 C984 1.362 . S
C981 C982 1.258 . S
C981 C984 1.431 . S
C981 C1001 1.449 . S
C982 C981 1.258 . S
C982 C983 1.477 . S
C982 H1002 0.931 1_655 S
C983 C979 1.460 . S
C983 C982 1.477 . S
C983 H1003 0.930 . S
C984 N980 1.362 . S
C984 C981 1.431 . S
C984 C994 1.476 . S
H985 C979 0.929 . S
C986 O977 1.250 . S
C986 O978 1.258 . S
O987 Mn972 2.162 . S
O987 C975 1.281 . S
O988 Mn972 2.297 . S
O988 C975 1.236 . S
N989 Mn973 2.282 . S
N989 C990 1.328 . S
N989 C994 1.318 . S
C990 N989 1.328 . S
C990 C991 1.457 . S
C990 H995 0.929 . S
C991 C990 1.457 . S
C991 C992 1.291 . S
C991 H1004 0.931 . S
C992 C991 1.291 . S
C992 C993 1.373 . S
C992 H1005 0.929 . S
C993 C992 1.373 . S
C993 C994 1.396 . S
C993 C1000 1.403 . S
C994 C984 1.476 . S
C994 N989 1.318 . S
C994 C993 1.396 . S
H995 C990 0.929 . S
O996 Mn972 2.385 . S
O996 C974 1.234 . S
O997 Mn972 2.209 . S
O997 Mn973 2.215 . S
O997 C974 1.283 . S
O998 Mn972 2.094 . S
O998 C976 1.240 . S
O999 Mn973 2.117 . S
O999 C976 1.264 . S
C1000 C993 1.403 . S
C1000 C1001 1.399 . S
C1000 H1006 0.929 . S
C1001 C981 1.449 . S
C1001 C1000 1.399 . S
C1001 H1007 0.930 1_655 S
H1002 C982 0.931 1_455 S
H1003 C983 0.930 . S
H1004 C991 0.931 . S
H1005 C992 0.929 . S
H1006 C1000 0.929 . S
H1007 C1001 0.930 1_455 S
Mn1008 O1013 2.095 . S
Mn1008 O1023 2.162 . S
Mn1008 O1024 2.297 . S
Mn1008 O1032 2.385 . S
Mn1008 O1033 2.209 . S
Mn1008 O1034 2.094 . S
Mn1009 O1014 2.121 . S
Mn1009 N1016 2.266 . S
Mn1009 N1025 2.282 . S
Mn1009 O1033 2.215 . S
Mn1009 O1035 2.117 . S
C1010 O1032 1.234 . S
C1010 O1033 1.283 . S
C1011 O1023 1.281 . S
C1011 O1024 1.236 . S
C1012 O1034 1.240 . S
C1012 O1035 1.264 . S
O1013 Mn1008 2.095 . S
O1013 C1022 1.250 . S
O1014 Mn1009 2.121 . S
O1014 C1022 1.258 . S
C1015 N1016 1.324 1_556 S
C1015 C1019 1.460 . S
C1015 H1021 0.929 1_556 S
N1016 Mn1009 2.266 . S
N1016 C1015 1.324 1_554 S
N1016 C1020 1.355 1_554 S
C1017 C1018 1.258 . S
C1017 C1020 1.431 . S
C1017 C1037 1.449 . S
C1018 C1017 1.258 . S
C1018 C1019 1.477 . S
C1018 H1038 0.931 . S
C1019 C1015 1.460 . S
C1019 C1018 1.477 . S
C1019 H1039 0.930 . S
C1020 N1016 1.355 1_556 S
C1020 C1017 1.431 . S
C1020 C1030 1.476 . S
H1021 C1015 0.929 1_554 S
C1022 O1013 1.250 . S
C1022 O1014 1.258 . S
O1023 Mn1008 2.162 . S
O1023 C1011 1.281 . S
O1024 Mn1008 2.297 . S
O1024 C1011 1.236 . S
N1025 Mn1009 2.282 . S
N1025 C1026 1.328 . S
N1025 C1030 1.318 1_554 S
C1026 N1025 1.328 . S
C1026 C1027 1.457 . S
C1026 H1031 0.929 . S
C1027 C1026 1.457 . S
C1027 C1028 1.291 1_554 S
C1027 H1040 0.931 . S
C1028 C1027 1.291 1_556 S
C1028 C1029 1.373 . S
C1028 H1041 0.929 . S
C1029 C1028 1.373 . S
C1029 C1030 1.396 . S
C1029 C1036 1.403 . S
C1030 C1020 1.476 . S
C1030 N1025 1.318 1_556 S
C1030 C1029 1.396 . S
H1031 C1026 0.929 . S
O1032 Mn1008 2.385 . S
O1032 C1010 1.234 . S
O1033 Mn1008 2.209 . S
O1033 Mn1009 2.215 . S
O1033 C1010 1.283 . S
O1034 Mn1008 2.094 . S
O1034 C1012 1.240 . S
O1035 Mn1009 2.117 . S
O1035 C1012 1.264 . S
C1036 C1029 1.403 . S
C1036 C1037 1.399 . S
C1036 H1042 0.929 . S
C1037 C1017 1.449 . S
C1037 C1036 1.399 . S
C1037 H1043 0.930 . S
H1038 C1018 0.931 . S
H1039 C1019 0.930 . S
H1040 C1027 0.931 . S
H1041 C1028 0.929 . S
H1042 C1036 0.929 . S
H1043 C1037 0.930 . S
Mn1044 O1049 2.095 . S
Mn1044 O1059 2.162 . S
Mn1044 O1060 2.297 . S
Mn1044 O1068 2.385 . S
Mn1044 O1069 2.209 . S
Mn1044 O1070 2.094 . S
Mn1045 O1050 2.121 . S
Mn1045 N1052 2.257 . S
Mn1045 N1061 2.282 . S
Mn1045 O1069 2.215 . S
Mn1045 O1071 2.117 . S
C1046 O1068 1.234 . S
C1046 O1069 1.283 . S
C1047 O1059 1.281 . S
C1047 O1060 1.236 . S
C1048 O1070 1.240 . S
C1048 O1071 1.264 . S
O1049 Mn1044 2.095 . S
O1049 C1058 1.250 . S
O1050 Mn1045 2.121 . S
O1050 C1058 1.258 . S
C1051 N1052 1.326 . S
C1051 C1055 1.460 . S
C1051 H1057 0.929 . S
N1052 Mn1045 2.257 . S
N1052 C1051 1.326 . S
N1052 C1056 1.362 . S
C1053 C1054 1.258 . S
C1053 C1056 1.431 . S
C1053 C1073 1.449 . S
C1054 C1053 1.258 . S
C1054 C1055 1.477 . S
C1054 H1074 0.931 1_655 S
C1055 C1051 1.460 . S
C1055 C1054 1.477 . S
C1055 H1075 0.930 . S
C1056 N1052 1.362 . S
C1056 C1053 1.431 . S
C1056 C1066 1.476 . S
H1057 C1051 0.929 . S
C1058 O1049 1.250 . S
C1058 O1050 1.258 . S
O1059 Mn1044 2.162 . S
O1059 C1047 1.281 . S
O1060 Mn1044 2.297 . S
O1060 C1047 1.236 . S
N1061 Mn1045 2.282 . S
N1061 C1062 1.328 . S
N1061 C1066 1.318 . S
C1062 N1061 1.328 . S
C1062 C1063 1.457 . S
C1062 H1067 0.929 . S
C1063 C1062 1.457 . S
C1063 C1064 1.291 . S
C1063 H1076 0.931 . S
C1064 C1063 1.291 . S
C1064 C1065 1.373 . S
C1064 H1077 0.929 . S
C1065 C1064 1.373 . S
C1065 C1066 1.396 . S
C1065 C1072 1.403 . S
C1066 C1056 1.476 . S
C1066 N1061 1.318 . S
C1066 C1065 1.396 . S
H1067 C1062 0.929 . S
O1068 Mn1044 2.385 . S
O1068 C1046 1.234 . S
O1069 Mn1044 2.209 . S
O1069 Mn1045 2.215 . S
O1069 C1046 1.283 . S
O1070 Mn1044 2.094 . S
O1070 C1048 1.240 . S
O1071 Mn1045 2.117 . S
O1071 C1048 1.264 . S
C1072 C1065 1.403 . S
C1072 C1073 1.399 . S
C1072 H1078 0.929 . S
C1073 C1053 1.449 . S
C1073 C1072 1.399 . S
C1073 H1079 0.930 1_655 S
H1074 C1054 0.931 1_455 S
H1075 C1055 0.930 . S
H1076 C1063 0.931 . S
H1077 C1064 0.929 . S
H1078 C1072 0.929 . S
H1079 C1073 0.930 1_455 S
Mn1080 O1085 2.095 . S
Mn1080 O1095 2.162 . S
Mn1080 O1096 2.297 . S
Mn1080 O1104 2.385 . S
Mn1080 O1105 2.209 . S
Mn1080 O1106 2.094 . S
Mn1081 O1086 2.121 . S
Mn1081 N1088 2.257 . S
Mn1081 N1097 2.282 . S
Mn1081 O1105 2.215 . S
Mn1081 O1107 2.117 . S
C1082 O1104 1.234 . S
C1082 O1105 1.283 . S
C1083 O1095 1.281 . S
C1083 O1096 1.236 . S
C1084 O1106 1.240 . S
C1084 O1107 1.264 . S
O1085 Mn1080 2.095 . S
O1085 C1094 1.250 . S
O1086 Mn1081 2.121 . S
O1086 C1094 1.258 . S
C1087 N1088 1.326 . S
C1087 C1091 1.460 . S
C1087 H1093 0.929 . S
N1088 Mn1081 2.257 . S
N1088 C1087 1.326 . S
N1088 C1092 1.362 . S
C1089 C1090 1.258 . S
C1089 C1092 1.431 . S
C1089 C1109 1.449 . S
C1090 C1089 1.258 . S
C1090 C1091 1.477 . S
C1090 H1110 0.931 . S
C1091 C1087 1.460 . S
C1091 C1090 1.477 . S
C1091 H1111 0.930 . S
C1092 N1088 1.362 . S
C1092 C1089 1.431 . S
C1092 C1102 1.476 . S
H1093 C1087 0.929 . S
C1094 O1085 1.250 . S
C1094 O1086 1.258 . S
O1095 Mn1080 2.162 . S
O1095 C1083 1.281 . S
O1096 Mn1080 2.297 . S
O1096 C1083 1.236 . S
N1097 Mn1081 2.282 . S
N1097 C1098 1.328 . S
N1097 C1102 1.318 . S
C1098 N1097 1.328 . S
C1098 C1099 1.457 1_455 S
C1098 H1103 0.929 . S
C1099 C1098 1.457 1_655 S
C1099 C1100 1.291 . S
C1099 H1112 0.931 . S
C1100 C1099 1.291 . S
C1100 C1101 1.373 1_655 S
C1100 H1113 0.929 . S
C1101 C1100 1.373 1_455 S
C1101 C1102 1.396 . S
C1101 C1108 1.403 . S
C1102 C1092 1.476 . S
C1102 N1097 1.318 . S
C1102 C1101 1.396 . S
H1103 C1098 0.929 . S
O1104 Mn1080 2.385 . S
O1104 C1082 1.234 . S
O1105 Mn1080 2.209 . S
O1105 Mn1081 2.215 . S
O1105 C1082 1.283 . S
O1106 Mn1080 2.094 . S
O1106 C1084 1.240 . S
O1107 Mn1081 2.117 . S
O1107 C1084 1.264 . S
C1108 C1101 1.403 . S
C1108 C1109 1.399 . S
C1108 H1114 0.929 . S
C1109 C1089 1.449 . S
C1109 C1108 1.399 . S
C1109 H1115 0.930 . S
H1110 C1090 0.931 . S
H1111 C1091 0.930 . S
H1112 C1099 0.931 . S
H1113 C1100 0.929 . S
H1114 C1108 0.929 . S
H1115 C1109 0.930 . S
Mn1116 O1121 2.095 . S
Mn1116 O1131 2.162 . S
Mn1116 O1132 2.297 . S
Mn1116 O1140 2.385 . S
Mn1116 O1141 2.209 . S
Mn1116 O1142 2.094 . S
Mn1117 O1122 2.121 . S
Mn1117 N1124 2.257 . S
Mn1117 N1133 2.282 . S
Mn1117 O1141 2.215 . S
Mn1117 O1143 2.117 . S
C1118 O1140 1.234 . S
C1118 O1141 1.283 . S
C1119 O1131 1.281 . S
C1119 O1132 1.236 . S
C1120 O1142 1.240 . S
C1120 O1143 1.264 . S
O1121 Mn1116 2.095 . S
O1121 C1130 1.250 . S
O1122 Mn1117 2.121 . S
O1122 C1130 1.258 . S
C1123 N1124 1.326 . S
C1123 C1127 1.460 . S
C1123 H1129 0.929 . S
N1124 Mn1117 2.257 . S
N1124 C1123 1.326 . S
N1124 C1128 1.362 . S
C1125 C1126 1.258 . S
C1125 C1128 1.431 . S
C1125 C1145 1.449 . S
C1126 C1125 1.258 . S
C1126 C1127 1.477 . S
C1126 H1146 0.931 . S
C1127 C1123 1.460 . S
C1127 C1126 1.477 . S
C1127 H1147 0.930 . S
C1128 N1124 1.362 . S
C1128 C1125 1.431 . S
C1128 C1138 1.476 . S
H1129 C1123 0.929 . S
C1130 O1121 1.250 . S
C1130 O1122 1.258 . S
O1131 Mn1116 2.162 . S
O1131 C1119 1.281 . S
O1132 Mn1116 2.297 . S
O1132 C1119 1.236 . S
N1133 Mn1117 2.282 . S
N1133 C1134 1.328 . S
N1133 C1138 1.318 . S
C1134 N1133 1.328 . S
C1134 C1135 1.457 . S
C1134 H1139 0.929 . S
C1135 C1134 1.457 . S
C1135 C1136 1.291 . S
C1135 H1148 0.931 . S
C1136 C1135 1.291 . S
C1136 C1137 1.373 . S
C1136 H1149 0.929 . S
C1137 C1136 1.373 . S
C1137 C1138 1.396 . S
C1137 C1144 1.403 . S
C1138 C1128 1.476 . S
C1138 N1133 1.318 . S
C1138 C1137 1.396 . S
H1139 C1134 0.929 . S
O1140 Mn1116 2.385 . S
O1140 C1118 1.234 . S
O1141 Mn1116 2.209 . S
O1141 Mn1117 2.215 . S
O1141 C1118 1.283 . S
O1142 Mn1116 2.094 . S
O1142 C1120 1.240 . S
O1143 Mn1117 2.117 . S
O1143 C1120 1.264 . S
C1144 C1137 1.403 . S
C1144 C1145 1.399 . S
C1144 H1150 0.929 . S
C1145 C1125 1.449 . S
C1145 C1144 1.399 . S
C1145 H1151 0.930 . S
H1146 C1126 0.931 . S
H1147 C1127 0.930 . S
H1148 C1135 0.931 . S
H1149 C1136 0.929 . S
H1150 C1144 0.929 . S
H1151 C1145 0.930 . S
H1152 C1158 0.899 1_554 S
H1153 C1162 0.899 1_556 S
H1154 C1167 0.929 . S
H1155 C1165 0.929 . S
H1156 C1160 0.929 . S
H1157 C1166 0.929 . S
C1158 H1152 0.899 1_556 S
C1158 C1159 1.367 . S
C1158 C1166 1.378 1_556 S
C1159 C1158 1.367 . S
C1159 C1167 1.433 . S
C1160 H1156 0.929 . S
C1160 C1162 1.378 1_556 S
C1160 C1164 1.350 1_556 S
C1161 C1164 1.463 1_656 S
C1161 C1166 1.350 1_556 S
C1161 N1169 1.427 . S
C1162 H1153 0.899 1_554 S
C1162 C1160 1.378 1_554 S
C1162 C1163 1.367 . S
C1163 C1162 1.367 . S
C1163 C1165 1.433 . S
C1164 C1160 1.350 1_554 S
C1164 C1161 1.463 1_454 S
C1164 N1168 1.427 . S
C1165 H1155 0.929 . S
C1165 C1163 1.433 . S
C1165 N1168 1.384 . S
C1166 H1157 0.929 . S
C1166 C1158 1.378 1_554 S
C1166 C1161 1.350 1_554 S
C1167 H1154 0.929 . S
C1167 C1159 1.433 . S
C1167 N1169 1.384 . S
N1168 C1164 1.427 . S
N1168 C1165 1.384 . S
N1169 C1161 1.427 . S
N1169 C1167 1.384 . S
H1170 C1176 0.930 . S
H1171 C1180 0.930 . S
H1172 C1185 0.929 . S
H1173 C1183 0.929 . S
H1174 C1178 0.929 . S
H1175 C1184 0.929 . S
C1176 H1170 0.930 . S
C1176 C1177 1.367 . S
C1176 C1184 1.378 . S
C1177 C1176 1.367 . S
C1177 C1185 1.433 . S
C1178 H1174 0.929 . S
C1178 C1180 1.378 . S
C1178 C1182 1.350 . S
C1179 C1182 1.463 . S
C1179 C1184 1.350 . S
C1179 N1187 1.427 . S
C1180 H1171 0.930 . S
C1180 C1178 1.378 . S
C1180 C1181 1.367 . S
C1181 C1180 1.367 . S
C1181 C1183 1.433 . S
C1182 C1178 1.350 . S
C1182 C1179 1.463 . S
C1182 N1186 1.427 . S
C1183 H1173 0.929 . S
C1183 C1181 1.433 . S
C1183 N1186 1.384 . S
C1184 H1175 0.929 . S
C1184 C1176 1.378 . S
C1184 C1179 1.350 . S
C1185 H1172 0.929 . S
C1185 C1177 1.433 . S
C1185 N1187 1.384 . S
N1186 C1182 1.427 . S
N1186 C1183 1.384 . S
N1187 C1179 1.427 . S
N1187 C1185 1.384 . S
H1188 C1194 0.930 . S
H1189 C1198 0.930 . S
H1190 C1203 0.929 . S
H1191 C1201 0.929 . S
H1192 C1196 0.929 . S
H1193 C1202 0.929 . S
C1194 H1188 0.930 . S
C1194 C1195 1.367 . S
C1194 C1202 1.378 . S
C1195 C1194 1.367 . S
C1195 C1203 1.433 . S
C1196 H1192 0.929 . S
C1196 C1198 1.378 . S
C1196 C1200 1.350 . S
C1197 C1200 1.463 . S
C1197 C1202 1.350 . S
C1197 N1205 1.427 . S
C1198 H1189 0.930 . S
C1198 C1196 1.378 . S
C1198 C1199 1.367 . S
C1199 C1198 1.367 . S
C1199 C1201 1.433 . S
C1200 C1196 1.350 . S
C1200 C1197 1.463 . S
C1200 N1204 1.427 . S
C1201 H1191 0.929 . S
C1201 C1199 1.433 . S
C1201 N1204 1.384 . S
C1202 H1193 0.929 . S
C1202 C1194 1.378 . S
C1202 C1197 1.350 . S
C1203 H1190 0.929 . S
C1203 C1195 1.433 . S
C1203 N1205 1.384 . S
N1204 C1200 1.427 . S
N1204 C1201 1.384 . S
N1205 C1197 1.427 . S
N1205 C1203 1.384 . S
H1206 C1212 0.930 . S
H1207 C1216 0.930 . S
H1208 C1221 0.929 . S
H1209 C1219 0.929 . S
H1210 C1214 0.929 . S
H1211 C1220 0.929 . S
C1212 H1206 0.930 . S
C1212 C1213 1.367 . S
C1212 C1220 1.378 . S
C1213 C1212 1.367 . S
C1213 C1221 1.433 . S
C1214 H1210 0.929 . S
C1214 C1216 1.378 . S
C1214 C1218 1.350 . S
C1215 C1218 1.463 . S
C1215 C1220 1.350 . S
C1215 N1223 1.427 . S
C1216 H1207 0.930 . S
C1216 C1214 1.378 . S
C1216 C1217 1.367 . S
C1217 C1216 1.367 . S
C1217 C1219 1.433 . S
C1218 C1214 1.350 . S
C1218 C1215 1.463 . S
C1218 N1222 1.427 . S
C1219 H1209 0.929 . S
C1219 C1217 1.433 . S
C1219 N1222 1.384 . S
C1220 H1211 0.929 . S
C1220 C1212 1.378 . S
C1220 C1215 1.350 . S
C1221 H1208 0.929 . S
C1221 C1213 1.433 . S
C1221 N1223 1.384 . S
N1222 C1218 1.427 . S
N1222 C1219 1.384 . S
N1223 C1215 1.427 . S
N1223 C1221 1.384 . S
H1224 C1230 0.930 . S
H1225 C1234 0.930 . S
H1226 C1239 0.929 . S
H1227 C1237 0.929 . S
H1228 C1232 0.929 . S
H1229 C1238 0.929 . S
C1230 H1224 0.930 . S
C1230 C1231 1.367 . S
C1230 C1238 1.378 . S
C1231 C1230 1.367 . S
C1231 C1239 1.433 . S
C1232 H1228 0.929 . S
C1232 C1234 1.378 . S
C1232 C1236 1.350 . S
C1233 C1236 1.463 1_655 S
C1233 C1238 1.350 . S
C1233 N1241 1.427 . S
C1234 H1225 0.930 . S
C1234 C1232 1.378 . S
C1234 C1235 1.367 . S
C1235 C1234 1.367 . S
C1235 C1237 1.433 . S
C1236 C1232 1.350 . S
C1236 C1233 1.463 1_455 S
C1236 N1240 1.427 . S
C1237 H1227 0.929 . S
C1237 C1235 1.433 . S
C1237 N1240 1.384 . S
C1238 H1229 0.929 . S
C1238 C1230 1.378 . S
C1238 C1233 1.350 . S
C1239 H1226 0.929 . S
C1239 C1231 1.433 . S
C1239 N1241 1.384 . S
N1240 C1236 1.427 . S
N1240 C1237 1.384 . S
N1241 C1233 1.427 . S
N1241 C1239 1.384 . S
H1242 C1248 0.930 . S
H1243 C1252 0.930 . S
H1244 C1257 0.929 . S
H1245 C1255 0.929 . S
H1246 C1250 0.929 . S
H1247 C1256 0.929 . S
C1248 H1242 0.930 . S
C1248 C1249 1.367 . S
C1248 C1256 1.378 . S
C1249 C1248 1.367 . S
C1249 C1257 1.433 . S
C1250 H1246 0.929 . S
C1250 C1252 1.378 . S
C1250 C1254 1.350 . S
C1251 C1254 1.463 . S
C1251 C1256 1.350 . S
C1251 N1259 1.427 . S
C1252 H1243 0.930 . S
C1252 C1250 1.378 . S
C1252 C1253 1.367 . S
C1253 C1252 1.367 . S
C1253 C1255 1.433 . S
C1254 C1250 1.350 . S
C1254 C1251 1.463 . S
C1254 N1258 1.427 . S
C1255 H1245 0.929 . S
C1255 C1253 1.433 . S
C1255 N1258 1.384 . S
C1256 H1247 0.929 . S
C1256 C1248 1.378 . S
C1256 C1251 1.350 . S
C1257 H1244 0.929 . S
C1257 C1249 1.433 . S
C1257 N1259 1.384 . S
N1258 C1254 1.427 . S
N1258 C1255 1.384 . S
N1259 C1251 1.427 . S
N1259 C1257 1.384 . S
H1260 C1266 0.930 1_554 S
H1261 C1270 0.930 1_556 S
H1262 C1275 0.929 . S
H1263 C1273 0.929 . S
H1264 C1268 0.929 . S
H1265 C1274 0.929 . S
C1266 H1260 0.930 1_556 S
C1266 C1267 1.367 . S
C1266 C1274 1.378 1_556 S
C1267 C1266 1.367 . S
C1267 C1275 1.433 . S
C1268 H1264 0.929 . S
C1268 C1270 1.378 1_556 S
C1268 C1272 1.350 1_556 S
C1269 C1272 1.463 1_556 S
C1269 C1274 1.350 1_556 S
C1269 N1277 1.427 . S
C1270 H1261 0.930 1_554 S
C1270 C1268 1.378 1_554 S
C1270 C1271 1.367 . S
C1271 C1270 1.367 . S
C1271 C1273 1.433 . S
C1272 C1268 1.350 1_554 S
C1272 C1269 1.463 1_554 S
C1272 N1276 1.427 . S
C1273 H1263 0.929 . S
C1273 C1271 1.433 . S
C1273 N1276 1.384 . S
C1274 H1265 0.929 . S
C1274 C1266 1.378 1_554 S
C1274 C1269 1.350 1_554 S
C1275 H1262 0.929 . S
C1275 C1267 1.433 . S
C1275 N1277 1.384 . S
N1276 C1272 1.427 . S
N1276 C1273 1.384 . S
N1277 C1269 1.427 . S
N1277 C1275 1.384 . S
H1278 C1284 0.930 . S
H1279 C1288 0.930 . S
H1280 C1293 0.929 . S
H1281 C1291 0.929 . S
H1282 C1286 0.929 . S
H1283 C1292 0.929 . S
C1284 H1278 0.930 . S
C1284 C1285 1.367 . S
C1284 C1292 1.378 . S
C1285 C1284 1.367 . S
C1285 C1293 1.433 . S
C1286 H1282 0.929 . S
C1286 C1288 1.378 . S
C1286 C1290 1.350 . S
C1287 C1290 1.463 . S
C1287 C1292 1.350 . S
C1287 N1295 1.427 . S
C1288 H1279 0.930 . S
C1288 C1286 1.378 . S
C1288 C1289 1.367 . S
C1289 C1288 1.367 . S
C1289 C1291 1.433 . S
C1290 C1286 1.350 . S
C1290 C1287 1.463 . S
C1290 N1294 1.427 . S
C1291 H1281 0.929 . S
C1291 C1289 1.433 . S
C1291 N1294 1.384 . S
C1292 H1283 0.929 . S
C1292 C1284 1.378 . S
C1292 C1287 1.350 . S
C1293 H1280 0.929 . S
C1293 C1285 1.433 . S
C1293 N1295 1.384 . S
N1294 C1290 1.427 . S
N1294 C1291 1.384 . S
N1295 C1287 1.427 . S
N1295 C1293 1.384 . S
H1296 C1302 0.930 . S
H1297 C1306 0.930 . S
H1298 C1311 0.929 . S
H1299 C1309 0.929 . S
H1300 C1304 0.929 . S
H1301 C1310 0.929 . S
C1302 H1296 0.930 . S
C1302 C1303 1.367 . S
C1302 C1310 1.378 . S
C1303 C1302 1.367 . S
C1303 C1311 1.433 . S
C1304 H1300 0.929 . S
C1304 C1306 1.378 . S
C1304 C1308 1.350 . S
C1305 C1308 1.463 . S
C1305 C1310 1.350 . S
C1305 N1313 1.427 . S
C1306 H1297 0.930 . S
C1306 C1304 1.378 . S
C1306 C1307 1.367 . S
C1307 C1306 1.367 . S
C1307 C1309 1.433 . S
C1308 C1304 1.350 . S
C1308 C1305 1.463 . S
C1308 N1312 1.427 . S
C1309 H1299 0.929 . S
C1309 C1307 1.433 . S
C1309 N1312 1.384 . S
C1310 H1301 0.929 . S
C1310 C1302 1.378 . S
C1310 C1305 1.350 . S
C1311 H1298 0.929 . S
C1311 C1303 1.433 . S
C1311 N1313 1.384 . S
N1312 C1308 1.427 . S
N1312 C1309 1.384 . S
N1313 C1305 1.427 . S
N1313 C1311 1.384 . S
H1314 C1320 0.930 . S
H1315 C1324 0.930 . S
H1316 C1329 0.929 . S
H1317 C1327 0.929 . S
H1318 C1322 0.929 . S
H1319 C1328 0.929 . S
C1320 H1314 0.930 . S
C1320 C1321 1.367 . S
C1320 C1328 1.378 . S
C1321 C1320 1.367 . S
C1321 C1329 1.433 . S
C1322 H1318 0.929 . S
C1322 C1324 1.378 . S
C1322 C1326 1.350 . S
C1323 C1326 1.463 . S
C1323 C1328 1.350 . S
C1323 N1331 1.427 . S
C1324 H1315 0.930 . S
C1324 C1322 1.378 . S
C1324 C1325 1.367 . S
C1325 C1324 1.367 . S
C1325 C1327 1.433 . S
C1326 C1322 1.350 . S
C1326 C1323 1.463 . S
C1326 N1330 1.427 . S
C1327 H1317 0.929 . S
C1327 C1325 1.433 . S
C1327 N1330 1.384 . S
C1328 H1319 0.929 . S
C1328 C1320 1.378 . S
C1328 C1323 1.350 . S
C1329 H1316 0.929 . S
C1329 C1321 1.433 . S
C1329 N1331 1.384 . S
N1330 C1326 1.427 . S
N1330 C1327 1.384 . S
N1331 C1323 1.427 . S
N1331 C1329 1.384 . S
H1332 C1338 0.930 . S
H1333 C1342 0.930 . S
H1334 C1347 0.929 . S
H1335 C1345 0.929 . S
H1336 C1340 0.929 . S
H1337 C1346 0.929 . S
C1338 H1332 0.930 . S
C1338 C1339 1.367 . S
C1338 C1346 1.378 . S
C1339 C1338 1.367 . S
C1339 C1347 1.433 . S
C1340 H1336 0.929 . S
C1340 C1342 1.378 . S
C1340 C1344 1.350 . S
C1341 C1344 1.463 . S
C1341 C1346 1.350 . S
C1341 N1349 1.427 . S
C1342 H1333 0.930 . S
C1342 C1340 1.378 . S
C1342 C1343 1.367 . S
C1343 C1342 1.367 . S
C1343 C1345 1.433 . S
C1344 C1340 1.350 . S
C1344 C1341 1.463 . S
C1344 N1348 1.427 . S
C1345 H1335 0.929 . S
C1345 C1343 1.433 . S
C1345 N1348 1.384 . S
C1346 H1337 0.929 . S
C1346 C1338 1.378 . S
C1346 C1341 1.350 . S
C1347 H1334 0.929 . S
C1347 C1339 1.433 . S
C1347 N1349 1.384 . S
N1348 C1344 1.427 . S
N1348 C1345 1.384 . S
N1349 C1341 1.427 . S
N1349 C1347 1.384 . S
H1350 C1356 0.930 . S
H1351 C1360 0.930 . S
H1352 C1365 0.929 . S
H1353 C1363 0.929 . S
H1354 C1358 0.929 . S
H1355 C1364 0.929 . S
C1356 H1350 0.930 . S
C1356 C1357 1.367 . S
C1356 C1364 1.378 . S
C1357 C1356 1.367 . S
C1357 C1365 1.433 . S
C1358 H1354 0.929 . S
C1358 C1360 1.378 . S
C1358 C1362 1.350 . S
C1359 C1362 1.463 . S
C1359 C1364 1.350 . S
C1359 N1367 1.427 . S
C1360 H1351 0.930 . S
C1360 C1358 1.378 . S
C1360 C1361 1.367 . S
C1361 C1360 1.367 . S
C1361 C1363 1.433 . S
C1362 C1358 1.350 . S
C1362 C1359 1.463 . S
C1362 N1366 1.427 . S
C1363 H1353 0.929 . S
C1363 C1361 1.433 . S
C1363 N1366 1.384 . S
C1364 H1355 0.929 . S
C1364 C1356 1.378 . S
C1364 C1359 1.350 . S
C1365 H1352 0.929 . S
C1365 C1357 1.433 . S
C1365 N1367 1.384 . S
N1366 C1362 1.427 . S
N1366 C1363 1.384 . S
N1367 C1359 1.427 . S
N1367 C1365 1.384 . S
H1368 C1374 0.930 . S
H1369 C1378 0.930 . S
H1370 C1383 0.929 . S
H1371 C1381 0.929 . S
H1372 C1376 0.929 . S
H1373 C1382 0.929 . S
C1374 H1368 0.930 . S
C1374 C1375 1.367 . S
C1374 C1382 1.378 . S
C1375 C1374 1.367 . S
C1375 C1383 1.433 . S
C1376 H1372 0.929 . S
C1376 C1378 1.378 . S
C1376 C1380 1.350 . S
C1377 C1380 1.463 1_565 S
C1377 C1382 1.350 . S
C1377 N1385 1.429 . S
C1378 H1369 0.930 . S
C1378 C1376 1.378 . S
C1378 C1379 1.367 . S
C1379 C1378 1.367 . S
C1379 C1381 1.433 . S
C1380 C1376 1.350 . S
C1380 C1377 1.463 1_545 S
C1380 N1384 1.429 . S
C1381 H1371 0.929 . S
C1381 C1379 1.433 . S
C1381 N1384 1.387 . S
C1382 H1373 0.929 . S
C1382 C1374 1.378 . S
C1382 C1377 1.350 . S
C1383 H1370 0.929 . S
C1383 C1375 1.433 . S
C1383 N1385 1.387 . S
N1384 C1380 1.429 . S
N1384 C1381 1.387 . S
N1385 C1377 1.429 . S
N1385 C1383 1.387 . S
H1386 C1392 0.930 . S
H1387 C1396 0.930 . S
H1388 C1401 0.929 . S
H1389 C1399 0.929 . S
H1390 C1394 0.955 1_455 S
H1391 C1400 0.955 1_655 S
C1392 H1386 0.930 . S
C1392 C1393 1.367 . S
C1392 C1400 1.361 1_556 S
C1393 C1392 1.367 . S
C1393 C1401 1.433 . S
C1394 H1390 0.955 1_655 S
C1394 C1396 1.361 1_556 S
C1394 C1398 1.341 1_556 S
C1395 C1398 1.463 1_466 S
C1395 C1400 1.341 1_556 S
C1395 N1403 1.429 1_565 S
C1396 H1387 0.930 . S
C1396 C1394 1.361 1_554 S
C1396 C1397 1.367 . S
C1397 C1396 1.367 . S
C1397 C1399 1.433 . S
C1398 C1394 1.341 1_554 S
C1398 C1395 1.463 1_644 S
C1398 N1402 1.429 1_545 S
C1399 H1389 0.929 . S
C1399 C1397 1.433 . S
C1399 N1402 1.386 1_545 S
C1400 H1391 0.955 1_455 S
C1400 C1392 1.361 1_554 S
C1400 C1395 1.341 1_554 S
C1401 H1388 0.929 . S
C1401 C1393 1.433 . S
C1401 N1403 1.386 1_565 S
N1402 C1398 1.429 1_565 S
N1402 C1399 1.386 1_565 S
N1403 C1395 1.429 1_545 S
N1403 C1401 1.386 1_545 S
H1404 C1410 0.930 . S
H1405 C1414 0.930 . S
H1406 C1419 0.929 . S
H1407 C1417 0.929 . S
H1408 C1412 0.943 . S
H1409 C1418 0.943 . S
C1410 H1404 0.930 . S
C1410 C1411 1.367 . S
C1410 C1418 1.368 1_545 S
C1411 C1410 1.367 . S
C1411 C1419 1.433 . S
C1412 H1408 0.943 . S
C1412 C1414 1.368 1_545 S
C1412 C1416 1.345 1_545 S
C1413 C1416 1.463 1_546 S
C1413 C1418 1.345 1_545 S
C1413 N1421 1.427 . S
C1414 H1405 0.930 . S
C1414 C1412 1.368 1_565 S
C1414 C1415 1.367 . S
C1415 C1414 1.367 . S
C1415 C1417 1.433 . S
C1416 C1412 1.345 1_565 S
C1416 C1413 1.463 1_564 S
C1416 N1420 1.427 . S
C1417 H1407 0.929 . S
C1417 C1415 1.433 . S
C1417 N1420 1.384 . S
C1418 H1409 0.943 . S
C1418 C1410 1.368 1_565 S
C1418 C1413 1.345 1_565 S
C1419 H1406 0.929 . S
C1419 C1411 1.433 . S
C1419 N1421 1.384 . S
N1420 C1416 1.427 . S
N1420 C1417 1.384 . S
N1421 C1413 1.427 . S
N1421 C1419 1.384 . S
H1422 C1428 0.930 . S
H1423 C1432 0.930 . S
H1424 C1437 0.929 . S
H1425 C1435 0.929 . S
H1426 C1430 0.929 . S
H1427 C1436 0.929 . S
C1428 H1422 0.930 . S
C1428 C1429 1.367 . S
C1428 C1436 1.378 . S
C1429 C1428 1.367 . S
C1429 C1437 1.433 . S
C1430 H1426 0.929 . S
C1430 C1432 1.378 . S
C1430 C1434 1.350 . S
C1431 C1434 1.463 1_445 S
C1431 C1436 1.350 . S
C1431 N1439 1.427 . S
C1432 H1423 0.930 . S
C1432 C1430 1.378 . S
C1432 C1433 1.367 . S
C1433 C1432 1.367 . S
C1433 C1435 1.433 . S
C1434 C1430 1.350 . S
C1434 C1431 1.463 1_665 S
C1434 N1438 1.427 . S
C1435 H1425 0.929 . S
C1435 C1433 1.433 . S
C1435 N1438 1.384 . S
C1436 H1427 0.929 . S
C1436 C1428 1.378 . S
C1436 C1431 1.350 . S
C1437 H1424 0.929 . S
C1437 C1429 1.433 . S
C1437 N1439 1.384 . S
N1438 C1434 1.427 . S
N1438 C1435 1.384 . S
N1439 C1431 1.427 . S
N1439 C1437 1.384 . S
H1440 C1446 0.930 . S
H1441 C1450 0.930 . S
H1442 C1455 0.929 . S
H1443 C1453 0.929 . S
H1444 C1448 0.929 . S
H1445 C1454 0.929 . S
C1446 H1440 0.930 . S
C1446 C1447 1.367 . S
C1446 C1454 1.378 . S
C1447 C1446 1.367 . S
C1447 C1455 1.433 . S
C1448 H1444 0.929 . S
C1448 C1450 1.378 . S
C1448 C1452 1.350 . S
C1449 C1452 1.463 1_655 S
C1449 C1454 1.350 . S
C1449 N1457 1.427 . S
C1450 H1441 0.930 . S
C1450 C1448 1.378 . S
C1450 C1451 1.367 . S
C1451 C1450 1.367 . S
C1451 C1453 1.433 . S
C1452 C1448 1.350 . S
C1452 C1449 1.463 1_455 S
C1452 N1456 1.427 . S
C1453 H1443 0.929 . S
C1453 C1451 1.433 . S
C1453 N1456 1.384 . S
C1454 H1445 0.929 . S
C1454 C1446 1.378 . S
C1454 C1449 1.350 . S
C1455 H1442 0.929 . S
C1455 C1447 1.433 . S
C1455 N1457 1.384 . S
N1456 C1452 1.427 . S
N1456 C1453 1.384 . S
N1457 C1449 1.427 . S
N1457 C1455 1.384 . S
H1458 C1464 0.930 . S
H1459 C1468 0.930 . S
H1460 C1473 0.929 . S
H1461 C1471 0.929 . S
H1462 C1466 0.929 . S
H1463 C1472 0.929 . S
C1464 H1458 0.930 . S
C1464 C1465 1.367 . S
C1464 C1472 1.378 . S
C1465 C1464 1.367 . S
C1465 C1473 1.433 . S
C1466 H1462 0.929 . S
C1466 C1468 1.378 . S
C1466 C1470 1.350 . S
C1467 C1470 1.463 1_455 S
C1467 C1472 1.350 . S
C1467 N1475 1.427 . S
C1468 H1459 0.930 . S
C1468 C1466 1.378 . S
C1468 C1469 1.367 . S
C1469 C1468 1.367 . S
C1469 C1471 1.433 . S
C1470 C1466 1.350 . S
C1470 C1467 1.463 1_655 S
C1470 N1474 1.427 . S
C1471 H1461 0.929 . S
C1471 C1469 1.433 . S
C1471 N1474 1.384 . S
C1472 H1463 0.929 . S
C1472 C1464 1.378 . S
C1472 C1467 1.350 . S
C1473 H1460 0.929 . S
C1473 C1465 1.433 . S
C1473 N1475 1.384 . S
N1474 C1470 1.427 . S
N1474 C1471 1.384 . S
N1475 C1467 1.427 . S
N1475 C1473 1.384 . S
H1476 C1482 0.930 . S
H1477 C1486 0.930 . S
H1478 C1491 0.929 . S
H1479 C1489 0.929 . S
H1480 C1484 0.929 . S
H1481 C1490 0.929 . S
C1482 H1476 0.930 . S
C1482 C1483 1.367 . S
C1482 C1490 1.378 . S
C1483 C1482 1.367 . S
C1483 C1491 1.433 . S
C1484 H1480 0.929 . S
C1484 C1486 1.378 . S
C1484 C1488 1.350 . S
C1485 C1488 1.463 . S
C1485 C1490 1.350 . S
C1485 N1493 1.427 . S
C1486 H1477 0.930 . S
C1486 C1484 1.378 . S
C1486 C1487 1.367 . S
C1487 C1486 1.367 . S
C1487 C1489 1.433 . S
C1488 C1484 1.350 . S
C1488 C1485 1.463 . S
C1488 N1492 1.427 . S
C1489 H1479 0.929 . S
C1489 C1487 1.433 . S
C1489 N1492 1.384 . S
C1490 H1481 0.929 . S
C1490 C1482 1.378 . S
C1490 C1485 1.350 . S
C1491 H1478 0.929 . S
C1491 C1483 1.433 . S
C1491 N1493 1.384 . S
N1492 C1488 1.427 . S
N1492 C1489 1.384 . S
N1493 C1485 1.427 . S
N1493 C1491 1.384 . S
H1494 C1500 0.930 . S
H1495 C1504 0.930 . S
H1496 C1509 0.929 . S
H1497 C1507 0.929 . S
H1498 C1502 0.929 . S
H1499 C1508 0.929 . S
C1500 H1494 0.930 . S
C1500 C1501 1.367 . S
C1500 C1508 1.378 . S
C1501 C1500 1.367 . S
C1501 C1509 1.433 . S
C1502 H1498 0.929 . S
C1502 C1504 1.378 . S
C1502 C1506 1.350 . S
C1503 C1506 1.463 . S
C1503 C1508 1.350 . S
C1503 N1511 1.427 . S
C1504 H1495 0.930 . S
C1504 C1502 1.378 . S
C1504 C1505 1.367 . S
C1505 C1504 1.367 . S
C1505 C1507 1.433 . S
C1506 C1502 1.350 . S
C1506 C1503 1.463 . S
C1506 N1510 1.427 . S
C1507 H1497 0.929 . S
C1507 C1505 1.433 . S
C1507 N1510 1.384 . S
C1508 H1499 0.929 . S
C1508 C1500 1.378 . S
C1508 C1503 1.350 . S
C1509 H1496 0.929 . S
C1509 C1501 1.433 . S
C1509 N1511 1.384 . S
N1510 C1506 1.427 . S
N1510 C1507 1.384 . S
N1511 C1503 1.427 . S
N1511 C1509 1.384 . S
H1512 C1518 0.930 . S
H1513 C1522 0.930 . S
H1514 C1527 0.929 . S
H1515 C1525 0.929 . S
H1516 C1520 0.929 . S
H1517 C1526 0.929 . S
C1518 H1512 0.930 . S
C1518 C1519 1.367 . S
C1518 C1526 1.378 1_655 S
C1519 C1518 1.367 . S
C1519 C1527 1.433 . S
C1520 H1516 0.929 . S
C1520 C1522 1.378 1_655 S
C1520 C1524 1.350 1_655 S
C1521 C1524 1.463 1_655 S
C1521 C1526 1.350 1_655 S
C1521 N1529 1.427 . S
C1522 H1513 0.930 . S
C1522 C1520 1.378 1_455 S
C1522 C1523 1.367 . S
C1523 C1522 1.367 . S
C1523 C1525 1.433 . S
C1524 C1520 1.350 1_455 S
C1524 C1521 1.463 1_455 S
C1524 N1528 1.427 . S
C1525 H1515 0.929 . S
C1525 C1523 1.433 . S
C1525 N1528 1.384 . S
C1526 H1517 0.929 . S
C1526 C1518 1.378 1_455 S
C1526 C1521 1.350 1_455 S
C1527 H1514 0.929 . S
C1527 C1519 1.433 . S
C1527 N1529 1.384 . S
N1528 C1524 1.427 . S
N1528 C1525 1.384 . S
N1529 C1521 1.427 . S
N1529 C1527 1.384 . S
H1530 C1536 0.930 . S
H1531 C1540 0.930 . S
H1532 C1545 0.929 . S
H1533 C1543 0.929 . S
H1534 C1538 0.929 . S
H1535 C1544 0.929 . S
C1536 H1530 0.930 . S
C1536 C1537 1.367 . S
C1536 C1544 1.378 . S
C1537 C1536 1.367 . S
C1537 C1545 1.433 . S
C1538 H1534 0.929 . S
C1538 C1540 1.378 . S
C1538 C1542 1.350 . S
C1539 C1542 1.463 . S
C1539 C1544 1.350 . S
C1539 N1547 1.427 . S
C1540 H1531 0.930 . S
C1540 C1538 1.378 . S
C1540 C1541 1.367 . S
C1541 C1540 1.367 . S
C1541 C1543 1.433 . S
C1542 C1538 1.350 . S
C1542 C1539 1.463 . S
C1542 N1546 1.427 . S
C1543 H1533 0.929 . S
C1543 C1541 1.433 . S
C1543 N1546 1.384 . S
C1544 H1535 0.929 . S
C1544 C1536 1.378 . S
C1544 C1539 1.350 . S
C1545 H1532 0.929 . S
C1545 C1537 1.433 . S
C1545 N1547 1.384 . S
N1546 C1542 1.427 . S
N1546 C1543 1.384 . S
N1547 C1539 1.427 . S
N1547 C1545 1.384 . S
H1548 C1554 0.930 . S
H1549 C1558 0.930 . S
H1550 C1563 0.929 . S
H1551 C1561 0.929 . S
H1552 C1556 0.929 . S
H1553 C1562 0.929 . S
C1554 H1548 0.930 . S
C1554 C1555 1.367 . S
C1554 C1562 1.378 . S
C1555 C1554 1.367 . S
C1555 C1563 1.433 . S
C1556 H1552 0.929 . S
C1556 C1558 1.378 . S
C1556 C1560 1.350 . S
C1557 C1560 1.463 . S
C1557 C1562 1.350 . S
C1557 N1565 1.427 . S
C1558 H1549 0.930 . S
C1558 C1556 1.378 . S
C1558 C1559 1.367 . S
C1559 C1558 1.367 . S
C1559 C1561 1.433 . S
C1560 C1556 1.350 . S
C1560 C1557 1.463 . S
C1560 N1564 1.427 . S
C1561 H1551 0.929 . S
C1561 C1559 1.433 . S
C1561 N1564 1.384 . S
C1562 H1553 0.929 . S
C1562 C1554 1.378 . S
C1562 C1557 1.350 . S
C1563 H1550 0.929 . S
C1563 C1555 1.433 . S
C1563 N1565 1.384 . S
N1564 C1560 1.427 . S
N1564 C1561 1.384 . S
N1565 C1557 1.427 . S
N1565 C1563 1.384 . S
H1566 C1572 0.930 . S
H1567 C1576 0.930 . S
H1568 C1581 0.929 . S
H1569 C1579 0.929 . S
H1570 C1574 0.929 1_455 S
H1571 C1580 0.929 1_655 S
C1572 H1566 0.930 . S
C1572 C1573 1.367 . S
C1572 C1580 1.378 . S
C1573 C1572 1.367 . S
C1573 C1581 1.433 . S
C1574 H1570 0.929 1_655 S
C1574 C1576 1.378 . S
C1574 C1578 1.350 . S
C1575 C1578 1.463 1_455 S
C1575 C1580 1.350 . S
C1575 N1583 1.427 . S
C1576 H1567 0.930 . S
C1576 C1574 1.378 . S
C1576 C1577 1.367 . S
C1577 C1576 1.367 . S
C1577 C1579 1.433 . S
C1578 C1574 1.350 . S
C1578 C1575 1.463 1_655 S
C1578 N1582 1.427 . S
C1579 H1569 0.929 . S
C1579 C1577 1.433 . S
C1579 N1582 1.384 . S
C1580 H1571 0.929 1_455 S
C1580 C1572 1.378 . S
C1580 C1575 1.350 . S
C1581 H1568 0.929 . S
C1581 C1573 1.433 . S
C1581 N1583 1.384 . S
N1582 C1578 1.427 . S
N1582 C1579 1.384 . S
N1583 C1575 1.427 . S
N1583 C1581 1.384 . S
H1584 C1590 0.930 . S
H1585 C1594 0.930 . S
H1586 C1599 0.929 . S
H1587 C1597 0.929 . S
H1588 C1592 0.929 . S
H1589 C1598 0.929 . S
C1590 H1584 0.930 . S
C1590 C1591 1.367 . S
C1590 C1598 1.378 . S
C1591 C1590 1.367 . S
C1591 C1599 1.433 . S
C1592 H1588 0.929 . S
C1592 C1594 1.378 . S
C1592 C1596 1.350 . S
C1593 C1596 1.463 1_655 S
C1593 C1598 1.350 . S
C1593 N1601 1.427 . S
C1594 H1585 0.930 . S
C1594 C1592 1.378 . S
C1594 C1595 1.367 . S
C1595 C1594 1.367 . S
C1595 C1597 1.433 . S
C1596 C1592 1.350 . S
C1596 C1593 1.463 1_455 S
C1596 N1600 1.427 . S
C1597 H1587 0.929 . S
C1597 C1595 1.433 . S
C1597 N1600 1.384 . S
C1598 H1589 0.929 . S
C1598 C1590 1.378 . S
C1598 C1593 1.350 . S
C1599 H1586 0.929 . S
C1599 C1591 1.433 . S
C1599 N1601 1.384 . S
N1600 C1596 1.427 . S
N1600 C1597 1.384 . S
N1601 C1593 1.427 . S
N1601 C1599 1.384 . S
H1602 C1608 0.930 . S
H1603 C1612 0.930 . S
H1604 C1617 0.929 . S
H1605 C1615 0.929 . S
H1606 C1610 0.929 1_655 S
H1607 C1616 0.929 1_455 S
C1608 H1602 0.930 . S
C1608 C1609 1.367 . S
C1608 C1616 1.378 . S
C1609 C1608 1.367 . S
C1609 C1617 1.433 . S
C1610 H1606 0.929 1_455 S
C1610 C1612 1.378 . S
C1610 C1614 1.350 . S
C1611 C1614 1.463 1_655 S
C1611 C1616 1.350 . S
C1611 N1619 1.427 . S
C1612 H1603 0.930 . S
C1612 C1610 1.378 . S
C1612 C1613 1.367 . S
C1613 C1612 1.367 . S
C1613 C1615 1.433 . S
C1614 C1610 1.350 . S
C1614 C1611 1.463 1_455 S
C1614 N1618 1.427 . S
C1615 H1605 0.929 . S
C1615 C1613 1.433 . S
C1615 N1618 1.384 . S
C1616 H1607 0.929 1_655 S
C1616 C1608 1.378 . S
C1616 C1611 1.350 . S
C1617 H1604 0.929 . S
C1617 C1609 1.433 . S
C1617 N1619 1.384 . S
N1618 C1614 1.427 . S
N1618 C1615 1.384 . S
N1619 C1611 1.427 . S
N1619 C1617 1.384 . S
H1620 C1626 0.930 . S
H1621 C1630 0.930 . S
H1622 C1635 0.929 . S
H1623 C1633 0.929 . S
H1624 C1628 0.929 . S
H1625 C1634 0.929 . S
C1626 H1620 0.930 . S
C1626 C1627 1.367 . S
C1626 C1634 1.378 . S
C1627 C1626 1.367 . S
C1627 C1635 1.433 . S
C1628 H1624 0.929 . S
C1628 C1630 1.378 . S
C1628 C1632 1.350 . S
C1629 C1632 1.463 . S
C1629 C1634 1.350 . S
C1629 N1637 1.427 . S
C1630 H1621 0.930 . S
C1630 C1628 1.378 . S
C1630 C1631 1.367 . S
C1631 C1630 1.367 . S
C1631 C1633 1.433 . S
C1632 C1628 1.350 . S
C1632 C1629 1.463 . S
C1632 N1636 1.427 . S
C1633 H1623 0.929 . S
C1633 C1631 1.433 . S
C1633 N1636 1.384 . S
C1634 H1625 0.929 . S
C1634 C1626 1.378 . S
C1634 C1629 1.350 . S
C1635 H1622 0.929 . S
C1635 C1627 1.433 . S
C1635 N1637 1.384 . S
N1636 C1632 1.427 . S
N1636 C1633 1.384 . S
N1637 C1629 1.427 . S
N1637 C1635 1.384 . S
H1638 C1644 0.930 . S
H1639 C1648 0.930 . S
H1640 C1653 0.929 . S
H1641 C1651 0.929 . S
H1642 C1646 0.929 . S
H1643 C1652 0.929 . S
C1644 H1638 0.930 . S
C1644 C1645 1.367 . S
C1644 C1652 1.378 . S
C1645 C1644 1.367 . S
C1645 C1653 1.433 . S
C1646 H1642 0.929 . S
C1646 C1648 1.378 . S
C1646 C1650 1.350 . S
C1647 C1650 1.463 . S
C1647 C1652 1.350 . S
C1647 N1655 1.427 . S
C1648 H1639 0.930 . S
C1648 C1646 1.378 . S
C1648 C1649 1.367 . S
C1649 C1648 1.367 . S
C1649 C1651 1.433 . S
C1650 C1646 1.350 . S
C1650 C1647 1.463 . S
C1650 N1654 1.427 . S
C1651 H1641 0.929 . S
C1651 C1649 1.433 . S
C1651 N1654 1.384 . S
C1652 H1643 0.929 . S
C1652 C1644 1.378 . S
C1652 C1647 1.350 . S
C1653 H1640 0.929 . S
C1653 C1645 1.433 . S
C1653 N1655 1.384 . S
N1654 C1650 1.427 . S
N1654 C1651 1.384 . S
N1655 C1647 1.427 . S
N1655 C1653 1.384 . S
H1656 C1662 0.930 . S
H1657 C1666 0.930 . S
H1658 C1671 0.929 . S
H1659 C1669 0.929 . S
H1660 C1664 0.929 . S
H1661 C1670 0.929 . S
C1662 H1656 0.930 . S
C1662 C1663 1.367 . S
C1662 C1670 1.378 1_655 S
C1663 C1662 1.367 . S
C1663 C1671 1.433 . S
C1664 H1660 0.929 . S
C1664 C1666 1.378 1_655 S
C1664 C1668 1.350 1_655 S
C1665 C1668 1.463 1_655 S
C1665 C1670 1.350 1_655 S
C1665 N1673 1.427 . S
C1666 H1657 0.930 . S
C1666 C1664 1.378 1_455 S
C1666 C1667 1.367 . S
C1667 C1666 1.367 . S
C1667 C1669 1.433 . S
C1668 C1664 1.350 1_455 S
C1668 C1665 1.463 1_455 S
C1668 N1672 1.427 . S
C1669 H1659 0.929 . S
C1669 C1667 1.433 . S
C1669 N1672 1.384 . S
C1670 H1661 0.929 . S
C1670 C1662 1.378 1_455 S
C1670 C1665 1.350 1_455 S
C1671 H1658 0.929 . S
C1671 C1663 1.433 . S
C1671 N1673 1.384 . S
N1672 C1668 1.427 . S
N1672 C1669 1.384 . S
N1673 C1665 1.427 . S
N1673 C1671 1.384 . S
H1674 C1680 0.930 . S
H1675 C1684 0.930 . S
H1676 C1689 0.929 . S
H1677 C1687 0.929 . S
H1678 C1682 0.929 . S
H1679 C1688 0.929 . S
C1680 H1674 0.930 . S
C1680 C1681 1.367 . S
C1680 C1688 1.378 . S
C1681 C1680 1.367 . S
C1681 C1689 1.433 . S
C1682 H1678 0.929 . S
C1682 C1684 1.378 . S
C1682 C1686 1.350 . S
C1683 C1686 1.463 . S
C1683 C1688 1.350 . S
C1683 N1691 1.427 . S
C1684 H1675 0.930 . S
C1684 C1682 1.378 . S
C1684 C1685 1.367 . S
C1685 C1684 1.367 . S
C1685 C1687 1.433 . S
C1686 C1682 1.350 . S
C1686 C1683 1.463 . S
C1686 N1690 1.427 . S
C1687 H1677 0.929 . S
C1687 C1685 1.433 . S
C1687 N1690 1.384 . S
C1688 H1679 0.929 . S
C1688 C1680 1.378 . S
C1688 C1683 1.350 . S
C1689 H1676 0.929 . S
C1689 C1681 1.433 . S
C1689 N1691 1.384 . S
N1690 C1686 1.427 . S
N1690 C1687 1.384 . S
N1691 C1683 1.427 . S
N1691 C1689 1.384 . S
H1692 C1698 0.930 . S
H1693 C1702 0.930 . S
H1694 C1707 0.929 . S
H1695 C1705 0.929 . S
H1696 C1700 0.929 . S
H1697 C1706 0.929 . S
C1698 H1692 0.930 . S
C1698 C1699 1.367 . S
C1698 C1706 1.378 . S
C1699 C1698 1.367 . S
C1699 C1707 1.433 . S
C1700 H1696 0.929 . S
C1700 C1702 1.378 . S
C1700 C1704 1.350 . S
C1701 C1704 1.463 . S
C1701 C1706 1.350 . S
C1701 N1709 1.427 . S
C1702 H1693 0.930 . S
C1702 C1700 1.378 . S
C1702 C1703 1.367 . S
C1703 C1702 1.367 . S
C1703 C1705 1.433 . S
C1704 C1700 1.350 . S
C1704 C1701 1.463 . S
C1704 N1708 1.427 . S
C1705 H1695 0.929 . S
C1705 C1703 1.433 . S
C1705 N1708 1.384 . S
C1706 H1697 0.929 . S
C1706 C1698 1.378 . S
C1706 C1701 1.350 . S
C1707 H1694 0.929 . S
C1707 C1699 1.433 . S
C1707 N1709 1.384 . S
N1708 C1704 1.427 . S
N1708 C1705 1.384 . S
N1709 C1701 1.427 . S
N1709 C1707 1.384 . S
H1710 C1716 0.930 . S
H1711 C1720 0.930 . S
H1712 C1725 0.929 . S
H1713 C1723 0.929 . S
H1714 C1718 0.929 . S
H1715 C1724 0.929 . S
C1716 H1710 0.930 . S
C1716 C1717 1.367 . S
C1716 C1724 1.378 . S
C1717 C1716 1.367 . S
C1717 C1725 1.433 . S
C1718 H1714 0.929 . S
C1718 C1720 1.378 . S
C1718 C1722 1.350 . S
C1719 C1722 1.463 1_655 S
C1719 C1724 1.350 . S
C1719 N1727 1.427 . S
C1720 H1711 0.930 . S
C1720 C1718 1.378 . S
C1720 C1721 1.367 . S
C1721 C1720 1.367 . S
C1721 C1723 1.433 . S
C1722 C1718 1.350 . S
C1722 C1719 1.463 1_455 S
C1722 N1726 1.427 . S
C1723 H1713 0.929 . S
C1723 C1721 1.433 . S
C1723 N1726 1.384 . S
C1724 H1715 0.929 . S
C1724 C1716 1.378 . S
C1724 C1719 1.350 . S
C1725 H1712 0.929 . S
C1725 C1717 1.433 . S
C1725 N1727 1.384 . S
N1726 C1722 1.427 . S
N1726 C1723 1.384 . S
N1727 C1719 1.427 . S
N1727 C1725 1.384 . S
H1728 C1734 0.930 . S
H1729 C1738 0.930 . S
H1730 C1743 0.929 . S
H1731 C1741 0.929 . S
H1732 C1736 0.929 . S
H1733 C1742 0.929 . S
C1734 H1728 0.930 . S
C1734 C1735 1.367 . S
C1734 C1742 1.378 1_556 S
C1735 C1734 1.367 . S
C1735 C1743 1.433 . S
C1736 H1732 0.929 . S
C1736 C1738 1.378 1_556 S
C1736 C1740 1.350 1_556 S
C1737 C1740 1.463 1_556 S
C1737 C1742 1.350 1_556 S
C1737 N1745 1.427 . S
C1738 H1729 0.930 . S
C1738 C1736 1.378 1_554 S
C1738 C1739 1.367 . S
C1739 C1738 1.367 . S
C1739 C1741 1.433 . S
C1740 C1736 1.350 1_554 S
C1740 C1737 1.463 1_554 S
C1740 N1744 1.427 . S
C1741 H1731 0.929 . S
C1741 C1739 1.433 . S
C1741 N1744 1.384 . S
C1742 H1733 0.929 . S
C1742 C1734 1.378 1_554 S
C1742 C1737 1.350 1_554 S
C1743 H1730 0.929 . S
C1743 C1735 1.433 . S
C1743 N1745 1.384 . S
N1744 C1740 1.427 . S
N1744 C1741 1.384 . S
N1745 C1737 1.427 . S
N1745 C1743 1.384 . S
H1746 C1752 0.930 . S
H1747 C1756 0.930 . S
H1748 C1761 0.929 . S
H1749 C1759 0.929 . S
H1750 C1754 0.929 . S
H1751 C1760 0.929 . S
C1752 H1746 0.930 . S
C1752 C1753 1.367 . S
C1752 C1760 1.378 . S
C1753 C1752 1.367 . S
C1753 C1761 1.433 . S
C1754 H1750 0.929 . S
C1754 C1756 1.378 . S
C1754 C1758 1.350 . S
C1755 C1758 1.463 1_545 S
C1755 C1760 1.350 . S
C1755 N1763 1.427 . S
C1756 H1747 0.930 . S
C1756 C1754 1.378 . S
C1756 C1757 1.367 . S
C1757 C1756 1.367 . S
C1757 C1759 1.433 . S
C1758 C1754 1.350 . S
C1758 C1755 1.463 1_565 S
C1758 N1762 1.427 . S
C1759 H1749 0.929 . S
C1759 C1757 1.433 . S
C1759 N1762 1.384 . S
C1760 H1751 0.929 . S
C1760 C1752 1.378 . S
C1760 C1755 1.350 . S
C1761 H1748 0.929 . S
C1761 C1753 1.433 . S
C1761 N1763 1.384 . S
N1762 C1758 1.427 . S
N1762 C1759 1.384 . S
N1763 C1755 1.427 . S
N1763 C1761 1.384 . S
H1764 C1770 0.930 . S
H1765 C1774 0.930 . S
H1766 C1779 0.929 . S
H1767 C1777 0.929 . S
H1768 C1772 0.929 . S
H1769 C1778 0.929 . S
C1770 H1764 0.930 . S
C1770 C1771 1.367 . S
C1770 C1778 1.378 . S
C1771 C1770 1.367 . S
C1771 C1779 1.433 . S
C1772 H1768 0.929 . S
C1772 C1774 1.378 . S
C1772 C1776 1.350 . S
C1773 C1776 1.463 . S
C1773 C1778 1.350 . S
C1773 N1781 1.427 . S
C1774 H1765 0.930 . S
C1774 C1772 1.378 . S
C1774 C1775 1.367 . S
C1775 C1774 1.367 . S
C1775 C1777 1.433 . S
C1776 C1772 1.350 . S
C1776 C1773 1.463 . S
C1776 N1780 1.427 . S
C1777 H1767 0.929 . S
C1777 C1775 1.433 . S
C1777 N1780 1.384 . S
C1778 H1769 0.929 . S
C1778 C1770 1.378 . S
C1778 C1773 1.350 . S
C1779 H1766 0.929 . S
C1779 C1771 1.433 . S
C1779 N1781 1.384 . S
N1780 C1776 1.427 . S
N1780 C1777 1.384 . S
N1781 C1773 1.427 . S
N1781 C1779 1.384 . S
H1782 C1788 0.930 . S
H1783 C1792 0.930 . S
H1784 C1797 0.929 . S
H1785 C1795 0.929 . S
H1786 C1790 0.929 . S
H1787 C1796 0.929 . S
C1788 H1782 0.930 . S
C1788 C1789 1.367 . S
C1788 C1796 1.378 . S
C1789 C1788 1.367 . S
C1789 C1797 1.433 . S
C1790 H1786 0.929 . S
C1790 C1792 1.378 . S
C1790 C1794 1.350 . S
C1791 C1794 1.463 1_545 S
C1791 C1796 1.350 . S
C1791 N1799 1.427 . S
C1792 H1783 0.930 . S
C1792 C1790 1.378 . S
C1792 C1793 1.367 . S
C1793 C1792 1.367 . S
C1793 C1795 1.433 . S
C1794 C1790 1.350 . S
C1794 C1791 1.463 1_565 S
C1794 N1798 1.427 . S
C1795 H1785 0.929 . S
C1795 C1793 1.433 . S
C1795 N1798 1.384 . S
C1796 H1787 0.929 . S
C1796 C1788 1.378 . S
C1796 C1791 1.350 . S
C1797 H1784 0.929 . S
C1797 C1789 1.433 . S
C1797 N1799 1.384 . S
N1798 C1794 1.427 . S
N1798 C1795 1.384 . S
N1799 C1791 1.427 . S
N1799 C1797 1.384 . S
H1800 C1806 0.930 . S
H1801 C1810 0.930 . S
H1802 C1815 0.929 . S
H1803 C1813 0.929 . S
H1804 C1808 0.929 . S
H1805 C1814 0.929 . S
C1806 H1800 0.930 . S
C1806 C1807 1.367 . S
C1806 C1814 1.378 . S
C1807 C1806 1.367 . S
C1807 C1815 1.433 . S
C1808 H1804 0.929 . S
C1808 C1810 1.378 . S
C1808 C1812 1.350 . S
C1809 C1812 1.463 1_554 S
C1809 C1814 1.350 . S
C1809 N1817 1.427 . S
C1810 H1801 0.930 . S
C1810 C1808 1.378 . S
C1810 C1811 1.367 . S
C1811 C1810 1.367 . S
C1811 C1813 1.433 . S
C1812 C1808 1.350 . S
C1812 C1809 1.463 1_556 S
C1812 N1816 1.427 . S
C1813 H1803 0.929 . S
C1813 C1811 1.433 . S
C1813 N1816 1.384 . S
C1814 H1805 0.929 . S
C1814 C1806 1.378 . S
C1814 C1809 1.350 . S
C1815 H1802 0.929 . S
C1815 C1807 1.433 . S
C1815 N1817 1.384 . S
N1816 C1812 1.427 . S
N1816 C1813 1.384 . S
N1817 C1809 1.427 . S
N1817 C1815 1.384 . S
H1818 C1824 0.930 . S
H1819 C1828 0.930 . S
H1820 C1833 0.929 . S
H1821 C1831 0.929 . S
H1822 C1826 0.929 . S
H1823 C1832 0.929 . S
C1824 H1818 0.930 . S
C1824 C1825 1.367 . S
C1824 C1832 1.378 . S
C1825 C1824 1.367 . S
C1825 C1833 1.433 . S
C1826 H1822 0.929 . S
C1826 C1828 1.378 . S
C1826 C1830 1.350 . S
C1827 C1830 1.463 1_565 S
C1827 C1832 1.350 . S
C1827 N1835 1.427 . S
C1828 H1819 0.930 . S
C1828 C1826 1.378 . S
C1828 C1829 1.367 . S
C1829 C1828 1.367 . S
C1829 C1831 1.433 . S
C1830 C1826 1.350 . S
C1830 C1827 1.463 1_545 S
C1830 N1834 1.427 . S
C1831 H1821 0.929 . S
C1831 C1829 1.433 . S
C1831 N1834 1.384 . S
C1832 H1823 0.929 . S
C1832 C1824 1.378 . S
C1832 C1827 1.350 . S
C1833 H1820 0.929 . S
C1833 C1825 1.433 . S
C1833 N1835 1.384 . S
N1834 C1830 1.427 . S
N1834 C1831 1.384 . S
N1835 C1827 1.427 . S
N1835 C1833 1.384 . S
H1836 C1842 0.930 . S
H1837 C1846 0.930 . S
H1838 C1851 0.929 . S
H1839 C1849 0.929 . S
H1840 C1844 0.929 . S
H1841 C1850 0.929 . S
C1842 H1836 0.930 . S
C1842 C1843 1.367 . S
C1842 C1850 1.378 . S
C1843 C1842 1.367 . S
C1843 C1851 1.433 . S
C1844 H1840 0.929 . S
C1844 C1846 1.378 . S
C1844 C1848 1.350 . S
C1845 C1848 1.463 . S
C1845 C1850 1.350 . S
C1845 N1853 1.427 . S
C1846 H1837 0.930 . S
C1846 C1844 1.378 . S
C1846 C1847 1.367 . S
C1847 C1846 1.367 . S
C1847 C1849 1.433 . S
C1848 C1844 1.350 . S
C1848 C1845 1.463 . S
C1848 N1852 1.427 . S
C1849 H1839 0.929 . S
C1849 C1847 1.433 . S
C1849 N1852 1.384 . S
C1850 H1841 0.929 . S
C1850 C1842 1.378 . S
C1850 C1845 1.350 . S
C1851 H1838 0.929 . S
C1851 C1843 1.433 . S
C1851 N1853 1.384 . S
N1852 C1848 1.427 . S
N1852 C1849 1.384 . S
N1853 C1845 1.427 . S
N1853 C1851 1.384 . S
H1854 C1860 0.930 . S
H1855 C1864 0.930 . S
H1856 C1869 0.929 . S
H1857 C1867 0.929 . S
H1858 C1862 0.929 . S
H1859 C1868 0.929 . S
C1860 H1854 0.930 . S
C1860 C1861 1.367 . S
C1860 C1868 1.378 . S
C1861 C1860 1.367 . S
C1861 C1869 1.433 . S
C1862 H1858 0.929 . S
C1862 C1864 1.378 . S
C1862 C1866 1.350 . S
C1863 C1866 1.463 1_545 S
C1863 C1868 1.350 . S
C1863 N1871 1.427 . S
C1864 H1855 0.930 . S
C1864 C1862 1.378 . S
C1864 C1865 1.367 . S
C1865 C1864 1.367 . S
C1865 C1867 1.433 . S
C1866 C1862 1.350 . S
C1866 C1863 1.463 1_565 S
C1866 N1870 1.427 . S
C1867 H1857 0.929 . S
C1867 C1865 1.433 . S
C1867 N1870 1.384 . S
C1868 H1859 0.929 . S
C1868 C1860 1.378 . S
C1868 C1863 1.350 . S
C1869 H1856 0.929 . S
C1869 C1861 1.433 . S
C1869 N1871 1.384 . S
N1870 C1866 1.427 . S
N1870 C1867 1.384 . S
N1871 C1863 1.427 . S
N1871 C1869 1.384 . S
H1872 C1878 0.930 . S
H1873 C1882 0.930 . S
H1874 C1887 0.929 . S
H1875 C1885 0.929 . S
H1876 C1880 0.929 . S
H1877 C1886 0.929 . S
C1878 H1872 0.930 . S
C1878 C1879 1.367 . S
C1878 C1886 1.378 . S
C1879 C1878 1.367 . S
C1879 C1887 1.433 . S
C1880 H1876 0.929 . S
C1880 C1882 1.378 . S
C1880 C1884 1.350 . S
C1881 C1884 1.463 . S
C1881 C1886 1.350 . S
C1881 N1889 1.427 . S
C1882 H1873 0.930 . S
C1882 C1880 1.378 . S
C1882 C1883 1.367 . S
C1883 C1882 1.367 . S
C1883 C1885 1.433 . S
C1884 C1880 1.350 . S
C1884 C1881 1.463 . S
C1884 N1888 1.427 . S
C1885 H1875 0.929 . S
C1885 C1883 1.433 . S
C1885 N1888 1.384 . S
C1886 H1877 0.929 . S
C1886 C1878 1.378 . S
C1886 C1881 1.350 . S
C1887 H1874 0.929 . S
C1887 C1879 1.433 . S
C1887 N1889 1.384 . S
N1888 C1884 1.427 . S
N1888 C1885 1.384 . S
N1889 C1881 1.427 . S
N1889 C1887 1.384 . S
H1890 C1896 0.930 . S
H1891 C1900 0.930 . S
H1892 C1905 0.929 . S
H1893 C1903 0.929 . S
H1894 C1898 0.929 . S
H1895 C1904 0.929 . S
C1896 H1890 0.930 . S
C1896 C1897 1.367 . S
C1896 C1904 1.378 . S
C1897 C1896 1.367 . S
C1897 C1905 1.433 . S
C1898 H1894 0.929 . S
C1898 C1900 1.378 . S
C1898 C1902 1.350 . S
C1899 C1902 1.463 . S
C1899 C1904 1.350 . S
C1899 N1907 1.427 . S
C1900 H1891 0.930 . S
C1900 C1898 1.378 . S
C1900 C1901 1.367 . S
C1901 C1900 1.367 . S
C1901 C1903 1.433 . S
C1902 C1898 1.350 . S
C1902 C1899 1.463 . S
C1902 N1906 1.427 . S
C1903 H1893 0.929 . S
C1903 C1901 1.433 . S
C1903 N1906 1.384 . S
C1904 H1895 0.929 . S
C1904 C1896 1.378 . S
C1904 C1899 1.350 . S
C1905 H1892 0.929 . S
C1905 C1897 1.433 . S
C1905 N1907 1.384 . S
N1906 C1902 1.427 . S
N1906 C1903 1.384 . S
N1907 C1899 1.427 . S
N1907 C1905 1.384 . S
H1908 C1914 0.930 . S
H1909 C1918 0.930 . S
H1910 C1923 0.929 . S
H1911 C1921 0.929 . S
H1912 C1916 0.929 . S
H1913 C1922 0.929 . S
C1914 H1908 0.930 . S
C1914 C1915 1.367 . S
C1914 C1922 1.378 1_554 S
C1915 C1914 1.367 . S
C1915 C1923 1.433 . S
C1916 H1912 0.929 . S
C1916 C1918 1.378 1_554 S
C1916 C1920 1.350 1_554 S
C1917 C1920 1.463 1_554 S
C1917 C1922 1.350 1_554 S
C1917 N1925 1.427 . S
C1918 H1909 0.930 . S
C1918 C1916 1.378 1_556 S
C1918 C1919 1.367 . S
C1919 C1918 1.367 . S
C1919 C1921 1.433 . S
C1920 C1916 1.350 1_556 S
C1920 C1917 1.463 1_556 S
C1920 N1924 1.427 . S
C1921 H1911 0.929 . S
C1921 C1919 1.433 . S
C1921 N1924 1.384 . S
C1922 H1913 0.929 . S
C1922 C1914 1.378 1_556 S
C1922 C1917 1.350 1_556 S
C1923 H1910 0.929 . S
C1923 C1915 1.433 . S
C1923 N1925 1.384 . S
N1924 C1920 1.427 . S
N1924 C1921 1.384 . S
N1925 C1917 1.427 . S
N1925 C1923 1.384 . S
H1926 C1932 0.930 . S
H1927 C1936 0.930 . S
H1928 C1941 0.929 . S
H1929 C1939 0.929 . S
H1930 C1934 0.929 . S
H1931 C1940 0.929 . S
C1932 H1926 0.930 . S
C1932 C1933 1.367 . S
C1932 C1940 1.378 . S
C1933 C1932 1.367 . S
C1933 C1941 1.433 . S
C1934 H1930 0.929 . S
C1934 C1936 1.378 . S
C1934 C1938 1.350 . S
C1935 C1938 1.463 . S
C1935 C1940 1.350 . S
C1935 N1943 1.427 . S
C1936 H1927 0.930 . S
C1936 C1934 1.378 . S
C1936 C1937 1.367 . S
C1937 C1936 1.367 . S
C1937 C1939 1.433 . S
C1938 C1934 1.350 . S
C1938 C1935 1.463 . S
C1938 N1942 1.427 . S
C1939 H1929 0.929 . S
C1939 C1937 1.433 . S
C1939 N1942 1.384 . S
C1940 H1931 0.929 . S
C1940 C1932 1.378 . S
C1940 C1935 1.350 . S
C1941 H1928 0.929 . S
C1941 C1933 1.433 . S
C1941 N1943 1.384 . S
N1942 C1938 1.427 . S
N1942 C1939 1.384 . S
N1943 C1935 1.427 . S
N1943 C1941 1.384 . S
H1944 C1950 0.930 . S
H1945 C1954 0.930 . S
H1946 C1959 0.929 . S
H1947 C1957 0.929 . S
H1948 C1952 0.929 . S
H1949 C1958 0.929 . S
C1950 H1944 0.930 . S
C1950 C1951 1.367 . S
C1950 C1958 1.378 . S
C1951 C1950 1.367 . S
C1951 C1959 1.433 . S
C1952 H1948 0.929 . S
C1952 C1954 1.378 . S
C1952 C1956 1.350 . S
C1953 C1956 1.463 . S
C1953 C1958 1.350 . S
C1953 N1961 1.427 . S
C1954 H1945 0.930 . S
C1954 C1952 1.378 . S
C1954 C1955 1.367 . S
C1955 C1954 1.367 . S
C1955 C1957 1.433 . S
C1956 C1952 1.350 . S
C1956 C1953 1.463 . S
C1956 N1960 1.427 . S
C1957 H1947 0.929 . S
C1957 C1955 1.433 . S
C1957 N1960 1.384 . S
C1958 H1949 0.929 . S
C1958 C1950 1.378 . S
C1958 C1953 1.350 . S
C1959 H1946 0.929 . S
C1959 C1951 1.433 . S
C1959 N1961 1.384 . S
N1960 C1956 1.427 . S
N1960 C1957 1.384 . S
N1961 C1953 1.427 . S
N1961 C1959 1.384 . S
H1962 C1968 0.930 . S
H1963 C1972 0.930 . S
H1964 C1977 0.929 . S
H1965 C1975 0.929 . S
H1966 C1970 0.929 . S
H1967 C1976 0.929 . S
C1968 H1962 0.930 . S
C1968 C1969 1.367 . S
C1968 C1976 1.378 . S
C1969 C1968 1.367 . S
C1969 C1977 1.433 . S
C1970 H1966 0.929 . S
C1970 C1972 1.378 . S
C1970 C1974 1.350 . S
C1971 C1974 1.463 . S
C1971 C1976 1.350 . S
C1971 N1979 1.427 . S
C1972 H1963 0.930 . S
C1972 C1970 1.378 . S
C1972 C1973 1.367 . S
C1973 C1972 1.367 . S
C1973 C1975 1.433 . S
C1974 C1970 1.350 . S
C1974 C1971 1.463 . S
C1974 N1978 1.427 . S
C1975 H1965 0.929 . S
C1975 C1973 1.433 . S
C1975 N1978 1.384 . S
C1976 H1967 0.929 . S
C1976 C1968 1.378 . S
C1976 C1971 1.350 . S
C1977 H1964 0.929 . S
C1977 C1969 1.433 . S
C1977 N1979 1.384 . S
N1978 C1974 1.427 . S
N1978 C1975 1.384 . S
N1979 C1971 1.427 . S
N1979 C1977 1.384 . S
H1980 C1986 0.930 . S
H1981 C1990 0.930 . S
H1982 C1995 0.929 . S
H1983 C1993 0.929 . S
H1984 C1988 0.929 1_556 S
H1985 C1994 0.929 1_554 S
C1986 H1980 0.930 . S
C1986 C1987 1.367 . S
C1986 C1994 1.378 . S
C1987 C1986 1.367 . S
C1987 C1995 1.433 . S
C1988 H1984 0.929 1_554 S
C1988 C1990 1.378 . S
C1988 C1992 1.350 . S
C1989 C1992 1.463 1_556 S
C1989 C1994 1.350 . S
C1989 N1997 1.427 . S
C1990 H1981 0.930 . S
C1990 C1988 1.378 . S
C1990 C1991 1.367 . S
C1991 C1990 1.367 . S
C1991 C1993 1.433 . S
C1992 C1988 1.350 . S
C1992 C1989 1.463 1_554 S
C1992 N1996 1.427 . S
C1993 H1983 0.929 . S
C1993 C1991 1.433 . S
C1993 N1996 1.384 . S
C1994 H1985 0.929 1_556 S
C1994 C1986 1.378 . S
C1994 C1989 1.350 . S
C1995 H1982 0.929 . S
C1995 C1987 1.433 . S
C1995 N1997 1.384 . S
N1996 C1992 1.427 . S
N1996 C1993 1.384 . S
N1997 C1989 1.427 . S
N1997 C1995 1.384 . S
H1998 C2004 0.930 . S
H1999 C2008 0.930 . S
H2000 C2013 0.929 . S
H2001 C2011 0.929 . S
H2002 C2006 0.929 . S
H2003 C2012 0.929 . S
C2004 H1998 0.930 . S
C2004 C2005 1.367 . S
C2004 C2012 1.378 . S
C2005 C2004 1.367 . S
C2005 C2013 1.433 . S
C2006 H2002 0.929 . S
C2006 C2008 1.378 . S
C2006 C2010 1.350 . S
C2007 C2010 1.463 . S
C2007 C2012 1.350 . S
C2007 N2015 1.427 . S
C2008 H1999 0.930 . S
C2008 C2006 1.378 . S
C2008 C2009 1.367 . S
C2009 C2008 1.367 . S
C2009 C2011 1.433 . S
C2010 C2006 1.350 . S
C2010 C2007 1.463 . S
C2010 N2014 1.427 . S
C2011 H2001 0.929 . S
C2011 C2009 1.433 . S
C2011 N2014 1.384 . S
C2012 H2003 0.929 . S
C2012 C2004 1.378 . S
C2012 C2007 1.350 . S
C2013 H2000 0.929 . S
C2013 C2005 1.433 . S
C2013 N2015 1.384 . S
N2014 C2010 1.427 . S
N2014 C2011 1.384 . S
N2015 C2007 1.427 . S
N2015 C2013 1.384 . S
H2016 C2022 0.930 . S
H2017 C2026 0.930 . S
H2018 C2031 0.929 . S
H2019 C2029 0.929 . S
H2020 C2024 0.929 . S
H2021 C2030 0.929 . S
C2022 H2016 0.930 . S
C2022 C2023 1.367 . S
C2022 C2030 1.378 . S
C2023 C2022 1.367 . S
C2023 C2031 1.433 . S
C2024 H2020 0.929 . S
C2024 C2026 1.378 . S
C2024 C2028 1.350 . S
C2025 C2028 1.463 . S
C2025 C2030 1.350 . S
C2025 N2033 1.427 . S
C2026 H2017 0.930 . S
C2026 C2024 1.378 . S
C2026 C2027 1.367 . S
C2027 C2026 1.367 . S
C2027 C2029 1.433 . S
C2028 C2024 1.350 . S
C2028 C2025 1.463 . S
C2028 N2032 1.427 . S
C2029 H2019 0.929 . S
C2029 C2027 1.433 . S
C2029 N2032 1.384 . S
C2030 H2021 0.929 . S
C2030 C2022 1.378 . S
C2030 C2025 1.350 . S
C2031 H2018 0.929 . S
C2031 C2023 1.433 . S
C2031 N2033 1.384 . S
N2032 C2028 1.427 . S
N2032 C2029 1.384 . S
N2033 C2025 1.427 . S
N2033 C2031 1.384 . S
H2034 C2040 0.930 . S
H2035 C2044 0.930 . S
H2036 C2049 0.929 . S
H2037 C2047 0.929 . S
H2038 C2042 0.929 . S
H2039 C2048 0.929 . S
C2040 H2034 0.930 . S
C2040 C2041 1.367 . S
C2040 C2048 1.378 . S
C2041 C2040 1.367 . S
C2041 C2049 1.433 . S
C2042 H2038 0.929 . S
C2042 C2044 1.378 . S
C2042 C2046 1.350 . S
C2043 C2046 1.463 . S
C2043 C2048 1.350 . S
C2043 N2051 1.427 . S
C2044 H2035 0.930 . S
C2044 C2042 1.378 . S
C2044 C2045 1.367 . S
C2045 C2044 1.367 . S
C2045 C2047 1.433 . S
C2046 C2042 1.350 . S
C2046 C2043 1.463 . S
C2046 N2050 1.427 . S
C2047 H2037 0.929 . S
C2047 C2045 1.433 . S
C2047 N2050 1.384 . S
C2048 H2039 0.929 . S
C2048 C2040 1.378 . S
C2048 C2043 1.350 . S
C2049 H2036 0.929 . S
C2049 C2041 1.433 . S
C2049 N2051 1.384 . S
N2050 C2046 1.427 . S
N2050 C2047 1.384 . S
N2051 C2043 1.427 . S
N2051 C2049 1.384 . S
H2052 C2058 0.930 . S
H2053 C2062 0.930 . S
H2054 C2067 0.929 . S
H2055 C2065 0.929 . S
H2056 C2060 0.929 . S
H2057 C2066 0.929 . S
C2058 H2052 0.930 . S
C2058 C2059 1.367 . S
C2058 C2066 1.378 . S
C2059 C2058 1.367 . S
C2059 C2067 1.433 . S
C2060 H2056 0.929 . S
C2060 C2062 1.378 . S
C2060 C2064 1.350 . S
C2061 C2064 1.463 . S
C2061 C2066 1.350 . S
C2061 N2069 1.427 . S
C2062 H2053 0.930 . S
C2062 C2060 1.378 . S
C2062 C2063 1.367 . S
C2063 C2062 1.367 . S
C2063 C2065 1.433 . S
C2064 C2060 1.350 . S
C2064 C2061 1.463 . S
C2064 N2068 1.427 . S
C2065 H2055 0.929 . S
C2065 C2063 1.433 . S
C2065 N2068 1.384 . S
C2066 H2057 0.929 . S
C2066 C2058 1.378 . S
C2066 C2061 1.350 . S
C2067 H2054 0.929 . S
C2067 C2059 1.433 . S
C2067 N2069 1.384 . S
N2068 C2064 1.427 . S
N2068 C2065 1.384 . S
N2069 C2061 1.427 . S
N2069 C2067 1.384 . S
H2070 C2076 0.930 . S
H2071 C2080 0.930 . S
H2072 C2085 0.929 . S
H2073 C2083 0.929 . S
H2074 C2078 0.929 . S
H2075 C2084 0.929 . S
C2076 H2070 0.930 . S
C2076 C2077 1.367 . S
C2076 C2084 1.378 . S
C2077 C2076 1.367 . S
C2077 C2085 1.433 . S
C2078 H2074 0.929 . S
C2078 C2080 1.378 . S
C2078 C2082 1.350 . S
C2079 C2082 1.463 . S
C2079 C2084 1.350 . S
C2079 N2087 1.427 . S
C2080 H2071 0.930 . S
C2080 C2078 1.378 . S
C2080 C2081 1.367 . S
C2081 C2080 1.367 . S
C2081 C2083 1.433 . S
C2082 C2078 1.350 . S
C2082 C2079 1.463 . S
C2082 N2086 1.427 . S
C2083 H2073 0.929 . S
C2083 C2081 1.433 . S
C2083 N2086 1.384 . S
C2084 H2075 0.929 . S
C2084 C2076 1.378 . S
C2084 C2079 1.350 . S
C2085 H2072 0.929 . S
C2085 C2077 1.433 . S
C2085 N2087 1.384 . S
N2086 C2082 1.427 . S
N2086 C2083 1.384 . S
N2087 C2079 1.427 . S
N2087 C2085 1.384 . S
H2088 C2094 0.930 . S
H2089 C2098 0.930 . S
H2090 C2103 0.929 . S
H2091 C2101 0.929 . S
H2092 C2096 0.929 . S
H2093 C2102 0.929 . S
C2094 H2088 0.930 . S
C2094 C2095 1.367 . S
C2094 C2102 1.378 . S
C2095 C2094 1.367 . S
C2095 C2103 1.433 . S
C2096 H2092 0.929 . S
C2096 C2098 1.378 . S
C2096 C2100 1.350 . S
C2097 C2100 1.463 . S
C2097 C2102 1.350 . S
C2097 N2105 1.427 . S
C2098 H2089 0.930 . S
C2098 C2096 1.378 . S
C2098 C2099 1.367 . S
C2099 C2098 1.367 . S
C2099 C2101 1.433 . S
C2100 C2096 1.350 . S
C2100 C2097 1.463 . S
C2100 N2104 1.427 . S
C2101 H2091 0.929 . S
C2101 C2099 1.433 . S
C2101 N2104 1.384 . S
C2102 H2093 0.929 . S
C2102 C2094 1.378 . S
C2102 C2097 1.350 . S
C2103 H2090 0.929 . S
C2103 C2095 1.433 . S
C2103 N2105 1.384 . S
N2104 C2100 1.427 . S
N2104 C2101 1.384 . S
N2105 C2097 1.427 . S
N2105 C2103 1.384 . S
H2106 C2112 0.930 . S
H2107 C2116 0.930 . S
H2108 C2121 0.929 . S
H2109 C2119 0.929 . S
H2110 C2114 0.929 . S
H2111 C2120 0.929 . S
C2112 H2106 0.930 . S
C2112 C2113 1.367 . S
C2112 C2120 1.378 . S
C2113 C2112 1.367 . S
C2113 C2121 1.433 . S
C2114 H2110 0.929 . S
C2114 C2116 1.378 . S
C2114 C2118 1.350 . S
C2115 C2118 1.463 . S
C2115 C2120 1.350 . S
C2115 N2123 1.427 . S
C2116 H2107 0.930 . S
C2116 C2114 1.378 . S
C2116 C2117 1.367 . S
C2117 C2116 1.367 . S
C2117 C2119 1.433 . S
C2118 C2114 1.350 . S
C2118 C2115 1.463 . S
C2118 N2122 1.427 . S
C2119 H2109 0.929 . S
C2119 C2117 1.433 . S
C2119 N2122 1.384 . S
C2120 H2111 0.929 . S
C2120 C2112 1.378 . S
C2120 C2115 1.350 . S
C2121 H2108 0.929 . S
C2121 C2113 1.433 . S
C2121 N2123 1.384 . S
N2122 C2118 1.427 . S
N2122 C2119 1.384 . S
N2123 C2115 1.427 . S
N2123 C2121 1.384 . S
H2124 C2130 0.930 . S
H2125 C2134 0.930 . S
H2126 C2139 0.929 . S
H2127 C2137 0.929 . S
H2128 C2132 0.929 . S
H2129 C2138 0.929 . S
C2130 H2124 0.930 . S
C2130 C2131 1.367 . S
C2130 C2138 1.378 . S
C2131 C2130 1.367 . S
C2131 C2139 1.433 . S
C2132 H2128 0.929 . S
C2132 C2134 1.378 . S
C2132 C2136 1.350 . S
C2133 C2136 1.463 . S
C2133 C2138 1.350 . S
C2133 N2141 1.427 . S
C2134 H2125 0.930 . S
C2134 C2132 1.378 . S
C2134 C2135 1.367 . S
C2135 C2134 1.367 . S
C2135 C2137 1.433 . S
C2136 C2132 1.350 . S
C2136 C2133 1.463 . S
C2136 N2140 1.427 . S
C2137 H2127 0.929 . S
C2137 C2135 1.433 . S
C2137 N2140 1.384 . S
C2138 H2129 0.929 . S
C2138 C2130 1.378 . S
C2138 C2133 1.350 . S
C2139 H2126 0.929 . S
C2139 C2131 1.433 . S
C2139 N2141 1.384 . S
N2140 C2136 1.427 . S
N2140 C2137 1.384 . S
N2141 C2133 1.427 . S
N2141 C2139 1.384 . S
H2142 C2148 0.930 . S
H2143 C2152 0.930 . S
H2144 C2157 0.929 . S
H2145 C2155 0.929 . S
H2146 C2150 0.929 . S
H2147 C2156 0.929 . S
C2148 H2142 0.930 . S
C2148 C2149 1.367 . S
C2148 C2156 1.378 . S
C2149 C2148 1.367 . S
C2149 C2157 1.433 . S
C2150 H2146 0.929 . S
C2150 C2152 1.378 . S
C2150 C2154 1.350 . S
C2151 C2154 1.463 . S
C2151 C2156 1.350 . S
C2151 N2159 1.427 . S
C2152 H2143 0.930 . S
C2152 C2150 1.378 . S
C2152 C2153 1.367 . S
C2153 C2152 1.367 . S
C2153 C2155 1.433 . S
C2154 C2150 1.350 . S
C2154 C2151 1.463 . S
C2154 N2158 1.427 . S
C2155 H2145 0.929 . S
C2155 C2153 1.433 . S
C2155 N2158 1.384 . S
C2156 H2147 0.929 . S
C2156 C2148 1.378 . S
C2156 C2151 1.350 . S
C2157 H2144 0.929 . S
C2157 C2149 1.433 . S
C2157 N2159 1.384 . S
N2158 C2154 1.427 . S
N2158 C2155 1.384 . S
N2159 C2151 1.427 . S
N2159 C2157 1.384 . S
H2160 C2166 0.930 . S
H2161 C2170 0.930 . S
H2162 C2175 0.929 . S
H2163 C2173 0.929 . S
H2164 C2168 0.929 . S
H2165 C2174 0.929 . S
C2166 H2160 0.930 . S
C2166 C2167 1.367 . S
C2166 C2174 1.378 . S
C2167 C2166 1.367 . S
C2167 C2175 1.433 . S
C2168 H2164 0.929 . S
C2168 C2170 1.378 . S
C2168 C2172 1.350 . S
C2169 C2172 1.463 . S
C2169 C2174 1.350 . S
C2169 N2177 1.427 . S
C2170 H2161 0.930 . S
C2170 C2168 1.378 . S
C2170 C2171 1.367 . S
C2171 C2170 1.367 . S
C2171 C2173 1.433 . S
C2172 C2168 1.350 . S
C2172 C2169 1.463 . S
C2172 N2176 1.427 . S
C2173 H2163 0.929 . S
C2173 C2171 1.433 . S
C2173 N2176 1.384 . S
C2174 H2165 0.929 . S
C2174 C2166 1.378 . S
C2174 C2169 1.350 . S
C2175 H2162 0.929 . S
C2175 C2167 1.433 . S
C2175 N2177 1.384 . S
N2176 C2172 1.427 . S
N2176 C2173 1.384 . S
N2177 C2169 1.427 . S
N2177 C2175 1.384 . S
H2178 C2184 0.930 . S
H2179 C2188 0.930 . S
H2180 C2193 0.929 . S
H2181 C2191 0.929 . S
H2182 C2186 0.929 . S
H2183 C2192 0.929 . S
C2184 H2178 0.930 . S
C2184 C2185 1.367 . S
C2184 C2192 1.378 . S
C2185 C2184 1.367 . S
C2185 C2193 1.433 . S
C2186 H2182 0.929 . S
C2186 C2188 1.378 . S
C2186 C2190 1.350 . S
C2187 C2190 1.463 . S
C2187 C2192 1.350 . S
C2187 N2195 1.427 . S
C2188 H2179 0.930 . S
C2188 C2186 1.378 . S
C2188 C2189 1.367 . S
C2189 C2188 1.367 . S
C2189 C2191 1.433 . S
C2190 C2186 1.350 . S
C2190 C2187 1.463 . S
C2190 N2194 1.427 . S
C2191 H2181 0.929 . S
C2191 C2189 1.433 . S
C2191 N2194 1.384 . S
C2192 H2183 0.929 . S
C2192 C2184 1.378 . S
C2192 C2187 1.350 . S
C2193 H2180 0.929 . S
C2193 C2185 1.433 . S
C2193 N2195 1.384 . S
N2194 C2190 1.427 . S
N2194 C2191 1.384 . S
N2195 C2187 1.427 . S
N2195 C2193 1.384 . S
H2196 C2202 0.930 . S
H2197 C2206 0.930 . S
H2198 C2211 0.929 . S
H2199 C2209 0.929 . S
H2200 C2204 0.929 . S
H2201 C2210 0.929 . S
C2202 H2196 0.930 . S
C2202 C2203 1.367 . S
C2202 C2210 1.378 . S
C2203 C2202 1.367 . S
C2203 C2211 1.433 . S
C2204 H2200 0.929 . S
C2204 C2206 1.378 . S
C2204 C2208 1.350 . S
C2205 C2208 1.463 . S
C2205 C2210 1.350 . S
C2205 N2213 1.427 . S
C2206 H2197 0.930 . S
C2206 C2204 1.378 . S
C2206 C2207 1.367 . S
C2207 C2206 1.367 . S
C2207 C2209 1.433 . S
C2208 C2204 1.350 . S
C2208 C2205 1.463 . S
C2208 N2212 1.427 . S
C2209 H2199 0.929 . S
C2209 C2207 1.433 . S
C2209 N2212 1.384 . S
C2210 H2201 0.929 . S
C2210 C2202 1.378 . S
C2210 C2205 1.350 . S
C2211 H2198 0.929 . S
C2211 C2203 1.433 . S
C2211 N2213 1.384 . S
N2212 C2208 1.427 . S
N2212 C2209 1.384 . S
N2213 C2205 1.427 . S
N2213 C2211 1.384 . S
H2214 C2220 0.930 . S
H2215 C2224 0.930 . S
H2216 C2229 0.929 . S
H2217 C2227 0.929 . S
H2218 C2222 0.929 . S
H2219 C2228 0.929 . S
C2220 H2214 0.930 . S
C2220 C2221 1.367 . S
C2220 C2228 1.378 . S
C2221 C2220 1.367 . S
C2221 C2229 1.433 . S
C2222 H2218 0.929 . S
C2222 C2224 1.378 . S
C2222 C2226 1.350 . S
C2223 C2226 1.463 . S
C2223 C2228 1.350 . S
C2223 N2231 1.427 . S
C2224 H2215 0.930 . S
C2224 C2222 1.378 . S
C2224 C2225 1.367 . S
C2225 C2224 1.367 . S
C2225 C2227 1.433 . S
C2226 C2222 1.350 . S
C2226 C2223 1.463 . S
C2226 N2230 1.427 . S
C2227 H2217 0.929 . S
C2227 C2225 1.433 . S
C2227 N2230 1.384 . S
C2228 H2219 0.929 . S
C2228 C2220 1.378 . S
C2228 C2223 1.350 . S
C2229 H2216 0.929 . S
C2229 C2221 1.433 . S
C2229 N2231 1.384 . S
N2230 C2226 1.427 . S
N2230 C2227 1.384 . S
N2231 C2223 1.427 . S
N2231 C2229 1.384 . S
H2232 C2238 0.930 . S
H2233 C2242 0.930 . S
H2234 C2247 0.929 . S
H2235 C2245 0.929 . S
H2236 C2240 0.929 . S
H2237 C2246 0.929 . S
C2238 H2232 0.930 . S
C2238 C2239 1.367 . S
C2238 C2246 1.378 . S
C2239 C2238 1.367 . S
C2239 C2247 1.433 . S
C2240 H2236 0.929 . S
C2240 C2242 1.378 . S
C2240 C2244 1.350 . S
C2241 C2244 1.463 . S
C2241 C2246 1.350 . S
C2241 N2249 1.427 . S
C2242 H2233 0.930 . S
C2242 C2240 1.378 . S
C2242 C2243 1.367 . S
C2243 C2242 1.367 . S
C2243 C2245 1.433 . S
C2244 C2240 1.350 . S
C2244 C2241 1.463 . S
C2244 N2248 1.427 . S
C2245 H2235 0.929 . S
C2245 C2243 1.433 . S
C2245 N2248 1.384 . S
C2246 H2237 0.929 . S
C2246 C2238 1.378 . S
C2246 C2241 1.350 . S
C2247 H2234 0.929 . S
C2247 C2239 1.433 . S
C2247 N2249 1.384 . S
N2248 C2244 1.427 . S
N2248 C2245 1.384 . S
N2249 C2241 1.427 . S
N2249 C2247 1.384 . S
H2250 C2256 0.930 . S
H2251 C2260 0.930 . S
H2252 C2265 0.929 . S
H2253 C2263 0.929 . S
H2254 C2258 0.929 . S
H2255 C2264 0.929 . S
C2256 H2250 0.930 . S
C2256 C2257 1.367 . S
C2256 C2264 1.378 . S
C2257 C2256 1.367 . S
C2257 C2265 1.433 . S
C2258 H2254 0.929 . S
C2258 C2260 1.378 . S
C2258 C2262 1.350 . S
C2259 C2262 1.463 . S
C2259 C2264 1.350 . S
C2259 N2267 1.427 . S
C2260 H2251 0.930 . S
C2260 C2258 1.378 . S
C2260 C2261 1.367 . S
C2261 C2260 1.367 . S
C2261 C2263 1.433 . S
C2262 C2258 1.350 . S
C2262 C2259 1.463 . S
C2262 N2266 1.427 . S
C2263 H2253 0.929 . S
C2263 C2261 1.433 . S
C2263 N2266 1.384 . S
C2264 H2255 0.929 . S
C2264 C2256 1.378 . S
C2264 C2259 1.350 . S
C2265 H2252 0.929 . S
C2265 C2257 1.433 . S
C2265 N2267 1.384 . S
N2266 C2262 1.427 . S
N2266 C2263 1.384 . S
N2267 C2259 1.427 . S
N2267 C2265 1.384 . S
H2268 C2274 0.930 . S
H2269 C2278 0.930 . S
H2270 C2283 0.929 . S
H2271 C2281 0.929 . S
H2272 C2276 0.929 . S
H2273 C2282 0.929 . S
C2274 H2268 0.930 . S
C2274 C2275 1.367 . S
C2274 C2282 1.378 . S
C2275 C2274 1.367 . S
C2275 C2283 1.433 . S
C2276 H2272 0.929 . S
C2276 C2278 1.378 . S
C2276 C2280 1.350 . S
C2277 C2280 1.463 . S
C2277 C2282 1.350 . S
C2277 N2285 1.427 . S
C2278 H2269 0.930 . S
C2278 C2276 1.378 . S
C2278 C2279 1.367 . S
C2279 C2278 1.367 . S
C2279 C2281 1.433 . S
C2280 C2276 1.350 . S
C2280 C2277 1.463 . S
C2280 N2284 1.427 . S
C2281 H2271 0.929 . S
C2281 C2279 1.433 . S
C2281 N2284 1.384 . S
C2282 H2273 0.929 . S
C2282 C2274 1.378 . S
C2282 C2277 1.350 . S
C2283 H2270 0.929 . S
C2283 C2275 1.433 . S
C2283 N2285 1.384 . S
N2284 C2280 1.427 . S
N2284 C2281 1.384 . S
N2285 C2277 1.427 . S
N2285 C2283 1.384 . S
H2286 C2292 0.930 . S
H2287 C2296 0.930 . S
H2288 C2301 0.929 . S
H2289 C2299 0.929 . S
H2290 C2294 0.929 . S
H2291 C2300 0.929 . S
C2292 H2286 0.930 . S
C2292 C2293 1.367 . S
C2292 C2300 1.378 . S
C2293 C2292 1.367 . S
C2293 C2301 1.433 . S
C2294 H2290 0.929 . S
C2294 C2296 1.378 . S
C2294 C2298 1.350 . S
C2295 C2298 1.463 . S
C2295 C2300 1.350 . S
C2295 N2303 1.427 . S
C2296 H2287 0.930 . S
C2296 C2294 1.378 . S
C2296 C2297 1.367 . S
C2297 C2296 1.367 . S
C2297 C2299 1.433 . S
C2298 C2294 1.350 . S
C2298 C2295 1.463 . S
C2298 N2302 1.427 . S
C2299 H2289 0.929 . S
C2299 C2297 1.433 . S
C2299 N2302 1.384 . S
C2300 H2291 0.929 . S
C2300 C2292 1.378 . S
C2300 C2295 1.350 . S
C2301 H2288 0.929 . S
C2301 C2293 1.433 . S
C2301 N2303 1.384 . S
N2302 C2298 1.427 . S
N2302 C2299 1.384 . S
N2303 C2295 1.427 . S
N2303 C2301 1.384 . S
C1159 C292 1.335 . S
C1163 C4 1.335 . S
C1177 C904 1.331 . S
C1181 C40 1.331 . S
C1195 C364 1.334 . S
C1199 C76 1.334 . S
C1213 C976 1.335 . S
C1217 C112 1.335 . S
C1231 C436 1.332 . S
C1235 C148 1.332 . S
C1249 C184 1.337 . S
C1253 C1048 1.337 . S
C1267 C220 1.332 . S
C1271 C508 1.332 . S
C1285 C256 1.332 . S
C1289 C1120 1.332 . S
C1303 C616 1.332 . S
C1307 C328 1.332 . S
C1321 C688 1.334 . S
C1325 C400 1.334 . S
C1339 C472 1.335 . S
C1343 C760 1.335 . S
C1357 C544 1.337 . S
C1361 C832 1.337 . S
C1375 C580 1.331 . S
C1379 C868 1.331 . S
C1393 C940 1.331 . S
C1397 C652 1.331 . S
C1411 C724 1.338 . S
C1415 C1012 1.338 . S
C1429 C1084 1.333 . S
C1433 C796 1.333 . S
C1447 C650 1.504 . S
C1451 C2 1.500 . S
C1465 C686 1.497 . S
C1469 C38 1.501 . S
C1483 C74 1.501 . S
C1487 C578 1.497 . S
C1501 C110 1.503 . S
C1505 C614 1.502 . S
C1519 C794 1.497 . S
C1523 C146 1.498 . S
C1537 C182 1.504 . S
C1541 C830 1.500 . S
C1555 C722 1.503 . S
C1559 C218 1.498 . S
C1573 C758 1.502 . S
C1577 C254 1.503 . S
C1591 C290 1.500 . S
C1595 C938 1.504 . S
C1609 C974 1.504 . S
C1613 C326 1.500 . S
C1627 C362 1.502 . S
C1631 C866 1.497 . S
C1645 C398 1.500 . S
C1649 C902 1.504 . S
C1663 C434 1.498 . S
C1667 C1082 1.497 . S
C1681 C470 1.502 . S
C1685 C1118 1.497 . S
C1699 C1010 1.498 . S
C1703 C506 1.503 . S
C1717 C1046 1.504 . S
C1721 C542 1.499 . S
C1735 C230 1.562 . S
C1739 C14 1.563 . S
C1753 C266 1.565 . S
C1757 C50 1.563 . S
C1771 C158 1.575 . S
C1775 C86 1.575 . S
C1789 C122 1.562 . S
C1793 C194 1.561 . S
C1807 C518 1.570 . S
C1811 C302 1.572 . S
C1825 C554 1.571 . S
C1829 C338 1.569 . S
C1843 C446 1.569 . S
C1847 C374 1.571 . S
C1861 C482 1.561 . S
C1865 C410 1.562 . S
C1879 C806 1.571 . S
C1883 C590 1.569 . S
C1897 C842 1.575 . S
C1901 C626 1.575 . S
C1915 C662 1.562 . S
C1919 C734 1.563 . S
C1933 C698 1.575 . S
C1937 C770 1.575 . S
C1951 C1094 1.565 . S
C1955 C878 1.566 . S
C1969 C1130 1.575 . S
C1973 C914 1.574 . S
C1987 C950 1.566 . S
C1991 C1022 1.564 . S
C2005 C986 1.575 . S
C2009 C1058 1.575 . S
C2023 C3 1.457 . S
C2027 C759 1.456 . S
C2041 C795 1.459 . S
C2045 C39 1.459 . S
C2059 C831 1.459 . S
C2063 C75 1.457 . S
C2077 C111 1.458 . S
C2081 C723 1.459 . S
C2095 C687 1.457 . S
C2099 C147 1.459 . S
C2113 C183 1.459 . S
C2117 C579 1.457 . S
C2131 C615 1.458 . S
C2135 C219 1.459 . S
C2149 C255 1.456 . S
C2153 C651 1.458 . S
C2167 C1047 1.459 . S
C2171 C291 1.459 . S
C2185 C1083 1.459 . S
C2189 C327 1.457 . S
C2203 C363 1.457 . S
C2207 C1119 1.456 . S
C2221 C1011 1.459 . S
C2225 C399 1.457 . S
C2239 C975 1.459 . S
C2243 C435 1.459 . S
C2257 C471 1.458 . S
C2261 C867 1.459 . S
C2275 C903 1.456 . S
C2279 C507 1.456 . S
C2293 C543 1.459 . S
C2297 C939 1.458 . S
