# Generated by pormake.
# Topology lta, (4)-cn, num edge types: 1
# Building blocks:
#     Node 0, Type 0, BuildingBlock: NAHDIM_clean_sbu_0, # of connection points: 4
#     Node 1, Type 0, BuildingBlock: NAHDIM_clean_sbu_0, # of connection points: 4
#     Node 2, Type 0, BuildingBlock: NAHDIM_clean_sbu_0, # of connection points: 4
#     Node 3, Type 0, BuildingBlock: NAHDIM_clean_sbu_0, # of connection points: 4
#     Node 4, Type 0, BuildingBlock: NAHDIM_clean_sbu_0, # of connection points: 4
#     Node 5, Type 0, BuildingBlock: NAHDIM_clean_sbu_0, # of connection points: 4
#     Node 6, Type 0, BuildingBlock: NAHDIM_clean_sbu_0, # of connection points: 4
#     Node 7, Type 0, BuildingBlock: NAHDIM_clean_sbu_0, # of connection points: 4
#     Node 8, Type 0, BuildingBlock: NAHDIM_clean_sbu_0, # of connection points: 4
#     Node 9, Type 0, BuildingBlock: NAHDIM_clean_sbu_0, # of connection points: 4
#     Node 10, Type 0, BuildingBlock: NAHDIM_clean_sbu_0, # of connection points: 4
#     Node 11, Type 0, BuildingBlock: NAHDIM_clean_sbu_0, # of connection points: 4
#     Node 12, Type 0, BuildingBlock: NAHDIM_clean_sbu_0, # of connection points: 4
#     Node 13, Type 0, BuildingBlock: NAHDIM_clean_sbu_0, # of connection points: 4
#     Node 14, Type 0, BuildingBlock: NAHDIM_clean_sbu_0, # of connection points: 4
#     Node 15, Type 0, BuildingBlock: NAHDIM_clean_sbu_0, # of connection points: 4
#     Node 16, Type 0, BuildingBlock: NAHDIM_clean_sbu_0, # of connection points: 4
#     Node 17, Type 0, BuildingBlock: NAHDIM_clean_sbu_0, # of connection points: 4
#     Node 18, Type 0, BuildingBlock: NAHDIM_clean_sbu_0, # of connection points: 4
#     Node 19, Type 0, BuildingBlock: NAHDIM_clean_sbu_0, # of connection points: 4
#     Node 20, Type 0, BuildingBlock: NAHDIM_clean_sbu_0, # of connection points: 4
#     Node 21, Type 0, BuildingBlock: NAHDIM_clean_sbu_0, # of connection points: 4
#     Node 22, Type 0, BuildingBlock: NAHDIM_clean_sbu_0, # of connection points: 4
#     Node 23, Type 0, BuildingBlock: NAHDIM_clean_sbu_0, # of connection points: 4
#     Edge 24, Type (0, 0), BuildingBlock: CIFDUS_clean_linker_0, # of connection points: 2
#     Edge 25, Type (0, 0), BuildingBlock: CIFDUS_clean_linker_0, # of connection points: 2
#     Edge 26, Type (0, 0), BuildingBlock: CIFDUS_clean_linker_0, # of connection points: 2
#     Edge 27, Type (0, 0), BuildingBlock: CIFDUS_clean_linker_0, # of connection points: 2
#     Edge 28, Type (0, 0), BuildingBlock: CIFDUS_clean_linker_0, # of connection points: 2
#     Edge 29, Type (0, 0), BuildingBlock: CIFDUS_clean_linker_0, # of connection points: 2
#     Edge 30, Type (0, 0), BuildingBlock: CIFDUS_clean_linker_0, # of connection points: 2
#     Edge 31, Type (0, 0), BuildingBlock: CIFDUS_clean_linker_0, # of connection points: 2
#     Edge 32, Type (0, 0), BuildingBlock: CIFDUS_clean_linker_0, # of connection points: 2
#     Edge 33, Type (0, 0), BuildingBlock: CIFDUS_clean_linker_0, # of connection points: 2
#     Edge 34, Type (0, 0), BuildingBlock: CIFDUS_clean_linker_0, # of connection points: 2
#     Edge 35, Type (0, 0), BuildingBlock: CIFDUS_clean_linker_0, # of connection points: 2
#     Edge 36, Type (0, 0), BuildingBlock: CIFDUS_clean_linker_0, # of connection points: 2
#     Edge 37, Type (0, 0), BuildingBlock: CIFDUS_clean_linker_0, # of connection points: 2
#     Edge 38, Type (0, 0), BuildingBlock: CIFDUS_clean_linker_0, # of connection points: 2
#     Edge 39, Type (0, 0), BuildingBlock: CIFDUS_clean_linker_0, # of connection points: 2
#     Edge 40, Type (0, 0), BuildingBlock: CIFDUS_clean_linker_0, # of connection points: 2
#     Edge 41, Type (0, 0), BuildingBlock: CIFDUS_clean_linker_0, # of connection points: 2
#     Edge 42, Type (0, 0), BuildingBlock: CIFDUS_clean_linker_0, # of connection points: 2
#     Edge 43, Type (0, 0), BuildingBlock: CIFDUS_clean_linker_0, # of connection points: 2
#     Edge 44, Type (0, 0), BuildingBlock: CIFDUS_clean_linker_0, # of connection points: 2
#     Edge 45, Type (0, 0), BuildingBlock: CIFDUS_clean_linker_0, # of connection points: 2
#     Edge 46, Type (0, 0), BuildingBlock: CIFDUS_clean_linker_0, # of connection points: 2
#     Edge 47, Type (0, 0), BuildingBlock: CIFDUS_clean_linker_0, # of connection points: 2
#     Edge 48, Type (0, 0), BuildingBlock: CIFDUS_clean_linker_0, # of connection points: 2
#     Edge 49, Type (0, 0), BuildingBlock: CIFDUS_clean_linker_0, # of connection points: 2
#     Edge 50, Type (0, 0), BuildingBlock: CIFDUS_clean_linker_0, # of connection points: 2
#     Edge 51, Type (0, 0), BuildingBlock: CIFDUS_clean_linker_0, # of connection points: 2
#     Edge 52, Type (0, 0), BuildingBlock: CIFDUS_clean_linker_0, # of connection points: 2
#     Edge 53, Type (0, 0), BuildingBlock: CIFDUS_clean_linker_0, # of connection points: 2
#     Edge 54, Type (0, 0), BuildingBlock: CIFDUS_clean_linker_0, # of connection points: 2
#     Edge 55, Type (0, 0), BuildingBlock: CIFDUS_clean_linker_0, # of connection points: 2
#     Edge 56, Type (0, 0), BuildingBlock: CIFDUS_clean_linker_0, # of connection points: 2
#     Edge 57, Type (0, 0), BuildingBlock: CIFDUS_clean_linker_0, # of connection points: 2
#     Edge 58, Type (0, 0), BuildingBlock: CIFDUS_clean_linker_0, # of connection points: 2
#     Edge 59, Type (0, 0), BuildingBlock: CIFDUS_clean_linker_0, # of connection points: 2
#     Edge 60, Type (0, 0), BuildingBlock: CIFDUS_clean_linker_0, # of connection points: 2
#     Edge 61, Type (0, 0), BuildingBlock: CIFDUS_clean_linker_0, # of connection points: 2
#     Edge 62, Type (0, 0), BuildingBlock: CIFDUS_clean_linker_0, # of connection points: 2
#     Edge 63, Type (0, 0), BuildingBlock: CIFDUS_clean_linker_0, # of connection points: 2
#     Edge 64, Type (0, 0), BuildingBlock: CIFDUS_clean_linker_0, # of connection points: 2
#     Edge 65, Type (0, 0), BuildingBlock: CIFDUS_clean_linker_0, # of connection points: 2
#     Edge 66, Type (0, 0), BuildingBlock: CIFDUS_clean_linker_0, # of connection points: 2
#     Edge 67, Type (0, 0), BuildingBlock: CIFDUS_clean_linker_0, # of connection points: 2
#     Edge 68, Type (0, 0), BuildingBlock: CIFDUS_clean_linker_0, # of connection points: 2
#     Edge 69, Type (0, 0), BuildingBlock: CIFDUS_clean_linker_0, # of connection points: 2
#     Edge 70, Type (0, 0), BuildingBlock: CIFDUS_clean_linker_0, # of connection points: 2
#     Edge 71, Type (0, 0), BuildingBlock: CIFDUS_clean_linker_0, # of connection points: 2
# Relax obj value: 0.179
# Max RMSD: 0.070
# Mean RMSD: 0.070
data_MOF--net-lta--node1-NAHDIM_clean_sbu_0--edge1-CIFDUS_clean_linker_0
_symmetry_space_group_name_H-M    P1
_symmetry_Int_Tables_number       1
_symmetry_cell_setting            triclinic
loop_
_symmetry_equiv_pos_as_xyz
'x, y, z'
_cell_length_a     50.206164
_cell_length_b     50.253223
_cell_length_c     50.18756
_cell_angle_alpha  90.015237
_cell_angle_beta   89.98412
_cell_angle_gamma 89.993049
loop_
_atom_site_label
_atom_site_type_symbol
_atom_site_fract_x
_atom_site_fract_y
_atom_site_fract_z
_atom_type_partial_charge
C0 C 0.15115 0.26738 0.48185 0.0
O1 O 0.13531 0.26582 0.46109 0.0
O2 O 0.11619 0.33191 0.53132 0.0
Zn3 Zn 0.11727 0.31146 0.49706 0.0
O4 O 0.12373 0.33829 0.46813 0.0
C5 C 0.06842 0.28438 0.50996 0.0
O6 O 0.07783 0.28598 0.53434 0.0
O7 O 0.14702 0.28518 0.49931 0.0
C8 C 0.11849 0.33496 0.44358 0.0
O9 O 0.10905 0.31199 0.43542 0.0
C10 C 0.09927 0.3505 0.53402 0.0
O11 O 0.08215 0.35496 0.51473 0.0
O12 O 0.08223 0.29338 0.49077 0.0
C13 C 0.71052 0.15991 0.47499 0.0
O14 O 0.68555 0.16706 0.47809 0.0
O15 O 0.66918 0.11099 0.50934 0.0
Zn16 Zn 0.68579 0.10943 0.4728 0.0
O17 O 0.65768 0.11788 0.44563 0.0
C18 C 0.70722 0.05855 0.48628 0.0
O19 O 0.70869 0.06965 0.50994 0.0
O20 O 0.71591 0.13549 0.47135 0.0
C21 C 0.65818 0.10872 0.42204 0.0
O22 O 0.6785 0.09411 0.41441 0.0
C23 C 0.64866 0.1249 0.5144 0.0
O24 O 0.63772 0.13898 0.49526 0.0
O25 O 0.69886 0.07223 0.46672 0.0
C26 C 0.82128 0.69093 0.4846 0.0
O27 O 0.81842 0.66504 0.48235 0.0
O28 O 0.87395 0.65876 0.52751 0.0
Zn29 Zn 0.87491 0.6751 0.491 0.0
O30 O 0.87051 0.64595 0.464 0.0
C31 C 0.92411 0.70232 0.50366 0.0
O32 O 0.91502 0.701 0.52817 0.0
O33 O 0.84444 0.70051 0.48806 0.0
C34 C 0.87814 0.64842 0.44 0.0
O35 O 0.88905 0.67091 0.4323 0.0
C36 C 0.88492 0.63634 0.53143 0.0
O37 O 0.89736 0.62463 0.51159 0.0
O38 O 0.90999 0.69323 0.48473 0.0
C39 C 0.29141 0.82565 0.49317 0.0
O40 O 0.31534 0.81814 0.50062 0.0
O41 O 0.3402 0.87197 0.51677 0.0
Zn42 Zn 0.31912 0.87406 0.48257 0.0
O43 O 0.34322 0.86496 0.45185 0.0
C44 C 0.30022 0.92614 0.49756 0.0
O45 O 0.30203 0.91642 0.52179 0.0
O46 O 0.28809 0.84905 0.48424 0.0
C47 C 0.34174 0.87625 0.42923 0.0
O48 O 0.32284 0.89381 0.42492 0.0
C49 C 0.36169 0.85866 0.5183 0.0
O50 O 0.37017 0.84565 0.49724 0.0
O51 O 0.30602 0.91141 0.47783 0.0
C52 C 0.18434 0.71051 0.51549 0.0
O53 O 0.1883 0.6859 0.52334 0.0
O54 O 0.12917 0.67408 0.47141 0.0
Zn55 Zn 0.13155 0.69075 0.5077 0.0
O56 O 0.1382 0.66167 0.53432 0.0
C57 C 0.08077 0.71537 0.49798 0.0
O58 O 0.08955 0.71563 0.47331 0.0
O59 O 0.16115 0.71758 0.50822 0.0
C60 C 0.1335 0.66519 0.55894 0.0
O61 O 0.12488 0.68851 0.56708 0.0
C62 C 0.14635 0.65738 0.46332 0.0
O63 O 0.16655 0.65136 0.47882 0.0
O64 O 0.09603 0.70703 0.51636 0.0
C65 C 0.26929 0.1614 0.47699 0.0
O66 O 0.27705 0.14613 0.45722 0.0
O67 O 0.33408 0.13443 0.46924 0.0
Zn68 Zn 0.31356 0.13679 0.50338 0.0
O69 O 0.33888 0.15097 0.53094 0.0
C70 C 0.29511 0.08384 0.4947 0.0
O71 O 0.29407 0.09259 0.47006 0.0
O72 O 0.28199 0.16075 0.49889 0.0
C73 C 0.34171 0.14028 0.55371 0.0
O74 O 0.32626 0.12028 0.56042 0.0
C75 C 0.34343 0.15466 0.45732 0.0
O76 O 0.33897 0.17848 0.46715 0.0
O77 O 0.30214 0.09971 0.5131 0.0
C78 C 0.80962 0.2797 0.50679 0.0
O79 O 0.80395 0.30386 0.51502 0.0
O80 O 0.87094 0.31957 0.47513 0.0
Zn81 Zn 0.86255 0.30033 0.50915 0.0
O82 O 0.85089 0.3281 0.53543 0.0
C83 C 0.91183 0.27315 0.50425 0.0
O84 O 0.90325 0.27095 0.47961 0.0
O85 O 0.83382 0.27325 0.50314 0.0
C86 C 0.85703 0.32769 0.55997 0.0
O87 O 0.87102 0.30768 0.56934 0.0
C88 C 0.85338 0.32919 0.45969 0.0
O89 O 0.82807 0.32581 0.4654 0.0
O90 O 0.89671 0.28375 0.52155 0.0
C91 C 0.70886 0.80232 0.4969 0.0
O92 O 0.68523 0.7935 0.4899 0.0
O93 O 0.66025 0.84924 0.47091 0.0
Zn94 Zn 0.67974 0.8503 0.50582 0.0
O95 O 0.65359 0.83933 0.53412 0.0
C96 C 0.70138 0.90113 0.49294 0.0
O97 O 0.70384 0.88981 0.46947 0.0
O98 O 0.71126 0.82618 0.5048 0.0
C99 C 0.65153 0.85141 0.55627 0.0
O100 O 0.66833 0.87064 0.56192 0.0
C101 C 0.63914 0.86312 0.46991 0.0
O102 O 0.63207 0.87686 0.49104 0.0
O103 O 0.69186 0.88774 0.51217 0.0
C104 C 0.49279 0.17459 0.28566 0.0
O105 O 0.49741 0.17862 0.3111 0.0
O106 O 0.51753 0.12161 0.32705 0.0
Zn107 Zn 0.4838 0.12237 0.30508 0.0
O108 O 0.45272 0.12916 0.32941 0.0
C109 C 0.49779 0.07176 0.2815 0.0
O110 O 0.5222 0.08076 0.28431 0.0
O111 O 0.48628 0.15143 0.27785 0.0
C112 C 0.44305 0.10964 0.34227 0.0
O113 O 0.45316 0.0858 0.33865 0.0
C114 C 0.51851 0.13238 0.34997 0.0
O115 O 0.4972 0.14426 0.35941 0.0
O116 O 0.47837 0.08667 0.28783 0.0
C117 C 0.81659 0.49541 0.28986 0.0
O118 O 0.81188 0.4996 0.31526 0.0
O119 O 0.86688 0.51402 0.33639 0.0
Zn120 Zn 0.86666 0.48236 0.31156 0.0
O121 O 0.85637 0.44974 0.33224 0.0
C122 C 0.91899 0.49701 0.2938 0.0
O123 O 0.90987 0.52106 0.29852 0.0
O124 O 0.8397 0.48796 0.28272 0.0
C125 C 0.87381 0.43704 0.34543 0.0
O126 O 0.89871 0.44502 0.34461 0.0
C127 C 0.85644 0.51314 0.35946 0.0
O128 O 0.84474 0.49115 0.36739 0.0
O129 O 0.90351 0.47723 0.29675 0.0
C130 C 0.51589 0.81049 0.28554 0.0
O131 O 0.51855 0.80514 0.31101 0.0
O132 O 0.47557 0.86203 0.3251 0.0
Zn133 Zn 0.5108 0.86368 0.30565 0.0
O134 O 0.53945 0.86027 0.33335 0.0
C135 C 0.49593 0.91435 0.28229 0.0
O136 O 0.47159 0.90509 0.28476 0.0
O137 O 0.51277 0.83451 0.27827 0.0
C138 C 0.56275 0.85071 0.33098 0.0
O139 O 0.57056 0.84112 0.30792 0.0
C140 C 0.47368 0.84756 0.34581 0.0
O141 O 0.49443 0.8336 0.35344 0.0
O142 O 0.51544 0.89969 0.28892 0.0
C143 C 0.17783 0.4954 0.28911 0.0
O144 O 0.18709 0.49386 0.31355 0.0
O145 O 0.13034 0.47023 0.34004 0.0
Zn146 Zn 0.13 0.50367 0.31774 0.0
O147 O 0.14435 0.53363 0.34023 0.0
C148 C 0.07705 0.49336 0.29845 0.0
O149 O 0.08643 0.46909 0.29585 0.0
O150 O 0.15309 0.49928 0.28559 0.0
C151 C 0.13259 0.55589 0.34255 0.0
O152 O 0.11098 0.56045 0.32852 0.0
C153 C 0.12696 0.47272 0.36502 0.0
O154 O 0.12321 0.49658 0.37503 0.0
O155 O 0.09233 0.51159 0.30699 0.0
C156 C 0.47854 0.82336 0.71136 0.0
O157 O 0.48134 0.81608 0.68638 0.0
O158 O 0.52045 0.8706 0.6717 0.0
Zn159 Zn 0.48364 0.87425 0.68745 0.0
O160 O 0.45685 0.86801 0.65835 0.0
C161 C 0.49914 0.92528 0.70818 0.0
O162 O 0.52291 0.91435 0.70796 0.0
O163 O 0.47861 0.84797 0.71705 0.0
C164 C 0.43373 0.87828 0.65867 0.0
O165 O 0.42647 0.89279 0.67921 0.0
C166 C 0.52493 0.85592 0.65157 0.0
O167 O 0.50526 0.84221 0.64114 0.0
O168 O 0.47915 0.91154 0.70101 0.0
C169 C 0.17474 0.48504 0.70056 0.0
O170 O 0.18041 0.48537 0.67501 0.0
O171 O 0.13027 0.52934 0.66009 0.0
Zn172 Zn 0.12179 0.49682 0.68197 0.0
O173 O 0.11633 0.46587 0.65728 0.0
C174 C 0.07901 0.52581 0.70775 0.0
O175 O 0.09399 0.54669 0.7029 0.0
O176 O 0.15095 0.48929 0.70804 0.0
C177 C 0.09644 0.46704 0.64167 0.0
O178 O 0.08067 0.48788 0.64282 0.0
C179 C 0.14134 0.52757 0.63737 0.0
O180 O 0.14839 0.50405 0.62838 0.0
O181 O 0.0874 0.50283 0.70134 0.0
C182 C 0.51298 0.18372 0.70587 0.0
O183 O 0.50784 0.19171 0.6815 0.0
O184 O 0.4766 0.1334 0.66565 0.0
Zn185 Zn 0.51403 0.13314 0.68014 0.0
O186 O 0.53901 0.14225 0.65019 0.0
C187 C 0.50364 0.08274 0.70439 0.0
O188 O 0.4802 0.09368 0.70831 0.0
O189 O 0.517 0.15915 0.71017 0.0
C190 C 0.56119 0.13054 0.64684 0.0
O191 O 0.56903 0.11281 0.6644 0.0
C192 C 0.47009 0.14799 0.64603 0.0
O193 O 0.48803 0.16374 0.63535 0.0
O194 O 0.52185 0.09626 0.6932 0.0
C195 C 0.82365 0.51121 0.70583 0.0
O196 O 0.82073 0.51181 0.67983 0.0
O197 O 0.86994 0.45599 0.67836 0.0
Zn198 Zn 0.87617 0.49314 0.69192 0.0
O199 O 0.88016 0.51695 0.65992 0.0
C200 C 0.92322 0.51416 0.71761 0.0
O201 O 0.91153 0.53719 0.71356 0.0
O202 O 0.84596 0.50432 0.71561 0.0
C203 C 0.87494 0.54166 0.65871 0.0
O204 O 0.86561 0.55393 0.67986 0.0
C205 C 0.85631 0.45229 0.65736 0.0
O206 O 0.84536 0.47288 0.64553 0.0
O207 O 0.91106 0.49292 0.71128 0.0
C208 C 0.2944 0.48867 0.18125 0.0
O209 O 0.31999 0.48451 0.18473 0.0
O210 O 0.32981 0.52801 0.12417 0.0
Zn211 Zn 0.31073 0.49289 0.12686 0.0
O212 O 0.33744 0.46333 0.13053 0.0
C213 C 0.28033 0.50634 0.08022 0.0
O214 O 0.28071 0.53016 0.09101 0.0
O215 O 0.28564 0.49282 0.15787 0.0
C216 C 0.35167 0.45769 0.11038 0.0
O217 O 0.34859 0.47157 0.0884 0.0
C218 C 0.35129 0.53284 0.13662 0.0
O219 O 0.36123 0.51458 0.1525 0.0
O220 O 0.29092 0.48705 0.09268 0.0
C221 C 0.27079 0.47735 0.82648 0.0
O222 O 0.29592 0.48 0.81965 0.0
O223 O 0.32179 0.45853 0.87717 0.0
Zn224 Zn 0.29293 0.48623 0.87772 0.0
O225 O 0.31066 0.52089 0.86856 0.0
C226 C 0.27353 0.46713 0.9281 0.0
O227 O 0.27742 0.44383 0.91687 0.0
O228 O 0.26452 0.47859 0.85096 0.0
C229 C 0.31037 0.54125 0.88357 0.0
O230 O 0.29676 0.54057 0.90591 0.0
C231 C 0.33989 0.46162 0.89461 0.0
O232 O 0.33796 0.4816 0.91139 0.0
O233 O 0.27778 0.4881 0.91464 0.0
C234 C 0.49344 0.30006 0.81205 0.0
O235 O 0.48387 0.32413 0.80854 0.0
O236 O 0.52944 0.33972 0.87007 0.0
Zn237 Zn 0.49629 0.31769 0.86612 0.0
O238 O 0.46461 0.34158 0.86126 0.0
C239 C 0.51126 0.28834 0.91261 0.0
O240 O 0.53483 0.28956 0.9013 0.0
O241 O 0.5 0.29264 0.83533 0.0
C242 C 0.4598 0.35827 0.87964 0.0
O243 O 0.47591 0.3594 0.90024 0.0
C244 C 0.53691 0.35721 0.85342 0.0
O245 O 0.52256 0.36145 0.83196 0.0
O246 O 0.49128 0.29788 0.90038 0.0
C247 C 0.71244 0.52159 0.81854 0.0
O248 O 0.68865 0.52566 0.80845 0.0
O249 O 0.66059 0.54719 0.86523 0.0
Zn250 Zn 0.68241 0.51351 0.86641 0.0
O251 O 0.65923 0.48307 0.85413 0.0
C252 C 0.69943 0.52576 0.92005 0.0
O253 O 0.69885 0.55043 0.91141 0.0
O254 O 0.71465 0.51634 0.84318 0.0
C255 C 0.65428 0.46294 0.86864 0.0
O256 O 0.6658 0.46089 0.89204 0.0
C257 C 0.63983 0.5484 0.85079 0.0
O258 O 0.63364 0.52802 0.83562 0.0
O259 O 0.69373 0.50697 0.90413 0.0
C260 C 0.47554 0.6979 0.80857 0.0
O261 O 0.48284 0.67335 0.80336 0.0
O262 O 0.43225 0.65555 0.85933 0.0
Zn263 Zn 0.46721 0.67508 0.85984 0.0
O264 O 0.49603 0.64847 0.85209 0.0
C265 C 0.45459 0.69443 0.91266 0.0
O266 O 0.42993 0.69101 0.90462 0.0
O267 O 0.46787 0.70381 0.83198 0.0
C268 C 0.52009 0.65224 0.85893 0.0
O269 O 0.52651 0.67423 0.87155 0.0
C270 C 0.42703 0.63903 0.84089 0.0
O271 O 0.44427 0.63572 0.82149 0.0
O272 O 0.47358 0.68984 0.89655 0.0
C273 C 0.71214 0.49253 0.17029 0.0
O274 O 0.68877 0.50153 0.17787 0.0
O275 O 0.66381 0.44867 0.12425 0.0
Zn276 Zn 0.68353 0.48343 0.12202 0.0
O277 O 0.65773 0.51238 0.13194 0.0
C278 C 0.70037 0.47072 0.06837 0.0
O279 O 0.69912 0.44605 0.07694 0.0
O280 O 0.71488 0.48355 0.14679 0.0
C281 C 0.65814 0.53542 0.12155 0.0
O282 O 0.67657 0.54122 0.1039 0.0
C283 C 0.6478 0.44456 0.14342 0.0
O284 O 0.64548 0.46267 0.16216 0.0
O285 O 0.69527 0.48962 0.08437 0.0
C286 C 0.50643 0.70928 0.16335 0.0
O287 O 0.50673 0.6845 0.17167 0.0
O288 O 0.53841 0.66369 0.1128 0.0
Zn289 Zn 0.50289 0.6825 0.11376 0.0
O290 O 0.47557 0.65617 0.12678 0.0
C291 C 0.51142 0.70112 0.0602 0.0
O292 O 0.53626 0.70247 0.06832 0.0
O293 O 0.50467 0.71385 0.13852 0.0
C294 C 0.45227 0.65382 0.11719 0.0
O295 O 0.44451 0.67009 0.09824 0.0
C296 C 0.54282 0.64404 0.12812 0.0
O297 O 0.52432 0.63675 0.14512 0.0
O298 O 0.4935 0.69387 0.07653 0.0
C299 C 0.49988 0.27826 0.16554 0.0
O300 O 0.51179 0.30043 0.17266 0.0
O301 O 0.46514 0.3318 0.1176 0.0
Zn302 Zn 0.4957 0.30593 0.11591 0.0
O303 O 0.52914 0.32655 0.12382 0.0
C304 C 0.47649 0.28569 0.06597 0.0
O305 O 0.45332 0.28779 0.07798 0.0
O306 O 0.49107 0.27602 0.14192 0.0
C307 C 0.55045 0.32411 0.11037 0.0
O308 O 0.5514 0.30668 0.09089 0.0
C309 C 0.45223 0.3378 0.13854 0.0
O310 O 0.45815 0.32602 0.16113 0.0
O311 O 0.49754 0.29164 0.07868 0.0
H312 H 0.12275 0.42035 0.35118 0.0
H313 H 0.13154 0.47259 0.41894 0.0
H314 H 0.13091 0.43449 0.44892 0.0
H315 H 0.12667 0.3867 0.45615 0.0
H316 H 0.11598 0.33405 0.38905 0.0
H317 H 0.11864 0.37196 0.35856 0.0
C318 C 0.12466 0.42335 0.37249 0.0
C319 C 0.12717 0.44927 0.3828 0.0
C320 C 0.12391 0.40131 0.38974 0.0
C321 C 0.12945 0.45287 0.41047 0.0
C322 C 0.12914 0.43108 0.42766 0.0
C323 C 0.12511 0.38342 0.43484 0.0
C324 C 0.12119 0.35757 0.42489 0.0
C325 C 0.12621 0.40527 0.41754 0.0
C326 C 0.11897 0.35376 0.39723 0.0
C327 C 0.12049 0.37543 0.37979 0.0
H328 H 0.61237 0.13515 0.43325 0.0
H329 H 0.65175 0.09085 0.37092 0.0
H330 H 0.61222 0.0948 0.34282 0.0
H331 H 0.56588 0.10943 0.33663 0.0
H332 H 0.52663 0.15323 0.39944 0.0
H333 H 0.56676 0.15081 0.42663 0.0
C334 C 0.61242 0.12648 0.41346 0.0
C335 C 0.63499 0.11264 0.40426 0.0
C336 C 0.58959 0.1286 0.39752 0.0
C337 C 0.63466 0.10157 0.37854 0.0
C338 C 0.61203 0.10377 0.36246 0.0
C339 C 0.56612 0.11852 0.35623 0.0
C340 C 0.54321 0.13139 0.36599 0.0
C341 C 0.58928 0.117 0.37186 0.0
C342 C 0.54392 0.14312 0.39142 0.0
C343 C 0.56688 0.14176 0.40702 0.0
H344 H 0.85526 0.60045 0.44964 0.0
H345 H 0.8949 0.64571 0.3882 0.0
H346 H 0.89139 0.60795 0.35773 0.0
H347 H 0.87775 0.56184 0.34882 0.0
H348 H 0.83805 0.51684 0.41046 0.0
H349 H 0.84092 0.55484 0.44053 0.0
C350 C 0.8631 0.60212 0.42957 0.0
C351 C 0.87539 0.62587 0.42125 0.0
C352 C 0.86105 0.58037 0.41218 0.0
C353 C 0.88536 0.62767 0.39514 0.0
C354 C 0.88338 0.60608 0.3777 0.0
C355 C 0.86968 0.56035 0.36882 0.0
C356 C 0.85776 0.53648 0.37737 0.0
C357 C 0.87138 0.58229 0.38606 0.0
C358 C 0.84735 0.53494 0.40333 0.0
C359 C 0.84898 0.55666 0.42057 0.0
H360 H 0.38325 0.84182 0.4325 0.0
H361 H 0.34759 0.9004 0.38069 0.0
H362 H 0.3846 0.89563 0.34943 0.0
H363 H 0.4285 0.87685 0.33823 0.0
H364 H 0.46407 0.81876 0.39073 0.0
H365 H 0.4256 0.82131 0.42018 0.0
C366 C 0.38341 0.85342 0.41428 0.0
C367 C 0.36275 0.87158 0.40907 0.0
C368 C 0.40483 0.85078 0.39654 0.0
C369 C 0.36326 0.88632 0.38526 0.0
C370 C 0.38447 0.88366 0.36739 0.0
C371 C 0.42774 0.86459 0.356 0.0
C372 C 0.44926 0.8478 0.36233 0.0
C373 C 0.40558 0.86627 0.37304 0.0
C374 C 0.44789 0.83199 0.3854 0.0
C375 C 0.42589 0.83342 0.40231 0.0
H376 H 0.1285 0.57871 0.64978 0.0
H377 H 0.1606 0.52998 0.58657 0.0
H378 H 0.16223 0.56859 0.55719 0.0
H379 H 0.15235 0.61556 0.54866 0.0
H380 H 0.11995 0.66432 0.61168 0.0
H381 H 0.12082 0.6263 0.64194 0.0
C382 C 0.13603 0.57655 0.62964 0.0
C383 C 0.14424 0.55143 0.62036 0.0
C384 C 0.13678 0.59881 0.61277 0.0
C385 C 0.15407 0.54904 0.59424 0.0
C386 C 0.15497 0.57111 0.57737 0.0
C387 C 0.14562 0.61795 0.56906 0.0
C388 C 0.13591 0.64271 0.57781 0.0
C389 C 0.14603 0.59599 0.58631 0.0
C390 C 0.12745 0.64547 0.60437 0.0
C391 C 0.12788 0.62372 0.6217 0.0
H392 H 0.35737 0.11733 0.60024 0.0
H393 H 0.37753 0.18028 0.54525 0.0
H394 H 0.41823 0.18935 0.57014 0.0
H395 H 0.44977 0.17713 0.60528 0.0
H396 H 0.43016 0.11365 0.65982 0.0
H397 H 0.38751 0.10722 0.63739 0.0
C398 C 0.37049 0.13325 0.59387 0.0
C399 C 0.3645 0.14791 0.57076 0.0
C400 C 0.39408 0.13815 0.60806 0.0
C401 C 0.38171 0.16854 0.56287 0.0
C402 C 0.40504 0.17373 0.57705 0.0
C403 C 0.4361 0.16201 0.61241 0.0
C404 C 0.44329 0.14572 0.63402 0.0
C405 C 0.41171 0.15826 0.59931 0.0
C406 C 0.42521 0.12639 0.64314 0.0
C407 C 0.40081 0.12266 0.6303 0.0
H408 H 0.83104 0.43872 0.61157 0.0
H409 H 0.8797 0.4062 0.67457 0.0
H410 H 0.88234 0.3638 0.65093 0.0
H411 H 0.87396 0.3373 0.61062 0.0
H412 H 0.82628 0.37056 0.54723 0.0
H413 H 0.82001 0.41123 0.57292 0.0
C414 C 0.84201 0.4223 0.6203 0.0
C415 C 0.85538 0.42574 0.64466 0.0
C416 C 0.84377 0.39812 0.60645 0.0
C417 C 0.86935 0.40416 0.65575 0.0
C418 C 0.87092 0.3799 0.64222 0.0
C419 C 0.86193 0.35331 0.60255 0.0
C420 C 0.85085 0.35096 0.57692 0.0
C421 C 0.85869 0.37686 0.61728 0.0
C422 C 0.83525 0.3719 0.56681 0.0
C423 C 0.83165 0.39521 0.58147 0.0
H424 H 0.54149 0.82512 0.61031 0.0
H425 H 0.56808 0.88668 0.6641 0.0
H426 H 0.61055 0.88925 0.64054 0.0
H427 H 0.63884 0.87624 0.6028 0.0
H428 H 0.61184 0.81503 0.54876 0.0
H429 H 0.57098 0.80997 0.57449 0.0
C430 C 0.55663 0.83898 0.61702 0.0
C431 C 0.55149 0.85585 0.63877 0.0
C432 C 0.58094 0.84047 0.6033 0.0
C433 C 0.57145 0.87352 0.64734 0.0
C434 C 0.59575 0.87505 0.63385 0.0
C435 C 0.62416 0.86158 0.5968 0.0
C436 C 0.62834 0.84622 0.57373 0.0
C437 C 0.60052 0.85894 0.61153 0.0
C438 C 0.60913 0.82723 0.56635 0.0
C439 C 0.58568 0.82435 0.58101 0.0
H440 H 0.35802 0.10806 0.43437 0.0
H441 H 0.36752 0.19315 0.42715 0.0
H442 H 0.39817 0.18675 0.38983 0.0
H443 H 0.42393 0.15688 0.36078 0.0
H444 H 0.41505 0.07181 0.36918 0.0
H445 H 0.38238 0.0784 0.40451 0.0
C446 C 0.36665 0.12526 0.42457 0.0
C447 C 0.36059 0.15104 0.43364 0.0
C448 C 0.38443 0.12144 0.4034 0.0
C449 C 0.37191 0.17307 0.42063 0.0
C450 C 0.38946 0.16943 0.39931 0.0
C451 C 0.41468 0.13978 0.37019 0.0
C452 C 0.422 0.11389 0.36242 0.0
C453 C 0.39611 0.14369 0.39075 0.0
C454 C 0.40989 0.09196 0.37486 0.0
C455 C 0.3912 0.09569 0.39508 0.0
H456 H 0.82129 0.35487 0.42436 0.0
H457 H 0.90395 0.34161 0.44412 0.0
H458 H 0.91756 0.37267 0.40941 0.0
H459 H 0.906 0.40567 0.37544 0.0
H460 H 0.82339 0.41938 0.35589 0.0
H461 H 0.80983 0.38592 0.3884 0.0
C462 C 0.84229 0.35859 0.42094 0.0
C463 C 0.86152 0.3461 0.437 0.0
C464 C 0.85002 0.37665 0.40106 0.0
C465 C 0.88868 0.35106 0.43217 0.0
C466 C 0.89651 0.36886 0.41233 0.0
C467 C 0.88504 0.40122 0.37813 0.0
C468 C 0.86576 0.41517 0.36341 0.0
C469 C 0.87735 0.3821 0.39698 0.0
C470 C 0.83867 0.40901 0.36702 0.0
C471 C 0.83087 0.3899 0.38566 0.0
H472 H 0.55408 0.87443 0.37857 0.0
H473 H 0.61172 0.82694 0.33596 0.0
H474 H 0.64067 0.82664 0.37522 0.0
H475 H 0.64924 0.83961 0.42188 0.0
H476 H 0.59128 0.88763 0.46358 0.0
H477 H 0.56285 0.88796 0.42431 0.0
C478 C 0.57297 0.86397 0.37778 0.0
C479 C 0.58068 0.85065 0.35437 0.0
C480 C 0.58946 0.86398 0.40027 0.0
C481 C 0.60531 0.83736 0.35373 0.0
C482 C 0.62185 0.83716 0.37618 0.0
C483 C 0.63039 0.85016 0.42235 0.0
C484 C 0.62239 0.86351 0.44569 0.0
C485 C 0.61408 0.85036 0.39959 0.0
C486 C 0.59796 0.87718 0.44593 0.0
C487 C 0.58164 0.87737 0.42347 0.0
H488 H 0.17657 0.61758 0.44246 0.0
H489 H 0.10688 0.66545 0.42676 0.0
H490 H 0.09782 0.63963 0.38662 0.0
H491 H 0.10772 0.60145 0.35787 0.0
H492 H 0.17665 0.55275 0.37432 0.0
H493 H 0.18806 0.58111 0.41208 0.0
C494 C 0.15953 0.62254 0.43014 0.0
C495 C 0.14232 0.64327 0.43776 0.0
C496 C 0.15422 0.60741 0.40724 0.0
C497 C 0.12039 0.64948 0.42148 0.0
C498 C 0.11515 0.63472 0.39851 0.0
C499 C 0.12542 0.5972 0.3695 0.0
C500 C 0.14117 0.57488 0.36337 0.0
C501 C 0.13165 0.61333 0.39147 0.0
C502 C 0.16407 0.56972 0.37866 0.0
C503 C 0.1706 0.58589 0.40032 0.0
H504 H 0.34966 0.883 0.56531 0.0
H505 H 0.40905 0.83366 0.52739 0.0
H506 H 0.43593 0.83449 0.56783 0.0
H507 H 0.4434 0.85042 0.6133 0.0
H508 H 0.38433 0.90004 0.65131 0.0
H509 H 0.35645 0.89771 0.6115 0.0
C510 C 0.36844 0.87234 0.5659 0.0
C511 C 0.37736 0.8584 0.54327 0.0
C512 C 0.38388 0.87295 0.58922 0.0
C513 C 0.4017 0.84462 0.54446 0.0
C514 C 0.41713 0.84508 0.56759 0.0
C515 C 0.42436 0.86063 0.61298 0.0
C516 C 0.41604 0.87548 0.63524 0.0
C517 C 0.40852 0.85936 0.58999 0.0
C518 C 0.39127 0.8885 0.63446 0.0
C519 C 0.37532 0.88722 0.61167 0.0
H520 H 0.12479 0.42147 0.63438 0.0
H521 H 0.05796 0.46576 0.60333 0.0
H522 H 0.05204 0.4328 0.56816 0.0
H523 H 0.06716 0.39266 0.5449 0.0
H524 H 0.13418 0.34848 0.57573 0.0
H525 H 0.13851 0.38006 0.61241 0.0
C526 C 0.10884 0.42385 0.62001 0.0
C527 C 0.09198 0.44616 0.6214 0.0
C528 C 0.10558 0.40487 0.59975 0.0
C529 C 0.07131 0.44884 0.60269 0.0
C530 C 0.0679 0.43001 0.58253 0.0
C531 C 0.0826 0.3898 0.55973 0.0
C532 C 0.10042 0.36834 0.55743 0.0
C533 C 0.08512 0.40813 0.58068 0.0
C534 C 0.12023 0.36489 0.57694 0.0
C535 C 0.12278 0.38297 0.59791 0.0
H536 H 0.60674 0.10561 0.6313 0.0
H537 H 0.5497 0.1649 0.6063 0.0
H538 H 0.57236 0.16905 0.56352 0.0
H539 H 0.60686 0.15421 0.53233 0.0
H540 H 0.66367 0.09463 0.55707 0.0
H541 H 0.6426 0.09233 0.60083 0.0
C542 C 0.59938 0.11962 0.61661 0.0
C543 C 0.57646 0.13479 0.62198 0.0
C544 C 0.61235 0.12175 0.59191 0.0
C545 C 0.56726 0.15289 0.60269 0.0
C546 C 0.58016 0.15525 0.57817 0.0
C547 C 0.61471 0.14079 0.54731 0.0
C548 C 0.63668 0.12449 0.54134 0.0
C549 C 0.60247 0.13949 0.57241 0.0
C550 C 0.64672 0.10735 0.56108 0.0
C551 C 0.63467 0.10599 0.58613 0.0
H552 H 0.86251 0.59327 0.6475 0.0
H553 H 0.8975 0.52263 0.61314 0.0
H554 H 0.9045 0.546 0.57122 0.0
H555 H 0.89991 0.58602 0.54392 0.0
H556 H 0.86412 0.65654 0.57758 0.0
H557 H 0.85836 0.63369 0.62015 0.0
C558 C 0.87173 0.58301 0.63087 0.0
C559 C 0.8794 0.55623 0.63349 0.0
C560 C 0.87558 0.59652 0.60666 0.0
C561 C 0.8913 0.54323 0.6117 0.0
C562 C 0.89536 0.55657 0.58768 0.0
C563 C 0.89098 0.59647 0.56059 0.0
C564 C 0.88245 0.62293 0.55754 0.0
C565 C 0.88747 0.58316 0.5849 0.0
C566 C 0.87082 0.63613 0.57935 0.0
C567 C 0.8675 0.62308 0.60372 0.0
H568 H 0.36408 0.42637 0.15292 0.0
H569 H 0.38311 0.43945 0.07003 0.0
H570 H 0.41527 0.40314 0.07135 0.0
H571 H 0.43834 0.36807 0.09597 0.0
H572 H 0.41998 0.35505 0.179 0.0
H573 H 0.38711 0.39089 0.1776 0.0
C574 C 0.37525 0.42127 0.13514 0.0
C575 C 0.37119 0.43566 0.11143 0.0
C576 C 0.3938 0.40036 0.13602 0.0
C577 C 0.38585 0.42878 0.08857 0.0
C578 C 0.40425 0.40798 0.08928 0.0
C579 C 0.42711 0.37297 0.11377 0.0
C580 C 0.43165 0.35887 0.13756 0.0
C581 C 0.40841 0.39368 0.11289 0.0
C582 C 0.41691 0.36556 0.16042 0.0
C583 C 0.39812 0.38609 0.15965 0.0
H584 H 0.38969 0.63816 0.88023 0.0
H585 H 0.41136 0.60048 0.80597 0.0
H586 H 0.37551 0.56823 0.8116 0.0
H587 H 0.34065 0.54848 0.83933 0.0
H588 H 0.3195 0.58541 0.91409 0.0
H589 H 0.35236 0.62038 0.90634 0.0
C590 C 0.38641 0.62308 0.86512 0.0
C591 C 0.4034 0.62157 0.84287 0.0
C592 C 0.36595 0.60437 0.86862 0.0
C593 C 0.39873 0.602 0.8234 0.0
C594 C 0.37825 0.5835 0.82661 0.0
C595 C 0.34301 0.56431 0.85383 0.0
C596 C 0.32784 0.56414 0.8774 0.0
C597 C 0.36215 0.58414 0.84943 0.0
C598 C 0.33101 0.58496 0.89584 0.0
C599 C 0.34986 0.60494 0.89147 0.0
H600 H 0.44503 0.39624 0.91509 0.0
H601 H 0.42116 0.35933 0.84118 0.0
H602 H 0.38162 0.38763 0.83952 0.0
H603 H 0.35387 0.423 0.85906 0.0
H604 H 0.37841 0.46005 0.93272 0.0
H605 H 0.41756 0.43145 0.93447 0.0
C606 C 0.43121 0.39436 0.89859 0.0
C607 C 0.43607 0.37568 0.87831 0.0
C608 C 0.40857 0.41069 0.89773 0.0
C609 C 0.41793 0.37357 0.85706 0.0
C610 C 0.39528 0.38972 0.85611 0.0
C611 C 0.36773 0.42474 0.87554 0.0
C612 C 0.36318 0.44363 0.89573 0.0
C613 C 0.39039 0.40834 0.87635 0.0
C614 C 0.38142 0.44572 0.91688 0.0
C615 C 0.40385 0.42937 0.91791 0.0
H616 H 0.63659 0.42011 0.89649 0.0
H617 H 0.62547 0.46233 0.82239 0.0
H618 H 0.58885 0.43262 0.81063 0.0
H619 H 0.55845 0.39617 0.82245 0.0
H620 H 0.56939 0.3545 0.89691 0.0
H621 H 0.60761 0.3825 0.90736 0.0
C622 C 0.62633 0.42272 0.87765 0.0
C623 C 0.6337 0.44352 0.86044 0.0
C624 C 0.60511 0.40576 0.87112 0.0
C625 C 0.62018 0.44653 0.83608 0.0
C626 C 0.59917 0.42959 0.82935 0.0
C627 C 0.56927 0.39312 0.84091 0.0
C628 C 0.56092 0.37337 0.85892 0.0
C629 C 0.59121 0.40939 0.8469 0.0
C630 C 0.57527 0.36962 0.88269 0.0
C631 C 0.59716 0.38563 0.88872 0.0
H632 H 0.59079 0.55317 0.82875 0.0
H633 H 0.64762 0.59508 0.8778 0.0
H634 H 0.61593 0.63153 0.88371 0.0
H635 H 0.57134 0.65051 0.87659 0.0
H636 H 0.51428 0.6076 0.82862 0.0
H637 H 0.54689 0.57256 0.82066 0.0
C638 C 0.59638 0.57036 0.84056 0.0
C639 C 0.62152 0.57136 0.85285 0.0
C640 C 0.57796 0.59102 0.84421 0.0
C641 C 0.62836 0.59377 0.86816 0.0
C642 C 0.61024 0.61461 0.87159 0.0
C643 C 0.56609 0.63357 0.86427 0.0
C644 C 0.54037 0.63165 0.85332 0.0
C645 C 0.58486 0.61329 0.85997 0.0
C646 C 0.53388 0.60953 0.83743 0.0
C647 C 0.55253 0.58947 0.83283 0.0
H648 H 0.64847 0.58317 0.09778 0.0
H649 H 0.61972 0.53081 0.15965 0.0
H650 H 0.58244 0.5607 0.16812 0.0
H651 H 0.55665 0.60022 0.15637 0.0
H652 H 0.58446 0.65225 0.09383 0.0
H653 H 0.62357 0.62402 0.08737 0.0
C654 C 0.63418 0.57841 0.11327 0.0
C655 C 0.63681 0.5547 0.12792 0.0
C656 C 0.61256 0.59555 0.11786 0.0
C657 C 0.61811 0.54884 0.14794 0.0
C658 C 0.59675 0.56592 0.15282 0.0
C659 C 0.57133 0.60553 0.14144 0.0
C660 C 0.56752 0.62822 0.1255 0.0
C661 C 0.59357 0.5891 0.13763 0.0
C662 C 0.58684 0.63483 0.10632 0.0
C663 C 0.6092 0.61868 0.10258 0.0
H664 H 0.3975 0.54918 0.15966 0.0
H665 H 0.33762 0.57321 0.1028 0.0
H666 H 0.36287 0.61347 0.09283 0.0
H667 H 0.40302 0.64077 0.09856 0.0
H668 H 0.46308 0.6164 0.15511 0.0
H669 H 0.43657 0.57752 0.16694 0.0
C670 C 0.38988 0.56328 0.1452 0.0
C671 C 0.36579 0.55806 0.1319 0.0
C672 C 0.40456 0.58635 0.13942 0.0
C673 C 0.35616 0.57665 0.1133 0.0
C674 C 0.3706 0.5997 0.10753 0.0
C675 C 0.41024 0.62708 0.11362 0.0
C676 C 0.43509 0.63146 0.12578 0.0
C677 C 0.39499 0.60459 0.12023 0.0
C678 C 0.44407 0.61351 0.14532 0.0
C679 C 0.42894 0.59121 0.1521 0.0
H680 H 0.64738 0.40369 0.10778 0.0
H681 H 0.60778 0.43299 0.17834 0.0
H682 H 0.5752 0.39714 0.1753 0.0
H683 H 0.55604 0.35955 0.15086 0.0
H684 H 0.59532 0.3303 0.08014 0.0
H685 H 0.63005 0.36394 0.08519 0.0
C686 C 0.63177 0.4021 0.12265 0.0
C687 C 0.62989 0.42118 0.14309 0.0
C688 C 0.61295 0.38153 0.1207 0.0
C689 C 0.60965 0.41868 0.1623 0.0
C690 C 0.59094 0.39821 0.16056 0.0
C691 C 0.5723 0.36037 0.13665 0.0
C692 C 0.57291 0.34261 0.11499 0.0
C693 C 0.5921 0.37985 0.13956 0.0
C694 C 0.59429 0.34379 0.09694 0.0
C695 C 0.61413 0.36308 0.09976 0.0
H696 H 0.02925 0.2774 0.54669 0.0
H697 H 0.04529 0.27232 0.46233 0.0
H698 H -0.00185 0.26443 0.45354 0.0
H699 H 0.95203 0.26441 0.46923 0.0
H700 H 0.93555 0.27251 0.55327 0.0
H701 H 0.98325 0.27331 0.56279 0.0
C702 C 0.02251 0.27412 0.52642 0.0
C703 C 0.0407 0.27575 0.50517 0.0
C704 C 0.99526 0.27029 0.52144 0.0
C705 C 0.03164 0.27144 0.47902 0.0
C706 C 0.00468 0.26694 0.47397 0.0
C707 C 0.95883 0.26584 0.48969 0.0
C708 C 0.94026 0.26868 0.51047 0.0
C709 C 0.98623 0.26714 0.49494 0.0
C710 C 0.94944 0.2705 0.53687 0.0
C711 C 0.97672 0.27106 0.54233 0.0
H712 H 0.71059 0.02159 0.52548 0.0
H713 H 0.71267 0.03058 0.43996 0.0
H714 H 0.71372 0.98228 0.43461 0.0
H715 H 0.70984 0.93771 0.45408 0.0
H716 H 0.70498 0.92891 0.53951 0.0
H717 H 0.70941 0.97697 0.54503 0.0
C718 C 0.71169 0.01301 0.50567 0.0
C719 C 0.71139 0.02963 0.48315 0.0
C720 C 0.71155 0.98526 0.50272 0.0
C721 C 0.71271 0.01819 0.45762 0.0
C722 C 0.71326 0.99059 0.45454 0.0
C723 C 0.7101 0.94626 0.47392 0.0
C724 C 0.7069 0.92979 0.49633 0.0
C725 C 0.71203 0.97394 0.47693 0.0
C726 C 0.70721 0.94119 0.52191 0.0
C727 C 0.70974 0.96866 0.52509 0.0
H728 H 0.96307 0.71223 0.53997 0.0
H729 H 0.94745 0.71123 0.45537 0.0
H730 H 0.99455 0.71892 0.44627 0.0
H731 H 0.04063 0.72062 0.46213 0.0
H732 H 0.05661 0.71909 0.54663 0.0
H733 H 0.00889 0.71814 0.55593 0.0
C734 C 0.96989 0.71412 0.51954 0.0
C735 C 0.95181 0.71083 0.49839 0.0
C736 C -0.00289 0.71793 0.51441 0.0
C737 C 0.96099 0.7134 0.47204 0.0
C738 C 0.98793 0.71778 0.4668 0.0
C739 C 0.0337 0.72058 0.4826 0.0
C740 C 0.05217 0.71962 0.50363 0.0
C741 C 0.00627 0.71927 0.4878 0.0
C742 C 0.04281 0.71961 0.53005 0.0
C743 C 0.01552 0.71898 0.53539 0.0
H744 H 0.28691 0.04429 0.45891 0.0
H745 H 0.29593 0.05897 0.54319 0.0
H746 H 0.29578 0.01113 0.55179 0.0
H747 H 0.29717 0.96526 0.53491 0.0
H748 H 0.29014 0.95097 0.45035 0.0
H749 H 0.28524 -0.00143 0.44239 0.0
C750 C 0.28852 0.03708 0.47921 0.0
C751 C 0.29168 0.05517 0.50033 0.0
C752 C 0.28897 0.0096 0.48395 0.0
C753 C 0.29365 0.04546 0.52653 0.0
C754 C 0.29362 0.0181 0.53147 0.0
C755 C 0.29423 0.97252 0.51478 0.0
C756 C 0.29427 0.95461 0.49325 0.0
C757 C 0.29193 -1e-05 0.51026 0.0
C758 C 0.29042 0.96435 0.46727 0.0
C759 C 0.28763 0.99158 0.46268 0.0
H760 H 0.45876 0.95316 0.27537 0.0
H761 H 0.54367 0.93945 0.27528 0.0
H762 H 0.55168 0.98718 0.27181 0.0
H763 H 0.53474 0.03288 0.27401 0.0
H764 H 0.44986 0.04663 0.27579 0.0
H765 H 0.44176 -0.00114 0.27305 0.0
C766 C 0.47902 0.96055 0.27417 0.0
C767 C 0.50056 0.94275 0.27596 0.0
C768 C 0.48353 0.98809 0.27269 0.0
C769 C 0.52669 0.95271 0.27422 0.0
C770 C 0.53132 0.98003 0.27229 0.0
C771 C 0.51446 0.02548 0.27338 0.0
C772 C 0.49298 0.04332 0.27546 0.0
C773 C 0.50991 -0.00206 0.27233 0.0
C774 C 0.46681 0.03336 0.27444 0.0
C775 C 0.46213 0.00601 0.27295 0.0
H776 H 0.9585 0.53391 0.29494 0.0
H777 H 0.94416 0.4501 0.28251 0.0
H778 H 0.99205 0.44192 0.28063 0.0
H779 H 0.03786 0.45795 0.28646 0.0
H780 H 0.05199 0.54153 0.30057 0.0
H781 H 0.00432 0.55037 0.29768 0.0
C782 C 0.96581 0.51389 0.29146 0.0
C783 C 0.94775 0.49264 0.28909 0.0
C784 C 0.99336 0.50923 0.29093 0.0
C785 C 0.95761 0.46683 0.28456 0.0
C786 C 0.98501 0.46211 0.28355 0.0
C787 C 0.03056 0.47814 0.28862 0.0
C788 C 0.04847 0.49898 0.29398 0.0
C789 C 0.00306 0.48306 0.28734 0.0
C790 C 0.03864 0.52506 0.29663 0.0
C791 C 0.01137 0.53016 0.295 0.0
H792 H 0.53812 0.96262 0.70972 0.0
H793 H 0.45306 0.9526 0.71729 0.0
H794 H 0.4473 0.00079 0.71975 0.0
H795 H 0.46595 0.04563 0.71535 0.0
H796 H 0.55072 0.05559 0.70493 0.0
H797 H 0.55708 0.00754 0.70825 0.0
C798 C 0.51836 0.97095 0.71232 0.0
C799 C 0.49604 0.95408 0.71313 0.0
C800 C 0.51512 -0.00133 0.71301 0.0
C801 C 0.47056 0.96519 0.71642 0.0
C802 C 0.46723 0.99273 0.71779 0.0
C803 C 0.48587 0.03733 0.71419 0.0
C804 C 0.5078 0.05413 0.7097 0.0
C805 C 0.48931 0.00966 0.71543 0.0
C806 C 0.53347 0.04306 0.70818 0.0
C807 C 0.53713 0.01559 0.71005 0.0
H808 H 0.95837 0.55533 0.72032 0.0
H809 H 0.95268 0.47002 0.729 0.0
H810 H 0.00107 0.46662 0.73031 0.0
H811 H 0.04458 0.487 0.72255 0.0
H812 H 0.05055 0.57206 0.71215 0.0
H813 H 0.0025 0.57642 0.71837 0.0
C814 C 0.96769 0.53605 0.72306 0.0
C815 C 0.95193 0.51292 0.72406 0.0
C816 C 0.99559 0.53414 0.72318 0.0
C817 C 0.96434 0.48812 0.72782 0.0
C818 C 0.99203 0.48612 0.72849 0.0
C819 C 0.03545 0.50656 0.72204 0.0
C820 C 0.05105 0.5291 0.71638 0.0
C821 C 0.00781 0.50887 0.72513 0.0
C822 C 0.03897 0.55433 0.71623 0.0
C823 C 0.01146 0.55685 0.71968 0.0
H824 H 0.26286 0.51181 0.95664 0.0
H825 H 0.27397 0.42699 0.96479 0.0
H826 H 0.27391 0.43139 0.01321 0.0
H827 H 0.27618 0.4599 0.05279 0.0
H828 H 0.266 0.54483 0.04456 0.0
H829 H 0.25985 0.53969 -0.00339 0.0
C830 C 0.26488 0.49421 0.969 0.0
C831 C 0.26885 0.46917 0.95711 0.0
C832 C 0.26519 0.49691 -0.00319 0.0
C833 C 0.27107 0.44654 0.97341 0.0
C834 C 0.27115 0.44904 0.00112 0.0
C835 C 0.27223 0.47726 0.04058 0.0
C836 C 0.272 0.50275 0.0522 0.0
C837 C 0.26908 0.47423 0.01298 0.0
C838 C 0.26649 0.52499 0.03613 0.0
C839 C 0.26308 0.52209 0.00867 0.0
H840 H 0.4657 0.28337 0.94146 0.0
H841 H 0.55122 0.27658 0.94759 0.0
H842 H 0.54766 0.27223 0.99587 0.0
H843 H 0.5208 0.27593 0.03651 0.0
H844 H 0.43535 0.28346 0.03044 0.0
H845 H 0.43838 0.28164 0.98194 0.0
C846 C 0.48355 0.28052 0.9533 0.0
C847 C 0.50872 0.28076 0.94097 0.0
C848 C 0.48141 0.27842 0.98109 0.0
C849 C 0.5316 0.27669 0.95657 0.0
C850 C 0.52961 0.27432 0.98422 0.0
C851 C 0.50279 0.27682 0.02459 0.0
C852 C 0.47793 0.28029 0.03705 0.0
C853 C 0.50469 0.27605 -0.00327 0.0
C854 C 0.45476 0.281 0.02136 0.0
C855 C 0.45648 0.28005 0.9936 0.0
H856 H 0.70415 0.47718 0.94327 0.0
H857 H 0.70464 0.56128 0.96095 0.0
H858 H 0.70712 0.55153 0.00854 0.0
H859 H 0.7055 0.51923 0.04507 0.0
H860 H 0.70445 0.43512 0.02739 0.0
H861 H 0.7061 0.44485 0.97977 0.0
C862 C 0.70504 0.4934 0.9575 0.0
C863 C 0.7039 0.51992 0.94857 0.0
C864 C 0.70624 0.48767 0.98482 0.0
C865 C 0.70535 0.54069 0.96727 0.0
C866 C 0.7067 0.53513 0.9945 0.0
C867 C 0.70589 0.50299 0.03083 0.0
C868 C 0.70455 0.47649 0.03979 0.0
C869 C 0.70659 0.50871 0.0035 0.0
C870 C 0.70534 0.45571 0.02106 0.0
C871 C 0.7062 0.46125 0.99381 0.0
H872 H 0.5029 0.70417 0.93515 0.0
H873 H 0.41927 0.69716 0.95398 0.0
H874 H 0.42936 0.70073 0.00141 0.0
H875 H 0.4622 0.70189 0.03758 0.0
H876 H 0.54586 0.70856 0.01873 0.0
H877 H 0.53539 0.70931 0.97126 0.0
C878 C 0.48683 0.70371 0.94959 0.0
C879 C 0.4604 0.70008 0.94101 0.0
C880 C 0.49278 0.70555 0.97685 0.0
C881 C 0.43981 0.6998 0.96001 0.0
C882 C 0.44556 0.70176 0.98716 0.0
C883 C 0.47815 0.70378 0.02311 0.0
C884 C 0.5048 0.70484 0.03171 0.0
C885 C 0.47202 0.70401 0.99583 0.0
C886 C 0.52517 0.70757 0.01269 0.0
C887 C 0.51922 0.70792 0.98551 0.0
H888 H 0.16913 0.23074 0.44617 0.0
H889 H 0.18397 0.26243 0.52479 0.0
H890 H 0.22157 0.23228 0.53022 0.0
H891 H 0.25042 0.19726 0.5127 0.0
H892 H 0.23629 0.16577 0.43391 0.0
H893 H 0.19822 0.19554 0.42855 0.0
C894 C 0.18055 0.231 0.46451 0.0
C895 C 0.17373 0.24881 0.48501 0.0
C896 C 0.20229 0.2137 0.46749 0.0
C897 C 0.1888 0.24897 0.50863 0.0
C898 C 0.21032 0.23172 0.5118 0.0
C899 C 0.23901 0.19685 0.49436 0.0
C900 C 0.24618 0.1793 0.47377 0.0
C901 C 0.21726 0.21406 0.49135 0.0
C902 C 0.23121 0.1791 0.4501 0.0
C903 C 0.20943 0.19611 0.447 0.0
H904 H 0.70566 0.21165 0.48946 0.0
H905 H 0.76394 0.15237 0.4675 0.0
H906 H 0.79976 0.18437 0.47511 0.0
H907 H 0.81453 0.22873 0.48919 0.0
H908 H 0.75612 0.28766 0.51181 0.0
H909 H 0.72034 0.25612 0.50279 0.0
C910 C 0.72618 0.20574 0.48616 0.0
C911 C 0.73211 0.17966 0.47796 0.0
C912 C 0.74666 0.22411 0.49085 0.0
C913 C 0.75882 0.17233 0.47386 0.0
C914 C 0.77932 0.19059 0.47824 0.0
C915 C 0.79398 0.23469 0.49214 0.0
C916 C 0.78804 0.26049 0.50125 0.0
C917 C 0.77348 0.21645 0.48697 0.0
C918 C 0.76128 0.26791 0.5049 0.0
C919 C 0.74078 0.2499 0.49971 0.0
H920 H 0.81978 0.7437 0.49589 0.0
H921 H 0.76978 0.67751 0.47339 0.0
H922 H 0.73057 0.70622 0.47492 0.0
H923 H 0.71042 0.74992 0.48343 0.0
H924 H 0.76054 0.81577 0.50674 0.0
H925 H 0.79975 0.7873 0.50414 0.0
C926 C 0.80033 0.73556 0.49119 0.0
C927 C 0.79772 0.70852 0.48454 0.0
C928 C 0.77787 0.75207 0.49236 0.0
C929 C 0.77235 0.69827 0.47862 0.0
C930 C 0.7499 0.71466 0.4795 0.0
C931 C 0.72991 0.75805 0.48791 0.0
C932 C 0.73251 0.78491 0.49529 0.0
C933 C 0.75242 0.74155 0.48649 0.0
C934 C 0.75794 0.79513 0.50107 0.0
C935 C 0.78041 0.77889 0.49956 0.0
H936 H 0.18369 0.76117 0.49646 0.0
H937 H 0.23575 0.70203 0.53089 0.0
H938 H 0.27341 0.73245 0.52698 0.0
H939 H 0.29167 0.77553 0.51333 0.0
H940 H 0.23971 0.83464 0.47873 0.0
H941 H 0.20191 0.80443 0.48314 0.0
C942 C 0.20325 0.75495 0.50321 0.0
C943 C 0.20688 0.72936 0.51393 0.0
C944 C 0.22486 0.77247 0.50079 0.0
C945 C 0.23238 0.72161 0.52253 0.0
C946 C 0.25395 0.73898 0.52029 0.0
C947 C 0.2721 0.78183 0.50672 0.0
C948 C 0.26856 0.80728 0.49567 0.0
C949 C 0.25044 0.7644 0.50934 0.0
C950 C 0.24302 0.81513 0.48728 0.0
C951 C 0.22137 0.79788 0.48981 0.0
H952 H 0.48037 0.17415 0.23293 0.0
H953 H 0.51117 0.22474 0.29529 0.0
H954 H 0.51609 0.2612 0.26361 0.0
H955 H 0.5119 0.27867 0.21825 0.0
H956 H 0.48053 0.22836 0.15596 0.0
H957 H 0.47558 0.19186 0.18764 0.0
C958 C 0.48817 0.19315 0.2396 0.0
C959 C 0.49544 0.19668 0.26642 0.0
C960 C 0.49086 0.21409 0.22132 0.0
C961 C 0.5054 0.22146 0.27476 0.0
C962 C 0.50825 0.24234 0.25666 0.0
C963 C 0.504 0.25973 0.21158 0.0
C964 C 0.49667 0.25625 0.18478 0.0
C965 C 0.50109 0.23886 0.22989 0.0
C966 C 0.48633 0.23159 0.1765 0.0
C967 C 0.4835 0.21068 0.19459 0.0
H968 H 0.81798 0.48248 0.23724 0.0
H969 H 0.76632 0.51401 0.29839 0.0
H970 H 0.72969 0.51646 0.26659 0.0
H971 H 0.71198 0.50853 0.2219 0.0
H972 H 0.76326 0.47631 0.16079 0.0
H973 H 0.8004 0.47529 0.19217 0.0
C974 C 0.79875 0.49003 0.24358 0.0
C975 C 0.79489 0.49799 0.27016 0.0
C976 C 0.77768 0.49117 0.22526 0.0
C977 C 0.76983 0.50767 0.27807 0.0
C978 C 0.74885 0.50907 0.25991 0.0
C979 C 0.73129 0.50134 0.21538 0.0
C980 C 0.7348 0.49245 0.18906 0.0
C981 C 0.7525 0.50068 0.23353 0.0
C982 C 0.75998 0.48322 0.18097 0.0
C983 C 0.78124 0.48263 0.19889 0.0
H984 H 0.51334 0.70558 0.21679 0.0
H985 H 0.50359 0.76273 0.15332 0.0
H986 H 0.50615 0.79914 0.18549 0.0
H987 H 0.51057 0.81466 0.2317 0.0
H988 H 0.52042 0.75726 0.29497 0.0
H989 H 0.51848 0.72104 0.26271 0.0
C990 C 0.51177 0.72599 0.20995 0.0
C991 C 0.5082 0.7314 0.1827 0.0
C992 C 0.5133 0.74679 0.2285 0.0
C993 C 0.50631 0.75799 0.17419 0.0
C994 C 0.50777 0.77883 0.19257 0.0
C995 C 0.51236 0.79424 0.23844 0.0
C996 C 0.51558 0.78871 0.26573 0.0
C997 C 0.51119 0.77345 0.21978 0.0
C998 C 0.51792 0.76212 0.2741 0.0
C999 C 0.51678 0.74136 0.25567 0.0
H1000 H 0.23143 0.48794 0.29001 0.0
H1001 H 0.16516 0.49915 0.23633 0.0
H1002 H 0.19538 0.49781 0.19829 0.0
H1003 H 0.24059 0.49424 0.18031 0.0
H1004 H 0.30691 0.48301 0.2339 0.0
H1005 H 0.27661 0.48358 0.27194 0.0
C1006 C 0.22357 0.49002 0.27 0.0
C1007 C 0.19608 0.4937 0.26606 0.0
C1008 C 0.24105 0.48929 0.24819 0.0
C1009 C 0.18624 0.49632 0.23996 0.0
C1010 C 0.2035 0.49559 0.21817 0.0
C1011 C 0.24845 0.4919 0.2003 0.0
C1012 C 0.27599 0.48866 0.20424 0.0
C1013 C 0.23094 0.49222 0.22207 0.0
C1014 C 0.2858 0.48556 0.23028 0.0
C1015 C 0.26849 0.48589 0.25207 0.0
H1016 H 0.46712 0.75119 0.81359 0.0
H1017 H 0.48602 0.69029 0.75587 0.0
H1018 H 0.48798 0.72367 0.72072 0.0
H1019 H 0.48492 0.77006 0.7064 0.0
H1020 H 0.46705 0.83131 0.76402 0.0
H1021 H 0.46404 0.79782 0.79917 0.0
C1022 C 0.4716 0.74521 0.79331 0.0
C1023 C 0.47641 0.71829 0.78739 0.0
C1024 C 0.47289 0.76454 0.77317 0.0
C1025 C 0.48228 0.71088 0.76102 0.0
C1026 C 0.4834 0.72995 0.74087 0.0
C1027 C 0.48026 0.77611 0.72662 0.0
C1028 C 0.47619 0.80312 0.73257 0.0
C1029 C 0.47881 0.75682 0.74673 0.0
C1030 C 0.47032 0.81063 0.75891 0.0
C1031 C 0.46859 0.79149 0.77902 0.0
H1032 H 0.27722 0.4769 0.77265 0.0
H1033 H 0.21711 0.47379 0.83417 0.0
H1034 H 0.18218 0.47469 0.80047 0.0
H1035 H 0.16866 0.47887 0.75387 0.0
H1036 H 0.22849 0.48229 0.69216 0.0
H1037 H 0.26358 0.47862 0.72568 0.0
C1038 C 0.25649 0.47621 0.7787 0.0
C1039 C 0.24981 0.4755 0.80591 0.0
C1040 C 0.23645 0.47692 0.75922 0.0
C1041 C 0.22284 0.47447 0.81337 0.0
C1042 C 0.20282 0.47503 0.79412 0.0
C1043 C 0.18937 0.4787 0.7477 0.0
C1044 C 0.19595 0.48109 0.72058 0.0
C1045 C 0.2094 0.47668 0.76704 0.0
C1046 C 0.22288 0.48057 0.71293 0.0
C1047 C 0.24296 0.47851 0.73208 0.0
H1048 H 0.49819 0.23564 0.70436 0.0
H1049 H 0.52626 0.17442 0.75779 0.0
H1050 H 0.52314 0.20523 0.79525 0.0
H1051 H 0.51132 0.24906 0.81299 0.0
H1052 H 0.48251 0.31008 0.75971 0.0
H1053 H 0.48705 0.27974 0.72201 0.0
C1054 C 0.50379 0.22907 0.72416 0.0
C1055 C 0.5124 0.20277 0.72827 0.0
C1056 C 0.50169 0.24678 0.74566 0.0
C1057 C 0.51949 0.19455 0.75408 0.0
C1058 C 0.5177 0.21214 0.77553 0.0
C1059 C 0.50607 0.25577 0.79313 0.0
C1060 C 0.49651 0.28177 0.7892 0.0
C1061 C 0.50862 0.23821 0.77157 0.0
C1062 C 0.48984 0.29013 0.76332 0.0
C1063 C 0.49245 0.27281 0.74173 0.0
H1064 H 0.71437 0.52931 0.76494 0.0
H1065 H 0.76412 0.51345 0.83332 0.0
H1066 H 0.80312 0.51029 0.80455 0.0
H1067 H 0.82273 0.50976 0.75992 0.0
H1068 H 0.77302 0.52492 0.69138 0.0
H1069 H 0.73443 0.5308 0.72037 0.0
C1070 C 0.73376 0.52533 0.77359 0.0
C1071 C 0.73626 0.52144 0.80122 0.0
C1072 C 0.75612 0.52333 0.75692 0.0
C1073 C 0.76157 0.5164 0.81209 0.0
C1074 C 0.78392 0.51457 0.79566 0.0
C1075 C 0.8035 0.51452 0.7513 0.0
C1076 C 0.80075 0.5167 0.72351 0.0
C1077 C 0.78136 0.51764 0.76803 0.0
C1078 C 0.7757 0.523 0.71271 0.0
C1079 C 0.75359 0.52634 0.72926 0.0
loop_
_geom_bond_atom_site_label_1
_geom_bond_atom_site_label_2
_geom_bond_distance
_geom_bond_site_symmetry_2
_ccdc_geom_bond_type
C0 O1 1.160 . S
C0 O7 1.185 . S
O1 C0 1.160 . S
O2 Zn3 1.899 . S
O2 C10 1.284 . S
Zn3 O2 1.899 . S
Zn3 O4 2.032 . S
Zn3 O7 2.086 . S
Zn3 O12 1.977 . S
O4 Zn3 2.032 . S
O4 C8 1.278 . S
C5 O6 1.203 . S
C5 O12 1.267 . S
O6 C5 1.203 . S
O7 C0 1.185 . S
O7 Zn3 2.086 . S
C8 O4 1.278 . S
C8 O9 1.211 . S
O9 C8 1.211 . S
C10 O2 1.284 . S
C10 O11 1.273 . S
O11 C10 1.273 . S
O12 Zn3 1.977 . S
O12 C5 1.267 . S
C13 O14 1.160 . S
C13 O20 1.185 . S
O14 C13 1.160 . S
O15 Zn16 1.899 . S
O15 C23 1.284 . S
Zn16 O15 1.899 . S
Zn16 O17 2.032 . S
Zn16 O20 2.086 . S
Zn16 O25 1.977 . S
O17 Zn16 2.032 . S
O17 C21 1.278 . S
C18 O19 1.203 . S
C18 O25 1.267 . S
O19 C18 1.203 . S
O20 C13 1.185 . S
O20 Zn16 2.086 . S
C21 O17 1.278 . S
C21 O22 1.211 . S
O22 C21 1.211 . S
C23 O15 1.284 . S
C23 O24 1.273 . S
O24 C23 1.273 . S
O25 Zn16 1.977 . S
O25 C18 1.267 . S
C26 O27 1.160 . S
C26 O33 1.185 . S
O27 C26 1.160 . S
O28 Zn29 1.899 . S
O28 C36 1.284 . S
Zn29 O28 1.899 . S
Zn29 O30 2.032 . S
Zn29 O33 2.086 . S
Zn29 O38 1.977 . S
O30 Zn29 2.032 . S
O30 C34 1.278 . S
C31 O32 1.203 . S
C31 O38 1.267 . S
O32 C31 1.203 . S
O33 C26 1.185 . S
O33 Zn29 2.086 . S
C34 O30 1.278 . S
C34 O35 1.211 . S
O35 C34 1.211 . S
C36 O28 1.284 . S
C36 O37 1.273 . S
O37 C36 1.273 . S
O38 Zn29 1.977 . S
O38 C31 1.267 . S
C39 O40 1.160 . S
C39 O46 1.185 . S
O40 C39 1.160 . S
O41 Zn42 1.899 . S
O41 C49 1.284 . S
Zn42 O41 1.899 . S
Zn42 O43 2.032 . S
Zn42 O46 2.086 . S
Zn42 O51 1.977 . S
O43 Zn42 2.032 . S
O43 C47 1.278 . S
C44 O45 1.203 . S
C44 O51 1.267 . S
O45 C44 1.203 . S
O46 C39 1.185 . S
O46 Zn42 2.086 . S
C47 O43 1.278 . S
C47 O48 1.211 . S
O48 C47 1.211 . S
C49 O41 1.284 . S
C49 O50 1.273 . S
O50 C49 1.273 . S
O51 Zn42 1.977 . S
O51 C44 1.267 . S
C52 O53 1.160 . S
C52 O59 1.185 . S
O53 C52 1.160 . S
O54 Zn55 1.899 . S
O54 C62 1.284 . S
Zn55 O54 1.899 . S
Zn55 O56 2.032 . S
Zn55 O59 2.086 . S
Zn55 O64 1.977 . S
O56 Zn55 2.032 . S
O56 C60 1.278 . S
C57 O58 1.203 . S
C57 O64 1.267 . S
O58 C57 1.203 . S
O59 C52 1.185 . S
O59 Zn55 2.086 . S
C60 O56 1.278 . S
C60 O61 1.211 . S
O61 C60 1.211 . S
C62 O54 1.284 . S
C62 O63 1.273 . S
O63 C62 1.273 . S
O64 Zn55 1.977 . S
O64 C57 1.267 . S
C65 O66 1.160 . S
C65 O72 1.185 . S
O66 C65 1.160 . S
O67 Zn68 1.899 . S
O67 C75 1.284 . S
Zn68 O67 1.899 . S
Zn68 O69 2.032 . S
Zn68 O72 2.086 . S
Zn68 O77 1.977 . S
O69 Zn68 2.032 . S
O69 C73 1.278 . S
C70 O71 1.203 . S
C70 O77 1.267 . S
O71 C70 1.203 . S
O72 C65 1.185 . S
O72 Zn68 2.086 . S
C73 O69 1.278 . S
C73 O74 1.211 . S
O74 C73 1.211 . S
C75 O67 1.284 . S
C75 O76 1.273 . S
O76 C75 1.273 . S
O77 Zn68 1.977 . S
O77 C70 1.267 . S
C78 O79 1.160 . S
C78 O85 1.185 . S
O79 C78 1.160 . S
O80 Zn81 1.899 . S
O80 C88 1.284 . S
Zn81 O80 1.899 . S
Zn81 O82 2.032 . S
Zn81 O85 2.086 . S
Zn81 O90 1.977 . S
O82 Zn81 2.032 . S
O82 C86 1.278 . S
C83 O84 1.203 . S
C83 O90 1.267 . S
O84 C83 1.203 . S
O85 C78 1.185 . S
O85 Zn81 2.086 . S
C86 O82 1.278 . S
C86 O87 1.211 . S
O87 C86 1.211 . S
C88 O80 1.284 . S
C88 O89 1.273 . S
O89 C88 1.273 . S
O90 Zn81 1.977 . S
O90 C83 1.267 . S
C91 O92 1.160 . S
C91 O98 1.185 . S
O92 C91 1.160 . S
O93 Zn94 1.899 . S
O93 C101 1.284 . S
Zn94 O93 1.899 . S
Zn94 O95 2.032 . S
Zn94 O98 2.086 . S
Zn94 O103 1.977 . S
O95 Zn94 2.032 . S
O95 C99 1.278 . S
C96 O97 1.203 . S
C96 O103 1.267 . S
O97 C96 1.203 . S
O98 C91 1.185 . S
O98 Zn94 2.086 . S
C99 O95 1.278 . S
C99 O100 1.211 . S
O100 C99 1.211 . S
C101 O93 1.284 . S
C101 O102 1.273 . S
O102 C101 1.273 . S
O103 Zn94 1.977 . S
O103 C96 1.267 . S
C104 O105 1.160 . S
C104 O111 1.185 . S
O105 C104 1.160 . S
O106 Zn107 1.899 . S
O106 C114 1.284 . S
Zn107 O106 1.899 . S
Zn107 O108 2.032 . S
Zn107 O111 2.086 . S
Zn107 O116 1.977 . S
O108 Zn107 2.032 . S
O108 C112 1.278 . S
C109 O110 1.203 . S
C109 O116 1.267 . S
O110 C109 1.203 . S
O111 C104 1.185 . S
O111 Zn107 2.086 . S
C112 O108 1.278 . S
C112 O113 1.211 . S
O113 C112 1.211 . S
C114 O106 1.284 . S
C114 O115 1.273 . S
O115 C114 1.273 . S
O116 Zn107 1.977 . S
O116 C109 1.267 . S
C117 O118 1.160 . S
C117 O124 1.185 . S
O118 C117 1.160 . S
O119 Zn120 1.899 . S
O119 C127 1.284 . S
Zn120 O119 1.899 . S
Zn120 O121 2.032 . S
Zn120 O124 2.086 . S
Zn120 O129 1.977 . S
O121 Zn120 2.032 . S
O121 C125 1.278 . S
C122 O123 1.203 . S
C122 O129 1.267 . S
O123 C122 1.203 . S
O124 C117 1.185 . S
O124 Zn120 2.086 . S
C125 O121 1.278 . S
C125 O126 1.211 . S
O126 C125 1.211 . S
C127 O119 1.284 . S
C127 O128 1.273 . S
O128 C127 1.273 . S
O129 Zn120 1.977 . S
O129 C122 1.267 . S
C130 O131 1.160 . S
C130 O137 1.185 . S
O131 C130 1.160 . S
O132 Zn133 1.899 . S
O132 C140 1.284 . S
Zn133 O132 1.899 . S
Zn133 O134 2.032 . S
Zn133 O137 2.086 . S
Zn133 O142 1.977 . S
O134 Zn133 2.032 . S
O134 C138 1.278 . S
C135 O136 1.203 . S
C135 O142 1.267 . S
O136 C135 1.203 . S
O137 C130 1.185 . S
O137 Zn133 2.086 . S
C138 O134 1.278 . S
C138 O139 1.211 . S
O139 C138 1.211 . S
C140 O132 1.284 . S
C140 O141 1.273 . S
O141 C140 1.273 . S
O142 Zn133 1.977 . S
O142 C135 1.267 . S
C143 O144 1.160 . S
C143 O150 1.185 . S
O144 C143 1.160 . S
O145 Zn146 1.899 . S
O145 C153 1.284 . S
Zn146 O145 1.899 . S
Zn146 O147 2.032 . S
Zn146 O150 2.086 . S
Zn146 O155 1.977 . S
O147 Zn146 2.032 . S
O147 C151 1.278 . S
C148 O149 1.203 . S
C148 O155 1.267 . S
O149 C148 1.203 . S
O150 C143 1.185 . S
O150 Zn146 2.086 . S
C151 O147 1.278 . S
C151 O152 1.211 . S
O152 C151 1.211 . S
C153 O145 1.284 . S
C153 O154 1.273 . S
O154 C153 1.273 . S
O155 Zn146 1.977 . S
O155 C148 1.267 . S
C156 O157 1.160 . S
C156 O163 1.185 . S
O157 C156 1.160 . S
O158 Zn159 1.899 . S
O158 C166 1.284 . S
Zn159 O158 1.899 . S
Zn159 O160 2.032 . S
Zn159 O163 2.086 . S
Zn159 O168 1.977 . S
O160 Zn159 2.032 . S
O160 C164 1.278 . S
C161 O162 1.203 . S
C161 O168 1.267 . S
O162 C161 1.203 . S
O163 C156 1.185 . S
O163 Zn159 2.086 . S
C164 O160 1.278 . S
C164 O165 1.211 . S
O165 C164 1.211 . S
C166 O158 1.284 . S
C166 O167 1.273 . S
O167 C166 1.273 . S
O168 Zn159 1.977 . S
O168 C161 1.267 . S
C169 O170 1.160 . S
C169 O176 1.185 . S
O170 C169 1.160 . S
O171 Zn172 1.899 . S
O171 C179 1.284 . S
Zn172 O171 1.899 . S
Zn172 O173 2.032 . S
Zn172 O176 2.086 . S
Zn172 O181 1.977 . S
O173 Zn172 2.032 . S
O173 C177 1.278 . S
C174 O175 1.203 . S
C174 O181 1.267 . S
O175 C174 1.203 . S
O176 C169 1.185 . S
O176 Zn172 2.086 . S
C177 O173 1.278 . S
C177 O178 1.211 . S
O178 C177 1.211 . S
C179 O171 1.284 . S
C179 O180 1.273 . S
O180 C179 1.273 . S
O181 Zn172 1.977 . S
O181 C174 1.267 . S
C182 O183 1.160 . S
C182 O189 1.185 . S
O183 C182 1.160 . S
O184 Zn185 1.899 . S
O184 C192 1.284 . S
Zn185 O184 1.899 . S
Zn185 O186 2.032 . S
Zn185 O189 2.086 . S
Zn185 O194 1.977 . S
O186 Zn185 2.032 . S
O186 C190 1.278 . S
C187 O188 1.203 . S
C187 O194 1.267 . S
O188 C187 1.203 . S
O189 C182 1.185 . S
O189 Zn185 2.086 . S
C190 O186 1.278 . S
C190 O191 1.211 . S
O191 C190 1.211 . S
C192 O184 1.284 . S
C192 O193 1.273 . S
O193 C192 1.273 . S
O194 Zn185 1.977 . S
O194 C187 1.267 . S
C195 O196 1.160 . S
C195 O202 1.185 . S
O196 C195 1.160 . S
O197 Zn198 1.899 . S
O197 C205 1.284 . S
Zn198 O197 1.899 . S
Zn198 O199 2.032 . S
Zn198 O202 2.086 . S
Zn198 O207 1.977 . S
O199 Zn198 2.032 . S
O199 C203 1.278 . S
C200 O201 1.203 . S
C200 O207 1.267 . S
O201 C200 1.203 . S
O202 C195 1.185 . S
O202 Zn198 2.086 . S
C203 O199 1.278 . S
C203 O204 1.211 . S
O204 C203 1.211 . S
C205 O197 1.284 . S
C205 O206 1.273 . S
O206 C205 1.273 . S
O207 Zn198 1.977 . S
O207 C200 1.267 . S
C208 O209 1.160 . S
C208 O215 1.185 . S
O209 C208 1.160 . S
O210 Zn211 1.899 . S
O210 C218 1.284 . S
Zn211 O210 1.899 . S
Zn211 O212 2.032 . S
Zn211 O215 2.086 . S
Zn211 O220 1.977 . S
O212 Zn211 2.032 . S
O212 C216 1.278 . S
C213 O214 1.203 . S
C213 O220 1.267 . S
O214 C213 1.203 . S
O215 C208 1.185 . S
O215 Zn211 2.086 . S
C216 O212 1.278 . S
C216 O217 1.211 . S
O217 C216 1.211 . S
C218 O210 1.284 . S
C218 O219 1.273 . S
O219 C218 1.273 . S
O220 Zn211 1.977 . S
O220 C213 1.267 . S
C221 O222 1.160 . S
C221 O228 1.185 . S
O222 C221 1.160 . S
O223 Zn224 1.899 . S
O223 C231 1.284 . S
Zn224 O223 1.899 . S
Zn224 O225 2.032 . S
Zn224 O228 2.086 . S
Zn224 O233 1.977 . S
O225 Zn224 2.032 . S
O225 C229 1.278 . S
C226 O227 1.203 . S
C226 O233 1.267 . S
O227 C226 1.203 . S
O228 C221 1.185 . S
O228 Zn224 2.086 . S
C229 O225 1.278 . S
C229 O230 1.211 . S
O230 C229 1.211 . S
C231 O223 1.284 . S
C231 O232 1.273 . S
O232 C231 1.273 . S
O233 Zn224 1.977 . S
O233 C226 1.267 . S
C234 O235 1.160 . S
C234 O241 1.185 . S
O235 C234 1.160 . S
O236 Zn237 1.899 . S
O236 C244 1.284 . S
Zn237 O236 1.899 . S
Zn237 O238 2.032 . S
Zn237 O241 2.086 . S
Zn237 O246 1.977 . S
O238 Zn237 2.032 . S
O238 C242 1.278 . S
C239 O240 1.203 . S
C239 O246 1.267 . S
O240 C239 1.203 . S
O241 C234 1.185 . S
O241 Zn237 2.086 . S
C242 O238 1.278 . S
C242 O243 1.211 . S
O243 C242 1.211 . S
C244 O236 1.284 . S
C244 O245 1.273 . S
O245 C244 1.273 . S
O246 Zn237 1.977 . S
O246 C239 1.267 . S
C247 O248 1.160 . S
C247 O254 1.185 . S
O248 C247 1.160 . S
O249 Zn250 1.899 . S
O249 C257 1.284 . S
Zn250 O249 1.899 . S
Zn250 O251 2.032 . S
Zn250 O254 2.086 . S
Zn250 O259 1.977 . S
O251 Zn250 2.032 . S
O251 C255 1.278 . S
C252 O253 1.203 . S
C252 O259 1.267 . S
O253 C252 1.203 . S
O254 C247 1.185 . S
O254 Zn250 2.086 . S
C255 O251 1.278 . S
C255 O256 1.211 . S
O256 C255 1.211 . S
C257 O249 1.284 . S
C257 O258 1.273 . S
O258 C257 1.273 . S
O259 Zn250 1.977 . S
O259 C252 1.267 . S
C260 O261 1.160 . S
C260 O267 1.185 . S
O261 C260 1.160 . S
O262 Zn263 1.899 . S
O262 C270 1.284 . S
Zn263 O262 1.899 . S
Zn263 O264 2.032 . S
Zn263 O267 2.086 . S
Zn263 O272 1.977 . S
O264 Zn263 2.032 . S
O264 C268 1.278 . S
C265 O266 1.203 . S
C265 O272 1.267 . S
O266 C265 1.203 . S
O267 C260 1.185 . S
O267 Zn263 2.086 . S
C268 O264 1.278 . S
C268 O269 1.211 . S
O269 C268 1.211 . S
C270 O262 1.284 . S
C270 O271 1.273 . S
O271 C270 1.273 . S
O272 Zn263 1.977 . S
O272 C265 1.267 . S
C273 O274 1.160 . S
C273 O280 1.185 . S
O274 C273 1.160 . S
O275 Zn276 1.899 . S
O275 C283 1.284 . S
Zn276 O275 1.899 . S
Zn276 O277 2.032 . S
Zn276 O280 2.086 . S
Zn276 O285 1.977 . S
O277 Zn276 2.032 . S
O277 C281 1.278 . S
C278 O279 1.203 . S
C278 O285 1.267 . S
O279 C278 1.203 . S
O280 C273 1.185 . S
O280 Zn276 2.086 . S
C281 O277 1.278 . S
C281 O282 1.211 . S
O282 C281 1.211 . S
C283 O275 1.284 . S
C283 O284 1.273 . S
O284 C283 1.273 . S
O285 Zn276 1.977 . S
O285 C278 1.267 . S
C286 O287 1.160 . S
C286 O293 1.185 . S
O287 C286 1.160 . S
O288 Zn289 1.899 . S
O288 C296 1.284 . S
Zn289 O288 1.899 . S
Zn289 O290 2.032 . S
Zn289 O293 2.086 . S
Zn289 O298 1.977 . S
O290 Zn289 2.032 . S
O290 C294 1.278 . S
C291 O292 1.203 . S
C291 O298 1.267 . S
O292 C291 1.203 . S
O293 C286 1.185 . S
O293 Zn289 2.086 . S
C294 O290 1.278 . S
C294 O295 1.211 . S
O295 C294 1.211 . S
C296 O288 1.284 . S
C296 O297 1.273 . S
O297 C296 1.273 . S
O298 Zn289 1.977 . S
O298 C291 1.267 . S
C299 O300 1.160 . S
C299 O306 1.185 . S
O300 C299 1.160 . S
O301 Zn302 1.899 . S
O301 C309 1.284 . S
Zn302 O301 1.899 . S
Zn302 O303 2.032 . S
Zn302 O306 2.086 . S
Zn302 O311 1.977 . S
O303 Zn302 2.032 . S
O303 C307 1.278 . S
C304 O305 1.203 . S
C304 O311 1.267 . S
O305 C304 1.203 . S
O306 C299 1.185 . S
O306 Zn302 2.086 . S
C307 O303 1.278 . S
C307 O308 1.211 . S
O308 C307 1.211 . S
C309 O301 1.284 . S
C309 O310 1.273 . S
O310 C309 1.273 . S
O311 Zn302 1.977 . S
O311 C304 1.267 . S
H312 C318 0.930 . S
H313 C321 0.930 . S
H314 C322 0.930 . S
H315 C323 0.930 . S
H316 C326 0.930 . S
H317 C327 0.930 . S
C318 H312 0.930 . S
C318 C319 1.355 . S
C318 C320 1.415 . S
C319 C318 1.355 . S
C319 C321 1.419 . S
C320 C318 1.415 . S
C320 C325 1.425 . S
C320 C327 1.409 . S
C321 H313 0.930 . S
C321 C319 1.419 . S
C321 C322 1.362 . S
C322 H314 0.930 . S
C322 C321 1.362 . S
C322 C325 1.409 . S
C323 H315 0.930 . S
C323 C324 1.355 . S
C323 C325 1.415 . S
C324 C323 1.355 . S
C324 C326 1.419 . S
C325 C320 1.425 . S
C325 C322 1.409 . S
C325 C323 1.415 . S
C326 H316 0.930 . S
C326 C324 1.419 . S
C326 C327 1.362 . S
C327 H317 0.930 . S
C327 C320 1.409 . S
C327 C326 1.362 . S
H328 C334 0.930 . S
H329 C337 0.930 . S
H330 C338 0.930 . S
H331 C339 0.930 . S
H332 C342 0.930 . S
H333 C343 0.930 . S
C334 H328 0.930 . S
C334 C335 1.355 . S
C334 C336 1.415 . S
C335 C334 1.355 . S
C335 C337 1.419 . S
C336 C334 1.415 . S
C336 C341 1.425 . S
C336 C343 1.409 . S
C337 H329 0.930 . S
C337 C335 1.419 . S
C337 C338 1.362 . S
C338 H330 0.930 . S
C338 C337 1.362 . S
C338 C341 1.409 . S
C339 H331 0.930 . S
C339 C340 1.355 . S
C339 C341 1.415 . S
C340 C339 1.355 . S
C340 C342 1.419 . S
C341 C336 1.425 . S
C341 C338 1.409 . S
C341 C339 1.415 . S
C342 H332 0.930 . S
C342 C340 1.419 . S
C342 C343 1.362 . S
C343 H333 0.930 . S
C343 C336 1.409 . S
C343 C342 1.362 . S
H344 C350 0.930 . S
H345 C353 0.930 . S
H346 C354 0.930 . S
H347 C355 0.930 . S
H348 C358 0.930 . S
H349 C359 0.930 . S
C350 H344 0.930 . S
C350 C351 1.355 . S
C350 C352 1.415 . S
C351 C350 1.355 . S
C351 C353 1.419 . S
C352 C350 1.415 . S
C352 C357 1.425 . S
C352 C359 1.409 . S
C353 H345 0.930 . S
C353 C351 1.419 . S
C353 C354 1.362 . S
C354 H346 0.930 . S
C354 C353 1.362 . S
C354 C357 1.409 . S
C355 H347 0.930 . S
C355 C356 1.355 . S
C355 C357 1.415 . S
C356 C355 1.355 . S
C356 C358 1.419 . S
C357 C352 1.425 . S
C357 C354 1.409 . S
C357 C355 1.415 . S
C358 H348 0.930 . S
C358 C356 1.419 . S
C358 C359 1.362 . S
C359 H349 0.930 . S
C359 C352 1.409 . S
C359 C358 1.362 . S
H360 C366 0.930 . S
H361 C369 0.930 . S
H362 C370 0.930 . S
H363 C371 0.930 . S
H364 C374 0.930 . S
H365 C375 0.930 . S
C366 H360 0.930 . S
C366 C367 1.355 . S
C366 C368 1.415 . S
C367 C366 1.355 . S
C367 C369 1.419 . S
C368 C366 1.415 . S
C368 C373 1.425 . S
C368 C375 1.409 . S
C369 H361 0.930 . S
C369 C367 1.419 . S
C369 C370 1.362 . S
C370 H362 0.930 . S
C370 C369 1.362 . S
C370 C373 1.409 . S
C371 H363 0.930 . S
C371 C372 1.355 . S
C371 C373 1.415 . S
C372 C371 1.355 . S
C372 C374 1.419 . S
C373 C368 1.425 . S
C373 C370 1.409 . S
C373 C371 1.415 . S
C374 H364 0.930 . S
C374 C372 1.419 . S
C374 C375 1.362 . S
C375 H365 0.930 . S
C375 C368 1.409 . S
C375 C374 1.362 . S
H376 C382 0.930 . S
H377 C385 0.930 . S
H378 C386 0.930 . S
H379 C387 0.930 . S
H380 C390 0.930 . S
H381 C391 0.930 . S
C382 H376 0.930 . S
C382 C383 1.355 . S
C382 C384 1.415 . S
C383 C382 1.355 . S
C383 C385 1.419 . S
C384 C382 1.415 . S
C384 C389 1.425 . S
C384 C391 1.409 . S
C385 H377 0.930 . S
C385 C383 1.419 . S
C385 C386 1.362 . S
C386 H378 0.930 . S
C386 C385 1.362 . S
C386 C389 1.409 . S
C387 H379 0.930 . S
C387 C388 1.355 . S
C387 C389 1.415 . S
C388 C387 1.355 . S
C388 C390 1.419 . S
C389 C384 1.425 . S
C389 C386 1.409 . S
C389 C387 1.415 . S
C390 H380 0.930 . S
C390 C388 1.419 . S
C390 C391 1.362 . S
C391 H381 0.930 . S
C391 C384 1.409 . S
C391 C390 1.362 . S
H392 C398 0.930 . S
H393 C401 0.930 . S
H394 C402 0.930 . S
H395 C403 0.930 . S
H396 C406 0.930 . S
H397 C407 0.930 . S
C398 H392 0.930 . S
C398 C399 1.355 . S
C398 C400 1.415 . S
C399 C398 1.355 . S
C399 C401 1.419 . S
C400 C398 1.415 . S
C400 C405 1.425 . S
C400 C407 1.409 . S
C401 H393 0.930 . S
C401 C399 1.419 . S
C401 C402 1.362 . S
C402 H394 0.930 . S
C402 C401 1.362 . S
C402 C405 1.409 . S
C403 H395 0.930 . S
C403 C404 1.355 . S
C403 C405 1.415 . S
C404 C403 1.355 . S
C404 C406 1.419 . S
C405 C400 1.425 . S
C405 C402 1.409 . S
C405 C403 1.415 . S
C406 H396 0.930 . S
C406 C404 1.419 . S
C406 C407 1.362 . S
C407 H397 0.930 . S
C407 C400 1.409 . S
C407 C406 1.362 . S
H408 C414 0.930 . S
H409 C417 0.930 . S
H410 C418 0.930 . S
H411 C419 0.930 . S
H412 C422 0.930 . S
H413 C423 0.930 . S
C414 H408 0.930 . S
C414 C415 1.355 . S
C414 C416 1.415 . S
C415 C414 1.355 . S
C415 C417 1.419 . S
C416 C414 1.415 . S
C416 C421 1.425 . S
C416 C423 1.409 . S
C417 H409 0.930 . S
C417 C415 1.419 . S
C417 C418 1.362 . S
C418 H410 0.930 . S
C418 C417 1.362 . S
C418 C421 1.409 . S
C419 H411 0.930 . S
C419 C420 1.355 . S
C419 C421 1.415 . S
C420 C419 1.355 . S
C420 C422 1.419 . S
C421 C416 1.425 . S
C421 C418 1.409 . S
C421 C419 1.415 . S
C422 H412 0.930 . S
C422 C420 1.419 . S
C422 C423 1.362 . S
C423 H413 0.930 . S
C423 C416 1.409 . S
C423 C422 1.362 . S
H424 C430 0.930 . S
H425 C433 0.930 . S
H426 C434 0.930 . S
H427 C435 0.930 . S
H428 C438 0.930 . S
H429 C439 0.930 . S
C430 H424 0.930 . S
C430 C431 1.355 . S
C430 C432 1.415 . S
C431 C430 1.355 . S
C431 C433 1.419 . S
C432 C430 1.415 . S
C432 C437 1.425 . S
C432 C439 1.409 . S
C433 H425 0.930 . S
C433 C431 1.419 . S
C433 C434 1.362 . S
C434 H426 0.930 . S
C434 C433 1.362 . S
C434 C437 1.409 . S
C435 H427 0.930 . S
C435 C436 1.355 . S
C435 C437 1.415 . S
C436 C435 1.355 . S
C436 C438 1.419 . S
C437 C432 1.425 . S
C437 C434 1.409 . S
C437 C435 1.415 . S
C438 H428 0.930 . S
C438 C436 1.419 . S
C438 C439 1.362 . S
C439 H429 0.930 . S
C439 C432 1.409 . S
C439 C438 1.362 . S
H440 C446 0.930 . S
H441 C449 0.930 . S
H442 C450 0.930 . S
H443 C451 0.930 . S
H444 C454 0.930 . S
H445 C455 0.930 . S
C446 H440 0.930 . S
C446 C447 1.355 . S
C446 C448 1.415 . S
C447 C446 1.355 . S
C447 C449 1.419 . S
C448 C446 1.415 . S
C448 C453 1.425 . S
C448 C455 1.409 . S
C449 H441 0.930 . S
C449 C447 1.419 . S
C449 C450 1.362 . S
C450 H442 0.930 . S
C450 C449 1.362 . S
C450 C453 1.409 . S
C451 H443 0.930 . S
C451 C452 1.355 . S
C451 C453 1.415 . S
C452 C451 1.355 . S
C452 C454 1.419 . S
C453 C448 1.425 . S
C453 C450 1.409 . S
C453 C451 1.415 . S
C454 H444 0.930 . S
C454 C452 1.419 . S
C454 C455 1.362 . S
C455 H445 0.930 . S
C455 C448 1.409 . S
C455 C454 1.362 . S
H456 C462 0.930 . S
H457 C465 0.930 . S
H458 C466 0.930 . S
H459 C467 0.930 . S
H460 C470 0.930 . S
H461 C471 0.930 . S
C462 H456 0.930 . S
C462 C463 1.355 . S
C462 C464 1.415 . S
C463 C462 1.355 . S
C463 C465 1.419 . S
C464 C462 1.415 . S
C464 C469 1.425 . S
C464 C471 1.409 . S
C465 H457 0.930 . S
C465 C463 1.419 . S
C465 C466 1.362 . S
C466 H458 0.930 . S
C466 C465 1.362 . S
C466 C469 1.409 . S
C467 H459 0.930 . S
C467 C468 1.355 . S
C467 C469 1.415 . S
C468 C467 1.355 . S
C468 C470 1.419 . S
C469 C464 1.425 . S
C469 C466 1.409 . S
C469 C467 1.415 . S
C470 H460 0.930 . S
C470 C468 1.419 . S
C470 C471 1.362 . S
C471 H461 0.930 . S
C471 C464 1.409 . S
C471 C470 1.362 . S
H472 C478 0.930 . S
H473 C481 0.930 . S
H474 C482 0.930 . S
H475 C483 0.930 . S
H476 C486 0.930 . S
H477 C487 0.930 . S
C478 H472 0.930 . S
C478 C479 1.355 . S
C478 C480 1.415 . S
C479 C478 1.355 . S
C479 C481 1.419 . S
C480 C478 1.415 . S
C480 C485 1.425 . S
C480 C487 1.409 . S
C481 H473 0.930 . S
C481 C479 1.419 . S
C481 C482 1.362 . S
C482 H474 0.930 . S
C482 C481 1.362 . S
C482 C485 1.409 . S
C483 H475 0.930 . S
C483 C484 1.355 . S
C483 C485 1.415 . S
C484 C483 1.355 . S
C484 C486 1.419 . S
C485 C480 1.425 . S
C485 C482 1.409 . S
C485 C483 1.415 . S
C486 H476 0.930 . S
C486 C484 1.419 . S
C486 C487 1.362 . S
C487 H477 0.930 . S
C487 C480 1.409 . S
C487 C486 1.362 . S
H488 C494 0.930 . S
H489 C497 0.930 . S
H490 C498 0.930 . S
H491 C499 0.930 . S
H492 C502 0.930 . S
H493 C503 0.930 . S
C494 H488 0.930 . S
C494 C495 1.355 . S
C494 C496 1.415 . S
C495 C494 1.355 . S
C495 C497 1.419 . S
C496 C494 1.415 . S
C496 C501 1.425 . S
C496 C503 1.409 . S
C497 H489 0.930 . S
C497 C495 1.419 . S
C497 C498 1.362 . S
C498 H490 0.930 . S
C498 C497 1.362 . S
C498 C501 1.409 . S
C499 H491 0.930 . S
C499 C500 1.355 . S
C499 C501 1.415 . S
C500 C499 1.355 . S
C500 C502 1.419 . S
C501 C496 1.425 . S
C501 C498 1.409 . S
C501 C499 1.415 . S
C502 H492 0.930 . S
C502 C500 1.419 . S
C502 C503 1.362 . S
C503 H493 0.930 . S
C503 C496 1.409 . S
C503 C502 1.362 . S
H504 C510 0.930 . S
H505 C513 0.930 . S
H506 C514 0.930 . S
H507 C515 0.930 . S
H508 C518 0.930 . S
H509 C519 0.930 . S
C510 H504 0.930 . S
C510 C511 1.355 . S
C510 C512 1.415 . S
C511 C510 1.355 . S
C511 C513 1.419 . S
C512 C510 1.415 . S
C512 C517 1.425 . S
C512 C519 1.409 . S
C513 H505 0.930 . S
C513 C511 1.419 . S
C513 C514 1.362 . S
C514 H506 0.930 . S
C514 C513 1.362 . S
C514 C517 1.409 . S
C515 H507 0.930 . S
C515 C516 1.355 . S
C515 C517 1.415 . S
C516 C515 1.355 . S
C516 C518 1.419 . S
C517 C512 1.425 . S
C517 C514 1.409 . S
C517 C515 1.415 . S
C518 H508 0.930 . S
C518 C516 1.419 . S
C518 C519 1.362 . S
C519 H509 0.930 . S
C519 C512 1.409 . S
C519 C518 1.362 . S
H520 C526 0.930 . S
H521 C529 0.930 . S
H522 C530 0.930 . S
H523 C531 0.930 . S
H524 C534 0.930 . S
H525 C535 0.930 . S
C526 H520 0.930 . S
C526 C527 1.355 . S
C526 C528 1.415 . S
C527 C526 1.355 . S
C527 C529 1.419 . S
C528 C526 1.415 . S
C528 C533 1.425 . S
C528 C535 1.409 . S
C529 H521 0.930 . S
C529 C527 1.419 . S
C529 C530 1.362 . S
C530 H522 0.930 . S
C530 C529 1.362 . S
C530 C533 1.409 . S
C531 H523 0.930 . S
C531 C532 1.355 . S
C531 C533 1.415 . S
C532 C531 1.355 . S
C532 C534 1.419 . S
C533 C528 1.425 . S
C533 C530 1.409 . S
C533 C531 1.415 . S
C534 H524 0.930 . S
C534 C532 1.419 . S
C534 C535 1.362 . S
C535 H525 0.930 . S
C535 C528 1.409 . S
C535 C534 1.362 . S
H536 C542 0.930 . S
H537 C545 0.930 . S
H538 C546 0.930 . S
H539 C547 0.930 . S
H540 C550 0.930 . S
H541 C551 0.930 . S
C542 H536 0.930 . S
C542 C543 1.355 . S
C542 C544 1.415 . S
C543 C542 1.355 . S
C543 C545 1.419 . S
C544 C542 1.415 . S
C544 C549 1.425 . S
C544 C551 1.409 . S
C545 H537 0.930 . S
C545 C543 1.419 . S
C545 C546 1.362 . S
C546 H538 0.930 . S
C546 C545 1.362 . S
C546 C549 1.409 . S
C547 H539 0.930 . S
C547 C548 1.355 . S
C547 C549 1.415 . S
C548 C547 1.355 . S
C548 C550 1.419 . S
C549 C544 1.425 . S
C549 C546 1.409 . S
C549 C547 1.415 . S
C550 H540 0.930 . S
C550 C548 1.419 . S
C550 C551 1.362 . S
C551 H541 0.930 . S
C551 C544 1.409 . S
C551 C550 1.362 . S
H552 C558 0.930 . S
H553 C561 0.930 . S
H554 C562 0.930 . S
H555 C563 0.930 . S
H556 C566 0.930 . S
H557 C567 0.930 . S
C558 H552 0.930 . S
C558 C559 1.355 . S
C558 C560 1.415 . S
C559 C558 1.355 . S
C559 C561 1.419 . S
C560 C558 1.415 . S
C560 C565 1.425 . S
C560 C567 1.409 . S
C561 H553 0.930 . S
C561 C559 1.419 . S
C561 C562 1.362 . S
C562 H554 0.930 . S
C562 C561 1.362 . S
C562 C565 1.409 . S
C563 H555 0.930 . S
C563 C564 1.355 . S
C563 C565 1.415 . S
C564 C563 1.355 . S
C564 C566 1.419 . S
C565 C560 1.425 . S
C565 C562 1.409 . S
C565 C563 1.415 . S
C566 H556 0.930 . S
C566 C564 1.419 . S
C566 C567 1.362 . S
C567 H557 0.930 . S
C567 C560 1.409 . S
C567 C566 1.362 . S
H568 C574 0.930 . S
H569 C577 0.930 . S
H570 C578 0.930 . S
H571 C579 0.930 . S
H572 C582 0.930 . S
H573 C583 0.930 . S
C574 H568 0.930 . S
C574 C575 1.355 . S
C574 C576 1.415 . S
C575 C574 1.355 . S
C575 C577 1.419 . S
C576 C574 1.415 . S
C576 C581 1.425 . S
C576 C583 1.409 . S
C577 H569 0.930 . S
C577 C575 1.419 . S
C577 C578 1.362 . S
C578 H570 0.930 . S
C578 C577 1.362 . S
C578 C581 1.409 . S
C579 H571 0.930 . S
C579 C580 1.355 . S
C579 C581 1.415 . S
C580 C579 1.355 . S
C580 C582 1.419 . S
C581 C576 1.425 . S
C581 C578 1.409 . S
C581 C579 1.415 . S
C582 H572 0.930 . S
C582 C580 1.419 . S
C582 C583 1.362 . S
C583 H573 0.930 . S
C583 C576 1.409 . S
C583 C582 1.362 . S
H584 C590 0.930 . S
H585 C593 0.930 . S
H586 C594 0.930 . S
H587 C595 0.930 . S
H588 C598 0.930 . S
H589 C599 0.930 . S
C590 H584 0.930 . S
C590 C591 1.355 . S
C590 C592 1.415 . S
C591 C590 1.355 . S
C591 C593 1.419 . S
C592 C590 1.415 . S
C592 C597 1.425 . S
C592 C599 1.409 . S
C593 H585 0.930 . S
C593 C591 1.419 . S
C593 C594 1.362 . S
C594 H586 0.930 . S
C594 C593 1.362 . S
C594 C597 1.409 . S
C595 H587 0.930 . S
C595 C596 1.355 . S
C595 C597 1.415 . S
C596 C595 1.355 . S
C596 C598 1.419 . S
C597 C592 1.425 . S
C597 C594 1.409 . S
C597 C595 1.415 . S
C598 H588 0.930 . S
C598 C596 1.419 . S
C598 C599 1.362 . S
C599 H589 0.930 . S
C599 C592 1.409 . S
C599 C598 1.362 . S
H600 C606 0.930 . S
H601 C609 0.930 . S
H602 C610 0.930 . S
H603 C611 0.930 . S
H604 C614 0.930 . S
H605 C615 0.930 . S
C606 H600 0.930 . S
C606 C607 1.355 . S
C606 C608 1.415 . S
C607 C606 1.355 . S
C607 C609 1.419 . S
C608 C606 1.415 . S
C608 C613 1.425 . S
C608 C615 1.409 . S
C609 H601 0.930 . S
C609 C607 1.419 . S
C609 C610 1.362 . S
C610 H602 0.930 . S
C610 C609 1.362 . S
C610 C613 1.409 . S
C611 H603 0.930 . S
C611 C612 1.355 . S
C611 C613 1.415 . S
C612 C611 1.355 . S
C612 C614 1.419 . S
C613 C608 1.425 . S
C613 C610 1.409 . S
C613 C611 1.415 . S
C614 H604 0.930 . S
C614 C612 1.419 . S
C614 C615 1.362 . S
C615 H605 0.930 . S
C615 C608 1.409 . S
C615 C614 1.362 . S
H616 C622 0.930 . S
H617 C625 0.930 . S
H618 C626 0.930 . S
H619 C627 0.930 . S
H620 C630 0.930 . S
H621 C631 0.930 . S
C622 H616 0.930 . S
C622 C623 1.355 . S
C622 C624 1.415 . S
C623 C622 1.355 . S
C623 C625 1.419 . S
C624 C622 1.415 . S
C624 C629 1.425 . S
C624 C631 1.409 . S
C625 H617 0.930 . S
C625 C623 1.419 . S
C625 C626 1.362 . S
C626 H618 0.930 . S
C626 C625 1.362 . S
C626 C629 1.409 . S
C627 H619 0.930 . S
C627 C628 1.355 . S
C627 C629 1.415 . S
C628 C627 1.355 . S
C628 C630 1.419 . S
C629 C624 1.425 . S
C629 C626 1.409 . S
C629 C627 1.415 . S
C630 H620 0.930 . S
C630 C628 1.419 . S
C630 C631 1.362 . S
C631 H621 0.930 . S
C631 C624 1.409 . S
C631 C630 1.362 . S
H632 C638 0.930 . S
H633 C641 0.930 . S
H634 C642 0.930 . S
H635 C643 0.930 . S
H636 C646 0.930 . S
H637 C647 0.930 . S
C638 H632 0.930 . S
C638 C639 1.355 . S
C638 C640 1.415 . S
C639 C638 1.355 . S
C639 C641 1.419 . S
C640 C638 1.415 . S
C640 C645 1.425 . S
C640 C647 1.409 . S
C641 H633 0.930 . S
C641 C639 1.419 . S
C641 C642 1.362 . S
C642 H634 0.930 . S
C642 C641 1.362 . S
C642 C645 1.409 . S
C643 H635 0.930 . S
C643 C644 1.355 . S
C643 C645 1.415 . S
C644 C643 1.355 . S
C644 C646 1.419 . S
C645 C640 1.425 . S
C645 C642 1.409 . S
C645 C643 1.415 . S
C646 H636 0.930 . S
C646 C644 1.419 . S
C646 C647 1.362 . S
C647 H637 0.930 . S
C647 C640 1.409 . S
C647 C646 1.362 . S
H648 C654 0.930 . S
H649 C657 0.930 . S
H650 C658 0.930 . S
H651 C659 0.930 . S
H652 C662 0.930 . S
H653 C663 0.930 . S
C654 H648 0.930 . S
C654 C655 1.355 . S
C654 C656 1.415 . S
C655 C654 1.355 . S
C655 C657 1.419 . S
C656 C654 1.415 . S
C656 C661 1.425 . S
C656 C663 1.409 . S
C657 H649 0.930 . S
C657 C655 1.419 . S
C657 C658 1.362 . S
C658 H650 0.930 . S
C658 C657 1.362 . S
C658 C661 1.409 . S
C659 H651 0.930 . S
C659 C660 1.355 . S
C659 C661 1.415 . S
C660 C659 1.355 . S
C660 C662 1.419 . S
C661 C656 1.425 . S
C661 C658 1.409 . S
C661 C659 1.415 . S
C662 H652 0.930 . S
C662 C660 1.419 . S
C662 C663 1.362 . S
C663 H653 0.930 . S
C663 C656 1.409 . S
C663 C662 1.362 . S
H664 C670 0.930 . S
H665 C673 0.930 . S
H666 C674 0.930 . S
H667 C675 0.930 . S
H668 C678 0.930 . S
H669 C679 0.930 . S
C670 H664 0.930 . S
C670 C671 1.355 . S
C670 C672 1.415 . S
C671 C670 1.355 . S
C671 C673 1.419 . S
C672 C670 1.415 . S
C672 C677 1.425 . S
C672 C679 1.409 . S
C673 H665 0.930 . S
C673 C671 1.419 . S
C673 C674 1.362 . S
C674 H666 0.930 . S
C674 C673 1.362 . S
C674 C677 1.409 . S
C675 H667 0.930 . S
C675 C676 1.355 . S
C675 C677 1.415 . S
C676 C675 1.355 . S
C676 C678 1.419 . S
C677 C672 1.425 . S
C677 C674 1.409 . S
C677 C675 1.415 . S
C678 H668 0.930 . S
C678 C676 1.419 . S
C678 C679 1.362 . S
C679 H669 0.930 . S
C679 C672 1.409 . S
C679 C678 1.362 . S
H680 C686 0.930 . S
H681 C689 0.930 . S
H682 C690 0.930 . S
H683 C691 0.930 . S
H684 C694 0.930 . S
H685 C695 0.930 . S
C686 H680 0.930 . S
C686 C687 1.355 . S
C686 C688 1.415 . S
C687 C686 1.355 . S
C687 C689 1.419 . S
C688 C686 1.415 . S
C688 C693 1.425 . S
C688 C695 1.409 . S
C689 H681 0.930 . S
C689 C687 1.419 . S
C689 C690 1.362 . S
C690 H682 0.930 . S
C690 C689 1.362 . S
C690 C693 1.409 . S
C691 H683 0.930 . S
C691 C692 1.355 . S
C691 C693 1.415 . S
C692 C691 1.355 . S
C692 C694 1.419 . S
C693 C688 1.425 . S
C693 C690 1.409 . S
C693 C691 1.415 . S
C694 H684 0.930 . S
C694 C692 1.419 . S
C694 C695 1.362 . S
C695 H685 0.930 . S
C695 C688 1.409 . S
C695 C694 1.362 . S
H696 C702 0.930 . S
H697 C705 0.930 . S
H698 C706 0.930 . S
H699 C707 0.930 . S
H700 C710 0.930 . S
H701 C711 0.930 . S
C702 H696 0.930 . S
C702 C703 1.355 . S
C702 C704 1.415 . S
C703 C702 1.355 . S
C703 C705 1.419 . S
C704 C702 1.415 . S
C704 C709 1.425 1_455 S
C704 C711 1.409 1_455 S
C705 H697 0.930 . S
C705 C703 1.419 . S
C705 C706 1.362 . S
C706 H698 0.930 . S
C706 C705 1.362 . S
C706 C709 1.409 1_455 S
C707 H699 0.930 . S
C707 C708 1.355 . S
C707 C709 1.415 . S
C708 C707 1.355 . S
C708 C710 1.419 . S
C709 C704 1.425 1_655 S
C709 C706 1.409 1_655 S
C709 C707 1.415 . S
C710 H700 0.930 . S
C710 C708 1.419 . S
C710 C711 1.362 . S
C711 H701 0.930 . S
C711 C704 1.409 1_655 S
C711 C710 1.362 . S
H712 C718 0.930 . S
H713 C721 0.930 . S
H714 C722 0.930 . S
H715 C723 0.930 . S
H716 C726 0.930 . S
H717 C727 0.930 . S
C718 H712 0.930 . S
C718 C719 1.355 . S
C718 C720 1.415 . S
C719 C718 1.355 . S
C719 C721 1.419 . S
C720 C718 1.415 . S
C720 C725 1.425 1_545 S
C720 C727 1.409 1_545 S
C721 H713 0.930 . S
C721 C719 1.419 . S
C721 C722 1.362 . S
C722 H714 0.930 . S
C722 C721 1.362 . S
C722 C725 1.409 1_545 S
C723 H715 0.930 . S
C723 C724 1.355 . S
C723 C725 1.415 . S
C724 C723 1.355 . S
C724 C726 1.419 . S
C725 C720 1.425 1_565 S
C725 C722 1.409 1_565 S
C725 C723 1.415 . S
C726 H716 0.930 . S
C726 C724 1.419 . S
C726 C727 1.362 . S
C727 H717 0.930 . S
C727 C720 1.409 1_565 S
C727 C726 1.362 . S
H728 C734 0.930 . S
H729 C737 0.930 . S
H730 C738 0.930 . S
H731 C739 0.930 . S
H732 C742 0.930 . S
H733 C743 0.930 . S
C734 H728 0.930 . S
C734 C735 1.355 . S
C734 C736 1.415 . S
C735 C734 1.355 . S
C735 C737 1.419 . S
C736 C734 1.415 . S
C736 C741 1.425 1_655 S
C736 C743 1.409 1_655 S
C737 H729 0.930 . S
C737 C735 1.419 . S
C737 C738 1.362 . S
C738 H730 0.930 . S
C738 C737 1.362 . S
C738 C741 1.409 1_655 S
C739 H731 0.930 . S
C739 C740 1.355 . S
C739 C741 1.415 . S
C740 C739 1.355 . S
C740 C742 1.419 . S
C741 C736 1.425 1_455 S
C741 C738 1.409 1_455 S
C741 C739 1.415 . S
C742 H732 0.930 . S
C742 C740 1.419 . S
C742 C743 1.362 . S
C743 H733 0.930 . S
C743 C736 1.409 1_455 S
C743 C742 1.362 . S
H744 C750 0.930 . S
H745 C753 0.930 . S
H746 C754 0.930 . S
H747 C755 0.930 . S
H748 C758 0.930 . S
H749 C759 0.930 . S
C750 H744 0.930 . S
C750 C751 1.355 . S
C750 C752 1.415 . S
C751 C750 1.355 . S
C751 C753 1.419 . S
C752 C750 1.415 . S
C752 C757 1.425 1_545 S
C752 C759 1.409 1_545 S
C753 H745 0.930 . S
C753 C751 1.419 . S
C753 C754 1.362 . S
C754 H746 0.930 . S
C754 C753 1.362 . S
C754 C757 1.409 1_545 S
C755 H747 0.930 . S
C755 C756 1.355 . S
C755 C757 1.415 . S
C756 C755 1.355 . S
C756 C758 1.419 . S
C757 C752 1.425 1_565 S
C757 C754 1.409 1_565 S
C757 C755 1.415 . S
C758 H748 0.930 . S
C758 C756 1.419 . S
C758 C759 1.362 . S
C759 H749 0.930 . S
C759 C752 1.409 1_565 S
C759 C758 1.362 . S
H760 C766 0.930 . S
H761 C769 0.930 . S
H762 C770 0.930 . S
H763 C771 0.930 . S
H764 C774 0.930 . S
H765 C775 0.930 . S
C766 H760 0.930 . S
C766 C767 1.355 . S
C766 C768 1.415 . S
C767 C766 1.355 . S
C767 C769 1.419 . S
C768 C766 1.415 . S
C768 C773 1.425 1_565 S
C768 C775 1.409 1_565 S
C769 H761 0.930 . S
C769 C767 1.419 . S
C769 C770 1.362 . S
C770 H762 0.930 . S
C770 C769 1.362 . S
C770 C773 1.409 1_565 S
C771 H763 0.930 . S
C771 C772 1.355 . S
C771 C773 1.415 . S
C772 C771 1.355 . S
C772 C774 1.419 . S
C773 C768 1.425 1_545 S
C773 C770 1.409 1_545 S
C773 C771 1.415 . S
C774 H764 0.930 . S
C774 C772 1.419 . S
C774 C775 1.362 . S
C775 H765 0.930 . S
C775 C768 1.409 1_545 S
C775 C774 1.362 . S
H776 C782 0.930 . S
H777 C785 0.930 . S
H778 C786 0.930 . S
H779 C787 0.930 . S
H780 C790 0.930 . S
H781 C791 0.930 . S
C782 H776 0.930 . S
C782 C783 1.355 . S
C782 C784 1.415 . S
C783 C782 1.355 . S
C783 C785 1.419 . S
C784 C782 1.415 . S
C784 C789 1.425 1_655 S
C784 C791 1.409 1_655 S
C785 H777 0.930 . S
C785 C783 1.419 . S
C785 C786 1.362 . S
C786 H778 0.930 . S
C786 C785 1.362 . S
C786 C789 1.409 1_655 S
C787 H779 0.930 . S
C787 C788 1.355 . S
C787 C789 1.415 . S
C788 C787 1.355 . S
C788 C790 1.419 . S
C789 C784 1.425 1_455 S
C789 C786 1.409 1_455 S
C789 C787 1.415 . S
C790 H780 0.930 . S
C790 C788 1.419 . S
C790 C791 1.362 . S
C791 H781 0.930 . S
C791 C784 1.409 1_455 S
C791 C790 1.362 . S
H792 C798 0.930 . S
H793 C801 0.930 . S
H794 C802 0.930 . S
H795 C803 0.930 . S
H796 C806 0.930 . S
H797 C807 0.930 . S
C798 H792 0.930 . S
C798 C799 1.355 . S
C798 C800 1.415 . S
C799 C798 1.355 . S
C799 C801 1.419 . S
C800 C798 1.415 . S
C800 C805 1.425 1_565 S
C800 C807 1.409 1_565 S
C801 H793 0.930 . S
C801 C799 1.419 . S
C801 C802 1.362 . S
C802 H794 0.930 . S
C802 C801 1.362 . S
C802 C805 1.409 1_565 S
C803 H795 0.930 . S
C803 C804 1.355 . S
C803 C805 1.415 . S
C804 C803 1.355 . S
C804 C806 1.419 . S
C805 C800 1.425 1_545 S
C805 C802 1.409 1_545 S
C805 C803 1.415 . S
C806 H796 0.930 . S
C806 C804 1.419 . S
C806 C807 1.362 . S
C807 H797 0.930 . S
C807 C800 1.409 1_545 S
C807 C806 1.362 . S
H808 C814 0.930 . S
H809 C817 0.930 . S
H810 C818 0.930 . S
H811 C819 0.930 . S
H812 C822 0.930 . S
H813 C823 0.930 . S
C814 H808 0.930 . S
C814 C815 1.355 . S
C814 C816 1.415 . S
C815 C814 1.355 . S
C815 C817 1.419 . S
C816 C814 1.415 . S
C816 C821 1.425 1_655 S
C816 C823 1.409 1_655 S
C817 H809 0.930 . S
C817 C815 1.419 . S
C817 C818 1.362 . S
C818 H810 0.930 . S
C818 C817 1.362 . S
C818 C821 1.409 1_655 S
C819 H811 0.930 . S
C819 C820 1.355 . S
C819 C821 1.415 . S
C820 C819 1.355 . S
C820 C822 1.419 . S
C821 C816 1.425 1_455 S
C821 C818 1.409 1_455 S
C821 C819 1.415 . S
C822 H812 0.930 . S
C822 C820 1.419 . S
C822 C823 1.362 . S
C823 H813 0.930 . S
C823 C816 1.409 1_455 S
C823 C822 1.362 . S
H824 C830 0.930 . S
H825 C833 0.930 . S
H826 C834 0.930 . S
H827 C835 0.930 . S
H828 C838 0.930 . S
H829 C839 0.930 . S
C830 H824 0.930 . S
C830 C831 1.355 . S
C830 C832 1.415 . S
C831 C830 1.355 . S
C831 C833 1.419 . S
C832 C830 1.415 . S
C832 C837 1.425 1_556 S
C832 C839 1.409 1_556 S
C833 H825 0.930 . S
C833 C831 1.419 . S
C833 C834 1.362 . S
C834 H826 0.930 . S
C834 C833 1.362 . S
C834 C837 1.409 1_556 S
C835 H827 0.930 . S
C835 C836 1.355 . S
C835 C837 1.415 . S
C836 C835 1.355 . S
C836 C838 1.419 . S
C837 C832 1.425 1_554 S
C837 C834 1.409 1_554 S
C837 C835 1.415 . S
C838 H828 0.930 . S
C838 C836 1.419 . S
C838 C839 1.362 . S
C839 H829 0.930 . S
C839 C832 1.409 1_554 S
C839 C838 1.362 . S
H840 C846 0.930 . S
H841 C849 0.930 . S
H842 C850 0.930 . S
H843 C851 0.930 . S
H844 C854 0.930 . S
H845 C855 0.930 . S
C846 H840 0.930 . S
C846 C847 1.355 . S
C846 C848 1.415 . S
C847 C846 1.355 . S
C847 C849 1.419 . S
C848 C846 1.415 . S
C848 C853 1.425 1_556 S
C848 C855 1.409 1_556 S
C849 H841 0.930 . S
C849 C847 1.419 . S
C849 C850 1.362 . S
C850 H842 0.930 . S
C850 C849 1.362 . S
C850 C853 1.409 1_556 S
C851 H843 0.930 . S
C851 C852 1.355 . S
C851 C853 1.415 . S
C852 C851 1.355 . S
C852 C854 1.419 . S
C853 C848 1.425 1_554 S
C853 C850 1.409 1_554 S
C853 C851 1.415 . S
C854 H844 0.930 . S
C854 C852 1.419 . S
C854 C855 1.362 . S
C855 H845 0.930 . S
C855 C848 1.409 1_554 S
C855 C854 1.362 . S
H856 C862 0.930 . S
H857 C865 0.930 . S
H858 C866 0.930 . S
H859 C867 0.930 . S
H860 C870 0.930 . S
H861 C871 0.930 . S
C862 H856 0.930 . S
C862 C863 1.355 . S
C862 C864 1.415 . S
C863 C862 1.355 . S
C863 C865 1.419 . S
C864 C862 1.415 . S
C864 C869 1.425 1_556 S
C864 C871 1.409 1_556 S
C865 H857 0.930 . S
C865 C863 1.419 . S
C865 C866 1.362 . S
C866 H858 0.930 . S
C866 C865 1.362 . S
C866 C869 1.409 1_556 S
C867 H859 0.930 . S
C867 C868 1.355 . S
C867 C869 1.415 . S
C868 C867 1.355 . S
C868 C870 1.419 . S
C869 C864 1.425 1_554 S
C869 C866 1.409 1_554 S
C869 C867 1.415 . S
C870 H860 0.930 . S
C870 C868 1.419 . S
C870 C871 1.362 . S
C871 H861 0.930 . S
C871 C864 1.409 1_554 S
C871 C870 1.362 . S
H872 C878 0.930 . S
H873 C881 0.930 . S
H874 C882 0.930 . S
H875 C883 0.930 . S
H876 C886 0.930 . S
H877 C887 0.930 . S
C878 H872 0.930 . S
C878 C879 1.355 . S
C878 C880 1.415 . S
C879 C878 1.355 . S
C879 C881 1.419 . S
C880 C878 1.415 . S
C880 C885 1.425 1_556 S
C880 C887 1.409 1_556 S
C881 H873 0.930 . S
C881 C879 1.419 . S
C881 C882 1.362 . S
C882 H874 0.930 . S
C882 C881 1.362 . S
C882 C885 1.409 1_556 S
C883 H875 0.930 . S
C883 C884 1.355 . S
C883 C885 1.415 . S
C884 C883 1.355 . S
C884 C886 1.419 . S
C885 C880 1.425 1_554 S
C885 C882 1.409 1_554 S
C885 C883 1.415 . S
C886 H876 0.930 . S
C886 C884 1.419 . S
C886 C887 1.362 . S
C887 H877 0.930 . S
C887 C880 1.409 1_554 S
C887 C886 1.362 . S
H888 C894 0.930 . S
H889 C897 0.930 . S
H890 C898 0.930 . S
H891 C899 0.930 . S
H892 C902 0.930 . S
H893 C903 0.930 . S
C894 H888 0.930 . S
C894 C895 1.355 . S
C894 C896 1.415 . S
C895 C894 1.355 . S
C895 C897 1.419 . S
C896 C894 1.415 . S
C896 C901 1.425 . S
C896 C903 1.409 . S
C897 H889 0.930 . S
C897 C895 1.419 . S
C897 C898 1.362 . S
C898 H890 0.930 . S
C898 C897 1.362 . S
C898 C901 1.409 . S
C899 H891 0.930 . S
C899 C900 1.355 . S
C899 C901 1.415 . S
C900 C899 1.355 . S
C900 C902 1.419 . S
C901 C896 1.425 . S
C901 C898 1.409 . S
C901 C899 1.415 . S
C902 H892 0.930 . S
C902 C900 1.419 . S
C902 C903 1.362 . S
C903 H893 0.930 . S
C903 C896 1.409 . S
C903 C902 1.362 . S
H904 C910 0.930 . S
H905 C913 0.930 . S
H906 C914 0.930 . S
H907 C915 0.930 . S
H908 C918 0.930 . S
H909 C919 0.930 . S
C910 H904 0.930 . S
C910 C911 1.355 . S
C910 C912 1.415 . S
C911 C910 1.355 . S
C911 C913 1.419 . S
C912 C910 1.415 . S
C912 C917 1.425 . S
C912 C919 1.409 . S
C913 H905 0.930 . S
C913 C911 1.419 . S
C913 C914 1.362 . S
C914 H906 0.930 . S
C914 C913 1.362 . S
C914 C917 1.409 . S
C915 H907 0.930 . S
C915 C916 1.355 . S
C915 C917 1.415 . S
C916 C915 1.355 . S
C916 C918 1.419 . S
C917 C912 1.425 . S
C917 C914 1.409 . S
C917 C915 1.415 . S
C918 H908 0.930 . S
C918 C916 1.419 . S
C918 C919 1.362 . S
C919 H909 0.930 . S
C919 C912 1.409 . S
C919 C918 1.362 . S
H920 C926 0.930 . S
H921 C929 0.930 . S
H922 C930 0.930 . S
H923 C931 0.930 . S
H924 C934 0.930 . S
H925 C935 0.930 . S
C926 H920 0.930 . S
C926 C927 1.355 . S
C926 C928 1.415 . S
C927 C926 1.355 . S
C927 C929 1.419 . S
C928 C926 1.415 . S
C928 C933 1.425 . S
C928 C935 1.409 . S
C929 H921 0.930 . S
C929 C927 1.419 . S
C929 C930 1.362 . S
C930 H922 0.930 . S
C930 C929 1.362 . S
C930 C933 1.409 . S
C931 H923 0.930 . S
C931 C932 1.355 . S
C931 C933 1.415 . S
C932 C931 1.355 . S
C932 C934 1.419 . S
C933 C928 1.425 . S
C933 C930 1.409 . S
C933 C931 1.415 . S
C934 H924 0.930 . S
C934 C932 1.419 . S
C934 C935 1.362 . S
C935 H925 0.930 . S
C935 C928 1.409 . S
C935 C934 1.362 . S
H936 C942 0.930 . S
H937 C945 0.930 . S
H938 C946 0.930 . S
H939 C947 0.930 . S
H940 C950 0.930 . S
H941 C951 0.930 . S
C942 H936 0.930 . S
C942 C943 1.355 . S
C942 C944 1.415 . S
C943 C942 1.355 . S
C943 C945 1.419 . S
C944 C942 1.415 . S
C944 C949 1.425 . S
C944 C951 1.409 . S
C945 H937 0.930 . S
C945 C943 1.419 . S
C945 C946 1.362 . S
C946 H938 0.930 . S
C946 C945 1.362 . S
C946 C949 1.409 . S
C947 H939 0.930 . S
C947 C948 1.355 . S
C947 C949 1.415 . S
C948 C947 1.355 . S
C948 C950 1.419 . S
C949 C944 1.425 . S
C949 C946 1.409 . S
C949 C947 1.415 . S
C950 H940 0.930 . S
C950 C948 1.419 . S
C950 C951 1.362 . S
C951 H941 0.930 . S
C951 C944 1.409 . S
C951 C950 1.362 . S
H952 C958 0.930 . S
H953 C961 0.930 . S
H954 C962 0.930 . S
H955 C963 0.930 . S
H956 C966 0.930 . S
H957 C967 0.930 . S
C958 H952 0.930 . S
C958 C959 1.355 . S
C958 C960 1.415 . S
C959 C958 1.355 . S
C959 C961 1.419 . S
C960 C958 1.415 . S
C960 C965 1.425 . S
C960 C967 1.409 . S
C961 H953 0.930 . S
C961 C959 1.419 . S
C961 C962 1.362 . S
C962 H954 0.930 . S
C962 C961 1.362 . S
C962 C965 1.409 . S
C963 H955 0.930 . S
C963 C964 1.355 . S
C963 C965 1.415 . S
C964 C963 1.355 . S
C964 C966 1.419 . S
C965 C960 1.425 . S
C965 C962 1.409 . S
C965 C963 1.415 . S
C966 H956 0.930 . S
C966 C964 1.419 . S
C966 C967 1.362 . S
C967 H957 0.930 . S
C967 C960 1.409 . S
C967 C966 1.362 . S
H968 C974 0.930 . S
H969 C977 0.930 . S
H970 C978 0.930 . S
H971 C979 0.930 . S
H972 C982 0.930 . S
H973 C983 0.930 . S
C974 H968 0.930 . S
C974 C975 1.355 . S
C974 C976 1.415 . S
C975 C974 1.355 . S
C975 C977 1.419 . S
C976 C974 1.415 . S
C976 C981 1.425 . S
C976 C983 1.409 . S
C977 H969 0.930 . S
C977 C975 1.419 . S
C977 C978 1.362 . S
C978 H970 0.930 . S
C978 C977 1.362 . S
C978 C981 1.409 . S
C979 H971 0.930 . S
C979 C980 1.355 . S
C979 C981 1.415 . S
C980 C979 1.355 . S
C980 C982 1.419 . S
C981 C976 1.425 . S
C981 C978 1.409 . S
C981 C979 1.415 . S
C982 H972 0.930 . S
C982 C980 1.419 . S
C982 C983 1.362 . S
C983 H973 0.930 . S
C983 C976 1.409 . S
C983 C982 1.362 . S
H984 C990 0.930 . S
H985 C993 0.930 . S
H986 C994 0.930 . S
H987 C995 0.930 . S
H988 C998 0.930 . S
H989 C999 0.930 . S
C990 H984 0.930 . S
C990 C991 1.355 . S
C990 C992 1.415 . S
C991 C990 1.355 . S
C991 C993 1.419 . S
C992 C990 1.415 . S
C992 C997 1.425 . S
C992 C999 1.409 . S
C993 H985 0.930 . S
C993 C991 1.419 . S
C993 C994 1.362 . S
C994 H986 0.930 . S
C994 C993 1.362 . S
C994 C997 1.409 . S
C995 H987 0.930 . S
C995 C996 1.355 . S
C995 C997 1.415 . S
C996 C995 1.355 . S
C996 C998 1.419 . S
C997 C992 1.425 . S
C997 C994 1.409 . S
C997 C995 1.415 . S
C998 H988 0.930 . S
C998 C996 1.419 . S
C998 C999 1.362 . S
C999 H989 0.930 . S
C999 C992 1.409 . S
C999 C998 1.362 . S
H1000 C1006 0.930 . S
H1001 C1009 0.930 . S
H1002 C1010 0.930 . S
H1003 C1011 0.930 . S
H1004 C1014 0.930 . S
H1005 C1015 0.930 . S
C1006 H1000 0.930 . S
C1006 C1007 1.355 . S
C1006 C1008 1.415 . S
C1007 C1006 1.355 . S
C1007 C1009 1.419 . S
C1008 C1006 1.415 . S
C1008 C1013 1.425 . S
C1008 C1015 1.409 . S
C1009 H1001 0.930 . S
C1009 C1007 1.419 . S
C1009 C1010 1.362 . S
C1010 H1002 0.930 . S
C1010 C1009 1.362 . S
C1010 C1013 1.409 . S
C1011 H1003 0.930 . S
C1011 C1012 1.355 . S
C1011 C1013 1.415 . S
C1012 C1011 1.355 . S
C1012 C1014 1.419 . S
C1013 C1008 1.425 . S
C1013 C1010 1.409 . S
C1013 C1011 1.415 . S
C1014 H1004 0.930 . S
C1014 C1012 1.419 . S
C1014 C1015 1.362 . S
C1015 H1005 0.930 . S
C1015 C1008 1.409 . S
C1015 C1014 1.362 . S
H1016 C1022 0.930 . S
H1017 C1025 0.930 . S
H1018 C1026 0.930 . S
H1019 C1027 0.930 . S
H1020 C1030 0.930 . S
H1021 C1031 0.930 . S
C1022 H1016 0.930 . S
C1022 C1023 1.355 . S
C1022 C1024 1.415 . S
C1023 C1022 1.355 . S
C1023 C1025 1.419 . S
C1024 C1022 1.415 . S
C1024 C1029 1.425 . S
C1024 C1031 1.409 . S
C1025 H1017 0.930 . S
C1025 C1023 1.419 . S
C1025 C1026 1.362 . S
C1026 H1018 0.930 . S
C1026 C1025 1.362 . S
C1026 C1029 1.409 . S
C1027 H1019 0.930 . S
C1027 C1028 1.355 . S
C1027 C1029 1.415 . S
C1028 C1027 1.355 . S
C1028 C1030 1.419 . S
C1029 C1024 1.425 . S
C1029 C1026 1.409 . S
C1029 C1027 1.415 . S
C1030 H1020 0.930 . S
C1030 C1028 1.419 . S
C1030 C1031 1.362 . S
C1031 H1021 0.930 . S
C1031 C1024 1.409 . S
C1031 C1030 1.362 . S
H1032 C1038 0.930 . S
H1033 C1041 0.930 . S
H1034 C1042 0.930 . S
H1035 C1043 0.930 . S
H1036 C1046 0.930 . S
H1037 C1047 0.930 . S
C1038 H1032 0.930 . S
C1038 C1039 1.355 . S
C1038 C1040 1.415 . S
C1039 C1038 1.355 . S
C1039 C1041 1.419 . S
C1040 C1038 1.415 . S
C1040 C1045 1.425 . S
C1040 C1047 1.409 . S
C1041 H1033 0.930 . S
C1041 C1039 1.419 . S
C1041 C1042 1.362 . S
C1042 H1034 0.930 . S
C1042 C1041 1.362 . S
C1042 C1045 1.409 . S
C1043 H1035 0.930 . S
C1043 C1044 1.355 . S
C1043 C1045 1.415 . S
C1044 C1043 1.355 . S
C1044 C1046 1.419 . S
C1045 C1040 1.425 . S
C1045 C1042 1.409 . S
C1045 C1043 1.415 . S
C1046 H1036 0.930 . S
C1046 C1044 1.419 . S
C1046 C1047 1.362 . S
C1047 H1037 0.930 . S
C1047 C1040 1.409 . S
C1047 C1046 1.362 . S
H1048 C1054 0.930 . S
H1049 C1057 0.930 . S
H1050 C1058 0.930 . S
H1051 C1059 0.930 . S
H1052 C1062 0.930 . S
H1053 C1063 0.930 . S
C1054 H1048 0.930 . S
C1054 C1055 1.355 . S
C1054 C1056 1.415 . S
C1055 C1054 1.355 . S
C1055 C1057 1.419 . S
C1056 C1054 1.415 . S
C1056 C1061 1.425 . S
C1056 C1063 1.409 . S
C1057 H1049 0.930 . S
C1057 C1055 1.419 . S
C1057 C1058 1.362 . S
C1058 H1050 0.930 . S
C1058 C1057 1.362 . S
C1058 C1061 1.409 . S
C1059 H1051 0.930 . S
C1059 C1060 1.355 . S
C1059 C1061 1.415 . S
C1060 C1059 1.355 . S
C1060 C1062 1.419 . S
C1061 C1056 1.425 . S
C1061 C1058 1.409 . S
C1061 C1059 1.415 . S
C1062 H1052 0.930 . S
C1062 C1060 1.419 . S
C1062 C1063 1.362 . S
C1063 H1053 0.930 . S
C1063 C1056 1.409 . S
C1063 C1062 1.362 . S
H1064 C1070 0.930 . S
H1065 C1073 0.930 . S
H1066 C1074 0.930 . S
H1067 C1075 0.930 . S
H1068 C1078 0.930 . S
H1069 C1079 0.930 . S
C1070 H1064 0.930 . S
C1070 C1071 1.355 . S
C1070 C1072 1.415 . S
C1071 C1070 1.355 . S
C1071 C1073 1.419 . S
C1072 C1070 1.415 . S
C1072 C1077 1.425 . S
C1072 C1079 1.409 . S
C1073 H1065 0.930 . S
C1073 C1071 1.419 . S
C1073 C1074 1.362 . S
C1074 H1066 0.930 . S
C1074 C1073 1.362 . S
C1074 C1077 1.409 . S
C1075 H1067 0.930 . S
C1075 C1076 1.355 . S
C1075 C1077 1.415 . S
C1076 C1075 1.355 . S
C1076 C1078 1.419 . S
C1077 C1072 1.425 . S
C1077 C1074 1.409 . S
C1077 C1075 1.415 . S
C1078 H1068 0.930 . S
C1078 C1076 1.419 . S
C1078 C1079 1.362 . S
C1079 H1069 0.930 . S
C1079 C1072 1.409 . S
C1079 C1078 1.362 . S
C319 C153 1.386 . S
C324 C8 1.417 . S
C335 C21 1.368 . S
C340 C114 1.400 . S
C351 C34 1.363 . S
C356 C127 1.404 . S
C367 C47 1.363 . S
C372 C140 1.404 . S
C383 C179 1.385 . S
C388 C60 1.404 . S
C399 C73 1.389 . S
C404 C192 1.448 . S
C415 C205 1.447 . S
C420 C86 1.395 . S
C431 C166 1.431 . S
C436 C99 1.350 . S
C447 C75 1.408 . S
C452 C112 1.360 . S
C463 C88 1.408 . S
C468 C125 1.433 . S
C479 C138 1.391 . S
C484 C101 1.388 . S
C495 C62 1.449 . S
C500 C151 1.384 . S
C511 C49 1.412 . S
C516 C164 1.356 . S
C527 C177 1.360 . S
C532 C10 1.445 . S
C543 C190 1.414 . S
C548 C23 1.437 . S
C559 C203 1.374 . S
C564 C36 1.450 . S
C575 C216 1.351 . S
C580 C309 1.435 . S
C591 C270 1.385 . S
C596 C229 1.412 . S
C607 C242 1.406 . S
C612 C231 1.385 . S
C623 C255 1.433 . S
C628 C244 1.406 . S
C639 C257 1.447 . S
C644 C268 1.363 . S
C655 C281 1.398 . S
C660 C296 1.446 . S
C671 C218 1.434 . S
C676 C294 1.418 . S
C687 C283 1.385 . S
C692 C307 1.401 . S
C703 C5 1.384 . S
C708 C83 1.313 . S
C719 C18 1.375 . S
C724 C96 1.329 . S
C735 C31 1.376 . S
C740 C57 1.326 . S
C751 C70 1.354 . S
C756 C44 1.353 . S
C767 C135 1.384 . S
C772 C109 1.315 . S
C783 C122 1.335 . S
C788 C148 1.370 . S
C799 C161 1.371 . S
C804 C187 1.334 . S
C815 C200 1.372 . S
C820 C174 1.310 . S
C831 C226 1.311 . S
C836 C213 1.370 . S
C847 C239 1.337 . S
C852 C304 1.340 . S
C863 C252 1.326 . S
C868 C278 1.352 . S
C879 C265 1.305 . S
C884 C291 1.381 . S
C895 C0 1.047 . S
C900 C65 1.006 . S
C911 C13 1.075 . S
C916 C78 1.065 . S
C927 C26 1.009 . S
C932 C91 1.052 . S
C943 C52 1.046 . S
C948 C39 1.076 . S
C959 C104 1.013 . S
C964 C299 1.057 . S
C975 C117 1.016 . S
C980 C273 1.060 . S
C991 C286 1.076 . S
C996 C130 1.047 . S
C1007 C143 1.071 . S
C1012 C208 1.032 . S
C1023 C260 1.000 . S
C1028 C156 1.037 . S
C1039 C221 1.031 . S
C1044 C169 0.998 . S
C1055 C182 1.076 . S
C1060 C234 1.045 . S
C1071 C247 1.071 . S
C1076 C195 1.032 . S
