# Generated by pormake.
# Topology sxc, (6)-cn, num edge types: 1
# Building blocks:
#     Node 0, Type 0, BuildingBlock: INOVEN_clean_sbu_0, # of connection points: 6
#     Node 1, Type 0, BuildingBlock: INOVEN_clean_sbu_0, # of connection points: 6
#     Node 2, Type 0, BuildingBlock: INOVEN_clean_sbu_0, # of connection points: 6
#     Edge 3, Type (0, 0), BuildingBlock: XIVTED_clean_linker_0, # of connection points: 2
#     Edge 4, Type (0, 0), BuildingBlock: XIVTED_clean_linker_0, # of connection points: 2
#     Edge 5, Type (0, 0), BuildingBlock: XIVTED_clean_linker_0, # of connection points: 2
#     Edge 6, Type (0, 0), BuildingBlock: XIVTED_clean_linker_0, # of connection points: 2
#     Edge 7, Type (0, 0), BuildingBlock: XIVTED_clean_linker_0, # of connection points: 2
#     Edge 8, Type (0, 0), BuildingBlock: XIVTED_clean_linker_0, # of connection points: 2
#     Edge 9, Type (0, 0), BuildingBlock: XIVTED_clean_linker_0, # of connection points: 2
#     Edge 10, Type (0, 0), BuildingBlock: XIVTED_clean_linker_0, # of connection points: 2
#     Edge 11, Type (0, 0), BuildingBlock: XIVTED_clean_linker_0, # of connection points: 2
# Relax obj value: 0.305
# Max RMSD: 0.165
# Mean RMSD: 0.092
data_MOF--net-sxc--node1-INOVEN_clean_sbu_0--edge1-XIVTED_clean_linker_0
_symmetry_space_group_name_H-M    P1
_symmetry_Int_Tables_number       1
_symmetry_cell_setting            triclinic
loop_
_symmetry_equiv_pos_as_xyz
'x, y, z'
_cell_length_a     17.654375
_cell_length_b     16.246888
_cell_length_c     45.440322
_cell_angle_alpha  92.795053
_cell_angle_beta   95.633758
_cell_angle_gamma 95.507801
loop_
_atom_site_label
_atom_site_type_symbol
_atom_site_fract_x
_atom_site_fract_y
_atom_site_fract_z
_atom_type_partial_charge
Gd0 Gd 0.22514 0.11769 0.98072 0.0
Gd1 Gd 1.06707 0.11284 0.98488 0.0
C2 C 0.14941 0.29628 0.98372 0.0
C3 C 0.36414 0.12909 0.9668 0.0
C4 C 0.41979 0.18687 0.95502 0.0
C5 C 0.49405 0.16515 0.95322 0.0
C6 C 0.40062 0.26474 0.94688 0.0
C7 C 0.533 0.30338 0.93897 0.0
C8 C 0.45697 0.32276 0.93884 0.0
C9 C 0.55052 0.22312 0.94518 0.0
C10 C 0.18923 0.10417 0.03759 0.0
C11 C 0.14279 0.9333 0.98119 0.0
C12 C 0.92953 0.08639 -0.00064 0.0
C13 C 0.8811 1.00898 0.00118 0.0
C14 C 0.80756 0.99894 0.98599 0.0
C15 C 0.91268 0.94038 0.01319 0.0
C16 C 0.80363 0.85028 -0.00986 0.0
C17 C 0.87416 0.86162 0.00774 0.0
C18 C 0.76888 0.91994 0.98054 0.0
C19 C 1.10079 0.12795 0.92795 0.0
O20 O 0.20711 0.25673 0.97513 0.0
O21 O 1.08975 0.25219 -0.00758 0.0
O22 O 0.34627 0.14882 -0.00671 0.0
O23 O 0.30492 0.10094 0.94838 0.0
O24 O 0.23636 0.06045 0.0253 0.0
O25 O 0.16244 0.15243 0.01916 0.0
O26 O 1.08257 0.97218 0.98724 0.0
O27 O 0.20529 0.97793 0.97544 0.0
O28 O 0.94488 0.10238 0.97259 0.0
O29 O 0.98963 0.09985 0.01884 0.0
O30 O 1.05211 0.16884 0.94056 0.0
O31 O 0.12962 0.07967 0.94608 0.0
H32 H 0.50903 0.10456 0.95919 0.0
H33 H 0.3431 0.28179 0.94801 0.0
H34 H 0.44199 0.38452 0.93462 0.0
H35 H 0.60858 0.20667 0.94527 0.0
H36 H 0.78236 0.05135 0.97664 0.0
H37 H 0.96946 0.94648 0.02502 0.0
H38 H 0.90241 0.80926 0.01548 0.0
H39 H 0.71358 0.913 0.96755 0.0
Gd40 Gd 1.05911 0.0989 0.30924 0.0
Gd41 Gd 0.20712 0.12571 0.32138 0.0
C42 C 0.13506 0.29296 0.31123 0.0
C43 C 0.91446 0.08359 0.3125 0.0
C44 C 0.874 1.02223 0.32981 0.0
C45 C 0.88349 0.93726 0.32612 0.0
C46 C 0.8371 0.05005 0.35375 0.0
C47 C 0.82353 0.91031 0.37098 0.0
C48 C 0.8123 0.9948 0.37414 0.0
C49 C 0.85794 0.8817 0.34644 0.0
C50 C 1.12392 0.09119 0.25698 0.0
C51 C 0.13505 0.93188 0.31484 0.0
C52 C 0.35119 0.11747 0.33429 0.0
C53 C 0.38349 0.06583 0.35695 0.0
C54 C 0.46042 0.07978 0.36821 0.0
C55 C 0.33538 1.00403 0.36853 0.0
C56 C 0.44239 0.96562 0.40058 0.0
C57 C 0.36485 0.95339 0.38984 0.0
C58 C 0.48968 1.03015 0.38998 0.0
C59 C 0.13652 0.12598 0.37271 0.0
O60 O 1.07302 0.24297 0.31492 0.0
O61 O 0.19849 0.25805 0.30815 0.0
O62 O 0.96074 0.13983 0.32852 0.0
O63 O 0.9446 0.05471 0.28948 0.0
O64 O 1.0703 1.03894 0.2644 0.0
O65 O 0.14334 0.1462 0.27786 0.0
O66 O 0.19484 0.98346 0.31015 0.0
O67 O 1.07272 0.96562 0.32022 0.0
O68 O 0.31564 0.17729 0.34468 0.0
O69 O 0.31245 0.07713 0.31118 0.0
O70 O 0.18367 0.18507 0.36546 0.0
O71 O 1.1239 0.07235 0.35133 0.0
H72 H 0.91267 0.9139 0.30807 0.0
H73 H 0.8298 0.11515 0.35725 0.0
H74 H 0.78347 1.01827 0.39229 0.0
H75 H 0.86611 0.81676 0.34323 0.0
H76 H 0.49794 0.12804 0.35991 0.0
H77 H 0.27509 0.99418 0.36084 0.0
H78 H 0.3276 0.90377 0.39749 0.0
H79 H 0.55021 1.03964 0.39751 0.0
Gd80 Gd 1.11476 1.01196 0.6499 0.0
Gd81 Gd 1.11826 0.17486 0.64736 0.0
C82 C 0.93592 0.09131 0.64785 0.0
C83 C 1.09373 0.85941 0.66357 0.0
C84 C 1.02708 0.807 0.67077 0.0
C85 C 1.01385 0.72559 0.65851 0.0
C86 C 0.9709 0.8413 0.68588 0.0
C87 C 0.88413 0.71773 0.6722 0.0
C88 C 0.89994 0.79669 0.68672 0.0
C89 C 0.94266 0.68102 0.65922 0.0
C90 C 1.12297 0.0545 0.59283 0.0
C91 C 0.2969 0.0951 0.64907 0.0
C92 C 0.13948 0.32773 0.63418 0.0
C93 C 0.20544 0.37823 0.62545 0.0
C94 C 0.22131 0.46009 0.63705 0.0
C95 C 0.25873 0.34165 0.60942 0.0
C96 C 0.34828 0.46416 0.62072 0.0
C97 C 0.32965 0.38457 0.60696 0.0
C98 C 0.29243 0.50301 0.63468 0.0
C99 C 1.10703 0.13222 0.70413 0.0
O100 O 0.97692 1.02496 0.65183 0.0
O101 O 0.98086 0.16072 0.64386 0.0
O102 O 1.08932 0.88197 0.63637 0.0
O103 O 1.1199 0.92023 0.68283 0.0
O104 O 0.16419 1.00271 0.60595 0.0
O105 O 1.07939 0.08261 0.6106 0.0
O106 O 0.25583 0.16129 0.6449 0.0
O107 O 0.25206 1.02596 0.65337 0.0
O108 O 0.1479 0.30418 0.66123 0.0
O109 O 1.10899 0.26808 0.61515 0.0
O110 O 1.06505 0.18199 0.69028 0.0
O111 O 0.15259 0.10482 0.68695 0.0
H112 H 1.0567 0.69861 0.64666 0.0
H113 H 0.98008 0.90425 0.69549 0.0
H114 H 0.85607 0.82575 0.69727 0.0
H115 H 0.93182 0.62047 0.64767 0.0
H116 H 0.18075 0.48878 0.64962 0.0
H117 H 0.24741 0.27828 0.6003 0.0
H118 H 0.37143 0.3538 0.59573 0.0
H119 H 0.30553 0.56406 0.64571 0.0
H120 H 1.03592 0.39321 -0.00202 0.0
H121 H 0.25772 0.83675 0.96828 0.0
H122 H 0.26103 0.41815 0.96841 0.0
H123 H 1.02867 0.81072 -0.00605 0.0
H124 H 0.26011 0.68619 0.96867 0.0
H125 H 1.03305 0.54365 -0.00285 0.0
C126 C 1.08517 0.42985 -0.00868 0.0
C127 C 0.149 0.39069 0.9833 0.0
C128 C 0.2091 0.71293 0.97422 0.0
C129 C 0.14575 0.56737 0.98232 0.0
C130 C 0.20749 0.79984 0.97402 0.0
C131 C 0.1427 0.83875 0.98111 0.0
C132 C 0.1455 0.66193 0.98167 0.0
C133 C 1.08006 0.78522 -0.0117 0.0
C134 C 1.08327 0.51669 -0.00916 0.0
C135 C 0.21037 0.44386 0.97485 0.0
N136 N 1.08312 0.70071 -0.01157 0.0
N137 N 0.20718 0.52833 0.97464 0.0
H138 H 0.53324 0.99167 0.45332 0.0
H139 H 0.73626 0.76204 0.35769 0.0
H140 H 0.43349 0.79881 0.38887 0.0
H141 H 0.83652 0.92528 0.43175 0.0
H142 H 0.63797 0.70853 0.38759 0.0
H143 H 0.6362 0.90725 0.4673 0.0
C144 C 0.53158 0.92998 0.44292 0.0
C145 C 0.47796 0.90397 0.4187 0.0
C146 C 0.68288 0.75399 0.39786 0.0
C147 C 0.59811 0.8104 0.43273 0.0
C148 C 0.73943 0.78442 0.38067 0.0
C149 C 0.79086 0.85251 0.39169 0.0
C150 C 0.67602 0.7957 0.42525 0.0
C151 C 0.79422 0.87651 0.42188 0.0
C152 C 0.59051 0.88149 0.4508 0.0
C153 C 0.47628 0.82263 0.40674 0.0
N154 N 0.73561 0.8503 0.43742 0.0
N155 N 0.53753 0.77966 0.41303 0.0
H156 H 0.83129 0.55433 0.67496 0.0
H157 H 0.40227 0.62613 0.61579 0.0
H158 H 0.75709 0.79356 0.65591 0.0
H159 H 0.47555 0.38682 0.6353 0.0
H160 H 0.53349 0.68841 0.62903 0.0
H161 H 0.701 0.49103 0.66012 0.0
C162 C 0.7874 0.59346 0.66789 0.0
C163 C 0.80469 0.67917 0.6668 0.0
C164 C 0.52091 0.62215 0.63017 0.0
C165 C 0.6564 0.60766 0.64962 0.0
C166 C 0.44619 0.58673 0.62256 0.0
C167 C 0.42826 0.50139 0.62442 0.0
C168 C 0.5777 0.57177 0.63981 0.0
C169 C 0.48717 0.45278 0.63313 0.0
C170 C 0.71323 0.55745 0.65937 0.0
C171 C 0.74588 0.72736 0.65759 0.0
N172 N 0.55927 0.4888 0.64069 0.0
N173 N 0.67434 0.69083 0.64925 0.0
H174 H 0.81162 0.96019 0.65603 0.0
H175 H 0.42112 0.22596 0.64057 0.0
H176 H 0.82812 0.21893 0.6403 0.0
H177 H 0.40473 0.96752 0.65676 0.0
H178 H 0.56192 0.22502 0.64031 0.0
H179 H 0.67081 0.96109 0.65627 0.0
C180 C 0.78777 1.01829 0.65253 0.0
C181 C 0.84031 0.0896 0.64808 0.0
C182 C 0.52882 0.16754 0.64398 0.0
C183 C 0.664 0.09124 0.6484 0.0
C184 C 0.445 0.16792 0.64417 0.0
C185 C 0.39248 0.09672 0.64877 0.0
C186 C 0.56879 0.09501 0.64841 0.0
C187 C 0.43629 1.02586 0.65306 0.0
C188 C 0.70394 1.01864 0.6527 0.0
C189 C 0.79653 0.16052 0.6439 0.0
N190 N 0.51701 1.02733 0.65275 0.0
N191 N 0.7158 0.15901 0.64417 0.0
H192 H 0.73763 0.79961 0.93451 0.0
H193 H 0.66508 0.33061 0.97569 0.0
H194 H 0.79879 0.70868 0.02054 0.0
H195 H 0.53953 0.43117 0.90173 0.0
H196 H 0.74621 0.46093 0.98418 0.0
H197 H 0.69006 0.65858 0.91609 0.0
C198 C 0.74034 0.75018 0.94961 0.0
C199 C 0.77113 0.76603 0.97925 0.0
C200 C 0.70187 0.45389 0.96573 0.0
C201 C 0.71969 0.60483 0.95797 0.0
C202 C 0.65617 0.37915 0.96059 0.0
C203 C 0.59461 0.37089 0.9383 0.0
C204 C 0.68553 0.52054 0.94854 0.0
C205 C 0.58544 0.43603 0.91956 0.0
C206 C 0.71428 0.66974 0.93893 0.0
C207 C 0.77567 0.69926 -0.00247 0.0
N208 N 0.62964 0.50905 0.92544 0.0
N209 N 0.74996 0.62149 0.98659 0.0
H210 H 1.01461 0.3892 0.31842 0.0
H211 H 0.25601 0.83679 0.30626 0.0
H212 H 0.25302 0.41555 0.30412 0.0
H213 H 1.0186 0.80859 0.322 0.0
H214 H 0.25634 0.68484 0.30508 0.0
H215 H 1.01501 0.5409 0.31928 0.0
C216 C 1.06721 0.42636 0.31536 0.0
C217 C 0.13384 0.38739 0.31112 0.0
C218 C 0.20401 0.71164 0.30877 0.0
C219 C 0.13477 0.56499 0.31219 0.0
C220 C 0.20375 0.79915 0.30944 0.0
C221 C 0.13712 0.83756 0.31417 0.0
C222 C 0.13707 0.66007 0.31282 0.0
C223 C 1.07163 0.78344 0.31823 0.0
C224 C 1.0674 0.51382 0.3159 0.0
C225 C 0.1999 0.44111 0.30742 0.0
N226 N 1.07333 0.69884 0.31743 0.0
N227 N 0.1986 0.52584 0.30804 0.0
H228 H 1.1235 0.96332 0.21622 0.0
H229 H 0.13857 0.22726 0.07293 0.0
H230 H 0.16031 0.22966 0.2253 0.0
H231 H 0.21819 0.98512 0.07647 0.0
H232 H 0.128 0.22816 0.12676 0.0
H233 H 0.14069 0.96836 0.16345 0.0
C234 C 0.13574 1.02301 0.20713 0.0
C235 C 0.14109 0.09607 0.22541 0.0
C236 C 0.14787 0.17497 0.11572 0.0
C237 C 0.15871 0.10249 0.16431 0.0
C238 C 0.15347 0.17416 0.08495 0.0
C239 C 0.17943 0.10598 0.07004 0.0
C240 C 0.16648 0.10622 0.13167 0.0
C241 C 0.19815 1.03911 0.08692 0.0
C242 C 0.14549 1.02581 0.17693 0.0
C243 C 0.15655 0.17168 0.21219 0.0
N244 N 0.19066 1.04059 0.11657 0.0
N245 N 0.16388 0.17302 0.18244 0.0
H246 H 1.11297 0.97833 0.3999 0.0
H247 H 1.06616 0.18051 0.56114 0.0
H248 H 0.13304 0.24272 0.4179 0.0
H249 H 0.16791 0.95204 0.54947 0.0
H250 H 1.06369 0.19721 0.5074 0.0
H251 H 1.1054 0.95983 0.45314 0.0
C252 C 1.1146 1.03245 0.41494 0.0
C253 C 1.12366 0.11227 0.40431 0.0
C254 C 1.08623 0.14327 0.51663 0.0
C255 C 1.11421 0.09149 0.46539 0.0
C256 C 1.0875 0.13361 0.54733 0.0
C257 C 1.11762 0.06494 0.56004 0.0
C258 C 1.11331 0.08273 0.4982 0.0
C259 C 0.14447 1.0062 0.54081 0.0
C260 C 1.11083 1.02187 0.44537 0.0
C261 C 0.12619 0.18007 0.42504 0.0
N262 N 0.14116 1.01605 0.51102 0.0
N263 N 1.12109 0.16824 0.45439 0.0
H264 H 0.20057 1.04428 0.74187 0.0
H265 H 1.02588 0.21756 0.88757 0.0
H266 H 1.01982 0.20468 0.742 0.0
H267 H 0.18744 1.0348 0.89297 0.0
H268 H 1.02951 0.21519 0.83416 0.0
H269 H 0.20248 1.04022 0.79637 0.0
C270 C 0.16134 0.07852 0.75325 0.0
C271 C 1.11016 0.12523 0.73711 0.0
C272 C 1.06438 0.17531 0.8468 0.0
C273 C 1.11221 0.12114 0.79959 0.0
C274 C 1.06239 0.17672 0.87754 0.0
C275 C 1.10614 0.12609 0.89509 0.0
C276 C 1.11085 0.12305 0.83284 0.0
C277 C 0.15251 0.07483 0.88045 0.0
C278 C 0.16244 0.07618 0.78439 0.0
C279 C 1.06059 0.16805 0.75323 0.0
N280 N 0.15369 0.0746 0.85025 0.0
N281 N 1.06309 0.16513 0.78322 0.0
loop_
_geom_bond_atom_site_label_1
_geom_bond_atom_site_label_2
_geom_bond_distance
_geom_bond_site_symmetry_2
_ccdc_geom_bond_type
Gd0 C3 2.818 . S
Gd0 O20 2.377 . S
Gd0 O22 2.448 . S
Gd0 O23 2.506 1_554 S
Gd0 O24 2.435 . S
Gd0 O25 2.717 1_545 S
Gd0 O27 2.395 1_545 S
Gd0 O31 2.327 1_554 S
Gd1 C12 2.818 . S
Gd1 O21 2.395 1_565 S
Gd1 O25 2.327 1_656 S
Gd1 O26 2.377 . S
Gd1 O28 2.448 . S
Gd1 O29 2.506 1_556 S
Gd1 O30 2.435 . S
Gd1 O31 2.717 1_665 S
C2 O20 1.240 . S
C2 O21 1.240 1_454 S
C3 Gd0 2.818 . S
C3 C4 1.510 . S
C3 O22 1.249 . S
C3 O23 1.252 1_554 S
C4 C3 1.510 . S
C4 C5 1.404 . S
C4 C6 1.352 1_554 S
C5 C4 1.404 . S
C5 C9 1.389 . S
C5 H32 0.930 . S
C6 C4 1.352 1_556 S
C6 C8 1.374 . S
C6 H33 0.931 . S
C7 C8 1.359 1_554 S
C7 C9 1.364 . S
C8 C6 1.374 . S
C8 C7 1.359 1_556 S
C8 H34 0.931 . S
C9 C5 1.389 . S
C9 C7 1.364 . S
C9 H35 0.931 . S
C10 O24 1.256 . S
C10 O25 1.257 1_545 S
C11 O26 1.233 1_454 S
C11 O27 1.244 . S
C12 Gd1 2.818 . S
C12 C13 1.510 . S
C12 O28 1.249 . S
C12 O29 1.252 1_556 S
C13 C12 1.510 . S
C13 C14 1.404 . S
C13 C15 1.352 1_556 S
C14 C13 1.404 . S
C14 C18 1.389 . S
C14 H36 0.930 . S
C15 C13 1.352 1_554 S
C15 C17 1.374 . S
C15 H37 0.931 . S
C16 C17 1.370 . S
C16 C18 1.350 1_554 S
C17 C15 1.374 . S
C17 C16 1.370 . S
C17 H38 0.931 . S
C18 C14 1.389 . S
C18 C16 1.350 1_556 S
C18 H39 0.931 . S
C19 O30 1.256 1_445 S
C19 O31 1.257 . S
O20 Gd0 2.377 . S
O20 C2 1.240 . S
O21 Gd1 2.395 1_545 S
O21 C2 1.240 1_656 S
O22 Gd0 2.448 . S
O22 C3 1.249 . S
O23 Gd0 2.506 1_556 S
O23 C3 1.252 1_556 S
O24 Gd0 2.435 . S
O24 C10 1.256 . S
O25 Gd0 2.717 1_565 S
O25 Gd1 2.327 1_454 S
O25 C10 1.257 1_565 S
O26 Gd1 2.377 . S
O26 C11 1.233 1_656 S
O27 Gd0 2.395 1_565 S
O27 C11 1.244 . S
O28 Gd1 2.448 . S
O28 C12 1.249 . S
O29 Gd1 2.506 1_554 S
O29 C12 1.252 1_554 S
O30 Gd1 2.435 . S
O30 C19 1.256 1_665 S
O31 Gd0 2.327 1_556 S
O31 Gd1 2.717 1_445 S
O31 C19 1.257 . S
H32 C5 0.930 . S
H33 C6 0.931 . S
H34 C8 0.931 . S
H35 C9 0.931 . S
H36 C14 0.930 . S
H37 C15 0.931 . S
H38 C17 0.931 . S
H39 C18 0.931 . S
Gd40 C43 2.818 1_565 S
Gd40 O60 2.377 1_565 S
Gd40 O62 2.444 1_565 S
Gd40 O63 2.506 1_565 S
Gd40 O64 2.435 . S
Gd40 O65 2.717 1_665 S
Gd40 O67 2.395 . S
Gd40 O71 2.327 1_565 S
Gd41 C52 2.818 . S
Gd41 O61 2.395 . S
Gd41 O65 2.327 . S
Gd41 O66 2.377 1_545 S
Gd41 O68 2.448 . S
Gd41 O69 2.506 . S
Gd41 O70 2.435 . S
Gd41 O71 2.717 1_455 S
C42 O60 1.240 . S
C42 O61 1.240 1_655 S
C43 Gd40 2.818 1_545 S
C43 C44 1.510 . S
C43 O62 1.254 . S
C43 O63 1.252 . S
C44 C43 1.510 . S
C44 C45 1.404 . S
C44 C46 1.352 . S
C45 C44 1.404 . S
C45 C49 1.389 . S
C45 H72 0.930 . S
C46 C44 1.352 . S
C46 C48 1.374 . S
C46 H73 0.931 . S
C47 C48 1.359 . S
C47 C49 1.364 . S
C48 C46 1.374 . S
C48 C47 1.359 . S
C48 H74 0.931 . S
C49 C45 1.389 . S
C49 C47 1.364 . S
C49 H75 0.931 . S
C50 O64 1.256 1_545 S
C50 O65 1.257 1_655 S
C51 O66 1.240 . S
C51 O67 1.240 1_455 S
C52 Gd41 2.818 . S
C52 C53 1.510 1_545 S
C52 O68 1.249 . S
C52 O69 1.252 . S
C53 C52 1.510 1_565 S
C53 C54 1.404 . S
C53 C55 1.352 . S
C54 C53 1.404 . S
C54 C58 1.389 . S
C54 H76 0.930 1_565 S
C55 C53 1.352 . S
C55 C57 1.374 . S
C55 H77 0.931 . S
C56 C57 1.359 . S
C56 C58 1.364 . S
C57 C55 1.374 . S
C57 C56 1.359 . S
C57 H78 0.931 . S
C58 C54 1.389 . S
C58 C56 1.364 . S
C58 H79 0.931 . S
C59 O70 1.256 . S
C59 O71 1.257 1_455 S
O60 Gd40 2.377 1_545 S
O60 C42 1.240 . S
O61 Gd41 2.395 . S
O61 C42 1.240 1_455 S
O62 Gd40 2.444 1_545 S
O62 C43 1.254 . S
O63 Gd40 2.506 1_545 S
O63 C43 1.252 . S
O64 Gd40 2.435 . S
O64 C50 1.256 1_565 S
O65 Gd40 2.717 1_445 S
O65 Gd41 2.327 . S
O65 C50 1.257 1_455 S
O66 Gd41 2.377 1_565 S
O66 C51 1.240 . S
O67 Gd40 2.395 . S
O67 C51 1.240 1_655 S
O68 Gd41 2.448 . S
O68 C52 1.249 . S
O69 Gd41 2.506 . S
O69 C52 1.252 . S
O70 Gd41 2.435 . S
O70 C59 1.256 . S
O71 Gd40 2.327 1_545 S
O71 Gd41 2.717 1_655 S
O71 C59 1.257 1_655 S
H72 C45 0.930 . S
H73 C46 0.931 . S
H74 C48 0.931 . S
H75 C49 0.931 . S
H76 C54 0.930 1_545 S
H77 C55 0.931 . S
H78 C57 0.931 . S
H79 C58 0.931 . S
Gd80 C83 2.818 . S
Gd80 O100 2.377 1_565 S
Gd80 O102 2.448 . S
Gd80 O103 2.506 . S
Gd80 O104 2.435 . S
Gd80 O105 2.717 1_665 S
Gd80 O107 2.395 1_655 S
Gd80 O111 2.327 1_565 S
Gd81 C92 2.818 . S
Gd81 O101 2.395 1_455 S
Gd81 O105 2.327 . S
Gd81 O106 2.377 . S
Gd81 O108 2.448 . S
Gd81 O109 2.506 . S
Gd81 O110 2.435 . S
Gd81 O111 2.717 1_455 S
C82 O100 1.240 . S
C82 O101 1.240 . S
C83 Gd80 2.818 . S
C83 C84 1.510 . S
C83 O102 1.249 . S
C83 O103 1.252 . S
C84 C83 1.510 . S
C84 C85 1.404 . S
C84 C86 1.352 . S
C85 C84 1.404 . S
C85 C89 1.389 . S
C85 H112 0.930 . S
C86 C84 1.352 . S
C86 C88 1.374 . S
C86 H113 0.931 . S
C87 C88 1.359 . S
C87 C89 1.364 . S
C88 C86 1.374 . S
C88 C87 1.359 . S
C88 H114 0.931 . S
C89 C85 1.389 . S
C89 C87 1.364 . S
C89 H115 0.931 . S
C90 O104 1.256 1_545 S
C90 O105 1.257 1_655 S
C91 O106 1.240 . S
C91 O107 1.240 1_545 S
C92 Gd81 2.818 . S
C92 C93 1.510 . S
C92 O108 1.249 . S
C92 O109 1.252 . S
C93 C92 1.510 . S
C93 C94 1.404 . S
C93 C95 1.352 . S
C94 C93 1.404 . S
C94 C98 1.389 . S
C94 H116 0.930 . S
C95 C93 1.352 . S
C95 C97 1.374 . S
C95 H117 0.931 . S
C96 C97 1.359 . S
C96 C98 1.364 . S
C97 C95 1.374 . S
C97 C96 1.359 . S
C97 H118 0.931 . S
C98 C94 1.389 . S
C98 C96 1.364 . S
C98 H119 0.931 . S
C99 O110 1.256 . S
C99 O111 1.257 1_455 S
O100 Gd80 2.377 1_545 S
O100 C82 1.240 . S
O101 Gd81 2.395 1_655 S
O101 C82 1.240 . S
O102 Gd80 2.448 . S
O102 C83 1.249 . S
O103 Gd80 2.506 . S
O103 C83 1.252 . S
O104 Gd80 2.435 . S
O104 C90 1.256 1_565 S
O105 Gd80 2.717 1_445 S
O105 Gd81 2.327 . S
O105 C90 1.257 1_455 S
O106 Gd81 2.377 . S
O106 C91 1.240 . S
O107 Gd80 2.395 1_455 S
O107 C91 1.240 1_565 S
O108 Gd81 2.448 . S
O108 C92 1.249 . S
O109 Gd81 2.506 . S
O109 C92 1.252 . S
O110 Gd81 2.435 . S
O110 C99 1.256 . S
O111 Gd80 2.327 1_545 S
O111 Gd81 2.717 1_655 S
O111 C99 1.257 1_655 S
H112 C85 0.930 . S
H113 C86 0.931 . S
H114 C88 0.931 . S
H115 C89 0.931 . S
H116 C94 0.930 . S
H117 C95 0.931 . S
H118 C97 0.931 . S
H119 C98 0.931 . S
H120 C126 0.930 . S
H121 C130 0.930 . S
H122 C135 0.929 . S
H123 C133 0.929 . S
H124 C128 0.929 . S
H125 C134 0.929 . S
C126 H120 0.930 . S
C126 C127 1.364 1_655 S
C126 C134 1.378 . S
C127 C126 1.364 1_455 S
C127 C135 1.436 1_556 S
C128 H124 0.929 . S
C128 C130 1.378 . S
C128 C132 1.350 . S
C129 C132 1.463 . S
C129 C134 1.338 1_454 S
C129 N137 1.440 . S
C130 H121 0.930 . S
C130 C128 1.378 . S
C130 C131 1.367 . S
C131 C130 1.367 . S
C131 C133 1.433 1_454 S
C132 C128 1.350 . S
C132 C129 1.463 . S
C132 N136 1.427 1_454 S
C133 H123 0.929 . S
C133 C131 1.433 1_656 S
C133 N136 1.384 . S
C134 H125 0.929 . S
C134 C126 1.378 . S
C134 C129 1.338 1_656 S
C135 H122 0.929 . S
C135 C127 1.436 1_554 S
C135 N137 1.384 . S
N136 C132 1.427 1_656 S
N136 C133 1.384 . S
N137 C129 1.440 . S
N137 C135 1.384 . S
H138 C144 0.930 . S
H139 C148 0.930 . S
H140 C153 0.929 . S
H141 C151 0.929 . S
H142 C146 0.929 . S
H143 C152 0.929 . S
C144 H138 0.930 . S
C144 C145 1.367 . S
C144 C152 1.378 . S
C145 C144 1.367 . S
C145 C153 1.433 . S
C146 H142 0.929 . S
C146 C148 1.378 . S
C146 C150 1.350 . S
C147 C150 1.463 1_565 S
C147 C152 1.350 . S
C147 N155 1.427 . S
C148 H139 0.930 . S
C148 C146 1.378 . S
C148 C149 1.367 . S
C149 C148 1.367 . S
C149 C151 1.433 . S
C150 C146 1.350 . S
C150 C147 1.463 1_545 S
C150 N154 1.427 . S
C151 H141 0.929 . S
C151 C149 1.433 . S
C151 N154 1.384 . S
C152 H143 0.929 . S
C152 C144 1.378 . S
C152 C147 1.350 . S
C153 H140 0.929 . S
C153 C145 1.433 . S
C153 N155 1.384 . S
N154 C150 1.427 . S
N154 C151 1.384 . S
N155 C147 1.427 . S
N155 C153 1.384 . S
H156 C162 0.930 . S
H157 C166 0.930 . S
H158 C171 0.929 . S
H159 C169 0.929 . S
H160 C164 0.929 . S
H161 C170 0.929 . S
C162 H156 0.930 . S
C162 C163 1.367 . S
C162 C170 1.378 . S
C163 C162 1.367 . S
C163 C171 1.433 . S
C164 H160 0.929 . S
C164 C166 1.378 . S
C164 C168 1.350 . S
C165 C168 1.463 . S
C165 C170 1.350 . S
C165 N173 1.427 . S
C166 H157 0.930 . S
C166 C164 1.378 . S
C166 C167 1.367 . S
C167 C166 1.367 . S
C167 C169 1.433 . S
C168 C164 1.350 . S
C168 C165 1.463 . S
C168 N172 1.427 . S
C169 H159 0.929 . S
C169 C167 1.433 . S
C169 N172 1.384 . S
C170 H161 0.929 . S
C170 C162 1.378 . S
C170 C165 1.350 . S
C171 H158 0.929 . S
C171 C163 1.433 . S
C171 N173 1.384 . S
N172 C168 1.427 . S
N172 C169 1.384 . S
N173 C165 1.427 . S
N173 C171 1.384 . S
H174 C180 0.930 1_565 S
H175 C184 0.930 . S
H176 C189 0.929 . S
H177 C187 0.929 1_565 S
H178 C182 0.929 . S
H179 C188 0.929 1_565 S
C180 H174 0.930 1_545 S
C180 C181 1.367 . S
C180 C188 1.378 . S
C181 C180 1.367 . S
C181 C189 1.433 . S
C182 H178 0.929 . S
C182 C184 1.378 . S
C182 C186 1.350 . S
C183 C186 1.463 . S
C183 C188 1.350 . S
C183 N191 1.427 . S
C184 H175 0.930 . S
C184 C182 1.378 . S
C184 C185 1.367 . S
C185 C184 1.367 . S
C185 C187 1.433 . S
C186 C182 1.350 . S
C186 C183 1.463 . S
C186 N190 1.427 . S
C187 H177 0.929 1_545 S
C187 C185 1.433 . S
C187 N190 1.384 . S
C188 H179 0.929 1_545 S
C188 C180 1.378 . S
C188 C183 1.350 . S
C189 H176 0.929 . S
C189 C181 1.433 . S
C189 N191 1.384 . S
N190 C186 1.427 . S
N190 C187 1.384 . S
N191 C183 1.427 . S
N191 C189 1.384 . S
H192 C198 0.930 . S
H193 C202 0.930 . S
H194 C207 0.929 . S
H195 C205 0.929 . S
H196 C200 0.929 . S
H197 C206 0.929 . S
C198 H192 0.930 . S
C198 C199 1.380 . S
C198 C206 1.378 . S
C199 C198 1.380 . S
C199 C207 1.416 1_556 S
C200 H196 0.929 . S
C200 C202 1.378 . S
C200 C204 1.350 . S
C201 C204 1.467 . S
C201 C206 1.337 1_554 S
C201 N209 1.437 . S
C202 H193 0.930 . S
C202 C200 1.378 . S
C202 C203 1.367 . S
C203 C202 1.367 . S
C203 C205 1.433 1_554 S
C204 C200 1.350 . S
C204 C201 1.467 . S
C204 N208 1.427 1_554 S
C205 H195 0.929 . S
C205 C203 1.433 1_556 S
C205 N208 1.384 . S
C206 H197 0.929 . S
C206 C198 1.378 . S
C206 C201 1.337 1_556 S
C207 H194 0.929 . S
C207 C199 1.416 1_554 S
C207 N209 1.384 . S
N208 C204 1.427 1_556 S
N208 C205 1.384 . S
N209 C201 1.437 . S
N209 C207 1.384 . S
H210 C216 0.930 . S
H211 C220 0.930 . S
H212 C225 0.929 . S
H213 C223 0.929 . S
H214 C218 0.929 . S
H215 C224 0.929 . S
C216 H210 0.930 . S
C216 C217 1.367 . S
C216 C224 1.378 . S
C217 C216 1.367 . S
C217 C225 1.433 1_655 S
C218 H214 0.929 . S
C218 C220 1.378 . S
C218 C222 1.350 . S
C219 C222 1.463 1_655 S
C219 C224 1.350 . S
C219 N227 1.427 1_655 S
C220 H211 0.930 . S
C220 C218 1.378 . S
C220 C221 1.367 . S
C221 C220 1.367 . S
C221 C223 1.433 1_455 S
C222 C218 1.350 . S
C222 C219 1.463 1_455 S
C222 N226 1.427 1_455 S
C223 H213 0.929 . S
C223 C221 1.433 1_655 S
C223 N226 1.384 . S
C224 H215 0.929 . S
C224 C216 1.378 . S
C224 C219 1.350 . S
C225 H212 0.929 . S
C225 C217 1.433 1_455 S
C225 N227 1.384 . S
N226 C222 1.427 1_655 S
N226 C223 1.384 . S
N227 C219 1.427 1_455 S
N227 C225 1.384 . S
H228 C234 0.930 . S
H229 C238 0.930 . S
H230 C243 0.929 . S
H231 C241 0.929 . S
H232 C236 0.929 . S
H233 C242 0.929 . S
C234 H228 0.930 . S
C234 C235 1.367 1_665 S
C234 C242 1.378 . S
C235 C234 1.367 1_445 S
C235 C243 1.433 . S
C236 H232 0.929 . S
C236 C238 1.378 . S
C236 C240 1.350 . S
C237 C240 1.463 . S
C237 C242 1.350 1_445 S
C237 N245 1.427 . S
C238 H229 0.930 . S
C238 C236 1.378 . S
C238 C239 1.367 . S
C239 C238 1.367 . S
C239 C241 1.433 1_445 S
C240 C236 1.350 . S
C240 C237 1.463 . S
C240 N244 1.427 1_445 S
C241 H231 0.929 . S
C241 C239 1.433 1_665 S
C241 N244 1.384 . S
C242 H233 0.929 . S
C242 C234 1.378 . S
C242 C237 1.350 1_665 S
C243 H230 0.929 . S
C243 C235 1.433 . S
C243 N245 1.384 . S
N244 C240 1.427 1_665 S
N244 C241 1.384 . S
N245 C237 1.427 . S
N245 C243 1.384 . S
H246 C252 0.930 . S
H247 C256 0.930 . S
H248 C261 0.929 . S
H249 C259 0.929 . S
H250 C254 0.929 . S
H251 C260 0.929 . S
C252 H246 0.930 . S
C252 C253 1.367 1_565 S
C252 C260 1.378 . S
C253 C252 1.367 1_545 S
C253 C261 1.433 1_455 S
C254 H250 0.929 . S
C254 C256 1.378 . S
C254 C258 1.351 1_655 S
C255 C258 1.462 . S
C255 C260 1.350 1_545 S
C255 N263 1.427 1_455 S
C256 H247 0.930 . S
C256 C254 1.378 . S
C256 C257 1.367 . S
C257 C256 1.367 . S
C257 C259 1.432 1_645 S
C258 C254 1.351 1_455 S
C258 C255 1.462 . S
C258 N262 1.427 1_545 S
C259 H249 0.929 . S
C259 C257 1.432 1_465 S
C259 N262 1.384 . S
C260 H251 0.929 . S
C260 C252 1.378 . S
C260 C255 1.350 1_565 S
C261 H248 0.929 . S
C261 C253 1.433 1_655 S
C261 N263 1.384 . S
N262 C258 1.427 1_565 S
N262 C259 1.384 . S
N263 C255 1.427 1_655 S
N263 C261 1.384 . S
H264 C270 0.930 1_565 S
H265 C274 0.930 . S
H266 C279 0.929 . S
H267 C277 0.929 . S
H268 C272 0.929 . S
H269 C278 0.928 . S
C270 H264 0.930 1_545 S
C270 C271 1.367 . S
C270 C278 1.378 1_545 S
C271 C270 1.367 . S
C271 C279 1.433 1_455 S
C272 H268 0.929 . S
C272 C274 1.378 . S
C272 C276 1.350 1_655 S
C273 C276 1.463 . S
C273 C278 1.350 1_545 S
C273 N281 1.427 1_455 S
C274 H265 0.930 . S
C274 C272 1.378 . S
C274 C275 1.367 1_655 S
C275 C274 1.367 1_455 S
C275 C277 1.433 1_545 S
C276 C272 1.350 1_455 S
C276 C273 1.463 . S
C276 N280 1.427 1_545 S
C277 H267 0.929 . S
C277 C275 1.433 1_565 S
C277 N280 1.384 . S
C278 H269 0.928 . S
C278 C270 1.378 1_565 S
C278 C273 1.350 1_565 S
C279 H266 0.929 . S
C279 C271 1.433 1_655 S
C279 N281 1.384 . S
N280 C276 1.427 1_565 S
N280 C277 1.384 . S
N281 C273 1.427 1_655 S
N281 C279 1.384 . S
C127 C2 2.990 1_556 S
C131 C11 2.991 . S
C145 C56 0.804 . S
C149 C47 0.804 . S
C163 C87 0.667 . S
C167 C96 0.667 . S
C181 C82 4.862 . S
C185 C91 4.862 . S
C199 C16 0.599 1_556 S
C203 C7 0.597 . S
C217 C42 3.056 . S
C221 C51 3.056 . S
C235 C50 1.475 1_455 S
C239 C10 1.474 . S
C253 C59 1.465 . S
C257 C90 1.460 . S
C271 C99 1.483 . S
C275 C19 1.460 . S
