# Generated by pormake.
# Topology wjy, (5)-cn, num edge types: 1
# Building blocks:
#     Node 0, Type 0, BuildingBlock: XOMCOT_clean_sbu_1, # of connection points: 5
#     Node 1, Type 0, BuildingBlock: XOMCOT_clean_sbu_1, # of connection points: 5
#     Node 2, Type 0, BuildingBlock: XOMCOT_clean_sbu_1, # of connection points: 5
#     Node 3, Type 0, BuildingBlock: XOMCOT_clean_sbu_1, # of connection points: 5
#     Node 4, Type 0, BuildingBlock: XOMCOT_clean_sbu_1, # of connection points: 5
#     Node 5, Type 0, BuildingBlock: XOMCOT_clean_sbu_1, # of connection points: 5
#     Node 6, Type 0, BuildingBlock: XOMCOT_clean_sbu_1, # of connection points: 5
#     Node 7, Type 0, BuildingBlock: XOMCOT_clean_sbu_1, # of connection points: 5
#     Node 8, Type 0, BuildingBlock: XOMCOT_clean_sbu_1, # of connection points: 5
#     Node 9, Type 0, BuildingBlock: XOMCOT_clean_sbu_1, # of connection points: 5
#     Node 10, Type 0, BuildingBlock: XOMCOT_clean_sbu_1, # of connection points: 5
#     Node 11, Type 0, BuildingBlock: XOMCOT_clean_sbu_1, # of connection points: 5
#     Edge 12, Type (0, 0), BuildingBlock: XIVTED_clean_linker_0, # of connection points: 2
#     Edge 13, Type (0, 0), BuildingBlock: XIVTED_clean_linker_0, # of connection points: 2
#     Edge 14, Type (0, 0), BuildingBlock: XIVTED_clean_linker_0, # of connection points: 2
#     Edge 15, Type (0, 0), BuildingBlock: XIVTED_clean_linker_0, # of connection points: 2
#     Edge 16, Type (0, 0), BuildingBlock: XIVTED_clean_linker_0, # of connection points: 2
#     Edge 17, Type (0, 0), BuildingBlock: XIVTED_clean_linker_0, # of connection points: 2
#     Edge 18, Type (0, 0), BuildingBlock: XIVTED_clean_linker_0, # of connection points: 2
#     Edge 19, Type (0, 0), BuildingBlock: XIVTED_clean_linker_0, # of connection points: 2
#     Edge 20, Type (0, 0), BuildingBlock: XIVTED_clean_linker_0, # of connection points: 2
#     Edge 21, Type (0, 0), BuildingBlock: XIVTED_clean_linker_0, # of connection points: 2
#     Edge 22, Type (0, 0), BuildingBlock: XIVTED_clean_linker_0, # of connection points: 2
#     Edge 23, Type (0, 0), BuildingBlock: XIVTED_clean_linker_0, # of connection points: 2
#     Edge 24, Type (0, 0), BuildingBlock: XIVTED_clean_linker_0, # of connection points: 2
#     Edge 25, Type (0, 0), BuildingBlock: XIVTED_clean_linker_0, # of connection points: 2
#     Edge 26, Type (0, 0), BuildingBlock: XIVTED_clean_linker_0, # of connection points: 2
#     Edge 27, Type (0, 0), BuildingBlock: XIVTED_clean_linker_0, # of connection points: 2
#     Edge 28, Type (0, 0), BuildingBlock: XIVTED_clean_linker_0, # of connection points: 2
#     Edge 29, Type (0, 0), BuildingBlock: XIVTED_clean_linker_0, # of connection points: 2
#     Edge 30, Type (0, 0), BuildingBlock: XIVTED_clean_linker_0, # of connection points: 2
#     Edge 31, Type (0, 0), BuildingBlock: XIVTED_clean_linker_0, # of connection points: 2
#     Edge 32, Type (0, 0), BuildingBlock: XIVTED_clean_linker_0, # of connection points: 2
#     Edge 33, Type (0, 0), BuildingBlock: XIVTED_clean_linker_0, # of connection points: 2
#     Edge 34, Type (0, 0), BuildingBlock: XIVTED_clean_linker_0, # of connection points: 2
#     Edge 35, Type (0, 0), BuildingBlock: XIVTED_clean_linker_0, # of connection points: 2
#     Edge 36, Type (0, 0), BuildingBlock: XIVTED_clean_linker_0, # of connection points: 2
#     Edge 37, Type (0, 0), BuildingBlock: XIVTED_clean_linker_0, # of connection points: 2
#     Edge 38, Type (0, 0), BuildingBlock: XIVTED_clean_linker_0, # of connection points: 2
#     Edge 39, Type (0, 0), BuildingBlock: XIVTED_clean_linker_0, # of connection points: 2
#     Edge 40, Type (0, 0), BuildingBlock: XIVTED_clean_linker_0, # of connection points: 2
#     Edge 41, Type (0, 0), BuildingBlock: XIVTED_clean_linker_0, # of connection points: 2
# Relax obj value: 0.189
# Max RMSD: 0.171
# Mean RMSD: 0.171
data_MOF--net-wjy--node1-XOMCOT_clean_sbu_1--edge1-XIVTED_clean_linker_0
_symmetry_space_group_name_H-M    P1
_symmetry_Int_Tables_number       1
_symmetry_cell_setting            triclinic
loop_
_symmetry_equiv_pos_as_xyz
'x, y, z'
_cell_length_a     72.189473
_cell_length_b     71.939739
_cell_length_c     17.629638
_cell_angle_alpha  89.975716
_cell_angle_beta   89.978335
_cell_angle_gamma 120.09077
loop_
_atom_site_label
_atom_site_type_symbol
_atom_site_fract_x
_atom_site_fract_y
_atom_site_fract_z
_atom_type_partial_charge
C0 C 0.42085 0.08838 0.17963 0.0
C1 C 0.41705 0.08776 0.25617 0.0
N2 N 0.4265 0.10809 0.2822 0.0
N3 N 0.43236 0.10899 0.15683 0.0
C4 C 0.43572 0.12069 0.22072 0.0
H5 H 0.41637 0.07464 0.14351 0.0
Co6 Co 0.44305 0.11706 0.0589 0.0
C7 C 0.44935 0.16096 0.03117 0.0
O8 O 0.4645 0.16499 0.98171 0.0
N9 N 0.45397 0.12454 0.95809 0.0
C10 C 0.47511 0.13327 0.85646 0.0
C11 C 0.47376 0.12982 0.93329 0.0
C12 C 0.44356 0.12472 0.89417 0.0
N13 N 0.4561 0.13001 0.83172 0.0
O14 O 0.41405 0.1002 0.02089 0.0
H15 H 0.4866 0.13094 0.96787 0.0
H16 H 0.42709 0.12107 0.89334 0.0
O17 O 0.44021 0.14305 0.0672 0.0
C18 C 0.41055 0.08289 0.9881 0.0
O19 O 0.42688 0.08006 0.97467 0.0
N20 N 0.47078 0.1306 0.09928 0.0
C21 C 0.50905 0.13983 0.17037 0.0
C22 C 0.50347 0.15586 0.16183 0.0
C23 C 0.484 0.15084 0.12656 0.0
C24 C 0.47615 0.11506 0.10664 0.0
C25 C 0.49519 0.11935 0.14092 0.0
H26 H 0.47941 0.16296 0.12383 0.0
H27 H 0.46531 0.09906 0.08575 0.0
H28 H 0.4453 0.13803 0.22252 0.0
H29 H 0.40904 0.07342 0.29075 0.0
H30 H 0.48885 0.13715 0.82109 0.0
H31 H 0.51363 0.17182 0.18455 0.0
H32 H 0.49891 0.10654 0.14481 0.0
C33 C 0.35549 0.43553 0.33895 0.0
C34 C 0.35379 0.43126 0.41544 0.0
N35 N 0.33732 0.43303 0.44295 0.0
N36 N 0.34012 0.43986 0.31793 0.0
C37 C 0.3292 0.4381 0.38243 0.0
H38 H 0.36763 0.43616 0.30136 0.0
Co39 Co 0.33811 0.44849 0.22033 0.0
C40 C 0.29936 0.45301 0.22448 0.0
O41 O 0.3106 0.47269 0.19862 0.0
N42 N 0.33634 0.4573 0.11853 0.0
C43 C 0.3389 0.47693 0.01651 0.0
C44 C 0.34232 0.47733 0.09307 0.0
C45 C 0.32915 0.44505 0.05483 0.0
N46 N 0.33072 0.45663 0.99225 0.0
O47 O 0.3278 0.41933 0.18795 0.0
H48 H 0.34861 0.49166 0.12727 0.0
H49 H 0.32273 0.42789 0.05365 0.0
O50 O 0.30834 0.44188 0.23824 0.0
C51 C 0.34245 0.41683 0.15741 0.0
O52 O 0.36077 0.43398 0.14024 0.0
N53 N 0.35106 0.47699 0.25611 0.0
C54 C 0.37877 0.51761 0.31682 0.0
C55 C 0.35743 0.50566 0.34163 0.0
C56 C 0.34384 0.48524 0.311 0.0
C57 C 0.37193 0.48815 0.2335 0.0
C58 C 0.38587 0.50863 0.26158 0.0
H59 H 0.32789 0.47585 0.33382 0.0
H60 H 0.37785 0.48087 0.19383 0.0
H61 H 0.31589 0.441 0.38542 0.0
H62 H 0.36457 0.42821 0.44882 0.0
H63 H 0.34274 0.49069 0.98104 0.0
H64 H 0.35145 0.51182 0.38549 0.0
H65 H 0.40238 0.51692 0.2427 0.0
C66 C 0.92654 0.33691 0.51414 0.0
C67 C 0.92719 0.3341 0.59096 0.0
N68 N 0.90711 0.32519 0.61844 0.0
N69 N 0.90612 0.32953 0.49255 0.0
C70 C 0.89462 0.32251 0.5575 0.0
H71 H 0.9403 0.345 0.47731 0.0
Co72 Co 0.89773 0.33294 0.39561 0.0
C73 C 0.85521 0.29303 0.36364 0.0
O74 O 0.85138 0.30229 0.3065 0.0
N75 N 0.88995 0.33719 0.29656 0.0
C76 C 0.88155 0.35085 0.1977 0.0
C77 C 0.88431 0.35171 0.275 0.0
C78 C 0.89078 0.32794 0.23046 0.0
N79 N 0.88568 0.33592 0.16959 0.0
O80 O 0.91533 0.32222 0.3526 0.0
H81 H 0.8828 0.36278 0.31228 0.0
H82 H 0.89496 0.31548 0.22702 0.0
O83 O 0.87241 0.30351 0.40273 0.0
C84 C 0.9323 0.33749 0.32268 0.0
O85 O 0.93446 0.35673 0.31962 0.0
N86 N 0.88331 0.34579 0.43995 0.0
C87 C 0.87147 0.3717 0.51984 0.0
C88 C 0.85595 0.35082 0.49765 0.0
C89 C 0.86225 0.33793 0.45795 0.0
C90 C 0.89832 0.36623 0.45895 0.0
C91 C 0.89281 0.37939 0.4989 0.0
H92 H 0.85033 0.32169 0.44363 0.0
H93 H 0.9149 0.37218 0.44402 0.0
H94 H 0.87754 0.31638 0.56046 0.0
H95 H 0.94152 0.33954 0.6247 0.0
H96 H 0.87762 0.36107 0.16451 0.0
H97 H 0.83929 0.34434 0.51292 0.0
H98 H 0.90524 0.3955 0.51373 0.0
C99 C 0.57025 0.922 0.66821 0.0
C100 C 0.57326 0.92601 0.7448 0.0
N101 N 0.5801 0.91327 0.7749 0.0
N102 N 0.57509 0.90676 0.64988 0.0
C103 C 0.58137 0.90199 0.71576 0.0
H104 H 0.56413 0.92912 0.62872 0.0
Co105 Co 0.57165 0.89504 0.55299 0.0
C106 C 0.56518 0.85188 0.60704 0.0
O107 O 0.54431 0.84219 0.60061 0.0
N108 N 0.56872 0.88373 0.45336 0.0
C109 C 0.55849 0.86155 0.35419 0.0
C110 C 0.557 0.86299 0.43128 0.0
C111 C 0.57703 0.89456 0.38761 0.0
N112 N 0.57111 0.88144 0.32653 0.0
O113 O 0.60195 0.91379 0.5379 0.0
H114 H 0.54704 0.84966 0.46755 0.0
H115 H 0.58709 0.91177 0.38397 0.0
O116 O 0.57692 0.8719 0.59105 0.0
C117 C 0.60542 0.93209 0.5147 0.0
O118 O 0.58892 0.93435 0.49794 0.0
N119 N 0.54134 0.87908 0.56865 0.0
C120 C 0.49871 0.86792 0.59813 0.0
C121 C 0.51108 0.86521 0.6536 0.0
C122 C 0.53232 0.87108 0.6381 0.0
C123 C 0.52931 0.88131 0.51349 0.0
C124 C 0.50794 0.87544 0.52644 0.0
H125 H 0.54176 0.87003 0.68356 0.0
H126 H 0.53656 0.88899 0.46033 0.0
H127 H 0.58609 0.88996 0.72072 0.0
H128 H 0.5696 0.93668 0.77632 0.0
H129 H 0.55014 0.84702 0.32082 0.0
H130 H 0.50496 0.85995 0.71038 0.0
H131 H 0.4991 0.87777 0.48148 0.0
C132 C 0.6567 0.55804 0.84678 0.0
C133 C 0.65464 0.561 0.92259 0.0
N134 N 0.67397 0.57574 0.94953 0.0
N135 N 0.67732 0.57051 0.82576 0.0
C136 C 0.6873 0.5817 0.88903 0.0
H137 H 0.64404 0.547 0.80956 0.0
Co138 Co 0.68692 0.57076 0.72667 0.0
C139 C 0.72713 0.57549 0.81295 0.0
O140 O 0.71956 0.57003 0.8821 0.0
N141 N 0.69605 0.57107 0.62625 0.0
C142 C 0.71066 0.56463 0.52586 0.0
C143 C 0.70766 0.56216 0.60293 0.0
C144 C 0.69186 0.57854 0.56176 0.0
N145 N 0.70068 0.57492 0.49983 0.0
O146 O 0.69743 0.60113 0.7228 0.0
H147 H 0.71308 0.55375 0.6394 0.0
H148 H 0.68233 0.58627 0.5598 0.0
O149 O 0.71519 0.57565 0.75954 0.0
C150 C 0.68236 0.60436 0.70177 0.0
O151 O 0.66384 0.58774 0.68293 0.0
N152 N 0.67448 0.54053 0.73005 0.0
C153 C 0.64411 0.49711 0.7524 0.0
C154 C 0.66154 0.50795 0.80216 0.0
C155 C 0.67663 0.52962 0.78966 0.0
C156 C 0.6587 0.52983 0.67788 0.0
C157 C 0.64369 0.50808 0.68702 0.0
H158 H 0.68851 0.53801 0.83251 0.0
H159 H 0.65664 0.53856 0.6318 0.0
H160 H 0.70403 0.59396 0.89088 0.0
H161 H 0.6402 0.55219 0.95599 0.0
H162 H 0.71883 0.55853 0.49127 0.0
H163 H 0.66262 0.50044 0.85386 0.0
H164 H 0.63104 0.50039 0.64543 0.0
C165 C 0.09265 0.67476 0.00622 0.0
C166 C 0.09237 0.67781 0.08302 0.0
N167 N 0.11262 0.68712 0.10899 0.0
N168 N 0.11301 0.68238 0.98322 0.0
C169 C 0.12485 0.68981 0.04721 0.0
H170 H 0.07874 0.66634 0.97037 0.0
Co171 Co 0.12088 0.67868 0.88603 0.0
C172 C 0.1635 0.71766 0.85169 0.0
O173 O 0.16783 0.70684 0.80174 0.0
N174 N 0.12813 0.67421 0.78678 0.0
C175 C 0.1356 0.66027 0.68655 0.0
C176 C 0.13281 0.65909 0.76388 0.0
C177 C 0.12795 0.68417 0.72167 0.0
N178 N 0.13248 0.67602 0.65994 0.0
O179 O 0.10296 0.68915 0.84415 0.0
H180 H 0.13367 0.64747 0.80026 0.0
H181 H 0.12458 0.69722 0.71959 0.0
O182 O 0.14602 0.70823 0.88988 0.0
C183 C 0.08599 0.67402 0.81382 0.0
O184 O 0.08389 0.65483 0.80888 0.0
N185 N 0.13561 0.66602 0.92959 0.0
C186 C 0.14728 0.63994 0.0094 0.0
C187 C 0.16277 0.66104 0.98937 0.0
C188 C 0.15654 0.67403 0.94987 0.0
C189 C 0.12064 0.64542 0.94696 0.0
C190 C 0.12607 0.63216 0.98667 0.0
H191 H 0.16839 0.69049 0.93823 0.0
H192 H 0.10413 0.63941 0.93086 0.0
H193 H 0.14197 0.69621 0.04895 0.0
H194 H 0.0782 0.67223 0.11781 0.0
H195 H 0.13884 0.64974 0.65229 0.0
H196 H 0.1793 0.66764 0.00645 0.0
H197 H 0.11367 0.61591 1.00009 0.0
C198 C 0.91477 0.55637 0.65513 0.0
C199 C 0.91985 0.55964 0.57942 0.0
N200 N 0.91579 0.57489 0.55389 0.0
N201 N 0.90709 0.56915 0.67746 0.0
C202 C 0.90867 0.58083 0.61513 0.0
H203 H 0.91603 0.54492 0.69138 0.0
Co204 Co 0.89794 0.56918 0.77694 0.0
C205 C 0.86288 0.57497 0.69257 0.0
O206 O 0.86509 0.56995 0.62291 0.0
N207 N 0.88938 0.56928 0.87756 0.0
C208 C 0.86883 0.56299 0.97922 0.0
C209 C 0.86897 0.56037 0.9021 0.0
C210 C 0.90137 0.5769 0.94119 0.0
N211 N 0.88923 0.57338 1.0039 0.0
O212 O 0.91811 0.59949 0.78216 0.0
H213 H 0.85499 0.55197 0.86638 0.0
H214 H 0.91863 0.58472 0.94183 0.0
O215 O 0.87478 0.57462 0.74576 0.0
C216 C 0.93646 0.60227 0.80003 0.0
O217 O 0.93827 0.58534 0.81456 0.0
N218 N 0.8798 0.53901 0.77237 0.0
C219 C 0.86573 0.49544 0.748 0.0
C220 C 0.8593 0.50673 0.69974 0.0
C221 C 0.8664 0.52847 0.7132 0.0
C222 C 0.88485 0.52793 0.82308 0.0
C223 C 0.87764 0.50611 0.81288 0.0
H224 H 0.86294 0.53716 0.67142 0.0
H225 H 0.89589 0.53638 0.86879 0.0
H226 H 0.90463 0.59342 0.61448 0.0
H227 H 0.92512 0.5507 0.5451 0.0
H228 H 0.85474 0.55697 0.01471 0.0
H229 H 0.85034 0.49946 0.64844 0.0
H230 H 0.88253 0.49808 0.85334 0.0
C231 C 0.33839 0.92768 0.80787 0.0
C232 C 0.33506 0.92783 0.73128 0.0
N233 N 0.32488 0.90738 0.70634 0.0
N234 N 0.33004 0.90724 0.83177 0.0
C235 C 0.32202 0.89518 0.76849 0.0
H236 H 0.34742 0.94168 0.84308 0.0
Co237 Co 0.33358 0.8998 0.92949 0.0
C238 C 0.29555 0.85644 0.96398 0.0
O239 O 0.30654 0.85286 0.01538 0.0
N240 N 0.33799 0.89307 0.02961 0.0
C241 C 0.35176 0.88583 0.13081 0.0
C242 C 0.35326 0.8888 0.05361 0.0
C243 C 0.32764 0.89291 0.09407 0.0
N244 N 0.33565 0.88845 0.15631 0.0
O245 O 0.32206 0.91717 0.96854 0.0
H246 H 0.36514 0.88821 0.01808 0.0
H247 H 0.31435 0.89587 0.09526 0.0
O248 O 0.30452 0.87386 0.92495 0.0
C249 C 0.33624 0.93455 0.99992 0.0
O250 O 0.35548 0.93731 0.0107 0.0
N251 N 0.34709 0.88564 0.88805 0.0
C252 C 0.37416 0.87443 0.81312 0.0
C253 C 0.35304 0.8587 0.83121 0.0
C254 C 0.33956 0.86469 0.86813 0.0
C255 C 0.36763 0.90092 0.87194 0.0
C256 C 0.3814 0.8957 0.83476 0.0
H257 H 0.32314 0.85261 0.8783 0.0
H258 H 0.37325 0.91745 0.88753 0.0
H259 H 0.31502 0.8779 0.76754 0.0
H260 H 0.34098 0.94198 0.69585 0.0
H261 H 0.36225 0.88274 0.16577 0.0
H262 H 0.34683 0.84211 0.8148 0.0
H263 H 0.39763 0.90831 0.82288 0.0
C264 C 0.42599 0.3433 0.98392 0.0
C265 C 0.42244 0.34015 0.90729 0.0
N266 N 0.43179 0.32916 0.88201 0.0
N267 N 0.43724 0.33407 0.00749 0.0
C268 C 0.44066 0.32565 0.94401 0.0
H269 H 0.42167 0.35278 0.01939 0.0
Co270 Co 0.44816 0.337 0.10508 0.0
C271 C 0.45098 0.29749 0.13823 0.0
O272 O 0.46584 0.30793 0.18939 0.0
N273 N 0.45928 0.34078 0.20507 0.0
C274 C 0.48051 0.35361 0.30619 0.0
C275 C 0.47919 0.35527 0.22901 0.0
C276 C 0.44875 0.33071 0.26955 0.0
N277 N 0.46133 0.33818 0.33175 0.0
O278 O 0.41956 0.32678 0.14457 0.0
H279 H 0.49203 0.36674 0.19347 0.0
H280 H 0.43217 0.31804 0.27082 0.0
O281 O 0.44329 0.30725 0.09992 0.0
C282 C 0.41742 0.34161 0.17602 0.0
O283 O 0.43458 0.36048 0.18659 0.0
N284 N 0.47571 0.34935 0.06323 0.0
C285 C 0.51384 0.37503 0.98495 0.0
C286 C 0.5074 0.35355 1.00224 0.0
C287 C 0.488 0.34078 0.04094 0.0
C288 C 0.48212 0.37029 0.0484 0.0
C289 C 0.50105 0.38338 0.00966 0.0
H290 H 0.48273 0.32406 0.05013 0.0
H291 H 0.47206 0.37672 0.06578 0.0
H292 H 0.45017 0.31786 0.94281 0.0
H293 H 0.4148 0.3467 0.87208 0.0
H294 H 0.49432 0.36357 0.34111 0.0
H295 H 0.51681 0.34651 0.98346 0.0
H296 H 0.50553 0.39992 0.99841 0.0
C297 C 0.10417 0.45514 0.14258 0.0
C298 C 0.09882 0.45166 0.06716 0.0
N299 N 0.10207 0.43581 0.04248 0.0
N300 N 0.11128 0.44194 0.16564 0.0
C301 C 0.10894 0.42972 0.10404 0.0
H302 H 0.10345 0.46702 0.17811 0.0
Co303 Co 0.12039 0.44195 0.26556 0.0
C304 C 0.15515 0.43619 0.17967 0.0
O305 O 0.15173 0.44045 0.11042 0.0
N306 N 0.12877 0.44192 0.36651 0.0
C307 C 0.14916 0.44889 0.46897 0.0
C308 C 0.14914 0.45162 0.39186 0.0
C309 C 0.11666 0.43372 0.4297 0.0
N310 N 0.12871 0.43763 0.49287 0.0
O311 O 0.10023 0.4116 0.2711 0.0
H312 H 0.16313 0.46083 0.35681 0.0
H313 H 0.09936 0.42524 0.42973 0.0
O314 O 0.1439 0.43673 0.23495 0.0
C315 C 0.08184 0.409 0.28722 0.0
O316 O 0.08011 0.42605 0.29978 0.0
N317 N 0.13842 0.47214 0.26091 0.0
C318 C 0.15244 0.51572 0.23663 0.0
C319 C 0.15917 0.50455 0.18897 0.0
C320 C 0.15209 0.4828 0.20241 0.0
C321 C 0.13308 0.48311 0.31109 0.0
C322 C 0.14027 0.50492 0.30097 0.0
H323 H 0.15585 0.4742 0.16116 0.0
H324 H 0.12186 0.47456 0.35629 0.0
H325 H 0.11235 0.41669 0.10404 0.0
H326 H 0.09394 0.46086 0.03236 0.0
H327 H 0.16317 0.45548 0.50505 0.0
H328 H 0.16837 0.51193 0.13816 0.0
H329 H 0.13516 0.51285 0.34103 0.0
C330 C 0.66989 0.08686 0.36883 0.0
C331 C 0.67255 0.0857 0.29213 0.0
N332 N 0.68563 0.10574 0.26592 0.0
N333 N 0.68138 0.10749 0.39129 0.0
C334 C 0.69076 0.11866 0.32736 0.0
H335 H 0.65965 0.07359 0.40556 0.0
Co336 Co 0.68106 0.1167 0.48931 0.0
C337 C 0.71943 0.16062 0.50538 0.0
O338 O 0.70908 0.1657 0.55463 0.0
N339 N 0.6801 0.12554 0.59102 0.0
C340 C 0.67146 0.13727 0.69485 0.0
C341 C 0.66815 0.13376 0.6184 0.0
C342 C 0.69051 0.12425 0.65319 0.0
N343 N 0.68544 0.13119 0.71688 0.0
O344 O 0.69296 0.09933 0.52373 0.0
H345 H 0.65757 0.13718 0.58591 0.0
H346 H 0.70157 0.11825 0.65217 0.0
O347 O 0.71005 0.14204 0.47386 0.0
C348 C 0.67889 0.08219 0.55679 0.0
O349 O 0.66028 0.08029 0.57333 0.0
N350 N 0.66678 0.13053 0.45249 0.0
C351 C 0.63677 0.13962 0.38834 0.0
C352 C 0.65887 0.15444 0.38256 0.0
C353 C 0.67375 0.1495 0.41476 0.0
C354 C 0.6455 0.11614 0.45848 0.0
C355 C 0.63031 0.12053 0.42875 0.0
H356 H 0.69064 0.16043 0.40639 0.0
H357 H 0.64032 0.10098 0.48692 0.0
H358 H 0.70075 0.13596 0.32566 0.0
H359 H 0.6646 0.07132 0.2578 0.0
H360 H 0.66356 0.14314 0.73192 0.0
H361 H 0.66461 0.16924 0.351 0.0
H362 H 0.61355 0.10878 0.43671 0.0
C363 C 0.59552 0.67379 0.53456 0.0
C364 C 0.59938 0.6772 0.45811 0.0
N365 N 0.59066 0.6888 0.43309 0.0
N366 N 0.58462 0.68338 0.55826 0.0
C367 C 0.58183 0.69239 0.4951 0.0
H368 H 0.5996 0.66411 0.57005 0.0
Co369 Co 0.57411 0.68073 0.65638 0.0
C370 C 0.56833 0.7182 0.68558 0.0
O371 O 0.55136 0.70557 0.72627 0.0
N372 N 0.56348 0.67739 0.75772 0.0
C373 C 0.543 0.66568 0.8612 0.0
C374 C 0.54379 0.66307 0.78444 0.0
C375 C 0.57435 0.68841 0.82044 0.0
N376 N 0.56223 0.68157 0.88397 0.0
O377 O 0.6029 0.69144 0.69413 0.0
H378 H 0.53059 0.65124 0.7514 0.0
H379 H 0.59086 0.70125 0.8196 0.0
O380 O 0.57858 0.71036 0.65137 0.0
C381 C 0.60537 0.67694 0.72663 0.0
O382 O 0.58838 0.65806 0.73909 0.0
N383 N 0.54625 0.66773 0.61623 0.0
C384 C 0.50577 0.64039 0.55551 0.0
C385 C 0.51444 0.66277 0.55397 0.0
C386 C 0.53486 0.67628 0.58462 0.0
C387 C 0.53853 0.64615 0.61346 0.0
C388 C 0.51821 0.63219 0.58505 0.0
H389 H 0.54153 0.69342 0.5808 0.0
H390 H 0.54818 0.63974 0.63539 0.0
H391 H 0.57299 0.70086 0.49417 0.0
H392 H 0.60693 0.67056 0.42289 0.0
H393 H 0.52946 0.65608 0.89787 0.0
H394 H 0.50549 0.6697 0.52963 0.0
H395 H 0.51238 0.61507 0.58521 0.0
H396 H 0.43869 0.27581 1.00213 0.0
H397 H 0.43538 0.16978 0.16469 0.0
H398 H 0.45019 0.26808 0.23691 0.0
H399 H 0.45192 0.19138 0.93341 0.0
H400 H 0.43135 0.20121 0.19089 0.0
H401 H 0.434 0.24011 0.9752 0.0
C402 C 0.43981 0.26644 0.04816 0.0
C403 C 0.44499 0.27495 0.1217 0.0
C404 C 0.43561 0.19887 0.13422 0.0
C405 C 0.43954 0.23422 0.0916 0.0
C406 C 0.43779 0.18091 0.11922 0.0
C407 C 0.44418 0.1781 0.04699 0.0
C408 C 0.43942 0.21382 0.07617 0.0
C409 C 0.44721 0.19308 0.99015 0.0
C410 C 0.43727 0.24616 0.03276 0.0
C411 C 0.44641 0.26219 0.17924 0.0
N412 N 0.44484 0.21027 1.0059 0.0
N413 N 0.44375 0.24252 0.16301 0.0
H414 H 0.17407 0.43662 0.31638 0.0
H415 H 0.26839 0.42379 0.13184 0.0
H416 H 0.17911 0.42894 0.0759 0.0
H417 H 0.27794 0.46296 0.32879 0.0
H418 H 0.23092 0.41547 0.12585 0.0
H419 H 0.20766 0.43658 0.33556 0.0
C420 C 0.18209 0.43481 0.26763 0.0
C421 C 0.17392 0.43334 0.19415 0.0
C422 C 0.2411 0.42548 0.17138 0.0
C423 C 0.21208 0.43257 0.21622 0.0
C424 C 0.26234 0.43001 0.17529 0.0
C425 C 0.27603 0.44379 0.23157 0.0
C426 C 0.23353 0.43464 0.22463 0.0
C427 C 0.2677 0.45202 0.28525 0.0
C428 C 0.20126 0.43473 0.27876 0.0
C429 C 0.18491 0.43047 0.13347 0.0
N430 N 0.24697 0.44734 0.28052 0.0
N431 N 0.2034 0.43023 0.14581 0.0
H432 H 0.74081 0.16643 0.36979 0.0
H433 H 0.84594 0.2745 0.50565 0.0
H434 H 0.74846 0.19288 0.59467 0.0
H435 H 0.82541 0.26189 0.27233 0.0
H436 H 0.81455 0.23996 0.54141 0.0
H437 H 0.77617 0.1969 0.33558 0.0
C438 C 0.75005 0.17843 0.41222 0.0
C439 C 0.74162 0.17723 0.48496 0.0
C440 C 0.81711 0.24469 0.48228 0.0
C441 C 0.78202 0.2119 0.44664 0.0
C442 C 0.83507 0.2643 0.46185 0.0
C443 C 0.8382 0.27114 0.38601 0.0
C444 C 0.80241 0.23167 0.42629 0.0
C445 C 0.82349 0.25733 0.33159 0.0
C446 C 0.77015 0.19585 0.39263 0.0
C447 C 0.75425 0.1933 0.53768 0.0
N448 N 0.80625 0.23831 0.35273 0.0
N449 N 0.77375 0.20993 0.51755 0.0
H450 H 0.59011 0.74702 0.56915 0.0
H451 H 0.56123 0.83243 0.74163 0.0
H452 H 0.55995 0.74153 0.78568 0.0
H453 H 0.58803 0.83927 0.51831 0.0
H454 H 0.56729 0.8025 0.76625 0.0
H455 H 0.59536 0.78351 0.55543 0.0
C456 C 0.58492 0.75359 0.6142 0.0
C457 C 0.57434 0.74111 0.67821 0.0
C458 C 0.5723 0.81073 0.71224 0.0
C459 C 0.58031 0.78268 0.6632 0.0
C460 C 0.56904 0.82799 0.69866 0.0
C461 C 0.57445 0.83846 0.62845 0.0
C462 C 0.58052 0.80344 0.65436 0.0
C463 C 0.58404 0.83179 0.57377 0.0
C464 C 0.58784 0.77437 0.6063 0.0
C465 C 0.56788 0.7504 0.73479 0.0
N466 N 0.58649 0.81446 0.58739 0.0
N467 N 0.57086 0.77045 0.72575 0.0
H468 H 0.74819 0.58565 0.67548 0.0
H469 H 0.85142 0.58373 0.83149 0.0
H470 H 0.75597 0.57371 0.90999 0.0
H471 H 0.83307 0.57485 0.59551 0.0
H472 H 0.81963 0.58618 0.86145 0.0
H473 H 0.78232 0.58784 0.64591 0.0
C474 C 0.757 0.58347 0.72084 0.0
C475 C 0.74884 0.57902 0.79515 0.0
C476 C 0.82261 0.58375 0.80311 0.0
C477 C 0.78831 0.58198 0.76173 0.0
C478 C 0.84076 0.58228 0.78589 0.0
C479 C 0.8448 0.57862 0.71098 0.0
C480 C 0.80849 0.58189 0.74492 0.0
C481 C 0.83057 0.57746 0.65419 0.0
C482 C 0.77656 0.58479 0.70386 0.0
C483 C 0.76142 0.57694 0.85174 0.0
N484 N 0.81307 0.57902 0.67233 0.0
N485 N 0.78044 0.57837 0.83384 0.0
H486 H 0.26712 0.82763 0.06436 0.0
H487 H 0.19276 0.74597 0.75189 0.0
H488 H 0.27381 0.84513 0.82786 0.0
H489 H 0.17209 0.7409 0.98427 0.0
H490 H 0.22258 0.78203 0.77802 0.0
H491 H 0.23252 0.79584 0.03694 0.0
C492 C 0.26115 0.82489 0.00667 0.0
C493 C 0.27339 0.83901 0.94821 0.0
C494 C 0.21139 0.77319 0.8231 0.0
C495 C 0.23389 0.80233 0.91617 0.0
C496 C 0.1944 0.75255 0.80837 0.0
C497 C 0.17998 0.74037 0.86614 0.0
C498 C 0.21435 0.78161 0.8967 0.0
C499 C 0.1828 0.74976 0.93808 0.0
C500 C 0.24136 0.80676 0.99115 0.0
C501 C 0.26485 0.83471 0.87461 0.0
N502 N 0.19988 0.7697 0.95167 0.0
N503 N 0.24579 0.81654 0.86043 0.0
H504 H 0.48186 0.15543 0.71913 0.0
H505 H 0.39784 0.08776 0.39493 0.0
H506 H 0.41727 0.10513 0.76556 0.0
H507 H 0.46013 0.14242 0.34963 0.0
H508 H 0.40353 0.09563 0.53058 0.0
H509 H 0.47324 0.15278 0.58416 0.0
C510 C 0.4658 0.14391 0.70087 0.0
C511 C 0.45032 0.13033 0.7536 0.0
C512 C 0.41587 0.10607 0.49104 0.0
C513 C 0.4403 0.12713 0.59881 0.0
C514 C 0.41266 0.10153 0.41358 0.0
C515 C 0.42861 0.11433 0.3609 0.0
C516 C 0.43531 0.12343 0.51638 0.0
C517 C 0.44737 0.13218 0.38811 0.0
C518 C 0.46085 0.14245 0.62379 0.0
C519 C 0.42966 0.11595 0.72694 0.0
N520 N 0.4503 0.13604 0.464 0.0
N521 N 0.42532 0.11454 0.65131 0.0
H522 H 0.34218 0.41031 0.55638 0.0
H523 H 0.31757 0.47276 0.87913 0.0
H524 H 0.32023 0.455 0.51064 0.0
H525 H 0.33501 0.42475 0.92697 0.0
H526 H 0.31544 0.46411 0.74433 0.0
H527 H 0.3368 0.41303 0.69198 0.0
C528 C 0.3361 0.42059 0.57482 0.0
C529 C 0.33184 0.43258 0.52195 0.0
C530 C 0.31952 0.45528 0.78423 0.0
C531 C 0.32561 0.43578 0.67738 0.0
C532 C 0.3208 0.46028 0.86122 0.0
C533 C 0.32669 0.44962 0.91431 0.0
C534 C 0.32436 0.43963 0.75969 0.0
C535 C 0.33034 0.43331 0.88807 0.0
C536 C 0.33294 0.42207 0.65227 0.0
C537 C 0.32363 0.44537 0.54908 0.0
N538 N 0.32938 0.42899 0.81251 0.0
N539 N 0.32101 0.4468 0.62487 0.0
H540 H 0.92601 0.31575 0.73299 0.0
H541 H 0.86222 0.33898 0.05507 0.0
H542 H 0.87514 0.32893 0.68529 0.0
H543 H 0.91021 0.32163 0.10271 0.0
H544 H 0.8652 0.33331 0.92 0.0
H545 H 0.91885 0.31553 0.86861 0.0
C546 C 0.91323 0.31845 0.75111 0.0
C547 C 0.90125 0.3225 0.69766 0.0
C548 C 0.87497 0.33058 0.95997 0.0
C549 C 0.89297 0.32236 0.85319 0.0
C550 C 0.87336 0.33392 0.03716 0.0
C551 C 0.88609 0.33093 0.09046 0.0
C552 C 0.88955 0.32432 0.93545 0.0
C553 C 0.89997 0.324 0.06391 0.0
C554 C 0.9091 0.31828 0.82857 0.0
C555 C 0.88467 0.3256 0.72433 0.0
N556 N 0.90146 0.32111 0.98831 0.0
N557 N 0.88117 0.32568 0.8002 0.0
H558 H 0.58925 0.94204 0.88899 0.0
H559 H 0.57215 0.8567 0.21234 0.0
H560 H 0.57623 0.87761 0.84399 0.0
H561 H 0.58084 0.91944 0.25946 0.0
H562 H 0.57711 0.86549 0.07758 0.0
H563 H 0.58973 0.93546 0.0248 0.0
C564 C 0.58656 0.92654 0.90749 0.0
C565 C 0.58252 0.91032 0.85461 0.0
C566 C 0.57805 0.8774 0.11734 0.0
C567 C 0.58318 0.90271 0.01041 0.0
C568 C 0.57511 0.87235 0.19443 0.0
C569 C 0.57582 0.88724 0.24753 0.0
C570 C 0.58171 0.89753 0.09266 0.0
C571 C 0.58023 0.90747 0.22085 0.0
C572 C 0.58692 0.92282 0.98514 0.0
C573 C 0.57957 0.89068 0.88217 0.0
N574 N 0.58284 0.91195 0.14527 0.0
N575 N 0.57981 0.8874 0.95804 0.0
H576 H 0.64834 0.57561 0.06259 0.0
H577 H 0.7291 0.58304 0.38635 0.0
H578 H 0.71204 0.58733 0.01774 0.0
H579 H 0.66769 0.57701 0.43351 0.0
H580 H 0.72412 0.58726 0.25173 0.0
H581 H 0.65609 0.57895 0.1985 0.0
C582 C 0.66403 0.57908 0.08127 0.0
C583 C 0.67947 0.58095 0.0285 0.0
C584 C 0.71179 0.58519 0.29147 0.0
C585 C 0.68847 0.58471 0.18441 0.0
C586 C 0.71458 0.58267 0.3684 0.0
C587 C 0.69869 0.57943 0.42136 0.0
C588 C 0.69287 0.58431 0.26678 0.0
C589 C 0.68039 0.57952 0.39487 0.0
C590 C 0.66847 0.58103 0.15894 0.0
C591 C 0.69966 0.58581 0.05606 0.0
N592 N 0.67788 0.58167 0.3194 0.0
N593 N 0.70347 0.58725 0.13204 0.0
H594 H 0.14523 0.68398 0.17298 0.0
H595 H 0.10926 0.69225 0.59614 0.0
H596 H 0.09406 0.69638 0.22522 0.0
H597 H 0.155 0.67221 0.54364 0.0
H598 H 0.10703 0.69871 0.46115 0.0
H599 H 0.15265 0.68462 0.30876 0.0
C600 C 0.1358 0.68722 0.21289 0.0
C601 C 0.1189 0.69001 0.18772 0.0
C602 C 0.11767 0.69303 0.47919 0.0
C603 C 0.1271 0.69048 0.34335 0.0
C604 C 0.11906 0.68948 0.55641 0.0
C605 C 0.13224 0.68152 0.58132 0.0
C606 C 0.1296 0.68869 0.42634 0.0
C607 C 0.14437 0.67799 0.5269 0.0
C608 C 0.13992 0.6874 0.29049 0.0
C609 C 0.10702 0.69385 0.24223 0.0
N610 N 0.14269 0.68151 0.45207 0.0
N611 N 0.11126 0.69386 0.31735 0.0
H612 H 0.92501 0.57635 0.06726 0.0
H613 H 0.89011 0.58792 0.48818 0.0
H614 H 0.86928 0.58137 0.11906 0.0
H615 H 0.94067 0.5743 0.43937 0.0
H616 H 0.88615 0.59171 0.35232 0.0
H617 H 0.93458 0.58137 0.20193 0.0
C618 C 0.91493 0.57878 0.10672 0.0
C619 C 0.89617 0.57819 0.08183 0.0
C620 C 0.89827 0.5881 0.37135 0.0
C621 C 0.90695 0.58382 0.23625 0.0
C622 C 0.90066 0.58612 0.4491 0.0
C623 C 0.91558 0.58051 0.47537 0.0
C624 C 0.91092 0.58453 0.31929 0.0
C625 C 0.92869 0.57822 0.42165 0.0
C626 C 0.92034 0.58153 0.18371 0.0
C627 C 0.88365 0.58129 0.13583 0.0
N628 N 0.92594 0.58006 0.34626 0.0
N629 N 0.88919 0.58385 0.21037 0.0
H630 H 0.32654 0.8739 0.642 0.0
H631 H 0.31873 0.91104 0.22015 0.0
H632 H 0.31552 0.9262 0.59134 0.0
H633 H 0.33888 0.86523 0.27146 0.0
H634 H 0.31176 0.91266 0.35515 0.0
H635 H 0.32525 0.8663 0.50606 0.0
C636 C 0.32345 0.88353 0.60239 0.0
C637 C 0.32131 0.90083 0.62793 0.0
C638 C 0.31755 0.90213 0.3368 0.0
C639 C 0.32008 0.89243 0.47231 0.0
C640 C 0.3214 0.90109 0.25963 0.0
C641 C 0.3296 0.88813 0.23451 0.0
C642 C 0.32184 0.89004 0.38929 0.0
C643 C 0.33295 0.87574 0.28848 0.0
C644 C 0.32289 0.87931 0.52474 0.0
C645 C 0.31758 0.91293 0.57392 0.0
N646 N 0.32917 0.87708 0.36325 0.0
N647 N 0.31722 0.9086 0.49875 0.0
H648 H 0.42211 0.32339 0.39556 0.0
H649 H 0.46583 0.32878 0.81761 0.0
H650 H 0.48698 0.33985 0.44707 0.0
H651 H 0.40406 0.32138 0.76682 0.0
H652 H 0.47186 0.32705 0.68172 0.0
H653 H 0.41332 0.3169 0.53062 0.0
C654 C 0.43442 0.32534 0.43509 0.0
C655 C 0.45537 0.33237 0.41 0.0
C656 C 0.45689 0.32559 0.70035 0.0
C657 C 0.44549 0.32517 0.56485 0.0
C658 C 0.45338 0.32639 0.778 0.0
C659 C 0.43448 0.32539 0.80352 0.0
C660 C 0.44135 0.32367 0.64788 0.0
C661 C 0.41899 0.32255 0.74946 0.0
C662 C 0.42944 0.32178 0.5123 0.0
C663 C 0.47074 0.33484 0.46405 0.0
N664 N 0.42281 0.32193 0.67428 0.0
N665 N 0.46553 0.33135 0.53885 0.0
H666 H 0.0924 0.43358 0.55564 0.0
H667 H 0.12716 0.42203 0.97699 0.0
H668 H 0.14892 0.4301 0.60815 0.0
H669 H 0.07728 0.43661 0.92814 0.0
H670 H 0.13107 0.41817 0.84106 0.0
H671 H 0.08268 0.42831 0.69035 0.0
C672 C 0.10261 0.43141 0.59527 0.0
C673 C 0.12164 0.43252 0.57063 0.0
C674 C 0.1191 0.42199 0.86011 0.0
C675 C 0.11068 0.42659 0.72498 0.0
C676 C 0.11673 0.42401 0.93789 0.0
C677 C 0.10204 0.42992 0.96414 0.0
C678 C 0.10663 0.42581 0.80803 0.0
C679 C 0.08907 0.43242 0.91041 0.0
C680 C 0.09712 0.42853 0.67226 0.0
C681 C 0.13433 0.42976 0.62478 0.0
N682 N 0.09179 0.43053 0.835 0.0
N683 N 0.12869 0.42703 0.69928 0.0
H684 H 0.69289 0.10105 0.77946 0.0
H685 H 0.69489 0.14374 0.20072 0.0
H686 H 0.69099 0.15863 0.83089 0.0
H687 H 0.68801 0.08185 0.15117 0.0
H688 H 0.69982 0.1523 0.0655 0.0
H689 H 0.69751 0.09671 0.91495 0.0
C690 C 0.69387 0.11299 0.81912 0.0
C691 C 0.69133 0.1301 0.79413 0.0
C692 C 0.6974 0.13691 0.08426 0.0
C693 C 0.69635 0.12516 0.94901 0.0
C694 C 0.69473 0.13206 0.16165 0.0
C695 C 0.69078 0.11193 0.18743 0.0
C696 C 0.69617 0.12155 0.0321 0.0
C697 C 0.69058 0.09739 0.13375 0.0
C698 C 0.69633 0.11044 0.89647 0.0
C699 C 0.69252 0.14502 0.84801 0.0
N700 N 0.69307 0.10242 0.05868 0.0
N701 N 0.69478 0.14213 0.92285 0.0
H702 H 0.55804 0.69175 0.36832 0.0
H703 H 0.60147 0.69573 0.94659 0.0
H704 H 0.61843 0.69578 0.31843 0.0
H705 H 0.53746 0.68201 0.99844 0.0
H706 H 0.61045 0.70222 0.08173 0.0
H707 H 0.55282 0.69466 0.23262 0.0
C708 C 0.57038 0.69363 0.329 0.0
C709 C 0.58861 0.6933 0.35474 0.0
C710 C 0.59449 0.698 0.06341 0.0
C711 C 0.58263 0.69638 0.19913 0.0
C712 C 0.58942 0.69445 0.98622 0.0
C713 C 0.56862 0.68809 0.96139 0.0
C714 C 0.57867 0.69529 0.11604 0.0
C715 C 0.55357 0.68649 0.01537 0.0
C716 C 0.56732 0.69513 0.25141 0.0
C717 C 0.60398 0.69558 0.30093 0.0
N718 N 0.55884 0.68992 0.09007 0.0
N719 N 0.60058 0.69687 0.22574 0.0
H720 H 0.51223 0.11345 0.27347 0.0
H721 H 0.63522 0.1773 0.37129 0.0
H722 H 0.55047 0.17456 0.1621 0.0
H723 H 0.60031 0.10963 0.31754 0.0
H724 H 0.60499 0.18049 0.32069 0.0
H725 H 0.54471 0.116 0.32479 0.0
C726 C 0.52748 0.1275 0.26003 0.0
C727 C 0.52865 0.14353 0.21153 0.0
C728 C 0.60418 0.16505 0.32008 0.0
C729 C 0.56599 0.14667 0.27166 0.0
C730 C 0.62139 0.1632 0.34853 0.0
C731 C 0.62014 0.14303 0.35076 0.0
C732 C 0.58563 0.14656 0.29506 0.0
C733 C 0.6018 0.12535 0.32008 0.0
C734 C 0.546 0.12893 0.2895 0.0
C735 C 0.54888 0.16175 0.19863 0.0
N736 N 0.58524 0.12747 0.29484 0.0
N737 N 0.5669 0.16278 0.22805 0.0
H738 H 0.4086 0.55468 0.24657 0.0
H739 H 0.47341 0.60559 0.6262 0.0
H740 H 0.38463 0.52783 0.46798 0.0
H741 H 0.48937 0.64053 0.41515 0.0
H742 H 0.43991 0.5778 0.57015 0.0
H743 H 0.43729 0.587 0.30681 0.0
C744 C 0.40924 0.55571 0.30791 0.0
C745 C 0.39427 0.53847 0.35233 0.0
C746 C 0.45055 0.59166 0.53623 0.0
C747 C 0.4272 0.57534 0.4217 0.0
C748 C 0.46968 0.6075 0.56822 0.0
C749 C 0.48418 0.62529 0.52506 0.0
C750 C 0.446 0.59338 0.45994 0.0
C751 C 0.47856 0.62708 0.45035 0.0
C752 C 0.42558 0.57419 0.34225 0.0
C753 C 0.39575 0.54075 0.43152 0.0
N754 N 0.46004 0.61114 0.41972 0.0
N755 N 0.41209 0.55869 0.46363 0.0
H756 H 0.89126 0.39325 0.64845 0.0
H757 H 0.83227 0.46233 0.66778 0.0
H758 H 0.83995 0.38213 0.49639 0.0
H759 H 0.8926 0.47947 0.77495 0.0
H760 H 0.83042 0.42937 0.62035 0.0
H761 H 0.88681 0.42063 0.71352 0.0
C762 C 0.87889 0.39648 0.62922 0.0
C763 C 0.86618 0.38566 0.56621 0.0
C764 C 0.84388 0.4403 0.65511 0.0
C765 C 0.86106 0.41723 0.64029 0.0
C766 C 0.84503 0.4592 0.68204 0.0
C767 C 0.86263 0.47395 0.72584 0.0
C768 C 0.86036 0.436 0.67248 0.0
C769 C 0.87845 0.46864 0.74309 0.0
C770 C 0.87637 0.41215 0.66633 0.0
C771 C 0.85012 0.39019 0.54462 0.0
N772 N 0.87694 0.45026 0.71625 0.0
N773 N 0.84818 0.40587 0.58102 0.0
H774 H 0.3829 0.8418 0.83883 0.0
H775 H 0.48157 0.89232 0.54928 0.0
H776 H 0.39897 0.8956 0.69115 0.0
H777 H 0.46731 0.83819 0.69348 0.0
H778 H 0.4487 0.89058 0.59089 0.0
H779 H 0.41093 0.83715 0.77745 0.0
C780 C 0.39209 0.8524 0.79275 0.0
C781 C 0.38883 0.86929 0.77071 0.0
C782 C 0.4526 0.87892 0.61308 0.0
C783 C 0.4209 0.86421 0.70076 0.0
C784 C 0.47137 0.87976 0.58864 0.0
C785 C 0.47741 0.86538 0.61775 0.0
C786 C 0.43967 0.86374 0.66783 0.0
C787 C 0.46356 0.84984 0.67023 0.0
C788 C 0.40815 0.84983 0.75804 0.0
C789 C 0.40122 0.88261 0.71089 0.0
N790 N 0.44545 0.84954 0.69404 0.0
N791 N 0.41676 0.87989 0.67853 0.0
H792 H 0.55499 0.38246 1.00328 0.0
H793 H 0.60175 0.48253 0.72147 0.0
H794 H 0.51679 0.39931 0.86255 0.0
H795 H 0.64263 0.46334 0.83463 0.0
H796 H 0.57076 0.45014 0.766 0.0
H797 H 0.58733 0.40972 0.93678 0.0
C798 C 0.5534 0.39164 0.9576 0.0
C799 C 0.53326 0.38889 0.93912 0.0
C800 C 0.58647 0.4528 0.78063 0.0
C801 C 0.56997 0.42005 0.86351 0.0
C802 C 0.60438 0.47135 0.75428 0.0
C803 C 0.62515 0.47592 0.77362 0.0
C804 C 0.58903 0.4386 0.82817 0.0
C805 C 0.62705 0.46081 0.8189 0.0
C806 C 0.57182 0.40724 0.91995 0.0
C807 C 0.53205 0.4012 0.87964 0.0
N808 N 0.60924 0.44294 0.84524 0.0
N809 N 0.5501 0.4163 0.84462 0.0
H810 H 0.18618 0.54907 0.1579 0.0
H811 H 0.12689 0.61786 0.13653 0.0
H812 H 0.1253 0.53144 0.26188 0.0
H813 H 0.17906 0.6298 0.98741 0.0
H814 H 0.13115 0.59033 0.20137 0.0
H815 H 0.18813 0.58213 0.11081 0.0
C816 C 0.17331 0.55211 0.17153 0.0
C817 C 0.15554 0.53721 0.21439 0.0
C818 C 0.14182 0.59902 0.15488 0.0
C819 C 0.15794 0.57527 0.16144 0.0
C820 C 0.13941 0.61478 0.11792 0.0
C821 C 0.15242 0.62588 0.05579 0.0
C822 C 0.15733 0.59411 0.12954 0.0
C823 C 0.16866 0.62153 0.03495 0.0
C824 C 0.17452 0.57107 0.1448 0.0
C825 C 0.13959 0.5424 0.23082 0.0
N826 N 0.17049 0.60575 0.07115 0.0
N827 N 0.14117 0.56083 0.20423 0.0
H828 H 0.39344 0.05659 0.86673 0.0
H829 H 0.34655 0.96084 0.1218 0.0
H830 H 0.37959 0.06499 0.09766 0.0
H831 H 0.32226 0.95252 0.89381 0.0
H832 H 0.35566 0.9985 0.11776 0.0
H833 H 0.36485 0.01897 0.87226 0.0
C834 C 0.38377 0.0507 0.91763 0.0
C835 C 0.38891 0.06387 0.98187 0.0
C836 C 0.34765 0.98829 0.06949 0.0
C837 C 0.35695 0.0206 0.98998 0.0
C838 C 0.34235 0.96676 0.07196 0.0
C839 C 0.33373 0.95361 0.00797 0.0
C840 C 0.34512 0.99692 1.00143 0.0
C841 C 0.32893 0.96214 0.94431 0.0
C842 C 0.36751 0.0292 0.92093 0.0
C843 C 0.37614 0.05537 0.04688 0.0
N844 N 0.33538 0.98349 0.94159 0.0
N845 N 0.36123 0.03405 0.05024 0.0
H846 H 0.40315 0.35396 0.2973 0.0
H847 H 0.35102 0.39832 0.03863 0.0
H848 H 0.38509 0.32812 0.07175 0.0
H849 H 0.33392 0.38915 0.27527 0.0
H850 H 0.36098 0.37045 0.04755 0.0
H851 H 0.37554 0.3642 0.29404 0.0
C852 C 0.39278 0.34971 0.24818 0.0
C853 C 0.39642 0.34024 0.18467 0.0
C854 C 0.35435 0.37397 0.09696 0.0
C855 C 0.36556 0.35288 0.17894 0.0
C856 C 0.3486 0.38981 0.09176 0.0
C857 C 0.34148 0.39585 0.15612 0.0
C858 C 0.35382 0.36477 0.1678 0.0
C859 C 0.33908 0.38472 0.22413 0.0
C860 C 0.3771 0.35566 0.24613 0.0
C861 C 0.38279 0.33539 0.12192 0.0
N862 N 0.34584 0.37014 0.22881 0.0
N863 N 0.36841 0.3424 0.11959 0.0
H864 H 0.05986 0.38357 0.40652 0.0
H865 H 0.95415 0.34906 0.19035 0.0
H866 H 0.05788 0.38868 0.16383 0.0
H867 H 0.95412 0.32361 0.41144 0.0
H868 H 0.99141 0.35837 0.17322 0.0
H869 H 0.02156 0.3568 0.40636 0.0
C870 C 0.05151 0.37827 0.35285 0.0
C871 C 0.06202 0.38798 0.28495 0.0
C872 C 0.98317 0.35017 0.22469 0.0
C873 C 0.01802 0.35828 0.28443 0.0
C874 C 0.96181 0.3447 0.23416 0.0
C875 C 0.95108 0.33554 0.30229 0.0
C876 C 0.99415 0.34717 0.28498 0.0
C877 C 0.96182 0.33056 0.35787 0.0
C878 C 0.0296 0.36314 0.35273 0.0
C879 C 0.05038 0.38121 0.21716 0.0
N880 N 0.98296 0.33698 0.34891 0.0
N881 N 0.02891 0.36712 0.21872 0.0
H882 H 0.62733 0.9594 0.39988 0.0
H883 H 0.66847 0.05475 0.67545 0.0
H884 H 0.62979 0.95038 0.64024 0.0
H885 H 0.69087 0.06408 0.44454 0.0
H886 H 0.65872 0.01699 0.66724 0.0
H887 H 0.65462 0.9973 0.41436 0.0
C888 C 0.63435 0.96526 0.45527 0.0
C889 C 0.62659 0.95175 0.51879 0.0
C890 C 0.6664 0.02737 0.619 0.0
C891 C 0.65695 0.99535 0.53668 0.0
C892 C 0.67209 0.04899 0.6239 0.0
C893 C 0.68052 0.06253 0.56067 0.0
C894 C 0.66843 0.01904 0.54942 0.0
C895 C 0.68455 0.0542 0.49478 0.0
C896 C 0.64982 0.98694 0.4637 0.0
C897 C 0.63569 0.96022 0.5897 0.0
N898 N 0.67791 0.03283 0.4901 0.0
N899 N 0.64999 0.98161 0.59709 0.0
H900 H 0.63794 0.69178 0.62288 0.0
H901 H 0.6866 0.62695 0.8306 0.0
H902 H 0.61987 0.66422 0.8464 0.0
H903 H 0.67849 0.62777 0.58894 0.0
H904 H 0.6755 0.65399 0.84477 0.0
H905 H 0.66594 0.68186 0.62002 0.0
C906 C 0.6405 0.68453 0.67266 0.0
C907 C 0.62653 0.67867 0.73483 0.0
C908 C 0.67693 0.64883 0.78844 0.0
C909 C 0.65833 0.66725 0.73184 0.0
C910 C 0.6835 0.63362 0.78031 0.0
C911 C 0.68362 0.62537 0.70845 0.0
C912 C 0.67062 0.65585 0.72413 0.0
C913 C 0.67877 0.63396 0.64519 0.0
C914 C 0.65632 0.67868 0.67069 0.0
C915 C 0.6303 0.66895 0.79736 0.0
N916 N 0.67226 0.64859 0.65448 0.0
N917 N 0.64567 0.66331 0.79399 0.0
H918 H 0.06252 0.66184 0.68503 0.0
H919 H 0.96004 0.62692 0.91808 0.0
H920 H 0.06545 0.68857 0.90616 0.0
H921 H 0.95863 0.6235 0.67431 0.0
H922 H 0.9982 0.65395 0.91278 0.0
H923 H 0.02513 0.65263 0.67404 0.0
C924 C 0.05546 0.66649 0.73011 0.0
C925 C 0.06703 0.67594 0.79656 0.0
C926 C 0.98944 0.64793 0.8602 0.0
C927 C 0.02388 0.66447 0.78627 0.0
C928 C 0.96762 0.63262 0.8633 0.0
C929 C 0.95621 0.62331 0.79649 0.0
C930 C 1.00005 0.65332 0.78983 0.0
C931 C 0.96686 0.63064 0.72697 0.0
C932 C 0.03404 0.6611 0.72412 0.0
C933 C 0.05707 0.68135 0.85386 0.0
N934 N 0.9883 0.64486 0.72545 0.0
N935 N 0.03586 0.67497 0.84838 0.0
loop_
_geom_bond_atom_site_label_1
_geom_bond_atom_site_label_2
_geom_bond_distance
_geom_bond_site_symmetry_2
_ccdc_geom_bond_type
C0 C1 1.351 . S
C0 N3 1.368 . S
C0 H5 0.931 . S
C1 C0 1.351 . S
C1 N2 1.373 . S
C1 H29 0.930 . S
N2 C1 1.373 . S
N2 C4 1.340 . S
N3 C0 1.368 . S
N3 C4 1.321 . S
N3 Co6 2.135 . S
C4 N2 1.340 . S
C4 N3 1.321 . S
C4 H28 0.930 . S
H5 C0 0.931 . S
Co6 N3 2.135 . S
Co6 N9 2.121 1_554 S
Co6 O14 2.055 . S
Co6 O17 2.039 . S
Co6 N20 2.140 . S
C7 O8 1.227 . S
C7 O17 1.265 . S
O8 C7 1.227 . S
N9 Co6 2.121 1_556 S
N9 C11 1.375 . S
N9 C12 1.313 . S
C10 C11 1.338 . S
C10 N13 1.377 . S
C10 H30 0.930 . S
C11 N9 1.375 . S
C11 C10 1.338 . S
C11 H15 0.931 . S
C12 N9 1.313 . S
C12 N13 1.344 . S
C12 H16 0.930 . S
N13 C10 1.377 . S
N13 C12 1.344 . S
O14 Co6 2.055 . S
O14 C18 1.253 . S
H15 C11 0.931 . S
H16 C12 0.930 . S
O17 Co6 2.039 . S
O17 C7 1.265 . S
C18 O14 1.253 . S
C18 O19 1.227 . S
O19 C18 1.227 . S
N20 Co6 2.140 . S
N20 C23 1.346 . S
N20 C24 1.345 . S
C21 C22 1.387 . S
C21 C25 1.391 . S
C22 C21 1.387 . S
C22 C23 1.369 . S
C22 H31 0.929 . S
C23 N20 1.346 . S
C23 C22 1.369 . S
C23 H26 0.928 . S
C24 N20 1.345 . S
C24 C25 1.371 . S
C24 H27 0.931 . S
C25 C21 1.391 . S
C25 C24 1.371 . S
C25 H32 0.930 . S
H26 C23 0.928 . S
H27 C24 0.931 . S
H28 C4 0.930 . S
H29 C1 0.930 . S
H30 C10 0.930 . S
H31 C22 0.929 . S
H32 C25 0.930 . S
C33 C34 1.351 . S
C33 N36 1.368 . S
C33 H38 0.931 . S
C34 C33 1.351 . S
C34 N35 1.373 . S
C34 H62 0.930 . S
N35 C34 1.373 . S
N35 C37 1.340 . S
N36 C33 1.368 . S
N36 C37 1.321 . S
N36 Co39 2.135 . S
C37 N35 1.340 . S
C37 N36 1.321 . S
C37 H61 0.930 . S
H38 C33 0.931 . S
Co39 N36 2.135 . S
Co39 N42 2.121 . S
Co39 O47 2.055 . S
Co39 O50 2.039 . S
Co39 N53 2.140 . S
C40 O41 1.227 . S
C40 O50 1.265 . S
O41 C40 1.227 . S
N42 Co39 2.121 . S
N42 C44 1.375 . S
N42 C45 1.313 . S
C43 C44 1.338 . S
C43 N46 1.377 . S
C43 H63 0.930 . S
C44 N42 1.375 . S
C44 C43 1.338 . S
C44 H48 0.931 . S
C45 N42 1.313 . S
C45 N46 1.344 . S
C45 H49 0.930 . S
N46 C43 1.377 . S
N46 C45 1.344 . S
O47 Co39 2.055 . S
O47 C51 1.253 . S
H48 C44 0.931 . S
H49 C45 0.930 . S
O50 Co39 2.039 . S
O50 C40 1.265 . S
C51 O47 1.253 . S
C51 O52 1.227 . S
O52 C51 1.227 . S
N53 Co39 2.140 . S
N53 C56 1.346 . S
N53 C57 1.345 . S
C54 C55 1.387 . S
C54 C58 1.391 . S
C55 C54 1.387 . S
C55 C56 1.369 . S
C55 H64 0.929 . S
C56 N53 1.346 . S
C56 C55 1.369 . S
C56 H59 0.928 . S
C57 N53 1.345 . S
C57 C58 1.371 . S
C57 H60 0.931 . S
C58 C54 1.391 . S
C58 C57 1.371 . S
C58 H65 0.930 . S
H59 C56 0.928 . S
H60 C57 0.931 . S
H61 C37 0.930 . S
H62 C34 0.930 . S
H63 C43 0.930 . S
H64 C55 0.929 . S
H65 C58 0.930 . S
C66 C67 1.351 . S
C66 N69 1.368 . S
C66 H71 0.931 . S
C67 C66 1.351 . S
C67 N68 1.373 . S
C67 H95 0.930 . S
N68 C67 1.373 . S
N68 C70 1.340 . S
N69 C66 1.368 . S
N69 C70 1.321 . S
N69 Co72 2.135 . S
C70 N68 1.340 . S
C70 N69 1.321 . S
C70 H94 0.930 . S
H71 C66 0.931 . S
Co72 N69 2.135 . S
Co72 N75 2.121 . S
Co72 O80 2.055 . S
Co72 O83 2.039 . S
Co72 N86 2.140 . S
C73 O74 1.227 . S
C73 O83 1.265 . S
O74 C73 1.227 . S
N75 Co72 2.121 . S
N75 C77 1.375 . S
N75 C78 1.313 . S
C76 C77 1.338 . S
C76 N79 1.377 . S
C76 H96 0.930 . S
C77 N75 1.375 . S
C77 C76 1.338 . S
C77 H81 0.931 . S
C78 N75 1.313 . S
C78 N79 1.344 . S
C78 H82 0.930 . S
N79 C76 1.377 . S
N79 C78 1.344 . S
O80 Co72 2.055 . S
O80 C84 1.253 . S
H81 C77 0.931 . S
H82 C78 0.930 . S
O83 Co72 2.039 . S
O83 C73 1.265 . S
C84 O80 1.253 . S
C84 O85 1.227 . S
O85 C84 1.227 . S
N86 Co72 2.140 . S
N86 C89 1.346 . S
N86 C90 1.345 . S
C87 C88 1.387 . S
C87 C91 1.391 . S
C88 C87 1.387 . S
C88 C89 1.369 . S
C88 H97 0.929 . S
C89 N86 1.346 . S
C89 C88 1.369 . S
C89 H92 0.928 . S
C90 N86 1.345 . S
C90 C91 1.371 . S
C90 H93 0.931 . S
C91 C87 1.391 . S
C91 C90 1.371 . S
C91 H98 0.930 . S
H92 C89 0.928 . S
H93 C90 0.931 . S
H94 C70 0.930 . S
H95 C67 0.930 . S
H96 C76 0.930 . S
H97 C88 0.929 . S
H98 C91 0.930 . S
C99 C100 1.351 . S
C99 N102 1.368 . S
C99 H104 0.931 . S
C100 C99 1.351 . S
C100 N101 1.373 . S
C100 H128 0.930 . S
N101 C100 1.373 . S
N101 C103 1.340 . S
N102 C99 1.368 . S
N102 C103 1.321 . S
N102 Co105 2.135 . S
C103 N101 1.340 . S
C103 N102 1.321 . S
C103 H127 0.930 . S
H104 C99 0.931 . S
Co105 N102 2.135 . S
Co105 N108 2.121 . S
Co105 O113 2.055 . S
Co105 O116 2.039 . S
Co105 N119 2.140 . S
C106 O107 1.227 . S
C106 O116 1.265 . S
O107 C106 1.227 . S
N108 Co105 2.121 . S
N108 C110 1.375 . S
N108 C111 1.313 . S
C109 C110 1.338 . S
C109 N112 1.377 . S
C109 H129 0.930 . S
C110 N108 1.375 . S
C110 C109 1.338 . S
C110 H114 0.931 . S
C111 N108 1.313 . S
C111 N112 1.344 . S
C111 H115 0.930 . S
N112 C109 1.377 . S
N112 C111 1.344 . S
O113 Co105 2.055 . S
O113 C117 1.253 . S
H114 C110 0.931 . S
H115 C111 0.930 . S
O116 Co105 2.039 . S
O116 C106 1.265 . S
C117 O113 1.253 . S
C117 O118 1.227 . S
O118 C117 1.227 . S
N119 Co105 2.140 . S
N119 C122 1.346 . S
N119 C123 1.345 . S
C120 C121 1.387 . S
C120 C124 1.391 . S
C121 C120 1.387 . S
C121 C122 1.369 . S
C121 H130 0.929 . S
C122 N119 1.346 . S
C122 C121 1.369 . S
C122 H125 0.928 . S
C123 N119 1.345 . S
C123 C124 1.371 . S
C123 H126 0.931 . S
C124 C120 1.391 . S
C124 C123 1.371 . S
C124 H131 0.930 . S
H125 C122 0.928 . S
H126 C123 0.931 . S
H127 C103 0.930 . S
H128 C100 0.930 . S
H129 C109 0.930 . S
H130 C121 0.929 . S
H131 C124 0.930 . S
C132 C133 1.351 1_556 S
C132 N135 1.368 . S
C132 H137 0.931 . S
C133 C132 1.351 1_554 S
C133 N134 1.373 . S
C133 H161 0.930 . S
N134 C133 1.373 . S
N134 C136 1.340 1_554 S
N135 C132 1.368 . S
N135 C136 1.321 . S
N135 Co138 2.135 . S
C136 N134 1.340 1_556 S
C136 N135 1.321 . S
C136 H160 0.930 . S
H137 C132 0.931 . S
Co138 N135 2.135 . S
Co138 N141 2.121 . S
Co138 O146 2.055 . S
Co138 O149 2.039 . S
Co138 N152 2.140 . S
C139 O140 1.227 . S
C139 O149 1.265 . S
O140 C139 1.227 . S
N141 Co138 2.121 . S
N141 C143 1.375 . S
N141 C144 1.313 . S
C142 C143 1.338 . S
C142 N145 1.377 . S
C142 H162 0.930 . S
C143 N141 1.375 . S
C143 C142 1.338 . S
C143 H147 0.931 . S
C144 N141 1.313 . S
C144 N145 1.344 . S
C144 H148 0.930 . S
N145 C142 1.377 . S
N145 C144 1.344 . S
O146 Co138 2.055 . S
O146 C150 1.253 . S
H147 C143 0.931 . S
H148 C144 0.930 . S
O149 Co138 2.039 . S
O149 C139 1.265 . S
C150 O146 1.253 . S
C150 O151 1.227 . S
O151 C150 1.227 . S
N152 Co138 2.140 . S
N152 C155 1.346 . S
N152 C156 1.345 . S
C153 C154 1.387 . S
C153 C157 1.391 . S
C154 C153 1.387 . S
C154 C155 1.369 . S
C154 H163 0.929 . S
C155 N152 1.346 . S
C155 C154 1.369 . S
C155 H158 0.928 . S
C156 N152 1.345 . S
C156 C157 1.371 . S
C156 H159 0.931 . S
C157 C153 1.391 . S
C157 C156 1.371 . S
C157 H164 0.930 . S
H158 C155 0.928 . S
H159 C156 0.931 . S
H160 C136 0.930 . S
H161 C133 0.930 . S
H162 C142 0.930 . S
H163 C154 0.929 . S
H164 C157 0.930 . S
C165 C166 1.351 . S
C165 N168 1.368 . S
C165 H170 0.931 . S
C166 C165 1.351 . S
C166 N167 1.373 . S
C166 H194 0.930 . S
N167 C166 1.373 . S
N167 C169 1.340 . S
N168 C165 1.368 . S
N168 C169 1.321 . S
N168 Co171 2.135 1_554 S
C169 N167 1.340 . S
C169 N168 1.321 . S
C169 H193 0.930 . S
H170 C165 0.931 . S
Co171 N168 2.135 1_556 S
Co171 N174 2.121 . S
Co171 O179 2.055 . S
Co171 O182 2.039 . S
Co171 N185 2.140 . S
C172 O173 1.227 . S
C172 O182 1.265 . S
O173 C172 1.227 . S
N174 Co171 2.121 . S
N174 C176 1.375 . S
N174 C177 1.313 . S
C175 C176 1.338 . S
C175 N178 1.377 . S
C175 H195 0.930 . S
C176 N174 1.375 . S
C176 C175 1.338 . S
C176 H180 0.931 . S
C177 N174 1.313 . S
C177 N178 1.344 . S
C177 H181 0.930 . S
N178 C175 1.377 . S
N178 C177 1.344 . S
O179 Co171 2.055 . S
O179 C183 1.253 . S
H180 C176 0.931 . S
H181 C177 0.930 . S
O182 Co171 2.039 . S
O182 C172 1.265 . S
C183 O179 1.253 . S
C183 O184 1.227 . S
O184 C183 1.227 . S
N185 Co171 2.140 . S
N185 C188 1.346 1_556 S
N185 C189 1.345 . S
C186 C187 1.387 1_556 S
C186 C190 1.391 . S
C187 C186 1.387 1_554 S
C187 C188 1.369 . S
C187 H196 0.929 . S
C188 N185 1.346 1_554 S
C188 C187 1.369 . S
C188 H191 0.928 . S
C189 N185 1.345 . S
C189 C190 1.371 . S
C189 H192 0.931 . S
C190 C186 1.391 . S
C190 C189 1.371 . S
C190 H197 0.930 . S
H191 C188 0.928 . S
H192 C189 0.931 . S
H193 C169 0.930 . S
H194 C166 0.930 . S
H195 C175 0.930 . S
H196 C187 0.929 . S
H197 C190 0.930 . S
C198 C199 1.351 . S
C198 N201 1.368 . S
C198 H203 0.931 . S
C199 C198 1.351 . S
C199 N200 1.373 . S
C199 H227 0.930 . S
N200 C199 1.373 . S
N200 C202 1.340 . S
N201 C198 1.368 . S
N201 C202 1.321 . S
N201 Co204 2.135 . S
C202 N200 1.340 . S
C202 N201 1.321 . S
C202 H226 0.930 . S
H203 C198 0.931 . S
Co204 N201 2.135 . S
Co204 N207 2.121 . S
Co204 O212 2.055 . S
Co204 O215 2.039 . S
Co204 N218 2.140 . S
C205 O206 1.227 . S
C205 O215 1.265 . S
O206 C205 1.227 . S
N207 Co204 2.121 . S
N207 C209 1.375 . S
N207 C210 1.313 . S
C208 C209 1.338 . S
C208 N211 1.377 . S
C208 H228 0.930 . S
C209 N207 1.375 . S
C209 C208 1.338 . S
C209 H213 0.931 . S
C210 N207 1.313 . S
C210 N211 1.344 . S
C210 H214 0.930 . S
N211 C208 1.377 . S
N211 C210 1.344 . S
O212 Co204 2.055 . S
O212 C216 1.253 . S
H213 C209 0.931 . S
H214 C210 0.930 . S
O215 Co204 2.039 . S
O215 C205 1.265 . S
C216 O212 1.253 . S
C216 O217 1.227 . S
O217 C216 1.227 . S
N218 Co204 2.140 . S
N218 C221 1.346 . S
N218 C222 1.345 . S
C219 C220 1.387 . S
C219 C223 1.391 . S
C220 C219 1.387 . S
C220 C221 1.369 . S
C220 H229 0.929 . S
C221 N218 1.346 . S
C221 C220 1.369 . S
C221 H224 0.928 . S
C222 N218 1.345 . S
C222 C223 1.371 . S
C222 H225 0.931 . S
C223 C219 1.391 . S
C223 C222 1.371 . S
C223 H230 0.930 . S
H224 C221 0.928 . S
H225 C222 0.931 . S
H226 C202 0.930 . S
H227 C199 0.930 . S
H228 C208 0.930 . S
H229 C220 0.929 . S
H230 C223 0.930 . S
C231 C232 1.351 . S
C231 N234 1.368 . S
C231 H236 0.931 . S
C232 C231 1.351 . S
C232 N233 1.373 . S
C232 H260 0.930 . S
N233 C232 1.373 . S
N233 C235 1.340 . S
N234 C231 1.368 . S
N234 C235 1.321 . S
N234 Co237 2.135 . S
C235 N233 1.340 . S
C235 N234 1.321 . S
C235 H259 0.930 . S
H236 C231 0.931 . S
Co237 N234 2.135 . S
Co237 N240 2.121 1_556 S
Co237 O245 2.055 . S
Co237 O248 2.039 . S
Co237 N251 2.140 . S
C238 O239 1.227 . S
C238 O248 1.265 . S
O239 C238 1.227 . S
N240 Co237 2.121 1_554 S
N240 C242 1.375 . S
N240 C243 1.313 . S
C241 C242 1.338 . S
C241 N244 1.377 . S
C241 H261 0.930 . S
C242 N240 1.375 . S
C242 C241 1.338 . S
C242 H246 0.931 . S
C243 N240 1.313 . S
C243 N244 1.344 . S
C243 H247 0.930 . S
N244 C241 1.377 . S
N244 C243 1.344 . S
O245 Co237 2.055 . S
O245 C249 1.253 . S
H246 C242 0.931 . S
H247 C243 0.930 . S
O248 Co237 2.039 . S
O248 C238 1.265 . S
C249 O245 1.253 . S
C249 O250 1.227 . S
O250 C249 1.227 . S
N251 Co237 2.140 . S
N251 C254 1.346 . S
N251 C255 1.345 . S
C252 C253 1.387 . S
C252 C256 1.391 . S
C253 C252 1.387 . S
C253 C254 1.369 . S
C253 H262 0.929 . S
C254 N251 1.346 . S
C254 C253 1.369 . S
C254 H257 0.928 . S
C255 N251 1.345 . S
C255 C256 1.371 . S
C255 H258 0.931 . S
C256 C252 1.391 . S
C256 C255 1.371 . S
C256 H263 0.930 . S
H257 C254 0.928 . S
H258 C255 0.931 . S
H259 C235 0.930 . S
H260 C232 0.930 . S
H261 C241 0.930 . S
H262 C253 0.929 . S
H263 C256 0.930 . S
C264 C265 1.351 . S
C264 N267 1.368 . S
C264 H269 0.931 . S
C265 C264 1.351 . S
C265 N266 1.373 . S
C265 H293 0.930 . S
N266 C265 1.373 . S
N266 C268 1.340 . S
N267 C264 1.368 . S
N267 C268 1.321 . S
N267 Co270 2.135 1_556 S
C268 N266 1.340 . S
C268 N267 1.321 . S
C268 H292 0.930 . S
H269 C264 0.931 . S
Co270 N267 2.135 1_554 S
Co270 N273 2.121 . S
Co270 O278 2.055 . S
Co270 O281 2.039 . S
Co270 N284 2.140 . S
C271 O272 1.227 . S
C271 O281 1.265 . S
O272 C271 1.227 . S
N273 Co270 2.121 . S
N273 C275 1.375 . S
N273 C276 1.313 . S
C274 C275 1.338 . S
C274 N277 1.377 . S
C274 H294 0.930 . S
C275 N273 1.375 . S
C275 C274 1.338 . S
C275 H279 0.931 . S
C276 N273 1.313 . S
C276 N277 1.344 . S
C276 H280 0.930 . S
N277 C274 1.377 . S
N277 C276 1.344 . S
O278 Co270 2.055 . S
O278 C282 1.253 . S
H279 C275 0.931 . S
H280 C276 0.930 . S
O281 Co270 2.039 . S
O281 C271 1.265 . S
C282 O278 1.253 . S
C282 O283 1.227 . S
O283 C282 1.227 . S
N284 Co270 2.140 . S
N284 C287 1.346 1_554 S
N284 C288 1.345 . S
C285 C286 1.387 1_554 S
C285 C289 1.391 . S
C286 C285 1.387 1_556 S
C286 C287 1.369 . S
C286 H295 0.929 . S
C287 N284 1.346 1_556 S
C287 C286 1.369 . S
C287 H290 0.928 . S
C288 N284 1.345 . S
C288 C289 1.371 . S
C288 H291 0.931 . S
C289 C285 1.391 . S
C289 C288 1.371 . S
C289 H296 0.930 . S
H290 C287 0.928 . S
H291 C288 0.931 . S
H292 C268 0.930 . S
H293 C265 0.930 . S
H294 C274 0.930 . S
H295 C286 0.929 . S
H296 C289 0.930 . S
C297 C298 1.351 1_554 S
C297 N300 1.368 . S
C297 H302 0.931 . S
C298 C297 1.351 1_556 S
C298 N299 1.373 . S
C298 H326 0.930 . S
N299 C298 1.373 . S
N299 C301 1.340 1_556 S
N300 C297 1.368 . S
N300 C301 1.321 . S
N300 Co303 2.135 . S
C301 N299 1.340 1_554 S
C301 N300 1.321 . S
C301 H325 0.930 . S
H302 C297 0.931 . S
Co303 N300 2.135 . S
Co303 N306 2.121 . S
Co303 O311 2.055 . S
Co303 O314 2.039 . S
Co303 N317 2.140 . S
C304 O305 1.227 . S
C304 O314 1.265 . S
O305 C304 1.227 . S
N306 Co303 2.121 . S
N306 C308 1.375 . S
N306 C309 1.313 . S
C307 C308 1.338 . S
C307 N310 1.377 . S
C307 H327 0.930 . S
C308 N306 1.375 . S
C308 C307 1.338 . S
C308 H312 0.931 . S
C309 N306 1.313 . S
C309 N310 1.344 . S
C309 H313 0.930 . S
N310 C307 1.377 . S
N310 C309 1.344 . S
O311 Co303 2.055 . S
O311 C315 1.253 . S
H312 C308 0.931 . S
H313 C309 0.930 . S
O314 Co303 2.039 . S
O314 C304 1.265 . S
C315 O311 1.253 . S
C315 O316 1.227 . S
O316 C315 1.227 . S
N317 Co303 2.140 . S
N317 C320 1.346 . S
N317 C321 1.345 . S
C318 C319 1.387 . S
C318 C322 1.391 . S
C319 C318 1.387 . S
C319 C320 1.369 . S
C319 H328 0.929 . S
C320 N317 1.346 . S
C320 C319 1.369 . S
C320 H323 0.928 . S
C321 N317 1.345 . S
C321 C322 1.371 . S
C321 H324 0.931 . S
C322 C318 1.391 . S
C322 C321 1.371 . S
C322 H329 0.930 . S
H323 C320 0.928 . S
H324 C321 0.931 . S
H325 C301 0.930 . S
H326 C298 0.930 . S
H327 C307 0.930 . S
H328 C319 0.929 . S
H329 C322 0.930 . S
C330 C331 1.351 . S
C330 N333 1.368 . S
C330 H335 0.931 . S
C331 C330 1.351 . S
C331 N332 1.373 . S
C331 H359 0.930 . S
N332 C331 1.373 . S
N332 C334 1.340 . S
N333 C330 1.368 . S
N333 C334 1.321 . S
N333 Co336 2.135 . S
C334 N332 1.340 . S
C334 N333 1.321 . S
C334 H358 0.930 . S
H335 C330 0.931 . S
Co336 N333 2.135 . S
Co336 N339 2.121 . S
Co336 O344 2.055 . S
Co336 O347 2.039 . S
Co336 N350 2.140 . S
C337 O338 1.227 . S
C337 O347 1.265 . S
O338 C337 1.227 . S
N339 Co336 2.121 . S
N339 C341 1.375 . S
N339 C342 1.313 . S
C340 C341 1.338 . S
C340 N343 1.377 . S
C340 H360 0.930 . S
C341 N339 1.375 . S
C341 C340 1.338 . S
C341 H345 0.931 . S
C342 N339 1.313 . S
C342 N343 1.344 . S
C342 H346 0.930 . S
N343 C340 1.377 . S
N343 C342 1.344 . S
O344 Co336 2.055 . S
O344 C348 1.253 . S
H345 C341 0.931 . S
H346 C342 0.930 . S
O347 Co336 2.039 . S
O347 C337 1.265 . S
C348 O344 1.253 . S
C348 O349 1.227 . S
O349 C348 1.227 . S
N350 Co336 2.140 . S
N350 C353 1.346 . S
N350 C354 1.345 . S
C351 C352 1.387 . S
C351 C355 1.391 . S
C352 C351 1.387 . S
C352 C353 1.369 . S
C352 H361 0.929 . S
C353 N350 1.346 . S
C353 C352 1.369 . S
C353 H356 0.928 . S
C354 N350 1.345 . S
C354 C355 1.371 . S
C354 H357 0.931 . S
C355 C351 1.391 . S
C355 C354 1.371 . S
C355 H362 0.930 . S
H356 C353 0.928 . S
H357 C354 0.931 . S
H358 C334 0.930 . S
H359 C331 0.930 . S
H360 C340 0.930 . S
H361 C352 0.929 . S
H362 C355 0.930 . S
C363 C364 1.351 . S
C363 N366 1.368 . S
C363 H368 0.931 . S
C364 C363 1.351 . S
C364 N365 1.373 . S
C364 H392 0.930 . S
N365 C364 1.373 . S
N365 C367 1.340 . S
N366 C363 1.368 . S
N366 C367 1.321 . S
N366 Co369 2.135 . S
C367 N365 1.340 . S
C367 N366 1.321 . S
C367 H391 0.930 . S
H368 C363 0.931 . S
Co369 N366 2.135 . S
Co369 N372 2.121 . S
Co369 O377 2.055 . S
Co369 O380 2.039 . S
Co369 N383 2.140 . S
C370 O371 1.227 . S
C370 O380 1.265 . S
O371 C370 1.227 . S
N372 Co369 2.121 . S
N372 C374 1.375 . S
N372 C375 1.313 . S
C373 C374 1.338 . S
C373 N376 1.377 . S
C373 H393 0.930 . S
C374 N372 1.375 . S
C374 C373 1.338 . S
C374 H378 0.931 . S
C375 N372 1.313 . S
C375 N376 1.344 . S
C375 H379 0.930 . S
N376 C373 1.377 . S
N376 C375 1.344 . S
O377 Co369 2.055 . S
O377 C381 1.253 . S
H378 C374 0.931 . S
H379 C375 0.930 . S
O380 Co369 2.039 . S
O380 C370 1.265 . S
C381 O377 1.253 . S
C381 O382 1.227 . S
O382 C381 1.227 . S
N383 Co369 2.140 . S
N383 C386 1.346 . S
N383 C387 1.345 . S
C384 C385 1.387 . S
C384 C388 1.391 . S
C385 C384 1.387 . S
C385 C386 1.369 . S
C385 H394 0.929 . S
C386 N383 1.346 . S
C386 C385 1.369 . S
C386 H389 0.928 . S
C387 N383 1.345 . S
C387 C388 1.371 . S
C387 H390 0.931 . S
C388 C384 1.391 . S
C388 C387 1.371 . S
C388 H395 0.930 . S
H389 C386 0.928 . S
H390 C387 0.931 . S
H391 C367 0.930 . S
H392 C364 0.930 . S
H393 C373 0.930 . S
H394 C385 0.929 . S
H395 C388 0.930 . S
H396 C402 0.930 . S
H397 C406 0.930 . S
H398 C411 0.929 . S
H399 C409 0.929 . S
H400 C404 0.929 . S
H401 C410 0.928 1_556 S
C402 H396 0.930 . S
C402 C403 1.367 1_556 S
C402 C410 1.378 1_556 S
C403 C402 1.367 1_554 S
C403 C411 1.433 . S
C404 H400 0.929 . S
C404 C406 1.378 . S
C404 C408 1.350 . S
C405 C408 1.463 . S
C405 C410 1.350 . S
C405 N413 1.427 . S
C406 H397 0.930 . S
C406 C404 1.378 . S
C406 C407 1.367 . S
C407 C406 1.367 . S
C407 C409 1.433 . S
C408 C404 1.350 . S
C408 C405 1.463 . S
C408 N412 1.427 . S
C409 H399 0.929 . S
C409 C407 1.433 . S
C409 N412 1.384 . S
C410 H401 0.928 1_554 S
C410 C402 1.378 1_554 S
C410 C405 1.350 . S
C411 H398 0.929 . S
C411 C403 1.433 . S
C411 N413 1.384 . S
N412 C408 1.427 . S
N412 C409 1.384 . S
N413 C405 1.427 . S
N413 C411 1.384 . S
H414 C420 0.930 . S
H415 C424 0.930 . S
H416 C429 0.929 . S
H417 C427 0.929 . S
H418 C422 0.929 . S
H419 C428 0.929 . S
C420 H414 0.930 . S
C420 C421 1.367 . S
C420 C428 1.378 . S
C421 C420 1.367 . S
C421 C429 1.433 . S
C422 H418 0.929 . S
C422 C424 1.378 . S
C422 C426 1.350 . S
C423 C426 1.463 . S
C423 C428 1.350 . S
C423 N431 1.427 . S
C424 H415 0.930 . S
C424 C422 1.378 . S
C424 C425 1.367 . S
C425 C424 1.367 . S
C425 C427 1.433 . S
C426 C422 1.350 . S
C426 C423 1.463 . S
C426 N430 1.427 . S
C427 H417 0.929 . S
C427 C425 1.433 . S
C427 N430 1.384 . S
C428 H419 0.929 . S
C428 C420 1.378 . S
C428 C423 1.350 . S
C429 H416 0.929 . S
C429 C421 1.433 . S
C429 N431 1.384 . S
N430 C426 1.427 . S
N430 C427 1.384 . S
N431 C423 1.427 . S
N431 C429 1.384 . S
H432 C438 0.930 . S
H433 C442 0.930 . S
H434 C447 0.929 . S
H435 C445 0.929 . S
H436 C440 0.929 . S
H437 C446 0.929 . S
C438 H432 0.930 . S
C438 C439 1.367 . S
C438 C446 1.378 . S
C439 C438 1.367 . S
C439 C447 1.433 . S
C440 H436 0.929 . S
C440 C442 1.378 . S
C440 C444 1.350 . S
C441 C444 1.463 . S
C441 C446 1.350 . S
C441 N449 1.427 . S
C442 H433 0.930 . S
C442 C440 1.378 . S
C442 C443 1.367 . S
C443 C442 1.367 . S
C443 C445 1.433 . S
C444 C440 1.350 . S
C444 C441 1.463 . S
C444 N448 1.427 . S
C445 H435 0.929 . S
C445 C443 1.433 . S
C445 N448 1.384 . S
C446 H437 0.929 . S
C446 C438 1.378 . S
C446 C441 1.350 . S
C447 H434 0.929 . S
C447 C439 1.433 . S
C447 N449 1.384 . S
N448 C444 1.427 . S
N448 C445 1.384 . S
N449 C441 1.427 . S
N449 C447 1.384 . S
H450 C456 0.930 . S
H451 C460 0.930 . S
H452 C465 0.929 . S
H453 C463 0.929 . S
H454 C458 0.929 . S
H455 C464 0.929 . S
C456 H450 0.930 . S
C456 C457 1.367 . S
C456 C464 1.378 . S
C457 C456 1.367 . S
C457 C465 1.433 . S
C458 H454 0.929 . S
C458 C460 1.378 . S
C458 C462 1.350 . S
C459 C462 1.463 . S
C459 C464 1.350 . S
C459 N467 1.427 . S
C460 H451 0.930 . S
C460 C458 1.378 . S
C460 C461 1.367 . S
C461 C460 1.367 . S
C461 C463 1.433 . S
C462 C458 1.350 . S
C462 C459 1.463 . S
C462 N466 1.427 . S
C463 H453 0.929 . S
C463 C461 1.433 . S
C463 N466 1.384 . S
C464 H455 0.929 . S
C464 C456 1.378 . S
C464 C459 1.350 . S
C465 H452 0.929 . S
C465 C457 1.433 . S
C465 N467 1.384 . S
N466 C462 1.427 . S
N466 C463 1.384 . S
N467 C459 1.427 . S
N467 C465 1.384 . S
H468 C474 0.930 . S
H469 C478 0.930 . S
H470 C483 0.929 . S
H471 C481 0.929 . S
H472 C476 0.929 . S
H473 C482 0.929 . S
C474 H468 0.930 . S
C474 C475 1.367 . S
C474 C482 1.378 . S
C475 C474 1.367 . S
C475 C483 1.433 . S
C476 H472 0.929 . S
C476 C478 1.378 . S
C476 C480 1.350 . S
C477 C480 1.463 . S
C477 C482 1.350 . S
C477 N485 1.427 . S
C478 H469 0.930 . S
C478 C476 1.378 . S
C478 C479 1.367 . S
C479 C478 1.367 . S
C479 C481 1.433 . S
C480 C476 1.350 . S
C480 C477 1.463 . S
C480 N484 1.427 . S
C481 H471 0.929 . S
C481 C479 1.433 . S
C481 N484 1.384 . S
C482 H473 0.929 . S
C482 C474 1.378 . S
C482 C477 1.350 . S
C483 H470 0.929 . S
C483 C475 1.433 . S
C483 N485 1.384 . S
N484 C480 1.427 . S
N484 C481 1.384 . S
N485 C477 1.427 . S
N485 C483 1.384 . S
H486 C492 0.930 . S
H487 C496 0.930 . S
H488 C501 0.929 . S
H489 C499 0.929 . S
H490 C494 0.929 . S
H491 C500 0.929 . S
C492 H486 0.930 . S
C492 C493 1.367 . S
C492 C500 1.378 . S
C493 C492 1.367 . S
C493 C501 1.433 . S
C494 H490 0.929 . S
C494 C496 1.378 . S
C494 C498 1.350 . S
C495 C498 1.463 . S
C495 C500 1.350 . S
C495 N503 1.427 . S
C496 H487 0.930 . S
C496 C494 1.378 . S
C496 C497 1.367 . S
C497 C496 1.367 . S
C497 C499 1.433 . S
C498 C494 1.350 . S
C498 C495 1.463 . S
C498 N502 1.427 . S
C499 H489 0.929 . S
C499 C497 1.433 . S
C499 N502 1.384 . S
C500 H491 0.929 . S
C500 C492 1.378 . S
C500 C495 1.350 . S
C501 H488 0.929 . S
C501 C493 1.433 . S
C501 N503 1.384 . S
N502 C498 1.427 . S
N502 C499 1.384 . S
N503 C495 1.427 . S
N503 C501 1.384 . S
H504 C510 0.930 . S
H505 C514 0.930 . S
H506 C519 0.929 . S
H507 C517 0.929 . S
H508 C512 0.929 . S
H509 C518 0.929 . S
C510 H504 0.930 . S
C510 C511 1.367 . S
C510 C518 1.378 . S
C511 C510 1.367 . S
C511 C519 1.433 . S
C512 H508 0.929 . S
C512 C514 1.378 . S
C512 C516 1.350 . S
C513 C516 1.463 . S
C513 C518 1.350 . S
C513 N521 1.427 . S
C514 H505 0.930 . S
C514 C512 1.378 . S
C514 C515 1.367 . S
C515 C514 1.367 . S
C515 C517 1.433 . S
C516 C512 1.350 . S
C516 C513 1.463 . S
C516 N520 1.427 . S
C517 H507 0.929 . S
C517 C515 1.433 . S
C517 N520 1.384 . S
C518 H509 0.929 . S
C518 C510 1.378 . S
C518 C513 1.350 . S
C519 H506 0.929 . S
C519 C511 1.433 . S
C519 N521 1.384 . S
N520 C516 1.427 . S
N520 C517 1.384 . S
N521 C513 1.427 . S
N521 C519 1.384 . S
H522 C528 0.930 . S
H523 C532 0.930 . S
H524 C537 0.929 . S
H525 C535 0.929 . S
H526 C530 0.929 . S
H527 C536 0.929 . S
C528 H522 0.930 . S
C528 C529 1.367 . S
C528 C536 1.378 . S
C529 C528 1.367 . S
C529 C537 1.433 . S
C530 H526 0.929 . S
C530 C532 1.378 . S
C530 C534 1.350 . S
C531 C534 1.463 . S
C531 C536 1.350 . S
C531 N539 1.427 . S
C532 H523 0.930 . S
C532 C530 1.378 . S
C532 C533 1.367 . S
C533 C532 1.367 . S
C533 C535 1.433 . S
C534 C530 1.350 . S
C534 C531 1.463 . S
C534 N538 1.427 . S
C535 H525 0.929 . S
C535 C533 1.433 . S
C535 N538 1.384 . S
C536 H527 0.929 . S
C536 C528 1.378 . S
C536 C531 1.350 . S
C537 H524 0.929 . S
C537 C529 1.433 . S
C537 N539 1.384 . S
N538 C534 1.427 . S
N538 C535 1.384 . S
N539 C531 1.427 . S
N539 C537 1.384 . S
H540 C546 0.930 . S
H541 C550 0.930 . S
H542 C555 0.929 . S
H543 C553 0.929 . S
H544 C548 0.929 1_556 S
H545 C554 0.929 . S
C546 H540 0.930 . S
C546 C547 1.367 . S
C546 C554 1.378 . S
C547 C546 1.367 . S
C547 C555 1.433 . S
C548 H544 0.929 1_554 S
C548 C550 1.378 . S
C548 C552 1.350 1_554 S
C549 C552 1.463 . S
C549 C554 1.350 . S
C549 N557 1.427 . S
C550 H541 0.930 . S
C550 C548 1.378 . S
C550 C551 1.367 . S
C551 C550 1.367 . S
C551 C553 1.433 . S
C552 C548 1.350 1_556 S
C552 C549 1.463 . S
C552 N556 1.427 1_556 S
C553 H543 0.929 . S
C553 C551 1.433 . S
C553 N556 1.384 . S
C554 H545 0.929 . S
C554 C546 1.378 . S
C554 C549 1.350 . S
C555 H542 0.929 . S
C555 C547 1.433 . S
C555 N557 1.384 . S
N556 C552 1.427 1_554 S
N556 C553 1.384 . S
N557 C549 1.427 . S
N557 C555 1.384 . S
H558 C564 0.930 . S
H559 C568 0.930 . S
H560 C573 0.929 . S
H561 C571 0.929 . S
H562 C566 0.929 . S
H563 C572 0.929 . S
C564 H558 0.930 . S
C564 C565 1.367 . S
C564 C572 1.378 1_556 S
C565 C564 1.367 . S
C565 C573 1.433 . S
C566 H562 0.929 . S
C566 C568 1.378 . S
C566 C570 1.350 . S
C567 C570 1.463 . S
C567 C572 1.350 . S
C567 N575 1.427 . S
C568 H559 0.930 . S
C568 C566 1.378 . S
C568 C569 1.367 . S
C569 C568 1.367 . S
C569 C571 1.433 . S
C570 C566 1.350 . S
C570 C567 1.463 . S
C570 N574 1.427 . S
C571 H561 0.929 . S
C571 C569 1.433 . S
C571 N574 1.384 . S
C572 H563 0.929 . S
C572 C564 1.378 1_554 S
C572 C567 1.350 . S
C573 H560 0.929 . S
C573 C565 1.433 . S
C573 N575 1.384 1_556 S
N574 C570 1.427 . S
N574 C571 1.384 . S
N575 C567 1.427 . S
N575 C573 1.384 1_554 S
H576 C582 0.930 . S
H577 C586 0.930 . S
H578 C591 0.929 . S
H579 C589 0.929 . S
H580 C584 0.929 . S
H581 C590 0.929 . S
C582 H576 0.930 . S
C582 C583 1.367 . S
C582 C590 1.378 . S
C583 C582 1.367 . S
C583 C591 1.433 . S
C584 H580 0.929 . S
C584 C586 1.378 . S
C584 C588 1.350 . S
C585 C588 1.463 . S
C585 C590 1.350 . S
C585 N593 1.427 . S
C586 H577 0.930 . S
C586 C584 1.378 . S
C586 C587 1.367 . S
C587 C586 1.367 . S
C587 C589 1.433 . S
C588 C584 1.350 . S
C588 C585 1.463 . S
C588 N592 1.427 . S
C589 H579 0.929 . S
C589 C587 1.433 . S
C589 N592 1.384 . S
C590 H581 0.929 . S
C590 C582 1.378 . S
C590 C585 1.350 . S
C591 H578 0.929 . S
C591 C583 1.433 . S
C591 N593 1.384 . S
N592 C588 1.427 . S
N592 C589 1.384 . S
N593 C585 1.427 . S
N593 C591 1.384 . S
H594 C600 0.930 . S
H595 C604 0.930 . S
H596 C609 0.929 . S
H597 C607 0.929 . S
H598 C602 0.929 . S
H599 C608 0.929 . S
C600 H594 0.930 . S
C600 C601 1.367 . S
C600 C608 1.378 . S
C601 C600 1.367 . S
C601 C609 1.433 . S
C602 H598 0.929 . S
C602 C604 1.378 . S
C602 C606 1.350 . S
C603 C606 1.463 . S
C603 C608 1.350 . S
C603 N611 1.427 . S
C604 H595 0.930 . S
C604 C602 1.378 . S
C604 C605 1.367 . S
C605 C604 1.367 . S
C605 C607 1.433 . S
C606 C602 1.350 . S
C606 C603 1.463 . S
C606 N610 1.427 . S
C607 H597 0.929 . S
C607 C605 1.433 . S
C607 N610 1.384 . S
C608 H599 0.929 . S
C608 C600 1.378 . S
C608 C603 1.350 . S
C609 H596 0.929 . S
C609 C601 1.433 . S
C609 N611 1.384 . S
N610 C606 1.427 . S
N610 C607 1.384 . S
N611 C603 1.427 . S
N611 C609 1.384 . S
H612 C618 0.930 . S
H613 C622 0.930 . S
H614 C627 0.929 . S
H615 C625 0.929 . S
H616 C620 0.929 . S
H617 C626 0.929 . S
C618 H612 0.930 . S
C618 C619 1.367 . S
C618 C626 1.378 . S
C619 C618 1.367 . S
C619 C627 1.433 . S
C620 H616 0.929 . S
C620 C622 1.378 . S
C620 C624 1.350 . S
C621 C624 1.463 . S
C621 C626 1.350 . S
C621 N629 1.427 . S
C622 H613 0.930 . S
C622 C620 1.378 . S
C622 C623 1.367 . S
C623 C622 1.367 . S
C623 C625 1.433 . S
C624 C620 1.350 . S
C624 C621 1.463 . S
C624 N628 1.427 . S
C625 H615 0.929 . S
C625 C623 1.433 . S
C625 N628 1.384 . S
C626 H617 0.929 . S
C626 C618 1.378 . S
C626 C621 1.350 . S
C627 H614 0.929 . S
C627 C619 1.433 . S
C627 N629 1.384 . S
N628 C624 1.427 . S
N628 C625 1.384 . S
N629 C621 1.427 . S
N629 C627 1.384 . S
H630 C636 0.930 . S
H631 C640 0.930 . S
H632 C645 0.929 . S
H633 C643 0.929 . S
H634 C638 0.929 . S
H635 C644 0.929 . S
C636 H630 0.930 . S
C636 C637 1.367 . S
C636 C644 1.378 . S
C637 C636 1.367 . S
C637 C645 1.433 . S
C638 H634 0.929 . S
C638 C640 1.378 . S
C638 C642 1.350 . S
C639 C642 1.463 . S
C639 C644 1.350 . S
C639 N647 1.427 . S
C640 H631 0.930 . S
C640 C638 1.378 . S
C640 C641 1.367 . S
C641 C640 1.367 . S
C641 C643 1.433 . S
C642 C638 1.350 . S
C642 C639 1.463 . S
C642 N646 1.427 . S
C643 H633 0.929 . S
C643 C641 1.433 . S
C643 N646 1.384 . S
C644 H635 0.929 . S
C644 C636 1.378 . S
C644 C639 1.350 . S
C645 H632 0.929 . S
C645 C637 1.433 . S
C645 N647 1.384 . S
N646 C642 1.427 . S
N646 C643 1.384 . S
N647 C639 1.427 . S
N647 C645 1.384 . S
H648 C654 0.930 . S
H649 C658 0.930 . S
H650 C663 0.929 . S
H651 C661 0.929 . S
H652 C656 0.929 . S
H653 C662 0.929 . S
C654 H648 0.930 . S
C654 C655 1.367 . S
C654 C662 1.378 . S
C655 C654 1.367 . S
C655 C663 1.433 . S
C656 H652 0.929 . S
C656 C658 1.378 . S
C656 C660 1.350 . S
C657 C660 1.463 . S
C657 C662 1.350 . S
C657 N665 1.427 . S
C658 H649 0.930 . S
C658 C656 1.378 . S
C658 C659 1.367 . S
C659 C658 1.367 . S
C659 C661 1.433 . S
C660 C656 1.350 . S
C660 C657 1.463 . S
C660 N664 1.427 . S
C661 H651 0.929 . S
C661 C659 1.433 . S
C661 N664 1.384 . S
C662 H653 0.929 . S
C662 C654 1.378 . S
C662 C657 1.350 . S
C663 H650 0.929 . S
C663 C655 1.433 . S
C663 N665 1.384 . S
N664 C660 1.427 . S
N664 C661 1.384 . S
N665 C657 1.427 . S
N665 C663 1.384 . S
H666 C672 0.930 . S
H667 C676 0.930 . S
H668 C681 0.929 . S
H669 C679 0.929 . S
H670 C674 0.929 . S
H671 C680 0.929 . S
C672 H666 0.930 . S
C672 C673 1.367 . S
C672 C680 1.378 . S
C673 C672 1.367 . S
C673 C681 1.433 . S
C674 H670 0.929 . S
C674 C676 1.378 . S
C674 C678 1.350 . S
C675 C678 1.463 . S
C675 C680 1.350 . S
C675 N683 1.427 . S
C676 H667 0.930 . S
C676 C674 1.378 . S
C676 C677 1.367 . S
C677 C676 1.367 . S
C677 C679 1.433 . S
C678 C674 1.350 . S
C678 C675 1.463 . S
C678 N682 1.427 . S
C679 H669 0.929 . S
C679 C677 1.433 . S
C679 N682 1.384 . S
C680 H671 0.929 . S
C680 C672 1.378 . S
C680 C675 1.350 . S
C681 H668 0.929 . S
C681 C673 1.433 . S
C681 N683 1.384 . S
N682 C678 1.427 . S
N682 C679 1.384 . S
N683 C675 1.427 . S
N683 C681 1.384 . S
H684 C690 0.930 . S
H685 C694 0.930 . S
H686 C699 0.929 . S
H687 C697 0.929 . S
H688 C692 0.929 . S
H689 C698 0.929 . S
C690 H684 0.930 . S
C690 C691 1.367 . S
C690 C698 1.378 . S
C691 C690 1.367 . S
C691 C699 1.433 . S
C692 H688 0.929 . S
C692 C694 1.378 1_556 S
C692 C696 1.350 . S
C693 C696 1.463 . S
C693 C698 1.350 . S
C693 N701 1.427 . S
C694 H685 0.930 . S
C694 C692 1.378 1_554 S
C694 C695 1.367 . S
C695 C694 1.367 . S
C695 C697 1.433 . S
C696 C692 1.350 . S
C696 C693 1.463 . S
C696 N700 1.427 . S
C697 H687 0.929 . S
C697 C695 1.433 . S
C697 N700 1.384 1_554 S
C698 H689 0.929 . S
C698 C690 1.378 . S
C698 C693 1.350 . S
C699 H686 0.929 . S
C699 C691 1.433 . S
C699 N701 1.384 . S
N700 C696 1.427 . S
N700 C697 1.384 1_556 S
N701 C693 1.427 . S
N701 C699 1.384 . S
H702 C708 0.930 . S
H703 C712 0.930 . S
H704 C717 0.929 . S
H705 C715 0.929 . S
H706 C710 0.929 . S
H707 C716 0.929 . S
C708 H702 0.930 . S
C708 C709 1.367 . S
C708 C716 1.378 . S
C709 C708 1.367 . S
C709 C717 1.433 . S
C710 H706 0.929 . S
C710 C712 1.378 . S
C710 C714 1.350 1_556 S
C711 C714 1.463 . S
C711 C716 1.350 . S
C711 N719 1.427 . S
C712 H703 0.930 . S
C712 C710 1.378 . S
C712 C713 1.367 . S
C713 C712 1.367 . S
C713 C715 1.433 . S
C714 C710 1.350 1_554 S
C714 C711 1.463 . S
C714 N718 1.427 1_554 S
C715 H705 0.929 . S
C715 C713 1.433 . S
C715 N718 1.384 . S
C716 H707 0.929 . S
C716 C708 1.378 . S
C716 C711 1.350 . S
C717 H704 0.929 . S
C717 C709 1.433 . S
C717 N719 1.384 . S
N718 C714 1.427 1_556 S
N718 C715 1.384 . S
N719 C711 1.427 . S
N719 C717 1.384 . S
H720 C726 0.930 . S
H721 C730 0.930 . S
H722 C735 0.929 . S
H723 C733 0.929 . S
H724 C728 0.929 . S
H725 C734 0.929 . S
C726 H720 0.930 . S
C726 C727 1.367 . S
C726 C734 1.378 . S
C727 C726 1.367 . S
C727 C735 1.433 . S
C728 H724 0.929 . S
C728 C730 1.378 . S
C728 C732 1.350 . S
C729 C732 1.463 . S
C729 C734 1.350 . S
C729 N737 1.427 . S
C730 H721 0.930 . S
C730 C728 1.378 . S
C730 C731 1.367 . S
C731 C730 1.367 . S
C731 C733 1.433 . S
C732 C728 1.350 . S
C732 C729 1.463 . S
C732 N736 1.427 . S
C733 H723 0.929 . S
C733 C731 1.433 . S
C733 N736 1.384 . S
C734 H725 0.929 . S
C734 C726 1.378 . S
C734 C729 1.350 . S
C735 H722 0.929 . S
C735 C727 1.433 . S
C735 N737 1.384 . S
N736 C732 1.427 . S
N736 C733 1.384 . S
N737 C729 1.427 . S
N737 C735 1.384 . S
H738 C744 0.930 . S
H739 C748 0.930 . S
H740 C753 0.929 . S
H741 C751 0.929 . S
H742 C746 0.929 . S
H743 C752 0.929 . S
C744 H738 0.930 . S
C744 C745 1.367 . S
C744 C752 1.378 . S
C745 C744 1.367 . S
C745 C753 1.433 . S
C746 H742 0.929 . S
C746 C748 1.378 . S
C746 C750 1.350 . S
C747 C750 1.463 . S
C747 C752 1.350 . S
C747 N755 1.427 . S
C748 H739 0.930 . S
C748 C746 1.378 . S
C748 C749 1.367 . S
C749 C748 1.367 . S
C749 C751 1.433 . S
C750 C746 1.350 . S
C750 C747 1.463 . S
C750 N754 1.427 . S
C751 H741 0.929 . S
C751 C749 1.433 . S
C751 N754 1.384 . S
C752 H743 0.929 . S
C752 C744 1.378 . S
C752 C747 1.350 . S
C753 H740 0.929 . S
C753 C745 1.433 . S
C753 N755 1.384 . S
N754 C750 1.427 . S
N754 C751 1.384 . S
N755 C747 1.427 . S
N755 C753 1.384 . S
H756 C762 0.930 . S
H757 C766 0.930 . S
H758 C771 0.929 . S
H759 C769 0.929 . S
H760 C764 0.929 . S
H761 C770 0.929 . S
C762 H756 0.930 . S
C762 C763 1.367 . S
C762 C770 1.378 . S
C763 C762 1.367 . S
C763 C771 1.433 . S
C764 H760 0.929 . S
C764 C766 1.378 . S
C764 C768 1.350 . S
C765 C768 1.463 . S
C765 C770 1.350 . S
C765 N773 1.427 . S
C766 H757 0.930 . S
C766 C764 1.378 . S
C766 C767 1.367 . S
C767 C766 1.367 . S
C767 C769 1.433 . S
C768 C764 1.350 . S
C768 C765 1.463 . S
C768 N772 1.427 . S
C769 H759 0.929 . S
C769 C767 1.433 . S
C769 N772 1.384 . S
C770 H761 0.929 . S
C770 C762 1.378 . S
C770 C765 1.350 . S
C771 H758 0.929 . S
C771 C763 1.433 . S
C771 N773 1.384 . S
N772 C768 1.427 . S
N772 C769 1.384 . S
N773 C765 1.427 . S
N773 C771 1.384 . S
H774 C780 0.930 . S
H775 C784 0.930 . S
H776 C789 0.929 . S
H777 C787 0.929 . S
H778 C782 0.929 . S
H779 C788 0.929 . S
C780 H774 0.930 . S
C780 C781 1.367 . S
C780 C788 1.378 . S
C781 C780 1.367 . S
C781 C789 1.433 . S
C782 H778 0.929 . S
C782 C784 1.378 . S
C782 C786 1.350 . S
C783 C786 1.463 . S
C783 C788 1.350 . S
C783 N791 1.427 . S
C784 H775 0.930 . S
C784 C782 1.378 . S
C784 C785 1.367 . S
C785 C784 1.367 . S
C785 C787 1.433 . S
C786 C782 1.350 . S
C786 C783 1.463 . S
C786 N790 1.427 . S
C787 H777 0.929 . S
C787 C785 1.433 . S
C787 N790 1.384 . S
C788 H779 0.929 . S
C788 C780 1.378 . S
C788 C783 1.350 . S
C789 H776 0.929 . S
C789 C781 1.433 . S
C789 N791 1.384 . S
N790 C786 1.427 . S
N790 C787 1.384 . S
N791 C783 1.427 . S
N791 C789 1.384 . S
H792 C798 0.930 . S
H793 C802 0.930 . S
H794 C807 0.929 . S
H795 C805 0.929 . S
H796 C800 0.929 . S
H797 C806 0.929 1_554 S
C798 H792 0.930 . S
C798 C799 1.367 1_554 S
C798 C806 1.378 1_554 S
C799 C798 1.367 1_556 S
C799 C807 1.433 . S
C800 H796 0.929 . S
C800 C802 1.378 . S
C800 C804 1.350 . S
C801 C804 1.463 . S
C801 C806 1.350 . S
C801 N809 1.427 . S
C802 H793 0.930 . S
C802 C800 1.378 . S
C802 C803 1.367 . S
C803 C802 1.367 . S
C803 C805 1.433 . S
C804 C800 1.350 . S
C804 C801 1.463 . S
C804 N808 1.427 . S
C805 H795 0.929 . S
C805 C803 1.433 . S
C805 N808 1.384 . S
C806 H797 0.929 1_556 S
C806 C798 1.378 1_556 S
C806 C801 1.350 . S
C807 H794 0.929 . S
C807 C799 1.433 . S
C807 N809 1.384 . S
N808 C804 1.427 . S
N808 C805 1.384 . S
N809 C801 1.427 . S
N809 C807 1.384 . S
H810 C816 0.930 . S
H811 C820 0.930 . S
H812 C825 0.929 . S
H813 C823 0.929 . S
H814 C818 0.929 . S
H815 C824 0.929 . S
C816 H810 0.930 . S
C816 C817 1.367 . S
C816 C824 1.378 . S
C817 C816 1.367 . S
C817 C825 1.433 . S
C818 H814 0.929 . S
C818 C820 1.378 . S
C818 C822 1.350 . S
C819 C822 1.463 . S
C819 C824 1.350 . S
C819 N827 1.427 . S
C820 H811 0.930 . S
C820 C818 1.378 . S
C820 C821 1.367 . S
C821 C820 1.367 . S
C821 C823 1.433 1_554 S
C822 C818 1.350 . S
C822 C819 1.463 . S
C822 N826 1.427 . S
C823 H813 0.929 . S
C823 C821 1.433 1_556 S
C823 N826 1.384 1_556 S
C824 H815 0.929 . S
C824 C816 1.378 . S
C824 C819 1.350 . S
C825 H812 0.929 . S
C825 C817 1.433 . S
C825 N827 1.384 . S
N826 C822 1.427 . S
N826 C823 1.384 1_554 S
N827 C819 1.427 . S
N827 C825 1.384 . S
H828 C834 0.930 . S
H829 C838 0.930 . S
H830 C843 0.929 . S
H831 C841 0.929 . S
H832 C836 0.929 . S
H833 C842 0.929 . S
C834 H828 0.930 . S
C834 C835 1.367 . S
C834 C842 1.378 1_554 S
C835 C834 1.367 . S
C835 C843 1.433 . S
C836 H832 0.929 . S
C836 C838 1.378 1_554 S
C836 C840 1.350 1_554 S
C837 C840 1.463 1_544 S
C837 C842 1.350 1_554 S
C837 N845 1.427 . S
C838 H829 0.930 . S
C838 C836 1.378 1_556 S
C838 C839 1.367 . S
C839 C838 1.367 . S
C839 C841 1.433 . S
C840 C836 1.350 1_556 S
C840 C837 1.463 1_566 S
C840 N844 1.427 . S
C841 H831 0.929 . S
C841 C839 1.433 . S
C841 N844 1.384 . S
C842 H833 0.929 . S
C842 C834 1.378 1_556 S
C842 C837 1.350 1_556 S
C843 H830 0.929 . S
C843 C835 1.433 . S
C843 N845 1.384 . S
N844 C840 1.427 . S
N844 C841 1.384 . S
N845 C837 1.427 . S
N845 C843 1.384 . S
H846 C852 0.930 . S
H847 C856 0.930 . S
H848 C861 0.929 . S
H849 C859 0.929 . S
H850 C854 0.929 . S
H851 C860 0.929 . S
C852 H846 0.930 . S
C852 C853 1.367 . S
C852 C860 1.378 . S
C853 C852 1.367 . S
C853 C861 1.433 . S
C854 H850 0.929 . S
C854 C856 1.378 . S
C854 C858 1.350 . S
C855 C858 1.463 . S
C855 C860 1.350 . S
C855 N863 1.427 . S
C856 H847 0.930 . S
C856 C854 1.378 . S
C856 C857 1.367 . S
C857 C856 1.367 . S
C857 C859 1.433 . S
C858 C854 1.350 . S
C858 C855 1.463 . S
C858 N862 1.427 . S
C859 H849 0.929 . S
C859 C857 1.433 . S
C859 N862 1.384 . S
C860 H851 0.929 . S
C860 C852 1.378 . S
C860 C855 1.350 . S
C861 H848 0.929 . S
C861 C853 1.433 . S
C861 N863 1.384 . S
N862 C858 1.427 . S
N862 C859 1.384 . S
N863 C855 1.427 . S
N863 C861 1.384 . S
H864 C870 0.930 . S
H865 C874 0.930 . S
H866 C879 0.929 . S
H867 C877 0.929 . S
H868 C872 0.929 . S
H869 C878 0.929 . S
C870 H864 0.930 . S
C870 C871 1.367 . S
C870 C878 1.378 . S
C871 C870 1.367 . S
C871 C879 1.433 . S
C872 H868 0.929 . S
C872 C874 1.378 . S
C872 C876 1.350 . S
C873 C876 1.463 1_455 S
C873 C878 1.350 . S
C873 N881 1.427 . S
C874 H865 0.930 . S
C874 C872 1.378 . S
C874 C875 1.367 . S
C875 C874 1.367 . S
C875 C877 1.433 . S
C876 C872 1.350 . S
C876 C873 1.463 1_655 S
C876 N880 1.427 . S
C877 H867 0.929 . S
C877 C875 1.433 . S
C877 N880 1.384 . S
C878 H869 0.929 . S
C878 C870 1.378 . S
C878 C873 1.350 . S
C879 H866 0.929 . S
C879 C871 1.433 . S
C879 N881 1.384 . S
N880 C876 1.427 . S
N880 C877 1.384 . S
N881 C873 1.427 . S
N881 C879 1.384 . S
H882 C888 0.930 . S
H883 C892 0.930 . S
H884 C897 0.929 . S
H885 C895 0.929 . S
H886 C890 0.929 . S
H887 C896 0.929 . S
C888 H882 0.930 . S
C888 C889 1.367 . S
C888 C896 1.378 . S
C889 C888 1.367 . S
C889 C897 1.433 . S
C890 H886 0.929 . S
C890 C892 1.378 . S
C890 C894 1.350 . S
C891 C894 1.463 1_565 S
C891 C896 1.350 . S
C891 N899 1.427 . S
C892 H883 0.930 . S
C892 C890 1.378 . S
C892 C893 1.367 . S
C893 C892 1.367 . S
C893 C895 1.433 . S
C894 C890 1.350 . S
C894 C891 1.463 1_545 S
C894 N898 1.427 . S
C895 H885 0.929 . S
C895 C893 1.433 . S
C895 N898 1.384 . S
C896 H887 0.929 . S
C896 C888 1.378 . S
C896 C891 1.350 . S
C897 H884 0.929 . S
C897 C889 1.433 . S
C897 N899 1.384 . S
N898 C894 1.427 . S
N898 C895 1.384 . S
N899 C891 1.427 . S
N899 C897 1.384 . S
H900 C906 0.930 . S
H901 C910 0.930 . S
H902 C915 0.929 . S
H903 C913 0.929 . S
H904 C908 0.929 . S
H905 C914 0.929 . S
C906 H900 0.930 . S
C906 C907 1.367 . S
C906 C914 1.378 . S
C907 C906 1.367 . S
C907 C915 1.433 . S
C908 H904 0.929 . S
C908 C910 1.378 . S
C908 C912 1.350 . S
C909 C912 1.463 . S
C909 C914 1.350 . S
C909 N917 1.427 . S
C910 H901 0.930 . S
C910 C908 1.378 . S
C910 C911 1.367 . S
C911 C910 1.367 . S
C911 C913 1.433 . S
C912 C908 1.350 . S
C912 C909 1.463 . S
C912 N916 1.427 . S
C913 H903 0.929 . S
C913 C911 1.433 . S
C913 N916 1.384 . S
C914 H905 0.929 . S
C914 C906 1.378 . S
C914 C909 1.350 . S
C915 H902 0.929 . S
C915 C907 1.433 . S
C915 N917 1.384 . S
N916 C912 1.427 . S
N916 C913 1.384 . S
N917 C909 1.427 . S
N917 C915 1.384 . S
H918 C924 0.930 . S
H919 C928 0.930 . S
H920 C933 0.929 . S
H921 C931 0.929 . S
H922 C926 0.929 . S
H923 C932 0.929 . S
C924 H918 0.930 . S
C924 C925 1.367 . S
C924 C932 1.378 . S
C925 C924 1.367 . S
C925 C933 1.433 . S
C926 H922 0.929 . S
C926 C928 1.378 . S
C926 C930 1.350 . S
C927 C930 1.463 1_455 S
C927 C932 1.350 . S
C927 N935 1.427 . S
C928 H919 0.930 . S
C928 C926 1.378 . S
C928 C929 1.367 . S
C929 C928 1.367 . S
C929 C931 1.433 . S
C930 C926 1.350 . S
C930 C927 1.463 1_655 S
C930 N934 1.427 . S
C931 H921 0.929 . S
C931 C929 1.433 . S
C931 N934 1.384 . S
C932 H923 0.929 . S
C932 C924 1.378 . S
C932 C927 1.350 . S
C933 H920 0.929 . S
C933 C925 1.433 . S
C933 N935 1.384 . S
N934 C930 1.427 . S
N934 C931 1.384 . S
N935 C927 1.427 . S
N935 C933 1.384 . S
C403 C271 1.195 . S
C407 C7 1.194 . S
C421 C304 1.190 . S
C425 C40 1.193 . S
C439 C337 1.192 . S
C443 C73 1.195 . S
C457 C370 1.195 . S
C461 C106 1.195 . S
C475 C139 1.190 . S
C479 C205 1.194 . S
C493 C238 1.195 . S
C497 C172 1.189 . S
C511 N13 1.320 . S
C515 N2 1.318 . S
C529 N35 1.314 . S
C533 N46 1.316 1_556 S
C547 N68 1.318 . S
C551 N79 1.320 . S
C565 N101 1.323 . S
C569 N112 1.324 . S
C583 N134 1.318 . S
C587 N145 1.320 . S
C601 N167 1.313 . S
C605 N178 1.315 . S
C619 N211 1.328 1_554 S
C623 N200 1.326 . S
C637 N233 1.326 . S
C641 N244 1.327 . S
C655 N277 1.328 . S
C659 N266 1.326 . S
C673 N310 1.321 . S
C677 N299 1.319 . S
C691 N343 1.327 . S
C695 N332 1.326 . S
C709 N365 1.319 . S
C713 N376 1.320 . S
C727 C21 1.575 . S
C731 C351 1.580 . S
C745 C54 1.579 . S
C749 C384 1.581 . S
C763 C87 1.574 . S
C767 C219 1.577 . S
C781 C252 1.581 . S
C785 C120 1.577 . S
C799 C285 1.581 1_556 S
C803 C153 1.578 . S
C817 C318 1.577 . S
C821 C186 1.574 1_554 S
C835 C18 1.350 . S
C839 C249 1.360 . S
C853 C282 1.353 . S
C857 C51 1.356 . S
C871 C315 1.361 . S
C875 C84 1.350 . S
C889 C117 1.352 . S
C893 C348 1.356 . S
C907 C381 1.361 . S
C911 C150 1.355 . S
C925 C183 1.355 . S
C929 C216 1.353 . S
