# Generated by pormake.
# Topology ukj, (4)-cn, num edge types: 1
# Building blocks:
#     Node 0, Type 0, BuildingBlock: KUFVIS_clean_sbu_0, # of connection points: 4
#     Node 1, Type 0, BuildingBlock: KUFVIS_clean_sbu_0, # of connection points: 4
#     Node 2, Type 0, BuildingBlock: KUFVIS_clean_sbu_0, # of connection points: 4
#     Node 3, Type 0, BuildingBlock: KUFVIS_clean_sbu_0, # of connection points: 4
#     Node 4, Type 0, BuildingBlock: KUFVIS_clean_sbu_0, # of connection points: 4
#     Node 5, Type 0, BuildingBlock: KUFVIS_clean_sbu_0, # of connection points: 4
#     Node 6, Type 0, BuildingBlock: KUFVIS_clean_sbu_0, # of connection points: 4
#     Node 7, Type 0, BuildingBlock: KUFVIS_clean_sbu_0, # of connection points: 4
#     Node 8, Type 0, BuildingBlock: KUFVIS_clean_sbu_0, # of connection points: 4
#     Node 9, Type 0, BuildingBlock: KUFVIS_clean_sbu_0, # of connection points: 4
#     Node 10, Type 0, BuildingBlock: KUFVIS_clean_sbu_0, # of connection points: 4
#     Node 11, Type 0, BuildingBlock: KUFVIS_clean_sbu_0, # of connection points: 4
#     Node 12, Type 0, BuildingBlock: KUFVIS_clean_sbu_0, # of connection points: 4
#     Node 13, Type 0, BuildingBlock: KUFVIS_clean_sbu_0, # of connection points: 4
#     Node 14, Type 0, BuildingBlock: KUFVIS_clean_sbu_0, # of connection points: 4
#     Node 15, Type 0, BuildingBlock: KUFVIS_clean_sbu_0, # of connection points: 4
#     Node 16, Type 0, BuildingBlock: KUFVIS_clean_sbu_0, # of connection points: 4
#     Node 17, Type 0, BuildingBlock: KUFVIS_clean_sbu_0, # of connection points: 4
#     Node 18, Type 0, BuildingBlock: KUFVIS_clean_sbu_0, # of connection points: 4
#     Node 19, Type 0, BuildingBlock: KUFVIS_clean_sbu_0, # of connection points: 4
#     Node 20, Type 0, BuildingBlock: KUFVIS_clean_sbu_0, # of connection points: 4
#     Node 21, Type 0, BuildingBlock: KUFVIS_clean_sbu_0, # of connection points: 4
#     Node 22, Type 0, BuildingBlock: KUFVIS_clean_sbu_0, # of connection points: 4
#     Node 23, Type 0, BuildingBlock: KUFVIS_clean_sbu_0, # of connection points: 4
#     Node 24, Type 0, BuildingBlock: KUFVIS_clean_sbu_0, # of connection points: 4
#     Node 25, Type 0, BuildingBlock: KUFVIS_clean_sbu_0, # of connection points: 4
#     Node 26, Type 0, BuildingBlock: KUFVIS_clean_sbu_0, # of connection points: 4
#     Node 27, Type 0, BuildingBlock: KUFVIS_clean_sbu_0, # of connection points: 4
#     Node 28, Type 0, BuildingBlock: KUFVIS_clean_sbu_0, # of connection points: 4
#     Node 29, Type 0, BuildingBlock: KUFVIS_clean_sbu_0, # of connection points: 4
#     Node 30, Type 0, BuildingBlock: KUFVIS_clean_sbu_0, # of connection points: 4
#     Node 31, Type 0, BuildingBlock: KUFVIS_clean_sbu_0, # of connection points: 4
#     Edge 32, Type (0, 0), BuildingBlock: KIFKEQ_clean_linker_1, # of connection points: 2
#     Edge 33, Type (0, 0), BuildingBlock: KIFKEQ_clean_linker_1, # of connection points: 2
#     Edge 34, Type (0, 0), BuildingBlock: KIFKEQ_clean_linker_1, # of connection points: 2
#     Edge 35, Type (0, 0), BuildingBlock: KIFKEQ_clean_linker_1, # of connection points: 2
#     Edge 36, Type (0, 0), BuildingBlock: KIFKEQ_clean_linker_1, # of connection points: 2
#     Edge 37, Type (0, 0), BuildingBlock: KIFKEQ_clean_linker_1, # of connection points: 2
#     Edge 38, Type (0, 0), BuildingBlock: KIFKEQ_clean_linker_1, # of connection points: 2
#     Edge 39, Type (0, 0), BuildingBlock: KIFKEQ_clean_linker_1, # of connection points: 2
#     Edge 40, Type (0, 0), BuildingBlock: KIFKEQ_clean_linker_1, # of connection points: 2
#     Edge 41, Type (0, 0), BuildingBlock: KIFKEQ_clean_linker_1, # of connection points: 2
#     Edge 42, Type (0, 0), BuildingBlock: KIFKEQ_clean_linker_1, # of connection points: 2
#     Edge 43, Type (0, 0), BuildingBlock: KIFKEQ_clean_linker_1, # of connection points: 2
#     Edge 44, Type (0, 0), BuildingBlock: KIFKEQ_clean_linker_1, # of connection points: 2
#     Edge 45, Type (0, 0), BuildingBlock: KIFKEQ_clean_linker_1, # of connection points: 2
#     Edge 46, Type (0, 0), BuildingBlock: KIFKEQ_clean_linker_1, # of connection points: 2
#     Edge 47, Type (0, 0), BuildingBlock: KIFKEQ_clean_linker_1, # of connection points: 2
#     Edge 48, Type (0, 0), BuildingBlock: KIFKEQ_clean_linker_1, # of connection points: 2
#     Edge 49, Type (0, 0), BuildingBlock: KIFKEQ_clean_linker_1, # of connection points: 2
#     Edge 50, Type (0, 0), BuildingBlock: KIFKEQ_clean_linker_1, # of connection points: 2
#     Edge 51, Type (0, 0), BuildingBlock: KIFKEQ_clean_linker_1, # of connection points: 2
#     Edge 52, Type (0, 0), BuildingBlock: KIFKEQ_clean_linker_1, # of connection points: 2
#     Edge 53, Type (0, 0), BuildingBlock: KIFKEQ_clean_linker_1, # of connection points: 2
#     Edge 54, Type (0, 0), BuildingBlock: KIFKEQ_clean_linker_1, # of connection points: 2
#     Edge 55, Type (0, 0), BuildingBlock: KIFKEQ_clean_linker_1, # of connection points: 2
#     Edge 56, Type (0, 0), BuildingBlock: KIFKEQ_clean_linker_1, # of connection points: 2
#     Edge 57, Type (0, 0), BuildingBlock: KIFKEQ_clean_linker_1, # of connection points: 2
#     Edge 58, Type (0, 0), BuildingBlock: KIFKEQ_clean_linker_1, # of connection points: 2
#     Edge 59, Type (0, 0), BuildingBlock: KIFKEQ_clean_linker_1, # of connection points: 2
#     Edge 60, Type (0, 0), BuildingBlock: KIFKEQ_clean_linker_1, # of connection points: 2
#     Edge 61, Type (0, 0), BuildingBlock: KIFKEQ_clean_linker_1, # of connection points: 2
#     Edge 62, Type (0, 0), BuildingBlock: KIFKEQ_clean_linker_1, # of connection points: 2
#     Edge 63, Type (0, 0), BuildingBlock: KIFKEQ_clean_linker_1, # of connection points: 2
#     Edge 64, Type (0, 0), BuildingBlock: KIFKEQ_clean_linker_1, # of connection points: 2
#     Edge 65, Type (0, 0), BuildingBlock: KIFKEQ_clean_linker_1, # of connection points: 2
#     Edge 66, Type (0, 0), BuildingBlock: KIFKEQ_clean_linker_1, # of connection points: 2
#     Edge 67, Type (0, 0), BuildingBlock: KIFKEQ_clean_linker_1, # of connection points: 2
#     Edge 68, Type (0, 0), BuildingBlock: KIFKEQ_clean_linker_1, # of connection points: 2
#     Edge 69, Type (0, 0), BuildingBlock: KIFKEQ_clean_linker_1, # of connection points: 2
#     Edge 70, Type (0, 0), BuildingBlock: KIFKEQ_clean_linker_1, # of connection points: 2
#     Edge 71, Type (0, 0), BuildingBlock: KIFKEQ_clean_linker_1, # of connection points: 2
#     Edge 72, Type (0, 0), BuildingBlock: KIFKEQ_clean_linker_1, # of connection points: 2
#     Edge 73, Type (0, 0), BuildingBlock: KIFKEQ_clean_linker_1, # of connection points: 2
#     Edge 74, Type (0, 0), BuildingBlock: KIFKEQ_clean_linker_1, # of connection points: 2
#     Edge 75, Type (0, 0), BuildingBlock: KIFKEQ_clean_linker_1, # of connection points: 2
#     Edge 76, Type (0, 0), BuildingBlock: KIFKEQ_clean_linker_1, # of connection points: 2
#     Edge 77, Type (0, 0), BuildingBlock: KIFKEQ_clean_linker_1, # of connection points: 2
#     Edge 78, Type (0, 0), BuildingBlock: KIFKEQ_clean_linker_1, # of connection points: 2
#     Edge 79, Type (0, 0), BuildingBlock: KIFKEQ_clean_linker_1, # of connection points: 2
#     Edge 80, Type (0, 0), BuildingBlock: KIFKEQ_clean_linker_1, # of connection points: 2
#     Edge 81, Type (0, 0), BuildingBlock: KIFKEQ_clean_linker_1, # of connection points: 2
#     Edge 82, Type (0, 0), BuildingBlock: KIFKEQ_clean_linker_1, # of connection points: 2
#     Edge 83, Type (0, 0), BuildingBlock: KIFKEQ_clean_linker_1, # of connection points: 2
#     Edge 84, Type (0, 0), BuildingBlock: KIFKEQ_clean_linker_1, # of connection points: 2
#     Edge 85, Type (0, 0), BuildingBlock: KIFKEQ_clean_linker_1, # of connection points: 2
#     Edge 86, Type (0, 0), BuildingBlock: KIFKEQ_clean_linker_1, # of connection points: 2
#     Edge 87, Type (0, 0), BuildingBlock: KIFKEQ_clean_linker_1, # of connection points: 2
#     Edge 88, Type (0, 0), BuildingBlock: KIFKEQ_clean_linker_1, # of connection points: 2
#     Edge 89, Type (0, 0), BuildingBlock: KIFKEQ_clean_linker_1, # of connection points: 2
#     Edge 90, Type (0, 0), BuildingBlock: KIFKEQ_clean_linker_1, # of connection points: 2
#     Edge 91, Type (0, 0), BuildingBlock: KIFKEQ_clean_linker_1, # of connection points: 2
#     Edge 92, Type (0, 0), BuildingBlock: KIFKEQ_clean_linker_1, # of connection points: 2
#     Edge 93, Type (0, 0), BuildingBlock: KIFKEQ_clean_linker_1, # of connection points: 2
#     Edge 94, Type (0, 0), BuildingBlock: KIFKEQ_clean_linker_1, # of connection points: 2
#     Edge 95, Type (0, 0), BuildingBlock: KIFKEQ_clean_linker_1, # of connection points: 2
# Relax obj value: 0.110
# Max RMSD: 0.209
# Mean RMSD: 0.208
data_MOF--net-ukj--node1-KUFVIS_clean_sbu_0--edge1-KIFKEQ_clean_linker_1
_symmetry_space_group_name_H-M    P1
_symmetry_Int_Tables_number       1
_symmetry_cell_setting            triclinic
loop_
_symmetry_equiv_pos_as_xyz
'x, y, z'
_cell_length_a     29.242023
_cell_length_b     65.217806
_cell_length_c     58.318832
_cell_angle_alpha  89.998061
_cell_angle_beta   89.999143
_cell_angle_gamma 90.006428
loop_
_atom_site_label
_atom_site_type_symbol
_atom_site_fract_x
_atom_site_fract_y
_atom_site_fract_z
_atom_type_partial_charge
Mn0 Mn 0.12697 0.34581 0.26867 0.0
Mn1 Mn 0.2007 0.31716 0.23748 0.0
C2 C 0.20366 0.3537 0.2689 0.0
C3 C 0.08835 0.35013 0.30342 0.0
C4 C 0.14054 0.35038 0.21683 0.0
O5 O 0.08959 0.32069 0.2612 0.0
O6 O 0.14229 0.30213 0.24232 0.0
C7 C 0.21553 0.28415 0.27157 0.0
N8 N 0.23274 0.29868 0.25719 0.0
C9 C 0.30995 0.28837 0.2655 0.0
C10 C 0.29307 0.27315 0.28023 0.0
C11 C 0.24565 0.27113 0.28339 0.0
C12 C 0.27829 0.30099 0.25433 0.0
H13 H 0.17911 0.28249 0.27398 0.0
C14 C 0.10249 0.3044 0.2511 0.0
O15 O 0.07364 0.35891 0.28478 0.0
O16 O 0.12453 0.33885 0.30164 0.0
N17 N 0.25943 0.32898 0.23147 0.0
C18 C 0.27025 0.34529 0.21797 0.0
C19 C 0.31635 0.34988 0.21359 0.0
C20 C 0.35086 0.33738 0.22279 0.0
C21 C 0.33896 0.3206 0.2366 0.0
C22 C 0.29243 0.31688 0.24045 0.0
H23 H 0.24391 0.35473 0.21066 0.0
O24 O 0.17349 0.36718 0.27505 0.0
O25 O 0.18832 0.33565 0.26326 0.0
O26 O 0.12017 0.35602 0.23523 0.0
O27 O 0.17027 0.33605 0.21594 0.0
C28 C 0.37141 0.30758 0.24696 0.0
C29 C 0.35694 0.2916 0.26157 0.0
H30 H 0.31619 0.26303 0.28931 0.0
H31 H 0.23235 0.2595 0.29483 0.0
H32 H 0.32522 0.36291 0.20301 0.0
H33 H 0.38637 0.34091 0.21929 0.0
H34 H 0.40764 0.3099 0.2441 0.0
H35 H 0.38225 0.28196 0.26979 0.0
Mn36 Mn 0.11316 0.89238 0.26748 0.0
Mn37 Mn 0.04615 0.92287 0.23467 0.0
C38 C 0.03592 0.88622 0.26562 0.0
C39 C 0.14865 0.88718 0.30285 0.0
C40 C 0.10422 0.88834 0.21538 0.0
O41 O 0.1537 0.91674 0.26127 0.0
O42 O 0.10561 0.93662 0.24104 0.0
C43 C 0.03151 0.95609 0.26851 0.0
N44 N 0.01416 0.94185 0.25379 0.0
C45 C 0.93722 0.95312 0.26114 0.0
C46 C 0.95427 0.968 0.27625 0.0
C47 C 0.00161 0.96941 0.28004 0.0
C48 C 0.96865 0.94019 0.25025 0.0
H49 H 0.06789 0.9573 0.27139 0.0
C50 C 0.14392 0.93338 0.25103 0.0
O51 O 0.16375 0.87815 0.28445 0.0
O52 O 0.11354 0.89907 0.30054 0.0
N53 N 0.98692 0.91229 0.22712 0.0
C54 C 0.97578 0.8965 0.2129 0.0
C55 C 0.92965 0.8926 0.20784 0.0
C56 C 0.89546 0.90529 0.217 0.0
C57 C 0.90771 0.92166 0.23134 0.0
C58 C 0.95425 0.92469 0.2359 0.0
H59 H 0.00189 0.88698 0.20549 0.0
O60 O 0.06383 0.87205 0.27252 0.0
O61 O 0.05377 0.90395 0.26058 0.0
O62 O 0.1218 0.88209 0.23423 0.0
O63 O 0.07666 0.90347 0.21378 0.0
C64 C 0.87556 0.93493 0.24153 0.0
C65 C 0.89027 0.95054 0.25656 0.0
H66 H 0.93132 0.97834 0.28512 0.0
H67 H 0.01503 0.9808 0.29174 0.0
H68 H 0.92048 0.87993 0.19676 0.0
H69 H 0.85992 0.90227 0.21298 0.0
H70 H 0.83936 0.93313 0.23814 0.0
H71 H 0.86516 0.96042 0.26458 0.0
Mn72 Mn 0.12576 0.89241 1.00022 0.0
Mn73 Mn 0.19321 0.92278 0.03294 0.0
C74 C 0.20305 0.88631 1.00171 0.0
C75 C 0.08988 0.88728 0.96494 0.0
C76 C 0.13564 0.8881 0.05226 0.0
O77 O 0.08523 0.9167 1.00669 0.0
O78 O 0.13349 0.93646 0.02698 0.0
C79 C 0.20686 0.95624 0.99929 0.0
N80 N 0.22464 0.94195 0.01381 0.0
C81 C 0.30131 0.95345 1.00621 0.0
C82 C 0.28383 0.96839 0.9913 0.0
C83 C 0.23641 0.96971 0.98773 0.0
C84 C 0.27022 0.94037 0.01713 0.0
H85 H 0.17042 0.95738 0.99658 0.0
C86 C 0.09507 0.93326 0.01709 0.0
O87 O 0.07503 0.87817 0.98334 0.0
O88 O 0.12491 0.89922 0.9672 0.0
N89 N 0.25269 0.91227 0.04009 0.0
C90 C 0.26426 0.89638 0.05409 0.0
C91 C 0.31053 0.89255 0.0589 0.0
C92 C 0.34441 0.9054 0.04972 0.0
C93 C 0.33171 0.92185 0.0356 0.0
C94 C 0.28506 0.92481 0.03128 0.0
H95 H 0.2384 0.88673 0.0615 0.0
O96 O 0.17507 0.87214 0.99489 0.0
O97 O 0.18523 0.90401 1.00692 0.0
O98 O 0.11761 0.88198 0.03347 0.0
O99 O 0.1633 0.9032 0.05383 0.0
C100 C 0.36353 0.93527 0.02538 0.0
C101 C 0.34838 0.95095 0.01055 0.0
H102 H 0.3065 0.97884 0.9824 0.0
H103 H 0.22265 0.98114 0.97619 0.0
H104 H 0.32004 0.87982 0.0698 0.0
H105 H 0.38005 0.90243 0.05354 0.0
H106 H 0.3998 0.93353 0.02858 0.0
H107 H 0.37323 0.96094 1.0025 0.0
Mn108 Mn 0.11178 0.34602 1.0007 0.0
Mn109 Mn 0.03748 0.31735 0.03152 0.0
C110 C 0.03506 0.35379 0.99997 0.0
C111 C 0.15105 0.35034 0.96614 0.0
C112 C 0.09691 0.35071 0.05245 0.0
O113 O 0.14912 0.32097 1.00844 0.0
O114 O 0.09619 0.30242 0.02717 0.0
C115 C 0.02392 0.28417 0.99751 0.0
N116 N 0.00617 0.29873 0.01169 0.0
C117 C 0.92929 0.28823 1.00287 0.0
C118 C 0.94674 0.27298 0.98835 0.0
C119 C 0.99426 0.27104 0.98555 0.0
C120 C 0.96052 0.30095 0.01421 0.0
H121 H 0.06042 0.28256 0.99538 0.0
C122 C 0.13616 0.30472 0.01859 0.0
O123 O 0.16534 0.35918 0.98482 0.0
O124 O 0.11494 0.339 0.96778 0.0
N125 N 0.97847 0.32907 0.03704 0.0
C126 C 0.96711 0.34549 0.05029 0.0
C127 C 0.92086 0.35002 0.05426 0.0
C128 C 0.88672 0.3374 0.04492 0.0
C129 C 0.89917 0.32055 0.03134 0.0
C130 C 0.94584 0.31687 0.0279 0.0
H131 H 0.99315 0.35505 0.05764 0.0
O132 O 0.06529 0.36731 0.99401 0.0
O133 O 0.05037 0.33577 1.00576 0.0
O134 O 0.11779 0.35628 0.03417 0.0
O135 O 0.06712 0.33638 0.05319 0.0
C136 C 0.86713 0.30744 0.0208 0.0
C137 C 0.88217 0.29141 1.00641 0.0
H138 H 0.92397 0.26279 0.97915 0.0
H139 H 0.008 0.25938 0.97427 0.0
H140 H 0.91156 0.36313 0.06464 0.0
H141 H 0.85107 0.34091 0.0481 0.0
H142 H 0.8308 0.30974 0.02334 0.0
H143 H 0.85718 0.2817 0.99804 0.0
Mn144 Mn 0.86283 0.64375 0.74843 0.0
Mn145 Mn 0.78935 0.6733 0.77874 0.0
C146 C 0.78589 0.63621 0.74819 0.0
C147 C 0.90172 0.63852 0.71387 0.0
C148 C 0.84857 0.64024 0.80037 0.0
O149 O 0.90069 0.6689 0.75532 0.0
O150 O 0.84815 0.68794 0.77371 0.0
C151 C 0.77567 0.70575 0.74386 0.0
N152 N 0.75796 0.69157 0.75854 0.0
C153 C 0.6811 0.70221 0.74994 0.0
C154 C 0.6985 0.71706 0.73489 0.0
C155 C 0.74598 0.71873 0.73173 0.0
C156 C 0.71234 0.6896 0.76141 0.0
H157 H 0.81214 0.70715 0.74147 0.0
C158 C 0.88796 0.6854 0.76504 0.0
O159 O 0.91604 0.63009 0.73278 0.0
O160 O 0.86577 0.64999 0.71527 0.0
N161 N 0.73027 0.66191 0.78489 0.0
C162 C 0.71891 0.6459 0.79875 0.0
C163 C 0.67267 0.64169 0.8032 0.0
C164 C 0.63858 0.65425 0.79373 0.0
C165 C 0.65102 0.6707 0.77954 0.0
C166 C 0.69767 0.67405 0.77562 0.0
H167 H 0.74493 0.63643 0.80626 0.0
O168 O 0.81584 0.62247 0.74249 0.0
O169 O 0.80159 0.65429 0.75343 0.0
O170 O 0.86909 0.6342 0.78217 0.0
O171 O 0.81907 0.65468 0.80081 0.0
C172 C 0.61901 0.68373 0.76886 0.0
C173 C 0.634 0.69934 0.7539 0.0
H174 H 0.67571 0.72716 0.72556 0.0
H175 H 0.75968 0.73008 0.72005 0.0
H176 H 0.66337 0.62891 0.81408 0.0
H177 H 0.60295 0.65102 0.79732 0.0
H178 H 0.5827 0.68168 0.77175 0.0
H179 H 0.60902 0.70899 0.74544 0.0
Mn180 Mn 0.87669 0.10005 0.74872 0.0
Mn181 Mn 0.94522 0.0695 0.7807 0.0
C182 C 0.9539 0.10639 0.74997 0.0
C183 C 0.84034 0.1056 0.71358 0.0
C184 C 0.88748 0.10373 0.80086 0.0
O185 O 0.83666 0.07554 0.75495 0.0
O186 O 0.88545 0.05578 0.77492 0.0
C187 C 0.95845 0.03647 0.74649 0.0
N188 N 0.9764 0.05063 0.76112 0.0
C189 C 0.05303 0.0394 0.7529 0.0
C190 C 0.03536 0.0246 0.73786 0.0
C191 C 0.98787 0.02321 0.73456 0.0
C192 C 0.02205 0.05226 0.76421 0.0
H193 H 0.92196 0.03528 0.74398 0.0
C194 C 0.84681 0.05897 0.76522 0.0
O195 O 0.82554 0.11437 0.73219 0.0
O196 O 0.87551 0.0937 0.71557 0.0
N197 N 0.00475 0.08005 0.78768 0.0
C198 C 0.01647 0.09579 0.80185 0.0
C199 C 0.06279 0.09963 0.80652 0.0
C200 C 0.09659 0.08695 0.79698 0.0
C201 C 0.08376 0.07068 0.78263 0.0
C202 C 0.03705 0.06768 0.77852 0.0
H203 H 0.99068 0.10532 0.8095 0.0
O204 O 0.92554 0.12055 0.74355 0.0
O205 O 0.93648 0.08856 0.75499 0.0
O206 O 0.86882 0.10995 0.78224 0.0
O207 O 0.9156 0.08878 0.80203 0.0
C208 C 0.1155 0.0575 0.77198 0.0
C209 C 0.10017 0.04197 0.75699 0.0
H210 H 0.05794 0.01432 0.72867 0.0
H211 H 0.97397 0.01189 0.72292 0.0
H212 H 0.0724 0.11223 0.81759 0.0
H213 H 0.13227 0.08993 0.8007 0.0
H214 H 0.15183 0.05932 0.77496 0.0
H215 H 0.12494 0.03216 0.74862 0.0
Mn216 Mn 0.86403 0.0974 0.01663 0.0
Mn217 Mn 0.79148 0.06869 0.98481 0.0
C218 C 0.78713 0.10497 0.0165 0.0
C219 C 0.90187 0.10161 0.05161 0.0
C220 C 0.85142 0.10232 0.96479 0.0
O221 O 0.90205 0.07241 1.00917 0.0
O222 O 0.84998 0.05383 0.98989 0.0
C223 C 0.77645 0.03541 0.01854 0.0
N224 N 0.75931 0.04997 1.00418 0.0
C225 C 0.6821 0.03933 0.01197 0.0
C226 C 0.69892 0.02407 0.02666 0.0
C227 C 0.74629 0.0222 0.03008 0.0
C228 C 0.71379 0.05215 1.00109 0.0
H229 H 0.81283 0.03386 0.02115 0.0
C230 C 0.88952 0.05613 0.99894 0.0
O231 O 0.91677 0.11058 0.03313 0.0
O232 O 0.86592 0.09022 0.04955 0.0
N233 N 0.73268 0.08036 0.97857 0.0
C234 C 0.72186 0.09673 0.96515 0.0
C235 C 0.67577 0.10124 0.96066 0.0
C236 C 0.64127 0.08857 0.96959 0.0
C237 C 0.65318 0.0717 0.98325 0.0
C238 C 0.69969 0.06809 0.98729 0.0
H239 H 0.74819 0.10626 0.95798 0.0
O240 O 0.81687 0.11854 0.02294 0.0
O241 O 0.803 0.08704 0.0108 0.0
O242 O 0.87126 0.10792 0.98335 0.0
O243 O 0.82208 0.08784 0.96361 0.0
C244 C 0.62074 0.05846 0.99328 0.0
C245 C 0.63516 0.04242 1.00781 0.0
H246 H 0.67577 0.0138 0.03552 0.0
H247 H 0.75954 0.01054 0.04149 0.0
H248 H 0.66686 0.11434 0.95019 0.0
H249 H 0.60576 0.09205 0.966 0.0
H250 H 0.58453 0.06066 0.99022 0.0
H251 H 0.60983 0.03262 0.01578 0.0
Mn252 Mn 0.87587 0.64675 0.01704 0.0
Mn253 Mn 0.94928 0.67536 0.98559 0.0
C254 C 0.95258 0.63883 0.01693 0.0
C255 C 0.83793 0.64236 0.05201 0.0
C256 C 0.88877 0.64218 0.96512 0.0
O257 O 0.83848 0.67198 0.00983 0.0
O258 O 0.89095 0.69038 0.9906 0.0
C259 C 0.96444 0.7084 0.01961 0.0
N260 N 0.98151 0.69386 1.00519 0.0
C261 C 0.05879 0.70424 0.01324 0.0
C262 C 0.04205 0.71947 0.028 0.0
C263 C 0.99467 0.72145 0.03132 0.0
C264 C 0.02703 0.69158 1.00219 0.0
H265 H 0.92805 0.71004 0.02214 0.0
C266 C 0.85134 0.68823 0.99962 0.0
O267 O 0.82281 0.63364 0.03342 0.0
O268 O 0.87408 0.65363 0.05005 0.0
N269 N 0.00796 0.66355 0.97944 0.0
C270 C 0.01867 0.6472 0.96597 0.0
C271 C 0.06473 0.64259 0.96153 0.0
C272 C 0.09932 0.65514 0.97058 0.0
C273 C 0.08753 0.67197 0.98434 0.0
C274 C 0.04104 0.67568 0.98831 0.0
H275 H 0.99226 0.63774 0.95876 0.0
O276 O 0.92249 0.62534 0.02314 0.0
O277 O 0.93716 0.65689 0.0114 0.0
O278 O 0.86849 0.6366 0.98357 0.0
O279 O 0.91863 0.65646 0.96415 0.0
C280 C 0.12007 0.68506 0.99454 0.0
C281 C 0.10574 0.70104 1.00916 0.0
H282 H 0.06526 0.72961 0.03699 0.0
H283 H 0.98148 0.73309 0.04278 0.0
H284 H 0.07355 0.62951 0.95102 0.0
H285 H 0.1348 0.6516 0.96702 0.0
H286 H 0.15627 0.68276 0.99156 0.0
H287 H 0.13112 0.71073 0.01727 0.0
Mn288 Mn 0.12564 0.84854 0.76747 0.0
Mn289 Mn 0.19495 0.8188 0.73501 0.0
C290 C 0.20267 0.85521 0.76651 0.0
C291 C 0.08896 0.85328 0.80261 0.0
C292 C 0.13655 0.85312 0.71548 0.0
O293 O 0.08619 0.82401 0.76062 0.0
O294 O 0.13553 0.80465 0.74051 0.0
C295 C 0.209 0.78529 0.76855 0.0
N296 N 0.22661 0.79978 0.75424 0.0
C297 C 0.30352 0.7889 0.76237 0.0
C298 C 0.28621 0.77376 0.77707 0.0
C299 C 0.23875 0.77202 0.78026 0.0
C300 C 0.27222 0.80175 0.75125 0.0
H301 H 0.17254 0.78383 0.77098 0.0
C302 C 0.09676 0.80758 0.75018 0.0
O303 O 0.0741 0.86235 0.78418 0.0
O304 O 0.12438 0.84156 0.80043 0.0
N305 N 0.25421 0.8298 0.72832 0.0
C306 C 0.26554 0.84588 0.71455 0.0
C307 C 0.31178 0.85014 0.71013 0.0
C308 C 0.34591 0.83754 0.71949 0.0
C309 C 0.33348 0.8209 0.7334 0.0
C310 C 0.28683 0.81749 0.73729 0.0
H311 H 0.2395 0.85538 0.70705 0.0
O312 O 0.17398 0.86914 0.7732 0.0
O313 O 0.18567 0.8374 0.76108 0.0
O314 O 0.11783 0.85901 0.7342 0.0
O315 O 0.16485 0.83825 0.71403 0.0
C316 C 0.36555 0.80775 0.74384 0.0
C317 C 0.3506 0.79186 0.75844 0.0
H318 H 0.30905 0.76347 0.7861 0.0
H319 H 0.22513 0.76043 0.79165 0.0
H320 H 0.32107 0.86303 0.69941 0.0
H321 H 0.38153 0.84085 0.71599 0.0
H322 H 0.40184 0.80986 0.74099 0.0
H323 H 0.37563 0.78207 0.76666 0.0
Mn324 Mn 0.11554 0.39044 0.76845 0.0
Mn325 Mn 0.04899 0.42111 0.73558 0.0
C326 C 0.03822 0.38442 0.76641 0.0
C327 C 0.15056 0.38504 0.80395 0.0
C328 C 0.10685 0.38653 0.71627 0.0
O329 O 0.15639 0.41477 0.76242 0.0
O330 O 0.10859 0.43468 0.74204 0.0
C331 C 0.03463 0.45428 0.7695 0.0
N332 N 0.01717 0.44013 0.75472 0.0
C333 C 0.94035 0.45162 0.76197 0.0
C334 C 0.95751 0.46641 0.77715 0.0
C335 C 0.00485 0.46767 0.78102 0.0
C336 C 0.97166 0.43861 0.7511 0.0
H337 H 0.07101 0.45538 0.77244 0.0
C338 C 0.14682 0.43139 0.75208 0.0
O339 O 0.16581 0.37605 0.78556 0.0
O340 O 0.11564 0.39702 0.80156 0.0
N341 N 0.98967 0.41071 0.72794 0.0
C342 C 0.97841 0.395 0.71363 0.0
C343 C 0.93226 0.39127 0.70844 0.0
C344 C 0.8982 0.40405 0.71757 0.0
C345 C 0.91058 0.42032 0.73201 0.0
C346 C 0.95712 0.42319 0.73668 0.0
H347 H 0.00443 0.38541 0.70624 0.0
O348 O 0.06595 0.37018 0.7733 0.0
O349 O 0.05628 0.40213 0.76146 0.0
O350 O 0.12437 0.38023 0.73512 0.0
O351 O 0.07935 0.40168 0.71469 0.0
C352 C 0.87856 0.43367 0.74218 0.0
C353 C 0.89339 0.44919 0.75729 0.0
H354 H 0.93466 0.4768 0.78602 0.0
H355 H 0.01835 0.47899 0.79278 0.0
H356 H 0.92299 0.37867 0.69729 0.0
H357 H 0.86266 0.40116 0.71344 0.0
H358 H 0.84236 0.43199 0.73871 0.0
H359 H 0.86837 0.45913 0.7653 0.0
Mn360 Mn 0.12569 0.39061 0.50063 0.0
Mn361 Mn 0.19352 0.42114 0.53298 0.0
C362 C 0.20304 0.38453 0.50195 0.0
C363 C 0.08957 0.38522 0.4654 0.0
C364 C 0.13623 0.38656 0.55272 0.0
O365 O 0.08521 0.41497 0.50701 0.0
O366 O 0.13367 0.43474 0.52716 0.0
C367 C 0.20655 0.45447 0.4991 0.0
N368 N 0.22459 0.44026 0.51363 0.0
C369 C 0.30111 0.4518 0.5057 0.0
C370 C 0.28334 0.46666 0.49078 0.0
C371 C 0.23587 0.46792 0.48737 0.0
C372 C 0.27023 0.43874 0.51681 0.0
H373 H 0.17007 0.45557 0.49651 0.0
C374 C 0.09515 0.43153 0.51736 0.0
O375 O 0.07484 0.37625 0.48392 0.0
O376 O 0.12456 0.3972 0.46753 0.0
N377 N 0.25315 0.41072 0.53997 0.0
C378 C 0.26499 0.39489 0.55399 0.0
C379 C 0.31134 0.39112 0.55867 0.0
C380 C 0.34503 0.40397 0.54931 0.0
C381 C 0.33206 0.42035 0.53515 0.0
C382 C 0.28534 0.42325 0.53099 0.0
H383 H 0.23927 0.38523 0.56153 0.0
O384 O 0.17499 0.37032 0.49534 0.0
O385 O 0.18524 0.40226 0.50709 0.0
O386 O 0.11786 0.38039 0.53402 0.0
O387 O 0.16401 0.40163 0.55408 0.0
C388 C 0.36367 0.43376 0.52475 0.0
C389 C 0.34824 0.44936 0.50989 0.0
H390 H 0.30584 0.4771 0.48175 0.0
H391 H 0.2219 0.47929 0.47581 0.0
H392 H 0.32106 0.37843 0.56959 0.0
H393 H 0.38073 0.40105 0.55303 0.0
H394 H 0.4 0.43205 0.52782 0.0
H395 H 0.37293 0.45934 0.5017 0.0
Mn396 Mn 0.11436 0.84832 0.50015 0.0
Mn397 Mn 0.04474 0.8186 0.53246 0.0
C398 C 0.03726 0.85484 0.5007 0.0
C399 C 0.1515 0.85304 0.46513 0.0
C400 C 0.10238 0.85314 0.55206 0.0
O401 O 0.15394 0.8239 0.5073 0.0
O402 O 0.1045 0.80459 0.52742 0.0
C403 C 0.03194 0.78484 0.4991 0.0
N404 N 0.0138 0.79937 0.51321 0.0
C405 C 0.93723 0.7882 0.50472 0.0
C406 C 0.95509 0.77303 0.49023 0.0
C407 C 0.00265 0.77141 0.48733 0.0
C408 C 0.9681 0.8012 0.51592 0.0
H409 H 0.06848 0.78348 0.49689 0.0
C410 C 0.1434 0.80754 0.51788 0.0
O411 O 0.16601 0.86219 0.48357 0.0
O412 O 0.11622 0.84122 0.46723 0.0
N413 N 0.98517 0.82945 0.53874 0.0
C414 C 0.97329 0.84559 0.5523 0.0
C415 C 0.9269 0.84972 0.55645 0.0
C416 C 0.89317 0.83695 0.547 0.0
C417 C 0.90615 0.82027 0.53328 0.0
C418 C 0.95293 0.81698 0.52968 0.0
H419 H -0.00098 0.85523 0.55984 0.0
O420 O 0.06596 0.8688 0.49411 0.0
O421 O 0.05431 0.83707 0.50632 0.0
O422 O 0.12154 0.85892 0.53341 0.0
O423 O 0.07407 0.83827 0.55346 0.0
C424 C 0.87451 0.80696 0.52275 0.0
C425 C 0.89002 0.79104 0.50835 0.0
H426 H 0.93262 0.76262 0.48115 0.0
H427 H 0.0167 0.7598 0.4761 0.0
H428 H 0.91718 0.86264 0.56702 0.0
H429 H 0.85743 0.84017 0.55029 0.0
H430 H 0.83812 0.809 0.52537 0.0
H431 H 0.86533 0.78113 0.50005 0.0
Mn432 Mn 0.86328 0.14149 0.24898 0.0
Mn433 Mn 0.79472 0.17199 0.28098 0.0
C434 C 0.78604 0.13522 0.25011 0.0
C435 C 0.89975 0.13607 0.21385 0.0
C436 C 0.85224 0.13768 0.3011 0.0
O437 O 0.90338 0.16593 0.25534 0.0
O438 O 0.85461 0.18566 0.27535 0.0
C439 C 0.78193 0.20515 0.24688 0.0
N440 N 0.76379 0.19098 0.26143 0.0
C441 C 0.6873 0.20241 0.25323 0.0
C442 C 0.70516 0.21722 0.23828 0.0
C443 C 0.75267 0.21852 0.235 0.0
C444 C 0.71812 0.18943 0.26449 0.0
H445 H 0.81844 0.20628 0.24441 0.0
C446 C 0.89327 0.18246 0.26569 0.0
O447 O 0.91446 0.1272 0.23242 0.0
O448 O 0.86458 0.14796 0.21587 0.0
N449 N 0.73508 0.16151 0.28782 0.0
C450 C 0.72317 0.14571 0.30188 0.0
C451 C 0.6768 0.14195 0.3065 0.0
C452 C 0.64315 0.15475 0.29703 0.0
C453 C 0.65618 0.17106 0.28278 0.0
C454 C 0.70293 0.17399 0.27871 0.0
H455 H 0.74885 0.13607 0.30945 0.0
O456 O 0.81437 0.12104 0.24369 0.0
O457 O 0.80352 0.15301 0.25522 0.0
O458 O 0.87102 0.13152 0.28249 0.0
O459 O 0.82409 0.15262 0.30228 0.0
C460 C 0.62461 0.18437 0.2722 0.0
C461 C 0.64013 0.19992 0.2573 0.0
H462 H 0.68271 0.2276 0.22913 0.0
H463 H 0.76672 0.22986 0.22342 0.0
H464 H 0.66704 0.12931 0.31748 0.0
H465 H 0.60743 0.15183 0.30072 0.0
H466 H 0.58826 0.18262 0.27517 0.0
H467 H 0.61548 0.20983 0.24897 0.0
Mn468 Mn 0.87422 0.60075 0.24952 0.0
Mn469 Mn 0.94249 0.56985 0.2812 0.0
C470 C 0.95139 0.60711 0.25109 0.0
C471 C 0.83844 0.60659 0.21425 0.0
C472 C 0.88432 0.60373 0.30178 0.0
O473 O 0.83418 0.57616 0.25527 0.0
O474 O 0.8829 0.55614 0.27497 0.0
C475 C 0.95644 0.5373 0.24649 0.0
N476 N 0.97409 0.55128 0.26141 0.0
C477 C 0.05092 0.54031 0.25324 0.0
C478 C 0.03357 0.52568 0.23791 0.0
C479 C 0.98613 0.52425 0.23444 0.0
C480 C 0.01968 0.55295 0.26468 0.0
H481 H 0.91999 0.53607 0.24385 0.0
C482 C 0.84433 0.55944 0.26525 0.0
O483 O 0.82328 0.61521 0.23289 0.0
O484 O 0.87361 0.59472 0.21628 0.0
N485 N 0.00184 0.5804 0.28855 0.0
C486 C 0.01324 0.59601 0.30297 0.0
C487 C 0.05947 0.5999 0.3078 0.0
C488 C 0.0935 0.58741 0.29816 0.0
C489 C 0.081 0.57128 0.28354 0.0
C490 C 0.03436 0.56821 0.27928 0.0
H491 H 0.98726 0.6054 0.31068 0.0
O492 O 0.92308 0.62134 0.24479 0.0
O493 O 0.93395 0.58923 0.25581 0.0
O494 O 0.86593 0.61025 0.28321 0.0
O495 O 0.91243 0.58877 0.30275 0.0
C496 C 0.11299 0.5583 0.27277 0.0
C497 C 0.09798 0.54293 0.2575 0.0
H498 H 0.05635 0.51557 0.22861 0.0
H499 H 0.97248 0.51306 0.22256 0.0
H500 H 0.06883 0.61242 0.31905 0.0
H501 H 0.12911 0.59044 0.30199 0.0
H502 H 0.14927 0.56017 0.27587 0.0
H503 H 0.12295 0.53328 0.24904 0.0
Mn504 Mn 0.86544 0.59603 0.5182 0.0
Mn505 Mn 0.79134 0.56729 0.48732 0.0
C506 C 0.78856 0.60365 0.51894 0.0
C507 C 0.90457 0.60061 0.55281 0.0
C508 C 0.85051 0.60077 0.46642 0.0
O509 O 0.90299 0.57095 0.51055 0.0
O510 O 0.85009 0.55244 0.49174 0.0
C511 C 0.77788 0.53404 0.52127 0.0
N512 N 0.76008 0.54859 0.50709 0.0
C513 C 0.68325 0.53796 0.5158 0.0
C514 C 0.70074 0.52272 0.53031 0.0
C515 C 0.74827 0.52085 0.53317 0.0
C516 C 0.71443 0.55075 0.50451 0.0
H517 H 0.81438 0.53249 0.52345 0.0
C518 C 0.88999 0.55468 0.50042 0.0
O519 O 0.91882 0.60936 0.53407 0.0
O520 O 0.86868 0.58912 0.55119 0.0
N521 N 0.73227 0.57895 0.48177 0.0
C522 C 0.72083 0.59536 0.46855 0.0
C523 C 0.67456 0.59988 0.4646 0.0
C524 C 0.64047 0.5872 0.4739 0.0
C525 C 0.653 0.57031 0.4874 0.0
C526 C 0.69968 0.56668 0.49086 0.0
H527 H 0.74683 0.60493 0.46116 0.0
O528 O 0.81868 0.61724 0.52484 0.0
O529 O 0.80408 0.58567 0.51314 0.0
O530 O 0.87135 0.60634 0.48472 0.0
O531 O 0.82088 0.58639 0.46567 0.0
C532 C 0.62102 0.55712 0.49787 0.0
C533 C 0.63611 0.54108 0.51222 0.0
H534 H 0.67801 0.51248 0.53947 0.0
H535 H 0.76204 0.5092 0.54445 0.0
H536 H 0.6652 0.613 0.45426 0.0
H537 H 0.60482 0.59068 0.47072 0.0
H538 H 0.58468 0.55937 0.49529 0.0
H539 H 0.61117 0.53131 0.52054 0.0
Mn540 Mn 0.87705 0.14544 0.51678 0.0
Mn541 Mn 0.95036 0.17387 0.48509 0.0
C542 C 0.95386 0.13772 0.51697 0.0
C543 C 0.83871 0.14127 0.55164 0.0
C544 C 0.89052 0.14026 0.46501 0.0
O545 O 0.83939 0.17049 0.50912 0.0
O546 O 0.89178 0.1888 0.48973 0.0
C547 C 0.96475 0.20735 0.51864 0.0
N548 N 0.98216 0.19269 0.50449 0.0
C549 C 0.05922 0.20335 0.51261 0.0
C550 C 0.04213 0.2187 0.52709 0.0
C551 C 0.99469 0.22062 0.53024 0.0
C552 C 0.02774 0.19048 0.50166 0.0
H553 H 0.92832 0.20894 0.52104 0.0
C554 C 0.85212 0.18665 0.4987 0.0
O555 O 0.82397 0.13235 0.5331 0.0
O556 O 0.87471 0.15265 0.5497 0.0
N557 N 0.00926 0.16215 0.47924 0.0
C558 C 0.02033 0.1457 0.46599 0.0
C559 C 0.0665 0.14117 0.46174 0.0
C560 C 0.10083 0.15389 0.47074 0.0
C561 C 0.08868 0.17083 0.48425 0.0
C562 C 0.0421 0.17446 0.48804 0.0
H563 H 0.99412 0.13613 0.45879 0.0
O564 O 0.92388 0.12422 0.52331 0.0
O565 O 0.93828 0.15568 0.51115 0.0
O566 O 0.87016 0.13487 0.4835 0.0
O567 O 0.92018 0.15461 0.46386 0.0
C568 C 0.12094 0.1841 0.49437 0.0
C569 C 0.10625 0.20021 0.50871 0.0
H570 H 0.06512 0.22901 0.536 0.0
H571 H 0.98123 0.23235 0.54149 0.0
H572 H 0.07559 0.12801 0.4514 0.0
H573 H 0.1364 0.15039 0.46733 0.0
H574 H 0.1572 0.18186 0.49152 0.0
H575 H 0.13143 0.21005 0.51676 0.0
Mn576 Mn 0.62538 0.35071 0.76659 0.0
Mn577 Mn 0.69251 0.31996 0.73414 0.0
C578 C 0.70273 0.3567 0.76492 0.0
C579 C 0.58979 0.35622 0.80194 0.0
C580 C 0.63501 0.3545 0.71444 0.0
O581 O 0.58468 0.32636 0.76047 0.0
O582 O 0.63278 0.30638 0.74036 0.0
C583 C 0.70624 0.28682 0.76817 0.0
N584 N 0.72398 0.30096 0.75346 0.0
C585 C 0.80068 0.28954 0.76116 0.0
C586 C 0.78322 0.27475 0.77626 0.0
C587 C 0.73581 0.27346 0.77987 0.0
C588 C 0.76956 0.3025 0.75008 0.0
H589 H 0.66981 0.2857 0.77091 0.0
C590 C 0.59441 0.3097 0.75026 0.0
O591 O 0.57485 0.36515 0.78345 0.0
O592 O 0.62472 0.34421 0.79972 0.0
N593 N 0.75198 0.33037 0.72678 0.0
C594 C 0.76353 0.34612 0.71258 0.0
C595 C 0.80979 0.34992 0.70771 0.0
C596 C 0.84369 0.33717 0.71705 0.0
C597 C 0.83102 0.32086 0.73137 0.0
C598 C 0.78437 0.31792 0.73573 0.0
H599 H 0.73764 0.35569 0.70505 0.0
O600 O 0.67487 0.37097 0.77161 0.0
O601 O 0.68475 0.33898 0.75993 0.0
O602 O 0.61714 0.36083 0.7332 0.0
O603 O 0.66256 0.33935 0.71304 0.0
C604 C 0.86286 0.30755 0.74175 0.0
C605 C 0.84773 0.29201 0.75677 0.0
H606 H 0.80592 0.26439 0.78528 0.0
H607 H 0.72208 0.26215 0.79157 0.0
H608 H 0.81928 0.36255 0.69666 0.0
H609 H 0.87932 0.34013 0.7132 0.0
H610 H 0.89913 0.30928 0.73853 0.0
H611 H 0.8726 0.28211 0.76494 0.0
Mn612 Mn 0.61222 0.89564 0.76717 0.0
Mn613 Mn 0.53975 0.92445 0.73541 0.0
C614 C 0.53543 0.88792 0.7668 0.0
C615 C 0.6501 0.89137 0.80209 0.0
C616 C 0.59997 0.89097 0.71531 0.0
O617 O 0.65017 0.92066 0.75984 0.0
O618 O 0.59814 0.93935 0.74068 0.0
C619 C 0.52429 0.95745 0.76942 0.0
N620 N 0.50733 0.94297 0.7549 0.0
C621 C 0.42999 0.95338 0.76276 0.0
C622 C 0.44662 0.96855 0.77762 0.0
C623 C 0.49397 0.9705 0.78108 0.0
C624 C 0.46184 0.94072 0.75177 0.0
H625 H 0.56065 0.95906 0.77205 0.0
C626 C 0.63769 0.93699 0.7497 0.0
O627 O 0.66504 0.88248 0.78358 0.0
O628 O 0.61401 0.90269 0.80011 0.0
N629 N 0.48106 0.91277 0.72892 0.0
C630 C 0.47043 0.89661 0.71515 0.0
C631 C 0.42441 0.89212 0.71046 0.0
C632 C 0.38977 0.90461 0.71954 0.0
C633 C 0.40147 0.92129 0.73356 0.0
C634 C 0.44793 0.92489 0.73776 0.0
H635 H 0.49687 0.88723 0.70783 0.0
O636 O 0.56522 0.8744 0.7733 0.0
O637 O 0.55116 0.90593 0.76126 0.0
O638 O 0.61964 0.88528 0.73386 0.0
O639 O 0.57064 0.90547 0.71413 0.0
C640 C 0.36887 0.93434 0.74375 0.0
C641 C 0.38309 0.95024 0.75851 0.0
H642 H 0.42335 0.97869 0.78658 0.0
H643 H 0.50707 0.98209 0.79262 0.0
H644 H 0.41567 0.87919 0.69969 0.0
H645 H 0.35433 0.90116 0.71578 0.0
H646 H 0.3327 0.93211 0.74061 0.0
H647 H 0.35765 0.95991 0.76659 0.0
Mn648 Mn 0.62772 0.89498 0.49975 0.0
Mn649 Mn 0.70066 0.92373 0.53129 0.0
C650 C 0.70451 0.88721 0.49989 0.0
C651 C 0.58949 0.89072 0.46492 0.0
C652 C 0.6406 0.89029 0.55158 0.0
O653 O 0.58992 0.92002 0.50716 0.0
O654 O 0.64219 0.93863 0.52625 0.0
C655 C 0.7156 0.95678 0.49727 0.0
N656 N 0.73278 0.94229 0.51172 0.0
C657 C 0.80998 0.95282 0.50372 0.0
C658 C 0.79313 0.968 0.48893 0.0
C659 C 0.74574 0.96988 0.48557 0.0
C660 C 0.77831 0.9401 0.51474 0.0
H661 H 0.6792 0.95835 0.49472 0.0
C662 C 0.60254 0.93631 0.51733 0.0
O663 O 0.57469 0.88184 0.48347 0.0
O664 O 0.62564 0.90202 0.46681 0.0
N665 N 0.75945 0.91208 0.53756 0.0
C666 C 0.77028 0.89589 0.55126 0.0
C667 C 0.81637 0.89148 0.55587 0.0
C668 C 0.85085 0.90405 0.54678 0.0
C669 C 0.83894 0.92073 0.53282 0.0
C670 C 0.79243 0.92427 0.5287 0.0
H671 H 0.74396 0.88644 0.55855 0.0
O672 O 0.67459 0.87371 0.4935 0.0
O673 O 0.6889 0.90523 0.50547 0.0
O674 O 0.62059 0.88465 0.53309 0.0
O675 O 0.67009 0.90473 0.55266 0.0
C676 C 0.87137 0.93386 0.5226 0.0
C677 C 0.85693 0.94976 0.50789 0.0
H678 H 0.81626 0.97819 0.47995 0.0
H679 H 0.73247 0.98148 0.47408 0.0
H680 H 0.82527 0.87853 0.56658 0.0
H681 H 0.88634 0.90067 0.55049 0.0
H682 H 0.90758 0.93169 0.52568 0.0
H683 H 0.88225 0.95949 0.49979 0.0
Mn684 Mn 0.61571 0.35067 0.49869 0.0
Mn685 Mn 0.54862 0.32008 0.53138 0.0
C686 C 0.53838 0.35674 0.50048 0.0
C687 C 0.65108 0.35612 0.46328 0.0
C688 C 0.6063 0.35465 0.55085 0.0
O689 O 0.65638 0.3263 0.50482 0.0
O690 O 0.60833 0.30651 0.52521 0.0
C691 C 0.53482 0.28683 0.4975 0.0
N692 N 0.51711 0.30101 0.51218 0.0
C693 C 0.44042 0.28945 0.50471 0.0
C694 C 0.45783 0.27463 0.48963 0.0
C695 C 0.50523 0.2734 0.48592 0.0
C696 C 0.47155 0.3025 0.51564 0.0
H697 H 0.57123 0.28575 0.49469 0.0
C698 C 0.64666 0.30973 0.51523 0.0
O699 O 0.66618 0.36506 0.48173 0.0
O700 O 0.61615 0.34412 0.46557 0.0
N701 N 0.48916 0.33048 0.53877 0.0
C702 C 0.47766 0.34624 0.55297 0.0
C703 C 0.43144 0.34995 0.55798 0.0
C704 C 0.39754 0.33711 0.54881 0.0
C705 C 0.41016 0.3208 0.53447 0.0
C706 C 0.45678 0.31795 0.52996 0.0
H707 H 0.50356 0.35588 0.56039 0.0
O708 O 0.56628 0.37096 0.49371 0.0
O709 O 0.5563 0.33901 0.50549 0.0
O710 O 0.62422 0.36086 0.53206 0.0
O711 O 0.57862 0.33956 0.55235 0.0
C712 C 0.37832 0.3074 0.52424 0.0
C713 C 0.3934 0.29185 0.50922 0.0
H714 H 0.43513 0.2642 0.48072 0.0
H715 H 0.51892 0.26206 0.47424 0.0
H716 H 0.42198 0.36258 0.56905 0.0
H717 H 0.36194 0.33998 0.5528 0.0
H718 H 0.34207 0.30906 0.52758 0.0
H719 H 0.36852 0.28187 0.50117 0.0
Mn720 Mn 0.36146 0.64652 0.25283 0.0
Mn721 Mn 0.28895 0.67556 0.2843 0.0
C722 C 0.28467 0.63873 0.25344 0.0
C723 C 0.39873 0.64175 0.21774 0.0
C724 C 0.34967 0.64249 0.30486 0.0
O725 O 0.3992 0.67176 0.25954 0.0
O726 O 0.34725 0.69046 0.27876 0.0
C727 C 0.27318 0.70825 0.24994 0.0
N728 N 0.25636 0.69388 0.26465 0.0
C729 C 0.17895 0.70421 0.25685 0.0
C730 C 0.19543 0.71926 0.24181 0.0
C731 C 0.24275 0.72119 0.23822 0.0
C732 C 0.2109 0.69166 0.26791 0.0
H733 H 0.30952 0.70984 0.24721 0.0
C734 C 0.38666 0.68814 0.26957 0.0
O735 O 0.4141 0.63318 0.23636 0.0
O736 O 0.36266 0.65308 0.21972 0.0
N737 N 0.23036 0.66386 0.29094 0.0
C738 C 0.21988 0.64765 0.30468 0.0
C739 C 0.17389 0.64311 0.30939 0.0
C740 C 0.13915 0.65557 0.30034 0.0
C741 C 0.15071 0.67225 0.28631 0.0
C742 C 0.19713 0.67591 0.28208 0.0
H743 H 0.2464 0.63827 0.3119 0.0
O744 O 0.3145 0.62512 0.24723 0.0
O745 O 0.30038 0.65681 0.25867 0.0
O746 O 0.36943 0.63668 0.28636 0.0
O747 O 0.31998 0.65684 0.30582 0.0
C748 C 0.118 0.68523 0.27609 0.0
C749 C 0.13208 0.70106 0.2612 0.0
H750 H 0.17206 0.72932 0.23279 0.0
H751 H 0.25573 0.7327 0.22654 0.0
H752 H 0.16525 0.63013 0.32012 0.0
H753 H 0.10373 0.65206 0.30412 0.0
H754 H 0.08186 0.68298 0.27927 0.0
H755 H 0.10656 0.71067 0.25308 0.0
Mn756 Mn 0.37541 0.09731 0.25276 0.0
Mn757 Mn 0.44786 0.06842 0.28441 0.0
C758 C 0.45237 0.10475 0.25279 0.0
C759 C 0.33745 0.10167 0.21783 0.0
C760 C 0.38837 0.10213 0.30459 0.0
O761 O 0.3372 0.07239 0.26021 0.0
O762 O 0.38918 0.05369 0.2794 0.0
C763 C 0.46233 0.03516 0.2506 0.0
N764 N 0.47971 0.04967 0.26496 0.0
C765 C 0.55676 0.03889 0.25702 0.0
C766 C 0.53969 0.02368 0.24233 0.0
C767 C 0.49227 0.02191 0.23899 0.0
C768 C 0.52527 0.05175 0.26797 0.0
H769 H 0.42592 0.03369 0.24804 0.0
C770 C 0.34961 0.05606 0.2704 0.0
O771 O 0.32271 0.11063 0.23635 0.0
O772 O 0.37328 0.0902 0.21982 0.0
N773 N 0.50682 0.07996 0.29057 0.0
C774 C 0.5179 0.0963 0.304 0.0
C775 C 0.56407 0.10071 0.30841 0.0
C776 C 0.59838 0.08799 0.29941 0.0
C777 C 0.58621 0.07115 0.28574 0.0
C778 C 0.53963 0.06765 0.28178 0.0
H779 H 0.49171 0.10588 0.31121 0.0
O780 O 0.42272 0.11838 0.24643 0.0
O781 O 0.43637 0.08683 0.25847 0.0
O782 O 0.36845 0.10778 0.28608 0.0
O783 O 0.41761 0.0876 0.3057 0.0
C784 C 0.61845 0.05787 0.27564 0.0
C785 C 0.60376 0.04188 0.26111 0.0
H786 H 0.56267 0.01338 0.23341 0.0
H787 H 0.47883 0.01029 0.22757 0.0
H788 H 0.57318 0.11379 0.31888 0.0
H789 H 0.63394 0.09139 0.30294 0.0
H790 H 0.65469 0.06 0.27864 0.0
H791 H 0.62893 0.03204 0.25307 0.0
Mn792 Mn 0.36403 0.09948 0.5207 0.0
Mn793 Mn 0.29476 0.0692 0.48881 0.0
C794 C 0.28688 0.10598 0.51973 0.0
C795 C 0.4008 0.10489 0.55576 0.0
C796 C 0.35254 0.10338 0.4686 0.0
O797 O 0.40372 0.07492 0.51427 0.0
O798 O 0.35454 0.05537 0.49426 0.0
C799 C 0.28189 0.03603 0.52289 0.0
N800 N 0.26379 0.05026 0.50841 0.0
C801 C 0.18723 0.03904 0.51683 0.0
C802 C 0.20506 0.02416 0.53171 0.0
C803 C 0.25259 0.02273 0.53484 0.0
C804 C 0.2181 0.05194 0.50549 0.0
H805 H 0.31841 0.0348 0.52526 0.0
C806 C 0.39331 0.05843 0.50388 0.0
O807 O 0.41551 0.11367 0.53713 0.0
O808 O 0.36552 0.09305 0.55383 0.0
N809 N 0.23518 0.07983 0.48214 0.0
C810 C 0.22333 0.09565 0.46811 0.0
C811 C 0.17696 0.09954 0.4636 0.0
C812 C 0.14325 0.08683 0.47317 0.0
C813 C 0.15621 0.07048 0.48739 0.0
C814 C 0.20296 0.06743 0.49133 0.0
H815 H 0.24905 0.10522 0.46045 0.0
O816 O 0.31549 0.12007 0.52609 0.0
O817 O 0.30403 0.08813 0.51459 0.0
O818 O 0.37162 0.10945 0.48718 0.0
O819 O 0.32414 0.08853 0.46747 0.0
C820 C 0.12458 0.05726 0.49806 0.0
C821 C 0.14005 0.04166 0.51291 0.0
H822 H 0.18257 0.01384 0.54092 0.0
H823 H 0.2666 0.01134 0.54637 0.0
H824 H 0.16726 0.1122 0.45264 0.0
H825 H 0.10753 0.08983 0.46958 0.0
H826 H 0.08821 0.05911 0.4952 0.0
H827 H 0.11535 0.03181 0.5213 0.0
Mn828 Mn 0.37963 0.64425 0.52159 0.0
Mn829 Mn 0.45288 0.67387 0.4912 0.0
C830 C 0.45657 0.63671 0.52165 0.0
C831 C 0.341 0.6389 0.5562 0.0
C832 C 0.39349 0.64085 0.4696 0.0
O833 O 0.34172 0.66941 0.51485 0.0
O834 O 0.39407 0.68847 0.49634 0.0
C835 C 0.46672 0.70627 0.52612 0.0
N836 N 0.48436 0.69212 0.51139 0.0
C837 C 0.56126 0.70274 0.51995 0.0
C838 C 0.54393 0.71757 0.53505 0.0
C839 C 0.49645 0.71924 0.53825 0.0
C840 C 0.52998 0.69015 0.50848 0.0
H841 H 0.43025 0.70767 0.52854 0.0
C842 C 0.35433 0.68591 0.50509 0.0
O843 O 0.32654 0.63053 0.53728 0.0
O844 O 0.37694 0.65038 0.55478 0.0
N845 N 0.51195 0.66251 0.48495 0.0
C846 C 0.52326 0.64652 0.47106 0.0
C847 C 0.56947 0.64232 0.46655 0.0
C848 C 0.60361 0.65487 0.47601 0.0
C849 C 0.59122 0.67128 0.49025 0.0
C850 C 0.54459 0.67463 0.49421 0.0
H851 H 0.4972 0.63705 0.46357 0.0
O852 O 0.42667 0.62296 0.52736 0.0
O853 O 0.44083 0.65481 0.5165 0.0
O854 O 0.37308 0.6348 0.48782 0.0
O855 O 0.42306 0.65527 0.46914 0.0
C856 C 0.62328 0.68429 0.50094 0.0
C857 C 0.60834 0.69988 0.51595 0.0
H858 H 0.56675 0.72765 0.54437 0.0
H859 H 0.4828 0.73056 0.54996 0.0
H860 H 0.57874 0.62955 0.45565 0.0
H861 H 0.63922 0.65164 0.47238 0.0
H862 H 0.65958 0.68224 0.49803 0.0
H863 H 0.63337 0.70951 0.52441 0.0
Mn864 Mn 0.62345 0.85176 0.26716 0.0
Mn865 Mn 0.69034 0.82124 0.23431 0.0
C866 C 0.70076 0.85778 0.26542 0.0
C867 C 0.588 0.85695 0.30257 0.0
C868 C 0.63274 0.85596 0.21507 0.0
O869 O 0.58266 0.82751 0.26079 0.0
O870 O 0.6307 0.8076 0.24055 0.0
C871 C 0.70446 0.78791 0.26807 0.0
N872 N 0.72203 0.80215 0.25343 0.0
C873 C 0.79884 0.79078 0.26094 0.0
C874 C 0.78155 0.77589 0.27597 0.0
C875 C 0.73416 0.77453 0.27963 0.0
C876 C 0.76759 0.80376 0.25 0.0
H877 H 0.66804 0.78674 0.27086 0.0
C878 C 0.59235 0.81089 0.25047 0.0
O879 O 0.57301 0.86607 0.2842 0.0
O880 O 0.6229 0.84495 0.30019 0.0
N881 N 0.74972 0.83173 0.22689 0.0
C882 C 0.76109 0.84752 0.2127 0.0
C883 C 0.80729 0.85136 0.20775 0.0
C884 C 0.84132 0.83862 0.21699 0.0
C885 C 0.82883 0.82226 0.23127 0.0
C886 C 0.78223 0.81927 0.23572 0.0
H887 H 0.73511 0.85707 0.20523 0.0
O888 O 0.67295 0.87197 0.27235 0.0
O889 O 0.68276 0.8401 0.26028 0.0
O890 O 0.61512 0.8622 0.23392 0.0
O891 O 0.66014 0.84076 0.21346 0.0
C892 C 0.8608 0.80894 0.24153 0.0
C893 C 0.84585 0.79332 0.25649 0.0
H894 H 0.80435 0.7655 0.28488 0.0
H895 H 0.72057 0.76314 0.29128 0.0
H896 H 0.81664 0.86402 0.19671 0.0
H897 H 0.87691 0.84161 0.21306 0.0
H898 H 0.89704 0.81071 0.23824 0.0
H899 H 0.87082 0.7834 0.26456 0.0
Mn900 Mn 0.6115 0.39613 0.26676 0.0
Mn901 Mn 0.53714 0.42477 0.23594 0.0
C902 C 0.53481 0.3883 0.26745 0.0
C903 C 0.65075 0.39175 0.30132 0.0
C904 C 0.59673 0.39148 0.215 0.0
O905 O 0.64876 0.42123 0.25909 0.0
O906 O 0.59579 0.43975 0.24035 0.0
C907 C 0.52339 0.4579 0.26999 0.0
N908 N 0.50572 0.44334 0.25579 0.0
C909 C 0.42879 0.45373 0.26462 0.0
C910 C 0.44614 0.46898 0.27916 0.0
C911 C 0.49366 0.47098 0.28198 0.0
C912 C 0.46008 0.44107 0.25325 0.0
H913 H 0.55988 0.45954 0.27214 0.0
C914 C 0.63574 0.43748 0.24896 0.0
O915 O 0.66509 0.38298 0.28261 0.0
O916 O 0.61463 0.40308 0.29972 0.0
N917 N 0.47819 0.413 0.23038 0.0
C918 C 0.46692 0.3966 0.21709 0.0
C919 C 0.42069 0.39202 0.2131 0.0
C920 C 0.38648 0.40458 0.22248 0.0
C921 C 0.39884 0.42142 0.23609 0.0
C922 C 0.44549 0.42515 0.23954 0.0
H923 H 0.49302 0.38708 0.20971 0.0
O924 O 0.56508 0.37479 0.2734 0.0
O925 O 0.55007 0.40634 0.2617 0.0
O926 O 0.6176 0.38592 0.23329 0.0
O927 O 0.5669 0.40579 0.21426 0.0
C928 C 0.36673 0.43448 0.24665 0.0
C929 C 0.38168 0.4505 0.26107 0.0
H930 H 0.42332 0.47914 0.28838 0.0
H931 H 0.50732 0.48263 0.29328 0.0
H932 H 0.41147 0.37892 0.20269 0.0
H933 H 0.35086 0.40103 0.21928 0.0
H934 H 0.33041 0.43214 0.2441 0.0
H935 H 0.35664 0.46018 0.26945 0.0
Mn936 Mn 0.62696 0.39568 0.9988 0.0
Mn937 Mn 0.70051 0.42441 0.03001 0.0
C938 C 0.70372 0.38794 0.99851 0.0
C939 C 0.58837 0.39133 0.96405 0.0
C940 C 0.64073 0.39104 0.05063 0.0
O941 O 0.58935 0.42071 1.00635 0.0
O942 O 0.64187 0.4393 0.02532 0.0
C943 C 0.71477 0.45755 0.99602 0.0
N944 N 0.73223 0.44302 0.01032 0.0
C945 C 0.80928 0.45352 1.00192 0.0
C946 C 0.79214 0.46874 0.98727 0.0
C947 C 0.74468 0.47067 0.98419 0.0
C948 C 0.77782 0.44081 0.01311 0.0
H949 H 0.67832 0.45915 0.99369 0.0
C950 C 0.60207 0.43697 0.01656 0.0
O951 O 0.57375 0.3825 0.98267 0.0
O952 O 0.62442 0.40269 0.96585 0.0
N953 N 0.7594 0.41273 0.03592 0.0
C954 C 0.77048 0.39641 0.04937 0.0
C955 C 0.81664 0.39194 0.05368 0.0
C956 C 0.85097 0.40453 0.04447 0.0
C957 C 0.8388 0.4213 0.0307 0.0
C958 C 0.79222 0.42492 0.02692 0.0
H959 H 0.74428 0.3869 0.05668 0.0
O960 O 0.67365 0.37442 0.99236 0.0
O961 O 0.68823 0.40596 1.0042 0.0
O962 O 0.62031 0.38542 0.03224 0.0
O963 O 0.6704 0.4054 0.05153 0.0
C964 C 0.87106 0.43441 0.02031 0.0
C965 C 0.85633 0.45038 1.00576 0.0
H966 H 0.8151 0.47893 0.97818 0.0
H967 H 0.73118 0.4823 0.97282 0.0
H968 H 0.82572 0.37891 0.06423 0.0
H969 H 0.88654 0.40108 0.04792 0.0
H970 H 0.90733 0.43216 0.02311 0.0
H971 H 0.88148 0.4601 0.99753 0.0
Mn972 Mn 0.61558 0.85224 0.99978 0.0
Mn973 Mn 0.54822 0.82181 0.0325 0.0
C974 C 0.53826 0.8583 1.00131 0.0
C975 C 0.65131 0.85742 0.96444 0.0
C976 C 0.60567 0.85651 0.05185 0.0
O977 O 0.65622 0.82795 1.00624 0.0
O978 O 0.60797 0.80819 0.02654 0.0
C979 C 0.5347 0.78838 0.9988 0.0
N980 N 0.51687 0.80264 0.01334 0.0
C981 C 0.44023 0.79109 1.00572 0.0
C982 C 0.45778 0.77619 0.99078 0.0
C983 C 0.50521 0.77491 0.98722 0.0
C984 C 0.47127 0.80418 0.01666 0.0
H985 H 0.57114 0.78727 0.9961 0.0
C986 C 0.64641 0.81141 0.01667 0.0
O987 O 0.6662 0.86652 0.98284 0.0
O988 O 0.61638 0.84543 0.96674 0.0
N989 N 0.4887 0.83226 0.03968 0.0
C990 C 0.47708 0.84807 0.05377 0.0
C991 C 0.4308 0.85184 0.05863 0.0
C992 C 0.39697 0.83898 0.04941 0.0
C993 C 0.40972 0.8226 0.0352 0.0
C994 C 0.45638 0.8197 0.03085 0.0
H995 H 0.50291 0.85772 0.06123 0.0
O996 O 0.56619 0.87247 0.99447 0.0
O997 O 0.55614 0.8406 1.00651 0.0
O998 O 0.62369 0.86266 0.03305 0.0
O999 O 0.57806 0.8414 0.05339 0.0
C1000 C 0.37795 0.80917 0.02496 0.0
C1001 C 0.39317 0.79354 0.01008 0.0
H1002 H 0.43514 0.76573 0.98187 0.0
H1003 H 0.519 0.76351 0.97565 0.0
H1004 H 0.42125 0.86452 0.0696 0.0
H1005 H 0.36133 0.8419 0.05328 0.0
H1006 H 0.34168 0.81087 0.02818 0.0
H1007 H 0.36835 0.78354 1.00202 0.0
Mn1008 Mn 0.36417 0.14533 0.75251 0.0
Mn1009 Mn 0.29151 0.17419 0.78409 0.0
C1010 C 0.28728 0.13772 0.75266 0.0
C1011 C 0.40213 0.14086 0.7176 0.0
C1012 C 0.35144 0.14069 0.80438 0.0
O1013 O 0.40213 0.17039 0.75979 0.0
O1014 O 0.35 0.18905 0.77893 0.0
C1015 C 0.2765 0.20727 0.75011 0.0
N1016 N 0.25935 0.19278 0.76457 0.0
C1017 C 0.18214 0.20332 0.75662 0.0
C1018 C 0.19897 0.2185 0.74183 0.0
C1019 C 0.24635 0.22039 0.73845 0.0
C1020 C 0.21383 0.1906 0.76763 0.0
H1021 H 0.31289 0.20883 0.74753 0.0
C1022 C 0.38955 0.18673 0.7699 0.0
O1023 O 0.41698 0.13205 0.73618 0.0
O1024 O 0.36619 0.15228 0.71952 0.0
N1025 N 0.23271 0.16254 0.79038 0.0
C1026 C 0.22188 0.14625 0.80394 0.0
C1027 C 0.17579 0.14174 0.80842 0.0
C1028 C 0.14129 0.15432 0.79935 0.0
C1029 C 0.1532 0.17111 0.78556 0.0
C1030 C 0.19972 0.17472 0.78154 0.0
H1031 H 0.24822 0.1368 0.81122 0.0
O1032 O 0.31707 0.12413 0.74635 0.0
O1033 O 0.3031 0.1557 0.75823 0.0
O1034 O 0.37133 0.13501 0.78587 0.0
O1035 O 0.32208 0.15517 0.80546 0.0
C1036 C 0.12076 0.18426 0.77539 0.0
C1037 C 0.13518 0.20021 0.76075 0.0
H1038 H 0.17582 0.2287 0.73287 0.0
H1039 H 0.2596 0.23199 0.72696 0.0
H1040 H 0.16689 0.1287 0.819 0.0
H1041 H 0.10578 0.15084 0.80295 0.0
H1042 H 0.08455 0.18204 0.77842 0.0
H1043 H 0.10986 0.20994 0.75267 0.0
Mn1044 Mn 0.37712 0.59558 0.75171 0.0
Mn1045 Mn 0.45137 0.56684 0.78249 0.0
C1046 C 0.45397 0.60322 0.75092 0.0
C1047 C 0.33796 0.60028 0.71713 0.0
C1048 C 0.39224 0.60025 0.80351 0.0
O1049 O 0.33967 0.57047 0.75928 0.0
O1050 O 0.39251 0.55201 0.77821 0.0
C1051 C 0.46445 0.53355 0.74854 0.0
N1052 N 0.4824 0.5481 0.76267 0.0
C1053 C 0.55913 0.5374 0.75386 0.0
C1054 C 0.54147 0.52216 0.73939 0.0
C1055 C 0.49392 0.52032 0.73661 0.0
C1056 C 0.52809 0.55022 0.76518 0.0
H1057 H 0.42793 0.53204 0.74642 0.0
C1058 C 0.35263 0.55424 0.7695 0.0
O1059 O 0.32371 0.60895 0.73591 0.0
O1060 O 0.37385 0.5888 0.71869 0.0
N1061 N 0.51052 0.57846 0.7879 0.0
C1062 C 0.52211 0.59493 0.801 0.0
C1063 C 0.56843 0.5994 0.80489 0.0
C1064 C 0.6024 0.58665 0.79561 0.0
C1065 C 0.58971 0.56975 0.78216 0.0
C1066 C 0.54299 0.56615 0.77879 0.0
H1067 H 0.4962 0.60459 0.80831 0.0
O1068 O 0.42382 0.61683 0.74513 0.0
O1069 O 0.43851 0.58523 0.75668 0.0
O1070 O 0.37118 0.60575 0.78525 0.0
O1071 O 0.42208 0.58595 0.80419 0.0
C1072 C 0.62156 0.55652 0.77167 0.0
C1073 C 0.6063 0.54048 0.75736 0.0
H1074 H 0.5641 0.51188 0.73021 0.0
H1075 H 0.48002 0.50868 0.72537 0.0
H1076 H 0.57791 0.61256 0.81515 0.0
H1077 H 0.63809 0.59011 0.79872 0.0
H1078 H 0.65793 0.55875 0.77417 0.0
H1079 H 0.63115 0.53068 0.74901 0.0
Mn1080 Mn 0.36228 0.5998 0.02039 0.0
Mn1081 Mn 0.29287 0.5694 0.98873 0.0
C1082 C 0.28526 0.6065 0.01913 0.0
C1083 C 0.39849 0.60543 0.0556 0.0
C1084 C 0.35145 0.60313 0.96816 0.0
O1085 O 0.40163 0.57504 0.01445 0.0
O1086 O 0.35246 0.55549 0.99444 0.0
C1087 C 0.27931 0.53658 0.02316 0.0
N1088 N 0.26151 0.55073 1.00848 0.0
C1089 C 0.18474 0.53977 0.01686 0.0
C1090 C 0.20226 0.52498 0.03195 0.0
C1091 C 0.24974 0.52346 0.03519 0.0
C1092 C 0.21587 0.55249 1.00544 0.0
H1093 H 0.3158 0.53527 0.02562 0.0
C1094 C 0.39116 0.55852 1.00415 0.0
O1095 O 0.4137 0.61399 0.03694 0.0
O1096 O 0.36308 0.59369 0.05362 0.0
N1097 N 0.23349 0.58014 0.98184 0.0
C1098 C 0.22196 0.59595 0.96772 0.0
C1099 C 0.17568 0.59995 0.96313 0.0
C1100 C 0.14173 0.58738 0.97272 0.0
C1101 C 0.15436 0.57107 0.98706 0.0
C1102 C 0.20104 0.5679 0.99108 0.0
H1103 H 0.24788 0.60544 0.96009 0.0
O1104 O 0.31399 0.62059 0.02533 0.0
O1105 O 0.30221 0.58855 0.01427 0.0
O1106 O 0.37054 0.60931 0.9867 0.0
O1107 O 0.32267 0.58842 0.9672 0.0
C1108 C 0.12247 0.55803 0.99781 0.0
C1109 C 0.13763 0.54249 0.01283 0.0
H1110 H 0.17956 0.51481 0.04123 0.0
H1111 H 0.26352 0.51214 0.04688 0.0
H1112 H 0.16622 0.61261 0.95211 0.0
H1113 H 0.10607 0.59049 0.96907 0.0
H1114 H 0.08615 0.55997 0.99489 0.0
H1115 H 0.11273 0.53279 0.02129 0.0
Mn1116 Mn 0.37635 0.14208 0.02055 0.0
Mn1117 Mn 0.44472 0.17273 0.98861 0.0
C1118 C 0.45359 0.13585 0.01932 0.0
C1119 C 0.33999 0.13658 0.0557 0.0
C1120 C 0.38717 0.13845 0.96841 0.0
O1121 O 0.33617 0.16651 0.0143 0.0
O1122 O 0.38488 0.18638 0.99441 0.0
C1123 C 0.45777 0.20575 0.02286 0.0
N1124 N 0.4758 0.19163 1.00822 0.0
C1125 C 0.55237 0.20295 0.01643 0.0
C1126 C 0.53462 0.21771 0.03149 0.0
C1127 C 0.48712 0.21903 0.0348 0.0
C1128 C 0.52146 0.19006 1.00512 0.0
H1129 H 0.42128 0.20689 0.02537 0.0
C1130 C 0.34624 0.18311 1.00407 0.0
O1131 O 0.32525 0.12774 0.03711 0.0
O1132 O 0.37514 0.14848 0.05369 0.0
N1133 N 0.50431 0.16227 0.98162 0.0
C1134 C 0.51611 0.14656 0.96742 0.0
C1135 C 0.56245 0.14278 0.96274 0.0
C1136 C 0.59618 0.15549 0.97229 0.0
C1137 C 0.58327 0.17173 0.98667 0.0
C1138 C 0.53654 0.17467 0.99079 0.0
H1139 H 0.49037 0.137 0.95977 0.0
O1140 O 0.42532 0.12165 0.02576 0.0
O1141 O 0.43607 0.15365 0.01429 0.0
O1142 O 0.36857 0.13217 0.98702 0.0
O1143 O 0.41519 0.15345 0.96727 0.0
C1144 C 0.61493 0.18495 0.99732 0.0
C1145 C 0.59952 0.20044 0.01233 0.0
H1146 H 0.55714 0.22802 0.04068 0.0
H1147 H 0.47316 0.23033 0.04645 0.0
H1148 H 0.57212 0.1302 0.95166 0.0
H1149 H 0.63187 0.15256 0.96857 0.0
H1150 H 0.65127 0.18318 0.99432 0.0
H1151 H 0.62424 0.21029 0.0207 0.0
H1152 H 0.06134 0.34732 0.19273 0.0
H1153 H 0.19559 0.37453 0.19078 0.0
H1154 H 0.05211 0.35433 0.15174 0.0
H1155 H 0.18714 0.38109 0.14979 0.0
H1156 H 0.04058 0.37395 0.07884 0.0
H1157 H 0.04889 0.38035 0.11984 0.0
H1158 H 0.18555 0.35536 0.11747 0.0
H1159 H 0.17653 0.34853 0.07641 0.0
C1160 C 0.08814 0.35546 0.1837 0.0
C1161 C 0.12931 0.36019 0.19479 0.0
C1162 C 0.08307 0.3594 0.16021 0.0
C1163 C 0.11929 0.36797 0.14745 0.0
C1164 C 0.15901 0.37415 0.15905 0.0
C1165 C 0.16385 0.37037 0.18252 0.0
C1166 C 0.07264 0.37016 0.08699 0.0
C1167 C 0.10771 0.3605 0.07457 0.0
C1168 C 0.0774 0.37384 0.11047 0.0
C1169 C 0.11754 0.36808 0.12196 0.0
C1170 C 0.15423 0.36009 0.10908 0.0
C1171 C 0.14927 0.35626 0.08556 0.0
H1172 H 0.05859 0.89129 0.07798 0.0
H1173 H 0.19089 0.86224 0.07579 0.0
H1174 H 0.05282 0.88341 0.11896 0.0
H1175 H 0.18621 0.85514 0.11692 0.0
H1176 H 0.04966 0.86207 0.19204 0.0
H1177 H 0.0544 0.8548 0.15093 0.0
H1178 H 0.18681 0.88399 0.14858 0.0
H1179 H 0.18093 0.89203 0.18952 0.0
C1180 C 0.08556 0.88251 0.0861 0.0
C1181 C 0.12527 0.87748 0.07389 0.0
C1182 C 0.08247 0.8781 0.10955 0.0
C1183 C 0.11941 0.86891 0.12114 0.0
C1184 C 0.15751 0.86241 0.10845 0.0
C1185 C 0.16019 0.86651 0.08496 0.0
C1186 C 0.08017 0.8665 0.1828 0.0
C1187 C 0.11478 0.87775 0.19377 0.0
C1188 C 0.08288 0.86232 0.15933 0.0
C1189 C 0.12072 0.869 0.14656 0.0
C1190 C 0.15737 0.87852 0.15806 0.0
C1191 C 0.15423 0.88303 0.18148 0.0
H1192 H 0.92735 0.64332 0.82491 0.0
H1193 H 0.79241 0.6168 0.82663 0.0
H1194 H 0.93537 0.63699 0.86615 0.0
H1195 H 0.79956 0.61107 0.86784 0.0
H1196 H 0.9436 0.61743 0.93971 0.0
H1197 H 0.93616 0.6107 0.89869 0.0
H1198 H 0.80189 0.63822 0.89944 0.0
H1199 H 0.81023 0.64554 0.94044 0.0
C1200 C 0.90012 0.63548 0.83396 0.0
C1201 C 0.85911 0.63075 0.82269 0.0
C1202 C 0.90449 0.63195 0.85757 0.0
C1203 C 0.86771 0.62384 0.87029 0.0
C1204 C 0.82812 0.61765 0.85858 0.0
C1205 C 0.82402 0.62097 0.83499 0.0
C1206 C 0.91224 0.62174 0.93118 0.0
C1207 C 0.8777 0.63223 0.94313 0.0
C1208 C 0.90798 0.61785 0.90771 0.0
C1209 C 0.86877 0.62418 0.89578 0.0
C1210 C 0.83246 0.63305 0.90819 0.0
C1211 C 0.83701 0.63715 0.93168 0.0
H1212 H 0.92914 0.0989 0.93954 0.0
H1213 H 0.79666 0.12785 0.94038 0.0
H1214 H 0.93636 0.10669 0.89858 0.0
H1215 H 0.80287 0.13494 0.89935 0.0
H1216 H 0.80951 0.10055 0.82591 0.0
H1217 H 0.80261 0.10755 0.86705 0.0
H1218 H 0.93718 0.13477 0.86697 0.0
H1219 H 0.94308 0.12848 0.82573 0.0
C1220 C 0.90237 0.10759 0.93113 0.0
C1221 C 0.86219 0.1126 0.94298 0.0
C1222 C 0.90629 0.11196 0.90768 0.0
C1223 C 0.8698 0.12115 0.89572 0.0
C1224 C 0.83119 0.12759 0.90806 0.0
C1225 C 0.82762 0.12348 0.93151 0.0
C1226 C 0.83658 0.10889 0.83452 0.0
C1227 C 0.87691 0.11385 0.82278 0.0
C1228 C 0.83286 0.11279 0.85807 0.0
C1229 C 0.86973 0.12143 0.87025 0.0
C1230 C 0.90855 0.12785 0.85807 0.0
C1231 C 0.91192 0.12423 0.8345 0.0
H1232 H 0.19145 0.8788 0.69143 0.0
H1233 H 0.05905 0.84978 0.69013 0.0
H1234 H 0.18579 0.88586 0.65034 0.0
H1235 H 0.05238 0.85753 0.64915 0.0
H1236 H 0.0465 0.8783 0.57624 0.0
H1237 H 0.052 0.88532 0.61732 0.0
H1238 H 0.18665 0.8582 0.61832 0.0
H1239 H 0.18017 0.8505 0.57733 0.0
C1240 C 0.16056 0.87448 0.68245 0.0
C1241 C 0.12586 0.86357 0.69379 0.0
C1242 C 0.15732 0.87854 0.65898 0.0
C1243 C 0.11893 0.87204 0.64652 0.0
C1244 C 0.08228 0.86285 0.65836 0.0
C1245 C 0.08588 0.85851 0.68182 0.0
C1246 C 0.0776 0.87423 0.58517 0.0
C1247 C 0.11272 0.86366 0.57377 0.0
C1248 C 0.08075 0.87829 0.60864 0.0
C1249 C 0.11946 0.87209 0.62106 0.0
C1250 C 0.15649 0.86328 0.60915 0.0
C1251 C 0.153 0.85896 0.58568 0.0
H1252 H 0.05956 0.38981 0.57877 0.0
H1253 H 0.19197 0.36088 0.57622 0.0
H1254 H 0.05441 0.38202 0.61981 0.0
H1255 H 0.1879 0.35389 0.61739 0.0
H1256 H 0.18333 0.39038 0.69023 0.0
H1257 H 0.18871 0.38262 0.6492 0.0
H1258 H 0.05642 0.35335 0.65172 0.0
H1259 H 0.05217 0.36032 0.69291 0.0
C1260 C 0.0867 0.38108 0.58682 0.0
C1261 C 0.12623 0.37604 0.57447 0.0
C1262 C 0.08397 0.37673 0.61031 0.0
C1263 C 0.1211 0.36759 0.62181 0.0
C1264 C 0.15906 0.36113 0.609 0.0
C1265 C 0.16138 0.36516 0.58548 0.0
C1266 C 0.15656 0.3814 0.6822 0.0
C1267 C 0.11731 0.376 0.69459 0.0
C1268 C 0.15941 0.37707 0.65872 0.0
C1269 C 0.12264 0.36761 0.64725 0.0
C1270 C 0.08499 0.36082 0.66009 0.0
C1271 C 0.08258 0.36482 0.68361 0.0
H1272 H 0.93086 0.1406 0.32565 0.0
H1273 H 0.79652 0.11343 0.32655 0.0
H1274 H 0.93845 0.13399 0.36682 0.0
H1275 H 0.80321 0.10743 0.36779 0.0
H1276 H 0.81229 0.14307 0.44003 0.0
H1277 H 0.80453 0.13501 0.39917 0.0
H1278 H 0.93898 0.10767 0.39946 0.0
H1279 H 0.94584 0.11513 0.44036 0.0
C1280 C 0.90376 0.13249 0.3345 0.0
C1281 C 0.86303 0.12765 0.32305 0.0
C1282 C 0.90787 0.12881 0.35808 0.0
C1283 C 0.87105 0.12048 0.37058 0.0
C1284 C 0.83182 0.11414 0.35867 0.0
C1285 C 0.82801 0.11758 0.33509 0.0
C1286 C 0.83922 0.13455 0.43154 0.0
C1287 C 0.87983 0.12992 0.44321 0.0
C1288 C 0.83498 0.13002 0.40815 0.0
C1289 C 0.87153 0.12099 0.39606 0.0
C1290 C 0.91061 0.11491 0.40825 0.0
C1291 C 0.91456 0.11923 0.43163 0.0
H1292 H 0.93924 0.62853 0.32696 0.0
H1293 H 0.80679 0.59955 0.32701 0.0
H1294 H 0.9337 0.63406 0.36835 0.0
H1295 H 0.80021 0.6058 0.36832 0.0
H1296 H 0.92797 0.59793 0.44075 0.0
H1297 H 0.93434 0.60581 0.39975 0.0
H1298 H 0.79955 0.63276 0.40094 0.0
H1299 H 0.79415 0.62559 0.44195 0.0
C1300 C 0.90835 0.6239 0.33575 0.0
C1301 C 0.87355 0.61349 0.3239 0.0
C1302 C 0.90522 0.62706 0.35942 0.0
C1303 C 0.86682 0.62014 0.3716 0.0
C1304 C 0.83014 0.61141 0.35935 0.0
C1305 C 0.83365 0.60796 0.3357 0.0
C1306 C 0.90066 0.60632 0.43242 0.0
C1307 C 0.8604 0.61096 0.4444 0.0
C1308 C 0.90409 0.61074 0.40895 0.0
C1309 C 0.86706 0.61962 0.39709 0.0
C1310 C 0.82829 0.62564 0.40955 0.0
C1311 C 0.82517 0.62148 0.43301 0.0
H1312 H 0.68281 0.35102 0.57694 0.0
H1313 H 0.55121 0.38067 0.57423 0.0
H1314 H 0.68795 0.35873 0.61799 0.0
H1315 H 0.55522 0.38758 0.61543 0.0
H1316 H 0.5587 0.35082 0.68822 0.0
H1317 H 0.55367 0.35864 0.64719 0.0
H1318 H 0.68636 0.38752 0.64993 0.0
H1319 H 0.69025 0.38051 0.69112 0.0
C1320 C 0.65588 0.3599 0.58496 0.0
C1321 C 0.61657 0.36518 0.57255 0.0
C1322 C 0.65859 0.3642 0.60846 0.0
C1323 C 0.62164 0.37352 0.61992 0.0
C1324 C 0.58393 0.38021 0.60707 0.0
C1325 C 0.58165 0.37624 0.58353 0.0
C1326 C 0.58565 0.35972 0.68024 0.0
C1327 C 0.62491 0.36499 0.6927 0.0
C1328 C 0.583 0.36409 0.65676 0.0
C1329 C 0.61996 0.37346 0.64536 0.0
C1330 C 0.65764 0.38012 0.65825 0.0
C1331 C 0.65986 0.37608 0.68177 0.0
H1332 H 0.54549 0.86576 0.69031 0.0
H1333 H 0.67836 0.89438 0.69063 0.0
H1334 H 0.55277 0.85889 0.64929 0.0
H1335 H 0.68663 0.88681 0.64968 0.0
H1336 H 0.5619 0.89343 0.57607 0.0
H1337 H 0.55364 0.88624 0.61711 0.0
H1338 H 0.68822 0.85905 0.61801 0.0
H1339 H 0.69552 0.86555 0.57692 0.0
C1340 C 0.57673 0.87012 0.6817 0.0
C1341 C 0.61112 0.88085 0.69347 0.0
C1342 C 0.58092 0.86613 0.65825 0.0
C1343 C 0.61996 0.87254 0.64625 0.0
C1344 C 0.65623 0.88158 0.65853 0.0
C1345 C 0.6517 0.88582 0.68197 0.0
C1346 C 0.58873 0.8851 0.58487 0.0
C1347 C 0.62952 0.88025 0.57348 0.0
C1348 C 0.58421 0.88107 0.60836 0.0
C1349 C 0.62068 0.87238 0.6208 0.0
C1350 C 0.65991 0.86604 0.60892 0.0
C1351 C 0.66412 0.86982 0.58543 0.0
H1352 H 0.29536 0.61792 0.33077 0.0
H1353 H 0.42864 0.64609 0.32912 0.0
H1354 H 0.30379 0.61133 0.37178 0.0
H1355 H 0.43794 0.63895 0.37011 0.0
H1356 H 0.31405 0.64364 0.44554 0.0
H1357 H 0.30509 0.63736 0.40435 0.0
H1358 H 0.44146 0.61209 0.4017 0.0
H1359 H 0.4496 0.61783 0.44285 0.0
C1360 C 0.32691 0.62228 0.3391 0.0
C1361 C 0.36116 0.63272 0.3269 0.0
C1362 C 0.33173 0.61848 0.36257 0.0
C1363 C 0.3712 0.62487 0.37424 0.0
C1364 C 0.40718 0.63373 0.36157 0.0
C1365 C 0.40208 0.63773 0.33809 0.0
C1366 C 0.34124 0.63597 0.43629 0.0
C1367 C 0.38266 0.63143 0.44727 0.0
C1368 C 0.33632 0.63246 0.4127 0.0
C1369 C 0.37296 0.62454 0.39972 0.0
C1370 C 0.413 0.61854 0.41116 0.0
C1371 C 0.41767 0.62186 0.43471 0.0
H1372 H 0.43062 0.10039 0.44359 0.0
H1373 H 0.29673 0.128 0.44367 0.0
H1374 H 0.43754 0.10739 0.40246 0.0
H1375 H 0.3027 0.13433 0.40246 0.0
H1376 H 0.31062 0.09888 0.32984 0.0
H1377 H 0.30349 0.1066 0.37082 0.0
H1378 H 0.43739 0.13447 0.37014 0.0
H1379 H 0.44355 0.12741 0.3291 0.0
C1380 C 0.40347 0.10866 0.43497 0.0
C1381 C 0.36305 0.11352 0.44667 0.0
C1382 C 0.40721 0.11256 0.41142 0.0
C1383 C 0.37028 0.12113 0.3992 0.0
C1384 C 0.33137 0.12746 0.41137 0.0
C1385 C 0.32797 0.12382 0.43493 0.0
C1386 C 0.33752 0.10746 0.33827 0.0
C1387 C 0.37778 0.11238 0.32645 0.0
C1388 C 0.33365 0.11179 0.36173 0.0
C1389 C 0.37027 0.12086 0.37373 0.0
C1390 C 0.40898 0.12721 0.36141 0.0
C1391 C 0.41251 0.12313 0.33795 0.0
H1392 H 0.5568 0.85225 0.18863 0.0
H1393 H 0.6877 0.88245 0.19229 0.0
H1394 H 0.55214 0.86039 0.14767 0.0
H1395 H 0.68421 0.88978 0.15115 0.0
H1396 H 0.68194 0.85303 0.0781 0.0
H1397 H 0.6866 0.86086 0.11914 0.0
H1398 H 0.55388 0.88967 0.1161 0.0
H1399 H 0.55036 0.88267 0.0749 0.0
C1400 C 0.58366 0.86133 0.18084 0.0
C1401 C 0.62265 0.86666 0.19347 0.0
C1402 C 0.58122 0.86589 0.1574 0.0
C1403 C 0.61815 0.8755 0.14623 0.0
C1404 C 0.65552 0.88221 0.15931 0.0
C1405 C 0.6575 0.878 0.1828 0.0
C1406 C 0.65493 0.86194 0.08601 0.0
C1407 C 0.61574 0.86717 0.07349 0.0
C1408 C 0.65737 0.86631 0.1095 0.0
C1409 C 0.62026 0.87564 0.12081 0.0
C1410 C 0.58271 0.88231 0.10783 0.0
C1411 C 0.58071 0.87828 0.08431 0.0
H1412 H 0.56123 0.39379 0.07454 0.0
H1413 H 0.69613 0.36728 0.07693 0.0
H1414 H 0.55191 0.38701 0.11557 0.0
H1415 H 0.68755 0.36091 0.11794 0.0
H1416 H 0.54058 0.36805 0.18872 0.0
H1417 H 0.54901 0.36141 0.14777 0.0
H1418 H 0.68541 0.38673 0.14999 0.0
H1419 H 0.67626 0.39377 0.19099 0.0
C1420 C 0.58816 0.38582 0.08368 0.0
C1421 C 0.62953 0.38124 0.07268 0.0
C1422 C 0.58304 0.38203 0.10719 0.0
C1423 C 0.61939 0.37373 0.12007 0.0
C1424 C 0.65931 0.36765 0.10858 0.0
C1425 C 0.66422 0.37131 0.0851 0.0
C1426 C 0.5726 0.37187 0.18054 0.0
C1427 C 0.60756 0.38167 0.1929 0.0
C1428 C 0.57743 0.36805 0.15709 0.0
C1429 C 0.61755 0.37382 0.14557 0.0
C1430 C 0.65412 0.38198 0.1584 0.0
C1431 C 0.64909 0.38594 0.18189 0.0
H1432 H 0.29661 0.1151 0.82867 0.0
H1433 H 0.42891 0.14421 0.82983 0.0
H1434 H 0.30268 0.10782 0.86967 0.0
H1435 H 0.43601 0.13623 0.87075 0.0
H1436 H 0.30911 0.14166 0.94345 0.0
H1437 H 0.30224 0.13495 0.90224 0.0
H1438 H 0.43695 0.10789 0.90207 0.0
H1439 H 0.44282 0.11388 0.94336 0.0
C1440 C 0.32749 0.11948 0.8376 0.0
C1441 C 0.36206 0.13045 0.82624 0.0
C1442 C 0.33099 0.11526 0.86103 0.0
C1443 C 0.36952 0.12166 0.87345 0.0
C1444 C 0.40599 0.13098 0.86158 0.0
C1445 C 0.40214 0.13547 0.83816 0.0
C1446 C 0.33621 0.13341 0.93477 0.0
C1447 C 0.37657 0.1284 0.94645 0.0
C1448 C 0.33252 0.12968 0.91118 0.0
C1449 C 0.36943 0.12118 0.89891 0.0
C1450 C 0.40828 0.11471 0.91103 0.0
C1451 C 0.41162 0.11815 0.93463 0.0
H1452 H 0.31329 0.59823 0.82813 0.0
H1453 H 0.44908 0.6239 0.82917 0.0
H1454 H 0.30512 0.60587 0.86908 0.0
H1455 H 0.44166 0.63106 0.87005 0.0
H1456 H 0.43046 0.59962 0.94398 0.0
H1457 H 0.43898 0.60565 0.90276 0.0
H1458 H 0.30415 0.63258 0.90065 0.0
H1459 H 0.29645 0.62703 0.94191 0.0
C1460 C 0.34072 0.60614 0.83694 0.0
C1461 C 0.38197 0.61026 0.82559 0.0
C1462 C 0.33623 0.61045 0.86039 0.0
C1463 C 0.37312 0.61877 0.87288 0.0
C1464 C 0.413 0.62432 0.86101 0.0
C1465 C 0.41726 0.62018 0.8376 0.0
C1466 C 0.40362 0.60766 0.93486 0.0
C1467 C 0.36275 0.61276 0.94603 0.0
C1468 C 0.40826 0.611 0.91123 0.0
C1469 C 0.37185 0.6193 0.89838 0.0
C1470 C 0.33244 0.62586 0.91 0.0
C1471 C 0.32807 0.62271 0.93361 0.0
H1472 H 0.96509 0.18672 0.2363 0.0
H1473 H 0.8955 0.21705 0.29222 0.0
H1474 H 0.01459 0.21627 0.23163 0.0
H1475 H 0.94651 0.24637 0.28821 0.0
H1476 H 0.01049 0.3041 0.25956 0.0
H1477 H 0.96081 0.27431 0.26314 0.0
H1478 H 0.0754 0.23455 0.2483 0.0
H1479 H 0.12441 0.26429 0.24371 0.0
C1480 C 0.96095 0.19955 0.24792 0.0
C1481 C 0.92635 0.19954 0.26465 0.0
C1482 C 0.98944 0.21651 0.24525 0.0
C1483 C 0.98445 0.23377 0.25946 0.0
C1484 C 0.95067 0.23352 0.27664 0.0
C1485 C 0.92172 0.21663 0.27911 0.0
C1486 C 0.02491 0.289 0.25682 0.0
C1487 C 0.07137 0.28657 0.25132 0.0
C1488 C -0.00345 0.2719 0.25911 0.0
C1489 C 0.01417 0.252 0.25624 0.0
C1490 C 0.06049 0.24964 0.25034 0.0
C1491 C 0.08867 0.26673 0.24775 0.0
H1492 H 0.21349 0.93766 0.28172 0.0
H1493 H 0.14736 0.96821 0.22491 0.0
H1494 H 0.26164 0.96745 0.28778 0.0
H1495 H 0.19716 -0.00222 0.2303 0.0
H1496 H 0.25814 0.05556 0.26033 0.0
H1497 H 0.20919 0.02563 0.25569 0.0
H1498 H 0.32307 0.98619 0.27278 0.0
H1499 H 0.37117 0.01602 0.27846 0.0
C1500 C 0.2099 0.95058 0.27019 0.0
C1501 C 0.17663 0.95056 0.2528 0.0
C1502 C 0.23761 0.9677 0.27366 0.0
C1503 C 0.23321 0.9851 0.25961 0.0
C1504 C 0.2008 0.98483 0.24177 0.0
C1505 C 0.17259 0.9678 0.23851 0.0
C1506 C 0.27251 0.0405 0.26337 0.0
C1507 C 0.31854 0.0382 0.26978 0.0
C1508 C 0.24459 0.02332 0.26047 0.0
C1509 C 0.26225 0.00345 0.26362 0.0
C1510 C 0.30806 0.00122 0.27049 0.0
C1511 C 0.33575 0.01839 0.27371 0.0
H1512 H 0.025 0.93771 0.98671 0.0
H1513 H 0.09188 0.96789 0.04355 0.0
H1514 H 0.97676 0.96752 0.98106 0.0
H1515 H 0.04199 -0.00252 0.03857 0.0
H1516 H 0.98101 0.05548 1.00897 0.0
H1517 H 0.0298 0.02548 0.01342 0.0
H1518 H 0.91557 0.98622 0.99636 0.0
H1519 H 0.86762 0.01613 0.99086 0.0
C1520 C 0.02874 0.95055 0.99834 0.0
C1521 C 0.06226 0.95042 0.01561 0.0
C1522 C 0.00097 0.96768 0.99511 0.0
C1523 C 0.00556 0.98499 0.00928 0.0
C1524 C 0.03819 0.98461 0.02701 0.0
C1525 C 0.06646 0.96756 0.03004 0.0
C1526 C 0.96652 0.04044 1.0059 0.0
C1527 C 0.92045 0.03822 0.99953 0.0
C1528 C 0.99435 0.02322 1.00869 0.0
C1529 C 0.97655 0.00338 1.00548 0.0
C1530 C 0.93068 0.00123 0.99869 0.0
C1531 C 0.90308 0.01843 0.99558 0.0
H1532 H 0.27439 0.18717 0.03348 0.0
H1533 H 0.34393 0.21784 0.97777 0.0
H1534 H 0.22472 0.21665 0.0383 0.0
H1535 H 0.29278 0.24708 0.98194 0.0
H1536 H 0.2283 0.30458 0.0106 0.0
H1537 H 0.27826 0.27489 1.00716 0.0
H1538 H 0.16382 0.23492 0.02163 0.0
H1539 H 0.11449 0.26458 0.02607 0.0
C1540 C 0.27849 0.20005 0.02194 0.0
C1541 C 0.31311 0.20016 1.00522 0.0
C1542 C 0.24991 0.21698 0.02469 0.0
C1543 C 0.25485 0.23431 0.01059 0.0
C1544 C 0.28867 0.23417 0.99343 0.0
C1545 C 0.3177 0.21733 0.99088 0.0
C1546 C 0.21396 0.28946 0.0133 0.0
C1547 C 0.16744 0.28695 0.01861 0.0
C1548 C 0.24249 0.27241 0.01109 0.0
C1549 C 0.22498 0.25248 0.01386 0.0
C1550 C 0.17863 0.25004 0.01965 0.0
C1551 C 0.15027 0.26708 0.02216 0.0
H1552 H 0.86634 0.72558 0.77198 0.0
H1553 H 0.97998 0.68555 0.75631 0.0
H1554 H 0.91545 0.75521 0.7672 0.0
H1555 H 0.02986 0.71529 0.75256 0.0
H1556 H 0.09559 0.77284 0.72378 0.0
H1557 H 0.04495 0.74336 0.72772 0.0
H1558 H 0.97592 0.77335 0.78407 0.0
H1559 H 0.02493 0.80303 0.77946 0.0
C1560 C 0.90206 0.72307 0.76793 0.0
C1561 C 0.91924 0.70319 0.76451 0.0
C1562 C 0.93032 0.74011 0.76524 0.0
C1563 C 0.97665 0.73769 0.75941 0.0
C1564 C 0.99413 0.71775 0.75658 0.0
C1565 C 0.96566 0.70069 0.75896 0.0
C1566 C 0.06923 0.77319 0.73682 0.0
C1567 C 0.06412 0.79032 0.7512 0.0
C1568 C 0.0405 0.75622 0.73925 0.0
C1569 C 0.00647 0.75591 0.75631 0.0
C1570 C 0.00118 0.77316 0.7705 0.0
C1571 C 0.02942 0.7902 0.76787 0.0
H1572 H 0.72949 0.93722 0.75883 0.0
H1573 H 0.61621 0.97712 0.74215 0.0
H1574 H 0.77925 0.96697 0.76264 0.0
H1575 H 0.66522 0.00681 0.74699 0.0
H1576 H 0.77554 0.05462 0.73552 0.0
H1577 H 0.72624 0.02504 0.73065 0.0
H1578 H 0.79349 0.99499 0.78752 0.0
H1579 H 0.84435 0.02435 0.79172 0.0
C1580 C 0.71523 0.95233 0.75596 0.0
C1581 C 0.66893 0.95479 0.75015 0.0
C1582 C 0.74362 0.96941 0.75838 0.0
C1583 C 0.7262 0.98933 0.75533 0.0
C1584 C 0.68003 0.99172 0.74916 0.0
C1585 C 0.65183 0.97465 0.74643 0.0
C1586 C 0.77954 0.0418 0.74716 0.0
C1587 C 0.81385 0.04184 0.76404 0.0
C1588 C 0.75116 0.02481 0.74439 0.0
C1589 C 0.75594 0.00756 0.75863 0.0
C1590 C 0.78948 0.00784 0.77593 0.0
C1591 C 0.81834 0.02474 0.7785 0.0
H1592 H 0.64949 0.77695 0.04337 0.0
H1593 H 0.71676 0.80683 0.98644 0.0
H1594 H 0.69934 0.74732 0.03867 0.0
H1595 H 0.76506 0.77696 0.98109 0.0
H1596 H 0.87384 0.72817 0.99152 0.0
H1597 H 0.8261 0.75821 0.99669 0.0
H1598 H 0.71127 0.71924 0.01358 0.0
H1599 H 0.75979 0.68912 0.00941 0.0
C1600 C 0.675 0.77721 0.0299 0.0
C1601 C 0.67929 0.79426 0.01535 0.0
C1602 C 0.70325 0.76014 0.02703 0.0
C1603 C 0.73597 0.75964 0.00935 0.0
C1604 C 0.74073 0.77689 0.99508 0.0
C1605 C 0.71294 0.79404 0.99815 0.0
C1606 C 0.8383 0.72595 0.99613 0.0
C1607 C 0.82066 0.70622 1.00011 0.0
C1608 C 0.81083 0.74323 0.99905 0.0
C1609 C 0.76485 0.74119 1.00571 0.0
C1610 C 0.74681 0.72141 1.00896 0.0
C1611 C 0.77448 0.70412 1.00633 0.0
H1612 H 0.37471 0.51428 0.77788 0.0
H1613 H 0.26091 0.55352 0.76012 0.0
H1614 H 0.3266 0.48432 0.77285 0.0
H1615 H 0.21208 0.52349 0.75608 0.0
H1616 H 0.15036 0.46601 0.72569 0.0
H1617 H 0.20028 0.49555 0.73073 0.0
H1618 H 0.26523 0.46555 0.78829 0.0
H1619 H 0.21679 0.43575 0.78261 0.0
C1620 C 0.33915 0.51655 0.77335 0.0
C1621 C 0.3217 0.53631 0.76931 0.0
C1622 C 0.31147 0.49932 0.7705 0.0
C1623 C 0.2655 0.50144 0.76387 0.0
C1624 C 0.24762 0.52126 0.76066 0.0
C1625 C 0.27548 0.5385 0.76322 0.0
C1626 C 0.17569 0.46565 0.73924 0.0
C1627 C 0.17972 0.44851 0.75368 0.0
C1628 C 0.20398 0.48268 0.74231 0.0
C1629 C 0.23651 0.48305 0.76008 0.0
C1630 C 0.24102 0.46572 0.77424 0.0
C1631 C 0.21317 0.44861 0.77099 0.0
H1632 H 0.86765 0.51473 0.49226 0.0
H1633 H 0.98173 0.55388 0.50983 0.0
H1634 H 0.91554 0.48473 0.49735 0.0
H1635 H 0.0304 0.5238 0.5139 0.0
H1636 H 0.09241 0.46614 0.54384 0.0
H1637 H 0.04265 0.49579 0.53905 0.0
H1638 H 0.97642 0.46592 0.48177 0.0
H1639 H 0.02462 0.43604 0.48722 0.0
C1640 C 0.90324 0.51698 0.49676 0.0
C1641 C 0.92082 0.53673 0.50071 0.0
C1642 C 0.93079 0.49972 0.49964 0.0
C1643 C 0.97682 0.50179 0.5062 0.0
C1644 C 0.99483 0.5216 0.50936 0.0
C1645 C 0.96707 0.53887 0.50679 0.0
C1646 C 0.06682 0.46584 0.53042 0.0
C1647 C 0.06235 0.44871 0.51599 0.0
C1648 C 0.03861 0.48292 0.52749 0.0
C1649 C 0.00575 0.48336 0.50987 0.0
C1650 C 0.00085 0.46605 0.49572 0.0
C1651 C 0.02858 0.44888 0.49884 0.0
H1652 H 0.26224 0.68588 0.51358 0.0
H1653 H 0.37568 0.72614 0.49825 0.0
H1654 H 0.21192 0.7155 0.51695 0.0
H1655 H 0.3261 0.75567 0.50264 0.0
H1656 H 0.21608 0.80299 0.48913 0.0
H1657 H 0.26577 0.77348 0.4852 0.0
H1658 H 0.19577 0.74371 0.54141 0.0
H1659 H 0.14447 0.77303 0.54467 0.0
C1660 C 0.27643 0.70104 0.51094 0.0
C1661 C 0.32291 0.70364 0.50557 0.0
C1662 C 0.2477 0.71804 0.5131 0.0
C1663 C 0.26497 0.73801 0.51022 0.0
C1664 C 0.3114 0.74054 0.50463 0.0
C1665 C 0.33992 0.72356 0.50216 0.0
C1666 C 0.21151 0.79026 0.50084 0.0
C1667 C 0.17634 0.79038 0.51727 0.0
C1668 C 0.24015 0.7733 0.4986 0.0
C1669 C 0.23479 0.75616 0.51295 0.0
C1670 C 0.20029 0.75648 0.52977 0.0
C1671 C 0.17117 0.77337 0.53181 0.0
H1672 H 0.84194 0.52448 0.29114 0.0
H1673 H 0.7731 0.55547 0.23544 0.0
H1674 H 0.79124 0.49516 0.28642 0.0
H1675 H 0.72386 0.5259 0.23007 0.0
H1676 H 0.61386 0.4776 0.24151 0.0
H1677 H 0.66287 0.50734 0.24626 0.0
H1678 H 0.77747 0.46752 0.26088 0.0
H1679 H 0.72783 0.43775 0.25713 0.0
C1680 C 0.81596 0.52504 0.27791 0.0
C1681 C 0.81143 0.54232 0.26374 0.0
C1682 C 0.78719 0.50815 0.27504 0.0
C1683 C 0.75369 0.50807 0.25772 0.0
C1684 C 0.74881 0.52552 0.24378 0.0
C1685 C 0.77714 0.54249 0.24685 0.0
C1686 C 0.64961 0.47516 0.24551 0.0
C1687 C 0.6669 0.4553 0.24903 0.0
C1688 C 0.67779 0.49224 0.2482 0.0
C1689 C 0.72408 0.48986 0.25414 0.0
C1690 C 0.74173 0.46995 0.25684 0.0
C1691 C 0.71339 0.45286 0.25446 0.0
H1692 H 0.65019 0.27536 0.54203 0.0
H1693 H 0.7165 0.30506 0.48471 0.0
H1694 H 0.70004 0.24575 0.53731 0.0
H1695 H 0.76484 0.27518 0.47933 0.0
H1696 H 0.87417 0.22654 0.48995 0.0
H1697 H 0.8262 0.25655 0.49484 0.0
H1698 H 0.71183 0.21755 0.51239 0.0
H1699 H 0.76057 0.18748 0.50851 0.0
C1700 C 0.67548 0.27558 0.52846 0.0
C1701 C 0.67951 0.29258 0.51382 0.0
C1702 C 0.70373 0.25852 0.52558 0.0
C1703 C 0.73621 0.25796 0.50779 0.0
C1704 C 0.74069 0.27515 0.49341 0.0
C1705 C 0.7129 0.29231 0.49648 0.0
C1706 C 0.83867 0.22431 0.49464 0.0
C1707 C 0.82124 0.20459 0.49892 0.0
C1708 C 0.81107 0.24157 0.4974 0.0
C1709 C 0.76517 0.23953 0.50418 0.0
C1710 C 0.74731 0.21974 0.50768 0.0
C1711 C 0.77511 0.20247 0.50522 0.0
H1712 H 0.36755 0.22676 0.77782 0.0
H1713 H 0.48098 0.18744 0.75971 0.0
H1714 H 0.41529 0.25669 0.77202 0.0
H1715 H 0.52956 0.21747 0.75494 0.0
H1716 H 0.59097 0.27489 0.72413 0.0
H1717 H 0.54128 0.24529 0.72952 0.0
H1718 H 0.47653 0.27563 0.78692 0.0
H1719 H 0.52461 0.30545 0.78086 0.0
C1720 C 0.40298 0.22446 0.77304 0.0
C1721 C 0.4204 0.20468 0.76917 0.0
C1722 C 0.43045 0.24169 0.76976 0.0
C1723 C 0.47627 0.23956 0.76286 0.0
C1724 C 0.49414 0.21972 0.75974 0.0
C1725 C 0.46644 0.20248 0.76272 0.0
C1726 C 0.5657 0.2753 0.7377 0.0
C1727 C 0.5616 0.29255 0.75198 0.0
C1728 C 0.53754 0.25825 0.74097 0.0
C1729 C 0.50512 0.25796 0.7588 0.0
C1730 C 0.5006 0.27539 0.77281 0.0
C1731 C 0.52826 0.29252 0.76934 0.0
H1732 H 0.39517 0.02403 0.47703 0.0
H1733 H 0.46499 0.05378 0.53326 0.0
H1734 H 0.44605 0.99462 0.48068 0.0
H1735 H 0.51432 0.02414 0.53759 0.0
H1736 H 0.62416 0.97639 0.52505 0.0
H1737 H 0.57505 0.0061 0.52071 0.0
H1738 H 0.46077 0.96636 0.50518 0.0
H1739 H 0.51062 0.93659 0.5085 0.0
C1740 C 0.4214 0.02429 0.49014 0.0
C1741 C 0.42618 0.04126 0.50477 0.0
C1742 C 0.45028 0.00736 0.4924 0.0
C1743 C 0.48412 0.00692 0.50954 0.0
C1744 C 0.48916 0.02404 0.52396 0.0
C1745 C 0.46076 0.04106 0.5215 0.0
C1746 C 0.58847 0.97395 0.5209 0.0
C1747 C 0.57131 0.95411 0.51709 0.0
C1748 C 0.56022 0.99103 0.51846 0.0
C1749 C 0.51394 0.98867 0.51248 0.0
C1750 C 0.49648 0.96878 0.5093 0.0
C1751 C 0.52492 0.95169 0.51144 0.0
H1752 H 0.589 0.77616 0.2242 0.0
H1753 H 0.52215 0.80665 0.28084 0.0
H1754 H 0.53898 0.74663 0.2293 0.0
H1755 H 0.47372 0.7769 0.2866 0.0
H1756 H 0.36458 0.72821 0.27711 0.0
H1757 H 0.41249 0.75811 0.27136 0.0
H1758 H 0.5268 0.71878 0.25467 0.0
H1759 H 0.47807 0.68879 0.2594 0.0
C1760 C 0.56356 0.77657 0.23769 0.0
C1761 C 0.55942 0.79378 0.25204 0.0
C1762 C 0.5352 0.75956 0.24079 0.0
C1763 C 0.50253 0.75928 0.25851 0.0
C1764 C 0.49798 0.77666 0.27258 0.0
C1765 C 0.52585 0.79375 0.26928 0.0
C1766 C 0.40004 0.72589 0.27242 0.0
C1767 C 0.41747 0.70609 0.26867 0.0
C1768 C 0.42761 0.74309 0.26916 0.0
C1769 C 0.47351 0.74091 0.26241 0.0
C1770 C 0.49133 0.72106 0.25936 0.0
C1771 C 0.46354 0.70384 0.26231 0.0
H1772 H 0.50995 0.43697 1.00844 0.0
H1773 H 0.62333 0.4771 0.02429 0.0
H1774 H 0.45956 0.46657 1.00554 0.0
H1775 H 0.57358 0.50667 0.02039 0.0
H1776 H 0.46291 0.55396 0.03352 0.0
H1777 H 0.51268 0.52444 0.03771 0.0
H1778 H 0.4442 0.49477 0.98097 0.0
H1779 H 0.39294 0.52405 0.97743 0.0
C1780 C 0.52411 0.4521 0.01132 0.0
C1781 C 0.57062 0.45467 0.01662 0.0
C1782 C 0.49533 0.46909 0.00943 0.0
C1783 C 0.51256 0.48904 0.01252 0.0
C1784 C 0.55895 0.49154 0.0182 0.0
C1785 C 0.58756 0.47455 0.02039 0.0
C1786 C 0.4587 0.54123 0.02178 0.0
C1787 C 0.42399 0.54135 1.00511 0.0
C1788 C 0.48735 0.52428 0.02416 0.0
C1789 C 0.4824 0.50717 0.00973 0.0
C1790 C 0.44836 0.50751 0.99269 0.0
C1791 C 0.41926 0.52437 0.9905 0.0
H1792 H 0.04004 0.35189 0.45086 0.0
H1793 H 0.0962 0.40958 0.42794 0.0
H1794 H 0.02201 0.34292 0.41101 0.0
H1795 H 0.07849 0.40071 0.38848 0.0
H1796 H 0.03915 0.38348 0.31811 0.0
H1797 H 0.02215 0.39241 0.35808 0.0
H1798 H 0.07667 0.33408 0.38006 0.0
H1799 H 0.09336 0.32526 0.34047 0.0
C1800 C 0.04738 0.36285 0.4374 0.0
C1801 C 0.0701 0.38128 0.44243 0.0
C1802 C 0.03724 0.35771 0.41461 0.0
C1803 C 0.0491 0.37104 0.39655 0.0
C1804 C 0.06846 0.39016 0.40191 0.0
C1805 C 0.07903 0.39517 0.42456 0.0
C1806 C 0.0461 0.37236 0.33146 0.0
C1807 C 0.06812 0.35381 0.32626 0.0
C1808 C 0.03662 0.3775 0.35433 0.0
C1809 C 0.04846 0.36403 0.37227 0.0
C1810 C 0.06674 0.34474 0.36673 0.0
C1811 C 0.07667 0.33975 0.34401 0.0
H1812 H 0.19915 0.85425 0.31765 0.0
H1813 H 0.14098 0.91167 0.34013 0.0
H1814 H 0.2175 0.84565 0.35755 0.0
H1815 H 0.159 0.90317 0.37966 0.0
H1816 H 0.19934 0.88664 0.45008 0.0
H1817 H 0.21589 0.89544 0.41003 0.0
H1818 H 0.1629 0.83666 0.38855 0.0
H1819 H 0.14666 0.82798 0.42822 0.0
C1820 C 0.1914 0.86524 0.33102 0.0
C1821 C 0.16803 0.88347 0.32587 0.0
C1822 C 0.20175 0.86031 0.35384 0.0
C1823 C 0.18943 0.87367 0.37179 0.0
C1824 C 0.16939 0.89261 0.3663 0.0
C1825 C 0.15862 0.8974 0.34362 0.0
C1826 C 0.19258 0.87542 0.43682 0.0
C1827 C 0.17112 0.85677 0.44217 0.0
C1828 C 0.20184 0.88046 0.41391 0.0
C1829 C 0.19032 0.86681 0.3961 0.0
C1830 C 0.17257 0.84747 0.4018 0.0
C1831 C 0.16287 0.84255 0.42456 0.0
H1832 H 0.03992 0.88655 0.81764 0.0
H1833 H 0.09498 0.82836 0.83959 0.0
H1834 H 0.02278 0.89521 0.85766 0.0
H1835 H 0.07815 0.83691 0.87924 0.0
H1836 H 0.04054 0.85404 0.95004 0.0
H1837 H 0.02279 0.84537 0.91008 0.0
H1838 H 0.07898 0.90342 0.88821 0.0
H1839 H 0.09643 0.91199 0.92779 0.0
C1840 C 0.04712 0.8754 0.83092 0.0
C1841 C 0.06937 0.85693 0.82559 0.0
C1842 C 0.03752 0.88036 0.85381 0.0
C1843 C 0.04946 0.86681 0.87164 0.0
C1844 C 0.06812 0.84763 0.86597 0.0
C1845 C 0.07817 0.8428 0.84323 0.0
C1846 C 0.04786 0.86513 0.93671 0.0
C1847 C 0.07047 0.88353 0.94193 0.0
C1848 C 0.03788 0.86016 0.91386 0.0
C1849 C 0.04979 0.87365 0.89596 0.0
C1850 C 0.06895 0.89276 0.90153 0.0
C1851 C 0.07937 0.89759 0.92423 0.0
H1852 H 0.14225 0.40931 0.84141 0.0
H1853 H 0.20076 0.352 0.8188 0.0
H1854 H 0.15977 0.40064 0.88095 0.0
H1855 H 0.2186 0.34323 0.85872 0.0
H1856 H 0.14754 0.32525 0.92925 0.0
H1857 H 0.16418 0.33405 0.88964 0.0
H1858 H 0.21624 0.39289 0.91145 0.0
H1859 H 0.19928 0.38397 0.95143 0.0
C1860 C 0.15984 0.39502 0.84487 0.0
C1861 C 0.16953 0.38119 0.82706 0.0
C1862 C 0.17032 0.39014 0.86756 0.0
C1863 C 0.19035 0.37118 0.87303 0.0
C1864 C 0.20286 0.3579 0.85504 0.0
C1865 C 0.19281 0.36293 0.8322 0.0
C1866 C 0.16371 0.33985 0.92567 0.0
C1867 C 0.17156 0.35404 0.94336 0.0
C1868 C 0.1736 0.34484 0.90294 0.0
C1869 C 0.19114 0.36425 0.89734 0.0
C1870 C 0.20234 0.37787 0.91524 0.0
C1871 C 0.1929 0.37274 0.93812 0.0
H1872 H 0.95166 0.60496 0.70033 0.0
H1873 H 0.89678 0.66241 0.676 0.0
H1874 H 0.9701 0.59525 0.66074 0.0
H1875 H 0.91489 0.65283 0.63679 0.0
H1876 H 0.95391 0.63416 0.56684 0.0
H1877 H 0.97082 0.64381 0.60661 0.0
H1878 H 0.91582 0.58596 0.62988 0.0
H1879 H 0.89926 0.57643 0.59047 0.0
C1880 C 0.9448 0.61574 0.68663 0.0
C1881 C 0.92226 0.63431 0.69118 0.0
C1882 C 0.95512 0.61017 0.66397 0.0
C1883 C 0.94363 0.6232 0.64557 0.0
C1884 C 0.92462 0.64249 0.65048 0.0
C1885 C 0.91386 0.64792 0.67298 0.0
C1886 C 0.94682 0.6233 0.58044 0.0
C1887 C 0.92473 0.60468 0.57562 0.0
C1888 C 0.95625 0.62885 0.6032 0.0
C1889 C 0.94426 0.61573 0.62144 0.0
C1890 C 0.92587 0.59637 0.61631 0.0
C1891 C 0.91602 0.59097 0.59369 0.0
H1892 H 0.84641 0.08136 0.67602 0.0
H1893 H 0.79133 0.13915 0.69924 0.0
H1894 H 0.8288 0.09044 0.6366 0.0
H1895 H 0.77344 0.14835 0.65944 0.0
H1896 H 0.84474 0.16598 0.58882 0.0
H1897 H 0.82826 0.15708 0.62843 0.0
H1898 H 0.77233 0.09905 0.60633 0.0
H1899 H 0.78911 0.10805 0.56637 0.0
C1900 C 0.82949 0.09584 0.67271 0.0
C1901 C 0.82082 0.10968 0.69065 0.0
C1902 C 0.81897 0.10097 0.65009 0.0
C1903 C 0.79997 0.12018 0.64483 0.0
C1904 C 0.78838 0.13349 0.66296 0.0
C1905 C 0.79843 0.12821 0.68573 0.0
C1906 C 0.82781 0.15153 0.59234 0.0
C1907 C 0.81877 0.13758 0.57456 0.0
C1908 C 0.818 0.1465 0.61507 0.0
C1909 C 0.79935 0.12727 0.62058 0.0
C1910 C 0.78709 0.11392 0.60261 0.0
C1911 C 0.79645 0.11909 0.57975 0.0
H1912 H 0.94871 0.10259 0.19925 0.0
H1913 H 0.8941 0.16063 0.17655 0.0
H1914 H 0.9668 0.0937 0.15937 0.0
H1915 H 0.91187 0.15186 0.13706 0.0
H1916 H 0.9514 0.13475 0.06667 0.0
H1917 H 0.96817 0.14344 0.10672 0.0
H1918 H 0.91215 0.08526 0.12827 0.0
H1919 H 0.8957 0.07667 0.08858 0.0
C1920 C 0.94175 0.11365 0.18584 0.0
C1921 C 0.91943 0.13216 0.19092 0.0
C1922 C 0.95191 0.10855 0.16303 0.0
C1923 C 0.94048 0.12202 0.14502 0.0
C1924 C 0.92157 0.14121 0.15046 0.0
C1925 C 0.91096 0.14616 0.17311 0.0
C1926 C 0.94403 0.12361 0.07995 0.0
C1927 C 0.92169 0.10517 0.07458 0.0
C1928 C 0.9534 0.12861 0.10286 0.0
C1929 C 0.94111 0.11512 0.12071 0.0
C1930 C 0.92243 0.09594 0.11501 0.0
C1931 C 0.91263 0.09108 0.09224 0.0
H1932 H 0.84436 0.66699 0.08923 0.0
H1933 H 0.78833 0.60913 0.06682 0.0
H1934 H 0.82792 0.65813 0.12885 0.0
H1935 H 0.77161 0.60016 0.10681 0.0
H1936 H 0.8446 0.58236 0.1767 0.0
H1937 H 0.82763 0.59147 0.13722 0.0
H1938 H 0.77295 0.64958 0.15984 0.0
H1939 H 0.79019 0.64034 0.19971 0.0
C1940 C 0.82737 0.65256 0.09277 0.0
C1941 C 0.81816 0.63863 0.07498 0.0
C1942 C 0.81759 0.64755 0.11551 0.0
C1943 C 0.7988 0.62836 0.12104 0.0
C1944 C 0.78646 0.615 0.10308 0.0
C1945 C 0.79579 0.62016 0.08019 0.0
C1946 C 0.82797 0.59689 0.17333 0.0
C1947 C 0.81927 0.61076 0.19125 0.0
C1948 C 0.81783 0.60205 0.15067 0.0
C1949 C 0.7992 0.62131 0.14533 0.0
C1950 C 0.78763 0.63467 0.16342 0.0
C1951 C 0.79729 0.62937 0.18623 0.0
H1952 H 0.59314 0.41625 0.92703 0.0
H1953 H 0.53965 0.35786 0.94929 0.0
H1954 H 0.57671 0.40741 0.88741 0.0
H1955 H 0.52291 0.3489 0.9093 0.0
H1956 H 0.59702 0.33194 0.83944 0.0
H1957 H 0.5794 0.34078 0.87892 0.0
H1958 H 0.52221 0.39845 0.85642 0.0
H1959 H 0.54016 0.3895 0.81656 0.0
C1960 C 0.57666 0.40171 0.92346 0.0
C1961 C 0.56823 0.38762 0.94119 0.0
C1962 C 0.56688 0.3967 0.90073 0.0
C1963 C 0.54888 0.37737 0.89515 0.0
C1964 C 0.53716 0.36386 0.91307 0.0
C1965 C 0.54649 0.36901 0.93595 0.0
C1966 C 0.57974 0.34632 0.84283 0.0
C1967 C 0.57057 0.36017 0.82496 0.0
C1968 C 0.56921 0.35131 0.86549 0.0
C1969 C 0.54965 0.37038 0.87086 0.0
C1970 C 0.5376 0.38369 0.85281 0.0
C1971 C 0.5477 0.37856 0.83001 0.0
H1972 H 0.64493 0.8327 0.92728 0.0
H1973 H 0.69993 0.89085 0.94943 0.0
H1974 H 0.6619 0.84134 0.88767 0.0
H1975 H 0.71718 0.8996 0.90944 0.0
H1976 H 0.6441 0.91632 0.83905 0.0
H1977 H 0.66143 0.90785 0.87867 0.0
H1978 H 0.71777 0.84977 0.857 0.0
H1979 H 0.70016 0.85836 0.817 0.0
C1980 C 0.6617 0.84716 0.9237 0.0
C1981 C 0.67051 0.86124 0.94139 0.0
C1982 C 0.67185 0.85204 0.90097 0.0
C1983 C 0.69061 0.87122 0.89536 0.0
C1984 C 0.7024 0.88475 0.91324 0.0
C1985 C 0.69271 0.87974 0.93611 0.0
C1986 C 0.66127 0.90196 0.84266 0.0
C1987 C 0.67021 0.88786 0.825 0.0
C1988 C 0.67158 0.89717 0.86539 0.0
C1989 C 0.69064 0.87806 0.87103 0.0
C1990 C 0.70273 0.86456 0.85317 0.0
C1991 C 0.69287 0.86949 0.83029 0.0
H1992 H 0.53968 0.85762 0.45004 0.0
H1993 H 0.59485 0.91577 0.42803 0.0
H1994 H 0.52198 0.84904 0.41005 0.0
H1995 H 0.57744 0.90731 0.38841 0.0
H1996 H 0.53909 0.89026 0.31765 0.0
H1997 H 0.52181 0.89893 0.35766 0.0
H1998 H 0.57785 0.8408 0.37934 0.0
H1999 H 0.59484 0.83223 0.33971 0.0
C2000 C 0.54673 0.86879 0.43676 0.0
C2001 C 0.5692 0.88722 0.44205 0.0
C2002 C 0.53683 0.86387 0.41388 0.0
C2003 C 0.54867 0.87743 0.39603 0.0
C2004 C 0.56748 0.89658 0.40169 0.0
C2005 C 0.57784 0.90136 0.42441 0.0
C2006 C 0.54649 0.87915 0.33095 0.0
C2007 C 0.5689 0.86072 0.32565 0.0
C2008 C 0.53677 0.88413 0.35384 0.0
C2009 C 0.54876 0.87061 0.3717 0.0
C2010 C 0.56775 0.85148 0.36606 0.0
C2011 C 0.57791 0.84665 0.34332 0.0
H2012 H 0.70082 0.38937 0.44864 0.0
H2013 H 0.64321 0.33198 0.4257 0.0
H2014 H 0.71836 0.39842 0.40876 0.0
H2015 H 0.66044 0.34093 0.3862 0.0
H2016 H 0.6995 0.35819 0.31578 0.0
H2017 H 0.71666 0.34908 0.35568 0.0
H2018 H 0.66356 0.40758 0.37798 0.0
H2019 H 0.6467 0.41657 0.33845 0.0
C2020 C 0.69303 0.37848 0.43517 0.0
C2021 C 0.67007 0.36012 0.44021 0.0
C2022 C 0.7029 0.38368 0.41236 0.0
C2023 C 0.69052 0.37045 0.39429 0.0
C2024 C 0.67087 0.35139 0.39964 0.0
C2025 C 0.66057 0.34634 0.42231 0.0
C2026 C 0.69292 0.3693 0.32919 0.0
C2027 C 0.67124 0.38796 0.32409 0.0
C2028 C 0.70248 0.36406 0.35202 0.0
C2029 C 0.69106 0.37753 0.37003 0.0
C2030 C 0.67315 0.39691 0.36459 0.0
C2031 C 0.66313 0.402 0.3419 0.0
H2032 H 0.44825 0.60845 0.20309 0.0
H2033 H 0.39186 0.66612 0.18032 0.0
H2034 H 0.46501 0.5993 0.16315 0.0
H2035 H 0.40837 0.65709 0.14075 0.0
H2036 H 0.44682 0.63916 0.07006 0.0
H2037 H 0.46382 0.64851 0.10993 0.0
H2038 H 0.4091 0.59044 0.13266 0.0
H2039 H 0.39234 0.58122 0.09318 0.0
C2040 C 0.4407 0.6194 0.18964 0.0
C2041 C 0.41825 0.63787 0.19475 0.0
C2042 C 0.45006 0.61414 0.16679 0.0
C2043 C 0.43769 0.6274 0.14875 0.0
C2044 C 0.41874 0.64658 0.15417 0.0
C2045 C 0.40891 0.6517 0.17687 0.0
C2046 C 0.43969 0.62822 0.08357 0.0
C2047 C 0.41773 0.6096 0.07858 0.0
C2048 C 0.4492 0.63358 0.10638 0.0
C2049 C 0.43751 0.62027 0.1245 0.0
C2050 C 0.41896 0.60098 0.11919 0.0
C2051 C 0.40897 0.59577 0.09653 0.0
H2052 H 0.28841 0.13499 0.20289 0.0
H2053 H 0.34311 0.07678 0.1808 0.0
H2054 H 0.27178 0.14384 0.16286 0.0
H2055 H 0.3268 0.08552 0.14114 0.0
H2056 H 0.29064 0.10317 0.0702 0.0
H2057 H 0.27242 0.09422 0.11004 0.0
H2058 H 0.32817 0.15216 0.13256 0.0
H2059 H 0.34605 0.161 0.09311 0.0
C2060 C 0.29558 0.12386 0.18958 0.0
C2061 C 0.31761 0.10534 0.19488 0.0
C2062 C 0.2863 0.12894 0.16667 0.0
C2063 C 0.29836 0.11545 0.14879 0.0
C2064 C 0.3167 0.0962 0.15443 0.0
C2065 C 0.32642 0.09126 0.17719 0.0
C2066 C 0.29777 0.11417 0.08365 0.0
C2067 C 0.32034 0.13263 0.07863 0.0
C2068 C 0.28753 0.10903 0.10644 0.0
C2069 C 0.29914 0.12242 0.12449 0.0
C2070 C 0.31833 0.14157 0.11913 0.0
C2071 C 0.329 0.14656 0.09649 0.0
H2072 H 0.39596 0.16541 0.68029 0.0
H2073 H 0.45171 0.10759 0.703 0.0
H2074 H 0.4126 0.15642 0.64073 0.0
H2075 H 0.46864 0.09848 0.66308 0.0
H2076 H 0.39491 0.08063 0.59331 0.0
H2077 H 0.41243 0.08976 0.63273 0.0
H2078 H 0.46767 0.14769 0.60985 0.0
H2079 H 0.44987 0.13844 0.57005 0.0
C2080 C 0.41293 0.15096 0.67684 0.0
C2081 C 0.42198 0.13707 0.69468 0.0
C2082 C 0.42285 0.14588 0.65414 0.0
C2083 C 0.4416 0.12666 0.64871 0.0
C2084 C 0.45382 0.11335 0.66673 0.0
C2085 C 0.44436 0.11858 0.68957 0.0
C2086 C 0.41181 0.09512 0.59661 0.0
C2087 C 0.42045 0.10896 0.57866 0.0
C2088 C 0.42226 0.10028 0.61923 0.0
C2089 C 0.44116 0.11952 0.62448 0.0
C2090 C 0.45278 0.13281 0.60634 0.0
C2091 C 0.44279 0.1275 0.58357 0.0
H2092 H 0.34308 0.57624 0.67936 0.0
H2093 H 0.28895 0.63398 0.70325 0.0
H2094 H 0.32669 0.58597 0.63999 0.0
H2095 H 0.27225 0.64383 0.66353 0.0
H2096 H 0.34649 0.66257 0.59423 0.0
H2097 H 0.32841 0.65284 0.6334 0.0
H2098 H 0.27242 0.59551 0.60916 0.0
H2099 H 0.29082 0.60537 0.56962 0.0
C2100 C 0.32646 0.59082 0.67621 0.0
C2101 C 0.31783 0.60447 0.69434 0.0
C2102 C 0.31671 0.59634 0.65361 0.0
C2103 C 0.29853 0.61576 0.64856 0.0
C2104 C 0.28664 0.62882 0.66687 0.0
C2105 C 0.29595 0.62316 0.68961 0.0
C2106 C 0.32926 0.6481 0.59718 0.0
C2107 C 0.32061 0.6346 0.57891 0.0
C2108 C 0.31851 0.64259 0.61966 0.0
C2109 C 0.29927 0.62333 0.62447 0.0
C2110 C 0.28758 0.6104 0.60601 0.0
C2111 C 0.29788 0.61606 0.58338 0.0
H2112 H 0.24517 0.38878 0.25638 0.0
H2113 H 0.26955 0.33059 0.28926 0.0
H2114 H 0.32565 0.39766 0.26101 0.0
H2115 H 0.35123 0.33892 0.29251 0.0
H2116 H 0.4928 0.35319 0.25549 0.0
H2117 H 0.41249 0.34437 0.26087 0.0
H2118 H 0.38802 0.4033 0.29213 0.0
H2119 H 0.46962 0.41156 0.28818 0.0
C2120 C 0.26808 0.37783 0.26434 0.0
C2121 C 0.25218 0.35858 0.27136 0.0
C2122 C 0.31396 0.38294 0.26706 0.0
C2123 C 0.34466 0.36883 0.27664 0.0
C2124 C 0.32824 0.34993 0.28472 0.0
C2125 C 0.28196 0.34503 0.28252 0.0
C2126 C 0.47017 0.3642 0.26356 0.0
C2127 C 0.48634 0.38347 0.27031 0.0
C2128 C 0.42439 0.35913 0.26669 0.0
C2129 C 0.39402 0.37331 0.27641 0.0
C2130 C 0.41073 0.39225 0.28422 0.0
C2131 C 0.45695 0.3971 0.28162 0.0
H2132 H 0.74522 0.89127 0.25022 0.0
H2133 H 0.7655 0.83376 0.28525 0.0
H2134 H 0.82691 0.89858 0.25336 0.0
H2135 H 0.84807 0.84056 0.28722 0.0
H2136 H 0.99168 0.85267 0.25039 0.0
H2137 H 0.90998 0.84529 0.25342 0.0
H2138 H 0.88845 0.90329 0.28728 0.0
H2139 H 0.97099 0.91015 0.28543 0.0
C2140 C 0.76746 0.88012 0.25831 0.0
C2141 C 0.74996 0.86153 0.26651 0.0
C2142 C 0.81397 0.88433 0.26017 0.0
C2143 C 0.84358 0.87 0.27017 0.0
C2144 C 0.8258 0.85169 0.27914 0.0
C2145 C 0.77898 0.84768 0.27773 0.0
C2146 C 0.96935 0.86379 0.25846 0.0
C2147 C 0.98674 0.8824 0.26669 0.0
C2148 C 0.92284 0.85954 0.26026 0.0
C2149 C 0.89313 0.87385 0.27022 0.0
C2150 C 0.9108 0.89216 0.27923 0.0
C2151 C 0.95761 0.89621 0.27788 0.0
H2152 H 0.24775 0.85265 0.01625 0.0
H2153 H 0.26747 0.91051 0.98185 0.0
H2154 H 0.32939 0.8454 0.01275 0.0
H2155 H 0.35002 0.90379 0.97957 0.0
H2156 H 0.49366 0.89188 0.01614 0.0
H2157 H 0.41197 0.89912 0.01286 0.0
H2158 H 0.39114 0.84091 0.97935 0.0
H2159 H 0.47371 0.83418 0.98144 0.0
C2160 C 0.26986 0.86389 1.00822 0.0
C2161 C 0.25223 0.88256 1.00033 0.0
C2162 C 0.31635 0.85971 1.00616 0.0
C2163 C 0.34583 0.87417 0.99628 0.0
C2164 C 0.32788 0.89255 0.98757 0.0
C2165 C 0.28108 0.89652 0.98916 0.0
C2166 C 0.47149 0.88068 1.00808 0.0
C2167 C 0.48907 0.86205 1.00004 0.0
C2168 C 0.42498 0.88485 1.00614 0.0
C2169 C 0.39543 0.87044 0.99623 0.0
C2170 C 0.41333 0.85211 0.98736 0.0
C2171 C 0.46015 0.84814 0.98885 0.0
H2172 H 0.97 0.33043 0.97927 0.0
H2173 H 0.99289 0.3889 0.0118 0.0
H2174 H 0.88838 0.33861 0.97528 0.0
H2175 H 0.91255 0.39763 1.00638 0.0
H2176 H 0.76942 0.41118 0.97815 0.0
H2177 H 0.85115 0.40297 0.97486 0.0
H2178 H 0.82603 0.34417 1.0063 0.0
H2179 H 0.7455 0.35292 0.01097 0.0
C2180 C 0.95727 0.34489 0.98578 0.0
C2181 C 0.98658 0.35857 0.99707 0.0
C2182 C 0.91103 0.3497 0.98316 0.0
C2183 C 0.89422 0.36864 0.99092 0.0
C2184 C 0.92452 0.38287 1.0006 0.0
C2185 C 0.97032 0.37785 1.00376 0.0
C2186 C 0.78194 0.39675 0.98487 0.0
C2187 C 0.75228 0.38314 0.99603 0.0
C2188 C 0.82826 0.39193 0.98265 0.0
C2189 C 0.84482 0.37304 0.99071 0.0
C2190 C 0.81423 0.35888 1.00028 0.0
C2191 C 0.76832 0.36391 1.00302 0.0
H2192 H 0.74344 0.60151 0.7613 0.0
H2193 H 0.72062 0.65929 0.72726 0.0
H2194 H 0.66273 0.593 0.75683 0.0
H2195 H 0.6387 0.65136 0.7242 0.0
H2196 H 0.49698 0.63837 0.76197 0.0
H2197 H 0.57736 0.64675 0.75605 0.0
H2198 H 0.60001 0.58724 0.72585 0.0
H2199 H 0.51828 0.57945 0.73022 0.0
C2200 C 0.72083 0.61245 0.75311 0.0
C2201 C 0.73725 0.63151 0.74573 0.0
C2202 C 0.67481 0.60756 0.75049 0.0
C2203 C 0.64447 0.62168 0.74065 0.0
C2204 C 0.6614 0.64036 0.7322 0.0
C2205 C 0.70783 0.64503 0.73429 0.0
C2206 C 0.51921 0.62714 0.75402 0.0
C2207 C 0.50249 0.60783 0.74771 0.0
C2208 C 0.56505 0.63196 0.75058 0.0
C2209 C 0.59496 0.61749 0.74104 0.0
C2210 C 0.57768 0.59852 0.73364 0.0
C2211 C 0.53138 0.59392 0.73649 0.0
H2212 H 0.01912 0.08277 0.72974 0.0
H2213 H -0.00251 0.14016 0.7648 0.0
H2214 H 0.10152 0.09005 0.7276 0.0
H2215 H 0.07873 0.148 0.76132 0.0
H2216 H 0.22234 0.16126 0.73232 0.0
H2217 H 0.14044 0.15354 0.72891 0.0
H2218 H 0.16341 0.09465 0.76058 0.0
H2219 H 0.24436 0.10292 0.76529 0.0
C2220 C 0.03227 0.09677 0.73722 0.0
C2221 C 0.00296 0.11042 0.74857 0.0
C2222 C 0.07897 0.10107 0.73569 0.0
C2223 C 0.09629 0.11949 0.74462 0.0
C2224 C 0.06626 0.13365 0.75461 0.0
C2225 C 0.01996 0.12914 0.75665 0.0
C2226 C 0.20937 0.14693 0.73906 0.0
C2227 C 0.23858 0.13315 0.75024 0.0
C2228 C 0.16295 0.14238 0.73678 0.0
C2229 C 0.14578 0.12361 0.74482 0.0
C2230 C 0.1758 0.10927 0.75453 0.0
C2231 C 0.22189 0.11403 0.75729 0.0
H2232 H 0.51865 0.15952 0.0396 0.0
H2233 H 0.49739 0.10217 1.00439 0.0
H2234 H 0.60109 0.15235 0.04171 0.0
H2235 H 0.57868 0.09445 1.00782 0.0
H2236 H 0.72231 0.08126 0.03667 0.0
H2237 H 0.64038 0.08887 0.04011 0.0
H2238 H 0.66306 0.14795 1.00883 0.0
H2239 H 0.74407 0.1398 1.0041 0.0
C2240 C 0.53189 0.14555 0.03208 0.0
C2241 C 0.50267 0.13188 0.0207 0.0
C2242 C 0.57863 0.14132 0.03359 0.0
C2243 C 0.59606 0.12295 0.02461 0.0
C2244 C 0.56612 0.10876 0.01458 0.0
C2245 C 0.51979 0.11321 0.01257 0.0
C2246 C 0.70927 0.09562 0.03003 0.0
C2247 C 0.73842 0.10949 0.01895 0.0
C2248 C 0.66283 0.1001 0.03232 0.0
C2249 C 0.64557 0.11889 0.0244 0.0
C2250 C 0.67552 0.13332 0.01479 0.0
C2251 C 0.72165 0.12863 0.01202 0.0
H2252 H 0.242 0.6405 1.0047 0.0
H2253 H 0.22002 0.58307 0.03962 0.0
H2254 H 0.161 0.6486 1.00859 0.0
H2255 H 0.13778 0.59058 0.04209 0.0
H2256 H -0.00502 0.60385 1.00452 0.0
H2257 H 0.07576 0.59534 0.00936 0.0
H2258 H 0.09949 0.65423 0.0409 0.0
H2259 H 0.01773 0.66218 0.03738 0.0
C2260 C 0.2195 0.62952 0.0129 0.0
C2261 C 0.2363 0.61071 0.0208 0.0
C2262 C 0.17332 0.63418 0.01517 0.0
C2263 C 0.14321 0.62006 0.02518 0.0
C2264 C 0.16037 0.60156 0.03397 0.0
C2265 C 0.20697 0.59713 0.03224 0.0
C2266 C 0.01757 0.6149 0.01253 0.0
C2267 C 0.00116 0.63409 0.01949 0.0
C2268 C 0.06357 0.61001 0.01537 0.0
C2269 C 0.09377 0.62428 0.02506 0.0
C2270 C 0.07685 0.64311 0.03304 0.0
C2271 C 0.03052 0.64779 0.0307 0.0
H2272 H 0.4694 0.91094 0.787 0.0
H2273 H 0.4936 0.85322 0.75305 0.0
H2274 H 0.38756 0.90282 0.78964 0.0
H2275 H 0.41263 0.84461 0.75683 0.0
H2276 H 0.24577 0.88946 0.75275 0.0
H2277 H 0.3267 0.89764 0.75694 0.0
H2278 H 0.35017 0.83908 0.7892 0.0
H2279 H 0.26801 0.83146 0.78643 0.0
C2280 C 0.45692 0.89665 0.7799 0.0
C2281 C 0.48676 0.88315 0.76871 0.0
C2282 C 0.41053 0.89189 0.78172 0.0
C2283 C 0.39398 0.87319 0.77315 0.0
C2284 C 0.42457 0.85915 0.76335 0.0
C2285 C 0.47066 0.8641 0.76111 0.0
C2286 C 0.26833 0.87837 0.76072 0.0
C2287 C 0.25162 0.85941 0.7682 0.0
C2288 C 0.31446 0.88307 0.76316 0.0
C2289 C 0.34461 0.86884 0.77293 0.0
C2290 C 0.32755 0.85015 0.78127 0.0
C2291 C 0.281 0.84567 0.77936 0.0
H2292 H 0.7478 0.39014 0.74999 0.0
H2293 H 0.76688 0.33258 0.78509 0.0
H2294 H 0.8295 0.3973 0.75353 0.0
H2295 H 0.84949 0.33919 0.78739 0.0
H2296 H 0.99373 0.351 0.75096 0.0
H2297 H 0.91189 0.34383 0.75371 0.0
H2298 H 0.8907 0.40177 0.78774 0.0
H2299 H 0.97336 0.40843 0.78615 0.0
C2300 C 0.76979 0.37894 0.75817 0.0
C2301 C 0.75195 0.36038 0.76627 0.0
C2302 C 0.81631 0.38307 0.76025 0.0
C2303 C 0.84561 0.36866 0.77035 0.0
C2304 C 0.82747 0.35039 0.77923 0.0
C2305 C 0.78064 0.34648 0.77762 0.0
C2306 C 0.97145 0.36216 0.75902 0.0
C2307 C 0.98898 0.3807 0.76736 0.0
C2308 C 0.92486 0.35802 0.76065 0.0
C2309 C 0.89521 0.37238 0.77058 0.0
C2310 C 0.91301 0.39062 0.77972 0.0
C2311 C 0.95988 0.39455 0.77852 0.0
H2312 H 0.26705 0.40874 0.48176 0.0
H2313 H 0.24814 0.35092 0.51635 0.0
H2314 H 0.34961 0.40211 0.4792 0.0
H2315 H 0.32975 0.34374 0.51253 0.0
H2316 H 0.4737 0.33266 0.48064 0.0
H2317 H 0.39108 0.33933 0.4788 0.0
H2318 H 0.41206 0.39749 0.5124 0.0
H2319 H 0.49381 0.39029 0.51547 0.0
C2320 C 0.28084 0.39478 0.48905 0.0
C2321 C 0.25222 0.38082 0.50036 0.0
C2322 C 0.32764 0.39086 0.48729 0.0
C2323 C 0.34582 0.37251 0.49597 0.0
C2324 C 0.31655 0.35804 0.50597 0.0
C2325 C 0.27007 0.36217 0.50822 0.0
C2326 C 0.46018 0.34659 0.48813 0.0
C2327 C 0.48917 0.36049 0.4993 0.0
C2328 C 0.41332 0.35053 0.48678 0.0
C2329 C 0.39545 0.36883 0.49574 0.0
C2330 C 0.42505 0.38324 0.50561 0.0
C2331 C 0.4716 0.37909 0.50743 0.0
H2332 H 0.99375 0.88916 0.51385 0.0
H2333 H 0.97237 0.83083 0.48073 0.0
H2334 H 0.91291 0.89721 0.5092 0.0
H2335 H 0.89021 0.83831 0.47756 0.0
H2336 H 0.7464 0.85242 0.51331 0.0
H2337 H 0.82733 0.84383 0.50938 0.0
H2338 H 0.8522 0.90219 0.47682 0.0
H2339 H 0.77039 0.91028 0.47961 0.0
C2340 C 0.97138 0.87796 0.50591 0.0
C2341 C 0.98831 0.85895 0.49874 0.0
C2342 C 0.92529 0.88259 0.50321 0.0
C2343 C 0.89534 0.86823 0.49352 0.0
C2344 C 0.91265 0.84949 0.48545 0.0
C2345 C 0.9592 0.84508 0.48759 0.0
C2346 C 0.76928 0.86334 0.50527 0.0
C2347 C 0.75315 0.88242 0.4978 0.0
C2348 C 0.81537 0.85839 0.50294 0.0
C2349 C 0.84591 0.87249 0.49319 0.0
C2350 C 0.82929 0.89121 0.48471 0.0
C2351 C 0.78291 0.89596 0.48661 0.0
H2352 H 0.49578 0.1395 0.26513 0.0
H2353 H 0.5169 0.08094 0.2325 0.0
H2354 H 0.5768 0.14753 0.2603 0.0
H2355 H 0.59888 0.08843 0.22896 0.0
H2356 H 0.74205 0.10144 0.26464 0.0
H2357 H 0.66075 0.0938 0.26105 0.0
H2358 H 0.63874 0.15194 0.22762 0.0
H2359 H 0.7212 0.15904 0.22989 0.0
C2360 C 0.51807 0.1283 0.25718 0.0
C2361 C 0.5011 0.10919 0.25026 0.0
C2362 C 0.56421 0.13291 0.25434 0.0
C2363 C 0.59401 0.11845 0.2447 0.0
C2364 C 0.57655 0.09969 0.23678 0.0
C2365 C 0.53009 0.09528 0.23913 0.0
C2366 C 0.71974 0.11254 0.25652 0.0
C2367 C 0.73697 0.13126 0.24858 0.0
C2368 C 0.67341 0.10814 0.25441 0.0
C2369 C 0.64356 0.12242 0.24449 0.0
C2370 C 0.66112 0.14084 0.23567 0.0
C2371 C 0.70786 0.14502 0.23727 0.0
H2372 H -0.005 0.64072 0.26636 0.0
H2373 H 0.0166 0.58368 0.23058 0.0
H2374 H 0.07622 0.64861 0.26291 0.0
H2375 H 0.099 0.59098 0.22853 0.0
H2376 H 0.2195 0.66202 0.23295 0.0
H2377 H 0.1376 0.6542 0.22979 0.0
H2378 H 0.16099 0.59563 0.26208 0.0
H2379 H 0.24198 0.604 0.26655 0.0
C2380 C 0.01746 0.62978 0.25808 0.0
C2381 C 0.00046 0.61114 0.24977 0.0
C2382 C 0.06375 0.63432 0.25606 0.0
C2383 C 0.09375 0.62026 0.24589 0.0
C2384 C 0.07646 0.60191 0.23676 0.0
C2385 C 0.02976 0.5976 0.23825 0.0
C2386 C 0.20663 0.64773 0.23987 0.0
C2387 C 0.23598 0.63407 0.25116 0.0
C2388 C 0.16022 0.64313 0.23774 0.0
C2389 C 0.14319 0.62442 0.24601 0.0
C2390 C 0.17331 0.6102 0.25584 0.0
C2391 C 0.21941 0.61501 0.25846 0.0
H2392 H 0.74567 0.63876 0.50768 0.0
H2393 H 0.72407 0.57991 0.53956 0.0
H2394 H 0.66525 0.64718 0.51346 0.0
H2395 H 0.64233 0.58774 0.54378 0.0
H2396 H 0.49896 0.60208 0.50829 0.0
H2397 H 0.5797 0.59357 0.5126 0.0
H2398 H 0.6039 0.6518 0.5455 0.0
H2399 H 0.52198 0.65974 0.54256 0.0
C2400 C 0.72336 0.62755 0.51562 0.0
C2401 C 0.74002 0.60826 0.52202 0.0
C2402 C 0.6775 0.63239 0.51898 0.0
C2403 C 0.64752 0.61795 0.52853 0.0
C2404 C 0.66473 0.59899 0.536 0.0
C2405 C 0.71103 0.59438 0.53322 0.0
C2406 C 0.52162 0.613 0.5165 0.0
C2407 C 0.50523 0.63201 0.524 0.0
C2408 C 0.56765 0.6081 0.51903 0.0
C2409 C 0.59804 0.62218 0.52891 0.0
C2410 C 0.58116 0.64083 0.53747 0.0
C2411 C 0.53473 0.64551 0.53546 0.0
H2412 H -0.00339 0.1027 0.50499 0.0
H2413 H 0.01878 0.16137 0.53721 0.0
H2414 H 0.07742 0.09437 0.51 0.0
H2415 H 0.10057 0.15356 0.54093 0.0
H2416 H 0.24349 0.13997 0.50539 0.0
H2417 H 0.1624 0.14794 0.50915 0.0
H2418 H 0.13936 0.08978 0.54239 0.0
H2419 H 0.22165 0.08237 0.53999 0.0
C2420 C 0.01908 0.11386 0.5129 0.0
C2421 C 0.00249 0.13309 0.51964 0.0
C2422 C 0.06511 0.10907 0.51584 0.0
C2423 C 0.09518 0.12347 0.5254 0.0
C2424 C 0.07806 0.14234 0.53316 0.0
C2425 C 0.0317 0.14694 0.53071 0.0
C2426 C 0.221 0.12893 0.5135 0.0
C2427 C 0.23788 0.11012 0.52134 0.0
C2428 C 0.17477 0.13352 0.51571 0.0
C2429 C 0.14467 0.11933 0.52561 0.0
C2430 C 0.16192 0.10082 0.53435 0.0
C2431 C 0.20857 0.09645 0.53267 0.0
loop_
_geom_bond_atom_site_label_1
_geom_bond_atom_site_label_2
_geom_bond_distance
_geom_bond_site_symmetry_2
_ccdc_geom_bond_type
Mn0 O5 2.095 . S
Mn0 O15 2.162 . S
Mn0 O16 2.297 . S
Mn0 O24 2.385 . S
Mn0 O25 2.209 . S
Mn0 O26 2.094 . S
Mn1 O6 2.121 . S
Mn1 N8 2.257 . S
Mn1 N17 2.282 . S
Mn1 O25 2.215 . S
Mn1 O27 2.117 . S
C2 O24 1.234 . S
C2 O25 1.283 . S
C3 O15 1.281 . S
C3 O16 1.236 . S
C4 O26 1.240 . S
C4 O27 1.264 . S
O5 Mn0 2.095 . S
O5 C14 1.250 . S
O6 Mn1 2.121 . S
O6 C14 1.258 . S
C7 N8 1.326 . S
C7 C11 1.460 . S
C7 H13 0.929 . S
N8 Mn1 2.257 . S
N8 C7 1.326 . S
N8 C12 1.362 . S
C9 C10 1.258 . S
C9 C12 1.431 . S
C9 C29 1.449 . S
C10 C9 1.258 . S
C10 C11 1.477 . S
C10 H30 0.931 . S
C11 C7 1.460 . S
C11 C10 1.477 . S
C11 H31 0.930 . S
C12 N8 1.362 . S
C12 C9 1.431 . S
C12 C22 1.476 . S
H13 C7 0.929 . S
C14 O5 1.250 . S
C14 O6 1.258 . S
O15 Mn0 2.162 . S
O15 C3 1.281 . S
O16 Mn0 2.297 . S
O16 C3 1.236 . S
N17 Mn1 2.282 . S
N17 C18 1.328 . S
N17 C22 1.318 . S
C18 N17 1.328 . S
C18 C19 1.457 . S
C18 H23 0.929 . S
C19 C18 1.457 . S
C19 C20 1.291 . S
C19 H32 0.931 . S
C20 C19 1.291 . S
C20 C21 1.373 . S
C20 H33 0.929 . S
C21 C20 1.373 . S
C21 C22 1.396 . S
C21 C28 1.403 . S
C22 C12 1.476 . S
C22 N17 1.318 . S
C22 C21 1.396 . S
H23 C18 0.929 . S
O24 Mn0 2.385 . S
O24 C2 1.234 . S
O25 Mn0 2.209 . S
O25 Mn1 2.215 . S
O25 C2 1.283 . S
O26 Mn0 2.094 . S
O26 C4 1.240 . S
O27 Mn1 2.117 . S
O27 C4 1.264 . S
C28 C21 1.403 . S
C28 C29 1.399 . S
C28 H34 0.929 . S
C29 C9 1.449 . S
C29 C28 1.399 . S
C29 H35 0.930 . S
H30 C10 0.931 . S
H31 C11 0.930 . S
H32 C19 0.931 . S
H33 C20 0.929 . S
H34 C28 0.929 . S
H35 C29 0.930 . S
Mn36 O41 2.095 . S
Mn36 O51 2.162 . S
Mn36 O52 2.297 . S
Mn36 O60 2.385 . S
Mn36 O61 2.209 . S
Mn36 O62 2.094 . S
Mn37 O42 2.121 . S
Mn37 N44 2.257 . S
Mn37 N53 2.282 . S
Mn37 O61 2.215 . S
Mn37 O63 2.117 . S
C38 O60 1.234 . S
C38 O61 1.283 . S
C39 O51 1.281 . S
C39 O52 1.236 . S
C40 O62 1.240 . S
C40 O63 1.264 . S
O41 Mn36 2.095 . S
O41 C50 1.250 . S
O42 Mn37 2.121 . S
O42 C50 1.258 . S
C43 N44 1.326 . S
C43 C47 1.460 1_455 S
C43 H49 0.929 . S
N44 Mn37 2.257 . S
N44 C43 1.326 . S
N44 C48 1.362 1_455 S
C45 C46 1.258 . S
C45 C48 1.431 . S
C45 C65 1.449 . S
C46 C45 1.258 . S
C46 C47 1.477 . S
C46 H66 0.931 . S
C47 C43 1.460 1_655 S
C47 C46 1.477 . S
C47 H67 0.930 . S
C48 N44 1.362 1_655 S
C48 C45 1.431 . S
C48 C58 1.476 . S
H49 C43 0.929 . S
C50 O41 1.250 . S
C50 O42 1.258 . S
O51 Mn36 2.162 . S
O51 C39 1.281 . S
O52 Mn36 2.297 . S
O52 C39 1.236 . S
N53 Mn37 2.282 . S
N53 C54 1.328 . S
N53 C58 1.318 1_455 S
C54 N53 1.328 . S
C54 C55 1.457 1_455 S
C54 H59 0.929 . S
C55 C54 1.457 1_655 S
C55 C56 1.291 . S
C55 H68 0.931 . S
C56 C55 1.291 . S
C56 C57 1.373 . S
C56 H69 0.929 . S
C57 C56 1.373 . S
C57 C58 1.396 . S
C57 C64 1.403 . S
C58 C48 1.476 . S
C58 N53 1.318 1_655 S
C58 C57 1.396 . S
H59 C54 0.929 . S
O60 Mn36 2.385 . S
O60 C38 1.234 . S
O61 Mn36 2.209 . S
O61 Mn37 2.215 . S
O61 C38 1.283 . S
O62 Mn36 2.094 . S
O62 C40 1.240 . S
O63 Mn37 2.117 . S
O63 C40 1.264 . S
C64 C57 1.403 . S
C64 C65 1.399 . S
C64 H70 0.929 . S
C65 C45 1.449 . S
C65 C64 1.399 . S
C65 H71 0.930 . S
H66 C46 0.931 . S
H67 C47 0.930 . S
H68 C55 0.931 . S
H69 C56 0.929 . S
H70 C64 0.929 . S
H71 C65 0.930 . S
Mn72 O77 2.095 1_556 S
Mn72 O87 2.162 . S
Mn72 O88 2.297 . S
Mn72 O96 2.385 . S
Mn72 O97 2.209 1_556 S
Mn72 O98 2.094 1_556 S
Mn73 O78 2.121 . S
Mn73 N80 2.257 . S
Mn73 N89 2.282 . S
Mn73 O97 2.215 . S
Mn73 O99 2.117 . S
C74 O96 1.236 . S
C74 O97 1.280 1_556 S
C75 O87 1.281 . S
C75 O88 1.236 . S
C76 O98 1.240 . S
C76 O99 1.264 . S
O77 Mn72 2.095 1_554 S
O77 C86 1.250 . S
O78 Mn73 2.121 . S
O78 C86 1.258 . S
C79 N80 1.326 . S
C79 C83 1.460 . S
C79 H85 0.929 . S
N80 Mn73 2.257 . S
N80 C79 1.326 . S
N80 C84 1.362 . S
C81 C82 1.258 . S
C81 C84 1.431 . S
C81 C101 1.449 . S
C82 C81 1.258 . S
C82 C83 1.477 . S
C82 H102 0.931 . S
C83 C79 1.460 . S
C83 C82 1.477 . S
C83 H103 0.930 . S
C84 N80 1.362 . S
C84 C81 1.431 . S
C84 C94 1.476 . S
H85 C79 0.929 . S
C86 O77 1.250 . S
C86 O78 1.258 . S
O87 Mn72 2.162 . S
O87 C75 1.281 . S
O88 Mn72 2.297 . S
O88 C75 1.236 . S
N89 Mn73 2.282 . S
N89 C90 1.328 . S
N89 C94 1.318 . S
C90 N89 1.328 . S
C90 C91 1.457 . S
C90 H95 0.929 . S
C91 C90 1.457 . S
C91 C92 1.291 . S
C91 H104 0.931 . S
C92 C91 1.291 . S
C92 C93 1.373 . S
C92 H105 0.929 . S
C93 C92 1.373 . S
C93 C94 1.396 . S
C93 C100 1.403 . S
C94 C84 1.476 . S
C94 N89 1.318 . S
C94 C93 1.396 . S
H95 C90 0.929 . S
O96 Mn72 2.385 . S
O96 C74 1.236 . S
O97 Mn72 2.209 1_554 S
O97 Mn73 2.215 . S
O97 C74 1.280 1_554 S
O98 Mn72 2.094 1_554 S
O98 C76 1.240 . S
O99 Mn73 2.117 . S
O99 C76 1.264 . S
C100 C93 1.403 . S
C100 C101 1.399 . S
C100 H106 0.929 . S
C101 C81 1.449 . S
C101 C100 1.399 . S
C101 H107 0.930 . S
H102 C82 0.931 . S
H103 C83 0.930 . S
H104 C91 0.931 . S
H105 C92 0.929 . S
H106 C100 0.929 . S
H107 C101 0.930 . S
Mn108 O113 2.095 1_556 S
Mn108 O123 2.162 . S
Mn108 O124 2.297 . S
Mn108 O132 2.385 . S
Mn108 O133 2.209 1_556 S
Mn108 O134 2.094 1_556 S
Mn109 O114 2.121 . S
Mn109 N116 2.257 . S
Mn109 N125 2.282 . S
Mn109 O133 2.215 . S
Mn109 O135 2.117 . S
C110 O132 1.236 . S
C110 O133 1.280 1_556 S
C111 O123 1.281 . S
C111 O124 1.236 . S
C112 O134 1.240 . S
C112 O135 1.264 . S
O113 Mn108 2.095 1_554 S
O113 C122 1.250 . S
O114 Mn109 2.121 . S
O114 C122 1.258 . S
C115 N116 1.326 . S
C115 C119 1.460 1_455 S
C115 H121 0.929 . S
N116 Mn109 2.257 . S
N116 C115 1.326 . S
N116 C120 1.362 1_455 S
C117 C118 1.258 . S
C117 C120 1.431 . S
C117 C137 1.449 . S
C118 C117 1.258 . S
C118 C119 1.477 . S
C118 H138 0.931 . S
C119 C115 1.460 1_655 S
C119 C118 1.477 . S
C119 H139 0.930 . S
C120 N116 1.362 1_655 S
C120 C117 1.431 . S
C120 C130 1.476 . S
H121 C115 0.929 . S
C122 O113 1.250 . S
C122 O114 1.258 . S
O123 Mn108 2.162 . S
O123 C111 1.281 . S
O124 Mn108 2.297 . S
O124 C111 1.236 . S
N125 Mn109 2.282 . S
N125 C126 1.328 . S
N125 C130 1.318 1_455 S
C126 N125 1.328 . S
C126 C127 1.457 1_455 S
C126 H131 0.929 . S
C127 C126 1.457 1_655 S
C127 C128 1.291 . S
C127 H140 0.931 . S
C128 C127 1.291 . S
C128 C129 1.373 . S
C128 H141 0.929 . S
C129 C128 1.373 . S
C129 C130 1.396 . S
C129 C136 1.403 . S
C130 C120 1.476 . S
C130 N125 1.318 1_655 S
C130 C129 1.396 . S
H131 C126 0.929 . S
O132 Mn108 2.385 . S
O132 C110 1.236 . S
O133 Mn108 2.209 1_554 S
O133 Mn109 2.215 . S
O133 C110 1.280 1_554 S
O134 Mn108 2.094 1_554 S
O134 C112 1.240 . S
O135 Mn109 2.117 . S
O135 C112 1.264 . S
C136 C129 1.403 . S
C136 C137 1.399 . S
C136 H142 0.929 . S
C137 C117 1.449 . S
C137 C136 1.399 . S
C137 H143 0.930 . S
H138 C118 0.931 . S
H139 C119 0.930 . S
H140 C127 0.931 . S
H141 C128 0.929 . S
H142 C136 0.929 . S
H143 C137 0.930 . S
Mn144 O149 2.095 . S
Mn144 O159 2.162 . S
Mn144 O160 2.297 . S
Mn144 O168 2.385 . S
Mn144 O169 2.209 . S
Mn144 O170 2.094 . S
Mn145 O150 2.121 . S
Mn145 N152 2.257 . S
Mn145 N161 2.282 . S
Mn145 O169 2.215 . S
Mn145 O171 2.117 . S
C146 O168 1.234 . S
C146 O169 1.283 . S
C147 O159 1.281 . S
C147 O160 1.236 . S
C148 O170 1.240 . S
C148 O171 1.264 . S
O149 Mn144 2.095 . S
O149 C158 1.250 . S
O150 Mn145 2.121 . S
O150 C158 1.258 . S
C151 N152 1.326 . S
C151 C155 1.460 . S
C151 H157 0.929 . S
N152 Mn145 2.257 . S
N152 C151 1.326 . S
N152 C156 1.362 . S
C153 C154 1.258 . S
C153 C156 1.431 . S
C153 C173 1.449 . S
C154 C153 1.258 . S
C154 C155 1.477 . S
C154 H174 0.931 . S
C155 C151 1.460 . S
C155 C154 1.477 . S
C155 H175 0.930 . S
C156 N152 1.362 . S
C156 C153 1.431 . S
C156 C166 1.476 . S
H157 C151 0.929 . S
C158 O149 1.250 . S
C158 O150 1.258 . S
O159 Mn144 2.162 . S
O159 C147 1.281 . S
O160 Mn144 2.297 . S
O160 C147 1.236 . S
N161 Mn145 2.282 . S
N161 C162 1.328 . S
N161 C166 1.318 . S
C162 N161 1.328 . S
C162 C163 1.457 . S
C162 H167 0.929 . S
C163 C162 1.457 . S
C163 C164 1.291 . S
C163 H176 0.931 . S
C164 C163 1.291 . S
C164 C165 1.373 . S
C164 H177 0.929 . S
C165 C164 1.373 . S
C165 C166 1.396 . S
C165 C172 1.403 . S
C166 C156 1.476 . S
C166 N161 1.318 . S
C166 C165 1.396 . S
H167 C162 0.929 . S
O168 Mn144 2.385 . S
O168 C146 1.234 . S
O169 Mn144 2.209 . S
O169 Mn145 2.215 . S
O169 C146 1.283 . S
O170 Mn144 2.094 . S
O170 C148 1.240 . S
O171 Mn145 2.117 . S
O171 C148 1.264 . S
C172 C165 1.403 . S
C172 C173 1.399 . S
C172 H178 0.929 . S
C173 C153 1.449 . S
C173 C172 1.399 . S
C173 H179 0.930 . S
H174 C154 0.931 . S
H175 C155 0.930 . S
H176 C163 0.931 . S
H177 C164 0.929 . S
H178 C172 0.929 . S
H179 C173 0.930 . S
Mn180 O185 2.095 . S
Mn180 O195 2.162 . S
Mn180 O196 2.297 . S
Mn180 O204 2.385 . S
Mn180 O205 2.209 . S
Mn180 O206 2.094 . S
Mn181 O186 2.121 . S
Mn181 N188 2.257 . S
Mn181 N197 2.282 . S
Mn181 O205 2.215 . S
Mn181 O207 2.117 . S
C182 O204 1.234 . S
C182 O205 1.283 . S
C183 O195 1.281 . S
C183 O196 1.236 . S
C184 O206 1.240 . S
C184 O207 1.264 . S
O185 Mn180 2.095 . S
O185 C194 1.250 . S
O186 Mn181 2.121 . S
O186 C194 1.258 . S
C187 N188 1.326 . S
C187 C191 1.460 1_655 S
C187 H193 0.929 . S
N188 Mn181 2.257 . S
N188 C187 1.326 . S
N188 C192 1.362 1_655 S
C189 C190 1.258 . S
C189 C192 1.431 . S
C189 C209 1.449 . S
C190 C189 1.258 . S
C190 C191 1.477 . S
C190 H210 0.931 . S
C191 C187 1.460 1_455 S
C191 C190 1.477 . S
C191 H211 0.930 . S
C192 N188 1.362 1_455 S
C192 C189 1.431 . S
C192 C202 1.476 . S
H193 C187 0.929 . S
C194 O185 1.250 . S
C194 O186 1.258 . S
O195 Mn180 2.162 . S
O195 C183 1.281 . S
O196 Mn180 2.297 . S
O196 C183 1.236 . S
N197 Mn181 2.282 . S
N197 C198 1.328 . S
N197 C202 1.318 1_655 S
C198 N197 1.328 . S
C198 C199 1.457 1_655 S
C198 H203 0.929 . S
C199 C198 1.457 1_455 S
C199 C200 1.291 . S
C199 H212 0.931 . S
C200 C199 1.291 . S
C200 C201 1.373 . S
C200 H213 0.929 . S
C201 C200 1.373 . S
C201 C202 1.396 . S
C201 C208 1.403 . S
C202 C192 1.476 . S
C202 N197 1.318 1_455 S
C202 C201 1.396 . S
H203 C198 0.929 . S
O204 Mn180 2.385 . S
O204 C182 1.234 . S
O205 Mn180 2.209 . S
O205 Mn181 2.215 . S
O205 C182 1.283 . S
O206 Mn180 2.094 . S
O206 C184 1.240 . S
O207 Mn181 2.117 . S
O207 C184 1.264 . S
C208 C201 1.403 . S
C208 C209 1.399 . S
C208 H214 0.929 . S
C209 C189 1.449 . S
C209 C208 1.399 . S
C209 H215 0.930 . S
H210 C190 0.931 . S
H211 C191 0.930 . S
H212 C199 0.931 . S
H213 C200 0.929 . S
H214 C208 0.929 . S
H215 C209 0.930 . S
Mn216 O221 2.095 1_554 S
Mn216 O231 2.162 . S
Mn216 O232 2.297 . S
Mn216 O240 2.385 . S
Mn216 O241 2.209 1_554 S
Mn216 O242 2.094 1_554 S
Mn217 O222 2.121 . S
Mn217 N224 2.257 . S
Mn217 N233 2.282 . S
Mn217 O241 2.215 . S
Mn217 O243 2.117 . S
C218 O240 1.236 . S
C218 O241 1.280 1_554 S
C219 O231 1.281 . S
C219 O232 1.236 . S
C220 O242 1.240 . S
C220 O243 1.264 . S
O221 Mn216 2.095 1_556 S
O221 C230 1.250 . S
O222 Mn217 2.121 . S
O222 C230 1.258 . S
C223 N224 1.326 . S
C223 C227 1.460 . S
C223 H229 0.929 . S
N224 Mn217 2.257 . S
N224 C223 1.326 . S
N224 C228 1.362 . S
C225 C226 1.258 . S
C225 C228 1.431 . S
C225 C245 1.449 . S
C226 C225 1.258 . S
C226 C227 1.477 . S
C226 H246 0.931 . S
C227 C223 1.460 . S
C227 C226 1.477 . S
C227 H247 0.930 . S
C228 N224 1.362 . S
C228 C225 1.431 . S
C228 C238 1.476 . S
H229 C223 0.929 . S
C230 O221 1.250 . S
C230 O222 1.258 . S
O231 Mn216 2.162 . S
O231 C219 1.281 . S
O232 Mn216 2.297 . S
O232 C219 1.236 . S
N233 Mn217 2.282 . S
N233 C234 1.328 . S
N233 C238 1.318 . S
C234 N233 1.328 . S
C234 C235 1.457 . S
C234 H239 0.929 . S
C235 C234 1.457 . S
C235 C236 1.291 . S
C235 H248 0.931 . S
C236 C235 1.291 . S
C236 C237 1.373 . S
C236 H249 0.929 . S
C237 C236 1.373 . S
C237 C238 1.396 . S
C237 C244 1.403 . S
C238 C228 1.476 . S
C238 N233 1.318 . S
C238 C237 1.396 . S
H239 C234 0.929 . S
O240 Mn216 2.385 . S
O240 C218 1.236 . S
O241 Mn216 2.209 1_556 S
O241 Mn217 2.215 . S
O241 C218 1.280 1_556 S
O242 Mn216 2.094 1_556 S
O242 C220 1.240 . S
O243 Mn217 2.117 . S
O243 C220 1.264 . S
C244 C237 1.403 . S
C244 C245 1.399 . S
C244 H250 0.929 . S
C245 C225 1.449 . S
C245 C244 1.399 . S
C245 H251 0.930 . S
H246 C226 0.931 . S
H247 C227 0.930 . S
H248 C235 0.931 . S
H249 C236 0.929 . S
H250 C244 0.929 . S
H251 C245 0.930 . S
Mn252 O257 2.095 1_554 S
Mn252 O267 2.162 . S
Mn252 O268 2.297 . S
Mn252 O276 2.385 . S
Mn252 O277 2.209 1_554 S
Mn252 O278 2.094 1_554 S
Mn253 O258 2.121 . S
Mn253 N260 2.257 . S
Mn253 N269 2.282 . S
Mn253 O277 2.215 . S
Mn253 O279 2.117 . S
C254 O276 1.236 . S
C254 O277 1.280 1_554 S
C255 O267 1.281 . S
C255 O268 1.236 . S
C256 O278 1.240 . S
C256 O279 1.264 . S
O257 Mn252 2.095 1_556 S
O257 C266 1.250 . S
O258 Mn253 2.121 . S
O258 C266 1.258 . S
C259 N260 1.326 . S
C259 C263 1.460 1_655 S
C259 H265 0.929 . S
N260 Mn253 2.257 . S
N260 C259 1.326 . S
N260 C264 1.362 1_655 S
C261 C262 1.258 . S
C261 C264 1.431 . S
C261 C281 1.449 . S
C262 C261 1.258 . S
C262 C263 1.477 . S
C262 H282 0.931 . S
C263 C259 1.460 1_455 S
C263 C262 1.477 . S
C263 H283 0.930 . S
C264 N260 1.362 1_455 S
C264 C261 1.431 . S
C264 C274 1.476 . S
H265 C259 0.929 . S
C266 O257 1.250 . S
C266 O258 1.258 . S
O267 Mn252 2.162 . S
O267 C255 1.281 . S
O268 Mn252 2.297 . S
O268 C255 1.236 . S
N269 Mn253 2.282 . S
N269 C270 1.328 . S
N269 C274 1.318 1_655 S
C270 N269 1.328 . S
C270 C271 1.457 1_655 S
C270 H275 0.929 . S
C271 C270 1.457 1_455 S
C271 C272 1.291 . S
C271 H284 0.931 . S
C272 C271 1.291 . S
C272 C273 1.373 . S
C272 H285 0.929 . S
C273 C272 1.373 . S
C273 C274 1.396 . S
C273 C280 1.403 . S
C274 C264 1.476 . S
C274 N269 1.318 1_455 S
C274 C273 1.396 . S
H275 C270 0.929 . S
O276 Mn252 2.385 . S
O276 C254 1.236 . S
O277 Mn252 2.209 1_556 S
O277 Mn253 2.215 . S
O277 C254 1.280 1_556 S
O278 Mn252 2.094 1_556 S
O278 C256 1.240 . S
O279 Mn253 2.117 . S
O279 C256 1.264 . S
C280 C273 1.403 . S
C280 C281 1.399 . S
C280 H286 0.929 . S
C281 C261 1.449 . S
C281 C280 1.399 . S
C281 H287 0.930 . S
H282 C262 0.931 . S
H283 C263 0.930 . S
H284 C271 0.931 . S
H285 C272 0.929 . S
H286 C280 0.929 . S
H287 C281 0.930 . S
Mn288 O293 2.095 . S
Mn288 O303 2.162 . S
Mn288 O304 2.297 . S
Mn288 O312 2.385 . S
Mn288 O313 2.209 . S
Mn288 O314 2.094 . S
Mn289 O294 2.121 . S
Mn289 N296 2.257 . S
Mn289 N305 2.282 . S
Mn289 O313 2.215 . S
Mn289 O315 2.117 . S
C290 O312 1.234 . S
C290 O313 1.283 . S
C291 O303 1.281 . S
C291 O304 1.236 . S
C292 O314 1.240 . S
C292 O315 1.264 . S
O293 Mn288 2.095 . S
O293 C302 1.250 . S
O294 Mn289 2.121 . S
O294 C302 1.258 . S
C295 N296 1.326 . S
C295 C299 1.460 . S
C295 H301 0.929 . S
N296 Mn289 2.257 . S
N296 C295 1.326 . S
N296 C300 1.362 . S
C297 C298 1.258 . S
C297 C300 1.431 . S
C297 C317 1.449 . S
C298 C297 1.258 . S
C298 C299 1.477 . S
C298 H318 0.931 . S
C299 C295 1.460 . S
C299 C298 1.477 . S
C299 H319 0.930 . S
C300 N296 1.362 . S
C300 C297 1.431 . S
C300 C310 1.476 . S
H301 C295 0.929 . S
C302 O293 1.250 . S
C302 O294 1.258 . S
O303 Mn288 2.162 . S
O303 C291 1.281 . S
O304 Mn288 2.297 . S
O304 C291 1.236 . S
N305 Mn289 2.282 . S
N305 C306 1.328 . S
N305 C310 1.318 . S
C306 N305 1.328 . S
C306 C307 1.457 . S
C306 H311 0.929 . S
C307 C306 1.457 . S
C307 C308 1.291 . S
C307 H320 0.931 . S
C308 C307 1.291 . S
C308 C309 1.373 . S
C308 H321 0.929 . S
C309 C308 1.373 . S
C309 C310 1.396 . S
C309 C316 1.403 . S
C310 C300 1.476 . S
C310 N305 1.318 . S
C310 C309 1.396 . S
H311 C306 0.929 . S
O312 Mn288 2.385 . S
O312 C290 1.234 . S
O313 Mn288 2.209 . S
O313 Mn289 2.215 . S
O313 C290 1.283 . S
O314 Mn288 2.094 . S
O314 C292 1.240 . S
O315 Mn289 2.117 . S
O315 C292 1.264 . S
C316 C309 1.403 . S
C316 C317 1.399 . S
C316 H322 0.929 . S
C317 C297 1.449 . S
C317 C316 1.399 . S
C317 H323 0.930 . S
H318 C298 0.931 . S
H319 C299 0.930 . S
H320 C307 0.931 . S
H321 C308 0.929 . S
H322 C316 0.929 . S
H323 C317 0.930 . S
Mn324 O329 2.095 . S
Mn324 O339 2.162 . S
Mn324 O340 2.297 . S
Mn324 O348 2.385 . S
Mn324 O349 2.209 . S
Mn324 O350 2.094 . S
Mn325 O330 2.121 . S
Mn325 N332 2.257 . S
Mn325 N341 2.282 . S
Mn325 O349 2.215 . S
Mn325 O351 2.117 . S
C326 O348 1.234 . S
C326 O349 1.283 . S
C327 O339 1.281 . S
C327 O340 1.236 . S
C328 O350 1.240 . S
C328 O351 1.264 . S
O329 Mn324 2.095 . S
O329 C338 1.250 . S
O330 Mn325 2.121 . S
O330 C338 1.258 . S
C331 N332 1.326 . S
C331 C335 1.460 1_455 S
C331 H337 0.929 . S
N332 Mn325 2.257 . S
N332 C331 1.326 . S
N332 C336 1.362 1_455 S
C333 C334 1.258 . S
C333 C336 1.431 . S
C333 C353 1.449 . S
C334 C333 1.258 . S
C334 C335 1.477 . S
C334 H354 0.931 . S
C335 C331 1.460 1_655 S
C335 C334 1.477 . S
C335 H355 0.930 . S
C336 N332 1.362 1_655 S
C336 C333 1.431 . S
C336 C346 1.476 . S
H337 C331 0.929 . S
C338 O329 1.250 . S
C338 O330 1.258 . S
O339 Mn324 2.162 . S
O339 C327 1.281 . S
O340 Mn324 2.297 . S
O340 C327 1.236 . S
N341 Mn325 2.282 . S
N341 C342 1.328 . S
N341 C346 1.318 1_455 S
C342 N341 1.328 . S
C342 C343 1.457 1_455 S
C342 H347 0.929 . S
C343 C342 1.457 1_655 S
C343 C344 1.291 . S
C343 H356 0.931 . S
C344 C343 1.291 . S
C344 C345 1.373 . S
C344 H357 0.929 . S
C345 C344 1.373 . S
C345 C346 1.396 . S
C345 C352 1.403 . S
C346 C336 1.476 . S
C346 N341 1.318 1_655 S
C346 C345 1.396 . S
H347 C342 0.929 . S
O348 Mn324 2.385 . S
O348 C326 1.234 . S
O349 Mn324 2.209 . S
O349 Mn325 2.215 . S
O349 C326 1.283 . S
O350 Mn324 2.094 . S
O350 C328 1.240 . S
O351 Mn325 2.117 . S
O351 C328 1.264 . S
C352 C345 1.403 . S
C352 C353 1.399 . S
C352 H358 0.929 . S
C353 C333 1.449 . S
C353 C352 1.399 . S
C353 H359 0.930 . S
H354 C334 0.931 . S
H355 C335 0.930 . S
H356 C343 0.931 . S
H357 C344 0.929 . S
H358 C352 0.929 . S
H359 C353 0.930 . S
Mn360 O365 2.095 . S
Mn360 O375 2.162 . S
Mn360 O376 2.297 . S
Mn360 O384 2.385 . S
Mn360 O385 2.209 . S
Mn360 O386 2.094 . S
Mn361 O366 2.121 . S
Mn361 N368 2.257 . S
Mn361 N377 2.282 . S
Mn361 O385 2.215 . S
Mn361 O387 2.117 . S
C362 O384 1.234 . S
C362 O385 1.283 . S
C363 O375 1.281 . S
C363 O376 1.236 . S
C364 O386 1.240 . S
C364 O387 1.264 . S
O365 Mn360 2.095 . S
O365 C374 1.250 . S
O366 Mn361 2.121 . S
O366 C374 1.258 . S
C367 N368 1.326 . S
C367 C371 1.460 . S
C367 H373 0.929 . S
N368 Mn361 2.257 . S
N368 C367 1.326 . S
N368 C372 1.362 . S
C369 C370 1.258 . S
C369 C372 1.431 . S
C369 C389 1.449 . S
C370 C369 1.258 . S
C370 C371 1.477 . S
C370 H390 0.931 . S
C371 C367 1.460 . S
C371 C370 1.477 . S
C371 H391 0.930 . S
C372 N368 1.362 . S
C372 C369 1.431 . S
C372 C382 1.476 . S
H373 C367 0.929 . S
C374 O365 1.250 . S
C374 O366 1.258 . S
O375 Mn360 2.162 . S
O375 C363 1.281 . S
O376 Mn360 2.297 . S
O376 C363 1.236 . S
N377 Mn361 2.282 . S
N377 C378 1.328 . S
N377 C382 1.318 . S
C378 N377 1.328 . S
C378 C379 1.457 . S
C378 H383 0.929 . S
C379 C378 1.457 . S
C379 C380 1.291 . S
C379 H392 0.931 . S
C380 C379 1.291 . S
C380 C381 1.373 . S
C380 H393 0.929 . S
C381 C380 1.373 . S
C381 C382 1.396 . S
C381 C388 1.403 . S
C382 C372 1.476 . S
C382 N377 1.318 . S
C382 C381 1.396 . S
H383 C378 0.929 . S
O384 Mn360 2.385 . S
O384 C362 1.234 . S
O385 Mn360 2.209 . S
O385 Mn361 2.215 . S
O385 C362 1.283 . S
O386 Mn360 2.094 . S
O386 C364 1.240 . S
O387 Mn361 2.117 . S
O387 C364 1.264 . S
C388 C381 1.403 . S
C388 C389 1.399 . S
C388 H394 0.929 . S
C389 C369 1.449 . S
C389 C388 1.399 . S
C389 H395 0.930 . S
H390 C370 0.931 . S
H391 C371 0.930 . S
H392 C379 0.931 . S
H393 C380 0.929 . S
H394 C388 0.929 . S
H395 C389 0.930 . S
Mn396 O401 2.095 . S
Mn396 O411 2.162 . S
Mn396 O412 2.297 . S
Mn396 O420 2.385 . S
Mn396 O421 2.209 . S
Mn396 O422 2.094 . S
Mn397 O402 2.121 . S
Mn397 N404 2.257 . S
Mn397 N413 2.282 . S
Mn397 O421 2.215 . S
Mn397 O423 2.117 . S
C398 O420 1.234 . S
C398 O421 1.283 . S
C399 O411 1.281 . S
C399 O412 1.236 . S
C400 O422 1.240 . S
C400 O423 1.264 . S
O401 Mn396 2.095 . S
O401 C410 1.250 . S
O402 Mn397 2.121 . S
O402 C410 1.258 . S
C403 N404 1.326 . S
C403 C407 1.460 1_455 S
C403 H409 0.929 . S
N404 Mn397 2.257 . S
N404 C403 1.326 . S
N404 C408 1.362 1_455 S
C405 C406 1.258 . S
C405 C408 1.431 . S
C405 C425 1.449 . S
C406 C405 1.258 . S
C406 C407 1.477 . S
C406 H426 0.931 . S
C407 C403 1.460 1_655 S
C407 C406 1.477 . S
C407 H427 0.930 . S
C408 N404 1.362 1_655 S
C408 C405 1.431 . S
C408 C418 1.476 . S
H409 C403 0.929 . S
C410 O401 1.250 . S
C410 O402 1.258 . S
O411 Mn396 2.162 . S
O411 C399 1.281 . S
O412 Mn396 2.297 . S
O412 C399 1.236 . S
N413 Mn397 2.282 . S
N413 C414 1.328 . S
N413 C418 1.318 1_455 S
C414 N413 1.328 . S
C414 C415 1.457 1_455 S
C414 H419 0.929 . S
C415 C414 1.457 1_655 S
C415 C416 1.291 . S
C415 H428 0.931 . S
C416 C415 1.291 . S
C416 C417 1.373 . S
C416 H429 0.929 . S
C417 C416 1.373 . S
C417 C418 1.396 . S
C417 C424 1.403 . S
C418 C408 1.476 . S
C418 N413 1.318 1_655 S
C418 C417 1.396 . S
H419 C414 0.929 . S
O420 Mn396 2.385 . S
O420 C398 1.234 . S
O421 Mn396 2.209 . S
O421 Mn397 2.215 . S
O421 C398 1.283 . S
O422 Mn396 2.094 . S
O422 C400 1.240 . S
O423 Mn397 2.117 . S
O423 C400 1.264 . S
C424 C417 1.403 . S
C424 C425 1.399 . S
C424 H430 0.929 . S
C425 C405 1.449 . S
C425 C424 1.399 . S
C425 H431 0.930 . S
H426 C406 0.931 . S
H427 C407 0.930 . S
H428 C415 0.931 . S
H429 C416 0.929 . S
H430 C424 0.929 . S
H431 C425 0.930 . S
Mn432 O437 2.095 . S
Mn432 O447 2.162 . S
Mn432 O448 2.297 . S
Mn432 O456 2.385 . S
Mn432 O457 2.209 . S
Mn432 O458 2.094 . S
Mn433 O438 2.121 . S
Mn433 N440 2.257 . S
Mn433 N449 2.282 . S
Mn433 O457 2.215 . S
Mn433 O459 2.117 . S
C434 O456 1.234 . S
C434 O457 1.283 . S
C435 O447 1.281 . S
C435 O448 1.236 . S
C436 O458 1.240 . S
C436 O459 1.264 . S
O437 Mn432 2.095 . S
O437 C446 1.250 . S
O438 Mn433 2.121 . S
O438 C446 1.258 . S
C439 N440 1.326 . S
C439 C443 1.460 . S
C439 H445 0.929 . S
N440 Mn433 2.257 . S
N440 C439 1.326 . S
N440 C444 1.362 . S
C441 C442 1.258 . S
C441 C444 1.431 . S
C441 C461 1.449 . S
C442 C441 1.258 . S
C442 C443 1.477 . S
C442 H462 0.931 . S
C443 C439 1.460 . S
C443 C442 1.477 . S
C443 H463 0.930 . S
C444 N440 1.362 . S
C444 C441 1.431 . S
C444 C454 1.476 . S
H445 C439 0.929 . S
C446 O437 1.250 . S
C446 O438 1.258 . S
O447 Mn432 2.162 . S
O447 C435 1.281 . S
O448 Mn432 2.297 . S
O448 C435 1.236 . S
N449 Mn433 2.282 . S
N449 C450 1.328 . S
N449 C454 1.318 . S
C450 N449 1.328 . S
C450 C451 1.457 . S
C450 H455 0.929 . S
C451 C450 1.457 . S
C451 C452 1.291 . S
C451 H464 0.931 . S
C452 C451 1.291 . S
C452 C453 1.373 . S
C452 H465 0.929 . S
C453 C452 1.373 . S
C453 C454 1.396 . S
C453 C460 1.403 . S
C454 C444 1.476 . S
C454 N449 1.318 . S
C454 C453 1.396 . S
H455 C450 0.929 . S
O456 Mn432 2.385 . S
O456 C434 1.234 . S
O457 Mn432 2.209 . S
O457 Mn433 2.215 . S
O457 C434 1.283 . S
O458 Mn432 2.094 . S
O458 C436 1.240 . S
O459 Mn433 2.117 . S
O459 C436 1.264 . S
C460 C453 1.403 . S
C460 C461 1.399 . S
C460 H466 0.929 . S
C461 C441 1.449 . S
C461 C460 1.399 . S
C461 H467 0.930 . S
H462 C442 0.931 . S
H463 C443 0.930 . S
H464 C451 0.931 . S
H465 C452 0.929 . S
H466 C460 0.929 . S
H467 C461 0.930 . S
Mn468 O473 2.095 . S
Mn468 O483 2.162 . S
Mn468 O484 2.297 . S
Mn468 O492 2.385 . S
Mn468 O493 2.209 . S
Mn468 O494 2.094 . S
Mn469 O474 2.121 . S
Mn469 N476 2.257 . S
Mn469 N485 2.282 . S
Mn469 O493 2.215 . S
Mn469 O495 2.117 . S
C470 O492 1.234 . S
C470 O493 1.283 . S
C471 O483 1.281 . S
C471 O484 1.236 . S
C472 O494 1.240 . S
C472 O495 1.264 . S
O473 Mn468 2.095 . S
O473 C482 1.250 . S
O474 Mn469 2.121 . S
O474 C482 1.258 . S
C475 N476 1.326 . S
C475 C479 1.460 1_655 S
C475 H481 0.929 . S
N476 Mn469 2.257 . S
N476 C475 1.326 . S
N476 C480 1.362 1_655 S
C477 C478 1.258 . S
C477 C480 1.431 . S
C477 C497 1.449 . S
C478 C477 1.258 . S
C478 C479 1.477 . S
C478 H498 0.931 . S
C479 C475 1.460 1_455 S
C479 C478 1.477 . S
C479 H499 0.930 . S
C480 N476 1.362 1_455 S
C480 C477 1.431 . S
C480 C490 1.476 . S
H481 C475 0.929 . S
C482 O473 1.250 . S
C482 O474 1.258 . S
O483 Mn468 2.162 . S
O483 C471 1.281 . S
O484 Mn468 2.297 . S
O484 C471 1.236 . S
N485 Mn469 2.282 . S
N485 C486 1.328 . S
N485 C490 1.318 1_655 S
C486 N485 1.328 . S
C486 C487 1.457 1_655 S
C486 H491 0.929 . S
C487 C486 1.457 1_455 S
C487 C488 1.291 . S
C487 H500 0.931 . S
C488 C487 1.291 . S
C488 C489 1.373 . S
C488 H501 0.929 . S
C489 C488 1.373 . S
C489 C490 1.396 . S
C489 C496 1.403 . S
C490 C480 1.476 . S
C490 N485 1.318 1_455 S
C490 C489 1.396 . S
H491 C486 0.929 . S
O492 Mn468 2.385 . S
O492 C470 1.234 . S
O493 Mn468 2.209 . S
O493 Mn469 2.215 . S
O493 C470 1.283 . S
O494 Mn468 2.094 . S
O494 C472 1.240 . S
O495 Mn469 2.117 . S
O495 C472 1.264 . S
C496 C489 1.403 . S
C496 C497 1.399 . S
C496 H502 0.929 . S
C497 C477 1.449 . S
C497 C496 1.399 . S
C497 H503 0.930 . S
H498 C478 0.931 . S
H499 C479 0.930 . S
H500 C487 0.931 . S
H501 C488 0.929 . S
H502 C496 0.929 . S
H503 C497 0.930 . S
Mn504 O509 2.095 . S
Mn504 O519 2.162 . S
Mn504 O520 2.297 . S
Mn504 O528 2.385 . S
Mn504 O529 2.209 . S
Mn504 O530 2.094 . S
Mn505 O510 2.121 . S
Mn505 N512 2.257 . S
Mn505 N521 2.282 . S
Mn505 O529 2.215 . S
Mn505 O531 2.117 . S
C506 O528 1.234 . S
C506 O529 1.283 . S
C507 O519 1.281 . S
C507 O520 1.236 . S
C508 O530 1.240 . S
C508 O531 1.264 . S
O509 Mn504 2.095 . S
O509 C518 1.250 . S
O510 Mn505 2.121 . S
O510 C518 1.258 . S
C511 N512 1.326 . S
C511 C515 1.460 . S
C511 H517 0.929 . S
N512 Mn505 2.257 . S
N512 C511 1.326 . S
N512 C516 1.362 . S
C513 C514 1.258 . S
C513 C516 1.431 . S
C513 C533 1.449 . S
C514 C513 1.258 . S
C514 C515 1.477 . S
C514 H534 0.931 . S
C515 C511 1.460 . S
C515 C514 1.477 . S
C515 H535 0.930 . S
C516 N512 1.362 . S
C516 C513 1.431 . S
C516 C526 1.476 . S
H517 C511 0.929 . S
C518 O509 1.250 . S
C518 O510 1.258 . S
O519 Mn504 2.162 . S
O519 C507 1.281 . S
O520 Mn504 2.297 . S
O520 C507 1.236 . S
N521 Mn505 2.282 . S
N521 C522 1.328 . S
N521 C526 1.318 . S
C522 N521 1.328 . S
C522 C523 1.457 . S
C522 H527 0.929 . S
C523 C522 1.457 . S
C523 C524 1.291 . S
C523 H536 0.931 . S
C524 C523 1.291 . S
C524 C525 1.373 . S
C524 H537 0.929 . S
C525 C524 1.373 . S
C525 C526 1.396 . S
C525 C532 1.403 . S
C526 C516 1.476 . S
C526 N521 1.318 . S
C526 C525 1.396 . S
H527 C522 0.929 . S
O528 Mn504 2.385 . S
O528 C506 1.234 . S
O529 Mn504 2.209 . S
O529 Mn505 2.215 . S
O529 C506 1.283 . S
O530 Mn504 2.094 . S
O530 C508 1.240 . S
O531 Mn505 2.117 . S
O531 C508 1.264 . S
C532 C525 1.403 . S
C532 C533 1.399 . S
C532 H538 0.929 . S
C533 C513 1.449 . S
C533 C532 1.399 . S
C533 H539 0.930 . S
H534 C514 0.931 . S
H535 C515 0.930 . S
H536 C523 0.931 . S
H537 C524 0.929 . S
H538 C532 0.929 . S
H539 C533 0.930 . S
Mn540 O545 2.095 . S
Mn540 O555 2.162 . S
Mn540 O556 2.297 . S
Mn540 O564 2.385 . S
Mn540 O565 2.209 . S
Mn540 O566 2.094 . S
Mn541 O546 2.121 . S
Mn541 N548 2.257 . S
Mn541 N557 2.282 . S
Mn541 O565 2.215 . S
Mn541 O567 2.117 . S
C542 O564 1.234 . S
C542 O565 1.283 . S
C543 O555 1.281 . S
C543 O556 1.236 . S
C544 O566 1.240 . S
C544 O567 1.264 . S
O545 Mn540 2.095 . S
O545 C554 1.250 . S
O546 Mn541 2.121 . S
O546 C554 1.258 . S
C547 N548 1.326 . S
C547 C551 1.460 1_655 S
C547 H553 0.929 . S
N548 Mn541 2.257 . S
N548 C547 1.326 . S
N548 C552 1.362 1_655 S
C549 C550 1.258 . S
C549 C552 1.431 . S
C549 C569 1.449 . S
C550 C549 1.258 . S
C550 C551 1.477 . S
C550 H570 0.931 . S
C551 C547 1.460 1_455 S
C551 C550 1.477 . S
C551 H571 0.930 . S
C552 N548 1.362 1_455 S
C552 C549 1.431 . S
C552 C562 1.476 . S
H553 C547 0.929 . S
C554 O545 1.250 . S
C554 O546 1.258 . S
O555 Mn540 2.162 . S
O555 C543 1.281 . S
O556 Mn540 2.297 . S
O556 C543 1.236 . S
N557 Mn541 2.282 . S
N557 C558 1.328 . S
N557 C562 1.318 1_655 S
C558 N557 1.328 . S
C558 C559 1.457 1_655 S
C558 H563 0.929 . S
C559 C558 1.457 1_455 S
C559 C560 1.291 . S
C559 H572 0.931 . S
C560 C559 1.291 . S
C560 C561 1.373 . S
C560 H573 0.929 . S
C561 C560 1.373 . S
C561 C562 1.396 . S
C561 C568 1.403 . S
C562 C552 1.476 . S
C562 N557 1.318 1_455 S
C562 C561 1.396 . S
H563 C558 0.929 . S
O564 Mn540 2.385 . S
O564 C542 1.234 . S
O565 Mn540 2.209 . S
O565 Mn541 2.215 . S
O565 C542 1.283 . S
O566 Mn540 2.094 . S
O566 C544 1.240 . S
O567 Mn541 2.117 . S
O567 C544 1.264 . S
C568 C561 1.403 . S
C568 C569 1.399 . S
C568 H574 0.929 . S
C569 C549 1.449 . S
C569 C568 1.399 . S
C569 H575 0.930 . S
H570 C550 0.931 . S
H571 C551 0.930 . S
H572 C559 0.931 . S
H573 C560 0.929 . S
H574 C568 0.929 . S
H575 C569 0.930 . S
Mn576 O581 2.095 . S
Mn576 O591 2.162 . S
Mn576 O592 2.297 . S
Mn576 O600 2.385 . S
Mn576 O601 2.209 . S
Mn576 O602 2.094 . S
Mn577 O582 2.121 . S
Mn577 N584 2.257 . S
Mn577 N593 2.282 . S
Mn577 O601 2.215 . S
Mn577 O603 2.117 . S
C578 O600 1.234 . S
C578 O601 1.283 . S
C579 O591 1.281 . S
C579 O592 1.236 . S
C580 O602 1.240 . S
C580 O603 1.264 . S
O581 Mn576 2.095 . S
O581 C590 1.250 . S
O582 Mn577 2.121 . S
O582 C590 1.258 . S
C583 N584 1.326 . S
C583 C587 1.460 . S
C583 H589 0.929 . S
N584 Mn577 2.257 . S
N584 C583 1.326 . S
N584 C588 1.362 . S
C585 C586 1.258 . S
C585 C588 1.431 . S
C585 C605 1.449 . S
C586 C585 1.258 . S
C586 C587 1.477 . S
C586 H606 0.931 . S
C587 C583 1.460 . S
C587 C586 1.477 . S
C587 H607 0.930 . S
C588 N584 1.362 . S
C588 C585 1.431 . S
C588 C598 1.476 . S
H589 C583 0.929 . S
C590 O581 1.250 . S
C590 O582 1.258 . S
O591 Mn576 2.162 . S
O591 C579 1.281 . S
O592 Mn576 2.297 . S
O592 C579 1.236 . S
N593 Mn577 2.282 . S
N593 C594 1.328 . S
N593 C598 1.318 . S
C594 N593 1.328 . S
C594 C595 1.457 . S
C594 H599 0.929 . S
C595 C594 1.457 . S
C595 C596 1.291 . S
C595 H608 0.931 . S
C596 C595 1.291 . S
C596 C597 1.373 . S
C596 H609 0.929 . S
C597 C596 1.373 . S
C597 C598 1.396 . S
C597 C604 1.403 . S
C598 C588 1.476 . S
C598 N593 1.318 . S
C598 C597 1.396 . S
H599 C594 0.929 . S
O600 Mn576 2.385 . S
O600 C578 1.234 . S
O601 Mn576 2.209 . S
O601 Mn577 2.215 . S
O601 C578 1.283 . S
O602 Mn576 2.094 . S
O602 C580 1.240 . S
O603 Mn577 2.117 . S
O603 C580 1.264 . S
C604 C597 1.403 . S
C604 C605 1.399 . S
C604 H610 0.929 . S
C605 C585 1.449 . S
C605 C604 1.399 . S
C605 H611 0.930 . S
H606 C586 0.931 . S
H607 C587 0.930 . S
H608 C595 0.931 . S
H609 C596 0.929 . S
H610 C604 0.929 . S
H611 C605 0.930 . S
Mn612 O617 2.095 . S
Mn612 O627 2.162 . S
Mn612 O628 2.297 . S
Mn612 O636 2.385 . S
Mn612 O637 2.209 . S
Mn612 O638 2.094 . S
Mn613 O618 2.121 . S
Mn613 N620 2.257 . S
Mn613 N629 2.282 . S
Mn613 O637 2.215 . S
Mn613 O639 2.117 . S
C614 O636 1.234 . S
C614 O637 1.283 . S
C615 O627 1.281 . S
C615 O628 1.236 . S
C616 O638 1.240 . S
C616 O639 1.264 . S
O617 Mn612 2.095 . S
O617 C626 1.250 . S
O618 Mn613 2.121 . S
O618 C626 1.258 . S
C619 N620 1.326 . S
C619 C623 1.460 . S
C619 H625 0.929 . S
N620 Mn613 2.257 . S
N620 C619 1.326 . S
N620 C624 1.362 . S
C621 C622 1.258 . S
C621 C624 1.431 . S
C621 C641 1.449 . S
C622 C621 1.258 . S
C622 C623 1.477 . S
C622 H642 0.931 . S
C623 C619 1.460 . S
C623 C622 1.477 . S
C623 H643 0.930 . S
C624 N620 1.362 . S
C624 C621 1.431 . S
C624 C634 1.476 . S
H625 C619 0.929 . S
C626 O617 1.250 . S
C626 O618 1.258 . S
O627 Mn612 2.162 . S
O627 C615 1.281 . S
O628 Mn612 2.297 . S
O628 C615 1.236 . S
N629 Mn613 2.282 . S
N629 C630 1.328 . S
N629 C634 1.318 . S
C630 N629 1.328 . S
C630 C631 1.457 . S
C630 H635 0.929 . S
C631 C630 1.457 . S
C631 C632 1.291 . S
C631 H644 0.931 . S
C632 C631 1.291 . S
C632 C633 1.373 . S
C632 H645 0.929 . S
C633 C632 1.373 . S
C633 C634 1.396 . S
C633 C640 1.403 . S
C634 C624 1.476 . S
C634 N629 1.318 . S
C634 C633 1.396 . S
H635 C630 0.929 . S
O636 Mn612 2.385 . S
O636 C614 1.234 . S
O637 Mn612 2.209 . S
O637 Mn613 2.215 . S
O637 C614 1.283 . S
O638 Mn612 2.094 . S
O638 C616 1.240 . S
O639 Mn613 2.117 . S
O639 C616 1.264 . S
C640 C633 1.403 . S
C640 C641 1.399 . S
C640 H646 0.929 . S
C641 C621 1.449 . S
C641 C640 1.399 . S
C641 H647 0.930 . S
H642 C622 0.931 . S
H643 C623 0.930 . S
H644 C631 0.931 . S
H645 C632 0.929 . S
H646 C640 0.929 . S
H647 C641 0.930 . S
Mn648 O653 2.095 . S
Mn648 O663 2.162 . S
Mn648 O664 2.297 . S
Mn648 O672 2.385 . S
Mn648 O673 2.209 . S
Mn648 O674 2.094 . S
Mn649 O654 2.121 . S
Mn649 N656 2.257 . S
Mn649 N665 2.282 . S
Mn649 O673 2.215 . S
Mn649 O675 2.117 . S
C650 O672 1.234 . S
C650 O673 1.283 . S
C651 O663 1.281 . S
C651 O664 1.236 . S
C652 O674 1.240 . S
C652 O675 1.264 . S
O653 Mn648 2.095 . S
O653 C662 1.250 . S
O654 Mn649 2.121 . S
O654 C662 1.258 . S
C655 N656 1.326 . S
C655 C659 1.460 . S
C655 H661 0.929 . S
N656 Mn649 2.257 . S
N656 C655 1.326 . S
N656 C660 1.362 . S
C657 C658 1.258 . S
C657 C660 1.431 . S
C657 C677 1.449 . S
C658 C657 1.258 . S
C658 C659 1.477 . S
C658 H678 0.931 . S
C659 C655 1.460 . S
C659 C658 1.477 . S
C659 H679 0.930 . S
C660 N656 1.362 . S
C660 C657 1.431 . S
C660 C670 1.476 . S
H661 C655 0.929 . S
C662 O653 1.250 . S
C662 O654 1.258 . S
O663 Mn648 2.162 . S
O663 C651 1.281 . S
O664 Mn648 2.297 . S
O664 C651 1.236 . S
N665 Mn649 2.282 . S
N665 C666 1.328 . S
N665 C670 1.318 . S
C666 N665 1.328 . S
C666 C667 1.457 . S
C666 H671 0.929 . S
C667 C666 1.457 . S
C667 C668 1.291 . S
C667 H680 0.931 . S
C668 C667 1.291 . S
C668 C669 1.373 . S
C668 H681 0.929 . S
C669 C668 1.373 . S
C669 C670 1.396 . S
C669 C676 1.403 . S
C670 C660 1.476 . S
C670 N665 1.318 . S
C670 C669 1.396 . S
H671 C666 0.929 . S
O672 Mn648 2.385 . S
O672 C650 1.234 . S
O673 Mn648 2.209 . S
O673 Mn649 2.215 . S
O673 C650 1.283 . S
O674 Mn648 2.094 . S
O674 C652 1.240 . S
O675 Mn649 2.117 . S
O675 C652 1.264 . S
C676 C669 1.403 . S
C676 C677 1.399 . S
C676 H682 0.929 . S
C677 C657 1.449 . S
C677 C676 1.399 . S
C677 H683 0.930 . S
H678 C658 0.931 . S
H679 C659 0.930 . S
H680 C667 0.931 . S
H681 C668 0.929 . S
H682 C676 0.929 . S
H683 C677 0.930 . S
Mn684 O689 2.095 . S
Mn684 O699 2.162 . S
Mn684 O700 2.297 . S
Mn684 O708 2.385 . S
Mn684 O709 2.209 . S
Mn684 O710 2.094 . S
Mn685 O690 2.121 . S
Mn685 N692 2.257 . S
Mn685 N701 2.282 . S
Mn685 O709 2.215 . S
Mn685 O711 2.117 . S
C686 O708 1.234 . S
C686 O709 1.283 . S
C687 O699 1.281 . S
C687 O700 1.236 . S
C688 O710 1.240 . S
C688 O711 1.264 . S
O689 Mn684 2.095 . S
O689 C698 1.250 . S
O690 Mn685 2.121 . S
O690 C698 1.258 . S
C691 N692 1.326 . S
C691 C695 1.460 . S
C691 H697 0.929 . S
N692 Mn685 2.257 . S
N692 C691 1.326 . S
N692 C696 1.362 . S
C693 C694 1.258 . S
C693 C696 1.431 . S
C693 C713 1.449 . S
C694 C693 1.258 . S
C694 C695 1.477 . S
C694 H714 0.931 . S
C695 C691 1.460 . S
C695 C694 1.477 . S
C695 H715 0.930 . S
C696 N692 1.362 . S
C696 C693 1.431 . S
C696 C706 1.476 . S
H697 C691 0.929 . S
C698 O689 1.250 . S
C698 O690 1.258 . S
O699 Mn684 2.162 . S
O699 C687 1.281 . S
O700 Mn684 2.297 . S
O700 C687 1.236 . S
N701 Mn685 2.282 . S
N701 C702 1.328 . S
N701 C706 1.318 . S
C702 N701 1.328 . S
C702 C703 1.457 . S
C702 H707 0.929 . S
C703 C702 1.457 . S
C703 C704 1.291 . S
C703 H716 0.931 . S
C704 C703 1.291 . S
C704 C705 1.373 . S
C704 H717 0.929 . S
C705 C704 1.373 . S
C705 C706 1.396 . S
C705 C712 1.403 . S
C706 C696 1.476 . S
C706 N701 1.318 . S
C706 C705 1.396 . S
H707 C702 0.929 . S
O708 Mn684 2.385 . S
O708 C686 1.234 . S
O709 Mn684 2.209 . S
O709 Mn685 2.215 . S
O709 C686 1.283 . S
O710 Mn684 2.094 . S
O710 C688 1.240 . S
O711 Mn685 2.117 . S
O711 C688 1.264 . S
C712 C705 1.403 . S
C712 C713 1.399 . S
C712 H718 0.929 . S
C713 C693 1.449 . S
C713 C712 1.399 . S
C713 H719 0.930 . S
H714 C694 0.931 . S
H715 C695 0.930 . S
H716 C703 0.931 . S
H717 C704 0.929 . S
H718 C712 0.929 . S
H719 C713 0.930 . S
Mn720 O725 2.095 . S
Mn720 O735 2.162 . S
Mn720 O736 2.297 . S
Mn720 O744 2.385 . S
Mn720 O745 2.209 . S
Mn720 O746 2.094 . S
Mn721 O726 2.121 . S
Mn721 N728 2.257 . S
Mn721 N737 2.282 . S
Mn721 O745 2.215 . S
Mn721 O747 2.117 . S
C722 O744 1.234 . S
C722 O745 1.283 . S
C723 O735 1.281 . S
C723 O736 1.236 . S
C724 O746 1.240 . S
C724 O747 1.264 . S
O725 Mn720 2.095 . S
O725 C734 1.250 . S
O726 Mn721 2.121 . S
O726 C734 1.258 . S
C727 N728 1.326 . S
C727 C731 1.460 . S
C727 H733 0.929 . S
N728 Mn721 2.257 . S
N728 C727 1.326 . S
N728 C732 1.362 . S
C729 C730 1.258 . S
C729 C732 1.431 . S
C729 C749 1.449 . S
C730 C729 1.258 . S
C730 C731 1.477 . S
C730 H750 0.931 . S
C731 C727 1.460 . S
C731 C730 1.477 . S
C731 H751 0.930 . S
C732 N728 1.362 . S
C732 C729 1.431 . S
C732 C742 1.476 . S
H733 C727 0.929 . S
C734 O725 1.250 . S
C734 O726 1.258 . S
O735 Mn720 2.162 . S
O735 C723 1.281 . S
O736 Mn720 2.297 . S
O736 C723 1.236 . S
N737 Mn721 2.282 . S
N737 C738 1.328 . S
N737 C742 1.318 . S
C738 N737 1.328 . S
C738 C739 1.457 . S
C738 H743 0.929 . S
C739 C738 1.457 . S
C739 C740 1.291 . S
C739 H752 0.931 . S
C740 C739 1.291 . S
C740 C741 1.373 . S
C740 H753 0.929 . S
C741 C740 1.373 . S
C741 C742 1.396 . S
C741 C748 1.403 . S
C742 C732 1.476 . S
C742 N737 1.318 . S
C742 C741 1.396 . S
H743 C738 0.929 . S
O744 Mn720 2.385 . S
O744 C722 1.234 . S
O745 Mn720 2.209 . S
O745 Mn721 2.215 . S
O745 C722 1.283 . S
O746 Mn720 2.094 . S
O746 C724 1.240 . S
O747 Mn721 2.117 . S
O747 C724 1.264 . S
C748 C741 1.403 . S
C748 C749 1.399 . S
C748 H754 0.929 . S
C749 C729 1.449 . S
C749 C748 1.399 . S
C749 H755 0.930 . S
H750 C730 0.931 . S
H751 C731 0.930 . S
H752 C739 0.931 . S
H753 C740 0.929 . S
H754 C748 0.929 . S
H755 C749 0.930 . S
Mn756 O761 2.095 . S
Mn756 O771 2.162 . S
Mn756 O772 2.297 . S
Mn756 O780 2.385 . S
Mn756 O781 2.209 . S
Mn756 O782 2.094 . S
Mn757 O762 2.121 . S
Mn757 N764 2.257 . S
Mn757 N773 2.282 . S
Mn757 O781 2.215 . S
Mn757 O783 2.117 . S
C758 O780 1.234 . S
C758 O781 1.283 . S
C759 O771 1.281 . S
C759 O772 1.236 . S
C760 O782 1.240 . S
C760 O783 1.264 . S
O761 Mn756 2.095 . S
O761 C770 1.250 . S
O762 Mn757 2.121 . S
O762 C770 1.258 . S
C763 N764 1.326 . S
C763 C767 1.460 . S
C763 H769 0.929 . S
N764 Mn757 2.257 . S
N764 C763 1.326 . S
N764 C768 1.362 . S
C765 C766 1.258 . S
C765 C768 1.431 . S
C765 C785 1.449 . S
C766 C765 1.258 . S
C766 C767 1.477 . S
C766 H786 0.931 . S
C767 C763 1.460 . S
C767 C766 1.477 . S
C767 H787 0.930 . S
C768 N764 1.362 . S
C768 C765 1.431 . S
C768 C778 1.476 . S
H769 C763 0.929 . S
C770 O761 1.250 . S
C770 O762 1.258 . S
O771 Mn756 2.162 . S
O771 C759 1.281 . S
O772 Mn756 2.297 . S
O772 C759 1.236 . S
N773 Mn757 2.282 . S
N773 C774 1.328 . S
N773 C778 1.318 . S
C774 N773 1.328 . S
C774 C775 1.457 . S
C774 H779 0.929 . S
C775 C774 1.457 . S
C775 C776 1.291 . S
C775 H788 0.931 . S
C776 C775 1.291 . S
C776 C777 1.373 . S
C776 H789 0.929 . S
C777 C776 1.373 . S
C777 C778 1.396 . S
C777 C784 1.403 . S
C778 C768 1.476 . S
C778 N773 1.318 . S
C778 C777 1.396 . S
H779 C774 0.929 . S
O780 Mn756 2.385 . S
O780 C758 1.234 . S
O781 Mn756 2.209 . S
O781 Mn757 2.215 . S
O781 C758 1.283 . S
O782 Mn756 2.094 . S
O782 C760 1.240 . S
O783 Mn757 2.117 . S
O783 C760 1.264 . S
C784 C777 1.403 . S
C784 C785 1.399 . S
C784 H790 0.929 . S
C785 C765 1.449 . S
C785 C784 1.399 . S
C785 H791 0.930 . S
H786 C766 0.931 . S
H787 C767 0.930 . S
H788 C775 0.931 . S
H789 C776 0.929 . S
H790 C784 0.929 . S
H791 C785 0.930 . S
Mn792 O797 2.095 . S
Mn792 O807 2.162 . S
Mn792 O808 2.297 . S
Mn792 O816 2.385 . S
Mn792 O817 2.209 . S
Mn792 O818 2.094 . S
Mn793 O798 2.121 . S
Mn793 N800 2.257 . S
Mn793 N809 2.282 . S
Mn793 O817 2.215 . S
Mn793 O819 2.117 . S
C794 O816 1.234 . S
C794 O817 1.283 . S
C795 O807 1.281 . S
C795 O808 1.236 . S
C796 O818 1.240 . S
C796 O819 1.264 . S
O797 Mn792 2.095 . S
O797 C806 1.250 . S
O798 Mn793 2.121 . S
O798 C806 1.258 . S
C799 N800 1.326 . S
C799 C803 1.460 . S
C799 H805 0.929 . S
N800 Mn793 2.257 . S
N800 C799 1.326 . S
N800 C804 1.362 . S
C801 C802 1.258 . S
C801 C804 1.431 . S
C801 C821 1.449 . S
C802 C801 1.258 . S
C802 C803 1.477 . S
C802 H822 0.931 . S
C803 C799 1.460 . S
C803 C802 1.477 . S
C803 H823 0.930 . S
C804 N800 1.362 . S
C804 C801 1.431 . S
C804 C814 1.476 . S
H805 C799 0.929 . S
C806 O797 1.250 . S
C806 O798 1.258 . S
O807 Mn792 2.162 . S
O807 C795 1.281 . S
O808 Mn792 2.297 . S
O808 C795 1.236 . S
N809 Mn793 2.282 . S
N809 C810 1.328 . S
N809 C814 1.318 . S
C810 N809 1.328 . S
C810 C811 1.457 . S
C810 H815 0.929 . S
C811 C810 1.457 . S
C811 C812 1.291 . S
C811 H824 0.931 . S
C812 C811 1.291 . S
C812 C813 1.373 . S
C812 H825 0.929 . S
C813 C812 1.373 . S
C813 C814 1.396 . S
C813 C820 1.403 . S
C814 C804 1.476 . S
C814 N809 1.318 . S
C814 C813 1.396 . S
H815 C810 0.929 . S
O816 Mn792 2.385 . S
O816 C794 1.234 . S
O817 Mn792 2.209 . S
O817 Mn793 2.215 . S
O817 C794 1.283 . S
O818 Mn792 2.094 . S
O818 C796 1.240 . S
O819 Mn793 2.117 . S
O819 C796 1.264 . S
C820 C813 1.403 . S
C820 C821 1.399 . S
C820 H826 0.929 . S
C821 C801 1.449 . S
C821 C820 1.399 . S
C821 H827 0.930 . S
H822 C802 0.931 . S
H823 C803 0.930 . S
H824 C811 0.931 . S
H825 C812 0.929 . S
H826 C820 0.929 . S
H827 C821 0.930 . S
Mn828 O833 2.095 . S
Mn828 O843 2.162 . S
Mn828 O844 2.297 . S
Mn828 O852 2.385 . S
Mn828 O853 2.209 . S
Mn828 O854 2.094 . S
Mn829 O834 2.121 . S
Mn829 N836 2.257 . S
Mn829 N845 2.282 . S
Mn829 O853 2.215 . S
Mn829 O855 2.117 . S
C830 O852 1.234 . S
C830 O853 1.283 . S
C831 O843 1.281 . S
C831 O844 1.236 . S
C832 O854 1.240 . S
C832 O855 1.264 . S
O833 Mn828 2.095 . S
O833 C842 1.250 . S
O834 Mn829 2.121 . S
O834 C842 1.258 . S
C835 N836 1.326 . S
C835 C839 1.460 . S
C835 H841 0.929 . S
N836 Mn829 2.257 . S
N836 C835 1.326 . S
N836 C840 1.362 . S
C837 C838 1.258 . S
C837 C840 1.431 . S
C837 C857 1.449 . S
C838 C837 1.258 . S
C838 C839 1.477 . S
C838 H858 0.931 . S
C839 C835 1.460 . S
C839 C838 1.477 . S
C839 H859 0.930 . S
C840 N836 1.362 . S
C840 C837 1.431 . S
C840 C850 1.476 . S
H841 C835 0.929 . S
C842 O833 1.250 . S
C842 O834 1.258 . S
O843 Mn828 2.162 . S
O843 C831 1.281 . S
O844 Mn828 2.297 . S
O844 C831 1.236 . S
N845 Mn829 2.282 . S
N845 C846 1.328 . S
N845 C850 1.318 . S
C846 N845 1.328 . S
C846 C847 1.457 . S
C846 H851 0.929 . S
C847 C846 1.457 . S
C847 C848 1.291 . S
C847 H860 0.931 . S
C848 C847 1.291 . S
C848 C849 1.373 . S
C848 H861 0.929 . S
C849 C848 1.373 . S
C849 C850 1.396 . S
C849 C856 1.403 . S
C850 C840 1.476 . S
C850 N845 1.318 . S
C850 C849 1.396 . S
H851 C846 0.929 . S
O852 Mn828 2.385 . S
O852 C830 1.234 . S
O853 Mn828 2.209 . S
O853 Mn829 2.215 . S
O853 C830 1.283 . S
O854 Mn828 2.094 . S
O854 C832 1.240 . S
O855 Mn829 2.117 . S
O855 C832 1.264 . S
C856 C849 1.403 . S
C856 C857 1.399 . S
C856 H862 0.929 . S
C857 C837 1.449 . S
C857 C856 1.399 . S
C857 H863 0.930 . S
H858 C838 0.931 . S
H859 C839 0.930 . S
H860 C847 0.931 . S
H861 C848 0.929 . S
H862 C856 0.929 . S
H863 C857 0.930 . S
Mn864 O869 2.095 . S
Mn864 O879 2.162 . S
Mn864 O880 2.297 . S
Mn864 O888 2.385 . S
Mn864 O889 2.209 . S
Mn864 O890 2.094 . S
Mn865 O870 2.121 . S
Mn865 N872 2.257 . S
Mn865 N881 2.282 . S
Mn865 O889 2.215 . S
Mn865 O891 2.117 . S
C866 O888 1.234 . S
C866 O889 1.283 . S
C867 O879 1.281 . S
C867 O880 1.236 . S
C868 O890 1.240 . S
C868 O891 1.264 . S
O869 Mn864 2.095 . S
O869 C878 1.250 . S
O870 Mn865 2.121 . S
O870 C878 1.258 . S
C871 N872 1.326 . S
C871 C875 1.460 . S
C871 H877 0.929 . S
N872 Mn865 2.257 . S
N872 C871 1.326 . S
N872 C876 1.362 . S
C873 C874 1.258 . S
C873 C876 1.431 . S
C873 C893 1.449 . S
C874 C873 1.258 . S
C874 C875 1.477 . S
C874 H894 0.931 . S
C875 C871 1.460 . S
C875 C874 1.477 . S
C875 H895 0.930 . S
C876 N872 1.362 . S
C876 C873 1.431 . S
C876 C886 1.476 . S
H877 C871 0.929 . S
C878 O869 1.250 . S
C878 O870 1.258 . S
O879 Mn864 2.162 . S
O879 C867 1.281 . S
O880 Mn864 2.297 . S
O880 C867 1.236 . S
N881 Mn865 2.282 . S
N881 C882 1.328 . S
N881 C886 1.318 . S
C882 N881 1.328 . S
C882 C883 1.457 . S
C882 H887 0.929 . S
C883 C882 1.457 . S
C883 C884 1.291 . S
C883 H896 0.931 . S
C884 C883 1.291 . S
C884 C885 1.373 . S
C884 H897 0.929 . S
C885 C884 1.373 . S
C885 C886 1.396 . S
C885 C892 1.403 . S
C886 C876 1.476 . S
C886 N881 1.318 . S
C886 C885 1.396 . S
H887 C882 0.929 . S
O888 Mn864 2.385 . S
O888 C866 1.234 . S
O889 Mn864 2.209 . S
O889 Mn865 2.215 . S
O889 C866 1.283 . S
O890 Mn864 2.094 . S
O890 C868 1.240 . S
O891 Mn865 2.117 . S
O891 C868 1.264 . S
C892 C885 1.403 . S
C892 C893 1.399 . S
C892 H898 0.929 . S
C893 C873 1.449 . S
C893 C892 1.399 . S
C893 H899 0.930 . S
H894 C874 0.931 . S
H895 C875 0.930 . S
H896 C883 0.931 . S
H897 C884 0.929 . S
H898 C892 0.929 . S
H899 C893 0.930 . S
Mn900 O905 2.095 . S
Mn900 O915 2.162 . S
Mn900 O916 2.297 . S
Mn900 O924 2.385 . S
Mn900 O925 2.209 . S
Mn900 O926 2.094 . S
Mn901 O906 2.121 . S
Mn901 N908 2.257 . S
Mn901 N917 2.282 . S
Mn901 O925 2.215 . S
Mn901 O927 2.117 . S
C902 O924 1.234 . S
C902 O925 1.283 . S
C903 O915 1.281 . S
C903 O916 1.236 . S
C904 O926 1.240 . S
C904 O927 1.264 . S
O905 Mn900 2.095 . S
O905 C914 1.250 . S
O906 Mn901 2.121 . S
O906 C914 1.258 . S
C907 N908 1.326 . S
C907 C911 1.460 . S
C907 H913 0.929 . S
N908 Mn901 2.257 . S
N908 C907 1.326 . S
N908 C912 1.362 . S
C909 C910 1.258 . S
C909 C912 1.431 . S
C909 C929 1.449 . S
C910 C909 1.258 . S
C910 C911 1.477 . S
C910 H930 0.931 . S
C911 C907 1.460 . S
C911 C910 1.477 . S
C911 H931 0.930 . S
C912 N908 1.362 . S
C912 C909 1.431 . S
C912 C922 1.476 . S
H913 C907 0.929 . S
C914 O905 1.250 . S
C914 O906 1.258 . S
O915 Mn900 2.162 . S
O915 C903 1.281 . S
O916 Mn900 2.297 . S
O916 C903 1.236 . S
N917 Mn901 2.282 . S
N917 C918 1.328 . S
N917 C922 1.318 . S
C918 N917 1.328 . S
C918 C919 1.457 . S
C918 H923 0.929 . S
C919 C918 1.457 . S
C919 C920 1.291 . S
C919 H932 0.931 . S
C920 C919 1.291 . S
C920 C921 1.373 . S
C920 H933 0.929 . S
C921 C920 1.373 . S
C921 C922 1.396 . S
C921 C928 1.403 . S
C922 C912 1.476 . S
C922 N917 1.318 . S
C922 C921 1.396 . S
H923 C918 0.929 . S
O924 Mn900 2.385 . S
O924 C902 1.234 . S
O925 Mn900 2.209 . S
O925 Mn901 2.215 . S
O925 C902 1.283 . S
O926 Mn900 2.094 . S
O926 C904 1.240 . S
O927 Mn901 2.117 . S
O927 C904 1.264 . S
C928 C921 1.403 . S
C928 C929 1.399 . S
C928 H934 0.929 . S
C929 C909 1.449 . S
C929 C928 1.399 . S
C929 H935 0.930 . S
H930 C910 0.931 . S
H931 C911 0.930 . S
H932 C919 0.931 . S
H933 C920 0.929 . S
H934 C928 0.929 . S
H935 C929 0.930 . S
Mn936 O941 2.095 1_556 S
Mn936 O951 2.162 . S
Mn936 O952 2.297 . S
Mn936 O960 2.385 . S
Mn936 O961 2.209 1_556 S
Mn936 O962 2.094 1_556 S
Mn937 O942 2.121 . S
Mn937 N944 2.257 . S
Mn937 N953 2.282 . S
Mn937 O961 2.215 . S
Mn937 O963 2.117 . S
C938 O960 1.236 . S
C938 O961 1.280 1_556 S
C939 O951 1.281 . S
C939 O952 1.236 . S
C940 O962 1.240 . S
C940 O963 1.264 . S
O941 Mn936 2.095 1_554 S
O941 C950 1.250 . S
O942 Mn937 2.121 . S
O942 C950 1.258 . S
C943 N944 1.326 . S
C943 C947 1.460 . S
C943 H949 0.929 . S
N944 Mn937 2.257 . S
N944 C943 1.326 . S
N944 C948 1.362 . S
C945 C946 1.258 . S
C945 C948 1.431 . S
C945 C965 1.449 . S
C946 C945 1.258 . S
C946 C947 1.477 . S
C946 H966 0.931 . S
C947 C943 1.460 . S
C947 C946 1.477 . S
C947 H967 0.930 . S
C948 N944 1.362 . S
C948 C945 1.431 . S
C948 C958 1.476 . S
H949 C943 0.929 . S
C950 O941 1.250 . S
C950 O942 1.258 . S
O951 Mn936 2.162 . S
O951 C939 1.281 . S
O952 Mn936 2.297 . S
O952 C939 1.236 . S
N953 Mn937 2.282 . S
N953 C954 1.328 . S
N953 C958 1.318 . S
C954 N953 1.328 . S
C954 C955 1.457 . S
C954 H959 0.929 . S
C955 C954 1.457 . S
C955 C956 1.291 . S
C955 H968 0.931 . S
C956 C955 1.291 . S
C956 C957 1.373 . S
C956 H969 0.929 . S
C957 C956 1.373 . S
C957 C958 1.396 . S
C957 C964 1.403 . S
C958 C948 1.476 . S
C958 N953 1.318 . S
C958 C957 1.396 . S
H959 C954 0.929 . S
O960 Mn936 2.385 . S
O960 C938 1.236 . S
O961 Mn936 2.209 1_554 S
O961 Mn937 2.215 . S
O961 C938 1.280 1_554 S
O962 Mn936 2.094 1_554 S
O962 C940 1.240 . S
O963 Mn937 2.117 . S
O963 C940 1.264 . S
C964 C957 1.403 . S
C964 C965 1.399 . S
C964 H970 0.929 . S
C965 C945 1.449 . S
C965 C964 1.399 . S
C965 H971 0.930 . S
H966 C946 0.931 . S
H967 C947 0.930 . S
H968 C955 0.931 . S
H969 C956 0.929 . S
H970 C964 0.929 . S
H971 C965 0.930 . S
Mn972 O977 2.095 1_556 S
Mn972 O987 2.162 . S
Mn972 O988 2.297 . S
Mn972 O996 2.385 . S
Mn972 O997 2.209 1_556 S
Mn972 O998 2.094 1_556 S
Mn973 O978 2.121 . S
Mn973 N980 2.257 . S
Mn973 N989 2.282 . S
Mn973 O997 2.215 . S
Mn973 O999 2.117 . S
C974 O996 1.236 . S
C974 O997 1.280 1_556 S
C975 O987 1.281 . S
C975 O988 1.236 . S
C976 O998 1.240 . S
C976 O999 1.264 . S
O977 Mn972 2.095 1_554 S
O977 C986 1.250 . S
O978 Mn973 2.121 . S
O978 C986 1.258 . S
C979 N980 1.326 . S
C979 C983 1.460 . S
C979 H985 0.929 . S
N980 Mn973 2.257 . S
N980 C979 1.326 . S
N980 C984 1.362 . S
C981 C982 1.258 . S
C981 C984 1.431 . S
C981 C1001 1.449 . S
C982 C981 1.258 . S
C982 C983 1.477 . S
C982 H1002 0.931 . S
C983 C979 1.460 . S
C983 C982 1.477 . S
C983 H1003 0.930 . S
C984 N980 1.362 . S
C984 C981 1.431 . S
C984 C994 1.476 . S
H985 C979 0.929 . S
C986 O977 1.250 . S
C986 O978 1.258 . S
O987 Mn972 2.162 . S
O987 C975 1.281 . S
O988 Mn972 2.297 . S
O988 C975 1.236 . S
N989 Mn973 2.282 . S
N989 C990 1.328 . S
N989 C994 1.318 . S
C990 N989 1.328 . S
C990 C991 1.457 . S
C990 H995 0.929 . S
C991 C990 1.457 . S
C991 C992 1.291 . S
C991 H1004 0.931 . S
C992 C991 1.291 . S
C992 C993 1.373 . S
C992 H1005 0.929 . S
C993 C992 1.373 . S
C993 C994 1.396 . S
C993 C1000 1.403 . S
C994 C984 1.476 . S
C994 N989 1.318 . S
C994 C993 1.396 . S
H995 C990 0.929 . S
O996 Mn972 2.385 . S
O996 C974 1.236 . S
O997 Mn972 2.209 1_554 S
O997 Mn973 2.215 . S
O997 C974 1.280 1_554 S
O998 Mn972 2.094 1_554 S
O998 C976 1.240 . S
O999 Mn973 2.117 . S
O999 C976 1.264 . S
C1000 C993 1.403 . S
C1000 C1001 1.399 . S
C1000 H1006 0.929 . S
C1001 C981 1.449 . S
C1001 C1000 1.399 . S
C1001 H1007 0.930 . S
H1002 C982 0.931 . S
H1003 C983 0.930 . S
H1004 C991 0.931 . S
H1005 C992 0.929 . S
H1006 C1000 0.929 . S
H1007 C1001 0.930 . S
Mn1008 O1013 2.095 . S
Mn1008 O1023 2.162 . S
Mn1008 O1024 2.297 . S
Mn1008 O1032 2.385 . S
Mn1008 O1033 2.209 . S
Mn1008 O1034 2.094 . S
Mn1009 O1014 2.121 . S
Mn1009 N1016 2.257 . S
Mn1009 N1025 2.282 . S
Mn1009 O1033 2.215 . S
Mn1009 O1035 2.117 . S
C1010 O1032 1.234 . S
C1010 O1033 1.283 . S
C1011 O1023 1.281 . S
C1011 O1024 1.236 . S
C1012 O1034 1.240 . S
C1012 O1035 1.264 . S
O1013 Mn1008 2.095 . S
O1013 C1022 1.250 . S
O1014 Mn1009 2.121 . S
O1014 C1022 1.258 . S
C1015 N1016 1.326 . S
C1015 C1019 1.460 . S
C1015 H1021 0.929 . S
N1016 Mn1009 2.257 . S
N1016 C1015 1.326 . S
N1016 C1020 1.362 . S
C1017 C1018 1.258 . S
C1017 C1020 1.431 . S
C1017 C1037 1.449 . S
C1018 C1017 1.258 . S
C1018 C1019 1.477 . S
C1018 H1038 0.931 . S
C1019 C1015 1.460 . S
C1019 C1018 1.477 . S
C1019 H1039 0.930 . S
C1020 N1016 1.362 . S
C1020 C1017 1.431 . S
C1020 C1030 1.476 . S
H1021 C1015 0.929 . S
C1022 O1013 1.250 . S
C1022 O1014 1.258 . S
O1023 Mn1008 2.162 . S
O1023 C1011 1.281 . S
O1024 Mn1008 2.297 . S
O1024 C1011 1.236 . S
N1025 Mn1009 2.282 . S
N1025 C1026 1.328 . S
N1025 C1030 1.318 . S
C1026 N1025 1.328 . S
C1026 C1027 1.457 . S
C1026 H1031 0.929 . S
C1027 C1026 1.457 . S
C1027 C1028 1.291 . S
C1027 H1040 0.931 . S
C1028 C1027 1.291 . S
C1028 C1029 1.373 . S
C1028 H1041 0.929 . S
C1029 C1028 1.373 . S
C1029 C1030 1.396 . S
C1029 C1036 1.403 . S
C1030 C1020 1.476 . S
C1030 N1025 1.318 . S
C1030 C1029 1.396 . S
H1031 C1026 0.929 . S
O1032 Mn1008 2.385 . S
O1032 C1010 1.234 . S
O1033 Mn1008 2.209 . S
O1033 Mn1009 2.215 . S
O1033 C1010 1.283 . S
O1034 Mn1008 2.094 . S
O1034 C1012 1.240 . S
O1035 Mn1009 2.117 . S
O1035 C1012 1.264 . S
C1036 C1029 1.403 . S
C1036 C1037 1.399 . S
C1036 H1042 0.929 . S
C1037 C1017 1.449 . S
C1037 C1036 1.399 . S
C1037 H1043 0.930 . S
H1038 C1018 0.931 . S
H1039 C1019 0.930 . S
H1040 C1027 0.931 . S
H1041 C1028 0.929 . S
H1042 C1036 0.929 . S
H1043 C1037 0.930 . S
Mn1044 O1049 2.095 . S
Mn1044 O1059 2.162 . S
Mn1044 O1060 2.297 . S
Mn1044 O1068 2.385 . S
Mn1044 O1069 2.209 . S
Mn1044 O1070 2.094 . S
Mn1045 O1050 2.121 . S
Mn1045 N1052 2.257 . S
Mn1045 N1061 2.282 . S
Mn1045 O1069 2.215 . S
Mn1045 O1071 2.117 . S
C1046 O1068 1.234 . S
C1046 O1069 1.283 . S
C1047 O1059 1.281 . S
C1047 O1060 1.236 . S
C1048 O1070 1.240 . S
C1048 O1071 1.264 . S
O1049 Mn1044 2.095 . S
O1049 C1058 1.250 . S
O1050 Mn1045 2.121 . S
O1050 C1058 1.258 . S
C1051 N1052 1.326 . S
C1051 C1055 1.460 . S
C1051 H1057 0.929 . S
N1052 Mn1045 2.257 . S
N1052 C1051 1.326 . S
N1052 C1056 1.362 . S
C1053 C1054 1.258 . S
C1053 C1056 1.431 . S
C1053 C1073 1.449 . S
C1054 C1053 1.258 . S
C1054 C1055 1.477 . S
C1054 H1074 0.931 . S
C1055 C1051 1.460 . S
C1055 C1054 1.477 . S
C1055 H1075 0.930 . S
C1056 N1052 1.362 . S
C1056 C1053 1.431 . S
C1056 C1066 1.476 . S
H1057 C1051 0.929 . S
C1058 O1049 1.250 . S
C1058 O1050 1.258 . S
O1059 Mn1044 2.162 . S
O1059 C1047 1.281 . S
O1060 Mn1044 2.297 . S
O1060 C1047 1.236 . S
N1061 Mn1045 2.282 . S
N1061 C1062 1.328 . S
N1061 C1066 1.318 . S
C1062 N1061 1.328 . S
C1062 C1063 1.457 . S
C1062 H1067 0.929 . S
C1063 C1062 1.457 . S
C1063 C1064 1.291 . S
C1063 H1076 0.931 . S
C1064 C1063 1.291 . S
C1064 C1065 1.373 . S
C1064 H1077 0.929 . S
C1065 C1064 1.373 . S
C1065 C1066 1.396 . S
C1065 C1072 1.403 . S
C1066 C1056 1.476 . S
C1066 N1061 1.318 . S
C1066 C1065 1.396 . S
H1067 C1062 0.929 . S
O1068 Mn1044 2.385 . S
O1068 C1046 1.234 . S
O1069 Mn1044 2.209 . S
O1069 Mn1045 2.215 . S
O1069 C1046 1.283 . S
O1070 Mn1044 2.094 . S
O1070 C1048 1.240 . S
O1071 Mn1045 2.117 . S
O1071 C1048 1.264 . S
C1072 C1065 1.403 . S
C1072 C1073 1.399 . S
C1072 H1078 0.929 . S
C1073 C1053 1.449 . S
C1073 C1072 1.399 . S
C1073 H1079 0.930 . S
H1074 C1054 0.931 . S
H1075 C1055 0.930 . S
H1076 C1063 0.931 . S
H1077 C1064 0.929 . S
H1078 C1072 0.929 . S
H1079 C1073 0.930 . S
Mn1080 O1085 2.095 1_554 S
Mn1080 O1095 2.162 . S
Mn1080 O1096 2.297 . S
Mn1080 O1104 2.385 . S
Mn1080 O1105 2.209 1_554 S
Mn1080 O1106 2.094 1_554 S
Mn1081 O1086 2.121 . S
Mn1081 N1088 2.257 . S
Mn1081 N1097 2.282 . S
Mn1081 O1105 2.215 . S
Mn1081 O1107 2.117 . S
C1082 O1104 1.236 . S
C1082 O1105 1.280 1_554 S
C1083 O1095 1.281 . S
C1083 O1096 1.236 . S
C1084 O1106 1.240 . S
C1084 O1107 1.264 . S
O1085 Mn1080 2.095 1_556 S
O1085 C1094 1.250 . S
O1086 Mn1081 2.121 . S
O1086 C1094 1.258 . S
C1087 N1088 1.326 . S
C1087 C1091 1.460 . S
C1087 H1093 0.929 . S
N1088 Mn1081 2.257 . S
N1088 C1087 1.326 . S
N1088 C1092 1.362 . S
C1089 C1090 1.258 . S
C1089 C1092 1.431 . S
C1089 C1109 1.449 . S
C1090 C1089 1.258 . S
C1090 C1091 1.477 . S
C1090 H1110 0.931 . S
C1091 C1087 1.460 . S
C1091 C1090 1.477 . S
C1091 H1111 0.930 . S
C1092 N1088 1.362 . S
C1092 C1089 1.431 . S
C1092 C1102 1.476 . S
H1093 C1087 0.929 . S
C1094 O1085 1.250 . S
C1094 O1086 1.258 . S
O1095 Mn1080 2.162 . S
O1095 C1083 1.281 . S
O1096 Mn1080 2.297 . S
O1096 C1083 1.236 . S
N1097 Mn1081 2.282 . S
N1097 C1098 1.328 . S
N1097 C1102 1.318 . S
C1098 N1097 1.328 . S
C1098 C1099 1.457 . S
C1098 H1103 0.929 . S
C1099 C1098 1.457 . S
C1099 C1100 1.291 . S
C1099 H1112 0.931 . S
C1100 C1099 1.291 . S
C1100 C1101 1.373 . S
C1100 H1113 0.929 . S
C1101 C1100 1.373 . S
C1101 C1102 1.396 . S
C1101 C1108 1.403 . S
C1102 C1092 1.476 . S
C1102 N1097 1.318 . S
C1102 C1101 1.396 . S
H1103 C1098 0.929 . S
O1104 Mn1080 2.385 . S
O1104 C1082 1.236 . S
O1105 Mn1080 2.209 1_556 S
O1105 Mn1081 2.215 . S
O1105 C1082 1.280 1_556 S
O1106 Mn1080 2.094 1_556 S
O1106 C1084 1.240 . S
O1107 Mn1081 2.117 . S
O1107 C1084 1.264 . S
C1108 C1101 1.403 . S
C1108 C1109 1.399 . S
C1108 H1114 0.929 . S
C1109 C1089 1.449 . S
C1109 C1108 1.399 . S
C1109 H1115 0.930 . S
H1110 C1090 0.931 . S
H1111 C1091 0.930 . S
H1112 C1099 0.931 . S
H1113 C1100 0.929 . S
H1114 C1108 0.929 . S
H1115 C1109 0.930 . S
Mn1116 O1121 2.095 1_554 S
Mn1116 O1131 2.162 . S
Mn1116 O1132 2.297 . S
Mn1116 O1140 2.385 . S
Mn1116 O1141 2.209 1_554 S
Mn1116 O1142 2.094 1_554 S
Mn1117 O1122 2.121 . S
Mn1117 N1124 2.257 . S
Mn1117 N1133 2.282 . S
Mn1117 O1141 2.215 . S
Mn1117 O1143 2.117 . S
C1118 O1140 1.236 . S
C1118 O1141 1.280 1_554 S
C1119 O1131 1.281 . S
C1119 O1132 1.236 . S
C1120 O1142 1.240 . S
C1120 O1143 1.264 . S
O1121 Mn1116 2.095 1_556 S
O1121 C1130 1.250 . S
O1122 Mn1117 2.121 . S
O1122 C1130 1.258 . S
C1123 N1124 1.326 . S
C1123 C1127 1.460 . S
C1123 H1129 0.929 . S
N1124 Mn1117 2.257 . S
N1124 C1123 1.326 . S
N1124 C1128 1.362 . S
C1125 C1126 1.258 . S
C1125 C1128 1.431 . S
C1125 C1145 1.449 . S
C1126 C1125 1.258 . S
C1126 C1127 1.477 . S
C1126 H1146 0.931 . S
C1127 C1123 1.460 . S
C1127 C1126 1.477 . S
C1127 H1147 0.930 . S
C1128 N1124 1.362 . S
C1128 C1125 1.431 . S
C1128 C1138 1.476 . S
H1129 C1123 0.929 . S
C1130 O1121 1.250 . S
C1130 O1122 1.258 . S
O1131 Mn1116 2.162 . S
O1131 C1119 1.281 . S
O1132 Mn1116 2.297 . S
O1132 C1119 1.236 . S
N1133 Mn1117 2.282 . S
N1133 C1134 1.328 . S
N1133 C1138 1.318 . S
C1134 N1133 1.328 . S
C1134 C1135 1.457 . S
C1134 H1139 0.929 . S
C1135 C1134 1.457 . S
C1135 C1136 1.291 . S
C1135 H1148 0.931 . S
C1136 C1135 1.291 . S
C1136 C1137 1.373 . S
C1136 H1149 0.929 . S
C1137 C1136 1.373 . S
C1137 C1138 1.396 . S
C1137 C1144 1.403 . S
C1138 C1128 1.476 . S
C1138 N1133 1.318 . S
C1138 C1137 1.396 . S
H1139 C1134 0.929 . S
O1140 Mn1116 2.385 . S
O1140 C1118 1.236 . S
O1141 Mn1116 2.209 1_556 S
O1141 Mn1117 2.215 . S
O1141 C1118 1.280 1_556 S
O1142 Mn1116 2.094 1_556 S
O1142 C1120 1.240 . S
O1143 Mn1117 2.117 . S
O1143 C1120 1.264 . S
C1144 C1137 1.403 . S
C1144 C1145 1.399 . S
C1144 H1150 0.929 . S
C1145 C1125 1.449 . S
C1145 C1144 1.399 . S
C1145 H1151 0.930 . S
H1146 C1126 0.931 . S
H1147 C1127 0.930 . S
H1148 C1135 0.931 . S
H1149 C1136 0.929 . S
H1150 C1144 0.929 . S
H1151 C1145 0.930 . S
H1152 C1160 0.950 . S
H1153 C1165 0.950 . S
H1154 C1162 0.950 . S
H1155 C1164 0.950 . S
H1156 C1166 0.950 . S
H1157 C1168 0.950 . S
H1158 C1170 0.950 . S
H1159 C1171 0.950 . S
C1160 H1152 0.950 . S
C1160 C1161 1.386 . S
C1160 C1162 1.391 . S
C1161 C1160 1.386 . S
C1161 C1165 1.393 . S
C1162 H1154 0.950 . S
C1162 C1160 1.391 . S
C1162 C1163 1.400 . S
C1163 C1162 1.400 . S
C1163 C1164 1.398 . S
C1163 C1169 1.491 . S
C1164 H1155 0.950 . S
C1164 C1163 1.398 . S
C1164 C1165 1.391 . S
C1165 H1153 0.950 . S
C1165 C1161 1.393 . S
C1165 C1164 1.391 . S
C1166 H1156 0.950 . S
C1166 C1167 1.386 . S
C1166 C1168 1.391 . S
C1167 C1166 1.386 . S
C1167 C1171 1.393 . S
C1168 H1157 0.950 . S
C1168 C1166 1.391 . S
C1168 C1169 1.400 . S
C1169 C1163 1.491 . S
C1169 C1168 1.400 . S
C1169 C1170 1.398 . S
C1170 H1158 0.950 . S
C1170 C1169 1.398 . S
C1170 C1171 1.391 . S
C1171 H1159 0.950 . S
C1171 C1167 1.393 . S
C1171 C1170 1.391 . S
H1172 C1180 0.950 . S
H1173 C1185 0.950 . S
H1174 C1182 0.950 . S
H1175 C1184 0.950 . S
H1176 C1186 0.950 . S
H1177 C1188 0.950 . S
H1178 C1190 0.950 . S
H1179 C1191 0.950 . S
C1180 H1172 0.950 . S
C1180 C1181 1.386 . S
C1180 C1182 1.391 . S
C1181 C1180 1.386 . S
C1181 C1185 1.393 . S
C1182 H1174 0.950 . S
C1182 C1180 1.391 . S
C1182 C1183 1.400 . S
C1183 C1182 1.400 . S
C1183 C1184 1.398 . S
C1183 C1189 1.491 . S
C1184 H1175 0.950 . S
C1184 C1183 1.398 . S
C1184 C1185 1.391 . S
C1185 H1173 0.950 . S
C1185 C1181 1.393 . S
C1185 C1184 1.391 . S
C1186 H1176 0.950 . S
C1186 C1187 1.386 . S
C1186 C1188 1.391 . S
C1187 C1186 1.386 . S
C1187 C1191 1.393 . S
C1188 H1177 0.950 . S
C1188 C1186 1.391 . S
C1188 C1189 1.400 . S
C1189 C1183 1.491 . S
C1189 C1188 1.400 . S
C1189 C1190 1.398 . S
C1190 H1178 0.950 . S
C1190 C1189 1.398 . S
C1190 C1191 1.391 . S
C1191 H1179 0.950 . S
C1191 C1187 1.393 . S
C1191 C1190 1.391 . S
H1192 C1200 0.950 . S
H1193 C1205 0.950 . S
H1194 C1202 0.950 . S
H1195 C1204 0.950 . S
H1196 C1206 0.950 . S
H1197 C1208 0.950 . S
H1198 C1210 0.950 . S
H1199 C1211 0.950 . S
C1200 H1192 0.950 . S
C1200 C1201 1.386 . S
C1200 C1202 1.391 . S
C1201 C1200 1.386 . S
C1201 C1205 1.393 . S
C1202 H1194 0.950 . S
C1202 C1200 1.391 . S
C1202 C1203 1.400 . S
C1203 C1202 1.400 . S
C1203 C1204 1.398 . S
C1203 C1209 1.491 . S
C1204 H1195 0.950 . S
C1204 C1203 1.398 . S
C1204 C1205 1.391 . S
C1205 H1193 0.950 . S
C1205 C1201 1.393 . S
C1205 C1204 1.391 . S
C1206 H1196 0.950 . S
C1206 C1207 1.386 . S
C1206 C1208 1.391 . S
C1207 C1206 1.386 . S
C1207 C1211 1.393 . S
C1208 H1197 0.950 . S
C1208 C1206 1.391 . S
C1208 C1209 1.400 . S
C1209 C1203 1.491 . S
C1209 C1208 1.400 . S
C1209 C1210 1.398 . S
C1210 H1198 0.950 . S
C1210 C1209 1.398 . S
C1210 C1211 1.391 . S
C1211 H1199 0.950 . S
C1211 C1207 1.393 . S
C1211 C1210 1.391 . S
H1212 C1220 0.950 . S
H1213 C1225 0.950 . S
H1214 C1222 0.950 . S
H1215 C1224 0.950 . S
H1216 C1226 0.950 . S
H1217 C1228 0.950 . S
H1218 C1230 0.950 . S
H1219 C1231 0.950 . S
C1220 H1212 0.950 . S
C1220 C1221 1.386 . S
C1220 C1222 1.391 . S
C1221 C1220 1.386 . S
C1221 C1225 1.393 . S
C1222 H1214 0.950 . S
C1222 C1220 1.391 . S
C1222 C1223 1.400 . S
C1223 C1222 1.400 . S
C1223 C1224 1.398 . S
C1223 C1229 1.491 . S
C1224 H1215 0.950 . S
C1224 C1223 1.398 . S
C1224 C1225 1.391 . S
C1225 H1213 0.950 . S
C1225 C1221 1.393 . S
C1225 C1224 1.391 . S
C1226 H1216 0.950 . S
C1226 C1227 1.386 . S
C1226 C1228 1.391 . S
C1227 C1226 1.386 . S
C1227 C1231 1.393 . S
C1228 H1217 0.950 . S
C1228 C1226 1.391 . S
C1228 C1229 1.400 . S
C1229 C1223 1.491 . S
C1229 C1228 1.400 . S
C1229 C1230 1.398 . S
C1230 H1218 0.950 . S
C1230 C1229 1.398 . S
C1230 C1231 1.391 . S
C1231 H1219 0.950 . S
C1231 C1227 1.393 . S
C1231 C1230 1.391 . S
H1232 C1240 0.950 . S
H1233 C1245 0.950 . S
H1234 C1242 0.950 . S
H1235 C1244 0.950 . S
H1236 C1246 0.950 . S
H1237 C1248 0.950 . S
H1238 C1250 0.950 . S
H1239 C1251 0.950 . S
C1240 H1232 0.950 . S
C1240 C1241 1.386 . S
C1240 C1242 1.391 . S
C1241 C1240 1.386 . S
C1241 C1245 1.393 . S
C1242 H1234 0.950 . S
C1242 C1240 1.391 . S
C1242 C1243 1.400 . S
C1243 C1242 1.400 . S
C1243 C1244 1.398 . S
C1243 C1249 1.491 . S
C1244 H1235 0.950 . S
C1244 C1243 1.398 . S
C1244 C1245 1.391 . S
C1245 H1233 0.950 . S
C1245 C1241 1.393 . S
C1245 C1244 1.391 . S
C1246 H1236 0.950 . S
C1246 C1247 1.386 . S
C1246 C1248 1.391 . S
C1247 C1246 1.386 . S
C1247 C1251 1.393 . S
C1248 H1237 0.950 . S
C1248 C1246 1.391 . S
C1248 C1249 1.400 . S
C1249 C1243 1.491 . S
C1249 C1248 1.400 . S
C1249 C1250 1.398 . S
C1250 H1238 0.950 . S
C1250 C1249 1.398 . S
C1250 C1251 1.391 . S
C1251 H1239 0.950 . S
C1251 C1247 1.393 . S
C1251 C1250 1.391 . S
H1252 C1260 0.950 . S
H1253 C1265 0.950 . S
H1254 C1262 0.950 . S
H1255 C1264 0.950 . S
H1256 C1266 0.950 . S
H1257 C1268 0.950 . S
H1258 C1270 0.950 . S
H1259 C1271 0.950 . S
C1260 H1252 0.950 . S
C1260 C1261 1.386 . S
C1260 C1262 1.391 . S
C1261 C1260 1.386 . S
C1261 C1265 1.393 . S
C1262 H1254 0.950 . S
C1262 C1260 1.391 . S
C1262 C1263 1.400 . S
C1263 C1262 1.400 . S
C1263 C1264 1.398 . S
C1263 C1269 1.491 . S
C1264 H1255 0.950 . S
C1264 C1263 1.398 . S
C1264 C1265 1.391 . S
C1265 H1253 0.950 . S
C1265 C1261 1.393 . S
C1265 C1264 1.391 . S
C1266 H1256 0.950 . S
C1266 C1267 1.386 . S
C1266 C1268 1.391 . S
C1267 C1266 1.386 . S
C1267 C1271 1.393 . S
C1268 H1257 0.950 . S
C1268 C1266 1.391 . S
C1268 C1269 1.400 . S
C1269 C1263 1.491 . S
C1269 C1268 1.400 . S
C1269 C1270 1.398 . S
C1270 H1258 0.950 . S
C1270 C1269 1.398 . S
C1270 C1271 1.391 . S
C1271 H1259 0.950 . S
C1271 C1267 1.393 . S
C1271 C1270 1.391 . S
H1272 C1280 0.950 . S
H1273 C1285 0.950 . S
H1274 C1282 0.950 . S
H1275 C1284 0.950 . S
H1276 C1286 0.950 . S
H1277 C1288 0.950 . S
H1278 C1290 0.950 . S
H1279 C1291 0.950 . S
C1280 H1272 0.950 . S
C1280 C1281 1.386 . S
C1280 C1282 1.391 . S
C1281 C1280 1.386 . S
C1281 C1285 1.393 . S
C1282 H1274 0.950 . S
C1282 C1280 1.391 . S
C1282 C1283 1.400 . S
C1283 C1282 1.400 . S
C1283 C1284 1.398 . S
C1283 C1289 1.491 . S
C1284 H1275 0.950 . S
C1284 C1283 1.398 . S
C1284 C1285 1.391 . S
C1285 H1273 0.950 . S
C1285 C1281 1.393 . S
C1285 C1284 1.391 . S
C1286 H1276 0.950 . S
C1286 C1287 1.386 . S
C1286 C1288 1.391 . S
C1287 C1286 1.386 . S
C1287 C1291 1.393 . S
C1288 H1277 0.950 . S
C1288 C1286 1.391 . S
C1288 C1289 1.400 . S
C1289 C1283 1.491 . S
C1289 C1288 1.400 . S
C1289 C1290 1.398 . S
C1290 H1278 0.950 . S
C1290 C1289 1.398 . S
C1290 C1291 1.391 . S
C1291 H1279 0.950 . S
C1291 C1287 1.393 . S
C1291 C1290 1.391 . S
H1292 C1300 0.950 . S
H1293 C1305 0.950 . S
H1294 C1302 0.950 . S
H1295 C1304 0.950 . S
H1296 C1306 0.950 . S
H1297 C1308 0.950 . S
H1298 C1310 0.950 . S
H1299 C1311 0.950 . S
C1300 H1292 0.950 . S
C1300 C1301 1.386 . S
C1300 C1302 1.391 . S
C1301 C1300 1.386 . S
C1301 C1305 1.393 . S
C1302 H1294 0.950 . S
C1302 C1300 1.391 . S
C1302 C1303 1.400 . S
C1303 C1302 1.400 . S
C1303 C1304 1.398 . S
C1303 C1309 1.491 . S
C1304 H1295 0.950 . S
C1304 C1303 1.398 . S
C1304 C1305 1.391 . S
C1305 H1293 0.950 . S
C1305 C1301 1.393 . S
C1305 C1304 1.391 . S
C1306 H1296 0.950 . S
C1306 C1307 1.386 . S
C1306 C1308 1.391 . S
C1307 C1306 1.386 . S
C1307 C1311 1.393 . S
C1308 H1297 0.950 . S
C1308 C1306 1.391 . S
C1308 C1309 1.400 . S
C1309 C1303 1.491 . S
C1309 C1308 1.400 . S
C1309 C1310 1.398 . S
C1310 H1298 0.950 . S
C1310 C1309 1.398 . S
C1310 C1311 1.391 . S
C1311 H1299 0.950 . S
C1311 C1307 1.393 . S
C1311 C1310 1.391 . S
H1312 C1320 0.950 . S
H1313 C1325 0.950 . S
H1314 C1322 0.950 . S
H1315 C1324 0.950 . S
H1316 C1326 0.950 . S
H1317 C1328 0.950 . S
H1318 C1330 0.950 . S
H1319 C1331 0.950 . S
C1320 H1312 0.950 . S
C1320 C1321 1.386 . S
C1320 C1322 1.391 . S
C1321 C1320 1.386 . S
C1321 C1325 1.393 . S
C1322 H1314 0.950 . S
C1322 C1320 1.391 . S
C1322 C1323 1.400 . S
C1323 C1322 1.400 . S
C1323 C1324 1.398 . S
C1323 C1329 1.491 . S
C1324 H1315 0.950 . S
C1324 C1323 1.398 . S
C1324 C1325 1.391 . S
C1325 H1313 0.950 . S
C1325 C1321 1.393 . S
C1325 C1324 1.391 . S
C1326 H1316 0.950 . S
C1326 C1327 1.386 . S
C1326 C1328 1.391 . S
C1327 C1326 1.386 . S
C1327 C1331 1.393 . S
C1328 H1317 0.950 . S
C1328 C1326 1.391 . S
C1328 C1329 1.400 . S
C1329 C1323 1.491 . S
C1329 C1328 1.400 . S
C1329 C1330 1.398 . S
C1330 H1318 0.950 . S
C1330 C1329 1.398 . S
C1330 C1331 1.391 . S
C1331 H1319 0.950 . S
C1331 C1327 1.393 . S
C1331 C1330 1.391 . S
H1332 C1340 0.950 . S
H1333 C1345 0.950 . S
H1334 C1342 0.950 . S
H1335 C1344 0.950 . S
H1336 C1346 0.950 . S
H1337 C1348 0.950 . S
H1338 C1350 0.950 . S
H1339 C1351 0.950 . S
C1340 H1332 0.950 . S
C1340 C1341 1.386 . S
C1340 C1342 1.391 . S
C1341 C1340 1.386 . S
C1341 C1345 1.393 . S
C1342 H1334 0.950 . S
C1342 C1340 1.391 . S
C1342 C1343 1.400 . S
C1343 C1342 1.400 . S
C1343 C1344 1.398 . S
C1343 C1349 1.491 . S
C1344 H1335 0.950 . S
C1344 C1343 1.398 . S
C1344 C1345 1.391 . S
C1345 H1333 0.950 . S
C1345 C1341 1.393 . S
C1345 C1344 1.391 . S
C1346 H1336 0.950 . S
C1346 C1347 1.386 . S
C1346 C1348 1.391 . S
C1347 C1346 1.386 . S
C1347 C1351 1.393 . S
C1348 H1337 0.950 . S
C1348 C1346 1.391 . S
C1348 C1349 1.400 . S
C1349 C1343 1.491 . S
C1349 C1348 1.400 . S
C1349 C1350 1.398 . S
C1350 H1338 0.950 . S
C1350 C1349 1.398 . S
C1350 C1351 1.391 . S
C1351 H1339 0.950 . S
C1351 C1347 1.393 . S
C1351 C1350 1.391 . S
H1352 C1360 0.950 . S
H1353 C1365 0.950 . S
H1354 C1362 0.950 . S
H1355 C1364 0.950 . S
H1356 C1366 0.950 . S
H1357 C1368 0.950 . S
H1358 C1370 0.950 . S
H1359 C1371 0.950 . S
C1360 H1352 0.950 . S
C1360 C1361 1.386 . S
C1360 C1362 1.391 . S
C1361 C1360 1.386 . S
C1361 C1365 1.393 . S
C1362 H1354 0.950 . S
C1362 C1360 1.391 . S
C1362 C1363 1.400 . S
C1363 C1362 1.400 . S
C1363 C1364 1.398 . S
C1363 C1369 1.491 . S
C1364 H1355 0.950 . S
C1364 C1363 1.398 . S
C1364 C1365 1.391 . S
C1365 H1353 0.950 . S
C1365 C1361 1.393 . S
C1365 C1364 1.391 . S
C1366 H1356 0.950 . S
C1366 C1367 1.386 . S
C1366 C1368 1.391 . S
C1367 C1366 1.386 . S
C1367 C1371 1.393 . S
C1368 H1357 0.950 . S
C1368 C1366 1.391 . S
C1368 C1369 1.400 . S
C1369 C1363 1.491 . S
C1369 C1368 1.400 . S
C1369 C1370 1.398 . S
C1370 H1358 0.950 . S
C1370 C1369 1.398 . S
C1370 C1371 1.391 . S
C1371 H1359 0.950 . S
C1371 C1367 1.393 . S
C1371 C1370 1.391 . S
H1372 C1380 0.950 . S
H1373 C1385 0.950 . S
H1374 C1382 0.950 . S
H1375 C1384 0.950 . S
H1376 C1386 0.950 . S
H1377 C1388 0.950 . S
H1378 C1390 0.950 . S
H1379 C1391 0.950 . S
C1380 H1372 0.950 . S
C1380 C1381 1.386 . S
C1380 C1382 1.391 . S
C1381 C1380 1.386 . S
C1381 C1385 1.393 . S
C1382 H1374 0.950 . S
C1382 C1380 1.391 . S
C1382 C1383 1.400 . S
C1383 C1382 1.400 . S
C1383 C1384 1.398 . S
C1383 C1389 1.491 . S
C1384 H1375 0.950 . S
C1384 C1383 1.398 . S
C1384 C1385 1.391 . S
C1385 H1373 0.950 . S
C1385 C1381 1.393 . S
C1385 C1384 1.391 . S
C1386 H1376 0.950 . S
C1386 C1387 1.386 . S
C1386 C1388 1.391 . S
C1387 C1386 1.386 . S
C1387 C1391 1.393 . S
C1388 H1377 0.950 . S
C1388 C1386 1.391 . S
C1388 C1389 1.400 . S
C1389 C1383 1.491 . S
C1389 C1388 1.400 . S
C1389 C1390 1.398 . S
C1390 H1378 0.950 . S
C1390 C1389 1.398 . S
C1390 C1391 1.391 . S
C1391 H1379 0.950 . S
C1391 C1387 1.393 . S
C1391 C1390 1.391 . S
H1392 C1400 0.950 . S
H1393 C1405 0.950 . S
H1394 C1402 0.950 . S
H1395 C1404 0.950 . S
H1396 C1406 0.950 . S
H1397 C1408 0.950 . S
H1398 C1410 0.950 . S
H1399 C1411 0.950 . S
C1400 H1392 0.950 . S
C1400 C1401 1.386 . S
C1400 C1402 1.391 . S
C1401 C1400 1.386 . S
C1401 C1405 1.393 . S
C1402 H1394 0.950 . S
C1402 C1400 1.391 . S
C1402 C1403 1.400 . S
C1403 C1402 1.400 . S
C1403 C1404 1.398 . S
C1403 C1409 1.491 . S
C1404 H1395 0.950 . S
C1404 C1403 1.398 . S
C1404 C1405 1.391 . S
C1405 H1393 0.950 . S
C1405 C1401 1.393 . S
C1405 C1404 1.391 . S
C1406 H1396 0.950 . S
C1406 C1407 1.386 . S
C1406 C1408 1.391 . S
C1407 C1406 1.386 . S
C1407 C1411 1.393 . S
C1408 H1397 0.950 . S
C1408 C1406 1.391 . S
C1408 C1409 1.400 . S
C1409 C1403 1.491 . S
C1409 C1408 1.400 . S
C1409 C1410 1.398 . S
C1410 H1398 0.950 . S
C1410 C1409 1.398 . S
C1410 C1411 1.391 . S
C1411 H1399 0.950 . S
C1411 C1407 1.393 . S
C1411 C1410 1.391 . S
H1412 C1420 0.950 . S
H1413 C1425 0.950 . S
H1414 C1422 0.950 . S
H1415 C1424 0.950 . S
H1416 C1426 0.950 . S
H1417 C1428 0.950 . S
H1418 C1430 0.950 . S
H1419 C1431 0.950 . S
C1420 H1412 0.950 . S
C1420 C1421 1.386 . S
C1420 C1422 1.391 . S
C1421 C1420 1.386 . S
C1421 C1425 1.393 . S
C1422 H1414 0.950 . S
C1422 C1420 1.391 . S
C1422 C1423 1.400 . S
C1423 C1422 1.400 . S
C1423 C1424 1.398 . S
C1423 C1429 1.491 . S
C1424 H1415 0.950 . S
C1424 C1423 1.398 . S
C1424 C1425 1.391 . S
C1425 H1413 0.950 . S
C1425 C1421 1.393 . S
C1425 C1424 1.391 . S
C1426 H1416 0.950 . S
C1426 C1427 1.386 . S
C1426 C1428 1.391 . S
C1427 C1426 1.386 . S
C1427 C1431 1.393 . S
C1428 H1417 0.950 . S
C1428 C1426 1.391 . S
C1428 C1429 1.400 . S
C1429 C1423 1.491 . S
C1429 C1428 1.400 . S
C1429 C1430 1.398 . S
C1430 H1418 0.950 . S
C1430 C1429 1.398 . S
C1430 C1431 1.391 . S
C1431 H1419 0.950 . S
C1431 C1427 1.393 . S
C1431 C1430 1.391 . S
H1432 C1440 0.950 . S
H1433 C1445 0.950 . S
H1434 C1442 0.950 . S
H1435 C1444 0.950 . S
H1436 C1446 0.950 . S
H1437 C1448 0.950 . S
H1438 C1450 0.950 . S
H1439 C1451 0.950 . S
C1440 H1432 0.950 . S
C1440 C1441 1.386 . S
C1440 C1442 1.391 . S
C1441 C1440 1.386 . S
C1441 C1445 1.393 . S
C1442 H1434 0.950 . S
C1442 C1440 1.391 . S
C1442 C1443 1.400 . S
C1443 C1442 1.400 . S
C1443 C1444 1.398 . S
C1443 C1449 1.491 . S
C1444 H1435 0.950 . S
C1444 C1443 1.398 . S
C1444 C1445 1.391 . S
C1445 H1433 0.950 . S
C1445 C1441 1.393 . S
C1445 C1444 1.391 . S
C1446 H1436 0.950 . S
C1446 C1447 1.386 . S
C1446 C1448 1.391 . S
C1447 C1446 1.386 . S
C1447 C1451 1.393 . S
C1448 H1437 0.950 . S
C1448 C1446 1.391 . S
C1448 C1449 1.400 . S
C1449 C1443 1.491 . S
C1449 C1448 1.400 . S
C1449 C1450 1.398 . S
C1450 H1438 0.950 . S
C1450 C1449 1.398 . S
C1450 C1451 1.391 . S
C1451 H1439 0.950 . S
C1451 C1447 1.393 . S
C1451 C1450 1.391 . S
H1452 C1460 0.950 . S
H1453 C1465 0.950 . S
H1454 C1462 0.950 . S
H1455 C1464 0.950 . S
H1456 C1466 0.950 . S
H1457 C1468 0.950 . S
H1458 C1470 0.950 . S
H1459 C1471 0.950 . S
C1460 H1452 0.950 . S
C1460 C1461 1.386 . S
C1460 C1462 1.391 . S
C1461 C1460 1.386 . S
C1461 C1465 1.393 . S
C1462 H1454 0.950 . S
C1462 C1460 1.391 . S
C1462 C1463 1.400 . S
C1463 C1462 1.400 . S
C1463 C1464 1.398 . S
C1463 C1469 1.491 . S
C1464 H1455 0.950 . S
C1464 C1463 1.398 . S
C1464 C1465 1.391 . S
C1465 H1453 0.950 . S
C1465 C1461 1.393 . S
C1465 C1464 1.391 . S
C1466 H1456 0.950 . S
C1466 C1467 1.386 . S
C1466 C1468 1.391 . S
C1467 C1466 1.386 . S
C1467 C1471 1.393 . S
C1468 H1457 0.950 . S
C1468 C1466 1.391 . S
C1468 C1469 1.400 . S
C1469 C1463 1.491 . S
C1469 C1468 1.400 . S
C1469 C1470 1.398 . S
C1470 H1458 0.950 . S
C1470 C1469 1.398 . S
C1470 C1471 1.391 . S
C1471 H1459 0.950 . S
C1471 C1467 1.393 . S
C1471 C1470 1.391 . S
H1472 C1480 0.950 1_455 S
H1473 C1485 0.950 . S
H1474 C1482 0.950 . S
H1475 C1484 0.950 . S
H1476 C1486 0.950 1_655 S
H1477 C1488 0.950 . S
H1478 C1490 0.950 . S
H1479 C1491 0.950 . S
C1480 H1472 0.950 1_655 S
C1480 C1481 1.386 . S
C1480 C1482 1.391 1_655 S
C1481 C1480 1.386 . S
C1481 C1485 1.393 . S
C1482 H1474 0.950 . S
C1482 C1480 1.391 1_455 S
C1482 C1483 1.400 1_455 S
C1483 C1482 1.400 1_655 S
C1483 C1484 1.398 . S
C1483 C1489 1.491 1_655 S
C1484 H1475 0.950 . S
C1484 C1483 1.398 . S
C1484 C1485 1.391 . S
C1485 H1473 0.950 . S
C1485 C1481 1.393 . S
C1485 C1484 1.391 . S
C1486 H1476 0.950 1_455 S
C1486 C1487 1.386 . S
C1486 C1488 1.391 1_455 S
C1487 C1486 1.386 . S
C1487 C1491 1.393 . S
C1488 H1477 0.950 . S
C1488 C1486 1.391 1_655 S
C1488 C1489 1.400 1_655 S
C1489 C1483 1.491 1_455 S
C1489 C1488 1.400 1_455 S
C1489 C1490 1.398 . S
C1490 H1478 0.950 . S
C1490 C1489 1.398 . S
C1490 C1491 1.391 . S
C1491 H1479 0.950 . S
C1491 C1487 1.393 . S
C1491 C1490 1.391 . S
H1492 C1500 0.950 . S
H1493 C1505 0.950 . S
H1494 C1502 0.950 . S
H1495 C1504 0.950 . S
H1496 C1506 0.950 . S
H1497 C1508 0.950 . S
H1498 C1510 0.950 . S
H1499 C1511 0.950 . S
C1500 H1492 0.950 . S
C1500 C1501 1.386 . S
C1500 C1502 1.391 . S
C1501 C1500 1.386 . S
C1501 C1505 1.393 . S
C1502 H1494 0.950 . S
C1502 C1500 1.391 . S
C1502 C1503 1.400 . S
C1503 C1502 1.400 . S
C1503 C1504 1.398 . S
C1503 C1509 1.491 1_565 S
C1504 H1495 0.950 . S
C1504 C1503 1.398 . S
C1504 C1505 1.391 . S
C1505 H1493 0.950 . S
C1505 C1501 1.393 . S
C1505 C1504 1.391 . S
C1506 H1496 0.950 . S
C1506 C1507 1.386 . S
C1506 C1508 1.391 . S
C1507 C1506 1.386 . S
C1507 C1511 1.393 . S
C1508 H1497 0.950 . S
C1508 C1506 1.391 . S
C1508 C1509 1.400 . S
C1509 C1503 1.491 1_545 S
C1509 C1508 1.400 . S
C1509 C1510 1.398 . S
C1510 H1498 0.950 . S
C1510 C1509 1.398 . S
C1510 C1511 1.391 . S
C1511 H1499 0.950 . S
C1511 C1507 1.393 . S
C1511 C1510 1.391 . S
H1512 C1520 0.950 . S
H1513 C1525 0.950 . S
H1514 C1522 0.950 . S
H1515 C1524 0.950 1_545 S
H1516 C1526 0.950 . S
H1517 C1528 0.950 . S
H1518 C1530 0.950 1_565 S
H1519 C1531 0.950 . S
C1520 H1512 0.950 . S
C1520 C1521 1.386 1_554 S
C1520 C1522 1.391 1_455 S
C1521 C1520 1.386 1_556 S
C1521 C1525 1.393 . S
C1522 H1514 0.950 . S
C1522 C1520 1.391 1_655 S
C1522 C1523 1.400 1_654 S
C1523 C1522 1.400 1_456 S
C1523 C1524 1.399 . S
C1523 C1529 1.491 1_465 S
C1524 H1515 0.950 1_565 S
C1524 C1523 1.399 . S
C1524 C1525 1.391 . S
C1525 H1513 0.950 . S
C1525 C1521 1.393 . S
C1525 C1524 1.391 . S
C1526 H1516 0.950 . S
C1526 C1527 1.386 1_556 S
C1526 C1528 1.391 1_655 S
C1527 C1526 1.386 1_554 S
C1527 C1531 1.393 . S
C1528 H1517 0.950 . S
C1528 C1526 1.391 1_455 S
C1528 C1529 1.400 1_455 S
C1529 C1523 1.491 1_645 S
C1529 C1528 1.400 1_655 S
C1529 C1530 1.399 1_556 S
C1530 H1518 0.950 1_545 S
C1530 C1529 1.399 1_554 S
C1530 C1531 1.391 . S
C1531 H1519 0.950 . S
C1531 C1527 1.393 . S
C1531 C1530 1.391 . S
H1532 C1540 0.950 . S
H1533 C1545 0.950 . S
H1534 C1542 0.950 . S
H1535 C1544 0.950 . S
H1536 C1546 0.950 . S
H1537 C1548 0.950 . S
H1538 C1550 0.950 . S
H1539 C1551 0.950 . S
C1540 H1532 0.950 . S
C1540 C1541 1.386 . S
C1540 C1542 1.391 . S
C1541 C1540 1.386 . S
C1541 C1545 1.393 1_554 S
C1542 H1534 0.950 . S
C1542 C1540 1.391 . S
C1542 C1543 1.425 . S
C1543 C1542 1.425 . S
C1543 C1544 1.375 1_554 S
C1543 C1549 1.489 1_554 S
C1544 H1535 0.950 . S
C1544 C1543 1.375 1_556 S
C1544 C1545 1.391 . S
C1545 H1533 0.950 . S
C1545 C1541 1.393 1_556 S
C1545 C1544 1.391 . S
C1546 H1536 0.950 . S
C1546 C1547 1.386 . S
C1546 C1548 1.391 . S
C1547 C1546 1.386 . S
C1547 C1551 1.393 1_556 S
C1548 H1537 0.950 . S
C1548 C1546 1.391 . S
C1548 C1549 1.416 . S
C1549 C1543 1.489 1_556 S
C1549 C1548 1.416 . S
C1549 C1550 1.384 1_556 S
C1550 H1538 0.950 . S
C1550 C1549 1.384 1_554 S
C1550 C1551 1.391 . S
C1551 H1539 0.950 . S
C1551 C1547 1.393 1_554 S
C1551 C1550 1.391 . S
H1552 C1560 0.950 . S
H1553 C1565 0.948 1_455 S
H1554 C1562 0.950 . S
H1555 C1564 0.950 . S
H1556 C1566 0.950 . S
H1557 C1568 0.950 . S
H1558 C1570 0.950 . S
H1559 C1571 0.948 1_655 S
C1560 H1552 0.950 . S
C1560 C1561 1.386 . S
C1560 C1562 1.391 . S
C1561 C1560 1.386 . S
C1561 C1565 1.393 . S
C1562 H1554 0.950 . S
C1562 C1560 1.391 . S
C1562 C1563 1.400 . S
C1563 C1562 1.400 . S
C1563 C1564 1.398 1_655 S
C1563 C1569 1.491 1_655 S
C1564 H1555 0.950 . S
C1564 C1563 1.398 1_455 S
C1564 C1565 1.391 1_455 S
C1565 H1553 0.948 1_655 S
C1565 C1561 1.393 . S
C1565 C1564 1.391 1_655 S
C1566 H1556 0.950 . S
C1566 C1567 1.386 . S
C1566 C1568 1.391 . S
C1567 C1566 1.386 . S
C1567 C1571 1.393 . S
C1568 H1557 0.950 . S
C1568 C1566 1.391 . S
C1568 C1569 1.400 . S
C1569 C1563 1.491 1_455 S
C1569 C1568 1.400 . S
C1569 C1570 1.398 1_455 S
C1570 H1558 0.950 . S
C1570 C1569 1.398 1_655 S
C1570 C1571 1.391 1_655 S
C1571 H1559 0.948 1_455 S
C1571 C1567 1.393 . S
C1571 C1570 1.391 1_455 S
H1572 C1580 0.950 . S
H1573 C1585 0.950 . S
H1574 C1582 0.950 . S
H1575 C1584 0.950 1_545 S
H1576 C1586 0.950 . S
H1577 C1588 0.950 . S
H1578 C1590 0.950 1_565 S
H1579 C1591 0.950 . S
C1580 H1572 0.950 . S
C1580 C1581 1.386 . S
C1580 C1582 1.391 . S
C1581 C1580 1.386 . S
C1581 C1585 1.393 . S
C1582 H1574 0.950 . S
C1582 C1580 1.391 . S
C1582 C1583 1.400 . S
C1583 C1582 1.400 . S
C1583 C1584 1.398 . S
C1583 C1589 1.491 1_565 S
C1584 H1575 0.950 1_565 S
C1584 C1583 1.398 . S
C1584 C1585 1.391 . S
C1585 H1573 0.950 . S
C1585 C1581 1.393 . S
C1585 C1584 1.391 . S
C1586 H1576 0.950 . S
C1586 C1587 1.386 . S
C1586 C1588 1.391 . S
C1587 C1586 1.386 . S
C1587 C1591 1.393 . S
C1588 H1577 0.950 . S
C1588 C1586 1.391 . S
C1588 C1589 1.400 . S
C1589 C1583 1.491 1_545 S
C1589 C1588 1.400 . S
C1589 C1590 1.398 . S
C1590 H1578 0.950 1_545 S
C1590 C1589 1.398 . S
C1590 C1591 1.391 . S
C1591 H1579 0.950 . S
C1591 C1587 1.393 . S
C1591 C1590 1.391 . S
H1592 C1600 0.950 . S
H1593 C1605 0.950 . S
H1594 C1602 0.950 . S
H1595 C1604 0.950 . S
H1596 C1606 0.950 . S
H1597 C1608 0.950 . S
H1598 C1610 0.950 . S
H1599 C1611 0.950 . S
C1600 H1592 0.950 . S
C1600 C1601 1.386 1_554 S
C1600 C1602 1.391 . S
C1601 C1600 1.386 1_556 S
C1601 C1605 1.393 . S
C1602 H1594 0.950 . S
C1602 C1600 1.391 . S
C1602 C1603 1.388 1_554 S
C1603 C1602 1.388 1_556 S
C1603 C1604 1.411 . S
C1603 C1609 1.490 1_556 S
C1604 H1595 0.950 . S
C1604 C1603 1.411 . S
C1604 C1605 1.391 . S
C1605 H1593 0.950 . S
C1605 C1601 1.393 . S
C1605 C1604 1.391 . S
C1606 H1596 0.950 . S
C1606 C1607 1.386 1_556 S
C1606 C1608 1.391 . S
C1607 C1606 1.386 1_554 S
C1607 C1611 1.393 . S
C1608 H1597 0.950 . S
C1608 C1606 1.391 . S
C1608 C1609 1.397 1_556 S
C1609 C1603 1.490 1_554 S
C1609 C1608 1.397 1_554 S
C1609 C1610 1.402 . S
C1610 H1598 0.950 . S
C1610 C1609 1.402 . S
C1610 C1611 1.391 . S
C1611 H1599 0.950 . S
C1611 C1607 1.393 . S
C1611 C1610 1.391 . S
H1612 C1620 0.950 . S
H1613 C1625 0.950 . S
H1614 C1622 0.950 . S
H1615 C1624 0.950 . S
H1616 C1626 0.950 . S
H1617 C1628 0.950 . S
H1618 C1630 0.950 . S
H1619 C1631 0.950 . S
C1620 H1612 0.950 . S
C1620 C1621 1.386 . S
C1620 C1622 1.391 . S
C1621 C1620 1.386 . S
C1621 C1625 1.393 . S
C1622 H1614 0.950 . S
C1622 C1620 1.391 . S
C1622 C1623 1.400 . S
C1623 C1622 1.400 . S
C1623 C1624 1.398 . S
C1623 C1629 1.491 . S
C1624 H1615 0.950 . S
C1624 C1623 1.398 . S
C1624 C1625 1.391 . S
C1625 H1613 0.950 . S
C1625 C1621 1.393 . S
C1625 C1624 1.391 . S
C1626 H1616 0.950 . S
C1626 C1627 1.386 . S
C1626 C1628 1.391 . S
C1627 C1626 1.386 . S
C1627 C1631 1.393 . S
C1628 H1617 0.950 . S
C1628 C1626 1.391 . S
C1628 C1629 1.400 . S
C1629 C1623 1.491 . S
C1629 C1628 1.400 . S
C1629 C1630 1.398 . S
C1630 H1618 0.950 . S
C1630 C1629 1.398 . S
C1630 C1631 1.391 . S
C1631 H1619 0.950 . S
C1631 C1627 1.393 . S
C1631 C1630 1.391 . S
H1632 C1640 0.950 . S
H1633 C1645 0.950 1_455 S
H1634 C1642 0.950 . S
H1635 C1644 0.950 . S
H1636 C1646 0.950 . S
H1637 C1648 0.950 . S
H1638 C1650 0.950 . S
H1639 C1651 0.950 1_655 S
C1640 H1632 0.950 . S
C1640 C1641 1.386 . S
C1640 C1642 1.391 . S
C1641 C1640 1.386 . S
C1641 C1645 1.393 . S
C1642 H1634 0.950 . S
C1642 C1640 1.391 . S
C1642 C1643 1.400 . S
C1643 C1642 1.400 . S
C1643 C1644 1.398 1_655 S
C1643 C1649 1.491 1_655 S
C1644 H1635 0.950 . S
C1644 C1643 1.398 1_455 S
C1644 C1645 1.391 1_455 S
C1645 H1633 0.950 1_655 S
C1645 C1641 1.393 . S
C1645 C1644 1.391 1_655 S
C1646 H1636 0.950 . S
C1646 C1647 1.386 . S
C1646 C1648 1.391 . S
C1647 C1646 1.386 . S
C1647 C1651 1.393 . S
C1648 H1637 0.950 . S
C1648 C1646 1.391 . S
C1648 C1649 1.400 . S
C1649 C1643 1.491 1_455 S
C1649 C1648 1.400 . S
C1649 C1650 1.398 1_455 S
C1650 H1638 0.950 . S
C1650 C1649 1.398 1_655 S
C1650 C1651 1.391 1_655 S
C1651 H1639 0.950 1_455 S
C1651 C1647 1.393 . S
C1651 C1650 1.391 1_455 S
H1652 C1660 0.950 . S
H1653 C1665 0.950 . S
H1654 C1662 0.950 . S
H1655 C1664 0.950 . S
H1656 C1666 0.950 . S
H1657 C1668 0.950 . S
H1658 C1670 0.950 . S
H1659 C1671 0.950 . S
C1660 H1652 0.950 . S
C1660 C1661 1.386 . S
C1660 C1662 1.391 . S
C1661 C1660 1.386 . S
C1661 C1665 1.393 . S
C1662 H1654 0.950 . S
C1662 C1660 1.391 . S
C1662 C1663 1.400 . S
C1663 C1662 1.400 . S
C1663 C1664 1.398 . S
C1663 C1669 1.491 . S
C1664 H1655 0.950 . S
C1664 C1663 1.398 . S
C1664 C1665 1.391 . S
C1665 H1653 0.950 . S
C1665 C1661 1.393 . S
C1665 C1664 1.391 . S
C1666 H1656 0.950 . S
C1666 C1667 1.386 . S
C1666 C1668 1.391 . S
C1667 C1666 1.386 . S
C1667 C1671 1.393 . S
C1668 H1657 0.950 . S
C1668 C1666 1.391 . S
C1668 C1669 1.400 . S
C1669 C1663 1.491 . S
C1669 C1668 1.400 . S
C1669 C1670 1.398 . S
C1670 H1658 0.950 . S
C1670 C1669 1.398 . S
C1670 C1671 1.391 . S
C1671 H1659 0.950 . S
C1671 C1667 1.393 . S
C1671 C1670 1.391 . S
H1672 C1680 0.950 . S
H1673 C1685 0.950 . S
H1674 C1682 0.950 . S
H1675 C1684 0.950 . S
H1676 C1686 0.950 . S
H1677 C1688 0.950 . S
H1678 C1690 0.950 . S
H1679 C1691 0.950 . S
C1680 H1672 0.950 . S
C1680 C1681 1.386 . S
C1680 C1682 1.391 . S
C1681 C1680 1.386 . S
C1681 C1685 1.393 . S
C1682 H1674 0.950 . S
C1682 C1680 1.391 . S
C1682 C1683 1.400 . S
C1683 C1682 1.400 . S
C1683 C1684 1.398 . S
C1683 C1689 1.491 . S
C1684 H1675 0.950 . S
C1684 C1683 1.398 . S
C1684 C1685 1.391 . S
C1685 H1673 0.950 . S
C1685 C1681 1.393 . S
C1685 C1684 1.391 . S
C1686 H1676 0.950 . S
C1686 C1687 1.386 . S
C1686 C1688 1.391 . S
C1687 C1686 1.386 . S
C1687 C1691 1.393 . S
C1688 H1677 0.950 . S
C1688 C1686 1.391 . S
C1688 C1689 1.400 . S
C1689 C1683 1.491 . S
C1689 C1688 1.400 . S
C1689 C1690 1.398 . S
C1690 H1678 0.950 . S
C1690 C1689 1.398 . S
C1690 C1691 1.391 . S
C1691 H1679 0.950 . S
C1691 C1687 1.393 . S
C1691 C1690 1.391 . S
H1692 C1700 0.950 . S
H1693 C1705 0.950 . S
H1694 C1702 0.950 . S
H1695 C1704 0.950 . S
H1696 C1706 0.950 . S
H1697 C1708 0.950 . S
H1698 C1710 0.950 . S
H1699 C1711 0.950 . S
C1700 H1692 0.950 . S
C1700 C1701 1.386 . S
C1700 C1702 1.391 . S
C1701 C1700 1.386 . S
C1701 C1705 1.393 . S
C1702 H1694 0.950 . S
C1702 C1700 1.391 . S
C1702 C1703 1.400 . S
C1703 C1702 1.400 . S
C1703 C1704 1.398 . S
C1703 C1709 1.491 . S
C1704 H1695 0.950 . S
C1704 C1703 1.398 . S
C1704 C1705 1.391 . S
C1705 H1693 0.950 . S
C1705 C1701 1.393 . S
C1705 C1704 1.391 . S
C1706 H1696 0.950 . S
C1706 C1707 1.386 . S
C1706 C1708 1.391 . S
C1707 C1706 1.386 . S
C1707 C1711 1.393 . S
C1708 H1697 0.950 . S
C1708 C1706 1.391 . S
C1708 C1709 1.400 . S
C1709 C1703 1.491 . S
C1709 C1708 1.400 . S
C1709 C1710 1.398 . S
C1710 H1698 0.950 . S
C1710 C1709 1.398 . S
C1710 C1711 1.391 . S
C1711 H1699 0.950 . S
C1711 C1707 1.393 . S
C1711 C1710 1.391 . S
H1712 C1720 0.950 . S
H1713 C1725 0.950 . S
H1714 C1722 0.950 . S
H1715 C1724 0.950 . S
H1716 C1726 0.950 . S
H1717 C1728 0.950 . S
H1718 C1730 0.950 . S
H1719 C1731 0.950 . S
C1720 H1712 0.950 . S
C1720 C1721 1.386 . S
C1720 C1722 1.391 . S
C1721 C1720 1.386 . S
C1721 C1725 1.393 . S
C1722 H1714 0.950 . S
C1722 C1720 1.391 . S
C1722 C1723 1.400 . S
C1723 C1722 1.400 . S
C1723 C1724 1.398 . S
C1723 C1729 1.491 . S
C1724 H1715 0.950 . S
C1724 C1723 1.398 . S
C1724 C1725 1.391 . S
C1725 H1713 0.950 . S
C1725 C1721 1.393 . S
C1725 C1724 1.391 . S
C1726 H1716 0.950 . S
C1726 C1727 1.386 . S
C1726 C1728 1.391 . S
C1727 C1726 1.386 . S
C1727 C1731 1.393 . S
C1728 H1717 0.950 . S
C1728 C1726 1.391 . S
C1728 C1729 1.400 . S
C1729 C1723 1.491 . S
C1729 C1728 1.400 . S
C1729 C1730 1.398 . S
C1730 H1718 0.950 . S
C1730 C1729 1.398 . S
C1730 C1731 1.391 . S
C1731 H1719 0.950 . S
C1731 C1727 1.393 . S
C1731 C1730 1.391 . S
H1732 C1740 0.950 . S
H1733 C1745 0.950 . S
H1734 C1742 0.950 . S
H1735 C1744 0.950 . S
H1736 C1746 0.950 . S
H1737 C1748 0.950 . S
H1738 C1750 0.950 . S
H1739 C1751 0.950 . S
C1740 H1732 0.950 . S
C1740 C1741 1.386 . S
C1740 C1742 1.391 . S
C1741 C1740 1.386 . S
C1741 C1745 1.393 . S
C1742 H1734 0.950 . S
C1742 C1740 1.391 . S
C1742 C1743 1.400 . S
C1743 C1742 1.400 . S
C1743 C1744 1.398 . S
C1743 C1749 1.491 1_545 S
C1744 H1735 0.950 . S
C1744 C1743 1.398 . S
C1744 C1745 1.391 . S
C1745 H1733 0.950 . S
C1745 C1741 1.393 . S
C1745 C1744 1.391 . S
C1746 H1736 0.950 . S
C1746 C1747 1.386 . S
C1746 C1748 1.391 . S
C1747 C1746 1.386 . S
C1747 C1751 1.393 . S
C1748 H1737 0.950 . S
C1748 C1746 1.391 . S
C1748 C1749 1.400 . S
C1749 C1743 1.491 1_565 S
C1749 C1748 1.400 . S
C1749 C1750 1.398 . S
C1750 H1738 0.950 . S
C1750 C1749 1.398 . S
C1750 C1751 1.391 . S
C1751 H1739 0.950 . S
C1751 C1747 1.393 . S
C1751 C1750 1.391 . S
H1752 C1760 0.950 . S
H1753 C1765 0.950 . S
H1754 C1762 0.950 . S
H1755 C1764 0.950 . S
H1756 C1766 0.950 . S
H1757 C1768 0.950 . S
H1758 C1770 0.950 . S
H1759 C1771 0.950 . S
C1760 H1752 0.950 . S
C1760 C1761 1.386 . S
C1760 C1762 1.391 . S
C1761 C1760 1.386 . S
C1761 C1765 1.393 . S
C1762 H1754 0.950 . S
C1762 C1760 1.391 . S
C1762 C1763 1.400 . S
C1763 C1762 1.400 . S
C1763 C1764 1.398 . S
C1763 C1769 1.491 . S
C1764 H1755 0.950 . S
C1764 C1763 1.398 . S
C1764 C1765 1.391 . S
C1765 H1753 0.950 . S
C1765 C1761 1.393 . S
C1765 C1764 1.391 . S
C1766 H1756 0.950 . S
C1766 C1767 1.386 . S
C1766 C1768 1.391 . S
C1767 C1766 1.386 . S
C1767 C1771 1.393 . S
C1768 H1757 0.950 . S
C1768 C1766 1.391 . S
C1768 C1769 1.400 . S
C1769 C1763 1.491 . S
C1769 C1768 1.400 . S
C1769 C1770 1.398 . S
C1770 H1758 0.950 . S
C1770 C1769 1.398 . S
C1770 C1771 1.391 . S
C1771 H1759 0.950 . S
C1771 C1767 1.393 . S
C1771 C1770 1.391 . S
H1772 C1780 0.950 . S
H1773 C1785 0.950 . S
H1774 C1782 0.950 . S
H1775 C1784 0.950 . S
H1776 C1786 0.950 . S
H1777 C1788 0.950 . S
H1778 C1790 0.950 . S
H1779 C1791 0.950 . S
C1780 H1772 0.950 . S
C1780 C1781 1.386 1_554 S
C1780 C1782 1.391 . S
C1781 C1780 1.386 1_556 S
C1781 C1785 1.393 . S
C1782 H1774 0.950 . S
C1782 C1780 1.391 . S
C1782 C1783 1.399 1_554 S
C1783 C1782 1.399 1_556 S
C1783 C1784 1.399 . S
C1783 C1789 1.491 . S
C1784 H1775 0.950 . S
C1784 C1783 1.399 . S
C1784 C1785 1.391 . S
C1785 H1773 0.950 . S
C1785 C1781 1.393 . S
C1785 C1784 1.391 . S
C1786 H1776 0.950 . S
C1786 C1787 1.386 1_556 S
C1786 C1788 1.391 . S
C1787 C1786 1.386 1_554 S
C1787 C1791 1.393 . S
C1788 H1777 0.950 . S
C1788 C1786 1.391 . S
C1788 C1789 1.399 . S
C1789 C1783 1.491 . S
C1789 C1788 1.399 . S
C1789 C1790 1.399 1_556 S
C1790 H1778 0.950 . S
C1790 C1789 1.399 1_554 S
C1790 C1791 1.391 . S
C1791 H1779 0.950 . S
C1791 C1787 1.393 . S
C1791 C1790 1.391 . S
H1792 C1800 0.950 . S
H1793 C1805 0.950 . S
H1794 C1802 0.950 . S
H1795 C1804 0.950 . S
H1796 C1806 0.950 . S
H1797 C1808 0.950 . S
H1798 C1810 0.950 . S
H1799 C1811 0.950 . S
C1800 H1792 0.950 . S
C1800 C1801 1.386 . S
C1800 C1802 1.391 . S
C1801 C1800 1.386 . S
C1801 C1805 1.393 . S
C1802 H1794 0.950 . S
C1802 C1800 1.391 . S
C1802 C1803 1.400 . S
C1803 C1802 1.400 . S
C1803 C1804 1.398 . S
C1803 C1809 1.491 . S
C1804 H1795 0.950 . S
C1804 C1803 1.398 . S
C1804 C1805 1.391 . S
C1805 H1793 0.950 . S
C1805 C1801 1.393 . S
C1805 C1804 1.391 . S
C1806 H1796 0.950 . S
C1806 C1807 1.386 . S
C1806 C1808 1.391 . S
C1807 C1806 1.386 . S
C1807 C1811 1.393 . S
C1808 H1797 0.950 . S
C1808 C1806 1.391 . S
C1808 C1809 1.400 . S
C1809 C1803 1.491 . S
C1809 C1808 1.400 . S
C1809 C1810 1.398 . S
C1810 H1798 0.950 . S
C1810 C1809 1.398 . S
C1810 C1811 1.391 . S
C1811 H1799 0.950 . S
C1811 C1807 1.393 . S
C1811 C1810 1.391 . S
H1812 C1820 0.950 . S
H1813 C1825 0.950 . S
H1814 C1822 0.950 . S
H1815 C1824 0.950 . S
H1816 C1826 0.950 . S
H1817 C1828 0.950 . S
H1818 C1830 0.950 . S
H1819 C1831 0.950 . S
C1820 H1812 0.950 . S
C1820 C1821 1.386 . S
C1820 C1822 1.391 . S
C1821 C1820 1.386 . S
C1821 C1825 1.393 . S
C1822 H1814 0.950 . S
C1822 C1820 1.391 . S
C1822 C1823 1.400 . S
C1823 C1822 1.400 . S
C1823 C1824 1.398 . S
C1823 C1829 1.491 . S
C1824 H1815 0.950 . S
C1824 C1823 1.398 . S
C1824 C1825 1.391 . S
C1825 H1813 0.950 . S
C1825 C1821 1.393 . S
C1825 C1824 1.391 . S
C1826 H1816 0.950 . S
C1826 C1827 1.386 . S
C1826 C1828 1.391 . S
C1827 C1826 1.386 . S
C1827 C1831 1.393 . S
C1828 H1817 0.950 . S
C1828 C1826 1.391 . S
C1828 C1829 1.400 . S
C1829 C1823 1.491 . S
C1829 C1828 1.400 . S
C1829 C1830 1.398 . S
C1830 H1818 0.950 . S
C1830 C1829 1.398 . S
C1830 C1831 1.391 . S
C1831 H1819 0.950 . S
C1831 C1827 1.393 . S
C1831 C1830 1.391 . S
H1832 C1840 0.950 . S
H1833 C1845 0.950 . S
H1834 C1842 0.950 . S
H1835 C1844 0.950 . S
H1836 C1846 0.950 . S
H1837 C1848 0.950 . S
H1838 C1850 0.950 . S
H1839 C1851 0.950 . S
C1840 H1832 0.950 . S
C1840 C1841 1.386 . S
C1840 C1842 1.391 . S
C1841 C1840 1.386 . S
C1841 C1845 1.393 . S
C1842 H1834 0.950 . S
C1842 C1840 1.391 . S
C1842 C1843 1.400 . S
C1843 C1842 1.400 . S
C1843 C1844 1.398 . S
C1843 C1849 1.491 . S
C1844 H1835 0.950 . S
C1844 C1843 1.398 . S
C1844 C1845 1.391 . S
C1845 H1833 0.950 . S
C1845 C1841 1.393 . S
C1845 C1844 1.391 . S
C1846 H1836 0.950 . S
C1846 C1847 1.386 . S
C1846 C1848 1.391 . S
C1847 C1846 1.386 . S
C1847 C1851 1.393 . S
C1848 H1837 0.950 . S
C1848 C1846 1.391 . S
C1848 C1849 1.400 . S
C1849 C1843 1.491 . S
C1849 C1848 1.400 . S
C1849 C1850 1.398 . S
C1850 H1838 0.950 . S
C1850 C1849 1.398 . S
C1850 C1851 1.391 . S
C1851 H1839 0.950 . S
C1851 C1847 1.393 . S
C1851 C1850 1.391 . S
H1852 C1860 0.950 . S
H1853 C1865 0.950 . S
H1854 C1862 0.950 . S
H1855 C1864 0.950 . S
H1856 C1866 0.950 . S
H1857 C1868 0.950 . S
H1858 C1870 0.950 . S
H1859 C1871 0.950 . S
C1860 H1852 0.950 . S
C1860 C1861 1.386 . S
C1860 C1862 1.391 . S
C1861 C1860 1.386 . S
C1861 C1865 1.393 . S
C1862 H1854 0.950 . S
C1862 C1860 1.391 . S
C1862 C1863 1.400 . S
C1863 C1862 1.400 . S
C1863 C1864 1.398 . S
C1863 C1869 1.491 . S
C1864 H1855 0.950 . S
C1864 C1863 1.398 . S
C1864 C1865 1.391 . S
C1865 H1853 0.950 . S
C1865 C1861 1.393 . S
C1865 C1864 1.391 . S
C1866 H1856 0.950 . S
C1866 C1867 1.386 . S
C1866 C1868 1.391 . S
C1867 C1866 1.386 . S
C1867 C1871 1.393 . S
C1868 H1857 0.950 . S
C1868 C1866 1.391 . S
C1868 C1869 1.400 . S
C1869 C1863 1.491 . S
C1869 C1868 1.400 . S
C1869 C1870 1.398 . S
C1870 H1858 0.950 . S
C1870 C1869 1.398 . S
C1870 C1871 1.391 . S
C1871 H1859 0.950 . S
C1871 C1867 1.393 . S
C1871 C1870 1.391 . S
H1872 C1880 0.950 . S
H1873 C1885 0.950 . S
H1874 C1882 0.950 . S
H1875 C1884 0.950 . S
H1876 C1886 0.950 . S
H1877 C1888 0.950 . S
H1878 C1890 0.950 . S
H1879 C1891 0.950 . S
C1880 H1872 0.950 . S
C1880 C1881 1.386 . S
C1880 C1882 1.391 . S
C1881 C1880 1.386 . S
C1881 C1885 1.393 . S
C1882 H1874 0.950 . S
C1882 C1880 1.391 . S
C1882 C1883 1.400 . S
C1883 C1882 1.400 . S
C1883 C1884 1.398 . S
C1883 C1889 1.491 . S
C1884 H1875 0.950 . S
C1884 C1883 1.398 . S
C1884 C1885 1.391 . S
C1885 H1873 0.950 . S
C1885 C1881 1.393 . S
C1885 C1884 1.391 . S
C1886 H1876 0.950 . S
C1886 C1887 1.386 . S
C1886 C1888 1.391 . S
C1887 C1886 1.386 . S
C1887 C1891 1.393 . S
C1888 H1877 0.950 . S
C1888 C1886 1.391 . S
C1888 C1889 1.400 . S
C1889 C1883 1.491 . S
C1889 C1888 1.400 . S
C1889 C1890 1.398 . S
C1890 H1878 0.950 . S
C1890 C1889 1.398 . S
C1890 C1891 1.391 . S
C1891 H1879 0.950 . S
C1891 C1887 1.393 . S
C1891 C1890 1.391 . S
H1892 C1900 0.950 . S
H1893 C1905 0.950 . S
H1894 C1902 0.950 . S
H1895 C1904 0.950 . S
H1896 C1906 0.950 . S
H1897 C1908 0.950 . S
H1898 C1910 0.950 . S
H1899 C1911 0.950 . S
C1900 H1892 0.950 . S
C1900 C1901 1.386 . S
C1900 C1902 1.391 . S
C1901 C1900 1.386 . S
C1901 C1905 1.393 . S
C1902 H1894 0.950 . S
C1902 C1900 1.391 . S
C1902 C1903 1.400 . S
C1903 C1902 1.400 . S
C1903 C1904 1.398 . S
C1903 C1909 1.491 . S
C1904 H1895 0.950 . S
C1904 C1903 1.398 . S
C1904 C1905 1.391 . S
C1905 H1893 0.950 . S
C1905 C1901 1.393 . S
C1905 C1904 1.391 . S
C1906 H1896 0.950 . S
C1906 C1907 1.386 . S
C1906 C1908 1.391 . S
C1907 C1906 1.386 . S
C1907 C1911 1.393 . S
C1908 H1897 0.950 . S
C1908 C1906 1.391 . S
C1908 C1909 1.400 . S
C1909 C1903 1.491 . S
C1909 C1908 1.400 . S
C1909 C1910 1.398 . S
C1910 H1898 0.950 . S
C1910 C1909 1.398 . S
C1910 C1911 1.391 . S
C1911 H1899 0.950 . S
C1911 C1907 1.393 . S
C1911 C1910 1.391 . S
H1912 C1920 0.950 . S
H1913 C1925 0.950 . S
H1914 C1922 0.950 . S
H1915 C1924 0.950 . S
H1916 C1926 0.950 . S
H1917 C1928 0.950 . S
H1918 C1930 0.950 . S
H1919 C1931 0.950 . S
C1920 H1912 0.950 . S
C1920 C1921 1.386 . S
C1920 C1922 1.391 . S
C1921 C1920 1.386 . S
C1921 C1925 1.393 . S
C1922 H1914 0.950 . S
C1922 C1920 1.391 . S
C1922 C1923 1.400 . S
C1923 C1922 1.400 . S
C1923 C1924 1.398 . S
C1923 C1929 1.491 . S
C1924 H1915 0.950 . S
C1924 C1923 1.398 . S
C1924 C1925 1.391 . S
C1925 H1913 0.950 . S
C1925 C1921 1.393 . S
C1925 C1924 1.391 . S
C1926 H1916 0.950 . S
C1926 C1927 1.386 . S
C1926 C1928 1.391 . S
C1927 C1926 1.386 . S
C1927 C1931 1.393 . S
C1928 H1917 0.950 . S
C1928 C1926 1.391 . S
C1928 C1929 1.400 . S
C1929 C1923 1.491 . S
C1929 C1928 1.400 . S
C1929 C1930 1.398 . S
C1930 H1918 0.950 . S
C1930 C1929 1.398 . S
C1930 C1931 1.391 . S
C1931 H1919 0.950 . S
C1931 C1927 1.393 . S
C1931 C1930 1.391 . S
H1932 C1940 0.950 . S
H1933 C1945 0.950 . S
H1934 C1942 0.950 . S
H1935 C1944 0.950 . S
H1936 C1946 0.950 . S
H1937 C1948 0.950 . S
H1938 C1950 0.950 . S
H1939 C1951 0.950 . S
C1940 H1932 0.950 . S
C1940 C1941 1.386 . S
C1940 C1942 1.391 . S
C1941 C1940 1.386 . S
C1941 C1945 1.393 . S
C1942 H1934 0.950 . S
C1942 C1940 1.391 . S
C1942 C1943 1.400 . S
C1943 C1942 1.400 . S
C1943 C1944 1.398 . S
C1943 C1949 1.491 . S
C1944 H1935 0.950 . S
C1944 C1943 1.398 . S
C1944 C1945 1.391 . S
C1945 H1933 0.950 . S
C1945 C1941 1.393 . S
C1945 C1944 1.391 . S
C1946 H1936 0.950 . S
C1946 C1947 1.386 . S
C1946 C1948 1.391 . S
C1947 C1946 1.386 . S
C1947 C1951 1.393 . S
C1948 H1937 0.950 . S
C1948 C1946 1.391 . S
C1948 C1949 1.400 . S
C1949 C1943 1.491 . S
C1949 C1948 1.400 . S
C1949 C1950 1.398 . S
C1950 H1938 0.950 . S
C1950 C1949 1.398 . S
C1950 C1951 1.391 . S
C1951 H1939 0.950 . S
C1951 C1947 1.393 . S
C1951 C1950 1.391 . S
H1952 C1960 0.950 . S
H1953 C1965 0.950 . S
H1954 C1962 0.950 . S
H1955 C1964 0.950 . S
H1956 C1966 0.950 . S
H1957 C1968 0.950 . S
H1958 C1970 0.950 . S
H1959 C1971 0.950 . S
C1960 H1952 0.950 . S
C1960 C1961 1.386 . S
C1960 C1962 1.391 . S
C1961 C1960 1.386 . S
C1961 C1965 1.393 . S
C1962 H1954 0.950 . S
C1962 C1960 1.391 . S
C1962 C1963 1.400 . S
C1963 C1962 1.400 . S
C1963 C1964 1.398 . S
C1963 C1969 1.491 . S
C1964 H1955 0.950 . S
C1964 C1963 1.398 . S
C1964 C1965 1.391 . S
C1965 H1953 0.950 . S
C1965 C1961 1.393 . S
C1965 C1964 1.391 . S
C1966 H1956 0.950 . S
C1966 C1967 1.386 . S
C1966 C1968 1.391 . S
C1967 C1966 1.386 . S
C1967 C1971 1.393 . S
C1968 H1957 0.950 . S
C1968 C1966 1.391 . S
C1968 C1969 1.400 . S
C1969 C1963 1.491 . S
C1969 C1968 1.400 . S
C1969 C1970 1.398 . S
C1970 H1958 0.950 . S
C1970 C1969 1.398 . S
C1970 C1971 1.391 . S
C1971 H1959 0.950 . S
C1971 C1967 1.393 . S
C1971 C1970 1.391 . S
H1972 C1980 0.950 . S
H1973 C1985 0.950 . S
H1974 C1982 0.950 . S
H1975 C1984 0.950 . S
H1976 C1986 0.950 . S
H1977 C1988 0.950 . S
H1978 C1990 0.950 . S
H1979 C1991 0.950 . S
C1980 H1972 0.950 . S
C1980 C1981 1.386 . S
C1980 C1982 1.391 . S
C1981 C1980 1.386 . S
C1981 C1985 1.393 . S
C1982 H1974 0.950 . S
C1982 C1980 1.391 . S
C1982 C1983 1.400 . S
C1983 C1982 1.400 . S
C1983 C1984 1.398 . S
C1983 C1989 1.491 . S
C1984 H1975 0.950 . S
C1984 C1983 1.398 . S
C1984 C1985 1.391 . S
C1985 H1973 0.950 . S
C1985 C1981 1.393 . S
C1985 C1984 1.391 . S
C1986 H1976 0.950 . S
C1986 C1987 1.386 . S
C1986 C1988 1.391 . S
C1987 C1986 1.386 . S
C1987 C1991 1.393 . S
C1988 H1977 0.950 . S
C1988 C1986 1.391 . S
C1988 C1989 1.400 . S
C1989 C1983 1.491 . S
C1989 C1988 1.400 . S
C1989 C1990 1.398 . S
C1990 H1978 0.950 . S
C1990 C1989 1.398 . S
C1990 C1991 1.391 . S
C1991 H1979 0.950 . S
C1991 C1987 1.393 . S
C1991 C1990 1.391 . S
H1992 C2000 0.950 . S
H1993 C2005 0.950 . S
H1994 C2002 0.950 . S
H1995 C2004 0.950 . S
H1996 C2006 0.950 . S
H1997 C2008 0.950 . S
H1998 C2010 0.950 . S
H1999 C2011 0.950 . S
C2000 H1992 0.950 . S
C2000 C2001 1.386 . S
C2000 C2002 1.391 . S
C2001 C2000 1.386 . S
C2001 C2005 1.393 . S
C2002 H1994 0.950 . S
C2002 C2000 1.391 . S
C2002 C2003 1.400 . S
C2003 C2002 1.400 . S
C2003 C2004 1.398 . S
C2003 C2009 1.491 . S
C2004 H1995 0.950 . S
C2004 C2003 1.398 . S
C2004 C2005 1.391 . S
C2005 H1993 0.950 . S
C2005 C2001 1.393 . S
C2005 C2004 1.391 . S
C2006 H1996 0.950 . S
C2006 C2007 1.386 . S
C2006 C2008 1.391 . S
C2007 C2006 1.386 . S
C2007 C2011 1.393 . S
C2008 H1997 0.950 . S
C2008 C2006 1.391 . S
C2008 C2009 1.400 . S
C2009 C2003 1.491 . S
C2009 C2008 1.400 . S
C2009 C2010 1.398 . S
C2010 H1998 0.950 . S
C2010 C2009 1.398 . S
C2010 C2011 1.391 . S
C2011 H1999 0.950 . S
C2011 C2007 1.393 . S
C2011 C2010 1.391 . S
H2012 C2020 0.950 . S
H2013 C2025 0.950 . S
H2014 C2022 0.950 . S
H2015 C2024 0.950 . S
H2016 C2026 0.950 . S
H2017 C2028 0.950 . S
H2018 C2030 0.950 . S
H2019 C2031 0.950 . S
C2020 H2012 0.950 . S
C2020 C2021 1.386 . S
C2020 C2022 1.391 . S
C2021 C2020 1.386 . S
C2021 C2025 1.393 . S
C2022 H2014 0.950 . S
C2022 C2020 1.391 . S
C2022 C2023 1.400 . S
C2023 C2022 1.400 . S
C2023 C2024 1.398 . S
C2023 C2029 1.491 . S
C2024 H2015 0.950 . S
C2024 C2023 1.398 . S
C2024 C2025 1.391 . S
C2025 H2013 0.950 . S
C2025 C2021 1.393 . S
C2025 C2024 1.391 . S
C2026 H2016 0.950 . S
C2026 C2027 1.386 . S
C2026 C2028 1.391 . S
C2027 C2026 1.386 . S
C2027 C2031 1.393 . S
C2028 H2017 0.950 . S
C2028 C2026 1.391 . S
C2028 C2029 1.400 . S
C2029 C2023 1.491 . S
C2029 C2028 1.400 . S
C2029 C2030 1.398 . S
C2030 H2018 0.950 . S
C2030 C2029 1.398 . S
C2030 C2031 1.391 . S
C2031 H2019 0.950 . S
C2031 C2027 1.393 . S
C2031 C2030 1.391 . S
H2032 C2040 0.950 . S
H2033 C2045 0.950 . S
H2034 C2042 0.950 . S
H2035 C2044 0.950 . S
H2036 C2046 0.950 . S
H2037 C2048 0.950 . S
H2038 C2050 0.950 . S
H2039 C2051 0.950 . S
C2040 H2032 0.950 . S
C2040 C2041 1.386 . S
C2040 C2042 1.391 . S
C2041 C2040 1.386 . S
C2041 C2045 1.393 . S
C2042 H2034 0.950 . S
C2042 C2040 1.391 . S
C2042 C2043 1.400 . S
C2043 C2042 1.400 . S
C2043 C2044 1.398 . S
C2043 C2049 1.491 . S
C2044 H2035 0.950 . S
C2044 C2043 1.398 . S
C2044 C2045 1.391 . S
C2045 H2033 0.950 . S
C2045 C2041 1.393 . S
C2045 C2044 1.391 . S
C2046 H2036 0.950 . S
C2046 C2047 1.386 . S
C2046 C2048 1.391 . S
C2047 C2046 1.386 . S
C2047 C2051 1.393 . S
C2048 H2037 0.950 . S
C2048 C2046 1.391 . S
C2048 C2049 1.400 . S
C2049 C2043 1.491 . S
C2049 C2048 1.400 . S
C2049 C2050 1.398 . S
C2050 H2038 0.950 . S
C2050 C2049 1.398 . S
C2050 C2051 1.391 . S
C2051 H2039 0.950 . S
C2051 C2047 1.393 . S
C2051 C2050 1.391 . S
H2052 C2060 0.950 . S
H2053 C2065 0.950 . S
H2054 C2062 0.950 . S
H2055 C2064 0.950 . S
H2056 C2066 0.950 . S
H2057 C2068 0.950 . S
H2058 C2070 0.950 . S
H2059 C2071 0.950 . S
C2060 H2052 0.950 . S
C2060 C2061 1.386 . S
C2060 C2062 1.391 . S
C2061 C2060 1.386 . S
C2061 C2065 1.393 . S
C2062 H2054 0.950 . S
C2062 C2060 1.391 . S
C2062 C2063 1.400 . S
C2063 C2062 1.400 . S
C2063 C2064 1.398 . S
C2063 C2069 1.491 . S
C2064 H2055 0.950 . S
C2064 C2063 1.398 . S
C2064 C2065 1.391 . S
C2065 H2053 0.950 . S
C2065 C2061 1.393 . S
C2065 C2064 1.391 . S
C2066 H2056 0.950 . S
C2066 C2067 1.386 . S
C2066 C2068 1.391 . S
C2067 C2066 1.386 . S
C2067 C2071 1.393 . S
C2068 H2057 0.950 . S
C2068 C2066 1.391 . S
C2068 C2069 1.400 . S
C2069 C2063 1.491 . S
C2069 C2068 1.400 . S
C2069 C2070 1.398 . S
C2070 H2058 0.950 . S
C2070 C2069 1.398 . S
C2070 C2071 1.391 . S
C2071 H2059 0.950 . S
C2071 C2067 1.393 . S
C2071 C2070 1.391 . S
H2072 C2080 0.950 . S
H2073 C2085 0.950 . S
H2074 C2082 0.950 . S
H2075 C2084 0.950 . S
H2076 C2086 0.950 . S
H2077 C2088 0.950 . S
H2078 C2090 0.950 . S
H2079 C2091 0.950 . S
C2080 H2072 0.950 . S
C2080 C2081 1.386 . S
C2080 C2082 1.391 . S
C2081 C2080 1.386 . S
C2081 C2085 1.393 . S
C2082 H2074 0.950 . S
C2082 C2080 1.391 . S
C2082 C2083 1.400 . S
C2083 C2082 1.400 . S
C2083 C2084 1.398 . S
C2083 C2089 1.491 . S
C2084 H2075 0.950 . S
C2084 C2083 1.398 . S
C2084 C2085 1.391 . S
C2085 H2073 0.950 . S
C2085 C2081 1.393 . S
C2085 C2084 1.391 . S
C2086 H2076 0.950 . S
C2086 C2087 1.386 . S
C2086 C2088 1.391 . S
C2087 C2086 1.386 . S
C2087 C2091 1.393 . S
C2088 H2077 0.950 . S
C2088 C2086 1.391 . S
C2088 C2089 1.400 . S
C2089 C2083 1.491 . S
C2089 C2088 1.400 . S
C2089 C2090 1.398 . S
C2090 H2078 0.950 . S
C2090 C2089 1.398 . S
C2090 C2091 1.391 . S
C2091 H2079 0.950 . S
C2091 C2087 1.393 . S
C2091 C2090 1.391 . S
H2092 C2100 0.950 . S
H2093 C2105 0.950 . S
H2094 C2102 0.950 . S
H2095 C2104 0.950 . S
H2096 C2106 0.950 . S
H2097 C2108 0.950 . S
H2098 C2110 0.950 . S
H2099 C2111 0.950 . S
C2100 H2092 0.950 . S
C2100 C2101 1.386 . S
C2100 C2102 1.391 . S
C2101 C2100 1.386 . S
C2101 C2105 1.393 . S
C2102 H2094 0.950 . S
C2102 C2100 1.391 . S
C2102 C2103 1.400 . S
C2103 C2102 1.400 . S
C2103 C2104 1.398 . S
C2103 C2109 1.491 . S
C2104 H2095 0.950 . S
C2104 C2103 1.398 . S
C2104 C2105 1.391 . S
C2105 H2093 0.950 . S
C2105 C2101 1.393 . S
C2105 C2104 1.391 . S
C2106 H2096 0.950 . S
C2106 C2107 1.386 . S
C2106 C2108 1.391 . S
C2107 C2106 1.386 . S
C2107 C2111 1.393 . S
C2108 H2097 0.950 . S
C2108 C2106 1.391 . S
C2108 C2109 1.400 . S
C2109 C2103 1.491 . S
C2109 C2108 1.400 . S
C2109 C2110 1.398 . S
C2110 H2098 0.950 . S
C2110 C2109 1.398 . S
C2110 C2111 1.391 . S
C2111 H2099 0.950 . S
C2111 C2107 1.393 . S
C2111 C2110 1.391 . S
H2112 C2120 0.950 . S
H2113 C2125 0.950 . S
H2114 C2122 0.950 . S
H2115 C2124 0.950 . S
H2116 C2126 0.950 . S
H2117 C2128 0.950 . S
H2118 C2130 0.950 . S
H2119 C2131 0.950 . S
C2120 H2112 0.950 . S
C2120 C2121 1.386 . S
C2120 C2122 1.391 . S
C2121 C2120 1.386 . S
C2121 C2125 1.393 . S
C2122 H2114 0.950 . S
C2122 C2120 1.391 . S
C2122 C2123 1.400 . S
C2123 C2122 1.400 . S
C2123 C2124 1.398 . S
C2123 C2129 1.491 . S
C2124 H2115 0.950 . S
C2124 C2123 1.398 . S
C2124 C2125 1.391 . S
C2125 H2113 0.950 . S
C2125 C2121 1.393 . S
C2125 C2124 1.391 . S
C2126 H2116 0.950 . S
C2126 C2127 1.386 . S
C2126 C2128 1.391 . S
C2127 C2126 1.386 . S
C2127 C2131 1.393 . S
C2128 H2117 0.950 . S
C2128 C2126 1.391 . S
C2128 C2129 1.400 . S
C2129 C2123 1.491 . S
C2129 C2128 1.400 . S
C2129 C2130 1.398 . S
C2130 H2118 0.950 . S
C2130 C2129 1.398 . S
C2130 C2131 1.391 . S
C2131 H2119 0.950 . S
C2131 C2127 1.393 . S
C2131 C2130 1.391 . S
H2132 C2140 0.950 . S
H2133 C2145 0.950 . S
H2134 C2142 0.950 . S
H2135 C2144 0.950 . S
H2136 C2146 0.950 . S
H2137 C2148 0.950 . S
H2138 C2150 0.950 . S
H2139 C2151 0.950 . S
C2140 H2132 0.950 . S
C2140 C2141 1.386 . S
C2140 C2142 1.391 . S
C2141 C2140 1.386 . S
C2141 C2145 1.393 . S
C2142 H2134 0.950 . S
C2142 C2140 1.391 . S
C2142 C2143 1.400 . S
C2143 C2142 1.400 . S
C2143 C2144 1.398 . S
C2143 C2149 1.491 . S
C2144 H2135 0.950 . S
C2144 C2143 1.398 . S
C2144 C2145 1.391 . S
C2145 H2133 0.950 . S
C2145 C2141 1.393 . S
C2145 C2144 1.391 . S
C2146 H2136 0.950 . S
C2146 C2147 1.386 . S
C2146 C2148 1.391 . S
C2147 C2146 1.386 . S
C2147 C2151 1.393 . S
C2148 H2137 0.950 . S
C2148 C2146 1.391 . S
C2148 C2149 1.400 . S
C2149 C2143 1.491 . S
C2149 C2148 1.400 . S
C2149 C2150 1.398 . S
C2150 H2138 0.950 . S
C2150 C2149 1.398 . S
C2150 C2151 1.391 . S
C2151 H2139 0.950 . S
C2151 C2147 1.393 . S
C2151 C2150 1.391 . S
H2152 C2160 0.950 . S
H2153 C2165 0.950 . S
H2154 C2162 0.950 . S
H2155 C2164 0.950 . S
H2156 C2166 0.950 . S
H2157 C2168 0.950 . S
H2158 C2170 0.950 . S
H2159 C2171 0.950 . S
C2160 H2152 0.950 . S
C2160 C2161 1.386 . S
C2160 C2162 1.391 . S
C2161 C2160 1.386 . S
C2161 C2165 1.393 1_556 S
C2162 H2154 0.950 . S
C2162 C2160 1.391 . S
C2162 C2163 1.400 . S
C2163 C2162 1.400 . S
C2163 C2164 1.398 1_556 S
C2163 C2169 1.492 . S
C2164 H2155 0.950 . S
C2164 C2163 1.398 1_554 S
C2164 C2165 1.391 . S
C2165 H2153 0.950 . S
C2165 C2161 1.393 1_554 S
C2165 C2164 1.391 . S
C2166 H2156 0.950 . S
C2166 C2167 1.367 1_554 S
C2166 C2168 1.391 . S
C2167 C2166 1.367 1_556 S
C2167 C2171 1.412 . S
C2168 H2157 0.950 . S
C2168 C2166 1.391 . S
C2168 C2169 1.373 1_554 S
C2169 C2163 1.492 . S
C2169 C2168 1.373 1_556 S
C2169 C2170 1.425 . S
C2170 H2158 0.950 . S
C2170 C2169 1.425 . S
C2170 C2171 1.391 . S
C2171 H2159 0.950 . S
C2171 C2167 1.412 . S
C2171 C2170 1.391 . S
H2172 C2180 0.950 . S
H2173 C2185 0.950 1_455 S
H2174 C2182 0.950 . S
H2175 C2184 0.950 . S
H2176 C2186 0.950 . S
H2177 C2188 0.950 . S
H2178 C2190 0.950 . S
H2179 C2191 0.950 . S
C2180 H2172 0.950 . S
C2180 C2181 1.387 . S
C2180 C2182 1.391 . S
C2181 C2180 1.387 . S
C2181 C2185 1.392 1_556 S
C2182 H2174 0.950 . S
C2182 C2180 1.391 . S
C2182 C2183 1.404 . S
C2183 C2182 1.404 . S
C2183 C2184 1.393 1_556 S
C2183 C2189 1.492 . S
C2184 H2175 0.950 . S
C2184 C2183 1.393 1_554 S
C2184 C2185 1.391 . S
C2185 H2173 0.950 1_655 S
C2185 C2181 1.392 1_554 S
C2185 C2184 1.391 . S
C2186 H2176 0.950 . S
C2186 C2187 1.386 1_554 S
C2186 C2188 1.391 . S
C2187 C2186 1.386 1_556 S
C2187 C2191 1.393 . S
C2188 H2177 0.950 . S
C2188 C2186 1.391 . S
C2188 C2189 1.400 1_554 S
C2189 C2183 1.492 . S
C2189 C2188 1.400 1_556 S
C2189 C2190 1.398 . S
C2190 H2178 0.950 . S
C2190 C2189 1.398 . S
C2190 C2191 1.391 . S
C2191 H2179 0.950 . S
C2191 C2187 1.393 . S
C2191 C2190 1.391 . S
H2192 C2200 0.950 . S
H2193 C2205 0.950 . S
H2194 C2202 0.950 . S
H2195 C2204 0.950 . S
H2196 C2206 0.950 . S
H2197 C2208 0.950 . S
H2198 C2210 0.950 . S
H2199 C2211 0.950 . S
C2200 H2192 0.950 . S
C2200 C2201 1.386 . S
C2200 C2202 1.391 . S
C2201 C2200 1.386 . S
C2201 C2205 1.393 . S
C2202 H2194 0.950 . S
C2202 C2200 1.391 . S
C2202 C2203 1.400 . S
C2203 C2202 1.400 . S
C2203 C2204 1.398 . S
C2203 C2209 1.491 . S
C2204 H2195 0.950 . S
C2204 C2203 1.398 . S
C2204 C2205 1.391 . S
C2205 H2193 0.950 . S
C2205 C2201 1.393 . S
C2205 C2204 1.391 . S
C2206 H2196 0.950 . S
C2206 C2207 1.386 . S
C2206 C2208 1.391 . S
C2207 C2206 1.386 . S
C2207 C2211 1.393 . S
C2208 H2197 0.950 . S
C2208 C2206 1.391 . S
C2208 C2209 1.400 . S
C2209 C2203 1.491 . S
C2209 C2208 1.400 . S
C2209 C2210 1.398 . S
C2210 H2198 0.950 . S
C2210 C2209 1.398 . S
C2210 C2211 1.391 . S
C2211 H2199 0.950 . S
C2211 C2207 1.393 . S
C2211 C2210 1.391 . S
H2212 C2220 0.950 . S
H2213 C2225 0.950 1_655 S
H2214 C2222 0.950 . S
H2215 C2224 0.950 . S
H2216 C2226 0.950 . S
H2217 C2228 0.950 . S
H2218 C2230 0.950 . S
H2219 C2231 0.950 . S
C2220 H2212 0.950 . S
C2220 C2221 1.386 . S
C2220 C2222 1.391 . S
C2221 C2220 1.386 . S
C2221 C2225 1.393 . S
C2222 H2214 0.950 . S
C2222 C2220 1.391 . S
C2222 C2223 1.400 . S
C2223 C2222 1.400 . S
C2223 C2224 1.398 . S
C2223 C2229 1.491 . S
C2224 H2215 0.950 . S
C2224 C2223 1.398 . S
C2224 C2225 1.391 . S
C2225 H2213 0.950 1_455 S
C2225 C2221 1.393 . S
C2225 C2224 1.391 . S
C2226 H2216 0.950 . S
C2226 C2227 1.386 . S
C2226 C2228 1.391 . S
C2227 C2226 1.386 . S
C2227 C2231 1.393 . S
C2228 H2217 0.950 . S
C2228 C2226 1.391 . S
C2228 C2229 1.400 . S
C2229 C2223 1.491 . S
C2229 C2228 1.400 . S
C2229 C2230 1.398 . S
C2230 H2218 0.950 . S
C2230 C2229 1.398 . S
C2230 C2231 1.391 . S
C2231 H2219 0.950 . S
C2231 C2227 1.393 . S
C2231 C2230 1.391 . S
H2232 C2240 0.950 . S
H2233 C2245 0.950 . S
H2234 C2242 0.950 . S
H2235 C2244 0.950 . S
H2236 C2246 0.950 . S
H2237 C2248 0.950 . S
H2238 C2250 0.950 . S
H2239 C2251 0.950 . S
C2240 H2232 0.950 . S
C2240 C2241 1.386 1_556 S
C2240 C2242 1.391 . S
C2241 C2240 1.386 1_554 S
C2241 C2245 1.393 . S
C2242 H2234 0.950 . S
C2242 C2240 1.391 . S
C2242 C2243 1.400 1_556 S
C2243 C2242 1.400 1_554 S
C2243 C2244 1.398 . S
C2243 C2249 1.492 . S
C2244 H2235 0.950 . S
C2244 C2243 1.398 . S
C2244 C2245 1.391 . S
C2245 H2233 0.950 . S
C2245 C2241 1.393 . S
C2245 C2244 1.391 . S
C2246 H2236 0.950 . S
C2246 C2247 1.391 . S
C2246 C2248 1.391 . S
C2247 C2246 1.391 . S
C2247 C2251 1.388 1_554 S
C2248 H2237 0.950 . S
C2248 C2246 1.391 . S
C2248 C2249 1.415 . S
C2249 C2243 1.492 . S
C2249 C2248 1.415 . S
C2249 C2250 1.383 1_554 S
C2250 H2238 0.950 . S
C2250 C2249 1.383 1_556 S
C2250 C2251 1.391 . S
C2251 H2239 0.950 . S
C2251 C2247 1.388 1_556 S
C2251 C2250 1.391 . S
H2252 C2260 0.950 . S
H2253 C2265 0.950 . S
H2254 C2262 0.950 . S
H2255 C2264 0.950 . S
H2256 C2266 0.950 1_655 S
H2257 C2268 0.950 . S
H2258 C2270 0.949 1_556 S
H2259 C2271 0.950 1_556 S
C2260 H2252 0.950 . S
C2260 C2261 1.385 1_556 S
C2260 C2262 1.391 . S
C2261 C2260 1.385 1_554 S
C2261 C2265 1.393 . S
C2262 H2254 0.950 . S
C2262 C2260 1.391 . S
C2262 C2263 1.398 1_556 S
C2263 C2262 1.398 1_554 S
C2263 C2264 1.400 . S
C2263 C2269 1.492 . S
C2264 H2255 0.950 . S
C2264 C2263 1.400 . S
C2264 C2265 1.391 . S
C2265 H2253 0.950 . S
C2265 C2261 1.393 . S
C2265 C2264 1.391 . S
C2266 H2256 0.950 1_455 S
C2266 C2267 1.386 . S
C2266 C2268 1.391 . S
C2267 C2266 1.386 . S
C2267 C2271 1.393 . S
C2268 H2257 0.950 . S
C2268 C2266 1.391 . S
C2268 C2269 1.400 . S
C2269 C2263 1.492 . S
C2269 C2268 1.400 . S
C2269 C2270 1.399 . S
C2270 H2258 0.949 1_554 S
C2270 C2269 1.399 . S
C2270 C2271 1.391 . S
C2271 H2259 0.950 1_554 S
C2271 C2267 1.393 . S
C2271 C2270 1.391 . S
H2272 C2280 0.950 . S
H2273 C2285 0.950 . S
H2274 C2282 0.950 . S
H2275 C2284 0.950 . S
H2276 C2286 0.950 . S
H2277 C2288 0.950 . S
H2278 C2290 0.950 . S
H2279 C2291 0.950 . S
C2280 H2272 0.950 . S
C2280 C2281 1.386 . S
C2280 C2282 1.391 . S
C2281 C2280 1.386 . S
C2281 C2285 1.393 . S
C2282 H2274 0.950 . S
C2282 C2280 1.391 . S
C2282 C2283 1.400 . S
C2283 C2282 1.400 . S
C2283 C2284 1.398 . S
C2283 C2289 1.491 . S
C2284 H2275 0.950 . S
C2284 C2283 1.398 . S
C2284 C2285 1.391 . S
C2285 H2273 0.950 . S
C2285 C2281 1.393 . S
C2285 C2284 1.391 . S
C2286 H2276 0.950 . S
C2286 C2287 1.386 . S
C2286 C2288 1.391 . S
C2287 C2286 1.386 . S
C2287 C2291 1.393 . S
C2288 H2277 0.950 . S
C2288 C2286 1.391 . S
C2288 C2289 1.400 . S
C2289 C2283 1.491 . S
C2289 C2288 1.400 . S
C2289 C2290 1.398 . S
C2290 H2278 0.950 . S
C2290 C2289 1.398 . S
C2290 C2291 1.391 . S
C2291 H2279 0.950 . S
C2291 C2287 1.393 . S
C2291 C2290 1.391 . S
H2292 C2300 0.950 . S
H2293 C2305 0.950 . S
H2294 C2302 0.950 . S
H2295 C2304 0.950 . S
H2296 C2306 0.950 . S
H2297 C2308 0.950 . S
H2298 C2310 0.950 . S
H2299 C2311 0.950 . S
C2300 H2292 0.950 . S
C2300 C2301 1.386 . S
C2300 C2302 1.391 . S
C2301 C2300 1.386 . S
C2301 C2305 1.393 . S
C2302 H2294 0.950 . S
C2302 C2300 1.391 . S
C2302 C2303 1.400 . S
C2303 C2302 1.400 . S
C2303 C2304 1.398 . S
C2303 C2309 1.491 . S
C2304 H2295 0.950 . S
C2304 C2303 1.398 . S
C2304 C2305 1.391 . S
C2305 H2293 0.950 . S
C2305 C2301 1.393 . S
C2305 C2304 1.391 . S
C2306 H2296 0.950 . S
C2306 C2307 1.386 . S
C2306 C2308 1.391 . S
C2307 C2306 1.386 . S
C2307 C2311 1.393 . S
C2308 H2297 0.950 . S
C2308 C2306 1.391 . S
C2308 C2309 1.400 . S
C2309 C2303 1.491 . S
C2309 C2308 1.400 . S
C2309 C2310 1.398 . S
C2310 H2298 0.950 . S
C2310 C2309 1.398 . S
C2310 C2311 1.391 . S
C2311 H2299 0.950 . S
C2311 C2307 1.393 . S
C2311 C2310 1.391 . S
H2312 C2320 0.950 . S
H2313 C2325 0.950 . S
H2314 C2322 0.950 . S
H2315 C2324 0.950 . S
H2316 C2326 0.950 . S
H2317 C2328 0.950 . S
H2318 C2330 0.950 . S
H2319 C2331 0.950 . S
C2320 H2312 0.950 . S
C2320 C2321 1.386 . S
C2320 C2322 1.391 . S
C2321 C2320 1.386 . S
C2321 C2325 1.393 . S
C2322 H2314 0.950 . S
C2322 C2320 1.391 . S
C2322 C2323 1.400 . S
C2323 C2322 1.400 . S
C2323 C2324 1.398 . S
C2323 C2329 1.491 . S
C2324 H2315 0.950 . S
C2324 C2323 1.398 . S
C2324 C2325 1.391 . S
C2325 H2313 0.950 . S
C2325 C2321 1.393 . S
C2325 C2324 1.391 . S
C2326 H2316 0.950 . S
C2326 C2327 1.386 . S
C2326 C2328 1.391 . S
C2327 C2326 1.386 . S
C2327 C2331 1.393 . S
C2328 H2317 0.950 . S
C2328 C2326 1.391 . S
C2328 C2329 1.400 . S
C2329 C2323 1.491 . S
C2329 C2328 1.400 . S
C2329 C2330 1.398 . S
C2330 H2318 0.950 . S
C2330 C2329 1.398 . S
C2330 C2331 1.391 . S
C2331 H2319 0.950 . S
C2331 C2327 1.393 . S
C2331 C2330 1.391 . S
H2332 C2340 0.950 . S
H2333 C2345 0.950 . S
H2334 C2342 0.950 . S
H2335 C2344 0.950 . S
H2336 C2346 0.950 . S
H2337 C2348 0.950 . S
H2338 C2350 0.950 . S
H2339 C2351 0.950 . S
C2340 H2332 0.950 . S
C2340 C2341 1.386 . S
C2340 C2342 1.391 . S
C2341 C2340 1.386 . S
C2341 C2345 1.393 . S
C2342 H2334 0.950 . S
C2342 C2340 1.391 . S
C2342 C2343 1.400 . S
C2343 C2342 1.400 . S
C2343 C2344 1.398 . S
C2343 C2349 1.491 . S
C2344 H2335 0.950 . S
C2344 C2343 1.398 . S
C2344 C2345 1.391 . S
C2345 H2333 0.950 . S
C2345 C2341 1.393 . S
C2345 C2344 1.391 . S
C2346 H2336 0.950 . S
C2346 C2347 1.386 . S
C2346 C2348 1.391 . S
C2347 C2346 1.386 . S
C2347 C2351 1.393 . S
C2348 H2337 0.950 . S
C2348 C2346 1.391 . S
C2348 C2349 1.400 . S
C2349 C2343 1.491 . S
C2349 C2348 1.400 . S
C2349 C2350 1.398 . S
C2350 H2338 0.950 . S
C2350 C2349 1.398 . S
C2350 C2351 1.391 . S
C2351 H2339 0.950 . S
C2351 C2347 1.393 . S
C2351 C2350 1.391 . S
H2352 C2360 0.950 . S
H2353 C2365 0.950 . S
H2354 C2362 0.950 . S
H2355 C2364 0.950 . S
H2356 C2366 0.950 . S
H2357 C2368 0.950 . S
H2358 C2370 0.950 . S
H2359 C2371 0.950 . S
C2360 H2352 0.950 . S
C2360 C2361 1.386 . S
C2360 C2362 1.391 . S
C2361 C2360 1.386 . S
C2361 C2365 1.393 . S
C2362 H2354 0.950 . S
C2362 C2360 1.391 . S
C2362 C2363 1.400 . S
C2363 C2362 1.400 . S
C2363 C2364 1.398 . S
C2363 C2369 1.491 . S
C2364 H2355 0.950 . S
C2364 C2363 1.398 . S
C2364 C2365 1.391 . S
C2365 H2353 0.950 . S
C2365 C2361 1.393 . S
C2365 C2364 1.391 . S
C2366 H2356 0.950 . S
C2366 C2367 1.386 . S
C2366 C2368 1.391 . S
C2367 C2366 1.386 . S
C2367 C2371 1.393 . S
C2368 H2357 0.950 . S
C2368 C2366 1.391 . S
C2368 C2369 1.400 . S
C2369 C2363 1.491 . S
C2369 C2368 1.400 . S
C2369 C2370 1.398 . S
C2370 H2358 0.950 . S
C2370 C2369 1.398 . S
C2370 C2371 1.391 . S
C2371 H2359 0.950 . S
C2371 C2367 1.393 . S
C2371 C2370 1.391 . S
H2372 C2380 0.950 . S
H2373 C2385 0.950 . S
H2374 C2382 0.950 . S
H2375 C2384 0.950 . S
H2376 C2386 0.950 . S
H2377 C2388 0.950 . S
H2378 C2390 0.950 . S
H2379 C2391 0.950 . S
C2380 H2372 0.950 . S
C2380 C2381 1.386 . S
C2380 C2382 1.391 . S
C2381 C2380 1.386 . S
C2381 C2385 1.393 . S
C2382 H2374 0.950 . S
C2382 C2380 1.391 . S
C2382 C2383 1.400 . S
C2383 C2382 1.400 . S
C2383 C2384 1.398 . S
C2383 C2389 1.491 . S
C2384 H2375 0.950 . S
C2384 C2383 1.398 . S
C2384 C2385 1.391 . S
C2385 H2373 0.950 . S
C2385 C2381 1.393 . S
C2385 C2384 1.391 . S
C2386 H2376 0.950 . S
C2386 C2387 1.386 . S
C2386 C2388 1.391 . S
C2387 C2386 1.386 . S
C2387 C2391 1.393 . S
C2388 H2377 0.950 . S
C2388 C2386 1.391 . S
C2388 C2389 1.400 . S
C2389 C2383 1.491 . S
C2389 C2388 1.400 . S
C2389 C2390 1.398 . S
C2390 H2378 0.950 . S
C2390 C2389 1.398 . S
C2390 C2391 1.391 . S
C2391 H2379 0.950 . S
C2391 C2387 1.393 . S
C2391 C2390 1.391 . S
H2392 C2400 0.950 . S
H2393 C2405 0.950 . S
H2394 C2402 0.950 . S
H2395 C2404 0.950 . S
H2396 C2406 0.950 . S
H2397 C2408 0.950 . S
H2398 C2410 0.950 . S
H2399 C2411 0.950 . S
C2400 H2392 0.950 . S
C2400 C2401 1.386 . S
C2400 C2402 1.391 . S
C2401 C2400 1.386 . S
C2401 C2405 1.393 . S
C2402 H2394 0.950 . S
C2402 C2400 1.391 . S
C2402 C2403 1.400 . S
C2403 C2402 1.400 . S
C2403 C2404 1.398 . S
C2403 C2409 1.491 . S
C2404 H2395 0.950 . S
C2404 C2403 1.398 . S
C2404 C2405 1.391 . S
C2405 H2393 0.950 . S
C2405 C2401 1.393 . S
C2405 C2404 1.391 . S
C2406 H2396 0.950 . S
C2406 C2407 1.386 . S
C2406 C2408 1.391 . S
C2407 C2406 1.386 . S
C2407 C2411 1.393 . S
C2408 H2397 0.950 . S
C2408 C2406 1.391 . S
C2408 C2409 1.400 . S
C2409 C2403 1.491 . S
C2409 C2408 1.400 . S
C2409 C2410 1.398 . S
C2410 H2398 0.950 . S
C2410 C2409 1.398 . S
C2410 C2411 1.391 . S
C2411 H2399 0.950 . S
C2411 C2407 1.393 . S
C2411 C2410 1.391 . S
H2412 C2420 0.939 1_655 S
H2413 C2425 0.950 . S
H2414 C2422 0.950 . S
H2415 C2424 0.950 . S
H2416 C2426 0.950 . S
H2417 C2428 0.950 . S
H2418 C2430 0.950 . S
H2419 C2431 0.950 . S
C2420 H2412 0.939 1_455 S
C2420 C2421 1.386 . S
C2420 C2422 1.391 . S
C2421 C2420 1.386 . S
C2421 C2425 1.393 . S
C2422 H2414 0.950 . S
C2422 C2420 1.391 . S
C2422 C2423 1.400 . S
C2423 C2422 1.400 . S
C2423 C2424 1.398 . S
C2423 C2429 1.491 . S
C2424 H2415 0.950 . S
C2424 C2423 1.398 . S
C2424 C2425 1.391 . S
C2425 H2413 0.950 . S
C2425 C2421 1.393 . S
C2425 C2424 1.391 . S
C2426 H2416 0.950 . S
C2426 C2427 1.386 . S
C2426 C2428 1.391 . S
C2427 C2426 1.386 . S
C2427 C2431 1.393 . S
C2428 H2417 0.950 . S
C2428 C2426 1.391 . S
C2428 C2429 1.400 . S
C2429 C2423 1.491 . S
C2429 C2428 1.400 . S
C2429 C2430 1.398 . S
C2430 H2418 0.950 . S
C2430 C2429 1.398 . S
C2430 C2431 1.391 . S
C2431 H2419 0.950 . S
C2431 C2427 1.393 . S
C2431 C2430 1.391 . S
C1161 C4 1.214 . S
C1167 C112 1.211 . S
C1181 C76 1.211 . S
C1187 C40 1.193 . S
C1201 C148 1.176 . S
C1207 C256 1.187 . S
C1221 C220 1.180 . S
C1227 C184 1.209 . S
C1241 C292 1.176 . S
C1247 C400 1.200 . S
C1261 C364 1.193 . S
C1267 C328 1.169 . S
C1281 C436 1.169 . S
C1287 C544 1.193 . S
C1301 C472 1.191 . S
C1307 C508 1.205 . S
C1321 C688 1.193 . S
C1327 C580 1.169 . S
C1341 C616 1.186 . S
C1347 C652 1.166 . S
C1361 C724 1.203 . S
C1367 C832 1.198 . S
C1381 C796 1.168 . S
C1387 C760 1.192 . S
C1401 C868 1.207 . S
C1407 C976 1.189 . S
C1421 C940 1.210 . S
C1427 C904 1.192 . S
C1441 C1012 1.198 . S
C1447 C1120 1.221 . S
C1461 C1048 1.187 . S
C1467 C1084 1.216 . S
C1481 C446 1.477 . S
C1487 C14 1.477 . S
C1501 C50 1.457 . S
C1507 C770 1.457 . S
C1521 C86 1.445 1_556 S
C1527 C230 1.443 1_554 S
C1541 C1130 1.457 1_554 S
C1547 C122 1.455 1_556 S
C1561 C158 1.457 . S
C1567 C302 1.457 . S
C1581 C626 1.454 . S
C1587 C194 1.454 . S
C1601 C986 1.451 1_556 S
C1607 C266 1.448 1_554 S
C1621 C1058 1.465 . S
C1627 C338 1.465 . S
C1641 C518 1.450 . S
C1647 C374 1.450 . S
C1661 C842 1.456 . S
C1667 C410 1.456 . S
C1681 C482 1.470 . S
C1687 C914 1.470 . S
C1701 C698 1.462 . S
C1707 C554 1.462 . S
C1721 C1022 1.474 . S
C1727 C590 1.474 . S
C1741 C806 1.469 . S
C1747 C662 1.469 . S
C1761 C878 1.467 . S
C1767 C734 1.467 . S
C1781 C950 1.445 1_556 S
C1787 C1094 1.443 1_554 S
C1801 C363 1.404 . S
C1807 C3 1.400 . S
C1821 C39 1.420 . S
C1827 C399 1.412 . S
C1841 C291 1.400 . S
C1847 C75 1.387 . S
C1861 C327 1.407 . S
C1867 C111 1.408 . S
C1881 C147 1.405 . S
C1887 C507 1.414 . S
C1901 C183 1.425 . S
C1907 C543 1.422 . S
C1921 C435 1.389 . S
C1927 C219 1.388 . S
C1941 C255 1.415 . S
C1947 C471 1.406 . S
C1961 C939 1.403 . S
C1967 C579 1.405 . S
C1981 C975 1.393 . S
C1987 C615 1.394 . S
C2001 C651 1.424 . S
C2007 C867 1.417 . S
C2021 C687 1.416 . S
C2027 C903 1.407 . S
C2041 C723 1.397 . S
C2047 C1083 1.400 . S
C2061 C759 1.390 . S
C2067 C1119 1.391 . S
C2081 C1011 1.424 . S
C2087 C795 1.419 . S
C2101 C1047 1.425 . S
C2107 C831 1.422 . S
C2121 C2 1.357 . S
C2127 C902 1.355 . S
C2141 C866 1.361 . S
C2147 C38 1.360 1_655 S
C2161 C74 1.356 . S
C2167 C974 1.353 . S
C2181 C110 1.345 1_655 S
C2187 C938 1.350 . S
C2201 C146 1.353 . S
C2207 C1046 1.355 . S
C2221 C182 1.349 1_455 S
C2227 C1010 1.347 . S
C2241 C1118 1.353 . S
C2247 C218 1.349 . S
C2261 C1082 1.347 . S
C2267 C254 1.351 1_455 S
C2281 C614 1.361 . S
C2287 C290 1.361 . S
C2301 C578 1.360 . S
C2307 C326 1.358 1_655 S
C2321 C362 1.353 . S
C2327 C686 1.354 . S
C2341 C398 1.355 1_655 S
C2347 C650 1.354 . S
C2361 C758 1.356 . S
C2367 C434 1.358 . S
C2381 C470 1.360 1_455 S
C2387 C722 1.359 . S
C2401 C506 1.352 . S
C2407 C830 1.354 . S
C2421 C542 1.342 1_455 S
C2427 C794 1.344 . S
