# Generated by pormake.
# Topology mdf, (4)-cn, num edge types: 1
# Building blocks:
#     Node 0, Type 0, BuildingBlock: CEKHIL_clean_sbu_0, # of connection points: 4
#     Node 1, Type 0, BuildingBlock: CEKHIL_clean_sbu_0, # of connection points: 4
#     Node 2, Type 0, BuildingBlock: CEKHIL_clean_sbu_0, # of connection points: 4
#     Node 3, Type 0, BuildingBlock: CEKHIL_clean_sbu_0, # of connection points: 4
#     Node 4, Type 0, BuildingBlock: CEKHIL_clean_sbu_0, # of connection points: 4
#     Node 5, Type 0, BuildingBlock: CEKHIL_clean_sbu_0, # of connection points: 4
#     Node 6, Type 0, BuildingBlock: CEKHIL_clean_sbu_0, # of connection points: 4
#     Node 7, Type 0, BuildingBlock: CEKHIL_clean_sbu_0, # of connection points: 4
#     Edge 8, Type (0, 0), BuildingBlock: MIFKUJ_clean_linker_0, # of connection points: 2
#     Edge 9, Type (0, 0), BuildingBlock: MIFKUJ_clean_linker_0, # of connection points: 2
#     Edge 10, Type (0, 0), BuildingBlock: MIFKUJ_clean_linker_0, # of connection points: 2
#     Edge 11, Type (0, 0), BuildingBlock: MIFKUJ_clean_linker_0, # of connection points: 2
#     Edge 12, Type (0, 0), BuildingBlock: MIFKUJ_clean_linker_0, # of connection points: 2
#     Edge 13, Type (0, 0), BuildingBlock: MIFKUJ_clean_linker_0, # of connection points: 2
#     Edge 14, Type (0, 0), BuildingBlock: MIFKUJ_clean_linker_0, # of connection points: 2
#     Edge 15, Type (0, 0), BuildingBlock: MIFKUJ_clean_linker_0, # of connection points: 2
#     Edge 16, Type (0, 0), BuildingBlock: MIFKUJ_clean_linker_0, # of connection points: 2
#     Edge 17, Type (0, 0), BuildingBlock: MIFKUJ_clean_linker_0, # of connection points: 2
#     Edge 18, Type (0, 0), BuildingBlock: MIFKUJ_clean_linker_0, # of connection points: 2
#     Edge 19, Type (0, 0), BuildingBlock: MIFKUJ_clean_linker_0, # of connection points: 2
#     Edge 20, Type (0, 0), BuildingBlock: MIFKUJ_clean_linker_0, # of connection points: 2
#     Edge 21, Type (0, 0), BuildingBlock: MIFKUJ_clean_linker_0, # of connection points: 2
#     Edge 22, Type (0, 0), BuildingBlock: MIFKUJ_clean_linker_0, # of connection points: 2
#     Edge 23, Type (0, 0), BuildingBlock: MIFKUJ_clean_linker_0, # of connection points: 2
# Relax obj value: 0.019
# Max RMSD: 0.044
# Mean RMSD: 0.044
data_MOF--net-mdf--node1-CEKHIL_clean_sbu_0--edge1-MIFKUJ_clean_linker_0
_symmetry_space_group_name_H-M    P1
_symmetry_Int_Tables_number       1
_symmetry_cell_setting            triclinic
loop_
_symmetry_equiv_pos_as_xyz
'x, y, z'
_cell_length_a     49.420581
_cell_length_b     49.387974
_cell_length_c     14.739922
_cell_angle_alpha  89.959878
_cell_angle_beta   90.019168
_cell_angle_gamma 91.650715
loop_
_atom_site_label
_atom_site_type_symbol
_atom_site_fract_x
_atom_site_fract_y
_atom_site_fract_z
_atom_type_partial_charge
Co0 Co 0.24979 0.53272 0.38458 0.0
O1 O 0.22339 0.56045 0.39478 0.0
O2 O 0.23613 0.53463 0.50859 0.0
C3 C 0.27982 0.55832 0.30406 0.0
O4 O 0.27774 0.50288 0.39917 0.0
Co5 Co 0.26553 0.51137 0.19299 0.0
O6 O 0.29291 0.49106 0.26072 0.0
C7 C 0.21337 0.49424 0.27506 0.0
C8 C 0.22128 0.55427 0.47993 0.0
C9 C 0.29338 0.48926 0.34697 0.0
O10 O 0.22033 0.50526 0.35112 0.0
O11 O 0.22755 0.49658 0.20268 0.0
O12 O 0.27913 0.56026 0.392 0.0
O13 O 0.2613 0.54283 0.26856 0.0
Co14 Co 0.47221 0.7501 0.62559 0.0
O15 O 0.44532 0.77744 0.61926 0.0
O16 O 0.46851 0.76328 0.5013 0.0
C17 C 0.44695 0.72142 0.71208 0.0
O18 O 0.50081 0.7209 0.60785 0.0
Co19 Co 0.49595 0.73431 0.81388 0.0
O20 O 0.5095 0.7031 0.74516 0.0
C21 C 0.51444 0.78513 0.72465 0.0
C22 C 0.44991 0.7789 0.53293 0.0
C23 C 0.51179 0.70293 0.65901 0.0
O24 O 0.5011 0.77877 0.65224 0.0
O25 O 0.51345 0.77102 0.79755 0.0
O26 O 0.44363 0.72174 0.62459 0.0
O27 O 0.46362 0.73956 0.74384 0.0
Co28 Co 0.25442 0.97027 0.8885 0.0
O29 O 0.28201 0.94388 0.90261 0.0
O30 O 0.26527 0.96756 0.01557 0.0
C31 C 0.22695 0.94462 0.79924 0.0
O32 O 0.22503 0.99891 0.8967 0.0
Co33 Co 0.24373 0.99223 0.6934 0.0
O34 O 0.21364 0.0108 0.75409 0.0
C35 C 0.2937 0.00795 0.78978 0.0
C36 C 0.28209 0.94939 0.98844 0.0
C37 C 0.21043 0.01217 0.83987 0.0
O38 O 0.2834 0.99905 0.86468 0.0
O39 O 0.28241 0.00426 0.71244 0.0
O40 O 0.226 0.94173 0.88686 0.0
O41 O 0.24595 0.96065 0.76955 0.0
Co42 Co 0.03371 0.75488 0.12169 0.0
O43 O 0.05999 0.72694 0.1116 0.0
O44 O 0.03571 0.74193 0.997 0.0
C45 C 0.05982 0.78386 0.20396 0.0
O46 O 0.00511 0.78417 0.10788 0.0
Co47 Co 0.01233 0.77014 0.31361 0.0
O48 O 0.9958 0.80033 0.24701 0.0
C49 C 0.99499 0.71845 0.22933 0.0
C50 C 0.05403 0.72558 0.02612 0.0
C51 C 0.99336 0.80111 0.1609 0.0
O52 O 0.00512 0.72636 0.1529 0.0
O53 O 0.99797 0.73193 0.30297 0.0
O54 O 0.06235 0.7831 0.11622 0.0
O55 O 0.04378 0.7656 0.23845 0.0
Co56 Co 0.75324 0.03344 0.89 0.0
O57 O 0.72554 0.0597 0.90357 0.0
O58 O 0.74131 0.03506 0.01607 0.0
C59 C 0.78135 0.05997 0.80585 0.0
O60 O 0.78253 0.00475 0.89919 0.0
Co61 Co 0.7664 0.01304 0.69515 0.0
O62 O 0.79679 0.99545 0.75764 0.0
C63 C 0.71531 0.99625 0.7837 0.0
C64 C 0.72476 0.05348 0.98887 0.0
C65 C 0.7986 0.99286 0.84356 0.0
O66 O 0.72448 0.00494 0.86047 0.0
O67 O 0.72773 1.00024 0.70843 0.0
O68 O 0.78165 0.06199 0.89378 0.0
O69 O 0.76274 0.04408 0.77282 0.0
Co70 Co 0.97118 0.24795 0.10891 0.0
O71 O 0.94552 0.27661 0.10619 0.0
O72 O 0.96659 0.26126 0.9854 0.0
C73 C 0.94598 0.21987 0.19752 0.0
O74 O 0.99848 0.21772 0.08681 0.0
Co75 Co 0.99665 0.23053 0.29286 0.0
O76 O 0.00707 0.19852 0.22202 0.0
C77 C 0.01583 0.28102 0.20342 0.0
C78 C 0.94935 0.27796 0.01936 0.0
C79 C 0.00873 0.19878 0.13575 0.0
O80 O 1.0012 0.27564 0.13303 0.0
O81 O 0.01579 0.2664 0.27514 0.0
O82 O 0.94159 0.22072 0.11063 0.0
O83 O 0.96361 0.23732 0.228 0.0
Co84 Co 0.75282 0.47181 0.38123 0.0
O85 O 0.77888 0.44392 0.39404 0.0
O86 O 0.76487 0.46918 0.5072 0.0
C87 C 0.72381 0.44668 0.2958 0.0
O88 O 0.72489 0.50183 0.39188 0.0
Co89 Co 0.74005 0.4936 0.18758 0.0
O90 O 0.71058 0.51219 0.25116 0.0
C91 C 0.79187 0.50834 0.2761 0.0
C92 C 0.78 0.44961 0.47968 0.0
C93 C 0.70915 0.51455 0.33719 0.0
O94 O 0.7829 0.49905 0.35245 0.0
O95 O 0.7789 0.50553 0.20133 0.0
O96 O 0.72318 0.44452 0.3837 0.0
O97 O 0.74293 0.46208 0.26362 0.0
Co98 Co 0.53342 0.25553 0.61295 0.0
O99 O 0.56043 0.22821 0.61106 0.0
O100 O 0.53701 0.24067 0.49116 0.0
C101 C 0.55855 0.28554 0.69444 0.0
O102 O 0.50472 0.2842 0.58976 0.0
Co103 Co 0.50939 0.2748 0.79688 0.0
O104 O 0.49751 0.30559 0.72215 0.0
C105 C 0.49129 0.22221 0.7183 0.0
C106 C 0.55576 0.22562 0.52499 0.0
C107 C 0.49477 0.30374 0.6364 0.0
O108 O 0.5046 0.22727 0.64474 0.0
O109 O 0.49219 0.23771 0.78794 0.0
O110 O 0.56201 0.28385 0.60722 0.0
O111 O 0.54183 0.26796 0.72919 0.0
H112 H 0.45119 0.718 0.8955 0.0
H113 H 0.42476 0.68892 0.99797 0.0
H114 H 0.38308 0.65259 0.76928 0.0
H115 H 0.40928 0.6821 0.66581 0.0
H116 H 0.34861 0.66848 0.90251 0.0
H117 H 0.4306 0.61674 0.88798 0.0
H118 H 0.48015 0.61254 0.89797 0.0
H119 H 0.47881 0.64033 0.17385 0.0
H120 H 0.42924 0.64455 0.16563 0.0
H121 H 0.28205 0.55904 0.12001 0.0
H122 H 0.31228 0.58624 0.02363 0.0
H123 H 0.35199 0.61962 0.26087 0.0
H124 H 0.32166 0.59221 0.35849 0.0
H125 H 0.3882 0.6067 0.12912 0.0
H126 H 0.30663 0.65369 0.15289 0.0
H127 H 0.25798 0.66287 0.14601 0.0
H128 H 0.25862 0.65165 0.85735 0.0
H129 H 0.30686 0.6406 0.86294 0.0
C130 C 0.43658 0.70365 0.86678 0.0
C131 C 0.43226 0.70231 0.77259 0.0
C132 C 0.42158 0.68696 0.92552 0.0
C133 C 0.40217 0.66841 0.89118 0.0
C134 C 0.39805 0.66675 0.79702 0.0
C135 C 0.41304 0.68352 0.73806 0.0
C136 C 0.38524 0.65176 0.95394 0.0
C137 C 0.35711 0.6545 0.95084 0.0
C138 C 0.39664 0.63467 0.01986 0.0
C139 C 0.42626 0.63105 0.02606 0.0
C140 C 0.44089 0.6219 0.95081 0.0
C141 C 0.46896 0.61947 0.95622 0.0
C142 C 0.48261 0.62609 0.03659 0.0
C143 C 0.4682 0.63502 0.11187 0.0
C144 C 0.44011 0.63734 0.10698 0.0
C145 C 0.29732 0.57202 0.15191 0.0
C146 C 0.29943 0.57361 0.24689 0.0
C147 C 0.31451 0.58763 0.09663 0.0
C148 C 0.33411 0.60519 0.13514 0.0
C149 C 0.3369 0.60623 0.22994 0.0
C150 C 0.31956 0.59063 0.28553 0.0
C151 C 0.35131 0.62272 0.07585 0.0
C152 C 0.37952 0.62039 0.08019 0.0
C153 C 0.33993 0.6405 0.01162 0.0
C154 C 0.31044 0.64582 0.00864 0.0
C155 C 0.29631 0.65246 0.08815 0.0
C156 C 0.26874 0.65797 0.08449 0.0
C157 C 0.25513 0.65753 0.00142 0.0
C158 C 0.26908 0.65159 0.92186 0.0
C159 C 0.29651 0.6455 0.92532 0.0
H160 H 0.23383 0.66197 0.99858 0.0
H161 H 0.50436 0.62435 0.04045 0.0
H162 H 0.46145 0.79834 0.36114 0.0
H163 H 0.43419 0.82933 0.27009 0.0
H164 H 0.37453 0.83084 0.48319 0.0
H165 H 0.40167 0.8006 0.57449 0.0
H166 H 0.35227 0.82213 0.30824 0.0
H167 H 0.41402 0.88285 0.46393 0.0
H168 H 0.45884 0.90076 0.51189 0.0
H169 H 0.48057 0.91552 0.23382 0.0
H170 H 0.43599 0.89726 0.18406 0.0
H171 H 0.27458 0.93565 0.16783 0.0
H172 H 0.30415 0.90778 0.26213 0.0
H173 H 0.36133 0.90386 0.04206 0.0
H174 H 0.33162 0.93077 0.94717 0.0
H175 H 0.38534 0.91423 0.21986 0.0
H176 H 0.32525 0.85298 0.06285 0.0
H177 H 0.28172 0.83303 0.01058 0.0
H178 H 0.25796 0.81782 0.28658 0.0
H179 H 0.30117 0.83825 0.34062 0.0
C180 C 0.44252 0.8053 0.38833 0.0
C181 C 0.43377 0.79707 0.47509 0.0
C182 C 0.42701 0.82306 0.3365 0.0
C183 C 0.40233 0.83247 0.37003 0.0
C184 C 0.39346 0.82387 0.45592 0.0
C185 C 0.40909 0.80663 0.50814 0.0
C186 C 0.3855 0.85117 0.31613 0.0
C187 C 0.35938 0.84239 0.28996 0.0
C188 C 0.39497 0.87741 0.2906 0.0
C189 C 0.42179 0.88835 0.3202 0.0
C190 C 0.42846 0.88963 0.41292 0.0
C191 C 0.4538 0.89991 0.44046 0.0
C192 C 0.47258 0.90919 0.37592 0.0
C193 C 0.46603 0.90827 0.28372 0.0
C194 C 0.44072 0.89796 0.25581 0.0
C195 C 0.2936 0.92908 0.1402 0.0
C196 C 0.30076 0.93529 0.05015 0.0
C197 C 0.31042 0.91311 0.19385 0.0
C198 C 0.33493 0.90368 0.15894 0.0
C199 C 0.34258 0.91092 0.07042 0.0
C200 C 0.32552 0.92623 0.01624 0.0
C201 C 0.35204 0.88522 0.21267 0.0
C202 C 0.3782 0.89401 0.23858 0.0
C203 C 0.34269 0.85891 0.23767 0.0
C204 C 0.31627 0.84753 0.20583 0.0
C205 C 0.31056 0.84581 0.11249 0.0
C206 C 0.28599 0.83433 0.0825 0.0
C207 C 0.26705 0.82423 0.14517 0.0
C208 C 0.2726 0.82573 0.23806 0.0
C209 C 0.29713 0.83729 0.26843 0.0
H210 H 0.24818 0.8151 0.12157 0.0
H211 H 0.49218 0.91716 0.39738 0.0
H212 H 0.09845 0.8215 0.15217 0.0
H213 H 0.12451 0.85255 0.2507 0.0
H214 H 0.07983 0.82267 0.48319 0.0
H215 H 0.05371 0.79172 0.38545 0.0
H216 H 0.08854 0.87889 0.48667 0.0
H217 H 0.14066 0.79781 0.44978 0.0
H218 H 0.16183 0.76244 0.3578 0.0
H219 H 0.20935 0.82336 0.21743 0.0
H220 H 0.18872 0.85899 0.30921 0.0
H221 H 0.18176 0.91394 0.8426 0.0
H222 H 0.15093 0.89003 0.73733 0.0
H223 H 0.1982 0.92011 0.5108 0.0
H224 H 0.22893 0.94402 0.61509 0.0
H225 H 0.18762 0.86544 0.50074 0.0
H226 H 0.13899 0.94634 0.55081 0.0
H227 H 0.11742 0.98165 0.64151 0.0
H228 H 0.06212 0.92206 0.75451 0.0
H229 H 0.08367 0.88628 0.66554 0.0
C230 C 0.09402 0.82176 0.22412 0.0
C231 C 0.07423 0.80405 0.26127 0.0
C232 C 0.10891 0.83946 0.28026 0.0
C233 C 0.10421 0.83969 0.37424 0.0
C234 C 0.08372 0.8228 0.41084 0.0
C235 C 0.06893 0.80504 0.35491 0.0
C236 C 0.12179 0.8562 0.43526 0.0
C237 C 0.11017 0.87584 0.49054 0.0
C238 C 0.15001 0.85245 0.43903 0.0
C239 C 0.16308 0.83101 0.38589 0.0
C240 C 0.15568 0.80361 0.39932 0.0
C241 C 0.16764 0.78351 0.34742 0.0
C242 C 0.18702 0.79062 0.28195 0.0
C243 C 0.19454 0.81782 0.26857 0.0
C244 C 0.1828 0.83797 0.32072 0.0
C245 C 0.18545 0.91553 0.77034 0.0
C246 C 0.20773 0.93078 0.73699 0.0
C247 C 0.16781 0.90198 0.71037 0.0
C248 C 0.17227 0.90344 0.61636 0.0
C249 C 0.19443 0.91875 0.5831 0.0
C250 C 0.21191 0.93243 0.64281 0.0
C251 C 0.15443 0.88822 0.55256 0.0
C252 C 0.16602 0.86867 0.49686 0.0
C253 C 0.1262 0.89212 0.5487 0.0
C254 C 0.11314 0.91357 0.60222 0.0
C255 C 0.1224 0.94071 0.59564 0.0
C256 C 0.11014 0.96083 0.64662 0.0
C257 C 0.08846 0.95409 0.70393 0.0
C258 C 0.07895 0.92723 0.7102 0.0
C259 C 0.09117 0.90703 0.65946 0.0
H260 H 0.07899 0.9697 0.74331 0.0
H261 H 0.19619 0.77507 0.24152 0.0
H262 H 0.07051 0.73275 0.84994 0.0
H263 H 0.09768 0.70214 0.75901 0.0
H264 H 0.09465 0.64345 0.97648 0.0
H265 H 0.06943 0.67496 0.06936 0.0
H266 H 0.14126 0.64327 0.91902 0.0
H267 H 0.05666 0.63873 0.75834 0.0
H268 H 0.01725 0.65632 0.67679 0.0
H269 H 0.06996 0.69214 0.47563 0.0
H270 H 0.1097 0.67501 0.55651 0.0
H271 H 0.19862 0.53887 0.64376 0.0
H272 H 0.16757 0.56488 0.73786 0.0
H273 H 0.17333 0.63101 0.54654 0.0
H274 H 0.20294 0.60471 0.45107 0.0
H275 H 0.12372 0.62456 0.5938 0.0
H276 H 0.20883 0.62475 0.76023 0.0
H277 H 0.24562 0.60212 0.84087 0.0
H278 H 0.18896 0.57104 0.03825 0.0
H279 H 0.15155 0.59207 0.9559 0.0
C280 C 0.07546 0.71318 0.87763 0.0
C281 C 0.0678 0.70617 0.96646 0.0
C282 C 0.0909 0.69554 0.82545 0.0
C283 C 0.09804 0.67002 0.85966 0.0
C284 C 0.08969 0.66291 0.94797 0.0
C285 C 0.07509 0.68088 0.00101 0.0
C286 C 0.11501 0.65114 0.80561 0.0
C287 C 0.13708 0.6389 0.84821 0.0
C288 C 0.11006 0.64547 0.71267 0.0
C289 C 0.08616 0.65577 0.66395 0.0
C290 C 0.05985 0.6505 0.69703 0.0
C291 C 0.03745 0.66037 0.65086 0.0
C292 C 0.0411 0.67538 0.57118 0.0
C293 C 0.06716 0.68052 0.53739 0.0
C294 C 0.08962 0.67071 0.5833 0.0
C295 C 0.19322 0.55897 0.62216 0.0
C296 C 0.20325 0.56974 0.54008 0.0
C297 C 0.17554 0.5739 0.67607 0.0
C298 C 0.16825 0.6002 0.65024 0.0
C299 C 0.17844 0.61083 0.56828 0.0
C300 C 0.19551 0.59576 0.51373 0.0
C301 C 0.15002 0.61696 0.707 0.0
C302 C 0.12774 0.62883 0.66481 0.0
C303 C 0.15452 0.62185 0.8007 0.0
C304 C 0.17728 0.60978 0.85113 0.0
C305 C 0.20414 0.61288 0.8203 0.0
C306 C 0.22511 0.60029 0.86626 0.0
C307 C 0.21967 0.58534 0.94496 0.0
C308 C 0.19317 0.58267 0.97734 0.0
C309 C 0.17204 0.59476 0.93066 0.0
H310 H 0.23599 0.5758 0.98078 0.0
H311 H 0.02374 0.683 0.53553 0.0
H312 H 0.82877 0.08633 0.85364 0.0
H313 H 0.8604 0.11089 0.75274 0.0
H314 H 0.80853 0.09191 0.52433 0.0
H315 H 0.77767 0.06655 0.62379 0.0
H316 H 0.85826 0.08623 0.47621 0.0
H317 H 0.81015 0.15551 0.63682 0.0
H318 H 0.79434 0.17965 0.77243 0.0
H319 H 0.87665 0.196 0.85365 0.0
H320 H 0.89294 0.17165 0.71905 0.0
H321 H 0.9018 0.18722 0.15976 0.0
H322 H 0.87675 0.15759 0.26548 0.0
H323 H 0.9338 0.17868 0.47753 0.0
H324 H 0.95829 0.20891 0.37328 0.0
H325 H 0.88456 0.18206 0.53875 0.0
H326 H 0.93248 0.11545 0.36999 0.0
H327 H 0.94767 0.09217 0.23191 0.0
H328 H 0.86519 0.07141 0.16352 0.0
H329 H 0.84947 0.09489 0.30058 0.0
C330 C 0.82424 0.0874 0.78185 0.0
C331 C 0.80076 0.07467 0.74652 0.0
C332 C 0.84223 0.1015 0.72431 0.0
C333 C 0.83665 0.10359 0.63102 0.0
C334 C 0.81333 0.09056 0.5959 0.0
C335 C 0.79564 0.07615 0.65294 0.0
C336 C 0.85473 0.11956 0.56941 0.0
C337 C 0.86383 0.10726 0.48953 0.0
C338 C 0.86255 0.14681 0.58769 0.0
C339 C 0.85275 0.16151 0.66843 0.0
C340 C 0.82487 0.16409 0.68395 0.0
C341 C 0.81583 0.17784 0.76057 0.0
C342 C 0.83448 0.18928 0.82175 0.0
C343 C 0.86222 0.18708 0.8063 0.0
C344 C 0.87137 0.17333 0.72985 0.0
C345 C 0.9091 0.18531 0.2287 0.0
C346 C 0.93194 0.20038 0.25836 0.0
C347 C 0.89486 0.16829 0.28896 0.0
C348 C 0.90356 0.16571 0.37931 0.0
C349 C 0.9267 0.18038 0.40827 0.0
C350 C 0.94071 0.19759 0.34848 0.0
C351 C 0.88784 0.14882 0.44506 0.0
C352 C 0.87919 0.16095 0.52573 0.0
C353 C 0.88035 0.12147 0.42726 0.0
C354 C 0.88979 0.10711 0.34525 0.0
C355 C 0.91757 0.10606 0.32523 0.0
C356 C 0.92627 0.09281 0.24717 0.0
C357 C 0.9074 0.08036 0.1889 0.0
C358 C 0.87979 0.08107 0.2087 0.0
C359 C 0.87097 0.09432 0.28661 0.0
H360 H 0.91418 0.07012 0.12848 0.0
H361 H 0.82744 0.19992 0.88102 0.0
H362 H 0.93873 0.2761 0.83631 0.0
H363 H 0.91074 0.30685 0.74856 0.0
H364 H 0.89849 0.35505 0.98847 0.0
H365 H 0.92524 0.32368 0.07673 0.0
H366 H 0.85333 0.35051 0.90842 0.0
H367 H 0.94266 0.37465 0.80171 0.0
H368 H 0.98764 0.36689 0.7356 0.0
H369 H 0.95028 0.33597 0.49235 0.0
H370 H 0.90508 0.34323 0.5574 0.0
H371 H 0.79314 0.45925 0.65948 0.0
H372 H 0.82308 0.43266 0.75612 0.0
H373 H 0.83566 0.37741 0.53448 0.0
H374 H 0.80672 0.40405 0.438 0.0
H375 H 0.88179 0.38849 0.61095 0.0
H376 H 0.79226 0.36296 0.72268 0.0
H377 H 0.74757 0.37187 0.78913 0.0
H378 H 0.78596 0.40702 0.02421 0.0
H379 H 0.8309 0.39859 0.95867 0.0
C380 C 0.93022 0.29339 0.86996 0.0
C381 C 0.93424 0.29747 0.96338 0.0
C382 C 0.91428 0.31109 0.8197 0.0
C383 C 0.90264 0.33368 0.86124 0.0
C384 C 0.90705 0.33786 0.95442 0.0
C385 C 0.92249 0.31992 0.00487 0.0
C386 C 0.8853 0.35256 0.80882 0.0
C387 C 0.85981 0.3591 0.84398 0.0
C388 C 0.89332 0.36365 0.72393 0.0
C389 C 0.92049 0.35927 0.68477 0.0
C390 C 0.94404 0.36603 0.73437 0.0
C391 C 0.96957 0.36175 0.69704 0.0
C392 C 0.9718 0.3509 0.60993 0.0
C393 C 0.94852 0.34435 0.55985 0.0
C394 C 0.92295 0.34857 0.59687 0.0
C395 C 0.8023 0.44141 0.63167 0.0
C396 C 0.79753 0.43383 0.54097 0.0
C397 C 0.81933 0.42613 0.68702 0.0
C398 C 0.83156 0.40279 0.65302 0.0
C399 C 0.82666 0.39531 0.56255 0.0
C400 C 0.80997 0.41061 0.50735 0.0
C401 C 0.84976 0.38605 0.70992 0.0
C402 C 0.87543 0.37998 0.67566 0.0
C403 C 0.84195 0.37553 0.79572 0.0
C404 C 0.81493 0.3804 0.83535 0.0
C405 C 0.79116 0.37275 0.78828 0.0
C406 C 0.76579 0.37768 0.82583 0.0
C407 C 0.76393 0.39007 0.91072 0.0
C408 C 0.78744 0.39746 0.9584 0.0
C409 C 0.81286 0.39259 0.92113 0.0
H410 H 0.74427 0.39389 0.93965 0.0
H411 H 0.99155 0.34762 0.58114 0.0
H412 H 0.7285 0.44027 0.11399 0.0
H413 H 0.69817 0.41512 0.01248 0.0
H414 H 0.64531 0.39541 0.23758 0.0
H415 H 0.67635 0.41993 0.34076 0.0
H416 H 0.65278 0.35229 0.13682 0.0
H417 H 0.6294 0.44412 0.07403 0.0
H418 H 0.63845 0.49207 0.03455 0.0
H419 H 0.67241 0.46832 0.7796 0.0
H420 H 0.66392 0.42021 0.8181 0.0
H421 H 0.5471 0.29844 0.86891 0.0
H422 H 0.57294 0.3285 0.9696 0.0
H423 H 0.62888 0.34757 0.75249 0.0
H424 H 0.60248 0.31791 0.64997 0.0
H425 H 0.61841 0.3918 0.85087 0.0
H426 H 0.64374 0.30045 0.91518 0.0
H427 H 0.63585 0.2523 0.95428 0.0
H428 H 0.59912 0.27505 0.20586 0.0
H429 H 0.60649 0.32337 0.16774 0.0
C430 C 0.71033 0.43075 0.14194 0.0
C431 C 0.70467 0.43214 0.23522 0.0
C432 C 0.69293 0.41649 0.08365 0.0
C433 C 0.66919 0.40382 0.11704 0.0
C434 C 0.66347 0.40517 0.21033 0.0
C435 C 0.68113 0.41918 0.26911 0.0
C436 C 0.65099 0.38832 0.05481 0.0
C437 C 0.64485 0.36109 0.07516 0.0
C438 C 0.64131 0.39959 0.97296 0.0
C439 C 0.64617 0.42854 0.94926 0.0
C440 C 0.63894 0.44912 0.00978 0.0
C441 C 0.64395 0.47633 0.98754 0.0
C442 C 0.65603 0.48323 0.90468 0.0
C443 C 0.66306 0.46294 0.84377 0.0
C444 C 0.65812 0.4357 0.86571 0.0
C445 C 0.56475 0.30921 0.84218 0.0
C446 C 0.57295 0.30567 0.7518 0.0
C447 C 0.57957 0.32629 0.90001 0.0
C448 C 0.60317 0.33977 0.86912 0.0
C449 C 0.6108 0.33719 0.77778 0.0
C450 C 0.59575 0.32027 0.71937 0.0
C451 C 0.62022 0.35585 0.93309 0.0
C452 C 0.6262 0.38312 0.91292 0.0
C453 C 0.62983 0.34461 0.01505 0.0
C454 C 0.62545 0.31554 0.03819 0.0
C455 C 0.6338 0.29519 0.97854 0.0
C456 C 0.62945 0.26787 0.00058 0.0
C457 C 0.61693 0.26062 0.0824 0.0
C458 C 0.60879 0.28069 0.14246 0.0
C459 C 0.61307 0.30805 0.12071 0.0
H460 H 0.6136 0.23945 0.09935 0.0
H461 H 0.65991 0.50431 0.88761 0.0
H462 H 0.67468 0.07043 0.94719 0.0
H463 H 0.64447 0.09694 0.04046 0.0
H464 H 0.70236 0.09596 0.25973 0.0
H465 H 0.73198 0.06777 0.16763 0.0
H466 H 0.65491 0.09288 0.32886 0.0
H467 H 0.69446 0.15217 0.1025 0.0
H468 H 0.70617 0.16708 0.94727 0.0
H469 H 0.62181 0.16888 0.87841 0.0
H470 H 0.6096 0.15365 0.03289 0.0
H471 H 0.60394 0.20406 0.56938 0.0
H472 H 0.63138 0.17378 0.48021 0.0
H473 H 0.57168 0.17377 0.26647 0.0
H474 H 0.5446 0.20539 0.35449 0.0
H475 H 0.61936 0.17688 0.19481 0.0
H476 H 0.58019 0.11843 0.42522 0.0
H477 H 0.56933 0.10463 0.58223 0.0
H478 H 0.65406 0.10254 0.64551 0.0
H479 H 0.66543 0.11662 0.48916 0.0
C480 C 0.68083 0.07563 0.01572 0.0
C481 C 0.70576 0.06722 0.05003 0.0
C482 C 0.66364 0.09105 0.06882 0.0
C483 C 0.6714 0.09939 0.15642 0.0
C484 C 0.69591 0.09007 0.19216 0.0
C485 C 0.71284 0.07393 0.13965 0.0
C486 C 0.65418 0.11811 0.20971 0.0
C487 C 0.64744 0.1114 0.29973 0.0
C488 C 0.64379 0.14212 0.1717 0.0
C489 C 0.65113 0.15154 0.07903 0.0
C490 C 0.67842 0.15561 0.0541 0.0
C491 C 0.68514 0.16413 0.96626 0.0
C492 C 0.66475 0.16886 0.90297 0.0
C493 C 0.63758 0.16518 0.92747 0.0
C494 C 0.63075 0.15663 0.01517 0.0
C495 C 0.59654 0.19757 0.50349 0.0
C496 C 0.57194 0.20697 0.46932 0.0
C497 C 0.61223 0.18003 0.45266 0.0
C498 C 0.60339 0.17075 0.36728 0.0
C499 C 0.57892 0.1804 0.3324 0.0
C500 C 0.56341 0.19844 0.38274 0.0
C501 C 0.62004 0.15161 0.31379 0.0
C502 C 0.62672 0.15828 0.22378 0.0
C503 C 0.63049 0.12768 0.35201 0.0
C504 C 0.62365 0.11876 0.44562 0.0
C505 C 0.5965 0.11513 0.47272 0.0
C506 C 0.59026 0.10725 0.5616 0.0
C507 C 0.61099 0.10275 0.62384 0.0
C508 C 0.63802 0.10603 0.59724 0.0
C509 C 0.64437 0.11392 0.50847 0.0
H510 H 0.60611 0.0967 0.69264 0.0
H511 H 0.67 0.17542 0.83498 0.0
H512 H 0.30523 0.43999 0.28033 0.0
H513 H 0.33964 0.40911 0.33304 0.0
H514 H 0.36038 0.46391 0.55138 0.0
H515 H 0.32514 0.49483 0.49991 0.0
H516 H 0.40589 0.44492 0.43654 0.0
H517 H 0.33145 0.41112 0.61421 0.0
H518 H 0.28474 0.39449 0.64287 0.0
H519 H 0.29634 0.32762 0.46241 0.0
H520 H 0.34304 0.34409 0.43148 0.0
H521 H 0.48942 0.35621 0.68613 0.0
H522 H 0.45627 0.38815 0.63196 0.0
H523 H 0.42702 0.3294 0.43628 0.0
H524 H 0.46056 0.29718 0.49016 0.0
H525 H 0.3858 0.3509 0.54064 0.0
H526 H 0.46002 0.38416 0.36288 0.0
H527 H 0.50663 0.40067 0.33169 0.0
H528 H 0.49557 0.4684 0.50899 0.0
H529 H 0.44898 0.45206 0.54239 0.0
C530 C 0.31688 0.44535 0.3403 0.0
C531 C 0.31249 0.46982 0.38613 0.0
C532 C 0.33653 0.42767 0.3703 0.0
C533 C 0.35261 0.43422 0.44592 0.0
C534 C 0.34816 0.4585 0.49278 0.0
C535 C 0.32795 0.47602 0.46383 0.0
C536 C 0.37452 0.41585 0.47317 0.0
C537 C 0.40156 0.42453 0.46095 0.0
C538 C 0.36879 0.38894 0.50184 0.0
C539 C 0.34066 0.37903 0.51971 0.0
C540 C 0.32396 0.39304 0.5798 0.0
C541 C 0.2975 0.3836 0.59666 0.0
C542 C 0.28755 0.36006 0.55427 0.0
C543 C 0.30406 0.34588 0.49506 0.0
C544 C 0.33054 0.35525 0.47789 0.0
C545 C 0.47626 0.35021 0.6304 0.0
C546 C 0.47761 0.32415 0.59239 0.0
C547 C 0.45733 0.36854 0.5994 0.0
C548 C 0.43911 0.36122 0.53007 0.0
C549 C 0.44089 0.33548 0.48991 0.0
C550 C 0.46019 0.31719 0.52014 0.0
C551 C 0.41729 0.37994 0.50418 0.0
C552 C 0.39021 0.37131 0.51644 0.0
C553 C 0.42301 0.40687 0.47531 0.0
C554 C 0.45108 0.41671 0.45592 0.0
C555 C 0.4676 0.40242 0.39599 0.0
C556 C 0.49401 0.41178 0.37773 0.0
C557 C 0.50408 0.43552 0.41853 0.0
C558 C 0.48775 0.44998 0.47755 0.0
C559 C 0.46133 0.44069 0.49611 0.0
H560 H 0.52452 0.44276 0.40425 0.0
H561 H 0.26706 0.35277 0.56748 0.0
H562 H 0.67993 0.99037 0.64306 0.0
H563 H 0.64113 0.95862 0.63214 0.0
H564 H 0.65558 0.93172 0.90565 0.0
H565 H 0.69405 0.96403 0.91835 0.0
H566 H 0.65443 0.89416 0.70459 0.0
H567 H 0.60829 0.94803 0.93886 0.0
H568 H 0.59198 0.99137 0.99756 0.0
H569 H 0.54693 0.00307 0.75211 0.0
H570 H 0.56339 0.95992 0.69149 0.0
H571 H 0.55797 0.79501 0.83327 0.0
H572 H 0.58838 0.83469 0.83413 0.0
H573 H 0.5426 0.87033 0.61791 0.0
H574 H 0.51195 0.83016 0.61544 0.0
H575 H 0.5573 0.9062 0.77551 0.0
H576 H 0.59615 0.84926 0.55276 0.0
H577 H 0.61224 0.80661 0.48821 0.0
H578 H 0.6714 0.80154 0.70049 0.0
H579 H 0.65534 0.84396 0.76727 0.0
C580 C 0.67454 0.97806 0.70153 0.0
C581 C 0.69007 0.97956 0.78149 0.0
C582 C 0.65234 0.96007 0.69523 0.0
C583 C 0.64548 0.94315 0.76835 0.0
C584 C 0.66041 0.94503 0.84913 0.0
C585 C 0.68235 0.96342 0.85619 0.0
C586 C 0.62485 0.92135 0.75612 0.0
C587 C 0.63323 0.89663 0.7209 0.0
C588 C 0.59717 0.92513 0.77416 0.0
C589 C 0.58742 0.95104 0.81015 0.0
C590 C 0.59523 0.96004 0.89695 0.0
C591 C 0.58587 0.98451 0.9307 0.0
C592 C 0.56853 1.00003 0.87842 0.0
C593 C 0.56044 0.99107 0.7924 0.0
C594 C 0.56977 0.96662 0.75833 0.0
C595 C 0.55422 0.81128 0.78596 0.0
C596 C 0.53256 0.80945 0.72418 0.0
C597 C 0.57166 0.8339 0.78653 0.0
C598 C 0.56769 0.8553 0.72607 0.0
C599 C 0.54588 0.85392 0.66511 0.0
C600 C 0.52855 0.83097 0.66344 0.0
C601 C 0.58702 0.87864 0.72649 0.0
C602 C 0.57846 0.90371 0.75876 0.0
C603 C 0.61461 0.87524 0.70523 0.0
C604 C 0.62434 0.84966 0.66556 0.0
C605 C 0.6124 0.83891 0.58627 0.0
C606 C 0.62155 0.8148 0.54914 0.0
C607 C 0.64278 0.80133 0.59036 0.0
C608 C 0.65493 0.81198 0.66871 0.0
C609 C 0.64582 0.83607 0.70619 0.0
H610 H 0.64986 0.78268 0.56147 0.0
H611 H 0.56128 0.01895 0.9047 0.0
H612 H 0.03398 0.19835 0.96809 0.0
H613 H 0.06631 0.1651 0.91343 0.0
H614 H 0.05297 0.11746 0.15544 0.0
H615 H 0.02105 0.15026 0.21009 0.0
H616 H 0.10588 0.12616 0.12734 0.0
H617 H 0.02915 0.09614 0.94884 0.0
H618 H 0.99181 0.10134 0.83976 0.0
H619 H 0.04868 0.12616 0.63361 0.0
H620 H 0.08635 0.12144 0.74187 0.0
H621 H 0.18366 0.01177 0.00474 0.0
H622 H 0.14732 0.04153 0.05249 0.0
H623 H 0.15367 0.08446 0.79796 0.0
H624 H 0.1889 0.05443 0.74908 0.0
H625 H 0.10352 0.07773 0.83293 0.0
H626 H 0.17995 0.10984 0.00927 0.0
H627 H 0.21784 0.10606 0.1171 0.0
H628 H 0.16247 0.07929 0.32526 0.0
H629 H 0.12429 0.0826 0.21828 0.0
C630 C 0.03757 0.18052 0.00869 0.0
C631 C 0.02506 0.17718 0.09386 0.0
C632 C 0.05611 0.16153 0.97752 0.0
C633 C 0.06227 0.13878 0.03065 0.0
C634 C 0.04885 0.13492 0.1136 0.0
C635 C 0.03049 0.15375 0.14463 0.0
C636 C 0.08363 0.11964 0.00319 0.0
C637 C 0.10517 0.11532 0.06334 0.0
C638 C 0.08316 0.10592 0.91894 0.0
C639 C 0.06054 0.10871 0.85375 0.0
C640 C 0.03368 0.10292 0.88047 0.0
C641 C 0.01245 0.10574 0.81874 0.0
C642 C 0.01786 0.11415 0.72989 0.0
C643 C 0.04452 0.11968 0.7025 0.0
C644 C 0.06581 0.11692 0.76399 0.0
C645 C 0.17735 0.02763 0.95929 0.0
C646 C 0.18923 0.03061 0.87306 0.0
C647 C 0.15659 0.04473 0.98667 0.0
C648 C 0.14775 0.06555 0.92922 0.0
C649 C 0.15983 0.06856 0.84356 0.0
C650 C 0.18015 0.05133 0.81578 0.0
C651 C 0.12592 0.08426 0.957 0.0
C652 C 0.10427 0.08853 0.89697 0.0
C653 C 0.1264 0.09815 0.04111 0.0
C654 C 0.14932 0.09619 0.10552 0.0
C655 C 0.17589 0.10296 0.07786 0.0
C656 C 0.19741 0.10094 0.13885 0.0
C657 C 0.19258 0.09236 0.2279 0.0
C658 C 0.1662 0.08588 0.25622 0.0
C659 C 0.14461 0.08785 0.19547 0.0
H660 H 0.20926 0.09081 0.27501 0.0
H661 H 1.00141 0.11632 0.6822 0.0
H662 H 0.9809 0.68442 0.08853 0.0
H663 H 0.95111 0.64403 0.09478 0.0
H664 H 0.94157 0.65467 0.38333 0.0
H665 H 0.97152 0.69464 0.37834 0.0
H666 H 0.94637 0.6018 0.34112 0.0
H667 H 0.89436 0.67713 0.23801 0.0
H668 H 0.88397 0.71549 0.13788 0.0
H669 H 0.87922 0.66186 0.90891 0.0
H670 H 0.88995 0.62321 0.00758 0.0
H671 H 0.8191 0.53267 0.41809 0.0
H672 H 0.8585 0.56376 0.40859 0.0
H673 H 0.86228 0.55096 0.11937 0.0
H674 H 0.82281 0.52043 0.12791 0.0
H675 H 0.8625 0.60302 0.1564 0.0
H676 H 0.9107 0.5266 0.2641 0.0
H677 H 0.92027 0.48856 0.36655 0.0
H678 H 0.93142 0.54396 0.58871 0.0
H679 H 0.92154 0.58232 0.48785 0.0
C680 C 0.97264 0.67807 0.15345 0.0
C681 C 0.97835 0.69303 0.23269 0.0
C682 C 0.95561 0.65499 0.15686 0.0
C683 C 0.94389 0.64658 0.23938 0.0
C684 C 0.95039 0.66082 0.31897 0.0
C685 C 0.9674 0.68382 0.31574 0.0
C686 C 0.92362 0.62393 0.24248 0.0
C687 C 0.92794 0.60207 0.30119 0.0
C688 C 0.89981 0.62416 0.18928 0.0
C689 C 0.89326 0.64735 0.12996 0.0
C690 C 0.89131 0.67356 0.16618 0.0
C691 C 0.88533 0.69534 0.10973 0.0
C692 C 0.88102 0.69113 0.01704 0.0
C693 C 0.88262 0.6651 0.98068 0.0
C694 C 0.88864 0.64325 0.03683 0.0
C695 C 0.8286 0.53615 0.35275 0.0
C696 C 0.81763 0.52433 0.27366 0.0
C697 C 0.85117 0.55385 0.34743 0.0
C698 C 0.86334 0.55966 0.26319 0.0
C699 C 0.85313 0.5469 0.18495 0.0
C700 C 0.83053 0.52945 0.19005 0.0
C701 C 0.88519 0.58071 0.25495 0.0
C702 C 0.88107 0.60244 0.19557 0.0
C703 C 0.90908 0.58033 0.30776 0.0
C704 C 0.91514 0.55731 0.36853 0.0
C705 C 0.91498 0.53066 0.33495 0.0
C706 C 0.9205 0.50904 0.39272 0.0
C707 C 0.92638 0.51384 0.48413 0.0
C708 C 0.92683 0.54027 0.5179 0.0
C709 C 0.92131 0.56196 0.46044 0.0
H710 H 0.93065 0.49707 0.52874 0.0
H711 H 0.87639 0.70802 0.97345 0.0
H712 H 0.33331 0.01123 0.662 0.0
H713 H 0.37144 0.04401 0.65549 0.0
H714 H 0.34767 0.07682 0.91345 0.0
H715 H 0.30993 0.04348 0.92194 0.0
H716 H 0.35134 0.11308 0.73975 0.0
H717 H 0.39917 0.05199 0.93337 0.0
H718 H 0.4175 0.00804 0.97779 0.0
H719 H 0.4655 0.00717 0.73508 0.0
H720 H 0.44704 0.05095 0.68835 0.0
H721 H 0.45076 0.21196 0.83943 0.0
H722 H 0.42065 0.17223 0.84852 0.0
H723 H 0.46078 0.13691 0.61942 0.0
H724 H 0.49127 0.17702 0.60911 0.0
H725 H 0.45018 0.10024 0.77035 0.0
H726 H 0.40417 0.16078 0.5766 0.0
H727 H 0.386 0.20433 0.52702 0.0
H728 H 0.33437 0.20547 0.76113 0.0
H729 H 0.35257 0.1621 0.81297 0.0
C730 C 0.33658 0.02507 0.71821 0.0
C731 C 0.31868 0.02496 0.79234 0.0
C732 C 0.35836 0.04365 0.71449 0.0
C733 C 0.36224 0.06268 0.78401 0.0
C734 C 0.34497 0.06208 0.85955 0.0
C735 C 0.32354 0.04305 0.86438 0.0
C736 C 0.38238 0.08501 0.77258 0.0
C737 C 0.37293 0.11042 0.74765 0.0
C738 C 0.4105 0.08101 0.77931 0.0
C739 C 0.4214 0.05456 0.80669 0.0
C740 C 0.41333 0.04226 0.88879 0.0
C741 C 0.42382 0.01742 0.91457 0.0
C742 C 0.44257 0.00476 0.85911 0.0
C743 C 0.45091 0.01696 0.77784 0.0
C744 C 0.44044 0.04179 0.75169 0.0
C745 C 0.45338 0.19577 0.79097 0.0
C746 C 0.4734 0.19771 0.72328 0.0
C747 C 0.43608 0.17309 0.79628 0.0
C748 C 0.43846 0.15178 0.73442 0.0
C749 C 0.45871 0.15324 0.66773 0.0
C750 C 0.47595 0.17618 0.66164 0.0
C751 C 0.41908 0.12848 0.73918 0.0
C752 C 0.4286 0.10288 0.76221 0.0
C753 C 0.39095 0.13217 0.72982 0.0
C754 C 0.37995 0.15831 0.69917 0.0
C755 C 0.38914 0.17044 0.61803 0.0
C756 C 0.3788 0.19507 0.58941 0.0
C757 C 0.35909 0.2077 0.64102 0.0
C758 C 0.34966 0.19568 0.72129 0.0
C759 C 0.35997 0.17106 0.7503 0.0
H760 H 0.35109 0.22675 0.6187 0.0
H761 H 0.45071 0.98555 0.87926 0.0
H762 H 0.83321 0.96257 0.74404 0.0
H763 H 0.86684 0.93139 0.79736 0.0
H764 H 0.84635 0.94958 0.07447 0.0
H765 H 0.81226 0.98128 0.02147 0.0
H766 H 0.90231 0.9479 0.04475 0.0
H767 H 0.82368 0.89148 0.98253 0.0
H768 H 0.78566 0.8736 0.88989 0.0
H769 H 0.84148 0.84605 0.68923 0.0
H770 H 0.87984 0.86412 0.7801 0.0
H771 H 0.96471 0.83826 0.25513 0.0
H772 H 0.9337 0.8713 0.19776 0.0
H773 H 0.94938 0.8455 0.92381 0.0
H774 H 0.98041 0.81145 0.98137 0.0
H775 H 0.89659 0.85165 0.94828 0.0
H776 H 0.97525 0.90675 0.00838 0.0
H777 H 0.01388 0.92513 0.09708 0.0
H778 H 0.95932 0.95588 0.29618 0.0
H779 H 0.92035 0.93734 0.20932 0.0
C780 C 0.83571 0.96014 0.81656 0.0
C781 C 0.81974 0.97449 0.8784 0.0
C782 C 0.855 0.94211 0.84686 0.0
C783 C 0.85893 0.9378 0.93986 0.0
C784 C 0.84358 0.95249 0.00226 0.0
C785 C 0.82405 0.97056 0.97187 0.0
C786 C 0.879 0.9178 0.9709 0.0
C787 C 0.90085 0.92676 0.02489 0.0
C788 C 0.87765 0.89039 0.94229 0.0
C789 C 0.85462 0.87938 0.88776 0.0
C790 C 0.82784 0.8818 0.91832 0.0
C791 C 0.80623 0.8716 0.86618 0.0
C792 C 0.81114 0.85876 0.78362 0.0
C793 C 0.8377 0.85603 0.75315 0.0
C794 C 0.85938 0.86622 0.80498 0.0
C795 C 0.96185 0.83952 0.18243 0.0
C796 C 0.9753 0.82204 0.12296 0.0
C797 C 0.94409 0.85869 0.14964 0.0
C798 C 0.93943 0.86134 0.05627 0.0
C799 C 0.95272 0.84397 0.99624 0.0
C800 C 0.97054 0.82455 0.02919 0.0
C801 C 0.91995 0.88166 0.02273 0.0
C802 C 0.89816 0.87278 0.96813 0.0
C803 C 0.92149 0.9092 0.05026 0.0
C804 C 0.94488 0.92044 0.10267 0.0
C805 C 0.97149 0.91725 0.07143 0.0
C806 C 0.99345 0.92773 0.12133 0.0
C807 C 0.98906 0.94161 0.20232 0.0
C808 C 0.96269 0.9451 0.23347 0.0
C809 C 0.94066 0.93463 0.18388 0.0
H810 H 0.00609 0.94971 0.24085 0.0
H811 H 0.79438 0.85087 0.74335 0.0
H812 H 0.06752 0.2856 0.26293 0.0
H813 H 0.09556 0.32685 0.277 0.0
H814 H 0.03067 0.37347 0.16628 0.0
H815 H 0.00328 0.33165 0.14616 0.0
H816 H 0.07384 0.39381 0.10649 0.0
H817 H 0.04649 0.37067 0.40466 0.0
H818 H 0.03874 0.34163 0.53882 0.0
H819 H 0.12421 0.33047 0.56393 0.0
H820 H 0.13251 0.35903 0.42897 0.0
H821 H 0.17135 0.49053 0.39753 0.0
H822 H 0.13088 0.46067 0.38846 0.0
H823 H 0.15966 0.42822 0.13558 0.0
H824 H 0.1992 0.45829 0.1424 0.0
H825 H 0.12504 0.40898 0.39246 0.0
H826 H 0.11137 0.40831 0.99709 0.0
H827 H 0.11525 0.44083 0.87046 0.0
H828 H 0.10343 0.50677 0.05457 0.0
H829 H 0.09905 0.47464 0.18214 0.0
C830 C 0.05943 0.30465 0.24071 0.0
C831 C 0.03332 0.3056 0.20377 0.0
C832 C 0.07529 0.32828 0.24979 0.0
C833 C 0.06493 0.3535 0.22576 0.0
C834 C 0.03907 0.35433 0.18611 0.0
C835 C 0.02346 0.33049 0.17441 0.0
C836 C 0.08138 0.37878 0.2412 0.0
C837 C 0.08484 0.39722 0.1693 0.0
C838 C 0.09496 0.38396 0.32447 0.0
C839 C 0.0901 0.36694 0.40633 0.0
C840 C 0.06363 0.36193 0.43849 0.0
C841 C 0.05913 0.34555 0.51471 0.0
C842 C 0.08094 0.33422 0.55986 0.0
C843 C 0.10732 0.33927 0.52893 0.0
C844 C 0.11194 0.35558 0.45262 0.0
C845 C 0.16884 0.47721 0.33961 0.0
C846 C 0.18843 0.47695 0.27045 0.0
C847 C 0.14573 0.46017 0.33449 0.0
C848 C 0.14193 0.44255 0.2604 0.0
C849 C 0.16162 0.44219 0.19197 0.0
C850 C 0.18441 0.45934 0.19639 0.0
C851 C 0.11846 0.42313 0.25626 0.0
C852 C 0.11362 0.40584 0.33032 0.0
C853 C 0.10287 0.4196 0.17627 0.0
C854 C 0.10502 0.43902 0.09937 0.0
C855 C 0.1094 0.42972 0.01054 0.0
C856 C 0.11173 0.4481 0.93858 0.0
C857 C 0.10964 0.47585 0.95448 0.0
C858 C 0.10512 0.48527 0.04236 0.0
C859 C 0.10274 0.46699 0.11455 0.0
H860 H 0.11149 0.49004 0.89869 0.0
H861 H 0.0774 0.32155 0.61884 0.0
H862 H 0.52996 0.69743 0.48202 0.0
H863 H 0.56201 0.66427 0.42491 0.0
H864 H 0.5653 0.62766 0.69014 0.0
H865 H 0.53364 0.66018 0.74723 0.0
H866 H 0.6153 0.63719 0.62537 0.0
H867 H 0.53232 0.59595 0.51911 0.0
H868 H 0.48892 0.59258 0.43678 0.0
H869 H 0.53012 0.60877 0.18528 0.0
H870 H 0.57376 0.61262 0.26633 0.0
H871 H 0.69039 0.51989 0.51307 0.0
H872 H 0.65561 0.55049 0.56736 0.0
H873 H 0.64733 0.58271 0.29699 0.0
H874 H 0.68114 0.552 0.24227 0.0
H875 H 0.59947 0.57527 0.36498 0.0
H876 H 0.68272 0.61727 0.47376 0.0
H877 H 0.72595 0.61909 0.55755 0.0
H878 H 0.68385 0.60077 0.80592 0.0
H879 H 0.6404 0.59854 0.72337 0.0
C880 C 0.53728 0.68213 0.52782 0.0
C881 C 0.52926 0.68176 0.61948 0.0
C882 C 0.55561 0.66316 0.49512 0.0
C883 C 0.56621 0.64348 0.5534 0.0
C884 C 0.55766 0.64272 0.64399 0.0
C885 C 0.53941 0.66145 0.67644 0.0
C886 C 0.58694 0.62418 0.52211 0.0
C887 C 0.6117 0.62346 0.56891 0.0
C888 C 0.58254 0.60653 0.44765 0.0
C889 C 0.55627 0.60489 0.39896 0.0
C890 C 0.5321 0.59912 0.4464 0.0
C891 C 0.50746 0.59705 0.39993 0.0
C892 C 0.50676 0.6005 0.30589 0.0
C893 C 0.53069 0.60613 0.25814 0.0
C894 C 0.55538 0.60826 0.3043 0.0
C895 C 0.6812 0.53355 0.46536 0.0
C896 C 0.68866 0.53336 0.37326 0.0
C897 C 0.66134 0.55113 0.49648 0.0
C898 C 0.64888 0.5692 0.43647 0.0
C899 C 0.65641 0.56898 0.34477 0.0
C900 C 0.67594 0.55134 0.31362 0.0
C901 C 0.62795 0.58836 0.46791 0.0
C902 C 0.60312 0.58905 0.42121 0.0
C903 C 0.63227 0.60601 0.54253 0.0
C904 C 0.65836 0.60748 0.59225 0.0
C905 C 0.68271 0.61346 0.54615 0.0
C906 C 0.70725 0.61459 0.59343 0.0
C907 C 0.70766 0.60998 0.68696 0.0
C908 C 0.68351 0.60431 0.73346 0.0
C909 C 0.65893 0.60313 0.68648 0.0
H910 H 0.72667 0.61085 0.72344 0.0
H911 H 0.48768 0.59868 0.27005 0.0
loop_
_geom_bond_atom_site_label_1
_geom_bond_atom_site_label_2
_geom_bond_distance
_geom_bond_site_symmetry_2
_ccdc_geom_bond_type
Co0 O1 2.216 . S
Co0 O2 2.091 . S
Co0 O4 2.004 . S
Co0 O10 2.021 . S
Co0 O12 2.137 . S
Co0 O13 2.244 . S
O1 Co0 2.216 . S
O1 C8 1.247 . S
O2 Co0 2.091 . S
O2 C8 1.261 . S
C3 O12 1.247 . S
C3 O13 1.272 . S
O4 Co0 2.004 . S
O4 C9 1.259 . S
Co5 O6 2.061 . S
Co5 O11 2.052 . S
Co5 O13 2.135 . S
O6 Co5 2.061 . S
O6 C9 1.235 . S
C7 O10 1.238 . S
C7 O11 1.241 . S
C8 O1 1.247 . S
C8 O2 1.261 . S
C9 O4 1.259 . S
C9 O6 1.235 . S
O10 Co0 2.021 . S
O10 C7 1.238 . S
O11 Co5 2.052 . S
O11 C7 1.241 . S
O12 Co0 2.137 . S
O12 C3 1.247 . S
O13 Co0 2.244 . S
O13 C3 1.272 . S
O13 Co5 2.135 . S
Co14 O15 2.216 . S
Co14 O16 2.091 . S
Co14 O18 2.004 . S
Co14 O24 2.021 . S
Co14 O26 2.137 . S
Co14 O27 2.244 . S
O15 Co14 2.216 . S
O15 C22 1.247 . S
O16 Co14 2.091 . S
O16 C22 1.261 . S
C17 O26 1.247 . S
C17 O27 1.272 . S
O18 Co14 2.004 . S
O18 C23 1.259 . S
Co19 O20 2.061 . S
Co19 O25 2.052 . S
Co19 O27 2.135 . S
O20 Co19 2.061 . S
O20 C23 1.235 . S
C21 O24 1.238 . S
C21 O25 1.241 . S
C22 O15 1.247 . S
C22 O16 1.261 . S
C23 O18 1.259 . S
C23 O20 1.235 . S
O24 Co14 2.021 . S
O24 C21 1.238 . S
O25 Co19 2.052 . S
O25 C21 1.241 . S
O26 Co14 2.137 . S
O26 C17 1.247 . S
O27 Co14 2.244 . S
O27 C17 1.272 . S
O27 Co19 2.135 . S
Co28 O29 2.216 . S
Co28 O30 2.091 1_556 S
Co28 O32 2.004 . S
Co28 O38 2.021 1_565 S
Co28 O40 2.137 . S
Co28 O41 2.244 . S
O29 Co28 2.216 . S
O29 C36 1.247 . S
O30 Co28 2.091 1_554 S
O30 C36 1.261 1_554 S
C31 O40 1.247 . S
C31 O41 1.272 . S
O32 Co28 2.004 . S
O32 C37 1.259 1_565 S
Co33 O34 2.061 . S
Co33 O39 2.052 . S
Co33 O41 2.135 1_545 S
O34 Co33 2.061 . S
O34 C37 1.235 . S
C35 O38 1.238 . S
C35 O39 1.241 . S
C36 O29 1.247 . S
C36 O30 1.261 1_556 S
C37 O32 1.259 1_545 S
C37 O34 1.235 . S
O38 Co28 2.021 1_545 S
O38 C35 1.238 . S
O39 Co33 2.052 . S
O39 C35 1.241 . S
O40 Co28 2.137 . S
O40 C31 1.247 . S
O41 Co28 2.244 . S
O41 C31 1.272 . S
O41 Co33 2.135 1_565 S
Co42 O43 2.216 . S
Co42 O44 2.091 1_554 S
Co42 O46 2.004 . S
Co42 O52 2.021 1_455 S
Co42 O54 2.137 . S
Co42 O55 2.244 . S
O43 Co42 2.216 . S
O43 C50 1.247 . S
O44 Co42 2.091 1_556 S
O44 C50 1.261 1_556 S
C45 O54 1.247 . S
C45 O55 1.272 . S
O46 Co42 2.004 . S
O46 C51 1.259 1_455 S
Co47 O48 2.061 . S
Co47 O53 2.052 . S
Co47 O55 2.135 1_655 S
O48 Co47 2.061 . S
O48 C51 1.235 . S
C49 O52 1.238 . S
C49 O53 1.241 . S
C50 O43 1.247 . S
C50 O44 1.261 1_554 S
C51 O46 1.259 1_655 S
C51 O48 1.235 . S
O52 Co42 2.021 1_655 S
O52 C49 1.238 . S
O53 Co47 2.052 . S
O53 C49 1.241 . S
O54 Co42 2.137 . S
O54 C45 1.247 . S
O55 Co42 2.244 . S
O55 C45 1.272 . S
O55 Co47 2.135 1_455 S
Co56 O57 2.216 . S
Co56 O58 2.091 1_556 S
Co56 O60 2.004 . S
Co56 O66 2.021 1_545 S
Co56 O68 2.137 . S
Co56 O69 2.244 . S
O57 Co56 2.216 . S
O57 C64 1.247 . S
O58 Co56 2.091 1_554 S
O58 C64 1.261 1_554 S
C59 O68 1.247 . S
C59 O69 1.272 . S
O60 Co56 2.004 . S
O60 C65 1.259 1_545 S
Co61 O62 2.061 . S
Co61 O67 2.052 . S
Co61 O69 2.135 1_565 S
O62 Co61 2.061 . S
O62 C65 1.235 . S
C63 O66 1.238 . S
C63 O67 1.241 . S
C64 O57 1.247 . S
C64 O58 1.261 1_556 S
C65 O60 1.259 1_565 S
C65 O62 1.235 . S
O66 Co56 2.021 1_565 S
O66 C63 1.238 . S
O67 Co61 2.052 . S
O67 C63 1.241 . S
O68 Co56 2.137 . S
O68 C59 1.247 . S
O69 Co56 2.244 . S
O69 C59 1.272 . S
O69 Co61 2.135 1_545 S
Co70 O71 2.216 . S
Co70 O72 2.091 1_554 S
Co70 O74 2.004 . S
Co70 O80 2.021 1_655 S
Co70 O82 2.137 . S
Co70 O83 2.244 . S
O71 Co70 2.216 . S
O71 C78 1.247 . S
O72 Co70 2.091 1_556 S
O72 C78 1.261 1_556 S
C73 O82 1.247 . S
C73 O83 1.272 . S
O74 Co70 2.004 . S
O74 C79 1.259 1_655 S
Co75 O76 2.061 . S
Co75 O81 2.052 . S
Co75 O83 2.135 1_455 S
O76 Co75 2.061 . S
O76 C79 1.235 . S
C77 O80 1.238 . S
C77 O81 1.241 . S
C78 O71 1.247 . S
C78 O72 1.261 1_554 S
C79 O74 1.259 1_455 S
C79 O76 1.235 . S
O80 Co70 2.021 1_455 S
O80 C77 1.238 . S
O81 Co75 2.052 . S
O81 C77 1.241 . S
O82 Co70 2.137 . S
O82 C73 1.247 . S
O83 Co70 2.244 . S
O83 C73 1.272 . S
O83 Co75 2.135 1_655 S
Co84 O85 2.216 . S
Co84 O86 2.091 . S
Co84 O88 2.004 . S
Co84 O94 2.021 . S
Co84 O96 2.137 . S
Co84 O97 2.244 . S
O85 Co84 2.216 . S
O85 C92 1.247 . S
O86 Co84 2.091 . S
O86 C92 1.261 . S
C87 O96 1.247 . S
C87 O97 1.272 . S
O88 Co84 2.004 . S
O88 C93 1.259 . S
Co89 O90 2.061 . S
Co89 O95 2.052 . S
Co89 O97 2.135 . S
O90 Co89 2.061 . S
O90 C93 1.235 . S
C91 O94 1.238 . S
C91 O95 1.241 . S
C92 O85 1.247 . S
C92 O86 1.261 . S
C93 O88 1.259 . S
C93 O90 1.235 . S
O94 Co84 2.021 . S
O94 C91 1.238 . S
O95 Co89 2.052 . S
O95 C91 1.241 . S
O96 Co84 2.137 . S
O96 C87 1.247 . S
O97 Co84 2.244 . S
O97 C87 1.272 . S
O97 Co89 2.135 . S
Co98 O99 2.216 . S
Co98 O100 2.091 . S
Co98 O102 2.004 . S
Co98 O108 2.021 . S
Co98 O110 2.137 . S
Co98 O111 2.244 . S
O99 Co98 2.216 . S
O99 C106 1.247 . S
O100 Co98 2.091 . S
O100 C106 1.261 . S
C101 O110 1.247 . S
C101 O111 1.272 . S
O102 Co98 2.004 . S
O102 C107 1.259 . S
Co103 O104 2.061 . S
Co103 O109 2.052 . S
Co103 O111 2.135 . S
O104 Co103 2.061 . S
O104 C107 1.235 . S
C105 O108 1.238 . S
C105 O109 1.241 . S
C106 O99 1.247 . S
C106 O100 1.261 . S
C107 O102 1.259 . S
C107 O104 1.235 . S
O108 Co98 2.021 . S
O108 C105 1.238 . S
O109 Co103 2.052 . S
O109 C105 1.241 . S
O110 Co98 2.137 . S
O110 C101 1.247 . S
O111 Co98 2.244 . S
O111 C101 1.272 . S
O111 Co103 2.135 . S
H112 C130 0.951 . S
H113 C132 0.951 . S
H114 C134 0.950 . S
H115 C135 0.950 . S
H116 C137 0.950 . S
H117 C140 0.950 . S
H118 C141 0.956 . S
H119 C143 0.950 . S
H120 C144 0.950 . S
H121 C145 0.951 . S
H122 C147 0.951 . S
H123 C149 0.950 . S
H124 C150 0.950 . S
H125 C152 0.950 . S
H126 C155 0.950 . S
H127 C156 0.956 . S
H128 C158 0.950 . S
H129 C159 0.950 . S
C130 H112 0.951 . S
C130 C131 1.366 . S
C130 C132 1.388 . S
C131 C130 1.366 . S
C131 C135 1.385 . S
C132 H113 0.951 . S
C132 C130 1.388 . S
C132 C133 1.366 . S
C133 C132 1.366 . S
C133 C134 1.414 . S
C133 C136 1.499 . S
C134 H114 0.950 . S
C134 C133 1.414 . S
C134 C135 1.374 . S
C135 H115 0.950 . S
C135 C131 1.385 . S
C135 C134 1.374 . S
C136 C133 1.499 . S
C136 C137 1.373 . S
C136 C138 1.389 1_556 S
C137 H116 0.950 . S
C137 C136 1.373 . S
C137 C153 1.377 . S
C138 C136 1.389 1_554 S
C138 C139 1.524 . S
C138 C152 1.377 . S
C139 C138 1.524 . S
C139 C140 1.397 1_554 S
C139 C144 1.363 . S
C140 H117 0.950 . S
C140 C139 1.397 1_556 S
C140 C141 1.336 . S
C141 H118 0.956 . S
C141 C140 1.336 . S
C141 C142 1.279 1_556 S
C142 C141 1.279 1_554 S
C142 C143 1.524 . S
C142 H161 0.913 . S
C143 H119 0.950 . S
C143 C142 1.524 . S
C143 C144 1.415 . S
C144 H120 0.950 . S
C144 C139 1.363 . S
C144 C143 1.415 . S
C145 H121 0.951 . S
C145 C146 1.366 . S
C145 C147 1.388 . S
C146 C145 1.366 . S
C146 C150 1.385 . S
C147 H122 0.951 . S
C147 C145 1.388 . S
C147 C148 1.366 . S
C148 C147 1.366 . S
C148 C149 1.414 . S
C148 C151 1.499 . S
C149 H123 0.950 . S
C149 C148 1.414 . S
C149 C150 1.374 . S
C150 H124 0.950 . S
C150 C146 1.385 . S
C150 C149 1.374 . S
C151 C148 1.499 . S
C151 C152 1.373 . S
C151 C153 1.389 1_554 S
C152 H125 0.950 . S
C152 C138 1.377 . S
C152 C151 1.373 . S
C153 C137 1.377 . S
C153 C151 1.389 1_556 S
C153 C154 1.524 . S
C154 C153 1.524 . S
C154 C155 1.397 1_556 S
C154 C159 1.363 . S
C155 H126 0.950 . S
C155 C154 1.397 1_554 S
C155 C156 1.336 . S
C156 H127 0.956 . S
C156 C155 1.336 . S
C156 C157 1.279 1_554 S
C157 C156 1.279 1_556 S
C157 C158 1.524 . S
C157 H160 0.999 . S
C158 H128 0.950 . S
C158 C157 1.524 . S
C158 C159 1.415 . S
C159 H129 0.950 . S
C159 C154 1.363 . S
C159 C158 1.415 . S
H160 C157 0.999 . S
H161 C142 0.913 . S
H162 C180 0.951 . S
H163 C182 0.951 . S
H164 C184 0.950 . S
H165 C185 0.950 . S
H166 C187 0.950 . S
H167 C190 0.950 . S
H168 C191 0.950 . S
H169 C193 0.950 . S
H170 C194 0.950 . S
H171 C195 0.951 . S
H172 C197 0.951 . S
H173 C199 0.950 . S
H174 C200 0.950 . S
H175 C202 0.950 . S
H176 C205 0.950 . S
H177 C206 0.950 . S
H178 C208 0.950 . S
H179 C209 0.950 . S
C180 H162 0.951 . S
C180 C181 1.366 . S
C180 C182 1.388 . S
C181 C180 1.366 . S
C181 C185 1.385 . S
C182 H163 0.951 . S
C182 C180 1.388 . S
C182 C183 1.366 . S
C183 C182 1.366 . S
C183 C184 1.414 . S
C183 C186 1.499 . S
C184 H164 0.950 . S
C184 C183 1.414 . S
C184 C185 1.374 . S
C185 H165 0.950 . S
C185 C181 1.385 . S
C185 C184 1.374 . S
C186 C183 1.499 . S
C186 C187 1.373 . S
C186 C188 1.389 . S
C187 H166 0.950 . S
C187 C186 1.373 . S
C187 C203 1.377 . S
C188 C186 1.389 . S
C188 C189 1.524 . S
C188 C202 1.377 . S
C189 C188 1.524 . S
C189 C190 1.397 . S
C189 C194 1.363 . S
C190 H167 0.950 . S
C190 C189 1.397 . S
C190 C191 1.334 . S
C191 H168 0.950 . S
C191 C190 1.334 . S
C191 C192 1.287 . S
C192 C191 1.287 . S
C192 C193 1.524 . S
C192 H211 0.913 . S
C193 H169 0.950 . S
C193 C192 1.524 . S
C193 C194 1.415 . S
C194 H170 0.950 . S
C194 C189 1.363 . S
C194 C193 1.415 . S
C195 H171 0.951 . S
C195 C196 1.366 . S
C195 C197 1.388 . S
C196 C195 1.366 . S
C196 C200 1.385 . S
C197 H172 0.951 . S
C197 C195 1.388 . S
C197 C198 1.366 . S
C198 C197 1.366 . S
C198 C199 1.414 . S
C198 C201 1.499 . S
C199 H173 0.950 . S
C199 C198 1.414 . S
C199 C200 1.374 . S
C200 H174 0.950 . S
C200 C196 1.385 . S
C200 C199 1.374 . S
C201 C198 1.499 . S
C201 C202 1.373 . S
C201 C203 1.389 . S
C202 H175 0.950 . S
C202 C188 1.377 . S
C202 C201 1.373 . S
C203 C187 1.377 . S
C203 C201 1.389 . S
C203 C204 1.524 . S
C204 C203 1.524 . S
C204 C205 1.397 . S
C204 C209 1.363 . S
C205 H176 0.950 . S
C205 C204 1.397 . S
C205 C206 1.334 1_554 S
C206 H177 0.950 . S
C206 C205 1.334 1_556 S
C206 C207 1.287 . S
C207 C206 1.287 . S
C207 C208 1.524 1_556 S
C207 H210 0.999 . S
C208 H178 0.950 . S
C208 C207 1.524 1_554 S
C208 C209 1.415 . S
C209 H179 0.950 . S
C209 C204 1.363 . S
C209 C208 1.415 . S
H210 C207 0.999 . S
H211 C192 0.913 . S
H212 C230 0.951 . S
H213 C232 0.951 . S
H214 C234 0.950 . S
H215 C235 0.950 . S
H216 C237 0.950 . S
H217 C240 0.950 . S
H218 C241 0.950 . S
H219 C243 0.950 . S
H220 C244 0.950 . S
H221 C245 0.951 . S
H222 C247 0.951 . S
H223 C249 0.950 . S
H224 C250 0.950 . S
H225 C252 0.950 . S
H226 C255 0.950 . S
H227 C256 0.950 . S
H228 C258 0.950 . S
H229 C259 0.950 . S
C230 H212 0.951 . S
C230 C231 1.366 . S
C230 C232 1.388 . S
C231 C230 1.366 . S
C231 C235 1.385 . S
C232 H213 0.951 . S
C232 C230 1.388 . S
C232 C233 1.366 . S
C233 C232 1.366 . S
C233 C234 1.414 . S
C233 C236 1.499 . S
C234 H214 0.950 . S
C234 C233 1.414 . S
C234 C235 1.374 . S
C235 H215 0.950 . S
C235 C231 1.385 . S
C235 C234 1.374 . S
C236 C233 1.499 . S
C236 C237 1.373 . S
C236 C238 1.389 . S
C237 H216 0.950 . S
C237 C236 1.373 . S
C237 C253 1.377 . S
C238 C236 1.389 . S
C238 C239 1.524 . S
C238 C252 1.377 . S
C239 C238 1.524 . S
C239 C240 1.397 . S
C239 C244 1.363 . S
C240 H217 0.950 . S
C240 C239 1.397 . S
C240 C241 1.334 . S
C241 H218 0.950 . S
C241 C240 1.334 . S
C241 C242 1.287 . S
C242 C241 1.287 . S
C242 C243 1.524 . S
C242 H261 0.913 . S
C243 H219 0.950 . S
C243 C242 1.524 . S
C243 C244 1.415 . S
C244 H220 0.950 . S
C244 C239 1.363 . S
C244 C243 1.415 . S
C245 H221 0.951 . S
C245 C246 1.366 . S
C245 C247 1.388 . S
C246 C245 1.366 . S
C246 C250 1.385 . S
C247 H222 0.951 . S
C247 C245 1.388 . S
C247 C248 1.366 . S
C248 C247 1.366 . S
C248 C249 1.414 . S
C248 C251 1.499 . S
C249 H223 0.950 . S
C249 C248 1.414 . S
C249 C250 1.374 . S
C250 H224 0.950 . S
C250 C246 1.385 . S
C250 C249 1.374 . S
C251 C248 1.499 . S
C251 C252 1.373 . S
C251 C253 1.389 . S
C252 H225 0.950 . S
C252 C238 1.377 . S
C252 C251 1.373 . S
C253 C237 1.377 . S
C253 C251 1.389 . S
C253 C254 1.524 . S
C254 C253 1.524 . S
C254 C255 1.397 . S
C254 C259 1.363 . S
C255 H226 0.950 . S
C255 C254 1.397 . S
C255 C256 1.334 . S
C256 H227 0.950 . S
C256 C255 1.334 . S
C256 C257 1.287 . S
C257 C256 1.287 . S
C257 C258 1.524 . S
C257 H260 0.999 . S
C258 H228 0.950 . S
C258 C257 1.524 . S
C258 C259 1.415 . S
C259 H229 0.950 . S
C259 C254 1.363 . S
C259 C258 1.415 . S
H260 C257 0.999 . S
H261 C242 0.913 . S
H262 C280 0.951 . S
H263 C282 0.951 . S
H264 C284 0.950 . S
H265 C285 0.950 1_554 S
H266 C287 0.950 . S
H267 C290 0.950 . S
H268 C291 0.950 . S
H269 C293 0.950 . S
H270 C294 0.950 . S
H271 C295 0.951 . S
H272 C297 0.951 . S
H273 C299 0.950 . S
H274 C300 0.950 . S
H275 C302 0.950 . S
H276 C305 0.950 . S
H277 C306 0.950 . S
H278 C308 0.950 1_554 S
H279 C309 0.950 . S
C280 H262 0.951 . S
C280 C281 1.366 . S
C280 C282 1.388 . S
C281 C280 1.366 . S
C281 C285 1.385 . S
C282 H263 0.951 . S
C282 C280 1.388 . S
C282 C283 1.366 . S
C283 C282 1.366 . S
C283 C284 1.414 . S
C283 C286 1.499 . S
C284 H264 0.950 . S
C284 C283 1.414 . S
C284 C285 1.374 . S
C285 H265 0.950 1_556 S
C285 C281 1.385 . S
C285 C284 1.374 . S
C286 C283 1.499 . S
C286 C287 1.373 . S
C286 C288 1.389 . S
C287 H266 0.950 . S
C287 C286 1.373 . S
C287 C303 1.377 . S
C288 C286 1.389 . S
C288 C289 1.524 . S
C288 C302 1.377 . S
C289 C288 1.524 . S
C289 C290 1.397 . S
C289 C294 1.363 . S
C290 H267 0.950 . S
C290 C289 1.397 . S
C290 C291 1.334 . S
C291 H268 0.950 . S
C291 C290 1.334 . S
C291 C292 1.287 . S
C292 C291 1.287 . S
C292 C293 1.524 . S
C292 H311 0.913 . S
C293 H269 0.950 . S
C293 C292 1.524 . S
C293 C294 1.415 . S
C294 H270 0.950 . S
C294 C289 1.363 . S
C294 C293 1.415 . S
C295 H271 0.951 . S
C295 C296 1.366 . S
C295 C297 1.388 . S
C296 C295 1.366 . S
C296 C300 1.385 . S
C297 H272 0.951 . S
C297 C295 1.388 . S
C297 C298 1.366 . S
C298 C297 1.366 . S
C298 C299 1.414 . S
C298 C301 1.499 . S
C299 H273 0.950 . S
C299 C298 1.414 . S
C299 C300 1.374 . S
C300 H274 0.950 . S
C300 C296 1.385 . S
C300 C299 1.374 . S
C301 C298 1.499 . S
C301 C302 1.373 . S
C301 C303 1.389 . S
C302 H275 0.950 . S
C302 C288 1.377 . S
C302 C301 1.373 . S
C303 C287 1.377 . S
C303 C301 1.389 . S
C303 C304 1.524 . S
C304 C303 1.524 . S
C304 C305 1.397 . S
C304 C309 1.363 . S
C305 H276 0.950 . S
C305 C304 1.397 . S
C305 C306 1.334 . S
C306 H277 0.950 . S
C306 C305 1.334 . S
C306 C307 1.287 . S
C307 C306 1.287 . S
C307 C308 1.524 . S
C307 H310 0.999 . S
C308 H278 0.950 1_556 S
C308 C307 1.524 . S
C308 C309 1.415 . S
C309 H279 0.950 . S
C309 C304 1.363 . S
C309 C308 1.415 . S
H310 C307 0.999 . S
H311 C292 0.913 . S
H312 C330 0.951 . S
H313 C332 0.951 . S
H314 C334 0.950 . S
H315 C335 0.950 . S
H316 C337 0.950 . S
H317 C340 0.950 . S
H318 C341 0.950 . S
H319 C343 0.950 . S
H320 C344 0.950 . S
H321 C345 0.951 . S
H322 C347 0.951 . S
H323 C349 0.950 . S
H324 C350 0.950 . S
H325 C352 0.950 . S
H326 C355 0.950 . S
H327 C356 0.950 . S
H328 C358 0.950 . S
H329 C359 0.950 . S
C330 H312 0.951 . S
C330 C331 1.366 . S
C330 C332 1.388 . S
C331 C330 1.366 . S
C331 C335 1.385 . S
C332 H313 0.951 . S
C332 C330 1.388 . S
C332 C333 1.366 . S
C333 C332 1.366 . S
C333 C334 1.414 . S
C333 C336 1.499 . S
C334 H314 0.950 . S
C334 C333 1.414 . S
C334 C335 1.374 . S
C335 H315 0.950 . S
C335 C331 1.385 . S
C335 C334 1.374 . S
C336 C333 1.499 . S
C336 C337 1.373 . S
C336 C338 1.389 . S
C337 H316 0.950 . S
C337 C336 1.373 . S
C337 C353 1.377 . S
C338 C336 1.389 . S
C338 C339 1.524 . S
C338 C352 1.377 . S
C339 C338 1.524 . S
C339 C340 1.397 . S
C339 C344 1.363 . S
C340 H317 0.950 . S
C340 C339 1.397 . S
C340 C341 1.334 . S
C341 H318 0.950 . S
C341 C340 1.334 . S
C341 C342 1.287 . S
C342 C341 1.287 . S
C342 C343 1.524 . S
C342 H361 0.913 . S
C343 H319 0.950 . S
C343 C342 1.524 . S
C343 C344 1.415 . S
C344 H320 0.950 . S
C344 C339 1.363 . S
C344 C343 1.415 . S
C345 H321 0.951 . S
C345 C346 1.366 . S
C345 C347 1.388 . S
C346 C345 1.366 . S
C346 C350 1.385 . S
C347 H322 0.951 . S
C347 C345 1.388 . S
C347 C348 1.366 . S
C348 C347 1.366 . S
C348 C349 1.414 . S
C348 C351 1.499 . S
C349 H323 0.950 . S
C349 C348 1.414 . S
C349 C350 1.374 . S
C350 H324 0.950 . S
C350 C346 1.385 . S
C350 C349 1.374 . S
C351 C348 1.499 . S
C351 C352 1.373 . S
C351 C353 1.389 . S
C352 H325 0.950 . S
C352 C338 1.377 . S
C352 C351 1.373 . S
C353 C337 1.377 . S
C353 C351 1.389 . S
C353 C354 1.524 . S
C354 C353 1.524 . S
C354 C355 1.397 . S
C354 C359 1.363 . S
C355 H326 0.950 . S
C355 C354 1.397 . S
C355 C356 1.334 . S
C356 H327 0.950 . S
C356 C355 1.334 . S
C356 C357 1.287 . S
C357 C356 1.287 . S
C357 C358 1.524 . S
C357 H360 0.999 . S
C358 H328 0.950 . S
C358 C357 1.524 . S
C358 C359 1.415 . S
C359 H329 0.950 . S
C359 C354 1.363 . S
C359 C358 1.415 . S
H360 C357 0.999 . S
H361 C342 0.913 . S
H362 C380 0.951 . S
H363 C382 0.951 . S
H364 C384 0.950 . S
H365 C385 0.950 1_554 S
H366 C387 0.950 . S
H367 C390 0.950 . S
H368 C391 0.950 . S
H369 C393 0.950 . S
H370 C394 0.950 . S
H371 C395 0.951 . S
H372 C397 0.951 . S
H373 C399 0.950 . S
H374 C400 0.950 . S
H375 C402 0.950 . S
H376 C405 0.950 . S
H377 C406 0.950 . S
H378 C408 0.950 1_554 S
H379 C409 0.950 . S
C380 H362 0.951 . S
C380 C381 1.366 . S
C380 C382 1.388 . S
C381 C380 1.366 . S
C381 C385 1.385 . S
C382 H363 0.951 . S
C382 C380 1.388 . S
C382 C383 1.366 . S
C383 C382 1.366 . S
C383 C384 1.414 . S
C383 C386 1.499 . S
C384 H364 0.950 . S
C384 C383 1.414 . S
C384 C385 1.374 . S
C385 H365 0.950 1_556 S
C385 C381 1.385 . S
C385 C384 1.374 . S
C386 C383 1.499 . S
C386 C387 1.373 . S
C386 C388 1.389 . S
C387 H366 0.950 . S
C387 C386 1.373 . S
C387 C403 1.377 . S
C388 C386 1.389 . S
C388 C389 1.524 . S
C388 C402 1.377 . S
C389 C388 1.524 . S
C389 C390 1.397 . S
C389 C394 1.363 . S
C390 H367 0.950 . S
C390 C389 1.397 . S
C390 C391 1.334 . S
C391 H368 0.950 . S
C391 C390 1.334 . S
C391 C392 1.287 . S
C392 C391 1.287 . S
C392 C393 1.524 . S
C392 H411 0.913 . S
C393 H369 0.950 . S
C393 C392 1.524 . S
C393 C394 1.415 . S
C394 H370 0.950 . S
C394 C389 1.363 . S
C394 C393 1.415 . S
C395 H371 0.951 . S
C395 C396 1.366 . S
C395 C397 1.388 . S
C396 C395 1.366 . S
C396 C400 1.385 . S
C397 H372 0.951 . S
C397 C395 1.388 . S
C397 C398 1.366 . S
C398 C397 1.366 . S
C398 C399 1.414 . S
C398 C401 1.499 . S
C399 H373 0.950 . S
C399 C398 1.414 . S
C399 C400 1.374 . S
C400 H374 0.950 . S
C400 C396 1.385 . S
C400 C399 1.374 . S
C401 C398 1.499 . S
C401 C402 1.373 . S
C401 C403 1.389 . S
C402 H375 0.950 . S
C402 C388 1.377 . S
C402 C401 1.373 . S
C403 C387 1.377 . S
C403 C401 1.389 . S
C403 C404 1.524 . S
C404 C403 1.524 . S
C404 C405 1.397 . S
C404 C409 1.363 . S
C405 H376 0.950 . S
C405 C404 1.397 . S
C405 C406 1.334 . S
C406 H377 0.950 . S
C406 C405 1.334 . S
C406 C407 1.287 . S
C407 C406 1.287 . S
C407 C408 1.524 . S
C407 H410 0.999 . S
C408 H378 0.950 1_556 S
C408 C407 1.524 . S
C408 C409 1.415 . S
C409 H379 0.950 . S
C409 C404 1.363 . S
C409 C408 1.415 . S
H410 C407 0.999 . S
H411 C392 0.913 . S
H412 C430 0.951 . S
H413 C432 0.951 . S
H414 C434 0.950 . S
H415 C435 0.950 . S
H416 C437 0.950 . S
H417 C440 0.945 1_554 S
H418 C441 0.950 . S
H419 C443 0.950 . S
H420 C444 0.950 . S
H421 C445 0.951 . S
H422 C447 0.951 . S
H423 C449 0.950 . S
H424 C450 0.950 . S
H425 C452 0.950 . S
H426 C455 0.945 1_556 S
H427 C456 0.950 . S
H428 C458 0.950 . S
H429 C459 0.950 . S
C430 H412 0.951 . S
C430 C431 1.366 . S
C430 C432 1.388 . S
C431 C430 1.366 . S
C431 C435 1.385 . S
C432 H413 0.951 . S
C432 C430 1.388 . S
C432 C433 1.366 . S
C433 C432 1.366 . S
C433 C434 1.414 . S
C433 C436 1.499 . S
C434 H414 0.950 . S
C434 C433 1.414 . S
C434 C435 1.374 . S
C435 H415 0.950 . S
C435 C431 1.385 . S
C435 C434 1.374 . S
C436 C433 1.499 . S
C436 C437 1.373 . S
C436 C438 1.389 1_554 S
C437 H416 0.950 . S
C437 C436 1.373 . S
C437 C453 1.377 . S
C438 C436 1.389 1_556 S
C438 C439 1.524 . S
C438 C452 1.377 . S
C439 C438 1.524 . S
C439 C440 1.397 . S
C439 C444 1.363 . S
C440 H417 0.945 1_556 S
C440 C439 1.397 . S
C440 C441 1.334 . S
C441 H418 0.950 . S
C441 C440 1.334 . S
C441 C442 1.287 . S
C442 C441 1.287 . S
C442 C443 1.524 . S
C442 H461 0.913 . S
C443 H419 0.950 . S
C443 C442 1.524 . S
C443 C444 1.415 . S
C444 H420 0.950 . S
C444 C439 1.363 . S
C444 C443 1.415 . S
C445 H421 0.951 . S
C445 C446 1.366 . S
C445 C447 1.388 . S
C446 C445 1.366 . S
C446 C450 1.385 . S
C447 H422 0.951 . S
C447 C445 1.388 . S
C447 C448 1.366 . S
C448 C447 1.366 . S
C448 C449 1.414 . S
C448 C451 1.499 . S
C449 H423 0.950 . S
C449 C448 1.414 . S
C449 C450 1.374 . S
C450 H424 0.950 . S
C450 C446 1.385 . S
C450 C449 1.374 . S
C451 C448 1.499 . S
C451 C452 1.373 . S
C451 C453 1.389 1_556 S
C452 H425 0.950 . S
C452 C438 1.377 . S
C452 C451 1.373 . S
C453 C437 1.377 . S
C453 C451 1.389 1_554 S
C453 C454 1.524 . S
C454 C453 1.524 . S
C454 C455 1.397 . S
C454 C459 1.363 . S
C455 H426 0.945 1_554 S
C455 C454 1.397 . S
C455 C456 1.334 . S
C456 H427 0.950 . S
C456 C455 1.334 . S
C456 C457 1.287 . S
C457 C456 1.287 . S
C457 C458 1.524 . S
C457 H460 0.999 . S
C458 H428 0.950 . S
C458 C457 1.524 . S
C458 C459 1.415 . S
C459 H429 0.950 . S
C459 C454 1.363 . S
C459 C458 1.415 . S
H460 C457 0.999 . S
H461 C442 0.913 . S
H462 C480 0.951 . S
H463 C482 0.951 . S
H464 C484 0.950 . S
H465 C485 0.950 . S
H466 C487 0.950 . S
H467 C490 0.950 1_554 S
H468 C491 0.950 . S
H469 C493 0.950 . S
H470 C494 0.950 . S
H471 C495 0.951 . S
H472 C497 0.951 . S
H473 C499 0.950 . S
H474 C500 0.950 . S
H475 C502 0.950 . S
H476 C505 0.950 . S
H477 C506 0.950 . S
H478 C508 0.950 . S
H479 C509 0.950 . S
C480 H462 0.951 . S
C480 C481 1.366 . S
C480 C482 1.388 . S
C481 C480 1.366 . S
C481 C485 1.385 . S
C482 H463 0.951 . S
C482 C480 1.388 . S
C482 C483 1.366 . S
C483 C482 1.366 . S
C483 C484 1.414 . S
C483 C486 1.499 . S
C484 H464 0.950 . S
C484 C483 1.414 . S
C484 C485 1.374 . S
C485 H465 0.950 . S
C485 C481 1.385 . S
C485 C484 1.374 . S
C486 C483 1.499 . S
C486 C487 1.373 . S
C486 C488 1.389 . S
C487 H466 0.950 . S
C487 C486 1.373 . S
C487 C503 1.377 . S
C488 C486 1.389 . S
C488 C489 1.524 . S
C488 C502 1.377 . S
C489 C488 1.524 . S
C489 C490 1.397 1_554 S
C489 C494 1.363 . S
C490 H467 0.950 1_556 S
C490 C489 1.397 1_556 S
C490 C491 1.334 . S
C491 H468 0.950 . S
C491 C490 1.334 . S
C491 C492 1.287 . S
C492 C491 1.287 . S
C492 C493 1.524 . S
C492 H511 0.913 . S
C493 H469 0.950 . S
C493 C492 1.524 . S
C493 C494 1.415 1_556 S
C494 H470 0.950 . S
C494 C489 1.363 . S
C494 C493 1.415 1_554 S
C495 H471 0.951 . S
C495 C496 1.366 . S
C495 C497 1.388 . S
C496 C495 1.366 . S
C496 C500 1.385 . S
C497 H472 0.951 . S
C497 C495 1.388 . S
C497 C498 1.366 . S
C498 C497 1.366 . S
C498 C499 1.414 . S
C498 C501 1.499 . S
C499 H473 0.950 . S
C499 C498 1.414 . S
C499 C500 1.374 . S
C500 H474 0.950 . S
C500 C496 1.385 . S
C500 C499 1.374 . S
C501 C498 1.499 . S
C501 C502 1.373 . S
C501 C503 1.389 . S
C502 H475 0.950 . S
C502 C488 1.377 . S
C502 C501 1.373 . S
C503 C487 1.377 . S
C503 C501 1.389 . S
C503 C504 1.524 . S
C504 C503 1.524 . S
C504 C505 1.397 . S
C504 C509 1.363 . S
C505 H476 0.950 . S
C505 C504 1.397 . S
C505 C506 1.334 . S
C506 H477 0.950 . S
C506 C505 1.334 . S
C506 C507 1.287 . S
C507 C506 1.287 . S
C507 C508 1.524 . S
C507 H510 0.999 . S
C508 H478 0.950 . S
C508 C507 1.524 . S
C508 C509 1.415 . S
C509 H479 0.950 . S
C509 C504 1.363 . S
C509 C508 1.415 . S
H510 C507 0.999 . S
H511 C492 0.913 . S
H512 C530 0.951 . S
H513 C532 0.951 . S
H514 C534 0.950 . S
H515 C535 0.950 . S
H516 C537 0.950 . S
H517 C540 0.950 . S
H518 C541 0.950 . S
H519 C543 0.950 . S
H520 C544 0.950 . S
H521 C545 0.951 . S
H522 C547 0.951 . S
H523 C549 0.950 . S
H524 C550 0.950 . S
H525 C552 0.950 . S
H526 C555 0.950 . S
H527 C556 0.950 . S
H528 C558 0.950 . S
H529 C559 0.950 . S
C530 H512 0.951 . S
C530 C531 1.366 . S
C530 C532 1.388 . S
C531 C530 1.366 . S
C531 C535 1.385 . S
C532 H513 0.951 . S
C532 C530 1.388 . S
C532 C533 1.366 . S
C533 C532 1.366 . S
C533 C534 1.414 . S
C533 C536 1.499 . S
C534 H514 0.950 . S
C534 C533 1.414 . S
C534 C535 1.374 . S
C535 H515 0.950 . S
C535 C531 1.385 . S
C535 C534 1.374 . S
C536 C533 1.499 . S
C536 C537 1.373 . S
C536 C538 1.389 . S
C537 H516 0.950 . S
C537 C536 1.373 . S
C537 C553 1.377 . S
C538 C536 1.389 . S
C538 C539 1.524 . S
C538 C552 1.377 . S
C539 C538 1.524 . S
C539 C540 1.397 . S
C539 C544 1.363 . S
C540 H517 0.950 . S
C540 C539 1.397 . S
C540 C541 1.334 . S
C541 H518 0.950 . S
C541 C540 1.334 . S
C541 C542 1.287 . S
C542 C541 1.287 . S
C542 C543 1.524 . S
C542 H561 0.913 . S
C543 H519 0.950 . S
C543 C542 1.524 . S
C543 C544 1.415 . S
C544 H520 0.950 . S
C544 C539 1.363 . S
C544 C543 1.415 . S
C545 H521 0.951 . S
C545 C546 1.366 . S
C545 C547 1.388 . S
C546 C545 1.366 . S
C546 C550 1.385 . S
C547 H522 0.951 . S
C547 C545 1.388 . S
C547 C548 1.366 . S
C548 C547 1.366 . S
C548 C549 1.414 . S
C548 C551 1.499 . S
C549 H523 0.950 . S
C549 C548 1.414 . S
C549 C550 1.374 . S
C550 H524 0.950 . S
C550 C546 1.385 . S
C550 C549 1.374 . S
C551 C548 1.499 . S
C551 C552 1.373 . S
C551 C553 1.389 . S
C552 H525 0.950 . S
C552 C538 1.377 . S
C552 C551 1.373 . S
C553 C537 1.377 . S
C553 C551 1.389 . S
C553 C554 1.524 . S
C554 C553 1.524 . S
C554 C555 1.397 . S
C554 C559 1.363 . S
C555 H526 0.950 . S
C555 C554 1.397 . S
C555 C556 1.334 . S
C556 H527 0.950 . S
C556 C555 1.334 . S
C556 C557 1.287 . S
C557 C556 1.287 . S
C557 C558 1.524 . S
C557 H560 0.999 . S
C558 H528 0.950 . S
C558 C557 1.524 . S
C558 C559 1.415 . S
C559 H529 0.950 . S
C559 C554 1.363 . S
C559 C558 1.415 . S
H560 C557 0.999 . S
H561 C542 0.913 . S
H562 C580 0.951 . S
H563 C582 0.951 . S
H564 C584 0.950 . S
H565 C585 0.950 . S
H566 C587 0.950 . S
H567 C590 0.950 . S
H568 C591 0.950 . S
H569 C593 0.950 . S
H570 C594 0.950 . S
H571 C595 0.951 . S
H572 C597 0.951 . S
H573 C599 0.950 . S
H574 C600 0.950 . S
H575 C602 0.950 . S
H576 C605 0.950 . S
H577 C606 0.950 . S
H578 C608 0.950 . S
H579 C609 0.950 . S
C580 H562 0.951 . S
C580 C581 1.366 . S
C580 C582 1.388 . S
C581 C580 1.366 . S
C581 C585 1.385 . S
C582 H563 0.951 . S
C582 C580 1.388 . S
C582 C583 1.366 . S
C583 C582 1.366 . S
C583 C584 1.414 . S
C583 C586 1.499 . S
C584 H564 0.950 . S
C584 C583 1.414 . S
C584 C585 1.374 . S
C585 H565 0.950 . S
C585 C581 1.385 . S
C585 C584 1.374 . S
C586 C583 1.499 . S
C586 C587 1.373 . S
C586 C588 1.389 . S
C587 H566 0.950 . S
C587 C586 1.373 . S
C587 C603 1.377 . S
C588 C586 1.389 . S
C588 C589 1.524 . S
C588 C602 1.377 . S
C589 C588 1.524 . S
C589 C590 1.397 . S
C589 C594 1.363 . S
C590 H567 0.950 . S
C590 C589 1.397 . S
C590 C591 1.334 1_556 S
C591 H568 0.950 . S
C591 C590 1.334 1_554 S
C591 C592 1.287 . S
C592 C591 1.287 . S
C592 C593 1.524 1_554 S
C592 H611 0.913 . S
C593 H569 0.950 . S
C593 C592 1.524 1_556 S
C593 C594 1.415 . S
C594 H570 0.950 . S
C594 C589 1.363 . S
C594 C593 1.415 . S
C595 H571 0.951 . S
C595 C596 1.366 . S
C595 C597 1.388 . S
C596 C595 1.366 . S
C596 C600 1.385 . S
C597 H572 0.951 . S
C597 C595 1.388 . S
C597 C598 1.366 . S
C598 C597 1.366 . S
C598 C599 1.414 . S
C598 C601 1.499 . S
C599 H573 0.950 . S
C599 C598 1.414 . S
C599 C600 1.374 . S
C600 H574 0.950 . S
C600 C596 1.385 . S
C600 C599 1.374 . S
C601 C598 1.499 . S
C601 C602 1.373 . S
C601 C603 1.389 . S
C602 H575 0.950 . S
C602 C588 1.377 . S
C602 C601 1.373 . S
C603 C587 1.377 . S
C603 C601 1.389 . S
C603 C604 1.524 . S
C604 C603 1.524 . S
C604 C605 1.397 . S
C604 C609 1.363 . S
C605 H576 0.950 . S
C605 C604 1.397 . S
C605 C606 1.334 . S
C606 H577 0.950 . S
C606 C605 1.334 . S
C606 C607 1.287 . S
C607 C606 1.287 . S
C607 C608 1.524 . S
C607 H610 0.999 . S
C608 H578 0.950 . S
C608 C607 1.524 . S
C608 C609 1.415 . S
C609 H579 0.950 . S
C609 C604 1.363 . S
C609 C608 1.415 . S
H610 C607 0.999 . S
H611 C592 0.913 . S
H612 C630 0.951 . S
H613 C632 0.951 . S
H614 C634 0.950 . S
H615 C635 0.950 . S
H616 C637 0.950 . S
H617 C640 0.950 . S
H618 C641 0.950 . S
H619 C643 0.950 . S
H620 C644 0.950 . S
H621 C645 0.951 . S
H622 C647 0.951 . S
H623 C649 0.950 . S
H624 C650 0.950 . S
H625 C652 0.950 . S
H626 C655 0.950 . S
H627 C656 0.950 . S
H628 C658 0.950 . S
H629 C659 0.950 . S
C630 H612 0.951 . S
C630 C631 1.366 1_556 S
C630 C632 1.388 . S
C631 C630 1.366 1_554 S
C631 C635 1.385 . S
C632 H613 0.951 . S
C632 C630 1.388 . S
C632 C633 1.366 1_556 S
C633 C632 1.366 1_554 S
C633 C634 1.414 . S
C633 C636 1.499 . S
C634 H614 0.950 . S
C634 C633 1.414 . S
C634 C635 1.374 . S
C635 H615 0.950 . S
C635 C631 1.385 . S
C635 C634 1.374 . S
C636 C633 1.499 . S
C636 C637 1.373 . S
C636 C638 1.389 1_554 S
C637 H616 0.950 . S
C637 C636 1.373 . S
C637 C653 1.377 . S
C638 C636 1.389 1_556 S
C638 C639 1.524 . S
C638 C652 1.377 . S
C639 C638 1.524 . S
C639 C640 1.397 . S
C639 C644 1.363 . S
C640 H617 0.950 . S
C640 C639 1.397 . S
C640 C641 1.334 . S
C641 H618 0.950 . S
C641 C640 1.334 . S
C641 C642 1.287 . S
C642 C641 1.287 . S
C642 C643 1.524 . S
C642 H661 0.913 . S
C643 H619 0.950 . S
C643 C642 1.524 . S
C643 C644 1.415 . S
C644 H620 0.950 . S
C644 C639 1.363 . S
C644 C643 1.415 . S
C645 H621 0.951 . S
C645 C646 1.366 1_554 S
C645 C647 1.388 . S
C646 C645 1.366 1_556 S
C646 C650 1.385 . S
C647 H622 0.951 . S
C647 C645 1.388 . S
C647 C648 1.366 1_554 S
C648 C647 1.366 1_556 S
C648 C649 1.414 . S
C648 C651 1.499 . S
C649 H623 0.950 . S
C649 C648 1.414 . S
C649 C650 1.374 . S
C650 H624 0.950 . S
C650 C646 1.385 . S
C650 C649 1.374 . S
C651 C648 1.499 . S
C651 C652 1.373 . S
C651 C653 1.389 1_556 S
C652 H625 0.950 . S
C652 C638 1.377 . S
C652 C651 1.373 . S
C653 C637 1.377 . S
C653 C651 1.389 1_554 S
C653 C654 1.524 . S
C654 C653 1.524 . S
C654 C655 1.397 . S
C654 C659 1.363 . S
C655 H626 0.950 . S
C655 C654 1.397 . S
C655 C656 1.334 . S
C656 H627 0.950 . S
C656 C655 1.334 . S
C656 C657 1.287 . S
C657 C656 1.287 . S
C657 C658 1.524 . S
C657 H660 0.999 . S
C658 H628 0.950 . S
C658 C657 1.524 . S
C658 C659 1.415 . S
C659 H629 0.950 . S
C659 C654 1.363 . S
C659 C658 1.415 . S
H660 C657 0.999 . S
H661 C642 0.913 . S
H662 C680 0.951 . S
H663 C682 0.951 . S
H664 C684 0.950 . S
H665 C685 0.950 . S
H666 C687 0.950 . S
H667 C690 0.950 . S
H668 C691 0.950 . S
H669 C693 0.950 . S
H670 C694 0.950 . S
H671 C695 0.951 . S
H672 C697 0.951 . S
H673 C699 0.950 . S
H674 C700 0.950 . S
H675 C702 0.950 . S
H676 C705 0.950 . S
H677 C706 0.950 . S
H678 C708 0.950 . S
H679 C709 0.950 . S
C680 H662 0.951 . S
C680 C681 1.366 . S
C680 C682 1.388 . S
C681 C680 1.366 . S
C681 C685 1.385 . S
C682 H663 0.951 . S
C682 C680 1.388 . S
C682 C683 1.366 . S
C683 C682 1.366 . S
C683 C684 1.414 . S
C683 C686 1.499 . S
C684 H664 0.950 . S
C684 C683 1.414 . S
C684 C685 1.374 . S
C685 H665 0.950 . S
C685 C681 1.385 . S
C685 C684 1.374 . S
C686 C683 1.499 . S
C686 C687 1.373 . S
C686 C688 1.389 . S
C687 H666 0.950 . S
C687 C686 1.373 . S
C687 C703 1.377 . S
C688 C686 1.389 . S
C688 C689 1.524 . S
C688 C702 1.377 . S
C689 C688 1.524 . S
C689 C690 1.397 . S
C689 C694 1.363 . S
C690 H667 0.950 . S
C690 C689 1.397 . S
C690 C691 1.334 . S
C691 H668 0.950 . S
C691 C690 1.334 . S
C691 C692 1.287 . S
C692 C691 1.287 . S
C692 C693 1.524 1_554 S
C692 H711 0.913 1_554 S
C693 H669 0.950 . S
C693 C692 1.524 1_556 S
C693 C694 1.415 1_556 S
C694 H670 0.950 . S
C694 C689 1.363 . S
C694 C693 1.415 1_554 S
C695 H671 0.951 . S
C695 C696 1.366 . S
C695 C697 1.388 . S
C696 C695 1.366 . S
C696 C700 1.385 . S
C697 H672 0.951 . S
C697 C695 1.388 . S
C697 C698 1.366 . S
C698 C697 1.366 . S
C698 C699 1.414 . S
C698 C701 1.499 . S
C699 H673 0.950 . S
C699 C698 1.414 . S
C699 C700 1.374 . S
C700 H674 0.950 . S
C700 C696 1.385 . S
C700 C699 1.374 . S
C701 C698 1.499 . S
C701 C702 1.373 . S
C701 C703 1.389 . S
C702 H675 0.950 . S
C702 C688 1.377 . S
C702 C701 1.373 . S
C703 C687 1.377 . S
C703 C701 1.389 . S
C703 C704 1.524 . S
C704 C703 1.524 . S
C704 C705 1.397 . S
C704 C709 1.363 . S
C705 H676 0.950 . S
C705 C704 1.397 . S
C705 C706 1.334 . S
C706 H677 0.950 . S
C706 C705 1.334 . S
C706 C707 1.287 . S
C707 C706 1.287 . S
C707 C708 1.524 . S
C707 H710 0.999 . S
C708 H678 0.950 . S
C708 C707 1.524 . S
C708 C709 1.415 . S
C709 H679 0.950 . S
C709 C704 1.363 . S
C709 C708 1.415 . S
H710 C707 0.999 . S
H711 C692 0.913 1_556 S
H712 C730 0.951 . S
H713 C732 0.951 . S
H714 C734 0.950 . S
H715 C735 0.950 . S
H716 C737 0.950 . S
H717 C740 0.950 . S
H718 C741 0.950 . S
H719 C743 0.950 . S
H720 C744 0.950 . S
H721 C745 0.951 . S
H722 C747 0.951 . S
H723 C749 0.950 . S
H724 C750 0.950 . S
H725 C752 0.950 . S
H726 C755 0.950 . S
H727 C756 0.950 . S
H728 C758 0.950 . S
H729 C759 0.950 . S
C730 H712 0.951 . S
C730 C731 1.366 . S
C730 C732 1.388 . S
C731 C730 1.366 . S
C731 C735 1.385 . S
C732 H713 0.951 . S
C732 C730 1.388 . S
C732 C733 1.366 . S
C733 C732 1.366 . S
C733 C734 1.414 . S
C733 C736 1.499 . S
C734 H714 0.950 . S
C734 C733 1.414 . S
C734 C735 1.374 . S
C735 H715 0.950 . S
C735 C731 1.385 . S
C735 C734 1.374 . S
C736 C733 1.499 . S
C736 C737 1.373 . S
C736 C738 1.389 . S
C737 H716 0.950 . S
C737 C736 1.373 . S
C737 C753 1.377 . S
C738 C736 1.389 . S
C738 C739 1.524 . S
C738 C752 1.377 . S
C739 C738 1.524 . S
C739 C740 1.397 . S
C739 C744 1.363 . S
C740 H717 0.950 . S
C740 C739 1.397 . S
C740 C741 1.334 1_556 S
C741 H718 0.950 . S
C741 C740 1.334 1_554 S
C741 C742 1.287 . S
C742 C741 1.287 . S
C742 C743 1.524 1_554 S
C742 H761 0.913 . S
C743 H719 0.950 . S
C743 C742 1.524 1_556 S
C743 C744 1.415 . S
C744 H720 0.950 . S
C744 C739 1.363 . S
C744 C743 1.415 . S
C745 H721 0.951 . S
C745 C746 1.366 . S
C745 C747 1.388 . S
C746 C745 1.366 . S
C746 C750 1.385 . S
C747 H722 0.951 . S
C747 C745 1.388 . S
C747 C748 1.366 . S
C748 C747 1.366 . S
C748 C749 1.414 . S
C748 C751 1.499 . S
C749 H723 0.950 . S
C749 C748 1.414 . S
C749 C750 1.374 . S
C750 H724 0.950 . S
C750 C746 1.385 . S
C750 C749 1.374 . S
C751 C748 1.499 . S
C751 C752 1.373 . S
C751 C753 1.389 . S
C752 H725 0.950 . S
C752 C738 1.377 . S
C752 C751 1.373 . S
C753 C737 1.377 . S
C753 C751 1.389 . S
C753 C754 1.524 . S
C754 C753 1.524 . S
C754 C755 1.397 . S
C754 C759 1.363 . S
C755 H726 0.950 . S
C755 C754 1.397 . S
C755 C756 1.334 . S
C756 H727 0.950 . S
C756 C755 1.334 . S
C756 C757 1.287 . S
C757 C756 1.287 . S
C757 C758 1.524 . S
C757 H760 0.999 . S
C758 H728 0.950 . S
C758 C757 1.524 . S
C758 C759 1.415 . S
C759 H729 0.950 . S
C759 C754 1.363 . S
C759 C758 1.415 . S
H760 C757 0.999 . S
H761 C742 0.913 . S
H762 C780 0.951 . S
H763 C782 0.951 . S
H764 C784 0.950 . S
H765 C785 0.950 . S
H766 C787 0.950 . S
H767 C790 0.950 . S
H768 C791 0.950 . S
H769 C793 0.950 . S
H770 C794 0.950 . S
H771 C795 0.951 . S
H772 C797 0.951 . S
H773 C799 0.950 . S
H774 C800 0.950 . S
H775 C802 0.950 . S
H776 C805 0.950 . S
H777 C806 0.964 . S
H778 C808 0.950 . S
H779 C809 0.950 . S
C780 H762 0.951 . S
C780 C781 1.366 . S
C780 C782 1.388 . S
C781 C780 1.366 . S
C781 C785 1.385 1_556 S
C782 H763 0.951 . S
C782 C780 1.388 . S
C782 C783 1.366 . S
C783 C782 1.366 . S
C783 C784 1.414 1_556 S
C783 C786 1.499 . S
C784 H764 0.950 . S
C784 C783 1.414 1_554 S
C784 C785 1.374 . S
C785 H765 0.950 . S
C785 C781 1.385 1_554 S
C785 C784 1.374 . S
C786 C783 1.499 . S
C786 C787 1.373 1_556 S
C786 C788 1.389 . S
C787 H766 0.950 . S
C787 C786 1.373 1_554 S
C787 C803 1.377 . S
C788 C786 1.389 . S
C788 C789 1.524 . S
C788 C802 1.377 . S
C789 C788 1.524 . S
C789 C790 1.397 . S
C789 C794 1.363 . S
C790 H767 0.950 . S
C790 C789 1.397 . S
C790 C791 1.334 . S
C791 H768 0.950 . S
C791 C790 1.334 . S
C791 C792 1.287 . S
C792 C791 1.287 . S
C792 C793 1.524 . S
C792 H811 0.913 . S
C793 H769 0.950 . S
C793 C792 1.524 . S
C793 C794 1.415 . S
C794 H770 0.950 . S
C794 C789 1.363 . S
C794 C793 1.415 . S
C795 H771 0.951 . S
C795 C796 1.366 . S
C795 C797 1.388 . S
C796 C795 1.366 . S
C796 C800 1.385 1_554 S
C797 H772 0.951 . S
C797 C795 1.388 . S
C797 C798 1.366 . S
C798 C797 1.366 . S
C798 C799 1.414 1_554 S
C798 C801 1.499 . S
C799 H773 0.950 . S
C799 C798 1.414 1_556 S
C799 C800 1.374 . S
C800 H774 0.950 . S
C800 C796 1.385 1_556 S
C800 C799 1.374 . S
C801 C798 1.499 . S
C801 C802 1.373 1_554 S
C801 C803 1.389 . S
C802 H775 0.950 . S
C802 C788 1.377 . S
C802 C801 1.373 1_556 S
C803 C787 1.377 . S
C803 C801 1.389 . S
C803 C804 1.524 . S
C804 C803 1.524 . S
C804 C805 1.397 . S
C804 C809 1.363 . S
C805 H776 0.950 . S
C805 C804 1.397 . S
C805 C806 1.334 . S
C806 H777 0.964 . S
C806 C805 1.334 . S
C806 C807 1.287 . S
C807 C806 1.287 . S
C807 C808 1.524 . S
C807 H810 0.999 . S
C808 H778 0.950 . S
C808 C807 1.524 . S
C808 C809 1.415 . S
C809 H779 0.950 . S
C809 C804 1.363 . S
C809 C808 1.415 . S
H810 C807 0.999 . S
H811 C792 0.913 . S
H812 C830 0.951 . S
H813 C832 0.951 . S
H814 C834 0.950 . S
H815 C835 0.950 . S
H816 C837 0.950 . S
H817 C840 0.950 . S
H818 C841 0.950 . S
H819 C843 0.950 . S
H820 C844 0.950 . S
H821 C845 0.951 . S
H822 C847 0.951 . S
H823 C849 0.950 . S
H824 C850 0.950 . S
H825 C852 0.950 . S
H826 C855 0.950 . S
H827 C856 0.950 1_556 S
H828 C858 0.950 . S
H829 C859 0.950 . S
C830 H812 0.951 . S
C830 C831 1.366 . S
C830 C832 1.388 . S
C831 C830 1.366 . S
C831 C835 1.385 . S
C832 H813 0.951 . S
C832 C830 1.388 . S
C832 C833 1.366 . S
C833 C832 1.366 . S
C833 C834 1.414 . S
C833 C836 1.499 . S
C834 H814 0.950 . S
C834 C833 1.414 . S
C834 C835 1.374 . S
C835 H815 0.950 . S
C835 C831 1.385 . S
C835 C834 1.374 . S
C836 C833 1.499 . S
C836 C837 1.373 . S
C836 C838 1.389 . S
C837 H816 0.950 . S
C837 C836 1.373 . S
C837 C853 1.377 . S
C838 C836 1.389 . S
C838 C839 1.524 . S
C838 C852 1.377 . S
C839 C838 1.524 . S
C839 C840 1.397 . S
C839 C844 1.363 . S
C840 H817 0.950 . S
C840 C839 1.397 . S
C840 C841 1.334 . S
C841 H818 0.950 . S
C841 C840 1.334 . S
C841 C842 1.287 . S
C842 C841 1.287 . S
C842 C843 1.524 . S
C842 H861 0.913 . S
C843 H819 0.950 . S
C843 C842 1.524 . S
C843 C844 1.415 . S
C844 H820 0.950 . S
C844 C839 1.363 . S
C844 C843 1.415 . S
C845 H821 0.951 . S
C845 C846 1.366 . S
C845 C847 1.388 . S
C846 C845 1.366 . S
C846 C850 1.385 . S
C847 H822 0.951 . S
C847 C845 1.388 . S
C847 C848 1.366 . S
C848 C847 1.366 . S
C848 C849 1.414 . S
C848 C851 1.499 . S
C849 H823 0.950 . S
C849 C848 1.414 . S
C849 C850 1.374 . S
C850 H824 0.950 . S
C850 C846 1.385 . S
C850 C849 1.374 . S
C851 C848 1.499 . S
C851 C852 1.373 . S
C851 C853 1.389 . S
C852 H825 0.950 . S
C852 C838 1.377 . S
C852 C851 1.373 . S
C853 C837 1.377 . S
C853 C851 1.389 . S
C853 C854 1.524 . S
C854 C853 1.524 . S
C854 C855 1.397 . S
C854 C859 1.363 . S
C855 H826 0.950 . S
C855 C854 1.397 . S
C855 C856 1.334 . S
C856 H827 0.950 1_554 S
C856 C855 1.334 . S
C856 C857 1.287 . S
C857 C856 1.287 . S
C857 C858 1.524 . S
C857 H860 0.999 1_554 S
C858 H828 0.950 . S
C858 C857 1.524 . S
C858 C859 1.415 . S
C859 H829 0.950 . S
C859 C854 1.363 . S
C859 C858 1.415 . S
H860 C857 0.999 1_556 S
H861 C842 0.913 . S
H862 C880 0.951 . S
H863 C882 0.951 . S
H864 C884 0.950 . S
H865 C885 0.950 . S
H866 C887 0.950 . S
H867 C890 0.950 . S
H868 C891 0.950 . S
H869 C893 0.950 . S
H870 C894 0.950 . S
H871 C895 0.951 . S
H872 C897 0.951 . S
H873 C899 0.950 . S
H874 C900 0.950 . S
H875 C902 0.950 . S
H876 C905 0.950 . S
H877 C906 0.950 . S
H878 C908 0.950 . S
H879 C909 0.950 . S
C880 H862 0.951 . S
C880 C881 1.366 . S
C880 C882 1.388 . S
C881 C880 1.366 . S
C881 C885 1.385 . S
C882 H863 0.951 . S
C882 C880 1.388 . S
C882 C883 1.366 . S
C883 C882 1.366 . S
C883 C884 1.414 . S
C883 C886 1.499 . S
C884 H864 0.950 . S
C884 C883 1.414 . S
C884 C885 1.374 . S
C885 H865 0.950 . S
C885 C881 1.385 . S
C885 C884 1.374 . S
C886 C883 1.499 . S
C886 C887 1.373 . S
C886 C888 1.389 . S
C887 H866 0.950 . S
C887 C886 1.373 . S
C887 C903 1.377 . S
C888 C886 1.389 . S
C888 C889 1.524 . S
C888 C902 1.377 . S
C889 C888 1.524 . S
C889 C890 1.397 . S
C889 C894 1.363 . S
C890 H867 0.950 . S
C890 C889 1.397 . S
C890 C891 1.334 . S
C891 H868 0.950 . S
C891 C890 1.334 . S
C891 C892 1.287 . S
C892 C891 1.287 . S
C892 C893 1.524 . S
C892 H911 0.913 . S
C893 H869 0.950 . S
C893 C892 1.524 . S
C893 C894 1.415 . S
C894 H870 0.950 . S
C894 C889 1.363 . S
C894 C893 1.415 . S
C895 H871 0.951 . S
C895 C896 1.366 . S
C895 C897 1.388 . S
C896 C895 1.366 . S
C896 C900 1.385 . S
C897 H872 0.951 . S
C897 C895 1.388 . S
C897 C898 1.366 . S
C898 C897 1.366 . S
C898 C899 1.414 . S
C898 C901 1.499 . S
C899 H873 0.950 . S
C899 C898 1.414 . S
C899 C900 1.374 . S
C900 H874 0.950 . S
C900 C896 1.385 . S
C900 C899 1.374 . S
C901 C898 1.499 . S
C901 C902 1.373 . S
C901 C903 1.389 . S
C902 H875 0.950 . S
C902 C888 1.377 . S
C902 C901 1.373 . S
C903 C887 1.377 . S
C903 C901 1.389 . S
C903 C904 1.524 . S
C904 C903 1.524 . S
C904 C905 1.397 . S
C904 C909 1.363 . S
C905 H876 0.950 . S
C905 C904 1.397 . S
C905 C906 1.334 . S
C906 H877 0.950 . S
C906 C905 1.334 . S
C906 C907 1.287 . S
C907 C906 1.287 . S
C907 C908 1.524 . S
C907 H910 0.999 . S
C908 H878 0.950 . S
C908 C907 1.524 . S
C908 C909 1.415 . S
C909 H879 0.950 . S
C909 C904 1.363 . S
C909 C908 1.415 . S
H910 C907 0.999 . S
H911 C892 0.913 . S
C131 C17 1.413 . S
C146 C3 1.413 . S
C181 C22 1.414 . S
C196 C36 1.414 1_554 S
C231 C45 1.413 . S
C246 C31 1.413 . S
C281 C50 1.414 1_556 S
C296 C8 1.414 . S
C331 C59 1.413 . S
C346 C73 1.413 . S
C381 C78 1.414 1_556 S
C396 C92 1.414 . S
C431 C87 1.413 . S
C446 C101 1.413 . S
C481 C64 1.414 1_554 S
C496 C106 1.414 . S
C531 C9 1.419 . S
C546 C107 1.419 . S
C581 C63 1.424 . S
C596 C21 1.424 . S
C631 C79 1.419 . S
C646 C37 1.419 . S
C681 C49 1.424 . S
C696 C91 1.423 . S
C731 C35 1.424 . S
C746 C105 1.424 . S
C781 C65 1.419 . S
C796 C51 1.419 . S
C831 C77 1.424 . S
C846 C7 1.424 . S
C881 C23 1.419 . S
C896 C93 1.419 . S
