# Generated by pormake.
# Topology und, (4)-cn, num edge types: 1
# Building blocks:
#     Node 0, Type 0, BuildingBlock: AZAVOO_clean_sbu_0, # of connection points: 4
#     Node 1, Type 0, BuildingBlock: AZAVOO_clean_sbu_0, # of connection points: 4
#     Node 2, Type 0, BuildingBlock: AZAVOO_clean_sbu_0, # of connection points: 4
#     Node 3, Type 0, BuildingBlock: AZAVOO_clean_sbu_0, # of connection points: 4
#     Node 4, Type 0, BuildingBlock: AZAVOO_clean_sbu_0, # of connection points: 4
#     Node 5, Type 0, BuildingBlock: AZAVOO_clean_sbu_0, # of connection points: 4
#     Node 6, Type 0, BuildingBlock: AZAVOO_clean_sbu_0, # of connection points: 4
#     Node 7, Type 0, BuildingBlock: AZAVOO_clean_sbu_0, # of connection points: 4
#     Node 8, Type 0, BuildingBlock: AZAVOO_clean_sbu_0, # of connection points: 4
#     Node 9, Type 0, BuildingBlock: AZAVOO_clean_sbu_0, # of connection points: 4
#     Node 10, Type 0, BuildingBlock: AZAVOO_clean_sbu_0, # of connection points: 4
#     Node 11, Type 0, BuildingBlock: AZAVOO_clean_sbu_0, # of connection points: 4
#     Node 12, Type 0, BuildingBlock: AZAVOO_clean_sbu_0, # of connection points: 4
#     Node 13, Type 0, BuildingBlock: AZAVOO_clean_sbu_0, # of connection points: 4
#     Node 14, Type 0, BuildingBlock: AZAVOO_clean_sbu_0, # of connection points: 4
#     Node 15, Type 0, BuildingBlock: AZAVOO_clean_sbu_0, # of connection points: 4
#     Edge 16, Type (0, 0), BuildingBlock: XUDNAN_clean_linker_2, # of connection points: 2
#     Edge 17, Type (0, 0), BuildingBlock: XUDNAN_clean_linker_2, # of connection points: 2
#     Edge 18, Type (0, 0), BuildingBlock: XUDNAN_clean_linker_2, # of connection points: 2
#     Edge 19, Type (0, 0), BuildingBlock: XUDNAN_clean_linker_2, # of connection points: 2
#     Edge 20, Type (0, 0), BuildingBlock: XUDNAN_clean_linker_2, # of connection points: 2
#     Edge 21, Type (0, 0), BuildingBlock: XUDNAN_clean_linker_2, # of connection points: 2
#     Edge 22, Type (0, 0), BuildingBlock: XUDNAN_clean_linker_2, # of connection points: 2
#     Edge 23, Type (0, 0), BuildingBlock: XUDNAN_clean_linker_2, # of connection points: 2
#     Edge 24, Type (0, 0), BuildingBlock: XUDNAN_clean_linker_2, # of connection points: 2
#     Edge 25, Type (0, 0), BuildingBlock: XUDNAN_clean_linker_2, # of connection points: 2
#     Edge 26, Type (0, 0), BuildingBlock: XUDNAN_clean_linker_2, # of connection points: 2
#     Edge 27, Type (0, 0), BuildingBlock: XUDNAN_clean_linker_2, # of connection points: 2
#     Edge 28, Type (0, 0), BuildingBlock: XUDNAN_clean_linker_2, # of connection points: 2
#     Edge 29, Type (0, 0), BuildingBlock: XUDNAN_clean_linker_2, # of connection points: 2
#     Edge 30, Type (0, 0), BuildingBlock: XUDNAN_clean_linker_2, # of connection points: 2
#     Edge 31, Type (0, 0), BuildingBlock: XUDNAN_clean_linker_2, # of connection points: 2
#     Edge 32, Type (0, 0), BuildingBlock: XUDNAN_clean_linker_2, # of connection points: 2
#     Edge 33, Type (0, 0), BuildingBlock: XUDNAN_clean_linker_2, # of connection points: 2
#     Edge 34, Type (0, 0), BuildingBlock: XUDNAN_clean_linker_2, # of connection points: 2
#     Edge 35, Type (0, 0), BuildingBlock: XUDNAN_clean_linker_2, # of connection points: 2
#     Edge 36, Type (0, 0), BuildingBlock: XUDNAN_clean_linker_2, # of connection points: 2
#     Edge 37, Type (0, 0), BuildingBlock: XUDNAN_clean_linker_2, # of connection points: 2
#     Edge 38, Type (0, 0), BuildingBlock: XUDNAN_clean_linker_2, # of connection points: 2
#     Edge 39, Type (0, 0), BuildingBlock: XUDNAN_clean_linker_2, # of connection points: 2
#     Edge 40, Type (0, 0), BuildingBlock: XUDNAN_clean_linker_2, # of connection points: 2
#     Edge 41, Type (0, 0), BuildingBlock: XUDNAN_clean_linker_2, # of connection points: 2
#     Edge 42, Type (0, 0), BuildingBlock: XUDNAN_clean_linker_2, # of connection points: 2
#     Edge 43, Type (0, 0), BuildingBlock: XUDNAN_clean_linker_2, # of connection points: 2
#     Edge 44, Type (0, 0), BuildingBlock: XUDNAN_clean_linker_2, # of connection points: 2
#     Edge 45, Type (0, 0), BuildingBlock: XUDNAN_clean_linker_2, # of connection points: 2
#     Edge 46, Type (0, 0), BuildingBlock: XUDNAN_clean_linker_2, # of connection points: 2
#     Edge 47, Type (0, 0), BuildingBlock: XUDNAN_clean_linker_2, # of connection points: 2
# Relax obj value: 0.169
# Max RMSD: 0.209
# Mean RMSD: 0.203
data_MOF--net-und--node1-AZAVOO_clean_sbu_0--edge1-XUDNAN_clean_linker_2
_symmetry_space_group_name_H-M    P1
_symmetry_Int_Tables_number       1
_symmetry_cell_setting            triclinic
loop_
_symmetry_equiv_pos_as_xyz
'x, y, z'
_cell_length_a     58.368538
_cell_length_b     58.372101
_cell_length_c     21.662389
_cell_angle_alpha  91.573763
_cell_angle_beta   91.605383
_cell_angle_gamma 95.692239
loop_
_atom_site_label
_atom_site_type_symbol
_atom_site_fract_x
_atom_site_fract_y
_atom_site_fract_z
_atom_type_partial_charge
Mg0 Mg 0.26774 0.3695 0.16056 0.0
O1 O 0.25785 0.33634 0.10067 0.0
O2 O 0.2347 0.31307 0.15763 0.0
Mg3 Mg 0.22753 0.33139 0.24791 0.0
C4 C 0.24605 0.31701 0.10888 0.0
C5 C 0.29088 0.41005 0.09759 0.0
O6 O 0.28623 0.41689 0.15378 0.0
O7 O 0.23267 0.38313 0.14114 0.0
O8 O 0.21021 0.35942 0.19822 0.0
O9 O 0.29621 0.35143 0.20386 0.0
O10 O 0.26107 0.35109 0.23936 0.0
C11 C 0.21299 0.37646 0.16255 0.0
C12 C 0.28099 0.34351 0.24228 0.0
O13 O 0.2845 0.38928 0.08079 0.0
Mg14 Mg 0.91266 0.02452 0.15353 0.0
O15 O 0.9472 0.03775 0.20158 0.0
O16 O 0.96865 0.05964 0.13763 0.0
Mg17 Mg 0.94572 0.06407 0.05262 0.0
C18 C 0.966 0.04955 0.1888 0.0
C19 C 0.88321 0.99491 0.24788 0.0
O20 O 0.87268 0.9868 0.19628 0.0
O21 O 0.89798 0.05897 0.17139 0.0
O22 O 0.91971 0.0818 0.10999 0.0
O23 O 0.93097 0.99643 0.11001 0.0
O24 O 0.92722 0.03009 0.06839 0.0
C25 C 0.90382 0.07868 0.14914 0.0
C26 C 0.93622 0.01086 0.06702 0.0
O27 O 0.89995 0.01053 0.24535 0.0
Mg28 Mg 0.26917 0.69992 0.49156 0.0
O29 O 0.25042 0.72175 0.56062 0.0
O30 O 0.22122 0.73521 0.50846 0.0
Mg31 Mg 0.21879 0.7194 0.41117 0.0
C32 C 0.2336 0.7342 0.55763 0.0
C33 C 0.30655 0.69686 0.60027 0.0
O34 O 0.31145 0.71886 0.59005 0.0
O35 O 0.24163 0.66931 0.49669 0.0
O36 O 0.21191 0.68324 0.44817 0.0
O37 O 0.28857 0.73324 0.46285 0.0
O38 O 0.25601 0.71732 0.41911 0.0
C39 C 0.22073 0.66722 0.47661 0.0
C40 C 0.27147 0.73456 0.4241 0.0
O41 O 0.29013 0.68555 0.56943 0.0
Mg42 Mg 0.5806 0.03107 0.8326 0.0
O43 O 0.55495 0.04124 0.75778 0.0
O44 O 0.52892 0.06036 0.80623 0.0
Mg45 Mg 0.53742 0.06262 0.90942 0.0
C46 C 0.5367 0.05174 0.75721 0.0
C47 C 0.602 0.00335 0.72842 0.0
O48 O 0.58206 0.99112 0.73389 0.0
O49 O 0.59795 0.06794 0.84457 0.0
O50 O 0.57088 0.08515 0.89385 0.0
O51 O 0.55782 0.99833 0.84426 0.0
O52 O 0.55447 0.03111 0.89542 0.0
C53 C 0.5908 0.08564 0.87081 0.0
C54 C 0.54629 0.01028 0.88116 0.0
O55 O 0.6063 0.0219 0.76061 0.0
Mg56 Mg 0.76685 0.71356 0.17513 0.0
O57 O 0.72988 0.69503 0.17121 0.0
O58 O 0.7063 0.72242 0.18638 0.0
Mg59 Mg 0.72716 0.75747 0.20195 0.0
C60 C 0.70965 0.70134 0.17663 0.0
C61 C 0.77377 0.66199 0.12266 0.0
O62 O 0.75341 0.65523 0.14377 0.0
O63 O 0.76223 0.72913 0.08037 0.0
O64 O 0.7399 0.75698 0.10309 0.0
O65 O 0.76863 0.71013 0.27911 0.0
O66 O 0.75666 0.73965 0.23058 0.0
C67 C 0.7518 0.74645 0.06493 0.0
C68 C 0.7605 0.72999 0.28164 0.0
O69 O 0.78205 0.68286 0.13054 0.0
Mg70 Mg 0.08583 0.01467 0.63918 0.0
O71 O 0.10244 0.05208 0.6506 0.0
O72 O 0.07471 0.07491 0.63108 0.0
Mg73 Mg 0.04103 0.05284 0.6054 0.0
C74 C 0.09558 0.07209 0.64569 0.0
C75 C 0.13742 0.00609 0.69227 0.0
O76 O 0.1465 0.02149 0.65458 0.0
O77 O 0.06692 0.01718 0.72999 0.0
O78 O 0.03915 0.03897 0.7027 0.0
O79 O 0.0924 0.01498 0.53565 0.0
O80 O 0.06103 0.02463 0.57923 0.0
C81 C 0.04886 0.02694 0.74219 0.0
C82 C 0.07222 0.02228 0.53 0.0
O83 O 0.11571 0.00116 0.69205 0.0
Mg84 Mg 0.7368 0.35213 0.53466 0.0
O85 O 0.76333 0.37514 0.59496 0.0
O86 O 0.78928 0.35243 0.62993 0.0
Mg87 Mg 0.77819 0.31519 0.59996 0.0
C88 C 0.78174 0.37214 0.62577 0.0
C89 C 0.72099 0.38125 0.42835 0.0
O90 O 0.72433 0.36161 0.40075 0.0
O91 O 0.76311 0.3482 0.46017 0.0
O92 O 0.7854 0.32281 0.49879 0.0
O93 O 0.71472 0.34529 0.6165 0.0
O94 O 0.7425 0.32438 0.58928 0.0
C95 C 0.77932 0.3352 0.45471 0.0
C96 C 0.72696 0.32847 0.62797 0.0
O97 O 0.72413 0.38344 0.48667 0.0
Mg98 Mg 0.41281 0.02131 0.25779 0.0
O99 O 0.39462 0.9847 0.26103 0.0
O100 O 0.42191 0.96039 0.25532 0.0
Mg101 Mg 0.45697 0.98104 0.24574 0.0
C102 C 0.40081 0.96428 0.25873 0.0
C103 C 0.38763 0.05751 0.32015 0.0
O104 O 0.40888 0.06679 0.3142 0.0
O105 O 0.42816 0.01987 0.35465 0.0
O106 O 0.45679 0.9976 0.34326 0.0
O107 O 0.40815 0.01952 0.15451 0.0
O108 O 0.43796 0.00819 0.20675 0.0
C109 C 0.44556 0.01079 0.37629 0.0
C110 C 0.42696 0.00946 0.15494 0.0
O111 O 0.38212 0.03728 0.29777 0.0
Mg112 Mg 0.77397 0.89014 0.67 0.0
O113 O 0.75852 0.8585 0.61096 0.0
O114 O 0.73123 0.83971 0.66654 0.0
Mg115 Mg 0.72614 0.86108 0.75335 0.0
C116 C 0.74357 0.84133 0.61887 0.0
C117 C 0.81167 0.91908 0.60533 0.0
O118 O 0.8165 0.92275 0.66462 0.0
O119 O 0.74362 0.91024 0.64519 0.0
O120 O 0.71547 0.8913 0.69696 0.0
O121 O 0.79701 0.86692 0.71599 0.0
O122 O 0.76276 0.87365 0.74916 0.0
C123 C 0.72268 0.90736 0.6613 0.0
C124 C 0.7803 0.86196 0.75299 0.0
O125 O 0.79424 0.90518 0.58914 0.0
Mg126 Mg 0.41352 0.52933 0.70754 0.0
O127 O 0.447 0.53952 0.7656 0.0
O128 O 0.47045 0.56252 0.70886 0.0
Mg129 Mg 0.45101 0.5702 0.62073 0.0
C130 C 0.46643 0.55108 0.7574 0.0
C131 C 0.38503 0.49367 0.78917 0.0
O132 O 0.38503 0.48126 0.73765 0.0
O133 O 0.39983 0.56418 0.72754 0.0
O134 O 0.4241 0.58785 0.6749 0.0
O135 O 0.43173 0.50119 0.66399 0.0
O136 O 0.43144 0.53619 0.62767 0.0
C137 C 0.407 0.58429 0.71005 0.0
C138 C 0.43943 0.51643 0.6253 0.0
O139 O 0.39567 0.51381 0.79175 0.0
Mg140 Mg 0.73754 0.19086 0.04524 0.0
O141 O 0.75069 0.22513 0.0972 0.0
O142 O 0.72533 0.25136 0.08716 0.0
Mg143 Mg 0.69194 0.23123 0.05212 0.0
C144 C 0.74501 0.24565 0.10482 0.0
C145 C 0.78868 0.18434 0.08434 0.0
O146 O 0.79169 0.2055 0.06475 0.0
O147 O 0.71655 0.1781 0.12705 0.0
O148 O 0.69867 0.2084 0.13229 0.0
O149 O 0.74796 0.20718 0.95732 0.0
O150 O 0.71356 0.2094 0.99594 0.0
C151 C 0.69763 0.18688 0.12112 0.0
C152 C 0.72824 0.21559 0.9548 0.0
O153 O 0.76858 0.17369 0.08149 0.0
Mg154 Mg 0.06595 0.49609 0.37091 0.0
O155 O 0.04779 0.51783 0.30124 0.0
O156 O 0.03183 0.54524 0.35435 0.0
Mg157 Mg 0.04001 0.54143 0.45714 0.0
C158 C 0.03572 0.53495 0.30348 0.0
C159 C 0.08685 0.45906 0.28802 0.0
O160 O 0.07428 0.44545 0.32399 0.0
O161 O 0.09544 0.52446 0.38861 0.0
O162 O 0.07838 0.55075 0.44261 0.0
O163 O 0.03258 0.47345 0.3776 0.0
O164 O 0.04269 0.50474 0.43589 0.0
C165 C 0.09615 0.54375 0.41814 0.0
C166 C 0.02715 0.48854 0.41815 0.0
O167 O 0.08631 0.4807 0.29425 0.0
Mg168 Mg 0.2852 0.19391 0.66889 0.0
O169 O 0.24632 0.18198 0.66523 0.0
O170 O 0.22775 0.2125 0.68962 0.0
Mg171 Mg 0.25404 0.24387 0.70692 0.0
C172 C 0.2277 0.19117 0.67481 0.0
C173 C 0.31134 0.16263 0.58924 0.0
O174 O 0.32421 0.18245 0.59254 0.0
O175 O 0.28262 0.21196 0.57655 0.0
O176 O 0.26432 0.24208 0.60651 0.0
O177 O 0.28597 0.18827 0.7724 0.0
O178 O 0.28027 0.22097 0.72884 0.0
C179 C 0.27394 0.23071 0.5651 0.0
C180 C 0.28157 0.20954 0.77808 0.0
O181 O 0.29274 0.16072 0.61864 0.0
Mg182 Mg 0.58857 0.5097 0.19928 0.0
O183 O 0.60226 0.54851 0.20111 0.0
O184 O 0.5716 0.56724 0.17874 0.0
Mg185 Mg 0.5392 0.54228 0.16487 0.0
C186 C 0.59309 0.56719 0.19144 0.0
C187 C 0.63767 0.49305 0.21124 0.0
O188 O 0.63561 0.49489 0.15109 0.0
O189 O 0.5718 0.51312 0.29354 0.0
O190 O 0.54195 0.53211 0.26522 0.0
O191 O 0.59302 0.50835 0.0954 0.0
O192 O 0.56118 0.51564 0.14096 0.0
C193 C 0.55344 0.52235 0.30611 0.0
C194 C 0.57208 0.51378 0.09096 0.0
O195 O 0.62181 0.49943 0.24483 0.0
Mg196 Mg 0.21847 0.86288 0.04924 0.0
O197 O 0.25729 0.8689 0.07178 0.0
O198 O 0.26893 0.83561 0.10301 0.0
Mg199 Mg 0.23854 0.80787 0.09223 0.0
C200 C 0.27284 0.85711 0.09342 0.0
C201 C 0.19909 0.90375 0.99149 0.0
O202 O 0.18119 0.89142 0.0132 0.0
O203 O 0.22403 0.84466 0.95708 0.0
O204 O 0.23633 0.81157 0.98734 0.0
O205 O 0.21406 0.86967 0.15081 0.0
O206 O 0.21586 0.83528 0.10652 0.0
C207 C 0.23092 0.82498 0.9449 0.0
C208 C 0.21561 0.84781 0.1561 0.0
O209 O 0.21897 0.89727 0.00147 0.0
Mg210 Mg 0.91087 0.54786 0.80473 0.0
O211 O 0.89053 0.51273 0.81087 0.0
O212 O 0.91367 0.48507 0.7952 0.0
Mg213 Mg 0.94969 0.50303 0.7798 0.0
C214 C 0.8938 0.49152 0.80524 0.0
C215 C 0.88285 0.58301 0.87677 0.0
O216 O 0.90268 0.59579 0.87654 0.0
O217 O 0.92862 0.54469 0.89879 0.0
O218 O 0.95287 0.51833 0.87885 0.0
O219 O 0.90281 0.54599 0.70261 0.0
O220 O 0.93358 0.53325 0.74705 0.0
C221 C 0.94468 0.53268 0.91571 0.0
C222 C 0.92086 0.5349 0.69827 0.0
O223 O 0.88093 0.56329 0.84987 0.0
H224 H 0.25526 0.33029 0.33907 0.0
H225 H 0.31501 0.3137 0.23875 0.0
H226 H 0.31831 0.28003 0.30519 0.0
H227 H 0.27456 0.31594 0.48709 0.0
H228 H 0.2463 0.30457 0.50983 0.0
H229 H 0.24925 0.3267 0.45366 0.0
H230 H 0.22291 0.30054 0.3765 0.0
H231 H 0.22016 0.27817 0.43223 0.0
H232 H 0.23046 0.27213 0.35639 0.0
H233 H 0.31466 0.2482 0.38649 0.0
H234 H 0.30646 0.22415 0.47766 0.0
H235 H 0.24798 0.26202 0.51675 0.0
C236 C 0.26896 0.31952 0.33042 0.0
C237 C 0.28474 0.32444 0.28346 0.0
C238 C 0.30275 0.31021 0.27475 0.0
C239 C 0.30461 0.29098 0.31185 0.0
C240 C 0.28826 0.28632 0.3569 0.0
C241 C 0.27088 0.30038 0.36618 0.0
C242 C 0.2557 0.29244 0.41809 0.0
C243 C 0.25652 0.31101 0.47024 0.0
C244 C 0.23084 0.2854 0.39436 0.0
C245 C 0.26737 0.27182 0.43772 0.0
C246 C 0.28603 0.26829 0.40196 0.0
C247 C 0.29997 0.25074 0.41437 0.0
C248 C 0.29511 0.23707 0.46589 0.0
C249 C 0.2766 0.24126 0.50421 0.0
C250 C 0.26225 0.25836 0.48837 0.0
H251 H 0.9651 0.04022 0.31144 0.0
H252 H 0.01196 0.05844 0.16463 0.0
H253 H 0.04513 0.05402 0.23556 0.0
H254 H 0.0006 0.06953 0.43653 0.0
H255 H 0.99222 0.04752 0.49054 0.0
H256 H 0.97264 0.05338 0.42855 0.0
H257 H 0.96957 0.01039 0.39279 0.0
H258 H 0.9893 0.00443 0.45421 0.0
H259 H 0.99541 0.99726 0.3753 0.0
H260 H 0.07327 0.04417 0.32267 0.0
H261 H 0.09307 0.0336 0.41966 0.0
H262 H 0.02687 0.02332 0.50622 0.0
C263 C 0.98233 0.04358 0.2943 0.0
C264 C 0.98593 0.04967 0.23257 0.0
C265 C 0.00879 0.05393 0.21201 0.0
C266 C 0.02774 0.05134 0.25183 0.0
C267 C 0.02352 0.04477 0.31218 0.0
C268 C 0.00133 0.04132 0.33339 0.0
C269 C 0.00115 0.03418 0.39975 0.0
C270 C 0.99106 0.05223 0.44128 0.0
C271 C 0.98809 0.01014 0.40582 0.0
C272 C 0.02665 0.03379 0.41249 0.0
C273 C 0.03944 0.03981 0.36172 0.0
C274 C 0.06341 0.03971 0.36294 0.0
C275 C 0.07451 0.03359 0.41789 0.0
C276 C 0.06154 0.02794 0.4705 0.0
C277 C 0.03736 0.02796 0.46713 0.0
H278 H 0.25202 0.73418 0.67607 0.0
H279 H 0.20672 0.77001 0.55837 0.0
H280 H 0.20283 0.79831 0.64283 0.0
H281 H 0.22124 0.74184 0.81638 0.0
H282 H 0.24706 0.74561 0.86471 0.0
H283 H 0.24636 0.72826 0.79454 0.0
H284 H 0.2822 0.7534 0.75761 0.0
H285 H 0.28282 0.77103 0.82734 0.0
H286 H 0.28142 0.78411 0.7531 0.0
H287 H 0.2048 0.82358 0.73889 0.0
H288 H 0.20898 0.84135 0.84398 0.0
H289 H 0.25203 0.78847 0.8996 0.0
C290 C 0.24117 0.74788 0.66813 0.0
C291 C 0.22971 0.74982 0.61048 0.0
C292 C 0.21561 0.76802 0.60217 0.0
C293 C 0.21339 0.78432 0.64973 0.0
C294 C 0.22523 0.78213 0.70555 0.0
C295 C 0.23858 0.7642 0.71531 0.0
C296 C 0.24896 0.76544 0.78026 0.0
C297 C 0.24038 0.74402 0.81608 0.0
C298 C 0.27542 0.76869 0.77949 0.0
C299 C 0.23933 0.78685 0.80541 0.0
C300 C 0.22592 0.79638 0.76139 0.0
C301 C 0.21521 0.81624 0.77389 0.0
C302 C 0.21779 0.82629 0.83359 0.0
C303 C 0.23077 0.81628 0.88008 0.0
C304 C 0.24194 0.79652 0.86519 0.0
H305 H 0.43459 0.03146 0.04837 0.0
H306 H 0.44181 0.96719 0.13808 0.0
H307 H 0.46733 0.95581 0.05629 0.0
H308 H 0.44373 0.00943 0.87966 0.0
H309 H 0.46015 0.03637 0.86435 0.0
H310 H 0.43625 0.0358 0.91552 0.0
H311 H 0.46323 0.05661 0.00089 0.0
H312 H 0.48713 0.05696 0.95074 0.0
H313 H 0.48888 0.04398 0.02507 0.0
H314 H 0.49907 0.95581 0.9831 0.0
H315 H 0.53447 0.96781 0.92699 0.0
H316 H 0.50765 0.03237 0.88585 0.0
C317 C 0.44052 0.01445 0.04838 0.0
C318 C 0.43619 1.00004 0.09851 0.0
C319 C 0.44496 0.97835 0.09948 0.0
C320 C 0.45931 0.97168 0.05296 0.0
C321 C 0.46467 0.98695 0.00593 0.0
C322 C 0.45528 0.00783 0.00281 0.0
C323 C 0.46722 0.0231 0.95568 0.0
C324 C 0.45086 0.02636 0.90052 0.0
C325 C 0.47721 0.04651 0.9849 0.0
C326 C 0.48602 0.00848 0.93716 0.0
C327 C 0.48375 0.98731 0.96457 0.0
C328 C 0.50069 0.97207 0.95999 0.0
C329 C 0.52074 0.979 0.9283 0.0
C330 C 0.52376 0.00112 0.90323 0.0
C331 C 0.50583 0.01553 0.90554 0.0
H332 H 0.20357 0.80443 0.18737 0.0
H333 H 0.24332 0.86741 0.25272 0.0
H334 H 0.262 0.84568 0.33398 0.0
H335 H 0.19721 0.77557 0.33709 0.0
H336 H 0.20055 0.74802 0.30065 0.0
H337 H 0.18759 0.76969 0.2579 0.0
H338 H 0.21776 0.76637 0.17322 0.0
H339 H 0.2313 0.74529 0.21643 0.0
H340 H 0.24801 0.77121 0.19408 0.0
H341 H 0.27938 0.81479 0.401 0.0
H342 H 0.2911 0.7793 0.44913 0.0
H343 H 0.24199 0.738 0.32777 0.0
C344 C 0.21554 0.81383 0.22037 0.0
C345 C 0.22178 0.83754 0.21472 0.0
C346 C 0.23791 0.84927 0.25755 0.0
C347 C 0.24877 0.83701 0.30326 0.0
C348 C 0.24317 0.81319 0.30507 0.0
C349 C 0.22664 0.8019 0.26496 0.0
C350 C 0.22506 0.77616 0.27094 0.0
C351 C 0.20119 0.76682 0.29299 0.0
C352 C 0.23089 0.76407 0.21007 0.0
C353 C 0.24348 0.77449 0.32012 0.0
C354 C 0.25369 0.79585 0.34021 0.0
C355 C 0.27132 0.79802 0.38572 0.0
C356 C 0.27805 0.77782 0.41232 0.0
C357 C 0.26728 0.75593 0.39257 0.0
C358 C 0.25027 0.75446 0.34485 0.0
H359 H 0.48448 0.99825 0.43534 0.0
H360 H 0.42803 0.04074 0.45811 0.0
H361 H 0.44636 0.05718 0.55552 0.0
H362 H 0.49276 0.98661 0.59831 0.0
H363 H 0.52362 0.98773 0.59328 0.0
H364 H 0.50541 0.97866 0.52683 0.0
H365 H 0.52738 0.01029 0.4632 0.0
H366 H 0.54533 0.01976 0.52984 0.0
H367 H 0.52912 0.03992 0.4902 0.0
H368 H 0.4715 0.07021 0.64781 0.0
H369 H 0.49973 0.07602 0.73488 0.0
H370 H 0.53995 0.02524 0.65153 0.0
C371 C 0.47574 0.01075 0.46114 0.0
C372 C 0.45478 0.01818 0.43887 0.0
C373 C 0.44405 0.03469 0.47414 0.0
C374 C 0.45439 0.04425 0.52939 0.0
C375 C 0.4754 0.03708 0.54883 0.0
C376 C 0.48581 0.02049 0.51631 0.0
C377 C 0.5084 0.01583 0.54732 0.0
C378 C 0.50748 0.99072 0.56766 0.0
C379 C 0.52875 0.02181 0.50511 0.0
C380 C 0.50909 0.03247 0.60231 0.0
C381 C 0.48994 0.04463 0.60211 0.0
C382 C 0.48654 0.06076 0.64859 0.0
C383 C 0.50275 0.064 0.69772 0.0
C384 C 0.52213 0.05114 0.70008 0.0
C385 C 0.52552 0.03556 0.65085 0.0
H386 H 0.28762 0.25502 0.80628 0.0
H387 H 0.26315 0.18938 0.88203 0.0
H388 H 0.25027 0.20995 0.97491 0.0
H389 H 0.30873 0.28311 0.95098 0.0
H390 H 0.30024 0.31066 0.92881 0.0
H391 H 0.30798 0.29042 0.87067 0.0
H392 H 0.26859 0.2926 0.81394 0.0
H393 H 0.26057 0.31257 0.8724 0.0
H394 H 0.2424 0.28625 0.85506 0.0
H395 H 0.23803 0.23842 0.05583 0.0
H396 H 0.23138 0.27148 0.12387 0.0
H397 H 0.265 0.31818 0.99396 0.0
C398 C 0.27973 0.2449 0.84266 0.0
C399 C 0.27626 0.22064 0.83719 0.0
C400 C 0.26606 0.20798 0.88576 0.0
C401 C 0.25858 0.21954 0.93826 0.0
C402 C 0.26172 0.24361 0.94125 0.0
C403 C 0.27241 0.25607 0.89506 0.0
C404 C 0.27396 0.28173 0.90891 0.0
C405 C 0.29923 0.29208 0.91524 0.0
C406 C 0.26058 0.294 0.85965 0.0
C407 C 0.26229 0.28194 0.97022 0.0
C408 C 0.25518 0.25982 0.98792 0.0
C409 C 0.24367 0.25577 0.04254 0.0
C410 C 0.23985 0.27473 0.08069 0.0
C411 C 0.24768 0.29753 0.06436 0.0
C412 C 0.2588 0.30105 0.0079 0.0
H413 H 0.01231 0.04747 0.78445 0.0
H414 H 0.05801 0.99586 0.83172 0.0
H415 H 0.03402 0.98524 0.92127 0.0
H416 H 0.9995 0.06488 0.94078 0.0
H417 H 0.97006 0.0686 0.91948 0.0
H418 H 0.99219 0.07305 0.86357 0.0
H419 H 0.96895 0.04323 0.789 0.0
H420 H 0.94696 0.03837 0.84507 0.0
H421 H 0.96097 0.0145 0.81471 0.0
H422 H 0.00282 0.97921 0.00347 0.0
H423 H 0.96955 0.98035 0.07225 0.0
H424 H 0.94464 0.0345 0.96323 0.0
C425 C 0.0176 0.03414 0.81392 0.0
C426 C 0.03706 0.0225 0.80095 0.0
C427 C 0.04324 0.00514 0.84094 0.0
C428 C 0.02965 0.9989 0.89168 0.0
C429 C 0.01004 0.01024 0.90159 0.0
C430 C 0.00426 0.02765 0.86392 0.0
C431 C 0.98207 0.03678 0.88215 0.0
C432 C 0.98621 0.06234 0.90273 0.0
C433 C 0.96366 0.03298 0.82961 0.0
C434 C 0.97601 0.0217 0.93579 0.0
C435 C 0.99226 0.00651 0.94692 0.0
C436 C 0.99005 0.99108 0.99509 0.0
C437 C 0.97104 0.99171 0.03356 0.0
C438 C 0.95462 0.00761 0.02321 0.0
C439 C 0.95702 0.02232 0.97285 0.0
H440 H 0.73026 0.7812 0.01491 0.0
H441 H 0.7841 0.73668 0.98 0.0
H442 H 0.79641 0.76033 0.89149 0.0
H443 H 0.71755 0.79462 0.8518 0.0
H444 H 0.71302 0.82387 0.87293 0.0
H445 H 0.70639 0.80119 0.92631 0.0
H446 H 0.73315 0.82384 0.00932 0.0
H447 H 0.74022 0.84633 0.95601 0.0
H448 H 0.76284 0.83206 0.99224 0.0
H449 H 0.80568 0.79213 0.8145 0.0
H450 H 0.80894 0.82717 0.75184 0.0
H451 H 0.75002 0.85081 0.84319 0.0
C452 C 0.74425 0.77596 0.98778 0.0
C453 C 0.75619 0.75705 0.00449 0.0
C454 C 0.77454 0.75097 0.96784 0.0
C455 C 0.78173 0.76438 0.91764 0.0
C456 C 0.77027 0.78363 0.90455 0.0
C457 C 0.75168 0.78914 0.93814 0.0
C458 C 0.74327 0.81155 0.91835 0.0
C459 C 0.7186 0.80756 0.89069 0.0
C460 C 0.74499 0.82949 0.97218 0.0
C461 C 0.7604 0.81819 0.86948 0.0
C462 C 0.77574 0.80186 0.86149 0.0
C463 C 0.79356 0.80487 0.81992 0.0
C464 C 0.7954 0.82489 0.78495 0.0
C465 C 0.77959 0.84161 0.79222 0.0
C466 C 0.76211 0.83819 0.83558 0.0
H467 H 0.76047 0.34628 0.34431 0.0
H468 H 0.81579 0.31133 0.42425 0.0
H469 H 0.81985 0.2911 0.32476 0.0
H470 H 0.73226 0.30198 0.28295 0.0
H471 H 0.72203 0.31347 0.21203 0.0
H472 H 0.72951 0.33238 0.2774 0.0
H473 H 0.75858 0.35742 0.21359 0.0
H474 H 0.75084 0.33884 0.14678 0.0
H475 H 0.78056 0.34423 0.17259 0.0
H476 H 0.8096 0.26595 0.23338 0.0
H477 H 0.78743 0.23993 0.15729 0.0
H478 H 0.73786 0.29005 0.13564 0.0
C479 C 0.77429 0.33537 0.33994 0.0
C480 C 0.78763 0.33025 0.39221 0.0
C481 C 0.80531 0.31553 0.38489 0.0
C482 C 0.80779 0.30398 0.32829 0.0
C483 C 0.79269 0.30754 0.27925 0.0
C484 C 0.7766 0.32337 0.28403 0.0
C485 C 0.75935 0.32069 0.23008 0.0
C486 C 0.73435 0.31688 0.25199 0.0
C487 C 0.76254 0.34153 0.18827 0.0
C488 C 0.76668 0.29934 0.19816 0.0
C489 C 0.78649 0.29256 0.22564 0.0
C490 C 0.79456 0.2715 0.2101 0.0
C491 C 0.78172 0.25671 0.16699 0.0
C492 C 0.76084 0.26291 0.14047 0.0
C493 C 0.75387 0.28491 0.15451 0.0
H494 H 0.75667 0.23354 0.86605 0.0
H495 H 0.68903 0.23762 0.94154 0.0
H496 H 0.68207 0.26859 0.87033 0.0
H497 H 0.77021 0.29392 0.84045 0.0
H498 H 0.78402 0.28918 0.76847 0.0
H499 H 0.78409 0.26804 0.82747 0.0
H500 H 0.76549 0.23657 0.74964 0.0
H501 H 0.76553 0.25758 0.69035 0.0
H502 H 0.739 0.24107 0.70902 0.0
H503 H 0.68279 0.29972 0.79078 0.0
H504 H 0.68982 0.32566 0.70323 0.0
H505 H 0.75583 0.29908 0.6775 0.0
C506 C 0.74041 0.24097 0.86782 0.0
C507 C 0.7236 0.23346 0.91033 0.0
C508 C 0.70241 0.24341 0.91042 0.0
C509 C 0.69825 0.261 0.86999 0.0
C510 C 0.71533 0.26823 0.82923 0.0
C511 C 0.73587 0.25831 0.82736 0.0
C512 C 0.75099 0.26839 0.77738 0.0
C513 C 0.77367 0.28061 0.80512 0.0
C514 C 0.7555 0.2498 0.72872 0.0
C515 C 0.73572 0.28546 0.75129 0.0
C516 C 0.71535 0.28538 0.78217 0.0
C517 C 0.69867 0.29988 0.76614 0.0
C518 C 0.70285 0.3146 0.71656 0.0
C519 C 0.72338 0.31442 0.68328 0.0
C520 C 0.73998 0.29974 0.70152 0.0
H521 H 0.76272 0.77594 0.30091 0.0
H522 H 0.74876 0.71136 0.39361 0.0
H523 H 0.74056 0.73305 0.48961 0.0
H524 H 0.79261 0.80633 0.42864 0.0
H525 H 0.78185 0.83338 0.41108 0.0
H526 H 0.78517 0.81257 0.34996 0.0
H527 H 0.7422 0.81321 0.31694 0.0
H528 H 0.7387 0.83393 0.37825 0.0
H529 H 0.72027 0.80724 0.37291 0.0
H530 H 0.73307 0.76234 0.57398 0.0
H531 H 0.7315 0.79628 0.6438 0.0
H532 H 0.7533 0.8413 0.49582 0.0
C533 C 0.75776 0.76631 0.34129 0.0
C534 C 0.75605 0.74202 0.34001 0.0
C535 C 0.75006 0.73 0.39393 0.0
C536 C 0.74529 0.74217 0.4483 0.0
C537 C 0.74699 0.76622 0.44771 0.0
C538 C 0.75345 0.77811 0.39575 0.0
C539 C 0.75544 0.8039 0.40757 0.0
C540 C 0.78024 0.81467 0.39881 0.0
C541 C 0.73812 0.81523 0.36648 0.0
C542 C 0.74907 0.80481 0.47458 0.0
C543 C 0.74387 0.78294 0.49668 0.0
C544 C 0.73718 0.77951 0.55717 0.0
C545 C 0.73621 0.7989 0.59631 0.0
C546 C 0.74228 0.8214 0.57507 0.0
C547 C 0.74863 0.82431 0.51328 0.0
H548 H 0.52635 0.51088 0.0649 0.0
H549 H 0.59264 0.53 0.98539 0.0
H550 H 0.57271 0.54304 0.89173 0.0
H551 H 0.49698 0.4892 0.92303 0.0
H552 H 0.47012 0.49962 0.94403 0.0
H553 H 0.48989 0.49174 0.00323 0.0
H554 H 0.49002 0.5323 0.05522 0.0
H555 H 0.47049 0.54041 0.99573 0.0
H556 H 0.49763 0.55747 0.01087 0.0
H557 H 0.545 0.55572 0.80961 0.0
H558 H 0.51237 0.56296 0.7405 0.0
H559 H 0.46446 0.53412 0.87444 0.0
C560 C 0.53672 0.51772 0.02766 0.0
C561 C 0.56101 0.51959 0.03224 0.0
C562 C 0.57399 0.52836 0.98244 0.0
C563 C 0.56282 0.53592 0.92945 0.0
C564 C 0.53875 0.53427 0.92714 0.0
C565 C 0.5259 0.52503 0.97464 0.0
C566 C 0.50032 0.52467 0.96089 0.0
C567 C 0.48865 0.49983 0.95758 0.0
C568 C 0.48895 0.53961 0.00851 0.0
C569 C 0.50064 0.53531 0.89812 0.0
C570 C 0.52294 0.54094 0.87963 0.0
C571 C 0.5275 0.55126 0.82353 0.0
C572 C 0.5088 0.55543 0.78477 0.0
C573 C 0.48579 0.5491 0.802 0.0
C574 C 0.48179 0.53914 0.85983 0.0
H575 H 0.00238 0.52522 0.42665 0.0
H576 H 0.99922 0.45238 0.46124 0.0
H577 H 0.96368 0.45524 0.51993 0.0
H578 H 0.99221 0.54237 0.56879 0.0
H579 H 0.97529 0.56558 0.54984 0.0
H580 H 0.99566 0.55653 0.49619 0.0
H581 H 0.96345 0.54935 0.41119 0.0
H582 H 0.94284 0.55859 0.4647 0.0
H583 H 0.93775 0.53077 0.4258 0.0
H584 H 0.93524 0.46787 0.59441 0.0
H585 H 0.91663 0.48869 0.67678 0.0
H586 H 0.93878 0.55365 0.59531 0.0
C587 C 0.99393 0.50979 0.44534 0.0
C588 C 0.00356 0.48867 0.44029 0.0
C589 C 0.99188 0.46868 0.46436 0.0
C590 C 0.97171 0.4702 0.49761 0.0
C591 C 0.96337 0.49173 0.50498 0.0
C592 C 0.97397 0.51112 0.47852 0.0
C593 C 0.96408 0.5328 0.50058 0.0
C594 C 0.98292 0.55031 0.53066 0.0
C595 C 0.95126 0.5435 0.44739 0.0
C596 C 0.94747 0.52289 0.54751 0.0
C597 C 0.94677 0.49907 0.54803 0.0
C598 C 0.9351 0.48638 0.59309 0.0
C599 C 0.92467 0.49832 0.63987 0.0
C600 C 0.92605 0.52263 0.64125 0.0
C601 C 0.93685 0.53499 0.59351 0.0
H602 H 0.03379 0.51285 0.18964 0.0
H603 H 0.00812 0.57004 0.28981 0.0
H604 H 0.9822 0.57601 0.20112 0.0
H605 H 0.03119 0.53745 0.03538 0.0
H606 H 0.02225 0.50981 -0.0014 0.0
H607 H 0.04021 0.51158 0.06789 0.0
H608 H 0.01024 0.48313 0.11976 0.0
H609 H 0.99198 0.4816 0.05112 0.0
H610 H 0.98084 0.48989 0.12431 0.0
H611 H 0.95671 0.57368 0.10458 0.0
H612 H 0.93607 0.56525 0.0041 0.0
H613 H 0.97842 0.50945 0.96851 0.0
C614 C 0.02314 0.52699 0.19256 0.0
C615 C 0.0231 0.541 0.24682 0.0
C616 C 0.00859 0.5591 0.24876 0.0
C617 C 0.99372 0.5626 0.19866 0.0
C618 C 0.99362 0.54794 0.14683 0.0
C619 C 0.00817 0.53069 0.14313 0.0
C620 C 0.00412 0.51674 0.08324 0.0
C621 C 0.02573 0.51905 0.04395 0.0
C622 C 0.99633 0.49134 0.09537 0.0
C623 C 0.98481 0.52864 0.05419 0.0
C624 C 0.97897 0.54659 0.09148 0.0
C625 C 0.96127 0.55978 0.07473 0.0
C626 C 0.94955 0.55476 0.01772 0.0
C627 C 0.9556 0.5367 0.9782 0.0
C628 C 0.97334 0.5234 0.99737 0.0
H629 H 0.45464 0.54336 0.532 0.0
H630 H 0.46821 0.48155 0.62748 0.0
H631 H 0.50225 0.478 0.56282 0.0
H632 H 0.46937 0.5257 0.38399 0.0
H633 H 0.4821 0.55385 0.36423 0.0
H634 H 0.45964 0.55117 0.4194 0.0
H635 H 0.4864 0.57542 0.4996 0.0
H636 H 0.50911 0.57789 0.44478 0.0
H637 H 0.51421 0.56632 0.51966 0.0
H638 H 0.53438 0.48116 0.48277 0.0
H639 H 0.55869 0.48896 0.39196 0.0
H640 H 0.52406 0.54991 0.35709 0.0
C641 C 0.46487 0.52921 0.54019 0.0
C642 C 0.45892 0.51288 0.58521 0.0
C643 C 0.47248 0.49427 0.59308 0.0
C644 C 0.49193 0.49225 0.55698 0.0
C645 C 0.49758 0.50908 0.51384 0.0
C646 C 0.4843 0.52715 0.5055 0.0
C647 C 0.49321 0.54269 0.45523 0.0
C648 C 0.47501 0.54337 0.40262 0.0
C649 C 0.50121 0.56702 0.48141 0.0
C650 C 0.51334 0.5303 0.4351 0.0
C651 C 0.51588 0.51107 0.46952 0.0
C652 C 0.53265 0.49633 0.45606 0.0
C653 C 0.54651 0.50097 0.40475 0.0
C654 C 0.54326 0.52005 0.3676 0.0
C655 C 0.52702 0.53522 0.38467 0.0
H656 H 0.09516 0.41399 0.27271 0.0
H657 H 0.11741 0.48272 0.21266 0.0
H658 H 0.14919 0.46739 0.15682 0.0
H659 H 0.14846 0.39868 0.30775 0.0
H660 H 0.14293 0.36893 0.28235 0.0
H661 H 0.11958 0.38446 0.30687 0.0
H662 H 0.098 0.37455 0.20182 0.0
H663 H 0.1214 0.35893 0.17688 0.0
H664 H 0.11212 0.38179 0.13099 0.0
H665 H 0.18213 0.44561 0.12207 0.0
H666 H 0.21305 0.41971 0.11401 0.0
H667 H 0.16858 0.36533 0.19524 0.0
C668 C 0.10627 0.42574 0.2463 0.0
C669 C 0.10372 0.44954 0.24696 0.0
C670 C 0.11893 0.46438 0.21264 0.0
C671 C 0.137 0.45581 0.18054 0.0
C672 C 0.13949 0.43233 0.18253 0.0
C673 C 0.12436 0.41748 0.21412 0.0
C674 C 0.13213 0.39353 0.21517 0.0
C675 C 0.13601 0.38598 0.28197 0.0
C676 C 0.11488 0.37618 0.17904 0.0
C677 C 0.15457 0.39746 0.18196 0.0
C678 C 0.15839 0.4198 0.16235 0.0
C679 C 0.17909 0.42793 0.13602 0.0
C680 C 0.19658 0.41307 0.13149 0.0
C681 C 0.19329 0.39044 0.15385 0.0
C682 C 0.17165 0.38244 0.17716 0.0
H683 H 0.8054 0.91797 0.47836 0.0
H684 H 0.8501 0.94906 0.62798 0.0
H685 H 0.87329 0.97137 0.55292 0.0
H686 H 0.85028 0.91342 0.36713 0.0
H687 H 0.83243 0.92032 0.30236 0.0
H688 H 0.81952 0.9063 0.36774 0.0
H689 H 0.79287 0.93898 0.38004 0.0
H690 H 0.80574 0.95313 0.31483 0.0
H691 H 0.80541 0.96844 0.38817 0.0
H692 H 0.89118 0.99108 0.46255 0.0
H693 H 0.90301 0.0064 0.36206 0.0
H694 H 0.84697 0.96263 0.27037 0.0
C695 C 0.82015 0.92936 0.49529 0.0
C696 C 0.82591 0.93172 0.55918 0.0
C697 C 0.8453 0.94691 0.57937 0.0
C698 C 0.85861 0.95969 0.53706 0.0
C699 C 0.85238 0.95712 0.47459 0.0
C700 C 0.83367 0.9423 0.45361 0.0
C701 C 0.83062 0.94299 0.38395 0.0
C702 C 0.83339 0.91936 0.35351 0.0
C703 C 0.80727 0.95139 0.3657 0.0
C704 C 0.85045 0.9606 0.36925 0.0
C705 C 0.86278 0.9685 0.42224 0.0
C706 C 0.88171 0.98498 0.42066 0.0
C707 C 0.88827 0.99361 0.36331 0.0
C708 C 0.87595 0.98574 0.30822 0.0
C709 C 0.85679 0.96899 0.31154 0.0
H710 H 0.30136 0.65129 0.62944 0.0
H711 H 0.34703 0.71418 0.65927 0.0
H712 H 0.37562 0.69213 0.71076 0.0
H713 H 0.31887 0.62236 0.77586 0.0
H714 H 0.31659 0.59461 0.73637 0.0
H715 H 0.29788 0.6159 0.7136 0.0
H716 H 0.31145 0.61266 0.6011 0.0
H717 H 0.33012 0.59148 0.62343 0.0
H718 H 0.3418 0.61717 0.5864 0.0
H719 H 0.40202 0.66271 0.73805 0.0
H720 H 0.42353 0.62836 0.74194 0.0
H721 H 0.36048 0.5845 0.69991 0.0
C722 C 0.31706 0.66056 0.64855 0.0
C723 C 0.32193 0.68449 0.64029 0.0
C724 C 0.34283 0.6959 0.66523 0.0
C725 C 0.35917 0.68351 0.69478 0.0
C726 C 0.35419 0.65978 0.70004 0.0
C727 C 0.33348 0.64847 0.67843 0.0
C728 C 0.33334 0.6226 0.68351 0.0
C729 C 0.31562 0.61333 0.73013 0.0
C730 C 0.32894 0.61027 0.61984 0.0
C731 C 0.35771 0.62103 0.7078 0.0
C732 C 0.36934 0.6427 0.718 0.0
C733 C 0.39292 0.64568 0.73228 0.0
C734 C 0.40501 0.6261 0.73439 0.0
C735 C 0.3935 0.60385 0.72283 0.0
C736 C 0.36945 0.60127 0.71145 0.0
H737 H 0.6992 0.14689 0.05105 0.0
H738 H 0.658 0.20391 0.08153 0.0
H739 H 0.62984 0.18733 0.00188 0.0
H740 H 0.68523 0.13714 0.88183 0.0
H741 H 0.6837 0.1063 0.88805 0.0
H742 H 0.70299 0.1247 0.93875 0.0
H743 H 0.68417 0.10567 0.03411 0.0
H744 H 0.66508 0.08714 0.98384 0.0
H745 H 0.65344 0.10497 0.04204 0.0
H746 H 0.60381 0.16266 0.9306 0.0
H747 H 0.57993 0.12977 0.88063 0.0
H748 H 0.63712 0.08802 0.89636 0.0
C749 C 0.68457 0.15622 0.03987 0.0
C750 C 0.68126 0.17716 0.07126 0.0
C751 C 0.66138 0.18829 0.05676 0.0
C752 C 0.64526 0.17902 0.01144 0.0
C753 C 0.6491 0.15844 0.98123 0.0
C754 C 0.66817 0.14706 0.99509 0.0
C755 C 0.66665 0.12373 0.9619 0.0
C756 C 0.68578 0.12293 0.91483 0.0
C757 C 0.66736 0.10424 0.00824 0.0
C758 C 0.6432 0.1233 0.92973 0.0
C759 C 0.63367 0.14377 0.94027 0.0
C760 C 0.61123 0.14672 0.92092 0.0
C761 C 0.5978 0.12796 0.89253 0.0
C762 C 0.6068 0.10649 0.88401 0.0
C763 C 0.63007 0.10445 0.90058 0.0
H764 H 0.10205 0.58976 0.44533 0.0
H765 H 0.14011 0.53073 0.41112 0.0
H766 H 0.17674 0.5553 0.43287 0.0
H767 H 0.14079 0.6303 0.37195 0.0
H768 H 0.13667 0.65346 0.42598 0.0
H769 H 0.11392 0.63072 0.41083 0.0
H770 H 0.11268 0.62289 0.52806 0.0
H771 H 0.13571 0.6454 0.54343 0.0
H772 H 0.13857 0.61665 0.56893 0.0
H773 H 0.20931 0.587 0.45913 0.0
H774 H 0.23464 0.62361 0.47303 0.0
H775 H 0.17437 0.66111 0.4863 0.0
C776 C 0.11806 0.58191 0.44263 0.0
C777 C 0.11825 0.55832 0.42697 0.0
C778 C 0.13959 0.54882 0.42295 0.0
C779 C 0.16044 0.56258 0.43574 0.0
C780 C 0.15956 0.58577 0.45202 0.0
C781 C 0.13888 0.59536 0.45456 0.0
C782 C 0.14243 0.62092 0.46931 0.0
C783 C 0.1329 0.63465 0.41636 0.0
C784 C 0.13171 0.6268 0.53111 0.0
C785 C 0.16839 0.62436 0.47411 0.0
C786 C 0.17806 0.60389 0.46515 0.0
C787 C 0.2019 0.6031 0.46632 0.0
C788 C 0.21614 0.62391 0.47472 0.0
C789 C 0.20639 0.64509 0.48072 0.0
C790 C 0.18226 0.64513 0.4819 0.0
H791 H 0.60442 0.95832 0.69612 0.0
H792 H 0.64221 0.02594 0.68904 0.0
H793 H 0.67584 0.00818 0.64935 0.0
H794 H 0.64791 0.93257 0.75981 0.0
H795 H 0.64169 0.905 0.72013 0.0
H796 H 0.61901 0.9231 0.73206 0.0
H797 H 0.60961 0.92191 0.61428 0.0
H798 H 0.63233 0.90364 0.60194 0.0
H799 H 0.63207 0.93019 0.56145 0.0
H800 H 0.70707 0.98276 0.62644 0.0
H801 H 0.73361 0.95233 0.63068 0.0
H802 H 0.67574 0.90146 0.65832 0.0
C803 C 0.61944 0.96949 0.68387 0.0
C804 C 0.62063 0.99352 0.69485 0.0
C805 C 0.64088 0.00749 0.68039 0.0
C806 C 0.66002 0.99755 0.65753 0.0
C807 C 0.6586 0.97364 0.64947 0.0
C808 C 0.63876 0.95981 0.66219 0.0
C809 C 0.64266 0.93456 0.65938 0.0
C810 C 0.63753 0.92316 0.72153 0.0
C811 C 0.62831 0.92183 0.60607 0.0
C812 C 0.66808 0.93636 0.64637 0.0
C813 C 0.67684 0.95896 0.63877 0.0
C814 C 0.70031 0.96497 0.6312 0.0
C815 C 0.71527 0.94756 0.63356 0.0
C816 C 0.70672 0.92454 0.64485 0.0
C817 C 0.68275 0.91888 0.64924 0.0
H818 H 0.36201 0.45055 0.80129 0.0
H819 H 0.37806 0.51666 0.89779 0.0
H820 H 0.3551 0.5025 0.98528 0.0
H821 H 0.30363 0.44001 0.85038 0.0
H822 H 0.30486 0.40953 0.85921 0.0
H823 H 0.32257 0.42471 0.80373 0.0
H824 H 0.35902 0.41039 0.85459 0.0
H825 H 0.3414 0.39507 0.91003 0.0
H826 H 0.36491 0.41574 0.93613 0.0
H827 H 0.3302 0.48167 0.06139 0.0
H828 H 0.30622 0.45491 0.12425 0.0
H829 H 0.30635 0.40171 0.98002 0.0
C830 C 0.36074 0.46205 0.84085 0.0
C831 C 0.37184 0.48477 0.84254 0.0
C832 C 0.36977 0.49921 0.89532 0.0
C833 C 0.35671 0.49134 0.94524 0.0
C834 C 0.34587 0.46895 0.94188 0.0
C835 C 0.34783 0.45443 0.8913 0.0
C836 C 0.33462 0.43104 0.89997 0.0
C837 C 0.31527 0.42604 0.85037 0.0
C838 C 0.35097 0.41194 0.90021 0.0
C839 C 0.32493 0.43472 0.96333 0.0
C840 C 0.3316 0.45676 0.98638 0.0
C841 C 0.32491 0.46435 0.04392 0.0
C842 C 0.31123 0.44896 0.07927 0.0
C843 C 0.30437 0.42614 0.05724 0.0
C844 C 0.31125 0.41903 -0.00183 0.0
H845 H 0.78947 0.13914 0.11599 0.0
H846 H 0.83298 0.20358 0.10481 0.0
H847 H 0.86671 0.18411 0.13746 0.0
H848 H 0.82085 0.1163 0.24996 0.0
H849 H 0.81696 0.08726 0.21823 0.0
H850 H 0.79563 0.10683 0.20255 0.0
H851 H 0.79964 0.09978 0.08487 0.0
H852 H 0.8208 0.08013 0.10021 0.0
H853 H 0.82768 0.10436 0.05189 0.0
H854 H 0.89621 0.15708 0.15722 0.0
H855 H 0.91955 0.12407 0.15985 0.0
H856 H 0.85723 0.0771 0.16147 0.0
C857 C 0.80601 0.14927 0.12165 0.0
C858 C 0.80857 0.17292 0.10794 0.0
C859 C 0.83057 0.18546 0.11503 0.0
C860 C 0.84983 0.17458 0.13397 0.0
C861 C 0.84679 0.15118 0.14621 0.0
C862 C 0.82543 0.13866 0.14054 0.0
C863 C 0.82721 0.11331 0.1509 0.0
C864 C 0.8144 0.10547 0.20887 0.0
C865 C 0.81832 0.09854 0.09355 0.0
C866 C 0.85303 0.11339 0.16068 0.0
C867 C 0.86395 0.13549 0.15875 0.0
C868 C 0.88787 0.13976 0.16025 0.0
C869 C 0.90098 0.12093 0.16176 0.0
C870 C 0.89017 0.09813 0.16199 0.0
C871 C 0.86591 0.09439 0.16343 0.0
H872 H 0.81624 0.67116 0.07357 0.0
H873 H 0.76087 0.61648 0.09087 0.0
H874 H 0.78252 0.59032 0.02844 0.0
H875 H 0.82929 0.65769 0.91709 0.0
H876 H 0.85988 0.66475 0.92907 0.0
H877 H 0.84008 0.67898 0.97537 0.0
H878 H 0.86001 0.66601 0.07512 0.0
H879 H 0.87994 0.65182 0.02917 0.0
H880 H 0.86297 0.63585 0.08483 0.0
H881 H 0.81018 0.57044 0.96239 0.0
H882 H 0.84215 0.5579 0.90178 0.0
H883 H 0.87934 0.62576 0.92942 0.0
C884 C 0.80862 0.65367 0.06451 0.0
C885 C 0.78682 0.64587 0.08716 0.0
C886 C 0.77754 0.62284 0.07409 0.0
C887 C 0.78969 0.60788 0.03857 0.0
C888 C 0.81107 0.61623 0.01662 0.0
C889 C 0.82047 0.63857 0.02935 0.0
C890 C 0.84372 0.64338 0.00057 0.0
C891 C 0.8432 0.66232 0.95268 0.0
C892 C 0.86278 0.64962 0.0504 0.0
C893 C 0.84607 0.62019 0.96987 0.0
C894 C 0.827 0.6048 0.97928 0.0
C895 C 0.8252 0.58235 0.95485 0.0
C896 C 0.84343 0.57541 0.92035 0.0
C897 C 0.86328 0.59084 0.91091 0.0
C898 C 0.86447 0.61353 0.93592 0.0
H899 H 0.22005 0.14377 0.66339 0.0
H900 H 0.18455 0.20565 0.67701 0.0
H901 H 0.14726 0.18183 0.67328 0.0
H902 H 0.17894 0.11182 0.55794 0.0
H903 H 0.18146 0.08462 0.59368 0.0
H904 H 0.20551 0.10652 0.59692 0.0
H905 H 0.20718 0.10479 0.71634 0.0
H906 H 0.18303 0.08298 0.71344 0.0
H907 H 0.1818 0.10911 0.75905 0.0
H908 H 0.11383 0.15167 0.66751 0.0
H909 H 0.08621 0.11691 0.65898 0.0
H910 H 0.14304 0.07425 0.65102 0.0
C911 C 0.20444 0.15234 0.66529 0.0
C912 C 0.20531 0.17665 0.67044 0.0
C913 C 0.18443 0.1871 0.67317 0.0
C914 C 0.16311 0.17371 0.67111 0.0
C915 C 0.16289 0.14986 0.66656 0.0
C916 C 0.18296 0.13922 0.66365 0.0
C917 C 0.1778 0.11322 0.6591 0.0
C918 C 0.18644 0.10348 0.59829 0.0
C919 C 0.18806 0.10186 0.71534 0.0
C920 C 0.1517 0.11098 0.65968 0.0
C921 C 0.1435 0.13235 0.66399 0.0
C922 C 0.12003 0.13482 0.66425 0.0
C923 C 0.10447 0.11494 0.65937 0.0
C924 C 0.11239 0.09279 0.65448 0.0
C925 C 0.13639 0.09088 0.65522 0.0
H926 H 0.69271 0.41451 0.45999 0.0
H927 H 0.73325 0.39038 0.31122 0.0
H928 H 0.72002 0.42018 0.244 0.0
H929 H 0.64463 0.42251 0.36613 0.0
H930 H 0.63698 0.44779 0.40719 0.0
H931 H 0.65234 0.42711 0.44702 0.0
H932 H 0.68441 0.45929 0.48057 0.0
H933 H 0.66912 0.48011 0.44067 0.0
H934 H 0.69859 0.47673 0.42276 0.0
H935 H 0.70034 0.45012 0.19031 0.0
H936 H 0.67313 0.47624 0.1506 0.0
H937 H 0.64354 0.48019 0.33185 0.0
C938 C 0.6992 0.41596 0.41377 0.0
C939 C 0.71422 0.40039 0.3909 0.0
C940 C 0.72183 0.40224 0.32961 0.0
C941 C 0.71452 0.41919 0.29123 0.0
C942 C 0.69941 0.43406 0.3146 0.0
C943 C 0.69168 0.43256 0.37428 0.0
C944 C 0.67353 0.44898 0.38545 0.0
C945 C 0.65051 0.43581 0.40242 0.0
C946 C 0.68192 0.46737 0.43532 0.0
C947 C 0.67188 0.45947 0.32232 0.0
C948 C 0.68732 0.45093 0.28264 0.0
C949 C 0.68832 0.45711 0.22106 0.0
C950 C 0.67275 0.47197 0.19892 0.0
C951 C 0.65617 0.48032 0.238 0.0
C952 C 0.65614 0.47433 0.30091 0.0
H953 H 0.35598 0.96566 0.21967 0.0
H954 H 0.40575 0.91836 0.27047 0.0
H955 H 0.37836 0.88559 0.23336 0.0
H956 H 0.30374 0.92826 0.25707 0.0
H957 H 0.28768 0.93771 0.19188 0.0
H958 H 0.31021 0.95694 0.2293 0.0
H959 H 0.32971 0.96249 0.12396 0.0
H960 H 0.30757 0.94283 0.0865 0.0
H961 H 0.33739 0.93765 0.08089 0.0
H962 H 0.34666 0.85824 0.18339 0.0
H963 H 0.31181 0.83813 0.13168 0.0
H964 H 0.28364 0.90371 0.11039 0.0
C965 C 0.3609 0.94839 0.22483 0.0
C966 C 0.38297 0.94458 0.24849 0.0
C967 C 0.38889 0.9217 0.25287 0.0
C968 C 0.37348 0.90297 0.23168 0.0
C969 C 0.35227 0.90744 0.20614 0.0
C970 C 0.34586 0.92956 0.20331 0.0
C971 C 0.32259 0.92983 0.17083 0.0
C972 C 0.30501 0.9387 0.21491 0.0
C973 C 0.32444 0.94404 0.11207 0.0
C974 C 0.31702 0.90444 0.15516 0.0
C975 C 0.3343 0.89179 0.1761 0.0
C976 C 0.33297 0.86796 0.16704 0.0
C977 C 0.31316 0.85671 0.13727 0.0
C978 C 0.295 0.86931 0.11656 0.0
C979 C 0.29727 0.89355 0.12491 0.0
H980 H 0.82725 0.37696 0.66164 0.0
H981 H 0.76502 0.41187 0.66686 0.0
H982 H 0.78624 0.4442 0.72727 0.0
H983 H 0.85087 0.39559 0.81483 0.0
H984 H 0.88008 0.39944 0.78915 0.0
H985 H 0.85956 0.37809 0.75145 0.0
H986 H 0.86759 0.39655 0.64566 0.0
H987 H 0.88834 0.41768 0.68292 0.0
H988 H 0.86481 0.4268 0.63723 0.0
H989 H 0.81451 0.47319 0.78349 0.0
H990 H 0.84856 0.49906 0.81851 0.0
H991 H 0.89257 0.44553 0.77357 0.0
C992 C 0.81801 0.39129 0.67607 0.0
C993 C 0.79446 0.39187 0.66002 0.0
C994 C 0.78309 0.41112 0.67862 0.0
C995 C 0.79493 0.42943 0.71343 0.0
C996 C 0.81812 0.42823 0.72887 0.0
C997 C 0.82961 0.4098 0.71005 0.0
C998 C 0.855 0.41362 0.72771 0.0
C999 C 0.86177 0.39561 0.77352 0.0
C1000 C 0.8698 0.41368 0.66995 0.0
C1001 C 0.85611 0.43731 0.75843 0.0
C1002 C 0.83458 0.44523 0.75976 0.0
C1003 C 0.83144 0.46713 0.78303 0.0
C1004 C 0.85093 0.48168 0.803 0.0
C1005 C 0.87333 0.47439 0.79874 0.0
C1006 C 0.87574 0.45159 0.77816 0.0
H1007 H 0.35112 0.16165 0.52651 0.0
H1008 H 0.28728 0.12026 0.56313 0.0
H1009 H 0.29904 0.0889 0.49526 0.0
H1010 H 0.35432 0.14465 0.36703 0.0
H1011 H 0.3852 0.14452 0.37041 0.0
H1012 H 0.37152 0.16353 0.42134 0.0
H1013 H 0.39096 0.14631 0.51616 0.0
H1014 H 0.40479 0.12735 0.46552 0.0
H1015 H 0.38716 0.11563 0.52636 0.0
H1016 H 0.31837 0.06197 0.42236 0.0
H1017 H 0.34399 0.04163 0.35522 0.0
H1018 H 0.39469 0.10133 0.36851 0.0
C1019 C 0.33954 0.14602 0.52041 0.0
C1020 C 0.31826 0.14342 0.55012 0.0
C1021 C 0.3037 0.12262 0.54089 0.0
C1022 C 0.3102 0.10476 0.5023 0.0
C1023 C 0.33131 0.10799 0.47344 0.0
C1024 C 0.34576 0.12811 0.48237 0.0
C1025 C 0.36767 0.12733 0.44712 0.0
C1026 C 0.36979 0.14612 0.3986 0.0
C1027 C 0.38889 0.12926 0.49144 0.0
C1028 C 0.36341 0.10359 0.41698 0.0
C1029 C 0.34233 0.09266 0.43231 0.0
C1030 C 0.33489 0.07042 0.41007 0.0
C1031 C 0.34952 0.05902 0.37184 0.0
C1032 C 0.37134 0.06988 0.35655 0.0
C1033 C 0.37813 0.09252 0.37917 0.0
H1034 H 0.64081 0.57541 0.1934 0.0
H1035 H 0.57818 0.60998 0.18994 0.0
H1036 H 0.60123 0.64732 0.18369 0.0
H1037 H 0.67552 0.61956 0.28668 0.0
H1038 H 0.70142 0.61659 0.24504 0.0
H1039 H 0.6801 0.59226 0.25051 0.0
H1040 H 0.67784 0.58774 0.13116 0.0
H1041 H 0.699 0.61219 0.12535 0.0
H1042 H 0.67139 0.61184 0.0857 0.0
H1043 H 0.63031 0.68083 0.17566 0.0
H1044 H 0.66429 0.70912 0.17106 0.0
H1045 H 0.70882 0.65381 0.17982 0.0
C1046 C 0.63197 0.59085 0.19193 0.0
C1047 C 0.6076 0.58962 0.19211 0.0
C1048 C 0.59676 0.61031 0.18966 0.0
C1049 C 0.60971 0.63169 0.18605 0.0
C1050 C 0.63356 0.63226 0.18491 0.0
C1051 C 0.64469 0.61249 0.18813 0.0
C1052 C 0.67062 0.6182 0.18584 0.0
C1053 C 0.68262 0.61124 0.24558 0.0
C1054 C 0.68028 0.60681 0.1286 0.0
C1055 C 0.6722 0.64422 0.18083 0.0
C1056 C 0.65056 0.65186 0.18025 0.0
C1057 C 0.64738 0.67509 0.17621 0.0
C1058 C 0.66685 0.69105 0.17356 0.0
C1059 C 0.68934 0.6838 0.17496 0.0
C1060 C 0.69194 0.65997 0.1781 0.0
H1061 H 0.15846 0.92066 0.96177 0.0
H1062 H 0.23158 0.93002 0.92676 0.0
H1063 H 0.22442 0.95935 0.84987 0.0
H1064 H 0.13915 0.92325 0.80911 0.0
H1065 H 0.11454 0.93838 0.82642 0.0
H1066 H 0.12586 0.92016 0.88296 0.0
H1067 H 0.13073 0.95433 0.96287 0.0
H1068 H 0.11923 0.97264 0.90663 0.0
H1069 H 0.14704 0.98086 0.94333 0.0
H1070 H 0.20826 0.98586 0.77051 0.0
H1071 H 0.18484 0.00686 0.69802 0.0
H1072 H 0.12279 0.97884 0.78636 0.0
C1073 C 0.17309 0.92911 0.93882 0.0
C1074 C 0.19559 0.92307 0.95043 0.0
C1075 C 0.21418 0.93447 0.91887 0.0
C1076 C 0.21028 0.95113 0.87509 0.0
C1077 C 0.18772 0.95627 0.86375 0.0
C1078 C 0.1695 0.94565 0.89519 0.0
C1079 C 0.14674 0.95314 0.87271 0.0
C1080 C 0.13064 0.93251 0.84622 0.0
C1081 C 0.13527 0.96601 0.92447 0.0
C1082 C 0.15487 0.96922 0.82261 0.0
C1083 C 0.17855 0.97108 0.81829 0.0
C1084 C 0.18972 0.98463 0.77389 0.0
C1085 C 0.17629 0.99647 0.73286 0.0
C1086 C 0.15198 0.99445 0.73628 0.0
C1087 C 0.14132 0.98075 0.7822 0.0
loop_
_geom_bond_atom_site_label_1
_geom_bond_atom_site_label_2
_geom_bond_distance
_geom_bond_site_symmetry_2
_ccdc_geom_bond_type
Mg0 O1 2.028 1_554 S
Mg0 O7 1.986 . S
Mg0 O9 2.114 . S
Mg0 O10 2.251 . S
Mg0 O13 2.010 . S
O1 Mg0 2.028 1_556 S
O1 C4 1.250 . S
O2 Mg3 2.028 . S
O2 C4 1.248 1_554 S
Mg3 O2 2.028 . S
Mg3 O8 2.032 . S
Mg3 O10 2.079 . S
C4 O1 1.250 . S
C4 O2 1.248 1_556 S
C5 O6 1.264 . S
C5 O13 1.249 . S
O6 C5 1.264 . S
O7 Mg0 1.986 . S
O7 C11 1.246 . S
O8 Mg3 2.032 . S
O8 C11 1.259 . S
O9 Mg0 2.114 . S
O9 C12 1.252 . S
O10 Mg0 2.251 . S
O10 Mg3 2.079 . S
O10 C12 1.273 . S
C11 O7 1.246 . S
C11 O8 1.259 . S
C12 O9 1.252 . S
C12 O10 1.273 . S
O13 Mg0 2.010 . S
O13 C5 1.249 . S
Mg14 O15 2.028 . S
Mg14 O21 1.986 . S
Mg14 O23 2.114 . S
Mg14 O24 2.251 . S
Mg14 O27 2.010 . S
O15 Mg14 2.028 . S
O15 C18 1.250 . S
O16 Mg17 2.028 . S
O16 C18 1.248 . S
Mg17 O16 2.028 . S
Mg17 O22 2.032 . S
Mg17 O24 2.079 . S
C18 O15 1.250 . S
C18 O16 1.248 . S
C19 O20 1.264 . S
C19 O27 1.249 1_565 S
O20 C19 1.264 . S
O21 Mg14 1.986 . S
O21 C25 1.246 . S
O22 Mg17 2.032 . S
O22 C25 1.259 . S
O23 Mg14 2.114 . S
O23 C26 1.252 . S
O24 Mg14 2.251 . S
O24 Mg17 2.079 . S
O24 C26 1.273 . S
C25 O21 1.246 . S
C25 O22 1.259 . S
C26 O23 1.252 . S
C26 O24 1.273 . S
O27 Mg14 2.010 . S
O27 C19 1.249 1_545 S
Mg28 O29 2.028 . S
Mg28 O35 1.986 . S
Mg28 O37 2.114 . S
Mg28 O38 2.251 . S
Mg28 O41 2.010 . S
O29 Mg28 2.028 . S
O29 C32 1.250 . S
O30 Mg31 2.028 . S
O30 C32 1.248 . S
Mg31 O30 2.028 . S
Mg31 O36 2.032 . S
Mg31 O38 2.079 . S
C32 O29 1.250 . S
C32 O30 1.248 . S
C33 O34 1.264 . S
C33 O41 1.249 . S
O34 C33 1.264 . S
O35 Mg28 1.986 . S
O35 C39 1.246 . S
O36 Mg31 2.032 . S
O36 C39 1.259 . S
O37 Mg28 2.114 . S
O37 C40 1.252 . S
O38 Mg28 2.251 . S
O38 Mg31 2.079 . S
O38 C40 1.273 . S
C39 O35 1.246 . S
C39 O36 1.259 . S
C40 O37 1.252 . S
C40 O38 1.273 . S
O41 Mg28 2.010 . S
O41 C33 1.249 . S
Mg42 O43 2.028 . S
Mg42 O49 1.986 . S
Mg42 O51 2.114 1_545 S
Mg42 O52 2.251 . S
Mg42 O55 2.010 1_545 S
O43 Mg42 2.028 . S
O43 C46 1.250 . S
O44 Mg45 2.028 . S
O44 C46 1.248 . S
Mg45 O44 2.028 . S
Mg45 O50 2.032 . S
Mg45 O52 2.079 . S
C46 O43 1.250 . S
C46 O44 1.248 . S
C47 O48 1.264 . S
C47 O55 1.249 . S
O48 C47 1.264 . S
O49 Mg42 1.986 . S
O49 C53 1.246 . S
O50 Mg45 2.032 . S
O50 C53 1.259 . S
O51 Mg42 2.114 1_565 S
O51 C54 1.252 1_565 S
O52 Mg42 2.251 . S
O52 Mg45 2.079 . S
O52 C54 1.273 . S
C53 O49 1.246 . S
C53 O50 1.259 . S
C54 O51 1.252 1_545 S
C54 O52 1.273 . S
O55 Mg42 2.010 1_565 S
O55 C47 1.249 . S
Mg56 O57 2.028 . S
Mg56 O63 1.986 1_554 S
Mg56 O65 2.114 . S
Mg56 O66 2.251 . S
Mg56 O69 2.010 . S
O57 Mg56 2.028 . S
O57 C60 1.250 . S
O58 Mg59 2.028 . S
O58 C60 1.248 . S
Mg59 O58 2.028 . S
Mg59 O64 2.032 1_554 S
Mg59 O66 2.079 . S
C60 O57 1.250 . S
C60 O58 1.248 . S
C61 O62 1.264 . S
C61 O69 1.249 . S
O62 C61 1.264 . S
O63 Mg56 1.986 1_556 S
O63 C67 1.246 . S
O64 Mg59 2.032 1_556 S
O64 C67 1.259 . S
O65 Mg56 2.114 . S
O65 C68 1.252 . S
O66 Mg56 2.251 . S
O66 Mg59 2.079 . S
O66 C68 1.273 . S
C67 O63 1.246 . S
C67 O64 1.259 . S
C68 O65 1.252 . S
C68 O66 1.273 . S
O69 Mg56 2.010 . S
O69 C61 1.249 . S
Mg70 O71 2.028 . S
Mg70 O77 1.986 . S
Mg70 O79 2.114 . S
Mg70 O80 2.251 . S
Mg70 O83 2.006 1_545 S
O71 Mg70 2.028 . S
O71 C74 1.250 . S
O72 Mg73 2.028 . S
O72 C74 1.248 . S
Mg73 O72 2.028 . S
Mg73 O78 2.032 . S
Mg73 O80 2.079 . S
C74 O71 1.250 . S
C74 O72 1.248 . S
C75 O76 1.264 . S
C75 O83 1.254 . S
O76 C75 1.264 . S
O77 Mg70 1.986 . S
O77 C81 1.246 . S
O78 Mg73 2.032 . S
O78 C81 1.259 . S
O79 Mg70 2.114 . S
O79 C82 1.252 . S
O80 Mg70 2.251 . S
O80 Mg73 2.079 . S
O80 C82 1.273 . S
C81 O77 1.246 . S
C81 O78 1.259 . S
C82 O79 1.252 . S
C82 O80 1.273 . S
O83 Mg70 2.006 1_565 S
O83 C75 1.254 . S
Mg84 O85 2.028 . S
Mg84 O91 1.986 . S
Mg84 O93 2.114 . S
Mg84 O94 2.251 . S
Mg84 O97 2.010 . S
O85 Mg84 2.028 . S
O85 C88 1.250 . S
O86 Mg87 2.028 . S
O86 C88 1.248 . S
Mg87 O86 2.028 . S
Mg87 O92 2.032 . S
Mg87 O94 2.079 . S
C88 O85 1.250 . S
C88 O86 1.248 . S
C89 O90 1.264 . S
C89 O97 1.249 . S
O90 C89 1.264 . S
O91 Mg84 1.986 . S
O91 C95 1.246 . S
O92 Mg87 2.032 . S
O92 C95 1.259 . S
O93 Mg84 2.114 . S
O93 C96 1.252 . S
O94 Mg84 2.251 . S
O94 Mg87 2.079 . S
O94 C96 1.273 . S
C95 O91 1.246 . S
C95 O92 1.259 . S
C96 O93 1.252 . S
C96 O94 1.273 . S
O97 Mg84 2.010 . S
O97 C89 1.249 . S
Mg98 O99 2.028 . S
Mg98 O105 1.986 . S
Mg98 O107 2.114 . S
Mg98 O108 2.251 . S
Mg98 O111 2.010 . S
O99 Mg98 2.028 . S
O99 C102 1.250 1_545 S
O100 Mg101 2.028 . S
O100 C102 1.248 . S
Mg101 O100 2.028 . S
Mg101 O106 2.032 . S
Mg101 O108 2.079 1_565 S
C102 O99 1.250 1_565 S
C102 O100 1.248 . S
C103 O104 1.264 . S
C103 O111 1.249 . S
O104 C103 1.264 . S
O105 Mg98 1.986 . S
O105 C109 1.246 . S
O106 Mg101 2.032 . S
O106 C109 1.259 1_565 S
O107 Mg98 2.114 . S
O107 C110 1.252 . S
O108 Mg98 2.251 . S
O108 Mg101 2.079 1_545 S
O108 C110 1.273 . S
C109 O105 1.246 . S
C109 O106 1.259 1_545 S
C110 O107 1.252 . S
C110 O108 1.273 . S
O111 Mg98 2.010 . S
O111 C103 1.249 . S
Mg112 O113 2.028 . S
Mg112 O119 1.986 . S
Mg112 O121 2.114 . S
Mg112 O122 2.251 . S
Mg112 O125 2.010 . S
O113 Mg112 2.028 . S
O113 C116 1.250 . S
O114 Mg115 2.028 . S
O114 C116 1.248 . S
Mg115 O114 2.028 . S
Mg115 O120 2.032 . S
Mg115 O122 2.079 . S
C116 O113 1.250 . S
C116 O114 1.248 . S
C117 O118 1.264 . S
C117 O125 1.249 . S
O118 C117 1.264 . S
O119 Mg112 1.986 . S
O119 C123 1.246 . S
O120 Mg115 2.032 . S
O120 C123 1.259 . S
O121 Mg112 2.114 . S
O121 C124 1.252 . S
O122 Mg112 2.251 . S
O122 Mg115 2.079 . S
O122 C124 1.273 . S
C123 O119 1.246 . S
C123 O120 1.259 . S
C124 O121 1.252 . S
C124 O122 1.273 . S
O125 Mg112 2.010 . S
O125 C117 1.249 . S
Mg126 O127 2.028 . S
Mg126 O133 1.986 . S
Mg126 O135 2.114 . S
Mg126 O136 2.251 . S
Mg126 O139 2.010 . S
O127 Mg126 2.028 . S
O127 C130 1.250 . S
O128 Mg129 2.028 . S
O128 C130 1.248 . S
Mg129 O128 2.028 . S
Mg129 O134 2.032 . S
Mg129 O136 2.079 . S
C130 O127 1.250 . S
C130 O128 1.248 . S
C131 O132 1.264 . S
C131 O139 1.249 . S
O132 C131 1.264 . S
O133 Mg126 1.986 . S
O133 C137 1.246 . S
O134 Mg129 2.032 . S
O134 C137 1.259 . S
O135 Mg126 2.114 . S
O135 C138 1.252 . S
O136 Mg126 2.251 . S
O136 Mg129 2.079 . S
O136 C138 1.273 . S
C137 O133 1.246 . S
C137 O134 1.259 . S
C138 O135 1.252 . S
C138 O136 1.273 . S
O139 Mg126 2.010 . S
O139 C131 1.249 . S
Mg140 O141 2.028 . S
Mg140 O147 1.986 . S
Mg140 O149 2.114 1_554 S
Mg140 O150 2.251 1_554 S
Mg140 O153 2.010 . S
O141 Mg140 2.028 . S
O141 C144 1.250 . S
O142 Mg143 2.027 . S
O142 C144 1.248 . S
Mg143 O142 2.027 . S
Mg143 O148 2.032 . S
Mg143 O150 2.080 1_554 S
C144 O141 1.250 . S
C144 O142 1.248 . S
C145 O146 1.264 . S
C145 O153 1.249 . S
O146 C145 1.264 . S
O147 Mg140 1.986 . S
O147 C151 1.246 . S
O148 Mg143 2.032 . S
O148 C151 1.259 . S
O149 Mg140 2.114 1_556 S
O149 C152 1.252 . S
O150 Mg140 2.251 1_556 S
O150 Mg143 2.080 1_556 S
O150 C152 1.273 . S
C151 O147 1.246 . S
C151 O148 1.259 . S
C152 O149 1.252 . S
C152 O150 1.273 . S
O153 Mg140 2.010 . S
O153 C145 1.249 . S
Mg154 O155 2.028 . S
Mg154 O161 1.986 . S
Mg154 O163 2.114 . S
Mg154 O164 2.251 . S
Mg154 O167 2.010 . S
O155 Mg154 2.028 . S
O155 C158 1.250 . S
O156 Mg157 2.028 . S
O156 C158 1.248 . S
Mg157 O156 2.028 . S
Mg157 O162 2.032 . S
Mg157 O164 2.079 . S
C158 O155 1.250 . S
C158 O156 1.248 . S
C159 O160 1.264 . S
C159 O167 1.249 . S
O160 C159 1.264 . S
O161 Mg154 1.986 . S
O161 C165 1.246 . S
O162 Mg157 2.032 . S
O162 C165 1.259 . S
O163 Mg154 2.114 . S
O163 C166 1.252 . S
O164 Mg154 2.251 . S
O164 Mg157 2.079 . S
O164 C166 1.273 . S
C165 O161 1.246 . S
C165 O162 1.259 . S
C166 O163 1.252 . S
C166 O164 1.273 . S
O167 Mg154 2.010 . S
O167 C159 1.249 . S
Mg168 O169 2.028 . S
Mg168 O175 1.986 . S
Mg168 O177 2.114 . S
Mg168 O178 2.251 . S
Mg168 O181 2.010 . S
O169 Mg168 2.028 . S
O169 C172 1.250 . S
O170 Mg171 2.028 . S
O170 C172 1.248 . S
Mg171 O170 2.028 . S
Mg171 O176 2.032 . S
Mg171 O178 2.079 . S
C172 O169 1.250 . S
C172 O170 1.248 . S
C173 O174 1.264 . S
C173 O181 1.249 . S
O174 C173 1.264 . S
O175 Mg168 1.986 . S
O175 C179 1.246 . S
O176 Mg171 2.032 . S
O176 C179 1.259 . S
O177 Mg168 2.114 . S
O177 C180 1.252 . S
O178 Mg168 2.251 . S
O178 Mg171 2.079 . S
O178 C180 1.273 . S
C179 O175 1.246 . S
C179 O176 1.259 . S
C180 O177 1.252 . S
C180 O178 1.273 . S
O181 Mg168 2.010 . S
O181 C173 1.249 . S
Mg182 O183 2.028 . S
Mg182 O189 1.986 . S
Mg182 O191 2.114 . S
Mg182 O192 2.251 . S
Mg182 O195 2.010 . S
O183 Mg182 2.028 . S
O183 C186 1.250 . S
O184 Mg185 2.028 . S
O184 C186 1.248 . S
Mg185 O184 2.028 . S
Mg185 O190 2.032 . S
Mg185 O192 2.079 . S
C186 O183 1.250 . S
C186 O184 1.248 . S
C187 O188 1.264 . S
C187 O195 1.249 . S
O188 C187 1.264 . S
O189 Mg182 1.986 . S
O189 C193 1.246 . S
O190 Mg185 2.032 . S
O190 C193 1.259 . S
O191 Mg182 2.114 . S
O191 C194 1.252 . S
O192 Mg182 2.251 . S
O192 Mg185 2.079 . S
O192 C194 1.273 . S
C193 O189 1.246 . S
C193 O190 1.259 . S
C194 O191 1.252 . S
C194 O192 1.273 . S
O195 Mg182 2.010 . S
O195 C187 1.249 . S
Mg196 O197 2.028 . S
Mg196 O203 1.986 1_554 S
Mg196 O205 2.114 . S
Mg196 O206 2.251 . S
Mg196 O209 2.010 . S
O197 Mg196 2.028 . S
O197 C200 1.250 . S
O198 Mg199 2.028 . S
O198 C200 1.248 . S
Mg199 O198 2.028 . S
Mg199 O204 2.032 1_554 S
Mg199 O206 2.079 . S
C200 O197 1.250 . S
C200 O198 1.248 . S
C201 O202 1.264 1_554 S
C201 O209 1.249 . S
O202 C201 1.264 1_556 S
O203 Mg196 1.986 1_556 S
O203 C207 1.246 . S
O204 Mg199 2.032 1_556 S
O204 C207 1.259 . S
O205 Mg196 2.114 . S
O205 C208 1.252 . S
O206 Mg196 2.251 . S
O206 Mg199 2.079 . S
O206 C208 1.273 . S
C207 O203 1.246 . S
C207 O204 1.259 . S
C208 O205 1.252 . S
C208 O206 1.273 . S
O209 Mg196 2.010 . S
O209 C201 1.249 . S
Mg210 O211 2.028 . S
Mg210 O217 1.986 . S
Mg210 O219 2.114 . S
Mg210 O220 2.251 . S
Mg210 O223 2.010 . S
O211 Mg210 2.028 . S
O211 C214 1.250 . S
O212 Mg213 2.028 . S
O212 C214 1.248 . S
Mg213 O212 2.028 . S
Mg213 O218 2.032 . S
Mg213 O220 2.079 . S
C214 O211 1.250 . S
C214 O212 1.248 . S
C215 O216 1.264 . S
C215 O223 1.249 . S
O216 C215 1.264 . S
O217 Mg210 1.986 . S
O217 C221 1.246 . S
O218 Mg213 2.032 . S
O218 C221 1.259 . S
O219 Mg210 2.114 . S
O219 C222 1.252 . S
O220 Mg210 2.251 . S
O220 Mg213 2.079 . S
O220 C222 1.273 . S
C221 O217 1.246 . S
C221 O218 1.259 . S
C222 O219 1.252 . S
C222 O220 1.273 . S
O223 Mg210 2.010 . S
O223 C215 1.249 . S
H224 C236 0.930 . S
H225 C238 0.930 . S
H226 C239 0.930 . S
H227 C243 0.959 . S
H228 C243 0.959 . S
H229 C243 0.961 . S
H230 C244 0.960 . S
H231 C244 0.961 . S
H232 C244 0.959 . S
H233 C247 0.929 . S
H234 C248 0.931 . S
H235 C250 0.930 . S
C236 H224 0.930 . S
C236 C237 1.399 . S
C236 C241 1.399 . S
C237 C236 1.399 . S
C237 C238 1.376 . S
C238 H225 0.930 . S
C238 C237 1.376 . S
C238 C239 1.388 . S
C239 H226 0.930 . S
C239 C238 1.388 . S
C239 C240 1.390 . S
C240 C239 1.390 . S
C240 C241 1.394 . S
C240 C246 1.465 . S
C241 C236 1.399 . S
C241 C240 1.394 . S
C241 C242 1.516 . S
C242 C241 1.516 . S
C242 C243 1.502 . S
C242 C244 1.561 . S
C242 C245 1.526 . S
C243 H227 0.959 . S
C243 H228 0.959 . S
C243 H229 0.961 . S
C243 C242 1.502 . S
C244 H230 0.960 . S
C244 H231 0.961 . S
C244 H232 0.959 . S
C244 C242 1.561 . S
C245 C242 1.526 . S
C245 C246 1.396 . S
C245 C250 1.390 . S
C246 C240 1.465 . S
C246 C245 1.396 . S
C246 C247 1.399 . S
C247 H233 0.929 . S
C247 C246 1.399 . S
C247 C248 1.385 . S
C248 H234 0.931 . S
C248 C247 1.385 . S
C248 C249 1.389 . S
C249 C248 1.389 . S
C249 C250 1.387 . S
C250 H235 0.930 . S
C250 C245 1.390 . S
C250 C249 1.387 . S
H251 C263 0.930 . S
H252 C265 0.930 . S
H253 C266 0.914 1_455 S
H254 C270 0.959 1_545 S
H255 C270 0.959 . S
H256 C270 0.961 . S
H257 C271 0.968 1_655 S
H258 C271 0.984 . S
H259 C271 0.944 1_545 S
H260 C274 0.929 . S
H261 C275 0.931 . S
H262 C277 0.941 . S
C263 H251 0.930 . S
C263 C264 1.399 . S
C263 C268 1.399 . S
C264 C263 1.399 . S
C264 C265 1.376 . S
C265 H252 0.930 . S
C265 C264 1.376 . S
C265 C266 1.388 . S
C266 H253 0.914 1_655 S
C266 C265 1.388 . S
C266 C267 1.390 . S
C267 C266 1.390 . S
C267 C268 1.394 . S
C267 C273 1.465 1_655 S
C268 C263 1.399 . S
C268 C267 1.394 . S
C268 C269 1.516 . S
C269 C268 1.516 . S
C269 C270 1.502 1_545 S
C269 C271 1.546 1_645 S
C269 C272 1.526 1_655 S
C270 H254 0.959 1_565 S
C270 H255 0.959 . S
C270 H256 0.961 . S
C270 C269 1.502 1_565 S
C271 H257 0.968 1_455 S
C271 H258 0.984 . S
C271 H259 0.944 1_565 S
C271 C269 1.546 1_465 S
C272 C269 1.526 1_455 S
C272 C273 1.396 . S
C272 C277 1.390 . S
C273 C267 1.465 1_455 S
C273 C272 1.396 . S
C273 C274 1.399 . S
C274 H260 0.929 . S
C274 C273 1.399 . S
C274 C275 1.385 . S
C275 H261 0.931 . S
C275 C274 1.385 . S
C275 C276 1.389 . S
C276 C275 1.389 . S
C276 C277 1.387 . S
C277 H262 0.941 . S
C277 C272 1.390 . S
C277 C276 1.387 . S
H278 C290 0.930 . S
H279 C292 0.930 . S
H280 C293 0.930 . S
H281 C297 0.959 . S
H282 C297 0.959 . S
H283 C297 0.961 . S
H284 C298 0.960 . S
H285 C298 0.961 . S
H286 C298 0.959 . S
H287 C301 0.929 . S
H288 C302 0.931 . S
H289 C304 0.930 . S
C290 H278 0.930 . S
C290 C291 1.399 . S
C290 C295 1.399 . S
C291 C290 1.399 . S
C291 C292 1.376 . S
C292 H279 0.930 . S
C292 C291 1.376 . S
C292 C293 1.388 . S
C293 H280 0.930 . S
C293 C292 1.388 . S
C293 C294 1.390 . S
C294 C293 1.390 . S
C294 C295 1.394 . S
C294 C300 1.465 . S
C295 C290 1.399 . S
C295 C294 1.394 . S
C295 C296 1.516 . S
C296 C295 1.516 . S
C296 C297 1.502 . S
C296 C298 1.561 . S
C296 C299 1.526 . S
C297 H281 0.959 . S
C297 H282 0.959 . S
C297 H283 0.961 . S
C297 C296 1.502 . S
C298 H284 0.960 . S
C298 H285 0.961 . S
C298 H286 0.959 . S
C298 C296 1.561 . S
C299 C296 1.526 . S
C299 C300 1.396 . S
C299 C304 1.390 . S
C300 C294 1.465 . S
C300 C299 1.396 . S
C300 C301 1.399 . S
C301 H287 0.929 . S
C301 C300 1.399 . S
C301 C302 1.385 . S
C302 H288 0.931 . S
C302 C301 1.385 . S
C302 C303 1.389 . S
C303 C302 1.389 . S
C303 C304 1.387 . S
C304 H289 0.930 . S
C304 C299 1.390 . S
C304 C303 1.387 . S
H305 C317 0.930 . S
H306 C319 0.930 . S
H307 C320 0.930 . S
H308 C324 0.959 . S
H309 C324 0.959 . S
H310 C324 0.961 . S
H311 C325 0.960 . S
H312 C325 0.961 1_556 S
H313 C325 0.959 . S
H314 C328 0.934 . S
H315 C329 0.931 . S
H316 C331 0.930 . S
C317 H305 0.930 . S
C317 C318 1.399 . S
C317 C322 1.399 . S
C318 C317 1.399 . S
C318 C319 1.376 . S
C319 H306 0.930 . S
C319 C318 1.376 . S
C319 C320 1.388 . S
C320 H307 0.930 . S
C320 C319 1.388 . S
C320 C321 1.390 . S
C321 C320 1.390 . S
C321 C322 1.394 . S
C321 C327 1.465 . S
C322 C317 1.399 . S
C322 C321 1.394 . S
C322 C323 1.516 . S
C323 C322 1.516 . S
C323 C324 1.502 1_554 S
C323 C325 1.561 . S
C323 C326 1.526 . S
C324 H308 0.959 . S
C324 H309 0.959 . S
C324 H310 0.961 . S
C324 C323 1.502 1_556 S
C325 H311 0.960 . S
C325 H312 0.961 1_554 S
C325 H313 0.959 . S
C325 C323 1.561 . S
C326 C323 1.526 . S
C326 C327 1.396 . S
C326 C331 1.390 1_554 S
C327 C321 1.465 . S
C327 C326 1.396 . S
C327 C328 1.393 1_545 S
C328 H314 0.934 . S
C328 C327 1.393 1_565 S
C328 C329 1.386 . S
C329 H315 0.931 . S
C329 C328 1.386 . S
C329 C330 1.389 1_564 S
C330 C329 1.389 1_546 S
C330 C331 1.387 . S
C331 H316 0.930 . S
C331 C326 1.390 1_556 S
C331 C330 1.387 . S
H332 C344 0.930 . S
H333 C346 0.930 . S
H334 C347 0.930 . S
H335 C351 0.959 . S
H336 C351 0.959 . S
H337 C351 0.961 . S
H338 C352 0.960 . S
H339 C352 0.961 . S
H340 C352 0.959 . S
H341 C355 0.929 . S
H342 C356 0.931 . S
H343 C358 0.930 . S
C344 H332 0.930 . S
C344 C345 1.399 . S
C344 C349 1.399 . S
C345 C344 1.399 . S
C345 C346 1.376 . S
C346 H333 0.930 . S
C346 C345 1.376 . S
C346 C347 1.388 . S
C347 H334 0.930 . S
C347 C346 1.388 . S
C347 C348 1.390 . S
C348 C347 1.390 . S
C348 C349 1.394 . S
C348 C354 1.465 . S
C349 C344 1.399 . S
C349 C348 1.394 . S
C349 C350 1.516 . S
C350 C349 1.516 . S
C350 C351 1.502 . S
C350 C352 1.561 . S
C350 C353 1.526 . S
C351 H335 0.959 . S
C351 H336 0.959 . S
C351 H337 0.961 . S
C351 C350 1.502 . S
C352 H338 0.960 . S
C352 H339 0.961 . S
C352 H340 0.959 . S
C352 C350 1.561 . S
C353 C350 1.526 . S
C353 C354 1.396 . S
C353 C358 1.390 . S
C354 C348 1.465 . S
C354 C353 1.396 . S
C354 C355 1.399 . S
C355 H341 0.929 . S
C355 C354 1.399 . S
C355 C356 1.385 . S
C356 H342 0.931 . S
C356 C355 1.385 . S
C356 C357 1.389 . S
C357 C356 1.389 . S
C357 C358 1.387 . S
C358 H343 0.930 . S
C358 C353 1.390 . S
C358 C357 1.387 . S
H359 C371 0.930 . S
H360 C373 0.930 . S
H361 C374 0.930 . S
H362 C378 0.959 . S
H363 C378 0.959 . S
H364 C378 0.961 . S
H365 C379 0.960 . S
H366 C379 0.961 . S
H367 C379 0.959 . S
H368 C382 0.929 . S
H369 C383 0.931 . S
H370 C385 0.930 1_565 S
C371 H359 0.930 . S
C371 C372 1.399 1_565 S
C371 C376 1.399 1_565 S
C372 C371 1.399 1_545 S
C372 C373 1.376 . S
C373 H360 0.930 . S
C373 C372 1.376 . S
C373 C374 1.388 . S
C374 H361 0.930 . S
C374 C373 1.388 . S
C374 C375 1.390 . S
C375 C374 1.390 . S
C375 C376 1.394 . S
C375 C381 1.465 . S
C376 C371 1.399 1_545 S
C376 C375 1.394 . S
C376 C377 1.516 1_545 S
C377 C376 1.516 1_565 S
C377 C378 1.502 . S
C377 C379 1.561 . S
C377 C380 1.526 1_565 S
C378 H362 0.959 . S
C378 H363 0.959 . S
C378 H364 0.961 . S
C378 C377 1.502 . S
C379 H365 0.960 . S
C379 H366 0.961 . S
C379 H367 0.959 . S
C379 C377 1.561 . S
C380 C377 1.526 1_545 S
C380 C381 1.396 . S
C380 C385 1.390 . S
C381 C375 1.465 . S
C381 C380 1.396 . S
C381 C382 1.399 . S
C382 H368 0.929 . S
C382 C381 1.399 . S
C382 C383 1.385 . S
C383 H369 0.931 . S
C383 C382 1.385 . S
C383 C384 1.389 . S
C384 C383 1.389 . S
C384 C385 1.387 . S
C385 H370 0.930 1_545 S
C385 C380 1.390 . S
C385 C384 1.387 . S
H386 C398 0.930 . S
H387 C400 0.930 . S
H388 C401 0.930 . S
H389 C405 0.959 . S
H390 C405 0.959 . S
H391 C405 0.961 . S
H392 C406 0.960 . S
H393 C406 0.961 . S
H394 C406 0.959 . S
H395 C409 0.929 . S
H396 C410 0.931 1_554 S
H397 C412 0.930 . S
C398 H386 0.930 . S
C398 C399 1.399 . S
C398 C403 1.399 . S
C399 C398 1.399 . S
C399 C400 1.376 . S
C400 H387 0.930 . S
C400 C399 1.376 . S
C400 C401 1.388 . S
C401 H388 0.930 . S
C401 C400 1.388 . S
C401 C402 1.390 . S
C402 C401 1.390 . S
C402 C403 1.394 . S
C402 C408 1.465 . S
C403 C398 1.399 . S
C403 C402 1.394 . S
C403 C404 1.516 . S
C404 C403 1.516 . S
C404 C405 1.502 . S
C404 C406 1.561 . S
C404 C407 1.526 . S
C405 H389 0.959 . S
C405 H390 0.959 . S
C405 H391 0.961 . S
C405 C404 1.502 . S
C406 H392 0.960 . S
C406 H393 0.961 . S
C406 H394 0.959 . S
C406 C404 1.561 . S
C407 C404 1.526 . S
C407 C408 1.396 . S
C407 C412 1.390 . S
C408 C402 1.465 . S
C408 C407 1.396 . S
C408 C409 1.399 . S
C409 H395 0.929 . S
C409 C408 1.399 . S
C409 C410 1.385 . S
C410 H396 0.931 1_556 S
C410 C409 1.385 . S
C410 C411 1.389 . S
C411 C410 1.389 . S
C411 C412 1.387 . S
C412 H397 0.930 . S
C412 C407 1.390 . S
C412 C411 1.387 . S
H413 C425 0.930 . S
H414 C427 0.930 . S
H415 C428 0.930 . S
H416 C432 0.959 . S
H417 C432 0.959 . S
H418 C432 0.961 . S
H419 C433 0.960 . S
H420 C433 0.961 . S
H421 C433 0.959 . S
H422 C436 0.929 1_565 S
H423 C437 0.931 1_565 S
H424 C439 0.930 . S
C425 H413 0.930 . S
C425 C426 1.399 . S
C425 C430 1.399 1_556 S
C426 C425 1.399 . S
C426 C427 1.376 . S
C427 H414 0.930 . S
C427 C426 1.376 . S
C427 C428 1.388 . S
C428 H415 0.930 . S
C428 C427 1.388 . S
C428 C429 1.390 1_556 S
C429 C428 1.390 1_554 S
C429 C430 1.394 . S
C429 C435 1.465 1_455 S
C430 C425 1.399 1_554 S
C430 C429 1.394 . S
C430 C431 1.516 . S
C431 C430 1.516 . S
C431 C432 1.502 . S
C431 C433 1.561 1_455 S
C431 C434 1.526 1_455 S
C432 H416 0.959 . S
C432 H417 0.959 . S
C432 H418 0.961 . S
C432 C431 1.502 . S
C433 H419 0.960 . S
C433 H420 0.961 . S
C433 H421 0.959 . S
C433 C431 1.561 1_655 S
C434 C431 1.526 1_655 S
C434 C435 1.396 . S
C434 C439 1.390 . S
C435 C429 1.465 1_655 S
C435 C434 1.396 . S
C435 C436 1.399 . S
C436 H422 0.929 1_545 S
C436 C435 1.399 . S
C436 C437 1.385 . S
C437 H423 0.931 1_545 S
C437 C436 1.385 . S
C437 C438 1.389 . S
C438 C437 1.389 . S
C438 C439 1.387 . S
C439 H424 0.930 . S
C439 C434 1.390 . S
C439 C438 1.387 . S
H440 C452 0.930 . S
H441 C454 0.930 . S
H442 C455 0.930 . S
H443 C459 0.959 . S
H444 C459 0.959 . S
H445 C459 0.961 . S
H446 C460 0.960 . S
H447 C460 0.961 . S
H448 C460 0.959 . S
H449 C463 0.929 . S
H450 C464 0.931 . S
H451 C466 0.930 . S
C452 H440 0.930 . S
C452 C453 1.399 . S
C452 C457 1.399 . S
C453 C452 1.399 . S
C453 C454 1.376 . S
C454 H441 0.930 . S
C454 C453 1.376 . S
C454 C455 1.388 . S
C455 H442 0.930 . S
C455 C454 1.388 . S
C455 C456 1.390 . S
C456 C455 1.390 . S
C456 C457 1.394 . S
C456 C462 1.465 . S
C457 C452 1.399 . S
C457 C456 1.394 . S
C457 C458 1.516 . S
C458 C457 1.516 . S
C458 C459 1.502 . S
C458 C460 1.561 . S
C458 C461 1.526 . S
C459 H443 0.959 . S
C459 H444 0.959 . S
C459 H445 0.961 . S
C459 C458 1.502 . S
C460 H446 0.960 . S
C460 H447 0.961 . S
C460 H448 0.959 . S
C460 C458 1.561 . S
C461 C458 1.526 . S
C461 C462 1.396 . S
C461 C466 1.390 . S
C462 C456 1.465 . S
C462 C461 1.396 . S
C462 C463 1.399 . S
C463 H449 0.929 . S
C463 C462 1.399 . S
C463 C464 1.385 . S
C464 H450 0.931 . S
C464 C463 1.385 . S
C464 C465 1.389 . S
C465 C464 1.389 . S
C465 C466 1.387 . S
C466 H451 0.930 . S
C466 C461 1.390 . S
C466 C465 1.387 . S
H467 C479 0.930 . S
H468 C481 0.930 . S
H469 C482 0.930 . S
H470 C486 0.959 . S
H471 C486 0.959 . S
H472 C486 0.961 . S
H473 C487 0.960 . S
H474 C487 0.961 . S
H475 C487 0.959 . S
H476 C490 0.929 . S
H477 C491 0.931 . S
H478 C493 0.930 . S
C479 H467 0.930 . S
C479 C480 1.399 . S
C479 C484 1.399 . S
C480 C479 1.399 . S
C480 C481 1.376 . S
C481 H468 0.930 . S
C481 C480 1.376 . S
C481 C482 1.388 . S
C482 H469 0.930 . S
C482 C481 1.388 . S
C482 C483 1.390 . S
C483 C482 1.390 . S
C483 C484 1.394 . S
C483 C489 1.465 . S
C484 C479 1.399 . S
C484 C483 1.394 . S
C484 C485 1.516 . S
C485 C484 1.516 . S
C485 C486 1.502 . S
C485 C487 1.561 . S
C485 C488 1.526 . S
C486 H470 0.959 . S
C486 H471 0.959 . S
C486 H472 0.961 . S
C486 C485 1.502 . S
C487 H473 0.960 . S
C487 H474 0.961 . S
C487 H475 0.959 . S
C487 C485 1.561 . S
C488 C485 1.526 . S
C488 C489 1.396 . S
C488 C493 1.390 . S
C489 C483 1.465 . S
C489 C488 1.396 . S
C489 C490 1.399 . S
C490 H476 0.929 . S
C490 C489 1.399 . S
C490 C491 1.385 . S
C491 H477 0.931 . S
C491 C490 1.385 . S
C491 C492 1.389 . S
C492 C491 1.389 . S
C492 C493 1.387 . S
C493 H478 0.930 . S
C493 C488 1.390 . S
C493 C492 1.387 . S
H494 C506 0.930 . S
H495 C508 0.930 . S
H496 C509 0.930 . S
H497 C513 0.959 . S
H498 C513 0.959 . S
H499 C513 0.961 . S
H500 C514 0.960 . S
H501 C514 0.961 . S
H502 C514 0.959 . S
H503 C517 0.929 . S
H504 C518 0.931 . S
H505 C520 0.930 . S
C506 H494 0.930 . S
C506 C507 1.399 . S
C506 C511 1.399 . S
C507 C506 1.399 . S
C507 C508 1.376 . S
C508 H495 0.930 . S
C508 C507 1.376 . S
C508 C509 1.388 . S
C509 H496 0.930 . S
C509 C508 1.388 . S
C509 C510 1.390 . S
C510 C509 1.390 . S
C510 C511 1.394 . S
C510 C516 1.465 . S
C511 C506 1.399 . S
C511 C510 1.394 . S
C511 C512 1.516 . S
C512 C511 1.516 . S
C512 C513 1.502 . S
C512 C514 1.561 . S
C512 C515 1.526 . S
C513 H497 0.959 . S
C513 H498 0.959 . S
C513 H499 0.961 . S
C513 C512 1.502 . S
C514 H500 0.960 . S
C514 H501 0.961 . S
C514 H502 0.959 . S
C514 C512 1.561 . S
C515 C512 1.526 . S
C515 C516 1.396 . S
C515 C520 1.390 . S
C516 C510 1.465 . S
C516 C515 1.396 . S
C516 C517 1.399 . S
C517 H503 0.929 . S
C517 C516 1.399 . S
C517 C518 1.385 . S
C518 H504 0.931 . S
C518 C517 1.385 . S
C518 C519 1.389 . S
C519 C518 1.389 . S
C519 C520 1.387 . S
C520 H505 0.930 . S
C520 C515 1.390 . S
C520 C519 1.387 . S
H521 C533 0.930 . S
H522 C535 0.930 . S
H523 C536 0.930 . S
H524 C540 0.959 . S
H525 C540 0.959 . S
H526 C540 0.961 . S
H527 C541 0.960 . S
H528 C541 0.961 . S
H529 C541 0.959 . S
H530 C544 0.929 . S
H531 C545 0.931 . S
H532 C547 0.930 . S
C533 H521 0.930 . S
C533 C534 1.399 . S
C533 C538 1.399 . S
C534 C533 1.399 . S
C534 C535 1.376 . S
C535 H522 0.930 . S
C535 C534 1.376 . S
C535 C536 1.388 . S
C536 H523 0.930 . S
C536 C535 1.388 . S
C536 C537 1.390 . S
C537 C536 1.390 . S
C537 C538 1.394 . S
C537 C543 1.465 . S
C538 C533 1.399 . S
C538 C537 1.394 . S
C538 C539 1.516 . S
C539 C538 1.516 . S
C539 C540 1.502 . S
C539 C541 1.561 . S
C539 C542 1.526 . S
C540 H524 0.959 . S
C540 H525 0.959 . S
C540 H526 0.961 . S
C540 C539 1.502 . S
C541 H527 0.960 . S
C541 H528 0.961 . S
C541 H529 0.959 . S
C541 C539 1.561 . S
C542 C539 1.526 . S
C542 C543 1.396 . S
C542 C547 1.390 . S
C543 C537 1.465 . S
C543 C542 1.396 . S
C543 C544 1.399 . S
C544 H530 0.929 . S
C544 C543 1.399 . S
C544 C545 1.385 . S
C545 H531 0.931 . S
C545 C544 1.385 . S
C545 C546 1.389 . S
C546 C545 1.389 . S
C546 C547 1.387 . S
C547 H532 0.930 . S
C547 C542 1.390 . S
C547 C546 1.387 . S
H548 C560 0.930 . S
H549 C562 0.930 . S
H550 C563 0.930 . S
H551 C567 0.959 . S
H552 C567 0.959 . S
H553 C567 0.961 . S
H554 C568 0.960 . S
H555 C568 0.955 1_556 S
H556 C568 0.959 . S
H557 C571 0.929 . S
H558 C572 0.931 . S
H559 C574 0.930 . S
C560 H548 0.930 . S
C560 C561 1.399 . S
C560 C565 1.399 . S
C561 C560 1.399 . S
C561 C562 1.376 . S
C562 H549 0.930 . S
C562 C561 1.376 . S
C562 C563 1.388 . S
C563 H550 0.930 . S
C563 C562 1.388 . S
C563 C564 1.390 . S
C564 C563 1.390 . S
C564 C565 1.394 . S
C564 C570 1.465 . S
C565 C560 1.399 . S
C565 C564 1.394 . S
C565 C566 1.516 . S
C566 C565 1.516 . S
C566 C567 1.502 1_554 S
C566 C568 1.561 . S
C566 C569 1.526 1_554 S
C567 H551 0.959 . S
C567 H552 0.959 . S
C567 H553 0.961 . S
C567 C566 1.502 1_556 S
C568 H554 0.960 . S
C568 H555 0.955 1_554 S
C568 H556 0.959 . S
C568 C566 1.561 . S
C569 C566 1.526 1_556 S
C569 C570 1.396 1_556 S
C569 C574 1.390 . S
C570 C564 1.465 . S
C570 C569 1.396 1_554 S
C570 C571 1.399 . S
C571 H557 0.929 . S
C571 C570 1.399 . S
C571 C572 1.385 1_554 S
C572 H558 0.931 . S
C572 C571 1.385 1_556 S
C572 C573 1.389 . S
C573 C572 1.389 . S
C573 C574 1.387 . S
C574 H559 0.930 . S
C574 C569 1.390 . S
C574 C573 1.387 . S
H575 C587 0.930 . S
H576 C589 0.930 . S
H577 C590 0.930 . S
H578 C594 0.956 . S
H579 C594 0.963 1_655 S
H580 C594 0.958 . S
H581 C595 0.960 . S
H582 C595 0.961 . S
H583 C595 0.959 . S
H584 C598 0.929 . S
H585 C599 0.931 . S
H586 C601 0.930 . S
C587 H575 0.930 . S
C587 C588 1.399 . S
C587 C592 1.399 . S
C588 C587 1.399 . S
C588 C589 1.376 . S
C589 H576 0.930 . S
C589 C588 1.376 . S
C589 C590 1.388 . S
C590 H577 0.930 . S
C590 C589 1.388 . S
C590 C591 1.390 . S
C591 C590 1.390 . S
C591 C592 1.394 . S
C591 C597 1.465 1_455 S
C592 C587 1.399 . S
C592 C591 1.394 . S
C592 C593 1.516 1_455 S
C593 C592 1.516 1_655 S
C593 C594 1.504 1_655 S
C593 C595 1.561 . S
C593 C596 1.526 . S
C594 H578 0.956 . S
C594 H579 0.963 1_455 S
C594 H580 0.958 . S
C594 C593 1.504 1_455 S
C595 H581 0.960 . S
C595 H582 0.961 . S
C595 H583 0.959 . S
C595 C593 1.561 . S
C596 C593 1.526 . S
C596 C597 1.396 . S
C596 C601 1.390 . S
C597 C591 1.465 1_655 S
C597 C596 1.396 . S
C597 C598 1.399 . S
C598 H584 0.929 . S
C598 C597 1.399 . S
C598 C599 1.385 . S
C599 H585 0.931 . S
C599 C598 1.385 . S
C599 C600 1.389 . S
C600 C599 1.389 . S
C600 C601 1.387 . S
C601 H586 0.930 . S
C601 C596 1.390 . S
C601 C600 1.387 . S
H602 C614 0.930 . S
H603 C616 0.930 . S
H604 C617 0.930 . S
H605 C621 0.959 . S
H606 C621 0.959 . S
H607 C621 0.961 . S
H608 C622 0.960 . S
H609 C622 0.961 . S
H610 C622 0.959 . S
H611 C625 0.929 . S
H612 C626 0.931 . S
H613 C628 0.930 . S
C614 H602 0.930 . S
C614 C615 1.399 . S
C614 C619 1.399 . S
C615 C614 1.399 . S
C615 C616 1.376 . S
C616 H603 0.930 . S
C616 C615 1.376 . S
C616 C617 1.388 . S
C617 H604 0.930 . S
C617 C616 1.388 . S
C617 C618 1.390 . S
C618 C617 1.390 . S
C618 C619 1.394 . S
C618 C624 1.465 1_455 S
C619 C614 1.399 . S
C619 C618 1.394 . S
C619 C620 1.516 . S
C620 C619 1.516 . S
C620 C621 1.501 . S
C620 C622 1.562 1_455 S
C620 C623 1.527 1_455 S
C621 H605 0.959 . S
C621 H606 0.959 . S
C621 H607 0.961 . S
C621 C620 1.501 . S
C622 H608 0.960 . S
C622 H609 0.961 . S
C622 H610 0.959 . S
C622 C620 1.562 1_655 S
C623 C620 1.527 1_655 S
C623 C624 1.396 . S
C623 C628 1.390 1_554 S
C624 C618 1.465 1_655 S
C624 C623 1.396 . S
C624 C625 1.399 . S
C625 H611 0.929 . S
C625 C624 1.399 . S
C625 C626 1.385 1_554 S
C626 H612 0.931 . S
C626 C625 1.385 1_556 S
C626 C627 1.389 . S
C627 C626 1.389 . S
C627 C628 1.387 . S
C628 H613 0.930 . S
C628 C623 1.390 1_556 S
C628 C627 1.387 . S
H629 C641 0.930 . S
H630 C643 0.930 . S
H631 C644 0.930 . S
H632 C648 0.959 . S
H633 C648 0.959 . S
H634 C648 0.961 . S
H635 C649 0.960 . S
H636 C649 0.961 . S
H637 C649 0.959 . S
H638 C652 0.929 . S
H639 C653 0.931 . S
H640 C655 0.930 . S
C641 H629 0.930 . S
C641 C642 1.399 . S
C641 C646 1.399 . S
C642 C641 1.399 . S
C642 C643 1.376 . S
C643 H630 0.930 . S
C643 C642 1.376 . S
C643 C644 1.388 . S
C644 H631 0.930 . S
C644 C643 1.388 . S
C644 C645 1.390 . S
C645 C644 1.390 . S
C645 C646 1.394 . S
C645 C651 1.465 . S
C646 C641 1.399 . S
C646 C645 1.394 . S
C646 C647 1.516 . S
C647 C646 1.516 . S
C647 C648 1.502 . S
C647 C649 1.561 . S
C647 C650 1.526 . S
C648 H632 0.959 . S
C648 H633 0.959 . S
C648 H634 0.961 . S
C648 C647 1.502 . S
C649 H635 0.960 . S
C649 H636 0.961 . S
C649 H637 0.959 . S
C649 C647 1.561 . S
C650 C647 1.526 . S
C650 C651 1.396 . S
C650 C655 1.390 . S
C651 C645 1.465 . S
C651 C650 1.396 . S
C651 C652 1.399 . S
C652 H638 0.929 . S
C652 C651 1.399 . S
C652 C653 1.385 . S
C653 H639 0.931 . S
C653 C652 1.385 . S
C653 C654 1.389 . S
C654 C653 1.389 . S
C654 C655 1.387 . S
C655 H640 0.930 . S
C655 C650 1.390 . S
C655 C654 1.387 . S
H656 C668 0.930 . S
H657 C670 0.930 . S
H658 C671 0.930 . S
H659 C675 0.959 . S
H660 C675 0.959 . S
H661 C675 0.961 . S
H662 C676 0.960 . S
H663 C676 0.961 . S
H664 C676 0.959 . S
H665 C679 0.929 . S
H666 C680 0.931 . S
H667 C682 0.930 . S
C668 H656 0.930 . S
C668 C669 1.399 . S
C668 C673 1.399 . S
C669 C668 1.399 . S
C669 C670 1.376 . S
C670 H657 0.930 . S
C670 C669 1.376 . S
C670 C671 1.388 . S
C671 H658 0.930 . S
C671 C670 1.388 . S
C671 C672 1.390 . S
C672 C671 1.390 . S
C672 C673 1.394 . S
C672 C678 1.465 . S
C673 C668 1.399 . S
C673 C672 1.394 . S
C673 C674 1.516 . S
C674 C673 1.516 . S
C674 C675 1.502 . S
C674 C676 1.561 . S
C674 C677 1.526 . S
C675 H659 0.959 . S
C675 H660 0.959 . S
C675 H661 0.961 . S
C675 C674 1.502 . S
C676 H662 0.960 . S
C676 H663 0.961 . S
C676 H664 0.959 . S
C676 C674 1.561 . S
C677 C674 1.526 . S
C677 C678 1.396 . S
C677 C682 1.390 . S
C678 C672 1.465 . S
C678 C677 1.396 . S
C678 C679 1.399 . S
C679 H665 0.929 . S
C679 C678 1.399 . S
C679 C680 1.385 . S
C680 H666 0.931 . S
C680 C679 1.385 . S
C680 C681 1.389 . S
C681 C680 1.389 . S
C681 C682 1.387 . S
C682 H667 0.930 . S
C682 C677 1.390 . S
C682 C681 1.387 . S
H683 C695 0.930 . S
H684 C697 0.930 . S
H685 C698 0.930 . S
H686 C702 0.959 . S
H687 C702 0.959 . S
H688 C702 0.961 . S
H689 C703 0.960 . S
H690 C703 0.961 . S
H691 C703 0.959 . S
H692 C706 0.929 . S
H693 C707 0.931 1_545 S
H694 C709 0.930 . S
C695 H683 0.930 . S
C695 C696 1.399 . S
C695 C700 1.399 . S
C696 C695 1.399 . S
C696 C697 1.376 . S
C697 H684 0.930 . S
C697 C696 1.376 . S
C697 C698 1.388 . S
C698 H685 0.930 . S
C698 C697 1.388 . S
C698 C699 1.390 . S
C699 C698 1.390 . S
C699 C700 1.394 . S
C699 C705 1.465 . S
C700 C695 1.399 . S
C700 C699 1.394 . S
C700 C701 1.516 . S
C701 C700 1.516 . S
C701 C702 1.502 . S
C701 C703 1.561 . S
C701 C704 1.526 . S
C702 H686 0.959 . S
C702 H687 0.959 . S
C702 H688 0.961 . S
C702 C701 1.502 . S
C703 H689 0.960 . S
C703 H690 0.961 . S
C703 H691 0.959 . S
C703 C701 1.561 . S
C704 C701 1.526 . S
C704 C705 1.396 . S
C704 C709 1.390 . S
C705 C699 1.465 . S
C705 C704 1.396 . S
C705 C706 1.399 . S
C706 H692 0.929 . S
C706 C705 1.399 . S
C706 C707 1.385 . S
C707 H693 0.931 1_565 S
C707 C706 1.385 . S
C707 C708 1.389 . S
C708 C707 1.389 . S
C708 C709 1.387 . S
C709 H694 0.930 . S
C709 C704 1.390 . S
C709 C708 1.387 . S
H710 C722 0.930 . S
H711 C724 0.930 . S
H712 C725 0.930 . S
H713 C729 0.959 . S
H714 C729 0.959 . S
H715 C729 0.961 . S
H716 C730 0.960 . S
H717 C730 0.961 . S
H718 C730 0.959 . S
H719 C733 0.929 . S
H720 C734 0.931 . S
H721 C736 0.930 . S
C722 H710 0.930 . S
C722 C723 1.399 . S
C722 C727 1.399 . S
C723 C722 1.399 . S
C723 C724 1.376 . S
C724 H711 0.930 . S
C724 C723 1.376 . S
C724 C725 1.388 . S
C725 H712 0.930 . S
C725 C724 1.388 . S
C725 C726 1.390 . S
C726 C725 1.390 . S
C726 C727 1.394 . S
C726 C732 1.465 . S
C727 C722 1.399 . S
C727 C726 1.394 . S
C727 C728 1.516 . S
C728 C727 1.516 . S
C728 C729 1.502 . S
C728 C730 1.561 . S
C728 C731 1.526 . S
C729 H713 0.959 . S
C729 H714 0.959 . S
C729 H715 0.961 . S
C729 C728 1.502 . S
C730 H716 0.960 . S
C730 H717 0.961 . S
C730 H718 0.959 . S
C730 C728 1.561 . S
C731 C728 1.526 . S
C731 C732 1.396 . S
C731 C736 1.390 . S
C732 C726 1.465 . S
C732 C731 1.396 . S
C732 C733 1.399 . S
C733 H719 0.929 . S
C733 C732 1.399 . S
C733 C734 1.385 . S
C734 H720 0.931 . S
C734 C733 1.385 . S
C734 C735 1.389 . S
C735 C734 1.389 . S
C735 C736 1.387 . S
C736 H721 0.930 . S
C736 C731 1.390 . S
C736 C735 1.387 . S
H737 C749 0.930 . S
H738 C751 0.930 . S
H739 C752 0.930 . S
H740 C756 0.961 . S
H741 C756 0.959 1_554 S
H742 C756 0.959 1_554 S
H743 C757 0.960 . S
H744 C757 0.961 . S
H745 C757 0.959 . S
H746 C760 0.929 . S
H747 C761 0.931 . S
H748 C763 0.930 . S
C749 H737 0.930 . S
C749 C750 1.399 1_554 S
C749 C754 1.399 1_554 S
C750 C749 1.399 1_556 S
C750 C751 1.376 . S
C751 H738 0.930 . S
C751 C750 1.376 . S
C751 C752 1.388 . S
C752 H739 0.930 . S
C752 C751 1.388 . S
C752 C753 1.390 . S
C753 C752 1.390 . S
C753 C754 1.394 . S
C753 C759 1.465 . S
C754 C749 1.399 1_556 S
C754 C753 1.394 . S
C754 C755 1.516 . S
C755 C754 1.516 . S
C755 C756 1.502 . S
C755 C757 1.561 1_556 S
C755 C758 1.526 . S
C756 H740 0.961 . S
C756 H741 0.959 1_556 S
C756 H742 0.959 1_556 S
C756 C755 1.502 . S
C757 H743 0.960 . S
C757 H744 0.961 . S
C757 H745 0.959 . S
C757 C755 1.561 1_554 S
C758 C755 1.526 . S
C758 C759 1.396 . S
C758 C763 1.390 . S
C759 C753 1.465 . S
C759 C758 1.396 . S
C759 C760 1.399 . S
C760 H746 0.929 . S
C760 C759 1.399 . S
C760 C761 1.385 . S
C761 H747 0.931 . S
C761 C760 1.385 . S
C761 C762 1.389 . S
C762 C761 1.389 . S
C762 C763 1.387 . S
C763 H748 0.930 . S
C763 C758 1.390 . S
C763 C762 1.387 . S
H764 C776 0.930 . S
H765 C778 0.930 . S
H766 C779 0.930 . S
H767 C783 0.959 . S
H768 C783 0.959 . S
H769 C783 0.961 . S
H770 C784 0.960 . S
H771 C784 0.961 . S
H772 C784 0.959 . S
H773 C787 0.929 . S
H774 C788 0.931 . S
H775 C790 0.930 . S
C776 H764 0.930 . S
C776 C777 1.399 . S
C776 C781 1.399 . S
C777 C776 1.399 . S
C777 C778 1.376 . S
C778 H765 0.930 . S
C778 C777 1.376 . S
C778 C779 1.388 . S
C779 H766 0.930 . S
C779 C778 1.388 . S
C779 C780 1.390 . S
C780 C779 1.390 . S
C780 C781 1.394 . S
C780 C786 1.465 . S
C781 C776 1.399 . S
C781 C780 1.394 . S
C781 C782 1.516 . S
C782 C781 1.516 . S
C782 C783 1.502 . S
C782 C784 1.561 . S
C782 C785 1.526 . S
C783 H767 0.959 . S
C783 H768 0.959 . S
C783 H769 0.961 . S
C783 C782 1.502 . S
C784 H770 0.960 . S
C784 H771 0.961 . S
C784 H772 0.959 . S
C784 C782 1.561 . S
C785 C782 1.526 . S
C785 C786 1.396 . S
C785 C790 1.390 . S
C786 C780 1.465 . S
C786 C785 1.396 . S
C786 C787 1.399 . S
C787 H773 0.929 . S
C787 C786 1.399 . S
C787 C788 1.385 . S
C788 H774 0.931 . S
C788 C787 1.385 . S
C788 C789 1.389 . S
C789 C788 1.389 . S
C789 C790 1.387 . S
C790 H775 0.930 . S
C790 C785 1.390 . S
C790 C789 1.387 . S
H791 C803 0.930 . S
H792 C805 0.930 . S
H793 C806 0.930 . S
H794 C810 0.959 . S
H795 C810 0.959 . S
H796 C810 0.961 . S
H797 C811 0.960 . S
H798 C811 0.961 . S
H799 C811 0.959 . S
H800 C814 0.929 . S
H801 C815 0.931 . S
H802 C817 0.930 . S
C803 H791 0.930 . S
C803 C804 1.399 . S
C803 C808 1.399 . S
C804 C803 1.399 . S
C804 C805 1.376 . S
C805 H792 0.930 . S
C805 C804 1.376 . S
C805 C806 1.388 . S
C806 H793 0.930 . S
C806 C805 1.388 . S
C806 C807 1.390 . S
C807 C806 1.390 . S
C807 C808 1.394 . S
C807 C813 1.465 . S
C808 C803 1.399 . S
C808 C807 1.394 . S
C808 C809 1.516 . S
C809 C808 1.516 . S
C809 C810 1.502 . S
C809 C811 1.561 . S
C809 C812 1.526 . S
C810 H794 0.959 . S
C810 H795 0.959 . S
C810 H796 0.961 . S
C810 C809 1.502 . S
C811 H797 0.960 . S
C811 H798 0.961 . S
C811 H799 0.959 . S
C811 C809 1.561 . S
C812 C809 1.526 . S
C812 C813 1.396 . S
C812 C817 1.390 . S
C813 C807 1.465 . S
C813 C812 1.396 . S
C813 C814 1.399 . S
C814 H800 0.929 . S
C814 C813 1.399 . S
C814 C815 1.385 . S
C815 H801 0.931 . S
C815 C814 1.385 . S
C815 C816 1.389 . S
C816 C815 1.389 . S
C816 C817 1.387 . S
C817 H802 0.930 . S
C817 C812 1.390 . S
C817 C816 1.387 . S
H818 C830 0.930 . S
H819 C832 0.930 . S
H820 C833 0.930 1_554 S
H821 C837 0.959 . S
H822 C837 0.959 . S
H823 C837 0.961 . S
H824 C838 0.960 . S
H825 C838 0.961 . S
H826 C838 0.959 . S
H827 C841 0.929 . S
H828 C842 0.931 . S
H829 C844 0.930 . S
C830 H818 0.930 . S
C830 C831 1.399 . S
C830 C835 1.399 . S
C831 C830 1.399 . S
C831 C832 1.376 . S
C832 H819 0.930 . S
C832 C831 1.376 . S
C832 C833 1.388 . S
C833 H820 0.930 1_556 S
C833 C832 1.388 . S
C833 C834 1.390 . S
C834 C833 1.390 . S
C834 C835 1.394 . S
C834 C840 1.465 . S
C835 C830 1.399 . S
C835 C834 1.394 . S
C835 C836 1.516 . S
C836 C835 1.516 . S
C836 C837 1.502 . S
C836 C838 1.561 . S
C836 C839 1.526 . S
C837 H821 0.959 . S
C837 H822 0.959 . S
C837 H823 0.961 . S
C837 C836 1.502 . S
C838 H824 0.960 . S
C838 H825 0.961 . S
C838 H826 0.959 . S
C838 C836 1.561 . S
C839 C836 1.526 . S
C839 C840 1.396 . S
C839 C844 1.390 . S
C840 C834 1.465 . S
C840 C839 1.396 . S
C840 C841 1.399 1_556 S
C841 H827 0.929 . S
C841 C840 1.399 1_554 S
C841 C842 1.385 . S
C842 H828 0.931 . S
C842 C841 1.385 . S
C842 C843 1.389 1_554 S
C843 C842 1.389 1_556 S
C843 C844 1.387 . S
C844 H829 0.930 . S
C844 C839 1.390 . S
C844 C843 1.387 . S
H845 C857 0.930 . S
H846 C859 0.930 . S
H847 C860 0.930 . S
H848 C864 0.959 . S
H849 C864 0.959 . S
H850 C864 0.961 . S
H851 C865 0.960 . S
H852 C865 0.961 . S
H853 C865 0.959 . S
H854 C868 0.929 . S
H855 C869 0.931 . S
H856 C871 0.930 . S
C857 H845 0.930 . S
C857 C858 1.399 . S
C857 C862 1.399 . S
C858 C857 1.399 . S
C858 C859 1.376 . S
C859 H846 0.930 . S
C859 C858 1.376 . S
C859 C860 1.388 . S
C860 H847 0.930 . S
C860 C859 1.388 . S
C860 C861 1.390 . S
C861 C860 1.390 . S
C861 C862 1.394 . S
C861 C867 1.465 . S
C862 C857 1.399 . S
C862 C861 1.394 . S
C862 C863 1.516 . S
C863 C862 1.516 . S
C863 C864 1.502 . S
C863 C865 1.561 . S
C863 C866 1.526 . S
C864 H848 0.959 . S
C864 H849 0.959 . S
C864 H850 0.961 . S
C864 C863 1.502 . S
C865 H851 0.960 . S
C865 H852 0.961 . S
C865 H853 0.959 . S
C865 C863 1.561 . S
C866 C863 1.526 . S
C866 C867 1.396 . S
C866 C871 1.390 . S
C867 C861 1.465 . S
C867 C866 1.396 . S
C867 C868 1.399 . S
C868 H854 0.929 . S
C868 C867 1.399 . S
C868 C869 1.385 . S
C869 H855 0.931 . S
C869 C868 1.385 . S
C869 C870 1.389 . S
C870 C869 1.389 . S
C870 C871 1.387 . S
C871 H856 0.930 . S
C871 C866 1.390 . S
C871 C870 1.387 . S
H872 C884 0.930 . S
H873 C886 0.930 . S
H874 C887 0.930 . S
H875 C891 0.959 . S
H876 C891 0.959 . S
H877 C891 0.961 . S
H878 C892 0.960 . S
H879 C892 0.961 . S
H880 C892 0.959 . S
H881 C895 0.929 1_554 S
H882 C896 0.931 . S
H883 C898 0.930 . S
C884 H872 0.930 . S
C884 C885 1.399 1_556 S
C884 C889 1.399 . S
C885 C884 1.399 1_554 S
C885 C886 1.376 . S
C886 H873 0.930 . S
C886 C885 1.376 . S
C886 C887 1.388 . S
C887 H874 0.930 . S
C887 C886 1.388 . S
C887 C888 1.390 1_554 S
C888 C887 1.390 1_556 S
C888 C889 1.394 . S
C888 C894 1.465 . S
C889 C884 1.399 . S
C889 C888 1.394 . S
C889 C890 1.516 . S
C890 C889 1.516 . S
C890 C891 1.502 . S
C890 C892 1.561 . S
C890 C893 1.526 . S
C891 H875 0.959 . S
C891 H876 0.959 . S
C891 H877 0.961 . S
C891 C890 1.502 . S
C892 H878 0.960 . S
C892 H879 0.961 . S
C892 H880 0.959 . S
C892 C890 1.561 . S
C893 C890 1.526 . S
C893 C894 1.396 . S
C893 C898 1.390 . S
C894 C888 1.465 . S
C894 C893 1.396 . S
C894 C895 1.399 . S
C895 H881 0.929 1_556 S
C895 C894 1.399 . S
C895 C896 1.385 . S
C896 H882 0.931 . S
C896 C895 1.385 . S
C896 C897 1.389 . S
C897 C896 1.389 . S
C897 C898 1.387 . S
C898 H883 0.930 . S
C898 C893 1.390 . S
C898 C897 1.387 . S
H899 C911 0.930 . S
H900 C913 0.930 . S
H901 C914 0.930 . S
H902 C918 0.959 . S
H903 C918 0.959 . S
H904 C918 0.961 . S
H905 C919 0.960 . S
H906 C919 0.961 . S
H907 C919 0.959 . S
H908 C922 0.929 . S
H909 C923 0.931 . S
H910 C925 0.930 . S
C911 H899 0.930 . S
C911 C912 1.399 . S
C911 C916 1.399 . S
C912 C911 1.399 . S
C912 C913 1.376 . S
C913 H900 0.930 . S
C913 C912 1.376 . S
C913 C914 1.388 . S
C914 H901 0.930 . S
C914 C913 1.388 . S
C914 C915 1.390 . S
C915 C914 1.390 . S
C915 C916 1.394 . S
C915 C921 1.465 . S
C916 C911 1.399 . S
C916 C915 1.394 . S
C916 C917 1.516 . S
C917 C916 1.516 . S
C917 C918 1.502 . S
C917 C919 1.561 . S
C917 C920 1.526 . S
C918 H902 0.959 . S
C918 H903 0.959 . S
C918 H904 0.961 . S
C918 C917 1.502 . S
C919 H905 0.960 . S
C919 H906 0.961 . S
C919 H907 0.959 . S
C919 C917 1.561 . S
C920 C917 1.526 . S
C920 C921 1.396 . S
C920 C925 1.390 . S
C921 C915 1.465 . S
C921 C920 1.396 . S
C921 C922 1.399 . S
C922 H908 0.929 . S
C922 C921 1.399 . S
C922 C923 1.385 . S
C923 H909 0.931 . S
C923 C922 1.385 . S
C923 C924 1.389 . S
C924 C923 1.389 . S
C924 C925 1.387 . S
C925 H910 0.930 . S
C925 C920 1.390 . S
C925 C924 1.387 . S
H926 C938 0.930 . S
H927 C940 0.930 . S
H928 C941 0.930 . S
H929 C945 0.959 . S
H930 C945 0.959 . S
H931 C945 0.961 . S
H932 C946 0.960 . S
H933 C946 0.961 . S
H934 C946 0.959 . S
H935 C949 0.929 . S
H936 C950 0.931 . S
H937 C952 0.930 . S
C938 H926 0.930 . S
C938 C939 1.399 . S
C938 C943 1.399 . S
C939 C938 1.399 . S
C939 C940 1.376 . S
C940 H927 0.930 . S
C940 C939 1.376 . S
C940 C941 1.388 . S
C941 H928 0.930 . S
C941 C940 1.388 . S
C941 C942 1.390 . S
C942 C941 1.390 . S
C942 C943 1.394 . S
C942 C948 1.465 . S
C943 C938 1.399 . S
C943 C942 1.394 . S
C943 C944 1.516 . S
C944 C943 1.516 . S
C944 C945 1.502 . S
C944 C946 1.561 . S
C944 C947 1.526 . S
C945 H929 0.959 . S
C945 H930 0.959 . S
C945 H931 0.961 . S
C945 C944 1.502 . S
C946 H932 0.960 . S
C946 H933 0.961 . S
C946 H934 0.959 . S
C946 C944 1.561 . S
C947 C944 1.526 . S
C947 C948 1.396 . S
C947 C952 1.390 . S
C948 C942 1.465 . S
C948 C947 1.396 . S
C948 C949 1.399 . S
C949 H935 0.929 . S
C949 C948 1.399 . S
C949 C950 1.385 . S
C950 H936 0.931 . S
C950 C949 1.385 . S
C950 C951 1.389 . S
C951 C950 1.389 . S
C951 C952 1.387 . S
C952 H937 0.930 . S
C952 C947 1.390 . S
C952 C951 1.387 . S
H953 C965 0.930 . S
H954 C967 0.930 . S
H955 C968 0.930 . S
H956 C972 0.959 . S
H957 C972 0.959 . S
H958 C972 0.961 . S
H959 C973 0.960 . S
H960 C973 0.961 . S
H961 C973 0.959 . S
H962 C976 0.929 . S
H963 C977 0.931 . S
H964 C979 0.930 . S
C965 H953 0.930 . S
C965 C966 1.399 . S
C965 C970 1.399 . S
C966 C965 1.399 . S
C966 C967 1.376 . S
C967 H954 0.930 . S
C967 C966 1.376 . S
C967 C968 1.388 . S
C968 H955 0.930 . S
C968 C967 1.388 . S
C968 C969 1.390 . S
C969 C968 1.390 . S
C969 C970 1.394 . S
C969 C975 1.465 . S
C970 C965 1.399 . S
C970 C969 1.394 . S
C970 C971 1.516 . S
C971 C970 1.516 . S
C971 C972 1.502 . S
C971 C973 1.561 . S
C971 C974 1.526 . S
C972 H956 0.959 . S
C972 H957 0.959 . S
C972 H958 0.961 . S
C972 C971 1.502 . S
C973 H959 0.960 . S
C973 H960 0.961 . S
C973 H961 0.959 . S
C973 C971 1.561 . S
C974 C971 1.526 . S
C974 C975 1.396 . S
C974 C979 1.390 . S
C975 C969 1.465 . S
C975 C974 1.396 . S
C975 C976 1.399 . S
C976 H962 0.929 . S
C976 C975 1.399 . S
C976 C977 1.385 . S
C977 H963 0.931 . S
C977 C976 1.385 . S
C977 C978 1.389 . S
C978 C977 1.389 . S
C978 C979 1.387 . S
C979 H964 0.930 . S
C979 C974 1.390 . S
C979 C978 1.387 . S
H980 C992 0.930 . S
H981 C994 0.930 . S
H982 C995 0.930 . S
H983 C999 0.959 . S
H984 C999 0.959 . S
H985 C999 0.961 . S
H986 C1000 0.960 . S
H987 C1000 0.961 . S
H988 C1000 0.959 . S
H989 C1003 0.929 . S
H990 C1004 0.931 . S
H991 C1006 0.930 . S
C992 H980 0.930 . S
C992 C993 1.399 . S
C992 C997 1.399 . S
C993 C992 1.399 . S
C993 C994 1.376 . S
C994 H981 0.930 . S
C994 C993 1.376 . S
C994 C995 1.388 . S
C995 H982 0.930 . S
C995 C994 1.388 . S
C995 C996 1.390 . S
C996 C995 1.390 . S
C996 C997 1.394 . S
C996 C1002 1.465 . S
C997 C992 1.399 . S
C997 C996 1.394 . S
C997 C998 1.516 . S
C998 C997 1.516 . S
C998 C999 1.502 . S
C998 C1000 1.561 . S
C998 C1001 1.526 . S
C999 H983 0.959 . S
C999 H984 0.959 . S
C999 H985 0.961 . S
C999 C998 1.502 . S
C1000 H986 0.960 . S
C1000 H987 0.961 . S
C1000 H988 0.959 . S
C1000 C998 1.561 . S
C1001 C998 1.526 . S
C1001 C1002 1.396 . S
C1001 C1006 1.390 . S
C1002 C996 1.465 . S
C1002 C1001 1.396 . S
C1002 C1003 1.399 . S
C1003 H989 0.929 . S
C1003 C1002 1.399 . S
C1003 C1004 1.385 . S
C1004 H990 0.931 . S
C1004 C1003 1.385 . S
C1004 C1005 1.389 . S
C1005 C1004 1.389 . S
C1005 C1006 1.387 . S
C1006 H991 0.930 . S
C1006 C1001 1.390 . S
C1006 C1005 1.387 . S
H1007 C1019 0.930 . S
H1008 C1021 0.930 . S
H1009 C1022 0.930 . S
H1010 C1026 0.959 . S
H1011 C1026 0.959 . S
H1012 C1026 0.961 . S
H1013 C1027 0.960 . S
H1014 C1027 0.961 . S
H1015 C1027 0.959 . S
H1016 C1030 0.929 . S
H1017 C1031 0.931 . S
H1018 C1033 0.930 . S
C1019 H1007 0.930 . S
C1019 C1020 1.399 . S
C1019 C1024 1.399 . S
C1020 C1019 1.399 . S
C1020 C1021 1.376 . S
C1021 H1008 0.930 . S
C1021 C1020 1.376 . S
C1021 C1022 1.388 . S
C1022 H1009 0.930 . S
C1022 C1021 1.388 . S
C1022 C1023 1.390 . S
C1023 C1022 1.390 . S
C1023 C1024 1.394 . S
C1023 C1029 1.465 . S
C1024 C1019 1.399 . S
C1024 C1023 1.394 . S
C1024 C1025 1.516 . S
C1025 C1024 1.516 . S
C1025 C1026 1.502 . S
C1025 C1027 1.561 . S
C1025 C1028 1.526 . S
C1026 H1010 0.959 . S
C1026 H1011 0.959 . S
C1026 H1012 0.961 . S
C1026 C1025 1.502 . S
C1027 H1013 0.960 . S
C1027 H1014 0.961 . S
C1027 H1015 0.959 . S
C1027 C1025 1.561 . S
C1028 C1025 1.526 . S
C1028 C1029 1.396 . S
C1028 C1033 1.390 . S
C1029 C1023 1.465 . S
C1029 C1028 1.396 . S
C1029 C1030 1.399 . S
C1030 H1016 0.929 . S
C1030 C1029 1.399 . S
C1030 C1031 1.385 . S
C1031 H1017 0.931 . S
C1031 C1030 1.385 . S
C1031 C1032 1.389 . S
C1032 C1031 1.389 . S
C1032 C1033 1.387 . S
C1033 H1018 0.930 . S
C1033 C1028 1.390 . S
C1033 C1032 1.387 . S
H1034 C1046 0.930 . S
H1035 C1048 0.930 . S
H1036 C1049 0.930 . S
H1037 C1053 0.959 . S
H1038 C1053 0.959 . S
H1039 C1053 0.961 . S
H1040 C1054 0.960 . S
H1041 C1054 0.961 . S
H1042 C1054 0.959 . S
H1043 C1057 0.929 . S
H1044 C1058 0.931 . S
H1045 C1060 0.930 . S
C1046 H1034 0.930 . S
C1046 C1047 1.399 . S
C1046 C1051 1.399 . S
C1047 C1046 1.399 . S
C1047 C1048 1.376 . S
C1048 H1035 0.930 . S
C1048 C1047 1.376 . S
C1048 C1049 1.388 . S
C1049 H1036 0.930 . S
C1049 C1048 1.388 . S
C1049 C1050 1.390 . S
C1050 C1049 1.390 . S
C1050 C1051 1.394 . S
C1050 C1056 1.465 . S
C1051 C1046 1.399 . S
C1051 C1050 1.394 . S
C1051 C1052 1.516 . S
C1052 C1051 1.516 . S
C1052 C1053 1.502 . S
C1052 C1054 1.561 . S
C1052 C1055 1.526 . S
C1053 H1037 0.959 . S
C1053 H1038 0.959 . S
C1053 H1039 0.961 . S
C1053 C1052 1.502 . S
C1054 H1040 0.960 . S
C1054 H1041 0.961 . S
C1054 H1042 0.959 . S
C1054 C1052 1.561 . S
C1055 C1052 1.526 . S
C1055 C1056 1.396 . S
C1055 C1060 1.390 . S
C1056 C1050 1.465 . S
C1056 C1055 1.396 . S
C1056 C1057 1.399 . S
C1057 H1043 0.929 . S
C1057 C1056 1.399 . S
C1057 C1058 1.385 . S
C1058 H1044 0.931 . S
C1058 C1057 1.385 . S
C1058 C1059 1.389 . S
C1059 C1058 1.389 . S
C1059 C1060 1.387 . S
C1060 H1045 0.930 . S
C1060 C1055 1.390 . S
C1060 C1059 1.387 . S
H1061 C1073 0.930 . S
H1062 C1075 0.930 . S
H1063 C1076 0.930 . S
H1064 C1080 0.955 1_556 S
H1065 C1080 0.959 . S
H1066 C1080 0.961 . S
H1067 C1081 0.960 . S
H1068 C1081 0.961 . S
H1069 C1081 0.959 1_556 S
H1070 C1084 0.929 . S
H1071 C1085 0.931 . S
H1072 C1087 0.930 . S
C1073 H1061 0.930 . S
C1073 C1074 1.399 1_554 S
C1073 C1078 1.399 1_554 S
C1074 C1073 1.399 1_556 S
C1074 C1075 1.376 . S
C1075 H1062 0.930 . S
C1075 C1074 1.376 . S
C1075 C1076 1.388 . S
C1076 H1063 0.930 . S
C1076 C1075 1.388 . S
C1076 C1077 1.390 . S
C1077 C1076 1.390 . S
C1077 C1078 1.394 . S
C1077 C1083 1.465 . S
C1078 C1073 1.399 1_556 S
C1078 C1077 1.394 . S
C1078 C1079 1.516 . S
C1079 C1078 1.516 . S
C1079 C1080 1.502 1_556 S
C1079 C1081 1.561 1_556 S
C1079 C1082 1.526 . S
C1080 H1064 0.955 1_554 S
C1080 H1065 0.959 . S
C1080 H1066 0.961 . S
C1080 C1079 1.502 1_554 S
C1081 H1067 0.960 . S
C1081 H1068 0.961 . S
C1081 H1069 0.959 1_554 S
C1081 C1079 1.561 1_554 S
C1082 C1079 1.526 . S
C1082 C1083 1.396 . S
C1082 C1087 1.390 . S
C1083 C1077 1.465 . S
C1083 C1082 1.396 . S
C1083 C1084 1.399 . S
C1084 H1070 0.929 . S
C1084 C1083 1.399 . S
C1084 C1085 1.385 . S
C1085 H1071 0.931 . S
C1085 C1084 1.385 . S
C1085 C1086 1.389 . S
C1086 C1085 1.389 . S
C1086 C1087 1.387 . S
C1087 H1072 0.930 . S
C1087 C1082 1.390 . S
C1087 C1086 1.387 . S
C237 C12 1.067 . S
C249 C179 1.116 . S
C264 C18 1.129 . S
C276 C82 1.120 . S
C291 C32 1.018 . S
C303 C207 1.083 . S
C318 C110 1.123 . S
C330 C54 1.160 . S
C345 C208 1.123 . S
C357 C40 1.153 . S
C372 C109 1.022 . S
C384 C46 1.049 . S
C399 C180 1.161 . S
C411 C4 1.106 . S
C426 C81 1.066 . S
C438 C26 1.121 . S
C453 C67 1.120 . S
C465 C124 1.090 . S
C480 C95 1.017 . S
C492 C144 1.083 . S
C507 C152 1.135 . S
C519 C96 1.148 . S
C534 C68 1.141 . S
C546 C116 1.107 . S
C561 C194 1.116 . S
C573 C130 1.164 . S
C588 C166 1.171 . S
C600 C222 1.109 . S
C615 C158 1.015 . S
C627 C221 1.055 . S
C642 C138 1.067 . S
C654 C193 1.105 . S
C669 C159 1.338 . S
C681 C11 1.472 . S
C696 C117 1.290 . S
C708 C19 1.378 . S
C723 C33 1.319 . S
C735 C137 1.446 . S
C750 C151 1.464 1_556 S
C762 C53 1.493 . S
C777 C165 1.470 . S
C789 C39 1.510 . S
C804 C47 1.355 . S
C816 C123 1.473 . S
C831 C131 1.412 . S
C843 C5 1.277 1_556 S
C858 C145 1.265 . S
C870 C25 1.427 . S
C885 C61 1.328 . S
C897 C215 1.311 . S
C912 C172 1.391 . S
C924 C74 1.411 . S
C939 C89 1.268 . S
C951 C187 1.277 . S
C966 C102 1.404 . S
C978 C200 1.402 . S
C993 C88 1.439 . S
C1005 C214 1.467 . S
C1020 C173 1.400 . S
C1032 C103 1.393 . S
C1047 C186 1.430 . S
C1059 C60 1.392 . S
C1074 C201 1.344 1_556 S
C1086 C75 1.361 . S
