# Generated by pormake.
# Topology cbo, (4)-cn, num edge types: 1
# Building blocks:
#     Node 0, Type 0, BuildingBlock: KUFVIS_clean_sbu_0, # of connection points: 4
#     Node 1, Type 0, BuildingBlock: KUFVIS_clean_sbu_0, # of connection points: 4
#     Node 2, Type 0, BuildingBlock: KUFVIS_clean_sbu_0, # of connection points: 4
#     Node 3, Type 0, BuildingBlock: KUFVIS_clean_sbu_0, # of connection points: 4
#     Node 4, Type 0, BuildingBlock: KUFVIS_clean_sbu_0, # of connection points: 4
#     Node 5, Type 0, BuildingBlock: KUFVIS_clean_sbu_0, # of connection points: 4
#     Node 6, Type 0, BuildingBlock: KUFVIS_clean_sbu_0, # of connection points: 4
#     Node 7, Type 0, BuildingBlock: KUFVIS_clean_sbu_0, # of connection points: 4
#     Node 8, Type 0, BuildingBlock: KUFVIS_clean_sbu_0, # of connection points: 4
#     Node 9, Type 0, BuildingBlock: KUFVIS_clean_sbu_0, # of connection points: 4
#     Node 10, Type 0, BuildingBlock: KUFVIS_clean_sbu_0, # of connection points: 4
#     Node 11, Type 0, BuildingBlock: KUFVIS_clean_sbu_0, # of connection points: 4
#     Node 12, Type 0, BuildingBlock: KUFVIS_clean_sbu_0, # of connection points: 4
#     Node 13, Type 0, BuildingBlock: KUFVIS_clean_sbu_0, # of connection points: 4
#     Node 14, Type 0, BuildingBlock: KUFVIS_clean_sbu_0, # of connection points: 4
#     Node 15, Type 0, BuildingBlock: KUFVIS_clean_sbu_0, # of connection points: 4
#     Node 16, Type 0, BuildingBlock: KUFVIS_clean_sbu_0, # of connection points: 4
#     Node 17, Type 0, BuildingBlock: KUFVIS_clean_sbu_0, # of connection points: 4
#     Node 18, Type 0, BuildingBlock: KUFVIS_clean_sbu_0, # of connection points: 4
#     Node 19, Type 0, BuildingBlock: KUFVIS_clean_sbu_0, # of connection points: 4
#     Node 20, Type 0, BuildingBlock: KUFVIS_clean_sbu_0, # of connection points: 4
#     Node 21, Type 0, BuildingBlock: KUFVIS_clean_sbu_0, # of connection points: 4
#     Node 22, Type 0, BuildingBlock: KUFVIS_clean_sbu_0, # of connection points: 4
#     Node 23, Type 0, BuildingBlock: KUFVIS_clean_sbu_0, # of connection points: 4
#     Edge 24, Type (0, 0), BuildingBlock: XIVTED_clean_linker_0, # of connection points: 2
#     Edge 25, Type (0, 0), BuildingBlock: XIVTED_clean_linker_0, # of connection points: 2
#     Edge 26, Type (0, 0), BuildingBlock: XIVTED_clean_linker_0, # of connection points: 2
#     Edge 27, Type (0, 0), BuildingBlock: XIVTED_clean_linker_0, # of connection points: 2
#     Edge 28, Type (0, 0), BuildingBlock: XIVTED_clean_linker_0, # of connection points: 2
#     Edge 29, Type (0, 0), BuildingBlock: XIVTED_clean_linker_0, # of connection points: 2
#     Edge 30, Type (0, 0), BuildingBlock: XIVTED_clean_linker_0, # of connection points: 2
#     Edge 31, Type (0, 0), BuildingBlock: XIVTED_clean_linker_0, # of connection points: 2
#     Edge 32, Type (0, 0), BuildingBlock: XIVTED_clean_linker_0, # of connection points: 2
#     Edge 33, Type (0, 0), BuildingBlock: XIVTED_clean_linker_0, # of connection points: 2
#     Edge 34, Type (0, 0), BuildingBlock: XIVTED_clean_linker_0, # of connection points: 2
#     Edge 35, Type (0, 0), BuildingBlock: XIVTED_clean_linker_0, # of connection points: 2
#     Edge 36, Type (0, 0), BuildingBlock: XIVTED_clean_linker_0, # of connection points: 2
#     Edge 37, Type (0, 0), BuildingBlock: XIVTED_clean_linker_0, # of connection points: 2
#     Edge 38, Type (0, 0), BuildingBlock: XIVTED_clean_linker_0, # of connection points: 2
#     Edge 39, Type (0, 0), BuildingBlock: XIVTED_clean_linker_0, # of connection points: 2
#     Edge 40, Type (0, 0), BuildingBlock: XIVTED_clean_linker_0, # of connection points: 2
#     Edge 41, Type (0, 0), BuildingBlock: XIVTED_clean_linker_0, # of connection points: 2
#     Edge 42, Type (0, 0), BuildingBlock: XIVTED_clean_linker_0, # of connection points: 2
#     Edge 43, Type (0, 0), BuildingBlock: XIVTED_clean_linker_0, # of connection points: 2
#     Edge 44, Type (0, 0), BuildingBlock: XIVTED_clean_linker_0, # of connection points: 2
#     Edge 45, Type (0, 0), BuildingBlock: XIVTED_clean_linker_0, # of connection points: 2
#     Edge 46, Type (0, 0), BuildingBlock: XIVTED_clean_linker_0, # of connection points: 2
#     Edge 47, Type (0, 0), BuildingBlock: XIVTED_clean_linker_0, # of connection points: 2
#     Edge 48, Type (0, 0), BuildingBlock: XIVTED_clean_linker_0, # of connection points: 2
#     Edge 49, Type (0, 0), BuildingBlock: XIVTED_clean_linker_0, # of connection points: 2
#     Edge 50, Type (0, 0), BuildingBlock: XIVTED_clean_linker_0, # of connection points: 2
#     Edge 51, Type (0, 0), BuildingBlock: XIVTED_clean_linker_0, # of connection points: 2
#     Edge 52, Type (0, 0), BuildingBlock: XIVTED_clean_linker_0, # of connection points: 2
#     Edge 53, Type (0, 0), BuildingBlock: XIVTED_clean_linker_0, # of connection points: 2
#     Edge 54, Type (0, 0), BuildingBlock: XIVTED_clean_linker_0, # of connection points: 2
#     Edge 55, Type (0, 0), BuildingBlock: XIVTED_clean_linker_0, # of connection points: 2
#     Edge 56, Type (0, 0), BuildingBlock: XIVTED_clean_linker_0, # of connection points: 2
#     Edge 57, Type (0, 0), BuildingBlock: XIVTED_clean_linker_0, # of connection points: 2
#     Edge 58, Type (0, 0), BuildingBlock: XIVTED_clean_linker_0, # of connection points: 2
#     Edge 59, Type (0, 0), BuildingBlock: XIVTED_clean_linker_0, # of connection points: 2
#     Edge 60, Type (0, 0), BuildingBlock: XIVTED_clean_linker_0, # of connection points: 2
#     Edge 61, Type (0, 0), BuildingBlock: XIVTED_clean_linker_0, # of connection points: 2
#     Edge 62, Type (0, 0), BuildingBlock: XIVTED_clean_linker_0, # of connection points: 2
#     Edge 63, Type (0, 0), BuildingBlock: XIVTED_clean_linker_0, # of connection points: 2
#     Edge 64, Type (0, 0), BuildingBlock: XIVTED_clean_linker_0, # of connection points: 2
#     Edge 65, Type (0, 0), BuildingBlock: XIVTED_clean_linker_0, # of connection points: 2
#     Edge 66, Type (0, 0), BuildingBlock: XIVTED_clean_linker_0, # of connection points: 2
#     Edge 67, Type (0, 0), BuildingBlock: XIVTED_clean_linker_0, # of connection points: 2
#     Edge 68, Type (0, 0), BuildingBlock: XIVTED_clean_linker_0, # of connection points: 2
#     Edge 69, Type (0, 0), BuildingBlock: XIVTED_clean_linker_0, # of connection points: 2
#     Edge 70, Type (0, 0), BuildingBlock: XIVTED_clean_linker_0, # of connection points: 2
#     Edge 71, Type (0, 0), BuildingBlock: XIVTED_clean_linker_0, # of connection points: 2
# Relax obj value: 0.204
# Max RMSD: 0.226
# Mean RMSD: 0.214
data_MOF--net-cbo--node1-KUFVIS_clean_sbu_0--edge1-XIVTED_clean_linker_0
_symmetry_space_group_name_H-M    P1
_symmetry_Int_Tables_number       1
_symmetry_cell_setting            triclinic
loop_
_symmetry_equiv_pos_as_xyz
'x, y, z'
_cell_length_a     51.567521
_cell_length_b     51.028923
_cell_length_c     52.342134
_cell_angle_alpha  90.041017
_cell_angle_beta   89.999426
_cell_angle_gamma 89.964379
loop_
_atom_site_label
_atom_site_type_symbol
_atom_site_fract_x
_atom_site_fract_y
_atom_site_fract_z
_atom_type_partial_charge
Mn0 Mn 0.13267 0.1716 0.32945 0.0
Mn1 Mn 0.13613 0.10699 0.34298 0.0
C2 C 0.17044 0.14867 0.3219 0.0
C3 C 0.12238 0.20517 0.30109 0.0
C4 C 0.13923 0.1493 0.38335 0.0
O5 O 0.09503 0.16136 0.33282 0.0
O6 O 0.09908 0.11819 0.34124 0.0
C7 C 0.11349 0.08656 0.29497 0.0
N8 N 0.1335 0.08745 0.31193 0.0
C9 C 0.15844 0.05697 0.28685 0.0
C10 C 0.13802 0.05558 0.26921 0.0
C11 C 0.11547 0.07047 0.27328 0.0
C12 C 0.15527 0.07315 0.30824 0.0
H13 H 0.09619 0.09809 0.29795 0.0
C14 C 0.08543 0.13887 0.33749 0.0
O15 O 0.12341 0.20939 0.32555 0.0
O16 O 0.12709 0.18153 0.29326 0.0
N17 N 0.17073 0.09355 0.34497 0.0
C18 C 0.18934 0.09856 0.3628 0.0
C19 C 0.21348 0.08595 0.36098 0.0
C20 C 0.21821 0.06829 0.34092 0.0
C21 C 0.19872 0.06335 0.32287 0.0
C22 C 0.17495 0.0763 0.3258 0.0
H23 H 0.1859 0.11232 0.37809 0.0
O24 O 0.17096 0.17395 0.32459 0.0
O25 O 0.14779 0.13762 0.32363 0.0
O26 O 0.1369 0.16884 0.36831 0.0
O27 O 0.13956 0.12548 0.37586 0.0
C28 C 0.20216 0.04658 0.30175 0.0
C29 C 0.18204 0.04339 0.28375 0.0
H30 H 0.13955 0.04336 0.25235 0.0
H31 H 0.09969 0.06963 0.25967 0.0
H32 H 0.22846 0.08996 0.37492 0.0
H33 H 0.23696 0.05883 0.33942 0.0
H34 H 0.22035 0.03634 0.29895 0.0
H35 H 0.18506 0.03075 0.26738 0.0
Mn36 Mn 0.36036 0.82455 0.83 0.0
Mn37 Mn 0.35927 0.88977 0.84049 0.0
C38 C 0.32298 0.84807 0.82247 0.0
C39 C 0.36959 0.78976 0.80263 0.0
C40 C 0.3581 0.8493 0.88293 0.0
O41 O 0.39838 0.83424 0.83231 0.0
O42 O 0.3958 0.87832 0.83555 0.0
C43 C 0.37683 0.90844 0.78987 0.0
N44 N 0.35859 0.9081 0.80868 0.0
C45 C 0.33084 0.93712 0.78491 0.0
C46 C 0.34941 0.93795 0.76536 0.0
C47 C 0.37249 0.92352 0.76785 0.0
C48 C 0.33637 0.922 0.80655 0.0
H49 H 0.39451 0.89722 0.79165 0.0
C50 C 0.40872 0.85691 0.83362 0.0
O51 O 0.36883 0.78644 0.82724 0.0
O52 O 0.36514 0.81317 0.79409 0.0
N53 N 0.32493 0.90312 0.8454 0.0
C54 C 0.30829 0.89874 0.86515 0.0
C55 C 0.28387 0.91095 0.86515 0.0
C56 C 0.27686 0.92753 0.84488 0.0
C57 C 0.29437 0.93184 0.82483 0.0
C58 C 0.31854 0.91939 0.82602 0.0
H59 H 0.31353 0.88588 0.88069 0.0
O60 O 0.32189 0.8229 0.82585 0.0
O61 O 0.34594 0.8585 0.82335 0.0
O62 O 0.35673 0.82901 0.86872 0.0
O63 O 0.35959 0.87266 0.87428 0.0
C64 C 0.28856 0.94752 0.80343 0.0
C65 C 0.30678 0.95016 0.78349 0.0
H66 H 0.34603 0.94934 0.74823 0.0
H67 H 0.38684 0.92393 0.75277 0.0
H68 H 0.27043 0.90746 0.88065 0.0
H69 H 0.25789 0.93667 0.84481 0.0
H70 H 0.26999 0.95733 0.80194 0.0
H71 H 0.30194 0.96196 0.76696 0.0
Mn72 Mn 0.63119 0.319 0.66908 0.0
Mn73 Mn 0.62963 0.38411 0.65907 0.0
C74 C 0.66751 0.34383 0.67762 0.0
C75 C 0.62174 0.28438 0.69654 0.0
C76 C 0.63281 0.34352 0.61652 0.0
O77 O 0.593 0.32731 0.66473 0.0
O78 O 0.59362 0.37157 0.66515 0.0
C79 C 0.61279 0.4027 0.70999 0.0
N80 N 0.63053 0.40277 0.69071 0.0
C81 C 0.65782 0.43305 0.71348 0.0
C82 C 0.63974 0.43347 0.73349 0.0
C83 C 0.61715 0.41821 0.73174 0.0
C84 C 0.65229 0.41746 0.69215 0.0
H85 H 0.5955 0.39083 0.70879 0.0
C86 C 0.58166 0.34953 0.66511 0.0
O87 O 0.62378 0.28063 0.67205 0.0
O88 O 0.62513 0.30804 0.70487 0.0
N89 N 0.66341 0.39845 0.65322 0.0
C90 C 0.67972 0.39439 0.63312 0.0
C91 C 0.70368 0.40742 0.63241 0.0
C92 C 0.7106 0.42451 0.65232 0.0
C93 C 0.69345 0.42849 0.67274 0.0
C94 C 0.6697 0.41519 0.67228 0.0
H95 H 0.67456 0.38118 0.61783 0.0
O96 O 0.66951 0.31863 0.67482 0.0
O97 O 0.64422 0.35341 0.67602 0.0
O98 O 0.63633 0.32341 0.6306 0.0
O99 O 0.62905 0.36659 0.62534 0.0
C100 C 0.69923 0.44465 0.69382 0.0
C101 C 0.68143 0.44693 0.71417 0.0
H102 H 0.64316 0.4452 0.75042 0.0
H103 H 0.60319 0.41829 0.74718 0.0
H104 H 0.71685 0.40419 0.61662 0.0
H105 H 0.72923 0.4343 0.65184 0.0
H106 H 0.71748 0.45511 0.69475 0.0
H107 H 0.68627 0.4591 0.73045 0.0
Mn108 Mn 0.86037 0.67084 0.16711 0.0
Mn109 Mn 0.8634 0.60572 0.15758 0.0
C110 C 0.82489 0.64513 0.1767 0.0
C111 C 0.8692 0.70619 0.19388 0.0
C112 C 0.85847 0.64579 0.11477 0.0
O113 O 0.89871 0.66349 0.16227 0.0
O114 O 0.89922 0.61923 0.16291 0.0
C115 C 0.88178 0.58781 0.20818 0.0
N116 N 0.86362 0.58724 0.1893 0.0
C117 C 0.8376 0.55634 0.21268 0.0
C118 C 0.85613 0.55643 0.23229 0.0
C119 C 0.87829 0.57226 0.23004 0.0
C120 C 0.84227 0.572 0.19122 0.0
H121 H 0.89874 0.6001 0.2066 0.0
C122 C 0.91062 0.64157 0.16261 0.0
O123 O 0.86671 0.70941 0.16937 0.0
O124 O 0.86668 0.68258 0.20264 0.0
N125 N 0.82983 0.59059 0.15252 0.0
C126 C 0.81288 0.59437 0.13289 0.0
C127 C 0.78915 0.58089 0.1328 0.0
C128 C 0.78311 0.56366 0.15285 0.0
C129 C 0.80089 0.56003 0.17281 0.0
C130 C 0.82434 0.57381 0.17175 0.0
H131 H 0.81736 0.60769 0.1175 0.0
O132 O 0.82216 0.6702 0.17349 0.0
O133 O 0.84839 0.63617 0.17472 0.0
O134 O 0.85469 0.66588 0.1288 0.0
O135 O 0.86293 0.62289 0.12367 0.0
C136 C 0.79601 0.54375 0.194 0.0
C137 C 0.81436 0.54189 0.21391 0.0
H138 H 0.85338 0.54467 0.2493 0.0
H139 H 0.89259 0.57257 0.24517 0.0
H140 H 0.7755 0.58386 0.11738 0.0
H141 H 0.76468 0.5535 0.15284 0.0
H142 H 0.77802 0.53289 0.19536 0.0
H143 H 0.81019 0.52963 0.23029 0.0
Mn144 Mn 0.34195 0.12092 0.1754 0.0
Mn145 Mn 0.34918 0.12406 0.11162 0.0
C146 C 0.33141 0.15888 0.15428 0.0
C147 C 0.31554 0.10936 0.20948 0.0
C148 C 0.394 0.12611 0.14936 0.0
O149 O 0.34661 0.08311 0.1647 0.0
O150 O 0.345 0.08658 0.12169 0.0
C151 C 0.29737 0.10614 0.09476 0.0
N152 N 0.31616 0.12488 0.09506 0.0
C153 C 0.29019 0.15375 0.06921 0.0
C154 C 0.27066 0.13465 0.06844 0.0
C155 C 0.27427 0.11076 0.08128 0.0
C156 C 0.31298 0.14787 0.08262 0.0
H157 H 0.29995 0.08787 0.10484 0.0
C158 C 0.34595 0.0731 0.14237 0.0
O159 O 0.34051 0.11129 0.21246 0.0
O160 O 0.30632 0.11359 0.18686 0.0
N161 N 0.35302 0.15936 0.09979 0.0
C162 C 0.3728 0.17648 0.10416 0.0
C163 C 0.37165 0.20177 0.09365 0.0
C164 C 0.35019 0.2092 0.07878 0.0
C165 C 0.33013 0.19121 0.07445 0.0
C166 C 0.33249 0.16616 0.08514 0.0
H167 H 0.38922 0.17098 0.11577 0.0
O168 O 0.33562 0.15925 0.17871 0.0
O169 O 0.33299 0.13613 0.1432 0.0
O170 O 0.38056 0.12728 0.16979 0.0
O171 O 0.3842 0.12381 0.12702 0.0
C172 C 0.30754 0.1974 0.06055 0.0
C173 C 0.28761 0.17866 0.05789 0.0
H174 H 0.25268 0.13827 0.05834 0.0
H175 H 0.2592 0.096 0.08093 0.0
H176 H 0.38716 0.21558 0.09717 0.0
H177 H 0.3492 0.22884 0.07101 0.0
H178 H 0.30512 0.21665 0.05218 0.0
H179 H 0.27017 0.1838 0.04751 0.0
Mn180 Mn 0.15402 0.8763 0.67376 0.0
Mn181 Mn 0.1442 0.87009 0.61033 0.0
C182 C 0.16397 0.83764 0.65352 0.0
C183 C 0.18096 0.88833 0.70727 0.0
C184 C 0.10097 0.86736 0.64933 0.0
O185 O 0.15019 0.91371 0.6622 0.0
O186 O 0.14447 0.90809 0.61979 0.0
C187 C 0.19346 0.89331 0.59222 0.0
N188 N 0.17674 0.87268 0.59303 0.0
C189 C 0.20484 0.84662 0.5665 0.0
C190 C 0.22226 0.86767 0.56521 0.0
C191 C 0.21654 0.8911 0.57815 0.0
C192 C 0.18198 0.85008 0.58055 0.0
H193 H 0.18925 0.91129 0.6023 0.0
C194 C 0.14668 0.9226 0.63973 0.0
O195 O 0.156 0.88695 0.71048 0.0
O196 O 0.18996 0.88322 0.68471 0.0
N197 N 0.14382 0.83448 0.59874 0.0
C198 C 0.12604 0.81539 0.60359 0.0
C199 C 0.12946 0.79035 0.59295 0.0
C200 C 0.1511 0.78521 0.57742 0.0
C201 C 0.16908 0.8052 0.57261 0.0
C202 C 0.16451 0.82986 0.58352 0.0
H203 H 0.10958 0.81912 0.61579 0.0
O204 O 0.15972 0.83803 0.67795 0.0
O205 O 0.16228 0.85999 0.64169 0.0
O206 O 0.115 0.87074 0.66914 0.0
O207 O 0.10993 0.86655 0.62659 0.0
C208 C 0.19173 0.80143 0.55802 0.0
C209 C 0.20959 0.82212 0.55494 0.0
H210 H 0.24021 0.86595 0.5546 0.0
H211 H 0.22997 0.90737 0.57738 0.0
H212 H 0.11557 0.77498 0.59687 0.0
H213 H 0.15385 0.76578 0.56954 0.0
H214 H 0.19583 0.78255 0.54943 0.0
H215 H 0.22713 0.81886 0.544 0.0
Mn216 Mn 0.83857 0.37796 0.82106 0.0
Mn217 Mn 0.84886 0.37011 0.8842 0.0
C218 C 0.83036 0.3383 0.83994 0.0
C219 C 0.8106 0.3903 0.78848 0.0
C220 C 0.89198 0.37226 0.84488 0.0
O221 O 0.84123 0.41506 0.83423 0.0
O222 O 0.84455 0.40815 0.87678 0.0
C223 C 0.79781 0.38688 0.90418 0.0
N224 N 0.81651 0.36818 0.90191 0.0
C225 C 0.79165 0.33769 0.92698 0.0
C226 C 0.7722 0.35669 0.92975 0.0
C227 C 0.77529 0.38138 0.91829 0.0
C228 C 0.81383 0.34442 0.91302 0.0
H229 H 0.80002 0.4058 0.89521 0.0
C230 C 0.84267 0.42321 0.85723 0.0
O231 O 0.83554 0.38994 0.78479 0.0
O232 O 0.80224 0.38408 0.81099 0.0
N233 N 0.85308 0.33408 0.89352 0.0
C234 C 0.87261 0.31728 0.88723 0.0
C235 C 0.87186 0.29134 0.89614 0.0
C236 C 0.85107 0.28295 0.91141 0.0
C237 C 0.83125 0.30063 0.91774 0.0
C238 C 0.83319 0.32632 0.90854 0.0
H239 H 0.88851 0.32356 0.87528 0.0
O240 O 0.83409 0.33966 0.81547 0.0
O241 O 0.83148 0.36026 0.85247 0.0
O242 O 0.87774 0.37336 0.82497 0.0
O243 O 0.88312 0.37148 0.86765 0.0
C244 C 0.80931 0.29356 0.93221 0.0
C245 C 0.78955 0.31209 0.93687 0.0
H246 H 0.75466 0.35243 0.94036 0.0
H247 H 0.76028 0.39609 0.9202 0.0
H248 H 0.88717 0.27778 0.89108 0.0
H249 H 0.85038 0.26283 0.91797 0.0
H250 H 0.80723 0.2738 0.93948 0.0
H251 H 0.77258 0.3063 0.94768 0.0
Mn252 Mn 0.65506 0.61506 0.32468 0.0
Mn253 Mn 0.64397 0.62287 0.38777 0.0
C254 C 0.66413 0.65428 0.34418 0.0
C255 C 0.68299 0.6029 0.29185 0.0
C256 C 0.60149 0.62459 0.34799 0.0
O257 O 0.65158 0.57788 0.33703 0.0
O258 O 0.64426 0.58472 0.37904 0.0
C259 C 0.69283 0.59976 0.40712 0.0
N260 N 0.67619 0.62044 0.40568 0.0
C261 C 0.70384 0.64681 0.43236 0.0
C262 C 0.72117 0.62571 0.43429 0.0
C263 C 0.71564 0.6021 0.42159 0.0
C264 C 0.68126 0.64322 0.41792 0.0
H265 H 0.68877 0.58164 0.39724 0.0
C266 C 0.64727 0.56966 0.3596 0.0
O267 O 0.65805 0.60365 0.28818 0.0
O268 O 0.69134 0.6085 0.31453 0.0
N269 N 0.64353 0.65869 0.39876 0.0
C270 C 0.62592 0.6778 0.39327 0.0
C271 C 0.6292 0.70297 0.40363 0.0
C272 C 0.65051 0.70825 0.41951 0.0
C273 C 0.66833 0.68826 0.42497 0.0
C274 C 0.66391 0.66346 0.41433 0.0
H275 H 0.60975 0.67398 0.38074 0.0
O276 O 0.66029 0.65329 0.31971 0.0
O277 O 0.66254 0.63222 0.35651 0.0
O278 O 0.61581 0.62024 0.32853 0.0
O279 O 0.61008 0.62632 0.37082 0.0
C280 C 0.69069 0.69217 0.43995 0.0
C281 C 0.70843 0.67145 0.44366 0.0
H282 H 0.73891 0.62752 0.44523 0.0
H283 H 0.729 0.58579 0.42286 0.0
H284 H 0.61546 0.71835 0.39918 0.0
H285 H 0.65318 0.7278 0.42717 0.0
H286 H 0.69467 0.71116 0.44835 0.0
H287 H 0.72575 0.67481 0.45489 0.0
Mn288 Mn 0.17681 0.33079 0.12327 0.0
Mn289 Mn 0.23162 0.35199 0.09472 0.0
C290 C 0.21089 0.30259 0.11717 0.0
C291 C 0.15233 0.32376 0.16 0.0
C292 C 0.18413 0.33589 0.06518 0.0
O293 O 0.17265 0.37 0.12537 0.0
O294 O 0.2083 0.38197 0.10348 0.0
C295 C 0.25293 0.37907 0.14017 0.0
N296 N 0.25557 0.36093 0.12123 0.0
C297 C 0.29797 0.34874 0.13635 0.0
C298 C 0.29577 0.36741 0.1559 0.0
C299 C 0.27313 0.38261 0.15783 0.0
C300 C 0.27725 0.34617 0.11924 0.0
H301 H 0.23554 0.39071 0.14184 0.0
C302 C 0.18712 0.3873 0.11524 0.0
O303 O 0.14139 0.32471 0.13764 0.0
O304 O 0.17706 0.32799 0.16099 0.0
N305 N 0.25639 0.32573 0.08522 0.0
C306 C 0.25532 0.30822 0.06558 0.0
C307 C 0.27628 0.29119 0.0613 0.0
C308 C 0.2983 0.29257 0.07703 0.0
C309 C 0.29924 0.31117 0.09674 0.0
C310 C 0.27782 0.32774 0.09998 0.0
H311 H 0.23839 0.30692 0.05359 0.0
O312 O 0.18762 0.2937 0.12052 0.0
O313 O 0.21387 0.32794 0.11806 0.0
O314 O 0.1695 0.33213 0.08458 0.0
O315 O 0.20804 0.34232 0.06665 0.0
C316 C 0.32041 0.31358 0.1136 0.0
C317 C 0.31976 0.33234 0.1334 0.0
H318 H 0.31126 0.37012 0.16963 0.0
H319 H 0.27123 0.39698 0.17293 0.0
H320 H 0.2754 0.27691 0.04604 0.0
H321 H 0.3143 0.27919 0.07387 0.0
H322 H 0.33717 0.30093 0.11165 0.0
H323 H 0.33606 0.33386 0.14637 0.0
Mn324 Mn 0.67995 0.16119 0.87242 0.0
Mn325 Mn 0.73742 0.14155 0.89689 0.0
C326 C 0.71368 0.19031 0.87558 0.0
C327 C 0.65342 0.16636 0.83674 0.0
C328 C 0.69071 0.15526 0.92962 0.0
O329 O 0.6766 0.12182 0.8721 0.0
O330 O 0.71622 0.11055 0.88673 0.0
C331 C 0.75938 0.11922 0.84936 0.0
N332 N 0.76132 0.13603 0.86949 0.0
C333 C 0.80276 0.15163 0.85483 0.0
C334 C 0.80136 0.13422 0.83414 0.0
C335 C 0.77954 0.11801 0.83135 0.0
C336 C 0.78217 0.15182 0.87227 0.0
H337 H 0.74253 0.10692 0.84699 0.0
C338 C 0.6936 0.10485 0.87822 0.0
O339 O 0.64364 0.1661 0.85965 0.0
O340 O 0.67813 0.16246 0.83471 0.0
N341 N 0.76027 0.16919 0.90728 0.0
C342 C 0.75785 0.18614 0.92727 0.0
C343 C 0.77765 0.20435 0.93218 0.0
C344 C 0.7998 0.20486 0.9166 0.0
C345 C 0.802 0.18707 0.89628 0.0
C346 C 0.78174 0.16921 0.89245 0.0
H347 H 0.7407 0.18617 0.93902 0.0
O348 O 0.69008 0.19863 0.87322 0.0
O349 O 0.71709 0.16505 0.87526 0.0
O350 O 0.67519 0.16109 0.91141 0.0
O351 O 0.71411 0.14766 0.92622 0.0
C352 C 0.82315 0.18687 0.87925 0.0
C353 C 0.82352 0.16918 0.85853 0.0
H354 H 0.81679 0.13336 0.82011 0.0
H355 H 0.77821 0.10469 0.81531 0.0
H356 H 0.77572 0.21813 0.94779 0.0
H357 H 0.81486 0.21919 0.92022 0.0
H358 H 0.83904 0.20052 0.88168 0.0
H359 H 0.83971 0.16947 0.84535 0.0
Mn360 Mn 0.81404 0.8313 0.37181 0.0
Mn361 Mn 0.75806 0.85274 0.39797 0.0
C362 C 0.78064 0.80247 0.37872 0.0
C363 C 0.83862 0.82404 0.33515 0.0
C364 C 0.80703 0.84281 0.42858 0.0
O365 O 0.81681 0.87074 0.36854 0.0
O366 O 0.77763 0.88293 0.38368 0.0
C367 C 0.7315 0.86994 0.35077 0.0
N368 N 0.73193 0.85482 0.37218 0.0
C369 C 0.69035 0.83614 0.36202 0.0
C370 C 0.68936 0.85166 0.33995 0.0
C371 C 0.71005 0.86861 0.33428 0.0
C372 C 0.71212 0.83848 0.37785 0.0
H373 H 0.74745 0.88286 0.34629 0.0
C374 C 0.79987 0.88809 0.37394 0.0
O375 O 0.84962 0.82584 0.35745 0.0
O376 O 0.81377 0.82744 0.33422 0.0
N377 N 0.73723 0.82556 0.41255 0.0
C378 C 0.74188 0.81087 0.4338 0.0
C379 C 0.72347 0.79225 0.44163 0.0
C380 C 0.70042 0.78908 0.42767 0.0
C381 C 0.6959 0.8047 0.40609 0.0
C382 C 0.71486 0.82309 0.39932 0.0
H383 H 0.75961 0.81315 0.44454 0.0
O384 O 0.80411 0.79393 0.37563 0.0
O385 O 0.77729 0.82767 0.37702 0.0
O386 O 0.82112 0.83395 0.41042 0.0
O387 O 0.78368 0.85067 0.42572 0.0
C388 C 0.67363 0.80232 0.39067 0.0
C389 C 0.67086 0.81802 0.36865 0.0
H390 H 0.67295 0.85054 0.32708 0.0
H391 H 0.7095 0.88053 0.31721 0.0
H392 H 0.72711 0.78027 0.4583 0.0
H393 H 0.68642 0.77447 0.43358 0.0
H394 H 0.65869 0.7882 0.39536 0.0
H395 H 0.65381 0.81575 0.35676 0.0
Mn396 Mn 0.31737 0.66284 0.62492 0.0
Mn397 Mn 0.26259 0.64186 0.59618 0.0
C398 C 0.28335 0.69117 0.6187 0.0
C399 C 0.34168 0.67014 0.66175 0.0
C400 C 0.31033 0.65744 0.56682 0.0
O401 O 0.32132 0.6236 0.62718 0.0
O402 O 0.28571 0.61179 0.60512 0.0
C403 C 0.24081 0.61503 0.64152 0.0
N404 N 0.23842 0.63312 0.62255 0.0
C405 C 0.19593 0.64552 0.63728 0.0
C406 C 0.19788 0.62689 0.65686 0.0
C407 C 0.22045 0.61161 0.65901 0.0
C408 C 0.21681 0.64797 0.62035 0.0
H409 H 0.25816 0.60331 0.64335 0.0
C410 C 0.30681 0.60636 0.61697 0.0
O411 O 0.35274 0.66891 0.63945 0.0
O412 O 0.31694 0.66592 0.66263 0.0
N413 N 0.23807 0.66828 0.58653 0.0
C414 C 0.23947 0.68585 0.56699 0.0
C415 C 0.21865 0.70301 0.56257 0.0
C416 C 0.19644 0.70168 0.57803 0.0
C417 C 0.19518 0.68304 0.59767 0.0
C418 C 0.21651 0.66637 0.60109 0.0
H419 H 0.25651 0.68705 0.55517 0.0
O420 O 0.30667 0.69997 0.62197 0.0
O421 O 0.28033 0.66584 0.61961 0.0
O422 O 0.32491 0.6612 0.58625 0.0
O423 O 0.28636 0.65126 0.56821 0.0
C424 C 0.17384 0.68072 0.6143 0.0
C425 C 0.17422 0.66199 0.63411 0.0
H426 H 0.18226 0.62427 0.67046 0.0
H427 H 0.22215 0.59728 0.67414 0.0
H428 H 0.21977 0.71732 0.54736 0.0
H429 H 0.18053 0.71513 0.57473 0.0
H430 H 0.15714 0.69343 0.6122 0.0
H431 H 0.15779 0.66055 0.64693 0.0
Mn432 Mn 0.86021 0.82527 0.6653 0.0
Mn433 Mn 0.8577 0.89058 0.65724 0.0
C434 C 0.82317 0.84782 0.6765 0.0
C435 C 0.87297 0.79124 0.69208 0.0
C436 C 0.85301 0.85117 0.61365 0.0
O437 O 0.89749 0.83545 0.65932 0.0
O438 O 0.8948 0.87958 0.65977 0.0
C439 C 0.87831 0.90793 0.70723 0.0
N440 N 0.85889 0.9079 0.6896 0.0
C441 C 0.83225 0.93545 0.71616 0.0
C442 C 0.85208 0.93599 0.73449 0.0
C443 C 0.87519 0.92214 0.73001 0.0
C444 C 0.83659 0.92121 0.69368 0.0
H445 H 0.896 0.89709 0.70398 0.0
C446 C 0.90778 0.85813 0.65905 0.0
O447 O 0.86981 0.78719 0.66772 0.0
O448 O 0.86862 0.81466 0.70049 0.0
N449 N 0.82292 0.90353 0.65496 0.0
C450 C 0.80502 0.89948 0.63621 0.0
C451 C 0.78045 0.91115 0.63826 0.0
C452 C 0.77452 0.92685 0.65953 0.0
C453 C 0.79328 0.93081 0.67854 0.0
C454 C 0.81755 0.91892 0.67532 0.0
H455 H 0.80937 0.88727 0.61993 0.0
O456 O 0.82237 0.82268 0.6729 0.0
O457 O 0.84579 0.8587 0.67396 0.0
O458 O 0.85287 0.83029 0.62714 0.0
O459 O 0.85565 0.87417 0.62308 0.0
C460 C 0.78864 0.9456 0.70082 0.0
C461 C 0.80812 0.94793 0.71961 0.0
H462 H 0.84965 0.94672 0.7522 0.0
H463 H 0.89051 0.9223 0.74414 0.0
H464 H 0.76604 0.90792 0.62356 0.0
H465 H 0.75544 0.93558 0.66118 0.0
H466 H 0.77004 0.95496 0.70386 0.0
H467 H 0.80419 0.95904 0.73682 0.0
Mn468 Mn 0.6349 0.16326 0.16708 0.0
Mn469 Mn 0.63796 0.09932 0.15144 0.0
C470 C 0.67218 0.13994 0.17539 0.0
C471 C 0.62237 0.1949 0.19663 0.0
C472 C 0.64171 0.14345 0.11274 0.0
O473 O 0.59749 0.15323 0.16107 0.0
O474 O 0.60084 0.10954 0.15511 0.0
C475 C 0.61762 0.07576 0.19901 0.0
N476 N 0.63706 0.07824 0.18158 0.0
C477 C 0.66409 0.04804 0.20476 0.0
C478 C 0.64428 0.045 0.22287 0.0
C479 C 0.62096 0.05894 0.21998 0.0
C480 C 0.65954 0.06484 0.18409 0.0
H481 H 0.59975 0.0866 0.19697 0.0
C482 C 0.58754 0.13062 0.1578 0.0
O483 O 0.62509 0.20075 0.17261 0.0
O484 O 0.62698 0.1709 0.20328 0.0
N485 N 0.6729 0.08723 0.14769 0.0
C486 C 0.69073 0.09384 0.12959 0.0
C487 C 0.7155 0.08243 0.13034 0.0
C488 C 0.72168 0.06435 0.14963 0.0
C489 C 0.70298 0.0578 0.168 0.0
C490 C 0.67853 0.0696 0.16614 0.0
H491 H 0.68615 0.10785 0.11483 0.0
O492 O 0.67276 0.16534 0.17427 0.0
O493 O 0.64961 0.12912 0.17199 0.0
O494 O 0.64192 0.16244 0.12861 0.0
O495 O 0.63946 0.11942 0.11922 0.0
C496 C 0.70784 0.04047 0.1884 0.0
C497 C 0.6884 0.03559 0.20675 0.0
H498 H 0.64687 0.03224 0.23921 0.0
H499 H 0.60564 0.05682 0.23397 0.0
H500 H 0.72986 0.08766 0.11615 0.0
H501 H 0.74089 0.0558 0.15029 0.0
H502 H 0.72658 0.03109 0.19035 0.0
H503 H 0.69249 0.02252 0.22255 0.0
Mn504 Mn 0.35998 0.6623 0.32931 0.0
Mn505 Mn 0.35896 0.59802 0.3433 0.0
C506 C 0.32326 0.63818 0.32077 0.0
C507 C 0.37145 0.695 0.30055 0.0
C508 C 0.3548 0.64127 0.38317 0.0
O509 O 0.39765 0.65315 0.33529 0.0
O510 O 0.39571 0.60907 0.33831 0.0
C511 C 0.37791 0.57585 0.29448 0.0
N512 N 0.35912 0.57758 0.31269 0.0
C513 C 0.33176 0.54747 0.28978 0.0
C514 C 0.35092 0.54517 0.2709 0.0
C515 C 0.37408 0.55945 0.27326 0.0
C516 C 0.33679 0.56386 0.31066 0.0
H517 H 0.39563 0.587 0.29609 0.0
C518 C 0.40834 0.63068 0.33687 0.0
O519 O 0.36874 0.70014 0.32474 0.0
O520 O 0.36754 0.67104 0.2933 0.0
N521 N 0.3244 0.58519 0.34804 0.0
C522 C 0.30716 0.59102 0.36694 0.0
C523 C 0.2826 0.57916 0.36683 0.0
C524 C 0.27602 0.56145 0.34733 0.0
C525 C 0.29411 0.55569 0.32814 0.0
C526 C 0.3184 0.56789 0.32939 0.0
H527 H 0.31203 0.60474 0.38189 0.0
O528 O 0.322 0.66354 0.32227 0.0
O529 O 0.34614 0.62795 0.32376 0.0
O530 O 0.35322 0.66042 0.36761 0.0
O531 O 0.35818 0.61749 0.37612 0.0
C532 C 0.28879 0.53878 0.30751 0.0
C533 C 0.3076 0.53466 0.28835 0.0
H534 H 0.34794 0.53275 0.25437 0.0
H535 H 0.38889 0.55794 0.25868 0.0
H536 H 0.2687 0.58378 0.38167 0.0
H537 H 0.25695 0.55256 0.34717 0.0
H538 H 0.27015 0.52912 0.30601 0.0
H539 H 0.30314 0.52189 0.2724 0.0
Mn540 Mn 0.13184 0.33462 0.82774 0.0
Mn541 Mn 0.13594 0.39825 0.84443 0.0
C542 C 0.16958 0.3574 0.82017 0.0
C543 C 0.11911 0.30331 0.79801 0.0
C544 C 0.13824 0.35345 0.88249 0.0
O545 O 0.09458 0.34539 0.83322 0.0
O546 O 0.09871 0.38889 0.84004 0.0
C547 C 0.11672 0.42311 0.79701 0.0
N548 N 0.13587 0.41988 0.81465 0.0
C549 C 0.16377 0.44997 0.79238 0.0
C550 C 0.14428 0.45376 0.77408 0.0
C551 C 0.12067 0.44025 0.77639 0.0
C552 C 0.15862 0.43288 0.81268 0.0
H553 H 0.09862 0.41261 0.79861 0.0
C554 C 0.08505 0.36817 0.83664 0.0
O555 O 0.12141 0.29744 0.82206 0.0
O556 O 0.12433 0.32721 0.79137 0.0
N557 N 0.17107 0.4095 0.84881 0.0
C558 C 0.18854 0.40214 0.86698 0.0
C559 C 0.21354 0.41303 0.86676 0.0
C560 C 0.22031 0.43135 0.84789 0.0
C561 C 0.20198 0.43867 0.82943 0.0
C562 C 0.17728 0.42736 0.83077 0.0
H563 H 0.1835 0.38793 0.88142 0.0
O564 O 0.1698 0.33196 0.82106 0.0
O565 O 0.14715 0.36854 0.82347 0.0
O566 O 0.13821 0.33482 0.86625 0.0
O567 O 0.13663 0.37763 0.87639 0.0
C568 C 0.20744 0.45628 0.80943 0.0
C569 C 0.18835 0.46194 0.79093 0.0
H570 H 0.14734 0.46677 0.75801 0.0
H571 H 0.10559 0.44295 0.76225 0.0
H572 H 0.22761 0.4072 0.88101 0.0
H573 H 0.2397 0.4395 0.84763 0.0
H574 H 0.22639 0.4653 0.80788 0.0
H575 H 0.1929 0.47522 0.77543 0.0
Mn576 Mn 0.65503 0.86553 0.8332 0.0
Mn577 Mn 0.64267 0.86593 0.89637 0.0
C578 C 0.66308 0.82867 0.85727 0.0
C579 C 0.68364 0.87463 0.80011 0.0
C580 C 0.60088 0.8629 0.85566 0.0
O581 O 0.65195 0.90407 0.84175 0.0
O582 O 0.64808 0.90267 0.88476 0.0
C583 C 0.69314 0.88447 0.91628 0.0
N584 N 0.67435 0.86575 0.91531 0.0
C585 C 0.69814 0.83796 0.94411 0.0
C586 C 0.71766 0.85702 0.94555 0.0
C587 C 0.71514 0.88037 0.93156 0.0
C588 C 0.67648 0.84329 0.92883 0.0
H589 H 0.69139 0.90235 0.90538 0.0
C590 C 0.65064 0.91509 0.8636 0.0
O591 O 0.65882 0.87324 0.79599 0.0
O592 O 0.69162 0.87078 0.82328 0.0
N593 N 0.63763 0.83127 0.90947 0.0
C594 C 0.61808 0.81408 0.90443 0.0
C595 C 0.61825 0.7893 0.91609 0.0
C596 C 0.6385 0.78246 0.93274 0.0
C597 C 0.6584 0.80049 0.93764 0.0
C598 C 0.65706 0.825 0.9257 0.0
H599 H 0.60259 0.81914 0.89147 0.0
O600 O 0.66007 0.82676 0.83271 0.0
O601 O 0.66119 0.85212 0.86674 0.0
O602 O 0.61587 0.86103 0.83638 0.0
O603 O 0.60892 0.86566 0.87859 0.0
C604 C 0.67982 0.79486 0.95342 0.0
C605 C 0.69967 0.81359 0.95668 0.0
H606 H 0.73481 0.85381 0.95709 0.0
H607 H 0.7302 0.8951 0.93245 0.0
H608 H 0.60289 0.77545 0.91212 0.0
H609 H 0.63871 0.76322 0.94148 0.0
H610 H 0.68141 0.77605 0.96287 0.0
H611 H 0.71622 0.8089 0.96857 0.0
Mn612 Mn 0.83943 0.12633 0.33032 0.0
Mn613 Mn 0.84924 0.12883 0.39379 0.0
C614 C 0.82862 0.16371 0.35281 0.0
C615 C 0.8124 0.11466 0.29662 0.0
C616 C 0.89244 0.13162 0.35437 0.0
O617 O 0.84449 0.08823 0.3404 0.0
O618 O 0.84439 0.09167 0.38344 0.0
C619 C 0.7984 0.1106 0.41307 0.0
N620 N 0.81708 0.12942 0.41193 0.0
C621 C 0.79258 0.15786 0.43959 0.0
C622 C 0.77319 0.13868 0.44122 0.0
C623 C 0.77611 0.11497 0.42788 0.0
C624 C 0.81453 0.15226 0.4248 0.0
H625 H 0.80043 0.09246 0.40263 0.0
C626 C 0.84407 0.07816 0.36274 0.0
O627 O 0.83726 0.11711 0.29326 0.0
O628 O 0.80351 0.11871 0.31944 0.0
N629 N 0.85352 0.16409 0.4056 0.0
C630 C 0.8729 0.18138 0.40026 0.0
C631 C 0.87225 0.20655 0.41109 0.0
C632 C 0.85169 0.21369 0.42728 0.0
C633 C 0.83197 0.19557 0.4325 0.0
C634 C 0.83378 0.17068 0.42136 0.0
H635 H 0.88866 0.17607 0.3877 0.0
O636 O 0.83225 0.16484 0.32829 0.0
O637 O 0.83143 0.14078 0.36309 0.0
O638 O 0.8781 0.13311 0.3346 0.0
O639 O 0.88361 0.12873 0.377 0.0
C640 C 0.81028 0.20145 0.44784 0.0
C641 C 0.79062 0.18259 0.45141 0.0
H642 H 0.75582 0.1421 0.45239 0.0
H643 H 0.76113 0.10016 0.42889 0.0
H644 H 0.88748 0.22046 0.40688 0.0
H645 H 0.85113 0.23321 0.4354 0.0
H646 H 0.80833 0.22055 0.45668 0.0
H647 H 0.77383 0.1875 0.46291 0.0
Mn648 Mn 0.15658 0.62353 0.16785 0.0
Mn649 Mn 0.14552 0.63145 0.10485 0.0
C650 C 0.16739 0.66239 0.14803 0.0
C651 C 0.1839 0.6094 0.20037 0.0
C652 C 0.10319 0.6333 0.14517 0.0
O653 O 0.15089 0.58645 0.15529 0.0
O654 O 0.14767 0.59327 0.11278 0.0
C655 C 0.19497 0.6107 0.0844 0.0
N656 N 0.17758 0.63068 0.08652 0.0
C657 C 0.204 0.65879 0.06036 0.0
C658 C 0.22204 0.6384 0.05767 0.0
C659 C 0.21752 0.61428 0.06977 0.0
C660 C 0.18171 0.65397 0.07491 0.0
H661 H 0.19174 0.59223 0.0939 0.0
C662 C 0.14893 0.57817 0.13236 0.0
O663 O 0.15909 0.61174 0.20415 0.0
O664 O 0.19257 0.61482 0.17775 0.0
N665 N 0.14369 0.66753 0.09493 0.0
C666 C 0.12553 0.68584 0.1012 0.0
C667 C 0.12779 0.71139 0.09151 0.0
C668 C 0.14871 0.71787 0.07555 0.0
C669 C 0.16719 0.69872 0.06939 0.0
C670 C 0.16374 0.67348 0.07934 0.0
H671 H 0.1096 0.68108 0.11373 0.0
O672 O 0.1641 0.66167 0.1726 0.0
O673 O 0.16431 0.64035 0.13602 0.0
O674 O 0.11787 0.63079 0.1646 0.0
O675 O 0.11144 0.63323 0.12214 0.0
C676 C 0.18923 0.70386 0.0543 0.0
C677 C 0.20762 0.68391 0.04979 0.0
H678 H 0.2396 0.64118 0.04663 0.0
H679 H 0.23146 0.59852 0.06796 0.0
H680 H 0.11355 0.72611 0.0965 0.0
H681 H 0.15056 0.73769 0.06838 0.0
H682 H 0.19244 0.7232 0.04642 0.0
H683 H 0.2247 0.68822 0.03851 0.0
Mn684 Mn 0.3366 0.36949 0.66688 0.0
Mn685 Mn 0.34713 0.36221 0.60371 0.0
C686 C 0.3252 0.33099 0.64666 0.0
C687 C 0.30987 0.38338 0.69994 0.0
C688 C 0.38967 0.35933 0.6437 0.0
O689 O 0.34247 0.40667 0.65477 0.0
O690 O 0.34558 0.40032 0.61218 0.0
C691 C 0.29793 0.38401 0.58372 0.0
N692 N 0.31502 0.36374 0.58551 0.0
C693 C 0.28826 0.33652 0.55876 0.0
C694 C 0.27052 0.35721 0.55643 0.0
C695 C 0.27536 0.38104 0.569 0.0
C696 C 0.31059 0.34074 0.57344 0.0
H697 H 0.30141 0.40227 0.59357 0.0
C698 C 0.34449 0.4152 0.63195 0.0
O699 O 0.3347 0.38082 0.70333 0.0
O700 O 0.30083 0.37835 0.67735 0.0
N701 N 0.34835 0.32625 0.59329 0.0
C702 C 0.36614 0.30752 0.59938 0.0
C703 C 0.36345 0.28214 0.58935 0.0
C704 C 0.34248 0.27627 0.5732 0.0
C705 C 0.32439 0.29584 0.56724 0.0
C706 C 0.32823 0.32087 0.57757 0.0
H707 H 0.3821 0.31181 0.61203 0.0
O708 O 0.32882 0.33139 0.6712 0.0
O709 O 0.32835 0.35314 0.63488 0.0
O710 O 0.37515 0.36192 0.66322 0.0
O711 O 0.38128 0.35967 0.62072 0.0
C712 C 0.30233 0.29132 0.55197 0.0
C713 C 0.28429 0.31165 0.54772 0.0
H714 H 0.25294 0.3549 0.54531 0.0
H715 H 0.26165 0.39703 0.56746 0.0
H716 H 0.37739 0.26709 0.59419 0.0
H717 H 0.34031 0.25659 0.56574 0.0
H718 H 0.29883 0.27216 0.54376 0.0
H719 H 0.26719 0.30781 0.53631 0.0
Mn720 Mn 0.83135 0.67088 0.87649 0.0
Mn721 Mn 0.89605 0.66151 0.87633 0.0
C722 C 0.85461 0.67933 0.83997 0.0
C723 C 0.79608 0.69729 0.88583 0.0
C724 C 0.85704 0.61737 0.87262 0.0
O725 O 0.84027 0.66807 0.91394 0.0
O726 O 0.88386 0.66484 0.91244 0.0
C727 C 0.9126 0.71323 0.89602 0.0
N728 N 0.91327 0.69463 0.87736 0.0
C729 C 0.94198 0.72085 0.8517 0.0
C730 C 0.94176 0.7402 0.87074 0.0
C731 C 0.92698 0.73638 0.89298 0.0
C732 C 0.92748 0.69807 0.85592 0.0
H733 H 0.90111 0.71044 0.91305 0.0
C734 C 0.86236 0.66651 0.9247 0.0
O735 O 0.79365 0.672 0.88451 0.0
O736 O 0.81891 0.70711 0.88174 0.0
N737 N 0.9103 0.65814 0.84273 0.0
C738 C 0.90703 0.63837 0.82551 0.0
C739 C 0.91972 0.63964 0.80181 0.0
C740 C 0.9357 0.66114 0.79611 0.0
C741 C 0.93892 0.68115 0.81421 0.0
C742 C 0.92596 0.6787 0.8376 0.0
H743 H 0.89465 0.62188 0.82974 0.0
O744 O 0.82976 0.67545 0.83887 0.0
O745 O 0.865 0.67885 0.86268 0.0
O746 O 0.83679 0.63165 0.87203 0.0
O747 O 0.88003 0.62641 0.87476 0.0
C748 C 0.95399 0.7037 0.80973 0.0
C749 C 0.95552 0.72354 0.82847 0.0
H750 H 0.95265 0.75818 0.86837 0.0
H751 H 0.92659 0.7513 0.90768 0.0
H752 H 0.9171 0.62416 0.78792 0.0
H753 H 0.94525 0.66218 0.7777 0.0
H754 H 0.96419 0.70616 0.79181 0.0
H755 H 0.96688 0.74095 0.82466 0.0
Mn756 Mn 0.33233 0.82492 0.12122 0.0
Mn757 Mn 0.39705 0.83384 0.12152 0.0
C758 C 0.35589 0.81596 0.1575 0.0
C759 C 0.2968 0.79834 0.11323 0.0
C760 C 0.35863 0.87835 0.12633 0.0
O761 O 0.34086 0.82695 0.08372 0.0
O762 O 0.38417 0.8329 0.08543 0.0
C763 C 0.41236 0.78317 0.09841 0.0
N764 N 0.4136 0.80048 0.11819 0.0
C765 C 0.44186 0.77188 0.14189 0.0
C766 C 0.44104 0.75385 0.12168 0.0
C767 C 0.42621 0.75952 0.09986 0.0
C768 C 0.42788 0.79526 0.13924 0.0
H769 H 0.40084 0.78735 0.08168 0.0
C770 C 0.36283 0.83013 0.07307 0.0
O771 O 0.29435 0.82368 0.11396 0.0
O772 O 0.31976 0.78869 0.11684 0.0
N773 N 0.41189 0.83473 0.15504 0.0
C774 C 0.4092 0.85333 0.17354 0.0
C775 C 0.42208 0.85018 0.19697 0.0
C776 C 0.43759 0.82795 0.20114 0.0
C777 C 0.44013 0.8091 0.18179 0.0
C778 C 0.42704 0.81343 0.15873 0.0
H779 H 0.39703 0.87027 0.17057 0.0
O780 O 0.33124 0.82083 0.15895 0.0
O781 O 0.366 0.81643 0.13471 0.0
O782 O 0.33819 0.86437 0.12477 0.0
O783 O 0.3816 0.86897 0.1257 0.0
C784 C 0.45466 0.78591 0.18471 0.0
C785 C 0.45552 0.76731 0.16477 0.0
H786 H 0.45151 0.73547 0.12281 0.0
H787 H 0.42536 0.74563 0.08425 0.0
H788 H 0.4199 0.86474 0.21185 0.0
H789 H 0.44727 0.82545 0.21934 0.0
H790 H 0.46495 0.782 0.20234 0.0
H791 H 0.46648 0.74939 0.16737 0.0
Mn792 Mn 0.1579 0.16954 0.62359 0.0
Mn793 Mn 0.0932 0.16337 0.61895 0.0
C794 C 0.13229 0.18017 0.65801 0.0
C795 C 0.19438 0.19503 0.61638 0.0
C796 C 0.13007 0.11734 0.62541 0.0
O797 O 0.1516 0.16557 0.58569 0.0
O798 O 0.10791 0.16725 0.58381 0.0
C799 C 0.07961 0.21604 0.59948 0.0
N800 N 0.07732 0.19719 0.61775 0.0
C801 C 0.04881 0.22436 0.64274 0.0
C802 C 0.05068 0.24398 0.62408 0.0
C803 C 0.06616 0.2398 0.60237 0.0
C804 C 0.06241 0.20097 0.63867 0.0
H805 H 0.09168 0.21301 0.58288 0.0
C806 C 0.13037 0.16642 0.57325 0.0
O807 O 0.19628 0.16971 0.61843 0.0
O808 O 0.17145 0.20523 0.61833 0.0
N809 N 0.07699 0.15992 0.65168 0.0
C810 C 0.07859 0.13974 0.66864 0.0
C811 C 0.06497 0.14124 0.69182 0.0
C812 C 0.04985 0.16344 0.69732 0.0
C813 C 0.04842 0.18392 0.67954 0.0
C814 C 0.06221 0.18122 0.65664 0.0
H815 H 0.09032 0.1227 0.6646 0.0
O816 O 0.1568 0.17535 0.66112 0.0
O817 O 0.12379 0.17922 0.63463 0.0
O818 O 0.15067 0.13073 0.62861 0.0
O819 O 0.1079 0.12749 0.62064 0.0
C820 C 0.03429 0.20715 0.68387 0.0
C821 C 0.03447 0.22734 0.66547 0.0
H822 H 0.04053 0.26243 0.62636 0.0
H823 H 0.06784 0.25492 0.58797 0.0
H824 H 0.06624 0.12538 0.70548 0.0
H825 H 0.03958 0.16463 0.71534 0.0
H826 H 0.02348 0.20981 0.70142 0.0
H827 H 0.02379 0.24523 0.66916 0.0
Mn828 Mn 0.65936 0.32201 0.37771 0.0
Mn829 Mn 0.59452 0.32995 0.37821 0.0
C830 C 0.63578 0.3133 0.34143 0.0
C831 C 0.69531 0.29601 0.3857 0.0
C832 C 0.63243 0.37507 0.37459 0.0
O833 O 0.65085 0.32394 0.41534 0.0
O834 O 0.6072 0.32687 0.41416 0.0
C835 C 0.57944 0.27783 0.39801 0.0
N836 N 0.57827 0.29632 0.37929 0.0
C837 C 0.55079 0.26893 0.35345 0.0
C838 C 0.55153 0.24968 0.37255 0.0
C839 C 0.56594 0.25415 0.39491 0.0
C840 C 0.5644 0.29226 0.35774 0.0
H841 H 0.59066 0.28111 0.41514 0.0
C842 C 0.6288 0.32523 0.42626 0.0
O843 O 0.69729 0.32138 0.38503 0.0
O844 O 0.67252 0.28597 0.382 0.0
N845 N 0.57999 0.33289 0.34469 0.0
C846 C 0.58252 0.35278 0.32752 0.0
C847 C 0.56999 0.35099 0.30376 0.0
C848 C 0.55498 0.32882 0.29793 0.0
C849 C 0.55255 0.30867 0.31597 0.0
C850 C 0.56526 0.31165 0.33943 0.0
H851 H 0.59419 0.36978 0.33183 0.0
O852 O 0.66046 0.31805 0.33998 0.0
O853 O 0.62577 0.31341 0.36427 0.0
O854 O 0.65299 0.36121 0.37403 0.0
O855 O 0.60963 0.3655 0.37655 0.0
C856 C 0.53843 0.2855 0.31139 0.0
C857 C 0.53754 0.26565 0.33012 0.0
H858 H 0.54133 0.23129 0.37013 0.0
H859 H 0.56674 0.23932 0.40966 0.0
H860 H 0.57203 0.36659 0.28991 0.0
H861 H 0.54557 0.32739 0.27948 0.0
H862 H 0.52844 0.28261 0.2934 0.0
H863 H 0.52688 0.2478 0.32626 0.0
H864 H 0.16428 0.33335 0.20979 0.0
H865 H 0.10463 0.2007 0.25231 0.0
H866 H 0.11014 0.29143 0.16214 0.0
H867 H 0.13016 0.25785 0.30759 0.0
H868 H 0.10357 0.23492 0.21972 0.0
H869 H 0.14911 0.30844 0.24673 0.0
C870 C 0.1487 0.31936 0.20726 0.0
C871 C 0.13862 0.3142 0.18289 0.0
C872 C 0.10892 0.24013 0.23908 0.0
C873 C 0.12171 0.28513 0.22486 0.0
C874 C 0.10965 0.22057 0.25765 0.0
C875 C 0.11781 0.22644 0.28256 0.0
C876 C 0.11703 0.2656 0.2453 0.0
C877 C 0.12388 0.25252 0.28854 0.0
C878 C 0.14005 0.30513 0.22834 0.0
C879 C 0.11845 0.29594 0.18062 0.0
N880 N 0.12391 0.27108 0.26989 0.0
N881 N 0.11108 0.28156 0.20126 0.0
H882 H 0.36103 0.73742 0.81069 0.0
H883 H 0.38453 0.70163 0.66368 0.0
H884 H 0.38754 0.79235 0.75381 0.0
H885 H 0.32886 0.6622 0.71164 0.0
H886 H 0.39888 0.72716 0.7008 0.0
H887 H 0.36194 0.70258 0.77826 0.0
C888 C 0.36755 0.74201 0.79154 0.0
C889 C 0.37384 0.76781 0.78475 0.0
C890 C 0.38397 0.71245 0.70326 0.0
C891 C 0.37521 0.72822 0.74788 0.0
C892 C 0.37592 0.69774 0.68217 0.0
C893 C 0.35525 0.68008 0.68459 0.0
C894 C 0.37143 0.70917 0.72688 0.0
C895 C 0.34466 0.6759 0.70895 0.0
C896 C 0.368 0.72218 0.77308 0.0
C897 C 0.38216 0.77276 0.75969 0.0
N898 N 0.35266 0.69057 0.72913 0.0
N899 N 0.38245 0.75318 0.74211 0.0
H900 H 0.60205 0.28779 0.74462 0.0
H901 H 0.66311 0.15501 0.78686 0.0
H902 H 0.63135 0.23191 0.6899 0.0
H903 H 0.61117 0.19877 0.83535 0.0
H904 H 0.64722 0.17948 0.74996 0.0
H905 H 0.60089 0.25336 0.77691 0.0
C906 C 0.60791 0.26813 0.73932 0.0
C907 C 0.61718 0.26273 0.71468 0.0
C908 C 0.63877 0.18331 0.76853 0.0
C909 C 0.61624 0.22326 0.75167 0.0
C910 C 0.64779 0.16929 0.7896 0.0
C911 C 0.63864 0.17514 0.81419 0.0
C912 C 0.62094 0.20377 0.77221 0.0
C913 C 0.61878 0.19373 0.81671 0.0
C914 C 0.60711 0.24843 0.75774 0.0
C915 C 0.62423 0.2369 0.70875 0.0
N916 N 0.61104 0.20787 0.79604 0.0
N917 N 0.62414 0.2182 0.72728 0.0
H918 H 0.85803 0.75811 0.18612 0.0
H919 H 0.88243 0.79382 0.33297 0.0
H920 H 0.88921 0.70453 0.24196 0.0
H921 H 0.82567 0.83218 0.28539 0.0
H922 H 0.89761 0.76921 0.29556 0.0
H923 H 0.85838 0.79293 0.21855 0.0
C924 C 0.86545 0.75384 0.20503 0.0
C925 C 0.87319 0.72836 0.21155 0.0
C926 C 0.88225 0.7835 0.29324 0.0
C927 C 0.87388 0.76794 0.24846 0.0
C928 C 0.87374 0.79768 0.31451 0.0
C929 C 0.85253 0.81472 0.31227 0.0
C930 C 0.86961 0.78667 0.26965 0.0
C931 C 0.84185 0.81892 0.28795 0.0
C932 C 0.86559 0.77365 0.2235 0.0
C933 C 0.88267 0.72384 0.23629 0.0
N934 N 0.85029 0.80474 0.26762 0.0
N935 N 0.88256 0.74337 0.25391 0.0
H936 H 0.32206 0.12253 0.25997 0.0
H937 H 0.16953 0.11853 0.27964 0.0
H938 H 0.26772 0.0878 0.2073 0.0
H939 H 0.22156 0.15103 0.33565 0.0
H940 H 0.20641 0.10026 0.25673 0.0
H941 H 0.28729 0.12573 0.29192 0.0
C942 C 0.30302 0.11489 0.25543 0.0
C943 C 0.29753 0.10531 0.23091 0.0
C944 C 0.20993 0.11097 0.27426 0.0
C945 C 0.25783 0.1092 0.26693 0.0
C946 C 0.18881 0.12118 0.28744 0.0
C947 C 0.1926 0.13546 0.30992 0.0
C948 C 0.23519 0.11597 0.28309 0.0
C949 C 0.21798 0.13964 0.31856 0.0
C950 C 0.28315 0.11688 0.27356 0.0
C951 C 0.2726 0.09574 0.22588 0.0
N952 N 0.23843 0.13003 0.30502 0.0
N953 N 0.25361 0.09825 0.24359 0.0
H954 H 0.27236 0.84964 0.83812 0.0
H955 H 0.22868 0.91019 0.70461 0.0
H956 H 0.32384 0.87468 0.77814 0.0
H957 H 0.17471 0.87584 0.75784 0.0
H958 H 0.26253 0.90788 0.73698 0.0
H959 H 0.23552 0.86784 0.81395 0.0
C960 C 0.27586 0.85948 0.82012 0.0
C961 C 0.30106 0.86145 0.81032 0.0
C962 C 0.24322 0.90116 0.7418 0.0
C963 C 0.25946 0.88169 0.78255 0.0
C964 C 0.22388 0.9026 0.72336 0.0
C965 C 0.19908 0.89279 0.72851 0.0
C966 C 0.23789 0.88923 0.76539 0.0
C967 C 0.19371 0.88346 0.75315 0.0
C968 C 0.25496 0.86985 0.80639 0.0
C969 C 0.30475 0.87363 0.78668 0.0
N970 N 0.21318 0.88135 0.77059 0.0
N971 N 0.28419 0.88326 0.77361 0.0
H972 H 0.76232 0.41069 0.79252 0.0
H973 H 0.71744 0.34761 0.66057 0.0
H974 H 0.81604 0.37865 0.73763 0.0
H975 H 0.66655 0.371 0.72172 0.0
H976 H 0.75405 0.36777 0.6835 0.0
H977 H 0.72764 0.40707 0.76111 0.0
C978 C 0.76688 0.40339 0.77359 0.0
C979 C 0.79188 0.39455 0.7677 0.0
C980 C 0.73477 0.36899 0.6916 0.0
C981 C 0.75217 0.38946 0.73195 0.0
C982 C 0.714 0.3575 0.67858 0.0
C983 C 0.68903 0.35842 0.68907 0.0
C984 C 0.73043 0.38087 0.71546 0.0
C985 C 0.68544 0.37071 0.71268 0.0
C986 C 0.74706 0.40119 0.7557 0.0
C987 C 0.79691 0.38553 0.74288 0.0
N988 N 0.70591 0.38142 0.7251 0.0
N989 N 0.77702 0.38263 0.72601 0.0
H990 H 0.82848 0.61795 0.22068 0.0
H991 H 0.67598 0.61066 0.24036 0.0
H992 H 0.774 0.64122 0.16262 0.0
H993 H 0.73283 0.58662 0.29607 0.0
H994 H 0.71057 0.61375 0.20824 0.0
H995 H 0.79321 0.59846 0.24506 0.0
C996 C 0.80907 0.61823 0.21276 0.0
C997 C 0.80412 0.63037 0.18933 0.0
C998 C 0.71535 0.60727 0.22736 0.0
C999 C 0.76327 0.60957 0.21778 0.0
C1000 C 0.69561 0.60535 0.24563 0.0
C1001 C 0.70171 0.59883 0.27095 0.0
C1002 C 0.7412 0.60258 0.23463 0.0
C1003 C 0.72739 0.59219 0.27684 0.0
C1004 C 0.78885 0.60736 0.22678 0.0
C1005 C 0.77851 0.63153 0.18047 0.0
N1006 N 0.74621 0.59456 0.25893 0.0
N1007 N 0.75892 0.62139 0.19481 0.0
H1008 H 0.34584 0.21017 0.15542 0.0
H1009 H 0.21535 0.25882 0.08839 0.0
H1010 H 0.28566 0.15808 0.1294 0.0
H1011 H 0.25373 0.30313 0.14738 0.0
H1012 H 0.2487 0.2247 0.09226 0.0
H1013 H 0.31939 0.24778 0.1415 0.0
C1014 C 0.32736 0.20674 0.14615 0.0
C1015 C 0.31815 0.18119 0.14261 0.0
C1016 C 0.25005 0.24215 0.10399 0.0
C1017 C 0.28798 0.22352 0.12727 0.0
C1018 C 0.23115 0.26151 0.10177 0.0
C1019 C 0.23247 0.28398 0.11705 0.0
C1020 C 0.27003 0.24522 0.12191 0.0
C1021 C 0.25274 0.28642 0.13467 0.0
C1022 C 0.31235 0.22804 0.13835 0.0
C1023 C 0.29381 0.17752 0.13139 0.0
N1024 N 0.27087 0.26722 0.13663 0.0
N1025 N 0.27953 0.19849 0.12401 0.0
H1026 H 0.78558 0.33825 0.86619 0.0
H1027 H 0.7544 0.19042 0.84269 0.0
H1028 H 0.84345 0.28679 0.83436 0.0
H1029 H 0.71907 0.2341 0.90397 0.0
H1030 H 0.78697 0.22516 0.83795 0.0
H1031 H 0.7603 0.30026 0.87933 0.0
C1032 C 0.79329 0.31882 0.86271 0.0
C1033 C 0.81703 0.3154 0.85026 0.0
C1034 C 0.77243 0.22684 0.85279 0.0
C1035 C 0.7876 0.27199 0.86369 0.0
C1036 C 0.75402 0.20706 0.85555 0.0
C1037 C 0.73483 0.20922 0.87433 0.0
C1038 C 0.77084 0.24919 0.86835 0.0
C1039 C 0.73404 0.23165 0.88965 0.0
C1040 C 0.77879 0.29718 0.86998 0.0
C1041 C 0.82547 0.28998 0.84458 0.0
N1042 N 0.75181 0.25089 0.88629 0.0
N1043 N 0.81062 0.26907 0.85123 0.0
H1044 H 0.73971 0.80174 0.34635 0.0
H1045 H 0.70819 0.65445 0.37195 0.0
H1046 H 0.77502 0.7595 0.40851 0.0
H1047 H 0.65142 0.70568 0.33801 0.0
H1048 H 0.73319 0.69263 0.38548 0.0
H1049 H 0.70705 0.76711 0.34244 0.0
C1050 C 0.74003 0.78546 0.35962 0.0
C1051 C 0.75929 0.7837 0.37837 0.0
C1052 C 0.71497 0.6956 0.37559 0.0
C1053 C 0.72316 0.74364 0.37324 0.0
C1054 C 0.70065 0.67387 0.36809 0.0
C1055 C 0.67732 0.67717 0.35485 0.0
C1056 C 0.70642 0.72074 0.36876 0.0
C1057 C 0.66909 0.70255 0.34877 0.0
C1058 C 0.72157 0.7657 0.35732 0.0
C1059 C 0.75999 0.76165 0.39421 0.0
N1060 N 0.68376 0.7235 0.35565 0.0
N1061 N 0.7422 0.74233 0.39122 0.0
H1062 H 0.20861 0.83855 0.6266 0.0
H1063 H 0.24073 0.69014 0.64922 0.0
H1064 H 0.1519 0.78593 0.65841 0.0
H1065 H 0.27876 0.73556 0.59089 0.0
H1066 H 0.20772 0.72453 0.65323 0.0
H1067 H 0.23458 0.801 0.61317 0.0
C1068 C 0.20128 0.81897 0.62998 0.0
C1069 C 0.17769 0.81512 0.64261 0.0
C1070 C 0.22296 0.72672 0.63917 0.0
C1071 C 0.20794 0.77218 0.62886 0.0
C1072 C 0.24163 0.70709 0.6368 0.0
C1073 C 0.26179 0.70982 0.6191 0.0
C1074 C 0.22516 0.74955 0.62436 0.0
C1075 C 0.2631 0.73265 0.60437 0.0
C1076 C 0.21619 0.79756 0.62257 0.0
C1077 C 0.16976 0.7895 0.64811 0.0
N1078 N 0.24504 0.75175 0.60738 0.0
N1079 N 0.18498 0.76888 0.64133 0.0
H1080 H 0.88254 0.72413 0.83812 0.0
H1081 H 0.86437 0.73808 0.6884 0.0
H1082 H 0.85329 0.66165 0.79091 0.0
H1083 H 0.89711 0.79735 0.7375 0.0
H1084 H 0.8682 0.70628 0.7235 0.0
H1085 H 0.89647 0.74744 0.7999 0.0
C1086 C 0.87995 0.71492 0.81964 0.0
C1087 C 0.86755 0.69066 0.81757 0.0
C1088 C 0.87502 0.72613 0.72638 0.0
C1089 C 0.88165 0.71798 0.77354 0.0
C1090 C 0.87293 0.7442 0.70633 0.0
C1091 C 0.87995 0.77042 0.71031 0.0
C1092 C 0.88422 0.73451 0.75036 0.0
C1093 C 0.89095 0.77741 0.73384 0.0
C1094 C 0.88755 0.72836 0.79775 0.0
C1095 C 0.86323 0.6802 0.79317 0.0
N1096 N 0.89244 0.75969 0.75303 0.0
N1097 N 0.87002 0.69406 0.77202 0.0
H1098 H 0.60343 0.1859 0.24422 0.0
H1099 H 0.63444 0.33005 0.29211 0.0
H1100 H 0.62553 0.24856 0.19344 0.0
H1101 H 0.61126 0.26647 0.34108 0.0
H1102 H 0.62298 0.30343 0.25471 0.0
H1103 H 0.59774 0.21763 0.27852 0.0
C1104 C 0.60685 0.20644 0.24024 0.0
C1105 C 0.61542 0.21459 0.21611 0.0
C1106 C 0.61971 0.29555 0.27363 0.0
C1107 C 0.60929 0.2511 0.25545 0.0
C1108 C 0.62614 0.31076 0.29491 0.0
C1109 C 0.62321 0.30054 0.31956 0.0
C1110 C 0.61098 0.26972 0.27717 0.0
C1111 C 0.61306 0.27529 0.32236 0.0
C1112 C 0.60354 0.22459 0.25984 0.0
C1113 C 0.61913 0.24147 0.21187 0.0
N1114 N 0.60753 0.26064 0.30141 0.0
N1115 N 0.61649 0.25876 0.23152 0.0
H1116 H 0.36901 0.7485 0.30623 0.0
H1117 H 0.38185 0.76992 0.15603 0.0
H1118 H 0.38754 0.68795 0.2516 0.0
H1119 H 0.35541 0.82996 0.20773 0.0
H1120 H 0.39429 0.74292 0.19244 0.0
H1121 H 0.37337 0.7813 0.27221 0.0
C1122 C 0.37439 0.74217 0.28719 0.0
C1123 C 0.37746 0.71547 0.28157 0.0
C1124 C 0.38629 0.76222 0.19595 0.0
C1125 C 0.38249 0.75269 0.24275 0.0
C1126 C 0.37956 0.77777 0.17514 0.0
C1127 C 0.36828 0.8024 0.17901 0.0
C1128 C 0.38082 0.77099 0.22083 0.0
C1129 C 0.36443 0.81115 0.2041 0.0
C1130 C 0.37684 0.76086 0.2678 0.0
C1131 C 0.38455 0.7083 0.25666 0.0
N1132 N 0.37046 0.79534 0.22414 0.0
N1133 N 0.38658 0.72676 0.23815 0.0
H1134 H 0.12681 0.16486 0.70744 0.0
H1135 H 0.10339 0.31218 0.74915 0.0
H1136 H 0.10928 0.2277 0.65536 0.0
H1137 H 0.11824 0.24976 0.80275 0.0
H1138 H 0.09675 0.27977 0.71561 0.0
H1139 H 0.11479 0.19332 0.74332 0.0
C1140 C 0.11956 0.1844 0.70361 0.0
C1141 C 0.11853 0.19391 0.67855 0.0
C1142 C 0.10114 0.27306 0.73475 0.0
C1143 C 0.10578 0.22682 0.71923 0.0
C1144 C 0.10503 0.29159 0.7539 0.0
C1145 C 0.11187 0.28363 0.77863 0.0
C1146 C 0.10454 0.24633 0.74022 0.0
C1147 C 0.11328 0.25671 0.78384 0.0
C1148 C 0.11283 0.20067 0.72402 0.0
C1149 C 0.10965 0.21948 0.67442 0.0
N1150 N 0.1101 0.23899 0.76466 0.0
N1151 N 0.10391 0.23517 0.69458 0.0
H1152 H 0.73324 0.89167 0.8048 0.0
H1153 H 0.77189 0.84864 0.6638 0.0
H1154 H 0.677 0.86755 0.7485 0.0
H1155 H 0.82611 0.87308 0.72166 0.0
H1156 H 0.73598 0.8627 0.6915 0.0
H1157 H 0.76637 0.89287 0.77171 0.0
C1158 C 0.72783 0.88686 0.78536 0.0
C1159 C 0.70249 0.87906 0.77941 0.0
C1160 C 0.75574 0.86558 0.69788 0.0
C1161 C 0.74045 0.87995 0.74141 0.0
C1162 C 0.77614 0.85762 0.68209 0.0
C1163 C 0.80182 0.86041 0.69033 0.0
C1164 C 0.76123 0.87569 0.72228 0.0
C1165 C 0.80653 0.87142 0.71436 0.0
C1166 C 0.74676 0.88757 0.76643 0.0
C1167 C 0.69641 0.87345 0.75387 0.0
N1168 N 0.78643 0.87853 0.72955 0.0
N1169 N 0.71541 0.87355 0.73581 0.0
H1170 H 0.66942 0.10879 0.21698 0.0
H1171 H 0.82074 0.12062 0.24509 0.0
H1172 H 0.72369 0.14264 0.16391 0.0
H1173 H 0.76294 0.0968 0.29994 0.0
H1174 H 0.78768 0.11869 0.21136 0.0
H1175 H 0.70551 0.09357 0.24316 0.0
C1176 C 0.68905 0.11218 0.21041 0.0
C1177 C 0.69373 0.12631 0.188 0.0
C1178 C 0.7824 0.11346 0.23072 0.0
C1179 C 0.73515 0.11052 0.21863 0.0
C1180 C 0.80124 0.11448 0.24993 0.0
C1181 C 0.79439 0.10931 0.27537 0.0
C1182 C 0.75668 0.10708 0.2371 0.0
C1183 C 0.76892 0.10139 0.28063 0.0
C1184 C 0.70967 0.10383 0.22552 0.0
C1185 C 0.71945 0.13141 0.18095 0.0
N1186 N 0.75096 0.10078 0.26173 0.0
N1187 N 0.73927 0.12373 0.19637 0.0
H1188 H 0.27224 0.63778 0.33438 0.0
H1189 H 0.23258 0.58961 0.19593 0.0
H1190 H 0.32584 0.60884 0.27793 0.0
H1191 H 0.17689 0.61562 0.25196 0.0
H1192 H 0.26561 0.58765 0.22913 0.0
H1193 H 0.23605 0.62171 0.30818 0.0
C1194 C 0.27631 0.62735 0.3168 0.0
C1195 C 0.30189 0.62405 0.30845 0.0
C1196 C 0.2461 0.59342 0.23435 0.0
C1197 C 0.26095 0.60644 0.2781 0.0
C1198 C 0.22723 0.59453 0.21537 0.0
C1199 C 0.20214 0.60323 0.22118 0.0
C1200 C 0.24 0.60164 0.25926 0.0
C1201 C 0.19611 0.609 0.2467 0.0
C1202 C 0.25575 0.61823 0.30185 0.0
C1203 C 0.30635 0.61107 0.28531 0.0
N1204 N 0.21509 0.60864 0.26477 0.0
N1205 N 0.28608 0.60292 0.27084 0.0
H1206 H 0.31836 0.37813 0.75143 0.0
H1207 H 0.16698 0.38899 0.77898 0.0
H1208 H 0.26058 0.40179 0.69648 0.0
H1209 H 0.22114 0.35412 0.83158 0.0
H1210 H 0.20311 0.40488 0.75329 0.0
H1211 H 0.28527 0.37997 0.7851 0.0
C1212 C 0.29887 0.38429 0.74658 0.0
C1213 C 0.29201 0.38936 0.72112 0.0
C1214 C 0.20724 0.39423 0.77071 0.0
C1215 C 0.25426 0.39142 0.7593 0.0
C1216 C 0.18661 0.38546 0.78553 0.0
C1217 C 0.19125 0.37089 0.80768 0.0
C1218 C 0.23271 0.38752 0.77761 0.0
C1219 C 0.21693 0.36566 0.81473 0.0
C1220 C 0.28 0.38522 0.76575 0.0
C1221 C 0.26655 0.39728 0.71581 0.0
N1222 N 0.23679 0.37378 0.79958 0.0
N1223 N 0.24855 0.39778 0.73468 0.0
H1224 H 0.79706 0.74732 0.90336 0.0
H1225 H 0.65258 0.77615 0.85911 0.0
H1226 H 0.74449 0.68659 0.87882 0.0
H1227 H 0.70766 0.83459 0.88319 0.0
H1228 H 0.68232 0.74179 0.87427 0.0
H1229 H 0.76101 0.77806 0.90491 0.0
C1230 C 0.77781 0.74042 0.89853 0.0
C1231 C 0.77375 0.71459 0.89047 0.0
C1232 C 0.68755 0.76216 0.87687 0.0
C1233 C 0.7324 0.74976 0.89169 0.0
C1234 C 0.67061 0.78166 0.86827 0.0
C1235 C 0.67755 0.80808 0.87054 0.0
C1236 C 0.71172 0.76934 0.88717 0.0
C1237 C 0.70129 0.81442 0.88188 0.0
C1238 C 0.75719 0.75796 0.89945 0.0
C1239 C 0.74839 0.70649 0.88488 0.0
N1240 N 0.71757 0.79521 0.88963 0.0
N1241 N 0.72867 0.72419 0.8851 0.0
H1242 H 0.15731 0.71504 0.15052 0.0
H1243 H 0.29727 0.7487 0.09496 0.0
H1244 H 0.21218 0.65842 0.12208 0.0
H1245 H 0.24585 0.80772 0.12528 0.0
H1246 H 0.26232 0.71679 0.09729 0.0
H1247 H 0.18583 0.75047 0.13533 0.0
C1248 C 0.17514 0.71018 0.14064 0.0
C1249 C 0.18222 0.68398 0.13681 0.0
C1250 C 0.25847 0.73676 0.10321 0.0
C1251 C 0.21494 0.7239 0.12002 0.0
C1252 C 0.27844 0.75498 0.10183 0.0
C1253 C 0.27447 0.78069 0.11031 0.0
C1254 C 0.23448 0.74413 0.11371 0.0
C1255 C 0.24965 0.78797 0.11869 0.0
C1256 C 0.19134 0.73028 0.13198 0.0
C1257 C 0.20571 0.67845 0.1246 0.0
N1258 N 0.23063 0.7696 0.12066 0.0
N1259 N 0.22123 0.69822 0.11667 0.0
H1260 H 0.28095 0.33584 0.61995 0.0
H1261 H 0.24538 0.18428 0.6277 0.0
H1262 H 0.3336 0.2781 0.65015 0.0
H1263 H 0.19494 0.24489 0.5988 0.0
H1264 H 0.28099 0.21623 0.62939 0.0
H1265 H 0.25245 0.301 0.60534 0.0
C1266 C 0.28679 0.31566 0.62286 0.0
C1267 C 0.30994 0.30967 0.63544 0.0
C1268 C 0.26222 0.22237 0.62231 0.0
C1269 C 0.2767 0.26955 0.6202 0.0
C1270 C 0.24196 0.20415 0.62125 0.0
C1271 C 0.21715 0.21215 0.61352 0.0
C1272 C 0.25745 0.24857 0.61547 0.0
C1273 C 0.21368 0.23804 0.60533 0.0
C1274 C 0.2704 0.29574 0.61478 0.0
C1275 C 0.31604 0.28333 0.64003 0.0
N1276 N 0.23352 0.25534 0.60675 0.0
N1277 N 0.29939 0.26412 0.63251 0.0
H1278 H 0.74673 0.30798 0.37853 0.0
H1279 H 0.78374 0.15667 0.37781 0.0
H1280 H 0.69539 0.24488 0.39964 0.0
H1281 H 0.83688 0.2168 0.35357 0.0
H1282 H 0.75439 0.19011 0.39376 0.0
H1283 H 0.78286 0.27661 0.37692 0.0
C1284 C 0.74319 0.28764 0.3833 0.0
C1285 C 0.71803 0.27884 0.38878 0.0
C1286 C 0.77261 0.19619 0.38537 0.0
C1287 C 0.75895 0.24309 0.38694 0.0
C1288 C 0.7895 0.17704 0.37654 0.0
C1289 C 0.81301 0.18409 0.36518 0.0
C1290 C 0.77877 0.22274 0.38188 0.0
C1291 C 0.81902 0.21073 0.36269 0.0
C1292 C 0.76375 0.26977 0.3823 0.0
C1293 C 0.71442 0.25238 0.39488 0.0
N1294 N 0.80186 0.22922 0.37085 0.0
N1295 N 0.73458 0.23544 0.39355 0.0
H1296 H 0.09511 0.18497 0.53829 0.0
H1297 H 0.1634 0.11953 0.41941 0.0
H1298 H 0.16953 0.1466 0.54419 0.0
H1299 H 0.11714 0.18944 0.41047 0.0
H1300 H 0.16212 0.12547 0.46568 0.0
H1301 H 0.09876 0.18312 0.4915 0.0
C1302 C 0.11216 0.17617 0.52976 0.0
C1303 C 0.13204 0.1659 0.5451 0.0
C1304 C 0.15245 0.13963 0.45357 0.0
C1305 C 0.13614 0.16353 0.49196 0.0
C1306 C 0.15315 0.13626 0.42719 0.0
C1307 C 0.14045 0.1541 0.41111 0.0
C1308 C 0.13842 0.16062 0.464 0.0
C1309 C 0.12737 0.17539 0.42223 0.0
C1310 C 0.11429 0.17529 0.50315 0.0
C1311 C 0.1538 0.15485 0.53309 0.0
N1312 N 0.12638 0.17789 0.44809 0.0
N1313 N 0.15514 0.15371 0.50724 0.0
H1314 H 0.32914 0.80672 0.04 0.0
H1315 H 0.37942 0.88238 0.91799 0.0
H1316 H 0.3976 0.85532 0.04208 0.0
H1317 H 0.33964 0.80824 0.91154 0.0
H1318 H 0.38201 0.87626 0.9642 0.0
H1319 H 0.32875 0.81014 0.99338 0.0
C1320 C 0.34413 0.81807 0.03063 0.0
C1321 C 0.3634 0.83086 0.0449 0.0
C1322 C 0.37279 0.86132 0.95264 0.0
C1323 C 0.3628 0.83506 0.99172 0.0
C1324 C 0.3711 0.86487 0.92631 0.0
C1325 C 0.3592 0.84581 0.91091 0.0
C1326 C 0.36208 0.83881 0.96375 0.0
C1327 C 0.34901 0.82338 0.92272 0.0
C1328 C 0.34393 0.81989 0.00406 0.0
C1329 C 0.38245 0.84511 0.03178 0.0
N1330 N 0.35047 0.82059 0.94852 0.0
N1331 N 0.3815 0.8471 0.0059 0.0
H1332 H 0.6648 0.30464 0.45888 0.0
H1333 H 0.60821 0.37446 0.58173 0.0
H1334 H 0.59207 0.34657 0.45776 0.0
H1335 H 0.65512 0.30461 0.5876 0.0
H1336 H 0.60604 0.36831 0.53551 0.0
H1337 H 0.66522 0.30773 0.50557 0.0
C1338 C 0.64888 0.31442 0.46847 0.0
C1339 C 0.62839 0.32546 0.45445 0.0
C1340 C 0.61674 0.35431 0.54694 0.0
C1341 C 0.629 0.32931 0.50767 0.0
C1342 C 0.61818 0.35789 0.57328 0.0
C1343 C 0.63194 0.34004 0.58852 0.0
C1344 C 0.62956 0.33301 0.53566 0.0
C1345 C 0.64426 0.31879 0.57655 0.0
C1346 C 0.64911 0.31606 0.49507 0.0
C1347 C 0.60819 0.33773 0.46784 0.0
N1348 N 0.64297 0.31597 0.55073 0.0
N1349 N 0.60916 0.33962 0.49372 0.0
H1350 H 0.88248 0.61469 0.07955 0.0
H1351 H 0.82686 0.68729 0.95769 0.0
H1352 H 0.836 0.68478 0.0862 0.0
H1353 H 0.89876 0.64396 0.9558 0.0
H1354 H 0.82626 0.68326 0.00428 0.0
H1355 H 0.88461 0.62127 0.03337 0.0
C1356 C 0.87257 0.63138 0.07129 0.0
C1357 C 0.85898 0.6492 0.08675 0.0
C1358 C 0.84224 0.67482 0.99365 0.0
C1359 C 0.86136 0.65675 0.03394 0.0
C1360 C 0.84258 0.67702 0.9671 0.0
C1361 C 0.86288 0.66587 0.95289 0.0
C1362 C 0.86204 0.6609 0.00601 0.0
C1363 C 0.88281 0.65292 0.96605 0.0
C1364 C 0.874 0.63522 0.04497 0.0
C1365 C 0.84673 0.67061 0.07499 0.0
N1366 N 0.88174 0.65051 0.99189 0.0
N1367 N 0.84804 0.67369 0.04922 0.0
H1368 H 0.42339 0.14775 0.18751 0.0
H1369 H 0.55759 0.0934 0.13444 0.0
H1370 H 0.42935 0.1057 0.11613 0.0
H1371 H 0.55271 0.16367 0.1802 0.0
H1372 H 0.5101 0.09178 0.133 0.0
H1373 H 0.47086 0.14813 0.19043 0.0
C1374 C 0.43468 0.13856 0.17252 0.0
C1375 C 0.42249 0.12678 0.15149 0.0
C1376 C 0.51951 0.10751 0.14335 0.0
C1377 C 0.47645 0.12684 0.15492 0.0
C1378 C 0.54653 0.10837 0.14429 0.0
C1379 C 0.55903 0.12879 0.15732 0.0
C1380 C 0.50501 0.12688 0.15596 0.0
C1381 C 0.5438 0.14775 0.16972 0.0
C1382 C 0.46168 0.13887 0.17416 0.0
C1383 C 0.438 0.1152 0.13255 0.0
N1384 N 0.51754 0.14627 0.16883 0.0
N1385 N 0.46421 0.11537 0.13479 0.0
H1386 H 0.9405 0.82224 0.63818 0.0
H1387 H 0.07067 0.88748 0.68761 0.0
H1388 H 0.93982 0.89668 0.67745 0.0
H1389 H 0.06691 0.84222 0.61797 0.0
H1390 H 0.02317 0.88546 0.69063 0.0
H1391 H 0.98782 0.82384 0.63696 0.0
C1392 C 0.95033 0.8389 0.6466 0.0
C1393 C 0.93628 0.85941 0.65788 0.0
C1394 C 0.03289 0.87595 0.67478 0.0
C1395 C 0.99028 0.86111 0.65684 0.0
C1396 C 0.05989 0.87689 0.67314 0.0
C1397 C 0.07269 0.86497 0.65251 0.0
C1398 C 0.01879 0.86251 0.65598 0.0
C1399 C 0.05782 0.85172 0.63415 0.0
C1400 C 0.97727 0.83981 0.64582 0.0
C1401 C 0.94998 0.88058 0.66842 0.0
N1402 N 0.03165 0.85071 0.6364 0.0
N1403 N 0.97634 0.8808 0.66782 0.0
H1404 H 0.05528 0.4053 0.86032 0.0
H1405 H 0.92085 0.35417 0.80456 0.0
H1406 H 0.05029 0.33682 0.81206 0.0
H1407 H 0.92745 0.39173 0.87821 0.0
H1408 H 0.96835 0.35468 0.80089 0.0
H1409 H 0.0078 0.40779 0.86075 0.0
C1410 C 0.0442 0.39093 0.84969 0.0
C1411 C 0.05662 0.37068 0.83635 0.0
C1412 C 0.95927 0.36283 0.81778 0.0
C1413 C 0.00269 0.37363 0.8365 0.0
C1414 C 0.93228 0.36261 0.81984 0.0
C1415 C 0.92033 0.37272 0.8418 0.0
C1416 C 0.97417 0.37375 0.83754 0.0
C1417 C 0.93596 0.38345 0.8611 0.0
C1418 C 0.0172 0.3923 0.85002 0.0
C1419 C 0.04139 0.35254 0.82287 0.0
N1420 N 0.9621 0.38379 0.85847 0.0
N1421 N 0.01516 0.35447 0.82322 0.0
H1422 H 0.44006 0.59052 0.32138 0.0
H1423 H 0.56777 0.65286 0.37703 0.0
H1424 H 0.44154 0.66882 0.35269 0.0
H1425 H 0.57099 0.60188 0.31124 0.0
H1426 H 0.52072 0.65496 0.37277 0.0
H1427 H 0.4877 0.59004 0.32191 0.0
C1428 C 0.45039 0.60755 0.3284 0.0
C1429 C 0.4369 0.62974 0.33705 0.0
C1430 C 0.53176 0.64349 0.35915 0.0
C1431 C 0.49096 0.62916 0.33788 0.0
C1432 C 0.55859 0.64224 0.36157 0.0
C1433 C 0.57328 0.62727 0.34437 0.0
C1434 C 0.51946 0.62914 0.33981 0.0
C1435 C 0.56033 0.61382 0.32476 0.0
C1436 C 0.47747 0.60731 0.3285 0.0
C1437 C 0.45119 0.65135 0.34578 0.0
N1438 N 0.53402 0.61479 0.32317 0.0
N1439 N 0.47746 0.65042 0.34622 0.0
H1440 H 0.15343 0.40938 0.1495 0.0
H1441 H 0.16096 0.55223 0.08809 0.0
H1442 H 0.20227 0.42825 0.08507 0.0
H1443 H 0.14025 0.53893 0.16699 0.0
H1444 H 0.16803 0.50516 0.08287 0.0
H1445 H 0.14085 0.45555 0.15245 0.0
C1446 C 0.16141 0.42319 0.13591 0.0
C1447 C 0.17905 0.415 0.1171 0.0
C1448 C 0.16177 0.5126 0.10126 0.0
C1449 C 0.1645 0.46762 0.12023 0.0
C1450 C 0.15757 0.53942 0.10423 0.0
C1451 C 0.15024 0.54958 0.1281 0.0
C1452 C 0.15825 0.49579 0.12217 0.0
C1453 C 0.14615 0.53198 0.14832 0.0
C1454 C 0.15426 0.4495 0.13766 0.0
C1455 C 0.18881 0.43375 0.10002 0.0
N1456 N 0.15026 0.50593 0.14491 0.0
N1457 N 0.18134 0.4592 0.10195 0.0
H1458 H 0.62942 0.95006 0.8973 0.0
H1459 H 0.72563 0.06433 0.86555 0.0
H1460 H 0.68124 0.94459 0.83276 0.0
H1461 H 0.64617 0.08225 0.88478 0.0
H1462 H 0.71367 0.01808 0.86078 0.0
H1463 H 0.63891 -0.00279 0.90016 0.0
C1464 C 0.64265 0.95883 0.8837 0.0
C1465 C 0.65449 0.9436 0.86469 0.0
C1466 C 0.69892 0.03224 0.86598 0.0
C1467 C 0.66582 -0.00321 0.86831 0.0
C1468 C 0.70571 0.0585 0.86881 0.0
C1469 C 0.68679 0.07703 0.87542 0.0
C1470 C 0.67326 0.02448 0.87053 0.0
C1471 C 0.66124 0.06851 0.87944 0.0
C1472 C 0.64796 0.98559 0.88531 0.0
C1473 C 0.67153 0.95578 0.84752 0.0
N1474 N 0.65522 0.0427 0.87721 0.0
N1475 N 0.677 0.98166 0.84996 0.0
H1476 H 0.82822 0.05041 0.40448 0.0
H1477 H 0.83615 0.90917 0.3415 0.0
H1478 H 0.85197 0.04062 0.32588 0.0
H1479 H 0.77983 0.93017 0.39906 0.0
H1480 H 0.84898 0.95545 0.33861 0.0
H1481 H 0.81823 0.0038 0.40651 0.0
C1482 C 0.83163 0.03845 0.38772 0.0
C1483 C 0.84075 0.04951 0.36489 0.0
C1484 C 0.83375 0.94979 0.35174 0.0
C1485 C 0.82937 0.99614 0.36721 0.0
C1486 C 0.82644 0.9235 0.35342 0.0
C1487 C 0.80684 0.91588 0.37049 0.0
C1488 C 0.82177 0.96832 0.36766 0.0
C1489 C 0.79487 0.93519 0.3855 0.0
C1490 C 0.82574 0.01188 0.38887 0.0
C1491 C 0.84476 0.03293 0.34379 0.0
N1492 N 0.8027 0.96049 0.3839 0.0
N1493 N 0.83905 0.00699 0.34545 0.0
H1494 H 0.33288 0.44177 0.58795 0.0
H1495 H 0.34021 0.58388 0.65128 0.0
H1496 H 0.35321 0.45399 0.66714 0.0
H1497 H 0.29179 0.56573 0.58632 0.0
H1498 H 0.35274 0.53764 0.65377 0.0
H1499 H 0.32597 0.48891 0.58335 0.0
C1500 C 0.33623 0.45436 0.60429 0.0
C1501 C 0.34339 0.44387 0.62805 0.0
C1502 C 0.33943 0.54387 0.63897 0.0
C1503 C 0.33555 0.49775 0.62283 0.0
C1504 C 0.3323 0.57021 0.63749 0.0
C1505 C 0.31479 0.57862 0.61866 0.0
C1506 C 0.3293 0.52595 0.62124 0.0
C1507 C 0.30513 0.56005 0.6013 0.0
C1508 C 0.33212 0.48123 0.60166 0.0
C1509 C 0.34743 0.46119 0.64854 0.0
N1510 N 0.31258 0.53459 0.60296 0.0
N1511 N 0.3434 0.48731 0.64547 0.0
H1512 H 0.79908 0.88193 0.46236 0.0
H1513 H 0.85438 0.80704 0.58306 0.0
H1514 H 0.83887 0.80807 0.45384 0.0
H1515 H 0.84328 0.89093 0.58022 0.0
H1516 H 0.84664 0.80506 0.53675 0.0
H1517 H 0.81296 0.88388 0.50676 0.0
C1518 C 0.81094 0.86618 0.46988 0.0
C1519 C 0.81785 0.8448 0.45453 0.0
C1520 C 0.84615 0.82385 0.54637 0.0
C1521 C 0.83351 0.84667 0.50551 0.0
C1522 C 0.8504 0.825 0.57277 0.0
C1523 C 0.84931 0.84917 0.58565 0.0
C1524 C 0.84042 0.84696 0.53294 0.0
C1525 C 0.84427 0.87183 0.57126 0.0
C1526 C 0.81892 0.86733 0.4952 0.0
C1527 C 0.83332 0.82496 0.46512 0.0
N1528 N 0.83981 0.87011 0.54581 0.0
N1529 N 0.84039 0.82617 0.49019 0.0
H1530 H 0.71961 0.16471 0.97228 0.0
H1531 H 0.61909 0.11856 0.07247 0.0
H1532 H 0.64099 0.15004 0.94781 0.0
H1533 H 0.67245 0.18082 0.09095 0.0
H1534 H 0.6283 0.12531 0.02694 0.0
H1535 H 0.70478 0.16624 0.01645 0.0
C1536 C 0.69918 0.16205 0.97613 0.0
C1537 C 0.68147 0.1574 0.95626 0.0
C1538 C 0.63766 0.13771 0.04099 0.0
C1539 C 0.6646 0.15843 0.00691 0.0
C1540 C 0.63256 0.13379 0.06688 0.0
C1541 C 0.64514 0.14912 0.08537 0.0
C1542 C 0.65602 0.1565 0.03371 0.0
C1543 C 0.66232 0.16868 0.07723 0.0
C1544 C 0.69076 0.16302 0.00136 0.0
C1545 C 0.65524 0.15384 0.96254 0.0
N1546 N 0.66767 0.17149 0.05195 0.0
N1547 N 0.64761 0.15397 0.98744 0.0
H1548 H 0.33239 0.68403 0.40569 0.0
H1549 H 0.35562 0.63622 0.54923 0.0
H1550 H 0.37071 0.61102 0.4235 0.0
H1551 H 0.29008 0.68288 0.52589 0.0
H1552 H 0.37018 0.63466 0.50441 0.0
H1553 H 0.3255 0.69145 0.45135 0.0
C1554 C 0.33959 0.66968 0.41919 0.0
C1555 C 0.35191 0.64673 0.41076 0.0
C1556 C 0.3528 0.6455 0.50928 0.0
C1557 C 0.34433 0.6553 0.46294 0.0
C1558 C 0.34464 0.64655 0.53475 0.0
C1559 C 0.32155 0.65954 0.54107 0.0
C1560 C 0.338 0.65801 0.49033 0.0
C1561 C 0.30781 0.67243 0.5217 0.0
C1562 C 0.33559 0.67393 0.44521 0.0
C1563 C 0.36083 0.62882 0.42916 0.0
N1564 N 0.31624 0.67135 0.49719 0.0
N1565 N 0.35684 0.63347 0.45444 0.0
H1566 H 0.13703 0.35345 0.04835 0.0
H1567 H 0.1617 0.31053 0.90358 0.0
H1568 H 0.20619 0.31336 0.02341 0.0
H1569 H 0.12101 0.38161 0.92352 0.0
H1570 H 0.16908 0.30213 0.94913 0.0
H1571 H 0.12189 0.35452 0.00374 0.0
C1572 C 0.14874 0.34443 0.03357 0.0
C1573 C 0.17297 0.3335 0.03941 0.0
C1574 C 0.1583 0.3194 0.94344 0.0
C1575 C 0.15578 0.33437 0.9889 0.0
C1576 C 0.15403 0.32417 0.91754 0.0
C1577 C 0.141 0.34695 0.90982 0.0
C1578 C 0.14902 0.33726 0.96168 0.0
C1579 C 0.13147 0.364 0.92869 0.0
C1580 C 0.1402 0.34518 0.00823 0.0
C1581 C 0.18754 0.32223 0.01964 0.0
N1582 N 0.13569 0.35882 0.95381 0.0
N1583 N 0.17874 0.32295 0.99524 0.0
H1584 H 0.56353 0.88539 0.88512 0.0
H1585 H 0.44385 0.82163 0.81462 0.0
H1586 H 0.57411 0.83955 0.81654 0.0
H1587 H 0.43843 0.89575 0.85415 0.0
H1588 H 0.49122 0.82366 0.81847 0.0
H1589 H 0.51674 0.88486 0.87792 0.0
C1590 C 0.55598 0.87513 0.86859 0.0
C1591 C 0.57266 0.86247 0.85139 0.0
C1592 C 0.47958 0.83952 0.82608 0.0
C1593 C 0.51927 0.86169 0.8432 0.0
C1594 C 0.45263 0.83836 0.82399 0.0
C1595 C 0.43724 0.85854 0.83414 0.0
C1596 C 0.49105 0.8607 0.83889 0.0
C1597 C 0.44957 0.87982 0.84598 0.0
C1598 C 0.52934 0.87501 0.86442 0.0
C1599 C 0.56187 0.84964 0.83018 0.0
N1600 N 0.47577 0.88019 0.8483 0.0
N1601 N 0.53574 0.84935 0.82677 0.0
H1602 H 0.91974 0.1536 0.31494 0.0
H1603 H 0.05695 0.10187 0.36275 0.0
H1604 H 0.92965 0.11203 0.38611 0.0
H1605 H 0.04916 0.17086 0.31563 0.0
H1606 H 0.00966 0.0997 0.36629 0.0
H1607 H 0.96699 0.15476 0.30989 0.0
C1608 C 0.93184 0.14468 0.32945 0.0
C1609 C 0.92081 0.13278 0.35101 0.0
C1610 C 0.01838 0.11527 0.35517 0.0
C1611 C 0.97457 0.13375 0.34518 0.0
C1612 C 0.04529 0.11645 0.35302 0.0
C1613 C 0.05696 0.13665 0.33898 0.0
C1614 C 0.00307 0.13414 0.34281 0.0
C1615 C 0.04094 0.15509 0.32682 0.0
C1616 C 0.95873 0.14544 0.32659 0.0
C1617 C 0.93737 0.12159 0.36929 0.0
N1618 N 0.01476 0.15333 0.32893 0.0
N1619 N 0.96344 0.1222 0.36587 0.0
H1620 H 0.07492 0.61554 0.18578 0.0
H1621 H 0.94178 0.6788 0.14138 0.0
H1622 H 0.06742 0.65684 0.11418 0.0
H1623 H 0.9443 0.60521 0.18194 0.0
H1624 H 0.98918 0.67805 0.13832 0.0
H1625 H 0.02782 0.61859 0.19157 0.0
C1626 C 0.06341 0.62545 0.17142 0.0
C1627 C 0.07505 0.63594 0.14945 0.0
C1628 C 0.97928 0.66217 0.14797 0.0
C1629 C 0.02153 0.63972 0.15615 0.0
C1630 C 0.95233 0.66263 0.14985 0.0
C1631 C 0.93917 0.64197 0.16185 0.0
C1632 C 0.99312 0.64121 0.15865 0.0
C1633 C 0.95374 0.6214 0.17237 0.0
C1634 C 0.03661 0.62704 0.17468 0.0
C1635 C 0.05922 0.64841 0.13134 0.0
N1636 N 0.98003 0.6216 0.17065 0.0
N1637 N 0.03324 0.65011 0.13517 0.0
H1638 H 0.42496 0.33537 0.61245 0.0
H1639 H 0.54899 0.38689 0.68432 0.0
H1640 H 0.4183 0.37665 0.6842 0.0
H1641 H 0.5496 0.3132 0.64375 0.0
H1642 H 0.50159 0.38805 0.68051 0.0
H1643 H 0.47176 0.33154 0.61938 0.0
C1644 C 0.43333 0.34357 0.62967 0.0
C1645 C 0.41776 0.35627 0.64784 0.0
C1646 C 0.51217 0.37157 0.67265 0.0
C1647 C 0.4711 0.35234 0.65556 0.0
C1648 C 0.53913 0.37094 0.67471 0.0
C1649 C 0.55313 0.3499 0.66434 0.0
C1650 C 0.49934 0.35138 0.65958 0.0
C1651 C 0.53947 0.32968 0.65214 0.0
C1652 C 0.45995 0.34128 0.63363 0.0
C1653 C 0.42961 0.36655 0.66981 0.0
N1654 N 0.5133 0.33108 0.6498 0.0
N1655 N 0.45568 0.36463 0.67295 0.0
H1656 H 0.81729 0.59044 0.85031 0.0
H1657 H 0.8651 0.45018 0.89652 0.0
H1658 H 0.88912 0.57941 0.89134 0.0
H1659 H 0.82086 0.46093 0.82727 0.0
H1660 H 0.86767 0.4979 0.90131 0.0
H1661 H 0.81221 0.54278 0.84786 0.0
C1662 C 0.83192 0.57798 0.85887 0.0
C1663 C 0.85372 0.58879 0.87095 0.0
C1664 C 0.85734 0.48971 0.88516 0.0
C1665 C 0.84781 0.53461 0.86852 0.0
C1666 C 0.85572 0.46258 0.8825 0.0
C1667 C 0.84288 0.45171 0.86139 0.0
C1668 C 0.8456 0.50591 0.86687 0.0
C1669 C 0.83115 0.4686 0.84369 0.0
C1670 C 0.82904 0.55089 0.85739 0.0
C1671 C 0.87215 0.57182 0.88166 0.0
N1672 N 0.83272 0.49493 0.84686 0.0
N1673 N 0.86871 0.54549 0.88033 0.0
H1674 H 0.31823 0.90893 0.11012 0.0
H1675 H 0.36879 0.03909 0.17546 0.0
H1676 H 0.39244 0.91292 0.14813 0.0
H1677 H 0.32558 0.04174 0.10486 0.0
H1678 H 0.37128 0.99138 0.17172 0.0
H1679 H 0.3144 0.95674 0.11389 0.0
C1680 C 0.33361 0.91982 0.1194 0.0
C1681 C 0.35568 0.90698 0.12888 0.0
C1682 C 0.36124 0.00246 0.1571 0.0
C1683 C 0.35122 0.96125 0.13346 0.0
C1684 C 0.35968 0.0296 0.15926 0.0
C1685 C 0.347 0.04432 0.1404 0.0
C1686 C 0.34955 0.98993 0.13624 0.0
C1687 C 0.33567 0.03107 0.11972 0.0
C1688 C 0.33146 0.94702 0.12138 0.0
C1689 C 0.37513 0.92203 0.14053 0.0
N1690 N 0.33704 0.0045 0.11826 0.0
N1691 N 0.37234 0.94838 0.1427 0.0
H1692 H 0.1676 0.95976 0.67085 0.0
H1693 H 0.09733 0.08054 0.60511 0.0
H1694 H 0.12207 0.95067 0.60218 0.0
H1695 H 0.16744 0.08864 0.64952 0.0
H1696 H 0.10179 0.03277 0.60761 0.0
H1697 H 0.16357 0.00724 0.66697 0.0
C1698 C 0.15675 0.96777 0.65494 0.0
C1699 C 0.14511 0.95128 0.63681 0.0
C1700 C 0.11618 0.04509 0.61672 0.0
C1701 C 0.14026 0.00554 0.63245 0.0
C1702 C 0.11358 0.07228 0.61546 0.0
C1703 C 0.13206 0.08856 0.62712 0.0
C1704 C 0.13713 0.03419 0.63012 0.0
C1705 C 0.15282 0.07683 0.64015 0.0
C1706 C 0.15456 0.99485 0.6527 0.0
C1707 C 0.13143 0.96272 0.61649 0.0
N1708 N 0.1547 0.05035 0.64144 0.0
N1709 N 0.12917 0.98923 0.61497 0.0
H1710 H 0.6725 0.40271 0.35378 0.0
H1711 H 0.62096 0.54285 0.39678 0.0
H1712 H 0.59877 0.41266 0.3917 0.0
H1713 H 0.67012 0.53158 0.3309 0.0
H1714 H 0.61755 0.49509 0.40126 0.0
H1715 H 0.67681 0.45035 0.35123 0.0
C1716 C 0.65726 0.41492 0.36164 0.0
C1717 C 0.6352 0.40376 0.3729 0.0
C1718 C 0.62907 0.50319 0.38588 0.0
C1719 C 0.64017 0.4581 0.37027 0.0
C1720 C 0.63115 0.53034 0.3834 0.0
C1721 C 0.64573 0.5411 0.36337 0.0
C1722 C 0.64211 0.48685 0.36853 0.0
C1723 C 0.65849 0.52406 0.34648 0.0
C1724 C 0.6597 0.44205 0.36009 0.0
C1725 C 0.61599 0.4205 0.38269 0.0
N1726 N 0.65647 0.49775 0.34951 0.0
N1727 N 0.61899 0.4469 0.38129 0.0
loop_
_geom_bond_atom_site_label_1
_geom_bond_atom_site_label_2
_geom_bond_distance
_geom_bond_site_symmetry_2
_ccdc_geom_bond_type
Mn0 O5 2.095 . S
Mn0 O15 2.162 . S
Mn0 O16 2.297 . S
Mn0 O24 2.385 . S
Mn0 O25 2.209 . S
Mn0 O26 2.094 . S
Mn1 O6 2.121 . S
Mn1 N8 2.257 . S
Mn1 N17 2.282 . S
Mn1 O25 2.215 . S
Mn1 O27 2.117 . S
C2 O24 1.234 . S
C2 O25 1.283 . S
C3 O15 1.281 . S
C3 O16 1.236 . S
C4 O26 1.240 . S
C4 O27 1.264 . S
O5 Mn0 2.095 . S
O5 C14 1.250 . S
O6 Mn1 2.121 . S
O6 C14 1.258 . S
C7 N8 1.326 . S
C7 C11 1.460 . S
C7 H13 0.929 . S
N8 Mn1 2.257 . S
N8 C7 1.326 . S
N8 C12 1.362 . S
C9 C10 1.258 . S
C9 C12 1.431 . S
C9 C29 1.449 . S
C10 C9 1.258 . S
C10 C11 1.477 . S
C10 H30 0.931 . S
C11 C7 1.460 . S
C11 C10 1.477 . S
C11 H31 0.930 . S
C12 N8 1.362 . S
C12 C9 1.431 . S
C12 C22 1.476 . S
H13 C7 0.929 . S
C14 O5 1.250 . S
C14 O6 1.258 . S
O15 Mn0 2.162 . S
O15 C3 1.281 . S
O16 Mn0 2.297 . S
O16 C3 1.236 . S
N17 Mn1 2.282 . S
N17 C18 1.328 . S
N17 C22 1.318 . S
C18 N17 1.328 . S
C18 C19 1.457 . S
C18 H23 0.929 . S
C19 C18 1.457 . S
C19 C20 1.291 . S
C19 H32 0.931 . S
C20 C19 1.291 . S
C20 C21 1.373 . S
C20 H33 0.929 . S
C21 C20 1.373 . S
C21 C22 1.396 . S
C21 C28 1.403 . S
C22 C12 1.476 . S
C22 N17 1.318 . S
C22 C21 1.396 . S
H23 C18 0.929 . S
O24 Mn0 2.385 . S
O24 C2 1.234 . S
O25 Mn0 2.209 . S
O25 Mn1 2.215 . S
O25 C2 1.283 . S
O26 Mn0 2.094 . S
O26 C4 1.240 . S
O27 Mn1 2.117 . S
O27 C4 1.264 . S
C28 C21 1.403 . S
C28 C29 1.399 . S
C28 H34 0.929 . S
C29 C9 1.449 . S
C29 C28 1.399 . S
C29 H35 0.930 . S
H30 C10 0.931 . S
H31 C11 0.930 . S
H32 C19 0.931 . S
H33 C20 0.929 . S
H34 C28 0.929 . S
H35 C29 0.930 . S
Mn36 O41 2.095 . S
Mn36 O51 2.162 . S
Mn36 O52 2.297 . S
Mn36 O60 2.385 . S
Mn36 O61 2.209 . S
Mn36 O62 2.094 . S
Mn37 O42 2.121 . S
Mn37 N44 2.257 . S
Mn37 N53 2.282 . S
Mn37 O61 2.215 . S
Mn37 O63 2.117 . S
C38 O60 1.234 . S
C38 O61 1.283 . S
C39 O51 1.281 . S
C39 O52 1.236 . S
C40 O62 1.240 . S
C40 O63 1.264 . S
O41 Mn36 2.095 . S
O41 C50 1.250 . S
O42 Mn37 2.121 . S
O42 C50 1.258 . S
C43 N44 1.326 . S
C43 C47 1.460 . S
C43 H49 0.929 . S
N44 Mn37 2.257 . S
N44 C43 1.326 . S
N44 C48 1.362 . S
C45 C46 1.258 . S
C45 C48 1.431 . S
C45 C65 1.449 . S
C46 C45 1.258 . S
C46 C47 1.477 . S
C46 H66 0.931 . S
C47 C43 1.460 . S
C47 C46 1.477 . S
C47 H67 0.930 . S
C48 N44 1.362 . S
C48 C45 1.431 . S
C48 C58 1.476 . S
H49 C43 0.929 . S
C50 O41 1.250 . S
C50 O42 1.258 . S
O51 Mn36 2.162 . S
O51 C39 1.281 . S
O52 Mn36 2.297 . S
O52 C39 1.236 . S
N53 Mn37 2.282 . S
N53 C54 1.328 . S
N53 C58 1.318 . S
C54 N53 1.328 . S
C54 C55 1.457 . S
C54 H59 0.929 . S
C55 C54 1.457 . S
C55 C56 1.291 . S
C55 H68 0.931 . S
C56 C55 1.291 . S
C56 C57 1.373 . S
C56 H69 0.929 . S
C57 C56 1.373 . S
C57 C58 1.396 . S
C57 C64 1.403 . S
C58 C48 1.476 . S
C58 N53 1.318 . S
C58 C57 1.396 . S
H59 C54 0.929 . S
O60 Mn36 2.385 . S
O60 C38 1.234 . S
O61 Mn36 2.209 . S
O61 Mn37 2.215 . S
O61 C38 1.283 . S
O62 Mn36 2.094 . S
O62 C40 1.240 . S
O63 Mn37 2.117 . S
O63 C40 1.264 . S
C64 C57 1.403 . S
C64 C65 1.399 . S
C64 H70 0.929 . S
C65 C45 1.449 . S
C65 C64 1.399 . S
C65 H71 0.930 . S
H66 C46 0.931 . S
H67 C47 0.930 . S
H68 C55 0.931 . S
H69 C56 0.929 . S
H70 C64 0.929 . S
H71 C65 0.930 . S
Mn72 O77 2.095 . S
Mn72 O87 2.162 . S
Mn72 O88 2.297 . S
Mn72 O96 2.385 . S
Mn72 O97 2.209 . S
Mn72 O98 2.094 . S
Mn73 O78 2.121 . S
Mn73 N80 2.257 . S
Mn73 N89 2.282 . S
Mn73 O97 2.215 . S
Mn73 O99 2.117 . S
C74 O96 1.234 . S
C74 O97 1.283 . S
C75 O87 1.281 . S
C75 O88 1.236 . S
C76 O98 1.240 . S
C76 O99 1.264 . S
O77 Mn72 2.095 . S
O77 C86 1.250 . S
O78 Mn73 2.121 . S
O78 C86 1.258 . S
C79 N80 1.326 . S
C79 C83 1.460 . S
C79 H85 0.929 . S
N80 Mn73 2.257 . S
N80 C79 1.326 . S
N80 C84 1.362 . S
C81 C82 1.258 . S
C81 C84 1.431 . S
C81 C101 1.449 . S
C82 C81 1.258 . S
C82 C83 1.477 . S
C82 H102 0.931 . S
C83 C79 1.460 . S
C83 C82 1.477 . S
C83 H103 0.930 . S
C84 N80 1.362 . S
C84 C81 1.431 . S
C84 C94 1.476 . S
H85 C79 0.929 . S
C86 O77 1.250 . S
C86 O78 1.258 . S
O87 Mn72 2.162 . S
O87 C75 1.281 . S
O88 Mn72 2.297 . S
O88 C75 1.236 . S
N89 Mn73 2.282 . S
N89 C90 1.328 . S
N89 C94 1.318 . S
C90 N89 1.328 . S
C90 C91 1.457 . S
C90 H95 0.929 . S
C91 C90 1.457 . S
C91 C92 1.291 . S
C91 H104 0.931 . S
C92 C91 1.291 . S
C92 C93 1.373 . S
C92 H105 0.929 . S
C93 C92 1.373 . S
C93 C94 1.396 . S
C93 C100 1.403 . S
C94 C84 1.476 . S
C94 N89 1.318 . S
C94 C93 1.396 . S
H95 C90 0.929 . S
O96 Mn72 2.385 . S
O96 C74 1.234 . S
O97 Mn72 2.209 . S
O97 Mn73 2.215 . S
O97 C74 1.283 . S
O98 Mn72 2.094 . S
O98 C76 1.240 . S
O99 Mn73 2.117 . S
O99 C76 1.264 . S
C100 C93 1.403 . S
C100 C101 1.399 . S
C100 H106 0.929 . S
C101 C81 1.449 . S
C101 C100 1.399 . S
C101 H107 0.930 . S
H102 C82 0.931 . S
H103 C83 0.930 . S
H104 C91 0.931 . S
H105 C92 0.929 . S
H106 C100 0.929 . S
H107 C101 0.930 . S
Mn108 O113 2.095 . S
Mn108 O123 2.162 . S
Mn108 O124 2.297 . S
Mn108 O132 2.385 . S
Mn108 O133 2.209 . S
Mn108 O134 2.094 . S
Mn109 O114 2.121 . S
Mn109 N116 2.257 . S
Mn109 N125 2.282 . S
Mn109 O133 2.215 . S
Mn109 O135 2.117 . S
C110 O132 1.234 . S
C110 O133 1.283 . S
C111 O123 1.281 . S
C111 O124 1.236 . S
C112 O134 1.240 . S
C112 O135 1.264 . S
O113 Mn108 2.095 . S
O113 C122 1.250 . S
O114 Mn109 2.121 . S
O114 C122 1.258 . S
C115 N116 1.326 . S
C115 C119 1.460 . S
C115 H121 0.929 . S
N116 Mn109 2.257 . S
N116 C115 1.326 . S
N116 C120 1.362 . S
C117 C118 1.258 . S
C117 C120 1.431 . S
C117 C137 1.449 . S
C118 C117 1.258 . S
C118 C119 1.477 . S
C118 H138 0.931 . S
C119 C115 1.460 . S
C119 C118 1.477 . S
C119 H139 0.930 . S
C120 N116 1.362 . S
C120 C117 1.431 . S
C120 C130 1.476 . S
H121 C115 0.929 . S
C122 O113 1.250 . S
C122 O114 1.258 . S
O123 Mn108 2.162 . S
O123 C111 1.281 . S
O124 Mn108 2.297 . S
O124 C111 1.236 . S
N125 Mn109 2.282 . S
N125 C126 1.328 . S
N125 C130 1.318 . S
C126 N125 1.328 . S
C126 C127 1.457 . S
C126 H131 0.929 . S
C127 C126 1.457 . S
C127 C128 1.291 . S
C127 H140 0.931 . S
C128 C127 1.291 . S
C128 C129 1.373 . S
C128 H141 0.929 . S
C129 C128 1.373 . S
C129 C130 1.396 . S
C129 C136 1.403 . S
C130 C120 1.476 . S
C130 N125 1.318 . S
C130 C129 1.396 . S
H131 C126 0.929 . S
O132 Mn108 2.385 . S
O132 C110 1.234 . S
O133 Mn108 2.209 . S
O133 Mn109 2.215 . S
O133 C110 1.283 . S
O134 Mn108 2.094 . S
O134 C112 1.240 . S
O135 Mn109 2.117 . S
O135 C112 1.264 . S
C136 C129 1.403 . S
C136 C137 1.399 . S
C136 H142 0.929 . S
C137 C117 1.449 . S
C137 C136 1.399 . S
C137 H143 0.930 . S
H138 C118 0.931 . S
H139 C119 0.930 . S
H140 C127 0.931 . S
H141 C128 0.929 . S
H142 C136 0.929 . S
H143 C137 0.930 . S
Mn144 O149 2.095 . S
Mn144 O159 2.162 . S
Mn144 O160 2.297 . S
Mn144 O168 2.385 . S
Mn144 O169 2.209 . S
Mn144 O170 2.094 . S
Mn145 O150 2.121 . S
Mn145 N152 2.257 . S
Mn145 N161 2.282 . S
Mn145 O169 2.215 . S
Mn145 O171 2.117 . S
C146 O168 1.234 . S
C146 O169 1.283 . S
C147 O159 1.281 . S
C147 O160 1.236 . S
C148 O170 1.240 . S
C148 O171 1.264 . S
O149 Mn144 2.095 . S
O149 C158 1.250 . S
O150 Mn145 2.121 . S
O150 C158 1.258 . S
C151 N152 1.326 . S
C151 C155 1.460 . S
C151 H157 0.929 . S
N152 Mn145 2.257 . S
N152 C151 1.326 . S
N152 C156 1.362 . S
C153 C154 1.258 . S
C153 C156 1.431 . S
C153 C173 1.449 . S
C154 C153 1.258 . S
C154 C155 1.477 . S
C154 H174 0.931 . S
C155 C151 1.460 . S
C155 C154 1.477 . S
C155 H175 0.930 . S
C156 N152 1.362 . S
C156 C153 1.431 . S
C156 C166 1.476 . S
H157 C151 0.929 . S
C158 O149 1.250 . S
C158 O150 1.258 . S
O159 Mn144 2.162 . S
O159 C147 1.281 . S
O160 Mn144 2.297 . S
O160 C147 1.236 . S
N161 Mn145 2.282 . S
N161 C162 1.328 . S
N161 C166 1.318 . S
C162 N161 1.328 . S
C162 C163 1.457 . S
C162 H167 0.929 . S
C163 C162 1.457 . S
C163 C164 1.291 . S
C163 H176 0.931 . S
C164 C163 1.291 . S
C164 C165 1.373 . S
C164 H177 0.929 . S
C165 C164 1.373 . S
C165 C166 1.396 . S
C165 C172 1.403 . S
C166 C156 1.476 . S
C166 N161 1.318 . S
C166 C165 1.396 . S
H167 C162 0.929 . S
O168 Mn144 2.385 . S
O168 C146 1.234 . S
O169 Mn144 2.209 . S
O169 Mn145 2.215 . S
O169 C146 1.283 . S
O170 Mn144 2.094 . S
O170 C148 1.240 . S
O171 Mn145 2.117 . S
O171 C148 1.264 . S
C172 C165 1.403 . S
C172 C173 1.399 . S
C172 H178 0.929 . S
C173 C153 1.449 . S
C173 C172 1.399 . S
C173 H179 0.930 . S
H174 C154 0.931 . S
H175 C155 0.930 . S
H176 C163 0.931 . S
H177 C164 0.929 . S
H178 C172 0.929 . S
H179 C173 0.930 . S
Mn180 O185 2.095 . S
Mn180 O195 2.162 . S
Mn180 O196 2.297 . S
Mn180 O204 2.385 . S
Mn180 O205 2.209 . S
Mn180 O206 2.094 . S
Mn181 O186 2.121 . S
Mn181 N188 2.257 . S
Mn181 N197 2.282 . S
Mn181 O205 2.215 . S
Mn181 O207 2.117 . S
C182 O204 1.234 . S
C182 O205 1.283 . S
C183 O195 1.281 . S
C183 O196 1.236 . S
C184 O206 1.240 . S
C184 O207 1.264 . S
O185 Mn180 2.095 . S
O185 C194 1.250 . S
O186 Mn181 2.121 . S
O186 C194 1.258 . S
C187 N188 1.326 . S
C187 C191 1.460 . S
C187 H193 0.929 . S
N188 Mn181 2.257 . S
N188 C187 1.326 . S
N188 C192 1.362 . S
C189 C190 1.258 . S
C189 C192 1.431 . S
C189 C209 1.449 . S
C190 C189 1.258 . S
C190 C191 1.477 . S
C190 H210 0.931 . S
C191 C187 1.460 . S
C191 C190 1.477 . S
C191 H211 0.930 . S
C192 N188 1.362 . S
C192 C189 1.431 . S
C192 C202 1.476 . S
H193 C187 0.929 . S
C194 O185 1.250 . S
C194 O186 1.258 . S
O195 Mn180 2.162 . S
O195 C183 1.281 . S
O196 Mn180 2.297 . S
O196 C183 1.236 . S
N197 Mn181 2.282 . S
N197 C198 1.328 . S
N197 C202 1.318 . S
C198 N197 1.328 . S
C198 C199 1.457 . S
C198 H203 0.929 . S
C199 C198 1.457 . S
C199 C200 1.291 . S
C199 H212 0.931 . S
C200 C199 1.291 . S
C200 C201 1.373 . S
C200 H213 0.929 . S
C201 C200 1.373 . S
C201 C202 1.396 . S
C201 C208 1.403 . S
C202 C192 1.476 . S
C202 N197 1.318 . S
C202 C201 1.396 . S
H203 C198 0.929 . S
O204 Mn180 2.385 . S
O204 C182 1.234 . S
O205 Mn180 2.209 . S
O205 Mn181 2.215 . S
O205 C182 1.283 . S
O206 Mn180 2.094 . S
O206 C184 1.240 . S
O207 Mn181 2.117 . S
O207 C184 1.264 . S
C208 C201 1.403 . S
C208 C209 1.399 . S
C208 H214 0.929 . S
C209 C189 1.449 . S
C209 C208 1.399 . S
C209 H215 0.930 . S
H210 C190 0.931 . S
H211 C191 0.930 . S
H212 C199 0.931 . S
H213 C200 0.929 . S
H214 C208 0.929 . S
H215 C209 0.930 . S
Mn216 O221 2.095 . S
Mn216 O231 2.162 . S
Mn216 O232 2.297 . S
Mn216 O240 2.385 . S
Mn216 O241 2.209 . S
Mn216 O242 2.094 . S
Mn217 O222 2.121 . S
Mn217 N224 2.257 . S
Mn217 N233 2.282 . S
Mn217 O241 2.215 . S
Mn217 O243 2.117 . S
C218 O240 1.234 . S
C218 O241 1.283 . S
C219 O231 1.281 . S
C219 O232 1.236 . S
C220 O242 1.240 . S
C220 O243 1.264 . S
O221 Mn216 2.095 . S
O221 C230 1.250 . S
O222 Mn217 2.121 . S
O222 C230 1.258 . S
C223 N224 1.326 . S
C223 C227 1.460 . S
C223 H229 0.929 . S
N224 Mn217 2.257 . S
N224 C223 1.326 . S
N224 C228 1.362 . S
C225 C226 1.258 . S
C225 C228 1.431 . S
C225 C245 1.449 . S
C226 C225 1.258 . S
C226 C227 1.477 . S
C226 H246 0.931 . S
C227 C223 1.460 . S
C227 C226 1.477 . S
C227 H247 0.930 . S
C228 N224 1.362 . S
C228 C225 1.431 . S
C228 C238 1.476 . S
H229 C223 0.929 . S
C230 O221 1.250 . S
C230 O222 1.258 . S
O231 Mn216 2.162 . S
O231 C219 1.281 . S
O232 Mn216 2.297 . S
O232 C219 1.236 . S
N233 Mn217 2.282 . S
N233 C234 1.328 . S
N233 C238 1.318 . S
C234 N233 1.328 . S
C234 C235 1.457 . S
C234 H239 0.929 . S
C235 C234 1.457 . S
C235 C236 1.291 . S
C235 H248 0.931 . S
C236 C235 1.291 . S
C236 C237 1.373 . S
C236 H249 0.929 . S
C237 C236 1.373 . S
C237 C238 1.396 . S
C237 C244 1.403 . S
C238 C228 1.476 . S
C238 N233 1.318 . S
C238 C237 1.396 . S
H239 C234 0.929 . S
O240 Mn216 2.385 . S
O240 C218 1.234 . S
O241 Mn216 2.209 . S
O241 Mn217 2.215 . S
O241 C218 1.283 . S
O242 Mn216 2.094 . S
O242 C220 1.240 . S
O243 Mn217 2.117 . S
O243 C220 1.264 . S
C244 C237 1.403 . S
C244 C245 1.399 . S
C244 H250 0.929 . S
C245 C225 1.449 . S
C245 C244 1.399 . S
C245 H251 0.930 . S
H246 C226 0.931 . S
H247 C227 0.930 . S
H248 C235 0.931 . S
H249 C236 0.929 . S
H250 C244 0.929 . S
H251 C245 0.930 . S
Mn252 O257 2.095 . S
Mn252 O267 2.162 . S
Mn252 O268 2.297 . S
Mn252 O276 2.385 . S
Mn252 O277 2.209 . S
Mn252 O278 2.094 . S
Mn253 O258 2.121 . S
Mn253 N260 2.257 . S
Mn253 N269 2.282 . S
Mn253 O277 2.215 . S
Mn253 O279 2.117 . S
C254 O276 1.234 . S
C254 O277 1.283 . S
C255 O267 1.281 . S
C255 O268 1.236 . S
C256 O278 1.240 . S
C256 O279 1.264 . S
O257 Mn252 2.095 . S
O257 C266 1.250 . S
O258 Mn253 2.121 . S
O258 C266 1.258 . S
C259 N260 1.326 . S
C259 C263 1.460 . S
C259 H265 0.929 . S
N260 Mn253 2.257 . S
N260 C259 1.326 . S
N260 C264 1.362 . S
C261 C262 1.258 . S
C261 C264 1.431 . S
C261 C281 1.449 . S
C262 C261 1.258 . S
C262 C263 1.477 . S
C262 H282 0.931 . S
C263 C259 1.460 . S
C263 C262 1.477 . S
C263 H283 0.930 . S
C264 N260 1.362 . S
C264 C261 1.431 . S
C264 C274 1.476 . S
H265 C259 0.929 . S
C266 O257 1.250 . S
C266 O258 1.258 . S
O267 Mn252 2.162 . S
O267 C255 1.281 . S
O268 Mn252 2.297 . S
O268 C255 1.236 . S
N269 Mn253 2.282 . S
N269 C270 1.328 . S
N269 C274 1.318 . S
C270 N269 1.328 . S
C270 C271 1.457 . S
C270 H275 0.929 . S
C271 C270 1.457 . S
C271 C272 1.291 . S
C271 H284 0.931 . S
C272 C271 1.291 . S
C272 C273 1.373 . S
C272 H285 0.929 . S
C273 C272 1.373 . S
C273 C274 1.396 . S
C273 C280 1.403 . S
C274 C264 1.476 . S
C274 N269 1.318 . S
C274 C273 1.396 . S
H275 C270 0.929 . S
O276 Mn252 2.385 . S
O276 C254 1.234 . S
O277 Mn252 2.209 . S
O277 Mn253 2.215 . S
O277 C254 1.283 . S
O278 Mn252 2.094 . S
O278 C256 1.240 . S
O279 Mn253 2.117 . S
O279 C256 1.264 . S
C280 C273 1.403 . S
C280 C281 1.399 . S
C280 H286 0.929 . S
C281 C261 1.449 . S
C281 C280 1.399 . S
C281 H287 0.930 . S
H282 C262 0.931 . S
H283 C263 0.930 . S
H284 C271 0.931 . S
H285 C272 0.929 . S
H286 C280 0.929 . S
H287 C281 0.930 . S
Mn288 O293 2.095 . S
Mn288 O303 2.162 . S
Mn288 O304 2.297 . S
Mn288 O312 2.385 . S
Mn288 O313 2.209 . S
Mn288 O314 2.094 . S
Mn289 O294 2.121 . S
Mn289 N296 2.257 . S
Mn289 N305 2.282 . S
Mn289 O313 2.215 . S
Mn289 O315 2.117 . S
C290 O312 1.234 . S
C290 O313 1.283 . S
C291 O303 1.281 . S
C291 O304 1.236 . S
C292 O314 1.240 . S
C292 O315 1.264 . S
O293 Mn288 2.095 . S
O293 C302 1.250 . S
O294 Mn289 2.121 . S
O294 C302 1.258 . S
C295 N296 1.326 . S
C295 C299 1.460 . S
C295 H301 0.929 . S
N296 Mn289 2.257 . S
N296 C295 1.326 . S
N296 C300 1.362 . S
C297 C298 1.258 . S
C297 C300 1.431 . S
C297 C317 1.449 . S
C298 C297 1.258 . S
C298 C299 1.477 . S
C298 H318 0.931 . S
C299 C295 1.460 . S
C299 C298 1.477 . S
C299 H319 0.930 . S
C300 N296 1.362 . S
C300 C297 1.431 . S
C300 C310 1.476 . S
H301 C295 0.929 . S
C302 O293 1.250 . S
C302 O294 1.258 . S
O303 Mn288 2.162 . S
O303 C291 1.281 . S
O304 Mn288 2.297 . S
O304 C291 1.236 . S
N305 Mn289 2.282 . S
N305 C306 1.328 . S
N305 C310 1.318 . S
C306 N305 1.328 . S
C306 C307 1.457 . S
C306 H311 0.929 . S
C307 C306 1.457 . S
C307 C308 1.291 . S
C307 H320 0.931 . S
C308 C307 1.291 . S
C308 C309 1.373 . S
C308 H321 0.929 . S
C309 C308 1.373 . S
C309 C310 1.396 . S
C309 C316 1.403 . S
C310 C300 1.476 . S
C310 N305 1.318 . S
C310 C309 1.396 . S
H311 C306 0.929 . S
O312 Mn288 2.385 . S
O312 C290 1.234 . S
O313 Mn288 2.209 . S
O313 Mn289 2.215 . S
O313 C290 1.283 . S
O314 Mn288 2.094 . S
O314 C292 1.240 . S
O315 Mn289 2.117 . S
O315 C292 1.264 . S
C316 C309 1.403 . S
C316 C317 1.399 . S
C316 H322 0.929 . S
C317 C297 1.449 . S
C317 C316 1.399 . S
C317 H323 0.930 . S
H318 C298 0.931 . S
H319 C299 0.930 . S
H320 C307 0.931 . S
H321 C308 0.929 . S
H322 C316 0.929 . S
H323 C317 0.930 . S
Mn324 O329 2.095 . S
Mn324 O339 2.162 . S
Mn324 O340 2.297 . S
Mn324 O348 2.385 . S
Mn324 O349 2.209 . S
Mn324 O350 2.094 . S
Mn325 O330 2.121 . S
Mn325 N332 2.257 . S
Mn325 N341 2.282 . S
Mn325 O349 2.215 . S
Mn325 O351 2.117 . S
C326 O348 1.234 . S
C326 O349 1.283 . S
C327 O339 1.281 . S
C327 O340 1.236 . S
C328 O350 1.240 . S
C328 O351 1.264 . S
O329 Mn324 2.095 . S
O329 C338 1.250 . S
O330 Mn325 2.121 . S
O330 C338 1.258 . S
C331 N332 1.326 . S
C331 C335 1.460 . S
C331 H337 0.929 . S
N332 Mn325 2.257 . S
N332 C331 1.326 . S
N332 C336 1.362 . S
C333 C334 1.258 . S
C333 C336 1.431 . S
C333 C353 1.449 . S
C334 C333 1.258 . S
C334 C335 1.477 . S
C334 H354 0.931 . S
C335 C331 1.460 . S
C335 C334 1.477 . S
C335 H355 0.930 . S
C336 N332 1.362 . S
C336 C333 1.431 . S
C336 C346 1.476 . S
H337 C331 0.929 . S
C338 O329 1.250 . S
C338 O330 1.258 . S
O339 Mn324 2.162 . S
O339 C327 1.281 . S
O340 Mn324 2.297 . S
O340 C327 1.236 . S
N341 Mn325 2.282 . S
N341 C342 1.328 . S
N341 C346 1.318 . S
C342 N341 1.328 . S
C342 C343 1.457 . S
C342 H347 0.929 . S
C343 C342 1.457 . S
C343 C344 1.291 . S
C343 H356 0.931 . S
C344 C343 1.291 . S
C344 C345 1.373 . S
C344 H357 0.929 . S
C345 C344 1.373 . S
C345 C346 1.396 . S
C345 C352 1.403 . S
C346 C336 1.476 . S
C346 N341 1.318 . S
C346 C345 1.396 . S
H347 C342 0.929 . S
O348 Mn324 2.385 . S
O348 C326 1.234 . S
O349 Mn324 2.209 . S
O349 Mn325 2.215 . S
O349 C326 1.283 . S
O350 Mn324 2.094 . S
O350 C328 1.240 . S
O351 Mn325 2.117 . S
O351 C328 1.264 . S
C352 C345 1.403 . S
C352 C353 1.399 . S
C352 H358 0.929 . S
C353 C333 1.449 . S
C353 C352 1.399 . S
C353 H359 0.930 . S
H354 C334 0.931 . S
H355 C335 0.930 . S
H356 C343 0.931 . S
H357 C344 0.929 . S
H358 C352 0.929 . S
H359 C353 0.930 . S
Mn360 O365 2.095 . S
Mn360 O375 2.162 . S
Mn360 O376 2.297 . S
Mn360 O384 2.385 . S
Mn360 O385 2.209 . S
Mn360 O386 2.094 . S
Mn361 O366 2.121 . S
Mn361 N368 2.257 . S
Mn361 N377 2.282 . S
Mn361 O385 2.215 . S
Mn361 O387 2.117 . S
C362 O384 1.234 . S
C362 O385 1.283 . S
C363 O375 1.281 . S
C363 O376 1.236 . S
C364 O386 1.240 . S
C364 O387 1.264 . S
O365 Mn360 2.095 . S
O365 C374 1.250 . S
O366 Mn361 2.121 . S
O366 C374 1.258 . S
C367 N368 1.326 . S
C367 C371 1.460 . S
C367 H373 0.929 . S
N368 Mn361 2.257 . S
N368 C367 1.326 . S
N368 C372 1.362 . S
C369 C370 1.258 . S
C369 C372 1.431 . S
C369 C389 1.449 . S
C370 C369 1.258 . S
C370 C371 1.477 . S
C370 H390 0.931 . S
C371 C367 1.460 . S
C371 C370 1.477 . S
C371 H391 0.930 . S
C372 N368 1.362 . S
C372 C369 1.431 . S
C372 C382 1.476 . S
H373 C367 0.929 . S
C374 O365 1.250 . S
C374 O366 1.258 . S
O375 Mn360 2.162 . S
O375 C363 1.281 . S
O376 Mn360 2.297 . S
O376 C363 1.236 . S
N377 Mn361 2.282 . S
N377 C378 1.328 . S
N377 C382 1.318 . S
C378 N377 1.328 . S
C378 C379 1.457 . S
C378 H383 0.929 . S
C379 C378 1.457 . S
C379 C380 1.291 . S
C379 H392 0.931 . S
C380 C379 1.291 . S
C380 C381 1.373 . S
C380 H393 0.929 . S
C381 C380 1.373 . S
C381 C382 1.396 . S
C381 C388 1.403 . S
C382 C372 1.476 . S
C382 N377 1.318 . S
C382 C381 1.396 . S
H383 C378 0.929 . S
O384 Mn360 2.385 . S
O384 C362 1.234 . S
O385 Mn360 2.209 . S
O385 Mn361 2.215 . S
O385 C362 1.283 . S
O386 Mn360 2.094 . S
O386 C364 1.240 . S
O387 Mn361 2.117 . S
O387 C364 1.264 . S
C388 C381 1.403 . S
C388 C389 1.399 . S
C388 H394 0.929 . S
C389 C369 1.449 . S
C389 C388 1.399 . S
C389 H395 0.930 . S
H390 C370 0.931 . S
H391 C371 0.930 . S
H392 C379 0.931 . S
H393 C380 0.929 . S
H394 C388 0.929 . S
H395 C389 0.930 . S
Mn396 O401 2.095 . S
Mn396 O411 2.162 . S
Mn396 O412 2.297 . S
Mn396 O420 2.385 . S
Mn396 O421 2.209 . S
Mn396 O422 2.094 . S
Mn397 O402 2.121 . S
Mn397 N404 2.257 . S
Mn397 N413 2.282 . S
Mn397 O421 2.215 . S
Mn397 O423 2.117 . S
C398 O420 1.234 . S
C398 O421 1.283 . S
C399 O411 1.281 . S
C399 O412 1.236 . S
C400 O422 1.240 . S
C400 O423 1.264 . S
O401 Mn396 2.095 . S
O401 C410 1.250 . S
O402 Mn397 2.121 . S
O402 C410 1.258 . S
C403 N404 1.326 . S
C403 C407 1.460 . S
C403 H409 0.929 . S
N404 Mn397 2.257 . S
N404 C403 1.326 . S
N404 C408 1.362 . S
C405 C406 1.258 . S
C405 C408 1.431 . S
C405 C425 1.449 . S
C406 C405 1.258 . S
C406 C407 1.477 . S
C406 H426 0.931 . S
C407 C403 1.460 . S
C407 C406 1.477 . S
C407 H427 0.930 . S
C408 N404 1.362 . S
C408 C405 1.431 . S
C408 C418 1.476 . S
H409 C403 0.929 . S
C410 O401 1.250 . S
C410 O402 1.258 . S
O411 Mn396 2.162 . S
O411 C399 1.281 . S
O412 Mn396 2.297 . S
O412 C399 1.236 . S
N413 Mn397 2.282 . S
N413 C414 1.328 . S
N413 C418 1.318 . S
C414 N413 1.328 . S
C414 C415 1.457 . S
C414 H419 0.929 . S
C415 C414 1.457 . S
C415 C416 1.291 . S
C415 H428 0.931 . S
C416 C415 1.291 . S
C416 C417 1.373 . S
C416 H429 0.929 . S
C417 C416 1.373 . S
C417 C418 1.396 . S
C417 C424 1.403 . S
C418 C408 1.476 . S
C418 N413 1.318 . S
C418 C417 1.396 . S
H419 C414 0.929 . S
O420 Mn396 2.385 . S
O420 C398 1.234 . S
O421 Mn396 2.209 . S
O421 Mn397 2.215 . S
O421 C398 1.283 . S
O422 Mn396 2.094 . S
O422 C400 1.240 . S
O423 Mn397 2.117 . S
O423 C400 1.264 . S
C424 C417 1.403 . S
C424 C425 1.399 . S
C424 H430 0.929 . S
C425 C405 1.449 . S
C425 C424 1.399 . S
C425 H431 0.930 . S
H426 C406 0.931 . S
H427 C407 0.930 . S
H428 C415 0.931 . S
H429 C416 0.929 . S
H430 C424 0.929 . S
H431 C425 0.930 . S
Mn432 O437 2.095 . S
Mn432 O447 2.162 . S
Mn432 O448 2.297 . S
Mn432 O456 2.385 . S
Mn432 O457 2.209 . S
Mn432 O458 2.094 . S
Mn433 O438 2.121 . S
Mn433 N440 2.257 . S
Mn433 N449 2.282 . S
Mn433 O457 2.215 . S
Mn433 O459 2.117 . S
C434 O456 1.234 . S
C434 O457 1.283 . S
C435 O447 1.281 . S
C435 O448 1.236 . S
C436 O458 1.240 . S
C436 O459 1.264 . S
O437 Mn432 2.095 . S
O437 C446 1.250 . S
O438 Mn433 2.121 . S
O438 C446 1.258 . S
C439 N440 1.326 . S
C439 C443 1.460 . S
C439 H445 0.929 . S
N440 Mn433 2.257 . S
N440 C439 1.326 . S
N440 C444 1.362 . S
C441 C442 1.258 . S
C441 C444 1.431 . S
C441 C461 1.449 . S
C442 C441 1.258 . S
C442 C443 1.477 . S
C442 H462 0.931 . S
C443 C439 1.460 . S
C443 C442 1.477 . S
C443 H463 0.930 . S
C444 N440 1.362 . S
C444 C441 1.431 . S
C444 C454 1.476 . S
H445 C439 0.929 . S
C446 O437 1.250 . S
C446 O438 1.258 . S
O447 Mn432 2.162 . S
O447 C435 1.281 . S
O448 Mn432 2.297 . S
O448 C435 1.236 . S
N449 Mn433 2.282 . S
N449 C450 1.328 . S
N449 C454 1.318 . S
C450 N449 1.328 . S
C450 C451 1.457 . S
C450 H455 0.929 . S
C451 C450 1.457 . S
C451 C452 1.291 . S
C451 H464 0.931 . S
C452 C451 1.291 . S
C452 C453 1.373 . S
C452 H465 0.929 . S
C453 C452 1.373 . S
C453 C454 1.396 . S
C453 C460 1.403 . S
C454 C444 1.476 . S
C454 N449 1.318 . S
C454 C453 1.396 . S
H455 C450 0.929 . S
O456 Mn432 2.385 . S
O456 C434 1.234 . S
O457 Mn432 2.209 . S
O457 Mn433 2.215 . S
O457 C434 1.283 . S
O458 Mn432 2.094 . S
O458 C436 1.240 . S
O459 Mn433 2.117 . S
O459 C436 1.264 . S
C460 C453 1.403 . S
C460 C461 1.399 . S
C460 H466 0.929 . S
C461 C441 1.449 . S
C461 C460 1.399 . S
C461 H467 0.930 . S
H462 C442 0.931 . S
H463 C443 0.930 . S
H464 C451 0.931 . S
H465 C452 0.929 . S
H466 C460 0.929 . S
H467 C461 0.930 . S
Mn468 O473 2.095 . S
Mn468 O483 2.162 . S
Mn468 O484 2.297 . S
Mn468 O492 2.385 . S
Mn468 O493 2.209 . S
Mn468 O494 2.094 . S
Mn469 O474 2.121 . S
Mn469 N476 2.257 . S
Mn469 N485 2.282 . S
Mn469 O493 2.215 . S
Mn469 O495 2.117 . S
C470 O492 1.234 . S
C470 O493 1.283 . S
C471 O483 1.281 . S
C471 O484 1.236 . S
C472 O494 1.240 . S
C472 O495 1.264 . S
O473 Mn468 2.095 . S
O473 C482 1.250 . S
O474 Mn469 2.121 . S
O474 C482 1.258 . S
C475 N476 1.326 . S
C475 C479 1.460 . S
C475 H481 0.929 . S
N476 Mn469 2.257 . S
N476 C475 1.326 . S
N476 C480 1.362 . S
C477 C478 1.258 . S
C477 C480 1.431 . S
C477 C497 1.449 . S
C478 C477 1.258 . S
C478 C479 1.477 . S
C478 H498 0.931 . S
C479 C475 1.460 . S
C479 C478 1.477 . S
C479 H499 0.930 . S
C480 N476 1.362 . S
C480 C477 1.431 . S
C480 C490 1.476 . S
H481 C475 0.929 . S
C482 O473 1.250 . S
C482 O474 1.258 . S
O483 Mn468 2.162 . S
O483 C471 1.281 . S
O484 Mn468 2.297 . S
O484 C471 1.236 . S
N485 Mn469 2.282 . S
N485 C486 1.328 . S
N485 C490 1.318 . S
C486 N485 1.328 . S
C486 C487 1.457 . S
C486 H491 0.929 . S
C487 C486 1.457 . S
C487 C488 1.291 . S
C487 H500 0.931 . S
C488 C487 1.291 . S
C488 C489 1.373 . S
C488 H501 0.929 . S
C489 C488 1.373 . S
C489 C490 1.396 . S
C489 C496 1.403 . S
C490 C480 1.476 . S
C490 N485 1.318 . S
C490 C489 1.396 . S
H491 C486 0.929 . S
O492 Mn468 2.385 . S
O492 C470 1.234 . S
O493 Mn468 2.209 . S
O493 Mn469 2.215 . S
O493 C470 1.283 . S
O494 Mn468 2.094 . S
O494 C472 1.240 . S
O495 Mn469 2.117 . S
O495 C472 1.264 . S
C496 C489 1.403 . S
C496 C497 1.399 . S
C496 H502 0.929 . S
C497 C477 1.449 . S
C497 C496 1.399 . S
C497 H503 0.930 . S
H498 C478 0.931 . S
H499 C479 0.930 . S
H500 C487 0.931 . S
H501 C488 0.929 . S
H502 C496 0.929 . S
H503 C497 0.930 . S
Mn504 O509 2.095 . S
Mn504 O519 2.162 . S
Mn504 O520 2.297 . S
Mn504 O528 2.385 . S
Mn504 O529 2.209 . S
Mn504 O530 2.094 . S
Mn505 O510 2.121 . S
Mn505 N512 2.257 . S
Mn505 N521 2.282 . S
Mn505 O529 2.215 . S
Mn505 O531 2.117 . S
C506 O528 1.234 . S
C506 O529 1.283 . S
C507 O519 1.281 . S
C507 O520 1.236 . S
C508 O530 1.240 . S
C508 O531 1.264 . S
O509 Mn504 2.095 . S
O509 C518 1.250 . S
O510 Mn505 2.121 . S
O510 C518 1.258 . S
C511 N512 1.326 . S
C511 C515 1.460 . S
C511 H517 0.929 . S
N512 Mn505 2.257 . S
N512 C511 1.326 . S
N512 C516 1.362 . S
C513 C514 1.258 . S
C513 C516 1.431 . S
C513 C533 1.449 . S
C514 C513 1.258 . S
C514 C515 1.477 . S
C514 H534 0.931 . S
C515 C511 1.460 . S
C515 C514 1.477 . S
C515 H535 0.930 . S
C516 N512 1.362 . S
C516 C513 1.431 . S
C516 C526 1.476 . S
H517 C511 0.929 . S
C518 O509 1.250 . S
C518 O510 1.258 . S
O519 Mn504 2.162 . S
O519 C507 1.281 . S
O520 Mn504 2.297 . S
O520 C507 1.236 . S
N521 Mn505 2.282 . S
N521 C522 1.328 . S
N521 C526 1.318 . S
C522 N521 1.328 . S
C522 C523 1.457 . S
C522 H527 0.929 . S
C523 C522 1.457 . S
C523 C524 1.291 . S
C523 H536 0.931 . S
C524 C523 1.291 . S
C524 C525 1.373 . S
C524 H537 0.929 . S
C525 C524 1.373 . S
C525 C526 1.396 . S
C525 C532 1.403 . S
C526 C516 1.476 . S
C526 N521 1.318 . S
C526 C525 1.396 . S
H527 C522 0.929 . S
O528 Mn504 2.385 . S
O528 C506 1.234 . S
O529 Mn504 2.209 . S
O529 Mn505 2.215 . S
O529 C506 1.283 . S
O530 Mn504 2.094 . S
O530 C508 1.240 . S
O531 Mn505 2.117 . S
O531 C508 1.264 . S
C532 C525 1.403 . S
C532 C533 1.399 . S
C532 H538 0.929 . S
C533 C513 1.449 . S
C533 C532 1.399 . S
C533 H539 0.930 . S
H534 C514 0.931 . S
H535 C515 0.930 . S
H536 C523 0.931 . S
H537 C524 0.929 . S
H538 C532 0.929 . S
H539 C533 0.930 . S
Mn540 O545 2.095 . S
Mn540 O555 2.162 . S
Mn540 O556 2.297 . S
Mn540 O564 2.385 . S
Mn540 O565 2.209 . S
Mn540 O566 2.094 . S
Mn541 O546 2.121 . S
Mn541 N548 2.257 . S
Mn541 N557 2.282 . S
Mn541 O565 2.215 . S
Mn541 O567 2.117 . S
C542 O564 1.234 . S
C542 O565 1.283 . S
C543 O555 1.281 . S
C543 O556 1.236 . S
C544 O566 1.240 . S
C544 O567 1.264 . S
O545 Mn540 2.095 . S
O545 C554 1.250 . S
O546 Mn541 2.121 . S
O546 C554 1.258 . S
C547 N548 1.326 . S
C547 C551 1.460 . S
C547 H553 0.929 . S
N548 Mn541 2.257 . S
N548 C547 1.326 . S
N548 C552 1.362 . S
C549 C550 1.258 . S
C549 C552 1.431 . S
C549 C569 1.449 . S
C550 C549 1.258 . S
C550 C551 1.477 . S
C550 H570 0.931 . S
C551 C547 1.460 . S
C551 C550 1.477 . S
C551 H571 0.930 . S
C552 N548 1.362 . S
C552 C549 1.431 . S
C552 C562 1.476 . S
H553 C547 0.929 . S
C554 O545 1.250 . S
C554 O546 1.258 . S
O555 Mn540 2.162 . S
O555 C543 1.281 . S
O556 Mn540 2.297 . S
O556 C543 1.236 . S
N557 Mn541 2.282 . S
N557 C558 1.328 . S
N557 C562 1.318 . S
C558 N557 1.328 . S
C558 C559 1.457 . S
C558 H563 0.929 . S
C559 C558 1.457 . S
C559 C560 1.291 . S
C559 H572 0.931 . S
C560 C559 1.291 . S
C560 C561 1.373 . S
C560 H573 0.929 . S
C561 C560 1.373 . S
C561 C562 1.396 . S
C561 C568 1.403 . S
C562 C552 1.476 . S
C562 N557 1.318 . S
C562 C561 1.396 . S
H563 C558 0.929 . S
O564 Mn540 2.385 . S
O564 C542 1.234 . S
O565 Mn540 2.209 . S
O565 Mn541 2.215 . S
O565 C542 1.283 . S
O566 Mn540 2.094 . S
O566 C544 1.240 . S
O567 Mn541 2.117 . S
O567 C544 1.264 . S
C568 C561 1.403 . S
C568 C569 1.399 . S
C568 H574 0.929 . S
C569 C549 1.449 . S
C569 C568 1.399 . S
C569 H575 0.930 . S
H570 C550 0.931 . S
H571 C551 0.930 . S
H572 C559 0.931 . S
H573 C560 0.929 . S
H574 C568 0.929 . S
H575 C569 0.930 . S
Mn576 O581 2.095 . S
Mn576 O591 2.162 . S
Mn576 O592 2.297 . S
Mn576 O600 2.385 . S
Mn576 O601 2.209 . S
Mn576 O602 2.094 . S
Mn577 O582 2.121 . S
Mn577 N584 2.257 . S
Mn577 N593 2.282 . S
Mn577 O601 2.215 . S
Mn577 O603 2.117 . S
C578 O600 1.234 . S
C578 O601 1.283 . S
C579 O591 1.281 . S
C579 O592 1.236 . S
C580 O602 1.240 . S
C580 O603 1.264 . S
O581 Mn576 2.095 . S
O581 C590 1.250 . S
O582 Mn577 2.121 . S
O582 C590 1.258 . S
C583 N584 1.326 . S
C583 C587 1.460 . S
C583 H589 0.929 . S
N584 Mn577 2.257 . S
N584 C583 1.326 . S
N584 C588 1.362 . S
C585 C586 1.258 . S
C585 C588 1.431 . S
C585 C605 1.449 . S
C586 C585 1.258 . S
C586 C587 1.477 . S
C586 H606 0.931 . S
C587 C583 1.460 . S
C587 C586 1.477 . S
C587 H607 0.930 . S
C588 N584 1.362 . S
C588 C585 1.431 . S
C588 C598 1.476 . S
H589 C583 0.929 . S
C590 O581 1.250 . S
C590 O582 1.258 . S
O591 Mn576 2.162 . S
O591 C579 1.281 . S
O592 Mn576 2.297 . S
O592 C579 1.236 . S
N593 Mn577 2.282 . S
N593 C594 1.328 . S
N593 C598 1.318 . S
C594 N593 1.328 . S
C594 C595 1.457 . S
C594 H599 0.929 . S
C595 C594 1.457 . S
C595 C596 1.291 . S
C595 H608 0.931 . S
C596 C595 1.291 . S
C596 C597 1.373 . S
C596 H609 0.929 . S
C597 C596 1.373 . S
C597 C598 1.396 . S
C597 C604 1.403 . S
C598 C588 1.476 . S
C598 N593 1.318 . S
C598 C597 1.396 . S
H599 C594 0.929 . S
O600 Mn576 2.385 . S
O600 C578 1.234 . S
O601 Mn576 2.209 . S
O601 Mn577 2.215 . S
O601 C578 1.283 . S
O602 Mn576 2.094 . S
O602 C580 1.240 . S
O603 Mn577 2.117 . S
O603 C580 1.264 . S
C604 C597 1.403 . S
C604 C605 1.399 . S
C604 H610 0.929 . S
C605 C585 1.449 . S
C605 C604 1.399 . S
C605 H611 0.930 . S
H606 C586 0.931 . S
H607 C587 0.930 . S
H608 C595 0.931 . S
H609 C596 0.929 . S
H610 C604 0.929 . S
H611 C605 0.930 . S
Mn612 O617 2.095 . S
Mn612 O627 2.162 . S
Mn612 O628 2.297 . S
Mn612 O636 2.385 . S
Mn612 O637 2.209 . S
Mn612 O638 2.094 . S
Mn613 O618 2.121 . S
Mn613 N620 2.257 . S
Mn613 N629 2.282 . S
Mn613 O637 2.215 . S
Mn613 O639 2.117 . S
C614 O636 1.234 . S
C614 O637 1.283 . S
C615 O627 1.281 . S
C615 O628 1.236 . S
C616 O638 1.240 . S
C616 O639 1.264 . S
O617 Mn612 2.095 . S
O617 C626 1.250 . S
O618 Mn613 2.121 . S
O618 C626 1.258 . S
C619 N620 1.326 . S
C619 C623 1.460 . S
C619 H625 0.929 . S
N620 Mn613 2.257 . S
N620 C619 1.326 . S
N620 C624 1.362 . S
C621 C622 1.258 . S
C621 C624 1.431 . S
C621 C641 1.449 . S
C622 C621 1.258 . S
C622 C623 1.477 . S
C622 H642 0.931 . S
C623 C619 1.460 . S
C623 C622 1.477 . S
C623 H643 0.930 . S
C624 N620 1.362 . S
C624 C621 1.431 . S
C624 C634 1.476 . S
H625 C619 0.929 . S
C626 O617 1.250 . S
C626 O618 1.258 . S
O627 Mn612 2.162 . S
O627 C615 1.281 . S
O628 Mn612 2.297 . S
O628 C615 1.236 . S
N629 Mn613 2.282 . S
N629 C630 1.328 . S
N629 C634 1.318 . S
C630 N629 1.328 . S
C630 C631 1.457 . S
C630 H635 0.929 . S
C631 C630 1.457 . S
C631 C632 1.291 . S
C631 H644 0.931 . S
C632 C631 1.291 . S
C632 C633 1.373 . S
C632 H645 0.929 . S
C633 C632 1.373 . S
C633 C634 1.396 . S
C633 C640 1.403 . S
C634 C624 1.476 . S
C634 N629 1.318 . S
C634 C633 1.396 . S
H635 C630 0.929 . S
O636 Mn612 2.385 . S
O636 C614 1.234 . S
O637 Mn612 2.209 . S
O637 Mn613 2.215 . S
O637 C614 1.283 . S
O638 Mn612 2.094 . S
O638 C616 1.240 . S
O639 Mn613 2.117 . S
O639 C616 1.264 . S
C640 C633 1.403 . S
C640 C641 1.399 . S
C640 H646 0.929 . S
C641 C621 1.449 . S
C641 C640 1.399 . S
C641 H647 0.930 . S
H642 C622 0.931 . S
H643 C623 0.930 . S
H644 C631 0.931 . S
H645 C632 0.929 . S
H646 C640 0.929 . S
H647 C641 0.930 . S
Mn648 O653 2.095 . S
Mn648 O663 2.162 . S
Mn648 O664 2.297 . S
Mn648 O672 2.385 . S
Mn648 O673 2.209 . S
Mn648 O674 2.094 . S
Mn649 O654 2.121 . S
Mn649 N656 2.257 . S
Mn649 N665 2.282 . S
Mn649 O673 2.215 . S
Mn649 O675 2.117 . S
C650 O672 1.234 . S
C650 O673 1.283 . S
C651 O663 1.281 . S
C651 O664 1.236 . S
C652 O674 1.240 . S
C652 O675 1.264 . S
O653 Mn648 2.095 . S
O653 C662 1.250 . S
O654 Mn649 2.121 . S
O654 C662 1.258 . S
C655 N656 1.326 . S
C655 C659 1.460 . S
C655 H661 0.929 . S
N656 Mn649 2.257 . S
N656 C655 1.326 . S
N656 C660 1.362 . S
C657 C658 1.258 . S
C657 C660 1.431 . S
C657 C677 1.449 . S
C658 C657 1.258 . S
C658 C659 1.477 . S
C658 H678 0.931 . S
C659 C655 1.460 . S
C659 C658 1.477 . S
C659 H679 0.930 . S
C660 N656 1.362 . S
C660 C657 1.431 . S
C660 C670 1.476 . S
H661 C655 0.929 . S
C662 O653 1.250 . S
C662 O654 1.258 . S
O663 Mn648 2.162 . S
O663 C651 1.281 . S
O664 Mn648 2.297 . S
O664 C651 1.236 . S
N665 Mn649 2.282 . S
N665 C666 1.328 . S
N665 C670 1.318 . S
C666 N665 1.328 . S
C666 C667 1.457 . S
C666 H671 0.929 . S
C667 C666 1.457 . S
C667 C668 1.291 . S
C667 H680 0.931 . S
C668 C667 1.291 . S
C668 C669 1.373 . S
C668 H681 0.929 . S
C669 C668 1.373 . S
C669 C670 1.396 . S
C669 C676 1.403 . S
C670 C660 1.476 . S
C670 N665 1.318 . S
C670 C669 1.396 . S
H671 C666 0.929 . S
O672 Mn648 2.385 . S
O672 C650 1.234 . S
O673 Mn648 2.209 . S
O673 Mn649 2.215 . S
O673 C650 1.283 . S
O674 Mn648 2.094 . S
O674 C652 1.240 . S
O675 Mn649 2.117 . S
O675 C652 1.264 . S
C676 C669 1.403 . S
C676 C677 1.399 . S
C676 H682 0.929 . S
C677 C657 1.449 . S
C677 C676 1.399 . S
C677 H683 0.930 . S
H678 C658 0.931 . S
H679 C659 0.930 . S
H680 C667 0.931 . S
H681 C668 0.929 . S
H682 C676 0.929 . S
H683 C677 0.930 . S
Mn684 O689 2.095 . S
Mn684 O699 2.162 . S
Mn684 O700 2.297 . S
Mn684 O708 2.385 . S
Mn684 O709 2.209 . S
Mn684 O710 2.094 . S
Mn685 O690 2.121 . S
Mn685 N692 2.257 . S
Mn685 N701 2.282 . S
Mn685 O709 2.215 . S
Mn685 O711 2.117 . S
C686 O708 1.234 . S
C686 O709 1.283 . S
C687 O699 1.281 . S
C687 O700 1.236 . S
C688 O710 1.240 . S
C688 O711 1.264 . S
O689 Mn684 2.095 . S
O689 C698 1.250 . S
O690 Mn685 2.121 . S
O690 C698 1.258 . S
C691 N692 1.326 . S
C691 C695 1.460 . S
C691 H697 0.929 . S
N692 Mn685 2.257 . S
N692 C691 1.326 . S
N692 C696 1.362 . S
C693 C694 1.258 . S
C693 C696 1.431 . S
C693 C713 1.449 . S
C694 C693 1.258 . S
C694 C695 1.477 . S
C694 H714 0.931 . S
C695 C691 1.460 . S
C695 C694 1.477 . S
C695 H715 0.930 . S
C696 N692 1.362 . S
C696 C693 1.431 . S
C696 C706 1.476 . S
H697 C691 0.929 . S
C698 O689 1.250 . S
C698 O690 1.258 . S
O699 Mn684 2.162 . S
O699 C687 1.281 . S
O700 Mn684 2.297 . S
O700 C687 1.236 . S
N701 Mn685 2.282 . S
N701 C702 1.328 . S
N701 C706 1.318 . S
C702 N701 1.328 . S
C702 C703 1.457 . S
C702 H707 0.929 . S
C703 C702 1.457 . S
C703 C704 1.291 . S
C703 H716 0.931 . S
C704 C703 1.291 . S
C704 C705 1.373 . S
C704 H717 0.929 . S
C705 C704 1.373 . S
C705 C706 1.396 . S
C705 C712 1.403 . S
C706 C696 1.476 . S
C706 N701 1.318 . S
C706 C705 1.396 . S
H707 C702 0.929 . S
O708 Mn684 2.385 . S
O708 C686 1.234 . S
O709 Mn684 2.209 . S
O709 Mn685 2.215 . S
O709 C686 1.283 . S
O710 Mn684 2.094 . S
O710 C688 1.240 . S
O711 Mn685 2.117 . S
O711 C688 1.264 . S
C712 C705 1.403 . S
C712 C713 1.399 . S
C712 H718 0.929 . S
C713 C693 1.449 . S
C713 C712 1.399 . S
C713 H719 0.930 . S
H714 C694 0.931 . S
H715 C695 0.930 . S
H716 C703 0.931 . S
H717 C704 0.929 . S
H718 C712 0.929 . S
H719 C713 0.930 . S
Mn720 O725 2.095 . S
Mn720 O735 2.162 . S
Mn720 O736 2.297 . S
Mn720 O744 2.385 . S
Mn720 O745 2.209 . S
Mn720 O746 2.094 . S
Mn721 O726 2.121 . S
Mn721 N728 2.257 . S
Mn721 N737 2.282 . S
Mn721 O745 2.215 . S
Mn721 O747 2.117 . S
C722 O744 1.234 . S
C722 O745 1.283 . S
C723 O735 1.281 . S
C723 O736 1.236 . S
C724 O746 1.240 . S
C724 O747 1.264 . S
O725 Mn720 2.095 . S
O725 C734 1.250 . S
O726 Mn721 2.121 . S
O726 C734 1.258 . S
C727 N728 1.326 . S
C727 C731 1.460 . S
C727 H733 0.929 . S
N728 Mn721 2.257 . S
N728 C727 1.326 . S
N728 C732 1.362 . S
C729 C730 1.258 . S
C729 C732 1.431 . S
C729 C749 1.449 . S
C730 C729 1.258 . S
C730 C731 1.477 . S
C730 H750 0.931 . S
C731 C727 1.460 . S
C731 C730 1.477 . S
C731 H751 0.930 . S
C732 N728 1.362 . S
C732 C729 1.431 . S
C732 C742 1.476 . S
H733 C727 0.929 . S
C734 O725 1.250 . S
C734 O726 1.258 . S
O735 Mn720 2.162 . S
O735 C723 1.281 . S
O736 Mn720 2.297 . S
O736 C723 1.236 . S
N737 Mn721 2.282 . S
N737 C738 1.328 . S
N737 C742 1.318 . S
C738 N737 1.328 . S
C738 C739 1.457 . S
C738 H743 0.929 . S
C739 C738 1.457 . S
C739 C740 1.291 . S
C739 H752 0.931 . S
C740 C739 1.291 . S
C740 C741 1.373 . S
C740 H753 0.929 . S
C741 C740 1.373 . S
C741 C742 1.396 . S
C741 C748 1.403 . S
C742 C732 1.476 . S
C742 N737 1.318 . S
C742 C741 1.396 . S
H743 C738 0.929 . S
O744 Mn720 2.385 . S
O744 C722 1.234 . S
O745 Mn720 2.209 . S
O745 Mn721 2.215 . S
O745 C722 1.283 . S
O746 Mn720 2.094 . S
O746 C724 1.240 . S
O747 Mn721 2.117 . S
O747 C724 1.264 . S
C748 C741 1.403 . S
C748 C749 1.399 . S
C748 H754 0.929 . S
C749 C729 1.449 . S
C749 C748 1.399 . S
C749 H755 0.930 . S
H750 C730 0.931 . S
H751 C731 0.930 . S
H752 C739 0.931 . S
H753 C740 0.929 . S
H754 C748 0.929 . S
H755 C749 0.930 . S
Mn756 O761 2.095 . S
Mn756 O771 2.162 . S
Mn756 O772 2.297 . S
Mn756 O780 2.385 . S
Mn756 O781 2.209 . S
Mn756 O782 2.094 . S
Mn757 O762 2.121 . S
Mn757 N764 2.257 . S
Mn757 N773 2.282 . S
Mn757 O781 2.215 . S
Mn757 O783 2.117 . S
C758 O780 1.234 . S
C758 O781 1.283 . S
C759 O771 1.281 . S
C759 O772 1.236 . S
C760 O782 1.240 . S
C760 O783 1.264 . S
O761 Mn756 2.095 . S
O761 C770 1.250 . S
O762 Mn757 2.121 . S
O762 C770 1.258 . S
C763 N764 1.326 . S
C763 C767 1.460 . S
C763 H769 0.929 . S
N764 Mn757 2.257 . S
N764 C763 1.326 . S
N764 C768 1.362 . S
C765 C766 1.258 . S
C765 C768 1.431 . S
C765 C785 1.449 . S
C766 C765 1.258 . S
C766 C767 1.477 . S
C766 H786 0.931 . S
C767 C763 1.460 . S
C767 C766 1.477 . S
C767 H787 0.930 . S
C768 N764 1.362 . S
C768 C765 1.431 . S
C768 C778 1.476 . S
H769 C763 0.929 . S
C770 O761 1.250 . S
C770 O762 1.258 . S
O771 Mn756 2.162 . S
O771 C759 1.281 . S
O772 Mn756 2.297 . S
O772 C759 1.236 . S
N773 Mn757 2.282 . S
N773 C774 1.328 . S
N773 C778 1.318 . S
C774 N773 1.328 . S
C774 C775 1.457 . S
C774 H779 0.929 . S
C775 C774 1.457 . S
C775 C776 1.291 . S
C775 H788 0.931 . S
C776 C775 1.291 . S
C776 C777 1.373 . S
C776 H789 0.929 . S
C777 C776 1.373 . S
C777 C778 1.396 . S
C777 C784 1.403 . S
C778 C768 1.476 . S
C778 N773 1.318 . S
C778 C777 1.396 . S
H779 C774 0.929 . S
O780 Mn756 2.385 . S
O780 C758 1.234 . S
O781 Mn756 2.209 . S
O781 Mn757 2.215 . S
O781 C758 1.283 . S
O782 Mn756 2.094 . S
O782 C760 1.240 . S
O783 Mn757 2.117 . S
O783 C760 1.264 . S
C784 C777 1.403 . S
C784 C785 1.399 . S
C784 H790 0.929 . S
C785 C765 1.449 . S
C785 C784 1.399 . S
C785 H791 0.930 . S
H786 C766 0.931 . S
H787 C767 0.930 . S
H788 C775 0.931 . S
H789 C776 0.929 . S
H790 C784 0.929 . S
H791 C785 0.930 . S
Mn792 O797 2.095 . S
Mn792 O807 2.162 . S
Mn792 O808 2.297 . S
Mn792 O816 2.385 . S
Mn792 O817 2.209 . S
Mn792 O818 2.094 . S
Mn793 O798 2.121 . S
Mn793 N800 2.257 . S
Mn793 N809 2.282 . S
Mn793 O817 2.215 . S
Mn793 O819 2.117 . S
C794 O816 1.234 . S
C794 O817 1.283 . S
C795 O807 1.281 . S
C795 O808 1.236 . S
C796 O818 1.240 . S
C796 O819 1.264 . S
O797 Mn792 2.095 . S
O797 C806 1.250 . S
O798 Mn793 2.121 . S
O798 C806 1.258 . S
C799 N800 1.326 . S
C799 C803 1.460 . S
C799 H805 0.929 . S
N800 Mn793 2.257 . S
N800 C799 1.326 . S
N800 C804 1.362 . S
C801 C802 1.258 . S
C801 C804 1.431 . S
C801 C821 1.449 . S
C802 C801 1.258 . S
C802 C803 1.477 . S
C802 H822 0.931 . S
C803 C799 1.460 . S
C803 C802 1.477 . S
C803 H823 0.930 . S
C804 N800 1.362 . S
C804 C801 1.431 . S
C804 C814 1.476 . S
H805 C799 0.929 . S
C806 O797 1.250 . S
C806 O798 1.258 . S
O807 Mn792 2.162 . S
O807 C795 1.281 . S
O808 Mn792 2.297 . S
O808 C795 1.236 . S
N809 Mn793 2.282 . S
N809 C810 1.328 . S
N809 C814 1.318 . S
C810 N809 1.328 . S
C810 C811 1.457 . S
C810 H815 0.929 . S
C811 C810 1.457 . S
C811 C812 1.291 . S
C811 H824 0.931 . S
C812 C811 1.291 . S
C812 C813 1.373 . S
C812 H825 0.929 . S
C813 C812 1.373 . S
C813 C814 1.396 . S
C813 C820 1.403 . S
C814 C804 1.476 . S
C814 N809 1.318 . S
C814 C813 1.396 . S
H815 C810 0.929 . S
O816 Mn792 2.385 . S
O816 C794 1.234 . S
O817 Mn792 2.209 . S
O817 Mn793 2.215 . S
O817 C794 1.283 . S
O818 Mn792 2.094 . S
O818 C796 1.240 . S
O819 Mn793 2.117 . S
O819 C796 1.264 . S
C820 C813 1.403 . S
C820 C821 1.399 . S
C820 H826 0.929 . S
C821 C801 1.449 . S
C821 C820 1.399 . S
C821 H827 0.930 . S
H822 C802 0.931 . S
H823 C803 0.930 . S
H824 C811 0.931 . S
H825 C812 0.929 . S
H826 C820 0.929 . S
H827 C821 0.930 . S
Mn828 O833 2.095 . S
Mn828 O843 2.162 . S
Mn828 O844 2.297 . S
Mn828 O852 2.385 . S
Mn828 O853 2.209 . S
Mn828 O854 2.094 . S
Mn829 O834 2.121 . S
Mn829 N836 2.257 . S
Mn829 N845 2.282 . S
Mn829 O853 2.215 . S
Mn829 O855 2.117 . S
C830 O852 1.234 . S
C830 O853 1.283 . S
C831 O843 1.281 . S
C831 O844 1.236 . S
C832 O854 1.240 . S
C832 O855 1.264 . S
O833 Mn828 2.095 . S
O833 C842 1.250 . S
O834 Mn829 2.121 . S
O834 C842 1.258 . S
C835 N836 1.326 . S
C835 C839 1.460 . S
C835 H841 0.929 . S
N836 Mn829 2.257 . S
N836 C835 1.326 . S
N836 C840 1.362 . S
C837 C838 1.258 . S
C837 C840 1.431 . S
C837 C857 1.449 . S
C838 C837 1.258 . S
C838 C839 1.477 . S
C838 H858 0.931 . S
C839 C835 1.460 . S
C839 C838 1.477 . S
C839 H859 0.930 . S
C840 N836 1.362 . S
C840 C837 1.431 . S
C840 C850 1.476 . S
H841 C835 0.929 . S
C842 O833 1.250 . S
C842 O834 1.258 . S
O843 Mn828 2.162 . S
O843 C831 1.281 . S
O844 Mn828 2.297 . S
O844 C831 1.236 . S
N845 Mn829 2.282 . S
N845 C846 1.328 . S
N845 C850 1.318 . S
C846 N845 1.328 . S
C846 C847 1.457 . S
C846 H851 0.929 . S
C847 C846 1.457 . S
C847 C848 1.291 . S
C847 H860 0.931 . S
C848 C847 1.291 . S
C848 C849 1.373 . S
C848 H861 0.929 . S
C849 C848 1.373 . S
C849 C850 1.396 . S
C849 C856 1.403 . S
C850 C840 1.476 . S
C850 N845 1.318 . S
C850 C849 1.396 . S
H851 C846 0.929 . S
O852 Mn828 2.385 . S
O852 C830 1.234 . S
O853 Mn828 2.209 . S
O853 Mn829 2.215 . S
O853 C830 1.283 . S
O854 Mn828 2.094 . S
O854 C832 1.240 . S
O855 Mn829 2.117 . S
O855 C832 1.264 . S
C856 C849 1.403 . S
C856 C857 1.399 . S
C856 H862 0.929 . S
C857 C837 1.449 . S
C857 C856 1.399 . S
C857 H863 0.930 . S
H858 C838 0.931 . S
H859 C839 0.930 . S
H860 C847 0.931 . S
H861 C848 0.929 . S
H862 C856 0.929 . S
H863 C857 0.930 . S
H864 C870 0.930 . S
H865 C874 0.930 . S
H866 C879 0.929 . S
H867 C877 0.929 . S
H868 C872 0.929 . S
H869 C878 0.929 . S
C870 H864 0.930 . S
C870 C871 1.367 . S
C870 C878 1.378 . S
C871 C870 1.367 . S
C871 C879 1.433 . S
C872 H868 0.929 . S
C872 C874 1.378 . S
C872 C876 1.350 . S
C873 C876 1.463 . S
C873 C878 1.350 . S
C873 N881 1.427 . S
C874 H865 0.930 . S
C874 C872 1.378 . S
C874 C875 1.367 . S
C875 C874 1.367 . S
C875 C877 1.433 . S
C876 C872 1.350 . S
C876 C873 1.463 . S
C876 N880 1.427 . S
C877 H867 0.929 . S
C877 C875 1.433 . S
C877 N880 1.384 . S
C878 H869 0.929 . S
C878 C870 1.378 . S
C878 C873 1.350 . S
C879 H866 0.929 . S
C879 C871 1.433 . S
C879 N881 1.384 . S
N880 C876 1.427 . S
N880 C877 1.384 . S
N881 C873 1.427 . S
N881 C879 1.384 . S
H882 C888 0.930 . S
H883 C892 0.930 . S
H884 C897 0.929 . S
H885 C895 0.929 . S
H886 C890 0.929 . S
H887 C896 0.929 . S
C888 H882 0.930 . S
C888 C889 1.367 . S
C888 C896 1.378 . S
C889 C888 1.367 . S
C889 C897 1.433 . S
C890 H886 0.929 . S
C890 C892 1.378 . S
C890 C894 1.350 . S
C891 C894 1.463 . S
C891 C896 1.350 . S
C891 N899 1.427 . S
C892 H883 0.930 . S
C892 C890 1.378 . S
C892 C893 1.367 . S
C893 C892 1.367 . S
C893 C895 1.433 . S
C894 C890 1.350 . S
C894 C891 1.463 . S
C894 N898 1.427 . S
C895 H885 0.929 . S
C895 C893 1.433 . S
C895 N898 1.384 . S
C896 H887 0.929 . S
C896 C888 1.378 . S
C896 C891 1.350 . S
C897 H884 0.929 . S
C897 C889 1.433 . S
C897 N899 1.384 . S
N898 C894 1.427 . S
N898 C895 1.384 . S
N899 C891 1.427 . S
N899 C897 1.384 . S
H900 C906 0.930 . S
H901 C910 0.930 . S
H902 C915 0.929 . S
H903 C913 0.929 . S
H904 C908 0.929 . S
H905 C914 0.929 . S
C906 H900 0.930 . S
C906 C907 1.367 . S
C906 C914 1.378 . S
C907 C906 1.367 . S
C907 C915 1.433 . S
C908 H904 0.929 . S
C908 C910 1.378 . S
C908 C912 1.350 . S
C909 C912 1.463 . S
C909 C914 1.350 . S
C909 N917 1.427 . S
C910 H901 0.930 . S
C910 C908 1.378 . S
C910 C911 1.367 . S
C911 C910 1.367 . S
C911 C913 1.433 . S
C912 C908 1.350 . S
C912 C909 1.463 . S
C912 N916 1.427 . S
C913 H903 0.929 . S
C913 C911 1.433 . S
C913 N916 1.384 . S
C914 H905 0.929 . S
C914 C906 1.378 . S
C914 C909 1.350 . S
C915 H902 0.929 . S
C915 C907 1.433 . S
C915 N917 1.384 . S
N916 C912 1.427 . S
N916 C913 1.384 . S
N917 C909 1.427 . S
N917 C915 1.384 . S
H918 C924 0.930 . S
H919 C928 0.930 . S
H920 C933 0.929 . S
H921 C931 0.929 . S
H922 C926 0.929 . S
H923 C932 0.929 . S
C924 H918 0.930 . S
C924 C925 1.367 . S
C924 C932 1.378 . S
C925 C924 1.367 . S
C925 C933 1.433 . S
C926 H922 0.929 . S
C926 C928 1.378 . S
C926 C930 1.350 . S
C927 C930 1.463 . S
C927 C932 1.350 . S
C927 N935 1.427 . S
C928 H919 0.930 . S
C928 C926 1.378 . S
C928 C929 1.367 . S
C929 C928 1.367 . S
C929 C931 1.433 . S
C930 C926 1.350 . S
C930 C927 1.463 . S
C930 N934 1.427 . S
C931 H921 0.929 . S
C931 C929 1.433 . S
C931 N934 1.384 . S
C932 H923 0.929 . S
C932 C924 1.378 . S
C932 C927 1.350 . S
C933 H920 0.929 . S
C933 C925 1.433 . S
C933 N935 1.384 . S
N934 C930 1.427 . S
N934 C931 1.384 . S
N935 C927 1.427 . S
N935 C933 1.384 . S
H936 C942 0.930 . S
H937 C946 0.930 . S
H938 C951 0.929 . S
H939 C949 0.929 . S
H940 C944 0.929 . S
H941 C950 0.929 . S
C942 H936 0.930 . S
C942 C943 1.367 . S
C942 C950 1.378 . S
C943 C942 1.367 . S
C943 C951 1.433 . S
C944 H940 0.929 . S
C944 C946 1.378 . S
C944 C948 1.350 . S
C945 C948 1.463 . S
C945 C950 1.350 . S
C945 N953 1.427 . S
C946 H937 0.930 . S
C946 C944 1.378 . S
C946 C947 1.367 . S
C947 C946 1.367 . S
C947 C949 1.433 . S
C948 C944 1.350 . S
C948 C945 1.463 . S
C948 N952 1.427 . S
C949 H939 0.929 . S
C949 C947 1.433 . S
C949 N952 1.384 . S
C950 H941 0.929 . S
C950 C942 1.378 . S
C950 C945 1.350 . S
C951 H938 0.929 . S
C951 C943 1.433 . S
C951 N953 1.384 . S
N952 C948 1.427 . S
N952 C949 1.384 . S
N953 C945 1.427 . S
N953 C951 1.384 . S
H954 C960 0.930 . S
H955 C964 0.930 . S
H956 C969 0.929 . S
H957 C967 0.929 . S
H958 C962 0.929 . S
H959 C968 0.929 . S
C960 H954 0.930 . S
C960 C961 1.367 . S
C960 C968 1.378 . S
C961 C960 1.367 . S
C961 C969 1.433 . S
C962 H958 0.929 . S
C962 C964 1.378 . S
C962 C966 1.350 . S
C963 C966 1.463 . S
C963 C968 1.350 . S
C963 N971 1.427 . S
C964 H955 0.930 . S
C964 C962 1.378 . S
C964 C965 1.367 . S
C965 C964 1.367 . S
C965 C967 1.433 . S
C966 C962 1.350 . S
C966 C963 1.463 . S
C966 N970 1.427 . S
C967 H957 0.929 . S
C967 C965 1.433 . S
C967 N970 1.384 . S
C968 H959 0.929 . S
C968 C960 1.378 . S
C968 C963 1.350 . S
C969 H956 0.929 . S
C969 C961 1.433 . S
C969 N971 1.384 . S
N970 C966 1.427 . S
N970 C967 1.384 . S
N971 C963 1.427 . S
N971 C969 1.384 . S
H972 C978 0.930 . S
H973 C982 0.930 . S
H974 C987 0.929 . S
H975 C985 0.929 . S
H976 C980 0.929 . S
H977 C986 0.929 . S
C978 H972 0.930 . S
C978 C979 1.367 . S
C978 C986 1.378 . S
C979 C978 1.367 . S
C979 C987 1.433 . S
C980 H976 0.929 . S
C980 C982 1.378 . S
C980 C984 1.350 . S
C981 C984 1.463 . S
C981 C986 1.350 . S
C981 N989 1.427 . S
C982 H973 0.930 . S
C982 C980 1.378 . S
C982 C983 1.367 . S
C983 C982 1.367 . S
C983 C985 1.433 . S
C984 C980 1.350 . S
C984 C981 1.463 . S
C984 N988 1.427 . S
C985 H975 0.929 . S
C985 C983 1.433 . S
C985 N988 1.384 . S
C986 H977 0.929 . S
C986 C978 1.378 . S
C986 C981 1.350 . S
C987 H974 0.929 . S
C987 C979 1.433 . S
C987 N989 1.384 . S
N988 C984 1.427 . S
N988 C985 1.384 . S
N989 C981 1.427 . S
N989 C987 1.384 . S
H990 C996 0.930 . S
H991 C1000 0.930 . S
H992 C1005 0.929 . S
H993 C1003 0.929 . S
H994 C998 0.929 . S
H995 C1004 0.929 . S
C996 H990 0.930 . S
C996 C997 1.367 . S
C996 C1004 1.378 . S
C997 C996 1.367 . S
C997 C1005 1.433 . S
C998 H994 0.929 . S
C998 C1000 1.378 . S
C998 C1002 1.350 . S
C999 C1002 1.463 . S
C999 C1004 1.350 . S
C999 N1007 1.427 . S
C1000 H991 0.930 . S
C1000 C998 1.378 . S
C1000 C1001 1.367 . S
C1001 C1000 1.367 . S
C1001 C1003 1.433 . S
C1002 C998 1.350 . S
C1002 C999 1.463 . S
C1002 N1006 1.427 . S
C1003 H993 0.929 . S
C1003 C1001 1.433 . S
C1003 N1006 1.384 . S
C1004 H995 0.929 . S
C1004 C996 1.378 . S
C1004 C999 1.350 . S
C1005 H992 0.929 . S
C1005 C997 1.433 . S
C1005 N1007 1.384 . S
N1006 C1002 1.427 . S
N1006 C1003 1.384 . S
N1007 C999 1.427 . S
N1007 C1005 1.384 . S
H1008 C1014 0.930 . S
H1009 C1018 0.930 . S
H1010 C1023 0.929 . S
H1011 C1021 0.929 . S
H1012 C1016 0.929 . S
H1013 C1022 0.929 . S
C1014 H1008 0.930 . S
C1014 C1015 1.367 . S
C1014 C1022 1.378 . S
C1015 C1014 1.367 . S
C1015 C1023 1.433 . S
C1016 H1012 0.929 . S
C1016 C1018 1.378 . S
C1016 C1020 1.350 . S
C1017 C1020 1.463 . S
C1017 C1022 1.350 . S
C1017 N1025 1.427 . S
C1018 H1009 0.930 . S
C1018 C1016 1.378 . S
C1018 C1019 1.367 . S
C1019 C1018 1.367 . S
C1019 C1021 1.433 . S
C1020 C1016 1.350 . S
C1020 C1017 1.463 . S
C1020 N1024 1.427 . S
C1021 H1011 0.929 . S
C1021 C1019 1.433 . S
C1021 N1024 1.384 . S
C1022 H1013 0.929 . S
C1022 C1014 1.378 . S
C1022 C1017 1.350 . S
C1023 H1010 0.929 . S
C1023 C1015 1.433 . S
C1023 N1025 1.384 . S
N1024 C1020 1.427 . S
N1024 C1021 1.384 . S
N1025 C1017 1.427 . S
N1025 C1023 1.384 . S
H1026 C1032 0.930 . S
H1027 C1036 0.930 . S
H1028 C1041 0.929 . S
H1029 C1039 0.929 . S
H1030 C1034 0.929 . S
H1031 C1040 0.929 . S
C1032 H1026 0.930 . S
C1032 C1033 1.367 . S
C1032 C1040 1.378 . S
C1033 C1032 1.367 . S
C1033 C1041 1.433 . S
C1034 H1030 0.929 . S
C1034 C1036 1.378 . S
C1034 C1038 1.350 . S
C1035 C1038 1.463 . S
C1035 C1040 1.350 . S
C1035 N1043 1.427 . S
C1036 H1027 0.930 . S
C1036 C1034 1.378 . S
C1036 C1037 1.367 . S
C1037 C1036 1.367 . S
C1037 C1039 1.433 . S
C1038 C1034 1.350 . S
C1038 C1035 1.463 . S
C1038 N1042 1.427 . S
C1039 H1029 0.929 . S
C1039 C1037 1.433 . S
C1039 N1042 1.384 . S
C1040 H1031 0.929 . S
C1040 C1032 1.378 . S
C1040 C1035 1.350 . S
C1041 H1028 0.929 . S
C1041 C1033 1.433 . S
C1041 N1043 1.384 . S
N1042 C1038 1.427 . S
N1042 C1039 1.384 . S
N1043 C1035 1.427 . S
N1043 C1041 1.384 . S
H1044 C1050 0.930 . S
H1045 C1054 0.930 . S
H1046 C1059 0.929 . S
H1047 C1057 0.929 . S
H1048 C1052 0.929 . S
H1049 C1058 0.929 . S
C1050 H1044 0.930 . S
C1050 C1051 1.367 . S
C1050 C1058 1.378 . S
C1051 C1050 1.367 . S
C1051 C1059 1.433 . S
C1052 H1048 0.929 . S
C1052 C1054 1.378 . S
C1052 C1056 1.350 . S
C1053 C1056 1.463 . S
C1053 C1058 1.350 . S
C1053 N1061 1.427 . S
C1054 H1045 0.930 . S
C1054 C1052 1.378 . S
C1054 C1055 1.367 . S
C1055 C1054 1.367 . S
C1055 C1057 1.433 . S
C1056 C1052 1.350 . S
C1056 C1053 1.463 . S
C1056 N1060 1.427 . S
C1057 H1047 0.929 . S
C1057 C1055 1.433 . S
C1057 N1060 1.384 . S
C1058 H1049 0.929 . S
C1058 C1050 1.378 . S
C1058 C1053 1.350 . S
C1059 H1046 0.929 . S
C1059 C1051 1.433 . S
C1059 N1061 1.384 . S
N1060 C1056 1.427 . S
N1060 C1057 1.384 . S
N1061 C1053 1.427 . S
N1061 C1059 1.384 . S
H1062 C1068 0.930 . S
H1063 C1072 0.930 . S
H1064 C1077 0.929 . S
H1065 C1075 0.929 . S
H1066 C1070 0.929 . S
H1067 C1076 0.929 . S
C1068 H1062 0.930 . S
C1068 C1069 1.367 . S
C1068 C1076 1.378 . S
C1069 C1068 1.367 . S
C1069 C1077 1.433 . S
C1070 H1066 0.929 . S
C1070 C1072 1.378 . S
C1070 C1074 1.350 . S
C1071 C1074 1.463 . S
C1071 C1076 1.350 . S
C1071 N1079 1.427 . S
C1072 H1063 0.930 . S
C1072 C1070 1.378 . S
C1072 C1073 1.367 . S
C1073 C1072 1.367 . S
C1073 C1075 1.433 . S
C1074 C1070 1.350 . S
C1074 C1071 1.463 . S
C1074 N1078 1.427 . S
C1075 H1065 0.929 . S
C1075 C1073 1.433 . S
C1075 N1078 1.384 . S
C1076 H1067 0.929 . S
C1076 C1068 1.378 . S
C1076 C1071 1.350 . S
C1077 H1064 0.929 . S
C1077 C1069 1.433 . S
C1077 N1079 1.384 . S
N1078 C1074 1.427 . S
N1078 C1075 1.384 . S
N1079 C1071 1.427 . S
N1079 C1077 1.384 . S
H1080 C1086 0.930 . S
H1081 C1090 0.930 . S
H1082 C1095 0.929 . S
H1083 C1093 0.929 . S
H1084 C1088 0.929 . S
H1085 C1094 0.929 . S
C1086 H1080 0.930 . S
C1086 C1087 1.367 . S
C1086 C1094 1.378 . S
C1087 C1086 1.367 . S
C1087 C1095 1.433 . S
C1088 H1084 0.929 . S
C1088 C1090 1.378 . S
C1088 C1092 1.350 . S
C1089 C1092 1.463 . S
C1089 C1094 1.350 . S
C1089 N1097 1.427 . S
C1090 H1081 0.930 . S
C1090 C1088 1.378 . S
C1090 C1091 1.367 . S
C1091 C1090 1.367 . S
C1091 C1093 1.433 . S
C1092 C1088 1.350 . S
C1092 C1089 1.463 . S
C1092 N1096 1.427 . S
C1093 H1083 0.929 . S
C1093 C1091 1.433 . S
C1093 N1096 1.384 . S
C1094 H1085 0.929 . S
C1094 C1086 1.378 . S
C1094 C1089 1.350 . S
C1095 H1082 0.929 . S
C1095 C1087 1.433 . S
C1095 N1097 1.384 . S
N1096 C1092 1.427 . S
N1096 C1093 1.384 . S
N1097 C1089 1.427 . S
N1097 C1095 1.384 . S
H1098 C1104 0.930 . S
H1099 C1108 0.930 . S
H1100 C1113 0.929 . S
H1101 C1111 0.929 . S
H1102 C1106 0.929 . S
H1103 C1112 0.929 . S
C1104 H1098 0.930 . S
C1104 C1105 1.367 . S
C1104 C1112 1.378 . S
C1105 C1104 1.367 . S
C1105 C1113 1.433 . S
C1106 H1102 0.929 . S
C1106 C1108 1.378 . S
C1106 C1110 1.350 . S
C1107 C1110 1.463 . S
C1107 C1112 1.350 . S
C1107 N1115 1.427 . S
C1108 H1099 0.930 . S
C1108 C1106 1.378 . S
C1108 C1109 1.367 . S
C1109 C1108 1.367 . S
C1109 C1111 1.433 . S
C1110 C1106 1.350 . S
C1110 C1107 1.463 . S
C1110 N1114 1.427 . S
C1111 H1101 0.929 . S
C1111 C1109 1.433 . S
C1111 N1114 1.384 . S
C1112 H1103 0.929 . S
C1112 C1104 1.378 . S
C1112 C1107 1.350 . S
C1113 H1100 0.929 . S
C1113 C1105 1.433 . S
C1113 N1115 1.384 . S
N1114 C1110 1.427 . S
N1114 C1111 1.384 . S
N1115 C1107 1.427 . S
N1115 C1113 1.384 . S
H1116 C1122 0.930 . S
H1117 C1126 0.930 . S
H1118 C1131 0.929 . S
H1119 C1129 0.929 . S
H1120 C1124 0.929 . S
H1121 C1130 0.929 . S
C1122 H1116 0.930 . S
C1122 C1123 1.367 . S
C1122 C1130 1.378 . S
C1123 C1122 1.367 . S
C1123 C1131 1.433 . S
C1124 H1120 0.929 . S
C1124 C1126 1.378 . S
C1124 C1128 1.350 . S
C1125 C1128 1.463 . S
C1125 C1130 1.350 . S
C1125 N1133 1.427 . S
C1126 H1117 0.930 . S
C1126 C1124 1.378 . S
C1126 C1127 1.367 . S
C1127 C1126 1.367 . S
C1127 C1129 1.433 . S
C1128 C1124 1.350 . S
C1128 C1125 1.463 . S
C1128 N1132 1.427 . S
C1129 H1119 0.929 . S
C1129 C1127 1.433 . S
C1129 N1132 1.384 . S
C1130 H1121 0.929 . S
C1130 C1122 1.378 . S
C1130 C1125 1.350 . S
C1131 H1118 0.929 . S
C1131 C1123 1.433 . S
C1131 N1133 1.384 . S
N1132 C1128 1.427 . S
N1132 C1129 1.384 . S
N1133 C1125 1.427 . S
N1133 C1131 1.384 . S
H1134 C1140 0.930 . S
H1135 C1144 0.930 . S
H1136 C1149 0.929 . S
H1137 C1147 0.929 . S
H1138 C1142 0.929 . S
H1139 C1148 0.929 . S
C1140 H1134 0.930 . S
C1140 C1141 1.367 . S
C1140 C1148 1.378 . S
C1141 C1140 1.367 . S
C1141 C1149 1.433 . S
C1142 H1138 0.929 . S
C1142 C1144 1.378 . S
C1142 C1146 1.350 . S
C1143 C1146 1.463 . S
C1143 C1148 1.350 . S
C1143 N1151 1.427 . S
C1144 H1135 0.930 . S
C1144 C1142 1.378 . S
C1144 C1145 1.367 . S
C1145 C1144 1.367 . S
C1145 C1147 1.433 . S
C1146 C1142 1.350 . S
C1146 C1143 1.463 . S
C1146 N1150 1.427 . S
C1147 H1137 0.929 . S
C1147 C1145 1.433 . S
C1147 N1150 1.384 . S
C1148 H1139 0.929 . S
C1148 C1140 1.378 . S
C1148 C1143 1.350 . S
C1149 H1136 0.929 . S
C1149 C1141 1.433 . S
C1149 N1151 1.384 . S
N1150 C1146 1.427 . S
N1150 C1147 1.384 . S
N1151 C1143 1.427 . S
N1151 C1149 1.384 . S
H1152 C1158 0.930 . S
H1153 C1162 0.930 . S
H1154 C1167 0.929 . S
H1155 C1165 0.929 . S
H1156 C1160 0.929 . S
H1157 C1166 0.929 . S
C1158 H1152 0.930 . S
C1158 C1159 1.367 . S
C1158 C1166 1.378 . S
C1159 C1158 1.367 . S
C1159 C1167 1.433 . S
C1160 H1156 0.929 . S
C1160 C1162 1.378 . S
C1160 C1164 1.350 . S
C1161 C1164 1.463 . S
C1161 C1166 1.350 . S
C1161 N1169 1.427 . S
C1162 H1153 0.930 . S
C1162 C1160 1.378 . S
C1162 C1163 1.367 . S
C1163 C1162 1.367 . S
C1163 C1165 1.433 . S
C1164 C1160 1.350 . S
C1164 C1161 1.463 . S
C1164 N1168 1.427 . S
C1165 H1155 0.929 . S
C1165 C1163 1.433 . S
C1165 N1168 1.384 . S
C1166 H1157 0.929 . S
C1166 C1158 1.378 . S
C1166 C1161 1.350 . S
C1167 H1154 0.929 . S
C1167 C1159 1.433 . S
C1167 N1169 1.384 . S
N1168 C1164 1.427 . S
N1168 C1165 1.384 . S
N1169 C1161 1.427 . S
N1169 C1167 1.384 . S
H1170 C1176 0.930 . S
H1171 C1180 0.930 . S
H1172 C1185 0.929 . S
H1173 C1183 0.929 . S
H1174 C1178 0.929 . S
H1175 C1184 0.929 . S
C1176 H1170 0.930 . S
C1176 C1177 1.367 . S
C1176 C1184 1.378 . S
C1177 C1176 1.367 . S
C1177 C1185 1.433 . S
C1178 H1174 0.929 . S
C1178 C1180 1.378 . S
C1178 C1182 1.350 . S
C1179 C1182 1.463 . S
C1179 C1184 1.350 . S
C1179 N1187 1.427 . S
C1180 H1171 0.930 . S
C1180 C1178 1.378 . S
C1180 C1181 1.367 . S
C1181 C1180 1.367 . S
C1181 C1183 1.433 . S
C1182 C1178 1.350 . S
C1182 C1179 1.463 . S
C1182 N1186 1.427 . S
C1183 H1173 0.929 . S
C1183 C1181 1.433 . S
C1183 N1186 1.384 . S
C1184 H1175 0.929 . S
C1184 C1176 1.378 . S
C1184 C1179 1.350 . S
C1185 H1172 0.929 . S
C1185 C1177 1.433 . S
C1185 N1187 1.384 . S
N1186 C1182 1.427 . S
N1186 C1183 1.384 . S
N1187 C1179 1.427 . S
N1187 C1185 1.384 . S
H1188 C1194 0.930 . S
H1189 C1198 0.930 . S
H1190 C1203 0.929 . S
H1191 C1201 0.929 . S
H1192 C1196 0.929 . S
H1193 C1202 0.929 . S
C1194 H1188 0.930 . S
C1194 C1195 1.367 . S
C1194 C1202 1.378 . S
C1195 C1194 1.367 . S
C1195 C1203 1.433 . S
C1196 H1192 0.929 . S
C1196 C1198 1.378 . S
C1196 C1200 1.350 . S
C1197 C1200 1.463 . S
C1197 C1202 1.350 . S
C1197 N1205 1.427 . S
C1198 H1189 0.930 . S
C1198 C1196 1.378 . S
C1198 C1199 1.367 . S
C1199 C1198 1.367 . S
C1199 C1201 1.433 . S
C1200 C1196 1.350 . S
C1200 C1197 1.463 . S
C1200 N1204 1.427 . S
C1201 H1191 0.929 . S
C1201 C1199 1.433 . S
C1201 N1204 1.384 . S
C1202 H1193 0.929 . S
C1202 C1194 1.378 . S
C1202 C1197 1.350 . S
C1203 H1190 0.929 . S
C1203 C1195 1.433 . S
C1203 N1205 1.384 . S
N1204 C1200 1.427 . S
N1204 C1201 1.384 . S
N1205 C1197 1.427 . S
N1205 C1203 1.384 . S
H1206 C1212 0.930 . S
H1207 C1216 0.930 . S
H1208 C1221 0.929 . S
H1209 C1219 0.929 . S
H1210 C1214 0.929 . S
H1211 C1220 0.929 . S
C1212 H1206 0.930 . S
C1212 C1213 1.367 . S
C1212 C1220 1.378 . S
C1213 C1212 1.367 . S
C1213 C1221 1.433 . S
C1214 H1210 0.929 . S
C1214 C1216 1.378 . S
C1214 C1218 1.350 . S
C1215 C1218 1.463 . S
C1215 C1220 1.350 . S
C1215 N1223 1.427 . S
C1216 H1207 0.930 . S
C1216 C1214 1.378 . S
C1216 C1217 1.367 . S
C1217 C1216 1.367 . S
C1217 C1219 1.433 . S
C1218 C1214 1.350 . S
C1218 C1215 1.463 . S
C1218 N1222 1.427 . S
C1219 H1209 0.929 . S
C1219 C1217 1.433 . S
C1219 N1222 1.384 . S
C1220 H1211 0.929 . S
C1220 C1212 1.378 . S
C1220 C1215 1.350 . S
C1221 H1208 0.929 . S
C1221 C1213 1.433 . S
C1221 N1223 1.384 . S
N1222 C1218 1.427 . S
N1222 C1219 1.384 . S
N1223 C1215 1.427 . S
N1223 C1221 1.384 . S
H1224 C1230 0.930 . S
H1225 C1234 0.930 . S
H1226 C1239 0.929 . S
H1227 C1237 0.929 . S
H1228 C1232 0.929 . S
H1229 C1238 0.929 . S
C1230 H1224 0.930 . S
C1230 C1231 1.367 . S
C1230 C1238 1.378 . S
C1231 C1230 1.367 . S
C1231 C1239 1.433 . S
C1232 H1228 0.929 . S
C1232 C1234 1.378 . S
C1232 C1236 1.350 . S
C1233 C1236 1.463 . S
C1233 C1238 1.350 . S
C1233 N1241 1.427 . S
C1234 H1225 0.930 . S
C1234 C1232 1.378 . S
C1234 C1235 1.367 . S
C1235 C1234 1.367 . S
C1235 C1237 1.433 . S
C1236 C1232 1.350 . S
C1236 C1233 1.463 . S
C1236 N1240 1.427 . S
C1237 H1227 0.929 . S
C1237 C1235 1.433 . S
C1237 N1240 1.384 . S
C1238 H1229 0.929 . S
C1238 C1230 1.378 . S
C1238 C1233 1.350 . S
C1239 H1226 0.929 . S
C1239 C1231 1.433 . S
C1239 N1241 1.384 . S
N1240 C1236 1.427 . S
N1240 C1237 1.384 . S
N1241 C1233 1.427 . S
N1241 C1239 1.384 . S
H1242 C1248 0.930 . S
H1243 C1252 0.930 . S
H1244 C1257 0.929 . S
H1245 C1255 0.929 . S
H1246 C1250 0.929 . S
H1247 C1256 0.929 . S
C1248 H1242 0.930 . S
C1248 C1249 1.367 . S
C1248 C1256 1.378 . S
C1249 C1248 1.367 . S
C1249 C1257 1.433 . S
C1250 H1246 0.929 . S
C1250 C1252 1.378 . S
C1250 C1254 1.350 . S
C1251 C1254 1.463 . S
C1251 C1256 1.350 . S
C1251 N1259 1.427 . S
C1252 H1243 0.930 . S
C1252 C1250 1.378 . S
C1252 C1253 1.367 . S
C1253 C1252 1.367 . S
C1253 C1255 1.433 . S
C1254 C1250 1.350 . S
C1254 C1251 1.463 . S
C1254 N1258 1.427 . S
C1255 H1245 0.929 . S
C1255 C1253 1.433 . S
C1255 N1258 1.384 . S
C1256 H1247 0.929 . S
C1256 C1248 1.378 . S
C1256 C1251 1.350 . S
C1257 H1244 0.929 . S
C1257 C1249 1.433 . S
C1257 N1259 1.384 . S
N1258 C1254 1.427 . S
N1258 C1255 1.384 . S
N1259 C1251 1.427 . S
N1259 C1257 1.384 . S
H1260 C1266 0.930 . S
H1261 C1270 0.930 . S
H1262 C1275 0.929 . S
H1263 C1273 0.929 . S
H1264 C1268 0.929 . S
H1265 C1274 0.929 . S
C1266 H1260 0.930 . S
C1266 C1267 1.367 . S
C1266 C1274 1.378 . S
C1267 C1266 1.367 . S
C1267 C1275 1.433 . S
C1268 H1264 0.929 . S
C1268 C1270 1.378 . S
C1268 C1272 1.350 . S
C1269 C1272 1.463 . S
C1269 C1274 1.350 . S
C1269 N1277 1.427 . S
C1270 H1261 0.930 . S
C1270 C1268 1.378 . S
C1270 C1271 1.367 . S
C1271 C1270 1.367 . S
C1271 C1273 1.433 . S
C1272 C1268 1.350 . S
C1272 C1269 1.463 . S
C1272 N1276 1.427 . S
C1273 H1263 0.929 . S
C1273 C1271 1.433 . S
C1273 N1276 1.384 . S
C1274 H1265 0.929 . S
C1274 C1266 1.378 . S
C1274 C1269 1.350 . S
C1275 H1262 0.929 . S
C1275 C1267 1.433 . S
C1275 N1277 1.384 . S
N1276 C1272 1.427 . S
N1276 C1273 1.384 . S
N1277 C1269 1.427 . S
N1277 C1275 1.384 . S
H1278 C1284 0.930 . S
H1279 C1288 0.930 . S
H1280 C1293 0.929 . S
H1281 C1291 0.929 . S
H1282 C1286 0.929 . S
H1283 C1292 0.929 . S
C1284 H1278 0.930 . S
C1284 C1285 1.367 . S
C1284 C1292 1.378 . S
C1285 C1284 1.367 . S
C1285 C1293 1.433 . S
C1286 H1282 0.929 . S
C1286 C1288 1.378 . S
C1286 C1290 1.350 . S
C1287 C1290 1.463 . S
C1287 C1292 1.350 . S
C1287 N1295 1.427 . S
C1288 H1279 0.930 . S
C1288 C1286 1.378 . S
C1288 C1289 1.367 . S
C1289 C1288 1.367 . S
C1289 C1291 1.433 . S
C1290 C1286 1.350 . S
C1290 C1287 1.463 . S
C1290 N1294 1.427 . S
C1291 H1281 0.929 . S
C1291 C1289 1.433 . S
C1291 N1294 1.384 . S
C1292 H1283 0.929 . S
C1292 C1284 1.378 . S
C1292 C1287 1.350 . S
C1293 H1280 0.929 . S
C1293 C1285 1.433 . S
C1293 N1295 1.384 . S
N1294 C1290 1.427 . S
N1294 C1291 1.384 . S
N1295 C1287 1.427 . S
N1295 C1293 1.384 . S
H1296 C1302 0.930 . S
H1297 C1306 0.930 . S
H1298 C1311 0.929 . S
H1299 C1309 0.929 . S
H1300 C1304 0.929 . S
H1301 C1310 0.929 . S
C1302 H1296 0.930 . S
C1302 C1303 1.367 . S
C1302 C1310 1.378 . S
C1303 C1302 1.367 . S
C1303 C1311 1.433 . S
C1304 H1300 0.929 . S
C1304 C1306 1.378 . S
C1304 C1308 1.350 . S
C1305 C1308 1.463 . S
C1305 C1310 1.350 . S
C1305 N1313 1.427 . S
C1306 H1297 0.930 . S
C1306 C1304 1.378 . S
C1306 C1307 1.367 . S
C1307 C1306 1.367 . S
C1307 C1309 1.433 . S
C1308 C1304 1.350 . S
C1308 C1305 1.463 . S
C1308 N1312 1.427 . S
C1309 H1299 0.929 . S
C1309 C1307 1.433 . S
C1309 N1312 1.384 . S
C1310 H1301 0.929 . S
C1310 C1302 1.378 . S
C1310 C1305 1.350 . S
C1311 H1298 0.929 . S
C1311 C1303 1.433 . S
C1311 N1313 1.384 . S
N1312 C1308 1.427 . S
N1312 C1309 1.384 . S
N1313 C1305 1.427 . S
N1313 C1311 1.384 . S
H1314 C1320 0.930 . S
H1315 C1324 0.930 . S
H1316 C1329 0.929 . S
H1317 C1327 0.929 . S
H1318 C1322 0.929 . S
H1319 C1328 0.929 1_556 S
C1320 H1314 0.930 . S
C1320 C1321 1.367 . S
C1320 C1328 1.378 . S
C1321 C1320 1.367 . S
C1321 C1329 1.433 . S
C1322 H1318 0.929 . S
C1322 C1324 1.378 . S
C1322 C1326 1.350 . S
C1323 C1326 1.463 . S
C1323 C1328 1.350 1_556 S
C1323 N1331 1.427 1_556 S
C1324 H1315 0.930 . S
C1324 C1322 1.378 . S
C1324 C1325 1.367 . S
C1325 C1324 1.367 . S
C1325 C1327 1.433 . S
C1326 C1322 1.350 . S
C1326 C1323 1.463 . S
C1326 N1330 1.427 . S
C1327 H1317 0.929 . S
C1327 C1325 1.433 . S
C1327 N1330 1.384 . S
C1328 H1319 0.929 1_554 S
C1328 C1320 1.378 . S
C1328 C1323 1.350 1_554 S
C1329 H1316 0.929 . S
C1329 C1321 1.433 . S
C1329 N1331 1.384 . S
N1330 C1326 1.427 . S
N1330 C1327 1.384 . S
N1331 C1323 1.427 1_554 S
N1331 C1329 1.384 . S
H1332 C1338 0.930 . S
H1333 C1342 0.930 . S
H1334 C1347 0.929 . S
H1335 C1345 0.929 . S
H1336 C1340 0.929 . S
H1337 C1346 0.929 . S
C1338 H1332 0.930 . S
C1338 C1339 1.367 . S
C1338 C1346 1.378 . S
C1339 C1338 1.367 . S
C1339 C1347 1.433 . S
C1340 H1336 0.929 . S
C1340 C1342 1.378 . S
C1340 C1344 1.350 . S
C1341 C1344 1.463 . S
C1341 C1346 1.350 . S
C1341 N1349 1.427 . S
C1342 H1333 0.930 . S
C1342 C1340 1.378 . S
C1342 C1343 1.367 . S
C1343 C1342 1.367 . S
C1343 C1345 1.433 . S
C1344 C1340 1.350 . S
C1344 C1341 1.463 . S
C1344 N1348 1.427 . S
C1345 H1335 0.929 . S
C1345 C1343 1.433 . S
C1345 N1348 1.384 . S
C1346 H1337 0.929 . S
C1346 C1338 1.378 . S
C1346 C1341 1.350 . S
C1347 H1334 0.929 . S
C1347 C1339 1.433 . S
C1347 N1349 1.384 . S
N1348 C1344 1.427 . S
N1348 C1345 1.384 . S
N1349 C1341 1.427 . S
N1349 C1347 1.384 . S
H1350 C1356 0.930 . S
H1351 C1360 0.930 . S
H1352 C1365 0.929 . S
H1353 C1363 0.929 . S
H1354 C1358 0.929 1_554 S
H1355 C1364 0.929 . S
C1356 H1350 0.930 . S
C1356 C1357 1.367 . S
C1356 C1364 1.378 . S
C1357 C1356 1.367 . S
C1357 C1365 1.433 . S
C1358 H1354 0.929 1_556 S
C1358 C1360 1.378 . S
C1358 C1362 1.350 1_556 S
C1359 C1362 1.463 . S
C1359 C1364 1.350 . S
C1359 N1367 1.427 . S
C1360 H1351 0.930 . S
C1360 C1358 1.378 . S
C1360 C1361 1.367 . S
C1361 C1360 1.367 . S
C1361 C1363 1.433 . S
C1362 C1358 1.350 1_554 S
C1362 C1359 1.463 . S
C1362 N1366 1.427 1_554 S
C1363 H1353 0.929 . S
C1363 C1361 1.433 . S
C1363 N1366 1.384 . S
C1364 H1355 0.929 . S
C1364 C1356 1.378 . S
C1364 C1359 1.350 . S
C1365 H1352 0.929 . S
C1365 C1357 1.433 . S
C1365 N1367 1.384 . S
N1366 C1362 1.427 1_556 S
N1366 C1363 1.384 . S
N1367 C1359 1.427 . S
N1367 C1365 1.384 . S
H1368 C1374 0.930 . S
H1369 C1378 0.930 . S
H1370 C1383 0.929 . S
H1371 C1381 0.929 . S
H1372 C1376 0.929 . S
H1373 C1382 0.929 . S
C1374 H1368 0.930 . S
C1374 C1375 1.367 . S
C1374 C1382 1.378 . S
C1375 C1374 1.367 . S
C1375 C1383 1.433 . S
C1376 H1372 0.929 . S
C1376 C1378 1.378 . S
C1376 C1380 1.350 . S
C1377 C1380 1.463 . S
C1377 C1382 1.350 . S
C1377 N1385 1.427 . S
C1378 H1369 0.930 . S
C1378 C1376 1.378 . S
C1378 C1379 1.367 . S
C1379 C1378 1.367 . S
C1379 C1381 1.433 . S
C1380 C1376 1.350 . S
C1380 C1377 1.463 . S
C1380 N1384 1.427 . S
C1381 H1371 0.929 . S
C1381 C1379 1.433 . S
C1381 N1384 1.384 . S
C1382 H1373 0.929 . S
C1382 C1374 1.378 . S
C1382 C1377 1.350 . S
C1383 H1370 0.929 . S
C1383 C1375 1.433 . S
C1383 N1385 1.384 . S
N1384 C1380 1.427 . S
N1384 C1381 1.384 . S
N1385 C1377 1.427 . S
N1385 C1383 1.384 . S
H1386 C1392 0.930 . S
H1387 C1396 0.930 . S
H1388 C1401 0.929 . S
H1389 C1399 0.929 . S
H1390 C1394 0.929 . S
H1391 C1400 0.955 . S
C1392 H1386 0.930 . S
C1392 C1393 1.367 . S
C1392 C1400 1.341 1_655 S
C1393 C1392 1.367 . S
C1393 C1401 1.433 . S
C1394 H1390 0.929 . S
C1394 C1396 1.378 . S
C1394 C1398 1.350 . S
C1395 C1398 1.463 . S
C1395 C1400 1.362 . S
C1395 N1403 1.427 1_455 S
C1396 H1387 0.930 . S
C1396 C1394 1.378 . S
C1396 C1397 1.367 . S
C1397 C1396 1.367 . S
C1397 C1399 1.433 . S
C1398 C1394 1.350 . S
C1398 C1395 1.463 . S
C1398 N1402 1.427 . S
C1399 H1389 0.929 . S
C1399 C1397 1.433 . S
C1399 N1402 1.384 . S
C1400 H1391 0.955 . S
C1400 C1392 1.341 1_455 S
C1400 C1395 1.362 . S
C1401 H1388 0.929 . S
C1401 C1393 1.433 . S
C1401 N1403 1.384 . S
N1402 C1398 1.427 . S
N1402 C1399 1.384 . S
N1403 C1395 1.427 1_655 S
N1403 C1401 1.384 . S
H1404 C1410 0.930 . S
H1405 C1414 0.930 . S
H1406 C1419 0.929 . S
H1407 C1417 0.929 . S
H1408 C1412 0.929 . S
H1409 C1418 0.929 . S
C1410 H1404 0.930 . S
C1410 C1411 1.367 . S
C1410 C1418 1.378 . S
C1411 C1410 1.367 . S
C1411 C1419 1.433 . S
C1412 H1408 0.929 . S
C1412 C1414 1.378 . S
C1412 C1416 1.350 . S
C1413 C1416 1.463 . S
C1413 C1418 1.350 1_655 S
C1413 N1421 1.427 . S
C1414 H1405 0.930 . S
C1414 C1412 1.378 . S
C1414 C1415 1.367 . S
C1415 C1414 1.367 . S
C1415 C1417 1.433 . S
C1416 C1412 1.350 . S
C1416 C1413 1.463 . S
C1416 N1420 1.427 . S
C1417 H1407 0.929 . S
C1417 C1415 1.433 . S
C1417 N1420 1.384 . S
C1418 H1409 0.929 . S
C1418 C1410 1.378 . S
C1418 C1413 1.350 1_455 S
C1419 H1406 0.929 . S
C1419 C1411 1.433 . S
C1419 N1421 1.385 1_455 S
N1420 C1416 1.427 . S
N1420 C1417 1.384 . S
N1421 C1413 1.427 . S
N1421 C1419 1.385 1_655 S
H1422 C1428 0.930 . S
H1423 C1432 0.930 . S
H1424 C1437 0.929 . S
H1425 C1435 0.929 . S
H1426 C1430 0.929 . S
H1427 C1436 0.929 . S
C1428 H1422 0.930 . S
C1428 C1429 1.367 . S
C1428 C1436 1.378 . S
C1429 C1428 1.367 . S
C1429 C1437 1.433 . S
C1430 H1426 0.929 . S
C1430 C1432 1.378 . S
C1430 C1434 1.350 . S
C1431 C1434 1.463 . S
C1431 C1436 1.350 . S
C1431 N1439 1.427 . S
C1432 H1423 0.930 . S
C1432 C1430 1.378 . S
C1432 C1433 1.367 . S
C1433 C1432 1.367 . S
C1433 C1435 1.433 . S
C1434 C1430 1.350 . S
C1434 C1431 1.463 . S
C1434 N1438 1.427 . S
C1435 H1425 0.929 . S
C1435 C1433 1.433 . S
C1435 N1438 1.384 . S
C1436 H1427 0.929 . S
C1436 C1428 1.378 . S
C1436 C1431 1.350 . S
C1437 H1424 0.929 . S
C1437 C1429 1.433 . S
C1437 N1439 1.384 . S
N1438 C1434 1.427 . S
N1438 C1435 1.384 . S
N1439 C1431 1.427 . S
N1439 C1437 1.384 . S
H1440 C1446 0.930 . S
H1441 C1450 0.930 . S
H1442 C1455 0.929 . S
H1443 C1453 0.929 . S
H1444 C1448 0.929 . S
H1445 C1454 0.929 . S
C1446 H1440 0.930 . S
C1446 C1447 1.367 . S
C1446 C1454 1.378 . S
C1447 C1446 1.367 . S
C1447 C1455 1.433 . S
C1448 H1444 0.929 . S
C1448 C1450 1.378 . S
C1448 C1452 1.350 . S
C1449 C1452 1.463 . S
C1449 C1454 1.350 . S
C1449 N1457 1.427 . S
C1450 H1441 0.930 . S
C1450 C1448 1.378 . S
C1450 C1451 1.367 . S
C1451 C1450 1.367 . S
C1451 C1453 1.433 . S
C1452 C1448 1.350 . S
C1452 C1449 1.463 . S
C1452 N1456 1.427 . S
C1453 H1443 0.929 . S
C1453 C1451 1.433 . S
C1453 N1456 1.384 . S
C1454 H1445 0.929 . S
C1454 C1446 1.378 . S
C1454 C1449 1.350 . S
C1455 H1442 0.929 . S
C1455 C1447 1.433 . S
C1455 N1457 1.384 . S
N1456 C1452 1.427 . S
N1456 C1453 1.384 . S
N1457 C1449 1.427 . S
N1457 C1455 1.384 . S
H1458 C1464 0.930 . S
H1459 C1468 0.930 . S
H1460 C1473 0.929 . S
H1461 C1471 0.929 . S
H1462 C1466 0.929 . S
H1463 C1472 0.929 1_545 S
C1464 H1458 0.930 . S
C1464 C1465 1.367 . S
C1464 C1472 1.378 . S
C1465 C1464 1.367 . S
C1465 C1473 1.433 . S
C1466 H1462 0.929 . S
C1466 C1468 1.378 . S
C1466 C1470 1.350 . S
C1467 C1470 1.463 . S
C1467 C1472 1.350 1_545 S
C1467 N1475 1.427 . S
C1468 H1459 0.930 . S
C1468 C1466 1.378 . S
C1468 C1469 1.367 . S
C1469 C1468 1.367 . S
C1469 C1471 1.433 . S
C1470 C1466 1.350 . S
C1470 C1467 1.463 . S
C1470 N1474 1.427 . S
C1471 H1461 0.929 . S
C1471 C1469 1.433 . S
C1471 N1474 1.384 . S
C1472 H1463 0.929 1_565 S
C1472 C1464 1.378 . S
C1472 C1467 1.350 1_565 S
C1473 H1460 0.929 . S
C1473 C1465 1.433 . S
C1473 N1475 1.385 1_565 S
N1474 C1470 1.427 . S
N1474 C1471 1.384 . S
N1475 C1467 1.427 . S
N1475 C1473 1.385 1_545 S
H1476 C1482 0.930 . S
H1477 C1486 0.930 . S
H1478 C1491 0.929 . S
H1479 C1489 0.929 . S
H1480 C1484 0.929 . S
H1481 C1490 0.929 . S
C1482 H1476 0.930 . S
C1482 C1483 1.367 . S
C1482 C1490 1.378 . S
C1483 C1482 1.367 . S
C1483 C1491 1.433 . S
C1484 H1480 0.929 . S
C1484 C1486 1.378 . S
C1484 C1488 1.350 . S
C1485 C1488 1.463 . S
C1485 C1490 1.350 1_565 S
C1485 N1493 1.427 . S
C1486 H1477 0.930 . S
C1486 C1484 1.378 . S
C1486 C1487 1.367 . S
C1487 C1486 1.367 . S
C1487 C1489 1.433 . S
C1488 C1484 1.350 . S
C1488 C1485 1.463 . S
C1488 N1492 1.427 . S
C1489 H1479 0.929 . S
C1489 C1487 1.433 . S
C1489 N1492 1.384 . S
C1490 H1481 0.929 . S
C1490 C1482 1.378 . S
C1490 C1485 1.350 1_545 S
C1491 H1478 0.929 . S
C1491 C1483 1.433 . S
C1491 N1493 1.384 1_545 S
N1492 C1488 1.427 . S
N1492 C1489 1.384 . S
N1493 C1485 1.427 . S
N1493 C1491 1.384 1_565 S
H1494 C1500 0.930 . S
H1495 C1504 0.930 . S
H1496 C1509 0.929 . S
H1497 C1507 0.929 . S
H1498 C1502 0.929 . S
H1499 C1508 0.929 . S
C1500 H1494 0.930 . S
C1500 C1501 1.367 . S
C1500 C1508 1.378 . S
C1501 C1500 1.367 . S
C1501 C1509 1.433 . S
C1502 H1498 0.929 . S
C1502 C1504 1.378 . S
C1502 C1506 1.350 . S
C1503 C1506 1.463 . S
C1503 C1508 1.350 . S
C1503 N1511 1.427 . S
C1504 H1495 0.930 . S
C1504 C1502 1.378 . S
C1504 C1505 1.367 . S
C1505 C1504 1.367 . S
C1505 C1507 1.433 . S
C1506 C1502 1.350 . S
C1506 C1503 1.463 . S
C1506 N1510 1.427 . S
C1507 H1497 0.929 . S
C1507 C1505 1.433 . S
C1507 N1510 1.384 . S
C1508 H1499 0.929 . S
C1508 C1500 1.378 . S
C1508 C1503 1.350 . S
C1509 H1496 0.929 . S
C1509 C1501 1.433 . S
C1509 N1511 1.384 . S
N1510 C1506 1.427 . S
N1510 C1507 1.384 . S
N1511 C1503 1.427 . S
N1511 C1509 1.384 . S
H1512 C1518 0.930 . S
H1513 C1522 0.930 . S
H1514 C1527 0.929 . S
H1515 C1525 0.929 . S
H1516 C1520 0.929 . S
H1517 C1526 0.929 . S
C1518 H1512 0.930 . S
C1518 C1519 1.367 . S
C1518 C1526 1.378 . S
C1519 C1518 1.367 . S
C1519 C1527 1.433 . S
C1520 H1516 0.929 . S
C1520 C1522 1.378 . S
C1520 C1524 1.350 . S
C1521 C1524 1.463 . S
C1521 C1526 1.350 . S
C1521 N1529 1.427 . S
C1522 H1513 0.930 . S
C1522 C1520 1.378 . S
C1522 C1523 1.367 . S
C1523 C1522 1.367 . S
C1523 C1525 1.433 . S
C1524 C1520 1.350 . S
C1524 C1521 1.463 . S
C1524 N1528 1.427 . S
C1525 H1515 0.929 . S
C1525 C1523 1.433 . S
C1525 N1528 1.384 . S
C1526 H1517 0.929 . S
C1526 C1518 1.378 . S
C1526 C1521 1.350 . S
C1527 H1514 0.929 . S
C1527 C1519 1.433 . S
C1527 N1529 1.384 . S
N1528 C1524 1.427 . S
N1528 C1525 1.384 . S
N1529 C1521 1.427 . S
N1529 C1527 1.384 . S
H1530 C1536 0.930 . S
H1531 C1540 0.930 . S
H1532 C1545 0.929 . S
H1533 C1543 0.929 . S
H1534 C1538 0.929 . S
H1535 C1544 0.929 . S
C1536 H1530 0.930 . S
C1536 C1537 1.367 . S
C1536 C1544 1.378 1_556 S
C1537 C1536 1.367 . S
C1537 C1545 1.433 . S
C1538 H1534 0.929 . S
C1538 C1540 1.378 . S
C1538 C1542 1.350 . S
C1539 C1542 1.463 . S
C1539 C1544 1.350 . S
C1539 N1547 1.427 1_554 S
C1540 H1531 0.930 . S
C1540 C1538 1.378 . S
C1540 C1541 1.367 . S
C1541 C1540 1.367 . S
C1541 C1543 1.433 . S
C1542 C1538 1.350 . S
C1542 C1539 1.463 . S
C1542 N1546 1.427 . S
C1543 H1533 0.929 . S
C1543 C1541 1.433 . S
C1543 N1546 1.384 . S
C1544 H1535 0.929 . S
C1544 C1536 1.378 1_554 S
C1544 C1539 1.350 . S
C1545 H1532 0.929 . S
C1545 C1537 1.433 . S
C1545 N1547 1.384 . S
N1546 C1542 1.427 . S
N1546 C1543 1.384 . S
N1547 C1539 1.427 1_556 S
N1547 C1545 1.384 . S
H1548 C1554 0.930 . S
H1549 C1558 0.930 . S
H1550 C1563 0.929 . S
H1551 C1561 0.929 . S
H1552 C1556 0.929 . S
H1553 C1562 0.929 . S
C1554 H1548 0.930 . S
C1554 C1555 1.367 . S
C1554 C1562 1.378 . S
C1555 C1554 1.367 . S
C1555 C1563 1.433 . S
C1556 H1552 0.929 . S
C1556 C1558 1.378 . S
C1556 C1560 1.350 . S
C1557 C1560 1.463 . S
C1557 C1562 1.350 . S
C1557 N1565 1.427 . S
C1558 H1549 0.930 . S
C1558 C1556 1.378 . S
C1558 C1559 1.367 . S
C1559 C1558 1.367 . S
C1559 C1561 1.433 . S
C1560 C1556 1.350 . S
C1560 C1557 1.463 . S
C1560 N1564 1.427 . S
C1561 H1551 0.929 . S
C1561 C1559 1.433 . S
C1561 N1564 1.384 . S
C1562 H1553 0.929 . S
C1562 C1554 1.378 . S
C1562 C1557 1.350 . S
C1563 H1550 0.929 . S
C1563 C1555 1.433 . S
C1563 N1565 1.384 . S
N1564 C1560 1.427 . S
N1564 C1561 1.384 . S
N1565 C1557 1.427 . S
N1565 C1563 1.384 . S
H1566 C1572 0.930 . S
H1567 C1576 0.930 . S
H1568 C1581 0.929 . S
H1569 C1579 0.929 . S
H1570 C1574 0.929 . S
H1571 C1580 0.936 . S
C1572 H1566 0.930 . S
C1572 C1573 1.367 . S
C1572 C1580 1.378 . S
C1573 C1572 1.367 . S
C1573 C1581 1.433 . S
C1574 H1570 0.929 . S
C1574 C1576 1.378 . S
C1574 C1578 1.350 . S
C1575 C1578 1.463 . S
C1575 C1580 1.350 1_556 S
C1575 N1583 1.427 . S
C1576 H1567 0.930 . S
C1576 C1574 1.378 . S
C1576 C1577 1.367 . S
C1577 C1576 1.367 . S
C1577 C1579 1.433 . S
C1578 C1574 1.350 . S
C1578 C1575 1.463 . S
C1578 N1582 1.427 . S
C1579 H1569 0.929 . S
C1579 C1577 1.433 . S
C1579 N1582 1.384 . S
C1580 H1571 0.936 . S
C1580 C1572 1.378 . S
C1580 C1575 1.350 1_554 S
C1581 H1568 0.929 . S
C1581 C1573 1.433 . S
C1581 N1583 1.384 1_554 S
N1582 C1578 1.427 . S
N1582 C1579 1.384 . S
N1583 C1575 1.427 . S
N1583 C1581 1.384 1_556 S
H1584 C1590 0.930 . S
H1585 C1594 0.930 . S
H1586 C1599 0.929 . S
H1587 C1597 0.929 . S
H1588 C1592 0.929 . S
H1589 C1598 0.929 . S
C1590 H1584 0.930 . S
C1590 C1591 1.367 . S
C1590 C1598 1.378 . S
C1591 C1590 1.367 . S
C1591 C1599 1.433 . S
C1592 H1588 0.929 . S
C1592 C1594 1.378 . S
C1592 C1596 1.350 . S
C1593 C1596 1.463 . S
C1593 C1598 1.350 . S
C1593 N1601 1.427 . S
C1594 H1585 0.930 . S
C1594 C1592 1.378 . S
C1594 C1595 1.367 . S
C1595 C1594 1.367 . S
C1595 C1597 1.433 . S
C1596 C1592 1.350 . S
C1596 C1593 1.463 . S
C1596 N1600 1.427 . S
C1597 H1587 0.929 . S
C1597 C1595 1.433 . S
C1597 N1600 1.384 . S
C1598 H1589 0.929 . S
C1598 C1590 1.378 . S
C1598 C1593 1.350 . S
C1599 H1586 0.929 . S
C1599 C1591 1.433 . S
C1599 N1601 1.384 . S
N1600 C1596 1.427 . S
N1600 C1597 1.384 . S
N1601 C1593 1.427 . S
N1601 C1599 1.384 . S
H1602 C1608 0.930 . S
H1603 C1612 0.930 . S
H1604 C1617 0.929 . S
H1605 C1615 0.929 . S
H1606 C1610 0.918 1_655 S
H1607 C1616 0.929 . S
C1608 H1602 0.930 . S
C1608 C1609 1.367 . S
C1608 C1616 1.378 . S
C1609 C1608 1.367 . S
C1609 C1617 1.433 . S
C1610 H1606 0.918 1_455 S
C1610 C1612 1.378 . S
C1610 C1614 1.350 1_455 S
C1611 C1614 1.463 . S
C1611 C1616 1.350 . S
C1611 N1619 1.427 . S
C1612 H1603 0.930 . S
C1612 C1610 1.378 . S
C1612 C1613 1.367 . S
C1613 C1612 1.367 . S
C1613 C1615 1.433 . S
C1614 C1610 1.350 1_655 S
C1614 C1611 1.463 . S
C1614 N1618 1.427 1_655 S
C1615 H1605 0.929 . S
C1615 C1613 1.433 . S
C1615 N1618 1.384 . S
C1616 H1607 0.929 . S
C1616 C1608 1.378 . S
C1616 C1611 1.350 . S
C1617 H1604 0.929 . S
C1617 C1609 1.433 . S
C1617 N1619 1.384 . S
N1618 C1614 1.427 1_455 S
N1618 C1615 1.384 . S
N1619 C1611 1.427 . S
N1619 C1617 1.384 . S
H1620 C1626 0.930 . S
H1621 C1630 0.930 . S
H1622 C1635 0.929 . S
H1623 C1633 0.929 . S
H1624 C1628 0.929 . S
H1625 C1634 0.929 . S
C1626 H1620 0.930 . S
C1626 C1627 1.367 . S
C1626 C1634 1.378 . S
C1627 C1626 1.367 . S
C1627 C1635 1.433 . S
C1628 H1624 0.929 . S
C1628 C1630 1.378 1_455 S
C1628 C1632 1.350 . S
C1629 C1632 1.463 . S
C1629 C1634 1.350 . S
C1629 N1637 1.427 . S
C1630 H1621 0.930 . S
C1630 C1628 1.378 1_655 S
C1630 C1631 1.367 . S
C1631 C1630 1.367 . S
C1631 C1633 1.433 . S
C1632 C1628 1.350 . S
C1632 C1629 1.463 . S
C1632 N1636 1.427 1_455 S
C1633 H1623 0.929 . S
C1633 C1631 1.433 . S
C1633 N1636 1.384 . S
C1634 H1625 0.929 . S
C1634 C1626 1.378 . S
C1634 C1629 1.350 . S
C1635 H1622 0.929 . S
C1635 C1627 1.433 . S
C1635 N1637 1.384 . S
N1636 C1632 1.427 1_655 S
N1636 C1633 1.384 . S
N1637 C1629 1.427 . S
N1637 C1635 1.384 . S
H1638 C1644 0.930 . S
H1639 C1648 0.930 . S
H1640 C1653 0.929 . S
H1641 C1651 0.929 . S
H1642 C1646 0.929 . S
H1643 C1652 0.929 . S
C1644 H1638 0.930 . S
C1644 C1645 1.367 . S
C1644 C1652 1.378 . S
C1645 C1644 1.367 . S
C1645 C1653 1.433 . S
C1646 H1642 0.929 . S
C1646 C1648 1.378 . S
C1646 C1650 1.350 . S
C1647 C1650 1.463 . S
C1647 C1652 1.350 . S
C1647 N1655 1.427 . S
C1648 H1639 0.930 . S
C1648 C1646 1.378 . S
C1648 C1649 1.367 . S
C1649 C1648 1.367 . S
C1649 C1651 1.433 . S
C1650 C1646 1.350 . S
C1650 C1647 1.463 . S
C1650 N1654 1.427 . S
C1651 H1641 0.929 . S
C1651 C1649 1.433 . S
C1651 N1654 1.384 . S
C1652 H1643 0.929 . S
C1652 C1644 1.378 . S
C1652 C1647 1.350 . S
C1653 H1640 0.929 . S
C1653 C1645 1.433 . S
C1653 N1655 1.384 . S
N1654 C1650 1.427 . S
N1654 C1651 1.384 . S
N1655 C1647 1.427 . S
N1655 C1653 1.384 . S
H1656 C1662 0.930 . S
H1657 C1666 0.930 . S
H1658 C1671 0.929 . S
H1659 C1669 0.929 . S
H1660 C1664 0.929 . S
H1661 C1670 0.929 . S
C1662 H1656 0.930 . S
C1662 C1663 1.367 . S
C1662 C1670 1.378 . S
C1663 C1662 1.367 . S
C1663 C1671 1.433 . S
C1664 H1660 0.929 . S
C1664 C1666 1.378 . S
C1664 C1668 1.350 . S
C1665 C1668 1.463 . S
C1665 C1670 1.350 . S
C1665 N1673 1.427 . S
C1666 H1657 0.930 . S
C1666 C1664 1.378 . S
C1666 C1667 1.367 . S
C1667 C1666 1.367 . S
C1667 C1669 1.433 . S
C1668 C1664 1.350 . S
C1668 C1665 1.463 . S
C1668 N1672 1.427 . S
C1669 H1659 0.929 . S
C1669 C1667 1.433 . S
C1669 N1672 1.384 . S
C1670 H1661 0.929 . S
C1670 C1662 1.378 . S
C1670 C1665 1.350 . S
C1671 H1658 0.929 . S
C1671 C1663 1.433 . S
C1671 N1673 1.384 . S
N1672 C1668 1.427 . S
N1672 C1669 1.384 . S
N1673 C1665 1.427 . S
N1673 C1671 1.384 . S
H1674 C1680 0.930 . S
H1675 C1684 0.930 . S
H1676 C1689 0.929 . S
H1677 C1687 0.929 . S
H1678 C1682 0.929 1_565 S
H1679 C1688 0.929 . S
C1680 H1674 0.930 . S
C1680 C1681 1.367 . S
C1680 C1688 1.378 . S
C1681 C1680 1.367 . S
C1681 C1689 1.433 . S
C1682 H1678 0.929 1_545 S
C1682 C1684 1.378 . S
C1682 C1686 1.350 1_545 S
C1683 C1686 1.463 . S
C1683 C1688 1.350 . S
C1683 N1691 1.427 . S
C1684 H1675 0.930 . S
C1684 C1682 1.378 . S
C1684 C1685 1.367 . S
C1685 C1684 1.367 . S
C1685 C1687 1.433 . S
C1686 C1682 1.350 1_565 S
C1686 C1683 1.463 . S
C1686 N1690 1.427 1_565 S
C1687 H1677 0.929 . S
C1687 C1685 1.433 . S
C1687 N1690 1.384 . S
C1688 H1679 0.929 . S
C1688 C1680 1.378 . S
C1688 C1683 1.350 . S
C1689 H1676 0.929 . S
C1689 C1681 1.433 . S
C1689 N1691 1.384 . S
N1690 C1686 1.427 1_545 S
N1690 C1687 1.384 . S
N1691 C1683 1.427 . S
N1691 C1689 1.384 . S
H1692 C1698 0.930 . S
H1693 C1702 0.930 . S
H1694 C1707 0.929 . S
H1695 C1705 0.929 . S
H1696 C1700 0.929 . S
H1697 C1706 0.929 1_545 S
C1698 H1692 0.930 . S
C1698 C1699 1.367 . S
C1698 C1706 1.378 . S
C1699 C1698 1.367 . S
C1699 C1707 1.433 . S
C1700 H1696 0.929 . S
C1700 C1702 1.378 . S
C1700 C1704 1.350 . S
C1701 C1704 1.463 . S
C1701 C1706 1.350 1_545 S
C1701 N1709 1.427 1_545 S
C1702 H1693 0.930 . S
C1702 C1700 1.378 . S
C1702 C1703 1.367 . S
C1703 C1702 1.367 . S
C1703 C1705 1.433 . S
C1704 C1700 1.350 . S
C1704 C1701 1.463 . S
C1704 N1708 1.427 . S
C1705 H1695 0.929 . S
C1705 C1703 1.433 . S
C1705 N1708 1.384 . S
C1706 H1697 0.929 1_565 S
C1706 C1698 1.378 . S
C1706 C1701 1.350 1_565 S
C1707 H1694 0.929 . S
C1707 C1699 1.433 . S
C1707 N1709 1.384 . S
N1708 C1704 1.427 . S
N1708 C1705 1.384 . S
N1709 C1701 1.427 1_565 S
N1709 C1707 1.384 . S
H1710 C1716 0.930 . S
H1711 C1720 0.930 . S
H1712 C1725 0.929 . S
H1713 C1723 0.929 . S
H1714 C1718 0.929 . S
H1715 C1724 0.929 . S
C1716 H1710 0.930 . S
C1716 C1717 1.367 . S
C1716 C1724 1.378 . S
C1717 C1716 1.367 . S
C1717 C1725 1.433 . S
C1718 H1714 0.929 . S
C1718 C1720 1.378 . S
C1718 C1722 1.350 . S
C1719 C1722 1.463 . S
C1719 C1724 1.350 . S
C1719 N1727 1.427 . S
C1720 H1711 0.930 . S
C1720 C1718 1.378 . S
C1720 C1721 1.367 . S
C1721 C1720 1.367 . S
C1721 C1723 1.433 . S
C1722 C1718 1.350 . S
C1722 C1719 1.463 . S
C1722 N1726 1.427 . S
C1723 H1713 0.929 . S
C1723 C1721 1.433 . S
C1723 N1726 1.384 . S
C1724 H1715 0.929 . S
C1724 C1716 1.378 . S
C1724 C1719 1.350 . S
C1725 H1712 0.929 . S
C1725 C1717 1.433 . S
C1725 N1727 1.384 . S
N1726 C1722 1.427 . S
N1726 C1723 1.384 . S
N1727 C1719 1.427 . S
N1727 C1725 1.384 . S
C871 C291 0.997 . S
C875 C3 0.978 . S
C889 C39 0.991 . S
C893 C399 0.996 . S
C907 C75 0.979 . S
C911 C327 0.996 . S
C925 C111 0.991 . S
C929 C363 0.996 . S
C943 C147 1.018 . S
C947 C2 1.011 . S
C961 C38 0.989 . S
C965 C183 1.022 . S
C979 C219 1.025 . S
C983 C74 0.989 . S
C997 C110 0.996 . S
C1001 C255 1.028 . S
C1015 C146 1.062 . S
C1019 C290 1.048 . S
C1033 C218 1.080 . S
C1037 C326 1.050 . S
C1051 C362 1.047 . S
C1055 C254 1.080 . S
C1069 C182 1.080 . S
C1073 C398 1.054 . S
C1087 C722 1.013 . S
C1091 C435 1.021 . S
C1105 C471 1.011 . S
C1109 C830 1.007 . S
C1123 C507 1.025 . S
C1127 C758 1.006 . S
C1141 C794 0.997 . S
C1145 C543 1.015 . S
C1159 C579 1.032 . S
C1163 C434 1.031 . S
C1177 C470 1.016 . S
C1181 C615 1.045 . S
C1195 C506 1.015 . S
C1199 C651 1.044 . S
C1213 C687 1.034 . S
C1217 C542 1.034 . S
C1231 C723 1.023 . S
C1235 C578 1.001 . S
C1249 C650 1.006 . S
C1253 C759 1.019 . S
C1267 C686 1.010 . S
C1271 C795 1.032 . S
C1285 C831 1.022 . S
C1289 C614 1.021 . S
C1303 C806 1.337 . S
C1307 C4 1.344 . S
C1321 C770 1.344 . S
C1325 C40 1.347 . S
C1339 C842 1.343 . S
C1343 C76 1.346 . S
C1357 C112 1.348 . S
C1361 C734 1.344 . S
C1375 C148 1.369 . S
C1379 C482 1.350 . S
C1393 C446 1.356 . S
C1397 C184 1.375 . S
C1411 C554 1.349 . S
C1415 C220 1.371 . S
C1429 C518 1.357 . S
C1433 C256 1.366 . S
C1447 C302 1.349 . S
C1451 C662 1.328 . S
C1465 C590 1.328 . S
C1469 C338 1.345 . S
C1483 C626 1.330 . S
C1487 C374 1.349 . S
C1501 C698 1.328 . S
C1505 C410 1.348 . S
C1519 C364 1.417 . S
C1523 C436 1.410 . S
C1537 C328 1.415 . S
C1541 C472 1.408 . S
C1555 C508 1.407 . S
C1559 C400 1.420 . S
C1573 C292 1.420 . S
C1577 C544 1.403 . S
C1591 C580 1.375 . S
C1595 C50 1.375 . S
C1609 C616 1.380 . S
C1613 C14 1.364 . S
C1627 C652 1.379 . S
C1631 C122 1.375 . S
C1645 C688 1.373 . S
C1649 C86 1.371 . S
C1663 C724 1.376 . S
C1667 C230 1.364 . S
C1681 C760 1.385 . S
C1685 C158 1.367 . S
C1699 C194 1.373 . S
C1703 C796 1.382 . S
C1717 C832 1.376 . S
C1721 C266 1.365 . S
