# Generated by pormake.
# Topology vby, (6)-cn, num edge types: 1
# Building blocks:
#     Node 0, Type 0, BuildingBlock: BETFEN_clean_sbu_0, # of connection points: 6
#     Node 1, Type 0, BuildingBlock: BETFEN_clean_sbu_0, # of connection points: 6
#     Node 2, Type 0, BuildingBlock: BETFEN_clean_sbu_0, # of connection points: 6
#     Node 3, Type 0, BuildingBlock: BETFEN_clean_sbu_0, # of connection points: 6
#     Node 4, Type 0, BuildingBlock: BETFEN_clean_sbu_0, # of connection points: 6
#     Node 5, Type 0, BuildingBlock: BETFEN_clean_sbu_0, # of connection points: 6
#     Node 6, Type 0, BuildingBlock: BETFEN_clean_sbu_0, # of connection points: 6
#     Node 7, Type 0, BuildingBlock: BETFEN_clean_sbu_0, # of connection points: 6
#     Edge 8, Type (0, 0), None
#     Edge 9, Type (0, 0), None
#     Edge 10, Type (0, 0), None
#     Edge 11, Type (0, 0), None
#     Edge 12, Type (0, 0), None
#     Edge 13, Type (0, 0), None
#     Edge 14, Type (0, 0), None
#     Edge 15, Type (0, 0), None
#     Edge 16, Type (0, 0), None
#     Edge 17, Type (0, 0), None
#     Edge 18, Type (0, 0), None
#     Edge 19, Type (0, 0), None
#     Edge 20, Type (0, 0), None
#     Edge 21, Type (0, 0), None
#     Edge 22, Type (0, 0), None
#     Edge 23, Type (0, 0), None
#     Edge 24, Type (0, 0), None
#     Edge 25, Type (0, 0), None
#     Edge 26, Type (0, 0), None
#     Edge 27, Type (0, 0), None
#     Edge 28, Type (0, 0), None
#     Edge 29, Type (0, 0), None
#     Edge 30, Type (0, 0), None
#     Edge 31, Type (0, 0), None
# Relax obj value: 0.190
# Max RMSD: 0.233
# Mean RMSD: 0.233
data_MOF--net-vby--node1-BETFEN_clean_sbu_0--edge1-none
_symmetry_space_group_name_H-M    P1
_symmetry_Int_Tables_number       1
_symmetry_cell_setting            triclinic
loop_
_symmetry_equiv_pos_as_xyz
'x, y, z'
_cell_length_a     7.1217584
_cell_length_b     67.612496
_cell_length_c     13.007838
_cell_angle_alpha  90.03845
_cell_angle_beta   92.536348
_cell_angle_gamma 89.998471
loop_
_atom_site_label
_atom_site_type_symbol
_atom_site_fract_x
_atom_site_fract_y
_atom_site_fract_z
_atom_type_partial_charge
Pr0 Pr 1.02911 0.41184 0.00419 0.0
Pr1 Pr 1.0354 0.45603 0.0109 0.0
C2 C 1.00465 0.37259 0.96688 0.0
C3 C 0.10431 0.35358 0.98511 0.0
C4 C 1.00671 0.33744 0.0247 0.0
C5 C 0.09437 0.31901 0.03738 0.0
C6 C 0.28167 0.31625 0.01008 0.0
C7 C 0.37974 0.33249 0.97113 0.0
C8 C 0.29228 0.35096 0.959 0.0
C9 C 0.09291 0.42683 0.205 0.0
C10 C 0.43767 0.43411 0.01644 0.0
C11 C 0.98919 0.49574 0.01291 0.0
C12 C 0.85283 0.51222 0.01961 0.0
C13 C 0.68774 0.5126 0.95611 0.0
C14 C 0.57554 0.52957 0.94965 0.0
C15 C 0.6238 0.5466 0.0074 0.0
C16 C 0.78579 0.5459 0.07379 0.0
C17 C 0.89938 0.52895 0.0793 0.0
C18 C 0.09046 0.43944 0.81609 0.0
C19 C 0.62283 0.43414 0.01343 0.0
O20 O 0.07866 0.38523 0.90397 0.0
O21 O 0.92822 0.38104 0.04542 0.0
O22 O 0.97401 0.4335 0.13909 0.0
O23 O 0.18299 0.41209 0.16673 0.0
O24 O 0.35077 0.44957 0.05404 0.0
O25 O 0.34492 0.41873 0.97813 0.0
O26 O 1.04303 0.48585 0.09582 0.0
O27 O 0.97225 0.4847 0.93074 0.0
O28 O 0.96424 0.43443 0.87582 0.0
O29 O 0.19742 0.45279 0.859 0.0
O30 O 0.70726 0.41787 0.98518 0.0
O31 O 0.71647 0.45038 0.03711 0.0
H32 H 0.86132 0.33902 0.04461 0.0
H33 H 1.01394 0.30679 0.06652 0.0
H34 H 0.52475 0.33096 0.95057 0.0
H35 H 0.37156 0.36312 0.92844 0.0
H36 H 0.64834 0.5 0.90833 0.0
H37 H 0.4541 0.52947 0.89658 0.0
H38 H 0.82618 0.5585 0.12119 0.0
H39 H 1.02672 0.52913 0.12808 0.0
Pr40 Pr 0.11805 0.65647 0.00782 0.0
Pr41 Pr 0.12398 0.70058 0.01745 0.0
C42 C 0.15785 0.61673 0.00323 0.0
C43 C 0.2806 0.5995 0.98787 0.0
C44 C 0.47664 0.60098 0.00172 0.0
C45 C 0.58821 0.5839 0.00629 0.0
C46 C 0.50615 0.56494 -0.00222 0.0
C47 C 0.30967 0.56367 0.9808 0.0
C48 C 0.19875 0.58075 0.97553 0.0
C49 C 1.06099 0.67245 0.20419 0.0
C50 C 0.53013 0.67834 0.00581 0.0
C51 C 0.14765 0.7397 0.0592 0.0
C52 C 1.04847 0.75892 0.04397 0.0
C53 C 1.0744 0.77052 0.95595 0.0
C54 C 0.98803 0.78907 0.94493 0.0
C55 C 0.87379 0.7965 0.02168 0.0
C56 C 0.84838 0.78491 0.10975 0.0
C57 C 0.9354 0.76642 0.121 0.0
C58 C 1.05932 0.68607 0.81566 0.0
C59 C 0.71541 0.67836 0.00334 0.0
O60 O 0.08905 0.62673 0.92375 0.0
O61 O 0.20171 0.6278 0.08301 0.0
O62 O 0.18682 0.67773 0.14488 0.0
O63 O 0.95577 0.65906 0.16028 0.0
O64 O 0.44575 0.69445 0.03617 0.0
O65 O 0.43615 0.66224 0.97958 0.0
O66 O 1.07357 0.72681 0.12067 0.0
O67 O 0.22459 0.73149 0.98004 0.0
O68 O 0.17915 0.67927 0.88082 0.0
O69 O 0.97 0.70077 0.8549 0.0
O70 O 0.80262 0.66302 0.96495 0.0
O71 O 0.80805 0.69363 0.04295 0.0
H72 H 0.54293 0.6153 0.01243 0.0
H73 H 0.73853 0.58562 0.01779 0.0
H74 H 0.23984 0.54947 0.97526 0.0
H75 H 1.04774 0.57923 0.96605 0.0
H76 H 0.1624 0.76535 0.89566 0.0
H77 H 1.00946 0.79752 0.87572 0.0
H78 H 0.7639 0.79029 0.1711 0.0
H79 H 0.91553 0.75809 0.19081 0.0
Pr80 Pr 1.0327 0.65646 0.51245 0.0
Pr81 Pr 1.02677 0.70057 0.50312 0.0
C82 C 0.99292 0.61673 0.51692 0.0
C83 C 0.87015 0.5995 0.5323 0.0
C84 C 0.6741 0.60098 0.51845 0.0
C85 C 0.56251 0.5839 0.51397 0.0
C86 C 0.64455 0.56494 0.52257 0.0
C87 C 0.84103 0.56368 0.53953 0.0
C88 C 0.95198 0.58075 0.54471 0.0
C89 C 0.0894 0.67242 0.31621 0.0
C90 C 0.6206 0.67833 0.5146 0.0
C91 C 1.00301 0.73969 0.46149 0.0
C92 C 0.10225 0.75891 0.47664 0.0
C93 C 0.07613 0.77056 0.56454 0.0
C94 C 0.16252 0.78911 0.57547 0.0
C95 C 0.27695 0.79649 0.49875 0.0
C96 C 0.30254 0.78486 0.41079 0.0
C97 C 0.21551 0.76637 0.39963 0.0
C98 C 0.09111 0.68609 0.70477 0.0
C99 C 0.43532 0.67836 0.51707 0.0
O100 O 1.0618 0.62674 0.59641 0.0
O101 O 0.94899 0.62778 0.43718 0.0
O102 O 0.96371 0.67772 0.37558 0.0
O103 O 0.19486 0.65905 0.35994 0.0
O104 O 0.70499 0.69445 0.48439 0.0
O105 O 0.71458 0.66224 0.54071 0.0
O106 O 0.07685 0.72678 0.39991 0.0
O107 O 0.92637 0.7315 0.54073 0.0
O108 O 0.97142 0.67926 0.63956 0.0
O109 O 0.18069 0.70077 0.66571 0.0
O110 O 0.34812 0.66301 0.55536 0.0
O111 O 0.34268 0.69362 0.47755 0.0
H112 H 0.60784 0.6153 0.50769 0.0
H113 H 0.41219 0.58562 0.50247 0.0
H114 H 0.91083 0.54947 0.54514 0.0
H115 H 0.10298 0.57923 0.5542 0.0
H116 H 0.98797 0.76542 0.6248 0.0
H117 H 0.14094 0.7976 0.64459 0.0
H118 H 0.38716 0.7902 0.34945 0.0
H119 H 0.23552 0.758 0.3299 0.0
Pr120 Pr 0.12156 0.41184 0.51604 0.0
Pr121 Pr 0.11527 0.45604 0.50964 0.0
C122 C 0.14612 0.3726 0.55322 0.0
C123 C 1.04644 0.35358 0.53504 0.0
C124 C 0.14403 0.33743 0.49552 0.0
C125 C 1.05636 0.31899 0.48292 0.0
C126 C 0.86906 0.31625 0.51024 0.0
C127 C 0.77099 0.33251 0.54911 0.0
C128 C 0.85846 0.35098 0.56116 0.0
C129 C 1.05809 0.42681 0.31538 0.0
C130 C 0.71301 0.43412 0.50395 0.0
C131 C 0.16148 0.49575 0.50778 0.0
C132 C 0.29781 0.51223 0.50104 0.0
C133 C 0.46287 0.51263 0.56457 0.0
C134 C 0.57509 0.5296 0.57093 0.0
C135 C 0.52687 0.5466 0.51307 0.0
C136 C 0.36489 0.54588 0.44666 0.0
C137 C 0.2513 0.52893 0.44125 0.0
C138 C 1.06053 0.43947 0.7043 0.0
C139 C 0.52786 0.43414 0.50696 0.0
O140 O 1.07228 0.38525 0.61622 0.0
O141 O 0.22231 0.38104 0.47462 0.0
O142 O 0.17686 0.43351 0.38133 0.0
O143 O 0.96776 0.41208 0.35346 0.0
O144 O 0.79991 0.44957 0.46646 0.0
O145 O 0.80577 0.41874 0.54216 0.0
O146 O 0.10745 0.48585 0.42486 0.0
O147 O 0.1786 0.48471 0.5899 0.0
O148 O 0.18661 0.43443 0.64452 0.0
O149 O 0.95333 0.45281 0.66158 0.0
O150 O 0.44342 0.41788 0.53507 0.0
O151 O 0.43421 0.45038 0.48339 0.0
H152 H 0.28942 0.339 0.4756 0.0
H153 H 0.13678 0.30676 0.45384 0.0
H154 H 0.62598 0.33099 0.56968 0.0
H155 H 0.77919 0.36316 0.59167 0.0
H156 H 0.50225 0.50006 0.61243 0.0
H157 H 0.69651 0.52953 0.62402 0.0
H158 H 0.32454 0.55845 0.39918 0.0
H159 H 0.12398 0.52909 0.39244 0.0
Pr160 Pr 0.52911 0.91184 0.00419 0.0
Pr161 Pr 0.53541 0.95603 0.0109 0.0
C162 C 0.50466 0.87259 0.96688 0.0
C163 C 0.60432 0.85358 0.98511 0.0
C164 C 0.50675 0.83744 0.02475 0.0
C165 C 0.59441 0.81901 0.03743 0.0
C166 C 0.78168 0.81625 0.01008 0.0
C167 C 0.87972 0.83249 0.97108 0.0
C168 C 0.79227 0.85095 0.95895 0.0
C169 C 0.59291 0.92683 0.205 0.0
C170 C 0.93768 0.93411 0.01644 0.0
C171 C 0.4892 0.99574 0.01291 0.0
C172 C 0.35283 1.01222 0.01961 0.0
C173 C 0.18774 1.0126 0.95611 0.0
C174 C 0.07554 1.02957 0.94965 0.0
C175 C 0.1238 1.0466 0.0074 0.0
C176 C 0.2858 1.0459 0.07379 0.0
C177 C 0.39938 1.02895 0.0793 0.0
C178 C 0.59046 0.93944 0.81609 0.0
C179 C 0.12283 0.93414 0.01343 0.0
O180 O 0.57866 0.88523 0.90397 0.0
O181 O 0.42822 0.88104 0.04542 0.0
O182 O 0.47401 0.9335 0.13909 0.0
O183 O 0.68299 0.91209 0.16673 0.0
O184 O 0.85078 0.94957 0.05404 0.0
O185 O 0.84492 0.91873 0.97814 0.0
O186 O 0.54303 0.98585 0.09582 0.0
O187 O 0.47226 0.9847 0.93074 0.0
O188 O 0.46425 0.93443 0.87582 0.0
O189 O 0.69742 0.95279 0.85901 0.0
O190 O 0.20726 0.91787 0.98518 0.0
O191 O 0.21648 0.95038 0.03711 0.0
H192 H 0.36138 0.83903 0.0447 0.0
H193 H 0.51401 0.8068 0.06661 0.0
H194 H 1.02471 0.83096 0.95048 0.0
H195 H 0.87152 0.86311 0.92835 0.0
H196 H 0.14834 1.0 0.90833 0.0
H197 H 0.9541 1.02947 0.89658 0.0
H198 H 0.32619 0.0585 0.12119 0.0
H199 H 0.52672 1.02913 0.12808 0.0
Pr200 Pr 0.61805 0.15647 0.00781 0.0
Pr201 Pr 0.62398 0.20058 0.01745 0.0
C202 C 0.65785 0.11673 0.00322 0.0
C203 C 0.7806 0.0995 0.98787 0.0
C204 C 0.97665 0.10098 0.00172 0.0
C205 C 0.08821 0.0839 0.00629 0.0
C206 C 1.00615 0.06494 -0.00222 0.0
C207 C 0.80967 0.06367 0.9808 0.0
C208 C 0.69875 0.08075 0.97553 0.0
C209 C 0.56099 0.17245 0.20418 0.0
C210 C 1.03014 0.17834 0.00581 0.0
C211 C 0.64765 0.2397 0.0592 0.0
C212 C 0.54847 0.25892 0.04396 0.0
C213 C 0.5745 0.27052 0.95598 0.0
C214 C 0.48812 0.28907 0.94496 0.0
C215 C 0.37378 0.2965 0.02167 0.0
C216 C 0.34827 0.2849 0.10971 0.0
C217 C 0.43529 0.26641 0.12096 0.0
C218 C 0.55932 0.18607 0.81565 0.0
C219 C 0.21542 0.17836 0.00333 0.0
O220 O 0.58906 0.12673 0.92374 0.0
O221 O 0.70172 0.1278 0.08301 0.0
O222 O 0.68683 0.17773 0.14488 0.0
O223 O 0.45577 0.15906 0.16027 0.0
O224 O 0.94575 0.19445 0.03617 0.0
O225 O 0.93615 0.16224 0.97958 0.0
O226 O 0.57358 0.22681 0.12067 0.0
O227 O 0.72459 0.23149 0.98003 0.0
O228 O 0.67915 0.17927 0.88082 0.0
O229 O 0.47 0.20077 0.8549 0.0
O230 O 0.30262 0.16302 0.96494 0.0
O231 O 0.30806 0.19363 0.04295 0.0
H232 H 1.04293 0.1153 0.01243 0.0
H233 H 0.23853 0.08562 0.01779 0.0
H234 H 0.73984 1.04947 0.97525 0.0
H235 H 0.54774 0.07923 0.96605 0.0
H236 H 0.66259 0.26536 0.89572 0.0
H237 H 0.50965 0.29753 0.87578 0.0
H238 H 0.26371 0.29028 0.17104 0.0
H239 H 0.41534 0.25808 0.19074 0.0
Pr240 Pr 0.5327 0.15646 0.51245 0.0
Pr241 Pr 0.52677 0.20057 0.50312 0.0
C242 C 0.49292 0.11673 0.51692 0.0
C243 C 0.37015 0.0995 0.5323 0.0
C244 C 0.17411 0.10098 0.51845 0.0
C245 C 1.06252 0.0839 0.51397 0.0
C246 C 0.14455 0.06494 0.52256 0.0
C247 C 0.34103 0.06368 0.53953 0.0
C248 C 0.45198 0.08075 0.54471 0.0
C249 C 0.5894 0.17242 0.31621 0.0
C250 C 0.1206 0.17833 0.5146 0.0
C251 C 0.50302 0.23969 0.46149 0.0
C252 C 0.60224 0.25891 0.47663 0.0
C253 C 0.57623 0.27055 0.56457 0.0
C254 C 0.66262 0.2891 0.5755 0.0
C255 C 0.77694 0.29649 0.49874 0.0
C256 C 0.80243 0.28486 0.41075 0.0
C257 C 0.7154 0.26637 0.39959 0.0
C258 C 0.59111 0.18609 0.70477 0.0
C259 C 0.93532 0.17836 0.51706 0.0
O260 O 0.56181 0.12674 0.59641 0.0
O261 O 0.44899 0.12778 0.43718 0.0
O262 O 0.46371 0.17772 0.37558 0.0
O263 O 0.69486 0.15905 0.35993 0.0
O264 O 0.20499 0.19445 0.48438 0.0
O265 O 0.21458 0.16223 0.5407 0.0
O266 O 0.57686 0.22678 0.39991 0.0
O267 O 0.42637 0.2315 0.54073 0.0
O268 O 0.47142 0.17926 0.63956 0.0
O269 O 0.68069 0.20077 0.66571 0.0
O270 O 0.84812 0.16301 0.55536 0.0
O271 O 0.84268 0.19362 0.47755 0.0
H272 H 0.10784 0.1153 0.50769 0.0
H273 H 0.9122 0.08562 0.50247 0.0
H274 H 0.41083 1.04947 0.54514 0.0
H275 H 0.60299 0.07923 0.55419 0.0
H276 H 0.48815 0.26541 0.62485 0.0
H277 H 0.64112 0.29759 0.64465 0.0
H278 H 0.88697 0.29021 0.34939 0.0
H279 H 0.73533 0.25801 0.32984 0.0
Pr280 Pr 0.62157 0.91184 0.51604 0.0
Pr281 Pr 0.61527 0.95604 0.50964 0.0
C282 C 0.64613 0.8726 0.55322 0.0
C283 C 0.54645 0.85358 0.53504 0.0
C284 C 0.64407 0.83743 0.49557 0.0
C285 C 0.5564 0.81899 0.48297 0.0
C286 C 0.36907 0.81625 0.51025 0.0
C287 C 0.27098 0.83251 0.54907 0.0
C288 C 0.35844 0.85098 0.56111 0.0
C289 C 0.5581 0.92681 0.31538 0.0
C290 C 0.21302 0.93412 0.50395 0.0
C291 C 0.66148 0.99575 0.50778 0.0
C292 C 0.79782 1.01223 0.50104 0.0
C293 C 0.96287 1.01263 0.56457 0.0
C294 C 1.07509 1.0296 0.57093 0.0
C295 C 1.02687 1.0466 0.51307 0.0
C296 C 0.8649 1.04588 0.44666 0.0
C297 C 0.7513 1.02893 0.44125 0.0
C298 C 0.56053 0.93947 0.7043 0.0
C299 C 1.02786 0.93414 0.50696 0.0
O300 O 0.57228 0.88525 0.61622 0.0
O301 O 0.72232 0.88104 0.47462 0.0
O302 O 0.67686 0.93351 0.38133 0.0
O303 O 0.46776 0.91208 0.35346 0.0
O304 O 0.29991 0.94957 0.46646 0.0
O305 O 0.30577 0.91874 0.54216 0.0
O306 O 0.60746 0.98585 0.42486 0.0
O307 O 0.6786 0.98471 0.5899 0.0
O308 O 0.68662 0.93443 0.64452 0.0
O309 O 0.45334 0.95281 0.66158 0.0
O310 O 0.94342 0.91788 0.53507 0.0
O311 O 0.93421 0.95038 0.48339 0.0
H312 H 0.78948 0.839 0.47569 0.0
H313 H 0.63684 0.80676 0.45393 0.0
H314 H 0.12594 0.831 0.5696 0.0
H315 H 0.27915 0.86316 0.59158 0.0
H316 H 1.00225 1.00006 0.61243 0.0
H317 H 0.19651 1.02953 0.62402 0.0
H318 H 0.82454 0.05845 0.39918 0.0
H319 H 0.62399 1.02909 0.39244 0.0
loop_
_geom_bond_atom_site_label_1
_geom_bond_atom_site_label_2
_geom_bond_distance
_geom_bond_site_symmetry_2
_ccdc_geom_bond_type
Pr0 C2 2.880 . S
Pr0 O20 2.562 1_554 S
Pr0 O21 2.490 . S
Pr0 O22 2.695 . S
Pr0 O23 2.512 . S
Pr0 O25 2.437 . S
Pr0 O28 2.436 1_554 S
Pr0 O30 2.438 1_455 S
Pr1 C11 2.880 1_455 S
Pr1 O22 2.436 . S
Pr1 O24 2.438 . S
Pr1 O26 2.563 1_455 S
Pr1 O27 2.490 1_554 S
Pr1 O28 2.695 1_554 S
Pr1 O29 2.512 1_554 S
Pr1 O31 2.437 1_454 S
C2 Pr0 2.880 . S
C2 C3 1.491 . S
C2 O20 1.254 1_554 S
C2 O21 1.225 . S
C3 C2 1.491 . S
C3 C4 1.392 . S
C3 C8 1.356 1_554 S
C4 C3 1.392 . S
C4 C5 1.368 . S
C4 H32 0.929 . S
C5 C4 1.368 . S
C5 C6 1.386 1_554 S
C5 H33 0.929 . S
C6 C5 1.386 1_556 S
C6 C7 1.373 . S
C7 C6 1.373 . S
C7 C8 1.409 . S
C7 H34 0.931 . S
C8 C3 1.356 1_556 S
C8 C7 1.409 . S
C8 H35 0.930 . S
C9 O22 1.270 . S
C9 O23 1.248 . S
C10 O24 1.267 . S
C10 O25 1.278 . S
C11 Pr1 2.880 1_655 S
C11 C12 1.491 . S
C11 O26 1.254 . S
C11 O27 1.225 1_654 S
C12 C11 1.491 . S
C12 C13 1.392 1_554 S
C12 C17 1.356 . S
C13 C12 1.392 1_556 S
C13 C14 1.368 . S
C13 H36 0.929 . S
C14 C13 1.368 . S
C14 C15 1.386 1_556 S
C14 H37 0.929 . S
C15 C14 1.386 1_554 S
C15 C16 1.373 . S
C16 C15 1.373 . S
C16 C17 1.409 . S
C16 H38 0.931 . S
C17 C12 1.356 . S
C17 C16 1.409 . S
C17 H39 0.930 . S
C18 O28 1.270 . S
C18 O29 1.248 . S
C19 O30 1.267 1_556 S
C19 O31 1.278 . S
O20 Pr0 2.562 1_556 S
O20 C2 1.254 1_556 S
O21 Pr0 2.490 . S
O21 C2 1.225 . S
O22 Pr0 2.695 . S
O22 Pr1 2.436 . S
O22 C9 1.270 . S
O23 Pr0 2.512 . S
O23 C9 1.248 . S
O24 Pr1 2.438 . S
O24 C10 1.267 . S
O25 Pr0 2.437 . S
O25 C10 1.278 . S
O26 Pr1 2.563 1_655 S
O26 C11 1.254 . S
O27 Pr1 2.490 1_556 S
O27 C11 1.225 1_456 S
O28 Pr0 2.436 1_556 S
O28 Pr1 2.695 1_556 S
O28 C18 1.270 . S
O29 Pr1 2.512 1_556 S
O29 C18 1.248 . S
O30 Pr0 2.438 1_655 S
O30 C19 1.267 1_554 S
O31 Pr1 2.437 1_656 S
O31 C19 1.278 . S
H32 C4 0.929 . S
H33 C5 0.929 . S
H34 C7 0.931 . S
H35 C8 0.930 . S
H36 C13 0.929 . S
H37 C14 0.929 . S
H38 C16 0.931 . S
H39 C17 0.930 . S
Pr40 C42 2.880 1_655 S
Pr40 O60 2.562 1_654 S
Pr40 O61 2.490 . S
Pr40 O62 2.695 . S
Pr40 O63 2.512 . S
Pr40 O65 2.437 1_655 S
Pr40 O68 2.436 1_554 S
Pr40 O70 2.438 . S
Pr41 C51 2.880 1_556 S
Pr41 O62 2.436 1_556 S
Pr41 O64 2.438 1_656 S
Pr41 O66 2.562 1_556 S
Pr41 O67 2.490 . S
Pr41 O68 2.695 . S
Pr41 O69 2.512 . S
Pr41 O71 2.437 . S
C42 Pr40 2.880 1_455 S
C42 C43 1.491 1_554 S
C42 O60 1.254 1_554 S
C42 O61 1.225 1_455 S
C43 C42 1.491 1_556 S
C43 C44 1.391 1_556 S
C43 C48 1.356 . S
C44 C43 1.391 1_554 S
C44 C45 1.368 . S
C44 H72 0.929 . S
C45 C44 1.368 . S
C45 C46 1.386 1_554 S
C45 H73 0.929 . S
C46 C45 1.386 1_556 S
C46 C47 1.373 . S
C47 C46 1.373 . S
C47 C48 1.409 . S
C47 H74 0.931 . S
C48 C43 1.356 . S
C48 C47 1.409 . S
C48 H75 0.930 . S
C49 O62 1.270 . S
C49 O63 1.248 . S
C50 O64 1.267 . S
C50 O65 1.278 . S
C51 Pr41 2.880 1_554 S
C51 C52 1.491 . S
C51 O66 1.254 . S
C51 O67 1.225 1_554 S
C52 C51 1.491 . S
C52 C53 1.392 1_554 S
C52 C57 1.356 . S
C53 C52 1.392 1_556 S
C53 C54 1.368 . S
C53 H76 0.929 . S
C54 C53 1.368 . S
C54 C55 1.386 1_556 S
C54 H77 0.929 . S
C55 C54 1.386 1_554 S
C55 C56 1.373 . S
C56 C55 1.373 . S
C56 C57 1.409 . S
C56 H78 0.931 . S
C57 C52 1.356 . S
C57 C56 1.409 . S
C57 H79 0.930 . S
C58 O68 1.270 . S
C58 O69 1.248 . S
C59 O70 1.267 1_556 S
C59 O71 1.278 . S
O60 Pr40 2.562 1_456 S
O60 C42 1.254 1_556 S
O61 Pr40 2.490 . S
O61 C42 1.225 1_655 S
O62 Pr40 2.695 . S
O62 Pr41 2.436 1_554 S
O62 C49 1.270 . S
O63 Pr40 2.512 . S
O63 C49 1.248 . S
O64 Pr41 2.438 1_454 S
O64 C50 1.267 . S
O65 Pr40 2.437 1_455 S
O65 C50 1.278 . S
O66 Pr41 2.562 1_554 S
O66 C51 1.254 . S
O67 Pr41 2.490 . S
O67 C51 1.225 1_556 S
O68 Pr40 2.436 1_556 S
O68 Pr41 2.695 . S
O68 C58 1.270 . S
O69 Pr41 2.512 . S
O69 C58 1.248 . S
O70 Pr40 2.438 . S
O70 C59 1.267 1_554 S
O71 Pr41 2.437 . S
O71 C59 1.278 . S
H72 C44 0.929 . S
H73 C45 0.929 . S
H74 C47 0.931 . S
H75 C48 0.930 . S
H76 C53 0.929 . S
H77 C54 0.929 . S
H78 C56 0.931 . S
H79 C57 0.930 . S
Pr80 C82 2.880 1_455 S
Pr80 O100 2.562 1_455 S
Pr80 O101 2.490 . S
Pr80 O102 2.695 . S
Pr80 O103 2.512 . S
Pr80 O105 2.437 1_455 S
Pr80 O108 2.436 . S
Pr80 O110 2.438 . S
Pr81 C91 2.880 . S
Pr81 O102 2.436 . S
Pr81 O104 2.438 1_455 S
Pr81 O106 2.562 . S
Pr81 O107 2.490 . S
Pr81 O108 2.695 . S
Pr81 O109 2.512 . S
Pr81 O111 2.437 . S
C82 Pr80 2.880 1_655 S
C82 C83 1.491 . S
C82 O100 1.254 . S
C82 O101 1.225 1_655 S
C83 C82 1.491 . S
C83 C84 1.392 . S
C83 C88 1.356 . S
C84 C83 1.392 . S
C84 C85 1.368 . S
C84 H112 0.929 . S
C85 C84 1.368 . S
C85 C86 1.386 . S
C85 H113 0.929 . S
C86 C85 1.386 . S
C86 C87 1.373 . S
C87 C86 1.373 . S
C87 C88 1.409 . S
C87 H114 0.931 . S
C88 C83 1.356 . S
C88 C87 1.409 . S
C88 H115 0.930 . S
C89 O102 1.270 . S
C89 O103 1.248 . S
C90 O104 1.267 . S
C90 O105 1.278 . S
C91 Pr81 2.880 . S
C91 C92 1.491 . S
C91 O106 1.254 . S
C91 O107 1.225 . S
C92 C91 1.491 . S
C92 C93 1.392 . S
C92 C97 1.356 . S
C93 C92 1.392 . S
C93 C94 1.368 . S
C93 H116 0.929 . S
C94 C93 1.368 . S
C94 C95 1.386 . S
C94 H117 0.929 . S
C95 C94 1.386 . S
C95 C96 1.373 . S
C96 C95 1.373 . S
C96 C97 1.409 . S
C96 H118 0.931 . S
C97 C92 1.356 . S
C97 C96 1.409 . S
C97 H119 0.930 . S
C98 O108 1.270 . S
C98 O109 1.248 . S
C99 O110 1.267 . S
C99 O111 1.278 . S
O100 Pr80 2.562 1_655 S
O100 C82 1.254 . S
O101 Pr80 2.490 . S
O101 C82 1.225 1_455 S
O102 Pr80 2.695 . S
O102 Pr81 2.436 . S
O102 C89 1.270 . S
O103 Pr80 2.512 . S
O103 C89 1.248 . S
O104 Pr81 2.438 1_655 S
O104 C90 1.267 . S
O105 Pr80 2.437 1_655 S
O105 C90 1.278 . S
O106 Pr81 2.562 . S
O106 C91 1.254 . S
O107 Pr81 2.490 . S
O107 C91 1.225 . S
O108 Pr80 2.436 . S
O108 Pr81 2.695 . S
O108 C98 1.270 . S
O109 Pr81 2.512 . S
O109 C98 1.248 . S
O110 Pr80 2.438 . S
O110 C99 1.267 . S
O111 Pr81 2.437 . S
O111 C99 1.278 . S
H112 C84 0.929 . S
H113 C85 0.929 . S
H114 C87 0.931 . S
H115 C88 0.930 . S
H116 C93 0.929 . S
H117 C94 0.929 . S
H118 C96 0.931 . S
H119 C97 0.930 . S
Pr120 C122 2.880 . S
Pr120 O140 2.562 . S
Pr120 O141 2.490 . S
Pr120 O142 2.695 . S
Pr120 O143 2.512 . S
Pr120 O145 2.437 . S
Pr120 O148 2.436 . S
Pr120 O150 2.438 1_655 S
Pr121 C131 2.880 1_655 S
Pr121 O142 2.436 . S
Pr121 O144 2.438 . S
Pr121 O146 2.562 1_655 S
Pr121 O147 2.490 . S
Pr121 O148 2.695 . S
Pr121 O149 2.512 . S
Pr121 O151 2.437 1_655 S
C122 Pr120 2.880 . S
C122 C123 1.491 . S
C122 O140 1.254 . S
C122 O141 1.225 . S
C123 C122 1.491 . S
C123 C124 1.392 . S
C123 C128 1.356 . S
C124 C123 1.392 . S
C124 C125 1.368 . S
C124 H152 0.929 . S
C125 C124 1.368 . S
C125 C126 1.386 . S
C125 H153 0.929 . S
C126 C125 1.386 . S
C126 C127 1.373 . S
C127 C126 1.373 . S
C127 C128 1.409 . S
C127 H154 0.931 . S
C128 C123 1.356 . S
C128 C127 1.409 . S
C128 H155 0.930 . S
C129 O142 1.270 . S
C129 O143 1.248 . S
C130 O144 1.267 . S
C130 O145 1.278 . S
C131 Pr121 2.880 1_455 S
C131 C132 1.491 . S
C131 O146 1.254 . S
C131 O147 1.225 1_455 S
C132 C131 1.491 . S
C132 C133 1.392 . S
C132 C137 1.356 . S
C133 C132 1.392 . S
C133 C134 1.368 . S
C133 H156 0.929 . S
C134 C133 1.368 . S
C134 C135 1.386 . S
C134 H157 0.929 . S
C135 C134 1.386 . S
C135 C136 1.373 . S
C136 C135 1.373 . S
C136 C137 1.409 . S
C136 H158 0.931 . S
C137 C132 1.356 . S
C137 C136 1.409 . S
C137 H159 0.930 . S
C138 O148 1.270 . S
C138 O149 1.248 . S
C139 O150 1.267 . S
C139 O151 1.278 . S
O140 Pr120 2.562 . S
O140 C122 1.254 . S
O141 Pr120 2.490 . S
O141 C122 1.225 . S
O142 Pr120 2.695 . S
O142 Pr121 2.436 . S
O142 C129 1.270 . S
O143 Pr120 2.512 . S
O143 C129 1.248 . S
O144 Pr121 2.438 . S
O144 C130 1.267 . S
O145 Pr120 2.437 . S
O145 C130 1.278 . S
O146 Pr121 2.562 1_455 S
O146 C131 1.254 . S
O147 Pr121 2.490 . S
O147 C131 1.225 1_655 S
O148 Pr120 2.436 . S
O148 Pr121 2.695 . S
O148 C138 1.270 . S
O149 Pr121 2.512 . S
O149 C138 1.248 . S
O150 Pr120 2.438 1_455 S
O150 C139 1.267 . S
O151 Pr121 2.437 1_455 S
O151 C139 1.278 . S
H152 C124 0.929 . S
H153 C125 0.929 . S
H154 C127 0.931 . S
H155 C128 0.930 . S
H156 C133 0.929 . S
H157 C134 0.929 . S
H158 C136 0.931 . S
H159 C137 0.930 . S
Pr160 C162 2.880 . S
Pr160 O180 2.562 1_554 S
Pr160 O181 2.490 . S
Pr160 O182 2.695 . S
Pr160 O183 2.512 . S
Pr160 O185 2.437 . S
Pr160 O188 2.436 1_554 S
Pr160 O190 2.438 . S
Pr161 C171 2.881 . S
Pr161 O182 2.439 . S
Pr161 O184 2.438 . S
Pr161 O186 2.565 . S
Pr161 O187 2.489 1_554 S
Pr161 O188 2.693 1_554 S
Pr161 O189 2.508 1_554 S
Pr161 O191 2.436 1_554 S
C162 Pr160 2.880 . S
C162 C163 1.491 . S
C162 O180 1.254 1_554 S
C162 O181 1.225 . S
C163 C162 1.491 . S
C163 C164 1.392 . S
C163 C168 1.356 1_554 S
C164 C163 1.392 . S
C164 C165 1.368 . S
C164 H192 0.929 . S
C165 C164 1.368 . S
C165 C166 1.386 1_554 S
C165 H193 0.929 . S
C166 C165 1.386 1_556 S
C166 C167 1.373 . S
C167 C166 1.373 . S
C167 C168 1.409 . S
C167 H194 0.931 . S
C168 C163 1.356 1_556 S
C168 C167 1.409 . S
C168 H195 0.930 . S
C169 O182 1.270 . S
C169 O183 1.248 . S
C170 O184 1.267 . S
C170 O185 1.278 . S
C171 Pr161 2.881 . S
C171 C172 1.491 . S
C171 O186 1.254 . S
C171 O187 1.225 1_554 S
C172 C171 1.491 . S
C172 C173 1.392 1_554 S
C172 C177 1.356 . S
C173 C172 1.392 1_556 S
C173 C174 1.368 . S
C173 H196 0.929 . S
C174 C173 1.368 . S
C174 C175 1.386 1_556 S
C174 H197 0.929 . S
C175 C174 1.386 1_554 S
C175 C176 1.373 . S
C176 C175 1.373 . S
C176 C177 1.409 . S
C176 H198 0.931 . S
C177 C172 1.356 . S
C177 C176 1.409 . S
C177 H199 0.930 . S
C178 O188 1.270 . S
C178 O189 1.248 . S
C179 O190 1.267 1_556 S
C179 O191 1.278 . S
O180 Pr160 2.562 1_556 S
O180 C162 1.254 1_556 S
O181 Pr160 2.490 . S
O181 C162 1.225 . S
O182 Pr160 2.695 . S
O182 Pr161 2.439 . S
O182 C169 1.270 . S
O183 Pr160 2.512 . S
O183 C169 1.248 . S
O184 Pr161 2.438 . S
O184 C170 1.267 . S
O185 Pr160 2.437 . S
O185 C170 1.278 . S
O186 Pr161 2.565 . S
O186 C171 1.254 . S
O187 Pr161 2.489 1_556 S
O187 C171 1.225 1_556 S
O188 Pr160 2.436 1_556 S
O188 Pr161 2.693 1_556 S
O188 C178 1.270 . S
O189 Pr161 2.508 1_556 S
O189 C178 1.248 . S
O190 Pr160 2.438 . S
O190 C179 1.267 1_554 S
O191 Pr161 2.436 1_556 S
O191 C179 1.278 . S
H192 C164 0.929 . S
H193 C165 0.929 . S
H194 C167 0.931 . S
H195 C168 0.930 . S
H196 C173 0.929 . S
H197 C174 0.929 . S
H198 C176 0.931 . S
H199 C177 0.930 . S
Pr200 C202 2.880 . S
Pr200 O220 2.562 1_554 S
Pr200 O221 2.490 . S
Pr200 O222 2.695 . S
Pr200 O223 2.512 . S
Pr200 O225 2.437 . S
Pr200 O228 2.436 1_554 S
Pr200 O230 2.438 . S
Pr201 C211 2.880 1_556 S
Pr201 O222 2.436 1_556 S
Pr201 O224 2.438 1_556 S
Pr201 O226 2.562 1_556 S
Pr201 O227 2.490 . S
Pr201 O228 2.695 . S
Pr201 O229 2.512 . S
Pr201 O231 2.437 . S
C202 Pr200 2.880 . S
C202 C203 1.491 1_554 S
C202 O220 1.254 1_554 S
C202 O221 1.225 . S
C203 C202 1.491 1_556 S
C203 C204 1.389 1_556 S
C203 C208 1.359 . S
C204 C203 1.389 1_554 S
C204 C205 1.368 . S
C204 H232 0.929 . S
C205 C204 1.368 . S
C205 C206 1.386 1_554 S
C205 H233 0.929 . S
C206 C205 1.386 1_556 S
C206 C207 1.373 . S
C207 C206 1.373 . S
C207 C208 1.409 . S
C207 H234 0.931 . S
C208 C203 1.359 . S
C208 C207 1.409 . S
C208 H235 0.930 . S
C209 O222 1.270 . S
C209 O223 1.248 . S
C210 O224 1.267 . S
C210 O225 1.278 . S
C211 Pr201 2.880 1_554 S
C211 C212 1.491 . S
C211 O226 1.254 . S
C211 O227 1.225 1_554 S
C212 C211 1.491 . S
C212 C213 1.392 1_554 S
C212 C217 1.356 . S
C213 C212 1.392 1_556 S
C213 C214 1.368 . S
C213 H236 0.929 . S
C214 C213 1.368 . S
C214 C215 1.386 1_556 S
C214 H237 0.929 . S
C215 C214 1.386 1_554 S
C215 C216 1.373 . S
C216 C215 1.373 . S
C216 C217 1.409 . S
C216 H238 0.931 . S
C217 C212 1.356 . S
C217 C216 1.409 . S
C217 H239 0.930 . S
C218 O228 1.270 . S
C218 O229 1.248 . S
C219 O230 1.267 1_556 S
C219 O231 1.278 . S
O220 Pr200 2.562 1_556 S
O220 C202 1.254 1_556 S
O221 Pr200 2.490 . S
O221 C202 1.225 . S
O222 Pr200 2.695 . S
O222 Pr201 2.436 1_554 S
O222 C209 1.270 . S
O223 Pr200 2.512 . S
O223 C209 1.248 . S
O224 Pr201 2.438 1_554 S
O224 C210 1.267 . S
O225 Pr200 2.437 . S
O225 C210 1.278 . S
O226 Pr201 2.562 1_554 S
O226 C211 1.254 . S
O227 Pr201 2.490 . S
O227 C211 1.225 1_556 S
O228 Pr200 2.436 1_556 S
O228 Pr201 2.695 . S
O228 C218 1.270 . S
O229 Pr201 2.512 . S
O229 C218 1.248 . S
O230 Pr200 2.438 . S
O230 C219 1.267 1_554 S
O231 Pr201 2.437 . S
O231 C219 1.278 . S
H232 C204 0.929 . S
H233 C205 0.929 . S
H234 C207 0.931 . S
H235 C208 0.930 . S
H236 C213 0.929 . S
H237 C214 0.929 . S
H238 C216 0.931 . S
H239 C217 0.930 . S
Pr240 C242 2.880 . S
Pr240 O260 2.562 . S
Pr240 O261 2.490 . S
Pr240 O262 2.695 . S
Pr240 O263 2.512 . S
Pr240 O265 2.437 . S
Pr240 O268 2.436 . S
Pr240 O270 2.438 . S
Pr241 C251 2.880 . S
Pr241 O262 2.436 . S
Pr241 O264 2.438 . S
Pr241 O266 2.562 . S
Pr241 O267 2.490 . S
Pr241 O268 2.695 . S
Pr241 O269 2.512 . S
Pr241 O271 2.437 . S
C242 Pr240 2.880 . S
C242 C243 1.491 . S
C242 O260 1.254 . S
C242 O261 1.225 . S
C243 C242 1.491 . S
C243 C244 1.392 . S
C243 C248 1.356 . S
C244 C243 1.392 . S
C244 C245 1.368 . S
C244 H272 0.929 . S
C245 C244 1.368 . S
C245 C246 1.386 . S
C245 H273 0.929 . S
C246 C245 1.386 . S
C246 C247 1.373 . S
C247 C246 1.373 . S
C247 C248 1.409 . S
C247 H274 0.931 . S
C248 C243 1.356 . S
C248 C247 1.409 . S
C248 H275 0.930 . S
C249 O262 1.270 . S
C249 O263 1.248 . S
C250 O264 1.267 . S
C250 O265 1.278 . S
C251 Pr241 2.880 . S
C251 C252 1.491 . S
C251 O266 1.254 . S
C251 O267 1.225 . S
C252 C251 1.491 . S
C252 C253 1.392 . S
C252 C257 1.356 . S
C253 C252 1.392 . S
C253 C254 1.368 . S
C253 H276 0.929 . S
C254 C253 1.368 . S
C254 C255 1.386 . S
C254 H277 0.929 . S
C255 C254 1.386 . S
C255 C256 1.373 . S
C256 C255 1.373 . S
C256 C257 1.409 . S
C256 H278 0.931 . S
C257 C252 1.356 . S
C257 C256 1.409 . S
C257 H279 0.930 . S
C258 O268 1.270 . S
C258 O269 1.248 . S
C259 O270 1.267 . S
C259 O271 1.278 . S
O260 Pr240 2.562 . S
O260 C242 1.254 . S
O261 Pr240 2.490 . S
O261 C242 1.225 . S
O262 Pr240 2.695 . S
O262 Pr241 2.436 . S
O262 C249 1.270 . S
O263 Pr240 2.512 . S
O263 C249 1.248 . S
O264 Pr241 2.438 . S
O264 C250 1.267 . S
O265 Pr240 2.437 . S
O265 C250 1.278 . S
O266 Pr241 2.562 . S
O266 C251 1.254 . S
O267 Pr241 2.490 . S
O267 C251 1.225 . S
O268 Pr240 2.436 . S
O268 Pr241 2.695 . S
O268 C258 1.270 . S
O269 Pr241 2.512 . S
O269 C258 1.248 . S
O270 Pr240 2.438 . S
O270 C259 1.267 . S
O271 Pr241 2.437 . S
O271 C259 1.278 . S
H272 C244 0.929 . S
H273 C245 0.929 . S
H274 C247 0.931 . S
H275 C248 0.930 . S
H276 C253 0.929 . S
H277 C254 0.929 . S
H278 C256 0.931 . S
H279 C257 0.930 . S
Pr280 C282 2.880 . S
Pr280 O300 2.562 . S
Pr280 O301 2.490 . S
Pr280 O302 2.695 . S
Pr280 O303 2.512 . S
Pr280 O305 2.437 . S
Pr280 O308 2.436 . S
Pr280 O310 2.438 . S
Pr281 C291 2.880 . S
Pr281 O302 2.436 . S
Pr281 O304 2.438 . S
Pr281 O306 2.562 . S
Pr281 O307 2.490 . S
Pr281 O308 2.695 . S
Pr281 O309 2.512 . S
Pr281 O311 2.437 . S
C282 Pr280 2.880 . S
C282 C283 1.491 . S
C282 O300 1.254 . S
C282 O301 1.225 . S
C283 C282 1.491 . S
C283 C284 1.392 . S
C283 C288 1.356 . S
C284 C283 1.392 . S
C284 C285 1.368 . S
C284 H312 0.929 . S
C285 C284 1.368 . S
C285 C286 1.386 . S
C285 H313 0.929 . S
C286 C285 1.386 . S
C286 C287 1.373 . S
C287 C286 1.373 . S
C287 C288 1.409 . S
C287 H314 0.931 . S
C288 C283 1.356 . S
C288 C287 1.409 . S
C288 H315 0.930 . S
C289 O302 1.270 . S
C289 O303 1.248 . S
C290 O304 1.267 . S
C290 O305 1.278 . S
C291 Pr281 2.880 . S
C291 C292 1.491 . S
C291 O306 1.254 . S
C291 O307 1.225 . S
C292 C291 1.491 . S
C292 C293 1.392 . S
C292 C297 1.356 . S
C293 C292 1.392 . S
C293 C294 1.368 . S
C293 H316 0.929 . S
C294 C293 1.368 . S
C294 C295 1.386 . S
C294 H317 0.929 . S
C295 C294 1.386 . S
C295 C296 1.373 . S
C296 C295 1.373 . S
C296 C297 1.409 . S
C296 H318 0.931 . S
C297 C292 1.356 . S
C297 C296 1.409 . S
C297 H319 0.930 . S
C298 O308 1.270 . S
C298 O309 1.248 . S
C299 O310 1.267 . S
C299 O311 1.278 . S
O300 Pr280 2.562 . S
O300 C282 1.254 . S
O301 Pr280 2.490 . S
O301 C282 1.225 . S
O302 Pr280 2.695 . S
O302 Pr281 2.436 . S
O302 C289 1.270 . S
O303 Pr280 2.512 . S
O303 C289 1.248 . S
O304 Pr281 2.438 . S
O304 C290 1.267 . S
O305 Pr280 2.437 . S
O305 C290 1.278 . S
O306 Pr281 2.562 . S
O306 C291 1.254 . S
O307 Pr281 2.490 . S
O307 C291 1.225 . S
O308 Pr280 2.436 . S
O308 Pr281 2.695 . S
O308 C298 1.270 . S
O309 Pr281 2.512 . S
O309 C298 1.248 . S
O310 Pr280 2.438 . S
O310 C299 1.267 . S
O311 Pr281 2.437 . S
O311 C299 1.278 . S
H312 C284 0.929 . S
H313 C285 0.929 . S
H314 C287 0.931 . S
H315 C288 0.930 . S
H316 C293 0.929 . S
H317 C294 0.929 . S
H318 C296 0.931 . S
H319 C297 0.930 . S
C10 C19 3.070 1_554 S
C50 C59 3.070 1_554 S
C90 C99 3.070 . S
C130 C139 3.070 . S
C170 C179 3.070 1_654 S
C219 C210 3.070 1_456 S
C250 C259 3.070 1_455 S
C299 C290 3.070 1_655 S
C46 C15 4.025 1_556 S
C135 C86 4.031 . S
C175 C206 4.033 1_464 S
C246 C295 4.026 1_445 S
C6 C215 3.965 1_556 S
C166 C55 3.965 1_556 S
C95 C286 3.965 . S
C126 C255 3.965 . S
C9 C129 1.612 1_455 S
C49 C89 1.600 1_655 S
C58 C98 1.610 1_655 S
C138 C18 1.599 1_655 S
C169 C289 1.611 . S
C209 C249 1.604 . S
C218 C258 1.609 . S
C298 C178 1.603 . S
