# Generated by pormake.
# Topology unm, (4)-cn, num edge types: 1
# Building blocks:
#     Node 0, Type 0, BuildingBlock: ICAMEG_clean_sbu_1, # of connection points: 4
#     Node 1, Type 0, BuildingBlock: ICAMEG_clean_sbu_1, # of connection points: 4
#     Node 2, Type 0, BuildingBlock: ICAMEG_clean_sbu_1, # of connection points: 4
#     Node 3, Type 0, BuildingBlock: ICAMEG_clean_sbu_1, # of connection points: 4
#     Node 4, Type 0, BuildingBlock: ICAMEG_clean_sbu_1, # of connection points: 4
#     Node 5, Type 0, BuildingBlock: ICAMEG_clean_sbu_1, # of connection points: 4
#     Node 6, Type 0, BuildingBlock: ICAMEG_clean_sbu_1, # of connection points: 4
#     Node 7, Type 0, BuildingBlock: ICAMEG_clean_sbu_1, # of connection points: 4
#     Edge 8, Type (0, 0), None
#     Edge 9, Type (0, 0), None
#     Edge 10, Type (0, 0), None
#     Edge 11, Type (0, 0), None
#     Edge 12, Type (0, 0), None
#     Edge 13, Type (0, 0), None
#     Edge 14, Type (0, 0), None
#     Edge 15, Type (0, 0), None
#     Edge 16, Type (0, 0), None
#     Edge 17, Type (0, 0), None
#     Edge 18, Type (0, 0), None
#     Edge 19, Type (0, 0), None
#     Edge 20, Type (0, 0), None
#     Edge 21, Type (0, 0), None
#     Edge 22, Type (0, 0), None
#     Edge 23, Type (0, 0), None
# Relax obj value: 0.071
# Max RMSD: 0.088
# Mean RMSD: 0.088
data_MOF--net-unm--node1-ICAMEG_clean_sbu_1--edge1-none
_symmetry_space_group_name_H-M    P1
_symmetry_Int_Tables_number       1
_symmetry_cell_setting            triclinic
loop_
_symmetry_equiv_pos_as_xyz
'x, y, z'
_cell_length_a     12.884508
_cell_length_b     13.119311
_cell_length_c     28.479388
_cell_angle_alpha  89.75506
_cell_angle_beta   88.8282
_cell_angle_gamma 89.782387
loop_
_atom_site_label
_atom_site_type_symbol
_atom_site_fract_x
_atom_site_fract_y
_atom_site_fract_z
_atom_type_partial_charge
Co0 Co 0.09439 0.23236 0.053 0.0
Co1 Co 0.19377 0.32873 0.1567 0.0
O2 O 0.21034 0.25579 0.09497 0.0
C3 C 0.26864 0.2602 -0.03213 0.0
O4 O 0.35101 0.26934 -0.00643 0.0
C5 C 0.4291 0.27099 0.19893 0.0
O6 O 0.46563 0.35365 0.17891 0.0
O7 O 0.07793 0.22936 0.18208 0.0
O8 O -0.00135 0.20985 0.11282 0.0
H9 H -0.01936 0.4631 0.29198 0.0
H10 H 0.28809 0.12075 0.02769 0.0
O11 O 0.17743 0.25338 -0.01192 0.0
H12 H 0.04542 0.86053 0.07964 0.0
H13 H 0.92935 0.09352 0.91186 0.0
H14 H 0.87385 0.30799 0.05079 0.0
H15 H -0.00922 0.03864 0.07957 0.0
H16 H 0.06142 0.10441 -0.02776 0.0
O17 O 0.32879 0.24947 0.19134 0.0
H18 H 0.05855 0.31716 0.24951 0.0
H19 H 0.30447 0.50347 0.20313 0.0
H20 H 0.7548 0.32406 -0.01599 0.0
H21 H 0.34471 0.94489 0.02638 0.0
H22 H 0.78676 0.22088 0.91389 0.0
H23 H 0.2239 0.81195 0.05411 0.0
O24 O 0.05679 0.37867 0.05451 0.0
H25 H 0.42408 0.41914 0.02465 0.0
H26 H 0.18385 0.5568 0.13811 0.0
H27 H 0.28466 0.67532 0.08742 0.0
H28 H 0.39821 0.60398 0.02617 0.0
H29 H 0.38298 0.31584 0.09475 0.0
H30 H 0.2084 0.65144 0.22787 0.0
H31 H 0.04309 0.63671 0.27384 0.0
O32 O 0.06626 0.40685 0.13155 0.0
C33 C -0.00498 0.20779 0.15868 0.0
C34 C 0.04402 0.47378 0.26705 0.0
C35 C 0.17535 0.58008 0.23453 0.0
N36 N 0.17495 0.4066 0.2142 0.0
C37 C 0.09021 0.39159 0.24325 0.0
C38 C 0.22713 0.49509 0.21784 0.0
C39 C 0.08143 0.57077 0.2586 0.0
C40 C 0.23134 0.06445 0.03539 0.0
N41 N 0.13365 0.09072 0.05083 0.0
C42 C 0.26593 0.96426 0.03696 0.0
C43 C 0.19866 0.88993 0.05345 0.0
C44 C 0.09828 0.91689 0.06737 0.0
C45 C 0.06672 0.018 0.06628 0.0
C46 C 0.91875 0.14482 -0.05901 0.0
C47 C 0.88847 0.26458 0.01941 0.0
C48 C -0.00727 0.14968 -0.02465 0.0
N49 N -0.02225 0.20944 0.01372 0.0
C50 C 0.81875 0.27121 -0.01715 0.0
C51 C 0.8354 0.21178 -0.05666 0.0
C52 C 0.02339 0.42221 0.09163 0.0
C53 C 0.38762 0.45294 0.05478 0.0
C54 C 0.25157 0.52903 0.11957 0.0
C55 C 0.3019 0.5956 0.08828 0.0
C56 C 0.36745 0.5561 0.05417 0.0
N57 N 0.28474 0.42993 0.12504 0.0
C58 C 0.35797 0.39424 0.0937 0.0
Co59 Co 0.20617 0.58262 0.54558 0.0
Co60 Co 0.11835 0.67963 0.6527 0.0
O61 O 0.17783 0.70009 0.58774 0.0
C62 C 0.15293 0.7478 0.46318 0.0
O63 O 0.10428 0.81525 0.48958 0.0
C64 C 0.207 0.86613 0.71499 0.0
O65 O 0.19964 0.80758 0.75167 0.0
O66 O 0.22984 0.57088 0.66942 0.0
O67 O 0.23885 0.48582 0.60199 0.0
H68 H 0.82743 0.6229 0.7717 0.0
H69 H 0.30773 0.77678 0.51434 0.0
O70 O 0.183 0.66279 0.48186 0.0
H71 H 0.59029 0.56599 0.57264 0.0
H72 H 0.33184 0.4093 0.40191 0.0
H73 H 0.13186 0.36511 0.54752 0.0
H74 H 0.41185 0.50398 0.57477 0.0
H75 H 0.33278 0.53982 0.46389 0.0
O76 O 0.19381 0.82226 0.67415 0.0
H77 H 0.9025 0.66307 0.69336 0.0
H78 H 0.20424 0.61772 0.74621 0.0
H79 H 0.10515 0.24377 0.48292 0.0
H80 H 0.48284 0.8445 0.51175 0.0
H81 H 0.20119 0.26927 0.40785 0.0
H82 H 0.6266 0.74136 0.54338 0.0
O83 O 0.05996 0.54084 0.55233 0.0
H84 H 0.80553 0.78896 0.56095 0.0
H85 H 0.01824 0.86239 0.69665 0.0
H86 H 0.88728 -0.01927 0.67435 0.0
H87 H 0.76106 0.93124 0.61261 0.0
H88 H 0.96756 0.69322 0.57253 0.0
H89 H 0.13237 0.58148 0.82425 0.0
H90 H 0.94194 0.58872 0.83794 0.0
O91 O 0.03917 0.55438 0.6308 0.0
C92 C 0.24619 0.48594 0.64709 0.0
C93 C 0.9101 0.62744 0.76643 0.0
C94 C 0.08129 0.60232 0.79606 0.0
N95 N 0.05869 0.65425 0.71556 0.0
C96 C 0.95346 0.65045 0.72229 0.0
C97 C 0.12141 0.62263 0.75119 0.0
C98 C 0.97465 0.60768 0.8039 0.0
C99 C 0.36961 0.72578 0.52311 0.0
N100 N 0.34997 0.62897 0.53943 0.0
C101 C 0.46932 0.76691 0.52337 0.0
C102 C 0.54985 0.70909 0.54127 0.0
C103 C 0.52993 0.6105 0.55717 0.0
C104 C 0.4292 0.57214 0.5562 0.0
C105 C 0.27985 0.40294 0.43174 0.0
C106 C 0.16919 0.37884 0.51415 0.0
C107 C 0.28264 0.47626 0.46656 0.0
N108 N 0.22637 0.46517 0.50649 0.0
C109 C 0.15608 0.30841 0.47825 0.0
C110 C 0.21057 0.32221 0.43624 0.0
C111 C 0.02142 0.51011 0.59142 0.0
C112 C 0.85632 0.80721 0.5891 0.0
C113 C -0.02036 0.84951 0.66425 0.0
C114 C 0.89885 0.91402 0.65354 0.0
C115 C 0.83135 0.88798 0.61817 0.0
N116 N 0.00421 0.76902 0.636 0.0
C117 C 0.94645 0.75118 0.59713 0.0
Co118 Co 0.85163 0.65414 0.03286 0.0
Co119 Co 0.74325 0.59131 0.1401 0.0
O120 O 0.74145 0.65487 0.07897 0.0
C121 C 0.6967 0.62865 -0.05434 0.0
O122 O 0.60956 0.58068 -0.06125 0.0
C123 C 0.5579 0.69569 0.20062 0.0
O124 O 0.62729 0.70106 0.23342 0.0
O125 O 0.86078 0.69603 0.1614 0.0
O126 O 0.94713 0.70262 0.08973 0.0
H127 H 0.8913 0.35236 0.24851 0.0
H128 H 0.64586 0.74581 0.0152 0.0
O129 O 0.74599 0.60342 -0.01629 0.0
H130 H 0.88174 0.03256 0.02059 0.0
H131 H 0.22821 0.64679 -0.00661 0.0
H132 H 0.88689 0.54592 -0.05893 0.0
H133 H 0.95253 0.85711 0.01692 0.0
H134 H 0.07402 0.71908 0.03153 0.0
O135 O 0.59381 0.66739 0.15882 0.0
H136 H 0.90168 0.51909 0.20594 0.0
H137 H 0.57302 0.51093 0.19976 0.0
H138 H 0.03837 0.49199 0.89655 0.0
H139 H 0.57654 0.91649 0.01052 0.0
H140 H 0.21294 0.54043 0.92281 0.0
H141 H 0.69564 0.06473 0.01264 0.0
O142 O 0.89505 0.51288 0.04824 0.0
H143 H 0.5895 0.4281 0.00154 0.0
H144 H 0.71901 0.36221 0.15781 0.0
H145 H 0.6459 0.2203 0.11338 0.0
H146 H 0.5944 0.25108 0.03191 0.0
H147 H 0.60087 0.56923 0.05643 0.0
H148 H 0.56492 0.38531 0.25908 0.0
H149 H 0.72621 0.2854 0.26868 0.0
O150 O 0.87655 0.51159 0.12524 0.0
C151 C 0.9476 0.71349 0.13622 0.0
C152 C 0.82411 0.3978 0.24204 0.0
C153 C 0.63923 0.41222 0.24703 0.0
N154 N 0.73839 0.52728 0.20024 0.0
C155 C 0.82788 0.48913 0.21761 0.0
C156 C 0.64443 0.4925 0.21657 0.0
C157 C 0.72917 0.35866 0.25465 0.0
C158 C 0.70076 0.80717 0.01105 0.0
N159 N 0.8059 0.79032 0.01495 0.0
C160 C 0.65971 0.90529 0.00964 0.0
C161 C 0.72615 -0.01224 0.01163 0.0
C162 C 0.832 -0.03 0.01495 0.0
C163 C 0.87123 0.87063 0.01505 0.0
C164 C 0.15287 0.63333 -0.0209 0.0
C165 C 0.95899 0.58063 -0.0501 0.0
C166 C 0.06384 0.67372 0.00095 0.0
N167 N 0.96696 0.64665 -0.01298 0.0
C168 C 0.04644 0.54518 0.92515 0.0
C169 C 0.14427 0.57143 -0.05991 0.0
C170 C 0.92743 0.4868 0.08827 0.0
C171 C 0.61013 0.41358 0.0376 0.0
C172 C 0.67734 0.37987 0.12674 0.0
C173 C 0.64324 0.29747 0.1001 0.0
C174 C 0.61347 0.31437 0.05439 0.0
N175 N 0.66341 0.47883 0.11211 0.0
C176 C 0.62135 0.49423 0.06883 0.0
Co177 Co 0.78125 0.37787 0.54386 0.0
Co178 Co 0.83161 0.26768 0.64738 0.0
O179 O 0.75331 0.26877 0.58901 0.0
C180 C 0.72606 0.20297 0.47492 0.0
O181 O 0.6452 0.18207 0.50172 0.0
C182 C 0.75277 0.09142 0.71448 0.0
O183 O 0.77407 0.15586 0.74753 0.0
O184 O 0.73816 0.39506 0.66941 0.0
O185 O 0.75905 0.4804 0.59942 0.0
H186 H -0.02059 0.43011 0.78678 0.0
H187 H 0.6582 0.42751 0.46055 0.0
O188 O 0.79254 0.27061 0.48881 0.0
H189 H 0.41554 0.31278 0.58488 0.0
H190 H 0.83332 0.74337 0.48898 0.0
H191 H 0.91126 0.38435 0.45731 0.0
H192 H 0.5939 0.35505 0.60382 0.0
H193 H 0.75218 0.60817 0.53859 0.0
O194 O 0.75177 0.1301 0.67185 0.0
H195 H 0.8358 0.39752 0.73531 0.0
H196 H -0.01195 0.12636 0.69178 0.0
H197 H -0.01267 0.51619 0.40733 0.0
H198 H 0.48038 0.39076 0.44165 0.0
H199 H 0.94904 0.6975 0.42316 0.0
H200 H 0.36366 0.31082 0.50374 0.0
O201 O 0.93098 0.37342 0.55482 0.0
H202 H 0.90605 -0.00441 0.52916 0.0
H203 H 0.0659 0.25873 0.62653 0.0
H204 H 0.16713 0.17629 0.56436 0.0
H205 H 0.09212 0.0377 0.51754 0.0
H206 H 0.80188 0.08931 0.58765 0.0
H207 H 0.14115 0.17802 0.73279 0.0
H208 H 0.14576 0.34378 0.77481 0.0
O209 O 0.92132 0.38646 0.63068 0.0
C210 C 0.73778 0.48175 0.64461 0.0
C211 C -0.01254 0.37512 0.76001 0.0
C212 C 0.07687 0.22817 0.73216 0.0
N213 N 0.91054 0.26805 0.70371 0.0
C214 C 0.90378 0.34997 0.73293 0.0
C215 C -0.01122 0.19941 0.70896 0.0
C216 C 0.07875 0.3206 0.75548 0.0
C217 C 0.60471 0.40523 0.48835 0.0
N218 N 0.63754 0.38823 0.53268 0.0
C219 C 0.50384 0.38236 0.47734 0.0
C220 C 0.43875 0.33925 0.51167 0.0
C221 C 0.46994 0.33335 0.55748 0.0
C222 C 0.56992 0.3607 0.56788 0.0
C223 C 0.84858 0.66387 0.48218 0.0
C224 C 0.88712 0.46188 0.46342 0.0
C225 C 0.8009 0.58682 0.50924 0.0
N226 N 0.8193 0.48653 0.49948 0.0
C227 C 0.93395 0.53684 0.43542 0.0
C228 C 0.91353 0.63847 0.44462 0.0
C229 C 0.95817 0.41688 0.59201 0.0
C230 C 0.94238 0.05115 0.55144 0.0
C231 C 0.03022 0.19824 0.60703 0.0
C232 C 0.08981 0.15018 0.57216 0.0
C233 C 0.04643 0.0747 0.54488 0.0
N234 N 0.92739 0.17482 0.6138 0.0
C235 C 0.88393 0.10316 0.58561 0.0
Co236 Co 0.57663 0.16339 0.34035 0.0
Co237 Co 0.70833 0.0787 0.2421 0.0
O238 O 0.70183 0.14119 0.30416 0.0
C239 C 0.73238 0.15673 0.42601 0.0
O240 O 0.82486 0.14281 0.40691 0.0
C241 C 0.88345 0.18996 0.18092 0.0
O242 O 0.81014 0.19436 0.14999 0.0
O243 O 0.60437 0.18693 0.21415 0.0
O244 O 0.49683 0.20623 0.27712 0.0
H245 H 0.58058 0.87007 0.11199 0.0
H246 H 0.78525 0.26176 0.3506 0.0
O247 O 0.65017 0.12426 0.40439 0.0
H248 H 0.54517 0.54153 0.34282 0.0
H249 H 0.22301 0.04405 0.36477 0.0
H250 H 0.51427 0.21093 0.43934 0.0
H251 H 0.4761 0.36649 0.35293 0.0
H252 H 0.35815 0.12663 0.31692 0.0
O253 O 0.85497 0.15729 0.22332 0.0
H254 H 0.56022 0.00731 0.17286 0.0
H255 H 0.88625 -0.00209 0.1899 0.0
H256 H 0.37518 0.13923 0.48741 0.0
H257 H 0.85051 0.4314 0.36 0.0
H258 H 0.22996 0.04877 0.45103 0.0
H259 H 0.72942 0.57736 0.35413 0.0
O260 O 0.53459 0.02015 0.33095 0.0
H261 H 0.89188 0.90178 0.37586 0.0
H262 H 0.73205 0.852 0.22359 0.0
H263 H 0.81248 0.70692 0.26283 0.0
H264 H 0.88825 0.72964 0.34084 0.0
H265 H 0.83955 0.04997 0.32941 0.0
H266 H 0.90804 0.89938 0.12093 0.0
H267 H 0.75621 0.81594 0.09279 0.0
O268 O 0.57308 -5e-05 0.25528 0.0
C269 C 0.51143 0.21056 0.23129 0.0
C270 C 0.64612 0.90786 0.12702 0.0
C271 C 0.83165 0.92164 0.13194 0.0
N272 N 0.72139 0.01495 0.18312 0.0
C273 C 0.63568 -0.01721 0.16083 0.0
C274 C 0.81862 -0.01573 0.16917 0.0
C275 C 0.74502 0.87727 0.11432 0.0
C276 C 0.72869 0.32064 0.35602 0.0
N277 N 0.62417 0.30204 0.35192 0.0
C278 C 0.76769 0.41897 0.35946 0.0
C279 C 0.70006 0.50028 0.35595 0.0
C280 C 0.59499 0.48077 0.35157 0.0
C281 C 0.55728 0.38125 0.35329 0.0
C282 C 0.28328 0.08649 0.38118 0.0
C283 C 0.4478 0.18138 0.42257 0.0
C284 C 0.36037 0.13541 0.35434 0.0
N285 N 0.44588 0.17587 0.37506 0.0
C286 C 0.37002 0.13707 0.45029 0.0
C287 C 0.28861 0.08674 0.42965 0.0
C288 C 0.51452 -0.01738 0.29128 0.0
C289 C 0.8613 0.89145 0.34107 0.0
C290 C 0.77462 0.8667 0.25477 0.0
C291 C 0.81665 0.78232 0.27788 0.0
C292 C 0.85907 0.79477 0.32169 0.0
N293 N 0.78482 0.96407 0.27163 0.0
C294 C 0.82835 -0.02431 0.31469 0.0
Co295 Co 0.25376 0.08846 0.82831 0.0
Co296 Co 0.34536 0.18076 0.71957 0.0
O297 O 0.27741 0.20026 0.78377 0.0
C298 C 0.284 0.25353 0.91462 0.0
O299 O 0.30376 0.3374 0.89101 0.0
C300 C 0.30516 0.3948 0.66989 0.0
O301 O 0.40673 0.40066 0.66701 0.0
O302 O 0.24827 0.05736 0.70038 0.0
O303 O 0.23111 -0.00674 0.77291 0.0
H304 H 0.31292 0.08907 0.55406 0.0
H305 H 0.1421 0.27665 0.85801 0.0
O306 O 0.27308 0.16808 0.89238 0.0
H307 H 0.87424 0.05444 0.79911 0.0
H308 H 0.12133 0.92477 -0.027 0.0
H309 H 0.33734 0.87698 0.83262 0.0
H310 H 0.05473 -6e-05 0.79607 0.0
H311 H 0.11335 0.04519 0.90796 0.0
O312 O 0.26366 0.31088 0.68865 0.0
H313 H 0.25758 0.1576 0.63068 0.0
H314 H 0.5698 0.17639 0.67121 0.0
H315 H 0.37355 0.77211 0.9027 0.0
H316 H 0.96336 0.33223 0.86469 0.0
H317 H 0.26981 0.79935 -0.02586 0.0
H318 H 0.82798 0.22676 0.83086 0.0
O319 O 0.40313 0.05161 0.82391 0.0
H320 H 0.4046 0.43895 0.83115 0.0
H321 H 0.57388 0.17413 0.74268 0.0
H322 H 0.67759 0.27184 0.7966 0.0
H323 H 0.59057 0.39682 0.84621 0.0
H324 H 0.32257 0.37828 0.76287 0.0
H325 H 0.62895 0.11245 0.59528 0.0
H326 H 0.5011 0.06667 0.53552 0.0
O327 O 0.42865 0.06135 0.7455 0.0
C328 C 0.22881 -0.01979 0.72819 0.0
C329 C 0.37029 0.1133 0.5786 0.0
C330 C 0.54741 0.12304 0.60264 0.0
N331 N 0.40923 0.16445 0.65732 0.0
C332 C 0.33912 0.14869 0.62281 0.0
C333 C 0.51278 0.15704 0.64675 0.0
C334 C 0.47562 0.09921 0.56861 0.0
C335 C 0.08394 0.22275 0.84945 0.0
N336 N 0.10937 0.12926 0.8313 0.0
C337 C -0.01788 0.25736 0.85107 0.0
C338 C 0.90598 0.1976 0.83185 0.0
C339 C 0.93191 0.1022 0.81378 0.0
C340 C 0.03454 0.06966 0.81325 0.0
C341 C 0.1753 0.91716 -0.05595 0.0
C342 C 0.2954 0.89097 0.86465 0.0
C343 C 0.1681 -0.01594 0.90669 0.0
N344 N 0.23154 -0.02649 0.86868 0.0
C345 C 0.31284 0.82873 0.90323 0.0
C346 C 0.25351 0.84368 -0.05647 0.0
C347 C 0.44541 0.0198 0.78578 0.0
C348 C 0.44994 0.39471 0.8067 0.0
C349 C 0.54383 0.24602 0.75408 0.0
C350 C 0.60084 0.29647 0.78779 0.0
C351 C 0.55164 0.36785 0.81586 0.0
N352 N 0.44563 0.27723 0.74317 0.0
C353 C 0.40256 0.35705 0.76742 0.0
Co354 Co 0.34543 0.72916 0.32561 0.0
Co355 Co 0.24823 0.82932 0.22451 0.0
O356 O 0.22645 0.7596 0.28674 0.0
C357 C 0.17989 0.77516 0.41177 0.0
O358 O 0.11841 0.8371 0.38899 0.0
C359 C 0.06072 0.74364 0.1566 0.0
O360 O 0.13497 0.73719 0.12517 0.0
O361 O 0.35599 0.71914 0.1985 0.0
O362 O 0.43951 0.71093 0.26643 0.0
H363 H 0.47121 -0.00078 0.1036 0.0
H364 H 0.16014 0.61237 0.35869 0.0
O365 O 0.26252 0.74005 0.39067 0.0
H366 H 0.38178 0.35771 0.28147 0.0
H367 H 0.51996 0.58865 0.46387 0.0
H368 H 0.5682 0.80109 0.32353 0.0
H369 H 0.4374 0.53512 0.2834 0.0
H370 H 0.38646 0.59784 0.40302 0.0
O371 O 0.09271 0.77156 0.19881 0.0
H372 H 0.42316 0.84423 0.14939 0.0
H373 H 0.11921 0.96294 0.16909 0.0
H374 H 0.69651 0.80954 0.3863 0.0
H375 H 0.10912 0.43384 0.36088 0.0
H376 H 0.66884 0.70635 0.45783 0.0
H377 H 0.22105 0.30436 0.32321 0.0
O378 O 0.38255 0.87617 0.32504 0.0
H379 H 0.01414 0.00957 0.34229 0.0
H380 H 0.29215 0.05155 0.22827 0.0
H381 H 0.20997 0.2014 0.26141 0.0
H382 H 0.06551 0.18156 0.31957 0.0
H383 H 0.06536 0.86028 0.2922 0.0
H384 H 0.17739 0.12206 0.13979 0.0
H385 H 0.36152 0.14802 0.11048 0.0
O386 O 0.38352 0.89635 0.2471 0.0
C387 C 0.44241 0.70441 0.22112 0.0
C388 C 0.39821 -0.00734 0.1223 0.0
C389 C 0.23233 0.06362 0.14042 0.0
N390 N 0.27008 0.89904 0.16619 0.0
C391 C 0.36684 0.90384 0.1454 0.0
C392 C 0.19841 -0.02974 0.15615 0.0
C393 C 0.33442 0.07672 0.12487 0.0
C394 C 0.21399 0.55712 0.34465 0.0
N395 N 0.30694 0.58561 0.32449 0.0
C396 C 0.18212 0.45589 0.34456 0.0
C397 C 0.24417 0.3831 0.32261 0.0
C398 C 0.33523 0.41293 0.29993 0.0
C399 C 0.36661 0.51453 0.30164 0.0
C400 C 0.5294 0.63894 0.43436 0.0
C401 C 0.55506 0.75822 0.35529 0.0
C402 C 0.4532 0.64475 0.40097 0.0
N403 N 0.46526 0.70501 0.36274 0.0
C404 C 0.62961 0.76102 0.3899 0.0
C405 C 0.61517 0.70201 0.42997 0.0
C406 C 0.42045 0.91667 0.28762 0.0
C407 C 0.0608 0.01898 0.31107 0.0
C408 C 0.22082 0.04139 0.24815 0.0
C409 C 0.17631 0.12766 0.26824 0.0
C410 C 0.09513 0.11644 0.30022 0.0
N411 N 0.1756 0.94701 0.25278 0.0
C412 C 0.09595 0.93518 0.28458 0.0
Co413 Co 0.68119 0.87653 0.83447 0.0
Co414 Co 0.6277 0.77073 0.72946 0.0
O415 O 0.70692 0.76836 0.78847 0.0
C416 C 0.72978 0.70525 0.90855 0.0
O417 O 0.81997 0.69005 0.888 0.0
C418 C 0.71005 0.59345 0.66237 0.0
O419 O 0.69743 0.66005 0.62855 0.0
O420 O 0.72138 0.89526 0.70844 0.0
O421 O 0.70558 -0.02062 0.77869 0.0
H422 H 0.4181 -0.03294 0.62696 0.0
H423 H 0.80595 0.91654 0.91915 0.0
O424 O 0.66352 0.76686 0.88887 0.0
H425 H 0.04563 0.80493 0.79405 0.0
H426 H 0.62919 0.24098 0.8819 0.0
H427 H 0.54482 0.88594 0.91877 0.0
H428 H 0.87028 0.8541 0.77559 0.0
H429 H 0.71651 0.10146 0.83891 0.0
O430 O 0.70533 0.63108 0.70505 0.0
H431 H 0.57995 0.93553 0.66335 0.0
H432 H 0.49939 0.6221 0.6755 0.0
H433 H 0.45848 0.02244 -0.03724 0.0
H434 H -0.01936 0.85524 -0.06106 0.0
H435 H 0.50221 0.2025 -0.05531 0.0
H436 H 0.09808 0.7879 0.87655 0.0
O437 O 0.53119 0.87794 0.8232 0.0
H438 H 0.55334 0.55739 0.86285 0.0
H439 H 0.39307 0.75945 0.73939 0.0
H440 H 0.28707 0.70242 0.8081 0.0
H441 H 0.36996 0.6091 0.8719 0.0
H442 H 0.6499 0.59206 0.7904 0.0
H443 H 0.34814 0.65723 0.62753 0.0
H444 H 0.30591 0.83267 0.60265 0.0
O445 O 0.54031 0.89089 0.74764 0.0
C446 C 0.72376 -0.01889 0.73322 0.0
C447 C 0.44227 0.89176 0.6318 0.0
C448 C 0.3984 0.71705 0.6361 0.0
N449 N 0.54974 0.77664 0.67297 0.0
C450 C 0.53332 0.8711 0.6543 0.0
C451 C 0.48695 0.69776 0.66147 0.0
C452 C 0.37555 0.81491 0.62147 0.0
C453 C 0.85971 0.8945 0.89152 0.0
N454 N 0.82637 0.88286 0.84681 0.0
C455 C 0.95806 0.85934 0.90314 0.0
C456 C 0.02405 0.82132 0.86815 0.0
C457 C -0.00579 0.8272 0.82191 0.0
C458 C 0.89423 0.85678 0.81163 0.0
C459 C 0.61232 0.16278 0.89055 0.0
C460 C 0.57001 0.96299 0.91226 0.0
C461 C 0.66441 0.08345 0.86731 0.0
N462 N 0.64419 -0.0155 0.87843 0.0
C463 C 0.51777 0.04051 0.93663 0.0
C464 C 0.54066 0.1412 0.92608 0.0
C465 C 0.50521 0.92309 0.7861 0.0
C466 C 0.51692 0.59943 0.83549 0.0
C467 C 0.42625 0.70696 0.76416 0.0
C468 C 0.36674 0.67893 0.80369 0.0
C469 C 0.4139 0.6287 0.84037 0.0
N470 N 0.52895 0.68013 0.76053 0.0
C471 C 0.57015 0.61707 0.79343 0.0
loop_
_geom_bond_atom_site_label_1
_geom_bond_atom_site_label_2
_geom_bond_distance
_geom_bond_site_symmetry_2
_ccdc_geom_bond_type
Co0 O2 2.143 . S
Co0 O8 2.074 . S
Co0 O11 2.093 . S
Co0 O24 2.097 . S
Co0 N41 2.151 . S
Co0 N49 2.214 1_455 S
Co1 O2 2.160 . S
Co1 O7 2.058 . S
Co1 O17 2.057 . S
Co1 O32 2.037 . S
Co1 N36 2.145 . S
Co1 N57 2.257 . S
O2 Co0 2.143 . S
O2 Co1 2.160 . S
C3 O4 1.278 . S
C3 O11 1.224 . S
O4 C3 1.278 . S
C5 O6 1.245 . S
C5 O17 1.232 . S
O6 C5 1.245 . S
O7 Co1 2.058 . S
O7 C33 1.269 . S
O8 Co0 2.074 . S
O8 C33 1.257 . S
H9 C34 0.930 . S
H10 C40 0.930 . S
O11 Co0 2.093 . S
O11 C3 1.224 . S
H12 C44 0.929 1_655 S
H13 C46 0.930 1_556 S
H14 C47 0.930 . S
H15 C45 0.929 1_655 S
H16 C48 0.928 . S
O17 Co1 2.057 . S
O17 C5 1.232 . S
H18 C37 0.929 . S
H19 C38 0.929 . S
H20 C50 0.931 . S
H21 C42 0.929 . S
H22 C51 0.930 . S
H23 C43 0.931 . S
O24 Co0 2.097 . S
O24 C52 1.214 . S
H25 C53 0.929 . S
H26 C54 0.929 . S
H27 C55 0.930 . S
H28 C56 0.929 . S
H29 C58 0.930 . S
H30 C35 0.930 . S
H31 C39 0.930 . S
O32 Co1 2.037 . S
O32 C52 1.234 . S
C33 O7 1.269 . S
C33 O8 1.257 . S
C34 H9 0.930 . S
C34 C37 1.388 . S
C34 C39 1.418 . S
C35 H30 0.930 . S
C35 C38 1.404 . S
C35 C39 1.353 . S
N36 Co1 2.145 . S
N36 C37 1.397 . S
N36 C38 1.334 . S
C37 H18 0.929 . S
C37 C34 1.388 . S
C37 N36 1.397 . S
C38 H19 0.929 . S
C38 C35 1.404 . S
C38 N36 1.334 . S
C39 H31 0.930 . S
C39 C34 1.418 . S
C39 C35 1.353 . S
C40 H10 0.930 . S
C40 N41 1.330 . S
C40 C42 1.446 1_545 S
N41 Co0 2.151 . S
N41 C40 1.330 . S
N41 C45 1.418 . S
C42 H21 0.929 . S
C42 C40 1.446 1_565 S
C42 C43 1.332 . S
C43 H23 0.931 . S
C43 C42 1.332 . S
C43 C44 1.267 . S
C44 H12 0.929 1_455 S
C44 C43 1.267 . S
C44 C45 1.251 1_565 S
C45 H15 0.929 1_455 S
C45 N41 1.418 . S
C45 C44 1.251 1_545 S
C46 H13 0.930 1_554 S
C46 C48 1.406 . S
C46 C51 1.261 . S
C47 H14 0.930 . S
C47 N49 1.325 . S
C47 C50 1.357 . S
C48 H16 0.928 . S
C48 C46 1.406 . S
C48 N49 1.261 . S
N49 Co0 2.214 1_655 S
N49 C47 1.325 . S
N49 C48 1.261 . S
C50 H20 0.931 . S
C50 C47 1.357 . S
C50 C51 1.312 . S
C51 H22 0.930 . S
C51 C46 1.261 . S
C51 C50 1.312 . S
C52 O24 1.214 . S
C52 O32 1.234 . S
C53 H25 0.929 . S
C53 C56 1.391 . S
C53 C58 1.391 . S
C54 H26 0.929 . S
C54 C55 1.390 . S
C54 N57 1.391 . S
C55 H27 0.930 . S
C55 C54 1.390 . S
C55 C56 1.392 . S
C56 H28 0.929 . S
C56 C53 1.391 . S
C56 C55 1.392 . S
N57 Co1 2.257 . S
N57 C54 1.391 . S
N57 C58 1.388 . S
C58 H29 0.930 . S
C58 C53 1.391 . S
C58 N57 1.388 . S
Co59 O61 2.143 . S
Co59 O67 2.074 . S
Co59 O70 2.093 . S
Co59 O83 2.097 . S
Co59 N100 2.151 . S
Co59 N108 2.214 . S
Co60 O61 2.160 . S
Co60 O66 2.058 . S
Co60 O76 2.057 . S
Co60 O91 2.037 1_455 S
Co60 N95 2.145 1_455 S
Co60 N116 2.257 1_455 S
O61 Co59 2.143 . S
O61 Co60 2.160 . S
C62 O63 1.278 . S
C62 O70 1.224 . S
O63 C62 1.278 . S
C64 O65 1.245 . S
C64 O76 1.232 . S
O65 C64 1.245 . S
O66 Co60 2.058 . S
O66 C92 1.269 . S
O67 Co59 2.074 . S
O67 C92 1.257 . S
H68 C93 0.930 . S
H69 C99 0.930 . S
O70 Co59 2.093 . S
O70 C62 1.224 . S
H71 C103 0.929 . S
H72 C105 0.930 . S
H73 C106 0.930 . S
H74 C104 0.929 . S
H75 C107 0.928 . S
O76 Co60 2.057 . S
O76 C64 1.232 . S
H77 C96 0.929 . S
H78 C97 0.929 1_455 S
H79 C109 0.931 . S
H80 C101 0.929 . S
H81 C110 0.930 . S
H82 C102 0.931 . S
O83 Co59 2.097 . S
O83 C111 1.214 1_455 S
H84 C112 0.929 . S
H85 C113 0.929 . S
H86 C114 0.930 . S
H87 C115 0.929 1_545 S
H88 C117 0.930 . S
H89 C94 0.930 . S
H90 C98 0.930 . S
O91 Co60 2.037 1_655 S
O91 C111 1.234 . S
C92 O66 1.269 . S
C92 O67 1.257 . S
C93 H68 0.930 . S
C93 C96 1.388 . S
C93 C98 1.418 . S
C94 H89 0.930 . S
C94 C97 1.404 . S
C94 C98 1.353 . S
N95 Co60 2.145 1_655 S
N95 C96 1.397 . S
N95 C97 1.334 . S
C96 H77 0.929 . S
C96 C93 1.388 . S
C96 N95 1.397 . S
C97 H78 0.929 1_655 S
C97 C94 1.404 . S
C97 N95 1.334 . S
C98 H90 0.930 . S
C98 C93 1.418 . S
C98 C94 1.353 . S
C99 H69 0.930 . S
C99 N100 1.330 . S
C99 C101 1.446 . S
N100 Co59 2.151 . S
N100 C99 1.330 . S
N100 C104 1.418 . S
C101 H80 0.929 . S
C101 C99 1.446 . S
C101 C102 1.332 . S
C102 H82 0.931 . S
C102 C101 1.332 . S
C102 C103 1.267 . S
C103 H71 0.929 . S
C103 C102 1.267 . S
C103 C104 1.251 . S
C104 H74 0.929 . S
C104 N100 1.418 . S
C104 C103 1.251 . S
C105 H72 0.930 . S
C105 C107 1.406 . S
C105 C110 1.261 . S
C106 H73 0.930 . S
C106 N108 1.325 . S
C106 C109 1.357 . S
C107 H75 0.928 . S
C107 C105 1.406 . S
C107 N108 1.261 . S
N108 Co59 2.214 . S
N108 C106 1.325 . S
N108 C107 1.261 . S
C109 H79 0.931 . S
C109 C106 1.357 . S
C109 C110 1.312 . S
C110 H81 0.930 . S
C110 C105 1.261 . S
C110 C109 1.312 . S
C111 O83 1.214 1_655 S
C111 O91 1.234 . S
C112 H84 0.929 . S
C112 C115 1.391 1_545 S
C112 C117 1.391 1_645 S
C113 H85 0.929 . S
C113 C114 1.390 . S
C113 N116 1.391 . S
C114 H86 0.930 . S
C114 C113 1.390 . S
C114 C115 1.392 . S
C115 H87 0.929 1_565 S
C115 C112 1.391 1_565 S
C115 C114 1.392 . S
N116 Co60 2.257 1_655 S
N116 C113 1.391 . S
N116 C117 1.388 1_655 S
C117 H88 0.930 . S
C117 C112 1.391 1_465 S
C117 N116 1.388 1_455 S
Co118 O120 2.143 . S
Co118 O126 2.074 . S
Co118 O129 2.093 . S
Co118 O142 2.097 . S
Co118 N159 2.151 . S
Co118 N167 2.214 1_655 S
Co119 O120 2.160 . S
Co119 O125 2.058 . S
Co119 O135 2.057 . S
Co119 O150 2.037 . S
Co119 N154 2.145 . S
Co119 N175 2.257 . S
O120 Co118 2.143 . S
O120 Co119 2.160 . S
C121 O122 1.278 . S
C121 O129 1.224 . S
O122 C121 1.278 . S
C123 O124 1.245 . S
C123 O135 1.232 . S
O124 C123 1.245 . S
O125 Co119 2.058 . S
O125 C151 1.269 . S
O126 Co118 2.074 . S
O126 C151 1.257 . S
H127 C152 0.930 . S
H128 C158 0.930 . S
O129 Co118 2.093 . S
O129 C121 1.224 . S
H130 C162 0.929 1_455 S
H131 C164 0.930 1_556 S
H132 C165 0.930 . S
H133 C163 0.929 1_455 S
H134 C166 0.928 . S
O135 Co119 2.057 . S
O135 C123 1.232 . S
H136 C155 0.929 . S
H137 C156 0.929 . S
H138 C168 0.931 . S
H139 C160 0.929 . S
H140 C169 0.930 . S
H141 C161 0.931 . S
O142 Co118 2.097 . S
O142 C170 1.214 . S
H143 C171 0.929 . S
H144 C172 0.929 . S
H145 C173 0.930 . S
H146 C174 0.929 . S
H147 C176 0.930 . S
H148 C153 0.930 . S
H149 C157 0.930 . S
O150 Co119 2.037 . S
O150 C170 1.234 . S
C151 O125 1.269 . S
C151 O126 1.257 . S
C152 H127 0.930 . S
C152 C155 1.388 . S
C152 C157 1.418 . S
C153 H148 0.930 . S
C153 C156 1.404 . S
C153 C157 1.353 . S
N154 Co119 2.145 . S
N154 C155 1.397 . S
N154 C156 1.334 . S
C155 H136 0.929 . S
C155 C152 1.388 . S
C155 N154 1.397 . S
C156 H137 0.929 . S
C156 C153 1.404 . S
C156 N154 1.334 . S
C157 H149 0.930 . S
C157 C152 1.418 . S
C157 C153 1.353 . S
C158 H128 0.930 . S
C158 N159 1.330 . S
C158 C160 1.446 1_565 S
N159 Co118 2.151 . S
N159 C158 1.330 . S
N159 C163 1.418 . S
C160 H139 0.929 . S
C160 C158 1.446 1_545 S
C160 C161 1.332 . S
C161 H141 0.931 . S
C161 C160 1.332 . S
C161 C162 1.267 . S
C162 H130 0.929 1_655 S
C162 C161 1.267 . S
C162 C163 1.251 1_545 S
C163 H133 0.929 1_655 S
C163 N159 1.418 . S
C163 C162 1.251 1_565 S
C164 H131 0.930 1_554 S
C164 C166 1.406 . S
C164 C169 1.261 . S
C165 H132 0.930 . S
C165 N167 1.325 . S
C165 C168 1.357 . S
C166 H134 0.928 . S
C166 C164 1.406 . S
C166 N167 1.261 . S
N167 Co118 2.214 1_455 S
N167 C165 1.325 . S
N167 C166 1.261 . S
C168 H138 0.931 . S
C168 C165 1.357 . S
C168 C169 1.312 . S
C169 H140 0.930 . S
C169 C164 1.261 . S
C169 C168 1.312 . S
C170 O142 1.214 . S
C170 O150 1.234 . S
C171 H143 0.929 . S
C171 C174 1.391 . S
C171 C176 1.391 . S
C172 H144 0.929 . S
C172 C173 1.390 . S
C172 N175 1.391 . S
C173 H145 0.930 . S
C173 C172 1.390 . S
C173 C174 1.392 . S
C174 H146 0.929 . S
C174 C171 1.391 . S
C174 C173 1.392 . S
N175 Co119 2.257 . S
N175 C172 1.391 . S
N175 C176 1.388 . S
C176 H147 0.930 . S
C176 C171 1.391 . S
C176 N175 1.388 . S
Co177 O179 2.143 . S
Co177 O185 2.074 . S
Co177 O188 2.093 . S
Co177 O201 2.097 . S
Co177 N218 2.151 . S
Co177 N226 2.214 . S
Co178 O179 2.160 . S
Co178 O184 2.058 . S
Co178 O194 2.057 . S
Co178 O209 2.037 1_655 S
Co178 N213 2.145 1_655 S
Co178 N234 2.257 1_655 S
O179 Co177 2.143 . S
O179 Co178 2.160 . S
C180 O181 1.278 . S
C180 O188 1.224 . S
O181 C180 1.278 . S
C182 O183 1.245 . S
C182 O194 1.232 . S
O183 C182 1.245 . S
O184 Co178 2.058 . S
O184 C210 1.269 . S
O185 Co177 2.074 . S
O185 C210 1.257 . S
H186 C211 0.930 . S
H187 C217 0.930 . S
O188 Co177 2.093 . S
O188 C180 1.224 . S
H189 C221 0.929 . S
H190 C223 0.930 . S
H191 C224 0.930 . S
H192 C222 0.929 . S
H193 C225 0.928 . S
O194 Co178 2.057 . S
O194 C182 1.232 . S
H195 C214 0.929 . S
H196 C215 0.929 1_655 S
H197 C227 0.931 . S
H198 C219 0.929 . S
H199 C228 0.930 . S
H200 C220 0.931 . S
O201 Co177 2.097 . S
O201 C229 1.214 1_655 S
H202 C230 0.929 . S
H203 C231 0.929 . S
H204 C232 0.930 . S
H205 C233 0.929 1_565 S
H206 C235 0.930 . S
H207 C212 0.930 . S
H208 C216 0.930 . S
O209 Co178 2.037 1_455 S
O209 C229 1.234 . S
C210 O184 1.269 . S
C210 O185 1.257 . S
C211 H186 0.930 . S
C211 C214 1.388 . S
C211 C216 1.418 . S
C212 H207 0.930 . S
C212 C215 1.404 . S
C212 C216 1.353 . S
N213 Co178 2.145 1_455 S
N213 C214 1.397 . S
N213 C215 1.334 . S
C214 H195 0.929 . S
C214 C211 1.388 . S
C214 N213 1.397 . S
C215 H196 0.929 1_455 S
C215 C212 1.404 . S
C215 N213 1.334 . S
C216 H208 0.930 . S
C216 C211 1.418 . S
C216 C212 1.353 . S
C217 H187 0.930 . S
C217 N218 1.330 . S
C217 C219 1.446 . S
N218 Co177 2.151 . S
N218 C217 1.330 . S
N218 C222 1.418 . S
C219 H198 0.929 . S
C219 C217 1.446 . S
C219 C220 1.332 . S
C220 H200 0.931 . S
C220 C219 1.332 . S
C220 C221 1.267 . S
C221 H189 0.929 . S
C221 C220 1.267 . S
C221 C222 1.251 . S
C222 H192 0.929 . S
C222 N218 1.418 . S
C222 C221 1.251 . S
C223 H190 0.930 . S
C223 C225 1.406 . S
C223 C228 1.261 . S
C224 H191 0.930 . S
C224 N226 1.325 . S
C224 C227 1.357 . S
C225 H193 0.928 . S
C225 C223 1.406 . S
C225 N226 1.261 . S
N226 Co177 2.214 . S
N226 C224 1.325 . S
N226 C225 1.261 . S
C227 H197 0.931 . S
C227 C224 1.357 . S
C227 C228 1.312 . S
C228 H199 0.930 . S
C228 C223 1.261 . S
C228 C227 1.312 . S
C229 O201 1.214 1_455 S
C229 O209 1.234 . S
C230 H202 0.929 . S
C230 C233 1.391 1_565 S
C230 C235 1.391 1_465 S
C231 H203 0.929 . S
C231 C232 1.390 . S
C231 N234 1.391 . S
C232 H204 0.930 . S
C232 C231 1.390 . S
C232 C233 1.392 . S
C233 H205 0.929 1_545 S
C233 C230 1.391 1_545 S
C233 C232 1.392 . S
N234 Co178 2.257 1_455 S
N234 C231 1.391 . S
N234 C235 1.388 1_455 S
C235 H206 0.930 . S
C235 C230 1.391 1_645 S
C235 N234 1.388 1_655 S
Co236 O238 2.143 . S
Co236 O244 2.074 . S
Co236 O247 2.093 . S
Co236 O260 2.097 . S
Co236 N277 2.151 . S
Co236 N285 2.214 . S
Co237 O238 2.160 . S
Co237 O243 2.058 . S
Co237 O253 2.057 . S
Co237 O268 2.037 1_545 S
Co237 N272 2.145 1_545 S
Co237 N293 2.257 1_545 S
O238 Co236 2.143 . S
O238 Co237 2.160 . S
C239 O240 1.278 . S
C239 O247 1.224 . S
O240 C239 1.278 . S
C241 O242 1.245 . S
C241 O253 1.232 . S
O242 C241 1.245 . S
O243 Co237 2.058 . S
O243 C269 1.269 . S
O244 Co236 2.074 . S
O244 C269 1.257 . S
H245 C270 0.930 . S
H246 C276 0.930 . S
O247 Co236 2.093 . S
O247 C239 1.224 . S
H248 C280 0.929 . S
H249 C282 0.930 . S
H250 C283 0.930 . S
H251 C281 0.929 . S
H252 C284 0.928 . S
O253 Co237 2.057 . S
O253 C241 1.232 . S
H254 C273 0.929 . S
H255 C274 0.929 1_545 S
H256 C286 0.931 . S
H257 C278 0.929 . S
H258 C287 0.930 . S
H259 C279 0.931 . S
O260 Co236 2.097 . S
O260 C288 1.214 1_545 S
H261 C289 0.929 . S
H262 C290 0.929 . S
H263 C291 0.930 . S
H264 C292 0.929 1_455 S
H265 C294 0.930 . S
H266 C271 0.930 . S
H267 C275 0.930 . S
O268 Co237 2.037 1_565 S
O268 C288 1.234 . S
C269 O243 1.269 . S
C269 O244 1.257 . S
C270 H245 0.930 . S
C270 C273 1.388 . S
C270 C275 1.418 . S
C271 H266 0.930 . S
C271 C274 1.404 . S
C271 C275 1.353 . S
N272 Co237 2.145 1_565 S
N272 C273 1.397 . S
N272 C274 1.334 . S
C273 H254 0.929 . S
C273 C270 1.388 . S
C273 N272 1.397 . S
C274 H255 0.929 1_565 S
C274 C271 1.404 . S
C274 N272 1.334 . S
C275 H267 0.930 . S
C275 C270 1.418 . S
C275 C271 1.353 . S
C276 H246 0.930 . S
C276 N277 1.330 . S
C276 C278 1.446 . S
N277 Co236 2.151 . S
N277 C276 1.330 . S
N277 C281 1.418 . S
C278 H257 0.929 . S
C278 C276 1.446 . S
C278 C279 1.332 . S
C279 H259 0.931 . S
C279 C278 1.332 . S
C279 C280 1.267 . S
C280 H248 0.929 . S
C280 C279 1.267 . S
C280 C281 1.251 . S
C281 H251 0.929 . S
C281 N277 1.418 . S
C281 C280 1.251 . S
C282 H249 0.930 . S
C282 C284 1.406 . S
C282 C287 1.261 . S
C283 H250 0.930 . S
C283 N285 1.325 . S
C283 C286 1.357 . S
C284 H252 0.928 . S
C284 C282 1.406 . S
C284 N285 1.261 . S
N285 Co236 2.214 . S
N285 C283 1.325 . S
N285 C284 1.261 . S
C286 H256 0.931 . S
C286 C283 1.357 . S
C286 C287 1.312 . S
C287 H258 0.930 . S
C287 C282 1.261 . S
C287 C286 1.312 . S
C288 O260 1.214 1_565 S
C288 O268 1.234 . S
C289 H261 0.929 . S
C289 C292 1.391 1_455 S
C289 C294 1.391 1_465 S
C290 H262 0.929 . S
C290 C291 1.390 . S
C290 N293 1.391 . S
C291 H263 0.930 . S
C291 C290 1.390 . S
C291 C292 1.392 . S
C292 H264 0.929 1_655 S
C292 C289 1.391 1_655 S
C292 C291 1.392 . S
N293 Co237 2.257 1_565 S
N293 C290 1.391 . S
N293 C294 1.388 1_565 S
C294 H265 0.930 . S
C294 C289 1.391 1_645 S
C294 N293 1.388 1_545 S
Co295 O297 2.143 . S
Co295 O303 2.074 . S
Co295 O306 2.093 . S
Co295 O319 2.097 . S
Co295 N336 2.151 . S
Co295 N344 2.214 1_545 S
Co296 O297 2.160 . S
Co296 O302 2.058 . S
Co296 O312 2.057 . S
Co296 O327 2.037 . S
Co296 N331 2.145 . S
Co296 N352 2.257 . S
O297 Co295 2.143 . S
O297 Co296 2.160 . S
C298 O299 1.278 . S
C298 O306 1.224 . S
O299 C298 1.278 . S
C300 O301 1.245 . S
C300 O312 1.232 . S
O301 C300 1.245 . S
O302 Co296 2.058 . S
O302 C328 1.269 . S
O303 Co295 2.074 . S
O303 C328 1.257 . S
H304 C329 0.930 . S
H305 C335 0.930 . S
O306 Co295 2.093 . S
O306 C298 1.224 . S
H307 C339 0.929 1_565 S
H308 C341 0.930 1_554 S
H309 C342 0.930 . S
H310 C340 0.929 1_565 S
H311 C343 0.928 . S
O312 Co296 2.057 . S
O312 C300 1.232 . S
H313 C332 0.929 . S
H314 C333 0.929 . S
H315 C345 0.931 . S
H316 C337 0.929 . S
H317 C346 0.930 . S
H318 C338 0.931 . S
O319 Co295 2.097 . S
O319 C347 1.214 . S
H320 C348 0.929 . S
H321 C349 0.929 . S
H322 C350 0.930 . S
H323 C351 0.929 . S
H324 C353 0.930 . S
H325 C330 0.930 . S
H326 C334 0.930 . S
O327 Co296 2.037 . S
O327 C347 1.234 . S
C328 O302 1.269 . S
C328 O303 1.257 . S
C329 H304 0.930 . S
C329 C332 1.388 . S
C329 C334 1.418 . S
C330 H325 0.930 . S
C330 C333 1.404 . S
C330 C334 1.353 . S
N331 Co296 2.145 . S
N331 C332 1.397 . S
N331 C333 1.334 . S
C332 H313 0.929 . S
C332 C329 1.388 . S
C332 N331 1.397 . S
C333 H314 0.929 . S
C333 C330 1.404 . S
C333 N331 1.334 . S
C334 H326 0.930 . S
C334 C329 1.418 . S
C334 C330 1.353 . S
C335 H305 0.930 . S
C335 N336 1.330 . S
C335 C337 1.446 1_455 S
N336 Co295 2.151 . S
N336 C335 1.330 . S
N336 C340 1.418 . S
C337 H316 0.929 . S
C337 C335 1.446 1_655 S
C337 C338 1.332 . S
C338 H318 0.931 . S
C338 C337 1.332 . S
C338 C339 1.267 . S
C339 H307 0.929 1_545 S
C339 C338 1.267 . S
C339 C340 1.251 1_655 S
C340 H310 0.929 1_545 S
C340 N336 1.418 . S
C340 C339 1.251 1_455 S
C341 H308 0.930 1_556 S
C341 C343 1.406 . S
C341 C346 1.261 . S
C342 H309 0.930 . S
C342 N344 1.325 . S
C342 C345 1.357 . S
C343 H311 0.928 . S
C343 C341 1.406 . S
C343 N344 1.261 . S
N344 Co295 2.214 1_565 S
N344 C342 1.325 . S
N344 C343 1.261 . S
C345 H315 0.931 . S
C345 C342 1.357 . S
C345 C346 1.312 . S
C346 H317 0.930 . S
C346 C341 1.261 . S
C346 C345 1.312 . S
C347 O319 1.214 . S
C347 O327 1.234 . S
C348 H320 0.929 . S
C348 C351 1.391 . S
C348 C353 1.391 . S
C349 H321 0.929 . S
C349 C350 1.390 . S
C349 N352 1.391 . S
C350 H322 0.930 . S
C350 C349 1.390 . S
C350 C351 1.392 . S
C351 H323 0.929 . S
C351 C348 1.391 . S
C351 C350 1.392 . S
N352 Co296 2.257 . S
N352 C349 1.391 . S
N352 C353 1.388 . S
C353 H324 0.930 . S
C353 C348 1.391 . S
C353 N352 1.388 . S
Co354 O356 2.143 . S
Co354 O362 2.074 . S
Co354 O365 2.093 . S
Co354 O378 2.097 . S
Co354 N395 2.151 . S
Co354 N403 2.214 . S
Co355 O356 2.160 . S
Co355 O361 2.058 . S
Co355 O371 2.057 . S
Co355 O386 2.037 1_565 S
Co355 N390 2.145 1_565 S
Co355 N411 2.257 1_565 S
O356 Co354 2.143 . S
O356 Co355 2.160 . S
C357 O358 1.278 . S
C357 O365 1.224 . S
O358 C357 1.278 . S
C359 O360 1.245 . S
C359 O371 1.232 . S
O360 C359 1.245 . S
O361 Co355 2.058 . S
O361 C387 1.269 . S
O362 Co354 2.074 . S
O362 C387 1.257 . S
H363 C388 0.930 . S
H364 C394 0.930 . S
O365 Co354 2.093 . S
O365 C357 1.224 . S
H366 C398 0.929 . S
H367 C400 0.930 . S
H368 C401 0.930 . S
H369 C399 0.929 . S
H370 C402 0.928 . S
O371 Co355 2.057 . S
O371 C359 1.232 . S
H372 C391 0.929 . S
H373 C392 0.929 1_565 S
H374 C404 0.931 . S
H375 C396 0.929 . S
H376 C405 0.930 . S
H377 C397 0.931 . S
O378 Co354 2.097 . S
O378 C406 1.214 1_565 S
H379 C407 0.929 . S
H380 C408 0.929 . S
H381 C409 0.930 . S
H382 C410 0.929 1_655 S
H383 C412 0.930 . S
H384 C389 0.930 . S
H385 C393 0.930 . S
O386 Co355 2.037 1_545 S
O386 C406 1.234 . S
C387 O361 1.269 . S
C387 O362 1.257 . S
C388 H363 0.930 . S
C388 C391 1.388 . S
C388 C393 1.418 . S
C389 H384 0.930 . S
C389 C392 1.404 . S
C389 C393 1.353 . S
N390 Co355 2.145 1_545 S
N390 C391 1.397 . S
N390 C392 1.334 . S
C391 H372 0.929 . S
C391 C388 1.388 . S
C391 N390 1.397 . S
C392 H373 0.929 1_545 S
C392 C389 1.404 . S
C392 N390 1.334 . S
C393 H385 0.930 . S
C393 C388 1.418 . S
C393 C389 1.353 . S
C394 H364 0.930 . S
C394 N395 1.330 . S
C394 C396 1.446 . S
N395 Co354 2.151 . S
N395 C394 1.330 . S
N395 C399 1.418 . S
C396 H375 0.929 . S
C396 C394 1.446 . S
C396 C397 1.332 . S
C397 H377 0.931 . S
C397 C396 1.332 . S
C397 C398 1.267 . S
C398 H366 0.929 . S
C398 C397 1.267 . S
C398 C399 1.251 . S
C399 H369 0.929 . S
C399 N395 1.418 . S
C399 C398 1.251 . S
C400 H367 0.930 . S
C400 C402 1.406 . S
C400 C405 1.261 . S
C401 H368 0.930 . S
C401 N403 1.325 . S
C401 C404 1.357 . S
C402 H370 0.928 . S
C402 C400 1.406 . S
C402 N403 1.261 . S
N403 Co354 2.214 . S
N403 C401 1.325 . S
N403 C402 1.261 . S
C404 H374 0.931 . S
C404 C401 1.357 . S
C404 C405 1.312 . S
C405 H376 0.930 . S
C405 C400 1.261 . S
C405 C404 1.312 . S
C406 O378 1.214 1_545 S
C406 O386 1.234 . S
C407 H379 0.929 . S
C407 C410 1.391 1_655 S
C407 C412 1.391 1_645 S
C408 H380 0.929 . S
C408 C409 1.390 . S
C408 N411 1.391 . S
C409 H381 0.930 . S
C409 C408 1.390 . S
C409 C410 1.392 . S
C410 H382 0.929 1_455 S
C410 C407 1.391 1_455 S
C410 C409 1.392 . S
N411 Co355 2.257 1_545 S
N411 C408 1.391 . S
N411 C412 1.388 1_545 S
C412 H383 0.930 . S
C412 C407 1.391 1_465 S
C412 N411 1.388 1_565 S
Co413 O415 2.143 . S
Co413 O421 2.074 . S
Co413 O424 2.093 . S
Co413 O437 2.097 . S
Co413 N454 2.151 . S
Co413 N462 2.214 1_565 S
Co414 O415 2.160 . S
Co414 O420 2.058 . S
Co414 O430 2.057 . S
Co414 O445 2.037 . S
Co414 N449 2.145 . S
Co414 N470 2.257 . S
O415 Co413 2.143 . S
O415 Co414 2.160 . S
C416 O417 1.278 . S
C416 O424 1.224 . S
O417 C416 1.278 . S
C418 O419 1.245 . S
C418 O430 1.232 . S
O419 C418 1.245 . S
O420 Co414 2.058 . S
O420 C446 1.269 . S
O421 Co413 2.074 . S
O421 C446 1.257 . S
H422 C447 0.930 . S
H423 C453 0.930 . S
O424 Co413 2.093 . S
O424 C416 1.224 . S
H425 C457 0.929 1_545 S
H426 C459 0.930 1_554 S
H427 C460 0.930 . S
H428 C458 0.929 1_545 S
H429 C461 0.928 . S
O430 Co414 2.057 . S
O430 C418 1.232 . S
H431 C450 0.929 . S
H432 C451 0.929 . S
H433 C463 0.931 . S
H434 C455 0.929 . S
H435 C464 0.930 . S
H436 C456 0.931 . S
O437 Co413 2.097 . S
O437 C465 1.214 . S
H438 C466 0.929 . S
H439 C467 0.929 . S
H440 C468 0.930 . S
H441 C469 0.929 . S
H442 C471 0.930 . S
H443 C448 0.930 . S
H444 C452 0.930 . S
O445 Co414 2.037 . S
O445 C465 1.234 . S
C446 O420 1.269 . S
C446 O421 1.257 . S
C447 H422 0.930 . S
C447 C450 1.388 . S
C447 C452 1.418 . S
C448 H443 0.930 . S
C448 C451 1.404 . S
C448 C452 1.353 . S
N449 Co414 2.145 . S
N449 C450 1.397 . S
N449 C451 1.334 . S
C450 H431 0.929 . S
C450 C447 1.388 . S
C450 N449 1.397 . S
C451 H432 0.929 . S
C451 C448 1.404 . S
C451 N449 1.334 . S
C452 H444 0.930 . S
C452 C447 1.418 . S
C452 C448 1.353 . S
C453 H423 0.930 . S
C453 N454 1.330 . S
C453 C455 1.446 1_655 S
N454 Co413 2.151 . S
N454 C453 1.330 . S
N454 C458 1.418 . S
C455 H434 0.929 . S
C455 C453 1.446 1_455 S
C455 C456 1.332 . S
C456 H436 0.931 . S
C456 C455 1.332 . S
C456 C457 1.267 . S
C457 H425 0.929 1_565 S
C457 C456 1.267 . S
C457 C458 1.251 1_455 S
C458 H428 0.929 1_565 S
C458 N454 1.418 . S
C458 C457 1.251 1_655 S
C459 H426 0.930 1_556 S
C459 C461 1.406 . S
C459 C464 1.261 . S
C460 H427 0.930 . S
C460 N462 1.325 . S
C460 C463 1.357 . S
C461 H429 0.928 . S
C461 C459 1.406 . S
C461 N462 1.261 . S
N462 Co413 2.214 1_545 S
N462 C460 1.325 . S
N462 C461 1.261 . S
C463 H433 0.931 . S
C463 C460 1.357 . S
C463 C464 1.312 . S
C464 H435 0.930 . S
C464 C459 1.261 . S
C464 C463 1.312 . S
C465 O437 1.214 . S
C465 O445 1.234 . S
C466 H438 0.929 . S
C466 C469 1.391 . S
C466 C471 1.391 . S
C467 H439 0.929 . S
C467 C468 1.390 . S
C467 N470 1.391 . S
C468 H440 0.930 . S
C468 C467 1.390 . S
C468 C469 1.392 . S
C469 H441 0.929 . S
C469 C466 1.391 . S
C469 C468 1.392 . S
N470 Co414 2.257 . S
N470 C467 1.391 . S
N470 C471 1.388 . S
C471 H442 0.930 . S
C471 C466 1.391 . S
C471 N470 1.388 . S
C3 C298 1.478 1_554 S
C62 C357 1.478 . S
C121 C416 1.478 1_554 S
C239 C180 1.478 . S
C5 C269 1.658 . S
C64 C328 1.658 1_565 S
C387 C123 1.658 . S
C182 C446 1.658 1_545 S
C241 C33 1.658 1_655 S
C92 C300 1.658 . S
C359 C151 1.658 1_455 S
C210 C418 1.658 . S
C170 C52 1.280 1_655 S
C229 C111 1.280 1_455 S
C288 C406 1.280 1_565 S
C347 C465 1.280 1_545 S
