# Generated by pormake.
# Topology sow, (4)-cn, num edge types: 1
# Building blocks:
#     Node 0, Type 0, BuildingBlock: KOZSID_clean_sbu_0, # of connection points: 4
#     Node 1, Type 0, BuildingBlock: KOZSID_clean_sbu_0, # of connection points: 4
#     Node 2, Type 0, BuildingBlock: KOZSID_clean_sbu_0, # of connection points: 4
#     Node 3, Type 0, BuildingBlock: KOZSID_clean_sbu_0, # of connection points: 4
#     Node 4, Type 0, BuildingBlock: KOZSID_clean_sbu_0, # of connection points: 4
#     Node 5, Type 0, BuildingBlock: KOZSID_clean_sbu_0, # of connection points: 4
#     Node 6, Type 0, BuildingBlock: KOZSID_clean_sbu_0, # of connection points: 4
#     Node 7, Type 0, BuildingBlock: KOZSID_clean_sbu_0, # of connection points: 4
#     Edge 8, Type (0, 0), BuildingBlock: EYOCIG_clean_linker_4, # of connection points: 2
#     Edge 9, Type (0, 0), BuildingBlock: EYOCIG_clean_linker_4, # of connection points: 2
#     Edge 10, Type (0, 0), BuildingBlock: EYOCIG_clean_linker_4, # of connection points: 2
#     Edge 11, Type (0, 0), BuildingBlock: EYOCIG_clean_linker_4, # of connection points: 2
#     Edge 12, Type (0, 0), BuildingBlock: EYOCIG_clean_linker_4, # of connection points: 2
#     Edge 13, Type (0, 0), BuildingBlock: EYOCIG_clean_linker_4, # of connection points: 2
#     Edge 14, Type (0, 0), BuildingBlock: EYOCIG_clean_linker_4, # of connection points: 2
#     Edge 15, Type (0, 0), BuildingBlock: EYOCIG_clean_linker_4, # of connection points: 2
#     Edge 16, Type (0, 0), BuildingBlock: EYOCIG_clean_linker_4, # of connection points: 2
#     Edge 17, Type (0, 0), BuildingBlock: EYOCIG_clean_linker_4, # of connection points: 2
#     Edge 18, Type (0, 0), BuildingBlock: EYOCIG_clean_linker_4, # of connection points: 2
#     Edge 19, Type (0, 0), BuildingBlock: EYOCIG_clean_linker_4, # of connection points: 2
#     Edge 20, Type (0, 0), BuildingBlock: EYOCIG_clean_linker_4, # of connection points: 2
#     Edge 21, Type (0, 0), BuildingBlock: EYOCIG_clean_linker_4, # of connection points: 2
#     Edge 22, Type (0, 0), BuildingBlock: EYOCIG_clean_linker_4, # of connection points: 2
#     Edge 23, Type (0, 0), BuildingBlock: EYOCIG_clean_linker_4, # of connection points: 2
# Relax obj value: 0.060
# Max RMSD: 0.292
# Mean RMSD: 0.223
data_MOF--net-sow--node1-KOZSID_clean_sbu_0--edge1-EYOCIG_clean_linker_4
_symmetry_space_group_name_H-M    P1
_symmetry_Int_Tables_number       1
_symmetry_cell_setting            triclinic
loop_
_symmetry_equiv_pos_as_xyz
'x, y, z'
_cell_length_a     45.379067
_cell_length_b     13.360932
_cell_length_c     20.213907
_cell_angle_alpha  91.476357
_cell_angle_beta   90.260724
_cell_angle_gamma 89.780623
loop_
_atom_site_label
_atom_site_type_symbol
_atom_site_fract_x
_atom_site_fract_y
_atom_site_fract_z
_atom_type_partial_charge
C0 C 0.12507 0.19237 0.24536 0.0
C1 C 0.12552 0.09661 0.26985 0.0
C2 C 0.15349 0.06015 0.25937 0.0
C3 C 0.1686 0.1355 0.22919 0.0
N4 N 0.15186 0.21762 0.22114 0.0
Co5 Co 0.16203 0.3358 0.16819 0.0
N6 N 0.19353 0.26199 0.11948 0.0
C7 C 0.20486 0.1726 0.13593 0.0
C8 C 0.22432 0.13526 0.08978 0.0
C9 C 0.22589 0.207 0.0426 0.0
C10 C 0.20774 0.28505 0.0629 0.0
N11 N 0.17199 0.45526 0.11641 0.0
C12 C 0.19132 0.46637 0.06584 0.0
C13 C 0.19462 0.56671 0.05142 0.0
C14 C 0.177 0.61999 0.09479 0.0
C15 C 0.16397 0.54968 0.13334 0.0
N16 N 0.12934 0.40559 0.21536 0.0
C17 C 0.12526 0.505 0.22045 0.0
C18 C 0.09862 0.52961 0.24899 0.0
C19 C 0.0851 0.43981 0.26154 0.0
C20 C 0.10428 0.36522 0.23994 0.0
N21 N 0.19119 0.38307 0.23648 0.0
C22 C 0.23352 0.46355 0.32725 0.0
C23 C 0.20378 0.45411 0.3451 0.0
C24 C 0.18314 0.41198 0.29964 0.0
C25 C 0.24134 0.4311 0.26365 0.0
C26 C 0.22016 0.39422 0.21907 0.0
N27 N 0.13348 0.29038 0.10118 0.0
C28 C 0.08369 0.31068 0.06301 0.0
C29 C 0.08114 0.2067 0.05634 0.0
C30 C 0.10606 0.14696 0.06302 0.0
C31 C 0.13226 0.19056 0.08461 0.0
C32 C 0.11062 0.35161 0.08383 0.0
H33 H 0.1503 0.14115 0.09496 0.0
H34 H 0.11185 0.43134 0.09318 0.0
H35 H 0.16074 0.40301 0.31606 0.0
H36 H 0.22783 0.37598 0.17017 0.0
C37 C 0.19333 0.11977 0.18897 0.0
C38 C 0.09874 0.25655 0.24305 0.0
C39 C 0.20852 0.38503 0.03393 0.0
C40 C 0.14274 0.56845 0.18273 0.0
H41 H 0.10718 0.0558 0.28985 0.0
H42 H 0.16085 0.98395 0.26625 0.0
H43 H 0.23542 0.06341 0.08943 0.0
H44 H 0.23918 0.20359 0.99863 0.0
H45 H 0.20883 0.59821 0.01455 0.0
H46 H 0.1741 0.70041 0.09785 0.0
H47 H 0.08909 0.60364 0.25502 0.0
H48 H 0.06338 0.43019 0.28224 0.0
H49 H 0.19666 0.47602 0.39446 0.0
H50 H 0.26389 0.43235 0.248 0.0
H51 H 0.06472 0.35905 0.05662 0.0
H52 H 0.10478 0.06629 0.05662 0.0
C53 C 0.45379 0.43659 0.75374 0.0
C54 C 0.46846 0.51134 0.7891 0.0
C55 C 0.45216 0.59734 0.78243 0.0
C56 C 0.42859 0.57066 0.74299 0.0
N57 N 0.42845 0.47266 0.72576 0.0
Co58 Co 0.40072 0.40783 0.66027 0.0
N59 N 0.37863 0.53457 0.6429 0.0
C60 C 0.38297 0.62264 0.67518 0.0
C61 C 0.3638 0.69616 0.6557 0.0
C62 C 0.34622 0.65187 0.60799 0.0
C63 C 0.35565 0.55346 0.60082 0.0
N64 N 0.37569 0.34213 0.5895 0.0
C65 C 0.35502 0.3801 0.54793 0.0
C66 C 0.34352 0.30612 0.50579 0.0
C67 C 0.35697 0.2186 0.52181 0.0
C68 C 0.37595 0.24383 0.57225 0.0
N69 N 0.42046 0.2776 0.68196 0.0
C70 C 0.41225 0.18599 0.65973 0.0
C71 C 0.42883 0.10945 0.68447 0.0
C72 C 0.44928 0.15509 0.72447 0.0
C73 C 0.44394 0.25725 0.72158 0.0
N74 N 0.37015 0.3846 0.73033 0.0
C75 C 0.32114 0.40338 0.81708 0.0
C76 C 0.31953 0.34398 0.75903 0.0
C77 C 0.34412 0.3355 0.71658 0.0
C78 C 0.34811 0.44664 0.83326 0.0
C79 C 0.37222 0.43471 0.79063 0.0
N80 N 0.43118 0.44107 0.59295 0.0
C81 C 0.48403 0.4491 0.57693 0.0
C82 C 0.48163 0.54716 0.55498 0.0
C83 C 0.45356 0.58535 0.54331 0.0
C84 C 0.42873 0.5297 0.56018 0.0
C85 C 0.45847 0.3963 0.59375 0.0
H86 H 0.40779 0.56279 0.54923 0.0
H87 H 0.46142 0.32141 0.61041 0.0
H88 H 0.34124 0.29064 0.67229 0.0
H89 H 0.39211 0.46918 0.80778 0.0
C90 C 0.40661 0.63475 0.71949 0.0
C91 C 0.46444 0.33211 0.748 0.0
C92 C 0.34376 0.48294 0.55004 0.0
C93 C 0.39224 0.17577 0.60813 0.0
H94 H 0.48892 0.5043 0.81632 0.0
H95 H 0.45728 0.67106 0.80262 0.0
H96 H 0.36314 0.77348 0.67293 0.0
H97 H 0.32893 0.68831 0.58039 0.0
H98 H 0.32637 0.31377 0.46896 0.0
H99 H 0.35268 0.14472 0.50077 0.0
H100 H 0.42742 0.03044 0.67164 0.0
H101 H 0.46715 0.11794 0.74977 0.0
H102 H 0.2993 0.30535 0.74588 0.0
H103 H 0.35067 0.49005 0.87895 0.0
H104 H 0.50547 0.41456 0.58321 0.0
H105 H 0.45071 0.65913 0.52306 0.0
C106 C 0.62623 0.17823 0.78569 0.0
C107 C 0.62666 0.27495 0.7628 0.0
C108 C 0.65476 0.30983 0.77347 0.0
C109 C 0.66994 0.23263 0.80213 0.0
N110 N 0.65313 0.15095 0.80915 0.0
Co111 Co 0.66348 0.03031 0.86004 0.0
N112 N 0.69522 0.10113 0.90964 0.0
C113 C 0.70675 0.19021 0.89401 0.0
C114 C 0.72694 0.22444 0.93969 0.0
C115 C 0.72869 0.15102 0.98569 0.0
C116 C 0.70975 0.07542 0.96561 0.0
N117 N 0.67358 0.90855 0.90966 0.0
C118 C 0.69274 0.8952 0.96068 0.0
C119 C 0.69632 0.79412 0.97292 0.0
C120 C 0.67902 0.74283 0.92772 0.0
C121 C 0.66586 0.81497 0.89033 0.0
N122 N 0.6306 0.96363 0.81183 0.0
C123 C 0.6267 0.86453 0.80431 0.0
C124 C 0.59996 0.84181 0.77527 0.0
C125 C 0.58624 0.93252 0.76495 0.0
C126 C 0.6054 0.00576 0.78829 0.0
N127 N 0.69222 0.98443 0.79125 0.0
C128 C 0.7337 0.90059 0.70046 0.0
C129 C 0.70429 0.91764 0.68153 0.0
C130 C 0.68407 0.96125 0.72715 0.0
C131 C 0.74161 0.92715 0.76521 0.0
C132 C 0.72083 0.96626 0.80961 0.0
N133 N 0.63535 0.07335 0.92785 0.0
C134 C 0.58632 0.04838 0.96786 0.0
C135 C 0.58296 0.15197 0.97548 0.0
C136 C 0.60724 0.2139 0.96834 0.0
C137 C 0.63355 0.17271 0.94537 0.0
C138 C 0.61327 0.01003 0.94545 0.0
H139 H 0.65115 0.22334 0.93475 0.0
H140 H 0.61502 0.93065 0.93502 0.0
H141 H 0.66188 0.97567 0.71037 0.0
H142 H 0.72841 0.98014 0.85927 0.0
C143 C 0.695 0.24557 0.84203 0.0
C144 C 0.59987 0.11487 0.78714 0.0
C145 C 0.70974 0.9752 0.9945 0.0
C146 C 0.64453 0.79882 0.84035 0.0
H147 H 0.60826 0.31731 0.74371 0.0
H148 H 0.66219 0.38598 0.7677 0.0
H149 H 0.73845 0.29525 0.94043 0.0
H150 H 0.74261 0.15168 0.02864 0.0
H151 H 0.71057 0.76089 1.00948 0.0
H152 H 0.67637 0.66252 0.92281 0.0
H153 H 0.59053 0.76819 0.76733 0.0
H154 H 0.56446 0.94352 0.74434 0.0
H155 H 0.69715 0.90046 0.63135 0.0
H156 H 0.76394 0.91974 0.78195 0.0
H157 H 0.56787 0.99844 0.97445 0.0
H158 H 0.60527 0.29436 0.97535 0.0
C159 C 0.95304 0.9404 0.27773 0.0
C160 C 0.96761 0.8673 0.24061 0.0
C161 C 0.95184 0.78054 0.24681 0.0
C162 C 0.9287 0.80515 0.28777 0.0
N163 N 0.92831 0.90256 0.30644 0.0
Co164 Co 0.90065 0.96499 0.37285 0.0
N165 N 0.87947 0.837 0.38933 0.0
C166 C 0.88396 0.74998 0.35589 0.0
C167 C 0.86487 0.67598 0.37371 0.0
C168 C 0.84718 0.71881 0.42158 0.0
C169 C 0.85646 0.81691 0.43044 0.0
N170 N 0.87568 0.02842 0.44436 0.0
C171 C 0.8553 0.98891 0.48538 0.0
C172 C 0.84362 0.06161 0.52822 0.0
C173 C 0.8566 0.14991 0.51314 0.0
C174 C 0.8755 0.12637 0.46248 0.0
N175 N 0.91954 0.09655 0.35206 0.0
C176 C 0.91113 0.18738 0.37559 0.0
C177 C 0.92721 0.26506 0.35163 0.0
C178 C 0.94754 0.22107 0.3107 0.0
C179 C 0.94262 0.1187 0.31223 0.0
N180 N 0.86938 0.98723 0.30356 0.0
C181 C 0.81971 0.95651 0.21919 0.0
C182 C 0.81749 0.015 0.27757 0.0
C183 C 0.84242 0.02922 0.31895 0.0
C184 C 0.84742 0.92022 0.20166 0.0
C185 C 0.87183 0.93922 0.24269 0.0
N186 N 0.93168 0.93181 0.43959 0.0
C187 C 0.98467 0.91833 0.45256 0.0
C188 C 0.98192 0.82109 0.47565 0.0
C189 C 0.95376 0.78653 0.48962 0.0
C190 C 0.92908 0.84465 0.47373 0.0
C191 C 0.95924 0.97358 0.43679 0.0
H192 H 0.90802 0.81461 0.48622 0.0
H193 H 0.96242 0.04772 0.41928 0.0
H194 H 0.83913 0.07279 0.36365 0.0
H195 H 0.89238 0.9122 0.22373 0.0
C196 C 0.90723 0.73978 0.31086 0.0
C197 C 0.96319 0.04508 0.28418 0.0
C198 C 0.84427 0.88606 0.48159 0.0
C199 C 0.89133 0.19572 0.42734 0.0
H200 H 0.98759 0.87599 0.21235 0.0
H201 H 0.95699 0.70774 0.22509 0.0
H202 H 0.86418 0.59946 0.35491 0.0
H203 H 0.8298 0.68174 0.44792 0.0
H204 H 0.82659 0.05265 0.56478 0.0
H205 H 0.85203 0.22322 0.53486 0.0
H206 H 0.92556 0.34368 0.3655 0.0
H207 H 0.96507 0.25938 0.28561 0.0
H208 H 0.79664 0.04901 0.29156 0.0
H209 H 0.85046 0.87888 0.15532 0.0
H210 H 1.00623 0.95031 0.44458 0.0
H211 H 0.95071 0.71366 0.51087 0.0
C212 C 0.93676 0.14468 0.98463 0.0
C213 C 0.95086 0.23541 0.99733 0.0
C214 C 0.93525 0.30634 0.96439 0.0
C215 C 0.91264 0.25507 0.93407 0.0
N216 N 0.91297 0.1563 0.94577 0.0
Co217 Co 0.88396 0.05544 0.91402 0.0
N218 N 0.87009 0.14655 0.84372 0.0
C219 C 0.8765 0.24455 0.83875 0.0
C220 C 0.8645 0.2878 0.78418 0.0
C221 C 0.84904 0.21316 0.75294 0.0
C222 C 0.8524 0.12822 0.7908 0.0
N223 N 0.85325 0.95861 0.88425 0.0
C224 C 0.83637 0.95717 0.82858 0.0
C225 C 0.81959 0.87077 0.82475 0.0
C226 C 0.82495 0.81943 0.88152 0.0
C227 C 0.84516 0.87591 0.91652 0.0
N228 N 0.89975 0.96341 0.98134 0.0
C229 C 0.88747 0.87816 1.00139 0.0
C230 C 0.90564 0.82598 0.04315 0.0
C231 C 0.93082 0.88242 0.04969 0.0
C232 C 0.92655 0.96548 1.01122 0.0
N233 N 0.85493 0.11236 0.97884 0.0
C234 C 0.80954 0.15615 0.07137 0.0
C235 C 0.83698 0.12063 0.09183 0.0
C236 C 0.85944 0.10149 0.04555 0.0
C237 C 0.80625 0.1782 1.00427 0.0
C238 C 0.82878 0.15394 0.9588 0.0
N239 N 0.91303 0.99237 0.85229 0.0
C240 C 0.93577 0.83615 0.81594 0.0
C241 C 0.96113 0.88558 0.79732 0.0
C242 C 0.96145 0.99061 0.80198 0.0
C243 C 0.93698 0.04287 0.82913 0.0
C244 C 0.91218 0.8902 0.84269 0.0
H245 H 0.93813 0.12334 0.83437 0.0
H246 H 0.89427 0.84625 0.85957 0.0
H247 H 0.88018 0.07538 0.0646 0.0
H248 H 0.82426 0.16575 0.90731 0.0
C249 C 0.8952 0.29241 0.88382 0.0
C250 C 0.94727 0.0483 1.00647 0.0
C251 C 0.83501 0.03765 0.78009 0.0
C252 C 0.86158 0.84274 0.97099 0.0
H253 H 0.97081 0.24863 0.02566 0.0
H254 H 0.94084 0.38449 0.95951 0.0
H255 H 0.86673 0.36445 0.76892 0.0
H256 H 0.8359 0.22166 0.70863 0.0
H257 H 0.80614 0.84483 0.78369 0.0
H258 H 0.8167 0.74622 0.89352 0.0
H259 H 0.90168 0.75347 0.06395 0.0
H260 H 0.9501 0.86472 0.07897 0.0
H261 H 0.84109 0.10661 0.14343 0.0
H262 H 0.78611 0.21052 0.98607 0.0
H263 H 0.93457 0.75509 0.81274 0.0
H264 H 0.98075 0.03166 0.78712 0.0
C265 C 0.62785 0.782 0.48708 0.0
C266 C 0.63226 0.68287 0.50309 0.0
C267 C 0.65779 0.65319 0.47279 0.0
C268 C 0.66744 0.73569 0.44018 0.0
N269 N 0.65018 0.81722 0.44983 0.0
Co270 Co 0.65297 0.94764 0.40364 0.0
N271 N 0.6853 0.89629 0.34375 0.0
C272 C 0.69727 0.80318 0.34373 0.0
C273 C 0.72025 0.79051 0.30079 0.0
C274 C 0.72361 0.88137 0.27258 0.0
C275 C 0.70241 0.9448 0.29969 0.0
N276 N 0.65601 0.07864 0.35754 0.0
C277 C 0.67652 0.11152 0.31388 0.0
C278 C 0.67294 0.21258 0.30195 0.0
C279 C 0.64981 0.24518 0.33986 0.0
C280 C 0.64042 0.16255 0.37258 0.0
N281 N 0.62056 0.99828 0.46317 0.0
C282 C 0.60951 0.0922 0.46658 0.0
C283 C 0.58526 0.10176 0.50658 0.0
C284 C 0.57968 0.00704 0.52744 0.0
C285 C 0.60109 0.94555 0.49921 0.0
N286 N 0.68338 0.99693 0.46855 0.0
C287 C 0.72838 0.06536 0.55516 0.0
C288 C 0.70214 0.11881 0.54967 0.0
C289 C 0.68023 0.08444 0.50537 0.0
C290 C 0.73201 0.97937 0.51599 0.0
C291 C 0.70914 0.94462 0.47583 0.0
N292 N 0.62222 0.89581 0.34068 0.0
C293 C 0.56959 0.88191 0.32113 0.0
C294 C 0.57283 0.7814 0.30115 0.0
C295 C 0.60121 0.74335 0.2937 0.0
C296 C 0.62544 0.80196 0.31237 0.0
C297 C 0.59468 0.93866 0.33874 0.0
H298 H 0.64636 0.76673 0.30735 0.0
H299 H 0.59127 0.01498 0.35487 0.0
H300 H 0.661 0.12978 0.50265 0.0
H301 H 0.71306 0.87478 0.45156 0.0
C302 C 0.68841 0.73288 0.38981 0.0
C303 C 0.60075 0.83658 0.502 0.0
C304 C 0.70066 0.05164 0.28487 0.0
C305 C 0.61938 0.16422 0.42295 0.0
H306 H 0.61756 0.63544 0.53023 0.0
H307 H 0.66675 0.57802 0.46998 0.0
H308 H 0.73386 0.72453 0.29334 0.0
H309 H 0.74055 0.90007 0.23806 0.0
H310 H 0.68639 0.25871 0.27095 0.0
H311 H 0.64173 0.32126 0.34537 0.0
H312 H 0.57188 0.16801 0.51526 0.0
H313 H 0.5611 0.98465 0.55693 0.0
H314 H 0.69834 0.1857 0.57992 0.0
H315 H 0.75222 0.93708 0.51685 0.0
H316 H 0.54789 0.91548 0.32529 0.0
H317 H 0.60474 0.66698 0.27602 0.0
C318 C 0.43713 0.20047 0.04628 0.0
C319 C 0.45136 0.10946 0.03457 0.0
C320 C 0.43531 0.03874 0.06618 0.0
C321 C 0.41238 0.09053 0.09493 0.0
N322 N 0.413 0.18927 0.08345 0.0
Co323 Co 0.38406 0.29133 0.11367 0.0
N324 N 0.37034 0.20229 0.18455 0.0
C325 C 0.37585 0.10338 0.18888 0.0
C326 C 0.36369 0.06128 0.24335 0.0
C327 C 0.34909 0.13776 0.27505 0.0
C328 C 0.35306 0.22264 0.23756 0.0
N329 N 0.3536 0.38972 0.14227 0.0
C330 C 0.33716 0.39369 0.1982 0.0
C331 C 0.31965 0.47893 0.19972 0.0
C332 C 0.32422 0.52683 0.14137 0.0
C333 C 0.34468 0.4696 0.10774 0.0
N334 N 0.39921 0.38019 0.04475 0.0
C335 C 0.38615 0.4626 0.02167 0.0
C336 C 0.40386 0.51254 0.97836 0.0
C337 C 0.42955 0.45758 0.97425 0.0
C338 C 0.42599 0.37757 0.01557 0.0
N339 N 0.35496 0.2339 0.04998 0.0
C340 C 0.30939 0.19666 0.95687 0.0
C341 C 0.33803 0.21785 0.93626 0.0
C342 C 0.36059 0.23347 0.98329 0.0
C343 C 0.30469 0.18679 0.02485 0.0
C344 C 0.32743 0.20737 0.07045 0.0
N345 N 0.41333 0.35562 0.17448 0.0
C346 C 0.43638 0.5123 0.20789 0.0
C347 C 0.46143 0.46253 0.22934 0.0
C348 C 0.46143 0.35732 0.22718 0.0
C349 C 0.43696 0.30502 0.2 0.0
C350 C 0.41282 0.45821 0.18108 0.0
H351 H 0.43785 0.22429 0.19664 0.0
H352 H 0.39519 0.50195 0.16157 0.0
H353 H 0.3823 0.2499 0.9652 0.0
H354 H 0.32212 0.20642 0.12227 0.0
C355 C 0.39439 0.05395 0.14412 0.0
C356 C 0.4473 0.29661 0.02387 0.0
C357 C 0.3364 0.31535 0.24826 0.0
C358 C 0.36025 0.49917 0.05143 0.0
H359 H 0.47155 0.09591 1.0075 0.0
H360 H 0.44078 0.96035 0.07123 0.0
H361 H 0.36532 0.98426 0.25835 0.0
H362 H 0.33604 0.1306 0.31935 0.0
H363 H 0.30599 0.50603 0.23991 0.0
H364 H 0.31507 0.59807 0.1271 0.0
H365 H 0.3993 0.58295 0.95503 0.0
H366 H 0.44866 0.47429 0.94471 0.0
H367 H 0.34286 0.22533 0.88421 0.0
H368 H 0.28339 0.16749 0.04358 0.0
H369 H 0.43544 0.59345 0.20892 0.0
H370 H 0.48049 0.31602 0.24409 0.0
C371 C 0.1273 0.57636 0.54057 0.0
C372 C 0.1314 0.67611 0.52609 0.0
C373 C 0.15691 0.70493 0.55705 0.0
C374 C 0.16687 0.62135 0.58847 0.0
N375 N 0.14982 0.53998 0.57743 0.0
Co376 Co 0.15318 0.40768 0.62131 0.0
N377 N 0.18544 0.4574 0.68233 0.0
C378 C 0.19715 0.55061 0.68396 0.0
C379 C 0.21994 0.56229 0.72795 0.0
C380 C 0.22343 0.47073 0.75533 0.0
C381 C 0.20247 0.40793 0.72656 0.0
N382 N 0.15677 0.27488 0.66506 0.0
C383 C 0.17724 0.24108 0.70905 0.0
C384 C 0.1741 0.13944 0.71923 0.0
C385 C 0.15125 0.10752 0.67993 0.0
C386 C 0.14159 0.19111 0.64816 0.0
N387 N 0.12077 0.359 0.5607 0.0
C388 C 0.11009 0.26496 0.55543 0.0
C389 C 0.08567 0.25682 0.51538 0.0
C390 C 0.07962 0.35242 0.49644 0.0
C391 C 0.10093 0.41306 0.52577 0.0
N392 N 0.18358 0.36152 0.55591 0.0
C393 C 0.22889 0.2963 0.46988 0.0
C394 C 0.20289 0.24203 0.47406 0.0
C395 C 0.18079 0.27486 0.51806 0.0
C396 C 0.23208 0.38172 0.50972 0.0
C397 C 0.20904 0.41492 0.54958 0.0
N398 N 0.12249 0.45602 0.68487 0.0
C399 C 0.06993 0.46654 0.70471 0.0
C400 C 0.07266 0.56674 0.72564 0.0
C401 C 0.1008 0.60603 0.73365 0.0
C402 C 0.12528 0.54916 0.71433 0.0
C403 C 0.09529 0.41154 0.68646 0.0
H404 H 0.14601 0.58529 0.7196 0.0
H405 H 0.09234 0.33548 0.6694 0.0
H406 H 0.16177 0.22899 0.5198 0.0
H407 H 0.21262 0.48432 0.57458 0.0
C408 C 0.18797 0.62261 0.63901 0.0
C409 C 0.10028 0.52223 0.52474 0.0
C410 C 0.20084 0.3009 0.74019 0.0
C411 C 0.12041 0.1911 0.59764 0.0
H412 H 0.1165 0.72442 0.49957 0.0
H413 H 0.16566 0.78009 0.56107 0.0
H414 H 0.23325 0.62832 0.73691 0.0
H415 H 0.24023 0.45132 0.79067 0.0
H416 H 0.18761 0.09264 0.75017 0.0
H417 H 0.14345 0.03146 0.67313 0.0
H418 H 0.0725 0.19071 0.50544 0.0
H419 H 0.06083 0.3758 0.46744 0.0
H420 H 0.19948 0.1755 0.44323 0.0
H421 H 0.25211 0.42451 0.50983 0.0
H422 H 0.04843 0.43206 0.70013 0.0
H423 H 0.1039 0.68219 0.75207 0.0
C424 C 0.27545 0.42534 0.90021 0.0
C425 C 0.29622 0.41531 0.86237 0.0
C426 C 0.25131 0.42077 0.94576 0.0
C427 C 0.23137 0.4077 0.98491 0.0
C428 C 0.277 0.51498 0.41302 0.0
C429 C 0.25666 0.49221 0.37547 0.0
C430 C 0.30065 0.51969 0.46121 0.0
C431 C 0.32023 0.51089 0.50271 0.0
C432 C 0.77468 0.93072 0.1339 0.0
C433 C 0.79501 0.94291 0.17306 0.0
C434 C 0.7511 0.93575 0.08638 0.0
C435 C 0.73178 0.95051 0.0455 0.0
C436 C 0.77714 0.84876 0.61535 0.0
C437 C 0.75678 0.87186 0.65245 0.0
C438 C 0.80099 0.84583 0.56814 0.0
C439 C 0.82069 0.85654 0.52765 0.0
C440 C 0.76467 0.15549 0.15845 0.0
C441 C 0.78441 0.1572 0.11723 0.0
C442 C 0.74162 0.12945 0.20397 0.0
C443 C 0.72274 0.09722 0.24097 0.0
C444 C 0.77045 0.09081 0.64468 0.0
C445 C 0.75002 0.08891 0.60596 0.0
C446 C 0.79264 0.06736 0.69171 0.0
C447 C 0.8112 0.04425 0.73184 0.0
C448 C 0.26477 0.20006 0.86872 0.0
C449 C 0.28468 0.19811 0.90973 0.0
C450 C 0.24167 0.22444 0.82262 0.0
C451 C 0.22274 0.25521 0.78484 0.0
C452 C 0.29414 0.29218 0.33678 0.0
C453 C 0.31293 0.31196 0.29693 0.0
C454 C 0.27156 0.27126 0.38266 0.0
C455 C 0.25091 0.27346 0.42027 0.0
C456 C 0.04529 0.16993 0.25528 0.0
C457 C 0.06898 0.21302 0.25012 0.0
C458 C 1.01768 0.11741 0.26192 0.0
C459 C 0.99364 0.07754 0.26949 0.0
C460 C 0.51915 0.25941 0.76956 0.0
C461 C 0.49512 0.30032 0.76233 0.0
C462 C 0.54661 0.20485 0.77574 0.0
C463 C 0.57015 0.15996 0.78051 0.0
C464 C 0.02783 0.69207 0.74847 0.0
C465 C 0.04726 0.6313 0.73734 0.0
C466 C 1.00587 0.76608 0.76266 0.0
C467 C 0.98666 0.82594 0.77763 0.0
C468 C 0.50629 0.58124 0.26431 0.0
C469 C 0.487 0.52177 0.2494 0.0
C470 C 0.52834 0.65486 0.27842 0.0
C471 C 0.54771 0.71573 0.28939 0.0
C472 C 0.03019 0.11425 0.04324 0.0
C473 C 0.05296 0.15933 0.04916 0.0
C474 C 1.00284 0.06583 0.03652 0.0
C475 C 0.97768 0.04209 0.02642 0.0
C476 C 0.55255 0.72909 0.5258 0.0
C477 C 0.57382 0.78156 0.51625 0.0
C478 C 0.52827 0.66393 0.53603 0.0
C479 C 0.50745 0.60915 0.54505 0.0
C480 C 0.50311 0.28253 0.9962 0.0
C481 C 0.47771 0.30372 1.00536 0.0
C482 C 0.53107 0.23819 0.98979 0.0
C483 C 0.5544 0.19649 0.98329 0.0
C484 C 0.05206 0.63203 0.50195 0.0
C485 C 0.07323 0.57802 0.51093 0.0
C486 C 0.02803 0.69947 0.49259 0.0
C487 C 1.00744 0.75635 0.48446 0.0
loop_
_geom_bond_atom_site_label_1
_geom_bond_atom_site_label_2
_geom_bond_distance
_geom_bond_site_symmetry_2
_ccdc_geom_bond_type
C0 C1 1.443 . S
C0 N4 1.376 . S
C0 C38 1.389 . S
C1 C0 1.443 . S
C1 C2 1.340 . S
C1 H41 0.951 . S
C2 C1 1.340 . S
C2 C3 1.439 . S
C2 H42 0.950 1_545 S
C3 C2 1.439 . S
C3 N4 1.374 . S
C3 C37 1.395 . S
N4 C0 1.376 . S
N4 C3 1.374 . S
N4 Co5 2.008 . S
Co5 N4 2.008 . S
Co5 N6 1.995 . S
Co5 N11 2.008 . S
Co5 N16 1.995 . S
Co5 N21 2.282 . S
Co5 N27 2.282 . S
N6 Co5 1.995 . S
N6 C7 1.376 . S
N6 C10 1.383 . S
C7 N6 1.376 . S
C7 C8 1.446 . S
C7 C37 1.391 . S
C8 C7 1.446 . S
C8 C9 1.339 . S
C8 H43 0.949 . S
C9 C8 1.339 . S
C9 C10 1.439 . S
C9 H44 0.950 . S
C10 N6 1.383 . S
C10 C9 1.439 . S
C10 C39 1.392 . S
N11 Co5 2.008 . S
N11 C12 1.376 . S
N11 C15 1.374 . S
C12 N11 1.376 . S
C12 C13 1.443 . S
C12 C39 1.389 . S
C13 C12 1.443 . S
C13 C14 1.340 . S
C13 H45 0.951 . S
C14 C13 1.340 . S
C14 C15 1.439 . S
C14 H46 0.950 . S
C15 N11 1.374 . S
C15 C14 1.439 . S
C15 C40 1.395 . S
N16 Co5 1.995 . S
N16 C17 1.376 . S
N16 C20 1.383 . S
C17 N16 1.376 . S
C17 C18 1.446 . S
C17 C40 1.391 . S
C18 C17 1.446 . S
C18 C19 1.339 . S
C18 H47 0.949 . S
C19 C18 1.339 . S
C19 C20 1.439 . S
C19 H48 0.950 . S
C20 N16 1.383 . S
C20 C19 1.439 . S
C20 C38 1.392 . S
N21 Co5 2.282 . S
N21 C24 1.332 . S
N21 C26 1.332 . S
C22 C23 1.386 . S
C22 C25 1.388 . S
C23 C22 1.386 . S
C23 C24 1.382 . S
C23 H49 0.950 . S
C24 N21 1.332 . S
C24 C23 1.382 . S
C24 H35 0.952 . S
C25 C22 1.388 . S
C25 C26 1.382 . S
C25 H50 0.950 . S
C26 N21 1.332 . S
C26 C25 1.382 . S
C26 H36 0.948 . S
N27 Co5 2.282 . S
N27 C31 1.332 . S
N27 C32 1.332 . S
C28 C29 1.388 . S
C28 C32 1.382 . S
C28 H51 0.950 . S
C29 C28 1.388 . S
C29 C30 1.386 . S
C30 C29 1.386 . S
C30 C31 1.382 . S
C30 H52 0.950 1_554 S
C31 N27 1.332 . S
C31 C30 1.382 . S
C31 H33 0.952 . S
C32 N27 1.332 . S
C32 C28 1.382 . S
C32 H34 0.948 . S
H33 C31 0.952 . S
H34 C32 0.948 . S
H35 C24 0.952 . S
H36 C26 0.948 . S
C37 C3 1.395 . S
C37 C7 1.391 . S
C38 C0 1.389 . S
C38 C20 1.392 . S
C39 C10 1.392 . S
C39 C12 1.389 . S
C40 C15 1.395 . S
C40 C17 1.391 . S
H41 C1 0.951 . S
H42 C2 0.950 1_565 S
H43 C8 0.949 . S
H44 C9 0.950 . S
H45 C13 0.951 . S
H46 C14 0.950 . S
H47 C18 0.949 . S
H48 C19 0.950 . S
H49 C23 0.950 . S
H50 C25 0.950 . S
H51 C28 0.950 . S
H52 C30 0.950 1_556 S
C53 C54 1.443 . S
C53 N57 1.376 . S
C53 C91 1.389 . S
C54 C53 1.443 . S
C54 C55 1.340 . S
C54 H94 0.951 . S
C55 C54 1.340 . S
C55 C56 1.439 . S
C55 H95 0.950 . S
C56 C55 1.439 . S
C56 N57 1.374 . S
C56 C90 1.395 . S
N57 C53 1.376 . S
N57 C56 1.374 . S
N57 Co58 2.008 . S
Co58 N57 2.008 . S
Co58 N59 1.995 . S
Co58 N64 2.008 . S
Co58 N69 1.995 . S
Co58 N74 2.282 . S
Co58 N80 2.282 . S
N59 Co58 1.995 . S
N59 C60 1.376 . S
N59 C63 1.383 . S
C60 N59 1.376 . S
C60 C61 1.446 . S
C60 C90 1.391 . S
C61 C60 1.446 . S
C61 C62 1.339 . S
C61 H96 0.949 . S
C62 C61 1.339 . S
C62 C63 1.439 . S
C62 H97 0.950 . S
C63 N59 1.383 . S
C63 C62 1.439 . S
C63 C92 1.392 . S
N64 Co58 2.008 . S
N64 C65 1.376 . S
N64 C68 1.374 . S
C65 N64 1.376 . S
C65 C66 1.443 . S
C65 C92 1.389 . S
C66 C65 1.443 . S
C66 C67 1.340 . S
C66 H98 0.951 . S
C67 C66 1.340 . S
C67 C68 1.439 . S
C67 H99 0.950 . S
C68 N64 1.374 . S
C68 C67 1.439 . S
C68 C93 1.395 . S
N69 Co58 1.995 . S
N69 C70 1.376 . S
N69 C73 1.383 . S
C70 N69 1.376 . S
C70 C71 1.446 . S
C70 C93 1.391 . S
C71 C70 1.446 . S
C71 C72 1.339 . S
C71 H100 0.949 . S
C72 C71 1.339 . S
C72 C73 1.439 . S
C72 H101 0.950 . S
C73 N69 1.383 . S
C73 C72 1.439 . S
C73 C91 1.392 . S
N74 Co58 2.282 . S
N74 C77 1.332 . S
N74 C79 1.332 . S
C75 C76 1.386 . S
C75 C78 1.388 . S
C76 C75 1.386 . S
C76 C77 1.382 . S
C76 H102 0.950 . S
C77 N74 1.332 . S
C77 C76 1.382 . S
C77 H88 0.952 . S
C78 C75 1.388 . S
C78 C79 1.382 . S
C78 H103 0.950 . S
C79 N74 1.332 . S
C79 C78 1.382 . S
C79 H89 0.948 . S
N80 Co58 2.282 . S
N80 C84 1.332 . S
N80 C85 1.332 . S
C81 C82 1.388 . S
C81 C85 1.382 . S
C81 H104 0.950 . S
C82 C81 1.388 . S
C82 C83 1.386 . S
C83 C82 1.386 . S
C83 C84 1.382 . S
C83 H105 0.950 . S
C84 N80 1.332 . S
C84 C83 1.382 . S
C84 H86 0.952 . S
C85 N80 1.332 . S
C85 C81 1.382 . S
C85 H87 0.948 . S
H86 C84 0.952 . S
H87 C85 0.948 . S
H88 C77 0.952 . S
H89 C79 0.948 . S
C90 C56 1.395 . S
C90 C60 1.391 . S
C91 C53 1.389 . S
C91 C73 1.392 . S
C92 C63 1.392 . S
C92 C65 1.389 . S
C93 C68 1.395 . S
C93 C70 1.391 . S
H94 C54 0.951 . S
H95 C55 0.950 . S
H96 C61 0.949 . S
H97 C62 0.950 . S
H98 C66 0.951 . S
H99 C67 0.950 . S
H100 C71 0.949 . S
H101 C72 0.950 . S
H102 C76 0.950 . S
H103 C78 0.950 . S
H104 C81 0.950 . S
H105 C83 0.950 . S
C106 C107 1.443 . S
C106 N110 1.376 . S
C106 C144 1.389 . S
C107 C106 1.443 . S
C107 C108 1.340 . S
C107 H147 0.951 . S
C108 C107 1.340 . S
C108 C109 1.439 . S
C108 H148 0.950 . S
C109 C108 1.439 . S
C109 N110 1.374 . S
C109 C143 1.395 . S
N110 C106 1.376 . S
N110 C109 1.374 . S
N110 Co111 2.008 . S
Co111 N110 2.008 . S
Co111 N112 1.995 . S
Co111 N117 2.008 1_545 S
Co111 N122 1.995 1_545 S
Co111 N127 2.282 . S
Co111 N133 2.282 . S
N112 Co111 1.995 . S
N112 C113 1.376 . S
N112 C116 1.383 . S
C113 N112 1.376 . S
C113 C114 1.446 . S
C113 C143 1.391 . S
C114 C113 1.446 . S
C114 C115 1.339 . S
C114 H149 0.949 . S
C115 C114 1.339 . S
C115 C116 1.439 . S
C115 H150 0.950 . S
C116 N112 1.383 . S
C116 C115 1.439 . S
C116 C145 1.392 1_545 S
N117 Co111 2.008 1_565 S
N117 C118 1.376 . S
N117 C121 1.374 . S
C118 N117 1.376 . S
C118 C119 1.443 . S
C118 C145 1.389 . S
C119 C118 1.443 . S
C119 C120 1.340 . S
C119 H151 0.951 . S
C120 C119 1.340 . S
C120 C121 1.439 . S
C120 H152 0.950 . S
C121 N117 1.374 . S
C121 C120 1.439 . S
C121 C146 1.395 . S
N122 Co111 1.995 1_565 S
N122 C123 1.376 . S
N122 C126 1.383 . S
C123 N122 1.376 . S
C123 C124 1.446 . S
C123 C146 1.391 . S
C124 C123 1.446 . S
C124 C125 1.339 . S
C124 H153 0.949 . S
C125 C124 1.339 . S
C125 C126 1.439 . S
C125 H154 0.950 . S
C126 N122 1.383 . S
C126 C125 1.439 . S
C126 C144 1.392 1_565 S
N127 Co111 2.282 . S
N127 C130 1.332 1_545 S
N127 C132 1.332 . S
C128 C129 1.386 . S
C128 C131 1.388 1_565 S
C129 C128 1.386 . S
C129 C130 1.382 . S
C129 H155 0.950 . S
C130 N127 1.332 1_565 S
C130 C129 1.382 . S
C130 H141 0.952 . S
C131 C128 1.388 1_545 S
C131 C132 1.382 . S
C131 H156 0.950 . S
C132 N127 1.332 . S
C132 C131 1.382 . S
C132 H142 0.948 . S
N133 Co111 2.282 . S
N133 C137 1.332 . S
N133 C138 1.332 1_545 S
C134 C135 1.383 1_565 S
C134 C138 1.383 . S
C134 H157 0.955 . S
C135 C134 1.383 1_545 S
C135 C136 1.386 . S
C136 C135 1.386 . S
C136 C137 1.382 . S
C136 H158 0.950 1_556 S
C137 N133 1.332 . S
C137 C136 1.382 . S
C137 H139 0.952 . S
C138 N133 1.332 1_565 S
C138 C134 1.383 . S
C138 H140 0.948 . S
H139 C137 0.952 . S
H140 C138 0.948 . S
H141 C130 0.952 . S
H142 C132 0.948 . S
C143 C109 1.395 . S
C143 C113 1.391 . S
C144 C106 1.389 . S
C144 C126 1.392 1_545 S
C145 C116 1.392 1_565 S
C145 C118 1.389 . S
C146 C121 1.395 . S
C146 C123 1.391 . S
H147 C107 0.951 . S
H148 C108 0.950 . S
H149 C114 0.949 . S
H150 C115 0.950 . S
H151 C119 0.951 . S
H152 C120 0.950 . S
H153 C124 0.949 . S
H154 C125 0.950 . S
H155 C129 0.950 . S
H156 C131 0.950 . S
H157 C134 0.955 . S
H158 C136 0.950 1_554 S
C159 C160 1.443 . S
C159 N163 1.376 . S
C159 C197 1.389 1_565 S
C160 C159 1.443 . S
C160 C161 1.340 . S
C160 H200 0.951 . S
C161 C160 1.340 . S
C161 C162 1.439 . S
C161 H201 0.950 . S
C162 C161 1.439 . S
C162 N163 1.374 . S
C162 C196 1.395 . S
N163 C159 1.376 . S
N163 C162 1.374 . S
N163 Co164 2.008 1_565 S
Co164 N163 2.008 1_545 S
Co164 N165 1.995 1_545 S
Co164 N170 2.008 . S
Co164 N175 1.995 . S
Co164 N180 2.282 . S
Co164 N186 2.282 1_545 S
N165 Co164 1.995 1_565 S
N165 C166 1.376 . S
N165 C169 1.383 . S
C166 N165 1.376 . S
C166 C167 1.446 . S
C166 C196 1.391 . S
C167 C166 1.446 . S
C167 C168 1.339 . S
C167 H202 0.949 . S
C168 C167 1.339 . S
C168 C169 1.439 . S
C168 H203 0.950 . S
C169 N165 1.383 . S
C169 C168 1.439 . S
C169 C198 1.392 . S
N170 Co164 2.008 . S
N170 C171 1.376 . S
N170 C174 1.374 . S
C171 N170 1.376 . S
C171 C172 1.443 . S
C171 C198 1.389 1_545 S
C172 C171 1.443 . S
C172 C173 1.340 . S
C172 H204 0.951 . S
C173 C172 1.340 . S
C173 C174 1.439 . S
C173 H205 0.950 . S
C174 N170 1.374 . S
C174 C173 1.439 . S
C174 C199 1.395 . S
N175 Co164 1.995 . S
N175 C176 1.376 . S
N175 C179 1.383 . S
C176 N175 1.376 . S
C176 C177 1.446 . S
C176 C199 1.391 . S
C177 C176 1.446 . S
C177 C178 1.339 . S
C177 H206 0.949 . S
C178 C177 1.339 . S
C178 C179 1.439 . S
C178 H207 0.950 . S
C179 N175 1.383 . S
C179 C178 1.439 . S
C179 C197 1.392 . S
N180 Co164 2.282 . S
N180 C183 1.332 . S
N180 C185 1.332 1_545 S
C181 C182 1.386 . S
C181 C184 1.388 . S
C182 C181 1.386 . S
C182 C183 1.382 . S
C182 H208 0.950 . S
C183 N180 1.332 . S
C183 C182 1.382 . S
C183 H194 0.952 . S
C184 C181 1.388 . S
C184 C185 1.382 1_545 S
C184 H209 0.950 1_545 S
C185 N180 1.332 1_565 S
C185 C184 1.382 1_565 S
C185 H195 0.948 . S
N186 Co164 2.282 1_565 S
N186 C190 1.332 . S
N186 C191 1.332 1_565 S
C187 C188 1.388 . S
C187 C191 1.382 1_565 S
C187 H210 0.950 1_565 S
C188 C187 1.388 . S
C188 C189 1.386 . S
C189 C188 1.386 . S
C189 C190 1.382 . S
C189 H211 0.950 . S
C190 N186 1.332 . S
C190 C189 1.382 . S
C190 H192 0.952 . S
C191 N186 1.332 1_545 S
C191 C187 1.382 1_545 S
C191 H193 0.948 . S
H192 C190 0.952 . S
H193 C191 0.948 . S
H194 C183 0.952 . S
H195 C185 0.948 . S
C196 C162 1.395 . S
C196 C166 1.391 . S
C197 C159 1.389 1_545 S
C197 C179 1.392 . S
C198 C169 1.392 . S
C198 C171 1.389 1_565 S
C199 C174 1.395 . S
C199 C176 1.391 . S
H200 C160 0.951 . S
H201 C161 0.950 . S
H202 C167 0.949 . S
H203 C168 0.950 . S
H204 C172 0.951 . S
H205 C173 0.950 . S
H206 C177 0.949 . S
H207 C178 0.950 . S
H208 C182 0.950 . S
H209 C184 0.950 1_565 S
H210 C187 0.950 1_545 S
H211 C189 0.950 . S
C212 C213 1.443 . S
C212 N216 1.376 . S
C212 C250 1.380 1_556 S
C213 C212 1.443 . S
C213 C214 1.340 . S
C213 H253 0.951 . S
C214 C213 1.340 . S
C214 C215 1.439 . S
C214 H254 0.950 . S
C215 C214 1.439 . S
C215 N216 1.374 . S
C215 C249 1.395 . S
N216 C212 1.376 . S
N216 C215 1.374 . S
N216 Co217 2.008 1_545 S
Co217 N216 2.008 1_565 S
Co217 N218 1.995 1_565 S
Co217 N223 2.008 . S
Co217 N228 1.995 . S
Co217 N233 2.282 1_565 S
Co217 N239 2.282 . S
N218 Co217 1.995 1_545 S
N218 C219 1.376 . S
N218 C222 1.383 . S
C219 N218 1.376 . S
C219 C220 1.446 . S
C219 C249 1.391 . S
C220 C219 1.446 . S
C220 C221 1.339 . S
C220 H255 0.949 . S
C221 C220 1.339 . S
C221 C222 1.439 . S
C221 H256 0.950 . S
C222 N218 1.383 . S
C222 C221 1.439 . S
C222 C251 1.392 1_545 S
N223 Co217 2.008 . S
N223 C224 1.376 . S
N223 C227 1.374 . S
C224 N223 1.376 . S
C224 C225 1.443 . S
C224 C251 1.389 . S
C225 C224 1.443 . S
C225 C226 1.340 . S
C225 H257 0.951 . S
C226 C225 1.340 . S
C226 C227 1.439 . S
C226 H258 0.950 . S
C227 N223 1.374 . S
C227 C226 1.439 . S
C227 C252 1.395 . S
N228 Co217 1.995 . S
N228 C229 1.376 1_556 S
N228 C232 1.383 1_556 S
C229 N228 1.376 1_554 S
C229 C230 1.446 . S
C229 C252 1.391 1_554 S
C230 C229 1.446 . S
C230 C231 1.339 . S
C230 H259 0.949 . S
C231 C230 1.339 . S
C231 C232 1.439 . S
C231 H260 0.950 . S
C232 N228 1.383 1_554 S
C232 C231 1.439 . S
C232 C250 1.394 1_565 S
N233 Co217 2.282 1_545 S
N233 C236 1.332 1_546 S
N233 C238 1.332 . S
C234 C235 1.386 . S
C234 C237 1.388 . S
C235 C234 1.386 . S
C235 C236 1.382 1_545 S
C235 H261 0.950 1_545 S
C236 N233 1.332 1_564 S
C236 C235 1.382 1_565 S
C236 H247 0.952 . S
C237 C234 1.388 . S
C237 C238 1.382 1_554 S
C237 H262 0.950 1_554 S
C238 N233 1.332 . S
C238 C237 1.382 1_556 S
C238 H248 0.948 . S
N239 Co217 2.282 . S
N239 C243 1.332 1_565 S
N239 C244 1.332 . S
C240 C241 1.388 . S
C240 C244 1.382 . S
C240 H263 0.950 . S
C241 C240 1.388 . S
C241 C242 1.386 . S
C242 C241 1.386 . S
C242 C243 1.382 1_565 S
C242 H264 0.950 1_565 S
C243 N239 1.332 1_545 S
C243 C242 1.382 1_545 S
C243 H245 0.952 . S
C244 N239 1.332 . S
C244 C240 1.382 . S
C244 H246 0.948 . S
H245 C243 0.952 . S
H246 C244 0.948 . S
H247 C236 0.952 . S
H248 C238 0.948 . S
C249 C215 1.395 . S
C249 C219 1.391 . S
C250 C212 1.380 1_554 S
C250 C232 1.394 1_545 S
C251 C222 1.392 1_565 S
C251 C224 1.389 . S
C252 C227 1.395 . S
C252 C229 1.391 1_556 S
H253 C213 0.951 . S
H254 C214 0.950 . S
H255 C220 0.949 . S
H256 C221 0.950 . S
H257 C225 0.951 . S
H258 C226 0.950 . S
H259 C230 0.949 . S
H260 C231 0.950 . S
H261 C235 0.950 1_565 S
H262 C237 0.950 1_556 S
H263 C240 0.950 . S
H264 C242 0.950 1_545 S
C265 C266 1.443 . S
C265 N269 1.376 . S
C265 C303 1.389 . S
C266 C265 1.443 . S
C266 C267 1.340 . S
C266 H306 0.951 . S
C267 C266 1.340 . S
C267 C268 1.439 . S
C267 H307 0.950 . S
C268 C267 1.439 . S
C268 N269 1.374 . S
C268 C302 1.395 . S
N269 C265 1.376 . S
N269 C268 1.374 . S
N269 Co270 2.008 . S
Co270 N269 2.008 . S
Co270 N271 1.995 . S
Co270 N276 2.008 1_565 S
Co270 N281 1.995 1_565 S
Co270 N286 2.282 . S
Co270 N292 2.282 . S
N271 Co270 1.995 . S
N271 C272 1.376 . S
N271 C275 1.383 . S
C272 N271 1.376 . S
C272 C273 1.446 . S
C272 C302 1.391 . S
C273 C272 1.446 . S
C273 C274 1.339 . S
C273 H308 0.949 . S
C274 C273 1.339 . S
C274 C275 1.439 . S
C274 H309 0.950 . S
C275 N271 1.383 . S
C275 C274 1.439 . S
C275 C304 1.392 1_565 S
N276 Co270 2.008 1_545 S
N276 C277 1.376 . S
N276 C280 1.374 . S
C277 N276 1.376 . S
C277 C278 1.443 . S
C277 C304 1.389 . S
C278 C277 1.443 . S
C278 C279 1.340 . S
C278 H310 0.951 . S
C279 C278 1.340 . S
C279 C280 1.439 . S
C279 H311 0.950 . S
C280 N276 1.374 . S
C280 C279 1.439 . S
C280 C305 1.395 . S
N281 Co270 1.995 1_545 S
N281 C282 1.376 . S
N281 C285 1.383 1_545 S
C282 N281 1.376 . S
C282 C283 1.446 . S
C282 C305 1.391 . S
C283 C282 1.446 . S
C283 C284 1.339 . S
C283 H312 0.949 . S
C284 C283 1.339 . S
C284 C285 1.439 1_545 S
C284 H313 0.950 . S
C285 N281 1.383 1_565 S
C285 C284 1.439 1_565 S
C285 C303 1.392 . S
N286 Co270 2.282 . S
N286 C289 1.332 1_565 S
N286 C291 1.332 . S
C287 C288 1.386 . S
C287 C290 1.388 1_545 S
C288 C287 1.386 . S
C288 C289 1.382 . S
C288 H314 0.950 . S
C289 N286 1.332 1_545 S
C289 C288 1.382 . S
C289 H300 0.952 . S
C290 C287 1.388 1_565 S
C290 C291 1.382 . S
C290 H315 0.950 . S
C291 N286 1.332 . S
C291 C290 1.382 . S
C291 H301 0.948 . S
N292 Co270 2.282 . S
N292 C296 1.332 . S
N292 C297 1.332 . S
C293 C294 1.388 . S
C293 C297 1.382 . S
C293 H316 0.950 . S
C294 C293 1.388 . S
C294 C295 1.386 . S
C295 C294 1.386 . S
C295 C296 1.382 . S
C295 H317 0.950 . S
C296 N292 1.332 . S
C296 C295 1.382 . S
C296 H298 0.952 . S
C297 N292 1.332 . S
C297 C293 1.382 . S
C297 H299 0.948 1_565 S
H298 C296 0.952 . S
H299 C297 0.948 1_545 S
H300 C289 0.952 . S
H301 C291 0.948 . S
C302 C268 1.395 . S
C302 C272 1.391 . S
C303 C265 1.389 . S
C303 C285 1.392 . S
C304 C275 1.392 1_545 S
C304 C277 1.389 . S
C305 C280 1.395 . S
C305 C282 1.391 . S
H306 C266 0.951 . S
H307 C267 0.950 . S
H308 C273 0.949 . S
H309 C274 0.950 . S
H310 C278 0.951 . S
H311 C279 0.950 . S
H312 C283 0.949 . S
H313 C284 0.950 . S
H314 C288 0.950 . S
H315 C290 0.950 . S
H316 C293 0.950 . S
H317 C295 0.950 . S
C318 C319 1.443 . S
C318 N322 1.376 . S
C318 C356 1.400 . S
C319 C318 1.443 . S
C319 C320 1.340 . S
C319 H359 0.951 . S
C320 C319 1.340 . S
C320 C321 1.439 . S
C320 H360 0.950 1_545 S
C321 C320 1.439 . S
C321 N322 1.374 . S
C321 C355 1.395 . S
N322 C318 1.376 . S
N322 C321 1.374 . S
N322 Co323 2.008 . S
Co323 N322 2.008 . S
Co323 N324 1.995 . S
Co323 N329 2.008 . S
Co323 N334 1.995 . S
Co323 N339 2.282 . S
Co323 N345 2.282 . S
N324 Co323 1.995 . S
N324 C325 1.376 . S
N324 C328 1.383 . S
C325 N324 1.376 . S
C325 C326 1.446 . S
C325 C355 1.391 . S
C326 C325 1.446 . S
C326 C327 1.339 . S
C326 H361 0.949 . S
C327 C326 1.339 . S
C327 C328 1.439 . S
C327 H362 0.950 . S
C328 N324 1.383 . S
C328 C327 1.439 . S
C328 C357 1.392 . S
N329 Co323 2.008 . S
N329 C330 1.376 . S
N329 C333 1.374 . S
C330 N329 1.376 . S
C330 C331 1.443 . S
C330 C357 1.389 . S
C331 C330 1.443 . S
C331 C332 1.340 . S
C331 H363 0.951 . S
C332 C331 1.340 . S
C332 C333 1.439 . S
C332 H364 0.950 . S
C333 N329 1.374 . S
C333 C332 1.439 . S
C333 C358 1.395 . S
N334 Co323 1.995 . S
N334 C335 1.376 . S
N334 C338 1.383 1_554 S
C335 N334 1.376 . S
C335 C336 1.446 1_554 S
C335 C358 1.391 . S
C336 C335 1.446 1_556 S
C336 C337 1.339 . S
C336 H365 0.949 . S
C337 C336 1.339 . S
C337 C338 1.439 . S
C337 H366 0.950 . S
C338 N334 1.383 1_556 S
C338 C337 1.439 . S
C338 C356 1.389 1_556 S
N339 Co323 2.282 . S
N339 C342 1.332 1_554 S
N339 C344 1.332 . S
C340 C341 1.386 . S
C340 C343 1.388 . S
C341 C340 1.386 . S
C341 C342 1.382 . S
C341 H367 0.950 . S
C342 N339 1.332 1_556 S
C342 C341 1.382 . S
C342 H353 0.952 . S
C343 C340 1.388 . S
C343 C344 1.382 1_556 S
C343 H368 0.950 1_556 S
C344 N339 1.332 . S
C344 C343 1.382 1_554 S
C344 H354 0.948 . S
N345 Co323 2.282 . S
N345 C349 1.332 . S
N345 C350 1.332 . S
C346 C347 1.388 . S
C346 C350 1.382 . S
C346 H369 0.950 . S
C347 C346 1.388 . S
C347 C348 1.386 . S
C348 C347 1.386 . S
C348 C349 1.382 . S
C348 H370 0.950 . S
C349 N345 1.332 . S
C349 C348 1.382 . S
C349 H351 0.952 . S
C350 N345 1.332 . S
C350 C346 1.382 . S
C350 H352 0.948 . S
H351 C349 0.952 . S
H352 C350 0.948 . S
H353 C342 0.952 . S
H354 C344 0.948 . S
C355 C321 1.395 . S
C355 C325 1.391 . S
C356 C318 1.400 . S
C356 C338 1.389 1_554 S
C357 C328 1.392 . S
C357 C330 1.389 . S
C358 C333 1.395 . S
C358 C335 1.391 . S
H359 C319 0.951 . S
H360 C320 0.950 1_565 S
H361 C326 0.949 . S
H362 C327 0.950 . S
H363 C331 0.951 . S
H364 C332 0.950 . S
H365 C336 0.949 . S
H366 C337 0.950 . S
H367 C341 0.950 . S
H368 C343 0.950 1_554 S
H369 C346 0.950 . S
H370 C348 0.950 . S
C371 C372 1.443 . S
C371 N375 1.376 . S
C371 C409 1.389 . S
C372 C371 1.443 . S
C372 C373 1.340 . S
C372 H412 0.951 . S
C373 C372 1.340 . S
C373 C374 1.439 . S
C373 H413 0.950 . S
C374 C373 1.439 . S
C374 N375 1.374 . S
C374 C408 1.395 . S
N375 C371 1.376 . S
N375 C374 1.374 . S
N375 Co376 2.008 . S
Co376 N375 2.008 . S
Co376 N377 1.995 . S
Co376 N382 2.008 . S
Co376 N387 1.995 . S
Co376 N392 2.282 . S
Co376 N398 2.282 . S
N377 Co376 1.995 . S
N377 C378 1.376 . S
N377 C381 1.383 . S
C378 N377 1.376 . S
C378 C379 1.446 . S
C378 C408 1.391 . S
C379 C378 1.446 . S
C379 C380 1.339 . S
C379 H414 0.949 . S
C380 C379 1.339 . S
C380 C381 1.439 . S
C380 H415 0.950 . S
C381 N377 1.383 . S
C381 C380 1.439 . S
C381 C410 1.392 . S
N382 Co376 2.008 . S
N382 C383 1.376 . S
N382 C386 1.374 . S
C383 N382 1.376 . S
C383 C384 1.443 . S
C383 C410 1.389 . S
C384 C383 1.443 . S
C384 C385 1.340 . S
C384 H416 0.951 . S
C385 C384 1.340 . S
C385 C386 1.439 . S
C385 H417 0.950 . S
C386 N382 1.374 . S
C386 C385 1.439 . S
C386 C411 1.395 . S
N387 Co376 1.995 . S
N387 C388 1.376 . S
N387 C391 1.383 . S
C388 N387 1.376 . S
C388 C389 1.446 . S
C388 C411 1.391 . S
C389 C388 1.446 . S
C389 C390 1.339 . S
C389 H418 0.949 . S
C390 C389 1.339 . S
C390 C391 1.439 . S
C390 H419 0.950 . S
C391 N387 1.383 . S
C391 C390 1.439 . S
C391 C409 1.392 . S
N392 Co376 2.282 . S
N392 C395 1.332 . S
N392 C397 1.332 . S
C393 C394 1.386 . S
C393 C396 1.388 . S
C394 C393 1.386 . S
C394 C395 1.382 . S
C394 H420 0.950 . S
C395 N392 1.332 . S
C395 C394 1.382 . S
C395 H406 0.952 . S
C396 C393 1.388 . S
C396 C397 1.382 . S
C396 H421 0.950 . S
C397 N392 1.332 . S
C397 C396 1.382 . S
C397 H407 0.948 . S
N398 Co376 2.282 . S
N398 C402 1.332 . S
N398 C403 1.332 . S
C399 C400 1.388 . S
C399 C403 1.382 . S
C399 H422 0.950 . S
C400 C399 1.388 . S
C400 C401 1.386 . S
C401 C400 1.386 . S
C401 C402 1.382 . S
C401 H423 0.950 . S
C402 N398 1.332 . S
C402 C401 1.382 . S
C402 H404 0.952 . S
C403 N398 1.332 . S
C403 C399 1.382 . S
C403 H405 0.948 . S
H404 C402 0.952 . S
H405 C403 0.948 . S
H406 C395 0.952 . S
H407 C397 0.948 . S
C408 C374 1.395 . S
C408 C378 1.391 . S
C409 C371 1.389 . S
C409 C391 1.392 . S
C410 C381 1.392 . S
C410 C383 1.389 . S
C411 C386 1.395 . S
C411 C388 1.391 . S
H412 C372 0.951 . S
H413 C373 0.950 . S
H414 C379 0.949 . S
H415 C380 0.950 . S
H416 C384 0.951 . S
H417 C385 0.950 . S
H418 C389 0.949 . S
H419 C390 0.950 . S
H420 C394 0.950 . S
H421 C396 0.950 . S
H422 C399 0.950 . S
H423 C401 0.950 . S
C424 C425 1.170 . S
C424 C426 1.380 . S
C425 C424 1.170 . S
C426 C424 1.380 . S
C426 C427 1.181 . S
C427 C426 1.181 . S
C428 C429 1.170 . S
C428 C430 1.380 . S
C429 C428 1.170 . S
C430 C428 1.380 . S
C430 C431 1.170 . S
C431 C430 1.170 . S
C432 C433 1.170 . S
C432 C434 1.380 . S
C433 C432 1.170 . S
C434 C432 1.380 . S
C434 C435 1.170 . S
C435 C434 1.170 . S
C436 C437 1.170 . S
C436 C438 1.380 . S
C437 C436 1.170 . S
C438 C436 1.380 . S
C438 C439 1.170 . S
C439 C438 1.170 . S
C440 C441 1.170 . S
C440 C442 1.380 . S
C441 C440 1.170 . S
C442 C440 1.380 . S
C442 C443 1.170 . S
C443 C442 1.170 . S
C444 C445 1.170 . S
C444 C446 1.380 1_545 S
C445 C444 1.170 . S
C446 C444 1.380 1_565 S
C446 C447 1.170 . S
C447 C446 1.170 . S
C448 C449 1.170 . S
C448 C450 1.380 . S
C449 C448 1.170 . S
C450 C448 1.380 . S
C450 C451 1.170 . S
C451 C450 1.170 . S
C452 C453 1.170 . S
C452 C454 1.380 . S
C453 C452 1.170 . S
C454 C452 1.380 . S
C454 C455 1.170 . S
C455 C454 1.170 . S
C456 C457 1.170 . S
C456 C458 1.380 1_455 S
C457 C456 1.170 . S
C458 C456 1.380 1_655 S
C458 C459 1.170 . S
C459 C458 1.170 . S
C460 C461 1.170 . S
C460 C462 1.380 . S
C461 C460 1.170 . S
C462 C460 1.380 . S
C462 C463 1.170 . S
C463 C462 1.170 . S
C464 C465 1.170 . S
C464 C466 1.380 1_455 S
C465 C464 1.170 . S
C466 C464 1.380 1_655 S
C466 C467 1.170 . S
C467 C466 1.170 . S
C468 C469 1.170 . S
C468 C470 1.380 . S
C469 C468 1.170 . S
C470 C468 1.380 . S
C470 C471 1.170 . S
C471 C470 1.170 . S
C472 C473 1.189 1_554 S
C472 C474 1.361 1_455 S
C473 C472 1.189 1_556 S
C474 C472 1.361 1_655 S
C474 C475 1.170 . S
C475 C474 1.170 . S
C476 C477 1.170 . S
C476 C478 1.380 . S
C477 C476 1.170 . S
C478 C476 1.380 . S
C478 C479 1.170 . S
C479 C478 1.170 . S
C480 C481 1.170 . S
C480 C482 1.380 . S
C481 C480 1.170 . S
C482 C480 1.380 . S
C482 C483 1.170 1_556 S
C483 C482 1.170 1_554 S
C484 C485 1.170 . S
C484 C486 1.380 . S
C485 C484 1.170 . S
C486 C484 1.380 . S
C486 C487 1.170 1_455 S
C487 C486 1.170 1_655 S
C425 C75 2.112 . S
C427 C39 2.168 1_556 S
C429 C22 1.976 . S
C431 C92 1.941 . S
C433 C181 2.189 . S
C435 C145 2.227 1_544 S
C437 C128 1.972 . S
C439 C198 1.940 . S
C441 C234 2.063 . S
C443 C304 2.089 . S
C445 C287 1.992 . S
C447 C251 2.032 . S
C449 C340 2.069 . S
C451 C410 2.114 . S
C453 C357 1.960 . S
C455 C393 1.943 . S
C457 C38 1.683 . S
C459 C197 1.699 . S
C461 C91 1.803 . S
C463 C144 1.741 . S
C465 C400 1.691 . S
C467 C241 1.708 . S
C469 C347 1.769 . S
C471 C294 1.832 . S
C473 C29 1.492 1_556 S
C475 C250 1.517 . S
C477 C303 1.703 . S
C479 C82 1.703 . S
C481 C356 1.403 1_556 S
C483 C135 1.423 1_554 S
C485 C409 1.829 . S
C487 C188 1.833 . S
