# Generated by pormake.
# Topology wkr, (6)-cn, num edge types: 1
# Building blocks:
#     Node 0, Type 0, BuildingBlock: MIDCAF_clean_sbu_0, # of connection points: 6
#     Node 1, Type 0, BuildingBlock: MIDCAF_clean_sbu_0, # of connection points: 6
#     Node 2, Type 0, BuildingBlock: MIDCAF_clean_sbu_0, # of connection points: 6
#     Node 3, Type 0, BuildingBlock: MIDCAF_clean_sbu_0, # of connection points: 6
#     Node 4, Type 0, BuildingBlock: MIDCAF_clean_sbu_0, # of connection points: 6
#     Node 5, Type 0, BuildingBlock: MIDCAF_clean_sbu_0, # of connection points: 6
#     Node 6, Type 0, BuildingBlock: MIDCAF_clean_sbu_0, # of connection points: 6
#     Node 7, Type 0, BuildingBlock: MIDCAF_clean_sbu_0, # of connection points: 6
#     Node 8, Type 0, BuildingBlock: MIDCAF_clean_sbu_0, # of connection points: 6
#     Node 9, Type 0, BuildingBlock: MIDCAF_clean_sbu_0, # of connection points: 6
#     Node 10, Type 0, BuildingBlock: MIDCAF_clean_sbu_0, # of connection points: 6
#     Node 11, Type 0, BuildingBlock: MIDCAF_clean_sbu_0, # of connection points: 6
#     Node 12, Type 0, BuildingBlock: MIDCAF_clean_sbu_0, # of connection points: 6
#     Node 13, Type 0, BuildingBlock: MIDCAF_clean_sbu_0, # of connection points: 6
#     Node 14, Type 0, BuildingBlock: MIDCAF_clean_sbu_0, # of connection points: 6
#     Node 15, Type 0, BuildingBlock: MIDCAF_clean_sbu_0, # of connection points: 6
#     Node 16, Type 0, BuildingBlock: MIDCAF_clean_sbu_0, # of connection points: 6
#     Node 17, Type 0, BuildingBlock: MIDCAF_clean_sbu_0, # of connection points: 6
#     Node 18, Type 0, BuildingBlock: MIDCAF_clean_sbu_0, # of connection points: 6
#     Node 19, Type 0, BuildingBlock: MIDCAF_clean_sbu_0, # of connection points: 6
#     Node 20, Type 0, BuildingBlock: MIDCAF_clean_sbu_0, # of connection points: 6
#     Node 21, Type 0, BuildingBlock: MIDCAF_clean_sbu_0, # of connection points: 6
#     Node 22, Type 0, BuildingBlock: MIDCAF_clean_sbu_0, # of connection points: 6
#     Node 23, Type 0, BuildingBlock: MIDCAF_clean_sbu_0, # of connection points: 6
#     Edge 24, Type (0, 0), None
#     Edge 25, Type (0, 0), None
#     Edge 26, Type (0, 0), None
#     Edge 27, Type (0, 0), None
#     Edge 28, Type (0, 0), None
#     Edge 29, Type (0, 0), None
#     Edge 30, Type (0, 0), None
#     Edge 31, Type (0, 0), None
#     Edge 32, Type (0, 0), None
#     Edge 33, Type (0, 0), None
#     Edge 34, Type (0, 0), None
#     Edge 35, Type (0, 0), None
#     Edge 36, Type (0, 0), None
#     Edge 37, Type (0, 0), None
#     Edge 38, Type (0, 0), None
#     Edge 39, Type (0, 0), None
#     Edge 40, Type (0, 0), None
#     Edge 41, Type (0, 0), None
#     Edge 42, Type (0, 0), None
#     Edge 43, Type (0, 0), None
#     Edge 44, Type (0, 0), None
#     Edge 45, Type (0, 0), None
#     Edge 46, Type (0, 0), None
#     Edge 47, Type (0, 0), None
#     Edge 48, Type (0, 0), None
#     Edge 49, Type (0, 0), None
#     Edge 50, Type (0, 0), None
#     Edge 51, Type (0, 0), None
#     Edge 52, Type (0, 0), None
#     Edge 53, Type (0, 0), None
#     Edge 54, Type (0, 0), None
#     Edge 55, Type (0, 0), None
#     Edge 56, Type (0, 0), None
#     Edge 57, Type (0, 0), None
#     Edge 58, Type (0, 0), None
#     Edge 59, Type (0, 0), None
#     Edge 60, Type (0, 0), None
#     Edge 61, Type (0, 0), None
#     Edge 62, Type (0, 0), None
#     Edge 63, Type (0, 0), None
#     Edge 64, Type (0, 0), None
#     Edge 65, Type (0, 0), None
#     Edge 66, Type (0, 0), None
#     Edge 67, Type (0, 0), None
#     Edge 68, Type (0, 0), None
#     Edge 69, Type (0, 0), None
#     Edge 70, Type (0, 0), None
#     Edge 71, Type (0, 0), None
#     Edge 72, Type (0, 0), None
#     Edge 73, Type (0, 0), None
#     Edge 74, Type (0, 0), None
#     Edge 75, Type (0, 0), None
#     Edge 76, Type (0, 0), None
#     Edge 77, Type (0, 0), None
#     Edge 78, Type (0, 0), None
#     Edge 79, Type (0, 0), None
#     Edge 80, Type (0, 0), None
#     Edge 81, Type (0, 0), None
#     Edge 82, Type (0, 0), None
#     Edge 83, Type (0, 0), None
#     Edge 84, Type (0, 0), None
#     Edge 85, Type (0, 0), None
#     Edge 86, Type (0, 0), None
#     Edge 87, Type (0, 0), None
#     Edge 88, Type (0, 0), None
#     Edge 89, Type (0, 0), None
#     Edge 90, Type (0, 0), None
#     Edge 91, Type (0, 0), None
#     Edge 92, Type (0, 0), None
#     Edge 93, Type (0, 0), None
#     Edge 94, Type (0, 0), None
#     Edge 95, Type (0, 0), None
# Relax obj value: 0.669
# Max RMSD: 0.279
# Mean RMSD: 0.271
data_MOF--net-wkr--node1-MIDCAF_clean_sbu_0--edge1-none
_symmetry_space_group_name_H-M    P1
_symmetry_Int_Tables_number       1
_symmetry_cell_setting            triclinic
loop_
_symmetry_equiv_pos_as_xyz
'x, y, z'
_cell_length_a     22.343625
_cell_length_b     22.472213
_cell_length_c     23.762622
_cell_angle_alpha  90.115418
_cell_angle_beta   89.839412
_cell_angle_gamma 119.90109
loop_
_atom_site_label
_atom_site_type_symbol
_atom_site_fract_x
_atom_site_fract_y
_atom_site_fract_z
_atom_type_partial_charge
Zn0 Zn 0.37749 0.15404 0.09905 0.0
Zn1 Zn 0.62435 0.06172 0.12933 0.0
Zn2 Zn 0.494 0.14896 0.12193 0.0
C3 C 0.55262 0.12026 0.22344 0.0
C4 C 0.62651 0.18736 0.08878 0.0
O5 O 0.40518 0.06022 0.08401 0.0
O6 O 0.32493 0.07091 0.04421 0.0
C7 C 0.41792 0.19297 0.21885 0.0
O8 O 0.51476 0.14518 0.20751 0.0
O9 O 0.57973 0.09814 0.18804 0.0
O10 O 0.59548 0.13288 0.1169 0.0
O11 O 0.59321 0.21864 0.07977 0.0
O12 O 0.36733 0.17377 0.18486 0.0
O13 O 0.46936 0.18472 0.20437 0.0
O14 O 0.54255 0.23832 0.07448 0.0
O15 O 0.44615 0.23948 0.05724 0.0
C16 C 0.51143 0.27073 0.06121 0.0
O17 O 0.46612 0.04445 0.09391 0.0
O18 O 0.56361 0.05529 0.06059 0.0
C19 C 0.375 0.0601 0.03807 0.0
C20 C 0.49975 0.0177 0.07093 0.0
Zn21 Zn 0.18457 0.36656 0.11356 0.0
Zn22 Zn 0.41914 0.57898 0.13959 0.0
Zn23 Zn 0.31641 0.48376 0.12551 0.0
C24 C 0.40575 0.53801 0.23385 0.0
C25 C 0.36838 0.63273 0.10365 0.0
O26 O 0.33115 0.40833 0.08212 0.0
O27 O 0.22857 0.34434 0.0453 0.0
C28 C 0.20835 0.40941 0.23222 0.0
O29 O 0.3443 0.50633 0.21292 0.0
O30 O 0.45907 0.56829 0.20413 0.0
O31 O 0.36401 0.62737 0.1562 0.0
O32 O 0.34129 0.57655 0.07576 0.0
O33 O 0.17533 0.35551 0.2021 0.0
O34 O 0.26339 0.46141 0.21159 0.0
O35 O 0.26334 0.52055 0.0769 0.0
O36 O 0.15813 0.43676 0.09378 0.0
C37 C 0.19928 0.49938 0.08246 0.0
O38 O 0.40431 0.47328 0.09683 0.0
O39 O 0.47534 0.58157 0.07364 0.0
C40 C 0.29359 0.37289 0.04056 0.0
C41 C 0.46194 0.52027 0.07543 0.0
Zn42 Zn 0.81032 0.42784 0.12977 0.0
Zn43 Zn 0.82018 0.20021 0.11243 0.0
Zn44 Zn 0.81915 0.32831 0.11686 0.0
C45 C 0.6981 0.21098 0.07219 0.0
C46 C 0.78686 0.22164 0.22604 0.0
O47 O 0.92071 0.41503 0.10064 0.0
O48 O 0.88365 0.48518 0.07377 0.0
C49 C 0.71838 0.37387 0.07651 0.0
O50 O 0.73807 0.27386 0.06078 0.0
O51 O 0.72266 0.17481 0.09093 0.0
O52 O 0.81903 0.19598 0.20032 0.0
O53 O 0.78056 0.2701 0.20173 0.0
O54 O 0.70534 0.36153 0.12788 0.0
O55 O 0.75997 0.35607 0.05545 0.0
O56 O 0.80565 0.34693 0.20127 0.0
O57 O 0.84149 0.45935 0.20058 0.0
C58 C 0.82285 0.40408 0.2261 0.0
O59 O 0.91586 0.33971 0.08899 0.0
O60 O 0.89635 0.24417 0.05037 0.0
C61 C 0.93253 0.47312 0.08071 0.0
C62 C 0.9204 0.30825 0.04553 0.0
Zn63 Zn 0.57572 0.78192 0.11908 0.0
Zn64 Zn 0.39896 0.84837 0.16288 0.0
Zn65 Zn 0.48973 0.82975 0.13198 0.0
C66 C 0.47421 0.88597 0.2488 0.0
C67 C 0.32439 0.74999 0.11142 0.0
O68 O 0.57197 0.90551 0.08085 0.0
O69 O 0.62366 0.84859 0.05337 0.0
C70 C 0.55252 0.77109 0.23472 0.0
O71 O 0.49409 0.84998 0.22049 0.0
O72 O 0.4282 0.89763 0.23125 0.0
O73 O 0.31734 0.75616 0.16339 0.0
O74 O 0.38525 0.77582 0.09005 0.0
O75 O 0.60063 0.77799 0.20189 0.0
O76 O 0.50957 0.79016 0.21696 0.0
O77 O 0.4293 0.74655 0.08096 0.0
O78 O 0.48698 0.69545 0.10147 0.0
C79 C 0.43181 0.69177 0.08421 0.0
O80 O 0.52108 0.9297 0.10134 0.0
O81 O 0.41378 0.91067 0.09941 0.0
C82 C 0.6104 0.89666 0.04545 0.0
C83 C 0.4769 0.94797 0.08761 0.0
Zn84 Zn 0.52251 0.4255 0.12552 0.0
Zn85 Zn 0.77492 0.57864 0.10355 0.0
Zn86 Zn 0.63477 0.49037 0.11916 0.0
C87 C 0.71804 0.43576 0.05832 0.0
C88 C 0.74798 0.54181 0.22455 0.0
O89 O 0.57312 0.53839 0.09298 0.0
O90 O 0.49695 0.44392 0.05088 0.0
C91 C 0.53706 0.33494 0.08964 0.0
O92 O 0.65925 0.43112 0.06474 0.0
O93 O 0.77186 0.49228 0.06972 0.0
O94 O 0.79176 0.5866 0.19092 0.0
O95 O 0.68581 0.50057 0.20642 0.0
O96 O 0.5065 0.33441 0.13434 0.0
O97 O 0.5885 0.39116 0.0715 0.0
O98 O 0.603 0.46082 0.20373 0.0
O99 O 0.50393 0.46062 0.19358 0.0
C100 C 0.54552 0.45202 0.22349 0.0
O101 O 0.6551 0.58713 0.08241 0.0
O102 O 0.75888 0.64267 0.04948 0.0
C103 C 0.51672 0.50496 0.06457 0.0
C104 C 0.69476 0.61476 0.03968 0.0
Zn105 Zn 0.16659 0.7805 0.10117 0.0
Zn106 Zn 0.05296 0.45581 0.11929 0.0
Zn107 Zn 0.12925 0.64606 0.12596 0.0
C108 C 0.08841 0.55424 0.23054 0.0
C109 C 0.18127 0.54601 0.11013 0.0
O110 O 0.05582 0.66657 0.08037 0.0
O111 O 0.09374 0.76441 0.03952 0.0
C112 C 0.19184 0.77065 0.22039 0.0
O113 O 0.11473 0.61622 0.21229 0.0
O114 O 0.07047 0.50314 0.19775 0.0
O115 O 0.14414 0.52245 0.15314 0.0
O116 O 0.18629 0.59961 0.08661 0.0
O117 O 0.18034 0.8076 0.18623 0.0
O118 O 0.17317 0.70783 0.2067 0.0
O119 O 0.21741 0.67186 0.08025 0.0
O120 O 0.25349 0.78268 0.07474 0.0
C121 C 0.26626 0.73372 0.07621 0.0
O122 O 0.02426 0.5843 0.09606 0.0
O123 O 0.04543 0.50896 0.05531 0.0
C124 C 0.06655 0.70004 0.03397 0.0
C125 C 0.00269 0.52734 0.06943 0.0
Zn126 Zn 0.81161 0.36907 0.38034 0.0
Zn127 Zn 0.79483 0.59592 0.40268 0.0
Zn128 Zn 0.8168 0.47663 0.39351 0.0
C129 C 0.69076 0.46134 0.44547 0.0
C130 C 0.76949 0.54266 0.28558 0.0
O131 O 0.91877 0.49312 0.41149 0.0
O132 O 0.88117 0.3867 0.44001 0.0
C133 C 0.71746 0.33265 0.43205 0.0
O134 O 0.7427 0.45448 0.45545 0.0
O135 O 0.70161 0.52142 0.43516 0.0
O136 O 0.78797 0.59695 0.31453 0.0
O137 O 0.77539 0.49266 0.30749 0.0
O138 O 0.70749 0.33428 0.38032 0.0
O139 O 0.75974 0.39019 0.45465 0.0
O140 O 0.80259 0.44386 0.3094 0.0
O141 O 0.84688 0.37371 0.30976 0.0
C142 C 0.82341 0.40658 0.28442 0.0
O143 O 0.90953 0.56629 0.41951 0.0
O144 O 0.8809 0.63753 0.45584 0.0
C145 C 0.92986 0.4475 0.43415 0.0
C146 C 0.91004 0.60184 0.46203 0.0
Zn147 Zn 0.2528 0.84745 0.38175 0.0
Zn148 Zn 0.55057 0.87028 0.3821 0.0
Zn149 Zn 0.35228 0.82161 0.37058 0.0
C150 C 0.49946 0.90769 0.30403 0.0
C151 C 0.42862 0.74798 0.40017 0.0
O152 O 0.34735 0.87925 0.44166 0.0
O153 O 0.26869 0.91048 0.44996 0.0
C154 C 0.2288 0.80265 0.27528 0.0
O155 O 0.45671 0.8855 0.34465 0.0
O156 O 0.56263 0.92817 0.3137 0.0
O157 O 0.46448 0.78201 0.35896 0.0
O158 O 0.36766 0.73949 0.40522 0.0
O159 O 0.21202 0.84047 0.30333 0.0
O160 O 0.27876 0.79449 0.29394 0.0
O161 O 0.30004 0.72264 0.40323 0.0
O162 O 0.21659 0.74869 0.40523 0.0
C163 C 0.23675 0.70529 0.41098 0.0
O164 O 0.43728 0.91593 0.41075 0.0
O165 O 0.51669 0.89838 0.45236 0.0
C166 C 0.32049 0.90882 0.4698 0.0
C167 C 0.49035 0.93592 0.44363 0.0
Zn168 Zn 0.56596 0.44676 0.37755 0.0
Zn169 Zn 0.36495 0.2071 0.39402 0.0
Zn170 Zn 0.48638 0.33333 0.37914 0.0
C171 C 0.49935 0.21759 0.42643 0.0
C172 C 0.41526 0.22269 0.27588 0.0
O173 O 0.45176 0.40205 0.41253 0.0
O174 O 0.55011 0.47297 0.45371 0.0
C175 C 0.63842 0.40915 0.40896 0.0
O176 O 0.53164 0.28257 0.42009 0.0
O177 O 0.43398 0.18323 0.424 0.0
O178 O 0.36035 0.19146 0.30576 0.0
O179 O 0.46735 0.27856 0.29505 0.0
O180 O 0.64045 0.4267 0.35849 0.0
O181 O 0.58013 0.36392 0.42929 0.0
O182 O 0.51403 0.36963 0.295 0.0
O183 O 0.52994 0.47323 0.31483 0.0
C184 C 0.52631 0.42957 0.27979 0.0
O185 O 0.39201 0.32244 0.41795 0.0
O186 O 0.31412 0.23071 0.45785 0.0
C187 C 0.48738 0.4539 0.44492 0.0
C188 C 0.36344 0.29143 0.46422 0.0
Zn189 Zn 0.17593 0.38547 0.41646 0.0
Zn190 Zn 0.04131 0.58164 0.40571 0.0
Zn191 Zn 0.12625 0.47685 0.38751 0.0
C192 C 0.08789 0.54007 0.28956 0.0
C193 C 0.18247 0.63509 0.40368 0.0
O194 O 0.05651 0.38291 0.43473 0.0
O195 O 0.10007 0.32945 0.47751 0.0
C196 C 0.18306 0.41148 0.29137 0.0
O197 O 0.10886 0.49899 0.30581 0.0
O198 O 0.0669 0.57014 0.32318 0.0
O199 O 0.13391 0.62836 0.37224 0.0
O200 O 0.18747 0.58294 0.41938 0.0
O201 O 0.18362 0.37106 0.32885 0.0
O202 O 0.16151 0.45366 0.30466 0.0
O203 O 0.21763 0.54274 0.43107 0.0
O204 O 0.25975 0.47351 0.44562 0.0
C205 C 0.26716 0.53336 0.44625 0.0
O206 O 0.02202 0.42854 0.41958 0.0
O207 O 0.0421 0.52131 0.46426 0.0
C208 C 0.06921 0.3636 0.48198 0.0
C209 C -0.00063 0.46209 0.44746 0.0
Zn210 Zn 0.46049 0.0416 0.38993 0.0
Zn211 Zn 0.78198 0.18848 0.40785 0.0
Zn212 Zn 0.64319 0.13587 0.38661 0.0
C213 C 0.7143 0.26915 0.44913 0.0
C214 C 0.76253 0.19901 0.28599 0.0
O215 O 0.5915 0.0325 0.41556 0.0
O216 O 0.51307 0.04656 0.45867 0.0
C217 C 0.53097 0.17964 0.40419 0.0
O218 O 0.65631 0.21658 0.43788 0.0
O219 O 0.76937 0.26666 0.44178 0.0
O220 O 0.80534 0.19952 0.32157 0.0
O221 O 0.69915 0.1767 0.30169 0.0
O222 O 0.49808 0.13805 0.36481 0.0
O223 O 0.58639 0.18391 0.42427 0.0
O224 O 0.62057 0.13238 0.30225 0.0
O225 O 0.50537 0.08181 0.31184 0.0
C226 C 0.56017 0.11094 0.2821 0.0
O227 O 0.672 0.0656 0.42651 0.0
O228 O 0.77382 0.11227 0.46236 0.0
C229 C 0.5377 0.00867 0.44697 0.0
C230 C 0.70938 0.07729 0.47066 0.0
Zn231 Zn 0.60195 0.7742 0.41399 0.0
Zn232 Zn 0.36875 0.51869 0.38939 0.0
Zn233 Zn 0.4803 0.63443 0.39917 0.0
C234 C 0.41511 0.54511 0.29228 0.0
C235 C 0.33402 0.58783 0.42829 0.0
O236 O 0.57454 0.63897 0.42878 0.0
O237 O 0.65236 0.73592 0.46326 0.0
C238 C 0.55064 0.74658 0.29444 0.0
O239 O 0.44766 0.60569 0.31424 0.0
O240 O 0.3866 0.49081 0.32076 0.0
O241 O 0.3407 0.59282 0.37602 0.0
O242 O 0.38913 0.60449 0.45592 0.0
O243 O 0.60201 0.78343 0.3262 0.0
O244 O 0.49948 0.68943 0.31356 0.0
O245 O 0.45082 0.68169 0.45995 0.0
O246 O 0.52752 0.78819 0.45384 0.0
C247 C 0.46456 0.74226 0.44961 0.0
O248 O 0.50807 0.56171 0.41975 0.0
O249 O 0.40555 0.48885 0.45485 0.0
C250 C 0.60964 0.67308 0.47187 0.0
C251 C 0.46819 0.50629 0.44634 0.0
Zn252 Zn 0.49256 0.84613 0.97016 0.0
Zn253 Zn 0.5976 0.92362 0.81625 0.0
Zn254 Zn 0.53115 0.84326 0.87805 0.0
C255 C 0.46371 0.86205 0.77778 0.0
C256 C 0.61468 0.82244 0.78019 0.0
O257 O 0.60738 0.87946 0.94784 0.0
O258 O 0.57325 0.94615 0.97999 0.0
C259 C 0.37754 0.81817 0.92548 0.0
O260 O 0.45658 0.8568 0.83163 0.0
O261 O 0.52269 0.88337 0.75663 0.0
O262 O 0.65999 0.88595 0.78477 0.0
O263 O 0.5603 0.79815 0.81095 0.0
O264 O 0.39984 0.83382 0.97505 0.0
O265 O 0.41946 0.82329 0.88542 0.0
O266 O 0.49823 0.73967 0.87171 0.0
O267 O 0.48958 0.74923 0.96329 0.0
C268 C 0.48518 0.71268 0.92034 0.0
O269 O 0.48737 0.9126 0.8758 0.0
O270 O 0.58825 0.00308 0.85914 0.0
C271 C 0.61063 0.91982 0.98695 0.0
C272 C 0.52494 0.97817 0.87372 0.0
Zn273 Zn 0.67892 0.46727 0.94821 0.0
Zn274 Zn 0.65991 0.59348 0.8108 0.0
Zn275 Zn 0.67551 0.5185 0.87104 0.0
C276 C 0.58203 0.46372 0.76829 0.0
C277 C 0.7783 0.60149 0.77638 0.0
O278 O 0.70387 0.59313 0.94081 0.0
O279 O 0.63558 0.50896 0.9953 0.0
C280 C 0.57096 0.36259 0.89769 0.0
O281 O 0.58564 0.45353 0.821 0.0
O282 O 0.6174 0.52324 0.74805 0.0
O283 O 0.76458 0.64917 0.78662 0.0
O284 O 0.74569 0.54495 0.80326 0.0
O285 O 0.61796 0.36874 0.93058 0.0
O286 O 0.57685 0.41641 0.87309 0.0
O287 O 0.75019 0.48653 0.85335 0.0
O288 O 0.7836 0.51274 0.93929 0.0
C289 C 0.79038 0.48964 0.89269 0.0
O290 O 0.56325 0.47366 0.87366 0.0
O291 O 0.58001 0.57852 0.87042 0.0
C292 C 0.67316 0.57239 0.98823 0.0
C293 C 0.53933 0.51472 0.88098 0.0
Zn294 Zn 0.20324 0.67706 0.96458 0.0
Zn295 Zn 0.05773 0.68314 0.84532 0.0
Zn296 Zn 0.16573 0.67102 0.87735 0.0
C297 C 0.09302 0.60703 0.76853 0.0
C298 C 0.18064 0.7724 0.77642 0.0
O299 O 0.11403 0.70809 0.93933 0.0
O300 O 0.11154 0.63419 0.99929 0.0
C301 C 0.21673 0.57386 0.93007 0.0
O302 O 0.15101 0.64874 0.78999 0.0
O303 O 0.03866 0.60162 0.79087 0.0
O304 O 0.12479 0.76907 0.79265 0.0
O305 O 0.19848 0.73125 0.79866 0.0
O306 O 0.24577 0.61918 0.96741 0.0
O307 O 0.17669 0.57938 0.89422 0.0
O308 O 0.27528 0.73736 0.87974 0.0
O309 O 0.26611 0.78073 0.95851 0.0
C310 C 0.30288 0.7837 0.91707 0.0
O311 O 0.10403 0.56072 0.88599 0.0
O312 O 0.01493 0.5728 0.86319 0.0
C313 C 0.09338 0.6769 0.98678 0.0
C314 C 0.03872 0.53418 0.87993 0.0
Zn315 Zn 0.41307 0.0693 0.81234 0.0
Zn316 Zn 0.53088 0.20895 0.95289 0.0
Zn317 Zn 0.48117 0.15315 0.87394 0.0
C318 C 0.50934 0.29516 0.89299 0.0
C319 C 0.63891 0.20618 0.90624 0.0
O320 O 0.5294 0.08727 0.87378 0.0
O321 O 0.42743 -0.00409 0.8612 0.0
C322 C 0.39583 0.17187 0.7765 0.0
O323 O 0.50973 0.25684 0.85364 0.0
O324 O 0.48586 0.26687 0.93977 0.0
O325 O 0.63082 0.24447 0.94062 0.0
O326 O 0.58632 0.1606 0.87836 0.0
O327 O 0.35054 0.10878 0.78372 0.0
O328 O 0.45163 0.19731 0.80544 0.0
O329 O 0.55175 0.13638 0.82602 0.0
O330 O 0.48581 0.10615 0.7509 0.0
C331 C 0.54464 0.12883 0.77253 0.0
O332 O 0.40335 0.10005 0.94108 0.0
O333 O 0.48562 0.12923 1.00256 0.0
C334 C 0.49121 0.02129 0.87446 0.0
C335 C 0.42251 0.09548 0.99084 0.0
Zn336 Zn 0.36144 0.51782 0.96913 0.0
Zn337 Zn 0.33311 0.4091 0.819 0.0
Zn338 Zn 0.32825 0.48387 0.88013 0.0
C339 C 0.41571 0.54046 0.77855 0.0
C340 C 0.21775 0.4167 0.78704 0.0
O341 O 0.2878 0.39905 0.94416 0.0
O342 O 0.3863 0.44263 0.98374 0.0
C343 C 0.44894 0.63731 0.92772 0.0
O344 O 0.41606 0.55193 0.83154 0.0
O345 O 0.37635 0.48128 0.75892 0.0
O346 O 0.22798 0.36591 0.79269 0.0
O347 O 0.25479 0.47076 0.81605 0.0
O348 O 0.43227 0.6147 0.97698 0.0
O349 O 0.42273 0.59456 0.88601 0.0
O350 O 0.25928 0.51747 0.87432 0.0
O351 O 0.26463 0.51073 0.96606 0.0
C352 C 0.2401 0.52441 0.92293 0.0
O353 O 0.43969 0.52756 0.88047 0.0
O354 O 0.42131 0.42287 0.86914 0.0
C355 C 0.32461 0.39574 0.98366 0.0
C356 C 0.46321 0.48587 0.88194 0.0
Zn357 Zn 0.93997 0.33695 0.81184 0.0
Zn358 Zn 0.79851 0.32487 0.94906 0.0
Zn359 Zn 0.85338 0.32606 0.87336 0.0
C360 C 0.70846 0.21614 0.89965 0.0
C361 C 0.80055 0.43045 0.89814 0.0
O362 O 0.92589 0.43631 0.87415 0.0
O363 O 0.013 0.41688 0.86679 0.0
C364 C 0.83193 0.21851 0.78124 0.0
O365 O 0.74488 0.25498 0.8594 0.0
O366 O 0.73921 0.22144 0.94541 0.0
O367 O 0.75869 0.38254 0.92957 0.0
O368 O 0.85051 0.42597 0.87473 0.0
O369 O 0.89382 0.2325 0.79048 0.0
O370 O 0.80875 0.2529 0.80701 0.0
O371 O 0.87995 0.4169 0.82359 0.0
O372 O 0.90928 0.37832 0.74937 0.0
C373 C 0.88991 0.41763 0.77023 0.0
O374 O 0.89682 0.29755 0.94527 0.0
O375 O 0.88386 0.37159 0.99413 0.0
C376 C 0.9913 0.45848 0.87877 0.0
C377 C 0.90715 0.33117 0.99111 0.0
Zn378 Zn 0.20147 0.52768 0.56007 0.0
Zn379 Zn 0.05248 0.41836 0.69967 0.0
Zn380 Zn 0.15162 0.49451 0.64192 0.0
C381 C 0.0902 0.55144 0.7351 0.0
C382 C 0.17487 0.42135 0.74072 0.0
O383 O 0.10252 0.40701 0.57844 0.0
O384 O 0.12582 0.47768 0.50864 0.0
C385 C 0.20725 0.64435 0.59406 0.0
O386 O 0.12351 0.56407 0.68806 0.0
O387 O 0.05797 0.49071 0.75394 0.0
O388 O 0.11281 0.3747 0.73091 0.0
O389 O 0.19956 0.47746 0.71315 0.0
O390 O 0.23702 0.62606 0.55872 0.0
O391 O 0.16428 0.59995 0.62966 0.0
O392 O 0.25751 0.52925 0.65904 0.0
O393 O 0.268 0.49383 0.57669 0.0
C394 C 0.29564 0.5225 0.62261 0.0
O395 O 0.08946 0.54094 0.62878 0.0
O396 O 0.0042 0.43453 0.62743 0.0
C397 C 0.09676 0.41722 0.526 0.0
C398 C 0.02595 0.4982 0.61755 0.0
Zn399 Zn 0.67258 0.07233 0.70035 0.0
Zn400 Zn 0.68483 0.20694 0.5589 0.0
Zn401 Zn 0.68569 0.15519 0.6373 0.0
C402 C 0.79428 0.29713 0.61522 0.0
C403 C 0.57573 0.20241 0.60733 0.0
O404 O 0.57282 0.0868 0.63908 0.0
O405 O 0.58653 -0.00258 0.65182 0.0
C406 C 0.79107 0.17672 0.73251 0.0
O407 O 0.75843 0.25948 0.65599 0.0
O408 O 0.78827 0.26743 0.56878 0.0
O409 O 0.62085 0.2421 0.57274 0.0
O410 O 0.5851 0.15769 0.63406 0.0
O411 O 0.77564 0.11435 0.72525 0.0
O412 O 0.75888 0.20043 0.7042 0.0
O413 O 0.5984 0.13628 0.68663 0.0
O414 O 0.63597 0.10833 0.76187 0.0
C415 C 0.59863 0.12948 0.74017 0.0
O416 O 0.7146 0.10866 0.56867 0.0
O417 O 0.64762 0.12386 0.51159 0.0
C418 C 0.54668 0.02112 0.63902 0.0
C419 C 0.68573 0.09868 0.52054 0.0
Zn420 Zn 0.47376 0.67713 0.56408 0.0
Zn421 Zn 0.59834 0.65771 0.69755 0.0
Zn422 Zn 0.52342 0.67444 0.64008 0.0
C423 C 0.4693 0.58963 0.74365 0.0
C424 C 0.61146 0.78036 0.73061 0.0
O425 O 0.59548 0.69441 0.5697 0.0
O426 O 0.50617 0.62195 0.52173 0.0
C427 C 0.36545 0.57988 0.61709 0.0
O428 O 0.45765 0.58953 0.69092 0.0
O429 O 0.53011 0.62314 0.7622 0.0
O430 O 0.65685 0.763 0.72049 0.0
O431 O 0.55345 0.74835 0.7054 0.0
O432 O 0.37476 0.62836 0.5849 0.0
O433 O 0.41806 0.58039 0.63984 0.0
O434 O 0.49487 0.75257 0.6533 0.0
O435 O 0.5317 0.78122 0.56845 0.0
C436 C 0.50491 0.79162 0.61133 0.0
O437 O 0.47132 0.56047 0.6389 0.0
O438 O 0.57471 0.57188 0.64065 0.0
C439 C 0.57055 0.65878 0.52497 0.0
C440 C 0.50987 0.53345 0.63107 0.0
Zn441 Zn 0.92944 0.59666 0.69198 0.0
Zn442 Zn 0.78894 0.46226 0.55878 0.0
Zn443 Zn 0.84138 0.51819 0.63373 0.0
C444 C 0.69732 0.48167 0.60821 0.0
C445 C 0.79622 0.3626 0.60988 0.0
O446 O 0.91246 0.47971 0.62899 0.0
O447 O -0.00341 0.5868 0.63113 0.0
C448 C 0.81858 0.60154 0.72662 0.0
O449 O 0.73321 0.47958 0.64893 0.0
O450 O 0.72894 0.50654 0.56271 0.0
O451 O 0.75204 0.3649 0.57846 0.0
O452 O 0.84357 0.41851 0.63274 0.0
O453 O 0.8788 0.65086 0.71507 0.0
O454 O 0.79671 0.54419 0.70134 0.0
O455 O 0.873 0.45727 0.68326 0.0
O456 O 0.90502 0.52744 0.75571 0.0
C457 C 0.88714 0.46889 0.73583 0.0
O458 O 0.88329 0.58951 0.56171 0.0
O459 O 0.8759 0.50352 0.51482 0.0
C460 C 0.9763 0.52379 0.61952 0.0
C461 C 0.89642 0.56656 0.51683 0.0
Zn462 Zn 0.36067 0.83108 0.5468 0.0
Zn463 Zn 0.34372 0.92889 0.70426 0.0
Zn464 Zn 0.33271 0.84903 0.63714 0.0
C465 C 0.41212 0.86425 0.7437 0.0
C466 C 0.22196 0.8155 0.72812 0.0
O467 O 0.30214 0.89559 0.56772 0.0
O468 O 0.40368 0.93585 0.53577 0.0
C469 C 0.45312 0.81182 0.59933 0.0
O470 O 0.41546 0.85989 0.68983 0.0
O471 O 0.3764 0.88798 0.76462 0.0
O472 O 0.23739 0.8781 0.72284 0.0
O473 O 0.25569 0.79394 0.6993 0.0
O474 O 0.42741 0.79967 0.55072 0.0
O475 O 0.42996 0.83724 0.6369 0.0
O476 O 0.25684 0.74726 0.64463 0.0
O477 O 0.25764 0.75214 0.55242 0.0
C478 C 0.23286 0.71803 0.59768 0.0
O479 O 0.44412 0.91158 0.64409 0.0
O480 O 0.43066 0.00119 0.65325 0.0
C481 C 0.3449 0.92814 0.5284 0.0
C482 C 0.4704 0.97686 0.64179 0.0
Zn483 Zn 0.52221 0.30584 0.55319 0.0
Zn484 Zn 0.40094 0.33103 0.69253 0.0
Zn485 Zn 0.47434 0.31753 0.63122 0.0
C486 C 0.5295 0.40993 0.73495 0.0
C487 C 0.39474 0.2129 0.72745 0.0
O488 O 0.39459 0.28906 0.56304 0.0
O489 O 0.47383 0.32829 0.4977 0.0
C490 C 0.62817 0.42249 0.60141 0.0
O491 O 0.53954 0.40703 0.682 0.0
O492 O 0.47034 0.37234 0.75568 0.0
O493 O 0.34677 0.22727 0.71973 0.0
O494 O 0.45061 0.24573 0.69901 0.0
O495 O 0.62078 0.37617 0.56726 0.0
O496 O 0.57528 0.41581 0.62884 0.0
O497 O 0.51222 0.24726 0.64892 0.0
O498 O 0.48603 0.20494 0.56503 0.0
C499 C 0.51253 0.20612 0.61193 0.0
O500 O 0.51761 0.43064 0.63056 0.0
O501 O 0.41388 0.41708 0.64103 0.0
C502 C 0.41174 0.304 0.51115 0.0
C503 C 0.47768 0.45679 0.62844 0.0
loop_
_geom_bond_atom_site_label_1
_geom_bond_atom_site_label_2
_geom_bond_distance
_geom_bond_site_symmetry_2
_ccdc_geom_bond_type
Zn0 O6 1.920 . S
Zn0 O12 1.898 . S
Zn0 O15 1.905 . S
Zn1 O9 1.905 . S
Zn1 O10 1.898 . S
Zn1 O18 1.920 . S
Zn2 O5 2.080 . S
Zn2 O8 2.114 . S
Zn2 O11 2.120 . S
Zn2 O13 2.120 . S
Zn2 O14 2.114 . S
Zn2 O17 2.080 . S
C3 O8 1.166 . S
C3 O9 1.182 . S
C4 O10 1.167 . S
C4 O11 1.299 . S
O5 Zn2 2.080 . S
O5 C19 1.305 . S
O6 Zn0 1.920 . S
O6 C19 1.234 . S
C7 O12 1.167 . S
C7 O13 1.299 . S
O8 Zn2 2.114 . S
O8 C3 1.166 . S
O9 Zn1 1.905 . S
O9 C3 1.182 . S
O10 Zn1 1.898 . S
O10 C4 1.167 . S
O11 Zn2 2.120 . S
O11 C4 1.299 . S
O12 Zn0 1.898 . S
O12 C7 1.167 . S
O13 Zn2 2.120 . S
O13 C7 1.299 . S
O14 Zn2 2.114 . S
O14 C16 1.166 . S
O15 Zn0 1.905 . S
O15 C16 1.182 . S
C16 O14 1.166 . S
C16 O15 1.182 . S
O17 Zn2 2.080 . S
O17 C20 1.305 . S
O18 Zn1 1.920 . S
O18 C20 1.234 . S
C19 O5 1.305 . S
C19 O6 1.234 . S
C20 O17 1.305 . S
C20 O18 1.234 . S
Zn21 O27 1.920 . S
Zn21 O33 1.898 . S
Zn21 O36 1.905 . S
Zn22 O30 1.905 . S
Zn22 O31 1.898 . S
Zn22 O39 1.920 . S
Zn23 O26 2.080 . S
Zn23 O29 2.114 . S
Zn23 O32 2.120 . S
Zn23 O34 2.120 . S
Zn23 O35 2.114 . S
Zn23 O38 2.080 . S
C24 O29 1.166 . S
C24 O30 1.182 . S
C25 O31 1.167 . S
C25 O32 1.299 . S
O26 Zn23 2.080 . S
O26 C40 1.305 . S
O27 Zn21 1.920 . S
O27 C40 1.234 . S
C28 O33 1.167 . S
C28 O34 1.299 . S
O29 Zn23 2.114 . S
O29 C24 1.166 . S
O30 Zn22 1.905 . S
O30 C24 1.182 . S
O31 Zn22 1.898 . S
O31 C25 1.167 . S
O32 Zn23 2.120 . S
O32 C25 1.299 . S
O33 Zn21 1.898 . S
O33 C28 1.167 . S
O34 Zn23 2.120 . S
O34 C28 1.299 . S
O35 Zn23 2.114 . S
O35 C37 1.166 . S
O36 Zn21 1.905 . S
O36 C37 1.182 . S
C37 O35 1.166 . S
C37 O36 1.182 . S
O38 Zn23 2.080 . S
O38 C41 1.305 . S
O39 Zn22 1.920 . S
O39 C41 1.234 . S
C40 O26 1.305 . S
C40 O27 1.234 . S
C41 O38 1.305 . S
C41 O39 1.234 . S
Zn42 O48 1.920 . S
Zn42 O54 1.898 . S
Zn42 O57 1.905 . S
Zn43 O51 1.905 . S
Zn43 O52 1.898 . S
Zn43 O60 1.920 . S
Zn44 O47 2.080 . S
Zn44 O50 2.114 . S
Zn44 O53 2.120 . S
Zn44 O55 2.120 . S
Zn44 O56 2.114 . S
Zn44 O59 2.080 . S
C45 O50 1.166 . S
C45 O51 1.182 . S
C46 O52 1.167 . S
C46 O53 1.299 . S
O47 Zn44 2.080 . S
O47 C61 1.305 . S
O48 Zn42 1.920 . S
O48 C61 1.234 . S
C49 O54 1.167 . S
C49 O55 1.299 . S
O50 Zn44 2.114 . S
O50 C45 1.166 . S
O51 Zn43 1.905 . S
O51 C45 1.182 . S
O52 Zn43 1.898 . S
O52 C46 1.167 . S
O53 Zn44 2.120 . S
O53 C46 1.299 . S
O54 Zn42 1.898 . S
O54 C49 1.167 . S
O55 Zn44 2.120 . S
O55 C49 1.299 . S
O56 Zn44 2.114 . S
O56 C58 1.166 . S
O57 Zn42 1.905 . S
O57 C58 1.182 . S
C58 O56 1.166 . S
C58 O57 1.182 . S
O59 Zn44 2.080 . S
O59 C62 1.305 . S
O60 Zn43 1.920 . S
O60 C62 1.234 . S
C61 O47 1.305 . S
C61 O48 1.234 . S
C62 O59 1.305 . S
C62 O60 1.234 . S
Zn63 O69 1.920 . S
Zn63 O75 1.898 . S
Zn63 O78 1.905 . S
Zn64 O72 1.905 . S
Zn64 O73 1.898 . S
Zn64 O81 1.920 . S
Zn65 O68 2.080 . S
Zn65 O71 2.114 . S
Zn65 O74 2.120 . S
Zn65 O76 2.120 . S
Zn65 O77 2.114 . S
Zn65 O80 2.080 . S
C66 O71 1.166 . S
C66 O72 1.182 . S
C67 O73 1.167 . S
C67 O74 1.299 . S
O68 Zn65 2.080 . S
O68 C82 1.305 . S
O69 Zn63 1.920 . S
O69 C82 1.234 . S
C70 O75 1.167 . S
C70 O76 1.299 . S
O71 Zn65 2.114 . S
O71 C66 1.166 . S
O72 Zn64 1.905 . S
O72 C66 1.182 . S
O73 Zn64 1.898 . S
O73 C67 1.167 . S
O74 Zn65 2.120 . S
O74 C67 1.299 . S
O75 Zn63 1.898 . S
O75 C70 1.167 . S
O76 Zn65 2.120 . S
O76 C70 1.299 . S
O77 Zn65 2.114 . S
O77 C79 1.166 . S
O78 Zn63 1.905 . S
O78 C79 1.182 . S
C79 O77 1.166 . S
C79 O78 1.182 . S
O80 Zn65 2.080 . S
O80 C83 1.305 . S
O81 Zn64 1.920 . S
O81 C83 1.234 . S
C82 O68 1.305 . S
C82 O69 1.234 . S
C83 O80 1.305 . S
C83 O81 1.234 . S
Zn84 O90 1.920 . S
Zn84 O96 1.898 . S
Zn84 O99 1.905 . S
Zn85 O93 1.905 . S
Zn85 O94 1.898 . S
Zn85 O102 1.920 . S
Zn86 O89 2.080 . S
Zn86 O92 2.114 . S
Zn86 O95 2.120 . S
Zn86 O97 2.120 . S
Zn86 O98 2.114 . S
Zn86 O101 2.080 . S
C87 O92 1.166 . S
C87 O93 1.182 . S
C88 O94 1.167 . S
C88 O95 1.299 . S
O89 Zn86 2.080 . S
O89 C103 1.305 . S
O90 Zn84 1.920 . S
O90 C103 1.234 . S
C91 O96 1.167 . S
C91 O97 1.299 . S
O92 Zn86 2.114 . S
O92 C87 1.166 . S
O93 Zn85 1.905 . S
O93 C87 1.182 . S
O94 Zn85 1.898 . S
O94 C88 1.167 . S
O95 Zn86 2.120 . S
O95 C88 1.299 . S
O96 Zn84 1.898 . S
O96 C91 1.167 . S
O97 Zn86 2.120 . S
O97 C91 1.299 . S
O98 Zn86 2.114 . S
O98 C100 1.166 . S
O99 Zn84 1.905 . S
O99 C100 1.182 . S
C100 O98 1.166 . S
C100 O99 1.182 . S
O101 Zn86 2.080 . S
O101 C104 1.305 . S
O102 Zn85 1.920 . S
O102 C104 1.234 . S
C103 O89 1.305 . S
C103 O90 1.234 . S
C104 O101 1.305 . S
C104 O102 1.234 . S
Zn105 O111 1.920 . S
Zn105 O117 1.898 . S
Zn105 O120 1.905 . S
Zn106 O114 1.905 . S
Zn106 O115 1.898 . S
Zn106 O123 1.920 . S
Zn107 O110 2.080 . S
Zn107 O113 2.114 . S
Zn107 O116 2.120 . S
Zn107 O118 2.120 . S
Zn107 O119 2.114 . S
Zn107 O122 2.080 . S
C108 O113 1.166 . S
C108 O114 1.182 . S
C109 O115 1.167 . S
C109 O116 1.299 . S
O110 Zn107 2.080 . S
O110 C124 1.305 . S
O111 Zn105 1.920 . S
O111 C124 1.234 . S
C112 O117 1.167 . S
C112 O118 1.299 . S
O113 Zn107 2.114 . S
O113 C108 1.166 . S
O114 Zn106 1.905 . S
O114 C108 1.182 . S
O115 Zn106 1.898 . S
O115 C109 1.167 . S
O116 Zn107 2.120 . S
O116 C109 1.299 . S
O117 Zn105 1.898 . S
O117 C112 1.167 . S
O118 Zn107 2.120 . S
O118 C112 1.299 . S
O119 Zn107 2.114 . S
O119 C121 1.166 . S
O120 Zn105 1.905 . S
O120 C121 1.182 . S
C121 O119 1.166 . S
C121 O120 1.182 . S
O122 Zn107 2.080 . S
O122 C125 1.305 . S
O123 Zn106 1.920 . S
O123 C125 1.234 . S
C124 O110 1.305 . S
C124 O111 1.234 . S
C125 O122 1.305 . S
C125 O123 1.234 . S
Zn126 O132 1.920 . S
Zn126 O138 1.898 . S
Zn126 O141 1.905 . S
Zn127 O135 1.905 . S
Zn127 O136 1.898 . S
Zn127 O144 1.920 . S
Zn128 O131 2.080 . S
Zn128 O134 2.114 . S
Zn128 O137 2.120 . S
Zn128 O139 2.120 . S
Zn128 O140 2.114 . S
Zn128 O143 2.080 . S
C129 O134 1.166 . S
C129 O135 1.182 . S
C130 O136 1.167 . S
C130 O137 1.299 . S
O131 Zn128 2.080 . S
O131 C145 1.305 . S
O132 Zn126 1.920 . S
O132 C145 1.234 . S
C133 O138 1.167 . S
C133 O139 1.299 . S
O134 Zn128 2.114 . S
O134 C129 1.166 . S
O135 Zn127 1.905 . S
O135 C129 1.182 . S
O136 Zn127 1.898 . S
O136 C130 1.167 . S
O137 Zn128 2.120 . S
O137 C130 1.299 . S
O138 Zn126 1.898 . S
O138 C133 1.167 . S
O139 Zn128 2.120 . S
O139 C133 1.299 . S
O140 Zn128 2.114 . S
O140 C142 1.166 . S
O141 Zn126 1.905 . S
O141 C142 1.182 . S
C142 O140 1.166 . S
C142 O141 1.182 . S
O143 Zn128 2.080 . S
O143 C146 1.305 . S
O144 Zn127 1.920 . S
O144 C146 1.234 . S
C145 O131 1.305 . S
C145 O132 1.234 . S
C146 O143 1.305 . S
C146 O144 1.234 . S
Zn147 O153 1.920 . S
Zn147 O159 1.898 . S
Zn147 O162 1.905 . S
Zn148 O156 1.905 . S
Zn148 O157 1.898 . S
Zn148 O165 1.920 . S
Zn149 O152 2.080 . S
Zn149 O155 2.114 . S
Zn149 O158 2.120 . S
Zn149 O160 2.120 . S
Zn149 O161 2.114 . S
Zn149 O164 2.080 . S
C150 O155 1.166 . S
C150 O156 1.182 . S
C151 O157 1.167 . S
C151 O158 1.299 . S
O152 Zn149 2.080 . S
O152 C166 1.305 . S
O153 Zn147 1.920 . S
O153 C166 1.234 . S
C154 O159 1.167 . S
C154 O160 1.299 . S
O155 Zn149 2.114 . S
O155 C150 1.166 . S
O156 Zn148 1.905 . S
O156 C150 1.182 . S
O157 Zn148 1.898 . S
O157 C151 1.167 . S
O158 Zn149 2.120 . S
O158 C151 1.299 . S
O159 Zn147 1.898 . S
O159 C154 1.167 . S
O160 Zn149 2.120 . S
O160 C154 1.299 . S
O161 Zn149 2.114 . S
O161 C163 1.166 . S
O162 Zn147 1.905 . S
O162 C163 1.182 . S
C163 O161 1.166 . S
C163 O162 1.182 . S
O164 Zn149 2.080 . S
O164 C167 1.305 . S
O165 Zn148 1.920 . S
O165 C167 1.234 . S
C166 O152 1.305 . S
C166 O153 1.234 . S
C167 O164 1.305 . S
C167 O165 1.234 . S
Zn168 O174 1.920 . S
Zn168 O180 1.898 . S
Zn168 O183 1.905 . S
Zn169 O177 1.905 . S
Zn169 O178 1.898 . S
Zn169 O186 1.920 . S
Zn170 O173 2.080 . S
Zn170 O176 2.114 . S
Zn170 O179 2.120 . S
Zn170 O181 2.120 . S
Zn170 O182 2.114 . S
Zn170 O185 2.080 . S
C171 O176 1.166 . S
C171 O177 1.182 . S
C172 O178 1.167 . S
C172 O179 1.299 . S
O173 Zn170 2.080 . S
O173 C187 1.305 . S
O174 Zn168 1.920 . S
O174 C187 1.234 . S
C175 O180 1.167 . S
C175 O181 1.299 . S
O176 Zn170 2.114 . S
O176 C171 1.166 . S
O177 Zn169 1.905 . S
O177 C171 1.182 . S
O178 Zn169 1.898 . S
O178 C172 1.167 . S
O179 Zn170 2.120 . S
O179 C172 1.299 . S
O180 Zn168 1.898 . S
O180 C175 1.167 . S
O181 Zn170 2.120 . S
O181 C175 1.299 . S
O182 Zn170 2.114 . S
O182 C184 1.166 . S
O183 Zn168 1.905 . S
O183 C184 1.182 . S
C184 O182 1.166 . S
C184 O183 1.182 . S
O185 Zn170 2.080 . S
O185 C188 1.305 . S
O186 Zn169 1.920 . S
O186 C188 1.234 . S
C187 O173 1.305 . S
C187 O174 1.234 . S
C188 O185 1.305 . S
C188 O186 1.234 . S
Zn189 O195 1.920 . S
Zn189 O201 1.898 . S
Zn189 O204 1.905 . S
Zn190 O198 1.905 . S
Zn190 O199 1.898 . S
Zn190 O207 1.920 . S
Zn191 O194 2.080 . S
Zn191 O197 2.114 . S
Zn191 O200 2.120 . S
Zn191 O202 2.120 . S
Zn191 O203 2.114 . S
Zn191 O206 2.080 . S
C192 O197 1.166 . S
C192 O198 1.182 . S
C193 O199 1.167 . S
C193 O200 1.299 . S
O194 Zn191 2.080 . S
O194 C208 1.305 . S
O195 Zn189 1.920 . S
O195 C208 1.234 . S
C196 O201 1.167 . S
C196 O202 1.299 . S
O197 Zn191 2.114 . S
O197 C192 1.166 . S
O198 Zn190 1.905 . S
O198 C192 1.182 . S
O199 Zn190 1.898 . S
O199 C193 1.167 . S
O200 Zn191 2.120 . S
O200 C193 1.299 . S
O201 Zn189 1.898 . S
O201 C196 1.167 . S
O202 Zn191 2.120 . S
O202 C196 1.299 . S
O203 Zn191 2.114 . S
O203 C205 1.166 . S
O204 Zn189 1.905 . S
O204 C205 1.182 . S
C205 O203 1.166 . S
C205 O204 1.182 . S
O206 Zn191 2.080 . S
O206 C209 1.305 . S
O207 Zn190 1.920 . S
O207 C209 1.234 . S
C208 O194 1.305 . S
C208 O195 1.234 . S
C209 O206 1.305 . S
C209 O207 1.234 . S
Zn210 O216 1.920 . S
Zn210 O222 1.898 . S
Zn210 O225 1.905 . S
Zn211 O219 1.905 . S
Zn211 O220 1.898 . S
Zn211 O228 1.920 . S
Zn212 O215 2.080 . S
Zn212 O218 2.114 . S
Zn212 O221 2.120 . S
Zn212 O223 2.120 . S
Zn212 O224 2.114 . S
Zn212 O227 2.080 . S
C213 O218 1.166 . S
C213 O219 1.182 . S
C214 O220 1.167 . S
C214 O221 1.299 . S
O215 Zn212 2.080 . S
O215 C229 1.305 . S
O216 Zn210 1.920 . S
O216 C229 1.234 . S
C217 O222 1.167 . S
C217 O223 1.299 . S
O218 Zn212 2.114 . S
O218 C213 1.166 . S
O219 Zn211 1.905 . S
O219 C213 1.182 . S
O220 Zn211 1.898 . S
O220 C214 1.167 . S
O221 Zn212 2.120 . S
O221 C214 1.299 . S
O222 Zn210 1.898 . S
O222 C217 1.167 . S
O223 Zn212 2.120 . S
O223 C217 1.299 . S
O224 Zn212 2.114 . S
O224 C226 1.166 . S
O225 Zn210 1.905 . S
O225 C226 1.182 . S
C226 O224 1.166 . S
C226 O225 1.182 . S
O227 Zn212 2.080 . S
O227 C230 1.305 . S
O228 Zn211 1.920 . S
O228 C230 1.234 . S
C229 O215 1.305 . S
C229 O216 1.234 . S
C230 O227 1.305 . S
C230 O228 1.234 . S
Zn231 O237 1.920 . S
Zn231 O243 1.898 . S
Zn231 O246 1.905 . S
Zn232 O240 1.905 . S
Zn232 O241 1.898 . S
Zn232 O249 1.920 . S
Zn233 O236 2.080 . S
Zn233 O239 2.114 . S
Zn233 O242 2.120 . S
Zn233 O244 2.120 . S
Zn233 O245 2.114 . S
Zn233 O248 2.080 . S
C234 O239 1.166 . S
C234 O240 1.182 . S
C235 O241 1.167 . S
C235 O242 1.299 . S
O236 Zn233 2.080 . S
O236 C250 1.305 . S
O237 Zn231 1.920 . S
O237 C250 1.234 . S
C238 O243 1.167 . S
C238 O244 1.299 . S
O239 Zn233 2.114 . S
O239 C234 1.166 . S
O240 Zn232 1.905 . S
O240 C234 1.182 . S
O241 Zn232 1.898 . S
O241 C235 1.167 . S
O242 Zn233 2.120 . S
O242 C235 1.299 . S
O243 Zn231 1.898 . S
O243 C238 1.167 . S
O244 Zn233 2.120 . S
O244 C238 1.299 . S
O245 Zn233 2.114 . S
O245 C247 1.166 . S
O246 Zn231 1.905 . S
O246 C247 1.182 . S
C247 O245 1.166 . S
C247 O246 1.182 . S
O248 Zn233 2.080 . S
O248 C251 1.305 . S
O249 Zn232 1.920 . S
O249 C251 1.234 . S
C250 O236 1.305 . S
C250 O237 1.234 . S
C251 O248 1.305 . S
C251 O249 1.234 . S
Zn252 O258 1.920 1_556 S
Zn252 O264 1.898 . S
Zn252 O267 1.905 . S
Zn253 O261 1.905 . S
Zn253 O262 1.898 . S
Zn253 O270 1.920 1_565 S
Zn254 O257 2.080 . S
Zn254 O260 2.114 . S
Zn254 O263 2.120 . S
Zn254 O265 2.120 . S
Zn254 O266 2.114 . S
Zn254 O269 2.080 . S
C255 O260 1.166 . S
C255 O261 1.182 . S
C256 O262 1.167 . S
C256 O263 1.299 . S
O257 Zn254 2.080 . S
O257 C271 1.305 . S
O258 Zn252 1.920 1_554 S
O258 C271 1.234 1_554 S
C259 O264 1.167 . S
C259 O265 1.299 . S
O260 Zn254 2.114 . S
O260 C255 1.166 . S
O261 Zn253 1.905 . S
O261 C255 1.182 . S
O262 Zn253 1.898 . S
O262 C256 1.167 . S
O263 Zn254 2.120 . S
O263 C256 1.299 . S
O264 Zn252 1.898 . S
O264 C259 1.167 . S
O265 Zn254 2.120 . S
O265 C259 1.299 . S
O266 Zn254 2.114 . S
O266 C268 1.166 . S
O267 Zn252 1.905 . S
O267 C268 1.182 . S
C268 O266 1.166 . S
C268 O267 1.182 . S
O269 Zn254 2.080 . S
O269 C272 1.300 1_565 S
O270 Zn253 1.920 1_545 S
O270 C272 1.235 . S
C271 O257 1.305 . S
C271 O258 1.234 1_556 S
C272 O269 1.300 1_545 S
C272 O270 1.235 . S
Zn273 O279 1.920 1_556 S
Zn273 O285 1.898 . S
Zn273 O288 1.905 . S
Zn274 O282 1.905 . S
Zn274 O283 1.898 . S
Zn274 O291 1.920 . S
Zn275 O278 2.080 . S
Zn275 O281 2.114 . S
Zn275 O284 2.120 . S
Zn275 O286 2.120 . S
Zn275 O287 2.114 . S
Zn275 O290 2.080 . S
C276 O281 1.166 . S
C276 O282 1.182 . S
C277 O283 1.167 . S
C277 O284 1.299 . S
O278 Zn275 2.080 . S
O278 C292 1.305 . S
O279 Zn273 1.920 1_554 S
O279 C292 1.234 1_554 S
C280 O285 1.167 . S
C280 O286 1.299 . S
O281 Zn275 2.114 . S
O281 C276 1.166 . S
O282 Zn274 1.905 . S
O282 C276 1.182 . S
O283 Zn274 1.898 . S
O283 C277 1.167 . S
O284 Zn275 2.120 . S
O284 C277 1.299 . S
O285 Zn273 1.898 . S
O285 C280 1.167 . S
O286 Zn275 2.120 . S
O286 C280 1.299 . S
O287 Zn275 2.114 . S
O287 C289 1.166 . S
O288 Zn273 1.905 . S
O288 C289 1.182 . S
C289 O287 1.166 . S
C289 O288 1.182 . S
O290 Zn275 2.080 . S
O290 C293 1.305 . S
O291 Zn274 1.920 . S
O291 C293 1.234 . S
C292 O278 1.305 . S
C292 O279 1.234 1_556 S
C293 O290 1.305 . S
C293 O291 1.234 . S
Zn294 O300 1.920 1_556 S
Zn294 O306 1.898 . S
Zn294 O309 1.905 . S
Zn295 O303 1.905 . S
Zn295 O304 1.898 . S
Zn295 O312 1.920 1_455 S
Zn296 O299 2.080 . S
Zn296 O302 2.114 . S
Zn296 O305 2.120 . S
Zn296 O307 2.120 . S
Zn296 O308 2.114 . S
Zn296 O311 2.080 . S
C297 O302 1.166 . S
C297 O303 1.182 . S
C298 O304 1.167 . S
C298 O305 1.299 . S
O299 Zn296 2.080 . S
O299 C313 1.305 . S
O300 Zn294 1.920 1_554 S
O300 C313 1.234 1_554 S
C301 O306 1.167 . S
C301 O307 1.299 . S
O302 Zn296 2.114 . S
O302 C297 1.166 . S
O303 Zn295 1.905 . S
O303 C297 1.182 . S
O304 Zn295 1.898 . S
O304 C298 1.167 . S
O305 Zn296 2.120 . S
O305 C298 1.299 . S
O306 Zn294 1.898 . S
O306 C301 1.167 . S
O307 Zn296 2.120 . S
O307 C301 1.299 . S
O308 Zn296 2.114 . S
O308 C310 1.166 . S
O309 Zn294 1.905 . S
O309 C310 1.182 . S
C310 O308 1.166 . S
C310 O309 1.182 . S
O311 Zn296 2.080 . S
O311 C314 1.295 1_455 S
O312 Zn295 1.920 1_655 S
O312 C314 1.239 . S
C313 O299 1.305 . S
C313 O300 1.234 1_556 S
C314 O311 1.295 1_655 S
C314 O312 1.239 . S
Zn315 O321 1.920 1_545 S
Zn315 O327 1.898 . S
Zn315 O330 1.905 . S
Zn316 O324 1.905 . S
Zn316 O325 1.898 . S
Zn316 O333 1.920 1_556 S
Zn317 O320 2.080 . S
Zn317 O323 2.114 . S
Zn317 O326 2.120 . S
Zn317 O328 2.120 . S
Zn317 O329 2.114 . S
Zn317 O332 2.080 . S
C318 O323 1.166 . S
C318 O324 1.182 . S
C319 O325 1.167 . S
C319 O326 1.299 . S
O320 Zn317 2.080 . S
O320 C334 1.300 1_545 S
O321 Zn315 1.920 1_565 S
O321 C334 1.235 . S
C322 O327 1.167 . S
C322 O328 1.299 . S
O323 Zn317 2.114 . S
O323 C318 1.166 . S
O324 Zn316 1.905 . S
O324 C318 1.182 . S
O325 Zn316 1.898 . S
O325 C319 1.167 . S
O326 Zn317 2.120 . S
O326 C319 1.299 . S
O327 Zn315 1.898 . S
O327 C322 1.167 . S
O328 Zn317 2.120 . S
O328 C322 1.299 . S
O329 Zn317 2.114 . S
O329 C331 1.166 . S
O330 Zn315 1.905 . S
O330 C331 1.182 . S
C331 O329 1.166 . S
C331 O330 1.182 . S
O332 Zn317 2.080 . S
O332 C335 1.305 . S
O333 Zn316 1.920 1_554 S
O333 C335 1.234 1_554 S
C334 O320 1.300 1_565 S
C334 O321 1.235 . S
C335 O332 1.305 . S
C335 O333 1.234 1_556 S
Zn336 O342 1.920 1_556 S
Zn336 O348 1.898 . S
Zn336 O351 1.905 . S
Zn337 O345 1.905 . S
Zn337 O346 1.898 . S
Zn337 O354 1.920 . S
Zn338 O341 2.080 . S
Zn338 O344 2.114 . S
Zn338 O347 2.120 . S
Zn338 O349 2.120 . S
Zn338 O350 2.114 . S
Zn338 O353 2.080 . S
C339 O344 1.166 . S
C339 O345 1.182 . S
C340 O346 1.167 . S
C340 O347 1.299 . S
O341 Zn338 2.080 . S
O341 C355 1.305 . S
O342 Zn336 1.920 1_554 S
O342 C355 1.234 1_554 S
C343 O348 1.167 . S
C343 O349 1.299 . S
O344 Zn338 2.114 . S
O344 C339 1.166 . S
O345 Zn337 1.905 . S
O345 C339 1.182 . S
O346 Zn337 1.898 . S
O346 C340 1.167 . S
O347 Zn338 2.120 . S
O347 C340 1.299 . S
O348 Zn336 1.898 . S
O348 C343 1.167 . S
O349 Zn338 2.120 . S
O349 C343 1.299 . S
O350 Zn338 2.114 . S
O350 C352 1.166 . S
O351 Zn336 1.905 . S
O351 C352 1.182 . S
C352 O350 1.166 . S
C352 O351 1.182 . S
O353 Zn338 2.080 . S
O353 C356 1.305 . S
O354 Zn337 1.920 . S
O354 C356 1.234 . S
C355 O341 1.305 . S
C355 O342 1.234 1_556 S
C356 O353 1.305 . S
C356 O354 1.234 . S
Zn357 O363 1.920 1_655 S
Zn357 O369 1.898 . S
Zn357 O372 1.905 . S
Zn358 O366 1.905 . S
Zn358 O367 1.898 . S
Zn358 O375 1.920 1_556 S
Zn359 O362 2.080 . S
Zn359 O365 2.114 . S
Zn359 O368 2.120 . S
Zn359 O370 2.120 . S
Zn359 O371 2.114 . S
Zn359 O374 2.080 . S
C360 O365 1.166 . S
C360 O366 1.182 . S
C361 O367 1.167 . S
C361 O368 1.299 . S
O362 Zn359 2.080 . S
O362 C376 1.295 1_655 S
O363 Zn357 1.920 1_455 S
O363 C376 1.239 . S
C364 O369 1.167 . S
C364 O370 1.299 . S
O365 Zn359 2.114 . S
O365 C360 1.166 . S
O366 Zn358 1.905 . S
O366 C360 1.182 . S
O367 Zn358 1.898 . S
O367 C361 1.167 . S
O368 Zn359 2.120 . S
O368 C361 1.299 . S
O369 Zn357 1.898 . S
O369 C364 1.167 . S
O370 Zn359 2.120 . S
O370 C364 1.299 . S
O371 Zn359 2.114 . S
O371 C373 1.166 . S
O372 Zn357 1.905 . S
O372 C373 1.182 . S
C373 O371 1.166 . S
C373 O372 1.182 . S
O374 Zn359 2.080 . S
O374 C377 1.305 . S
O375 Zn358 1.920 1_554 S
O375 C377 1.234 1_554 S
C376 O362 1.295 1_455 S
C376 O363 1.239 . S
C377 O374 1.305 . S
C377 O375 1.234 1_556 S
Zn378 O384 1.920 . S
Zn378 O390 1.898 . S
Zn378 O393 1.905 . S
Zn379 O387 1.905 . S
Zn379 O388 1.898 . S
Zn379 O396 1.920 1_455 S
Zn380 O383 2.080 . S
Zn380 O386 2.114 . S
Zn380 O389 2.120 . S
Zn380 O391 2.120 . S
Zn380 O392 2.114 . S
Zn380 O395 2.080 . S
C381 O386 1.166 . S
C381 O387 1.182 . S
C382 O388 1.167 . S
C382 O389 1.299 . S
O383 Zn380 2.080 . S
O383 C397 1.305 . S
O384 Zn378 1.920 . S
O384 C397 1.234 . S
C385 O390 1.167 . S
C385 O391 1.299 . S
O386 Zn380 2.114 . S
O386 C381 1.166 . S
O387 Zn379 1.905 . S
O387 C381 1.182 . S
O388 Zn379 1.898 . S
O388 C382 1.167 . S
O389 Zn380 2.120 . S
O389 C382 1.299 . S
O390 Zn378 1.898 . S
O390 C385 1.167 . S
O391 Zn380 2.120 . S
O391 C385 1.299 . S
O392 Zn380 2.114 . S
O392 C394 1.166 . S
O393 Zn378 1.905 . S
O393 C394 1.182 . S
C394 O392 1.166 . S
C394 O393 1.182 . S
O395 Zn380 2.080 . S
O395 C398 1.300 1_455 S
O396 Zn379 1.920 1_655 S
O396 C398 1.235 . S
C397 O383 1.305 . S
C397 O384 1.234 . S
C398 O395 1.300 1_655 S
C398 O396 1.235 . S
Zn399 O405 1.920 1_545 S
Zn399 O411 1.898 . S
Zn399 O414 1.905 . S
Zn400 O408 1.905 . S
Zn400 O409 1.898 . S
Zn400 O417 1.920 . S
Zn401 O404 2.080 . S
Zn401 O407 2.114 . S
Zn401 O410 2.120 . S
Zn401 O412 2.120 . S
Zn401 O413 2.114 . S
Zn401 O416 2.080 . S
C402 O407 1.166 . S
C402 O408 1.182 . S
C403 O409 1.167 . S
C403 O410 1.299 . S
O404 Zn401 2.080 . S
O404 C418 1.295 1_545 S
O405 Zn399 1.920 1_565 S
O405 C418 1.239 . S
C406 O411 1.167 . S
C406 O412 1.299 . S
O407 Zn401 2.114 . S
O407 C402 1.166 . S
O408 Zn400 1.905 . S
O408 C402 1.182 . S
O409 Zn400 1.898 . S
O409 C403 1.167 . S
O410 Zn401 2.120 . S
O410 C403 1.299 . S
O411 Zn399 1.898 . S
O411 C406 1.167 . S
O412 Zn401 2.120 . S
O412 C406 1.299 . S
O413 Zn401 2.114 . S
O413 C415 1.166 . S
O414 Zn399 1.905 . S
O414 C415 1.182 . S
C415 O413 1.166 . S
C415 O414 1.182 . S
O416 Zn401 2.080 . S
O416 C419 1.305 . S
O417 Zn400 1.920 . S
O417 C419 1.234 . S
C418 O404 1.295 1_565 S
C418 O405 1.239 . S
C419 O416 1.305 . S
C419 O417 1.234 . S
Zn420 O426 1.920 . S
Zn420 O432 1.898 . S
Zn420 O435 1.905 . S
Zn421 O429 1.905 . S
Zn421 O430 1.898 . S
Zn421 O438 1.920 . S
Zn422 O425 2.080 . S
Zn422 O428 2.114 . S
Zn422 O431 2.120 . S
Zn422 O433 2.120 . S
Zn422 O434 2.114 . S
Zn422 O437 2.080 . S
C423 O428 1.166 . S
C423 O429 1.182 . S
C424 O430 1.167 . S
C424 O431 1.299 . S
O425 Zn422 2.080 . S
O425 C439 1.305 . S
O426 Zn420 1.920 . S
O426 C439 1.234 . S
C427 O432 1.167 . S
C427 O433 1.299 . S
O428 Zn422 2.114 . S
O428 C423 1.166 . S
O429 Zn421 1.905 . S
O429 C423 1.182 . S
O430 Zn421 1.898 . S
O430 C424 1.167 . S
O431 Zn422 2.120 . S
O431 C424 1.299 . S
O432 Zn420 1.898 . S
O432 C427 1.167 . S
O433 Zn422 2.120 . S
O433 C427 1.299 . S
O434 Zn422 2.114 . S
O434 C436 1.166 . S
O435 Zn420 1.905 . S
O435 C436 1.182 . S
C436 O434 1.166 . S
C436 O435 1.182 . S
O437 Zn422 2.080 . S
O437 C440 1.305 . S
O438 Zn421 1.920 . S
O438 C440 1.234 . S
C439 O425 1.305 . S
C439 O426 1.234 . S
C440 O437 1.305 . S
C440 O438 1.234 . S
Zn441 O447 1.920 1_655 S
Zn441 O453 1.898 . S
Zn441 O456 1.905 . S
Zn442 O450 1.905 . S
Zn442 O451 1.898 . S
Zn442 O459 1.920 . S
Zn443 O446 2.080 . S
Zn443 O449 2.114 . S
Zn443 O452 2.120 . S
Zn443 O454 2.120 . S
Zn443 O455 2.114 . S
Zn443 O458 2.080 . S
C444 O449 1.166 . S
C444 O450 1.182 . S
C445 O451 1.167 . S
C445 O452 1.299 . S
O446 Zn443 2.080 . S
O446 C460 1.300 1_655 S
O447 Zn441 1.920 1_455 S
O447 C460 1.235 . S
C448 O453 1.167 . S
C448 O454 1.299 . S
O449 Zn443 2.114 . S
O449 C444 1.166 . S
O450 Zn442 1.905 . S
O450 C444 1.182 . S
O451 Zn442 1.898 . S
O451 C445 1.167 . S
O452 Zn443 2.120 . S
O452 C445 1.299 . S
O453 Zn441 1.898 . S
O453 C448 1.167 . S
O454 Zn443 2.120 . S
O454 C448 1.299 . S
O455 Zn443 2.114 . S
O455 C457 1.166 . S
O456 Zn441 1.905 . S
O456 C457 1.182 . S
C457 O455 1.166 . S
C457 O456 1.182 . S
O458 Zn443 2.080 . S
O458 C461 1.305 . S
O459 Zn442 1.920 . S
O459 C461 1.234 . S
C460 O446 1.300 1_455 S
C460 O447 1.235 . S
C461 O458 1.305 . S
C461 O459 1.234 . S
Zn462 O468 1.920 . S
Zn462 O474 1.898 . S
Zn462 O477 1.905 . S
Zn463 O471 1.905 . S
Zn463 O472 1.898 . S
Zn463 O480 1.920 1_565 S
Zn464 O467 2.080 . S
Zn464 O470 2.114 . S
Zn464 O473 2.120 . S
Zn464 O475 2.120 . S
Zn464 O476 2.114 . S
Zn464 O479 2.080 . S
C465 O470 1.166 . S
C465 O471 1.182 . S
C466 O472 1.167 . S
C466 O473 1.299 . S
O467 Zn464 2.080 . S
O467 C481 1.305 . S
O468 Zn462 1.920 . S
O468 C481 1.234 . S
C469 O474 1.167 . S
C469 O475 1.299 . S
O470 Zn464 2.114 . S
O470 C465 1.166 . S
O471 Zn463 1.905 . S
O471 C465 1.182 . S
O472 Zn463 1.898 . S
O472 C466 1.167 . S
O473 Zn464 2.120 . S
O473 C466 1.299 . S
O474 Zn462 1.898 . S
O474 C469 1.167 . S
O475 Zn464 2.120 . S
O475 C469 1.299 . S
O476 Zn464 2.114 . S
O476 C478 1.166 . S
O477 Zn462 1.905 . S
O477 C478 1.182 . S
C478 O476 1.166 . S
C478 O477 1.182 . S
O479 Zn464 2.080 . S
O479 C482 1.295 1_565 S
O480 Zn463 1.920 1_545 S
O480 C482 1.239 . S
C481 O467 1.305 . S
C481 O468 1.234 . S
C482 O479 1.295 1_545 S
C482 O480 1.239 . S
Zn483 O489 1.920 . S
Zn483 O495 1.898 . S
Zn483 O498 1.905 . S
Zn484 O492 1.905 . S
Zn484 O493 1.898 . S
Zn484 O501 1.920 . S
Zn485 O488 2.080 . S
Zn485 O491 2.114 . S
Zn485 O494 2.120 . S
Zn485 O496 2.120 . S
Zn485 O497 2.114 . S
Zn485 O500 2.080 . S
C486 O491 1.166 . S
C486 O492 1.182 . S
C487 O493 1.167 . S
C487 O494 1.299 . S
O488 Zn485 2.080 . S
O488 C502 1.305 . S
O489 Zn483 1.920 . S
O489 C502 1.234 . S
C490 O495 1.167 . S
C490 O496 1.299 . S
O491 Zn485 2.114 . S
O491 C486 1.166 . S
O492 Zn484 1.905 . S
O492 C486 1.182 . S
O493 Zn484 1.898 . S
O493 C487 1.167 . S
O494 Zn485 2.120 . S
O494 C487 1.299 . S
O495 Zn483 1.898 . S
O495 C490 1.167 . S
O496 Zn485 2.120 . S
O496 C490 1.299 . S
O497 Zn485 2.114 . S
O497 C499 1.166 . S
O498 Zn483 1.905 . S
O498 C499 1.182 . S
C499 O497 1.166 . S
C499 O498 1.182 . S
O500 Zn485 2.080 . S
O500 C503 1.305 . S
O501 Zn484 1.920 . S
O501 C503 1.234 . S
C502 O488 1.305 . S
C502 O489 1.234 . S
C503 O500 1.305 . S
C503 O501 1.234 . S
C172 C7 2.694 . S
C28 C196 2.694 . S
C46 C214 2.694 . S
C70 C238 2.694 . S
C88 C130 2.694 . S
C154 C112 2.694 . S
C424 C256 2.418 . S
C448 C277 2.418 . S
C466 C298 2.418 . S
C322 C487 2.418 . S
C382 C340 2.418 . S
C406 C364 2.418 . S
C20 C83 1.238 1_545 S
C103 C41 1.237 . S
C61 C125 1.237 1_655 S
C145 C209 1.238 1_655 S
C167 C229 1.237 1_565 S
C187 C251 1.238 . S
C334 C272 3.820 1_565 S
C293 C356 3.811 . S
C376 C314 3.801 1_455 S
C398 C460 3.820 1_655 S
C418 C482 3.801 1_565 S
C503 C440 3.811 . S
C3 C226 0.797 . S
C234 C24 0.797 . S
C58 C142 0.797 . S
C66 C150 0.797 . S
C184 C100 0.797 . S
C192 C108 0.797 . S
C255 C465 1.192 . S
C276 C486 1.192 . S
C297 C381 1.192 . S
C331 C415 1.192 . S
C423 C339 1.192 . S
C457 C373 1.192 . S
C16 C91 0.425 . S
C109 C37 0.425 . S
C45 C4 0.425 . S
C25 C79 0.425 . S
C49 C87 0.425 . S
C67 C121 0.425 . S
C129 C175 0.425 . S
C193 C163 0.425 . S
C171 C217 0.425 . S
C205 C235 0.425 . S
C133 C213 0.425 . S
C247 C151 0.425 . S
C268 C343 0.909 . S
C361 C289 0.909 . S
C259 C310 0.909 . S
C318 C280 0.909 . S
C301 C352 0.909 . S
C360 C319 0.909 . S
C394 C427 0.909 . S
C445 C402 0.909 . S
C469 C436 0.909 . S
C444 C490 0.909 . S
C385 C478 0.909 . S
C499 C403 0.909 . S
C335 C19 1.781 1_556 S
C355 C40 1.781 1_556 S
C62 C377 1.781 1_554 S
C271 C82 1.781 1_556 S
C292 C104 1.781 1_556 S
C124 C313 1.781 1_554 S
C461 C146 1.781 . S
C481 C166 1.781 . S
C188 C502 1.781 . S
C397 C208 1.781 . S
C230 C419 1.781 . S
C439 C250 1.781 . S
