# Generated by pormake.
# Topology wmv, (6)-cn, num edge types: 1
# Building blocks:
#     Node 0, Type 0, BuildingBlock: OJICUG_clean_sbu_0, # of connection points: 6
#     Node 1, Type 0, BuildingBlock: OJICUG_clean_sbu_0, # of connection points: 6
#     Node 2, Type 0, BuildingBlock: OJICUG_clean_sbu_0, # of connection points: 6
#     Node 3, Type 0, BuildingBlock: OJICUG_clean_sbu_0, # of connection points: 6
#     Node 4, Type 0, BuildingBlock: OJICUG_clean_sbu_0, # of connection points: 6
#     Node 5, Type 0, BuildingBlock: OJICUG_clean_sbu_0, # of connection points: 6
#     Node 6, Type 0, BuildingBlock: OJICUG_clean_sbu_0, # of connection points: 6
#     Node 7, Type 0, BuildingBlock: OJICUG_clean_sbu_0, # of connection points: 6
#     Node 8, Type 0, BuildingBlock: OJICUG_clean_sbu_0, # of connection points: 6
#     Node 9, Type 0, BuildingBlock: OJICUG_clean_sbu_0, # of connection points: 6
#     Node 10, Type 0, BuildingBlock: OJICUG_clean_sbu_0, # of connection points: 6
#     Node 11, Type 0, BuildingBlock: OJICUG_clean_sbu_0, # of connection points: 6
#     Node 12, Type 0, BuildingBlock: OJICUG_clean_sbu_0, # of connection points: 6
#     Node 13, Type 0, BuildingBlock: OJICUG_clean_sbu_0, # of connection points: 6
#     Node 14, Type 0, BuildingBlock: OJICUG_clean_sbu_0, # of connection points: 6
#     Node 15, Type 0, BuildingBlock: OJICUG_clean_sbu_0, # of connection points: 6
#     Node 16, Type 0, BuildingBlock: OJICUG_clean_sbu_0, # of connection points: 6
#     Node 17, Type 0, BuildingBlock: OJICUG_clean_sbu_0, # of connection points: 6
#     Node 18, Type 0, BuildingBlock: OJICUG_clean_sbu_0, # of connection points: 6
#     Node 19, Type 0, BuildingBlock: OJICUG_clean_sbu_0, # of connection points: 6
#     Node 20, Type 0, BuildingBlock: OJICUG_clean_sbu_0, # of connection points: 6
#     Node 21, Type 0, BuildingBlock: OJICUG_clean_sbu_0, # of connection points: 6
#     Node 22, Type 0, BuildingBlock: OJICUG_clean_sbu_0, # of connection points: 6
#     Node 23, Type 0, BuildingBlock: OJICUG_clean_sbu_0, # of connection points: 6
#     Node 24, Type 0, BuildingBlock: OJICUG_clean_sbu_0, # of connection points: 6
#     Node 25, Type 0, BuildingBlock: OJICUG_clean_sbu_0, # of connection points: 6
#     Node 26, Type 0, BuildingBlock: OJICUG_clean_sbu_0, # of connection points: 6
#     Node 27, Type 0, BuildingBlock: OJICUG_clean_sbu_0, # of connection points: 6
#     Node 28, Type 0, BuildingBlock: OJICUG_clean_sbu_0, # of connection points: 6
#     Node 29, Type 0, BuildingBlock: OJICUG_clean_sbu_0, # of connection points: 6
#     Node 30, Type 0, BuildingBlock: OJICUG_clean_sbu_0, # of connection points: 6
#     Node 31, Type 0, BuildingBlock: OJICUG_clean_sbu_0, # of connection points: 6
#     Node 32, Type 0, BuildingBlock: OJICUG_clean_sbu_0, # of connection points: 6
#     Node 33, Type 0, BuildingBlock: OJICUG_clean_sbu_0, # of connection points: 6
#     Node 34, Type 0, BuildingBlock: OJICUG_clean_sbu_0, # of connection points: 6
#     Node 35, Type 0, BuildingBlock: OJICUG_clean_sbu_0, # of connection points: 6
#     Edge 36, Type (0, 0), None
#     Edge 37, Type (0, 0), None
#     Edge 38, Type (0, 0), None
#     Edge 39, Type (0, 0), None
#     Edge 40, Type (0, 0), None
#     Edge 41, Type (0, 0), None
#     Edge 42, Type (0, 0), None
#     Edge 43, Type (0, 0), None
#     Edge 44, Type (0, 0), None
#     Edge 45, Type (0, 0), None
#     Edge 46, Type (0, 0), None
#     Edge 47, Type (0, 0), None
#     Edge 48, Type (0, 0), None
#     Edge 49, Type (0, 0), None
#     Edge 50, Type (0, 0), None
#     Edge 51, Type (0, 0), None
#     Edge 52, Type (0, 0), None
#     Edge 53, Type (0, 0), None
#     Edge 54, Type (0, 0), None
#     Edge 55, Type (0, 0), None
#     Edge 56, Type (0, 0), None
#     Edge 57, Type (0, 0), None
#     Edge 58, Type (0, 0), None
#     Edge 59, Type (0, 0), None
#     Edge 60, Type (0, 0), None
#     Edge 61, Type (0, 0), None
#     Edge 62, Type (0, 0), None
#     Edge 63, Type (0, 0), None
#     Edge 64, Type (0, 0), None
#     Edge 65, Type (0, 0), None
#     Edge 66, Type (0, 0), None
#     Edge 67, Type (0, 0), None
#     Edge 68, Type (0, 0), None
#     Edge 69, Type (0, 0), None
#     Edge 70, Type (0, 0), None
#     Edge 71, Type (0, 0), None
#     Edge 72, Type (0, 0), None
#     Edge 73, Type (0, 0), None
#     Edge 74, Type (0, 0), None
#     Edge 75, Type (0, 0), None
#     Edge 76, Type (0, 0), None
#     Edge 77, Type (0, 0), None
#     Edge 78, Type (0, 0), None
#     Edge 79, Type (0, 0), None
#     Edge 80, Type (0, 0), None
#     Edge 81, Type (0, 0), None
#     Edge 82, Type (0, 0), None
#     Edge 83, Type (0, 0), None
#     Edge 84, Type (0, 0), None
#     Edge 85, Type (0, 0), None
#     Edge 86, Type (0, 0), None
#     Edge 87, Type (0, 0), None
#     Edge 88, Type (0, 0), None
#     Edge 89, Type (0, 0), None
#     Edge 90, Type (0, 0), None
#     Edge 91, Type (0, 0), None
#     Edge 92, Type (0, 0), None
#     Edge 93, Type (0, 0), None
#     Edge 94, Type (0, 0), None
#     Edge 95, Type (0, 0), None
#     Edge 96, Type (0, 0), None
#     Edge 97, Type (0, 0), None
#     Edge 98, Type (0, 0), None
#     Edge 99, Type (0, 0), None
#     Edge 100, Type (0, 0), None
#     Edge 101, Type (0, 0), None
#     Edge 102, Type (0, 0), None
#     Edge 103, Type (0, 0), None
#     Edge 104, Type (0, 0), None
#     Edge 105, Type (0, 0), None
#     Edge 106, Type (0, 0), None
#     Edge 107, Type (0, 0), None
#     Edge 108, Type (0, 0), None
#     Edge 109, Type (0, 0), None
#     Edge 110, Type (0, 0), None
#     Edge 111, Type (0, 0), None
#     Edge 112, Type (0, 0), None
#     Edge 113, Type (0, 0), None
#     Edge 114, Type (0, 0), None
#     Edge 115, Type (0, 0), None
#     Edge 116, Type (0, 0), None
#     Edge 117, Type (0, 0), None
#     Edge 118, Type (0, 0), None
#     Edge 119, Type (0, 0), None
#     Edge 120, Type (0, 0), None
#     Edge 121, Type (0, 0), None
#     Edge 122, Type (0, 0), None
#     Edge 123, Type (0, 0), None
#     Edge 124, Type (0, 0), None
#     Edge 125, Type (0, 0), None
#     Edge 126, Type (0, 0), None
#     Edge 127, Type (0, 0), None
#     Edge 128, Type (0, 0), None
#     Edge 129, Type (0, 0), None
#     Edge 130, Type (0, 0), None
#     Edge 131, Type (0, 0), None
#     Edge 132, Type (0, 0), None
#     Edge 133, Type (0, 0), None
#     Edge 134, Type (0, 0), None
#     Edge 135, Type (0, 0), None
#     Edge 136, Type (0, 0), None
#     Edge 137, Type (0, 0), None
#     Edge 138, Type (0, 0), None
#     Edge 139, Type (0, 0), None
#     Edge 140, Type (0, 0), None
#     Edge 141, Type (0, 0), None
#     Edge 142, Type (0, 0), None
#     Edge 143, Type (0, 0), None
# Relax obj value: 0.269
# Max RMSD: 0.285
# Mean RMSD: 0.285
data_MOF--net-wmv--node1-OJICUG_clean_sbu_0--edge1-none
_symmetry_space_group_name_H-M    P1
_symmetry_Int_Tables_number       1
_symmetry_cell_setting            triclinic
loop_
_symmetry_equiv_pos_as_xyz
'x, y, z'
_cell_length_a     40.900149
_cell_length_b     40.900097
_cell_length_c     14.328517
_cell_angle_alpha  89.997194
_cell_angle_beta   90.005588
_cell_angle_gamma 119.99989
loop_
_atom_site_label
_atom_site_type_symbol
_atom_site_fract_x
_atom_site_fract_y
_atom_site_fract_z
_atom_type_partial_charge
Sc0 Sc 0.1024 0.22864 0.06261 0.0
Sc1 Sc 0.01234 0.21286 0.03657 0.0
Sc2 Sc 0.02955 0.14972 0.1607 0.0
O3 O 0.0476 0.1968 0.08644 0.0
C4 C 0.09285 0.14653 0.05861 0.0
C5 C 0.06666 0.22206 0.8691 0.0
C6 C 0.96297 0.1267 1.01116 0.0
C7 C 0.07935 0.29052 0.08769 0.0
C8 C 0.10091 0.21223 0.27044 0.0
C9 C -0.01977 0.18108 0.2409 0.0
O10 O 0.11242 0.18194 0.0719 0.0
O11 O 0.04333 0.23084 0.90431 0.0
O12 O -0.02413 0.11877 0.08367 0.0
O13 O 0.10064 0.27999 0.05022 0.0
O14 O 0.07915 0.17732 0.25092 0.0
O15 O -0.02345 0.19295 0.16126 0.0
O16 O 0.11159 0.23829 0.2098 0.0
O17 O 0.04427 0.26819 0.09962 0.0
O18 O 0.0036 0.16989 0.25592 0.0
O19 O 0.08978 0.21699 0.91787 0.0
O20 O 0.05717 0.1284 0.06912 0.0
O21 O -0.02009 0.15897 0.97283 0.0
Sc22 Sc 0.71215 0.86192 0.0626 0.0
Sc23 Sc 0.72792 0.78763 0.03657 0.0
Sc24 Sc 0.79107 0.86798 0.16069 0.0
O25 O 0.74398 0.83895 0.08643 0.0
C26 C 0.79426 0.93447 0.05859 0.0
C27 C 0.71873 0.83276 0.86909 0.0
C28 C 0.81408 0.82441 1.01115 0.0
C29 C 0.65027 0.77699 0.0877 0.0
C30 C 0.72857 0.87684 0.27042 0.0
C31 C 0.7597 0.78729 0.24089 0.0
O32 O 0.75886 0.91864 0.07187 0.0
O33 O 0.70993 0.80064 0.90431 0.0
O34 O 0.82201 0.84524 0.08366 0.0
O35 O 0.6608 0.80881 0.05023 0.0
O36 O 0.76347 0.88997 0.25091 0.0
O37 O 0.74783 0.77174 0.16126 0.0
O38 O 0.7025 0.86146 0.20979 0.0
O39 O 0.6726 0.76424 0.09962 0.0
O40 O 0.7709 0.82186 0.25591 0.0
O41 O 0.72379 0.86094 0.91785 0.0
O42 O 0.8124 0.91693 0.06911 0.0
O43 O 0.78181 0.80909 0.97282 0.0
Sc44 Sc 0.07887 0.8384 0.06262 0.0
Sc45 Sc 0.15316 0.92846 0.0366 0.0
Sc46 Sc 0.07282 0.91126 0.16069 0.0
O47 O 0.10185 0.8932 0.08645 0.0
C48 C 0.00632 0.84796 0.0586 0.0
C49 C 0.10804 0.87413 0.86911 0.0
C50 C 0.11638 -0.02216 1.01117 0.0
C51 C 0.16381 0.86145 0.08771 0.0
C52 C 0.06395 0.83989 0.27044 0.0
C53 C 0.15351 0.96057 0.24092 0.0
O54 O 0.02216 0.82839 0.07188 0.0
O55 O 0.14016 0.89746 0.90434 0.0
O56 O 0.09556 0.96494 0.08368 0.0
O57 O 0.13199 0.84015 0.05027 0.0
O58 O 0.05082 0.86166 0.25092 0.0
O59 O 0.16905 0.96425 0.16129 0.0
O60 O 0.07934 0.82921 0.20982 0.0
O61 O 0.17656 0.89652 0.09965 0.0
O62 O 0.11894 0.9372 0.25593 0.0
O63 O 0.07986 0.85102 0.91787 0.0
O64 O 0.02387 0.88364 0.0691 0.0
O65 O 0.1317 0.96089 0.97284 0.0
Sc66 Sc 0.21681 0.11426 0.48412 0.0
Sc67 Sc 0.20102 0.02419 0.51016 0.0
Sc68 Sc 0.13788 0.0414 0.38603 0.0
O69 O 0.18497 0.05946 0.4603 0.0
C70 C 0.13469 0.1047 0.48816 0.0
C71 C 0.21023 0.07852 0.67764 0.0
C72 C 0.11487 0.97482 0.53553 0.0
C73 C 0.27868 0.09119 0.45903 0.0
C74 C 0.20038 0.11276 0.2763 0.0
C75 C 0.1693 -0.00786 0.30579 0.0
O76 O 0.17009 0.12427 0.47487 0.0
O77 O 0.21901 0.05518 0.64243 0.0
O78 O 0.10694 -0.01229 0.46301 0.0
O79 O 0.26816 0.1125 0.49647 0.0
O80 O 0.16548 0.09101 0.29583 0.0
O81 O 0.18111 -0.0116 0.38546 0.0
O82 O 0.22645 0.12345 0.33693 0.0
O83 O 0.25635 0.05612 0.44713 0.0
O84 O 0.15807 0.01548 0.29079 0.0
O85 O 0.20517 0.10164 0.62887 0.0
O86 O 0.11656 0.06902 0.47763 0.0
O87 O 0.14713 -0.00823 0.57389 0.0
Sc88 Sc 0.82654 0.0907 0.4841 0.0
Sc89 Sc 0.91661 0.16498 0.51013 0.0
Sc90 Sc 0.8994 0.08463 0.38602 0.0
O91 O 0.88135 0.11367 0.46028 0.0
C92 C 0.83611 0.01815 0.48816 0.0
C93 C 0.86228 0.11987 0.67761 0.0
C94 C -0.03401 0.12821 0.53552 0.0
C95 C 0.84961 0.17565 0.45902 0.0
C96 C 0.82803 0.07577 0.27628 0.0
C97 C 0.94866 0.16532 0.30577 0.0
O98 O 0.81654 0.03398 0.47486 0.0
O99 O 0.88562 0.15198 0.6424 0.0
O100 O 0.95309 0.10738 0.463 0.0
O101 O 0.82831 0.14382 0.49644 0.0
O102 O 0.84979 0.06262 0.29582 0.0
O103 O 0.9524 0.18087 0.38542 0.0
O104 O 0.81736 0.09116 0.3369 0.0
O105 O 0.88468 0.18839 0.4471 0.0
O106 O 0.92531 0.13074 0.29077 0.0
O107 O 0.83917 0.09169 0.62885 0.0
O108 O 0.87179 0.0357 0.47763 0.0
O109 O 0.94903 0.14351 0.57388 0.0
Sc110 Sc 0.85009 0.72399 0.48411 0.0
Sc111 Sc 0.77581 0.73977 0.51013 0.0
Sc112 Sc 0.85615 0.80291 0.38603 0.0
O113 O 0.82712 0.75583 0.46029 0.0
C114 C 0.92264 0.80611 0.48818 0.0
C115 C 0.82092 0.73056 0.67762 0.0
C116 C 0.81258 0.82592 0.53553 0.0
C117 C 0.76515 0.66211 0.45901 0.0
C118 C 0.86502 0.74042 0.2763 0.0
C119 C 0.77546 0.77149 0.30577 0.0
O120 O 0.90681 0.77071 0.47489 0.0
O121 O 0.78881 0.72178 0.6424 0.0
O122 O 0.8334 0.83385 0.46301 0.0
O123 O 0.79698 0.67264 0.49643 0.0
O124 O 0.87817 0.77532 0.29584 0.0
O125 O 0.75992 0.75968 0.38543 0.0
O126 O 0.84964 0.71435 0.33692 0.0
O127 O 0.7524 0.68444 0.4471 0.0
O128 O 0.81004 0.78272 0.29078 0.0
O129 O 0.8491 0.73562 0.62886 0.0
O130 O 0.90509 0.82425 0.47764 0.0
O131 O 0.79727 0.79366 0.57388 0.0
Sc132 Sc 0.89942 0.80294 0.88609 0.0
Sc133 Sc 0.91663 0.73978 1.01017 0.0
Sc134 Sc 0.82656 0.724 0.98409 0.0
O135 O 0.88137 0.75584 0.96031 0.0
C136 C 0.8361 0.8061 0.98817 0.0
C137 C -0.03403 0.82595 0.03569 0.0
C138 C 0.86228 0.73054 0.17763 0.0
C139 C 0.94874 0.77156 0.80584 0.0
C140 C 0.82805 0.74044 0.77629 0.0
C141 C 0.84962 0.66212 0.95903 0.0
O142 O 0.87178 0.82424 0.97769 0.0
O143 O 0.94907 0.79367 0.07393 0.0
O144 O 0.83918 0.73563 0.12885 0.0
O145 O 0.92539 0.78279 0.79086 0.0
O146 O 0.81739 0.71436 0.83689 0.0
O147 O 0.88469 0.68445 0.94711 0.0
O148 O 0.84983 0.77534 0.79582 0.0
O149 O 0.95241 0.75968 0.88547 0.0
O150 O 0.82833 0.67265 0.99648 0.0
O151 O 0.95309 0.83388 0.96314 0.0
O152 O 0.81654 0.7707 0.97481 0.0
O153 O 0.88564 0.72179 0.14243 0.0
Sc154 Sc 0.13787 0.08466 0.8861 0.0
Sc155 Sc 0.20103 0.16501 1.01017 0.0
Sc156 Sc 0.2168 0.09073 0.98411 0.0
O157 O 0.18497 0.1137 0.96032 0.0
C158 C 0.1347 0.01817 0.98819 0.0
C159 C 0.11486 0.12819 0.0357 0.0
C160 C 0.21027 0.1199 0.17764 0.0
C161 C 0.16925 0.16535 0.80585 0.0
C162 C 0.20036 0.07578 0.77631 0.0
C163 C 0.27868 0.17566 0.95901 0.0
O164 O 0.11656 0.03571 0.97771 0.0
O165 O 0.14715 0.14357 0.07394 0.0
O166 O 0.20518 0.09171 0.12886 0.0
O167 O 0.15802 0.13077 0.79087 0.0
O168 O 0.22644 0.09118 0.83691 0.0
O169 O 0.25636 0.18841 0.94711 0.0
O170 O 0.16546 0.06266 0.79583 0.0
O171 O 0.18113 0.18091 0.88547 0.0
O172 O 0.26816 0.14384 0.99648 0.0
O173 O 0.10693 0.10739 0.96315 0.0
O174 O 0.1701 0.03401 0.97485 0.0
O175 O 0.21902 0.15201 0.14243 0.0
Sc176 Sc 0.85614 0.04136 0.88609 0.0
Sc177 Sc 0.77579 0.02417 1.01014 0.0
Sc178 Sc 0.85007 0.11423 0.98408 0.0
O179 O 0.8271 0.05942 0.9603 0.0
C180 C 0.92263 0.10468 0.98819 0.0
C181 C 0.81261 0.97482 0.03568 0.0
C182 C 0.8209 0.07852 0.17761 0.0
C183 C 0.77545 -0.00794 0.80582 0.0
C184 C 0.86503 0.11274 0.77629 0.0
C185 C 0.76514 0.09118 0.959 0.0
O186 O 0.90509 0.069 0.97771 0.0
O187 O 0.79723 -0.00827 0.07392 0.0
O188 O 0.84909 0.10162 0.12884 0.0
O189 O 0.81003 0.0154 0.79085 0.0
O190 O 0.84962 0.12341 0.83688 0.0
O191 O 0.75239 0.05611 0.94708 0.0
O192 O 0.87814 0.09095 0.79583 0.0
O193 O 0.7599 -0.01162 0.88544 0.0
O194 O 0.79697 0.11247 0.99644 0.0
O195 O 0.83341 -0.0123 0.96314 0.0
O196 O 0.90679 0.12425 0.97484 0.0
O197 O 0.78879 0.05516 0.1424 0.0
Sc198 Sc 0.79109 0.91125 0.66064 0.0
Sc199 Sc 0.72794 0.92845 0.53655 0.0
Sc200 Sc 0.71215 0.83839 0.56262 0.0
O201 O 0.74399 0.89319 0.58641 0.0
C202 C 0.79426 0.84794 0.5585 0.0
C203 C 0.81411 -0.0222 0.51106 0.0
C204 C 0.71868 0.87409 0.36908 0.0
C205 C 0.75966 0.96051 0.74092 0.0
C206 C 0.7286 0.83988 0.77042 0.0
C207 C 0.65028 0.86145 0.5877 0.0
O208 O 0.8124 0.88362 0.56901 0.0
O209 O 0.78183 0.96089 0.47279 0.0
O210 O 0.72377 0.851 0.41786 0.0
O211 O 0.77093 0.93719 0.75588 0.0
O212 O 0.70252 0.82921 0.70982 0.0
O213 O 0.67261 0.89653 0.59959 0.0
O214 O 0.7635 0.86165 0.75088 0.0
O215 O 0.74784 0.96424 0.66126 0.0
O216 O 0.6608 0.84015 0.55027 0.0
O217 O 0.82203 0.96492 0.58363 0.0
O218 O 0.75886 0.82837 0.57187 0.0
O219 O 0.70995 0.89747 0.40428 0.0
Sc220 Sc 0.02955 0.86801 0.66064 0.0
Sc221 Sc 0.01234 0.78764 0.53658 0.0
Sc222 Sc 0.1024 0.86193 0.56265 0.0
O223 O 0.0476 0.83896 0.58643 0.0
C224 C 0.09285 0.93448 0.5585 0.0
C225 C 0.96299 0.82447 0.51108 0.0
C226 C 0.0667 0.83275 0.36911 0.0
C227 C -0.01971 0.78731 0.74094 0.0
C228 C 0.10092 0.87689 0.77044 0.0
C229 C 0.07934 0.77699 0.58772 0.0
O230 O 0.05717 0.91694 0.569 0.0
O231 O -0.0201 0.8091 0.47281 0.0
O232 O 0.08979 0.86093 0.41789 0.0
O233 O 0.00361 0.8219 0.7559 0.0
O234 O 0.11158 0.86147 0.70985 0.0
O235 O 0.04427 0.76424 0.59961 0.0
O236 O 0.07915 0.89002 0.75088 0.0
O237 O -0.02345 0.77176 0.66129 0.0
O238 O 0.10064 0.80882 0.5503 0.0
O239 O -0.02413 0.84526 0.58364 0.0
O240 O 0.11242 0.91865 0.57188 0.0
O241 O 0.04332 0.80065 0.40431 0.0
Sc242 Sc 0.0728 0.14971 0.66064 0.0
Sc243 Sc 0.15316 0.21287 0.53658 0.0
Sc244 Sc 0.07888 0.22864 0.56263 0.0
O245 O 0.10184 0.19681 0.58642 0.0
C246 C 0.00633 0.14653 0.55848 0.0
C247 C 0.11635 0.1267 0.51107 0.0
C248 C 0.10805 0.22212 0.3691 0.0
C249 C 0.1535 0.18115 0.74094 0.0
C250 C 0.06391 0.21219 0.77042 0.0
C251 C 0.16381 0.29052 0.58773 0.0
O252 O 0.02387 0.1284 0.56899 0.0
O253 O 0.13171 0.15898 0.47281 0.0
O254 O 0.07987 0.21703 0.41787 0.0
O255 O 0.11891 0.16988 0.75589 0.0
O256 O 0.07933 0.23827 0.70983 0.0
O257 O 0.17656 0.2682 0.59962 0.0
O258 O 0.05079 0.17729 0.75087 0.0
O259 O 0.16905 0.19296 0.66129 0.0
O260 O 0.13198 0.28 0.55031 0.0
O261 O 0.09555 0.11878 0.58363 0.0
O262 O 0.02216 0.18193 0.57184 0.0
O263 O 0.14016 0.23085 0.40431 0.0
Sc264 Sc 0.76907 0.56197 0.39595 0.0
Sc265 Sc 0.67901 0.54619 0.36991 0.0
Sc266 Sc 0.69621 0.48305 0.49403 0.0
O267 O 0.71427 0.53014 0.41977 0.0
C268 C 0.75952 0.47986 0.39195 0.0
C269 C 0.73333 0.55539 0.20243 0.0
C270 C 0.62963 0.46003 0.3445 0.0
C271 C 0.74601 0.62385 0.42098 0.0
C272 C 0.76758 0.54556 0.60377 0.0
C273 C 0.64689 0.51442 0.57423 0.0
O274 O 0.77909 0.51527 0.40524 0.0
O275 O 0.71 0.56418 0.23764 0.0
O276 O 0.64253 0.4521 0.417 0.0
O277 O 0.76731 0.61332 0.38356 0.0
O278 O 0.74581 0.51066 0.58426 0.0
O279 O 0.64322 0.52629 0.4946 0.0
O280 O 0.77826 0.57163 0.54314 0.0
O281 O 0.71095 0.60153 0.43294 0.0
O282 O 0.67027 0.50322 0.58925 0.0
O283 O 0.75644 0.55032 0.2512 0.0
O284 O 0.72384 0.46173 0.40245 0.0
O285 O 0.64658 0.4923 0.30617 0.0
Sc286 Sc 0.37882 0.19526 0.39593 0.0
Sc287 Sc 0.39459 0.12097 0.36991 0.0
Sc288 Sc 0.45774 0.20131 0.49402 0.0
O289 O 0.41065 0.17228 0.41976 0.0
C290 C 0.46093 0.26781 0.39193 0.0
C291 C 0.38539 0.16609 0.20242 0.0
C292 C 0.48075 0.15774 0.34449 0.0
C293 C 0.31694 0.11032 0.421 0.0
C294 C 0.39524 0.21018 0.60376 0.0
C295 C 0.42637 0.12062 0.57423 0.0
O296 O 0.42553 0.25197 0.4052 0.0
O297 O 0.3766 0.13397 0.23764 0.0
O298 O 0.48868 0.17857 0.41699 0.0
O299 O 0.32746 0.14215 0.38356 0.0
O300 O 0.43014 0.22331 0.58424 0.0
O301 O 0.41449 0.10507 0.4946 0.0
O302 O 0.36917 0.1948 0.54312 0.0
O303 O 0.33926 0.09757 0.43295 0.0
O304 O 0.43757 0.15519 0.58924 0.0
O305 O 0.39046 0.19427 0.25118 0.0
O306 O 0.47906 0.25026 0.40244 0.0
O307 O 0.44848 0.14242 0.30616 0.0
Sc308 Sc 0.74554 0.17173 0.39596 0.0
Sc309 Sc 0.81983 0.26179 0.36994 0.0
Sc310 Sc 0.73948 0.24459 0.49403 0.0
O311 O 0.76851 0.22653 0.41978 0.0
C312 C 0.67299 0.18129 0.39193 0.0
C313 C 0.7747 0.20747 0.20245 0.0
C314 C 0.78305 0.31117 0.34451 0.0
C315 C 0.83048 0.19478 0.42101 0.0
C316 C 0.73062 0.17323 0.60378 0.0
C317 C 0.82017 0.29391 0.57426 0.0
O318 O 0.68882 0.16172 0.40521 0.0
O319 O 0.80682 0.2308 0.23767 0.0
O320 O 0.76222 0.29827 0.41701 0.0
O321 O 0.79865 0.17348 0.3836 0.0
O322 O 0.71748 0.19499 0.58425 0.0
O323 O 0.83572 0.29758 0.49463 0.0
O324 O 0.746 0.16254 0.54315 0.0
O325 O 0.84322 0.22985 0.43298 0.0
O326 O 0.7856 0.27053 0.58926 0.0
O327 O 0.74652 0.18435 0.25121 0.0
O328 O 0.69053 0.21697 0.40244 0.0
O329 O 0.79837 0.29422 0.30618 0.0
Sc330 Sc 0.88347 0.44759 0.81745 0.0
Sc331 Sc 0.86769 0.35753 0.8435 0.0
Sc332 Sc 0.80455 0.37474 0.71936 0.0
O333 O 0.85164 0.39279 0.79363 0.0
C334 C 0.80136 0.43803 0.82149 0.0
C335 C 0.8769 0.41186 1.01097 0.0
C336 C 0.78153 0.30815 0.86887 0.0
C337 C 0.94535 0.42453 0.79237 0.0
C338 C 0.86705 0.4461 0.60963 0.0
C339 C 0.83597 0.32547 0.63913 0.0
O340 O 0.83676 0.4576 0.8082 0.0
O341 O 0.88568 0.38852 0.97576 0.0
O342 O 0.77361 0.32105 0.79634 0.0
O343 O 0.93482 0.44583 0.82981 0.0
O344 O 0.83215 0.42434 0.62916 0.0
O345 O 0.84778 0.32173 0.71879 0.0
O346 O 0.89312 0.45678 0.67027 0.0
O347 O 0.92302 0.38945 0.78046 0.0
O348 O 0.82474 0.34882 0.62413 0.0
O349 O 0.87184 0.43497 0.9622 0.0
O350 O 0.78323 0.40235 0.81096 0.0
O351 O 0.81379 0.3251 0.90723 0.0
Sc352 Sc 0.49321 0.42404 0.81743 0.0
Sc353 Sc 0.58328 0.49832 0.84347 0.0
Sc354 Sc 0.56606 0.41797 0.71935 0.0
O355 O 0.54801 0.447 0.79361 0.0
C356 C 0.50277 0.35148 0.82149 0.0
C357 C 0.52895 0.4532 1.01095 0.0
C358 C 0.63265 0.46154 0.86885 0.0
C359 C 0.51628 0.50898 0.79235 0.0
C360 C 0.4947 0.40911 0.60961 0.0
C361 C 0.61533 0.49865 0.6391 0.0
O362 O 0.4832 0.36732 0.80819 0.0
O363 O 0.55229 0.48531 0.97573 0.0
O364 O 0.61976 0.44072 0.79633 0.0
O365 O 0.49497 0.47715 0.82977 0.0
O366 O 0.51645 0.39596 0.62916 0.0
O367 O 0.61907 0.5142 0.71876 0.0
O368 O 0.48402 0.4245 0.67023 0.0
O369 O 0.55135 0.52172 0.78043 0.0
O370 O 0.59198 0.46408 0.6241 0.0
O371 O 0.50583 0.42502 0.96218 0.0
O372 O 0.53845 0.36903 0.81096 0.0
O373 O 0.6157 0.47684 0.90721 0.0
Sc374 Sc 0.51676 0.05733 0.81744 0.0
Sc375 Sc 0.44247 0.07311 0.84347 0.0
Sc376 Sc 0.52282 0.13625 0.71936 0.0
O377 O 0.49379 0.08916 0.79362 0.0
C378 C 0.58931 0.13945 0.82151 0.0
C379 C 0.48759 0.06389 1.01096 0.0
C380 C 0.47925 0.15926 0.86886 0.0
C381 C 0.43182 -0.00455 0.79234 0.0
C382 C 0.53169 0.07376 0.60963 0.0
C383 C 0.44213 0.10482 0.6391 0.0
O384 O 0.57347 0.10404 0.80822 0.0
O385 O 0.45548 0.05512 0.97574 0.0
O386 O 0.50007 0.16718 0.79634 0.0
O387 O 0.46365 0.00597 0.82976 0.0
O388 O 0.54483 0.10866 0.62917 0.0
O389 O 0.42658 0.09301 0.71876 0.0
O390 O 0.5163 0.04768 0.67025 0.0
O391 O 0.41907 0.01777 0.78043 0.0
O392 O 0.47671 0.11605 0.62411 0.0
O393 O 0.51577 0.06896 0.96219 0.0
O394 O 0.57176 0.15758 0.81098 0.0
O395 O 0.46394 0.127 0.90722 0.0
Sc396 Sc 0.56609 0.13627 0.21942 0.0
Sc397 Sc 0.58329 0.07311 0.3435 0.0
Sc398 Sc 0.49323 0.05733 0.31743 0.0
O399 O 0.54804 0.08917 0.29364 0.0
C400 C 0.50277 0.13943 0.32151 0.0
C401 C 0.63264 0.15929 0.36902 0.0
C402 C 0.52894 0.06387 0.51096 0.0
C403 C 0.6154 0.10489 0.13918 0.0
C404 C 0.49472 0.07377 0.10962 0.0
C405 C 0.51629 -0.00454 0.29236 0.0
O406 O 0.53845 0.15757 0.31103 0.0
O407 O 0.61574 0.127 0.40727 0.0
O408 O 0.50585 0.06896 0.46218 0.0
O409 O 0.59206 0.11613 0.1242 0.0
O410 O 0.48405 0.04769 0.17023 0.0
O411 O 0.55136 0.01778 0.28045 0.0
O412 O 0.5165 0.10867 0.12915 0.0
O413 O 0.61908 0.09301 0.21881 0.0
O414 O 0.49499 0.00598 0.32982 0.0
O415 O 0.61976 0.16721 0.29648 0.0
O416 O 0.48321 0.10403 0.30815 0.0
O417 O 0.5523 0.05513 0.47576 0.0
Sc418 Sc 0.80453 0.41799 0.21943 0.0
Sc419 Sc 0.8677 0.49835 0.3435 0.0
Sc420 Sc 0.88347 0.42406 0.31744 0.0
O421 O 0.85163 0.44703 0.29365 0.0
C422 C 0.80137 0.35151 0.32153 0.0
C423 C 0.78153 0.46152 0.36903 0.0
C424 C 0.87694 0.45323 0.51097 0.0
C425 C 0.83592 0.49869 0.13918 0.0
C426 C 0.86702 0.40911 0.10964 0.0
C427 C 0.94535 0.50899 0.29235 0.0
O428 O 0.78323 0.36905 0.31104 0.0
O429 O 0.81381 0.47691 0.40727 0.0
O430 O 0.87185 0.42505 0.4622 0.0
O431 O 0.82468 0.4641 0.1242 0.0
O432 O 0.8931 0.42452 0.17024 0.0
O433 O 0.92303 0.52174 0.28045 0.0
O434 O 0.83213 0.396 0.12916 0.0
O435 O 0.8478 0.51424 0.21881 0.0
O436 O 0.93482 0.47717 0.32981 0.0
O437 O 0.7736 0.44072 0.29648 0.0
O438 O 0.83677 0.36734 0.30818 0.0
O439 O 0.88569 0.48534 0.47576 0.0
Sc440 Sc 0.52281 0.3747 0.21942 0.0
Sc441 Sc 0.44245 0.35751 0.34347 0.0
Sc442 Sc 0.51674 0.44756 0.31742 0.0
O443 O 0.49377 0.39276 0.29363 0.0
C444 C 0.58929 0.43802 0.32152 0.0
C445 C 0.47927 0.30815 0.36901 0.0
C446 C 0.48757 0.41186 0.51094 0.0
C447 C 0.44212 0.32539 0.13915 0.0
C448 C 0.53169 0.44607 0.10962 0.0
C449 C 0.43181 0.42451 0.29233 0.0
O450 O 0.57175 0.40234 0.31104 0.0
O451 O 0.4639 0.32506 0.40725 0.0
O452 O 0.51575 0.43495 0.46217 0.0
O453 O 0.4767 0.34874 0.12418 0.0
O454 O 0.51628 0.45674 0.17021 0.0
O455 O 0.41905 0.38944 0.28042 0.0
O456 O 0.54481 0.42429 0.12916 0.0
O457 O 0.42656 0.32171 0.21878 0.0
O458 O 0.46363 0.44581 0.32977 0.0
O459 O 0.50008 0.32103 0.29647 0.0
O460 O 0.57346 0.45758 0.30817 0.0
O461 O 0.45546 0.3885 0.47573 0.0
Sc462 Sc 0.45776 0.24458 0.99397 0.0
Sc463 Sc 0.3946 0.26179 0.86989 0.0
Sc464 Sc 0.37882 0.17172 0.89595 0.0
O465 O 0.41066 0.22653 0.91974 0.0
C466 C 0.46092 0.18127 0.89183 0.0
C467 C 0.48077 0.31114 0.8444 0.0
C468 C 0.38535 0.20743 0.70242 0.0
C469 C 0.42632 0.29384 0.07425 0.0
C470 C 0.39527 0.17321 0.10375 0.0
C471 C 0.31694 0.19478 0.921 0.0
O472 O 0.47906 0.21695 0.90234 0.0
O473 O 0.44849 0.29423 0.80613 0.0
O474 O 0.39044 0.18433 0.7512 0.0
O475 O 0.43759 0.27052 0.08921 0.0
O476 O 0.36919 0.16255 0.04315 0.0
O477 O 0.33927 0.22986 0.93292 0.0
O478 O 0.43017 0.19498 0.08421 0.0
O479 O 0.4145 0.29757 0.9946 0.0
O480 O 0.32747 0.17348 0.8836 0.0
O481 O 0.48869 0.29826 0.91696 0.0
O482 O 0.42553 0.16171 0.9052 0.0
O483 O 0.37662 0.2308 0.73761 0.0
Sc484 Sc 0.69621 0.20134 0.99398 0.0
Sc485 Sc 0.67901 0.12098 0.86991 0.0
Sc486 Sc 0.76907 0.19526 0.89598 0.0
O487 O 0.71427 0.17229 0.91976 0.0
C488 C 0.75952 0.26781 0.89184 0.0
C489 C 0.62965 0.1578 0.84441 0.0
C490 C 0.73336 0.16608 0.70244 0.0
C491 C 0.64696 0.12065 0.07428 0.0
C492 C 0.76758 0.21022 0.10377 0.0
C493 C 0.74601 0.11032 0.92101 0.0
O494 O 0.72384 0.25027 0.90234 0.0
O495 O 0.64656 0.14243 0.80615 0.0
O496 O 0.75646 0.19427 0.75122 0.0
O497 O 0.67028 0.15524 0.08923 0.0
O498 O 0.77825 0.1948 0.04318 0.0
O499 O 0.71094 0.09757 0.93294 0.0
O500 O 0.74581 0.22335 0.08422 0.0
O501 O 0.64322 0.10509 0.99463 0.0
O502 O 0.76732 0.14215 0.88364 0.0
O503 O 0.64253 0.1786 0.91697 0.0
O504 O 0.77908 0.25198 0.90521 0.0
O505 O 0.70999 0.13398 0.73764 0.0
Sc506 Sc 0.73947 0.48304 0.99397 0.0
Sc507 Sc 0.81983 0.5462 0.86991 0.0
Sc508 Sc 0.74554 0.56198 0.89596 0.0
O509 O 0.76851 0.53014 0.91975 0.0
C510 C 0.67299 0.47987 0.89182 0.0
C511 C 0.78301 0.46003 0.84441 0.0
C512 C 0.77472 0.55545 0.70243 0.0
C513 C 0.82016 0.51448 0.07428 0.0
C514 C 0.73058 0.54552 0.10375 0.0
C515 C 0.83048 0.62386 0.92103 0.0
O516 O 0.69054 0.46173 0.90232 0.0
O517 O 0.79838 0.49231 0.80615 0.0
O518 O 0.74653 0.55036 0.75121 0.0
O519 O 0.78557 0.50321 0.08923 0.0
O520 O 0.74599 0.5716 0.04317 0.0
O521 O 0.84323 0.60153 0.93295 0.0
O522 O 0.71745 0.51062 0.0842 0.0
O523 O 0.83571 0.5263 0.99463 0.0
O524 O 0.79865 0.61333 0.88365 0.0
O525 O 0.76222 0.45211 0.91696 0.0
O526 O 0.68882 0.51526 0.90518 0.0
O527 O 0.80682 0.56419 0.73764 0.0
Sc528 Sc 0.43574 0.89531 0.72928 0.0
Sc529 Sc 0.34568 0.87953 0.70324 0.0
Sc530 Sc 0.36288 0.81638 0.82736 0.0
O531 O 0.38093 0.86347 0.7531 0.0
C532 C 0.42619 0.8132 0.72528 0.0
C533 C 0.4 0.88872 0.53576 0.0
C534 C 0.2963 0.79337 0.67783 0.0
C535 C 0.41268 0.95719 0.75431 0.0
C536 C 0.43424 0.87889 0.93711 0.0
C537 C 0.31356 0.84775 0.90756 0.0
O538 O 0.44575 0.8486 0.73857 0.0
O539 O 0.37666 0.89751 0.57098 0.0
O540 O 0.3092 0.78544 0.75034 0.0
O541 O 0.43398 0.94666 0.71689 0.0
O542 O 0.41248 0.84399 0.91759 0.0
O543 O 0.30988 0.85962 0.82793 0.0
O544 O 0.44493 0.90496 0.87647 0.0
O545 O 0.37761 0.93486 0.76628 0.0
O546 O 0.33693 0.83655 0.92258 0.0
O547 O 0.42311 0.88366 0.58453 0.0
O548 O 0.39051 0.79506 0.73579 0.0
O549 O 0.31324 0.82563 0.6395 0.0
Sc550 Sc 0.04549 0.52859 0.72926 0.0
Sc551 Sc 0.06126 0.4543 0.70324 0.0
Sc552 Sc 0.12441 0.53464 0.82735 0.0
O553 O 0.07732 0.50561 0.75309 0.0
C554 C 0.1276 0.60114 0.72526 0.0
C555 C 0.05206 0.49942 0.53576 0.0
C556 C 0.14741 0.49108 0.67782 0.0
C557 C -0.0164 0.44365 0.75433 0.0
C558 C 0.06191 0.54351 0.93709 0.0
C559 C 0.09303 0.45395 0.90756 0.0
O560 O 0.09219 0.5853 0.73854 0.0
O561 O 0.04327 0.46731 0.57097 0.0
O562 O 0.15535 0.51191 0.75033 0.0
O563 O -0.00587 0.47548 0.7169 0.0
O564 O 0.09681 0.55664 0.91758 0.0
O565 O 0.08116 0.4384 0.82793 0.0
O566 O 0.03584 0.52813 0.87645 0.0
O567 O 0.00593 0.43091 0.76628 0.0
O568 O 0.10423 0.48852 0.92257 0.0
O569 O 0.05713 0.52761 0.58452 0.0
O570 O 0.14573 0.58359 0.73577 0.0
O571 O 0.11515 0.47576 0.6395 0.0
Sc572 Sc 0.41221 0.50506 0.72929 0.0
Sc573 Sc 0.48649 0.59512 0.70327 0.0
Sc574 Sc 0.40615 0.57793 0.82736 0.0
O575 O 0.43518 0.55987 0.75312 0.0
C576 C 0.33965 0.51462 0.72526 0.0
C577 C 0.44137 0.5408 0.53578 0.0
C578 C 0.44972 0.6445 0.67784 0.0
C579 C 0.49715 0.52812 0.75434 0.0
C580 C 0.39728 0.50656 0.93711 0.0
C581 C 0.48684 0.62724 0.90759 0.0
O582 O 0.35549 0.49506 0.73855 0.0
O583 O 0.47349 0.56413 0.571 0.0
O584 O 0.42889 0.63161 0.75034 0.0
O585 O 0.46532 0.50682 0.71693 0.0
O586 O 0.38415 0.52833 0.91758 0.0
O587 O 0.50239 0.63092 0.82796 0.0
O588 O 0.41267 0.49587 0.87648 0.0
O589 O 0.50989 0.56319 0.76631 0.0
O590 O 0.45227 0.60387 0.92259 0.0
O591 O 0.41319 0.51769 0.58454 0.0
O592 O 0.3572 0.5503 0.73577 0.0
O593 O 0.46504 0.62755 0.63952 0.0
Sc594 Sc 0.55014 0.78093 0.15079 0.0
Sc595 Sc 0.53436 0.69086 0.17683 0.0
Sc596 Sc 0.47122 0.70807 0.05269 0.0
O597 O 0.5183 0.72612 0.12697 0.0
C598 C 0.46802 0.77136 0.15483 0.0
C599 C 0.54357 0.74519 0.3443 0.0
C600 C 0.4482 0.64148 0.2022 0.0
C601 C 0.61202 0.75786 0.12574 0.0
C602 C 0.53372 0.77943 0.94296 0.0
C603 C 0.50264 0.6588 0.97246 0.0
O604 O 0.50343 0.79093 0.14153 0.0
O605 O 0.55234 0.72185 0.3091 0.0
O606 O 0.44027 0.65438 0.12968 0.0
O607 O 0.60149 0.77917 0.16314 0.0
O608 O 0.49881 0.75768 0.9625 0.0
O609 O 0.51445 0.65507 0.05212 0.0
O610 O 0.55979 0.79011 1.0036 0.0
O611 O 0.58969 0.72279 0.1138 0.0
O612 O 0.49141 0.68215 0.95746 0.0
O613 O 0.5385 0.76831 0.29554 0.0
O614 O 0.44989 0.73568 0.1443 0.0
O615 O 0.48046 0.65844 0.24056 0.0
Sc616 Sc 0.15988 0.75737 0.15076 0.0
Sc617 Sc 0.24994 0.83165 0.1768 0.0
Sc618 Sc 0.23273 0.7513 0.05268 0.0
O619 O 0.21468 0.78034 0.12694 0.0
C620 C 0.16944 0.68482 0.15482 0.0
C621 C 0.19561 0.78653 0.34428 0.0
C622 C 0.29932 0.79487 0.20218 0.0
C623 C 0.18294 0.84232 0.12572 0.0
C624 C 0.16137 0.74244 0.94294 0.0
C625 C 0.282 0.83199 0.97243 0.0
O626 O 0.14987 0.70065 0.14152 0.0
O627 O 0.21896 0.81865 0.30907 0.0
O628 O 0.28642 0.77405 0.12967 0.0
O629 O 0.16163 0.81048 0.1631 0.0
O630 O 0.18312 0.72929 0.96249 0.0
O631 O 0.28573 0.84754 0.05209 0.0
O632 O 0.15069 0.75783 1.00357 0.0
O633 O 0.21801 0.85506 0.11377 0.0
O634 O 0.25865 0.79741 0.95744 0.0
O635 O 0.1725 0.75836 0.29551 0.0
O636 O 0.20512 0.70236 0.1443 0.0
O637 O 0.28237 0.81018 0.24054 0.0
Sc638 Sc 0.18343 0.39066 0.15078 0.0
Sc639 Sc 0.10914 0.40644 0.1768 0.0
Sc640 Sc 0.18948 0.46958 0.0527 0.0
O641 O 0.16045 0.42249 0.12695 0.0
C642 C 0.25597 0.47278 0.15484 0.0
C643 C 0.15426 0.39722 0.34429 0.0
C644 C 0.14591 0.49259 0.20219 0.0
C645 C 0.09848 0.32878 0.12571 0.0
C646 C 0.19836 0.40709 0.94296 0.0
C647 C 0.1088 0.43815 0.97243 0.0
O648 O 0.24014 0.43738 0.14156 0.0
O649 O 0.12214 0.38845 0.30907 0.0
O650 O 0.16673 0.50052 0.12968 0.0
O651 O 0.13032 0.3393 0.1631 0.0
O652 O 0.2115 0.44199 0.9625 0.0
O653 O 0.09325 0.42634 0.05209 0.0
O654 O 0.18297 0.38102 1.00358 0.0
O655 O 0.08574 0.3511 0.11377 0.0
O656 O 0.14337 0.44938 0.95744 0.0
O657 O 0.18244 0.40229 0.29553 0.0
O658 O 0.23843 0.49091 0.14431 0.0
O659 O 0.1306 0.46033 0.24054 0.0
Sc660 Sc 0.23276 0.4696 0.55276 0.0
Sc661 Sc 0.24996 0.40644 0.67683 0.0
Sc662 Sc 0.1599 0.39067 0.65076 0.0
O663 O 0.2147 0.4225 0.62697 0.0
C664 C 0.16943 0.47276 0.65484 0.0
C665 C 0.29931 0.49262 0.70235 0.0
C666 C 0.19561 0.39721 0.8443 0.0
C667 C 0.28207 0.43822 0.47251 0.0
C668 C 0.16139 0.40711 0.44296 0.0
C669 C 0.18295 0.32879 0.62573 0.0
O670 O 0.20512 0.4909 0.64436 0.0
O671 O 0.2824 0.46033 0.74059 0.0
O672 O 0.17251 0.4023 0.79552 0.0
O673 O 0.25873 0.44946 0.45753 0.0
O674 O 0.15072 0.38103 0.50356 0.0
O675 O 0.21802 0.35111 0.61379 0.0
O676 O 0.18317 0.44201 0.46248 0.0
O677 O 0.28575 0.42634 0.55213 0.0
O678 O 0.16165 0.33932 0.66315 0.0
O679 O 0.28643 0.50055 0.62981 0.0
O680 O 0.14987 0.43736 0.64148 0.0
O681 O 0.21897 0.38846 0.80909 0.0
Sc682 Sc 0.4712 0.75132 0.55277 0.0
Sc683 Sc 0.53437 0.83168 0.67683 0.0
Sc684 Sc 0.55014 0.75739 0.65078 0.0
O685 O 0.5183 0.78036 0.62698 0.0
C686 C 0.46804 0.68484 0.65486 0.0
C687 C 0.44819 0.79486 0.70236 0.0
C688 C 0.5436 0.78656 0.8443 0.0
C689 C 0.50259 0.83202 0.47251 0.0
C690 C 0.53369 0.74244 0.44297 0.0
C691 C 0.61202 0.84233 0.62572 0.0
O692 O 0.4499 0.70238 0.64437 0.0
O693 O 0.48048 0.81024 0.7406 0.0
O694 O 0.53851 0.75838 0.79553 0.0
O695 O 0.49135 0.79744 0.45754 0.0
O696 O 0.55977 0.75785 0.50358 0.0
O697 O 0.5897 0.85507 0.61378 0.0
O698 O 0.49879 0.72933 0.4625 0.0
O699 O 0.51447 0.84757 0.55214 0.0
O700 O 0.60149 0.8105 0.66314 0.0
O701 O 0.44026 0.77405 0.62982 0.0
O702 O 0.50344 0.70067 0.64151 0.0
O703 O 0.55236 0.81867 0.8091 0.0
Sc704 Sc 0.18948 0.70803 0.55276 0.0
Sc705 Sc 0.10912 0.69084 0.6768 0.0
Sc706 Sc 0.18341 0.7809 0.65075 0.0
O707 O 0.16044 0.72609 0.62696 0.0
C708 C 0.25596 0.77135 0.65485 0.0
C709 C 0.14594 0.64149 0.70235 0.0
C710 C 0.15423 0.74519 0.84428 0.0
C711 C 0.10878 0.65873 0.47248 0.0
C712 C 0.19836 0.7794 0.44295 0.0
C713 C 0.09847 0.75785 0.6257 0.0
O714 O 0.23842 0.73567 0.64437 0.0
O715 O 0.13056 0.65839 0.74058 0.0
O716 O 0.18242 0.76829 0.79551 0.0
O717 O 0.14336 0.68207 0.45752 0.0
O718 O 0.18295 0.79008 0.50355 0.0
O719 O 0.08572 0.72278 0.61376 0.0
O720 O 0.21147 0.75762 0.46249 0.0
O721 O 0.09323 0.65505 0.5521 0.0
O722 O 0.1303 0.77915 0.66311 0.0
O723 O 0.16675 0.65436 0.62981 0.0
O724 O 0.24012 0.79091 0.6415 0.0
O725 O 0.12213 0.72183 0.80907 0.0
Sc726 Sc 0.12442 0.57791 0.3273 0.0
Sc727 Sc 0.06127 0.59512 0.20322 0.0
Sc728 Sc 0.04549 0.50505 0.22929 0.0
O729 O 0.07733 0.55986 0.25307 0.0
C730 C 0.12759 0.51461 0.22517 0.0
C731 C 0.14744 0.64447 0.17773 0.0
C732 C 0.05202 0.54076 0.03575 0.0
C733 C 0.09299 0.62717 0.40758 0.0
C734 C 0.06194 0.50655 0.43708 0.0
C735 C -0.01639 0.52812 0.25433 0.0
O736 O 0.14573 0.55028 0.23567 0.0
O737 O 0.11516 0.62756 0.13946 0.0
O738 O 0.0571 0.51766 0.08453 0.0
O739 O 0.10426 0.60385 0.42255 0.0
O740 O 0.03585 0.49588 0.37649 0.0
O741 O 0.00594 0.56319 0.26625 0.0
O742 O 0.09683 0.52832 0.41754 0.0
O743 O 0.08117 0.63091 0.32793 0.0
O744 O -0.00587 0.50681 0.21693 0.0
O745 O 0.15536 0.63159 0.25029 0.0
O746 O 0.09219 0.49504 0.23853 0.0
O747 O 0.04328 0.56413 0.07095 0.0
Sc748 Sc 0.36288 0.53467 0.32731 0.0
Sc749 Sc 0.34567 0.45431 0.20325 0.0
Sc750 Sc 0.43574 0.52859 0.22931 0.0
O751 O 0.38093 0.50563 0.2531 0.0
C752 C 0.42619 0.60115 0.22517 0.0
C753 C 0.29632 0.49113 0.17775 0.0
C754 C 0.40003 0.49942 0.03578 0.0
C755 C 0.31362 0.45398 0.40761 0.0
C756 C 0.43425 0.54355 0.43711 0.0
C757 C 0.41268 0.44365 0.25435 0.0
O758 O 0.39051 0.58361 0.23567 0.0
O759 O 0.31323 0.47576 0.13948 0.0
O760 O 0.42313 0.5276 0.08455 0.0
O761 O 0.33694 0.48857 0.42257 0.0
O762 O 0.44491 0.52814 0.37652 0.0
O763 O 0.3776 0.4309 0.26628 0.0
O764 O 0.41248 0.55668 0.41755 0.0
O765 O 0.30989 0.43843 0.32796 0.0
O766 O 0.43398 0.47548 0.21697 0.0
O767 O 0.3092 0.51193 0.2503 0.0
O768 O 0.44575 0.58531 0.23854 0.0
O769 O 0.37666 0.46731 0.07098 0.0
Sc770 Sc 0.40614 0.81637 0.3273 0.0
Sc771 Sc 0.48649 0.87953 0.20324 0.0
Sc772 Sc 0.41221 0.89531 0.2293 0.0
O773 O 0.43518 0.86347 0.25308 0.0
C774 C 0.33966 0.8132 0.22515 0.0
C775 C 0.44968 0.79336 0.17774 0.0
C776 C 0.44138 0.88879 0.03577 0.0
C777 C 0.48683 0.84781 0.40761 0.0
C778 C 0.39725 0.87885 0.43709 0.0
C779 C 0.49715 0.95719 0.25436 0.0
O780 O 0.3572 0.79506 0.23566 0.0
O781 O 0.46505 0.82565 0.13948 0.0
O782 O 0.4132 0.8837 0.08454 0.0
O783 O 0.45224 0.83655 0.42256 0.0
O784 O 0.41266 0.90493 0.3765 0.0
O785 O 0.5099 0.93487 0.26628 0.0
O786 O 0.38412 0.84396 0.41754 0.0
O787 O 0.50238 0.85963 0.32796 0.0
O788 O 0.46531 0.94667 0.21698 0.0
O789 O 0.42888 0.78544 0.25029 0.0
O790 O 0.35549 0.8486 0.23851 0.0
O791 O 0.47349 0.89752 0.07097 0.0
loop_
_geom_bond_atom_site_label_1
_geom_bond_atom_site_label_2
_geom_bond_distance
_geom_bond_site_symmetry_2
_ccdc_geom_bond_type
Sc0 O3 2.025 . S
Sc0 O10 2.105 . S
Sc0 O13 2.105 . S
Sc0 O16 2.105 . S
Sc0 O19 2.105 1_554 S
Sc1 O3 2.025 . S
Sc1 O11 2.105 1_554 S
Sc1 O15 2.105 . S
Sc1 O17 2.105 . S
Sc1 O21 2.105 1_454 S
Sc2 O3 2.025 . S
Sc2 O12 2.105 . S
Sc2 O14 2.105 . S
Sc2 O18 2.105 . S
Sc2 O20 2.105 . S
O3 Sc0 2.025 . S
O3 Sc1 2.025 . S
O3 Sc2 2.025 . S
C4 O10 1.268 . S
C4 O20 1.268 . S
C5 O11 1.268 . S
C5 O19 1.268 . S
C6 O12 1.268 1_656 S
C6 O21 1.268 . S
C7 O13 1.268 . S
C7 O17 1.268 . S
C8 O14 1.268 . S
C8 O16 1.268 . S
C9 O15 1.268 . S
C9 O18 1.268 . S
O10 Sc0 2.105 . S
O10 C4 1.268 . S
O11 Sc1 2.105 1_556 S
O11 C5 1.268 . S
O12 Sc2 2.105 . S
O12 C6 1.268 1_454 S
O13 Sc0 2.105 . S
O13 C7 1.268 . S
O14 Sc2 2.105 . S
O14 C8 1.268 . S
O15 Sc1 2.105 . S
O15 C9 1.268 . S
O16 Sc0 2.105 . S
O16 C8 1.268 . S
O17 Sc1 2.105 . S
O17 C7 1.268 . S
O18 Sc2 2.105 . S
O18 C9 1.268 . S
O19 Sc0 2.105 1_556 S
O19 C5 1.268 . S
O20 Sc2 2.105 . S
O20 C4 1.268 . S
O21 Sc1 2.105 1_656 S
O21 C6 1.268 . S
Sc22 O25 2.025 . S
Sc22 O32 2.105 . S
Sc22 O35 2.105 . S
Sc22 O38 2.105 . S
Sc22 O41 2.105 1_554 S
Sc23 O25 2.025 . S
Sc23 O33 2.105 1_554 S
Sc23 O37 2.105 . S
Sc23 O39 2.105 . S
Sc23 O43 2.105 1_554 S
Sc24 O25 2.025 . S
Sc24 O34 2.105 . S
Sc24 O36 2.105 . S
Sc24 O40 2.105 . S
Sc24 O42 2.105 . S
O25 Sc22 2.025 . S
O25 Sc23 2.025 . S
O25 Sc24 2.025 . S
C26 O32 1.268 . S
C26 O42 1.268 . S
C27 O33 1.268 . S
C27 O41 1.268 . S
C28 O34 1.268 1_556 S
C28 O43 1.268 . S
C29 O35 1.268 . S
C29 O39 1.268 . S
C30 O36 1.268 . S
C30 O38 1.268 . S
C31 O37 1.268 . S
C31 O40 1.268 . S
O32 Sc22 2.105 . S
O32 C26 1.268 . S
O33 Sc23 2.105 1_556 S
O33 C27 1.268 . S
O34 Sc24 2.105 . S
O34 C28 1.268 1_554 S
O35 Sc22 2.105 . S
O35 C29 1.268 . S
O36 Sc24 2.105 . S
O36 C30 1.268 . S
O37 Sc23 2.105 . S
O37 C31 1.268 . S
O38 Sc22 2.105 . S
O38 C30 1.268 . S
O39 Sc23 2.105 . S
O39 C29 1.268 . S
O40 Sc24 2.105 . S
O40 C31 1.268 . S
O41 Sc22 2.105 1_556 S
O41 C27 1.268 . S
O42 Sc24 2.105 . S
O42 C26 1.268 . S
O43 Sc23 2.105 1_556 S
O43 C28 1.268 . S
Sc44 O47 2.025 . S
Sc44 O54 2.105 . S
Sc44 O57 2.105 . S
Sc44 O60 2.105 . S
Sc44 O63 2.105 1_554 S
Sc45 O47 2.025 . S
Sc45 O55 2.105 1_554 S
Sc45 O59 2.105 . S
Sc45 O61 2.105 . S
Sc45 O65 2.105 1_564 S
Sc46 O47 2.025 . S
Sc46 O56 2.105 . S
Sc46 O58 2.105 . S
Sc46 O62 2.105 . S
Sc46 O64 2.105 . S
O47 Sc44 2.025 . S
O47 Sc45 2.025 . S
O47 Sc46 2.025 . S
C48 O54 1.268 . S
C48 O64 1.268 . S
C49 O55 1.268 . S
C49 O63 1.268 . S
C50 O56 1.268 1_546 S
C50 O65 1.268 . S
C51 O57 1.268 . S
C51 O61 1.268 . S
C52 O58 1.268 . S
C52 O60 1.268 . S
C53 O59 1.268 . S
C53 O62 1.268 . S
O54 Sc44 2.105 . S
O54 C48 1.268 . S
O55 Sc45 2.105 1_556 S
O55 C49 1.268 . S
O56 Sc46 2.105 . S
O56 C50 1.268 1_564 S
O57 Sc44 2.105 . S
O57 C51 1.268 . S
O58 Sc46 2.105 . S
O58 C52 1.268 . S
O59 Sc45 2.105 . S
O59 C53 1.268 . S
O60 Sc44 2.105 . S
O60 C52 1.268 . S
O61 Sc45 2.105 . S
O61 C51 1.268 . S
O62 Sc46 2.105 . S
O62 C53 1.268 . S
O63 Sc44 2.105 1_556 S
O63 C49 1.268 . S
O64 Sc46 2.105 . S
O64 C48 1.268 . S
O65 Sc45 2.105 1_546 S
O65 C50 1.268 . S
Sc66 O69 2.025 . S
Sc66 O76 2.105 . S
Sc66 O79 2.105 . S
Sc66 O82 2.105 . S
Sc66 O85 2.105 . S
Sc67 O69 2.025 . S
Sc67 O77 2.105 . S
Sc67 O81 2.105 . S
Sc67 O83 2.105 . S
Sc67 O87 2.105 1_545 S
Sc68 O69 2.025 . S
Sc68 O78 2.105 . S
Sc68 O80 2.105 . S
Sc68 O84 2.105 . S
Sc68 O86 2.105 . S
O69 Sc66 2.025 . S
O69 Sc67 2.025 . S
O69 Sc68 2.025 . S
C70 O76 1.268 . S
C70 O86 1.268 . S
C71 O77 1.268 . S
C71 O85 1.268 . S
C72 O78 1.268 1_565 S
C72 O87 1.268 . S
C73 O79 1.268 . S
C73 O83 1.268 . S
C74 O80 1.268 . S
C74 O82 1.268 . S
C75 O81 1.268 . S
C75 O84 1.268 . S
O76 Sc66 2.105 . S
O76 C70 1.268 . S
O77 Sc67 2.105 . S
O77 C71 1.268 . S
O78 Sc68 2.105 . S
O78 C72 1.268 1_545 S
O79 Sc66 2.105 . S
O79 C73 1.268 . S
O80 Sc68 2.105 . S
O80 C74 1.268 . S
O81 Sc67 2.105 . S
O81 C75 1.268 . S
O82 Sc66 2.105 . S
O82 C74 1.268 . S
O83 Sc67 2.105 . S
O83 C73 1.268 . S
O84 Sc68 2.105 . S
O84 C75 1.268 . S
O85 Sc66 2.105 . S
O85 C71 1.268 . S
O86 Sc68 2.105 . S
O86 C70 1.268 . S
O87 Sc67 2.105 1_565 S
O87 C72 1.268 . S
Sc88 O91 2.025 . S
Sc88 O98 2.105 . S
Sc88 O101 2.105 . S
Sc88 O104 2.105 . S
Sc88 O107 2.105 . S
Sc89 O91 2.025 . S
Sc89 O99 2.105 . S
Sc89 O103 2.105 . S
Sc89 O105 2.105 . S
Sc89 O109 2.105 1_655 S
Sc90 O91 2.025 . S
Sc90 O100 2.105 . S
Sc90 O102 2.105 . S
Sc90 O106 2.105 . S
Sc90 O108 2.105 . S
O91 Sc88 2.025 . S
O91 Sc89 2.025 . S
O91 Sc90 2.025 . S
C92 O98 1.268 . S
C92 O108 1.268 . S
C93 O99 1.268 . S
C93 O107 1.268 . S
C94 O100 1.268 1_455 S
C94 O109 1.268 . S
C95 O101 1.268 . S
C95 O105 1.268 . S
C96 O102 1.268 . S
C96 O104 1.268 . S
C97 O103 1.268 . S
C97 O106 1.268 . S
O98 Sc88 2.105 . S
O98 C92 1.268 . S
O99 Sc89 2.105 . S
O99 C93 1.268 . S
O100 Sc90 2.105 . S
O100 C94 1.268 1_655 S
O101 Sc88 2.105 . S
O101 C95 1.268 . S
O102 Sc90 2.105 . S
O102 C96 1.268 . S
O103 Sc89 2.105 . S
O103 C97 1.268 . S
O104 Sc88 2.105 . S
O104 C96 1.268 . S
O105 Sc89 2.105 . S
O105 C95 1.268 . S
O106 Sc90 2.105 . S
O106 C97 1.268 . S
O107 Sc88 2.105 . S
O107 C93 1.268 . S
O108 Sc90 2.105 . S
O108 C92 1.268 . S
O109 Sc89 2.105 1_455 S
O109 C94 1.268 . S
Sc110 O113 2.025 . S
Sc110 O120 2.105 . S
Sc110 O123 2.105 . S
Sc110 O126 2.105 . S
Sc110 O129 2.105 . S
Sc111 O113 2.025 . S
Sc111 O121 2.105 . S
Sc111 O125 2.105 . S
Sc111 O127 2.105 . S
Sc111 O131 2.105 . S
Sc112 O113 2.025 . S
Sc112 O122 2.105 . S
Sc112 O124 2.105 . S
Sc112 O128 2.105 . S
Sc112 O130 2.105 . S
O113 Sc110 2.025 . S
O113 Sc111 2.025 . S
O113 Sc112 2.025 . S
C114 O120 1.268 . S
C114 O130 1.268 . S
C115 O121 1.268 . S
C115 O129 1.268 . S
C116 O122 1.268 . S
C116 O131 1.268 . S
C117 O123 1.268 . S
C117 O127 1.268 . S
C118 O124 1.268 . S
C118 O126 1.268 . S
C119 O125 1.268 . S
C119 O128 1.268 . S
O120 Sc110 2.105 . S
O120 C114 1.268 . S
O121 Sc111 2.105 . S
O121 C115 1.268 . S
O122 Sc112 2.105 . S
O122 C116 1.268 . S
O123 Sc110 2.105 . S
O123 C117 1.268 . S
O124 Sc112 2.105 . S
O124 C118 1.268 . S
O125 Sc111 2.105 . S
O125 C119 1.268 . S
O126 Sc110 2.105 . S
O126 C118 1.268 . S
O127 Sc111 2.105 . S
O127 C117 1.268 . S
O128 Sc112 2.105 . S
O128 C119 1.268 . S
O129 Sc110 2.105 . S
O129 C115 1.268 . S
O130 Sc112 2.105 . S
O130 C114 1.268 . S
O131 Sc111 2.105 . S
O131 C116 1.268 . S
Sc132 O135 2.025 . S
Sc132 O142 2.105 . S
Sc132 O145 2.105 . S
Sc132 O148 2.105 . S
Sc132 O151 2.105 . S
Sc133 O135 2.025 . S
Sc133 O143 2.105 1_656 S
Sc133 O147 2.105 . S
Sc133 O149 2.105 . S
Sc133 O153 2.105 1_556 S
Sc134 O135 2.025 . S
Sc134 O144 2.105 1_556 S
Sc134 O146 2.105 . S
Sc134 O150 2.105 . S
Sc134 O152 2.105 . S
O135 Sc132 2.025 . S
O135 Sc133 2.025 . S
O135 Sc134 2.025 . S
C136 O142 1.268 . S
C136 O152 1.268 . S
C137 O143 1.268 . S
C137 O151 1.268 1_454 S
C138 O144 1.268 . S
C138 O153 1.268 . S
C139 O145 1.268 . S
C139 O149 1.268 . S
C140 O146 1.268 . S
C140 O148 1.268 . S
C141 O147 1.268 . S
C141 O150 1.268 . S
O142 Sc132 2.105 . S
O142 C136 1.268 . S
O143 Sc133 2.105 1_454 S
O143 C137 1.268 . S
O144 Sc134 2.105 1_554 S
O144 C138 1.268 . S
O145 Sc132 2.105 . S
O145 C139 1.268 . S
O146 Sc134 2.105 . S
O146 C140 1.268 . S
O147 Sc133 2.105 . S
O147 C141 1.268 . S
O148 Sc132 2.105 . S
O148 C140 1.268 . S
O149 Sc133 2.105 . S
O149 C139 1.268 . S
O150 Sc134 2.105 . S
O150 C141 1.268 . S
O151 Sc132 2.105 . S
O151 C137 1.268 1_656 S
O152 Sc134 2.105 . S
O152 C136 1.268 . S
O153 Sc133 2.105 1_554 S
O153 C138 1.268 . S
Sc154 O157 2.025 . S
Sc154 O164 2.105 . S
Sc154 O167 2.105 . S
Sc154 O170 2.105 . S
Sc154 O173 2.105 . S
Sc155 O157 2.025 . S
Sc155 O165 2.105 1_556 S
Sc155 O169 2.105 . S
Sc155 O171 2.105 . S
Sc155 O175 2.105 1_556 S
Sc156 O157 2.025 . S
Sc156 O166 2.105 1_556 S
Sc156 O168 2.105 . S
Sc156 O172 2.105 . S
Sc156 O174 2.105 . S
O157 Sc154 2.025 . S
O157 Sc155 2.025 . S
O157 Sc156 2.025 . S
C158 O164 1.268 . S
C158 O174 1.268 . S
C159 O165 1.268 . S
C159 O173 1.268 1_554 S
C160 O166 1.268 . S
C160 O175 1.268 . S
C161 O167 1.268 . S
C161 O171 1.268 . S
C162 O168 1.268 . S
C162 O170 1.268 . S
C163 O169 1.268 . S
C163 O172 1.268 . S
O164 Sc154 2.105 . S
O164 C158 1.268 . S
O165 Sc155 2.105 1_554 S
O165 C159 1.268 . S
O166 Sc156 2.105 1_554 S
O166 C160 1.268 . S
O167 Sc154 2.105 . S
O167 C161 1.268 . S
O168 Sc156 2.105 . S
O168 C162 1.268 . S
O169 Sc155 2.105 . S
O169 C163 1.268 . S
O170 Sc154 2.105 . S
O170 C162 1.268 . S
O171 Sc155 2.105 . S
O171 C161 1.268 . S
O172 Sc156 2.105 . S
O172 C163 1.268 . S
O173 Sc154 2.105 . S
O173 C159 1.268 1_556 S
O174 Sc156 2.105 . S
O174 C158 1.268 . S
O175 Sc155 2.105 1_554 S
O175 C160 1.268 . S
Sc176 O179 2.025 . S
Sc176 O186 2.105 . S
Sc176 O189 2.105 . S
Sc176 O192 2.105 . S
Sc176 O195 2.105 . S
Sc177 O179 2.025 . S
Sc177 O187 2.105 1_546 S
Sc177 O191 2.105 . S
Sc177 O193 2.105 . S
Sc177 O197 2.105 1_556 S
Sc178 O179 2.025 . S
Sc178 O188 2.105 1_556 S
Sc178 O190 2.105 . S
Sc178 O194 2.105 . S
Sc178 O196 2.105 . S
O179 Sc176 2.025 . S
O179 Sc177 2.025 . S
O179 Sc178 2.025 . S
C180 O186 1.268 . S
C180 O196 1.268 . S
C181 O187 1.268 . S
C181 O195 1.268 1_564 S
C182 O188 1.268 . S
C182 O197 1.268 . S
C183 O189 1.268 . S
C183 O193 1.268 . S
C184 O190 1.268 . S
C184 O192 1.268 . S
C185 O191 1.268 . S
C185 O194 1.268 . S
O186 Sc176 2.105 . S
O186 C180 1.268 . S
O187 Sc177 2.105 1_564 S
O187 C181 1.268 . S
O188 Sc178 2.105 1_554 S
O188 C182 1.268 . S
O189 Sc176 2.105 . S
O189 C183 1.268 . S
O190 Sc178 2.105 . S
O190 C184 1.268 . S
O191 Sc177 2.105 . S
O191 C185 1.268 . S
O192 Sc176 2.105 . S
O192 C184 1.268 . S
O193 Sc177 2.105 . S
O193 C183 1.268 . S
O194 Sc178 2.105 . S
O194 C185 1.268 . S
O195 Sc176 2.105 . S
O195 C181 1.268 1_546 S
O196 Sc178 2.105 . S
O196 C180 1.268 . S
O197 Sc177 2.105 1_554 S
O197 C182 1.268 . S
Sc198 O201 2.025 . S
Sc198 O208 2.105 . S
Sc198 O211 2.105 . S
Sc198 O214 2.105 . S
Sc198 O217 2.105 . S
Sc199 O201 2.025 . S
Sc199 O209 2.105 1_565 S
Sc199 O213 2.105 . S
Sc199 O215 2.105 . S
Sc199 O219 2.105 . S
Sc200 O201 2.025 . S
Sc200 O210 2.105 . S
Sc200 O212 2.105 . S
Sc200 O216 2.105 . S
Sc200 O218 2.105 . S
O201 Sc198 2.025 . S
O201 Sc199 2.025 . S
O201 Sc200 2.025 . S
C202 O208 1.268 . S
C202 O218 1.268 . S
C203 O209 1.268 . S
C203 O217 1.268 1_545 S
C204 O210 1.268 . S
C204 O219 1.268 . S
C205 O211 1.268 . S
C205 O215 1.268 . S
C206 O212 1.268 . S
C206 O214 1.268 . S
C207 O213 1.268 . S
C207 O216 1.268 . S
O208 Sc198 2.105 . S
O208 C202 1.268 . S
O209 Sc199 2.105 1_545 S
O209 C203 1.268 . S
O210 Sc200 2.105 . S
O210 C204 1.268 . S
O211 Sc198 2.105 . S
O211 C205 1.268 . S
O212 Sc200 2.105 . S
O212 C206 1.268 . S
O213 Sc199 2.105 . S
O213 C207 1.268 . S
O214 Sc198 2.105 . S
O214 C206 1.268 . S
O215 Sc199 2.105 . S
O215 C205 1.268 . S
O216 Sc200 2.105 . S
O216 C207 1.268 . S
O217 Sc198 2.105 . S
O217 C203 1.268 1_565 S
O218 Sc200 2.105 . S
O218 C202 1.268 . S
O219 Sc199 2.105 . S
O219 C204 1.268 . S
Sc220 O223 2.025 . S
Sc220 O230 2.105 . S
Sc220 O233 2.105 . S
Sc220 O236 2.105 . S
Sc220 O239 2.105 . S
Sc221 O223 2.025 . S
Sc221 O231 2.105 1_455 S
Sc221 O235 2.105 . S
Sc221 O237 2.105 . S
Sc221 O241 2.105 . S
Sc222 O223 2.025 . S
Sc222 O232 2.105 . S
Sc222 O234 2.105 . S
Sc222 O238 2.105 . S
Sc222 O240 2.105 . S
O223 Sc220 2.025 . S
O223 Sc221 2.025 . S
O223 Sc222 2.025 . S
C224 O230 1.268 . S
C224 O240 1.268 . S
C225 O231 1.268 . S
C225 O239 1.268 1_655 S
C226 O232 1.268 . S
C226 O241 1.268 . S
C227 O233 1.268 . S
C227 O237 1.268 . S
C228 O234 1.268 . S
C228 O236 1.268 . S
C229 O235 1.268 . S
C229 O238 1.268 . S
O230 Sc220 2.105 . S
O230 C224 1.268 . S
O231 Sc221 2.105 1_655 S
O231 C225 1.268 . S
O232 Sc222 2.105 . S
O232 C226 1.268 . S
O233 Sc220 2.105 . S
O233 C227 1.268 . S
O234 Sc222 2.105 . S
O234 C228 1.268 . S
O235 Sc221 2.105 . S
O235 C229 1.268 . S
O236 Sc220 2.105 . S
O236 C228 1.268 . S
O237 Sc221 2.105 . S
O237 C227 1.268 . S
O238 Sc222 2.105 . S
O238 C229 1.268 . S
O239 Sc220 2.105 . S
O239 C225 1.268 1_455 S
O240 Sc222 2.105 . S
O240 C224 1.268 . S
O241 Sc221 2.105 . S
O241 C226 1.268 . S
Sc242 O245 2.025 . S
Sc242 O252 2.105 . S
Sc242 O255 2.105 . S
Sc242 O258 2.105 . S
Sc242 O261 2.105 . S
Sc243 O245 2.025 . S
Sc243 O253 2.105 . S
Sc243 O257 2.105 . S
Sc243 O259 2.105 . S
Sc243 O263 2.105 . S
Sc244 O245 2.025 . S
Sc244 O254 2.105 . S
Sc244 O256 2.105 . S
Sc244 O260 2.105 . S
Sc244 O262 2.105 . S
O245 Sc242 2.025 . S
O245 Sc243 2.025 . S
O245 Sc244 2.025 . S
C246 O252 1.268 . S
C246 O262 1.268 . S
C247 O253 1.268 . S
C247 O261 1.268 . S
C248 O254 1.268 . S
C248 O263 1.268 . S
C249 O255 1.268 . S
C249 O259 1.268 . S
C250 O256 1.268 . S
C250 O258 1.268 . S
C251 O257 1.268 . S
C251 O260 1.268 . S
O252 Sc242 2.105 . S
O252 C246 1.268 . S
O253 Sc243 2.105 . S
O253 C247 1.268 . S
O254 Sc244 2.105 . S
O254 C248 1.268 . S
O255 Sc242 2.105 . S
O255 C249 1.268 . S
O256 Sc244 2.105 . S
O256 C250 1.268 . S
O257 Sc243 2.105 . S
O257 C251 1.268 . S
O258 Sc242 2.105 . S
O258 C250 1.268 . S
O259 Sc243 2.105 . S
O259 C249 1.268 . S
O260 Sc244 2.105 . S
O260 C251 1.268 . S
O261 Sc242 2.105 . S
O261 C247 1.268 . S
O262 Sc244 2.105 . S
O262 C246 1.268 . S
O263 Sc243 2.105 . S
O263 C248 1.268 . S
Sc264 O267 2.025 . S
Sc264 O274 2.105 . S
Sc264 O277 2.105 . S
Sc264 O280 2.105 . S
Sc264 O283 2.105 . S
Sc265 O267 2.025 . S
Sc265 O275 2.105 . S
Sc265 O279 2.105 . S
Sc265 O281 2.105 . S
Sc265 O285 2.105 . S
Sc266 O267 2.025 . S
Sc266 O276 2.105 . S
Sc266 O278 2.105 . S
Sc266 O282 2.105 . S
Sc266 O284 2.105 . S
O267 Sc264 2.025 . S
O267 Sc265 2.025 . S
O267 Sc266 2.025 . S
C268 O274 1.268 . S
C268 O284 1.268 . S
C269 O275 1.268 . S
C269 O283 1.268 . S
C270 O276 1.268 . S
C270 O285 1.268 . S
C271 O277 1.268 . S
C271 O281 1.268 . S
C272 O278 1.268 . S
C272 O280 1.268 . S
C273 O279 1.268 . S
C273 O282 1.268 . S
O274 Sc264 2.105 . S
O274 C268 1.268 . S
O275 Sc265 2.105 . S
O275 C269 1.268 . S
O276 Sc266 2.105 . S
O276 C270 1.268 . S
O277 Sc264 2.105 . S
O277 C271 1.268 . S
O278 Sc266 2.105 . S
O278 C272 1.268 . S
O279 Sc265 2.105 . S
O279 C273 1.268 . S
O280 Sc264 2.105 . S
O280 C272 1.268 . S
O281 Sc265 2.105 . S
O281 C271 1.268 . S
O282 Sc266 2.105 . S
O282 C273 1.268 . S
O283 Sc264 2.105 . S
O283 C269 1.268 . S
O284 Sc266 2.105 . S
O284 C268 1.268 . S
O285 Sc265 2.105 . S
O285 C270 1.268 . S
Sc286 O289 2.025 . S
Sc286 O296 2.105 . S
Sc286 O299 2.105 . S
Sc286 O302 2.105 . S
Sc286 O305 2.105 . S
Sc287 O289 2.025 . S
Sc287 O297 2.105 . S
Sc287 O301 2.105 . S
Sc287 O303 2.105 . S
Sc287 O307 2.105 . S
Sc288 O289 2.025 . S
Sc288 O298 2.105 . S
Sc288 O300 2.105 . S
Sc288 O304 2.105 . S
Sc288 O306 2.105 . S
O289 Sc286 2.025 . S
O289 Sc287 2.025 . S
O289 Sc288 2.025 . S
C290 O296 1.268 . S
C290 O306 1.268 . S
C291 O297 1.268 . S
C291 O305 1.268 . S
C292 O298 1.268 . S
C292 O307 1.268 . S
C293 O299 1.268 . S
C293 O303 1.268 . S
C294 O300 1.268 . S
C294 O302 1.268 . S
C295 O301 1.268 . S
C295 O304 1.268 . S
O296 Sc286 2.105 . S
O296 C290 1.268 . S
O297 Sc287 2.105 . S
O297 C291 1.268 . S
O298 Sc288 2.105 . S
O298 C292 1.268 . S
O299 Sc286 2.105 . S
O299 C293 1.268 . S
O300 Sc288 2.105 . S
O300 C294 1.268 . S
O301 Sc287 2.105 . S
O301 C295 1.268 . S
O302 Sc286 2.105 . S
O302 C294 1.268 . S
O303 Sc287 2.105 . S
O303 C293 1.268 . S
O304 Sc288 2.105 . S
O304 C295 1.268 . S
O305 Sc286 2.105 . S
O305 C291 1.268 . S
O306 Sc288 2.105 . S
O306 C290 1.268 . S
O307 Sc287 2.105 . S
O307 C292 1.268 . S
Sc308 O311 2.025 . S
Sc308 O318 2.105 . S
Sc308 O321 2.105 . S
Sc308 O324 2.105 . S
Sc308 O327 2.105 . S
Sc309 O311 2.025 . S
Sc309 O319 2.105 . S
Sc309 O323 2.105 . S
Sc309 O325 2.105 . S
Sc309 O329 2.105 . S
Sc310 O311 2.025 . S
Sc310 O320 2.105 . S
Sc310 O322 2.105 . S
Sc310 O326 2.105 . S
Sc310 O328 2.105 . S
O311 Sc308 2.025 . S
O311 Sc309 2.025 . S
O311 Sc310 2.025 . S
C312 O318 1.268 . S
C312 O328 1.268 . S
C313 O319 1.268 . S
C313 O327 1.268 . S
C314 O320 1.268 . S
C314 O329 1.268 . S
C315 O321 1.268 . S
C315 O325 1.268 . S
C316 O322 1.268 . S
C316 O324 1.268 . S
C317 O323 1.268 . S
C317 O326 1.268 . S
O318 Sc308 2.105 . S
O318 C312 1.268 . S
O319 Sc309 2.105 . S
O319 C313 1.268 . S
O320 Sc310 2.105 . S
O320 C314 1.268 . S
O321 Sc308 2.105 . S
O321 C315 1.268 . S
O322 Sc310 2.105 . S
O322 C316 1.268 . S
O323 Sc309 2.105 . S
O323 C317 1.268 . S
O324 Sc308 2.105 . S
O324 C316 1.268 . S
O325 Sc309 2.105 . S
O325 C315 1.268 . S
O326 Sc310 2.105 . S
O326 C317 1.268 . S
O327 Sc308 2.105 . S
O327 C313 1.268 . S
O328 Sc310 2.105 . S
O328 C312 1.268 . S
O329 Sc309 2.105 . S
O329 C314 1.268 . S
Sc330 O333 2.025 . S
Sc330 O340 2.105 . S
Sc330 O343 2.105 . S
Sc330 O346 2.105 . S
Sc330 O349 2.105 . S
Sc331 O333 2.025 . S
Sc331 O341 2.105 . S
Sc331 O345 2.105 . S
Sc331 O347 2.105 . S
Sc331 O351 2.105 . S
Sc332 O333 2.025 . S
Sc332 O342 2.105 . S
Sc332 O344 2.105 . S
Sc332 O348 2.105 . S
Sc332 O350 2.105 . S
O333 Sc330 2.025 . S
O333 Sc331 2.025 . S
O333 Sc332 2.025 . S
C334 O340 1.268 . S
C334 O350 1.268 . S
C335 O341 1.268 . S
C335 O349 1.268 . S
C336 O342 1.268 . S
C336 O351 1.268 . S
C337 O343 1.268 . S
C337 O347 1.268 . S
C338 O344 1.268 . S
C338 O346 1.268 . S
C339 O345 1.268 . S
C339 O348 1.268 . S
O340 Sc330 2.105 . S
O340 C334 1.268 . S
O341 Sc331 2.105 . S
O341 C335 1.268 . S
O342 Sc332 2.105 . S
O342 C336 1.268 . S
O343 Sc330 2.105 . S
O343 C337 1.268 . S
O344 Sc332 2.105 . S
O344 C338 1.268 . S
O345 Sc331 2.105 . S
O345 C339 1.268 . S
O346 Sc330 2.105 . S
O346 C338 1.268 . S
O347 Sc331 2.105 . S
O347 C337 1.268 . S
O348 Sc332 2.105 . S
O348 C339 1.268 . S
O349 Sc330 2.105 . S
O349 C335 1.268 . S
O350 Sc332 2.105 . S
O350 C334 1.268 . S
O351 Sc331 2.105 . S
O351 C336 1.268 . S
Sc352 O355 2.025 . S
Sc352 O362 2.105 . S
Sc352 O365 2.105 . S
Sc352 O368 2.105 . S
Sc352 O371 2.105 . S
Sc353 O355 2.025 . S
Sc353 O363 2.105 . S
Sc353 O367 2.105 . S
Sc353 O369 2.105 . S
Sc353 O373 2.105 . S
Sc354 O355 2.025 . S
Sc354 O364 2.105 . S
Sc354 O366 2.105 . S
Sc354 O370 2.105 . S
Sc354 O372 2.105 . S
O355 Sc352 2.025 . S
O355 Sc353 2.025 . S
O355 Sc354 2.025 . S
C356 O362 1.268 . S
C356 O372 1.268 . S
C357 O363 1.268 . S
C357 O371 1.268 . S
C358 O364 1.268 . S
C358 O373 1.268 . S
C359 O365 1.268 . S
C359 O369 1.268 . S
C360 O366 1.268 . S
C360 O368 1.268 . S
C361 O367 1.268 . S
C361 O370 1.268 . S
O362 Sc352 2.105 . S
O362 C356 1.268 . S
O363 Sc353 2.105 . S
O363 C357 1.268 . S
O364 Sc354 2.105 . S
O364 C358 1.268 . S
O365 Sc352 2.105 . S
O365 C359 1.268 . S
O366 Sc354 2.105 . S
O366 C360 1.268 . S
O367 Sc353 2.105 . S
O367 C361 1.268 . S
O368 Sc352 2.105 . S
O368 C360 1.268 . S
O369 Sc353 2.105 . S
O369 C359 1.268 . S
O370 Sc354 2.105 . S
O370 C361 1.268 . S
O371 Sc352 2.105 . S
O371 C357 1.268 . S
O372 Sc354 2.105 . S
O372 C356 1.268 . S
O373 Sc353 2.105 . S
O373 C358 1.268 . S
Sc374 O377 2.025 . S
Sc374 O384 2.105 . S
Sc374 O387 2.105 . S
Sc374 O390 2.105 . S
Sc374 O393 2.105 . S
Sc375 O377 2.025 . S
Sc375 O385 2.105 . S
Sc375 O389 2.105 . S
Sc375 O391 2.105 . S
Sc375 O395 2.105 . S
Sc376 O377 2.025 . S
Sc376 O386 2.105 . S
Sc376 O388 2.105 . S
Sc376 O392 2.105 . S
Sc376 O394 2.105 . S
O377 Sc374 2.025 . S
O377 Sc375 2.025 . S
O377 Sc376 2.025 . S
C378 O384 1.268 . S
C378 O394 1.268 . S
C379 O385 1.268 . S
C379 O393 1.268 . S
C380 O386 1.268 . S
C380 O395 1.268 . S
C381 O387 1.268 . S
C381 O391 1.268 . S
C382 O388 1.268 . S
C382 O390 1.268 . S
C383 O389 1.268 . S
C383 O392 1.268 . S
O384 Sc374 2.105 . S
O384 C378 1.268 . S
O385 Sc375 2.105 . S
O385 C379 1.268 . S
O386 Sc376 2.105 . S
O386 C380 1.268 . S
O387 Sc374 2.105 . S
O387 C381 1.268 . S
O388 Sc376 2.105 . S
O388 C382 1.268 . S
O389 Sc375 2.105 . S
O389 C383 1.268 . S
O390 Sc374 2.105 . S
O390 C382 1.268 . S
O391 Sc375 2.105 . S
O391 C381 1.268 . S
O392 Sc376 2.105 . S
O392 C383 1.268 . S
O393 Sc374 2.105 . S
O393 C379 1.268 . S
O394 Sc376 2.105 . S
O394 C378 1.268 . S
O395 Sc375 2.105 . S
O395 C380 1.268 . S
Sc396 O399 2.025 . S
Sc396 O406 2.105 . S
Sc396 O409 2.105 . S
Sc396 O412 2.105 . S
Sc396 O415 2.105 . S
Sc397 O399 2.025 . S
Sc397 O407 2.105 . S
Sc397 O411 2.105 . S
Sc397 O413 2.105 . S
Sc397 O417 2.105 . S
Sc398 O399 2.025 . S
Sc398 O408 2.105 . S
Sc398 O410 2.105 . S
Sc398 O414 2.105 . S
Sc398 O416 2.105 . S
O399 Sc396 2.025 . S
O399 Sc397 2.025 . S
O399 Sc398 2.025 . S
C400 O406 1.268 . S
C400 O416 1.268 . S
C401 O407 1.268 . S
C401 O415 1.268 . S
C402 O408 1.268 . S
C402 O417 1.268 . S
C403 O409 1.268 . S
C403 O413 1.268 . S
C404 O410 1.268 . S
C404 O412 1.268 . S
C405 O411 1.268 . S
C405 O414 1.268 . S
O406 Sc396 2.105 . S
O406 C400 1.268 . S
O407 Sc397 2.105 . S
O407 C401 1.268 . S
O408 Sc398 2.105 . S
O408 C402 1.268 . S
O409 Sc396 2.105 . S
O409 C403 1.268 . S
O410 Sc398 2.105 . S
O410 C404 1.268 . S
O411 Sc397 2.105 . S
O411 C405 1.268 . S
O412 Sc396 2.105 . S
O412 C404 1.268 . S
O413 Sc397 2.105 . S
O413 C403 1.268 . S
O414 Sc398 2.105 . S
O414 C405 1.268 . S
O415 Sc396 2.105 . S
O415 C401 1.268 . S
O416 Sc398 2.105 . S
O416 C400 1.268 . S
O417 Sc397 2.105 . S
O417 C402 1.268 . S
Sc418 O421 2.025 . S
Sc418 O428 2.105 . S
Sc418 O431 2.105 . S
Sc418 O434 2.105 . S
Sc418 O437 2.105 . S
Sc419 O421 2.025 . S
Sc419 O429 2.105 . S
Sc419 O433 2.105 . S
Sc419 O435 2.105 . S
Sc419 O439 2.105 . S
Sc420 O421 2.025 . S
Sc420 O430 2.105 . S
Sc420 O432 2.105 . S
Sc420 O436 2.105 . S
Sc420 O438 2.105 . S
O421 Sc418 2.025 . S
O421 Sc419 2.025 . S
O421 Sc420 2.025 . S
C422 O428 1.268 . S
C422 O438 1.268 . S
C423 O429 1.268 . S
C423 O437 1.268 . S
C424 O430 1.268 . S
C424 O439 1.268 . S
C425 O431 1.268 . S
C425 O435 1.268 . S
C426 O432 1.268 . S
C426 O434 1.268 . S
C427 O433 1.268 . S
C427 O436 1.268 . S
O428 Sc418 2.105 . S
O428 C422 1.268 . S
O429 Sc419 2.105 . S
O429 C423 1.268 . S
O430 Sc420 2.105 . S
O430 C424 1.268 . S
O431 Sc418 2.105 . S
O431 C425 1.268 . S
O432 Sc420 2.105 . S
O432 C426 1.268 . S
O433 Sc419 2.105 . S
O433 C427 1.268 . S
O434 Sc418 2.105 . S
O434 C426 1.268 . S
O435 Sc419 2.105 . S
O435 C425 1.268 . S
O436 Sc420 2.105 . S
O436 C427 1.268 . S
O437 Sc418 2.105 . S
O437 C423 1.268 . S
O438 Sc420 2.105 . S
O438 C422 1.268 . S
O439 Sc419 2.105 . S
O439 C424 1.268 . S
Sc440 O443 2.025 . S
Sc440 O450 2.105 . S
Sc440 O453 2.105 . S
Sc440 O456 2.105 . S
Sc440 O459 2.105 . S
Sc441 O443 2.025 . S
Sc441 O451 2.105 . S
Sc441 O455 2.105 . S
Sc441 O457 2.105 . S
Sc441 O461 2.105 . S
Sc442 O443 2.025 . S
Sc442 O452 2.105 . S
Sc442 O454 2.105 . S
Sc442 O458 2.105 . S
Sc442 O460 2.105 . S
O443 Sc440 2.025 . S
O443 Sc441 2.025 . S
O443 Sc442 2.025 . S
C444 O450 1.268 . S
C444 O460 1.268 . S
C445 O451 1.268 . S
C445 O459 1.268 . S
C446 O452 1.268 . S
C446 O461 1.268 . S
C447 O453 1.268 . S
C447 O457 1.268 . S
C448 O454 1.268 . S
C448 O456 1.268 . S
C449 O455 1.268 . S
C449 O458 1.268 . S
O450 Sc440 2.105 . S
O450 C444 1.268 . S
O451 Sc441 2.105 . S
O451 C445 1.268 . S
O452 Sc442 2.105 . S
O452 C446 1.268 . S
O453 Sc440 2.105 . S
O453 C447 1.268 . S
O454 Sc442 2.105 . S
O454 C448 1.268 . S
O455 Sc441 2.105 . S
O455 C449 1.268 . S
O456 Sc440 2.105 . S
O456 C448 1.268 . S
O457 Sc441 2.105 . S
O457 C447 1.268 . S
O458 Sc442 2.105 . S
O458 C449 1.268 . S
O459 Sc440 2.105 . S
O459 C445 1.268 . S
O460 Sc442 2.105 . S
O460 C444 1.268 . S
O461 Sc441 2.105 . S
O461 C446 1.268 . S
Sc462 O465 2.025 . S
Sc462 O472 2.105 . S
Sc462 O475 2.105 1_556 S
Sc462 O478 2.105 1_556 S
Sc462 O481 2.105 . S
Sc463 O465 2.025 . S
Sc463 O473 2.105 . S
Sc463 O477 2.105 . S
Sc463 O479 2.105 . S
Sc463 O483 2.105 . S
Sc464 O465 2.025 . S
Sc464 O474 2.105 . S
Sc464 O476 2.105 1_556 S
Sc464 O480 2.105 . S
Sc464 O482 2.105 . S
O465 Sc462 2.025 . S
O465 Sc463 2.025 . S
O465 Sc464 2.025 . S
C466 O472 1.268 . S
C466 O482 1.268 . S
C467 O473 1.268 . S
C467 O481 1.268 . S
C468 O474 1.268 . S
C468 O483 1.268 . S
C469 O475 1.268 . S
C469 O479 1.268 1_554 S
C470 O476 1.268 . S
C470 O478 1.268 . S
C471 O477 1.268 . S
C471 O480 1.268 . S
O472 Sc462 2.105 . S
O472 C466 1.268 . S
O473 Sc463 2.105 . S
O473 C467 1.268 . S
O474 Sc464 2.105 . S
O474 C468 1.268 . S
O475 Sc462 2.105 1_554 S
O475 C469 1.268 . S
O476 Sc464 2.105 1_554 S
O476 C470 1.268 . S
O477 Sc463 2.105 . S
O477 C471 1.268 . S
O478 Sc462 2.105 1_554 S
O478 C470 1.268 . S
O479 Sc463 2.105 . S
O479 C469 1.268 1_556 S
O480 Sc464 2.105 . S
O480 C471 1.268 . S
O481 Sc462 2.105 . S
O481 C467 1.268 . S
O482 Sc464 2.105 . S
O482 C466 1.268 . S
O483 Sc463 2.105 . S
O483 C468 1.268 . S
Sc484 O487 2.025 . S
Sc484 O494 2.105 . S
Sc484 O497 2.105 1_556 S
Sc484 O500 2.105 1_556 S
Sc484 O503 2.105 . S
Sc485 O487 2.025 . S
Sc485 O495 2.105 . S
Sc485 O499 2.105 . S
Sc485 O501 2.105 . S
Sc485 O505 2.105 . S
Sc486 O487 2.025 . S
Sc486 O496 2.105 . S
Sc486 O498 2.105 1_556 S
Sc486 O502 2.105 . S
Sc486 O504 2.105 . S
O487 Sc484 2.025 . S
O487 Sc485 2.025 . S
O487 Sc486 2.025 . S
C488 O494 1.268 . S
C488 O504 1.268 . S
C489 O495 1.268 . S
C489 O503 1.268 . S
C490 O496 1.268 . S
C490 O505 1.268 . S
C491 O497 1.268 . S
C491 O501 1.268 1_554 S
C492 O498 1.268 . S
C492 O500 1.268 . S
C493 O499 1.268 . S
C493 O502 1.268 . S
O494 Sc484 2.105 . S
O494 C488 1.268 . S
O495 Sc485 2.105 . S
O495 C489 1.268 . S
O496 Sc486 2.105 . S
O496 C490 1.268 . S
O497 Sc484 2.105 1_554 S
O497 C491 1.268 . S
O498 Sc486 2.105 1_554 S
O498 C492 1.268 . S
O499 Sc485 2.105 . S
O499 C493 1.268 . S
O500 Sc484 2.105 1_554 S
O500 C492 1.268 . S
O501 Sc485 2.105 . S
O501 C491 1.268 1_556 S
O502 Sc486 2.105 . S
O502 C493 1.268 . S
O503 Sc484 2.105 . S
O503 C489 1.268 . S
O504 Sc486 2.105 . S
O504 C488 1.268 . S
O505 Sc485 2.105 . S
O505 C490 1.268 . S
Sc506 O509 2.025 . S
Sc506 O516 2.105 . S
Sc506 O519 2.105 1_556 S
Sc506 O522 2.105 1_556 S
Sc506 O525 2.105 . S
Sc507 O509 2.025 . S
Sc507 O517 2.105 . S
Sc507 O521 2.105 . S
Sc507 O523 2.105 . S
Sc507 O527 2.105 . S
Sc508 O509 2.025 . S
Sc508 O518 2.105 . S
Sc508 O520 2.105 1_556 S
Sc508 O524 2.105 . S
Sc508 O526 2.105 . S
O509 Sc506 2.025 . S
O509 Sc507 2.025 . S
O509 Sc508 2.025 . S
C510 O516 1.268 . S
C510 O526 1.268 . S
C511 O517 1.268 . S
C511 O525 1.268 . S
C512 O518 1.268 . S
C512 O527 1.268 . S
C513 O519 1.268 . S
C513 O523 1.268 1_554 S
C514 O520 1.268 . S
C514 O522 1.268 . S
C515 O521 1.268 . S
C515 O524 1.268 . S
O516 Sc506 2.105 . S
O516 C510 1.268 . S
O517 Sc507 2.105 . S
O517 C511 1.268 . S
O518 Sc508 2.105 . S
O518 C512 1.268 . S
O519 Sc506 2.105 1_554 S
O519 C513 1.268 . S
O520 Sc508 2.105 1_554 S
O520 C514 1.268 . S
O521 Sc507 2.105 . S
O521 C515 1.268 . S
O522 Sc506 2.105 1_554 S
O522 C514 1.268 . S
O523 Sc507 2.105 . S
O523 C513 1.268 1_556 S
O524 Sc508 2.105 . S
O524 C515 1.268 . S
O525 Sc506 2.105 . S
O525 C511 1.268 . S
O526 Sc508 2.105 . S
O526 C510 1.268 . S
O527 Sc507 2.105 . S
O527 C512 1.268 . S
Sc528 O531 2.025 . S
Sc528 O538 2.105 . S
Sc528 O541 2.105 . S
Sc528 O544 2.105 . S
Sc528 O547 2.105 . S
Sc529 O531 2.025 . S
Sc529 O539 2.105 . S
Sc529 O543 2.105 . S
Sc529 O545 2.105 . S
Sc529 O549 2.105 . S
Sc530 O531 2.025 . S
Sc530 O540 2.105 . S
Sc530 O542 2.105 . S
Sc530 O546 2.105 . S
Sc530 O548 2.105 . S
O531 Sc528 2.025 . S
O531 Sc529 2.025 . S
O531 Sc530 2.025 . S
C532 O538 1.268 . S
C532 O548 1.268 . S
C533 O539 1.268 . S
C533 O547 1.268 . S
C534 O540 1.268 . S
C534 O549 1.268 . S
C535 O541 1.268 . S
C535 O545 1.268 . S
C536 O542 1.268 . S
C536 O544 1.268 . S
C537 O543 1.268 . S
C537 O546 1.268 . S
O538 Sc528 2.105 . S
O538 C532 1.268 . S
O539 Sc529 2.105 . S
O539 C533 1.268 . S
O540 Sc530 2.105 . S
O540 C534 1.268 . S
O541 Sc528 2.105 . S
O541 C535 1.268 . S
O542 Sc530 2.105 . S
O542 C536 1.268 . S
O543 Sc529 2.105 . S
O543 C537 1.268 . S
O544 Sc528 2.105 . S
O544 C536 1.268 . S
O545 Sc529 2.105 . S
O545 C535 1.268 . S
O546 Sc530 2.105 . S
O546 C537 1.268 . S
O547 Sc528 2.105 . S
O547 C533 1.268 . S
O548 Sc530 2.105 . S
O548 C532 1.268 . S
O549 Sc529 2.105 . S
O549 C534 1.268 . S
Sc550 O553 2.025 . S
Sc550 O560 2.105 . S
Sc550 O563 2.105 . S
Sc550 O566 2.105 . S
Sc550 O569 2.105 . S
Sc551 O553 2.025 . S
Sc551 O561 2.105 . S
Sc551 O565 2.105 . S
Sc551 O567 2.105 . S
Sc551 O571 2.105 . S
Sc552 O553 2.025 . S
Sc552 O562 2.105 . S
Sc552 O564 2.105 . S
Sc552 O568 2.105 . S
Sc552 O570 2.105 . S
O553 Sc550 2.025 . S
O553 Sc551 2.025 . S
O553 Sc552 2.025 . S
C554 O560 1.268 . S
C554 O570 1.268 . S
C555 O561 1.268 . S
C555 O569 1.268 . S
C556 O562 1.268 . S
C556 O571 1.268 . S
C557 O563 1.268 . S
C557 O567 1.268 . S
C558 O564 1.268 . S
C558 O566 1.268 . S
C559 O565 1.268 . S
C559 O568 1.268 . S
O560 Sc550 2.105 . S
O560 C554 1.268 . S
O561 Sc551 2.105 . S
O561 C555 1.268 . S
O562 Sc552 2.105 . S
O562 C556 1.268 . S
O563 Sc550 2.105 . S
O563 C557 1.268 . S
O564 Sc552 2.105 . S
O564 C558 1.268 . S
O565 Sc551 2.105 . S
O565 C559 1.268 . S
O566 Sc550 2.105 . S
O566 C558 1.268 . S
O567 Sc551 2.105 . S
O567 C557 1.268 . S
O568 Sc552 2.105 . S
O568 C559 1.268 . S
O569 Sc550 2.105 . S
O569 C555 1.268 . S
O570 Sc552 2.105 . S
O570 C554 1.268 . S
O571 Sc551 2.105 . S
O571 C556 1.268 . S
Sc572 O575 2.025 . S
Sc572 O582 2.105 . S
Sc572 O585 2.105 . S
Sc572 O588 2.105 . S
Sc572 O591 2.105 . S
Sc573 O575 2.025 . S
Sc573 O583 2.105 . S
Sc573 O587 2.105 . S
Sc573 O589 2.105 . S
Sc573 O593 2.105 . S
Sc574 O575 2.025 . S
Sc574 O584 2.105 . S
Sc574 O586 2.105 . S
Sc574 O590 2.105 . S
Sc574 O592 2.105 . S
O575 Sc572 2.025 . S
O575 Sc573 2.025 . S
O575 Sc574 2.025 . S
C576 O582 1.268 . S
C576 O592 1.268 . S
C577 O583 1.268 . S
C577 O591 1.268 . S
C578 O584 1.268 . S
C578 O593 1.268 . S
C579 O585 1.268 . S
C579 O589 1.268 . S
C580 O586 1.268 . S
C580 O588 1.268 . S
C581 O587 1.268 . S
C581 O590 1.268 . S
O582 Sc572 2.105 . S
O582 C576 1.268 . S
O583 Sc573 2.105 . S
O583 C577 1.268 . S
O584 Sc574 2.105 . S
O584 C578 1.268 . S
O585 Sc572 2.105 . S
O585 C579 1.268 . S
O586 Sc574 2.105 . S
O586 C580 1.268 . S
O587 Sc573 2.105 . S
O587 C581 1.268 . S
O588 Sc572 2.105 . S
O588 C580 1.268 . S
O589 Sc573 2.105 . S
O589 C579 1.268 . S
O590 Sc574 2.105 . S
O590 C581 1.268 . S
O591 Sc572 2.105 . S
O591 C577 1.268 . S
O592 Sc574 2.105 . S
O592 C576 1.268 . S
O593 Sc573 2.105 . S
O593 C578 1.268 . S
Sc594 O597 2.025 . S
Sc594 O604 2.105 . S
Sc594 O607 2.105 . S
Sc594 O610 2.105 1_554 S
Sc594 O613 2.105 . S
Sc595 O597 2.025 . S
Sc595 O605 2.105 . S
Sc595 O609 2.105 . S
Sc595 O611 2.105 . S
Sc595 O615 2.105 . S
Sc596 O597 2.025 . S
Sc596 O606 2.105 . S
Sc596 O608 2.105 1_554 S
Sc596 O612 2.105 1_554 S
Sc596 O614 2.105 . S
O597 Sc594 2.025 . S
O597 Sc595 2.025 . S
O597 Sc596 2.025 . S
C598 O604 1.268 . S
C598 O614 1.268 . S
C599 O605 1.268 . S
C599 O613 1.268 . S
C600 O606 1.268 . S
C600 O615 1.268 . S
C601 O607 1.268 . S
C601 O611 1.268 . S
C602 O608 1.268 . S
C602 O610 1.268 . S
C603 O609 1.268 1_556 S
C603 O612 1.268 . S
O604 Sc594 2.105 . S
O604 C598 1.268 . S
O605 Sc595 2.105 . S
O605 C599 1.268 . S
O606 Sc596 2.105 . S
O606 C600 1.268 . S
O607 Sc594 2.105 . S
O607 C601 1.268 . S
O608 Sc596 2.105 1_556 S
O608 C602 1.268 . S
O609 Sc595 2.105 . S
O609 C603 1.268 1_554 S
O610 Sc594 2.105 1_556 S
O610 C602 1.268 . S
O611 Sc595 2.105 . S
O611 C601 1.268 . S
O612 Sc596 2.105 1_556 S
O612 C603 1.268 . S
O613 Sc594 2.105 . S
O613 C599 1.268 . S
O614 Sc596 2.105 . S
O614 C598 1.268 . S
O615 Sc595 2.105 . S
O615 C600 1.268 . S
Sc616 O619 2.025 . S
Sc616 O626 2.105 . S
Sc616 O629 2.105 . S
Sc616 O632 2.105 1_554 S
Sc616 O635 2.105 . S
Sc617 O619 2.025 . S
Sc617 O627 2.105 . S
Sc617 O631 2.105 . S
Sc617 O633 2.105 . S
Sc617 O637 2.105 . S
Sc618 O619 2.025 . S
Sc618 O628 2.105 . S
Sc618 O630 2.105 1_554 S
Sc618 O634 2.105 1_554 S
Sc618 O636 2.105 . S
O619 Sc616 2.025 . S
O619 Sc617 2.025 . S
O619 Sc618 2.025 . S
C620 O626 1.268 . S
C620 O636 1.268 . S
C621 O627 1.268 . S
C621 O635 1.268 . S
C622 O628 1.268 . S
C622 O637 1.268 . S
C623 O629 1.268 . S
C623 O633 1.268 . S
C624 O630 1.268 . S
C624 O632 1.268 . S
C625 O631 1.268 1_556 S
C625 O634 1.268 . S
O626 Sc616 2.105 . S
O626 C620 1.268 . S
O627 Sc617 2.105 . S
O627 C621 1.268 . S
O628 Sc618 2.105 . S
O628 C622 1.268 . S
O629 Sc616 2.105 . S
O629 C623 1.268 . S
O630 Sc618 2.105 1_556 S
O630 C624 1.268 . S
O631 Sc617 2.105 . S
O631 C625 1.268 1_554 S
O632 Sc616 2.105 1_556 S
O632 C624 1.268 . S
O633 Sc617 2.105 . S
O633 C623 1.268 . S
O634 Sc618 2.105 1_556 S
O634 C625 1.268 . S
O635 Sc616 2.105 . S
O635 C621 1.268 . S
O636 Sc618 2.105 . S
O636 C620 1.268 . S
O637 Sc617 2.105 . S
O637 C622 1.268 . S
Sc638 O641 2.025 . S
Sc638 O648 2.105 . S
Sc638 O651 2.105 . S
Sc638 O654 2.105 1_554 S
Sc638 O657 2.105 . S
Sc639 O641 2.025 . S
Sc639 O649 2.105 . S
Sc639 O653 2.105 . S
Sc639 O655 2.105 . S
Sc639 O659 2.105 . S
Sc640 O641 2.025 . S
Sc640 O650 2.105 . S
Sc640 O652 2.105 1_554 S
Sc640 O656 2.105 1_554 S
Sc640 O658 2.105 . S
O641 Sc638 2.025 . S
O641 Sc639 2.025 . S
O641 Sc640 2.025 . S
C642 O648 1.268 . S
C642 O658 1.268 . S
C643 O649 1.268 . S
C643 O657 1.268 . S
C644 O650 1.268 . S
C644 O659 1.268 . S
C645 O651 1.268 . S
C645 O655 1.268 . S
C646 O652 1.268 . S
C646 O654 1.268 . S
C647 O653 1.268 1_556 S
C647 O656 1.268 . S
O648 Sc638 2.105 . S
O648 C642 1.268 . S
O649 Sc639 2.105 . S
O649 C643 1.268 . S
O650 Sc640 2.105 . S
O650 C644 1.268 . S
O651 Sc638 2.105 . S
O651 C645 1.268 . S
O652 Sc640 2.105 1_556 S
O652 C646 1.268 . S
O653 Sc639 2.105 . S
O653 C647 1.268 1_554 S
O654 Sc638 2.105 1_556 S
O654 C646 1.268 . S
O655 Sc639 2.105 . S
O655 C645 1.268 . S
O656 Sc640 2.105 1_556 S
O656 C647 1.268 . S
O657 Sc638 2.105 . S
O657 C643 1.268 . S
O658 Sc640 2.105 . S
O658 C642 1.268 . S
O659 Sc639 2.105 . S
O659 C644 1.268 . S
Sc660 O663 2.025 . S
Sc660 O670 2.105 . S
Sc660 O673 2.105 . S
Sc660 O676 2.105 . S
Sc660 O679 2.105 . S
Sc661 O663 2.025 . S
Sc661 O671 2.105 . S
Sc661 O675 2.105 . S
Sc661 O677 2.105 . S
Sc661 O681 2.105 . S
Sc662 O663 2.025 . S
Sc662 O672 2.105 . S
Sc662 O674 2.105 . S
Sc662 O678 2.105 . S
Sc662 O680 2.105 . S
O663 Sc660 2.025 . S
O663 Sc661 2.025 . S
O663 Sc662 2.025 . S
C664 O670 1.268 . S
C664 O680 1.268 . S
C665 O671 1.268 . S
C665 O679 1.268 . S
C666 O672 1.268 . S
C666 O681 1.268 . S
C667 O673 1.268 . S
C667 O677 1.268 . S
C668 O674 1.268 . S
C668 O676 1.268 . S
C669 O675 1.268 . S
C669 O678 1.268 . S
O670 Sc660 2.105 . S
O670 C664 1.268 . S
O671 Sc661 2.105 . S
O671 C665 1.268 . S
O672 Sc662 2.105 . S
O672 C666 1.268 . S
O673 Sc660 2.105 . S
O673 C667 1.268 . S
O674 Sc662 2.105 . S
O674 C668 1.268 . S
O675 Sc661 2.105 . S
O675 C669 1.268 . S
O676 Sc660 2.105 . S
O676 C668 1.268 . S
O677 Sc661 2.105 . S
O677 C667 1.268 . S
O678 Sc662 2.105 . S
O678 C669 1.268 . S
O679 Sc660 2.105 . S
O679 C665 1.268 . S
O680 Sc662 2.105 . S
O680 C664 1.268 . S
O681 Sc661 2.105 . S
O681 C666 1.268 . S
Sc682 O685 2.025 . S
Sc682 O692 2.105 . S
Sc682 O695 2.105 . S
Sc682 O698 2.105 . S
Sc682 O701 2.105 . S
Sc683 O685 2.025 . S
Sc683 O693 2.105 . S
Sc683 O697 2.105 . S
Sc683 O699 2.105 . S
Sc683 O703 2.105 . S
Sc684 O685 2.025 . S
Sc684 O694 2.105 . S
Sc684 O696 2.105 . S
Sc684 O700 2.105 . S
Sc684 O702 2.105 . S
O685 Sc682 2.025 . S
O685 Sc683 2.025 . S
O685 Sc684 2.025 . S
C686 O692 1.268 . S
C686 O702 1.268 . S
C687 O693 1.268 . S
C687 O701 1.268 . S
C688 O694 1.268 . S
C688 O703 1.268 . S
C689 O695 1.268 . S
C689 O699 1.268 . S
C690 O696 1.268 . S
C690 O698 1.268 . S
C691 O697 1.268 . S
C691 O700 1.268 . S
O692 Sc682 2.105 . S
O692 C686 1.268 . S
O693 Sc683 2.105 . S
O693 C687 1.268 . S
O694 Sc684 2.105 . S
O694 C688 1.268 . S
O695 Sc682 2.105 . S
O695 C689 1.268 . S
O696 Sc684 2.105 . S
O696 C690 1.268 . S
O697 Sc683 2.105 . S
O697 C691 1.268 . S
O698 Sc682 2.105 . S
O698 C690 1.268 . S
O699 Sc683 2.105 . S
O699 C689 1.268 . S
O700 Sc684 2.105 . S
O700 C691 1.268 . S
O701 Sc682 2.105 . S
O701 C687 1.268 . S
O702 Sc684 2.105 . S
O702 C686 1.268 . S
O703 Sc683 2.105 . S
O703 C688 1.268 . S
Sc704 O707 2.025 . S
Sc704 O714 2.105 . S
Sc704 O717 2.105 . S
Sc704 O720 2.105 . S
Sc704 O723 2.105 . S
Sc705 O707 2.025 . S
Sc705 O715 2.105 . S
Sc705 O719 2.105 . S
Sc705 O721 2.105 . S
Sc705 O725 2.105 . S
Sc706 O707 2.025 . S
Sc706 O716 2.105 . S
Sc706 O718 2.105 . S
Sc706 O722 2.105 . S
Sc706 O724 2.105 . S
O707 Sc704 2.025 . S
O707 Sc705 2.025 . S
O707 Sc706 2.025 . S
C708 O714 1.268 . S
C708 O724 1.268 . S
C709 O715 1.268 . S
C709 O723 1.268 . S
C710 O716 1.268 . S
C710 O725 1.268 . S
C711 O717 1.268 . S
C711 O721 1.268 . S
C712 O718 1.268 . S
C712 O720 1.268 . S
C713 O719 1.268 . S
C713 O722 1.268 . S
O714 Sc704 2.105 . S
O714 C708 1.268 . S
O715 Sc705 2.105 . S
O715 C709 1.268 . S
O716 Sc706 2.105 . S
O716 C710 1.268 . S
O717 Sc704 2.105 . S
O717 C711 1.268 . S
O718 Sc706 2.105 . S
O718 C712 1.268 . S
O719 Sc705 2.105 . S
O719 C713 1.268 . S
O720 Sc704 2.105 . S
O720 C712 1.268 . S
O721 Sc705 2.105 . S
O721 C711 1.268 . S
O722 Sc706 2.105 . S
O722 C713 1.268 . S
O723 Sc704 2.105 . S
O723 C709 1.268 . S
O724 Sc706 2.105 . S
O724 C708 1.268 . S
O725 Sc705 2.105 . S
O725 C710 1.268 . S
Sc726 O729 2.025 . S
Sc726 O736 2.105 . S
Sc726 O739 2.105 . S
Sc726 O742 2.105 . S
Sc726 O745 2.105 . S
Sc727 O729 2.025 . S
Sc727 O737 2.105 . S
Sc727 O741 2.105 . S
Sc727 O743 2.105 . S
Sc727 O747 2.105 . S
Sc728 O729 2.025 . S
Sc728 O738 2.105 . S
Sc728 O740 2.105 . S
Sc728 O744 2.105 . S
Sc728 O746 2.105 . S
O729 Sc726 2.025 . S
O729 Sc727 2.025 . S
O729 Sc728 2.025 . S
C730 O736 1.268 . S
C730 O746 1.268 . S
C731 O737 1.268 . S
C731 O745 1.268 . S
C732 O738 1.268 . S
C732 O747 1.268 . S
C733 O739 1.268 . S
C733 O743 1.268 . S
C734 O740 1.268 . S
C734 O742 1.268 . S
C735 O741 1.268 . S
C735 O744 1.268 . S
O736 Sc726 2.105 . S
O736 C730 1.268 . S
O737 Sc727 2.105 . S
O737 C731 1.268 . S
O738 Sc728 2.105 . S
O738 C732 1.268 . S
O739 Sc726 2.105 . S
O739 C733 1.268 . S
O740 Sc728 2.105 . S
O740 C734 1.268 . S
O741 Sc727 2.105 . S
O741 C735 1.268 . S
O742 Sc726 2.105 . S
O742 C734 1.268 . S
O743 Sc727 2.105 . S
O743 C733 1.268 . S
O744 Sc728 2.105 . S
O744 C735 1.268 . S
O745 Sc726 2.105 . S
O745 C731 1.268 . S
O746 Sc728 2.105 . S
O746 C730 1.268 . S
O747 Sc727 2.105 . S
O747 C732 1.268 . S
Sc748 O751 2.025 . S
Sc748 O758 2.105 . S
Sc748 O761 2.105 . S
Sc748 O764 2.105 . S
Sc748 O767 2.105 . S
Sc749 O751 2.025 . S
Sc749 O759 2.105 . S
Sc749 O763 2.105 . S
Sc749 O765 2.105 . S
Sc749 O769 2.105 . S
Sc750 O751 2.025 . S
Sc750 O760 2.105 . S
Sc750 O762 2.105 . S
Sc750 O766 2.105 . S
Sc750 O768 2.105 . S
O751 Sc748 2.025 . S
O751 Sc749 2.025 . S
O751 Sc750 2.025 . S
C752 O758 1.268 . S
C752 O768 1.268 . S
C753 O759 1.268 . S
C753 O767 1.268 . S
C754 O760 1.268 . S
C754 O769 1.268 . S
C755 O761 1.268 . S
C755 O765 1.268 . S
C756 O762 1.268 . S
C756 O764 1.268 . S
C757 O763 1.268 . S
C757 O766 1.268 . S
O758 Sc748 2.105 . S
O758 C752 1.268 . S
O759 Sc749 2.105 . S
O759 C753 1.268 . S
O760 Sc750 2.105 . S
O760 C754 1.268 . S
O761 Sc748 2.105 . S
O761 C755 1.268 . S
O762 Sc750 2.105 . S
O762 C756 1.268 . S
O763 Sc749 2.105 . S
O763 C757 1.268 . S
O764 Sc748 2.105 . S
O764 C756 1.268 . S
O765 Sc749 2.105 . S
O765 C755 1.268 . S
O766 Sc750 2.105 . S
O766 C757 1.268 . S
O767 Sc748 2.105 . S
O767 C753 1.268 . S
O768 Sc750 2.105 . S
O768 C752 1.268 . S
O769 Sc749 2.105 . S
O769 C754 1.268 . S
Sc770 O773 2.025 . S
Sc770 O780 2.105 . S
Sc770 O783 2.105 . S
Sc770 O786 2.105 . S
Sc770 O789 2.105 . S
Sc771 O773 2.025 . S
Sc771 O781 2.105 . S
Sc771 O785 2.105 . S
Sc771 O787 2.105 . S
Sc771 O791 2.105 . S
Sc772 O773 2.025 . S
Sc772 O782 2.105 . S
Sc772 O784 2.105 . S
Sc772 O788 2.105 . S
Sc772 O790 2.105 . S
O773 Sc770 2.025 . S
O773 Sc771 2.025 . S
O773 Sc772 2.025 . S
C774 O780 1.268 . S
C774 O790 1.268 . S
C775 O781 1.268 . S
C775 O789 1.268 . S
C776 O782 1.268 . S
C776 O791 1.268 . S
C777 O783 1.268 . S
C777 O787 1.268 . S
C778 O784 1.268 . S
C778 O786 1.268 . S
C779 O785 1.268 . S
C779 O788 1.268 . S
O780 Sc770 2.105 . S
O780 C774 1.268 . S
O781 Sc771 2.105 . S
O781 C775 1.268 . S
O782 Sc772 2.105 . S
O782 C776 1.268 . S
O783 Sc770 2.105 . S
O783 C777 1.268 . S
O784 Sc772 2.105 . S
O784 C778 1.268 . S
O785 Sc771 2.105 . S
O785 C779 1.268 . S
O786 Sc770 2.105 . S
O786 C778 1.268 . S
O787 Sc771 2.105 . S
O787 C777 1.268 . S
O788 Sc772 2.105 . S
O788 C779 1.268 . S
O789 Sc770 2.105 . S
O789 C775 1.268 . S
O790 Sc772 2.105 . S
O790 C774 1.268 . S
O791 Sc771 2.105 . S
O791 C776 1.268 . S
C4 C159 1.258 . S
C181 C26 1.258 . S
C48 C137 1.258 . S
C247 C70 1.258 . S
C92 C203 1.258 . S
C114 C225 1.258 . S
C136 C28 1.258 . S
C50 C158 1.258 . S
C6 C180 1.258 . S
C116 C202 1.258 . S
C72 C224 1.258 . S
C94 C246 1.258 . S
C268 C423 1.258 . S
C445 C290 1.258 . S
C401 C312 1.258 . S
C334 C511 1.258 . S
C467 C356 1.258 . S
C378 C489 1.258 . S
C400 C292 1.258 . S
C314 C422 1.258 . S
C444 C270 1.258 . S
C380 C466 1.258 . S
C336 C488 1.258 . S
C510 C358 1.258 . S
C532 C687 1.258 . S
C554 C709 1.258 . S
C665 C576 1.258 . S
C775 C598 1.258 . S
C620 C731 1.258 . S
C753 C642 1.258 . S
C556 C664 1.258 . S
C686 C578 1.258 . S
C534 C708 1.258 . S
C730 C644 1.258 . S
C752 C600 1.258 . S
C774 C622 1.258 . S
C5 C250 1.890 . S
C27 C206 1.890 . S
C49 C228 1.890 . S
C71 C162 1.890 . S
C184 C93 1.890 . S
C140 C115 1.890 . S
C118 C138 1.890 . S
C160 C74 1.890 . S
C96 C182 1.890 . S
C30 C204 1.890 . S
C226 C52 1.890 . S
C248 C8 1.890 . S
C514 C269 1.890 . S
C470 C291 1.890 . S
C492 C313 1.890 . S
C335 C426 1.890 1_556 S
C448 C357 1.890 1_554 S
C404 C379 1.890 1_554 S
C382 C402 1.890 . S
C338 C424 1.890 . S
C446 C360 1.890 . S
C294 C468 1.890 . S
C490 C316 1.890 . S
C272 C512 1.890 . S
C533 C778 1.890 . S
C734 C555 1.890 . S
C756 C577 1.890 . S
C690 C599 1.890 . S
C712 C621 1.890 . S
C668 C643 1.890 . S
C666 C646 1.890 . S
C602 C688 1.890 . S
C624 C710 1.890 . S
C732 C558 1.890 1_554 S
C580 C754 1.890 1_556 S
C776 C536 1.890 1_554 S
C9 C97 1.225 1_455 S
C31 C119 1.225 . S
C53 C75 1.225 1_565 S
C227 C139 1.225 1_455 S
C249 C161 1.225 . S
C205 C183 1.225 1_565 S
C361 C273 1.225 . S
C383 C295 1.225 . S
C317 C339 1.225 . S
C403 C491 1.225 . S
C425 C513 1.225 . S
C447 C469 1.225 . S
C537 C625 1.225 . S
C647 C559 1.225 . S
C603 C581 1.225 . S
C755 C667 1.225 . S
C777 C689 1.225 . S
C711 C733 1.225 . S
C7 C645 1.599 . S
C29 C601 1.599 . S
C623 C51 1.599 . S
C293 C73 1.599 . S
C315 C95 1.599 . S
C117 C271 1.599 . S
C515 C141 1.599 . S
C163 C471 1.599 . S
C493 C185 1.599 . S
C207 C691 1.599 . S
C713 C229 1.599 . S
C669 C251 1.599 . S
C337 C557 1.599 1_655 S
C359 C579 1.599 . S
C381 C535 1.599 1_545 S
C405 C779 1.599 1_545 S
C427 C735 1.599 1_655 S
C757 C449 1.599 . S
