# Generated by pormake.
# Topology wlh, (5)-cn, num edge types: 1
# Building blocks:
#     Node 0, Type 0, BuildingBlock: XOMCOT_clean_sbu_1, # of connection points: 5
#     Node 1, Type 0, BuildingBlock: XOMCOT_clean_sbu_1, # of connection points: 5
#     Node 2, Type 0, BuildingBlock: XOMCOT_clean_sbu_1, # of connection points: 5
#     Node 3, Type 0, BuildingBlock: XOMCOT_clean_sbu_1, # of connection points: 5
#     Node 4, Type 0, BuildingBlock: XOMCOT_clean_sbu_1, # of connection points: 5
#     Node 5, Type 0, BuildingBlock: XOMCOT_clean_sbu_1, # of connection points: 5
#     Node 6, Type 0, BuildingBlock: XOMCOT_clean_sbu_1, # of connection points: 5
#     Node 7, Type 0, BuildingBlock: XOMCOT_clean_sbu_1, # of connection points: 5
#     Node 8, Type 0, BuildingBlock: XOMCOT_clean_sbu_1, # of connection points: 5
#     Node 9, Type 0, BuildingBlock: XOMCOT_clean_sbu_1, # of connection points: 5
#     Node 10, Type 0, BuildingBlock: XOMCOT_clean_sbu_1, # of connection points: 5
#     Node 11, Type 0, BuildingBlock: XOMCOT_clean_sbu_1, # of connection points: 5
#     Node 12, Type 0, BuildingBlock: XOMCOT_clean_sbu_1, # of connection points: 5
#     Node 13, Type 0, BuildingBlock: XOMCOT_clean_sbu_1, # of connection points: 5
#     Node 14, Type 0, BuildingBlock: XOMCOT_clean_sbu_1, # of connection points: 5
#     Node 15, Type 0, BuildingBlock: XOMCOT_clean_sbu_1, # of connection points: 5
#     Node 16, Type 0, BuildingBlock: XOMCOT_clean_sbu_1, # of connection points: 5
#     Node 17, Type 0, BuildingBlock: XOMCOT_clean_sbu_1, # of connection points: 5
#     Node 18, Type 0, BuildingBlock: XOMCOT_clean_sbu_1, # of connection points: 5
#     Node 19, Type 0, BuildingBlock: XOMCOT_clean_sbu_1, # of connection points: 5
#     Node 20, Type 0, BuildingBlock: XOMCOT_clean_sbu_1, # of connection points: 5
#     Node 21, Type 0, BuildingBlock: XOMCOT_clean_sbu_1, # of connection points: 5
#     Node 22, Type 0, BuildingBlock: XOMCOT_clean_sbu_1, # of connection points: 5
#     Node 23, Type 0, BuildingBlock: XOMCOT_clean_sbu_1, # of connection points: 5
#     Node 24, Type 0, BuildingBlock: XOMCOT_clean_sbu_1, # of connection points: 5
#     Node 25, Type 0, BuildingBlock: XOMCOT_clean_sbu_1, # of connection points: 5
#     Node 26, Type 0, BuildingBlock: XOMCOT_clean_sbu_1, # of connection points: 5
#     Node 27, Type 0, BuildingBlock: XOMCOT_clean_sbu_1, # of connection points: 5
#     Node 28, Type 0, BuildingBlock: XOMCOT_clean_sbu_1, # of connection points: 5
#     Node 29, Type 0, BuildingBlock: XOMCOT_clean_sbu_1, # of connection points: 5
#     Node 30, Type 0, BuildingBlock: XOMCOT_clean_sbu_1, # of connection points: 5
#     Node 31, Type 0, BuildingBlock: XOMCOT_clean_sbu_1, # of connection points: 5
#     Node 32, Type 0, BuildingBlock: XOMCOT_clean_sbu_1, # of connection points: 5
#     Node 33, Type 0, BuildingBlock: XOMCOT_clean_sbu_1, # of connection points: 5
#     Node 34, Type 0, BuildingBlock: XOMCOT_clean_sbu_1, # of connection points: 5
#     Node 35, Type 0, BuildingBlock: XOMCOT_clean_sbu_1, # of connection points: 5
#     Edge 36, Type (0, 0), None
#     Edge 37, Type (0, 0), None
#     Edge 38, Type (0, 0), None
#     Edge 39, Type (0, 0), None
#     Edge 40, Type (0, 0), None
#     Edge 41, Type (0, 0), None
#     Edge 42, Type (0, 0), None
#     Edge 43, Type (0, 0), None
#     Edge 44, Type (0, 0), None
#     Edge 45, Type (0, 0), None
#     Edge 46, Type (0, 0), None
#     Edge 47, Type (0, 0), None
#     Edge 48, Type (0, 0), None
#     Edge 49, Type (0, 0), None
#     Edge 50, Type (0, 0), None
#     Edge 51, Type (0, 0), None
#     Edge 52, Type (0, 0), None
#     Edge 53, Type (0, 0), None
#     Edge 54, Type (0, 0), None
#     Edge 55, Type (0, 0), None
#     Edge 56, Type (0, 0), None
#     Edge 57, Type (0, 0), None
#     Edge 58, Type (0, 0), None
#     Edge 59, Type (0, 0), None
#     Edge 60, Type (0, 0), None
#     Edge 61, Type (0, 0), None
#     Edge 62, Type (0, 0), None
#     Edge 63, Type (0, 0), None
#     Edge 64, Type (0, 0), None
#     Edge 65, Type (0, 0), None
#     Edge 66, Type (0, 0), None
#     Edge 67, Type (0, 0), None
#     Edge 68, Type (0, 0), None
#     Edge 69, Type (0, 0), None
#     Edge 70, Type (0, 0), None
#     Edge 71, Type (0, 0), None
#     Edge 72, Type (0, 0), None
#     Edge 73, Type (0, 0), None
#     Edge 74, Type (0, 0), None
#     Edge 75, Type (0, 0), None
#     Edge 76, Type (0, 0), None
#     Edge 77, Type (0, 0), None
#     Edge 78, Type (0, 0), None
#     Edge 79, Type (0, 0), None
#     Edge 80, Type (0, 0), None
#     Edge 81, Type (0, 0), None
#     Edge 82, Type (0, 0), None
#     Edge 83, Type (0, 0), None
#     Edge 84, Type (0, 0), None
#     Edge 85, Type (0, 0), None
#     Edge 86, Type (0, 0), None
#     Edge 87, Type (0, 0), None
#     Edge 88, Type (0, 0), None
#     Edge 89, Type (0, 0), None
#     Edge 90, Type (0, 0), None
#     Edge 91, Type (0, 0), None
#     Edge 92, Type (0, 0), None
#     Edge 93, Type (0, 0), None
#     Edge 94, Type (0, 0), None
#     Edge 95, Type (0, 0), None
#     Edge 96, Type (0, 0), None
#     Edge 97, Type (0, 0), None
#     Edge 98, Type (0, 0), None
#     Edge 99, Type (0, 0), None
#     Edge 100, Type (0, 0), None
#     Edge 101, Type (0, 0), None
#     Edge 102, Type (0, 0), None
#     Edge 103, Type (0, 0), None
#     Edge 104, Type (0, 0), None
#     Edge 105, Type (0, 0), None
#     Edge 106, Type (0, 0), None
#     Edge 107, Type (0, 0), None
#     Edge 108, Type (0, 0), None
#     Edge 109, Type (0, 0), None
#     Edge 110, Type (0, 0), None
#     Edge 111, Type (0, 0), None
#     Edge 112, Type (0, 0), None
#     Edge 113, Type (0, 0), None
#     Edge 114, Type (0, 0), None
#     Edge 115, Type (0, 0), None
#     Edge 116, Type (0, 0), None
#     Edge 117, Type (0, 0), None
#     Edge 118, Type (0, 0), None
#     Edge 119, Type (0, 0), None
#     Edge 120, Type (0, 0), None
#     Edge 121, Type (0, 0), None
#     Edge 122, Type (0, 0), None
#     Edge 123, Type (0, 0), None
#     Edge 124, Type (0, 0), None
#     Edge 125, Type (0, 0), None
# Relax obj value: 0.341
# Max RMSD: 0.226
# Mean RMSD: 0.226
data_MOF--net-wlh--node1-XOMCOT_clean_sbu_1--edge1-none
_symmetry_space_group_name_H-M    P1
_symmetry_Int_Tables_number       1
_symmetry_cell_setting            triclinic
loop_
_symmetry_equiv_pos_as_xyz
'x, y, z'
_cell_length_a     18.792882
_cell_length_b     18.793298
_cell_length_c     86.599027
_cell_angle_alpha  90.000647
_cell_angle_beta   89.9989
_cell_angle_gamma 120.00274
loop_
_atom_site_label
_atom_site_type_symbol
_atom_site_fract_x
_atom_site_fract_y
_atom_site_fract_z
_atom_type_partial_charge
C0 C 0.26795 0.31606 0.16936 0.0
C1 C 0.31085 0.27512 0.17048 0.0
N2 N 0.26599 0.20029 0.16398 0.0
N3 N 0.19549 0.26725 0.16242 0.0
C4 C 0.19547 0.19644 0.15926 0.0
H5 H 0.28864 0.37832 0.17309 0.0
Co6 Co 0.12744 0.30944 0.15746 0.0
C7 C 0.95973 0.16754 0.16333 0.0
O8 O 0.94616 0.21918 0.17131 0.0
N9 N 0.06366 0.35959 0.15176 0.0
C10 C 0.9682 0.39156 0.14499 0.0
C11 C 0.98436 0.32876 0.14743 0.0
C12 C 0.09556 0.4421 0.15041 0.0
N13 N 1.03905 0.46317 0.14616 0.0
O14 O 0.15683 0.30668 0.13622 0.0
H15 H 0.94073 0.26503 0.14525 0.0
H16 H 0.16001 0.48609 0.15212 0.0
O17 O 1.02859 0.19443 0.15611 0.0
C18 C 0.22432 0.36653 0.1311 0.0
O19 O 0.24551 0.44151 0.13544 0.0
N20 N 0.10598 0.313 0.17891 0.0
C21 C 0.07007 0.30295 0.21057 0.0
C22 C 0.06363 0.23565 0.20238 0.0
C23 C 0.08683 0.24364 0.18712 0.0
C24 C 0.11285 0.38011 0.18644 0.0
C25 C 0.09563 0.37658 0.20236 0.0
H26 H 0.08425 0.19076 0.18167 0.0
H27 H 0.13294 0.43697 0.18029 0.0
H28 H 0.14593 0.14434 0.15339 0.0
H29 H 0.37144 0.29933 0.1755 0.0
H30 H 0.90989 0.38447 0.14148 0.0
H31 H 1.04034 0.17558 0.20748 0.0
H32 H 0.10343 0.43115 0.2081 0.0
C33 C 0.78641 0.9724 0.16936 0.0
C34 C 0.82736 0.05624 0.17049 0.0
N35 N 0.90219 0.08621 0.16399 0.0
N36 N 0.83521 0.94875 0.16242 0.0
C37 C 0.90602 1.01954 0.15926 0.0
H38 H 0.72414 0.93083 0.1731 0.0
Co39 Co 0.79301 0.8385 0.15746 0.0
C40 C 0.93492 0.8127 0.16333 0.0
O41 O 0.88327 0.74748 0.17131 0.0
N42 N 0.74286 0.72457 0.15176 0.0
C43 C 0.7109 0.59715 0.14499 0.0
C44 C 0.7737 0.67612 0.14743 0.0
C45 C 0.66036 0.67396 0.15041 0.0
N46 N 0.63928 0.59638 0.14616 0.0
O47 O 0.79577 0.87066 0.13623 0.0
H48 H 0.83743 0.69623 0.14524 0.0
H49 H 0.61636 0.69441 0.15212 0.0
O50 O 0.90802 0.85467 0.15611 0.0
C51 C 0.73593 0.8783 0.1311 0.0
O52 O 0.66094 0.8245 0.13544 0.0
N53 N 0.78945 0.81348 0.17891 0.0
C54 C 0.7995 0.78761 0.21057 0.0
C55 C 0.8668 0.84848 0.20238 0.0
C56 C 0.85882 0.86369 0.18712 0.0
C57 C 0.72234 0.75323 0.18644 0.0
C58 C 0.72586 0.73954 0.20236 0.0
H59 H 0.91169 0.91399 0.18167 0.0
H60 H 0.66547 0.71646 0.18029 0.0
H61 H 0.95812 1.02211 0.15338 0.0
H62 H 0.80315 0.09261 0.1755 0.0
H63 H 0.71799 0.54593 0.14148 0.0
H64 H 0.92688 0.88526 0.20748 0.0
H65 H 0.6713 0.69278 0.2081 0.0
C66 C 0.13005 0.83453 0.16936 0.0
C67 C 1.04621 0.79164 0.17049 0.0
N68 N 1.01625 0.8365 0.16399 0.0
N69 N 0.15371 0.90699 0.16243 0.0
C70 C 0.08292 0.90701 0.15926 0.0
H71 H 0.17162 0.81384 0.1731 0.0
Co72 Co 0.26396 0.97503 0.15746 0.0
C73 C 0.28977 0.14275 0.16333 0.0
O74 O 0.35498 0.15633 0.17131 0.0
N75 N 0.37789 1.03881 0.15176 0.0
C76 C 0.50533 0.13427 0.14499 0.0
C77 C 0.42636 0.1181 0.14743 0.0
C78 C 0.42849 1.00691 0.15041 0.0
N79 N 0.50609 0.06342 0.14616 0.0
O80 O 0.2318 0.94563 0.13623 0.0
H81 H 0.40627 0.16173 0.14525 0.0
H82 H 0.40803 0.94246 0.15213 0.0
O83 O 0.24781 0.07388 0.15611 0.0
C84 C 0.22417 0.87814 0.1311 0.0
O85 O 0.27797 0.85696 0.13544 0.0
N86 N 0.28898 0.9965 0.17891 0.0
C87 C 0.31486 1.03243 0.21058 0.0
C88 C 0.254 1.03887 0.20238 0.0
C89 C 0.23878 1.01567 0.18712 0.0
C90 C 0.34923 0.98964 0.18644 0.0
C91 C 0.36292 1.00686 0.20236 0.0
H92 H 0.18848 1.01825 0.18167 0.0
H93 H 0.38599 0.96954 0.18029 0.0
H94 H 0.08036 0.95653 0.15339 0.0
H95 H 1.00983 0.73106 0.17551 0.0
H96 H 0.55656 0.19258 0.14149 0.0
H97 H 0.21722 0.06217 0.20748 0.0
H98 H 0.40968 0.99906 0.2081 0.0
C99 C 0.33655 0.24748 0.26878 0.0
C100 C 0.2956 0.29038 0.26765 0.0
N101 N 0.22078 0.24552 0.27416 0.0
N102 N 0.28774 0.17502 0.27572 0.0
C103 C 0.21693 0.175 0.27888 0.0
H104 H 0.39881 0.26817 0.26505 0.0
Co105 Co 0.32993 0.10697 0.28068 0.0
C106 C 0.18802 0.93926 0.27481 0.0
O107 O 0.23967 0.9257 0.26683 0.0
N108 N 0.38008 0.04319 0.28638 0.0
C109 C 0.41203 0.94773 0.29315 0.0
C110 C 0.34924 0.9639 0.29071 0.0
C111 C 0.46258 0.07509 0.28773 0.0
N112 N 0.48365 1.01858 0.29198 0.0
O113 O 0.32717 0.13636 0.30192 0.0
H114 H 0.28551 0.92027 0.29289 0.0
H115 H 0.50658 0.13953 0.28602 0.0
O116 O 0.21492 1.00812 0.28203 0.0
C117 C 0.38701 0.20385 0.30704 0.0
O118 O 0.462 0.22504 0.3027 0.0
N119 N 0.33349 0.08552 0.25923 0.0
C120 C 0.32344 0.04961 0.22756 0.0
C121 C 0.25615 0.04317 0.23576 0.0
C122 C 0.26413 0.06636 0.25102 0.0
C123 C 0.4006 0.09238 0.2517 0.0
C124 C 0.39708 0.07517 0.23578 0.0
H125 H 0.21125 0.06378 0.25647 0.0
H126 H 0.45747 0.11247 0.25785 0.0
H127 H 0.16483 0.12547 0.28475 0.0
H128 H 0.31981 0.35096 0.26264 0.0
H129 H 0.40494 0.88942 0.29666 0.0
H130 H 0.19607 1.01988 0.23066 0.0
H131 H 0.45164 0.08296 0.23004 0.0
C132 C 0.855 0.10958 0.26878 0.0
C133 C 0.8121 1.02573 0.26765 0.0
N134 N 0.85696 0.99577 0.27415 0.0
N135 N 0.92746 0.13324 0.27572 0.0
C136 C 0.92748 0.06245 0.27888 0.0
H137 H 0.83432 0.15115 0.26504 0.0
Co138 Co 0.99551 0.24348 0.28068 0.0
C139 C 0.16323 0.2693 0.27481 0.0
O140 O 0.1768 0.3345 0.26683 0.0
N141 N 1.05929 0.35741 0.28637 0.0
C142 C 0.15476 0.48485 0.29315 0.0
C143 C 0.13859 0.40588 0.29071 0.0
C144 C 1.02739 0.40802 0.28773 0.0
N145 N 0.0839 0.48561 0.29198 0.0
O146 O 0.96611 0.21133 0.30191 0.0
H147 H 0.18222 0.38579 0.29289 0.0
H148 H 0.96294 0.38756 0.28601 0.0
O149 O 0.09437 0.22733 0.28203 0.0
C150 C 0.89863 0.20369 0.30704 0.0
O151 O 0.87744 0.25749 0.3027 0.0
N152 N 1.01698 0.2685 0.25923 0.0
C153 C 1.05289 0.29436 0.22756 0.0
C154 C 1.05933 0.2335 0.23576 0.0
C155 C 1.03614 0.2183 0.25102 0.0
C156 C 1.01011 0.32874 0.2517 0.0
C157 C 1.02733 0.34243 0.23578 0.0
H158 H 1.03872 0.168 0.25647 0.0
H159 H 0.99002 0.36551 0.25785 0.0
H160 H 0.97702 0.05988 0.28475 0.0
H161 H 0.75152 0.98936 0.26264 0.0
H162 H 0.21307 0.53608 0.29665 0.0
H163 H 0.08263 0.19673 0.23066 0.0
H164 H 1.01953 0.38919 0.23004 0.0
C165 C 0.99289 0.76595 0.26877 0.0
C166 C 0.07673 0.8069 0.26765 0.0
N167 N 0.1067 0.88173 0.27415 0.0
N168 N 0.96923 0.81474 0.27571 0.0
C169 C 1.04002 0.88556 0.27888 0.0
H170 H 0.95131 0.70369 0.26504 0.0
Co171 Co 0.85898 0.77254 0.28068 0.0
C172 C 0.83318 0.91445 0.27481 0.0
O173 O 0.76796 0.86281 0.26683 0.0
N174 N 0.74505 0.72239 0.28638 0.0
C175 C 0.61762 0.69043 0.29315 0.0
C176 C 0.69659 0.75322 0.29071 0.0
C177 C 0.69444 0.63989 0.28773 0.0
N178 N 0.61685 0.61881 0.29198 0.0
O179 O 0.89114 0.7753 0.30191 0.0
H180 H 0.7167 0.81695 0.2929 0.0
H181 H 0.71489 0.59589 0.28601 0.0
O182 O 0.87514 0.88755 0.28203 0.0
C183 C 0.89878 0.71545 0.30704 0.0
O184 O 0.84498 0.64047 0.3027 0.0
N185 N 0.83396 0.76899 0.25923 0.0
C186 C 0.80809 0.77903 0.22756 0.0
C187 C 0.86895 0.84633 0.23576 0.0
C188 C 0.88416 0.83835 0.25102 0.0
C189 C 0.77371 0.70187 0.2517 0.0
C190 C 0.76002 0.70539 0.23578 0.0
H191 H 0.93446 0.89123 0.25647 0.0
H192 H 0.73694 0.64501 0.25785 0.0
H193 H 1.04259 0.93765 0.28475 0.0
H194 H 0.11311 0.7827 0.26263 0.0
H195 H 0.5664 0.69751 0.29666 0.0
H196 H 0.90573 0.90641 0.23066 0.0
H197 H 0.71325 0.65083 0.23004 0.0
C198 C 0.8549 0.76584 0.76878 0.0
C199 C 0.81201 0.80678 0.76766 0.0
N200 N 0.85686 0.8816 0.77416 0.0
N201 N 0.92737 0.81464 0.77572 0.0
C202 C 0.92739 0.88545 0.77888 0.0
H203 H 0.83421 0.70357 0.76505 0.0
Co204 Co 0.99542 0.77245 0.78068 0.0
C205 C 0.16313 0.91436 0.77481 0.0
O206 O 0.1767 0.86272 0.76683 0.0
N207 N 1.0592 0.72231 0.78638 0.0
C208 C 0.15466 0.69034 0.79315 0.0
C209 C 0.13849 0.75314 0.79071 0.0
C210 C 1.0273 0.6398 0.78773 0.0
N211 N 0.08381 0.61873 0.79198 0.0
O212 O 0.96603 0.77521 0.80192 0.0
H213 H 0.18212 0.81687 0.79289 0.0
H214 H 0.96285 0.59581 0.78602 0.0
O215 O 0.09427 0.88746 0.78203 0.0
C216 C 0.89854 0.71537 0.80704 0.0
O217 O 0.87735 0.64039 0.8027 0.0
N218 N 1.01688 0.76889 0.75923 0.0
C219 C 1.05279 0.77895 0.72756 0.0
C220 C 1.05923 0.84624 0.73576 0.0
C221 C 1.03603 0.83826 0.75102 0.0
C222 C 1.01001 0.70178 0.7517 0.0
C223 C 1.02723 0.70531 0.73578 0.0
H224 H 1.03861 0.89113 0.75647 0.0
H225 H 0.98992 0.64492 0.75785 0.0
H226 H 0.97692 0.93756 0.78475 0.0
H227 H 0.75142 0.78256 0.76264 0.0
H228 H 0.21297 0.69743 0.79666 0.0
H229 H 0.08252 0.90632 0.73066 0.0
H230 H 1.01943 0.65075 0.73004 0.0
C231 C 0.33645 0.10949 0.76878 0.0
C232 C 0.2955 1.02565 0.76765 0.0
N233 N 0.22067 0.99569 0.77415 0.0
N234 N 0.28765 0.13315 0.77571 0.0
C235 C 0.21684 0.06236 0.77888 0.0
H236 H 0.39871 0.15107 0.76504 0.0
Co237 Co 0.32984 0.24339 0.78068 0.0
C238 C 0.18794 0.26919 0.77481 0.0
O239 O 0.23958 0.33441 0.76683 0.0
N240 N 0.37999 0.35732 0.78638 0.0
C241 C 0.41195 0.48474 0.79315 0.0
C242 C 0.34915 0.40577 0.79071 0.0
C243 C 0.4625 0.40794 0.78773 0.0
N244 N 0.48357 0.48552 0.79198 0.0
O245 O 0.32708 0.21123 0.80191 0.0
H246 H 0.28542 0.38566 0.7929 0.0
H247 H 0.5065 0.38749 0.78602 0.0
O248 O 0.21483 0.22723 0.78203 0.0
C249 C 0.38693 0.20359 0.80704 0.0
O250 O 0.46191 0.25739 0.8027 0.0
N251 N 0.3334 0.26842 0.75923 0.0
C252 C 0.32335 0.29428 0.72756 0.0
C253 C 0.25605 0.23342 0.73576 0.0
C254 C 0.26404 0.21821 0.75102 0.0
C255 C 0.40052 0.32867 0.7517 0.0
C256 C 0.39699 0.34236 0.73578 0.0
H257 H 0.21116 0.16791 0.75647 0.0
H258 H 0.45738 0.36544 0.75785 0.0
H259 H 0.16474 0.05979 0.78475 0.0
H260 H 0.3197 0.98928 0.76263 0.0
H261 H 0.40486 0.53596 0.79666 0.0
H262 H 0.19598 0.19664 0.73066 0.0
H263 H 0.45155 0.38912 0.73004 0.0
C264 C 0.9928 0.24736 0.76877 0.0
C265 C 0.07665 0.29025 0.76765 0.0
N266 N 0.10661 0.2454 0.77415 0.0
N267 N 0.96914 0.17491 0.77571 0.0
C268 C 1.03993 0.17489 0.77888 0.0
H269 H 0.95123 0.26805 0.76504 0.0
Co270 Co 0.85889 0.10686 0.78068 0.0
C271 C 0.83309 0.93915 0.77481 0.0
O272 O 0.76787 0.92557 0.76683 0.0
N273 N 0.74496 0.04308 0.78638 0.0
C274 C 0.61753 0.94762 0.79315 0.0
C275 C 0.6965 0.96379 0.79071 0.0
C276 C 0.69436 0.07498 0.78773 0.0
N277 N 0.61677 1.01847 0.79198 0.0
O278 O 0.89105 0.13627 0.80191 0.0
H279 H 0.71659 0.92016 0.79289 0.0
H280 H 0.71482 0.13943 0.78601 0.0
O281 O 0.87505 1.00801 0.78203 0.0
C282 C 0.89869 0.20375 0.80704 0.0
O283 O 0.84489 0.22493 0.8027 0.0
N284 N 0.83387 0.08539 0.75923 0.0
C285 C 0.808 0.04945 0.72756 0.0
C286 C 0.86886 0.04302 0.73576 0.0
C287 C 0.88407 0.06622 0.75102 0.0
C288 C 0.77363 0.09225 0.7517 0.0
C289 C 0.75993 0.07503 0.73578 0.0
H290 H 0.93437 0.06365 0.75647 0.0
H291 H 0.73686 0.11235 0.75784 0.0
H292 H 1.0425 0.12536 0.78475 0.0
H293 H 0.11302 0.35084 0.76263 0.0
H294 H 0.5663 0.88931 0.79666 0.0
H295 H 0.90563 1.01972 0.73066 0.0
H296 H 0.71317 0.08283 0.73003 0.0
C297 C 0.78631 0.83441 0.66936 0.0
C298 C 0.82725 0.79151 0.67048 0.0
N299 N 0.90208 0.83637 0.66398 0.0
N300 N 0.83511 0.90687 0.66242 0.0
C301 C 0.90593 0.90689 0.65926 0.0
H302 H 0.72404 0.81372 0.67309 0.0
Co303 Co 0.79292 0.97492 0.65746 0.0
C304 C 0.93483 0.14263 0.66333 0.0
O305 O 0.88319 0.1562 0.67131 0.0
N306 N 0.74278 1.0387 0.65176 0.0
C307 C 0.71082 0.13416 0.64499 0.0
C308 C 0.77361 0.11799 0.64743 0.0
C309 C 0.66027 1.0068 0.65041 0.0
N310 N 0.6392 0.06331 0.64616 0.0
O311 O 0.79569 0.94553 0.63622 0.0
H312 H 0.83734 0.16162 0.64525 0.0
H313 H 0.61627 0.94235 0.65212 0.0
O314 O 0.90793 0.07377 0.65611 0.0
C315 C 0.73584 0.87804 0.6311 0.0
O316 O 0.66086 0.85685 0.63544 0.0
N317 N 0.78936 0.99637 0.67891 0.0
C318 C 0.79941 1.03228 0.71057 0.0
C319 C 0.86671 1.03872 0.70238 0.0
C320 C 0.85872 1.01553 0.68712 0.0
C321 C 0.72225 0.98951 0.68644 0.0
C322 C 0.72577 1.00672 0.70235 0.0
H323 H 0.9116 1.01811 0.68167 0.0
H324 H 0.66539 0.96942 0.68029 0.0
H325 H 0.95803 0.95643 0.65338 0.0
H326 H 0.80304 0.73093 0.6755 0.0
H327 H 0.71791 0.19247 0.64148 0.0
H328 H 0.92678 0.06201 0.70748 0.0
H329 H 0.67121 0.99892 0.7081 0.0
C330 C 0.26785 0.97232 0.66936 0.0
C331 C 0.31075 0.05616 0.67049 0.0
N332 N 0.2659 0.08612 0.66398 0.0
N333 N 0.19539 0.94866 0.66242 0.0
C334 C 0.19537 1.01945 0.65926 0.0
H335 H 0.28854 0.93075 0.67309 0.0
Co336 Co 0.12734 0.83841 0.65746 0.0
C337 C 0.95963 0.8126 0.66333 0.0
O338 O 0.94605 0.74739 0.67131 0.0
N339 N 0.06356 0.72448 0.65176 0.0
C340 C 0.9681 0.59704 0.64499 0.0
C341 C 0.98427 0.67601 0.64743 0.0
C342 C 0.09547 0.67388 0.65041 0.0
N343 N 1.03896 0.59629 0.64616 0.0
O344 O 0.15674 0.87056 0.63623 0.0
H345 H 0.94064 0.6961 0.64525 0.0
H346 H 0.15992 0.69434 0.65213 0.0
O347 O 1.02849 0.85456 0.65611 0.0
C348 C 0.22423 0.8782 0.6311 0.0
O349 O 0.24541 0.8244 0.63544 0.0
N350 N 0.10588 0.8134 0.67891 0.0
C351 C 0.06997 0.78753 0.71058 0.0
C352 C 0.06353 0.84839 0.70238 0.0
C353 C 0.08672 0.8636 0.68712 0.0
C354 C 0.11275 0.75315 0.68644 0.0
C355 C 0.09553 0.73946 0.70236 0.0
H356 H 0.08414 0.91389 0.68167 0.0
H357 H 0.13284 0.71639 0.68029 0.0
H358 H 0.14584 1.02201 0.65339 0.0
H359 H 0.37134 0.09254 0.6755 0.0
H360 H 0.90979 0.54581 0.64149 0.0
H361 H 1.04023 0.88516 0.70748 0.0
H362 H 0.10333 0.69271 0.7081 0.0
C363 C 0.12997 0.31594 0.66937 0.0
C364 C 1.04612 0.27499 0.67049 0.0
N365 N 1.01616 0.20016 0.66399 0.0
N366 N 0.15363 0.26715 0.66243 0.0
C367 C 0.08284 0.19634 0.65926 0.0
H368 H 0.17154 0.37821 0.6731 0.0
Co369 Co 0.26387 0.30935 0.65746 0.0
C370 C 0.28968 0.16745 0.66333 0.0
O371 O 0.35489 0.21909 0.67131 0.0
N372 N 0.3778 0.3595 0.65176 0.0
C373 C 0.50524 0.39147 0.64499 0.0
C374 C 0.42626 0.32867 0.64743 0.0
C375 C 0.42841 0.44201 0.65041 0.0
N376 N 0.506 0.46309 0.64616 0.0
O377 O 0.23171 0.30659 0.63623 0.0
H378 H 0.40616 0.26495 0.64525 0.0
H379 H 0.40796 0.486 0.65212 0.0
O380 O 0.24771 0.19434 0.65611 0.0
C381 C 0.22408 0.36644 0.6311 0.0
O382 O 0.27788 0.44142 0.63544 0.0
N383 N 0.2889 0.31291 0.67891 0.0
C384 C 0.31476 0.30287 0.71058 0.0
C385 C 0.2539 0.23556 0.70238 0.0
C386 C 0.23869 0.24354 0.68712 0.0
C387 C 0.34914 0.38002 0.68644 0.0
C388 C 0.36284 0.3765 0.70236 0.0
H389 H 0.18839 0.19066 0.68167 0.0
H390 H 0.38591 0.43689 0.68029 0.0
H391 H 0.08027 0.14424 0.65339 0.0
H392 H 1.00975 0.29919 0.67551 0.0
H393 H 0.55646 0.38439 0.64148 0.0
H394 H 0.21713 0.17549 0.70748 0.0
H395 H 0.4096 0.43106 0.7081 0.0
C396 C 0.93458 0.64935 0.50269 0.0
C397 C 0.97748 0.60841 0.50382 0.0
N398 N 0.93262 0.53358 0.49732 0.0
N399 N 0.86212 0.60054 0.49576 0.0
C400 C 0.8621 0.52973 0.49259 0.0
H401 H 0.95527 0.71161 0.50643 0.0
Co402 Co 0.79406 0.64273 0.49079 0.0
C403 C 0.62635 0.50083 0.49667 0.0
O404 O 0.61278 0.55247 0.50465 0.0
N405 N 0.73028 0.69288 0.4851 0.0
C406 C 0.63481 0.72484 0.47832 0.0
C407 C 0.65099 0.66204 0.48076 0.0
C408 C 0.76218 0.77538 0.48374 0.0
N409 N 0.70567 0.79646 0.47949 0.0
O410 O 0.82345 0.63997 0.46956 0.0
H411 H 0.60736 0.59831 0.47858 0.0
H412 H 0.82663 0.81938 0.48546 0.0
O413 O 0.69521 0.52772 0.48944 0.0
C414 C 0.89094 0.69981 0.46443 0.0
O415 O 0.91213 0.7748 0.46877 0.0
N416 N 0.77261 0.6463 0.51224 0.0
C417 C 0.73669 0.63624 0.54391 0.0
C418 C 0.73025 0.56895 0.53571 0.0
C419 C 0.75345 0.57693 0.52046 0.0
C420 C 0.77947 0.71341 0.51977 0.0
C421 C 0.76226 0.70988 0.53569 0.0
H422 H 0.75087 0.52406 0.515 0.0
H423 H 0.79957 0.77027 0.51363 0.0
H424 H 0.81256 0.47763 0.48672 0.0
H425 H 1.03806 0.63262 0.50883 0.0
H426 H 0.57651 0.71775 0.47481 0.0
H427 H 0.70695 0.50887 0.54082 0.0
H428 H 0.77006 0.76444 0.54144 0.0
C429 C 0.45303 0.30569 0.5027 0.0
C430 C 0.49399 0.38953 0.50383 0.0
N431 N 0.56881 0.4195 0.49733 0.0
N432 N 0.50183 0.28203 0.49576 0.0
C433 C 0.57264 0.35283 0.4926 0.0
H434 H 0.39077 0.26412 0.50643 0.0
Co435 Co 0.45963 0.17179 0.49079 0.0
C436 C 0.60154 0.14599 0.49667 0.0
O437 O 0.54989 0.08077 0.50465 0.0
N438 N 0.40949 0.05787 0.48509 0.0
C439 C 0.37753 0.93045 0.47832 0.0
C440 C 0.44032 1.00942 0.48076 0.0
C441 C 0.32698 1.00725 0.48374 0.0
N442 N 0.30591 0.92967 0.47949 0.0
O443 O 0.4624 0.20396 0.46956 0.0
H444 H 0.50405 1.02953 0.47858 0.0
H445 H 0.28298 1.0277 0.48546 0.0
O446 O 0.57465 0.18796 0.48945 0.0
C447 C 0.40256 0.2116 0.46443 0.0
O448 O 0.32757 0.1578 0.46877 0.0
N449 N 0.45606 0.14676 0.51224 0.0
C450 C 0.46608 0.12087 0.54391 0.0
C451 C 0.53339 0.18173 0.53572 0.0
C452 C 0.52542 0.19695 0.52046 0.0
C453 C 0.38894 0.08651 0.51977 0.0
C454 C 0.39245 0.07281 0.53569 0.0
H455 H 0.5783 0.24726 0.51501 0.0
H456 H 0.33208 0.04975 0.51362 0.0
H457 H 0.62474 0.35539 0.48672 0.0
H458 H 0.46978 0.42591 0.50884 0.0
H459 H 0.38462 0.87923 0.47481 0.0
H460 H 0.59347 0.2185 0.54082 0.0
H461 H 0.33788 1.02604 0.54143 0.0
C462 C 0.79668 0.16783 0.5027 0.0
C463 C 0.71283 0.12493 0.50383 0.0
N464 N 0.68287 0.16979 0.49733 0.0
N465 N 0.82034 0.24028 0.49576 0.0
C466 C 0.74955 0.2403 0.4926 0.0
H467 H 0.83825 0.14713 0.50643 0.0
Co468 Co 0.93059 0.30833 0.49079 0.0
C469 C 0.9564 0.47604 0.49667 0.0
O470 O 1.02161 0.48962 0.50465 0.0
N471 N 1.04452 0.3721 0.4851 0.0
C472 C 0.17195 0.46756 0.47833 0.0
C473 C 0.09298 0.45139 0.48076 0.0
C474 C 0.09512 0.3402 0.48374 0.0
N475 N 0.17271 0.39671 0.47949 0.0
O476 O 0.89842 0.27892 0.46956 0.0
H477 H 0.07289 0.49502 0.47858 0.0
H478 H 0.07466 0.27575 0.48546 0.0
O479 O 0.91443 0.40718 0.48944 0.0
C480 C 0.89079 0.21144 0.46444 0.0
O481 O 0.94459 0.19026 0.46877 0.0
N482 N 0.95561 0.32979 0.51224 0.0
C483 C 0.98148 0.36569 0.54391 0.0
C484 C 0.92063 0.37215 0.53572 0.0
C485 C 0.90542 0.34896 0.52046 0.0
C486 C 1.01585 0.32291 0.51977 0.0
C487 C 1.02954 0.34012 0.53569 0.0
H488 H 0.85512 0.35155 0.51501 0.0
H489 H 1.05261 0.3028 0.51363 0.0
H490 H 0.74698 0.28983 0.48672 0.0
H491 H 0.67645 0.06435 0.50884 0.0
H492 H 0.22318 0.52587 0.47482 0.0
H493 H 0.88387 0.39546 0.54082 0.0
H494 H 0.07629 0.3323 0.54144 0.0
C495 C 1.00312 0.5807 0.60211 0.0
C496 C 0.96218 0.6236 0.60098 0.0
N497 N 0.88736 0.57875 0.60749 0.0
N498 N 0.95432 0.50825 0.60905 0.0
C499 C 0.88352 0.50824 0.61221 0.0
H500 H 0.06538 0.60139 0.59837 0.0
Co501 Co 0.99651 0.44021 0.61402 0.0
C502 C 0.85461 0.2725 0.60814 0.0
O503 O 0.90626 0.25893 0.60016 0.0
N504 N 1.04666 0.37644 0.61972 0.0
C505 C 0.0786 0.28097 0.6265 0.0
C506 C 1.01581 0.29714 0.62405 0.0
C507 C 0.12916 0.40835 0.62108 0.0
N508 N 0.15021 0.35184 0.62535 0.0
O509 O 0.99374 0.46963 0.63525 0.0
H510 H 0.95208 0.2535 0.62622 0.0
H511 H 0.17317 0.47278 0.61936 0.0
O512 O 0.8815 0.34135 0.61536 0.0
C513 C 1.0536 0.53713 0.64036 0.0
O514 O 0.12857 0.55846 0.63599 0.0
N515 N 1.00009 0.41873 0.59257 0.0
C516 C 0.99006 0.38284 0.5609 0.0
C517 C 0.92275 0.3764 0.56909 0.0
C518 C 0.93073 0.39958 0.58435 0.0
C519 C 0.0672 0.42559 0.58504 0.0
C520 C 0.06368 0.40838 0.56912 0.0
H521 H 0.87785 0.39701 0.5898 0.0
H522 H 0.12405 0.44566 0.59119 0.0
H523 H 0.83142 0.45872 0.61809 0.0
H524 H 0.98638 0.68418 0.59597 0.0
H525 H 0.07152 0.22264 0.63 0.0
H526 H 0.86268 0.35311 0.56399 0.0
H527 H 0.11825 0.41618 0.56338 0.0
C528 C 0.52161 0.44282 0.6021 0.0
C529 C 0.47871 0.35897 0.60098 0.0
N530 N 0.52355 0.32901 0.60749 0.0
N531 N 0.59406 0.46648 0.60904 0.0
C532 C 0.59407 0.39569 0.61221 0.0
H533 H 0.50093 0.48439 0.59836 0.0
Co534 Co 0.6621 0.57672 0.61401 0.0
C535 C 0.82982 0.60253 0.60814 0.0
O536 O 0.8434 0.66775 0.60016 0.0
N537 N 0.72587 0.69064 0.61972 0.0
C538 C 0.82133 0.81807 0.6265 0.0
C539 C 0.80517 0.73911 0.62405 0.0
C540 C 0.69395 0.74122 0.62108 0.0
N541 N 0.75045 0.81878 0.62535 0.0
O542 O 0.63266 0.54453 0.63524 0.0
H543 H 0.84882 0.71903 0.62622 0.0
H544 H 0.62951 0.72078 0.61936 0.0
O545 O 0.76095 0.56057 0.61536 0.0
C546 C 0.56516 0.53688 0.64036 0.0
O547 O 0.54384 0.59053 0.63599 0.0
N548 N 0.68359 0.60177 0.59256 0.0
C549 C 0.71952 0.62765 0.5609 0.0
C550 C 0.72595 0.56679 0.56909 0.0
C551 C 0.70274 0.55157 0.58435 0.0
C552 C 0.67674 0.66203 0.58504 0.0
C553 C 0.69396 0.67573 0.56912 0.0
H554 H 0.70532 0.50126 0.5898 0.0
H555 H 0.65666 0.6988 0.59118 0.0
H556 H 0.64359 0.39313 0.61809 0.0
H557 H 0.41813 0.3226 0.59596 0.0
H558 H 0.87965 0.86932 0.62999 0.0
H559 H 0.74924 0.53001 0.56399 0.0
H560 H 0.68617 0.7225 0.56337 0.0
C561 C 0.65947 0.0992 0.6021 0.0
C562 C 0.74331 0.14015 0.60097 0.0
N563 N 0.77328 0.21496 0.60748 0.0
N564 N 0.63581 0.14798 0.60904 0.0
C565 C 0.7066 0.21879 0.61221 0.0
H566 H 0.6179 1.03694 0.59836 0.0
Co567 Co 0.52557 0.10578 0.61401 0.0
C568 C 0.49977 0.24769 0.60814 0.0
O569 O 0.43455 0.19604 0.60016 0.0
N570 N 0.41165 0.05563 0.61972 0.0
C571 C 0.28422 1.02367 0.6265 0.0
C572 C 0.36319 0.08646 0.62405 0.0
C573 C 0.36105 0.97312 0.62108 0.0
N574 N 0.2835 0.95207 0.62535 0.0
O575 O 0.55776 0.10854 0.63524 0.0
H576 H 0.38328 0.15019 0.62622 0.0
H577 H 0.38149 0.92912 0.61936 0.0
O578 O 0.54173 0.22079 0.61536 0.0
C579 C 0.5654 0.04868 0.64036 0.0
O580 O 0.51176 0.97371 0.63598 0.0
N581 N 0.50052 0.10222 0.59256 0.0
C582 C 0.47466 0.11228 0.5609 0.0
C583 C 0.53552 0.17958 0.56909 0.0
C584 C 0.55073 0.17159 0.58435 0.0
C585 C 0.44026 1.03512 0.58504 0.0
C586 C 0.42657 1.03865 0.56912 0.0
H587 H 0.60104 0.22446 0.5898 0.0
H588 H 0.40348 0.97826 0.59118 0.0
H589 H 0.70917 0.27087 0.61809 0.0
H590 H 0.77969 0.11595 0.59596 0.0
H591 H 0.23298 1.03074 0.62999 0.0
H592 H 0.57231 0.23965 0.56399 0.0
H593 H 0.3798 0.98409 0.56337 0.0
C594 C 0.52167 0.09926 0.10211 0.0
C595 C 0.47877 0.1402 0.10098 0.0
N596 N 0.52362 0.21502 0.10749 0.0
N597 N 0.59413 0.14806 0.10905 0.0
C598 C 0.59414 0.21886 0.11221 0.0
H599 H 0.50099 1.03701 0.09837 0.0
Co600 Co 0.66217 0.10587 0.11402 0.0
C601 C 0.82989 0.24777 0.10814 0.0
O602 O 0.84346 0.19613 0.10016 0.0
N603 N 0.72594 0.05572 0.11972 0.0
C604 C 0.82141 1.02377 0.1265 0.0
C605 C 0.80524 0.08656 0.12405 0.0
C606 C 0.69403 0.97322 0.12108 0.0
N607 N 0.75053 0.95217 0.12535 0.0
O608 O 0.63275 0.10863 0.13525 0.0
H609 H 0.84889 0.15029 0.12622 0.0
H610 H 0.62959 0.92922 0.11936 0.0
O611 O 0.76103 0.22088 0.11536 0.0
C612 C 0.56525 0.04878 0.14036 0.0
O613 O 0.54392 0.97381 0.13599 0.0
N614 N 0.68365 0.1023 0.09257 0.0
C615 C 0.71956 0.11233 0.0609 0.0
C616 C 0.726 0.17964 0.06909 0.0
C617 C 0.7028 0.17166 0.08435 0.0
C618 C 0.6768 1.03519 0.08504 0.0
C619 C 0.69401 1.03871 0.06912 0.0
H620 H 0.70538 0.22453 0.0898 0.0
H621 H 0.65671 0.97833 0.09119 0.0
H622 H 0.64366 0.27095 0.11809 0.0
H623 H 0.41819 0.11599 0.09597 0.0
H624 H 0.87973 1.03085 0.13 0.0
H625 H 0.74929 0.23971 0.06399 0.0
H626 H 0.68621 0.98414 0.06337 0.0
C627 C 1.00319 0.44291 0.1021 0.0
C628 C 0.96224 0.35907 0.10098 0.0
N629 N 0.88742 0.3291 0.10748 0.0
N630 N 0.9544 0.46656 0.10904 0.0
C631 C 0.88359 0.39577 0.11221 0.0
H632 H 0.06545 0.48448 0.09836 0.0
Co633 Co 0.99659 0.5768 0.11402 0.0
C634 C 0.85469 0.6026 0.10814 0.0
O635 O 0.90634 0.66782 0.10016 0.0
N636 N 1.04674 0.69072 0.11972 0.0
C637 C 0.07869 0.81814 0.1265 0.0
C638 C 1.0159 0.73918 0.12405 0.0
C639 C 0.12925 0.74132 0.12108 0.0
N640 N 0.15029 0.81887 0.12535 0.0
O641 O 0.99383 0.54461 0.13524 0.0
H642 H 0.95217 0.71908 0.12623 0.0
H643 H 0.17325 0.72089 0.11936 0.0
O644 O 0.88158 0.56064 0.11536 0.0
C645 C 1.05369 0.53697 0.14036 0.0
O646 O 0.12866 0.59061 0.13598 0.0
N647 N 1.00015 0.60185 0.09256 0.0
C648 C 0.9901 0.62772 0.0609 0.0
C649 C 0.9228 0.56685 0.06909 0.0
C650 C 0.93079 0.55164 0.08435 0.0
C651 C 0.06726 0.66211 0.08504 0.0
C652 C 0.06373 0.6758 0.06912 0.0
H653 H 0.87792 0.50133 0.0898 0.0
H654 H 0.12412 0.6989 0.09118 0.0
H655 H 0.83151 0.3932 0.11809 0.0
H656 H 0.98644 0.32269 0.09596 0.0
H657 H 0.07161 0.86938 0.13 0.0
H658 H 0.86273 0.53006 0.06399 0.0
H659 H 0.11829 0.72258 0.06337 0.0
C660 C 0.65955 0.58075 0.1021 0.0
C661 C 0.7434 0.62365 0.10097 0.0
N662 N 0.77336 0.5788 0.10748 0.0
N663 N 0.63589 0.50831 0.10904 0.0
C664 C 0.70668 0.5083 0.11221 0.0
H665 H 0.61798 0.60144 0.09836 0.0
Co666 Co 0.52565 0.44027 0.11401 0.0
C667 C 0.49984 0.27256 0.10814 0.0
O668 O 0.43462 0.25897 0.10016 0.0
N669 N 0.41173 0.3765 0.11972 0.0
C670 C 0.2843 0.28104 0.1265 0.0
C671 C 0.36326 0.2972 0.12405 0.0
C672 C 0.36114 0.40842 0.12108 0.0
N673 N 0.28359 0.35192 0.12535 0.0
O674 O 0.55785 0.46971 0.13524 0.0
H675 H 0.38334 0.25356 0.12622 0.0
H676 H 0.38158 0.47286 0.11936 0.0
O677 O 0.5418 0.34142 0.11536 0.0
C678 C 0.56549 0.53721 0.14036 0.0
O679 O 0.51184 0.55853 0.13598 0.0
N680 N 0.50059 0.41877 0.09256 0.0
C681 C 0.4747 0.38283 0.0609 0.0
C682 C 0.53557 0.37641 0.06909 0.0
C683 C 0.5508 0.39962 0.08435 0.0
C684 C 0.44033 0.42562 0.08504 0.0
C685 C 0.42663 0.40839 0.06912 0.0
H686 H 0.6011 0.39705 0.0898 0.0
H687 H 0.40356 0.44571 0.09118 0.0
H688 H 0.70924 0.45878 0.11809 0.0
H689 H 0.77978 0.68423 0.09596 0.0
H690 H 0.23305 0.22272 0.12999 0.0
H691 H 0.57234 0.35311 0.06399 0.0
H692 H 0.37986 0.41618 0.06337 0.0
C693 C 0.45302 0.16779 0.00269 0.0
C694 C 0.49396 0.1249 0.00382 0.0
N695 N 0.56879 0.16975 -0.00268 0.0
N696 N 0.50182 0.24025 -0.00424 0.0
C697 C 0.57263 0.24027 -0.00741 0.0
H698 H 0.39076 0.1471 0.00643 0.0
Co699 Co 0.45963 0.3083 -0.00921 0.0
C700 C 0.60154 0.47601 -0.00333 0.0
O701 O 0.54989 0.48958 0.00465 0.0
N702 N 0.40949 0.37209 -0.0149 0.0
C703 C 0.37754 0.46755 -0.02168 0.0
C704 C 0.44033 0.45138 -0.01924 0.0
C705 C 0.32698 0.34019 -0.01626 0.0
N706 N 0.30591 0.3967 -0.02051 0.0
O707 O 0.4624 0.27892 -0.03044 0.0
H708 H 0.50406 0.495 -0.02142 0.0
H709 H 0.28298 0.27574 -0.01454 0.0
O710 O 0.57465 0.40716 -0.01056 0.0
C711 C 0.40256 0.21143 0.96443 0.0
O712 O 0.32757 0.19023 0.96877 0.0
N713 N 0.45607 0.32976 0.01224 0.0
C714 C 0.46611 0.36566 0.04391 0.0
C715 C 0.53341 0.37211 0.03571 0.0
C716 C 0.52543 0.34891 0.02046 0.0
C717 C 0.38895 0.32289 0.01977 0.0
C718 C 0.39248 0.3401 0.03569 0.0
H719 H 0.57831 0.35149 0.015 0.0
H720 H 0.33209 0.3028 0.01363 0.0
H721 H 0.62474 0.28981 -0.01328 0.0
H722 H 0.46975 0.06432 0.00883 0.0
H723 H 0.38463 0.52586 -0.02519 0.0
H724 H 0.59349 0.3954 0.04082 0.0
H725 H 0.33791 0.3323 0.04144 0.0
C726 C 0.93456 0.3057 0.0027 0.0
C727 C 0.97746 0.38954 0.00382 0.0
N728 N 0.9326 0.41951 -0.00268 0.0
N729 N 0.8621 0.28204 -0.00424 0.0
C730 C 0.86208 0.35283 -0.00741 0.0
H731 H 0.95525 0.26413 0.00643 0.0
Co732 Co 0.79405 0.17179 -0.00921 0.0
C733 C 0.62634 0.14598 -0.00333 0.0
O734 O 0.61276 0.08077 0.00465 0.0
N735 N 0.73027 0.05786 -0.0149 0.0
C736 C 0.63481 0.93043 -0.02167 0.0
C737 C 0.65098 1.00939 -0.01923 0.0
C738 C 0.76218 1.00726 -0.01626 0.0
N739 N 0.70566 0.92967 -0.02051 0.0
O740 O 0.82345 0.20394 -0.03044 0.0
H741 H 0.60735 1.02949 -0.02142 0.0
H742 H 0.82662 1.02772 -0.01454 0.0
O743 O 0.6952 0.18794 -0.01056 0.0
C744 C 0.89093 0.21158 0.96443 0.0
O745 O 0.91211 0.15778 0.96877 0.0
N746 N 0.77259 0.14677 0.01224 0.0
C747 C 0.73671 0.12091 0.04391 0.0
C748 C 0.73024 0.18176 0.03572 0.0
C749 C 0.75343 0.19697 0.02046 0.0
C750 C 0.77948 0.08654 0.01977 0.0
C751 C 0.76227 0.07285 0.03569 0.0
H752 H 0.75084 0.24726 0.01501 0.0
H753 H 0.79958 0.04978 0.01363 0.0
H754 H 0.81255 0.35539 -0.01328 0.0
H755 H 1.03804 0.42592 0.00883 0.0
H756 H 0.5765 0.8792 -0.02518 0.0
H757 H 0.70694 0.21852 0.04082 0.0
H758 H 0.77009 1.0261 0.04144 0.0
C759 C 0.79668 0.64932 0.0027 0.0
C760 C 0.71283 0.60837 0.00383 0.0
N761 N 0.68287 0.53355 -0.00267 0.0
N762 N 0.82034 0.60053 -0.00424 0.0
C763 C 0.74955 0.52972 -0.0074 0.0
H764 H 0.83825 0.71159 0.00644 0.0
Co765 Co 0.93058 0.64273 -0.00921 0.0
C766 C 0.95639 0.50083 -0.00333 0.0
O767 O 1.0216 0.55247 0.00465 0.0
N768 N 1.04451 0.69289 -0.0149 0.0
C769 C 0.17194 0.72485 -0.02168 0.0
C770 C 0.09297 0.66205 -0.01924 0.0
C771 C 0.09512 0.77539 -0.01626 0.0
N772 N 0.17271 0.79647 -0.02051 0.0
O773 O 0.89841 0.63997 -0.03044 0.0
H774 H 0.07286 0.59833 -0.02142 0.0
H775 H 0.07467 0.81939 -0.01454 0.0
O776 O 0.91442 0.52773 -0.01056 0.0
C777 C 0.89078 0.69982 0.96444 0.0
O778 O 0.94458 0.7748 0.96877 0.0
N779 N 0.95562 0.64631 0.01224 0.0
C780 C 0.98151 0.63629 0.04391 0.0
C781 C 0.92065 0.56897 0.03572 0.0
C782 C 0.90542 0.57694 0.02046 0.0
C783 C 1.01587 0.71343 0.01977 0.0
C784 C 1.02957 0.70992 0.03569 0.0
H785 H 0.85512 0.52406 0.01501 0.0
H786 H 1.05262 0.77029 0.01362 0.0
H787 H 0.74698 0.47763 -0.01328 0.0
H788 H 0.67646 0.63257 0.00884 0.0
H789 H 0.22316 0.71777 -0.02519 0.0
H790 H 0.88388 0.5089 0.04082 0.0
H791 H 0.07633 0.76449 0.04143 0.0
C792 C 0.60118 0.98263 0.83604 0.0
C793 C 0.64408 0.94169 0.83716 0.0
N794 N 0.59924 0.86688 0.83065 0.0
N795 N 0.52873 0.93383 0.8291 0.0
C796 C 0.52872 0.86303 0.82593 0.0
H797 H 0.62186 0.04489 0.83977 0.0
Co798 Co 0.46069 0.97603 0.82412 0.0
C799 C 0.29297 0.83412 0.83 0.0
O800 O 0.2794 0.88577 0.83798 0.0
N801 N 0.39692 1.02617 0.81842 0.0
C802 C 0.30145 0.05812 0.81164 0.0
C803 C 0.31761 0.99533 0.81409 0.0
C804 C 0.42883 0.10868 0.81706 0.0
N805 N 0.37233 0.12972 0.81279 0.0
O806 O 0.49011 0.97325 0.8029 0.0
H807 H 0.27397 0.9316 0.81192 0.0
H808 H 0.49327 0.15268 0.81878 0.0
O809 O 0.36183 0.86102 0.82278 0.0
C810 C 0.55761 1.03311 0.79778 0.0
O811 O 0.57894 0.10808 0.80215 0.0
N812 N 0.43921 0.97961 0.84557 0.0
C813 C 0.40332 0.96959 0.87724 0.0
C814 C 0.39686 0.90228 0.86905 0.0
C815 C 0.42005 0.91025 0.85379 0.0
C816 C 0.44607 0.04672 0.8531 0.0
C817 C 0.42887 0.04321 0.86902 0.0
H818 H 0.41747 0.85737 0.84834 0.0
H819 H 0.46616 0.10358 0.84695 0.0
H820 H 0.4792 0.81094 0.82005 0.0
H821 H 0.70466 0.9659 0.84217 0.0
H822 H 0.24313 0.05104 0.80814 0.0
H823 H 0.37356 0.84221 0.87415 0.0
H824 H 0.43668 0.09778 0.87476 0.0
C825 C 0.11967 0.63898 0.83604 0.0
C826 C 0.16062 0.72283 0.83717 0.0
N827 N 0.23544 0.75279 0.83066 0.0
N828 N 0.16846 0.61533 0.8291 0.0
C829 C 0.23926 0.68612 0.82593 0.0
H830 H 1.05741 0.59741 0.83978 0.0
Co831 Co 0.12626 0.50509 0.82412 0.0
C832 C 0.26817 0.47929 0.83 0.0
O833 O 0.21652 0.41407 0.83798 0.0
N834 N 0.07611 0.39118 0.81842 0.0
C835 C 1.04416 0.26376 0.81164 0.0
C836 C 0.10696 0.34272 0.81409 0.0
C837 C 0.99361 0.34058 0.81706 0.0
N838 N 0.97256 0.26303 0.81279 0.0
O839 O 0.12903 0.53729 0.8029 0.0
H840 H 0.17069 0.36282 0.81191 0.0
H841 H 0.9496 0.36101 0.81878 0.0
O842 O 0.24128 0.52126 0.82278 0.0
C843 C 0.06917 0.54493 0.79778 0.0
O844 O 0.99421 0.49129 0.80215 0.0
N845 N 0.12269 0.48004 0.84558 0.0
C846 C 0.13273 0.45417 0.87724 0.0
C847 C 0.20003 0.51503 0.86905 0.0
C848 C 0.19205 0.53024 0.85379 0.0
C849 C 1.05558 0.41978 0.8531 0.0
C850 C 1.0591 0.40608 0.86902 0.0
H851 H 0.24493 0.58055 0.84834 0.0
H852 H 0.99872 0.383 0.84696 0.0
H853 H 0.29135 0.68869 0.82005 0.0
H854 H 0.13642 0.7592 0.84218 0.0
H855 H 1.05125 0.21252 0.80814 0.0
H856 H 0.26011 0.5518 0.87415 0.0
H857 H 1.00453 0.35932 0.87477 0.0
C858 C 0.4633 0.50114 0.83604 0.0
C859 C 0.37946 0.45824 0.83717 0.0
N860 N 0.3495 0.50309 0.83066 0.0
N861 N 0.48697 0.57358 0.8291 0.0
C862 C 0.41618 0.57359 0.82593 0.0
H863 H 0.50488 0.48046 0.83978 0.0
Co864 Co 0.59721 0.64162 0.82413 0.0
C865 C 0.62302 0.80934 0.83 0.0
O866 O 0.68824 0.82292 0.83798 0.0
N867 N 0.71113 0.70539 0.81842 0.0
C868 C 0.83856 0.80085 0.81164 0.0
C869 C 0.7596 0.78469 0.81409 0.0
C870 C 0.76171 0.67347 0.81706 0.0
N871 N 0.83927 0.72997 0.81279 0.0
O872 O 0.565 0.61218 0.8029 0.0
H873 H 0.73951 0.82833 0.81192 0.0
H874 H 0.74127 0.60903 0.81878 0.0
O875 O 0.58105 0.74047 0.82278 0.0
C876 C 0.55736 0.54468 0.79778 0.0
O877 O 0.61101 0.52337 0.80215 0.0
N878 N 0.62227 0.66312 0.84558 0.0
C879 C 0.64817 0.69904 0.87724 0.0
C880 C 0.58731 0.70549 0.86905 0.0
C881 C 0.57207 0.68228 0.85379 0.0
C882 C 0.68253 0.65626 0.8531 0.0
C883 C 0.69623 0.67348 0.86902 0.0
H884 H 0.52177 0.68485 0.84834 0.0
H885 H 0.71929 0.63617 0.84696 0.0
H886 H 0.41361 0.62311 0.82005 0.0
H887 H 0.34308 0.39767 0.84218 0.0
H888 H 0.88981 0.85917 0.80815 0.0
H889 H 0.55054 0.72879 0.87415 0.0
H890 H 0.743 0.66568 0.87477 0.0
C891 C 0.66982 0.91408 0.93544 0.0
C892 C 0.62888 0.95698 0.93431 0.0
N893 N 0.55407 0.91214 0.94082 0.0
N894 N 0.62103 0.84163 0.94238 0.0
C895 C 0.55023 0.84162 0.94555 0.0
H896 H 0.73208 0.93476 0.9317 0.0
Co897 Co 0.66322 0.77359 0.94735 0.0
C898 C 0.52131 0.60587 0.94147 0.0
O899 O 0.57296 0.59231 0.93349 0.0
N900 N 0.71336 0.70982 0.95305 0.0
C901 C 0.7453 0.61435 0.95984 0.0
C902 C 0.68251 0.63052 0.95739 0.0
C903 C 0.79587 0.74172 0.95442 0.0
N904 N 0.81691 0.68522 0.95869 0.0
O905 O 0.66045 0.80301 0.96858 0.0
H906 H 0.61878 0.58688 0.95956 0.0
H907 H 0.83987 0.80616 0.95269 0.0
O908 O 0.5482 0.67473 0.9487 0.0
C909 C 0.7203 0.87051 -0.02631 0.0
O910 O 0.79527 0.89184 -0.03068 0.0
N911 N 0.66679 0.75211 0.9259 0.0
C912 C 0.65675 0.7162 0.89423 0.0
C913 C 0.58945 0.70976 0.90243 0.0
C914 C 0.59743 0.73296 0.91768 0.0
C915 C 0.7339 0.75896 0.91837 0.0
C916 C 0.73038 0.74175 0.90245 0.0
H917 H 0.54455 0.73039 0.92313 0.0
H918 H 0.79076 0.77903 0.92452 0.0
H919 H 0.49813 0.7921 0.95142 0.0
H920 H 0.65309 1.01756 0.9293 0.0
H921 H 0.73821 0.55602 0.96333 0.0
H922 H 0.52938 0.68647 0.89732 0.0
H923 H 0.78494 0.74954 0.89671 0.0
C924 C 0.18831 0.7762 0.93543 0.0
C925 C 0.14541 0.69235 0.93431 0.0
N926 N 0.19025 0.66239 0.94082 0.0
N927 N 0.26076 0.79986 0.94238 0.0
C928 C 0.26077 0.72907 0.94554 0.0
H929 H 0.16763 0.81777 0.9317 0.0
Co930 Co 0.32881 0.9101 0.94735 0.0
C931 C 0.49652 0.93592 0.94147 0.0
O932 O 0.5101 1.00113 0.93349 0.0
N933 N 0.39257 1.02402 0.95305 0.0
C934 C 0.48804 0.15145 0.95983 0.0
C935 C 0.47188 0.07249 0.95738 0.0
C936 C 0.36066 0.07461 0.95441 0.0
N937 N 0.41716 0.15216 0.95868 0.0
O938 O 0.29937 0.87791 0.96858 0.0
H939 H 0.51552 0.05241 0.95955 0.0
H940 H 0.29622 0.05417 0.95269 0.0
O941 O 0.42766 0.89395 0.9487 0.0
C942 C 0.23187 0.87026 -0.02631 0.0
O943 O 0.21056 0.92391 -0.03068 0.0
N944 N 0.35029 0.93515 0.9259 0.0
C945 C 0.38617 0.96102 0.89423 0.0
C946 C 0.39263 0.90017 0.90242 0.0
C947 C 0.36945 0.88495 0.91768 0.0
C948 C 0.34342 0.9954 0.91837 0.0
C949 C 0.36062 1.00909 0.90245 0.0
H950 H 0.37203 0.83466 0.92313 0.0
H951 H 0.32334 1.03217 0.92452 0.0
H952 H 0.31029 0.7265 0.95142 0.0
H953 H 0.08483 0.65598 0.9293 0.0
H954 H 0.54636 0.2027 0.96333 0.0
H955 H 0.41593 0.8634 0.89732 0.0
H956 H 0.35282 0.05585 0.89671 0.0
C957 C 0.32617 0.43258 0.93543 0.0
C958 C 0.41002 0.47353 0.9343 0.0
N959 N 0.43998 0.54834 0.94081 0.0
N960 N 0.30251 0.48136 0.94237 0.0
C961 C 0.3733 0.55217 0.94554 0.0
H962 H 0.2846 0.37033 0.93169 0.0
Co963 Co 0.19227 0.43916 0.94735 0.0
C964 C 0.16647 0.58107 0.94147 0.0
O965 O 0.10124 0.52942 0.93349 0.0
N966 N 0.07836 0.38901 0.95305 0.0
C967 C 0.95094 0.35705 0.95983 0.0
C968 C 1.0299 0.41985 0.95738 0.0
C969 C 1.02776 0.30651 0.95442 0.0
N970 N 0.95021 0.28546 0.95868 0.0
O971 O 0.22448 0.44193 0.96857 0.0
H972 H 1.04999 0.48358 0.95956 0.0
H973 H 1.04819 0.2625 0.95269 0.0
O974 O 0.20844 0.55417 0.9487 0.0
C975 C 0.23212 0.38207 -0.02631 0.0
O976 O 0.17847 0.30711 -0.03068 0.0
N977 N 0.16721 0.43558 0.9259 0.0
C978 C 0.14131 0.4456 0.89423 0.0
C979 C 0.20217 0.51291 0.90242 0.0
C980 C 0.2174 0.50494 0.91768 0.0
C981 C 0.10695 0.36847 0.91837 0.0
C982 C 0.09324 0.37197 0.90245 0.0
H983 H 0.26771 0.55782 0.92313 0.0
H984 H 0.07018 0.31161 0.92452 0.0
H985 H 0.37587 0.60424 0.95142 0.0
H986 H 0.44639 0.44934 0.92929 0.0
H987 H 0.89969 0.36413 0.96333 0.0
H988 H 0.23894 0.57298 0.89732 0.0
H989 H 1.04647 0.3174 0.89671 0.0
C990 C 0.1883 0.43256 0.43544 0.0
C991 C 0.1454 0.4735 0.43431 0.0
N992 N 0.19024 0.54831 0.44082 0.0
N993 N 0.26075 0.48136 0.44238 0.0
C994 C 0.26076 0.55215 0.44555 0.0
H995 H 0.16762 0.3703 0.4317 0.0
Co996 Co 0.3288 0.43917 0.44735 0.0
C997 C 0.49651 0.58107 0.44147 0.0
O998 O 0.51009 0.52943 0.43349 0.0
N999 N 0.39257 0.38902 0.45305 0.0
C1000 C 0.48804 0.35707 0.45983 0.0
C1001 C 0.47187 0.41986 0.45738 0.0
C1002 C 0.36066 0.30652 0.45441 0.0
N1003 N 0.41716 0.28547 0.45868 0.0
O1004 O 0.29937 0.44193 0.46858 0.0
H1005 H 0.51551 0.4836 0.45956 0.0
H1006 H 0.29622 0.26251 0.45269 0.0
O1007 O 0.42765 0.55418 0.4487 0.0
C1008 C 0.23187 0.38208 0.47369 0.0
O1009 O 0.21054 0.30711 0.46932 0.0
N1010 N 0.35028 0.4356 0.4259 0.0
C1011 C 0.3862 0.44564 0.39423 0.0
C1012 C 0.39263 0.51294 0.40243 0.0
C1013 C 0.36943 0.50495 0.41768 0.0
C1014 C 0.34343 0.36849 0.41837 0.0
C1015 C 0.36064 0.37201 0.40245 0.0
H1016 H 0.372 0.55783 0.42313 0.0
H1017 H 0.32335 0.31163 0.42452 0.0
H1018 H 0.31028 0.60425 0.45142 0.0
H1019 H 0.08482 0.44929 0.4293 0.0
H1020 H 0.54636 0.36416 0.46333 0.0
H1021 H 0.41593 0.57301 0.39732 0.0
H1022 H 0.35285 0.31745 0.39671 0.0
C1023 C 0.66981 0.77621 0.43543 0.0
C1024 C 0.62886 0.69237 0.4343 0.0
N1025 N 0.55405 0.6624 0.44081 0.0
N1026 N 0.62102 0.79986 0.44237 0.0
C1027 C 0.55022 0.72907 0.44554 0.0
H1028 H 0.73207 0.81778 0.43169 0.0
Co1029 Co 0.66322 0.9101 0.44735 0.0
C1030 C 0.52131 0.9359 0.44147 0.0
O1031 O 0.57296 1.00113 0.4335 0.0
N1032 N 0.71336 1.02401 0.45305 0.0
C1033 C 0.74531 0.15143 0.45984 0.0
C1034 C 0.68252 0.07246 0.45739 0.0
C1035 C 0.79587 0.07461 0.45442 0.0
N1036 N 0.81691 0.15216 0.45869 0.0
O1037 O 0.66044 0.87789 0.46858 0.0
H1038 H 0.61879 0.05236 0.45956 0.0
H1039 H 0.83988 0.05418 0.45269 0.0
O1040 O 0.5482 0.89393 0.4487 0.0
C1041 C 0.7203 0.87025 0.47369 0.0
O1042 O 0.79527 0.9239 0.46932 0.0
N1043 N 0.6668 0.93517 0.4259 0.0
C1044 C 0.65678 0.96106 0.39423 0.0
C1045 C 0.58947 0.9002 0.40242 0.0
C1046 C 0.59744 0.88497 0.41768 0.0
C1047 C 0.73392 0.99543 0.41837 0.0
C1048 C 0.73041 1.00913 0.40246 0.0
H1049 H 0.54456 0.83466 0.42313 0.0
H1050 H 0.79077 1.0322 0.42452 0.0
H1051 H 0.49814 0.7265 0.45142 0.0
H1052 H 0.65306 0.65599 0.42929 0.0
H1053 H 0.73823 0.20266 0.46333 0.0
H1054 H 0.5294 0.86342 0.39732 0.0
H1055 H 0.78498 0.0559 0.39671 0.0
C1056 C 0.32618 0.91405 0.43543 0.0
C1057 C 0.41002 0.95695 0.43431 0.0
N1058 N 0.43998 0.9121 0.44081 0.0
N1059 N 0.30252 0.8416 0.44237 0.0
C1060 C 0.3733 0.84159 0.44554 0.0
H1061 H 0.2846 0.93473 0.43169 0.0
Co1062 Co 0.19227 0.77357 0.44735 0.0
C1063 C 0.16646 0.60585 0.44147 0.0
O1064 O 0.10124 0.59227 0.43349 0.0
N1065 N 0.07835 0.7098 0.45305 0.0
C1066 C 0.95093 0.61434 0.45983 0.0
C1067 C 1.02988 0.6305 0.45738 0.0
C1068 C 1.02776 0.74171 0.45441 0.0
N1069 N 0.95021 0.68521 0.45868 0.0
O1070 O 0.22447 0.80301 0.46857 0.0
H1071 H 1.04997 0.58686 0.45955 0.0
H1072 H 1.0482 0.80615 0.45269 0.0
O1073 O 0.20843 0.67471 0.4487 0.0
C1074 C 0.23211 0.8705 0.47369 0.0
O1075 O 0.17846 0.89182 0.46932 0.0
N1076 N 0.16722 0.75207 0.4259 0.0
C1077 C 0.14134 0.71617 0.39423 0.0
C1078 C 0.20219 0.70972 0.40242 0.0
C1079 C 0.21741 0.73291 0.41768 0.0
C1080 C 0.10696 0.75894 0.41837 0.0
C1081 C 0.09327 0.74173 0.40245 0.0
H1082 H 0.26771 0.73033 0.42313 0.0
H1083 H 0.0702 0.77903 0.42452 0.0
H1084 H 0.37587 0.79208 0.45142 0.0
H1085 H 0.4464 1.01753 0.42929 0.0
H1086 H 0.89968 0.55601 0.46333 0.0
H1087 H 0.23896 0.68641 0.39732 0.0
H1088 H 1.04651 0.74954 0.39671 0.0
C1089 C 0.11974 0.50119 0.33604 0.0
C1090 C 0.16068 0.45829 0.33716 0.0
N1091 N 0.23549 0.50314 0.33065 0.0
N1092 N 0.16853 0.57364 0.3291 0.0
C1093 C 0.23934 0.57365 0.32593 0.0
H1094 H 1.05748 0.48051 0.33977 0.0
Co1095 Co 0.12634 0.64168 0.32412 0.0
C1096 C 0.26825 0.8094 0.33 0.0
O1097 O 0.2166 0.82297 0.33798 0.0
N1098 N 0.0762 0.70545 0.31842 0.0
C1099 C 1.04425 0.80092 0.31164 0.0
C1100 C 0.10704 0.78475 0.31409 0.0
C1101 C 0.99369 0.67354 0.31706 0.0
N1102 N 0.97265 0.73005 0.31279 0.0
O1103 O 0.12912 0.61226 0.30289 0.0
H1104 H 0.17078 0.8284 0.31192 0.0
H1105 H 0.94969 0.60911 0.31878 0.0
O1106 O 0.24136 0.74054 0.32278 0.0
C1107 C 0.06926 0.54476 0.29778 0.0
O1108 O 0.99429 0.52344 0.30215 0.0
N1109 N 0.12276 0.66316 0.34557 0.0
C1110 C 0.13277 0.69903 0.37724 0.0
C1111 C 0.20008 0.70549 0.36905 0.0
C1112 C 0.19211 0.68231 0.35379 0.0
C1113 C 1.05564 0.65629 0.3531 0.0
C1114 C 1.05914 0.67349 0.36902 0.0
H1115 H 0.245 0.68489 0.34834 0.0
H1116 H 0.99879 0.63621 0.34695 0.0
H1117 H 0.29143 0.62318 0.32005 0.0
H1118 H 0.13647 0.39772 0.34218 0.0
H1119 H 1.05134 0.85925 0.30814 0.0
H1120 H 0.26015 0.72879 0.37415 0.0
H1121 H 1.00458 0.66568 0.37476 0.0
C1122 C 0.60125 0.63908 0.33604 0.0
C1123 C 0.64415 0.72292 0.33716 0.0
N1124 N 0.59931 0.75288 0.33066 0.0
N1125 N 0.5288 0.61542 0.3291 0.0
C1126 C 0.52879 0.6862 0.32593 0.0
H1127 H 0.62193 0.59751 0.33978 0.0
Co1128 Co 0.46076 0.50517 0.32413 0.0
C1129 C 0.29304 0.47936 0.33 0.0
O1130 O 0.27946 0.41414 0.33798 0.0
N1131 N 0.39699 0.39126 0.31842 0.0
C1132 C 0.30153 0.26383 0.31164 0.0
C1133 C 0.31769 0.34278 0.31409 0.0
C1134 C 0.42891 0.34067 0.31706 0.0
N1135 N 0.37241 0.26312 0.31279 0.0
O1136 O 0.49019 0.53737 0.3029 0.0
H1137 H 0.27404 0.36286 0.31192 0.0
H1138 H 0.49335 0.36111 0.31878 0.0
O1139 O 0.3619 0.52132 0.32278 0.0
C1140 C 0.55769 0.54501 0.29778 0.0
O1141 O 0.57901 0.49137 0.30215 0.0
N1142 N 0.43927 0.48012 0.34558 0.0
C1143 C 0.40336 0.45423 0.37724 0.0
C1144 C 0.39691 0.51509 0.36905 0.0
C1145 C 0.42011 0.53031 0.35379 0.0
C1146 C 0.44613 0.41986 0.3531 0.0
C1147 C 0.42891 0.40616 0.36902 0.0
H1148 H 0.41753 0.58062 0.34834 0.0
H1149 H 0.46622 0.3831 0.34695 0.0
H1150 H 0.47927 0.68877 0.32005 0.0
H1151 H 0.70473 0.7593 0.34218 0.0
H1152 H 0.2432 0.21258 0.30815 0.0
H1153 H 0.37361 0.55185 0.37415 0.0
H1154 H 0.43671 0.35939 0.37477 0.0
C1155 C 0.46338 0.98269 0.33604 0.0
C1156 C 0.37954 0.94174 0.33717 0.0
N1157 N 0.34958 0.86693 0.33066 0.0
N1158 N 0.48704 0.93391 0.3291 0.0
C1159 C 0.41625 0.86311 0.32593 0.0
H1160 H 0.50496 0.04495 0.33978 0.0
Co1161 Co 0.59728 0.97611 0.32413 0.0
C1162 C 0.62309 0.83421 0.33 0.0
O1163 O 0.68831 0.88585 0.33798 0.0
N1164 N 0.7112 1.02626 0.31842 0.0
C1165 C 0.83863 0.05822 0.31164 0.0
C1166 C 0.75967 0.99543 0.31409 0.0
C1167 C 0.7618 0.10877 0.31706 0.0
N1168 N 0.83935 0.12982 0.31279 0.0
O1169 O 0.56509 0.97335 0.3029 0.0
H1170 H 0.73958 0.9317 0.31192 0.0
H1171 H 0.74137 0.15277 0.31878 0.0
O1172 O 0.58113 0.8611 0.32278 0.0
C1173 C 0.55745 1.03321 0.29778 0.0
O1174 O 0.6111 0.10817 0.30216 0.0
N1175 N 0.62234 0.97968 0.34558 0.0
C1176 C 0.64821 0.96964 0.37724 0.0
C1177 C 0.58735 0.90234 0.36905 0.0
C1178 C 0.57213 0.91032 0.35379 0.0
C1179 C 0.6826 0.04679 0.3531 0.0
C1180 C 0.69629 0.04327 0.36902 0.0
H1181 H 0.52183 0.85744 0.34834 0.0
H1182 H 0.71937 0.10365 0.34696 0.0
H1183 H 0.41369 0.81103 0.32005 0.0
H1184 H 0.34316 0.96594 0.34218 0.0
H1185 H 0.88987 0.05115 0.30815 0.0
H1186 H 0.55058 0.84227 0.37415 0.0
H1187 H 0.74306 0.09784 0.37477 0.0
loop_
_geom_bond_atom_site_label_1
_geom_bond_atom_site_label_2
_geom_bond_distance
_geom_bond_site_symmetry_2
_ccdc_geom_bond_type
C0 C1 1.351 . S
C0 N3 1.368 . S
C0 H5 0.931 . S
C1 C0 1.351 . S
C1 N2 1.373 . S
C1 H29 0.930 . S
N2 C1 1.373 . S
N2 C4 1.340 . S
N3 C0 1.368 . S
N3 C4 1.321 . S
N3 Co6 2.135 . S
C4 N2 1.340 . S
C4 N3 1.321 . S
C4 H28 0.930 . S
H5 C0 0.931 . S
Co6 N3 2.135 . S
Co6 N9 2.121 . S
Co6 O14 2.055 . S
Co6 O17 2.039 . S
Co6 N20 2.140 . S
C7 O8 1.227 . S
C7 O17 1.265 1_655 S
O8 C7 1.227 . S
N9 Co6 2.121 . S
N9 C11 1.375 1_455 S
N9 C12 1.313 . S
C10 C11 1.338 . S
C10 N13 1.377 1_655 S
C10 H30 0.930 . S
C11 N9 1.375 1_655 S
C11 C10 1.338 . S
C11 H15 0.931 . S
C12 N9 1.313 . S
C12 N13 1.344 . S
C12 H16 0.930 . S
N13 C10 1.377 1_455 S
N13 C12 1.344 . S
O14 Co6 2.055 . S
O14 C18 1.253 . S
H15 C11 0.931 . S
H16 C12 0.930 . S
O17 Co6 2.039 . S
O17 C7 1.265 1_455 S
C18 O14 1.253 . S
C18 O19 1.227 . S
O19 C18 1.227 . S
N20 Co6 2.140 . S
N20 C23 1.346 . S
N20 C24 1.345 . S
C21 C22 1.387 . S
C21 C25 1.391 . S
C22 C21 1.387 . S
C22 C23 1.369 . S
C22 H31 0.929 . S
C23 N20 1.346 . S
C23 C22 1.369 . S
C23 H26 0.928 . S
C24 N20 1.345 . S
C24 C25 1.371 . S
C24 H27 0.931 . S
C25 C21 1.391 . S
C25 C24 1.371 . S
C25 H32 0.930 . S
H26 C23 0.928 . S
H27 C24 0.931 . S
H28 C4 0.930 . S
H29 C1 0.930 . S
H30 C10 0.930 . S
H31 C22 0.929 . S
H32 C25 0.930 . S
C33 C34 1.351 1_565 S
C33 N36 1.368 . S
C33 H38 0.931 . S
C34 C33 1.351 1_545 S
C34 N35 1.373 . S
C34 H62 0.930 . S
N35 C34 1.373 . S
N35 C37 1.340 1_545 S
N36 C33 1.368 . S
N36 C37 1.321 . S
N36 Co39 2.135 . S
C37 N35 1.340 1_565 S
C37 N36 1.321 . S
C37 H61 0.930 . S
H38 C33 0.931 . S
Co39 N36 2.135 . S
Co39 N42 2.121 . S
Co39 O47 2.055 . S
Co39 O50 2.039 . S
Co39 N53 2.140 . S
C40 O41 1.227 . S
C40 O50 1.265 . S
O41 C40 1.227 . S
N42 Co39 2.121 . S
N42 C44 1.375 . S
N42 C45 1.313 . S
C43 C44 1.338 . S
C43 N46 1.377 . S
C43 H63 0.930 . S
C44 N42 1.375 . S
C44 C43 1.338 . S
C44 H48 0.931 . S
C45 N42 1.313 . S
C45 N46 1.344 . S
C45 H49 0.930 . S
N46 C43 1.377 . S
N46 C45 1.344 . S
O47 Co39 2.055 . S
O47 C51 1.253 . S
H48 C44 0.931 . S
H49 C45 0.930 . S
O50 Co39 2.039 . S
O50 C40 1.265 . S
C51 O47 1.253 . S
C51 O52 1.227 . S
O52 C51 1.227 . S
N53 Co39 2.140 . S
N53 C56 1.346 . S
N53 C57 1.345 . S
C54 C55 1.387 . S
C54 C58 1.391 . S
C55 C54 1.387 . S
C55 C56 1.369 . S
C55 H64 0.929 . S
C56 N53 1.346 . S
C56 C55 1.369 . S
C56 H59 0.928 . S
C57 N53 1.345 . S
C57 C58 1.371 . S
C57 H60 0.931 . S
C58 C54 1.391 . S
C58 C57 1.371 . S
C58 H65 0.930 . S
H59 C56 0.928 . S
H60 C57 0.931 . S
H61 C37 0.930 . S
H62 C34 0.930 . S
H63 C43 0.930 . S
H64 C55 0.929 . S
H65 C58 0.930 . S
C66 C67 1.351 1_455 S
C66 N69 1.368 . S
C66 H71 0.931 . S
C67 C66 1.351 1_655 S
C67 N68 1.373 . S
C67 H95 0.930 . S
N68 C67 1.373 . S
N68 C70 1.340 1_655 S
N69 C66 1.368 . S
N69 C70 1.321 . S
N69 Co72 2.135 . S
C70 N68 1.340 1_455 S
C70 N69 1.321 . S
C70 H94 0.930 . S
H71 C66 0.931 . S
Co72 N69 2.135 . S
Co72 N75 2.121 . S
Co72 O80 2.055 . S
Co72 O83 2.039 . S
Co72 N86 2.140 . S
C73 O74 1.227 . S
C73 O83 1.265 1_545 S
O74 C73 1.227 . S
N75 Co72 2.121 . S
N75 C77 1.375 1_565 S
N75 C78 1.313 . S
C76 C77 1.338 . S
C76 N79 1.377 1_545 S
C76 H96 0.930 . S
C77 N75 1.375 1_545 S
C77 C76 1.338 . S
C77 H81 0.931 . S
C78 N75 1.313 . S
C78 N79 1.344 . S
C78 H82 0.930 . S
N79 C76 1.377 1_565 S
N79 C78 1.344 . S
O80 Co72 2.055 . S
O80 C84 1.253 . S
H81 C77 0.931 . S
H82 C78 0.930 . S
O83 Co72 2.039 . S
O83 C73 1.265 1_565 S
C84 O80 1.253 . S
C84 O85 1.227 . S
O85 C84 1.227 . S
N86 Co72 2.140 . S
N86 C89 1.346 . S
N86 C90 1.345 . S
C87 C88 1.387 . S
C87 C91 1.391 . S
C88 C87 1.387 . S
C88 C89 1.369 . S
C88 H97 0.929 . S
C89 N86 1.346 . S
C89 C88 1.369 . S
C89 H92 0.928 . S
C90 N86 1.345 . S
C90 C91 1.371 . S
C90 H93 0.931 . S
C91 C87 1.391 . S
C91 C90 1.371 . S
C91 H98 0.930 . S
H92 C89 0.928 . S
H93 C90 0.931 . S
H94 C70 0.930 . S
H95 C67 0.930 . S
H96 C76 0.930 . S
H97 C88 0.929 . S
H98 C91 0.930 . S
C99 C100 1.351 . S
C99 N102 1.368 . S
C99 H104 0.931 . S
C100 C99 1.351 . S
C100 N101 1.373 . S
C100 H128 0.930 . S
N101 C100 1.373 . S
N101 C103 1.340 . S
N102 C99 1.368 . S
N102 C103 1.321 . S
N102 Co105 2.135 . S
C103 N101 1.340 . S
C103 N102 1.321 . S
C103 H127 0.930 . S
H104 C99 0.931 . S
Co105 N102 2.135 . S
Co105 N108 2.121 . S
Co105 O113 2.055 . S
Co105 O116 2.039 . S
Co105 N119 2.140 . S
C106 O107 1.227 . S
C106 O116 1.265 1_565 S
O107 C106 1.227 . S
N108 Co105 2.121 . S
N108 C110 1.375 1_545 S
N108 C111 1.313 . S
C109 C110 1.338 . S
C109 N112 1.377 1_565 S
C109 H129 0.930 . S
C110 N108 1.375 1_565 S
C110 C109 1.338 . S
C110 H114 0.931 . S
C111 N108 1.313 . S
C111 N112 1.344 . S
C111 H115 0.930 . S
N112 C109 1.377 1_545 S
N112 C111 1.344 . S
O113 Co105 2.055 . S
O113 C117 1.253 . S
H114 C110 0.931 . S
H115 C111 0.930 . S
O116 Co105 2.039 . S
O116 C106 1.265 1_545 S
C117 O113 1.253 . S
C117 O118 1.227 . S
O118 C117 1.227 . S
N119 Co105 2.140 . S
N119 C122 1.346 . S
N119 C123 1.345 . S
C120 C121 1.387 . S
C120 C124 1.391 . S
C121 C120 1.387 . S
C121 C122 1.369 . S
C121 H130 0.929 . S
C122 N119 1.346 . S
C122 C121 1.369 . S
C122 H125 0.928 . S
C123 N119 1.345 . S
C123 C124 1.371 . S
C123 H126 0.931 . S
C124 C120 1.391 . S
C124 C123 1.371 . S
C124 H131 0.930 . S
H125 C122 0.928 . S
H126 C123 0.931 . S
H127 C103 0.930 . S
H128 C100 0.930 . S
H129 C109 0.930 . S
H130 C121 0.929 . S
H131 C124 0.930 . S
C132 C133 1.351 1_545 S
C132 N135 1.368 . S
C132 H137 0.931 . S
C133 C132 1.351 1_565 S
C133 N134 1.373 . S
C133 H161 0.930 . S
N134 C133 1.373 . S
N134 C136 1.340 1_565 S
N135 C132 1.368 . S
N135 C136 1.321 . S
N135 Co138 2.135 . S
C136 N134 1.340 1_545 S
C136 N135 1.321 . S
C136 H160 0.930 . S
H137 C132 0.931 . S
Co138 N135 2.135 . S
Co138 N141 2.121 . S
Co138 O146 2.055 . S
Co138 O149 2.039 . S
Co138 N152 2.140 . S
C139 O140 1.227 . S
C139 O149 1.265 1_455 S
O140 C139 1.227 . S
N141 Co138 2.121 . S
N141 C143 1.375 1_655 S
N141 C144 1.313 . S
C142 C143 1.338 . S
C142 N145 1.377 1_455 S
C142 H162 0.930 . S
C143 N141 1.375 1_455 S
C143 C142 1.338 . S
C143 H147 0.931 . S
C144 N141 1.313 . S
C144 N145 1.344 . S
C144 H148 0.930 . S
N145 C142 1.377 1_655 S
N145 C144 1.344 . S
O146 Co138 2.055 . S
O146 C150 1.253 . S
H147 C143 0.931 . S
H148 C144 0.930 . S
O149 Co138 2.039 . S
O149 C139 1.265 1_655 S
C150 O146 1.253 . S
C150 O151 1.227 . S
O151 C150 1.227 . S
N152 Co138 2.140 . S
N152 C155 1.346 . S
N152 C156 1.345 . S
C153 C154 1.387 . S
C153 C157 1.391 . S
C154 C153 1.387 . S
C154 C155 1.369 . S
C154 H163 0.929 . S
C155 N152 1.346 . S
C155 C154 1.369 . S
C155 H158 0.928 . S
C156 N152 1.345 . S
C156 C157 1.371 . S
C156 H159 0.931 . S
C157 C153 1.391 . S
C157 C156 1.371 . S
C157 H164 0.930 . S
H158 C155 0.928 . S
H159 C156 0.931 . S
H160 C136 0.930 . S
H161 C133 0.930 . S
H162 C142 0.930 . S
H163 C154 0.929 . S
H164 C157 0.930 . S
C165 C166 1.351 1_655 S
C165 N168 1.368 . S
C165 H170 0.931 . S
C166 C165 1.351 1_455 S
C166 N167 1.373 . S
C166 H194 0.930 . S
N167 C166 1.373 . S
N167 C169 1.340 1_455 S
N168 C165 1.368 . S
N168 C169 1.321 . S
N168 Co171 2.135 . S
C169 N167 1.340 1_655 S
C169 N168 1.321 . S
C169 H193 0.930 . S
H170 C165 0.931 . S
Co171 N168 2.135 . S
Co171 N174 2.121 . S
Co171 O179 2.055 . S
Co171 O182 2.039 . S
Co171 N185 2.140 . S
C172 O173 1.227 . S
C172 O182 1.265 . S
O173 C172 1.227 . S
N174 Co171 2.121 . S
N174 C176 1.375 . S
N174 C177 1.313 . S
C175 C176 1.338 . S
C175 N178 1.377 . S
C175 H195 0.930 . S
C176 N174 1.375 . S
C176 C175 1.338 . S
C176 H180 0.931 . S
C177 N174 1.313 . S
C177 N178 1.344 . S
C177 H181 0.930 . S
N178 C175 1.377 . S
N178 C177 1.344 . S
O179 Co171 2.055 . S
O179 C183 1.253 . S
H180 C176 0.931 . S
H181 C177 0.930 . S
O182 Co171 2.039 . S
O182 C172 1.265 . S
C183 O179 1.253 . S
C183 O184 1.227 . S
O184 C183 1.227 . S
N185 Co171 2.140 . S
N185 C188 1.346 . S
N185 C189 1.345 . S
C186 C187 1.387 . S
C186 C190 1.391 . S
C187 C186 1.387 . S
C187 C188 1.369 . S
C187 H196 0.929 . S
C188 N185 1.346 . S
C188 C187 1.369 . S
C188 H191 0.928 . S
C189 N185 1.345 . S
C189 C190 1.371 . S
C189 H192 0.931 . S
C190 C186 1.391 . S
C190 C189 1.371 . S
C190 H197 0.930 . S
H191 C188 0.928 . S
H192 C189 0.931 . S
H193 C169 0.930 . S
H194 C166 0.930 . S
H195 C175 0.930 . S
H196 C187 0.929 . S
H197 C190 0.930 . S
C198 C199 1.351 . S
C198 N201 1.368 . S
C198 H203 0.931 . S
C199 C198 1.351 . S
C199 N200 1.373 . S
C199 H227 0.930 . S
N200 C199 1.373 . S
N200 C202 1.340 . S
N201 C198 1.368 . S
N201 C202 1.321 . S
N201 Co204 2.135 . S
C202 N200 1.340 . S
C202 N201 1.321 . S
C202 H226 0.930 . S
H203 C198 0.931 . S
Co204 N201 2.135 . S
Co204 N207 2.121 . S
Co204 O212 2.055 . S
Co204 O215 2.039 . S
Co204 N218 2.140 . S
C205 O206 1.227 . S
C205 O215 1.265 1_455 S
O206 C205 1.227 . S
N207 Co204 2.121 . S
N207 C209 1.375 1_655 S
N207 C210 1.313 . S
C208 C209 1.338 . S
C208 N211 1.377 1_455 S
C208 H228 0.930 . S
C209 N207 1.375 1_455 S
C209 C208 1.338 . S
C209 H213 0.931 . S
C210 N207 1.313 . S
C210 N211 1.344 . S
C210 H214 0.930 . S
N211 C208 1.377 1_655 S
N211 C210 1.344 . S
O212 Co204 2.055 . S
O212 C216 1.253 . S
H213 C209 0.931 . S
H214 C210 0.930 . S
O215 Co204 2.039 . S
O215 C205 1.265 1_655 S
C216 O212 1.253 . S
C216 O217 1.227 . S
O217 C216 1.227 . S
N218 Co204 2.140 . S
N218 C221 1.346 . S
N218 C222 1.345 . S
C219 C220 1.387 . S
C219 C223 1.391 . S
C220 C219 1.387 . S
C220 C221 1.369 . S
C220 H229 0.929 . S
C221 N218 1.346 . S
C221 C220 1.369 . S
C221 H224 0.928 . S
C222 N218 1.345 . S
C222 C223 1.371 . S
C222 H225 0.931 . S
C223 C219 1.391 . S
C223 C222 1.371 . S
C223 H230 0.930 . S
H224 C221 0.928 . S
H225 C222 0.931 . S
H226 C202 0.930 . S
H227 C199 0.930 . S
H228 C208 0.930 . S
H229 C220 0.929 . S
H230 C223 0.930 . S
C231 C232 1.351 1_545 S
C231 N234 1.368 . S
C231 H236 0.931 . S
C232 C231 1.351 1_565 S
C232 N233 1.373 . S
C232 H260 0.930 . S
N233 C232 1.373 . S
N233 C235 1.340 1_565 S
N234 C231 1.368 . S
N234 C235 1.321 . S
N234 Co237 2.135 . S
C235 N233 1.340 1_545 S
C235 N234 1.321 . S
C235 H259 0.930 . S
H236 C231 0.931 . S
Co237 N234 2.135 . S
Co237 N240 2.121 . S
Co237 O245 2.055 . S
Co237 O248 2.039 . S
Co237 N251 2.140 . S
C238 O239 1.227 . S
C238 O248 1.265 . S
O239 C238 1.227 . S
N240 Co237 2.121 . S
N240 C242 1.375 . S
N240 C243 1.313 . S
C241 C242 1.338 . S
C241 N244 1.377 . S
C241 H261 0.930 . S
C242 N240 1.375 . S
C242 C241 1.338 . S
C242 H246 0.931 . S
C243 N240 1.313 . S
C243 N244 1.344 . S
C243 H247 0.930 . S
N244 C241 1.377 . S
N244 C243 1.344 . S
O245 Co237 2.055 . S
O245 C249 1.253 . S
H246 C242 0.931 . S
H247 C243 0.930 . S
O248 Co237 2.039 . S
O248 C238 1.265 . S
C249 O245 1.253 . S
C249 O250 1.227 . S
O250 C249 1.227 . S
N251 Co237 2.140 . S
N251 C254 1.346 . S
N251 C255 1.345 . S
C252 C253 1.387 . S
C252 C256 1.391 . S
C253 C252 1.387 . S
C253 C254 1.369 . S
C253 H262 0.929 . S
C254 N251 1.346 . S
C254 C253 1.369 . S
C254 H257 0.928 . S
C255 N251 1.345 . S
C255 C256 1.371 . S
C255 H258 0.931 . S
C256 C252 1.391 . S
C256 C255 1.371 . S
C256 H263 0.930 . S
H257 C254 0.928 . S
H258 C255 0.931 . S
H259 C235 0.930 . S
H260 C232 0.930 . S
H261 C241 0.930 . S
H262 C253 0.929 . S
H263 C256 0.930 . S
C264 C265 1.351 1_655 S
C264 N267 1.368 . S
C264 H269 0.931 . S
C265 C264 1.351 1_455 S
C265 N266 1.373 . S
C265 H293 0.930 . S
N266 C265 1.373 . S
N266 C268 1.340 1_455 S
N267 C264 1.368 . S
N267 C268 1.321 . S
N267 Co270 2.135 . S
C268 N266 1.340 1_655 S
C268 N267 1.321 . S
C268 H292 0.930 . S
H269 C264 0.931 . S
Co270 N267 2.135 . S
Co270 N273 2.121 . S
Co270 O278 2.055 . S
Co270 O281 2.039 . S
Co270 N284 2.140 . S
C271 O272 1.227 . S
C271 O281 1.265 1_565 S
O272 C271 1.227 . S
N273 Co270 2.121 . S
N273 C275 1.375 1_545 S
N273 C276 1.313 . S
C274 C275 1.338 . S
C274 N277 1.377 1_565 S
C274 H294 0.930 . S
C275 N273 1.375 1_565 S
C275 C274 1.338 . S
C275 H279 0.931 . S
C276 N273 1.313 . S
C276 N277 1.344 . S
C276 H280 0.930 . S
N277 C274 1.377 1_545 S
N277 C276 1.344 . S
O278 Co270 2.055 . S
O278 C282 1.253 . S
H279 C275 0.931 . S
H280 C276 0.930 . S
O281 Co270 2.039 . S
O281 C271 1.265 1_545 S
C282 O278 1.253 . S
C282 O283 1.227 . S
O283 C282 1.227 . S
N284 Co270 2.140 . S
N284 C287 1.346 . S
N284 C288 1.345 . S
C285 C286 1.387 . S
C285 C289 1.391 . S
C286 C285 1.387 . S
C286 C287 1.369 . S
C286 H295 0.929 . S
C287 N284 1.346 . S
C287 C286 1.369 . S
C287 H290 0.928 . S
C288 N284 1.345 . S
C288 C289 1.371 . S
C288 H291 0.931 . S
C289 C285 1.391 . S
C289 C288 1.371 . S
C289 H296 0.930 . S
H290 C287 0.928 . S
H291 C288 0.931 . S
H292 C268 0.930 . S
H293 C265 0.930 . S
H294 C274 0.930 . S
H295 C286 0.929 . S
H296 C289 0.930 . S
C297 C298 1.351 . S
C297 N300 1.368 . S
C297 H302 0.931 . S
C298 C297 1.351 . S
C298 N299 1.373 . S
C298 H326 0.930 . S
N299 C298 1.373 . S
N299 C301 1.340 . S
N300 C297 1.368 . S
N300 C301 1.321 . S
N300 Co303 2.135 . S
C301 N299 1.340 . S
C301 N300 1.321 . S
C301 H325 0.930 . S
H302 C297 0.931 . S
Co303 N300 2.135 . S
Co303 N306 2.121 . S
Co303 O311 2.055 . S
Co303 O314 2.039 . S
Co303 N317 2.140 . S
C304 O305 1.227 . S
C304 O314 1.265 1_545 S
O305 C304 1.227 . S
N306 Co303 2.121 . S
N306 C308 1.375 1_565 S
N306 C309 1.313 . S
C307 C308 1.338 . S
C307 N310 1.377 1_545 S
C307 H327 0.930 . S
C308 N306 1.375 1_545 S
C308 C307 1.338 . S
C308 H312 0.931 . S
C309 N306 1.313 . S
C309 N310 1.344 . S
C309 H313 0.930 . S
N310 C307 1.377 1_565 S
N310 C309 1.344 . S
O311 Co303 2.055 . S
O311 C315 1.253 . S
H312 C308 0.931 . S
H313 C309 0.930 . S
O314 Co303 2.039 . S
O314 C304 1.265 1_565 S
C315 O311 1.253 . S
C315 O316 1.227 . S
O316 C315 1.227 . S
N317 Co303 2.140 . S
N317 C320 1.346 . S
N317 C321 1.345 . S
C318 C319 1.387 . S
C318 C322 1.391 . S
C319 C318 1.387 . S
C319 C320 1.369 . S
C319 H328 0.929 . S
C320 N317 1.346 . S
C320 C319 1.369 . S
C320 H323 0.928 . S
C321 N317 1.345 . S
C321 C322 1.371 . S
C321 H324 0.931 . S
C322 C318 1.391 . S
C322 C321 1.371 . S
C322 H329 0.930 . S
H323 C320 0.928 . S
H324 C321 0.931 . S
H325 C301 0.930 . S
H326 C298 0.930 . S
H327 C307 0.930 . S
H328 C319 0.929 . S
H329 C322 0.930 . S
C330 C331 1.351 1_565 S
C330 N333 1.368 . S
C330 H335 0.931 . S
C331 C330 1.351 1_545 S
C331 N332 1.373 . S
C331 H359 0.930 . S
N332 C331 1.373 . S
N332 C334 1.340 1_545 S
N333 C330 1.368 . S
N333 C334 1.321 . S
N333 Co336 2.135 . S
C334 N332 1.340 1_565 S
C334 N333 1.321 . S
C334 H358 0.930 . S
H335 C330 0.931 . S
Co336 N333 2.135 . S
Co336 N339 2.121 . S
Co336 O344 2.055 . S
Co336 O347 2.039 . S
Co336 N350 2.140 . S
C337 O338 1.227 . S
C337 O347 1.265 1_655 S
O338 C337 1.227 . S
N339 Co336 2.121 . S
N339 C341 1.375 1_455 S
N339 C342 1.313 . S
C340 C341 1.338 . S
C340 N343 1.377 1_655 S
C340 H360 0.930 . S
C341 N339 1.375 1_655 S
C341 C340 1.338 . S
C341 H345 0.931 . S
C342 N339 1.313 . S
C342 N343 1.344 . S
C342 H346 0.930 . S
N343 C340 1.377 1_455 S
N343 C342 1.344 . S
O344 Co336 2.055 . S
O344 C348 1.253 . S
H345 C341 0.931 . S
H346 C342 0.930 . S
O347 Co336 2.039 . S
O347 C337 1.265 1_455 S
C348 O344 1.253 . S
C348 O349 1.227 . S
O349 C348 1.227 . S
N350 Co336 2.140 . S
N350 C353 1.346 . S
N350 C354 1.345 . S
C351 C352 1.387 . S
C351 C355 1.391 . S
C352 C351 1.387 . S
C352 C353 1.369 . S
C352 H361 0.929 . S
C353 N350 1.346 . S
C353 C352 1.369 . S
C353 H356 0.928 . S
C354 N350 1.345 . S
C354 C355 1.371 . S
C354 H357 0.931 . S
C355 C351 1.391 . S
C355 C354 1.371 . S
C355 H362 0.930 . S
H356 C353 0.928 . S
H357 C354 0.931 . S
H358 C334 0.930 . S
H359 C331 0.930 . S
H360 C340 0.930 . S
H361 C352 0.929 . S
H362 C355 0.930 . S
C363 C364 1.351 1_455 S
C363 N366 1.368 . S
C363 H368 0.931 . S
C364 C363 1.351 1_655 S
C364 N365 1.373 . S
C364 H392 0.930 . S
N365 C364 1.373 . S
N365 C367 1.340 1_655 S
N366 C363 1.368 . S
N366 C367 1.321 . S
N366 Co369 2.135 . S
C367 N365 1.340 1_455 S
C367 N366 1.321 . S
C367 H391 0.930 . S
H368 C363 0.931 . S
Co369 N366 2.135 . S
Co369 N372 2.121 . S
Co369 O377 2.055 . S
Co369 O380 2.039 . S
Co369 N383 2.140 . S
C370 O371 1.227 . S
C370 O380 1.265 . S
O371 C370 1.227 . S
N372 Co369 2.121 . S
N372 C374 1.375 . S
N372 C375 1.313 . S
C373 C374 1.338 . S
C373 N376 1.377 . S
C373 H393 0.930 . S
C374 N372 1.375 . S
C374 C373 1.338 . S
C374 H378 0.931 . S
C375 N372 1.313 . S
C375 N376 1.344 . S
C375 H379 0.930 . S
N376 C373 1.377 . S
N376 C375 1.344 . S
O377 Co369 2.055 . S
O377 C381 1.253 . S
H378 C374 0.931 . S
H379 C375 0.930 . S
O380 Co369 2.039 . S
O380 C370 1.265 . S
C381 O377 1.253 . S
C381 O382 1.227 . S
O382 C381 1.227 . S
N383 Co369 2.140 . S
N383 C386 1.346 . S
N383 C387 1.345 . S
C384 C385 1.387 . S
C384 C388 1.391 . S
C385 C384 1.387 . S
C385 C386 1.369 . S
C385 H394 0.929 . S
C386 N383 1.346 . S
C386 C385 1.369 . S
C386 H389 0.928 . S
C387 N383 1.345 . S
C387 C388 1.371 . S
C387 H390 0.931 . S
C388 C384 1.391 . S
C388 C387 1.371 . S
C388 H395 0.930 . S
H389 C386 0.928 . S
H390 C387 0.931 . S
H391 C367 0.930 . S
H392 C364 0.930 . S
H393 C373 0.930 . S
H394 C385 0.929 . S
H395 C388 0.930 . S
C396 C397 1.351 . S
C396 N399 1.368 . S
C396 H401 0.931 . S
C397 C396 1.351 . S
C397 N398 1.373 . S
C397 H425 0.930 . S
N398 C397 1.373 . S
N398 C400 1.340 . S
N399 C396 1.368 . S
N399 C400 1.321 . S
N399 Co402 2.135 . S
C400 N398 1.340 . S
C400 N399 1.321 . S
C400 H424 0.930 . S
H401 C396 0.931 . S
Co402 N399 2.135 . S
Co402 N405 2.121 . S
Co402 O410 2.055 . S
Co402 O413 2.039 . S
Co402 N416 2.140 . S
C403 O404 1.227 . S
C403 O413 1.265 . S
O404 C403 1.227 . S
N405 Co402 2.121 . S
N405 C407 1.375 . S
N405 C408 1.313 . S
C406 C407 1.338 . S
C406 N409 1.377 . S
C406 H426 0.930 . S
C407 N405 1.375 . S
C407 C406 1.338 . S
C407 H411 0.931 . S
C408 N405 1.313 . S
C408 N409 1.344 . S
C408 H412 0.930 . S
N409 C406 1.377 . S
N409 C408 1.344 . S
O410 Co402 2.055 . S
O410 C414 1.253 . S
H411 C407 0.931 . S
H412 C408 0.930 . S
O413 Co402 2.039 . S
O413 C403 1.265 . S
C414 O410 1.253 . S
C414 O415 1.227 . S
O415 C414 1.227 . S
N416 Co402 2.140 . S
N416 C419 1.346 . S
N416 C420 1.345 . S
C417 C418 1.387 . S
C417 C421 1.391 . S
C418 C417 1.387 . S
C418 C419 1.369 . S
C418 H427 0.929 . S
C419 N416 1.346 . S
C419 C418 1.369 . S
C419 H422 0.928 . S
C420 N416 1.345 . S
C420 C421 1.371 . S
C420 H423 0.931 . S
C421 C417 1.391 . S
C421 C420 1.371 . S
C421 H428 0.930 . S
H422 C419 0.928 . S
H423 C420 0.931 . S
H424 C400 0.930 . S
H425 C397 0.930 . S
H426 C406 0.930 . S
H427 C418 0.929 . S
H428 C421 0.930 . S
C429 C430 1.351 . S
C429 N432 1.368 . S
C429 H434 0.931 . S
C430 C429 1.351 . S
C430 N431 1.373 . S
C430 H458 0.930 . S
N431 C430 1.373 . S
N431 C433 1.340 . S
N432 C429 1.368 . S
N432 C433 1.321 . S
N432 Co435 2.135 . S
C433 N431 1.340 . S
C433 N432 1.321 . S
C433 H457 0.930 . S
H434 C429 0.931 . S
Co435 N432 2.135 . S
Co435 N438 2.121 . S
Co435 O443 2.055 . S
Co435 O446 2.039 . S
Co435 N449 2.140 . S
C436 O437 1.227 . S
C436 O446 1.265 . S
O437 C436 1.227 . S
N438 Co435 2.121 . S
N438 C440 1.375 . S
N438 C441 1.313 . S
C439 C440 1.338 1_565 S
C439 N442 1.377 . S
C439 H459 0.930 . S
C440 N438 1.375 . S
C440 C439 1.338 1_545 S
C440 H444 0.931 . S
C441 N438 1.313 . S
C441 N442 1.344 1_545 S
C441 H445 0.930 . S
N442 C439 1.377 . S
N442 C441 1.344 1_565 S
O443 Co435 2.055 . S
O443 C447 1.253 . S
H444 C440 0.931 . S
H445 C441 0.930 . S
O446 Co435 2.039 . S
O446 C436 1.265 . S
C447 O443 1.253 . S
C447 O448 1.227 . S
O448 C447 1.227 . S
N449 Co435 2.140 . S
N449 C452 1.346 . S
N449 C453 1.345 . S
C450 C451 1.387 . S
C450 C454 1.391 . S
C451 C450 1.387 . S
C451 C452 1.369 . S
C451 H460 0.929 . S
C452 N449 1.346 . S
C452 C451 1.369 . S
C452 H455 0.928 . S
C453 N449 1.345 . S
C453 C454 1.371 . S
C453 H456 0.931 . S
C454 C450 1.391 . S
C454 C453 1.371 . S
C454 H461 0.930 . S
H455 C452 0.928 . S
H456 C453 0.931 . S
H457 C433 0.930 . S
H458 C430 0.930 . S
H459 C439 0.930 . S
H460 C451 0.929 . S
H461 C454 0.930 . S
C462 C463 1.351 . S
C462 N465 1.368 . S
C462 H467 0.931 . S
C463 C462 1.351 . S
C463 N464 1.373 . S
C463 H491 0.930 . S
N464 C463 1.373 . S
N464 C466 1.340 . S
N465 C462 1.368 . S
N465 C466 1.321 . S
N465 Co468 2.135 . S
C466 N464 1.340 . S
C466 N465 1.321 . S
C466 H490 0.930 . S
H467 C462 0.931 . S
Co468 N465 2.135 . S
Co468 N471 2.121 . S
Co468 O476 2.055 . S
Co468 O479 2.039 . S
Co468 N482 2.140 . S
C469 O470 1.227 . S
C469 O479 1.265 . S
O470 C469 1.227 . S
N471 Co468 2.121 . S
N471 C473 1.375 . S
N471 C474 1.313 . S
C472 C473 1.338 1_455 S
C472 N475 1.377 . S
C472 H492 0.930 . S
C473 N471 1.375 . S
C473 C472 1.338 1_655 S
C473 H477 0.931 . S
C474 N471 1.313 . S
C474 N475 1.344 1_655 S
C474 H478 0.930 . S
N475 C472 1.377 . S
N475 C474 1.344 1_455 S
O476 Co468 2.055 . S
O476 C480 1.253 . S
H477 C473 0.931 . S
H478 C474 0.930 . S
O479 Co468 2.039 . S
O479 C469 1.265 . S
C480 O476 1.253 . S
C480 O481 1.227 . S
O481 C480 1.227 . S
N482 Co468 2.140 . S
N482 C485 1.346 . S
N482 C486 1.345 . S
C483 C484 1.387 . S
C483 C487 1.391 . S
C484 C483 1.387 . S
C484 C485 1.369 . S
C484 H493 0.929 . S
C485 N482 1.346 . S
C485 C484 1.369 . S
C485 H488 0.928 . S
C486 N482 1.345 . S
C486 C487 1.371 . S
C486 H489 0.931 . S
C487 C483 1.391 . S
C487 C486 1.371 . S
C487 H494 0.930 . S
H488 C485 0.928 . S
H489 C486 0.931 . S
H490 C466 0.930 . S
H491 C463 0.930 . S
H492 C472 0.930 . S
H493 C484 0.929 . S
H494 C487 0.930 . S
C495 C496 1.351 . S
C495 N498 1.368 . S
C495 H500 0.931 . S
C496 C495 1.351 . S
C496 N497 1.373 . S
C496 H524 0.930 . S
N497 C496 1.373 . S
N497 C499 1.340 . S
N498 C495 1.368 . S
N498 C499 1.321 . S
N498 Co501 2.135 . S
C499 N497 1.340 . S
C499 N498 1.321 . S
C499 H523 0.930 . S
H500 C495 0.931 . S
Co501 N498 2.135 . S
Co501 N504 2.121 . S
Co501 O509 2.055 . S
Co501 O512 2.039 . S
Co501 N515 2.140 . S
C502 O503 1.227 . S
C502 O512 1.265 . S
O503 C502 1.227 . S
N504 Co501 2.121 . S
N504 C506 1.375 . S
N504 C507 1.313 1_655 S
C505 C506 1.338 1_455 S
C505 N508 1.377 . S
C505 H525 0.930 . S
C506 N504 1.375 . S
C506 C505 1.338 1_655 S
C506 H510 0.931 . S
C507 N504 1.313 1_455 S
C507 N508 1.344 . S
C507 H511 0.930 . S
N508 C505 1.377 . S
N508 C507 1.344 . S
O509 Co501 2.055 . S
O509 C513 1.253 1_655 S
H510 C506 0.931 . S
H511 C507 0.930 . S
O512 Co501 2.039 . S
O512 C502 1.265 . S
C513 O509 1.253 1_455 S
C513 O514 1.227 . S
O514 C513 1.227 . S
N515 Co501 2.140 . S
N515 C518 1.346 . S
N515 C519 1.345 1_655 S
C516 C517 1.387 . S
C516 C520 1.391 1_655 S
C517 C516 1.387 . S
C517 C518 1.369 . S
C517 H526 0.929 . S
C518 N515 1.346 . S
C518 C517 1.369 . S
C518 H521 0.928 . S
C519 N515 1.345 1_455 S
C519 C520 1.371 . S
C519 H522 0.931 . S
C520 C516 1.391 1_455 S
C520 C519 1.371 . S
C520 H527 0.930 . S
H521 C518 0.928 . S
H522 C519 0.931 . S
H523 C499 0.930 . S
H524 C496 0.930 . S
H525 C505 0.930 . S
H526 C517 0.929 . S
H527 C520 0.930 . S
C528 C529 1.351 . S
C528 N531 1.368 . S
C528 H533 0.931 . S
C529 C528 1.351 . S
C529 N530 1.373 . S
C529 H557 0.930 . S
N530 C529 1.373 . S
N530 C532 1.340 . S
N531 C528 1.368 . S
N531 C532 1.321 . S
N531 Co534 2.135 . S
C532 N530 1.340 . S
C532 N531 1.321 . S
C532 H556 0.930 . S
H533 C528 0.931 . S
Co534 N531 2.135 . S
Co534 N537 2.121 . S
Co534 O542 2.055 . S
Co534 O545 2.039 . S
Co534 N548 2.140 . S
C535 O536 1.227 . S
C535 O545 1.265 . S
O536 C535 1.227 . S
N537 Co534 2.121 . S
N537 C539 1.375 . S
N537 C540 1.313 . S
C538 C539 1.338 . S
C538 N541 1.377 . S
C538 H558 0.930 . S
C539 N537 1.375 . S
C539 C538 1.338 . S
C539 H543 0.931 . S
C540 N537 1.313 . S
C540 N541 1.344 . S
C540 H544 0.930 . S
N541 C538 1.377 . S
N541 C540 1.344 . S
O542 Co534 2.055 . S
O542 C546 1.253 . S
H543 C539 0.931 . S
H544 C540 0.930 . S
O545 Co534 2.039 . S
O545 C535 1.265 . S
C546 O542 1.253 . S
C546 O547 1.227 . S
O547 C546 1.227 . S
N548 Co534 2.140 . S
N548 C551 1.346 . S
N548 C552 1.345 . S
C549 C550 1.387 . S
C549 C553 1.391 . S
C550 C549 1.387 . S
C550 C551 1.369 . S
C550 H559 0.929 . S
C551 N548 1.346 . S
C551 C550 1.369 . S
C551 H554 0.928 . S
C552 N548 1.345 . S
C552 C553 1.371 . S
C552 H555 0.931 . S
C553 C549 1.391 . S
C553 C552 1.371 . S
C553 H560 0.930 . S
H554 C551 0.928 . S
H555 C552 0.931 . S
H556 C532 0.930 . S
H557 C529 0.930 . S
H558 C538 0.930 . S
H559 C550 0.929 . S
H560 C553 0.930 . S
C561 C562 1.351 . S
C561 N564 1.368 . S
C561 H566 0.931 . S
C562 C561 1.351 . S
C562 N563 1.373 . S
C562 H590 0.930 . S
N563 C562 1.373 . S
N563 C565 1.340 . S
N564 C561 1.368 . S
N564 C565 1.321 . S
N564 Co567 2.135 . S
C565 N563 1.340 . S
C565 N564 1.321 . S
C565 H589 0.930 . S
H566 C561 0.931 . S
Co567 N564 2.135 . S
Co567 N570 2.121 . S
Co567 O575 2.055 . S
Co567 O578 2.039 . S
Co567 N581 2.140 . S
C568 O569 1.227 . S
C568 O578 1.265 . S
O569 C568 1.227 . S
N570 Co567 2.121 . S
N570 C572 1.375 . S
N570 C573 1.313 1_545 S
C571 C572 1.338 1_565 S
C571 N574 1.377 . S
C571 H591 0.930 . S
C572 N570 1.375 . S
C572 C571 1.338 1_545 S
C572 H576 0.931 . S
C573 N570 1.313 1_565 S
C573 N574 1.344 . S
C573 H577 0.930 . S
N574 C571 1.377 . S
N574 C573 1.344 . S
O575 Co567 2.055 . S
O575 C579 1.253 1_545 S
H576 C572 0.931 . S
H577 C573 0.930 . S
O578 Co567 2.039 . S
O578 C568 1.265 . S
C579 O575 1.253 1_565 S
C579 O580 1.227 . S
O580 C579 1.227 . S
N581 Co567 2.140 . S
N581 C584 1.346 . S
N581 C585 1.345 1_545 S
C582 C583 1.387 . S
C582 C586 1.391 1_545 S
C583 C582 1.387 . S
C583 C584 1.369 . S
C583 H592 0.929 . S
C584 N581 1.346 . S
C584 C583 1.369 . S
C584 H587 0.928 . S
C585 N581 1.345 1_565 S
C585 C586 1.371 . S
C585 H588 0.931 . S
C586 C582 1.391 1_565 S
C586 C585 1.371 . S
C586 H593 0.930 . S
H587 C584 0.928 . S
H588 C585 0.931 . S
H589 C565 0.930 . S
H590 C562 0.930 . S
H591 C571 0.930 . S
H592 C583 0.929 . S
H593 C586 0.930 . S
C594 C595 1.351 . S
C594 N597 1.368 . S
C594 H599 0.931 . S
C595 C594 1.351 . S
C595 N596 1.373 . S
C595 H623 0.930 . S
N596 C595 1.373 . S
N596 C598 1.340 . S
N597 C594 1.368 . S
N597 C598 1.321 . S
N597 Co600 2.135 . S
C598 N596 1.340 . S
C598 N597 1.321 . S
C598 H622 0.930 . S
H599 C594 0.931 . S
Co600 N597 2.135 . S
Co600 N603 2.121 . S
Co600 O608 2.055 . S
Co600 O611 2.039 . S
Co600 N614 2.140 . S
C601 O602 1.227 . S
C601 O611 1.265 . S
O602 C601 1.227 . S
N603 Co600 2.121 . S
N603 C605 1.375 . S
N603 C606 1.313 1_545 S
C604 C605 1.338 1_565 S
C604 N607 1.377 . S
C604 H624 0.930 . S
C605 N603 1.375 . S
C605 C604 1.338 1_545 S
C605 H609 0.931 . S
C606 N603 1.313 1_565 S
C606 N607 1.344 . S
C606 H610 0.930 . S
N607 C604 1.377 . S
N607 C606 1.344 . S
O608 Co600 2.055 . S
O608 C612 1.253 1_545 S
H609 C605 0.931 . S
H610 C606 0.930 . S
O611 Co600 2.039 . S
O611 C601 1.265 . S
C612 O608 1.253 1_565 S
C612 O613 1.227 . S
O613 C612 1.227 . S
N614 Co600 2.140 . S
N614 C617 1.346 . S
N614 C618 1.345 1_545 S
C615 C616 1.387 . S
C615 C619 1.391 1_545 S
C616 C615 1.387 . S
C616 C617 1.369 . S
C616 H625 0.929 . S
C617 N614 1.346 . S
C617 C616 1.369 . S
C617 H620 0.928 . S
C618 N614 1.345 1_565 S
C618 C619 1.371 . S
C618 H621 0.931 . S
C619 C615 1.391 1_565 S
C619 C618 1.371 . S
C619 H626 0.930 . S
H620 C617 0.928 . S
H621 C618 0.931 . S
H622 C598 0.930 . S
H623 C595 0.930 . S
H624 C604 0.930 . S
H625 C616 0.929 . S
H626 C619 0.930 . S
C627 C628 1.351 . S
C627 N630 1.368 . S
C627 H632 0.931 . S
C628 C627 1.351 . S
C628 N629 1.373 . S
C628 H656 0.930 . S
N629 C628 1.373 . S
N629 C631 1.340 . S
N630 C627 1.368 . S
N630 C631 1.321 . S
N630 Co633 2.135 . S
C631 N629 1.340 . S
C631 N630 1.321 . S
C631 H655 0.930 . S
H632 C627 0.931 . S
Co633 N630 2.135 . S
Co633 N636 2.121 . S
Co633 O641 2.055 . S
Co633 O644 2.039 . S
Co633 N647 2.140 . S
C634 O635 1.227 . S
C634 O644 1.265 . S
O635 C634 1.227 . S
N636 Co633 2.121 . S
N636 C638 1.375 . S
N636 C639 1.313 1_655 S
C637 C638 1.338 1_455 S
C637 N640 1.377 . S
C637 H657 0.930 . S
C638 N636 1.375 . S
C638 C637 1.338 1_655 S
C638 H642 0.931 . S
C639 N636 1.313 1_455 S
C639 N640 1.344 . S
C639 H643 0.930 . S
N640 C637 1.377 . S
N640 C639 1.344 . S
O641 Co633 2.055 . S
O641 C645 1.253 1_655 S
H642 C638 0.931 . S
H643 C639 0.930 . S
O644 Co633 2.039 . S
O644 C634 1.265 . S
C645 O641 1.253 1_455 S
C645 O646 1.227 . S
O646 C645 1.227 . S
N647 Co633 2.140 . S
N647 C650 1.346 . S
N647 C651 1.345 1_655 S
C648 C649 1.387 . S
C648 C652 1.391 1_655 S
C649 C648 1.387 . S
C649 C650 1.369 . S
C649 H658 0.929 . S
C650 N647 1.346 . S
C650 C649 1.369 . S
C650 H653 0.928 . S
C651 N647 1.345 1_455 S
C651 C652 1.371 . S
C651 H654 0.931 . S
C652 C648 1.391 1_455 S
C652 C651 1.371 . S
C652 H659 0.930 . S
H653 C650 0.928 . S
H654 C651 0.931 . S
H655 C631 0.930 . S
H656 C628 0.930 . S
H657 C637 0.930 . S
H658 C649 0.929 . S
H659 C652 0.930 . S
C660 C661 1.351 . S
C660 N663 1.368 . S
C660 H665 0.931 . S
C661 C660 1.351 . S
C661 N662 1.373 . S
C661 H689 0.930 . S
N662 C661 1.373 . S
N662 C664 1.340 . S
N663 C660 1.368 . S
N663 C664 1.321 . S
N663 Co666 2.135 . S
C664 N662 1.340 . S
C664 N663 1.321 . S
C664 H688 0.930 . S
H665 C660 0.931 . S
Co666 N663 2.135 . S
Co666 N669 2.121 . S
Co666 O674 2.055 . S
Co666 O677 2.039 . S
Co666 N680 2.140 . S
C667 O668 1.227 . S
C667 O677 1.265 . S
O668 C667 1.227 . S
N669 Co666 2.121 . S
N669 C671 1.375 . S
N669 C672 1.313 . S
C670 C671 1.338 . S
C670 N673 1.377 . S
C670 H690 0.930 . S
C671 N669 1.375 . S
C671 C670 1.338 . S
C671 H675 0.931 . S
C672 N669 1.313 . S
C672 N673 1.344 . S
C672 H676 0.930 . S
N673 C670 1.377 . S
N673 C672 1.344 . S
O674 Co666 2.055 . S
O674 C678 1.253 . S
H675 C671 0.931 . S
H676 C672 0.930 . S
O677 Co666 2.039 . S
O677 C667 1.265 . S
C678 O674 1.253 . S
C678 O679 1.227 . S
O679 C678 1.227 . S
N680 Co666 2.140 . S
N680 C683 1.346 . S
N680 C684 1.345 . S
C681 C682 1.387 . S
C681 C685 1.391 . S
C682 C681 1.387 . S
C682 C683 1.369 . S
C682 H691 0.929 . S
C683 N680 1.346 . S
C683 C682 1.369 . S
C683 H686 0.928 . S
C684 N680 1.345 . S
C684 C685 1.371 . S
C684 H687 0.931 . S
C685 C681 1.391 . S
C685 C684 1.371 . S
C685 H692 0.930 . S
H686 C683 0.928 . S
H687 C684 0.931 . S
H688 C664 0.930 . S
H689 C661 0.930 . S
H690 C670 0.930 . S
H691 C682 0.929 . S
H692 C685 0.930 . S
C693 C694 1.351 . S
C693 N696 1.368 . S
C693 H698 0.931 . S
C694 C693 1.351 . S
C694 N695 1.373 . S
C694 H722 0.930 . S
N695 C694 1.373 . S
N695 C697 1.340 . S
N696 C693 1.368 . S
N696 C697 1.321 . S
N696 Co699 2.135 . S
C697 N695 1.340 . S
C697 N696 1.321 . S
C697 H721 0.930 . S
H698 C693 0.931 . S
Co699 N696 2.135 . S
Co699 N702 2.121 . S
Co699 O707 2.060 1_554 S
Co699 O710 2.039 . S
Co699 N713 2.140 . S
C700 O701 1.227 . S
C700 O710 1.265 . S
O701 C700 1.227 . S
N702 Co699 2.121 . S
N702 C704 1.375 . S
N702 C705 1.313 . S
C703 C704 1.338 . S
C703 N706 1.377 . S
C703 H723 0.930 . S
C704 N702 1.375 . S
C704 C703 1.338 . S
C704 H708 0.931 . S
C705 N702 1.313 . S
C705 N706 1.344 . S
C705 H709 0.955 . S
N706 C703 1.377 . S
N706 C705 1.344 . S
O707 Co699 2.060 1_556 S
O707 C711 1.255 1_556 S
H708 C704 0.931 . S
H709 C705 0.955 . S
O710 Co699 2.039 . S
O710 C700 1.265 . S
C711 O707 1.255 1_554 S
C711 O712 1.227 . S
O712 C711 1.227 . S
N713 Co699 2.140 . S
N713 C716 1.346 . S
N713 C717 1.345 . S
C714 C715 1.387 . S
C714 C718 1.391 . S
C715 C714 1.387 . S
C715 C716 1.369 . S
C715 H724 0.929 . S
C716 N713 1.346 . S
C716 C715 1.369 . S
C716 H719 0.928 . S
C717 N713 1.345 . S
C717 C718 1.371 . S
C717 H720 0.931 . S
C718 C714 1.391 . S
C718 C717 1.371 . S
C718 H725 0.930 . S
H719 C716 0.928 . S
H720 C717 0.931 . S
H721 C697 0.930 . S
H722 C694 0.930 . S
H723 C703 0.930 . S
H724 C715 0.929 . S
H725 C718 0.930 . S
C726 C727 1.351 . S
C726 N729 1.368 . S
C726 H731 0.931 . S
C727 C726 1.351 . S
C727 N728 1.373 . S
C727 H755 0.930 . S
N728 C727 1.373 . S
N728 C730 1.340 . S
N729 C726 1.368 . S
N729 C730 1.321 . S
N729 Co732 2.135 . S
C730 N728 1.340 . S
C730 N729 1.321 . S
C730 H754 0.930 . S
H731 C726 0.931 . S
Co732 N729 2.135 . S
Co732 N735 2.121 . S
Co732 O740 2.059 1_554 S
Co732 O743 2.039 . S
Co732 N746 2.140 . S
C733 O734 1.227 . S
C733 O743 1.265 . S
O734 C733 1.227 . S
N735 Co732 2.121 . S
N735 C737 1.375 . S
N735 C738 1.313 . S
C736 C737 1.338 1_565 S
C736 N739 1.377 . S
C736 H756 0.930 . S
C737 N735 1.375 . S
C737 C736 1.338 1_545 S
C737 H741 0.931 . S
C738 N735 1.313 . S
C738 N739 1.344 1_545 S
C738 H742 0.955 . S
N739 C736 1.377 . S
N739 C738 1.344 1_565 S
O740 Co732 2.059 1_556 S
O740 C744 1.255 1_556 S
H741 C737 0.931 . S
H742 C738 0.955 . S
O743 Co732 2.039 . S
O743 C733 1.265 . S
C744 O740 1.255 1_554 S
C744 O745 1.227 . S
O745 C744 1.227 . S
N746 Co732 2.140 . S
N746 C749 1.346 . S
N746 C750 1.345 . S
C747 C748 1.387 . S
C747 C751 1.391 . S
C748 C747 1.387 . S
C748 C749 1.369 . S
C748 H757 0.929 . S
C749 N746 1.346 . S
C749 C748 1.369 . S
C749 H752 0.928 . S
C750 N746 1.345 . S
C750 C751 1.371 . S
C750 H753 0.931 . S
C751 C747 1.391 . S
C751 C750 1.371 . S
C751 H758 0.930 . S
H752 C749 0.928 . S
H753 C750 0.931 . S
H754 C730 0.930 . S
H755 C727 0.930 . S
H756 C736 0.930 . S
H757 C748 0.929 . S
H758 C751 0.930 . S
C759 C760 1.351 . S
C759 N762 1.368 . S
C759 H764 0.931 . S
C760 C759 1.351 . S
C760 N761 1.373 . S
C760 H788 0.930 . S
N761 C760 1.373 . S
N761 C763 1.340 . S
N762 C759 1.368 . S
N762 C763 1.321 . S
N762 Co765 2.135 . S
C763 N761 1.340 . S
C763 N762 1.321 . S
C763 H787 0.930 . S
H764 C759 0.931 . S
Co765 N762 2.135 . S
Co765 N768 2.121 . S
Co765 O773 2.060 1_554 S
Co765 O776 2.039 . S
Co765 N779 2.140 . S
C766 O767 1.227 . S
C766 O776 1.265 . S
O767 C766 1.227 . S
N768 Co765 2.121 . S
N768 C770 1.375 . S
N768 C771 1.313 . S
C769 C770 1.338 1_455 S
C769 N772 1.377 . S
C769 H789 0.930 . S
C770 N768 1.375 . S
C770 C769 1.338 1_655 S
C770 H774 0.931 . S
C771 N768 1.313 . S
C771 N772 1.344 1_655 S
C771 H775 0.955 . S
N772 C769 1.377 . S
N772 C771 1.344 1_455 S
O773 Co765 2.060 1_556 S
O773 C777 1.255 1_556 S
H774 C770 0.931 . S
H775 C771 0.955 . S
O776 Co765 2.039 . S
O776 C766 1.265 . S
C777 O773 1.255 1_554 S
C777 O778 1.227 . S
O778 C777 1.227 . S
N779 Co765 2.140 . S
N779 C782 1.346 . S
N779 C783 1.345 . S
C780 C781 1.387 . S
C780 C784 1.391 . S
C781 C780 1.387 . S
C781 C782 1.369 . S
C781 H790 0.929 . S
C782 N779 1.346 . S
C782 C781 1.369 . S
C782 H785 0.928 . S
C783 N779 1.345 . S
C783 C784 1.371 . S
C783 H786 0.931 . S
C784 C780 1.391 . S
C784 C783 1.371 . S
C784 H791 0.930 . S
H785 C782 0.928 . S
H786 C783 0.931 . S
H787 C763 0.930 . S
H788 C760 0.930 . S
H789 C769 0.930 . S
H790 C781 0.929 . S
H791 C784 0.930 . S
C792 C793 1.351 . S
C792 N795 1.368 . S
C792 H797 0.931 . S
C793 C792 1.351 . S
C793 N794 1.373 . S
C793 H821 0.930 . S
N794 C793 1.373 . S
N794 C796 1.340 . S
N795 C792 1.368 . S
N795 C796 1.321 . S
N795 Co798 2.135 . S
C796 N794 1.340 . S
C796 N795 1.321 . S
C796 H820 0.930 . S
H797 C792 0.931 . S
Co798 N795 2.135 . S
Co798 N801 2.121 . S
Co798 O806 2.055 . S
Co798 O809 2.039 . S
Co798 N812 2.140 . S
C799 O800 1.227 . S
C799 O809 1.265 . S
O800 C799 1.227 . S
N801 Co798 2.121 . S
N801 C803 1.375 . S
N801 C804 1.313 1_565 S
C802 C803 1.338 1_545 S
C802 N805 1.377 . S
C802 H822 0.930 . S
C803 N801 1.375 . S
C803 C802 1.338 1_565 S
C803 H807 0.931 . S
C804 N801 1.313 1_545 S
C804 N805 1.344 . S
C804 H808 0.930 . S
N805 C802 1.377 . S
N805 C804 1.344 . S
O806 Co798 2.055 . S
O806 C810 1.253 1_565 S
H807 C803 0.931 . S
H808 C804 0.930 . S
O809 Co798 2.039 . S
O809 C799 1.265 . S
C810 O806 1.253 1_545 S
C810 O811 1.227 . S
O811 C810 1.227 . S
N812 Co798 2.140 . S
N812 C815 1.346 . S
N812 C816 1.345 1_565 S
C813 C814 1.387 . S
C813 C817 1.391 1_565 S
C814 C813 1.387 . S
C814 C815 1.369 . S
C814 H823 0.929 . S
C815 N812 1.346 . S
C815 C814 1.369 . S
C815 H818 0.928 . S
C816 N812 1.345 1_545 S
C816 C817 1.371 . S
C816 H819 0.931 . S
C817 C813 1.391 1_545 S
C817 C816 1.371 . S
C817 H824 0.930 . S
H818 C815 0.928 . S
H819 C816 0.931 . S
H820 C796 0.930 . S
H821 C793 0.930 . S
H822 C802 0.930 . S
H823 C814 0.929 . S
H824 C817 0.930 . S
C825 C826 1.351 . S
C825 N828 1.368 . S
C825 H830 0.931 . S
C826 C825 1.351 . S
C826 N827 1.373 . S
C826 H854 0.930 . S
N827 C826 1.373 . S
N827 C829 1.340 . S
N828 C825 1.368 . S
N828 C829 1.321 . S
N828 Co831 2.135 . S
C829 N827 1.340 . S
C829 N828 1.321 . S
C829 H853 0.930 . S
H830 C825 0.931 . S
Co831 N828 2.135 . S
Co831 N834 2.121 . S
Co831 O839 2.055 . S
Co831 O842 2.039 . S
Co831 N845 2.140 . S
C832 O833 1.227 . S
C832 O842 1.265 . S
O833 C832 1.227 . S
N834 Co831 2.121 . S
N834 C836 1.375 . S
N834 C837 1.313 1_455 S
C835 C836 1.338 1_655 S
C835 N838 1.377 . S
C835 H855 0.930 . S
C836 N834 1.375 . S
C836 C835 1.338 1_455 S
C836 H840 0.931 . S
C837 N834 1.313 1_655 S
C837 N838 1.344 . S
C837 H841 0.930 . S
N838 C835 1.377 . S
N838 C837 1.344 . S
O839 Co831 2.055 . S
O839 C843 1.253 1_455 S
H840 C836 0.931 . S
H841 C837 0.930 . S
O842 Co831 2.039 . S
O842 C832 1.265 . S
C843 O839 1.253 1_655 S
C843 O844 1.227 . S
O844 C843 1.227 . S
N845 Co831 2.140 . S
N845 C848 1.346 . S
N845 C849 1.345 1_455 S
C846 C847 1.387 . S
C846 C850 1.391 1_455 S
C847 C846 1.387 . S
C847 C848 1.369 . S
C847 H856 0.929 . S
C848 N845 1.346 . S
C848 C847 1.369 . S
C848 H851 0.928 . S
C849 N845 1.345 1_655 S
C849 C850 1.371 . S
C849 H852 0.931 . S
C850 C846 1.391 1_655 S
C850 C849 1.371 . S
C850 H857 0.930 . S
H851 C848 0.928 . S
H852 C849 0.931 . S
H853 C829 0.930 . S
H854 C826 0.930 . S
H855 C835 0.930 . S
H856 C847 0.929 . S
H857 C850 0.930 . S
C858 C859 1.351 . S
C858 N861 1.368 . S
C858 H863 0.931 . S
C859 C858 1.351 . S
C859 N860 1.373 . S
C859 H887 0.930 . S
N860 C859 1.373 . S
N860 C862 1.340 . S
N861 C858 1.368 . S
N861 C862 1.321 . S
N861 Co864 2.135 . S
C862 N860 1.340 . S
C862 N861 1.321 . S
C862 H886 0.930 . S
H863 C858 0.931 . S
Co864 N861 2.135 . S
Co864 N867 2.121 . S
Co864 O872 2.055 . S
Co864 O875 2.039 . S
Co864 N878 2.140 . S
C865 O866 1.227 . S
C865 O875 1.265 . S
O866 C865 1.227 . S
N867 Co864 2.121 . S
N867 C869 1.375 . S
N867 C870 1.313 . S
C868 C869 1.338 . S
C868 N871 1.377 . S
C868 H888 0.930 . S
C869 N867 1.375 . S
C869 C868 1.338 . S
C869 H873 0.931 . S
C870 N867 1.313 . S
C870 N871 1.344 . S
C870 H874 0.930 . S
N871 C868 1.377 . S
N871 C870 1.344 . S
O872 Co864 2.055 . S
O872 C876 1.253 . S
H873 C869 0.931 . S
H874 C870 0.930 . S
O875 Co864 2.039 . S
O875 C865 1.265 . S
C876 O872 1.253 . S
C876 O877 1.227 . S
O877 C876 1.227 . S
N878 Co864 2.140 . S
N878 C881 1.346 . S
N878 C882 1.345 . S
C879 C880 1.387 . S
C879 C883 1.391 . S
C880 C879 1.387 . S
C880 C881 1.369 . S
C880 H889 0.929 . S
C881 N878 1.346 . S
C881 C880 1.369 . S
C881 H884 0.928 . S
C882 N878 1.345 . S
C882 C883 1.371 . S
C882 H885 0.931 . S
C883 C879 1.391 . S
C883 C882 1.371 . S
C883 H890 0.930 . S
H884 C881 0.928 . S
H885 C882 0.931 . S
H886 C862 0.930 . S
H887 C859 0.930 . S
H888 C868 0.930 . S
H889 C880 0.929 . S
H890 C883 0.930 . S
C891 C892 1.351 . S
C891 N894 1.368 . S
C891 H896 0.931 . S
C892 C891 1.351 . S
C892 N893 1.373 . S
C892 H920 0.930 . S
N893 C892 1.373 . S
N893 C895 1.340 . S
N894 C891 1.368 . S
N894 C895 1.321 . S
N894 Co897 2.135 . S
C895 N893 1.340 . S
C895 N894 1.321 . S
C895 H919 0.930 . S
H896 C891 0.931 . S
Co897 N894 2.135 . S
Co897 N900 2.121 . S
Co897 O905 2.060 1_556 S
Co897 O908 2.039 . S
Co897 N911 2.140 . S
C898 O899 1.227 . S
C898 O908 1.265 . S
O899 C898 1.227 . S
N900 Co897 2.121 . S
N900 C902 1.375 . S
N900 C903 1.313 . S
C901 C902 1.338 . S
C901 N904 1.377 . S
C901 H921 0.930 . S
C902 N900 1.375 . S
C902 C901 1.338 . S
C902 H906 0.931 . S
C903 N900 1.313 . S
C903 N904 1.344 . S
C903 H907 0.955 . S
N904 C901 1.377 . S
N904 C903 1.344 . S
O905 Co897 2.060 1_554 S
O905 C909 1.255 1_554 S
H906 C902 0.931 . S
H907 C903 0.955 . S
O908 Co897 2.039 . S
O908 C898 1.265 . S
C909 O905 1.255 1_556 S
C909 O910 1.227 . S
O910 C909 1.227 . S
N911 Co897 2.140 . S
N911 C914 1.346 . S
N911 C915 1.345 . S
C912 C913 1.387 . S
C912 C916 1.391 . S
C913 C912 1.387 . S
C913 C914 1.369 . S
C913 H922 0.929 . S
C914 N911 1.346 . S
C914 C913 1.369 . S
C914 H917 0.928 . S
C915 N911 1.345 . S
C915 C916 1.371 . S
C915 H918 0.931 . S
C916 C912 1.391 . S
C916 C915 1.371 . S
C916 H923 0.930 . S
H917 C914 0.928 . S
H918 C915 0.931 . S
H919 C895 0.930 . S
H920 C892 0.930 . S
H921 C901 0.930 . S
H922 C913 0.929 . S
H923 C916 0.930 . S
C924 C925 1.351 . S
C924 N927 1.368 . S
C924 H929 0.931 . S
C925 C924 1.351 . S
C925 N926 1.373 . S
C925 H953 0.930 . S
N926 C925 1.373 . S
N926 C928 1.340 . S
N927 C924 1.368 . S
N927 C928 1.321 . S
N927 Co930 2.135 . S
C928 N926 1.340 . S
C928 N927 1.321 . S
C928 H952 0.930 . S
H929 C924 0.931 . S
Co930 N927 2.135 . S
Co930 N933 2.121 . S
Co930 O938 2.060 1_556 S
Co930 O941 2.039 . S
Co930 N944 2.140 . S
C931 O932 1.227 . S
C931 O941 1.265 . S
O932 C931 1.227 . S
N933 Co930 2.121 . S
N933 C935 1.375 . S
N933 C936 1.313 . S
C934 C935 1.338 1_545 S
C934 N937 1.377 . S
C934 H954 0.930 . S
C935 N933 1.375 . S
C935 C934 1.338 1_565 S
C935 H939 0.931 . S
C936 N933 1.313 . S
C936 N937 1.344 1_565 S
C936 H940 0.955 . S
N937 C934 1.377 . S
N937 C936 1.344 1_545 S
O938 Co930 2.060 1_554 S
O938 C942 1.255 1_554 S
H939 C935 0.931 . S
H940 C936 0.955 . S
O941 Co930 2.039 . S
O941 C931 1.265 . S
C942 O938 1.255 1_556 S
C942 O943 1.227 . S
O943 C942 1.227 . S
N944 Co930 2.140 . S
N944 C947 1.346 . S
N944 C948 1.345 . S
C945 C946 1.387 . S
C945 C949 1.391 . S
C946 C945 1.387 . S
C946 C947 1.369 . S
C946 H955 0.929 . S
C947 N944 1.346 . S
C947 C946 1.369 . S
C947 H950 0.928 . S
C948 N944 1.345 . S
C948 C949 1.371 . S
C948 H951 0.931 . S
C949 C945 1.391 . S
C949 C948 1.371 . S
C949 H956 0.930 . S
H950 C947 0.928 . S
H951 C948 0.931 . S
H952 C928 0.930 . S
H953 C925 0.930 . S
H954 C934 0.930 . S
H955 C946 0.929 . S
H956 C949 0.930 . S
C957 C958 1.351 . S
C957 N960 1.368 . S
C957 H962 0.931 . S
C958 C957 1.351 . S
C958 N959 1.373 . S
C958 H986 0.930 . S
N959 C958 1.373 . S
N959 C961 1.340 . S
N960 C957 1.368 . S
N960 C961 1.321 . S
N960 Co963 2.135 . S
C961 N959 1.340 . S
C961 N960 1.321 . S
C961 H985 0.930 . S
H962 C957 0.931 . S
Co963 N960 2.135 . S
Co963 N966 2.121 . S
Co963 O971 2.060 1_556 S
Co963 O974 2.039 . S
Co963 N977 2.140 . S
C964 O965 1.227 . S
C964 O974 1.265 . S
O965 C964 1.227 . S
N966 Co963 2.121 . S
N966 C968 1.375 . S
N966 C969 1.313 . S
C967 C968 1.338 1_655 S
C967 N970 1.377 . S
C967 H987 0.930 . S
C968 N966 1.375 . S
C968 C967 1.338 1_455 S
C968 H972 0.931 . S
C969 N966 1.313 . S
C969 N970 1.344 1_455 S
C969 H973 0.955 . S
N970 C967 1.377 . S
N970 C969 1.344 1_655 S
O971 Co963 2.060 1_554 S
O971 C975 1.255 1_554 S
H972 C968 0.931 . S
H973 C969 0.955 . S
O974 Co963 2.039 . S
O974 C964 1.265 . S
C975 O971 1.255 1_556 S
C975 O976 1.227 . S
O976 C975 1.227 . S
N977 Co963 2.140 . S
N977 C980 1.346 . S
N977 C981 1.345 . S
C978 C979 1.387 . S
C978 C982 1.391 . S
C979 C978 1.387 . S
C979 C980 1.369 . S
C979 H988 0.929 . S
C980 N977 1.346 . S
C980 C979 1.369 . S
C980 H983 0.928 . S
C981 N977 1.345 . S
C981 C982 1.371 . S
C981 H984 0.931 . S
C982 C978 1.391 . S
C982 C981 1.371 . S
C982 H989 0.930 . S
H983 C980 0.928 . S
H984 C981 0.931 . S
H985 C961 0.930 . S
H986 C958 0.930 . S
H987 C967 0.930 . S
H988 C979 0.929 . S
H989 C982 0.930 . S
C990 C991 1.351 . S
C990 N993 1.368 . S
C990 H995 0.931 . S
C991 C990 1.351 . S
C991 N992 1.373 . S
C991 H1019 0.930 . S
N992 C991 1.373 . S
N992 C994 1.340 . S
N993 C990 1.368 . S
N993 C994 1.321 . S
N993 Co996 2.135 . S
C994 N992 1.340 . S
C994 N993 1.321 . S
C994 H1018 0.930 . S
H995 C990 0.931 . S
Co996 N993 2.135 . S
Co996 N999 2.121 . S
Co996 O1004 2.055 . S
Co996 O1007 2.039 . S
Co996 N1010 2.140 . S
C997 O998 1.227 . S
C997 O1007 1.265 . S
O998 C997 1.227 . S
N999 Co996 2.121 . S
N999 C1001 1.375 . S
N999 C1002 1.313 . S
C1000 C1001 1.338 . S
C1000 N1003 1.377 . S
C1000 H1020 0.930 . S
C1001 N999 1.375 . S
C1001 C1000 1.338 . S
C1001 H1005 0.931 . S
C1002 N999 1.313 . S
C1002 N1003 1.344 . S
C1002 H1006 0.930 . S
N1003 C1000 1.377 . S
N1003 C1002 1.344 . S
O1004 Co996 2.055 . S
O1004 C1008 1.253 . S
H1005 C1001 0.931 . S
H1006 C1002 0.930 . S
O1007 Co996 2.039 . S
O1007 C997 1.265 . S
C1008 O1004 1.253 . S
C1008 O1009 1.227 . S
O1009 C1008 1.227 . S
N1010 Co996 2.140 . S
N1010 C1013 1.346 . S
N1010 C1014 1.345 . S
C1011 C1012 1.387 . S
C1011 C1015 1.391 . S
C1012 C1011 1.387 . S
C1012 C1013 1.369 . S
C1012 H1021 0.929 . S
C1013 N1010 1.346 . S
C1013 C1012 1.369 . S
C1013 H1016 0.928 . S
C1014 N1010 1.345 . S
C1014 C1015 1.371 . S
C1014 H1017 0.931 . S
C1015 C1011 1.391 . S
C1015 C1014 1.371 . S
C1015 H1022 0.930 . S
H1016 C1013 0.928 . S
H1017 C1014 0.931 . S
H1018 C994 0.930 . S
H1019 C991 0.930 . S
H1020 C1000 0.930 . S
H1021 C1012 0.929 . S
H1022 C1015 0.930 . S
C1023 C1024 1.351 . S
C1023 N1026 1.368 . S
C1023 H1028 0.931 . S
C1024 C1023 1.351 . S
C1024 N1025 1.373 . S
C1024 H1052 0.930 . S
N1025 C1024 1.373 . S
N1025 C1027 1.340 . S
N1026 C1023 1.368 . S
N1026 C1027 1.321 . S
N1026 Co1029 2.135 . S
C1027 N1025 1.340 . S
C1027 N1026 1.321 . S
C1027 H1051 0.930 . S
H1028 C1023 0.931 . S
Co1029 N1026 2.135 . S
Co1029 N1032 2.121 . S
Co1029 O1037 2.055 . S
Co1029 O1040 2.039 . S
Co1029 N1043 2.140 . S
C1030 O1031 1.227 . S
C1030 O1040 1.265 . S
O1031 C1030 1.227 . S
N1032 Co1029 2.121 . S
N1032 C1034 1.375 . S
N1032 C1035 1.313 . S
C1033 C1034 1.338 1_545 S
C1033 N1036 1.377 . S
C1033 H1053 0.930 . S
C1034 N1032 1.375 . S
C1034 C1033 1.338 1_565 S
C1034 H1038 0.931 . S
C1035 N1032 1.313 . S
C1035 N1036 1.344 1_565 S
C1035 H1039 0.930 . S
N1036 C1033 1.377 . S
N1036 C1035 1.344 1_545 S
O1037 Co1029 2.055 . S
O1037 C1041 1.253 . S
H1038 C1034 0.931 . S
H1039 C1035 0.930 . S
O1040 Co1029 2.039 . S
O1040 C1030 1.265 . S
C1041 O1037 1.253 . S
C1041 O1042 1.227 . S
O1042 C1041 1.227 . S
N1043 Co1029 2.140 . S
N1043 C1046 1.346 . S
N1043 C1047 1.345 . S
C1044 C1045 1.387 . S
C1044 C1048 1.391 . S
C1045 C1044 1.387 . S
C1045 C1046 1.369 . S
C1045 H1054 0.929 . S
C1046 N1043 1.346 . S
C1046 C1045 1.369 . S
C1046 H1049 0.928 . S
C1047 N1043 1.345 . S
C1047 C1048 1.371 . S
C1047 H1050 0.931 . S
C1048 C1044 1.391 . S
C1048 C1047 1.371 . S
C1048 H1055 0.930 . S
H1049 C1046 0.928 . S
H1050 C1047 0.931 . S
H1051 C1027 0.930 . S
H1052 C1024 0.930 . S
H1053 C1033 0.930 . S
H1054 C1045 0.929 . S
H1055 C1048 0.930 . S
C1056 C1057 1.351 . S
C1056 N1059 1.368 . S
C1056 H1061 0.931 . S
C1057 C1056 1.351 . S
C1057 N1058 1.373 . S
C1057 H1085 0.930 . S
N1058 C1057 1.373 . S
N1058 C1060 1.340 . S
N1059 C1056 1.368 . S
N1059 C1060 1.321 . S
N1059 Co1062 2.135 . S
C1060 N1058 1.340 . S
C1060 N1059 1.321 . S
C1060 H1084 0.930 . S
H1061 C1056 0.931 . S
Co1062 N1059 2.135 . S
Co1062 N1065 2.121 . S
Co1062 O1070 2.055 . S
Co1062 O1073 2.039 . S
Co1062 N1076 2.140 . S
C1063 O1064 1.227 . S
C1063 O1073 1.265 . S
O1064 C1063 1.227 . S
N1065 Co1062 2.121 . S
N1065 C1067 1.375 . S
N1065 C1068 1.313 . S
C1066 C1067 1.338 1_655 S
C1066 N1069 1.377 . S
C1066 H1086 0.930 . S
C1067 N1065 1.375 . S
C1067 C1066 1.338 1_455 S
C1067 H1071 0.931 . S
C1068 N1065 1.313 . S
C1068 N1069 1.344 1_455 S
C1068 H1072 0.930 . S
N1069 C1066 1.377 . S
N1069 C1068 1.344 1_655 S
O1070 Co1062 2.055 . S
O1070 C1074 1.253 . S
H1071 C1067 0.931 . S
H1072 C1068 0.930 . S
O1073 Co1062 2.039 . S
O1073 C1063 1.265 . S
C1074 O1070 1.253 . S
C1074 O1075 1.227 . S
O1075 C1074 1.227 . S
N1076 Co1062 2.140 . S
N1076 C1079 1.346 . S
N1076 C1080 1.345 . S
C1077 C1078 1.387 . S
C1077 C1081 1.391 . S
C1078 C1077 1.387 . S
C1078 C1079 1.369 . S
C1078 H1087 0.929 . S
C1079 N1076 1.346 . S
C1079 C1078 1.369 . S
C1079 H1082 0.928 . S
C1080 N1076 1.345 . S
C1080 C1081 1.371 . S
C1080 H1083 0.931 . S
C1081 C1077 1.391 . S
C1081 C1080 1.371 . S
C1081 H1088 0.930 . S
H1082 C1079 0.928 . S
H1083 C1080 0.931 . S
H1084 C1060 0.930 . S
H1085 C1057 0.930 . S
H1086 C1066 0.930 . S
H1087 C1078 0.929 . S
H1088 C1081 0.930 . S
C1089 C1090 1.351 . S
C1089 N1092 1.368 . S
C1089 H1094 0.931 . S
C1090 C1089 1.351 . S
C1090 N1091 1.373 . S
C1090 H1118 0.930 . S
N1091 C1090 1.373 . S
N1091 C1093 1.340 . S
N1092 C1089 1.368 . S
N1092 C1093 1.321 . S
N1092 Co1095 2.135 . S
C1093 N1091 1.340 . S
C1093 N1092 1.321 . S
C1093 H1117 0.930 . S
H1094 C1089 0.931 . S
Co1095 N1092 2.135 . S
Co1095 N1098 2.121 . S
Co1095 O1103 2.055 . S
Co1095 O1106 2.039 . S
Co1095 N1109 2.140 . S
C1096 O1097 1.227 . S
C1096 O1106 1.265 . S
O1097 C1096 1.227 . S
N1098 Co1095 2.121 . S
N1098 C1100 1.375 . S
N1098 C1101 1.313 1_455 S
C1099 C1100 1.338 1_655 S
C1099 N1102 1.377 . S
C1099 H1119 0.930 . S
C1100 N1098 1.375 . S
C1100 C1099 1.338 1_455 S
C1100 H1104 0.931 . S
C1101 N1098 1.313 1_655 S
C1101 N1102 1.344 . S
C1101 H1105 0.930 . S
N1102 C1099 1.377 . S
N1102 C1101 1.344 . S
O1103 Co1095 2.055 . S
O1103 C1107 1.253 1_455 S
H1104 C1100 0.931 . S
H1105 C1101 0.930 . S
O1106 Co1095 2.039 . S
O1106 C1096 1.265 . S
C1107 O1103 1.253 1_655 S
C1107 O1108 1.227 . S
O1108 C1107 1.227 . S
N1109 Co1095 2.140 . S
N1109 C1112 1.346 . S
N1109 C1113 1.345 1_455 S
C1110 C1111 1.387 . S
C1110 C1114 1.391 1_455 S
C1111 C1110 1.387 . S
C1111 C1112 1.369 . S
C1111 H1120 0.929 . S
C1112 N1109 1.346 . S
C1112 C1111 1.369 . S
C1112 H1115 0.928 . S
C1113 N1109 1.345 1_655 S
C1113 C1114 1.371 . S
C1113 H1116 0.931 . S
C1114 C1110 1.391 1_655 S
C1114 C1113 1.371 . S
C1114 H1121 0.930 . S
H1115 C1112 0.928 . S
H1116 C1113 0.931 . S
H1117 C1093 0.930 . S
H1118 C1090 0.930 . S
H1119 C1099 0.930 . S
H1120 C1111 0.929 . S
H1121 C1114 0.930 . S
C1122 C1123 1.351 . S
C1122 N1125 1.368 . S
C1122 H1127 0.931 . S
C1123 C1122 1.351 . S
C1123 N1124 1.373 . S
C1123 H1151 0.930 . S
N1124 C1123 1.373 . S
N1124 C1126 1.340 . S
N1125 C1122 1.368 . S
N1125 C1126 1.321 . S
N1125 Co1128 2.135 . S
C1126 N1124 1.340 . S
C1126 N1125 1.321 . S
C1126 H1150 0.930 . S
H1127 C1122 0.931 . S
Co1128 N1125 2.135 . S
Co1128 N1131 2.121 . S
Co1128 O1136 2.055 . S
Co1128 O1139 2.039 . S
Co1128 N1142 2.140 . S
C1129 O1130 1.227 . S
C1129 O1139 1.265 . S
O1130 C1129 1.227 . S
N1131 Co1128 2.121 . S
N1131 C1133 1.375 . S
N1131 C1134 1.313 . S
C1132 C1133 1.338 . S
C1132 N1135 1.377 . S
C1132 H1152 0.930 . S
C1133 N1131 1.375 . S
C1133 C1132 1.338 . S
C1133 H1137 0.931 . S
C1134 N1131 1.313 . S
C1134 N1135 1.344 . S
C1134 H1138 0.930 . S
N1135 C1132 1.377 . S
N1135 C1134 1.344 . S
O1136 Co1128 2.055 . S
O1136 C1140 1.253 . S
H1137 C1133 0.931 . S
H1138 C1134 0.930 . S
O1139 Co1128 2.039 . S
O1139 C1129 1.265 . S
C1140 O1136 1.253 . S
C1140 O1141 1.227 . S
O1141 C1140 1.227 . S
N1142 Co1128 2.140 . S
N1142 C1145 1.346 . S
N1142 C1146 1.345 . S
C1143 C1144 1.387 . S
C1143 C1147 1.391 . S
C1144 C1143 1.387 . S
C1144 C1145 1.369 . S
C1144 H1153 0.929 . S
C1145 N1142 1.346 . S
C1145 C1144 1.369 . S
C1145 H1148 0.928 . S
C1146 N1142 1.345 . S
C1146 C1147 1.371 . S
C1146 H1149 0.931 . S
C1147 C1143 1.391 . S
C1147 C1146 1.371 . S
C1147 H1154 0.930 . S
H1148 C1145 0.928 . S
H1149 C1146 0.931 . S
H1150 C1126 0.930 . S
H1151 C1123 0.930 . S
H1152 C1132 0.930 . S
H1153 C1144 0.929 . S
H1154 C1147 0.930 . S
C1155 C1156 1.351 . S
C1155 N1158 1.368 . S
C1155 H1160 0.931 . S
C1156 C1155 1.351 . S
C1156 N1157 1.373 . S
C1156 H1184 0.930 . S
N1157 C1156 1.373 . S
N1157 C1159 1.340 . S
N1158 C1155 1.368 . S
N1158 C1159 1.321 . S
N1158 Co1161 2.135 . S
C1159 N1157 1.340 . S
C1159 N1158 1.321 . S
C1159 H1183 0.930 . S
H1160 C1155 0.931 . S
Co1161 N1158 2.135 . S
Co1161 N1164 2.121 . S
Co1161 O1169 2.055 . S
Co1161 O1172 2.039 . S
Co1161 N1175 2.140 . S
C1162 O1163 1.227 . S
C1162 O1172 1.265 . S
O1163 C1162 1.227 . S
N1164 Co1161 2.121 . S
N1164 C1166 1.375 . S
N1164 C1167 1.313 1_565 S
C1165 C1166 1.338 1_545 S
C1165 N1168 1.377 . S
C1165 H1185 0.930 . S
C1166 N1164 1.375 . S
C1166 C1165 1.338 1_565 S
C1166 H1170 0.931 . S
C1167 N1164 1.313 1_545 S
C1167 N1168 1.344 . S
C1167 H1171 0.930 . S
N1168 C1165 1.377 . S
N1168 C1167 1.344 . S
O1169 Co1161 2.055 . S
O1169 C1173 1.253 1_565 S
H1170 C1166 0.931 . S
H1171 C1167 0.930 . S
O1172 Co1161 2.039 . S
O1172 C1162 1.265 . S
C1173 O1169 1.253 1_545 S
C1173 O1174 1.227 . S
O1174 C1173 1.227 . S
N1175 Co1161 2.140 . S
N1175 C1178 1.346 . S
N1175 C1179 1.345 1_565 S
C1176 C1177 1.387 . S
C1176 C1180 1.391 1_565 S
C1177 C1176 1.387 . S
C1177 C1178 1.369 . S
C1177 H1186 0.929 . S
C1178 N1175 1.346 . S
C1178 C1177 1.369 . S
C1178 H1181 0.928 . S
C1179 N1175 1.345 1_545 S
C1179 C1180 1.371 . S
C1179 H1182 0.931 . S
C1180 C1176 1.391 1_545 S
C1180 C1179 1.371 . S
C1180 H1187 0.930 . S
H1181 C1178 0.928 . S
H1182 C1179 0.931 . S
H1183 C1159 0.930 . S
H1184 C1156 0.930 . S
H1185 C1165 0.930 . S
H1186 C1177 0.929 . S
H1187 C1180 0.930 . S
N2 C73 1.833 . S
C7 N35 1.833 . S
C40 N68 1.834 . S
C139 N101 1.833 . S
C172 N134 1.833 . S
C106 N167 1.833 . S
C271 N200 1.833 . S
N233 C205 1.833 . S
C238 N266 1.834 . S
C337 N299 1.834 . S
N332 C370 1.833 . S
C304 N365 1.833 . S
N398 C469 1.833 . S
N431 C403 1.833 . S
N464 C436 1.833 . S
C535 N497 1.833 . S
C568 N530 1.833 . S
N563 C502 1.833 . S
N596 C667 1.833 . S
N629 C601 1.833 . S
N662 C634 1.834 . S
C733 N695 1.833 . S
C766 N728 1.833 . S
N761 C700 1.833 . S
C865 N794 1.834 . S
C799 N827 1.833 . S
N860 C832 1.834 . S
C931 N893 1.833 . S
N926 C964 1.833 . S
C898 N959 1.833 . S
C1063 N992 1.833 . S
N1025 C997 1.833 . S
N1058 C1030 1.833 . S
C1129 N1091 1.833 . S
C1162 N1124 1.833 . S
N1157 C1096 1.833 . S
N673 C18 1.670 . S
C51 N607 1.671 . S
C84 N640 1.671 . S
N1135 C117 1.671 . S
N1168 C150 1.671 . S
C183 N1102 1.671 . S
C216 N871 1.670 . S
C249 N805 1.671 . S
C282 N838 1.671 . S
N541 C315 1.671 . S
C348 N574 1.671 . S
C381 N508 1.670 . S
C414 N1069 1.671 . S
N1003 C447 1.671 . S
N1036 C480 1.671 . S
C513 N343 1.670 . S
C546 N376 1.671 . S
C579 N310 1.671 . S
N79 C612 1.671 . S
C645 N13 1.671 . S
C678 N46 1.671 . S
N937 C711 1.671 1_556 S
C744 N970 1.671 1_554 S
C777 N904 1.671 1_554 S
N277 C810 1.671 . S
N211 C843 1.671 . S
C876 N244 1.671 . S
C909 N739 1.671 1_556 S
N772 C942 1.671 1_554 S
C975 N706 1.671 1_556 S
N475 C1008 1.671 . S
C1041 N409 1.671 . S
C1074 N442 1.671 . S
N145 C1107 1.671 . S
C1140 N178 1.671 . S
N112 C1173 1.671 . S
C153 C21 2.711 1_655 S
C54 C186 2.712 . S
C87 C120 2.712 1_565 S
C219 C351 2.711 1_655 S
C252 C384 2.712 . S
C285 C318 2.712 1_545 S
C549 C417 2.711 . S
C582 C450 2.712 . S
C516 C483 2.711 . S
C747 C615 2.710 . S
C780 C648 2.712 . S
C714 C681 2.712 . S
C945 C813 2.710 . S
C846 C978 2.712 . S
C912 C879 2.712 . S
C1143 C1011 2.711 . S
C1176 C1044 2.712 . S
C1077 C1110 2.711 . S
