# Generated by pormake.
# Topology lcy, (6)-cn, num edge types: 1
# Building blocks:
#     Node 0, Type 0, BuildingBlock: OJICUG_clean_sbu_0, # of connection points: 6
#     Node 1, Type 0, BuildingBlock: OJICUG_clean_sbu_0, # of connection points: 6
#     Node 2, Type 0, BuildingBlock: OJICUG_clean_sbu_0, # of connection points: 6
#     Node 3, Type 0, BuildingBlock: OJICUG_clean_sbu_0, # of connection points: 6
#     Edge 4, Type (0, 0), BuildingBlock: TEMPAE_clean_linker_10, # of connection points: 2
#     Edge 5, Type (0, 0), BuildingBlock: TEMPAE_clean_linker_10, # of connection points: 2
#     Edge 6, Type (0, 0), BuildingBlock: TEMPAE_clean_linker_10, # of connection points: 2
#     Edge 7, Type (0, 0), BuildingBlock: TEMPAE_clean_linker_10, # of connection points: 2
#     Edge 8, Type (0, 0), BuildingBlock: TEMPAE_clean_linker_10, # of connection points: 2
#     Edge 9, Type (0, 0), BuildingBlock: TEMPAE_clean_linker_10, # of connection points: 2
#     Edge 10, Type (0, 0), BuildingBlock: TEMPAE_clean_linker_10, # of connection points: 2
#     Edge 11, Type (0, 0), BuildingBlock: TEMPAE_clean_linker_10, # of connection points: 2
#     Edge 12, Type (0, 0), BuildingBlock: TEMPAE_clean_linker_10, # of connection points: 2
#     Edge 13, Type (0, 0), BuildingBlock: TEMPAE_clean_linker_10, # of connection points: 2
#     Edge 14, Type (0, 0), BuildingBlock: TEMPAE_clean_linker_10, # of connection points: 2
#     Edge 15, Type (0, 0), BuildingBlock: TEMPAE_clean_linker_10, # of connection points: 2
# Relax obj value: 0.357
# Max RMSD: 0.279
# Mean RMSD: 0.279
data_MOF--net-lcy--node1-OJICUG_clean_sbu_0--edge1-TEMPAE_clean_linker_10
_symmetry_space_group_name_H-M    P1
_symmetry_Int_Tables_number       1
_symmetry_cell_setting            triclinic
loop_
_symmetry_equiv_pos_as_xyz
'x, y, z'
_cell_length_a     26.214182
_cell_length_b     26.035305
_cell_length_c     26.154541
_cell_angle_alpha  90.043003
_cell_angle_beta   90.102023
_cell_angle_gamma 90.026395
loop_
_atom_site_label
_atom_site_type_symbol
_atom_site_fract_x
_atom_site_fract_y
_atom_site_fract_z
_atom_type_partial_charge
Sc0 Sc 0.3291 0.42104 0.36694 0.0
Sc1 Sc 0.35846 0.30219 0.41497 0.0
Sc2 Sc 0.38982 0.3304 0.29062 0.0
O3 O 0.35901 0.3515 0.35701 0.0
C4 C 0.29189 0.39636 0.25663 0.0
C5 C 0.2512 0.3447 0.42372 0.0
C6 C 0.34691 0.2268 0.31893 0.0
C7 C 0.36959 0.40928 0.47391 0.0
C8 C 0.4296 0.44275 0.30081 0.0
C9 C 0.46545 0.28418 0.37561 0.0
O10 O 0.2815 0.41161 0.30153 0.0
O11 O 0.27772 0.30476 0.41518 0.0
O12 O 0.34256 0.26338 0.28719 0.0
O13 O 0.37547 0.43416 0.4328 0.0
O14 O 0.43886 0.39578 0.2916 0.0
O15 O 0.43942 0.30014 0.41338 0.0
O16 O 0.38831 0.4581 0.32169 0.0
O17 O 0.35868 0.36165 0.4733 0.0
O18 O 0.44968 0.28632 0.32938 0.0
O19 O 0.26732 0.39018 0.41443 0.0
O20 O 0.33267 0.37176 0.24584 0.0
O21 O 0.35753 0.2353 0.36568 0.0
Sc22 Sc 0.89052 0.15999 0.70124 0.0
Sc23 Sc 0.82782 0.06797 0.62814 0.0
Sc24 Sc 0.8427 0.18952 0.58164 0.0
O25 O 0.85442 0.13903 0.63737 0.0
C26 C 0.83938 0.26262 0.68014 0.0
C27 C 0.79647 0.09143 0.74017 0.0
C28 C 0.74018 0.13773 0.5791 0.0
C29 C 0.93282 0.04901 0.68808 0.0
C30 C 0.95272 0.2149 0.6099 0.0
C31 C 0.86029 0.08459 0.51962 0.0
O32 O 0.84181 0.22535 0.71123 0.0
O33 O 0.78413 0.07561 0.6959 0.0
O34 O 0.76254 0.17958 0.59003 0.0
O35 O 0.94204 0.09631 0.69562 0.0
O36 O 0.92241 0.20001 0.57482 0.0
O37 O 0.87086 0.05933 0.55967 0.0
O38 O 0.94495 0.20676 0.65759 0.0
O39 O 0.89044 0.03302 0.67011 0.0
O40 O 0.84362 0.13059 0.52213 0.0
O41 O 0.83773 0.11616 0.74932 0.0
O42 O 0.84221 0.25551 0.63211 0.0
O43 O 0.76202 0.09416 0.58366 0.0
Sc44 Sc 0.15841 0.56781 0.86531 0.0
Sc45 Sc 0.14276 0.68976 0.91109 0.0
Sc46 Sc 0.09552 0.65918 0.79145 0.0
O47 O 0.13156 0.63875 0.85557 0.0
C48 C 0.18945 0.59027 0.75279 0.0
C49 C 0.2458 0.63879 0.9137 0.0
C50 C 0.1459 0.76233 0.81228 0.0
C51 C 0.12654 0.58525 0.97403 0.0
C52 C 0.05326 0.54815 0.80568 0.0
C53 C 0.03275 0.71415 0.8823 0.0
O54 O 0.20172 0.57464 0.79712 0.0
O55 O 0.22292 0.68038 0.90295 0.0
O56 O 0.14378 0.72494 0.78122 0.0
O57 O 0.11598 0.55944 0.93429 0.0
O58 O 0.0443 0.59533 0.79729 0.0
O59 O 0.06293 0.69977 0.91767 0.0
O60 O 0.09546 0.53228 0.82415 0.0
O61 O 0.14248 0.63146 0.97101 0.0
O62 O 0.04084 0.70588 0.83471 0.0
O63 O 0.22451 0.5949 0.90897 0.0
O64 O 0.14842 0.61529 0.74357 0.0
O65 O 0.14294 0.75534 0.86029 0.0
Sc66 Sc 0.63462 0.80171 0.07824 0.0
Sc67 Sc 0.65853 0.9215 0.12664 0.0
Sc68 Sc 0.5975 0.82983 0.2013 0.0
O69 O 0.62994 0.85128 0.13583 0.0
C70 C 0.52668 0.78007 0.11365 0.0
C71 C 0.62066 0.90833 0.01906 0.0
C72 C 0.55637 0.94142 0.19074 0.0
C73 C 0.74029 0.848 0.07244 0.0
C74 C 0.64359 0.72696 0.1748 0.0
C75 C 0.69384 0.89706 0.23741 0.0
O76 O 0.55394 0.79599 0.07672 0.0
O77 O 0.61309 0.93317 0.05997 0.0
O78 O 0.54719 0.89426 0.19899 0.0
O79 O 0.71525 0.8072 0.08131 0.0
O80 O 0.64585 0.76372 0.20657 0.0
O81 O 0.70496 0.91253 0.19279 0.0
O82 O 0.63567 0.73511 0.12752 0.0
O83 O 0.72195 0.89286 0.08009 0.0
O84 O 0.6529 0.87235 0.2475 0.0
O85 O 0.63385 0.86126 0.01999 0.0
O86 O 0.5397 0.78452 0.16061 0.0
O87 O 0.59803 0.95726 0.17106 0.0
C88 C 0.16295 0.57863 0.06194 0.0
C89 C 0.13362 0.55688 0.02257 0.0
C90 C 0.18161 0.54835 0.10205 0.0
C91 C 0.16998 0.49524 0.10324 0.0
C92 C 0.13652 0.47408 0.06636 0.0
C93 C 0.11883 0.50515 0.02628 0.0
C94 C 0.21651 0.57252 0.14132 0.0
C95 C 0.12205 0.41796 0.06721 0.0
C96 C 0.2745 0.4161 0.16462 0.0
C97 C 0.25716 0.41292 0.21515 0.0
C98 C 0.24505 0.44051 0.12696 0.0
C99 C 0.19697 0.46155 0.14015 0.0
C100 C 0.17759 0.45485 0.19006 0.0
C101 C 0.20803 0.43083 0.22706 0.0
C102 C 0.26653 0.44615 0.07371 0.0
C103 C 0.12596 0.47549 0.20522 0.0
H104 H 0.17436 0.61859 0.05969 0.0
H105 H 0.09566 0.48811 -0.00363 0.0
H106 H 0.20022 0.56762 0.18011 0.0
H107 H 0.25412 0.55299 0.14105 0.0
H108 H 0.22261 0.61417 0.13436 0.0
H109 H 0.08853 0.40991 0.04241 0.0
H110 H 0.1546 0.39466 0.05326 0.0
H111 H 0.11334 0.40516 0.10669 0.0
H112 H 0.31223 0.40208 0.15507 0.0
H113 H 0.19395 0.42772 0.26589 0.0
H114 H 0.26863 0.48734 0.06312 0.0
H115 H 0.24085 0.42717 0.04575 0.0
H116 H 0.3052 0.42911 0.0701 0.0
H117 H 0.12806 0.51787 0.20896 0.0
H118 H 0.11284 0.45941 0.24228 0.0
H119 H 0.09702 0.46669 0.17547 0.0
C120 C 0.77873 0.9273 0.26816 0.0
C121 C 0.72823 0.91315 0.27925 0.0
C122 C 0.80966 0.95078 0.30511 0.0
C123 C 0.78929 0.96103 0.35401 0.0
C124 C 0.73947 0.94391 0.36648 0.0
C125 C 0.7096 0.91973 0.32895 0.0
C126 C 0.86307 0.96697 0.29077 0.0
C127 C 0.71681 0.95339 0.4187 0.0
C128 C 0.86573 0.00296 0.46947 0.0
C129 C 0.85408 0.05561 0.47127 0.0
C130 C 0.84779 0.97191 0.42947 0.0
C131 C 0.81752 0.99411 0.39057 0.0
C132 C 0.80981 0.04792 0.38957 0.0
C133 C 0.82844 0.07811 0.42985 0.0
C134 C 0.85837 0.91494 0.43078 0.0
C135 C 0.77924 0.07323 0.34756 0.0
H136 H 0.79366 0.92151 0.22995 0.0
H137 H 0.67073 0.90867 0.33776 0.0
H138 H 0.86352 0.00877 0.28262 0.0
H139 H 0.89018 0.95983 0.3226 0.0
H140 H 0.87682 0.94646 0.25618 0.0
H141 H 0.67672 0.93985 0.42148 0.0
H142 H 0.73982 0.93333 0.44816 0.0
H143 H 0.71792 0.99497 0.4279 0.0
H144 H 0.88627 0.98527 0.50085 0.0
H145 H 0.81986 0.11883 0.43045 0.0
H146 H 0.86836 0.90049 0.39216 0.0
H147 H 0.82357 0.89428 0.44333 0.0
H148 H 0.88984 0.90533 0.45763 0.0
H149 H 0.79842 0.06722 0.31029 0.0
H150 H 0.77462 0.11519 0.35377 0.0
H151 H 0.74086 0.05546 0.34475 0.0
C152 C 0.2751 0.56493 0.72095 0.0
C153 C 0.22354 0.57522 0.71053 0.0
C154 C 0.30677 0.54282 0.68397 0.0
C155 C 0.28618 0.53023 0.63564 0.0
C156 C 0.23497 0.54321 0.62384 0.0
C157 C 0.20424 0.56603 0.66144 0.0
C158 C 0.36135 0.5303 0.69767 0.0
C159 C 0.21197 0.53059 0.57237 0.0
C160 C 0.36707 0.49238 0.52185 0.0
C161 C 0.36023 0.43887 0.52131 0.0
C162 C 0.34546 0.52272 0.56049 0.0
C163 C 0.31633 0.49889 0.59924 0.0
C164 C 0.31282 0.44468 0.60122 0.0
C165 C 0.33521 0.41528 0.56246 0.0
C166 C 0.35089 0.58038 0.55778 0.0
C167 C 0.28213 0.41783 0.64211 0.0
H168 H 0.29039 0.57273 0.75872 0.0
H169 H 0.16446 0.574 0.65329 0.0
H170 H 0.36571 0.4881 0.70159 0.0
H171 H 0.38758 0.543 0.66692 0.0
H172 H 0.37328 0.5486 0.73417 0.0
H173 H 0.17126 0.54212 0.56963 0.0
H174 H 0.23364 0.55036 0.54177 0.0
H175 H 0.21485 0.48872 0.56501 0.0
H176 H 0.38673 0.51096 0.49046 0.0
H177 H 0.32981 0.374 0.56259 0.0
H178 H 0.35981 0.5966 0.59599 0.0
H179 H 0.31425 0.59744 0.54501 0.0
H180 H 0.38116 0.59223 0.53055 0.0
H181 H 0.29431 0.4309 0.68061 0.0
H182 H 0.28597 0.37537 0.64018 0.0
H183 H 0.24119 0.42779 0.63771 0.0
C184 C 0.62003 0.99125 0.97091 0.0
C185 C 0.62895 0.93805 0.97161 0.0
C186 C 0.64052 0.02225 0.93222 0.0
C187 C 0.6706 -0.00059 0.89362 0.0
C188 C 0.67609 0.94536 0.89173 0.0
C189 C 0.65479 0.91527 0.93052 0.0
C190 C 0.63292 0.07967 0.93481 0.0
C191 C 0.70776 0.91958 0.85088 0.0
C192 C 0.71097 0.0653 0.7718 0.0
C193 C 0.76227 0.07674 0.78245 0.0
C194 C 0.67947 0.04309 0.80881 0.0
C195 C 0.69995 0.03167 0.85745 0.0
C196 C 0.75069 0.04622 0.86957 0.0
C197 C 0.78127 0.06903 0.83188 0.0
C198 C 0.6253 0.02907 0.79483 0.0
C199 C 0.77338 0.03533 0.92155 0.0
H200 H 0.59965 0.00919 0.00222 0.0
H201 H 0.66168 0.87422 0.93047 0.0
H202 H 0.66847 0.09804 0.94887 0.0
H203 H 0.62466 0.09566 0.89638 0.0
H204 H 0.60137 0.09029 0.96109 0.0
H205 H 0.70666 0.87702 0.85373 0.0
H206 H 0.69405 0.93095 0.81238 0.0
H207 H 0.74804 0.9323 0.85423 0.0
H208 H 0.69581 0.07211 0.7338 0.0
H209 H 0.82078 0.07808 0.84029 0.0
H210 H 0.59859 0.04081 0.82554 0.0
H211 H 0.62216 0.98679 0.79056 0.0
H212 H 0.61304 0.04722 0.75839 0.0
H213 H 0.75184 0.0566 0.95124 0.0
H214 H 0.8142 0.04655 0.92402 0.0
H215 H 0.76998 0.99384 0.93058 0.0
C216 C 0.04341 0.2448 0.6163 0.0
C217 C -0.00488 0.24793 0.59369 0.0
C218 C 0.08493 0.27095 0.59451 0.0
C219 C 0.07726 0.30057 0.5497 0.0
C220 C 0.02747 0.30848 0.53073 0.0
C221 C 0.987 0.28175 0.55278 0.0
C222 C 0.13748 0.2639 0.61692 0.0
C223 C 0.01756 0.34169 0.48446 0.0
C224 C 0.18623 0.37369 0.48739 0.0
C225 C 0.20321 0.33721 0.45178 0.0
C226 C 0.14512 0.3627 0.51998 0.0
C227 C 0.12103 0.3141 0.51672 0.0
C228 C 0.13723 0.27792 0.47972 0.0
C229 C 0.17802 0.28999 0.44773 0.0
C230 C 0.12932 0.40255 0.55877 0.0
C231 C 0.1119 0.22598 0.47426 0.0
H232 H 0.04929 0.21964 0.64879 0.0
H233 H 0.94907 0.28582 0.53663 0.0
H234 H 0.16019 0.23847 0.59161 0.0
H235 H 0.15754 0.30139 0.61926 0.0
H236 H 0.13611 0.24646 0.65565 0.0
H237 H 0.97626 0.34955 0.47897 0.0
H238 H 0.03808 0.37882 0.48807 0.0
H239 H 0.03213 0.32205 0.44975 0.0
H240 H 0.2063 0.40992 0.4913 0.0
H241 H 0.19105 0.26182 0.42012 0.0
H242 H 0.15436 0.39922 0.59287 0.0
H243 H 0.0892 0.39794 0.57135 0.0
H244 H 0.13412 0.44184 0.54301 0.0
H245 H 0.11444 0.20463 0.51088 0.0
H246 H 0.12955 0.20221 0.44376 0.0
H247 H 0.07085 0.23095 0.46513 0.0
C248 C 0.1175 0.85273 0.82571 0.0
C249 C 0.13572 0.81467 0.7923 0.0
C250 C 0.09148 0.89586 0.8071 0.0
C251 C 0.08459 0.9017 0.75376 0.0
C252 C 0.10821 0.86677 0.71972 0.0
C253 C 0.13337 0.82346 0.7394 0.0
C254 C 0.06676 0.93203 0.84483 0.0
C255 C 0.10283 0.87242 0.66254 0.0
C256 C 0.95852 0.95999 0.71268 0.0
C257 C 0.97228 0.01099 0.70252 0.0
C258 C -0.00508 0.92409 0.72895 0.0
C259 C 0.04658 0.93929 0.73429 0.0
C260 C 0.06101 0.99036 0.72287 0.0
C261 C 0.02358 0.02577 0.70755 0.0
C262 C 0.9778 0.87013 0.74159 0.0
C263 C 0.11578 0.00771 0.72754 0.0
H264 H 0.11934 0.84672 0.86669 0.0
H265 H 0.14789 0.79468 0.71322 0.0
H266 H 0.07212 0.97258 0.83307 0.0
H267 H 0.0251 0.92444 0.84594 0.0
H268 H 0.08224 0.92708 0.8841 0.0
H269 H 0.13066 0.8481 0.6416 0.0
H270 H 0.06379 0.86074 0.65085 0.0
H271 H 0.10818 0.91301 0.65083 0.0
H272 H 0.91894 0.94838 0.70922 0.0
H273 H 0.03454 0.06507 0.69939 0.0
H274 H 0.98623 0.86151 0.7823 0.0
H275 H -0.00087 0.84196 0.71805 0.0
H276 H 0.93632 0.86438 0.73491 0.0
H277 H 0.12827 0.0052 0.768 0.0
H278 H 0.12125 0.04782 0.71416 0.0
H279 H 0.14097 0.98204 0.70501 0.0
C280 C 0.32795 0.68224 0.93038 0.0
C281 C 0.29337 0.6434 0.94294 0.0
C282 C 0.36719 0.6958 0.96403 0.0
C283 C 0.37112 0.67051 0.01183 0.0
C284 C 0.33808 0.62919 0.02349 0.0
C285 C 0.29953 0.61585 0.9886 0.0
C286 C 0.40271 0.73912 0.94952 0.0
C287 C 0.34092 0.60153 0.07409 0.0
C288 C 0.49699 0.70026 0.07368 0.0
C289 C 0.48496 0.74553 0.09992 0.0
C290 C 0.45908 0.67195 0.04876 0.0
C291 C 0.40827 0.68994 0.04994 0.0
C292 C 0.39531 0.73274 0.08094 0.0
C293 C 0.43417 0.7604 0.10564 0.0
C294 C 0.4743 0.62593 0.01715 0.0
C295 C 0.34113 0.75195 0.08426 0.0
H296 H 0.3229 0.70348 0.89506 0.0
H297 H 0.27208 0.58638 -0.00127 0.0
H298 H 0.3964 0.77236 0.97534 0.0
H299 H 0.44301 0.72693 0.95406 0.0
H300 H 0.39683 0.75207 0.90947 0.0
H301 H 0.32229 0.5633 0.07208 0.0
H302 H 0.38095 0.59636 0.08688 0.0
H303 H 0.32103 0.62472 0.10353 0.0
H304 H 0.5366 0.68879 0.07003 0.0
H305 H 0.4253 0.7954 0.12629 0.0
H306 H 0.47456 0.63675 0.97611 0.0
H307 H 0.4465 0.59416 0.02185 0.0
H308 H 0.5129 0.61171 0.02759 0.0
H309 H 0.33047 0.77067 0.04766 0.0
H310 H 0.3362 0.78029 0.11565 0.0
H311 H 0.31441 0.71948 0.09042 0.0
C312 C 0.35678 0.16555 0.24593 0.0
C313 C 0.35567 0.17432 0.29888 0.0
C314 C 0.38144 0.12226 0.22579 0.0
C315 C 0.40541 0.08723 0.25946 0.0
C316 C 0.39909 0.09267 0.31288 0.0
C317 C 0.37376 0.13594 0.33196 0.0
C318 C 0.3863 0.11699 0.16853 0.0
C319 C 0.42382 0.056 0.35013 0.0
C320 C 0.46609 0.96427 0.21103 0.0
C321 C 0.51731 0.97926 0.20602 0.0
C322 C 0.42879 -0.00074 0.22722 0.0
C323 C 0.44332 0.05008 0.23947 0.0
C324 C 0.49491 0.06552 0.2342 0.0
C325 C 0.5312 0.03001 0.21703 0.0
C326 C 0.3741 0.98169 0.23195 0.0
C327 C 0.51201 0.1193 0.24778 0.0
H328 H 0.34213 0.19447 0.21999 0.0
H329 H 0.37228 0.14175 0.37298 0.0
H330 H 0.42518 0.12895 0.15673 0.0
H331 H 0.38102 0.07647 0.1565 0.0
H332 H 0.35817 0.14134 0.14796 0.0
H333 H 0.40824 0.06036 0.38936 0.0
H334 H 0.41858 0.01561 0.33772 0.0
H335 H 0.46546 0.06368 0.35156 0.0
H336 H 0.45508 0.92511 0.20216 0.0
H337 H 0.57076 0.04165 0.21357 0.0
H338 H 0.34856 0.00774 0.21023 0.0
H339 H 0.36211 0.98331 0.27257 0.0
H340 H 0.36855 0.94185 0.21774 0.0
H341 H 0.50405 0.12711 0.28872 0.0
H342 H 0.4903 0.14783 0.22498 0.0
H343 H 0.55338 0.1253 0.24086 0.0
C344 C 0.69207 0.11981 0.49957 0.0
C345 C 0.69356 0.14186 0.54846 0.0
C346 C 0.65479 0.13475 0.46404 0.0
C347 C 0.61801 0.17174 0.47845 0.0
C348 C 0.61695 0.1906 0.52929 0.0
C349 C 0.6554 0.17605 0.56348 0.0
C350 C 0.65784 0.1142 0.41019 0.0
C351 C 0.57707 0.22862 0.54672 0.0
C352 C 0.55757 0.27008 0.39171 0.0
C353 C 0.50812 0.25059 0.38822 0.0
C354 C 0.59565 0.242 0.41701 0.0
C355 C 0.58299 0.19441 0.44013 0.0
C356 C 0.53405 0.17288 0.43269 0.0
C357 C 0.49709 0.20133 0.40651 0.0
C358 C 0.64817 0.26509 0.42257 0.0
C359 C 0.51945 0.12202 0.45617 0.0
H360 H 0.72235 0.09404 0.48772 0.0
H361 H 0.65698 0.19312 0.6013 0.0
H362 H 0.6199 0.11218 0.3915 0.0
H363 H 0.68229 0.14013 0.38714 0.0
H364 H 0.67522 0.07537 0.40962 0.0
H365 H 0.57819 0.23488 0.58873 0.0
H366 H 0.58339 0.26606 0.52751 0.0
H367 H 0.53837 0.21504 0.53596 0.0
H368 H 0.5656 0.30837 0.37754 0.0
H369 H 0.45844 0.1867 0.40357 0.0
H370 H 0.67785 0.23573 0.41478 0.0
H371 H 0.65364 0.2787 0.46243 0.0
H372 H 0.65395 0.29812 0.39634 0.0
H373 H 0.51961 0.12548 0.49847 0.0
H374 H 0.54771 0.0921 0.44579 0.0
H375 H 0.48098 0.10908 0.44376 0.0
C376 C 0.02707 0.45901 0.78174 0.0
C377 C 0.01362 0.51016 0.79153 0.0
C378 C 0.99052 0.42329 0.76526 0.0
C379 C 0.93904 0.43886 0.75936 0.0
C380 C 0.92489 0.49005 0.77057 0.0
C381 C 0.96246 0.52525 0.7861 0.0
C382 C 0.00731 0.36916 0.7529 0.0
C383 C 0.87031 0.50779 0.76536 0.0
C384 C 0.86845 0.35284 0.66699 0.0
C385 C 0.8495 0.31497 0.70016 0.0
C386 C 0.89462 0.39578 0.68596 0.0
C387 C 0.90094 0.40157 0.73939 0.0
C388 C 0.87655 0.36691 0.77312 0.0
C389 C 0.85122 0.32382 0.75309 0.0
C390 C 0.92007 0.43176 0.64859 0.0
C391 C 0.88129 0.37255 0.83036 0.0
H392 H 0.06654 0.44717 0.78553 0.0
H393 H 0.95173 0.56467 0.794 0.0
H394 H 0.9854 0.34122 0.77615 0.0
H395 H -0.00064 0.36053 0.71208 0.0
H396 H 0.04864 0.36308 0.76016 0.0
H397 H 0.86497 0.54784 0.77901 0.0
H398 H 0.85835 0.50567 0.72471 0.0
H399 H 0.84462 0.48213 0.78732 0.0
H400 H 0.86708 0.34677 0.626 0.0
H401 H 0.83611 0.29519 0.77907 0.0
H402 H 0.9617 0.42396 0.64807 0.0
H403 H 0.91479 0.47235 0.66028 0.0
H404 H 0.9051 0.42684 0.60912 0.0
H405 H 0.92004 0.36045 0.84252 0.0
H406 H 0.85293 0.34855 0.85093 0.0
H407 H 0.87626 0.41321 0.84204 0.0
C408 C 0.94105 0.7404 0.88055 0.0
C409 C 0.99093 0.74798 0.89788 0.0
C410 C 0.90056 0.76725 0.90336 0.0
C411 C 0.91094 0.80213 0.94373 0.0
C412 C 0.96183 0.81415 0.95669 0.0
C413 C 0.0013 0.78653 0.93385 0.0
C414 C 0.84656 0.75537 0.88728 0.0
C415 C 0.9744 0.85286 -0.00217 0.0
C416 C 0.80175 0.87557 0.0051 0.0
C417 C 0.78864 0.84193 0.04482 0.0
C418 C 0.84222 0.86391 0.97194 0.0
C419 C 0.86967 0.81763 0.97902 0.0
C420 C 0.85801 0.78502 0.02071 0.0
C421 C 0.81757 0.79759 0.053 0.0
C422 C 0.85333 0.89995 0.9282 0.0
C423 C 0.88718 0.73587 0.03035 0.0
H424 H 0.93342 0.71128 0.85188 0.0
H425 H 0.04036 0.79356 0.94577 0.0
H426 H 0.82766 0.73233 0.91751 0.0
H427 H 0.82448 0.79145 0.88265 0.0
H428 H 0.84514 0.73338 0.85089 0.0
H429 H 0.01549 0.86336 -0.00214 0.0
H430 H 0.9514 0.88826 0.99266 0.0
H431 H 0.96474 0.83654 0.0358 0.0
H432 H 0.77878 0.90951 -0.00183 0.0
H433 H 0.8074 0.77171 0.08384 0.0
H434 H 0.82737 0.89071 0.89591 0.0
H435 H 0.89318 0.89684 0.91436 0.0
H436 H 0.84615 0.94037 0.93962 0.0
H437 H 0.88299 0.7097 -0.00291 0.0
H438 H 0.87377 0.71543 0.0651 0.0
H439 H 0.92843 0.74432 0.03493 0.0
C440 C 0.61366 0.63722 0.16116 0.0
C441 C 0.6332 0.6747 0.19454 0.0
C442 C 0.58681 0.59477 0.17989 0.0
C443 C 0.58061 0.58902 0.23328 0.0
C444 C 0.6057 0.62307 0.26722 0.0
C445 C 0.63171 0.66571 0.24742 0.0
C446 C 0.56059 0.55939 0.14231 0.0
C447 C 0.60099 0.61734 0.32444 0.0
C448 C 0.45481 0.53186 0.27603 0.0
C449 C 0.46853 0.48084 0.28582 0.0
C450 C 0.49118 0.56753 0.25925 0.0
C451 C 0.5426 0.5519 0.25311 0.0
C452 C 0.55694 0.5008 0.26418 0.0
C453 C 0.51963 0.46573 0.28004 0.0
C454 C 0.47433 0.62165 0.24697 0.0
C455 C 0.61146 0.48302 0.25845 0.0
H456 H 0.61517 0.64326 0.12019 0.0
H457 H 0.64736 0.69399 0.27354 0.0
H458 H 0.56443 0.5187 0.15417 0.0
H459 H 0.51926 0.56859 0.14115 0.0
H460 H 0.57609 0.56366 0.10303 0.0
H461 H 0.62945 0.64119 0.34519 0.0
H462 H 0.56228 0.62953 0.33653 0.0
H463 H 0.60589 0.57665 0.33599 0.0
H464 H 0.41535 0.5436 0.28017 0.0
H465 H 0.53054 0.42638 0.28804 0.0
H466 H 0.48188 0.63018 0.2061 0.0
H467 H 0.49654 0.6496 0.27006 0.0
H468 H 0.43309 0.62778 0.25451 0.0
H469 H 0.62311 0.48567 0.21778 0.0
H470 H 0.61686 0.44278 0.27149 0.0
H471 H 0.63737 0.50832 0.28068 0.0
loop_
_geom_bond_atom_site_label_1
_geom_bond_atom_site_label_2
_geom_bond_distance
_geom_bond_site_symmetry_2
_ccdc_geom_bond_type
Sc0 O3 2.025 . S
Sc0 O10 2.105 . S
Sc0 O13 2.105 . S
Sc0 O16 2.105 . S
Sc0 O19 2.105 . S
Sc1 O3 2.025 . S
Sc1 O11 2.105 . S
Sc1 O15 2.105 . S
Sc1 O17 2.105 . S
Sc1 O21 2.105 . S
Sc2 O3 2.025 . S
Sc2 O12 2.105 . S
Sc2 O14 2.105 . S
Sc2 O18 2.105 . S
Sc2 O20 2.105 . S
O3 Sc0 2.025 . S
O3 Sc1 2.025 . S
O3 Sc2 2.025 . S
C4 O10 1.268 . S
C4 O20 1.268 . S
C5 O11 1.268 . S
C5 O19 1.268 . S
C6 O12 1.268 . S
C6 O21 1.268 . S
C7 O13 1.268 . S
C7 O17 1.268 . S
C8 O14 1.268 . S
C8 O16 1.268 . S
C9 O15 1.268 . S
C9 O18 1.268 . S
O10 Sc0 2.105 . S
O10 C4 1.268 . S
O11 Sc1 2.105 . S
O11 C5 1.268 . S
O12 Sc2 2.105 . S
O12 C6 1.268 . S
O13 Sc0 2.105 . S
O13 C7 1.268 . S
O14 Sc2 2.105 . S
O14 C8 1.268 . S
O15 Sc1 2.105 . S
O15 C9 1.268 . S
O16 Sc0 2.105 . S
O16 C8 1.268 . S
O17 Sc1 2.105 . S
O17 C7 1.268 . S
O18 Sc2 2.105 . S
O18 C9 1.268 . S
O19 Sc0 2.105 . S
O19 C5 1.268 . S
O20 Sc2 2.105 . S
O20 C4 1.268 . S
O21 Sc1 2.105 . S
O21 C6 1.268 . S
Sc22 O25 2.025 . S
Sc22 O32 2.105 . S
Sc22 O35 2.105 . S
Sc22 O38 2.105 . S
Sc22 O41 2.105 . S
Sc23 O25 2.025 . S
Sc23 O33 2.105 . S
Sc23 O37 2.105 . S
Sc23 O39 2.105 . S
Sc23 O43 2.105 . S
Sc24 O25 2.025 . S
Sc24 O34 2.105 . S
Sc24 O36 2.105 . S
Sc24 O40 2.105 . S
Sc24 O42 2.105 . S
O25 Sc22 2.025 . S
O25 Sc23 2.025 . S
O25 Sc24 2.025 . S
C26 O32 1.268 . S
C26 O42 1.268 . S
C27 O33 1.268 . S
C27 O41 1.268 . S
C28 O34 1.268 . S
C28 O43 1.268 . S
C29 O35 1.268 . S
C29 O39 1.268 . S
C30 O36 1.268 . S
C30 O38 1.268 . S
C31 O37 1.268 . S
C31 O40 1.268 . S
O32 Sc22 2.105 . S
O32 C26 1.268 . S
O33 Sc23 2.105 . S
O33 C27 1.268 . S
O34 Sc24 2.105 . S
O34 C28 1.268 . S
O35 Sc22 2.105 . S
O35 C29 1.268 . S
O36 Sc24 2.105 . S
O36 C30 1.268 . S
O37 Sc23 2.105 . S
O37 C31 1.268 . S
O38 Sc22 2.105 . S
O38 C30 1.268 . S
O39 Sc23 2.105 . S
O39 C29 1.268 . S
O40 Sc24 2.105 . S
O40 C31 1.268 . S
O41 Sc22 2.105 . S
O41 C27 1.268 . S
O42 Sc24 2.105 . S
O42 C26 1.268 . S
O43 Sc23 2.105 . S
O43 C28 1.268 . S
Sc44 O47 2.025 . S
Sc44 O54 2.105 . S
Sc44 O57 2.105 . S
Sc44 O60 2.105 . S
Sc44 O63 2.105 . S
Sc45 O47 2.025 . S
Sc45 O55 2.105 . S
Sc45 O59 2.105 . S
Sc45 O61 2.105 . S
Sc45 O65 2.105 . S
Sc46 O47 2.025 . S
Sc46 O56 2.105 . S
Sc46 O58 2.105 . S
Sc46 O62 2.105 . S
Sc46 O64 2.105 . S
O47 Sc44 2.025 . S
O47 Sc45 2.025 . S
O47 Sc46 2.025 . S
C48 O54 1.268 . S
C48 O64 1.268 . S
C49 O55 1.268 . S
C49 O63 1.268 . S
C50 O56 1.268 . S
C50 O65 1.268 . S
C51 O57 1.268 . S
C51 O61 1.268 . S
C52 O58 1.268 . S
C52 O60 1.268 . S
C53 O59 1.268 . S
C53 O62 1.268 . S
O54 Sc44 2.105 . S
O54 C48 1.268 . S
O55 Sc45 2.105 . S
O55 C49 1.268 . S
O56 Sc46 2.105 . S
O56 C50 1.268 . S
O57 Sc44 2.105 . S
O57 C51 1.268 . S
O58 Sc46 2.105 . S
O58 C52 1.268 . S
O59 Sc45 2.105 . S
O59 C53 1.268 . S
O60 Sc44 2.105 . S
O60 C52 1.268 . S
O61 Sc45 2.105 . S
O61 C51 1.268 . S
O62 Sc46 2.105 . S
O62 C53 1.268 . S
O63 Sc44 2.105 . S
O63 C49 1.268 . S
O64 Sc46 2.105 . S
O64 C48 1.268 . S
O65 Sc45 2.105 . S
O65 C50 1.268 . S
Sc66 O69 2.025 . S
Sc66 O76 2.105 . S
Sc66 O79 2.105 . S
Sc66 O82 2.105 . S
Sc66 O85 2.105 . S
Sc67 O69 2.025 . S
Sc67 O77 2.105 . S
Sc67 O81 2.105 . S
Sc67 O83 2.105 . S
Sc67 O87 2.105 . S
Sc68 O69 2.025 . S
Sc68 O78 2.105 . S
Sc68 O80 2.105 . S
Sc68 O84 2.105 . S
Sc68 O86 2.105 . S
O69 Sc66 2.025 . S
O69 Sc67 2.025 . S
O69 Sc68 2.025 . S
C70 O76 1.268 . S
C70 O86 1.268 . S
C71 O77 1.268 . S
C71 O85 1.268 . S
C72 O78 1.268 . S
C72 O87 1.268 . S
C73 O79 1.268 . S
C73 O83 1.268 . S
C74 O80 1.268 . S
C74 O82 1.268 . S
C75 O81 1.268 . S
C75 O84 1.268 . S
O76 Sc66 2.105 . S
O76 C70 1.268 . S
O77 Sc67 2.105 . S
O77 C71 1.268 . S
O78 Sc68 2.105 . S
O78 C72 1.268 . S
O79 Sc66 2.105 . S
O79 C73 1.268 . S
O80 Sc68 2.105 . S
O80 C74 1.268 . S
O81 Sc67 2.105 . S
O81 C75 1.268 . S
O82 Sc66 2.105 . S
O82 C74 1.268 . S
O83 Sc67 2.105 . S
O83 C73 1.268 . S
O84 Sc68 2.105 . S
O84 C75 1.268 . S
O85 Sc66 2.105 . S
O85 C71 1.268 . S
O86 Sc68 2.105 . S
O86 C70 1.268 . S
O87 Sc67 2.105 . S
O87 C72 1.268 . S
C88 C89 1.391 . S
C88 C90 1.394 . S
C88 H104 0.931 . S
C89 C88 1.391 . S
C89 C93 1.376 . S
C90 C88 1.394 . S
C90 C91 1.369 . S
C90 C94 1.531 . S
C91 C90 1.369 . S
C91 C92 1.410 . S
C91 C99 1.503 . S
C92 C91 1.410 . S
C92 C93 1.392 . S
C92 C95 1.511 . S
C93 C89 1.376 . S
C93 C92 1.392 . S
C93 H105 0.929 . S
C94 C90 1.531 . S
C94 H106 0.960 . S
C94 H107 0.962 . S
C94 H108 0.960 . S
C95 C92 1.511 . S
C95 H109 0.961 . S
C95 H110 0.961 . S
C95 H111 0.961 . S
C96 C97 1.370 . S
C96 C98 1.363 . S
C96 H112 0.931 . S
C97 C96 1.370 . S
C97 C101 1.408 . S
C98 C96 1.363 . S
C98 C99 1.370 . S
C98 C102 1.524 . S
C99 C91 1.503 . S
C99 C98 1.370 . S
C99 C100 1.403 . S
C100 C99 1.403 . S
C100 C101 1.404 . S
C100 C103 1.539 . S
C101 C97 1.408 . S
C101 C100 1.404 . S
C101 H113 0.930 . S
C102 C98 1.524 . S
C102 H114 0.956 . S
C102 H115 0.961 . S
C102 H116 0.961 . S
C103 C100 1.539 . S
C103 H117 0.958 . S
C103 H118 0.961 . S
C103 H119 0.960 . S
H104 C88 0.931 . S
H105 C93 0.929 . S
H106 C94 0.960 . S
H107 C94 0.962 . S
H108 C94 0.960 . S
H109 C95 0.961 . S
H110 C95 0.961 . S
H111 C95 0.961 . S
H112 C96 0.931 . S
H113 C101 0.930 . S
H114 C102 0.956 . S
H115 C102 0.961 . S
H116 C102 0.961 . S
H117 C103 0.958 . S
H118 C103 0.961 . S
H119 C103 0.960 . S
C120 C121 1.391 . S
C120 C122 1.394 . S
C120 H136 0.931 . S
C121 C120 1.391 . S
C121 C125 1.376 . S
C122 C120 1.394 . S
C122 C123 1.369 . S
C122 C126 1.531 . S
C123 C122 1.369 . S
C123 C124 1.410 . S
C123 C131 1.503 1_565 S
C124 C123 1.410 . S
C124 C125 1.392 . S
C124 C127 1.511 . S
C125 C121 1.376 . S
C125 C124 1.392 . S
C125 H137 0.929 . S
C126 C122 1.531 . S
C126 H138 0.960 1_565 S
C126 H139 0.962 . S
C126 H140 0.960 . S
C127 C124 1.511 . S
C127 H141 0.961 . S
C127 H142 0.961 . S
C127 H143 0.960 1_565 S
C128 C129 1.370 . S
C128 C130 1.363 1_545 S
C128 H144 0.931 1_545 S
C129 C128 1.370 . S
C129 C133 1.408 . S
C130 C128 1.363 1_565 S
C130 C131 1.370 1_565 S
C130 C134 1.524 . S
C131 C123 1.503 1_545 S
C131 C130 1.370 1_545 S
C131 C132 1.403 . S
C132 C131 1.403 . S
C132 C133 1.404 . S
C132 C135 1.539 . S
C133 C129 1.408 . S
C133 C132 1.404 . S
C133 H145 0.930 . S
C134 C130 1.524 . S
C134 H146 0.956 . S
C134 H147 0.961 . S
C134 H148 0.961 . S
C135 C132 1.539 . S
C135 H149 0.958 . S
C135 H150 0.961 . S
C135 H151 0.960 . S
H136 C120 0.931 . S
H137 C125 0.929 . S
H138 C126 0.960 1_545 S
H139 C126 0.962 . S
H140 C126 0.960 . S
H141 C127 0.961 . S
H142 C127 0.961 . S
H143 C127 0.960 1_545 S
H144 C128 0.931 1_565 S
H145 C133 0.930 . S
H146 C134 0.956 . S
H147 C134 0.961 . S
H148 C134 0.961 . S
H149 C135 0.958 . S
H150 C135 0.961 . S
H151 C135 0.960 . S
C152 C153 1.391 . S
C152 C154 1.394 . S
C152 H168 0.931 . S
C153 C152 1.391 . S
C153 C157 1.376 . S
C154 C152 1.394 . S
C154 C155 1.369 . S
C154 C158 1.531 . S
C155 C154 1.369 . S
C155 C156 1.410 . S
C155 C163 1.503 . S
C156 C155 1.410 . S
C156 C157 1.392 . S
C156 C159 1.511 . S
C157 C153 1.376 . S
C157 C156 1.392 . S
C157 H169 0.929 . S
C158 C154 1.531 . S
C158 H170 0.960 . S
C158 H171 0.962 . S
C158 H172 0.960 . S
C159 C156 1.511 . S
C159 H173 0.961 . S
C159 H174 0.961 . S
C159 H175 0.961 . S
C160 C161 1.370 . S
C160 C162 1.363 . S
C160 H176 0.931 . S
C161 C160 1.370 . S
C161 C165 1.408 . S
C162 C160 1.363 . S
C162 C163 1.370 . S
C162 C166 1.524 . S
C163 C155 1.503 . S
C163 C162 1.370 . S
C163 C164 1.403 . S
C164 C163 1.403 . S
C164 C165 1.404 . S
C164 C167 1.539 . S
C165 C161 1.408 . S
C165 C164 1.404 . S
C165 H177 0.930 . S
C166 C162 1.524 . S
C166 H178 0.956 . S
C166 H179 0.961 . S
C166 H180 0.961 . S
C167 C164 1.539 . S
C167 H181 0.958 . S
C167 H182 0.961 . S
C167 H183 0.960 . S
H168 C152 0.931 . S
H169 C157 0.929 . S
H170 C158 0.960 . S
H171 C158 0.962 . S
H172 C158 0.960 . S
H173 C159 0.961 . S
H174 C159 0.961 . S
H175 C159 0.961 . S
H176 C160 0.931 . S
H177 C165 0.930 . S
H178 C166 0.956 . S
H179 C166 0.961 . S
H180 C166 0.961 . S
H181 C167 0.958 . S
H182 C167 0.961 . S
H183 C167 0.960 . S
C184 C185 1.391 . S
C184 C186 1.394 1_565 S
C184 H200 0.931 1_556 S
C185 C184 1.391 . S
C185 C189 1.376 . S
C186 C184 1.394 1_545 S
C186 C187 1.369 1_545 S
C186 C190 1.531 . S
C187 C186 1.369 1_565 S
C187 C188 1.410 . S
C187 C195 1.503 1_565 S
C188 C187 1.410 . S
C188 C189 1.392 . S
C188 C191 1.511 . S
C189 C185 1.376 . S
C189 C188 1.392 . S
C189 H201 0.929 . S
C190 C186 1.531 . S
C190 H202 0.960 . S
C190 H203 0.962 . S
C190 H204 0.973 . S
C191 C188 1.511 . S
C191 H205 0.961 . S
C191 H206 0.961 . S
C191 H207 0.961 . S
C192 C193 1.370 . S
C192 C194 1.363 . S
C192 H208 0.931 . S
C193 C192 1.370 . S
C193 C197 1.408 . S
C194 C192 1.363 . S
C194 C195 1.370 . S
C194 C198 1.524 . S
C195 C187 1.503 1_545 S
C195 C194 1.370 . S
C195 C196 1.403 . S
C196 C195 1.403 . S
C196 C197 1.404 . S
C196 C199 1.539 1_545 S
C197 C193 1.408 . S
C197 C196 1.404 . S
C197 H209 0.930 . S
C198 C194 1.524 . S
C198 H210 0.956 . S
C198 H211 0.961 . S
C198 H212 0.961 . S
C199 C196 1.539 1_565 S
C199 H213 0.958 . S
C199 H214 0.961 . S
C199 H215 0.960 . S
H200 C184 0.931 1_554 S
H201 C189 0.929 . S
H202 C190 0.960 . S
H203 C190 0.962 . S
H204 C190 0.973 . S
H205 C191 0.961 . S
H206 C191 0.961 . S
H207 C191 0.961 . S
H208 C192 0.931 . S
H209 C197 0.930 . S
H210 C198 0.956 . S
H211 C198 0.961 . S
H212 C198 0.961 . S
H213 C199 0.958 . S
H214 C199 0.961 . S
H215 C199 0.960 . S
C216 C217 1.391 . S
C216 C218 1.394 . S
C216 H232 0.931 . S
C217 C216 1.391 . S
C217 C221 1.376 . S
C218 C216 1.394 . S
C218 C219 1.369 . S
C218 C222 1.531 . S
C219 C218 1.369 . S
C219 C220 1.410 . S
C219 C227 1.503 . S
C220 C219 1.410 . S
C220 C221 1.392 . S
C220 C223 1.511 . S
C221 C217 1.376 . S
C221 C220 1.392 . S
C221 H233 0.929 . S
C222 C218 1.531 . S
C222 H234 0.960 . S
C222 H235 0.962 . S
C222 H236 0.960 . S
C223 C220 1.511 . S
C223 H237 0.961 . S
C223 H238 0.961 . S
C223 H239 0.961 . S
C224 C225 1.370 . S
C224 C226 1.363 . S
C224 H240 0.931 . S
C225 C224 1.370 . S
C225 C229 1.408 . S
C226 C224 1.363 . S
C226 C227 1.370 . S
C226 C230 1.524 . S
C227 C219 1.503 . S
C227 C226 1.370 . S
C227 C228 1.403 . S
C228 C227 1.403 . S
C228 C229 1.404 . S
C228 C231 1.539 . S
C229 C225 1.408 . S
C229 C228 1.404 . S
C229 H241 0.930 . S
C230 C226 1.524 . S
C230 H242 0.956 . S
C230 H243 0.961 . S
C230 H244 0.961 . S
C231 C228 1.539 . S
C231 H245 0.958 . S
C231 H246 0.961 . S
C231 H247 0.960 . S
H232 C216 0.931 . S
H233 C221 0.929 . S
H234 C222 0.960 . S
H235 C222 0.962 . S
H236 C222 0.960 . S
H237 C223 0.961 . S
H238 C223 0.961 . S
H239 C223 0.961 . S
H240 C224 0.931 . S
H241 C229 0.930 . S
H242 C230 0.956 . S
H243 C230 0.961 . S
H244 C230 0.961 . S
H245 C231 0.958 . S
H246 C231 0.961 . S
H247 C231 0.960 . S
C248 C249 1.391 . S
C248 C250 1.394 . S
C248 H264 0.931 . S
C249 C248 1.391 . S
C249 C253 1.376 . S
C250 C248 1.394 . S
C250 C251 1.369 . S
C250 C254 1.531 1_455 S
C251 C250 1.369 . S
C251 C252 1.410 . S
C251 C259 1.503 . S
C252 C251 1.410 . S
C252 C253 1.392 . S
C252 C255 1.511 . S
C253 C249 1.376 . S
C253 C252 1.392 . S
C253 H265 0.929 . S
C254 C250 1.531 1_655 S
C254 H266 0.960 . S
C254 H267 0.962 . S
C254 H268 0.960 . S
C255 C252 1.511 . S
C255 H269 0.961 . S
C255 H270 0.961 . S
C255 H271 0.961 . S
C256 C257 1.370 . S
C256 C258 1.363 . S
C256 H272 0.931 . S
C257 C256 1.370 . S
C257 C261 1.408 . S
C258 C256 1.363 . S
C258 C259 1.370 1_655 S
C258 C262 1.524 . S
C259 C251 1.503 . S
C259 C258 1.370 1_455 S
C259 C260 1.403 . S
C260 C259 1.403 . S
C260 C261 1.404 1_455 S
C260 C263 1.539 . S
C261 C257 1.408 . S
C261 C260 1.404 1_655 S
C261 H273 0.930 1_565 S
C262 C258 1.524 . S
C262 H274 0.956 . S
C262 H275 0.961 1_655 S
C262 H276 0.961 . S
C263 C260 1.539 . S
C263 H277 0.958 . S
C263 H278 0.961 1_565 S
C263 H279 0.960 . S
H264 C248 0.931 . S
H265 C253 0.929 . S
H266 C254 0.960 . S
H267 C254 0.962 . S
H268 C254 0.960 . S
H269 C255 0.961 . S
H270 C255 0.961 . S
H271 C255 0.961 . S
H272 C256 0.931 . S
H273 C261 0.930 1_545 S
H274 C262 0.956 . S
H275 C262 0.961 1_455 S
H276 C262 0.961 . S
H277 C263 0.958 . S
H278 C263 0.961 1_545 S
H279 C263 0.960 . S
C280 C281 1.391 . S
C280 C282 1.394 . S
C280 H296 0.931 . S
C281 C280 1.391 . S
C281 C285 1.376 . S
C282 C280 1.394 . S
C282 C283 1.369 . S
C282 C286 1.531 . S
C283 C282 1.369 . S
C283 C284 1.410 . S
C283 C291 1.503 . S
C284 C283 1.410 . S
C284 C285 1.392 . S
C284 C287 1.511 1_556 S
C285 C281 1.376 . S
C285 C284 1.392 . S
C285 H297 0.929 . S
C286 C282 1.531 . S
C286 H298 0.960 . S
C286 H299 0.962 . S
C286 H300 0.960 . S
C287 C284 1.511 1_554 S
C287 H301 0.961 . S
C287 H302 0.961 . S
C287 H303 0.961 . S
C288 C289 1.370 . S
C288 C290 1.363 . S
C288 H304 0.931 . S
C289 C288 1.370 . S
C289 C293 1.408 . S
C290 C288 1.363 . S
C290 C291 1.370 1_554 S
C290 C294 1.524 1_554 S
C291 C283 1.503 . S
C291 C290 1.370 1_556 S
C291 C292 1.403 1_556 S
C292 C291 1.403 1_554 S
C292 C293 1.404 . S
C292 C295 1.539 1_554 S
C293 C289 1.408 . S
C293 C292 1.404 . S
C293 H305 0.930 . S
C294 C290 1.524 1_556 S
C294 H306 0.956 . S
C294 H307 0.961 1_556 S
C294 H308 0.961 1_556 S
C295 C292 1.539 1_556 S
C295 H309 0.958 . S
C295 H310 0.961 1_556 S
C295 H311 0.960 . S
H296 C280 0.931 . S
H297 C285 0.929 . S
H298 C286 0.960 . S
H299 C286 0.962 . S
H300 C286 0.960 . S
H301 C287 0.961 . S
H302 C287 0.961 . S
H303 C287 0.961 . S
H304 C288 0.931 . S
H305 C293 0.930 . S
H306 C294 0.956 . S
H307 C294 0.961 1_554 S
H308 C294 0.961 1_554 S
H309 C295 0.958 . S
H310 C295 0.961 1_554 S
H311 C295 0.960 . S
C312 C313 1.391 . S
C312 C314 1.394 . S
C312 H328 0.931 . S
C313 C312 1.391 . S
C313 C317 1.376 . S
C314 C312 1.394 . S
C314 C315 1.369 . S
C314 C318 1.531 . S
C315 C314 1.369 . S
C315 C316 1.410 . S
C315 C323 1.503 . S
C316 C315 1.410 . S
C316 C317 1.392 . S
C316 C319 1.511 . S
C317 C313 1.376 . S
C317 C316 1.392 . S
C317 H329 0.929 . S
C318 C314 1.531 . S
C318 H330 0.960 . S
C318 H331 0.962 . S
C318 H332 0.960 . S
C319 C316 1.511 . S
C319 H333 0.961 . S
C319 H334 0.961 . S
C319 H335 0.961 . S
C320 C321 1.370 . S
C320 C322 1.363 . S
C320 H336 0.931 . S
C321 C320 1.370 . S
C321 C325 1.408 . S
C322 C320 1.363 . S
C322 C323 1.370 . S
C322 C326 1.524 . S
C323 C315 1.503 . S
C323 C322 1.370 . S
C323 C324 1.403 . S
C324 C323 1.403 . S
C324 C325 1.404 . S
C324 C327 1.539 . S
C325 C321 1.408 . S
C325 C324 1.404 . S
C325 H337 0.930 . S
C326 C322 1.524 . S
C326 H338 0.956 . S
C326 H339 0.961 . S
C326 H340 0.961 . S
C327 C324 1.539 . S
C327 H341 0.958 . S
C327 H342 0.961 . S
C327 H343 0.960 . S
H328 C312 0.931 . S
H329 C317 0.929 . S
H330 C318 0.960 . S
H331 C318 0.962 . S
H332 C318 0.960 . S
H333 C319 0.961 . S
H334 C319 0.961 . S
H335 C319 0.961 . S
H336 C320 0.931 . S
H337 C325 0.930 . S
H338 C326 0.956 . S
H339 C326 0.961 . S
H340 C326 0.961 . S
H341 C327 0.958 . S
H342 C327 0.961 . S
H343 C327 0.960 . S
C344 C345 1.391 . S
C344 C346 1.394 . S
C344 H360 0.931 . S
C345 C344 1.391 . S
C345 C349 1.376 . S
C346 C344 1.394 . S
C346 C347 1.369 . S
C346 C350 1.531 . S
C347 C346 1.369 . S
C347 C348 1.410 . S
C347 C355 1.503 . S
C348 C347 1.410 . S
C348 C349 1.392 . S
C348 C351 1.511 . S
C349 C345 1.376 . S
C349 C348 1.392 . S
C349 H361 0.929 . S
C350 C346 1.531 . S
C350 H362 0.960 . S
C350 H363 0.962 . S
C350 H364 0.960 . S
C351 C348 1.511 . S
C351 H365 0.961 . S
C351 H366 0.961 . S
C351 H367 0.961 . S
C352 C353 1.370 . S
C352 C354 1.363 . S
C352 H368 0.931 . S
C353 C352 1.370 . S
C353 C357 1.408 . S
C354 C352 1.363 . S
C354 C355 1.370 . S
C354 C358 1.524 . S
C355 C347 1.503 . S
C355 C354 1.370 . S
C355 C356 1.403 . S
C356 C355 1.403 . S
C356 C357 1.404 . S
C356 C359 1.539 . S
C357 C353 1.408 . S
C357 C356 1.404 . S
C357 H369 0.930 . S
C358 C354 1.524 . S
C358 H370 0.956 . S
C358 H371 0.961 . S
C358 H372 0.961 . S
C359 C356 1.539 . S
C359 H373 0.958 . S
C359 H374 0.961 . S
C359 H375 0.960 . S
H360 C344 0.931 . S
H361 C349 0.929 . S
H362 C350 0.960 . S
H363 C350 0.962 . S
H364 C350 0.960 . S
H365 C351 0.961 . S
H366 C351 0.961 . S
H367 C351 0.961 . S
H368 C352 0.931 . S
H369 C357 0.930 . S
H370 C358 0.956 . S
H371 C358 0.961 . S
H372 C358 0.961 . S
H373 C359 0.958 . S
H374 C359 0.961 . S
H375 C359 0.960 . S
C376 C377 1.391 . S
C376 C378 1.394 . S
C376 H392 0.931 . S
C377 C376 1.391 . S
C377 C381 1.376 . S
C378 C376 1.394 . S
C378 C379 1.369 1_455 S
C378 C382 1.531 . S
C379 C378 1.369 1_655 S
C379 C380 1.410 . S
C379 C387 1.503 . S
C380 C379 1.410 . S
C380 C381 1.392 1_655 S
C380 C383 1.511 . S
C381 C377 1.376 . S
C381 C380 1.392 1_455 S
C381 H393 0.929 1_455 S
C382 C378 1.531 . S
C382 H394 0.960 . S
C382 H395 0.962 . S
C382 H396 0.960 . S
C383 C380 1.511 . S
C383 H397 0.961 . S
C383 H398 0.961 . S
C383 H399 0.961 . S
C384 C385 1.370 . S
C384 C386 1.363 . S
C384 H400 0.931 . S
C385 C384 1.370 . S
C385 C389 1.408 . S
C386 C384 1.363 . S
C386 C387 1.370 . S
C386 C390 1.524 1_655 S
C387 C379 1.503 . S
C387 C386 1.370 . S
C387 C388 1.403 . S
C388 C387 1.403 . S
C388 C389 1.404 . S
C388 C391 1.539 . S
C389 C385 1.408 . S
C389 C388 1.404 . S
C389 H401 0.930 . S
C390 C386 1.524 1_455 S
C390 H402 0.956 . S
C390 H403 0.957 1_455 S
C390 H404 0.961 . S
C391 C388 1.539 . S
C391 H405 0.958 . S
C391 H406 0.961 . S
C391 H407 0.960 . S
H392 C376 0.931 . S
H393 C381 0.929 1_655 S
H394 C382 0.960 . S
H395 C382 0.962 . S
H396 C382 0.960 . S
H397 C383 0.961 . S
H398 C383 0.961 . S
H399 C383 0.961 . S
H400 C384 0.931 . S
H401 C389 0.930 . S
H402 C390 0.956 . S
H403 C390 0.957 1_655 S
H404 C390 0.961 . S
H405 C391 0.958 . S
H406 C391 0.961 . S
H407 C391 0.960 . S
C408 C409 1.391 . S
C408 C410 1.394 . S
C408 H424 0.931 . S
C409 C408 1.391 . S
C409 C413 1.376 . S
C410 C408 1.394 . S
C410 C411 1.369 1_556 S
C410 C414 1.531 . S
C411 C410 1.369 1_554 S
C411 C412 1.410 . S
C411 C419 1.503 . S
C412 C411 1.410 . S
C412 C413 1.392 1_554 S
C412 C415 1.511 . S
C413 C409 1.376 . S
C413 C412 1.392 1_556 S
C413 H425 0.930 1_655 S
C414 C410 1.531 . S
C414 H426 0.960 . S
C414 H427 0.962 . S
C414 H428 0.960 . S
C415 C412 1.511 . S
C415 H429 0.961 . S
C415 H430 0.961 . S
C415 H431 0.961 . S
C416 C417 1.370 . S
C416 C418 1.363 . S
C416 H432 0.931 . S
C417 C416 1.370 . S
C417 C421 1.408 . S
C418 C416 1.363 . S
C418 C419 1.370 . S
C418 C422 1.524 1_554 S
C419 C411 1.503 . S
C419 C418 1.370 . S
C419 C420 1.403 . S
C420 C419 1.403 . S
C420 C421 1.404 . S
C420 C423 1.539 . S
C421 C417 1.408 . S
C421 C420 1.404 . S
C421 H433 0.930 . S
C422 C418 1.524 1_556 S
C422 H434 0.956 . S
C422 H435 0.961 . S
C422 H436 0.961 . S
C423 C420 1.539 . S
C423 H437 0.958 . S
C423 H438 0.961 . S
C423 H439 0.960 . S
H424 C408 0.931 . S
H425 C413 0.930 1_455 S
H426 C414 0.960 . S
H427 C414 0.962 . S
H428 C414 0.960 . S
H429 C415 0.961 . S
H430 C415 0.961 . S
H431 C415 0.961 . S
H432 C416 0.931 . S
H433 C421 0.930 . S
H434 C422 0.956 . S
H435 C422 0.961 . S
H436 C422 0.961 . S
H437 C423 0.958 . S
H438 C423 0.961 . S
H439 C423 0.960 . S
C440 C441 1.391 . S
C440 C442 1.394 . S
C440 H456 0.931 . S
C441 C440 1.391 . S
C441 C445 1.376 . S
C442 C440 1.394 . S
C442 C443 1.369 . S
C442 C446 1.531 . S
C443 C442 1.369 . S
C443 C444 1.410 . S
C443 C451 1.503 . S
C444 C443 1.410 . S
C444 C445 1.392 . S
C444 C447 1.511 . S
C445 C441 1.376 . S
C445 C444 1.392 . S
C445 H457 0.929 . S
C446 C442 1.531 . S
C446 H458 0.960 . S
C446 H459 0.962 . S
C446 H460 0.960 . S
C447 C444 1.511 . S
C447 H461 0.961 . S
C447 H462 0.961 . S
C447 H463 0.961 . S
C448 C449 1.370 . S
C448 C450 1.363 . S
C448 H464 0.931 . S
C449 C448 1.370 . S
C449 C453 1.408 . S
C450 C448 1.363 . S
C450 C451 1.370 . S
C450 C454 1.524 . S
C451 C443 1.503 . S
C451 C450 1.370 . S
C451 C452 1.403 . S
C452 C451 1.403 . S
C452 C453 1.404 . S
C452 C455 1.539 . S
C453 C449 1.408 . S
C453 C452 1.404 . S
C453 H465 0.930 . S
C454 C450 1.524 . S
C454 H466 0.956 . S
C454 H467 0.961 . S
C454 H468 0.961 . S
C455 C452 1.539 . S
C455 H469 0.958 . S
C455 H470 0.961 . S
C455 H471 0.960 . S
H456 C440 0.931 . S
H457 C445 0.929 . S
H458 C446 0.960 . S
H459 C446 0.962 . S
H460 C446 0.960 . S
H461 C447 0.961 . S
H462 C447 0.961 . S
H463 C447 0.961 . S
H464 C448 0.931 . S
H465 C453 0.930 . S
H466 C454 0.956 . S
H467 C454 0.961 . S
H468 C454 0.961 . S
H469 C455 0.958 . S
H470 C455 0.961 . S
H471 C455 0.960 . S
C89 C51 1.345 1_554 S
C97 C4 1.303 . S
C121 C75 1.262 . S
C129 C31 1.299 . S
C153 C48 1.268 . S
C161 C7 1.316 . S
C185 C71 1.272 1_556 S
C193 C27 1.293 . S
C217 C30 1.346 1_455 S
C225 C5 1.304 . S
C249 C50 1.334 . S
C257 C29 1.296 1_565 S
C281 C49 1.297 . S
C289 C70 1.325 . S
C313 C6 1.267 . S
C321 C72 1.295 1_545 S
C345 C28 1.293 . S
C353 C9 1.289 . S
C377 C52 1.346 . S
C385 C26 1.316 . S
C409 C53 1.339 1_655 S
C417 C73 1.321 . S
C441 C74 1.332 . S
C449 C8 1.295 . S
