# Generated by pormake.
# Topology fnl, (5)-cn, num edge types: 1
# Building blocks:
#     Node 0, Type 0, BuildingBlock: XOMCOT_clean_sbu_0, # of connection points: 5
#     Node 1, Type 0, BuildingBlock: XOMCOT_clean_sbu_0, # of connection points: 5
#     Node 2, Type 0, BuildingBlock: XOMCOT_clean_sbu_0, # of connection points: 5
#     Node 3, Type 0, BuildingBlock: XOMCOT_clean_sbu_0, # of connection points: 5
#     Node 4, Type 0, BuildingBlock: XOMCOT_clean_sbu_0, # of connection points: 5
#     Node 5, Type 0, BuildingBlock: XOMCOT_clean_sbu_0, # of connection points: 5
#     Node 6, Type 0, BuildingBlock: XOMCOT_clean_sbu_0, # of connection points: 5
#     Node 7, Type 0, BuildingBlock: XOMCOT_clean_sbu_0, # of connection points: 5
#     Node 8, Type 0, BuildingBlock: XOMCOT_clean_sbu_0, # of connection points: 5
#     Node 9, Type 0, BuildingBlock: XOMCOT_clean_sbu_0, # of connection points: 5
#     Node 10, Type 0, BuildingBlock: XOMCOT_clean_sbu_0, # of connection points: 5
#     Node 11, Type 0, BuildingBlock: XOMCOT_clean_sbu_0, # of connection points: 5
#     Node 12, Type 0, BuildingBlock: XOMCOT_clean_sbu_0, # of connection points: 5
#     Node 13, Type 0, BuildingBlock: XOMCOT_clean_sbu_0, # of connection points: 5
#     Node 14, Type 0, BuildingBlock: XOMCOT_clean_sbu_0, # of connection points: 5
#     Node 15, Type 0, BuildingBlock: XOMCOT_clean_sbu_0, # of connection points: 5
#     Edge 16, Type (0, 0), BuildingBlock: UVAHIK_clean_linker_0, # of connection points: 2
#     Edge 17, Type (0, 0), BuildingBlock: UVAHIK_clean_linker_0, # of connection points: 2
#     Edge 18, Type (0, 0), BuildingBlock: UVAHIK_clean_linker_0, # of connection points: 2
#     Edge 19, Type (0, 0), BuildingBlock: UVAHIK_clean_linker_0, # of connection points: 2
#     Edge 20, Type (0, 0), BuildingBlock: UVAHIK_clean_linker_0, # of connection points: 2
#     Edge 21, Type (0, 0), BuildingBlock: UVAHIK_clean_linker_0, # of connection points: 2
#     Edge 22, Type (0, 0), BuildingBlock: UVAHIK_clean_linker_0, # of connection points: 2
#     Edge 23, Type (0, 0), BuildingBlock: UVAHIK_clean_linker_0, # of connection points: 2
#     Edge 24, Type (0, 0), BuildingBlock: UVAHIK_clean_linker_0, # of connection points: 2
#     Edge 25, Type (0, 0), BuildingBlock: UVAHIK_clean_linker_0, # of connection points: 2
#     Edge 26, Type (0, 0), BuildingBlock: UVAHIK_clean_linker_0, # of connection points: 2
#     Edge 27, Type (0, 0), BuildingBlock: UVAHIK_clean_linker_0, # of connection points: 2
#     Edge 28, Type (0, 0), BuildingBlock: UVAHIK_clean_linker_0, # of connection points: 2
#     Edge 29, Type (0, 0), BuildingBlock: UVAHIK_clean_linker_0, # of connection points: 2
#     Edge 30, Type (0, 0), BuildingBlock: UVAHIK_clean_linker_0, # of connection points: 2
#     Edge 31, Type (0, 0), BuildingBlock: UVAHIK_clean_linker_0, # of connection points: 2
#     Edge 32, Type (0, 0), BuildingBlock: UVAHIK_clean_linker_0, # of connection points: 2
#     Edge 33, Type (0, 0), BuildingBlock: UVAHIK_clean_linker_0, # of connection points: 2
#     Edge 34, Type (0, 0), BuildingBlock: UVAHIK_clean_linker_0, # of connection points: 2
#     Edge 35, Type (0, 0), BuildingBlock: UVAHIK_clean_linker_0, # of connection points: 2
#     Edge 36, Type (0, 0), BuildingBlock: UVAHIK_clean_linker_0, # of connection points: 2
#     Edge 37, Type (0, 0), BuildingBlock: UVAHIK_clean_linker_0, # of connection points: 2
#     Edge 38, Type (0, 0), BuildingBlock: UVAHIK_clean_linker_0, # of connection points: 2
#     Edge 39, Type (0, 0), BuildingBlock: UVAHIK_clean_linker_0, # of connection points: 2
#     Edge 40, Type (0, 0), BuildingBlock: UVAHIK_clean_linker_0, # of connection points: 2
#     Edge 41, Type (0, 0), BuildingBlock: UVAHIK_clean_linker_0, # of connection points: 2
#     Edge 42, Type (0, 0), BuildingBlock: UVAHIK_clean_linker_0, # of connection points: 2
#     Edge 43, Type (0, 0), BuildingBlock: UVAHIK_clean_linker_0, # of connection points: 2
#     Edge 44, Type (0, 0), BuildingBlock: UVAHIK_clean_linker_0, # of connection points: 2
#     Edge 45, Type (0, 0), BuildingBlock: UVAHIK_clean_linker_0, # of connection points: 2
#     Edge 46, Type (0, 0), BuildingBlock: UVAHIK_clean_linker_0, # of connection points: 2
#     Edge 47, Type (0, 0), BuildingBlock: UVAHIK_clean_linker_0, # of connection points: 2
#     Edge 48, Type (0, 0), BuildingBlock: UVAHIK_clean_linker_0, # of connection points: 2
#     Edge 49, Type (0, 0), BuildingBlock: UVAHIK_clean_linker_0, # of connection points: 2
#     Edge 50, Type (0, 0), BuildingBlock: UVAHIK_clean_linker_0, # of connection points: 2
#     Edge 51, Type (0, 0), BuildingBlock: UVAHIK_clean_linker_0, # of connection points: 2
#     Edge 52, Type (0, 0), BuildingBlock: UVAHIK_clean_linker_0, # of connection points: 2
#     Edge 53, Type (0, 0), BuildingBlock: UVAHIK_clean_linker_0, # of connection points: 2
#     Edge 54, Type (0, 0), BuildingBlock: UVAHIK_clean_linker_0, # of connection points: 2
#     Edge 55, Type (0, 0), BuildingBlock: UVAHIK_clean_linker_0, # of connection points: 2
# Relax obj value: 0.519
# Max RMSD: 0.271
# Mean RMSD: 0.271
data_MOF--net-fnl--node1-XOMCOT_clean_sbu_0--edge1-UVAHIK_clean_linker_0
_symmetry_space_group_name_H-M    P1
_symmetry_Int_Tables_number       1
_symmetry_cell_setting            triclinic
loop_
_symmetry_equiv_pos_as_xyz
'x, y, z'
_cell_length_a     42.653612
_cell_length_b     42.664687
_cell_length_c     121.68238
_cell_angle_alpha  90.001233
_cell_angle_beta   89.965079
_cell_angle_gamma 90.051748
loop_
_atom_site_label
_atom_site_type_symbol
_atom_site_fract_x
_atom_site_fract_y
_atom_site_fract_z
_atom_type_partial_charge
Co0 Co 0.02256 0.03226 0.07095 0.0
C1 C 0.03631 0.09743 0.07844 0.0
C2 C 0.0778 0.07208 0.07403 0.0
C3 C 0.08643 0.1018 0.07725 0.0
N4 N 0.04634 0.06937 0.07477 0.0
N5 N 0.06026 0.11748 0.08008 0.0
H6 H 0.01217 0.10376 0.07966 0.0
H7 H 0.09341 0.05366 0.07134 0.0
C8 C 0.05754 0.01571 0.09147 0.0
O9 O 0.05052 0.04322 0.09565 0.0
N10 N -0.00023 0.99504 0.06704 0.0
C11 C 0.96888 0.99214 0.06493 0.0
C12 C 0.96262 0.96118 0.06256 0.0
C13 C 0.01199 0.96626 0.06576 0.0
N14 N 0.98982 0.94514 0.06304 0.0
C15 C 0.96743 0.06483 0.07818 0.0
C16 C 0.95706 0.0293 0.0968 0.0
C17 C 0.93543 0.05245 0.09392 0.0
C18 C 0.94056 0.07026 0.08448 0.0
C19 C 0.98318 0.02418 0.09016 0.0
N20 N 0.98891 0.04262 0.0812 0.0
H21 H 0.9706 0.07816 0.07072 0.0
H22 H -0.0024 0.00414 0.09197 0.0
H23 H 0.95211 0.01111 0.06511 0.0
H24 H 0.03654 0.96084 0.06695 0.0
O25 O 0.00676 0.05273 0.05791 0.0
O26 O 0.05057 0.02493 0.05884 0.0
O27 O 0.04681 0.00751 0.08212 0.0
C28 C 0.03109 0.04107 0.0529 0.0
H29 H 0.11003 0.11114 0.07751 0.0
H30 H 0.93999 0.95128 0.06052 0.0
H31 H 0.95288 0.01414 0.10379 0.0
H32 H 0.92365 0.08766 0.08186 0.0
Co33 Co 0.2769 0.77597 0.32067 0.0
C34 C 0.21008 0.78837 0.32606 0.0
C35 C 0.23357 0.8296 0.32029 0.0
C36 C 0.20306 0.83737 0.32282 0.0
N37 N 0.23797 0.79884 0.32237 0.0
N38 N 0.18844 0.81131 0.32643 0.0
H39 H 0.2056 0.76484 0.32882 0.0
H40 H 0.25145 0.84548 0.31733 0.0
C41 C 0.28497 0.8154 0.34104 0.0
O42 O 0.25482 0.81406 0.34314 0.0
N43 N 0.3157 0.75371 0.3188 0.0
C44 C 0.31982 0.7227 0.31723 0.0
C45 C 0.3512 0.71719 0.31543 0.0
C46 C 0.34428 0.76669 0.31779 0.0
N47 N 0.36638 0.74491 0.31572 0.0
C48 C 0.2436 0.71971 0.32597 0.0
C49 C 0.26799 0.71178 0.34679 0.0
C50 C 0.24928 0.68814 0.34227 0.0
C51 C 0.23677 0.69234 0.33177 0.0
C52 C 0.2749 0.73843 0.34061 0.0
N53 N 0.26256 0.7424 0.33034 0.0
H54 H 0.23419 0.72225 0.31779 0.0
H55 H 0.29176 0.7546 0.34394 0.0
H56 H 0.30135 0.70538 0.31707 0.0
H57 H 0.34868 0.79162 0.3184 0.0
O58 O 0.26263 0.75952 0.30675 0.0
O59 O 0.28888 0.80395 0.30895 0.0
O60 O 0.2968 0.80051 0.33294 0.0
C61 C 0.27585 0.78394 0.30233 0.0
H62 H 0.19244 0.86028 0.32201 0.0
H63 H 0.36184 0.69475 0.31362 0.0
H64 H 0.27896 0.70871 0.35475 0.0
H65 H 0.22263 0.67423 0.32798 0.0
Co66 Co 0.53342 0.02416 0.5697 0.0
C67 C 0.52689 0.95835 0.57757 0.0
C68 C 0.48247 0.9804 0.5749 0.0
C69 C 0.47725 0.95015 0.57843 0.0
N70 N 0.51365 0.98557 0.57444 0.0
N71 N 0.5053 0.93639 0.58007 0.0
H72 H 0.55167 0.95434 0.57811 0.0
H73 H 0.46475 -0.00251 0.57279 0.0
C74 C 0.49965 0.04042 0.59048 0.0
O75 O 0.51015 0.01452 0.595 0.0
N76 N 0.55235 0.06267 0.56485 0.0
C77 C 0.58218 0.067 0.56154 0.0
C78 C 0.58634 0.09827 0.55914 0.0
C79 C 0.53861 0.091 0.56429 0.0
N80 N 0.55891 0.11321 0.56087 0.0
C81 C 0.59187 -0.00223 0.57672 0.0
C82 C 0.60121 0.03696 0.59445 0.0
C83 C 0.6244 0.01503 0.59177 0.0
C84 C 0.61956 0.99534 0.58275 0.0
C85 C 0.57405 0.03886 0.58812 0.0
N86 N 0.56889 0.0185 0.57963 0.0
H87 H 0.58928 0.98323 0.56952 0.0
H88 H 0.5582 0.05795 0.58973 0.0
H89 H 0.59971 0.04878 0.561 0.0
H90 H 0.51448 0.09537 0.56658 0.0
O91 O 0.54999 0.00322 0.5569 0.0
O92 O 0.50382 0.02697 0.55778 0.0
O93 O 0.50804 0.0481 0.58077 0.0
C94 C 0.52434 0.01173 0.55196 0.0
H95 H 0.45464 0.939 0.57946 0.0
H96 H 0.60781 0.10915 0.55632 0.0
H97 H 0.6048 0.05372 0.60102 0.0
H98 H 0.6373 0.97865 0.58024 0.0
Co99 Co 0.27585 0.30007 0.82208 0.0
C100 C 0.3431 0.29096 0.82595 0.0
C101 C 0.31701 0.24872 0.82891 0.0
C102 C 0.34813 0.2431 0.83118 0.0
N103 N 0.31405 0.27874 0.82571 0.0
N104 N 0.36446 0.26975 0.82934 0.0
H105 H 0.34824 0.31515 0.82398 0.0
H106 H 0.29786 0.23221 0.82963 0.0
C107 C 0.23272 0.28893 0.84082 0.0
O108 O 0.22556 0.31885 0.84039 0.0
N109 N 0.23653 0.32044 0.81824 0.0
C110 C 0.22825 0.35098 0.81743 0.0
C111 C 0.19674 0.35278 0.81507 0.0
C112 C 0.20999 0.30434 0.8161 0.0
N113 N 0.18547 0.32343 0.81422 0.0
C114 C 0.2969 0.36241 0.82674 0.0
C115 C 0.30407 0.35496 0.8491 0.0
C116 C 0.30756 0.38515 0.8446 0.0
C117 C 0.30497 0.38825 0.83314 0.0
C118 C 0.29485 0.33001 0.8424 0.0
N119 N 0.28907 0.33454 0.83148 0.0
H120 H 0.29559 0.36526 0.81793 0.0
H121 H 0.2925 0.30701 0.84602 0.0
H122 H 0.24313 0.371 0.81862 0.0
H123 H 0.20837 0.27904 0.81643 0.0
O124 O 0.29389 0.31414 0.80844 0.0
O125 O 0.26787 0.26955 0.81071 0.0
O126 O 0.25385 0.27777 0.83448 0.0
C127 C 0.28255 0.28863 0.80414 0.0
H128 H 0.35792 0.22104 0.8339 0.0
H129 H 0.18308 0.37399 0.81416 0.0
H130 H 0.30786 0.35053 0.85775 0.0
H131 H 0.30776 0.41057 0.82905 0.0
Co132 Co 0.02023 0.03145 0.91751 0.0
C133 C 0.03393 0.9657 0.91304 0.0
C134 C 0.07448 0.99438 0.91015 0.0
C135 C 0.08189 0.9637 0.90768 0.0
N136 N 0.04439 0.99537 0.91344 0.0
N137 N 0.05629 0.94576 0.9095 0.0
H138 H 0.0101 0.95911 0.91503 0.0
H139 H 0.08982 0.0145 0.90952 0.0
C140 C 0.03012 0.07826 0.89974 0.0
O141 O -0.00011 0.0841 0.90009 0.0
N142 N 0.99658 0.06836 0.92187 0.0
C143 C 0.96568 0.07251 0.92387 0.0
C144 C 0.96077 0.10302 0.92711 0.0
C145 C 0.00996 0.09619 0.92426 0.0
N146 N 0.98867 0.11774 0.92736 0.0
C147 C 0.95987 0.00659 0.91167 0.0
C148 C 0.96919 0.00671 0.88925 0.0
C149 C 0.93894 0.00069 0.89331 0.0
C150 C 0.93489 -0.00082 0.90475 0.0
C151 C 0.99322 0.01474 0.89649 0.0
N152 N 0.98754 0.01734 0.9075 0.0
H153 H 0.95652 0.00478 0.92044 0.0
H154 H 0.01631 0.01914 0.8932 0.0
H155 H 0.94754 0.05512 0.92328 0.0
H156 H 0.03485 0.10071 0.9235 0.0
O157 O 0.00668 0.01046 0.93074 0.0
O158 O 0.04918 0.0402 0.92924 0.0
O159 O 0.04188 0.05673 0.90575 0.0
C160 C 0.03091 0.02333 0.93543 0.0
H161 H 0.10441 0.95531 0.90483 0.0
H162 H 0.93848 0.11343 0.92929 0.0
H163 H 0.97415 0.0061 0.88052 0.0
H164 H 0.91238 0.99384 0.90839 0.0
Co165 Co 0.28472 0.77272 0.16905 0.0
C166 C 0.34981 0.77866 0.16014 0.0
C167 C 0.32558 0.82252 0.16088 0.0
C168 C 0.35557 0.82797 0.15718 0.0
N169 N 0.32184 0.79153 0.16263 0.0
N170 N 0.3708 0.80032 0.15676 0.0
H171 H 0.35525 0.75422 0.16096 0.0
H172 H 0.30786 0.84008 0.16246 0.0
C173 C 0.26236 0.80285 0.14836 0.0
O174 O 0.28601 0.78995 0.14312 0.0
N175 N 0.24762 0.75498 0.17558 0.0
C176 C 0.24461 0.72622 0.18002 0.0
C177 C 0.21411 0.72248 0.18349 0.0
C178 C 0.21924 0.76849 0.17649 0.0
N179 N 0.19823 0.74909 0.18126 0.0
C180 C 0.30882 0.71381 0.1614 0.0
C181 C 0.25973 0.70055 0.14739 0.0
C182 C 0.28276 0.67779 0.14917 0.0
C183 C 0.30785 0.68478 0.15611 0.0
C184 C 0.26186 0.72941 0.1527 0.0
N185 N 0.28659 0.7362 0.15944 0.0
H186 H 0.32635 0.71726 0.16766 0.0
H187 H 0.24228 0.74523 0.15198 0.0
H188 H 0.26323 0.7091 0.1806 0.0
H189 H 0.21395 0.79176 0.17348 0.0
O190 O 0.30905 0.75688 0.18117 0.0
O191 O 0.28619 0.80355 0.18061 0.0
O192 O 0.25796 0.79728 0.15855 0.0
C193 C 0.3025 0.78313 0.1861 0.0
H194 H 0.36573 0.85067 0.15541 0.0
H195 H 0.20444 0.70182 0.18739 0.0
H196 H 0.23944 0.69551 0.14233 0.0
H197 H 0.32532 0.6672 0.15803 0.0
Co198 Co 0.53986 0.0286 0.41631 0.0
C199 C 0.52832 0.09609 0.4118 0.0
C200 C 0.4863 0.07182 0.4164 0.0
C201 C 0.4789 0.1027 0.41436 0.0
N202 N 0.51729 0.06767 0.41471 0.0
N203 N 0.50543 0.11781 0.4115 0.0
H204 H 0.55232 0.10101 0.40969 0.0
H205 H 0.4701 0.05356 0.41881 0.0
C206 C 0.49997 0.02099 0.39606 0.0
O207 O 0.50216 0.05103 0.39385 0.0
N208 N 0.56166 0.98954 0.4181 0.0
C209 C 0.59244 0.98475 0.41986 0.0
C210 C 0.59716 0.95318 0.42154 0.0
C211 C 0.54807 0.96119 0.4188 0.0
N212 N 0.56918 0.93842 0.42091 0.0
C213 C 0.59652 0.06111 0.41083 0.0
C214 C 0.6029 0.03765 0.38981 0.0
C215 C 0.62689 0.05616 0.39421 0.0
C216 C 0.62351 0.0681 0.40483 0.0
C217 C 0.57665 0.03057 0.39618 0.0
N218 N 0.57333 0.04262 0.40653 0.0
H219 H 0.59463 0.0701 0.41909 0.0
H220 H 0.56024 0.01388 0.39291 0.0
H221 H 0.61011 0.00289 0.42018 0.0
H222 H 0.523 0.9577 0.41823 0.0
O223 O 0.55659 0.04296 0.43019 0.0
O224 O 0.51207 0.01683 0.4281 0.0
O225 O 0.51477 0.00896 0.40413 0.0
C226 C 0.53211 0.02999 0.43468 0.0
H227 H 0.45592 0.11326 0.41506 0.0
H228 H 0.61947 0.94212 0.42322 0.0
H229 H 0.60536 0.02703 0.38177 0.0
H230 H 0.64193 0.08201 0.40854 0.0
Co231 Co 0.27394 0.28077 0.66943 0.0
C232 C 0.20875 0.2709 0.66098 0.0
C233 C 0.2324 0.22796 0.66472 0.0
C234 C 0.20305 0.22085 0.66072 0.0
N235 N 0.23604 0.25938 0.66483 0.0
N236 N 0.1884 0.24795 0.65832 0.0
H237 H 0.20315 0.29535 0.6603 0.0
H238 H 0.2501 0.21133 0.66725 0.0
C239 C 0.29138 0.24664 0.64891 0.0
O240 O 0.26557 0.25699 0.64427 0.0
N241 N 0.31198 0.30096 0.6741 0.0
C242 C 0.316 0.33119 0.6769 0.0
C243 C 0.34722 0.33589 0.67926 0.0
C244 C 0.34039 0.28757 0.67491 0.0
N245 N 0.36259 0.30841 0.678 0.0
C246 C 0.24527 0.337 0.66129 0.0
C247 C 0.28695 0.34722 0.64433 0.0
C248 C 0.26292 0.36909 0.64612 0.0
C249 C 0.24192 0.36368 0.65477 0.0
C250 C 0.28922 0.32073 0.65098 0.0
N251 N 0.26772 0.31506 0.65907 0.0
H252 H 0.22996 0.33428 0.6683 0.0
H253 H 0.30939 0.3058 0.64997 0.0
H254 H 0.29766 0.34867 0.67703 0.0
H255 H 0.34447 0.263 0.67328 0.0
O256 O 0.25262 0.29829 0.68198 0.0
O257 O 0.27709 0.25243 0.68172 0.0
O258 O 0.29858 0.255 0.65865 0.0
C259 C 0.26162 0.27338 0.68727 0.0
H260 H 0.1934 0.19761 0.65958 0.0
H261 H 0.35772 0.35808 0.68148 0.0
H262 H 0.30487 0.35122 0.63818 0.0
H263 H 0.22338 0.38017 0.65663 0.0
Co264 Co 0.78233 0.28028 0.67322 0.0
C265 C 0.84822 0.28851 0.66571 0.0
C266 C 0.82612 0.33235 0.66934 0.0
C267 C 0.85629 0.33822 0.66583 0.0
N268 N 0.82106 0.30113 0.66922 0.0
N269 N 0.87006 0.31053 0.66358 0.0
H270 H 0.85206 0.26391 0.66443 0.0
H271 H 0.80893 0.34971 0.67171 0.0
C272 C 0.76942 0.3122 0.65172 0.0
O273 O 0.79798 0.30586 0.64835 0.0
N274 N 0.74371 0.26019 0.67734 0.0
C275 C 0.73958 0.23036 0.68067 0.0
C276 C 0.70811 0.22558 0.68259 0.0
C277 C 0.71506 0.27332 0.67742 0.0
N278 N 0.69286 0.25265 0.68056 0.0
C279 C 0.81228 0.22169 0.66833 0.0
C280 C 0.78037 0.20965 0.64905 0.0
C281 C 0.80137 0.18736 0.65308 0.0
C282 C 0.81734 0.19335 0.66286 0.0
C283 C 0.77548 0.23732 0.65488 0.0
N284 N 0.79213 0.24372 0.66421 0.0
H285 H 0.82443 0.22578 0.67597 0.0
H286 H 0.75697 0.25248 0.65211 0.0
H287 H 0.75808 0.21328 0.68164 0.0
H288 H 0.71052 0.29735 0.67506 0.0
O289 O 0.80085 0.26713 0.68695 0.0
O290 O 0.77511 0.31163 0.6843 0.0
O291 O 0.75968 0.30239 0.66102 0.0
C292 C 0.78999 0.29318 0.691 0.0
H293 H 0.86728 0.361 0.66512 0.0
H294 H 0.69732 0.20402 0.68537 0.0
H295 H 0.76657 0.20494 0.64176 0.0
H296 H 0.83303 0.17606 0.66635 0.0
Co297 Co 0.78222 0.78112 0.17316 0.0
C298 C 0.71701 0.77307 0.16613 0.0
C299 C 0.7451 0.73326 0.16174 0.0
C300 C 0.71516 0.72866 0.1578 0.0
N301 N 0.74609 0.76116 0.16688 0.0
N302 N 0.6976 0.75379 0.16056 0.0
H303 H 0.71053 0.79584 0.1693 0.0
H304 H 0.76485 0.7176 0.16079 0.0
C305 C 0.83071 0.77797 0.15518 0.0
O306 O 0.83904 0.80717 0.15704 0.0
N307 N 0.81906 0.80053 0.17959 0.0
C308 C 0.8216 0.82755 0.18529 0.0
C309 C 0.85211 0.83094 0.18876 0.0
C310 C 0.84775 0.78735 0.1801 0.0
N311 N 0.86856 0.80568 0.18545 0.0
C312 C 0.75862 0.84398 0.17183 0.0
C313 C 0.76661 0.85152 0.14949 0.0
C314 C 0.75849 0.87777 0.15585 0.0
C315 C 0.75276 0.87316 0.16709 0.0
C316 C 0.77154 0.82259 0.15456 0.0
N317 N 0.77048 0.8199 0.16573 0.0
H318 H 0.75413 0.84103 0.18049 0.0
H319 H 0.77681 0.80263 0.14945 0.0
H320 H 0.80281 0.84351 0.18715 0.0
H321 H 0.85333 0.76492 0.17644 0.0
O322 O 0.76002 0.7868 0.18685 0.0
O323 O 0.78891 0.74541 0.1825 0.0
O324 O 0.80795 0.76561 0.16044 0.0
C325 C 0.77173 0.75984 0.18973 0.0
H326 H 0.707 0.70837 0.15329 0.0
H327 H 0.86128 0.85028 0.19354 0.0
H328 H 0.77055 0.85335 0.14072 0.0
H329 H 0.74464 0.89212 0.17227 0.0
Co330 Co 0.78089 0.26748 0.8241 0.0
C331 C 0.71549 0.28366 0.82824 0.0
C332 C 0.74614 0.31986 0.83412 0.0
C333 C 0.71556 0.32863 0.83619 0.0
N334 N 0.74583 0.29162 0.82919 0.0
N335 N 0.69639 0.3058 0.83244 0.0
H336 H 0.70765 0.26191 0.82461 0.0
H337 H 0.76703 0.33322 0.83599 0.0
C338 C 0.83048 0.27237 0.84163 0.0
O339 O 0.83826 0.24285 0.84024 0.0
N340 N 0.81642 0.24352 0.81882 0.0
C341 C 0.81984 0.21226 0.81754 0.0
C342 C 0.85018 0.20617 0.81429 0.0
C343 C 0.8444 0.25594 0.81606 0.0
N344 N 0.86541 0.2337 0.81336 0.0
C345 C 0.74758 0.20965 0.82664 0.0
C346 C 0.76158 0.19961 0.84846 0.0
C347 C 0.74739 0.17521 0.84246 0.0
C348 C 0.73846 0.18162 0.83159 0.0
C349 C 0.76904 0.22789 0.84329 0.0
N350 N 0.76473 0.23146 0.83225 0.0
H351 H 0.7421 0.21293 0.81807 0.0
H352 H 0.77898 0.24634 0.8482 0.0
H353 H 0.80219 0.19474 0.81909 0.0
H354 H 0.8498 0.28068 0.81666 0.0
O355 O 0.76003 0.26062 0.81021 0.0
O356 O 0.79159 0.30047 0.81394 0.0
O357 O 0.80678 0.28398 0.83667 0.0
C358 C 0.77409 0.28592 0.80685 0.0
H359 H 0.70808 0.35032 0.83997 0.0
H360 H 0.86045 0.1833 0.81294 0.0
H361 H 0.76843 0.19675 0.85695 0.0
H362 H 0.72572 0.1647 0.8267 0.0
Co363 Co 0.78037 0.77948 0.3201 0.0
C364 C 0.84572 0.77197 0.32633 0.0
C365 C 0.81765 0.73533 0.33337 0.0
C366 C 0.84809 0.73196 0.33703 0.0
N367 N 0.81643 0.76054 0.32672 0.0
N368 N 0.86557 0.75508 0.33256 0.0
H369 H 0.85205 0.79301 0.32189 0.0
H370 H 0.79778 0.72085 0.33556 0.0
C371 C 0.73029 0.77795 0.33742 0.0
O372 O 0.72284 0.80711 0.33514 0.0
N373 N 0.7437 0.79801 0.31335 0.0
C374 C 0.73906 0.82677 0.30905 0.0
C375 C 0.7084 0.82896 0.30561 0.0
C376 C 0.71621 0.78292 0.31211 0.0
N377 N 0.69397 0.80139 0.30762 0.0
C378 C 0.80487 0.84199 0.32089 0.0
C379 C 0.79565 0.85201 0.34305 0.0
C380 C 0.80527 0.87729 0.33645 0.0
C381 C 0.81158 0.87136 0.32533 0.0
C382 C 0.79002 0.82276 0.33829 0.0
N383 N 0.79184 0.81888 0.32717 0.0
H384 H 0.80922 0.83826 0.31226 0.0
H385 H 0.78366 0.80352 0.34359 0.0
H386 H 0.75616 0.84525 0.30845 0.0
H387 H 0.71264 0.75894 0.31469 0.0
O388 O 0.80297 0.78429 0.30645 0.0
O389 O 0.77432 0.74293 0.31105 0.0
O390 O 0.75379 0.76491 0.33279 0.0
C391 C 0.79155 0.75707 0.30376 0.0
H392 H 0.85662 0.71405 0.34257 0.0
H393 H 0.69748 0.8497 0.30223 0.0
H394 H 0.79112 0.85487 0.35174 0.0
H395 H 0.82069 0.88947 0.31998 0.0
Co396 Co 0.53291 0.5317 0.57003 0.0
C397 C 0.54415 0.5966 0.57844 0.0
C398 C 0.58668 0.57258 0.57439 0.0
C399 C 0.59427 0.60183 0.57837 0.0
N400 N 0.5552 0.56927 0.57445 0.0
N401 N 0.56742 0.6167 0.58098 0.0
H402 H 0.51978 0.60226 0.57941 0.0
H403 H 0.60304 0.55471 0.57178 0.0
C404 C 0.56472 0.51549 0.59117 0.0
O405 O 0.5573 0.54319 0.5951 0.0
N406 N 0.51172 0.49402 0.56553 0.0
C407 C 0.4816 0.49064 0.56249 0.0
C408 C 0.47621 0.45941 0.56031 0.0
C409 C 0.52436 0.46522 0.56505 0.0
N410 N 0.50316 0.44338 0.56194 0.0
C411 C 0.47638 0.56325 0.57651 0.0
C412 C 0.46312 0.52534 0.59428 0.0
C413 C 0.44191 0.54915 0.59151 0.0
C414 C 0.4488 0.56824 0.58246 0.0
C415 C 0.49036 0.52124 0.58815 0.0
N416 N 0.49744 0.5408 0.57961 0.0
H417 H 0.48069 0.57742 0.56931 0.0
H418 H 0.50464 0.50106 0.58993 0.0
H419 H 0.46467 0.50944 0.56202 0.0
H420 H 0.54871 0.46063 0.5669 0.0
O421 O 0.51873 0.55228 0.55681 0.0
O422 O 0.56301 0.52546 0.55846 0.0
O423 O 0.55562 0.50716 0.58162 0.0
C424 C 0.5441 0.54142 0.55224 0.0
H425 H 0.61765 0.61123 0.57941 0.0
H426 H 0.45393 0.44941 0.55793 0.0
H427 H 0.45799 0.50885 0.60081 0.0
H428 H 0.43283 0.58652 0.57987 0.0
Co429 Co 0.0235 0.52726 0.06957 0.0
C430 C 0.01309 0.46073 0.07356 0.0
C431 C 0.97203 0.48733 0.07765 0.0
C432 C 0.96668 0.45629 0.08025 0.0
N433 N 0.00122 0.48985 0.07355 0.0
N434 N 0.99265 0.43968 0.07769 0.0
H435 H 0.03687 0.45547 0.07108 0.0
H436 H 0.95612 0.50673 0.07891 0.0
C437 C 0.01652 0.5699 0.08871 0.0
O438 O 0.047 0.57436 0.08838 0.0
N439 N 0.04501 0.56558 0.06534 0.0
C440 C 0.07373 0.57044 0.06099 0.0
C441 C 0.07709 0.60182 0.05865 0.0
C442 C 0.03102 0.59388 0.06511 0.0
N443 N 0.05017 0.61658 0.06129 0.0
C444 C 0.08652 0.50621 0.07405 0.0
C445 C 0.07832 0.49812 0.09634 0.0
C446 C 0.10888 0.49643 0.09204 0.0
C447 C 0.11244 0.49912 0.08059 0.0
C448 C 0.05343 0.50655 0.08954 0.0
N449 N 0.05828 0.51312 0.07869 0.0
H450 H 0.08925 0.50624 0.06525 0.0
H451 H 0.03022 0.50811 0.09305 0.0
H452 H 0.09099 0.55289 0.05914 0.0
H453 H 0.00685 0.59747 0.06748 0.0
O454 O 0.03515 0.50832 0.05575 0.0
O455 O 0.9922 0.53651 0.05874 0.0
O456 O 0.00349 0.55042 0.08217 0.0
C457 C 0.00953 0.52079 0.05189 0.0
H458 H 0.9455 0.44683 0.08385 0.0
H459 H 0.09779 0.61273 0.05522 0.0
H460 H 0.07354 0.49381 0.10494 0.0
H461 H 0.13505 0.49689 0.07665 0.0
Co462 Co 0.52078 0.53027 0.41881 0.0
C463 C 0.53214 0.46504 0.41312 0.0
C464 C 0.56898 0.49433 0.40685 0.0
C465 C 0.5747 0.46381 0.40366 0.0
N466 N 0.54221 0.49482 0.41272 0.0
N467 N 0.55148 0.44556 0.40765 0.0
H468 H 0.51057 0.45795 0.4171 0.0
H469 H 0.58314 0.51466 0.40495 0.0
C470 C 0.52571 0.58099 0.4018 0.0
O471 O 0.49608 0.5882 0.40332 0.0
N472 N 0.49971 0.56629 0.42507 0.0
C473 C 0.46963 0.57025 0.42826 0.0
C474 C 0.46586 0.60062 0.43187 0.0
C475 C 0.51389 0.59387 0.42714 0.0
N476 N 0.49376 0.6153 0.43115 0.0
C477 C 0.45965 0.50371 0.41611 0.0
C478 C 0.45339 0.51544 0.39394 0.0
C479 C 0.42715 0.50469 0.39985 0.0
C480 C 0.43133 0.49693 0.41094 0.0
C481 C 0.48167 0.52096 0.39941 0.0
N482 N 0.48353 0.518 0.41056 0.0
H483 H 0.46172 0.49869 0.42477 0.0
H484 H 0.50167 0.52831 0.39464 0.0
H485 H 0.45137 0.55285 0.42798 0.0
H486 H 0.53824 0.59856 0.42523 0.0
O487 O 0.51303 0.50726 0.43218 0.0
O488 O 0.55474 0.53694 0.42901 0.0
O489 O 0.53788 0.55745 0.40669 0.0
C490 C 0.53912 0.51923 0.43577 0.0
H491 H 0.59442 0.4557 0.39884 0.0
H492 H 0.44425 0.61118 0.4347 0.0
H493 H 0.45195 0.52103 0.38528 0.0
H494 H 0.4125 0.48686 0.41576 0.0
Co495 Co 0.03629 0.53033 0.91974 0.0
C496 C 0.02876 0.59621 0.91373 0.0
C497 C 0.9888 0.56907 0.90875 0.0
C498 C 0.98428 0.59972 0.90554 0.0
N499 N 0.01674 0.5671 0.91383 0.0
N500 N 0.0095 0.6167 0.90867 0.0
H501 H 0.05148 0.602 0.9171 0.0
H502 H 0.97294 0.54962 0.90747 0.0
C503 C 0.03257 0.48218 0.9019 0.0
O504 O 0.06208 0.47486 0.9036 0.0
N505 N 0.05517 0.49274 0.9258 0.0
C506 C 0.08413 0.48735 0.92984 0.0
C507 C 0.0859 0.45661 0.93321 0.0
C508 C 0.03964 0.46548 0.92709 0.0
N509 N 0.05789 0.44281 0.93143 0.0
C510 C 0.09915 0.5533 0.91842 0.0
C511 C 0.10561 0.54954 0.89589 0.0
C512 C 0.13186 0.55704 0.9023 0.0
C513 C 0.12803 0.56019 0.91366 0.0
C514 C 0.07708 0.5427 0.90103 0.0
N515 N 0.07489 0.54215 0.91223 0.0
H516 H 0.09673 0.55594 0.92719 0.0
H517 H 0.05697 0.53751 0.89597 0.0
H518 H 0.10298 0.50401 0.93043 0.0
H519 H 0.01533 0.4625 0.9248 0.0
O520 O 0.04299 0.55171 0.93351 0.0
O521 O 0.00083 0.52376 0.92928 0.0
O522 O 0.02 0.50514 0.907 0.0
C523 C 0.016 0.54033 0.9365 0.0
H524 H 0.96388 0.60877 0.90132 0.0
H525 H 0.10653 0.44531 0.93651 0.0
H526 H 0.10741 0.5476 0.88703 0.0
H527 H 0.14746 0.56706 0.91887 0.0
C528 C 0.02268 0.3915 0.07389 0.0
C529 C -0.00112 0.40703 0.07975 0.0
C530 C 0.03036 0.36057 0.07632 0.0
C531 C -0.00126 0.28831 0.08722 0.0
H532 H 0.08627 0.26422 0.0892 0.0
C533 C 0.03356 0.15903 0.09053 0.0
C534 C 0.05754 0.14971 0.08333 0.0
C535 C 0.02829 0.19072 0.09263 0.0
C536 C 0.06174 0.27055 0.08864 0.0
H537 H 0.96413 0.40179 0.09267 0.0
H538 H 0.97705 0.34717 0.09668 0.0
H539 H 0.07233 0.31955 0.08778 0.0
H540 H 0.09571 0.16594 0.07308 0.0
H541 H 0.08624 0.22136 0.07652 0.0
H542 H 0.98805 0.23943 0.08751 0.0
C543 C 0.98986 0.35933 0.09027 0.0
C544 C 0.05379 0.30218 0.08786 0.0
C545 C 0.98236 0.39051 0.08792 0.0
C546 C 0.07722 0.17253 0.07872 0.0
C547 C 0.0718 0.20427 0.08073 0.0
C548 C 0.00669 0.25665 0.0879 0.0
C549 C 0.01419 0.34426 0.08457 0.0
C550 C 0.02227 0.31125 0.08687 0.0
C551 C 0.04676 0.21375 0.0875 0.0
C552 C 0.03832 0.24738 0.08835 0.0
H553 H 0.0354 0.40316 0.06738 0.0
H554 H 0.04871 0.34923 0.07162 0.0
H555 H 0.97429 0.29471 0.08639 0.0
H556 H 0.01846 0.14178 0.09436 0.0
H557 H 0.00926 0.19721 0.09807 0.0
C558 C 0.14102 0.77911 0.3288 0.0
C559 C 0.15643 0.80803 0.32996 0.0
C560 C 0.10997 0.77566 0.33209 0.0
C561 C 0.03852 0.82097 0.33562 0.0
H562 H 0.00729 0.74173 0.34685 0.0
C563 C 0.91282 0.75407 0.34434 0.0
C564 C 0.89816 0.76189 0.33437 0.0
C565 C 0.94413 0.76228 0.34619 0.0
C566 C 0.01562 0.76422 0.34391 0.0
H567 H 0.15158 0.85583 0.33573 0.0
H568 H 0.09688 0.84988 0.34144 0.0
H569 H 0.06361 0.75167 0.34648 0.0
H570 H 0.90507 0.78336 0.3184 0.0
H571 H 0.9594 0.79746 0.32157 0.0
H572 H 0.9906 0.83329 0.33287 0.0
C573 C 0.10895 0.82994 0.33792 0.0
C574 C 0.04785 0.76979 0.34359 0.0
C575 C 0.14016 0.83341 0.3346 0.0
C576 C 0.91549 0.77762 0.32625 0.0
C577 C 0.9466 0.78582 0.32809 0.0
C578 C 0.00632 0.81544 0.33597 0.0
C579 C 0.09351 0.80105 0.33662 0.0
C580 C 0.05964 0.79772 0.33904 0.0
C581 C 0.96121 0.77847 0.3381 0.0
C582 C 0.99464 0.78652 0.3397 0.0
H583 H 0.15268 0.75927 0.32507 0.0
H584 H 0.09854 0.75332 0.33072 0.0
H585 H 0.04684 0.84269 0.33205 0.0
H586 H 0.89994 0.74224 0.35079 0.0
H587 H 0.95485 0.75633 0.35398 0.0
C588 C 0.53965 0.88996 0.58032 0.0
C589 C 0.51145 0.90458 0.58338 0.0
C590 C 0.5458 0.85917 0.5834 0.0
C591 C 0.50616 0.78627 0.59005 0.0
H592 H 0.59052 0.75922 0.59725 0.0
C593 C 0.53742 0.65584 0.59155 0.0
C594 C 0.56372 0.64801 0.58514 0.0
C595 C 0.53171 0.68691 0.59449 0.0
C596 C 0.56684 0.76644 0.59528 0.0
H597 H 0.4678 0.89838 0.59225 0.0
H598 H 0.47839 0.84405 0.59753 0.0
H599 H 0.57834 0.81511 0.59665 0.0
H600 H 0.60555 0.6663 0.57733 0.0
H601 H 0.59556 0.72062 0.58239 0.0
H602 H 0.49492 0.73776 0.58822 0.0
C603 C 0.49568 0.85666 0.59272 0.0
C604 C 0.55986 0.79837 0.59495 0.0
C605 C 0.48955 0.88765 0.58966 0.0
C606 C 0.58519 0.67161 0.5823 0.0
C607 C 0.57947 0.70271 0.58523 0.0
C608 C 0.51313 0.75434 0.59039 0.0
C609 C 0.52386 0.84212 0.58959 0.0
C610 C 0.52973 0.8086 0.59195 0.0
C611 C 0.55223 0.71077 0.59111 0.0
C612 C 0.54379 0.74415 0.59266 0.0
H613 H 0.55676 0.90195 0.57528 0.0
H614 H 0.56736 0.84838 0.58062 0.0
H615 H 0.48281 0.79344 0.58763 0.0
H616 H 0.52088 0.63801 0.5941 0.0
H617 H 0.51082 0.69236 0.59918 0.0
C618 C 0.41484 0.2557 0.8381 0.0
C619 C 0.39756 0.27484 0.83091 0.0
C620 C 0.44697 0.26044 0.83952 0.0
C621 C 0.51027 0.31838 0.83577 0.0
H622 H 0.56366 0.2451 0.83361 0.0
C623 C 0.64601 0.28596 0.82533 0.0
C624 C 0.66266 0.3047 0.83283 0.0
C625 C 0.61353 0.28331 0.82602 0.0
C626 C 0.54902 0.26576 0.83424 0.0
H627 H 0.40071 0.31404 0.81959 0.0
H628 H 0.45665 0.32237 0.82212 0.0
H629 H 0.50687 0.23875 0.83333 0.0
H630 H 0.65799 0.33596 0.8468 0.0
H631 H 0.60086 0.3317 0.84787 0.0
H632 H 0.55263 0.3454 0.83642 0.0
C633 C 0.4452 0.30395 0.82676 0.0
C634 C 0.51654 0.26211 0.83419 0.0
C635 C 0.41311 0.29912 0.8253 0.0
C636 C 0.64588 0.32151 0.84085 0.0
C637 C 0.61322 0.31901 0.84149 0.0
C638 C 0.54283 0.32201 0.83591 0.0
C639 C 0.46248 0.28451 0.83381 0.0
C640 C 0.49685 0.2884 0.83478 0.0
C641 C 0.59685 0.29952 0.83416 0.0
C642 C 0.56246 0.29576 0.83494 0.0
H643 H 0.40356 0.23718 0.84272 0.0
H644 H 0.45969 0.24531 0.8451 0.0
H645 H 0.49558 0.33901 0.83634 0.0
H646 H 0.65799 0.27334 0.81887 0.0
H647 H 0.60141 0.26868 0.82011 0.0
C648 C 0.03636 0.66595 0.91368 0.0
C649 C 0.01514 0.64963 0.90693 0.0
C650 C 0.04212 0.69774 0.91201 0.0
C651 C 0.0059 0.76842 0.90127 0.0
H652 H 0.08985 0.80261 0.90412 0.0
C653 C 0.07249 0.89628 0.90048 0.0
C654 C 0.05284 0.91251 0.90782 0.0
C655 C 0.06846 0.86414 0.89872 0.0
C656 C 0.06634 0.79339 0.90315 0.0
H657 H 0.98368 0.65408 0.89301 0.0
H658 H 0.99333 0.70994 0.89025 0.0
H659 H 0.08227 0.74584 0.90376 0.0
H660 H 0.01411 0.90728 0.91928 0.0
H661 H 0.00694 0.85164 0.9161 0.0
H662 H 0.9899 0.81593 0.90092 0.0
C663 C 0.00544 0.69791 0.89683 0.0
C664 C 0.06198 0.76096 0.90304 0.0
C665 C -0.00019 0.66597 0.89846 0.0
C666 C 0.02923 0.89582 0.91339 0.0
C667 C 0.02508 0.86386 0.91157 0.0
C668 C 0.01024 0.80082 0.90145 0.0
C669 C 0.02667 0.71406 0.9036 0.0
C670 C 0.03166 0.74819 0.90234 0.0
C671 C 0.04457 0.84772 0.90421 0.0
C672 C 0.04043 0.81359 0.90265 0.0
H673 H 0.04815 0.6544 0.92042 0.0
H674 H 0.0581 0.70975 0.9175 0.0
H675 H 0.98226 0.75922 0.90077 0.0
H676 H 0.09065 0.90844 0.89596 0.0
H677 H 0.08375 0.85221 0.89297 0.0
C678 C 0.42014 0.8167 0.14769 0.0
C679 C 0.40342 0.79524 0.15423 0.0
C680 C 0.45219 0.81255 0.14576 0.0
C681 C 0.51612 0.754 0.14743 0.0
H682 H 0.56901 0.82603 0.15332 0.0
C683 C 0.64712 0.7798 0.16439 0.0
C684 C 0.66522 0.75952 0.15788 0.0
C685 C 0.6158 0.78552 0.16183 0.0
C686 C 0.55452 0.80574 0.15161 0.0
H687 H 0.4075 0.75243 0.16379 0.0
H688 H 0.46292 0.74518 0.16037 0.0
H689 H 0.51228 0.83261 0.1524 0.0
H690 H 0.66468 0.72984 0.1434 0.0
H691 H 0.60971 0.73957 0.139 0.0
H692 H 0.55825 0.72686 0.14718 0.0
C693 C 0.45121 0.76495 0.15658 0.0
C694 C 0.52209 0.80956 0.15096 0.0
C695 C 0.41932 0.76915 0.15855 0.0
C696 C 0.65127 0.74519 0.14869 0.0
C697 C 0.61985 0.75086 0.14614 0.0
C698 C 0.54856 0.75018 0.14806 0.0
C699 C 0.46808 0.78677 0.15028 0.0
C700 C 0.50251 0.78357 0.14919 0.0
C701 C 0.60179 0.77105 0.1527 0.0
C702 C 0.568 0.77586 0.15047 0.0
H703 H 0.40853 0.83677 0.1441 0.0
H704 H 0.46459 0.82961 0.14079 0.0
H705 H 0.50158 0.73362 0.14591 0.0
H706 H 0.65691 0.79082 0.17163 0.0
H707 H 0.60231 0.80067 0.16719 0.0
C708 C 0.53761 0.16573 0.41094 0.0
C709 C 0.50911 0.15041 0.4088 0.0
C710 C 0.5413 0.19739 0.40848 0.0
C711 C 0.49561 0.26906 0.4051 0.0
H712 H 0.5758 0.30288 0.39576 0.0
C713 C 0.55801 0.39705 0.39677 0.0
C714 C 0.5472 0.41239 0.40626 0.0
C715 C 0.55222 0.36506 0.39526 0.0
C716 C 0.55312 0.29381 0.3982 0.0
H717 H 0.4624 0.156 0.4021 0.0
H718 H 0.46879 0.21161 0.39778 0.0
H719 H 0.56749 0.24629 0.39575 0.0
H720 H 0.52306 0.40608 0.42179 0.0
H721 H 0.51318 0.35054 0.41922 0.0
H722 H 0.48129 0.3165 0.40762 0.0
C723 C 0.48817 0.1991 0.40149 0.0
C724 C 0.54846 0.26142 0.39831 0.0
C725 C 0.48445 0.16734 0.40399 0.0
C726 C 0.53107 0.39508 0.41428 0.0
C727 C 0.52532 0.36326 0.41279 0.0
C728 C 0.50024 0.3014 0.40496 0.0
C729 C 0.51658 0.21449 0.40378 0.0
C730 C 0.51997 0.2487 0.40207 0.0
C731 C 0.53554 0.34796 0.40322 0.0
C732 C 0.52935 0.31405 0.40184 0.0
H733 H 0.55687 0.15348 0.41481 0.0
H734 H 0.56323 0.20869 0.41059 0.0
H735 H 0.47345 0.26003 0.40809 0.0
H736 H 0.57026 0.4099 0.39041 0.0
H737 H 0.56031 0.35385 0.38779 0.0
C738 C 0.9164 0.27636 0.66213 0.0
C739 C 0.90154 0.30498 0.6598 0.0
C740 C 0.94679 0.27063 0.6585 0.0
C741 C 0.01903 0.31099 0.65152 0.0
H742 H 0.04481 0.22757 0.64259 0.0
C743 C 0.149 0.27909 0.64829 0.0
C744 C 0.15695 0.25217 0.65435 0.0
C745 C 0.11783 0.28529 0.64562 0.0
C746 C 0.03794 0.251 0.64502 0.0
H747 H 0.90688 0.34988 0.65166 0.0
H748 H 0.96055 0.34 0.64543 0.0
H749 H 0.98908 0.23994 0.64406 0.0
H750 H 0.13871 0.20976 0.66177 0.0
H751 H 0.08425 0.22057 0.65716 0.0
H752 H 0.06778 0.3217 0.65294 0.0
C753 C 0.94844 0.32205 0.65009 0.0
C754 C 0.0061 0.25809 0.64586 0.0
C755 C 0.91783 0.32777 0.6537 0.0
C756 C 0.13334 0.23059 0.65707 0.0
C757 C 0.10214 0.23678 0.65439 0.0
C758 C 0.05086 0.30392 0.65066 0.0
C759 C 0.9632 0.29341 0.65248 0.0
C760 C 0.99638 0.2878 0.64952 0.0
C761 C 0.09399 0.26463 0.64892 0.0
C762 C 0.06062 0.27353 0.64778 0.0
H763 H 0.90487 0.25855 0.667 0.0
H764 H 0.9578 0.24867 0.66073 0.0
H765 H 0.01227 0.334 0.65443 0.0
H766 H 0.16682 0.29575 0.64583 0.0
H767 H 0.11227 0.30667 0.64123 0.0
C768 C 0.01344 0.06014 0.03449 0.0
C769 C 0.03499 0.04333 0.0409 0.0
C770 C 0.01528 0.05928 0.02303 0.0
C771 C 0.01065 0.0344 -0.00017 0.0
H772 H 0.08985 0.03207 0.98419 0.0
C773 C 0.01586 0.00325 0.95397 0.0
C774 C 0.03554 0.02184 0.94741 0.0
C775 C 0.01776 0.00485 0.96542 0.0
C776 C 0.06753 0.03288 0.98842 0.0
H777 H 0.07598 0.01328 0.04038 0.0
H778 H 0.07885 0.01131 0.02045 0.0
H779 H 0.08951 0.04035 0.004 0.0
H780 H 0.07334 0.05589 0.94763 0.0
H781 H 0.0763 0.05908 0.96756 0.0
H782 H 0.9886 0.02784 0.98424 0.0
C783 C 0.0608 0.02555 0.02422 0.0
C784 C 0.06735 0.03734 -0.00021 0.0
C785 C 0.05907 0.02657 0.03566 0.0
C786 C 0.05795 0.04116 0.95248 0.0
C787 C 0.05971 0.04292 0.96391 0.0
C788 C 0.01083 0.0301 0.98847 0.0
C789 C 0.0386 0.04143 0.01777 0.0
C790 C 0.0389 0.03806 0.00563 0.0
C791 C 0.03923 0.02524 0.97051 0.0
C792 C 0.03926 0.02917 0.98263 0.0
H793 H 0.99472 0.07338 0.03831 0.0
H794 H -0.00184 0.07225 0.01829 0.0
H795 H 0.98834 0.03436 0.00408 0.0
H796 H -0.00153 0.98802 0.95028 0.0
H797 H 0.00208 0.99044 0.97027 0.0
C798 C 0.28593 0.81666 0.28571 0.0
C799 C 0.27868 0.78739 0.29035 0.0
C800 C 0.2914 0.81934 0.27443 0.0
C801 C 0.32097 0.77594 0.25127 0.0
H802 H 0.27137 0.8307 0.23276 0.0
C803 C 0.3164 0.76171 0.20447 0.0
C804 C 0.30936 0.78767 0.19785 0.0
C805 C 0.31741 0.76473 0.21587 0.0
C806 C 0.28604 0.81585 0.23781 0.0
H807 H 0.27124 0.73807 0.28693 0.0
H808 H 0.28152 0.74271 0.26721 0.0
H809 H 0.2626 0.83031 0.25256 0.0
H810 H 0.3002 0.83761 0.19783 0.0
H811 H 0.30337 0.84328 0.21774 0.0
H812 H 0.34488 0.76172 0.23668 0.0
C813 C 0.28268 0.76351 0.27231 0.0
C814 C 0.28076 0.81549 0.24913 0.0
C815 C 0.27656 0.76094 0.28353 0.0
C816 C 0.30542 0.81715 0.20277 0.0
C817 C 0.30694 0.8203 0.21418 0.0
C818 C 0.32671 0.77671 0.23998 0.0
C819 C 0.29038 0.79267 0.2677 0.0
C820 C 0.29769 0.79501 0.25589 0.0
C821 C 0.3119 0.79392 0.2209 0.0
C822 C 0.30878 0.7961 0.23306 0.0
H823 H 0.28771 0.83739 0.29081 0.0
H824 H 0.29729 0.84205 0.27101 0.0
H825 H 0.3346 0.76029 0.25639 0.0
H826 H 0.31934 0.73863 0.2009 0.0
H827 H 0.32085 0.74375 0.22073 0.0
C828 C 0.54159 0.98892 0.53408 0.0
C829 C 0.52026 0.00728 0.54005 0.0
C830 C 0.54031 0.98813 0.52262 0.0
C831 C 0.54806 0.01059 0.49931 0.0
H832 H 0.47089 0.01621 0.48262 0.0
C833 C 0.54866 0.0447 0.45367 0.0
C834 C 0.52818 0.02841 0.44669 0.0
C835 C 0.54615 0.04145 0.46505 0.0
C836 C 0.49266 0.01436 0.48714 0.0
H837 H 0.48004 0.03812 0.5388 0.0
H838 H 0.47825 0.03739 0.51882 0.0
H839 H 0.46861 0.00821 0.50243 0.0
H840 H 0.48876 0.99629 0.44608 0.0
H841 H 0.4848 0.99008 0.46592 0.0
H842 H 0.57215 0.01591 0.48404 0.0
C843 C 0.49564 0.02314 0.52294 0.0
C844 C 0.49134 0.01009 0.49852 0.0
C845 C 0.49674 0.02367 0.5344 0.0
C846 C 0.50478 0.00928 0.45128 0.0
C847 C 0.50243 0.00582 0.46265 0.0
C848 C 0.54938 0.01462 0.48795 0.0
C849 C 0.51789 0.00596 0.51691 0.0
C850 C 0.51904 0.0084 0.50474 0.0
C851 C 0.52329 0.02161 0.46967 0.0
C852 C 0.52171 0.01686 0.48174 0.0
H853 H 0.55981 0.97582 0.53823 0.0
H854 H 0.55735 0.97408 0.51823 0.0
H855 H 0.56987 0.00987 0.50386 0.0
H856 H 0.56681 0.05974 0.45035 0.0
H857 H 0.56219 0.05444 0.47024 0.0
C858 C 0.25322 0.29816 0.70553 0.0
C859 C 0.25826 0.27097 0.69927 0.0
C860 C 0.25522 0.29707 0.71696 0.0
C861 C 0.24817 0.25095 0.74132 0.0
H862 H 0.31605 0.30154 0.75298 0.0
C863 C 0.27552 0.25383 0.78779 0.0
C864 C 0.28376 0.28309 0.79221 0.0
C865 C 0.27412 0.24958 0.77641 0.0
C866 C 0.29673 0.2876 0.74991 0.0
H867 H 0.26743 0.22103 0.70002 0.0
H868 H 0.26986 0.21904 0.72016 0.0
H869 H 0.30699 0.29991 0.73323 0.0
H870 H 0.29723 0.33077 0.78825 0.0
H871 H 0.29369 0.32386 0.76852 0.0
H872 H 0.23674 0.23977 0.75797 0.0
C873 C 0.26484 0.24113 0.71614 0.0
C874 C 0.29172 0.28657 0.7386 0.0
C875 C 0.26348 0.24232 0.70467 0.0
C876 C 0.29112 0.30785 0.78507 0.0
C877 C 0.28924 0.30378 0.77373 0.0
C878 C 0.25275 0.25246 0.75268 0.0
C879 C 0.26163 0.26869 0.72232 0.0
C880 C 0.26726 0.2685 0.73425 0.0
C881 C 0.28048 0.27467 0.76923 0.0
C882 C 0.2769 0.27111 0.75713 0.0
H883 H 0.24933 0.32059 0.70159 0.0
H884 H 0.25256 0.31854 0.72163 0.0
H885 H 0.22915 0.23689 0.73807 0.0
H886 H 0.26984 0.2343 0.79312 0.0
H887 H 0.26785 0.2267 0.77325 0.0
C888 C 0.79408 0.31828 0.79129 0.0
C889 C 0.77278 0.29588 0.79528 0.0
C890 C 0.79572 0.32476 0.78006 0.0
C891 C 0.81001 0.31106 0.75599 0.0
H892 H 0.73691 0.31868 0.73725 0.0
C893 C 0.8094 0.28093 0.70987 0.0
C894 C 0.79222 0.30042 0.70281 0.0
C895 C 0.80885 0.28603 0.7212 0.0
C896 C 0.75757 0.317 0.74239 0.0
H897 H 0.73538 0.26389 0.7908 0.0
H898 H 0.73807 0.27541 0.77118 0.0
H899 H 0.73044 0.31839 0.7572 0.0
H900 H 0.76195 0.34121 0.70197 0.0
H901 H 0.76084 0.34993 0.72178 0.0
H902 H 0.83705 0.30876 0.74118 0.0
C903 C 0.75349 0.28794 0.77673 0.0
C904 C 0.75382 0.3166 0.75378 0.0
C905 C 0.75206 0.28123 0.78794 0.0
C906 C 0.77538 0.32576 0.70722 0.0
C907 C 0.77461 0.33069 0.71855 0.0
C908 C 0.81373 0.31118 0.7446 0.0
C909 C 0.77585 0.3092 0.77266 0.0
C910 C 0.77996 0.31313 0.76068 0.0
C911 C 0.79091 0.31056 0.72566 0.0
C912 C 0.78749 0.31365 0.7377 0.0
H913 H 0.81036 0.32993 0.79677 0.0
H914 H 0.81297 0.34145 0.77713 0.0
H915 H 0.83054 0.30807 0.76113 0.0
H916 H 0.82261 0.26125 0.70669 0.0
H917 H 0.82141 0.26999 0.72651 0.0
C918 C 0.75043 0.76387 0.20879 0.0
C919 C 0.76888 0.74793 0.20105 0.0
C920 C 0.75151 0.75543 0.21987 0.0
C921 C 0.75062 0.72535 0.24258 0.0
H922 H 0.83562 0.72278 0.2539 0.0
C923 C 0.77488 0.72033 0.28892 0.0
C924 C 0.79439 0.74487 0.29248 0.0
C925 C 0.77333 0.7125 0.27779 0.0
C926 C 0.81177 0.72313 0.25084 0.0
H927 H 0.80156 0.70954 0.19869 0.0
H928 H 0.80355 0.69497 0.21807 0.0
H929 H 0.82685 0.72402 0.23408 0.0
H930 H 0.82918 0.77895 0.28736 0.0
H931 H 0.82669 0.7651 0.26794 0.0
H932 H 0.73559 0.72587 0.25935 0.0
C933 C 0.78841 0.71406 0.21557 0.0
C934 C 0.80673 0.72359 0.23951 0.0
C935 C 0.78713 0.72233 0.20448 0.0
C936 C 0.81389 0.75998 0.28484 0.0
C937 C 0.81256 0.75195 0.27373 0.0
C938 C 0.75566 0.7246 0.25391 0.0
C939 C 0.77123 0.73104 0.2234 0.0
C940 C 0.77613 0.72559 0.23528 0.0
C941 C 0.79153 0.72884 0.27006 0.0
C942 C 0.78631 0.72437 0.25814 0.0
H943 H 0.73612 0.78367 0.20637 0.0
H944 H 0.73821 0.7691 0.22574 0.0
H945 H 0.72681 0.72668 0.23952 0.0
H946 H 0.75958 0.70825 0.29463 0.0
H947 H 0.75715 0.6944 0.27518 0.0
C948 C 0.53151 0.49605 0.45436 0.0
C949 C 0.54798 0.51654 0.44742 0.0
C950 C 0.53561 0.49758 0.46572 0.0
C951 C 0.52807 0.52494 0.4883 0.0
H952 H 0.60627 0.54162 0.50346 0.0
C953 C 0.52824 0.56019 0.53362 0.0
C954 C 0.54963 0.54413 0.54033 0.0
C955 C 0.53111 0.55899 0.52221 0.0
C956 C 0.58427 0.53687 0.49933 0.0
H957 H 0.58309 0.5533 0.44681 0.0
H958 H 0.58989 0.55631 0.46667 0.0
H959 H 0.60672 0.53117 0.4837 0.0
H960 H 0.59175 0.51564 0.5404 0.0
H961 H 0.59647 0.51317 0.52048 0.0
H962 H 0.50562 0.5299 0.50388 0.0
C963 C 0.57406 0.53885 0.46335 0.0
C964 C 0.58452 0.53108 0.48802 0.0
C965 C 0.57012 0.53717 0.45197 0.0
C966 C 0.57487 0.52823 0.53543 0.0
C967 C 0.57767 0.52693 0.52401 0.0
C968 C 0.52783 0.53069 0.49957 0.0
C969 C 0.55603 0.51981 0.47036 0.0
C970 C 0.55639 0.52495 0.4824 0.0
C971 C 0.55533 0.54159 0.51728 0.0
C972 C 0.55589 0.53676 0.50522 0.0
H973 H 0.51451 0.4797 0.45106 0.0
H974 H 0.52194 0.48206 0.47089 0.0
H975 H 0.50591 0.52089 0.48419 0.0
H976 H 0.50869 0.57283 0.53717 0.0
H977 H 0.5139 0.57107 0.51722 0.0
C978 C 0.98094 0.52313 0.95176 0.0
C979 C 0.005 0.54283 0.94793 0.0
C980 C 0.97396 0.52171 0.96296 0.0
C981 C 0.98487 0.56149 0.98955 0.0
H982 H 0.98881 0.47724 0.0015 0.0
C983 C 0.97691 0.53775 0.03598 0.0
C984 C 0.00163 0.51947 0.04012 0.0
C985 C 0.97142 0.53936 0.0247 0.0
C986 C 0.98747 0.50086 -0.00174 0.0
H987 H 0.03924 0.57791 0.95266 0.0
H988 H 0.02681 0.57566 0.97221 0.0
H989 H 0.98889 0.48491 0.9816 0.0
H990 H 0.03905 0.48741 0.03578 0.0
H991 H 0.0293 0.49007 0.01602 0.0
H992 H 0.98451 0.57749 0.00621 0.0
C993 C 0.01341 0.56129 0.96657 0.0
C994 C 0.98722 0.50524 0.9869 0.0
C995 C 0.02062 0.56247 0.95539 0.0
C996 C 0.01987 0.50172 0.03281 0.0
C997 C 0.01419 0.50312 0.02152 0.0
C998 C 0.9848 0.55709 0.00091 0.0
C999 C 0.99066 0.54023 0.97049 0.0
C1000 C 0.98661 0.53563 0.98244 0.0
C1001 C 0.99035 0.52249 0.01736 0.0
C1002 C 0.98679 0.52677 0.00537 0.0
H1003 H 0.96851 0.50771 0.94619 0.0
H1004 H 0.95613 0.50549 0.96578 0.0
H1005 H 0.98426 0.58514 0.98631 0.0
H1006 H 0.96241 0.55165 0.04143 0.0
H1007 H 0.95272 0.55423 0.0217 0.0
C1008 C 0.23964 0.82481 0.131 0.0
C1009 C 0.24056 0.82395 0.14254 0.0
C1010 C 0.21902 0.84506 0.12559 0.0
C1011 C 0.17732 0.91885 0.12886 0.0
H1012 H 0.12218 0.88761 0.10603 0.0
C1013 C 0.08319 -0.00235 0.1089 0.0
C1014 C 0.07747 0.99355 0.09763 0.0
C1015 C 0.10226 0.97653 0.11459 0.0
C1016 C 0.13773 0.89688 0.11227 0.0
H1017 H 0.22079 0.84372 0.15745 0.0
H1018 H 0.18529 0.87943 0.14797 0.0
H1019 H 0.1579 0.8517 0.11529 0.0
H1020 H 0.08758 0.96441 0.08345 0.0
H1021 H 0.12162 0.92845 0.09323 0.0
H1022 H 0.15809 0.96417 0.12567 0.0
C1023 C 0.20038 0.86434 0.14314 0.0
C1024 C 0.15807 0.87623 0.11759 0.0
C1025 C 0.22058 0.84378 0.14855 0.0
C1026 C 0.09129 0.96806 0.09216 0.0
C1027 C 0.11068 0.94726 0.0978 0.0
C1028 C 0.15733 0.93962 0.12343 0.0
C1029 C 0.19939 0.86514 0.13162 0.0
C1030 C 0.178 0.88703 0.12593 0.0
C1031 C 0.11638 0.95112 0.1091 0.0
C1032 C 0.13726 0.92892 0.11505 0.0
H1033 H 0.2547 0.80976 0.12616 0.0
H1034 H 0.21876 0.8454 0.11669 0.0
H1035 H 0.19271 0.92777 0.13522 0.0
H1036 H 0.07269 0.01697 0.11334 0.0
H1037 H 0.10567 0.97999 0.12333 0.0
C1038 C 0.3377 0.82761 0.34877 0.0
C1039 C 0.3057 0.83498 0.34786 0.0
C1040 C 0.358 0.84747 0.35446 0.0
C1041 C 0.37214 0.92794 0.36035 0.0
H1042 H 0.42224 0.8999 0.38502 0.0
C1043 C 0.45214 0.0128 0.38459 0.0
C1044 C 0.47933 0.00068 0.38946 0.0
C1045 C 0.43072 0.99279 0.37944 0.0
C1046 C 0.40894 0.90804 0.37801 0.0
H1047 H 0.26974 0.86863 0.35222 0.0
H1048 H 0.3057 0.90401 0.36193 0.0
H1049 H 0.38498 0.86402 0.37651 0.0
H1050 H 0.50643 0.95855 0.39233 0.0
H1051 H 0.47024 0.9239 0.3828 0.0
H1052 H 0.3969 0.97137 0.36138 0.0
C1053 C 0.31477 0.8826 0.35835 0.0
C1054 C 0.38738 0.88752 0.37323 0.0
C1055 C 0.29427 0.86233 0.35288 0.0
C1056 C 0.48546 0.96845 0.38871 0.0
C1057 C 0.46446 0.94855 0.38335 0.0
C1058 C 0.39421 0.94829 0.36495 0.0
C1059 C 0.34678 0.87536 0.35912 0.0
C1060 C 0.3688 0.89736 0.3644 0.0
C1061 C 0.43641 0.9603 0.37886 0.0
C1062 C 0.41295 0.93864 0.37386 0.0
H1063 H 0.34709 0.80663 0.34498 0.0
H1064 H 0.38267 0.84155 0.35494 0.0
H1065 H 0.35823 0.93582 0.35343 0.0
H1066 H 0.44672 0.03755 0.38517 0.0
H1067 H 0.40926 0.00277 0.37625 0.0
C1068 C 0.46109 0.08429 0.59102 0.0
C1069 C 0.47858 0.06148 0.59664 0.0
C1070 C 0.44086 0.10417 0.59671 0.0
C1071 C 0.3995 0.1129 0.62344 0.0
H1072 H 0.38924 0.19864 0.61345 0.0
C1073 C 0.33579 0.20859 0.6485 0.0
C1074 C 0.31274 0.22568 0.64282 0.0
C1075 C 0.35584 0.1884 0.64286 0.0
C1076 C 0.39176 0.17468 0.61627 0.0
H1077 H 0.48893 0.04184 0.61265 0.0
H1078 H 0.45445 0.07734 0.62269 0.0
H1079 H 0.42554 0.16402 0.60387 0.0
H1080 H 0.2929 0.23534 0.62677 0.0
H1081 H 0.32856 0.20038 0.61686 0.0
H1082 H 0.36631 0.12417 0.63606 0.0
C1083 C 0.45565 0.07932 0.61383 0.0
C1084 C 0.41244 0.15476 0.61077 0.0
C1085 C 0.47558 0.05907 0.6081 0.0
C1086 C 0.31036 0.22241 0.63136 0.0
C1087 C 0.33081 0.20255 0.62569 0.0
C1088 C 0.37919 0.133 0.62903 0.0
C1089 C 0.43796 0.10209 0.6082 0.0
C1090 C 0.41646 0.12352 0.61424 0.0
C1091 C 0.35358 0.18526 0.63141 0.0
C1092 C 0.37505 0.164 0.62546 0.0
H1093 H 0.46266 0.08653 0.58217 0.0
H1094 H 0.42717 0.12088 0.59205 0.0
H1095 H 0.40149 0.08889 0.62623 0.0
H1096 H 0.33817 0.21057 0.65734 0.0
H1097 H 0.37338 0.17549 0.64743 0.0
C1098 C 0.04041 0.1274 0.88915 0.0
C1099 C 0.05096 0.09823 0.89302 0.0
C1100 C 0.06084 0.14753 0.8836 0.0
C1101 C 0.13335 0.15044 0.8676 0.0
H1102 H 0.13736 0.23684 0.87741 0.0
C1103 C 0.22439 0.23683 0.84985 0.0
C1104 C 0.21427 0.26764 0.84788 0.0
C1105 C 0.20563 0.21603 0.85583 0.0
C1106 C 0.13629 0.21292 0.87446 0.0
H1107 H 0.09089 0.06685 0.89383 0.0
H1108 H 0.12645 0.10192 0.88394 0.0
H1109 H 0.10143 0.20046 0.88636 0.0
H1110 H 0.17665 0.30088 0.85068 0.0
H1111 H 0.14366 0.26453 0.86081 0.0
H1112 H 0.1675 0.16291 0.8555 0.0
C1113 C 0.10242 0.1092 0.88527 0.0
C1114 C 0.11574 0.19209 0.87961 0.0
C1115 C 0.0821 0.08921 0.89095 0.0
C1116 C 0.18528 0.27738 0.85216 0.0
C1117 C 0.16638 0.25651 0.85802 0.0
C1118 C 0.15364 0.17137 0.86234 0.0
C1119 C 0.09209 0.13874 0.8817 0.0
C1120 C 0.11402 0.16068 0.87622 0.0
C1121 C 0.17618 0.22547 0.85986 0.0
C1122 C 0.15533 0.20292 0.86569 0.0
H1123 H 0.01659 0.13508 0.89065 0.0
H1124 H 0.05222 0.17006 0.88083 0.0
H1125 H 0.13228 0.12639 0.86477 0.0
H1126 H 0.2467 0.22868 0.8467 0.0
H1127 H 0.21422 0.19251 0.85727 0.0
C1128 C 0.88417 0.98241 0.88844 0.0
C1129 C 0.91142 -0.00043 0.88578 0.0
C1130 C 0.85656 0.9864 0.88236 0.0
C1131 C 0.82534 0.02278 0.85681 0.0
H1132 H 0.75813 0.05264 0.87551 0.0
C1133 C 0.74795 0.11651 0.83988 0.0
C1134 C 0.74576 0.14257 0.84697 0.0
C1135 C 0.75447 0.0867 0.84399 0.0
C1136 C 0.77654 0.04429 0.87013 0.0
H1137 H 0.93101 0.03311 0.8742 0.0
H1138 H 0.88385 0.03921 0.86361 0.0
H1139 H 0.80004 0.02106 0.88336 0.0
H1140 H 0.7434 0.1559 0.86419 0.0
H1141 H 0.75797 0.10514 0.87121 0.0
H1142 H 0.80445 0.04859 0.84386 0.0
C1143 C 0.88366 0.02253 0.87032 0.0
C1144 C 0.80034 0.02571 0.87462 0.0
C1145 C 0.91094 0.01893 0.87644 0.0
C1146 C 0.74659 0.13702 0.85837 0.0
C1147 C 0.75424 0.10739 0.86245 0.0
C1148 C 0.80194 0.04166 0.85237 0.0
C1149 C 0.85589 0.00713 0.8734 0.0
C1150 C 0.82603 0.0166 0.86813 0.0
C1151 C 0.76025 0.08226 0.85525 0.0
C1152 C 0.77832 0.05442 0.85913 0.0
H1153 H 0.88377 0.96673 0.89542 0.0
H1154 H 0.83553 0.97407 0.88487 0.0
H1155 H 0.84451 0.01542 0.85156 0.0
H1156 H 0.74721 0.11912 0.83104 0.0
H1157 H 0.75745 0.06767 0.8382 0.0
C1158 C 0.683 0.01705 0.59183 0.0
C1159 C 0.65466 0.01524 0.5977 0.0
C1160 C 0.71109 0.02312 0.59734 0.0
C1161 C 0.74834 0.03106 0.62477 0.0
H1162 H 0.77849 0.11004 0.61313 0.0
C1163 C 0.78591 0.13156 0.65209 0.0
C1164 C 0.80307 0.15659 0.64771 0.0
C1165 C 0.78029 0.10487 0.64576 0.0
C1166 C 0.77146 0.08755 0.61642 0.0
H1167 H 0.63373 0.01546 0.61392 0.0
H1168 H 0.68277 0.02609 0.62354 0.0
H1169 H 0.74461 0.07764 0.60204 0.0
H1170 H 0.83042 0.17276 0.63387 0.0
H1171 H 0.82218 0.12535 0.62294 0.0
H1172 H 0.77438 0.04155 0.63933 0.0
C1173 C 0.68337 0.02277 0.61472 0.0
C1174 C 0.75181 0.06893 0.61002 0.0
C1175 C 0.65525 0.01705 0.60921 0.0
C1176 C 0.81705 0.15356 0.63735 0.0
C1177 C 0.81202 0.12656 0.63109 0.0
C1178 C 0.76849 0.04947 0.63113 0.0
C1179 C 0.71133 0.02714 0.60879 0.0
C1180 C 0.73873 0.04138 0.61434 0.0
C1181 C 0.79203 0.10266 0.63496 0.0
C1182 C 0.77881 0.07886 0.62728 0.0
H1183 H 0.68316 0.01586 0.58294 0.0
H1184 H 0.73234 0.02634 0.59259 0.0
H1185 H 0.73888 0.00965 0.62822 0.0
H1186 H 0.77473 0.13371 0.66005 0.0
H1187 H 0.76452 0.08733 0.64905 0.0
C1188 C 0.79541 0.93489 0.33404 0.0
C1189 C 0.80521 0.90997 0.3408 0.0
C1190 C 0.78835 0.9641 0.33854 0.0
C1191 C 0.7844 0.00999 0.36474 0.0
H1192 H 0.70008 0.02633 0.35441 0.0
C1193 C 0.68409 0.04605 0.3928 0.0
C1194 C 0.65683 0.05896 0.38823 0.0
C1195 C 0.71047 0.041 0.38624 0.0
C1196 C 0.72388 0.02315 0.35728 0.0
H1197 H 0.81934 0.89788 0.35741 0.0
H1198 H 0.80508 0.94815 0.36535 0.0
H1199 H 0.73376 0.99268 0.34391 0.0
H1200 H 0.63659 0.08014 0.37374 0.0
H1201 H 0.68323 0.07289 0.36236 0.0
H1202 H 0.77352 0.03944 0.37848 0.0
C1203 C 0.80316 0.94522 0.35654 0.0
C1204 C 0.74337 0.0036 0.3512 0.0
C1205 C 0.81079 0.91609 0.352 0.0
C1206 C 0.65736 0.06982 0.37737 0.0
C1207 C 0.68399 0.06544 0.37087 0.0
C1208 C 0.76485 0.02983 0.37083 0.0
C1209 C 0.79023 0.96896 0.34993 0.0
C1210 C 0.77335 0.99565 0.35508 0.0
C1211 C 0.71014 0.04916 0.37503 0.0
C1212 C 0.73381 0.03545 0.36742 0.0
H1213 H 0.79077 0.93141 0.32539 0.0
H1214 H 0.77917 0.98218 0.33318 0.0
H1215 H 0.80758 0.00471 0.36785 0.0
H1216 H 0.68408 0.03736 0.40117 0.0
H1217 H 0.72995 0.02822 0.38976 0.0
C1218 C 0.77101 0.93511 0.15737 0.0
C1219 C 0.75947 0.90994 0.15107 0.0
C1220 C 0.77877 0.96353 0.15241 0.0
C1221 C 0.78088 0.0068 0.12563 0.0
H1222 H 0.86648 0.02285 0.13468 0.0
C1223 C 0.87879 0.04101 0.09606 0.0
C1224 C 0.90608 0.05498 0.10019 0.0
C1225 C 0.85314 0.03583 0.10297 0.0
C1226 C 0.84234 0.01969 0.13216 0.0
H1227 H 0.74314 0.8967 0.13482 0.0
H1228 H 0.75845 0.94555 0.12606 0.0
H1229 H 0.83346 0.99035 0.14594 0.0
H1230 H 0.92744 0.07724 0.11427 0.0
H1231 H 0.88209 0.06965 0.12628 0.0
H1232 H 0.79072 0.03504 0.11147 0.0
C1233 C 0.76124 0.94343 0.13487 0.0
C1234 C 0.82325 0.00084 0.13867 0.0
C1235 C 0.75298 0.91511 0.13988 0.0
C1236 C 0.9065 0.06636 0.11098 0.0
C1237 C 0.88064 0.06175 0.11784 0.0
C1238 C 0.80005 0.02588 0.1191 0.0
C1239 C 0.77577 0.96734 0.14099 0.0
C1240 C 0.79272 0.99309 0.13529 0.0
C1241 C 0.85437 0.04478 0.1141 0.0
C1242 C 0.83147 0.03144 0.12207 0.0
H1243 H 0.77639 0.9323 0.16601 0.0
H1244 H 0.78919 0.98178 0.1574 0.0
H1245 H 0.75728 0.00167 0.12288 0.0
H1246 H 0.87825 0.03186 0.08776 0.0
H1247 H 0.83356 0.02247 0.09979 0.0
C1248 C 0.71591 0.33231 0.64738 0.0
C1249 C 0.74795 0.3306 0.64474 0.0
C1250 C 0.69573 0.35109 0.64124 0.0
C1251 C 0.69519 0.42072 0.62382 0.0
H1252 H 0.61242 0.39158 0.61541 0.0
C1253 C 0.59968 0.50388 0.60719 0.0
C1254 C 0.58382 0.49358 0.59774 0.0
C1255 C 0.61928 0.48346 0.61296 0.0
C1256 C 0.63551 0.39998 0.61767 0.0
H1257 H 0.78387 0.3468 0.63346 0.0
H1258 H 0.74846 0.37982 0.62271 0.0
H1259 H 0.64825 0.356 0.62485 0.0
H1260 H 0.57538 0.45358 0.58709 0.0
H1261 H 0.60944 0.41805 0.5972 0.0
H1262 H 0.68247 0.46469 0.61661 0.0
C1263 C 0.73911 0.36667 0.62959 0.0
C1264 C 0.65591 0.37971 0.62313 0.0
C1265 C 0.7593 0.34763 0.63569 0.0
C1266 C 0.58735 0.46229 0.59433 0.0
C1267 C 0.60672 0.44186 0.60014 0.0
C1268 C 0.6747 0.44108 0.61843 0.0
C1269 C 0.70718 0.36874 0.63237 0.0
C1270 C 0.68594 0.38989 0.62626 0.0
C1271 C 0.62314 0.45232 0.60944 0.0
C1272 C 0.64466 0.4309 0.61531 0.0
H1273 H 0.70639 0.31939 0.65429 0.0
H1274 H 0.67129 0.35244 0.64362 0.0
H1275 H 0.71809 0.42927 0.62624 0.0
H1276 H 0.59744 0.52785 0.61001 0.0
H1277 H 0.63142 0.49202 0.62018 0.0
C1278 C 0.9799 0.46155 0.89681 0.0
C1279 C 0.01247 0.4616 0.89514 0.0
C1280 C 0.96071 0.44071 0.8911 0.0
C1281 C 0.96273 0.36729 0.8745 0.0
H1282 H 0.87831 0.39354 0.86724 0.0
C1283 C 0.84922 0.32578 0.84666 0.0
C1284 C 0.85042 0.29325 0.84834 0.0
C1285 C 0.86932 0.34577 0.85236 0.0
C1286 C 0.90192 0.38582 0.86904 0.0
H1287 H 0.05049 0.44016 0.88605 0.0
H1288 H 0.01677 0.40471 0.8756 0.0
H1289 H 0.91335 0.42994 0.87621 0.0
H1290 H 0.87333 0.25612 0.85743 0.0
H1291 H 0.9075 0.29119 0.86785 0.0
H1292 H 0.95171 0.32369 0.86673 0.0
C1293 C 0.0061 0.42012 0.88159 0.0
C1294 C 0.92197 0.40664 0.8744 0.0
C1295 C 0.02544 0.44064 0.88749 0.0
C1296 C 0.87189 0.28112 0.85598 0.0
C1297 C 0.89168 0.30125 0.86186 0.0
C1298 C 0.94281 0.3466 0.86894 0.0
C1299 C 0.97344 0.41975 0.88337 0.0
C1300 C 0.95259 0.39765 0.8773 0.0
C1301 C 0.89079 0.33388 0.86008 0.0
C1302 C 0.91208 0.35557 0.86615 0.0
H1303 H 0.96921 0.47702 0.9028 0.0
H1304 H 0.93588 0.44069 0.89295 0.0
H1305 H 0.98596 0.35928 0.87671 0.0
H1306 H 0.8333 0.33585 0.84069 0.0
H1307 H 0.86837 0.37057 0.85051 0.0
C1308 C 0.96509 0.59478 0.09305 0.0
C1309 C 0.99685 0.59034 0.09563 0.0
C1310 C 0.94696 0.61607 0.09899 0.0
C1311 C 0.90871 0.64937 0.11615 0.0
H1312 H 0.94635 0.72534 0.12765 0.0
C1313 C 0.84472 0.7255 0.14771 0.0
C1314 C 0.84875 0.75818 0.14749 0.0
C1315 C 0.86249 0.70618 0.14092 0.0
C1316 C 0.93532 0.70448 0.12436 0.0
H1317 H 0.03442 0.60413 0.1066 0.0
H1318 H 0.00242 0.64026 0.11733 0.0
H1319 H 0.97781 0.68964 0.11663 0.0
H1320 H 0.87432 0.7963 0.13984 0.0
H1321 H 0.90479 0.76249 0.12762 0.0
H1322 H 0.86594 0.66475 0.12346 0.0
C1323 C 0.99171 0.6281 0.11048 0.0
C1324 C 0.95354 0.68369 0.1182 0.0
C1325 C 0.00999 0.60715 0.10441 0.0
C1326 C 0.87074 0.77118 0.1402 0.0
C1327 C 0.88833 0.75178 0.13326 0.0
C1328 C 0.89044 0.67034 0.12217 0.0
C1329 C 0.96 0.63305 0.10778 0.0
C1330 C 0.94054 0.65568 0.11411 0.0
C1331 C 0.88449 0.719 0.13358 0.0
C1332 C 0.90358 0.69794 0.1265 0.0
H1333 H 0.95442 0.58251 0.08621 0.0
H1334 H 0.92285 0.61964 0.09651 0.0
H1335 H 0.8979 0.62793 0.11327 0.0
H1336 H 0.82826 0.71463 0.15333 0.0
H1337 H 0.85937 0.68107 0.14162 0.0
C1338 C 0.71026 0.72607 0.34363 0.0
C1339 C 0.70985 0.75886 0.34457 0.0
C1340 C 0.6899 0.70766 0.34984 0.0
C1341 C 0.61703 0.71141 0.36669 0.0
H1342 H 0.64544 0.62922 0.37584 0.0
C1343 C 0.57849 0.60154 0.39684 0.0
C1344 C 0.54599 0.60134 0.39504 0.0
C1345 C 0.59793 0.62156 0.39088 0.0
C1346 C 0.63713 0.65225 0.37352 0.0
H1347 H 0.688 0.79814 0.35284 0.0
H1348 H 0.65333 0.76587 0.36416 0.0
H1349 H 0.68081 0.66329 0.36595 0.0
H1350 H 0.5083 0.62178 0.38552 0.0
H1351 H 0.54246 0.65576 0.37464 0.0
H1352 H 0.57385 0.70088 0.37485 0.0
C1353 C 0.66876 0.75437 0.35836 0.0
C1354 C 0.65736 0.67169 0.36763 0.0
C1355 C 0.68881 0.77289 0.35196 0.0
C1356 C 0.5333 0.62147 0.38708 0.0
C1357 C 0.5529 0.64114 0.38092 0.0
C1358 C 0.59693 0.69214 0.37279 0.0
C1359 C 0.66897 0.72146 0.35735 0.0
C1360 C 0.64755 0.70142 0.36403 0.0
C1361 C 0.58551 0.64148 0.38276 0.0
C1362 C 0.60668 0.66222 0.37625 0.0
H1363 H 0.72581 0.71456 0.33786 0.0
H1364 H 0.69027 0.68255 0.34858 0.0
H1365 H 0.60843 0.73396 0.36396 0.0
H1366 H 0.58892 0.58668 0.40307 0.0
H1367 H 0.62272 0.62166 0.39278 0.0
C1368 C 0.36921 0.51389 0.40141 0.0
C1369 C 0.39516 0.50533 0.3949 0.0
C1370 C 0.34061 0.52146 0.39657 0.0
C1371 C 0.29769 0.5286 0.36994 0.0
H1372 H 0.27946 0.6114 0.38135 0.0
C1373 C 0.26054 0.63113 0.34304 0.0
C1374 C 0.24702 0.65766 0.3479 0.0
C1375 C 0.26603 0.60425 0.34928 0.0
C1376 C 0.28316 0.58801 0.37816 0.0
H1377 H 0.40973 0.49411 0.37826 0.0
H1378 H 0.36038 0.50922 0.36978 0.0
H1379 H 0.31285 0.57692 0.39163 0.0
H1380 H 0.22535 0.67614 0.3626 0.0
H1381 H 0.23325 0.62856 0.37341 0.0
H1382 H 0.26888 0.54062 0.35615 0.0
C1383 C 0.36212 0.50973 0.37865 0.0
C1384 C 0.30257 0.56809 0.38411 0.0
C1385 C 0.39069 0.50161 0.38352 0.0
C1386 C 0.23609 0.65593 0.35874 0.0
C1387 C 0.24087 0.62877 0.36492 0.0
C1388 C 0.27792 0.54855 0.36399 0.0
C1389 C 0.33735 0.52134 0.3851 0.0
C1390 C 0.31113 0.53868 0.37988 0.0
C1391 C 0.25769 0.60333 0.36048 0.0
C1392 C 0.27157 0.57908 0.36781 0.0
H1393 H 0.3714 0.51718 0.41019 0.0
H1394 H 0.32172 0.52967 0.40179 0.0
H1395 H 0.30352 0.50588 0.36654 0.0
H1396 H 0.2693 0.6321 0.33468 0.0
H1397 H 0.27921 0.58538 0.34554 0.0
C1398 C 0.30072 0.63114 0.13828 0.0
C1399 C 0.27818 0.6457 0.14497 0.0
C1400 C 0.29469 0.60155 0.13373 0.0
C1401 C 0.25828 0.55675 0.11852 0.0
H1402 H 0.20625 0.49679 0.13408 0.0
C1403 C 0.13491 0.50833 0.11008 0.0
C1404 C 0.13671 0.49499 0.0995 0.0
C1405 C 0.16166 0.51211 0.11647 0.0
C1406 C 0.22144 0.51273 0.12963 0.0
H1407 H 0.23291 0.6404 0.15279 0.0
H1408 H 0.22236 0.58907 0.14497 0.0
H1409 H 0.23921 0.53307 0.14444 0.0
H1410 H 0.16854 0.47255 0.08793 0.0
H1411 H 0.21568 0.48153 0.09888 0.0
H1412 H 0.23839 0.53821 0.10374 0.0
C1413 C 0.24465 0.60013 0.14318 0.0
C1414 C 0.24017 0.53356 0.13554 0.0
C1415 C 0.25044 0.62971 0.14754 0.0
C1416 C 0.16607 0.48382 0.09584 0.0
C1417 C 0.19313 0.48848 0.10217 0.0
C1418 C 0.23962 0.53578 0.11259 0.0
C1419 C 0.26638 0.58595 0.13606 0.0
C1420 C 0.25689 0.55727 0.13005 0.0
C1421 C 0.19116 0.50338 0.11242 0.0
C1422 C 0.21934 0.5152 0.11815 0.0
H1423 H 0.32236 0.64313 0.13625 0.0
H1424 H 0.31173 0.59119 0.12823 0.0
H1425 H 0.27097 0.57472 0.11406 0.0
H1426 H 0.11328 0.51799 0.11324 0.0
H1427 H 0.1595 0.52427 0.12425 0.0
C1428 C 0.16962 0.57317 0.88744 0.0
C1429 C 0.16363 0.55777 0.89742 0.0
C1430 C 0.1985 0.56938 0.88213 0.0
C1431 C 0.24467 0.53312 0.86847 0.0
H1432 H 0.31537 0.49585 0.88362 0.0
C1433 C 0.29714 0.41348 0.86237 0.0
C1434 C 0.31055 0.41347 0.85178 0.0
C1435 C 0.29373 0.44131 0.86823 0.0
C1436 C 0.29633 0.50701 0.87922 0.0
H1437 H 0.18351 0.52766 0.90994 0.0
H1438 H 0.23268 0.51978 0.90061 0.0
H1439 H 0.28076 0.5317 0.89348 0.0
H1440 H 0.33455 0.44299 0.83981 0.0
H1441 H 0.32567 0.49192 0.84971 0.0
H1442 H 0.25998 0.50764 0.85431 0.0
C1443 C 0.21606 0.53579 0.89693 0.0
C1444 C 0.27616 0.52715 0.88488 0.0
C1445 C 0.18757 0.54008 0.9023 0.0
C1446 C 0.32288 0.44193 0.84769 0.0
C1447 C 0.31843 0.47 0.85343 0.0
C1448 C 0.26537 0.51378 0.86275 0.0
C1449 C 0.22161 0.54944 0.88657 0.0
C1450 C 0.24864 0.53837 0.87981 0.0
C1451 C 0.30293 0.46991 0.86357 0.0
C1452 C 0.29004 0.49895 0.86828 0.0
H1453 H 0.15164 0.58733 0.88359 0.0
H1454 H 0.2021 0.58093 0.87431 0.0
H1455 H 0.22393 0.54112 0.86419 0.0
H1456 H 0.28692 0.39255 0.86588 0.0
H1457 H 0.28127 0.44081 0.87599 0.0
C1458 C 0.27044 0.3983 0.62846 0.0
C1459 C 0.26186 0.39854 0.6396 0.0
C1460 C 0.27518 0.4263 0.6228 0.0
C1461 C 0.2996 0.50674 0.62928 0.0
H1462 H 0.30778 0.50753 0.59759 0.0
C1463 C 0.41036 0.54587 0.60879 0.0
C1464 C 0.41158 0.55156 0.59744 0.0
C1465 C 0.38173 0.54087 0.61401 0.0
C1466 C 0.30512 0.5086 0.60643 0.0
H1467 H 0.24844 0.42859 0.65321 0.0
H1468 H 0.25523 0.47741 0.64319 0.0
H1469 H 0.27137 0.47161 0.60616 0.0
H1470 H 0.3834 0.56026 0.58291 0.0
H1471 H 0.33326 0.5529 0.59214 0.0
H1472 H 0.33312 0.54394 0.62955 0.0
C1473 C 0.25944 0.45555 0.63892 0.0
C1474 C 0.28451 0.48743 0.61138 0.0
C1475 C 0.25517 0.42745 0.64464 0.0
C1476 C 0.38333 0.55568 0.59167 0.0
C1477 C 0.35453 0.55109 0.59694 0.0
C1478 C 0.31957 0.52849 0.62432 0.0
C1479 C 0.27096 0.45539 0.62808 0.0
C1480 C 0.28346 0.48448 0.62288 0.0
C1481 C 0.35346 0.54188 0.60805 0.0
C1482 C 0.32454 0.52789 0.6129 0.0
H1483 H 0.27498 0.37643 0.62423 0.0
H1484 H 0.28427 0.42489 0.61451 0.0
H1485 H 0.29926 0.50569 0.63816 0.0
H1486 H 0.43171 0.54337 0.61353 0.0
H1487 H 0.38223 0.53374 0.62255 0.0
C1488 C 0.022 0.90124 0.05639 0.0
C1489 C 0.99438 0.91218 0.06133 0.0
C1490 C 0.02723 0.86915 0.0552 0.0
C1491 C 0.98739 0.79155 0.05651 0.0
H1492 H 0.07194 0.76155 0.06169 0.0
C1493 C 0.01809 0.66281 0.06623 0.0
C1494 C 0.04319 0.64954 0.06032 0.0
C1495 C 0.01151 0.69473 0.06541 0.0
C1496 C 0.0483 0.76967 0.06011 0.0
H1497 H 0.95049 0.89847 0.06885 0.0
H1498 H 0.9599 0.84232 0.06713 0.0
H1499 H 0.06142 0.81763 0.06205 0.0
H1500 H 0.08073 0.65986 0.04879 0.0
H1501 H 0.0697 0.71577 0.04767 0.0
H1502 H 0.97426 0.74323 0.05503 0.0
C1503 C 0.97722 0.8584 0.06387 0.0
C1504 C 0.04224 0.80179 0.06027 0.0
C1505 C 0.97181 0.89054 0.06491 0.0
C1506 C 0.06153 0.66915 0.05359 0.0
C1507 C 0.05517 0.70118 0.05289 0.0
C1508 C 0.99341 0.75939 0.05651 0.0
C1509 C 0.00514 0.8473 0.05909 0.0
C1510 C 0.01168 0.81315 0.05851 0.0
C1511 C 0.03011 0.71421 0.0588 0.0
C1512 C 0.02389 0.74821 0.05835 0.0
H1513 H 0.03951 0.91756 0.05341 0.0
H1514 H 0.04865 0.86151 0.05124 0.0
H1515 H 0.9637 0.79945 0.05493 0.0
H1516 H 0.00379 0.64878 0.07168 0.0
H1517 H 0.99232 0.70436 0.07017 0.0
C1518 C 0.4215 0.72819 0.31681 0.0
C1519 C 0.39903 0.75031 0.31358 0.0
C1520 C 0.45326 0.73347 0.31477 0.0
C1521 C 0.50948 0.79709 0.30857 0.0
H1522 H 0.5647 0.7275 0.30183 0.0
C1523 C 0.64168 0.81291 0.29971 0.0
C1524 C 0.66111 0.79417 0.30636 0.0
C1525 C 0.60947 0.80717 0.29914 0.0
C1526 C 0.54947 0.74712 0.30368 0.0
H1527 H 0.39185 0.79481 0.30539 0.0
H1528 H 0.44724 0.80385 0.3016 0.0
H1529 H 0.50842 0.71839 0.30352 0.0
H1530 H 0.66136 0.7543 0.31753 0.0
H1531 H 0.60569 0.74398 0.31624 0.0
H1532 H 0.55072 0.82575 0.30869 0.0
C1533 C 0.44052 0.78279 0.30598 0.0
C1534 C 0.51732 0.74192 0.30473 0.0
C1535 C 0.4088 0.77765 0.30814 0.0
C1536 C 0.64757 0.76898 0.31215 0.0
C1537 C 0.61551 0.76303 0.31146 0.0
C1538 C 0.5416 0.80233 0.3074 0.0
C1539 C 0.46315 0.76083 0.30932 0.0
C1540 C 0.49701 0.76674 0.30739 0.0
C1541 C 0.59614 0.7823 0.30507 0.0
C1542 C 0.5619 0.77729 0.30514 0.0
H1543 H 0.41454 0.70709 0.32111 0.0
H1544 H 0.47007 0.71636 0.31766 0.0
H1545 H 0.49462 0.81667 0.31078 0.0
H1546 H 0.65121 0.83218 0.295 0.0
H1547 H 0.59495 0.82221 0.2941 0.0
C1548 C 0.52318 0.157 0.55662 0.0
C1549 C 0.5529 0.14621 0.5598 0.0
C1550 C 0.51718 0.18911 0.55583 0.0
C1551 C 0.5574 0.26649 0.5544 0.0
H1552 H 0.47696 0.29802 0.56433 0.0
C1553 C 0.53525 0.39588 0.56528 0.0
C1554 C 0.50816 0.41 0.56089 0.0
C1555 C 0.54013 0.36369 0.56428 0.0
C1556 C 0.49939 0.28947 0.56142 0.0
H1557 H 0.59951 0.16039 0.56479 0.0
H1558 H 0.58898 0.21635 0.56372 0.0
H1559 H 0.48668 0.24168 0.56426 0.0
H1560 H 0.46507 0.40061 0.55192 0.0
H1561 H 0.47334 0.34431 0.55051 0.0
H1562 H 0.57038 0.31451 0.55197 0.0
C1563 C 0.57047 0.20016 0.5615 0.0
C1564 C 0.50497 0.25721 0.56134 0.0
C1565 C 0.57654 0.16809 0.56215 0.0
C1566 C 0.48601 0.39081 0.55554 0.0
C1567 C 0.49074 0.35849 0.55468 0.0
C1568 C 0.55195 0.29873 0.55462 0.0
C1569 C 0.54071 0.21111 0.55834 0.0
C1570 C 0.53416 0.24532 0.55791 0.0
C1571 C 0.5179 0.3447 0.55901 0.0
C1572 C 0.523 0.3105 0.55822 0.0
H1573 H 0.50467 0.14058 0.55463 0.0
H1574 H 0.49416 0.19665 0.55318 0.0
H1575 H 0.5799 0.2582 0.55147 0.0
H1576 H 0.55266 0.40942 0.56964 0.0
H1577 H 0.56107 0.35351 0.56783 0.0
C1578 C 0.1293 0.33051 0.81806 0.0
C1579 C 0.15344 0.3141 0.81275 0.0
C1580 C 0.09836 0.32011 0.81728 0.0
C1581 C 0.04329 0.27759 0.80045 0.0
H1582 H -0.00069 0.26029 0.82772 0.0
C1583 C 0.90853 0.26466 0.80543 0.0
C1584 C 0.89824 0.23854 0.81146 0.0
C1585 C 0.94049 0.27122 0.80451 0.0
C1586 C 0.01142 0.26485 0.82006 0.0
H1587 H 0.16438 0.27475 0.8022 0.0
H1588 H 0.10981 0.25697 0.80056 0.0
H1589 H 0.05376 0.2784 0.82825 0.0
H1590 H 0.91299 0.19852 0.82109 0.0
H1591 H 0.96907 0.21043 0.8197 0.0
H1592 H 0.0005 0.26498 0.79228 0.0
C1593 C 0.11501 0.2776 0.80542 0.0
C1594 C 0.04237 0.27539 0.82036 0.0
C1595 C 0.14607 0.28764 0.80639 0.0
C1596 C 0.92043 0.2186 0.81631 0.0
C1597 C 0.95237 0.2255 0.81558 0.0
C1598 C 0.01206 0.26765 0.80015 0.0
C1599 C 0.09102 0.29352 0.811 0.0
C1600 C 0.05849 0.2819 0.81057 0.0
C1601 C 0.96258 0.25209 0.80979 0.0
C1602 C 0.99594 0.26121 0.80996 0.0
H1603 H 0.13453 0.35078 0.82309 0.0
H1604 H 0.08013 0.33276 0.82162 0.0
H1605 H 0.05536 0.28256 0.79281 0.0
H1606 H 0.89174 0.28023 0.8016 0.0
H1607 H 0.94788 0.29196 0.80007 0.0
C1608 C 0.02252 0.15895 0.93516 0.0
C1609 C 0.99451 0.15004 0.92997 0.0
C1610 C 0.02883 0.19051 0.93724 0.0
C1611 C 0.99141 0.26939 0.93802 0.0
H1612 H 0.07618 0.29832 0.93245 0.0
C1613 C 0.02344 0.39718 0.92785 0.0
C1614 C 0.04967 0.41035 0.93315 0.0
C1615 C 0.01618 0.36553 0.92916 0.0
C1616 C 0.05252 0.29049 0.93419 0.0
H1617 H 0.95112 0.1669 0.92293 0.0
H1618 H 0.96236 0.22204 0.92623 0.0
H1619 H 0.06447 0.24249 0.93154 0.0
H1620 H 0.08826 0.40022 0.94425 0.0
H1621 H 0.07601 0.3447 0.9462 0.0
H1622 H 0.97934 0.31777 0.94013 0.0
C1623 C 0.97914 0.20474 0.929 0.0
C1624 C 0.04578 0.2585 0.9337 0.0
C1625 C 0.9727 0.17316 0.92706 0.0
C1626 C 0.06821 0.39097 0.93989 0.0
C1627 C 0.06115 0.35917 0.94107 0.0
C1628 C -0.00191 0.30141 0.93836 0.0
C1629 C 0.00741 0.21384 0.93404 0.0
C1630 C 0.01504 0.24759 0.93546 0.0
C1631 C 0.03516 0.34618 0.93566 0.0
C1632 C 0.02861 0.31223 0.93631 0.0
H1633 H 0.0395 0.14147 0.93763 0.0
H1634 H 0.05055 0.19661 0.94132 0.0
H1635 H 0.96763 0.26178 0.93965 0.0
H1636 H 0.00885 0.41095 0.92244 0.0
H1637 H 0.99627 0.35594 0.92477 0.0
C1638 C 0.14369 0.7303 0.18326 0.0
C1639 C 0.16542 0.75509 0.1831 0.0
C1640 C 0.11172 0.73624 0.18459 0.0
C1641 C 0.05327 0.7988 0.18099 0.0
H1642 H 0.00036 0.74421 0.1985 0.0
C1643 C 0.92255 0.82551 0.18795 0.0
C1644 C 0.90169 0.80021 0.18674 0.0
C1645 C 0.95484 0.8204 0.18848 0.0
C1646 C 0.01481 0.75953 0.19352 0.0
H1647 H 0.17068 0.80545 0.18462 0.0
H1648 H 0.1149 0.81583 0.18698 0.0
H1649 H 0.05673 0.73462 0.19766 0.0
H1650 H 0.8985 0.74956 0.1856 0.0
H1651 H 0.95485 0.74071 0.18631 0.0
H1652 H 0.01141 0.8235 0.17675 0.0
C1653 C 0.12254 0.79183 0.18587 0.0
C1654 C 0.04708 0.75403 0.19303 0.0
C1655 C 0.1545 0.7859 0.18451 0.0
C1656 C 0.91388 0.76961 0.18637 0.0
C1657 C 0.94618 0.7645 0.18691 0.0
C1658 C 0.02106 0.80429 0.18148 0.0
C1659 C 0.10076 0.76709 0.18582 0.0
C1660 C 0.06665 0.77351 0.18671 0.0
C1661 C 0.96704 0.78988 0.18784 0.0
C1662 C 0.00143 0.78463 0.1877 0.0
H1663 H 0.15126 0.70635 0.18204 0.0
H1664 H 0.09551 0.71669 0.18435 0.0
H1665 H 0.0676 0.81392 0.17589 0.0
H1666 H 0.91406 0.84938 0.18817 0.0
H1667 H 0.97029 0.84042 0.18933 0.0
C1668 C 0.47785 0.67065 0.42999 0.0
C1669 C 0.50023 0.64797 0.43281 0.0
C1670 C 0.48553 0.70244 0.43027 0.0
C1671 C 0.55478 0.75417 0.42889 0.0
H1672 H 0.49375 0.81884 0.43545 0.0
C1673 C 0.58375 0.88681 0.42871 0.0
C1674 C 0.5626 0.90571 0.42281 0.0
C1675 C 0.57675 0.85541 0.43086 0.0
C1676 C 0.51097 0.80097 0.43358 0.0
H1677 H 0.54743 0.64058 0.43879 0.0
H1678 H 0.56071 0.69619 0.4396 0.0
H1679 H 0.48006 0.76391 0.43835 0.0
H1680 H 0.51788 0.90582 0.41427 0.0
H1681 H 0.50551 0.85136 0.41825 0.0
H1682 H 0.58567 0.79141 0.42417 0.0
C1683 C 0.53753 0.68947 0.43683 0.0
C1684 C 0.50314 0.76954 0.4352 0.0
C1685 C 0.52993 0.65767 0.43643 0.0
C1686 C 0.53444 0.8923 0.41904 0.0
C1687 C 0.52732 0.86106 0.42129 0.0
C1688 C 0.5627 0.78562 0.42738 0.0
C1689 C 0.51566 0.7122 0.4335 0.0
C1690 C 0.52479 0.74573 0.43271 0.0
C1691 C 0.54835 0.84238 0.42725 0.0
C1692 C 0.54069 0.80924 0.42955 0.0
H1693 H 0.45492 0.66375 0.42704 0.0
H1694 H 0.46824 0.71923 0.42748 0.0
H1695 H 0.57185 0.73647 0.4267 0.0
H1696 H 0.60546 0.89631 0.43187 0.0
H1697 H 0.59328 0.84147 0.43552 0.0
C1698 C 0.6383 0.23434 0.67875 0.0
C1699 C 0.65972 0.25822 0.68132 0.0
C1700 C 0.6061 0.24002 0.67914 0.0
C1701 C 0.54844 0.30502 0.679 0.0
H1702 H 0.49102 0.23935 0.68805 0.0
C1703 C 0.41516 0.32459 0.68464 0.0
C1704 C 0.3958 0.30273 0.67923 0.0
C1705 C 0.4474 0.31944 0.68555 0.0
C1706 C 0.50684 0.25784 0.68548 0.0
H1707 H 0.6644 0.30642 0.68663 0.0
H1708 H 0.60816 0.31624 0.68763 0.0
H1709 H 0.54738 0.22993 0.68868 0.0
H1710 H 0.39586 0.25818 0.67052 0.0
H1711 H 0.45168 0.24904 0.67241 0.0
H1712 H 0.50766 0.333 0.67597 0.0
C1713 C 0.61614 0.29335 0.68499 0.0
C1714 C 0.5391 0.25244 0.68578 0.0
C1715 C 0.64835 0.28775 0.68446 0.0
C1716 C 0.40959 0.2754 0.67491 0.0
C1717 C 0.44172 0.2701 0.67595 0.0
C1718 C 0.51618 0.31052 0.67884 0.0
C1719 C 0.59459 0.26962 0.68225 0.0
C1720 C 0.56031 0.27584 0.68242 0.0
C1721 C 0.46092 0.29215 0.68122 0.0
C1722 C 0.4951 0.28687 0.68196 0.0
H1723 H 0.64649 0.2115 0.67616 0.0
H1724 H 0.59027 0.22136 0.67676 0.0
H1725 H 0.56399 0.3234 0.67618 0.0
H1726 H 0.40556 0.34567 0.68823 0.0
H1727 H 0.46173 0.33668 0.68974 0.0
loop_
_geom_bond_atom_site_label_1
_geom_bond_atom_site_label_2
_geom_bond_distance
_geom_bond_site_symmetry_2
_ccdc_geom_bond_type
Co0 N4 2.148 . S
Co0 N10 2.128 1_545 S
Co0 N20 2.194 1_455 S
Co0 O25 2.351 1_455 S
Co0 O26 2.155 . S
Co0 O27 2.096 . S
C1 N4 1.301 . S
C1 N5 1.328 . S
C1 H6 0.924 1_455 S
C2 C3 1.333 . S
C2 N4 1.317 . S
C2 H7 0.930 . S
C3 C2 1.333 . S
C3 N5 1.350 . S
C3 H29 0.931 . S
N4 Co0 2.148 . S
N4 C1 1.301 . S
N4 C2 1.317 . S
N5 C1 1.328 . S
N5 C3 1.350 . S
H6 C1 0.924 1_655 S
H7 C2 0.930 . S
C8 O9 1.224 . S
C8 O27 1.247 . S
O9 C8 1.224 . S
N10 Co0 2.128 1_565 S
N10 C11 1.355 1_455 S
N10 C13 1.311 . S
C11 N10 1.355 1_655 S
C11 C12 1.363 . S
C11 H23 0.929 . S
C12 C11 1.363 . S
C12 N14 1.375 1_655 S
C12 H30 0.931 . S
C13 N10 1.311 . S
C13 N14 1.347 . S
C13 H24 0.929 . S
N14 C12 1.375 1_455 S
N14 C13 1.347 . S
C15 C18 1.365 . S
C15 N20 1.328 . S
C15 H21 0.929 . S
C16 C17 1.362 . S
C16 C19 1.378 . S
C16 H31 0.929 . S
C17 C16 1.362 . S
C17 C18 1.366 . S
C18 C15 1.365 . S
C18 C17 1.366 . S
C18 H32 0.930 . S
C19 C16 1.378 . S
C19 N20 1.315 . S
C19 H22 0.930 1_655 S
N20 Co0 2.194 1_655 S
N20 C15 1.328 . S
N20 C19 1.315 . S
H21 C15 0.929 . S
H22 C19 0.930 1_455 S
H23 C11 0.929 . S
H24 C13 0.929 . S
O25 Co0 2.351 1_655 S
O25 C28 1.244 1_655 S
O26 Co0 2.155 . S
O26 C28 1.240 . S
O27 Co0 2.096 . S
O27 C8 1.247 . S
C28 O25 1.244 1_455 S
C28 O26 1.240 . S
H29 C3 0.931 . S
H30 C12 0.931 . S
H31 C16 0.929 . S
H32 C18 0.930 . S
Co33 N37 2.148 . S
Co33 N43 2.128 . S
Co33 N53 2.194 . S
Co33 O58 2.351 . S
Co33 O59 2.155 . S
Co33 O60 2.096 . S
C34 N37 1.301 . S
C34 N38 1.328 . S
C34 H39 0.930 . S
C35 C36 1.333 . S
C35 N37 1.317 . S
C35 H40 0.930 . S
C36 C35 1.333 . S
C36 N38 1.350 . S
C36 H62 0.931 . S
N37 Co33 2.148 . S
N37 C34 1.301 . S
N37 C35 1.317 . S
N38 C34 1.328 . S
N38 C36 1.350 . S
H39 C34 0.930 . S
H40 C35 0.930 . S
C41 O42 1.224 . S
C41 O60 1.247 . S
O42 C41 1.224 . S
N43 Co33 2.128 . S
N43 C44 1.355 . S
N43 C46 1.311 . S
C44 N43 1.355 . S
C44 C45 1.363 . S
C44 H56 0.929 . S
C45 C44 1.363 . S
C45 N47 1.375 . S
C45 H63 0.931 . S
C46 N43 1.311 . S
C46 N47 1.347 . S
C46 H57 0.929 . S
N47 C45 1.375 . S
N47 C46 1.347 . S
C48 C51 1.365 . S
C48 N53 1.328 . S
C48 H54 0.929 . S
C49 C50 1.362 . S
C49 C52 1.378 . S
C49 H64 0.929 . S
C50 C49 1.362 . S
C50 C51 1.366 . S
C51 C48 1.365 . S
C51 C50 1.366 . S
C51 H65 0.930 . S
C52 C49 1.378 . S
C52 N53 1.315 . S
C52 H55 0.930 . S
N53 Co33 2.194 . S
N53 C48 1.328 . S
N53 C52 1.315 . S
H54 C48 0.929 . S
H55 C52 0.930 . S
H56 C44 0.929 . S
H57 C46 0.929 . S
O58 Co33 2.351 . S
O58 C61 1.244 . S
O59 Co33 2.155 . S
O59 C61 1.240 . S
O60 Co33 2.096 . S
O60 C41 1.247 . S
C61 O58 1.244 . S
C61 O59 1.240 . S
H62 C36 0.931 . S
H63 C45 0.931 . S
H64 C49 0.929 . S
H65 C51 0.930 . S
Co66 N70 2.148 1_545 S
Co66 N76 2.128 . S
Co66 N86 2.194 . S
Co66 O91 2.351 . S
Co66 O92 2.155 . S
Co66 O93 2.096 . S
C67 N70 1.301 . S
C67 N71 1.328 . S
C67 H72 0.930 . S
C68 C69 1.333 . S
C68 N70 1.317 . S
C68 H73 0.930 . S
C69 C68 1.333 . S
C69 N71 1.350 . S
C69 H95 0.931 . S
N70 Co66 2.148 1_565 S
N70 C67 1.301 . S
N70 C68 1.317 . S
N71 C67 1.328 . S
N71 C69 1.350 . S
H72 C67 0.930 . S
H73 C68 0.930 . S
C74 O75 1.224 . S
C74 O93 1.247 . S
O75 C74 1.224 . S
N76 Co66 2.128 . S
N76 C77 1.355 . S
N76 C79 1.311 . S
C77 N76 1.355 . S
C77 C78 1.363 . S
C77 H89 0.929 . S
C78 C77 1.363 . S
C78 N80 1.375 . S
C78 H96 0.931 . S
C79 N76 1.311 . S
C79 N80 1.347 . S
C79 H90 0.929 . S
N80 C78 1.375 . S
N80 C79 1.347 . S
C81 C84 1.365 . S
C81 N86 1.328 . S
C81 H87 0.929 . S
C82 C83 1.362 . S
C82 C85 1.378 . S
C82 H97 0.929 . S
C83 C82 1.362 . S
C83 C84 1.366 . S
C84 C81 1.365 . S
C84 C83 1.366 . S
C84 H98 0.930 . S
C85 C82 1.378 . S
C85 N86 1.315 . S
C85 H88 0.930 . S
N86 Co66 2.194 . S
N86 C81 1.328 . S
N86 C85 1.315 . S
H87 C81 0.929 . S
H88 C85 0.930 . S
H89 C77 0.929 . S
H90 C79 0.929 . S
O91 Co66 2.351 . S
O91 C94 1.244 . S
O92 Co66 2.155 . S
O92 C94 1.240 . S
O93 Co66 2.096 . S
O93 C74 1.247 . S
C94 O91 1.244 . S
C94 O92 1.240 . S
H95 C69 0.931 . S
H96 C78 0.931 . S
H97 C82 0.929 . S
H98 C84 0.930 . S
Co99 N103 2.148 . S
Co99 N109 2.128 . S
Co99 N119 2.194 . S
Co99 O124 2.351 . S
Co99 O125 2.155 . S
Co99 O126 2.096 . S
C100 N103 1.301 . S
C100 N104 1.328 . S
C100 H105 0.930 . S
C101 C102 1.333 . S
C101 N103 1.317 . S
C101 H106 0.930 . S
C102 C101 1.333 . S
C102 N104 1.350 . S
C102 H128 0.931 . S
N103 Co99 2.148 . S
N103 C100 1.301 . S
N103 C101 1.317 . S
N104 C100 1.328 . S
N104 C102 1.350 . S
H105 C100 0.930 . S
H106 C101 0.930 . S
C107 O108 1.224 . S
C107 O126 1.247 . S
O108 C107 1.224 . S
N109 Co99 2.128 . S
N109 C110 1.355 . S
N109 C112 1.311 . S
C110 N109 1.355 . S
C110 C111 1.363 . S
C110 H122 0.929 . S
C111 C110 1.363 . S
C111 N113 1.375 . S
C111 H129 0.931 . S
C112 N109 1.311 . S
C112 N113 1.347 . S
C112 H123 0.929 . S
N113 C111 1.375 . S
N113 C112 1.347 . S
C114 C117 1.365 . S
C114 N119 1.328 . S
C114 H120 0.929 . S
C115 C116 1.362 . S
C115 C118 1.378 . S
C115 H130 0.929 . S
C116 C115 1.362 . S
C116 C117 1.366 . S
C117 C114 1.365 . S
C117 C116 1.366 . S
C117 H131 0.930 . S
C118 C115 1.378 . S
C118 N119 1.315 . S
C118 H121 0.930 . S
N119 Co99 2.194 . S
N119 C114 1.328 . S
N119 C118 1.315 . S
H120 C114 0.929 . S
H121 C118 0.930 . S
H122 C110 0.929 . S
H123 C112 0.929 . S
O124 Co99 2.351 . S
O124 C127 1.244 . S
O125 Co99 2.155 . S
O125 C127 1.240 . S
O126 Co99 2.096 . S
O126 C107 1.247 . S
C127 O124 1.244 . S
C127 O125 1.240 . S
H128 C102 0.931 . S
H129 C111 0.931 . S
H130 C115 0.929 . S
H131 C117 0.930 . S
Co132 N136 2.148 1_545 S
Co132 N142 2.128 . S
Co132 N152 2.194 1_455 S
Co132 O157 2.351 1_455 S
Co132 O158 2.155 . S
Co132 O159 2.096 . S
C133 N136 1.301 . S
C133 N137 1.328 . S
C133 H138 0.919 1_455 S
C134 C135 1.333 . S
C134 N136 1.317 . S
C134 H139 0.930 . S
C135 C134 1.333 . S
C135 N137 1.350 . S
C135 H161 0.931 . S
N136 Co132 2.148 1_565 S
N136 C133 1.301 . S
N136 C134 1.317 . S
N137 C133 1.328 . S
N137 C135 1.350 . S
H138 C133 0.919 1_655 S
H139 C134 0.930 . S
C140 O141 1.224 . S
C140 O159 1.247 . S
O141 C140 1.224 . S
N142 Co132 2.128 . S
N142 C143 1.355 1_455 S
N142 C145 1.311 . S
C143 N142 1.355 1_655 S
C143 C144 1.363 . S
C143 H155 0.929 . S
C144 C143 1.363 . S
C144 N146 1.375 1_655 S
C144 H162 0.931 . S
C145 N142 1.311 . S
C145 N146 1.347 . S
C145 H156 0.929 . S
N146 C144 1.375 1_455 S
N146 C145 1.347 . S
C147 C150 1.365 . S
C147 N152 1.328 . S
C147 H153 0.929 . S
C148 C149 1.362 . S
C148 C151 1.378 . S
C148 H163 0.929 . S
C149 C148 1.362 . S
C149 C150 1.366 . S
C150 C147 1.365 . S
C150 C149 1.366 . S
C150 H164 0.930 . S
C151 C148 1.378 . S
C151 N152 1.315 . S
C151 H154 0.930 1_655 S
N152 Co132 2.194 1_655 S
N152 C147 1.328 . S
N152 C151 1.315 . S
H153 C147 0.929 . S
H154 C151 0.930 1_455 S
H155 C143 0.929 . S
H156 C145 0.929 . S
O157 Co132 2.351 1_655 S
O157 C160 1.244 1_655 S
O158 Co132 2.155 . S
O158 C160 1.240 . S
O159 Co132 2.096 . S
O159 C140 1.247 . S
C160 O157 1.244 1_455 S
C160 O158 1.240 . S
H161 C135 0.931 . S
H162 C144 0.931 . S
H163 C148 0.929 . S
H164 C150 0.930 . S
Co165 N169 2.148 . S
Co165 N175 2.128 . S
Co165 N185 2.194 . S
Co165 O190 2.351 . S
Co165 O191 2.155 . S
Co165 O192 2.096 . S
C166 N169 1.301 . S
C166 N170 1.328 . S
C166 H171 0.930 . S
C167 C168 1.333 . S
C167 N169 1.317 . S
C167 H172 0.930 . S
C168 C167 1.333 . S
C168 N170 1.350 . S
C168 H194 0.931 . S
N169 Co165 2.148 . S
N169 C166 1.301 . S
N169 C167 1.317 . S
N170 C166 1.328 . S
N170 C168 1.350 . S
H171 C166 0.930 . S
H172 C167 0.930 . S
C173 O174 1.224 . S
C173 O192 1.247 . S
O174 C173 1.224 . S
N175 Co165 2.128 . S
N175 C176 1.355 . S
N175 C178 1.311 . S
C176 N175 1.355 . S
C176 C177 1.363 . S
C176 H188 0.929 . S
C177 C176 1.363 . S
C177 N179 1.375 . S
C177 H195 0.931 . S
C178 N175 1.311 . S
C178 N179 1.347 . S
C178 H189 0.929 . S
N179 C177 1.375 . S
N179 C178 1.347 . S
C180 C183 1.365 . S
C180 N185 1.328 . S
C180 H186 0.929 . S
C181 C182 1.362 . S
C181 C184 1.378 . S
C181 H196 0.929 . S
C182 C181 1.362 . S
C182 C183 1.366 . S
C183 C180 1.365 . S
C183 C182 1.366 . S
C183 H197 0.930 . S
C184 C181 1.378 . S
C184 N185 1.315 . S
C184 H187 0.930 . S
N185 Co165 2.194 . S
N185 C180 1.328 . S
N185 C184 1.315 . S
H186 C180 0.929 . S
H187 C184 0.930 . S
H188 C176 0.929 . S
H189 C178 0.929 . S
O190 Co165 2.351 . S
O190 C193 1.244 . S
O191 Co165 2.155 . S
O191 C193 1.240 . S
O192 Co165 2.096 . S
O192 C173 1.247 . S
C193 O190 1.244 . S
C193 O191 1.240 . S
H194 C168 0.931 . S
H195 C177 0.931 . S
H196 C181 0.929 . S
H197 C183 0.930 . S
Co198 N202 2.148 . S
Co198 N208 2.128 1_545 S
Co198 N218 2.194 . S
Co198 O223 2.351 . S
Co198 O224 2.155 . S
Co198 O225 2.096 . S
C199 N202 1.301 . S
C199 N203 1.328 . S
C199 H204 0.930 . S
C200 C201 1.333 . S
C200 N202 1.317 . S
C200 H205 0.930 . S
C201 C200 1.333 . S
C201 N203 1.350 . S
C201 H227 0.931 . S
N202 Co198 2.148 . S
N202 C199 1.301 . S
N202 C200 1.317 . S
N203 C199 1.328 . S
N203 C201 1.350 . S
H204 C199 0.930 . S
H205 C200 0.930 . S
C206 O207 1.224 . S
C206 O225 1.247 . S
O207 C206 1.224 . S
N208 Co198 2.128 1_565 S
N208 C209 1.355 . S
N208 C211 1.311 . S
C209 N208 1.355 . S
C209 C210 1.363 . S
C209 H221 0.929 . S
C210 C209 1.363 . S
C210 N212 1.375 . S
C210 H228 0.931 . S
C211 N208 1.311 . S
C211 N212 1.347 . S
C211 H222 0.929 . S
N212 C210 1.375 . S
N212 C211 1.347 . S
C213 C216 1.365 . S
C213 N218 1.328 . S
C213 H219 0.929 . S
C214 C215 1.362 . S
C214 C217 1.378 . S
C214 H229 0.929 . S
C215 C214 1.362 . S
C215 C216 1.366 . S
C216 C213 1.365 . S
C216 C215 1.366 . S
C216 H230 0.930 . S
C217 C214 1.378 . S
C217 N218 1.315 . S
C217 H220 0.930 . S
N218 Co198 2.194 . S
N218 C213 1.328 . S
N218 C217 1.315 . S
H219 C213 0.929 . S
H220 C217 0.930 . S
H221 C209 0.929 . S
H222 C211 0.929 . S
O223 Co198 2.351 . S
O223 C226 1.244 . S
O224 Co198 2.155 . S
O224 C226 1.240 . S
O225 Co198 2.096 . S
O225 C206 1.247 . S
C226 O223 1.244 . S
C226 O224 1.240 . S
H227 C201 0.931 . S
H228 C210 0.931 . S
H229 C214 0.929 . S
H230 C216 0.930 . S
Co231 N235 2.148 . S
Co231 N241 2.128 . S
Co231 N251 2.194 . S
Co231 O256 2.351 . S
Co231 O257 2.155 . S
Co231 O258 2.096 . S
C232 N235 1.301 . S
C232 N236 1.328 . S
C232 H237 0.930 . S
C233 C234 1.333 . S
C233 N235 1.317 . S
C233 H238 0.930 . S
C234 C233 1.333 . S
C234 N236 1.350 . S
C234 H260 0.931 . S
N235 Co231 2.148 . S
N235 C232 1.301 . S
N235 C233 1.317 . S
N236 C232 1.328 . S
N236 C234 1.350 . S
H237 C232 0.930 . S
H238 C233 0.930 . S
C239 O240 1.224 . S
C239 O258 1.247 . S
O240 C239 1.224 . S
N241 Co231 2.128 . S
N241 C242 1.355 . S
N241 C244 1.311 . S
C242 N241 1.355 . S
C242 C243 1.363 . S
C242 H254 0.929 . S
C243 C242 1.363 . S
C243 N245 1.375 . S
C243 H261 0.931 . S
C244 N241 1.311 . S
C244 N245 1.347 . S
C244 H255 0.929 . S
N245 C243 1.375 . S
N245 C244 1.347 . S
C246 C249 1.365 . S
C246 N251 1.328 . S
C246 H252 0.929 . S
C247 C248 1.362 . S
C247 C250 1.378 . S
C247 H262 0.929 . S
C248 C247 1.362 . S
C248 C249 1.366 . S
C249 C246 1.365 . S
C249 C248 1.366 . S
C249 H263 0.930 . S
C250 C247 1.378 . S
C250 N251 1.315 . S
C250 H253 0.930 . S
N251 Co231 2.194 . S
N251 C246 1.328 . S
N251 C250 1.315 . S
H252 C246 0.929 . S
H253 C250 0.930 . S
H254 C242 0.929 . S
H255 C244 0.929 . S
O256 Co231 2.351 . S
O256 C259 1.244 . S
O257 Co231 2.155 . S
O257 C259 1.240 . S
O258 Co231 2.096 . S
O258 C239 1.247 . S
C259 O256 1.244 . S
C259 O257 1.240 . S
H260 C234 0.931 . S
H261 C243 0.931 . S
H262 C247 0.929 . S
H263 C249 0.930 . S
Co264 N268 2.148 . S
Co264 N274 2.128 . S
Co264 N284 2.194 . S
Co264 O289 2.351 . S
Co264 O290 2.155 . S
Co264 O291 2.096 . S
C265 N268 1.301 . S
C265 N269 1.328 . S
C265 H270 0.930 . S
C266 C267 1.333 . S
C266 N268 1.317 . S
C266 H271 0.930 . S
C267 C266 1.333 . S
C267 N269 1.350 . S
C267 H293 0.931 . S
N268 Co264 2.148 . S
N268 C265 1.301 . S
N268 C266 1.317 . S
N269 C265 1.328 . S
N269 C267 1.350 . S
H270 C265 0.930 . S
H271 C266 0.930 . S
C272 O273 1.224 . S
C272 O291 1.247 . S
O273 C272 1.224 . S
N274 Co264 2.128 . S
N274 C275 1.355 . S
N274 C277 1.311 . S
C275 N274 1.355 . S
C275 C276 1.363 . S
C275 H287 0.929 . S
C276 C275 1.363 . S
C276 N278 1.375 . S
C276 H294 0.931 . S
C277 N274 1.311 . S
C277 N278 1.347 . S
C277 H288 0.929 . S
N278 C276 1.375 . S
N278 C277 1.347 . S
C279 C282 1.365 . S
C279 N284 1.328 . S
C279 H285 0.929 . S
C280 C281 1.362 . S
C280 C283 1.378 . S
C280 H295 0.929 . S
C281 C280 1.362 . S
C281 C282 1.366 . S
C282 C279 1.365 . S
C282 C281 1.366 . S
C282 H296 0.930 . S
C283 C280 1.378 . S
C283 N284 1.315 . S
C283 H286 0.930 . S
N284 Co264 2.194 . S
N284 C279 1.328 . S
N284 C283 1.315 . S
H285 C279 0.929 . S
H286 C283 0.930 . S
H287 C275 0.929 . S
H288 C277 0.929 . S
O289 Co264 2.351 . S
O289 C292 1.244 . S
O290 Co264 2.155 . S
O290 C292 1.240 . S
O291 Co264 2.096 . S
O291 C272 1.247 . S
C292 O289 1.244 . S
C292 O290 1.240 . S
H293 C267 0.931 . S
H294 C276 0.931 . S
H295 C280 0.929 . S
H296 C282 0.930 . S
Co297 N301 2.148 . S
Co297 N307 2.128 . S
Co297 N317 2.194 . S
Co297 O322 2.351 . S
Co297 O323 2.155 . S
Co297 O324 2.096 . S
C298 N301 1.301 . S
C298 N302 1.328 . S
C298 H303 0.930 . S
C299 C300 1.333 . S
C299 N301 1.317 . S
C299 H304 0.930 . S
C300 C299 1.333 . S
C300 N302 1.350 . S
C300 H326 0.931 . S
N301 Co297 2.148 . S
N301 C298 1.301 . S
N301 C299 1.317 . S
N302 C298 1.328 . S
N302 C300 1.350 . S
H303 C298 0.930 . S
H304 C299 0.930 . S
C305 O306 1.224 . S
C305 O324 1.247 . S
O306 C305 1.224 . S
N307 Co297 2.128 . S
N307 C308 1.355 . S
N307 C310 1.311 . S
C308 N307 1.355 . S
C308 C309 1.363 . S
C308 H320 0.929 . S
C309 C308 1.363 . S
C309 N311 1.375 . S
C309 H327 0.931 . S
C310 N307 1.311 . S
C310 N311 1.347 . S
C310 H321 0.929 . S
N311 C309 1.375 . S
N311 C310 1.347 . S
C312 C315 1.365 . S
C312 N317 1.328 . S
C312 H318 0.929 . S
C313 C314 1.362 . S
C313 C316 1.378 . S
C313 H328 0.929 . S
C314 C313 1.362 . S
C314 C315 1.366 . S
C315 C312 1.365 . S
C315 C314 1.366 . S
C315 H329 0.930 . S
C316 C313 1.378 . S
C316 N317 1.315 . S
C316 H319 0.930 . S
N317 Co297 2.194 . S
N317 C312 1.328 . S
N317 C316 1.315 . S
H318 C312 0.929 . S
H319 C316 0.930 . S
H320 C308 0.929 . S
H321 C310 0.929 . S
O322 Co297 2.351 . S
O322 C325 1.244 . S
O323 Co297 2.155 . S
O323 C325 1.240 . S
O324 Co297 2.096 . S
O324 C305 1.247 . S
C325 O322 1.244 . S
C325 O323 1.240 . S
H326 C300 0.931 . S
H327 C309 0.931 . S
H328 C313 0.929 . S
H329 C315 0.930 . S
Co330 N334 2.148 . S
Co330 N340 2.128 . S
Co330 N350 2.194 . S
Co330 O355 2.351 . S
Co330 O356 2.155 . S
Co330 O357 2.096 . S
C331 N334 1.301 . S
C331 N335 1.328 . S
C331 H336 0.930 . S
C332 C333 1.333 . S
C332 N334 1.317 . S
C332 H337 0.930 . S
C333 C332 1.333 . S
C333 N335 1.350 . S
C333 H359 0.931 . S
N334 Co330 2.148 . S
N334 C331 1.301 . S
N334 C332 1.317 . S
N335 C331 1.328 . S
N335 C333 1.350 . S
H336 C331 0.930 . S
H337 C332 0.930 . S
C338 O339 1.224 . S
C338 O357 1.247 . S
O339 C338 1.224 . S
N340 Co330 2.128 . S
N340 C341 1.355 . S
N340 C343 1.311 . S
C341 N340 1.355 . S
C341 C342 1.363 . S
C341 H353 0.929 . S
C342 C341 1.363 . S
C342 N344 1.375 . S
C342 H360 0.931 . S
C343 N340 1.311 . S
C343 N344 1.347 . S
C343 H354 0.929 . S
N344 C342 1.375 . S
N344 C343 1.347 . S
C345 C348 1.365 . S
C345 N350 1.328 . S
C345 H351 0.929 . S
C346 C347 1.362 . S
C346 C349 1.378 . S
C346 H361 0.929 . S
C347 C346 1.362 . S
C347 C348 1.366 . S
C348 C345 1.365 . S
C348 C347 1.366 . S
C348 H362 0.930 . S
C349 C346 1.378 . S
C349 N350 1.315 . S
C349 H352 0.930 . S
N350 Co330 2.194 . S
N350 C345 1.328 . S
N350 C349 1.315 . S
H351 C345 0.929 . S
H352 C349 0.930 . S
H353 C341 0.929 . S
H354 C343 0.929 . S
O355 Co330 2.351 . S
O355 C358 1.244 . S
O356 Co330 2.155 . S
O356 C358 1.240 . S
O357 Co330 2.096 . S
O357 C338 1.247 . S
C358 O355 1.244 . S
C358 O356 1.240 . S
H359 C333 0.931 . S
H360 C342 0.931 . S
H361 C346 0.929 . S
H362 C348 0.930 . S
Co363 N367 2.148 . S
Co363 N373 2.128 . S
Co363 N383 2.194 . S
Co363 O388 2.351 . S
Co363 O389 2.155 . S
Co363 O390 2.096 . S
C364 N367 1.301 . S
C364 N368 1.328 . S
C364 H369 0.930 . S
C365 C366 1.333 . S
C365 N367 1.317 . S
C365 H370 0.930 . S
C366 C365 1.333 . S
C366 N368 1.350 . S
C366 H392 0.931 . S
N367 Co363 2.148 . S
N367 C364 1.301 . S
N367 C365 1.317 . S
N368 C364 1.328 . S
N368 C366 1.350 . S
H369 C364 0.930 . S
H370 C365 0.930 . S
C371 O372 1.224 . S
C371 O390 1.247 . S
O372 C371 1.224 . S
N373 Co363 2.128 . S
N373 C374 1.355 . S
N373 C376 1.311 . S
C374 N373 1.355 . S
C374 C375 1.363 . S
C374 H386 0.929 . S
C375 C374 1.363 . S
C375 N377 1.375 . S
C375 H393 0.931 . S
C376 N373 1.311 . S
C376 N377 1.347 . S
C376 H387 0.929 . S
N377 C375 1.375 . S
N377 C376 1.347 . S
C378 C381 1.365 . S
C378 N383 1.328 . S
C378 H384 0.929 . S
C379 C380 1.362 . S
C379 C382 1.378 . S
C379 H394 0.929 . S
C380 C379 1.362 . S
C380 C381 1.366 . S
C381 C378 1.365 . S
C381 C380 1.366 . S
C381 H395 0.930 . S
C382 C379 1.378 . S
C382 N383 1.315 . S
C382 H385 0.930 . S
N383 Co363 2.194 . S
N383 C378 1.328 . S
N383 C382 1.315 . S
H384 C378 0.929 . S
H385 C382 0.930 . S
H386 C374 0.929 . S
H387 C376 0.929 . S
O388 Co363 2.351 . S
O388 C391 1.244 . S
O389 Co363 2.155 . S
O389 C391 1.240 . S
O390 Co363 2.096 . S
O390 C371 1.247 . S
C391 O388 1.244 . S
C391 O389 1.240 . S
H392 C366 0.931 . S
H393 C375 0.931 . S
H394 C379 0.929 . S
H395 C381 0.930 . S
Co396 N400 2.148 . S
Co396 N406 2.128 . S
Co396 N416 2.194 . S
Co396 O421 2.351 . S
Co396 O422 2.155 . S
Co396 O423 2.096 . S
C397 N400 1.301 . S
C397 N401 1.328 . S
C397 H402 0.930 . S
C398 C399 1.333 . S
C398 N400 1.317 . S
C398 H403 0.930 . S
C399 C398 1.333 . S
C399 N401 1.350 . S
C399 H425 0.931 . S
N400 Co396 2.148 . S
N400 C397 1.301 . S
N400 C398 1.317 . S
N401 C397 1.328 . S
N401 C399 1.350 . S
H402 C397 0.930 . S
H403 C398 0.930 . S
C404 O405 1.224 . S
C404 O423 1.247 . S
O405 C404 1.224 . S
N406 Co396 2.128 . S
N406 C407 1.355 . S
N406 C409 1.311 . S
C407 N406 1.355 . S
C407 C408 1.363 . S
C407 H419 0.929 . S
C408 C407 1.363 . S
C408 N410 1.375 . S
C408 H426 0.931 . S
C409 N406 1.311 . S
C409 N410 1.347 . S
C409 H420 0.929 . S
N410 C408 1.375 . S
N410 C409 1.347 . S
C411 C414 1.365 . S
C411 N416 1.328 . S
C411 H417 0.929 . S
C412 C413 1.362 . S
C412 C415 1.378 . S
C412 H427 0.929 . S
C413 C412 1.362 . S
C413 C414 1.366 . S
C414 C411 1.365 . S
C414 C413 1.366 . S
C414 H428 0.930 . S
C415 C412 1.378 . S
C415 N416 1.315 . S
C415 H418 0.930 . S
N416 Co396 2.194 . S
N416 C411 1.328 . S
N416 C415 1.315 . S
H417 C411 0.929 . S
H418 C415 0.930 . S
H419 C407 0.929 . S
H420 C409 0.929 . S
O421 Co396 2.351 . S
O421 C424 1.244 . S
O422 Co396 2.155 . S
O422 C424 1.240 . S
O423 Co396 2.096 . S
O423 C404 1.247 . S
C424 O421 1.244 . S
C424 O422 1.240 . S
H425 C399 0.931 . S
H426 C408 0.931 . S
H427 C412 0.929 . S
H428 C414 0.930 . S
Co429 N433 2.148 . S
Co429 N439 2.128 . S
Co429 N449 2.194 . S
Co429 O454 2.351 . S
Co429 O455 2.155 . S
Co429 O456 2.096 1_455 S
C430 N433 1.301 . S
C430 N434 1.328 . S
C430 H435 0.930 . S
C431 C432 1.333 . S
C431 N433 1.317 . S
C431 H436 0.930 1_455 S
C432 C431 1.333 . S
C432 N434 1.350 . S
C432 H458 0.931 1_455 S
N433 Co429 2.148 . S
N433 C430 1.301 . S
N433 C431 1.317 . S
N434 C430 1.328 . S
N434 C432 1.350 . S
H435 C430 0.930 . S
H436 C431 0.930 1_655 S
C437 O438 1.224 1_655 S
C437 O456 1.247 . S
O438 C437 1.224 1_455 S
N439 Co429 2.128 . S
N439 C440 1.355 . S
N439 C442 1.311 . S
C440 N439 1.355 . S
C440 C441 1.363 . S
C440 H452 0.929 . S
C441 C440 1.363 . S
C441 N443 1.375 . S
C441 H459 0.931 . S
C442 N439 1.311 . S
C442 N443 1.347 . S
C442 H453 0.929 . S
N443 C441 1.375 . S
N443 C442 1.347 . S
C444 C447 1.365 . S
C444 N449 1.328 . S
C444 H450 0.929 . S
C445 C446 1.362 . S
C445 C448 1.378 . S
C445 H460 0.929 . S
C446 C445 1.362 . S
C446 C447 1.366 . S
C447 C444 1.365 . S
C447 C446 1.366 . S
C447 H461 0.930 . S
C448 C445 1.378 . S
C448 N449 1.315 . S
C448 H451 0.930 . S
N449 Co429 2.194 . S
N449 C444 1.328 . S
N449 C448 1.315 . S
H450 C444 0.929 . S
H451 C448 0.930 . S
H452 C440 0.929 . S
H453 C442 0.929 . S
O454 Co429 2.351 . S
O454 C457 1.244 . S
O455 Co429 2.155 . S
O455 C457 1.240 . S
O456 Co429 2.096 1_655 S
O456 C437 1.247 . S
C457 O454 1.244 . S
C457 O455 1.240 . S
H458 C432 0.931 1_655 S
H459 C441 0.931 . S
H460 C445 0.929 . S
H461 C447 0.930 . S
Co462 N466 2.148 . S
Co462 N472 2.128 . S
Co462 N482 2.194 . S
Co462 O487 2.351 . S
Co462 O488 2.155 . S
Co462 O489 2.096 . S
C463 N466 1.301 . S
C463 N467 1.328 . S
C463 H468 0.930 . S
C464 C465 1.333 . S
C464 N466 1.317 . S
C464 H469 0.930 . S
C465 C464 1.333 . S
C465 N467 1.350 . S
C465 H491 0.931 . S
N466 Co462 2.148 . S
N466 C463 1.301 . S
N466 C464 1.317 . S
N467 C463 1.328 . S
N467 C465 1.350 . S
H468 C463 0.930 . S
H469 C464 0.930 . S
C470 O471 1.224 . S
C470 O489 1.247 . S
O471 C470 1.224 . S
N472 Co462 2.128 . S
N472 C473 1.355 . S
N472 C475 1.311 . S
C473 N472 1.355 . S
C473 C474 1.363 . S
C473 H485 0.929 . S
C474 C473 1.363 . S
C474 N476 1.375 . S
C474 H492 0.931 . S
C475 N472 1.311 . S
C475 N476 1.347 . S
C475 H486 0.929 . S
N476 C474 1.375 . S
N476 C475 1.347 . S
C477 C480 1.365 . S
C477 N482 1.328 . S
C477 H483 0.929 . S
C478 C479 1.362 . S
C478 C481 1.378 . S
C478 H493 0.929 . S
C479 C478 1.362 . S
C479 C480 1.366 . S
C480 C477 1.365 . S
C480 C479 1.366 . S
C480 H494 0.930 . S
C481 C478 1.378 . S
C481 N482 1.315 . S
C481 H484 0.930 . S
N482 Co462 2.194 . S
N482 C477 1.328 . S
N482 C481 1.315 . S
H483 C477 0.929 . S
H484 C481 0.930 . S
H485 C473 0.929 . S
H486 C475 0.929 . S
O487 Co462 2.351 . S
O487 C490 1.244 . S
O488 Co462 2.155 . S
O488 C490 1.240 . S
O489 Co462 2.096 . S
O489 C470 1.247 . S
C490 O487 1.244 . S
C490 O488 1.240 . S
H491 C465 0.931 . S
H492 C474 0.931 . S
H493 C478 0.929 . S
H494 C480 0.930 . S
Co495 N499 2.148 . S
Co495 N505 2.128 . S
Co495 N515 2.194 . S
Co495 O520 2.351 . S
Co495 O521 2.155 . S
Co495 O522 2.096 1_455 S
C496 N499 1.301 . S
C496 N500 1.328 . S
C496 H501 0.930 . S
C497 C498 1.333 . S
C497 N499 1.317 . S
C497 H502 0.930 1_455 S
C498 C497 1.333 . S
C498 N500 1.350 . S
C498 H524 0.931 1_455 S
N499 Co495 2.148 . S
N499 C496 1.301 . S
N499 C497 1.317 . S
N500 C496 1.328 . S
N500 C498 1.350 . S
H501 C496 0.930 . S
H502 C497 0.930 1_655 S
C503 O504 1.224 1_655 S
C503 O522 1.247 . S
O504 C503 1.224 1_455 S
N505 Co495 2.128 . S
N505 C506 1.355 . S
N505 C508 1.311 . S
C506 N505 1.355 . S
C506 C507 1.363 . S
C506 H518 0.929 . S
C507 C506 1.363 . S
C507 N509 1.375 . S
C507 H525 0.931 . S
C508 N505 1.311 . S
C508 N509 1.347 . S
C508 H519 0.929 . S
N509 C507 1.375 . S
N509 C508 1.347 . S
C510 C513 1.365 . S
C510 N515 1.328 . S
C510 H516 0.929 . S
C511 C512 1.362 . S
C511 C514 1.378 . S
C511 H526 0.929 . S
C512 C511 1.362 . S
C512 C513 1.366 . S
C513 C510 1.365 . S
C513 C512 1.366 . S
C513 H527 0.930 . S
C514 C511 1.378 . S
C514 N515 1.315 . S
C514 H517 0.930 . S
N515 Co495 2.194 . S
N515 C510 1.328 . S
N515 C514 1.315 . S
H516 C510 0.929 . S
H517 C514 0.930 . S
H518 C506 0.929 . S
H519 C508 0.929 . S
O520 Co495 2.351 . S
O520 C523 1.244 . S
O521 Co495 2.155 . S
O521 C523 1.240 . S
O522 Co495 2.096 1_655 S
O522 C503 1.247 . S
C523 O520 1.244 . S
C523 O521 1.240 . S
H524 C498 0.931 1_655 S
H525 C507 0.931 . S
H526 C511 0.929 . S
H527 C513 0.930 . S
C528 C529 1.349 . S
C528 C530 1.327 . S
C528 H553 0.950 . S
C529 C528 1.349 . S
C529 C545 1.349 . S
C530 C528 1.327 . S
C530 C549 1.429 . S
C530 H554 0.950 . S
C531 C548 1.574 . S
C531 C550 1.368 . S
C531 H555 0.949 . S
H532 C536 0.949 . S
C533 C534 1.349 . S
C533 C535 1.327 . S
C533 H556 0.950 1_455 S
C534 C533 1.349 . S
C534 C546 1.349 . S
C535 C533 1.327 . S
C535 C551 1.429 . S
C535 H557 0.946 1_455 S
C536 H532 0.949 . S
C536 C544 1.574 . S
C536 C552 1.368 . S
H537 C545 0.950 . S
H538 C543 0.950 . S
H539 C544 0.949 . S
H540 C546 0.950 . S
H541 C547 0.950 . S
H542 C548 0.949 . S
C543 H538 0.950 . S
C543 C545 1.327 . S
C543 C549 1.429 . S
C544 C536 1.574 . S
C544 H539 0.949 . S
C544 C550 1.368 . S
C545 C529 1.349 . S
C545 H537 0.950 . S
C545 C543 1.327 . S
C546 C534 1.349 . S
C546 H540 0.950 . S
C546 C547 1.327 . S
C547 H541 0.950 . S
C547 C546 1.327 . S
C547 C551 1.429 . S
C548 C531 1.574 . S
C548 H542 0.949 . S
C548 C552 1.368 . S
C549 C530 1.429 . S
C549 C543 1.429 . S
C549 C550 1.523 . S
C550 C531 1.368 . S
C550 C544 1.368 . S
C550 C549 1.523 . S
C551 C535 1.429 . S
C551 C547 1.429 . S
C551 C552 1.523 . S
C552 C536 1.368 . S
C552 C548 1.368 . S
C552 C551 1.523 . S
H553 C528 0.950 . S
H554 C530 0.950 . S
H555 C531 0.949 . S
H556 C533 0.950 1_655 S
H557 C535 0.946 1_655 S
C558 C559 1.349 . S
C558 C560 1.327 . S
C558 H583 0.950 . S
C559 C558 1.349 . S
C559 C575 1.349 . S
C560 C558 1.327 . S
C560 C579 1.429 . S
C560 H584 0.950 . S
C561 C578 1.574 . S
C561 C580 1.368 . S
C561 H585 0.949 . S
H562 C566 0.937 1_655 S
C563 C564 1.349 . S
C563 C565 1.327 . S
C563 H586 0.950 . S
C564 C563 1.349 . S
C564 C576 1.349 . S
C565 C563 1.327 . S
C565 C581 1.429 . S
C565 H587 0.950 . S
C566 H562 0.937 1_455 S
C566 C574 1.574 . S
C566 C582 1.382 . S
H567 C575 0.950 . S
H568 C573 0.950 . S
H569 C574 0.949 . S
H570 C576 0.950 . S
H571 C577 0.950 . S
H572 C578 0.949 . S
C573 H568 0.950 . S
C573 C575 1.327 . S
C573 C579 1.429 . S
C574 C566 1.574 . S
C574 H569 0.949 . S
C574 C580 1.368 . S
C575 C559 1.349 . S
C575 H567 0.950 . S
C575 C573 1.327 . S
C576 C564 1.349 . S
C576 H570 0.950 . S
C576 C577 1.327 . S
C577 H571 0.950 . S
C577 C576 1.327 . S
C577 C581 1.429 . S
C578 C561 1.574 . S
C578 H572 0.949 . S
C578 C582 1.384 . S
C579 C560 1.429 . S
C579 C573 1.429 . S
C579 C580 1.523 . S
C580 C561 1.368 . S
C580 C574 1.368 . S
C580 C579 1.523 . S
C581 C565 1.429 . S
C581 C577 1.429 . S
C581 C582 1.486 1_655 S
C582 C566 1.382 . S
C582 C578 1.384 . S
C582 C581 1.486 1_455 S
H583 C558 0.950 . S
H584 C560 0.950 . S
H585 C561 0.949 . S
H586 C563 0.950 . S
H587 C565 0.950 . S
C588 C589 1.349 . S
C588 C590 1.327 . S
C588 H613 0.950 . S
C589 C588 1.349 . S
C589 C605 1.349 . S
C590 C588 1.327 . S
C590 C609 1.429 . S
C590 H614 0.950 . S
C591 C608 1.574 . S
C591 C610 1.368 . S
C591 H615 0.949 . S
H592 C596 0.949 . S
C593 C594 1.349 . S
C593 C595 1.327 . S
C593 H616 0.950 . S
C594 C593 1.349 . S
C594 C606 1.349 . S
C595 C593 1.327 . S
C595 C611 1.429 . S
C595 H617 0.950 . S
C596 H592 0.949 . S
C596 C604 1.574 . S
C596 C612 1.368 . S
H597 C605 0.950 . S
H598 C603 0.950 . S
H599 C604 0.949 . S
H600 C606 0.950 . S
H601 C607 0.950 . S
H602 C608 0.949 . S
C603 H598 0.950 . S
C603 C605 1.327 . S
C603 C609 1.429 . S
C604 C596 1.574 . S
C604 H599 0.949 . S
C604 C610 1.368 . S
C605 C589 1.349 . S
C605 H597 0.950 . S
C605 C603 1.327 . S
C606 C594 1.349 . S
C606 H600 0.950 . S
C606 C607 1.327 . S
C607 H601 0.950 . S
C607 C606 1.327 . S
C607 C611 1.429 . S
C608 C591 1.574 . S
C608 H602 0.949 . S
C608 C612 1.368 . S
C609 C590 1.429 . S
C609 C603 1.429 . S
C609 C610 1.523 . S
C610 C591 1.368 . S
C610 C604 1.368 . S
C610 C609 1.523 . S
C611 C595 1.429 . S
C611 C607 1.429 . S
C611 C612 1.523 . S
C612 C596 1.368 . S
C612 C608 1.368 . S
C612 C611 1.523 . S
H613 C588 0.950 . S
H614 C590 0.950 . S
H615 C591 0.949 . S
H616 C593 0.950 . S
H617 C595 0.950 . S
C618 C619 1.349 . S
C618 C620 1.327 . S
C618 H643 0.950 . S
C619 C618 1.349 . S
C619 C635 1.349 . S
C620 C618 1.327 . S
C620 C639 1.429 . S
C620 H644 0.950 . S
C621 C638 1.574 . S
C621 C640 1.368 . S
C621 H645 0.949 . S
H622 C626 0.949 . S
C623 C624 1.349 . S
C623 C625 1.327 . S
C623 H646 0.950 . S
C624 C623 1.349 . S
C624 C636 1.349 . S
C625 C623 1.327 . S
C625 C641 1.429 . S
C625 H647 0.950 . S
C626 H622 0.949 . S
C626 C634 1.574 . S
C626 C642 1.368 . S
H627 C635 0.950 . S
H628 C633 0.950 . S
H629 C634 0.949 . S
H630 C636 0.950 . S
H631 C637 0.950 . S
H632 C638 0.949 . S
C633 H628 0.950 . S
C633 C635 1.327 . S
C633 C639 1.429 . S
C634 C626 1.574 . S
C634 H629 0.949 . S
C634 C640 1.368 . S
C635 C619 1.349 . S
C635 H627 0.950 . S
C635 C633 1.327 . S
C636 C624 1.349 . S
C636 H630 0.950 . S
C636 C637 1.327 . S
C637 H631 0.950 . S
C637 C636 1.327 . S
C637 C641 1.429 . S
C638 C621 1.574 . S
C638 H632 0.949 . S
C638 C642 1.368 . S
C639 C620 1.429 . S
C639 C633 1.429 . S
C639 C640 1.523 . S
C640 C621 1.368 . S
C640 C634 1.368 . S
C640 C639 1.523 . S
C641 C625 1.429 . S
C641 C637 1.429 . S
C641 C642 1.523 . S
C642 C626 1.368 . S
C642 C638 1.368 . S
C642 C641 1.523 . S
H643 C618 0.950 . S
H644 C620 0.950 . S
H645 C621 0.949 . S
H646 C623 0.950 . S
H647 C625 0.950 . S
C648 C649 1.349 . S
C648 C650 1.327 . S
C648 H673 0.950 . S
C649 C648 1.349 . S
C649 C665 1.349 . S
C650 C648 1.327 . S
C650 C669 1.429 . S
C650 H674 0.950 . S
C651 C668 1.574 . S
C651 C670 1.368 . S
C651 H675 0.949 . S
H652 C656 0.949 . S
C653 C654 1.349 . S
C653 C655 1.327 . S
C653 H676 0.950 1_455 S
C654 C653 1.349 . S
C654 C666 1.349 . S
C655 C653 1.327 . S
C655 C671 1.429 . S
C655 H677 0.943 1_455 S
C656 H652 0.949 . S
C656 C664 1.574 . S
C656 C672 1.368 . S
H657 C665 0.950 . S
H658 C663 0.950 . S
H659 C664 0.949 . S
H660 C666 0.950 . S
H661 C667 0.950 . S
H662 C668 0.949 . S
C663 H658 0.950 . S
C663 C665 1.327 . S
C663 C669 1.429 . S
C664 C656 1.574 . S
C664 H659 0.949 . S
C664 C670 1.368 . S
C665 C649 1.349 . S
C665 H657 0.950 . S
C665 C663 1.327 . S
C666 C654 1.349 . S
C666 H660 0.950 . S
C666 C667 1.327 . S
C667 H661 0.950 . S
C667 C666 1.327 . S
C667 C671 1.429 . S
C668 C651 1.574 . S
C668 H662 0.949 . S
C668 C672 1.368 . S
C669 C650 1.429 . S
C669 C663 1.429 . S
C669 C670 1.523 . S
C670 C651 1.368 . S
C670 C664 1.368 . S
C670 C669 1.523 . S
C671 C655 1.429 . S
C671 C667 1.429 . S
C671 C672 1.523 . S
C672 C656 1.368 . S
C672 C668 1.368 . S
C672 C671 1.523 . S
H673 C648 0.950 . S
H674 C650 0.950 . S
H675 C651 0.949 . S
H676 C653 0.950 1_655 S
H677 C655 0.943 1_655 S
C678 C679 1.349 . S
C678 C680 1.327 . S
C678 H703 0.950 . S
C679 C678 1.349 . S
C679 C695 1.349 . S
C680 C678 1.327 . S
C680 C699 1.429 . S
C680 H704 0.950 . S
C681 C698 1.574 . S
C681 C700 1.368 . S
C681 H705 0.949 . S
H682 C686 0.949 . S
C683 C684 1.349 . S
C683 C685 1.327 . S
C683 H706 0.950 . S
C684 C683 1.349 . S
C684 C696 1.349 . S
C685 C683 1.327 . S
C685 C701 1.429 . S
C685 H707 0.950 . S
C686 H682 0.949 . S
C686 C694 1.574 . S
C686 C702 1.368 . S
H687 C695 0.950 . S
H688 C693 0.950 . S
H689 C694 0.949 . S
H690 C696 0.950 . S
H691 C697 0.950 . S
H692 C698 0.949 . S
C693 H688 0.950 . S
C693 C695 1.327 . S
C693 C699 1.429 . S
C694 C686 1.574 . S
C694 H689 0.949 . S
C694 C700 1.368 . S
C695 C679 1.349 . S
C695 H687 0.950 . S
C695 C693 1.327 . S
C696 C684 1.349 . S
C696 H690 0.950 . S
C696 C697 1.327 . S
C697 H691 0.950 . S
C697 C696 1.327 . S
C697 C701 1.429 . S
C698 C681 1.574 . S
C698 H692 0.949 . S
C698 C702 1.368 . S
C699 C680 1.429 . S
C699 C693 1.429 . S
C699 C700 1.523 . S
C700 C681 1.368 . S
C700 C694 1.368 . S
C700 C699 1.523 . S
C701 C685 1.429 . S
C701 C697 1.429 . S
C701 C702 1.523 . S
C702 C686 1.368 . S
C702 C698 1.368 . S
C702 C701 1.523 . S
H703 C678 0.950 . S
H704 C680 0.950 . S
H705 C681 0.949 . S
H706 C683 0.950 . S
H707 C685 0.950 . S
C708 C709 1.349 . S
C708 C710 1.327 . S
C708 H733 0.950 . S
C709 C708 1.349 . S
C709 C725 1.349 . S
C710 C708 1.327 . S
C710 C729 1.429 . S
C710 H734 0.950 . S
C711 C728 1.574 . S
C711 C730 1.368 . S
C711 H735 0.949 . S
H712 C716 0.949 . S
C713 C714 1.349 . S
C713 C715 1.327 . S
C713 H736 0.950 . S
C714 C713 1.349 . S
C714 C726 1.349 . S
C715 C713 1.327 . S
C715 C731 1.429 . S
C715 H737 0.950 . S
C716 H712 0.949 . S
C716 C724 1.574 . S
C716 C732 1.368 . S
H717 C725 0.950 . S
H718 C723 0.950 . S
H719 C724 0.949 . S
H720 C726 0.950 . S
H721 C727 0.950 . S
H722 C728 0.949 . S
C723 H718 0.950 . S
C723 C725 1.327 . S
C723 C729 1.429 . S
C724 C716 1.574 . S
C724 H719 0.949 . S
C724 C730 1.368 . S
C725 C709 1.349 . S
C725 H717 0.950 . S
C725 C723 1.327 . S
C726 C714 1.349 . S
C726 H720 0.950 . S
C726 C727 1.327 . S
C727 H721 0.950 . S
C727 C726 1.327 . S
C727 C731 1.429 . S
C728 C711 1.574 . S
C728 H722 0.949 . S
C728 C732 1.368 . S
C729 C710 1.429 . S
C729 C723 1.429 . S
C729 C730 1.523 . S
C730 C711 1.368 . S
C730 C724 1.368 . S
C730 C729 1.523 . S
C731 C715 1.429 . S
C731 C727 1.429 . S
C731 C732 1.523 . S
C732 C716 1.368 . S
C732 C728 1.368 . S
C732 C731 1.523 . S
H733 C708 0.950 . S
H734 C710 0.950 . S
H735 C711 0.949 . S
H736 C713 0.950 . S
H737 C715 0.950 . S
C738 C739 1.349 . S
C738 C740 1.327 . S
C738 H763 0.950 . S
C739 C738 1.349 . S
C739 C755 1.349 . S
C740 C738 1.327 . S
C740 C759 1.429 . S
C740 H764 0.950 . S
C741 C758 1.574 . S
C741 C760 1.379 . S
C741 H765 0.933 1_455 S
H742 C746 0.949 . S
C743 C744 1.349 . S
C743 C745 1.327 . S
C743 H766 0.950 . S
C744 C743 1.349 . S
C744 C756 1.349 . S
C745 C743 1.327 . S
C745 C761 1.429 . S
C745 H767 0.950 . S
C746 H742 0.949 . S
C746 C754 1.574 . S
C746 C762 1.368 . S
H747 C755 0.950 . S
H748 C753 0.950 . S
H749 C754 0.949 . S
H750 C756 0.950 . S
H751 C757 0.950 . S
H752 C758 0.949 . S
C753 H748 0.950 . S
C753 C755 1.327 . S
C753 C759 1.429 . S
C754 C746 1.574 . S
C754 H749 0.949 . S
C754 C760 1.381 . S
C755 C739 1.349 . S
C755 H747 0.950 . S
C755 C753 1.327 . S
C756 C744 1.349 . S
C756 H750 0.950 . S
C756 C757 1.327 . S
C757 H751 0.950 . S
C757 C756 1.327 . S
C757 C761 1.429 . S
C758 C741 1.574 . S
C758 H752 0.949 . S
C758 C762 1.368 . S
C759 C740 1.429 . S
C759 C753 1.429 . S
C759 C760 1.493 1_655 S
C760 C741 1.379 . S
C760 C754 1.381 . S
C760 C759 1.493 1_455 S
C761 C745 1.429 . S
C761 C757 1.429 . S
C761 C762 1.523 . S
C762 C746 1.368 . S
C762 C758 1.368 . S
C762 C761 1.523 . S
H763 C738 0.950 . S
H764 C740 0.950 . S
H765 C741 0.933 1_655 S
H766 C743 0.950 . S
H767 C745 0.950 . S
C768 C769 1.349 . S
C768 C770 1.327 . S
C768 H793 0.950 . S
C769 C768 1.349 . S
C769 C785 1.349 . S
C770 C768 1.327 . S
C770 C789 1.429 . S
C770 H794 0.950 . S
C771 C788 1.574 1_554 S
C771 C790 1.389 . S
C771 H795 0.931 1_445 S
H772 C776 0.949 . S
C773 C774 1.349 . S
C773 C775 1.327 . S
C773 H796 0.950 1_445 S
C774 C773 1.349 . S
C774 C786 1.349 . S
C775 C773 1.327 . S
C775 C791 1.429 . S
C775 H797 0.950 1_445 S
C776 H772 0.949 . S
C776 C784 1.574 1_556 S
C776 C792 1.368 . S
H777 C785 0.950 1_655 S
H778 C783 0.950 1_665 S
H779 C784 0.949 . S
H780 C786 0.950 . S
H781 C787 0.950 . S
H782 C788 0.931 1_665 S
C783 H778 0.950 1_445 S
C783 C785 1.327 . S
C783 C789 1.429 . S
C784 C776 1.574 1_554 S
C784 H779 0.949 . S
C784 C790 1.368 . S
C785 C769 1.349 . S
C785 H777 0.950 1_455 S
C785 C783 1.327 . S
C786 C774 1.349 . S
C786 H780 0.950 . S
C786 C787 1.327 . S
C787 H781 0.950 . S
C787 C786 1.327 . S
C787 C791 1.429 . S
C788 C771 1.574 1_556 S
C788 H782 0.931 1_445 S
C788 C792 1.389 . S
C789 C770 1.429 . S
C789 C783 1.429 . S
C789 C790 1.523 . S
C790 C771 1.389 . S
C790 C784 1.368 . S
C790 C789 1.523 . S
C791 C775 1.429 . S
C791 C787 1.429 . S
C791 C792 1.523 . S
C792 C776 1.368 . S
C792 C788 1.389 . S
C792 C791 1.523 . S
H793 C768 0.950 . S
H794 C770 0.950 . S
H795 C771 0.931 1_665 S
H796 C773 0.950 1_665 S
H797 C775 0.950 1_665 S
C798 C799 1.349 . S
C798 C800 1.327 . S
C798 H823 0.950 . S
C799 C798 1.349 . S
C799 C815 1.349 . S
C800 C798 1.327 . S
C800 C819 1.429 . S
C800 H824 0.950 . S
C801 C818 1.574 . S
C801 C820 1.368 . S
C801 H825 0.949 . S
H802 C806 0.949 . S
C803 C804 1.349 . S
C803 C805 1.327 . S
C803 H826 0.950 . S
C804 C803 1.349 . S
C804 C816 1.349 . S
C805 C803 1.327 . S
C805 C821 1.429 . S
C805 H827 0.950 . S
C806 H802 0.949 . S
C806 C814 1.574 . S
C806 C822 1.368 . S
H807 C815 0.950 . S
H808 C813 0.950 . S
H809 C814 0.949 . S
H810 C816 0.950 . S
H811 C817 0.950 . S
H812 C818 0.949 . S
C813 H808 0.950 . S
C813 C815 1.327 . S
C813 C819 1.429 . S
C814 C806 1.574 . S
C814 H809 0.949 . S
C814 C820 1.368 . S
C815 C799 1.349 . S
C815 H807 0.950 . S
C815 C813 1.327 . S
C816 C804 1.349 . S
C816 H810 0.950 . S
C816 C817 1.327 . S
C817 H811 0.950 . S
C817 C816 1.327 . S
C817 C821 1.429 . S
C818 C801 1.574 . S
C818 H812 0.949 . S
C818 C822 1.368 . S
C819 C800 1.429 . S
C819 C813 1.429 . S
C819 C820 1.523 . S
C820 C801 1.368 . S
C820 C814 1.368 . S
C820 C819 1.523 . S
C821 C805 1.429 . S
C821 C817 1.429 . S
C821 C822 1.523 . S
C822 C806 1.368 . S
C822 C818 1.368 . S
C822 C821 1.523 . S
H823 C798 0.950 . S
H824 C800 0.950 . S
H825 C801 0.949 . S
H826 C803 0.950 . S
H827 C805 0.950 . S
C828 C829 1.349 . S
C828 C830 1.327 . S
C828 H853 0.950 1_545 S
C829 C828 1.349 . S
C829 C845 1.349 . S
C830 C828 1.327 . S
C830 C849 1.429 . S
C830 H854 0.950 1_545 S
C831 C848 1.574 . S
C831 C850 1.368 . S
C831 H855 0.949 . S
H832 C836 0.969 . S
C833 C834 1.349 . S
C833 C835 1.327 . S
C833 H856 0.950 . S
C834 C833 1.349 . S
C834 C846 1.349 . S
C835 C833 1.327 . S
C835 C851 1.429 . S
C835 H857 0.950 . S
C836 H832 0.969 . S
C836 C844 1.574 . S
C836 C852 1.368 . S
H837 C845 0.950 . S
H838 C843 0.950 . S
H839 C844 0.949 1_565 S
H840 C846 0.950 . S
H841 C847 0.950 . S
H842 C848 0.949 . S
C843 H838 0.950 . S
C843 C845 1.327 . S
C843 C849 1.429 . S
C844 C836 1.574 . S
C844 H839 0.949 1_545 S
C844 C850 1.368 . S
C845 C829 1.349 . S
C845 H837 0.950 . S
C845 C843 1.327 . S
C846 C834 1.349 . S
C846 H840 0.950 . S
C846 C847 1.327 . S
C847 H841 0.950 . S
C847 C846 1.327 . S
C847 C851 1.429 . S
C848 C831 1.574 . S
C848 H842 0.949 . S
C848 C852 1.368 . S
C849 C830 1.429 . S
C849 C843 1.429 . S
C849 C850 1.523 . S
C850 C831 1.368 . S
C850 C844 1.368 . S
C850 C849 1.523 . S
C851 C835 1.429 . S
C851 C847 1.429 . S
C851 C852 1.523 . S
C852 C836 1.368 . S
C852 C848 1.368 . S
C852 C851 1.523 . S
H853 C828 0.950 1_565 S
H854 C830 0.950 1_565 S
H855 C831 0.949 . S
H856 C833 0.950 . S
H857 C835 0.950 . S
C858 C859 1.349 . S
C858 C860 1.327 . S
C858 H883 0.950 . S
C859 C858 1.349 . S
C859 C875 1.349 . S
C860 C858 1.327 . S
C860 C879 1.429 . S
C860 H884 0.950 . S
C861 C878 1.574 . S
C861 C880 1.368 . S
C861 H885 0.949 . S
H862 C866 0.949 . S
C863 C864 1.349 . S
C863 C865 1.327 . S
C863 H886 0.950 . S
C864 C863 1.349 . S
C864 C876 1.349 . S
C865 C863 1.327 . S
C865 C881 1.429 . S
C865 H887 0.950 . S
C866 H862 0.949 . S
C866 C874 1.574 . S
C866 C882 1.368 . S
H867 C875 0.950 . S
H868 C873 0.950 . S
H869 C874 0.949 . S
H870 C876 0.950 . S
H871 C877 0.950 . S
H872 C878 0.949 . S
C873 H868 0.950 . S
C873 C875 1.327 . S
C873 C879 1.429 . S
C874 C866 1.574 . S
C874 H869 0.949 . S
C874 C880 1.368 . S
C875 C859 1.349 . S
C875 H867 0.950 . S
C875 C873 1.327 . S
C876 C864 1.349 . S
C876 H870 0.950 . S
C876 C877 1.327 . S
C877 H871 0.950 . S
C877 C876 1.327 . S
C877 C881 1.429 . S
C878 C861 1.574 . S
C878 H872 0.949 . S
C878 C882 1.368 . S
C879 C860 1.429 . S
C879 C873 1.429 . S
C879 C880 1.523 . S
C880 C861 1.368 . S
C880 C874 1.368 . S
C880 C879 1.523 . S
C881 C865 1.429 . S
C881 C877 1.429 . S
C881 C882 1.523 . S
C882 C866 1.368 . S
C882 C878 1.368 . S
C882 C881 1.523 . S
H883 C858 0.950 . S
H884 C860 0.950 . S
H885 C861 0.949 . S
H886 C863 0.950 . S
H887 C865 0.950 . S
C888 C889 1.349 . S
C888 C890 1.327 . S
C888 H913 0.950 . S
C889 C888 1.349 . S
C889 C905 1.349 . S
C890 C888 1.327 . S
C890 C909 1.429 . S
C890 H914 0.950 . S
C891 C908 1.574 . S
C891 C910 1.368 . S
C891 H915 0.949 . S
H892 C896 0.949 . S
C893 C894 1.349 . S
C893 C895 1.327 . S
C893 H916 0.950 . S
C894 C893 1.349 . S
C894 C906 1.349 . S
C895 C893 1.327 . S
C895 C911 1.429 . S
C895 H917 0.950 . S
C896 H892 0.949 . S
C896 C904 1.574 . S
C896 C912 1.368 . S
H897 C905 0.950 . S
H898 C903 0.950 . S
H899 C904 0.949 . S
H900 C906 0.950 . S
H901 C907 0.950 . S
H902 C908 0.949 . S
C903 H898 0.950 . S
C903 C905 1.327 . S
C903 C909 1.429 . S
C904 C896 1.574 . S
C904 H899 0.949 . S
C904 C910 1.368 . S
C905 C889 1.349 . S
C905 H897 0.950 . S
C905 C903 1.327 . S
C906 C894 1.349 . S
C906 H900 0.950 . S
C906 C907 1.327 . S
C907 H901 0.950 . S
C907 C906 1.327 . S
C907 C911 1.429 . S
C908 C891 1.574 . S
C908 H902 0.949 . S
C908 C912 1.368 . S
C909 C890 1.429 . S
C909 C903 1.429 . S
C909 C910 1.523 . S
C910 C891 1.368 . S
C910 C904 1.368 . S
C910 C909 1.523 . S
C911 C895 1.429 . S
C911 C907 1.429 . S
C911 C912 1.523 . S
C912 C896 1.368 . S
C912 C908 1.368 . S
C912 C911 1.523 . S
H913 C888 0.950 . S
H914 C890 0.950 . S
H915 C891 0.949 . S
H916 C893 0.950 . S
H917 C895 0.950 . S
C918 C919 1.349 . S
C918 C920 1.327 . S
C918 H943 0.950 . S
C919 C918 1.349 . S
C919 C935 1.349 . S
C920 C918 1.327 . S
C920 C939 1.429 . S
C920 H944 0.950 . S
C921 C938 1.574 . S
C921 C940 1.368 . S
C921 H945 0.949 . S
H922 C926 0.949 . S
C923 C924 1.349 . S
C923 C925 1.327 . S
C923 H946 0.950 . S
C924 C923 1.349 . S
C924 C936 1.349 . S
C925 C923 1.327 . S
C925 C941 1.429 . S
C925 H947 0.950 . S
C926 H922 0.949 . S
C926 C934 1.574 . S
C926 C942 1.368 . S
H927 C935 0.950 . S
H928 C933 0.950 . S
H929 C934 0.949 . S
H930 C936 0.950 . S
H931 C937 0.950 . S
H932 C938 0.949 . S
C933 H928 0.950 . S
C933 C935 1.327 . S
C933 C939 1.429 . S
C934 C926 1.574 . S
C934 H929 0.949 . S
C934 C940 1.368 . S
C935 C919 1.349 . S
C935 H927 0.950 . S
C935 C933 1.327 . S
C936 C924 1.349 . S
C936 H930 0.950 . S
C936 C937 1.327 . S
C937 H931 0.950 . S
C937 C936 1.327 . S
C937 C941 1.429 . S
C938 C921 1.574 . S
C938 H932 0.949 . S
C938 C942 1.368 . S
C939 C920 1.429 . S
C939 C933 1.429 . S
C939 C940 1.523 . S
C940 C921 1.368 . S
C940 C934 1.368 . S
C940 C939 1.523 . S
C941 C925 1.429 . S
C941 C937 1.429 . S
C941 C942 1.523 . S
C942 C926 1.368 . S
C942 C938 1.368 . S
C942 C941 1.523 . S
H943 C918 0.950 . S
H944 C920 0.950 . S
H945 C921 0.949 . S
H946 C923 0.950 . S
H947 C925 0.950 . S
C948 C949 1.349 . S
C948 C950 1.327 . S
C948 H973 0.950 . S
C949 C948 1.349 . S
C949 C965 1.349 . S
C950 C948 1.327 . S
C950 C969 1.429 . S
C950 H974 0.950 . S
C951 C968 1.574 . S
C951 C970 1.368 . S
C951 H975 0.949 . S
H952 C956 0.949 . S
C953 C954 1.349 . S
C953 C955 1.327 . S
C953 H976 0.950 . S
C954 C953 1.349 . S
C954 C966 1.349 . S
C955 C953 1.327 . S
C955 C971 1.429 . S
C955 H977 0.950 . S
C956 H952 0.949 . S
C956 C964 1.574 . S
C956 C972 1.368 . S
H957 C965 0.950 . S
H958 C963 0.950 . S
H959 C964 0.949 . S
H960 C966 0.950 . S
H961 C967 0.950 . S
H962 C968 0.949 . S
C963 H958 0.950 . S
C963 C965 1.327 . S
C963 C969 1.429 . S
C964 C956 1.574 . S
C964 H959 0.949 . S
C964 C970 1.368 . S
C965 C949 1.349 . S
C965 H957 0.950 . S
C965 C963 1.327 . S
C966 C954 1.349 . S
C966 H960 0.950 . S
C966 C967 1.327 . S
C967 H961 0.950 . S
C967 C966 1.327 . S
C967 C971 1.429 . S
C968 C951 1.574 . S
C968 H962 0.949 . S
C968 C972 1.368 . S
C969 C950 1.429 . S
C969 C963 1.429 . S
C969 C970 1.523 . S
C970 C951 1.368 . S
C970 C964 1.368 . S
C970 C969 1.523 . S
C971 C955 1.429 . S
C971 C967 1.429 . S
C971 C972 1.523 . S
C972 C956 1.368 . S
C972 C968 1.368 . S
C972 C971 1.523 . S
H973 C948 0.950 . S
H974 C950 0.950 . S
H975 C951 0.949 . S
H976 C953 0.950 . S
H977 C955 0.950 . S
C978 C979 1.349 . S
C978 C980 1.327 . S
C978 H1003 0.950 . S
C979 C978 1.349 . S
C979 C995 1.349 . S
C980 C978 1.327 . S
C980 C999 1.429 . S
C980 H1004 0.950 . S
C981 C998 1.574 1_556 S
C981 C1000 1.368 . S
C981 H1005 0.949 . S
H982 C986 0.949 . S
C983 C984 1.349 . S
C983 C985 1.327 . S
C983 H1006 0.950 . S
C984 C983 1.349 . S
C984 C996 1.349 . S
C985 C983 1.327 . S
C985 C1001 1.429 . S
C985 H1007 0.950 . S
C986 H982 0.949 . S
C986 C994 1.574 1_554 S
C986 C1002 1.368 . S
H987 C995 0.950 . S
H988 C993 0.950 . S
H989 C994 0.949 . S
H990 C996 0.950 . S
H991 C997 0.950 . S
H992 C998 0.949 . S
C993 H988 0.950 . S
C993 C995 1.327 . S
C993 C999 1.429 . S
C994 C986 1.574 1_556 S
C994 H989 0.949 . S
C994 C1000 1.368 . S
C995 C979 1.349 . S
C995 H987 0.950 . S
C995 C993 1.327 . S
C996 C984 1.349 . S
C996 H990 0.950 . S
C996 C997 1.327 . S
C997 H991 0.950 . S
C997 C996 1.327 . S
C997 C1001 1.429 . S
C998 C981 1.574 1_554 S
C998 H992 0.949 . S
C998 C1002 1.368 . S
C999 C980 1.429 . S
C999 C993 1.429 . S
C999 C1000 1.523 . S
C1000 C981 1.368 . S
C1000 C994 1.368 . S
C1000 C999 1.523 . S
C1001 C985 1.429 . S
C1001 C997 1.429 . S
C1001 C1002 1.523 . S
C1002 C986 1.368 . S
C1002 C998 1.368 . S
C1002 C1001 1.523 . S
H1003 C978 0.950 . S
H1004 C980 0.950 . S
H1005 C981 0.949 . S
H1006 C983 0.950 . S
H1007 C985 0.950 . S
C1008 C1009 1.349 . S
C1008 C1010 1.327 . S
C1008 H1033 0.950 . S
C1009 C1008 1.349 . S
C1009 C1025 1.349 . S
C1010 C1008 1.327 . S
C1010 C1029 1.429 . S
C1010 H1034 0.950 . S
C1011 C1028 1.574 . S
C1011 C1030 1.368 . S
C1011 H1035 0.949 . S
H1012 C1016 0.949 . S
C1013 C1014 1.349 1_545 S
C1013 C1015 1.327 1_545 S
C1013 H1036 0.950 . S
C1014 C1013 1.349 1_565 S
C1014 C1026 1.349 . S
C1015 C1013 1.327 1_565 S
C1015 C1031 1.429 . S
C1015 H1037 0.950 1_565 S
C1016 H1012 0.949 . S
C1016 C1024 1.574 . S
C1016 C1032 1.368 . S
H1017 C1025 0.950 . S
H1018 C1023 0.950 . S
H1019 C1024 0.949 . S
H1020 C1026 0.950 . S
H1021 C1027 0.950 . S
H1022 C1028 0.949 . S
C1023 H1018 0.950 . S
C1023 C1025 1.327 . S
C1023 C1029 1.429 . S
C1024 C1016 1.574 . S
C1024 H1019 0.949 . S
C1024 C1030 1.368 . S
C1025 C1009 1.349 . S
C1025 H1017 0.950 . S
C1025 C1023 1.327 . S
C1026 C1014 1.349 . S
C1026 H1020 0.950 . S
C1026 C1027 1.327 . S
C1027 H1021 0.950 . S
C1027 C1026 1.327 . S
C1027 C1031 1.429 . S
C1028 C1011 1.574 . S
C1028 H1022 0.949 . S
C1028 C1032 1.368 . S
C1029 C1010 1.429 . S
C1029 C1023 1.429 . S
C1029 C1030 1.523 . S
C1030 C1011 1.368 . S
C1030 C1024 1.368 . S
C1030 C1029 1.523 . S
C1031 C1015 1.429 . S
C1031 C1027 1.429 . S
C1031 C1032 1.523 . S
C1032 C1016 1.368 . S
C1032 C1028 1.368 . S
C1032 C1031 1.523 . S
H1033 C1008 0.950 . S
H1034 C1010 0.950 . S
H1035 C1011 0.949 . S
H1036 C1013 0.950 . S
H1037 C1015 0.950 1_545 S
C1038 C1039 1.349 . S
C1038 C1040 1.327 . S
C1038 H1063 0.950 . S
C1039 C1038 1.349 . S
C1039 C1055 1.349 . S
C1040 C1038 1.327 . S
C1040 C1059 1.429 . S
C1040 H1064 0.950 . S
C1041 C1058 1.574 . S
C1041 C1060 1.368 . S
C1041 H1065 0.949 . S
H1042 C1046 0.949 . S
C1043 C1044 1.349 1_545 S
C1043 C1045 1.327 1_545 S
C1043 H1066 0.950 . S
C1044 C1043 1.349 1_565 S
C1044 C1056 1.349 . S
C1045 C1043 1.327 1_565 S
C1045 C1061 1.429 . S
C1045 H1067 0.949 1_565 S
C1046 H1042 0.949 . S
C1046 C1054 1.574 . S
C1046 C1062 1.368 . S
H1047 C1055 0.950 . S
H1048 C1053 0.950 . S
H1049 C1054 0.949 . S
H1050 C1056 0.950 . S
H1051 C1057 0.950 . S
H1052 C1058 0.949 . S
C1053 H1048 0.950 . S
C1053 C1055 1.327 . S
C1053 C1059 1.429 . S
C1054 C1046 1.574 . S
C1054 H1049 0.949 . S
C1054 C1060 1.368 . S
C1055 C1039 1.349 . S
C1055 H1047 0.950 . S
C1055 C1053 1.327 . S
C1056 C1044 1.349 . S
C1056 H1050 0.950 . S
C1056 C1057 1.327 . S
C1057 H1051 0.950 . S
C1057 C1056 1.327 . S
C1057 C1061 1.429 . S
C1058 C1041 1.574 . S
C1058 H1052 0.949 . S
C1058 C1062 1.368 . S
C1059 C1040 1.429 . S
C1059 C1053 1.429 . S
C1059 C1060 1.523 . S
C1060 C1041 1.368 . S
C1060 C1054 1.368 . S
C1060 C1059 1.523 . S
C1061 C1045 1.429 . S
C1061 C1057 1.429 . S
C1061 C1062 1.523 . S
C1062 C1046 1.368 . S
C1062 C1058 1.368 . S
C1062 C1061 1.523 . S
H1063 C1038 0.950 . S
H1064 C1040 0.950 . S
H1065 C1041 0.949 . S
H1066 C1043 0.950 . S
H1067 C1045 0.949 1_545 S
C1068 C1069 1.349 . S
C1068 C1070 1.327 . S
C1068 H1093 0.950 . S
C1069 C1068 1.349 . S
C1069 C1085 1.349 . S
C1070 C1068 1.327 . S
C1070 C1089 1.429 . S
C1070 H1094 0.950 . S
C1071 C1088 1.574 . S
C1071 C1090 1.368 . S
C1071 H1095 0.949 . S
H1072 C1076 0.949 . S
C1073 C1074 1.349 . S
C1073 C1075 1.327 . S
C1073 H1096 0.950 . S
C1074 C1073 1.349 . S
C1074 C1086 1.349 . S
C1075 C1073 1.327 . S
C1075 C1091 1.429 . S
C1075 H1097 0.950 . S
C1076 H1072 0.949 . S
C1076 C1084 1.574 . S
C1076 C1092 1.368 . S
H1077 C1085 0.950 . S
H1078 C1083 0.950 . S
H1079 C1084 0.949 . S
H1080 C1086 0.950 . S
H1081 C1087 0.950 . S
H1082 C1088 0.949 . S
C1083 H1078 0.950 . S
C1083 C1085 1.327 . S
C1083 C1089 1.429 . S
C1084 C1076 1.574 . S
C1084 H1079 0.949 . S
C1084 C1090 1.368 . S
C1085 C1069 1.349 . S
C1085 H1077 0.950 . S
C1085 C1083 1.327 . S
C1086 C1074 1.349 . S
C1086 H1080 0.950 . S
C1086 C1087 1.327 . S
C1087 H1081 0.950 . S
C1087 C1086 1.327 . S
C1087 C1091 1.429 . S
C1088 C1071 1.574 . S
C1088 H1082 0.949 . S
C1088 C1092 1.368 . S
C1089 C1070 1.429 . S
C1089 C1083 1.429 . S
C1089 C1090 1.523 . S
C1090 C1071 1.368 . S
C1090 C1084 1.368 . S
C1090 C1089 1.523 . S
C1091 C1075 1.429 . S
C1091 C1087 1.429 . S
C1091 C1092 1.523 . S
C1092 C1076 1.368 . S
C1092 C1088 1.368 . S
C1092 C1091 1.523 . S
H1093 C1068 0.950 . S
H1094 C1070 0.950 . S
H1095 C1071 0.949 . S
H1096 C1073 0.950 . S
H1097 C1075 0.950 . S
C1098 C1099 1.349 . S
C1098 C1100 1.327 . S
C1098 H1123 0.950 . S
C1099 C1098 1.349 . S
C1099 C1115 1.349 . S
C1100 C1098 1.327 . S
C1100 C1119 1.429 . S
C1100 H1124 0.950 . S
C1101 C1118 1.574 . S
C1101 C1120 1.368 . S
C1101 H1125 0.949 . S
H1102 C1106 0.949 . S
C1103 C1104 1.349 . S
C1103 C1105 1.327 . S
C1103 H1126 0.950 . S
C1104 C1103 1.349 . S
C1104 C1116 1.349 . S
C1105 C1103 1.327 . S
C1105 C1121 1.429 . S
C1105 H1127 0.950 . S
C1106 H1102 0.949 . S
C1106 C1114 1.574 . S
C1106 C1122 1.368 . S
H1107 C1115 0.950 . S
H1108 C1113 0.950 . S
H1109 C1114 0.949 . S
H1110 C1116 0.950 . S
H1111 C1117 0.950 . S
H1112 C1118 0.949 . S
C1113 H1108 0.950 . S
C1113 C1115 1.327 . S
C1113 C1119 1.429 . S
C1114 C1106 1.574 . S
C1114 H1109 0.949 . S
C1114 C1120 1.368 . S
C1115 C1099 1.349 . S
C1115 H1107 0.950 . S
C1115 C1113 1.327 . S
C1116 C1104 1.349 . S
C1116 H1110 0.950 . S
C1116 C1117 1.327 . S
C1117 H1111 0.950 . S
C1117 C1116 1.327 . S
C1117 C1121 1.429 . S
C1118 C1101 1.574 . S
C1118 H1112 0.949 . S
C1118 C1122 1.368 . S
C1119 C1100 1.429 . S
C1119 C1113 1.429 . S
C1119 C1120 1.523 . S
C1120 C1101 1.368 . S
C1120 C1114 1.368 . S
C1120 C1119 1.523 . S
C1121 C1105 1.429 . S
C1121 C1117 1.429 . S
C1121 C1122 1.523 . S
C1122 C1106 1.368 . S
C1122 C1118 1.368 . S
C1122 C1121 1.523 . S
H1123 C1098 0.950 . S
H1124 C1100 0.950 . S
H1125 C1101 0.949 . S
H1126 C1103 0.950 . S
H1127 C1105 0.950 . S
C1128 C1129 1.349 . S
C1128 C1130 1.327 . S
C1128 H1153 0.950 . S
C1129 C1128 1.349 . S
C1129 C1145 1.349 . S
C1130 C1128 1.327 . S
C1130 C1149 1.429 . S
C1130 H1154 0.950 . S
C1131 C1148 1.574 . S
C1131 C1150 1.368 . S
C1131 H1155 0.949 . S
H1132 C1136 0.949 . S
C1133 C1134 1.349 . S
C1133 C1135 1.327 . S
C1133 H1156 0.950 . S
C1134 C1133 1.349 . S
C1134 C1146 1.349 . S
C1135 C1133 1.327 . S
C1135 C1151 1.429 . S
C1135 H1157 0.950 . S
C1136 H1132 0.949 . S
C1136 C1144 1.574 . S
C1136 C1152 1.368 . S
H1137 C1145 0.950 . S
H1138 C1143 0.950 . S
H1139 C1144 0.949 . S
H1140 C1146 0.950 . S
H1141 C1147 0.950 . S
H1142 C1148 0.949 . S
C1143 H1138 0.950 . S
C1143 C1145 1.327 . S
C1143 C1149 1.429 . S
C1144 C1136 1.574 . S
C1144 H1139 0.949 . S
C1144 C1150 1.368 . S
C1145 C1129 1.349 . S
C1145 H1137 0.950 . S
C1145 C1143 1.327 . S
C1146 C1134 1.349 . S
C1146 H1140 0.950 . S
C1146 C1147 1.327 . S
C1147 H1141 0.950 . S
C1147 C1146 1.327 . S
C1147 C1151 1.429 . S
C1148 C1131 1.574 . S
C1148 H1142 0.949 . S
C1148 C1152 1.368 . S
C1149 C1130 1.429 . S
C1149 C1143 1.429 . S
C1149 C1150 1.523 . S
C1150 C1131 1.368 . S
C1150 C1144 1.368 . S
C1150 C1149 1.523 . S
C1151 C1135 1.429 . S
C1151 C1147 1.429 . S
C1151 C1152 1.523 . S
C1152 C1136 1.368 . S
C1152 C1148 1.368 . S
C1152 C1151 1.523 . S
H1153 C1128 0.950 . S
H1154 C1130 0.950 . S
H1155 C1131 0.949 . S
H1156 C1133 0.950 . S
H1157 C1135 0.950 . S
C1158 C1159 1.349 . S
C1158 C1160 1.327 . S
C1158 H1183 0.950 . S
C1159 C1158 1.349 . S
C1159 C1175 1.349 . S
C1160 C1158 1.327 . S
C1160 C1179 1.429 . S
C1160 H1184 0.950 . S
C1161 C1178 1.574 . S
C1161 C1180 1.368 . S
C1161 H1185 0.949 . S
H1162 C1166 0.949 . S
C1163 C1164 1.349 . S
C1163 C1165 1.327 . S
C1163 H1186 0.950 . S
C1164 C1163 1.349 . S
C1164 C1176 1.349 . S
C1165 C1163 1.327 . S
C1165 C1181 1.429 . S
C1165 H1187 0.950 . S
C1166 H1162 0.949 . S
C1166 C1174 1.574 . S
C1166 C1182 1.368 . S
H1167 C1175 0.950 1_565 S
H1168 C1173 0.950 . S
H1169 C1174 0.949 . S
H1170 C1176 0.950 . S
H1171 C1177 0.950 . S
H1172 C1178 0.949 . S
C1173 H1168 0.950 . S
C1173 C1175 1.327 . S
C1173 C1179 1.429 . S
C1174 C1166 1.574 . S
C1174 H1169 0.949 . S
C1174 C1180 1.368 . S
C1175 C1159 1.349 . S
C1175 H1167 0.950 1_545 S
C1175 C1173 1.327 . S
C1176 C1164 1.349 . S
C1176 H1170 0.950 . S
C1176 C1177 1.327 . S
C1177 H1171 0.950 . S
C1177 C1176 1.327 . S
C1177 C1181 1.429 . S
C1178 C1161 1.574 . S
C1178 H1172 0.949 . S
C1178 C1182 1.368 . S
C1179 C1160 1.429 . S
C1179 C1173 1.429 . S
C1179 C1180 1.523 . S
C1180 C1161 1.368 . S
C1180 C1174 1.368 . S
C1180 C1179 1.523 . S
C1181 C1165 1.429 . S
C1181 C1177 1.429 . S
C1181 C1182 1.523 . S
C1182 C1166 1.368 . S
C1182 C1178 1.368 . S
C1182 C1181 1.523 . S
H1183 C1158 0.950 . S
H1184 C1160 0.950 . S
H1185 C1161 0.949 . S
H1186 C1163 0.950 . S
H1187 C1165 0.950 . S
C1188 C1189 1.349 . S
C1188 C1190 1.327 . S
C1188 H1213 0.950 . S
C1189 C1188 1.349 . S
C1189 C1205 1.349 . S
C1190 C1188 1.327 . S
C1190 C1209 1.429 . S
C1190 H1214 0.950 . S
C1191 C1208 1.574 . S
C1191 C1210 1.368 . S
C1191 H1215 0.949 . S
H1192 C1196 0.949 . S
C1193 C1194 1.349 . S
C1193 C1195 1.327 . S
C1193 H1216 0.950 . S
C1194 C1193 1.349 . S
C1194 C1206 1.349 . S
C1195 C1193 1.327 . S
C1195 C1211 1.429 1_545 S
C1195 H1217 0.950 1_545 S
C1196 H1192 0.949 . S
C1196 C1204 1.574 . S
C1196 C1212 1.368 . S
H1197 C1205 0.950 . S
H1198 C1203 0.950 . S
H1199 C1204 0.949 . S
H1200 C1206 0.950 . S
H1201 C1207 0.950 . S
H1202 C1208 0.949 . S
C1203 H1198 0.950 . S
C1203 C1205 1.327 . S
C1203 C1209 1.429 . S
C1204 C1196 1.574 . S
C1204 H1199 0.949 . S
C1204 C1210 1.368 . S
C1205 C1189 1.349 . S
C1205 H1197 0.950 . S
C1205 C1203 1.327 . S
C1206 C1194 1.349 . S
C1206 H1200 0.950 . S
C1206 C1207 1.327 . S
C1207 H1201 0.950 . S
C1207 C1206 1.327 . S
C1207 C1211 1.429 1_545 S
C1208 C1191 1.574 . S
C1208 H1202 0.949 . S
C1208 C1212 1.368 . S
C1209 C1190 1.429 . S
C1209 C1203 1.429 . S
C1209 C1210 1.523 . S
C1210 C1191 1.368 . S
C1210 C1204 1.368 . S
C1210 C1209 1.523 . S
C1211 C1195 1.429 1_565 S
C1211 C1207 1.429 1_565 S
C1211 C1212 1.523 . S
C1212 C1196 1.368 . S
C1212 C1208 1.368 . S
C1212 C1211 1.523 . S
H1213 C1188 0.950 . S
H1214 C1190 0.950 . S
H1215 C1191 0.949 . S
H1216 C1193 0.950 . S
H1217 C1195 0.950 1_565 S
C1218 C1219 1.349 . S
C1218 C1220 1.327 . S
C1218 H1243 0.950 . S
C1219 C1218 1.349 . S
C1219 C1235 1.349 . S
C1220 C1218 1.327 . S
C1220 C1239 1.429 . S
C1220 H1244 0.950 . S
C1221 C1238 1.574 . S
C1221 C1240 1.368 . S
C1221 H1245 0.949 . S
H1222 C1226 0.949 . S
C1223 C1224 1.349 . S
C1223 C1225 1.347 . S
C1223 H1246 0.950 . S
C1224 C1223 1.349 . S
C1224 C1236 1.349 . S
C1225 C1223 1.347 . S
C1225 C1241 1.426 1_545 S
C1225 H1247 0.933 1_545 S
C1226 H1222 0.949 . S
C1226 C1234 1.574 . S
C1226 C1242 1.368 . S
H1227 C1235 0.950 . S
H1228 C1233 0.950 . S
H1229 C1234 0.949 . S
H1230 C1236 0.950 . S
H1231 C1237 0.950 . S
H1232 C1238 0.949 . S
C1233 H1228 0.950 . S
C1233 C1235 1.327 . S
C1233 C1239 1.429 . S
C1234 C1226 1.574 . S
C1234 H1229 0.949 . S
C1234 C1240 1.368 . S
C1235 C1219 1.349 . S
C1235 H1227 0.950 . S
C1235 C1233 1.327 . S
C1236 C1224 1.349 . S
C1236 H1230 0.950 . S
C1236 C1237 1.327 . S
C1237 H1231 0.950 . S
C1237 C1236 1.327 . S
C1237 C1241 1.429 1_545 S
C1238 C1221 1.574 . S
C1238 H1232 0.949 . S
C1238 C1242 1.368 . S
C1239 C1220 1.429 . S
C1239 C1233 1.429 . S
C1239 C1240 1.523 . S
C1240 C1221 1.368 . S
C1240 C1234 1.368 . S
C1240 C1239 1.523 . S
C1241 C1225 1.426 1_565 S
C1241 C1237 1.429 1_565 S
C1241 C1242 1.523 . S
C1242 C1226 1.368 . S
C1242 C1238 1.368 . S
C1242 C1241 1.523 . S
H1243 C1218 0.950 . S
H1244 C1220 0.950 . S
H1245 C1221 0.949 . S
H1246 C1223 0.950 . S
H1247 C1225 0.933 1_565 S
C1248 C1249 1.349 . S
C1248 C1250 1.327 . S
C1248 H1273 0.950 . S
C1249 C1248 1.349 . S
C1249 C1265 1.349 . S
C1250 C1248 1.327 . S
C1250 C1269 1.429 . S
C1250 H1274 0.950 . S
C1251 C1268 1.574 . S
C1251 C1270 1.368 . S
C1251 H1275 0.949 . S
H1252 C1256 0.949 . S
C1253 C1254 1.349 . S
C1253 C1255 1.327 . S
C1253 H1276 0.950 . S
C1254 C1253 1.349 . S
C1254 C1266 1.349 . S
C1255 C1253 1.327 . S
C1255 C1271 1.429 . S
C1255 H1277 0.950 . S
C1256 H1252 0.949 . S
C1256 C1264 1.574 . S
C1256 C1272 1.368 . S
H1257 C1265 0.950 . S
H1258 C1263 0.950 . S
H1259 C1264 0.949 . S
H1260 C1266 0.950 . S
H1261 C1267 0.950 . S
H1262 C1268 0.949 . S
C1263 H1258 0.950 . S
C1263 C1265 1.327 . S
C1263 C1269 1.429 . S
C1264 C1256 1.574 . S
C1264 H1259 0.949 . S
C1264 C1270 1.368 . S
C1265 C1249 1.349 . S
C1265 H1257 0.950 . S
C1265 C1263 1.327 . S
C1266 C1254 1.349 . S
C1266 H1260 0.950 . S
C1266 C1267 1.327 . S
C1267 H1261 0.950 . S
C1267 C1266 1.327 . S
C1267 C1271 1.429 . S
C1268 C1251 1.574 . S
C1268 H1262 0.949 . S
C1268 C1272 1.368 . S
C1269 C1250 1.429 . S
C1269 C1263 1.429 . S
C1269 C1270 1.523 . S
C1270 C1251 1.368 . S
C1270 C1264 1.368 . S
C1270 C1269 1.523 . S
C1271 C1255 1.429 . S
C1271 C1267 1.429 . S
C1271 C1272 1.523 . S
C1272 C1256 1.368 . S
C1272 C1268 1.368 . S
C1272 C1271 1.523 . S
H1273 C1248 0.950 . S
H1274 C1250 0.950 . S
H1275 C1251 0.949 . S
H1276 C1253 0.950 . S
H1277 C1255 0.950 . S
C1278 C1279 1.349 . S
C1278 C1280 1.327 . S
C1278 H1303 0.950 . S
C1279 C1278 1.349 . S
C1279 C1295 1.349 . S
C1280 C1278 1.327 . S
C1280 C1299 1.429 . S
C1280 H1304 0.950 . S
C1281 C1298 1.574 . S
C1281 C1300 1.368 . S
C1281 H1305 0.949 . S
H1282 C1286 0.949 . S
C1283 C1284 1.349 . S
C1283 C1285 1.327 . S
C1283 H1306 0.950 . S
C1284 C1283 1.349 . S
C1284 C1296 1.349 . S
C1285 C1283 1.327 . S
C1285 C1301 1.429 . S
C1285 H1307 0.950 . S
C1286 H1282 0.949 . S
C1286 C1294 1.574 . S
C1286 C1302 1.368 . S
H1287 C1295 0.950 . S
H1288 C1293 0.950 . S
H1289 C1294 0.949 . S
H1290 C1296 0.950 . S
H1291 C1297 0.950 . S
H1292 C1298 0.949 . S
C1293 H1288 0.950 . S
C1293 C1295 1.327 . S
C1293 C1299 1.429 . S
C1294 C1286 1.574 . S
C1294 H1289 0.949 . S
C1294 C1300 1.368 . S
C1295 C1279 1.349 . S
C1295 H1287 0.950 . S
C1295 C1293 1.327 . S
C1296 C1284 1.349 . S
C1296 H1290 0.950 . S
C1296 C1297 1.327 . S
C1297 H1291 0.950 . S
C1297 C1296 1.327 . S
C1297 C1301 1.429 . S
C1298 C1281 1.574 . S
C1298 H1292 0.949 . S
C1298 C1302 1.368 . S
C1299 C1280 1.429 . S
C1299 C1293 1.429 . S
C1299 C1300 1.523 . S
C1300 C1281 1.368 . S
C1300 C1294 1.368 . S
C1300 C1299 1.523 . S
C1301 C1285 1.429 . S
C1301 C1297 1.429 . S
C1301 C1302 1.523 . S
C1302 C1286 1.368 . S
C1302 C1298 1.368 . S
C1302 C1301 1.523 . S
H1303 C1278 0.950 . S
H1304 C1280 0.950 . S
H1305 C1281 0.949 . S
H1306 C1283 0.950 . S
H1307 C1285 0.950 . S
C1308 C1309 1.349 . S
C1308 C1310 1.327 . S
C1308 H1333 0.950 . S
C1309 C1308 1.349 . S
C1309 C1325 1.349 . S
C1310 C1308 1.327 . S
C1310 C1329 1.429 . S
C1310 H1334 0.950 . S
C1311 C1328 1.574 . S
C1311 C1330 1.368 . S
C1311 H1335 0.949 . S
H1312 C1316 0.949 . S
C1313 C1314 1.349 . S
C1313 C1315 1.327 . S
C1313 H1336 0.950 . S
C1314 C1313 1.349 . S
C1314 C1326 1.349 . S
C1315 C1313 1.327 . S
C1315 C1331 1.429 . S
C1315 H1337 0.950 . S
C1316 H1312 0.949 . S
C1316 C1324 1.574 . S
C1316 C1332 1.368 . S
H1317 C1325 0.950 . S
H1318 C1323 0.950 . S
H1319 C1324 0.949 . S
H1320 C1326 0.950 . S
H1321 C1327 0.950 . S
H1322 C1328 0.949 . S
C1323 H1318 0.950 . S
C1323 C1325 1.327 . S
C1323 C1329 1.429 . S
C1324 C1316 1.574 . S
C1324 H1319 0.949 . S
C1324 C1330 1.368 . S
C1325 C1309 1.349 . S
C1325 H1317 0.950 . S
C1325 C1323 1.327 . S
C1326 C1314 1.349 . S
C1326 H1320 0.950 . S
C1326 C1327 1.327 . S
C1327 H1321 0.950 . S
C1327 C1326 1.327 . S
C1327 C1331 1.429 . S
C1328 C1311 1.574 . S
C1328 H1322 0.949 . S
C1328 C1332 1.368 . S
C1329 C1310 1.429 . S
C1329 C1323 1.429 . S
C1329 C1330 1.523 . S
C1330 C1311 1.368 . S
C1330 C1324 1.368 . S
C1330 C1329 1.523 . S
C1331 C1315 1.429 . S
C1331 C1327 1.429 . S
C1331 C1332 1.523 . S
C1332 C1316 1.368 . S
C1332 C1328 1.368 . S
C1332 C1331 1.523 . S
H1333 C1308 0.950 . S
H1334 C1310 0.950 . S
H1335 C1311 0.949 . S
H1336 C1313 0.950 . S
H1337 C1315 0.950 . S
C1338 C1339 1.349 . S
C1338 C1340 1.327 . S
C1338 H1363 0.950 . S
C1339 C1338 1.349 . S
C1339 C1355 1.349 . S
C1340 C1338 1.327 . S
C1340 C1359 1.429 . S
C1340 H1364 0.950 . S
C1341 C1358 1.574 . S
C1341 C1360 1.368 . S
C1341 H1365 0.949 . S
H1342 C1346 0.949 . S
C1343 C1344 1.349 . S
C1343 C1345 1.327 . S
C1343 H1366 0.950 . S
C1344 C1343 1.349 . S
C1344 C1356 1.349 . S
C1345 C1343 1.327 . S
C1345 C1361 1.429 . S
C1345 H1367 0.950 . S
C1346 H1342 0.949 . S
C1346 C1354 1.574 . S
C1346 C1362 1.368 . S
H1347 C1355 0.950 . S
H1348 C1353 0.950 . S
H1349 C1354 0.949 . S
H1350 C1356 0.950 . S
H1351 C1357 0.950 . S
H1352 C1358 0.949 . S
C1353 H1348 0.950 . S
C1353 C1355 1.327 . S
C1353 C1359 1.429 . S
C1354 C1346 1.574 . S
C1354 H1349 0.949 . S
C1354 C1360 1.368 . S
C1355 C1339 1.349 . S
C1355 H1347 0.950 . S
C1355 C1353 1.327 . S
C1356 C1344 1.349 . S
C1356 H1350 0.950 . S
C1356 C1357 1.327 . S
C1357 H1351 0.950 . S
C1357 C1356 1.327 . S
C1357 C1361 1.429 . S
C1358 C1341 1.574 . S
C1358 H1352 0.949 . S
C1358 C1362 1.368 . S
C1359 C1340 1.429 . S
C1359 C1353 1.429 . S
C1359 C1360 1.523 . S
C1360 C1341 1.368 . S
C1360 C1354 1.368 . S
C1360 C1359 1.523 . S
C1361 C1345 1.429 . S
C1361 C1357 1.429 . S
C1361 C1362 1.523 . S
C1362 C1346 1.368 . S
C1362 C1358 1.368 . S
C1362 C1361 1.523 . S
H1363 C1338 0.950 . S
H1364 C1340 0.950 . S
H1365 C1341 0.949 . S
H1366 C1343 0.950 . S
H1367 C1345 0.950 . S
C1368 C1369 1.349 . S
C1368 C1370 1.327 . S
C1368 H1393 0.950 . S
C1369 C1368 1.349 . S
C1369 C1385 1.349 . S
C1370 C1368 1.327 . S
C1370 C1389 1.429 . S
C1370 H1394 0.950 . S
C1371 C1388 1.574 . S
C1371 C1390 1.368 . S
C1371 H1395 0.949 . S
H1372 C1376 0.949 . S
C1373 C1374 1.349 . S
C1373 C1375 1.327 . S
C1373 H1396 0.950 . S
C1374 C1373 1.349 . S
C1374 C1386 1.349 . S
C1375 C1373 1.327 . S
C1375 C1391 1.429 . S
C1375 H1397 0.950 . S
C1376 H1372 0.949 . S
C1376 C1384 1.574 . S
C1376 C1392 1.368 . S
H1377 C1385 0.950 . S
H1378 C1383 0.950 . S
H1379 C1384 0.949 . S
H1380 C1386 0.950 . S
H1381 C1387 0.950 . S
H1382 C1388 0.949 . S
C1383 H1378 0.950 . S
C1383 C1385 1.327 . S
C1383 C1389 1.429 . S
C1384 C1376 1.574 . S
C1384 H1379 0.949 . S
C1384 C1390 1.368 . S
C1385 C1369 1.349 . S
C1385 H1377 0.950 . S
C1385 C1383 1.327 . S
C1386 C1374 1.349 . S
C1386 H1380 0.950 . S
C1386 C1387 1.327 . S
C1387 H1381 0.950 . S
C1387 C1386 1.327 . S
C1387 C1391 1.429 . S
C1388 C1371 1.574 . S
C1388 H1382 0.949 . S
C1388 C1392 1.368 . S
C1389 C1370 1.429 . S
C1389 C1383 1.429 . S
C1389 C1390 1.523 . S
C1390 C1371 1.368 . S
C1390 C1384 1.368 . S
C1390 C1389 1.523 . S
C1391 C1375 1.429 . S
C1391 C1387 1.429 . S
C1391 C1392 1.523 . S
C1392 C1376 1.368 . S
C1392 C1388 1.368 . S
C1392 C1391 1.523 . S
H1393 C1368 0.950 . S
H1394 C1370 0.950 . S
H1395 C1371 0.949 . S
H1396 C1373 0.950 . S
H1397 C1375 0.950 . S
C1398 C1399 1.349 . S
C1398 C1400 1.327 . S
C1398 H1423 0.950 . S
C1399 C1398 1.349 . S
C1399 C1415 1.349 . S
C1400 C1398 1.327 . S
C1400 C1419 1.429 . S
C1400 H1424 0.950 . S
C1401 C1418 1.574 . S
C1401 C1420 1.368 . S
C1401 H1425 0.949 . S
H1402 C1406 0.949 . S
C1403 C1404 1.349 . S
C1403 C1405 1.327 . S
C1403 H1426 0.950 . S
C1404 C1403 1.349 . S
C1404 C1416 1.349 . S
C1405 C1403 1.327 . S
C1405 C1421 1.429 . S
C1405 H1427 0.950 . S
C1406 H1402 0.949 . S
C1406 C1414 1.574 . S
C1406 C1422 1.368 . S
H1407 C1415 0.950 . S
H1408 C1413 0.950 . S
H1409 C1414 0.949 . S
H1410 C1416 0.950 . S
H1411 C1417 0.950 . S
H1412 C1418 0.949 . S
C1413 H1408 0.950 . S
C1413 C1415 1.327 . S
C1413 C1419 1.429 . S
C1414 C1406 1.574 . S
C1414 H1409 0.949 . S
C1414 C1420 1.368 . S
C1415 C1399 1.349 . S
C1415 H1407 0.950 . S
C1415 C1413 1.327 . S
C1416 C1404 1.349 . S
C1416 H1410 0.950 . S
C1416 C1417 1.327 . S
C1417 H1411 0.950 . S
C1417 C1416 1.327 . S
C1417 C1421 1.429 . S
C1418 C1401 1.574 . S
C1418 H1412 0.949 . S
C1418 C1422 1.368 . S
C1419 C1400 1.429 . S
C1419 C1413 1.429 . S
C1419 C1420 1.523 . S
C1420 C1401 1.368 . S
C1420 C1414 1.368 . S
C1420 C1419 1.523 . S
C1421 C1405 1.429 . S
C1421 C1417 1.429 . S
C1421 C1422 1.523 . S
C1422 C1406 1.368 . S
C1422 C1418 1.368 . S
C1422 C1421 1.523 . S
H1423 C1398 0.950 . S
H1424 C1400 0.950 . S
H1425 C1401 0.949 . S
H1426 C1403 0.950 . S
H1427 C1405 0.950 . S
C1428 C1429 1.349 . S
C1428 C1430 1.327 . S
C1428 H1453 0.950 . S
C1429 C1428 1.349 . S
C1429 C1445 1.349 . S
C1430 C1428 1.327 . S
C1430 C1449 1.429 . S
C1430 H1454 0.950 . S
C1431 C1448 1.574 . S
C1431 C1450 1.368 . S
C1431 H1455 0.949 . S
H1432 C1436 0.949 . S
C1433 C1434 1.349 . S
C1433 C1435 1.327 . S
C1433 H1456 0.950 . S
C1434 C1433 1.349 . S
C1434 C1446 1.349 . S
C1435 C1433 1.327 . S
C1435 C1451 1.429 . S
C1435 H1457 0.950 . S
C1436 H1432 0.949 . S
C1436 C1444 1.574 . S
C1436 C1452 1.368 . S
H1437 C1445 0.950 . S
H1438 C1443 0.950 . S
H1439 C1444 0.949 . S
H1440 C1446 0.950 . S
H1441 C1447 0.950 . S
H1442 C1448 0.949 . S
C1443 H1438 0.950 . S
C1443 C1445 1.327 . S
C1443 C1449 1.429 . S
C1444 C1436 1.574 . S
C1444 H1439 0.949 . S
C1444 C1450 1.368 . S
C1445 C1429 1.349 . S
C1445 H1437 0.950 . S
C1445 C1443 1.327 . S
C1446 C1434 1.349 . S
C1446 H1440 0.950 . S
C1446 C1447 1.327 . S
C1447 H1441 0.950 . S
C1447 C1446 1.327 . S
C1447 C1451 1.429 . S
C1448 C1431 1.574 . S
C1448 H1442 0.949 . S
C1448 C1452 1.368 . S
C1449 C1430 1.429 . S
C1449 C1443 1.429 . S
C1449 C1450 1.523 . S
C1450 C1431 1.368 . S
C1450 C1444 1.368 . S
C1450 C1449 1.523 . S
C1451 C1435 1.429 . S
C1451 C1447 1.429 . S
C1451 C1452 1.523 . S
C1452 C1436 1.368 . S
C1452 C1448 1.368 . S
C1452 C1451 1.523 . S
H1453 C1428 0.950 . S
H1454 C1430 0.950 . S
H1455 C1431 0.949 . S
H1456 C1433 0.950 . S
H1457 C1435 0.950 . S
C1458 C1459 1.349 . S
C1458 C1460 1.327 . S
C1458 H1483 0.950 . S
C1459 C1458 1.349 . S
C1459 C1475 1.349 . S
C1460 C1458 1.327 . S
C1460 C1479 1.429 . S
C1460 H1484 0.950 . S
C1461 C1478 1.574 . S
C1461 C1480 1.368 . S
C1461 H1485 0.949 . S
H1462 C1466 0.949 . S
C1463 C1464 1.349 . S
C1463 C1465 1.327 . S
C1463 H1486 0.950 . S
C1464 C1463 1.349 . S
C1464 C1476 1.349 . S
C1465 C1463 1.327 . S
C1465 C1481 1.429 . S
C1465 H1487 0.950 . S
C1466 H1462 0.949 . S
C1466 C1474 1.574 . S
C1466 C1482 1.368 . S
H1467 C1475 0.950 . S
H1468 C1473 0.950 . S
H1469 C1474 0.949 . S
H1470 C1476 0.950 . S
H1471 C1477 0.950 . S
H1472 C1478 0.949 . S
C1473 H1468 0.950 . S
C1473 C1475 1.327 . S
C1473 C1479 1.429 . S
C1474 C1466 1.574 . S
C1474 H1469 0.949 . S
C1474 C1480 1.368 . S
C1475 C1459 1.349 . S
C1475 H1467 0.950 . S
C1475 C1473 1.327 . S
C1476 C1464 1.349 . S
C1476 H1470 0.950 . S
C1476 C1477 1.327 . S
C1477 H1471 0.950 . S
C1477 C1476 1.327 . S
C1477 C1481 1.429 . S
C1478 C1461 1.574 . S
C1478 H1472 0.949 . S
C1478 C1482 1.368 . S
C1479 C1460 1.429 . S
C1479 C1473 1.429 . S
C1479 C1480 1.523 . S
C1480 C1461 1.368 . S
C1480 C1474 1.368 . S
C1480 C1479 1.523 . S
C1481 C1465 1.429 . S
C1481 C1477 1.429 . S
C1481 C1482 1.523 . S
C1482 C1466 1.368 . S
C1482 C1478 1.368 . S
C1482 C1481 1.523 . S
H1483 C1458 0.950 . S
H1484 C1460 0.950 . S
H1485 C1461 0.949 . S
H1486 C1463 0.950 . S
H1487 C1465 0.950 . S
C1488 C1489 1.349 . S
C1488 C1490 1.327 . S
C1488 H1513 0.950 . S
C1489 C1488 1.349 . S
C1489 C1505 1.349 . S
C1490 C1488 1.327 . S
C1490 C1509 1.429 . S
C1490 H1514 0.950 . S
C1491 C1508 1.574 . S
C1491 C1510 1.368 . S
C1491 H1515 0.949 . S
H1492 C1496 0.949 . S
C1493 C1494 1.349 . S
C1493 C1495 1.327 . S
C1493 H1516 0.950 . S
C1494 C1493 1.349 . S
C1494 C1506 1.349 . S
C1495 C1493 1.327 . S
C1495 C1511 1.429 . S
C1495 H1517 0.950 . S
C1496 H1492 0.949 . S
C1496 C1504 1.574 . S
C1496 C1512 1.368 . S
H1497 C1505 0.950 . S
H1498 C1503 0.950 . S
H1499 C1504 0.949 . S
H1500 C1506 0.950 . S
H1501 C1507 0.950 . S
H1502 C1508 0.949 . S
C1503 H1498 0.950 . S
C1503 C1505 1.327 . S
C1503 C1509 1.429 . S
C1504 C1496 1.574 . S
C1504 H1499 0.949 . S
C1504 C1510 1.368 . S
C1505 C1489 1.349 . S
C1505 H1497 0.950 . S
C1505 C1503 1.327 . S
C1506 C1494 1.349 . S
C1506 H1500 0.950 . S
C1506 C1507 1.327 . S
C1507 H1501 0.950 . S
C1507 C1506 1.327 . S
C1507 C1511 1.429 . S
C1508 C1491 1.574 . S
C1508 H1502 0.949 . S
C1508 C1512 1.368 . S
C1509 C1490 1.429 . S
C1509 C1503 1.429 . S
C1509 C1510 1.523 . S
C1510 C1491 1.368 . S
C1510 C1504 1.368 . S
C1510 C1509 1.523 . S
C1511 C1495 1.429 . S
C1511 C1507 1.429 . S
C1511 C1512 1.523 . S
C1512 C1496 1.368 . S
C1512 C1508 1.368 . S
C1512 C1511 1.523 . S
H1513 C1488 0.950 . S
H1514 C1490 0.950 . S
H1515 C1491 0.949 . S
H1516 C1493 0.950 . S
H1517 C1495 0.950 . S
C1518 C1519 1.349 . S
C1518 C1520 1.327 . S
C1518 H1543 0.950 . S
C1519 C1518 1.349 . S
C1519 C1535 1.349 . S
C1520 C1518 1.327 . S
C1520 C1539 1.429 . S
C1520 H1544 0.950 . S
C1521 C1538 1.574 . S
C1521 C1540 1.368 . S
C1521 H1545 0.949 . S
H1522 C1526 0.949 . S
C1523 C1524 1.349 . S
C1523 C1525 1.327 . S
C1523 H1546 0.950 . S
C1524 C1523 1.349 . S
C1524 C1536 1.349 . S
C1525 C1523 1.327 . S
C1525 C1541 1.429 . S
C1525 H1547 0.950 . S
C1526 H1522 0.949 . S
C1526 C1534 1.574 . S
C1526 C1542 1.368 . S
H1527 C1535 0.950 . S
H1528 C1533 0.950 . S
H1529 C1534 0.949 . S
H1530 C1536 0.950 . S
H1531 C1537 0.950 . S
H1532 C1538 0.949 . S
C1533 H1528 0.950 . S
C1533 C1535 1.327 . S
C1533 C1539 1.429 . S
C1534 C1526 1.574 . S
C1534 H1529 0.949 . S
C1534 C1540 1.368 . S
C1535 C1519 1.349 . S
C1535 H1527 0.950 . S
C1535 C1533 1.327 . S
C1536 C1524 1.349 . S
C1536 H1530 0.950 . S
C1536 C1537 1.327 . S
C1537 H1531 0.950 . S
C1537 C1536 1.327 . S
C1537 C1541 1.429 . S
C1538 C1521 1.574 . S
C1538 H1532 0.949 . S
C1538 C1542 1.368 . S
C1539 C1520 1.429 . S
C1539 C1533 1.429 . S
C1539 C1540 1.523 . S
C1540 C1521 1.368 . S
C1540 C1534 1.368 . S
C1540 C1539 1.523 . S
C1541 C1525 1.429 . S
C1541 C1537 1.429 . S
C1541 C1542 1.523 . S
C1542 C1526 1.368 . S
C1542 C1538 1.368 . S
C1542 C1541 1.523 . S
H1543 C1518 0.950 . S
H1544 C1520 0.950 . S
H1545 C1521 0.949 . S
H1546 C1523 0.950 . S
H1547 C1525 0.950 . S
C1548 C1549 1.349 . S
C1548 C1550 1.327 . S
C1548 H1573 0.950 . S
C1549 C1548 1.349 . S
C1549 C1565 1.349 . S
C1550 C1548 1.327 . S
C1550 C1569 1.429 . S
C1550 H1574 0.950 . S
C1551 C1568 1.574 . S
C1551 C1570 1.368 . S
C1551 H1575 0.949 . S
H1552 C1556 0.949 . S
C1553 C1554 1.349 . S
C1553 C1555 1.327 . S
C1553 H1576 0.950 . S
C1554 C1553 1.349 . S
C1554 C1566 1.349 . S
C1555 C1553 1.327 . S
C1555 C1571 1.429 . S
C1555 H1577 0.950 . S
C1556 H1552 0.949 . S
C1556 C1564 1.574 . S
C1556 C1572 1.368 . S
H1557 C1565 0.950 . S
H1558 C1563 0.950 . S
H1559 C1564 0.949 . S
H1560 C1566 0.950 . S
H1561 C1567 0.950 . S
H1562 C1568 0.949 . S
C1563 H1558 0.950 . S
C1563 C1565 1.327 . S
C1563 C1569 1.429 . S
C1564 C1556 1.574 . S
C1564 H1559 0.949 . S
C1564 C1570 1.368 . S
C1565 C1549 1.349 . S
C1565 H1557 0.950 . S
C1565 C1563 1.327 . S
C1566 C1554 1.349 . S
C1566 H1560 0.950 . S
C1566 C1567 1.327 . S
C1567 H1561 0.950 . S
C1567 C1566 1.327 . S
C1567 C1571 1.429 . S
C1568 C1551 1.574 . S
C1568 H1562 0.949 . S
C1568 C1572 1.368 . S
C1569 C1550 1.429 . S
C1569 C1563 1.429 . S
C1569 C1570 1.523 . S
C1570 C1551 1.368 . S
C1570 C1564 1.368 . S
C1570 C1569 1.523 . S
C1571 C1555 1.429 . S
C1571 C1567 1.429 . S
C1571 C1572 1.523 . S
C1572 C1556 1.368 . S
C1572 C1568 1.368 . S
C1572 C1571 1.523 . S
H1573 C1548 0.950 . S
H1574 C1550 0.950 . S
H1575 C1551 0.949 . S
H1576 C1553 0.950 . S
H1577 C1555 0.950 . S
C1578 C1579 1.349 . S
C1578 C1580 1.327 . S
C1578 H1603 0.950 . S
C1579 C1578 1.349 . S
C1579 C1595 1.349 . S
C1580 C1578 1.327 . S
C1580 C1599 1.429 . S
C1580 H1604 0.950 . S
C1581 C1598 1.574 . S
C1581 C1600 1.368 . S
C1581 H1605 0.949 . S
H1582 C1586 0.964 . S
C1583 C1584 1.349 . S
C1583 C1585 1.327 . S
C1583 H1606 0.950 . S
C1584 C1583 1.349 . S
C1584 C1596 1.349 . S
C1585 C1583 1.327 . S
C1585 C1601 1.429 . S
C1585 H1607 0.950 . S
C1586 H1582 0.964 . S
C1586 C1594 1.574 . S
C1586 C1602 1.379 . S
H1587 C1595 0.950 . S
H1588 C1593 0.950 . S
H1589 C1594 0.949 . S
H1590 C1596 0.950 . S
H1591 C1597 0.950 . S
H1592 C1598 0.949 . S
C1593 H1588 0.950 . S
C1593 C1595 1.327 . S
C1593 C1599 1.429 . S
C1594 C1586 1.574 . S
C1594 H1589 0.949 . S
C1594 C1600 1.368 . S
C1595 C1579 1.349 . S
C1595 H1587 0.950 . S
C1595 C1593 1.327 . S
C1596 C1584 1.349 . S
C1596 H1590 0.950 . S
C1596 C1597 1.327 . S
C1597 H1591 0.950 . S
C1597 C1596 1.327 . S
C1597 C1601 1.429 . S
C1598 C1581 1.574 . S
C1598 H1592 0.949 . S
C1598 C1602 1.379 . S
C1599 C1580 1.429 . S
C1599 C1593 1.429 . S
C1599 C1600 1.523 . S
C1600 C1581 1.368 . S
C1600 C1594 1.368 . S
C1600 C1599 1.523 . S
C1601 C1585 1.429 . S
C1601 C1597 1.429 . S
C1601 C1602 1.495 1_655 S
C1602 C1586 1.379 . S
C1602 C1598 1.379 . S
C1602 C1601 1.495 1_455 S
H1603 C1578 0.950 . S
H1604 C1580 0.950 . S
H1605 C1581 0.949 . S
H1606 C1583 0.950 . S
H1607 C1585 0.950 . S
C1608 C1609 1.349 . S
C1608 C1610 1.327 . S
C1608 H1633 0.950 . S
C1609 C1608 1.349 . S
C1609 C1625 1.349 . S
C1610 C1608 1.327 . S
C1610 C1629 1.429 . S
C1610 H1634 0.950 . S
C1611 C1628 1.574 . S
C1611 C1630 1.368 . S
C1611 H1635 0.949 . S
H1612 C1616 0.949 . S
C1613 C1614 1.349 . S
C1613 C1615 1.327 . S
C1613 H1636 0.950 . S
C1614 C1613 1.349 . S
C1614 C1626 1.349 . S
C1615 C1613 1.327 . S
C1615 C1631 1.429 . S
C1615 H1637 0.950 . S
C1616 H1612 0.949 . S
C1616 C1624 1.574 . S
C1616 C1632 1.368 . S
H1617 C1625 0.950 . S
H1618 C1623 0.950 . S
H1619 C1624 0.949 . S
H1620 C1626 0.950 . S
H1621 C1627 0.950 . S
H1622 C1628 0.949 . S
C1623 H1618 0.950 . S
C1623 C1625 1.327 . S
C1623 C1629 1.429 . S
C1624 C1616 1.574 . S
C1624 H1619 0.949 . S
C1624 C1630 1.368 . S
C1625 C1609 1.349 . S
C1625 H1617 0.950 . S
C1625 C1623 1.327 . S
C1626 C1614 1.349 . S
C1626 H1620 0.950 . S
C1626 C1627 1.327 . S
C1627 H1621 0.950 . S
C1627 C1626 1.327 . S
C1627 C1631 1.429 . S
C1628 C1611 1.574 . S
C1628 H1622 0.949 . S
C1628 C1632 1.368 . S
C1629 C1610 1.429 . S
C1629 C1623 1.429 . S
C1629 C1630 1.523 . S
C1630 C1611 1.368 . S
C1630 C1624 1.368 . S
C1630 C1629 1.523 . S
C1631 C1615 1.429 . S
C1631 C1627 1.429 . S
C1631 C1632 1.523 . S
C1632 C1616 1.368 . S
C1632 C1628 1.368 . S
C1632 C1631 1.523 . S
H1633 C1608 0.950 . S
H1634 C1610 0.950 . S
H1635 C1611 0.949 . S
H1636 C1613 0.950 . S
H1637 C1615 0.950 . S
C1638 C1639 1.349 . S
C1638 C1640 1.327 . S
C1638 H1663 0.950 . S
C1639 C1638 1.349 . S
C1639 C1655 1.349 . S
C1640 C1638 1.327 . S
C1640 C1659 1.429 . S
C1640 H1664 0.950 . S
C1641 C1658 1.574 . S
C1641 C1660 1.368 . S
C1641 H1665 0.949 . S
H1642 C1646 0.965 . S
C1643 C1644 1.349 . S
C1643 C1645 1.327 . S
C1643 H1666 0.950 . S
C1644 C1643 1.349 . S
C1644 C1656 1.349 . S
C1645 C1643 1.327 . S
C1645 C1661 1.429 . S
C1645 H1667 0.950 . S
C1646 H1642 0.965 . S
C1646 C1654 1.574 . S
C1646 C1662 1.382 . S
H1647 C1655 0.950 . S
H1648 C1653 0.950 . S
H1649 C1654 0.949 . S
H1650 C1656 0.950 . S
H1651 C1657 0.950 . S
H1652 C1658 0.949 . S
C1653 H1648 0.950 . S
C1653 C1655 1.327 . S
C1653 C1659 1.429 . S
C1654 C1646 1.574 . S
C1654 H1649 0.949 . S
C1654 C1660 1.368 . S
C1655 C1639 1.349 . S
C1655 H1647 0.950 . S
C1655 C1653 1.327 . S
C1656 C1644 1.349 . S
C1656 H1650 0.950 . S
C1656 C1657 1.327 . S
C1657 H1651 0.950 . S
C1657 C1656 1.327 . S
C1657 C1661 1.429 . S
C1658 C1641 1.574 . S
C1658 H1652 0.949 . S
C1658 C1662 1.382 . S
C1659 C1640 1.429 . S
C1659 C1653 1.429 . S
C1659 C1660 1.523 . S
C1660 C1641 1.368 . S
C1660 C1654 1.368 . S
C1660 C1659 1.523 . S
C1661 C1645 1.429 . S
C1661 C1657 1.429 . S
C1661 C1662 1.488 1_655 S
C1662 C1646 1.382 . S
C1662 C1658 1.382 . S
C1662 C1661 1.488 1_455 S
H1663 C1638 0.950 . S
H1664 C1640 0.950 . S
H1665 C1641 0.949 . S
H1666 C1643 0.950 . S
H1667 C1645 0.950 . S
C1668 C1669 1.349 . S
C1668 C1670 1.327 . S
C1668 H1693 0.950 . S
C1669 C1668 1.349 . S
C1669 C1685 1.349 . S
C1670 C1668 1.327 . S
C1670 C1689 1.429 . S
C1670 H1694 0.950 . S
C1671 C1688 1.574 . S
C1671 C1690 1.368 . S
C1671 H1695 0.949 . S
H1672 C1676 0.949 . S
C1673 C1674 1.349 . S
C1673 C1675 1.327 . S
C1673 H1696 0.950 . S
C1674 C1673 1.349 . S
C1674 C1686 1.349 . S
C1675 C1673 1.327 . S
C1675 C1691 1.429 . S
C1675 H1697 0.950 . S
C1676 H1672 0.949 . S
C1676 C1684 1.574 . S
C1676 C1692 1.368 . S
H1677 C1685 0.950 . S
H1678 C1683 0.950 . S
H1679 C1684 0.949 . S
H1680 C1686 0.950 . S
H1681 C1687 0.950 . S
H1682 C1688 0.949 . S
C1683 H1678 0.950 . S
C1683 C1685 1.327 . S
C1683 C1689 1.429 . S
C1684 C1676 1.574 . S
C1684 H1679 0.949 . S
C1684 C1690 1.368 . S
C1685 C1669 1.349 . S
C1685 H1677 0.950 . S
C1685 C1683 1.327 . S
C1686 C1674 1.349 . S
C1686 H1680 0.950 . S
C1686 C1687 1.327 . S
C1687 H1681 0.950 . S
C1687 C1686 1.327 . S
C1687 C1691 1.429 . S
C1688 C1671 1.574 . S
C1688 H1682 0.949 . S
C1688 C1692 1.368 . S
C1689 C1670 1.429 . S
C1689 C1683 1.429 . S
C1689 C1690 1.523 . S
C1690 C1671 1.368 . S
C1690 C1684 1.368 . S
C1690 C1689 1.523 . S
C1691 C1675 1.429 . S
C1691 C1687 1.429 . S
C1691 C1692 1.523 . S
C1692 C1676 1.368 . S
C1692 C1688 1.368 . S
C1692 C1691 1.523 . S
H1693 C1668 0.950 . S
H1694 C1670 0.950 . S
H1695 C1671 0.949 . S
H1696 C1673 0.950 . S
H1697 C1675 0.950 . S
C1698 C1699 1.349 . S
C1698 C1700 1.327 . S
C1698 H1723 0.950 . S
C1699 C1698 1.349 . S
C1699 C1715 1.349 . S
C1700 C1698 1.327 . S
C1700 C1719 1.429 . S
C1700 H1724 0.950 . S
C1701 C1718 1.574 . S
C1701 C1720 1.368 . S
C1701 H1725 0.949 . S
H1702 C1706 0.949 . S
C1703 C1704 1.349 . S
C1703 C1705 1.327 . S
C1703 H1726 0.950 . S
C1704 C1703 1.349 . S
C1704 C1716 1.349 . S
C1705 C1703 1.327 . S
C1705 C1721 1.429 . S
C1705 H1727 0.950 . S
C1706 H1702 0.949 . S
C1706 C1714 1.574 . S
C1706 C1722 1.368 . S
H1707 C1715 0.950 . S
H1708 C1713 0.950 . S
H1709 C1714 0.949 . S
H1710 C1716 0.950 . S
H1711 C1717 0.950 . S
H1712 C1718 0.949 . S
C1713 H1708 0.950 . S
C1713 C1715 1.327 . S
C1713 C1719 1.429 . S
C1714 C1706 1.574 . S
C1714 H1709 0.949 . S
C1714 C1720 1.368 . S
C1715 C1699 1.349 . S
C1715 H1707 0.950 . S
C1715 C1713 1.327 . S
C1716 C1704 1.349 . S
C1716 H1710 0.950 . S
C1716 C1717 1.327 . S
C1717 H1711 0.950 . S
C1717 C1716 1.327 . S
C1717 C1721 1.429 . S
C1718 C1701 1.574 . S
C1718 H1712 0.949 . S
C1718 C1722 1.368 . S
C1719 C1700 1.429 . S
C1719 C1713 1.429 . S
C1719 C1720 1.523 . S
C1720 C1701 1.368 . S
C1720 C1714 1.368 . S
C1720 C1719 1.523 . S
C1721 C1705 1.429 . S
C1721 C1717 1.429 . S
C1721 C1722 1.523 . S
C1722 C1706 1.368 . S
C1722 C1718 1.368 . S
C1722 C1721 1.523 . S
H1723 C1698 0.950 . S
H1724 C1700 0.950 . S
H1725 C1701 0.949 . S
H1726 C1703 0.950 . S
H1727 C1705 0.950 . S
C529 N434 1.249 . S
C534 N5 1.249 . S
C559 N38 1.249 . S
C564 N368 1.249 . S
C589 N71 1.249 . S
C594 N401 1.249 . S
C619 N104 1.249 . S
C624 N335 1.249 . S
C649 N500 1.249 . S
C654 N137 1.249 . S
C679 N170 1.249 . S
C684 N302 1.249 . S
C709 N203 1.249 . S
C714 N467 1.249 . S
C739 N269 1.249 . S
C744 N236 1.249 . S
C769 C28 1.626 . S
C774 C160 1.626 . S
C799 C61 1.626 . S
C804 C193 1.626 . S
C829 C94 1.626 . S
C834 C226 1.626 . S
C859 C259 1.626 . S
C864 C127 1.626 . S
C889 C358 1.626 . S
C894 C292 1.626 . S
C919 C325 1.626 . S
C924 C391 1.626 . S
C949 C490 1.626 . S
C954 C424 1.626 . S
C979 C523 1.626 . S
C984 C457 1.626 . S
C1009 C173 0.905 . S
C1014 C8 0.905 1_565 S
C1039 C41 0.905 . S
C1044 C206 0.905 1_565 S
C1069 C74 0.905 . S
C1074 C239 0.905 . S
C1099 C140 0.905 . S
C1104 C107 0.905 . S
C1129 C149 0.905 . S
C1134 C347 0.905 . S
C1159 C83 0.905 . S
C1164 C281 0.905 . S
C1189 C380 0.905 . S
C1194 C215 0.905 . S
C1219 C314 0.905 . S
C1224 C17 0.905 . S
C1249 C272 0.905 . S
C1254 C404 0.905 . S
C1279 C503 0.905 . S
C1284 C338 0.905 . S
C1309 C437 0.905 . S
C1314 C305 0.905 . S
C1339 C371 0.905 . S
C1344 C470 0.905 . S
C1369 C479 0.905 . S
C1374 C50 0.905 . S
C1399 C182 0.905 . S
C1404 C446 0.905 . S
C1429 C512 0.905 . S
C1434 C116 0.905 . S
C1459 C248 0.904 . S
C1464 C413 0.905 . S
C1489 N14 0.408 . S
C1494 N443 0.408 . S
C1519 N47 0.408 . S
C1524 N377 0.408 . S
C1549 N80 0.408 . S
C1554 N410 0.408 . S
C1579 N113 0.408 . S
C1584 N344 0.408 . S
C1609 N146 0.408 . S
C1614 N509 0.408 . S
C1639 N179 0.408 . S
C1644 N311 0.408 . S
C1669 N476 0.408 . S
C1674 N212 0.408 . S
C1699 N278 0.408 . S
C1704 N245 0.408 . S
