# Generated by pormake.
# Topology wgp, (5)-cn, num edge types: 1
# Building blocks:
#     Node 0, Type 0, BuildingBlock: BEQFEK_clean_sbu_0, # of connection points: 5
#     Node 1, Type 0, BuildingBlock: BEQFEK_clean_sbu_0, # of connection points: 5
#     Node 2, Type 0, BuildingBlock: BEQFEK_clean_sbu_0, # of connection points: 5
#     Node 3, Type 0, BuildingBlock: BEQFEK_clean_sbu_0, # of connection points: 5
#     Node 4, Type 0, BuildingBlock: BEQFEK_clean_sbu_0, # of connection points: 5
#     Node 5, Type 0, BuildingBlock: BEQFEK_clean_sbu_0, # of connection points: 5
#     Node 6, Type 0, BuildingBlock: BEQFEK_clean_sbu_0, # of connection points: 5
#     Node 7, Type 0, BuildingBlock: BEQFEK_clean_sbu_0, # of connection points: 5
#     Node 8, Type 0, BuildingBlock: BEQFEK_clean_sbu_0, # of connection points: 5
#     Node 9, Type 0, BuildingBlock: BEQFEK_clean_sbu_0, # of connection points: 5
#     Node 10, Type 0, BuildingBlock: BEQFEK_clean_sbu_0, # of connection points: 5
#     Node 11, Type 0, BuildingBlock: BEQFEK_clean_sbu_0, # of connection points: 5
#     Node 12, Type 0, BuildingBlock: BEQFEK_clean_sbu_0, # of connection points: 5
#     Node 13, Type 0, BuildingBlock: BEQFEK_clean_sbu_0, # of connection points: 5
#     Node 14, Type 0, BuildingBlock: BEQFEK_clean_sbu_0, # of connection points: 5
#     Node 15, Type 0, BuildingBlock: BEQFEK_clean_sbu_0, # of connection points: 5
#     Node 16, Type 0, BuildingBlock: BEQFEK_clean_sbu_0, # of connection points: 5
#     Node 17, Type 0, BuildingBlock: BEQFEK_clean_sbu_0, # of connection points: 5
#     Node 18, Type 0, BuildingBlock: BEQFEK_clean_sbu_0, # of connection points: 5
#     Node 19, Type 0, BuildingBlock: BEQFEK_clean_sbu_0, # of connection points: 5
#     Node 20, Type 0, BuildingBlock: BEQFEK_clean_sbu_0, # of connection points: 5
#     Node 21, Type 0, BuildingBlock: BEQFEK_clean_sbu_0, # of connection points: 5
#     Node 22, Type 0, BuildingBlock: BEQFEK_clean_sbu_0, # of connection points: 5
#     Node 23, Type 0, BuildingBlock: BEQFEK_clean_sbu_0, # of connection points: 5
#     Node 24, Type 0, BuildingBlock: BEQFEK_clean_sbu_0, # of connection points: 5
#     Node 25, Type 0, BuildingBlock: BEQFEK_clean_sbu_0, # of connection points: 5
#     Node 26, Type 0, BuildingBlock: BEQFEK_clean_sbu_0, # of connection points: 5
#     Node 27, Type 0, BuildingBlock: BEQFEK_clean_sbu_0, # of connection points: 5
#     Node 28, Type 0, BuildingBlock: BEQFEK_clean_sbu_0, # of connection points: 5
#     Node 29, Type 0, BuildingBlock: BEQFEK_clean_sbu_0, # of connection points: 5
#     Node 30, Type 0, BuildingBlock: BEQFEK_clean_sbu_0, # of connection points: 5
#     Node 31, Type 0, BuildingBlock: BEQFEK_clean_sbu_0, # of connection points: 5
#     Edge 32, Type (0, 0), BuildingBlock: ZUJKAS_clean_linker_0, # of connection points: 2
#     Edge 33, Type (0, 0), BuildingBlock: ZUJKAS_clean_linker_0, # of connection points: 2
#     Edge 34, Type (0, 0), BuildingBlock: ZUJKAS_clean_linker_0, # of connection points: 2
#     Edge 35, Type (0, 0), BuildingBlock: ZUJKAS_clean_linker_0, # of connection points: 2
#     Edge 36, Type (0, 0), BuildingBlock: ZUJKAS_clean_linker_0, # of connection points: 2
#     Edge 37, Type (0, 0), BuildingBlock: ZUJKAS_clean_linker_0, # of connection points: 2
#     Edge 38, Type (0, 0), BuildingBlock: ZUJKAS_clean_linker_0, # of connection points: 2
#     Edge 39, Type (0, 0), BuildingBlock: ZUJKAS_clean_linker_0, # of connection points: 2
#     Edge 40, Type (0, 0), BuildingBlock: ZUJKAS_clean_linker_0, # of connection points: 2
#     Edge 41, Type (0, 0), BuildingBlock: ZUJKAS_clean_linker_0, # of connection points: 2
#     Edge 42, Type (0, 0), BuildingBlock: ZUJKAS_clean_linker_0, # of connection points: 2
#     Edge 43, Type (0, 0), BuildingBlock: ZUJKAS_clean_linker_0, # of connection points: 2
#     Edge 44, Type (0, 0), BuildingBlock: ZUJKAS_clean_linker_0, # of connection points: 2
#     Edge 45, Type (0, 0), BuildingBlock: ZUJKAS_clean_linker_0, # of connection points: 2
#     Edge 46, Type (0, 0), BuildingBlock: ZUJKAS_clean_linker_0, # of connection points: 2
#     Edge 47, Type (0, 0), BuildingBlock: ZUJKAS_clean_linker_0, # of connection points: 2
#     Edge 48, Type (0, 0), BuildingBlock: ZUJKAS_clean_linker_0, # of connection points: 2
#     Edge 49, Type (0, 0), BuildingBlock: ZUJKAS_clean_linker_0, # of connection points: 2
#     Edge 50, Type (0, 0), BuildingBlock: ZUJKAS_clean_linker_0, # of connection points: 2
#     Edge 51, Type (0, 0), BuildingBlock: ZUJKAS_clean_linker_0, # of connection points: 2
#     Edge 52, Type (0, 0), BuildingBlock: ZUJKAS_clean_linker_0, # of connection points: 2
#     Edge 53, Type (0, 0), BuildingBlock: ZUJKAS_clean_linker_0, # of connection points: 2
#     Edge 54, Type (0, 0), BuildingBlock: ZUJKAS_clean_linker_0, # of connection points: 2
#     Edge 55, Type (0, 0), BuildingBlock: ZUJKAS_clean_linker_0, # of connection points: 2
#     Edge 56, Type (0, 0), BuildingBlock: ZUJKAS_clean_linker_0, # of connection points: 2
#     Edge 57, Type (0, 0), BuildingBlock: ZUJKAS_clean_linker_0, # of connection points: 2
#     Edge 58, Type (0, 0), BuildingBlock: ZUJKAS_clean_linker_0, # of connection points: 2
#     Edge 59, Type (0, 0), BuildingBlock: ZUJKAS_clean_linker_0, # of connection points: 2
#     Edge 60, Type (0, 0), BuildingBlock: ZUJKAS_clean_linker_0, # of connection points: 2
#     Edge 61, Type (0, 0), BuildingBlock: ZUJKAS_clean_linker_0, # of connection points: 2
#     Edge 62, Type (0, 0), BuildingBlock: ZUJKAS_clean_linker_0, # of connection points: 2
#     Edge 63, Type (0, 0), BuildingBlock: ZUJKAS_clean_linker_0, # of connection points: 2
#     Edge 64, Type (0, 0), BuildingBlock: ZUJKAS_clean_linker_0, # of connection points: 2
#     Edge 65, Type (0, 0), BuildingBlock: ZUJKAS_clean_linker_0, # of connection points: 2
#     Edge 66, Type (0, 0), BuildingBlock: ZUJKAS_clean_linker_0, # of connection points: 2
#     Edge 67, Type (0, 0), BuildingBlock: ZUJKAS_clean_linker_0, # of connection points: 2
#     Edge 68, Type (0, 0), BuildingBlock: ZUJKAS_clean_linker_0, # of connection points: 2
#     Edge 69, Type (0, 0), BuildingBlock: ZUJKAS_clean_linker_0, # of connection points: 2
#     Edge 70, Type (0, 0), BuildingBlock: ZUJKAS_clean_linker_0, # of connection points: 2
#     Edge 71, Type (0, 0), BuildingBlock: ZUJKAS_clean_linker_0, # of connection points: 2
#     Edge 72, Type (0, 0), BuildingBlock: ZUJKAS_clean_linker_0, # of connection points: 2
#     Edge 73, Type (0, 0), BuildingBlock: ZUJKAS_clean_linker_0, # of connection points: 2
#     Edge 74, Type (0, 0), BuildingBlock: ZUJKAS_clean_linker_0, # of connection points: 2
#     Edge 75, Type (0, 0), BuildingBlock: ZUJKAS_clean_linker_0, # of connection points: 2
#     Edge 76, Type (0, 0), BuildingBlock: ZUJKAS_clean_linker_0, # of connection points: 2
#     Edge 77, Type (0, 0), BuildingBlock: ZUJKAS_clean_linker_0, # of connection points: 2
#     Edge 78, Type (0, 0), BuildingBlock: ZUJKAS_clean_linker_0, # of connection points: 2
#     Edge 79, Type (0, 0), BuildingBlock: ZUJKAS_clean_linker_0, # of connection points: 2
#     Edge 80, Type (0, 0), BuildingBlock: ZUJKAS_clean_linker_0, # of connection points: 2
#     Edge 81, Type (0, 0), BuildingBlock: ZUJKAS_clean_linker_0, # of connection points: 2
#     Edge 82, Type (0, 0), BuildingBlock: ZUJKAS_clean_linker_0, # of connection points: 2
#     Edge 83, Type (0, 0), BuildingBlock: ZUJKAS_clean_linker_0, # of connection points: 2
#     Edge 84, Type (0, 0), BuildingBlock: ZUJKAS_clean_linker_0, # of connection points: 2
#     Edge 85, Type (0, 0), BuildingBlock: ZUJKAS_clean_linker_0, # of connection points: 2
#     Edge 86, Type (0, 0), BuildingBlock: ZUJKAS_clean_linker_0, # of connection points: 2
#     Edge 87, Type (0, 0), BuildingBlock: ZUJKAS_clean_linker_0, # of connection points: 2
#     Edge 88, Type (0, 0), BuildingBlock: ZUJKAS_clean_linker_0, # of connection points: 2
#     Edge 89, Type (0, 0), BuildingBlock: ZUJKAS_clean_linker_0, # of connection points: 2
#     Edge 90, Type (0, 0), BuildingBlock: ZUJKAS_clean_linker_0, # of connection points: 2
#     Edge 91, Type (0, 0), BuildingBlock: ZUJKAS_clean_linker_0, # of connection points: 2
#     Edge 92, Type (0, 0), BuildingBlock: ZUJKAS_clean_linker_0, # of connection points: 2
#     Edge 93, Type (0, 0), BuildingBlock: ZUJKAS_clean_linker_0, # of connection points: 2
#     Edge 94, Type (0, 0), BuildingBlock: ZUJKAS_clean_linker_0, # of connection points: 2
#     Edge 95, Type (0, 0), BuildingBlock: ZUJKAS_clean_linker_0, # of connection points: 2
#     Edge 96, Type (0, 0), BuildingBlock: ZUJKAS_clean_linker_0, # of connection points: 2
#     Edge 97, Type (0, 0), BuildingBlock: ZUJKAS_clean_linker_0, # of connection points: 2
#     Edge 98, Type (0, 0), BuildingBlock: ZUJKAS_clean_linker_0, # of connection points: 2
#     Edge 99, Type (0, 0), BuildingBlock: ZUJKAS_clean_linker_0, # of connection points: 2
#     Edge 100, Type (0, 0), BuildingBlock: ZUJKAS_clean_linker_0, # of connection points: 2
#     Edge 101, Type (0, 0), BuildingBlock: ZUJKAS_clean_linker_0, # of connection points: 2
#     Edge 102, Type (0, 0), BuildingBlock: ZUJKAS_clean_linker_0, # of connection points: 2
#     Edge 103, Type (0, 0), BuildingBlock: ZUJKAS_clean_linker_0, # of connection points: 2
#     Edge 104, Type (0, 0), BuildingBlock: ZUJKAS_clean_linker_0, # of connection points: 2
#     Edge 105, Type (0, 0), BuildingBlock: ZUJKAS_clean_linker_0, # of connection points: 2
#     Edge 106, Type (0, 0), BuildingBlock: ZUJKAS_clean_linker_0, # of connection points: 2
#     Edge 107, Type (0, 0), BuildingBlock: ZUJKAS_clean_linker_0, # of connection points: 2
#     Edge 108, Type (0, 0), BuildingBlock: ZUJKAS_clean_linker_0, # of connection points: 2
#     Edge 109, Type (0, 0), BuildingBlock: ZUJKAS_clean_linker_0, # of connection points: 2
#     Edge 110, Type (0, 0), BuildingBlock: ZUJKAS_clean_linker_0, # of connection points: 2
#     Edge 111, Type (0, 0), BuildingBlock: ZUJKAS_clean_linker_0, # of connection points: 2
# Relax obj value: 0.221
# Max RMSD: 0.163
# Mean RMSD: 0.163
data_MOF--net-wgp--node1-BEQFEK_clean_sbu_0--edge1-ZUJKAS_clean_linker_0
_symmetry_space_group_name_H-M    P1
_symmetry_Int_Tables_number       1
_symmetry_cell_setting            triclinic
loop_
_symmetry_equiv_pos_as_xyz
'x, y, z'
_cell_length_a     44.088627
_cell_length_b     44.122934
_cell_length_c     147.7205
_cell_angle_alpha  90.019892
_cell_angle_beta   89.988286
_cell_angle_gamma 89.986446
loop_
_atom_site_label
_atom_site_type_symbol
_atom_site_fract_x
_atom_site_fract_y
_atom_site_fract_z
_atom_type_partial_charge
Co0 Co 0.29003 0.16926 0.07188 0.0
Co1 Co 0.32514 0.10771 0.07062 0.0
C2 C 0.28947 0.13163 0.05489 0.0
O3 O 0.28153 0.15495 0.05938 0.0
O4 O 0.30625 0.11133 0.05842 0.0
C5 C 0.23933 0.20948 0.07012 0.0
O6 O 0.22865 0.18789 0.06489 0.0
C7 C 0.33198 0.04217 0.06863 0.0
C8 C 0.3748 0.0332 0.07593 0.0
C9 C 0.35117 0.01906 0.07142 0.0
N10 N 0.34343 0.06866 0.07152 0.0
N11 N 0.36925 0.06322 0.07576 0.0
C12 C 0.3037 0.03964 0.06306 0.0
H13 H 0.30761 0.05084 0.05644 0.0
H14 H 0.28486 0.0519 0.06644 0.0
H15 H 0.29719 0.01578 0.06176 0.0
C16 C 0.26327 0.13881 0.08795 0.0
N17 N 0.28139 0.1389 0.08059 0.0
N18 N 0.29593 0.11289 0.0801 0.0
C19 C 0.28738 0.09533 0.08714 0.0
C20 C 0.2664 0.11117 0.09237 0.0
C21 C 0.24518 0.16563 0.09101 0.0
H22 H 0.25926 0.1864 0.09053 0.0
H23 H 0.22537 0.1685 0.08646 0.0
H24 H 0.2371 0.16298 0.09807 0.0
O25 O 0.33311 0.18187 0.07276 0.0
O26 O 0.3581 0.1383 0.07182 0.0
H27 H 0.3235 0.06386 0.08949 0.0
H28 H 0.28797 0.05296 0.09469 0.0
C29 C 0.2985 0.06367 0.08868 0.0
H30 H 0.29282 0.04958 0.08273 0.0
H31 H 0.38265 0.07993 0.07877 0.0
O32 O 0.26487 0.20585 0.07396 0.0
C33 C 0.35792 0.16707 0.07261 0.0
Co34 Co 0.08344 0.04381 0.32243 0.0
Co35 Co 0.1442 0.07978 0.32061 0.0
C36 C 0.11958 0.04342 0.30514 0.0
O37 O 0.09645 0.03571 0.30976 0.0
O38 O 0.14018 0.06012 0.30855 0.0
C39 C 0.04299 0.99317 0.32097 0.0
O40 O 0.06409 0.98236 0.31558 0.0
C41 C 0.20961 0.0852 0.31876 0.0
C42 C 0.21891 0.13046 0.32454 0.0
C43 C 0.23294 0.10508 0.32091 0.0
N44 N 0.18317 0.09822 0.32104 0.0
N45 N 0.18879 0.12545 0.32436 0.0
C46 C 0.21222 0.05313 0.31554 0.0
H47 H 0.19147 0.04016 0.31729 0.0
H48 H 0.23236 0.04195 0.31856 0.0
H49 H 0.21479 0.05306 0.30806 0.0
C50 C 0.1163 0.01658 0.338 0.0
N51 N 0.1149 0.03524 0.33079 0.0
N52 N 0.14016 0.05105 0.33027 0.0
C53 C 0.1583 0.04318 0.33726 0.0
C54 C 0.14391 0.02091 0.34234 0.0
C55 C 0.0918 0.99467 0.3405 0.0
H56 H 0.08634 0.98037 0.33454 0.0
H57 H 0.0986 0.97971 0.34617 0.0
H58 H 0.07101 0.00739 0.34237 0.0
O59 O 0.07049 0.08676 0.32373 0.0
O60 O 0.11337 0.11239 0.32168 0.0
H61 H 0.19372 0.05515 0.34676 0.0
H62 H 0.20592 0.04926 0.33527 0.0
C63 C 0.18754 0.05863 0.33955 0.0
H64 H 0.18562 0.08328 0.33827 0.0
H65 H 0.17214 0.14015 0.32681 0.0
O66 O 0.04717 0.01858 0.32483 0.0
C67 C 0.08487 0.1117 0.32308 0.0
Co68 Co 0.21242 0.82838 0.57276 0.0
Co69 Co 0.17625 0.88931 0.57159 0.0
C70 C 0.21304 0.86656 0.55592 0.0
O71 O 0.22182 0.84353 0.5604 0.0
O72 O 0.19508 0.88596 0.55939 0.0
C73 C 0.26437 0.78967 0.57143 0.0
O74 O 0.27567 0.81224 0.56671 0.0
C75 C 0.16752 0.9546 0.56934 0.0
C76 C 0.12817 0.96359 0.57821 0.0
C77 C 0.14979 0.97775 0.57289 0.0
N78 N 0.15743 0.92811 0.57266 0.0
N79 N 0.13349 0.93356 0.5778 0.0
C80 C 0.19358 0.95723 0.56288 0.0
H81 H 0.18903 0.94291 0.55686 0.0
H82 H 0.21455 0.94859 0.56613 0.0
H83 H 0.19703 0.98083 0.56053 0.0
C84 C 0.23838 0.85884 0.58896 0.0
N85 N 0.22024 0.85848 0.58161 0.0
N86 N 0.20573 0.88448 0.58103 0.0
C87 C 0.21455 0.90241 0.58796 0.0
C88 C 0.23544 0.88673 0.59325 0.0
C89 C 0.2565 0.83217 0.5921 0.0
H90 H 0.24298 0.81114 0.59132 0.0
H91 H 0.27711 0.83005 0.58784 0.0
H92 H 0.2634 0.83456 0.59929 0.0
O93 O 0.16944 0.81503 0.57338 0.0
O94 O 0.1438 0.85827 0.57276 0.0
H95 H 0.17971 0.93476 0.59083 0.0
H96 H 0.21692 0.94619 0.59469 0.0
C97 C 0.20428 0.93448 0.58923 0.0
H98 H 0.20798 0.94724 0.58289 0.0
H99 H 0.12161 0.91689 0.58134 0.0
O100 O 0.23797 0.79217 0.5748 0.0
C101 C 0.1444 0.82946 0.57335 0.0
Co102 Co 0.41996 0.95723 0.82282 0.0
Co103 Co 0.35854 0.92208 0.82158 0.0
C104 C 0.38241 0.95825 0.80589 0.0
O105 O 0.40569 0.96634 0.81038 0.0
O106 O 0.36232 0.94116 0.8094 0.0
C107 C 0.46029 0.00822 0.82176 0.0
O108 O 0.43797 0.02081 0.81722 0.0
C109 C 0.293 0.91608 0.81952 0.0
C110 C 0.28338 0.87284 0.82649 0.0
C111 C 0.26961 0.89695 0.82212 0.0
N112 N 0.31931 0.90411 0.82237 0.0
N113 N 0.31349 0.87805 0.82643 0.0
C114 C 0.29094 0.94477 0.81413 0.0
H115 H 0.30473 0.96276 0.81738 0.0
H116 H 0.26724 0.95254 0.81323 0.0
H117 H 0.30077 0.94066 0.80733 0.0
C118 C 0.38936 0.98411 0.8389 0.0
N119 N 0.38965 0.96579 0.83159 0.0
N120 N 0.36368 0.95117 0.8311 0.0
C121 C 0.34596 0.95985 0.8381 0.0
C122 C 0.36164 0.98104 0.84329 0.0
C123 C 0.41598 0.00255 0.84193 0.0
H124 H 0.43702 0.98891 0.84135 0.0
H125 H 0.41827 0.0226 0.83744 0.0
H126 H 0.41339 0.01033 0.84903 0.0
O127 O 0.43246 0.91416 0.82358 0.0
O128 O 0.38901 0.88894 0.82276 0.0
H129 H 0.31425 0.92377 0.8402 0.0
H130 H 0.30361 0.95886 0.84569 0.0
C131 C 0.31422 0.94882 0.8396 0.0
H132 H 0.3001 0.95514 0.83371 0.0
H133 H 0.32999 0.86423 0.82936 0.0
O134 O 0.45688 0.98167 0.82493 0.0
C135 C 0.41783 0.88928 0.82347 0.0
Co136 Co 0.29016 0.83572 0.44437 0.0
Co137 Co 0.32973 0.89419 0.44545 0.0
C138 C 0.2934 0.87141 0.46143 0.0
O139 O 0.28237 0.84966 0.45684 0.0
O140 O 0.31228 0.88984 0.45792 0.0
C141 C 0.26386 0.77995 0.44811 0.0
O142 O 0.28256 0.78259 0.455 0.0
C143 C 0.33568 0.95969 0.44656 0.0
C144 C 0.38155 0.96789 0.44104 0.0
C145 C 0.35567 0.98253 0.44409 0.0
N146 N 0.34877 0.93286 0.4448 0.0
N147 N 0.37637 0.93784 0.44163 0.0
C148 C 0.30476 0.96305 0.45066 0.0
H149 H 0.30048 0.94463 0.45558 0.0
H150 H 0.28729 0.96136 0.44529 0.0
H151 H 0.30238 0.98518 0.45416 0.0
C152 C 0.26275 0.86902 0.42898 0.0
N153 N 0.28232 0.86701 0.43596 0.0
N154 N 0.29963 0.89128 0.43613 0.0
C155 C 0.2922 0.90913 0.42903 0.0
C156 C 0.26831 0.89584 0.42434 0.0
C157 C 0.23896 0.84581 0.42695 0.0
H158 H 0.24984 0.82578 0.42376 0.0
H159 H 0.2281 0.83829 0.43334 0.0
H160 H 0.22132 0.85488 0.42233 0.0
O161 O 0.33281 0.82082 0.4432 0.0
O162 O 0.36089 0.86257 0.44368 0.0
H163 H 0.33435 0.9331 0.4276 0.0
H164 H 0.30741 0.94029 0.41869 0.0
C165 C 0.30998 0.93631 0.42607 0.0
H166 H 0.30163 0.95666 0.42969 0.0
H167 H 0.39127 0.92078 0.43959 0.0
O168 O 0.26305 0.80089 0.44223 0.0
C169 C 0.35862 0.83389 0.44299 0.0
Co170 Co 0.42125 0.03997 0.69465 0.0
Co171 Co 0.35986 0.07546 0.69578 0.0
C172 C 0.38341 0.03988 0.71159 0.0
O173 O 0.40676 0.03172 0.70714 0.0
O174 O 0.36328 0.05676 0.70801 0.0
C175 C 0.46138 0.98917 0.69646 0.0
O176 O 0.4399 0.97865 0.70176 0.0
C177 C 0.29427 0.08248 0.69771 0.0
C178 C 0.28549 0.12537 0.69044 0.0
C179 C 0.27123 0.10175 0.69491 0.0
N180 N 0.32085 0.09387 0.69485 0.0
N181 N 0.31552 0.11973 0.69062 0.0
C182 C 0.29162 0.05419 0.70326 0.0
H183 H 0.30448 0.03553 0.69999 0.0
H184 H 0.26773 0.04735 0.70436 0.0
H185 H 0.30217 0.05829 0.70996 0.0
C186 C 0.39068 0.01298 0.67863 0.0
N187 N 0.39087 0.03133 0.68592 0.0
N188 N 0.36494 0.04605 0.68637 0.0
C189 C 0.34734 0.0374 0.67934 0.0
C190 C 0.36306 0.01615 0.67419 0.0
C191 C 0.41738 0.99455 0.67564 0.0
H192 H 0.43827 0.00848 0.67604 0.0
H193 H 0.42011 0.97495 0.68027 0.0
H194 H 0.41464 0.98616 0.66861 0.0
O195 O 0.43412 0.08294 0.6937 0.0
O196 O 0.39066 0.10821 0.69453 0.0
H197 H 0.316 0.07364 0.677 0.0
H198 H 0.30505 0.03827 0.67173 0.0
C199 C 0.31572 0.04864 0.67777 0.0
H200 H 0.3015 0.0429 0.68369 0.0
H201 H 0.3323 0.1331 0.68765 0.0
O202 O 0.45773 0.01464 0.69259 0.0
C203 C 0.41946 0.10784 0.69377 0.0
Co204 Co 0.2053 0.17041 0.94371 0.0
Co205 Co 0.17104 0.10852 0.94493 0.0
C206 C 0.20703 0.13266 0.96061 0.0
O207 O 0.21474 0.15609 0.95615 0.0
O208 O 0.19019 0.11238 0.95709 0.0
C209 C 0.2561 0.21099 0.94468 0.0
O210 O 0.26908 0.1885 0.94904 0.0
C211 C 0.16563 0.04293 0.94696 0.0
C212 C 0.12249 0.03301 0.93994 0.0
C213 C 0.14668 0.01942 0.94434 0.0
N214 N 0.15349 0.06914 0.94409 0.0
N215 N 0.1275 0.06313 0.94001 0.0
C216 C 0.19427 0.04107 0.95239 0.0
H217 H 0.21219 0.05508 0.94918 0.0
H218 H 0.20226 0.01746 0.95326 0.0
H219 H 0.18994 0.05075 0.9592 0.0
C220 C 0.23243 0.14033 0.92757 0.0
N221 N 0.21421 0.14032 0.9349 0.0
N222 N 0.19999 0.11414 0.9354 0.0
C223 C 0.20885 0.09659 0.92838 0.0
C224 C 0.22972 0.1126 0.92317 0.0
C225 C 0.25043 0.16721 0.92452 0.0
H226 H 0.23658 0.18806 0.9252 0.0
H227 H 0.27069 0.16961 0.92892 0.0
H228 H 0.25791 0.16484 0.91738 0.0
O229 O 0.16199 0.18235 0.94301 0.0
O230 O 0.13747 0.13852 0.94381 0.0
H231 H 0.17329 0.06433 0.92624 0.0
H232 H 0.2087 0.05414 0.92085 0.0
C233 C 0.19833 0.06469 0.92691 0.0
H234 H 0.20471 0.05076 0.93283 0.0
H235 H 0.11357 0.07952 0.93707 0.0
O236 O 0.22934 0.20763 0.94164 0.0
C237 C 0.13733 0.16732 0.94313 0.0
Co238 Co 0.08203 0.95818 0.19386 0.0
Co239 Co 0.14375 0.92365 0.19519 0.0
C240 C 0.11925 0.95931 0.21088 0.0
O241 O 0.09598 0.96712 0.20635 0.0
O242 O 0.13969 0.94255 0.2074 0.0
C243 C 0.04175 0.00917 0.19488 0.0
O244 O 0.06389 0.02157 0.19953 0.0
C245 C 0.20929 0.91756 0.19726 0.0
C246 C 0.21876 0.87435 0.19023 0.0
C247 C 0.23261 0.89837 0.19462 0.0
N248 N 0.18295 0.90571 0.1944 0.0
N249 N 0.18867 0.87967 0.19031 0.0
C250 C 0.21147 0.94619 0.20267 0.0
H251 H 0.20142 0.94215 0.20945 0.0
H252 H 0.19792 0.96433 0.1994 0.0
H253 H 0.23523 0.95373 0.20362 0.0
C254 C 0.11255 0.98519 0.17781 0.0
N255 N 0.11244 0.96707 0.18516 0.0
N256 N 0.13858 0.95276 0.18569 0.0
C257 C 0.15624 0.96146 0.17869 0.0
C258 C 0.14034 0.98233 0.17345 0.0
C259 C 0.08566 0.00305 0.17469 0.0
H260 H 0.06486 0.98906 0.17528 0.0
H261 H 0.08293 0.02322 0.1791 0.0
H262 H 0.08821 0.01061 0.16757 0.0
O263 O 0.06979 0.91506 0.19298 0.0
O264 O 0.11354 0.8904 0.19391 0.0
H265 H 0.18813 0.92556 0.17652 0.0
H266 H 0.19865 0.96084 0.17113 0.0
C267 C 0.18804 0.95059 0.17719 0.0
H268 H 0.20208 0.95679 0.18311 0.0
H269 H 0.17212 0.86593 0.18737 0.0
O270 O 0.04516 0.98262 0.19169 0.0
C271 C 0.08476 0.89038 0.19311 0.0
Co272 Co 0.70773 0.82975 0.94245 0.0
Co273 Co 0.67507 0.89254 0.94425 0.0
C274 C 0.71035 0.86715 0.95968 0.0
O275 O 0.71658 0.8435 0.95508 0.0
O276 O 0.69463 0.88858 0.9563 0.0
C277 C 0.75919 0.79021 0.94318 0.0
O278 O 0.77196 0.81313 0.94738 0.0
C279 C 0.66258 0.95728 0.94745 0.0
C280 C 0.63361 0.9683 0.93571 0.0
C281 C 0.64881 0.98132 0.94294 0.0
N282 N 0.65678 0.93161 0.94286 0.0
N283 N 0.63876 0.93825 0.936 0.0
C284 C 0.67982 0.95811 0.95616 0.0
H285 H 0.67178 0.93947 0.96057 0.0
H286 H 0.70431 0.95456 0.95479 0.0
H287 H 0.67638 0.97977 0.95983 0.0
C288 C 0.73544 0.86039 0.92654 0.0
N289 N 0.71728 0.8602 0.93389 0.0
N290 N 0.70451 0.88698 0.93481 0.0
C291 C 0.71501 0.90539 0.92821 0.0
C292 C 0.73464 0.8891 0.92268 0.0
C293 C 0.75148 0.83299 0.92297 0.0
H294 H 0.73717 0.81258 0.92393 0.0
H295 H 0.77289 0.82976 0.9268 0.0
H296 H 0.75693 0.83545 0.91568 0.0
O297 O 0.66463 0.81818 0.94129 0.0
O298 O 0.64145 0.86238 0.94335 0.0
H299 H 0.68595 0.94174 0.92421 0.0
H300 H 0.72575 0.95061 0.92356 0.0
C301 C 0.70821 0.93855 0.92756 0.0
H302 H 0.70736 0.94866 0.93442 0.0
H303 H 0.6313 0.92247 0.93123 0.0
O304 O 0.7321 0.79283 0.94034 0.0
C305 C 0.64053 0.83387 0.94202 0.0
Co306 Co 0.9207 0.96089 0.69289 0.0
Co307 Co 0.85934 0.92528 0.6942 0.0
C308 C 0.88352 0.96134 0.70988 0.0
O309 O 0.90633 0.9703 0.70532 0.0
O310 O 0.86388 0.94357 0.70645 0.0
C311 C 0.96125 0.01184 0.69389 0.0
O312 O 0.93912 0.02454 0.69849 0.0
C313 C 0.79392 0.91632 0.697 0.0
C314 C 0.78421 0.8781 0.68777 0.0
C315 C 0.77047 0.89879 0.69352 0.0
N316 N 0.82012 0.90699 0.69326 0.0
N317 N 0.81422 0.88378 0.68788 0.0
C318 C 0.7919 0.94115 0.70389 0.0
H319 H 0.79833 0.96302 0.70072 0.0
H320 H 0.76893 0.94289 0.7069 0.0
H321 H 0.80816 0.93658 0.70944 0.0
C322 C 0.88968 0.9876 0.67688 0.0
N323 N 0.89022 0.96931 0.68419 0.0
N324 N 0.8641 0.95504 0.68485 0.0
C325 C 0.8459 0.96421 0.67802 0.0
C326 C 0.86153 0.98502 0.6727 0.0
C327 C 0.9164 0.00549 0.67365 0.0
H328 H 0.93735 0.99178 0.67433 0.0
H329 H 0.91888 0.02601 0.67793 0.0
H330 H 0.91376 0.01249 0.66648 0.0
O331 O 0.93328 0.91779 0.69215 0.0
O332 O 0.8899 0.8924 0.69277 0.0
H333 H 0.81313 0.93003 0.67493 0.0
H334 H 0.80161 0.96782 0.67168 0.0
C335 C 0.81366 0.9543 0.67687 0.0
H336 H 0.80146 0.95702 0.68337 0.0
H337 H 0.83057 0.8725 0.68404 0.0
O338 O 0.95761 0.98532 0.69071 0.0
C339 C 0.91872 0.89286 0.69213 0.0
Co340 Co 0.79526 0.16675 0.44377 0.0
Co341 Co 0.83138 0.10597 0.44516 0.0
C342 C 0.79514 0.131 0.46087 0.0
O343 O 0.78634 0.15376 0.4563 0.0
O344 O 0.81257 0.11114 0.45739 0.0
C345 C 0.74521 0.20773 0.44511 0.0
O346 O 0.73395 0.18654 0.45037 0.0
C347 C 0.83263 0.04011 0.4462 0.0
C348 C 0.87998 0.02898 0.44259 0.0
C349 C 0.85224 0.01605 0.44472 0.0
N350 N 0.84785 0.06606 0.44482 0.0
N351 N 0.87623 0.0593 0.44273 0.0
C352 C 0.80022 0.03861 0.44924 0.0
H353 H 0.79354 0.05976 0.45274 0.0
H354 H 0.78516 0.03585 0.4433 0.0
H355 H 0.7967 0.01895 0.45381 0.0
C356 C 0.76751 0.13459 0.42811 0.0
N357 N 0.78637 0.13568 0.43529 0.0
N358 N 0.80261 0.11066 0.43556 0.0
C359 C 0.79523 0.09328 0.42836 0.0
C360 C 0.77241 0.10759 0.42349 0.0
C361 C 0.74498 0.15883 0.42588 0.0
H362 H 0.75722 0.17984 0.42397 0.0
H363 H 0.73114 0.16385 0.43196 0.0
H364 H 0.72961 0.15199 0.42031 0.0
O365 O 0.83873 0.17887 0.44285 0.0
O366 O 0.86466 0.1358 0.44373 0.0
H367 H 0.81145 0.06295 0.41796 0.0
H368 H 0.80211 0.04523 0.42851 0.0
C369 C 0.8124 0.06566 0.42543 0.0
H370 H 0.83645 0.06728 0.42752 0.0
H371 H 0.8929 0.07536 0.44127 0.0
O372 O 0.7708 0.20348 0.44135 0.0
C373 C 0.86387 0.16455 0.44292 0.0
Co374 Co 0.58378 0.04034 0.19354 0.0
Co375 Co 0.64409 0.0775 0.19459 0.0
C376 C 0.62085 0.04072 0.21041 0.0
O377 O 0.59787 0.03158 0.20597 0.0
O378 O 0.64018 0.05849 0.20682 0.0
C379 C 0.54245 0.99029 0.19515 0.0
O380 O 0.56365 0.97876 0.20036 0.0
C381 C 0.71022 0.08178 0.19542 0.0
C382 C 0.71858 0.12934 0.19145 0.0
C383 C 0.73314 0.10261 0.19376 0.0
N384 N 0.68339 0.09542 0.19398 0.0
N385 N 0.68852 0.12391 0.19168 0.0
C386 C 0.7136 0.04985 0.19873 0.0
H387 H 0.71726 0.03443 0.19291 0.0
H388 H 0.73345 0.04792 0.20331 0.0
H389 H 0.69285 0.04231 0.20229 0.0
C390 C 0.6156 0.01303 0.17773 0.0
N391 N 0.6145 0.03206 0.18487 0.0
N392 N 0.63935 0.0486 0.18503 0.0
C393 C 0.65664 0.04118 0.17782 0.0
C394 C 0.64243 0.01808 0.17303 0.0
C395 C 0.59163 0.99006 0.17566 0.0
H396 H 0.57046 0.00191 0.17366 0.0
H397 H 0.58672 0.97667 0.18183 0.0
H398 H 0.59866 0.97438 0.17018 0.0
O399 O 0.57072 0.08349 0.19274 0.0
O400 O 0.6134 0.11007 0.19338 0.0
H401 H 0.68232 0.08248 0.17677 0.0
H402 H 0.68722 0.0568 0.1674 0.0
C403 C 0.68423 0.05831 0.17484 0.0
H404 H 0.70463 0.04845 0.17807 0.0
H405 H 0.67151 0.13954 0.19015 0.0
O406 O 0.54701 0.01569 0.19132 0.0
C407 C 0.58461 0.10883 0.19275 0.0
Co408 Co 0.70562 0.16952 0.57158 0.0
Co409 Co 0.67132 0.10764 0.57033 0.0
C410 C 0.7079 0.1316 0.55473 0.0
O411 O 0.71545 0.15508 0.55919 0.0
O412 O 0.69092 0.11137 0.55821 0.0
C413 C 0.75635 0.21018 0.57065 0.0
O414 O 0.76927 0.18785 0.56619 0.0
C415 C 0.66616 0.04199 0.56837 0.0
C416 C 0.62282 0.03207 0.57528 0.0
C417 C 0.64721 0.01846 0.57098 0.0
N418 N 0.65383 0.06822 0.57115 0.0
N419 N 0.62772 0.06221 0.57517 0.0
C420 C 0.69498 0.04012 0.56302 0.0
H421 H 0.71301 0.05348 0.56642 0.0
H422 H 0.70259 0.01646 0.56197 0.0
H423 H 0.69113 0.05052 0.55629 0.0
C424 C 0.73237 0.13963 0.58777 0.0
N425 N 0.71427 0.13953 0.58042 0.0
N426 N 0.69996 0.11339 0.57994 0.0
C427 C 0.7086 0.09598 0.58701 0.0
C428 C 0.72947 0.11201 0.59221 0.0
C429 C 0.75047 0.16648 0.59079 0.0
H430 H 0.73659 0.18733 0.59017 0.0
H431 H 0.77059 0.16892 0.58634 0.0
H432 H 0.75815 0.16409 0.59791 0.0
O433 O 0.6623 0.18143 0.57218 0.0
O434 O 0.6377 0.13765 0.57133 0.0
H435 H 0.67273 0.06401 0.58907 0.0
H436 H 0.7077 0.05396 0.59473 0.0
C437 C 0.69782 0.06421 0.58856 0.0
H438 H 0.70453 0.04995 0.58273 0.0
H439 H 0.61363 0.07862 0.57804 0.0
O440 O 0.72963 0.20672 0.57371 0.0
C441 C 0.63761 0.16646 0.57201 0.0
Co442 Co 0.58567 0.96028 0.3216 0.0
Co443 Co 0.64591 0.92287 0.32042 0.0
C444 C 0.62222 0.95929 0.3046 0.0
O445 O 0.59938 0.96851 0.30909 0.0
O446 O 0.64172 0.94164 0.30817 0.0
C447 C 0.54245 0.00845 0.31933 0.0
O448 O 0.56099 0.01727 0.31289 0.0
C449 C 0.71198 0.91861 0.31954 0.0
C450 C 0.7205 0.87115 0.32358 0.0
C451 C 0.73496 0.89791 0.32126 0.0
N452 N 0.68519 0.9049 0.32098 0.0
N453 N 0.69041 0.87645 0.32331 0.0
C454 C 0.71526 0.95054 0.31623 0.0
H455 H 0.71825 0.96607 0.32205 0.0
H456 H 0.73543 0.95265 0.31177 0.0
H457 H 0.69471 0.95779 0.31251 0.0
C458 C 0.61824 0.98799 0.33717 0.0
N459 N 0.61681 0.96867 0.33011 0.0
N460 N 0.64153 0.95195 0.32994 0.0
C461 C 0.65903 0.95946 0.3371 0.0
C462 C 0.64513 0.98288 0.34183 0.0
C463 C 0.59449 0.01122 0.33922 0.0
H464 H 0.57409 0.99971 0.34197 0.0
H465 H 0.58783 0.02295 0.33289 0.0
H466 H 0.60265 0.02824 0.34418 0.0
O467 O 0.57249 0.91716 0.32253 0.0
O468 O 0.61513 0.89048 0.32177 0.0
H469 H 0.6843 0.91789 0.33818 0.0
H470 H 0.68925 0.9435 0.34756 0.0
C471 C 0.6864 0.94204 0.34011 0.0
H472 H 0.70697 0.9517 0.33692 0.0
H473 H 0.67346 0.86079 0.32486 0.0
O474 O 0.54918 0.9853 0.32404 0.0
C475 C 0.58636 0.89179 0.3225 0.0
Co476 Co 0.79107 0.83212 0.07124 0.0
Co477 Co 0.82809 0.89247 0.06987 0.0
C478 C 0.79283 0.8674 0.05401 0.0
O479 O 0.7835 0.84491 0.05861 0.0
O480 O 0.81012 0.88731 0.05753 0.0
C481 C 0.74247 0.78952 0.06907 0.0
O482 O 0.73317 0.80877 0.06289 0.0
C483 C 0.83171 0.95847 0.06875 0.0
C484 C 0.87909 0.96763 0.07278 0.0
C485 C 0.85217 0.98172 0.07039 0.0
N486 N 0.84571 0.93191 0.07029 0.0
N487 N 0.87411 0.93751 0.07261 0.0
C488 C 0.79973 0.96124 0.06541 0.0
H489 H 0.78414 0.96434 0.07122 0.0
H490 H 0.79741 0.98116 0.06088 0.0
H491 H 0.79274 0.94043 0.06178 0.0
C492 C 0.76271 0.86516 0.0866 0.0
N493 N 0.78201 0.86366 0.07954 0.0
N494 N 0.79854 0.88849 0.07929 0.0
C495 C 0.79092 0.90614 0.08641 0.0
C496 C 0.76764 0.89221 0.0912 0.0
C497 C 0.73989 0.84116 0.08879 0.0
H498 H 0.7518 0.82095 0.0915 0.0
H499 H 0.72791 0.8343 0.08252 0.0
H500 H 0.72298 0.84917 0.09381 0.0
O501 O 0.83424 0.81932 0.07248 0.0
O502 O 0.86067 0.86205 0.07158 0.0
H503 H 0.83249 0.93147 0.08745 0.0
H504 H 0.80689 0.93652 0.09684 0.0
C505 C 0.80832 0.93356 0.08939 0.0
H506 H 0.7986 0.95405 0.08618 0.0
H507 H 0.88995 0.92079 0.07423 0.0
O508 O 0.7661 0.79563 0.07366 0.0
C509 C 0.85952 0.83336 0.07249 0.0
Co510 Co 0.91971 0.04241 0.82133 0.0
Co511 Co 0.8581 0.07737 0.82025 0.0
C512 C 0.88206 0.04156 0.80447 0.0
O513 O 0.90518 0.03297 0.80894 0.0
O514 O 0.86224 0.05896 0.80798 0.0
C515 C 0.96057 0.9917 0.8203 0.0
O516 O 0.93826 0.97865 0.81588 0.0
C517 C 0.79241 0.08319 0.81827 0.0
C518 C 0.78289 0.12618 0.82542 0.0
C519 C 0.76904 0.10219 0.821 0.0
N520 N 0.81877 0.09508 0.82112 0.0
N521 N 0.813 0.121 0.82527 0.0
C522 C 0.79024 0.05468 0.8128 0.0
H523 H 0.80168 0.03586 0.81642 0.0
H524 H 0.76646 0.04848 0.81123 0.0
H525 H 0.80248 0.05801 0.80631 0.0
C526 C 0.8896 0.01525 0.83743 0.0
N527 N 0.88962 0.03356 0.83012 0.0
N528 N 0.8636 0.04815 0.82971 0.0
C529 C 0.8462 0.03958 0.83679 0.0
C530 C 0.86208 0.01839 0.84191 0.0
C531 C 0.91631 0.99679 0.84037 0.0
H532 H 0.93727 0.01057 0.83986 0.0
H533 H 0.91873 0.977 0.83579 0.0
H534 H 0.91375 0.98862 0.84743 0.0
O535 O 0.93184 0.08574 0.82208 0.0
O536 O 0.88812 0.1106 0.82153 0.0
H537 H 0.81511 0.07606 0.83909 0.0
H538 H 0.80455 0.04115 0.84468 0.0
C539 C 0.81473 0.05101 0.8385 0.0
H540 H 0.80006 0.04485 0.83271 0.0
H541 H 0.82955 0.13474 0.82821 0.0
O542 O 0.95695 0.01836 0.82339 0.0
C543 C 0.91695 0.11049 0.82212 0.0
Co544 Co 0.79355 0.66918 0.57164 0.0
Co545 Co 0.8279 0.60727 0.57048 0.0
C546 C 0.79157 0.6311 0.55481 0.0
O547 O 0.78393 0.65462 0.55925 0.0
O548 O 0.80851 0.61091 0.55834 0.0
C549 C 0.74293 0.71004 0.57059 0.0
O550 O 0.73006 0.68782 0.56609 0.0
C551 C 0.83348 0.54163 0.56853 0.0
C552 C 0.87652 0.53195 0.57564 0.0
C553 C 0.85243 0.5182 0.57124 0.0
N554 N 0.84552 0.56792 0.57137 0.0
N555 N 0.87146 0.56206 0.5755 0.0
C556 C 0.80493 0.53958 0.56307 0.0
H557 H 0.7866 0.55267 0.56642 0.0
H558 H 0.79763 0.51586 0.56194 0.0
H559 H 0.80897 0.55018 0.55637 0.0
C560 C 0.76666 0.6394 0.58784 0.0
N561 N 0.7848 0.63924 0.58049 0.0
N562 N 0.79908 0.61308 0.58003 0.0
C563 C 0.79035 0.59569 0.58709 0.0
C564 C 0.7695 0.61179 0.59229 0.0
C565 C 0.74863 0.66632 0.59085 0.0
H566 H 0.76256 0.68713 0.59022 0.0
H567 H 0.72852 0.6688 0.5864 0.0
H568 H 0.74094 0.66399 0.59797 0.0
O569 O 0.83685 0.68111 0.5723 0.0
O570 O 0.86143 0.6373 0.57152 0.0
H571 H 0.82608 0.56367 0.58931 0.0
H572 H 0.79072 0.55348 0.59473 0.0
C573 C 0.80103 0.56388 0.58864 0.0
H574 H 0.79474 0.54976 0.58275 0.0
H575 H 0.8853 0.57854 0.57843 0.0
O576 O 0.76953 0.70642 0.57373 0.0
C577 C 0.86153 0.66611 0.57218 0.0
Co578 Co 0.58161 0.54043 0.82147 0.0
Co579 Co 0.64348 0.57536 0.82027 0.0
C580 C 0.619 0.54049 0.80442 0.0
O581 O 0.59584 0.53228 0.80895 0.0
O582 O 0.63935 0.55722 0.80796 0.0
C583 C 0.53995 0.4909 0.81941 0.0
O584 O 0.56086 0.48012 0.81395 0.0
C585 C 0.70928 0.584 0.818 0.0
C586 C 0.71807 0.62268 0.82714 0.0
C587 C 0.73239 0.60164 0.82164 0.0
N588 N 0.6827 0.59359 0.82143 0.0
N589 N 0.68808 0.61707 0.82675 0.0
C590 C 0.71206 0.55873 0.81128 0.0
H591 H 0.70634 0.53691 0.81459 0.0
H592 H 0.7351 0.5575 0.80829 0.0
H593 H 0.69568 0.56238 0.80572 0.0
C594 C 0.61203 0.5132 0.83747 0.0
N595 N 0.61198 0.53139 0.83013 0.0
N596 N 0.63823 0.54544 0.82956 0.0
C597 C 0.65603 0.53623 0.83647 0.0
C598 C 0.63999 0.51563 0.84176 0.0
C599 C 0.58488 0.49583 0.84064 0.0
H600 H 0.56431 0.51017 0.84006 0.0
H601 H 0.58172 0.47571 0.83623 0.0
H602 H 0.58738 0.48828 0.84776 0.0
O603 O 0.56928 0.58338 0.82248 0.0
O604 O 0.61286 0.60841 0.82168 0.0
H605 H 0.68874 0.57042 0.83963 0.0
H606 H 0.6999 0.53271 0.84309 0.0
C607 C 0.68823 0.54607 0.83778 0.0
H608 H 0.70087 0.543 0.83138 0.0
H609 H 0.67135 0.62858 0.83039 0.0
O610 O 0.54468 0.51579 0.8235 0.0
C611 C 0.58405 0.60818 0.82245 0.0
Co612 Co 0.70791 0.33161 0.07208 0.0
Co613 Co 0.671 0.39201 0.07115 0.0
C614 C 0.70782 0.3697 0.05531 0.0
O615 O 0.71653 0.34635 0.05966 0.0
O616 O 0.69023 0.3891 0.05895 0.0
C617 C 0.75816 0.29049 0.07024 0.0
O618 O 0.7691 0.31148 0.06485 0.0
C619 C 0.66496 0.45732 0.06942 0.0
C620 C 0.6203 0.46645 0.07564 0.0
C621 C 0.64509 0.48051 0.07168 0.0
N622 N 0.65249 0.43087 0.07192 0.0
N623 N 0.62563 0.43638 0.07553 0.0
C624 C 0.69656 0.46011 0.0658 0.0
H625 H 0.7102 0.4399 0.06766 0.0
H626 H 0.7077 0.48086 0.06844 0.0
H627 H 0.69564 0.46159 0.05831 0.0
C628 C 0.73549 0.36313 0.08791 0.0
N629 N 0.71621 0.36208 0.08083 0.0
N630 N 0.70023 0.38726 0.08059 0.0
C631 C 0.70854 0.40498 0.08762 0.0
C632 C 0.73134 0.39043 0.09245 0.0
C633 C 0.75808 0.33883 0.09002 0.0
H634 H 0.74588 0.31777 0.09191 0.0
H635 H 0.77168 0.33393 0.08387 0.0
H636 H 0.77364 0.3455 0.09556 0.0
O637 O 0.66485 0.31824 0.07291 0.0
O638 O 0.63862 0.36111 0.07229 0.0
H639 H 0.69757 0.44023 0.09729 0.0
H640 H 0.70189 0.45254 0.08574 0.0
C641 C 0.69323 0.43409 0.09012 0.0
H642 H 0.66843 0.43203 0.08912 0.0
H643 H 0.61134 0.4197 0.07816 0.0
O644 O 0.73297 0.29502 0.07421 0.0
C645 C 0.63961 0.33234 0.07291 0.0
Co646 Co 0.91675 0.45834 0.32209 0.0
Co647 Co 0.85589 0.42216 0.32033 0.0
C648 C 0.88122 0.45804 0.30478 0.0
O649 O 0.90419 0.46613 0.30939 0.0
O650 O 0.86072 0.4413 0.30821 0.0
C651 C 0.95948 0.50691 0.32003 0.0
O652 O 0.94017 0.51637 0.31388 0.0
C653 C 0.7898 0.41818 0.3192 0.0
C654 C 0.78101 0.3708 0.32327 0.0
C655 C 0.7667 0.39759 0.32089 0.0
N656 N 0.81649 0.40438 0.32071 0.0
N657 N 0.81111 0.37597 0.32305 0.0
C658 C 0.78671 0.45011 0.31586 0.0
H659 H 0.807 0.45689 0.31194 0.0
H660 H 0.78464 0.46579 0.32169 0.0
H661 H 0.76615 0.45253 0.31158 0.0
C662 C 0.88341 0.48649 0.33742 0.0
N663 N 0.88502 0.46736 0.33032 0.0
N664 N 0.86011 0.45095 0.32998 0.0
C665 C 0.84227 0.4585 0.33706 0.0
C666 C 0.85619 0.4816 0.34194 0.0
C667 C 0.90741 0.50923 0.33969 0.0
H668 H 0.92751 0.49727 0.34245 0.0
H669 H 0.91452 0.5212 0.33344 0.0
H670 H 0.89928 0.52614 0.34469 0.0
O671 O 0.92923 0.41518 0.32349 0.0
O672 O 0.88637 0.38939 0.32154 0.0
H673 H 0.81646 0.41722 0.33792 0.0
H674 H 0.81127 0.44265 0.34734 0.0
C675 C 0.81453 0.44134 0.3399 0.0
H676 H 0.79426 0.45133 0.33663 0.0
H677 H 0.82797 0.36028 0.32467 0.0
O678 O 0.95334 0.48321 0.32458 0.0
C679 C 0.91487 0.39018 0.32293 0.0
Co680 Co 0.78885 0.3349 0.94443 0.0
Co681 Co 0.82613 0.39537 0.94525 0.0
C682 C 0.79071 0.37364 0.96127 0.0
O683 O 0.78183 0.35044 0.95689 0.0
O684 O 0.80793 0.39326 0.95759 0.0
C685 C 0.74297 0.29042 0.94836 0.0
O686 O 0.74005 0.30569 0.95594 0.0
C687 C 0.83506 0.46064 0.94684 0.0
C688 C 0.87751 0.46805 0.93919 0.0
C689 C 0.85457 0.48307 0.94377 0.0
N690 N 0.84563 0.43369 0.94403 0.0
N691 N 0.87127 0.43819 0.93959 0.0
C692 C 0.80719 0.46427 0.95254 0.0
H693 H 0.81134 0.45365 0.95923 0.0
H694 H 0.78791 0.45204 0.94938 0.0
H695 H 0.8012 0.48836 0.95367 0.0
C696 C 0.76236 0.36531 0.92838 0.0
N697 N 0.78085 0.36511 0.93564 0.0
N698 N 0.79617 0.39069 0.93595 0.0
C699 C 0.78776 0.4081 0.92886 0.0
C700 C 0.76606 0.39259 0.9238 0.0
C701 C 0.74347 0.33877 0.92555 0.0
H702 H 0.75754 0.31792 0.92566 0.0
H703 H 0.7247 0.33569 0.93047 0.0
H704 H 0.73393 0.34175 0.91866 0.0
O705 O 0.83144 0.3207 0.94337 0.0
O706 O 0.85787 0.36349 0.94402 0.0
H707 H 0.82466 0.43831 0.92616 0.0
H708 H 0.78919 0.44999 0.92108 0.0
C709 C 0.79973 0.43931 0.92709 0.0
H710 H 0.79479 0.4539 0.933 0.0
H711 H 0.884 0.42095 0.93659 0.0
O712 O 0.76204 0.29923 0.94246 0.0
C713 C 0.85673 0.3347 0.94334 0.0
Co714 Co 0.91954 0.54117 0.19356 0.0
Co715 Co 0.85919 0.57818 0.19482 0.0
C716 C 0.88269 0.54186 0.21058 0.0
O717 O 0.90565 0.53304 0.20607 0.0
O718 O 0.86291 0.5593 0.20706 0.0
C719 C 0.96044 0.49079 0.19527 0.0
O720 O 0.93952 0.48002 0.20072 0.0
C721 C 0.79388 0.58437 0.19682 0.0
C722 C 0.78458 0.62884 0.19053 0.0
C723 C 0.7706 0.60417 0.19458 0.0
N724 N 0.82028 0.59675 0.19423 0.0
N725 N 0.81467 0.62351 0.19058 0.0
C726 C 0.79116 0.55288 0.2005 0.0
H727 H 0.81139 0.53924 0.19866 0.0
H728 H 0.77039 0.54166 0.1979 0.0
H729 H 0.78971 0.55396 0.208 0.0
C730 C 0.88703 0.51344 0.17797 0.0
N731 N 0.88849 0.53278 0.18502 0.0
N732 N 0.86331 0.54877 0.18539 0.0
C733 C 0.84519 0.54038 0.17846 0.0
C734 C 0.85947 0.51754 0.17356 0.0
C735 C 0.91122 0.49082 0.17576 0.0
H736 H 0.93222 0.50297 0.17378 0.0
H737 H 0.91637 0.47724 0.18188 0.0
H738 H 0.90427 0.47525 0.17025 0.0
O739 O 0.93292 0.58408 0.1926 0.0
O740 O 0.89017 0.61048 0.19348 0.0
H741 H 0.80935 0.55118 0.16896 0.0
H742 H 0.79771 0.54705 0.18058 0.0
C743 C 0.81591 0.55564 0.17609 0.0
H744 H 0.81803 0.58043 0.17705 0.0
H745 H 0.83128 0.6377 0.18786 0.0
O746 O 0.95594 0.51596 0.1913 0.0
C747 C 0.91892 0.60936 0.19269 0.0
Co748 Co 0.70483 0.66532 0.44383 0.0
Co749 Co 0.66933 0.60418 0.44517 0.0
C750 C 0.70536 0.62913 0.46089 0.0
O751 O 0.71377 0.65212 0.45634 0.0
O752 O 0.68822 0.60905 0.4574 0.0
C753 C 0.75424 0.70728 0.44532 0.0
O754 O 0.76593 0.68634 0.45059 0.0
C755 C 0.6666 0.53811 0.44614 0.0
C756 C 0.61927 0.52854 0.44213 0.0
C757 C 0.64637 0.5147 0.44446 0.0
N758 N 0.65229 0.56455 0.44469 0.0
N759 N 0.62392 0.55871 0.44237 0.0
C760 C 0.69864 0.53556 0.44945 0.0
H761 H 0.71422 0.53305 0.44361 0.0
H762 H 0.70127 0.51541 0.45388 0.0
H763 H 0.70538 0.55622 0.45319 0.0
C764 C 0.73293 0.6335 0.42815 0.0
N765 N 0.71399 0.63439 0.43531 0.0
N766 N 0.69808 0.60917 0.43559 0.0
C767 C 0.70575 0.59183 0.4284 0.0
C768 C 0.72843 0.6064 0.42353 0.0
C769 C 0.75519 0.65798 0.42593 0.0
H770 H 0.74271 0.67872 0.42389 0.0
H771 H 0.76863 0.66348 0.43205 0.0
H772 H 0.77093 0.65115 0.42044 0.0
O773 O 0.66132 0.67731 0.44291 0.0
O774 O 0.63603 0.63392 0.44382 0.0
H775 H 0.66487 0.56539 0.42748 0.0
H776 H 0.6904 0.56084 0.41805 0.0
C777 C 0.68905 0.5639 0.4255 0.0
H778 H 0.69936 0.54374 0.42873 0.0
H779 H 0.60788 0.5753 0.44081 0.0
O780 O 0.72888 0.70239 0.44149 0.0
C781 C 0.6364 0.66265 0.443 0.0
Co782 Co 0.58042 0.45841 0.693 0.0
Co783 Co 0.64201 0.42332 0.69421 0.0
C784 C 0.61803 0.45842 0.71002 0.0
O785 O 0.59476 0.46648 0.70553 0.0
O786 O 0.63837 0.44169 0.70648 0.0
C787 C 0.54068 0.50941 0.69482 0.0
O788 O 0.56253 0.51993 0.69998 0.0
C789 C 0.70734 0.41496 0.69665 0.0
C790 C 0.71639 0.37408 0.68844 0.0
C791 C 0.73045 0.39597 0.6937 0.0
N792 N 0.68096 0.40478 0.69326 0.0
N793 N 0.68644 0.38009 0.68847 0.0
C794 C 0.71042 0.44428 0.70168 0.0
H795 H 0.69102 0.45945 0.70016 0.0
H796 H 0.73191 0.45587 0.69987 0.0
H797 H 0.71056 0.43959 0.70906 0.0
C798 C 0.61118 0.48567 0.67704 0.0
N799 N 0.61091 0.46727 0.68433 0.0
N800 N 0.63701 0.45292 0.68486 0.0
C801 C 0.65486 0.46195 0.67794 0.0
C802 C 0.63908 0.48298 0.67273 0.0
C803 C 0.58435 0.5037 0.67395 0.0
H804 H 0.56352 0.48972 0.67448 0.0
H805 H 0.58159 0.52368 0.67844 0.0
H806 H 0.58699 0.51152 0.66686 0.0
O807 O 0.56762 0.41544 0.69202 0.0
O808 O 0.61127 0.39053 0.6929 0.0
H809 H 0.68685 0.42668 0.67516 0.0
H810 H 0.6982 0.46345 0.67091 0.0
C811 C 0.6868 0.45139 0.67654 0.0
H812 H 0.70003 0.45555 0.68277 0.0
H813 H 0.66986 0.36791 0.68498 0.0
O814 O 0.54395 0.4838 0.69099 0.0
C815 C 0.58247 0.39067 0.69211 0.0
Co816 Co 0.21045 0.33555 0.44384 0.0
Co817 Co 0.1726 0.39528 0.44487 0.0
C818 C 0.20849 0.37304 0.46078 0.0
O819 O 0.21842 0.35056 0.45626 0.0
O820 O 0.19022 0.39202 0.45725 0.0
C821 C 0.23442 0.27877 0.44752 0.0
O822 O 0.21332 0.28062 0.45378 0.0
C823 C 0.16187 0.4601 0.44721 0.0
C824 C 0.12414 0.46865 0.43771 0.0
C825 C 0.14455 0.48305 0.44339 0.0
N826 N 0.15281 0.43352 0.44371 0.0
N827 N 0.12976 0.43868 0.4382 0.0
C828 C 0.18684 0.46305 0.45404 0.0
H829 H 0.18179 0.44829 0.45991 0.0
H830 H 0.20851 0.45518 0.45102 0.0
H831 H 0.18927 0.4866 0.45654 0.0
C832 C 0.23691 0.36676 0.42793 0.0
N833 N 0.21823 0.36595 0.43515 0.0
N834 N 0.20311 0.39159 0.43567 0.0
C835 C 0.21211 0.40981 0.42883 0.0
C836 C 0.23371 0.39464 0.42365 0.0
C837 C 0.25565 0.34037 0.42488 0.0
H838 H 0.24207 0.31927 0.42534 0.0
H839 H 0.27548 0.33795 0.42945 0.0
H840 H 0.26372 0.34323 0.41782 0.0
O841 O 0.16801 0.32082 0.44282 0.0
O842 O 0.1412 0.36337 0.44333 0.0
H843 H 0.17695 0.44138 0.42558 0.0
H844 H 0.21443 0.45383 0.42227 0.0
C845 C 0.20124 0.44166 0.42752 0.0
H846 H 0.20361 0.45428 0.43394 0.0
H847 H 0.11887 0.4219 0.43443 0.0
O848 O 0.23774 0.30068 0.44205 0.0
C849 C 0.14261 0.3346 0.44268 0.0
Co850 Co 0.41944 0.45681 0.19396 0.0
Co851 Co 0.35777 0.42192 0.19505 0.0
C852 C 0.38151 0.45743 0.21086 0.0
O853 O 0.40496 0.46532 0.20642 0.0
O854 O 0.36125 0.44069 0.20729 0.0
C855 C 0.46138 0.50607 0.19609 0.0
O856 O 0.44077 0.5166 0.20169 0.0
C857 C 0.29217 0.41583 0.1969 0.0
C858 C 0.28293 0.37255 0.18989 0.0
C859 C 0.26894 0.3966 0.19423 0.0
N860 N 0.31861 0.40397 0.1941 0.0
N861 N 0.31301 0.3779 0.19002 0.0
C862 C 0.28985 0.44446 0.20231 0.0
H863 H 0.29973 0.4404 0.20911 0.0
H864 H 0.30346 0.4626 0.19906 0.0
H865 H 0.26607 0.452 0.20322 0.0
C866 C 0.38928 0.48422 0.17795 0.0
N867 N 0.38925 0.46578 0.18523 0.0
N868 N 0.36324 0.4512 0.18561 0.0
C869 C 0.34584 0.45994 0.17856 0.0
C870 C 0.36175 0.48118 0.17346 0.0
C871 C 0.41609 0.50262 0.17506 0.0
H872 H 0.43682 0.48839 0.17529 0.0
H873 H 0.41923 0.52167 0.17988 0.0
H874 H 0.41326 0.51178 0.16812 0.0
O875 O 0.4318 0.41371 0.19303 0.0
O876 O 0.38817 0.3888 0.19383 0.0
H877 H 0.31447 0.42369 0.17626 0.0
H878 H 0.30403 0.45874 0.17072 0.0
C879 C 0.31426 0.44874 0.17688 0.0
H880 H 0.29972 0.45495 0.18269 0.0
H881 H 0.32966 0.36414 0.18713 0.0
O882 O 0.45641 0.48139 0.1919 0.0
C883 C 0.41697 0.38894 0.19309 0.0
Co884 Co 0.29038 0.66896 0.94408 0.0
Co885 Co 0.32784 0.60884 0.94567 0.0
C886 C 0.29083 0.63314 0.96123 0.0
O887 O 0.28164 0.65573 0.95663 0.0
O888 O 0.30867 0.61354 0.95781 0.0
C889 C 0.24047 0.71053 0.94561 0.0
O890 O 0.22958 0.69007 0.95119 0.0
C891 C 0.33128 0.54285 0.94653 0.0
C892 C 0.37907 0.5337 0.94294 0.0
C893 C 0.35183 0.5196 0.94497 0.0
N894 N 0.34556 0.56943 0.94528 0.0
N895 N 0.3742 0.56384 0.94322 0.0
C896 C 0.2989 0.54006 0.94949 0.0
H897 H 0.28399 0.53784 0.94349 0.0
H898 H 0.29581 0.51968 0.9538 0.0
H899 H 0.29169 0.56053 0.95326 0.0
C900 C 0.26336 0.63586 0.92852 0.0
N901 N 0.28226 0.63756 0.93568 0.0
N902 N 0.29932 0.61309 0.93595 0.0
C903 C 0.29258 0.59557 0.92872 0.0
C904 C 0.26923 0.60912 0.92386 0.0
C905 C 0.23978 0.65918 0.9264 0.0
H906 H 0.25102 0.67981 0.92371 0.0
H907 H 0.22763 0.66551 0.93269 0.0
H908 H 0.22305 0.65076 0.92139 0.0
O909 O 0.33367 0.68197 0.94301 0.0
O910 O 0.36035 0.63948 0.9446 0.0
H911 H 0.31025 0.56621 0.91828 0.0
H912 H 0.30123 0.54779 0.92875 0.0
C913 C 0.31084 0.56869 0.92576 0.0
H914 H 0.33475 0.57112 0.92793 0.0
H915 H 0.39027 0.58057 0.94185 0.0
O916 O 0.26548 0.70547 0.9416 0.0
C917 C 0.35898 0.66806 0.94347 0.0
Co918 Co 0.08086 0.54341 0.69418 0.0
Co919 Co 0.14301 0.57786 0.69528 0.0
C920 C 0.11841 0.54323 0.71117 0.0
O921 O 0.09511 0.53519 0.70668 0.0
O922 O 0.13883 0.55979 0.70759 0.0
C923 C 0.03919 0.49393 0.6962 0.0
O924 O 0.06041 0.48282 0.70148 0.0
C925 C 0.20889 0.58549 0.69748 0.0
C926 C 0.21816 0.62454 0.68854 0.0
C927 C 0.23221 0.60303 0.69393 0.0
N928 N 0.18243 0.59562 0.69411 0.0
N929 N 0.18809 0.6193 0.6889 0.0
C930 C 0.21135 0.55987 0.70409 0.0
H931 H 0.19529 0.56367 0.70973 0.0
H932 H 0.20495 0.53834 0.70071 0.0
H933 H 0.23445 0.55794 0.70699 0.0
C934 C 0.11094 0.5156 0.67821 0.0
N935 N 0.11109 0.53399 0.6855 0.0
N936 N 0.1374 0.54799 0.686 0.0
C937 C 0.15499 0.53862 0.67905 0.0
C938 C 0.13879 0.51789 0.67385 0.0
C939 C 0.08374 0.49809 0.67515 0.0
H940 H 0.06323 0.51256 0.67564 0.0
H941 H 0.08049 0.47833 0.67969 0.0
H942 H 0.08623 0.48999 0.66808 0.0
O943 O 0.06893 0.5865 0.69315 0.0
O944 O 0.11272 0.61119 0.69389 0.0
H945 H 0.18752 0.573 0.67591 0.0
H946 H 0.19841 0.53554 0.67214 0.0
C947 C 0.1871 0.54853 0.67761 0.0
H948 H 0.20015 0.54502 0.68391 0.0
H949 H 0.17151 0.63123 0.68534 0.0
O950 O 0.04372 0.51905 0.69221 0.0
C951 C 0.0839 0.61118 0.69315 0.0
Co952 Co 0.20825 0.66938 0.07272 0.0
Co953 Co 0.17346 0.60759 0.07135 0.0
C954 C 0.20932 0.6323 0.05571 0.0
O955 O 0.21788 0.65518 0.0603 0.0
O956 O 0.19181 0.61237 0.05911 0.0
C957 C 0.25911 0.70996 0.07186 0.0
O958 O 0.27209 0.68766 0.06741 0.0
C959 C 0.16526 0.54208 0.06856 0.0
C960 C 0.12714 0.53203 0.0778 0.0
C961 C 0.14799 0.51848 0.07206 0.0
N962 N 0.15563 0.56819 0.07228 0.0
N963 N 0.13248 0.56208 0.07767 0.0
C964 C 0.19014 0.54027 0.06167 0.0
H965 H 0.21199 0.54674 0.06486 0.0
H966 H 0.19197 0.51737 0.05864 0.0
H967 H 0.1855 0.55659 0.05615 0.0
C968 C 0.23526 0.63872 0.08873 0.0
N969 N 0.217 0.63903 0.08141 0.0
N970 N 0.20312 0.61272 0.08072 0.0
C971 C 0.21256 0.59462 0.08753 0.0
C972 C 0.23312 0.61053 0.09288 0.0
C973 C 0.25267 0.6657 0.092 0.0
H974 H 0.23872 0.68645 0.09125 0.0
H975 H 0.27338 0.66837 0.08781 0.0
H976 H 0.25939 0.66322 0.0992 0.0
O977 O 0.165 0.68138 0.07344 0.0
O978 O 0.14014 0.63772 0.07274 0.0
H979 H 0.17891 0.56128 0.09059 0.0
H980 H 0.21692 0.55036 0.09383 0.0
C981 C 0.20318 0.56224 0.08865 0.0
H982 H 0.20608 0.55016 0.08214 0.0
H983 H 0.12101 0.57831 0.0815 0.0
O984 O 0.23237 0.70647 0.0749 0.0
C985 C 0.14024 0.66652 0.07341 0.0
Co986 Co 0.08141 0.4599 0.82247 0.0
Co987 Co 0.1421 0.42333 0.82109 0.0
C988 C 0.11846 0.45953 0.8054 0.0
O989 O 0.09542 0.46799 0.80994 0.0
O990 O 0.13848 0.44228 0.80888 0.0
C991 C 0.0417 0.51109 0.82082 0.0
O992 O 0.06315 0.52143 0.81547 0.0
C993 C 0.20731 0.4151 0.8187 0.0
C994 C 0.21601 0.3725 0.82612 0.0
C995 C 0.23028 0.39543 0.82132 0.0
N996 N 0.18082 0.40429 0.82182 0.0
N997 N 0.18608 0.3786 0.82614 0.0
C998 C 0.21056 0.44538 0.81423 0.0
H999 H 0.19103 0.46017 0.81594 0.0
H1000 H 0.23195 0.45659 0.81634 0.0
H1001 H 0.21108 0.4422 0.80678 0.0
C1002 C 0.11346 0.4867 0.83828 0.0
N1003 N 0.11241 0.46813 0.83103 0.0
N1004 N 0.13783 0.45255 0.83056 0.0
C1005 C 0.15577 0.46055 0.83757 0.0
C1006 C 0.14097 0.4825 0.84268 0.0
C1007 C 0.08774 0.50652 0.84122 0.0
H1008 H 0.06648 0.49309 0.84137 0.0
H1009 H 0.08475 0.52502 0.83621 0.0
H1010 H 0.09181 0.51649 0.848 0.0
O1011 O 0.06795 0.41703 0.82342 0.0
O1012 O 0.11096 0.39111 0.82238 0.0
H1013 H 0.18516 0.42269 0.83983 0.0
H1014 H 0.19711 0.45695 0.84553 0.0
C1015 C 0.18667 0.4477 0.83929 0.0
H1016 H 0.20168 0.45332 0.83352 0.0
H1017 H 0.16936 0.36575 0.82934 0.0
O1018 O 0.04529 0.48563 0.8247 0.0
C1019 C 0.08222 0.39191 0.82324 0.0
Co1020 Co 0.2884 0.33327 0.57201 0.0
Co1021 Co 0.32571 0.39349 0.57106 0.0
C1022 C 0.28871 0.3718 0.55528 0.0
O1023 O 0.2793 0.34898 0.55974 0.0
O1024 O 0.30711 0.39071 0.55878 0.0
C1025 C 0.26288 0.2773 0.56783 0.0
O1026 O 0.28144 0.28078 0.56095 0.0
C1027 C 0.33633 0.45864 0.56884 0.0
C1028 C 0.37565 0.46641 0.57782 0.0
C1029 C 0.35481 0.48122 0.57237 0.0
N1030 N 0.34531 0.43188 0.57226 0.0
N1031 N 0.36916 0.4366 0.57749 0.0
C1032 C 0.31087 0.462 0.5622 0.0
H1033 H 0.28929 0.45477 0.5654 0.0
H1034 H 0.30877 0.48551 0.55964 0.0
H1035 H 0.31504 0.44694 0.55633 0.0
C1036 C 0.26265 0.36362 0.58819 0.0
N1037 N 0.28101 0.36322 0.5809 0.0
N1038 N 0.29599 0.38896 0.58044 0.0
C1039 C 0.2873 0.40678 0.58741 0.0
C1040 C 0.26596 0.39128 0.59259 0.0
C1041 C 0.24398 0.33709 0.59116 0.0
H1042 H 0.25765 0.31605 0.59065 0.0
H1043 H 0.2242 0.33472 0.58657 0.0
H1044 H 0.23583 0.33972 0.59822 0.0
O1045 O 0.33107 0.31895 0.57265 0.0
O1046 O 0.35752 0.36172 0.57221 0.0
H1047 H 0.32271 0.43813 0.5906 0.0
H1048 H 0.2855 0.45032 0.59427 0.0
C1049 C 0.29826 0.43853 0.58884 0.0
H1050 H 0.29542 0.45158 0.58251 0.0
H1051 H 0.38034 0.41959 0.58109 0.0
O1052 O 0.26174 0.29784 0.57385 0.0
C1053 C 0.35637 0.3329 0.5727 0.0
Co1054 Co 0.41881 0.54516 0.32175 0.0
Co1055 Co 0.35724 0.58004 0.32054 0.0
C1056 C 0.38091 0.54385 0.30486 0.0
O1057 O 0.40426 0.53597 0.30934 0.0
O1058 O 0.36076 0.56093 0.30835 0.0
C1059 C 0.45857 0.49375 0.32081 0.0
O1060 O 0.43579 0.48101 0.31653 0.0
C1061 C 0.29165 0.58695 0.31846 0.0
C1062 C 0.28258 0.62892 0.32617 0.0
C1063 C 0.26843 0.60587 0.32138 0.0
N1064 N 0.31814 0.59823 0.32144 0.0
N1065 N 0.31264 0.62359 0.3259 0.0
C1066 C 0.28875 0.55676 0.3139 0.0
H1067 H 0.30896 0.54253 0.3153 0.0
H1068 H 0.26808 0.54474 0.31625 0.0
H1069 H 0.28703 0.56023 0.30648 0.0
C1070 C 0.38876 0.51877 0.33798 0.0
N1071 N 0.38873 0.53667 0.33058 0.0
N1072 N 0.36263 0.55105 0.33007 0.0
C1073 C 0.34511 0.54257 0.33713 0.0
C1074 C 0.3611 0.52185 0.34239 0.0
C1075 C 0.41567 0.5009 0.34109 0.0
H1076 H 0.43657 0.51463 0.3403 0.0
H1077 H 0.41795 0.48037 0.3368 0.0
H1078 H 0.41342 0.49392 0.34827 0.0
O1079 O 0.43129 0.5882 0.32249 0.0
O1080 O 0.3877 0.61319 0.32167 0.0
H1081 H 0.3133 0.57835 0.3395 0.0
H1082 H 0.30252 0.54264 0.34458 0.0
C1083 C 0.31331 0.55339 0.33863 0.0
H1084 H 0.29943 0.54775 0.33263 0.0
H1085 H 0.3293 0.63664 0.32906 0.0
O1086 O 0.45569 0.52063 0.32379 0.0
C1087 C 0.41652 0.613 0.32237 0.0
H1088 H 0.20607 0.11181 0.09647 0.0
H1089 H 0.18166 0.09432 0.11046 0.0
H1090 H 0.26917 0.06945 0.12122 0.0
H1091 H 0.2936 0.08842 0.10748 0.0
H1092 H 0.17933 0.0395 0.11756 0.0
H1093 H 0.23531 0.11509 0.14226 0.0
H1094 H 0.23787 0.12118 0.13021 0.0
H1095 H 0.2626 0.09441 0.13572 0.0
C1096 C 0.22004 0.10304 0.1019 0.0
C1097 C 0.25167 0.1013 0.1009 0.0
C1098 C 0.20611 0.09292 0.10986 0.0
C1099 C 0.22357 0.08093 0.11698 0.0
C1100 C 0.25521 0.07925 0.11596 0.0
H1101 H 0.16373 0.95577 0.1583 0.0
H1102 H 0.18237 0.98075 0.1446 0.0
C1103 C 0.26914 0.08968 0.10804 0.0
C1104 C 0.20866 0.06881 0.12527 0.0
H1105 H 0.21101 0.07091 0.14837 0.0
C1106 C 0.18605 0.04662 0.12429 0.0
C1107 C 0.21694 0.07843 0.13407 0.0
C1108 C 0.23927 0.10383 0.13563 0.0
C1109 C 0.17227 0.0331 0.13186 0.0
C1110 C 0.18198 0.0413 0.14066 0.0
C1111 C 0.20383 0.06424 0.14164 0.0
C1112 C 0.17025 0.02606 0.14895 0.0
C1113 C 0.14719 0.01041 0.13031 0.0
C1114 C 0.15805 0.04319 0.1561 0.0
C1115 C 0.14814 0.02896 0.16404 0.0
C1116 C 0.15028 0.99736 0.16497 0.0
C1117 C 0.16218 0.98022 0.15779 0.0
C1118 C 0.1724 0.99445 0.1499 0.0
H1119 H 0.13573 0.0143 0.12371 0.0
H1120 H 0.15698 0.98725 0.13017 0.0
H1121 H 0.1299 0.01144 0.13577 0.0
H1122 H 0.15629 0.06761 0.15556 0.0
H1123 H 0.13914 0.04268 0.1695 0.0
H1124 H 0.1151 0.01606 0.35865 0.0
H1125 H 0.13496 0.99371 0.37266 0.0
H1126 H 0.21818 0.97085 0.3589 0.0
H1127 H 0.19835 0.99319 0.3449 0.0
H1128 H 0.15538 0.93499 0.37648 0.0
H1129 H 0.24749 0.01944 0.38082 0.0
H1130 H 0.21653 0.02489 0.373 0.0
H1131 H 0.2478 0.00066 0.37004 0.0
C1132 C 0.1375 0.00597 0.35862 0.0
C1133 C 0.15524 0.00629 0.35072 0.0
C1134 C 0.14886 0.99333 0.36662 0.0
C1135 C 0.17822 0.981 0.36686 0.0
C1136 C 0.19571 0.98077 0.35892 0.0
H1137 H 0.25699 0.86541 0.40857 0.0
H1138 H 0.23381 0.8855 0.39472 0.0
C1139 C 0.18436 0.99342 0.35093 0.0
C1140 C 0.19062 0.96857 0.37544 0.0
H1141 H 0.24828 0.97699 0.39068 0.0
C1142 C 0.17565 0.94418 0.37961 0.0
C1143 C 0.21683 0.98089 0.37958 0.0
C1144 C 0.23298 0.0081 0.37569 0.0
C1145 C 0.18649 0.93145 0.38771 0.0
C1146 C 0.21325 0.94315 0.39168 0.0
C1147 C 0.22792 0.96785 0.38759 0.0
C1148 C 0.22629 0.93046 0.40015 0.0
C1149 C 0.16887 0.90595 0.39203 0.0
C1150 C 0.23026 0.94915 0.40776 0.0
C1151 C 0.24355 0.93772 0.41564 0.0
C1152 C 0.25321 0.90743 0.41606 0.0
C1153 C 0.24922 0.8887 0.40847 0.0
C1154 C 0.23596 0.90015 0.40056 0.0
H1155 H 0.14511 0.90513 0.38954 0.0
H1156 H 0.17985 0.88406 0.39031 0.0
H1157 H 0.16856 0.90826 0.39951 0.0
H1158 H 0.22307 0.97262 0.40759 0.0
H1159 H 0.24628 0.95258 0.42142 0.0
H1160 H 0.20865 0.91215 0.60804 0.0
H1161 H 0.23332 0.93219 0.62161 0.0
H1162 H 0.32019 0.90269 0.61143 0.0
H1163 H 0.29565 0.88418 0.59759 0.0
H1164 H 0.26518 0.90631 0.63465 0.0
H1165 H 0.33847 0.98968 0.61705 0.0
H1166 H 0.30839 0.96963 0.61135 0.0
H1167 H 0.34436 0.95146 0.6133 0.0
C1168 C 0.23306 0.91032 0.60865 0.0
C1169 C 0.25033 0.89714 0.6017 0.0
C1170 C 0.24712 0.92155 0.61644 0.0
C1171 C 0.27873 0.91957 0.61748 0.0
C1172 C 0.2959 0.90528 0.61069 0.0
H1173 H 0.36344 0.95567 0.6703 0.0
H1174 H 0.34528 0.93079 0.65647 0.0
C1175 C 0.28184 0.89437 0.60283 0.0
C1176 C 0.29344 0.93245 0.6257 0.0
H1177 H 0.34659 0.98358 0.63279 0.0
C1178 C 0.283 0.9232 0.63425 0.0
C1179 C 0.31643 0.95481 0.62517 0.0
C1180 C 0.32739 0.96723 0.61623 0.0
C1181 C 0.29469 0.93576 0.64226 0.0
C1182 C 0.31822 0.95755 0.64174 0.0
C1183 C 0.3288 0.96666 0.6332 0.0
C1184 C 0.33103 0.97239 0.64995 0.0
C1185 C 0.28085 0.92635 0.65118 0.0
C1186 C 0.33048 0.00412 0.65072 0.0
C1187 C 0.34149 0.01833 0.65852 0.0
C1188 C 0.353 0.0011 0.66573 0.0
C1189 C 0.35445 0.96943 0.66485 0.0
C1190 C 0.34376 0.95521 0.657 0.0
H1191 H 0.25795 0.91631 0.65025 0.0
H1192 H 0.29548 0.90895 0.65439 0.0
H1193 H 0.27893 0.94591 0.65587 0.0
H1194 H 0.32107 0.01793 0.64535 0.0
H1195 H 0.34077 0.04283 0.65894 0.0
H1196 H 0.36197 0.04163 0.84695 0.0
H1197 H 0.34397 0.06716 0.8607 0.0
H1198 H 0.31889 0.9806 0.87205 0.0
H1199 H 0.33841 0.95507 0.85854 0.0
H1200 H 0.28898 0.07012 0.86763 0.0
H1201 H 0.36371 0.01619 0.89296 0.0
H1202 H 0.37021 0.01258 0.88095 0.0
H1203 H 0.3432 0.98839 0.88657 0.0
C1204 C 0.35304 0.02811 0.85246 0.0
C1205 C 0.35141 0.99643 0.85168 0.0
C1206 C 0.34262 0.04268 0.86029 0.0
C1207 C 0.33042 0.02582 0.86749 0.0
C1208 C 0.32884 0.99412 0.8667 0.0
H1209 H 0.20373 0.08889 0.90799 0.0
H1210 H 0.22924 0.06955 0.89446 0.0
C1211 C 0.33958 0.97956 0.85893 0.0
C1212 C 0.31801 0.04141 0.87564 0.0
H1213 H 0.31932 0.04102 0.89876 0.0
C1214 C 0.29587 0.06396 0.87443 0.0
C1215 C 0.32733 0.03388 0.88453 0.0
C1216 C 0.35266 0.01168 0.88633 0.0
C1217 C 0.28212 0.07841 0.88186 0.0
C1218 C 0.29001 0.06944 0.89076 0.0
C1219 C 0.31289 0.04764 0.89196 0.0
C1220 C 0.27443 0.08182 0.89891 0.0
C1221 C 0.25953 0.10339 0.88005 0.0
C1222 C 0.29128 0.09441 0.90606 0.0
C1223 C 0.27673 0.10474 0.9139 0.0
C1224 C 0.24508 0.10261 0.91475 0.0
C1225 C 0.2282 0.09044 0.90755 0.0
C1226 C 0.24275 0.0798 0.89976 0.0
H1227 H 0.26375 0.11433 0.87339 0.0
H1228 H 0.23634 0.09363 0.87987 0.0
H1229 H 0.26032 0.12107 0.8854 0.0
H1230 H 0.31575 0.0961 0.90559 0.0
H1231 H 0.29026 0.11394 0.91937 0.0
H1232 H 0.84146 0.04503 0.85739 0.0
H1233 H 0.82306 0.02002 0.87113 0.0
H1234 H 0.84349 0.93278 0.85941 0.0
H1235 H 0.86089 0.95784 0.84551 0.0
H1236 H 0.78768 0.93361 0.86695 0.0
H1237 H 0.87052 0.98066 0.89132 0.0
H1238 H 0.85114 0.00973 0.88512 0.0
H1239 H 0.87553 0.9836 0.87923 0.0
C1240 C 0.84193 0.02051 0.85776 0.0
C1241 C 0.85232 0.0033 0.85039 0.0
C1242 C 0.83178 0.00625 0.86565 0.0
C1243 C 0.83232 0.9745 0.86638 0.0
C1244 C 0.84301 0.95729 0.85903 0.0
H1245 H 0.79403 0.88186 0.91771 0.0
H1246 H 0.81869 0.89992 0.90381 0.0
C1247 C 0.85302 0.97158 0.85112 0.0
C1248 C 0.82032 0.9593 0.87462 0.0
H1249 H 0.82614 0.95763 0.89768 0.0
C1250 C 0.79629 0.93865 0.87366 0.0
C1251 C 0.83184 0.96545 0.88337 0.0
C1252 C 0.85889 0.98582 0.88483 0.0
C1253 C 0.78281 0.92483 0.88122 0.0
C1254 C 0.79318 0.93235 0.89001 0.0
C1255 C 0.81792 0.95215 0.89096 0.0
C1256 C 0.77816 0.92059 0.89831 0.0
C1257 C 0.75769 0.90217 0.87971 0.0
C1258 C 0.74728 0.9264 0.89988 0.0
C1259 C 0.73318 0.91586 0.90774 0.0
C1260 C 0.74973 0.89966 0.91427 0.0
C1261 C 0.78067 0.89401 0.91274 0.0
C1262 C 0.79479 0.90445 0.90484 0.0
H1263 H 0.759 0.89197 0.87284 0.0
H1264 H 0.75845 0.8837 0.8848 0.0
H1265 H 0.73548 0.91385 0.88029 0.0
H1266 H 0.73411 0.93936 0.89505 0.0
H1267 H 0.70925 0.92036 0.90872 0.0
H1268 H 0.83516 0.95839 0.65804 0.0
H1269 H 0.81557 0.98303 0.64441 0.0
H1270 H 0.84571 0.06971 0.6545 0.0
H1271 H 0.86406 0.04517 0.66837 0.0
H1272 H 0.78946 0.07359 0.64791 0.0
H1273 H 0.86122 0.0142 0.62285 0.0
H1274 H 0.84036 0.98808 0.62975 0.0
H1275 H 0.86845 0.01229 0.63486 0.0
C1276 C 0.83749 0.98272 0.65735 0.0
C1277 C 0.85099 0.99992 0.66426 0.0
C1278 C 0.82666 0.99674 0.64951 0.0
C1279 C 0.82965 0.02819 0.64833 0.0
C1280 C 0.84332 0.0454 0.65522 0.0
H1281 H 0.79003 0.11257 0.59593 0.0
H1282 H 0.8154 0.09525 0.60978 0.0
C1283 C 0.85394 0.03138 0.66311 0.0
C1284 C 0.81731 0.04318 0.64009 0.0
H1285 H 0.81761 0.04004 0.61698 0.0
C1286 C 0.79585 0.06646 0.64115 0.0
C1287 C 0.82599 0.03431 0.63125 0.0
C1288 C 0.85051 0.01108 0.6296 0.0
C1289 C 0.78212 0.08035 0.63363 0.0
C1290 C 0.78943 0.07015 0.6248 0.0
C1291 C 0.81165 0.04761 0.62374 0.0
C1292 C 0.77394 0.08208 0.61659 0.0
C1293 C 0.76015 0.10602 0.63524 0.0
C1294 C 0.74222 0.08044 0.61577 0.0
C1295 C 0.72776 0.09069 0.60793 0.0
C1296 C 0.74474 0.10217 0.60066 0.0
C1297 C 0.77643 0.10389 0.60146 0.0
C1298 C 0.79091 0.09388 0.60934 0.0
H1299 H 0.76462 0.11744 0.64182 0.0
H1300 H 0.76138 0.12318 0.62976 0.0
H1301 H 0.73673 0.09685 0.63548 0.0
H1302 H 0.72864 0.07081 0.62116 0.0
H1303 H 0.70326 0.08945 0.60751 0.0
H1304 H 0.61518 0.99335 0.35776 0.0
H1305 H 0.63553 0.01678 0.37155 0.0
H1306 H 0.7216 0.02996 0.35823 0.0
H1307 H 0.70134 0.00642 0.34448 0.0
H1308 H 0.7281 0.0048 0.37489 0.0
H1309 H 0.65301 0.10542 0.37703 0.0
H1310 H 0.63289 0.07012 0.37635 0.0
H1311 H 0.65578 0.08237 0.36696 0.0
C1312 C 0.63827 0.00172 0.35776 0.0
C1313 C 0.65667 0.99829 0.35006 0.0
C1314 C 0.64987 0.01513 0.36562 0.0
C1315 C 0.67998 0.02556 0.36589 0.0
C1316 C 0.69829 0.0222 0.35818 0.0
H1317 H 0.76478 0.13764 0.40745 0.0
H1318 H 0.74204 0.11796 0.39345 0.0
C1319 C 0.68674 0.00872 0.35034 0.0
C1320 C 0.69296 0.03865 0.37432 0.0
H1321 H 0.68425 0.09549 0.38983 0.0
C1322 C 0.71855 0.02469 0.37814 0.0
C1323 C 0.68074 0.06483 0.3785 0.0
C1324 C 0.65427 0.08177 0.37446 0.0
C1325 C 0.732 0.03589 0.38608 0.0
C1326 C 0.71916 0.06143 0.39043 0.0
C1327 C 0.69387 0.07572 0.38654 0.0
C1328 C 0.73186 0.07372 0.399 0.0
C1329 C 0.76019 0.02055 0.38964 0.0
C1330 C 0.73317 0.0556 0.4068 0.0
C1331 C 0.74608 0.06681 0.41477 0.0
C1332 C 0.75759 0.09646 0.41512 0.0
C1333 C 0.75572 0.11483 0.40738 0.0
C1334 C 0.74286 0.10357 0.39939 0.0
H1335 H 0.7717 0.00701 0.38431 0.0
H1336 H 0.77653 0.0374 0.39236 0.0
H1337 H 0.75382 0.00491 0.39521 0.0
H1338 H 0.72426 0.03273 0.40673 0.0
H1339 H 0.74705 0.05231 0.42068 0.0
H1340 H 0.61246 0.00931 0.15702 0.0
H1341 H 0.6323 0.98587 0.14316 0.0
H1342 H 0.71783 0.96972 0.1565 0.0
H1343 H 0.69808 0.9933 0.17032 0.0
H1344 H 0.72525 0.99504 0.1399 0.0
H1345 H 0.64708 0.89692 0.13748 0.0
H1346 H 0.62805 0.93281 0.13823 0.0
H1347 H 0.65046 0.9196 0.1476 0.0
C1348 C 0.63531 0.0003 0.15701 0.0
C1349 C 0.65369 0.00283 0.16474 0.0
C1350 C 0.64662 0.98688 0.14911 0.0
C1351 C 0.67641 0.97558 0.14883 0.0
C1352 C 0.69474 0.97814 0.15657 0.0
H1353 H 0.75831 0.86193 0.10713 0.0
H1354 H 0.73575 0.88195 0.12111 0.0
C1355 C 0.68348 0.99163 0.16444 0.0
C1356 C 0.68906 0.96232 0.14037 0.0
H1357 H 0.67873 0.90619 0.12472 0.0
C1358 C 0.71512 0.97556 0.1366 0.0
C1359 C 0.67607 0.93666 0.13612 0.0
C1360 C 0.64905 0.92044 0.1401 0.0
C1361 C 0.72829 0.96414 0.12864 0.0
C1362 C 0.7147 0.93914 0.12422 0.0
C1363 C 0.68893 0.92556 0.12806 0.0
C1364 C 0.72713 0.92664 0.11564 0.0
C1365 C 0.75699 0.97866 0.12514 0.0
C1366 C 0.7292 0.94489 0.10788 0.0
C1367 C 0.74201 0.93349 0.09992 0.0
C1368 C 0.75268 0.90352 0.09953 0.0
C1369 C 0.74994 0.88501 0.10722 0.0
C1370 C 0.73718 0.89645 0.11521 0.0
H1371 H 0.76886 0.99169 0.13052 0.0
H1372 H 0.77283 0.96137 0.1224 0.0
H1373 H 0.75118 0.99463 0.11961 0.0
H1374 H 0.721 0.96802 0.10799 0.0
H1375 H 0.7436 0.94811 0.09405 0.0
H1376 H 0.709 0.61282 0.59612 0.0
H1377 H 0.68376 0.5954 0.60999 0.0
H1378 H 0.77056 0.57003 0.62116 0.0
H1379 H 0.79581 0.58886 0.60752 0.0
H1380 H 0.68101 0.54031 0.61704 0.0
H1381 H 0.73553 0.61593 0.64203 0.0
H1382 H 0.73871 0.62206 0.62999 0.0
H1383 H 0.76314 0.59526 0.63561 0.0
C1384 C 0.72263 0.60395 0.60161 0.0
C1385 C 0.7543 0.60201 0.60076 0.0
C1386 C 0.70823 0.59387 0.60951 0.0
C1387 C 0.72525 0.58176 0.61669 0.0
C1388 C 0.75693 0.57992 0.61583 0.0
H1389 H 0.66365 0.45664 0.65773 0.0
H1390 H 0.68287 0.48172 0.64412 0.0
C1391 C 0.77133 0.59027 0.60798 0.0
C1392 C 0.70983 0.56967 0.6249 0.0
H1393 H 0.7107 0.57187 0.64802 0.0
C1394 C 0.6873 0.54746 0.62381 0.0
C1395 C 0.71755 0.57933 0.63375 0.0
C1396 C 0.73982 0.60469 0.63542 0.0
C1397 C 0.67306 0.53395 0.6313 0.0
C1398 C 0.6822 0.54222 0.64016 0.0
C1399 C 0.70396 0.56518 0.64125 0.0
C1400 C 0.67002 0.52693 0.64837 0.0
C1401 C 0.64815 0.51118 0.62962 0.0
C1402 C 0.65717 0.54397 0.65544 0.0
C1403 C 0.64685 0.52968 0.66333 0.0
C1404 C 0.64925 0.49811 0.66429 0.0
C1405 C 0.66182 0.48106 0.65719 0.0
C1406 C 0.67241 0.49535 0.64936 0.0
H1407 H 0.63713 0.51496 0.62295 0.0
H1408 H 0.65801 0.48804 0.62956 0.0
H1409 H 0.6305 0.51222 0.63498 0.0
H1410 H 0.65523 0.56838 0.65488 0.0
H1411 H 0.6374 0.54335 0.66873 0.0
H1412 H 0.7933 0.41334 0.90845 0.0
H1413 H 0.76888 0.43233 0.89469 0.0
H1414 H 0.68114 0.41063 0.9059 0.0
H1415 H 0.70555 0.39324 0.91989 0.0
H1416 H 0.73438 0.40632 0.88229 0.0
H1417 H 0.66794 0.49736 0.89894 0.0
H1418 H 0.69712 0.47646 0.90478 0.0
H1419 H 0.65991 0.46037 0.90335 0.0
C1420 C 0.76877 0.41304 0.90801 0.0
C1421 C 0.75125 0.40241 0.91528 0.0
C1422 C 0.75484 0.42365 0.90012 0.0
C1423 C 0.72309 0.42356 0.89931 0.0
C1424 C 0.70559 0.41178 0.90644 0.0
H1425 H 0.63641 0.4558 0.84649 0.0
H1426 H 0.65423 0.43205 0.86054 0.0
C1427 C 0.71955 0.40152 0.91439 0.0
C1428 C 0.70855 0.43583 0.89098 0.0
H1429 H 0.65807 0.48882 0.88339 0.0
C1430 C 0.71767 0.42436 0.88253 0.0
C1431 C 0.68702 0.45965 0.89128 0.0
C1432 C 0.67762 0.47441 0.90006 0.0
C1433 C 0.70611 0.43614 0.87439 0.0
C1434 C 0.68403 0.45944 0.8747 0.0
C1435 C 0.67474 0.47075 0.88315 0.0
C1436 C 0.67156 0.47367 0.86635 0.0
C1437 C 0.71857 0.42423 0.86556 0.0
C1438 C 0.67404 0.50513 0.8651 0.0
C1439 C 0.66322 0.51875 0.8572 0.0
C1440 C 0.64994 0.50118 0.85033 0.0
C1441 C 0.64668 0.46983 0.85166 0.0
C1442 C 0.6572 0.45622 0.85964 0.0
H1443 H 0.74084 0.41287 0.8665 0.0
H1444 H 0.70258 0.4073 0.86273 0.0
H1445 H 0.72138 0.44276 0.86055 0.0
H1446 H 0.68476 0.51916 0.8702 0.0
H1447 H 0.66544 0.54306 0.85642 0.0
H1448 H 0.73891 0.36095 0.10856 0.0
H1449 H 0.76221 0.38084 0.12245 0.0
H1450 H 0.78158 0.46504 0.1088 0.0
H1451 H 0.75848 0.44516 0.09492 0.0
H1452 H 0.82165 0.40402 0.12572 0.0
H1453 H 0.73245 0.49092 0.13129 0.0
H1454 H 0.72768 0.45969 0.12353 0.0
H1455 H 0.74983 0.49212 0.1203 0.0
C1456 C 0.7485 0.38355 0.10852 0.0
C1457 C 0.74691 0.40158 0.1007 0.0
C1458 C 0.76168 0.39492 0.11645 0.0
C1459 C 0.77323 0.42457 0.11669 0.0
C1460 C 0.77231 0.44231 0.10881 0.0
H1461 H 0.88806 0.5099 0.15732 0.0
H1462 H 0.86779 0.48574 0.14363 0.0
C1463 C 0.75919 0.43094 0.10089 0.0
C1464 C 0.78583 0.43714 0.12522 0.0
H1465 H 0.77563 0.49334 0.14084 0.0
C1466 C 0.81159 0.42351 0.12905 0.0
C1467 C 0.77241 0.46231 0.1296 0.0
C1468 C 0.7439 0.47701 0.12604 0.0
C1469 C 0.82462 0.43476 0.13706 0.0
C1470 C 0.8117 0.46049 0.14129 0.0
C1471 C 0.78564 0.47376 0.13754 0.0
C1472 C 0.82464 0.47393 0.14967 0.0
C1473 C 0.85181 0.41875 0.14101 0.0
C1474 C 0.807 0.47569 0.15756 0.0
C1475 C 0.81856 0.48943 0.16537 0.0
C1476 C 0.84789 0.50182 0.1654 0.0
C1477 C 0.86557 0.50003 0.1575 0.0
C1478 C 0.85403 0.48624 0.1497 0.0
H1479 H 0.85419 0.39537 0.1383 0.0
H1480 H 0.87264 0.43153 0.13923 0.0
H1481 H 0.85024 0.41759 0.1485 0.0
H1482 H 0.78423 0.46647 0.15768 0.0
H1483 H 0.80452 0.49048 0.17138 0.0
H1484 H 0.80011 0.50565 0.3445 0.0
H1485 H 0.77972 0.52916 0.35824 0.0
H1486 H 0.8652 0.51456 0.37176 0.0
H1487 H 0.88565 0.49108 0.35799 0.0
H1488 H 0.77266 0.50374 0.37496 0.0
H1489 H 0.84866 0.60364 0.37716 0.0
H1490 H 0.84564 0.58072 0.36707 0.0
H1491 H 0.86838 0.56811 0.37645 0.0
C1492 C 0.81455 0.5076 0.3504 0.0
C1493 C 0.8445 0.4968 0.35018 0.0
C1494 C 0.80293 0.52107 0.35824 0.0
C1495 C 0.82106 0.52406 0.366 0.0
C1496 C 0.85102 0.5132 0.3658 0.0
H1497 H 0.75425 0.55129 0.42077 0.0
H1498 H 0.77707 0.53171 0.40681 0.0
C1499 C 0.86267 0.49977 0.35794 0.0
C1500 C 0.80807 0.53729 0.37441 0.0
H1501 H 0.81711 0.59407 0.38992 0.0
C1502 C 0.78233 0.52355 0.37821 0.0
C1503 C 0.82047 0.56336 0.37859 0.0
C1504 C 0.84713 0.58004 0.37457 0.0
C1505 C 0.76894 0.53485 0.38615 0.0
C1506 C 0.78195 0.56029 0.39051 0.0
C1507 C 0.80737 0.57438 0.38663 0.0
C1508 C 0.76932 0.57263 0.39908 0.0
C1509 C 0.74065 0.51972 0.38972 0.0
C1510 C 0.75823 0.60246 0.39945 0.0
C1511 C 0.74531 0.61371 0.40744 0.0
C1512 C 0.74348 0.59537 0.41519 0.0
C1513 C 0.75516 0.56577 0.41485 0.0
C1514 C 0.7681 0.55456 0.40689 0.0
H1515 H 0.72911 0.50615 0.3844 0.0
H1516 H 0.7469 0.50415 0.39531 0.0
H1517 H 0.72438 0.5367 0.3924 0.0
H1518 H 0.759 0.61682 0.39351 0.0
H1519 H 0.73613 0.63648 0.40749 0.0
H1520 H 0.29414 0.39318 0.41952 0.0
H1521 H 0.31882 0.41159 0.40569 0.0
H1522 H 0.23184 0.43954 0.39522 0.0
H1523 H 0.20706 0.4196 0.40879 0.0
H1524 H 0.26433 0.41315 0.38237 0.0
H1525 H 0.3362 0.49849 0.39967 0.0
H1526 H 0.34244 0.46056 0.40362 0.0
H1527 H 0.30623 0.47843 0.40542 0.0
C1528 C 0.28035 0.40304 0.41422 0.0
C1529 C 0.24876 0.40532 0.41526 0.0
C1530 C 0.29448 0.41389 0.40637 0.0
C1531 C 0.2773 0.42765 0.39949 0.0
C1532 C 0.24565 0.42928 0.40046 0.0
H1533 H 0.33798 0.54914 0.35744 0.0
H1534 H 0.31857 0.52479 0.37116 0.0
C1535 C 0.23152 0.41812 0.40824 0.0
C1536 C 0.29204 0.44022 0.39124 0.0
H1537 H 0.34466 0.49161 0.38397 0.0
C1538 C 0.28191 0.43029 0.38272 0.0
C1539 C 0.31473 0.46289 0.39169 0.0
C1540 C 0.32536 0.47597 0.40058 0.0
C1541 C 0.29362 0.4425 0.37466 0.0
C1542 C 0.31683 0.46464 0.37511 0.0
C1543 C 0.32711 0.47443 0.38362 0.0
C1544 C 0.32957 0.47917 0.36685 0.0
C1545 C 0.28015 0.43233 0.36577 0.0
C1546 C 0.3428 0.46176 0.35993 0.0
C1547 C 0.35335 0.47564 0.352 0.0
C1548 C 0.35122 0.50719 0.35093 0.0
C1549 C 0.33922 0.52469 0.35802 0.0
C1550 C 0.32837 0.51082 0.36588 0.0
H1551 H 0.25741 0.42193 0.3667 0.0
H1552 H 0.27797 0.45159 0.36098 0.0
H1553 H 0.29516 0.41502 0.36267 0.0
H1554 H 0.3448 0.43741 0.36061 0.0
H1555 H 0.36273 0.46168 0.34666 0.0
H1556 H 0.34043 0.4547 0.15806 0.0
H1557 H 0.32167 0.4798 0.14438 0.0
H1558 H 0.34379 0.56689 0.15592 0.0
H1559 H 0.36122 0.54175 0.16981 0.0
H1560 H 0.28874 0.56791 0.1486 0.0
H1561 H 0.36792 0.51706 0.12387 0.0
H1562 H 0.34788 0.48859 0.13013 0.0
H1563 H 0.37347 0.51379 0.13593 0.0
C1564 C 0.34116 0.47921 0.15767 0.0
C1565 C 0.352 0.49635 0.16499 0.0
C1566 C 0.33084 0.49352 0.14981 0.0
C1567 C 0.33178 0.52525 0.14904 0.0
C1568 C 0.34298 0.54239 0.15633 0.0
H1569 H 0.29323 0.61429 0.09721 0.0
H1570 H 0.31813 0.59657 0.1111 0.0
C1571 C 0.35305 0.52805 0.16423 0.0
C1572 C 0.31968 0.54052 0.14082 0.0
H1573 H 0.3234 0.54062 0.11771 0.0
C1574 C 0.29656 0.56216 0.14185 0.0
C1575 C 0.33019 0.53349 0.132 0.0
C1576 C 0.35645 0.51221 0.13041 0.0
C1577 C 0.28298 0.57614 0.13433 0.0
C1578 C 0.29216 0.56766 0.1255 0.0
C1579 C 0.31602 0.54684 0.12447 0.0
C1580 C 0.27693 0.57956 0.11725 0.0
C1581 C 0.25911 0.60006 0.13595 0.0
C1582 C 0.24554 0.5758 0.11605 0.0
C1583 C 0.2313 0.58629 0.1082 0.0
C1584 C 0.24823 0.60019 0.1013 0.0
C1585 C 0.27963 0.60385 0.10246 0.0
C1586 C 0.29387 0.59359 0.11036 0.0
H1587 H 0.26192 0.61087 0.1427 0.0
H1588 H 0.2599 0.61798 0.13068 0.0
H1589 H 0.23636 0.58933 0.13579 0.0
H1590 H 0.23205 0.56441 0.12114 0.0
H1591 H 0.20701 0.58343 0.1075 0.0
H1592 H 0.15693 0.45462 0.85837 0.0
H1593 H 0.17674 0.47815 0.8722 0.0
H1594 H 0.16929 0.56631 0.85976 0.0
H1595 H 0.14895 0.54271 0.84597 0.0
H1596 H 0.22831 0.51099 0.87412 0.0
H1597 H 0.12926 0.58123 0.884 0.0
H1598 H 0.12678 0.55168 0.87558 0.0
H1599 H 0.14234 0.58808 0.87267 0.0
C1600 C 0.15938 0.47903 0.85864 0.0
C1601 C 0.15157 0.49693 0.85115 0.0
C1602 C 0.17065 0.49246 0.86653 0.0
C1603 C 0.1742 0.52404 0.86707 0.0
C1604 C 0.16614 0.54198 0.85958 0.0
H1605 H 0.25736 0.63994 0.90814 0.0
H1606 H 0.234 0.61997 0.89427 0.0
C1607 C 0.15469 0.52853 0.85171 0.0
C1608 C 0.18771 0.53787 0.87532 0.0
H1609 H 0.17489 0.58927 0.89222 0.0
C1610 C 0.21655 0.52802 0.87809 0.0
C1611 C 0.17243 0.56019 0.88049 0.0
C1612 C 0.14088 0.57075 0.8781 0.0
C1613 C 0.23056 0.53995 0.88585 0.0
C1614 C 0.21524 0.56213 0.89102 0.0
C1615 C 0.18658 0.57228 0.88822 0.0
C1616 C 0.22843 0.5745 0.89949 0.0
C1617 C 0.26183 0.52896 0.88841 0.0
C1618 C 0.23256 0.55566 0.90704 0.0
C1619 C 0.24554 0.56708 0.91497 0.0
C1620 C 0.25461 0.59755 0.9155 0.0
C1621 C 0.25017 0.61648 0.90796 0.0
C1622 C 0.23701 0.60508 0.90003 0.0
H1623 H 0.27322 0.51716 0.88269 0.0
H1624 H 0.27632 0.54816 0.89063 0.0
H1625 H 0.25994 0.51279 0.89413 0.0
H1626 H 0.22569 0.5321 0.90679 0.0
H1627 H 0.24839 0.55209 0.92071 0.0
H1628 H 0.29268 0.41533 0.6076 0.0
H1629 H 0.26792 0.43403 0.62134 0.0
H1630 H 0.18083 0.40778 0.61057 0.0
H1631 H 0.20553 0.39038 0.59662 0.0
H1632 H 0.1782 0.46311 0.61777 0.0
H1633 H 0.23433 0.38668 0.64224 0.0
H1634 H 0.26136 0.40766 0.63569 0.0
H1635 H 0.23666 0.38091 0.63017 0.0
C1636 C 0.26824 0.41369 0.60816 0.0
C1637 C 0.25098 0.40152 0.60105 0.0
C1638 C 0.25413 0.424 0.61607 0.0
C1639 C 0.22253 0.42179 0.61709 0.0
C1640 C 0.20525 0.40952 0.60998 0.0
H1641 H 0.13628 0.45774 0.66955 0.0
H1642 H 0.15351 0.4333 0.65552 0.0
C1643 C 0.21936 0.39945 0.60204 0.0
C1644 C 0.20745 0.4335 0.6254 0.0
H1645 H 0.20923 0.43013 0.6485 0.0
C1646 C 0.18478 0.45566 0.62449 0.0
C1647 C 0.21557 0.42344 0.63417 0.0
C1648 C 0.23807 0.39813 0.63564 0.0
C1649 C 0.17082 0.46877 0.63209 0.0
C1650 C 0.18032 0.46007 0.64087 0.0
C1651 C 0.2022 0.43713 0.64178 0.0
C1652 C 0.16848 0.47497 0.64919 0.0
C1653 C 0.14583 0.49162 0.63062 0.0
C1654 C 0.17121 0.50647 0.65033 0.0
C1655 C 0.16102 0.5204 0.65827 0.0
C1656 C 0.14847 0.50309 0.66531 0.0
C1657 C 0.14571 0.4716 0.66419 0.0
C1658 C 0.15568 0.45765 0.65621 0.0
H1659 H 0.13461 0.48826 0.62396 0.0
H1660 H 0.12835 0.49021 0.63601 0.0
H1661 H 0.15565 0.51477 0.63067 0.0
H1662 H 0.18163 0.52027 0.64513 0.0
H1663 H 0.16316 0.54476 0.65893 0.0
H1664 H 0.24301 0.17131 0.97038 0.0
H1665 H 0.25733 0.16743 0.9863 0.0
H1666 H 0.20819 0.08328 0.98851 0.0
H1667 H 0.19325 0.08719 0.97261 0.0
H1668 H 0.19522 0.12286 1.00239 0.0
H1669 H 0.31962 0.1119 0.9981 0.0
H1670 H 0.30404 0.14439 0.99246 0.0
H1671 H 0.29336 0.10695 0.98884 0.0
C1672 C 0.2354 0.15182 0.97421 0.0
C1673 C 0.21702 0.1295 0.97017 0.0
C1674 C 0.24379 0.14956 0.98332 0.0
C1675 C 0.23423 0.12484 0.98857 0.0
C1676 C 0.21598 0.10247 0.98457 0.0
H1677 H 0.30347 0.08636 0.04282 0.0
H1678 H 0.28882 0.08281 0.02688 0.0
C1679 C 0.20753 0.10471 0.97546 0.0
C1680 C 0.24213 0.12306 0.99833 0.0
H1681 H 0.30192 0.12261 0.01304 0.0
C1682 C 0.21855 0.12257 1.00472 0.0
C1683 C 0.27257 0.12229 1.00137 0.0
C1684 C 0.29887 0.1211 0.99484 0.0
C1685 C 0.22456 0.1222 0.01406 0.0
C1686 C 0.255 0.12283 0.0171 0.0
C1687 C 0.27859 0.12243 0.01071 0.0
C1688 C 0.26288 0.12444 0.02686 0.0
C1689 C 0.19825 0.12093 0.02058 0.0
C1690 C 0.25329 0.14909 0.03215 0.0
C1691 C 0.26151 0.15115 0.04127 0.0
C1692 C 0.27974 0.12869 0.0453 0.0
C1693 C 0.2893 0.10399 0.03998 0.0
C1694 C 0.28102 0.10195 0.03085 0.0
H1695 H 0.1775 0.11181 0.0173 0.0
H1696 H 0.20374 0.10666 0.02655 0.0
H1697 H 0.19309 0.14418 0.023 0.0
H1698 H 0.23984 0.16706 0.02917 0.0
H1699 H 0.25387 0.17059 0.04512 0.0
H1700 H 0.16564 0.05493 0.29312 0.0
H1701 H 0.16832 0.04046 0.27715 0.0
H1702 H 0.08181 0.99555 0.27941 0.0
H1703 H 0.07904 0.00951 0.2954 0.0
H1704 H 0.12463 0.96167 0.26998 0.0
H1705 H 0.11851 0.07944 0.25685 0.0
H1706 H 0.14854 0.07285 0.26482 0.0
H1707 H 0.10973 0.06997 0.26844 0.0
C1708 C 0.14718 0.04193 0.29024 0.0
C1709 C 0.122 0.0336 0.29555 0.0
C1710 C 0.14869 0.03382 0.28109 0.0
C1711 C 0.12502 0.01739 0.27705 0.0
C1712 C 0.10026 0.00838 0.28238 0.0
H1713 H 0.08011 0.99508 0.22054 0.0
H1714 H 0.08298 0.00879 0.23653 0.0
C1715 C 0.09871 0.01643 0.29152 0.0
C1716 C 0.1259 0.00957 0.26727 0.0
H1717 H 0.12693 0.04059 0.24608 0.0
C1718 C 0.12521 0.9789 0.26475 0.0
C1719 C 0.12626 0.03212 0.26046 0.0
C1720 C 0.12553 0.06545 0.26274 0.0
C1721 C 0.12496 0.97014 0.2556 0.0
C1722 C 0.12593 0.99268 0.24879 0.0
C1723 C 0.12651 0.02335 0.25131 0.0
C1724 C 0.12503 0.98493 0.23901 0.0
C1725 C 0.12283 0.93688 0.25331 0.0
C1726 C 0.14804 0.9674 0.23503 0.0
C1727 C 0.14646 0.95943 0.22587 0.0
C1728 C 0.1219 0.96899 0.22049 0.0
C1729 C 0.0993 0.9872 0.22446 0.0
C1730 C 0.10091 0.99511 0.23361 0.0
H1731 H 0.11497 0.92322 0.25918 0.0
H1732 H 0.10706 0.93308 0.24756 0.0
H1733 H 0.14557 0.92845 0.2513 0.0
H1734 H 0.16719 0.9598 0.23902 0.0
H1735 H 0.16433 0.9455 0.22304 0.0
H1736 H 0.26165 0.83976 0.54768 0.0
H1737 H 0.27749 0.84438 0.5319 0.0
H1738 H 0.20255 0.90489 0.52676 0.0
H1739 H 0.18741 0.90142 0.54264 0.0
H1740 H 0.24992 0.82761 0.51732 0.0
H1741 H 0.26841 0.95122 0.51471 0.0
H1742 H 0.26282 0.93251 0.52543 0.0
H1743 H 0.23076 0.94266 0.5185 0.0
C1744 C 0.24875 0.85435 0.54322 0.0
C1745 C 0.22333 0.87032 0.54643 0.0
C1746 C 0.25783 0.85697 0.53418 0.0
C1747 C 0.24155 0.87537 0.52813 0.0
C1748 C 0.21609 0.89129 0.53133 0.0
H1749 H 0.24437 0.84677 0.46998 0.0
H1750 H 0.23182 0.84904 0.48606 0.0
C1751 C 0.2073 0.88909 0.54041 0.0
C1752 C 0.25016 0.87632 0.51838 0.0
H1753 H 0.2649 0.92408 0.5007 0.0
C1754 C 0.25344 0.84875 0.51372 0.0
C1755 C 0.25525 0.90382 0.51366 0.0
C1756 C 0.25446 0.93419 0.51836 0.0
C1757 C 0.26111 0.84787 0.5045 0.0
C1758 C 0.26448 0.87538 0.49967 0.0
C1759 C 0.26184 0.90298 0.50435 0.0
C1760 C 0.27096 0.87592 0.48978 0.0
C1761 C 0.26615 0.81736 0.50012 0.0
C1762 C 0.29622 0.89172 0.4864 0.0
C1763 C 0.30307 0.89107 0.47714 0.0
C1764 C 0.28491 0.8744 0.4711 0.0
C1765 C 0.2591 0.85945 0.47447 0.0
C1766 C 0.25201 0.86052 0.48368 0.0
H1767 H 0.27241 0.79988 0.5052 0.0
H1768 H 0.24484 0.80988 0.49681 0.0
H1769 H 0.28431 0.8184 0.49492 0.0
H1770 H 0.31105 0.90399 0.49095 0.0
H1771 H 0.32308 0.90288 0.47476 0.0
H1772 H 0.42093 0.99437 0.79614 0.0
H1773 H 0.41714 0.00849 0.7802 0.0
H1774 H 0.33332 0.95875 0.77794 0.0
H1775 H 0.33714 0.944 0.79386 0.0
H1776 H 0.37304 0.94598 0.7641 0.0
H1777 H 0.36144 0.07024 0.76829 0.0
H1778 H 0.394 0.05498 0.77398 0.0
H1779 H 0.35657 0.04406 0.77757 0.0
C1780 C 0.40152 0.98659 0.79229 0.0
C1781 C 0.37927 0.9681 0.79632 0.0
C1782 C 0.39931 0.99486 0.78318 0.0
C1783 C 0.37471 0.98508 0.77791 0.0
C1784 C 0.35241 0.96671 0.78189 0.0
H1785 H 0.33779 0.05407 0.72352 0.0
H1786 H 0.33366 0.03947 0.73945 0.0
C1787 C 0.3546 0.95837 0.79101 0.0
C1788 C 0.37302 0.99289 0.76814 0.0
H1789 H 0.37284 0.05253 0.7534 0.0
C1790 C 0.37275 0.96928 0.76176 0.0
C1791 C 0.37223 0.02328 0.76508 0.0
C1792 C 0.37077 0.04961 0.77159 0.0
C1793 C 0.37263 0.97523 0.75242 0.0
C1794 C 0.3733 0.00562 0.74936 0.0
C1795 C 0.37264 0.02923 0.75574 0.0
C1796 C 0.37525 0.01344 0.7396 0.0
C1797 C 0.37157 0.94889 0.74591 0.0
C1798 C 0.40008 0.0038 0.7344 0.0
C1799 C 0.40247 0.01199 0.72528 0.0
C1800 C 0.38018 0.03025 0.72118 0.0
C1801 C 0.3553 0.03988 0.72642 0.0
C1802 C 0.35293 0.03162 0.73554 0.0
H1803 H 0.36229 0.92819 0.74917 0.0
H1804 H 0.35753 0.95433 0.73988 0.0
H1805 H 0.39493 0.94368 0.74358 0.0
H1806 H 0.41793 0.99033 0.73742 0.0
H1807 H 0.42204 0.00429 0.72149 0.0
H1808 H 0.70257 0.91435 0.97157 0.0
H1809 H 0.71818 0.91703 0.9874 0.0
H1810 H 0.75706 0.82762 0.98539 0.0
H1811 H 0.74185 0.82481 0.9695 0.0
H1812 H 0.70071 0.87928 1.00138 0.0
H1813 H 0.82562 0.87652 0.99695 0.0
H1814 H 0.79991 0.88423 0.98772 0.0
H1815 H 0.80616 0.84592 0.99143 0.0
C1816 C 0.71461 0.8953 0.97444 0.0
C1817 C 0.72091 0.86936 0.96922 0.0
C1818 C 0.72352 0.89689 0.98351 0.0
C1819 C 0.7391 0.87269 0.98756 0.0
C1820 C 0.7456 0.84682 0.98237 0.0
H1821 H 0.75574 0.82953 0.04437 0.0
H1822 H 0.74252 0.83248 0.02835 0.0
C1823 C 0.7367 0.8452 0.97329 0.0
C1824 C 0.74731 0.874 0.9973 0.0
H1825 H 0.80708 0.86984 0.01197 0.0
C1826 C 0.72399 0.87739 1.0037 0.0
C1827 C 0.77771 0.8719 1.00031 0.0
C1828 C 0.80385 0.86973 0.99375 0.0
C1829 C 0.73016 0.87799 0.01302 0.0
C1830 C 0.76044 0.87472 0.01604 0.0
C1831 C 0.78385 0.8721 0.00965 0.0
C1832 C 0.76818 0.87338 0.02581 0.0
C1833 C 0.70424 0.88235 0.01957 0.0
C1834 C 0.78745 0.89514 0.02969 0.0
C1835 C 0.79517 0.89351 0.03887 0.0
C1836 C 0.78396 0.8699 0.04434 0.0
C1837 C 0.7647 0.84812 0.0404 0.0
C1838 C 0.75697 0.84983 0.03124 0.0
H1839 H 0.68413 0.89254 0.0162 0.0
H1840 H 0.6974 0.86 0.02233 0.0
H1841 H 0.71105 0.89708 0.02531 0.0
H1842 H 0.79646 0.91343 0.0256 0.0
H1843 H 0.8101 0.91062 0.04166 0.0
H1844 H 0.90924 0.99362 0.796 0.0
H1845 H 0.90669 0.98009 0.77998 0.0
H1846 H 0.84674 0.05564 0.77509 0.0
H1847 H 0.84805 0.06842 0.79121 0.0
H1848 H 0.82868 0.00897 0.76565 0.0
H1849 H 0.95222 0.02153 0.76034 0.0
H1850 H 0.94398 0.99366 0.7688 0.0
H1851 H 0.93396 0.03275 0.77072 0.0
C1852 C 0.89541 0.00729 0.79152 0.0
C1853 C 0.87907 0.03228 0.79486 0.0
C1854 C 0.89417 0.99968 0.78234 0.0
C1855 C 0.87726 0.01737 0.77625 0.0
C1856 C 0.86017 0.04177 0.77963 0.0
H1857 H 0.90973 0.01022 0.71813 0.0
H1858 H 0.90596 0.02519 0.73402 0.0
C1859 C 0.86093 0.04906 0.78885 0.0
C1860 C 0.87745 0.01053 0.76637 0.0
H1861 H 0.92454 0.99806 0.74839 0.0
C1862 C 0.84965 0.00678 0.76186 0.0
C1863 C 0.90476 0.00828 0.76136 0.0
C1864 C 0.93537 0.0146 0.76553 0.0
C1865 C 0.8484 0.00034 0.75255 0.0
C1866 C 0.87576 0.99644 0.74765 0.0
C1867 C 0.90353 0.00067 0.75214 0.0
C1868 C 0.87634 0.9882 0.73786 0.0
C1869 C 0.81773 0.99856 0.74805 0.0
C1870 C 0.86093 0.96245 0.73467 0.0
C1871 C 0.86257 0.9542 0.72554 0.0
C1872 C 0.88034 0.97105 0.71944 0.0
C1873 C 0.89589 0.99671 0.72265 0.0
C1874 C 0.89377 0.00528 0.73174 0.0
H1875 H 0.80046 0.01181 0.75184 0.0
H1876 H 0.81858 0.00712 0.74098 0.0
H1877 H 0.8101 0.9746 0.74792 0.0
H1878 H 0.84812 0.94829 0.73927 0.0
H1879 H 0.85062 0.93409 0.72331 0.0
H1880 H 0.69462 0.08601 0.5427 0.0
H1881 H 0.71054 0.08183 0.52689 0.0
H1882 H 0.75979 0.16586 0.52927 0.0
H1883 H 0.7445 0.17002 0.5451 0.0
H1884 H 0.69859 0.12121 0.51289 0.0
H1885 H 0.82266 0.11006 0.51786 0.0
H1886 H 0.79582 0.10528 0.52699 0.0
H1887 H 0.80687 0.14265 0.5234 0.0
C1888 C 0.70913 0.10345 0.53991 0.0
C1889 C 0.71838 0.12829 0.54521 0.0
C1890 C 0.71815 0.10104 0.53085 0.0
C1891 C 0.73672 0.12329 0.52692 0.0
C1892 C 0.74602 0.14807 0.5322 0.0
H1893 H 0.75965 0.16999 0.47066 0.0
H1894 H 0.74497 0.16603 0.48654 0.0
C1895 C 0.73706 0.15049 0.54125 0.0
C1896 C 0.74524 0.12138 0.51721 0.0
H1897 H 0.80595 0.12105 0.50283 0.0
C1898 C 0.72206 0.12091 0.51069 0.0
C1899 C 0.77587 0.1206 0.51434 0.0
C1900 C 0.80175 0.11937 0.52101 0.0
C1901 C 0.72867 0.12064 0.50139 0.0
C1902 C 0.7593 0.12133 0.49852 0.0
C1903 C 0.78248 0.12083 0.50504 0.0
C1904 C 0.76776 0.12326 0.48881 0.0
C1905 C 0.70278 0.11945 0.49472 0.0
C1906 C 0.78602 0.10084 0.48483 0.0
C1907 C 0.79466 0.10311 0.47573 0.0
C1908 C 0.78537 0.12799 0.47045 0.0
C1909 C 0.7671 0.15042 0.47448 0.0
C1910 C 0.75851 0.14812 0.48357 0.0
H1911 H 0.68184 0.11024 0.49787 0.0
H1912 H 0.69774 0.14274 0.49232 0.0
H1913 H 0.70867 0.1053 0.48876 0.0
H1914 H 0.79355 0.08154 0.48876 0.0
H1915 H 0.80876 0.08544 0.47286 0.0
H1916 H 0.66821 0.94504 0.2928 0.0
H1917 H 0.67271 0.95954 0.27686 0.0
H1918 H 0.58835 0.00861 0.27867 0.0
H1919 H 0.5838 0.99466 0.29459 0.0
H1920 H 0.63359 0.9465 0.2628 0.0
H1921 H 0.6445 0.07075 0.26708 0.0
H1922 H 0.64915 0.04454 0.27636 0.0
H1923 H 0.6118 0.05541 0.27268 0.0
C1924 C 0.65071 0.95912 0.28984 0.0
C1925 C 0.62568 0.96875 0.29501 0.0
C1926 C 0.65333 0.96736 0.28072 0.0
C1927 C 0.6311 0.98553 0.27661 0.0
C1928 C 0.60612 0.99515 0.28175 0.0
H1929 H 0.58298 0.00483 0.22045 0.0
H1930 H 0.58799 0.99071 0.23634 0.0
C1931 C 0.60348 0.98698 0.29085 0.0
C1932 C 0.63325 0.99338 0.26685 0.0
H1933 H 0.63316 0.05312 0.25215 0.0
C1934 C 0.63379 0.96981 0.26047 0.0
C1935 C 0.63392 0.0238 0.26382 0.0
C1936 C 0.63513 0.05009 0.27034 0.0
C1937 C 0.63392 0.97582 0.25113 0.0
C1938 C 0.633 0.00623 0.2481 0.0
C1939 C 0.63354 0.02981 0.25448 0.0
C1940 C 0.63061 0.01409 0.23834 0.0
C1941 C 0.63513 0.94954 0.2446 0.0
C1942 C 0.65261 0.03245 0.23421 0.0
C1943 C 0.64972 0.04079 0.2251 0.0
C1944 C 0.62463 0.03107 0.21998 0.0
C1945 C 0.60269 0.01261 0.22416 0.0
C1946 C 0.60559 0.00433 0.23325 0.0
H1947 H 0.64471 0.92893 0.24784 0.0
H1948 H 0.61178 0.94409 0.24232 0.0
H1949 H 0.64897 0.95516 0.23855 0.0
H1950 H 0.67201 0.04038 0.23803 0.0
H1951 H 0.66703 0.05505 0.22212 0.0
H1952 H 0.75489 0.66926 0.54511 0.0
H1953 H 0.73983 0.66486 0.52927 0.0
H1954 H 0.78961 0.58108 0.52701 0.0
H1955 H 0.8053 0.58551 0.54284 0.0
H1956 H 0.80153 0.62046 0.513 0.0
H1957 H 0.67746 0.6085 0.51785 0.0
H1958 H 0.69298 0.64123 0.52338 0.0
H1959 H 0.70423 0.60395 0.527 0.0
C1960 C 0.7625 0.64974 0.54129 0.0
C1961 C 0.78126 0.62767 0.54529 0.0
C1962 C 0.75367 0.64718 0.53223 0.0
C1963 C 0.76319 0.6224 0.52699 0.0
C1964 C 0.78184 0.6003 0.53095 0.0
H1965 H 0.69216 0.58344 0.47288 0.0
H1966 H 0.70728 0.57974 0.48879 0.0
C1967 C 0.79072 0.60284 0.54001 0.0
C1968 C 0.75481 0.62034 0.51726 0.0
H1969 H 0.6943 0.61935 0.50282 0.0
C1970 C 0.77808 0.61996 0.51077 0.0
C1971 C 0.72424 0.61929 0.51437 0.0
C1972 C 0.69828 0.61795 0.52101 0.0
C1973 C 0.7716 0.61951 0.50146 0.0
C1974 C 0.74101 0.61993 0.49856 0.0
C1975 C 0.71775 0.61933 0.50505 0.0
C1976 C 0.73267 0.62169 0.48884 0.0
C1977 C 0.79759 0.61845 0.49482 0.0
C1978 C 0.74174 0.6466 0.48359 0.0
C1979 C 0.73321 0.64879 0.4745 0.0
C1980 C 0.71516 0.62619 0.47047 0.0
C1981 C 0.70608 0.60123 0.47575 0.0
C1982 C 0.71467 0.59908 0.48485 0.0
H1983 H 0.81857 0.60945 0.49801 0.0
H1984 H 0.7919 0.60417 0.48887 0.0
H1985 H 0.80246 0.64174 0.4924 0.0
H1986 H 0.75508 0.66465 0.48657 0.0
H1987 H 0.74049 0.66841 0.47068 0.0
H1988 H 0.66451 0.44633 0.72187 0.0
H1989 H 0.66786 0.46044 0.73786 0.0
H1990 H 0.58139 0.50567 0.73599 0.0
H1991 H 0.578 0.49214 0.71999 0.0
H1992 H 0.62416 0.53925 0.7453 0.0
H1993 H 0.61916 0.42126 0.7583 0.0
H1994 H 0.64898 0.42816 0.75028 0.0
H1995 H 0.61007 0.43081 0.74674 0.0
C1996 C 0.64621 0.45933 0.72484 0.0
C1997 C 0.62088 0.4679 0.71964 0.0
C1998 C 0.64809 0.46723 0.73401 0.0
C1999 C 0.62462 0.48366 0.73816 0.0
C2000 C 0.59969 0.49285 0.73294 0.0
H2001 H 0.58035 0.50433 0.79473 0.0
H2002 H 0.58332 0.49095 0.77872 0.0
C2003 C 0.59779 0.48504 0.72378 0.0
C2004 C 0.62584 0.49131 0.74795 0.0
H2005 H 0.62738 0.46001 0.7691 0.0
C2006 C 0.62496 0.52195 0.75051 0.0
C2007 C 0.62648 0.46867 0.75473 0.0
C2008 C 0.62595 0.43537 0.75241 0.0
C2009 C 0.62471 0.53058 0.75966 0.0
C2010 C 0.62591 0.50795 0.76645 0.0
C2011 C 0.62676 0.47732 0.76389 0.0
C2012 C 0.62494 0.51556 0.77624 0.0
C2013 C 0.62226 0.5638 0.76199 0.0
C2014 C 0.64764 0.53343 0.78023 0.0
C2015 C 0.64597 0.54126 0.7894 0.0
C2016 C 0.62166 0.53116 0.79479 0.0
C2017 C 0.59936 0.51263 0.7908 0.0
C2018 C 0.60102 0.50489 0.78164 0.0
H2019 H 0.61413 0.57742 0.75615 0.0
H2020 H 0.60657 0.56738 0.76777 0.0
H2021 H 0.64495 0.57244 0.76396 0.0
H2022 H 0.66662 0.54143 0.77623 0.0
H2023 H 0.66358 0.5555 0.79222 0.0
H2024 H 0.75519 0.33558 0.97134 0.0
H2025 H 0.74133 0.34022 0.98724 0.0
H2026 H 0.79124 0.42401 0.98906 0.0
H2027 H 0.80564 0.4194 0.9731 0.0
H2028 H 0.80371 0.38434 1.00317 0.0
H2029 H 0.67962 0.39725 0.99877 0.0
H2030 H 0.69456 0.36453 0.99309 0.0
H2031 H 0.70607 0.4018 0.98953 0.0
C2032 C 0.76305 0.35519 0.97506 0.0
C2033 C 0.78141 0.37723 0.97088 0.0
C2034 C 0.75494 0.35787 0.98417 0.0
C2035 C 0.76479 0.38272 0.98931 0.0
C2036 C 0.78319 0.40475 0.9852 0.0
H2037 H 0.69445 0.41676 0.04384 0.0
H2038 H 0.70973 0.4226 0.028 0.0
C2039 C 0.79134 0.4021 0.97606 0.0
C2040 C 0.75686 0.38486 0.99906 0.0
H2041 H 0.69682 0.38487 0.01367 0.0
C2042 C 0.78035 0.38478 1.00547 0.0
C2043 C 0.72638 0.38583 1.00206 0.0
C2044 C 0.7002 0.38767 0.9955 0.0
C2045 C 0.77416 0.3845 0.0148 0.0
C2046 C 0.74366 0.38382 0.01779 0.0
C2047 C 0.72019 0.38506 0.01138 0.0
C2048 C 0.73556 0.38094 0.02752 0.0
C2049 C 0.80035 0.38496 0.02137 0.0
C2050 C 0.74485 0.35548 0.03249 0.0
C2051 C 0.7362 0.35207 0.04154 0.0
C2052 C 0.71783 0.37394 0.0458 0.0
C2053 C 0.70861 0.39948 0.04079 0.0
C2054 C 0.71731 0.40287 0.03173 0.0
H2055 H 0.82116 0.39444 0.01821 0.0
H2056 H 0.79478 0.39851 0.02749 0.0
H2057 H 0.80546 0.36143 0.02354 0.0
H2058 H 0.75836 0.33793 0.02933 0.0
H2059 H 0.74362 0.33204 0.04515 0.0
H2060 H 0.83512 0.4462 0.29281 0.0
H2061 H 0.83214 0.46067 0.27684 0.0
H2062 H 0.91858 0.50576 0.27898 0.0
H2063 H 0.92166 0.4918 0.29495 0.0
H2064 H 0.87534 0.53963 0.26967 0.0
H2065 H 0.88177 0.42194 0.25643 0.0
H2066 H 0.85187 0.42843 0.26447 0.0
H2067 H 0.89075 0.43138 0.26802 0.0
C2068 C 0.85351 0.45922 0.28989 0.0
C2069 C 0.87874 0.46763 0.29517 0.0
C2070 C 0.85182 0.46734 0.28075 0.0
C2071 C 0.87537 0.48386 0.27669 0.0
C2072 C 0.90022 0.49288 0.28197 0.0
H2073 H 0.92145 0.50638 0.22043 0.0
H2074 H 0.91782 0.49276 0.2364 0.0
C2075 C 0.90194 0.48482 0.29111 0.0
C2076 C 0.87429 0.49174 0.26692 0.0
H2077 H 0.87345 0.46085 0.24571 0.0
C2078 C 0.87483 0.52243 0.26443 0.0
C2079 C 0.87399 0.46923 0.26009 0.0
C2080 C 0.87483 0.43588 0.26235 0.0
C2081 C 0.87507 0.53125 0.25529 0.0
C2082 C 0.87428 0.50875 0.24846 0.0
C2083 C 0.87374 0.47806 0.25095 0.0
C2084 C 0.8756 0.51653 0.23869 0.0
C2085 C 0.8771 0.56454 0.25302 0.0
C2086 C 0.85275 0.53401 0.23461 0.0
C2087 C 0.85476 0.54194 0.22545 0.0
C2088 C 0.87961 0.53239 0.22019 0.0
C2089 C 0.90204 0.51425 0.22426 0.0
C2090 C 0.90001 0.50638 0.2334 0.0
H2091 H 0.8846 0.57823 0.25892 0.0
H2092 H 0.89311 0.56844 0.24733 0.0
H2093 H 0.85441 0.57282 0.25092 0.0
H2094 H 0.83339 0.54157 0.23852 0.0
H2095 H 0.83696 0.55574 0.22253 0.0
H2096 H 0.31579 0.40547 0.54197 0.0
H2097 H 0.30144 0.40848 0.52601 0.0
H2098 H 0.22447 0.35061 0.53116 0.0
H2099 H 0.2395 0.34639 0.54702 0.0
H2100 H 0.2523 0.33195 0.51685 0.0
H2101 H 0.2376 0.45587 0.51336 0.0
H2102 H 0.27479 0.44633 0.51734 0.0
H2103 H 0.24215 0.4378 0.52422 0.0
C2104 C 0.29562 0.39366 0.53972 0.0
C2105 C 0.27879 0.37569 0.54577 0.0
C2106 C 0.28729 0.39558 0.53059 0.0
C2107 C 0.26153 0.38022 0.52737 0.0
C2108 C 0.24441 0.36273 0.53346 0.0
H2109 H 0.18045 0.40631 0.47402 0.0
H2110 H 0.19322 0.4082 0.49014 0.0
C2111 C 0.25301 0.36036 0.54254 0.0
C2112 C 0.25339 0.38071 0.51758 0.0
H2113 H 0.24019 0.42752 0.49958 0.0
C2114 C 0.24944 0.3529 0.5131 0.0
C2115 C 0.24921 0.40799 0.51268 0.0
C2116 C 0.25084 0.43866 0.51717 0.0
C2117 C 0.2418 0.35154 0.50389 0.0
C2118 C 0.23917 0.37877 0.49887 0.0
C2119 C 0.24265 0.40662 0.50337 0.0
C2120 C 0.23235 0.37878 0.489 0.0
C2121 C 0.23588 0.32086 0.49972 0.0
C2122 C 0.25052 0.3623 0.48294 0.0
C2123 C 0.24297 0.36076 0.47376 0.0
C2124 C 0.21751 0.37632 0.4704 0.0
C2125 C 0.20018 0.39402 0.4764 0.0
C2126 C 0.20746 0.39512 0.48562 0.0
H2127 H 0.22928 0.30391 0.50492 0.0
H2128 H 0.21762 0.32201 0.49455 0.0
H2129 H 0.25691 0.3126 0.49641 0.0
H2130 H 0.27043 0.35034 0.48531 0.0
H2131 H 0.25707 0.34729 0.46929 0.0
H2132 H 0.4203 0.49301 0.22068 0.0
H2133 H 0.41648 0.50711 0.23663 0.0
H2134 H 0.33185 0.45869 0.23874 0.0
H2135 H 0.33565 0.44399 0.22281 0.0
H2136 H 0.37215 0.53944 0.24584 0.0
H2137 H 0.3825 0.4223 0.25927 0.0
H2138 H 0.39117 0.43178 0.24767 0.0
H2139 H 0.35241 0.42767 0.25123 0.0
C2140 C 0.40081 0.48532 0.22451 0.0
C2141 C 0.37837 0.46717 0.22045 0.0
C2142 C 0.39867 0.49347 0.23364 0.0
C2143 C 0.37413 0.48358 0.23891 0.0
C2144 C 0.35129 0.46608 0.23485 0.0
H2145 H 0.33443 0.55577 0.293 0.0
H2146 H 0.33082 0.54086 0.27707 0.0
C2147 C 0.35342 0.45786 0.22571 0.0
C2148 C 0.37268 0.4916 0.24867 0.0
H2149 H 0.37319 0.46117 0.26994 0.0
C2150 C 0.37225 0.52235 0.25112 0.0
C2151 C 0.37321 0.46924 0.25554 0.0
C2152 C 0.37512 0.4359 0.25334 0.0
C2153 C 0.37238 0.53137 0.26024 0.0
C2154 C 0.37245 0.50901 0.26711 0.0
C2155 C 0.37283 0.47826 0.26466 0.0
C2156 C 0.37374 0.51707 0.27686 0.0
C2157 C 0.37342 0.56476 0.26244 0.0
C2158 C 0.39858 0.50783 0.28212 0.0
C2159 C 0.40064 0.51612 0.29123 0.0
C2160 C 0.37781 0.53379 0.2953 0.0
C2161 C 0.35254 0.54237 0.29007 0.0
C2162 C 0.3505 0.53401 0.28095 0.0
H2163 H 0.38039 0.57854 0.2565 0.0
H2164 H 0.35051 0.57239 0.26456 0.0
H2165 H 0.38939 0.56928 0.26809 0.0
H2166 H 0.4167 0.49462 0.27912 0.0
H2167 H 0.42037 0.50898 0.29504 0.0
H2168 H 0.18275 0.59911 0.04223 0.0
H2169 H 0.19708 0.59723 0.02626 0.0
H2170 H 0.27289 0.65638 0.03166 0.0
H2171 H 0.2578 0.65949 0.04755 0.0
H2172 H 0.24521 0.67476 0.0173 0.0
H2173 H 0.26182 0.55115 0.01367 0.0
H2174 H 0.22438 0.55994 0.01759 0.0
H2175 H 0.25673 0.56897 0.02455 0.0
C2176 C 0.20266 0.61147 0.04003 0.0
C2177 C 0.21917 0.62942 0.04616 0.0
C2178 C 0.21097 0.6102 0.03089 0.0
C2179 C 0.23645 0.62617 0.02774 0.0
C2180 C 0.25319 0.64377 0.0339 0.0
H2181 H 0.31844 0.60035 0.97461 0.0
H2182 H 0.30534 0.59892 0.99069 0.0
C2183 C 0.24457 0.64551 0.043 0.0
C2184 C 0.24475 0.62598 0.01797 0.0
H2185 H 0.2587 0.57956 0.99992 0.0
C2186 C 0.24838 0.6539 0.01353 0.0
C2187 C 0.24935 0.59882 0.01303 0.0
C2188 C 0.2482 0.56806 0.01748 0.0
C2189 C 0.25612 0.65548 1.00432 0.0
C2190 C 0.25915 0.62833 0.99927 0.0
C2191 C 0.25594 0.60039 1.00373 0.0
C2192 C 0.26633 0.62844 0.98943 0.0
C2193 C 0.26177 0.68627 1.0002 0.0
C2194 C 0.24839 0.64491 0.98329 0.0
C2195 C 0.25617 0.64622 0.97412 0.0
C2196 C 0.28159 0.6304 0.97084 0.0
C2197 C 0.29873 0.61281 0.97691 0.0
C2198 C 0.29125 0.61197 0.98612 0.0
H2199 H 0.26809 0.70322 1.00544 0.0
H2200 H 0.28012 0.6854 0.99506 0.0
H2201 H 0.2407 0.69435 0.99688 0.0
H2202 H 0.22844 0.65696 0.9856 0.0
H2203 H 0.24225 0.65963 0.9696 0.0
H2204 H 0.07881 0.49401 0.79554 0.0
H2205 H 0.0822 0.50782 0.77958 0.0
H2206 H 0.16803 0.46146 0.77752 0.0
H2207 H 0.16466 0.44705 0.79349 0.0
H2208 H 0.1252 0.541 0.77029 0.0
H2209 H 0.11864 0.42333 0.75706 0.0
H2210 H 0.10985 0.43275 0.76865 0.0
H2211 H 0.14867 0.42975 0.76505 0.0
C2212 C 0.09847 0.48672 0.79172 0.0
C2213 C 0.12135 0.46917 0.79581 0.0
C2214 C 0.10037 0.49469 0.78258 0.0
C2215 C 0.12511 0.48526 0.77731 0.0
C2216 C 0.14841 0.46843 0.78141 0.0
H2217 H 0.16339 0.55782 0.72329 0.0
H2218 H 0.16677 0.54347 0.73924 0.0
C2219 C 0.14651 0.46036 0.79056 0.0
C2220 C 0.1263 0.4931 0.76754 0.0
H2221 H 0.12698 0.46222 0.74633 0.0
C2222 C 0.1257 0.5238 0.76505 0.0
C2223 C 0.12653 0.4706 0.76071 0.0
C2224 C 0.12568 0.43725 0.76296 0.0
C2225 C 0.1253 0.53262 0.75591 0.0
C2226 C 0.12607 0.51013 0.74908 0.0
C2227 C 0.12669 0.47943 0.75157 0.0
C2228 C 0.12487 0.51793 0.7393 0.0
C2229 C 0.12312 0.56591 0.75366 0.0
C2230 C 0.10072 0.50755 0.73395 0.0
C2231 C 0.09886 0.51544 0.72481 0.0
C2232 C 0.12121 0.53384 0.72079 0.0
C2233 C 0.14574 0.54368 0.72614 0.0
C2234 C 0.14761 0.5357 0.73529 0.0
H2235 H 0.11528 0.5795 0.75955 0.0
H2236 H 0.14585 0.57437 0.75165 0.0
H2237 H 0.10732 0.56978 0.74792 0.0
H2238 H 0.08299 0.49371 0.7369 0.0
H2239 H 0.07968 0.50735 0.72091 0.0
H2240 H 0.3151 0.72648 0.06548 0.0
H2241 H 0.33841 0.77685 0.06608 0.0
H2242 H 0.26061 0.81095 0.08056 0.0
H2243 H 0.23748 0.76083 0.08016 0.0
H2244 H 0.31573 0.82884 0.05864 0.0
H2245 H 0.32979 0.84425 0.09555 0.0
H2246 H 0.32242 0.80769 0.09051 0.0
H2247 H 0.29174 0.83367 0.09266 0.0
C2248 C 0.30317 0.74461 0.06891 0.0
C2249 C 0.27444 0.73964 0.07278 0.0
C2250 C 0.31651 0.77336 0.06924 0.0
C2251 C 0.30146 0.79752 0.07348 0.0
C2252 C 0.27299 0.79248 0.07745 0.0
H2253 H 0.29974 0.98914 0.07618 0.0
H2254 H 0.29134 0.93431 0.07638 0.0
C2255 C 0.25968 0.76381 0.07715 0.0
C2256 C 0.31422 0.82857 0.07321 0.0
H2257 H 0.32981 0.88984 0.08654 0.0
C2258 C 0.31939 0.84203 0.06474 0.0
C2259 C 0.31907 0.84568 0.08119 0.0
C2260 C 0.31577 0.83197 0.09049 0.0
C2261 C 0.32767 0.87265 0.06402 0.0
C2262 C 0.33097 0.89008 0.07197 0.0
C2263 C 0.32702 0.87636 0.08045 0.0
C2264 C 0.33638 0.92309 0.07163 0.0
C2265 C 0.33144 0.88662 0.05476 0.0
C2266 C 0.36456 0.93478 0.06893 0.0
C2267 C 0.36934 0.96614 0.06877 0.0
C2268 C 0.34585 0.98609 0.07117 0.0
C2269 C 0.31782 0.97425 0.07397 0.0
C2270 C 0.31313 0.943 0.07419 0.0
H2271 H 0.32479 0.87084 0.04925 0.0
H2272 H 0.31757 0.90756 0.05422 0.0
H2273 H 0.35553 0.89309 0.05376 0.0
H2274 H 0.38288 0.91967 0.06706 0.0
H2275 H 0.3913 0.97481 0.06675 0.0
H2276 H 0.5166 0.0516 0.30854 0.0
H2277 H 0.46534 0.07227 0.30963 0.0
H2278 H 0.4499 0.02033 0.33393 0.0
H2279 H 0.50094 0.99901 0.33278 0.0
H2280 H 0.40543 0.01233 0.32166 0.0
H2281 H 0.42713 0.13514 0.32601 0.0
H2282 H 0.44606 0.11945 0.31632 0.0
H2283 H 0.45634 0.1069 0.3275 0.0
C2284 C 0.50249 0.04493 0.3142 0.0
C2285 C 0.51279 0.02356 0.32055 0.0
C2286 C 0.47324 0.05693 0.31484 0.0
C2287 C 0.45392 0.04812 0.32192 0.0
C2288 C 0.46449 0.0275 0.32843 0.0
H2289 H 0.2748 0.12154 0.33348 0.0
H2290 H 0.32884 0.10862 0.33375 0.0
C2291 C 0.49366 0.01534 0.32776 0.0
C2292 C 0.42189 0.05828 0.32209 0.0
H2293 H 0.37647 0.12098 0.322 0.0
C2294 C 0.3991 0.03609 0.32181 0.0
C2295 C 0.41368 0.08926 0.32235 0.0
C2296 C 0.43708 0.11406 0.32315 0.0
C2297 C 0.36833 0.04402 0.32161 0.0
C2298 C 0.36015 0.07501 0.32148 0.0
C2299 C 0.38287 0.09724 0.32197 0.0
C2300 C 0.32804 0.08466 0.32097 0.0
C2301 C 0.34487 0.01911 0.32167 0.0
C2302 C 0.30998 0.07627 0.31356 0.0
C2303 C 0.27915 0.08351 0.31341 0.0
C2304 C 0.26594 0.09936 0.32065 0.0
C2305 C 0.28439 0.10911 0.32784 0.0
C2306 C 0.31521 0.10173 0.32801 0.0
H2307 H 0.3544 0.99741 0.32422 0.0
H2308 H 0.32509 0.02538 0.32593 0.0
H2309 H 0.33669 0.01524 0.31466 0.0
H2310 H 0.31968 0.06384 0.30794 0.0
H2311 H 0.26569 0.07665 0.30764 0.0
H2312 H 0.26289 0.22833 0.55659 0.0
H2313 H 0.23406 0.18155 0.55821 0.0
H2314 H 0.19156 0.21656 0.58235 0.0
H2315 H 0.22092 0.26346 0.58089 0.0
H2316 H 0.21314 0.16034 0.58488 0.0
H2317 H 0.14622 0.1621 0.55332 0.0
H2318 H 0.18578 0.16727 0.55098 0.0
H2319 H 0.16566 0.19521 0.55755 0.0
C2320 C 0.2472 0.22627 0.56221 0.0
C2321 C 0.24421 0.24961 0.56862 0.0
C2322 C 0.2305 0.19959 0.56307 0.0
C2323 C 0.21017 0.19581 0.57029 0.0
C2324 C 0.2069 0.21916 0.57667 0.0
H2325 H 0.10864 0.02352 0.57111 0.0
H2326 H 0.11873 0.07836 0.57145 0.0
C2327 C 0.22373 0.24589 0.57584 0.0
C2328 C 0.19448 0.16642 0.57152 0.0
H2329 H 0.15424 0.11261 0.56007 0.0
C2330 C 0.19976 0.15014 0.57953 0.0
C2331 C 0.17647 0.15333 0.56462 0.0
C2332 C 0.16792 0.17057 0.55618 0.0
C2333 C 0.18931 0.12034 0.58055 0.0
C2334 C 0.1738 0.10628 0.5733 0.0
C2335 C 0.16662 0.12325 0.56556 0.0
C2336 C 0.16718 0.07339 0.5733 0.0
C2337 C 0.19555 0.10402 0.58933 0.0
C2338 C 0.19107 0.05258 0.57413 0.0
C2339 C 0.18537 0.02154 0.57396 0.0
C2340 C 0.15573 0.01065 0.57273 0.0
C2341 C 0.13174 0.03143 0.57194 0.0
C2342 C 0.13746 0.06263 0.57214 0.0
H2343 H 0.19767 0.12024 0.59505 0.0
H2344 H 0.17734 0.08749 0.59094 0.0
H2345 H 0.21734 0.09157 0.58876 0.0
H2346 H 0.21423 0.06037 0.57489 0.0
H2347 H 0.20416 0.00607 0.57493 0.0
H2348 H 0.23998 0.94783 0.82748 0.0
H2349 H 0.18524 0.957 0.82744 0.0
H2350 H 0.17011 0.86748 0.81661 0.0
H2351 H 0.22521 0.8583 0.81656 0.0
H2352 H 0.13813 0.91824 0.8076 0.0
H2353 H 0.12267 0.916 0.84488 0.0
H2354 H 0.15333 0.93954 0.84102 0.0
H2355 H 0.15512 0.89926 0.83932 0.0
C2356 C 0.225 0.93032 0.82495 0.0
C2357 C 0.23669 0.90266 0.8218 0.0
C2358 C 0.19378 0.93541 0.82504 0.0
C2359 C 0.17373 0.91283 0.82208 0.0
C2360 C 0.1853 0.88513 0.81894 0.0
H2361 H 0.97682 0.9351 0.81436 0.0
H2362 H 0.02721 0.91178 0.81499 0.0
C2363 C 0.21663 0.87994 0.8189 0.0
C2364 C 0.14073 0.9187 0.82214 0.0
H2365 H 0.08215 0.93697 0.83621 0.0
C2366 C 0.12566 0.92189 0.81384 0.0
C2367 C 0.12472 0.92339 0.8303 0.0
C2368 C 0.13966 0.91913 0.8394 0.0
C2369 C 0.09525 0.9313 0.81347 0.0
C2370 C 0.07948 0.937 0.82165 0.0
C2371 C 0.09431 0.93263 0.82996 0.0
C2372 C 0.04843 0.94982 0.82173 0.0
C2373 C 0.0808 0.93658 0.80435 0.0
C2374 C 0.04344 0.97841 0.82561 0.0
C2375 C 0.01472 0.99164 0.82534 0.0
C2376 C 0.99035 0.97652 0.82118 0.0
C2377 C 0.99516 0.94744 0.81755 0.0
C2378 C 0.02397 0.93415 0.81786 0.0
H2379 H 0.09787 0.93733 0.79882 0.0
H2380 H 0.06477 0.91784 0.80287 0.0
H2381 H 0.06782 0.95816 0.80431 0.0
H2382 H 0.062 0.99082 0.82867 0.0
H2383 H 0.0118 0.01401 0.82824 0.0
H2384 H 0.28403 0.26979 0.43666 0.0
H2385 H 0.3149 0.22378 0.43542 0.0
H2386 H 0.25857 0.18005 0.45541 0.0
H2387 H 0.22824 0.22598 0.45687 0.0
H2388 H 0.31898 0.16948 0.45822 0.0
H2389 H 0.28769 0.14765 0.42229 0.0
H2390 H 0.30536 0.18355 0.42454 0.0
H2391 H 0.26845 0.17557 0.42911 0.0
C2392 C 0.27829 0.25036 0.4408 0.0
C2393 C 0.25357 0.25141 0.44682 0.0
C2394 C 0.29588 0.22409 0.44006 0.0
C2395 C 0.28875 0.19839 0.44523 0.0
C2396 C 0.26445 0.19965 0.45136 0.0
H2397 H 0.30364 0.01102 0.43888 0.0
H2398 H 0.29315 0.06513 0.43893 0.0
C2399 C 0.24707 0.2259 0.45216 0.0
C2400 C 0.30576 0.16968 0.44419 0.0
H2401 H 0.31813 0.11135 0.42948 0.0
C2402 C 0.31918 0.15687 0.45191 0.0
C2403 C 0.30587 0.15336 0.43595 0.0
C2404 C 0.29091 0.16553 0.42751 0.0
C2405 C 0.3313 0.12747 0.45175 0.0
C2406 C 0.3306 0.11081 0.44357 0.0
C2407 C 0.31868 0.12428 0.43573 0.0
C2408 C 0.33821 0.07815 0.44327 0.0
C2409 C 0.34297 0.11387 0.46045 0.0
C2410 C 0.36722 0.06746 0.44555 0.0
C2411 C 0.37304 0.03627 0.44576 0.0
C2412 C 0.34993 0.01547 0.44369 0.0
C2413 C 0.32145 0.02637 0.44097 0.0
C2414 C 0.31558 0.05737 0.44083 0.0
H2415 H 0.33667 0.12769 0.46646 0.0
H2416 H 0.33399 0.09058 0.4614 0.0
H2417 H 0.36808 0.1125 0.46017 0.0
H2418 H 0.38523 0.08316 0.44723 0.0
H2419 H 0.39541 0.02841 0.44768 0.0
H2420 H 0.97827 0.06712 0.70067 0.0
H2421 H 0.02886 0.09005 0.70021 0.0
H2422 H 0.06216 0.01342 0.68504 0.0
H2423 H 0.01182 0.99068 0.68531 0.0
H2424 H 0.08066 0.06623 0.70743 0.0
H2425 H 0.0962 0.08355 0.67065 0.0
H2426 H 0.05955 0.07602 0.67562 0.0
H2427 H 0.08529 0.04536 0.67322 0.0
C2428 C 0.99627 0.05539 0.69711 0.0
C2429 C 0.99101 0.02708 0.69302 0.0
C2430 C 0.02515 0.06851 0.69687 0.0
C2431 C 0.04916 0.05366 0.69248 0.0
C2432 C 0.04382 0.02565 0.68827 0.0
H2433 H 0.24109 0.05067 0.68997 0.0
H2434 H 0.18617 0.04254 0.6897 0.0
C2435 C 0.01502 0.01256 0.68849 0.0
C2436 C 0.08037 0.06607 0.69285 0.0
H2437 H 0.14182 0.08236 0.67965 0.0
C2438 C 0.09388 0.07034 0.70136 0.0
C2439 C 0.09754 0.07149 0.68492 0.0
C2440 C 0.08378 0.06917 0.67559 0.0
C2441 C 0.1246 0.0783 0.70215 0.0
C2442 C 0.14206 0.08219 0.69422 0.0
C2443 C 0.1283 0.07912 0.68571 0.0
C2444 C 0.17512 0.08739 0.69461 0.0
C2445 C 0.13861 0.08114 0.71142 0.0
C2446 C 0.18694 0.11538 0.69743 0.0
C2447 C 0.21833 0.12 0.69763 0.0
C2448 C 0.23821 0.09655 0.69514 0.0
C2449 C 0.22625 0.06871 0.69224 0.0
C2450 C 0.19495 0.06417 0.69198 0.0
H2451 H 0.1227 0.07432 0.71689 0.0
H2452 H 0.15934 0.06691 0.71187 0.0
H2453 H 0.14548 0.10502 0.71259 0.0
H2454 H 0.17188 0.13366 0.69937 0.0
H2455 H 0.22711 0.14183 0.69973 0.0
H2456 H 0.18677 0.72889 0.95314 0.0
H2457 H 0.16362 0.77923 0.95229 0.0
H2458 H 0.23666 0.80954 0.93511 0.0
H2459 H 0.25955 0.75928 0.93575 0.0
H2460 H 0.18837 0.83173 0.95823 0.0
H2461 H 0.16382 0.84156 0.92164 0.0
H2462 H 0.17274 0.80579 0.92694 0.0
H2463 H 0.2026 0.83142 0.92368 0.0
C2464 C 0.19765 0.74614 0.94906 0.0
C2465 C 0.22501 0.74007 0.94451 0.0
C2466 C 0.1844 0.77489 0.9486 0.0
C2467 C 0.19817 0.79802 0.94353 0.0
C2468 C 0.22521 0.79185 0.93887 0.0
H2469 H 0.19777 0.98986 0.93907 0.0
H2470 H 0.20702 0.93512 0.93918 0.0
C2471 C 0.2384 0.76313 0.9393 0.0
C2472 C 0.18575 0.82924 0.94369 0.0
H2473 H 0.16599 0.88842 0.93002 0.0
C2474 C 0.18294 0.84397 0.95208 0.0
C2475 C 0.17859 0.84513 0.93565 0.0
C2476 C 0.17928 0.83004 0.92648 0.0
C2477 C 0.17459 0.87461 0.9526 0.0
C2478 C 0.16886 0.89079 0.94454 0.0
C2479 C 0.17062 0.87587 0.93618 0.0
C2480 C 0.16293 0.92371 0.94462 0.0
C2481 C 0.17318 0.88994 0.96172 0.0
C2482 C 0.135 0.93523 0.9476 0.0
C2483 C 0.12973 0.96651 0.94758 0.0
C2484 C 0.1525 0.98656 0.94471 0.0
C2485 C 0.18027 0.97489 0.94162 0.0
C2486 C 0.18544 0.9437 0.94159 0.0
H2487 H 0.18108 0.87491 0.96728 0.0
H2488 H 0.1873 0.91078 0.96169 0.0
H2489 H 0.14946 0.89683 0.96316 0.0
H2490 H 0.11727 0.92003 0.94987 0.0
H2491 H 0.10797 0.97506 0.94984 0.0
H2492 H 0.26224 0.94919 0.18924 0.0
H2493 H 0.31705 0.95803 0.18908 0.0
H2494 H 0.33212 0.86846 0.19986 0.0
H2495 H 0.27698 0.85956 0.20008 0.0
H2496 H 0.36436 0.92129 0.20874 0.0
H2497 H 0.37874 0.91411 0.17143 0.0
H2498 H 0.3478 0.93737 0.17527 0.0
H2499 H 0.34696 0.89726 0.1773 0.0
C2500 C 0.27723 0.93161 0.19173 0.0
C2501 C 0.26553 0.90399 0.19489 0.0
C2502 C 0.30847 0.93652 0.19152 0.0
C2503 C 0.32849 0.91382 0.19442 0.0
C2504 C 0.31692 0.88619 0.19759 0.0
H2505 H 0.52531 0.9351 0.20193 0.0
H2506 H 0.47468 0.91234 0.2015 0.0
C2507 C 0.28558 0.88116 0.19773 0.0
C2508 C 0.36149 0.91945 0.19422 0.0
H2509 H 0.41994 0.93476 0.1798 0.0
C2510 C 0.37674 0.92381 0.20244 0.0
C2511 C 0.37733 0.92274 0.18597 0.0
C2512 C 0.36201 0.91741 0.17697 0.0
C2513 C 0.40724 0.93294 0.20262 0.0
C2514 C 0.42294 0.93705 0.19434 0.0
C2515 C 0.40787 0.93159 0.18613 0.0
C2516 C 0.45422 0.94924 0.19403 0.0
C2517 C 0.42186 0.93961 0.21164 0.0
C2518 C 0.45978 0.97685 0.18963 0.0
C2519 C 0.48869 0.9897 0.18975 0.0
C2520 C 0.51263 0.9752 0.19431 0.0
C2521 C 0.50728 0.94698 0.19843 0.0
C2522 C 0.47833 0.93402 0.19825 0.0
H2523 H 0.4048 0.94192 0.21714 0.0
H2524 H 0.43732 0.92073 0.21345 0.0
H2525 H 0.43542 0.96078 0.21132 0.0
H2526 H 0.44151 0.98889 0.18629 0.0
H2527 H 0.49203 0.01141 0.18648 0.0
H2528 H 0.7 0.01032 0.94899 0.0
H2529 H 0.70894 0.06437 0.95003 0.0
H2530 H 0.62025 0.08166 0.93881 0.0
H2531 H 0.60997 0.02714 0.93859 0.0
H2532 H 0.71355 0.10173 0.93687 0.0
H2533 H 0.61974 0.14217 0.95878 0.0
H2534 H 0.62851 0.10249 0.95747 0.0
H2535 H 0.60681 0.12205 0.94897 0.0
C2536 C 0.68165 0.02545 0.94723 0.0
C2537 C 0.65365 0.01431 0.94414 0.0
C2538 C 0.68709 0.05652 0.94762 0.0
C2539 C 0.66508 0.07724 0.94466 0.0
C2540 C 0.63723 0.06625 0.94142 0.0
H2541 H 0.73083 0.26069 0.93253 0.0
H2542 H 0.70773 0.21053 0.9308 0.0
C2543 C 0.63149 0.03506 0.94122 0.0
C2544 C 0.67254 0.11004 0.9444 0.0
H2545 H 0.64982 0.17989 0.95169 0.0
C2546 C 0.69961 0.1188 0.94013 0.0
C2547 C 0.65439 0.13232 0.94867 0.0
C2548 C 0.62591 0.1243 0.95381 0.0
C2549 C 0.7096 0.14894 0.94025 0.0
C2550 C 0.69121 0.17134 0.94437 0.0
C2551 C 0.66372 0.16275 0.94845 0.0
C2552 C 0.70134 0.2033 0.94518 0.0
C2553 C 0.74046 0.15602 0.93635 0.0
C2554 C 0.7036 0.2167 0.95377 0.0
C2555 C 0.71597 0.24562 0.95475 0.0
C2556 C 0.7267 0.2615 0.94716 0.0
C2557 C 0.72319 0.2487 0.93851 0.0
C2558 C 0.71018 0.21999 0.93752 0.0
H2559 H 0.7548 0.13539 0.93578 0.0
H2560 H 0.7377 0.16551 0.92944 0.0
H2561 H 0.7527 0.17287 0.94057 0.0
H2562 H 0.69679 0.20435 0.95978 0.0
H2563 H 0.7183 0.25495 0.96149 0.0
H2564 H 0.73952 0.9524 0.69365 0.0
H2565 H 0.68478 0.95985 0.69479 0.0
H2566 H 0.67141 0.8631 0.69541 0.0
H2567 H 0.72662 0.85542 0.6946 0.0
H2568 H 0.63444 0.90054 0.68215 0.0
H2569 H 0.62983 0.94016 0.71785 0.0
H2570 H 0.65896 0.95697 0.71095 0.0
H2571 H 0.66053 0.91722 0.7135 0.0
C2572 C 0.72508 0.93271 0.69435 0.0
C2573 C 0.73739 0.90333 0.69443 0.0
C2574 C 0.69379 0.93701 0.69488 0.0
C2575 C 0.67422 0.91203 0.69534 0.0
C2576 C 0.68628 0.88262 0.69517 0.0
H2577 H 0.481 0.94018 0.70618 0.0
H2578 H 0.53115 0.91636 0.70563 0.0
C2579 C 0.7177 0.8783 0.69471 0.0
C2580 C 0.64113 0.91703 0.69572 0.0
H2581 H 0.58597 0.94884 0.70883 0.0
C2582 C 0.62367 0.91069 0.68802 0.0
C2583 C 0.62725 0.93002 0.70342 0.0
C2584 C 0.64498 0.93632 0.71195 0.0
C2585 C 0.59279 0.9184 0.68766 0.0
C2586 C 0.57929 0.93289 0.69519 0.0
C2587 C 0.59645 0.93785 0.70305 0.0
C2588 C 0.54802 0.94501 0.69487 0.0
C2589 C 0.57496 0.91143 0.67921 0.0
C2590 C 0.54094 0.96889 0.68897 0.0
C2591 C 0.51244 0.98266 0.6893 0.0
C2592 C 0.49051 0.9728 0.69555 0.0
C2593 C 0.49737 0.94826 0.70127 0.0
C2594 C 0.52599 0.93463 0.70098 0.0
H2595 H 0.58595 0.89332 0.67513 0.0
H2596 H 0.55147 0.90429 0.68089 0.0
H2597 H 0.57361 0.93214 0.67496 0.0
H2598 H 0.55783 0.97756 0.68432 0.0
H2599 H 0.50786 0.00148 0.6848 0.0
H2600 H 0.80248 0.98822 0.43761 0.0
H2601 H 0.79004 0.93439 0.43798 0.0
H2602 H 0.87436 0.91571 0.4517 0.0
H2603 H 0.88693 0.97 0.45137 0.0
H2604 H 0.86119 0.87513 0.43752 0.0
H2605 H 0.76285 0.88815 0.46058 0.0
H2606 H 0.76079 0.91241 0.45085 0.0
H2607 H 0.79071 0.91766 0.45898 0.0
C2608 C 0.81807 0.9728 0.44089 0.0
C2609 C 0.84516 0.98336 0.44476 0.0
C2610 C 0.81103 0.94201 0.44104 0.0
C2611 C 0.83091 0.92121 0.44508 0.0
C2612 C 0.85856 0.9315 0.44865 0.0
H2613 H 0.80803 0.72584 0.45275 0.0
H2614 H 0.8296 0.777 0.45251 0.0
C2615 C 0.86569 0.96241 0.44846 0.0
C2616 C 0.82262 0.88876 0.44549 0.0
H2617 H 0.7669 0.84095 0.45276 0.0
C2618 C 0.84079 0.86753 0.44094 0.0
C2619 C 0.79608 0.87897 0.45001 0.0
C2620 C 0.77663 0.90043 0.45546 0.0
C2621 C 0.83235 0.83686 0.44046 0.0
C2622 C 0.80523 0.82739 0.44469 0.0
C2623 C 0.78755 0.84845 0.44945 0.0
C2624 C 0.79415 0.79587 0.44411 0.0
C2625 C 0.85184 0.81496 0.43521 0.0
C2626 C 0.76723 0.78965 0.43942 0.0
C2627 C 0.75485 0.76055 0.43954 0.0
C2628 C 0.76906 0.7372 0.44443 0.0
C2629 C 0.79653 0.74333 0.44892 0.0
C2630 C 0.80897 0.77248 0.44876 0.0
H2631 H 0.86963 0.82672 0.4312 0.0
H2632 H 0.86314 0.79918 0.43998 0.0
H2633 H 0.83764 0.8012 0.43055 0.0
H2634 H 0.75546 0.80752 0.43581 0.0
H2635 H 0.7337 0.75662 0.436 0.0
H2636 H 0.99181 0.98946 0.1857 0.0
H2637 H 0.94204 0.01337 0.18496 0.0
H2638 H 0.97504 0.08846 0.20085 0.0
H2639 H 0.02503 0.06439 0.20176 0.0
H2640 H 0.92174 0.06477 0.20737 0.0
H2641 H 0.91158 0.08552 0.17058 0.0
H2642 H 0.92166 0.047 0.17302 0.0
H2643 H 0.94741 0.07712 0.17595 0.0
C2644 C 0.98867 0.01124 0.18895 0.0
C2645 C 0.01239 0.025 0.1938 0.0
C2646 C 0.96023 0.025 0.18846 0.0
C2647 C 0.95498 0.05293 0.19272 0.0
C2648 C 0.97872 0.06701 0.19745 0.0
H2649 H 0.77694 0.14116 0.19979 0.0
H2650 H 0.83211 0.13308 0.19964 0.0
C2651 C 0.00725 0.05323 0.19795 0.0
C2652 C 0.92404 0.06598 0.19281 0.0
H2653 H 0.86479 0.08455 0.17902 0.0
C2654 C 0.90943 0.06968 0.20119 0.0
C2655 C 0.9081 0.07242 0.18473 0.0
C2656 C 0.92311 0.07062 0.17557 0.0
C2657 C 0.87875 0.078 0.20167 0.0
C2658 C 0.86247 0.08297 0.19357 0.0
C2659 C 0.87738 0.08052 0.18521 0.0
C2660 C 0.82941 0.08848 0.1936 0.0
C2661 C 0.86352 0.07997 0.2108 0.0
C2662 C 0.80988 0.06633 0.1901 0.0
C2663 C 0.77857 0.07085 0.19019 0.0
C2664 C 0.76626 0.09763 0.19379 0.0
C2665 C 0.7859 0.12015 0.19709 0.0
C2666 C 0.81729 0.11554 0.19704 0.0
H2667 H 0.87822 0.07126 0.21633 0.0
H2668 H 0.85791 0.10397 0.21229 0.0
H2669 H 0.84198 0.06692 0.21078 0.0
H2670 H 0.81889 0.04545 0.18732 0.0
H2671 H 0.76413 0.05363 0.18726 0.0
H2672 H 0.76425 0.76073 0.57906 0.0
H2673 H 0.74094 0.81079 0.57957 0.0
H2674 H 0.66367 0.77698 0.56479 0.0
H2675 H 0.68715 0.7267 0.56409 0.0
H2676 H 0.68645 0.82947 0.5576 0.0
H2677 H 0.67103 0.84296 0.59454 0.0
H2678 H 0.70921 0.8327 0.59168 0.0
H2679 H 0.67872 0.80669 0.58936 0.0
C2680 C 0.74213 0.76377 0.576 0.0
C2681 C 0.72757 0.7397 0.57153 0.0
C2682 C 0.72873 0.7924 0.57636 0.0
C2683 C 0.70034 0.7975 0.57235 0.0
C2684 C 0.6855 0.77345 0.56798 0.0
H2685 H 0.60848 0.97371 0.56575 0.0
H2686 H 0.61795 0.91874 0.56589 0.0
C2687 C 0.69894 0.74474 0.5676 0.0
C2688 C 0.68741 0.82849 0.57217 0.0
H2689 H 0.67053 0.88887 0.58572 0.0
C2690 C 0.68241 0.84231 0.56374 0.0
C2691 C 0.68209 0.84514 0.5802 0.0
C2692 C 0.68524 0.831 0.58945 0.0
C2693 C 0.67379 0.87287 0.56313 0.0
C2694 C 0.6699 0.88984 0.57116 0.0
C2695 C 0.67375 0.87575 0.57958 0.0
C2696 C 0.66384 0.92277 0.57095 0.0
C2697 C 0.67022 0.88724 0.55392 0.0
C2698 C 0.68636 0.94298 0.57385 0.0
C2699 C 0.68106 0.97415 0.57373 0.0
C2700 C 0.65315 0.9856 0.57069 0.0
C2701 C 0.63036 0.96534 0.56796 0.0
C2702 C 0.63574 0.93408 0.56803 0.0
H2703 H 0.67785 0.87201 0.54838 0.0
H2704 H 0.646 0.89289 0.55279 0.0
H2705 H 0.68337 0.90868 0.55357 0.0
H2706 H 0.70806 0.9346 0.57622 0.0
H2707 H 0.69858 0.98926 0.57619 0.0
H2708 H 0.76526 0.94697 0.32794 0.0
H2709 H 0.81997 0.95557 0.32809 0.0
H2710 H 0.83439 0.8684 0.31561 0.0
H2711 H 0.7793 0.85984 0.31529 0.0
H2712 H 0.86632 0.91539 0.3364 0.0
H2713 H 0.87991 0.93252 0.29923 0.0
H2714 H 0.84369 0.93669 0.30481 0.0
H2715 H 0.85933 0.89965 0.30302 0.0
C2716 C 0.77997 0.92992 0.32504 0.0
C2717 C 0.76803 0.90313 0.32134 0.0
C2718 C 0.81124 0.93469 0.32525 0.0
C2719 C 0.83108 0.91278 0.32176 0.0
C2720 C 0.81933 0.88571 0.31822 0.0
H2721 H 0.02601 0.93901 0.31346 0.0
H2722 H 0.97617 0.91472 0.3143 0.0
C2723 C 0.78798 0.88085 0.31806 0.0
C2724 C 0.86407 0.91859 0.32187 0.0
H2725 H 0.92321 0.93877 0.30828 0.0
C2726 C 0.87891 0.92021 0.33025 0.0
C2727 C 0.88032 0.9246 0.31383 0.0
C2728 C 0.86513 0.92348 0.30469 0.0
C2729 C 0.90959 0.92841 0.33083 0.0
C2730 C 0.92552 0.93588 0.32282 0.0
C2731 C 0.91093 0.93308 0.31441 0.0
C2732 C 0.9565 0.94886 0.32303 0.0
C2733 C 0.92457 0.92912 0.34001 0.0
C2734 C 0.96197 0.97604 0.32768 0.0
C2735 C 0.99039 0.9899 0.32725 0.0
C2736 C 0.01381 0.97703 0.32206 0.0
C2737 C 0.00846 0.9495 0.31753 0.0
C2738 C 0.98 0.93559 0.31799 0.0
H2739 H 0.91319 0.91344 0.34481 0.0
H2740 H 0.94894 0.92291 0.33956 0.0
H2741 H 0.92285 0.95235 0.34284 0.0
H2742 H 0.94397 0.9871 0.33142 0.0
H2743 H 0.99369 0.01115 0.33079 0.0
H2744 H 0.80267 0.01181 0.07691 0.0
H2745 H 0.79374 0.06645 0.077 0.0
H2746 H 0.88105 0.08115 0.0646 0.0
H2747 H 0.88996 0.02615 0.06435 0.0
H2748 H 0.83416 0.11286 0.08536 0.0
H2749 H 0.81655 0.12659 0.04822 0.0
H2750 H 0.81225 0.09041 0.05379 0.0
H2751 H 0.84938 0.10582 0.05198 0.0
C2752 C 0.81967 0.02656 0.07401 0.0
C2753 C 0.84662 0.01472 0.07037 0.0
C2754 C 0.81471 0.05779 0.07418 0.0
C2755 C 0.83659 0.07769 0.07071 0.0
C2756 C 0.86377 0.06604 0.0672 0.0
H2757 H 0.81185 0.27273 0.06257 0.0
H2758 H 0.83543 0.22254 0.06328 0.0
C2759 C 0.86883 0.03474 0.06708 0.0
C2760 C 0.83071 0.11065 0.07084 0.0
H2761 H 0.81067 0.1699 0.05729 0.0
C2762 C 0.82928 0.12547 0.07923 0.0
C2763 C 0.82465 0.12694 0.06282 0.0
C2764 C 0.82558 0.11176 0.05367 0.0
C2765 C 0.82129 0.15619 0.07982 0.0
C2766 C 0.81381 0.17218 0.07183 0.0
C2767 C 0.81635 0.15758 0.06341 0.0
C2768 C 0.8012 0.2033 0.07206 0.0
C2769 C 0.82086 0.17115 0.08901 0.0
C2770 C 0.77419 0.20913 0.07678 0.0
C2771 C 0.76075 0.23775 0.07642 0.0
C2772 C 0.77385 0.26103 0.07123 0.0
C2773 C 0.80119 0.2553 0.06663 0.0
C2774 C 0.81469 0.22664 0.06702 0.0
H2775 H 0.83651 0.1596 0.09379 0.0
H2776 H 0.82732 0.19543 0.08856 0.0
H2777 H 0.79764 0.16967 0.09187 0.0
H2778 H 0.76296 0.19127 0.08053 0.0
H2779 H 0.73963 0.24133 0.08001 0.0
H2780 H 0.73957 0.05043 0.82569 0.0
H2781 H 0.68476 0.04159 0.82592 0.0
H2782 H 0.6693 0.13299 0.81669 0.0
H2783 H 0.7244 0.14189 0.81635 0.0
H2784 H 0.63999 0.0803 0.83617 0.0
H2785 H 0.6208 0.074 0.79891 0.0
H2786 H 0.65756 0.06683 0.80387 0.0
H2787 H 0.64317 0.10478 0.80335 0.0
C2788 C 0.7245 0.0684 0.82351 0.0
C2789 C 0.7361 0.09654 0.82074 0.0
C2790 C 0.69327 0.06344 0.82374 0.0
C2791 C 0.67314 0.08654 0.82122 0.0
C2792 C 0.68459 0.11481 0.81854 0.0
H2793 H 0.47656 0.06398 0.81519 0.0
H2794 H 0.52684 0.08755 0.81571 0.0
C2795 C 0.71592 0.11985 0.81836 0.0
C2796 C 0.64015 0.0809 0.82161 0.0
H2797 H 0.57891 0.06486 0.80835 0.0
C2798 C 0.62649 0.07721 0.8301 0.0
C2799 C 0.62271 0.07721 0.81367 0.0
C2800 C 0.63664 0.08075 0.8044 0.0
C2801 C 0.59583 0.06914 0.83088 0.0
C2802 C 0.5787 0.06391 0.82293 0.0
C2803 C 0.59211 0.06881 0.81443 0.0
C2804 C 0.54768 0.05105 0.82325 0.0
C2805 C 0.58215 0.06616 0.8402 0.0
C2806 C 0.54276 0.02276 0.82733 0.0
C2807 C 0.51413 0.00931 0.82707 0.0
C2808 C 0.48989 0.02374 0.82264 0.0
C2809 C 0.49474 0.0523 0.81867 0.0
C2810 C 0.52344 0.06579 0.81895 0.0
H2811 H 0.59439 0.08045 0.8452 0.0
H2812 H 0.55782 0.07266 0.84021 0.0
H2813 H 0.58401 0.04224 0.84246 0.0
H2814 H 0.56129 0.01061 0.83049 0.0
H2815 H 0.51124 0.98725 0.83017 0.0
H2816 H 0.8125 0.22643 0.56434 0.0
H2817 H 0.83628 0.27654 0.56511 0.0
H2818 H 0.75861 0.31092 0.5796 0.0
H2819 H 0.73499 0.26103 0.57902 0.0
H2820 H 0.81416 0.32913 0.55783 0.0
H2821 H 0.82806 0.34271 0.59481 0.0
H2822 H 0.82038 0.30646 0.58962 0.0
H2823 H 0.78994 0.33266 0.59183 0.0
C2824 C 0.80068 0.24456 0.5678 0.0
C2825 C 0.77185 0.23973 0.57162 0.0
C2826 C 0.81429 0.27317 0.56823 0.0
C2827 C 0.79942 0.29733 0.57253 0.0
C2828 C 0.77084 0.29244 0.57644 0.0
H2829 H 0.8009 0.48888 0.57623 0.0
H2830 H 0.79164 0.43419 0.57626 0.0
C2831 C 0.75726 0.26391 0.57604 0.0
C2832 C 0.81254 0.32823 0.5724 0.0
H2833 H 0.82896 0.38862 0.58599 0.0
C2834 C 0.81796 0.34199 0.56398 0.0
C2835 C 0.81757 0.3449 0.58044 0.0
C2836 C 0.81399 0.3308 0.58969 0.0
C2837 C 0.82668 0.37253 0.56339 0.0
C2838 C 0.83022 0.38953 0.57142 0.0
C2839 C 0.826 0.37548 0.57984 0.0
C2840 C 0.83619 0.42246 0.57122 0.0
C2841 C 0.83067 0.38685 0.55419 0.0
C2842 C 0.8644 0.43384 0.56842 0.0
C2843 C 0.86966 0.46511 0.56835 0.0
C2844 C 0.84664 0.48532 0.57095 0.0
C2845 C 0.81862 0.4738 0.57387 0.0
C2846 C 0.81343 0.44262 0.57399 0.0
H2847 H 0.82341 0.37155 0.54863 0.0
H2848 H 0.81745 0.40823 0.55376 0.0
H2849 H 0.85493 0.39259 0.55317 0.0
H2850 H 0.88236 0.41853 0.56639 0.0
H2851 H 0.89162 0.47354 0.56623 0.0
H2852 H 0.77648 0.64487 0.82096 0.0
H2853 H 0.83172 0.63704 0.82071 0.0
H2854 H 0.81806 0.54033 0.82127 0.0
H2855 H 0.76324 0.54792 0.82187 0.0
H2856 H 0.8671 0.59821 0.83447 0.0
H2857 H 0.87539 0.5614 0.79854 0.0
H2858 H 0.84469 0.58474 0.80271 0.0
H2859 H 0.84516 0.54485 0.80508 0.0
C2860 C 0.78534 0.62197 0.82096 0.0
C2861 C 0.76556 0.59699 0.82108 0.0
C2862 C 0.81678 0.61756 0.82083 0.0
C2863 C 0.82877 0.58812 0.8208 0.0
C2864 C 0.80911 0.5632 0.82108 0.0
H2865 H 0.99452 0.49813 0.83217 0.0
H2866 H 0.94448 0.52191 0.83247 0.0
C2867 C 0.77779 0.56758 0.8213 0.0
C2868 C 0.86187 0.58304 0.82071 0.0
H2869 H 0.9184 0.55251 0.80786 0.0
C2870 C 0.8785 0.58861 0.82863 0.0
C2871 C 0.87655 0.57076 0.81304 0.0
C2872 C 0.85968 0.56524 0.80432 0.0
C2873 C 0.90935 0.5809 0.8292 0.0
C2874 C 0.92366 0.56716 0.82168 0.0
C2875 C 0.90731 0.56293 0.81363 0.0
C2876 C 0.95496 0.55515 0.82216 0.0
C2877 C 0.92626 0.5871 0.83788 0.0
C2878 C 0.97741 0.56596 0.81626 0.0
C2879 C 0.00606 0.55239 0.81607 0.0
C2880 C 0.01257 0.52749 0.82169 0.0
C2881 C 0.99024 0.51724 0.82775 0.0
C2882 C 0.96168 0.53094 0.82798 0.0
H2883 H 0.91488 0.6049 0.84198 0.0
H2884 H 0.92706 0.56605 0.84198 0.0
H2885 H 0.94994 0.59429 0.83648 0.0
H2886 H 0.97255 0.58451 0.81168 0.0
H2887 H 0.02274 0.5608 0.81131 0.0
H2888 H 0.75322 0.74633 0.08195 0.0
H2889 H 0.7322 0.69511 0.08262 0.0
H2890 H 0.67738 0.71382 0.0591 0.0
H2891 H 0.69782 0.7653 0.05847 0.0
H2892 H 0.64662 0.68078 0.07227 0.0
H2893 H 0.75897 0.6301 0.06461 0.0
H2894 H 0.7589 0.65412 0.07443 0.0
H2895 H 0.75149 0.67011 0.06345 0.0
C2896 C 0.73649 0.73966 0.07696 0.0
C2897 C 0.72747 0.75975 0.07008 0.0
C2898 C 0.72461 0.71035 0.07734 0.0
C2899 C 0.70377 0.70051 0.07079 0.0
C2900 C 0.69361 0.72094 0.06418 0.0
H2901 H 0.6703 0.51202 0.05763 0.0
H2902 H 0.68204 0.56618 0.05712 0.0
C2903 C 0.70534 0.75034 0.06383 0.0
C2904 C 0.69356 0.66856 0.07059 0.0
H2905 H 0.71955 0.59606 0.06852 0.0
C2906 C 0.6625 0.66221 0.07144 0.0
C2907 C 0.71432 0.64447 0.06932 0.0
C2908 C 0.74774 0.64996 0.06781 0.0
C2909 C 0.65167 0.63228 0.07122 0.0
C2910 C 0.67259 0.60815 0.07028 0.0
C2911 C 0.70357 0.61459 0.0693 0.0
C2912 C 0.66307 0.57596 0.07033 0.0
C2913 C 0.61795 0.62683 0.07182 0.0
C2914 C 0.6483 0.56354 0.07788 0.0
C2915 C 0.64161 0.5326 0.07818 0.0
C2916 C 0.65013 0.51351 0.07101 0.0
C2917 C 0.66421 0.52608 0.06336 0.0
C2918 C 0.67071 0.55703 0.06303 0.0
H2919 H 0.60483 0.64731 0.06987 0.0
H2920 H 0.61094 0.60769 0.06742 0.0
H2921 H 0.61193 0.6211 0.07891 0.0
H2922 H 0.64276 0.57758 0.08366 0.0
H2923 H 0.63078 0.52342 0.08416 0.0
H2924 H 0.7368 0.44694 0.32754 0.0
H2925 H 0.68215 0.4557 0.32788 0.0
H2926 H 0.667 0.36849 0.31549 0.0
H2927 H 0.72207 0.35979 0.31497 0.0
H2928 H 0.63461 0.41926 0.30745 0.0
H2929 H 0.61998 0.41289 0.34469 0.0
H2930 H 0.65015 0.43752 0.34113 0.0
H2931 H 0.65272 0.39753 0.33893 0.0
C2932 C 0.72192 0.42986 0.32473 0.0
C2933 C 0.73366 0.403 0.32102 0.0
C2934 C 0.69068 0.43467 0.32507 0.0
C2935 C 0.67062 0.41261 0.32179 0.0
C2936 C 0.6822 0.3857 0.31809 0.0
H2937 H 0.47363 0.43699 0.31473 0.0
H2938 H 0.52362 0.41277 0.31521 0.0
C2939 C 0.71354 0.38079 0.3178 0.0
C2940 C 0.63761 0.41839 0.32199 0.0
H2941 H 0.57947 0.43564 0.33633 0.0
C2942 C 0.62232 0.42235 0.31375 0.0
C2943 C 0.6218 0.42234 0.33023 0.0
C2944 C 0.63689 0.41709 0.33925 0.0
C2945 C 0.59196 0.43191 0.31353 0.0
C2946 C 0.57645 0.437 0.32179 0.0
C2947 C 0.59144 0.43178 0.33002 0.0
C2948 C 0.5456 0.45021 0.32203 0.0
C2949 C 0.57726 0.43804 0.30449 0.0
C2950 C 0.54121 0.47874 0.32601 0.0
C2951 C 0.51273 0.4925 0.32581 0.0
C2952 C 0.48804 0.47796 0.32164 0.0
C2953 C 0.49224 0.44888 0.31794 0.0
C2954 C 0.5208 0.43508 0.31816 0.0
H2955 H 0.59412 0.43883 0.2989 0.0
H2956 H 0.56081 0.41971 0.30296 0.0
H2957 H 0.5647 0.45985 0.30462 0.0
H2958 H 0.56004 0.49073 0.32907 0.0
H2959 H 0.51026 0.51483 0.32877 0.0
H2960 H 0.89557 0.52704 0.94801 0.0
H2961 H 0.88775 0.58229 0.94749 0.0
H2962 H 0.7957 0.56826 0.93855 0.0
H2963 H 0.8035 0.51338 0.93895 0.0
H2964 H 0.8336 0.61226 0.92819 0.0
H2965 H 0.8311 0.63174 0.96548 0.0
H2966 H 0.86157 0.60952 0.96079 0.0
H2967 H 0.82364 0.59492 0.96062 0.0
C2968 C 0.87365 0.5359 0.94601 0.0
C2969 C 0.84983 0.51613 0.94379 0.0
C2970 C 0.86922 0.5673 0.94573 0.0
C2971 C 0.84104 0.57919 0.9431 0.0
C2972 C 0.8175 0.55943 0.94069 0.0
H2973 H 0.7385 0.73855 0.93513 0.0
H2974 H 0.76324 0.6892 0.93458 0.0
C2975 C 0.82186 0.52816 0.94102 0.0
C2976 C 0.83576 0.61221 0.94274 0.0
H2977 H 0.8205 0.67337 0.95611 0.0
C2978 C 0.83109 0.62578 0.93428 0.0
C2979 C 0.83282 0.6297 0.9507 0.0
C2980 C 0.83739 0.61589 0.95995 0.0
C2981 C 0.82258 0.65631 0.93357 0.0
C2982 C 0.81792 0.6734 0.94155 0.0
C2983 C 0.824 0.66018 0.95001 0.0
C2984 C 0.8042 0.70404 0.94134 0.0
C2985 C 0.81832 0.66985 0.92428 0.0
C2986 C 0.81879 0.72871 0.94546 0.0
C2987 C 0.80454 0.75701 0.94586 0.0
C2988 C 0.77534 0.761 0.94221 0.0
C2989 C 0.76103 0.73631 0.93797 0.0
C2990 C 0.77525 0.7081 0.93759 0.0
H2991 H 0.83234 0.65786 0.91915 0.0
H2992 H 0.79421 0.6675 0.92224 0.0
H2993 H 0.82434 0.69429 0.92419 0.0
H2994 H 0.84105 0.72596 0.94845 0.0
H2995 H 0.81615 0.77556 0.94918 0.0
H2996 H 0.72764 0.61785 0.18206 0.0
H2997 H 0.6735 0.60572 0.18258 0.0
H2998 H 0.68492 0.56757 0.20926 0.0
H2999 H 0.73912 0.57936 0.2087 0.0
H3000 H 0.65505 0.52968 0.19821 0.0
H3001 H 0.60343 0.6439 0.196 0.0
H3002 H 0.6296 0.63641 0.18697 0.0
H3003 H 0.64314 0.63818 0.19845 0.0
C3004 C 0.71847 0.60724 0.18808 0.0
C3005 C 0.73759 0.59906 0.19528 0.0
C3006 C 0.68753 0.60048 0.18839 0.0
C3007 C 0.6751 0.58601 0.196 0.0
C3008 C 0.69406 0.57869 0.20332 0.0
H3009 H 0.48408 0.55183 0.20658 0.0
H3010 H 0.53565 0.57231 0.20639 0.0
C3011 C 0.72503 0.58523 0.20297 0.0
C3012 C 0.64288 0.5764 0.19605 0.0
H3013 H 0.57021 0.60185 0.19351 0.0
C3014 C 0.6365 0.54551 0.19724 0.0
C3015 C 0.61869 0.59712 0.19488 0.0
C3016 C 0.62399 0.63079 0.19409 0.0
C3017 C 0.60664 0.53464 0.19714 0.0
C3018 C 0.58252 0.55513 0.19557 0.0
C3019 C 0.5888 0.58614 0.19457 0.0
C3020 C 0.55062 0.54472 0.19514 0.0
C3021 C 0.60121 0.50135 0.19887 0.0
C3022 C 0.5417 0.52317 0.18867 0.0
C3023 C 0.51237 0.51126 0.18881 0.0
C3024 C 0.4913 0.52099 0.19534 0.0
C3025 C 0.49981 0.54378 0.20149 0.0
C3026 C 0.52925 0.55552 0.20139 0.0
H3027 H 0.62077 0.49064 0.20238 0.0
H3028 H 0.58055 0.49781 0.20304 0.0
H3029 H 0.59803 0.48953 0.19231 0.0
H3030 H 0.55765 0.5151 0.18364 0.0
H3031 H 0.5064 0.49402 0.1839 0.0
H3032 H 0.69045 0.22451 0.45226 0.0
H3033 H 0.66609 0.27425 0.45132 0.0
H3034 H 0.73984 0.30688 0.4348 0.0
H3035 H 0.76401 0.25723 0.43554 0.0
H3036 H 0.68968 0.32725 0.45759 0.0
H3037 H 0.6669 0.33728 0.42089 0.0
H3038 H 0.67608 0.30158 0.42619 0.0
H3039 H 0.70571 0.32775 0.42315 0.0
C3040 C 0.70125 0.24214 0.44831 0.0
C3041 C 0.72918 0.23693 0.44398 0.0
C3042 C 0.6873 0.27053 0.44779 0.0
C3043 C 0.70093 0.29412 0.44289 0.0
C3044 C 0.72853 0.2888 0.43843 0.0
H3045 H 0.69618 0.48539 0.43784 0.0
H3046 H 0.70589 0.4309 0.43772 0.0
C3047 C 0.74245 0.26044 0.43893 0.0
C3048 C 0.68777 0.32499 0.44303 0.0
H3049 H 0.66744 0.38395 0.42936 0.0
C3050 C 0.68427 0.33949 0.45143 0.0
C3051 C 0.68068 0.34086 0.43498 0.0
C3052 C 0.68223 0.32595 0.4258 0.0
C3053 C 0.67538 0.36997 0.45197 0.0
C3054 C 0.66965 0.38616 0.4439 0.0
C3055 C 0.67205 0.3714 0.43552 0.0
C3056 C 0.6632 0.419 0.444 0.0
C3057 C 0.67353 0.38508 0.46112 0.0
C3058 C 0.63583 0.43022 0.4475 0.0
C3059 C 0.63034 0.46144 0.44765 0.0
C3060 C 0.65229 0.48178 0.44439 0.0
C3061 C 0.67938 0.47036 0.44073 0.0
C3062 C 0.68478 0.43923 0.44054 0.0
H3063 H 0.68281 0.37054 0.4666 0.0
H3064 H 0.68612 0.40687 0.46106 0.0
H3065 H 0.64946 0.39017 0.46271 0.0
H3066 H 0.61875 0.41484 0.45008 0.0
H3067 H 0.6091 0.46971 0.45039 0.0
H3068 H 0.77371 0.3871 0.68089 0.0
H3069 H 0.82789 0.39838 0.68198 0.0
H3070 H 0.81612 0.42498 0.70987 0.0
H3071 H 0.76183 0.41388 0.70879 0.0
H3072 H 0.846 0.46741 0.70021 0.0
H3073 H 0.89802 0.35509 0.694 0.0
H3074 H 0.87161 0.36569 0.68532 0.0
H3075 H 0.85834 0.35965 0.6967 0.0
C3076 C 0.78279 0.39491 0.6873 0.0
C3077 C 0.76353 0.40014 0.69471 0.0
C3078 C 0.81377 0.40118 0.68793 0.0
C3079 C 0.82611 0.41226 0.69604 0.0
C3080 C 0.80705 0.41649 0.70355 0.0
H3081 H 0.01845 0.44544 0.70596 0.0
H3082 H 0.96705 0.42445 0.706 0.0
C3083 C 0.77603 0.41037 0.7029 0.0
C3084 C 0.85829 0.42187 0.69644 0.0
H3085 H 0.93091 0.39814 0.69258 0.0
C3086 C 0.86458 0.45217 0.69862 0.0
C3087 C 0.88253 0.4019 0.69446 0.0
C3088 C 0.87735 0.36869 0.69258 0.0
C3089 C 0.89435 0.46329 0.69865 0.0
C3090 C 0.91844 0.44373 0.69622 0.0
C3091 C 0.91232 0.41319 0.6943 0.0
C3092 C 0.9501 0.45475 0.69566 0.0
C3093 C 0.89972 0.49586 0.70135 0.0
C3094 C 0.95779 0.47805 0.68962 0.0
C3095 C 0.98704 0.49019 0.68961 0.0
C3096 C 0.00922 0.47901 0.69557 0.0
C3097 C 0.00185 0.45464 0.7013 0.0
C3098 C 0.97251 0.44261 0.70134 0.0
H3099 H 0.88049 0.50508 0.70536 0.0
H3100 H 0.92083 0.49815 0.70539 0.0
H3101 H 0.90209 0.5099 0.69516 0.0
H3102 H 0.94099 0.48725 0.68503 0.0
H3103 H 0.99207 0.50871 0.68504 0.0
H3104 H 0.26364 0.72995 0.45891 0.0
H3105 H 0.23381 0.68386 0.45705 0.0
H3106 H 0.19005 0.72226 0.43359 0.0
H3107 H 0.22041 0.76844 0.43528 0.0
H3108 H 0.17174 0.67367 0.45677 0.0
H3109 H 0.22566 0.64326 0.4239 0.0
H3110 H 0.2405 0.67271 0.43111 0.0
H3111 H 0.2073 0.67958 0.42437 0.0
C3112 C 0.24765 0.72869 0.45336 0.0
C3113 C 0.24464 0.75271 0.44718 0.0
C3114 C 0.23052 0.70236 0.45233 0.0
C3115 C 0.21 0.69953 0.44513 0.0
C3116 C 0.20615 0.72382 0.43911 0.0
H3117 H 0.1033 0.52916 0.44409 0.0
H3118 H 0.11384 0.58392 0.44373 0.0
C3119 C 0.22346 0.75018 0.4401 0.0
C3120 C 0.19387 0.67046 0.44381 0.0
H3121 H 0.19146 0.60834 0.43009 0.0
C3122 C 0.17564 0.65948 0.45089 0.0
C3123 C 0.19917 0.65208 0.43613 0.0
C3124 C 0.21937 0.66228 0.42846 0.0
C3125 C 0.16378 0.62997 0.45069 0.0
C3126 C 0.16991 0.61127 0.44313 0.0
C3127 C 0.18678 0.62284 0.43585 0.0
C3128 C 0.16262 0.57854 0.44313 0.0
C3129 C 0.14638 0.61847 0.45879 0.0
C3130 C 0.18643 0.55754 0.44266 0.0
C3131 C 0.18046 0.52657 0.44277 0.0
C3132 C 0.15057 0.51594 0.44352 0.0
C3133 C 0.12659 0.53689 0.44374 0.0
C3134 C 0.13258 0.56806 0.44357 0.0
H3135 H 0.14813 0.63405 0.46467 0.0
H3136 H 0.12206 0.61622 0.45698 0.0
H3137 H 0.15479 0.59578 0.46085 0.0
H3138 H 0.20976 0.56514 0.44221 0.0
H3139 H 0.1993 0.51097 0.44213 0.0
H3140 H 0.00969 0.50925 0.18552 0.0
H3141 H 0.05962 0.48565 0.18491 0.0
H3142 H 0.02798 0.41296 0.20199 0.0
H3143 H 0.97791 0.43684 0.20281 0.0
H3144 H 0.08083 0.43691 0.208 0.0
H3145 H 0.09078 0.41253 0.1714 0.0
H3146 H 0.08102 0.45139 0.17344 0.0
H3147 H 0.05502 0.42183 0.17668 0.0
C3148 C 0.01316 0.48803 0.18905 0.0
C3149 C 0.98981 0.47495 0.19422 0.0
C3150 C 0.0417 0.47443 0.18864 0.0
C3151 C 0.0474 0.44727 0.19328 0.0
C3152 C 0.02399 0.43381 0.19831 0.0
H3153 H 0.22487 0.35737 0.19964 0.0
H3154 H 0.1697 0.36609 0.19961 0.0
C3155 C 0.9954 0.44748 0.19876 0.0
C3156 C 0.07846 0.43445 0.19345 0.0
H3157 H 0.13773 0.41467 0.17979 0.0
C3158 C 0.0931 0.43147 0.20184 0.0
C3159 C 0.09439 0.42727 0.18541 0.0
C3160 C 0.07936 0.42811 0.17624 0.0
C3161 C 0.12375 0.42306 0.20238 0.0
C3162 C 0.14 0.41743 0.19431 0.0
C3163 C 0.12512 0.41923 0.18595 0.0
C3164 C 0.17299 0.41178 0.1944 0.0
C3165 C 0.13902 0.42155 0.2115 0.0
C3166 C 0.19279 0.43449 0.1914 0.0
C3167 C 0.22406 0.42965 0.19146 0.0
C3168 C 0.23598 0.40202 0.19455 0.0
C3169 C 0.21612 0.37903 0.19738 0.0
C3170 C 0.18476 0.38396 0.19737 0.0
H3171 H 0.12389 0.42924 0.21706 0.0
H3172 H 0.14605 0.39786 0.2129 0.0
H3173 H 0.1598 0.43578 0.2115 0.0
H3174 H 0.18402 0.45598 0.189 0.0
H3175 H 0.23889 0.44732 0.18895 0.0
H3176 H 0.31249 0.22694 0.95087 0.0
H3177 H 0.33596 0.27723 0.95043 0.0
H3178 H 0.2578 0.3124 0.93637 0.0
H3179 H 0.23443 0.26229 0.93663 0.0
H3180 H 0.31291 0.33263 0.92924 0.0
H3181 H 0.30835 0.34738 0.96664 0.0
H3182 H 0.32805 0.31427 0.96268 0.0
H3183 H 0.2879 0.31768 0.96087 0.0
C3184 C 0.30038 0.24534 0.94763 0.0
C3185 C 0.27146 0.24067 0.94386 0.0
C3186 C 0.31376 0.27408 0.94743 0.0
C3187 C 0.29835 0.29862 0.94351 0.0
C3188 C 0.26999 0.29378 0.93947 0.0
H3189 H 0.3028 0.49025 0.93785 0.0
H3190 H 0.29345 0.43577 0.93743 0.0
C3191 C 0.25665 0.26511 0.93964 0.0
C3192 C 0.31115 0.32963 0.94378 0.0
H3193 H 0.32842 0.38777 0.95815 0.0
C3194 C 0.31654 0.34462 0.93556 0.0
C3195 C 0.31593 0.34516 0.95204 0.0
C3196 C 0.30957 0.33048 0.96107 0.0
C3197 C 0.326 0.37497 0.93537 0.0
C3198 C 0.32975 0.39077 0.94362 0.0
C3199 C 0.32549 0.3755 0.95185 0.0
C3200 C 0.33589 0.42371 0.94384 0.0
C3201 C 0.3316 0.38998 0.92635 0.0
C3202 C 0.36261 0.43498 0.94775 0.0
C3203 C 0.36784 0.46624 0.9481 0.0
C3204 C 0.34612 0.48662 0.94472 0.0
C3205 C 0.31948 0.4752 0.94079 0.0
C3206 C 0.31435 0.44403 0.94039 0.0
H3207 H 0.33605 0.37304 0.92095 0.0
H3208 H 0.3112 0.40317 0.92439 0.0
H3209 H 0.35113 0.40582 0.92673 0.0
H3210 H 0.37943 0.4196 0.95048 0.0
H3211 H 0.38867 0.47451 0.95111 0.0
H3212 H 0.49337 0.49703 0.68347 0.0
H3213 H 0.4435 0.52122 0.68323 0.0
H3214 H 0.47195 0.58287 0.70423 0.0
H3215 H 0.52199 0.55879 0.70453 0.0
H3216 H 0.41711 0.5506 0.70782 0.0
H3217 H 0.41537 0.60556 0.67404 0.0
H3218 H 0.42751 0.56668 0.6739 0.0
H3219 H 0.45013 0.59458 0.67964 0.0
C3220 C 0.48919 0.516 0.68795 0.0
C3221 C 0.5116 0.52592 0.69404 0.0
C3222 C 0.46075 0.52993 0.68776 0.0
C3223 C 0.4542 0.55401 0.69365 0.0
C3224 C 0.4767 0.56444 0.69959 0.0
H3225 H 0.27677 0.6457 0.69496 0.0
H3226 H 0.33191 0.63721 0.6953 0.0
C3227 C 0.50525 0.55066 0.69975 0.0
C3228 C 0.42304 0.56633 0.69413 0.0
H3229 H 0.36735 0.59911 0.6814 0.0
C3230 C 0.40635 0.56163 0.7021 0.0
C3231 C 0.40918 0.58085 0.68667 0.0
C3232 C 0.42652 0.58751 0.6781 0.0
C3233 C 0.37566 0.56977 0.70264 0.0
C3234 C 0.36142 0.58287 0.69503 0.0
C3235 C 0.37842 0.5889 0.68721 0.0
C3236 C 0.3284 0.58835 0.69487 0.0
C3237 C 0.3584 0.56371 0.71127 0.0
C3238 C 0.30846 0.56368 0.69435 0.0
C3239 C 0.2772 0.56845 0.69409 0.0
C3240 C 0.26531 0.59797 0.69449 0.0
C3241 C 0.28537 0.6227 0.69482 0.0
C3242 C 0.31675 0.61792 0.69501 0.0
H3243 H 0.37385 0.55927 0.71706 0.0
H3244 H 0.34352 0.58321 0.71297 0.0
H3245 H 0.34373 0.54352 0.71031 0.0
H3246 H 0.31715 0.54073 0.69403 0.0
H3247 H 0.26243 0.54901 0.69335 0.0
H3248 H 0.25198 0.25632 0.08161 0.0
H3249 H 0.22833 0.30642 0.08192 0.0
H3250 H 0.16684 0.27923 0.06073 0.0
H3251 H 0.19037 0.22896 0.06036 0.0
H3252 H 0.1999 0.33384 0.05735 0.0
H3253 H 0.14387 0.33506 0.09099 0.0
H3254 H 0.18264 0.32249 0.09119 0.0
H3255 H 0.15463 0.3004 0.08531 0.0
C3256 C 0.23316 0.26083 0.0771 0.0
C3257 C 0.22312 0.23871 0.07093 0.0
C3258 C 0.21955 0.2894 0.07732 0.0
C3259 C 0.19567 0.29637 0.07141 0.0
C3260 C 0.18512 0.27416 0.06539 0.0
H3261 H 0.10509 0.47416 0.07112 0.0
H3262 H 0.11336 0.41908 0.07046 0.0
C3263 C 0.19858 0.24548 0.0652 0.0
C3264 C 0.18367 0.32764 0.07098 0.0
H3265 H 0.15087 0.38315 0.08378 0.0
C3266 C 0.18878 0.34451 0.06308 0.0
C3267 C 0.16901 0.34138 0.07844 0.0
C3268 C 0.16192 0.32386 0.08694 0.0
C3269 C 0.18086 0.37525 0.06259 0.0
C3270 C 0.16762 0.38937 0.07021 0.0
C3271 C 0.1612 0.3722 0.07797 0.0
C3272 C 0.1623 0.42241 0.07045 0.0
C3273 C 0.18726 0.39264 0.05401 0.0
C3274 C 0.18709 0.44225 0.07081 0.0
C3275 C 0.18245 0.47348 0.07126 0.0
C3276 C 0.15292 0.48547 0.07119 0.0
C3277 C 0.12808 0.4655 0.07099 0.0
C3278 C 0.13274 0.43415 0.07063 0.0
H3279 H 0.19123 0.37728 0.04817 0.0
H3280 H 0.16813 0.40808 0.05237 0.0
H3281 H 0.20787 0.4067 0.05498 0.0
H3282 H 0.21005 0.4335 0.07091 0.0
H3283 H 0.20201 0.48815 0.07189 0.0
H3284 H 0.51827 0.44375 0.80926 0.0
H3285 H 0.46667 0.42327 0.80923 0.0
H3286 H 0.44244 0.48353 0.83106 0.0
H3287 H 0.49372 0.50452 0.83103 0.0
H3288 H 0.43075 0.39561 0.82239 0.0
H3289 H 0.38131 0.50506 0.81129 0.0
H3290 H 0.42155 0.49764 0.81103 0.0
H3291 H 0.40331 0.50802 0.82148 0.0
C3292 C 0.50204 0.45247 0.81411 0.0
C3293 C 0.50996 0.47605 0.82006 0.0
C3294 C 0.47258 0.44074 0.81408 0.0
C3295 C 0.45061 0.45237 0.82001 0.0
C3296 C 0.45889 0.47477 0.82628 0.0
H3297 H 0.27338 0.38394 0.83399 0.0
H3298 H 0.32765 0.39501 0.83311 0.0
C3299 C 0.48824 0.48663 0.82628 0.0
C3300 C 0.41876 0.44188 0.81944 0.0
H3301 H 0.34653 0.46704 0.81598 0.0
C3302 C 0.4123 0.41114 0.82094 0.0
C3303 C 0.39485 0.4621 0.81736 0.0
C3304 C 0.40056 0.49498 0.81511 0.0
C3305 C 0.38238 0.40025 0.82068 0.0
C3306 C 0.35834 0.4208 0.81905 0.0
C3307 C 0.36495 0.45135 0.8173 0.0
C3308 C 0.32606 0.41147 0.81931 0.0
C3309 C 0.37684 0.36684 0.82208 0.0
C3310 C 0.30706 0.41727 0.81188 0.0
C3311 C 0.27599 0.4113 0.81241 0.0
C3312 C 0.26338 0.39962 0.82042 0.0
C3313 C 0.28255 0.39287 0.82774 0.0
C3314 C 0.31359 0.39903 0.82722 0.0
H3315 H 0.39734 0.35324 0.82043 0.0
H3316 H 0.37114 0.36271 0.82929 0.0
H3317 H 0.35769 0.35869 0.81785 0.0
H3318 H 0.31622 0.42683 0.8057 0.0
H3319 H 0.26185 0.41601 0.80659 0.0
H3320 H 0.39879 0.52434 0.57081 0.0
H3321 H 0.39192 0.57972 0.57056 0.0
H3322 H 0.2952 0.56784 0.57298 0.0
H3323 H 0.30192 0.51293 0.57351 0.0
H3324 H 0.32159 0.60986 0.55791 0.0
H3325 H 0.35783 0.63179 0.59349 0.0
H3326 H 0.37995 0.60674 0.58644 0.0
H3327 H 0.34287 0.59543 0.59007 0.0
C3328 C 0.3761 0.53365 0.57124 0.0
C3329 C 0.35079 0.5144 0.57186 0.0
C3330 C 0.37223 0.56515 0.57111 0.0
C3331 C 0.34305 0.57765 0.57168 0.0
C3332 C 0.31785 0.55848 0.57242 0.0
H3333 H 0.24968 0.74072 0.58183 0.0
H3334 H 0.27398 0.69095 0.58186 0.0
C3335 C 0.3217 0.52714 0.5726 0.0
C3336 C 0.33832 0.61074 0.57158 0.0
H3337 H 0.33766 0.67293 0.58532 0.0
C3338 C 0.32557 0.62387 0.56383 0.0
C3339 C 0.34338 0.62862 0.57936 0.0
C3340 C 0.35669 0.61513 0.58786 0.0
C3341 C 0.31682 0.65442 0.56375 0.0
C3342 C 0.3211 0.67217 0.57162 0.0
C3343 C 0.33465 0.65922 0.57929 0.0
C3344 C 0.30888 0.70327 0.57225 0.0
C3345 C 0.3017 0.66715 0.55541 0.0
C3346 C 0.32101 0.72682 0.56701 0.0
C3347 C 0.30719 0.75535 0.56698 0.0
C3348 C 0.28097 0.76066 0.57217 0.0
C3349 C 0.2697 0.73731 0.5777 0.0
C3350 C 0.2836 0.70889 0.57775 0.0
H3351 H 0.29633 0.64928 0.55035 0.0
H3352 H 0.28038 0.67906 0.55726 0.0
H3353 H 0.317 0.68393 0.55217 0.0
H3354 H 0.3407 0.7229 0.56278 0.0
H3355 H 0.3165 0.77291 0.56267 0.0
H3356 H 0.00354 0.49465 0.33253 0.0
H3357 H 0.05453 0.51624 0.33331 0.0
H3358 H 0.03418 0.57392 0.31054 0.0
H3359 H 0.98299 0.55289 0.30981 0.0
H3360 H 0.0969 0.51226 0.31992 0.0
H3361 H 0.07415 0.63288 0.32802 0.0
H3362 H 0.04587 0.60362 0.32934 0.0
H3363 H 0.05361 0.61931 0.31834 0.0
C3364 C 0.00974 0.51226 0.32777 0.0
C3365 C 0.98922 0.522 0.32109 0.0
C3366 C 0.03889 0.52456 0.32823 0.0
C3367 C 0.04805 0.54688 0.32204 0.0
C3368 C 0.0274 0.55718 0.3155 0.0
H3369 H 0.2352 0.58365 0.30716 0.0
H3370 H 0.18122 0.57058 0.30715 0.0
C3371 C 0.99818 0.54499 0.31506 0.0
C3372 C 0.07992 0.55753 0.32197 0.0
H3373 H 0.12446 0.62068 0.32332 0.0
C3374 C 0.10294 0.53596 0.32071 0.0
C3375 C 0.08773 0.58841 0.32305 0.0
C3376 C 0.06408 0.61238 0.32485 0.0
C3377 C 0.13356 0.54443 0.32041 0.0
C3378 C 0.14131 0.57542 0.3212 0.0
C3379 C 0.11837 0.59699 0.32259 0.0
C3380 C 0.17328 0.58562 0.32089 0.0
C3381 C 0.15736 0.52005 0.31941 0.0
C3382 C 0.18632 0.59959 0.32848 0.0
C3383 C 0.21711 0.60704 0.3285 0.0
C3384 C 0.23536 0.60052 0.32095 0.0
C3385 C 0.22191 0.58796 0.31319 0.0
C3386 C 0.19109 0.5806 0.31316 0.0
H3387 H 0.1483 0.49729 0.32115 0.0
H3388 H 0.16524 0.51936 0.31228 0.0
H3389 H 0.17726 0.5248 0.3238 0.0
H3390 H 0.1729 0.60385 0.33449 0.0
H3391 H 0.22686 0.61689 0.33455 0.0
H3392 H 0.58162 0.35457 0.07357 0.0
H3393 H 0.53428 0.32582 0.07417 0.0
H3394 H 0.58483 0.24216 0.07393 0.0
H3395 H 0.63234 0.27064 0.07346 0.0
H3396 H 0.51289 0.28442 0.06161 0.0
H3397 H 0.52709 0.22985 0.0952 0.0
H3398 H 0.55006 0.26145 0.09157 0.0
H3399 H 0.55824 0.22383 0.08758 0.0
C3400 C 0.58275 0.33005 0.07371 0.0
C3401 C 0.61086 0.31494 0.07349 0.0
C3402 C 0.55563 0.31366 0.07405 0.0
C3403 C 0.55603 0.28187 0.07422 0.0
C3404 C 0.584 0.26669 0.074 0.0
H3405 H 0.41557 0.14361 0.07258 0.0
H3406 H 0.46354 0.1715 0.07296 0.0
C3407 C 0.61115 0.28304 0.07368 0.0
C3408 C 0.52712 0.26465 0.07424 0.0
H3409 H 0.4859 0.21269 0.08618 0.0
C3410 C 0.50691 0.26885 0.06701 0.0
C3411 C 0.51944 0.24426 0.08127 0.0
C3412 C 0.53969 0.23971 0.08939 0.0
C3413 C 0.4794 0.25292 0.06654 0.0
C3414 C 0.47167 0.2326 0.07358 0.0
C3415 C 0.49191 0.22828 0.0808 0.0
C3416 C 0.44257 0.21577 0.07358 0.0
C3417 C 0.4591 0.25754 0.05844 0.0
C3418 C 0.4149 0.23141 0.07396 0.0
C3419 C 0.38744 0.21559 0.07374 0.0
C3420 C 0.38711 0.18375 0.07317 0.0
C3421 C 0.41495 0.16812 0.07298 0.0
C3422 C 0.4424 0.184 0.07321 0.0
H3423 H 0.47157 0.26773 0.05265 0.0
H3424 H 0.44898 0.23574 0.0562 0.0
H3425 H 0.44034 0.27312 0.0603 0.0
H3426 H 0.41453 0.25591 0.07443 0.0
H3427 H 0.36649 0.2284 0.07396 0.0
H3428 H 0.90627 0.33862 0.3132 0.0
H3429 H 0.9355 0.29165 0.31401 0.0
H3430 H 0.98951 0.3294 0.33564 0.0
H3431 H 0.96182 0.3773 0.33429 0.0
H3432 H 0.02477 0.30141 0.32552 0.0
H3433 H 0.92859 0.22361 0.33072 0.0
H3434 H 0.92361 0.2436 0.32029 0.0
H3435 H 0.92379 0.26414 0.33087 0.0
C3436 C 0.92431 0.33675 0.31815 0.0
C3437 C 0.93174 0.36143 0.32372 0.0
C3438 C 0.94083 0.30977 0.31868 0.0
C3439 C 0.96423 0.30643 0.32508 0.0
C3440 C 0.97152 0.33119 0.33067 0.0
H3441 H 0.0383 0.12503 0.33452 0.0
H3442 H 0.01071 0.17301 0.33582 0.0
C3443 C 0.95568 0.35855 0.32992 0.0
C3444 C 0.982 0.27771 0.32564 0.0
H3445 H 0.97516 0.20064 0.32573 0.0
C3446 C 0.01383 0.2794 0.3257 0.0
C3447 C 0.968 0.24883 0.32609 0.0
C3448 C 0.93414 0.24498 0.3271 0.0
C3449 C 0.03194 0.25323 0.32598 0.0
C3450 C 0.01793 0.22433 0.32565 0.0
C3451 C 0.9861 0.22265 0.32582 0.0
C3452 C 0.03567 0.19559 0.32512 0.0
C3453 C 0.06584 0.2571 0.32687 0.0
C3454 C 0.05887 0.192 0.31866 0.0
C3455 C 0.07534 0.16498 0.31816 0.0
C3456 C 0.06805 0.1405 0.32382 0.0
C3457 C 0.04432 0.14362 0.33008 0.0
C3458 C 0.02853 0.17102 0.3308 0.0
H3459 H 0.07152 0.2786 0.3304 0.0
H3460 H 0.07632 0.23808 0.33066 0.0
H3461 H 0.07612 0.25824 0.32002 0.0
H3462 H 0.06407 0.20995 0.31392 0.0
H3463 H 0.09323 0.16291 0.31317 0.0
H3464 H 0.08657 0.85226 0.57381 0.0
H3465 H 0.03893 0.82393 0.5742 0.0
H3466 H 0.08873 0.73982 0.57409 0.0
H3467 H 0.1365 0.76785 0.57384 0.0
H3468 H 0.01768 0.78273 0.56154 0.0
H3469 H 0.03003 0.72787 0.59514 0.0
H3470 H 0.0534 0.75932 0.59161 0.0
H3471 H 0.06149 0.72164 0.58765 0.0
C3472 C 0.08746 0.82773 0.57394 0.0
C3473 C 0.11544 0.81236 0.57382 0.0
C3474 C 0.06018 0.81158 0.57416 0.0
C3475 C 0.06028 0.77978 0.57431 0.0
C3476 C 0.08811 0.76435 0.57418 0.0
H3477 H 0.91905 0.64227 0.5722 0.0
H3478 H 0.9672 0.66986 0.57266 0.0
C3479 C 0.11542 0.78046 0.57398 0.0
C3480 C 0.03123 0.76278 0.57421 0.0
H3481 H 0.98924 0.71088 0.58594 0.0
C3482 C 0.01138 0.76714 0.5669 0.0
C3483 C 0.02313 0.74236 0.58119 0.0
C3484 C 0.04297 0.73765 0.58939 0.0
C3485 C 0.98383 0.75132 0.5663 0.0
C3486 C 0.9757 0.73094 0.57329 0.0
C3487 C 0.99557 0.72649 0.58059 0.0
C3488 C 0.94649 0.71428 0.57317 0.0
C3489 C 0.96392 0.75609 0.55812 0.0
C3490 C 0.91891 0.7301 0.57346 0.0
C3491 C 0.89137 0.71445 0.57319 0.0
C3492 C 0.89084 0.68259 0.57268 0.0
C3493 C 0.91858 0.66678 0.57256 0.0
C3494 C 0.94613 0.6825 0.57283 0.0
H3495 H 0.97673 0.76621 0.55239 0.0
H3496 H 0.95374 0.73438 0.55583 0.0
H3497 H 0.94521 0.77181 0.55991 0.0
H3498 H 0.91868 0.7546 0.5739 0.0
H3499 H 0.8705 0.72739 0.57336 0.0
H3500 H 0.39489 0.83145 0.82373 0.0
H3501 H 0.42326 0.7838 0.82426 0.0
H3502 H 0.50738 0.83358 0.8247 0.0
H3503 H 0.47935 0.88126 0.82431 0.0
H3504 H 0.46539 0.7625 0.81189 0.0
H3505 H 0.51814 0.77504 0.84577 0.0
H3506 H 0.48689 0.79837 0.84206 0.0
H3507 H 0.52487 0.80657 0.83836 0.0
C3508 C 0.41942 0.83231 0.82401 0.0
C3509 C 0.4348 0.86026 0.82401 0.0
C3510 C 0.43559 0.80503 0.82431 0.0
C3511 C 0.46741 0.80514 0.82466 0.0
C3512 C 0.48283 0.83295 0.82464 0.0
H3513 H 0.60707 0.66604 0.82268 0.0
H3514 H 0.57865 0.71373 0.82322 0.0
C3515 C 0.46671 0.86022 0.82436 0.0
C3516 C 0.48454 0.77617 0.82465 0.0
H3517 H 0.53659 0.73484 0.83655 0.0
C3518 C 0.48081 0.75635 0.81731 0.0
C3519 C 0.50475 0.76826 0.83172 0.0
C3520 C 0.50876 0.78802 0.83997 0.0
C3521 C 0.49711 0.72908 0.81674 0.0
C3522 C 0.51735 0.7212 0.82379 0.0
C3523 C 0.52111 0.741 0.83114 0.0
C3524 C 0.53454 0.69232 0.82369 0.0
C3525 C 0.49301 0.7092 0.80852 0.0
C3526 C 0.51917 0.66451 0.82394 0.0
C3527 C 0.53528 0.63726 0.82364 0.0
C3528 C 0.56717 0.63723 0.82311 0.0
C3529 C 0.58255 0.66519 0.82305 0.0
C3530 C 0.56636 0.69247 0.82337 0.0
H3531 H 0.48275 0.72184 0.80278 0.0
H3532 H 0.51504 0.69957 0.80628 0.0
H3533 H 0.47769 0.69011 0.81024 0.0
H3534 H 0.49465 0.66389 0.82436 0.0
H3535 H 0.52265 0.61621 0.82375 0.0
H3536 H 0.62784 0.72408 0.44184 0.0
H3537 H 0.57971 0.75155 0.44128 0.0
H3538 H 0.53092 0.66691 0.44192 0.0
H3539 H 0.57885 0.63918 0.44261 0.0
H3540 H 0.53248 0.74826 0.4286 0.0
H3541 H 0.49319 0.71453 0.46288 0.0
H3542 H 0.53191 0.70958 0.4592 0.0
H3543 H 0.50304 0.68345 0.4556 0.0
C3544 C 0.6069 0.71124 0.44187 0.0
C3545 C 0.60727 0.67938 0.44234 0.0
C3546 C 0.57941 0.72701 0.44153 0.0
C3547 C 0.55175 0.7113 0.4417 0.0
C3548 C 0.552 0.67951 0.44197 0.0
H3549 H 0.36352 0.77192 0.44236 0.0
H3550 H 0.40998 0.7417 0.44146 0.0
C3551 C 0.57946 0.6637 0.44232 0.0
C3552 C 0.52269 0.72823 0.44156 0.0
H3553 H 0.45844 0.74192 0.45383 0.0
C3554 C 0.5163 0.74693 0.43412 0.0
C3555 C 0.5016 0.72638 0.44877 0.0
C3556 C 0.50779 0.70763 0.45711 0.0
C3557 C 0.48924 0.76366 0.43364 0.0
C3558 C 0.46827 0.76199 0.44088 0.0
C3559 C 0.47453 0.74307 0.44828 0.0
C3560 C 0.44011 0.78036 0.44104 0.0
C3561 C 0.48313 0.78266 0.42535 0.0
C3562 C 0.44167 0.81211 0.44115 0.0
C3563 C 0.41521 0.82946 0.44167 0.0
C3564 C 0.3866 0.81539 0.44213 0.0
C3565 C 0.38513 0.78353 0.44198 0.0
C3566 C 0.41165 0.76619 0.44148 0.0
H3567 H 0.49705 0.7752 0.41949 0.0
H3568 H 0.45881 0.78167 0.42342 0.0
H3569 H 0.48895 0.80662 0.42683 0.0
H3570 H 0.46343 0.82349 0.441 0.0
H3571 H 0.41725 0.85392 0.4418 0.0
H3572 H 0.48092 0.11601 0.69249 0.0
H3573 H 0.5087 0.16383 0.69173 0.0
H3574 H 0.42445 0.21331 0.69279 0.0
H3575 H 0.39631 0.16556 0.69348 0.0
H3576 H 0.46575 0.23418 0.67938 0.0
H3577 H 0.52089 0.22279 0.71302 0.0
H3578 H 0.5261 0.19094 0.7056 0.0
H3579 H 0.48877 0.20002 0.70967 0.0
C3580 C 0.46821 0.13702 0.69257 0.0
C3581 C 0.43633 0.13688 0.6931 0.0
C3582 C 0.48419 0.16435 0.69217 0.0
C3583 C 0.46866 0.1921 0.69235 0.0
C3584 C 0.43686 0.19211 0.6927 0.0
H3585 H 0.52101 0.38185 0.69128 0.0
H3586 H 0.49366 0.33375 0.69096 0.0
C3587 C 0.42083 0.16478 0.69311 0.0
C3588 C 0.48562 0.22112 0.69211 0.0
H3589 H 0.53719 0.26355 0.7038 0.0
C3590 C 0.4813 0.24069 0.68473 0.0
C3591 C 0.50593 0.22948 0.69909 0.0
C3592 C 0.51059 0.20988 0.70734 0.0
C3593 C 0.49715 0.26823 0.68407 0.0
C3594 C 0.51741 0.27664 0.69107 0.0
C3595 C 0.52173 0.25702 0.69844 0.0
C3596 C 0.53405 0.30587 0.69096 0.0
C3597 C 0.49254 0.28775 0.6758 0.0
C3598 C 0.56587 0.30623 0.69125 0.0
C3599 C 0.58163 0.33373 0.69151 0.0
C3600 C 0.56585 0.36147 0.69153 0.0
C3601 C 0.53394 0.36098 0.69122 0.0
C3602 C 0.51823 0.33347 0.69098 0.0
H3603 H 0.48319 0.2745 0.67004 0.0
H3604 H 0.47616 0.30606 0.67743 0.0
H3605 H 0.51417 0.29842 0.67363 0.0
H3606 H 0.57853 0.28518 0.6913 0.0
H3607 H 0.60618 0.33321 0.69175 0.0
H3608 H 0.91498 0.35643 0.94276 0.0
H3609 H 0.96205 0.32722 0.94211 0.0
H3610 H 0.91072 0.24408 0.94175 0.0
H3611 H 0.86348 0.273 0.94249 0.0
H3612 H 0.95841 0.24448 0.95438 0.0
H3613 H 0.998 0.28125 0.92044 0.0
H3614 H 0.98882 0.31176 0.92801 0.0
H3615 H 0.95942 0.28655 0.92423 0.0
C3616 C 0.91362 0.33193 0.94249 0.0
C3617 C 0.88536 0.3171 0.94266 0.0
C3618 C 0.94059 0.31528 0.94206 0.0
C3619 C 0.93987 0.28349 0.94176 0.0
C3620 C 0.91177 0.2686 0.94194 0.0
H3621 H 0.0799 0.14334 0.94274 0.0
H3622 H 0.03171 0.17078 0.94223 0.0
C3623 C 0.88478 0.28521 0.94235 0.0
C3624 C 0.96845 0.26573 0.94161 0.0
H3625 H 0.03305 0.2534 0.92938 0.0
C3626 C 0.97465 0.24625 0.94889 0.0
C3627 C 0.98961 0.26816 0.93445 0.0
C3628 C 0.98361 0.28784 0.92629 0.0
C3629 C 0.0018 0.22964 0.9493 0.0
C3630 C 0.02304 0.23215 0.94216 0.0
C3631 C 0.01674 0.25151 0.93485 0.0
C3632 C 0.05221 0.21534 0.94222 0.0
C3633 C 0.00789 0.21025 0.95752 0.0
C3634 C 0.07975 0.23124 0.94211 0.0
C3635 C 0.10735 0.21565 0.94233 0.0
C3636 C 0.10798 0.18377 0.94263 0.0
C3637 C 0.0803 0.16788 0.94258 0.0
C3638 C 0.0527 0.18353 0.94234 0.0
H3639 H 0.99322 0.21673 0.96333 0.0
H3640 H 0.00312 0.18621 0.95584 0.0
H3641 H 0.03198 0.21201 0.95965 0.0
H3642 H 0.0799 0.2558 0.94197 0.0
H3643 H 0.12818 0.22866 0.94234 0.0
H3644 H 0.9806 0.61604 0.19152 0.0
H3645 H 0.00956 0.66324 0.19103 0.0
H3646 H 0.92647 0.71464 0.19206 0.0
H3647 H 0.89718 0.66758 0.19247 0.0
H3648 H 0.96889 0.73517 0.17888 0.0
H3649 H 0.022 0.72069 0.21272 0.0
H3650 H 0.02674 0.68922 0.20513 0.0
H3651 H 0.98949 0.69891 0.20913 0.0
C3652 C 0.96841 0.63735 0.19163 0.0
C3653 C 0.93652 0.63796 0.19209 0.0
C3654 C 0.98504 0.66431 0.1914 0.0
C3655 C 0.97017 0.6924 0.19165 0.0
C3656 C 0.93837 0.69316 0.19191 0.0
H3657 H 0.0234 0.88141 0.19206 0.0
H3658 H 0.99623 0.83327 0.19134 0.0
C3659 C 0.92169 0.66622 0.19216 0.0
C3660 C 0.98775 0.72104 0.19164 0.0
H3661 H 0.03894 0.7621 0.20391 0.0
C3662 C 0.98417 0.74113 0.18436 0.0
C3663 C 0.00772 0.72865 0.19878 0.0
C3664 C 0.01162 0.70841 0.20693 0.0
C3665 C 1.00032 0.76854 0.18397 0.0
C3666 C 0.0201 0.77629 0.19115 0.0
C3667 C 0.02381 0.75608 0.1984 0.0
C3668 C 0.03671 0.80552 0.19138 0.0
C3669 C 0.99644 0.78869 0.1758 0.0
C3670 C 0.0685 0.80592 0.19185 0.0
C3671 C 0.08416 0.83345 0.19234 0.0
C3672 C 0.06829 0.86113 0.19242 0.0
C3673 C 0.0364 0.86058 0.19196 0.0
C3674 C 0.02079 0.83306 0.19149 0.0
H3675 H 0.98758 0.77588 0.16989 0.0
H3676 H 0.97994 0.80689 0.17742 0.0
H3677 H 0.01825 0.79949 0.17387 0.0
H3678 H 0.08121 0.7849 0.19184 0.0
H3679 H 0.1087 0.83299 0.1927 0.0
H3680 H 0.41003 0.65951 0.95341 0.0
H3681 H 0.45659 0.68954 0.95312 0.0
H3682 H 0.4195 0.74435 0.93157 0.0
H3683 H 0.37195 0.71583 0.93242 0.0
H3684 H 0.49766 0.69698 0.94184 0.0
H3685 H 0.44786 0.81061 0.94692 0.0
H3686 H 0.42559 0.77658 0.94792 0.0
H3687 H 0.43267 0.79318 0.93696 0.0
C3688 C 0.41181 0.67817 0.94868 0.0
C3689 C 0.38741 0.68559 0.943 0.0
C3690 C 0.43844 0.69532 0.94849 0.0
C3691 C 0.44153 0.7198 0.94246 0.0
C3692 C 0.41741 0.72648 0.93655 0.0
H3693 H 0.62363 0.78849 0.93061 0.0
H3694 H 0.57498 0.76187 0.93019 0.0
C3695 C 0.39035 0.70996 0.93696 0.0
C3696 C 0.47036 0.73749 0.94221 0.0
H3697 H 0.49936 0.80928 0.94196 0.0
C3698 C 0.49795 0.72156 0.94196 0.0
C3699 C 0.47103 0.76961 0.94252 0.0
C3700 C 0.4427 0.78843 0.9437 0.0
C3701 C 0.52599 0.73662 0.94203 0.0
C3702 C 0.52663 0.76874 0.94177 0.0
C3703 C 0.49904 0.7847 0.94203 0.0
C3704 C 0.55554 0.78626 0.94154 0.0
C3705 C 0.55447 0.71773 0.94274 0.0
C3706 C 0.56029 0.81031 0.94764 0.0
C3707 C 0.58759 0.82646 0.94759 0.0
C3708 C 0.61093 0.8184 0.94159 0.0
C3709 C 0.60609 0.79479 0.93539 0.0
C3710 C 0.57841 0.77934 0.93523 0.0
H3711 H 0.54984 0.69552 0.946 0.0
H3712 H 0.56331 0.71306 0.93585 0.0
H3713 H 0.5723 0.72949 0.94672 0.0
H3714 H 0.54307 0.8163 0.95256 0.0
H3715 H 0.59083 0.84457 0.95245 0.0
H3716 H 0.10737 0.66885 0.69297 0.0
H3717 H 0.07935 0.71676 0.69242 0.0
H3718 H 0.99498 0.6676 0.69114 0.0
H3719 H 0.02258 0.6197 0.69177 0.0
H3720 H 0.03781 0.73841 0.6791 0.0
H3721 H 0.98307 0.72541 0.71273 0.0
H3722 H 0.0152 0.70285 0.70926 0.0
H3723 H 0.97782 0.69381 0.70522 0.0
C3724 C 0.08285 0.66819 0.69257 0.0
C3725 C 0.06726 0.64036 0.69248 0.0
C3726 C 0.06689 0.69561 0.69225 0.0
C3727 C 0.03508 0.69571 0.69188 0.0
C3728 C 0.01949 0.66802 0.6916 0.0
H3729 H 0.8959 0.83503 0.69164 0.0
H3730 H 0.92433 0.78744 0.6911 0.0
C3731 C 0.03538 0.64064 0.69191 0.0
C3732 C 0.01811 0.72473 0.69178 0.0
H3733 H 0.96602 0.76616 0.70361 0.0
C3734 C 0.02221 0.74459 0.68447 0.0
C3735 C 0.99773 0.73264 0.69879 0.0
C3736 C 0.99331 0.71273 0.70699 0.0
C3737 C 0.00601 0.77195 0.68389 0.0
C3738 C 0.9856 0.77987 0.6909 0.0
C3739 C 0.98157 0.76 0.69822 0.0
C3740 C 0.96847 0.80883 0.69086 0.0
C3741 C 0.01036 0.7918 0.67567 0.0
C3742 C 0.98386 0.83666 0.69097 0.0
C3743 C 0.9677 0.86391 0.69126 0.0
C3744 C 0.93578 0.8639 0.69153 0.0
C3745 C 0.92044 0.83593 0.69142 0.0
C3746 C 0.93665 0.80869 0.69112 0.0
H3747 H 0.02 0.77889 0.66989 0.0
H3748 H 0.98858 0.80216 0.67352 0.0
H3749 H 0.02639 0.81034 0.67736 0.0
H3750 H 0.00841 0.83732 0.69098 0.0
H3751 H 0.9803 0.88497 0.69139 0.0
H3752 H 0.92199 0.14229 0.44299 0.0
H3753 H 0.96936 0.17114 0.44251 0.0
H3754 H 0.91862 0.25446 0.44078 0.0
H3755 H 0.87116 0.22598 0.44134 0.0
H3756 H 0.99111 0.21218 0.42923 0.0
H3757 H 0.97509 0.26832 0.46254 0.0
H3758 H 0.95313 0.23581 0.45906 0.0
H3759 H 0.94393 0.27287 0.45482 0.0
C3760 C 0.92085 0.16676 0.44251 0.0
C3761 C 0.89269 0.1818 0.44228 0.0
C3762 C 0.94797 0.18319 0.44222 0.0
C3763 C 0.94748 0.21494 0.44176 0.0
C3764 C 0.91949 0.23 0.44132 0.0
H3765 H 0.08437 0.35601 0.44166 0.0
H3766 H 0.03747 0.32659 0.44096 0.0
C3767 C 0.89237 0.21363 0.4416 0.0
C3768 C 0.97625 0.23236 0.44173 0.0
H3769 H 0.0163 0.28536 0.4536 0.0
C3770 C 0.99672 0.2281 0.43456 0.0
C3771 C 0.98346 0.25311 0.44871 0.0
C3772 C 0.96291 0.25769 0.45677 0.0
C3773 C 0.02399 0.24452 0.43409 0.0
C3774 C 0.03116 0.26532 0.44107 0.0
C3775 C 0.0107 0.26949 0.44824 0.0
C3776 C 0.05982 0.28294 0.4411 0.0
C3777 C 0.04452 0.23996 0.42604 0.0
C3778 C 0.08799 0.26817 0.44146 0.0
C3779 C 0.11489 0.28491 0.44185 0.0
C3780 C 0.11415 0.3168 0.44196 0.0
C3781 C 0.08584 0.33151 0.44158 0.0
C3782 C 0.05898 0.31474 0.44119 0.0
H3783 H 0.03222 0.2297 0.42023 0.0
H3784 H 0.05464 0.26177 0.42381 0.0
H3785 H 0.06325 0.22442 0.42794 0.0
H3786 H 0.08915 0.24365 0.44161 0.0
H3787 H 0.13624 0.27281 0.44219 0.0
H3788 H 0.60603 0.16717 0.1925 0.0
H3789 H 0.57648 0.21409 0.19211 0.0
H3790 H 0.49365 0.16227 0.19126 0.0
H3791 H 0.52287 0.11522 0.19173 0.0
H3792 H 0.53397 0.23434 0.179 0.0
H3793 H 0.48092 0.21989 0.21285 0.0
H3794 H 0.51346 0.19814 0.20926 0.0
H3795 H 0.47621 0.18834 0.20529 0.0
C3796 C 0.58152 0.16569 0.19223 0.0
C3797 C 0.56685 0.13736 0.19221 0.0
C3798 C 0.56469 0.19255 0.192 0.0
C3799 C 0.53289 0.19164 0.1918 0.0
C3800 C 0.51817 0.16347 0.19159 0.0
H3801 H 0.39342 0.3314 0.19267 0.0
H3802 H 0.42125 0.28348 0.19184 0.0
C3803 C 0.53495 0.13659 0.19181 0.0
C3804 C 0.51514 0.22019 0.19176 0.0
H3805 H 0.46362 0.26105 0.20399 0.0
C3806 C 0.51862 0.24025 0.18447 0.0
C3807 C 0.49509 0.22775 0.19889 0.0
C3808 C 0.4913 0.20757 0.20706 0.0
C3809 C 0.5023 0.26756 0.18405 0.0
C3810 C 0.48242 0.27524 0.19122 0.0
C3811 C 0.47882 0.25508 0.19849 0.0
C3812 C 0.46561 0.30437 0.19142 0.0
C3813 C 0.50609 0.28767 0.17587 0.0
C3814 C 0.48134 0.33201 0.19154 0.0
C3815 C 0.46554 0.35943 0.19199 0.0
C3816 C 0.43364 0.35979 0.19241 0.0
C3817 C 0.41796 0.33201 0.19233 0.0
C3818 C 0.43381 0.30458 0.19187 0.0
H3819 H 0.51511 0.27489 0.16998 0.0
H3820 H 0.48421 0.29828 0.17392 0.0
H3821 H 0.52242 0.30602 0.17749 0.0
H3822 H 0.5059 0.33237 0.19141 0.0
H3823 H 0.4784 0.38034 0.1921 0.0
H3824 H 0.58 0.1428 0.5718 0.0
H3825 H 0.5319 0.17057 0.57212 0.0
H3826 H 0.58064 0.2551 0.57368 0.0
H3827 H 0.62874 0.22773 0.57327 0.0
H3828 H 0.50927 0.2114 0.58534 0.0
H3829 H 0.5237 0.2674 0.55197 0.0
H3830 H 0.54643 0.23543 0.55546 0.0
H3831 H 0.5549 0.27277 0.55962 0.0
C3832 C 0.58053 0.1673 0.5722 0.0
C3833 C 0.60831 0.18301 0.57245 0.0
C3834 C 0.553 0.18312 0.57239 0.0
C3835 C 0.55272 0.2149 0.57278 0.0
C3836 C 0.58034 0.2306 0.5732 0.0
H3837 H 0.41458 0.3546 0.5734 0.0
H3838 H 0.46169 0.32539 0.57381 0.0
C3839 C 0.60785 0.21486 0.57301 0.0
C3840 C 0.52358 0.2317 0.5728 0.0
H3841 H 0.48264 0.28429 0.56104 0.0
C3842 C 0.50332 0.22722 0.58001 0.0
C3843 C 0.51593 0.25234 0.56584 0.0
C3844 C 0.53622 0.25715 0.55774 0.0
C3845 C 0.4759 0.24337 0.58055 0.0
C3846 C 0.46833 0.26413 0.57361 0.0
C3847 C 0.48853 0.26846 0.56637 0.0
C3848 C 0.43957 0.28163 0.57368 0.0
C3849 C 0.45565 0.23864 0.58866 0.0
C3850 C 0.41147 0.26672 0.57342 0.0
C3851 C 0.38445 0.28334 0.5732 0.0
C3852 C 0.38501 0.31525 0.57318 0.0
C3853 C 0.41325 0.33008 0.57343 0.0
C3854 C 0.44023 0.31343 0.57365 0.0
H3855 H 0.46819 0.22837 0.59442 0.0
H3856 H 0.44551 0.26038 0.59094 0.0
H3857 H 0.43693 0.22304 0.58679 0.0
H3858 H 0.41042 0.24221 0.57323 0.0
H3859 H 0.36316 0.27113 0.57295 0.0
H3860 H 0.60789 0.83355 0.32313 0.0
H3861 H 0.57851 0.78662 0.32354 0.0
H3862 H 0.49542 0.83816 0.32347 0.0
H3863 H 0.52455 0.88531 0.3232 0.0
H3864 H 0.49531 0.79071 0.33597 0.0
H3865 H 0.53229 0.75085 0.30207 0.0
H3866 H 0.56298 0.75945 0.30964 0.0
H3867 H 0.53815 0.78926 0.3059 0.0
C3868 C 0.58337 0.83498 0.32321 0.0
C3869 C 0.56861 0.86327 0.32307 0.0
C3870 C 0.56661 0.80809 0.32339 0.0
C3871 C 0.53479 0.8089 0.32336 0.0
C3872 C 0.51997 0.83704 0.32344 0.0
H3873 H 0.39325 0.67073 0.32256 0.0
H3874 H 0.42138 0.71851 0.32307 0.0
C3875 C 0.53669 0.86397 0.32327 0.0
C3876 C 0.51695 0.78039 0.32327 0.0
H3877 H 0.50438 0.71596 0.31101 0.0
C3878 C 0.49715 0.77441 0.33049 0.0
C3879 C 0.51936 0.75922 0.3161 0.0
C3880 C 0.53911 0.76506 0.30794 0.0
C3881 C 0.48021 0.74746 0.33085 0.0
C3882 C 0.48284 0.7262 0.32373 0.0
C3883 C 0.5025 0.73227 0.31648 0.0
C3884 C 0.46561 0.69734 0.32367 0.0
C3885 C 0.46018 0.74163 0.33895 0.0
C3886 C 0.48116 0.66961 0.32369 0.0
C3887 C 0.46521 0.64228 0.32336 0.0
C3888 C 0.43331 0.6421 0.32294 0.0
C3889 C 0.41778 0.66998 0.32292 0.0
C3890 C 0.4338 0.69734 0.32326 0.0
H3891 H 0.46614 0.75652 0.34475 0.0
H3892 H 0.43624 0.7462 0.33709 0.0
H3893 H 0.46187 0.71763 0.34116 0.0
H3894 H 0.50572 0.66913 0.32396 0.0
H3895 H 0.47795 0.62129 0.32337 0.0
H3896 H 0.08252 0.64315 0.07349 0.0
H3897 H 0.03458 0.6712 0.07376 0.0
H3898 H 0.08381 0.75552 0.07491 0.0
H3899 H 0.13176 0.72786 0.07456 0.0
H3900 H 0.01224 0.71343 0.08681 0.0
H3901 H 0.02711 0.76617 0.05297 0.0
H3902 H 0.04944 0.73423 0.0567 0.0
H3903 H 0.05836 0.77179 0.06059 0.0
C3904 C 0.08319 0.66766 0.07381 0.0
C3905 C 0.11105 0.68323 0.07394 0.0
C3906 C 0.05576 0.68364 0.07397 0.0
C3907 C 0.05568 0.71543 0.07421 0.0
C3908 C 0.08338 0.731 0.07455 0.0
H3909 H 0.91764 0.85529 0.07318 0.0
H3910 H 0.96478 0.82626 0.07409 0.0
C3911 C 0.11078 0.7151 0.07439 0.0
C3912 C 0.02665 0.7324 0.07409 0.0
H3913 H 0.98593 0.78384 0.06183 0.0
C3914 C 0.00637 0.72873 0.08134 0.0
C3915 C 0.01912 0.75234 0.06694 0.0
C3916 C 0.03948 0.75625 0.05881 0.0
C3917 C 0.979 0.74501 0.08171 0.0
C3918 C 0.97152 0.76503 0.07457 0.0
C3919 C 0.99177 0.76857 0.06731 0.0
C3920 C 0.94274 0.78248 0.07444 0.0
C3921 C 0.9587 0.74117 0.08986 0.0
C3922 C 0.91467 0.76749 0.07429 0.0
C3923 C 0.88764 0.784 0.0738 0.0
C3924 C 0.88815 0.81587 0.07336 0.0
C3925 C 0.91635 0.8308 0.07352 0.0
C3926 C 0.94335 0.81425 0.07403 0.0
H3927 H 0.97123 0.73164 0.09573 0.0
H3928 H 0.94845 0.76313 0.0919 0.0
H3929 H 0.94006 0.72529 0.08814 0.0
H3930 H 0.91367 0.74297 0.0744 0.0
H3931 H 0.86638 0.77172 0.07363 0.0
H3932 H 0.02061 0.38437 0.82435 0.0
H3933 H 0.99232 0.33673 0.82486 0.0
H3934 H 0.07618 0.28657 0.82382 0.0
H3935 H 0.10474 0.334 0.82339 0.0
H3936 H 0.9931 0.2902 0.81182 0.0
H3937 H 0.03137 0.24822 0.84535 0.0
H3938 H 0.03597 0.28717 0.84186 0.0
H3939 H 0.06153 0.25852 0.83778 0.0
C3940 C 0.03311 0.36323 0.8243 0.0
C3941 C 0.065 0.36307 0.82385 0.0
C3942 C 0.01687 0.33603 0.82458 0.0
C3943 C 0.03216 0.30815 0.8245 0.0
C3944 C 0.06395 0.30785 0.82407 0.0
H3945 H 0.97842 0.11946 0.82271 0.0
H3946 H 0.00562 0.1677 0.82329 0.0
C3947 C 0.08023 0.33503 0.82377 0.0
C3948 C 0.01479 0.27937 0.82446 0.0
H3949 H 0.00356 0.2137 0.83623 0.0
C3950 C 0.99521 0.27354 0.81718 0.0
C3951 C 0.01771 0.25766 0.83145 0.0
C3952 C 0.03757 0.26322 0.8396 0.0
C3953 C 0.97892 0.24627 0.81659 0.0
C3954 C 0.98185 0.22452 0.82358 0.0
C3955 C 0.00136 0.23041 0.83088 0.0
C3956 C 0.96511 0.19536 0.82338 0.0
C3957 C 0.95935 0.24065 0.80838 0.0
C3958 C 0.93328 0.1949 0.82339 0.0
C3959 C 0.91762 0.16737 0.82303 0.0
C3960 C 0.93351 0.13971 0.82273 0.0
C3961 C 0.96543 0.14029 0.82291 0.0
C3962 C 0.98105 0.16784 0.82325 0.0
H3963 H 0.96563 0.25572 0.80266 0.0
H3964 H 0.96117 0.21673 0.8061 0.0
H3965 H 0.9353 0.24519 0.81014 0.0
H3966 H 0.92053 0.21586 0.82368 0.0
H3967 H 0.89306 0.1678 0.82297 0.0
loop_
_geom_bond_atom_site_label_1
_geom_bond_atom_site_label_2
_geom_bond_distance
_geom_bond_site_symmetry_2
_ccdc_geom_bond_type
Co0 O3 1.970 . S
Co0 N17 1.989 . S
Co0 O25 1.967 . S
Co0 O32 1.920 . S
Co1 O4 1.966 . S
Co1 N10 2.022 . S
Co1 N18 1.993 . S
Co1 O26 1.941 . S
C2 O3 1.258 . S
C2 O4 1.263 . S
O3 Co0 1.970 . S
O3 C2 1.258 . S
O4 Co1 1.966 . S
O4 C2 1.263 . S
C5 O6 1.235 . S
C5 O32 1.289 . S
O6 C5 1.235 . S
C7 C9 1.400 . S
C7 N10 1.351 . S
C7 C12 1.501 . S
C8 C9 1.387 . S
C8 N11 1.341 . S
C9 C7 1.400 . S
C9 C8 1.387 . S
N10 Co1 2.022 . S
N10 C7 1.351 . S
N10 N11 1.365 . S
N11 C8 1.341 . S
N11 N10 1.365 . S
N11 H31 0.862 . S
C12 C7 1.501 . S
C12 H13 0.961 . S
C12 H14 0.961 . S
C12 H15 0.960 . S
H13 C12 0.961 . S
H14 C12 0.961 . S
H15 C12 0.960 . S
C16 N17 1.342 . S
C16 C20 1.401 . S
C16 C21 1.499 . S
N17 Co0 1.989 . S
N17 C16 1.342 . S
N17 N18 1.388 . S
N18 Co1 1.993 . S
N18 N17 1.388 . S
N18 C19 1.346 . S
C19 N18 1.346 . S
C19 C20 1.396 . S
C19 C29 1.510 . S
C20 C16 1.401 . S
C20 C19 1.396 . S
C21 C16 1.499 . S
C21 H22 0.959 . S
C21 H23 0.960 . S
C21 H24 0.961 . S
H22 C21 0.959 . S
H23 C21 0.960 . S
H24 C21 0.961 . S
O25 Co0 1.967 . S
O25 C33 1.258 . S
O26 Co1 1.941 . S
O26 C33 1.266 . S
H27 C29 0.959 . S
H28 C29 0.961 . S
C29 C19 1.510 . S
C29 H27 0.959 . S
C29 H28 0.961 . S
C29 H30 0.960 . S
H30 C29 0.960 . S
H31 N11 0.862 . S
O32 Co0 1.920 . S
O32 C5 1.289 . S
C33 O25 1.258 . S
C33 O26 1.266 . S
Co34 O37 1.970 . S
Co34 N51 1.989 1_545 S
Co34 O59 1.967 . S
Co34 O66 1.920 1_455 S
Co35 O38 1.966 . S
Co35 N44 2.022 . S
Co35 N52 1.993 . S
Co35 O60 1.941 . S
C36 O37 1.258 . S
C36 O38 1.263 . S
O37 Co34 1.970 . S
O37 C36 1.258 . S
O38 Co35 1.966 . S
O38 C36 1.263 . S
C39 O40 1.235 . S
C39 O66 1.289 1_565 S
O40 C39 1.235 . S
C41 C43 1.400 . S
C41 N44 1.351 . S
C41 C46 1.501 . S
C42 C43 1.387 . S
C42 N45 1.341 . S
C43 C41 1.400 . S
C43 C42 1.387 . S
N44 Co35 2.022 . S
N44 C41 1.351 . S
N44 N45 1.365 . S
N45 C42 1.341 . S
N45 N44 1.365 . S
N45 H65 0.862 . S
C46 C41 1.501 . S
C46 H47 0.961 . S
C46 H48 0.961 1_545 S
C46 H49 0.960 . S
H47 C46 0.961 . S
H48 C46 0.961 1_565 S
H49 C46 0.960 . S
C50 N51 1.342 . S
C50 C54 1.401 . S
C50 C55 1.499 . S
N51 Co34 1.989 1_565 S
N51 C50 1.342 . S
N51 N52 1.388 1_565 S
N52 Co35 1.993 . S
N52 N51 1.388 1_545 S
N52 C53 1.346 1_545 S
C53 N52 1.346 1_565 S
C53 C54 1.396 . S
C53 C63 1.510 . S
C54 C50 1.401 . S
C54 C53 1.396 . S
C55 C50 1.499 . S
C55 H56 0.959 . S
C55 H57 0.960 . S
C55 H58 0.961 . S
H56 C55 0.959 . S
H57 C55 0.960 . S
H58 C55 0.961 . S
O59 Co34 1.967 . S
O59 C67 1.258 . S
O60 Co35 1.941 . S
O60 C67 1.266 . S
H61 C63 0.959 . S
H62 C63 0.961 . S
C63 C53 1.510 . S
C63 H61 0.959 . S
C63 H62 0.961 . S
C63 H64 0.960 . S
H64 C63 0.960 . S
H65 N45 0.862 . S
O66 Co34 1.920 1_655 S
O66 C39 1.289 1_545 S
C67 O59 1.258 . S
C67 O60 1.266 . S
Co68 O71 1.970 . S
Co68 N85 1.989 . S
Co68 O93 1.967 . S
Co68 O100 1.920 . S
Co69 O72 1.966 . S
Co69 N78 2.022 . S
Co69 N86 1.993 . S
Co69 O94 1.941 . S
C70 O71 1.258 . S
C70 O72 1.263 . S
O71 Co68 1.970 . S
O71 C70 1.258 . S
O72 Co69 1.966 . S
O72 C70 1.263 . S
C73 O74 1.235 . S
C73 O100 1.289 . S
O74 C73 1.235 . S
C75 C77 1.400 . S
C75 N78 1.351 . S
C75 C80 1.501 . S
C76 C77 1.387 . S
C76 N79 1.341 . S
C77 C75 1.400 . S
C77 C76 1.387 . S
N78 Co69 2.022 . S
N78 C75 1.351 . S
N78 N79 1.365 . S
N79 C76 1.341 . S
N79 N78 1.365 . S
N79 H99 0.862 . S
C80 C75 1.501 . S
C80 H81 0.961 . S
C80 H82 0.961 . S
C80 H83 0.960 . S
H81 C80 0.961 . S
H82 C80 0.961 . S
H83 C80 0.960 . S
C84 N85 1.342 . S
C84 C88 1.401 . S
C84 C89 1.499 . S
N85 Co68 1.989 . S
N85 C84 1.342 . S
N85 N86 1.388 . S
N86 Co69 1.993 . S
N86 N85 1.388 . S
N86 C87 1.346 . S
C87 N86 1.346 . S
C87 C88 1.396 . S
C87 C97 1.510 . S
C88 C84 1.401 . S
C88 C87 1.396 . S
C89 C84 1.499 . S
C89 H90 0.959 . S
C89 H91 0.960 . S
C89 H92 0.961 . S
H90 C89 0.959 . S
H91 C89 0.960 . S
H92 C89 0.961 . S
O93 Co68 1.967 . S
O93 C101 1.258 . S
O94 Co69 1.941 . S
O94 C101 1.266 . S
H95 C97 0.959 . S
H96 C97 0.961 . S
C97 C87 1.510 . S
C97 H95 0.959 . S
C97 H96 0.961 . S
C97 H98 0.960 . S
H98 C97 0.960 . S
H99 N79 0.862 . S
O100 Co68 1.920 . S
O100 C73 1.289 . S
C101 O93 1.258 . S
C101 O94 1.266 . S
Co102 O105 1.970 . S
Co102 N119 1.989 1_565 S
Co102 O127 1.967 . S
Co102 O134 1.920 . S
Co103 O106 1.966 . S
Co103 N112 2.022 . S
Co103 N120 1.993 . S
Co103 O128 1.941 . S
C104 O105 1.258 . S
C104 O106 1.263 . S
O105 Co102 1.970 . S
O105 C104 1.258 . S
O106 Co103 1.966 . S
O106 C104 1.263 . S
C107 O108 1.235 . S
C107 O134 1.289 1_545 S
O108 C107 1.235 . S
C109 C111 1.400 . S
C109 N112 1.351 . S
C109 C114 1.501 . S
C110 C111 1.387 . S
C110 N113 1.341 . S
C111 C109 1.400 . S
C111 C110 1.387 . S
N112 Co103 2.022 . S
N112 C109 1.351 . S
N112 N113 1.365 . S
N113 C110 1.341 . S
N113 N112 1.365 . S
N113 H133 0.862 . S
C114 C109 1.501 . S
C114 H115 0.961 . S
C114 H116 0.961 1_565 S
C114 H117 0.960 . S
H115 C114 0.961 . S
H116 C114 0.961 1_545 S
H117 C114 0.960 . S
C118 N119 1.342 . S
C118 C122 1.401 . S
C118 C123 1.499 . S
N119 Co102 1.989 1_545 S
N119 C118 1.342 . S
N119 N120 1.388 1_545 S
N120 Co103 1.993 . S
N120 N119 1.388 1_565 S
N120 C121 1.346 1_565 S
C121 N120 1.346 1_545 S
C121 C122 1.396 . S
C121 C131 1.510 . S
C122 C118 1.401 . S
C122 C121 1.396 . S
C123 C118 1.499 . S
C123 H124 0.959 . S
C123 H125 0.960 . S
C123 H126 0.961 . S
H124 C123 0.959 . S
H125 C123 0.960 . S
H126 C123 0.961 . S
O127 Co102 1.967 . S
O127 C135 1.258 . S
O128 Co103 1.941 . S
O128 C135 1.266 . S
H129 C131 0.959 . S
H130 C131 0.961 . S
C131 C121 1.510 . S
C131 H129 0.959 . S
C131 H130 0.961 . S
C131 H132 0.960 . S
H132 C131 0.960 . S
H133 N113 0.862 . S
O134 Co102 1.920 . S
O134 C107 1.289 1_565 S
C135 O127 1.258 . S
C135 O128 1.266 . S
Co136 O139 1.970 . S
Co136 N153 1.989 . S
Co136 O161 1.967 . S
Co136 O168 1.920 . S
Co137 O140 1.966 . S
Co137 N146 2.022 . S
Co137 N154 1.993 . S
Co137 O162 1.941 . S
C138 O139 1.258 . S
C138 O140 1.263 . S
O139 Co136 1.970 . S
O139 C138 1.258 . S
O140 Co137 1.966 . S
O140 C138 1.263 . S
C141 O142 1.235 . S
C141 O168 1.289 . S
O142 C141 1.235 . S
C143 C145 1.400 . S
C143 N146 1.351 . S
C143 C148 1.501 . S
C144 C145 1.387 . S
C144 N147 1.341 . S
C145 C143 1.400 . S
C145 C144 1.387 . S
N146 Co137 2.022 . S
N146 C143 1.351 . S
N146 N147 1.365 . S
N147 C144 1.341 . S
N147 N146 1.365 . S
N147 H167 0.862 . S
C148 C143 1.501 . S
C148 H149 0.961 . S
C148 H150 0.961 . S
C148 H151 0.960 . S
H149 C148 0.961 . S
H150 C148 0.961 . S
H151 C148 0.960 . S
C152 N153 1.342 . S
C152 C156 1.401 . S
C152 C157 1.499 . S
N153 Co136 1.989 . S
N153 C152 1.342 . S
N153 N154 1.388 . S
N154 Co137 1.993 . S
N154 N153 1.388 . S
N154 C155 1.346 . S
C155 N154 1.346 . S
C155 C156 1.396 . S
C155 C165 1.510 . S
C156 C152 1.401 . S
C156 C155 1.396 . S
C157 C152 1.499 . S
C157 H158 0.959 . S
C157 H159 0.960 . S
C157 H160 0.961 . S
H158 C157 0.959 . S
H159 C157 0.960 . S
H160 C157 0.961 . S
O161 Co136 1.967 . S
O161 C169 1.258 . S
O162 Co137 1.941 . S
O162 C169 1.266 . S
H163 C165 0.959 . S
H164 C165 0.961 . S
C165 C155 1.510 . S
C165 H163 0.959 . S
C165 H164 0.961 . S
C165 H166 0.960 . S
H166 C165 0.960 . S
H167 N147 0.862 . S
O168 Co136 1.920 . S
O168 C141 1.289 . S
C169 O161 1.258 . S
C169 O162 1.266 . S
Co170 O173 1.970 . S
Co170 N187 1.989 1_545 S
Co170 O195 1.967 . S
Co170 O202 1.920 . S
Co171 O174 1.966 . S
Co171 N180 2.022 . S
Co171 N188 1.993 . S
Co171 O196 1.941 . S
C172 O173 1.258 . S
C172 O174 1.263 . S
O173 Co170 1.970 . S
O173 C172 1.258 . S
O174 Co171 1.966 . S
O174 C172 1.263 . S
C175 O176 1.235 . S
C175 O202 1.289 1_565 S
O176 C175 1.235 . S
C177 C179 1.400 . S
C177 N180 1.351 . S
C177 C182 1.501 . S
C178 C179 1.387 . S
C178 N181 1.341 . S
C179 C177 1.400 . S
C179 C178 1.387 . S
N180 Co171 2.022 . S
N180 C177 1.351 . S
N180 N181 1.365 . S
N181 C178 1.341 . S
N181 N180 1.365 . S
N181 H201 0.862 . S
C182 C177 1.501 . S
C182 H183 0.961 . S
C182 H184 0.961 1_545 S
C182 H185 0.960 . S
H183 C182 0.961 . S
H184 C182 0.961 1_565 S
H185 C182 0.960 . S
C186 N187 1.342 . S
C186 C190 1.401 . S
C186 C191 1.499 . S
N187 Co170 1.989 1_565 S
N187 C186 1.342 . S
N187 N188 1.388 1_565 S
N188 Co171 1.993 . S
N188 N187 1.388 1_545 S
N188 C189 1.346 1_545 S
C189 N188 1.346 1_565 S
C189 C190 1.396 . S
C189 C199 1.510 . S
C190 C186 1.401 . S
C190 C189 1.396 . S
C191 C186 1.499 . S
C191 H192 0.959 . S
C191 H193 0.960 . S
C191 H194 0.961 . S
H192 C191 0.959 . S
H193 C191 0.960 . S
H194 C191 0.961 . S
O195 Co170 1.967 . S
O195 C203 1.258 . S
O196 Co171 1.941 . S
O196 C203 1.266 . S
H197 C199 0.959 . S
H198 C199 0.961 . S
C199 C189 1.510 . S
C199 H197 0.959 . S
C199 H198 0.961 . S
C199 H200 0.960 . S
H200 C199 0.960 . S
H201 N181 0.862 . S
O202 Co170 1.920 . S
O202 C175 1.289 1_545 S
C203 O195 1.258 . S
C203 O196 1.266 . S
Co204 O207 1.970 . S
Co204 N221 1.989 . S
Co204 O229 1.967 . S
Co204 O236 1.920 . S
Co205 O208 1.966 . S
Co205 N214 2.022 . S
Co205 N222 1.993 . S
Co205 O230 1.941 . S
C206 O207 1.258 . S
C206 O208 1.263 . S
O207 Co204 1.970 . S
O207 C206 1.258 . S
O208 Co205 1.966 . S
O208 C206 1.263 . S
C209 O210 1.235 . S
C209 O236 1.289 . S
O210 C209 1.235 . S
C211 C213 1.400 . S
C211 N214 1.351 . S
C211 C216 1.501 . S
C212 C213 1.387 . S
C212 N215 1.341 . S
C213 C211 1.400 . S
C213 C212 1.387 . S
N214 Co205 2.022 . S
N214 C211 1.351 . S
N214 N215 1.365 . S
N215 C212 1.341 . S
N215 N214 1.365 . S
N215 H235 0.862 . S
C216 C211 1.501 . S
C216 H217 0.961 . S
C216 H218 0.961 . S
C216 H219 0.960 . S
H217 C216 0.961 . S
H218 C216 0.961 . S
H219 C216 0.960 . S
C220 N221 1.342 . S
C220 C224 1.401 . S
C220 C225 1.499 . S
N221 Co204 1.989 . S
N221 C220 1.342 . S
N221 N222 1.388 . S
N222 Co205 1.993 . S
N222 N221 1.388 . S
N222 C223 1.346 . S
C223 N222 1.346 . S
C223 C224 1.396 . S
C223 C233 1.510 . S
C224 C220 1.401 . S
C224 C223 1.396 . S
C225 C220 1.499 . S
C225 H226 0.959 . S
C225 H227 0.960 . S
C225 H228 0.961 . S
H226 C225 0.959 . S
H227 C225 0.960 . S
H228 C225 0.961 . S
O229 Co204 1.967 . S
O229 C237 1.258 . S
O230 Co205 1.941 . S
O230 C237 1.266 . S
H231 C233 0.959 . S
H232 C233 0.961 . S
C233 C223 1.510 . S
C233 H231 0.959 . S
C233 H232 0.961 . S
C233 H234 0.960 . S
H234 C233 0.960 . S
H235 N215 0.862 . S
O236 Co204 1.920 . S
O236 C209 1.289 . S
C237 O229 1.258 . S
C237 O230 1.266 . S
Co238 O241 1.970 . S
Co238 N255 1.989 1_565 S
Co238 O263 1.967 . S
Co238 O270 1.920 1_455 S
Co239 O242 1.966 . S
Co239 N248 2.022 . S
Co239 N256 1.993 . S
Co239 O264 1.941 . S
C240 O241 1.258 . S
C240 O242 1.263 . S
O241 Co238 1.970 . S
O241 C240 1.258 . S
O242 Co239 1.966 . S
O242 C240 1.263 . S
C243 O244 1.235 . S
C243 O270 1.289 1_545 S
O244 C243 1.235 . S
C245 C247 1.400 . S
C245 N248 1.351 . S
C245 C250 1.501 . S
C246 C247 1.387 . S
C246 N249 1.341 . S
C247 C245 1.400 . S
C247 C246 1.387 . S
N248 Co239 2.022 . S
N248 C245 1.351 . S
N248 N249 1.365 . S
N249 C246 1.341 . S
N249 N248 1.365 . S
N249 H269 0.862 . S
C250 C245 1.501 . S
C250 H251 0.961 . S
C250 H252 0.961 1_565 S
C250 H253 0.960 . S
H251 C250 0.961 . S
H252 C250 0.961 1_545 S
H253 C250 0.960 . S
C254 N255 1.342 . S
C254 C258 1.401 . S
C254 C259 1.499 . S
N255 Co238 1.989 1_545 S
N255 C254 1.342 . S
N255 N256 1.388 1_545 S
N256 Co239 1.993 . S
N256 N255 1.388 1_565 S
N256 C257 1.346 1_565 S
C257 N256 1.346 1_545 S
C257 C258 1.396 . S
C257 C267 1.510 . S
C258 C254 1.401 . S
C258 C257 1.396 . S
C259 C254 1.499 . S
C259 H260 0.959 . S
C259 H261 0.960 . S
C259 H262 0.961 . S
H260 C259 0.959 . S
H261 C259 0.960 . S
H262 C259 0.961 . S
O263 Co238 1.967 . S
O263 C271 1.258 . S
O264 Co239 1.941 . S
O264 C271 1.266 . S
H265 C267 0.959 . S
H266 C267 0.961 . S
C267 C257 1.510 . S
C267 H265 0.959 . S
C267 H266 0.961 . S
C267 H268 0.960 . S
H268 C267 0.960 . S
H269 N249 0.862 . S
O270 Co238 1.920 1_655 S
O270 C243 1.289 1_565 S
C271 O263 1.258 . S
C271 O264 1.266 . S
Co272 O275 1.970 . S
Co272 N289 1.989 . S
Co272 O297 1.967 . S
Co272 O304 1.920 . S
Co273 O276 1.966 . S
Co273 N282 2.022 . S
Co273 N290 1.993 . S
Co273 O298 1.941 . S
C274 O275 1.258 . S
C274 O276 1.263 . S
O275 Co272 1.970 . S
O275 C274 1.258 . S
O276 Co273 1.966 . S
O276 C274 1.263 . S
C277 O278 1.235 . S
C277 O304 1.289 . S
O278 C277 1.235 . S
C279 C281 1.400 . S
C279 N282 1.351 . S
C279 C284 1.501 . S
C280 C281 1.387 . S
C280 N283 1.341 . S
C281 C279 1.400 . S
C281 C280 1.387 . S
N282 Co273 2.022 . S
N282 C279 1.351 . S
N282 N283 1.365 . S
N283 C280 1.341 . S
N283 N282 1.365 . S
N283 H303 0.862 . S
C284 C279 1.501 . S
C284 H285 0.961 . S
C284 H286 0.961 . S
C284 H287 0.960 . S
H285 C284 0.961 . S
H286 C284 0.961 . S
H287 C284 0.960 . S
C288 N289 1.342 . S
C288 C292 1.401 . S
C288 C293 1.499 . S
N289 Co272 1.989 . S
N289 C288 1.342 . S
N289 N290 1.388 . S
N290 Co273 1.993 . S
N290 N289 1.388 . S
N290 C291 1.346 . S
C291 N290 1.346 . S
C291 C292 1.396 . S
C291 C301 1.510 . S
C292 C288 1.401 . S
C292 C291 1.396 . S
C293 C288 1.499 . S
C293 H294 0.959 . S
C293 H295 0.960 . S
C293 H296 0.961 . S
H294 C293 0.959 . S
H295 C293 0.960 . S
H296 C293 0.961 . S
O297 Co272 1.967 . S
O297 C305 1.258 . S
O298 Co273 1.941 . S
O298 C305 1.266 . S
H299 C301 0.959 . S
H300 C301 0.961 . S
C301 C291 1.510 . S
C301 H299 0.959 . S
C301 H300 0.961 . S
C301 H302 0.960 . S
H302 C301 0.960 . S
H303 N283 0.862 . S
O304 Co272 1.920 . S
O304 C277 1.289 . S
C305 O297 1.258 . S
C305 O298 1.266 . S
Co306 O309 1.970 . S
Co306 N323 1.989 1_565 S
Co306 O331 1.967 . S
Co306 O338 1.920 1_655 S
Co307 O310 1.966 . S
Co307 N316 2.022 . S
Co307 N324 1.993 . S
Co307 O332 1.941 . S
C308 O309 1.258 . S
C308 O310 1.263 . S
O309 Co306 1.970 . S
O309 C308 1.258 . S
O310 Co307 1.966 . S
O310 C308 1.263 . S
C311 O312 1.235 . S
C311 O338 1.289 1_545 S
O312 C311 1.235 . S
C313 C315 1.400 . S
C313 N316 1.351 . S
C313 C318 1.501 . S
C314 C315 1.387 . S
C314 N317 1.341 . S
C315 C313 1.400 . S
C315 C314 1.387 . S
N316 Co307 2.022 . S
N316 C313 1.351 . S
N316 N317 1.365 . S
N317 C314 1.341 . S
N317 N316 1.365 . S
N317 H337 0.862 . S
C318 C313 1.501 . S
C318 H319 0.961 . S
C318 H320 0.961 1_565 S
C318 H321 0.960 . S
H319 C318 0.961 . S
H320 C318 0.961 1_545 S
H321 C318 0.960 . S
C322 N323 1.342 . S
C322 C326 1.401 . S
C322 C327 1.499 . S
N323 Co306 1.989 1_545 S
N323 C322 1.342 . S
N323 N324 1.388 1_545 S
N324 Co307 1.993 . S
N324 N323 1.388 1_565 S
N324 C325 1.346 1_565 S
C325 N324 1.346 1_545 S
C325 C326 1.396 . S
C325 C335 1.510 . S
C326 C322 1.401 . S
C326 C325 1.396 . S
C327 C322 1.499 . S
C327 H328 0.959 . S
C327 H329 0.960 . S
C327 H330 0.961 . S
H328 C327 0.959 . S
H329 C327 0.960 . S
H330 C327 0.961 . S
O331 Co306 1.967 . S
O331 C339 1.258 . S
O332 Co307 1.941 . S
O332 C339 1.266 . S
H333 C335 0.959 . S
H334 C335 0.961 . S
C335 C325 1.510 . S
C335 H333 0.959 . S
C335 H334 0.961 . S
C335 H336 0.960 . S
H336 C335 0.960 . S
H337 N317 0.862 . S
O338 Co306 1.920 1_455 S
O338 C311 1.289 1_565 S
C339 O331 1.258 . S
C339 O332 1.266 . S
Co340 O343 1.970 . S
Co340 N357 1.989 . S
Co340 O365 1.967 . S
Co340 O372 1.920 . S
Co341 O344 1.966 . S
Co341 N350 2.022 . S
Co341 N358 1.993 . S
Co341 O366 1.941 . S
C342 O343 1.258 . S
C342 O344 1.263 . S
O343 Co340 1.970 . S
O343 C342 1.258 . S
O344 Co341 1.966 . S
O344 C342 1.263 . S
C345 O346 1.235 . S
C345 O372 1.289 . S
O346 C345 1.235 . S
C347 C349 1.400 . S
C347 N350 1.351 . S
C347 C352 1.501 . S
C348 C349 1.387 . S
C348 N351 1.341 . S
C349 C347 1.400 . S
C349 C348 1.387 . S
N350 Co341 2.022 . S
N350 C347 1.351 . S
N350 N351 1.365 . S
N351 C348 1.341 . S
N351 N350 1.365 . S
N351 H371 0.862 . S
C352 C347 1.501 . S
C352 H353 0.961 . S
C352 H354 0.961 . S
C352 H355 0.960 . S
H353 C352 0.961 . S
H354 C352 0.961 . S
H355 C352 0.960 . S
C356 N357 1.342 . S
C356 C360 1.401 . S
C356 C361 1.499 . S
N357 Co340 1.989 . S
N357 C356 1.342 . S
N357 N358 1.388 . S
N358 Co341 1.993 . S
N358 N357 1.388 . S
N358 C359 1.346 . S
C359 N358 1.346 . S
C359 C360 1.396 . S
C359 C369 1.510 . S
C360 C356 1.401 . S
C360 C359 1.396 . S
C361 C356 1.499 . S
C361 H362 0.959 . S
C361 H363 0.960 . S
C361 H364 0.961 . S
H362 C361 0.959 . S
H363 C361 0.960 . S
H364 C361 0.961 . S
O365 Co340 1.967 . S
O365 C373 1.258 . S
O366 Co341 1.941 . S
O366 C373 1.266 . S
H367 C369 0.959 . S
H368 C369 0.961 . S
C369 C359 1.510 . S
C369 H367 0.959 . S
C369 H368 0.961 . S
C369 H370 0.960 . S
H370 C369 0.960 . S
H371 N351 0.862 . S
O372 Co340 1.920 . S
O372 C345 1.289 . S
C373 O365 1.258 . S
C373 O366 1.266 . S
Co374 O377 1.970 . S
Co374 N391 1.989 1_545 S
Co374 O399 1.967 . S
Co374 O406 1.920 . S
Co375 O378 1.966 . S
Co375 N384 2.022 . S
Co375 N392 1.993 . S
Co375 O400 1.941 . S
C376 O377 1.258 . S
C376 O378 1.263 . S
O377 Co374 1.970 . S
O377 C376 1.258 . S
O378 Co375 1.966 . S
O378 C376 1.263 . S
C379 O380 1.235 . S
C379 O406 1.289 1_565 S
O380 C379 1.235 . S
C381 C383 1.400 . S
C381 N384 1.351 . S
C381 C386 1.501 . S
C382 C383 1.387 . S
C382 N385 1.341 . S
C383 C381 1.400 . S
C383 C382 1.387 . S
N384 Co375 2.022 . S
N384 C381 1.351 . S
N384 N385 1.365 . S
N385 C382 1.341 . S
N385 N384 1.365 . S
N385 H405 0.862 . S
C386 C381 1.501 . S
C386 H387 0.961 . S
C386 H388 0.961 1_545 S
C386 H389 0.960 . S
H387 C386 0.961 . S
H388 C386 0.961 1_565 S
H389 C386 0.960 . S
C390 N391 1.342 . S
C390 C394 1.401 . S
C390 C395 1.499 . S
N391 Co374 1.989 1_565 S
N391 C390 1.342 . S
N391 N392 1.388 1_565 S
N392 Co375 1.993 . S
N392 N391 1.388 1_545 S
N392 C393 1.346 1_545 S
C393 N392 1.346 1_565 S
C393 C394 1.396 . S
C393 C403 1.510 . S
C394 C390 1.401 . S
C394 C393 1.396 . S
C395 C390 1.499 . S
C395 H396 0.959 . S
C395 H397 0.960 . S
C395 H398 0.961 . S
H396 C395 0.959 . S
H397 C395 0.960 . S
H398 C395 0.961 . S
O399 Co374 1.967 . S
O399 C407 1.258 . S
O400 Co375 1.941 . S
O400 C407 1.266 . S
H401 C403 0.959 . S
H402 C403 0.961 . S
C403 C393 1.510 . S
C403 H401 0.959 . S
C403 H402 0.961 . S
C403 H404 0.960 . S
H404 C403 0.960 . S
H405 N385 0.862 . S
O406 Co374 1.920 . S
O406 C379 1.289 1_545 S
C407 O399 1.258 . S
C407 O400 1.266 . S
Co408 O411 1.970 . S
Co408 N425 1.989 . S
Co408 O433 1.967 . S
Co408 O440 1.920 . S
Co409 O412 1.966 . S
Co409 N418 2.022 . S
Co409 N426 1.993 . S
Co409 O434 1.941 . S
C410 O411 1.258 . S
C410 O412 1.263 . S
O411 Co408 1.970 . S
O411 C410 1.258 . S
O412 Co409 1.966 . S
O412 C410 1.263 . S
C413 O414 1.235 . S
C413 O440 1.289 . S
O414 C413 1.235 . S
C415 C417 1.400 . S
C415 N418 1.351 . S
C415 C420 1.501 . S
C416 C417 1.387 . S
C416 N419 1.341 . S
C417 C415 1.400 . S
C417 C416 1.387 . S
N418 Co409 2.022 . S
N418 C415 1.351 . S
N418 N419 1.365 . S
N419 C416 1.341 . S
N419 N418 1.365 . S
N419 H439 0.862 . S
C420 C415 1.501 . S
C420 H421 0.961 . S
C420 H422 0.961 . S
C420 H423 0.960 . S
H421 C420 0.961 . S
H422 C420 0.961 . S
H423 C420 0.960 . S
C424 N425 1.342 . S
C424 C428 1.401 . S
C424 C429 1.499 . S
N425 Co408 1.989 . S
N425 C424 1.342 . S
N425 N426 1.388 . S
N426 Co409 1.993 . S
N426 N425 1.388 . S
N426 C427 1.346 . S
C427 N426 1.346 . S
C427 C428 1.396 . S
C427 C437 1.510 . S
C428 C424 1.401 . S
C428 C427 1.396 . S
C429 C424 1.499 . S
C429 H430 0.959 . S
C429 H431 0.960 . S
C429 H432 0.961 . S
H430 C429 0.959 . S
H431 C429 0.960 . S
H432 C429 0.961 . S
O433 Co408 1.967 . S
O433 C441 1.258 . S
O434 Co409 1.941 . S
O434 C441 1.266 . S
H435 C437 0.959 . S
H436 C437 0.961 . S
C437 C427 1.510 . S
C437 H435 0.959 . S
C437 H436 0.961 . S
C437 H438 0.960 . S
H438 C437 0.960 . S
H439 N419 0.862 . S
O440 Co408 1.920 . S
O440 C413 1.289 . S
C441 O433 1.258 . S
C441 O434 1.266 . S
Co442 O445 1.970 . S
Co442 N459 1.989 1_565 S
Co442 O467 1.967 . S
Co442 O474 1.920 . S
Co443 O446 1.966 . S
Co443 N452 2.022 . S
Co443 N460 1.993 . S
Co443 O468 1.941 . S
C444 O445 1.258 . S
C444 O446 1.263 . S
O445 Co442 1.970 . S
O445 C444 1.258 . S
O446 Co443 1.966 . S
O446 C444 1.263 . S
C447 O448 1.235 . S
C447 O474 1.289 1_545 S
O448 C447 1.235 . S
C449 C451 1.400 . S
C449 N452 1.351 . S
C449 C454 1.501 . S
C450 C451 1.387 . S
C450 N453 1.341 . S
C451 C449 1.400 . S
C451 C450 1.387 . S
N452 Co443 2.022 . S
N452 C449 1.351 . S
N452 N453 1.365 . S
N453 C450 1.341 . S
N453 N452 1.365 . S
N453 H473 0.862 . S
C454 C449 1.501 . S
C454 H455 0.961 . S
C454 H456 0.961 1_565 S
C454 H457 0.960 . S
H455 C454 0.961 . S
H456 C454 0.961 1_545 S
H457 C454 0.960 . S
C458 N459 1.342 . S
C458 C462 1.401 . S
C458 C463 1.499 . S
N459 Co442 1.989 1_545 S
N459 C458 1.342 . S
N459 N460 1.388 1_545 S
N460 Co443 1.993 . S
N460 N459 1.388 1_565 S
N460 C461 1.346 1_565 S
C461 N460 1.346 1_545 S
C461 C462 1.396 . S
C461 C471 1.510 . S
C462 C458 1.401 . S
C462 C461 1.396 . S
C463 C458 1.499 . S
C463 H464 0.959 . S
C463 H465 0.960 . S
C463 H466 0.961 . S
H464 C463 0.959 . S
H465 C463 0.960 . S
H466 C463 0.961 . S
O467 Co442 1.967 . S
O467 C475 1.258 . S
O468 Co443 1.941 . S
O468 C475 1.266 . S
H469 C471 0.959 . S
H470 C471 0.961 . S
C471 C461 1.510 . S
C471 H469 0.959 . S
C471 H470 0.961 . S
C471 H472 0.960 . S
H472 C471 0.960 . S
H473 N453 0.862 . S
O474 Co442 1.920 . S
O474 C447 1.289 1_565 S
C475 O467 1.258 . S
C475 O468 1.266 . S
Co476 O479 1.970 . S
Co476 N493 1.989 . S
Co476 O501 1.967 . S
Co476 O508 1.920 . S
Co477 O480 1.966 . S
Co477 N486 2.022 . S
Co477 N494 1.993 . S
Co477 O502 1.941 . S
C478 O479 1.258 . S
C478 O480 1.263 . S
O479 Co476 1.970 . S
O479 C478 1.258 . S
O480 Co477 1.966 . S
O480 C478 1.263 . S
C481 O482 1.235 . S
C481 O508 1.289 . S
O482 C481 1.235 . S
C483 C485 1.400 . S
C483 N486 1.351 . S
C483 C488 1.501 . S
C484 C485 1.387 . S
C484 N487 1.341 . S
C485 C483 1.400 . S
C485 C484 1.387 . S
N486 Co477 2.022 . S
N486 C483 1.351 . S
N486 N487 1.365 . S
N487 C484 1.341 . S
N487 N486 1.365 . S
N487 H507 0.862 . S
C488 C483 1.501 . S
C488 H489 0.961 . S
C488 H490 0.961 . S
C488 H491 0.960 . S
H489 C488 0.961 . S
H490 C488 0.961 . S
H491 C488 0.960 . S
C492 N493 1.342 . S
C492 C496 1.401 . S
C492 C497 1.499 . S
N493 Co476 1.989 . S
N493 C492 1.342 . S
N493 N494 1.388 . S
N494 Co477 1.993 . S
N494 N493 1.388 . S
N494 C495 1.346 . S
C495 N494 1.346 . S
C495 C496 1.396 . S
C495 C505 1.510 . S
C496 C492 1.401 . S
C496 C495 1.396 . S
C497 C492 1.499 . S
C497 H498 0.959 . S
C497 H499 0.960 . S
C497 H500 0.961 . S
H498 C497 0.959 . S
H499 C497 0.960 . S
H500 C497 0.961 . S
O501 Co476 1.967 . S
O501 C509 1.258 . S
O502 Co477 1.941 . S
O502 C509 1.266 . S
H503 C505 0.959 . S
H504 C505 0.961 . S
C505 C495 1.510 . S
C505 H503 0.959 . S
C505 H504 0.961 . S
C505 H506 0.960 . S
H506 C505 0.960 . S
H507 N487 0.862 . S
O508 Co476 1.920 . S
O508 C481 1.289 . S
C509 O501 1.258 . S
C509 O502 1.266 . S
Co510 O513 1.970 . S
Co510 N527 1.989 1_545 S
Co510 O535 1.967 . S
Co510 O542 1.920 1_655 S
Co511 O514 1.966 . S
Co511 N520 2.022 . S
Co511 N528 1.993 . S
Co511 O536 1.941 . S
C512 O513 1.258 . S
C512 O514 1.263 . S
O513 Co510 1.970 . S
O513 C512 1.258 . S
O514 Co511 1.966 . S
O514 C512 1.263 . S
C515 O516 1.235 . S
C515 O542 1.289 1_565 S
O516 C515 1.235 . S
C517 C519 1.400 . S
C517 N520 1.351 . S
C517 C522 1.501 . S
C518 C519 1.387 . S
C518 N521 1.341 . S
C519 C517 1.400 . S
C519 C518 1.387 . S
N520 Co511 2.022 . S
N520 C517 1.351 . S
N520 N521 1.365 . S
N521 C518 1.341 . S
N521 N520 1.365 . S
N521 H541 0.862 . S
C522 C517 1.501 . S
C522 H523 0.961 . S
C522 H524 0.961 1_545 S
C522 H525 0.960 . S
H523 C522 0.961 . S
H524 C522 0.961 1_565 S
H525 C522 0.960 . S
C526 N527 1.342 . S
C526 C530 1.401 . S
C526 C531 1.499 . S
N527 Co510 1.989 1_565 S
N527 C526 1.342 . S
N527 N528 1.388 1_565 S
N528 Co511 1.993 . S
N528 N527 1.388 1_545 S
N528 C529 1.346 1_545 S
C529 N528 1.346 1_565 S
C529 C530 1.396 . S
C529 C539 1.510 . S
C530 C526 1.401 . S
C530 C529 1.396 . S
C531 C526 1.499 . S
C531 H532 0.959 . S
C531 H533 0.960 . S
C531 H534 0.961 . S
H532 C531 0.959 . S
H533 C531 0.960 . S
H534 C531 0.961 . S
O535 Co510 1.967 . S
O535 C543 1.258 . S
O536 Co511 1.941 . S
O536 C543 1.266 . S
H537 C539 0.959 . S
H538 C539 0.961 . S
C539 C529 1.510 . S
C539 H537 0.959 . S
C539 H538 0.961 . S
C539 H540 0.960 . S
H540 C539 0.960 . S
H541 N521 0.862 . S
O542 Co510 1.920 1_455 S
O542 C515 1.289 1_545 S
C543 O535 1.258 . S
C543 O536 1.266 . S
Co544 O547 1.970 . S
Co544 N561 1.989 . S
Co544 O569 1.967 . S
Co544 O576 1.920 . S
Co545 O548 1.966 . S
Co545 N554 2.022 . S
Co545 N562 1.993 . S
Co545 O570 1.941 . S
C546 O547 1.258 . S
C546 O548 1.263 . S
O547 Co544 1.970 . S
O547 C546 1.258 . S
O548 Co545 1.966 . S
O548 C546 1.263 . S
C549 O550 1.235 . S
C549 O576 1.289 . S
O550 C549 1.235 . S
C551 C553 1.400 . S
C551 N554 1.351 . S
C551 C556 1.501 . S
C552 C553 1.387 . S
C552 N555 1.341 . S
C553 C551 1.400 . S
C553 C552 1.387 . S
N554 Co545 2.022 . S
N554 C551 1.351 . S
N554 N555 1.365 . S
N555 C552 1.341 . S
N555 N554 1.365 . S
N555 H575 0.862 . S
C556 C551 1.501 . S
C556 H557 0.961 . S
C556 H558 0.961 . S
C556 H559 0.960 . S
H557 C556 0.961 . S
H558 C556 0.961 . S
H559 C556 0.960 . S
C560 N561 1.342 . S
C560 C564 1.401 . S
C560 C565 1.499 . S
N561 Co544 1.989 . S
N561 C560 1.342 . S
N561 N562 1.388 . S
N562 Co545 1.993 . S
N562 N561 1.388 . S
N562 C563 1.346 . S
C563 N562 1.346 . S
C563 C564 1.396 . S
C563 C573 1.510 . S
C564 C560 1.401 . S
C564 C563 1.396 . S
C565 C560 1.499 . S
C565 H566 0.959 . S
C565 H567 0.960 . S
C565 H568 0.961 . S
H566 C565 0.959 . S
H567 C565 0.960 . S
H568 C565 0.961 . S
O569 Co544 1.967 . S
O569 C577 1.258 . S
O570 Co545 1.941 . S
O570 C577 1.266 . S
H571 C573 0.959 . S
H572 C573 0.961 . S
C573 C563 1.510 . S
C573 H571 0.959 . S
C573 H572 0.961 . S
C573 H574 0.960 . S
H574 C573 0.960 . S
H575 N555 0.862 . S
O576 Co544 1.920 . S
O576 C549 1.289 . S
C577 O569 1.258 . S
C577 O570 1.266 . S
Co578 O581 1.970 . S
Co578 N595 1.989 . S
Co578 O603 1.967 . S
Co578 O610 1.920 . S
Co579 O582 1.966 . S
Co579 N588 2.022 . S
Co579 N596 1.993 . S
Co579 O604 1.941 . S
C580 O581 1.258 . S
C580 O582 1.263 . S
O581 Co578 1.970 . S
O581 C580 1.258 . S
O582 Co579 1.966 . S
O582 C580 1.263 . S
C583 O584 1.235 . S
C583 O610 1.289 . S
O584 C583 1.235 . S
C585 C587 1.400 . S
C585 N588 1.351 . S
C585 C590 1.501 . S
C586 C587 1.387 . S
C586 N589 1.341 . S
C587 C585 1.400 . S
C587 C586 1.387 . S
N588 Co579 2.022 . S
N588 C585 1.351 . S
N588 N589 1.365 . S
N589 C586 1.341 . S
N589 N588 1.365 . S
N589 H609 0.862 . S
C590 C585 1.501 . S
C590 H591 0.961 . S
C590 H592 0.961 . S
C590 H593 0.960 . S
H591 C590 0.961 . S
H592 C590 0.961 . S
H593 C590 0.960 . S
C594 N595 1.342 . S
C594 C598 1.401 . S
C594 C599 1.499 . S
N595 Co578 1.989 . S
N595 C594 1.342 . S
N595 N596 1.388 . S
N596 Co579 1.993 . S
N596 N595 1.388 . S
N596 C597 1.346 . S
C597 N596 1.346 . S
C597 C598 1.396 . S
C597 C607 1.510 . S
C598 C594 1.401 . S
C598 C597 1.396 . S
C599 C594 1.499 . S
C599 H600 0.959 . S
C599 H601 0.960 . S
C599 H602 0.961 . S
H600 C599 0.959 . S
H601 C599 0.960 . S
H602 C599 0.961 . S
O603 Co578 1.967 . S
O603 C611 1.258 . S
O604 Co579 1.941 . S
O604 C611 1.266 . S
H605 C607 0.959 . S
H606 C607 0.961 . S
C607 C597 1.510 . S
C607 H605 0.959 . S
C607 H606 0.961 . S
C607 H608 0.960 . S
H608 C607 0.960 . S
H609 N589 0.862 . S
O610 Co578 1.920 . S
O610 C583 1.289 . S
C611 O603 1.258 . S
C611 O604 1.266 . S
Co612 O615 1.970 . S
Co612 N629 1.989 . S
Co612 O637 1.967 . S
Co612 O644 1.920 . S
Co613 O616 1.966 . S
Co613 N622 2.022 . S
Co613 N630 1.993 . S
Co613 O638 1.941 . S
C614 O615 1.258 . S
C614 O616 1.263 . S
O615 Co612 1.970 . S
O615 C614 1.258 . S
O616 Co613 1.966 . S
O616 C614 1.263 . S
C617 O618 1.235 . S
C617 O644 1.289 . S
O618 C617 1.235 . S
C619 C621 1.400 . S
C619 N622 1.351 . S
C619 C624 1.501 . S
C620 C621 1.387 . S
C620 N623 1.341 . S
C621 C619 1.400 . S
C621 C620 1.387 . S
N622 Co613 2.022 . S
N622 C619 1.351 . S
N622 N623 1.365 . S
N623 C620 1.341 . S
N623 N622 1.365 . S
N623 H643 0.862 . S
C624 C619 1.501 . S
C624 H625 0.961 . S
C624 H626 0.961 . S
C624 H627 0.960 . S
H625 C624 0.961 . S
H626 C624 0.961 . S
H627 C624 0.960 . S
C628 N629 1.342 . S
C628 C632 1.401 . S
C628 C633 1.499 . S
N629 Co612 1.989 . S
N629 C628 1.342 . S
N629 N630 1.388 . S
N630 Co613 1.993 . S
N630 N629 1.388 . S
N630 C631 1.346 . S
C631 N630 1.346 . S
C631 C632 1.396 . S
C631 C641 1.510 . S
C632 C628 1.401 . S
C632 C631 1.396 . S
C633 C628 1.499 . S
C633 H634 0.959 . S
C633 H635 0.960 . S
C633 H636 0.961 . S
H634 C633 0.959 . S
H635 C633 0.960 . S
H636 C633 0.961 . S
O637 Co612 1.967 . S
O637 C645 1.258 . S
O638 Co613 1.941 . S
O638 C645 1.266 . S
H639 C641 0.959 . S
H640 C641 0.961 . S
C641 C631 1.510 . S
C641 H639 0.959 . S
C641 H640 0.961 . S
C641 H642 0.960 . S
H642 C641 0.960 . S
H643 N623 0.862 . S
O644 Co612 1.920 . S
O644 C617 1.289 . S
C645 O637 1.258 . S
C645 O638 1.266 . S
Co646 O649 1.970 . S
Co646 N663 1.989 . S
Co646 O671 1.967 . S
Co646 O678 1.920 1_655 S
Co647 O650 1.966 . S
Co647 N656 2.022 . S
Co647 N664 1.993 . S
Co647 O672 1.941 . S
C648 O649 1.258 . S
C648 O650 1.263 . S
O649 Co646 1.970 . S
O649 C648 1.258 . S
O650 Co647 1.966 . S
O650 C648 1.263 . S
C651 O652 1.235 . S
C651 O678 1.289 . S
O652 C651 1.235 . S
C653 C655 1.400 . S
C653 N656 1.351 . S
C653 C658 1.501 . S
C654 C655 1.387 . S
C654 N657 1.341 . S
C655 C653 1.400 . S
C655 C654 1.387 . S
N656 Co647 2.022 . S
N656 C653 1.351 . S
N656 N657 1.365 . S
N657 C654 1.341 . S
N657 N656 1.365 . S
N657 H677 0.862 . S
C658 C653 1.501 . S
C658 H659 0.961 . S
C658 H660 0.961 . S
C658 H661 0.960 . S
H659 C658 0.961 . S
H660 C658 0.961 . S
H661 C658 0.960 . S
C662 N663 1.342 . S
C662 C666 1.401 . S
C662 C667 1.499 . S
N663 Co646 1.989 . S
N663 C662 1.342 . S
N663 N664 1.388 . S
N664 Co647 1.993 . S
N664 N663 1.388 . S
N664 C665 1.346 . S
C665 N664 1.346 . S
C665 C666 1.396 . S
C665 C675 1.510 . S
C666 C662 1.401 . S
C666 C665 1.396 . S
C667 C662 1.499 . S
C667 H668 0.959 . S
C667 H669 0.960 . S
C667 H670 0.961 . S
H668 C667 0.959 . S
H669 C667 0.960 . S
H670 C667 0.961 . S
O671 Co646 1.967 . S
O671 C679 1.258 . S
O672 Co647 1.941 . S
O672 C679 1.266 . S
H673 C675 0.959 . S
H674 C675 0.961 . S
C675 C665 1.510 . S
C675 H673 0.959 . S
C675 H674 0.961 . S
C675 H676 0.960 . S
H676 C675 0.960 . S
H677 N657 0.862 . S
O678 Co646 1.920 1_455 S
O678 C651 1.289 . S
C679 O671 1.258 . S
C679 O672 1.266 . S
Co680 O683 1.970 . S
Co680 N697 1.989 . S
Co680 O705 1.967 . S
Co680 O712 1.920 . S
Co681 O684 1.966 . S
Co681 N690 2.022 . S
Co681 N698 1.993 . S
Co681 O706 1.941 . S
C682 O683 1.258 . S
C682 O684 1.263 . S
O683 Co680 1.970 . S
O683 C682 1.258 . S
O684 Co681 1.966 . S
O684 C682 1.263 . S
C685 O686 1.235 . S
C685 O712 1.289 . S
O686 C685 1.235 . S
C687 C689 1.400 . S
C687 N690 1.351 . S
C687 C692 1.501 . S
C688 C689 1.387 . S
C688 N691 1.341 . S
C689 C687 1.400 . S
C689 C688 1.387 . S
N690 Co681 2.022 . S
N690 C687 1.351 . S
N690 N691 1.365 . S
N691 C688 1.341 . S
N691 N690 1.365 . S
N691 H711 0.862 . S
C692 C687 1.501 . S
C692 H693 0.961 . S
C692 H694 0.961 . S
C692 H695 0.960 . S
H693 C692 0.961 . S
H694 C692 0.961 . S
H695 C692 0.960 . S
C696 N697 1.342 . S
C696 C700 1.401 . S
C696 C701 1.499 . S
N697 Co680 1.989 . S
N697 C696 1.342 . S
N697 N698 1.388 . S
N698 Co681 1.993 . S
N698 N697 1.388 . S
N698 C699 1.346 . S
C699 N698 1.346 . S
C699 C700 1.396 . S
C699 C709 1.510 . S
C700 C696 1.401 . S
C700 C699 1.396 . S
C701 C696 1.499 . S
C701 H702 0.959 . S
C701 H703 0.960 . S
C701 H704 0.961 . S
H702 C701 0.959 . S
H703 C701 0.960 . S
H704 C701 0.961 . S
O705 Co680 1.967 . S
O705 C713 1.258 . S
O706 Co681 1.941 . S
O706 C713 1.266 . S
H707 C709 0.959 . S
H708 C709 0.961 . S
C709 C699 1.510 . S
C709 H707 0.959 . S
C709 H708 0.961 . S
C709 H710 0.960 . S
H710 C709 0.960 . S
H711 N691 0.862 . S
O712 Co680 1.920 . S
O712 C685 1.289 . S
C713 O705 1.258 . S
C713 O706 1.266 . S
Co714 O717 1.970 . S
Co714 N731 1.989 . S
Co714 O739 1.967 . S
Co714 O746 1.920 1_655 S
Co715 O718 1.966 . S
Co715 N724 2.022 . S
Co715 N732 1.993 . S
Co715 O740 1.941 . S
C716 O717 1.258 . S
C716 O718 1.263 . S
O717 Co714 1.970 . S
O717 C716 1.258 . S
O718 Co715 1.966 . S
O718 C716 1.263 . S
C719 O720 1.235 . S
C719 O746 1.289 . S
O720 C719 1.235 . S
C721 C723 1.400 . S
C721 N724 1.351 . S
C721 C726 1.501 . S
C722 C723 1.387 . S
C722 N725 1.341 . S
C723 C721 1.400 . S
C723 C722 1.387 . S
N724 Co715 2.022 . S
N724 C721 1.351 . S
N724 N725 1.365 . S
N725 C722 1.341 . S
N725 N724 1.365 . S
N725 H745 0.862 . S
C726 C721 1.501 . S
C726 H727 0.961 . S
C726 H728 0.961 . S
C726 H729 0.960 . S
H727 C726 0.961 . S
H728 C726 0.961 . S
H729 C726 0.960 . S
C730 N731 1.342 . S
C730 C734 1.401 . S
C730 C735 1.499 . S
N731 Co714 1.989 . S
N731 C730 1.342 . S
N731 N732 1.388 . S
N732 Co715 1.993 . S
N732 N731 1.388 . S
N732 C733 1.346 . S
C733 N732 1.346 . S
C733 C734 1.396 . S
C733 C743 1.510 . S
C734 C730 1.401 . S
C734 C733 1.396 . S
C735 C730 1.499 . S
C735 H736 0.959 . S
C735 H737 0.960 . S
C735 H738 0.961 . S
H736 C735 0.959 . S
H737 C735 0.960 . S
H738 C735 0.961 . S
O739 Co714 1.967 . S
O739 C747 1.258 . S
O740 Co715 1.941 . S
O740 C747 1.266 . S
H741 C743 0.959 . S
H742 C743 0.961 . S
C743 C733 1.510 . S
C743 H741 0.959 . S
C743 H742 0.961 . S
C743 H744 0.960 . S
H744 C743 0.960 . S
H745 N725 0.862 . S
O746 Co714 1.920 1_455 S
O746 C719 1.289 . S
C747 O739 1.258 . S
C747 O740 1.266 . S
Co748 O751 1.970 . S
Co748 N765 1.989 . S
Co748 O773 1.967 . S
Co748 O780 1.920 . S
Co749 O752 1.966 . S
Co749 N758 2.022 . S
Co749 N766 1.993 . S
Co749 O774 1.941 . S
C750 O751 1.258 . S
C750 O752 1.263 . S
O751 Co748 1.970 . S
O751 C750 1.258 . S
O752 Co749 1.966 . S
O752 C750 1.263 . S
C753 O754 1.235 . S
C753 O780 1.289 . S
O754 C753 1.235 . S
C755 C757 1.400 . S
C755 N758 1.351 . S
C755 C760 1.501 . S
C756 C757 1.387 . S
C756 N759 1.341 . S
C757 C755 1.400 . S
C757 C756 1.387 . S
N758 Co749 2.022 . S
N758 C755 1.351 . S
N758 N759 1.365 . S
N759 C756 1.341 . S
N759 N758 1.365 . S
N759 H779 0.862 . S
C760 C755 1.501 . S
C760 H761 0.961 . S
C760 H762 0.961 . S
C760 H763 0.960 . S
H761 C760 0.961 . S
H762 C760 0.961 . S
H763 C760 0.960 . S
C764 N765 1.342 . S
C764 C768 1.401 . S
C764 C769 1.499 . S
N765 Co748 1.989 . S
N765 C764 1.342 . S
N765 N766 1.388 . S
N766 Co749 1.993 . S
N766 N765 1.388 . S
N766 C767 1.346 . S
C767 N766 1.346 . S
C767 C768 1.396 . S
C767 C777 1.510 . S
C768 C764 1.401 . S
C768 C767 1.396 . S
C769 C764 1.499 . S
C769 H770 0.959 . S
C769 H771 0.960 . S
C769 H772 0.961 . S
H770 C769 0.959 . S
H771 C769 0.960 . S
H772 C769 0.961 . S
O773 Co748 1.967 . S
O773 C781 1.258 . S
O774 Co749 1.941 . S
O774 C781 1.266 . S
H775 C777 0.959 . S
H776 C777 0.961 . S
C777 C767 1.510 . S
C777 H775 0.959 . S
C777 H776 0.961 . S
C777 H778 0.960 . S
H778 C777 0.960 . S
H779 N759 0.862 . S
O780 Co748 1.920 . S
O780 C753 1.289 . S
C781 O773 1.258 . S
C781 O774 1.266 . S
Co782 O785 1.970 . S
Co782 N799 1.989 . S
Co782 O807 1.967 . S
Co782 O814 1.920 . S
Co783 O786 1.966 . S
Co783 N792 2.022 . S
Co783 N800 1.993 . S
Co783 O808 1.941 . S
C784 O785 1.258 . S
C784 O786 1.263 . S
O785 Co782 1.970 . S
O785 C784 1.258 . S
O786 Co783 1.966 . S
O786 C784 1.263 . S
C787 O788 1.235 . S
C787 O814 1.289 . S
O788 C787 1.235 . S
C789 C791 1.400 . S
C789 N792 1.351 . S
C789 C794 1.501 . S
C790 C791 1.387 . S
C790 N793 1.341 . S
C791 C789 1.400 . S
C791 C790 1.387 . S
N792 Co783 2.022 . S
N792 C789 1.351 . S
N792 N793 1.365 . S
N793 C790 1.341 . S
N793 N792 1.365 . S
N793 H813 0.862 . S
C794 C789 1.501 . S
C794 H795 0.961 . S
C794 H796 0.961 . S
C794 H797 0.960 . S
H795 C794 0.961 . S
H796 C794 0.961 . S
H797 C794 0.960 . S
C798 N799 1.342 . S
C798 C802 1.401 . S
C798 C803 1.499 . S
N799 Co782 1.989 . S
N799 C798 1.342 . S
N799 N800 1.388 . S
N800 Co783 1.993 . S
N800 N799 1.388 . S
N800 C801 1.346 . S
C801 N800 1.346 . S
C801 C802 1.396 . S
C801 C811 1.510 . S
C802 C798 1.401 . S
C802 C801 1.396 . S
C803 C798 1.499 . S
C803 H804 0.959 . S
C803 H805 0.960 . S
C803 H806 0.961 . S
H804 C803 0.959 . S
H805 C803 0.960 . S
H806 C803 0.961 . S
O807 Co782 1.967 . S
O807 C815 1.258 . S
O808 Co783 1.941 . S
O808 C815 1.266 . S
H809 C811 0.959 . S
H810 C811 0.961 . S
C811 C801 1.510 . S
C811 H809 0.959 . S
C811 H810 0.961 . S
C811 H812 0.960 . S
H812 C811 0.960 . S
H813 N793 0.862 . S
O814 Co782 1.920 . S
O814 C787 1.289 . S
C815 O807 1.258 . S
C815 O808 1.266 . S
Co816 O819 1.970 . S
Co816 N833 1.989 . S
Co816 O841 1.967 . S
Co816 O848 1.920 . S
Co817 O820 1.966 . S
Co817 N826 2.022 . S
Co817 N834 1.993 . S
Co817 O842 1.941 . S
C818 O819 1.258 . S
C818 O820 1.263 . S
O819 Co816 1.970 . S
O819 C818 1.258 . S
O820 Co817 1.966 . S
O820 C818 1.263 . S
C821 O822 1.235 . S
C821 O848 1.289 . S
O822 C821 1.235 . S
C823 C825 1.400 . S
C823 N826 1.351 . S
C823 C828 1.501 . S
C824 C825 1.387 . S
C824 N827 1.341 . S
C825 C823 1.400 . S
C825 C824 1.387 . S
N826 Co817 2.022 . S
N826 C823 1.351 . S
N826 N827 1.365 . S
N827 C824 1.341 . S
N827 N826 1.365 . S
N827 H847 0.862 . S
C828 C823 1.501 . S
C828 H829 0.961 . S
C828 H830 0.961 . S
C828 H831 0.960 . S
H829 C828 0.961 . S
H830 C828 0.961 . S
H831 C828 0.960 . S
C832 N833 1.342 . S
C832 C836 1.401 . S
C832 C837 1.499 . S
N833 Co816 1.989 . S
N833 C832 1.342 . S
N833 N834 1.388 . S
N834 Co817 1.993 . S
N834 N833 1.388 . S
N834 C835 1.346 . S
C835 N834 1.346 . S
C835 C836 1.396 . S
C835 C845 1.510 . S
C836 C832 1.401 . S
C836 C835 1.396 . S
C837 C832 1.499 . S
C837 H838 0.959 . S
C837 H839 0.960 . S
C837 H840 0.961 . S
H838 C837 0.959 . S
H839 C837 0.960 . S
H840 C837 0.961 . S
O841 Co816 1.967 . S
O841 C849 1.258 . S
O842 Co817 1.941 . S
O842 C849 1.266 . S
H843 C845 0.959 . S
H844 C845 0.961 . S
C845 C835 1.510 . S
C845 H843 0.959 . S
C845 H844 0.961 . S
C845 H846 0.960 . S
H846 C845 0.960 . S
H847 N827 0.862 . S
O848 Co816 1.920 . S
O848 C821 1.289 . S
C849 O841 1.258 . S
C849 O842 1.266 . S
Co850 O853 1.970 . S
Co850 N867 1.989 . S
Co850 O875 1.967 . S
Co850 O882 1.920 . S
Co851 O854 1.966 . S
Co851 N860 2.022 . S
Co851 N868 1.993 . S
Co851 O876 1.941 . S
C852 O853 1.258 . S
C852 O854 1.263 . S
O853 Co850 1.970 . S
O853 C852 1.258 . S
O854 Co851 1.966 . S
O854 C852 1.263 . S
C855 O856 1.235 . S
C855 O882 1.289 . S
O856 C855 1.235 . S
C857 C859 1.400 . S
C857 N860 1.351 . S
C857 C862 1.501 . S
C858 C859 1.387 . S
C858 N861 1.341 . S
C859 C857 1.400 . S
C859 C858 1.387 . S
N860 Co851 2.022 . S
N860 C857 1.351 . S
N860 N861 1.365 . S
N861 C858 1.341 . S
N861 N860 1.365 . S
N861 H881 0.862 . S
C862 C857 1.501 . S
C862 H863 0.961 . S
C862 H864 0.961 . S
C862 H865 0.960 . S
H863 C862 0.961 . S
H864 C862 0.961 . S
H865 C862 0.960 . S
C866 N867 1.342 . S
C866 C870 1.401 . S
C866 C871 1.499 . S
N867 Co850 1.989 . S
N867 C866 1.342 . S
N867 N868 1.388 . S
N868 Co851 1.993 . S
N868 N867 1.388 . S
N868 C869 1.346 . S
C869 N868 1.346 . S
C869 C870 1.396 . S
C869 C879 1.510 . S
C870 C866 1.401 . S
C870 C869 1.396 . S
C871 C866 1.499 . S
C871 H872 0.959 . S
C871 H873 0.960 . S
C871 H874 0.961 . S
H872 C871 0.959 . S
H873 C871 0.960 . S
H874 C871 0.961 . S
O875 Co850 1.967 . S
O875 C883 1.258 . S
O876 Co851 1.941 . S
O876 C883 1.266 . S
H877 C879 0.959 . S
H878 C879 0.961 . S
C879 C869 1.510 . S
C879 H877 0.959 . S
C879 H878 0.961 . S
C879 H880 0.960 . S
H880 C879 0.960 . S
H881 N861 0.862 . S
O882 Co850 1.920 . S
O882 C855 1.289 . S
C883 O875 1.258 . S
C883 O876 1.266 . S
Co884 O887 1.970 . S
Co884 N901 1.989 . S
Co884 O909 1.967 . S
Co884 O916 1.920 . S
Co885 O888 1.966 . S
Co885 N894 2.022 . S
Co885 N902 1.993 . S
Co885 O910 1.941 . S
C886 O887 1.258 . S
C886 O888 1.263 . S
O887 Co884 1.970 . S
O887 C886 1.258 . S
O888 Co885 1.966 . S
O888 C886 1.263 . S
C889 O890 1.235 . S
C889 O916 1.289 . S
O890 C889 1.235 . S
C891 C893 1.400 . S
C891 N894 1.351 . S
C891 C896 1.501 . S
C892 C893 1.387 . S
C892 N895 1.341 . S
C893 C891 1.400 . S
C893 C892 1.387 . S
N894 Co885 2.022 . S
N894 C891 1.351 . S
N894 N895 1.365 . S
N895 C892 1.341 . S
N895 N894 1.365 . S
N895 H915 0.862 . S
C896 C891 1.501 . S
C896 H897 0.961 . S
C896 H898 0.961 . S
C896 H899 0.960 . S
H897 C896 0.961 . S
H898 C896 0.961 . S
H899 C896 0.960 . S
C900 N901 1.342 . S
C900 C904 1.401 . S
C900 C905 1.499 . S
N901 Co884 1.989 . S
N901 C900 1.342 . S
N901 N902 1.388 . S
N902 Co885 1.993 . S
N902 N901 1.388 . S
N902 C903 1.346 . S
C903 N902 1.346 . S
C903 C904 1.396 . S
C903 C913 1.510 . S
C904 C900 1.401 . S
C904 C903 1.396 . S
C905 C900 1.499 . S
C905 H906 0.959 . S
C905 H907 0.960 . S
C905 H908 0.961 . S
H906 C905 0.959 . S
H907 C905 0.960 . S
H908 C905 0.961 . S
O909 Co884 1.967 . S
O909 C917 1.258 . S
O910 Co885 1.941 . S
O910 C917 1.266 . S
H911 C913 0.959 . S
H912 C913 0.961 . S
C913 C903 1.510 . S
C913 H911 0.959 . S
C913 H912 0.961 . S
C913 H914 0.960 . S
H914 C913 0.960 . S
H915 N895 0.862 . S
O916 Co884 1.920 . S
O916 C889 1.289 . S
C917 O909 1.258 . S
C917 O910 1.266 . S
Co918 O921 1.970 . S
Co918 N935 1.989 . S
Co918 O943 1.967 . S
Co918 O950 1.920 1_455 S
Co919 O922 1.966 . S
Co919 N928 2.022 . S
Co919 N936 1.993 . S
Co919 O944 1.941 . S
C920 O921 1.258 . S
C920 O922 1.263 . S
O921 Co918 1.970 . S
O921 C920 1.258 . S
O922 Co919 1.966 . S
O922 C920 1.263 . S
C923 O924 1.235 . S
C923 O950 1.289 . S
O924 C923 1.235 . S
C925 C927 1.400 . S
C925 N928 1.351 . S
C925 C930 1.501 . S
C926 C927 1.387 . S
C926 N929 1.341 . S
C927 C925 1.400 . S
C927 C926 1.387 . S
N928 Co919 2.022 . S
N928 C925 1.351 . S
N928 N929 1.365 . S
N929 C926 1.341 . S
N929 N928 1.365 . S
N929 H949 0.862 . S
C930 C925 1.501 . S
C930 H931 0.961 . S
C930 H932 0.961 . S
C930 H933 0.960 . S
H931 C930 0.961 . S
H932 C930 0.961 . S
H933 C930 0.960 . S
C934 N935 1.342 . S
C934 C938 1.401 . S
C934 C939 1.499 . S
N935 Co918 1.989 . S
N935 C934 1.342 . S
N935 N936 1.388 . S
N936 Co919 1.993 . S
N936 N935 1.388 . S
N936 C937 1.346 . S
C937 N936 1.346 . S
C937 C938 1.396 . S
C937 C947 1.510 . S
C938 C934 1.401 . S
C938 C937 1.396 . S
C939 C934 1.499 . S
C939 H940 0.959 . S
C939 H941 0.960 . S
C939 H942 0.961 . S
H940 C939 0.959 . S
H941 C939 0.960 . S
H942 C939 0.961 . S
O943 Co918 1.967 . S
O943 C951 1.258 . S
O944 Co919 1.941 . S
O944 C951 1.266 . S
H945 C947 0.959 . S
H946 C947 0.961 . S
C947 C937 1.510 . S
C947 H945 0.959 . S
C947 H946 0.961 . S
C947 H948 0.960 . S
H948 C947 0.960 . S
H949 N929 0.862 . S
O950 Co918 1.920 1_655 S
O950 C923 1.289 . S
C951 O943 1.258 . S
C951 O944 1.266 . S
Co952 O955 1.970 . S
Co952 N969 1.989 . S
Co952 O977 1.967 . S
Co952 O984 1.920 . S
Co953 O956 1.966 . S
Co953 N962 2.022 . S
Co953 N970 1.993 . S
Co953 O978 1.941 . S
C954 O955 1.258 . S
C954 O956 1.263 . S
O955 Co952 1.970 . S
O955 C954 1.258 . S
O956 Co953 1.966 . S
O956 C954 1.263 . S
C957 O958 1.235 . S
C957 O984 1.289 . S
O958 C957 1.235 . S
C959 C961 1.400 . S
C959 N962 1.351 . S
C959 C964 1.501 . S
C960 C961 1.387 . S
C960 N963 1.341 . S
C961 C959 1.400 . S
C961 C960 1.387 . S
N962 Co953 2.022 . S
N962 C959 1.351 . S
N962 N963 1.365 . S
N963 C960 1.341 . S
N963 N962 1.365 . S
N963 H983 0.862 . S
C964 C959 1.501 . S
C964 H965 0.961 . S
C964 H966 0.961 . S
C964 H967 0.960 . S
H965 C964 0.961 . S
H966 C964 0.961 . S
H967 C964 0.960 . S
C968 N969 1.342 . S
C968 C972 1.401 . S
C968 C973 1.499 . S
N969 Co952 1.989 . S
N969 C968 1.342 . S
N969 N970 1.388 . S
N970 Co953 1.993 . S
N970 N969 1.388 . S
N970 C971 1.346 . S
C971 N970 1.346 . S
C971 C972 1.396 . S
C971 C981 1.510 . S
C972 C968 1.401 . S
C972 C971 1.396 . S
C973 C968 1.499 . S
C973 H974 0.959 . S
C973 H975 0.960 . S
C973 H976 0.961 . S
H974 C973 0.959 . S
H975 C973 0.960 . S
H976 C973 0.961 . S
O977 Co952 1.967 . S
O977 C985 1.258 . S
O978 Co953 1.941 . S
O978 C985 1.266 . S
H979 C981 0.959 . S
H980 C981 0.961 . S
C981 C971 1.510 . S
C981 H979 0.959 . S
C981 H980 0.961 . S
C981 H982 0.960 . S
H982 C981 0.960 . S
H983 N963 0.862 . S
O984 Co952 1.920 . S
O984 C957 1.289 . S
C985 O977 1.258 . S
C985 O978 1.266 . S
Co986 O989 1.970 . S
Co986 N1003 1.989 . S
Co986 O1011 1.967 . S
Co986 O1018 1.920 1_455 S
Co987 O990 1.966 . S
Co987 N996 2.022 . S
Co987 N1004 1.993 . S
Co987 O1012 1.941 . S
C988 O989 1.258 . S
C988 O990 1.263 . S
O989 Co986 1.970 . S
O989 C988 1.258 . S
O990 Co987 1.966 . S
O990 C988 1.263 . S
C991 O992 1.235 . S
C991 O1018 1.289 . S
O992 C991 1.235 . S
C993 C995 1.400 . S
C993 N996 1.351 . S
C993 C998 1.501 . S
C994 C995 1.387 . S
C994 N997 1.341 . S
C995 C993 1.400 . S
C995 C994 1.387 . S
N996 Co987 2.022 . S
N996 C993 1.351 . S
N996 N997 1.365 . S
N997 C994 1.341 . S
N997 N996 1.365 . S
N997 H1017 0.862 . S
C998 C993 1.501 . S
C998 H999 0.961 . S
C998 H1000 0.961 . S
C998 H1001 0.960 . S
H999 C998 0.961 . S
H1000 C998 0.961 . S
H1001 C998 0.960 . S
C1002 N1003 1.342 . S
C1002 C1006 1.401 . S
C1002 C1007 1.499 . S
N1003 Co986 1.989 . S
N1003 C1002 1.342 . S
N1003 N1004 1.388 . S
N1004 Co987 1.993 . S
N1004 N1003 1.388 . S
N1004 C1005 1.346 . S
C1005 N1004 1.346 . S
C1005 C1006 1.396 . S
C1005 C1015 1.510 . S
C1006 C1002 1.401 . S
C1006 C1005 1.396 . S
C1007 C1002 1.499 . S
C1007 H1008 0.959 . S
C1007 H1009 0.960 . S
C1007 H1010 0.961 . S
H1008 C1007 0.959 . S
H1009 C1007 0.960 . S
H1010 C1007 0.961 . S
O1011 Co986 1.967 . S
O1011 C1019 1.258 . S
O1012 Co987 1.941 . S
O1012 C1019 1.266 . S
H1013 C1015 0.959 . S
H1014 C1015 0.961 . S
C1015 C1005 1.510 . S
C1015 H1013 0.959 . S
C1015 H1014 0.961 . S
C1015 H1016 0.960 . S
H1016 C1015 0.960 . S
H1017 N997 0.862 . S
O1018 Co986 1.920 1_655 S
O1018 C991 1.289 . S
C1019 O1011 1.258 . S
C1019 O1012 1.266 . S
Co1020 O1023 1.970 . S
Co1020 N1037 1.989 . S
Co1020 O1045 1.967 . S
Co1020 O1052 1.920 . S
Co1021 O1024 1.966 . S
Co1021 N1030 2.022 . S
Co1021 N1038 1.993 . S
Co1021 O1046 1.941 . S
C1022 O1023 1.258 . S
C1022 O1024 1.263 . S
O1023 Co1020 1.970 . S
O1023 C1022 1.258 . S
O1024 Co1021 1.966 . S
O1024 C1022 1.263 . S
C1025 O1026 1.235 . S
C1025 O1052 1.289 . S
O1026 C1025 1.235 . S
C1027 C1029 1.400 . S
C1027 N1030 1.351 . S
C1027 C1032 1.501 . S
C1028 C1029 1.387 . S
C1028 N1031 1.341 . S
C1029 C1027 1.400 . S
C1029 C1028 1.387 . S
N1030 Co1021 2.022 . S
N1030 C1027 1.351 . S
N1030 N1031 1.365 . S
N1031 C1028 1.341 . S
N1031 N1030 1.365 . S
N1031 H1051 0.862 . S
C1032 C1027 1.501 . S
C1032 H1033 0.961 . S
C1032 H1034 0.961 . S
C1032 H1035 0.960 . S
H1033 C1032 0.961 . S
H1034 C1032 0.961 . S
H1035 C1032 0.960 . S
C1036 N1037 1.342 . S
C1036 C1040 1.401 . S
C1036 C1041 1.499 . S
N1037 Co1020 1.989 . S
N1037 C1036 1.342 . S
N1037 N1038 1.388 . S
N1038 Co1021 1.993 . S
N1038 N1037 1.388 . S
N1038 C1039 1.346 . S
C1039 N1038 1.346 . S
C1039 C1040 1.396 . S
C1039 C1049 1.510 . S
C1040 C1036 1.401 . S
C1040 C1039 1.396 . S
C1041 C1036 1.499 . S
C1041 H1042 0.959 . S
C1041 H1043 0.960 . S
C1041 H1044 0.961 . S
H1042 C1041 0.959 . S
H1043 C1041 0.960 . S
H1044 C1041 0.961 . S
O1045 Co1020 1.967 . S
O1045 C1053 1.258 . S
O1046 Co1021 1.941 . S
O1046 C1053 1.266 . S
H1047 C1049 0.959 . S
H1048 C1049 0.961 . S
C1049 C1039 1.510 . S
C1049 H1047 0.959 . S
C1049 H1048 0.961 . S
C1049 H1050 0.960 . S
H1050 C1049 0.960 . S
H1051 N1031 0.862 . S
O1052 Co1020 1.920 . S
O1052 C1025 1.289 . S
C1053 O1045 1.258 . S
C1053 O1046 1.266 . S
Co1054 O1057 1.970 . S
Co1054 N1071 1.989 . S
Co1054 O1079 1.967 . S
Co1054 O1086 1.920 . S
Co1055 O1058 1.966 . S
Co1055 N1064 2.022 . S
Co1055 N1072 1.993 . S
Co1055 O1080 1.941 . S
C1056 O1057 1.258 . S
C1056 O1058 1.263 . S
O1057 Co1054 1.970 . S
O1057 C1056 1.258 . S
O1058 Co1055 1.966 . S
O1058 C1056 1.263 . S
C1059 O1060 1.235 . S
C1059 O1086 1.289 . S
O1060 C1059 1.235 . S
C1061 C1063 1.400 . S
C1061 N1064 1.351 . S
C1061 C1066 1.501 . S
C1062 C1063 1.387 . S
C1062 N1065 1.341 . S
C1063 C1061 1.400 . S
C1063 C1062 1.387 . S
N1064 Co1055 2.022 . S
N1064 C1061 1.351 . S
N1064 N1065 1.365 . S
N1065 C1062 1.341 . S
N1065 N1064 1.365 . S
N1065 H1085 0.862 . S
C1066 C1061 1.501 . S
C1066 H1067 0.961 . S
C1066 H1068 0.961 . S
C1066 H1069 0.960 . S
H1067 C1066 0.961 . S
H1068 C1066 0.961 . S
H1069 C1066 0.960 . S
C1070 N1071 1.342 . S
C1070 C1074 1.401 . S
C1070 C1075 1.499 . S
N1071 Co1054 1.989 . S
N1071 C1070 1.342 . S
N1071 N1072 1.388 . S
N1072 Co1055 1.993 . S
N1072 N1071 1.388 . S
N1072 C1073 1.346 . S
C1073 N1072 1.346 . S
C1073 C1074 1.396 . S
C1073 C1083 1.510 . S
C1074 C1070 1.401 . S
C1074 C1073 1.396 . S
C1075 C1070 1.499 . S
C1075 H1076 0.959 . S
C1075 H1077 0.960 . S
C1075 H1078 0.961 . S
H1076 C1075 0.959 . S
H1077 C1075 0.960 . S
H1078 C1075 0.961 . S
O1079 Co1054 1.967 . S
O1079 C1087 1.258 . S
O1080 Co1055 1.941 . S
O1080 C1087 1.266 . S
H1081 C1083 0.959 . S
H1082 C1083 0.961 . S
C1083 C1073 1.510 . S
C1083 H1081 0.959 . S
C1083 H1082 0.961 . S
C1083 H1084 0.960 . S
H1084 C1083 0.960 . S
H1085 N1065 0.862 . S
O1086 Co1054 1.920 . S
O1086 C1059 1.289 . S
C1087 O1079 1.258 . S
C1087 O1080 1.266 . S
H1088 C1096 0.929 . S
H1089 C1098 0.930 . S
H1090 C1100 0.930 . S
H1091 C1103 0.929 . S
H1092 C1106 0.930 . S
H1093 C1108 0.960 . S
H1094 C1108 0.960 . S
H1095 C1108 0.960 . S
C1096 H1088 0.929 . S
C1096 C1097 1.377 . S
C1096 C1098 1.384 . S
C1097 C1096 1.377 . S
C1097 C1103 1.390 . S
C1098 H1089 0.930 . S
C1098 C1096 1.384 . S
C1098 C1099 1.372 . S
C1099 C1098 1.372 . S
C1099 C1100 1.400 . S
C1099 C1104 1.490 . S
C1100 H1090 0.930 . S
C1100 C1099 1.400 . S
C1100 C1103 1.386 . S
H1101 C1117 0.930 . S
H1102 C1118 0.931 . S
C1103 H1091 0.929 . S
C1103 C1097 1.390 . S
C1103 C1100 1.386 . S
C1104 C1099 1.490 . S
C1104 C1106 1.395 . S
C1104 C1107 1.403 . S
H1105 C1111 0.930 . S
C1106 H1092 0.930 . S
C1106 C1104 1.395 . S
C1106 C1109 1.403 . S
C1107 C1104 1.403 . S
C1107 C1108 1.524 . S
C1107 C1111 1.400 . S
C1108 H1093 0.960 . S
C1108 H1094 0.960 . S
C1108 H1095 0.960 . S
C1108 C1107 1.524 . S
C1109 C1106 1.403 . S
C1109 C1110 1.392 . S
C1109 C1113 1.495 . S
C1110 C1109 1.392 . S
C1110 C1111 1.385 . S
C1110 C1112 1.478 . S
C1111 H1105 0.930 . S
C1111 C1107 1.400 . S
C1111 C1110 1.385 . S
C1112 C1110 1.478 . S
C1112 C1114 1.381 . S
C1112 C1118 1.383 . S
C1113 C1109 1.495 . S
C1113 H1119 0.959 . S
C1113 H1120 0.961 . S
C1113 H1121 0.960 . S
C1114 C1112 1.381 . S
C1114 C1115 1.394 . S
C1114 H1122 0.930 . S
C1115 C1114 1.394 . S
C1115 C1116 1.383 . S
C1115 H1123 0.929 . S
C1116 C1115 1.383 . S
C1116 C1117 1.377 . S
C1117 H1101 0.930 . S
C1117 C1116 1.377 . S
C1117 C1118 1.379 . S
C1118 H1102 0.931 . S
C1118 C1112 1.383 . S
C1118 C1117 1.379 . S
H1119 C1113 0.959 . S
H1120 C1113 0.961 . S
H1121 C1113 0.960 . S
H1122 C1114 0.930 . S
H1123 C1115 0.929 . S
H1124 C1132 0.929 . S
H1125 C1134 0.930 . S
H1126 C1136 0.930 . S
H1127 C1139 0.929 . S
H1128 C1142 0.930 . S
H1129 C1144 0.960 . S
H1130 C1144 0.960 . S
H1131 C1144 0.960 . S
C1132 H1124 0.929 . S
C1132 C1133 1.377 . S
C1132 C1134 1.384 . S
C1133 C1132 1.377 . S
C1133 C1139 1.390 . S
C1134 H1125 0.930 . S
C1134 C1132 1.384 . S
C1134 C1135 1.372 . S
C1135 C1134 1.372 . S
C1135 C1136 1.400 . S
C1135 C1140 1.490 . S
C1136 H1126 0.930 . S
C1136 C1135 1.400 . S
C1136 C1139 1.386 . S
H1137 C1153 0.930 . S
H1138 C1154 0.931 . S
C1139 H1127 0.929 . S
C1139 C1133 1.390 . S
C1139 C1136 1.386 . S
C1140 C1135 1.490 . S
C1140 C1142 1.395 . S
C1140 C1143 1.403 . S
H1141 C1147 0.930 . S
C1142 H1128 0.930 . S
C1142 C1140 1.395 . S
C1142 C1145 1.403 . S
C1143 C1140 1.403 . S
C1143 C1144 1.524 . S
C1143 C1147 1.400 . S
C1144 H1129 0.960 . S
C1144 H1130 0.960 . S
C1144 H1131 0.960 . S
C1144 C1143 1.524 . S
C1145 C1142 1.403 . S
C1145 C1146 1.392 . S
C1145 C1149 1.495 . S
C1146 C1145 1.392 . S
C1146 C1147 1.385 . S
C1146 C1148 1.478 . S
C1147 H1141 0.930 . S
C1147 C1143 1.400 . S
C1147 C1146 1.385 . S
C1148 C1146 1.478 . S
C1148 C1150 1.381 . S
C1148 C1154 1.383 . S
C1149 C1145 1.495 . S
C1149 H1155 0.959 . S
C1149 H1156 0.961 . S
C1149 H1157 0.960 . S
C1150 C1148 1.381 . S
C1150 C1151 1.394 . S
C1150 H1158 0.930 . S
C1151 C1150 1.394 . S
C1151 C1152 1.383 . S
C1151 H1159 0.929 . S
C1152 C1151 1.383 . S
C1152 C1153 1.377 . S
C1153 H1137 0.930 . S
C1153 C1152 1.377 . S
C1153 C1154 1.379 . S
C1154 H1138 0.931 . S
C1154 C1148 1.383 . S
C1154 C1153 1.379 . S
H1155 C1149 0.959 . S
H1156 C1149 0.961 . S
H1157 C1149 0.960 . S
H1158 C1150 0.930 . S
H1159 C1151 0.929 . S
H1160 C1168 0.929 . S
H1161 C1170 0.930 . S
H1162 C1172 0.930 . S
H1163 C1175 0.929 . S
H1164 C1178 0.930 . S
H1165 C1180 0.960 . S
H1166 C1180 0.960 . S
H1167 C1180 0.960 . S
C1168 H1160 0.929 . S
C1168 C1169 1.377 . S
C1168 C1170 1.384 . S
C1169 C1168 1.377 . S
C1169 C1175 1.390 . S
C1170 H1161 0.930 . S
C1170 C1168 1.384 . S
C1170 C1171 1.372 . S
C1171 C1170 1.372 . S
C1171 C1172 1.400 . S
C1171 C1176 1.490 . S
C1172 H1162 0.930 . S
C1172 C1171 1.400 . S
C1172 C1175 1.386 . S
H1173 C1189 0.930 . S
H1174 C1190 0.931 . S
C1175 H1163 0.929 . S
C1175 C1169 1.390 . S
C1175 C1172 1.386 . S
C1176 C1171 1.490 . S
C1176 C1178 1.395 . S
C1176 C1179 1.403 . S
H1177 C1183 0.930 . S
C1178 H1164 0.930 . S
C1178 C1176 1.395 . S
C1178 C1181 1.403 . S
C1179 C1176 1.403 . S
C1179 C1180 1.524 . S
C1179 C1183 1.400 . S
C1180 H1165 0.960 . S
C1180 H1166 0.960 . S
C1180 H1167 0.960 . S
C1180 C1179 1.524 . S
C1181 C1178 1.403 . S
C1181 C1182 1.392 . S
C1181 C1185 1.495 . S
C1182 C1181 1.392 . S
C1182 C1183 1.385 . S
C1182 C1184 1.478 . S
C1183 H1177 0.930 . S
C1183 C1179 1.400 . S
C1183 C1182 1.385 . S
C1184 C1182 1.478 . S
C1184 C1186 1.381 . S
C1184 C1190 1.383 . S
C1185 C1181 1.495 . S
C1185 H1191 0.959 . S
C1185 H1192 0.961 . S
C1185 H1193 0.960 . S
C1186 C1184 1.381 . S
C1186 C1187 1.394 . S
C1186 H1194 0.930 . S
C1187 C1186 1.394 . S
C1187 C1188 1.383 . S
C1187 H1195 0.929 . S
C1188 C1187 1.383 . S
C1188 C1189 1.377 . S
C1189 H1173 0.930 . S
C1189 C1188 1.377 . S
C1189 C1190 1.379 . S
C1190 H1174 0.931 . S
C1190 C1184 1.383 . S
C1190 C1189 1.379 . S
H1191 C1185 0.959 . S
H1192 C1185 0.961 . S
H1193 C1185 0.960 . S
H1194 C1186 0.930 . S
H1195 C1187 0.929 . S
H1196 C1204 0.929 . S
H1197 C1206 0.930 . S
H1198 C1208 0.930 . S
H1199 C1211 0.929 . S
H1200 C1214 0.930 . S
H1201 C1216 0.960 . S
H1202 C1216 0.960 . S
H1203 C1216 0.960 . S
C1204 H1196 0.929 . S
C1204 C1205 1.377 . S
C1204 C1206 1.384 . S
C1205 C1204 1.377 . S
C1205 C1211 1.390 . S
C1206 H1197 0.930 . S
C1206 C1204 1.384 . S
C1206 C1207 1.372 . S
C1207 C1206 1.372 . S
C1207 C1208 1.400 . S
C1207 C1212 1.490 . S
C1208 H1198 0.930 . S
C1208 C1207 1.400 . S
C1208 C1211 1.386 . S
H1209 C1225 0.930 . S
H1210 C1226 0.931 . S
C1211 H1199 0.929 . S
C1211 C1205 1.390 . S
C1211 C1208 1.386 . S
C1212 C1207 1.490 . S
C1212 C1214 1.395 . S
C1212 C1215 1.403 . S
H1213 C1219 0.930 . S
C1214 H1200 0.930 . S
C1214 C1212 1.395 . S
C1214 C1217 1.403 . S
C1215 C1212 1.403 . S
C1215 C1216 1.524 . S
C1215 C1219 1.400 . S
C1216 H1201 0.960 . S
C1216 H1202 0.960 . S
C1216 H1203 0.960 . S
C1216 C1215 1.524 . S
C1217 C1214 1.403 . S
C1217 C1218 1.392 . S
C1217 C1221 1.495 . S
C1218 C1217 1.392 . S
C1218 C1219 1.385 . S
C1218 C1220 1.478 . S
C1219 H1213 0.930 . S
C1219 C1215 1.400 . S
C1219 C1218 1.385 . S
C1220 C1218 1.478 . S
C1220 C1222 1.381 . S
C1220 C1226 1.383 . S
C1221 C1217 1.495 . S
C1221 H1227 0.959 . S
C1221 H1228 0.961 . S
C1221 H1229 0.960 . S
C1222 C1220 1.381 . S
C1222 C1223 1.394 . S
C1222 H1230 0.930 . S
C1223 C1222 1.394 . S
C1223 C1224 1.383 . S
C1223 H1231 0.929 . S
C1224 C1223 1.383 . S
C1224 C1225 1.377 . S
C1225 H1209 0.930 . S
C1225 C1224 1.377 . S
C1225 C1226 1.379 . S
C1226 H1210 0.931 . S
C1226 C1220 1.383 . S
C1226 C1225 1.379 . S
H1227 C1221 0.959 . S
H1228 C1221 0.961 . S
H1229 C1221 0.960 . S
H1230 C1222 0.930 . S
H1231 C1223 0.929 . S
H1232 C1240 0.929 . S
H1233 C1242 0.930 . S
H1234 C1244 0.930 . S
H1235 C1247 0.929 . S
H1236 C1250 0.930 . S
H1237 C1252 0.960 . S
H1238 C1252 0.960 . S
H1239 C1252 0.960 . S
C1240 H1232 0.929 . S
C1240 C1241 1.377 . S
C1240 C1242 1.384 . S
C1241 C1240 1.377 . S
C1241 C1247 1.390 . S
C1242 H1233 0.930 . S
C1242 C1240 1.384 . S
C1242 C1243 1.372 . S
C1243 C1242 1.372 . S
C1243 C1244 1.400 . S
C1243 C1248 1.490 . S
C1244 H1234 0.930 . S
C1244 C1243 1.400 . S
C1244 C1247 1.386 . S
H1245 C1261 0.930 . S
H1246 C1262 0.931 . S
C1247 H1235 0.929 . S
C1247 C1241 1.390 . S
C1247 C1244 1.386 . S
C1248 C1243 1.490 . S
C1248 C1250 1.395 . S
C1248 C1251 1.403 . S
H1249 C1255 0.930 . S
C1250 H1236 0.930 . S
C1250 C1248 1.395 . S
C1250 C1253 1.403 . S
C1251 C1248 1.403 . S
C1251 C1252 1.524 . S
C1251 C1255 1.400 . S
C1252 H1237 0.960 . S
C1252 H1238 0.960 . S
C1252 H1239 0.960 . S
C1252 C1251 1.524 . S
C1253 C1250 1.403 . S
C1253 C1254 1.392 . S
C1253 C1257 1.495 . S
C1254 C1253 1.392 . S
C1254 C1255 1.385 . S
C1254 C1256 1.478 . S
C1255 H1249 0.930 . S
C1255 C1251 1.400 . S
C1255 C1254 1.385 . S
C1256 C1254 1.478 . S
C1256 C1258 1.381 . S
C1256 C1262 1.383 . S
C1257 C1253 1.495 . S
C1257 H1263 0.959 . S
C1257 H1264 0.961 . S
C1257 H1265 0.960 . S
C1258 C1256 1.381 . S
C1258 C1259 1.394 . S
C1258 H1266 0.930 . S
C1259 C1258 1.394 . S
C1259 C1260 1.383 . S
C1259 H1267 0.929 . S
C1260 C1259 1.383 . S
C1260 C1261 1.377 . S
C1261 H1245 0.930 . S
C1261 C1260 1.377 . S
C1261 C1262 1.379 . S
C1262 H1246 0.931 . S
C1262 C1256 1.383 . S
C1262 C1261 1.379 . S
H1263 C1257 0.959 . S
H1264 C1257 0.961 . S
H1265 C1257 0.960 . S
H1266 C1258 0.930 . S
H1267 C1259 0.929 . S
H1268 C1276 0.929 . S
H1269 C1278 0.930 . S
H1270 C1280 0.930 . S
H1271 C1283 0.929 . S
H1272 C1286 0.930 . S
H1273 C1288 0.960 . S
H1274 C1288 0.960 . S
H1275 C1288 0.960 . S
C1276 H1268 0.929 . S
C1276 C1277 1.377 . S
C1276 C1278 1.384 . S
C1277 C1276 1.377 . S
C1277 C1283 1.390 . S
C1278 H1269 0.930 . S
C1278 C1276 1.384 . S
C1278 C1279 1.372 . S
C1279 C1278 1.372 . S
C1279 C1280 1.400 . S
C1279 C1284 1.490 . S
C1280 H1270 0.930 . S
C1280 C1279 1.400 . S
C1280 C1283 1.386 . S
H1281 C1297 0.930 . S
H1282 C1298 0.931 . S
C1283 H1271 0.929 . S
C1283 C1277 1.390 . S
C1283 C1280 1.386 . S
C1284 C1279 1.490 . S
C1284 C1286 1.395 . S
C1284 C1287 1.403 . S
H1285 C1291 0.930 . S
C1286 H1272 0.930 . S
C1286 C1284 1.395 . S
C1286 C1289 1.403 . S
C1287 C1284 1.403 . S
C1287 C1288 1.524 . S
C1287 C1291 1.400 . S
C1288 H1273 0.960 . S
C1288 H1274 0.960 . S
C1288 H1275 0.960 . S
C1288 C1287 1.524 . S
C1289 C1286 1.403 . S
C1289 C1290 1.392 . S
C1289 C1293 1.495 . S
C1290 C1289 1.392 . S
C1290 C1291 1.385 . S
C1290 C1292 1.478 . S
C1291 H1285 0.930 . S
C1291 C1287 1.400 . S
C1291 C1290 1.385 . S
C1292 C1290 1.478 . S
C1292 C1294 1.381 . S
C1292 C1298 1.383 . S
C1293 C1289 1.495 . S
C1293 H1299 0.959 . S
C1293 H1300 0.961 . S
C1293 H1301 0.960 . S
C1294 C1292 1.381 . S
C1294 C1295 1.394 . S
C1294 H1302 0.930 . S
C1295 C1294 1.394 . S
C1295 C1296 1.383 . S
C1295 H1303 0.929 . S
C1296 C1295 1.383 . S
C1296 C1297 1.377 . S
C1297 H1281 0.930 . S
C1297 C1296 1.377 . S
C1297 C1298 1.379 . S
C1298 H1282 0.931 . S
C1298 C1292 1.383 . S
C1298 C1297 1.379 . S
H1299 C1293 0.959 . S
H1300 C1293 0.961 . S
H1301 C1293 0.960 . S
H1302 C1294 0.930 . S
H1303 C1295 0.929 . S
H1304 C1312 0.929 . S
H1305 C1314 0.930 . S
H1306 C1316 0.930 . S
H1307 C1319 0.929 . S
H1308 C1322 0.930 . S
H1309 C1324 0.960 . S
H1310 C1324 0.960 . S
H1311 C1324 0.960 . S
C1312 H1304 0.929 . S
C1312 C1313 1.377 . S
C1312 C1314 1.384 . S
C1313 C1312 1.377 . S
C1313 C1319 1.390 . S
C1314 H1305 0.930 . S
C1314 C1312 1.384 . S
C1314 C1315 1.372 . S
C1315 C1314 1.372 . S
C1315 C1316 1.400 . S
C1315 C1320 1.490 . S
C1316 H1306 0.930 . S
C1316 C1315 1.400 . S
C1316 C1319 1.386 . S
H1317 C1333 0.930 . S
H1318 C1334 0.931 . S
C1319 H1307 0.929 . S
C1319 C1313 1.390 . S
C1319 C1316 1.386 . S
C1320 C1315 1.490 . S
C1320 C1322 1.395 . S
C1320 C1323 1.403 . S
H1321 C1327 0.930 . S
C1322 H1308 0.930 . S
C1322 C1320 1.395 . S
C1322 C1325 1.403 . S
C1323 C1320 1.403 . S
C1323 C1324 1.524 . S
C1323 C1327 1.400 . S
C1324 H1309 0.960 . S
C1324 H1310 0.960 . S
C1324 H1311 0.960 . S
C1324 C1323 1.524 . S
C1325 C1322 1.403 . S
C1325 C1326 1.392 . S
C1325 C1329 1.495 . S
C1326 C1325 1.392 . S
C1326 C1327 1.385 . S
C1326 C1328 1.478 . S
C1327 H1321 0.930 . S
C1327 C1323 1.400 . S
C1327 C1326 1.385 . S
C1328 C1326 1.478 . S
C1328 C1330 1.381 . S
C1328 C1334 1.383 . S
C1329 C1325 1.495 . S
C1329 H1335 0.959 . S
C1329 H1336 0.961 . S
C1329 H1337 0.960 . S
C1330 C1328 1.381 . S
C1330 C1331 1.394 . S
C1330 H1338 0.930 . S
C1331 C1330 1.394 . S
C1331 C1332 1.383 . S
C1331 H1339 0.929 . S
C1332 C1331 1.383 . S
C1332 C1333 1.377 . S
C1333 H1317 0.930 . S
C1333 C1332 1.377 . S
C1333 C1334 1.379 . S
C1334 H1318 0.931 . S
C1334 C1328 1.383 . S
C1334 C1333 1.379 . S
H1335 C1329 0.959 . S
H1336 C1329 0.961 . S
H1337 C1329 0.960 . S
H1338 C1330 0.930 . S
H1339 C1331 0.929 . S
H1340 C1348 0.929 . S
H1341 C1350 0.930 . S
H1342 C1352 0.930 . S
H1343 C1355 0.929 . S
H1344 C1358 0.930 . S
H1345 C1360 0.960 . S
H1346 C1360 0.960 . S
H1347 C1360 0.960 . S
C1348 H1340 0.929 . S
C1348 C1349 1.377 . S
C1348 C1350 1.384 . S
C1349 C1348 1.377 . S
C1349 C1355 1.390 . S
C1350 H1341 0.930 . S
C1350 C1348 1.384 . S
C1350 C1351 1.372 . S
C1351 C1350 1.372 . S
C1351 C1352 1.400 . S
C1351 C1356 1.490 . S
C1352 H1342 0.930 . S
C1352 C1351 1.400 . S
C1352 C1355 1.386 . S
H1353 C1369 0.930 . S
H1354 C1370 0.931 . S
C1355 H1343 0.929 . S
C1355 C1349 1.390 . S
C1355 C1352 1.386 . S
C1356 C1351 1.490 . S
C1356 C1358 1.395 . S
C1356 C1359 1.403 . S
H1357 C1363 0.930 . S
C1358 H1344 0.930 . S
C1358 C1356 1.395 . S
C1358 C1361 1.403 . S
C1359 C1356 1.403 . S
C1359 C1360 1.524 . S
C1359 C1363 1.400 . S
C1360 H1345 0.960 . S
C1360 H1346 0.960 . S
C1360 H1347 0.960 . S
C1360 C1359 1.524 . S
C1361 C1358 1.403 . S
C1361 C1362 1.392 . S
C1361 C1365 1.495 . S
C1362 C1361 1.392 . S
C1362 C1363 1.385 . S
C1362 C1364 1.478 . S
C1363 H1357 0.930 . S
C1363 C1359 1.400 . S
C1363 C1362 1.385 . S
C1364 C1362 1.478 . S
C1364 C1366 1.381 . S
C1364 C1370 1.383 . S
C1365 C1361 1.495 . S
C1365 H1371 0.959 . S
C1365 H1372 0.961 . S
C1365 H1373 0.960 . S
C1366 C1364 1.381 . S
C1366 C1367 1.394 . S
C1366 H1374 0.930 . S
C1367 C1366 1.394 . S
C1367 C1368 1.383 . S
C1367 H1375 0.929 . S
C1368 C1367 1.383 . S
C1368 C1369 1.377 . S
C1369 H1353 0.930 . S
C1369 C1368 1.377 . S
C1369 C1370 1.379 . S
C1370 H1354 0.931 . S
C1370 C1364 1.383 . S
C1370 C1369 1.379 . S
H1371 C1365 0.959 . S
H1372 C1365 0.961 . S
H1373 C1365 0.960 . S
H1374 C1366 0.930 . S
H1375 C1367 0.929 . S
H1376 C1384 0.929 . S
H1377 C1386 0.930 . S
H1378 C1388 0.930 . S
H1379 C1391 0.929 . S
H1380 C1394 0.930 . S
H1381 C1396 0.960 . S
H1382 C1396 0.960 . S
H1383 C1396 0.960 . S
C1384 H1376 0.929 . S
C1384 C1385 1.377 . S
C1384 C1386 1.384 . S
C1385 C1384 1.377 . S
C1385 C1391 1.390 . S
C1386 H1377 0.930 . S
C1386 C1384 1.384 . S
C1386 C1387 1.372 . S
C1387 C1386 1.372 . S
C1387 C1388 1.400 . S
C1387 C1392 1.490 . S
C1388 H1378 0.930 . S
C1388 C1387 1.400 . S
C1388 C1391 1.386 . S
H1389 C1405 0.930 . S
H1390 C1406 0.931 . S
C1391 H1379 0.929 . S
C1391 C1385 1.390 . S
C1391 C1388 1.386 . S
C1392 C1387 1.490 . S
C1392 C1394 1.395 . S
C1392 C1395 1.403 . S
H1393 C1399 0.930 . S
C1394 H1380 0.930 . S
C1394 C1392 1.395 . S
C1394 C1397 1.403 . S
C1395 C1392 1.403 . S
C1395 C1396 1.524 . S
C1395 C1399 1.400 . S
C1396 H1381 0.960 . S
C1396 H1382 0.960 . S
C1396 H1383 0.960 . S
C1396 C1395 1.524 . S
C1397 C1394 1.403 . S
C1397 C1398 1.392 . S
C1397 C1401 1.495 . S
C1398 C1397 1.392 . S
C1398 C1399 1.385 . S
C1398 C1400 1.478 . S
C1399 H1393 0.930 . S
C1399 C1395 1.400 . S
C1399 C1398 1.385 . S
C1400 C1398 1.478 . S
C1400 C1402 1.381 . S
C1400 C1406 1.383 . S
C1401 C1397 1.495 . S
C1401 H1407 0.959 . S
C1401 H1408 0.961 . S
C1401 H1409 0.960 . S
C1402 C1400 1.381 . S
C1402 C1403 1.394 . S
C1402 H1410 0.930 . S
C1403 C1402 1.394 . S
C1403 C1404 1.383 . S
C1403 H1411 0.929 . S
C1404 C1403 1.383 . S
C1404 C1405 1.377 . S
C1405 H1389 0.930 . S
C1405 C1404 1.377 . S
C1405 C1406 1.379 . S
C1406 H1390 0.931 . S
C1406 C1400 1.383 . S
C1406 C1405 1.379 . S
H1407 C1401 0.959 . S
H1408 C1401 0.961 . S
H1409 C1401 0.960 . S
H1410 C1402 0.930 . S
H1411 C1403 0.929 . S
H1412 C1420 0.929 . S
H1413 C1422 0.930 . S
H1414 C1424 0.930 . S
H1415 C1427 0.929 . S
H1416 C1430 0.930 . S
H1417 C1432 0.960 . S
H1418 C1432 0.960 . S
H1419 C1432 0.960 . S
C1420 H1412 0.929 . S
C1420 C1421 1.377 . S
C1420 C1422 1.384 . S
C1421 C1420 1.377 . S
C1421 C1427 1.390 . S
C1422 H1413 0.930 . S
C1422 C1420 1.384 . S
C1422 C1423 1.372 . S
C1423 C1422 1.372 . S
C1423 C1424 1.400 . S
C1423 C1428 1.490 . S
C1424 H1414 0.930 . S
C1424 C1423 1.400 . S
C1424 C1427 1.386 . S
H1425 C1441 0.930 . S
H1426 C1442 0.931 . S
C1427 H1415 0.929 . S
C1427 C1421 1.390 . S
C1427 C1424 1.386 . S
C1428 C1423 1.490 . S
C1428 C1430 1.395 . S
C1428 C1431 1.403 . S
H1429 C1435 0.930 . S
C1430 H1416 0.930 . S
C1430 C1428 1.395 . S
C1430 C1433 1.403 . S
C1431 C1428 1.403 . S
C1431 C1432 1.524 . S
C1431 C1435 1.400 . S
C1432 H1417 0.960 . S
C1432 H1418 0.960 . S
C1432 H1419 0.960 . S
C1432 C1431 1.524 . S
C1433 C1430 1.403 . S
C1433 C1434 1.392 . S
C1433 C1437 1.495 . S
C1434 C1433 1.392 . S
C1434 C1435 1.385 . S
C1434 C1436 1.478 . S
C1435 H1429 0.930 . S
C1435 C1431 1.400 . S
C1435 C1434 1.385 . S
C1436 C1434 1.478 . S
C1436 C1438 1.381 . S
C1436 C1442 1.383 . S
C1437 C1433 1.495 . S
C1437 H1443 0.959 . S
C1437 H1444 0.961 . S
C1437 H1445 0.960 . S
C1438 C1436 1.381 . S
C1438 C1439 1.394 . S
C1438 H1446 0.930 . S
C1439 C1438 1.394 . S
C1439 C1440 1.383 . S
C1439 H1447 0.929 . S
C1440 C1439 1.383 . S
C1440 C1441 1.377 . S
C1441 H1425 0.930 . S
C1441 C1440 1.377 . S
C1441 C1442 1.379 . S
C1442 H1426 0.931 . S
C1442 C1436 1.383 . S
C1442 C1441 1.379 . S
H1443 C1437 0.959 . S
H1444 C1437 0.961 . S
H1445 C1437 0.960 . S
H1446 C1438 0.930 . S
H1447 C1439 0.929 . S
H1448 C1456 0.929 . S
H1449 C1458 0.930 . S
H1450 C1460 0.930 . S
H1451 C1463 0.929 . S
H1452 C1466 0.930 . S
H1453 C1468 0.960 . S
H1454 C1468 0.960 . S
H1455 C1468 0.960 . S
C1456 H1448 0.929 . S
C1456 C1457 1.377 . S
C1456 C1458 1.384 . S
C1457 C1456 1.377 . S
C1457 C1463 1.390 . S
C1458 H1449 0.930 . S
C1458 C1456 1.384 . S
C1458 C1459 1.372 . S
C1459 C1458 1.372 . S
C1459 C1460 1.400 . S
C1459 C1464 1.490 . S
C1460 H1450 0.930 . S
C1460 C1459 1.400 . S
C1460 C1463 1.386 . S
H1461 C1477 0.930 . S
H1462 C1478 0.931 . S
C1463 H1451 0.929 . S
C1463 C1457 1.390 . S
C1463 C1460 1.386 . S
C1464 C1459 1.490 . S
C1464 C1466 1.395 . S
C1464 C1467 1.403 . S
H1465 C1471 0.930 . S
C1466 H1452 0.930 . S
C1466 C1464 1.395 . S
C1466 C1469 1.403 . S
C1467 C1464 1.403 . S
C1467 C1468 1.524 . S
C1467 C1471 1.400 . S
C1468 H1453 0.960 . S
C1468 H1454 0.960 . S
C1468 H1455 0.960 . S
C1468 C1467 1.524 . S
C1469 C1466 1.403 . S
C1469 C1470 1.392 . S
C1469 C1473 1.495 . S
C1470 C1469 1.392 . S
C1470 C1471 1.385 . S
C1470 C1472 1.478 . S
C1471 H1465 0.930 . S
C1471 C1467 1.400 . S
C1471 C1470 1.385 . S
C1472 C1470 1.478 . S
C1472 C1474 1.381 . S
C1472 C1478 1.383 . S
C1473 C1469 1.495 . S
C1473 H1479 0.959 . S
C1473 H1480 0.961 . S
C1473 H1481 0.960 . S
C1474 C1472 1.381 . S
C1474 C1475 1.394 . S
C1474 H1482 0.930 . S
C1475 C1474 1.394 . S
C1475 C1476 1.383 . S
C1475 H1483 0.929 . S
C1476 C1475 1.383 . S
C1476 C1477 1.377 . S
C1477 H1461 0.930 . S
C1477 C1476 1.377 . S
C1477 C1478 1.379 . S
C1478 H1462 0.931 . S
C1478 C1472 1.383 . S
C1478 C1477 1.379 . S
H1479 C1473 0.959 . S
H1480 C1473 0.961 . S
H1481 C1473 0.960 . S
H1482 C1474 0.930 . S
H1483 C1475 0.929 . S
H1484 C1492 0.929 . S
H1485 C1494 0.930 . S
H1486 C1496 0.930 . S
H1487 C1499 0.929 . S
H1488 C1502 0.930 . S
H1489 C1504 0.960 . S
H1490 C1504 0.960 . S
H1491 C1504 0.960 . S
C1492 H1484 0.929 . S
C1492 C1493 1.377 . S
C1492 C1494 1.384 . S
C1493 C1492 1.377 . S
C1493 C1499 1.390 . S
C1494 H1485 0.930 . S
C1494 C1492 1.384 . S
C1494 C1495 1.372 . S
C1495 C1494 1.372 . S
C1495 C1496 1.400 . S
C1495 C1500 1.490 . S
C1496 H1486 0.930 . S
C1496 C1495 1.400 . S
C1496 C1499 1.386 . S
H1497 C1513 0.930 . S
H1498 C1514 0.931 . S
C1499 H1487 0.929 . S
C1499 C1493 1.390 . S
C1499 C1496 1.386 . S
C1500 C1495 1.490 . S
C1500 C1502 1.395 . S
C1500 C1503 1.403 . S
H1501 C1507 0.930 . S
C1502 H1488 0.930 . S
C1502 C1500 1.395 . S
C1502 C1505 1.403 . S
C1503 C1500 1.403 . S
C1503 C1504 1.524 . S
C1503 C1507 1.400 . S
C1504 H1489 0.960 . S
C1504 H1490 0.960 . S
C1504 H1491 0.960 . S
C1504 C1503 1.524 . S
C1505 C1502 1.403 . S
C1505 C1506 1.392 . S
C1505 C1509 1.495 . S
C1506 C1505 1.392 . S
C1506 C1507 1.385 . S
C1506 C1508 1.478 . S
C1507 H1501 0.930 . S
C1507 C1503 1.400 . S
C1507 C1506 1.385 . S
C1508 C1506 1.478 . S
C1508 C1510 1.381 . S
C1508 C1514 1.383 . S
C1509 C1505 1.495 . S
C1509 H1515 0.959 . S
C1509 H1516 0.961 . S
C1509 H1517 0.960 . S
C1510 C1508 1.381 . S
C1510 C1511 1.394 . S
C1510 H1518 0.930 . S
C1511 C1510 1.394 . S
C1511 C1512 1.383 . S
C1511 H1519 0.929 . S
C1512 C1511 1.383 . S
C1512 C1513 1.377 . S
C1513 H1497 0.930 . S
C1513 C1512 1.377 . S
C1513 C1514 1.379 . S
C1514 H1498 0.931 . S
C1514 C1508 1.383 . S
C1514 C1513 1.379 . S
H1515 C1509 0.959 . S
H1516 C1509 0.961 . S
H1517 C1509 0.960 . S
H1518 C1510 0.930 . S
H1519 C1511 0.929 . S
H1520 C1528 0.929 . S
H1521 C1530 0.930 . S
H1522 C1532 0.930 . S
H1523 C1535 0.929 . S
H1524 C1538 0.930 . S
H1525 C1540 0.960 . S
H1526 C1540 0.960 . S
H1527 C1540 0.960 . S
C1528 H1520 0.929 . S
C1528 C1529 1.377 . S
C1528 C1530 1.384 . S
C1529 C1528 1.377 . S
C1529 C1535 1.390 . S
C1530 H1521 0.930 . S
C1530 C1528 1.384 . S
C1530 C1531 1.372 . S
C1531 C1530 1.372 . S
C1531 C1532 1.400 . S
C1531 C1536 1.490 . S
C1532 H1522 0.930 . S
C1532 C1531 1.400 . S
C1532 C1535 1.386 . S
H1533 C1549 0.930 . S
H1534 C1550 0.931 . S
C1535 H1523 0.929 . S
C1535 C1529 1.390 . S
C1535 C1532 1.386 . S
C1536 C1531 1.490 . S
C1536 C1538 1.395 . S
C1536 C1539 1.403 . S
H1537 C1543 0.930 . S
C1538 H1524 0.930 . S
C1538 C1536 1.395 . S
C1538 C1541 1.403 . S
C1539 C1536 1.403 . S
C1539 C1540 1.524 . S
C1539 C1543 1.400 . S
C1540 H1525 0.960 . S
C1540 H1526 0.960 . S
C1540 H1527 0.960 . S
C1540 C1539 1.524 . S
C1541 C1538 1.403 . S
C1541 C1542 1.392 . S
C1541 C1545 1.495 . S
C1542 C1541 1.392 . S
C1542 C1543 1.385 . S
C1542 C1544 1.478 . S
C1543 H1537 0.930 . S
C1543 C1539 1.400 . S
C1543 C1542 1.385 . S
C1544 C1542 1.478 . S
C1544 C1546 1.381 . S
C1544 C1550 1.383 . S
C1545 C1541 1.495 . S
C1545 H1551 0.959 . S
C1545 H1552 0.961 . S
C1545 H1553 0.960 . S
C1546 C1544 1.381 . S
C1546 C1547 1.394 . S
C1546 H1554 0.930 . S
C1547 C1546 1.394 . S
C1547 C1548 1.383 . S
C1547 H1555 0.929 . S
C1548 C1547 1.383 . S
C1548 C1549 1.377 . S
C1549 H1533 0.930 . S
C1549 C1548 1.377 . S
C1549 C1550 1.379 . S
C1550 H1534 0.931 . S
C1550 C1544 1.383 . S
C1550 C1549 1.379 . S
H1551 C1545 0.959 . S
H1552 C1545 0.961 . S
H1553 C1545 0.960 . S
H1554 C1546 0.930 . S
H1555 C1547 0.929 . S
H1556 C1564 0.929 . S
H1557 C1566 0.930 . S
H1558 C1568 0.930 . S
H1559 C1571 0.929 . S
H1560 C1574 0.930 . S
H1561 C1576 0.960 . S
H1562 C1576 0.960 . S
H1563 C1576 0.960 . S
C1564 H1556 0.929 . S
C1564 C1565 1.377 . S
C1564 C1566 1.384 . S
C1565 C1564 1.377 . S
C1565 C1571 1.390 . S
C1566 H1557 0.930 . S
C1566 C1564 1.384 . S
C1566 C1567 1.372 . S
C1567 C1566 1.372 . S
C1567 C1568 1.400 . S
C1567 C1572 1.490 . S
C1568 H1558 0.930 . S
C1568 C1567 1.400 . S
C1568 C1571 1.386 . S
H1569 C1585 0.930 . S
H1570 C1586 0.931 . S
C1571 H1559 0.929 . S
C1571 C1565 1.390 . S
C1571 C1568 1.386 . S
C1572 C1567 1.490 . S
C1572 C1574 1.395 . S
C1572 C1575 1.403 . S
H1573 C1579 0.930 . S
C1574 H1560 0.930 . S
C1574 C1572 1.395 . S
C1574 C1577 1.403 . S
C1575 C1572 1.403 . S
C1575 C1576 1.524 . S
C1575 C1579 1.400 . S
C1576 H1561 0.960 . S
C1576 H1562 0.960 . S
C1576 H1563 0.960 . S
C1576 C1575 1.524 . S
C1577 C1574 1.403 . S
C1577 C1578 1.392 . S
C1577 C1581 1.495 . S
C1578 C1577 1.392 . S
C1578 C1579 1.385 . S
C1578 C1580 1.478 . S
C1579 H1573 0.930 . S
C1579 C1575 1.400 . S
C1579 C1578 1.385 . S
C1580 C1578 1.478 . S
C1580 C1582 1.381 . S
C1580 C1586 1.383 . S
C1581 C1577 1.495 . S
C1581 H1587 0.959 . S
C1581 H1588 0.961 . S
C1581 H1589 0.960 . S
C1582 C1580 1.381 . S
C1582 C1583 1.394 . S
C1582 H1590 0.930 . S
C1583 C1582 1.394 . S
C1583 C1584 1.383 . S
C1583 H1591 0.929 . S
C1584 C1583 1.383 . S
C1584 C1585 1.377 . S
C1585 H1569 0.930 . S
C1585 C1584 1.377 . S
C1585 C1586 1.379 . S
C1586 H1570 0.931 . S
C1586 C1580 1.383 . S
C1586 C1585 1.379 . S
H1587 C1581 0.959 . S
H1588 C1581 0.961 . S
H1589 C1581 0.960 . S
H1590 C1582 0.930 . S
H1591 C1583 0.929 . S
H1592 C1600 0.929 . S
H1593 C1602 0.930 . S
H1594 C1604 0.930 . S
H1595 C1607 0.929 . S
H1596 C1610 0.930 . S
H1597 C1612 0.960 . S
H1598 C1612 0.960 . S
H1599 C1612 0.960 . S
C1600 H1592 0.929 . S
C1600 C1601 1.377 . S
C1600 C1602 1.384 . S
C1601 C1600 1.377 . S
C1601 C1607 1.390 . S
C1602 H1593 0.930 . S
C1602 C1600 1.384 . S
C1602 C1603 1.372 . S
C1603 C1602 1.372 . S
C1603 C1604 1.400 . S
C1603 C1608 1.490 . S
C1604 H1594 0.930 . S
C1604 C1603 1.400 . S
C1604 C1607 1.386 . S
H1605 C1621 0.930 . S
H1606 C1622 0.931 . S
C1607 H1595 0.929 . S
C1607 C1601 1.390 . S
C1607 C1604 1.386 . S
C1608 C1603 1.490 . S
C1608 C1610 1.395 . S
C1608 C1611 1.403 . S
H1609 C1615 0.930 . S
C1610 H1596 0.930 . S
C1610 C1608 1.395 . S
C1610 C1613 1.403 . S
C1611 C1608 1.403 . S
C1611 C1612 1.524 . S
C1611 C1615 1.400 . S
C1612 H1597 0.960 . S
C1612 H1598 0.960 . S
C1612 H1599 0.960 . S
C1612 C1611 1.524 . S
C1613 C1610 1.403 . S
C1613 C1614 1.392 . S
C1613 C1617 1.495 . S
C1614 C1613 1.392 . S
C1614 C1615 1.385 . S
C1614 C1616 1.478 . S
C1615 H1609 0.930 . S
C1615 C1611 1.400 . S
C1615 C1614 1.385 . S
C1616 C1614 1.478 . S
C1616 C1618 1.381 . S
C1616 C1622 1.383 . S
C1617 C1613 1.495 . S
C1617 H1623 0.959 . S
C1617 H1624 0.961 . S
C1617 H1625 0.960 . S
C1618 C1616 1.381 . S
C1618 C1619 1.394 . S
C1618 H1626 0.930 . S
C1619 C1618 1.394 . S
C1619 C1620 1.383 . S
C1619 H1627 0.929 . S
C1620 C1619 1.383 . S
C1620 C1621 1.377 . S
C1621 H1605 0.930 . S
C1621 C1620 1.377 . S
C1621 C1622 1.379 . S
C1622 H1606 0.931 . S
C1622 C1616 1.383 . S
C1622 C1621 1.379 . S
H1623 C1617 0.959 . S
H1624 C1617 0.961 . S
H1625 C1617 0.960 . S
H1626 C1618 0.930 . S
H1627 C1619 0.929 . S
H1628 C1636 0.929 . S
H1629 C1638 0.930 . S
H1630 C1640 0.930 . S
H1631 C1643 0.929 . S
H1632 C1646 0.930 . S
H1633 C1648 0.960 . S
H1634 C1648 0.960 . S
H1635 C1648 0.960 . S
C1636 H1628 0.929 . S
C1636 C1637 1.377 . S
C1636 C1638 1.384 . S
C1637 C1636 1.377 . S
C1637 C1643 1.390 . S
C1638 H1629 0.930 . S
C1638 C1636 1.384 . S
C1638 C1639 1.372 . S
C1639 C1638 1.372 . S
C1639 C1640 1.400 . S
C1639 C1644 1.490 . S
C1640 H1630 0.930 . S
C1640 C1639 1.400 . S
C1640 C1643 1.386 . S
H1641 C1657 0.930 . S
H1642 C1658 0.931 . S
C1643 H1631 0.929 . S
C1643 C1637 1.390 . S
C1643 C1640 1.386 . S
C1644 C1639 1.490 . S
C1644 C1646 1.395 . S
C1644 C1647 1.403 . S
H1645 C1651 0.930 . S
C1646 H1632 0.930 . S
C1646 C1644 1.395 . S
C1646 C1649 1.403 . S
C1647 C1644 1.403 . S
C1647 C1648 1.524 . S
C1647 C1651 1.400 . S
C1648 H1633 0.960 . S
C1648 H1634 0.960 . S
C1648 H1635 0.960 . S
C1648 C1647 1.524 . S
C1649 C1646 1.403 . S
C1649 C1650 1.392 . S
C1649 C1653 1.495 . S
C1650 C1649 1.392 . S
C1650 C1651 1.385 . S
C1650 C1652 1.478 . S
C1651 H1645 0.930 . S
C1651 C1647 1.400 . S
C1651 C1650 1.385 . S
C1652 C1650 1.478 . S
C1652 C1654 1.381 . S
C1652 C1658 1.383 . S
C1653 C1649 1.495 . S
C1653 H1659 0.959 . S
C1653 H1660 0.961 . S
C1653 H1661 0.960 . S
C1654 C1652 1.381 . S
C1654 C1655 1.394 . S
C1654 H1662 0.930 . S
C1655 C1654 1.394 . S
C1655 C1656 1.383 . S
C1655 H1663 0.929 . S
C1656 C1655 1.383 . S
C1656 C1657 1.377 . S
C1657 H1641 0.930 . S
C1657 C1656 1.377 . S
C1657 C1658 1.379 . S
C1658 H1642 0.931 . S
C1658 C1652 1.383 . S
C1658 C1657 1.379 . S
H1659 C1653 0.959 . S
H1660 C1653 0.961 . S
H1661 C1653 0.960 . S
H1662 C1654 0.930 . S
H1663 C1655 0.929 . S
H1664 C1672 0.929 . S
H1665 C1674 0.930 . S
H1666 C1676 0.930 . S
H1667 C1679 0.929 . S
H1668 C1682 0.930 . S
H1669 C1684 0.960 . S
H1670 C1684 0.960 . S
H1671 C1684 0.960 . S
C1672 H1664 0.929 . S
C1672 C1673 1.377 . S
C1672 C1674 1.384 . S
C1673 C1672 1.377 . S
C1673 C1679 1.390 . S
C1674 H1665 0.930 . S
C1674 C1672 1.384 . S
C1674 C1675 1.372 . S
C1675 C1674 1.372 . S
C1675 C1676 1.400 . S
C1675 C1680 1.490 . S
C1676 H1666 0.930 . S
C1676 C1675 1.400 . S
C1676 C1679 1.386 . S
H1677 C1693 0.930 . S
H1678 C1694 0.931 . S
C1679 H1667 0.929 . S
C1679 C1673 1.390 . S
C1679 C1676 1.386 . S
C1680 C1675 1.490 . S
C1680 C1682 1.395 . S
C1680 C1683 1.403 . S
H1681 C1687 0.930 . S
C1682 H1668 0.930 . S
C1682 C1680 1.395 . S
C1682 C1685 1.403 1_556 S
C1683 C1680 1.403 . S
C1683 C1684 1.524 . S
C1683 C1687 1.400 1_556 S
C1684 H1669 0.960 . S
C1684 H1670 0.960 . S
C1684 H1671 0.960 . S
C1684 C1683 1.524 . S
C1685 C1682 1.403 1_554 S
C1685 C1686 1.392 . S
C1685 C1689 1.495 . S
C1686 C1685 1.392 . S
C1686 C1687 1.385 . S
C1686 C1688 1.478 . S
C1687 H1681 0.930 . S
C1687 C1683 1.400 1_554 S
C1687 C1686 1.385 . S
C1688 C1686 1.478 . S
C1688 C1690 1.381 . S
C1688 C1694 1.383 . S
C1689 C1685 1.495 . S
C1689 H1695 0.959 . S
C1689 H1696 0.961 . S
C1689 H1697 0.960 . S
C1690 C1688 1.381 . S
C1690 C1691 1.394 . S
C1690 H1698 0.930 . S
C1691 C1690 1.394 . S
C1691 C1692 1.383 . S
C1691 H1699 0.929 . S
C1692 C1691 1.383 . S
C1692 C1693 1.377 . S
C1693 H1677 0.930 . S
C1693 C1692 1.377 . S
C1693 C1694 1.379 . S
C1694 H1678 0.931 . S
C1694 C1688 1.383 . S
C1694 C1693 1.379 . S
H1695 C1689 0.959 . S
H1696 C1689 0.961 . S
H1697 C1689 0.960 . S
H1698 C1690 0.930 . S
H1699 C1691 0.929 . S
H1700 C1708 0.929 . S
H1701 C1710 0.930 . S
H1702 C1712 0.930 . S
H1703 C1715 0.929 . S
H1704 C1718 0.930 . S
H1705 C1720 0.960 . S
H1706 C1720 0.960 . S
H1707 C1720 0.960 . S
C1708 H1700 0.929 . S
C1708 C1709 1.377 1_565 S
C1708 C1710 1.384 . S
C1709 C1708 1.377 1_545 S
C1709 C1715 1.390 . S
C1710 H1701 0.930 . S
C1710 C1708 1.384 . S
C1710 C1711 1.372 1_565 S
C1711 C1710 1.372 1_545 S
C1711 C1712 1.400 . S
C1711 C1716 1.488 1_545 S
C1712 H1702 0.930 . S
C1712 C1711 1.400 . S
C1712 C1715 1.386 . S
H1713 C1729 0.930 . S
H1714 C1730 0.931 . S
C1715 H1703 0.929 . S
C1715 C1709 1.390 . S
C1715 C1712 1.386 . S
C1716 C1711 1.488 1_565 S
C1716 C1718 1.415 . S
C1716 C1719 1.385 1_565 S
H1717 C1723 0.930 . S
C1718 H1704 0.930 . S
C1718 C1716 1.415 . S
C1718 C1721 1.403 . S
C1719 C1716 1.385 1_545 S
C1719 C1720 1.524 . S
C1719 C1723 1.400 . S
C1720 H1705 0.960 . S
C1720 H1706 0.960 . S
C1720 H1707 0.960 . S
C1720 C1719 1.524 . S
C1721 C1718 1.403 . S
C1721 C1722 1.392 . S
C1721 C1725 1.495 . S
C1722 C1721 1.392 . S
C1722 C1723 1.385 1_565 S
C1722 C1724 1.478 . S
C1723 H1717 0.930 . S
C1723 C1719 1.400 . S
C1723 C1722 1.385 1_545 S
C1724 C1722 1.478 . S
C1724 C1726 1.381 . S
C1724 C1730 1.383 1_565 S
C1725 C1721 1.495 . S
C1725 H1731 0.959 . S
C1725 H1732 0.961 . S
C1725 H1733 0.960 . S
C1726 C1724 1.381 . S
C1726 C1727 1.394 . S
C1726 H1734 0.930 . S
C1727 C1726 1.394 . S
C1727 C1728 1.383 . S
C1727 H1735 0.929 . S
C1728 C1727 1.383 . S
C1728 C1729 1.377 1_565 S
C1729 H1713 0.930 . S
C1729 C1728 1.377 1_545 S
C1729 C1730 1.379 . S
C1730 H1714 0.931 . S
C1730 C1724 1.383 1_545 S
C1730 C1729 1.379 . S
H1731 C1725 0.959 . S
H1732 C1725 0.961 . S
H1733 C1725 0.960 . S
H1734 C1726 0.930 . S
H1735 C1727 0.929 . S
H1736 C1744 0.929 . S
H1737 C1746 0.930 . S
H1738 C1748 0.930 . S
H1739 C1751 0.929 . S
H1740 C1754 0.930 . S
H1741 C1756 0.960 . S
H1742 C1756 0.960 . S
H1743 C1756 0.960 . S
C1744 H1736 0.929 . S
C1744 C1745 1.377 . S
C1744 C1746 1.384 . S
C1745 C1744 1.377 . S
C1745 C1751 1.390 . S
C1746 H1737 0.930 . S
C1746 C1744 1.384 . S
C1746 C1747 1.372 . S
C1747 C1746 1.372 . S
C1747 C1748 1.400 . S
C1747 C1752 1.490 . S
C1748 H1738 0.930 . S
C1748 C1747 1.400 . S
C1748 C1751 1.386 . S
H1749 C1765 0.930 . S
H1750 C1766 0.931 . S
C1751 H1739 0.929 . S
C1751 C1745 1.390 . S
C1751 C1748 1.386 . S
C1752 C1747 1.490 . S
C1752 C1754 1.395 . S
C1752 C1755 1.403 . S
H1753 C1759 0.930 . S
C1754 H1740 0.930 . S
C1754 C1752 1.395 . S
C1754 C1757 1.403 . S
C1755 C1752 1.403 . S
C1755 C1756 1.524 . S
C1755 C1759 1.400 . S
C1756 H1741 0.960 . S
C1756 H1742 0.960 . S
C1756 H1743 0.960 . S
C1756 C1755 1.524 . S
C1757 C1754 1.403 . S
C1757 C1758 1.392 . S
C1757 C1761 1.495 . S
C1758 C1757 1.392 . S
C1758 C1759 1.385 . S
C1758 C1760 1.478 . S
C1759 H1753 0.930 . S
C1759 C1755 1.400 . S
C1759 C1758 1.385 . S
C1760 C1758 1.478 . S
C1760 C1762 1.381 . S
C1760 C1766 1.383 . S
C1761 C1757 1.495 . S
C1761 H1767 0.959 . S
C1761 H1768 0.961 . S
C1761 H1769 0.960 . S
C1762 C1760 1.381 . S
C1762 C1763 1.394 . S
C1762 H1770 0.930 . S
C1763 C1762 1.394 . S
C1763 C1764 1.383 . S
C1763 H1771 0.929 . S
C1764 C1763 1.383 . S
C1764 C1765 1.377 . S
C1765 H1749 0.930 . S
C1765 C1764 1.377 . S
C1765 C1766 1.379 . S
C1766 H1750 0.931 . S
C1766 C1760 1.383 . S
C1766 C1765 1.379 . S
H1767 C1761 0.959 . S
H1768 C1761 0.961 . S
H1769 C1761 0.960 . S
H1770 C1762 0.930 . S
H1771 C1763 0.929 . S
H1772 C1780 0.929 . S
H1773 C1782 0.930 . S
H1774 C1784 0.930 . S
H1775 C1787 0.929 . S
H1776 C1790 0.930 . S
H1777 C1792 0.960 . S
H1778 C1792 0.960 . S
H1779 C1792 0.960 . S
C1780 H1772 0.929 . S
C1780 C1781 1.377 . S
C1780 C1782 1.384 . S
C1781 C1780 1.377 . S
C1781 C1787 1.390 1_565 S
C1782 H1773 0.930 . S
C1782 C1780 1.384 . S
C1782 C1783 1.372 . S
C1783 C1782 1.372 . S
C1783 C1784 1.400 1_565 S
C1783 C1788 1.490 . S
C1784 H1774 0.930 . S
C1784 C1783 1.400 1_545 S
C1784 C1787 1.386 . S
H1785 C1801 0.930 . S
H1786 C1802 0.931 . S
C1787 H1775 0.929 . S
C1787 C1781 1.390 1_545 S
C1787 C1784 1.386 . S
C1788 C1783 1.490 . S
C1788 C1790 1.395 . S
C1788 C1791 1.403 1_565 S
H1789 C1795 0.930 . S
C1790 H1776 0.930 . S
C1790 C1788 1.395 . S
C1790 C1793 1.403 . S
C1791 C1788 1.403 1_545 S
C1791 C1792 1.524 . S
C1791 C1795 1.400 . S
C1792 H1777 0.960 . S
C1792 H1778 0.960 . S
C1792 H1779 0.960 . S
C1792 C1791 1.524 . S
C1793 C1790 1.403 . S
C1793 C1794 1.392 . S
C1793 C1797 1.495 . S
C1794 C1793 1.392 . S
C1794 C1795 1.385 1_565 S
C1794 C1796 1.478 . S
C1795 H1789 0.930 . S
C1795 C1791 1.400 . S
C1795 C1794 1.385 1_545 S
C1796 C1794 1.478 . S
C1796 C1798 1.381 . S
C1796 C1802 1.383 1_565 S
C1797 C1793 1.495 . S
C1797 H1803 0.959 . S
C1797 H1804 0.961 . S
C1797 H1805 0.960 . S
C1798 C1796 1.381 . S
C1798 C1799 1.394 . S
C1798 H1806 0.930 . S
C1799 C1798 1.394 . S
C1799 C1800 1.383 1_565 S
C1799 H1807 0.929 . S
C1800 C1799 1.383 1_545 S
C1800 C1801 1.377 . S
C1801 H1785 0.930 . S
C1801 C1800 1.377 . S
C1801 C1802 1.379 . S
C1802 H1786 0.931 . S
C1802 C1796 1.383 1_545 S
C1802 C1801 1.379 . S
H1803 C1797 0.959 . S
H1804 C1797 0.961 . S
H1805 C1797 0.960 . S
H1806 C1798 0.930 . S
H1807 C1799 0.929 . S
H1808 C1816 0.929 . S
H1809 C1818 0.930 . S
H1810 C1820 0.930 . S
H1811 C1823 0.929 . S
H1812 C1826 0.930 . S
H1813 C1828 0.960 . S
H1814 C1828 0.960 . S
H1815 C1828 0.960 . S
C1816 H1808 0.929 . S
C1816 C1817 1.377 . S
C1816 C1818 1.384 . S
C1817 C1816 1.377 . S
C1817 C1823 1.390 . S
C1818 H1809 0.930 . S
C1818 C1816 1.384 . S
C1818 C1819 1.372 . S
C1819 C1818 1.372 . S
C1819 C1820 1.400 . S
C1819 C1824 1.490 . S
C1820 H1810 0.930 . S
C1820 C1819 1.400 . S
C1820 C1823 1.386 . S
H1821 C1837 0.930 . S
H1822 C1838 0.931 . S
C1823 H1811 0.929 . S
C1823 C1817 1.390 . S
C1823 C1820 1.386 . S
C1824 C1819 1.490 . S
C1824 C1826 1.395 . S
C1824 C1827 1.403 . S
H1825 C1831 0.930 . S
C1826 H1812 0.930 . S
C1826 C1824 1.395 . S
C1826 C1829 1.403 1_556 S
C1827 C1824 1.403 . S
C1827 C1828 1.524 . S
C1827 C1831 1.400 1_556 S
C1828 H1813 0.960 . S
C1828 H1814 0.960 . S
C1828 H1815 0.960 . S
C1828 C1827 1.524 . S
C1829 C1826 1.403 1_554 S
C1829 C1830 1.392 . S
C1829 C1833 1.495 . S
C1830 C1829 1.392 . S
C1830 C1831 1.385 . S
C1830 C1832 1.478 . S
C1831 H1825 0.930 . S
C1831 C1827 1.400 1_554 S
C1831 C1830 1.385 . S
C1832 C1830 1.478 . S
C1832 C1834 1.381 . S
C1832 C1838 1.383 . S
C1833 C1829 1.495 . S
C1833 H1839 0.959 . S
C1833 H1840 0.961 . S
C1833 H1841 0.960 . S
C1834 C1832 1.381 . S
C1834 C1835 1.394 . S
C1834 H1842 0.930 . S
C1835 C1834 1.394 . S
C1835 C1836 1.383 . S
C1835 H1843 0.929 . S
C1836 C1835 1.383 . S
C1836 C1837 1.377 . S
C1837 H1821 0.930 . S
C1837 C1836 1.377 . S
C1837 C1838 1.379 . S
C1838 H1822 0.931 . S
C1838 C1832 1.383 . S
C1838 C1837 1.379 . S
H1839 C1833 0.959 . S
H1840 C1833 0.961 . S
H1841 C1833 0.960 . S
H1842 C1834 0.930 . S
H1843 C1835 0.929 . S
H1844 C1852 0.929 . S
H1845 C1854 0.930 . S
H1846 C1856 0.930 . S
H1847 C1859 0.929 . S
H1848 C1862 0.930 . S
H1849 C1864 0.960 1_455 S
H1850 C1864 0.960 1_565 S
H1851 C1864 0.960 . S
C1852 H1844 0.929 . S
C1852 C1853 1.377 1_565 S
C1852 C1854 1.384 . S
C1853 C1852 1.377 1_545 S
C1853 C1859 1.390 . S
C1854 H1845 0.930 . S
C1854 C1852 1.384 . S
C1854 C1855 1.372 1_565 S
C1855 C1854 1.372 1_545 S
C1855 C1856 1.400 . S
C1855 C1860 1.489 1_545 S
C1856 H1846 0.930 . S
C1856 C1855 1.400 . S
C1856 C1859 1.386 . S
H1857 C1873 0.930 . S
H1858 C1874 0.931 . S
C1859 H1847 0.929 . S
C1859 C1853 1.390 . S
C1859 C1856 1.386 . S
C1860 C1855 1.489 1_565 S
C1860 C1862 1.397 . S
C1860 C1863 1.401 1_565 S
H1861 C1867 0.930 . S
C1862 H1848 0.930 . S
C1862 C1860 1.397 . S
C1862 C1865 1.403 . S
C1863 C1860 1.401 1_545 S
C1863 C1864 1.524 . S
C1863 C1867 1.400 . S
C1864 H1849 0.960 1_655 S
C1864 H1850 0.960 1_545 S
C1864 H1851 0.960 . S
C1864 C1863 1.524 . S
C1865 C1862 1.403 . S
C1865 C1866 1.392 . S
C1865 C1869 1.495 . S
C1866 C1865 1.392 . S
C1866 C1867 1.385 1_565 S
C1866 C1868 1.478 . S
C1867 H1861 0.930 . S
C1867 C1863 1.400 . S
C1867 C1866 1.385 1_545 S
C1868 C1866 1.478 . S
C1868 C1870 1.381 . S
C1868 C1874 1.383 1_565 S
C1869 C1865 1.495 . S
C1869 H1875 0.959 . S
C1869 H1876 0.961 1_565 S
C1869 H1877 0.960 . S
C1870 C1868 1.381 . S
C1870 C1871 1.394 . S
C1870 H1878 0.930 . S
C1871 C1870 1.394 . S
C1871 C1872 1.383 . S
C1871 H1879 0.929 . S
C1872 C1871 1.383 . S
C1872 C1873 1.377 1_565 S
C1873 H1857 0.930 . S
C1873 C1872 1.377 1_545 S
C1873 C1874 1.379 . S
C1874 H1858 0.931 . S
C1874 C1868 1.383 1_545 S
C1874 C1873 1.379 . S
H1875 C1869 0.959 . S
H1876 C1869 0.961 1_545 S
H1877 C1869 0.960 . S
H1878 C1870 0.930 . S
H1879 C1871 0.929 . S
H1880 C1888 0.929 . S
H1881 C1890 0.930 . S
H1882 C1892 0.930 . S
H1883 C1895 0.929 . S
H1884 C1898 0.930 . S
H1885 C1900 0.960 . S
H1886 C1900 0.960 . S
H1887 C1900 0.960 . S
C1888 H1880 0.929 . S
C1888 C1889 1.377 . S
C1888 C1890 1.384 . S
C1889 C1888 1.377 . S
C1889 C1895 1.390 . S
C1890 H1881 0.930 . S
C1890 C1888 1.384 . S
C1890 C1891 1.372 . S
C1891 C1890 1.372 . S
C1891 C1892 1.400 . S
C1891 C1896 1.490 . S
C1892 H1882 0.930 . S
C1892 C1891 1.400 . S
C1892 C1895 1.386 . S
H1893 C1909 0.930 . S
H1894 C1910 0.931 . S
C1895 H1883 0.929 . S
C1895 C1889 1.390 . S
C1895 C1892 1.386 . S
C1896 C1891 1.490 . S
C1896 C1898 1.395 . S
C1896 C1899 1.403 . S
H1897 C1903 0.930 . S
C1898 H1884 0.930 . S
C1898 C1896 1.395 . S
C1898 C1901 1.403 . S
C1899 C1896 1.403 . S
C1899 C1900 1.524 . S
C1899 C1903 1.400 . S
C1900 H1885 0.960 . S
C1900 H1886 0.960 . S
C1900 H1887 0.960 . S
C1900 C1899 1.524 . S
C1901 C1898 1.403 . S
C1901 C1902 1.392 . S
C1901 C1905 1.495 . S
C1902 C1901 1.392 . S
C1902 C1903 1.385 . S
C1902 C1904 1.478 . S
C1903 H1897 0.930 . S
C1903 C1899 1.400 . S
C1903 C1902 1.385 . S
C1904 C1902 1.478 . S
C1904 C1906 1.381 . S
C1904 C1910 1.383 . S
C1905 C1901 1.495 . S
C1905 H1911 0.959 . S
C1905 H1912 0.961 . S
C1905 H1913 0.960 . S
C1906 C1904 1.381 . S
C1906 C1907 1.394 . S
C1906 H1914 0.930 . S
C1907 C1906 1.394 . S
C1907 C1908 1.383 . S
C1907 H1915 0.929 . S
C1908 C1907 1.383 . S
C1908 C1909 1.377 . S
C1909 H1893 0.930 . S
C1909 C1908 1.377 . S
C1909 C1910 1.379 . S
C1910 H1894 0.931 . S
C1910 C1904 1.383 . S
C1910 C1909 1.379 . S
H1911 C1905 0.959 . S
H1912 C1905 0.961 . S
H1913 C1905 0.960 . S
H1914 C1906 0.930 . S
H1915 C1907 0.929 . S
H1916 C1924 0.929 . S
H1917 C1926 0.930 . S
H1918 C1928 0.935 . S
H1919 C1931 0.927 1_545 S
H1920 C1934 0.930 . S
H1921 C1936 0.960 . S
H1922 C1936 0.960 . S
H1923 C1936 0.960 . S
C1924 H1916 0.929 . S
C1924 C1925 1.377 . S
C1924 C1926 1.384 . S
C1925 C1924 1.377 . S
C1925 C1931 1.395 . S
C1926 H1917 0.930 . S
C1926 C1924 1.384 . S
C1926 C1927 1.372 . S
C1927 C1926 1.372 . S
C1927 C1928 1.397 1_565 S
C1927 C1932 1.490 . S
C1928 H1918 0.935 . S
C1928 C1927 1.397 1_545 S
C1928 C1931 1.384 1_545 S
H1929 C1945 0.930 . S
H1930 C1946 0.931 . S
C1931 H1919 0.927 1_565 S
C1931 C1925 1.395 . S
C1931 C1928 1.384 1_565 S
C1932 C1927 1.490 . S
C1932 C1934 1.395 . S
C1932 C1935 1.403 1_565 S
H1933 C1939 0.930 . S
C1934 H1920 0.930 . S
C1934 C1932 1.395 . S
C1934 C1937 1.403 . S
C1935 C1932 1.403 1_545 S
C1935 C1936 1.524 . S
C1935 C1939 1.400 . S
C1936 H1921 0.960 . S
C1936 H1922 0.960 . S
C1936 H1923 0.960 . S
C1936 C1935 1.524 . S
C1937 C1934 1.403 . S
C1937 C1938 1.392 . S
C1937 C1941 1.495 . S
C1938 C1937 1.392 . S
C1938 C1939 1.385 1_565 S
C1938 C1940 1.478 . S
C1939 H1933 0.930 . S
C1939 C1935 1.400 . S
C1939 C1938 1.385 1_545 S
C1940 C1938 1.478 . S
C1940 C1942 1.381 . S
C1940 C1946 1.383 . S
C1941 C1937 1.495 . S
C1941 H1947 0.959 . S
C1941 H1948 0.961 . S
C1941 H1949 0.960 . S
C1942 C1940 1.381 . S
C1942 C1943 1.394 1_565 S
C1942 H1950 0.930 . S
C1943 C1942 1.394 1_545 S
C1943 C1944 1.383 . S
C1943 H1951 0.929 . S
C1944 C1943 1.383 . S
C1944 C1945 1.377 . S
C1945 H1929 0.930 . S
C1945 C1944 1.377 . S
C1945 C1946 1.379 1_545 S
C1946 H1930 0.931 . S
C1946 C1940 1.383 . S
C1946 C1945 1.379 1_565 S
H1947 C1941 0.959 . S
H1948 C1941 0.961 . S
H1949 C1941 0.960 . S
H1950 C1942 0.930 . S
H1951 C1943 0.929 . S
H1952 C1960 0.929 . S
H1953 C1962 0.930 . S
H1954 C1964 0.930 . S
H1955 C1967 0.929 . S
H1956 C1970 0.930 . S
H1957 C1972 0.960 . S
H1958 C1972 0.960 . S
H1959 C1972 0.960 . S
C1960 H1952 0.929 . S
C1960 C1961 1.377 . S
C1960 C1962 1.384 . S
C1961 C1960 1.377 . S
C1961 C1967 1.390 . S
C1962 H1953 0.930 . S
C1962 C1960 1.384 . S
C1962 C1963 1.372 . S
C1963 C1962 1.372 . S
C1963 C1964 1.400 . S
C1963 C1968 1.490 . S
C1964 H1954 0.930 . S
C1964 C1963 1.400 . S
C1964 C1967 1.386 . S
H1965 C1981 0.930 . S
H1966 C1982 0.931 . S
C1967 H1955 0.929 . S
C1967 C1961 1.390 . S
C1967 C1964 1.386 . S
C1968 C1963 1.490 . S
C1968 C1970 1.395 . S
C1968 C1971 1.403 . S
H1969 C1975 0.930 . S
C1970 H1956 0.930 . S
C1970 C1968 1.395 . S
C1970 C1973 1.403 . S
C1971 C1968 1.403 . S
C1971 C1972 1.524 . S
C1971 C1975 1.400 . S
C1972 H1957 0.960 . S
C1972 H1958 0.960 . S
C1972 H1959 0.960 . S
C1972 C1971 1.524 . S
C1973 C1970 1.403 . S
C1973 C1974 1.392 . S
C1973 C1977 1.495 . S
C1974 C1973 1.392 . S
C1974 C1975 1.385 . S
C1974 C1976 1.478 . S
C1975 H1969 0.930 . S
C1975 C1971 1.400 . S
C1975 C1974 1.385 . S
C1976 C1974 1.478 . S
C1976 C1978 1.381 . S
C1976 C1982 1.383 . S
C1977 C1973 1.495 . S
C1977 H1983 0.959 . S
C1977 H1984 0.961 . S
C1977 H1985 0.960 . S
C1978 C1976 1.381 . S
C1978 C1979 1.394 . S
C1978 H1986 0.930 . S
C1979 C1978 1.394 . S
C1979 C1980 1.383 . S
C1979 H1987 0.929 . S
C1980 C1979 1.383 . S
C1980 C1981 1.377 . S
C1981 H1965 0.930 . S
C1981 C1980 1.377 . S
C1981 C1982 1.379 . S
C1982 H1966 0.931 . S
C1982 C1976 1.383 . S
C1982 C1981 1.379 . S
H1983 C1977 0.959 . S
H1984 C1977 0.961 . S
H1985 C1977 0.960 . S
H1986 C1978 0.930 . S
H1987 C1979 0.929 . S
H1988 C1996 0.929 . S
H1989 C1998 0.930 . S
H1990 C2000 0.930 . S
H1991 C2003 0.929 . S
H1992 C2006 0.930 . S
H1993 C2008 0.960 . S
H1994 C2008 0.960 . S
H1995 C2008 0.960 . S
C1996 H1988 0.929 . S
C1996 C1997 1.377 . S
C1996 C1998 1.384 . S
C1997 C1996 1.377 . S
C1997 C2003 1.390 . S
C1998 H1989 0.930 . S
C1998 C1996 1.384 . S
C1998 C1999 1.372 . S
C1999 C1998 1.372 . S
C1999 C2000 1.400 . S
C1999 C2004 1.490 . S
C2000 H1990 0.930 . S
C2000 C1999 1.400 . S
C2000 C2003 1.386 . S
H2001 C2017 0.930 . S
H2002 C2018 0.931 . S
C2003 H1991 0.929 . S
C2003 C1997 1.390 . S
C2003 C2000 1.386 . S
C2004 C1999 1.490 . S
C2004 C2006 1.395 . S
C2004 C2007 1.403 . S
H2005 C2011 0.930 . S
C2006 H1992 0.930 . S
C2006 C2004 1.395 . S
C2006 C2009 1.403 . S
C2007 C2004 1.403 . S
C2007 C2008 1.524 . S
C2007 C2011 1.400 . S
C2008 H1993 0.960 . S
C2008 H1994 0.960 . S
C2008 H1995 0.960 . S
C2008 C2007 1.524 . S
C2009 C2006 1.403 . S
C2009 C2010 1.392 . S
C2009 C2013 1.495 . S
C2010 C2009 1.392 . S
C2010 C2011 1.385 . S
C2010 C2012 1.478 . S
C2011 H2005 0.930 . S
C2011 C2007 1.400 . S
C2011 C2010 1.385 . S
C2012 C2010 1.478 . S
C2012 C2014 1.381 . S
C2012 C2018 1.383 . S
C2013 C2009 1.495 . S
C2013 H2019 0.959 . S
C2013 H2020 0.961 . S
C2013 H2021 0.960 . S
C2014 C2012 1.381 . S
C2014 C2015 1.394 . S
C2014 H2022 0.930 . S
C2015 C2014 1.394 . S
C2015 C2016 1.383 . S
C2015 H2023 0.929 . S
C2016 C2015 1.383 . S
C2016 C2017 1.377 . S
C2017 H2001 0.930 . S
C2017 C2016 1.377 . S
C2017 C2018 1.379 . S
C2018 H2002 0.931 . S
C2018 C2012 1.383 . S
C2018 C2017 1.379 . S
H2019 C2013 0.959 . S
H2020 C2013 0.961 . S
H2021 C2013 0.960 . S
H2022 C2014 0.930 . S
H2023 C2015 0.929 . S
H2024 C2032 0.929 . S
H2025 C2034 0.930 . S
H2026 C2036 0.930 . S
H2027 C2039 0.929 . S
H2028 C2042 0.930 . S
H2029 C2044 0.960 . S
H2030 C2044 0.960 . S
H2031 C2044 0.960 . S
C2032 H2024 0.929 . S
C2032 C2033 1.377 . S
C2032 C2034 1.384 . S
C2033 C2032 1.377 . S
C2033 C2039 1.390 . S
C2034 H2025 0.930 . S
C2034 C2032 1.384 . S
C2034 C2035 1.372 . S
C2035 C2034 1.372 . S
C2035 C2036 1.400 . S
C2035 C2040 1.490 . S
C2036 H2026 0.930 . S
C2036 C2035 1.400 . S
C2036 C2039 1.386 . S
H2037 C2053 0.930 . S
H2038 C2054 0.931 . S
C2039 H2027 0.929 . S
C2039 C2033 1.390 . S
C2039 C2036 1.386 . S
C2040 C2035 1.490 . S
C2040 C2042 1.395 . S
C2040 C2043 1.403 . S
H2041 C2047 0.930 . S
C2042 H2028 0.930 . S
C2042 C2040 1.395 . S
C2042 C2045 1.403 1_556 S
C2043 C2040 1.403 . S
C2043 C2044 1.524 . S
C2043 C2047 1.400 1_556 S
C2044 H2029 0.960 . S
C2044 H2030 0.960 . S
C2044 H2031 0.960 . S
C2044 C2043 1.524 . S
C2045 C2042 1.403 1_554 S
C2045 C2046 1.392 . S
C2045 C2049 1.495 . S
C2046 C2045 1.392 . S
C2046 C2047 1.385 . S
C2046 C2048 1.478 . S
C2047 H2041 0.930 . S
C2047 C2043 1.400 1_554 S
C2047 C2046 1.385 . S
C2048 C2046 1.478 . S
C2048 C2050 1.381 . S
C2048 C2054 1.383 . S
C2049 C2045 1.495 . S
C2049 H2055 0.959 . S
C2049 H2056 0.961 . S
C2049 H2057 0.960 . S
C2050 C2048 1.381 . S
C2050 C2051 1.394 . S
C2050 H2058 0.930 . S
C2051 C2050 1.394 . S
C2051 C2052 1.383 . S
C2051 H2059 0.929 . S
C2052 C2051 1.383 . S
C2052 C2053 1.377 . S
C2053 H2037 0.930 . S
C2053 C2052 1.377 . S
C2053 C2054 1.379 . S
C2054 H2038 0.931 . S
C2054 C2048 1.383 . S
C2054 C2053 1.379 . S
H2055 C2049 0.959 . S
H2056 C2049 0.961 . S
H2057 C2049 0.960 . S
H2058 C2050 0.930 . S
H2059 C2051 0.929 . S
H2060 C2068 0.929 . S
H2061 C2070 0.930 . S
H2062 C2072 0.930 . S
H2063 C2075 0.929 . S
H2064 C2078 0.930 . S
H2065 C2080 0.960 . S
H2066 C2080 0.960 . S
H2067 C2080 0.960 . S
C2068 H2060 0.929 . S
C2068 C2069 1.377 . S
C2068 C2070 1.384 . S
C2069 C2068 1.377 . S
C2069 C2075 1.390 . S
C2070 H2061 0.930 . S
C2070 C2068 1.384 . S
C2070 C2071 1.372 . S
C2071 C2070 1.372 . S
C2071 C2072 1.400 . S
C2071 C2076 1.490 . S
C2072 H2062 0.930 . S
C2072 C2071 1.400 . S
C2072 C2075 1.386 . S
H2073 C2089 0.930 . S
H2074 C2090 0.931 . S
C2075 H2063 0.929 . S
C2075 C2069 1.390 . S
C2075 C2072 1.386 . S
C2076 C2071 1.490 . S
C2076 C2078 1.395 . S
C2076 C2079 1.403 . S
H2077 C2083 0.930 . S
C2078 H2064 0.930 . S
C2078 C2076 1.395 . S
C2078 C2081 1.403 . S
C2079 C2076 1.403 . S
C2079 C2080 1.524 . S
C2079 C2083 1.400 . S
C2080 H2065 0.960 . S
C2080 H2066 0.960 . S
C2080 H2067 0.960 . S
C2080 C2079 1.524 . S
C2081 C2078 1.403 . S
C2081 C2082 1.392 . S
C2081 C2085 1.495 . S
C2082 C2081 1.392 . S
C2082 C2083 1.385 . S
C2082 C2084 1.478 . S
C2083 H2077 0.930 . S
C2083 C2079 1.400 . S
C2083 C2082 1.385 . S
C2084 C2082 1.478 . S
C2084 C2086 1.381 . S
C2084 C2090 1.383 . S
C2085 C2081 1.495 . S
C2085 H2091 0.959 . S
C2085 H2092 0.961 . S
C2085 H2093 0.960 . S
C2086 C2084 1.381 . S
C2086 C2087 1.394 . S
C2086 H2094 0.930 . S
C2087 C2086 1.394 . S
C2087 C2088 1.383 . S
C2087 H2095 0.929 . S
C2088 C2087 1.383 . S
C2088 C2089 1.377 . S
C2089 H2073 0.930 . S
C2089 C2088 1.377 . S
C2089 C2090 1.379 . S
C2090 H2074 0.931 . S
C2090 C2084 1.383 . S
C2090 C2089 1.379 . S
H2091 C2085 0.959 . S
H2092 C2085 0.961 . S
H2093 C2085 0.960 . S
H2094 C2086 0.930 . S
H2095 C2087 0.929 . S
H2096 C2104 0.929 . S
H2097 C2106 0.930 . S
H2098 C2108 0.930 . S
H2099 C2111 0.929 . S
H2100 C2114 0.930 . S
H2101 C2116 0.960 . S
H2102 C2116 0.960 . S
H2103 C2116 0.960 . S
C2104 H2096 0.929 . S
C2104 C2105 1.377 . S
C2104 C2106 1.384 . S
C2105 C2104 1.377 . S
C2105 C2111 1.390 . S
C2106 H2097 0.930 . S
C2106 C2104 1.384 . S
C2106 C2107 1.372 . S
C2107 C2106 1.372 . S
C2107 C2108 1.400 . S
C2107 C2112 1.490 . S
C2108 H2098 0.930 . S
C2108 C2107 1.400 . S
C2108 C2111 1.386 . S
H2109 C2125 0.930 . S
H2110 C2126 0.931 . S
C2111 H2099 0.929 . S
C2111 C2105 1.390 . S
C2111 C2108 1.386 . S
C2112 C2107 1.490 . S
C2112 C2114 1.395 . S
C2112 C2115 1.403 . S
H2113 C2119 0.930 . S
C2114 H2100 0.930 . S
C2114 C2112 1.395 . S
C2114 C2117 1.403 . S
C2115 C2112 1.403 . S
C2115 C2116 1.524 . S
C2115 C2119 1.400 . S
C2116 H2101 0.960 . S
C2116 H2102 0.960 . S
C2116 H2103 0.960 . S
C2116 C2115 1.524 . S
C2117 C2114 1.403 . S
C2117 C2118 1.392 . S
C2117 C2121 1.495 . S
C2118 C2117 1.392 . S
C2118 C2119 1.385 . S
C2118 C2120 1.478 . S
C2119 H2113 0.930 . S
C2119 C2115 1.400 . S
C2119 C2118 1.385 . S
C2120 C2118 1.478 . S
C2120 C2122 1.381 . S
C2120 C2126 1.383 . S
C2121 C2117 1.495 . S
C2121 H2127 0.959 . S
C2121 H2128 0.961 . S
C2121 H2129 0.960 . S
C2122 C2120 1.381 . S
C2122 C2123 1.394 . S
C2122 H2130 0.930 . S
C2123 C2122 1.394 . S
C2123 C2124 1.383 . S
C2123 H2131 0.929 . S
C2124 C2123 1.383 . S
C2124 C2125 1.377 . S
C2125 H2109 0.930 . S
C2125 C2124 1.377 . S
C2125 C2126 1.379 . S
C2126 H2110 0.931 . S
C2126 C2120 1.383 . S
C2126 C2125 1.379 . S
H2127 C2121 0.959 . S
H2128 C2121 0.961 . S
H2129 C2121 0.960 . S
H2130 C2122 0.930 . S
H2131 C2123 0.929 . S
H2132 C2140 0.929 . S
H2133 C2142 0.930 . S
H2134 C2144 0.930 . S
H2135 C2147 0.929 . S
H2136 C2150 0.930 . S
H2137 C2152 0.960 . S
H2138 C2152 0.960 . S
H2139 C2152 0.960 . S
C2140 H2132 0.929 . S
C2140 C2141 1.377 . S
C2140 C2142 1.384 . S
C2141 C2140 1.377 . S
C2141 C2147 1.390 . S
C2142 H2133 0.930 . S
C2142 C2140 1.384 . S
C2142 C2143 1.372 . S
C2143 C2142 1.372 . S
C2143 C2144 1.400 . S
C2143 C2148 1.490 . S
C2144 H2134 0.930 . S
C2144 C2143 1.400 . S
C2144 C2147 1.386 . S
H2145 C2161 0.930 . S
H2146 C2162 0.931 . S
C2147 H2135 0.929 . S
C2147 C2141 1.390 . S
C2147 C2144 1.386 . S
C2148 C2143 1.490 . S
C2148 C2150 1.395 . S
C2148 C2151 1.403 . S
H2149 C2155 0.930 . S
C2150 H2136 0.930 . S
C2150 C2148 1.395 . S
C2150 C2153 1.403 . S
C2151 C2148 1.403 . S
C2151 C2152 1.524 . S
C2151 C2155 1.400 . S
C2152 H2137 0.960 . S
C2152 H2138 0.960 . S
C2152 H2139 0.960 . S
C2152 C2151 1.524 . S
C2153 C2150 1.403 . S
C2153 C2154 1.392 . S
C2153 C2157 1.495 . S
C2154 C2153 1.392 . S
C2154 C2155 1.385 . S
C2154 C2156 1.478 . S
C2155 H2149 0.930 . S
C2155 C2151 1.400 . S
C2155 C2154 1.385 . S
C2156 C2154 1.478 . S
C2156 C2158 1.381 . S
C2156 C2162 1.383 . S
C2157 C2153 1.495 . S
C2157 H2163 0.959 . S
C2157 H2164 0.961 . S
C2157 H2165 0.960 . S
C2158 C2156 1.381 . S
C2158 C2159 1.394 . S
C2158 H2166 0.930 . S
C2159 C2158 1.394 . S
C2159 C2160 1.383 . S
C2159 H2167 0.929 . S
C2160 C2159 1.383 . S
C2160 C2161 1.377 . S
C2161 H2145 0.930 . S
C2161 C2160 1.377 . S
C2161 C2162 1.379 . S
C2162 H2146 0.931 . S
C2162 C2156 1.383 . S
C2162 C2161 1.379 . S
H2163 C2157 0.959 . S
H2164 C2157 0.961 . S
H2165 C2157 0.960 . S
H2166 C2158 0.930 . S
H2167 C2159 0.929 . S
H2168 C2176 0.929 . S
H2169 C2178 0.930 . S
H2170 C2180 0.930 . S
H2171 C2183 0.929 . S
H2172 C2186 0.930 . S
H2173 C2188 0.960 . S
H2174 C2188 0.960 . S
H2175 C2188 0.960 . S
C2176 H2168 0.929 . S
C2176 C2177 1.377 . S
C2176 C2178 1.384 . S
C2177 C2176 1.377 . S
C2177 C2183 1.390 . S
C2178 H2169 0.930 . S
C2178 C2176 1.384 . S
C2178 C2179 1.372 . S
C2179 C2178 1.372 . S
C2179 C2180 1.400 . S
C2179 C2184 1.490 . S
C2180 H2170 0.930 . S
C2180 C2179 1.400 . S
C2180 C2183 1.386 . S
H2181 C2197 0.930 . S
H2182 C2198 0.931 . S
C2183 H2171 0.929 . S
C2183 C2177 1.390 . S
C2183 C2180 1.386 . S
C2184 C2179 1.490 . S
C2184 C2186 1.395 . S
C2184 C2187 1.403 . S
H2185 C2191 0.930 . S
C2186 H2172 0.930 . S
C2186 C2184 1.395 . S
C2186 C2189 1.403 1_554 S
C2187 C2184 1.403 . S
C2187 C2188 1.524 . S
C2187 C2191 1.400 1_554 S
C2188 H2173 0.960 . S
C2188 H2174 0.960 . S
C2188 H2175 0.960 . S
C2188 C2187 1.524 . S
C2189 C2186 1.403 1_556 S
C2189 C2190 1.392 . S
C2189 C2193 1.495 . S
C2190 C2189 1.392 . S
C2190 C2191 1.385 . S
C2190 C2192 1.478 . S
C2191 H2185 0.930 . S
C2191 C2187 1.400 1_556 S
C2191 C2190 1.385 . S
C2192 C2190 1.478 . S
C2192 C2194 1.381 . S
C2192 C2198 1.383 . S
C2193 C2189 1.495 . S
C2193 H2199 0.959 . S
C2193 H2200 0.961 . S
C2193 H2201 0.960 . S
C2194 C2192 1.381 . S
C2194 C2195 1.394 . S
C2194 H2202 0.930 . S
C2195 C2194 1.394 . S
C2195 C2196 1.383 . S
C2195 H2203 0.929 . S
C2196 C2195 1.383 . S
C2196 C2197 1.377 . S
C2197 H2181 0.930 . S
C2197 C2196 1.377 . S
C2197 C2198 1.379 . S
C2198 H2182 0.931 . S
C2198 C2192 1.383 . S
C2198 C2197 1.379 . S
H2199 C2193 0.959 . S
H2200 C2193 0.961 . S
H2201 C2193 0.960 . S
H2202 C2194 0.930 . S
H2203 C2195 0.929 . S
H2204 C2212 0.929 . S
H2205 C2214 0.930 . S
H2206 C2216 0.930 . S
H2207 C2219 0.929 . S
H2208 C2222 0.930 . S
H2209 C2224 0.960 . S
H2210 C2224 0.960 . S
H2211 C2224 0.960 . S
C2212 H2204 0.929 . S
C2212 C2213 1.377 . S
C2212 C2214 1.384 . S
C2213 C2212 1.377 . S
C2213 C2219 1.390 . S
C2214 H2205 0.930 . S
C2214 C2212 1.384 . S
C2214 C2215 1.372 . S
C2215 C2214 1.372 . S
C2215 C2216 1.400 . S
C2215 C2220 1.490 . S
C2216 H2206 0.930 . S
C2216 C2215 1.400 . S
C2216 C2219 1.386 . S
H2217 C2233 0.930 . S
H2218 C2234 0.931 . S
C2219 H2207 0.929 . S
C2219 C2213 1.390 . S
C2219 C2216 1.386 . S
C2220 C2215 1.490 . S
C2220 C2222 1.395 . S
C2220 C2223 1.403 . S
H2221 C2227 0.930 . S
C2222 H2208 0.930 . S
C2222 C2220 1.395 . S
C2222 C2225 1.403 . S
C2223 C2220 1.403 . S
C2223 C2224 1.524 . S
C2223 C2227 1.400 . S
C2224 H2209 0.960 . S
C2224 H2210 0.960 . S
C2224 H2211 0.960 . S
C2224 C2223 1.524 . S
C2225 C2222 1.403 . S
C2225 C2226 1.392 . S
C2225 C2229 1.495 . S
C2226 C2225 1.392 . S
C2226 C2227 1.385 . S
C2226 C2228 1.478 . S
C2227 H2221 0.930 . S
C2227 C2223 1.400 . S
C2227 C2226 1.385 . S
C2228 C2226 1.478 . S
C2228 C2230 1.381 . S
C2228 C2234 1.383 . S
C2229 C2225 1.495 . S
C2229 H2235 0.959 . S
C2229 H2236 0.961 . S
C2229 H2237 0.960 . S
C2230 C2228 1.381 . S
C2230 C2231 1.394 . S
C2230 H2238 0.930 . S
C2231 C2230 1.394 . S
C2231 C2232 1.383 . S
C2231 H2239 0.929 . S
C2232 C2231 1.383 . S
C2232 C2233 1.377 . S
C2233 H2217 0.930 . S
C2233 C2232 1.377 . S
C2233 C2234 1.379 . S
C2234 H2218 0.931 . S
C2234 C2228 1.383 . S
C2234 C2233 1.379 . S
H2235 C2229 0.959 . S
H2236 C2229 0.961 . S
H2237 C2229 0.960 . S
H2238 C2230 0.930 . S
H2239 C2231 0.929 . S
H2240 C2248 0.929 . S
H2241 C2250 0.930 . S
H2242 C2252 0.930 . S
H2243 C2255 0.929 . S
H2244 C2258 0.930 . S
H2245 C2260 0.960 . S
H2246 C2260 0.960 . S
H2247 C2260 0.960 . S
C2248 H2240 0.929 . S
C2248 C2249 1.377 . S
C2248 C2250 1.384 . S
C2249 C2248 1.377 . S
C2249 C2255 1.390 . S
C2250 H2241 0.930 . S
C2250 C2248 1.384 . S
C2250 C2251 1.372 . S
C2251 C2250 1.372 . S
C2251 C2252 1.400 . S
C2251 C2256 1.490 . S
C2252 H2242 0.930 . S
C2252 C2251 1.400 . S
C2252 C2255 1.386 . S
H2253 C2269 0.930 . S
H2254 C2270 0.931 . S
C2255 H2243 0.929 . S
C2255 C2249 1.390 . S
C2255 C2252 1.386 . S
C2256 C2251 1.490 . S
C2256 C2258 1.395 . S
C2256 C2259 1.403 . S
H2257 C2263 0.930 . S
C2258 H2244 0.930 . S
C2258 C2256 1.395 . S
C2258 C2261 1.403 . S
C2259 C2256 1.403 . S
C2259 C2260 1.524 . S
C2259 C2263 1.400 . S
C2260 H2245 0.960 . S
C2260 H2246 0.960 . S
C2260 H2247 0.960 . S
C2260 C2259 1.524 . S
C2261 C2258 1.403 . S
C2261 C2262 1.392 . S
C2261 C2265 1.495 . S
C2262 C2261 1.392 . S
C2262 C2263 1.385 . S
C2262 C2264 1.478 . S
C2263 H2257 0.930 . S
C2263 C2259 1.400 . S
C2263 C2262 1.385 . S
C2264 C2262 1.478 . S
C2264 C2266 1.381 . S
C2264 C2270 1.383 . S
C2265 C2261 1.495 . S
C2265 H2271 0.959 . S
C2265 H2272 0.961 . S
C2265 H2273 0.960 . S
C2266 C2264 1.381 . S
C2266 C2267 1.394 1_565 S
C2266 H2274 0.930 . S
C2267 C2266 1.394 1_545 S
C2267 C2268 1.383 . S
C2267 H2275 0.929 . S
C2268 C2267 1.383 . S
C2268 C2269 1.377 . S
C2269 H2253 0.930 . S
C2269 C2268 1.377 . S
C2269 C2270 1.379 1_545 S
C2270 H2254 0.931 . S
C2270 C2264 1.383 . S
C2270 C2269 1.379 1_565 S
H2271 C2265 0.959 . S
H2272 C2265 0.961 . S
H2273 C2265 0.960 . S
H2274 C2266 0.930 . S
H2275 C2267 0.929 . S
H2276 C2284 0.929 . S
H2277 C2286 0.930 . S
H2278 C2288 0.930 . S
H2279 C2291 0.929 . S
H2280 C2294 0.930 . S
H2281 C2296 0.960 . S
H2282 C2296 0.960 . S
H2283 C2296 0.960 . S
C2284 H2276 0.929 . S
C2284 C2285 1.377 1_565 S
C2284 C2286 1.384 . S
C2285 C2284 1.377 1_545 S
C2285 C2291 1.390 . S
C2286 H2277 0.930 . S
C2286 C2284 1.384 . S
C2286 C2287 1.372 1_565 S
C2287 C2286 1.372 1_545 S
C2287 C2288 1.400 . S
C2287 C2292 1.490 . S
C2288 H2278 0.930 . S
C2288 C2287 1.400 . S
C2288 C2291 1.386 . S
H2289 C2305 0.930 . S
H2290 C2306 0.931 . S
C2291 H2279 0.929 . S
C2291 C2285 1.390 . S
C2291 C2288 1.386 . S
C2292 C2287 1.490 . S
C2292 C2294 1.395 1_545 S
C2292 C2295 1.403 . S
H2293 C2299 0.930 . S
C2294 H2280 0.930 . S
C2294 C2292 1.395 1_565 S
C2294 C2297 1.403 . S
C2295 C2292 1.403 . S
C2295 C2296 1.524 . S
C2295 C2299 1.400 . S
C2296 H2281 0.960 . S
C2296 H2282 0.960 . S
C2296 H2283 0.960 . S
C2296 C2295 1.524 . S
C2297 C2294 1.403 . S
C2297 C2298 1.392 1_565 S
C2297 C2301 1.495 . S
C2298 C2297 1.392 1_545 S
C2298 C2299 1.385 . S
C2298 C2300 1.478 . S
C2299 H2293 0.930 . S
C2299 C2295 1.400 . S
C2299 C2298 1.385 . S
C2300 C2298 1.478 . S
C2300 C2302 1.381 1_545 S
C2300 C2306 1.383 . S
C2301 C2297 1.495 . S
C2301 H2307 0.959 . S
C2301 H2308 0.961 . S
C2301 H2309 0.960 . S
C2302 C2300 1.381 1_565 S
C2302 C2303 1.394 . S
C2302 H2310 0.930 . S
C2303 C2302 1.394 . S
C2303 C2304 1.383 1_565 S
C2303 H2311 0.929 . S
C2304 C2303 1.383 1_545 S
C2304 C2305 1.377 . S
C2305 H2289 0.930 . S
C2305 C2304 1.377 . S
C2305 C2306 1.379 . S
C2306 H2290 0.931 . S
C2306 C2300 1.383 . S
C2306 C2305 1.379 . S
H2307 C2301 0.959 . S
H2308 C2301 0.961 . S
H2309 C2301 0.960 . S
H2310 C2302 0.930 . S
H2311 C2303 0.929 . S
H2312 C2320 0.929 . S
H2313 C2322 0.930 . S
H2314 C2324 0.930 . S
H2315 C2327 0.929 . S
H2316 C2330 0.930 . S
H2317 C2332 0.960 . S
H2318 C2332 0.960 . S
H2319 C2332 0.960 . S
C2320 H2312 0.929 . S
C2320 C2321 1.377 . S
C2320 C2322 1.384 . S
C2321 C2320 1.377 . S
C2321 C2327 1.390 . S
C2322 H2313 0.930 . S
C2322 C2320 1.384 . S
C2322 C2323 1.372 . S
C2323 C2322 1.372 . S
C2323 C2324 1.400 . S
C2323 C2328 1.490 . S
C2324 H2314 0.930 . S
C2324 C2323 1.400 . S
C2324 C2327 1.386 . S
H2325 C2341 0.930 . S
H2326 C2342 0.931 . S
C2327 H2315 0.929 . S
C2327 C2321 1.390 . S
C2327 C2324 1.386 . S
C2328 C2323 1.490 . S
C2328 C2330 1.395 . S
C2328 C2331 1.403 . S
H2329 C2335 0.930 . S
C2330 H2316 0.930 . S
C2330 C2328 1.395 . S
C2330 C2333 1.403 . S
C2331 C2328 1.403 . S
C2331 C2332 1.524 . S
C2331 C2335 1.400 . S
C2332 H2317 0.960 . S
C2332 H2318 0.960 . S
C2332 H2319 0.960 . S
C2332 C2331 1.524 . S
C2333 C2330 1.403 . S
C2333 C2334 1.392 . S
C2333 C2337 1.495 . S
C2334 C2333 1.392 . S
C2334 C2335 1.385 . S
C2334 C2336 1.478 . S
C2335 H2329 0.930 . S
C2335 C2331 1.400 . S
C2335 C2334 1.385 . S
C2336 C2334 1.478 . S
C2336 C2338 1.381 . S
C2336 C2342 1.383 . S
C2337 C2333 1.495 . S
C2337 H2343 0.959 . S
C2337 H2344 0.961 . S
C2337 H2345 0.960 . S
C2338 C2336 1.381 . S
C2338 C2339 1.394 1_545 S
C2338 H2346 0.930 . S
C2339 C2338 1.394 1_565 S
C2339 C2340 1.383 . S
C2339 H2347 0.929 . S
C2340 C2339 1.383 . S
C2340 C2341 1.377 . S
C2341 H2325 0.930 . S
C2341 C2340 1.377 . S
C2341 C2342 1.379 1_565 S
C2342 H2326 0.931 . S
C2342 C2336 1.383 . S
C2342 C2341 1.379 1_545 S
H2343 C2337 0.959 . S
H2344 C2337 0.961 . S
H2345 C2337 0.960 . S
H2346 C2338 0.930 . S
H2347 C2339 0.929 . S
H2348 C2356 0.929 . S
H2349 C2358 0.930 . S
H2350 C2360 0.930 . S
H2351 C2363 0.929 . S
H2352 C2366 0.930 1_545 S
H2353 C2368 0.960 . S
H2354 C2368 0.960 . S
H2355 C2368 0.960 . S
C2356 H2348 0.929 . S
C2356 C2357 1.377 1_545 S
C2356 C2358 1.384 . S
C2357 C2356 1.377 1_565 S
C2357 C2363 1.390 . S
C2358 H2349 0.930 . S
C2358 C2356 1.384 . S
C2358 C2359 1.372 1_545 S
C2359 C2358 1.372 1_565 S
C2359 C2360 1.400 . S
C2359 C2364 1.490 . S
C2360 H2350 0.930 . S
C2360 C2359 1.400 . S
C2360 C2363 1.386 . S
H2361 C2377 0.930 . S
H2362 C2378 0.931 . S
C2363 H2351 0.929 . S
C2363 C2357 1.390 . S
C2363 C2360 1.386 . S
C2364 C2359 1.490 . S
C2364 C2366 1.395 . S
C2364 C2367 1.403 . S
H2365 C2371 0.930 . S
C2366 H2352 0.930 1_565 S
C2366 C2364 1.395 . S
C2366 C2369 1.403 . S
C2367 C2364 1.403 . S
C2367 C2368 1.524 . S
C2367 C2371 1.400 . S
C2368 H2353 0.960 . S
C2368 H2354 0.960 . S
C2368 H2355 0.960 . S
C2368 C2367 1.524 . S
C2369 C2366 1.403 . S
C2369 C2370 1.392 . S
C2369 C2373 1.495 1_565 S
C2370 C2369 1.392 . S
C2370 C2371 1.385 . S
C2370 C2372 1.478 . S
C2371 H2365 0.930 . S
C2371 C2367 1.400 . S
C2371 C2370 1.385 . S
C2372 C2370 1.478 . S
C2372 C2374 1.381 1_565 S
C2372 C2378 1.383 . S
C2373 C2369 1.495 1_545 S
C2373 H2379 0.959 . S
C2373 H2380 0.961 1_545 S
C2373 H2381 0.960 . S
C2374 C2372 1.381 1_545 S
C2374 C2375 1.394 . S
C2374 H2382 0.930 . S
C2375 C2374 1.394 . S
C2375 C2376 1.383 1_545 S
C2375 H2383 0.929 . S
C2376 C2375 1.383 1_565 S
C2376 C2377 1.377 . S
C2377 H2361 0.930 . S
C2377 C2376 1.377 . S
C2377 C2378 1.379 . S
C2378 H2362 0.931 . S
C2378 C2372 1.383 . S
C2378 C2377 1.379 . S
H2379 C2373 0.959 . S
H2380 C2373 0.961 1_565 S
H2381 C2373 0.960 . S
H2382 C2374 0.930 . S
H2383 C2375 0.929 . S
H2384 C2392 0.929 . S
H2385 C2394 0.930 . S
H2386 C2396 0.930 . S
H2387 C2399 0.929 . S
H2388 C2402 0.930 . S
H2389 C2404 0.960 . S
H2390 C2404 0.960 . S
H2391 C2404 0.960 . S
C2392 H2384 0.929 . S
C2392 C2393 1.377 . S
C2392 C2394 1.384 . S
C2393 C2392 1.377 . S
C2393 C2399 1.390 . S
C2394 H2385 0.930 . S
C2394 C2392 1.384 . S
C2394 C2395 1.372 . S
C2395 C2394 1.372 . S
C2395 C2396 1.400 . S
C2395 C2400 1.490 . S
C2396 H2386 0.930 . S
C2396 C2395 1.400 . S
C2396 C2399 1.386 . S
H2397 C2413 0.930 . S
H2398 C2414 0.931 . S
C2399 H2387 0.929 . S
C2399 C2393 1.390 . S
C2399 C2396 1.386 . S
C2400 C2395 1.490 . S
C2400 C2402 1.395 . S
C2400 C2403 1.403 . S
H2401 C2407 0.930 . S
C2402 H2388 0.930 . S
C2402 C2400 1.395 . S
C2402 C2405 1.403 . S
C2403 C2400 1.403 . S
C2403 C2404 1.524 . S
C2403 C2407 1.400 . S
C2404 H2389 0.960 . S
C2404 H2390 0.960 . S
C2404 H2391 0.960 . S
C2404 C2403 1.524 . S
C2405 C2402 1.403 . S
C2405 C2406 1.392 . S
C2405 C2409 1.495 . S
C2406 C2405 1.392 . S
C2406 C2407 1.385 . S
C2406 C2408 1.478 . S
C2407 H2401 0.930 . S
C2407 C2403 1.400 . S
C2407 C2406 1.385 . S
C2408 C2406 1.478 . S
C2408 C2410 1.381 . S
C2408 C2414 1.383 . S
C2409 C2405 1.495 . S
C2409 H2415 0.959 . S
C2409 H2416 0.961 . S
C2409 H2417 0.960 . S
C2410 C2408 1.381 . S
C2410 C2411 1.394 1_545 S
C2410 H2418 0.930 . S
C2411 C2410 1.394 1_565 S
C2411 C2412 1.383 . S
C2411 H2419 0.929 . S
C2412 C2411 1.383 . S
C2412 C2413 1.377 . S
C2413 H2397 0.930 . S
C2413 C2412 1.377 . S
C2413 C2414 1.379 1_565 S
C2414 H2398 0.931 . S
C2414 C2408 1.383 . S
C2414 C2413 1.379 1_545 S
H2415 C2409 0.959 . S
H2416 C2409 0.961 . S
H2417 C2409 0.960 . S
H2418 C2410 0.930 . S
H2419 C2411 0.929 . S
H2420 C2428 0.929 . S
H2421 C2430 0.930 . S
H2422 C2432 0.930 . S
H2423 C2435 0.929 . S
H2424 C2438 0.931 1_565 S
H2425 C2440 0.960 . S
H2426 C2440 0.960 . S
H2427 C2440 0.960 . S
C2428 H2420 0.929 . S
C2428 C2429 1.377 . S
C2428 C2430 1.384 . S
C2429 C2428 1.377 . S
C2429 C2435 1.390 1_545 S
C2430 H2421 0.930 . S
C2430 C2428 1.384 . S
C2430 C2431 1.372 . S
C2431 C2430 1.372 . S
C2431 C2432 1.400 1_545 S
C2431 C2436 1.490 . S
C2432 H2422 0.930 . S
C2432 C2431 1.400 1_565 S
C2432 C2435 1.386 . S
H2433 C2449 0.930 . S
H2434 C2450 0.931 . S
C2435 H2423 0.929 . S
C2435 C2429 1.390 1_565 S
C2435 C2432 1.386 . S
C2436 C2431 1.490 . S
C2436 C2438 1.395 . S
C2436 C2439 1.403 . S
H2437 C2443 0.930 . S
C2438 H2424 0.931 1_545 S
C2438 C2436 1.395 . S
C2438 C2441 1.403 . S
C2439 C2436 1.403 . S
C2439 C2440 1.524 . S
C2439 C2443 1.400 . S
C2440 H2425 0.960 . S
C2440 H2426 0.960 . S
C2440 H2427 0.960 . S
C2440 C2439 1.524 . S
C2441 C2438 1.403 . S
C2441 C2442 1.392 . S
C2441 C2445 1.495 1_545 S
C2442 C2441 1.392 . S
C2442 C2443 1.385 . S
C2442 C2444 1.478 . S
C2443 H2437 0.930 . S
C2443 C2439 1.400 . S
C2443 C2442 1.385 . S
C2444 C2442 1.478 . S
C2444 C2446 1.381 . S
C2444 C2450 1.383 1_545 S
C2445 C2441 1.495 1_565 S
C2445 H2451 0.959 . S
C2445 H2452 0.961 . S
C2445 H2453 0.960 1_565 S
C2446 C2444 1.381 . S
C2446 C2447 1.394 . S
C2446 H2454 0.930 . S
C2447 C2446 1.394 . S
C2447 C2448 1.383 . S
C2447 H2455 0.929 . S
C2448 C2447 1.383 . S
C2448 C2449 1.377 1_545 S
C2449 H2433 0.930 . S
C2449 C2448 1.377 1_565 S
C2449 C2450 1.379 . S
C2450 H2434 0.931 . S
C2450 C2444 1.383 1_565 S
C2450 C2449 1.379 . S
H2451 C2445 0.959 . S
H2452 C2445 0.961 . S
H2453 C2445 0.960 1_545 S
H2454 C2446 0.930 . S
H2455 C2447 0.929 . S
H2456 C2464 0.929 . S
H2457 C2466 0.930 . S
H2458 C2468 0.930 . S
H2459 C2471 0.929 . S
H2460 C2474 0.930 . S
H2461 C2476 0.960 . S
H2462 C2476 0.960 . S
H2463 C2476 0.960 . S
C2464 H2456 0.929 . S
C2464 C2465 1.377 . S
C2464 C2466 1.384 . S
C2465 C2464 1.377 . S
C2465 C2471 1.390 . S
C2466 H2457 0.930 . S
C2466 C2464 1.384 . S
C2466 C2467 1.372 . S
C2467 C2466 1.372 . S
C2467 C2468 1.400 . S
C2467 C2472 1.490 . S
C2468 H2458 0.930 . S
C2468 C2467 1.400 . S
C2468 C2471 1.386 . S
H2469 C2485 0.930 . S
H2470 C2486 0.931 . S
C2471 H2459 0.929 . S
C2471 C2465 1.390 . S
C2471 C2468 1.386 . S
C2472 C2467 1.490 . S
C2472 C2474 1.395 . S
C2472 C2475 1.403 . S
H2473 C2479 0.930 . S
C2474 H2460 0.930 . S
C2474 C2472 1.395 . S
C2474 C2477 1.403 . S
C2475 C2472 1.403 . S
C2475 C2476 1.524 . S
C2475 C2479 1.400 . S
C2476 H2461 0.960 . S
C2476 H2462 0.960 . S
C2476 H2463 0.960 . S
C2476 C2475 1.524 . S
C2477 C2474 1.403 . S
C2477 C2478 1.392 . S
C2477 C2481 1.495 . S
C2478 C2477 1.392 . S
C2478 C2479 1.385 . S
C2478 C2480 1.478 . S
C2479 H2473 0.930 . S
C2479 C2475 1.400 . S
C2479 C2478 1.385 . S
C2480 C2478 1.478 . S
C2480 C2482 1.381 . S
C2480 C2486 1.383 . S
C2481 C2477 1.495 . S
C2481 H2487 0.959 . S
C2481 H2488 0.961 . S
C2481 H2489 0.960 . S
C2482 C2480 1.381 . S
C2482 C2483 1.394 1_565 S
C2482 H2490 0.930 . S
C2483 C2482 1.394 1_545 S
C2483 C2484 1.383 . S
C2483 H2491 0.929 . S
C2484 C2483 1.383 . S
C2484 C2485 1.377 . S
C2485 H2469 0.930 . S
C2485 C2484 1.377 . S
C2485 C2486 1.379 1_545 S
C2486 H2470 0.931 . S
C2486 C2480 1.383 . S
C2486 C2485 1.379 1_565 S
H2487 C2481 0.959 . S
H2488 C2481 0.961 . S
H2489 C2481 0.960 . S
H2490 C2482 0.930 . S
H2491 C2483 0.929 . S
H2492 C2500 0.929 . S
H2493 C2502 0.930 . S
H2494 C2504 0.930 . S
H2495 C2507 0.929 . S
H2496 C2510 0.930 . S
H2497 C2512 0.960 . S
H2498 C2512 0.960 1_545 S
H2499 C2512 0.960 . S
C2500 H2492 0.929 . S
C2500 C2501 1.377 1_545 S
C2500 C2502 1.384 . S
C2501 C2500 1.377 1_565 S
C2501 C2507 1.390 . S
C2502 H2493 0.930 . S
C2502 C2500 1.384 . S
C2502 C2503 1.372 1_545 S
C2503 C2502 1.372 1_565 S
C2503 C2504 1.400 . S
C2503 C2508 1.490 . S
C2504 H2494 0.930 . S
C2504 C2503 1.400 . S
C2504 C2507 1.386 . S
H2505 C2521 0.930 . S
H2506 C2522 0.931 . S
C2507 H2495 0.929 . S
C2507 C2501 1.390 . S
C2507 C2504 1.386 . S
C2508 C2503 1.490 . S
C2508 C2510 1.395 . S
C2508 C2511 1.403 . S
H2509 C2515 0.930 . S
C2510 H2496 0.930 . S
C2510 C2508 1.395 . S
C2510 C2513 1.403 . S
C2511 C2508 1.403 . S
C2511 C2512 1.524 . S
C2511 C2515 1.400 . S
C2512 H2497 0.960 . S
C2512 H2498 0.960 1_565 S
C2512 H2499 0.960 . S
C2512 C2511 1.524 . S
C2513 C2510 1.403 . S
C2513 C2514 1.392 . S
C2513 C2517 1.495 . S
C2514 C2513 1.392 . S
C2514 C2515 1.385 . S
C2514 C2516 1.478 . S
C2515 H2509 0.930 . S
C2515 C2511 1.400 . S
C2515 C2514 1.385 . S
C2516 C2514 1.478 . S
C2516 C2518 1.381 1_565 S
C2516 C2522 1.383 . S
C2517 C2513 1.495 . S
C2517 H2523 0.959 . S
C2517 H2524 0.961 . S
C2517 H2525 0.960 . S
C2518 C2516 1.381 1_545 S
C2518 C2519 1.394 . S
C2518 H2526 0.930 . S
C2519 C2518 1.394 . S
C2519 C2520 1.383 1_545 S
C2519 H2527 0.929 . S
C2520 C2519 1.383 1_565 S
C2520 C2521 1.377 . S
C2521 H2505 0.930 . S
C2521 C2520 1.377 . S
C2521 C2522 1.379 . S
C2522 H2506 0.931 . S
C2522 C2516 1.383 . S
C2522 C2521 1.379 . S
H2523 C2517 0.959 . S
H2524 C2517 0.961 . S
H2525 C2517 0.960 . S
H2526 C2518 0.930 . S
H2527 C2519 0.929 . S
H2528 C2536 0.929 . S
H2529 C2538 0.930 . S
H2530 C2540 0.930 . S
H2531 C2543 0.929 . S
H2532 C2546 0.930 . S
H2533 C2548 0.960 . S
H2534 C2548 0.960 . S
H2535 C2548 0.960 . S
C2536 H2528 0.929 . S
C2536 C2537 1.377 . S
C2536 C2538 1.384 1_565 S
C2537 C2536 1.377 . S
C2537 C2543 1.390 . S
C2538 H2529 0.930 . S
C2538 C2536 1.384 1_545 S
C2538 C2539 1.372 . S
C2539 C2538 1.372 . S
C2539 C2540 1.400 . S
C2539 C2544 1.490 . S
C2540 H2530 0.930 . S
C2540 C2539 1.400 . S
C2540 C2543 1.386 1_545 S
H2541 C2557 0.930 . S
H2542 C2558 0.931 . S
C2543 H2531 0.929 . S
C2543 C2537 1.390 . S
C2543 C2540 1.386 1_565 S
C2544 C2539 1.490 . S
C2544 C2546 1.395 . S
C2544 C2547 1.403 . S
H2545 C2551 0.930 . S
C2546 H2532 0.930 . S
C2546 C2544 1.395 . S
C2546 C2549 1.403 . S
C2547 C2544 1.403 . S
C2547 C2548 1.524 . S
C2547 C2551 1.400 . S
C2548 H2533 0.960 . S
C2548 H2534 0.960 . S
C2548 H2535 0.960 . S
C2548 C2547 1.524 . S
C2549 C2546 1.403 . S
C2549 C2550 1.392 . S
C2549 C2553 1.495 . S
C2550 C2549 1.392 . S
C2550 C2551 1.385 . S
C2550 C2552 1.478 . S
C2551 H2545 0.930 . S
C2551 C2547 1.400 . S
C2551 C2550 1.385 . S
C2552 C2550 1.478 . S
C2552 C2554 1.381 . S
C2552 C2558 1.383 . S
C2553 C2549 1.495 . S
C2553 H2559 0.959 . S
C2553 H2560 0.961 . S
C2553 H2561 0.960 . S
C2554 C2552 1.381 . S
C2554 C2555 1.394 . S
C2554 H2562 0.930 . S
C2555 C2554 1.394 . S
C2555 C2556 1.383 . S
C2555 H2563 0.929 . S
C2556 C2555 1.383 . S
C2556 C2557 1.377 . S
C2557 H2541 0.930 . S
C2557 C2556 1.377 . S
C2557 C2558 1.379 . S
C2558 H2542 0.931 . S
C2558 C2552 1.383 . S
C2558 C2557 1.379 . S
H2559 C2553 0.959 . S
H2560 C2553 0.961 . S
H2561 C2553 0.960 . S
H2562 C2554 0.930 . S
H2563 C2555 0.929 . S
H2564 C2572 0.929 1_545 S
H2565 C2574 0.930 1_545 S
H2566 C2576 0.930 . S
H2567 C2579 0.929 . S
H2568 C2582 0.930 . S
H2569 C2584 0.960 . S
H2570 C2584 0.960 . S
H2571 C2584 0.960 . S
C2572 H2564 0.929 1_565 S
C2572 C2573 1.377 . S
C2572 C2574 1.384 . S
C2573 C2572 1.377 . S
C2573 C2579 1.390 . S
C2574 H2565 0.930 1_565 S
C2574 C2572 1.384 . S
C2574 C2575 1.372 . S
C2575 C2574 1.372 . S
C2575 C2576 1.400 . S
C2575 C2580 1.490 . S
C2576 H2566 0.930 . S
C2576 C2575 1.400 . S
C2576 C2579 1.386 . S
H2577 C2593 0.930 . S
H2578 C2594 0.931 . S
C2579 H2567 0.929 . S
C2579 C2573 1.390 . S
C2579 C2576 1.386 . S
C2580 C2575 1.490 . S
C2580 C2582 1.395 . S
C2580 C2583 1.403 1_565 S
H2581 C2587 0.930 . S
C2582 H2568 0.930 . S
C2582 C2580 1.395 . S
C2582 C2585 1.403 . S
C2583 C2580 1.403 1_545 S
C2583 C2584 1.524 . S
C2583 C2587 1.400 . S
C2584 H2569 0.960 . S
C2584 H2570 0.960 . S
C2584 H2571 0.960 . S
C2584 C2583 1.524 . S
C2585 C2582 1.403 . S
C2585 C2586 1.392 . S
C2585 C2589 1.495 . S
C2586 C2585 1.392 . S
C2586 C2587 1.385 1_565 S
C2586 C2588 1.478 . S
C2587 H2581 0.930 . S
C2587 C2583 1.400 . S
C2587 C2586 1.385 1_545 S
C2588 C2586 1.478 . S
C2588 C2590 1.381 . S
C2588 C2594 1.383 . S
C2589 C2585 1.495 . S
C2589 H2595 0.959 . S
C2589 H2596 0.961 . S
C2589 H2597 0.960 . S
C2590 C2588 1.381 . S
C2590 C2591 1.394 . S
C2590 H2598 0.930 1_565 S
C2591 C2590 1.394 . S
C2591 C2592 1.383 . S
C2591 H2599 0.929 1_565 S
C2592 C2591 1.383 . S
C2592 C2593 1.377 . S
C2593 H2577 0.930 . S
C2593 C2592 1.377 . S
C2593 C2594 1.379 . S
C2594 H2578 0.931 . S
C2594 C2588 1.383 . S
C2594 C2593 1.379 . S
H2595 C2589 0.959 . S
H2596 C2589 0.961 . S
H2597 C2589 0.960 . S
H2598 C2590 0.930 1_545 S
H2599 C2591 0.929 1_545 S
H2600 C2608 0.929 . S
H2601 C2610 0.930 . S
H2602 C2612 0.930 . S
H2603 C2615 0.929 . S
H2604 C2618 0.930 . S
H2605 C2620 0.960 . S
H2606 C2620 0.960 . S
H2607 C2620 0.960 . S
C2608 H2600 0.929 . S
C2608 C2609 1.377 . S
C2608 C2610 1.384 1_545 S
C2609 C2608 1.377 . S
C2609 C2615 1.390 . S
C2610 H2601 0.930 . S
C2610 C2608 1.384 1_565 S
C2610 C2611 1.372 . S
C2611 C2610 1.372 . S
C2611 C2612 1.400 . S
C2611 C2616 1.490 . S
C2612 H2602 0.930 . S
C2612 C2611 1.400 . S
C2612 C2615 1.386 1_565 S
H2613 C2629 0.930 . S
H2614 C2630 0.931 . S
C2615 H2603 0.929 . S
C2615 C2609 1.390 . S
C2615 C2612 1.386 1_545 S
C2616 C2611 1.490 . S
C2616 C2618 1.395 . S
C2616 C2619 1.403 . S
H2617 C2623 0.930 . S
C2618 H2604 0.930 . S
C2618 C2616 1.395 . S
C2618 C2621 1.403 . S
C2619 C2616 1.403 . S
C2619 C2620 1.524 . S
C2619 C2623 1.400 . S
C2620 H2605 0.960 . S
C2620 H2606 0.960 . S
C2620 H2607 0.960 . S
C2620 C2619 1.524 . S
C2621 C2618 1.403 . S
C2621 C2622 1.392 . S
C2621 C2625 1.495 . S
C2622 C2621 1.392 . S
C2622 C2623 1.385 . S
C2622 C2624 1.478 . S
C2623 H2617 0.930 . S
C2623 C2619 1.400 . S
C2623 C2622 1.385 . S
C2624 C2622 1.478 . S
C2624 C2626 1.381 . S
C2624 C2630 1.383 . S
C2625 C2621 1.495 . S
C2625 H2631 0.959 . S
C2625 H2632 0.961 . S
C2625 H2633 0.960 . S
C2626 C2624 1.381 . S
C2626 C2627 1.394 . S
C2626 H2634 0.930 . S
C2627 C2626 1.394 . S
C2627 C2628 1.383 . S
C2627 H2635 0.929 . S
C2628 C2627 1.383 . S
C2628 C2629 1.377 . S
C2629 H2613 0.930 . S
C2629 C2628 1.377 . S
C2629 C2630 1.379 . S
C2630 H2614 0.931 . S
C2630 C2624 1.383 . S
C2630 C2629 1.379 . S
H2631 C2625 0.959 . S
H2632 C2625 0.961 . S
H2633 C2625 0.960 . S
H2634 C2626 0.930 . S
H2635 C2627 0.929 . S
H2636 C2644 0.929 . S
H2637 C2646 0.930 . S
H2638 C2648 0.930 . S
H2639 C2651 0.929 . S
H2640 C2654 0.930 . S
H2641 C2656 0.960 . S
H2642 C2656 0.960 1_565 S
H2643 C2656 0.960 . S
C2644 H2636 0.929 . S
C2644 C2645 1.377 1_565 S
C2644 C2646 1.384 . S
C2645 C2644 1.377 1_545 S
C2645 C2651 1.390 . S
C2646 H2637 0.930 . S
C2646 C2644 1.384 . S
C2646 C2647 1.372 1_565 S
C2647 C2646 1.372 1_545 S
C2647 C2648 1.400 . S
C2647 C2652 1.490 . S
C2648 H2638 0.930 . S
C2648 C2647 1.400 . S
C2648 C2651 1.386 . S
H2649 C2665 0.930 . S
H2650 C2666 0.931 . S
C2651 H2639 0.929 . S
C2651 C2645 1.390 . S
C2651 C2648 1.386 . S
C2652 C2647 1.490 . S
C2652 C2654 1.395 . S
C2652 C2655 1.403 . S
H2653 C2659 0.930 . S
C2654 H2640 0.930 . S
C2654 C2652 1.395 . S
C2654 C2657 1.403 . S
C2655 C2652 1.403 . S
C2655 C2656 1.524 . S
C2655 C2659 1.400 . S
C2656 H2641 0.960 . S
C2656 H2642 0.960 1_545 S
C2656 H2643 0.960 . S
C2656 C2655 1.524 . S
C2657 C2654 1.403 . S
C2657 C2658 1.392 . S
C2657 C2661 1.495 . S
C2658 C2657 1.392 . S
C2658 C2659 1.385 . S
C2658 C2660 1.478 . S
C2659 H2653 0.930 . S
C2659 C2655 1.400 . S
C2659 C2658 1.385 . S
C2660 C2658 1.478 . S
C2660 C2662 1.381 1_545 S
C2660 C2666 1.383 . S
C2661 C2657 1.495 . S
C2661 H2667 0.959 . S
C2661 H2668 0.961 . S
C2661 H2669 0.939 1_545 S
C2662 C2660 1.381 1_565 S
C2662 C2663 1.394 . S
C2662 H2670 0.930 . S
C2663 C2662 1.394 . S
C2663 C2664 1.383 1_565 S
C2663 H2671 0.929 . S
C2664 C2663 1.383 1_545 S
C2664 C2665 1.377 . S
C2665 H2649 0.930 . S
C2665 C2664 1.377 . S
C2665 C2666 1.379 . S
C2666 H2650 0.931 . S
C2666 C2660 1.383 . S
C2666 C2665 1.379 . S
H2667 C2661 0.959 . S
H2668 C2661 0.961 . S
H2669 C2661 0.939 1_565 S
H2670 C2662 0.930 . S
H2671 C2663 0.929 . S
H2672 C2680 0.929 . S
H2673 C2682 0.930 . S
H2674 C2684 0.930 . S
H2675 C2687 0.929 . S
H2676 C2690 0.930 . S
H2677 C2692 0.960 . S
H2678 C2692 0.960 . S
H2679 C2692 0.960 . S
C2680 H2672 0.929 . S
C2680 C2681 1.377 . S
C2680 C2682 1.384 . S
C2681 C2680 1.377 . S
C2681 C2687 1.390 . S
C2682 H2673 0.930 . S
C2682 C2680 1.384 . S
C2682 C2683 1.372 . S
C2683 C2682 1.372 . S
C2683 C2684 1.400 . S
C2683 C2688 1.490 . S
C2684 H2674 0.930 . S
C2684 C2683 1.400 . S
C2684 C2687 1.386 . S
H2685 C2701 0.930 . S
H2686 C2702 0.931 . S
C2687 H2675 0.929 . S
C2687 C2681 1.390 . S
C2687 C2684 1.386 . S
C2688 C2683 1.490 . S
C2688 C2690 1.395 . S
C2688 C2691 1.403 . S
H2689 C2695 0.930 . S
C2690 H2676 0.930 . S
C2690 C2688 1.395 . S
C2690 C2693 1.403 . S
C2691 C2688 1.403 . S
C2691 C2692 1.524 . S
C2691 C2695 1.400 . S
C2692 H2677 0.960 . S
C2692 H2678 0.960 . S
C2692 H2679 0.960 . S
C2692 C2691 1.524 . S
C2693 C2690 1.403 . S
C2693 C2694 1.392 . S
C2693 C2697 1.495 . S
C2694 C2693 1.392 . S
C2694 C2695 1.385 . S
C2694 C2696 1.478 . S
C2695 H2689 0.930 . S
C2695 C2691 1.400 . S
C2695 C2694 1.385 . S
C2696 C2694 1.478 . S
C2696 C2698 1.381 . S
C2696 C2702 1.383 . S
C2697 C2693 1.495 . S
C2697 H2703 0.959 . S
C2697 H2704 0.961 . S
C2697 H2705 0.960 . S
C2698 C2696 1.381 . S
C2698 C2699 1.394 1_565 S
C2698 H2706 0.930 . S
C2699 C2698 1.394 1_545 S
C2699 C2700 1.383 . S
C2699 H2707 0.929 . S
C2700 C2699 1.383 . S
C2700 C2701 1.377 . S
C2701 H2685 0.930 . S
C2701 C2700 1.377 . S
C2701 C2702 1.379 1_545 S
C2702 H2686 0.931 . S
C2702 C2696 1.383 . S
C2702 C2701 1.379 1_565 S
H2703 C2697 0.959 . S
H2704 C2697 0.961 . S
H2705 C2697 0.960 . S
H2706 C2698 0.930 . S
H2707 C2699 0.929 . S
H2708 C2716 0.929 . S
H2709 C2718 0.930 . S
H2710 C2720 0.930 . S
H2711 C2723 0.929 . S
H2712 C2726 0.930 . S
H2713 C2728 0.960 . S
H2714 C2728 0.960 . S
H2715 C2728 0.960 . S
C2716 H2708 0.929 . S
C2716 C2717 1.377 1_545 S
C2716 C2718 1.384 . S
C2717 C2716 1.377 1_565 S
C2717 C2723 1.390 . S
C2718 H2709 0.930 . S
C2718 C2716 1.384 . S
C2718 C2719 1.372 1_545 S
C2719 C2718 1.372 1_565 S
C2719 C2720 1.400 . S
C2719 C2724 1.490 . S
C2720 H2710 0.930 . S
C2720 C2719 1.400 . S
C2720 C2723 1.386 . S
H2721 C2737 0.930 . S
H2722 C2738 0.931 . S
C2723 H2711 0.929 . S
C2723 C2717 1.390 . S
C2723 C2720 1.386 . S
C2724 C2719 1.490 . S
C2724 C2726 1.395 1_565 S
C2724 C2727 1.403 . S
H2725 C2731 0.930 . S
C2726 H2712 0.930 . S
C2726 C2724 1.395 1_545 S
C2726 C2729 1.403 . S
C2727 C2724 1.403 . S
C2727 C2728 1.524 . S
C2727 C2731 1.400 . S
C2728 H2713 0.960 . S
C2728 H2714 0.960 . S
C2728 H2715 0.960 . S
C2728 C2727 1.524 . S
C2729 C2726 1.403 . S
C2729 C2730 1.392 1_545 S
C2729 C2733 1.495 . S
C2730 C2729 1.392 1_565 S
C2730 C2731 1.385 . S
C2730 C2732 1.478 . S
C2731 H2725 0.930 . S
C2731 C2727 1.400 . S
C2731 C2730 1.385 . S
C2732 C2730 1.478 . S
C2732 C2734 1.381 1_565 S
C2732 C2738 1.383 . S
C2733 C2729 1.495 . S
C2733 H2739 0.959 . S
C2733 H2740 0.939 1_545 S
C2733 H2741 0.960 . S
C2734 C2732 1.381 1_545 S
C2734 C2735 1.394 . S
C2734 H2742 0.930 . S
C2735 C2734 1.394 . S
C2735 C2736 1.383 1_545 S
C2735 H2743 0.929 . S
C2736 C2735 1.383 1_565 S
C2736 C2737 1.377 . S
C2737 H2721 0.930 . S
C2737 C2736 1.377 . S
C2737 C2738 1.379 . S
C2738 H2722 0.931 . S
C2738 C2732 1.383 . S
C2738 C2737 1.379 . S
H2739 C2733 0.959 . S
H2740 C2733 0.939 1_565 S
H2741 C2733 0.960 . S
H2742 C2734 0.930 . S
H2743 C2735 0.929 . S
H2744 C2752 0.929 . S
H2745 C2754 0.930 . S
H2746 C2756 0.930 . S
H2747 C2759 0.929 . S
H2748 C2762 0.930 . S
H2749 C2764 0.960 . S
H2750 C2764 0.960 . S
H2751 C2764 0.960 . S
C2752 H2744 0.929 . S
C2752 C2753 1.377 . S
C2752 C2754 1.384 1_565 S
C2753 C2752 1.377 . S
C2753 C2759 1.390 . S
C2754 H2745 0.930 . S
C2754 C2752 1.384 1_545 S
C2754 C2755 1.372 . S
C2755 C2754 1.372 . S
C2755 C2756 1.400 . S
C2755 C2760 1.490 . S
C2756 H2746 0.930 . S
C2756 C2755 1.400 . S
C2756 C2759 1.386 1_545 S
H2757 C2773 0.930 . S
H2758 C2774 0.931 . S
C2759 H2747 0.929 . S
C2759 C2753 1.390 . S
C2759 C2756 1.386 1_565 S
C2760 C2755 1.490 . S
C2760 C2762 1.395 . S
C2760 C2763 1.403 . S
H2761 C2767 0.930 . S
C2762 H2748 0.930 . S
C2762 C2760 1.395 . S
C2762 C2765 1.403 . S
C2763 C2760 1.403 . S
C2763 C2764 1.524 . S
C2763 C2767 1.400 . S
C2764 H2749 0.960 . S
C2764 H2750 0.960 . S
C2764 H2751 0.960 . S
C2764 C2763 1.524 . S
C2765 C2762 1.403 . S
C2765 C2766 1.392 . S
C2765 C2769 1.495 . S
C2766 C2765 1.392 . S
C2766 C2767 1.385 . S
C2766 C2768 1.478 . S
C2767 H2761 0.930 . S
C2767 C2763 1.400 . S
C2767 C2766 1.385 . S
C2768 C2766 1.478 . S
C2768 C2770 1.381 . S
C2768 C2774 1.383 . S
C2769 C2765 1.495 . S
C2769 H2775 0.959 . S
C2769 H2776 0.961 . S
C2769 H2777 0.960 . S
C2770 C2768 1.381 . S
C2770 C2771 1.394 . S
C2770 H2778 0.930 . S
C2771 C2770 1.394 . S
C2771 C2772 1.383 . S
C2771 H2779 0.929 . S
C2772 C2771 1.383 . S
C2772 C2773 1.377 . S
C2773 H2757 0.930 . S
C2773 C2772 1.377 . S
C2773 C2774 1.379 . S
C2774 H2758 0.931 . S
C2774 C2768 1.383 . S
C2774 C2773 1.379 . S
H2775 C2769 0.959 . S
H2776 C2769 0.961 . S
H2777 C2769 0.960 . S
H2778 C2770 0.930 . S
H2779 C2771 0.929 . S
H2780 C2788 0.929 . S
H2781 C2790 0.930 . S
H2782 C2792 0.930 . S
H2783 C2795 0.929 . S
H2784 C2798 0.930 . S
H2785 C2800 0.960 . S
H2786 C2800 0.960 1_565 S
H2787 C2800 0.960 . S
C2788 H2780 0.929 . S
C2788 C2789 1.377 1_565 S
C2788 C2790 1.384 . S
C2789 C2788 1.377 1_545 S
C2789 C2795 1.390 . S
C2790 H2781 0.930 . S
C2790 C2788 1.384 . S
C2790 C2791 1.372 1_565 S
C2791 C2790 1.372 1_545 S
C2791 C2792 1.400 . S
C2791 C2796 1.490 . S
C2792 H2782 0.930 . S
C2792 C2791 1.400 . S
C2792 C2795 1.386 . S
H2793 C2809 0.930 . S
H2794 C2810 0.931 . S
C2795 H2783 0.929 . S
C2795 C2789 1.390 . S
C2795 C2792 1.386 . S
C2796 C2791 1.490 . S
C2796 C2798 1.395 . S
C2796 C2799 1.403 . S
H2797 C2803 0.930 . S
C2798 H2784 0.930 . S
C2798 C2796 1.395 . S
C2798 C2801 1.403 . S
C2799 C2796 1.403 . S
C2799 C2800 1.524 . S
C2799 C2803 1.400 . S
C2800 H2785 0.960 . S
C2800 H2786 0.960 1_545 S
C2800 H2787 0.960 . S
C2800 C2799 1.524 . S
C2801 C2798 1.403 . S
C2801 C2802 1.392 . S
C2801 C2805 1.495 . S
C2802 C2801 1.392 . S
C2802 C2803 1.385 . S
C2802 C2804 1.478 . S
C2803 H2797 0.930 . S
C2803 C2799 1.400 . S
C2803 C2802 1.385 . S
C2804 C2802 1.478 . S
C2804 C2806 1.381 1_545 S
C2804 C2810 1.383 . S
C2805 C2801 1.495 . S
C2805 H2811 0.959 . S
C2805 H2812 0.961 . S
C2805 H2813 0.960 . S
C2806 C2804 1.381 1_565 S
C2806 C2807 1.394 . S
C2806 H2814 0.930 . S
C2807 C2806 1.394 . S
C2807 C2808 1.383 1_565 S
C2807 H2815 0.929 . S
C2808 C2807 1.383 1_545 S
C2808 C2809 1.377 . S
C2809 H2793 0.930 . S
C2809 C2808 1.377 . S
C2809 C2810 1.379 . S
C2810 H2794 0.931 . S
C2810 C2804 1.383 . S
C2810 C2809 1.379 . S
H2811 C2805 0.959 . S
H2812 C2805 0.961 . S
H2813 C2805 0.960 . S
H2814 C2806 0.930 . S
H2815 C2807 0.929 . S
H2816 C2824 0.929 . S
H2817 C2826 0.930 . S
H2818 C2828 0.930 . S
H2819 C2831 0.929 . S
H2820 C2834 0.930 . S
H2821 C2836 0.960 . S
H2822 C2836 0.960 . S
H2823 C2836 0.960 . S
C2824 H2816 0.929 . S
C2824 C2825 1.377 . S
C2824 C2826 1.384 . S
C2825 C2824 1.377 . S
C2825 C2831 1.390 . S
C2826 H2817 0.930 . S
C2826 C2824 1.384 . S
C2826 C2827 1.372 . S
C2827 C2826 1.372 . S
C2827 C2828 1.400 . S
C2827 C2832 1.490 . S
C2828 H2818 0.930 . S
C2828 C2827 1.400 . S
C2828 C2831 1.386 . S
H2829 C2845 0.930 . S
H2830 C2846 0.931 . S
C2831 H2819 0.929 . S
C2831 C2825 1.390 . S
C2831 C2828 1.386 . S
C2832 C2827 1.490 . S
C2832 C2834 1.395 . S
C2832 C2835 1.403 . S
H2833 C2839 0.930 . S
C2834 H2820 0.930 . S
C2834 C2832 1.395 . S
C2834 C2837 1.403 . S
C2835 C2832 1.403 . S
C2835 C2836 1.524 . S
C2835 C2839 1.400 . S
C2836 H2821 0.960 . S
C2836 H2822 0.960 . S
C2836 H2823 0.960 . S
C2836 C2835 1.524 . S
C2837 C2834 1.403 . S
C2837 C2838 1.392 . S
C2837 C2841 1.495 . S
C2838 C2837 1.392 . S
C2838 C2839 1.385 . S
C2838 C2840 1.478 . S
C2839 H2833 0.930 . S
C2839 C2835 1.400 . S
C2839 C2838 1.385 . S
C2840 C2838 1.478 . S
C2840 C2842 1.381 . S
C2840 C2846 1.383 . S
C2841 C2837 1.495 . S
C2841 H2847 0.959 . S
C2841 H2848 0.961 . S
C2841 H2849 0.960 . S
C2842 C2840 1.381 . S
C2842 C2843 1.394 . S
C2842 H2850 0.930 . S
C2843 C2842 1.394 . S
C2843 C2844 1.383 . S
C2843 H2851 0.929 . S
C2844 C2843 1.383 . S
C2844 C2845 1.377 . S
C2845 H2829 0.930 . S
C2845 C2844 1.377 . S
C2845 C2846 1.379 . S
C2846 H2830 0.931 . S
C2846 C2840 1.383 . S
C2846 C2845 1.379 . S
H2847 C2841 0.959 . S
H2848 C2841 0.961 . S
H2849 C2841 0.960 . S
H2850 C2842 0.930 . S
H2851 C2843 0.929 . S
H2852 C2860 0.929 . S
H2853 C2862 0.930 . S
H2854 C2864 0.930 . S
H2855 C2867 0.929 . S
H2856 C2870 0.930 . S
H2857 C2872 0.960 . S
H2858 C2872 0.960 . S
H2859 C2872 0.960 . S
C2860 H2852 0.929 . S
C2860 C2861 1.377 . S
C2860 C2862 1.384 . S
C2861 C2860 1.377 . S
C2861 C2867 1.390 . S
C2862 H2853 0.930 . S
C2862 C2860 1.384 . S
C2862 C2863 1.372 . S
C2863 C2862 1.372 . S
C2863 C2864 1.400 . S
C2863 C2868 1.490 . S
C2864 H2854 0.930 . S
C2864 C2863 1.400 . S
C2864 C2867 1.386 . S
H2865 C2881 0.930 . S
H2866 C2882 0.931 . S
C2867 H2855 0.929 . S
C2867 C2861 1.390 . S
C2867 C2864 1.386 . S
C2868 C2863 1.490 . S
C2868 C2870 1.395 . S
C2868 C2871 1.403 . S
H2869 C2875 0.930 . S
C2870 H2856 0.930 . S
C2870 C2868 1.395 . S
C2870 C2873 1.403 . S
C2871 C2868 1.403 . S
C2871 C2872 1.524 . S
C2871 C2875 1.400 . S
C2872 H2857 0.960 . S
C2872 H2858 0.960 . S
C2872 H2859 0.960 . S
C2872 C2871 1.524 . S
C2873 C2870 1.403 . S
C2873 C2874 1.392 . S
C2873 C2877 1.495 . S
C2874 C2873 1.392 . S
C2874 C2875 1.385 . S
C2874 C2876 1.478 . S
C2875 H2869 0.930 . S
C2875 C2871 1.400 . S
C2875 C2874 1.385 . S
C2876 C2874 1.478 . S
C2876 C2878 1.381 . S
C2876 C2882 1.383 . S
C2877 C2873 1.495 . S
C2877 H2883 0.959 . S
C2877 H2884 0.961 . S
C2877 H2885 0.960 . S
C2878 C2876 1.381 . S
C2878 C2879 1.394 . S
C2878 H2886 0.930 . S
C2879 C2878 1.394 . S
C2879 C2880 1.383 . S
C2879 H2887 0.929 . S
C2880 C2879 1.383 . S
C2880 C2881 1.377 . S
C2881 H2865 0.930 . S
C2881 C2880 1.377 . S
C2881 C2882 1.379 . S
C2882 H2866 0.931 . S
C2882 C2876 1.383 . S
C2882 C2881 1.379 . S
H2883 C2877 0.959 . S
H2884 C2877 0.961 . S
H2885 C2877 0.960 . S
H2886 C2878 0.930 . S
H2887 C2879 0.929 . S
H2888 C2896 0.929 . S
H2889 C2898 0.930 . S
H2890 C2900 0.930 . S
H2891 C2903 0.929 . S
H2892 C2906 0.930 . S
H2893 C2908 0.960 . S
H2894 C2908 0.960 . S
H2895 C2908 0.960 . S
C2896 H2888 0.929 . S
C2896 C2897 1.377 . S
C2896 C2898 1.384 . S
C2897 C2896 1.377 . S
C2897 C2903 1.390 . S
C2898 H2889 0.930 . S
C2898 C2896 1.384 . S
C2898 C2899 1.372 . S
C2899 C2898 1.372 . S
C2899 C2900 1.400 . S
C2899 C2904 1.490 . S
C2900 H2890 0.930 . S
C2900 C2899 1.400 . S
C2900 C2903 1.386 . S
H2901 C2917 0.930 . S
H2902 C2918 0.931 . S
C2903 H2891 0.929 . S
C2903 C2897 1.390 . S
C2903 C2900 1.386 . S
C2904 C2899 1.490 . S
C2904 C2906 1.395 . S
C2904 C2907 1.403 . S
H2905 C2911 0.930 . S
C2906 H2892 0.930 . S
C2906 C2904 1.395 . S
C2906 C2909 1.403 . S
C2907 C2904 1.403 . S
C2907 C2908 1.524 . S
C2907 C2911 1.400 . S
C2908 H2893 0.960 . S
C2908 H2894 0.960 . S
C2908 H2895 0.960 . S
C2908 C2907 1.524 . S
C2909 C2906 1.403 . S
C2909 C2910 1.392 . S
C2909 C2913 1.495 . S
C2910 C2909 1.392 . S
C2910 C2911 1.385 . S
C2910 C2912 1.478 . S
C2911 H2905 0.930 . S
C2911 C2907 1.400 . S
C2911 C2910 1.385 . S
C2912 C2910 1.478 . S
C2912 C2914 1.381 . S
C2912 C2918 1.383 . S
C2913 C2909 1.495 . S
C2913 H2919 0.959 . S
C2913 H2920 0.961 . S
C2913 H2921 0.960 . S
C2914 C2912 1.381 . S
C2914 C2915 1.394 . S
C2914 H2922 0.930 . S
C2915 C2914 1.394 . S
C2915 C2916 1.383 . S
C2915 H2923 0.929 . S
C2916 C2915 1.383 . S
C2916 C2917 1.377 . S
C2917 H2901 0.930 . S
C2917 C2916 1.377 . S
C2917 C2918 1.379 . S
C2918 H2902 0.931 . S
C2918 C2912 1.383 . S
C2918 C2917 1.379 . S
H2919 C2913 0.959 . S
H2920 C2913 0.961 . S
H2921 C2913 0.960 . S
H2922 C2914 0.930 . S
H2923 C2915 0.929 . S
H2924 C2932 0.929 . S
H2925 C2934 0.930 . S
H2926 C2936 0.930 . S
H2927 C2939 0.929 . S
H2928 C2942 0.930 . S
H2929 C2944 0.960 . S
H2930 C2944 0.960 . S
H2931 C2944 0.960 . S
C2932 H2924 0.929 . S
C2932 C2933 1.377 . S
C2932 C2934 1.384 . S
C2933 C2932 1.377 . S
C2933 C2939 1.390 . S
C2934 H2925 0.930 . S
C2934 C2932 1.384 . S
C2934 C2935 1.372 . S
C2935 C2934 1.372 . S
C2935 C2936 1.400 . S
C2935 C2940 1.490 . S
C2936 H2926 0.930 . S
C2936 C2935 1.400 . S
C2936 C2939 1.386 . S
H2937 C2953 0.930 . S
H2938 C2954 0.931 . S
C2939 H2927 0.929 . S
C2939 C2933 1.390 . S
C2939 C2936 1.386 . S
C2940 C2935 1.490 . S
C2940 C2942 1.395 . S
C2940 C2943 1.403 . S
H2941 C2947 0.930 . S
C2942 H2928 0.930 . S
C2942 C2940 1.395 . S
C2942 C2945 1.403 . S
C2943 C2940 1.403 . S
C2943 C2944 1.524 . S
C2943 C2947 1.400 . S
C2944 H2929 0.960 . S
C2944 H2930 0.960 . S
C2944 H2931 0.960 . S
C2944 C2943 1.524 . S
C2945 C2942 1.403 . S
C2945 C2946 1.392 . S
C2945 C2949 1.495 . S
C2946 C2945 1.392 . S
C2946 C2947 1.385 . S
C2946 C2948 1.478 . S
C2947 H2941 0.930 . S
C2947 C2943 1.400 . S
C2947 C2946 1.385 . S
C2948 C2946 1.478 . S
C2948 C2950 1.381 . S
C2948 C2954 1.383 . S
C2949 C2945 1.495 . S
C2949 H2955 0.959 . S
C2949 H2956 0.961 . S
C2949 H2957 0.960 . S
C2950 C2948 1.381 . S
C2950 C2951 1.394 . S
C2950 H2958 0.930 . S
C2951 C2950 1.394 . S
C2951 C2952 1.383 . S
C2951 H2959 0.929 . S
C2952 C2951 1.383 . S
C2952 C2953 1.377 . S
C2953 H2937 0.930 . S
C2953 C2952 1.377 . S
C2953 C2954 1.379 . S
C2954 H2938 0.931 . S
C2954 C2948 1.383 . S
C2954 C2953 1.379 . S
H2955 C2949 0.959 . S
H2956 C2949 0.961 . S
H2957 C2949 0.960 . S
H2958 C2950 0.930 . S
H2959 C2951 0.929 . S
H2960 C2968 0.929 . S
H2961 C2970 0.930 . S
H2962 C2972 0.930 . S
H2963 C2975 0.929 . S
H2964 C2978 0.930 . S
H2965 C2980 0.960 . S
H2966 C2980 0.960 . S
H2967 C2980 0.960 . S
C2968 H2960 0.929 . S
C2968 C2969 1.377 . S
C2968 C2970 1.384 . S
C2969 C2968 1.377 . S
C2969 C2975 1.390 . S
C2970 H2961 0.930 . S
C2970 C2968 1.384 . S
C2970 C2971 1.372 . S
C2971 C2970 1.372 . S
C2971 C2972 1.400 . S
C2971 C2976 1.490 . S
C2972 H2962 0.930 . S
C2972 C2971 1.400 . S
C2972 C2975 1.386 . S
H2973 C2989 0.930 . S
H2974 C2990 0.931 . S
C2975 H2963 0.929 . S
C2975 C2969 1.390 . S
C2975 C2972 1.386 . S
C2976 C2971 1.490 . S
C2976 C2978 1.395 . S
C2976 C2979 1.403 . S
H2977 C2983 0.930 . S
C2978 H2964 0.930 . S
C2978 C2976 1.395 . S
C2978 C2981 1.403 . S
C2979 C2976 1.403 . S
C2979 C2980 1.524 . S
C2979 C2983 1.400 . S
C2980 H2965 0.960 . S
C2980 H2966 0.960 . S
C2980 H2967 0.960 . S
C2980 C2979 1.524 . S
C2981 C2978 1.403 . S
C2981 C2982 1.392 . S
C2981 C2985 1.495 . S
C2982 C2981 1.392 . S
C2982 C2983 1.385 . S
C2982 C2984 1.478 . S
C2983 H2977 0.930 . S
C2983 C2979 1.400 . S
C2983 C2982 1.385 . S
C2984 C2982 1.478 . S
C2984 C2986 1.381 . S
C2984 C2990 1.383 . S
C2985 C2981 1.495 . S
C2985 H2991 0.959 . S
C2985 H2992 0.961 . S
C2985 H2993 0.960 . S
C2986 C2984 1.381 . S
C2986 C2987 1.394 . S
C2986 H2994 0.930 . S
C2987 C2986 1.394 . S
C2987 C2988 1.383 . S
C2987 H2995 0.929 . S
C2988 C2987 1.383 . S
C2988 C2989 1.377 . S
C2989 H2973 0.930 . S
C2989 C2988 1.377 . S
C2989 C2990 1.379 . S
C2990 H2974 0.931 . S
C2990 C2984 1.383 . S
C2990 C2989 1.379 . S
H2991 C2985 0.959 . S
H2992 C2985 0.961 . S
H2993 C2985 0.960 . S
H2994 C2986 0.930 . S
H2995 C2987 0.929 . S
H2996 C3004 0.929 . S
H2997 C3006 0.930 . S
H2998 C3008 0.930 . S
H2999 C3011 0.929 . S
H3000 C3014 0.930 . S
H3001 C3016 0.960 . S
H3002 C3016 0.960 . S
H3003 C3016 0.960 . S
C3004 H2996 0.929 . S
C3004 C3005 1.377 . S
C3004 C3006 1.384 . S
C3005 C3004 1.377 . S
C3005 C3011 1.390 . S
C3006 H2997 0.930 . S
C3006 C3004 1.384 . S
C3006 C3007 1.372 . S
C3007 C3006 1.372 . S
C3007 C3008 1.400 . S
C3007 C3012 1.490 . S
C3008 H2998 0.930 . S
C3008 C3007 1.400 . S
C3008 C3011 1.386 . S
H3009 C3025 0.930 . S
H3010 C3026 0.931 . S
C3011 H2999 0.929 . S
C3011 C3005 1.390 . S
C3011 C3008 1.386 . S
C3012 C3007 1.490 . S
C3012 C3014 1.395 . S
C3012 C3015 1.403 . S
H3013 C3019 0.930 . S
C3014 H3000 0.930 . S
C3014 C3012 1.395 . S
C3014 C3017 1.403 . S
C3015 C3012 1.403 . S
C3015 C3016 1.524 . S
C3015 C3019 1.400 . S
C3016 H3001 0.960 . S
C3016 H3002 0.960 . S
C3016 H3003 0.960 . S
C3016 C3015 1.524 . S
C3017 C3014 1.403 . S
C3017 C3018 1.392 . S
C3017 C3021 1.495 . S
C3018 C3017 1.392 . S
C3018 C3019 1.385 . S
C3018 C3020 1.478 . S
C3019 H3013 0.930 . S
C3019 C3015 1.400 . S
C3019 C3018 1.385 . S
C3020 C3018 1.478 . S
C3020 C3022 1.381 . S
C3020 C3026 1.383 . S
C3021 C3017 1.495 . S
C3021 H3027 0.959 . S
C3021 H3028 0.961 . S
C3021 H3029 0.960 . S
C3022 C3020 1.381 . S
C3022 C3023 1.394 . S
C3022 H3030 0.930 . S
C3023 C3022 1.394 . S
C3023 C3024 1.383 . S
C3023 H3031 0.929 . S
C3024 C3023 1.383 . S
C3024 C3025 1.377 . S
C3025 H3009 0.930 . S
C3025 C3024 1.377 . S
C3025 C3026 1.379 . S
C3026 H3010 0.931 . S
C3026 C3020 1.383 . S
C3026 C3025 1.379 . S
H3027 C3021 0.959 . S
H3028 C3021 0.961 . S
H3029 C3021 0.960 . S
H3030 C3022 0.930 . S
H3031 C3023 0.929 . S
H3032 C3040 0.929 . S
H3033 C3042 0.930 . S
H3034 C3044 0.930 . S
H3035 C3047 0.929 . S
H3036 C3050 0.930 . S
H3037 C3052 0.960 . S
H3038 C3052 0.960 . S
H3039 C3052 0.960 . S
C3040 H3032 0.929 . S
C3040 C3041 1.377 . S
C3040 C3042 1.384 . S
C3041 C3040 1.377 . S
C3041 C3047 1.390 . S
C3042 H3033 0.930 . S
C3042 C3040 1.384 . S
C3042 C3043 1.372 . S
C3043 C3042 1.372 . S
C3043 C3044 1.400 . S
C3043 C3048 1.490 . S
C3044 H3034 0.930 . S
C3044 C3043 1.400 . S
C3044 C3047 1.386 . S
H3045 C3061 0.930 . S
H3046 C3062 0.931 . S
C3047 H3035 0.929 . S
C3047 C3041 1.390 . S
C3047 C3044 1.386 . S
C3048 C3043 1.490 . S
C3048 C3050 1.395 . S
C3048 C3051 1.403 . S
H3049 C3055 0.930 . S
C3050 H3036 0.930 . S
C3050 C3048 1.395 . S
C3050 C3053 1.403 . S
C3051 C3048 1.403 . S
C3051 C3052 1.524 . S
C3051 C3055 1.400 . S
C3052 H3037 0.960 . S
C3052 H3038 0.960 . S
C3052 H3039 0.960 . S
C3052 C3051 1.524 . S
C3053 C3050 1.403 . S
C3053 C3054 1.392 . S
C3053 C3057 1.495 . S
C3054 C3053 1.392 . S
C3054 C3055 1.385 . S
C3054 C3056 1.478 . S
C3055 H3049 0.930 . S
C3055 C3051 1.400 . S
C3055 C3054 1.385 . S
C3056 C3054 1.478 . S
C3056 C3058 1.381 . S
C3056 C3062 1.383 . S
C3057 C3053 1.495 . S
C3057 H3063 0.959 . S
C3057 H3064 0.961 . S
C3057 H3065 0.960 . S
C3058 C3056 1.381 . S
C3058 C3059 1.394 . S
C3058 H3066 0.930 . S
C3059 C3058 1.394 . S
C3059 C3060 1.383 . S
C3059 H3067 0.929 . S
C3060 C3059 1.383 . S
C3060 C3061 1.377 . S
C3061 H3045 0.930 . S
C3061 C3060 1.377 . S
C3061 C3062 1.379 . S
C3062 H3046 0.931 . S
C3062 C3056 1.383 . S
C3062 C3061 1.379 . S
H3063 C3057 0.959 . S
H3064 C3057 0.961 . S
H3065 C3057 0.960 . S
H3066 C3058 0.930 . S
H3067 C3059 0.929 . S
H3068 C3076 0.929 . S
H3069 C3078 0.930 . S
H3070 C3080 0.930 . S
H3071 C3083 0.929 . S
H3072 C3086 0.930 . S
H3073 C3088 0.960 . S
H3074 C3088 0.960 . S
H3075 C3088 0.960 . S
C3076 H3068 0.929 . S
C3076 C3077 1.377 . S
C3076 C3078 1.384 . S
C3077 C3076 1.377 . S
C3077 C3083 1.390 . S
C3078 H3069 0.930 . S
C3078 C3076 1.384 . S
C3078 C3079 1.372 . S
C3079 C3078 1.372 . S
C3079 C3080 1.400 . S
C3079 C3084 1.490 . S
C3080 H3070 0.930 . S
C3080 C3079 1.400 . S
C3080 C3083 1.386 . S
H3081 C3097 0.930 . S
H3082 C3098 0.931 . S
C3083 H3071 0.929 . S
C3083 C3077 1.390 . S
C3083 C3080 1.386 . S
C3084 C3079 1.490 . S
C3084 C3086 1.395 . S
C3084 C3087 1.403 . S
H3085 C3091 0.930 . S
C3086 H3072 0.930 . S
C3086 C3084 1.395 . S
C3086 C3089 1.403 . S
C3087 C3084 1.403 . S
C3087 C3088 1.524 . S
C3087 C3091 1.400 . S
C3088 H3073 0.960 . S
C3088 H3074 0.960 . S
C3088 H3075 0.960 . S
C3088 C3087 1.524 . S
C3089 C3086 1.403 . S
C3089 C3090 1.392 . S
C3089 C3093 1.495 . S
C3090 C3089 1.392 . S
C3090 C3091 1.385 . S
C3090 C3092 1.478 . S
C3091 H3085 0.930 . S
C3091 C3087 1.400 . S
C3091 C3090 1.385 . S
C3092 C3090 1.478 . S
C3092 C3094 1.381 . S
C3092 C3098 1.383 . S
C3093 C3089 1.495 . S
C3093 H3099 0.959 . S
C3093 H3100 0.961 . S
C3093 H3101 0.960 . S
C3094 C3092 1.381 . S
C3094 C3095 1.394 . S
C3094 H3102 0.930 . S
C3095 C3094 1.394 . S
C3095 C3096 1.383 . S
C3095 H3103 0.929 . S
C3096 C3095 1.383 . S
C3096 C3097 1.377 . S
C3097 H3081 0.930 . S
C3097 C3096 1.377 . S
C3097 C3098 1.379 . S
C3098 H3082 0.931 . S
C3098 C3092 1.383 . S
C3098 C3097 1.379 . S
H3099 C3093 0.959 . S
H3100 C3093 0.961 . S
H3101 C3093 0.960 . S
H3102 C3094 0.930 . S
H3103 C3095 0.929 . S
H3104 C3112 0.929 . S
H3105 C3114 0.930 . S
H3106 C3116 0.930 . S
H3107 C3119 0.929 . S
H3108 C3122 0.930 . S
H3109 C3124 0.960 . S
H3110 C3124 0.960 . S
H3111 C3124 0.960 . S
C3112 H3104 0.929 . S
C3112 C3113 1.377 . S
C3112 C3114 1.384 . S
C3113 C3112 1.377 . S
C3113 C3119 1.390 . S
C3114 H3105 0.930 . S
C3114 C3112 1.384 . S
C3114 C3115 1.372 . S
C3115 C3114 1.372 . S
C3115 C3116 1.400 . S
C3115 C3120 1.490 . S
C3116 H3106 0.930 . S
C3116 C3115 1.400 . S
C3116 C3119 1.386 . S
H3117 C3133 0.930 . S
H3118 C3134 0.931 . S
C3119 H3107 0.929 . S
C3119 C3113 1.390 . S
C3119 C3116 1.386 . S
C3120 C3115 1.490 . S
C3120 C3122 1.395 . S
C3120 C3123 1.403 . S
H3121 C3127 0.930 . S
C3122 H3108 0.930 . S
C3122 C3120 1.395 . S
C3122 C3125 1.403 . S
C3123 C3120 1.403 . S
C3123 C3124 1.524 . S
C3123 C3127 1.400 . S
C3124 H3109 0.960 . S
C3124 H3110 0.960 . S
C3124 H3111 0.960 . S
C3124 C3123 1.524 . S
C3125 C3122 1.403 . S
C3125 C3126 1.392 . S
C3125 C3129 1.495 . S
C3126 C3125 1.392 . S
C3126 C3127 1.385 . S
C3126 C3128 1.478 . S
C3127 H3121 0.930 . S
C3127 C3123 1.400 . S
C3127 C3126 1.385 . S
C3128 C3126 1.478 . S
C3128 C3130 1.381 . S
C3128 C3134 1.383 . S
C3129 C3125 1.495 . S
C3129 H3135 0.959 . S
C3129 H3136 0.961 . S
C3129 H3137 0.960 . S
C3130 C3128 1.381 . S
C3130 C3131 1.394 . S
C3130 H3138 0.930 . S
C3131 C3130 1.394 . S
C3131 C3132 1.383 . S
C3131 H3139 0.929 . S
C3132 C3131 1.383 . S
C3132 C3133 1.377 . S
C3133 H3117 0.930 . S
C3133 C3132 1.377 . S
C3133 C3134 1.379 . S
C3134 H3118 0.931 . S
C3134 C3128 1.383 . S
C3134 C3133 1.379 . S
H3135 C3129 0.959 . S
H3136 C3129 0.961 . S
H3137 C3129 0.960 . S
H3138 C3130 0.930 . S
H3139 C3131 0.929 . S
H3140 C3148 0.929 . S
H3141 C3150 0.930 . S
H3142 C3152 0.930 . S
H3143 C3155 0.929 . S
H3144 C3158 0.930 . S
H3145 C3160 0.960 . S
H3146 C3160 0.960 . S
H3147 C3160 0.960 . S
C3148 H3140 0.929 . S
C3148 C3149 1.377 . S
C3148 C3150 1.384 . S
C3149 C3148 1.377 . S
C3149 C3155 1.390 . S
C3150 H3141 0.930 . S
C3150 C3148 1.384 . S
C3150 C3151 1.372 . S
C3151 C3150 1.372 . S
C3151 C3152 1.400 . S
C3151 C3156 1.490 . S
C3152 H3142 0.930 . S
C3152 C3151 1.400 . S
C3152 C3155 1.386 . S
H3153 C3169 0.930 . S
H3154 C3170 0.931 . S
C3155 H3143 0.929 . S
C3155 C3149 1.390 . S
C3155 C3152 1.386 . S
C3156 C3151 1.490 . S
C3156 C3158 1.395 . S
C3156 C3159 1.403 . S
H3157 C3163 0.930 . S
C3158 H3144 0.930 . S
C3158 C3156 1.395 . S
C3158 C3161 1.403 . S
C3159 C3156 1.403 . S
C3159 C3160 1.524 . S
C3159 C3163 1.400 . S
C3160 H3145 0.960 . S
C3160 H3146 0.960 . S
C3160 H3147 0.960 . S
C3160 C3159 1.524 . S
C3161 C3158 1.403 . S
C3161 C3162 1.392 . S
C3161 C3165 1.495 . S
C3162 C3161 1.392 . S
C3162 C3163 1.385 . S
C3162 C3164 1.478 . S
C3163 H3157 0.930 . S
C3163 C3159 1.400 . S
C3163 C3162 1.385 . S
C3164 C3162 1.478 . S
C3164 C3166 1.381 . S
C3164 C3170 1.383 . S
C3165 C3161 1.495 . S
C3165 H3171 0.959 . S
C3165 H3172 0.961 . S
C3165 H3173 0.960 . S
C3166 C3164 1.381 . S
C3166 C3167 1.394 . S
C3166 H3174 0.930 . S
C3167 C3166 1.394 . S
C3167 C3168 1.383 . S
C3167 H3175 0.929 . S
C3168 C3167 1.383 . S
C3168 C3169 1.377 . S
C3169 H3153 0.930 . S
C3169 C3168 1.377 . S
C3169 C3170 1.379 . S
C3170 H3154 0.931 . S
C3170 C3164 1.383 . S
C3170 C3169 1.379 . S
H3171 C3165 0.959 . S
H3172 C3165 0.961 . S
H3173 C3165 0.960 . S
H3174 C3166 0.930 . S
H3175 C3167 0.929 . S
H3176 C3184 0.929 . S
H3177 C3186 0.930 . S
H3178 C3188 0.930 . S
H3179 C3191 0.929 . S
H3180 C3194 0.930 . S
H3181 C3196 0.960 . S
H3182 C3196 0.960 . S
H3183 C3196 0.960 . S
C3184 H3176 0.929 . S
C3184 C3185 1.377 . S
C3184 C3186 1.384 . S
C3185 C3184 1.377 . S
C3185 C3191 1.390 . S
C3186 H3177 0.930 . S
C3186 C3184 1.384 . S
C3186 C3187 1.372 . S
C3187 C3186 1.372 . S
C3187 C3188 1.400 . S
C3187 C3192 1.490 . S
C3188 H3178 0.930 . S
C3188 C3187 1.400 . S
C3188 C3191 1.386 . S
H3189 C3205 0.930 . S
H3190 C3206 0.931 . S
C3191 H3179 0.929 . S
C3191 C3185 1.390 . S
C3191 C3188 1.386 . S
C3192 C3187 1.490 . S
C3192 C3194 1.395 . S
C3192 C3195 1.403 . S
H3193 C3199 0.930 . S
C3194 H3180 0.930 . S
C3194 C3192 1.395 . S
C3194 C3197 1.403 . S
C3195 C3192 1.403 . S
C3195 C3196 1.524 . S
C3195 C3199 1.400 . S
C3196 H3181 0.960 . S
C3196 H3182 0.960 . S
C3196 H3183 0.960 . S
C3196 C3195 1.524 . S
C3197 C3194 1.403 . S
C3197 C3198 1.392 . S
C3197 C3201 1.495 . S
C3198 C3197 1.392 . S
C3198 C3199 1.385 . S
C3198 C3200 1.478 . S
C3199 H3193 0.930 . S
C3199 C3195 1.400 . S
C3199 C3198 1.385 . S
C3200 C3198 1.478 . S
C3200 C3202 1.381 . S
C3200 C3206 1.383 . S
C3201 C3197 1.495 . S
C3201 H3207 0.959 . S
C3201 H3208 0.961 . S
C3201 H3209 0.960 . S
C3202 C3200 1.381 . S
C3202 C3203 1.394 . S
C3202 H3210 0.930 . S
C3203 C3202 1.394 . S
C3203 C3204 1.383 . S
C3203 H3211 0.929 . S
C3204 C3203 1.383 . S
C3204 C3205 1.377 . S
C3205 H3189 0.930 . S
C3205 C3204 1.377 . S
C3205 C3206 1.379 . S
C3206 H3190 0.931 . S
C3206 C3200 1.383 . S
C3206 C3205 1.379 . S
H3207 C3201 0.959 . S
H3208 C3201 0.961 . S
H3209 C3201 0.960 . S
H3210 C3202 0.930 . S
H3211 C3203 0.929 . S
H3212 C3220 0.929 . S
H3213 C3222 0.930 . S
H3214 C3224 0.930 . S
H3215 C3227 0.929 . S
H3216 C3230 0.930 . S
H3217 C3232 0.960 . S
H3218 C3232 0.960 . S
H3219 C3232 0.960 . S
C3220 H3212 0.929 . S
C3220 C3221 1.377 . S
C3220 C3222 1.384 . S
C3221 C3220 1.377 . S
C3221 C3227 1.390 . S
C3222 H3213 0.930 . S
C3222 C3220 1.384 . S
C3222 C3223 1.372 . S
C3223 C3222 1.372 . S
C3223 C3224 1.400 . S
C3223 C3228 1.490 . S
C3224 H3214 0.930 . S
C3224 C3223 1.400 . S
C3224 C3227 1.386 . S
H3225 C3241 0.930 . S
H3226 C3242 0.931 . S
C3227 H3215 0.929 . S
C3227 C3221 1.390 . S
C3227 C3224 1.386 . S
C3228 C3223 1.490 . S
C3228 C3230 1.395 . S
C3228 C3231 1.403 . S
H3229 C3235 0.930 . S
C3230 H3216 0.930 . S
C3230 C3228 1.395 . S
C3230 C3233 1.403 . S
C3231 C3228 1.403 . S
C3231 C3232 1.524 . S
C3231 C3235 1.400 . S
C3232 H3217 0.960 . S
C3232 H3218 0.960 . S
C3232 H3219 0.960 . S
C3232 C3231 1.524 . S
C3233 C3230 1.403 . S
C3233 C3234 1.392 . S
C3233 C3237 1.495 . S
C3234 C3233 1.392 . S
C3234 C3235 1.385 . S
C3234 C3236 1.478 . S
C3235 H3229 0.930 . S
C3235 C3231 1.400 . S
C3235 C3234 1.385 . S
C3236 C3234 1.478 . S
C3236 C3238 1.381 . S
C3236 C3242 1.383 . S
C3237 C3233 1.495 . S
C3237 H3243 0.959 . S
C3237 H3244 0.961 . S
C3237 H3245 0.960 . S
C3238 C3236 1.381 . S
C3238 C3239 1.394 . S
C3238 H3246 0.930 . S
C3239 C3238 1.394 . S
C3239 C3240 1.383 . S
C3239 H3247 0.929 . S
C3240 C3239 1.383 . S
C3240 C3241 1.377 . S
C3241 H3225 0.930 . S
C3241 C3240 1.377 . S
C3241 C3242 1.379 . S
C3242 H3226 0.931 . S
C3242 C3236 1.383 . S
C3242 C3241 1.379 . S
H3243 C3237 0.959 . S
H3244 C3237 0.961 . S
H3245 C3237 0.960 . S
H3246 C3238 0.930 . S
H3247 C3239 0.929 . S
H3248 C3256 0.929 . S
H3249 C3258 0.930 . S
H3250 C3260 0.930 . S
H3251 C3263 0.929 . S
H3252 C3266 0.930 . S
H3253 C3268 0.960 . S
H3254 C3268 0.960 . S
H3255 C3268 0.960 . S
C3256 H3248 0.929 . S
C3256 C3257 1.377 . S
C3256 C3258 1.384 . S
C3257 C3256 1.377 . S
C3257 C3263 1.390 . S
C3258 H3249 0.930 . S
C3258 C3256 1.384 . S
C3258 C3259 1.372 . S
C3259 C3258 1.372 . S
C3259 C3260 1.400 . S
C3259 C3264 1.490 . S
C3260 H3250 0.930 . S
C3260 C3259 1.400 . S
C3260 C3263 1.386 . S
H3261 C3277 0.930 . S
H3262 C3278 0.931 . S
C3263 H3251 0.929 . S
C3263 C3257 1.390 . S
C3263 C3260 1.386 . S
C3264 C3259 1.490 . S
C3264 C3266 1.395 . S
C3264 C3267 1.403 . S
H3265 C3271 0.930 . S
C3266 H3252 0.930 . S
C3266 C3264 1.395 . S
C3266 C3269 1.403 . S
C3267 C3264 1.403 . S
C3267 C3268 1.524 . S
C3267 C3271 1.400 . S
C3268 H3253 0.960 . S
C3268 H3254 0.960 . S
C3268 H3255 0.960 . S
C3268 C3267 1.524 . S
C3269 C3266 1.403 . S
C3269 C3270 1.392 . S
C3269 C3273 1.495 . S
C3270 C3269 1.392 . S
C3270 C3271 1.385 . S
C3270 C3272 1.478 . S
C3271 H3265 0.930 . S
C3271 C3267 1.400 . S
C3271 C3270 1.385 . S
C3272 C3270 1.478 . S
C3272 C3274 1.381 . S
C3272 C3278 1.383 . S
C3273 C3269 1.495 . S
C3273 H3279 0.959 . S
C3273 H3280 0.961 . S
C3273 H3281 0.960 . S
C3274 C3272 1.381 . S
C3274 C3275 1.394 . S
C3274 H3282 0.930 . S
C3275 C3274 1.394 . S
C3275 C3276 1.383 . S
C3275 H3283 0.929 . S
C3276 C3275 1.383 . S
C3276 C3277 1.377 . S
C3277 H3261 0.930 . S
C3277 C3276 1.377 . S
C3277 C3278 1.379 . S
C3278 H3262 0.931 . S
C3278 C3272 1.383 . S
C3278 C3277 1.379 . S
H3279 C3273 0.959 . S
H3280 C3273 0.961 . S
H3281 C3273 0.960 . S
H3282 C3274 0.930 . S
H3283 C3275 0.929 . S
H3284 C3292 0.929 . S
H3285 C3294 0.930 . S
H3286 C3296 0.930 . S
H3287 C3299 0.929 . S
H3288 C3302 0.930 . S
H3289 C3304 0.960 . S
H3290 C3304 0.960 . S
H3291 C3304 0.960 . S
C3292 H3284 0.929 . S
C3292 C3293 1.377 . S
C3292 C3294 1.384 . S
C3293 C3292 1.377 . S
C3293 C3299 1.390 . S
C3294 H3285 0.930 . S
C3294 C3292 1.384 . S
C3294 C3295 1.372 . S
C3295 C3294 1.372 . S
C3295 C3296 1.400 . S
C3295 C3300 1.490 . S
C3296 H3286 0.930 . S
C3296 C3295 1.400 . S
C3296 C3299 1.386 . S
H3297 C3313 0.930 . S
H3298 C3314 0.931 . S
C3299 H3287 0.929 . S
C3299 C3293 1.390 . S
C3299 C3296 1.386 . S
C3300 C3295 1.490 . S
C3300 C3302 1.395 . S
C3300 C3303 1.403 . S
H3301 C3307 0.930 . S
C3302 H3288 0.930 . S
C3302 C3300 1.395 . S
C3302 C3305 1.403 . S
C3303 C3300 1.403 . S
C3303 C3304 1.524 . S
C3303 C3307 1.400 . S
C3304 H3289 0.960 . S
C3304 H3290 0.960 . S
C3304 H3291 0.960 . S
C3304 C3303 1.524 . S
C3305 C3302 1.403 . S
C3305 C3306 1.392 . S
C3305 C3309 1.495 . S
C3306 C3305 1.392 . S
C3306 C3307 1.385 . S
C3306 C3308 1.478 . S
C3307 H3301 0.930 . S
C3307 C3303 1.400 . S
C3307 C3306 1.385 . S
C3308 C3306 1.478 . S
C3308 C3310 1.381 . S
C3308 C3314 1.383 . S
C3309 C3305 1.495 . S
C3309 H3315 0.959 . S
C3309 H3316 0.961 . S
C3309 H3317 0.960 . S
C3310 C3308 1.381 . S
C3310 C3311 1.394 . S
C3310 H3318 0.930 . S
C3311 C3310 1.394 . S
C3311 C3312 1.383 . S
C3311 H3319 0.929 . S
C3312 C3311 1.383 . S
C3312 C3313 1.377 . S
C3313 H3297 0.930 . S
C3313 C3312 1.377 . S
C3313 C3314 1.379 . S
C3314 H3298 0.931 . S
C3314 C3308 1.383 . S
C3314 C3313 1.379 . S
H3315 C3309 0.959 . S
H3316 C3309 0.961 . S
H3317 C3309 0.960 . S
H3318 C3310 0.930 . S
H3319 C3311 0.929 . S
H3320 C3328 0.929 . S
H3321 C3330 0.930 . S
H3322 C3332 0.930 . S
H3323 C3335 0.929 . S
H3324 C3338 0.930 . S
H3325 C3340 0.960 . S
H3326 C3340 0.960 . S
H3327 C3340 0.960 . S
C3328 H3320 0.929 . S
C3328 C3329 1.377 . S
C3328 C3330 1.384 . S
C3329 C3328 1.377 . S
C3329 C3335 1.390 . S
C3330 H3321 0.930 . S
C3330 C3328 1.384 . S
C3330 C3331 1.372 . S
C3331 C3330 1.372 . S
C3331 C3332 1.400 . S
C3331 C3336 1.490 . S
C3332 H3322 0.930 . S
C3332 C3331 1.400 . S
C3332 C3335 1.386 . S
H3333 C3349 0.930 . S
H3334 C3350 0.931 . S
C3335 H3323 0.929 . S
C3335 C3329 1.390 . S
C3335 C3332 1.386 . S
C3336 C3331 1.490 . S
C3336 C3338 1.395 . S
C3336 C3339 1.403 . S
H3337 C3343 0.930 . S
C3338 H3324 0.930 . S
C3338 C3336 1.395 . S
C3338 C3341 1.403 . S
C3339 C3336 1.403 . S
C3339 C3340 1.524 . S
C3339 C3343 1.400 . S
C3340 H3325 0.960 . S
C3340 H3326 0.960 . S
C3340 H3327 0.960 . S
C3340 C3339 1.524 . S
C3341 C3338 1.403 . S
C3341 C3342 1.392 . S
C3341 C3345 1.495 . S
C3342 C3341 1.392 . S
C3342 C3343 1.385 . S
C3342 C3344 1.478 . S
C3343 H3337 0.930 . S
C3343 C3339 1.400 . S
C3343 C3342 1.385 . S
C3344 C3342 1.478 . S
C3344 C3346 1.381 . S
C3344 C3350 1.383 . S
C3345 C3341 1.495 . S
C3345 H3351 0.959 . S
C3345 H3352 0.961 . S
C3345 H3353 0.960 . S
C3346 C3344 1.381 . S
C3346 C3347 1.394 . S
C3346 H3354 0.930 . S
C3347 C3346 1.394 . S
C3347 C3348 1.383 . S
C3347 H3355 0.929 . S
C3348 C3347 1.383 . S
C3348 C3349 1.377 . S
C3349 H3333 0.930 . S
C3349 C3348 1.377 . S
C3349 C3350 1.379 . S
C3350 H3334 0.931 . S
C3350 C3344 1.383 . S
C3350 C3349 1.379 . S
H3351 C3345 0.959 . S
H3352 C3345 0.961 . S
H3353 C3345 0.960 . S
H3354 C3346 0.930 . S
H3355 C3347 0.929 . S
H3356 C3364 0.929 . S
H3357 C3366 0.930 . S
H3358 C3368 0.930 . S
H3359 C3371 0.929 . S
H3360 C3374 0.930 . S
H3361 C3376 0.960 . S
H3362 C3376 0.960 . S
H3363 C3376 0.960 . S
C3364 H3356 0.929 . S
C3364 C3365 1.377 . S
C3364 C3366 1.384 . S
C3365 C3364 1.377 . S
C3365 C3371 1.390 . S
C3366 H3357 0.930 . S
C3366 C3364 1.384 . S
C3366 C3367 1.372 . S
C3367 C3366 1.372 . S
C3367 C3368 1.400 . S
C3367 C3372 1.490 . S
C3368 H3358 0.930 . S
C3368 C3367 1.400 . S
C3368 C3371 1.386 . S
H3369 C3385 0.930 . S
H3370 C3386 0.931 . S
C3371 H3359 0.929 . S
C3371 C3365 1.390 . S
C3371 C3368 1.386 . S
C3372 C3367 1.490 . S
C3372 C3374 1.395 . S
C3372 C3375 1.403 . S
H3373 C3379 0.930 . S
C3374 H3360 0.930 . S
C3374 C3372 1.395 . S
C3374 C3377 1.403 . S
C3375 C3372 1.403 . S
C3375 C3376 1.524 . S
C3375 C3379 1.400 . S
C3376 H3361 0.960 . S
C3376 H3362 0.960 . S
C3376 H3363 0.960 . S
C3376 C3375 1.524 . S
C3377 C3374 1.403 . S
C3377 C3378 1.392 . S
C3377 C3381 1.495 . S
C3378 C3377 1.392 . S
C3378 C3379 1.385 . S
C3378 C3380 1.478 . S
C3379 H3373 0.930 . S
C3379 C3375 1.400 . S
C3379 C3378 1.385 . S
C3380 C3378 1.478 . S
C3380 C3382 1.381 . S
C3380 C3386 1.383 . S
C3381 C3377 1.495 . S
C3381 H3387 0.959 . S
C3381 H3388 0.961 . S
C3381 H3389 0.960 . S
C3382 C3380 1.381 . S
C3382 C3383 1.394 . S
C3382 H3390 0.930 . S
C3383 C3382 1.394 . S
C3383 C3384 1.383 . S
C3383 H3391 0.929 . S
C3384 C3383 1.383 . S
C3384 C3385 1.377 . S
C3385 H3369 0.930 . S
C3385 C3384 1.377 . S
C3385 C3386 1.379 . S
C3386 H3370 0.931 . S
C3386 C3380 1.383 . S
C3386 C3385 1.379 . S
H3387 C3381 0.959 . S
H3388 C3381 0.961 . S
H3389 C3381 0.960 . S
H3390 C3382 0.930 . S
H3391 C3383 0.929 . S
H3392 C3400 0.929 . S
H3393 C3402 0.930 . S
H3394 C3404 0.930 . S
H3395 C3407 0.929 . S
H3396 C3410 0.930 . S
H3397 C3412 0.960 . S
H3398 C3412 0.960 . S
H3399 C3412 0.960 . S
C3400 H3392 0.929 . S
C3400 C3401 1.377 . S
C3400 C3402 1.384 . S
C3401 C3400 1.377 . S
C3401 C3407 1.390 . S
C3402 H3393 0.930 . S
C3402 C3400 1.384 . S
C3402 C3403 1.372 . S
C3403 C3402 1.372 . S
C3403 C3404 1.400 . S
C3403 C3408 1.490 . S
C3404 H3394 0.930 . S
C3404 C3403 1.400 . S
C3404 C3407 1.386 . S
H3405 C3421 0.930 . S
H3406 C3422 0.931 . S
C3407 H3395 0.929 . S
C3407 C3401 1.390 . S
C3407 C3404 1.386 . S
C3408 C3403 1.490 . S
C3408 C3410 1.395 . S
C3408 C3411 1.403 . S
H3409 C3415 0.930 . S
C3410 H3396 0.930 . S
C3410 C3408 1.395 . S
C3410 C3413 1.403 . S
C3411 C3408 1.403 . S
C3411 C3412 1.524 . S
C3411 C3415 1.400 . S
C3412 H3397 0.960 . S
C3412 H3398 0.960 . S
C3412 H3399 0.960 . S
C3412 C3411 1.524 . S
C3413 C3410 1.403 . S
C3413 C3414 1.392 . S
C3413 C3417 1.495 . S
C3414 C3413 1.392 . S
C3414 C3415 1.385 . S
C3414 C3416 1.478 . S
C3415 H3409 0.930 . S
C3415 C3411 1.400 . S
C3415 C3414 1.385 . S
C3416 C3414 1.478 . S
C3416 C3418 1.381 . S
C3416 C3422 1.383 . S
C3417 C3413 1.495 . S
C3417 H3423 0.959 . S
C3417 H3424 0.961 . S
C3417 H3425 0.960 . S
C3418 C3416 1.381 . S
C3418 C3419 1.394 . S
C3418 H3426 0.930 . S
C3419 C3418 1.394 . S
C3419 C3420 1.383 . S
C3419 H3427 0.929 . S
C3420 C3419 1.383 . S
C3420 C3421 1.377 . S
C3421 H3405 0.930 . S
C3421 C3420 1.377 . S
C3421 C3422 1.379 . S
C3422 H3406 0.931 . S
C3422 C3416 1.383 . S
C3422 C3421 1.379 . S
H3423 C3417 0.959 . S
H3424 C3417 0.961 . S
H3425 C3417 0.960 . S
H3426 C3418 0.930 . S
H3427 C3419 0.929 . S
H3428 C3436 0.929 . S
H3429 C3438 0.930 . S
H3430 C3440 0.930 . S
H3431 C3443 0.929 . S
H3432 C3446 0.930 . S
H3433 C3448 0.960 . S
H3434 C3448 0.960 . S
H3435 C3448 0.960 . S
C3436 H3428 0.929 . S
C3436 C3437 1.377 . S
C3436 C3438 1.384 . S
C3437 C3436 1.377 . S
C3437 C3443 1.390 . S
C3438 H3429 0.930 . S
C3438 C3436 1.384 . S
C3438 C3439 1.372 . S
C3439 C3438 1.372 . S
C3439 C3440 1.400 . S
C3439 C3444 1.490 . S
C3440 H3430 0.930 . S
C3440 C3439 1.400 . S
C3440 C3443 1.386 . S
H3441 C3457 0.930 . S
H3442 C3458 0.931 . S
C3443 H3431 0.929 . S
C3443 C3437 1.390 . S
C3443 C3440 1.386 . S
C3444 C3439 1.490 . S
C3444 C3446 1.395 1_655 S
C3444 C3447 1.403 . S
H3445 C3451 0.930 . S
C3446 H3432 0.930 . S
C3446 C3444 1.395 1_455 S
C3446 C3449 1.403 . S
C3447 C3444 1.403 . S
C3447 C3448 1.524 . S
C3447 C3451 1.400 . S
C3448 H3433 0.960 . S
C3448 H3434 0.960 . S
C3448 H3435 0.960 . S
C3448 C3447 1.524 . S
C3449 C3446 1.403 . S
C3449 C3450 1.392 . S
C3449 C3453 1.495 . S
C3450 C3449 1.392 . S
C3450 C3451 1.385 1_455 S
C3450 C3452 1.478 . S
C3451 H3445 0.930 . S
C3451 C3447 1.400 . S
C3451 C3450 1.385 1_655 S
C3452 C3450 1.478 . S
C3452 C3454 1.381 . S
C3452 C3458 1.383 . S
C3453 C3449 1.495 . S
C3453 H3459 0.959 . S
C3453 H3460 0.961 . S
C3453 H3461 0.960 . S
C3454 C3452 1.381 . S
C3454 C3455 1.394 . S
C3454 H3462 0.930 . S
C3455 C3454 1.394 . S
C3455 C3456 1.383 . S
C3455 H3463 0.929 . S
C3456 C3455 1.383 . S
C3456 C3457 1.377 . S
C3457 H3441 0.930 . S
C3457 C3456 1.377 . S
C3457 C3458 1.379 . S
C3458 H3442 0.931 . S
C3458 C3452 1.383 . S
C3458 C3457 1.379 . S
H3459 C3453 0.959 . S
H3460 C3453 0.961 . S
H3461 C3453 0.960 . S
H3462 C3454 0.930 . S
H3463 C3455 0.929 . S
H3464 C3472 0.929 . S
H3465 C3474 0.930 . S
H3466 C3476 0.930 . S
H3467 C3479 0.929 . S
H3468 C3482 0.930 . S
H3469 C3484 0.960 . S
H3470 C3484 0.960 . S
H3471 C3484 0.960 . S
C3472 H3464 0.929 . S
C3472 C3473 1.377 . S
C3472 C3474 1.384 . S
C3473 C3472 1.377 . S
C3473 C3479 1.390 . S
C3474 H3465 0.930 . S
C3474 C3472 1.384 . S
C3474 C3475 1.372 . S
C3475 C3474 1.372 . S
C3475 C3476 1.400 . S
C3475 C3480 1.490 . S
C3476 H3466 0.930 . S
C3476 C3475 1.400 . S
C3476 C3479 1.386 . S
H3477 C3493 0.930 . S
H3478 C3494 0.931 . S
C3479 H3467 0.929 . S
C3479 C3473 1.390 . S
C3479 C3476 1.386 . S
C3480 C3475 1.490 . S
C3480 C3482 1.395 . S
C3480 C3483 1.403 . S
H3481 C3487 0.930 . S
C3482 H3468 0.930 . S
C3482 C3480 1.395 . S
C3482 C3485 1.403 1_455 S
C3483 C3480 1.403 . S
C3483 C3484 1.524 . S
C3483 C3487 1.400 1_455 S
C3484 H3469 0.960 . S
C3484 H3470 0.960 . S
C3484 H3471 0.960 . S
C3484 C3483 1.524 . S
C3485 C3482 1.403 1_655 S
C3485 C3486 1.392 . S
C3485 C3489 1.495 . S
C3486 C3485 1.392 . S
C3486 C3487 1.385 . S
C3486 C3488 1.478 . S
C3487 H3481 0.930 . S
C3487 C3483 1.400 1_655 S
C3487 C3486 1.385 . S
C3488 C3486 1.478 . S
C3488 C3490 1.381 . S
C3488 C3494 1.383 . S
C3489 C3485 1.495 . S
C3489 H3495 0.959 . S
C3489 H3496 0.961 . S
C3489 H3497 0.960 . S
C3490 C3488 1.381 . S
C3490 C3491 1.394 . S
C3490 H3498 0.930 . S
C3491 C3490 1.394 . S
C3491 C3492 1.383 . S
C3491 H3499 0.929 . S
C3492 C3491 1.383 . S
C3492 C3493 1.377 . S
C3493 H3477 0.930 . S
C3493 C3492 1.377 . S
C3493 C3494 1.379 . S
C3494 H3478 0.931 . S
C3494 C3488 1.383 . S
C3494 C3493 1.379 . S
H3495 C3489 0.959 . S
H3496 C3489 0.961 . S
H3497 C3489 0.960 . S
H3498 C3490 0.930 . S
H3499 C3491 0.929 . S
H3500 C3508 0.929 . S
H3501 C3510 0.930 . S
H3502 C3512 0.930 . S
H3503 C3515 0.929 . S
H3504 C3518 0.930 . S
H3505 C3520 0.960 . S
H3506 C3520 0.960 . S
H3507 C3520 0.960 . S
C3508 H3500 0.929 . S
C3508 C3509 1.377 . S
C3508 C3510 1.384 . S
C3509 C3508 1.377 . S
C3509 C3515 1.390 . S
C3510 H3501 0.930 . S
C3510 C3508 1.384 . S
C3510 C3511 1.372 . S
C3511 C3510 1.372 . S
C3511 C3512 1.400 . S
C3511 C3516 1.490 . S
C3512 H3502 0.930 . S
C3512 C3511 1.400 . S
C3512 C3515 1.386 . S
H3513 C3529 0.930 . S
H3514 C3530 0.931 . S
C3515 H3503 0.929 . S
C3515 C3509 1.390 . S
C3515 C3512 1.386 . S
C3516 C3511 1.490 . S
C3516 C3518 1.395 . S
C3516 C3519 1.403 . S
H3517 C3523 0.930 . S
C3518 H3504 0.930 . S
C3518 C3516 1.395 . S
C3518 C3521 1.403 . S
C3519 C3516 1.403 . S
C3519 C3520 1.524 . S
C3519 C3523 1.400 . S
C3520 H3505 0.960 . S
C3520 H3506 0.960 . S
C3520 H3507 0.960 . S
C3520 C3519 1.524 . S
C3521 C3518 1.403 . S
C3521 C3522 1.392 . S
C3521 C3525 1.495 . S
C3522 C3521 1.392 . S
C3522 C3523 1.385 . S
C3522 C3524 1.478 . S
C3523 H3517 0.930 . S
C3523 C3519 1.400 . S
C3523 C3522 1.385 . S
C3524 C3522 1.478 . S
C3524 C3526 1.381 . S
C3524 C3530 1.383 . S
C3525 C3521 1.495 . S
C3525 H3531 0.959 . S
C3525 H3532 0.961 . S
C3525 H3533 0.960 . S
C3526 C3524 1.381 . S
C3526 C3527 1.394 . S
C3526 H3534 0.930 . S
C3527 C3526 1.394 . S
C3527 C3528 1.383 . S
C3527 H3535 0.929 . S
C3528 C3527 1.383 . S
C3528 C3529 1.377 . S
C3529 H3513 0.930 . S
C3529 C3528 1.377 . S
C3529 C3530 1.379 . S
C3530 H3514 0.931 . S
C3530 C3524 1.383 . S
C3530 C3529 1.379 . S
H3531 C3525 0.959 . S
H3532 C3525 0.961 . S
H3533 C3525 0.960 . S
H3534 C3526 0.930 . S
H3535 C3527 0.929 . S
H3536 C3544 0.929 . S
H3537 C3546 0.930 . S
H3538 C3548 0.930 . S
H3539 C3551 0.929 . S
H3540 C3554 0.930 . S
H3541 C3556 0.960 . S
H3542 C3556 0.960 . S
H3543 C3556 0.960 . S
C3544 H3536 0.929 . S
C3544 C3545 1.377 . S
C3544 C3546 1.384 . S
C3545 C3544 1.377 . S
C3545 C3551 1.390 . S
C3546 H3537 0.930 . S
C3546 C3544 1.384 . S
C3546 C3547 1.372 . S
C3547 C3546 1.372 . S
C3547 C3548 1.400 . S
C3547 C3552 1.490 . S
C3548 H3538 0.930 . S
C3548 C3547 1.400 . S
C3548 C3551 1.386 . S
H3549 C3565 0.930 . S
H3550 C3566 0.931 . S
C3551 H3539 0.929 . S
C3551 C3545 1.390 . S
C3551 C3548 1.386 . S
C3552 C3547 1.490 . S
C3552 C3554 1.395 . S
C3552 C3555 1.403 . S
H3553 C3559 0.930 . S
C3554 H3540 0.930 . S
C3554 C3552 1.395 . S
C3554 C3557 1.403 . S
C3555 C3552 1.403 . S
C3555 C3556 1.524 . S
C3555 C3559 1.400 . S
C3556 H3541 0.960 . S
C3556 H3542 0.960 . S
C3556 H3543 0.960 . S
C3556 C3555 1.524 . S
C3557 C3554 1.403 . S
C3557 C3558 1.392 . S
C3557 C3561 1.495 . S
C3558 C3557 1.392 . S
C3558 C3559 1.385 . S
C3558 C3560 1.478 . S
C3559 H3553 0.930 . S
C3559 C3555 1.400 . S
C3559 C3558 1.385 . S
C3560 C3558 1.478 . S
C3560 C3562 1.381 . S
C3560 C3566 1.383 . S
C3561 C3557 1.495 . S
C3561 H3567 0.959 . S
C3561 H3568 0.961 . S
C3561 H3569 0.960 . S
C3562 C3560 1.381 . S
C3562 C3563 1.394 . S
C3562 H3570 0.930 . S
C3563 C3562 1.394 . S
C3563 C3564 1.383 . S
C3563 H3571 0.929 . S
C3564 C3563 1.383 . S
C3564 C3565 1.377 . S
C3565 H3549 0.930 . S
C3565 C3564 1.377 . S
C3565 C3566 1.379 . S
C3566 H3550 0.931 . S
C3566 C3560 1.383 . S
C3566 C3565 1.379 . S
H3567 C3561 0.959 . S
H3568 C3561 0.961 . S
H3569 C3561 0.960 . S
H3570 C3562 0.930 . S
H3571 C3563 0.929 . S
H3572 C3580 0.929 . S
H3573 C3582 0.930 . S
H3574 C3584 0.930 . S
H3575 C3587 0.929 . S
H3576 C3590 0.930 . S
H3577 C3592 0.960 . S
H3578 C3592 0.960 . S
H3579 C3592 0.960 . S
C3580 H3572 0.929 . S
C3580 C3581 1.377 . S
C3580 C3582 1.384 . S
C3581 C3580 1.377 . S
C3581 C3587 1.390 . S
C3582 H3573 0.930 . S
C3582 C3580 1.384 . S
C3582 C3583 1.372 . S
C3583 C3582 1.372 . S
C3583 C3584 1.400 . S
C3583 C3588 1.490 . S
C3584 H3574 0.930 . S
C3584 C3583 1.400 . S
C3584 C3587 1.386 . S
H3585 C3601 0.930 . S
H3586 C3602 0.931 . S
C3587 H3575 0.929 . S
C3587 C3581 1.390 . S
C3587 C3584 1.386 . S
C3588 C3583 1.490 . S
C3588 C3590 1.395 . S
C3588 C3591 1.403 . S
H3589 C3595 0.930 . S
C3590 H3576 0.930 . S
C3590 C3588 1.395 . S
C3590 C3593 1.403 . S
C3591 C3588 1.403 . S
C3591 C3592 1.524 . S
C3591 C3595 1.400 . S
C3592 H3577 0.960 . S
C3592 H3578 0.960 . S
C3592 H3579 0.960 . S
C3592 C3591 1.524 . S
C3593 C3590 1.403 . S
C3593 C3594 1.392 . S
C3593 C3597 1.495 . S
C3594 C3593 1.392 . S
C3594 C3595 1.385 . S
C3594 C3596 1.478 . S
C3595 H3589 0.930 . S
C3595 C3591 1.400 . S
C3595 C3594 1.385 . S
C3596 C3594 1.478 . S
C3596 C3598 1.381 . S
C3596 C3602 1.383 . S
C3597 C3593 1.495 . S
C3597 H3603 0.959 . S
C3597 H3604 0.961 . S
C3597 H3605 0.960 . S
C3598 C3596 1.381 . S
C3598 C3599 1.394 . S
C3598 H3606 0.930 . S
C3599 C3598 1.394 . S
C3599 C3600 1.383 . S
C3599 H3607 0.929 . S
C3600 C3599 1.383 . S
C3600 C3601 1.377 . S
C3601 H3585 0.930 . S
C3601 C3600 1.377 . S
C3601 C3602 1.379 . S
C3602 H3586 0.931 . S
C3602 C3596 1.383 . S
C3602 C3601 1.379 . S
H3603 C3597 0.959 . S
H3604 C3597 0.961 . S
H3605 C3597 0.960 . S
H3606 C3598 0.930 . S
H3607 C3599 0.929 . S
H3608 C3616 0.929 . S
H3609 C3618 0.930 . S
H3610 C3620 0.930 . S
H3611 C3623 0.929 . S
H3612 C3626 0.930 . S
H3613 C3628 0.983 . S
H3614 C3628 0.960 . S
H3615 C3628 0.960 . S
C3616 H3608 0.929 . S
C3616 C3617 1.377 . S
C3616 C3618 1.384 . S
C3617 C3616 1.377 . S
C3617 C3623 1.390 . S
C3618 H3609 0.930 . S
C3618 C3616 1.384 . S
C3618 C3619 1.372 . S
C3619 C3618 1.372 . S
C3619 C3620 1.400 . S
C3619 C3624 1.490 . S
C3620 H3610 0.930 . S
C3620 C3619 1.400 . S
C3620 C3623 1.386 . S
H3621 C3637 0.930 . S
H3622 C3638 0.931 . S
C3623 H3611 0.929 . S
C3623 C3617 1.390 . S
C3623 C3620 1.386 . S
C3624 C3619 1.490 . S
C3624 C3626 1.395 . S
C3624 C3627 1.403 . S
H3625 C3631 0.930 . S
C3626 H3612 0.930 . S
C3626 C3624 1.395 . S
C3626 C3629 1.403 1_655 S
C3627 C3624 1.403 . S
C3627 C3628 1.524 . S
C3627 C3631 1.400 1_655 S
C3628 H3613 0.983 . S
C3628 H3614 0.960 . S
C3628 H3615 0.960 . S
C3628 C3627 1.524 . S
C3629 C3626 1.403 1_455 S
C3629 C3630 1.392 . S
C3629 C3633 1.495 . S
C3630 C3629 1.392 . S
C3630 C3631 1.385 . S
C3630 C3632 1.478 . S
C3631 H3625 0.930 . S
C3631 C3627 1.400 1_455 S
C3631 C3630 1.385 . S
C3632 C3630 1.478 . S
C3632 C3634 1.381 . S
C3632 C3638 1.383 . S
C3633 C3629 1.495 . S
C3633 H3639 0.959 . S
C3633 H3640 0.961 . S
C3633 H3641 0.960 . S
C3634 C3632 1.381 . S
C3634 C3635 1.394 . S
C3634 H3642 0.930 . S
C3635 C3634 1.394 . S
C3635 C3636 1.383 . S
C3635 H3643 0.929 . S
C3636 C3635 1.383 . S
C3636 C3637 1.377 . S
C3637 H3621 0.930 . S
C3637 C3636 1.377 . S
C3637 C3638 1.379 . S
C3638 H3622 0.931 . S
C3638 C3632 1.383 . S
C3638 C3637 1.379 . S
H3639 C3633 0.959 . S
H3640 C3633 0.961 . S
H3641 C3633 0.960 . S
H3642 C3634 0.930 . S
H3643 C3635 0.929 . S
H3644 C3652 0.929 . S
H3645 C3654 0.930 . S
H3646 C3656 0.930 . S
H3647 C3659 0.929 . S
H3648 C3662 0.930 . S
H3649 C3664 0.960 . S
H3650 C3664 0.960 . S
H3651 C3664 0.960 . S
C3652 H3644 0.929 . S
C3652 C3653 1.377 . S
C3652 C3654 1.384 . S
C3653 C3652 1.377 . S
C3653 C3659 1.390 . S
C3654 H3645 0.930 . S
C3654 C3652 1.384 . S
C3654 C3655 1.372 . S
C3655 C3654 1.372 . S
C3655 C3656 1.400 . S
C3655 C3660 1.490 . S
C3656 H3646 0.930 . S
C3656 C3655 1.400 . S
C3656 C3659 1.386 . S
H3657 C3673 0.930 . S
H3658 C3674 0.931 . S
C3659 H3647 0.929 . S
C3659 C3653 1.390 . S
C3659 C3656 1.386 . S
C3660 C3655 1.490 . S
C3660 C3662 1.395 . S
C3660 C3663 1.403 1_655 S
H3661 C3667 0.930 . S
C3662 H3648 0.930 . S
C3662 C3660 1.395 . S
C3662 C3665 1.403 . S
C3663 C3660 1.403 1_455 S
C3663 C3664 1.524 . S
C3663 C3667 1.400 . S
C3664 H3649 0.960 . S
C3664 H3650 0.960 . S
C3664 H3651 0.960 . S
C3664 C3663 1.524 . S
C3665 C3662 1.403 . S
C3665 C3666 1.392 1_655 S
C3665 C3669 1.495 . S
C3666 C3665 1.392 1_455 S
C3666 C3667 1.385 . S
C3666 C3668 1.478 . S
C3667 H3661 0.930 . S
C3667 C3663 1.400 . S
C3667 C3666 1.385 . S
C3668 C3666 1.478 . S
C3668 C3670 1.381 . S
C3668 C3674 1.383 . S
C3669 C3665 1.495 . S
C3669 H3675 0.959 . S
C3669 H3676 0.961 . S
C3669 H3677 0.960 . S
C3670 C3668 1.381 . S
C3670 C3671 1.394 . S
C3670 H3678 0.930 . S
C3671 C3670 1.394 . S
C3671 C3672 1.383 . S
C3671 H3679 0.929 . S
C3672 C3671 1.383 . S
C3672 C3673 1.377 . S
C3673 H3657 0.930 . S
C3673 C3672 1.377 . S
C3673 C3674 1.379 . S
C3674 H3658 0.931 . S
C3674 C3668 1.383 . S
C3674 C3673 1.379 . S
H3675 C3669 0.959 . S
H3676 C3669 0.961 . S
H3677 C3669 0.960 . S
H3678 C3670 0.930 . S
H3679 C3671 0.929 . S
H3680 C3688 0.929 . S
H3681 C3690 0.930 . S
H3682 C3692 0.930 . S
H3683 C3695 0.929 . S
H3684 C3698 0.930 . S
H3685 C3700 0.960 . S
H3686 C3700 0.960 . S
H3687 C3700 0.960 . S
C3688 H3680 0.929 . S
C3688 C3689 1.377 . S
C3688 C3690 1.384 . S
C3689 C3688 1.377 . S
C3689 C3695 1.390 . S
C3690 H3681 0.930 . S
C3690 C3688 1.384 . S
C3690 C3691 1.372 . S
C3691 C3690 1.372 . S
C3691 C3692 1.400 . S
C3691 C3696 1.490 . S
C3692 H3682 0.930 . S
C3692 C3691 1.400 . S
C3692 C3695 1.386 . S
H3693 C3709 0.930 . S
H3694 C3710 0.931 . S
C3695 H3683 0.929 . S
C3695 C3689 1.390 . S
C3695 C3692 1.386 . S
C3696 C3691 1.490 . S
C3696 C3698 1.395 . S
C3696 C3699 1.403 . S
H3697 C3703 0.930 . S
C3698 H3684 0.930 . S
C3698 C3696 1.395 . S
C3698 C3701 1.403 . S
C3699 C3696 1.403 . S
C3699 C3700 1.524 . S
C3699 C3703 1.400 . S
C3700 H3685 0.960 . S
C3700 H3686 0.960 . S
C3700 H3687 0.960 . S
C3700 C3699 1.524 . S
C3701 C3698 1.403 . S
C3701 C3702 1.392 . S
C3701 C3705 1.495 . S
C3702 C3701 1.392 . S
C3702 C3703 1.385 . S
C3702 C3704 1.478 . S
C3703 H3697 0.930 . S
C3703 C3699 1.400 . S
C3703 C3702 1.385 . S
C3704 C3702 1.478 . S
C3704 C3706 1.381 . S
C3704 C3710 1.383 . S
C3705 C3701 1.495 . S
C3705 H3711 0.959 . S
C3705 H3712 0.961 . S
C3705 H3713 0.960 . S
C3706 C3704 1.381 . S
C3706 C3707 1.394 . S
C3706 H3714 0.930 . S
C3707 C3706 1.394 . S
C3707 C3708 1.383 . S
C3707 H3715 0.929 . S
C3708 C3707 1.383 . S
C3708 C3709 1.377 . S
C3709 H3693 0.930 . S
C3709 C3708 1.377 . S
C3709 C3710 1.379 . S
C3710 H3694 0.931 . S
C3710 C3704 1.383 . S
C3710 C3709 1.379 . S
H3711 C3705 0.959 . S
H3712 C3705 0.961 . S
H3713 C3705 0.960 . S
H3714 C3706 0.930 . S
H3715 C3707 0.929 . S
H3716 C3724 0.929 . S
H3717 C3726 0.930 . S
H3718 C3728 0.930 . S
H3719 C3731 0.929 . S
H3720 C3734 0.930 . S
H3721 C3736 0.960 . S
H3722 C3736 0.960 . S
H3723 C3736 0.960 . S
C3724 H3716 0.929 . S
C3724 C3725 1.377 . S
C3724 C3726 1.384 . S
C3725 C3724 1.377 . S
C3725 C3731 1.390 . S
C3726 H3717 0.930 . S
C3726 C3724 1.384 . S
C3726 C3727 1.372 . S
C3727 C3726 1.372 . S
C3727 C3728 1.400 . S
C3727 C3732 1.490 . S
C3728 H3718 0.930 . S
C3728 C3727 1.400 . S
C3728 C3731 1.386 . S
H3729 C3745 0.930 . S
H3730 C3746 0.931 . S
C3731 H3719 0.929 . S
C3731 C3725 1.390 . S
C3731 C3728 1.386 . S
C3732 C3727 1.490 . S
C3732 C3734 1.395 . S
C3732 C3735 1.403 1_455 S
H3733 C3739 0.930 . S
C3734 H3720 0.930 . S
C3734 C3732 1.395 . S
C3734 C3737 1.403 . S
C3735 C3732 1.403 1_655 S
C3735 C3736 1.524 . S
C3735 C3739 1.400 . S
C3736 H3721 0.960 . S
C3736 H3722 0.960 . S
C3736 H3723 0.960 . S
C3736 C3735 1.524 . S
C3737 C3734 1.403 . S
C3737 C3738 1.392 1_455 S
C3737 C3741 1.495 . S
C3738 C3737 1.392 1_655 S
C3738 C3739 1.385 . S
C3738 C3740 1.478 . S
C3739 H3733 0.930 . S
C3739 C3735 1.400 . S
C3739 C3738 1.385 . S
C3740 C3738 1.478 . S
C3740 C3742 1.381 . S
C3740 C3746 1.383 . S
C3741 C3737 1.495 . S
C3741 H3747 0.959 . S
C3741 H3748 0.961 . S
C3741 H3749 0.960 . S
C3742 C3740 1.381 . S
C3742 C3743 1.394 . S
C3742 H3750 0.930 . S
C3743 C3742 1.394 . S
C3743 C3744 1.383 . S
C3743 H3751 0.929 . S
C3744 C3743 1.383 . S
C3744 C3745 1.377 . S
C3745 H3729 0.930 . S
C3745 C3744 1.377 . S
C3745 C3746 1.379 . S
C3746 H3730 0.931 . S
C3746 C3740 1.383 . S
C3746 C3745 1.379 . S
H3747 C3741 0.959 . S
H3748 C3741 0.961 . S
H3749 C3741 0.960 . S
H3750 C3742 0.930 . S
H3751 C3743 0.929 . S
H3752 C3760 0.929 . S
H3753 C3762 0.930 . S
H3754 C3764 0.930 . S
H3755 C3767 0.929 . S
H3756 C3770 0.930 . S
H3757 C3772 0.960 . S
H3758 C3772 0.960 . S
H3759 C3772 0.960 . S
C3760 H3752 0.929 . S
C3760 C3761 1.377 . S
C3760 C3762 1.384 . S
C3761 C3760 1.377 . S
C3761 C3767 1.390 . S
C3762 H3753 0.930 . S
C3762 C3760 1.384 . S
C3762 C3763 1.372 . S
C3763 C3762 1.372 . S
C3763 C3764 1.400 . S
C3763 C3768 1.490 . S
C3764 H3754 0.930 . S
C3764 C3763 1.400 . S
C3764 C3767 1.386 . S
H3765 C3781 0.930 . S
H3766 C3782 0.931 . S
C3767 H3755 0.929 . S
C3767 C3761 1.390 . S
C3767 C3764 1.386 . S
C3768 C3763 1.490 . S
C3768 C3770 1.395 . S
C3768 C3771 1.403 . S
H3769 C3775 0.930 . S
C3770 H3756 0.930 . S
C3770 C3768 1.395 . S
C3770 C3773 1.403 1_655 S
C3771 C3768 1.403 . S
C3771 C3772 1.524 . S
C3771 C3775 1.400 1_655 S
C3772 H3757 0.960 . S
C3772 H3758 0.960 . S
C3772 H3759 0.960 . S
C3772 C3771 1.524 . S
C3773 C3770 1.403 1_455 S
C3773 C3774 1.392 . S
C3773 C3777 1.495 . S
C3774 C3773 1.392 . S
C3774 C3775 1.385 . S
C3774 C3776 1.478 . S
C3775 H3769 0.930 . S
C3775 C3771 1.400 1_455 S
C3775 C3774 1.385 . S
C3776 C3774 1.478 . S
C3776 C3778 1.381 . S
C3776 C3782 1.383 . S
C3777 C3773 1.495 . S
C3777 H3783 0.959 . S
C3777 H3784 0.961 . S
C3777 H3785 0.960 . S
C3778 C3776 1.381 . S
C3778 C3779 1.394 . S
C3778 H3786 0.930 . S
C3779 C3778 1.394 . S
C3779 C3780 1.383 . S
C3779 H3787 0.929 . S
C3780 C3779 1.383 . S
C3780 C3781 1.377 . S
C3781 H3765 0.930 . S
C3781 C3780 1.377 . S
C3781 C3782 1.379 . S
C3782 H3766 0.931 . S
C3782 C3776 1.383 . S
C3782 C3781 1.379 . S
H3783 C3777 0.959 . S
H3784 C3777 0.961 . S
H3785 C3777 0.960 . S
H3786 C3778 0.930 . S
H3787 C3779 0.929 . S
H3788 C3796 0.929 . S
H3789 C3798 0.930 . S
H3790 C3800 0.930 . S
H3791 C3803 0.929 . S
H3792 C3806 0.930 . S
H3793 C3808 0.960 . S
H3794 C3808 0.960 . S
H3795 C3808 0.960 . S
C3796 H3788 0.929 . S
C3796 C3797 1.377 . S
C3796 C3798 1.384 . S
C3797 C3796 1.377 . S
C3797 C3803 1.390 . S
C3798 H3789 0.930 . S
C3798 C3796 1.384 . S
C3798 C3799 1.372 . S
C3799 C3798 1.372 . S
C3799 C3800 1.400 . S
C3799 C3804 1.490 . S
C3800 H3790 0.930 . S
C3800 C3799 1.400 . S
C3800 C3803 1.386 . S
H3801 C3817 0.930 . S
H3802 C3818 0.931 . S
C3803 H3791 0.929 . S
C3803 C3797 1.390 . S
C3803 C3800 1.386 . S
C3804 C3799 1.490 . S
C3804 C3806 1.395 . S
C3804 C3807 1.403 . S
H3805 C3811 0.930 . S
C3806 H3792 0.930 . S
C3806 C3804 1.395 . S
C3806 C3809 1.403 . S
C3807 C3804 1.403 . S
C3807 C3808 1.524 . S
C3807 C3811 1.400 . S
C3808 H3793 0.960 . S
C3808 H3794 0.960 . S
C3808 H3795 0.960 . S
C3808 C3807 1.524 . S
C3809 C3806 1.403 . S
C3809 C3810 1.392 . S
C3809 C3813 1.495 . S
C3810 C3809 1.392 . S
C3810 C3811 1.385 . S
C3810 C3812 1.478 . S
C3811 H3805 0.930 . S
C3811 C3807 1.400 . S
C3811 C3810 1.385 . S
C3812 C3810 1.478 . S
C3812 C3814 1.381 . S
C3812 C3818 1.383 . S
C3813 C3809 1.495 . S
C3813 H3819 0.959 . S
C3813 H3820 0.961 . S
C3813 H3821 0.960 . S
C3814 C3812 1.381 . S
C3814 C3815 1.394 . S
C3814 H3822 0.930 . S
C3815 C3814 1.394 . S
C3815 C3816 1.383 . S
C3815 H3823 0.929 . S
C3816 C3815 1.383 . S
C3816 C3817 1.377 . S
C3817 H3801 0.930 . S
C3817 C3816 1.377 . S
C3817 C3818 1.379 . S
C3818 H3802 0.931 . S
C3818 C3812 1.383 . S
C3818 C3817 1.379 . S
H3819 C3813 0.959 . S
H3820 C3813 0.961 . S
H3821 C3813 0.960 . S
H3822 C3814 0.930 . S
H3823 C3815 0.929 . S
H3824 C3832 0.929 . S
H3825 C3834 0.930 . S
H3826 C3836 0.930 . S
H3827 C3839 0.929 . S
H3828 C3842 0.930 . S
H3829 C3844 0.960 . S
H3830 C3844 0.960 . S
H3831 C3844 0.960 . S
C3832 H3824 0.929 . S
C3832 C3833 1.377 . S
C3832 C3834 1.384 . S
C3833 C3832 1.377 . S
C3833 C3839 1.390 . S
C3834 H3825 0.930 . S
C3834 C3832 1.384 . S
C3834 C3835 1.372 . S
C3835 C3834 1.372 . S
C3835 C3836 1.400 . S
C3835 C3840 1.490 . S
C3836 H3826 0.930 . S
C3836 C3835 1.400 . S
C3836 C3839 1.386 . S
H3837 C3853 0.930 . S
H3838 C3854 0.931 . S
C3839 H3827 0.929 . S
C3839 C3833 1.390 . S
C3839 C3836 1.386 . S
C3840 C3835 1.490 . S
C3840 C3842 1.395 . S
C3840 C3843 1.403 . S
H3841 C3847 0.930 . S
C3842 H3828 0.930 . S
C3842 C3840 1.395 . S
C3842 C3845 1.403 . S
C3843 C3840 1.403 . S
C3843 C3844 1.524 . S
C3843 C3847 1.400 . S
C3844 H3829 0.960 . S
C3844 H3830 0.960 . S
C3844 H3831 0.960 . S
C3844 C3843 1.524 . S
C3845 C3842 1.403 . S
C3845 C3846 1.392 . S
C3845 C3849 1.495 . S
C3846 C3845 1.392 . S
C3846 C3847 1.385 . S
C3846 C3848 1.478 . S
C3847 H3841 0.930 . S
C3847 C3843 1.400 . S
C3847 C3846 1.385 . S
C3848 C3846 1.478 . S
C3848 C3850 1.381 . S
C3848 C3854 1.383 . S
C3849 C3845 1.495 . S
C3849 H3855 0.959 . S
C3849 H3856 0.961 . S
C3849 H3857 0.960 . S
C3850 C3848 1.381 . S
C3850 C3851 1.394 . S
C3850 H3858 0.930 . S
C3851 C3850 1.394 . S
C3851 C3852 1.383 . S
C3851 H3859 0.929 . S
C3852 C3851 1.383 . S
C3852 C3853 1.377 . S
C3853 H3837 0.930 . S
C3853 C3852 1.377 . S
C3853 C3854 1.379 . S
C3854 H3838 0.931 . S
C3854 C3848 1.383 . S
C3854 C3853 1.379 . S
H3855 C3849 0.959 . S
H3856 C3849 0.961 . S
H3857 C3849 0.960 . S
H3858 C3850 0.930 . S
H3859 C3851 0.929 . S
H3860 C3868 0.929 . S
H3861 C3870 0.930 . S
H3862 C3872 0.930 . S
H3863 C3875 0.929 . S
H3864 C3878 0.930 . S
H3865 C3880 0.960 . S
H3866 C3880 0.960 . S
H3867 C3880 0.960 . S
C3868 H3860 0.929 . S
C3868 C3869 1.377 . S
C3868 C3870 1.384 . S
C3869 C3868 1.377 . S
C3869 C3875 1.390 . S
C3870 H3861 0.930 . S
C3870 C3868 1.384 . S
C3870 C3871 1.372 . S
C3871 C3870 1.372 . S
C3871 C3872 1.400 . S
C3871 C3876 1.490 . S
C3872 H3862 0.930 . S
C3872 C3871 1.400 . S
C3872 C3875 1.386 . S
H3873 C3889 0.930 . S
H3874 C3890 0.931 . S
C3875 H3863 0.929 . S
C3875 C3869 1.390 . S
C3875 C3872 1.386 . S
C3876 C3871 1.490 . S
C3876 C3878 1.395 . S
C3876 C3879 1.403 . S
H3877 C3883 0.930 . S
C3878 H3864 0.930 . S
C3878 C3876 1.395 . S
C3878 C3881 1.403 . S
C3879 C3876 1.403 . S
C3879 C3880 1.524 . S
C3879 C3883 1.400 . S
C3880 H3865 0.960 . S
C3880 H3866 0.960 . S
C3880 H3867 0.960 . S
C3880 C3879 1.524 . S
C3881 C3878 1.403 . S
C3881 C3882 1.392 . S
C3881 C3885 1.495 . S
C3882 C3881 1.392 . S
C3882 C3883 1.385 . S
C3882 C3884 1.478 . S
C3883 H3877 0.930 . S
C3883 C3879 1.400 . S
C3883 C3882 1.385 . S
C3884 C3882 1.478 . S
C3884 C3886 1.381 . S
C3884 C3890 1.383 . S
C3885 C3881 1.495 . S
C3885 H3891 0.959 . S
C3885 H3892 0.961 . S
C3885 H3893 0.960 . S
C3886 C3884 1.381 . S
C3886 C3887 1.394 . S
C3886 H3894 0.930 . S
C3887 C3886 1.394 . S
C3887 C3888 1.383 . S
C3887 H3895 0.929 . S
C3888 C3887 1.383 . S
C3888 C3889 1.377 . S
C3889 H3873 0.930 . S
C3889 C3888 1.377 . S
C3889 C3890 1.379 . S
C3890 H3874 0.931 . S
C3890 C3884 1.383 . S
C3890 C3889 1.379 . S
H3891 C3885 0.959 . S
H3892 C3885 0.961 . S
H3893 C3885 0.960 . S
H3894 C3886 0.930 . S
H3895 C3887 0.929 . S
H3896 C3904 0.929 . S
H3897 C3906 0.930 . S
H3898 C3908 0.930 . S
H3899 C3911 0.929 . S
H3900 C3914 0.930 . S
H3901 C3916 0.960 . S
H3902 C3916 0.960 . S
H3903 C3916 0.960 . S
C3904 H3896 0.929 . S
C3904 C3905 1.377 . S
C3904 C3906 1.384 . S
C3905 C3904 1.377 . S
C3905 C3911 1.390 . S
C3906 H3897 0.930 . S
C3906 C3904 1.384 . S
C3906 C3907 1.372 . S
C3907 C3906 1.372 . S
C3907 C3908 1.400 . S
C3907 C3912 1.490 . S
C3908 H3898 0.930 . S
C3908 C3907 1.400 . S
C3908 C3911 1.386 . S
H3909 C3925 0.930 . S
H3910 C3926 0.931 . S
C3911 H3899 0.929 . S
C3911 C3905 1.390 . S
C3911 C3908 1.386 . S
C3912 C3907 1.490 . S
C3912 C3914 1.395 . S
C3912 C3915 1.403 . S
H3913 C3919 0.930 . S
C3914 H3900 0.930 . S
C3914 C3912 1.395 . S
C3914 C3917 1.403 1_455 S
C3915 C3912 1.403 . S
C3915 C3916 1.524 . S
C3915 C3919 1.400 1_455 S
C3916 H3901 0.960 . S
C3916 H3902 0.960 . S
C3916 H3903 0.960 . S
C3916 C3915 1.524 . S
C3917 C3914 1.403 1_655 S
C3917 C3918 1.392 . S
C3917 C3921 1.495 . S
C3918 C3917 1.392 . S
C3918 C3919 1.385 . S
C3918 C3920 1.478 . S
C3919 H3913 0.930 . S
C3919 C3915 1.400 1_655 S
C3919 C3918 1.385 . S
C3920 C3918 1.478 . S
C3920 C3922 1.381 . S
C3920 C3926 1.383 . S
C3921 C3917 1.495 . S
C3921 H3927 0.959 . S
C3921 H3928 0.961 . S
C3921 H3929 0.960 . S
C3922 C3920 1.381 . S
C3922 C3923 1.394 . S
C3922 H3930 0.930 . S
C3923 C3922 1.394 . S
C3923 C3924 1.383 . S
C3923 H3931 0.929 . S
C3924 C3923 1.383 . S
C3924 C3925 1.377 . S
C3925 H3909 0.930 . S
C3925 C3924 1.377 . S
C3925 C3926 1.379 . S
C3926 H3910 0.931 . S
C3926 C3920 1.383 . S
C3926 C3925 1.379 . S
H3927 C3921 0.959 . S
H3928 C3921 0.961 . S
H3929 C3921 0.960 . S
H3930 C3922 0.930 . S
H3931 C3923 0.929 . S
H3932 C3940 0.929 . S
H3933 C3942 0.930 1_655 S
H3934 C3944 0.930 . S
H3935 C3947 0.929 . S
H3936 C3950 0.930 . S
H3937 C3952 0.960 . S
H3938 C3952 0.960 . S
H3939 C3952 0.960 . S
C3940 H3932 0.929 . S
C3940 C3941 1.377 . S
C3940 C3942 1.384 . S
C3941 C3940 1.377 . S
C3941 C3947 1.390 . S
C3942 H3933 0.930 1_455 S
C3942 C3940 1.384 . S
C3942 C3943 1.372 . S
C3943 C3942 1.372 . S
C3943 C3944 1.400 . S
C3943 C3948 1.490 . S
C3944 H3934 0.930 . S
C3944 C3943 1.400 . S
C3944 C3947 1.386 . S
H3945 C3961 0.930 . S
H3946 C3962 0.931 . S
C3947 H3935 0.929 . S
C3947 C3941 1.390 . S
C3947 C3944 1.386 . S
C3948 C3943 1.490 . S
C3948 C3950 1.395 1_455 S
C3948 C3951 1.403 . S
H3949 C3955 0.930 . S
C3950 H3936 0.930 . S
C3950 C3948 1.395 1_655 S
C3950 C3953 1.403 . S
C3951 C3948 1.403 . S
C3951 C3952 1.524 . S
C3951 C3955 1.400 . S
C3952 H3937 0.960 . S
C3952 H3938 0.960 . S
C3952 H3939 0.960 . S
C3952 C3951 1.524 . S
C3953 C3950 1.403 . S
C3953 C3954 1.392 . S
C3953 C3957 1.495 . S
C3954 C3953 1.392 . S
C3954 C3955 1.385 1_655 S
C3954 C3956 1.478 . S
C3955 H3949 0.930 . S
C3955 C3951 1.400 . S
C3955 C3954 1.385 1_455 S
C3956 C3954 1.478 . S
C3956 C3958 1.381 . S
C3956 C3962 1.383 . S
C3957 C3953 1.495 . S
C3957 H3963 0.959 . S
C3957 H3964 0.961 . S
C3957 H3965 0.960 . S
C3958 C3956 1.381 . S
C3958 C3959 1.394 . S
C3958 H3966 0.930 . S
C3959 C3958 1.394 . S
C3959 C3960 1.383 . S
C3959 H3967 0.929 . S
C3960 C3959 1.383 . S
C3960 C3961 1.377 . S
C3961 H3945 0.930 . S
C3961 C3960 1.377 . S
C3961 C3962 1.379 . S
C3962 H3946 0.931 . S
C3962 C3956 1.383 . S
C3962 C3961 1.379 . S
H3963 C3957 0.959 . S
H3964 C3957 0.961 . S
H3965 C3957 0.960 . S
H3966 C3958 0.930 . S
H3967 C3959 0.929 . S
C1097 C20 1.764 . S
C1116 C258 1.770 . S
C1133 C54 1.763 . S
C1152 C156 1.765 . S
C1169 C88 1.760 . S
C1188 C190 1.750 . S
C1205 C122 1.765 . S
C1224 C224 1.771 . S
C1241 C530 1.764 . S
C1260 C292 1.757 . S
C1277 C326 1.764 . S
C1296 C428 1.761 . S
C1313 C462 1.765 . S
C1332 C360 1.748 . S
C1349 C394 1.765 . S
C1368 C496 1.750 . S
C1385 C564 1.764 . S
C1404 C802 1.771 . S
C1421 C700 1.760 . S
C1440 C598 1.746 . S
C1457 C632 1.762 . S
C1476 C734 1.759 . S
C1493 C666 1.762 . S
C1512 C768 1.756 . S
C1529 C836 1.762 . S
C1548 C1074 1.748 . S
C1565 C870 1.764 . S
C1584 C972 1.758 . S
C1601 C1006 1.765 . S
C1620 C904 1.753 . S
C1637 C1040 1.761 . S
C1656 C938 1.771 . S
C1673 C206 1.586 . S
C1692 C2 1.584 . S
C1709 C36 1.585 . S
C1728 C240 1.578 . S
C1745 C70 1.586 . S
C1764 C138 1.581 . S
C1781 C104 1.585 . S
C1800 C172 1.585 . S
C1817 C274 1.586 . S
C1836 C478 1.581 . S
C1853 C512 1.586 . S
C1872 C308 1.581 . S
C1889 C410 1.585 . S
C1908 C342 1.586 . S
C1925 C444 1.585 . S
C1944 C376 1.585 . S
C1961 C546 1.585 . S
C1980 C750 1.585 . S
C1997 C784 1.585 . S
C2016 C580 1.577 . S
C2033 C682 1.585 . S
C2052 C614 1.585 . S
C2069 C648 1.584 . S
C2088 C716 1.577 . S
C2105 C1022 1.584 . S
C2124 C818 1.583 . S
C2141 C852 1.585 . S
C2160 C1056 1.578 . S
C2177 C954 1.584 . S
C2196 C886 1.583 . S
C2213 C988 1.585 . S
C2232 C920 1.578 . S
C2249 C957 0.586 . S
C2268 C9 0.659 . S
C2285 C447 0.577 . S
C2304 C43 0.668 . S
C2321 C1025 0.577 . S
C2340 C77 0.653 . S
C2357 C111 0.626 . S
C2376 C515 0.557 . S
C2393 C821 0.589 . S
C2412 C145 0.608 . S
C2429 C311 0.583 . S
C2448 C179 0.689 . S
C2465 C889 0.583 . S
C2484 C213 0.690 . S
C2501 C247 0.631 . S
C2520 C379 0.556 . S
C2537 C281 0.632 . S
C2556 C685 0.598 . S
C2573 C315 0.632 . S
C2592 C175 0.605 . S
C2609 C349 0.622 . S
C2628 C753 0.588 . S
C2645 C243 0.585 . S
C2664 C383 0.661 . S
C2681 C549 0.588 . S
C2700 C417 0.688 . S
C2717 C451 0.638 . S
C2736 C39 0.612 . S
C2753 C485 0.638 . S
C2772 C617 0.612 . S
C2789 C519 0.637 . S
C2808 C107 0.612 . S
C2825 C413 0.586 . S
C2844 C553 0.666 . S
C2861 C587 0.619 . S
C2880 C991 0.613 . S
C2897 C481 0.588 . S
C2916 C621 0.566 . S
C2933 C655 0.633 . S
C2952 C1059 0.557 . S
C2969 C689 0.613 . S
C2988 C277 0.612 . S
C3005 C723 0.608 . S
C3024 C855 0.602 . S
C3041 C345 0.587 . S
C3060 C757 0.650 . S
C3077 C791 0.610 . S
C3096 C923 0.610 . S
C3113 C141 0.584 . S
C3132 C825 0.650 . S
C3149 C719 0.586 . S
C3168 C859 0.669 . S
C3185 C209 0.578 . S
C3204 C893 0.551 . S
C3221 C787 0.587 . S
C3240 C927 0.683 . S
C3257 C5 0.589 . S
C3276 C961 0.696 . S
C3293 C583 0.580 . S
C3312 C995 0.604 . S
C3329 C1029 0.608 . S
C3348 C73 0.556 . S
C3365 C651 0.587 . S
C3384 C1063 0.675 . S
C3401 C645 2.325 . S
C3420 C33 2.318 . S
C3437 C679 2.325 . S
C3456 C67 2.322 . S
C3473 C101 2.326 . S
C3492 C577 2.319 . S
C3509 C135 2.326 . S
C3528 C611 2.319 . S
C3545 C781 2.325 . S
C3564 C169 2.321 . S
C3581 C203 2.325 . S
C3600 C815 2.320 . S
C3617 C713 2.325 . S
C3636 C237 2.320 . S
C3653 C747 2.325 . S
C3672 C271 2.320 . S
C3689 C917 2.325 . S
C3708 C305 2.318 . S
C3725 C951 2.325 . S
C3744 C339 2.319 . S
C3761 C373 2.325 . S
C3780 C849 2.320 . S
C3797 C407 2.325 . S
C3816 C883 2.319 . S
C3833 C441 2.325 . S
C3852 C1053 2.319 . S
C3869 C475 2.326 . S
C3888 C1087 2.323 . S
C3905 C985 2.325 . S
C3924 C509 2.319 . S
C3941 C1019 2.326 . S
C3960 C543 2.322 . S
