# Generated by pormake.
# Topology sxb, (6)-cn, num edge types: 1
# Building blocks:
#     Node 0, Type 0, BuildingBlock: KUMBUR_clean_sbu_1, # of connection points: 6
#     Node 1, Type 0, BuildingBlock: KUMBUR_clean_sbu_1, # of connection points: 6
#     Node 2, Type 0, BuildingBlock: KUMBUR_clean_sbu_1, # of connection points: 6
#     Node 3, Type 0, BuildingBlock: KUMBUR_clean_sbu_1, # of connection points: 6
#     Edge 4, Type (0, 0), BuildingBlock: TEMPAE_clean_linker_10, # of connection points: 2
#     Edge 5, Type (0, 0), BuildingBlock: TEMPAE_clean_linker_10, # of connection points: 2
#     Edge 6, Type (0, 0), BuildingBlock: TEMPAE_clean_linker_10, # of connection points: 2
#     Edge 7, Type (0, 0), BuildingBlock: TEMPAE_clean_linker_10, # of connection points: 2
#     Edge 8, Type (0, 0), BuildingBlock: TEMPAE_clean_linker_10, # of connection points: 2
#     Edge 9, Type (0, 0), BuildingBlock: TEMPAE_clean_linker_10, # of connection points: 2
#     Edge 10, Type (0, 0), BuildingBlock: TEMPAE_clean_linker_10, # of connection points: 2
#     Edge 11, Type (0, 0), BuildingBlock: TEMPAE_clean_linker_10, # of connection points: 2
#     Edge 12, Type (0, 0), BuildingBlock: TEMPAE_clean_linker_10, # of connection points: 2
#     Edge 13, Type (0, 0), BuildingBlock: TEMPAE_clean_linker_10, # of connection points: 2
#     Edge 14, Type (0, 0), BuildingBlock: TEMPAE_clean_linker_10, # of connection points: 2
#     Edge 15, Type (0, 0), BuildingBlock: TEMPAE_clean_linker_10, # of connection points: 2
# Relax obj value: 0.014
# Max RMSD: 0.058
# Mean RMSD: 0.058
data_MOF--net-sxb--node1-KUMBUR_clean_sbu_1--edge1-TEMPAE_clean_linker_10
_symmetry_space_group_name_H-M    P1
_symmetry_Int_Tables_number       1
_symmetry_cell_setting            triclinic
loop_
_symmetry_equiv_pos_as_xyz
'x, y, z'
_cell_length_a     15.085634
_cell_length_b     47.726711
_cell_length_c     29.929491
_cell_angle_alpha  114.37881
_cell_angle_beta   90.087494
_cell_angle_gamma 89.992119
loop_
_atom_site_label
_atom_site_type_symbol
_atom_site_fract_x
_atom_site_fract_y
_atom_site_fract_z
_atom_type_partial_charge
Tb0 Tb 1.01635 0.96236 0.96976 0.0
C1 C 0.17708 0.08893 0.09864 0.0
N2 N 0.09525 0.07883 0.10419 0.0
C3 C 0.11786 0.09836 0.19114 0.0
C4 C 0.23338 0.10366 0.13924 0.0
C5 C 0.06419 0.08399 0.14975 0.0
C6 C 0.20307 0.10804 0.18585 0.0
C7 C 0.28675 0.09589 0.0448 0.0
C8 C 0.20341 0.08512 0.05201 0.0
C9 C 0.34381 0.11009 0.08504 0.0
C10 C 0.31725 0.11394 0.13211 0.0
Tb11 Tb 1.0149 0.0556 0.03377 0.0
N12 N 0.14702 0.07072 0.01376 0.0
C13 C 0.30957 0.09241 0.99749 0.0
C14 C 0.16688 0.0688 0.96817 0.0
C15 C 0.24879 0.07923 0.95917 0.0
H16 H 0.99737 0.07772 0.15458 0.0
H17 H 0.26488 0.07718 0.92272 0.0
H18 H 0.07277 0.93567 0.85199 0.0
H19 H 0.74547 0.93551 0.06275 0.0
H20 H 0.11948 0.05976 0.93887 0.0
H21 H 0.3731 0.10032 0.99035 0.0
H22 H 0.88403 0.96126 0.05739 0.0
H23 H 0.0931 0.10225 0.22715 0.0
H24 H 0.40819 0.11852 0.08026 0.0
H25 H 0.36164 0.12524 0.16284 0.0
H26 H 1.00674 0.90213 0.7723 0.0
H27 H 0.24424 0.11934 0.21803 0.0
H28 H 0.67058 0.89989 0.9869 0.0
N29 N 0.96401 0.93139 0.89381 0.0
C30 C 0.88683 0.9166 0.8932 0.0
C31 C 0.9718 0.90626 0.80601 0.0
C32 C 0.84837 0.8962 0.84871 0.0
C33 C 1.00811 0.92586 0.85116 0.0
C34 C 0.89126 0.8915 0.80473 0.0
N35 N 0.88479 0.94219 0.97953 0.0
C36 C 0.85093 0.94653 0.02417 0.0
C37 C 0.76863 0.90585 0.93876 0.0
C38 C 0.84725 0.92148 0.93756 0.0
C39 C 0.73114 0.91135 0.98438 0.0
C40 C 0.77289 0.9316 0.02727 0.0
H41 H 0.86374 0.87607 0.76972 0.0
H42 H 0.7386 0.86515 0.81578 0.0
H43 H 0.669 0.87351 0.89465 0.0
O44 O 0.0674 0.94075 0.01295 0.0
O45 O 0.8865 0.98424 0.97193 0.0
O46 O 0.8857 0.0346 0.03247 0.0
O47 O 0.07689 0.919 0.93434 0.0
O48 O 0.03953 0.98907 0.04856 0.0
O49 O 0.95827 0.03386 0.07866 0.0
O50 O 0.97339 0.08623 0.00331 0.0
O51 O 0.13438 0.02883 0.03459 0.0
O52 O 0.1376 0.98486 0.96252 0.0
O53 O 0.95604 0.09748 0.08005 0.0
O54 O 0.98015 0.03078 0.95613 0.0
O55 O 0.05945 0.98537 0.92324 0.0
C56 C 0.84554 1.00999 0.00019 0.0
C57 C 0.18369 0.90515 0.97928 0.0
C58 C 0.27426 0.86597 0.98984 0.0
C59 C 0.35092 0.88132 0.9856 0.0
C60 C 0.2608 0.92031 0.97517 0.0
C61 C 0.34405 0.90843 0.97848 0.0
C62 C 0.19066 0.87806 0.98688 0.0
C63 C 0.98905 1.00913 0.0825 0.0
C64 C 0.09532 0.91682 0.97519 0.0
C65 C 0.76927 0.88089 0.8496 0.0
C66 C 0.72975 0.88558 0.89452 0.0
C67 C 0.17748 1.00752 0.99825 0.0
C68 C 0.97995 0.13898 0.05742 0.0
C69 C 0.96045 0.18834 0.05204 0.0
C70 C 1.03289 0.20016 0.08381 0.0
C71 C 0.05178 0.15146 0.08941 0.0
C72 C 0.93488 0.15748 0.03821 0.0
C73 C 0.07853 0.18174 0.10207 0.0
C74 C 1.02267 1.00946 0.91963 0.0
C75 C 0.94924 0.10729 0.04556 0.0
H76 H 0.41594 0.87238 0.98797 0.0
H77 H 0.25658 0.94111 0.96914 0.0
H78 H 0.40334 0.92021 0.97538 0.0
H79 H 0.1312 0.86628 0.99019 0.0
H80 H 0.05394 0.22377 0.09463 0.0
H81 H 0.08635 0.13813 0.10547 0.0
H82 H 0.87873 0.14824 0.01387 0.0
H83 H 0.13401 0.1911 0.12675 0.0
Tb84 Tb 1.00637 0.0569 0.52411 0.0
C85 C 0.16983 0.92575 0.42827 0.0
N86 N 0.09723 0.93774 0.41559 0.0
C87 C 0.14149 0.91471 0.33112 0.0
C88 C 0.23275 0.90847 0.39281 0.0
C89 C 0.08127 0.93191 0.36763 0.0
C90 C 0.2178 0.90306 0.34377 0.0
C91 C 0.25928 0.92109 0.49228 0.0
C92 C 0.18271 0.93193 0.47742 0.0
C93 C 0.32249 0.90406 0.45713 0.0
C94 C 0.309 0.89761 0.40751 0.0
Tb95 Tb 1.00228 0.96404 0.47808 0.0
N96 N 0.12065 0.94885 0.5106 0.0
C97 C 0.2698 0.92755 0.54201 0.0
C98 C 0.12809 0.95343 0.55859 0.0
C99 C 0.20335 0.94346 0.57519 0.0
H100 H 1.02096 0.93953 0.35688 0.0
H101 H 0.20928 0.94759 0.61346 0.0
H102 H 1.02503 0.08585 0.64716 0.0
H103 H 0.77945 0.08856 0.41403 0.0
H104 H 0.07522 0.96368 0.58401 0.0
H105 H 0.32784 0.91973 0.55495 0.0
H106 H 0.9168 0.0662 0.43122 0.0
H107 H 0.12854 0.91019 0.29318 0.0
H108 H 0.38189 0.89566 0.46792 0.0
H109 H 0.35836 0.88445 0.38084 0.0
H110 H 0.92643 0.10964 0.71816 0.0
H111 H 0.26448 0.88985 0.31541 0.0
H112 H 0.66647 0.1112 0.47913 0.0
N113 N 0.92516 0.08197 0.59437 0.0
C114 C 0.84407 0.09214 0.58779 0.0
C115 C 0.90166 0.10428 0.68157 0.0
C116 C 0.78672 0.10742 0.62765 0.0
C117 C 0.95676 0.08991 0.6409 0.0
C118 C 0.81547 0.11248 0.67483 0.0
N119 N 0.87982 0.07534 0.5044 0.0
C120 C 0.86744 0.07596 0.45956 0.0
C121 C 0.74223 0.10227 0.53341 0.0
C122 C 0.82168 0.08955 0.54146 0.0
C123 C 0.72654 0.10151 0.48677 0.0
C124 C 0.7901 0.08871 0.44989 0.0
H125 H 0.77344 0.12409 0.70646 0.0
H126 H 0.65911 0.12984 0.64946 0.0
H127 H 0.62021 0.12537 0.56681 0.0
O128 O 0.07354 0.07764 0.48421 0.0
O129 O 0.88309 0.03116 0.49351 0.0
O130 O 0.88697 0.99121 0.51687 0.0
O131 O 0.04999 0.1028 0.56104 0.0
O132 O 0.04199 0.02613 0.44897 0.0
O133 O 0.95676 0.98213 0.4252 0.0
O134 O 0.968 0.92681 0.49488 0.0
O135 O 0.12578 0.98725 0.47176 0.0
O136 O 0.12767 0.03539 0.53626 0.0
O137 O 0.9162 0.93006 0.43016 0.0
O138 O 0.97245 0.99251 0.55528 0.0
O139 O 0.04778 0.03879 0.5778 0.0
C140 C 0.84238 0.01087 0.50535 0.0
C141 C 0.1726 0.11772 0.52694 0.0
C142 C 0.26549 0.15851 0.52306 0.0
C143 C 0.34059 0.14363 0.53098 0.0
C144 C 0.248 0.10325 0.53478 0.0
C145 C 0.33169 0.11622 0.53695 0.0
C146 C 0.18135 0.14541 0.5214 0.0
C147 C 0.99353 1.00442 0.41618 0.0
C148 C 0.08473 0.10359 0.52194 0.0
C149 C 0.70455 0.1184 0.6194 0.0
C150 C 0.68249 0.11594 0.57237 0.0
C151 C 0.16885 1.01062 0.50512 0.0
C152 C 0.93248 0.87988 0.429 0.0
C153 C 0.908 0.82822 0.42513 0.0
C154 C 0.94791 0.81577 0.3786 0.0
C155 C 0.97209 0.86688 0.38248 0.0
C156 C 0.90145 0.86041 0.45046 0.0
C157 C 0.9802 0.83501 0.35766 0.0
C158 C 1.01038 0.01727 0.58837 0.0
C159 C 0.92059 0.91346 0.4555 0.0
H160 H 0.40617 0.1533 0.53287 0.0
H161 H 0.24185 0.08187 0.53871 0.0
H162 H 0.38983 0.10492 0.54295 0.0
H163 H 0.12296 0.15631 0.51454 0.0
H164 H 0.9546 0.7911 0.35856 0.0
H165 H 0.99597 0.88119 0.36503 0.0
H166 H 0.87039 0.87025 0.48629 0.0
H167 H 1.01097 0.82516 0.32184 0.0
Tb168 Tb 0.53023 0.46524 0.96897 0.0
C169 C 0.71419 0.59136 0.04973 0.0
N170 N 0.6471 0.58216 0.07071 0.0
C171 C 0.71976 0.60493 0.14883 0.0
C172 C 0.78895 0.60671 0.07717 0.0
C173 C 0.64744 0.58942 0.11982 0.0
C174 C 0.79117 0.61343 0.12735 0.0
C175 C 0.7743 0.59505 0.97749 0.0
C176 C 0.70661 0.58566 0.00074 0.0
C177 C 0.85142 0.60884 0.00381 0.0
C178 C 0.85846 0.61485 0.05368 0.0
Tb179 Tb 0.53032 0.55844 0.02145 0.0
N180 N 0.63005 0.57297 0.97703 0.0
C181 C 0.76054 0.59163 0.92927 0.0
C182 C 0.61248 0.57324 0.93241 0.0
C183 C 0.67832 0.58137 0.90708 0.0
H184 H 0.59194 0.58326 0.13657 0.0
H185 H 0.6647 0.58054 0.87104 0.0
H186 H 0.58513 0.43919 0.85004 0.0
H187 H 0.26717 0.42148 0.04361 0.0
H188 H 0.547 0.56817 0.91677 0.0
H189 H 0.81091 0.59845 0.90997 0.0
H190 H 0.41511 0.4442 0.0429 0.0
H191 H 0.72032 0.61035 0.18769 0.0
H192 H 0.90463 0.61586 0.9864 0.0
H193 H 0.91726 0.6262 0.07389 0.0
H194 H 0.50587 0.42096 0.77084 0.0
H195 H 0.84728 0.6253 0.14983 0.0
H196 H 0.16573 0.40905 0.97275 0.0
N197 N 0.46774 0.44393 0.89208 0.0
C198 C 0.38123 0.43581 0.89035 0.0
C199 C 0.46953 0.42553 0.80429 0.0
C200 C 0.33379 0.42388 0.84577 0.0
C201 C 0.51396 0.43638 0.84937 0.0
C202 C 0.37837 0.42005 0.80264 0.0
N203 N 0.39521 0.445 0.97317 0.0
C204 C 0.37098 0.4385 0.01187 0.0
C205 C 0.25914 0.42316 0.9311 0.0
C206 C 0.34407 0.43566 0.9323 0.0
C207 C 0.23037 0.41881 0.97227 0.0
C208 C 0.2876 0.4257 0.01229 0.0
H209 H 0.34438 0.41107 0.7676 0.0
H210 H 0.20742 0.40551 0.81161 0.0
H211 H 0.14206 0.40469 0.88648 0.0
O212 O 0.6019 0.44375 0.00664 0.0
O213 O 0.40944 0.49135 0.00411 0.0
O214 O 0.41214 0.53256 0.98359 0.0
O215 O 0.56328 0.41839 0.93206 0.0
O216 O 0.55451 0.49111 0.04749 0.0
O217 O 0.49261 0.54031 0.07544 0.0
O218 O 0.49675 0.60123 0.02038 0.0
O219 O 0.64796 0.5336 0.03167 0.0
O220 O 0.65369 0.48779 0.96286 0.0
O221 O 0.4444 0.58783 0.07644 0.0
O222 O 0.49215 0.53058 0.94521 0.0
O223 O 0.57992 0.4876 0.92282 0.0
C224 C 0.36814 0.51316 0.99613 0.0
C225 C 0.69118 0.40162 0.95874 0.0
C226 C 0.7856 0.36036 0.96026 0.0
C227 C 0.85305 0.37014 0.9374 0.0
C228 C 0.75915 0.41097 0.93614 0.0
C229 C 0.83988 0.39533 0.92572 0.0
C230 C 0.70457 0.37648 0.97093 0.0
C231 C 0.51877 0.5158 0.08201 0.0
C232 C 0.60523 0.41739 0.96914 0.0
C233 C 0.24558 0.41425 0.84531 0.0
C234 C 0.20837 0.41375 0.88794 0.0
C235 C 0.69354 0.51116 0.99802 0.0
C236 C 0.39738 0.63793 0.08073 0.0
C237 C 0.34094 0.68513 0.07729 0.0
C238 C 0.29432 0.69161 0.12103 0.0
C239 C 0.35045 0.64512 0.12457 0.0
C240 C 0.39345 0.65834 0.05743 0.0
C241 C 0.29961 0.67184 0.14459 0.0
C242 C 0.53699 0.50797 0.91207 0.0
C243 C 0.4466 0.60855 0.05872 0.0
H244 H 0.91573 0.35808 0.92785 0.0
H245 H 0.74925 0.43011 0.92621 0.0
H246 H 0.89219 0.40257 0.9081 0.0
H247 H 0.65196 0.3697 0.98906 0.0
H248 H 0.25422 0.7122 0.13724 0.0
H249 H 0.35239 0.62996 0.1433 0.0
H250 H 0.42894 0.65307 0.02345 0.0
H251 H 0.26361 0.67715 0.17837 0.0
Tb252 Tb 0.519 0.56179 0.52933 0.0
C253 C 0.67531 0.43845 0.39705 0.0
N254 N 0.59203 0.44878 0.39531 0.0
C255 C 0.60653 0.43306 0.30834 0.0
C256 C 0.72909 0.42627 0.35487 0.0
C257 C 0.55516 0.44417 0.35102 0.0
C258 C 0.69459 0.42467 0.31045 0.0
C259 C 0.78408 0.42321 0.44241 0.0
C260 C 0.70292 0.43712 0.4401 0.0
C261 C 0.84068 0.4129 0.40155 0.0
C262 C 0.81335 0.41455 0.35786 0.0
Tb263 Tb 0.51613 0.46826 0.4683 0.0
N264 N 0.64646 0.44745 0.4788 0.0
C265 C 0.80381 0.41891 0.4849 0.0
C266 C 0.66275 0.44175 0.51923 0.0
C267 C 0.74211 0.42771 0.52312 0.0
H268 H 0.4858 0.44886 0.34824 0.0
H269 H 0.75577 0.4238 0.55559 0.0
H270 H 0.48182 0.58019 0.64655 0.0
H271 H 0.33891 0.58722 0.39318 0.0
H272 H 0.61483 0.44847 0.54857 0.0
H273 H 0.86528 0.40811 0.48803 0.0
H274 H 0.46871 0.57148 0.42648 0.0
H275 H 0.57759 0.43041 0.2737 0.0
H276 H 0.90418 0.40264 0.40278 0.0
H277 H 0.85614 0.40543 0.32601 0.0
H278 H 0.36495 0.60631 0.70709 0.0
H279 H 0.73371 0.41549 0.27717 0.0
H280 H 0.20732 0.60856 0.44548 0.0
N281 N 0.41371 0.5843 0.58736 0.0
C282 C 0.34285 0.59623 0.5732 0.0
C283 C 0.35754 0.6034 0.66945 0.0
C284 C 0.27451 0.61138 0.60647 0.0
C285 C 0.42326 0.58831 0.63496 0.0
C286 C 0.28255 0.61483 0.6551 0.0
N287 N 0.40691 0.57839 0.49424 0.0
C288 C 0.40969 0.57816 0.44845 0.0
C289 C 0.26404 0.60348 0.5082 0.0
C290 C 0.33804 0.59234 0.52472 0.0
C291 C 0.26309 0.60043 0.45968 0.0
C292 C 0.33697 0.58821 0.42997 0.0
H293 H 0.23148 0.62634 0.68182 0.0
H294 H 0.14634 0.63347 0.6148 0.0
H295 H 0.13685 0.62642 0.5287 0.0
O296 O 0.54756 0.60508 0.52948 0.0
O297 O 0.39958 0.53663 0.53588 0.0
O298 O 0.39508 0.49268 0.46423 0.0
O299 O 0.60357 0.59191 0.58393 0.0
O300 O 0.55305 0.53774 0.45145 0.0
O301 O 0.46993 0.49317 0.42533 0.0
O302 O 0.44957 0.4421 0.50034 0.0
O303 O 0.63965 0.49313 0.5022 0.0
O304 O 0.63642 0.53714 0.48879 0.0
O305 O 0.46435 0.42491 0.42267 0.0
O306 O 0.48663 0.49295 0.5464 0.0
O307 O 0.56301 0.53945 0.57681 0.0
C308 C 0.35463 0.51504 0.50053 0.0
C309 C 0.69171 0.62355 0.55732 0.0
C310 C 0.77975 0.65954 0.53585 0.0
C311 C 0.85733 0.64604 0.54442 0.0
C312 C 0.77051 0.61039 0.56488 0.0
C313 C 0.85251 0.62166 0.55856 0.0
C314 C 0.69679 0.64812 0.54272 0.0
C315 C 0.51362 0.51422 0.41669 0.0
C316 C 0.60422 0.61217 0.56518 0.0
C317 C 0.20008 0.62207 0.58995 0.0
C318 C 0.19454 0.61793 0.54086 0.0
C319 C 0.68058 0.51569 0.49613 0.0
C320 C 0.4728 0.38859 0.45708 0.0
C321 C 0.4537 0.34335 0.4747 0.0
C322 C 0.53865 0.33325 0.45585 0.0
C323 C 0.55607 0.37724 0.43656 0.0
C324 C 0.42082 0.37122 0.47556 0.0
C325 C 0.58921 0.35005 0.43665 0.0
C326 C 0.53167 0.51481 0.58127 0.0
C327 C 0.44057 0.41831 0.45883 0.0
H328 H 0.92227 0.65455 0.54085 0.0
H329 H 0.76906 0.59145 0.5759 0.0
H330 H 0.9128 0.61155 0.56491 0.0
H331 H 0.63613 0.65802 0.5362 0.0
H332 H 0.56487 0.31183 0.45474 0.0
H333 H 0.59547 0.38917 0.41991 0.0
H334 H 0.35555 0.37926 0.49042 0.0
H335 H 0.65384 0.34176 0.42118 0.0
C336 C 0.4083 0.72149 0.04566 0.0
C337 C 0.33322 0.70674 0.05325 0.0
C338 C 0.39975 0.74578 0.0308 0.0
C339 C 0.31419 0.75515 0.02272 0.0
C340 C 0.2387 0.73891 0.02729 0.0
C341 C 0.24911 0.71509 0.04288 0.0
C342 C 0.48188 0.76255 0.0265 0.0
C343 C 0.14646 0.74765 0.0181 0.0
C344 C 0.28033 0.83904 0.04552 0.0
C345 C 0.28189 0.83751 0.99785 0.0
C346 C 0.29103 0.81239 0.05401 0.0
C347 C 0.30293 0.78351 0.01375 0.0
C348 C 0.30325 0.78191 0.96539 0.0
C349 C 0.29313 0.80902 0.95804 0.0
C350 C 0.29031 0.81517 0.10613 0.0
C351 C 0.31447 0.75161 0.9215 0.0
H352 H 0.47332 0.71514 0.05391 0.0
H353 H 0.19106 0.70349 0.04837 0.0
H354 H 0.4823 0.76468 0.99097 0.0
H355 H 0.48192 0.7862 0.05602 0.0
H356 H 0.54365 0.75077 0.02952 0.0
H357 H 0.09592 0.73069 0.018 0.0
H358 H 0.1289 0.77048 0.04709 0.0
H359 H 0.14357 0.74957 0.98243 0.0
H360 H 0.27168 0.86119 0.07616 0.0
H361 H 0.29416 0.80803 0.92119 0.0
H362 H 0.3538 0.80652 0.11435 0.0
H363 H 0.23647 0.80078 0.11081 0.0
H364 H 0.28063 0.83928 0.1333 0.0
H365 H 0.37926 0.74124 0.92364 0.0
H366 H 0.31115 0.75419 0.8863 0.0
H367 H 0.26219 0.73524 0.92143 0.0
C368 C 0.73222 0.31213 0.96716 0.0
C369 C 0.80021 0.3335 0.97286 0.0
C370 C 0.74638 0.28653 0.97824 0.0
C371 C 0.83078 0.28197 0.99491 0.0
C372 C 0.89941 0.30348 0.00088 0.0
C373 C 0.88313 0.329 0.99018 0.0
C374 C 0.67119 0.26436 0.97206 0.0
C375 C 0.99041 0.29958 0.01868 0.0
C376 C 0.87215 0.23575 0.06983 0.0
C377 C 0.91163 0.2091 0.03515 0.0
C378 C 0.83945 0.25873 0.05645 0.0
C379 C 0.84806 0.25521 0.00731 0.0
C380 C 0.88325 0.22747 0.97153 0.0
C381 C 0.91427 0.20458 0.98588 0.0
C382 C 0.80088 0.2876 0.0956 0.0
C383 C 0.89391 0.22286 0.91882 0.0
H384 H 0.66813 0.31513 0.95333 0.0
H385 H 0.93555 0.34565 0.99582 0.0
H386 H 0.68949 0.24109 0.94467 0.0
H387 H 0.65853 0.26245 0.00721 0.0
H388 H 0.6089 0.27155 0.95993 0.0
H389 H 1.03716 0.31794 0.02021 0.0
H390 H 0.98562 0.29989 0.05587 0.0
H391 H 1.01849 0.27697 0.99406 0.0
H392 H 0.86999 0.23911 0.10793 0.0
H393 H 0.94536 0.18402 0.95917 0.0
H394 H 0.7378 0.29377 0.08282 0.0
H395 H 0.84759 0.30703 0.10344 0.0
H396 H 0.78828 0.28508 0.13032 0.0
H397 H 0.83158 0.22867 0.90485 0.0
H398 H 0.91279 0.19886 0.89458 0.0
H399 H 0.94616 0.23858 0.9165 0.0
C400 C 0.22198 0.21301 0.54123 0.0
C401 C 0.27566 0.18732 0.51577 0.0
C402 C 0.23584 0.24099 0.53703 0.0
C403 C 0.30449 0.24316 0.50639 0.0
C404 C 0.35614 0.21685 0.47899 0.0
C405 C 0.34128 0.18934 0.48416 0.0
C406 C 0.17941 0.26849 0.56677 0.0
C407 C 0.42921 0.21799 0.44531 0.0
C408 C 0.3285 0.3068 0.46213 0.0
C409 C 0.40003 0.32331 0.4908 0.0
C410 C 0.292 0.28171 0.46891 0.0
C411 C 0.32782 0.27326 0.50541 0.0
C412 C 0.3952 0.29158 0.53702 0.0
C413 C 0.43102 0.31625 0.52903 0.0
C414 C 0.22037 0.26279 0.43439 0.0
C415 C 0.43456 0.28366 0.57677 0.0
H416 H 0.17115 0.21155 0.56574 0.0
H417 H 0.38168 0.16935 0.46366 0.0
H418 H 0.22082 0.28608 0.5953 0.0
H419 H 0.15232 0.27921 0.54307 0.0
H420 H 0.12347 0.26232 0.58509 0.0
H421 H 0.45923 0.19503 0.42418 0.0
H422 H 0.40325 0.22697 0.41908 0.0
H423 H 0.48213 0.23392 0.46717 0.0
H424 H 0.30547 0.31209 0.43215 0.0
H425 H 0.48675 0.32899 0.55095 0.0
H426 H 0.16708 0.25717 0.45485 0.0
H427 H 0.24897 0.24072 0.4081 0.0
H428 H 0.19069 0.27484 0.41319 0.0
H429 H 0.38142 0.27915 0.59853 0.0
H430 H 0.47795 0.3023 0.60201 0.0
H431 H 0.47462 0.26236 0.55977 0.0
C432 C 0.90261 0.80954 0.49218 0.0
C433 C 0.8731 0.80727 0.44638 0.0
C434 C 0.87884 0.78721 0.5094 0.0
C435 C 0.82298 0.7624 0.48048 0.0
C436 C 0.78851 0.76125 0.43571 0.0
C437 C 0.81476 0.78349 0.41898 0.0
C438 C 0.91778 0.78917 0.55708 0.0
C439 C 0.72713 0.73572 0.40427 0.0
C440 C 0.85513 0.68552 0.48826 0.0
C441 C 0.78677 0.68542 0.52002 0.0
C442 C 0.86763 0.71047 0.4756 0.0
C443 C 0.80904 0.73586 0.49401 0.0
C444 C 0.73792 0.73559 0.52472 0.0
C445 C 0.728 0.7105 0.53765 0.0
C446 C 0.94453 0.70976 0.44285 0.0
C447 C 0.67292 0.76193 0.54428 0.0
H448 H 0.94785 0.82789 0.51336 0.0
H449 H 0.791 0.78195 0.38383 0.0
H450 H 0.86504 0.78673 0.58101 0.0
H451 H 0.96517 0.76995 0.54947 0.0
H452 H 0.95328 0.81122 0.57735 0.0
H453 H 0.6972 0.74032 0.37402 0.0
H454 H 0.76449 0.71379 0.38798 0.0
H455 H 0.67312 0.73252 0.42686 0.0
H456 H 0.89956 0.66601 0.47321 0.0
H457 H 0.67529 0.7109 0.56245 0.0
H458 H 0.98783 0.73005 0.46176 0.0
H459 H 0.91974 0.71104 0.40884 0.0
H460 H 0.98526 0.68861 0.43248 0.0
H461 H 0.70779 0.78327 0.56857 0.0
H462 H 0.61831 0.75746 0.56534 0.0
H463 H 0.64385 0.76622 0.5136 0.0
C464 C 0.32162 1.00556 0.03683 0.0
C465 C 0.27452 1.00833 0.99862 0.0
C466 C 0.41466 1.00536 0.03672 0.0
C467 C 0.46082 1.01003 -0.00084 0.0
C468 C 0.41275 0.01371 0.96122 0.0
C469 C 0.32003 0.01165 0.96048 0.0
C470 C 0.46341 0.99933 0.07594 0.0
C471 C 0.45923 0.0197 0.92139 0.0
C472 C 0.69955 0.03722 0.02752 0.0
C473 C 0.74694 1.01052 0.99864 0.0
C474 C 0.60638 0.03762 0.02703 0.0
C475 C 0.55938 1.01032 0.99874 0.0
C476 C 0.60668 0.98343 0.96931 0.0
C477 C 0.69941 0.98428 0.96842 0.0
C478 C 0.5582 0.06735 0.05605 0.0
C479 C 0.56035 0.95326 0.94024 0.0
H480 H 0.28557 1.00251 0.06583 0.0
H481 H 0.28285 0.01342 0.93072 0.0
H482 H 0.50798 0.97921 0.0586 0.0
H483 H 0.50552 0.01935 0.09788 0.0
H484 H 0.41751 0.99472 0.10113 0.0
H485 H 0.41186 0.02485 0.89732 0.0
H486 H 0.5056 0.03939 0.93794 0.0
H487 H 0.49906 0.99931 0.89838 0.0
H488 H 0.73506 0.058 0.05017 0.0
H489 H 0.73435 0.96416 0.944 0.0
H490 H 0.51523 0.06476 0.08414 0.0
H491 H 0.51441 0.07311 0.0312 0.0
H492 H 0.60439 0.08685 0.07468 0.0
H493 H 0.54277 0.9425 0.96555 0.0
H494 H 0.60353 0.937 0.91102 0.0
H495 H 0.49823 0.95644 0.92308 0.0
C496 C 0.31509 0.98856 0.46599 0.0
C497 C 0.26779 1.01003 0.50573 0.0
C498 C 0.40825 0.9875 0.46612 0.0
C499 C 0.45611 1.00944 0.50598 0.0
C500 C 0.40902 0.03173 0.54567 0.0
C501 C 0.31567 0.03121 0.54569 0.0
C502 C 0.45545 0.9629 0.42348 0.0
C503 C 0.45724 0.05646 0.58778 0.0
C504 C 0.69728 0.99405 0.52802 0.0
C505 C 0.74359 1.00983 0.5048 0.0
C506 C 0.60387 0.99343 0.52823 0.0
C507 C 0.55535 1.00945 0.50552 0.0
C508 C 0.6018 0.0252 0.48174 0.0
C509 C 0.69493 0.02465 0.48091 0.0
C510 C 0.557 0.97556 0.55265 0.0
C511 C 0.55332 0.04312 0.45782 0.0
H512 H 0.27947 0.97273 0.43427 0.0
H513 H 0.28019 0.04778 0.57686 0.0
H514 H 0.50368 0.97345 0.40704 0.0
H515 H 0.49342 0.94789 0.43672 0.0
H516 H 0.40886 0.94837 0.39437 0.0
H517 H 0.411 0.07294 0.61476 0.0
H518 H 0.49941 0.04587 0.607 0.0
H519 H 0.50178 0.06945 0.57366 0.0
H520 H 0.734 0.98223 0.54623 0.0
H521 H 0.72965 0.03574 0.46112 0.0
H522 H 0.51162 0.95838 0.52612 0.0
H523 H 0.51584 0.99132 0.58344 0.0
H524 H 0.60407 0.9634 0.5671 0.0
H525 H 0.49989 0.02904 0.43335 0.0
H526 H 0.59831 0.05102 0.43601 0.0
H527 H 0.52164 0.06359 0.48663 0.0
C528 C 0.84187 0.49211 0.95858 0.0
C529 C 0.79266 0.51181 -0.00072 0.0
C530 C 0.93525 0.49226 0.9591 0.0
C531 C 0.98126 0.51372 0.00034 0.0
C532 C 0.93209 0.53376 0.04144 0.0
C533 C 0.83885 0.53191 0.04089 0.0
C534 C 0.98469 0.46916 0.91568 0.0
C535 C 0.97784 0.55759 0.08573 0.0
C536 C 0.22275 0.49917 0.02253 0.0
C537 C 0.26926 0.5148 -0.00081 0.0
C538 C 0.12958 0.49815 0.02241 0.0
C539 C 0.0807 0.51471 0.00083 0.0
C540 C 0.12705 0.5321 0.9797 0.0
C541 C 0.22059 0.53159 0.97848 0.0
C542 C 0.08352 0.47877 0.04451 0.0
C543 C 0.07773 0.55125 0.95834 0.0
H544 H 0.80747 0.47646 0.92607 0.0
H545 H 0.80212 0.54626 0.07324 0.0
H546 H 1.02564 0.48124 0.89838 0.0
H547 H 1.03049 0.4556 0.92809 0.0
H548 H 0.93933 0.45303 0.88751 0.0
H549 H 0.93136 0.56917 0.11663 0.0
H550 H 1.03204 0.5471 0.09869 0.0
H551 H 1.0083 0.57525 0.07544 0.0
H552 H 0.25927 0.48767 0.0411 0.0
H553 H 0.25551 0.54422 0.96103 0.0
H554 H 0.04619 0.45999 0.01544 0.0
H555 H 1.03483 0.49275 0.07257 0.0
H556 H 0.13081 0.46839 0.06182 0.0
H557 H 1.03697 0.53615 0.92669 0.0
H558 H 0.12319 0.56487 0.94586 0.0
H559 H 1.03172 0.56724 0.98611 0.0
C560 C 0.2087 0.53498 0.54267 0.0
C561 C 0.25564 0.51575 0.50078 0.0
C562 C 0.11555 0.5368 0.54253 0.0
C563 C 0.06727 0.51772 0.50022 0.0
C564 C 0.11401 0.49736 0.45837 0.0
C565 C 0.20736 0.49696 0.45889 0.0
C566 C 0.06875 0.5592 0.5877 0.0
C567 C 0.06531 0.47565 0.41322 0.0
C568 C 0.82711 0.49985 0.51844 0.0
C569 C 0.77947 0.51717 0.49842 0.0
C570 C 0.92027 0.49952 0.51871 0.0
C571 C 0.9679 0.5181 0.50042 0.0
C572 C 0.9204 0.53683 0.48218 0.0
C573 C 0.82693 0.53583 0.48078 0.0
C574 C 0.96756 0.47868 0.53762 0.0
C575 C 0.96837 0.55783 0.46395 0.0
H576 H 0.24466 0.54842 0.57592 0.0
H577 H 0.24249 0.48172 0.42636 0.0
H578 H 1.03161 0.57617 0.57846 0.0
H579 H 1.0198 0.54699 0.60084 0.0
H580 H 0.11551 0.5718 0.6181 0.0
H581 H 0.11117 0.46084 0.38401 0.0
H582 H 1.02032 0.46067 0.42302 0.0
H583 H 1.02353 0.48888 0.39823 0.0
H584 H 0.79154 0.48652 0.5342 0.0
H585 H 0.79108 0.54967 0.46575 0.0
H586 H 1.01963 0.49144 0.5645 0.0
H587 H 1.00082 0.4599 0.50658 0.0
H588 H 0.92151 0.46822 0.55537 0.0
H589 H 1.0154 0.5728 0.49232 0.0
H590 H 0.92204 0.57262 0.4544 0.0
H591 H 1.00787 0.54396 0.43097 0.0
C592 C 0.03982 0.02411 0.35438 0.0
C593 C 0.98665 1.00413 0.36656 0.0
C594 C 1.0349 0.02462 0.30801 0.0
C595 C 0.97558 1.00457 0.27262 0.0
C596 C 0.92121 0.98445 0.28457 0.0
C597 C 0.92725 0.98451 0.33151 0.0
C598 C 0.09409 0.04643 0.29673 0.0
C599 C 0.85727 0.96274 0.24762 0.0
C600 C 0.92142 0.02544 0.16605 0.0
C601 C 0.98164 1.00698 0.13038 0.0
C602 C 0.91687 0.02432 0.21217 0.0
C603 C 0.97338 1.00409 0.22263 0.0
C604 C 1.03239 0.98477 0.18627 0.0
C605 C 1.03585 0.98647 0.14067 0.0
C606 C 0.85326 0.04533 0.25012 0.0
C607 C 0.09396 0.96294 0.19601 0.0
H608 H 0.08613 0.03937 0.38104 0.0
H609 H 0.88546 0.96919 0.34071 0.0
H610 H 0.13938 0.03318 0.26609 0.0
H611 H 0.05355 0.06149 0.28476 0.0
H612 H 0.13467 0.06119 0.32885 0.0
H613 H 0.81826 0.94903 0.26295 0.0
H614 H 0.81076 0.97588 0.23478 0.0
H615 H 0.89413 0.94672 0.21503 0.0
H616 H 0.87835 0.041 0.15813 0.0
H617 H 0.08265 0.97208 0.11346 0.0
H618 H 0.89092 0.06192 0.2819 0.0
H619 H 0.81043 0.0318 0.26402 0.0
H620 H 0.81039 0.05846 0.23534 0.0
H621 H 0.14192 0.97624 0.22523 0.0
H622 H 0.13168 0.94806 0.16281 0.0
H623 H 0.05585 0.94803 0.20933 0.0
C624 C 0.08105 0.99347 0.83394 0.0
C625 C 1.02603 0.01244 0.8722 0.0
C626 C 0.08215 0.99576 0.78864 0.0
C627 C 1.02938 0.01833 0.78208 0.0
C628 C 0.97707 0.03854 0.8213 0.0
C629 C 0.97524 0.03513 0.86562 0.0
C630 C 0.13798 0.97352 0.74739 0.0
C631 C 0.92137 0.06333 0.8161 0.0
C632 C 0.07817 0.03702 0.67259 0.0
C633 C 1.01257 0.01982 0.63938 0.0
C634 C 0.08379 0.03724 0.71964 0.0
C635 C 1.02356 0.01933 0.73318 0.0
C636 C 0.95689 1.00215 0.69988 0.0
C637 C 0.95166 1.00288 0.65369 0.0
C638 C 0.15479 0.05626 0.75458 0.0
C639 C 0.89201 0.98246 0.71263 0.0
H640 H 0.12339 0.97681 0.83925 0.0
H641 H 0.93342 0.05029 0.89509 0.0
H642 H 0.09472 0.95952 0.71608 0.0
H643 H 0.18457 0.98629 0.73397 0.0
H644 H 0.17668 0.95774 0.75874 0.0
H645 H 0.89104 0.07897 0.85143 0.0
H646 H 0.96226 0.07722 0.80197 0.0
H647 H 0.8675 0.05264 0.78912 0.0
H648 H 0.12628 0.04976 0.66148 0.0
H649 H 0.90056 0.98958 0.62827 0.0
H650 H 0.20161 0.04096 0.7625 0.0
H651 H 0.12467 0.07177 0.78999 0.0
H652 H 0.19285 0.07036 0.7396 0.0
H653 H 0.92847 0.96514 0.72136 0.0
H654 H 0.8447 0.97023 0.68232 0.0
H655 H 0.85364 0.99691 0.74575 0.0
C656 C 0.43174 0.50708 0.34066 0.0
C657 C 0.51112 0.51349 0.36724 0.0
C658 C 0.42752 0.50812 0.29459 0.0
C659 C 0.50517 0.51493 0.27445 0.0
C660 C 0.58591 0.52081 0.30097 0.0
C661 C 0.58757 0.52044 0.3475 0.0
C662 C 0.34006 0.50216 0.26766 0.0
C663 C 0.67054 0.52737 0.28013 0.0
C664 C 0.52522 0.48838 0.13714 0.0
C665 C 0.51033 0.51574 0.1313 0.0
C666 C 0.52116 0.48766 0.18334 0.0
C667 C 0.50296 0.51506 0.22501 0.0
C668 C 0.48597 0.54265 0.21953 0.0
C669 C 0.48875 0.54259 0.17257 0.0
C670 C 0.53826 0.45766 0.18766 0.0
C671 C 0.46678 0.57234 0.26339 0.0
H672 H 0.37252 0.50206 0.35654 0.0
H673 H 0.64891 0.52521 0.3683 0.0
H674 H 0.32147 0.52233 0.26023 0.0
H675 H 0.34614 0.48217 0.23168 0.0
H676 H 0.28574 0.49755 0.28873 0.0
H677 H 0.72775 0.53128 0.30543 0.0
H678 H 0.68645 0.5078 0.24487 0.0
H679 H 0.66187 0.54801 0.27234 0.0
H680 H 0.54058 0.46733 0.10556 0.0
H681 H 0.47548 0.5637 0.16845 0.0
H682 H 0.4825 0.45229 0.20695 0.0
H683 H 0.59891 0.45972 0.20982 0.0
H684 H 0.54694 0.43808 0.15133 0.0
H685 H 0.452 0.59158 0.25279 0.0
H686 H 0.52472 0.57884 0.28852 0.0
H687 H 0.40966 0.56926 0.28424 0.0
C688 C 0.58466 0.53528 0.6686 0.0
C689 C 0.54218 0.51217 0.62861 0.0
C690 C 0.58977 0.53352 0.71421 0.0
C691 C 0.55321 0.50774 0.71952 0.0
C692 C 0.51407 0.4837 0.67878 0.0
C693 C 0.50829 0.48633 0.63401 0.0
C694 C 0.63144 0.55971 0.75713 0.0
C695 C 0.47575 0.45558 0.68284 0.0
C696 C 0.6142 0.49396 0.83193 0.0
C697 C 0.53991 0.50607 0.8617 0.0
C698 C 0.61936 0.49403 0.78517 0.0
C699 C 0.54921 0.50699 0.7685 0.0
C700 C 0.47376 0.51896 0.79836 0.0
C701 C 0.46966 0.51804 0.8444 0.0
C702 C 0.70001 0.48054 0.75386 0.0
C703 C 0.39783 0.53314 0.78196 0.0
H704 H 0.61231 0.5551 0.66467 0.0
H705 H 0.4761 0.46812 0.60336 0.0
H706 H 0.58081 0.57076 0.78595 0.0
H707 H 0.68447 0.5509 0.77362 0.0
H708 H 0.66019 0.57748 0.74647 0.0
H709 H 0.45525 0.43767 0.64664 0.0
H710 H 0.52489 0.44542 0.69949 0.0
H711 H 0.417 0.46223 0.70726 0.0
H712 H 0.66888 0.48494 0.84553 0.0
H713 H 0.41196 0.52726 0.86739 0.0
H714 H 0.73587 0.49879 0.74734 0.0
H715 H 0.67969 0.46285 0.7175 0.0
H716 H 0.74643 0.46987 0.77117 0.0
H717 H 0.42248 0.55248 0.77394 0.0
H718 H 0.34474 0.5419 0.81004 0.0
H719 H 0.36851 0.5159 0.7476 0.0
loop_
_geom_bond_atom_site_label_1
_geom_bond_atom_site_label_2
_geom_bond_distance
_geom_bond_site_symmetry_2
_ccdc_geom_bond_type
Tb0 N29 2.617 . S
Tb0 N35 2.572 . S
Tb0 O44 2.465 1_655 S
Tb0 O45 2.387 . S
Tb0 O47 2.428 1_655 S
Tb0 O48 2.308 1_556 S
Tb0 O52 2.349 1_655 S
Tb0 O55 2.393 1_655 S
Tb0 C64 2.802 1_655 S
C1 N2 1.379 . S
C1 C4 1.416 . S
C1 C8 1.424 . S
N2 C1 1.379 . S
N2 C5 1.334 . S
N2 Tb11 2.617 . S
C3 C5 1.390 . S
C3 C6 1.339 . S
C3 H23 0.930 . S
C4 C1 1.416 . S
C4 C6 1.416 . S
C4 C10 1.448 . S
C5 N2 1.334 . S
C5 C3 1.390 . S
C5 H16 0.930 . S
C6 C3 1.339 . S
C6 C4 1.416 . S
C6 H27 0.930 . S
C7 C8 1.413 . S
C7 C9 1.427 . S
C7 C13 1.416 . S
C8 C1 1.424 . S
C8 C7 1.413 . S
C8 N12 1.361 . S
C9 C7 1.427 . S
C9 C10 1.328 . S
C9 H24 0.929 . S
C10 C4 1.448 . S
C10 C9 1.328 . S
C10 H25 0.930 . S
Tb11 N2 2.617 . S
Tb11 N12 2.572 . S
Tb11 O46 2.349 1_455 S
Tb11 O49 2.393 1_455 S
Tb11 O50 2.465 1_455 S
Tb11 O51 2.387 . S
Tb11 O53 2.428 1_455 S
Tb11 O54 2.308 1_554 S
Tb11 C75 2.802 1_455 S
N12 C8 1.361 . S
N12 Tb11 2.572 . S
N12 C14 1.340 1_554 S
C13 C7 1.416 . S
C13 C15 1.332 1_554 S
C13 H21 0.931 1_554 S
C14 N12 1.340 1_556 S
C14 C15 1.407 . S
C14 H20 0.930 . S
C15 C13 1.332 1_556 S
C15 C14 1.407 . S
C15 H17 0.929 . S
H16 C5 0.930 . S
H17 C15 0.929 . S
H18 C33 0.930 . S
H19 C40 0.929 . S
H20 C14 0.930 . S
H21 C13 0.931 1_556 S
H22 C36 0.930 . S
H23 C3 0.930 . S
H24 C9 0.929 . S
H25 C10 0.930 . S
H26 C31 0.930 . S
H27 C6 0.930 . S
H28 C39 0.923 1_554 S
N29 Tb0 2.617 . S
N29 C30 1.379 . S
N29 C33 1.334 . S
C30 N29 1.379 . S
C30 C32 1.416 . S
C30 C38 1.424 . S
C31 H26 0.930 . S
C31 C33 1.390 . S
C31 C34 1.339 . S
C32 C30 1.416 . S
C32 C34 1.416 . S
C32 C65 1.448 . S
C33 H18 0.930 . S
C33 N29 1.334 . S
C33 C31 1.390 . S
C34 C31 1.339 . S
C34 C32 1.416 . S
C34 H41 0.930 . S
N35 Tb0 2.572 . S
N35 C36 1.340 1_556 S
N35 C38 1.361 . S
C36 H22 0.930 . S
C36 N35 1.340 1_554 S
C36 C40 1.407 . S
C37 C38 1.413 . S
C37 C39 1.436 . S
C37 C66 1.427 . S
C38 C30 1.424 . S
C38 N35 1.361 . S
C38 C37 1.413 . S
C39 H28 0.923 1_556 S
C39 C37 1.436 . S
C39 C40 1.321 1_556 S
C40 H19 0.929 . S
C40 C36 1.407 . S
C40 C39 1.321 1_554 S
H41 C34 0.930 . S
H42 C65 0.930 . S
H43 C66 0.929 . S
O44 Tb0 2.465 1_455 S
O44 C64 1.264 . S
O45 Tb0 2.387 . S
O45 C56 1.264 1_565 S
O46 Tb11 2.349 1_655 S
O46 C56 1.243 1_554 S
O47 Tb0 2.428 1_455 S
O47 C64 1.256 . S
O48 Tb0 2.308 1_554 S
O48 C63 1.266 1_565 S
O49 Tb11 2.393 1_655 S
O49 C63 1.248 . S
O50 Tb11 2.465 1_655 S
O50 C75 1.264 . S
O51 Tb11 2.387 . S
O51 C67 1.264 1_545 S
O52 Tb0 2.349 1_455 S
O52 C67 1.243 1_556 S
O53 Tb11 2.428 1_655 S
O53 C75 1.256 . S
O54 Tb11 2.308 1_556 S
O54 C74 1.266 1_545 S
O55 Tb0 2.393 1_455 S
O55 C74 1.248 . S
C56 O45 1.264 1_545 S
C56 O46 1.243 1_556 S
C57 C60 1.399 . S
C57 C62 1.383 . S
C57 C64 1.496 . S
C58 C59 1.399 . S
C58 C62 1.389 . S
C59 C58 1.399 . S
C59 C61 1.380 . S
C59 H76 0.929 . S
C60 C57 1.399 . S
C60 C61 1.392 . S
C60 H77 0.929 . S
C61 C59 1.380 . S
C61 C60 1.392 . S
C61 H78 0.929 . S
C62 C57 1.383 . S
C62 C58 1.389 . S
C62 H79 0.931 1_556 S
C63 O48 1.266 1_545 S
C63 O49 1.248 . S
C64 Tb0 2.802 1_455 S
C64 O44 1.264 . S
C64 O47 1.256 . S
C64 C57 1.496 . S
C65 C32 1.448 . S
C65 H42 0.930 . S
C65 C66 1.328 . S
C66 C37 1.427 . S
C66 H43 0.929 . S
C66 C65 1.328 . S
C67 O51 1.264 1_565 S
C67 O52 1.243 1_554 S
C68 C71 1.399 . S
C68 C72 1.383 . S
C68 C75 1.496 . S
C69 C70 1.399 . S
C69 C72 1.389 . S
C70 C69 1.399 . S
C70 C73 1.380 . S
C70 H80 0.929 . S
C71 C68 1.399 . S
C71 C73 1.392 . S
C71 H81 0.929 . S
C72 C68 1.383 . S
C72 C69 1.389 . S
C72 H82 0.931 1_554 S
C73 C70 1.380 . S
C73 C71 1.392 . S
C73 H83 0.929 . S
C74 O54 1.266 1_565 S
C74 O55 1.248 . S
C75 Tb11 2.802 1_655 S
C75 O50 1.264 . S
C75 O53 1.256 . S
C75 C68 1.496 . S
H76 C59 0.929 . S
H77 C60 0.929 . S
H78 C61 0.929 . S
H79 C62 0.931 1_554 S
H80 C70 0.929 . S
H81 C71 0.929 . S
H82 C72 0.931 1_556 S
H83 C73 0.929 . S
Tb84 N113 2.617 . S
Tb84 N119 2.572 . S
Tb84 O128 2.465 1_655 S
Tb84 O129 2.387 . S
Tb84 O131 2.428 1_655 S
Tb84 O132 2.308 . S
Tb84 O136 2.349 1_655 S
Tb84 O139 2.393 1_655 S
Tb84 C148 2.802 1_655 S
C85 N86 1.379 . S
C85 C88 1.416 . S
C85 C92 1.424 . S
N86 C85 1.379 . S
N86 C89 1.334 . S
N86 Tb95 2.617 . S
C87 C89 1.390 . S
C87 C90 1.339 . S
C87 H107 0.930 . S
C88 C85 1.416 . S
C88 C90 1.416 . S
C88 C94 1.448 . S
C89 N86 1.334 . S
C89 C87 1.390 . S
C89 H100 0.930 . S
C90 C87 1.339 . S
C90 C88 1.416 . S
C90 H111 0.930 . S
C91 C92 1.413 . S
C91 C93 1.427 . S
C91 C97 1.416 . S
C92 C85 1.424 . S
C92 C91 1.413 . S
C92 N96 1.361 . S
C93 C91 1.427 . S
C93 C94 1.328 . S
C93 H108 0.929 . S
C94 C88 1.448 . S
C94 C93 1.328 . S
C94 H109 0.930 . S
Tb95 N86 2.617 . S
Tb95 N96 2.572 . S
Tb95 O130 2.349 1_455 S
Tb95 O133 2.393 1_455 S
Tb95 O134 2.465 1_455 S
Tb95 O135 2.387 . S
Tb95 O137 2.428 1_455 S
Tb95 O138 2.308 . S
Tb95 C159 2.802 1_455 S
N96 C92 1.361 . S
N96 Tb95 2.572 . S
N96 C98 1.340 . S
C97 C91 1.416 . S
C97 C99 1.332 . S
C97 H105 0.931 . S
C98 N96 1.340 . S
C98 C99 1.407 . S
C98 H104 0.930 . S
C99 C97 1.332 . S
C99 C98 1.407 . S
C99 H101 0.929 . S
H100 C89 0.930 . S
H101 C99 0.929 . S
H102 C117 0.930 . S
H103 C124 0.929 . S
H104 C98 0.930 . S
H105 C97 0.931 . S
H106 C120 0.930 . S
H107 C87 0.930 . S
H108 C93 0.929 . S
H109 C94 0.930 . S
H110 C115 0.930 . S
H111 C90 0.930 . S
H112 C123 0.931 . S
N113 Tb84 2.617 . S
N113 C114 1.379 . S
N113 C117 1.334 . S
C114 N113 1.379 . S
C114 C116 1.416 . S
C114 C122 1.424 . S
C115 H110 0.930 . S
C115 C117 1.390 . S
C115 C118 1.339 . S
C116 C114 1.416 . S
C116 C118 1.416 . S
C116 C149 1.448 . S
C117 H102 0.930 . S
C117 N113 1.334 . S
C117 C115 1.390 . S
C118 C115 1.339 . S
C118 C116 1.416 . S
C118 H125 0.930 . S
N119 Tb84 2.572 . S
N119 C120 1.340 . S
N119 C122 1.361 . S
C120 H106 0.930 . S
C120 N119 1.340 . S
C120 C124 1.407 . S
C121 C122 1.413 . S
C121 C123 1.416 . S
C121 C150 1.427 . S
C122 C114 1.424 . S
C122 N119 1.361 . S
C122 C121 1.413 . S
C123 H112 0.931 . S
C123 C121 1.416 . S
C123 C124 1.332 . S
C124 H103 0.929 . S
C124 C120 1.407 . S
C124 C123 1.332 . S
H125 C118 0.930 . S
H126 C149 0.930 . S
H127 C150 0.929 . S
O128 Tb84 2.465 1_455 S
O128 C148 1.264 . S
O129 Tb84 2.387 . S
O129 C140 1.264 1_545 S
O130 Tb95 2.349 1_655 S
O130 C140 1.243 . S
O131 Tb84 2.428 1_455 S
O131 C148 1.256 . S
O132 Tb84 2.308 . S
O132 C147 1.266 1_545 S
O133 Tb95 2.393 1_655 S
O133 C147 1.248 . S
O134 Tb95 2.465 1_655 S
O134 C159 1.264 . S
O135 Tb95 2.387 . S
O135 C151 1.264 1_565 S
O136 Tb84 2.349 1_455 S
O136 C151 1.243 . S
O137 Tb95 2.428 1_655 S
O137 C159 1.256 . S
O138 Tb95 2.308 . S
O138 C158 1.266 1_565 S
O139 Tb84 2.393 1_455 S
O139 C158 1.248 . S
C140 O129 1.264 1_565 S
C140 O130 1.243 . S
C141 C144 1.399 . S
C141 C146 1.383 . S
C141 C148 1.496 . S
C142 C143 1.399 . S
C142 C146 1.389 . S
C143 C142 1.399 . S
C143 C145 1.380 . S
C143 H160 0.929 . S
C144 C141 1.399 . S
C144 C145 1.392 . S
C144 H161 0.929 . S
C145 C143 1.380 . S
C145 C144 1.392 . S
C145 H162 0.929 . S
C146 C141 1.383 . S
C146 C142 1.389 . S
C146 H163 0.931 . S
C147 O132 1.266 1_565 S
C147 O133 1.248 . S
C148 Tb84 2.802 1_455 S
C148 O128 1.264 . S
C148 O131 1.256 . S
C148 C141 1.496 . S
C149 C116 1.448 . S
C149 H126 0.930 . S
C149 C150 1.328 . S
C150 C121 1.427 . S
C150 H127 0.929 . S
C150 C149 1.328 . S
C151 O135 1.264 1_545 S
C151 O136 1.243 . S
C152 C155 1.399 . S
C152 C156 1.383 . S
C152 C159 1.496 . S
C153 C154 1.399 . S
C153 C156 1.389 . S
C154 C153 1.399 . S
C154 C157 1.380 . S
C154 H164 0.929 . S
C155 C152 1.399 . S
C155 C157 1.392 . S
C155 H165 0.929 . S
C156 C152 1.383 . S
C156 C153 1.389 . S
C156 H166 0.931 . S
C157 C154 1.380 . S
C157 C155 1.392 . S
C157 H167 0.929 . S
C158 O138 1.266 1_545 S
C158 O139 1.248 . S
C159 Tb95 2.802 1_655 S
C159 O134 1.264 . S
C159 O137 1.256 . S
C159 C152 1.496 . S
H160 C143 0.929 . S
H161 C144 0.929 . S
H162 C145 0.929 . S
H163 C146 0.931 . S
H164 C154 0.929 . S
H165 C155 0.929 . S
H166 C156 0.931 . S
H167 C157 0.929 . S
Tb168 N197 2.617 . S
Tb168 N203 2.572 . S
Tb168 O212 2.465 . S
Tb168 O213 2.387 . S
Tb168 O215 2.428 . S
Tb168 O216 2.308 1_556 S
Tb168 O220 2.349 . S
Tb168 O223 2.393 . S
Tb168 C232 2.802 . S
C169 N170 1.379 . S
C169 C172 1.416 . S
C169 C176 1.424 . S
N170 C169 1.379 . S
N170 C173 1.334 . S
N170 Tb179 2.617 . S
C171 C173 1.390 . S
C171 C174 1.339 . S
C171 H191 0.930 . S
C172 C169 1.416 . S
C172 C174 1.416 . S
C172 C178 1.448 . S
C173 N170 1.334 . S
C173 C171 1.390 . S
C173 H184 0.930 . S
C174 C171 1.339 . S
C174 C172 1.416 . S
C174 H195 0.930 . S
C175 C176 1.413 . S
C175 C177 1.427 . S
C175 C181 1.416 . S
C176 C169 1.424 . S
C176 C175 1.413 . S
C176 N180 1.361 . S
C177 C175 1.427 . S
C177 C178 1.328 . S
C177 H192 0.929 . S
C178 C172 1.448 . S
C178 C177 1.328 . S
C178 H193 0.930 . S
Tb179 N170 2.617 . S
Tb179 N180 2.572 . S
Tb179 O214 2.349 . S
Tb179 O217 2.393 . S
Tb179 O218 2.465 . S
Tb179 O219 2.387 . S
Tb179 O221 2.428 . S
Tb179 O222 2.308 1_554 S
Tb179 C243 2.802 . S
N180 C176 1.361 . S
N180 Tb179 2.572 . S
N180 C182 1.340 1_554 S
C181 C175 1.416 . S
C181 C183 1.332 1_554 S
C181 H189 0.931 1_554 S
C182 N180 1.340 1_556 S
C182 C183 1.407 . S
C182 H188 0.930 . S
C183 C181 1.332 1_556 S
C183 C182 1.407 . S
C183 H185 0.929 . S
H184 C173 0.930 . S
H185 C183 0.929 . S
H186 C201 0.930 . S
H187 C208 0.929 . S
H188 C182 0.930 . S
H189 C181 0.931 1_556 S
H190 C204 0.930 . S
H191 C171 0.930 . S
H192 C177 0.929 . S
H193 C178 0.930 . S
H194 C199 0.930 . S
H195 C174 0.930 . S
H196 C207 0.923 1_554 S
N197 Tb168 2.617 . S
N197 C198 1.379 . S
N197 C201 1.334 . S
C198 N197 1.379 . S
C198 C200 1.416 . S
C198 C206 1.424 . S
C199 H194 0.930 . S
C199 C201 1.390 . S
C199 C202 1.339 . S
C200 C198 1.416 . S
C200 C202 1.416 . S
C200 C233 1.448 . S
C201 H186 0.930 . S
C201 N197 1.334 . S
C201 C199 1.390 . S
C202 C199 1.339 . S
C202 C200 1.416 . S
C202 H209 0.930 . S
N203 Tb168 2.572 . S
N203 C204 1.340 1_556 S
N203 C206 1.361 . S
C204 H190 0.930 . S
C204 N203 1.340 1_554 S
C204 C208 1.407 . S
C205 C206 1.413 . S
C205 C207 1.434 . S
C205 C234 1.427 . S
C206 C198 1.424 . S
C206 N203 1.361 . S
C206 C205 1.413 . S
C207 H196 0.923 1_556 S
C207 C205 1.434 . S
C207 C208 1.322 1_556 S
C208 H187 0.929 . S
C208 C204 1.407 . S
C208 C207 1.322 1_554 S
H209 C202 0.930 . S
H210 C233 0.930 . S
H211 C234 0.929 . S
O212 Tb168 2.465 . S
O212 C232 1.264 . S
O213 Tb168 2.387 . S
O213 C224 1.264 . S
O214 Tb179 2.349 . S
O214 C224 1.243 1_554 S
O215 Tb168 2.428 . S
O215 C232 1.256 . S
O216 Tb168 2.308 1_554 S
O216 C231 1.266 . S
O217 Tb179 2.393 . S
O217 C231 1.248 . S
O218 Tb179 2.465 . S
O218 C243 1.264 . S
O219 Tb179 2.387 . S
O219 C235 1.264 . S
O220 Tb168 2.349 . S
O220 C235 1.243 1_556 S
O221 Tb179 2.428 . S
O221 C243 1.256 . S
O222 Tb179 2.308 1_556 S
O222 C242 1.266 . S
O223 Tb168 2.393 . S
O223 C242 1.248 . S
C224 O213 1.264 . S
C224 O214 1.243 1_556 S
C225 C228 1.399 . S
C225 C230 1.383 . S
C225 C232 1.496 . S
C226 C227 1.399 . S
C226 C230 1.389 . S
C227 C226 1.399 . S
C227 C229 1.380 . S
C227 H244 0.929 . S
C228 C225 1.399 . S
C228 C229 1.392 . S
C228 H245 0.929 . S
C229 C227 1.380 . S
C229 C228 1.392 . S
C229 H246 0.929 . S
C230 C225 1.383 . S
C230 C226 1.389 . S
C230 H247 0.931 1_556 S
C231 O216 1.266 . S
C231 O217 1.248 . S
C232 Tb168 2.802 . S
C232 O212 1.264 . S
C232 O215 1.256 . S
C232 C225 1.496 . S
C233 C200 1.448 . S
C233 H210 0.930 . S
C233 C234 1.328 . S
C234 C205 1.427 . S
C234 H211 0.929 . S
C234 C233 1.328 . S
C235 O219 1.264 . S
C235 O220 1.243 1_554 S
C236 C239 1.399 . S
C236 C240 1.383 . S
C236 C243 1.496 . S
C237 C238 1.399 . S
C237 C240 1.389 . S
C238 C237 1.399 . S
C238 C241 1.380 . S
C238 H248 0.929 . S
C239 C236 1.399 . S
C239 C241 1.392 . S
C239 H249 0.929 . S
C240 C236 1.383 . S
C240 C237 1.389 . S
C240 H250 0.931 1_554 S
C241 C238 1.380 . S
C241 C239 1.392 . S
C241 H251 0.929 . S
C242 O222 1.266 . S
C242 O223 1.248 . S
C243 Tb179 2.802 . S
C243 O218 1.264 . S
C243 O221 1.256 . S
C243 C236 1.496 . S
H244 C227 0.929 . S
H245 C228 0.929 . S
H246 C229 0.929 . S
H247 C230 0.931 1_554 S
H248 C238 0.929 . S
H249 C239 0.929 . S
H250 C240 0.931 1_556 S
H251 C241 0.929 . S
Tb252 N281 2.617 . S
Tb252 N287 2.572 . S
Tb252 O296 2.465 . S
Tb252 O297 2.387 . S
Tb252 O299 2.428 . S
Tb252 O300 2.308 . S
Tb252 O304 2.349 . S
Tb252 O307 2.393 . S
Tb252 C316 2.802 . S
C253 N254 1.379 . S
C253 C256 1.416 . S
C253 C260 1.424 . S
N254 C253 1.379 . S
N254 C257 1.334 . S
N254 Tb263 2.617 . S
C255 C257 1.390 . S
C255 C258 1.339 . S
C255 H275 0.930 . S
C256 C253 1.416 . S
C256 C258 1.416 . S
C256 C262 1.448 . S
C257 N254 1.334 . S
C257 C255 1.390 . S
C257 H268 0.930 . S
C258 C255 1.339 . S
C258 C256 1.416 . S
C258 H279 0.930 . S
C259 C260 1.413 . S
C259 C261 1.427 . S
C259 C265 1.416 . S
C260 C253 1.424 . S
C260 C259 1.413 . S
C260 N264 1.361 . S
C261 C259 1.427 . S
C261 C262 1.328 . S
C261 H276 0.929 . S
C262 C256 1.448 . S
C262 C261 1.328 . S
C262 H277 0.930 . S
Tb263 N254 2.617 . S
Tb263 N264 2.572 . S
Tb263 O298 2.349 . S
Tb263 O301 2.393 . S
Tb263 O302 2.465 . S
Tb263 O303 2.387 . S
Tb263 O305 2.428 . S
Tb263 O306 2.308 . S
Tb263 C327 2.802 . S
N264 C260 1.361 . S
N264 Tb263 2.572 . S
N264 C266 1.340 . S
C265 C259 1.416 . S
C265 C267 1.332 . S
C265 H273 0.931 . S
C266 N264 1.340 . S
C266 C267 1.407 . S
C266 H272 0.930 . S
C267 C265 1.332 . S
C267 C266 1.407 . S
C267 H269 0.929 . S
H268 C257 0.930 . S
H269 C267 0.929 . S
H270 C285 0.930 . S
H271 C292 0.929 . S
H272 C266 0.930 . S
H273 C265 0.931 . S
H274 C288 0.930 . S
H275 C255 0.930 . S
H276 C261 0.929 . S
H277 C262 0.930 . S
H278 C283 0.930 . S
H279 C258 0.930 . S
H280 C291 0.931 . S
N281 Tb252 2.617 . S
N281 C282 1.379 . S
N281 C285 1.334 . S
C282 N281 1.379 . S
C282 C284 1.416 . S
C282 C290 1.424 . S
C283 H278 0.930 . S
C283 C285 1.390 . S
C283 C286 1.339 . S
C284 C282 1.416 . S
C284 C286 1.416 . S
C284 C317 1.448 . S
C285 H270 0.930 . S
C285 N281 1.334 . S
C285 C283 1.390 . S
C286 C283 1.339 . S
C286 C284 1.416 . S
C286 H293 0.930 . S
N287 Tb252 2.572 . S
N287 C288 1.340 . S
N287 C290 1.361 . S
C288 H274 0.930 . S
C288 N287 1.340 . S
C288 C292 1.407 . S
C289 C290 1.413 . S
C289 C291 1.416 . S
C289 C318 1.427 . S
C290 C282 1.424 . S
C290 N287 1.361 . S
C290 C289 1.413 . S
C291 H280 0.931 . S
C291 C289 1.416 . S
C291 C292 1.332 . S
C292 H271 0.929 . S
C292 C288 1.407 . S
C292 C291 1.332 . S
H293 C286 0.930 . S
H294 C317 0.930 . S
H295 C318 0.929 . S
O296 Tb252 2.465 . S
O296 C316 1.264 . S
O297 Tb252 2.387 . S
O297 C308 1.264 . S
O298 Tb263 2.349 . S
O298 C308 1.243 . S
O299 Tb252 2.428 . S
O299 C316 1.256 . S
O300 Tb252 2.308 . S
O300 C315 1.266 . S
O301 Tb263 2.393 . S
O301 C315 1.248 . S
O302 Tb263 2.465 . S
O302 C327 1.264 . S
O303 Tb263 2.387 . S
O303 C319 1.264 . S
O304 Tb252 2.349 . S
O304 C319 1.243 . S
O305 Tb263 2.428 . S
O305 C327 1.256 . S
O306 Tb263 2.308 . S
O306 C326 1.266 . S
O307 Tb252 2.393 . S
O307 C326 1.248 . S
C308 O297 1.264 . S
C308 O298 1.243 . S
C309 C312 1.399 . S
C309 C314 1.383 . S
C309 C316 1.496 . S
C310 C311 1.399 . S
C310 C314 1.389 . S
C311 C310 1.399 . S
C311 C313 1.380 . S
C311 H328 0.929 . S
C312 C309 1.399 . S
C312 C313 1.392 . S
C312 H329 0.929 . S
C313 C311 1.380 . S
C313 C312 1.392 . S
C313 H330 0.929 . S
C314 C309 1.383 . S
C314 C310 1.389 . S
C314 H331 0.931 . S
C315 O300 1.266 . S
C315 O301 1.248 . S
C316 Tb252 2.802 . S
C316 O296 1.264 . S
C316 O299 1.256 . S
C316 C309 1.496 . S
C317 C284 1.448 . S
C317 H294 0.930 . S
C317 C318 1.328 . S
C318 C289 1.427 . S
C318 H295 0.929 . S
C318 C317 1.328 . S
C319 O303 1.264 . S
C319 O304 1.243 . S
C320 C323 1.399 . S
C320 C324 1.383 . S
C320 C327 1.496 . S
C321 C322 1.399 . S
C321 C324 1.389 . S
C322 C321 1.399 . S
C322 C325 1.380 . S
C322 H332 0.929 . S
C323 C320 1.399 . S
C323 C325 1.392 . S
C323 H333 0.929 . S
C324 C320 1.383 . S
C324 C321 1.389 . S
C324 H334 0.931 . S
C325 C322 1.380 . S
C325 C323 1.392 . S
C325 H335 0.929 . S
C326 O306 1.266 . S
C326 O307 1.248 . S
C327 Tb263 2.802 . S
C327 O302 1.264 . S
C327 O305 1.256 . S
C327 C320 1.496 . S
H328 C311 0.929 . S
H329 C312 0.929 . S
H330 C313 0.929 . S
H331 C314 0.931 . S
H332 C322 0.929 . S
H333 C323 0.929 . S
H334 C324 0.931 . S
H335 C325 0.929 . S
C336 C337 1.391 . S
C336 C338 1.394 . S
C336 H352 0.931 . S
C337 C336 1.391 . S
C337 C341 1.376 . S
C338 C336 1.394 . S
C338 C339 1.369 . S
C338 C342 1.531 . S
C339 C338 1.369 . S
C339 C340 1.410 . S
C339 C347 1.503 . S
C340 C339 1.410 . S
C340 C341 1.392 . S
C340 C343 1.511 . S
C341 C337 1.376 . S
C341 C340 1.392 . S
C341 H353 0.933 . S
C342 C338 1.531 . S
C342 H354 0.960 . S
C342 H355 0.962 1_556 S
C342 H356 0.960 . S
C343 C340 1.511 . S
C343 H357 0.961 1_556 S
C343 H358 0.961 1_556 S
C343 H359 0.961 . S
C344 C345 1.380 . S
C344 C346 1.363 . S
C344 H360 0.931 . S
C345 C344 1.380 . S
C345 C349 1.402 1_554 S
C346 C344 1.363 . S
C346 C347 1.370 1_554 S
C346 C350 1.524 . S
C347 C339 1.503 . S
C347 C346 1.370 1_556 S
C347 C348 1.403 . S
C348 C347 1.403 . S
C348 C349 1.404 . S
C348 C351 1.539 . S
C349 C345 1.402 1_556 S
C349 C348 1.404 . S
C349 H361 0.930 . S
C350 C346 1.524 . S
C350 H362 0.956 . S
C350 H363 0.961 . S
C350 H364 0.961 . S
C351 C348 1.539 . S
C351 H365 0.958 . S
C351 H366 0.961 . S
C351 H367 0.960 . S
H352 C336 0.931 . S
H353 C341 0.933 . S
H354 C342 0.960 . S
H355 C342 0.962 1_554 S
H356 C342 0.960 . S
H357 C343 0.961 1_554 S
H358 C343 0.961 1_554 S
H359 C343 0.961 . S
H360 C344 0.931 . S
H361 C349 0.930 . S
H362 C350 0.956 . S
H363 C350 0.961 . S
H364 C350 0.961 . S
H365 C351 0.958 . S
H366 C351 0.961 . S
H367 C351 0.960 . S
C368 C369 1.391 . S
C368 C370 1.394 . S
C368 H384 0.931 . S
C369 C368 1.391 . S
C369 C373 1.376 1_556 S
C370 C368 1.394 . S
C370 C371 1.369 . S
C370 C374 1.531 . S
C371 C370 1.369 . S
C371 C372 1.410 1_556 S
C371 C379 1.503 . S
C372 C371 1.410 1_554 S
C372 C373 1.392 . S
C372 C375 1.511 . S
C373 C369 1.376 1_554 S
C373 C372 1.392 . S
C373 H385 0.929 . S
C374 C370 1.531 . S
C374 H386 0.960 . S
C374 H387 0.962 . S
C374 H388 0.960 . S
C375 C372 1.511 . S
C375 H389 0.961 . S
C375 H390 0.961 . S
C375 H391 0.961 1_554 S
C376 C377 1.370 1_554 S
C376 C378 1.363 . S
C376 H392 0.931 . S
C377 C376 1.370 1_556 S
C377 C381 1.408 . S
C378 C376 1.363 . S
C378 C379 1.370 1_554 S
C378 C382 1.524 . S
C379 C371 1.503 . S
C379 C378 1.370 1_556 S
C379 C380 1.403 . S
C380 C379 1.403 . S
C380 C381 1.404 . S
C380 C383 1.539 . S
C381 C377 1.408 . S
C381 C380 1.404 . S
C381 H393 0.930 . S
C382 C378 1.524 . S
C382 H394 0.956 . S
C382 H395 0.961 . S
C382 H396 0.961 . S
C383 C380 1.539 . S
C383 H397 0.958 . S
C383 H398 0.961 . S
C383 H399 0.960 . S
H384 C368 0.931 . S
H385 C373 0.929 . S
H386 C374 0.960 . S
H387 C374 0.962 . S
H388 C374 0.960 . S
H389 C375 0.961 . S
H390 C375 0.961 . S
H391 C375 0.961 1_556 S
H392 C376 0.931 . S
H393 C381 0.930 . S
H394 C382 0.956 . S
H395 C382 0.961 . S
H396 C382 0.961 . S
H397 C383 0.958 . S
H398 C383 0.961 . S
H399 C383 0.960 . S
C400 C401 1.391 . S
C400 C402 1.394 . S
C400 H416 0.931 . S
C401 C400 1.391 . S
C401 C405 1.376 . S
C402 C400 1.394 . S
C402 C403 1.369 . S
C402 C406 1.531 . S
C403 C402 1.369 . S
C403 C404 1.410 . S
C403 C411 1.503 . S
C404 C403 1.410 . S
C404 C405 1.392 . S
C404 C407 1.511 . S
C405 C401 1.376 . S
C405 C404 1.392 . S
C405 H417 0.929 . S
C406 C402 1.531 . S
C406 H418 0.960 . S
C406 H419 0.962 . S
C406 H420 0.960 . S
C407 C404 1.511 . S
C407 H421 0.961 . S
C407 H422 0.961 . S
C407 H423 0.961 . S
C408 C409 1.370 . S
C408 C410 1.363 . S
C408 H424 0.931 . S
C409 C408 1.370 . S
C409 C413 1.408 . S
C410 C408 1.363 . S
C410 C411 1.370 . S
C410 C414 1.524 . S
C411 C403 1.503 . S
C411 C410 1.370 . S
C411 C412 1.403 . S
C412 C411 1.403 . S
C412 C413 1.404 . S
C412 C415 1.539 . S
C413 C409 1.408 . S
C413 C412 1.404 . S
C413 H425 0.930 . S
C414 C410 1.524 . S
C414 H426 0.956 . S
C414 H427 0.961 . S
C414 H428 0.961 . S
C415 C412 1.539 . S
C415 H429 0.958 . S
C415 H430 0.961 . S
C415 H431 0.960 . S
H416 C400 0.931 . S
H417 C405 0.929 . S
H418 C406 0.960 . S
H419 C406 0.962 . S
H420 C406 0.960 . S
H421 C407 0.961 . S
H422 C407 0.961 . S
H423 C407 0.961 . S
H424 C408 0.931 . S
H425 C413 0.930 . S
H426 C414 0.956 . S
H427 C414 0.961 . S
H428 C414 0.961 . S
H429 C415 0.958 . S
H430 C415 0.961 . S
H431 C415 0.960 . S
C432 C433 1.391 . S
C432 C434 1.394 . S
C432 H448 0.931 . S
C433 C432 1.391 . S
C433 C437 1.376 . S
C434 C432 1.394 . S
C434 C435 1.369 . S
C434 C438 1.531 . S
C435 C434 1.369 . S
C435 C436 1.410 . S
C435 C443 1.503 . S
C436 C435 1.410 . S
C436 C437 1.392 . S
C436 C439 1.511 . S
C437 C433 1.376 . S
C437 C436 1.392 . S
C437 H449 0.929 . S
C438 C434 1.531 . S
C438 H450 0.960 . S
C438 H451 0.962 . S
C438 H452 0.960 . S
C439 C436 1.511 . S
C439 H453 0.961 . S
C439 H454 0.961 . S
C439 H455 0.961 . S
C440 C441 1.370 . S
C440 C442 1.363 . S
C440 H456 0.931 . S
C441 C440 1.370 . S
C441 C445 1.408 . S
C442 C440 1.363 . S
C442 C443 1.370 . S
C442 C446 1.524 . S
C443 C435 1.503 . S
C443 C442 1.370 . S
C443 C444 1.403 . S
C444 C443 1.403 . S
C444 C445 1.404 . S
C444 C447 1.539 . S
C445 C441 1.408 . S
C445 C444 1.404 . S
C445 H457 0.930 . S
C446 C442 1.524 . S
C446 H458 0.956 . S
C446 H459 0.961 . S
C446 H460 0.961 . S
C447 C444 1.539 . S
C447 H461 0.958 . S
C447 H462 0.961 . S
C447 H463 0.960 . S
H448 C432 0.931 . S
H449 C437 0.929 . S
H450 C438 0.960 . S
H451 C438 0.962 . S
H452 C438 0.960 . S
H453 C439 0.961 . S
H454 C439 0.961 . S
H455 C439 0.961 . S
H456 C440 0.931 . S
H457 C445 0.930 . S
H458 C446 0.956 . S
H459 C446 0.961 . S
H460 C446 0.961 . S
H461 C447 0.958 . S
H462 C447 0.961 . S
H463 C447 0.960 . S
C464 C465 1.391 1_554 S
C464 C466 1.394 . S
C464 H480 0.931 . S
C465 C464 1.391 1_556 S
C465 C469 1.376 . S
C466 C464 1.394 . S
C466 C467 1.369 1_554 S
C466 C470 1.531 . S
C467 C466 1.369 1_556 S
C467 C468 1.410 . S
C467 C475 1.503 . S
C468 C467 1.410 . S
C468 C469 1.392 . S
C468 C471 1.511 . S
C469 C465 1.376 . S
C469 C468 1.392 . S
C469 H481 0.929 . S
C470 C466 1.531 . S
C470 H482 0.960 . S
C470 H483 0.962 1_565 S
C470 H484 0.960 . S
C471 C468 1.511 . S
C471 H485 0.961 1_565 S
C471 H486 0.961 1_565 S
C471 H487 0.961 . S
C472 C473 1.370 1_554 S
C472 C474 1.363 . S
C472 H488 0.931 . S
C473 C472 1.370 1_556 S
C473 C477 1.409 1_545 S
C474 C472 1.363 . S
C474 C475 1.370 1_544 S
C474 C478 1.524 . S
C475 C467 1.503 . S
C475 C474 1.370 1_566 S
C475 C476 1.403 . S
C476 C475 1.403 . S
C476 C477 1.404 . S
C476 C479 1.539 . S
C477 C473 1.409 1_565 S
C477 C476 1.404 . S
C477 H489 0.930 . S
C478 C474 1.524 . S
C478 H490 0.956 . S
C478 H491 0.961 . S
C478 H492 0.961 . S
C479 C476 1.539 . S
C479 H493 0.958 . S
C479 H494 0.961 . S
C479 H495 0.960 . S
H480 C464 0.931 . S
H481 C469 0.929 . S
H482 C470 0.960 . S
H483 C470 0.962 1_545 S
H484 C470 0.960 . S
H485 C471 0.961 1_545 S
H486 C471 0.961 1_545 S
H487 C471 0.961 . S
H488 C472 0.931 . S
H489 C477 0.930 . S
H490 C478 0.956 . S
H491 C478 0.961 . S
H492 C478 0.961 . S
H493 C479 0.958 . S
H494 C479 0.961 . S
H495 C479 0.960 . S
C496 C497 1.391 1_565 S
C496 C498 1.394 . S
C496 H512 0.931 . S
C497 C496 1.391 1_545 S
C497 C501 1.376 . S
C498 C496 1.394 . S
C498 C499 1.369 1_565 S
C498 C502 1.531 . S
C499 C498 1.369 1_545 S
C499 C500 1.410 . S
C499 C507 1.503 . S
C500 C499 1.410 . S
C500 C501 1.392 . S
C500 C503 1.511 . S
C501 C497 1.376 . S
C501 C500 1.392 . S
C501 H513 0.929 . S
C502 C498 1.531 . S
C502 H514 0.960 . S
C502 H515 0.962 . S
C502 H516 0.960 . S
C503 C500 1.511 . S
C503 H517 0.961 . S
C503 H518 0.961 . S
C503 H519 0.961 . S
C504 C505 1.370 . S
C504 C506 1.363 . S
C504 H520 0.931 . S
C505 C504 1.370 . S
C505 C509 1.408 1_565 S
C506 C504 1.363 . S
C506 C507 1.372 1_565 S
C506 C510 1.524 . S
C507 C499 1.503 . S
C507 C506 1.372 1_545 S
C507 C508 1.401 . S
C508 C507 1.401 . S
C508 C509 1.404 . S
C508 C511 1.539 . S
C509 C505 1.408 1_545 S
C509 C508 1.404 . S
C509 H521 0.930 . S
C510 C506 1.524 . S
C510 H522 0.956 . S
C510 H523 0.961 1_565 S
C510 H524 0.961 . S
C511 C508 1.539 . S
C511 H525 0.958 1_545 S
C511 H526 0.961 . S
C511 H527 0.960 . S
H512 C496 0.931 . S
H513 C501 0.929 . S
H514 C502 0.960 . S
H515 C502 0.962 . S
H516 C502 0.960 . S
H517 C503 0.961 . S
H518 C503 0.961 . S
H519 C503 0.961 . S
H520 C504 0.931 . S
H521 C509 0.930 . S
H522 C510 0.956 . S
H523 C510 0.961 1_545 S
H524 C510 0.961 . S
H525 C511 0.958 1_565 S
H526 C511 0.961 . S
H527 C511 0.960 . S
C528 C529 1.391 . S
C528 C530 1.394 . S
C528 H544 0.931 . S
C529 C528 1.391 . S
C529 C533 1.376 1_556 S
C530 C528 1.394 . S
C530 C531 1.369 . S
C530 C534 1.531 . S
C531 C530 1.369 . S
C531 C532 1.410 1_556 S
C531 C539 1.503 1_655 S
C532 C531 1.410 1_554 S
C532 C533 1.392 . S
C532 C535 1.511 . S
C533 C529 1.376 1_554 S
C533 C532 1.392 . S
C533 H545 0.929 . S
C534 C530 1.531 . S
C534 H546 0.960 1_655 S
C534 H547 0.962 . S
C534 H548 0.960 . S
C535 C532 1.511 . S
C535 H549 0.961 . S
C535 H550 0.961 1_655 S
C535 H551 0.961 . S
C536 C537 1.368 . S
C536 C538 1.363 . S
C536 H552 0.931 . S
C537 C536 1.368 . S
C537 C541 1.411 1_554 S
C538 C536 1.363 . S
C538 C539 1.370 1_554 S
C538 C542 1.524 . S
C539 C531 1.503 1_455 S
C539 C538 1.370 1_556 S
C539 C540 1.403 . S
C540 C539 1.403 . S
C540 C541 1.404 . S
C540 C543 1.539 . S
C541 C537 1.411 1_556 S
C541 C540 1.404 . S
C541 H553 0.930 . S
C542 C538 1.524 . S
C542 H554 0.956 . S
C542 H555 0.961 1_455 S
C542 H556 0.961 . S
C543 C540 1.539 . S
C543 H557 0.958 . S
C543 H558 0.961 . S
C543 H559 0.960 1_455 S
H544 C528 0.931 . S
H545 C533 0.929 . S
H546 C534 0.960 1_455 S
H547 C534 0.962 . S
H548 C534 0.960 . S
H549 C535 0.961 . S
H550 C535 0.961 1_455 S
H551 C535 0.961 . S
H552 C536 0.931 . S
H553 C541 0.930 . S
H554 C542 0.956 . S
H555 C542 0.961 1_655 S
H556 C542 0.961 . S
H557 C543 0.958 . S
H558 C543 0.961 . S
H559 C543 0.960 1_655 S
C560 C561 1.391 . S
C560 C562 1.394 . S
C560 H576 0.931 . S
C561 C560 1.391 . S
C561 C565 1.376 . S
C562 C560 1.394 . S
C562 C563 1.369 . S
C562 C566 1.531 . S
C563 C562 1.369 . S
C563 C564 1.410 . S
C563 C571 1.503 1_455 S
C564 C563 1.410 . S
C564 C565 1.392 . S
C564 C567 1.511 . S
C565 C561 1.376 . S
C565 C564 1.392 . S
C565 H577 0.929 . S
C566 C562 1.531 . S
C566 H578 0.960 1_455 S
C566 H579 0.962 . S
C566 H580 0.960 . S
C567 C564 1.511 . S
C567 H581 0.961 . S
C567 H582 0.961 1_455 S
C567 H583 0.961 . S
C568 C569 1.370 . S
C568 C570 1.363 . S
C568 H584 0.931 . S
C569 C568 1.370 . S
C569 C573 1.408 . S
C570 C568 1.363 . S
C570 C571 1.370 . S
C570 C574 1.524 . S
C571 C563 1.503 1_655 S
C571 C570 1.370 . S
C571 C572 1.403 . S
C572 C571 1.403 . S
C572 C573 1.404 . S
C572 C575 1.539 . S
C573 C569 1.408 . S
C573 C572 1.404 . S
C573 H585 0.930 . S
C574 C570 1.524 . S
C574 H586 0.956 . S
C574 H587 0.961 . S
C574 H588 0.961 . S
C575 C572 1.539 . S
C575 H589 0.958 . S
C575 H590 0.961 . S
C575 H591 0.960 1_655 S
H576 C560 0.931 . S
H577 C565 0.929 . S
H578 C566 0.960 1_655 S
H579 C566 0.962 . S
H580 C566 0.960 . S
H581 C567 0.961 . S
H582 C567 0.961 1_655 S
H583 C567 0.961 . S
H584 C568 0.931 . S
H585 C573 0.930 . S
H586 C574 0.956 . S
H587 C574 0.961 . S
H588 C574 0.961 . S
H589 C575 0.958 . S
H590 C575 0.961 . S
H591 C575 0.960 1_455 S
C592 C593 1.395 1_545 S
C592 C594 1.394 1_545 S
C592 H608 0.931 . S
C593 C592 1.395 1_565 S
C593 C597 1.372 1_455 S
C594 C592 1.394 1_565 S
C594 C595 1.369 . S
C594 C598 1.531 1_565 S
C595 C594 1.369 . S
C595 C596 1.410 1_455 S
C595 C603 1.503 . S
C596 C595 1.410 1_655 S
C596 C597 1.392 . S
C596 C599 1.511 . S
C597 C593 1.372 1_655 S
C597 C596 1.392 . S
C597 H609 0.929 . S
C598 C594 1.531 1_545 S
C598 H610 0.960 1_545 S
C598 H611 0.962 . S
C598 H612 0.960 1_545 S
C599 C596 1.511 . S
C599 H613 0.961 . S
C599 H614 0.961 . S
C599 H615 0.961 . S
C600 C601 1.372 1_545 S
C600 C602 1.363 . S
C600 H616 0.931 . S
C601 C600 1.372 1_565 S
C601 C605 1.407 1_655 S
C602 C600 1.363 . S
C602 C603 1.370 1_645 S
C602 C606 1.524 . S
C603 C595 1.503 . S
C603 C602 1.370 1_465 S
C603 C604 1.403 . S
C604 C603 1.403 . S
C604 C605 1.404 . S
C604 C607 1.539 . S
C605 C601 1.407 1_455 S
C605 C604 1.404 . S
C605 H617 0.930 . S
C606 C602 1.524 . S
C606 H618 0.956 1_655 S
C606 H619 0.961 . S
C606 H620 0.961 . S
C607 C604 1.539 . S
C607 H621 0.958 . S
C607 H622 0.965 . S
C607 H623 0.960 1_455 S
H608 C592 0.931 . S
H609 C597 0.929 . S
H610 C598 0.960 1_565 S
H611 C598 0.962 . S
H612 C598 0.960 1_565 S
H613 C599 0.961 . S
H614 C599 0.961 . S
H615 C599 0.961 . S
H616 C600 0.931 . S
H617 C605 0.930 . S
H618 C606 0.956 1_455 S
H619 C606 0.961 . S
H620 C606 0.961 . S
H621 C607 0.958 . S
H622 C607 0.965 . S
H623 C607 0.960 1_655 S
C624 C625 1.369 1_565 S
C624 C626 1.394 . S
C624 H640 0.931 . S
C625 C624 1.369 1_545 S
C625 C629 1.416 . S
C626 C624 1.394 . S
C626 C627 1.354 1_565 S
C626 C630 1.531 . S
C627 C626 1.354 1_545 S
C627 C628 1.418 . S
C627 C635 1.505 . S
C628 C627 1.418 . S
C628 C629 1.392 . S
C628 C631 1.511 . S
C629 C625 1.416 . S
C629 C628 1.392 . S
C629 H641 0.929 . S
C630 C626 1.531 . S
C630 H642 0.960 . S
C630 H643 0.962 1_655 S
C630 H644 0.960 . S
C631 C628 1.511 . S
C631 H645 0.961 1_655 S
C631 H646 0.961 1_655 S
C631 H647 0.961 . S
C632 C633 1.370 1_465 S
C632 C634 1.363 . S
C632 H648 0.931 . S
C633 C632 1.370 1_645 S
C633 C637 1.408 . S
C634 C632 1.363 . S
C634 C635 1.372 1_465 S
C634 C638 1.524 . S
C635 C627 1.505 . S
C635 C634 1.372 1_645 S
C635 C636 1.406 . S
C636 C635 1.406 . S
C636 C637 1.404 . S
C636 C639 1.539 . S
C637 C633 1.408 . S
C637 C636 1.404 . S
C637 H649 0.930 . S
C638 C634 1.524 . S
C638 H650 0.956 . S
C638 H651 0.961 1_565 S
C638 H652 0.961 . S
C639 C636 1.539 . S
C639 H653 0.958 1_545 S
C639 H654 0.961 . S
C639 H655 0.960 . S
H640 C624 0.931 . S
H641 C629 0.929 . S
H642 C630 0.960 . S
H643 C630 0.962 1_455 S
H644 C630 0.960 . S
H645 C631 0.961 1_455 S
H646 C631 0.961 1_455 S
H647 C631 0.961 . S
H648 C632 0.931 . S
H649 C637 0.930 . S
H650 C638 0.956 . S
H651 C638 0.961 1_545 S
H652 C638 0.961 . S
H653 C639 0.958 1_565 S
H654 C639 0.961 . S
H655 C639 0.960 . S
C656 C657 1.391 . S
C656 C658 1.394 . S
C656 H672 0.931 . S
C657 C656 1.391 . S
C657 C661 1.376 . S
C658 C656 1.394 . S
C658 C659 1.369 . S
C658 C662 1.531 . S
C659 C658 1.369 . S
C659 C660 1.410 . S
C659 C667 1.503 . S
C660 C659 1.410 . S
C660 C661 1.392 . S
C660 C663 1.511 . S
C661 C657 1.376 . S
C661 C660 1.392 . S
C661 H673 0.929 . S
C662 C658 1.531 . S
C662 H674 0.960 . S
C662 H675 0.962 . S
C662 H676 0.960 . S
C663 C660 1.511 . S
C663 H677 0.961 . S
C663 H678 0.961 . S
C663 H679 0.961 . S
C664 C665 1.370 . S
C664 C666 1.363 . S
C664 H680 0.931 . S
C665 C664 1.370 . S
C665 C669 1.408 . S
C666 C664 1.363 . S
C666 C667 1.370 . S
C666 C670 1.524 . S
C667 C659 1.503 . S
C667 C666 1.370 . S
C667 C668 1.403 . S
C668 C667 1.403 . S
C668 C669 1.404 . S
C668 C671 1.539 . S
C669 C665 1.408 . S
C669 C668 1.404 . S
C669 H681 0.930 . S
C670 C666 1.524 . S
C670 H682 0.956 . S
C670 H683 0.961 . S
C670 H684 0.961 . S
C671 C668 1.539 . S
C671 H685 0.958 . S
C671 H686 0.961 . S
C671 H687 0.960 . S
H672 C656 0.931 . S
H673 C661 0.929 . S
H674 C662 0.960 . S
H675 C662 0.962 . S
H676 C662 0.960 . S
H677 C663 0.961 . S
H678 C663 0.961 . S
H679 C663 0.961 . S
H680 C664 0.931 . S
H681 C669 0.930 . S
H682 C670 0.956 . S
H683 C670 0.961 . S
H684 C670 0.961 . S
H685 C671 0.958 . S
H686 C671 0.961 . S
H687 C671 0.960 . S
C688 C689 1.391 . S
C688 C690 1.394 . S
C688 H704 0.931 . S
C689 C688 1.391 . S
C689 C693 1.376 . S
C690 C688 1.394 . S
C690 C691 1.369 . S
C690 C694 1.531 . S
C691 C690 1.369 . S
C691 C692 1.410 . S
C691 C699 1.503 . S
C692 C691 1.410 . S
C692 C693 1.392 . S
C692 C695 1.511 . S
C693 C689 1.376 . S
C693 C692 1.392 . S
C693 H705 0.929 . S
C694 C690 1.531 . S
C694 H706 0.960 . S
C694 H707 0.962 . S
C694 H708 0.960 . S
C695 C692 1.511 . S
C695 H709 0.961 . S
C695 H710 0.961 . S
C695 H711 0.961 . S
C696 C697 1.370 . S
C696 C698 1.363 . S
C696 H712 0.931 . S
C697 C696 1.370 . S
C697 C701 1.408 . S
C698 C696 1.363 . S
C698 C699 1.370 . S
C698 C702 1.524 . S
C699 C691 1.503 . S
C699 C698 1.370 . S
C699 C700 1.403 . S
C700 C699 1.403 . S
C700 C701 1.404 . S
C700 C703 1.539 . S
C701 C697 1.408 . S
C701 C700 1.404 . S
C701 H713 0.930 . S
C702 C698 1.524 . S
C702 H714 0.956 . S
C702 H715 0.961 . S
C702 H716 0.961 . S
C703 C700 1.539 . S
C703 H717 0.958 . S
C703 H718 0.961 . S
C703 H719 0.960 . S
H704 C688 0.931 . S
H705 C693 0.929 . S
H706 C694 0.960 . S
H707 C694 0.962 . S
H708 C694 0.960 . S
H709 C695 0.961 . S
H710 C695 0.961 . S
H711 C695 0.961 . S
H712 C696 0.931 . S
H713 C701 0.930 . S
H714 C702 0.956 . S
H715 C702 0.961 . S
H716 C702 0.961 . S
H717 C703 0.958 . S
H718 C703 0.961 . S
H719 C703 0.960 . S
C337 C237 1.452 1_556 S
C345 C58 1.377 1_554 S
C369 C226 1.358 . S
C377 C69 1.422 1_556 S
C401 C142 1.372 . S
C409 C321 1.415 . S
C433 C153 1.441 . S
C441 C310 1.392 . S
C465 C67 1.968 1_556 S
C473 C56 1.966 . S
C497 C151 1.958 . S
C505 C140 1.969 . S
C529 C235 1.966 1_556 S
C537 C224 1.967 1_554 S
C561 C308 1.961 . S
C569 C319 1.968 . S
C593 C147 1.462 1_455 S
C601 C63 1.487 1_565 S
C625 C74 1.466 1_645 S
C633 C158 1.482 1_655 S
C657 C315 1.495 . S
C665 C231 1.479 . S
C689 C326 1.470 . S
C697 C242 1.486 . S
