# Generated by pormake.
# Topology mok, (4)-cn, num edge types: 1
# Building blocks:
#     Node 0, Type 0, BuildingBlock: QUQFOY_clean_sbu_1, # of connection points: 4
#     Node 1, Type 0, BuildingBlock: QUQFOY_clean_sbu_1, # of connection points: 4
#     Node 2, Type 0, BuildingBlock: QUQFOY_clean_sbu_1, # of connection points: 4
#     Node 3, Type 0, BuildingBlock: QUQFOY_clean_sbu_1, # of connection points: 4
#     Node 4, Type 0, BuildingBlock: QUQFOY_clean_sbu_1, # of connection points: 4
#     Node 5, Type 0, BuildingBlock: QUQFOY_clean_sbu_1, # of connection points: 4
#     Node 6, Type 0, BuildingBlock: QUQFOY_clean_sbu_1, # of connection points: 4
#     Node 7, Type 0, BuildingBlock: QUQFOY_clean_sbu_1, # of connection points: 4
#     Edge 8, Type (0, 0), BuildingBlock: XUDNAN_clean_linker_2, # of connection points: 2
#     Edge 9, Type (0, 0), BuildingBlock: XUDNAN_clean_linker_2, # of connection points: 2
#     Edge 10, Type (0, 0), BuildingBlock: XUDNAN_clean_linker_2, # of connection points: 2
#     Edge 11, Type (0, 0), BuildingBlock: XUDNAN_clean_linker_2, # of connection points: 2
#     Edge 12, Type (0, 0), BuildingBlock: XUDNAN_clean_linker_2, # of connection points: 2
#     Edge 13, Type (0, 0), BuildingBlock: XUDNAN_clean_linker_2, # of connection points: 2
#     Edge 14, Type (0, 0), BuildingBlock: XUDNAN_clean_linker_2, # of connection points: 2
#     Edge 15, Type (0, 0), BuildingBlock: XUDNAN_clean_linker_2, # of connection points: 2
#     Edge 16, Type (0, 0), BuildingBlock: XUDNAN_clean_linker_2, # of connection points: 2
#     Edge 17, Type (0, 0), BuildingBlock: XUDNAN_clean_linker_2, # of connection points: 2
#     Edge 18, Type (0, 0), BuildingBlock: XUDNAN_clean_linker_2, # of connection points: 2
#     Edge 19, Type (0, 0), BuildingBlock: XUDNAN_clean_linker_2, # of connection points: 2
#     Edge 20, Type (0, 0), BuildingBlock: XUDNAN_clean_linker_2, # of connection points: 2
#     Edge 21, Type (0, 0), BuildingBlock: XUDNAN_clean_linker_2, # of connection points: 2
#     Edge 22, Type (0, 0), BuildingBlock: XUDNAN_clean_linker_2, # of connection points: 2
#     Edge 23, Type (0, 0), BuildingBlock: XUDNAN_clean_linker_2, # of connection points: 2
# Relax obj value: 0.035
# Max RMSD: 0.075
# Mean RMSD: 0.075
data_MOF--net-mok--node1-QUQFOY_clean_sbu_1--edge1-XUDNAN_clean_linker_2
_symmetry_space_group_name_H-M    P1
_symmetry_Int_Tables_number       1
_symmetry_cell_setting            triclinic
loop_
_symmetry_equiv_pos_as_xyz
'x, y, z'
_cell_length_a     54.531471
_cell_length_b     15.825928
_cell_length_c     28.413666
_cell_angle_alpha  90.067888
_cell_angle_beta   90.040835
_cell_angle_gamma 89.919521
loop_
_atom_site_label
_atom_site_type_symbol
_atom_site_fract_x
_atom_site_fract_y
_atom_site_fract_z
_atom_type_partial_charge
O0 O 0.61925 0.2911 1.00189 0.0
Cd1 Cd 0.62232 0.24258 0.06909 0.0
Cd2 Cd 0.63579 0.40155 0.08761 0.0
O3 O 0.62129 0.42593 0.02128 0.0
O4 O 0.60129 0.13784 0.07163 0.0
O5 O 0.59206 0.25652 0.10871 0.0
C6 C 0.58596 0.1807 0.09677 0.0
C7 C 0.62281 0.46167 0.15846 0.0
C8 C 0.6178 0.36866 0.99046 0.0
C9 C 0.67522 0.27231 0.0945 0.0
O10 O 0.6705 0.35036 0.08891 0.0
O11 O 0.65791 0.21806 0.09329 0.0
O12 O 0.63514 0.50536 0.12829 0.0
O13 O 0.61678 0.3854 0.14729 0.0
O14 O 0.41045 0.70593 1.01102 0.0
Cd15 Cd 0.4023 0.76476 0.07404 0.0
Cd16 Cd 0.4019 0.60081 0.10269 0.0
O17 O 0.41685 0.57587 0.03675 0.0
O18 O 0.41334 0.88606 0.06872 0.0
O19 O 0.43196 0.7918 0.11362 0.0
C20 C 0.43125 0.86716 0.09652 0.0
C21 C 0.41933 0.57721 0.17661 0.0
C22 C 0.4169 0.62976 1.00343 0.0
C23 C 0.35365 0.69246 0.10348 0.0
O24 O 0.36479 0.62185 0.10436 0.0
O25 O 0.36556 0.7605 0.09599 0.0
O26 O 0.40993 0.51539 0.15293 0.0
O27 O 0.42039 0.65025 0.15656 0.0
O28 O 0.62652 0.6779 0.67097 0.0
Cd29 Cd 0.63139 0.75507 0.61285 0.0
Cd30 Cd 0.6412 0.60742 0.57114 0.0
O31 O 0.62526 0.55795 0.63135 0.0
O32 O 0.61637 0.86819 0.62725 0.0
O33 O 0.60101 0.77981 0.57455 0.0
C34 C 0.59959 0.85074 0.59679 0.0
C35 C 0.62615 0.59119 0.49464 0.0
C36 C 0.62293 0.59847 0.66986 0.0
C37 C 0.68344 0.72252 0.58141 0.0
O38 O 0.67729 0.64565 0.57628 0.0
O39 O 0.66725 0.7781 0.59098 0.0
O40 O 0.63772 0.53037 0.51535 0.0
O41 O 0.62208 0.65943 0.5184 0.0
O42 O 0.41352 0.314 0.68477 0.0
Cd43 Cd 0.41034 0.24271 0.62392 0.0
Cd44 Cd 0.40001 0.39115 0.58382 0.0
O45 O 0.4149 0.43502 0.64652 0.0
O46 O 0.43152 0.13909 0.62948 0.0
O47 O 0.43973 0.24582 0.58173 0.0
C48 C 0.44613 0.17396 0.59947 0.0
C49 C 0.41342 0.44274 0.51095 0.0
C50 C 0.41691 0.39349 0.6847 0.0
C51 C 0.35875 0.26803 0.59031 0.0
O52 O 0.36448 0.34545 0.58577 0.0
O53 O 0.37513 0.21358 0.60067 0.0
O54 O 0.40052 0.48887 0.53903 0.0
O55 O 0.41926 0.36758 0.52454 0.0
O56 O 0.11624 0.79408 1.00254 0.0
Cd57 Cd 0.12157 0.73813 0.06752 0.0
Cd58 Cd 0.13404 0.9002 0.0888 0.0
O59 O 0.11947 0.92828 0.02318 0.0
O60 O 0.1071 0.62146 0.06275 0.0
O61 O 0.09074 0.72265 0.10622 0.0
C62 C 0.08974 0.64657 0.09017 0.0
C63 C 0.11662 0.92923 0.16192 0.0
C64 C 0.11489 0.8722 0.9922 0.0
C65 C 0.17456 0.77648 0.09409 0.0
O66 O 0.16937 0.85448 0.09021 0.0
O67 O 0.15769 0.72094 0.09078 0.0
O68 O 0.12895 0.98666 0.13988 0.0
O69 O 0.11313 0.8579 0.14089 0.0
O70 O 0.90916 0.21069 0.99009 0.0
Cd71 Cd 0.9022 0.26001 0.05589 0.0
Cd72 Cd 0.9024 0.09213 0.08019 0.0
O73 O 0.9171 0.07977 1.01265 0.0
O74 O 0.91971 0.37218 0.06244 0.0
O75 O 0.93124 0.25465 0.09813 0.0
C76 C 0.93555 0.3327 0.08825 0.0
C77 C 0.91942 0.03564 0.1493 0.0
C78 C 0.91637 0.13608 0.98058 0.0
C79 C 0.8542 0.18642 0.08671 0.0
O80 O 0.86533 0.11577 0.0848 0.0
O81 O 0.86594 0.25517 0.08015 0.0
O82 O 0.90931 0.98712 0.11834 0.0
O83 O 0.92107 0.11496 0.1398 0.0
O84 O 0.12387 0.17567 0.67314 0.0
Cd85 Cd 0.13122 0.24966 0.61521 0.0
Cd86 Cd 0.13014 0.10124 0.57057 0.0
O87 O 0.11396 0.06158 0.63298 0.0
O88 O 0.11366 0.3598 0.62509 0.0
O89 O 0.10382 0.26776 0.56931 0.0
C90 C 0.09914 0.33736 0.59135 0.0
C91 C 0.11524 0.0572 0.497 0.0
C92 C 0.11557 0.10073 0.67203 0.0
C93 C 0.17933 0.19009 0.58107 0.0
O94 O 0.16752 0.12246 0.5725 0.0
O95 O 0.16795 0.25598 0.595 0.0
O96 O 0.1255 0.00483 0.52559 0.0
O97 O 0.1126 0.13443 0.51062 0.0
O98 O 0.91938 0.82494 0.66495 0.0
Cd99 Cd 0.91154 0.74151 0.61109 0.0
Cd100 Cd 0.91185 0.88756 0.56112 0.0
O101 O 0.92688 0.9384 0.62222 0.0
O102 O 0.9288 0.6321 0.62628 0.0
O103 O 0.93831 0.71324 0.56557 0.0
C104 C 0.94288 0.64732 0.59072 0.0
C105 C 0.92706 0.90764 0.48457 0.0
C106 C 0.92613 0.90167 0.66211 0.0
C107 C 0.86309 0.79653 0.5754 0.0
O108 O 0.87479 0.86281 0.56375 0.0
O109 O 0.87456 0.73295 0.59212 0.0
O110 O 0.91619 0.96815 0.50683 0.0
O111 O 0.93062 0.83783 0.50689 0.0
H112 H 0.82132 0.31983 0.0798 0.0
H113 H 0.82585 0.05213 0.11231 0.0
H114 H 0.78105 0.04678 0.1216 0.0
H115 H 0.77087 0.36851 0.1613 0.0
H116 H 0.75665 0.4425 0.12152 0.0
H117 H 0.78939 0.42709 0.1202 0.0
H118 H 0.78702 0.39138 0.0313 0.0
H119 H 0.7543 0.40646 0.0324 0.0
H120 H 0.76697 0.30799 1.01165 0.0
H121 H 0.73548 0.06727 0.12267 0.0
H122 H 0.69233 0.11393 0.11673 0.0
H123 H 0.71693 0.36826 0.08457 0.0
C124 C 0.81293 0.26039 0.08951 0.0
C125 C 0.82727 0.18647 0.09532 0.0
C126 C 0.81541 0.10976 0.10755 0.0
C127 C 0.7899 0.10596 0.11303 0.0
C128 C 0.7763 0.17941 0.10637 0.0
C129 C 0.78736 0.25535 0.09512 0.0
C130 C 0.76829 0.32419 0.0883 0.0
C131 C 0.77149 0.39474 0.12503 0.0
C132 C 0.7692 0.35955 0.03792 0.0
C133 C 0.74487 0.27469 0.09679 0.0
C134 C 0.74993 0.19135 0.10733 0.0
C135 C 0.73129 0.13262 0.11486 0.0
C136 C 0.70681 0.15968 0.11134 0.0
C137 C 0.70113 0.24481 0.10043 0.0
C138 C 0.72056 0.30291 0.09345 0.0
H139 H 0.21635 0.87282 0.08478 0.0
H140 H 0.19143 0.61999 0.1196 0.0
H141 H 0.2344 0.57453 0.12993 0.0
H142 H 0.26812 0.80809 0.0173 0.0
H143 H 0.28761 0.89316 0.03675 0.0
H144 H 0.25487 0.90767 0.03488 0.0
H145 H 0.25499 0.94979 0.123 0.0
H146 H 0.28776 0.93532 0.12516 0.0
H147 H 0.26831 0.8791 0.16569 0.0
H148 H 0.27973 0.55492 0.13417 0.0
H149 H 0.3247 0.56011 0.12944 0.0
H150 H 0.321 0.82522 0.09047 0.0
C151 C 0.2199 0.80809 0.09508 0.0
C152 C 0.20042 0.75005 0.10163 0.0
C153 C 0.20595 0.66565 0.11442 0.0
C154 C 0.23032 0.63928 0.12051 0.0
C155 C 0.24903 0.69787 0.11354 0.0
C156 C 0.24417 0.78046 0.10096 0.0
C157 C 0.26778 0.82958 0.09358 0.0
C158 C 0.2697 0.86148 0.0426 0.0
C159 C 0.26982 0.90278 0.12898 0.0
C160 C 0.28668 0.76143 0.10362 0.0
C161 C 0.27538 0.68622 0.11538 0.0
C162 C 0.28879 0.61351 0.12516 0.0
C163 C 0.3144 0.61723 0.12231 0.0
C164 C 0.32654 0.69311 0.10958 0.0
C165 C 0.31237 0.76643 0.10063 0.0
H166 H 0.82989 0.66493 0.58857 0.0
H167 H 0.8344 0.93177 0.55358 0.0
H168 H 0.78955 0.93998 0.55016 0.0
H169 H 0.77749 0.61972 0.51201 0.0
H170 H 0.76371 0.54632 0.55257 0.0
H171 H 0.79652 0.55976 0.55176 0.0
H172 H 0.79597 0.59512 0.64078 0.0
H173 H 0.76317 0.58199 0.64183 0.0
H174 H 0.77664 0.67955 0.66189 0.0
H175 H 0.74442 0.92352 0.55471 0.0
H176 H 0.70119 0.87978 0.5621 0.0
H177 H 0.72465 0.62247 0.5903 0.0
C178 C 0.82143 0.72486 0.57991 0.0
C179 C 0.83587 0.79762 0.5714 0.0
C180 C 0.82396 0.87485 0.56016 0.0
C181 C 0.79838 0.88043 0.55818 0.0
C182 C 0.78473 0.80813 0.56706 0.0
C183 C 0.79572 0.73152 0.57725 0.0
C184 C 0.77646 0.66372 0.58519 0.0
C185 C 0.77868 0.59321 0.54817 0.0
C186 C 0.77817 0.62801 0.63541 0.0
C187 C 0.75308 0.71468 0.57837 0.0
C188 C 0.75837 0.79795 0.56819 0.0
C189 C 0.73999 0.85828 0.5622 0.0
C190 C 0.71549 0.83289 0.56662 0.0
C191 C 0.7095 0.7477 0.57643 0.0
C192 C 0.72863 0.68786 0.58216 0.0
H193 H 0.21236 0.32234 0.59211 0.0
H194 H 0.20816 0.05379 0.56111 0.0
H195 H 0.25311 0.046 0.55833 0.0
H196 H 0.2651 0.36468 0.51594 0.0
H197 H 0.27848 0.44026 0.55588 0.0
H198 H 0.2457 0.42615 0.55433 0.0
H199 H 0.2457 0.3951 0.64382 0.0
H200 H 0.27846 0.40887 0.64561 0.0
H201 H 0.26499 0.31205 0.6666 0.0
H202 H 0.29845 0.06378 0.56363 0.0
H203 H 0.34156 0.10904 0.57205 0.0
H204 H 0.31724 0.36681 0.59612 0.0
C205 C 0.22089 0.2621 0.58435 0.0
C206 C 0.20655 0.18873 0.57689 0.0
C207 C 0.21856 0.11111 0.56691 0.0
C208 C 0.24418 0.10583 0.56528 0.0
C209 C 0.25774 0.17879 0.57327 0.0
C210 C 0.2466 0.2557 0.58215 0.0
C211 C 0.26568 0.32421 0.58972 0.0
C212 C 0.26361 0.39288 0.55169 0.0
C213 C 0.26357 0.36228 0.63939 0.0
C214 C 0.28917 0.27339 0.58424 0.0
C215 C 0.28411 0.18956 0.57496 0.0
C216 C 0.30268 0.12947 0.5704 0.0
C217 C 0.32711 0.15571 0.57538 0.0
C218 C 0.33283 0.24148 0.58437 0.0
C219 C 0.3135 0.30098 0.58861 0.0
H220 H 0.62223 0.37455 0.24115 0.0
H221 H 0.61321 0.62562 0.18287 0.0
H222 H 0.60831 0.68374 0.26332 0.0
H223 H 0.58112 0.39703 0.34379 0.0
H224 H 0.60147 0.33865 0.38181 0.0
H225 H 0.60048 0.31529 0.31973 0.0
H226 H 0.64735 0.33989 0.31405 0.0
H227 H 0.64848 0.36341 0.37597 0.0
H228 H 0.66002 0.43882 0.334 0.0
H229 H 0.60668 0.71519 0.35031 0.0
H230 H 0.61244 0.72042 0.43645 0.0
H231 H 0.62586 0.45007 0.438 0.0
C232 C 0.61853 0.4414 0.24535 0.0
C233 C 0.61756 0.49556 0.2059 0.0
C234 C 0.61369 0.58312 0.21271 0.0
C235 C 0.61082 0.61652 0.25822 0.0
C236 C 0.61226 0.56161 0.29653 0.0
C237 C 0.61626 0.47598 0.29056 0.0
C238 C 0.61987 0.43213 0.3375 0.0
C239 C 0.59951 0.36692 0.34621 0.0
C240 C 0.64545 0.39119 0.34054 0.0
C241 C 0.61761 0.50658 0.37082 0.0
C242 C 0.61271 0.58037 0.34655 0.0
C243 C 0.6104 0.65771 0.36966 0.0
C244 C 0.61365 0.66 0.41867 0.0
C245 C 0.61959 0.58568 0.44404 0.0
C246 C 0.62124 0.50791 0.41967 0.0
H247 H 0.41788 0.43316 0.23113 0.0
H248 H 0.43478 0.701 0.23667 0.0
H249 H 0.43901 0.69225 0.32281 0.0
H250 H 0.38146 0.42621 0.33024 0.0
H251 H 0.39188 0.32497 0.35135 0.0
H252 H 0.39332 0.34882 0.28954 0.0
H253 H 0.43987 0.31609 0.28903 0.0
H254 H 0.43855 0.29129 0.35089 0.0
H255 H 0.4598 0.3698 0.3299 0.0
H256 H 0.43461 0.66045 0.40847 0.0
H257 H 0.42615 0.60359 0.48785 0.0
H258 H 0.41505 0.35448 0.42805 0.0
C259 C 0.42317 0.48942 0.25031 0.0
C260 C 0.42604 0.56775 0.22698 0.0
C261 C 0.4326 0.64015 0.25355 0.0
C262 C 0.43503 0.63589 0.30262 0.0
C263 C 0.43126 0.55847 0.3247 0.0
C264 C 0.42594 0.48608 0.29941 0.0
C265 C 0.42148 0.41187 0.33209 0.0
C266 C 0.39549 0.3759 0.32539 0.0
C267 C 0.4411 0.3432 0.32505 0.0
C268 C 0.42421 0.45462 0.37963 0.0
C269 C 0.42985 0.53925 0.3745 0.0
C270 C 0.43085 0.59384 0.41302 0.0
C271 C 0.42593 0.56117 0.45791 0.0
C272 C 0.42044 0.47456 0.46401 0.0
C273 C 0.41992 0.42047 0.42441 0.0
H274 H 0.41342 0.4717 0.96289 0.0
H275 H 0.43349 0.73148 0.93321 0.0
H276 H 0.43927 0.69535 0.84956 0.0
H277 H 0.45503 0.37064 0.87535 0.0
H278 H 0.43272 0.29141 0.8598 0.0
H279 H 0.4332 0.33468 0.91851 0.0
H280 H 0.38748 0.37678 0.91021 0.0
H281 H 0.3869 0.33419 0.85148 0.0
H282 H 0.37809 0.4425 0.86163 0.0
H283 H 0.4389 0.63595 0.76847 0.0
H284 H 0.43274 0.55635 0.69481 0.0
H285 H 0.41261 0.33428 0.77561 0.0
C286 C 0.41968 0.52032 0.93897 0.0
C287 C 0.4232 0.60432 0.95467 0.0
C288 C 0.43074 0.66671 0.92204 0.0
C289 C 0.43414 0.64677 0.87444 0.0
C290 C 0.42991 0.56406 0.85982 0.0
C291 C 0.42295 0.5016 0.89104 0.0
C292 C 0.41773 0.4194 0.86531 0.0
C293 C 0.43575 0.34993 0.88066 0.0
C294 C 0.39096 0.39163 0.8726 0.0
C295 C 0.42232 0.44611 0.81479 0.0
C296 C 0.42954 0.52964 0.81256 0.0
C297 C 0.43356 0.57017 0.76976 0.0
C298 C 0.42992 0.52442 0.72806 0.0
C299 C 0.4223 0.43888 0.72929 0.0
C300 C 0.41876 0.39919 0.77341 0.0
H301 H 0.62298 0.52432 0.94798 0.0
H302 H 0.60333 0.2635 0.91926 0.0
H303 H 0.59959 0.29665 0.83484 0.0
H304 H 0.58291 0.62106 0.85811 0.0
H305 H 0.60516 0.7008 0.84328 0.0
H306 H 0.60409 0.65862 0.90213 0.0
H307 H 0.65002 0.61779 0.89625 0.0
H308 H 0.65121 0.65951 0.83741 0.0
H309 H 0.6602 0.55167 0.84836 0.0
H310 H 0.60129 0.35459 0.75284 0.0
H311 H 0.6078 0.43417 0.67922 0.0
H312 H 0.62604 0.65771 0.76072 0.0
C313 C 0.61742 0.47455 0.92409 0.0
C314 C 0.61336 0.39131 0.94044 0.0
C315 C 0.60652 0.32777 0.90775 0.0
C316 C 0.60429 0.34598 0.85965 0.0
C317 C 0.60888 0.42815 0.8446 0.0
C318 C 0.61518 0.49158 0.87582 0.0
C319 C 0.62046 0.57344 0.85007 0.0
C320 C 0.60205 0.64256 0.86425 0.0
C321 C 0.64705 0.60225 0.85853 0.0
C322 C 0.61659 0.54564 0.79951 0.0
C323 C 0.60977 0.46171 0.79717 0.0
C324 C 0.60634 0.42065 0.75424 0.0
C325 C 0.61013 0.46637 0.71257 0.0
C326 C 0.61729 0.55238 0.71405 0.0
C327 C 0.62026 0.59242 0.75827 0.0
H328 H 0.12182 0.07059 0.2179 0.0
H329 H 0.09452 0.813 0.21868 0.0
H330 H 0.08706 0.82349 0.30395 0.0
H331 H 0.15392 0.06025 0.32254 0.0
H332 H 0.14669 0.16547 0.3426 0.0
H333 H 0.14698 0.14234 0.28062 0.0
H334 H 0.10232 0.19667 0.27304 0.0
H335 H 0.10193 0.22053 0.3351 0.0
H336 H 0.07878 0.15272 0.31015 0.0
H337 H 0.08887 0.853 0.39019 0.0
H338 H 0.09648 0.90484 0.47105 0.0
H339 H 0.11976 0.14641 0.41513 0.0
C340 C 0.11366 0.0172 0.23578 0.0
C341 C 0.10873 0.94102 0.21146 0.0
C342 C 0.09837 0.87221 0.23635 0.0
C343 C 0.09404 0.8775 0.28489 0.0
C344 C 0.09978 0.9525 0.30806 0.0
C345 C 0.10896 0.02173 0.28428 0.0
C346 C 0.11487 0.09314 0.31811 0.0
C347 C 0.14224 0.11662 0.31582 0.0
C348 C 0.09849 0.17034 0.30852 0.0
C349 C 0.10846 0.05205 0.3647 0.0
C350 C 0.09975 0.9709 0.35805 0.0
C351 C 0.09502 0.9172 0.39584 0.0
C352 C 0.09946 0.94697 0.44158 0.0
C353 C 0.10818 0.02999 0.44917 0.0
C354 C 0.11234 0.08356 0.41025 0.0
H355 H 0.92417 0.04874 0.42841 0.0
H356 H 0.94232 0.7817 0.42538 0.0
H357 H 0.94617 0.78787 0.33894 0.0
H358 H 0.88737 0.05079 0.32918 0.0
H359 H 0.89727 0.15225 0.30767 0.0
H360 H 0.89876 0.12943 0.36959 0.0
H361 H 0.94514 0.16487 0.37017 0.0
H362 H 0.94377 0.18837 0.30816 0.0
H363 H 0.96541 0.11143 0.32978 0.0
H364 H 0.94192 0.81833 0.25215 0.0
H365 H 0.93339 0.87433 0.17239 0.0
H366 H 0.92073 0.12292 0.23198 0.0
C367 C 0.92955 0.99203 0.4097 0.0
C368 C 0.93299 0.91478 0.43377 0.0
C369 C 0.93974 0.84179 0.40785 0.0
C370 C 0.94194 0.8446 0.35865 0.0
C371 C 0.93775 0.92119 0.33586 0.0
C372 C 0.93212 0.99397 0.36061 0.0
C373 C 0.92732 0.06725 0.32757 0.0
C374 C 0.90113 0.10191 0.33389 0.0
C375 C 0.94656 0.13711 0.33433 0.0
C376 C 0.93033 0.02372 0.28039 0.0
C377 C 0.93634 0.93944 0.28585 0.0
C378 C 0.9378 0.88469 0.24739 0.0
C379 C 0.93287 0.91687 0.20226 0.0
C380 C 0.92686 0.00313 0.19598 0.0
C381 C 0.92596 0.05719 0.23558 0.0
H382 H 0.92424 0.84293 0.75291 0.0
H383 H 0.93774 0.07004 0.67139 0.0
H384 H 0.94032 0.15274 0.74504 0.0
H385 H 0.88538 0.93473 0.8352 0.0
H386 H 0.8962 0.87425 0.88478 0.0
H387 H 0.89839 0.83113 0.82633 0.0
H388 H 0.94515 0.80937 0.8372 0.0
H389 H 0.9431 0.85199 0.89592 0.0
H390 H 0.96408 0.89766 0.8541 0.0
H391 H 0.93673 0.21304 0.82679 0.0
H392 H 0.92879 0.24576 0.91033 0.0
H393 H 0.91829 0.97894 0.93892 0.0
C394 C 0.92828 0.90974 0.75043 0.0
C395 C 0.93087 0.94983 0.70616 0.0
C396 C 0.93582 0.03766 0.70474 0.0
C397 C 0.93732 0.08521 0.74645 0.0
C398 C 0.93403 0.04397 0.78935 0.0
C399 C 0.92986 0.95803 0.79165 0.0
C400 C 0.92545 0.92975 0.84193 0.0
C401 C 0.89984 0.89016 0.84735 0.0
C402 C 0.94565 0.86858 0.85824 0.0
C403 C 0.92715 0.01358 0.86752 0.0
C404 C 0.93224 0.0786 0.83657 0.0
C405 C 0.93311 0.16246 0.85142 0.0
C406 C 0.92848 0.18043 0.89896 0.0
C407 C 0.92309 0.11489 0.93132 0.0
C408 C 0.92278 0.03028 0.9153 0.0
H409 H 0.12221 0.02619 0.9493 0.0
H410 H 0.09508 0.77259 0.9234 0.0
H411 H 0.08879 0.80787 0.83977 0.0
H412 H 0.08156 0.13617 0.86472 0.0
H413 H 0.1053 0.20856 0.84698 0.0
H414 H 0.10512 0.16656 0.90592 0.0
H415 H 0.14947 0.11131 0.89434 0.0
H416 H 0.14976 0.15289 0.83544 0.0
H417 H 0.15618 0.04257 0.84535 0.0
H418 H 0.08876 0.86614 0.75773 0.0
H419 H 0.09535 0.94323 0.6833 0.0
H420 H 0.12263 0.15874 0.76218 0.0
C421 C 0.11445 0.97868 0.92627 0.0
C422 C 0.10903 0.89673 0.94306 0.0
C423 C 0.09936 0.83584 0.91146 0.0
C424 C 0.09564 0.85533 0.86386 0.0
C425 C 0.10162 0.93606 0.84824 0.0
C426 C 0.11075 0.99692 0.87848 0.0
C427 C 0.11733 0.07686 0.85203 0.0
C428 C 0.10137 0.15145 0.86839 0.0
C429 C 0.14481 0.09704 0.85709 0.0
C430 C 0.11099 0.05071 0.80214 0.0
C431 C 0.10173 0.96957 0.80077 0.0
C432 C 0.09573 0.93013 0.7584 0.0
C433 C 0.09957 0.97441 0.71626 0.0
C434 C 0.1094 0.05723 0.71674 0.0
C435 C 0.11482 0.09593 0.76048 0.0
H436 H 0.48008 0.83202 0.10433 0.0
H437 H 0.42794 0.03887 0.10581 0.0
H438 H 0.46212 0.14071 0.11481 0.0
H439 H 0.52603 0.92277 0.18516 0.0
H440 H 0.5515 0.88358 0.15108 0.0
H441 H 0.5229 0.82659 0.15165 0.0
H442 H 0.52102 0.83385 0.06064 0.0
H443 H 0.54956 0.89074 0.05978 0.0
H444 H 0.52279 0.93517 0.0319 0.0
H445 H 0.50216 0.21991 0.1214 0.0
H446 H 0.54465 0.27226 0.11477 0.0
H447 H 0.57091 0.0146 0.10064 0.0
C448 C 0.47588 0.89865 0.10775 0.0
C449 C 0.45138 0.92774 0.10547 0.0
C450 C 0.44658 0.01547 0.10814 0.0
C451 C 0.46586 0.07358 0.1134 0.0
C452 C 0.48987 0.04298 0.11503 0.0
C453 C 0.49496 0.95759 0.11164 0.0
C454 C 0.52239 0.9418 0.10903 0.0
C455 C 0.53122 0.89065 0.15178 0.0
C456 C 0.52934 0.89782 0.06257 0.0
C457 C 0.53196 0.03168 0.11076 0.0
C458 C 0.51293 0.0889 0.11545 0.0
C459 C 0.51718 0.17563 0.11776 0.0
C460 C 0.54141 0.20475 0.11416 0.0
C461 C 0.5611 0.14756 0.1072 0.0
C462 C 0.55624 0.05982 0.10601 0.0
H463 H 0.55062 0.81802 0.60452 0.0
H464 H 0.60262 0.01673 0.57316 0.0
H465 H 0.56835 0.11819 0.56295 0.0
H466 H 0.50038 0.8875 0.52765 0.0
H467 H 0.47697 0.86206 0.57007 0.0
H468 H 0.50523 0.80291 0.56908 0.0
H469 H 0.51242 0.83825 0.65706 0.0
H470 H 0.4842 0.89729 0.65833 0.0
H471 H 0.51249 0.94714 0.6758 0.0
H472 H 0.52847 0.19791 0.5572 0.0
H473 H 0.48662 0.25537 0.5664 0.0
H474 H 0.46074 0.00826 0.60967 0.0
C475 C 0.55464 0.88259 0.59458 0.0
C476 C 0.57909 0.90972 0.58857 0.0
C477 C 0.58391 0.99503 0.57728 0.0
C478 C 0.56459 0.05278 0.57128 0.0
C479 C 0.54061 0.02442 0.57773 0.0
C480 C 0.53558 0.94164 0.58987 0.0
C481 C 0.50844 0.92958 0.59958 0.0
C482 C 0.49709 0.86679 0.56449 0.0
C483 C 0.50415 0.90143 0.65073 0.0
C484 C 0.49902 0.01855 0.59127 0.0
C485 C 0.5178 0.07176 0.57767 0.0
C486 C 0.51364 0.15686 0.56789 0.0
C487 C 0.48977 0.18885 0.57303 0.0
C488 C 0.47043 0.13638 0.58881 0.0
C489 C 0.47516 0.04991 0.59758 0.0
H490 H 0.041 0.68366 0.08261 0.0
H491 H 0.09163 0.48299 0.11912 0.0
H492 H 0.05669 0.38598 0.13215 0.0
H493 H 0.98978 0.62372 0.16104 0.0
H494 H 0.96677 0.64797 0.11751 0.0
H495 H 0.99532 0.70519 0.11806 0.0
H496 H 1.00286 0.66366 0.03104 0.0
H497 H 0.97436 0.60657 0.03021 0.0
H498 H 1.00248 0.55364 1.01452 0.0
H499 H 1.01668 0.30984 0.13804 0.0
H500 H 0.97511 0.25312 0.12663 0.0
H501 H 0.95021 0.49921 0.07873 0.0
C502 C 0.04457 0.61982 0.09451 0.0
C503 C 0.06886 0.59084 0.10101 0.0
C504 C 0.07308 0.50624 0.11467 0.0
C505 C 0.05336 0.45102 0.1223 0.0
C506 C 0.02958 0.48108 0.11517 0.0
C507 C 0.02509 0.56315 0.10091 0.0
C508 C 0.99807 0.57642 0.09023 0.0
C509 C 0.98682 0.64223 0.12372 0.0
C510 C 0.99423 0.60153 0.03843 0.0
C511 C 0.98812 0.4887 0.10009 0.0
C512 C 1.00655 0.43543 0.11553 0.0
C513 C 1.00209 0.35099 0.12609 0.0
C514 C 0.97833 0.31943 0.11958 0.0
C515 C 0.95931 0.3716 0.10174 0.0
C516 C 0.96428 0.45782 0.09265 0.0
H517 H 0.0687 0.41513 0.65406 0.0
H518 H 0.07818 0.36471 0.50524 0.0
H519 H 0.03896 0.4383 0.48839 0.0
H520 H 1.00413 0.37341 0.65477 0.0
H521 H 0.99715 0.45322 0.69806 0.0
H522 H 0.0268 0.40294 0.69797 0.0
H523 H 0.04793 0.54908 0.69195 0.0
H524 H 0.01836 0.59984 0.69249 0.0
H525 H 0.03946 0.61996 0.64503 0.0
H526 H 0.9993 0.52292 0.48812 0.0
H527 H 0.96085 0.60114 0.50483 0.0
H528 H 0.97497 0.58041 0.65447 0.0
C529 C 0.06268 0.42095 0.61787 0.0
C530 C 0.07664 0.38601 0.58075 0.0
C531 C 0.06784 0.39212 0.53401 0.0
C532 C 0.04561 0.43365 0.52419 0.0
C533 C 0.03212 0.46673 0.56166 0.0
C534 C 0.04019 0.45984 0.60764 0.0
C535 C 0.02156 0.49603 0.64178 0.0
C536 C 1.01184 0.42729 0.6751 0.0
C537 C 0.03248 0.57066 0.66943 0.0
C538 C 1.00184 0.52528 0.60787 0.0
C539 C 1.00842 0.5089 0.56176 0.0
C540 C 0.9938 0.53481 0.52411 0.0
C541 C 0.97201 0.579 0.53388 0.0
C542 C 0.96475 0.5949 0.58087 0.0
C543 C 0.97978 0.5669 0.61825 0.0
loop_
_geom_bond_atom_site_label_1
_geom_bond_atom_site_label_2
_geom_bond_distance
_geom_bond_site_symmetry_2
_ccdc_geom_bond_type
O0 Cd1 2.223 1_556 S
O0 C8 1.315 . S
Cd1 O0 2.223 1_554 S
Cd1 O4 2.297 1_554 S
Cd1 O5 2.439 . S
Cd1 O11 2.240 . S
Cd2 O3 2.240 . S
Cd2 O10 2.223 . S
Cd2 O12 2.297 . S
Cd2 O13 2.439 . S
O3 Cd2 2.240 . S
O3 C8 1.279 1_554 S
O4 Cd1 2.297 1_556 S
O4 C6 1.247 1_556 S
O5 Cd1 2.439 . S
O5 C6 1.208 . S
C6 O4 1.247 1_554 S
C6 O5 1.208 . S
C7 O12 1.247 . S
C7 O13 1.208 . S
C8 O0 1.315 . S
C8 O3 1.279 1_556 S
C9 O10 1.315 . S
C9 O11 1.279 . S
O10 Cd2 2.223 . S
O10 C9 1.315 . S
O11 Cd1 2.240 . S
O11 C9 1.279 . S
O12 Cd2 2.297 . S
O12 C7 1.247 . S
O13 Cd2 2.439 . S
O13 C7 1.208 . S
O14 Cd15 2.223 1_556 S
O14 C22 1.315 . S
Cd15 O14 2.223 1_554 S
Cd15 O18 2.297 1_554 S
Cd15 O19 2.439 . S
Cd15 O25 2.240 . S
Cd16 O17 2.240 . S
Cd16 O24 2.223 . S
Cd16 O26 2.297 . S
Cd16 O27 2.439 . S
O17 Cd16 2.240 . S
O17 C22 1.279 1_554 S
O18 Cd15 2.297 1_556 S
O18 C20 1.247 1_556 S
O19 Cd15 2.439 . S
O19 C20 1.208 . S
C20 O18 1.247 1_554 S
C20 O19 1.208 . S
C21 O26 1.247 . S
C21 O27 1.208 . S
C22 O14 1.315 . S
C22 O17 1.279 1_556 S
C23 O24 1.315 . S
C23 O25 1.279 . S
O24 Cd16 2.223 . S
O24 C23 1.315 . S
O25 Cd15 2.240 . S
O25 C23 1.279 . S
O26 Cd16 2.297 . S
O26 C21 1.247 . S
O27 Cd16 2.439 . S
O27 C21 1.208 . S
O28 Cd29 2.223 . S
O28 C36 1.315 . S
Cd29 O28 2.223 . S
Cd29 O32 2.297 . S
Cd29 O33 2.439 . S
Cd29 O39 2.240 . S
Cd30 O31 2.240 . S
Cd30 O38 2.223 . S
Cd30 O40 2.297 . S
Cd30 O41 2.439 . S
O31 Cd30 2.240 . S
O31 C36 1.279 . S
O32 Cd29 2.297 . S
O32 C34 1.247 . S
O33 Cd29 2.439 . S
O33 C34 1.208 . S
C34 O32 1.247 . S
C34 O33 1.208 . S
C35 O40 1.247 . S
C35 O41 1.208 . S
C36 O28 1.315 . S
C36 O31 1.279 . S
C37 O38 1.315 . S
C37 O39 1.279 . S
O38 Cd30 2.223 . S
O38 C37 1.315 . S
O39 Cd29 2.240 . S
O39 C37 1.279 . S
O40 Cd30 2.297 . S
O40 C35 1.247 . S
O41 Cd30 2.439 . S
O41 C35 1.208 . S
O42 Cd43 2.223 . S
O42 C50 1.315 . S
Cd43 O42 2.223 . S
Cd43 O46 2.297 . S
Cd43 O47 2.439 . S
Cd43 O53 2.240 . S
Cd44 O45 2.240 . S
Cd44 O52 2.223 . S
Cd44 O54 2.297 . S
Cd44 O55 2.439 . S
O45 Cd44 2.240 . S
O45 C50 1.279 . S
O46 Cd43 2.297 . S
O46 C48 1.247 . S
O47 Cd43 2.439 . S
O47 C48 1.208 . S
C48 O46 1.247 . S
C48 O47 1.208 . S
C49 O54 1.247 . S
C49 O55 1.208 . S
C50 O42 1.315 . S
C50 O45 1.279 . S
C51 O52 1.315 . S
C51 O53 1.279 . S
O52 Cd44 2.223 . S
O52 C51 1.315 . S
O53 Cd43 2.240 . S
O53 C51 1.279 . S
O54 Cd44 2.297 . S
O54 C49 1.247 . S
O55 Cd44 2.439 . S
O55 C49 1.208 . S
O56 Cd57 2.223 1_556 S
O56 C64 1.315 . S
Cd57 O56 2.223 1_554 S
Cd57 O60 2.297 1_554 S
Cd57 O61 2.439 . S
Cd57 O67 2.240 . S
Cd58 O59 2.240 . S
Cd58 O66 2.223 . S
Cd58 O68 2.297 . S
Cd58 O69 2.439 . S
O59 Cd58 2.240 . S
O59 C64 1.279 1_554 S
O60 Cd57 2.297 1_556 S
O60 C62 1.247 1_556 S
O61 Cd57 2.439 . S
O61 C62 1.208 . S
C62 O60 1.247 1_554 S
C62 O61 1.208 . S
C63 O68 1.247 . S
C63 O69 1.208 . S
C64 O56 1.315 . S
C64 O59 1.279 1_556 S
C65 O66 1.315 . S
C65 O67 1.279 . S
O66 Cd58 2.223 . S
O66 C65 1.315 . S
O67 Cd57 2.240 . S
O67 C65 1.279 . S
O68 Cd58 2.297 . S
O68 C63 1.247 . S
O69 Cd58 2.439 . S
O69 C63 1.208 . S
O70 Cd71 2.223 1_556 S
O70 C78 1.315 . S
Cd71 O70 2.223 1_554 S
Cd71 O74 2.297 1_554 S
Cd71 O75 2.439 . S
Cd71 O81 2.240 . S
Cd72 O73 2.240 . S
Cd72 O80 2.223 . S
Cd72 O82 2.297 . S
Cd72 O83 2.439 . S
O73 Cd72 2.240 . S
O73 C78 1.279 1_554 S
O74 Cd71 2.297 1_556 S
O74 C76 1.247 1_556 S
O75 Cd71 2.439 . S
O75 C76 1.208 . S
C76 O74 1.247 1_554 S
C76 O75 1.208 . S
C77 O82 1.247 . S
C77 O83 1.208 . S
C78 O70 1.315 . S
C78 O73 1.279 1_556 S
C79 O80 1.315 . S
C79 O81 1.279 . S
O80 Cd72 2.223 . S
O80 C79 1.315 . S
O81 Cd71 2.240 . S
O81 C79 1.279 . S
O82 Cd72 2.297 . S
O82 C77 1.247 . S
O83 Cd72 2.439 . S
O83 C77 1.208 . S
O84 Cd85 2.223 . S
O84 C92 1.315 . S
Cd85 O84 2.223 . S
Cd85 O88 2.297 . S
Cd85 O89 2.439 . S
Cd85 O95 2.240 . S
Cd86 O87 2.240 . S
Cd86 O94 2.223 . S
Cd86 O96 2.297 . S
Cd86 O97 2.439 . S
O87 Cd86 2.240 . S
O87 C92 1.279 . S
O88 Cd85 2.297 . S
O88 C90 1.247 . S
O89 Cd85 2.439 . S
O89 C90 1.208 . S
C90 O88 1.247 . S
C90 O89 1.208 . S
C91 O96 1.247 . S
C91 O97 1.208 . S
C92 O84 1.315 . S
C92 O87 1.279 . S
C93 O94 1.315 . S
C93 O95 1.279 . S
O94 Cd86 2.223 . S
O94 C93 1.315 . S
O95 Cd85 2.240 . S
O95 C93 1.279 . S
O96 Cd86 2.297 . S
O96 C91 1.247 . S
O97 Cd86 2.439 . S
O97 C91 1.208 . S
O98 Cd99 2.223 . S
O98 C106 1.315 . S
Cd99 O98 2.223 . S
Cd99 O102 2.297 . S
Cd99 O103 2.439 . S
Cd99 O109 2.240 . S
Cd100 O101 2.240 . S
Cd100 O108 2.223 . S
Cd100 O110 2.297 . S
Cd100 O111 2.439 . S
O101 Cd100 2.240 . S
O101 C106 1.279 . S
O102 Cd99 2.297 . S
O102 C104 1.247 . S
O103 Cd99 2.439 . S
O103 C104 1.208 . S
C104 O102 1.247 . S
C104 O103 1.208 . S
C105 O110 1.247 . S
C105 O111 1.208 . S
C106 O98 1.315 . S
C106 O101 1.279 . S
C107 O108 1.315 . S
C107 O109 1.279 . S
O108 Cd100 2.223 . S
O108 C107 1.315 . S
O109 Cd99 2.240 . S
O109 C107 1.279 . S
O110 Cd100 2.297 . S
O110 C105 1.247 . S
O111 Cd100 2.439 . S
O111 C105 1.208 . S
H112 C124 0.930 1_556 S
H113 C126 0.930 . S
H114 C127 0.930 . S
H115 C131 0.959 1_554 S
H116 C131 0.959 . S
H117 C131 0.961 . S
H118 C132 0.960 . S
H119 C132 0.961 . S
H120 C132 0.959 . S
H121 C135 0.929 . S
H122 C136 0.931 . S
H123 C138 0.930 1_556 S
C124 H112 0.930 1_554 S
C124 C125 1.399 . S
C124 C129 1.399 . S
C125 C124 1.399 . S
C125 C126 1.376 . S
C126 H113 0.930 . S
C126 C125 1.376 . S
C126 C127 1.388 . S
C127 H114 0.930 . S
C127 C126 1.388 . S
C127 C128 1.390 . S
C128 C127 1.390 . S
C128 C129 1.394 . S
C128 C134 1.465 . S
C129 C124 1.399 . S
C129 C128 1.394 . S
C129 C130 1.516 1_554 S
C130 C129 1.516 1_556 S
C130 C131 1.502 . S
C130 C132 1.561 . S
C130 C133 1.526 1_556 S
C131 H115 0.959 1_556 S
C131 H116 0.959 . S
C131 H117 0.961 . S
C131 C130 1.502 . S
C132 H118 0.960 . S
C132 H119 0.961 . S
C132 H120 0.959 . S
C132 C130 1.561 . S
C133 C130 1.526 1_554 S
C133 C134 1.396 . S
C133 C138 1.390 . S
C134 C128 1.465 . S
C134 C133 1.396 . S
C134 C135 1.399 . S
C135 H121 0.929 . S
C135 C134 1.399 . S
C135 C136 1.385 . S
C136 H122 0.931 . S
C136 C135 1.385 . S
C136 C137 1.389 . S
C137 C136 1.389 . S
C137 C138 1.387 . S
C138 H123 0.930 1_554 S
C138 C133 1.390 . S
C138 C137 1.387 . S
H139 C151 0.930 . S
H140 C153 0.930 . S
H141 C154 0.930 . S
H142 C158 0.959 . S
H143 C158 0.959 . S
H144 C158 0.961 . S
H145 C159 0.960 . S
H146 C159 0.961 . S
H147 C159 0.959 . S
H148 C162 0.929 . S
H149 C163 0.931 . S
H150 C165 0.930 . S
C151 H139 0.930 . S
C151 C152 1.399 . S
C151 C156 1.399 . S
C152 C151 1.399 . S
C152 C153 1.376 1_554 S
C153 H140 0.930 . S
C153 C152 1.376 1_556 S
C153 C154 1.388 . S
C154 H141 0.930 . S
C154 C153 1.388 . S
C154 C155 1.390 1_556 S
C155 C154 1.390 1_554 S
C155 C156 1.394 . S
C155 C161 1.465 . S
C156 C151 1.399 . S
C156 C155 1.394 . S
C156 C157 1.516 . S
C157 C156 1.516 . S
C157 C158 1.502 . S
C157 C159 1.561 . S
C157 C160 1.526 . S
C158 H142 0.959 . S
C158 H143 0.959 . S
C158 H144 0.961 . S
C158 C157 1.502 . S
C159 H145 0.960 . S
C159 H146 0.961 . S
C159 H147 0.959 . S
C159 C157 1.561 . S
C160 C157 1.526 . S
C160 C161 1.396 . S
C160 C165 1.390 . S
C161 C155 1.465 . S
C161 C160 1.396 . S
C161 C162 1.399 1_554 S
C162 H148 0.929 . S
C162 C161 1.399 1_556 S
C162 C163 1.385 . S
C163 H149 0.931 . S
C163 C162 1.385 . S
C163 C164 1.389 1_556 S
C164 C163 1.389 1_554 S
C164 C165 1.387 . S
C165 H150 0.930 . S
C165 C160 1.390 . S
C165 C164 1.387 . S
H166 C178 0.930 . S
H167 C180 0.930 . S
H168 C181 0.930 . S
H169 C185 0.959 . S
H170 C185 0.959 . S
H171 C185 0.961 . S
H172 C186 0.960 . S
H173 C186 0.961 . S
H174 C186 0.959 . S
H175 C189 0.929 . S
H176 C190 0.931 . S
H177 C192 0.930 . S
C178 H166 0.930 . S
C178 C179 1.399 . S
C178 C183 1.399 . S
C179 C178 1.399 . S
C179 C180 1.376 . S
C180 H167 0.930 . S
C180 C179 1.376 . S
C180 C181 1.388 . S
C181 H168 0.930 . S
C181 C180 1.388 . S
C181 C182 1.390 . S
C182 C181 1.390 . S
C182 C183 1.394 . S
C182 C188 1.465 . S
C183 C178 1.399 . S
C183 C182 1.394 . S
C183 C184 1.516 . S
C184 C183 1.516 . S
C184 C185 1.502 . S
C184 C186 1.561 . S
C184 C187 1.526 . S
C185 H169 0.959 . S
C185 H170 0.959 . S
C185 H171 0.961 . S
C185 C184 1.502 . S
C186 H172 0.960 . S
C186 H173 0.961 . S
C186 H174 0.959 . S
C186 C184 1.561 . S
C187 C184 1.526 . S
C187 C188 1.396 . S
C187 C192 1.390 . S
C188 C182 1.465 . S
C188 C187 1.396 . S
C188 C189 1.399 . S
C189 H175 0.929 . S
C189 C188 1.399 . S
C189 C190 1.385 . S
C190 H176 0.931 . S
C190 C189 1.385 . S
C190 C191 1.389 . S
C191 C190 1.389 . S
C191 C192 1.387 . S
C192 H177 0.930 . S
C192 C187 1.390 . S
C192 C191 1.387 . S
H193 C205 0.930 . S
H194 C207 0.930 . S
H195 C208 0.930 . S
H196 C212 0.959 . S
H197 C212 0.959 . S
H198 C212 0.961 . S
H199 C213 0.960 . S
H200 C213 0.961 . S
H201 C213 0.959 . S
H202 C216 0.929 . S
H203 C217 0.931 . S
H204 C219 0.930 . S
C205 H193 0.930 . S
C205 C206 1.399 . S
C205 C210 1.399 . S
C206 C205 1.399 . S
C206 C207 1.376 . S
C207 H194 0.930 . S
C207 C206 1.376 . S
C207 C208 1.388 . S
C208 H195 0.930 . S
C208 C207 1.388 . S
C208 C209 1.390 . S
C209 C208 1.390 . S
C209 C210 1.394 . S
C209 C215 1.465 . S
C210 C205 1.399 . S
C210 C209 1.394 . S
C210 C211 1.516 . S
C211 C210 1.516 . S
C211 C212 1.502 . S
C211 C213 1.561 . S
C211 C214 1.526 . S
C212 H196 0.959 . S
C212 H197 0.959 . S
C212 H198 0.961 . S
C212 C211 1.502 . S
C213 H199 0.960 . S
C213 H200 0.961 . S
C213 H201 0.959 . S
C213 C211 1.561 . S
C214 C211 1.526 . S
C214 C215 1.396 . S
C214 C219 1.390 . S
C215 C209 1.465 . S
C215 C214 1.396 . S
C215 C216 1.399 . S
C216 H202 0.929 . S
C216 C215 1.399 . S
C216 C217 1.385 . S
C217 H203 0.931 . S
C217 C216 1.385 . S
C217 C218 1.389 . S
C218 C217 1.389 . S
C218 C219 1.387 . S
C219 H204 0.930 . S
C219 C214 1.390 . S
C219 C218 1.387 . S
H220 C232 0.930 . S
H221 C234 0.930 . S
H222 C235 0.930 . S
H223 C239 0.959 . S
H224 C239 0.959 . S
H225 C239 0.961 . S
H226 C240 0.960 . S
H227 C240 0.961 . S
H228 C240 0.959 . S
H229 C243 0.929 . S
H230 C244 0.931 . S
H231 C246 0.930 . S
C232 H220 0.930 . S
C232 C233 1.399 . S
C232 C237 1.399 . S
C233 C232 1.399 . S
C233 C234 1.376 . S
C234 H221 0.930 . S
C234 C233 1.376 . S
C234 C235 1.388 . S
C235 H222 0.930 . S
C235 C234 1.388 . S
C235 C236 1.390 . S
C236 C235 1.390 . S
C236 C237 1.394 . S
C236 C242 1.465 . S
C237 C232 1.399 . S
C237 C236 1.394 . S
C237 C238 1.516 . S
C238 C237 1.516 . S
C238 C239 1.502 . S
C238 C240 1.561 . S
C238 C241 1.526 . S
C239 H223 0.959 . S
C239 H224 0.959 . S
C239 H225 0.961 . S
C239 C238 1.502 . S
C240 H226 0.960 . S
C240 H227 0.961 . S
C240 H228 0.959 . S
C240 C238 1.561 . S
C241 C238 1.526 . S
C241 C242 1.396 . S
C241 C246 1.390 . S
C242 C236 1.465 . S
C242 C241 1.396 . S
C242 C243 1.399 . S
C243 H229 0.929 . S
C243 C242 1.399 . S
C243 C244 1.385 . S
C244 H230 0.931 . S
C244 C243 1.385 . S
C244 C245 1.389 . S
C245 C244 1.389 . S
C245 C246 1.387 . S
C246 H231 0.930 . S
C246 C241 1.390 . S
C246 C245 1.387 . S
H247 C259 0.930 . S
H248 C261 0.930 . S
H249 C262 0.930 . S
H250 C266 0.959 . S
H251 C266 0.959 . S
H252 C266 0.961 . S
H253 C267 0.960 . S
H254 C267 0.961 . S
H255 C267 0.959 . S
H256 C270 0.929 . S
H257 C271 0.931 . S
H258 C273 0.930 . S
C259 H247 0.930 . S
C259 C260 1.399 . S
C259 C264 1.399 . S
C260 C259 1.399 . S
C260 C261 1.376 . S
C261 H248 0.930 . S
C261 C260 1.376 . S
C261 C262 1.388 . S
C262 H249 0.930 . S
C262 C261 1.388 . S
C262 C263 1.390 . S
C263 C262 1.390 . S
C263 C264 1.394 . S
C263 C269 1.465 . S
C264 C259 1.399 . S
C264 C263 1.394 . S
C264 C265 1.516 . S
C265 C264 1.516 . S
C265 C266 1.502 . S
C265 C267 1.561 . S
C265 C268 1.526 . S
C266 H250 0.959 . S
C266 H251 0.959 . S
C266 H252 0.961 . S
C266 C265 1.502 . S
C267 H253 0.960 . S
C267 H254 0.961 . S
C267 H255 0.959 . S
C267 C265 1.561 . S
C268 C265 1.526 . S
C268 C269 1.396 . S
C268 C273 1.390 . S
C269 C263 1.465 . S
C269 C268 1.396 . S
C269 C270 1.399 . S
C270 H256 0.929 . S
C270 C269 1.399 . S
C270 C271 1.385 . S
C271 H257 0.931 . S
C271 C270 1.385 . S
C271 C272 1.389 . S
C272 C271 1.389 . S
C272 C273 1.387 . S
C273 H258 0.930 . S
C273 C268 1.390 . S
C273 C272 1.387 . S
H274 C286 0.930 . S
H275 C288 0.930 . S
H276 C289 0.930 . S
H277 C293 0.959 . S
H278 C293 0.959 . S
H279 C293 0.961 . S
H280 C294 0.960 . S
H281 C294 0.961 . S
H282 C294 0.959 . S
H283 C297 0.929 . S
H284 C298 0.931 . S
H285 C300 0.930 . S
C286 H274 0.930 . S
C286 C287 1.399 . S
C286 C291 1.399 . S
C287 C286 1.399 . S
C287 C288 1.376 . S
C288 H275 0.930 . S
C288 C287 1.376 . S
C288 C289 1.388 . S
C289 H276 0.930 . S
C289 C288 1.388 . S
C289 C290 1.390 . S
C290 C289 1.390 . S
C290 C291 1.394 . S
C290 C296 1.465 . S
C291 C286 1.399 . S
C291 C290 1.394 . S
C291 C292 1.516 . S
C292 C291 1.516 . S
C292 C293 1.502 . S
C292 C294 1.561 . S
C292 C295 1.526 . S
C293 H277 0.959 . S
C293 H278 0.959 . S
C293 H279 0.961 . S
C293 C292 1.502 . S
C294 H280 0.960 . S
C294 H281 0.961 . S
C294 H282 0.959 . S
C294 C292 1.561 . S
C295 C292 1.526 . S
C295 C296 1.396 . S
C295 C300 1.390 . S
C296 C290 1.465 . S
C296 C295 1.396 . S
C296 C297 1.399 . S
C297 H283 0.929 . S
C297 C296 1.399 . S
C297 C298 1.385 . S
C298 H284 0.931 . S
C298 C297 1.385 . S
C298 C299 1.389 . S
C299 C298 1.389 . S
C299 C300 1.387 . S
C300 H285 0.930 . S
C300 C295 1.390 . S
C300 C299 1.387 . S
H301 C313 0.930 . S
H302 C315 0.930 . S
H303 C316 0.930 . S
H304 C320 0.959 . S
H305 C320 0.959 . S
H306 C320 0.961 . S
H307 C321 0.960 . S
H308 C321 0.961 . S
H309 C321 0.959 . S
H310 C324 0.929 . S
H311 C325 0.931 . S
H312 C327 0.930 . S
C313 H301 0.930 . S
C313 C314 1.399 . S
C313 C318 1.399 . S
C314 C313 1.399 . S
C314 C315 1.376 . S
C315 H302 0.930 . S
C315 C314 1.376 . S
C315 C316 1.388 . S
C316 H303 0.930 . S
C316 C315 1.388 . S
C316 C317 1.390 . S
C317 C316 1.390 . S
C317 C318 1.394 . S
C317 C323 1.465 . S
C318 C313 1.399 . S
C318 C317 1.394 . S
C318 C319 1.516 . S
C319 C318 1.516 . S
C319 C320 1.502 . S
C319 C321 1.561 . S
C319 C322 1.526 . S
C320 H304 0.959 . S
C320 H305 0.959 . S
C320 H306 0.961 . S
C320 C319 1.502 . S
C321 H307 0.960 . S
C321 H308 0.961 . S
C321 H309 0.959 . S
C321 C319 1.561 . S
C322 C319 1.526 . S
C322 C323 1.396 . S
C322 C327 1.390 . S
C323 C317 1.465 . S
C323 C322 1.396 . S
C323 C324 1.399 . S
C324 H310 0.929 . S
C324 C323 1.399 . S
C324 C325 1.385 . S
C325 H311 0.931 . S
C325 C324 1.385 . S
C325 C326 1.389 . S
C326 C325 1.389 . S
C326 C327 1.387 . S
C327 H312 0.930 . S
C327 C322 1.390 . S
C327 C326 1.387 . S
H328 C340 0.927 1_545 S
H329 C342 0.930 . S
H330 C343 0.930 . S
H331 C347 0.959 . S
H332 C347 0.959 . S
H333 C347 0.961 . S
H334 C348 0.960 . S
H335 C348 0.961 . S
H336 C348 0.959 . S
H337 C351 0.929 . S
H338 C352 0.931 . S
H339 C354 0.930 . S
C340 H328 0.927 1_565 S
C340 C341 1.402 . S
C340 C345 1.398 1_565 S
C341 C340 1.402 . S
C341 C342 1.376 . S
C342 H329 0.930 . S
C342 C341 1.376 . S
C342 C343 1.388 . S
C343 H330 0.930 . S
C343 C342 1.388 . S
C343 C344 1.390 . S
C344 C343 1.390 . S
C344 C345 1.394 1_565 S
C344 C350 1.465 . S
C345 C340 1.398 1_545 S
C345 C344 1.394 1_545 S
C345 C346 1.516 . S
C346 C345 1.516 . S
C346 C347 1.502 . S
C346 C348 1.561 . S
C346 C349 1.526 . S
C347 H331 0.959 . S
C347 H332 0.959 . S
C347 H333 0.961 . S
C347 C346 1.502 . S
C348 H334 0.960 . S
C348 H335 0.961 . S
C348 H336 0.959 . S
C348 C346 1.561 . S
C349 C346 1.526 . S
C349 C350 1.396 1_545 S
C349 C354 1.390 . S
C350 C344 1.465 . S
C350 C349 1.396 1_565 S
C350 C351 1.399 . S
C351 H337 0.929 . S
C351 C350 1.399 . S
C351 C352 1.385 . S
C352 H338 0.931 . S
C352 C351 1.385 . S
C352 C353 1.389 1_565 S
C353 C352 1.389 1_545 S
C353 C354 1.387 . S
C354 H339 0.930 . S
C354 C349 1.390 . S
C354 C353 1.387 . S
H355 C367 0.931 . S
H356 C369 0.930 . S
H357 C370 0.930 . S
H358 C374 0.959 . S
H359 C374 0.959 . S
H360 C374 0.961 . S
H361 C375 0.960 . S
H362 C375 0.961 . S
H363 C375 0.959 . S
H364 C378 0.929 . S
H365 C379 0.931 . S
H366 C381 0.930 . S
C367 H355 0.931 . S
C367 C368 1.398 1_545 S
C367 C372 1.399 . S
C368 C367 1.398 1_565 S
C368 C369 1.376 . S
C369 H356 0.930 . S
C369 C368 1.376 . S
C369 C370 1.388 . S
C370 H357 0.930 . S
C370 C369 1.388 . S
C370 C371 1.390 . S
C371 C370 1.390 . S
C371 C372 1.394 1_565 S
C371 C377 1.465 . S
C372 C367 1.399 . S
C372 C371 1.394 1_545 S
C372 C373 1.516 . S
C373 C372 1.516 . S
C373 C374 1.502 . S
C373 C375 1.561 . S
C373 C376 1.526 . S
C374 H358 0.959 . S
C374 H359 0.959 . S
C374 H360 0.961 . S
C374 C373 1.502 . S
C375 H361 0.960 . S
C375 H362 0.961 . S
C375 H363 0.959 . S
C375 C373 1.561 . S
C376 C373 1.526 . S
C376 C377 1.396 1_545 S
C376 C381 1.390 . S
C377 C371 1.465 . S
C377 C376 1.396 1_565 S
C377 C378 1.399 . S
C378 H364 0.929 . S
C378 C377 1.399 . S
C378 C379 1.385 . S
C379 H365 0.931 . S
C379 C378 1.385 . S
C379 C380 1.389 1_565 S
C380 C379 1.389 1_545 S
C380 C381 1.387 . S
C381 H366 0.930 . S
C381 C376 1.390 . S
C381 C380 1.387 . S
H382 C394 0.930 . S
H383 C396 0.930 1_545 S
H384 C397 0.930 . S
H385 C401 0.959 . S
H386 C401 0.959 . S
H387 C401 0.961 . S
H388 C402 0.960 . S
H389 C402 0.961 . S
H390 C402 0.959 . S
H391 C405 0.929 . S
H392 C406 0.931 . S
H393 C408 0.930 1_565 S
C394 H382 0.930 . S
C394 C395 1.399 . S
C394 C399 1.399 . S
C395 C394 1.399 . S
C395 C396 1.376 . S
C396 H383 0.930 1_565 S
C396 C395 1.376 . S
C396 C397 1.388 1_565 S
C397 H384 0.930 . S
C397 C396 1.388 1_545 S
C397 C398 1.390 . S
C398 C397 1.390 . S
C398 C399 1.394 1_545 S
C398 C404 1.465 . S
C399 C394 1.399 . S
C399 C398 1.394 1_565 S
C399 C400 1.516 . S
C400 C399 1.516 . S
C400 C401 1.502 . S
C400 C402 1.561 . S
C400 C403 1.526 . S
C401 H385 0.959 . S
C401 H386 0.959 . S
C401 H387 0.961 . S
C401 C400 1.502 . S
C402 H388 0.960 . S
C402 H389 0.961 . S
C402 H390 0.959 . S
C402 C400 1.561 . S
C403 C400 1.526 . S
C403 C404 1.396 1_565 S
C403 C408 1.390 1_565 S
C404 C398 1.465 . S
C404 C403 1.396 1_545 S
C404 C405 1.399 . S
C405 H391 0.929 . S
C405 C404 1.399 . S
C405 C406 1.385 . S
C406 H392 0.931 . S
C406 C405 1.385 . S
C406 C407 1.389 . S
C407 C406 1.389 . S
C407 C408 1.387 . S
C408 H393 0.930 1_545 S
C408 C403 1.390 1_545 S
C408 C407 1.387 . S
H409 C421 0.930 1_545 S
H410 C423 0.930 . S
H411 C424 0.930 . S
H412 C428 0.959 . S
H413 C428 0.959 . S
H414 C428 0.961 . S
H415 C429 0.960 . S
H416 C429 0.961 . S
H417 C429 0.959 . S
H418 C432 0.929 . S
H419 C433 0.931 1_565 S
H420 C435 0.930 . S
C421 H409 0.930 1_565 S
C421 C422 1.399 . S
C421 C426 1.399 1_565 S
C422 C421 1.399 . S
C422 C423 1.376 . S
C423 H410 0.930 . S
C423 C422 1.376 . S
C423 C424 1.388 . S
C424 H411 0.930 . S
C424 C423 1.388 . S
C424 C425 1.390 . S
C425 C424 1.390 . S
C425 C426 1.394 1_565 S
C425 C431 1.465 . S
C426 C421 1.399 1_545 S
C426 C425 1.394 1_545 S
C426 C427 1.516 . S
C427 C426 1.516 . S
C427 C428 1.502 . S
C427 C429 1.561 . S
C427 C430 1.526 . S
C428 H412 0.959 . S
C428 H413 0.959 . S
C428 H414 0.961 . S
C428 C427 1.502 . S
C429 H415 0.960 . S
C429 H416 0.961 . S
C429 H417 0.959 . S
C429 C427 1.561 . S
C430 C427 1.526 . S
C430 C431 1.396 1_545 S
C430 C435 1.390 . S
C431 C425 1.465 . S
C431 C430 1.396 1_565 S
C431 C432 1.399 . S
C432 H418 0.929 . S
C432 C431 1.399 . S
C432 C433 1.385 1_565 S
C433 H419 0.931 1_545 S
C433 C432 1.385 1_545 S
C433 C434 1.389 . S
C434 C433 1.389 . S
C434 C435 1.387 . S
C435 H420 0.930 . S
C435 C430 1.390 . S
C435 C434 1.387 . S
H436 C448 0.930 . S
H437 C450 0.930 . S
H438 C451 0.930 . S
H439 C455 0.959 . S
H440 C455 0.959 . S
H441 C455 0.961 . S
H442 C456 0.960 . S
H443 C456 0.961 1_545 S
H444 C456 0.959 . S
H445 C459 0.929 1_565 S
H446 C460 0.931 . S
H447 C462 0.930 . S
C448 H436 0.930 . S
C448 C449 1.399 . S
C448 C453 1.399 . S
C449 C448 1.399 . S
C449 C450 1.376 1_554 S
C450 H437 0.930 . S
C450 C449 1.376 1_556 S
C450 C451 1.388 . S
C451 H438 0.930 . S
C451 C450 1.388 . S
C451 C452 1.390 1_556 S
C452 C451 1.390 1_554 S
C452 C453 1.394 . S
C452 C458 1.465 1_565 S
C453 C448 1.399 . S
C453 C452 1.394 . S
C453 C454 1.516 1_565 S
C454 C453 1.516 1_545 S
C454 C455 1.502 . S
C454 C456 1.561 1_545 S
C454 C457 1.526 . S
C455 H439 0.959 . S
C455 H440 0.959 . S
C455 H441 0.961 . S
C455 C454 1.502 . S
C456 H442 0.960 . S
C456 H443 0.961 1_565 S
C456 H444 0.959 . S
C456 C454 1.561 1_565 S
C457 C454 1.526 . S
C457 C458 1.396 . S
C457 C462 1.390 . S
C458 C452 1.465 1_545 S
C458 C457 1.396 . S
C458 C459 1.399 1_554 S
C459 H445 0.929 1_545 S
C459 C458 1.399 1_556 S
C459 C460 1.385 . S
C460 H446 0.931 . S
C460 C459 1.385 . S
C460 C461 1.389 1_556 S
C461 C460 1.389 1_554 S
C461 C462 1.387 . S
C462 H447 0.930 . S
C462 C457 1.390 . S
C462 C461 1.387 . S
H463 C475 0.930 . S
H464 C477 0.930 . S
H465 C478 0.930 . S
H466 C482 0.959 . S
H467 C482 0.959 . S
H468 C482 0.961 . S
H469 C483 0.960 . S
H470 C483 0.961 . S
H471 C483 0.959 . S
H472 C486 0.929 . S
H473 C487 0.931 . S
H474 C489 0.930 . S
C475 H463 0.930 . S
C475 C476 1.399 . S
C475 C480 1.399 . S
C476 C475 1.399 . S
C476 C477 1.376 . S
C477 H464 0.930 . S
C477 C476 1.376 . S
C477 C478 1.388 1_565 S
C478 H465 0.930 . S
C478 C477 1.388 1_545 S
C478 C479 1.390 . S
C479 C478 1.390 . S
C479 C480 1.394 1_545 S
C479 C485 1.465 . S
C480 C475 1.399 . S
C480 C479 1.394 1_565 S
C480 C481 1.516 . S
C481 C480 1.516 . S
C481 C482 1.502 . S
C481 C483 1.561 . S
C481 C484 1.526 1_565 S
C482 H466 0.959 . S
C482 H467 0.959 . S
C482 H468 0.961 . S
C482 C481 1.502 . S
C483 H469 0.960 . S
C483 H470 0.961 . S
C483 H471 0.959 . S
C483 C481 1.561 . S
C484 C481 1.526 1_545 S
C484 C485 1.396 . S
C484 C489 1.390 . S
C485 C479 1.465 . S
C485 C484 1.396 . S
C485 C486 1.399 . S
C486 H472 0.929 . S
C486 C485 1.399 . S
C486 C487 1.385 . S
C487 H473 0.931 . S
C487 C486 1.385 . S
C487 C488 1.389 . S
C488 C487 1.389 . S
C488 C489 1.387 . S
C489 H474 0.930 . S
C489 C484 1.390 . S
C489 C488 1.387 . S
H490 C502 0.930 . S
H491 C504 0.930 . S
H492 C505 0.930 . S
H493 C509 0.959 . S
H494 C509 0.959 . S
H495 C509 0.961 . S
H496 C510 0.961 . S
H497 C510 0.961 1_554 S
H498 C510 0.959 . S
H499 C513 0.929 1_455 S
H500 C514 0.931 . S
H501 C516 0.930 . S
C502 H490 0.930 . S
C502 C503 1.399 . S
C502 C507 1.399 . S
C503 C502 1.399 . S
C503 C504 1.376 . S
C504 H491 0.930 . S
C504 C503 1.376 . S
C504 C505 1.388 . S
C505 H492 0.930 . S
C505 C504 1.388 . S
C505 C506 1.390 . S
C506 C505 1.390 . S
C506 C507 1.394 . S
C506 C512 1.465 1_455 S
C507 C502 1.399 . S
C507 C506 1.394 . S
C507 C508 1.516 1_455 S
C508 C507 1.516 1_655 S
C508 C509 1.502 . S
C508 C510 1.561 1_554 S
C508 C511 1.526 . S
C509 H493 0.959 . S
C509 H494 0.959 . S
C509 H495 0.961 . S
C509 C508 1.502 . S
C510 H496 0.961 . S
C510 H497 0.961 1_556 S
C510 H498 0.959 . S
C510 C508 1.561 1_556 S
C511 C508 1.526 . S
C511 C512 1.396 . S
C511 C516 1.390 . S
C512 C506 1.465 1_655 S
C512 C511 1.396 . S
C512 C513 1.399 . S
C513 H499 0.929 1_655 S
C513 C512 1.399 . S
C513 C514 1.385 . S
C514 H500 0.931 . S
C514 C513 1.385 . S
C514 C515 1.389 . S
C515 C514 1.389 . S
C515 C516 1.387 . S
C516 H501 0.930 . S
C516 C511 1.390 . S
C516 C515 1.387 . S
H517 C529 0.930 . S
H518 C531 0.930 . S
H519 C532 0.930 . S
H520 C536 0.959 . S
H521 C536 0.959 . S
H522 C536 0.961 . S
H523 C537 0.960 . S
H524 C537 0.961 1_655 S
H525 C537 0.959 . S
H526 C540 0.929 . S
H527 C541 0.931 . S
H528 C543 0.930 . S
C529 H517 0.930 . S
C529 C530 1.399 . S
C529 C534 1.399 . S
C530 C529 1.399 . S
C530 C531 1.376 . S
C531 H518 0.930 . S
C531 C530 1.376 . S
C531 C532 1.388 . S
C532 H519 0.930 . S
C532 C531 1.388 . S
C532 C533 1.390 . S
C533 C532 1.390 . S
C533 C534 1.394 . S
C533 C539 1.465 1_455 S
C534 C529 1.399 . S
C534 C533 1.394 . S
C534 C535 1.516 1_455 S
C535 C534 1.516 1_655 S
C535 C536 1.502 . S
C535 C537 1.561 1_655 S
C535 C538 1.526 . S
C536 H520 0.959 . S
C536 H521 0.959 . S
C536 H522 0.961 . S
C536 C535 1.502 . S
C537 H523 0.960 . S
C537 H524 0.961 1_455 S
C537 H525 0.959 . S
C537 C535 1.561 1_455 S
C538 C535 1.526 . S
C538 C539 1.396 . S
C538 C543 1.390 . S
C539 C533 1.465 1_655 S
C539 C538 1.396 . S
C539 C540 1.399 . S
C540 H526 0.929 . S
C540 C539 1.399 . S
C540 C541 1.385 . S
C541 H527 0.931 . S
C541 C540 1.385 . S
C541 C542 1.389 . S
C542 C541 1.389 . S
C542 C543 1.387 . S
C543 H528 0.930 . S
C543 C538 1.390 . S
C543 C542 1.387 . S
C125 C79 1.456 . S
C137 C9 1.484 . S
C152 C65 1.510 . S
C164 C23 1.488 . S
C179 C107 1.458 . S
C191 C37 1.473 . S
C206 C93 1.457 . S
C218 C51 1.476 . S
C233 C7 1.490 . S
C245 C35 1.523 . S
C260 C21 1.531 . S
C272 C49 1.488 . S
C287 C22 1.523 . S
C299 C50 1.551 . S
C314 C8 1.516 . S
C326 C36 1.549 . S
C341 C63 1.529 . S
C353 C91 1.495 . S
C368 C105 1.529 . S
C380 C77 1.494 . S
C395 C106 1.543 . S
C407 C78 1.516 . S
C422 C64 1.524 . S
C434 C92 1.551 . S
C449 C20 1.524 . S
C461 C6 1.494 . S
C476 C34 1.486 . S
C488 C48 1.534 . S
C503 C62 1.488 . S
C515 C76 1.530 . S
C530 C90 1.496 . S
C542 C104 1.528 . S
