# Generated by pormake.
# Topology unm, (4)-cn, num edge types: 1
# Building blocks:
#     Node 0, Type 0, BuildingBlock: ICAMEG_clean_sbu_1, # of connection points: 4
#     Node 1, Type 0, BuildingBlock: ICAMEG_clean_sbu_1, # of connection points: 4
#     Node 2, Type 0, BuildingBlock: ICAMEG_clean_sbu_1, # of connection points: 4
#     Node 3, Type 0, BuildingBlock: ICAMEG_clean_sbu_1, # of connection points: 4
#     Node 4, Type 0, BuildingBlock: ICAMEG_clean_sbu_1, # of connection points: 4
#     Node 5, Type 0, BuildingBlock: ICAMEG_clean_sbu_1, # of connection points: 4
#     Node 6, Type 0, BuildingBlock: ICAMEG_clean_sbu_1, # of connection points: 4
#     Node 7, Type 0, BuildingBlock: ICAMEG_clean_sbu_1, # of connection points: 4
#     Edge 8, Type (0, 0), BuildingBlock: XIVTED_clean_linker_0, # of connection points: 2
#     Edge 9, Type (0, 0), BuildingBlock: XIVTED_clean_linker_0, # of connection points: 2
#     Edge 10, Type (0, 0), BuildingBlock: XIVTED_clean_linker_0, # of connection points: 2
#     Edge 11, Type (0, 0), BuildingBlock: XIVTED_clean_linker_0, # of connection points: 2
#     Edge 12, Type (0, 0), BuildingBlock: XIVTED_clean_linker_0, # of connection points: 2
#     Edge 13, Type (0, 0), BuildingBlock: XIVTED_clean_linker_0, # of connection points: 2
#     Edge 14, Type (0, 0), BuildingBlock: XIVTED_clean_linker_0, # of connection points: 2
#     Edge 15, Type (0, 0), BuildingBlock: XIVTED_clean_linker_0, # of connection points: 2
#     Edge 16, Type (0, 0), BuildingBlock: XIVTED_clean_linker_0, # of connection points: 2
#     Edge 17, Type (0, 0), BuildingBlock: XIVTED_clean_linker_0, # of connection points: 2
#     Edge 18, Type (0, 0), BuildingBlock: XIVTED_clean_linker_0, # of connection points: 2
#     Edge 19, Type (0, 0), BuildingBlock: XIVTED_clean_linker_0, # of connection points: 2
#     Edge 20, Type (0, 0), BuildingBlock: XIVTED_clean_linker_0, # of connection points: 2
#     Edge 21, Type (0, 0), BuildingBlock: XIVTED_clean_linker_0, # of connection points: 2
#     Edge 22, Type (0, 0), BuildingBlock: XIVTED_clean_linker_0, # of connection points: 2
#     Edge 23, Type (0, 0), BuildingBlock: XIVTED_clean_linker_0, # of connection points: 2
# Relax obj value: 0.084
# Max RMSD: 0.086
# Mean RMSD: 0.086
data_MOF--net-unm--node1-ICAMEG_clean_sbu_1--edge1-XIVTED_clean_linker_0
_symmetry_space_group_name_H-M    P1
_symmetry_Int_Tables_number       1
_symmetry_cell_setting            triclinic
loop_
_symmetry_equiv_pos_as_xyz
'x, y, z'
_cell_length_a     25.387152
_cell_length_b     25.391341
_cell_length_c     50.854108
_cell_angle_alpha  89.991009
_cell_angle_beta   89.971084
_cell_angle_gamma 90.002664
loop_
_atom_site_label
_atom_site_type_symbol
_atom_site_fract_x
_atom_site_fract_y
_atom_site_fract_z
_atom_type_partial_charge
Co0 Co 0.19512 0.26814 0.14532 0.0
Co1 Co 0.247 0.3691 0.18307 0.0
O2 O 0.25386 0.30995 0.15862 0.0
C3 C 0.24691 0.3057 0.0963 0.0
O4 O 0.25138 0.35263 0.10691 0.0
C5 C 0.32407 0.29608 0.20795 0.0
O6 O 0.29296 0.25678 0.20165 0.0
O7 O 0.19833 0.32859 0.20679 0.0
O8 O 0.16168 0.26729 0.18064 0.0
H9 H 0.14925 0.49885 0.23962 0.0
H10 H 0.30469 0.23248 0.13597 0.0
O11 O 0.22672 0.26789 0.10931 0.0
H12 H 0.22076 0.08972 0.18669 0.0
H13 H 0.11274 0.12371 0.09136 0.0
H14 H 0.07924 0.2702 0.15279 0.0
H15 H 0.17004 0.16848 0.17382 0.0
H16 H 0.18636 0.17644 0.1089 0.0
O17 O 0.31021 0.34331 0.20304 0.0
H18 H 0.15774 0.4246 0.20866 0.0
H19 H 0.32427 0.44041 0.2093 0.0
H20 H 0.00451 0.21819 0.13591 0.0
H21 H 0.35675 0.15411 0.14811 0.0
H22 H 0.02104 0.14436 0.10494 0.0
H23 H 0.31484 0.08219 0.1738 0.0
O24 O 0.1543 0.33288 0.13631 0.0
H25 H 0.40777 0.39708 0.127 0.0
H26 H 0.24356 0.47699 0.16 0.0
H27 H 0.30076 0.52785 0.13013 0.0
H28 H 0.38362 0.48792 0.11347 0.0
H29 H 0.34915 0.34745 0.15668 0.0
H30 H 0.31762 0.51457 0.24044 0.0
H31 H 0.22961 0.54433 0.25577 0.0
O32 O 0.1847 0.39611 0.16336 0.0
C33 C 0.16551 0.29135 0.20253 0.0
C34 C 0.18783 0.48624 0.2331 0.0
C35 C 0.28232 0.49501 0.23358 0.0
N36 N 0.24142 0.42806 0.20722 0.0
C37 C 0.19287 0.44423 0.21555 0.0
C38 C 0.28585 0.45283 0.21603 0.0
C39 C 0.23292 0.51172 0.24216 0.0
C40 C 0.28604 0.20107 0.1469 0.0
N41 N 0.2344 0.20506 0.15422 0.0
C42 C 0.31577 0.1569 0.15381 0.0
C43 C 0.29225 0.1166 0.16826 0.0
C44 C 0.23948 0.12083 0.17553 0.0
C45 C 0.21101 0.16561 0.16829 0.0
C46 C 0.10503 0.15576 0.10485 0.0
C47 C 0.08679 0.23797 0.13942 0.0
C48 C 0.14655 0.18586 0.11478 0.0
N49 N 0.13713 0.22625 0.13192 0.0
C50 C 0.0443 0.20874 0.12988 0.0
C51 C 0.0536 0.16735 0.11249 0.0
C52 C 0.15303 0.3795 0.14573 0.0
C53 C 0.37183 0.41496 0.13418 0.0
C54 C 0.27939 0.45926 0.15274 0.0
C55 C 0.31172 0.4883 0.13589 0.0
C56 C 0.35823 0.4659 0.12656 0.0
N57 N 0.29304 0.40936 0.16016 0.0
C58 C 0.33857 0.38712 0.15108 0.0
Co59 Co 0.2353 0.69303 0.64553 0.0
Co60 Co 0.13761 0.74715 0.68475 0.0
O61 O 0.19535 0.75266 0.65935 0.0
C62 C 0.19538 0.74538 0.59705 0.0
O63 O 0.14957 0.75202 0.60858 0.0
C64 C 0.21396 0.82256 0.70851 0.0
O65 O 0.25226 0.79085 0.70145 0.0
O66 O 0.17834 0.69728 0.70774 0.0
O67 O 0.23833 0.6603 0.68094 0.0
H68 H 0.00941 0.65204 0.74328 0.0
H69 H 0.27173 0.80191 0.63503 0.0
O70 O 0.23337 0.72388 0.60937 0.0
H71 H 0.41702 0.71695 0.68341 0.0
H72 H 0.37449 0.60767 0.58926 0.0
H73 H 0.23251 0.57737 0.65373 0.0
H74 H 0.33667 0.66709 0.67227 0.0
H75 H 0.32404 0.68231 0.6074 0.0
O76 O 0.16618 0.80954 0.70442 0.0
H77 H 0.0817 0.65906 0.71106 0.0
H78 H 0.06989 0.82589 0.71231 0.0
H79 H 0.28228 0.50165 0.63627 0.0
H80 H 0.35164 0.85311 0.64547 0.0
H81 H 0.35382 0.51656 0.60377 0.0
H82 H 0.42486 0.81067 0.66997 0.0
O83 O 0.16933 0.65292 0.63791 0.0
H84 H 0.11044 0.90884 0.62928 0.0
H85 H 0.02799 0.74718 0.66378 0.0
H86 H 0.97673 0.80592 0.63487 0.0
H87 H 0.01795 0.88751 0.61746 0.0
H88 H 0.16041 0.84868 0.65801 0.0
H89 H 0.99775 0.8207 0.74471 0.0
H90 H 0.96698 0.73329 0.76038 0.0
O91 O 0.10776 0.68587 0.66526 0.0
C92 C 0.21526 0.66431 0.70308 0.0
C93 C 0.02246 0.69037 0.73662 0.0
C94 C 0.01598 0.78502 0.73744 0.0
N95 N 0.0801 0.7428 0.70984 0.0
C96 C 0.06336 0.69458 0.71834 0.0
C97 C 0.057 0.78771 0.71917 0.0
C98 C 0.99869 0.73596 0.74621 0.0
C99 C 0.30368 0.78303 0.64544 0.0
N100 N 0.29954 0.73158 0.65305 0.0
C101 C 0.34873 0.81227 0.6514 0.0
C102 C 0.38976 0.78846 0.66518 0.0
C103 C 0.38536 0.73589 0.67275 0.0
C104 C 0.33969 0.70791 0.66649 0.0
C105 C 0.3434 0.60066 0.60341 0.0
C106 C 0.26372 0.58421 0.63967 0.0
C107 C 0.31458 0.64276 0.61368 0.0
N108 N 0.27541 0.63422 0.63164 0.0
C109 C 0.2917 0.54116 0.62982 0.0
C110 C 0.33181 0.54956 0.61157 0.0
C111 C 0.12296 0.65336 0.64769 0.0
C112 C 0.09202 0.87345 0.63677 0.0
C113 C 0.04629 0.7824 0.65615 0.0
C114 C 0.01702 0.81563 0.63986 0.0
C115 C 0.04015 0.86142 0.63012 0.0
N116 N 0.09712 0.79446 0.66261 0.0
C117 C 0.12006 0.83931 0.65314 0.0
Co118 Co 0.81487 0.73897 0.14507 0.0
Co119 Co 0.76064 0.64148 0.18441 0.0
O120 O 0.75513 0.69938 0.1591 0.0
C121 C 0.76192 0.69871 0.09691 0.0
O122 O 0.75478 0.65333 0.10876 0.0
C123 C 0.68557 0.71804 0.20845 0.0
O124 O 0.71677 0.75646 0.20099 0.0
O125 O 0.81118 0.68182 0.20721 0.0
O126 O 0.84785 0.74206 0.18043 0.0
H127 H 0.85594 0.51242 0.24232 0.0
H128 H 0.70611 0.77587 0.13469 0.0
O129 O 0.7838 0.73684 0.10897 0.0
H130 H 0.79209 0.92101 0.18273 0.0
H131 H 0.90048 0.87732 0.08839 0.0
H132 H 0.93057 0.73566 0.15301 0.0
H133 H 0.84145 0.84031 0.17166 0.0
H134 H 0.82572 0.82733 0.10676 0.0
O135 O 0.69879 0.67029 0.20444 0.0
H136 H 0.84882 0.58504 0.2103 0.0
H137 H 0.68193 0.574 0.21217 0.0
H138 H 0.00642 0.78497 0.13533 0.0
H139 H 0.65539 0.85613 0.14506 0.0
H140 H 0.99161 0.85635 0.10275 0.0
H141 H 0.69835 0.92928 0.16938 0.0
O142 O 0.85461 0.67283 0.1374 0.0
H143 H 0.59781 0.61583 0.12962 0.0
H144 H 0.75941 0.53196 0.16329 0.0
H145 H 0.69981 0.48134 0.13454 0.0
H146 H 0.61825 0.52328 0.11755 0.0
H147 H 0.65881 0.66516 0.15818 0.0
H148 H 0.68722 0.50157 0.24437 0.0
H149 H 0.77471 0.47023 0.25963 0.0
O150 O 0.82132 0.61124 0.1646 0.0
C151 C 0.84408 0.7188 0.20253 0.0
C152 C 0.81758 0.52573 0.23583 0.0
C153 C 0.7229 0.51969 0.23701 0.0
N154 N 0.76504 0.58383 0.20939 0.0
C155 C 0.81331 0.5668 0.21768 0.0
C156 C 0.72015 0.56089 0.21885 0.0
C157 C 0.772 0.50209 0.24554 0.0
C158 C 0.72521 0.80778 0.14503 0.0
N159 N 0.77667 0.80342 0.15258 0.0
C160 C 0.69624 0.85303 0.15094 0.0
C161 C 0.72034 0.89402 0.16462 0.0
C162 C 0.77292 0.88938 0.17215 0.0
C163 C 0.80062 0.84352 0.16592 0.0
C164 C 0.90745 0.84632 0.10258 0.0
C165 C 0.92378 0.76682 0.13893 0.0
C166 C 0.86528 0.81777 0.11299 0.0
N167 N 0.87376 0.7787 0.13099 0.0
C168 C 0.9669 0.79454 0.12895 0.0
C169 C 0.95856 0.83455 0.11066 0.0
C170 C 0.85381 0.62635 0.147 0.0
C171 C 0.63318 0.5971 0.13694 0.0
C172 C 0.7242 0.55057 0.15584 0.0
C173 C 0.69048 0.52166 0.13965 0.0
C174 C 0.64471 0.54519 0.13014 0.0
N175 N 0.71263 0.60145 0.16244 0.0
C176 C 0.66779 0.62477 0.1532 0.0
Co177 Co 0.76651 0.30919 0.64583 0.0
Co178 Co 0.86608 0.25725 0.68446 0.0
O179 O 0.80806 0.25045 0.65933 0.0
C180 C 0.80649 0.25825 0.5971 0.0
O181 O 0.85268 0.25295 0.6084 0.0
C182 C 0.7924 0.17932 0.70825 0.0
O183 O 0.75321 0.21037 0.7017 0.0
O184 O 0.82418 0.30516 0.70792 0.0
O185 O 0.76398 0.34204 0.68125 0.0
H186 H 0.99246 0.3547 0.74295 0.0
H187 H 0.73179 0.19969 0.63557 0.0
O188 O 0.76804 0.27836 0.60967 0.0
H189 H 0.58653 0.28177 0.68526 0.0
H190 H 0.62397 0.39177 0.59069 0.0
H191 H 0.76773 0.42493 0.65374 0.0
H192 H 0.66557 0.33314 0.67348 0.0
H193 H 0.6763 0.31811 0.6085 0.0
O194 O 0.83977 0.1935 0.70386 0.0
H195 H 0.91973 0.34635 0.7111 0.0
H196 H 0.93671 0.17995 0.71111 0.0
H197 H 0.7161 0.49969 0.63659 0.0
H198 H 0.65318 0.14699 0.64663 0.0
H199 H 0.64364 0.48333 0.60482 0.0
H200 H 0.57999 0.18798 0.67179 0.0
O201 O 0.8314 0.35044 0.63766 0.0
H202 H 0.89777 0.0976 0.62814 0.0
H203 H 0.97492 0.26191 0.66254 0.0
H204 H 0.02754 0.20556 0.63305 0.0
H205 H 0.989 0.12265 0.61568 0.0
H206 H 0.84637 0.15537 0.65747 0.0
H207 H 0.00937 0.18647 0.74312 0.0
H208 H 0.03776 0.27434 0.75923 0.0
O209 O 0.89362 0.32013 0.66531 0.0
C210 C 0.78705 0.33796 0.70338 0.0
C211 C 0.98045 0.31618 0.73609 0.0
C212 C 0.98988 0.22176 0.73622 0.0
N213 N 0.92388 0.26273 0.70928 0.0
C214 C 0.93931 0.31121 0.71803 0.0
C215 C 0.94856 0.21831 0.71817 0.0
C216 C 0.00583 0.27108 0.74522 0.0
C217 C 0.69984 0.21794 0.64627 0.0
N218 N 0.70326 0.26943 0.65389 0.0
C219 C 0.65553 0.18785 0.65257 0.0
C220 C 0.61451 0.21085 0.66672 0.0
C221 C 0.61819 0.26345 0.67431 0.0
C222 C 0.66312 0.2923 0.66769 0.0
C223 C 0.65541 0.3994 0.60454 0.0
C224 C 0.73608 0.41746 0.64002 0.0
C225 C 0.68527 0.35787 0.61464 0.0
N226 N 0.7249 0.36719 0.63222 0.0
C227 C 0.70706 0.45996 0.63033 0.0
C228 C 0.66645 0.45076 0.61249 0.0
C229 C 0.87757 0.35193 0.64759 0.0
C230 C 0.91504 0.13356 0.63563 0.0
C231 C 0.95779 0.22605 0.65497 0.0
C232 C 0.98783 0.1942 0.63834 0.0
C233 C 0.9662 0.14767 0.62862 0.0
N234 N 0.90768 0.21189 0.66181 0.0
C235 C 0.88619 0.16634 0.65234 0.0
Co236 Co 0.69241 0.24312 0.35584 0.0
Co237 Co 0.74792 0.14571 0.31695 0.0
O238 O 0.75259 0.20352 0.34232 0.0
C239 C 0.74366 0.20301 0.4045 0.0
O240 O 0.75084 0.15742 0.39286 0.0
C241 C 0.82374 0.22222 0.29339 0.0
O242 O 0.79224 0.26067 0.30048 0.0
O243 O 0.69829 0.18616 0.29373 0.0
O244 O 0.66053 0.24612 0.32026 0.0
H245 H 0.65449 0.01709 0.25806 0.0
H246 H 0.80083 0.28006 0.36706 0.0
O247 O 0.72236 0.2411 0.39217 0.0
H248 H 0.71645 0.42505 0.3182 0.0
H249 H 0.60512 0.38161 0.41177 0.0
H250 H 0.57695 0.23988 0.34699 0.0
H251 H 0.66672 0.3444 0.32895 0.0
H252 H 0.6804 0.33158 0.394 0.0
O253 O 0.8105 0.1745 0.29747 0.0
H254 H 0.66058 0.08948 0.29025 0.0
H255 H 0.8275 0.07821 0.28984 0.0
H256 H 0.50058 0.28923 0.36407 0.0
H257 H 0.85188 0.36029 0.35704 0.0
H258 H 0.51443 0.36065 0.39673 0.0
H259 H 0.80974 0.43336 0.3323 0.0
O260 O 0.65236 0.17698 0.36321 0.0
H261 H 0.90873 0.11969 0.37315 0.0
H262 H 0.74826 0.03612 0.33798 0.0
H263 H 0.80677 0.98532 0.36721 0.0
H264 H 0.88777 0.02711 0.38496 0.0
H265 H 0.8488 0.16919 0.34409 0.0
H266 H 0.82323 0.00598 0.25749 0.0
H267 H 0.73625 0.97488 0.24142 0.0
O268 O 0.68646 0.1155 0.33619 0.0
C269 C 0.66509 0.22299 0.29817 0.0
C270 C 0.69263 0.03029 0.26491 0.0
C271 C 0.78734 0.02411 0.26456 0.0
N272 N 0.74432 0.08815 0.29189 0.0
C273 C 0.69632 0.07123 0.28316 0.0
C274 C 0.78951 0.06519 0.2828 0.0
C275 C 0.73852 0.00664 0.25557 0.0
C276 C 0.78207 0.31194 0.35655 0.0
N277 N 0.73086 0.30756 0.34859 0.0
C278 C 0.81123 0.35717 0.35083 0.0
C279 C 0.78759 0.39812 0.33691 0.0
C280 C 0.73527 0.39346 0.32897 0.0
C281 C 0.70735 0.34762 0.33501 0.0
C282 C 0.59857 0.35059 0.39754 0.0
C283 C 0.58332 0.27105 0.36111 0.0
C284 C 0.64104 0.32201 0.38748 0.0
N285 N 0.63309 0.28291 0.36943 0.0
C286 C 0.53991 0.29879 0.37075 0.0
C287 C 0.54771 0.33883 0.38909 0.0
C288 C 0.65338 0.13056 0.35353 0.0
C289 C 0.8736 0.10102 0.36551 0.0
C290 C 0.78321 0.05467 0.34577 0.0
C291 C 0.81632 0.02565 0.36223 0.0
C292 C 0.86178 0.0491 0.37215 0.0
N293 N 0.79507 0.10555 0.33931 0.0
C294 C 0.8396 0.1288 0.34897 0.0
Co295 Co 0.26786 0.19179 0.85587 0.0
Co296 Co 0.36476 0.24705 0.8165 0.0
O297 O 0.30737 0.25186 0.84214 0.0
C298 C 0.30921 0.24327 0.90421 0.0
O299 O 0.35414 0.25143 0.89209 0.0
C300 C 0.28769 0.32263 0.79326 0.0
O301 O 0.24945 0.29115 0.80066 0.0
O302 O 0.32399 0.19716 0.79354 0.0
O303 O 0.26383 0.16015 0.82025 0.0
H304 H 0.49268 0.15342 0.75724 0.0
H305 H 0.23165 0.30027 0.86748 0.0
O306 O 0.27094 0.22145 0.89225 0.0
H307 H 0.08509 0.21673 0.81945 0.0
H308 H 0.13039 0.10469 0.91253 0.0
H309 H 0.27043 0.0764 0.8468 0.0
H310 H 0.16582 0.16663 0.82959 0.0
H311 H 0.18036 0.17988 0.89462 0.0
O312 O 0.33554 0.30945 0.79704 0.0
H313 H 0.42075 0.15962 0.78971 0.0
H314 H 0.43168 0.32652 0.78895 0.0
H315 H 0.22112 1.00015 0.86402 0.0
H316 H 0.15137 0.35168 0.85806 0.0
H317 H 0.15054 0.01405 0.89716 0.0
H318 H 0.0775 0.30996 0.83375 0.0
O319 O 0.33402 0.1515 0.86277 0.0
H320 H 0.39166 0.40841 0.8722 0.0
H321 H 0.47464 0.24753 0.83714 0.0
H322 H 0.52588 0.30631 0.86603 0.0
H323 H 0.4844 0.38751 0.88373 0.0
H324 H 0.34171 0.34822 0.84349 0.0
H325 H 0.50344 0.32215 0.75632 0.0
H326 H 0.53448 0.23512 0.74027 0.0
O327 O 0.39535 0.18577 0.83571 0.0
C328 C 0.28684 0.16438 0.79811 0.0
C329 C 0.4795 0.19158 0.76407 0.0
C330 C 0.48548 0.28627 0.76352 0.0
N331 N 0.42193 0.24335 0.79119 0.0
C332 C 0.43881 0.19533 0.78248 0.0
C333 C 0.44467 0.2885 0.78193 0.0
C334 C 0.50292 0.23743 0.75455 0.0
C335 C 0.19942 0.28169 0.85715 0.0
N336 N 0.2034 0.23051 0.8491 0.0
C337 C 0.15417 0.31106 0.85177 0.0
C338 C 0.11277 0.28765 0.83809 0.0
C339 C 0.11702 0.23536 0.83004 0.0
C340 C 0.1629 0.20724 0.83574 0.0
C341 C 0.16103 0.09812 0.8981 0.0
C342 C 0.23962 0.08281 0.86113 0.0
C343 C 0.18957 0.14053 0.88794 0.0
N344 N 0.22818 0.13256 0.86962 0.0
C345 C 0.2119 0.03946 0.87085 0.0
C346 C 0.17234 0.04728 0.88945 0.0
C347 C 0.38038 0.15258 0.85301 0.0
C348 C 0.4102 0.3732 0.86458 0.0
C349 C 0.45623 0.28258 0.8449 0.0
C350 C 0.48549 0.31584 0.86117 0.0
C351 C 0.46221 0.36142 0.87107 0.0
N352 N 0.40526 0.29441 0.8386 0.0
C353 C 0.38217 0.33905 0.84822 0.0
Co354 Co 0.31467 0.76883 0.35659 0.0
Co355 Co 0.2613 0.8665 0.31721 0.0
O356 O 0.25527 0.80892 0.34268 0.0
C357 C 0.26194 0.80795 0.40518 0.0
O358 O 0.25548 0.85405 0.39393 0.0
C359 C 0.18518 0.79089 0.29346 0.0
O360 O 0.21699 0.75246 0.30024 0.0
O361 O 0.31028 0.825 0.2941 0.0
O362 O 0.34806 0.76629 0.32129 0.0
H363 H 0.35713 0.99334 0.25822 0.0
H364 H 0.20565 0.73217 0.36647 0.0
O365 O 0.28328 0.77016 0.39264 0.0
H366 H 0.2918 0.58741 0.3182 0.0
H367 H 0.39956 0.62913 0.41269 0.0
H368 H 0.43048 0.77245 0.34907 0.0
H369 H 0.3413 0.66774 0.32974 0.0
H370 H 0.32502 0.67941 0.39434 0.0
O371 O 0.19824 0.83858 0.29778 0.0
H372 H 0.34973 0.92129 0.29053 0.0
H373 H 0.18302 0.93503 0.2899 0.0
H374 H 0.50612 0.72287 0.36674 0.0
H375 H 0.15477 0.65228 0.35564 0.0
H376 H 0.49089 0.65065 0.39882 0.0
H377 H 0.19782 0.57932 0.33119 0.0
O378 O 0.3544 0.83474 0.36459 0.0
H379 H 0.10036 0.89651 0.37289 0.0
H380 H 0.26371 0.97586 0.33849 0.0
H381 H 0.206 0.02811 0.36748 0.0
H382 H 0.12356 0.98847 0.38485 0.0
H383 H 0.15947 0.84552 0.34404 0.0
H384 H 0.18858 0.00697 0.25743 0.0
H385 H 0.27612 0.03665 0.2414 0.0
O386 O 0.32346 0.8956 0.33635 0.0
C387 C 0.34373 0.78865 0.29899 0.0
C388 C 0.31875 0.98075 0.26504 0.0
C389 C 0.22415 0.98835 0.26457 0.0
N390 N 0.26602 0.92383 0.29206 0.0
C391 C 0.31432 0.93999 0.28336 0.0
C392 C 0.22125 0.94743 0.28289 0.0
C393 C 0.27329 0.00502 0.2556 0.0
C394 C 0.22477 0.70035 0.35607 0.0
N395 N 0.27636 0.70463 0.34871 0.0
C396 C 0.19572 0.6553 0.3499 0.0
C397 C 0.21987 0.61442 0.33615 0.0
C398 C 0.27258 0.61896 0.32882 0.0
C399 C 0.30037 0.66463 0.3353 0.0
C400 C 0.4067 0.66049 0.39872 0.0
C401 C 0.4235 0.7409 0.36291 0.0
C402 C 0.36466 0.6892 0.38832 0.0
N403 N 0.37337 0.72873 0.37059 0.0
C404 C 0.46651 0.71304 0.3729 0.0
C405 C 0.45793 0.67257 0.39091 0.0
C406 C 0.35524 0.88065 0.35431 0.0
C407 C 0.1361 0.91427 0.3654 0.0
C408 C 0.22806 0.95825 0.34606 0.0
C409 C 0.19544 0.98808 0.36241 0.0
C410 C 0.14918 0.96583 0.37213 0.0
N411 N 0.21492 0.90774 0.33949 0.0
C412 C 0.16964 0.88564 0.34897 0.0
Co413 Co 0.73888 0.81006 0.8555 0.0
Co414 Co 0.63926 0.75718 0.81721 0.0
O415 O 0.69752 0.75093 0.84224 0.0
C416 C 0.70001 0.75944 0.90461 0.0
O417 O 0.65348 0.75403 0.89368 0.0
C418 C 0.71289 0.67911 0.79345 0.0
O419 O 0.75216 0.71012 0.79993 0.0
O420 O 0.68078 0.80498 0.79349 0.0
O421 O 0.74085 0.84256 0.82 0.0
H422 H 0.51201 0.85347 0.75869 0.0
H423 H 0.77434 0.70083 0.86587 0.0
O424 O 0.73805 0.77952 0.89172 0.0
H425 H 0.91867 0.78346 0.81571 0.0
H426 H 0.88153 0.89408 0.91002 0.0
H427 H 0.73684 0.92571 0.84731 0.0
H428 H 0.83944 0.83443 0.8276 0.0
H429 H 0.82951 0.81991 0.89252 0.0
O430 O 0.66557 0.69331 0.79791 0.0
H431 H 0.58503 0.84577 0.79041 0.0
H432 H 0.56863 0.67931 0.79096 0.0
H433 H 0.78814 1.00096 0.86413 0.0
H434 H 0.85317 0.64853 0.85473 0.0
H435 H 0.86106 0.98538 0.89575 0.0
H436 H 0.92589 0.68979 0.82934 0.0
O437 O 0.67381 0.85101 0.86375 0.0
H438 H 0.60873 0.59815 0.87414 0.0
H439 H 0.53056 0.76164 0.83932 0.0
H440 H 0.47843 0.70545 0.86911 0.0
H441 H 0.51748 0.62295 0.88669 0.0
H442 H 0.65963 0.65577 0.8445 0.0
H443 H 0.49569 0.68518 0.75908 0.0
H444 H 0.46686 0.77276 0.74276 0.0
O445 O 0.61166 0.82018 0.83621 0.0
C446 C 0.71774 0.83804 0.7979 0.0
C447 C 0.52422 0.81508 0.76564 0.0
C448 C 0.51512 0.72063 0.76584 0.0
N449 N 0.58121 0.76216 0.7925 0.0
C450 C 0.56553 0.81048 0.78363 0.0
C451 C 0.5566 0.71754 0.78381 0.0
C452 C 0.49892 0.76978 0.7567 0.0
C453 C 0.80609 0.7192 0.85507 0.0
N454 N 0.80228 0.77061 0.84736 0.0
C455 C 0.85052 0.68934 0.84872 0.0
C456 C 0.89128 0.71249 0.83444 0.0
C457 C 0.88722 0.76502 0.82676 0.0
C458 C 0.84217 0.79364 0.83343 0.0
C459 C 0.84987 0.90137 0.89625 0.0
C460 C 0.76868 0.91857 0.86096 0.0
C461 C 0.82018 0.85955 0.88633 0.0
N462 N 0.78028 0.86845 0.86885 0.0
C463 C 0.79752 0.96135 0.87046 0.0
C464 C 0.83839 0.95259 0.88822 0.0
C465 C 0.62761 0.85221 0.85383 0.0
C466 C 0.59124 0.63394 0.86656 0.0
C467 C 0.54792 0.72597 0.84698 0.0
C468 C 0.51815 0.69421 0.86379 0.0
C469 C 0.54007 0.64791 0.87362 0.0
N470 N 0.59804 0.71195 0.84009 0.0
C471 C 0.6198 0.66663 0.84968 0.0
H472 H 0.22469 0.21936 0.06663 0.0
H473 H 0.36945 0.3091 0.93526 0.0
H474 H 0.30134 0.371 0.06231 0.0
H475 H 0.23515 0.20486 0.93766 0.0
H476 H 0.3578 0.32592 0.9827 0.0
H477 H 0.24287 0.20572 0.02027 0.0
C478 C 0.24568 0.24979 0.056 0.0
C479 C 0.26116 0.29665 0.06842 0.0
C480 C 0.33097 0.29957 0.97266 0.0
C481 C 0.28218 0.28098 0.01499 0.0
C482 C 0.33763 0.28983 0.94571 0.0
C483 C 0.30318 0.25558 0.93248 0.0
C484 C 0.29034 0.27392 0.98637 0.0
C485 C 0.26253 0.23175 0.94692 0.0
C486 C 0.25582 0.242 0.02943 0.0
C487 C 0.28836 0.33447 0.05345 0.0
N488 N 0.25754 0.24108 0.97303 0.0
N489 N 0.29811 0.32582 0.02743 0.0
H490 H 0.13182 0.80559 0.5647 0.0
H491 H 0.29298 0.72712 0.43657 0.0
H492 H 0.27624 0.71572 0.56528 0.0
H493 H 0.20066 0.86996 0.43784 0.0
H494 H 0.27469 0.71445 0.48296 0.0
H495 H 0.14552 0.82335 0.51749 0.0
C496 C 0.16633 0.78975 0.55498 0.0
C497 C 0.20287 0.75901 0.56897 0.0
C498 C 0.25836 0.74862 0.47315 0.0
C499 C 0.21817 0.77851 0.51531 0.0
C500 C 0.26853 0.75579 0.44655 0.0
C501 C 0.24849 0.79985 0.43324 0.0
C502 C 0.22735 0.78533 0.48674 0.0
C503 C 0.21714 0.83563 0.44741 0.0
C504 C 0.17414 0.80003 0.52815 0.0
C505 C 0.24699 0.73964 0.55544 0.0
N506 N 0.20732 0.82752 0.47348 0.0
N507 N 0.25309 0.74935 0.52942 0.0
H508 H 0.69894 0.63627 0.06544 0.0
H509 H 0.78341 0.78712 0.93514 0.0
H510 H 0.7953 0.7764 0.06413 0.0
H511 H 0.63596 0.70247 0.93818 0.0
H512 H 0.79616 0.77014 0.98166 0.0
H513 H 0.68162 0.64832 0.01809 0.0
C514 C 0.71631 0.6695 0.05527 0.0
C515 C 0.74866 0.70536 0.06876 0.0
C516 C 0.76098 0.7552 0.9722 0.0
C517 C 0.72972 0.7187 0.01495 0.0
C518 C 0.75373 0.76462 0.94553 0.0
C519 C 0.70834 0.74642 0.93269 0.0
C520 C 0.72297 0.72679 0.98631 0.0
C521 C 0.67135 0.7175 0.94737 0.0
C522 C 0.70628 0.67637 0.02836 0.0
C523 C 0.77002 0.74781 0.05466 0.0
N524 N 0.67951 0.7084 0.9735 0.0
N525 N 0.76052 0.75298 0.02858 0.0
H526 H 0.71138 0.28239 0.43653 0.0
H527 H 0.87108 0.20018 0.56434 0.0
H528 H 0.80455 0.14008 0.4368 0.0
H529 H 0.72523 0.28768 0.56557 0.0
H530 H 0.85815 0.18424 0.51695 0.0
H531 H 0.72855 0.29317 0.48316 0.0
C532 C 0.73576 0.25345 0.44634 0.0
C533 C 0.75637 0.21008 0.43269 0.0
C534 C 0.82904 0.20661 0.52779 0.0
C535 C 0.77623 0.22243 0.48642 0.0
C536 C 0.8364 0.21585 0.55473 0.0
C537 C 0.79924 0.2454 0.56895 0.0
C538 C 0.78484 0.22804 0.51508 0.0
C539 C 0.75492 0.26462 0.55554 0.0
C540 C 0.74529 0.25953 0.47307 0.0
C541 C 0.78763 0.1739 0.44663 0.0
N542 N 0.74927 0.25601 0.5294 0.0
N543 N 0.79683 0.18095 0.47282 0.0
H544 H 0.3936 0.36811 0.22769 0.0
H545 H 0.61944 0.15792 0.26138 0.0
H546 H 0.37635 0.20152 0.21308 0.0
H547 H 0.6163 0.31733 0.29059 0.0
H548 H 0.53813 0.17577 0.23677 0.0
H549 H 0.48171 0.35204 0.2449 0.0
C550 C 0.40826 0.32806 0.22813 0.0
C551 C 0.37715 0.28604 0.21913 0.0
C552 C 0.55576 0.20699 0.24829 0.0
C553 C 0.47881 0.2674 0.23866 0.0
C554 C 0.60252 0.19702 0.26208 0.0
C555 C 0.62459 0.2361 0.27822 0.0
C556 C 0.53136 0.25653 0.25046 0.0
C557 C 0.60053 0.2859 0.27859 0.0
C558 C 0.45875 0.31893 0.23793 0.0
C559 C 0.39865 0.23504 0.22008 0.0
N560 N 0.55519 0.29454 0.26511 0.0
N561 N 0.44814 0.22713 0.22969 0.0
H562 H 0.31003 0.87233 0.71304 0.0
H563 H 0.19096 0.11967 0.78952 0.0
H564 H 0.14428 0.89417 0.72858 0.0
H565 H 0.35207 0.11456 0.76281 0.0
H566 H 0.17297 0.03898 0.76526 0.0
H567 H 0.3269 0.96104 0.73027 0.0
C568 C 0.27722 0.8956 0.72015 0.0
C569 C 0.22567 0.87546 0.71954 0.0
C570 C 0.21213 0.05575 0.76431 0.0
C571 C 0.24469 0.97719 0.73904 0.0
C572 C 0.22235 0.10211 0.77807 0.0
C573 C 0.27314 0.12392 0.77827 0.0
C574 C 0.2532 0.03016 0.75091 0.0
C575 C 0.31229 0.09933 0.76308 0.0
C576 C 0.28686 0.94641 0.72979 0.0
C577 C 0.18469 0.90774 0.72875 0.0
N578 N 0.30173 0.05325 0.75034 0.0
N579 N 0.19513 0.9567 0.73819 0.0
H580 H 0.39071 0.69351 0.29143 0.0
H581 H 0.63464 0.81361 0.21257 0.0
H582 H 0.39205 0.85336 0.26286 0.0
H583 H 0.61554 0.64817 0.22968 0.0
H584 H 0.54606 0.82981 0.23022 0.0
H585 H 0.47148 0.67612 0.26715 0.0
C586 C 0.40748 0.72475 0.27961 0.0
C587 C 0.38457 0.77504 0.27929 0.0
C588 C 0.56129 0.78999 0.23 0.0
C589 C 0.47843 0.75579 0.25184 0.0
C590 C 0.61202 0.78074 0.22012 0.0
C591 C 0.63287 0.72947 0.21981 0.0
C592 C 0.53133 0.74771 0.23978 0.0
C593 C 0.6014 0.68838 0.22959 0.0
C594 C 0.45389 0.71487 0.26581 0.0
C595 C 0.40818 0.81397 0.26358 0.0
N596 N 0.55252 0.69844 0.23924 0.0
N597 N 0.45433 0.80379 0.2508 0.0
H598 H 0.86409 0.10936 0.72794 0.0
H599 H 0.65299 0.88389 0.76099 0.0
H600 H 0.69769 0.12704 0.71288 0.0
H601 H 0.81232 0.88641 0.79031 0.0
H602 H 0.67122 0.96519 0.73641 0.0
H603 H 0.84766 0.02113 0.7449 0.0
C604 C 0.824 0.09478 0.72823 0.0
C605 C 0.78215 0.12605 0.71919 0.0
C606 C 0.70234 0.94742 0.74795 0.0
C607 C 0.76308 0.02423 0.73844 0.0
C608 C 0.69215 0.90066 0.76173 0.0
C609 C 0.73108 0.87843 0.77791 0.0
C610 C 0.75197 0.97165 0.75017 0.0
C611 C 0.78099 0.90229 0.77829 0.0
C612 C 0.81466 0.0442 0.73788 0.0
C613 C 0.73109 0.10461 0.71992 0.0
N614 N 0.78984 0.94763 0.76484 0.0
N615 N 0.72297 0.05504 0.72941 0.0
H616 H 0.87387 0.31808 0.2883 0.0
H617 H 0.11988 0.19612 0.21174 0.0
H618 H 0.8949 0.15201 0.27343 0.0
H619 H 0.11602 0.35789 0.2374 0.0
H620 H 0.03926 0.17928 0.23624 0.0
H621 H 0.96246 0.3343 0.27065 0.0
C622 C 0.89694 0.28507 0.28126 0.0
C623 C 0.87659 0.23362 0.28218 0.0
C624 C 0.05625 0.21836 0.23689 0.0
C625 C 0.97815 0.25189 0.2622 0.0
C626 C 0.10259 0.22793 0.22298 0.0
C627 C 0.12475 0.27855 0.22241 0.0
C628 C 0.03103 0.25989 0.25009 0.0
C629 C 0.10048 0.31823 0.23739 0.0
C630 C 0.94767 0.29434 0.27137 0.0
C631 C 0.90861 0.19236 0.27303 0.0
N632 N 0.05441 0.30829 0.25029 0.0
N633 N 0.95747 0.20245 0.26336 0.0
H634 H 0.31086 0.61885 0.71144 0.0
H635 H 0.19169 0.37273 0.78901 0.0
H636 H 0.14995 0.6147 0.73849 0.0
H637 H 0.35723 0.39372 0.77262 0.0
H638 H 0.17485 0.46129 0.77152 0.0
H639 H 0.32864 0.5382 0.73574 0.0
C640 C 0.27946 0.60149 0.72294 0.0
C641 C 0.2288 0.62358 0.72284 0.0
C642 C 0.21484 0.44649 0.77186 0.0
C643 C 0.2485 0.52985 0.7503 0.0
C644 C 0.22445 0.39578 0.78166 0.0
C645 C 0.27594 0.37544 0.78212 0.0
C646 C 0.25696 0.47697 0.76231 0.0
C647 C 0.31687 0.40744 0.77259 0.0
C648 C 0.28956 0.55514 0.73674 0.0
C649 C 0.18965 0.59923 0.73814 0.0
N650 N 0.30644 0.45629 0.76301 0.0
N651 N 0.20008 0.55317 0.75093 0.0
H652 H 0.13559 0.69487 0.28836 0.0
H653 H 0.88984 0.81431 0.21084 0.0
H654 H 0.11368 0.86082 0.2735 0.0
H655 H 0.89365 0.65344 0.23789 0.0
H656 H 0.97031 0.83206 0.23532 0.0
H657 H 0.04727 0.6781 0.2706 0.0
C658 C 0.11237 0.72775 0.2813 0.0
C659 C 0.13239 0.77933 0.28225 0.0
C660 C 0.95331 0.793 0.23628 0.0
C661 C 0.03113 0.7604 0.2621 0.0
C662 C 0.90709 0.78291 0.22237 0.0
C663 C 0.88493 0.73227 0.22224 0.0
C664 C 0.97843 0.75196 0.2499 0.0
C665 C 0.90915 0.69311 0.23756 0.0
C666 C 0.0618 0.71816 0.27134 0.0
C667 C 0.10019 0.82039 0.27307 0.0
N668 N 0.95509 0.70354 0.25046 0.0
N669 N 0.05147 0.80999 0.2633 0.0
H670 H 0.85109 0.383 0.74086 0.0
H671 H 0.64109 0.60978 0.77332 0.0
H672 H 0.69285 0.38765 0.71013 0.0
H673 H 0.80739 0.62638 0.78896 0.0
H674 H 0.65727 0.52169 0.75612 0.0
H675 H 0.83292 0.46428 0.76545 0.0
C676 C 0.81216 0.40025 0.73979 0.0
C677 C 0.77355 0.37859 0.72323 0.0
C678 C 0.69029 0.5445 0.76332 0.0
C679 C 0.75274 0.47176 0.75102 0.0
C680 C 0.6811 0.59498 0.77312 0.0
C681 C 0.723 0.62591 0.7824 0.0
C682 C 0.74178 0.52426 0.76286 0.0
C683 C 0.77395 0.60422 0.78175 0.0
C684 C 0.80203 0.44699 0.75359 0.0
C685 C 0.72395 0.40305 0.72245 0.0
N686 N 0.78193 0.55474 0.77212 0.0
N687 N 0.71514 0.44833 0.73596 0.0
H688 H 0.84827 0.51892 0.14749 0.0
H689 H 0.05945 0.35432 0.12168 0.0
H690 H 0.95321 0.64712 0.12855 0.0
H691 H 0.14822 0.48664 0.15136 0.0
H692 H 0.98395 0.41275 0.11485 0.0
H693 H 0.92005 0.45691 0.14022 0.0
C694 C 0.88618 0.53398 0.14131 0.0
C695 C 0.89476 0.58835 0.13873 0.0
C696 C 0.02008 0.42889 0.12277 0.0
C697 C 0.97731 0.5174 0.13028 0.0
C698 C 0.06338 0.39571 0.12644 0.0
C699 C 0.11004 0.41538 0.13755 0.0
C700 C 0.02367 0.48213 0.1301 0.0
C701 C 0.11285 0.46951 0.14314 0.0
C702 C 0.9271 0.49843 0.13691 0.0
C703 C 0.9448 0.60555 0.13069 0.0
N704 N 0.07018 0.50092 0.13948 0.0
N705 N 0.98455 0.57023 0.1273 0.0
H706 H 0.85286 0.44483 0.62279 0.0
H707 H 0.01549 0.65814 0.64796 0.0
H708 H 0.98435 0.35808 0.65482 0.0
H709 H 0.14459 0.55338 0.63036 0.0
H710 H 0.95403 0.58556 0.64141 0.0
H711 H 0.91105 0.52051 0.616 0.0
C712 C 0.89402 0.44138 0.6281 0.0
C713 C 0.9135 0.3952 0.63979 0.0
C714 C 0.99564 0.57871 0.63826 0.0
C715 C 0.98 0.48182 0.63234 0.0
C716 C 0.03086 0.62009 0.64222 0.0
C717 C 0.08531 0.61183 0.63977 0.0
C718 C 0.01503 0.52836 0.63223 0.0
C719 C 0.10294 0.56156 0.63235 0.0
C720 C 0.92706 0.48479 0.62444 0.0
C721 C 0.96737 0.39304 0.6461 0.0
N722 N 0.06793 0.5214 0.62939 0.0
N723 N 0.99867 0.43581 0.64239 0.0
H724 H 0.65952 0.02319 0.35394 0.0
H725 H 0.44814 0.85831 0.37968 0.0
H726 H 0.55258 0.15128 0.37 0.0
H727 H 0.35986 0.98724 0.34614 0.0
H728 H 0.52284 0.91787 0.38615 0.0
H729 H 0.58764 0.96092 0.36055 0.0
C730 C 0.62111 0.03818 0.35933 0.0
C731 C 0.61206 0.09257 0.36136 0.0
C732 C 0.487 0.93303 0.37745 0.0
C733 C 0.52939 0.02134 0.369 0.0
C734 C 0.44414 0.8992 0.37397 0.0
C735 C 0.39783 0.91754 0.36195 0.0
C736 C 0.48335 0.98561 0.36904 0.0
C737 C 0.39495 0.97112 0.35513 0.0
C738 C 0.58013 1.00251 0.36335 0.0
C739 C 0.56136 0.1097 0.36836 0.0
N740 N 0.4372 0.0032 0.35868 0.0
N741 N 0.52162 0.07422 0.37139 0.0
H742 H 0.48787 0.15786 0.85231 0.0
H743 H 0.65198 0.94581 0.87806 0.0
H744 H 0.35953 0.05242 0.87034 0.0
H745 H 0.52076 0.85758 0.8468 0.0
H746 H 0.59342 0.02136 0.88446 0.0
H747 H 0.54982 0.08571 0.85893 0.0
C748 C 0.47277 0.11974 0.85813 0.0
C749 C 0.41838 0.11118 0.86072 0.0
C750 C 0.57755 0.98535 0.87627 0.0
C751 C 0.48925 0.02822 0.86837 0.0
C752 C 0.6108 0.94202 0.87284 0.0
C753 C 0.5915 0.89545 0.86148 0.0
C754 C 0.52458 0.9819 0.86846 0.0
C755 C 0.53761 0.89285 0.85527 0.0
C756 C 0.50827 0.07862 0.86215 0.0
C757 C 0.40112 0.06084 0.86825 0.0
N758 N 0.50611 0.93553 0.85875 0.0
N759 N 0.43639 0.02094 0.87128 0.0
loop_
_geom_bond_atom_site_label_1
_geom_bond_atom_site_label_2
_geom_bond_distance
_geom_bond_site_symmetry_2
_ccdc_geom_bond_type
Co0 O2 2.143 . S
Co0 O8 2.074 . S
Co0 O11 2.093 . S
Co0 O24 2.097 . S
Co0 N41 2.151 . S
Co0 N49 2.214 . S
Co1 O2 2.160 . S
Co1 O7 2.058 . S
Co1 O17 2.057 . S
Co1 O32 2.037 . S
Co1 N36 2.145 . S
Co1 N57 2.257 . S
O2 Co0 2.143 . S
O2 Co1 2.160 . S
C3 O4 1.278 . S
C3 O11 1.224 . S
O4 C3 1.278 . S
C5 O6 1.245 . S
C5 O17 1.232 . S
O6 C5 1.245 . S
O7 Co1 2.058 . S
O7 C33 1.269 . S
O8 Co0 2.074 . S
O8 C33 1.257 . S
H9 C34 0.930 . S
H10 C40 0.930 . S
O11 Co0 2.093 . S
O11 C3 1.224 . S
H12 C44 0.929 . S
H13 C46 0.930 . S
H14 C47 0.930 . S
H15 C45 0.929 . S
H16 C48 0.928 . S
O17 Co1 2.057 . S
O17 C5 1.232 . S
H18 C37 0.929 . S
H19 C38 0.929 . S
H20 C50 0.931 . S
H21 C42 0.929 . S
H22 C51 0.930 . S
H23 C43 0.931 . S
O24 Co0 2.097 . S
O24 C52 1.214 . S
H25 C53 0.929 . S
H26 C54 0.929 . S
H27 C55 0.930 . S
H28 C56 0.929 . S
H29 C58 0.930 . S
H30 C35 0.930 . S
H31 C39 0.930 . S
O32 Co1 2.037 . S
O32 C52 1.234 . S
C33 O7 1.269 . S
C33 O8 1.257 . S
C34 H9 0.930 . S
C34 C37 1.388 . S
C34 C39 1.418 . S
C35 H30 0.930 . S
C35 C38 1.404 . S
C35 C39 1.353 . S
N36 Co1 2.145 . S
N36 C37 1.397 . S
N36 C38 1.334 . S
C37 H18 0.929 . S
C37 C34 1.388 . S
C37 N36 1.397 . S
C38 H19 0.929 . S
C38 C35 1.404 . S
C38 N36 1.334 . S
C39 H31 0.930 . S
C39 C34 1.418 . S
C39 C35 1.353 . S
C40 H10 0.930 . S
C40 N41 1.330 . S
C40 C42 1.446 . S
N41 Co0 2.151 . S
N41 C40 1.330 . S
N41 C45 1.418 . S
C42 H21 0.929 . S
C42 C40 1.446 . S
C42 C43 1.332 . S
C43 H23 0.931 . S
C43 C42 1.332 . S
C43 C44 1.267 . S
C44 H12 0.929 . S
C44 C43 1.267 . S
C44 C45 1.251 . S
C45 H15 0.929 . S
C45 N41 1.418 . S
C45 C44 1.251 . S
C46 H13 0.930 . S
C46 C48 1.406 . S
C46 C51 1.261 1_455 S
C47 H14 0.930 . S
C47 N49 1.325 . S
C47 C50 1.357 1_455 S
C48 H16 0.928 . S
C48 C46 1.406 . S
C48 N49 1.261 . S
N49 Co0 2.214 . S
N49 C47 1.325 . S
N49 C48 1.261 . S
C50 H20 0.931 . S
C50 C47 1.357 1_655 S
C50 C51 1.312 . S
C51 H22 0.930 . S
C51 C46 1.261 1_655 S
C51 C50 1.312 . S
C52 O24 1.214 . S
C52 O32 1.234 . S
C53 H25 0.929 . S
C53 C56 1.391 . S
C53 C58 1.391 . S
C54 H26 0.929 . S
C54 C55 1.390 . S
C54 N57 1.391 . S
C55 H27 0.930 . S
C55 C54 1.390 . S
C55 C56 1.392 . S
C56 H28 0.929 . S
C56 C53 1.391 . S
C56 C55 1.392 . S
N57 Co1 2.257 . S
N57 C54 1.391 . S
N57 C58 1.388 . S
C58 H29 0.930 . S
C58 C53 1.391 . S
C58 N57 1.388 . S
Co59 O61 2.143 . S
Co59 O67 2.074 . S
Co59 O70 2.093 . S
Co59 O83 2.097 . S
Co59 N100 2.151 . S
Co59 N108 2.214 . S
Co60 O61 2.160 . S
Co60 O66 2.058 . S
Co60 O76 2.057 . S
Co60 O91 2.037 . S
Co60 N95 2.145 . S
Co60 N116 2.257 . S
O61 Co59 2.143 . S
O61 Co60 2.160 . S
C62 O63 1.278 . S
C62 O70 1.224 . S
O63 C62 1.278 . S
C64 O65 1.245 . S
C64 O76 1.232 . S
O65 C64 1.245 . S
O66 Co60 2.058 . S
O66 C92 1.269 . S
O67 Co59 2.074 . S
O67 C92 1.257 . S
H68 C93 0.930 . S
H69 C99 0.930 . S
O70 Co59 2.093 . S
O70 C62 1.224 . S
H71 C103 0.929 . S
H72 C105 0.930 . S
H73 C106 0.930 . S
H74 C104 0.929 . S
H75 C107 0.928 . S
O76 Co60 2.057 . S
O76 C64 1.232 . S
H77 C96 0.929 . S
H78 C97 0.929 . S
H79 C109 0.931 . S
H80 C101 0.929 . S
H81 C110 0.930 . S
H82 C102 0.931 . S
O83 Co59 2.097 . S
O83 C111 1.214 . S
H84 C112 0.929 . S
H85 C113 0.929 . S
H86 C114 0.930 . S
H87 C115 0.929 1_655 S
H88 C117 0.930 . S
H89 C94 0.930 . S
H90 C98 0.930 1_655 S
O91 Co60 2.037 . S
O91 C111 1.234 . S
C92 O66 1.269 . S
C92 O67 1.257 . S
C93 H68 0.930 . S
C93 C96 1.388 . S
C93 C98 1.418 . S
C94 H89 0.930 . S
C94 C97 1.404 . S
C94 C98 1.353 . S
N95 Co60 2.145 . S
N95 C96 1.397 . S
N95 C97 1.334 . S
C96 H77 0.929 . S
C96 C93 1.388 . S
C96 N95 1.397 . S
C97 H78 0.929 . S
C97 C94 1.404 . S
C97 N95 1.334 . S
C98 H90 0.930 1_455 S
C98 C93 1.418 . S
C98 C94 1.353 . S
C99 H69 0.930 . S
C99 N100 1.330 . S
C99 C101 1.446 . S
N100 Co59 2.151 . S
N100 C99 1.330 . S
N100 C104 1.418 . S
C101 H80 0.929 . S
C101 C99 1.446 . S
C101 C102 1.332 . S
C102 H82 0.931 . S
C102 C101 1.332 . S
C102 C103 1.267 . S
C103 H71 0.929 . S
C103 C102 1.267 . S
C103 C104 1.251 . S
C104 H74 0.929 . S
C104 N100 1.418 . S
C104 C103 1.251 . S
C105 H72 0.930 . S
C105 C107 1.406 . S
C105 C110 1.261 . S
C106 H73 0.930 . S
C106 N108 1.325 . S
C106 C109 1.357 . S
C107 H75 0.928 . S
C107 C105 1.406 . S
C107 N108 1.261 . S
N108 Co59 2.214 . S
N108 C106 1.325 . S
N108 C107 1.261 . S
C109 H79 0.931 . S
C109 C106 1.357 . S
C109 C110 1.312 . S
C110 H81 0.930 . S
C110 C105 1.261 . S
C110 C109 1.312 . S
C111 O83 1.214 . S
C111 O91 1.234 . S
C112 H84 0.929 . S
C112 C115 1.391 . S
C112 C117 1.391 . S
C113 H85 0.929 . S
C113 C114 1.390 1_455 S
C113 N116 1.391 . S
C114 H86 0.930 . S
C114 C113 1.390 1_655 S
C114 C115 1.392 1_655 S
C115 H87 0.929 1_455 S
C115 C112 1.391 . S
C115 C114 1.392 1_455 S
N116 Co60 2.257 . S
N116 C113 1.391 . S
N116 C117 1.388 . S
C117 H88 0.930 . S
C117 C112 1.391 . S
C117 N116 1.388 . S
Co118 O120 2.143 . S
Co118 O126 2.074 . S
Co118 O129 2.093 . S
Co118 O142 2.097 . S
Co118 N159 2.151 . S
Co118 N167 2.214 . S
Co119 O120 2.160 . S
Co119 O125 2.058 . S
Co119 O135 2.057 . S
Co119 O150 2.037 . S
Co119 N154 2.145 . S
Co119 N175 2.257 . S
O120 Co118 2.143 . S
O120 Co119 2.160 . S
C121 O122 1.278 . S
C121 O129 1.224 . S
O122 C121 1.278 . S
C123 O124 1.245 . S
C123 O135 1.232 . S
O124 C123 1.245 . S
O125 Co119 2.058 . S
O125 C151 1.269 . S
O126 Co118 2.074 . S
O126 C151 1.257 . S
H127 C152 0.930 . S
H128 C158 0.930 . S
O129 Co118 2.093 . S
O129 C121 1.224 . S
H130 C162 0.929 . S
H131 C164 0.930 . S
H132 C165 0.930 . S
H133 C163 0.929 . S
H134 C166 0.928 . S
O135 Co119 2.057 . S
O135 C123 1.232 . S
H136 C155 0.929 . S
H137 C156 0.929 . S
H138 C168 0.931 . S
H139 C160 0.929 . S
H140 C169 0.930 . S
H141 C161 0.931 . S
O142 Co118 2.097 . S
O142 C170 1.214 . S
H143 C171 0.929 . S
H144 C172 0.929 . S
H145 C173 0.930 . S
H146 C174 0.929 . S
H147 C176 0.930 . S
H148 C153 0.930 . S
H149 C157 0.930 . S
O150 Co119 2.037 . S
O150 C170 1.234 . S
C151 O125 1.269 . S
C151 O126 1.257 . S
C152 H127 0.930 . S
C152 C155 1.388 . S
C152 C157 1.418 . S
C153 H148 0.930 . S
C153 C156 1.404 . S
C153 C157 1.353 . S
N154 Co119 2.145 . S
N154 C155 1.397 . S
N154 C156 1.334 . S
C155 H136 0.929 . S
C155 C152 1.388 . S
C155 N154 1.397 . S
C156 H137 0.929 . S
C156 C153 1.404 . S
C156 N154 1.334 . S
C157 H149 0.930 . S
C157 C152 1.418 . S
C157 C153 1.353 . S
C158 H128 0.930 . S
C158 N159 1.330 . S
C158 C160 1.446 . S
N159 Co118 2.151 . S
N159 C158 1.330 . S
N159 C163 1.418 . S
C160 H139 0.929 . S
C160 C158 1.446 . S
C160 C161 1.332 . S
C161 H141 0.931 . S
C161 C160 1.332 . S
C161 C162 1.267 . S
C162 H130 0.929 . S
C162 C161 1.267 . S
C162 C163 1.251 . S
C163 H133 0.929 . S
C163 N159 1.418 . S
C163 C162 1.251 . S
C164 H131 0.930 . S
C164 C166 1.406 . S
C164 C169 1.261 1_655 S
C165 H132 0.930 . S
C165 N167 1.325 . S
C165 C168 1.357 1_655 S
C166 H134 0.928 . S
C166 C164 1.406 . S
C166 N167 1.261 . S
N167 Co118 2.214 . S
N167 C165 1.325 . S
N167 C166 1.261 . S
C168 H138 0.931 . S
C168 C165 1.357 1_455 S
C168 C169 1.312 . S
C169 H140 0.930 . S
C169 C164 1.261 1_455 S
C169 C168 1.312 . S
C170 O142 1.214 . S
C170 O150 1.234 . S
C171 H143 0.929 . S
C171 C174 1.391 . S
C171 C176 1.391 . S
C172 H144 0.929 . S
C172 C173 1.390 . S
C172 N175 1.391 . S
C173 H145 0.930 . S
C173 C172 1.390 . S
C173 C174 1.392 . S
C174 H146 0.929 . S
C174 C171 1.391 . S
C174 C173 1.392 . S
N175 Co119 2.257 . S
N175 C172 1.391 . S
N175 C176 1.388 . S
C176 H147 0.930 . S
C176 C171 1.391 . S
C176 N175 1.388 . S
Co177 O179 2.143 . S
Co177 O185 2.074 . S
Co177 O188 2.093 . S
Co177 O201 2.097 . S
Co177 N218 2.151 . S
Co177 N226 2.214 . S
Co178 O179 2.160 . S
Co178 O184 2.058 . S
Co178 O194 2.057 . S
Co178 O209 2.037 . S
Co178 N213 2.145 . S
Co178 N234 2.257 . S
O179 Co177 2.143 . S
O179 Co178 2.160 . S
C180 O181 1.278 . S
C180 O188 1.224 . S
O181 C180 1.278 . S
C182 O183 1.245 . S
C182 O194 1.232 . S
O183 C182 1.245 . S
O184 Co178 2.058 . S
O184 C210 1.269 . S
O185 Co177 2.074 . S
O185 C210 1.257 . S
H186 C211 0.930 . S
H187 C217 0.930 . S
O188 Co177 2.093 . S
O188 C180 1.224 . S
H189 C221 0.929 . S
H190 C223 0.930 . S
H191 C224 0.930 . S
H192 C222 0.929 . S
H193 C225 0.928 . S
O194 Co178 2.057 . S
O194 C182 1.232 . S
H195 C214 0.929 . S
H196 C215 0.929 . S
H197 C227 0.931 . S
H198 C219 0.929 . S
H199 C228 0.930 . S
H200 C220 0.931 . S
O201 Co177 2.097 . S
O201 C229 1.214 . S
H202 C230 0.929 . S
H203 C231 0.929 . S
H204 C232 0.930 . S
H205 C233 0.929 1_455 S
H206 C235 0.930 . S
H207 C212 0.930 . S
H208 C216 0.930 1_455 S
O209 Co178 2.037 . S
O209 C229 1.234 . S
C210 O184 1.269 . S
C210 O185 1.257 . S
C211 H186 0.930 . S
C211 C214 1.388 . S
C211 C216 1.418 . S
C212 H207 0.930 . S
C212 C215 1.404 . S
C212 C216 1.353 . S
N213 Co178 2.145 . S
N213 C214 1.397 . S
N213 C215 1.334 . S
C214 H195 0.929 . S
C214 C211 1.388 . S
C214 N213 1.397 . S
C215 H196 0.929 . S
C215 C212 1.404 . S
C215 N213 1.334 . S
C216 H208 0.930 1_655 S
C216 C211 1.418 . S
C216 C212 1.353 . S
C217 H187 0.930 . S
C217 N218 1.330 . S
C217 C219 1.446 . S
N218 Co177 2.151 . S
N218 C217 1.330 . S
N218 C222 1.418 . S
C219 H198 0.929 . S
C219 C217 1.446 . S
C219 C220 1.332 . S
C220 H200 0.931 . S
C220 C219 1.332 . S
C220 C221 1.267 . S
C221 H189 0.929 . S
C221 C220 1.267 . S
C221 C222 1.251 . S
C222 H192 0.929 . S
C222 N218 1.418 . S
C222 C221 1.251 . S
C223 H190 0.930 . S
C223 C225 1.406 . S
C223 C228 1.261 . S
C224 H191 0.930 . S
C224 N226 1.325 . S
C224 C227 1.357 . S
C225 H193 0.928 . S
C225 C223 1.406 . S
C225 N226 1.261 . S
N226 Co177 2.214 . S
N226 C224 1.325 . S
N226 C225 1.261 . S
C227 H197 0.931 . S
C227 C224 1.357 . S
C227 C228 1.312 . S
C228 H199 0.930 . S
C228 C223 1.261 . S
C228 C227 1.312 . S
C229 O201 1.214 . S
C229 O209 1.234 . S
C230 H202 0.929 . S
C230 C233 1.391 . S
C230 C235 1.391 . S
C231 H203 0.929 . S
C231 C232 1.390 1_655 S
C231 N234 1.391 . S
C232 H204 0.930 . S
C232 C231 1.390 1_455 S
C232 C233 1.392 1_455 S
C233 H205 0.929 1_655 S
C233 C230 1.391 . S
C233 C232 1.392 1_655 S
N234 Co178 2.257 . S
N234 C231 1.391 . S
N234 C235 1.388 . S
C235 H206 0.930 . S
C235 C230 1.391 . S
C235 N234 1.388 . S
Co236 O238 2.143 . S
Co236 O244 2.074 . S
Co236 O247 2.093 . S
Co236 O260 2.097 . S
Co236 N277 2.151 . S
Co236 N285 2.214 . S
Co237 O238 2.160 . S
Co237 O243 2.058 . S
Co237 O253 2.057 . S
Co237 O268 2.037 . S
Co237 N272 2.145 . S
Co237 N293 2.257 . S
O238 Co236 2.143 . S
O238 Co237 2.160 . S
C239 O240 1.278 . S
C239 O247 1.224 . S
O240 C239 1.278 . S
C241 O242 1.245 . S
C241 O253 1.232 . S
O242 C241 1.245 . S
O243 Co237 2.058 . S
O243 C269 1.269 . S
O244 Co236 2.074 . S
O244 C269 1.257 . S
H245 C270 0.930 . S
H246 C276 0.930 . S
O247 Co236 2.093 . S
O247 C239 1.224 . S
H248 C280 0.929 . S
H249 C282 0.930 . S
H250 C283 0.930 . S
H251 C281 0.929 . S
H252 C284 0.928 . S
O253 Co237 2.057 . S
O253 C241 1.232 . S
H254 C273 0.929 . S
H255 C274 0.929 . S
H256 C286 0.931 . S
H257 C278 0.929 . S
H258 C287 0.930 . S
H259 C279 0.931 . S
O260 Co236 2.097 . S
O260 C288 1.214 . S
H261 C289 0.929 . S
H262 C290 0.929 . S
H263 C291 0.930 . S
H264 C292 0.929 1_565 S
H265 C294 0.930 . S
H266 C271 0.930 . S
H267 C275 0.930 1_565 S
O268 Co237 2.037 . S
O268 C288 1.234 . S
C269 O243 1.269 . S
C269 O244 1.257 . S
C270 H245 0.930 . S
C270 C273 1.388 . S
C270 C275 1.418 . S
C271 H266 0.930 . S
C271 C274 1.404 . S
C271 C275 1.353 . S
N272 Co237 2.145 . S
N272 C273 1.397 . S
N272 C274 1.334 . S
C273 H254 0.929 . S
C273 C270 1.388 . S
C273 N272 1.397 . S
C274 H255 0.929 . S
C274 C271 1.404 . S
C274 N272 1.334 . S
C275 H267 0.930 1_545 S
C275 C270 1.418 . S
C275 C271 1.353 . S
C276 H246 0.930 . S
C276 N277 1.330 . S
C276 C278 1.446 . S
N277 Co236 2.151 . S
N277 C276 1.330 . S
N277 C281 1.418 . S
C278 H257 0.929 . S
C278 C276 1.446 . S
C278 C279 1.332 . S
C279 H259 0.931 . S
C279 C278 1.332 . S
C279 C280 1.267 . S
C280 H248 0.929 . S
C280 C279 1.267 . S
C280 C281 1.251 . S
C281 H251 0.929 . S
C281 N277 1.418 . S
C281 C280 1.251 . S
C282 H249 0.930 . S
C282 C284 1.406 . S
C282 C287 1.261 . S
C283 H250 0.930 . S
C283 N285 1.325 . S
C283 C286 1.357 . S
C284 H252 0.928 . S
C284 C282 1.406 . S
C284 N285 1.261 . S
N285 Co236 2.214 . S
N285 C283 1.325 . S
N285 C284 1.261 . S
C286 H256 0.931 . S
C286 C283 1.357 . S
C286 C287 1.312 . S
C287 H258 0.930 . S
C287 C282 1.261 . S
C287 C286 1.312 . S
C288 O260 1.214 . S
C288 O268 1.234 . S
C289 H261 0.929 . S
C289 C292 1.391 . S
C289 C294 1.391 . S
C290 H262 0.929 . S
C290 C291 1.390 1_545 S
C290 N293 1.391 . S
C291 H263 0.930 . S
C291 C290 1.390 1_565 S
C291 C292 1.392 1_565 S
C292 H264 0.929 1_545 S
C292 C289 1.391 . S
C292 C291 1.392 1_545 S
N293 Co237 2.257 . S
N293 C290 1.391 . S
N293 C294 1.388 . S
C294 H265 0.930 . S
C294 C289 1.391 . S
C294 N293 1.388 . S
Co295 O297 2.143 . S
Co295 O303 2.074 . S
Co295 O306 2.093 . S
Co295 O319 2.097 . S
Co295 N336 2.151 . S
Co295 N344 2.214 . S
Co296 O297 2.160 . S
Co296 O302 2.058 . S
Co296 O312 2.057 . S
Co296 O327 2.037 . S
Co296 N331 2.145 . S
Co296 N352 2.257 . S
O297 Co295 2.143 . S
O297 Co296 2.160 . S
C298 O299 1.278 . S
C298 O306 1.224 . S
O299 C298 1.278 . S
C300 O301 1.245 . S
C300 O312 1.232 . S
O301 C300 1.245 . S
O302 Co296 2.058 . S
O302 C328 1.269 . S
O303 Co295 2.074 . S
O303 C328 1.257 . S
H304 C329 0.930 . S
H305 C335 0.930 . S
O306 Co295 2.093 . S
O306 C298 1.224 . S
H307 C339 0.929 . S
H308 C341 0.930 . S
H309 C342 0.930 . S
H310 C340 0.929 . S
H311 C343 0.928 . S
O312 Co296 2.057 . S
O312 C300 1.232 . S
H313 C332 0.929 . S
H314 C333 0.929 . S
H315 C345 0.931 . S
H316 C337 0.929 . S
H317 C346 0.930 . S
H318 C338 0.931 . S
O319 Co295 2.097 . S
O319 C347 1.214 . S
H320 C348 0.929 . S
H321 C349 0.929 . S
H322 C350 0.930 . S
H323 C351 0.929 . S
H324 C353 0.930 . S
H325 C330 0.930 . S
H326 C334 0.930 . S
O327 Co296 2.037 . S
O327 C347 1.234 . S
C328 O302 1.269 . S
C328 O303 1.257 . S
C329 H304 0.930 . S
C329 C332 1.388 . S
C329 C334 1.418 . S
C330 H325 0.930 . S
C330 C333 1.404 . S
C330 C334 1.353 . S
N331 Co296 2.145 . S
N331 C332 1.397 . S
N331 C333 1.334 . S
C332 H313 0.929 . S
C332 C329 1.388 . S
C332 N331 1.397 . S
C333 H314 0.929 . S
C333 C330 1.404 . S
C333 N331 1.334 . S
C334 H326 0.930 . S
C334 C329 1.418 . S
C334 C330 1.353 . S
C335 H305 0.930 . S
C335 N336 1.330 . S
C335 C337 1.446 . S
N336 Co295 2.151 . S
N336 C335 1.330 . S
N336 C340 1.418 . S
C337 H316 0.929 . S
C337 C335 1.446 . S
C337 C338 1.332 . S
C338 H318 0.931 . S
C338 C337 1.332 . S
C338 C339 1.267 . S
C339 H307 0.929 . S
C339 C338 1.267 . S
C339 C340 1.251 . S
C340 H310 0.929 . S
C340 N336 1.418 . S
C340 C339 1.251 . S
C341 H308 0.930 . S
C341 C343 1.406 . S
C341 C346 1.261 1_545 S
C342 H309 0.930 . S
C342 N344 1.325 . S
C342 C345 1.357 1_545 S
C343 H311 0.928 . S
C343 C341 1.406 . S
C343 N344 1.261 . S
N344 Co295 2.214 . S
N344 C342 1.325 . S
N344 C343 1.261 . S
C345 H315 0.931 . S
C345 C342 1.357 1_565 S
C345 C346 1.312 . S
C346 H317 0.930 . S
C346 C341 1.261 1_565 S
C346 C345 1.312 . S
C347 O319 1.214 . S
C347 O327 1.234 . S
C348 H320 0.929 . S
C348 C351 1.391 . S
C348 C353 1.391 . S
C349 H321 0.929 . S
C349 C350 1.390 . S
C349 N352 1.391 . S
C350 H322 0.930 . S
C350 C349 1.390 . S
C350 C351 1.392 . S
C351 H323 0.929 . S
C351 C348 1.391 . S
C351 C350 1.392 . S
N352 Co296 2.257 . S
N352 C349 1.391 . S
N352 C353 1.388 . S
C353 H324 0.930 . S
C353 C348 1.391 . S
C353 N352 1.388 . S
Co354 O356 2.143 . S
Co354 O362 2.074 . S
Co354 O365 2.093 . S
Co354 O378 2.097 . S
Co354 N395 2.151 . S
Co354 N403 2.214 . S
Co355 O356 2.160 . S
Co355 O361 2.058 . S
Co355 O371 2.057 . S
Co355 O386 2.037 . S
Co355 N390 2.145 . S
Co355 N411 2.257 . S
O356 Co354 2.143 . S
O356 Co355 2.160 . S
C357 O358 1.278 . S
C357 O365 1.224 . S
O358 C357 1.278 . S
C359 O360 1.245 . S
C359 O371 1.232 . S
O360 C359 1.245 . S
O361 Co355 2.058 . S
O361 C387 1.269 . S
O362 Co354 2.074 . S
O362 C387 1.257 . S
H363 C388 0.930 . S
H364 C394 0.930 . S
O365 Co354 2.093 . S
O365 C357 1.224 . S
H366 C398 0.929 . S
H367 C400 0.930 . S
H368 C401 0.930 . S
H369 C399 0.929 . S
H370 C402 0.928 . S
O371 Co355 2.057 . S
O371 C359 1.232 . S
H372 C391 0.929 . S
H373 C392 0.929 . S
H374 C404 0.931 . S
H375 C396 0.929 . S
H376 C405 0.930 . S
H377 C397 0.931 . S
O378 Co354 2.097 . S
O378 C406 1.214 . S
H379 C407 0.929 . S
H380 C408 0.929 . S
H381 C409 0.930 . S
H382 C410 0.929 1_545 S
H383 C412 0.930 . S
H384 C389 0.930 . S
H385 C393 0.930 1_545 S
O386 Co355 2.037 . S
O386 C406 1.234 . S
C387 O361 1.269 . S
C387 O362 1.257 . S
C388 H363 0.930 . S
C388 C391 1.388 . S
C388 C393 1.418 . S
C389 H384 0.930 . S
C389 C392 1.404 . S
C389 C393 1.353 . S
N390 Co355 2.145 . S
N390 C391 1.397 . S
N390 C392 1.334 . S
C391 H372 0.929 . S
C391 C388 1.388 . S
C391 N390 1.397 . S
C392 H373 0.929 . S
C392 C389 1.404 . S
C392 N390 1.334 . S
C393 H385 0.930 1_565 S
C393 C388 1.418 . S
C393 C389 1.353 . S
C394 H364 0.930 . S
C394 N395 1.330 . S
C394 C396 1.446 . S
N395 Co354 2.151 . S
N395 C394 1.330 . S
N395 C399 1.418 . S
C396 H375 0.929 . S
C396 C394 1.446 . S
C396 C397 1.332 . S
C397 H377 0.931 . S
C397 C396 1.332 . S
C397 C398 1.267 . S
C398 H366 0.929 . S
C398 C397 1.267 . S
C398 C399 1.251 . S
C399 H369 0.929 . S
C399 N395 1.418 . S
C399 C398 1.251 . S
C400 H367 0.930 . S
C400 C402 1.406 . S
C400 C405 1.261 . S
C401 H368 0.930 . S
C401 N403 1.325 . S
C401 C404 1.357 . S
C402 H370 0.928 . S
C402 C400 1.406 . S
C402 N403 1.261 . S
N403 Co354 2.214 . S
N403 C401 1.325 . S
N403 C402 1.261 . S
C404 H374 0.931 . S
C404 C401 1.357 . S
C404 C405 1.312 . S
C405 H376 0.930 . S
C405 C400 1.261 . S
C405 C404 1.312 . S
C406 O378 1.214 . S
C406 O386 1.234 . S
C407 H379 0.929 . S
C407 C410 1.391 . S
C407 C412 1.391 . S
C408 H380 0.929 . S
C408 C409 1.390 1_565 S
C408 N411 1.391 . S
C409 H381 0.930 . S
C409 C408 1.390 1_545 S
C409 C410 1.392 1_545 S
C410 H382 0.929 1_565 S
C410 C407 1.391 . S
C410 C409 1.392 1_565 S
N411 Co355 2.257 . S
N411 C408 1.391 . S
N411 C412 1.388 . S
C412 H383 0.930 . S
C412 C407 1.391 . S
C412 N411 1.388 . S
Co413 O415 2.143 . S
Co413 O421 2.074 . S
Co413 O424 2.093 . S
Co413 O437 2.097 . S
Co413 N454 2.151 . S
Co413 N462 2.214 . S
Co414 O415 2.160 . S
Co414 O420 2.058 . S
Co414 O430 2.057 . S
Co414 O445 2.037 . S
Co414 N449 2.145 . S
Co414 N470 2.257 . S
O415 Co413 2.143 . S
O415 Co414 2.160 . S
C416 O417 1.278 . S
C416 O424 1.224 . S
O417 C416 1.278 . S
C418 O419 1.245 . S
C418 O430 1.232 . S
O419 C418 1.245 . S
O420 Co414 2.058 . S
O420 C446 1.269 . S
O421 Co413 2.074 . S
O421 C446 1.257 . S
H422 C447 0.930 . S
H423 C453 0.930 . S
O424 Co413 2.093 . S
O424 C416 1.224 . S
H425 C457 0.929 . S
H426 C459 0.930 . S
H427 C460 0.930 . S
H428 C458 0.929 . S
H429 C461 0.928 . S
O430 Co414 2.057 . S
O430 C418 1.232 . S
H431 C450 0.929 . S
H432 C451 0.929 . S
H433 C463 0.931 . S
H434 C455 0.929 . S
H435 C464 0.930 . S
H436 C456 0.931 . S
O437 Co413 2.097 . S
O437 C465 1.214 . S
H438 C466 0.929 . S
H439 C467 0.929 . S
H440 C468 0.930 . S
H441 C469 0.929 . S
H442 C471 0.930 . S
H443 C448 0.930 . S
H444 C452 0.930 . S
O445 Co414 2.037 . S
O445 C465 1.234 . S
C446 O420 1.269 . S
C446 O421 1.257 . S
C447 H422 0.930 . S
C447 C450 1.388 . S
C447 C452 1.418 . S
C448 H443 0.930 . S
C448 C451 1.404 . S
C448 C452 1.353 . S
N449 Co414 2.145 . S
N449 C450 1.397 . S
N449 C451 1.334 . S
C450 H431 0.929 . S
C450 C447 1.388 . S
C450 N449 1.397 . S
C451 H432 0.929 . S
C451 C448 1.404 . S
C451 N449 1.334 . S
C452 H444 0.930 . S
C452 C447 1.418 . S
C452 C448 1.353 . S
C453 H423 0.930 . S
C453 N454 1.330 . S
C453 C455 1.446 . S
N454 Co413 2.151 . S
N454 C453 1.330 . S
N454 C458 1.418 . S
C455 H434 0.929 . S
C455 C453 1.446 . S
C455 C456 1.332 . S
C456 H436 0.931 . S
C456 C455 1.332 . S
C456 C457 1.267 . S
C457 H425 0.929 . S
C457 C456 1.267 . S
C457 C458 1.251 . S
C458 H428 0.929 . S
C458 N454 1.418 . S
C458 C457 1.251 . S
C459 H426 0.930 . S
C459 C461 1.406 . S
C459 C464 1.261 1_565 S
C460 H427 0.930 . S
C460 N462 1.325 . S
C460 C463 1.357 1_565 S
C461 H429 0.928 . S
C461 C459 1.406 . S
C461 N462 1.261 . S
N462 Co413 2.214 . S
N462 C460 1.325 . S
N462 C461 1.261 . S
C463 H433 0.931 . S
C463 C460 1.357 1_545 S
C463 C464 1.312 . S
C464 H435 0.930 . S
C464 C459 1.261 1_545 S
C464 C463 1.312 . S
C465 O437 1.214 . S
C465 O445 1.234 . S
C466 H438 0.929 . S
C466 C469 1.391 . S
C466 C471 1.391 . S
C467 H439 0.929 . S
C467 C468 1.390 . S
C467 N470 1.391 . S
C468 H440 0.930 . S
C468 C467 1.390 . S
C468 C469 1.392 . S
C469 H441 0.929 . S
C469 C466 1.391 . S
C469 C468 1.392 . S
N470 Co414 2.257 . S
N470 C467 1.391 . S
N470 C471 1.388 . S
C471 H442 0.930 . S
C471 C466 1.391 . S
C471 N470 1.388 . S
H472 C478 0.930 . S
H473 C482 0.930 . S
H474 C487 0.929 . S
H475 C485 0.929 . S
H476 C480 0.929 . S
H477 C486 0.929 . S
C478 H472 0.930 . S
C478 C479 1.367 . S
C478 C486 1.378 . S
C479 C478 1.367 . S
C479 C487 1.433 . S
C480 H476 0.929 . S
C480 C482 1.378 . S
C480 C484 1.350 . S
C481 C484 1.463 1_554 S
C481 C486 1.350 . S
C481 N489 1.427 . S
C482 H473 0.930 . S
C482 C480 1.378 . S
C482 C483 1.367 . S
C483 C482 1.367 . S
C483 C485 1.433 . S
C484 C480 1.350 . S
C484 C481 1.463 1_556 S
C484 N488 1.427 . S
C485 H475 0.929 . S
C485 C483 1.433 . S
C485 N488 1.384 . S
C486 H477 0.929 . S
C486 C478 1.378 . S
C486 C481 1.350 . S
C487 H474 0.929 . S
C487 C479 1.433 . S
C487 N489 1.384 . S
N488 C484 1.427 . S
N488 C485 1.384 . S
N489 C481 1.427 . S
N489 C487 1.384 . S
H490 C496 0.930 . S
H491 C500 0.930 . S
H492 C505 0.929 . S
H493 C503 0.929 . S
H494 C498 0.929 . S
H495 C504 0.929 . S
C496 H490 0.930 . S
C496 C497 1.367 . S
C496 C504 1.378 . S
C497 C496 1.367 . S
C497 C505 1.433 . S
C498 H494 0.929 . S
C498 C500 1.378 . S
C498 C502 1.350 . S
C499 C502 1.463 . S
C499 C504 1.350 . S
C499 N507 1.427 . S
C500 H491 0.930 . S
C500 C498 1.378 . S
C500 C501 1.367 . S
C501 C500 1.367 . S
C501 C503 1.433 . S
C502 C498 1.350 . S
C502 C499 1.463 . S
C502 N506 1.427 . S
C503 H493 0.929 . S
C503 C501 1.433 . S
C503 N506 1.384 . S
C504 H495 0.929 . S
C504 C496 1.378 . S
C504 C499 1.350 . S
C505 H492 0.929 . S
C505 C497 1.433 . S
C505 N507 1.384 . S
N506 C502 1.427 . S
N506 C503 1.384 . S
N507 C499 1.427 . S
N507 C505 1.384 . S
H508 C514 0.930 . S
H509 C518 0.930 . S
H510 C523 0.929 . S
H511 C521 0.929 . S
H512 C516 0.929 . S
H513 C522 0.929 . S
C514 H508 0.930 . S
C514 C515 1.367 . S
C514 C522 1.378 . S
C515 C514 1.367 . S
C515 C523 1.433 . S
C516 H512 0.929 . S
C516 C518 1.378 . S
C516 C520 1.350 . S
C517 C520 1.463 1_554 S
C517 C522 1.350 . S
C517 N525 1.427 . S
C518 H509 0.930 . S
C518 C516 1.378 . S
C518 C519 1.367 . S
C519 C518 1.367 . S
C519 C521 1.433 . S
C520 C516 1.350 . S
C520 C517 1.463 1_556 S
C520 N524 1.427 . S
C521 H511 0.929 . S
C521 C519 1.433 . S
C521 N524 1.384 . S
C522 H513 0.929 . S
C522 C514 1.378 . S
C522 C517 1.350 . S
C523 H510 0.929 . S
C523 C515 1.433 . S
C523 N525 1.384 . S
N524 C520 1.427 . S
N524 C521 1.384 . S
N525 C517 1.427 . S
N525 C523 1.384 . S
H526 C532 0.930 . S
H527 C536 0.930 . S
H528 C541 0.929 . S
H529 C539 0.929 . S
H530 C534 0.929 . S
H531 C540 0.929 . S
C532 H526 0.930 . S
C532 C533 1.367 . S
C532 C540 1.378 . S
C533 C532 1.367 . S
C533 C541 1.433 . S
C534 H530 0.929 . S
C534 C536 1.378 . S
C534 C538 1.350 . S
C535 C538 1.463 . S
C535 C540 1.350 . S
C535 N543 1.427 . S
C536 H527 0.930 . S
C536 C534 1.378 . S
C536 C537 1.367 . S
C537 C536 1.367 . S
C537 C539 1.433 . S
C538 C534 1.350 . S
C538 C535 1.463 . S
C538 N542 1.427 . S
C539 H529 0.929 . S
C539 C537 1.433 . S
C539 N542 1.384 . S
C540 H531 0.929 . S
C540 C532 1.378 . S
C540 C535 1.350 . S
C541 H528 0.929 . S
C541 C533 1.433 . S
C541 N543 1.384 . S
N542 C538 1.427 . S
N542 C539 1.384 . S
N543 C535 1.427 . S
N543 C541 1.384 . S
H544 C550 0.930 . S
H545 C554 0.930 . S
H546 C559 0.929 . S
H547 C557 0.929 . S
H548 C552 0.929 . S
H549 C558 0.929 . S
C550 H544 0.930 . S
C550 C551 1.367 . S
C550 C558 1.378 . S
C551 C550 1.367 . S
C551 C559 1.433 . S
C552 H548 0.929 . S
C552 C554 1.378 . S
C552 C556 1.350 . S
C553 C556 1.463 . S
C553 C558 1.350 . S
C553 N561 1.427 . S
C554 H545 0.930 . S
C554 C552 1.378 . S
C554 C555 1.367 . S
C555 C554 1.367 . S
C555 C557 1.433 . S
C556 C552 1.350 . S
C556 C553 1.463 . S
C556 N560 1.427 . S
C557 H547 0.929 . S
C557 C555 1.433 . S
C557 N560 1.384 . S
C558 H549 0.929 . S
C558 C550 1.378 . S
C558 C553 1.350 . S
C559 H546 0.929 . S
C559 C551 1.433 . S
C559 N561 1.384 . S
N560 C556 1.427 . S
N560 C557 1.384 . S
N561 C553 1.427 . S
N561 C559 1.384 . S
H562 C568 0.930 . S
H563 C572 0.930 . S
H564 C577 0.929 . S
H565 C575 0.929 . S
H566 C570 0.929 . S
H567 C576 0.929 . S
C568 H562 0.930 . S
C568 C569 1.367 . S
C568 C576 1.378 . S
C569 C568 1.367 . S
C569 C577 1.433 . S
C570 H566 0.929 . S
C570 C572 1.378 1_565 S
C570 C574 1.350 . S
C571 C574 1.463 . S
C571 C576 1.350 . S
C571 N579 1.427 . S
C572 H563 0.930 . S
C572 C570 1.378 1_545 S
C572 C573 1.367 . S
C573 C572 1.367 . S
C573 C575 1.433 . S
C574 C570 1.350 . S
C574 C571 1.463 . S
C574 N578 1.427 1_565 S
C575 H565 0.929 . S
C575 C573 1.433 . S
C575 N578 1.384 . S
C576 H567 0.929 . S
C576 C568 1.378 . S
C576 C571 1.350 . S
C577 H564 0.929 . S
C577 C569 1.433 . S
C577 N579 1.384 . S
N578 C574 1.427 1_545 S
N578 C575 1.384 . S
N579 C571 1.427 . S
N579 C577 1.384 . S
H580 C586 0.930 . S
H581 C590 0.930 . S
H582 C595 0.929 . S
H583 C593 0.929 . S
H584 C588 0.929 . S
H585 C594 0.929 . S
C586 H580 0.930 . S
C586 C587 1.367 . S
C586 C594 1.378 . S
C587 C586 1.367 . S
C587 C595 1.433 . S
C588 H584 0.929 . S
C588 C590 1.378 . S
C588 C592 1.350 . S
C589 C592 1.463 . S
C589 C594 1.350 . S
C589 N597 1.427 . S
C590 H581 0.930 . S
C590 C588 1.378 . S
C590 C591 1.367 . S
C591 C590 1.367 . S
C591 C593 1.433 . S
C592 C588 1.350 . S
C592 C589 1.463 . S
C592 N596 1.427 . S
C593 H583 0.929 . S
C593 C591 1.433 . S
C593 N596 1.384 . S
C594 H585 0.929 . S
C594 C586 1.378 . S
C594 C589 1.350 . S
C595 H582 0.929 . S
C595 C587 1.433 . S
C595 N597 1.384 . S
N596 C592 1.427 . S
N596 C593 1.384 . S
N597 C589 1.427 . S
N597 C595 1.384 . S
H598 C604 0.930 . S
H599 C608 0.930 . S
H600 C613 0.929 . S
H601 C611 0.929 . S
H602 C606 0.929 1_545 S
H603 C612 0.929 . S
C604 H598 0.930 . S
C604 C605 1.367 . S
C604 C612 1.378 . S
C605 C604 1.367 . S
C605 C613 1.433 . S
C606 H602 0.929 1_565 S
C606 C608 1.378 . S
C606 C610 1.349 1_565 S
C607 C610 1.480 . S
C607 C612 1.350 . S
C607 N615 1.427 . S
C608 H599 0.930 . S
C608 C606 1.378 . S
C608 C609 1.367 . S
C609 C608 1.367 . S
C609 C611 1.433 . S
C610 C606 1.349 1_545 S
C610 C607 1.480 . S
C610 N614 1.412 1_545 S
C611 H601 0.929 . S
C611 C609 1.433 . S
C611 N614 1.384 . S
C612 H603 0.929 . S
C612 C604 1.378 . S
C612 C607 1.350 . S
C613 H600 0.929 . S
C613 C605 1.433 . S
C613 N615 1.384 . S
N614 C610 1.412 1_565 S
N614 C611 1.384 . S
N615 C607 1.427 . S
N615 C613 1.384 . S
H616 C622 0.930 . S
H617 C626 0.930 . S
H618 C631 0.929 . S
H619 C629 0.929 . S
H620 C624 0.929 . S
H621 C630 0.929 . S
C622 H616 0.930 . S
C622 C623 1.367 . S
C622 C630 1.378 . S
C623 C622 1.367 . S
C623 C631 1.433 . S
C624 H620 0.929 . S
C624 C626 1.378 . S
C624 C628 1.347 1_455 S
C625 C628 1.468 . S
C625 C630 1.350 . S
C625 N633 1.427 . S
C626 H617 0.930 . S
C626 C624 1.378 . S
C626 C627 1.367 . S
C627 C626 1.367 . S
C627 C629 1.433 . S
C628 C624 1.347 1_655 S
C628 C625 1.468 . S
C628 N632 1.425 1_655 S
C629 H619 0.929 . S
C629 C627 1.433 . S
C629 N632 1.384 . S
C630 H621 0.929 . S
C630 C622 1.378 . S
C630 C625 1.350 . S
C631 H618 0.929 . S
C631 C623 1.433 . S
C631 N633 1.384 . S
N632 C628 1.425 1_455 S
N632 C629 1.384 . S
N633 C625 1.427 . S
N633 C631 1.384 . S
H634 C640 0.930 . S
H635 C644 0.930 . S
H636 C649 0.929 . S
H637 C647 0.929 . S
H638 C642 0.929 . S
H639 C648 0.929 . S
C640 H634 0.930 . S
C640 C641 1.367 . S
C640 C648 1.378 . S
C641 C640 1.367 . S
C641 C649 1.433 . S
C642 H638 0.929 . S
C642 C644 1.378 . S
C642 C646 1.350 . S
C643 C646 1.463 . S
C643 C648 1.350 . S
C643 N651 1.427 . S
C644 H635 0.930 . S
C644 C642 1.378 . S
C644 C645 1.367 . S
C645 C644 1.367 . S
C645 C647 1.433 . S
C646 C642 1.350 . S
C646 C643 1.463 . S
C646 N650 1.427 . S
C647 H637 0.929 . S
C647 C645 1.433 . S
C647 N650 1.384 . S
C648 H639 0.929 . S
C648 C640 1.378 . S
C648 C643 1.350 . S
C649 H636 0.929 . S
C649 C641 1.433 . S
C649 N651 1.384 . S
N650 C646 1.427 . S
N650 C647 1.384 . S
N651 C643 1.427 . S
N651 C649 1.384 . S
H652 C658 0.930 . S
H653 C662 0.930 . S
H654 C667 0.929 . S
H655 C665 0.929 . S
H656 C660 0.929 . S
H657 C666 0.929 . S
C658 H652 0.930 . S
C658 C659 1.367 . S
C658 C666 1.378 . S
C659 C658 1.367 . S
C659 C667 1.433 . S
C660 H656 0.929 . S
C660 C662 1.378 1_455 S
C660 C664 1.350 . S
C661 C664 1.463 . S
C661 C666 1.350 . S
C661 N669 1.427 . S
C662 H653 0.930 . S
C662 C660 1.378 1_655 S
C662 C663 1.367 . S
C663 C662 1.367 . S
C663 C665 1.433 . S
C664 C660 1.350 . S
C664 C661 1.463 . S
C664 N668 1.427 1_455 S
C665 H655 0.929 . S
C665 C663 1.433 . S
C665 N668 1.384 . S
C666 H657 0.929 . S
C666 C658 1.378 . S
C666 C661 1.350 . S
C667 H654 0.929 . S
C667 C659 1.433 . S
C667 N669 1.384 . S
N668 C664 1.427 1_655 S
N668 C665 1.384 . S
N669 C661 1.427 . S
N669 C667 1.384 . S
H670 C676 0.930 . S
H671 C680 0.930 . S
H672 C685 0.929 . S
H673 C683 0.929 . S
H674 C678 0.929 . S
H675 C684 0.929 . S
C676 H670 0.930 . S
C676 C677 1.367 . S
C676 C684 1.378 . S
C677 C676 1.367 . S
C677 C685 1.433 . S
C678 H674 0.929 . S
C678 C680 1.378 . S
C678 C682 1.350 . S
C679 C682 1.463 . S
C679 C684 1.350 . S
C679 N687 1.427 . S
C680 H671 0.930 . S
C680 C678 1.378 . S
C680 C681 1.367 . S
C681 C680 1.367 . S
C681 C683 1.433 . S
C682 C678 1.350 . S
C682 C679 1.463 . S
C682 N686 1.427 . S
C683 H673 0.929 . S
C683 C681 1.433 . S
C683 N686 1.384 . S
C684 H675 0.929 . S
C684 C676 1.378 . S
C684 C679 1.350 . S
C685 H672 0.929 . S
C685 C677 1.433 . S
C685 N687 1.384 . S
N686 C682 1.427 . S
N686 C683 1.384 . S
N687 C679 1.427 . S
N687 C685 1.384 . S
H688 C694 0.930 . S
H689 C698 0.930 . S
H690 C703 0.929 . S
H691 C701 0.929 . S
H692 C696 0.929 . S
H693 C702 0.929 . S
C694 H688 0.930 . S
C694 C695 1.367 . S
C694 C702 1.378 . S
C695 C694 1.367 . S
C695 C703 1.433 . S
C696 H692 0.929 . S
C696 C698 1.378 . S
C696 C700 1.350 . S
C697 C700 1.463 1_655 S
C697 C702 1.350 . S
C697 N705 1.427 . S
C698 H689 0.930 . S
C698 C696 1.378 . S
C698 C699 1.367 . S
C699 C698 1.367 . S
C699 C701 1.433 . S
C700 C696 1.350 . S
C700 C697 1.463 1_455 S
C700 N704 1.427 . S
C701 H691 0.929 . S
C701 C699 1.433 . S
C701 N704 1.384 . S
C702 H693 0.929 . S
C702 C694 1.378 . S
C702 C697 1.350 . S
C703 H690 0.929 . S
C703 C695 1.433 . S
C703 N705 1.384 . S
N704 C700 1.427 . S
N704 C701 1.384 . S
N705 C697 1.427 . S
N705 C703 1.384 . S
H706 C712 0.930 . S
H707 C716 0.930 . S
H708 C721 0.929 . S
H709 C719 0.929 . S
H710 C714 0.929 . S
H711 C720 0.929 . S
C712 H706 0.930 . S
C712 C713 1.367 . S
C712 C720 1.378 . S
C713 C712 1.367 . S
C713 C721 1.433 . S
C714 H710 0.929 . S
C714 C716 1.378 . S
C714 C718 1.350 . S
C715 C718 1.463 1_655 S
C715 C720 1.350 . S
C715 N723 1.427 . S
C716 H707 0.930 . S
C716 C714 1.378 . S
C716 C717 1.367 . S
C717 C716 1.367 . S
C717 C719 1.433 . S
C718 C714 1.350 . S
C718 C715 1.463 1_455 S
C718 N722 1.427 . S
C719 H709 0.929 . S
C719 C717 1.433 . S
C719 N722 1.384 . S
C720 H711 0.929 . S
C720 C712 1.378 . S
C720 C715 1.350 . S
C721 H708 0.929 . S
C721 C713 1.433 . S
C721 N723 1.384 . S
N722 C718 1.427 . S
N722 C719 1.384 . S
N723 C715 1.427 . S
N723 C721 1.384 . S
H724 C730 0.930 . S
H725 C734 0.930 . S
H726 C739 0.929 . S
H727 C737 0.929 . S
H728 C732 0.929 . S
H729 C738 0.929 . S
C730 H724 0.930 . S
C730 C731 1.367 . S
C730 C738 1.378 . S
C731 C730 1.367 . S
C731 C739 1.433 . S
C732 H728 0.929 . S
C732 C734 1.378 . S
C732 C736 1.350 . S
C733 C736 1.463 1_545 S
C733 C738 1.350 . S
C733 N741 1.427 . S
C734 H725 0.930 . S
C734 C732 1.378 . S
C734 C735 1.367 . S
C735 C734 1.367 . S
C735 C737 1.433 . S
C736 C732 1.350 . S
C736 C733 1.463 1_565 S
C736 N740 1.427 . S
C737 H727 0.929 . S
C737 C735 1.433 . S
C737 N740 1.384 . S
C738 H729 0.929 . S
C738 C730 1.378 . S
C738 C733 1.350 . S
C739 H726 0.929 . S
C739 C731 1.433 . S
C739 N741 1.384 . S
N740 C736 1.427 . S
N740 C737 1.384 . S
N741 C733 1.427 . S
N741 C739 1.384 . S
H742 C748 0.930 . S
H743 C752 0.930 . S
H744 C757 0.929 . S
H745 C755 0.929 . S
H746 C750 0.929 . S
H747 C756 0.929 . S
C748 H742 0.930 . S
C748 C749 1.367 . S
C748 C756 1.378 . S
C749 C748 1.367 . S
C749 C757 1.433 . S
C750 H746 0.929 . S
C750 C752 1.378 . S
C750 C754 1.350 . S
C751 C754 1.463 1_545 S
C751 C756 1.350 . S
C751 N759 1.427 . S
C752 H743 0.930 . S
C752 C750 1.378 . S
C752 C753 1.367 . S
C753 C752 1.367 . S
C753 C755 1.433 . S
C754 C750 1.350 . S
C754 C751 1.463 1_565 S
C754 N758 1.427 . S
C755 H745 0.929 . S
C755 C753 1.433 . S
C755 N758 1.384 . S
C756 H747 0.929 . S
C756 C748 1.378 . S
C756 C751 1.350 . S
C757 H744 0.929 . S
C757 C749 1.433 . S
C757 N759 1.384 . S
N758 C754 1.427 . S
N758 C755 1.384 . S
N759 C751 1.427 . S
N759 C757 1.384 . S
C479 C3 1.471 . S
C483 C298 1.474 . S
C497 C62 1.468 . S
C501 C357 1.468 . S
C515 C121 1.471 . S
C519 C416 1.469 . S
C533 C239 1.472 . S
C537 C180 1.475 . S
C551 C5 1.648 . S
C555 C269 1.640 . S
C569 C64 1.650 . S
C573 C328 1.639 . S
C587 C387 1.639 . S
C591 C123 1.650 . S
C605 C182 1.650 . S
C609 C446 1.637 . S
C623 C241 1.649 . S
C627 C33 1.642 . S
C641 C92 1.641 . S
C645 C300 1.650 . S
C659 C359 1.650 . S
C663 C151 1.640 . S
C677 C210 1.638 . S
C681 C418 1.649 . S
C695 C170 0.825 . S
C699 C52 0.828 . S
C713 C229 0.822 . S
C717 C111 0.817 . S
C731 C288 0.814 . S
C735 C406 0.818 . S
C749 C347 0.818 . S
C753 C465 0.823 . S
