# Generated by pormake.
# Topology atn, (4)-cn, num edge types: 1
# Building blocks:
#     Node 0, Type 0, BuildingBlock: QUQFOY_clean_sbu_3, # of connection points: 4
#     Node 1, Type 0, BuildingBlock: QUQFOY_clean_sbu_3, # of connection points: 4
#     Node 2, Type 0, BuildingBlock: QUQFOY_clean_sbu_3, # of connection points: 4
#     Node 3, Type 0, BuildingBlock: QUQFOY_clean_sbu_3, # of connection points: 4
#     Node 4, Type 0, BuildingBlock: QUQFOY_clean_sbu_3, # of connection points: 4
#     Node 5, Type 0, BuildingBlock: QUQFOY_clean_sbu_3, # of connection points: 4
#     Node 6, Type 0, BuildingBlock: QUQFOY_clean_sbu_3, # of connection points: 4
#     Node 7, Type 0, BuildingBlock: QUQFOY_clean_sbu_3, # of connection points: 4
#     Node 8, Type 0, BuildingBlock: QUQFOY_clean_sbu_3, # of connection points: 4
#     Node 9, Type 0, BuildingBlock: QUQFOY_clean_sbu_3, # of connection points: 4
#     Node 10, Type 0, BuildingBlock: QUQFOY_clean_sbu_3, # of connection points: 4
#     Node 11, Type 0, BuildingBlock: QUQFOY_clean_sbu_3, # of connection points: 4
#     Node 12, Type 0, BuildingBlock: QUQFOY_clean_sbu_3, # of connection points: 4
#     Node 13, Type 0, BuildingBlock: QUQFOY_clean_sbu_3, # of connection points: 4
#     Node 14, Type 0, BuildingBlock: QUQFOY_clean_sbu_3, # of connection points: 4
#     Node 15, Type 0, BuildingBlock: QUQFOY_clean_sbu_3, # of connection points: 4
#     Edge 16, Type (0, 0), BuildingBlock: ZUJKAS_clean_linker_0, # of connection points: 2
#     Edge 17, Type (0, 0), BuildingBlock: ZUJKAS_clean_linker_0, # of connection points: 2
#     Edge 18, Type (0, 0), BuildingBlock: ZUJKAS_clean_linker_0, # of connection points: 2
#     Edge 19, Type (0, 0), BuildingBlock: ZUJKAS_clean_linker_0, # of connection points: 2
#     Edge 20, Type (0, 0), BuildingBlock: ZUJKAS_clean_linker_0, # of connection points: 2
#     Edge 21, Type (0, 0), BuildingBlock: ZUJKAS_clean_linker_0, # of connection points: 2
#     Edge 22, Type (0, 0), BuildingBlock: ZUJKAS_clean_linker_0, # of connection points: 2
#     Edge 23, Type (0, 0), BuildingBlock: ZUJKAS_clean_linker_0, # of connection points: 2
#     Edge 24, Type (0, 0), BuildingBlock: ZUJKAS_clean_linker_0, # of connection points: 2
#     Edge 25, Type (0, 0), BuildingBlock: ZUJKAS_clean_linker_0, # of connection points: 2
#     Edge 26, Type (0, 0), BuildingBlock: ZUJKAS_clean_linker_0, # of connection points: 2
#     Edge 27, Type (0, 0), BuildingBlock: ZUJKAS_clean_linker_0, # of connection points: 2
#     Edge 28, Type (0, 0), BuildingBlock: ZUJKAS_clean_linker_0, # of connection points: 2
#     Edge 29, Type (0, 0), BuildingBlock: ZUJKAS_clean_linker_0, # of connection points: 2
#     Edge 30, Type (0, 0), BuildingBlock: ZUJKAS_clean_linker_0, # of connection points: 2
#     Edge 31, Type (0, 0), BuildingBlock: ZUJKAS_clean_linker_0, # of connection points: 2
#     Edge 32, Type (0, 0), BuildingBlock: ZUJKAS_clean_linker_0, # of connection points: 2
#     Edge 33, Type (0, 0), BuildingBlock: ZUJKAS_clean_linker_0, # of connection points: 2
#     Edge 34, Type (0, 0), BuildingBlock: ZUJKAS_clean_linker_0, # of connection points: 2
#     Edge 35, Type (0, 0), BuildingBlock: ZUJKAS_clean_linker_0, # of connection points: 2
#     Edge 36, Type (0, 0), BuildingBlock: ZUJKAS_clean_linker_0, # of connection points: 2
#     Edge 37, Type (0, 0), BuildingBlock: ZUJKAS_clean_linker_0, # of connection points: 2
#     Edge 38, Type (0, 0), BuildingBlock: ZUJKAS_clean_linker_0, # of connection points: 2
#     Edge 39, Type (0, 0), BuildingBlock: ZUJKAS_clean_linker_0, # of connection points: 2
#     Edge 40, Type (0, 0), BuildingBlock: ZUJKAS_clean_linker_0, # of connection points: 2
#     Edge 41, Type (0, 0), BuildingBlock: ZUJKAS_clean_linker_0, # of connection points: 2
#     Edge 42, Type (0, 0), BuildingBlock: ZUJKAS_clean_linker_0, # of connection points: 2
#     Edge 43, Type (0, 0), BuildingBlock: ZUJKAS_clean_linker_0, # of connection points: 2
#     Edge 44, Type (0, 0), BuildingBlock: ZUJKAS_clean_linker_0, # of connection points: 2
#     Edge 45, Type (0, 0), BuildingBlock: ZUJKAS_clean_linker_0, # of connection points: 2
#     Edge 46, Type (0, 0), BuildingBlock: ZUJKAS_clean_linker_0, # of connection points: 2
#     Edge 47, Type (0, 0), BuildingBlock: ZUJKAS_clean_linker_0, # of connection points: 2
# Relax obj value: 0.028
# Max RMSD: 0.057
# Mean RMSD: 0.057
data_MOF--net-atn--node1-QUQFOY_clean_sbu_3--edge1-ZUJKAS_clean_linker_0
_symmetry_space_group_name_H-M    P1
_symmetry_Int_Tables_number       1
_symmetry_cell_setting            triclinic
loop_
_symmetry_equiv_pos_as_xyz
'x, y, z'
_cell_length_a     79.682095
_cell_length_b     79.644514
_cell_length_c     36.416556
_cell_angle_alpha  90.097719
_cell_angle_beta   89.991096
_cell_angle_gamma 90.078068
loop_
_atom_site_label
_atom_site_type_symbol
_atom_site_fract_x
_atom_site_fract_y
_atom_site_fract_z
_atom_type_partial_charge
C0 C 0.16338 0.35341 0.93988 0.0
O1 O 0.15746 0.34364 0.96418 0.0
Cd2 Cd 0.16738 0.34303 0.02617 0.0
O3 O 0.17486 0.36395 0.94799 0.0
Cd4 Cd 0.19098 0.37296 0.00287 0.0
C5 C 0.20897 0.33486 0.0091 0.0
O6 O 0.1679 0.3716 0.04632 0.0
O7 O 0.19256 0.37336 0.07021 0.0
O8 O 0.18793 0.40149 0.98085 0.0
C9 C 0.17679 0.37355 0.07479 0.0
O10 O 0.19523 0.33002 0.02357 0.0
C11 C 0.20307 0.40577 0.9863 0.0
O12 O 0.21052 0.34967 -0.00356 0.0
O13 O 0.2129 0.39453 -0.00156 0.0
C14 C 0.63483 0.16353 0.93283 0.0
O15 O 0.6465 0.15961 0.95496 0.0
Cd16 Cd 0.64773 0.16754 0.01829 0.0
O17 O 0.62269 0.17285 0.94299 0.0
Cd18 Cd 0.61429 0.18821 -0.00049 0.0
C19 C 0.65099 0.20992 0.00513 0.0
O20 O 0.61969 0.1649 0.0408 0.0
O21 O 0.61358 0.1884 0.06679 0.0
O22 O 0.58525 0.18369 0.98139 0.0
C23 C 0.61665 0.17288 0.07013 0.0
O24 O 0.65759 0.19649 0.01731 0.0
C25 C 0.58059 0.19871 0.98702 0.0
O26 O 0.6358 0.21009 -0.00575 0.0
O27 O 0.59178 0.20904 -0.0026 0.0
C28 C 0.82314 0.63589 0.92552 0.0
O29 O 0.82954 0.64699 0.94634 0.0
Cd30 Cd 0.82273 0.65037 0.00984 0.0
O31 O 0.81263 0.62526 0.93812 0.0
Cd32 Cd 0.79932 0.61786 -0.00234 0.0
C33 C 0.77991 0.65555 0.00151 0.0
O34 O 0.82433 0.62274 0.03464 0.0
O35 O 0.80148 0.6184 0.06468 0.0
O36 O 0.8022 0.5891 0.97614 0.0
C37 C 0.81719 0.62076 0.06538 0.0
O38 O 0.79418 0.66162 0.01016 0.0
C39 C 0.78816 0.5841 0.98849 0.0
O40 O 0.77832 0.64007 -0.00663 0.0
O41 O 0.77896 0.59497 0.00418 0.0
C42 C 0.35084 0.82319 0.93019 0.0
O43 O 0.34034 0.82915 0.95295 0.0
Cd44 Cd 0.33888 0.82039 0.01569 0.0
O45 O 0.36154 0.81225 0.94034 0.0
Cd46 Cd 0.36997 0.79715 -0.0031 0.0
C47 C 0.33229 0.77818 0.00138 0.0
O48 O 0.36708 0.82113 0.03801 0.0
O49 O 0.36954 0.79705 0.06421 0.0
O50 O 0.3981 0.79995 0.97182 0.0
C51 C 0.36879 0.81287 0.06744 0.0
O52 O 0.32686 0.79203 0.01424 0.0
C53 C 0.40321 0.78569 0.98253 0.0
O54 O 0.34734 0.7768 -0.00996 0.0
O55 O 0.39272 0.77647 -0.00067 0.0
C56 C 0.16172 0.63446 0.04197 0.0
O57 O 0.15716 0.64528 0.01847 0.0
Cd58 Cd 0.16426 0.6441 0.95453 0.0
O59 O 0.17133 0.62236 0.03298 0.0
Cd60 Cd 0.18642 0.61345 0.9768 0.0
C61 C 0.20606 0.65072 0.96501 0.0
O62 O 0.16253 0.61536 0.93524 0.0
O63 O 0.18669 0.61231 0.9096 0.0
O64 O 0.18393 0.58463 -0.002 0.0
C65 C 0.17087 0.61269 0.90623 0.0
O66 O 0.1925 0.65577 0.95023 0.0
C67 C 0.19915 0.58077 -0.00786 0.0
O68 O 0.20686 0.63636 0.98023 0.0
O69 O 0.20866 0.59233 0.98017 0.0
C70 C 0.3507 0.16088 0.04116 0.0
O71 O 0.34067 0.15543 0.01678 0.0
Cd72 Cd 0.34052 0.16455 0.95403 0.0
O73 O 0.36187 0.17175 0.03312 0.0
Cd74 Cd 0.37177 0.18746 0.97857 0.0
C75 C 0.33416 0.20666 0.96882 0.0
O76 O 0.36919 0.16427 0.93544 0.0
O77 O 0.37428 0.18846 0.91154 0.0
O78 O 0.40009 0.18385 0.00175 0.0
C79 C 0.37242 0.17279 0.90697 0.0
O80 O 0.32888 0.19296 0.95486 0.0
C81 C 0.40459 0.19898 -0.00323 0.0
O82 O 0.34888 0.20778 0.98221 0.0
O83 O 0.39355 0.209 0.98451 0.0
C84 C 0.8214 0.3507 0.04531 0.0
O85 O 0.8269 0.3404 0.02152 0.0
Cd86 Cd 0.81874 0.34034 0.95827 0.0
O87 O 0.81117 0.36227 0.03618 0.0
Cd88 Cd 0.79708 0.37297 0.97993 0.0
C89 C 0.77595 0.33638 0.96935 0.0
O90 O 0.82118 0.36896 0.93964 0.0
O91 O 0.79811 0.37586 0.913 0.0
O92 O 0.80084 0.40053 0.00795 0.0
C93 C 0.81364 0.37278 0.91022 0.0
O94 O 0.78974 0.33012 0.95809 0.0
C95 C 0.78667 0.4062 -0.00203 0.0
O96 O 0.7753 0.35146 0.98093 0.0
O97 O 0.77713 0.39625 0.98042 0.0
C98 C 0.63333 0.82379 0.05218 0.0
O99 O 0.6435 0.83065 0.02994 0.0
Cd100 Cd 0.64505 0.82327 0.96638 0.0
O101 O 0.62278 0.8129 0.04087 0.0
Cd102 Cd 0.61417 0.79958 0.9821 0.0
C103 C 0.65183 0.78077 0.97549 0.0
O104 O 0.61698 0.82436 0.94311 0.0
O105 O 0.61468 0.80063 0.91509 0.0
O106 O 0.58567 0.80208 0.00532 0.0
C107 C 0.61523 0.8165 0.91309 0.0
O108 O 0.65733 0.79508 0.96543 0.0
C109 C 0.58082 0.78779 -0.00597 0.0
O110 O 0.63663 0.77895 0.98547 0.0
O111 O 0.59166 0.77865 0.97811 0.0
C112 C 0.66539 0.84908 0.43491 0.0
O113 O 0.65917 0.83902 0.45824 0.0
Cd114 Cd 0.66771 0.83851 0.52105 0.0
O115 O 0.67637 0.85988 0.44463 0.0
Cd116 Cd 0.69082 0.86911 0.50176 0.0
C117 C 0.71 0.83167 0.50955 0.0
O118 O 0.66629 0.8671 0.54161 0.0
O119 O 0.69006 0.86991 0.56901 0.0
O120 O 0.68856 0.89699 0.47498 0.0
C121 C 0.67421 0.86957 0.57125 0.0
O122 O 0.69592 0.82619 0.52099 0.0
C123 C 0.70268 0.90216 0.48654 0.0
O124 O 0.7115 0.84675 0.49851 0.0
O125 O 0.71158 0.89178 0.50435 0.0
C126 C 0.13567 0.66526 0.42537 0.0
O127 O 0.14686 0.65972 0.44695 0.0
Cd128 Cd 0.14775 0.66527 0.51146 0.0
O129 O 0.12407 0.6749 0.43701 0.0
Cd130 Cd 0.11657 0.68835 0.49633 0.0
C131 C 0.15438 0.70745 0.50533 0.0
O132 O 0.11954 0.66326 0.5341 0.0
O133 O 0.11681 0.68663 0.56336 0.0
O134 O 0.08737 0.68645 0.47725 0.0
C135 C 0.11747 0.67074 0.56445 0.0
O136 O 0.15992 0.69328 0.51595 0.0
C137 C 0.08357 0.70138 0.48619 0.0
O138 O 0.13935 0.70894 0.49397 0.0
O139 O 0.0953 0.71049 0.4989 0.0
C140 C 0.32109 0.13124 0.42222 0.0
O141 O 0.32824 0.14156 0.44377 0.0
Cd142 Cd 0.3218 0.14442 0.50768 0.0
O143 O 0.30996 0.12111 0.43418 0.0
Cd144 Cd 0.29637 0.11366 0.49324 0.0
C145 C 0.27951 0.15256 0.50048 0.0
O146 O 0.32129 0.11651 0.5313 0.0
O147 O 0.29806 0.11323 0.56048 0.0
O148 O 0.2977 0.0846 0.47323 0.0
C149 C 0.31387 0.11477 0.56179 0.0
O150 O 0.29413 0.15761 0.5094 0.0
C151 C 0.28263 0.08103 0.48151 0.0
O152 O 0.27698 0.13734 0.49115 0.0
O153 O 0.27371 0.09284 0.49447 0.0
C154 C 0.85417 0.32103 0.42646 0.0
O155 O 0.84366 0.3272 0.44895 0.0
Cd156 Cd 0.84214 0.32012 0.51275 0.0
O157 O 0.86533 0.31072 0.43736 0.0
Cd158 Cd 0.87469 0.29751 0.49566 0.0
C159 C 0.83749 0.27727 0.50431 0.0
O160 O 0.87024 0.32183 0.53505 0.0
O161 O 0.87555 0.2986 0.56283 0.0
O162 O 0.90355 0.3014 0.47586 0.0
C163 C 0.87292 0.31425 0.56502 0.0
O164 O 0.83131 0.29136 0.51392 0.0
C165 C 0.90811 0.28641 0.48217 0.0
O166 O 0.85276 0.27614 0.49425 0.0
O167 O 0.89694 0.27637 0.49389 0.0
C168 C 0.66569 0.13379 0.55441 0.0
O169 O 0.66134 0.14534 0.53239 0.0
Cd170 Cd 0.66885 0.14653 0.46886 0.0
O171 O 0.67523 0.12186 0.54399 0.0
Cd172 Cd 0.69041 0.11351 0.48723 0.0
C173 C 0.71134 0.15056 0.4807 0.0
O174 O 0.66649 0.11835 0.44695 0.0
O175 O 0.68976 0.11221 0.42014 0.0
O176 O 0.68687 0.08501 0.51014 0.0
C177 C 0.67421 0.11519 0.41736 0.0
O178 O 0.69763 0.15679 0.46905 0.0
C179 C 0.70124 0.07993 0.5 0.0
O180 O 0.71199 0.13539 0.4917 0.0
O181 O 0.71085 0.09065 0.48505 0.0
C182 C 0.85697 0.66152 0.54549 0.0
O183 O 0.84729 0.65567 0.52087 0.0
Cd184 Cd 0.84654 0.66548 0.45879 0.0
O185 O 0.86758 0.673 0.53783 0.0
Cd186 Cd 0.87715 0.68937 0.48373 0.0
C187 C 0.83875 0.7073 0.4758 0.0
O188 O 0.87513 0.66654 0.43954 0.0
O189 O 0.87965 0.69108 0.41685 0.0
O190 O 0.90561 0.68655 0.50687 0.0
C191 C 0.87804 0.67543 0.41147 0.0
O192 O 0.83373 0.69335 0.4626 0.0
C193 C 0.90952 0.70189 0.50268 0.0
O194 O 0.85373 0.70901 0.48748 0.0
O195 O 0.89813 0.7116 0.49079 0.0
C196 C 0.32388 0.85713 0.54985 0.0
O197 O 0.33047 0.84727 0.52654 0.0
Cd198 Cd 0.32141 0.84485 0.46424 0.0
O199 O 0.31217 0.86713 0.54038 0.0
Cd200 Cd 0.29671 0.87499 0.48367 0.0
C201 C 0.27956 0.83629 0.47961 0.0
O202 O 0.32009 0.87283 0.44094 0.0
O203 O 0.29553 0.87408 0.41648 0.0
O204 O 0.29877 0.90415 0.5028 0.0
C205 C 0.3113 0.87388 0.41208 0.0
O206 O 0.29377 0.83135 0.46771 0.0
C207 C 0.28344 0.90763 0.49727 0.0
O208 O 0.2774 0.85146 0.48962 0.0
O209 O 0.27407 0.89575 0.48619 0.0
C210 C 0.13399 0.32534 0.5587 0.0
O211 O 0.14466 0.33215 0.53751 0.0
Cd212 Cd 0.14801 0.3246 0.47437 0.0
O213 O 0.12388 0.31423 0.54654 0.0
Cd214 Cd 0.11697 0.30039 0.48736 0.0
C215 C 0.15515 0.28221 0.48424 0.0
O216 O 0.12049 0.3249 0.44823 0.0
O217 O 0.11872 0.30109 0.42033 0.0
O218 O 0.08768 0.30316 0.50421 0.0
C219 C 0.11941 0.31695 0.41819 0.0
O220 O 0.16068 0.29659 0.47481 0.0
C221 C 0.08361 0.28814 0.49661 0.0
O222 O 0.13977 0.2802 0.49271 0.0
O223 O 0.09525 0.27852 0.48547 0.0
H224 H 0.22992 0.56791 0.97386 0.0
H225 H 0.23825 0.53827 0.97379 0.0
H226 H 0.19008 0.52467 0.01889 0.0
H227 H 0.18172 0.55413 0.01938 0.0
H228 H 0.2182 0.50732 0.05028 0.0
H229 H 0.21729 0.50562 0.89722 0.0
H230 H 0.23039 0.52111 0.91904 0.0
H231 H 0.208 0.52262 0.92295 0.0
C232 C 0.22121 0.55861 0.98427 0.0
C233 C 0.2051 0.56331 -0.0037 0.0
C234 C 0.22596 0.54171 0.98405 0.0
C235 C 0.21468 0.52932 -0.00414 0.0
C236 C 0.19894 0.53407 0.0096 0.0
H237 H 0.18517 0.43142 0.95657 0.0
H238 H 0.19229 0.46121 0.95696 0.0
C239 C 0.19418 0.55091 0.00977 0.0
C240 C 0.21854 0.51126 -0.00812 0.0
H241 H 0.22007 0.47994 0.92786 0.0
C242 C 0.21899 0.5013 0.02359 0.0
C243 C 0.21946 0.50355 0.95691 0.0
C244 C 0.21868 0.51369 0.92197 0.0
C245 C 0.21942 0.48373 0.02126 0.0
C246 C 0.21958 0.47599 0.98626 0.0
C247 C 0.22005 0.48598 0.95459 0.0
C248 C 0.21666 0.45776 0.98202 0.0
C249 C 0.21856 0.47355 0.05614 0.0
C250 C 0.22827 0.44593 -0.00508 0.0
C251 C 0.22422 0.42882 -0.00526 0.0
C252 C 0.20851 0.42338 0.98169 0.0
C253 C 0.19733 0.43522 0.96701 0.0
C254 C 0.20139 0.45225 0.96712 0.0
H255 H 0.21635 0.48151 0.08074 0.0
H256 H 0.20836 0.46407 0.05431 0.0
H257 H 0.23057 0.46674 0.06002 0.0
H258 H 0.24021 0.44997 0.0061 0.0
H259 H 0.23311 0.41997 0.00611 0.0
H260 H 0.41907 0.229 0.97824 0.0
H261 H 0.44911 0.23576 0.97832 0.0
H262 H 0.45993 0.1874 0.02575 0.0
H263 H 0.43006 0.18058 0.02602 0.0
H264 H 0.4791 0.21519 0.05544 0.0
H265 H 0.48006 0.21153 0.90255 0.0
H266 H 0.46535 0.22576 0.92343 0.0
H267 H 0.46273 0.20355 0.92928 0.0
C268 C 0.42784 0.21994 -0.01072 0.0
C269 C 0.42224 0.20418 0.00177 0.0
C270 C 0.44497 0.2238 -0.01085 0.0
C271 C 0.45669 0.21197 0.00154 0.0
C272 C 0.45105 0.19666 0.01598 0.0
H273 H 0.55457 0.17958 0.96227 0.0
H274 H 0.52471 0.18635 0.96428 0.0
C275 C 0.43398 0.19278 0.01603 0.0
C276 C 0.47492 0.21475 -0.0029 0.0
H277 H 0.50597 0.21399 0.93253 0.0
C278 C 0.48501 0.21527 0.02862 0.0
C279 C 0.4825 0.21471 0.96197 0.0
C280 C 0.47219 0.21377 0.92726 0.0
C281 C 0.50258 0.21503 0.02598 0.0
C282 C 0.51015 0.21437 -0.00913 0.0
C283 C 0.50006 0.21459 0.95934 0.0
C284 C 0.52832 0.2113 0.98652 0.0
C285 C 0.5129 0.21448 0.0607 0.0
C286 C 0.54022 0.2233 -0.00255 0.0
C287 C 0.55734 0.21947 -0.00372 0.0
C288 C 0.56276 0.20358 0.98422 0.0
C289 C 0.5508 0.19189 0.97185 0.0
C290 C 0.53374 0.19575 0.97292 0.0
H291 H 0.505 0.21286 0.08559 0.0
H292 H 0.5221 0.20403 0.05942 0.0
H293 H 0.52004 0.22638 0.06356 0.0
H294 H 0.53624 0.23545 0.00762 0.0
H295 H 0.56627 0.22875 0.00589 0.0
H296 H 0.79822 0.42725 0.05127 0.0
H297 H 0.79371 0.45754 0.05581 0.0
H298 H 0.76179 0.45561 0.96008 0.0
H299 H 0.76547 0.42522 0.95692 0.0
H300 H 0.8041 0.47879 0.00955 0.0
H301 H 0.73562 0.48796 0.019 0.0
H302 H 0.74521 0.46767 0.02533 0.0
H303 H 0.74069 0.47533 0.97982 0.0
C304 C 0.78989 0.43327 0.03184 0.0
C305 C 0.7822 0.42395 0.00376 0.0
C306 C 0.78732 0.45057 0.0344 0.0
C307 C 0.77727 0.45892 0.00849 0.0
C308 C 0.76917 0.44948 0.98109 0.0
H309 H 0.79962 0.5602 0.94131 0.0
H310 H 0.79521 0.52988 0.94532 0.0
C311 C 0.7714 0.43211 0.9791 0.0
C312 C 0.77708 0.47756 0.00734 0.0
H313 H 0.75166 0.51176 -0.0028 0.0
C314 C 0.79258 0.48597 0.00739 0.0
C315 C 0.76209 0.48704 0.0049 0.0
C316 C 0.74498 0.47901 0.00768 0.0
C317 C 0.79357 0.50345 0.00425 0.0
C318 C 0.77867 0.51281 -0.00085 0.0
C319 C 0.7631 0.50453 0.00023 0.0
C320 C 0.77914 0.53121 -0.0068 0.0
C321 C 0.81062 0.51167 0.00703 0.0
C322 C 0.77055 0.54208 0.01705 0.0
C323 C 0.77268 0.55946 0.01413 0.0
C324 C 0.78358 0.56617 0.98758 0.0
C325 C 0.79134 0.55533 0.96236 0.0
C326 C 0.78893 0.53801 0.96481 0.0
H327 H 0.81963 0.50368 0.02237 0.0
H328 H 0.81577 0.51357 0.97903 0.0
H329 H 0.80985 0.52406 0.02097 0.0
H330 H 0.7628 0.5371 0.03893 0.0
H331 H 0.76653 0.56755 0.0339 0.0
H332 H 0.56418 0.76523 0.95086 0.0
H333 H 0.53376 0.76099 0.94747 0.0
H334 H 0.52701 0.79446 0.03956 0.0
H335 H 0.55729 0.79936 0.04193 0.0
H336 H 0.50867 0.75024 -0.00889 0.0
H337 H 0.50044 0.81786 0.96132 0.0
H338 H 0.5208 0.80808 0.96281 0.0
H339 H 0.51056 0.81451 0.00464 0.0
C340 C 0.5562 0.77149 0.9707 0.0
C341 C 0.56301 0.78284 -0.00374 0.0
C342 C 0.53884 0.76906 0.96873 0.0
C343 C 0.5281 0.7778 -0.00743 0.0
C344 C 0.53504 0.78802 0.02012 0.0
H345 H 0.42146 0.76505 0.02665 0.0
H346 H 0.45187 0.76108 0.0257 0.0
C347 C 0.55233 0.79073 0.02161 0.0
C348 C 0.50968 0.7772 0.98707 0.0
H349 H 0.47566 0.8024 0.97433 0.0
C350 C 0.50142 0.76161 0.98718 0.0
C351 C 0.5003 0.79201 0.98087 0.0
C352 C 0.5085 0.80903 0.97697 0.0
C353 C 0.48395 0.76049 0.98235 0.0
C354 C 0.47447 0.77541 0.97845 0.0
C355 C 0.48284 0.79093 0.97753 0.0
C356 C 0.45586 0.77556 0.97611 0.0
C357 C 0.47593 0.74333 0.98086 0.0
C358 C 0.4479 0.78506 0.9487 0.0
C359 C 0.43062 0.7878 0.94995 0.0
C360 C 0.42091 0.78079 0.97819 0.0
C361 C 0.42867 0.77044 0.00435 0.0
C362 C 0.44605 0.76806 0.00364 0.0
H363 H 0.48498 0.7337 0.97107 0.0
H364 H 0.47189 0.73968 0.00889 0.0
H365 H 0.4648 0.74319 0.96253 0.0
H366 H 0.45517 0.79096 0.92713 0.0
H367 H 0.42491 0.79577 0.92937 0.0
H368 H 0.72438 0.06321 0.45875 0.0
H369 H 0.72831 0.03278 0.45497 0.0
H370 H 0.69286 0.02594 0.54328 0.0
H371 H 0.68826 0.05627 0.5459 0.0
H372 H 0.738 0.00767 0.49846 0.0
H373 H 0.67095 -0.00056 0.463 0.0
H374 H 0.68068 0.01983 0.46586 0.0
H375 H 0.67354 0.00936 0.50684 0.0
C376 C 0.7176 0.05522 0.47767 0.0
C377 C 0.70581 0.06204 0.50221 0.0
C378 C 0.71985 0.03784 0.47548 0.0
C379 C 0.7105 0.02707 0.49809 0.0
C380 C 0.69977 0.03399 0.52471 0.0
H381 H 0.72279 0.92049 0.5318 0.0
H382 H 0.72673 0.9509 0.5312 0.0
C383 C 0.69724 0.05131 0.52637 0.0
C384 C 0.71113 0.00865 0.49235 0.0
H385 H 0.68613 0.97461 0.47698 0.0
C386 C 0.72669 0.00041 0.4935 0.0
C387 C 0.69643 -0.00073 0.48477 0.0
C388 C 0.6795 0.00745 0.47962 0.0
C389 C 0.72788 0.98296 0.48837 0.0
C390 C 0.71302 0.97346 0.48316 0.0
C391 C 0.69754 0.98181 0.48118 0.0
C392 C 0.71291 0.95484 0.4807 0.0
C393 C 0.74504 0.97499 0.48797 0.0
C394 C 0.70376 0.94684 0.45266 0.0
C395 C 0.70102 0.92953 0.45369 0.0
C396 C 0.70768 0.91986 0.48235 0.0
C397 C 0.71768 0.92766 0.50916 0.0
C398 C 0.72006 0.94505 0.50867 0.0
H399 H 0.75478 0.98408 0.47883 0.0
H400 H 0.74835 0.97098 0.51622 0.0
H401 H 0.74544 0.96386 0.46962 0.0
H402 H 0.69814 0.95409 0.43075 0.0
H403 H 0.6933 0.92379 0.43263 0.0
H404 H 0.93548 0.68448 0.53278 0.0
H405 H 0.96504 0.69245 0.5336 0.0
H406 H 0.95272 0.74028 0.48527 0.0
H407 H 0.92299 0.73235 0.48418 0.0
H408 H 0.97698 0.72265 0.44673 0.0
H409 H 0.99342 0.72511 0.59405 0.0
H410 H 0.98217 0.70628 0.58269 0.0
H411 H 0.97201 0.72633 0.57792 0.0
C412 C 0.93899 0.69684 0.52304 0.0
C413 C 0.92693 0.70776 0.50828 0.0
C414 C 0.95589 0.70143 0.52378 0.0
C415 C 0.96104 0.71704 0.5099 0.0
C416 C 0.94896 0.72824 0.49639 0.0
H417 H 0.07063 0.73044 0.51462 0.0
H418 H 0.04098 0.73853 0.51777 0.0
C419 C 0.932 0.72369 0.49583 0.0
C420 C 0.97916 0.72056 0.50554 0.0
H421 H 0.01626 0.71897 0.55205 0.0
C422 C 0.98556 0.72226 0.46982 0.0
C423 C 0.99033 0.72031 0.53569 0.0
C424 C 0.98411 0.71959 0.57477 0.0
C425 C 0.0029 0.72234 0.46327 0.0
C426 C 0.01404 0.72048 0.49317 0.0
C427 C 0.00767 0.72017 0.5291 0.0
C428 C 0.03206 0.71686 0.48762 0.0
C429 C 0.00914 0.7238 0.42429 0.0
C430 C 0.03682 0.70207 0.46944 0.0
C431 C 0.05366 0.69738 0.46777 0.0
C432 C 0.06607 0.70739 0.48432 0.0
C433 C 0.06135 0.72251 0.50148 0.0
C434 C 0.04444 0.72714 0.50335 0.0
H435 H -7e-05 0.73049 0.40671 0.0
H436 H 0.02134 0.73053 0.42311 0.0
H437 H 0.01091 0.71103 0.4127 0.0
H438 H 0.02743 0.69379 0.45778 0.0
H439 H 0.05689 0.68566 0.45443 0.0
H440 H 0.29792 0.05443 0.44863 0.0
H441 H 0.28932 0.02507 0.45051 0.0
H442 H 0.24459 0.03871 0.51016 0.0
H443 H 0.25318 0.06829 0.50855 0.0
H444 H 0.26333 0.01385 0.54413 0.0
H445 H 0.25307 -0.00231 0.3983 0.0
H446 H 0.27261 0.00851 0.40479 0.0
H447 H 0.25318 0.01912 0.41475 0.0
C448 C 0.2861 0.05125 0.46156 0.0
C449 C 0.27626 0.06366 0.47855 0.0
C450 C 0.28113 0.03447 0.46235 0.0
C451 C 0.26621 0.02975 0.48003 0.0
C452 C 0.25607 0.04214 0.49608 0.0
H453 H 0.25297 0.92013 0.47589 0.0
H454 H 0.2442 0.94964 0.47577 0.0
C455 C 0.26099 0.05901 0.49511 0.0
C456 C 0.26244 0.01171 0.48515 0.0
H457 H 0.26131 0.97467 0.43817 0.0
C458 C 0.26244 0.00529 0.52101 0.0
C459 C 0.26099 0.00059 0.45504 0.0
C460 C 0.25978 0.00686 0.41607 0.0
C461 C 0.26253 0.98793 0.52738 0.0
C462 C 0.26283 0.97681 0.4971 0.0
C463 C 0.26131 0.98323 0.46138 0.0
C464 C 0.26691 0.95881 0.50145 0.0
C465 C 0.26296 0.98166 0.56642 0.0
C466 C 0.28253 0.95424 0.51613 0.0
C467 C 0.2876 0.93749 0.51606 0.0
C468 C 0.27716 0.92498 0.50119 0.0
C469 C 0.26126 0.92949 0.48765 0.0
C470 C 0.25623 0.94632 0.48753 0.0
H471 H 0.25696 0.99076 0.58546 0.0
H472 H 0.25653 0.96934 0.56903 0.0
H473 H 0.27622 0.98012 0.57512 0.0
H474 H 0.29112 0.96372 0.52626 0.0
H475 H 0.29992 0.93442 0.52663 0.0
H476 H 0.07022 0.25823 0.47327 0.0
H477 H 0.04038 0.25061 0.47055 0.0
H478 H 0.02741 0.29795 0.52065 0.0
H479 H 0.05703 0.30559 0.52374 0.0
H480 H 0.00939 0.26935 0.54842 0.0
H481 H 0.00857 0.27401 0.39567 0.0
H482 H 0.02372 0.2602 0.41633 0.0
H483 H 0.02555 0.28246 0.42282 0.0
C484 C 0.061 0.26691 0.48413 0.0
C485 C 0.06594 0.28258 0.49843 0.0
C486 C 0.04399 0.26256 0.4824 0.0
C487 C 0.03174 0.27382 0.49499 0.0
C488 C 0.03671 0.28911 0.51074 0.0
H489 H 0.93411 0.30513 0.45605 0.0
H490 H 0.96389 0.29809 0.457 0.0
C491 C 0.05363 0.29347 0.51239 0.0
C492 C 0.01365 0.27038 0.49014 0.0
H493 H 0.98267 0.27101 0.42544 0.0
C494 C 0.00352 0.26934 0.52155 0.0
C495 C 0.00612 0.2705 0.45498 0.0
C496 C 0.01646 0.27194 0.4204 0.0
C497 C 0.98596 0.26929 0.51884 0.0
C498 C 0.97841 0.27013 0.48373 0.0
C499 C 0.98855 0.27029 0.45224 0.0
C500 C 0.96023 0.27322 0.47947 0.0
C501 C 0.97562 0.26946 0.55358 0.0
C502 C 0.94829 0.26136 0.49083 0.0
C503 C 0.9312 0.26537 0.49038 0.0
C504 C 0.92585 0.28129 0.47852 0.0
C505 C 0.93782 0.2928 0.46553 0.0
C506 C 0.95485 0.28878 0.46595 0.0
H507 H 0.98348 0.27113 0.57852 0.0
H508 H 0.9662 0.27972 0.55266 0.0
H509 H 0.96875 0.25739 0.55611 0.0
H510 H 0.95222 0.24919 0.5009 0.0
H511 H 0.92225 0.25621 0.5004 0.0
H512 H 0.23473 0.33555 0.95969 0.0
H513 H 0.25674 0.31451 0.95124 0.0
H514 H 0.23744 0.28661 0.04358 0.0
H515 H 0.21493 0.30715 0.05097 0.0
H516 H 0.28165 0.30368 -0.0086 0.0
H517 H 0.23813 0.25057 0.96791 0.0
H518 H 0.23101 0.27201 0.97008 0.0
H519 H 0.23456 0.26027 0.01163 0.0
C520 C 0.2352 0.32492 0.97818 0.0
C521 C 0.223 0.32286 0.0057 0.0
C522 C 0.24778 0.31291 0.97334 0.0
C523 C 0.2485 0.29874 -0.00382 0.0
C524 C 0.23679 0.29711 0.02479 0.0
H525 H 0.33462 0.23254 0.01806 0.0
H526 H 0.31436 0.25544 0.02351 0.0
C527 C 0.22401 0.30892 0.02917 0.0
C528 C 0.26146 0.28566 -0.01 0.0
H529 H 0.26677 0.24349 0.97857 0.0
C530 C 0.27839 0.29052 0.98831 0.0
C531 C 0.25721 0.26853 0.98517 0.0
C532 C 0.23923 0.26256 0.98337 0.0
C533 C 0.2912 0.27871 0.9826 0.0
C534 C 0.287 0.26147 0.97991 0.0
C535 C 0.27004 0.25666 0.98102 0.0
C536 C 0.29986 0.24811 0.97575 0.0
C537 C 0.30901 0.28492 0.97869 0.0
C538 C 0.29824 0.23606 0.94774 0.0
C539 C 0.3095 0.2227 0.94527 0.0
C540 C 0.32277 0.22125 0.97045 0.0
C541 C 0.32463 0.23348 -0.00199 0.0
C542 C 0.31312 0.24665 0.00096 0.0
H543 H 0.30937 0.29814 0.96897 0.0
H544 H 0.31528 0.28453 0.00588 0.0
H545 H 0.31628 0.27705 0.95918 0.0
H546 H 0.28811 0.23689 0.92798 0.0
H547 H 0.30781 0.21349 0.92367 0.0
H548 H 0.77249 0.30418 0.94438 0.0
H549 H 0.74782 0.28613 0.94865 0.0
H550 H 0.72012 0.32627 7e-05 0.0
H551 H 0.74484 0.34446 -0.00375 0.0
H552 H 0.71822 0.29594 0.03777 0.0
H553 H 0.70389 0.28675 0.8903 0.0
H554 H 0.72545 0.28257 0.90121 0.0
H555 H 0.71728 0.30347 0.90673 0.0
C556 C 0.76113 0.30927 0.95629 0.0
C557 C 0.76067 0.32578 0.97 0.0
C558 C 0.74699 0.29896 0.95845 0.0
C559 C 0.73208 0.30496 0.97416 0.0
C560 C 0.73149 0.32146 0.98758 0.0
H561 H 0.64271 0.24012 0.97374 0.0
H562 H 0.66057 0.26505 0.96778 0.0
C563 C 0.74563 0.33183 0.98536 0.0
C564 C 0.71759 0.29353 0.97885 0.0
H565 H 0.692 0.2666 0.932 0.0
C566 C 0.7123 0.28972 0.01463 0.0
C567 C 0.70973 0.2856 0.94862 0.0
C568 C 0.71425 0.28992 0.90953 0.0
C569 C 0.69996 0.27749 0.02107 0.0
C570 C 0.69294 0.26875 -0.00906 0.0
C571 C 0.69755 0.27322 0.95507 0.0
C572 C 0.68175 0.25412 -0.00386 0.0
C573 C 0.69476 0.27383 0.06008 0.0
C574 C 0.68781 0.23973 0.01384 0.0
C575 C 0.67771 0.2255 0.0172 0.0
C576 C 0.66134 0.22534 0.00278 0.0
C577 C 0.65524 0.23984 0.98527 0.0
C578 C 0.66541 0.25409 0.9818 0.0
H579 H 0.69737 0.28467 0.07848 0.0
H580 H 0.6812 0.27071 0.06171 0.0
H581 H 0.702 0.26292 0.07039 0.0
H582 H 0.70051 0.2394 0.02445 0.0
H583 H 0.68285 0.21456 0.03077 0.0
H584 H 0.74811 0.64822 0.97734 0.0
H585 H 0.72419 0.66742 0.97286 0.0
H586 H 0.75441 0.70746 0.01761 0.0
H587 H 0.77831 0.68847 0.02237 0.0
H588 H 0.72122 0.70387 0.04915 0.0
H589 H 0.72129 0.70644 0.89634 0.0
H590 H 0.7209 0.68592 0.91689 0.0
H591 H 0.73908 0.69901 0.92234 0.0
C592 C 0.74965 0.66109 0.98636 0.0
C593 C 0.76516 0.66683 2e-05 0.0
C594 C 0.736 0.67204 0.98363 0.0
C595 C 0.73764 0.68886 -0.00545 0.0
C596 C 0.75295 0.69452 0.00895 0.0
H597 H 0.6844 0.77963 0.95201 0.0
H598 H 0.70397 0.75615 0.95644 0.0
C599 C 0.7666 0.68364 0.01156 0.0
C600 C 0.72353 0.70076 -0.00934 0.0
H601 H 0.70076 0.72242 0.9271 0.0
C602 C 0.7166 0.70784 0.02252 0.0
C603 C 0.71773 0.70596 0.95582 0.0
C604 C 0.72516 0.69907 0.92078 0.0
C605 C 0.70411 0.7202 0.02045 0.0
C606 C 0.69837 0.72546 0.9856 0.0
C607 C 0.70515 0.71823 0.95374 0.0
C608 C 0.68611 0.73925 0.98165 0.0
C609 C 0.69757 0.72797 0.05545 0.0
C610 C 0.66953 0.73739 -0.00614 0.0
C611 C 0.65827 0.75078 -0.00865 0.0
C612 C 0.66344 0.76627 0.97659 0.0
C613 C 0.68 0.76793 0.96368 0.0
C614 C 0.6912 0.75452 0.96609 0.0
H615 H 0.70538 0.72461 0.07961 0.0
H616 H 0.69715 0.74186 0.05303 0.0
H617 H 0.68459 0.72346 0.0605 0.0
H618 H 0.66534 0.7256 0.00554 0.0
H619 H 0.64559 0.74906 0.00142 0.0
H620 H 0.21355 0.67574 0.91683 0.0
H621 H 0.23693 0.69557 0.91994 0.0
H622 H 0.25436 0.6718 0.0193 0.0
H623 H 0.23151 0.65138 0.01513 0.0
H624 H 0.24261 0.71813 0.96844 0.0
H625 H 0.29777 0.67614 0.96713 0.0
H626 H 0.27691 0.66869 0.95678 0.0
H627 H 0.28371 0.67087 0.00376 0.0
C628 C 0.22254 0.67459 0.939 0.0
C629 C 0.22076 0.662 0.96568 0.0
C630 C 0.23589 0.68593 0.94078 0.0
C631 C 0.24759 0.68508 0.96957 0.0
C632 C 0.24585 0.67243 -0.00382 0.0
H633 H 0.30403 0.77227 0.04154 0.0
H634 H 0.28406 0.74919 0.03435 0.0
C635 C 0.2327 0.66084 -0.00606 0.0
C636 C 0.26075 0.6982 0.97318 0.0
H637 H 0.30266 0.70441 0.98743 0.0
C638 C 0.25577 0.7151 0.97221 0.0
C639 C 0.27797 0.69431 0.9776 0.0
C640 C 0.28442 0.67652 0.97597 0.0
C641 C 0.26741 0.72818 0.97604 0.0
C642 C 0.28447 0.72428 0.98269 0.0
C643 C 0.28954 0.7074 0.98297 0.0
C644 C 0.29724 0.73756 -0.01106 0.0
C645 C 0.26129 0.74602 0.97204 0.0
C646 C 0.31181 0.73818 0.96725 0.0
C647 C 0.32349 0.75112 0.97201 0.0
C648 C 0.32069 0.76376 -0.00173 0.0
C649 C 0.30637 0.76284 0.02068 0.0
C650 C 0.29489 0.74973 0.01641 0.0
H651 H 0.24961 0.74662 0.95544 0.0
H652 H 0.2584 0.75122 -0.00039 0.0
H653 H 0.2709 0.75412 0.95885 0.0
H654 H 0.31396 0.72887 0.94606 0.0
H655 H 0.33442 0.7515 0.95436 0.0
H656 H 0.80651 0.70864 0.45031 0.0
H657 H 0.78661 0.73176 0.45612 0.0
H658 H 0.82394 0.76132 0.51259 0.0
H659 H 0.844 0.73819 0.50716 0.0
H660 H 0.79217 0.76028 0.54775 0.0
H661 H 0.78666 0.7768 0.4003 0.0
H662 H 0.78361 0.75488 0.40974 0.0
H663 H 0.80373 0.76436 0.41815 0.0
C664 C 0.81057 0.72008 0.46378 0.0
C665 C 0.82688 0.72156 0.47822 0.0
C666 C 0.79919 0.73331 0.46688 0.0
C667 C 0.8039 0.7483 0.48434 0.0
C668 C 0.82013 0.74986 0.49882 0.0
H669 H 0.74144 0.83831 0.48276 0.0
H670 H 0.76524 0.81903 0.47861 0.0
C671 C 0.83157 0.73664 0.49563 0.0
C672 C 0.79158 0.76203 0.48876 0.0
H673 H 0.76595 0.78824 0.44051 0.0
C674 C 0.78654 0.76652 0.52435 0.0
C675 C 0.78443 0.77026 0.45817 0.0
C676 C 0.78997 0.76647 0.41942 0.0
C677 C 0.77405 0.77864 0.53014 0.0
C678 C 0.76633 0.78629 0.49948 0.0
C679 C 0.7718 0.78223 0.46394 0.0
C680 C 0.75218 0.79815 0.5036 0.0
C681 C 0.7692 0.78315 0.56897 0.0
C682 C 0.73695 0.79273 0.51886 0.0
C683 C 0.72332 0.80368 0.52124 0.0
C684 C 0.72465 0.82025 0.50823 0.0
C685 C 0.73999 0.82566 0.49312 0.0
C686 C 0.75361 0.81467 0.49068 0.0
H687 H 0.77919 0.77969 0.58886 0.0
H688 H 0.76661 0.79679 0.57156 0.0
H689 H 0.75763 0.7762 0.57656 0.0
H690 H 0.73552 0.77993 0.52835 0.0
H691 H 0.71169 0.79908 0.53291 0.0
H692 H 0.24798 0.84173 0.507 0.0
H693 H 0.22503 0.82142 0.5122 0.0
H694 H 0.25629 0.78322 0.46367 0.0
H695 H 0.27927 0.80338 0.45809 0.0
H696 H 0.22312 0.78544 0.43389 0.0
H697 H 0.22364 0.78189 0.58648 0.0
H698 H 0.22218 0.8026 0.56715 0.0
H699 H 0.24092 0.79049 0.56049 0.0
C700 C 0.24999 0.82901 0.49741 0.0
C701 C 0.26551 0.82417 0.48227 0.0
C702 C 0.23688 0.81742 0.50056 0.0
C703 C 0.23907 0.80081 0.48871 0.0
C704 C 0.25441 0.79599 0.47308 0.0
H705 H 0.18663 0.70905 0.53061 0.0
H706 H 0.20605 0.73272 0.52687 0.0
C707 C 0.26753 0.80754 0.46999 0.0
C708 C 0.22541 0.78836 0.49243 0.0
H709 H 0.20288 0.76611 0.55558 0.0
C710 C 0.2186 0.78127 0.46045 0.0
C711 C 0.2197 0.78289 0.52718 0.0
C712 C 0.22703 0.78973 0.56238 0.0
C713 C 0.20627 0.76871 0.46228 0.0
C714 C 0.20052 0.76327 0.49702 0.0
C715 C 0.20725 0.77045 0.52902 0.0
C716 C 0.18831 0.74938 0.50071 0.0
C717 C 0.19987 0.76096 0.4271 0.0
C718 C 0.17181 0.75106 0.48782 0.0
C719 C 0.16064 0.73755 0.48991 0.0
C720 C 0.16581 0.72213 0.50496 0.0
C721 C 0.18225 0.72069 0.51869 0.0
C722 C 0.19336 0.73421 0.51666 0.0
H723 H 0.20785 0.76428 0.40317 0.0
H724 H 0.19932 0.74707 0.42947 0.0
H725 H 0.18697 0.76556 0.42167 0.0
H726 H 0.16763 0.76278 0.47589 0.0
H727 H 0.14805 0.73911 0.47923 0.0
H728 H 0.24732 0.14747 0.4762 0.0
H729 H 0.22449 0.168 0.47395 0.0
H730 H 0.25696 0.20546 0.52172 0.0
H731 H 0.27982 0.18512 0.52423 0.0
H732 H 0.22351 0.20289 0.55356 0.0
H733 H 0.22365 0.20871 0.4012 0.0
H734 H 0.22234 0.18779 0.41954 0.0
H735 H 0.24108 0.19992 0.42633 0.0
C736 C 0.2496 0.16006 0.48634 0.0
C737 C 0.26544 0.16468 0.50021 0.0
C738 C 0.23656 0.17177 0.4849 0.0
C739 C 0.23914 0.18825 0.49733 0.0
C740 C 0.25477 0.1928 0.51191 0.0
H741 H 0.18803 0.28138 0.46292 0.0
H742 H 0.20745 0.25774 0.46645 0.0
C743 C 0.26783 0.18115 0.51322 0.0
C744 C 0.22566 0.20091 0.4948 0.0
H745 H 0.2036 0.22464 0.43363 0.0
C746 C 0.21904 0.20759 0.52739 0.0
C747 C 0.22005 0.20706 0.46056 0.0
C748 C 0.22718 0.20064 0.42482 0.0
C749 C 0.20696 0.22038 0.52663 0.0
C750 C 0.20134 0.22653 0.49239 0.0
C751 C 0.20789 0.21978 0.4598 0.0
C752 C 0.18932 0.24059 0.48984 0.0
C753 C 0.20065 0.2276 0.56239 0.0
C754 C 0.17266 0.23865 0.50147 0.0
C755 C 0.16148 0.25214 0.49943 0.0
C756 C 0.16682 0.26778 0.48574 0.0
C757 C 0.18351 0.26955 0.47374 0.0
C758 C 0.19463 0.25606 0.47565 0.0
H759 H 0.20839 0.22355 0.58614 0.0
H760 H 0.20059 0.24154 0.56132 0.0
H761 H 0.18756 0.22334 0.56708 0.0
H762 H 0.16831 0.22672 0.51209 0.0
H763 H 0.14871 0.25032 0.5088 0.0
H764 H 0.84557 0.24539 0.48181 0.0
H765 H 0.82703 0.22087 0.47895 0.0
H766 H 0.7864 0.25044 0.52284 0.0
H767 H 0.80476 0.27494 0.52613 0.0
H768 H 0.79016 0.21789 0.55522 0.0
H769 H 0.7887 0.21614 0.40236 0.0
H770 H 0.80908 0.21598 0.42356 0.0
H771 H 0.79603 0.23423 0.42766 0.0
C772 C 0.83271 0.24667 0.49101 0.0
C773 C 0.82662 0.26218 0.50396 0.0
C774 C 0.82214 0.23266 0.48923 0.0
C775 C 0.80533 0.23394 0.5003 0.0
C776 C 0.79934 0.24924 0.5141 0.0
H777 H 0.71468 0.18261 0.4554 0.0
H778 H 0.73905 0.20099 0.46041 0.0
C779 C 0.80986 0.26324 0.51585 0.0
C780 C 0.79372 0.21953 0.49676 0.0
H781 H 0.77247 0.19602 0.43356 0.0
C782 C 0.78641 0.21294 0.52869 0.0
C783 C 0.78882 0.21326 0.46203 0.0
C784 C 0.79593 0.22029 0.42684 0.0
C785 C 0.77399 0.20046 0.52677 0.0
C786 C 0.76891 0.19437 0.49201 0.0
C787 C 0.77652 0.20067 0.46014 0.0
C788 C 0.7546 0.18268 0.48797 0.0
C789 C 0.76584 0.19443 0.56177 0.0
C790 C 0.75539 0.1662 0.50137 0.0
C791 C 0.74142 0.15559 0.49857 0.0
C792 C 0.72648 0.16134 0.48231 0.0
C793 C 0.72594 0.17777 0.46825 0.0
C794 C 0.73987 0.1883 0.47098 0.0
H795 H 0.7693 0.20234 0.58576 0.0
H796 H 0.75196 0.19439 0.55894 0.0
H797 H 0.7699 0.18137 0.56742 0.0
H798 H 0.76675 0.16158 0.51416 0.0
H799 H 0.74228 0.14299 0.50955 0.0
H800 H 0.11717 0.35055 0.40442 0.0
H801 H 0.12235 0.36488 0.34606 0.0
H802 H 0.13244 0.31715 0.29433 0.0
H803 H 0.12662 0.30277 0.35196 0.0
H804 H 0.15012 0.36668 0.30871 0.0
H805 H 0.10261 0.33748 0.21912 0.0
H806 H 0.10207 0.33523 0.2684 0.0
H807 H 0.11486 0.32146 0.24073 0.0
C808 C 0.12023 0.34312 0.38039 0.0
C809 C 0.12144 0.32555 0.38265 0.0
C810 C 0.12318 0.35132 0.34711 0.0
C811 C 0.12748 0.34208 0.31563 0.0
C812 C 0.12861 0.32452 0.31789 0.0
H813 H 0.19211 0.36553 0.13931 0.0
H814 H 0.17876 0.36113 0.19878 0.0
C815 C 0.12542 0.31631 0.35096 0.0
C816 C 0.13217 0.35075 0.28115 0.0
H817 H 0.12732 0.34853 0.18833 0.0
C818 C 0.1449 0.36296 0.28242 0.0
C819 C 0.12508 0.34627 0.2469 0.0
C820 C 0.11026 0.33454 0.24379 0.0
C821 C 0.15149 0.36996 0.25018 0.0
C822 C 0.1456 0.36414 0.21578 0.0
C823 C 0.1321 0.35279 0.21464 0.0
C824 C 0.15395 0.36861 0.18075 0.0
C825 C 0.16478 0.38339 0.25346 0.0
C826 C 0.14444 0.37399 0.15054 0.0
C827 C 0.15198 0.37606 0.11624 0.0
C828 C 0.1692 0.37294 0.11165 0.0
C829 C 0.17884 0.36818 0.14215 0.0
C830 C 0.17124 0.36581 0.17627 0.0
H831 H 0.16308 0.39084 0.27901 0.0
H832 H 0.17732 0.37738 0.25494 0.0
H833 H 0.16457 0.39207 0.22965 0.0
H834 H 0.13108 0.37616 0.15328 0.0
H835 H 0.14428 0.3798 0.09315 0.0
H836 H 0.64214 0.12543 0.40331 0.0
H837 H 0.63001 0.13239 0.34355 0.0
H838 H 0.67596 0.11741 0.29021 0.0
H839 H 0.68826 0.1106 0.34982 0.0
H840 H 0.66535 0.1497 0.2727 0.0
H841 H 0.61352 0.10357 0.25667 0.0
H842 H 0.61363 0.11467 0.29969 0.0
H843 H 0.63055 0.10063 0.28876 0.0
C844 C 0.64956 0.12336 0.3788 0.0
C845 C 0.66619 0.11758 0.38123 0.0
C846 C 0.64257 0.12724 0.34469 0.0
C847 C 0.65205 0.12526 0.31253 0.0
C848 C 0.66844 0.11895 0.31478 0.0
H849 H 0.62549 0.14048 0.08485 0.0
H850 H 0.63278 0.12853 0.14461 0.0
C851 C 0.67544 0.11508 0.34884 0.0
C852 C 0.64556 0.13137 0.277 0.0
H853 H 0.61421 0.12624 0.21408 0.0
C854 C 0.65421 0.14453 0.2598 0.0
C855 C 0.63107 0.12452 0.26029 0.0
C856 C 0.6217 0.10996 0.27707 0.0
C857 C 0.64866 0.15119 0.22641 0.0
C858 C 0.63393 0.14465 0.21014 0.0
C859 C 0.62538 0.13132 0.227 0.0
C860 C 0.62762 0.15129 0.17499 0.0
C861 C 0.65872 0.16502 0.20853 0.0
C862 C 0.62187 0.16789 0.17265 0.0
C863 C 0.61773 0.17477 0.13862 0.0
C864 C 0.61928 0.16513 0.10644 0.0
C865 C 0.62428 0.14825 0.10915 0.0
C866 C 0.62839 0.14138 0.14321 0.0
H867 H 0.6715 0.16613 0.2205 0.0
H868 H 0.6599 0.16281 0.17852 0.0
H869 H 0.65217 0.17717 0.21261 0.0
H870 H 0.62102 0.17564 0.19706 0.0
H871 H 0.61379 0.18777 0.13743 0.0
H872 H 0.8697 0.64339 0.39199 0.0
H873 H 0.86376 0.63288 0.3303 0.0
H874 H 0.87718 0.68102 0.28474 0.0
H875 H 0.88288 0.69175 0.34645 0.0
H876 H 0.84613 0.67052 0.26391 0.0
H877 H 0.89219 0.61941 0.24209 0.0
H878 H 0.88093 0.61752 0.28458 0.0
H879 H 0.89467 0.63515 0.27747 0.0
C880 C 0.8717 0.65165 0.36877 0.0
C881 C 0.87663 0.66844 0.37405 0.0
C882 C 0.86842 0.64557 0.33352 0.0
C883 C 0.87021 0.65611 0.30294 0.0
C884 C 0.87581 0.67267 0.308 0.0
H885 H 0.85013 0.62942 0.07459 0.0
H886 H 0.86408 0.63742 0.13198 0.0
C887 C 0.87903 0.67878 0.34326 0.0
C888 C 0.86429 0.65053 0.26642 0.0
H889 H 0.86832 0.61968 0.2018 0.0
C890 C 0.85112 0.65951 0.25014 0.0
C891 C 0.87088 0.63623 0.24846 0.0
C892 C 0.88556 0.62661 0.26385 0.0
C893 C 0.84401 0.6543 0.21689 0.0
C894 C 0.85005 0.63955 0.19983 0.0
C895 C 0.86359 0.63085 0.21535 0.0
C896 C 0.84224 0.63304 0.16594 0.0
C897 C 0.83004 0.6646 0.20031 0.0
C898 C 0.82554 0.62748 0.16642 0.0
C899 C 0.81754 0.62295 0.1338 0.0
C900 C 0.82616 0.62386 0.1002 0.0
C901 C 0.84315 0.62868 0.10005 0.0
C902 C 0.85114 0.63322 0.13275 0.0
H903 H 0.82966 0.6775 0.21192 0.0
H904 H 0.83147 0.66548 0.17004 0.0
H905 H 0.81783 0.65845 0.2062 0.0
H906 H 0.81858 0.62705 0.19196 0.0
H907 H 0.8045 0.61915 0.13483 0.0
H908 H 0.29563 0.86376 0.34937 0.0
H909 H 0.30868 0.85651 0.29084 0.0
H910 H 0.35694 0.87191 0.33301 0.0
H911 H 0.34402 0.8784 0.39239 0.0
H912 H 0.32542 0.8731 0.24041 0.0
H913 H 0.36744 0.82507 0.3014 0.0
H914 H 0.351 0.8351 0.32733 0.0
H915 H 0.37059 0.84579 0.3195 0.0
C916 C 0.309 0.86569 0.34611 0.0
C917 C 0.31886 0.87143 0.37553 0.0
C918 C 0.31646 0.86156 0.31264 0.0
C919 C 0.33386 0.86329 0.3078 0.0
C920 C 0.34358 0.86996 0.33649 0.0
H921 H 0.37244 0.84605 0.08436 0.0
H922 H 0.36639 0.85973 0.14318 0.0
C923 C 0.33618 0.87379 0.37027 0.0
C924 C 0.34169 0.85757 0.27305 0.0
H925 H 0.37004 0.82977 0.23784 0.0
C926 C 0.33524 0.86368 0.2398 0.0
C927 C 0.35438 0.84514 0.27237 0.0
C928 C 0.36116 0.83726 0.30701 0.0
C929 C 0.34071 0.85735 0.2059 0.0
C930 C 0.3535 0.84502 0.20522 0.0
C931 C 0.36033 0.8393 0.23844 0.0
C932 C 0.35892 0.83681 0.17064 0.0
C933 C 0.33208 0.86332 0.1714 0.0
C934 C 0.35768 0.81928 0.1672 0.0
C935 C 0.36156 0.81142 0.13402 0.0
C936 C 0.36655 0.82097 0.10353 0.0
C937 C 0.3684 0.83843 0.10735 0.0
C938 C 0.36483 0.84626 0.14081 0.0
H939 H 0.31979 0.8693 0.17747 0.0
H940 H 0.34009 0.8728 0.15762 0.0
H941 H 0.32992 0.85276 0.152 0.0
H942 H 0.35323 0.81171 0.1899 0.0
H943 H 0.36004 0.79793 0.13189 0.0
H944 H 0.11363 0.63708 0.57584 0.0
H945 H 0.11678 0.62188 0.63386 0.0
H946 H 0.12748 0.6686 0.68944 0.0
H947 H 0.12356 0.68384 0.63219 0.0
H948 H 0.14313 0.61821 0.67344 0.0
H949 H 0.09612 0.64873 0.76145 0.0
H950 H 0.09638 0.65169 0.71234 0.0
H951 H 0.10925 0.66461 0.74186 0.0
C952 C 0.11636 0.6441 0.60064 0.0
C953 C 0.1183 0.66163 0.5996 0.0
C954 C 0.11814 0.63542 0.63374 0.0
C955 C 0.12203 0.64411 0.66623 0.0
C956 C 0.12389 0.66165 0.6651 0.0
H957 H 0.18563 0.61919 0.84039 0.0
H958 H 0.1718 0.62317 0.78145 0.0
C959 C 0.12181 0.67035 0.63224 0.0
C960 C 0.12578 0.6349 0.70059 0.0
H961 H 0.12063 0.63736 0.79331 0.0
C962 C 0.13791 0.62213 0.69959 0.0
C963 C 0.11865 0.63955 0.73469 0.0
C964 C 0.10423 0.65176 0.73752 0.0
C965 C 0.14407 0.6149 0.73197 0.0
C966 C 0.13842 0.62109 0.76625 0.0
C967 C 0.1253 0.63284 0.76711 0.0
C968 C 0.14692 0.61684 0.80125 0.0
C969 C 0.15673 0.6009 0.72893 0.0
C970 C 0.13754 0.61234 0.83239 0.0
C971 C 0.1454 0.61056 0.86647 0.0
C972 C 0.16278 0.61308 0.86987 0.0
C973 C 0.17223 0.617 0.8385 0.0
C974 C 0.16434 0.6191 0.80465 0.0
H975 H 0.15442 0.59322 0.70393 0.0
H976 H 0.1695 0.60636 0.72639 0.0
H977 H 0.15639 0.59252 0.75326 0.0
H978 H 0.12408 0.61062 0.83052 0.0
H979 H 0.13783 0.60748 0.89025 0.0
H980 H 0.30063 0.11362 0.63077 0.0
H981 H 0.31431 0.12179 0.68816 0.0
H982 H 0.3605 0.13092 0.62976 0.0
H983 H 0.34695 0.12264 0.57209 0.0
H984 H 0.36393 0.11419 0.70087 0.0
H985 H 0.32563 0.17239 0.7052 0.0
H986 H 0.3137 0.15336 0.70033 0.0
H987 H 0.32772 0.15973 0.66428 0.0
C988 C 0.31374 0.11716 0.63016 0.0
C989 C 0.32266 0.1177 0.59689 0.0
C990 C 0.32152 0.12185 0.66293 0.0
C991 C 0.3383 0.12719 0.66293 0.0
C992 C 0.34751 0.12689 0.63015 0.0
H993 H 0.37771 0.18824 0.84111 0.0
H994 H 0.37241 0.17671 0.77989 0.0
C995 C 0.33973 0.12219 0.5973 0.0
C996 C 0.34582 0.13413 0.69673 0.0
H997 H 0.34157 0.16608 0.75836 0.0
C998 C 0.35916 0.12558 0.71343 0.0
C999 C 0.33974 0.14917 0.71246 0.0
C1000 C 0.32601 0.15932 0.69453 0.0
C1001 C 0.36621 0.13142 0.74642 0.0
C1002 C 0.35956 0.14602 0.76307 0.0
C1003 C 0.3466 0.15484 0.74561 0.0
C1004 C 0.36519 0.1521 0.79944 0.0
C1005 C 0.38069 0.12194 0.76309 0.0
C1006 C 0.3631 0.14199 0.83061 0.0
C1007 C 0.36614 0.14852 0.86558 0.0
C1008 C 0.37114 0.16534 0.86995 0.0
C1009 C 0.37381 0.17526 0.83861 0.0
C1010 C 0.37082 0.16869 0.80364 0.0
H1011 H 0.38748 0.11442 0.7421 0.0
H1012 H 0.38972 0.13062 0.77655 0.0
H1013 H 0.37582 0.11315 0.78417 0.0
H1014 H 0.35841 0.12927 0.82805 0.0
H1015 H 0.36395 0.14058 0.88922 0.0
H1016 H 0.84567 0.36245 0.89587 0.0
H1017 H 0.85789 0.35606 0.83586 0.0
H1018 H 0.8123 0.37226 0.7829 0.0
H1019 H 0.7999 0.37851 0.84279 0.0
H1020 H 0.82226 0.34017 0.76353 0.0
H1021 H 0.8753 0.38502 0.75067 0.0
H1022 H 0.87495 0.37357 0.79312 0.0
H1023 H 0.85832 0.38803 0.78288 0.0
C1024 C 0.83835 0.36493 0.87141 0.0
C1025 C 0.82178 0.37087 0.87403 0.0
C1026 C 0.8454 0.36139 0.83714 0.0
C1027 C 0.83605 0.36385 0.80498 0.0
C1028 C 0.81974 0.37036 0.80745 0.0
H1029 H 0.86449 0.34701 0.57759 0.0
H1030 H 0.85667 0.35981 0.63636 0.0
C1031 C 0.81267 0.37389 0.84167 0.0
C1032 C 0.84253 0.35791 0.76921 0.0
H1033 H 0.87466 0.36226 0.70785 0.0
C1034 C 0.83365 0.34508 0.75124 0.0
C1035 C 0.85735 0.3644 0.75324 0.0
C1036 C 0.86698 0.37863 0.77075 0.0
C1037 C 0.83936 0.33834 0.718 0.0
C1038 C 0.85447 0.34443 0.70263 0.0
C1039 C 0.86319 0.35751 0.72008 0.0
C1040 C 0.86116 0.33735 0.66814 0.0
C1041 C 0.82915 0.32478 0.69945 0.0
C1042 C 0.86671 0.32067 0.66695 0.0
C1043 C 0.87115 0.31331 0.63352 0.0
C1044 C 0.87011 0.32256 0.60077 0.0
C1045 C 0.86532 0.33954 0.60235 0.0
C1046 C 0.8609 0.34689 0.63584 0.0
H1047 H 0.8162 0.32405 0.71064 0.0
H1048 H 0.82842 0.32701 0.66939 0.0
H1049 H 0.8353 0.31245 0.70384 0.0
H1050 H 0.86713 0.31319 0.69176 0.0
H1051 H 0.87491 0.30025 0.63323 0.0
H1052 H 0.6121 0.85007 0.89935 0.0
H1053 H 0.61623 0.86443 0.84056 0.0
H1054 H 0.62659 0.81681 0.78858 0.0
H1055 H 0.62173 0.80243 0.84651 0.0
H1056 H 0.64315 0.86708 0.80229 0.0
H1057 H 0.5966 0.83627 0.71346 0.0
H1058 H 0.59617 0.83398 0.76274 0.0
H1059 H 0.6091 0.8204 0.73485 0.0
C1060 C 0.61496 0.84268 0.87515 0.0
C1061 C 0.61655 0.82514 0.87743 0.0
C1062 C 0.6173 0.85088 0.84162 0.0
C1063 C 0.62139 0.84169 0.80991 0.0
C1064 C 0.62286 0.82415 0.81225 0.0
H1065 H 0.68786 0.86321 0.63827 0.0
H1066 H 0.67314 0.85999 0.69644 0.0
C1067 C 0.62024 0.81594 0.84553 0.0
C1068 C 0.62577 0.85036 0.77519 0.0
H1069 H 0.62181 0.84664 0.68238 0.0
C1070 C 0.63819 0.86288 0.7761 0.0
C1071 C 0.61899 0.84535 0.74097 0.0
C1072 C 0.60433 0.83341 0.73805 0.0
C1073 C 0.64495 0.8695 0.74364 0.0
C1074 C 0.63962 0.86292 0.70944 0.0
C1075 C 0.62624 0.85143 0.70854 0.0
C1076 C 0.64867 0.86652 0.67472 0.0
C1077 C 0.6579 0.88328 0.74653 0.0
C1078 C 0.63981 0.87082 0.64275 0.0
C1079 C 0.64817 0.87216 0.60913 0.0
C1080 C 0.66555 0.86939 0.60702 0.0
C1081 C 0.67448 0.86558 0.63915 0.0
C1082 C 0.66608 0.86392 0.67256 0.0
H1083 H 0.65546 0.89135 0.77087 0.0
H1084 H 0.6705 0.87761 0.75019 0.0
H1085 H 0.65806 0.89132 0.72165 0.0
H1086 H 0.62637 0.87278 0.64365 0.0
H1087 H 0.641 0.87515 0.58474 0.0
H1088 H 0.87358 0.67293 0.6064 0.0
H1089 H 0.86905 0.66459 0.67011 0.0
H1090 H 0.83225 0.62817 0.63513 0.0
H1091 H 0.83647 0.6366 0.57132 0.0
H1092 H 0.82077 0.64882 0.68963 0.0
H1093 H 0.88297 0.62315 0.72752 0.0
H1094 H 0.88421 0.64374 0.70778 0.0
H1095 H 0.87673 0.62645 0.68041 0.0
C1096 C 0.86469 0.66298 0.61215 0.0
C1097 C 0.85535 0.65548 0.58374 0.0
C1098 C 0.8622 0.65814 0.64859 0.0
C1099 C 0.85049 0.64559 0.65726 0.0
C1100 C 0.84142 0.63781 0.62895 0.0
H1101 H 0.81101 0.61499 0.8718 0.0
H1102 H 0.81778 0.61549 0.80623 0.0
C1103 C 0.84385 0.64267 0.5925 0.0
C1104 C 0.84666 0.64167 0.69606 0.0
H1105 H 0.86453 0.6301 0.77734 0.0
C1106 C 0.83026 0.64448 0.70872 0.0
C1107 C 0.85909 0.63603 0.72084 0.0
C1108 C 0.8767 0.63201 0.7084 0.0
C1109 C 0.82612 0.64248 0.74587 0.0
C1110 C 0.83867 0.63731 0.77081 0.0
C1111 C 0.85496 0.63409 0.75805 0.0
C1112 C 0.83531 0.63615 0.81062 0.0
C1113 C 0.80853 0.64657 0.7584 0.0
C1114 C 0.84328 0.64732 0.83477 0.0
C1115 C 0.83949 0.64707 0.87217 0.0
C1116 C 0.82769 0.63557 0.88613 0.0
C1117 C 0.82007 0.62407 0.86193 0.0
C1118 C 0.82388 0.62436 0.82446 0.0
H1119 H 0.80131 0.65342 0.73706 0.0
H1120 H 0.80176 0.63474 0.76469 0.0
H1121 H 0.80881 0.65431 0.7838 0.0
H1122 H 0.85218 0.65649 0.82453 0.0
H1123 H 0.84566 0.65604 0.89002 0.0
H1124 H 0.31041 0.87367 0.60893 0.0
H1125 H 0.31767 0.87004 0.67364 0.0
H1126 H 0.35673 0.83521 0.64348 0.0
H1127 H 0.34943 0.83853 0.5788 0.0
H1128 H 0.33501 0.8228 0.69558 0.0
H1129 H 0.35731 0.88631 0.73536 0.0
H1130 H 0.33716 0.88617 0.71329 0.0
H1131 H 0.35545 0.87971 0.68806 0.0
C1132 C 0.32071 0.86543 0.61599 0.0
C1133 C 0.32929 0.85633 0.58868 0.0
C1134 C 0.32492 0.86346 0.65299 0.0
C1135 C 0.33786 0.85251 0.66327 0.0
C1136 C 0.34674 0.84378 0.63605 0.0
H1137 H 0.37111 0.81292 0.87379 0.0
H1138 H 0.36905 0.82065 0.809 0.0
C1139 C 0.34253 0.84569 0.5991 0.0
C1140 C 0.34114 0.84896 0.70247 0.0
H1141 H 0.35182 0.86712 0.7842 0.0
C1142 C 0.33886 0.83245 0.71491 0.0
C1143 C 0.34605 0.86161 0.72757 0.0
C1144 C 0.34929 0.87942 0.71541 0.0
C1145 C 0.34098 0.82829 0.75197 0.0
C1146 C 0.34578 0.84095 0.77713 0.0
C1147 C 0.34817 0.85746 0.76473 0.0
C1148 C 0.3479 0.8373 0.81661 0.0
C1149 C 0.33759 0.81049 0.76411 0.0
C1150 C 0.33702 0.84454 0.84238 0.0
C1151 C 0.33818 0.8402 0.87944 0.0
C1152 C 0.35029 0.82859 0.89134 0.0
C1153 C 0.36155 0.8218 0.86553 0.0
C1154 C 0.36038 0.82616 0.82849 0.0
H1155 H 0.33044 0.80329 0.74315 0.0
H1156 H 0.34971 0.80398 0.76872 0.0
H1157 H 0.33045 0.81031 0.7903 0.0
H1158 H 0.32735 0.85321 0.83367 0.0
H1159 H 0.32937 0.84573 0.89859 0.0
H1160 H 0.11459 0.31178 0.61323 0.0
H1161 H 0.11568 0.31816 0.67894 0.0
H1162 H 0.15401 0.35531 0.65905 0.0
H1163 H 0.15296 0.34917 0.59343 0.0
H1164 H 0.14453 0.31455 0.72224 0.0
H1165 H 0.121 0.38001 0.72682 0.0
H1166 H 0.11757 0.3663 0.68795 0.0
H1167 H 0.13743 0.37671 0.69384 0.0
C1168 C 0.1231 0.32147 0.62275 0.0
C1169 C 0.13372 0.32994 0.59807 0.0
C1170 C 0.12368 0.32509 0.66028 0.0
C1171 C 0.13475 0.33735 0.6737 0.0
C1172 C 0.14513 0.34606 0.64911 0.0
H1173 H 0.17516 0.3701 0.8795 0.0
H1174 H 0.16653 0.36625 0.81563 0.0
C1175 C 0.14459 0.34242 0.61163 0.0
C1176 C 0.13657 0.34005 0.71366 0.0
H1177 H 0.13519 0.37013 0.78044 0.0
C1178 C 0.14228 0.32663 0.73513 0.0
C1179 C 0.13368 0.35586 0.73019 0.0
C1180 C 0.12693 0.37052 0.7086 0.0
C1181 C 0.1458 0.32874 0.77255 0.0
C1182 C 0.14322 0.34463 0.78899 0.0
C1183 C 0.13716 0.35798 0.76769 0.0
C1184 C 0.14743 0.34777 0.82793 0.0
C1185 C 0.15292 0.31412 0.7938 0.0
C1186 C 0.13925 0.33894 0.85599 0.0
C1187 C 0.1442 0.34101 0.89249 0.0
C1188 C 0.15734 0.35208 0.90157 0.0
C1189 C 0.16505 0.36141 0.87346 0.0
C1190 C 0.16012 0.35927 0.83695 0.0
H1191 H 0.15773 0.3041 0.77534 0.0
H1192 H 0.16328 0.31829 0.81206 0.0
H1193 H 0.14292 0.30859 0.8112 0.0
H1194 H 0.12919 0.33025 0.84959 0.0
H1195 H 0.13788 0.33376 0.9135 0.0
H1196 H 0.60882 0.15573 0.88702 0.0
H1197 H 0.61061 0.14591 0.8233 0.0
H1198 H 0.66464 0.14968 0.82821 0.0
H1199 H 0.66289 0.1583 0.89232 0.0
H1200 H 0.62026 0.15991 0.76557 0.0
H1201 H 0.66175 0.10539 0.78187 0.0
H1202 H 0.65263 0.11592 0.8209 0.0
H1203 H 0.67206 0.12333 0.80109 0.0
C1204 C 0.62105 0.15421 0.87449 0.0
C1205 C 0.63572 0.15759 0.89456 0.0
C1206 C 0.62209 0.1486 0.83815 0.0
C1207 C 0.63779 0.1466 0.82108 0.0
C1208 C 0.65241 0.15038 0.84105 0.0
H1209 H 0.66007 0.16167 0.5954 0.0
H1210 H 0.65145 0.1631 0.65953 0.0
C1211 C 0.6514 0.1555 0.87761 0.0
C1212 C 0.63898 0.14181 0.78171 0.0
H1213 H 0.6624 0.11876 0.72169 0.0
C1214 C 0.62925 0.15065 0.75607 0.0
C1215 C 0.65026 0.12936 0.76903 0.0
C1216 C 0.65958 0.11785 0.79482 0.0
C1217 C 0.63126 0.14814 0.71821 0.0
C1218 C 0.64398 0.13716 0.70555 0.0
C1219 C 0.65293 0.12752 0.73118 0.0
C1220 C 0.64888 0.13617 0.66624 0.0
C1221 C 0.61964 0.15731 0.69238 0.0
C1222 C 0.65119 0.12054 0.64896 0.0
C1223 C 0.65681 0.1197 0.61262 0.0
C1224 C 0.65989 0.13449 0.59277 0.0
C1225 C 0.65751 0.15009 0.60995 0.0
C1226 C 0.65239 0.15091 0.64651 0.0
H1227 H 0.60712 0.15922 0.70516 0.0
H1228 H 0.6249 0.16992 0.68638 0.0
H1229 H 0.61792 0.15039 0.66616 0.0
H1230 H 0.64871 0.10897 0.66361 0.0
H1231 H 0.65855 0.10752 0.5999 0.0
H1232 H 0.83296 0.34359 0.39422 0.0
H1233 H 0.82977 0.34947 0.32876 0.0
H1234 H 0.86943 0.31448 0.30392 0.0
H1235 H 0.87271 0.3084 0.36938 0.0
H1236 H 0.85445 0.36089 0.27541 0.0
H1237 H 0.8281 0.29773 0.24395 0.0
H1238 H 0.82925 0.30596 0.29012 0.0
H1239 H 0.84778 0.29802 0.26812 0.0
C1240 C 0.84108 0.33718 0.37491 0.0
C1241 C 0.853 0.32541 0.38704 0.0
C1242 C 0.83925 0.3406 0.33754 0.0
C1243 C 0.84922 0.33225 0.31162 0.0
C1244 C 0.86147 0.32087 0.32357 0.0
H1245 H 0.84469 0.32909 0.07353 0.0
H1246 H 0.85268 0.32554 0.13777 0.0
C1247 C 0.86335 0.31747 0.36098 0.0
C1248 C 0.84641 0.33512 0.27202 0.0
H1249 H 0.83214 0.31609 0.19407 0.0
C1250 C 0.84961 0.35112 0.25752 0.0
C1251 C 0.8401 0.32231 0.24893 0.0
C1252 C 0.83596 0.30505 0.26346 0.0
C1253 C 0.84675 0.35462 0.22028 0.0
C1254 C 0.8402 0.34187 0.19728 0.0
C1255 C 0.83717 0.32583 0.21178 0.0
C1256 C 0.83607 0.34488 0.1582 0.0
C1257 C 0.851 0.37185 0.20582 0.0
C1258 C 0.82405 0.35693 0.14841 0.0
C1259 C 0.81948 0.35905 0.11166 0.0
C1260 C 0.82672 0.34901 0.08408 0.0
C1261 C 0.83884 0.33702 0.09404 0.0
C1262 C 0.84344 0.33497 0.13074 0.0
H1263 H 0.86022 0.37839 0.22374 0.0
H1264 H 0.8562 0.37113 0.17757 0.0
H1265 H 0.83942 0.37957 0.20499 0.0
H1266 H 0.81792 0.36444 0.16926 0.0
H1267 H 0.81004 0.36833 0.10498 0.0
H1268 H 0.65418 0.8464 0.08575 0.0
H1269 H 0.65713 0.85172 0.15152 0.0
H1270 H 0.61757 0.81621 0.17402 0.0
H1271 H 0.61457 0.81064 0.10827 0.0
H1272 H 0.63291 0.86252 0.2053 0.0
H1273 H 0.6584 0.79881 0.23325 0.0
H1274 H 0.65714 0.80742 0.18751 0.0
H1275 H 0.63864 0.79937 0.20952 0.0
C1276 C 0.64602 0.83977 0.10461 0.0
C1277 C 0.63425 0.82796 0.09175 0.0
C1278 C 0.64771 0.84287 0.14217 0.0
C1279 C 0.63773 0.83418 0.16752 0.0
C1280 C 0.62556 0.82284 0.15482 0.0
H1281 H 0.64136 0.82861 0.40532 0.0
H1282 H 0.63337 0.826 0.34083 0.0
C1283 C 0.62384 0.81972 0.11724 0.0
C1284 C 0.6405 0.83661 0.20729 0.0
H1285 H 0.65424 0.81656 0.28428 0.0
C1286 C 0.63754 0.85249 0.22266 0.0
C1287 C 0.64656 0.82347 0.22969 0.0
C1288 C 0.65052 0.80633 0.21424 0.0
C1289 C 0.64037 0.85557 0.26012 0.0
C1290 C 0.64662 0.84247 0.28244 0.0
C1291 C 0.64942 0.82655 0.26707 0.0
C1292 C 0.6507 0.845 0.32169 0.0
C1293 C 0.63645 0.87271 0.27555 0.0
C1294 C 0.66311 0.85655 0.33225 0.0
C1295 C 0.6677 0.85811 0.36913 0.0
C1296 C 0.66006 0.84802 0.39605 0.0
C1297 C 0.64752 0.83656 0.38533 0.0
C1298 C 0.64292 0.83506 0.34849 0.0
H1299 H 0.62753 0.87967 0.25777 0.0
H1300 H 0.63104 0.87176 0.30357 0.0
H1301 H 0.64822 0.88015 0.27729 0.0
H1302 H 0.66954 0.86408 0.31187 0.0
H1303 H 0.67745 0.867 0.37641 0.0
H1304 H 0.16376 0.66197 0.3842 0.0
H1305 H 0.16564 0.65592 0.31863 0.0
H1306 H 0.11166 0.65157 0.3131 0.0
H1307 H 0.10974 0.65895 0.37835 0.0
H1308 H 0.15865 0.63046 0.2805 0.0
H1309 H 0.11822 0.68189 0.22941 0.0
H1310 H 0.12455 0.68051 0.27676 0.0
H1311 H 0.10719 0.66815 0.25995 0.0
C1312 C 0.1523 0.65983 0.36887 0.0
C1313 C 0.13661 0.66103 0.38608 0.0
C1314 C 0.15337 0.65634 0.33141 0.0
C1315 C 0.13878 0.65357 0.31058 0.0
C1316 C 0.12307 0.65424 0.32814 0.0
H1317 H 0.15366 0.60986 0.09089 0.0
H1318 H 0.14603 0.6134 0.15561 0.0
C1319 C 0.12198 0.65829 0.36546 0.0
C1320 C 0.14025 0.64974 0.27075 0.0
H1321 H 0.12686 0.66164 0.18568 0.0
C1322 C 0.15175 0.63735 0.25977 0.0
C1323 C 0.13135 0.65881 0.24359 0.0
C1324 C 0.11978 0.67319 0.25298 0.0
C1325 C 0.15499 0.63411 0.22259 0.0
C1326 C 0.14572 0.6428 0.19543 0.0
C1327 C 0.13388 0.65487 0.20642 0.0
C1328 C 0.14889 0.64048 0.15553 0.0
C1329 C 0.16892 0.62201 0.21311 0.0
C1330 C 0.15199 0.65455 0.13328 0.0
C1331 C 0.15563 0.65257 0.09605 0.0
C1332 C 0.15661 0.63647 0.08055 0.0
C1333 C 0.15321 0.6224 0.10246 0.0
C1334 C 0.14901 0.62441 0.13948 0.0
H1335 H 0.17795 0.62061 0.23617 0.0
H1336 H 0.16348 0.60944 0.20747 0.0
H1337 H 0.17599 0.6262 0.1885 0.0
H1338 H 0.15194 0.66709 0.14487 0.0
H1339 H 0.15825 0.66362 0.07968 0.0
H1340 H 0.34441 0.15078 0.38748 0.0
H1341 H 0.35008 0.15238 0.32168 0.0
H1342 H 0.31326 0.11374 0.30146 0.0
H1343 H 0.30734 0.1121 0.36729 0.0
H1344 H 0.36024 0.12665 0.27047 0.0
H1345 H 0.29776 0.15411 0.23818 0.0
H1346 H 0.30604 0.15342 0.28429 0.0
H1347 H 0.29756 0.13478 0.26358 0.0
C1348 C 0.33754 0.14255 0.36913 0.0
C1349 C 0.3253 0.13142 0.38264 0.0
C1350 C 0.34085 0.14346 0.33155 0.0
C1351 C 0.33193 0.13333 0.30681 0.0
C1352 C 0.32008 0.12183 0.32018 0.0
H1353 H 0.32903 0.13718 0.06788 0.0
H1354 H 0.32531 0.12854 0.13173 0.0
C1355 C 0.31677 0.12089 0.3578 0.0
C1356 C 0.3347 0.13529 0.26693 0.0
H1357 H 0.31597 0.1492 0.18848 0.0
C1358 C 0.35056 0.1315 0.25243 0.0
C1359 C 0.32201 0.1416 0.24363 0.0
C1360 C 0.3049 0.14635 0.25809 0.0
C1361 C 0.3541 0.13392 0.21506 0.0
C1362 C 0.34153 0.1406 0.19192 0.0
C1363 C 0.32557 0.14406 0.20633 0.0
C1364 C 0.34479 0.14481 0.15302 0.0
C1365 C 0.37122 0.12922 0.20068 0.0
C1366 C 0.35698 0.15683 0.14388 0.0
C1367 C 0.35916 0.16178 0.10742 0.0
C1368 C 0.34907 0.15492 0.07947 0.0
C1369 C 0.33701 0.14273 0.08871 0.0
C1370 C 0.33487 0.13776 0.12517 0.0
H1371 H 0.37745 0.11984 0.21864 0.0
H1372 H 0.37042 0.12403 0.17241 0.0
H1373 H 0.37927 0.14059 0.19993 0.0
H1374 H 0.3645 0.16272 0.16507 0.0
H1375 H 0.36852 0.17126 0.10131 0.0
loop_
_geom_bond_atom_site_label_1
_geom_bond_atom_site_label_2
_geom_bond_distance
_geom_bond_site_symmetry_2
_ccdc_geom_bond_type
C0 O1 1.306 . S
C0 O3 1.160 . S
O1 C0 1.306 . S
O1 Cd2 2.228 1_556 S
Cd2 O1 2.228 1_554 S
Cd2 O6 2.273 . S
Cd2 O10 2.277 . S
O3 C0 1.160 . S
O3 Cd4 2.203 1_556 S
Cd4 O3 2.203 1_554 S
Cd4 O6 2.411 . S
Cd4 O7 2.333 . S
Cd4 O8 2.351 1_554 S
Cd4 O12 2.277 1_554 S
Cd4 O13 2.356 . S
C5 O10 1.210 . S
C5 O12 1.226 1_554 S
O6 Cd2 2.273 . S
O6 Cd4 2.411 . S
O6 C9 1.320 . S
O7 Cd4 2.333 . S
O7 C9 1.214 . S
O8 Cd4 2.351 1_556 S
O8 C11 1.257 1_556 S
C9 O6 1.320 . S
C9 O7 1.214 . S
O10 Cd2 2.277 . S
O10 C5 1.210 . S
C11 O8 1.257 1_554 S
C11 O13 1.282 . S
O12 Cd4 2.277 1_556 S
O12 C5 1.226 1_556 S
O13 Cd4 2.356 . S
O13 C11 1.282 . S
C14 O15 1.306 . S
C14 O17 1.160 . S
O15 C14 1.306 . S
O15 Cd16 2.228 1_556 S
Cd16 O15 2.228 1_554 S
Cd16 O20 2.273 . S
Cd16 O24 2.277 . S
O17 C14 1.160 . S
O17 Cd18 2.203 1_556 S
Cd18 O17 2.203 1_554 S
Cd18 O20 2.411 . S
Cd18 O21 2.333 . S
Cd18 O22 2.351 1_554 S
Cd18 O26 2.277 1_554 S
Cd18 O27 2.356 . S
C19 O24 1.210 . S
C19 O26 1.226 1_554 S
O20 Cd16 2.273 . S
O20 Cd18 2.411 . S
O20 C23 1.320 . S
O21 Cd18 2.333 . S
O21 C23 1.214 . S
O22 Cd18 2.351 1_556 S
O22 C25 1.257 1_556 S
C23 O20 1.320 . S
C23 O21 1.214 . S
O24 Cd16 2.277 . S
O24 C19 1.210 . S
C25 O22 1.257 1_554 S
C25 O27 1.282 . S
O26 Cd18 2.277 1_556 S
O26 C19 1.226 1_556 S
O27 Cd18 2.356 . S
O27 C25 1.282 . S
C28 O29 1.306 . S
C28 O31 1.160 . S
O29 C28 1.306 . S
O29 Cd30 2.228 1_556 S
Cd30 O29 2.228 1_554 S
Cd30 O34 2.273 . S
Cd30 O38 2.277 . S
O31 C28 1.160 . S
O31 Cd32 2.203 1_556 S
Cd32 O31 2.203 1_554 S
Cd32 O34 2.411 . S
Cd32 O35 2.333 . S
Cd32 O36 2.351 1_554 S
Cd32 O40 2.277 1_554 S
Cd32 O41 2.356 . S
C33 O38 1.210 . S
C33 O40 1.226 1_554 S
O34 Cd30 2.273 . S
O34 Cd32 2.411 . S
O34 C37 1.320 . S
O35 Cd32 2.333 . S
O35 C37 1.214 . S
O36 Cd32 2.351 1_556 S
O36 C39 1.257 1_556 S
C37 O34 1.320 . S
C37 O35 1.214 . S
O38 Cd30 2.277 . S
O38 C33 1.210 . S
C39 O36 1.257 1_554 S
C39 O41 1.282 . S
O40 Cd32 2.277 1_556 S
O40 C33 1.226 1_556 S
O41 Cd32 2.356 . S
O41 C39 1.282 . S
C42 O43 1.306 . S
C42 O45 1.160 . S
O43 C42 1.306 . S
O43 Cd44 2.228 1_556 S
Cd44 O43 2.228 1_554 S
Cd44 O48 2.273 . S
Cd44 O52 2.277 . S
O45 C42 1.160 . S
O45 Cd46 2.203 1_556 S
Cd46 O45 2.203 1_554 S
Cd46 O48 2.411 . S
Cd46 O49 2.333 . S
Cd46 O50 2.351 1_554 S
Cd46 O54 2.277 1_554 S
Cd46 O55 2.356 . S
C47 O52 1.210 . S
C47 O54 1.226 1_554 S
O48 Cd44 2.273 . S
O48 Cd46 2.411 . S
O48 C51 1.320 . S
O49 Cd46 2.333 . S
O49 C51 1.214 . S
O50 Cd46 2.351 1_556 S
O50 C53 1.257 1_556 S
C51 O48 1.320 . S
C51 O49 1.214 . S
O52 Cd44 2.277 . S
O52 C47 1.210 . S
C53 O50 1.257 1_554 S
C53 O55 1.282 . S
O54 Cd46 2.277 1_556 S
O54 C47 1.226 1_556 S
O55 Cd46 2.356 . S
O55 C53 1.282 . S
C56 O57 1.306 . S
C56 O59 1.160 . S
O57 C56 1.306 . S
O57 Cd58 2.228 1_554 S
Cd58 O57 2.228 1_556 S
Cd58 O62 2.273 . S
Cd58 O66 2.277 . S
O59 C56 1.160 . S
O59 Cd60 2.203 1_554 S
Cd60 O59 2.203 1_556 S
Cd60 O62 2.411 . S
Cd60 O63 2.333 . S
Cd60 O64 2.352 1_556 S
Cd60 O68 2.277 1_556 S
Cd60 O69 2.356 . S
C61 O66 1.207 1_554 S
C61 O68 1.227 . S
O62 Cd58 2.273 . S
O62 Cd60 2.411 . S
O62 C65 1.320 . S
O63 Cd60 2.333 . S
O63 C65 1.214 . S
O64 Cd60 2.352 1_554 S
O64 C67 1.258 1_554 S
C65 O62 1.320 . S
C65 O63 1.214 . S
O66 Cd58 2.277 . S
O66 C61 1.207 1_556 S
C67 O64 1.258 1_556 S
C67 O69 1.282 . S
O68 Cd60 2.277 1_554 S
O68 C61 1.227 . S
O69 Cd60 2.356 . S
O69 C67 1.282 . S
C70 O71 1.306 . S
C70 O73 1.160 . S
O71 C70 1.306 . S
O71 Cd72 2.228 1_554 S
Cd72 O71 2.228 1_556 S
Cd72 O76 2.273 . S
Cd72 O80 2.277 . S
O73 C70 1.160 . S
O73 Cd74 2.203 1_554 S
Cd74 O73 2.203 1_556 S
Cd74 O76 2.411 . S
Cd74 O77 2.333 . S
Cd74 O78 2.352 1_556 S
Cd74 O82 2.277 1_556 S
Cd74 O83 2.356 . S
C75 O80 1.207 1_554 S
C75 O82 1.227 . S
O76 Cd72 2.273 . S
O76 Cd74 2.411 . S
O76 C79 1.320 . S
O77 Cd74 2.333 . S
O77 C79 1.214 . S
O78 Cd74 2.352 1_554 S
O78 C81 1.258 1_554 S
C79 O76 1.320 . S
C79 O77 1.214 . S
O80 Cd72 2.277 . S
O80 C75 1.207 1_556 S
C81 O78 1.258 1_556 S
C81 O83 1.282 . S
O82 Cd74 2.277 1_554 S
O82 C75 1.227 . S
O83 Cd74 2.356 . S
O83 C81 1.282 . S
C84 O85 1.306 . S
C84 O87 1.160 . S
O85 C84 1.306 . S
O85 Cd86 2.228 1_554 S
Cd86 O85 2.228 1_556 S
Cd86 O90 2.273 . S
Cd86 O94 2.277 . S
O87 C84 1.160 . S
O87 Cd88 2.203 1_554 S
Cd88 O87 2.203 1_556 S
Cd88 O90 2.411 . S
Cd88 O91 2.333 . S
Cd88 O92 2.352 1_556 S
Cd88 O96 2.277 1_556 S
Cd88 O97 2.356 . S
C89 O94 1.207 1_554 S
C89 O96 1.227 . S
O90 Cd86 2.273 . S
O90 Cd88 2.411 . S
O90 C93 1.320 . S
O91 Cd88 2.333 . S
O91 C93 1.214 . S
O92 Cd88 2.352 1_554 S
O92 C95 1.258 1_554 S
C93 O90 1.320 . S
C93 O91 1.214 . S
O94 Cd86 2.277 . S
O94 C89 1.207 1_556 S
C95 O92 1.258 1_556 S
C95 O97 1.282 . S
O96 Cd88 2.277 1_554 S
O96 C89 1.227 . S
O97 Cd88 2.356 . S
O97 C95 1.282 . S
C98 O99 1.306 . S
C98 O101 1.160 . S
O99 C98 1.306 . S
O99 Cd100 2.228 1_554 S
Cd100 O99 2.228 1_556 S
Cd100 O104 2.273 . S
Cd100 O108 2.277 . S
O101 C98 1.160 . S
O101 Cd102 2.203 1_554 S
Cd102 O101 2.203 1_556 S
Cd102 O104 2.411 . S
Cd102 O105 2.333 . S
Cd102 O106 2.352 1_556 S
Cd102 O110 2.277 1_556 S
Cd102 O111 2.356 . S
C103 O108 1.207 1_554 S
C103 O110 1.227 . S
O104 Cd100 2.273 . S
O104 Cd102 2.411 . S
O104 C107 1.320 . S
O105 Cd102 2.333 . S
O105 C107 1.214 . S
O106 Cd102 2.352 1_554 S
O106 C109 1.258 1_554 S
C107 O104 1.320 . S
C107 O105 1.214 . S
O108 Cd100 2.277 . S
O108 C103 1.207 1_556 S
C109 O106 1.258 1_556 S
C109 O111 1.282 . S
O110 Cd102 2.277 1_554 S
O110 C103 1.227 . S
O111 Cd102 2.356 . S
O111 C109 1.282 . S
C112 O113 1.306 . S
C112 O115 1.160 . S
O113 C112 1.306 . S
O113 Cd114 2.228 . S
Cd114 O113 2.228 . S
Cd114 O118 2.273 . S
Cd114 O122 2.277 . S
O115 C112 1.160 . S
O115 Cd116 2.203 . S
Cd116 O115 2.203 . S
Cd116 O118 2.411 . S
Cd116 O119 2.333 . S
Cd116 O120 2.352 . S
Cd116 O124 2.277 . S
Cd116 O125 2.356 . S
C117 O122 1.209 . S
C117 O124 1.226 . S
O118 Cd114 2.273 . S
O118 Cd116 2.411 . S
O118 C121 1.320 . S
O119 Cd116 2.333 . S
O119 C121 1.214 . S
O120 Cd116 2.352 . S
O120 C123 1.258 . S
C121 O118 1.320 . S
C121 O119 1.214 . S
O122 Cd114 2.277 . S
O122 C117 1.209 . S
C123 O120 1.258 . S
C123 O125 1.282 . S
O124 Cd116 2.277 . S
O124 C117 1.226 . S
O125 Cd116 2.356 . S
O125 C123 1.282 . S
C126 O127 1.306 . S
C126 O129 1.160 . S
O127 C126 1.306 . S
O127 Cd128 2.228 . S
Cd128 O127 2.228 . S
Cd128 O132 2.273 . S
Cd128 O136 2.277 . S
O129 C126 1.160 . S
O129 Cd130 2.203 . S
Cd130 O129 2.203 . S
Cd130 O132 2.411 . S
Cd130 O133 2.333 . S
Cd130 O134 2.352 . S
Cd130 O138 2.277 . S
Cd130 O139 2.356 . S
C131 O136 1.209 . S
C131 O138 1.226 . S
O132 Cd128 2.273 . S
O132 Cd130 2.411 . S
O132 C135 1.320 . S
O133 Cd130 2.333 . S
O133 C135 1.214 . S
O134 Cd130 2.352 . S
O134 C137 1.258 . S
C135 O132 1.320 . S
C135 O133 1.214 . S
O136 Cd128 2.277 . S
O136 C131 1.209 . S
C137 O134 1.258 . S
C137 O139 1.282 . S
O138 Cd130 2.277 . S
O138 C131 1.226 . S
O139 Cd130 2.356 . S
O139 C137 1.282 . S
C140 O141 1.306 . S
C140 O143 1.160 . S
O141 C140 1.306 . S
O141 Cd142 2.228 . S
Cd142 O141 2.228 . S
Cd142 O146 2.273 . S
Cd142 O150 2.277 . S
O143 C140 1.160 . S
O143 Cd144 2.203 . S
Cd144 O143 2.203 . S
Cd144 O146 2.411 . S
Cd144 O147 2.333 . S
Cd144 O148 2.352 . S
Cd144 O152 2.277 . S
Cd144 O153 2.356 . S
C145 O150 1.209 . S
C145 O152 1.226 . S
O146 Cd142 2.273 . S
O146 Cd144 2.411 . S
O146 C149 1.320 . S
O147 Cd144 2.333 . S
O147 C149 1.214 . S
O148 Cd144 2.352 . S
O148 C151 1.258 . S
C149 O146 1.320 . S
C149 O147 1.214 . S
O150 Cd142 2.277 . S
O150 C145 1.209 . S
C151 O148 1.258 . S
C151 O153 1.282 . S
O152 Cd144 2.277 . S
O152 C145 1.226 . S
O153 Cd144 2.356 . S
O153 C151 1.282 . S
C154 O155 1.306 . S
C154 O157 1.160 . S
O155 C154 1.306 . S
O155 Cd156 2.228 . S
Cd156 O155 2.228 . S
Cd156 O160 2.273 . S
Cd156 O164 2.277 . S
O157 C154 1.160 . S
O157 Cd158 2.203 . S
Cd158 O157 2.203 . S
Cd158 O160 2.411 . S
Cd158 O161 2.333 . S
Cd158 O162 2.352 . S
Cd158 O166 2.277 . S
Cd158 O167 2.356 . S
C159 O164 1.209 . S
C159 O166 1.226 . S
O160 Cd156 2.273 . S
O160 Cd158 2.411 . S
O160 C163 1.320 . S
O161 Cd158 2.333 . S
O161 C163 1.214 . S
O162 Cd158 2.352 . S
O162 C165 1.258 . S
C163 O160 1.320 . S
C163 O161 1.214 . S
O164 Cd156 2.277 . S
O164 C159 1.209 . S
C165 O162 1.258 . S
C165 O167 1.282 . S
O166 Cd158 2.277 . S
O166 C159 1.226 . S
O167 Cd158 2.356 . S
O167 C165 1.282 . S
C168 O169 1.306 . S
C168 O171 1.160 . S
O169 C168 1.306 . S
O169 Cd170 2.228 . S
Cd170 O169 2.228 . S
Cd170 O174 2.273 . S
Cd170 O178 2.277 . S
O171 C168 1.160 . S
O171 Cd172 2.203 . S
Cd172 O171 2.203 . S
Cd172 O174 2.411 . S
Cd172 O175 2.333 . S
Cd172 O176 2.352 . S
Cd172 O180 2.277 . S
Cd172 O181 2.356 . S
C173 O178 1.209 . S
C173 O180 1.226 . S
O174 Cd170 2.273 . S
O174 Cd172 2.411 . S
O174 C177 1.320 . S
O175 Cd172 2.333 . S
O175 C177 1.214 . S
O176 Cd172 2.352 . S
O176 C179 1.258 . S
C177 O174 1.320 . S
C177 O175 1.214 . S
O178 Cd170 2.277 . S
O178 C173 1.209 . S
C179 O176 1.258 . S
C179 O181 1.282 . S
O180 Cd172 2.277 . S
O180 C173 1.226 . S
O181 Cd172 2.356 . S
O181 C179 1.282 . S
C182 O183 1.306 . S
C182 O185 1.160 . S
O183 C182 1.306 . S
O183 Cd184 2.228 . S
Cd184 O183 2.228 . S
Cd184 O188 2.273 . S
Cd184 O192 2.277 . S
O185 C182 1.160 . S
O185 Cd186 2.203 . S
Cd186 O185 2.203 . S
Cd186 O188 2.411 . S
Cd186 O189 2.333 . S
Cd186 O190 2.352 . S
Cd186 O194 2.277 . S
Cd186 O195 2.356 . S
C187 O192 1.209 . S
C187 O194 1.226 . S
O188 Cd184 2.273 . S
O188 Cd186 2.411 . S
O188 C191 1.320 . S
O189 Cd186 2.333 . S
O189 C191 1.214 . S
O190 Cd186 2.352 . S
O190 C193 1.258 . S
C191 O188 1.320 . S
C191 O189 1.214 . S
O192 Cd184 2.277 . S
O192 C187 1.209 . S
C193 O190 1.258 . S
C193 O195 1.282 . S
O194 Cd186 2.277 . S
O194 C187 1.226 . S
O195 Cd186 2.356 . S
O195 C193 1.282 . S
C196 O197 1.306 . S
C196 O199 1.160 . S
O197 C196 1.306 . S
O197 Cd198 2.228 . S
Cd198 O197 2.228 . S
Cd198 O202 2.273 . S
Cd198 O206 2.277 . S
O199 C196 1.160 . S
O199 Cd200 2.203 . S
Cd200 O199 2.203 . S
Cd200 O202 2.411 . S
Cd200 O203 2.333 . S
Cd200 O204 2.352 . S
Cd200 O208 2.277 . S
Cd200 O209 2.356 . S
C201 O206 1.209 . S
C201 O208 1.226 . S
O202 Cd198 2.273 . S
O202 Cd200 2.411 . S
O202 C205 1.320 . S
O203 Cd200 2.333 . S
O203 C205 1.214 . S
O204 Cd200 2.352 . S
O204 C207 1.258 . S
C205 O202 1.320 . S
C205 O203 1.214 . S
O206 Cd198 2.277 . S
O206 C201 1.209 . S
C207 O204 1.258 . S
C207 O209 1.282 . S
O208 Cd200 2.277 . S
O208 C201 1.226 . S
O209 Cd200 2.356 . S
O209 C207 1.282 . S
C210 O211 1.306 . S
C210 O213 1.160 . S
O211 C210 1.306 . S
O211 Cd212 2.228 . S
Cd212 O211 2.228 . S
Cd212 O216 2.273 . S
Cd212 O220 2.277 . S
O213 C210 1.160 . S
O213 Cd214 2.203 . S
Cd214 O213 2.203 . S
Cd214 O216 2.411 . S
Cd214 O217 2.333 . S
Cd214 O218 2.352 . S
Cd214 O222 2.277 . S
Cd214 O223 2.356 . S
C215 O220 1.209 . S
C215 O222 1.226 . S
O216 Cd212 2.273 . S
O216 Cd214 2.411 . S
O216 C219 1.320 . S
O217 Cd214 2.333 . S
O217 C219 1.214 . S
O218 Cd214 2.352 . S
O218 C221 1.258 . S
C219 O216 1.320 . S
C219 O217 1.214 . S
O220 Cd212 2.277 . S
O220 C215 1.209 . S
C221 O218 1.258 . S
C221 O223 1.282 . S
O222 Cd214 2.277 . S
O222 C215 1.226 . S
O223 Cd214 2.356 . S
O223 C221 1.282 . S
H224 C232 0.929 . S
H225 C234 0.930 . S
H226 C236 0.930 . S
H227 C239 0.929 . S
H228 C242 0.930 . S
H229 C244 0.960 . S
H230 C244 0.960 . S
H231 C244 0.960 . S
C232 H224 0.929 . S
C232 C233 1.377 1_554 S
C232 C234 1.384 . S
C233 C232 1.377 1_556 S
C233 C239 1.390 . S
C234 H225 0.930 . S
C234 C232 1.384 . S
C234 C235 1.378 . S
C235 C234 1.378 . S
C235 C236 1.393 1_554 S
C235 C240 1.491 . S
C236 H226 0.930 . S
C236 C235 1.393 1_556 S
C236 C239 1.386 . S
H237 C253 0.930 . S
H238 C254 0.931 . S
C239 H227 0.929 . S
C239 C233 1.390 . S
C239 C236 1.386 . S
C240 C235 1.491 . S
C240 C242 1.395 . S
C240 C243 1.403 1_554 S
H241 C247 0.930 . S
C242 H228 0.930 . S
C242 C240 1.395 . S
C242 C245 1.403 . S
C243 C240 1.403 1_556 S
C243 C244 1.524 . S
C243 C247 1.400 . S
C244 H229 0.960 . S
C244 H230 0.960 . S
C244 H231 0.960 . S
C244 C243 1.524 . S
C245 C242 1.403 . S
C245 C246 1.392 . S
C245 C249 1.495 . S
C246 C245 1.392 . S
C246 C247 1.385 1_554 S
C246 C248 1.478 . S
C247 H241 0.930 . S
C247 C243 1.400 . S
C247 C246 1.385 1_556 S
C248 C246 1.478 . S
C248 C250 1.381 . S
C248 C254 1.383 1_554 S
C249 C245 1.495 . S
C249 H255 0.959 . S
C249 H256 0.961 . S
C249 H257 0.960 . S
C250 C248 1.381 . S
C250 C251 1.394 . S
C250 H258 0.930 . S
C251 C250 1.394 . S
C251 C252 1.383 . S
C251 H259 0.929 . S
C252 C251 1.383 . S
C252 C253 1.377 1_554 S
C253 H237 0.930 . S
C253 C252 1.377 1_556 S
C253 C254 1.379 . S
C254 H238 0.931 . S
C254 C248 1.383 1_556 S
C254 C253 1.379 . S
H255 C249 0.959 . S
H256 C249 0.961 . S
H257 C249 0.960 . S
H258 C250 0.930 . S
H259 C251 0.929 . S
H260 C268 0.929 . S
H261 C270 0.930 . S
H262 C272 0.930 . S
H263 C275 0.929 . S
H264 C278 0.930 . S
H265 C280 0.960 . S
H266 C280 0.960 . S
H267 C280 0.960 . S
C268 H260 0.929 . S
C268 C269 1.377 1_554 S
C268 C270 1.384 . S
C269 C268 1.377 1_556 S
C269 C275 1.390 . S
C270 H261 0.930 . S
C270 C268 1.384 . S
C270 C271 1.391 . S
C271 C270 1.391 . S
C271 C272 1.380 1_554 S
C271 C276 1.491 . S
C272 H262 0.930 . S
C272 C271 1.380 1_556 S
C272 C275 1.386 . S
H273 C289 0.930 . S
H274 C290 0.931 . S
C275 H263 0.929 . S
C275 C269 1.390 . S
C275 C272 1.386 . S
C276 C271 1.491 . S
C276 C278 1.395 . S
C276 C279 1.403 1_554 S
H277 C283 0.930 . S
C278 H264 0.930 . S
C278 C276 1.395 . S
C278 C281 1.403 . S
C279 C276 1.403 1_556 S
C279 C280 1.524 . S
C279 C283 1.400 . S
C280 H265 0.960 . S
C280 H266 0.960 . S
C280 H267 0.960 . S
C280 C279 1.524 . S
C281 C278 1.403 . S
C281 C282 1.392 . S
C281 C285 1.495 . S
C282 C281 1.392 . S
C282 C283 1.385 1_554 S
C282 C284 1.478 . S
C283 H277 0.930 . S
C283 C279 1.400 . S
C283 C282 1.385 1_556 S
C284 C282 1.478 . S
C284 C286 1.381 . S
C284 C290 1.383 1_554 S
C285 C281 1.495 . S
C285 H291 0.959 . S
C285 H292 0.961 . S
C285 H293 0.960 . S
C286 C284 1.381 . S
C286 C287 1.394 . S
C286 H294 0.930 . S
C287 C286 1.394 . S
C287 C288 1.383 . S
C287 H295 0.929 . S
C288 C287 1.383 . S
C288 C289 1.377 1_554 S
C289 H273 0.930 . S
C289 C288 1.377 1_556 S
C289 C290 1.379 . S
C290 H274 0.931 . S
C290 C284 1.383 1_556 S
C290 C289 1.379 . S
H291 C285 0.959 . S
H292 C285 0.961 . S
H293 C285 0.960 . S
H294 C286 0.930 . S
H295 C287 0.929 . S
H296 C304 0.929 . S
H297 C306 0.930 . S
H298 C308 0.930 . S
H299 C311 0.929 . S
H300 C314 0.930 . S
H301 C316 0.960 . S
H302 C316 0.960 . S
H303 C316 0.960 . S
C304 H296 0.929 . S
C304 C305 1.359 1_554 S
C304 C306 1.384 . S
C305 C304 1.359 1_556 S
C305 C311 1.408 . S
C306 H297 0.930 . S
C306 C304 1.384 . S
C306 C307 1.372 . S
C307 C306 1.372 . S
C307 C308 1.400 1_554 S
C307 C312 1.490 . S
C308 H298 0.930 . S
C308 C307 1.400 1_556 S
C308 C311 1.386 . S
H309 C325 0.930 . S
H310 C326 0.931 . S
C311 H299 0.929 . S
C311 C305 1.408 . S
C311 C308 1.386 . S
C312 C307 1.490 . S
C312 C314 1.395 . S
C312 C315 1.403 1_554 S
H313 C319 0.930 . S
C314 H300 0.930 . S
C314 C312 1.395 . S
C314 C317 1.403 . S
C315 C312 1.403 1_556 S
C315 C316 1.524 . S
C315 C319 1.400 . S
C316 H301 0.960 . S
C316 H302 0.960 . S
C316 H303 0.960 . S
C316 C315 1.524 . S
C317 C314 1.403 . S
C317 C318 1.392 . S
C317 C321 1.495 . S
C318 C317 1.392 . S
C318 C319 1.385 1_554 S
C318 C320 1.478 . S
C319 H313 0.930 . S
C319 C315 1.400 . S
C319 C318 1.385 1_556 S
C320 C318 1.478 . S
C320 C322 1.381 . S
C320 C326 1.383 1_554 S
C321 C317 1.495 . S
C321 H327 0.959 . S
C321 H328 0.961 . S
C321 H329 0.960 . S
C322 C320 1.381 . S
C322 C323 1.394 . S
C322 H330 0.930 . S
C323 C322 1.394 . S
C323 C324 1.383 . S
C323 H331 0.929 . S
C324 C323 1.383 . S
C324 C325 1.377 1_554 S
C325 H309 0.930 . S
C325 C324 1.377 1_556 S
C325 C326 1.379 . S
C326 H310 0.931 . S
C326 C320 1.383 1_556 S
C326 C325 1.379 . S
H327 C321 0.959 . S
H328 C321 0.961 . S
H329 C321 0.960 . S
H330 C322 0.930 . S
H331 C323 0.929 . S
H332 C340 0.929 . S
H333 C342 0.930 . S
H334 C344 0.930 . S
H335 C347 0.929 . S
H336 C350 0.930 . S
H337 C352 0.960 . S
H338 C352 0.960 1_556 S
H339 C352 0.960 . S
C340 H332 0.929 . S
C340 C341 1.377 . S
C340 C342 1.384 . S
C341 C340 1.377 . S
C341 C347 1.390 1_556 S
C342 H333 0.930 . S
C342 C340 1.384 . S
C342 C343 1.372 . S
C343 C342 1.372 . S
C343 C344 1.400 1_556 S
C343 C348 1.490 . S
C344 H334 0.930 . S
C344 C343 1.400 1_554 S
C344 C347 1.386 . S
H345 C361 0.930 . S
H346 C362 0.931 . S
C347 H335 0.929 . S
C347 C341 1.390 1_554 S
C347 C344 1.386 . S
C348 C343 1.490 . S
C348 C350 1.395 . S
C348 C351 1.403 1_556 S
H349 C355 0.930 . S
C350 H336 0.930 . S
C350 C348 1.395 . S
C350 C353 1.403 . S
C351 C348 1.403 1_554 S
C351 C352 1.524 . S
C351 C355 1.400 . S
C352 H337 0.960 . S
C352 H338 0.960 1_554 S
C352 H339 0.960 . S
C352 C351 1.524 . S
C353 C350 1.403 . S
C353 C354 1.392 . S
C353 C357 1.495 . S
C354 C353 1.392 . S
C354 C355 1.385 1_556 S
C354 C356 1.478 . S
C355 H349 0.930 . S
C355 C351 1.400 . S
C355 C354 1.385 1_554 S
C356 C354 1.478 . S
C356 C358 1.392 . S
C356 C362 1.371 1_556 S
C357 C353 1.495 . S
C357 H363 0.959 . S
C357 H364 0.961 1_556 S
C357 H365 0.960 . S
C358 C356 1.392 . S
C358 C359 1.394 . S
C358 H366 0.930 . S
C359 C358 1.394 . S
C359 C360 1.383 1_556 S
C359 H367 0.929 . S
C360 C359 1.383 1_554 S
C360 C361 1.377 . S
C361 H345 0.930 . S
C361 C360 1.377 . S
C361 C362 1.379 . S
C362 H346 0.931 . S
C362 C356 1.371 1_554 S
C362 C361 1.379 . S
H363 C357 0.959 . S
H364 C357 0.961 1_554 S
H365 C357 0.960 . S
H366 C358 0.930 . S
H367 C359 0.929 . S
H368 C376 0.929 . S
H369 C378 0.930 . S
H370 C380 0.930 . S
H371 C383 0.929 . S
H372 C386 0.930 . S
H373 C388 0.960 . S
H374 C388 0.960 . S
H375 C388 0.960 . S
C376 H368 0.929 . S
C376 C377 1.377 . S
C376 C378 1.384 . S
C377 C376 1.377 . S
C377 C383 1.390 . S
C378 H369 0.930 . S
C378 C376 1.384 . S
C378 C379 1.372 . S
C379 C378 1.372 . S
C379 C380 1.400 . S
C379 C384 1.490 . S
C380 H370 0.930 . S
C380 C379 1.400 . S
C380 C383 1.386 . S
H381 C397 0.930 . S
H382 C398 0.931 . S
C383 H371 0.929 . S
C383 C377 1.390 . S
C383 C380 1.386 . S
C384 C379 1.490 . S
C384 C386 1.395 . S
C384 C387 1.403 . S
H385 C391 0.930 . S
C386 H372 0.930 . S
C386 C384 1.395 . S
C386 C389 1.403 1_545 S
C387 C384 1.403 . S
C387 C388 1.524 . S
C387 C391 1.400 1_545 S
C388 H373 0.960 . S
C388 H374 0.960 . S
C388 H375 0.960 . S
C388 C387 1.524 . S
C389 C386 1.403 1_565 S
C389 C390 1.392 . S
C389 C393 1.495 . S
C390 C389 1.392 . S
C390 C391 1.385 . S
C390 C392 1.478 . S
C391 H385 0.930 . S
C391 C387 1.400 1_565 S
C391 C390 1.385 . S
C392 C390 1.478 . S
C392 C394 1.381 . S
C392 C398 1.383 . S
C393 C389 1.495 . S
C393 H399 0.959 . S
C393 H400 0.961 . S
C393 H401 0.960 . S
C394 C392 1.381 . S
C394 C395 1.394 . S
C394 H402 0.930 . S
C395 C394 1.394 . S
C395 C396 1.383 . S
C395 H403 0.929 . S
C396 C395 1.383 . S
C396 C397 1.377 . S
C397 H381 0.930 . S
C397 C396 1.377 . S
C397 C398 1.379 . S
C398 H382 0.931 . S
C398 C392 1.383 . S
C398 C397 1.379 . S
H399 C393 0.959 . S
H400 C393 0.961 . S
H401 C393 0.960 . S
H402 C394 0.930 . S
H403 C395 0.929 . S
H404 C412 0.929 . S
H405 C414 0.930 . S
H406 C416 0.930 . S
H407 C419 0.929 . S
H408 C422 0.930 . S
H409 C424 0.960 . S
H410 C424 0.960 . S
H411 C424 0.960 . S
C412 H404 0.929 . S
C412 C413 1.377 . S
C412 C414 1.384 . S
C413 C412 1.377 . S
C413 C419 1.390 . S
C414 H405 0.930 . S
C414 C412 1.384 . S
C414 C415 1.372 . S
C415 C414 1.372 . S
C415 C416 1.400 . S
C415 C420 1.490 . S
C416 H406 0.930 . S
C416 C415 1.400 . S
C416 C419 1.386 . S
H417 C433 0.930 . S
H418 C434 0.931 . S
C419 H407 0.929 . S
C419 C413 1.390 . S
C419 C416 1.386 . S
C420 C415 1.490 . S
C420 C422 1.395 . S
C420 C423 1.403 . S
H421 C427 0.930 . S
C422 H408 0.930 . S
C422 C420 1.395 . S
C422 C425 1.403 1_655 S
C423 C420 1.403 . S
C423 C424 1.524 . S
C423 C427 1.400 1_655 S
C424 H409 0.960 . S
C424 H410 0.960 . S
C424 H411 0.960 . S
C424 C423 1.524 . S
C425 C422 1.403 1_455 S
C425 C426 1.392 . S
C425 C429 1.495 . S
C426 C425 1.392 . S
C426 C427 1.385 . S
C426 C428 1.478 . S
C427 H421 0.930 . S
C427 C423 1.400 1_455 S
C427 C426 1.385 . S
C428 C426 1.478 . S
C428 C430 1.381 . S
C428 C434 1.383 . S
C429 C425 1.495 . S
C429 H435 0.959 . S
C429 H436 0.961 . S
C429 H437 0.960 . S
C430 C428 1.381 . S
C430 C431 1.394 . S
C430 H438 0.930 . S
C431 C430 1.394 . S
C431 C432 1.383 . S
C431 H439 0.929 . S
C432 C431 1.383 . S
C432 C433 1.377 . S
C433 H417 0.930 . S
C433 C432 1.377 . S
C433 C434 1.379 . S
C434 H418 0.931 . S
C434 C428 1.383 . S
C434 C433 1.379 . S
H435 C429 0.959 . S
H436 C429 0.961 . S
H437 C429 0.960 . S
H438 C430 0.930 . S
H439 C431 0.929 . S
H440 C448 0.929 . S
H441 C450 0.930 . S
H442 C452 0.930 . S
H443 C455 0.929 . S
H444 C458 0.930 . S
H445 C460 0.960 . S
H446 C460 0.960 . S
H447 C460 0.960 . S
C448 H440 0.929 . S
C448 C449 1.377 . S
C448 C450 1.384 . S
C449 C448 1.377 . S
C449 C455 1.390 . S
C450 H441 0.930 . S
C450 C448 1.384 . S
C450 C451 1.372 . S
C451 C450 1.372 . S
C451 C452 1.400 . S
C451 C456 1.490 . S
C452 H442 0.930 . S
C452 C451 1.400 . S
C452 C455 1.386 . S
H453 C469 0.930 . S
H454 C470 0.931 . S
C455 H443 0.929 . S
C455 C449 1.390 . S
C455 C452 1.386 . S
C456 C451 1.490 . S
C456 C458 1.395 . S
C456 C459 1.403 . S
H457 C463 0.930 . S
C458 H444 0.930 . S
C458 C456 1.395 . S
C458 C461 1.403 1_545 S
C459 C456 1.403 . S
C459 C460 1.524 . S
C459 C463 1.400 1_545 S
C460 H445 0.960 . S
C460 H446 0.960 . S
C460 H447 0.960 . S
C460 C459 1.524 . S
C461 C458 1.403 1_565 S
C461 C462 1.392 . S
C461 C465 1.495 . S
C462 C461 1.392 . S
C462 C463 1.385 . S
C462 C464 1.478 . S
C463 H457 0.930 . S
C463 C459 1.400 1_565 S
C463 C462 1.385 . S
C464 C462 1.478 . S
C464 C466 1.381 . S
C464 C470 1.383 . S
C465 C461 1.495 . S
C465 H471 0.959 . S
C465 H472 0.961 . S
C465 H473 0.960 . S
C466 C464 1.381 . S
C466 C467 1.394 . S
C466 H474 0.930 . S
C467 C466 1.394 . S
C467 C468 1.383 . S
C467 H475 0.929 . S
C468 C467 1.383 . S
C468 C469 1.377 . S
C469 H453 0.930 . S
C469 C468 1.377 . S
C469 C470 1.379 . S
C470 H454 0.931 . S
C470 C464 1.383 . S
C470 C469 1.379 . S
H471 C465 0.959 . S
H472 C465 0.961 . S
H473 C465 0.960 . S
H474 C466 0.930 . S
H475 C467 0.929 . S
H476 C484 0.929 . S
H477 C486 0.930 . S
H478 C488 0.930 . S
H479 C491 0.929 . S
H480 C494 0.930 . S
H481 C496 0.960 . S
H482 C496 0.960 . S
H483 C496 0.960 . S
C484 H476 0.929 . S
C484 C485 1.377 . S
C484 C486 1.384 . S
C485 C484 1.377 . S
C485 C491 1.390 . S
C486 H477 0.930 . S
C486 C484 1.384 . S
C486 C487 1.372 . S
C487 C486 1.372 . S
C487 C488 1.400 . S
C487 C492 1.490 . S
C488 H478 0.930 . S
C488 C487 1.400 . S
C488 C491 1.386 . S
H489 C505 0.930 . S
H490 C506 0.931 . S
C491 H479 0.929 . S
C491 C485 1.390 . S
C491 C488 1.386 . S
C492 C487 1.490 . S
C492 C494 1.395 . S
C492 C495 1.403 . S
H493 C499 0.930 . S
C494 H480 0.930 . S
C494 C492 1.395 . S
C494 C497 1.403 1_455 S
C495 C492 1.403 . S
C495 C496 1.524 . S
C495 C499 1.400 1_455 S
C496 H481 0.960 . S
C496 H482 0.960 . S
C496 H483 0.960 . S
C496 C495 1.524 . S
C497 C494 1.403 1_655 S
C497 C498 1.392 . S
C497 C501 1.495 . S
C498 C497 1.392 . S
C498 C499 1.385 . S
C498 C500 1.478 . S
C499 H493 0.930 . S
C499 C495 1.400 1_655 S
C499 C498 1.385 . S
C500 C498 1.478 . S
C500 C502 1.381 . S
C500 C506 1.383 . S
C501 C497 1.495 . S
C501 H507 0.959 . S
C501 H508 0.961 . S
C501 H509 0.960 . S
C502 C500 1.381 . S
C502 C503 1.394 . S
C502 H510 0.930 . S
C503 C502 1.394 . S
C503 C504 1.383 . S
C503 H511 0.929 . S
C504 C503 1.383 . S
C504 C505 1.377 . S
C505 H489 0.930 . S
C505 C504 1.377 . S
C505 C506 1.379 . S
C506 H490 0.931 . S
C506 C500 1.383 . S
C506 C505 1.379 . S
H507 C501 0.959 . S
H508 C501 0.961 . S
H509 C501 0.960 . S
H510 C502 0.930 . S
H511 C503 0.929 . S
H512 C520 0.929 . S
H513 C522 0.930 . S
H514 C524 0.930 . S
H515 C527 0.929 . S
H516 C530 0.930 . S
H517 C532 0.960 . S
H518 C532 0.960 . S
H519 C532 0.960 . S
C520 H512 0.929 . S
C520 C521 1.380 . S
C520 C522 1.384 . S
C521 C520 1.380 . S
C521 C527 1.387 1_556 S
C522 H513 0.930 . S
C522 C520 1.384 . S
C522 C523 1.372 . S
C523 C522 1.372 . S
C523 C524 1.400 1_556 S
C523 C528 1.490 . S
C524 H514 0.930 . S
C524 C523 1.400 1_554 S
C524 C527 1.386 . S
H525 C541 0.930 . S
H526 C542 0.931 . S
C527 H515 0.929 . S
C527 C521 1.387 1_554 S
C527 C524 1.386 . S
C528 C523 1.490 . S
C528 C530 1.395 . S
C528 C531 1.403 1_556 S
H529 C535 0.930 . S
C530 H516 0.930 . S
C530 C528 1.395 . S
C530 C533 1.403 . S
C531 C528 1.403 1_554 S
C531 C532 1.524 . S
C531 C535 1.400 . S
C532 H517 0.960 . S
C532 H518 0.960 . S
C532 H519 0.960 . S
C532 C531 1.524 . S
C533 C530 1.403 . S
C533 C534 1.392 . S
C533 C537 1.495 . S
C534 C533 1.392 . S
C534 C535 1.385 1_556 S
C534 C536 1.478 . S
C535 H529 0.930 . S
C535 C531 1.400 . S
C535 C534 1.385 1_554 S
C536 C534 1.478 . S
C536 C538 1.381 . S
C536 C542 1.383 1_556 S
C537 C533 1.495 . S
C537 H543 0.959 . S
C537 H544 0.961 . S
C537 H545 0.960 . S
C538 C536 1.381 . S
C538 C539 1.394 . S
C538 H546 0.930 . S
C539 C538 1.394 . S
C539 C540 1.385 . S
C539 H547 0.929 . S
C540 C539 1.385 . S
C540 C541 1.375 1_556 S
C541 H525 0.930 . S
C541 C540 1.375 1_554 S
C541 C542 1.379 . S
C542 H526 0.931 . S
C542 C536 1.383 1_554 S
C542 C541 1.379 . S
H543 C537 0.959 . S
H544 C537 0.961 . S
H545 C537 0.960 . S
H546 C538 0.930 . S
H547 C539 0.929 . S
H548 C556 0.929 . S
H549 C558 0.930 . S
H550 C560 0.930 . S
H551 C563 0.929 . S
H552 C566 0.930 1_554 S
H553 C568 0.960 . S
H554 C568 0.960 . S
H555 C568 0.960 1_554 S
C556 H548 0.929 . S
C556 C557 1.375 1_556 S
C556 C558 1.384 . S
C557 C556 1.375 1_554 S
C557 C563 1.392 . S
C558 H549 0.930 . S
C558 C556 1.384 . S
C558 C559 1.372 . S
C559 C558 1.372 . S
C559 C560 1.400 1_556 S
C559 C564 1.490 . S
C560 H550 0.930 . S
C560 C559 1.400 1_554 S
C560 C563 1.386 . S
H561 C577 0.930 . S
H562 C578 0.931 . S
C563 H551 0.929 . S
C563 C557 1.392 . S
C563 C560 1.386 . S
C564 C559 1.490 . S
C564 C566 1.395 . S
C564 C567 1.403 . S
H565 C571 0.930 . S
C566 H552 0.930 1_556 S
C566 C564 1.395 . S
C566 C569 1.403 1_556 S
C567 C564 1.403 . S
C567 C568 1.524 . S
C567 C571 1.400 . S
C568 H553 0.960 . S
C568 H554 0.960 . S
C568 H555 0.960 1_556 S
C568 C567 1.524 . S
C569 C566 1.403 1_554 S
C569 C570 1.392 1_554 S
C569 C573 1.496 . S
C570 C569 1.392 1_556 S
C570 C571 1.386 . S
C570 C572 1.477 1_556 S
C571 H565 0.930 . S
C571 C567 1.400 . S
C571 C570 1.386 . S
C572 C570 1.477 1_554 S
C572 C574 1.370 1_554 S
C572 C578 1.394 . S
C573 C569 1.496 . S
C573 H579 0.959 . S
C573 H580 0.961 . S
C573 H581 0.960 1_554 S
C574 C572 1.370 1_556 S
C574 C575 1.394 . S
C574 H582 0.930 . S
C575 C574 1.394 . S
C575 C576 1.370 1_556 S
C575 H583 0.929 . S
C576 C575 1.370 1_554 S
C576 C577 1.390 . S
C577 H561 0.930 . S
C577 C576 1.390 . S
C577 C578 1.379 . S
C578 H562 0.931 . S
C578 C572 1.394 . S
C578 C577 1.379 . S
H579 C573 0.959 . S
H580 C573 0.961 . S
H581 C573 0.960 1_556 S
H582 C574 0.930 . S
H583 C575 0.929 . S
H584 C592 0.929 . S
H585 C594 0.930 . S
H586 C596 0.930 . S
H587 C599 0.929 . S
H588 C602 0.930 . S
H589 C604 0.960 . S
H590 C604 0.960 . S
H591 C604 0.960 1_554 S
C592 H584 0.929 . S
C592 C593 1.384 . S
C592 C594 1.384 . S
C593 C592 1.384 . S
C593 C599 1.384 1_556 S
C594 H585 0.930 . S
C594 C592 1.384 . S
C594 C595 1.372 . S
C595 C594 1.372 . S
C595 C596 1.400 1_556 S
C595 C600 1.490 . S
C596 H586 0.930 . S
C596 C595 1.400 1_554 S
C596 C599 1.386 . S
H597 C613 0.930 . S
H598 C614 0.931 . S
C599 H587 0.929 . S
C599 C593 1.384 1_554 S
C599 C596 1.386 . S
C600 C595 1.490 . S
C600 C602 1.395 1_556 S
C600 C603 1.403 . S
H601 C607 0.930 . S
C602 H588 0.930 . S
C602 C600 1.395 1_554 S
C602 C605 1.403 . S
C603 C600 1.403 . S
C603 C604 1.524 . S
C603 C607 1.400 . S
C604 H589 0.960 . S
C604 H590 0.960 . S
C604 H591 0.960 1_556 S
C604 C603 1.524 . S
C605 C602 1.403 . S
C605 C606 1.392 1_554 S
C605 C609 1.497 . S
C606 C605 1.392 1_556 S
C606 C607 1.385 . S
C606 C608 1.477 1_556 S
C607 H601 0.930 . S
C607 C603 1.400 . S
C607 C606 1.385 . S
C608 C606 1.477 1_554 S
C608 C610 1.361 1_554 S
C608 C614 1.403 . S
C609 C605 1.497 . S
C609 H615 0.959 . S
C609 H616 0.961 . S
C609 H617 0.960 1_554 S
C610 C608 1.361 1_556 S
C610 C611 1.394 . S
C610 H618 0.930 . S
C611 C610 1.394 . S
C611 C612 1.383 1_556 S
C611 H619 0.929 . S
C612 C611 1.383 1_554 S
C612 C613 1.377 . S
C613 H597 0.930 . S
C613 C612 1.377 . S
C613 C614 1.379 . S
C614 H598 0.931 . S
C614 C608 1.403 . S
C614 C613 1.379 . S
H615 C609 0.959 . S
H616 C609 0.961 . S
H617 C609 0.960 1_556 S
H618 C610 0.930 . S
H619 C611 0.929 . S
H620 C628 0.929 . S
H621 C630 0.930 . S
H622 C632 0.930 . S
H623 C635 0.929 . S
H624 C638 0.930 . S
H625 C640 0.960 . S
H626 C640 0.960 . S
H627 C640 0.960 . S
C628 H620 0.929 . S
C628 C629 1.370 1_556 S
C628 C630 1.384 . S
C629 C628 1.370 1_554 S
C629 C635 1.397 . S
C630 H621 0.930 . S
C630 C628 1.384 . S
C630 C631 1.372 . S
C631 C630 1.372 . S
C631 C632 1.400 1_556 S
C631 C636 1.490 . S
C632 H622 0.930 . S
C632 C631 1.400 1_554 S
C632 C635 1.386 . S
H633 C649 0.930 . S
H634 C650 0.931 . S
C635 H623 0.929 . S
C635 C629 1.397 . S
C635 C632 1.386 . S
C636 C631 1.490 . S
C636 C638 1.395 . S
C636 C639 1.403 1_556 S
H637 C643 0.930 . S
C638 H624 0.930 . S
C638 C636 1.395 . S
C638 C641 1.403 . S
C639 C636 1.403 1_554 S
C639 C640 1.524 . S
C639 C643 1.400 . S
C640 H625 0.960 . S
C640 H626 0.960 . S
C640 H627 0.960 . S
C640 C639 1.524 . S
C641 C638 1.403 . S
C641 C642 1.392 . S
C641 C645 1.495 . S
C642 C641 1.392 . S
C642 C643 1.385 1_556 S
C642 C644 1.478 . S
C643 H637 0.930 . S
C643 C639 1.400 . S
C643 C642 1.385 1_554 S
C644 C642 1.478 . S
C644 C646 1.381 . S
C644 C650 1.383 1_556 S
C645 C641 1.495 . S
C645 H651 0.959 . S
C645 H652 0.961 . S
C645 H653 0.960 . S
C646 C644 1.381 . S
C646 C647 1.394 . S
C646 H654 0.930 . S
C647 C646 1.394 . S
C647 C648 1.406 . S
C647 H655 0.929 . S
C648 C647 1.406 . S
C648 C649 1.355 1_556 S
C649 H633 0.930 . S
C649 C648 1.355 1_554 S
C649 C650 1.379 . S
C650 H634 0.931 . S
C650 C644 1.383 1_554 S
C650 C649 1.379 . S
H651 C645 0.959 . S
H652 C645 0.961 . S
H653 C645 0.960 . S
H654 C646 0.930 . S
H655 C647 0.929 . S
H656 C664 0.929 . S
H657 C666 0.930 . S
H658 C668 0.930 . S
H659 C671 0.929 . S
H660 C674 0.930 . S
H661 C676 0.960 . S
H662 C676 0.960 . S
H663 C676 0.960 . S
C664 H656 0.929 . S
C664 C665 1.377 . S
C664 C666 1.384 . S
C665 C664 1.377 . S
C665 C671 1.390 . S
C666 H657 0.930 . S
C666 C664 1.384 . S
C666 C667 1.372 . S
C667 C666 1.372 . S
C667 C668 1.400 . S
C667 C672 1.490 . S
C668 H658 0.930 . S
C668 C667 1.400 . S
C668 C671 1.386 . S
H669 C685 0.930 . S
H670 C686 0.931 . S
C671 H659 0.929 . S
C671 C665 1.390 . S
C671 C668 1.386 . S
C672 C667 1.490 . S
C672 C674 1.395 . S
C672 C675 1.403 . S
H673 C679 0.930 . S
C674 H660 0.930 . S
C674 C672 1.395 . S
C674 C677 1.403 . S
C675 C672 1.403 . S
C675 C676 1.524 . S
C675 C679 1.400 . S
C676 H661 0.960 . S
C676 H662 0.960 . S
C676 H663 0.960 . S
C676 C675 1.524 . S
C677 C674 1.403 . S
C677 C678 1.392 . S
C677 C681 1.495 . S
C678 C677 1.392 . S
C678 C679 1.385 . S
C678 C680 1.478 . S
C679 H673 0.930 . S
C679 C675 1.400 . S
C679 C678 1.385 . S
C680 C678 1.478 . S
C680 C682 1.381 . S
C680 C686 1.383 . S
C681 C677 1.495 . S
C681 H687 0.959 . S
C681 H688 0.961 . S
C681 H689 0.960 . S
C682 C680 1.381 . S
C682 C683 1.394 . S
C682 H690 0.930 . S
C683 C682 1.394 . S
C683 C684 1.383 . S
C683 H691 0.929 . S
C684 C683 1.383 . S
C684 C685 1.377 . S
C685 H669 0.930 . S
C685 C684 1.377 . S
C685 C686 1.379 . S
C686 H670 0.931 . S
C686 C680 1.383 . S
C686 C685 1.379 . S
H687 C681 0.959 . S
H688 C681 0.961 . S
H689 C681 0.960 . S
H690 C682 0.930 . S
H691 C683 0.929 . S
H692 C700 0.929 . S
H693 C702 0.930 . S
H694 C704 0.930 . S
H695 C707 0.929 . S
H696 C710 0.930 . S
H697 C712 0.960 . S
H698 C712 0.960 . S
H699 C712 0.960 . S
C700 H692 0.929 . S
C700 C701 1.377 . S
C700 C702 1.384 . S
C701 C700 1.377 . S
C701 C707 1.390 . S
C702 H693 0.930 . S
C702 C700 1.384 . S
C702 C703 1.372 . S
C703 C702 1.372 . S
C703 C704 1.400 . S
C703 C708 1.490 . S
C704 H694 0.930 . S
C704 C703 1.400 . S
C704 C707 1.386 . S
H705 C721 0.930 . S
H706 C722 0.931 . S
C707 H695 0.929 . S
C707 C701 1.390 . S
C707 C704 1.386 . S
C708 C703 1.490 . S
C708 C710 1.395 . S
C708 C711 1.403 . S
H709 C715 0.930 . S
C710 H696 0.930 . S
C710 C708 1.395 . S
C710 C713 1.403 . S
C711 C708 1.403 . S
C711 C712 1.524 . S
C711 C715 1.400 . S
C712 H697 0.960 . S
C712 H698 0.960 . S
C712 H699 0.960 . S
C712 C711 1.524 . S
C713 C710 1.403 . S
C713 C714 1.392 . S
C713 C717 1.495 . S
C714 C713 1.392 . S
C714 C715 1.385 . S
C714 C716 1.478 . S
C715 H709 0.930 . S
C715 C711 1.400 . S
C715 C714 1.385 . S
C716 C714 1.478 . S
C716 C718 1.381 . S
C716 C722 1.383 . S
C717 C713 1.495 . S
C717 H723 0.959 . S
C717 H724 0.961 . S
C717 H725 0.960 . S
C718 C716 1.381 . S
C718 C719 1.394 . S
C718 H726 0.930 . S
C719 C718 1.394 . S
C719 C720 1.383 . S
C719 H727 0.929 . S
C720 C719 1.383 . S
C720 C721 1.377 . S
C721 H705 0.930 . S
C721 C720 1.377 . S
C721 C722 1.379 . S
C722 H706 0.931 . S
C722 C716 1.383 . S
C722 C721 1.379 . S
H723 C717 0.959 . S
H724 C717 0.961 . S
H725 C717 0.960 . S
H726 C718 0.930 . S
H727 C719 0.929 . S
H728 C736 0.929 . S
H729 C738 0.930 . S
H730 C740 0.930 . S
H731 C743 0.929 . S
H732 C746 0.930 . S
H733 C748 0.960 . S
H734 C748 0.960 . S
H735 C748 0.960 . S
C736 H728 0.929 . S
C736 C737 1.377 . S
C736 C738 1.384 . S
C737 C736 1.377 . S
C737 C743 1.390 . S
C738 H729 0.930 . S
C738 C736 1.384 . S
C738 C739 1.372 . S
C739 C738 1.372 . S
C739 C740 1.400 . S
C739 C744 1.490 . S
C740 H730 0.930 . S
C740 C739 1.400 . S
C740 C743 1.386 . S
H741 C757 0.930 . S
H742 C758 0.931 . S
C743 H731 0.929 . S
C743 C737 1.390 . S
C743 C740 1.386 . S
C744 C739 1.490 . S
C744 C746 1.395 . S
C744 C747 1.403 . S
H745 C751 0.930 . S
C746 H732 0.930 . S
C746 C744 1.395 . S
C746 C749 1.403 . S
C747 C744 1.403 . S
C747 C748 1.524 . S
C747 C751 1.400 . S
C748 H733 0.960 . S
C748 H734 0.960 . S
C748 H735 0.960 . S
C748 C747 1.524 . S
C749 C746 1.403 . S
C749 C750 1.392 . S
C749 C753 1.495 . S
C750 C749 1.392 . S
C750 C751 1.385 . S
C750 C752 1.478 . S
C751 H745 0.930 . S
C751 C747 1.400 . S
C751 C750 1.385 . S
C752 C750 1.478 . S
C752 C754 1.381 . S
C752 C758 1.383 . S
C753 C749 1.495 . S
C753 H759 0.959 . S
C753 H760 0.961 . S
C753 H761 0.960 . S
C754 C752 1.381 . S
C754 C755 1.394 . S
C754 H762 0.930 . S
C755 C754 1.394 . S
C755 C756 1.383 . S
C755 H763 0.929 . S
C756 C755 1.383 . S
C756 C757 1.377 . S
C757 H741 0.930 . S
C757 C756 1.377 . S
C757 C758 1.379 . S
C758 H742 0.931 . S
C758 C752 1.383 . S
C758 C757 1.379 . S
H759 C753 0.959 . S
H760 C753 0.961 . S
H761 C753 0.960 . S
H762 C754 0.930 . S
H763 C755 0.929 . S
H764 C772 0.929 . S
H765 C774 0.930 . S
H766 C776 0.930 . S
H767 C779 0.929 . S
H768 C782 0.930 . S
H769 C784 0.960 . S
H770 C784 0.960 . S
H771 C784 0.960 . S
C772 H764 0.929 . S
C772 C773 1.377 . S
C772 C774 1.384 . S
C773 C772 1.377 . S
C773 C779 1.390 . S
C774 H765 0.930 . S
C774 C772 1.384 . S
C774 C775 1.372 . S
C775 C774 1.372 . S
C775 C776 1.400 . S
C775 C780 1.490 . S
C776 H766 0.930 . S
C776 C775 1.400 . S
C776 C779 1.386 . S
H777 C793 0.930 . S
H778 C794 0.931 . S
C779 H767 0.929 . S
C779 C773 1.390 . S
C779 C776 1.386 . S
C780 C775 1.490 . S
C780 C782 1.395 . S
C780 C783 1.403 . S
H781 C787 0.930 . S
C782 H768 0.930 . S
C782 C780 1.395 . S
C782 C785 1.403 . S
C783 C780 1.403 . S
C783 C784 1.524 . S
C783 C787 1.400 . S
C784 H769 0.960 . S
C784 H770 0.960 . S
C784 H771 0.960 . S
C784 C783 1.524 . S
C785 C782 1.403 . S
C785 C786 1.392 . S
C785 C789 1.495 . S
C786 C785 1.392 . S
C786 C787 1.385 . S
C786 C788 1.478 . S
C787 H781 0.930 . S
C787 C783 1.400 . S
C787 C786 1.385 . S
C788 C786 1.478 . S
C788 C790 1.381 . S
C788 C794 1.383 . S
C789 C785 1.495 . S
C789 H795 0.959 . S
C789 H796 0.961 . S
C789 H797 0.960 . S
C790 C788 1.381 . S
C790 C791 1.394 . S
C790 H798 0.930 . S
C791 C790 1.394 . S
C791 C792 1.383 . S
C791 H799 0.929 . S
C792 C791 1.383 . S
C792 C793 1.377 . S
C793 H777 0.930 . S
C793 C792 1.377 . S
C793 C794 1.379 . S
C794 H778 0.931 . S
C794 C788 1.383 . S
C794 C793 1.379 . S
H795 C789 0.959 . S
H796 C789 0.961 . S
H797 C789 0.960 . S
H798 C790 0.930 . S
H799 C791 0.929 . S
H800 C808 0.929 . S
H801 C810 0.930 . S
H802 C812 0.930 . S
H803 C815 0.929 . S
H804 C818 0.930 . S
H805 C820 0.960 . S
H806 C820 0.960 . S
H807 C820 0.960 . S
C808 H800 0.929 . S
C808 C809 1.377 . S
C808 C810 1.384 . S
C809 C808 1.377 . S
C809 C815 1.390 . S
C810 H801 0.930 . S
C810 C808 1.384 . S
C810 C811 1.372 . S
C811 C810 1.372 . S
C811 C812 1.400 . S
C811 C816 1.490 . S
C812 H802 0.930 . S
C812 C811 1.400 . S
C812 C815 1.386 . S
H813 C829 0.930 . S
H814 C830 0.931 . S
C815 H803 0.929 . S
C815 C809 1.390 . S
C815 C812 1.386 . S
C816 C811 1.490 . S
C816 C818 1.395 . S
C816 C819 1.403 . S
H817 C823 0.930 . S
C818 H804 0.930 . S
C818 C816 1.395 . S
C818 C821 1.403 . S
C819 C816 1.403 . S
C819 C820 1.524 . S
C819 C823 1.400 . S
C820 H805 0.960 . S
C820 H806 0.960 . S
C820 H807 0.960 . S
C820 C819 1.524 . S
C821 C818 1.403 . S
C821 C822 1.392 . S
C821 C825 1.495 . S
C822 C821 1.392 . S
C822 C823 1.385 . S
C822 C824 1.478 . S
C823 H817 0.930 . S
C823 C819 1.400 . S
C823 C822 1.385 . S
C824 C822 1.478 . S
C824 C826 1.381 . S
C824 C830 1.383 . S
C825 C821 1.495 . S
C825 H831 0.959 . S
C825 H832 0.961 . S
C825 H833 0.960 . S
C826 C824 1.381 . S
C826 C827 1.394 . S
C826 H834 0.930 . S
C827 C826 1.394 . S
C827 C828 1.383 . S
C827 H835 0.929 . S
C828 C827 1.383 . S
C828 C829 1.377 . S
C829 H813 0.930 . S
C829 C828 1.377 . S
C829 C830 1.379 . S
C830 H814 0.931 . S
C830 C824 1.383 . S
C830 C829 1.379 . S
H831 C825 0.959 . S
H832 C825 0.961 . S
H833 C825 0.960 . S
H834 C826 0.930 . S
H835 C827 0.929 . S
H836 C844 0.929 . S
H837 C846 0.930 . S
H838 C848 0.930 . S
H839 C851 0.929 . S
H840 C854 0.930 . S
H841 C856 0.960 . S
H842 C856 0.960 . S
H843 C856 0.960 . S
C844 H836 0.929 . S
C844 C845 1.377 . S
C844 C846 1.384 . S
C845 C844 1.377 . S
C845 C851 1.390 . S
C846 H837 0.930 . S
C846 C844 1.384 . S
C846 C847 1.372 . S
C847 C846 1.372 . S
C847 C848 1.400 . S
C847 C852 1.490 . S
C848 H838 0.930 . S
C848 C847 1.400 . S
C848 C851 1.386 . S
H849 C865 0.930 . S
H850 C866 0.931 . S
C851 H839 0.929 . S
C851 C845 1.390 . S
C851 C848 1.386 . S
C852 C847 1.490 . S
C852 C854 1.395 . S
C852 C855 1.403 . S
H853 C859 0.930 . S
C854 H840 0.930 . S
C854 C852 1.395 . S
C854 C857 1.403 . S
C855 C852 1.403 . S
C855 C856 1.524 . S
C855 C859 1.400 . S
C856 H841 0.960 . S
C856 H842 0.960 . S
C856 H843 0.960 . S
C856 C855 1.524 . S
C857 C854 1.403 . S
C857 C858 1.392 . S
C857 C861 1.495 . S
C858 C857 1.392 . S
C858 C859 1.385 . S
C858 C860 1.478 . S
C859 H853 0.930 . S
C859 C855 1.400 . S
C859 C858 1.385 . S
C860 C858 1.478 . S
C860 C862 1.381 . S
C860 C866 1.383 . S
C861 C857 1.495 . S
C861 H867 0.959 . S
C861 H868 0.961 . S
C861 H869 0.960 . S
C862 C860 1.381 . S
C862 C863 1.394 . S
C862 H870 0.930 . S
C863 C862 1.394 . S
C863 C864 1.383 . S
C863 H871 0.929 . S
C864 C863 1.383 . S
C864 C865 1.377 . S
C865 H849 0.930 . S
C865 C864 1.377 . S
C865 C866 1.379 . S
C866 H850 0.931 . S
C866 C860 1.383 . S
C866 C865 1.379 . S
H867 C861 0.959 . S
H868 C861 0.961 . S
H869 C861 0.960 . S
H870 C862 0.930 . S
H871 C863 0.929 . S
H872 C880 0.929 . S
H873 C882 0.930 . S
H874 C884 0.930 . S
H875 C887 0.929 . S
H876 C890 0.930 . S
H877 C892 0.960 . S
H878 C892 0.960 . S
H879 C892 0.960 . S
C880 H872 0.929 . S
C880 C881 1.377 . S
C880 C882 1.384 . S
C881 C880 1.377 . S
C881 C887 1.390 . S
C882 H873 0.930 . S
C882 C880 1.384 . S
C882 C883 1.372 . S
C883 C882 1.372 . S
C883 C884 1.400 . S
C883 C888 1.490 . S
C884 H874 0.930 . S
C884 C883 1.400 . S
C884 C887 1.386 . S
H885 C901 0.930 . S
H886 C902 0.931 . S
C887 H875 0.929 . S
C887 C881 1.390 . S
C887 C884 1.386 . S
C888 C883 1.490 . S
C888 C890 1.395 . S
C888 C891 1.403 . S
H889 C895 0.930 . S
C890 H876 0.930 . S
C890 C888 1.395 . S
C890 C893 1.403 . S
C891 C888 1.403 . S
C891 C892 1.524 . S
C891 C895 1.400 . S
C892 H877 0.960 . S
C892 H878 0.960 . S
C892 H879 0.960 . S
C892 C891 1.524 . S
C893 C890 1.403 . S
C893 C894 1.392 . S
C893 C897 1.495 . S
C894 C893 1.392 . S
C894 C895 1.385 . S
C894 C896 1.478 . S
C895 H889 0.930 . S
C895 C891 1.400 . S
C895 C894 1.385 . S
C896 C894 1.478 . S
C896 C898 1.381 . S
C896 C902 1.383 . S
C897 C893 1.495 . S
C897 H903 0.959 . S
C897 H904 0.961 . S
C897 H905 0.960 . S
C898 C896 1.381 . S
C898 C899 1.394 . S
C898 H906 0.930 . S
C899 C898 1.394 . S
C899 C900 1.383 . S
C899 H907 0.929 . S
C900 C899 1.383 . S
C900 C901 1.377 . S
C901 H885 0.930 . S
C901 C900 1.377 . S
C901 C902 1.379 . S
C902 H886 0.931 . S
C902 C896 1.383 . S
C902 C901 1.379 . S
H903 C897 0.959 . S
H904 C897 0.961 . S
H905 C897 0.960 . S
H906 C898 0.930 . S
H907 C899 0.929 . S
H908 C916 0.929 . S
H909 C918 0.930 . S
H910 C920 0.930 . S
H911 C923 0.929 . S
H912 C926 0.930 . S
H913 C928 0.960 . S
H914 C928 0.960 . S
H915 C928 0.960 . S
C916 H908 0.929 . S
C916 C917 1.377 . S
C916 C918 1.384 . S
C917 C916 1.377 . S
C917 C923 1.390 . S
C918 H909 0.930 . S
C918 C916 1.384 . S
C918 C919 1.372 . S
C919 C918 1.372 . S
C919 C920 1.400 . S
C919 C924 1.490 . S
C920 H910 0.930 . S
C920 C919 1.400 . S
C920 C923 1.386 . S
H921 C937 0.930 . S
H922 C938 0.931 . S
C923 H911 0.929 . S
C923 C917 1.390 . S
C923 C920 1.386 . S
C924 C919 1.490 . S
C924 C926 1.395 . S
C924 C927 1.403 . S
H925 C931 0.930 . S
C926 H912 0.930 . S
C926 C924 1.395 . S
C926 C929 1.403 . S
C927 C924 1.403 . S
C927 C928 1.524 . S
C927 C931 1.400 . S
C928 H913 0.960 . S
C928 H914 0.960 . S
C928 H915 0.960 . S
C928 C927 1.524 . S
C929 C926 1.403 . S
C929 C930 1.392 . S
C929 C933 1.495 . S
C930 C929 1.392 . S
C930 C931 1.385 . S
C930 C932 1.478 . S
C931 H925 0.930 . S
C931 C927 1.400 . S
C931 C930 1.385 . S
C932 C930 1.478 . S
C932 C934 1.381 . S
C932 C938 1.383 . S
C933 C929 1.495 . S
C933 H939 0.959 . S
C933 H940 0.961 . S
C933 H941 0.960 . S
C934 C932 1.381 . S
C934 C935 1.394 . S
C934 H942 0.930 . S
C935 C934 1.394 . S
C935 C936 1.383 . S
C935 H943 0.929 . S
C936 C935 1.383 . S
C936 C937 1.377 . S
C937 H921 0.930 . S
C937 C936 1.377 . S
C937 C938 1.379 . S
C938 H922 0.931 . S
C938 C932 1.383 . S
C938 C937 1.379 . S
H939 C933 0.959 . S
H940 C933 0.961 . S
H941 C933 0.960 . S
H942 C934 0.930 . S
H943 C935 0.929 . S
H944 C952 0.929 . S
H945 C954 0.930 . S
H946 C956 0.930 . S
H947 C959 0.929 . S
H948 C962 0.930 . S
H949 C964 0.960 . S
H950 C964 0.960 . S
H951 C964 0.960 . S
C952 H944 0.929 . S
C952 C953 1.377 . S
C952 C954 1.384 . S
C953 C952 1.377 . S
C953 C959 1.390 . S
C954 H945 0.930 . S
C954 C952 1.384 . S
C954 C955 1.372 . S
C955 C954 1.372 . S
C955 C956 1.400 . S
C955 C960 1.490 . S
C956 H946 0.930 . S
C956 C955 1.400 . S
C956 C959 1.386 . S
H957 C973 0.930 . S
H958 C974 0.931 . S
C959 H947 0.929 . S
C959 C953 1.390 . S
C959 C956 1.386 . S
C960 C955 1.490 . S
C960 C962 1.395 . S
C960 C963 1.403 . S
H961 C967 0.930 . S
C962 H948 0.930 . S
C962 C960 1.395 . S
C962 C965 1.403 . S
C963 C960 1.403 . S
C963 C964 1.524 . S
C963 C967 1.400 . S
C964 H949 0.960 . S
C964 H950 0.960 . S
C964 H951 0.960 . S
C964 C963 1.524 . S
C965 C962 1.403 . S
C965 C966 1.392 . S
C965 C969 1.495 . S
C966 C965 1.392 . S
C966 C967 1.385 . S
C966 C968 1.478 . S
C967 H961 0.930 . S
C967 C963 1.400 . S
C967 C966 1.385 . S
C968 C966 1.478 . S
C968 C970 1.381 . S
C968 C974 1.383 . S
C969 C965 1.495 . S
C969 H975 0.959 . S
C969 H976 0.961 . S
C969 H977 0.960 . S
C970 C968 1.381 . S
C970 C971 1.394 . S
C970 H978 0.930 . S
C971 C970 1.394 . S
C971 C972 1.383 . S
C971 H979 0.929 . S
C972 C971 1.383 . S
C972 C973 1.377 . S
C973 H957 0.930 . S
C973 C972 1.377 . S
C973 C974 1.379 . S
C974 H958 0.931 . S
C974 C968 1.383 . S
C974 C973 1.379 . S
H975 C969 0.959 . S
H976 C969 0.961 . S
H977 C969 0.960 . S
H978 C970 0.930 . S
H979 C971 0.929 . S
H980 C988 0.929 . S
H981 C990 0.930 . S
H982 C992 0.930 . S
H983 C995 0.929 . S
H984 C998 0.930 . S
H985 C1000 0.960 . S
H986 C1000 0.960 . S
H987 C1000 0.960 . S
C988 H980 0.929 . S
C988 C989 1.377 . S
C988 C990 1.384 . S
C989 C988 1.377 . S
C989 C995 1.390 . S
C990 H981 0.930 . S
C990 C988 1.384 . S
C990 C991 1.372 . S
C991 C990 1.372 . S
C991 C992 1.400 . S
C991 C996 1.490 . S
C992 H982 0.930 . S
C992 C991 1.400 . S
C992 C995 1.386 . S
H993 C1009 0.930 . S
H994 C1010 0.931 . S
C995 H983 0.929 . S
C995 C989 1.390 . S
C995 C992 1.386 . S
C996 C991 1.490 . S
C996 C998 1.395 . S
C996 C999 1.403 . S
H997 C1003 0.930 . S
C998 H984 0.930 . S
C998 C996 1.395 . S
C998 C1001 1.403 . S
C999 C996 1.403 . S
C999 C1000 1.524 . S
C999 C1003 1.400 . S
C1000 H985 0.960 . S
C1000 H986 0.960 . S
C1000 H987 0.960 . S
C1000 C999 1.524 . S
C1001 C998 1.403 . S
C1001 C1002 1.392 . S
C1001 C1005 1.495 . S
C1002 C1001 1.392 . S
C1002 C1003 1.385 . S
C1002 C1004 1.478 . S
C1003 H997 0.930 . S
C1003 C999 1.400 . S
C1003 C1002 1.385 . S
C1004 C1002 1.478 . S
C1004 C1006 1.381 . S
C1004 C1010 1.383 . S
C1005 C1001 1.495 . S
C1005 H1011 0.959 . S
C1005 H1012 0.961 . S
C1005 H1013 0.960 . S
C1006 C1004 1.381 . S
C1006 C1007 1.394 . S
C1006 H1014 0.930 . S
C1007 C1006 1.394 . S
C1007 C1008 1.383 . S
C1007 H1015 0.929 . S
C1008 C1007 1.383 . S
C1008 C1009 1.377 . S
C1009 H993 0.930 . S
C1009 C1008 1.377 . S
C1009 C1010 1.379 . S
C1010 H994 0.931 . S
C1010 C1004 1.383 . S
C1010 C1009 1.379 . S
H1011 C1005 0.959 . S
H1012 C1005 0.961 . S
H1013 C1005 0.960 . S
H1014 C1006 0.930 . S
H1015 C1007 0.929 . S
H1016 C1024 0.929 . S
H1017 C1026 0.930 . S
H1018 C1028 0.930 . S
H1019 C1031 0.929 . S
H1020 C1034 0.930 . S
H1021 C1036 0.960 . S
H1022 C1036 0.960 . S
H1023 C1036 0.960 . S
C1024 H1016 0.929 . S
C1024 C1025 1.377 . S
C1024 C1026 1.384 . S
C1025 C1024 1.377 . S
C1025 C1031 1.390 . S
C1026 H1017 0.930 . S
C1026 C1024 1.384 . S
C1026 C1027 1.372 . S
C1027 C1026 1.372 . S
C1027 C1028 1.400 . S
C1027 C1032 1.490 . S
C1028 H1018 0.930 . S
C1028 C1027 1.400 . S
C1028 C1031 1.386 . S
H1029 C1045 0.930 . S
H1030 C1046 0.931 . S
C1031 H1019 0.929 . S
C1031 C1025 1.390 . S
C1031 C1028 1.386 . S
C1032 C1027 1.490 . S
C1032 C1034 1.395 . S
C1032 C1035 1.403 . S
H1033 C1039 0.930 . S
C1034 H1020 0.930 . S
C1034 C1032 1.395 . S
C1034 C1037 1.403 . S
C1035 C1032 1.403 . S
C1035 C1036 1.524 . S
C1035 C1039 1.400 . S
C1036 H1021 0.960 . S
C1036 H1022 0.960 . S
C1036 H1023 0.960 . S
C1036 C1035 1.524 . S
C1037 C1034 1.403 . S
C1037 C1038 1.392 . S
C1037 C1041 1.495 . S
C1038 C1037 1.392 . S
C1038 C1039 1.385 . S
C1038 C1040 1.478 . S
C1039 H1033 0.930 . S
C1039 C1035 1.400 . S
C1039 C1038 1.385 . S
C1040 C1038 1.478 . S
C1040 C1042 1.381 . S
C1040 C1046 1.383 . S
C1041 C1037 1.495 . S
C1041 H1047 0.959 . S
C1041 H1048 0.961 . S
C1041 H1049 0.960 . S
C1042 C1040 1.381 . S
C1042 C1043 1.394 . S
C1042 H1050 0.930 . S
C1043 C1042 1.394 . S
C1043 C1044 1.383 . S
C1043 H1051 0.929 . S
C1044 C1043 1.383 . S
C1044 C1045 1.377 . S
C1045 H1029 0.930 . S
C1045 C1044 1.377 . S
C1045 C1046 1.379 . S
C1046 H1030 0.931 . S
C1046 C1040 1.383 . S
C1046 C1045 1.379 . S
H1047 C1041 0.959 . S
H1048 C1041 0.961 . S
H1049 C1041 0.960 . S
H1050 C1042 0.930 . S
H1051 C1043 0.929 . S
H1052 C1060 0.929 . S
H1053 C1062 0.930 . S
H1054 C1064 0.930 . S
H1055 C1067 0.929 . S
H1056 C1070 0.930 . S
H1057 C1072 0.960 . S
H1058 C1072 0.960 . S
H1059 C1072 0.960 . S
C1060 H1052 0.929 . S
C1060 C1061 1.377 . S
C1060 C1062 1.384 . S
C1061 C1060 1.377 . S
C1061 C1067 1.390 . S
C1062 H1053 0.930 . S
C1062 C1060 1.384 . S
C1062 C1063 1.372 . S
C1063 C1062 1.372 . S
C1063 C1064 1.400 . S
C1063 C1068 1.490 . S
C1064 H1054 0.930 . S
C1064 C1063 1.400 . S
C1064 C1067 1.386 . S
H1065 C1081 0.930 . S
H1066 C1082 0.931 . S
C1067 H1055 0.929 . S
C1067 C1061 1.390 . S
C1067 C1064 1.386 . S
C1068 C1063 1.490 . S
C1068 C1070 1.395 . S
C1068 C1071 1.403 . S
H1069 C1075 0.930 . S
C1070 H1056 0.930 . S
C1070 C1068 1.395 . S
C1070 C1073 1.403 . S
C1071 C1068 1.403 . S
C1071 C1072 1.524 . S
C1071 C1075 1.400 . S
C1072 H1057 0.960 . S
C1072 H1058 0.960 . S
C1072 H1059 0.960 . S
C1072 C1071 1.524 . S
C1073 C1070 1.403 . S
C1073 C1074 1.392 . S
C1073 C1077 1.495 . S
C1074 C1073 1.392 . S
C1074 C1075 1.385 . S
C1074 C1076 1.478 . S
C1075 H1069 0.930 . S
C1075 C1071 1.400 . S
C1075 C1074 1.385 . S
C1076 C1074 1.478 . S
C1076 C1078 1.381 . S
C1076 C1082 1.383 . S
C1077 C1073 1.495 . S
C1077 H1083 0.959 . S
C1077 H1084 0.961 . S
C1077 H1085 0.960 . S
C1078 C1076 1.381 . S
C1078 C1079 1.394 . S
C1078 H1086 0.930 . S
C1079 C1078 1.394 . S
C1079 C1080 1.383 . S
C1079 H1087 0.929 . S
C1080 C1079 1.383 . S
C1080 C1081 1.377 . S
C1081 H1065 0.930 . S
C1081 C1080 1.377 . S
C1081 C1082 1.379 . S
C1082 H1066 0.931 . S
C1082 C1076 1.383 . S
C1082 C1081 1.379 . S
H1083 C1077 0.959 . S
H1084 C1077 0.961 . S
H1085 C1077 0.960 . S
H1086 C1078 0.930 . S
H1087 C1079 0.929 . S
H1088 C1096 0.929 . S
H1089 C1098 0.930 . S
H1090 C1100 0.930 . S
H1091 C1103 0.929 . S
H1092 C1106 0.930 . S
H1093 C1108 0.960 . S
H1094 C1108 0.960 . S
H1095 C1108 0.960 . S
C1096 H1088 0.929 . S
C1096 C1097 1.377 . S
C1096 C1098 1.384 . S
C1097 C1096 1.377 . S
C1097 C1103 1.390 . S
C1098 H1089 0.930 . S
C1098 C1096 1.384 . S
C1098 C1099 1.372 . S
C1099 C1098 1.372 . S
C1099 C1100 1.400 . S
C1099 C1104 1.490 . S
C1100 H1090 0.930 . S
C1100 C1099 1.400 . S
C1100 C1103 1.386 . S
H1101 C1117 0.930 . S
H1102 C1118 0.931 . S
C1103 H1091 0.929 . S
C1103 C1097 1.390 . S
C1103 C1100 1.386 . S
C1104 C1099 1.490 . S
C1104 C1106 1.395 . S
C1104 C1107 1.403 . S
H1105 C1111 0.930 . S
C1106 H1092 0.930 . S
C1106 C1104 1.395 . S
C1106 C1109 1.403 . S
C1107 C1104 1.403 . S
C1107 C1108 1.524 . S
C1107 C1111 1.400 . S
C1108 H1093 0.960 . S
C1108 H1094 0.960 . S
C1108 H1095 0.960 . S
C1108 C1107 1.524 . S
C1109 C1106 1.403 . S
C1109 C1110 1.392 . S
C1109 C1113 1.495 . S
C1110 C1109 1.392 . S
C1110 C1111 1.385 . S
C1110 C1112 1.478 . S
C1111 H1105 0.930 . S
C1111 C1107 1.400 . S
C1111 C1110 1.385 . S
C1112 C1110 1.478 . S
C1112 C1114 1.381 . S
C1112 C1118 1.383 . S
C1113 C1109 1.495 . S
C1113 H1119 0.959 . S
C1113 H1120 0.961 . S
C1113 H1121 0.960 . S
C1114 C1112 1.381 . S
C1114 C1115 1.394 . S
C1114 H1122 0.930 . S
C1115 C1114 1.394 . S
C1115 C1116 1.383 . S
C1115 H1123 0.929 . S
C1116 C1115 1.383 . S
C1116 C1117 1.377 . S
C1117 H1101 0.930 . S
C1117 C1116 1.377 . S
C1117 C1118 1.379 . S
C1118 H1102 0.931 . S
C1118 C1112 1.383 . S
C1118 C1117 1.379 . S
H1119 C1113 0.959 . S
H1120 C1113 0.961 . S
H1121 C1113 0.960 . S
H1122 C1114 0.930 . S
H1123 C1115 0.929 . S
H1124 C1132 0.929 . S
H1125 C1134 0.930 . S
H1126 C1136 0.930 . S
H1127 C1139 0.929 . S
H1128 C1142 0.930 . S
H1129 C1144 0.960 . S
H1130 C1144 0.960 . S
H1131 C1144 0.960 . S
C1132 H1124 0.929 . S
C1132 C1133 1.377 . S
C1132 C1134 1.384 . S
C1133 C1132 1.377 . S
C1133 C1139 1.390 . S
C1134 H1125 0.930 . S
C1134 C1132 1.384 . S
C1134 C1135 1.372 . S
C1135 C1134 1.372 . S
C1135 C1136 1.400 . S
C1135 C1140 1.490 . S
C1136 H1126 0.930 . S
C1136 C1135 1.400 . S
C1136 C1139 1.386 . S
H1137 C1153 0.930 . S
H1138 C1154 0.931 . S
C1139 H1127 0.929 . S
C1139 C1133 1.390 . S
C1139 C1136 1.386 . S
C1140 C1135 1.490 . S
C1140 C1142 1.395 . S
C1140 C1143 1.403 . S
H1141 C1147 0.930 . S
C1142 H1128 0.930 . S
C1142 C1140 1.395 . S
C1142 C1145 1.403 . S
C1143 C1140 1.403 . S
C1143 C1144 1.524 . S
C1143 C1147 1.400 . S
C1144 H1129 0.960 . S
C1144 H1130 0.960 . S
C1144 H1131 0.960 . S
C1144 C1143 1.524 . S
C1145 C1142 1.403 . S
C1145 C1146 1.392 . S
C1145 C1149 1.495 . S
C1146 C1145 1.392 . S
C1146 C1147 1.385 . S
C1146 C1148 1.478 . S
C1147 H1141 0.930 . S
C1147 C1143 1.400 . S
C1147 C1146 1.385 . S
C1148 C1146 1.478 . S
C1148 C1150 1.381 . S
C1148 C1154 1.383 . S
C1149 C1145 1.495 . S
C1149 H1155 0.959 . S
C1149 H1156 0.961 . S
C1149 H1157 0.960 . S
C1150 C1148 1.381 . S
C1150 C1151 1.394 . S
C1150 H1158 0.930 . S
C1151 C1150 1.394 . S
C1151 C1152 1.383 . S
C1151 H1159 0.929 . S
C1152 C1151 1.383 . S
C1152 C1153 1.377 . S
C1153 H1137 0.930 . S
C1153 C1152 1.377 . S
C1153 C1154 1.379 . S
C1154 H1138 0.931 . S
C1154 C1148 1.383 . S
C1154 C1153 1.379 . S
H1155 C1149 0.959 . S
H1156 C1149 0.961 . S
H1157 C1149 0.960 . S
H1158 C1150 0.930 . S
H1159 C1151 0.929 . S
H1160 C1168 0.929 . S
H1161 C1170 0.930 . S
H1162 C1172 0.930 . S
H1163 C1175 0.929 . S
H1164 C1178 0.930 . S
H1165 C1180 0.960 . S
H1166 C1180 0.960 . S
H1167 C1180 0.960 . S
C1168 H1160 0.929 . S
C1168 C1169 1.377 . S
C1168 C1170 1.384 . S
C1169 C1168 1.377 . S
C1169 C1175 1.390 . S
C1170 H1161 0.930 . S
C1170 C1168 1.384 . S
C1170 C1171 1.372 . S
C1171 C1170 1.372 . S
C1171 C1172 1.400 . S
C1171 C1176 1.490 . S
C1172 H1162 0.930 . S
C1172 C1171 1.400 . S
C1172 C1175 1.386 . S
H1173 C1189 0.930 . S
H1174 C1190 0.931 . S
C1175 H1163 0.929 . S
C1175 C1169 1.390 . S
C1175 C1172 1.386 . S
C1176 C1171 1.490 . S
C1176 C1178 1.395 . S
C1176 C1179 1.403 . S
H1177 C1183 0.930 . S
C1178 H1164 0.930 . S
C1178 C1176 1.395 . S
C1178 C1181 1.403 . S
C1179 C1176 1.403 . S
C1179 C1180 1.524 . S
C1179 C1183 1.400 . S
C1180 H1165 0.960 . S
C1180 H1166 0.960 . S
C1180 H1167 0.960 . S
C1180 C1179 1.524 . S
C1181 C1178 1.403 . S
C1181 C1182 1.392 . S
C1181 C1185 1.495 . S
C1182 C1181 1.392 . S
C1182 C1183 1.385 . S
C1182 C1184 1.478 . S
C1183 H1177 0.930 . S
C1183 C1179 1.400 . S
C1183 C1182 1.385 . S
C1184 C1182 1.478 . S
C1184 C1186 1.381 . S
C1184 C1190 1.383 . S
C1185 C1181 1.495 . S
C1185 H1191 0.959 . S
C1185 H1192 0.961 . S
C1185 H1193 0.960 . S
C1186 C1184 1.381 . S
C1186 C1187 1.394 . S
C1186 H1194 0.930 . S
C1187 C1186 1.394 . S
C1187 C1188 1.383 . S
C1187 H1195 0.929 . S
C1188 C1187 1.383 . S
C1188 C1189 1.377 . S
C1189 H1173 0.930 . S
C1189 C1188 1.377 . S
C1189 C1190 1.379 . S
C1190 H1174 0.931 . S
C1190 C1184 1.383 . S
C1190 C1189 1.379 . S
H1191 C1185 0.959 . S
H1192 C1185 0.961 . S
H1193 C1185 0.960 . S
H1194 C1186 0.930 . S
H1195 C1187 0.929 . S
H1196 C1204 0.929 . S
H1197 C1206 0.930 . S
H1198 C1208 0.930 . S
H1199 C1211 0.929 . S
H1200 C1214 0.930 . S
H1201 C1216 0.960 . S
H1202 C1216 0.960 . S
H1203 C1216 0.960 . S
C1204 H1196 0.929 . S
C1204 C1205 1.377 . S
C1204 C1206 1.384 . S
C1205 C1204 1.377 . S
C1205 C1211 1.390 . S
C1206 H1197 0.930 . S
C1206 C1204 1.384 . S
C1206 C1207 1.372 . S
C1207 C1206 1.372 . S
C1207 C1208 1.400 . S
C1207 C1212 1.490 . S
C1208 H1198 0.930 . S
C1208 C1207 1.400 . S
C1208 C1211 1.386 . S
H1209 C1225 0.930 . S
H1210 C1226 0.931 . S
C1211 H1199 0.929 . S
C1211 C1205 1.390 . S
C1211 C1208 1.386 . S
C1212 C1207 1.490 . S
C1212 C1214 1.395 . S
C1212 C1215 1.403 . S
H1213 C1219 0.930 . S
C1214 H1200 0.930 . S
C1214 C1212 1.395 . S
C1214 C1217 1.403 . S
C1215 C1212 1.403 . S
C1215 C1216 1.524 . S
C1215 C1219 1.400 . S
C1216 H1201 0.960 . S
C1216 H1202 0.960 . S
C1216 H1203 0.960 . S
C1216 C1215 1.524 . S
C1217 C1214 1.403 . S
C1217 C1218 1.392 . S
C1217 C1221 1.495 . S
C1218 C1217 1.392 . S
C1218 C1219 1.385 . S
C1218 C1220 1.478 . S
C1219 H1213 0.930 . S
C1219 C1215 1.400 . S
C1219 C1218 1.385 . S
C1220 C1218 1.478 . S
C1220 C1222 1.381 . S
C1220 C1226 1.383 . S
C1221 C1217 1.495 . S
C1221 H1227 0.959 . S
C1221 H1228 0.961 . S
C1221 H1229 0.960 . S
C1222 C1220 1.381 . S
C1222 C1223 1.394 . S
C1222 H1230 0.930 . S
C1223 C1222 1.394 . S
C1223 C1224 1.383 . S
C1223 H1231 0.929 . S
C1224 C1223 1.383 . S
C1224 C1225 1.377 . S
C1225 H1209 0.930 . S
C1225 C1224 1.377 . S
C1225 C1226 1.379 . S
C1226 H1210 0.931 . S
C1226 C1220 1.383 . S
C1226 C1225 1.379 . S
H1227 C1221 0.959 . S
H1228 C1221 0.961 . S
H1229 C1221 0.960 . S
H1230 C1222 0.930 . S
H1231 C1223 0.929 . S
H1232 C1240 0.929 . S
H1233 C1242 0.930 . S
H1234 C1244 0.930 . S
H1235 C1247 0.929 . S
H1236 C1250 0.930 . S
H1237 C1252 0.960 . S
H1238 C1252 0.960 . S
H1239 C1252 0.960 . S
C1240 H1232 0.929 . S
C1240 C1241 1.377 . S
C1240 C1242 1.384 . S
C1241 C1240 1.377 . S
C1241 C1247 1.390 . S
C1242 H1233 0.930 . S
C1242 C1240 1.384 . S
C1242 C1243 1.372 . S
C1243 C1242 1.372 . S
C1243 C1244 1.400 . S
C1243 C1248 1.490 . S
C1244 H1234 0.930 . S
C1244 C1243 1.400 . S
C1244 C1247 1.386 . S
H1245 C1261 0.930 . S
H1246 C1262 0.931 . S
C1247 H1235 0.929 . S
C1247 C1241 1.390 . S
C1247 C1244 1.386 . S
C1248 C1243 1.490 . S
C1248 C1250 1.395 . S
C1248 C1251 1.403 . S
H1249 C1255 0.930 . S
C1250 H1236 0.930 . S
C1250 C1248 1.395 . S
C1250 C1253 1.403 . S
C1251 C1248 1.403 . S
C1251 C1252 1.524 . S
C1251 C1255 1.400 . S
C1252 H1237 0.960 . S
C1252 H1238 0.960 . S
C1252 H1239 0.960 . S
C1252 C1251 1.524 . S
C1253 C1250 1.403 . S
C1253 C1254 1.392 . S
C1253 C1257 1.495 . S
C1254 C1253 1.392 . S
C1254 C1255 1.385 . S
C1254 C1256 1.478 . S
C1255 H1249 0.930 . S
C1255 C1251 1.400 . S
C1255 C1254 1.385 . S
C1256 C1254 1.478 . S
C1256 C1258 1.381 . S
C1256 C1262 1.383 . S
C1257 C1253 1.495 . S
C1257 H1263 0.959 . S
C1257 H1264 0.961 . S
C1257 H1265 0.960 . S
C1258 C1256 1.381 . S
C1258 C1259 1.394 . S
C1258 H1266 0.930 . S
C1259 C1258 1.394 . S
C1259 C1260 1.383 . S
C1259 H1267 0.929 . S
C1260 C1259 1.383 . S
C1260 C1261 1.377 . S
C1261 H1245 0.930 . S
C1261 C1260 1.377 . S
C1261 C1262 1.379 . S
C1262 H1246 0.931 . S
C1262 C1256 1.383 . S
C1262 C1261 1.379 . S
H1263 C1257 0.959 . S
H1264 C1257 0.961 . S
H1265 C1257 0.960 . S
H1266 C1258 0.930 . S
H1267 C1259 0.929 . S
H1268 C1276 0.929 . S
H1269 C1278 0.930 . S
H1270 C1280 0.930 . S
H1271 C1283 0.929 . S
H1272 C1286 0.930 . S
H1273 C1288 0.960 . S
H1274 C1288 0.960 . S
H1275 C1288 0.960 . S
C1276 H1268 0.929 . S
C1276 C1277 1.377 . S
C1276 C1278 1.384 . S
C1277 C1276 1.377 . S
C1277 C1283 1.390 . S
C1278 H1269 0.930 . S
C1278 C1276 1.384 . S
C1278 C1279 1.372 . S
C1279 C1278 1.372 . S
C1279 C1280 1.400 . S
C1279 C1284 1.490 . S
C1280 H1270 0.930 . S
C1280 C1279 1.400 . S
C1280 C1283 1.386 . S
H1281 C1297 0.930 . S
H1282 C1298 0.931 . S
C1283 H1271 0.929 . S
C1283 C1277 1.390 . S
C1283 C1280 1.386 . S
C1284 C1279 1.490 . S
C1284 C1286 1.395 . S
C1284 C1287 1.403 . S
H1285 C1291 0.930 . S
C1286 H1272 0.930 . S
C1286 C1284 1.395 . S
C1286 C1289 1.403 . S
C1287 C1284 1.403 . S
C1287 C1288 1.524 . S
C1287 C1291 1.400 . S
C1288 H1273 0.960 . S
C1288 H1274 0.960 . S
C1288 H1275 0.960 . S
C1288 C1287 1.524 . S
C1289 C1286 1.403 . S
C1289 C1290 1.392 . S
C1289 C1293 1.495 . S
C1290 C1289 1.392 . S
C1290 C1291 1.385 . S
C1290 C1292 1.478 . S
C1291 H1285 0.930 . S
C1291 C1287 1.400 . S
C1291 C1290 1.385 . S
C1292 C1290 1.478 . S
C1292 C1294 1.381 . S
C1292 C1298 1.383 . S
C1293 C1289 1.495 . S
C1293 H1299 0.959 . S
C1293 H1300 0.961 . S
C1293 H1301 0.960 . S
C1294 C1292 1.381 . S
C1294 C1295 1.394 . S
C1294 H1302 0.930 . S
C1295 C1294 1.394 . S
C1295 C1296 1.383 . S
C1295 H1303 0.929 . S
C1296 C1295 1.383 . S
C1296 C1297 1.377 . S
C1297 H1281 0.930 . S
C1297 C1296 1.377 . S
C1297 C1298 1.379 . S
C1298 H1282 0.931 . S
C1298 C1292 1.383 . S
C1298 C1297 1.379 . S
H1299 C1293 0.959 . S
H1300 C1293 0.961 . S
H1301 C1293 0.960 . S
H1302 C1294 0.930 . S
H1303 C1295 0.929 . S
H1304 C1312 0.929 . S
H1305 C1314 0.930 . S
H1306 C1316 0.930 . S
H1307 C1319 0.929 . S
H1308 C1322 0.930 . S
H1309 C1324 0.960 . S
H1310 C1324 0.960 . S
H1311 C1324 0.960 . S
C1312 H1304 0.929 . S
C1312 C1313 1.377 . S
C1312 C1314 1.384 . S
C1313 C1312 1.377 . S
C1313 C1319 1.390 . S
C1314 H1305 0.930 . S
C1314 C1312 1.384 . S
C1314 C1315 1.372 . S
C1315 C1314 1.372 . S
C1315 C1316 1.400 . S
C1315 C1320 1.490 . S
C1316 H1306 0.930 . S
C1316 C1315 1.400 . S
C1316 C1319 1.386 . S
H1317 C1333 0.930 . S
H1318 C1334 0.931 . S
C1319 H1307 0.929 . S
C1319 C1313 1.390 . S
C1319 C1316 1.386 . S
C1320 C1315 1.490 . S
C1320 C1322 1.395 . S
C1320 C1323 1.403 . S
H1321 C1327 0.930 . S
C1322 H1308 0.930 . S
C1322 C1320 1.395 . S
C1322 C1325 1.403 . S
C1323 C1320 1.403 . S
C1323 C1324 1.524 . S
C1323 C1327 1.400 . S
C1324 H1309 0.960 . S
C1324 H1310 0.960 . S
C1324 H1311 0.960 . S
C1324 C1323 1.524 . S
C1325 C1322 1.403 . S
C1325 C1326 1.392 . S
C1325 C1329 1.495 . S
C1326 C1325 1.392 . S
C1326 C1327 1.385 . S
C1326 C1328 1.478 . S
C1327 H1321 0.930 . S
C1327 C1323 1.400 . S
C1327 C1326 1.385 . S
C1328 C1326 1.478 . S
C1328 C1330 1.381 . S
C1328 C1334 1.383 . S
C1329 C1325 1.495 . S
C1329 H1335 0.959 . S
C1329 H1336 0.961 . S
C1329 H1337 0.960 . S
C1330 C1328 1.381 . S
C1330 C1331 1.394 . S
C1330 H1338 0.930 . S
C1331 C1330 1.394 . S
C1331 C1332 1.383 . S
C1331 H1339 0.929 . S
C1332 C1331 1.383 . S
C1332 C1333 1.377 . S
C1333 H1317 0.930 . S
C1333 C1332 1.377 . S
C1333 C1334 1.379 . S
C1334 H1318 0.931 . S
C1334 C1328 1.383 . S
C1334 C1333 1.379 . S
H1335 C1329 0.959 . S
H1336 C1329 0.961 . S
H1337 C1329 0.960 . S
H1338 C1330 0.930 . S
H1339 C1331 0.929 . S
H1340 C1348 0.929 . S
H1341 C1350 0.930 . S
H1342 C1352 0.930 . S
H1343 C1355 0.929 . S
H1344 C1358 0.930 . S
H1345 C1360 0.960 . S
H1346 C1360 0.960 . S
H1347 C1360 0.960 . S
C1348 H1340 0.929 . S
C1348 C1349 1.377 . S
C1348 C1350 1.384 . S
C1349 C1348 1.377 . S
C1349 C1355 1.390 . S
C1350 H1341 0.930 . S
C1350 C1348 1.384 . S
C1350 C1351 1.372 . S
C1351 C1350 1.372 . S
C1351 C1352 1.400 . S
C1351 C1356 1.490 . S
C1352 H1342 0.930 . S
C1352 C1351 1.400 . S
C1352 C1355 1.386 . S
H1353 C1369 0.930 . S
H1354 C1370 0.931 . S
C1355 H1343 0.929 . S
C1355 C1349 1.390 . S
C1355 C1352 1.386 . S
C1356 C1351 1.490 . S
C1356 C1358 1.395 . S
C1356 C1359 1.403 . S
H1357 C1363 0.930 . S
C1358 H1344 0.930 . S
C1358 C1356 1.395 . S
C1358 C1361 1.403 . S
C1359 C1356 1.403 . S
C1359 C1360 1.524 . S
C1359 C1363 1.400 . S
C1360 H1345 0.960 . S
C1360 H1346 0.960 . S
C1360 H1347 0.960 . S
C1360 C1359 1.524 . S
C1361 C1358 1.403 . S
C1361 C1362 1.392 . S
C1361 C1365 1.495 . S
C1362 C1361 1.392 . S
C1362 C1363 1.385 . S
C1362 C1364 1.478 . S
C1363 H1357 0.930 . S
C1363 C1359 1.400 . S
C1363 C1362 1.385 . S
C1364 C1362 1.478 . S
C1364 C1366 1.381 . S
C1364 C1370 1.383 . S
C1365 C1361 1.495 . S
C1365 H1371 0.959 . S
C1365 H1372 0.961 . S
C1365 H1373 0.960 . S
C1366 C1364 1.381 . S
C1366 C1367 1.394 . S
C1366 H1374 0.930 . S
C1367 C1366 1.394 . S
C1367 C1368 1.383 . S
C1367 H1375 0.929 . S
C1368 C1367 1.383 . S
C1368 C1369 1.377 . S
C1369 H1353 0.930 . S
C1369 C1368 1.377 . S
C1369 C1370 1.379 . S
C1370 H1354 0.931 . S
C1370 C1364 1.383 . S
C1370 C1369 1.379 . S
H1371 C1365 0.959 . S
H1372 C1365 0.961 . S
H1373 C1365 0.960 . S
H1374 C1366 0.930 . S
H1375 C1367 0.929 . S
C233 C67 1.376 . S
C252 C11 1.373 . S
C269 C81 1.376 . S
C288 C25 1.375 . S
C305 C95 1.378 . S
C324 C39 1.379 . S
C341 C109 1.378 . S
C360 C53 1.369 . S
C377 C179 1.378 . S
C396 C123 1.369 . S
C413 C193 1.378 . S
C432 C137 1.381 . S
C449 C151 1.379 . S
C468 C207 1.378 . S
C485 C221 1.376 . S
C504 C165 1.376 . S
C521 C5 1.457 1_556 S
C540 C75 1.460 1_556 S
C557 C89 1.459 . S
C576 C19 1.449 . S
C593 C33 1.458 1_556 S
C612 C103 1.461 . S
C629 C61 1.459 . S
C648 C47 1.449 1_556 S
C665 C187 1.458 . S
C684 C117 1.449 . S
C701 C201 1.458 . S
C720 C131 1.461 . S
C737 C145 1.458 . S
C756 C215 1.461 . S
C773 C159 1.458 . S
C792 C173 1.460 . S
C809 C219 1.420 . S
C828 C9 1.413 . S
C845 C177 1.424 . S
C864 C23 1.414 . S
C881 C191 1.423 . S
C900 C37 1.410 . S
C917 C205 1.423 . S
C936 C51 1.424 . S
C953 C135 1.421 . S
C972 C65 1.410 . S
C989 C149 1.421 . S
C1008 C79 1.430 . S
C1025 C93 1.424 . S
C1044 C163 1.412 . S
C1061 C107 1.422 . S
C1080 C121 1.407 . S
C1097 C182 1.329 . S
C1116 C28 1.313 . S
C1133 C196 1.328 . S
C1152 C42 1.318 . S
C1169 C210 1.331 . S
C1188 C0 1.313 . S
C1205 C14 1.329 . S
C1224 C168 1.327 . S
C1241 C154 1.325 . S
C1260 C84 1.339 . S
C1277 C98 1.325 . S
C1296 C112 1.335 . S
C1313 C126 1.327 . S
C1332 C56 1.323 . S
C1349 C140 1.326 . S
C1368 C70 1.338 . S
