# Generated by pormake.
# Topology vbn, (6)-cn, num edge types: 1
# Building blocks:
#     Node 0, Type 0, BuildingBlock: OJICUG_clean_sbu_0, # of connection points: 6
#     Node 1, Type 0, BuildingBlock: OJICUG_clean_sbu_0, # of connection points: 6
#     Node 2, Type 0, BuildingBlock: OJICUG_clean_sbu_0, # of connection points: 6
#     Node 3, Type 0, BuildingBlock: OJICUG_clean_sbu_0, # of connection points: 6
#     Node 4, Type 0, BuildingBlock: OJICUG_clean_sbu_0, # of connection points: 6
#     Node 5, Type 0, BuildingBlock: OJICUG_clean_sbu_0, # of connection points: 6
#     Node 6, Type 0, BuildingBlock: OJICUG_clean_sbu_0, # of connection points: 6
#     Node 7, Type 0, BuildingBlock: OJICUG_clean_sbu_0, # of connection points: 6
#     Edge 8, Type (0, 0), BuildingBlock: CIFDUS_clean_linker_0, # of connection points: 2
#     Edge 9, Type (0, 0), BuildingBlock: CIFDUS_clean_linker_0, # of connection points: 2
#     Edge 10, Type (0, 0), BuildingBlock: CIFDUS_clean_linker_0, # of connection points: 2
#     Edge 11, Type (0, 0), BuildingBlock: CIFDUS_clean_linker_0, # of connection points: 2
#     Edge 12, Type (0, 0), BuildingBlock: CIFDUS_clean_linker_0, # of connection points: 2
#     Edge 13, Type (0, 0), BuildingBlock: CIFDUS_clean_linker_0, # of connection points: 2
#     Edge 14, Type (0, 0), BuildingBlock: CIFDUS_clean_linker_0, # of connection points: 2
#     Edge 15, Type (0, 0), BuildingBlock: CIFDUS_clean_linker_0, # of connection points: 2
#     Edge 16, Type (0, 0), BuildingBlock: CIFDUS_clean_linker_0, # of connection points: 2
#     Edge 17, Type (0, 0), BuildingBlock: CIFDUS_clean_linker_0, # of connection points: 2
#     Edge 18, Type (0, 0), BuildingBlock: CIFDUS_clean_linker_0, # of connection points: 2
#     Edge 19, Type (0, 0), BuildingBlock: CIFDUS_clean_linker_0, # of connection points: 2
#     Edge 20, Type (0, 0), BuildingBlock: CIFDUS_clean_linker_0, # of connection points: 2
#     Edge 21, Type (0, 0), BuildingBlock: CIFDUS_clean_linker_0, # of connection points: 2
#     Edge 22, Type (0, 0), BuildingBlock: CIFDUS_clean_linker_0, # of connection points: 2
#     Edge 23, Type (0, 0), BuildingBlock: CIFDUS_clean_linker_0, # of connection points: 2
#     Edge 24, Type (0, 0), BuildingBlock: CIFDUS_clean_linker_0, # of connection points: 2
#     Edge 25, Type (0, 0), BuildingBlock: CIFDUS_clean_linker_0, # of connection points: 2
#     Edge 26, Type (0, 0), BuildingBlock: CIFDUS_clean_linker_0, # of connection points: 2
#     Edge 27, Type (0, 0), BuildingBlock: CIFDUS_clean_linker_0, # of connection points: 2
#     Edge 28, Type (0, 0), BuildingBlock: CIFDUS_clean_linker_0, # of connection points: 2
#     Edge 29, Type (0, 0), BuildingBlock: CIFDUS_clean_linker_0, # of connection points: 2
#     Edge 30, Type (0, 0), BuildingBlock: CIFDUS_clean_linker_0, # of connection points: 2
#     Edge 31, Type (0, 0), BuildingBlock: CIFDUS_clean_linker_0, # of connection points: 2
# Relax obj value: 0.292
# Max RMSD: 0.267
# Mean RMSD: 0.267
data_MOF--net-vbn--node1-OJICUG_clean_sbu_0--edge1-CIFDUS_clean_linker_0
_symmetry_space_group_name_H-M    P1
_symmetry_Int_Tables_number       1
_symmetry_cell_setting            triclinic
loop_
_symmetry_equiv_pos_as_xyz
'x, y, z'
_cell_length_a     23.22056
_cell_length_b     25.89894
_cell_length_c     42.323197
_cell_angle_alpha  89.602762
_cell_angle_beta   89.475635
_cell_angle_gamma 90.074759
loop_
_atom_site_label
_atom_site_type_symbol
_atom_site_fract_x
_atom_site_fract_y
_atom_site_fract_z
_atom_type_partial_charge
Sc0 Sc 0.3074 0.27275 0.36797 0.0
Sc1 Sc 0.35312 0.26267 0.44527 0.0
Sc2 Sc 0.42085 0.34579 0.39464 0.0
O3 O 0.36214 0.29179 0.40192 0.0
C4 C 0.43075 0.28528 0.33258 0.0
C5 C 0.31669 0.16831 0.39966 0.0
C6 C 0.48245 0.26102 0.43965 0.0
C7 C 0.22829 0.27825 0.43044 0.0
C8 C 0.31306 0.39268 0.35989 0.0
C9 C 0.38943 0.37774 0.46036 0.0
O10 O 0.37595 0.27868 0.33149 0.0
O11 O 0.31796 0.1902 0.42671 0.0
O12 O 0.48088 0.30507 0.4257 0.0
O13 O 0.23585 0.26259 0.40205 0.0
O14 O 0.36732 0.39229 0.36387 0.0
O15 O 0.38826 0.33067 0.4692 0.0
O16 O 0.2823 0.35228 0.36256 0.0
O17 O 0.26952 0.29531 0.44679 0.0
O18 O 0.3847 0.39001 0.43171 0.0
O19 O 0.32807 0.1928 0.3742 0.0
O20 O 0.45564 0.30361 0.35656 0.0
O21 O 0.43812 0.23276 0.44372 0.0
Sc22 Sc 0.18738 0.23191 0.86819 0.0
Sc23 Sc 0.11182 0.25439 0.93784 0.0
Sc24 Sc 0.05509 0.1753 0.88131 0.0
O25 O 0.11823 0.2212 0.89581 0.0
C26 C 0.08052 0.23479 0.82061 0.0
C27 C 0.17126 0.34232 0.89338 0.0
C28 C 0.98631 0.26146 0.92062 0.0
C29 C 0.24065 0.22684 0.93793 0.0
C30 C 0.16696 0.11518 0.86069 0.0
C31 C 0.06186 0.13912 0.94962 0.0
O32 O 0.13478 0.22962 0.82499 0.0
O33 O 0.15306 0.3256 0.92026 0.0
O34 O 0.98827 0.21784 0.90685 0.0
O35 O 0.24623 0.23533 0.90827 0.0
O36 O 0.11358 0.12347 0.85578 0.0
O37 O 0.06963 0.18555 0.95916 0.0
O38 O 0.20117 0.15107 0.86807 0.0
O39 O 0.1921 0.22361 0.95167 0.0
O40 O 0.06649 0.12682 0.92082 0.0
O41 O 0.17747 0.31343 0.86944 0.0
O42 O 0.04343 0.22453 0.84184 0.0
O43 O 0.03123 0.28734 0.92616 0.0
Sc44 Sc 0.80543 0.1917 0.62322 0.0
Sc45 Sc 0.8709 0.22048 0.55064 0.0
Sc46 Sc 0.92061 0.12052 0.59471 0.0
O47 O 0.86578 0.17895 0.59045 0.0
C48 C 0.92513 0.1711 0.66071 0.0
C49 C 0.82697 0.30499 0.601 0.0
C50 C -0.00356 0.20988 0.56158 0.0
C51 C 0.7396 0.20032 0.55631 0.0
C52 C 0.80877 0.07017 0.62423 0.0
C53 C 0.9016 0.10664 0.52705 0.0
O54 O 0.87126 0.18304 0.66053 0.0
O55 O 0.83963 0.29086 0.57297 0.0
O56 O 0.98819 0.16215 0.56803 0.0
O57 O 0.73938 0.20225 0.58665 0.0
O58 O 0.86281 0.06937 0.61978 0.0
O59 O 0.90546 0.15533 0.52223 0.0
O60 O 0.78008 0.11171 0.62447 0.0
O61 O 0.78547 0.19918 0.53965 0.0
O62 O 0.88454 0.08988 0.55343 0.0
O63 O 0.82147 0.2732 0.6238 0.0
O64 O 0.95144 0.15151 0.63721 0.0
O65 O 0.95587 0.24236 0.56265 0.0
Sc66 Sc 0.5528 0.36081 0.10293 0.0
Sc67 Sc 0.61009 0.28048 0.04675 0.0
Sc68 Sc 0.68283 0.30075 0.11696 0.0
O69 O 0.6155 0.31331 0.08897 0.0
C70 C 0.66386 0.41816 0.12609 0.0
C71 C 0.56305 0.39641 0.03497 0.0
C72 C 0.73932 0.30841 0.04718 0.0
C73 C 0.48416 0.27521 0.06373 0.0
C74 C 0.57148 0.29515 0.16269 0.0
C75 C 0.66777 0.19118 0.08992 0.0
O76 O 0.60984 0.4112 0.12949 0.0
O77 O 0.56928 0.34967 0.02566 0.0
O78 O 0.74378 0.30043 0.07695 0.0
O79 O 0.48661 0.31937 0.07681 0.0
O80 O 0.62647 0.2978 0.15944 0.0
O81 O 0.64995 0.20846 0.06334 0.0
O82 O 0.53703 0.31214 0.14205 0.0
O83 O 0.5287 0.24842 0.05861 0.0
O84 O 0.67354 0.21948 0.11402 0.0
O85 O 0.56872 0.40903 0.06359 0.0
O86 O 0.69769 0.38159 0.11933 0.0
O87 O 0.69132 0.31062 0.03323 0.0
Sc88 Sc 0.56955 0.61933 0.59554 0.0
Sc89 Sc 0.6364 0.69854 0.54201 0.0
Sc90 Sc 0.68292 0.69501 0.61895 0.0
O91 O 0.62812 0.67274 0.58605 0.0
C92 C 0.55977 0.68515 0.65525 0.0
C93 C 0.50704 0.6999 0.54835 0.0
C94 C 0.6707 0.7969 0.58463 0.0
C95 C 0.60073 0.58159 0.53109 0.0
C96 C 0.67805 0.57615 0.63077 0.0
C97 C 0.76184 0.68665 0.55605 0.0
O98 O 0.53481 0.6653 0.63177 0.0
O99 O 0.55142 0.72781 0.5438 0.0
O100 O 0.66055 0.77399 0.61076 0.0
O101 O 0.60598 0.5717 0.56008 0.0
O102 O 0.70883 0.61598 0.62567 0.0
O103 O 0.7209 0.66751 0.54034 0.0
O104 O 0.62337 0.57707 0.62864 0.0
O105 O 0.60174 0.62793 0.52074 0.0
O106 O 0.75403 0.70368 0.58416 0.0
O107 O 0.50863 0.65643 0.56301 0.0
O108 O 0.61468 0.69161 0.65614 0.0
O109 O 0.67041 0.77297 0.55823 0.0
Sc110 Sc 0.79446 0.80175 0.11559 0.0
Sc111 Sc 0.87496 0.77744 0.04759 0.0
Sc112 Sc 0.92767 0.85858 0.10469 0.0
O113 O 0.86552 0.81188 0.08929 0.0
C114 C 0.81499 0.91879 0.12358 0.0
C115 C 0.74558 0.80626 0.04473 0.0
C116 C 0.92444 0.89304 0.03584 0.0
C117 C 0.81249 0.69033 0.09128 0.0
C118 C 0.89851 0.79836 0.16539 0.0
C119 C -0.00031 0.77266 0.06664 0.0
O120 O 0.78121 0.88274 0.11597 0.0
O121 O 0.79484 0.80618 0.03159 0.0
O122 O 0.91833 0.90585 0.06448 0.0
O123 O 0.8028 0.72021 0.11437 0.0
O124 O 0.93682 0.81119 0.14524 0.0
O125 O 0.95542 0.7459 0.06109 0.0
O126 O 0.84445 0.80144 0.15968 0.0
O127 O 0.83399 0.70598 0.06491 0.0
O128 O -0.00356 0.81619 0.08045 0.0
O129 O 0.73818 0.80021 0.07449 0.0
O130 O 0.86821 0.91082 0.1289 0.0
O131 O 0.91723 0.84644 0.02645 0.0
Sc132 Sc 0.06599 0.84214 0.38574 0.0
Sc133 Sc 0.12523 0.75933 0.43961 0.0
Sc134 Sc 0.1908 0.77632 0.36644 0.0
O135 O 0.12725 0.79183 0.39687 0.0
C136 C 0.07729 0.78255 0.32315 0.0
C137 C -0.00164 0.75475 0.4261 0.0
C138 C 0.17624 0.66846 0.39565 0.0
C139 C 0.07954 0.87413 0.45323 0.0
C140 C 0.17872 0.89551 0.35806 0.0
C141 C 0.25383 0.7816 0.43392 0.0
O142 O 0.0444 0.79833 0.34521 0.0
O143 O 0.0429 0.72739 0.43001 0.0
O144 O 0.17505 0.69485 0.37023 0.0
O145 O 0.08837 0.88752 0.42491 0.0
O146 O 0.2111 0.85681 0.36255 0.0
O147 O 0.20784 0.78994 0.44953 0.0
O148 O 0.12393 0.89243 0.35897 0.0
O149 O 0.08398 0.82693 0.46202 0.0
O150 O 0.25422 0.77109 0.4044 0.0
O151 O 0.00069 0.80009 0.41397 0.0
O152 O 0.13205 0.77924 0.32614 0.0
O153 O 0.16553 0.6883 0.42265 0.0
Sc154 Sc 0.43176 0.67458 0.88111 0.0
Sc155 Sc 0.37568 0.756 0.93713 0.0
Sc156 Sc 0.30052 0.73231 0.86804 0.0
O157 O 0.36908 0.72171 0.89541 0.0
C158 C 0.40957 0.73487 0.82024 0.0
C159 C 0.5015 0.76102 0.91897 0.0
C160 C 0.31669 0.84327 0.89279 0.0
C161 C 0.4235 0.64049 0.94962 0.0
C162 C 0.3202 0.61514 0.86047 0.0
C163 C 0.24613 0.72863 0.93852 0.0
O164 O 0.44556 0.72249 0.84126 0.0
O165 O 0.45699 0.78772 0.92436 0.0
O166 O 0.30987 0.81392 0.8692 0.0
O167 O 0.41786 0.62739 0.92107 0.0
O168 O 0.28619 0.65131 0.86779 0.0
O169 O 0.29456 0.72685 0.95205 0.0
O170 O 0.37382 0.62298 0.85576 0.0
O171 O 0.41687 0.68732 0.95873 0.0
O172 O 0.24091 0.73519 0.90866 0.0
O173 O 0.49875 0.71678 0.90605 0.0
O174 O 0.35486 0.73122 0.82459 0.0
O175 O 0.3355 0.82714 0.91945 0.0
H176 H 0.16471 0.96626 0.40306 0.0
H177 H 0.25631 0.93732 0.31609 0.0
H178 H 0.30873 0.01932 0.32152 0.0
H179 H 0.32908 0.09862 0.35183 0.0
H180 H 0.2426 0.12222 0.44132 0.0
H181 H 0.18838 0.0425 0.43447 0.0
C182 C 0.19548 0.9785 0.38506 0.0
C183 C 0.20564 0.94696 0.35874 0.0
C184 C 0.22714 0.02412 0.38919 0.0
C185 C 0.24707 0.96185 0.33613 0.0
C186 C 0.27727 0.00837 0.33942 0.0
C187 C 0.29883 0.08598 0.36997 0.0
C188 C 0.29024 0.11633 0.39713 0.0
C189 C 0.26799 0.03964 0.36602 0.0
C190 C 0.25084 0.09936 0.42042 0.0
C191 C 0.21928 0.05399 0.41638 0.0
H192 H 0.25445 0.37902 0.85412 0.0
H193 H 0.1323 0.42689 0.92556 0.0
H194 H 0.16583 0.51626 0.91991 0.0
H195 H 0.23108 0.57977 0.89561 0.0
H196 H 0.35863 0.53097 0.82734 0.0
H197 H 0.32144 0.44238 0.83068 0.0
C198 C 0.23478 0.40909 0.86828 0.0
C199 C 0.19047 0.39654 0.89002 0.0
C200 C 0.25524 0.45991 0.86544 0.0
C201 C 0.16632 0.43566 0.90867 0.0
C202 C 0.18543 0.48666 0.90539 0.0
C203 C 0.25035 0.54989 0.88113 0.0
C204 C 0.29701 0.56196 0.86085 0.0
C205 C 0.22993 0.4991 0.88393 0.0
C206 C 0.32249 0.52262 0.84292 0.0
C207 C 0.30127 0.47208 0.84488 0.0
H208 H 0.77347 0.5438 0.59999 0.0
H209 H 0.64446 0.49417 0.66755 0.0
H210 H 0.68396 0.40647 0.66677 0.0
H211 H 0.7494 0.34254 0.64317 0.0
H212 H 0.87073 0.39035 0.57091 0.0
H213 H 0.84026 0.48021 0.57721 0.0
C214 C 0.75491 0.51401 0.6151 0.0
C215 C 0.70668 0.52548 0.63419 0.0
C216 C 0.77608 0.46327 0.61332 0.0
C217 C 0.6819 0.48625 0.65291 0.0
C218 C 0.70431 0.43614 0.65233 0.0
C219 C 0.76985 0.37277 0.62918 0.0
C220 C 0.81255 0.35988 0.60673 0.0
C221 C 0.75055 0.42396 0.63209 0.0
C222 C 0.8378 0.39931 0.58832 0.0
C223 C 0.82037 0.45064 0.59192 0.0
H224 H 0.74938 0.15464 0.12917 0.0
H225 H 0.63106 0.1067 0.05694 0.0
H226 H 0.66461 0.01742 0.0626 0.0
H227 H 0.72838 0.954 0.08748 0.0
H228 H 0.85176 0.00309 0.1568 0.0
H229 H 0.81499 0.09163 0.15301 0.0
C230 C 0.73053 0.1246 0.1148 0.0
C231 C 0.68726 0.13706 0.09288 0.0
C232 C 0.75089 0.0739 0.11773 0.0
C233 C 0.66426 0.09799 0.07397 0.0
C234 C 0.68336 0.04705 0.07728 0.0
C235 C 0.74683 0.98395 0.10208 0.0
C236 C 0.79215 0.97198 0.12281 0.0
C237 C 0.72665 0.03468 0.09905 0.0
C238 C 0.81664 0.01137 0.14089 0.0
C239 C 0.79567 0.06187 0.13866 0.0
H240 H 0.82177 0.99853 0.57967 0.0
H241 H 0.72348 0.0333 0.66364 0.0
H242 H 0.6695 0.95211 0.6581 0.0
H243 H 0.65221 0.87044 0.6295 0.0
H244 H 0.74627 0.84084 0.54304 0.0
H245 H 0.79925 0.92144 0.549 0.0
C246 C 0.78887 0.98797 0.59692 0.0
C247 C 0.77745 0.02079 0.62251 0.0
C248 C 0.75676 0.9427 0.59279 0.0
C249 C 0.73348 0.00793 0.64411 0.0
C250 C 0.70255 0.96178 0.64081 0.0
C251 C 0.68373 0.88208 0.61176 0.0
C252 C 0.69517 0.84966 0.58584 0.0
C253 C 0.71389 0.92884 0.61521 0.0
C254 C 0.73602 0.86528 0.56298 0.0
C255 C 0.76684 0.91113 0.56654 0.0
H256 H 0.72778 0.65451 0.12976 0.0
H257 H 0.85409 0.60455 0.06106 0.0
H258 H 0.82142 0.51509 0.06791 0.0
H259 H 0.75546 0.45214 0.09233 0.0
H260 H 0.62413 0.5032 0.15778 0.0
H261 H 0.66082 0.59181 0.15351 0.0
C262 C 0.74858 0.62401 0.11644 0.0
C263 C 0.79374 0.63603 0.09511 0.0
C264 C 0.72875 0.57316 0.12001 0.0
C265 C 0.81935 0.59626 0.07759 0.0
C266 C 0.80076 0.5452 0.08158 0.0
C267 C 0.73534 0.48252 0.10606 0.0
C268 C 0.68766 0.4711 0.12578 0.0
C269 C 0.75541 0.53333 0.10264 0.0
C270 C 0.66109 0.51104 0.14269 0.0
C271 C 0.68197 0.5616 0.14016 0.0
H272 H 0.30769 0.45695 0.40857 0.0
H273 H 0.2511 0.4394 0.31268 0.0
H274 H 0.20149 0.5233 0.31543 0.0
H275 H 0.17641 0.6024 0.34537 0.0
H276 H 0.22895 0.61504 0.44265 0.0
H277 H 0.27742 0.53192 0.43931 0.0
C278 C 0.28477 0.47177 0.38823 0.0
C279 C 0.28387 0.44306 0.36024 0.0
C280 C 0.25526 0.51878 0.39042 0.0
C281 C 0.25287 0.46156 0.33426 0.0
C282 C 0.22446 0.50927 0.33594 0.0
C283 C 0.19798 0.58665 0.3659 0.0
C284 C 0.19898 0.61502 0.39423 0.0
C285 C 0.22553 0.53833 0.36392 0.0
C286 C 0.2269 0.59394 0.42067 0.0
C287 C 0.25509 0.54653 0.41873 0.0
H288 H 0.25619 0.08028 0.89487 0.0
H289 H 0.12778 0.03031 0.82858 0.0
H290 H 0.16515 0.94186 0.83183 0.0
H291 H 0.23278 0.87905 0.85455 0.0
H292 H 0.35599 0.92844 0.9239 0.0
H293 H 0.32197 0.01752 0.9184 0.0
C294 C 0.2367 0.0502 0.88079 0.0
C295 C 0.18978 0.06191 0.8611 0.0
C296 C 0.25731 0.99957 0.88349 0.0
C297 C 0.16411 0.02227 0.84371 0.0
C298 C 0.18545 0.97181 0.84561 0.0
C299 C 0.25258 0.9094 0.86827 0.0
C300 C 0.29733 0.89736 0.88938 0.0
C301 C 0.23185 0.96007 0.86554 0.0
C302 C 0.32165 0.93681 0.90749 0.0
C303 C 0.30225 0.98764 0.90431 0.0
H304 H 0.4937 0.37333 0.48667 0.0
H305 H 0.34674 0.4722 0.47346 0.0
H306 H 0.40301 0.54711 0.49012 0.0
H307 H 0.49535 0.58465 0.50625 0.0
H308 H 0.64233 0.48591 0.5197 0.0
H309 H 0.58576 0.41073 0.50359 0.0
C310 C 0.47363 0.41102 0.48864 0.0
C311 C 0.41588 0.41736 0.47996 0.0
C312 C 0.50704 0.45406 0.49665 0.0
C313 C 0.39071 0.46655 0.48111 0.0
C314 C 0.42317 0.50938 0.48993 0.0
C315 C 0.5153 0.54687 0.50459 0.0
C316 C 0.57322 0.5407 0.51293 0.0
C317 C 0.48175 0.50376 0.49693 0.0
C318 C 0.59823 0.49142 0.51224 0.0
C319 C 0.56562 0.44847 0.50371 0.0
H320 H 0.93796 0.99456 0.04904 0.0
H321 H 0.96467 0.88305 0.9748 0.0
H322 H 0.01319 0.94931 0.94268 0.0
H323 H 0.04927 0.03744 0.93646 0.0
H324 H 0.02254 0.14881 0.01078 0.0
H325 H 0.97437 0.08245 0.04295 0.0
C326 C 0.95409 0.98444 0.02577 0.0
C327 C 0.94759 0.93362 0.01435 0.0
C328 C 0.98288 0.02222 0.00787 0.0
C329 C 0.96863 0.92175 0.98408 0.0
C330 C -0.00317 0.9595 0.96587 0.0
C331 C 0.03323 0.04746 0.95977 0.0
C332 C 0.03951 0.09832 0.97118 0.0
C333 C 0.00462 0.0096 0.97772 0.0
C334 C 0.01871 0.11009 0.00151 0.0
C335 C 0.99069 0.07229 0.01974 0.0
H336 H 0.91401 0.00443 0.53855 0.0
H337 H 0.96223 0.12396 0.47152 0.0
H338 H 0.02707 0.06315 0.44494 0.0
H339 H 0.07041 0.97699 0.44161 0.0
H340 H 0.02305 0.85892 0.50977 0.0
H341 H 0.95904 0.91999 0.53628 0.0
C342 C 0.93825 0.01755 0.51797 0.0
C343 C 0.9332 0.06907 0.5071 0.0
C344 C 0.97657 0.98316 0.50366 0.0
C345 C 0.96498 0.08468 0.48032 0.0
C346 C 0.00251 0.05008 0.46538 0.0
C347 C 0.04661 0.96457 0.4625 0.0
C348 C 0.05114 0.91306 0.47351 0.0
C349 C 0.00906 0.99948 0.47715 0.0
C350 C 0.02047 0.8981 0.50078 0.0
C351 C 0.98337 0.93285 0.51571 0.0
H352 H 0.43649 0.53878 0.9369 0.0
H353 H 0.46372 0.65143 0.01019 0.0
H354 H 0.51297 0.5859 0.04196 0.0
H355 H 0.54996 0.49815 0.04797 0.0
H356 H 0.52297 0.38582 0.97446 0.0
H357 H 0.47363 0.45132 0.94281 0.0
C358 C 0.45286 0.5493 0.9599 0.0
C359 C 0.44636 0.60023 0.97113 0.0
C360 C 0.4822 0.51199 0.97753 0.0
C361 C 0.46768 0.61262 0.00107 0.0
C362 C 0.49633 0.57529 0.01905 0.0
C363 C 0.53365 0.48776 0.02494 0.0
C364 C 0.54022 0.43688 0.01361 0.0
C365 C 0.50436 0.52514 0.00729 0.0
C366 C 0.51897 0.42458 0.98365 0.0
C367 C 0.49026 0.46189 0.96573 0.0
H368 H 0.61429 0.29669 0.22267 0.0
H369 H 0.46628 0.25101 0.16863 0.0
H370 H 0.41024 0.23837 0.21689 0.0
H371 H 0.39886 0.25259 0.27385 0.0
H372 H 0.54728 0.2978 0.32799 0.0
H373 H 0.60687 0.29762 0.28067 0.0
C374 C 0.57032 0.28266 0.22157 0.0
C375 C 0.54419 0.27599 0.19218 0.0
C376 C 0.5377 0.27619 0.24949 0.0
C377 C 0.48711 0.25753 0.19107 0.0
C378 C 0.45483 0.25035 0.21864 0.0
C379 C 0.44437 0.26161 0.27539 0.0
C380 C 0.46778 0.27648 0.30437 0.0
C381 C 0.47891 0.26169 0.24793 0.0
C382 C 0.52734 0.28719 0.30593 0.0
C383 C 0.56184 0.2871 0.27882 0.0
H384 H 0.10808 0.17939 0.76942 0.0
H385 H -0.00343 0.30074 0.80225 0.0
H386 H 0.93687 0.2922 0.75515 0.0
H387 H 0.91101 0.24357 0.70714 0.0
H388 H 0.02081 0.11836 0.67709 0.0
H389 H 0.08549 0.13428 0.72064 0.0
C390 C 0.07199 0.20521 0.76557 0.0
C391 C 0.05718 0.24121 0.78874 0.0
C392 C 0.03626 0.19812 0.73942 0.0
C393 C 0.00917 0.27336 0.78422 0.0
C394 C 0.97455 0.2679 0.75761 0.0
C395 C 0.94885 0.21965 0.71035 0.0
C396 C 0.96069 0.1797 0.689 0.0
C397 C 0.98648 0.22908 0.73558 0.0
C398 C 0.01049 0.14945 0.69317 0.0
C399 C 0.04785 0.1586 0.71801 0.0
H400 H 0.37249 0.69999 0.76369 0.0
H401 H 0.50585 0.79023 0.80699 0.0
H402 H 0.56465 0.78523 0.75897 0.0
H403 H 0.58348 0.74525 0.70703 0.0
H404 H 0.44947 0.65325 0.66492 0.0
H405 H 0.38661 0.66871 0.70973 0.0
C406 C 0.41345 0.7201 0.76213 0.0
C407 C 0.43481 0.74534 0.78873 0.0
C408 C 0.448 0.71552 0.73484 0.0
C409 C 0.48852 0.77054 0.78666 0.0
C410 C 0.52249 0.76721 0.75935 0.0
C411 C 0.54049 0.72885 0.70764 0.0
C412 C 0.52201 0.69759 0.6827 0.0
C413 C 0.50373 0.73794 0.73372 0.0
C414 C 0.46554 0.67728 0.68375 0.0
C415 C 0.42909 0.68612 0.70943 0.0
H416 H 0.00559 0.76703 0.18092 0.0
H417 H 0.83824 0.79866 0.22162 0.0
H418 H 0.87849 0.79037 0.2747 0.0
H419 H 0.96317 0.78482 0.30879 0.0
H420 H 0.13121 0.75757 0.26743 0.0
H421 H 0.08827 0.75322 0.21511 0.0
C422 C 0.97762 0.77167 0.20138 0.0
C423 C 0.91914 0.78444 0.19732 0.0
C424 C 0.00128 0.76813 0.23161 0.0
C425 C 0.88338 0.78911 0.22407 0.0
C426 C 0.9065 0.7847 0.2544 0.0
C427 C 0.99053 0.7774 0.28843 0.0
C428 C 0.05066 0.77246 0.29207 0.0
C429 C 0.96574 0.77593 0.25836 0.0
C430 C 0.08502 0.76204 0.26538 0.0
C431 C 0.0605 0.75966 0.23543 0.0
H432 H 0.4913 0.21561 0.49709 0.0
H433 H 0.59213 0.27552 0.4189 0.0
H434 H 0.68071 0.25886 0.44803 0.0
H435 H 0.72822 0.23227 0.49613 0.0
H436 H 0.6289 0.17854 0.57665 0.0
H437 H 0.54009 0.18819 0.54609 0.0
C438 C 0.53283 0.22411 0.4863 0.0
C439 C 0.53565 0.2461 0.4558 0.0
C440 C 0.58328 0.21619 0.50365 0.0
C441 C 0.58929 0.2583 0.44227 0.0
C442 C 0.63971 0.24895 0.45893 0.0
C443 C 0.68731 0.222 0.50708 0.0
C444 C 0.68518 0.20427 0.53861 0.0
C445 C 0.63703 0.22864 0.48973 0.0
C446 C 0.63162 0.19224 0.55245 0.0
C447 C 0.58101 0.19767 0.53496 0.0
H448 H 0.98004 0.3065 0.9776 0.0
H449 H 0.87476 0.24665 0.9027 0.0
H450 H 0.78816 0.26072 0.93505 0.0
H451 H 0.74439 0.28306 0.98566 0.0
H452 H 0.85034 0.3343 0.06273 0.0
H453 H 0.93571 0.33035 0.02823 0.0
C454 C 0.93799 0.2976 0.96807 0.0
C455 C 0.9334 0.27627 0.93764 0.0
C456 C 0.8891 0.30355 0.98728 0.0
C457 C 0.87902 0.26349 0.92593 0.0
C458 C 0.82977 0.2713 0.94446 0.0
C459 C 0.78601 0.29412 -0.00508 0.0
C460 C 0.79111 0.30929 0.0267 0.0
C461 C 0.83458 0.29026 0.97535 0.0
C462 C 0.84545 0.32247 0.0384 0.0
C463 C 0.89406 0.32028 0.01868 0.0
H464 H 0.0348 0.165 0.50856 0.0
H465 H 0.06575 0.2924 0.57106 0.0
H466 H 0.13632 0.32851 0.53357 0.0
H467 H 0.18747 0.32417 0.48293 0.0
H468 H 0.15385 0.19867 0.4191 0.0
H469 H 0.08324 0.16266 0.4565 0.0
C470 C 0.05809 0.2 0.51414 0.0
C471 C 0.04682 0.22539 0.54275 0.0
C472 C 0.09609 0.22173 0.4918 0.0
C473 C 0.07528 0.27172 0.54946 0.0
C474 C 0.11475 0.29267 0.52787 0.0
C475 C 0.16392 0.28941 0.47695 0.0
C476 C 0.17569 0.2642 0.44828 0.0
C477 C 0.12482 0.26834 0.49883 0.0
C478 C 0.14484 0.21929 0.44077 0.0
C479 C 0.10531 0.19817 0.4624 0.0
H480 H 0.47901 0.22892 0.00723 0.0
H481 H 0.37237 0.29171 0.0816 0.0
H482 H 0.28649 0.27755 0.0495 0.0
H483 H 0.24385 0.25407 -0.00089 0.0
H484 H 0.35162 0.19998 0.92257 0.0
H485 H 0.43597 0.2042 0.95692 0.0
C486 C 0.43679 0.23847 0.0167 0.0
C487 C 0.43158 0.26063 0.04688 0.0
C488 C 0.38843 0.23246 -0.00239 0.0
C489 C 0.37705 0.27423 0.05854 0.0
C490 C 0.32823 0.26637 0.04015 0.0
C491 C 0.28566 0.24249 0.98999 0.0
C492 C 0.29164 0.22642 0.9584 0.0
C493 C 0.3337 0.24652 0.00946 0.0
C494 C 0.34615 0.21253 0.94677 0.0
C495 C 0.39417 0.21487 0.9664 0.0
H496 H 0.49924 0.7513 0.49297 0.0
H497 H 0.39613 0.68199 0.5673 0.0
H498 H 0.30821 0.70545 0.53907 0.0
H499 H 0.26165 0.74228 0.49252 0.0
H500 H 0.36463 0.80394 0.41571 0.0
H501 H 0.45249 0.78705 0.44586 0.0
C502 C 0.45745 0.7419 0.50317 0.0
C503 C 0.45383 0.71554 0.53232 0.0
C504 C 0.40754 0.75403 0.48637 0.0
C505 C 0.3997 0.70241 0.54494 0.0
C506 C 0.34963 0.71583 0.52883 0.0
C507 C 0.30332 0.75277 0.48256 0.0
C508 C 0.30694 0.77507 0.45219 0.0
C509 C 0.35318 0.74126 0.49947 0.0
C510 C 0.36106 0.78709 0.43914 0.0
C511 C 0.41106 0.77736 0.45634 0.0
H512 H 0.00674 0.72655 0.00989 0.0
H513 H 0.11129 0.79177 0.0834 0.0
H514 H 0.19762 0.77986 0.05046 0.0
H515 H 0.24136 0.75707 -0.00032 0.0
H516 H 0.13547 0.70005 0.92416 0.0
H517 H 0.05078 0.70289 0.95917 0.0
C518 C 0.0486 0.73714 0.01903 0.0
C519 C 0.05295 0.75927 0.04927 0.0
C520 C 0.09727 0.73236 -0.00054 0.0
C521 C 0.10712 0.77423 0.06037 0.0
C522 C 0.15625 0.76767 0.04148 0.0
C523 C 0.19989 0.74462 0.9909 0.0
C524 C 0.19468 0.72802 0.95937 0.0
C525 C 0.15155 0.74771 0.0108 0.0
C526 C 0.1405 0.71301 0.94826 0.0
C527 C 0.09224 0.71454 0.96829 0.0
H528 H 0.96191 0.79693 0.48013 0.0
H529 H 0.92623 0.67434 0.41498 0.0
H530 H 0.85292 0.63917 0.45137 0.0
H531 H 0.80038 0.64319 0.50182 0.0
H532 H 0.83904 0.76394 0.56821 0.0
H533 H 0.91188 0.79893 0.5318 0.0
C534 C 0.93701 0.7632 0.47375 0.0
C535 C 0.94754 0.73909 0.44463 0.0
C536 C 0.89714 0.7421 0.49539 0.0
C537 C 0.91719 0.6942 0.43692 0.0
C538 C 0.87606 0.67382 0.45788 0.0
C539 C 0.82533 0.67673 0.50857 0.0
C540 C 0.81433 0.70078 0.53779 0.0
C541 C 0.86617 0.69718 0.4873 0.0
C542 C 0.84717 0.74414 0.54615 0.0
C543 C 0.88817 0.76467 0.52511 0.0
H544 H 0.74226 0.77741 0.98369 0.0
H545 H 0.63621 0.83915 0.05872 0.0
H546 H 0.55238 0.83723 0.02399 0.0
H547 H 0.50861 0.81144 0.97415 0.0
H548 H 0.61279 0.74096 0.90137 0.0
H549 H 0.69902 0.75381 0.93337 0.0
C550 C 0.70098 0.79116 0.99237 0.0
C551 C 0.69532 0.80854 0.02371 0.0
C552 C 0.65303 0.78842 0.97268 0.0
C553 C 0.64145 0.82542 0.03474 0.0
C554 C 0.5937 0.82441 0.01489 0.0
C555 C 0.5504 0.79997 0.96494 0.0
C556 C 0.55468 0.77583 0.93529 0.0
C557 C 0.59891 0.80519 0.98404 0.0
C558 C 0.60873 0.75993 0.92402 0.0
C559 C 0.65778 0.76701 0.94237 0.0
loop_
_geom_bond_atom_site_label_1
_geom_bond_atom_site_label_2
_geom_bond_distance
_geom_bond_site_symmetry_2
_ccdc_geom_bond_type
Sc0 O3 2.025 . S
Sc0 O10 2.105 . S
Sc0 O13 2.105 . S
Sc0 O16 2.105 . S
Sc0 O19 2.105 . S
Sc1 O3 2.025 . S
Sc1 O11 2.105 . S
Sc1 O15 2.105 . S
Sc1 O17 2.105 . S
Sc1 O21 2.105 . S
Sc2 O3 2.025 . S
Sc2 O12 2.105 . S
Sc2 O14 2.105 . S
Sc2 O18 2.105 . S
Sc2 O20 2.105 . S
O3 Sc0 2.025 . S
O3 Sc1 2.025 . S
O3 Sc2 2.025 . S
C4 O10 1.268 . S
C4 O20 1.268 . S
C5 O11 1.268 . S
C5 O19 1.268 . S
C6 O12 1.268 . S
C6 O21 1.268 . S
C7 O13 1.268 . S
C7 O17 1.268 . S
C8 O14 1.268 . S
C8 O16 1.268 . S
C9 O15 1.268 . S
C9 O18 1.268 . S
O10 Sc0 2.105 . S
O10 C4 1.268 . S
O11 Sc1 2.105 . S
O11 C5 1.268 . S
O12 Sc2 2.105 . S
O12 C6 1.268 . S
O13 Sc0 2.105 . S
O13 C7 1.268 . S
O14 Sc2 2.105 . S
O14 C8 1.268 . S
O15 Sc1 2.105 . S
O15 C9 1.268 . S
O16 Sc0 2.105 . S
O16 C8 1.268 . S
O17 Sc1 2.105 . S
O17 C7 1.268 . S
O18 Sc2 2.105 . S
O18 C9 1.268 . S
O19 Sc0 2.105 . S
O19 C5 1.268 . S
O20 Sc2 2.105 . S
O20 C4 1.268 . S
O21 Sc1 2.105 . S
O21 C6 1.268 . S
Sc22 O25 2.025 . S
Sc22 O32 2.105 . S
Sc22 O35 2.105 . S
Sc22 O38 2.105 . S
Sc22 O41 2.105 . S
Sc23 O25 2.025 . S
Sc23 O33 2.105 . S
Sc23 O37 2.105 . S
Sc23 O39 2.105 . S
Sc23 O43 2.105 . S
Sc24 O25 2.025 . S
Sc24 O34 2.105 1_455 S
Sc24 O36 2.105 . S
Sc24 O40 2.105 . S
Sc24 O42 2.105 . S
O25 Sc22 2.025 . S
O25 Sc23 2.025 . S
O25 Sc24 2.025 . S
C26 O32 1.268 . S
C26 O42 1.268 . S
C27 O33 1.268 . S
C27 O41 1.268 . S
C28 O34 1.268 . S
C28 O43 1.268 1_655 S
C29 O35 1.268 . S
C29 O39 1.268 . S
C30 O36 1.268 . S
C30 O38 1.268 . S
C31 O37 1.268 . S
C31 O40 1.268 . S
O32 Sc22 2.105 . S
O32 C26 1.268 . S
O33 Sc23 2.105 . S
O33 C27 1.268 . S
O34 Sc24 2.105 1_655 S
O34 C28 1.268 . S
O35 Sc22 2.105 . S
O35 C29 1.268 . S
O36 Sc24 2.105 . S
O36 C30 1.268 . S
O37 Sc23 2.105 . S
O37 C31 1.268 . S
O38 Sc22 2.105 . S
O38 C30 1.268 . S
O39 Sc23 2.105 . S
O39 C29 1.268 . S
O40 Sc24 2.105 . S
O40 C31 1.268 . S
O41 Sc22 2.105 . S
O41 C27 1.268 . S
O42 Sc24 2.105 . S
O42 C26 1.268 . S
O43 Sc23 2.105 . S
O43 C28 1.268 1_455 S
Sc44 O47 2.025 . S
Sc44 O54 2.105 . S
Sc44 O57 2.105 . S
Sc44 O60 2.105 . S
Sc44 O63 2.105 . S
Sc45 O47 2.025 . S
Sc45 O55 2.105 . S
Sc45 O59 2.105 . S
Sc45 O61 2.105 . S
Sc45 O65 2.105 . S
Sc46 O47 2.025 . S
Sc46 O56 2.105 1_655 S
Sc46 O58 2.105 . S
Sc46 O62 2.105 . S
Sc46 O64 2.105 . S
O47 Sc44 2.025 . S
O47 Sc45 2.025 . S
O47 Sc46 2.025 . S
C48 O54 1.268 . S
C48 O64 1.268 . S
C49 O55 1.268 . S
C49 O63 1.268 . S
C50 O56 1.268 . S
C50 O65 1.268 1_455 S
C51 O57 1.268 . S
C51 O61 1.268 . S
C52 O58 1.268 . S
C52 O60 1.268 . S
C53 O59 1.268 . S
C53 O62 1.268 . S
O54 Sc44 2.105 . S
O54 C48 1.268 . S
O55 Sc45 2.105 . S
O55 C49 1.268 . S
O56 Sc46 2.105 1_455 S
O56 C50 1.268 . S
O57 Sc44 2.105 . S
O57 C51 1.268 . S
O58 Sc46 2.105 . S
O58 C52 1.268 . S
O59 Sc45 2.105 . S
O59 C53 1.268 . S
O60 Sc44 2.105 . S
O60 C52 1.268 . S
O61 Sc45 2.105 . S
O61 C51 1.268 . S
O62 Sc46 2.105 . S
O62 C53 1.268 . S
O63 Sc44 2.105 . S
O63 C49 1.268 . S
O64 Sc46 2.105 . S
O64 C48 1.268 . S
O65 Sc45 2.105 . S
O65 C50 1.268 1_655 S
Sc66 O69 2.025 . S
Sc66 O76 2.105 . S
Sc66 O79 2.105 . S
Sc66 O82 2.105 . S
Sc66 O85 2.105 . S
Sc67 O69 2.025 . S
Sc67 O77 2.105 . S
Sc67 O81 2.105 . S
Sc67 O83 2.105 . S
Sc67 O87 2.105 . S
Sc68 O69 2.025 . S
Sc68 O78 2.105 . S
Sc68 O80 2.105 . S
Sc68 O84 2.105 . S
Sc68 O86 2.105 . S
O69 Sc66 2.025 . S
O69 Sc67 2.025 . S
O69 Sc68 2.025 . S
C70 O76 1.268 . S
C70 O86 1.268 . S
C71 O77 1.268 . S
C71 O85 1.268 . S
C72 O78 1.268 . S
C72 O87 1.268 . S
C73 O79 1.268 . S
C73 O83 1.268 . S
C74 O80 1.268 . S
C74 O82 1.268 . S
C75 O81 1.268 . S
C75 O84 1.268 . S
O76 Sc66 2.105 . S
O76 C70 1.268 . S
O77 Sc67 2.105 . S
O77 C71 1.268 . S
O78 Sc68 2.105 . S
O78 C72 1.268 . S
O79 Sc66 2.105 . S
O79 C73 1.268 . S
O80 Sc68 2.105 . S
O80 C74 1.268 . S
O81 Sc67 2.105 . S
O81 C75 1.268 . S
O82 Sc66 2.105 . S
O82 C74 1.268 . S
O83 Sc67 2.105 . S
O83 C73 1.268 . S
O84 Sc68 2.105 . S
O84 C75 1.268 . S
O85 Sc66 2.105 . S
O85 C71 1.268 . S
O86 Sc68 2.105 . S
O86 C70 1.268 . S
O87 Sc67 2.105 . S
O87 C72 1.268 . S
Sc88 O91 2.025 . S
Sc88 O98 2.105 . S
Sc88 O101 2.105 . S
Sc88 O104 2.105 . S
Sc88 O107 2.105 . S
Sc89 O91 2.025 . S
Sc89 O99 2.105 . S
Sc89 O103 2.105 . S
Sc89 O105 2.105 . S
Sc89 O109 2.105 . S
Sc90 O91 2.025 . S
Sc90 O100 2.105 . S
Sc90 O102 2.105 . S
Sc90 O106 2.105 . S
Sc90 O108 2.105 . S
O91 Sc88 2.025 . S
O91 Sc89 2.025 . S
O91 Sc90 2.025 . S
C92 O98 1.268 . S
C92 O108 1.268 . S
C93 O99 1.268 . S
C93 O107 1.268 . S
C94 O100 1.268 . S
C94 O109 1.268 . S
C95 O101 1.268 . S
C95 O105 1.268 . S
C96 O102 1.268 . S
C96 O104 1.268 . S
C97 O103 1.268 . S
C97 O106 1.268 . S
O98 Sc88 2.105 . S
O98 C92 1.268 . S
O99 Sc89 2.105 . S
O99 C93 1.268 . S
O100 Sc90 2.105 . S
O100 C94 1.268 . S
O101 Sc88 2.105 . S
O101 C95 1.268 . S
O102 Sc90 2.105 . S
O102 C96 1.268 . S
O103 Sc89 2.105 . S
O103 C97 1.268 . S
O104 Sc88 2.105 . S
O104 C96 1.268 . S
O105 Sc89 2.105 . S
O105 C95 1.268 . S
O106 Sc90 2.105 . S
O106 C97 1.268 . S
O107 Sc88 2.105 . S
O107 C93 1.268 . S
O108 Sc90 2.105 . S
O108 C92 1.268 . S
O109 Sc89 2.105 . S
O109 C94 1.268 . S
Sc110 O113 2.025 . S
Sc110 O120 2.105 . S
Sc110 O123 2.105 . S
Sc110 O126 2.105 . S
Sc110 O129 2.105 . S
Sc111 O113 2.025 . S
Sc111 O121 2.105 . S
Sc111 O125 2.105 . S
Sc111 O127 2.105 . S
Sc111 O131 2.105 . S
Sc112 O113 2.025 . S
Sc112 O122 2.105 . S
Sc112 O124 2.105 . S
Sc112 O128 2.105 1_655 S
Sc112 O130 2.105 . S
O113 Sc110 2.025 . S
O113 Sc111 2.025 . S
O113 Sc112 2.025 . S
C114 O120 1.268 . S
C114 O130 1.268 . S
C115 O121 1.268 . S
C115 O129 1.268 . S
C116 O122 1.268 . S
C116 O131 1.268 . S
C117 O123 1.268 . S
C117 O127 1.268 . S
C118 O124 1.268 . S
C118 O126 1.268 . S
C119 O125 1.268 1_455 S
C119 O128 1.268 . S
O120 Sc110 2.105 . S
O120 C114 1.268 . S
O121 Sc111 2.105 . S
O121 C115 1.268 . S
O122 Sc112 2.105 . S
O122 C116 1.268 . S
O123 Sc110 2.105 . S
O123 C117 1.268 . S
O124 Sc112 2.105 . S
O124 C118 1.268 . S
O125 Sc111 2.105 . S
O125 C119 1.268 1_655 S
O126 Sc110 2.105 . S
O126 C118 1.268 . S
O127 Sc111 2.105 . S
O127 C117 1.268 . S
O128 Sc112 2.105 1_455 S
O128 C119 1.268 . S
O129 Sc110 2.105 . S
O129 C115 1.268 . S
O130 Sc112 2.105 . S
O130 C114 1.268 . S
O131 Sc111 2.105 . S
O131 C116 1.268 . S
Sc132 O135 2.025 . S
Sc132 O142 2.105 . S
Sc132 O145 2.105 . S
Sc132 O148 2.105 . S
Sc132 O151 2.105 1_455 S
Sc133 O135 2.025 . S
Sc133 O143 2.105 . S
Sc133 O147 2.105 . S
Sc133 O149 2.105 . S
Sc133 O153 2.105 . S
Sc134 O135 2.025 . S
Sc134 O144 2.105 . S
Sc134 O146 2.105 . S
Sc134 O150 2.105 . S
Sc134 O152 2.105 . S
O135 Sc132 2.025 . S
O135 Sc133 2.025 . S
O135 Sc134 2.025 . S
C136 O142 1.268 . S
C136 O152 1.268 . S
C137 O143 1.268 1_655 S
C137 O151 1.268 . S
C138 O144 1.268 . S
C138 O153 1.268 . S
C139 O145 1.268 . S
C139 O149 1.268 . S
C140 O146 1.268 . S
C140 O148 1.268 . S
C141 O147 1.268 . S
C141 O150 1.268 . S
O142 Sc132 2.105 . S
O142 C136 1.268 . S
O143 Sc133 2.105 . S
O143 C137 1.268 1_455 S
O144 Sc134 2.105 . S
O144 C138 1.268 . S
O145 Sc132 2.105 . S
O145 C139 1.268 . S
O146 Sc134 2.105 . S
O146 C140 1.268 . S
O147 Sc133 2.105 . S
O147 C141 1.268 . S
O148 Sc132 2.105 . S
O148 C140 1.268 . S
O149 Sc133 2.105 . S
O149 C139 1.268 . S
O150 Sc134 2.105 . S
O150 C141 1.268 . S
O151 Sc132 2.105 1_655 S
O151 C137 1.268 . S
O152 Sc134 2.105 . S
O152 C136 1.268 . S
O153 Sc133 2.105 . S
O153 C138 1.268 . S
Sc154 O157 2.025 . S
Sc154 O164 2.105 . S
Sc154 O167 2.105 . S
Sc154 O170 2.105 . S
Sc154 O173 2.105 . S
Sc155 O157 2.025 . S
Sc155 O165 2.105 . S
Sc155 O169 2.105 . S
Sc155 O171 2.105 . S
Sc155 O175 2.105 . S
Sc156 O157 2.025 . S
Sc156 O166 2.105 . S
Sc156 O168 2.105 . S
Sc156 O172 2.105 . S
Sc156 O174 2.105 . S
O157 Sc154 2.025 . S
O157 Sc155 2.025 . S
O157 Sc156 2.025 . S
C158 O164 1.268 . S
C158 O174 1.268 . S
C159 O165 1.268 . S
C159 O173 1.268 . S
C160 O166 1.268 . S
C160 O175 1.268 . S
C161 O167 1.268 . S
C161 O171 1.268 . S
C162 O168 1.268 . S
C162 O170 1.268 . S
C163 O169 1.268 . S
C163 O172 1.268 . S
O164 Sc154 2.105 . S
O164 C158 1.268 . S
O165 Sc155 2.105 . S
O165 C159 1.268 . S
O166 Sc156 2.105 . S
O166 C160 1.268 . S
O167 Sc154 2.105 . S
O167 C161 1.268 . S
O168 Sc156 2.105 . S
O168 C162 1.268 . S
O169 Sc155 2.105 . S
O169 C163 1.268 . S
O170 Sc154 2.105 . S
O170 C162 1.268 . S
O171 Sc155 2.105 . S
O171 C161 1.268 . S
O172 Sc156 2.105 . S
O172 C163 1.268 . S
O173 Sc154 2.105 . S
O173 C159 1.268 . S
O174 Sc156 2.105 . S
O174 C158 1.268 . S
O175 Sc155 2.105 . S
O175 C160 1.268 . S
H176 C182 0.930 . S
H177 C185 0.930 . S
H178 C186 0.930 . S
H179 C187 0.930 . S
H180 C190 0.930 . S
H181 C191 0.930 . S
C182 H176 0.930 . S
C182 C183 1.355 1_545 S
C182 C184 1.415 . S
C183 C182 1.355 1_565 S
C183 C185 1.419 . S
C184 C182 1.415 . S
C184 C189 1.425 . S
C184 C191 1.409 . S
C185 H177 0.930 . S
C185 C183 1.419 . S
C185 C186 1.362 . S
C186 H178 0.930 . S
C186 C185 1.362 . S
C186 C189 1.409 1_565 S
C187 H179 0.930 . S
C187 C188 1.355 . S
C187 C189 1.415 . S
C188 C187 1.355 . S
C188 C190 1.419 . S
C189 C184 1.425 . S
C189 C186 1.409 1_545 S
C189 C187 1.415 . S
C190 H180 0.930 . S
C190 C188 1.419 . S
C190 C191 1.362 . S
C191 H181 0.930 . S
C191 C184 1.409 . S
C191 C190 1.362 . S
H192 C198 0.930 . S
H193 C201 0.930 . S
H194 C202 0.930 . S
H195 C203 0.930 . S
H196 C206 0.930 . S
H197 C207 0.930 . S
C198 H192 0.930 . S
C198 C199 1.355 . S
C198 C200 1.415 . S
C199 C198 1.355 . S
C199 C201 1.419 . S
C200 C198 1.415 . S
C200 C205 1.425 . S
C200 C207 1.409 . S
C201 H193 0.930 . S
C201 C199 1.419 . S
C201 C202 1.362 . S
C202 H194 0.930 . S
C202 C201 1.362 . S
C202 C205 1.409 . S
C203 H195 0.930 . S
C203 C204 1.355 . S
C203 C205 1.415 . S
C204 C203 1.355 . S
C204 C206 1.419 . S
C205 C200 1.425 . S
C205 C202 1.409 . S
C205 C203 1.415 . S
C206 H196 0.930 . S
C206 C204 1.419 . S
C206 C207 1.362 . S
C207 H197 0.930 . S
C207 C200 1.409 . S
C207 C206 1.362 . S
H208 C214 0.930 . S
H209 C217 0.930 . S
H210 C218 0.930 . S
H211 C219 0.930 . S
H212 C222 0.930 . S
H213 C223 0.930 . S
C214 H208 0.930 . S
C214 C215 1.355 . S
C214 C216 1.415 . S
C215 C214 1.355 . S
C215 C217 1.419 . S
C216 C214 1.415 . S
C216 C221 1.425 . S
C216 C223 1.409 . S
C217 H209 0.930 . S
C217 C215 1.419 . S
C217 C218 1.362 . S
C218 H210 0.930 . S
C218 C217 1.362 . S
C218 C221 1.409 . S
C219 H211 0.930 . S
C219 C220 1.355 . S
C219 C221 1.415 . S
C220 C219 1.355 . S
C220 C222 1.419 . S
C221 C216 1.425 . S
C221 C218 1.409 . S
C221 C219 1.415 . S
C222 H212 0.930 . S
C222 C220 1.419 . S
C222 C223 1.362 . S
C223 H213 0.930 . S
C223 C216 1.409 . S
C223 C222 1.362 . S
H224 C230 0.930 . S
H225 C233 0.930 . S
H226 C234 0.930 . S
H227 C235 0.930 . S
H228 C238 0.930 . S
H229 C239 0.930 . S
C230 H224 0.930 . S
C230 C231 1.355 . S
C230 C232 1.415 . S
C231 C230 1.355 . S
C231 C233 1.419 . S
C232 C230 1.415 . S
C232 C237 1.425 . S
C232 C239 1.409 . S
C233 H225 0.930 . S
C233 C231 1.419 . S
C233 C234 1.362 . S
C234 H226 0.930 . S
C234 C233 1.362 . S
C234 C237 1.409 . S
C235 H227 0.930 . S
C235 C236 1.355 . S
C235 C237 1.415 1_565 S
C236 C235 1.355 . S
C236 C238 1.419 1_565 S
C237 C232 1.425 . S
C237 C234 1.409 . S
C237 C235 1.415 1_545 S
C238 H228 0.930 . S
C238 C236 1.419 1_545 S
C238 C239 1.362 . S
C239 H229 0.930 . S
C239 C232 1.409 . S
C239 C238 1.362 . S
H240 C246 0.930 . S
H241 C249 0.930 . S
H242 C250 0.930 . S
H243 C251 0.930 . S
H244 C254 0.930 . S
H245 C255 0.930 . S
C246 H240 0.930 . S
C246 C247 1.355 1_565 S
C246 C248 1.415 . S
C247 C246 1.355 1_545 S
C247 C249 1.419 . S
C248 C246 1.415 . S
C248 C253 1.425 . S
C248 C255 1.409 . S
C249 H241 0.930 . S
C249 C247 1.419 . S
C249 C250 1.362 . S
C250 H242 0.930 . S
C250 C249 1.362 . S
C250 C253 1.409 1_545 S
C251 H243 0.930 . S
C251 C252 1.355 . S
C251 C253 1.415 . S
C252 C251 1.355 . S
C252 C254 1.419 . S
C253 C248 1.425 . S
C253 C250 1.409 1_565 S
C253 C251 1.415 . S
C254 H244 0.930 . S
C254 C252 1.419 . S
C254 C255 1.362 . S
C255 H245 0.930 . S
C255 C248 1.409 . S
C255 C254 1.362 . S
H256 C262 0.930 . S
H257 C265 0.930 . S
H258 C266 0.930 . S
H259 C267 0.930 . S
H260 C270 0.930 . S
H261 C271 0.930 . S
C262 H256 0.930 . S
C262 C263 1.355 . S
C262 C264 1.415 . S
C263 C262 1.355 . S
C263 C265 1.419 . S
C264 C262 1.415 . S
C264 C269 1.425 . S
C264 C271 1.409 . S
C265 H257 0.930 . S
C265 C263 1.419 . S
C265 C266 1.362 . S
C266 H258 0.930 . S
C266 C265 1.362 . S
C266 C269 1.409 . S
C267 H259 0.930 . S
C267 C268 1.355 . S
C267 C269 1.415 . S
C268 C267 1.355 . S
C268 C270 1.419 . S
C269 C264 1.425 . S
C269 C266 1.409 . S
C269 C267 1.415 . S
C270 H260 0.930 . S
C270 C268 1.419 . S
C270 C271 1.362 . S
C271 H261 0.930 . S
C271 C264 1.409 . S
C271 C270 1.362 . S
H272 C278 0.930 . S
H273 C281 0.930 . S
H274 C282 0.930 . S
H275 C283 0.930 . S
H276 C286 0.930 . S
H277 C287 0.930 . S
C278 H272 0.930 . S
C278 C279 1.355 . S
C278 C280 1.415 . S
C279 C278 1.355 . S
C279 C281 1.419 . S
C280 C278 1.415 . S
C280 C285 1.425 . S
C280 C287 1.409 . S
C281 H273 0.930 . S
C281 C279 1.419 . S
C281 C282 1.362 . S
C282 H274 0.930 . S
C282 C281 1.362 . S
C282 C285 1.409 . S
C283 H275 0.930 . S
C283 C284 1.355 . S
C283 C285 1.415 . S
C284 C283 1.355 . S
C284 C286 1.419 . S
C285 C280 1.425 . S
C285 C282 1.409 . S
C285 C283 1.415 . S
C286 H276 0.930 . S
C286 C284 1.419 . S
C286 C287 1.362 . S
C287 H277 0.930 . S
C287 C280 1.409 . S
C287 C286 1.362 . S
H288 C294 0.930 . S
H289 C297 0.930 . S
H290 C298 0.930 . S
H291 C299 0.930 . S
H292 C302 0.930 . S
H293 C303 0.930 . S
C294 H288 0.930 . S
C294 C295 1.355 1_565 S
C294 C296 1.415 . S
C295 C294 1.355 1_545 S
C295 C297 1.419 . S
C296 C294 1.415 . S
C296 C301 1.425 . S
C296 C303 1.409 . S
C297 H289 0.930 . S
C297 C295 1.419 . S
C297 C298 1.362 . S
C298 H290 0.930 . S
C298 C297 1.362 . S
C298 C301 1.409 1_545 S
C299 H291 0.930 . S
C299 C300 1.355 . S
C299 C301 1.415 . S
C300 C299 1.355 . S
C300 C302 1.419 . S
C301 C296 1.425 . S
C301 C298 1.409 1_565 S
C301 C299 1.415 . S
C302 H292 0.930 . S
C302 C300 1.419 . S
C302 C303 1.362 . S
C303 H293 0.930 . S
C303 C296 1.409 . S
C303 C302 1.362 . S
H304 C310 0.930 . S
H305 C313 0.930 . S
H306 C314 0.930 . S
H307 C315 0.930 . S
H308 C318 0.930 . S
H309 C319 0.930 . S
C310 H304 0.930 . S
C310 C311 1.355 . S
C310 C312 1.415 . S
C311 C310 1.355 . S
C311 C313 1.419 . S
C312 C310 1.415 . S
C312 C317 1.425 . S
C312 C319 1.409 . S
C313 H305 0.930 . S
C313 C311 1.419 . S
C313 C314 1.362 . S
C314 H306 0.930 . S
C314 C313 1.362 . S
C314 C317 1.409 . S
C315 H307 0.930 . S
C315 C316 1.355 . S
C315 C317 1.415 . S
C316 C315 1.355 . S
C316 C318 1.419 . S
C317 C312 1.425 . S
C317 C314 1.409 . S
C317 C315 1.415 . S
C318 H308 0.930 . S
C318 C316 1.419 . S
C318 C319 1.362 . S
C319 H309 0.930 . S
C319 C312 1.409 . S
C319 C318 1.362 . S
H320 C326 0.930 . S
H321 C329 0.930 . S
H322 C330 0.930 . S
H323 C331 0.930 . S
H324 C334 0.930 . S
H325 C335 0.930 . S
C326 H320 0.930 . S
C326 C327 1.355 . S
C326 C328 1.415 1_565 S
C327 C326 1.355 . S
C327 C329 1.419 1_655 S
C328 C326 1.415 1_545 S
C328 C333 1.425 1_644 S
C328 C335 1.409 . S
C329 H321 0.930 . S
C329 C327 1.419 1_455 S
C329 C330 1.362 1_554 S
C330 H322 0.930 . S
C330 C329 1.362 1_556 S
C330 C333 1.409 . S
C331 H323 0.930 . S
C331 C332 1.355 . S
C331 C333 1.415 1_545 S
C332 C331 1.355 . S
C332 C334 1.419 1_455 S
C333 C328 1.425 1_466 S
C333 C330 1.409 . S
C333 C331 1.415 1_565 S
C334 H324 0.930 . S
C334 C332 1.419 1_655 S
C334 C335 1.362 1_556 S
C335 H325 0.930 . S
C335 C328 1.409 . S
C335 C334 1.362 1_554 S
H336 C342 0.930 1_455 S
H337 C345 0.930 . S
H338 C346 0.930 . S
H339 C347 0.930 1_655 S
H340 C350 0.930 . S
H341 C351 0.930 . S
C342 H336 0.930 1_655 S
C342 C343 1.355 . S
C342 C344 1.415 1_655 S
C343 C342 1.355 . S
C343 C345 1.419 . S
C344 C342 1.415 1_455 S
C344 C349 1.425 1_445 S
C344 C351 1.409 . S
C345 H337 0.930 . S
C345 C343 1.419 . S
C345 C346 1.362 1_545 S
C346 H338 0.930 . S
C346 C345 1.362 1_565 S
C346 C349 1.409 . S
C347 H339 0.930 1_455 S
C347 C348 1.355 . S
C347 C349 1.415 1_455 S
C348 C347 1.355 . S
C348 C350 1.419 . S
C349 C344 1.425 1_665 S
C349 C346 1.409 . S
C349 C347 1.415 1_655 S
C350 H340 0.930 . S
C350 C348 1.419 . S
C350 C351 1.362 1_565 S
C351 H341 0.930 . S
C351 C344 1.409 . S
C351 C350 1.362 1_545 S
H352 C358 0.930 . S
H353 C361 0.930 . S
H354 C362 0.930 . S
H355 C363 0.930 . S
H356 C366 0.930 . S
H357 C367 0.930 . S
C358 H352 0.930 . S
C358 C359 1.355 1_554 S
C358 C360 1.415 . S
C359 C358 1.355 1_556 S
C359 C361 1.419 . S
C360 C358 1.415 . S
C360 C365 1.425 1_554 S
C360 C367 1.409 . S
C361 H353 0.930 . S
C361 C359 1.419 . S
C361 C362 1.362 . S
C362 H354 0.930 . S
C362 C361 1.362 . S
C362 C365 1.409 . S
C363 H355 0.930 . S
C363 C364 1.355 1_556 S
C363 C365 1.415 . S
C364 C363 1.355 1_554 S
C364 C366 1.419 . S
C365 C360 1.425 1_556 S
C365 C362 1.409 . S
C365 C363 1.415 . S
C366 H356 0.930 . S
C366 C364 1.419 . S
C366 C367 1.362 . S
C367 H357 0.930 . S
C367 C360 1.409 . S
C367 C366 1.362 . S
H368 C374 0.930 . S
H369 C377 0.930 . S
H370 C378 0.930 . S
H371 C379 0.930 . S
H372 C382 0.930 . S
H373 C383 0.930 . S
C374 H368 0.930 . S
C374 C375 1.355 . S
C374 C376 1.415 . S
C375 C374 1.355 . S
C375 C377 1.419 . S
C376 C374 1.415 . S
C376 C381 1.425 . S
C376 C383 1.409 . S
C377 H369 0.930 . S
C377 C375 1.419 . S
C377 C378 1.362 . S
C378 H370 0.930 . S
C378 C377 1.362 . S
C378 C381 1.409 . S
C379 H371 0.930 . S
C379 C380 1.355 . S
C379 C381 1.415 . S
C380 C379 1.355 . S
C380 C382 1.419 . S
C381 C376 1.425 . S
C381 C378 1.409 . S
C381 C379 1.415 . S
C382 H372 0.930 . S
C382 C380 1.419 . S
C382 C383 1.362 . S
C383 H373 0.930 . S
C383 C376 1.409 . S
C383 C382 1.362 . S
H384 C390 0.930 . S
H385 C393 0.930 . S
H386 C394 0.930 . S
H387 C395 0.930 . S
H388 C398 0.930 . S
H389 C399 0.930 . S
C390 H384 0.930 . S
C390 C391 1.355 . S
C390 C392 1.415 . S
C391 C390 1.355 . S
C391 C393 1.419 . S
C392 C390 1.415 . S
C392 C397 1.425 1_455 S
C392 C399 1.409 . S
C393 H385 0.930 . S
C393 C391 1.419 . S
C393 C394 1.362 1_455 S
C394 H386 0.930 . S
C394 C393 1.362 1_655 S
C394 C397 1.409 . S
C395 H387 0.930 . S
C395 C396 1.355 . S
C395 C397 1.415 . S
C396 C395 1.355 . S
C396 C398 1.419 . S
C397 C392 1.425 1_655 S
C397 C394 1.409 . S
C397 C395 1.415 . S
C398 H388 0.930 . S
C398 C396 1.419 . S
C398 C399 1.362 1_655 S
C399 H389 0.930 . S
C399 C392 1.409 . S
C399 C398 1.362 1_455 S
H400 C406 0.930 . S
H401 C409 0.930 . S
H402 C410 0.930 . S
H403 C411 0.930 . S
H404 C414 0.930 . S
H405 C415 0.930 . S
C406 H400 0.930 . S
C406 C407 1.355 . S
C406 C408 1.415 . S
C407 C406 1.355 . S
C407 C409 1.419 . S
C408 C406 1.415 . S
C408 C413 1.425 . S
C408 C415 1.409 . S
C409 H401 0.930 . S
C409 C407 1.419 . S
C409 C410 1.362 . S
C410 H402 0.930 . S
C410 C409 1.362 . S
C410 C413 1.409 . S
C411 H403 0.930 . S
C411 C412 1.355 . S
C411 C413 1.415 . S
C412 C411 1.355 . S
C412 C414 1.419 . S
C413 C408 1.425 . S
C413 C410 1.409 . S
C413 C411 1.415 . S
C414 H404 0.930 . S
C414 C412 1.419 . S
C414 C415 1.362 . S
C415 H405 0.930 . S
C415 C408 1.409 . S
C415 C414 1.362 . S
H416 C422 0.930 1_455 S
H417 C425 0.930 . S
H418 C426 0.930 . S
H419 C427 0.930 1_655 S
H420 C430 0.930 . S
H421 C431 0.930 . S
C422 H416 0.930 1_655 S
C422 C423 1.355 . S
C422 C424 1.415 1_655 S
C423 C422 1.355 . S
C423 C425 1.419 . S
C424 C422 1.415 1_455 S
C424 C429 1.425 1_455 S
C424 C431 1.409 . S
C425 H417 0.930 . S
C425 C423 1.419 . S
C425 C426 1.362 . S
C426 H418 0.930 . S
C426 C425 1.362 . S
C426 C429 1.409 . S
C427 H419 0.930 1_455 S
C427 C428 1.355 . S
C427 C429 1.415 1_455 S
C428 C427 1.355 . S
C428 C430 1.419 . S
C429 C424 1.425 1_655 S
C429 C426 1.409 . S
C429 C427 1.415 1_655 S
C430 H420 0.930 . S
C430 C428 1.419 . S
C430 C431 1.362 . S
C431 H421 0.930 . S
C431 C424 1.409 . S
C431 C430 1.362 . S
H432 C438 0.930 . S
H433 C441 0.930 . S
H434 C442 0.930 . S
H435 C443 0.930 . S
H436 C446 0.930 . S
H437 C447 0.930 . S
C438 H432 0.930 . S
C438 C439 1.355 . S
C438 C440 1.415 . S
C439 C438 1.355 . S
C439 C441 1.419 . S
C440 C438 1.415 . S
C440 C445 1.425 . S
C440 C447 1.409 . S
C441 H433 0.930 . S
C441 C439 1.419 . S
C441 C442 1.362 . S
C442 H434 0.930 . S
C442 C441 1.362 . S
C442 C445 1.409 . S
C443 H435 0.930 . S
C443 C444 1.355 . S
C443 C445 1.415 . S
C444 C443 1.355 . S
C444 C446 1.419 . S
C445 C440 1.425 . S
C445 C442 1.409 . S
C445 C443 1.415 . S
C446 H436 0.930 . S
C446 C444 1.419 . S
C446 C447 1.362 . S
C447 H437 0.930 . S
C447 C440 1.409 . S
C447 C446 1.362 . S
H448 C454 0.930 . S
H449 C457 0.930 1_455 S
H450 C458 0.931 1_554 S
H451 C459 0.930 . S
H452 C462 0.930 . S
H453 C463 0.930 . S
C454 H448 0.930 . S
C454 C455 1.355 . S
C454 C456 1.415 . S
C455 C454 1.355 . S
C455 C457 1.419 . S
C456 C454 1.415 . S
C456 C461 1.425 . S
C456 C463 1.409 . S
C457 H449 0.930 1_655 S
C457 C455 1.419 . S
C457 C458 1.361 . S
C458 H450 0.931 1_556 S
C458 C457 1.361 . S
C458 C461 1.409 . S
C459 H451 0.930 . S
C459 C460 1.355 . S
C459 C461 1.415 1_554 S
C460 C459 1.355 . S
C460 C462 1.419 1_554 S
C461 C456 1.425 . S
C461 C458 1.409 . S
C461 C459 1.415 1_556 S
C462 H452 0.930 . S
C462 C460 1.419 1_556 S
C462 C463 1.362 . S
C463 H453 0.930 . S
C463 C456 1.409 . S
C463 C462 1.362 . S
H464 C470 0.930 . S
H465 C473 0.930 . S
H466 C474 0.930 . S
H467 C475 0.930 . S
H468 C478 0.930 . S
H469 C479 0.930 . S
C470 H464 0.930 . S
C470 C471 1.355 . S
C470 C472 1.415 . S
C471 C470 1.355 . S
C471 C473 1.419 . S
C472 C470 1.415 . S
C472 C477 1.425 . S
C472 C479 1.409 . S
C473 H465 0.930 . S
C473 C471 1.419 . S
C473 C474 1.362 . S
C474 H466 0.930 . S
C474 C473 1.362 . S
C474 C477 1.409 . S
C475 H467 0.930 . S
C475 C476 1.355 . S
C475 C477 1.415 . S
C476 C475 1.355 . S
C476 C478 1.419 . S
C477 C472 1.425 . S
C477 C474 1.409 . S
C477 C475 1.415 . S
C478 H468 0.930 . S
C478 C476 1.419 . S
C478 C479 1.362 . S
C479 H469 0.930 . S
C479 C472 1.409 . S
C479 C478 1.362 . S
H480 C486 0.930 . S
H481 C489 0.930 . S
H482 C490 0.930 1_556 S
H483 C491 0.930 . S
H484 C494 0.930 . S
H485 C495 0.930 . S
C486 H480 0.930 . S
C486 C487 1.355 . S
C486 C488 1.415 . S
C487 C486 1.355 . S
C487 C489 1.419 . S
C488 C486 1.415 . S
C488 C493 1.425 . S
C488 C495 1.409 . S
C489 H481 0.930 . S
C489 C487 1.419 . S
C489 C490 1.362 . S
C490 H482 0.930 1_554 S
C490 C489 1.362 . S
C490 C493 1.409 . S
C491 H483 0.930 . S
C491 C492 1.355 . S
C491 C493 1.415 1_556 S
C492 C491 1.355 . S
C492 C494 1.419 . S
C493 C488 1.425 . S
C493 C490 1.409 . S
C493 C491 1.415 1_554 S
C494 H484 0.930 . S
C494 C492 1.419 . S
C494 C495 1.362 1_556 S
C495 H485 0.930 . S
C495 C488 1.409 . S
C495 C494 1.362 1_554 S
H496 C502 0.930 . S
H497 C505 0.930 . S
H498 C506 0.930 . S
H499 C507 0.930 . S
H500 C510 0.930 . S
H501 C511 0.930 . S
C502 H496 0.930 . S
C502 C503 1.355 . S
C502 C504 1.415 . S
C503 C502 1.355 . S
C503 C505 1.419 . S
C504 C502 1.415 . S
C504 C509 1.425 . S
C504 C511 1.409 . S
C505 H497 0.930 . S
C505 C503 1.419 . S
C505 C506 1.362 . S
C506 H498 0.930 . S
C506 C505 1.362 . S
C506 C509 1.409 . S
C507 H499 0.930 . S
C507 C508 1.355 . S
C507 C509 1.415 . S
C508 C507 1.355 . S
C508 C510 1.419 . S
C509 C504 1.425 . S
C509 C506 1.409 . S
C509 C507 1.415 . S
C510 H500 0.930 . S
C510 C508 1.419 . S
C510 C511 1.362 . S
C511 H501 0.930 . S
C511 C504 1.409 . S
C511 C510 1.362 . S
H512 C518 0.930 . S
H513 C521 0.930 1_655 S
H514 C522 0.919 1_556 S
H515 C523 0.930 . S
H516 C526 0.930 . S
H517 C527 0.930 . S
C518 H512 0.930 . S
C518 C519 1.355 . S
C518 C520 1.415 . S
C519 C518 1.355 . S
C519 C521 1.419 . S
C520 C518 1.415 . S
C520 C525 1.425 . S
C520 C527 1.409 . S
C521 H513 0.930 1_455 S
C521 C519 1.419 . S
C521 C522 1.372 . S
C522 H514 0.919 1_554 S
C522 C521 1.372 . S
C522 C525 1.410 . S
C523 H515 0.930 . S
C523 C524 1.355 . S
C523 C525 1.415 1_556 S
C524 C523 1.355 . S
C524 C526 1.419 1_556 S
C525 C520 1.425 . S
C525 C522 1.410 . S
C525 C523 1.415 1_554 S
C526 H516 0.930 . S
C526 C524 1.419 1_554 S
C526 C527 1.362 . S
C527 H517 0.930 . S
C527 C520 1.409 . S
C527 C526 1.362 . S
H528 C534 0.930 . S
H529 C537 0.930 . S
H530 C538 0.930 . S
H531 C539 0.930 . S
H532 C542 0.930 . S
H533 C543 0.930 . S
C534 H528 0.930 . S
C534 C535 1.355 . S
C534 C536 1.415 . S
C535 C534 1.355 . S
C535 C537 1.419 . S
C536 C534 1.415 . S
C536 C541 1.425 . S
C536 C543 1.409 . S
C537 H529 0.930 . S
C537 C535 1.419 . S
C537 C538 1.362 . S
C538 H530 0.930 . S
C538 C537 1.362 . S
C538 C541 1.409 . S
C539 H531 0.930 . S
C539 C540 1.355 . S
C539 C541 1.415 . S
C540 C539 1.355 . S
C540 C542 1.419 . S
C541 C536 1.425 . S
C541 C538 1.409 . S
C541 C539 1.415 . S
C542 H532 0.930 . S
C542 C540 1.419 . S
C542 C543 1.362 . S
C543 H533 0.930 . S
C543 C536 1.409 . S
C543 C542 1.362 . S
H544 C550 0.930 . S
H545 C553 0.930 . S
H546 C554 0.930 . S
H547 C555 0.930 . S
H548 C558 0.930 . S
H549 C559 0.921 1_554 S
C550 H544 0.930 . S
C550 C551 1.355 . S
C550 C552 1.415 1_554 S
C551 C550 1.355 . S
C551 C553 1.419 1_554 S
C552 C550 1.415 1_556 S
C552 C557 1.425 . S
C552 C559 1.410 . S
C553 H545 0.930 . S
C553 C551 1.419 1_556 S
C553 C554 1.362 . S
C554 H546 0.930 . S
C554 C553 1.362 . S
C554 C557 1.409 . S
C555 H547 0.930 . S
C555 C556 1.355 . S
C555 C557 1.415 . S
C556 C555 1.355 . S
C556 C558 1.419 . S
C557 C552 1.425 . S
C557 C554 1.409 . S
C557 C555 1.415 . S
C558 H548 0.930 . S
C558 C556 1.419 . S
C558 C559 1.371 . S
C559 H549 0.921 1_556 S
C559 C552 1.410 . S
C559 C558 1.371 . S
C183 C140 1.654 . S
C188 C5 1.521 . S
C199 C27 1.599 . S
C204 C162 1.651 . S
C215 C96 1.657 . S
C220 C49 1.525 . S
C231 C75 1.596 . S
C236 C114 1.660 . S
C247 C52 1.641 . S
C252 C94 1.542 . S
C263 C117 1.592 . S
C268 C70 1.648 . S
C279 C8 1.641 . S
C284 C138 1.541 . S
C295 C30 1.647 . S
C300 C160 1.518 . S
C311 C9 1.258 . S
C316 C95 1.258 . S
C327 C116 1.190 . S
C332 C31 1.190 . S
C343 C53 1.249 . S
C348 C139 1.249 . S
C359 C161 1.136 . S
C364 C71 1.136 . S
C375 C74 1.540 . S
C380 C4 1.508 . S
C391 C26 1.548 . S
C396 C48 1.500 . S
C407 C158 1.514 . S
C412 C92 1.534 . S
C423 C118 1.548 . S
C428 C136 1.501 . S
C439 C6 1.347 . S
C444 C51 1.492 . S
C455 C28 1.317 . S
C460 C72 1.433 . S
C471 C50 1.412 . S
C476 C7 1.426 . S
C487 C73 1.308 . S
C492 C29 1.470 . S
C503 C93 1.404 . S
C508 C141 1.480 . S
C519 C119 1.305 . S
C524 C163 1.453 . S
C535 C137 1.385 . S
C540 C97 1.414 . S
C551 C115 1.441 . S
C556 C159 1.311 . S
