# Generated by pormake.
# Topology smq, (6)-cn, num edge types: 1
# Building blocks:
#     Node 0, Type 0, BuildingBlock: MAKGUD_clean_sbu_1, # of connection points: 6
#     Node 1, Type 0, BuildingBlock: MAKGUD_clean_sbu_1, # of connection points: 6
#     Node 2, Type 0, BuildingBlock: MAKGUD_clean_sbu_1, # of connection points: 6
#     Node 3, Type 0, BuildingBlock: MAKGUD_clean_sbu_1, # of connection points: 6
#     Node 4, Type 0, BuildingBlock: MAKGUD_clean_sbu_1, # of connection points: 6
#     Node 5, Type 0, BuildingBlock: MAKGUD_clean_sbu_1, # of connection points: 6
#     Node 6, Type 0, BuildingBlock: MAKGUD_clean_sbu_1, # of connection points: 6
#     Node 7, Type 0, BuildingBlock: MAKGUD_clean_sbu_1, # of connection points: 6
#     Node 8, Type 0, BuildingBlock: MAKGUD_clean_sbu_1, # of connection points: 6
#     Node 9, Type 0, BuildingBlock: MAKGUD_clean_sbu_1, # of connection points: 6
#     Node 10, Type 0, BuildingBlock: MAKGUD_clean_sbu_1, # of connection points: 6
#     Node 11, Type 0, BuildingBlock: MAKGUD_clean_sbu_1, # of connection points: 6
#     Node 12, Type 0, BuildingBlock: MAKGUD_clean_sbu_1, # of connection points: 6
#     Node 13, Type 0, BuildingBlock: MAKGUD_clean_sbu_1, # of connection points: 6
#     Node 14, Type 0, BuildingBlock: MAKGUD_clean_sbu_1, # of connection points: 6
#     Node 15, Type 0, BuildingBlock: MAKGUD_clean_sbu_1, # of connection points: 6
#     Node 16, Type 0, BuildingBlock: MAKGUD_clean_sbu_1, # of connection points: 6
#     Node 17, Type 0, BuildingBlock: MAKGUD_clean_sbu_1, # of connection points: 6
#     Node 18, Type 0, BuildingBlock: MAKGUD_clean_sbu_1, # of connection points: 6
#     Node 19, Type 0, BuildingBlock: MAKGUD_clean_sbu_1, # of connection points: 6
#     Node 20, Type 0, BuildingBlock: MAKGUD_clean_sbu_1, # of connection points: 6
#     Node 21, Type 0, BuildingBlock: MAKGUD_clean_sbu_1, # of connection points: 6
#     Node 22, Type 0, BuildingBlock: MAKGUD_clean_sbu_1, # of connection points: 6
#     Node 23, Type 0, BuildingBlock: MAKGUD_clean_sbu_1, # of connection points: 6
#     Edge 24, Type (0, 0), BuildingBlock: AJUNOK_clean_linker_0, # of connection points: 2
#     Edge 25, Type (0, 0), BuildingBlock: AJUNOK_clean_linker_0, # of connection points: 2
#     Edge 26, Type (0, 0), BuildingBlock: AJUNOK_clean_linker_0, # of connection points: 2
#     Edge 27, Type (0, 0), BuildingBlock: AJUNOK_clean_linker_0, # of connection points: 2
#     Edge 28, Type (0, 0), BuildingBlock: AJUNOK_clean_linker_0, # of connection points: 2
#     Edge 29, Type (0, 0), BuildingBlock: AJUNOK_clean_linker_0, # of connection points: 2
#     Edge 30, Type (0, 0), BuildingBlock: AJUNOK_clean_linker_0, # of connection points: 2
#     Edge 31, Type (0, 0), BuildingBlock: AJUNOK_clean_linker_0, # of connection points: 2
#     Edge 32, Type (0, 0), BuildingBlock: AJUNOK_clean_linker_0, # of connection points: 2
#     Edge 33, Type (0, 0), BuildingBlock: AJUNOK_clean_linker_0, # of connection points: 2
#     Edge 34, Type (0, 0), BuildingBlock: AJUNOK_clean_linker_0, # of connection points: 2
#     Edge 35, Type (0, 0), BuildingBlock: AJUNOK_clean_linker_0, # of connection points: 2
#     Edge 36, Type (0, 0), BuildingBlock: AJUNOK_clean_linker_0, # of connection points: 2
#     Edge 37, Type (0, 0), BuildingBlock: AJUNOK_clean_linker_0, # of connection points: 2
#     Edge 38, Type (0, 0), BuildingBlock: AJUNOK_clean_linker_0, # of connection points: 2
#     Edge 39, Type (0, 0), BuildingBlock: AJUNOK_clean_linker_0, # of connection points: 2
#     Edge 40, Type (0, 0), BuildingBlock: AJUNOK_clean_linker_0, # of connection points: 2
#     Edge 41, Type (0, 0), BuildingBlock: AJUNOK_clean_linker_0, # of connection points: 2
#     Edge 42, Type (0, 0), BuildingBlock: AJUNOK_clean_linker_0, # of connection points: 2
#     Edge 43, Type (0, 0), BuildingBlock: AJUNOK_clean_linker_0, # of connection points: 2
#     Edge 44, Type (0, 0), BuildingBlock: AJUNOK_clean_linker_0, # of connection points: 2
#     Edge 45, Type (0, 0), BuildingBlock: AJUNOK_clean_linker_0, # of connection points: 2
#     Edge 46, Type (0, 0), BuildingBlock: AJUNOK_clean_linker_0, # of connection points: 2
#     Edge 47, Type (0, 0), BuildingBlock: AJUNOK_clean_linker_0, # of connection points: 2
#     Edge 48, Type (0, 0), BuildingBlock: AJUNOK_clean_linker_0, # of connection points: 2
#     Edge 49, Type (0, 0), BuildingBlock: AJUNOK_clean_linker_0, # of connection points: 2
#     Edge 50, Type (0, 0), BuildingBlock: AJUNOK_clean_linker_0, # of connection points: 2
#     Edge 51, Type (0, 0), BuildingBlock: AJUNOK_clean_linker_0, # of connection points: 2
#     Edge 52, Type (0, 0), BuildingBlock: AJUNOK_clean_linker_0, # of connection points: 2
#     Edge 53, Type (0, 0), BuildingBlock: AJUNOK_clean_linker_0, # of connection points: 2
#     Edge 54, Type (0, 0), BuildingBlock: AJUNOK_clean_linker_0, # of connection points: 2
#     Edge 55, Type (0, 0), BuildingBlock: AJUNOK_clean_linker_0, # of connection points: 2
#     Edge 56, Type (0, 0), BuildingBlock: AJUNOK_clean_linker_0, # of connection points: 2
#     Edge 57, Type (0, 0), BuildingBlock: AJUNOK_clean_linker_0, # of connection points: 2
#     Edge 58, Type (0, 0), BuildingBlock: AJUNOK_clean_linker_0, # of connection points: 2
#     Edge 59, Type (0, 0), BuildingBlock: AJUNOK_clean_linker_0, # of connection points: 2
#     Edge 60, Type (0, 0), BuildingBlock: AJUNOK_clean_linker_0, # of connection points: 2
#     Edge 61, Type (0, 0), BuildingBlock: AJUNOK_clean_linker_0, # of connection points: 2
#     Edge 62, Type (0, 0), BuildingBlock: AJUNOK_clean_linker_0, # of connection points: 2
#     Edge 63, Type (0, 0), BuildingBlock: AJUNOK_clean_linker_0, # of connection points: 2
#     Edge 64, Type (0, 0), BuildingBlock: AJUNOK_clean_linker_0, # of connection points: 2
#     Edge 65, Type (0, 0), BuildingBlock: AJUNOK_clean_linker_0, # of connection points: 2
#     Edge 66, Type (0, 0), BuildingBlock: AJUNOK_clean_linker_0, # of connection points: 2
#     Edge 67, Type (0, 0), BuildingBlock: AJUNOK_clean_linker_0, # of connection points: 2
#     Edge 68, Type (0, 0), BuildingBlock: AJUNOK_clean_linker_0, # of connection points: 2
#     Edge 69, Type (0, 0), BuildingBlock: AJUNOK_clean_linker_0, # of connection points: 2
#     Edge 70, Type (0, 0), BuildingBlock: AJUNOK_clean_linker_0, # of connection points: 2
#     Edge 71, Type (0, 0), BuildingBlock: AJUNOK_clean_linker_0, # of connection points: 2
#     Edge 72, Type (0, 0), BuildingBlock: AJUNOK_clean_linker_0, # of connection points: 2
#     Edge 73, Type (0, 0), BuildingBlock: AJUNOK_clean_linker_0, # of connection points: 2
#     Edge 74, Type (0, 0), BuildingBlock: AJUNOK_clean_linker_0, # of connection points: 2
#     Edge 75, Type (0, 0), BuildingBlock: AJUNOK_clean_linker_0, # of connection points: 2
#     Edge 76, Type (0, 0), BuildingBlock: AJUNOK_clean_linker_0, # of connection points: 2
#     Edge 77, Type (0, 0), BuildingBlock: AJUNOK_clean_linker_0, # of connection points: 2
#     Edge 78, Type (0, 0), BuildingBlock: AJUNOK_clean_linker_0, # of connection points: 2
#     Edge 79, Type (0, 0), BuildingBlock: AJUNOK_clean_linker_0, # of connection points: 2
#     Edge 80, Type (0, 0), BuildingBlock: AJUNOK_clean_linker_0, # of connection points: 2
#     Edge 81, Type (0, 0), BuildingBlock: AJUNOK_clean_linker_0, # of connection points: 2
#     Edge 82, Type (0, 0), BuildingBlock: AJUNOK_clean_linker_0, # of connection points: 2
#     Edge 83, Type (0, 0), BuildingBlock: AJUNOK_clean_linker_0, # of connection points: 2
#     Edge 84, Type (0, 0), BuildingBlock: AJUNOK_clean_linker_0, # of connection points: 2
#     Edge 85, Type (0, 0), BuildingBlock: AJUNOK_clean_linker_0, # of connection points: 2
#     Edge 86, Type (0, 0), BuildingBlock: AJUNOK_clean_linker_0, # of connection points: 2
#     Edge 87, Type (0, 0), BuildingBlock: AJUNOK_clean_linker_0, # of connection points: 2
#     Edge 88, Type (0, 0), BuildingBlock: AJUNOK_clean_linker_0, # of connection points: 2
#     Edge 89, Type (0, 0), BuildingBlock: AJUNOK_clean_linker_0, # of connection points: 2
#     Edge 90, Type (0, 0), BuildingBlock: AJUNOK_clean_linker_0, # of connection points: 2
#     Edge 91, Type (0, 0), BuildingBlock: AJUNOK_clean_linker_0, # of connection points: 2
#     Edge 92, Type (0, 0), BuildingBlock: AJUNOK_clean_linker_0, # of connection points: 2
#     Edge 93, Type (0, 0), BuildingBlock: AJUNOK_clean_linker_0, # of connection points: 2
#     Edge 94, Type (0, 0), BuildingBlock: AJUNOK_clean_linker_0, # of connection points: 2
#     Edge 95, Type (0, 0), BuildingBlock: AJUNOK_clean_linker_0, # of connection points: 2
# Relax obj value: 0.278
# Max RMSD: 0.220
# Mean RMSD: 0.220
data_MOF--net-smq--node1-MAKGUD_clean_sbu_1--edge1-AJUNOK_clean_linker_0
_symmetry_space_group_name_H-M    P1
_symmetry_Int_Tables_number       1
_symmetry_cell_setting            triclinic
loop_
_symmetry_equiv_pos_as_xyz
'x, y, z'
_cell_length_a     34.682185
_cell_length_b     34.725954
_cell_length_c     34.716231
_cell_angle_alpha  89.981844
_cell_angle_beta   90.070975
_cell_angle_gamma 89.994574
loop_
_atom_site_label
_atom_site_type_symbol
_atom_site_fract_x
_atom_site_fract_y
_atom_site_fract_z
_atom_type_partial_charge
O0 O 1.0398 0.35615 0.27714 0.0
Tb1 Tb 1.06252 0.359 0.33456 0.0
C2 C 1.04597 0.33722 0.41843 0.0
O3 O 0.11849 0.30083 0.30773 0.0
Tb4 Tb 0.11074 0.29184 0.37031 0.0
C5 C 0.16737 0.32031 0.41098 0.0
O6 O 0.12024 0.36489 0.31282 0.0
O7 O 0.13978 0.23601 0.36112 0.0
C8 C 0.17422 0.23826 0.34439 0.0
O9 O 0.18679 0.2724 0.33411 0.0
O10 O 1.05328 0.36717 0.39596 0.0
O11 O 1.05957 0.30235 0.4087 0.0
O12 O 1.03476 0.30358 0.33931 0.0
C13 C 0.13147 0.33402 0.29465 0.0
C14 C 1.01858 0.3868 0.27924 0.0
O15 O 0.14845 0.33982 0.38494 0.0
O16 O 0.15366 0.28577 0.41448 0.0
C17 C 0.99827 0.30572 0.34949 0.0
O18 O 0.9821 0.3399 0.35084 0.0
O19 O 1.02198 0.4026 0.31337 0.0
O20 O 0.33925 0.53915 0.78108 0.0
Tb21 Tb 0.33507 0.55997 0.83906 0.0
C22 C 0.35845 0.54023 0.92203 0.0
O23 O 0.3925 0.61378 0.811 0.0
Tb24 Tb 0.40361 0.60447 0.87312 0.0
C25 C 0.37804 0.66165 0.91473 0.0
O26 O 0.32902 0.61819 0.81945 0.0
O27 O 0.46073 0.63027 0.86306 0.0
C28 C 0.46003 0.66455 0.84602 0.0
O29 O 0.42646 0.67878 0.83587 0.0
O30 O 0.32806 0.54754 0.90005 0.0
O31 O 0.39321 0.55376 0.91194 0.0
O32 O 0.39108 0.53314 0.84201 0.0
C33 C 0.35925 0.62829 0.79965 0.0
C34 C 0.30794 0.51879 0.78151 0.0
O35 O 0.35673 0.64238 0.89047 0.0
O36 O 0.41274 0.64797 0.91614 0.0
C37 C 0.39007 0.49604 0.84949 0.0
O38 O 0.35648 0.47865 0.84873 0.0
O39 O 0.29112 0.52145 0.81524 0.0
O40 O 0.14945 0.86941 0.28357 0.0
Tb41 Tb 0.1295 0.84327 0.33619 0.0
C42 C 0.15235 0.85211 0.42062 0.0
O43 O 1.06207 0.88434 0.31936 0.0
Tb44 Tb 1.07687 0.89217 0.38123 0.0
C45 C 1.0216 0.86277 0.42233 0.0
O46 O 1.07471 0.82168 0.31777 0.0
O47 O 1.05148 0.94971 0.37344 0.0
C48 C 1.01619 0.94991 0.35851 0.0
O49 O 1.00002 0.9168 0.35001 0.0
O50 O 0.15269 0.82717 0.39204 0.0
O51 O 0.12982 0.88337 0.41853 0.0
O52 O 0.13266 0.9046 0.34708 0.0
C53 C 1.05464 0.85029 0.30433 0.0
C54 C 0.17412 0.84281 0.27518 0.0
O55 O 1.0405 0.84359 0.39612 0.0
O56 O 1.03475 0.89752 0.42596 0.0
C57 C 0.16745 0.91715 0.3538 0.0
O58 O 0.19632 0.89299 0.35053 0.0
O59 O 0.17411 0.81578 0.3014 0.0
O60 O 0.85835 0.64657 0.78589 0.0
Tb61 Tb 0.86141 0.6255 0.84383 0.0
C62 C 0.83458 0.64301 0.9261 0.0
O63 O 0.80636 0.5716 0.81145 0.0
Tb64 Tb 0.79184 0.57939 0.87323 0.0
C65 C 0.81667 0.52039 0.9133 0.0
O66 O 0.86924 0.56734 0.82425 0.0
O67 O 0.73476 0.55425 0.86145 0.0
C68 C 0.73491 0.52135 0.84191 0.0
O69 O 0.76801 0.50823 0.82916 0.0
O70 O 0.86602 0.63691 0.90532 0.0
O71 O 0.80058 0.62883 0.91422 0.0
O72 O 0.80503 0.65173 0.84519 0.0
C73 C 0.84018 0.55658 0.80298 0.0
C74 C 0.88819 0.66896 0.78774 0.0
O75 O 0.83817 0.54068 0.89021 0.0
O76 O 0.78198 0.53411 0.91457 0.0
C77 C 0.8059 0.68856 0.85397 0.0
O78 O 0.83955 0.70578 0.85547 0.0
O79 O 0.90415 0.66654 0.82197 0.0
O80 O 1.04384 0.8379 0.91173 0.0
Tb81 Tb 1.06556 0.82954 0.85439 0.0
C82 C 1.04596 0.84776 0.77018 0.0
O83 O 0.12206 0.88544 0.87919 0.0
Tb84 Tb 0.11224 0.89415 0.8166 0.0
C85 C 0.16998 0.86723 0.77644 0.0
O86 O 0.12392 0.82172 0.87365 0.0
O87 O 0.13875 0.9514 0.82458 0.0
C88 C 0.17311 0.95122 0.8417 0.0
O89 O 0.187 0.91809 0.85352 0.0
O90 O 1.05226 0.81873 0.79412 0.0
O91 O 1.06108 0.88252 0.77798 0.0
O92 O 1.04059 0.88614 0.84803 0.0
C93 C 0.13598 0.85236 0.89163 0.0
C94 C 1.02267 0.80715 0.9128 0.0
O95 O 0.1506 0.84683 0.80137 0.0
O96 O 0.15586 0.90161 0.77334 0.0
C97 C 1.0035 0.88562 0.84006 0.0
O98 O 0.98547 0.85241 0.84148 0.0
O99 O 1.02571 0.78813 0.8803 0.0
O100 O 0.85774 0.53553 0.40756 0.0
Tb101 Tb 0.86027 0.55854 0.35036 0.0
C102 C 0.83403 0.54137 0.26736 0.0
O103 O 0.80039 0.60964 0.38182 0.0
Tb104 Tb 0.7897 0.6044 0.3192 0.0
C105 C 0.81535 0.6641 0.28109 0.0
O106 O 0.8639 0.61585 0.37397 0.0
O107 O 0.73244 0.63012 0.32906 0.0
C108 C 0.73255 0.66322 0.34831 0.0
O109 O 0.76561 0.67599 0.36159 0.0
O110 O 0.8652 0.54845 0.28843 0.0
O111 O 0.79965 0.55497 0.27871 0.0
O112 O 0.80517 0.53006 0.34754 0.0
C113 C 0.83326 0.62422 0.39418 0.0
C114 C 0.88898 0.51522 0.40561 0.0
O115 O 0.83657 0.64344 0.30429 0.0
O116 O 0.78084 0.65018 0.27846 0.0
C117 C 0.8068 0.49359 0.33741 0.0
O118 O 0.84085 0.47719 0.3349 0.0
O119 O 0.90479 0.51884 0.37147 0.0
O120 O 0.15377 0.35009 0.90981 0.0
Tb121 Tb 0.13007 0.35617 0.85299 0.0
C122 C 0.14693 0.33509 0.76869 0.0
O123 O 1.07509 0.29965 0.88114 0.0
Tb124 Tb 1.0831 0.29019 0.81848 0.0
C125 C 1.02598 0.31955 0.77892 0.0
O126 O 1.07255 0.36342 0.87493 0.0
O127 O 1.0566 0.23304 0.82618 0.0
C128 C 1.02306 0.2328 0.84468 0.0
O129 O 1.0098 0.26555 0.85811 0.0
O130 O 0.14083 0.36486 0.79178 0.0
O131 O 0.13298 0.30037 0.77832 0.0
O132 O 0.15529 0.29958 0.8481 0.0
C133 C 1.06148 0.33282 0.89368 0.0
C134 C 0.17522 0.38063 0.90895 0.0
O135 O 1.04703 0.33919 0.80308 0.0
O136 O 1.03754 0.28417 0.77689 0.0
C137 C 0.19201 0.30027 0.83874 0.0
O138 O 0.20972 0.33367 0.83822 0.0
O139 O 0.17118 0.39838 0.87583 0.0
O140 O 0.33476 0.64949 0.40911 0.0
Tb141 Tb 0.33278 0.62723 0.35151 0.0
C142 C 0.35698 0.64574 0.26864 0.0
O143 O 0.39167 0.57335 0.37973 0.0
Tb144 Tb 0.40178 0.58076 0.31715 0.0
C145 C 0.37511 0.52289 0.27659 0.0
O146 O 0.32796 0.56923 0.37255 0.0
O147 O 0.45885 0.55459 0.32678 0.0
C148 C 0.45841 0.52086 0.34487 0.0
O149 O 0.42512 0.5074 0.35675 0.0
O150 O 0.32646 0.63743 0.29001 0.0
O151 O 0.39168 0.63195 0.27878 0.0
O152 O 0.38765 0.65624 0.34807 0.0
C153 C 0.35858 0.55922 0.39195 0.0
C154 C 0.30384 0.67034 0.40677 0.0
O155 O 0.3548 0.54193 0.30185 0.0
O156 O 0.40949 0.5372 0.27373 0.0
C157 C 0.38507 0.6927 0.33791 0.0
O158 O 0.35067 0.70842 0.33631 0.0
O159 O 0.28823 0.66667 0.37253 0.0
O160 O 0.2809 1.04994 0.33387 0.0
Tb161 Tb 0.33813 1.06304 0.35248 0.0
C162 C 0.42175 1.03809 0.33732 0.0
O163 O 0.31793 0.12093 0.2974 0.0
Tb164 Tb 0.37968 0.10649 0.28955 0.0
C165 C 0.42257 0.16254 0.31578 0.0
O166 O 0.32448 0.12272 0.3608 0.0
O167 O 0.37218 0.13076 0.23149 0.0
C168 C 0.35879 0.16661 0.23099 0.0
O169 O 0.35102 0.18336 0.26397 0.0
O170 O 0.39642 1.0435 0.36544 0.0
O171 O 0.41596 1.05433 0.3027 0.0
O172 O 0.34557 1.03702 0.29641 0.0
C173 C 0.30635 0.13534 0.3305 0.0
C174 C 0.26997 1.03346 0.36552 0.0
O175 O 0.39607 0.14522 0.33597 0.0
O176 O 0.42566 0.14738 0.28183 0.0
C177 C 0.35089 0.9995 0.29673 0.0
O178 O 0.34666 0.98108 0.32954 0.0
O179 O 0.29868 1.03158 0.39031 0.0
O180 O 0.65314 0.77947 0.85149 0.0
Tb181 Tb 0.63077 0.83671 0.85736 0.0
C182 C 0.64916 0.91989 0.83339 0.0
O183 O 0.57707 0.80737 0.79959 0.0
Tb184 Tb 0.58455 0.86976 0.78912 0.0
C185 C 0.52581 0.90935 0.81461 0.0
O186 O 0.57305 0.81507 0.8632 0.0
O187 O 0.55887 0.85932 0.73204 0.0
C188 C 0.52492 0.84159 0.73273 0.0
O189 O 0.51098 0.83114 0.76627 0.0
O190 O 0.64287 0.89801 0.86407 0.0
O191 O 0.63461 0.90957 0.79909 0.0
O192 O 0.65747 0.84054 0.80143 0.0
C193 C 0.56322 0.79531 0.8328 0.0
C194 C 0.67358 0.77955 0.88275 0.0
O195 O 0.54577 0.88553 0.83582 0.0
O196 O 0.53986 0.91168 0.78015 0.0
C197 C 0.69451 0.8485 0.8027 0.0
O198 O 0.71183 0.84742 0.83632 0.0
O199 O 0.67008 0.81271 0.90057 0.0
O200 O 0.90813 0.15116 0.35484 0.0
Tb201 Tb 0.85094 0.12859 0.36178 0.0
C202 C 0.76676 0.14357 0.34003 0.0
O203 O 0.87828 1.06991 0.30687 0.0
Tb204 Tb 0.81589 1.07768 0.29627 0.0
C205 C 0.77681 1.01914 0.32304 0.0
O206 O 0.87178 1.07109 0.3708 0.0
O207 O 0.82513 1.05145 0.23914 0.0
C208 C 0.84298 1.01755 0.23943 0.0
O209 O 0.85497 1.00399 0.27265 0.0
O210 O 0.78965 0.13872 0.37021 0.0
O211 O 0.77632 0.12803 0.30596 0.0
O212 O 0.84522 0.15348 0.30514 0.0
C213 C 0.89055 1.05835 0.34091 0.0
C214 C 0.90743 0.17386 0.38448 0.0
O215 O 0.80082 1.03942 0.34372 0.0
O216 O 0.7739 1.03286 0.28849 0.0
C217 C 0.83489 0.18993 0.3059 0.0
O218 O 0.83361 0.20744 0.33941 0.0
O219 O 0.87429 0.17081 0.40244 0.0
O220 O 0.54153 0.40681 0.8547 0.0
Tb221 Tb 0.56384 0.34927 0.85722 0.0
C222 C 0.54738 0.26569 0.83393 0.0
O223 O 0.61864 0.3771 0.79864 0.0
Tb224 Tb 0.61179 0.31451 0.78921 0.0
C225 C 0.66859 0.27402 0.81773 0.0
O226 O 0.62147 0.37122 0.86262 0.0
O227 O 0.64071 0.32422 0.73351 0.0
C228 C 0.67496 0.34128 0.73606 0.0
O229 O 0.68713 0.35163 0.77035 0.0
O230 O 0.5548 0.28768 0.86423 0.0
O231 O 0.56075 0.27596 0.79916 0.0
O232 O 0.53614 0.34551 0.80176 0.0
C233 C 0.63181 0.39005 0.83182 0.0
C234 C 0.52014 0.40458 0.88519 0.0
O235 O 0.64948 0.29986 0.83726 0.0
O236 O 0.65498 0.27064 0.78312 0.0
C237 C 0.49975 0.33501 0.80368 0.0
O238 O 0.48363 0.33238 0.8378 0.0
O239 O 0.52317 0.37029 0.90075 0.0
O240 O 0.28457 0.14803 0.83758 0.0
Tb241 Tb 0.34202 0.1266 0.82959 0.0
C242 C 0.42573 0.14568 0.85081 0.0
O243 O 0.31575 1.06987 0.88569 0.0
Tb244 Tb 0.37834 1.07901 0.8942 0.0
C245 C 0.41896 1.02227 0.86596 0.0
O246 O 0.32122 1.06878 0.82178 0.0
O247 O 0.37093 1.05181 0.95084 0.0
C248 C 0.3546 1.01726 0.9497 0.0
O249 O 0.34336 1.00387 0.91616 0.0
O250 O 0.40283 0.14008 0.82073 0.0
O251 O 0.41665 0.13009 0.88489 0.0
O252 O 0.34709 0.15165 0.88632 0.0
C253 C 0.30284 1.05705 0.85235 0.0
C254 C 0.28353 0.16915 0.80682 0.0
O255 O 0.39302 1.04121 0.84634 0.0
O256 O 0.42252 1.03615 0.90041 0.0
C257 C 0.35449 0.1888 0.8859 0.0
O258 O 0.35279 0.20684 0.85272 0.0
O259 O 0.31626 0.1665 0.78807 0.0
O260 O 0.65302 0.91242 0.40959 0.0
Tb261 Tb 0.60895 0.86954 0.40212 0.0
C262 C 0.62878 0.7944 0.35846 0.0
O263 O 0.5522 0.89856 0.32658 0.0
Tb264 Tb 0.56141 0.83669 0.33202 0.0
C265 C 0.5169 0.7821 0.30399 0.0
O266 O 0.55833 0.90865 0.39202 0.0
O267 O 0.53266 0.84016 0.38688 0.0
C268 C 0.49623 0.85059 0.38449 0.0
O269 O 0.48037 0.85268 0.35019 0.0
O270 O 0.6156 0.8071 0.39173 0.0
O271 O 0.61884 0.81365 0.3277 0.0
O272 O 0.63537 0.8593 0.45905 0.0
C273 C 0.54474 0.91968 0.35752 0.0
C274 C 0.66705 0.90928 0.37516 0.0
O275 O 0.52136 0.81592 0.28769 0.0
O276 O 0.53768 0.77985 0.33496 0.0
C277 C 0.66935 0.84155 0.45839 0.0
O278 O 0.68311 0.83076 0.42488 0.0
O279 O 0.64762 0.88419 0.35497 0.0
O280 O 0.912 1.03684 0.8342 0.0
Tb281 Tb 0.8541 1.05822 0.82951 0.0
C282 C 0.76994 1.04102 0.85096 0.0
O283 O 0.88058 0.11409 0.88711 0.0
Tb284 Tb 0.8181 0.10586 0.89691 0.0
C285 C 0.77817 0.16408 0.87067 0.0
O286 O 0.8747 0.11617 0.82311 0.0
O287 O 0.82733 0.13227 0.95403 0.0
C288 C 0.84474 0.16642 0.9536 0.0
O289 O 0.8561 0.18016 0.92027 0.0
O290 O 0.79282 1.04766 0.82114 0.0
O291 O 0.77926 1.05511 0.88575 0.0
O292 O 0.84956 1.0322 0.88566 0.0
C293 C 0.89318 0.1274 0.85384 0.0
C294 C 0.91103 1.01498 0.80397 0.0
O295 O 0.80292 0.14473 0.85001 0.0
O296 O 0.7751 0.14965 0.90493 0.0
C297 C 0.83978 0.99564 0.8846 0.0
O298 O 0.83821 0.97842 0.85095 0.0
O299 O 0.87713 1.01723 0.78734 0.0
O300 O 0.65421 0.40653 0.33495 0.0
Tb301 Tb 0.63104 0.34929 0.33373 0.0
C302 C 0.64753 0.26583 0.35696 0.0
O303 O 0.57604 0.37828 0.39114 0.0
Tb304 Tb 0.58378 0.3158 0.40121 0.0
C305 C 0.52736 0.27584 0.37127 0.0
O306 O 0.57372 0.37169 0.32719 0.0
O307 O 0.5558 0.32444 0.45755 0.0
C308 C 0.52179 0.34209 0.45633 0.0
O309 O 0.5089 0.35378 0.42274 0.0
O310 O 0.64039 0.28781 0.32661 0.0
O311 O 0.63423 0.27635 0.39166 0.0
O312 O 0.65709 0.34592 0.39009 0.0
C313 C 0.56307 0.39084 0.35768 0.0
C314 C 0.67544 0.40337 0.30445 0.0
O315 O 0.54777 0.30083 0.35205 0.0
O316 O 0.53927 0.27313 0.40655 0.0
C317 C 0.6939 0.33691 0.38938 0.0
O318 O 0.71135 0.33639 0.35588 0.0
O319 O 0.67201 0.36878 0.28977 0.0
O320 O 0.36101 0.27939 1.0376 0.0
Tb321 Tb 0.36553 0.33697 1.05965 0.0
C322 C 0.34216 0.42068 1.04388 0.0
O323 O 0.3086 0.30883 0.11547 0.0
Tb324 Tb 0.29826 0.3713 0.10914 0.0
C325 C 0.32427 0.41037 0.1683 0.0
O326 O 0.37246 0.31572 0.11744 0.0
O327 O 0.24055 0.36202 0.13394 0.0
C328 C 0.23976 0.34289 0.16709 0.0
O329 O 0.27238 0.32934 0.18071 0.0
O330 O 0.37272 0.39843 1.0495 0.0
O331 O 0.30797 0.41064 1.05883 0.0
O332 O 0.30908 0.34126 1.03393 0.0
C333 C 0.34209 0.29646 0.12841 0.0
C334 C 0.39109 0.28076 1.01555 0.0
O335 O 0.34537 0.38686 0.14789 0.0
O336 O 0.28965 0.41257 0.1545 0.0
C337 C 0.30971 0.35166 0.9975 0.0
O338 O 0.34324 0.35383 0.98006 0.0
O339 O 0.40756 0.31467 1.01808 0.0
O340 O 0.36842 0.91033 0.14266 0.0
Tb341 Tb 0.36957 0.85082 0.12497 0.0
C342 C 0.34255 0.77035 0.15079 0.0
O343 O 0.31253 0.8756 1.06774 0.0
Tb344 Tb 0.30042 0.81471 1.08134 0.0
C345 C 0.32769 0.76937 1.02781 0.0
O346 O 0.37684 0.86848 1.06612 0.0
O347 O 0.24331 0.82414 1.05514 0.0
C348 C 0.2437 0.83713 1.01914 0.0
O349 O 0.27716 0.84399 1.0029 0.0
O350 O 0.3739 0.79059 0.14271 0.0
O351 O 0.30864 0.78066 0.13556 0.0
O352 O 0.31063 0.85427 0.14366 0.0
C353 C 0.34614 0.8867 1.05387 0.0
C354 C 0.39591 0.90858 0.16781 0.0
O355 O 0.34788 0.79592 1.0451 0.0
O356 O 0.29294 0.76792 1.04142 0.0
C357 C 0.3063 0.85762 0.18088 0.0
O358 O 0.3368 0.85781 0.20327 0.0
O359 O 0.40983 0.87351 0.16842 0.0
O360 O 0.78315 0.85283 0.65409 0.0
Tb361 Tb 0.84083 0.85285 0.6321 0.0
C362 C 0.92364 0.82716 0.65046 0.0
O363 O 0.80986 0.79288 0.57901 0.0
Tb364 Tb 0.87209 0.78162 0.58794 0.0
C365 C 0.9117 0.80817 0.52997 0.0
O366 O 0.81839 0.8566 0.57441 0.0
O367 O 0.86298 0.72431 0.56197 0.0
C368 C 0.84647 0.72444 0.52736 0.0
O369 O 0.83577 0.75761 0.51274 0.0
O370 O 0.90271 0.8581 0.64233 0.0
O371 O 0.91202 0.79246 0.63789 0.0
O372 O 0.84269 0.7982 0.66142 0.0
C373 C 0.79828 0.82625 0.5649 0.0
C374 C 0.78603 0.88415 0.67412 0.0
O375 O 0.88755 0.82885 0.5499 0.0
O376 O 0.91447 0.7736 0.54364 0.0
C377 C 0.85282 0.80064 0.69787 0.0
O378 O 0.85511 0.83498 0.71355 0.0
O379 O 0.82083 0.89854 0.67085 0.0
O380 O 0.83696 0.27942 0.15214 0.0
Tb381 Tb 0.83047 0.33617 0.12853 0.0
C382 C 0.85091 0.42046 0.1461 0.0
O383 O 0.88829 0.3095 1.07234 0.0
Tb384 Tb 0.89657 0.37213 1.08126 0.0
C385 C 0.86847 0.41021 1.02262 0.0
O386 O 0.8241 0.31414 1.07097 0.0
O387 O 0.95461 0.36435 1.05656 0.0
C388 C 0.95561 0.34748 1.0222 0.0
O389 O 0.92294 0.33619 1.00678 0.0
O390 O 0.82127 0.39722 0.13971 0.0
O391 O 0.88562 0.41159 0.13155 0.0
O392 O 0.88675 0.34186 0.15433 0.0
C393 C 0.85505 0.29612 1.05956 0.0
C394 C 0.8059 0.27982 0.17286 0.0
O395 O 0.84841 0.38609 1.04328 0.0
O396 O 0.90315 0.41381 1.03599 0.0
C397 C 0.88625 0.35155 0.19096 0.0
O398 O 0.85286 0.3523 0.20881 0.0
O399 O 0.78784 0.31274 0.1687 0.0
O400 O 0.27336 0.40706 0.53631 0.0
Tb401 Tb 0.31539 0.39824 0.58102 0.0
C402 C 0.39008 0.3545 0.55942 0.0
O403 O 0.28837 0.32341 0.64017 0.0
Tb404 Tb 0.34956 0.3314 0.62821 0.0
C405 C 0.40648 0.30728 0.67224 0.0
O406 O 0.27553 0.38794 0.63106 0.0
O407 O 0.34524 0.38805 0.65333 0.0
C408 C 0.33622 0.38748 0.6901 0.0
O409 O 0.33587 0.35414 0.70792 0.0
O410 O 0.37782 0.38796 0.57255 0.0
O411 O 0.37096 0.32415 0.57057 0.0
O412 O 0.32534 0.45592 0.55654 0.0
C413 C 0.26579 0.35365 0.64599 0.0
C414 C 0.27603 0.37273 0.52202 0.0
O415 O 0.3734 0.28926 0.6688 0.0
O416 O 0.40671 0.33793 0.65095 0.0
C417 C 0.34269 0.45635 0.52243 0.0
O418 O 0.35324 0.42339 0.50727 0.0
O419 O 0.30004 0.35166 0.5419 0.0
O420 O 0.8389 0.90579 1.03989 0.0
Tb421 Tb 0.83116 0.84899 1.06306 0.0
C422 C 0.85016 0.76441 1.04631 0.0
O423 O 0.88632 0.87481 0.12082 0.0
Tb424 Tb 0.89458 0.81215 0.11208 0.0
C425 C 0.86657 0.77193 0.16918 0.0
O426 O 0.8222 0.87072 0.12034 0.0
O427 O 0.95095 0.82059 0.13994 0.0
C428 C 0.94912 0.8369 0.1745 0.0
O429 O 0.91513 0.84716 0.18756 0.0
O430 O 0.82082 0.78824 1.05152 0.0
O431 O 0.88465 0.77309 1.06142 0.0
O432 O 0.88873 0.84328 1.04006 0.0
C433 C 0.85292 0.8883 0.13294 0.0
C434 C 0.80895 0.90552 1.01755 0.0
O435 O 0.8469 0.79792 0.15034 0.0
O436 O 0.9009 0.76814 0.15502 0.0
C437 C 0.88931 0.83394 1.00337 0.0
O438 O 0.85648 0.83313 0.98453 0.0
O439 O 0.79055 0.8727 1.02085 0.0
O440 O 0.78442 0.33343 0.54053 0.0
Tb441 Tb 0.84291 0.3313 0.56075 0.0
C442 C 0.92529 0.35555 0.53954 0.0
O443 O 0.81802 0.38915 0.6191 0.0
Tb444 Tb 0.87963 0.39961 0.60695 0.0
C445 C 0.92513 0.37234 0.66048 0.0
O446 O 0.82395 0.32497 0.61936 0.0
O447 O 0.86808 0.45502 0.6373 0.0
C448 C 0.8685 0.45031 0.67532 0.0
O449 O 0.86736 0.45789 0.63835 0.0
O450 O 0.90398 0.32481 0.54725 0.0
O451 O 0.9151 0.38994 0.55383 0.0
O452 O 0.84481 0.3875 0.53438 0.0
C453 C 0.80588 0.3555 0.63178 0.0
C454 C 0.78592 0.30277 0.51932 0.0
O455 O 0.89629 0.35319 0.64569 0.0
O456 O 0.92908 0.40554 0.64392 0.0
C457 C 0.8517 0.38659 0.49716 0.0
O458 O 0.85047 0.35308 0.47974 0.0
O459 O 0.82042 0.28744 0.52124 0.0
O460 O 0.27487 0.77987 0.65142 0.0
Tb461 Tb 0.31845 0.78664 0.60795 0.0
C462 C 0.39402 0.82903 0.6293 0.0
O463 O 0.29257 0.8617 0.55097 0.0
Tb464 Tb 0.35384 0.8541 0.56112 0.0
C465 C 0.40846 0.88364 0.51749 0.0
O466 O 0.27982 0.79683 0.55702 0.0
O467 O 0.34958 0.79838 0.53378 0.0
C468 C 0.34384 0.79991 0.49634 0.0
O469 O 0.34875 0.83302 0.47884 0.0
O470 O 0.38114 0.79588 0.61597 0.0
O471 O 0.37519 0.85977 0.61883 0.0
O472 O 0.32776 0.72989 0.63447 0.0
C473 C 0.27051 0.83158 0.54312 0.0
C474 C 0.27823 0.81433 0.66532 0.0
O475 O 0.37408 0.89879 0.52143 0.0
O476 O 0.41128 0.85277 0.53831 0.0
C477 C 0.3451 0.73089 0.66859 0.0
O478 O 0.35565 0.76449 0.68233 0.0
O479 O 0.30382 0.83413 0.64618 0.0
C480 C 0.17336 0.30343 0.24401 0.0
C481 C 0.15487 0.3365 0.25842 0.0
C482 C 0.19857 0.30544 0.21238 0.0
C483 C 0.20548 0.34027 0.19274 0.0
H484 H 0.16967 0.27593 0.25821 0.0
H485 H 0.21404 0.27966 0.20415 0.0
S486 S 0.16113 0.43454 0.2157 0.0
N487 N 0.14322 0.40498 0.2484 0.0
N488 N 0.1898 0.40816 0.18838 0.0
C489 C 0.18537 0.37309 0.20513 0.0
C490 C 0.16029 0.37134 0.23803 0.0
C491 C 0.38803 0.66736 0.7458 0.0
C492 C 0.3554 0.65011 0.76262 0.0
C493 C 0.38478 0.69098 0.71302 0.0
C494 C 0.34903 0.69736 0.6948 0.0
H495 H 0.41614 0.66407 0.75898 0.0
H496 H 0.4103 0.7058 0.70281 0.0
S497 S 0.25521 0.6563 0.72475 0.0
N498 N 0.28622 0.63927 0.75666 0.0
N499 N 0.28067 0.68302 0.69472 0.0
C500 C 0.31655 0.67855 0.7098 0.0
C501 C 0.31961 0.6551 0.74373 0.0
C502 C 0.98528 0.87546 0.22278 0.0
C503 C 0.98223 0.84115 0.20137 0.0
C504 C 1.00935 0.87821 0.25522 0.0
C505 C 1.03095 0.84649 0.26839 0.0
H506 H 0.96769 0.90013 0.21521 0.0
H507 H 1.01002 0.90524 0.27076 0.0
S508 S 1.03387 0.75005 0.22186 0.0
N509 N 1.00362 0.77503 0.19484 0.0
N510 N 1.04868 0.77971 0.25603 0.0
C511 C 1.02904 0.81219 0.24651 0.0
C512 C 1.0048 0.80966 0.21298 0.0
C513 C 0.83186 0.53824 0.73248 0.0
C514 C 0.8463 0.53009 0.76972 0.0
C515 C 0.83979 0.5137 0.70076 0.0
C516 C 0.86163 0.4798 0.70571 0.0
H517 H 0.81493 0.56402 0.72774 0.0
H518 H 0.82814 0.52082 0.6727 0.0
S519 S 0.90387 0.44456 0.7975 0.0
N520 N 0.88286 0.48557 0.80924 0.0
N521 N 0.8959 0.43892 0.75095 0.0
C522 C 0.87532 0.47128 0.74291 0.0
C523 C 0.86822 0.49652 0.77457 0.0
C524 C 0.17317 0.81239 0.93987 0.0
C525 C 0.15957 0.84883 0.92783 0.0
C526 C 0.19751 0.80823 0.97218 0.0
C527 C 0.209 0.84021 0.9942 0.0
H528 H 0.16614 0.78686 0.9234 0.0
H529 H 0.2092 0.78001 0.97865 0.0
S530 S 0.17972 0.94146 0.97754 0.0
N531 N 0.15792 0.91731 0.94276 0.0
N532 N 0.20397 0.90923 1.00281 0.0
C533 C 0.19458 0.8765 0.98355 0.0
C534 C 0.16974 0.88086 0.95069 0.0
C535 C 0.87292 0.65724 0.4459 0.0
C536 C 0.83656 0.64504 0.43208 0.0
C537 C 0.87657 0.67943 0.47981 0.0
C538 C 0.84409 0.69044 0.5014 0.0
H539 H 0.89879 0.6508 0.42971 0.0
H540 H 0.90481 0.69007 0.4878 0.0
S541 S 0.74287 0.66321 0.48073 0.0
N542 N 0.76768 0.64313 0.44545 0.0
N543 N 0.77478 0.68566 0.50799 0.0
C544 C 0.80792 0.67698 0.48907 0.0
C545 C 0.8041 0.65407 0.45485 0.0
C546 C 1.02629 0.37288 0.94341 0.0
C547 C 1.03886 0.33638 0.93045 0.0
C548 C 1.00258 0.37692 0.97619 0.0
C549 C 0.99049 0.34469 0.99753 0.0
H550 H 1.0336 0.39857 0.92731 0.0
H551 H 0.99167 0.40524 0.9834 0.0
S552 S 1.01781 0.24326 0.97886 0.0
N553 N 1.03958 0.26765 0.94429 0.0
N554 N 0.99448 0.27547 1.0049 0.0
C555 C 1.00419 0.30838 0.98609 0.0
C556 C 1.02852 0.30416 0.95294 0.0
C557 C 0.31814 0.52541 0.44219 0.0
C558 C 0.35481 0.53754 0.42924 0.0
C559 C 0.31378 0.50253 0.47548 0.0
C560 C 0.34585 0.49082 0.49733 0.0
H561 H 0.29253 0.53242 0.42574 0.0
H562 H 0.28535 0.49189 0.48272 0.0
S563 S 0.4476 0.51757 0.47903 0.0
N564 N 0.42352 0.53855 0.44369 0.0
N565 N 0.41511 0.49483 0.50528 0.0
C566 C 0.38234 0.50416 0.48593 0.0
C567 C 0.38688 0.52772 0.45226 0.0
C568 C 0.25526 0.17848 0.30209 0.0
C569 C 0.26963 0.15796 0.334 0.0
C570 C 0.22242 0.20212 0.30514 0.0
C571 C 0.20161 0.20548 0.33988 0.0
H572 H 0.27041 0.17756 0.27486 0.0
H573 H 0.21404 0.21914 0.28034 0.0
S574 S 0.22479 0.15545 0.43126 0.0
N575 N 0.25874 0.14098 0.40121 0.0
N576 N 0.19677 0.18485 0.40639 0.0
C577 C 0.21433 0.18362 0.37146 0.0
C578 C 0.24833 0.16006 0.36866 0.0
C579 C 0.52297 0.74246 0.80363 0.0
C580 C 0.54154 0.75811 0.83613 0.0
C581 C 0.49914 0.70981 0.8066 0.0
C582 C 0.49391 0.69041 0.84186 0.0
H583 H 0.52536 0.75649 0.77589 0.0
H584 H 0.48323 0.70066 0.78132 0.0
S585 S 0.53996 0.71611 0.93467 0.0
N586 N 0.55559 0.74928 0.90434 0.0
N587 N 0.51168 0.68737 0.90933 0.0
C588 C 0.51439 0.70396 0.87401 0.0
C589 C 0.53798 0.73788 0.87129 0.0
C590 C 0.9745 0.99125 0.31748 0.0
C591 C 0.99213 0.98484 0.35348 0.0
C592 C 0.94295 1.01638 0.31341 0.0
C593 C 0.92678 1.03526 0.34545 0.0
H594 H 0.98407 0.97523 0.29246 0.0
H595 H 0.93013 1.01958 0.28514 0.0
S596 S 0.96391 1.02985 0.44589 0.0
N597 N 0.99266 1.00097 0.42135 0.0
N598 N 0.93302 1.04766 0.41429 0.0
C599 C 0.9453 1.03035 0.38143 0.0
C600 C 0.97799 1.00527 0.38531 0.0
C601 C 0.69495 0.47557 0.80376 0.0
C602 C 0.70133 0.49493 0.83886 0.0
C603 C 0.67117 0.44284 0.80152 0.0
C604 C 0.65364 0.42719 0.83456 0.0
H605 H 0.70991 0.48486 0.77799 0.0
H606 H 0.66796 0.42876 0.77388 0.0
S607 S 0.65929 0.46847 0.93326 0.0
N608 N 0.6864 0.49744 0.90701 0.0
N609 N 0.64231 0.4356 0.9033 0.0
C610 C 0.65847 0.44729 0.86965 0.0
C611 C 0.68214 0.48118 0.87168 0.0
C612 C 0.25164 1.0152 0.88211 0.0
C613 C 0.26623 1.03417 0.8494 0.0
C614 C 0.21935 0.99081 0.87973 0.0
C615 C 0.19921 0.98516 0.84491 0.0
H616 H 0.26619 1.01783 0.90959 0.0
H617 H 0.21103 0.97487 0.90516 0.0
S618 S 0.22275 1.03089 0.75145 0.0
N619 N 0.25607 1.04744 0.78122 0.0
N620 N 0.19488 1.00232 0.77737 0.0
C621 C 0.21193 1.00564 0.81244 0.0
C622 C 0.24549 1.02992 0.81455 0.0
C623 C 0.66918 0.7422 0.38852 0.0
C624 C 0.65084 0.75734 0.35566 0.0
C625 C 0.6932 0.70967 0.38621 0.0
C626 C 0.69897 0.6898 0.35132 0.0
H627 H 0.66638 0.75648 0.41608 0.0
H628 H 0.70876 0.70095 0.41179 0.0
S629 S 0.65393 0.71425 0.25764 0.0
N630 N 0.63775 0.74769 0.28737 0.0
N631 N 0.68203 0.68592 0.28366 0.0
C632 C 0.67883 0.7029 0.31874 0.0
C633 C 0.65501 0.73675 0.32077 0.0
C634 C 0.94567 0.16717 0.88424 0.0
C635 C 0.92985 0.1501 0.85102 0.0
C636 C 0.97799 0.19151 0.88214 0.0
C637 C 0.99685 0.19899 0.84703 0.0
H638 H 0.93209 0.16307 0.91201 0.0
H639 H 0.98736 0.20594 0.90812 0.0
S640 S 0.9697 0.15887 0.75196 0.0
N641 N 0.93749 0.14063 0.78189 0.0
N642 N 0.99863 0.1858 0.77851 0.0
C643 C 0.9829 0.18042 0.81392 0.0
C644 C 0.94938 0.15615 0.81579 0.0
C645 C 0.52244 0.4433 0.38684 0.0
C646 C 0.54085 0.42772 0.35428 0.0
C647 C 0.49819 0.47561 0.38386 0.0
C648 C 0.49223 0.49476 0.34858 0.0
H649 H 0.5253 0.42946 0.41464 0.0
H650 H 0.48257 0.4847 0.40921 0.0
S651 S 0.53665 0.46848 0.25526 0.0
N652 N 0.55347 0.43598 0.28573 0.0
N653 N 0.50854 0.49717 0.28076 0.0
C654 C 0.51229 0.48112 0.31625 0.0
C655 C 0.53641 0.44757 0.31897 0.0
C656 C 0.38299 0.24615 0.16157 0.0
C657 C 0.34622 0.25907 0.1497 0.0
C658 C 0.38751 0.21287 0.1844 0.0
C659 C 0.35555 0.19089 0.19606 0.0
H660 H 0.40848 0.26272 0.15456 0.0
H661 H 0.41598 0.20581 0.19515 0.0
S662 S 0.25354 0.20949 0.17039 0.0
N663 N 0.27747 0.24476 0.14924 0.0
N664 N 0.28628 0.18298 0.19256 0.0
C665 C 0.31897 0.20222 0.18289 0.0
C666 C 0.31423 0.236 0.15958 0.0
C667 C 0.31584 0.9375 1.01237 0.0
C668 C 0.34904 0.92285 1.03061 0.0
C669 C 0.3175 0.97021 0.98864 0.0
C670 C 0.35215 0.99049 0.9829 0.0
H671 H 0.28846 0.9228 1.01523 0.0
H672 H 0.29162 0.97885 0.97338 0.0
S673 S 0.44686 0.96632 1.026 0.0
N674 N 0.41752 0.93277 1.04271 0.0
N675 N 0.42019 0.9946 0.99848 0.0
C676 C 0.3852 0.97748 1.00234 0.0
C677 C 0.38376 0.9436 1.02606 0.0
C678 C 0.7144 0.80144 0.49768 0.0
C679 C 0.69526 0.83689 0.49236 0.0
C680 C 0.74638 0.79788 0.52249 0.0
C681 C 0.76165 0.82997 0.54207 0.0
H682 H 0.70548 0.77643 0.48127 0.0
H683 H 0.76024 0.77006 0.5249 0.0
S684 S 0.72066 0.92894 0.53992 0.0
N685 N 0.69248 0.90419 0.51058 0.0
N686 N 0.75299 0.89809 0.55641 0.0
C687 C 0.74178 0.86533 0.53818 0.0
C688 C 0.70858 0.86865 0.51355 0.0
C689 C 0.88519 0.24535 1.01723 0.0
C690 C 0.85251 0.25947 1.03667 0.0
C691 C 0.88292 0.21313 0.99271 0.0
C692 C 0.84821 0.19264 0.98743 0.0
H693 H 0.91251 0.26021 1.01962 0.0
H694 H 0.90834 0.20507 0.97646 0.0
S695 S 0.75504 0.21478 1.03455 0.0
N696 N 0.78462 0.24836 1.05082 0.0
N697 N 0.78095 0.1874 1.00552 0.0
C698 C 0.81586 0.20486 1.00842 0.0
C699 C 0.81787 0.2383 1.03279 0.0
C700 C 0.44323 0.38372 0.51946 0.0
C701 C 0.42702 0.35101 0.53715 0.0
C702 C 0.47599 0.38091 0.49571 0.0
C703 C 0.4949 0.34552 0.48954 0.0
H704 H 0.42964 0.4116 0.52263 0.0
H705 H 0.48574 0.40651 0.48076 0.0
S706 S 0.46659 0.25159 0.53141 0.0
N707 N 0.4342 0.2821 0.54834 0.0
N708 N 0.4961 0.27735 0.5044 0.0
C709 C 0.48044 0.31295 0.50864 0.0
C710 C 0.4465 0.31556 0.53224 0.0
C711 C 0.88306 0.93893 0.17537 0.0
C712 C 0.85025 0.92473 0.15611 0.0
C713 C 0.88089 0.97103 0.20001 0.0
C714 C 0.84614 0.99133 0.20562 0.0
H715 H 0.91046 0.92425 0.17267 0.0
H716 H 0.90644 0.97919 0.21606 0.0
S717 S 0.75255 0.96881 0.15929 0.0
N718 N 0.78213 0.93546 0.14263 0.0
N719 N 0.77864 0.99626 0.18816 0.0
C720 C 0.81362 0.979 0.18488 0.0
C721 C 0.81553 0.94566 0.16037 0.0
C722 C 0.72522 0.37996 0.70231 0.0
C723 C 0.70248 0.34629 0.70347 0.0
C724 C 0.75768 0.38303 0.67824 0.0
C725 C 0.76959 0.35214 0.6549 0.0
H726 H 0.71864 0.40382 0.72131 0.0
H727 H 0.7745 0.40931 0.67917 0.0
S728 S 0.71885 0.25829 0.64546 0.0
N729 N 0.69306 0.28214 0.67755 0.0
N730 N 0.75432 0.28738 0.63271 0.0
C731 C 0.74635 0.3187 0.65474 0.0
C732 C 0.71275 0.31592 0.67883 0.0
C733 C 0.44627 0.79954 0.67021 0.0
C734 C 0.43123 0.83199 0.65109 0.0
C735 C 0.47892 0.80236 0.69413 0.0
C736 C 0.49885 0.8374 0.69899 0.0
H737 H 0.43174 0.77203 0.66817 0.0
H738 H 0.48766 0.77717 0.71039 0.0
S739 S 0.47455 0.92998 0.65188 0.0
N740 N 0.44107 0.8999 0.63635 0.0
N741 N 0.50287 0.90458 0.68055 0.0
C742 C 0.48584 0.86945 0.67807 0.0
C743 C 0.45198 0.8669 0.65434 0.0
C744 C 0.96066 0.83402 0.99641 0.0
C745 C 0.92463 0.82018 0.98451 0.0
C746 C 0.99375 0.82589 0.97492 0.0
C747 C 0.99177 0.80329 0.94129 0.0
H748 H 0.96296 0.85327 1.02087 0.0
H749 H 1.02055 0.83968 0.98318 0.0
S750 S 0.90585 0.7527 0.90369 0.0
N751 N 0.88986 0.77757 0.94089 0.0
N752 N 0.95247 0.76176 0.90109 0.0
C753 C 0.9568 0.78569 0.93174 0.0
C754 C 0.92298 0.79447 0.95316 0.0
C755 C 0.88389 0.41474 0.43952 0.0
C756 C 0.86834 0.41991 0.47672 0.0
C757 C 0.89696 0.44605 0.41784 0.0
C758 C 0.8945 0.48346 0.4326 0.0
H759 H 0.88444 0.38657 0.4262 0.0
H760 H 0.90522 0.44129 0.38812 0.0
S761 S 0.86381 0.51185 0.53077 0.0
N762 N 0.85727 0.46477 0.52941 0.0
N763 N 0.8813 0.52375 0.48818 0.0
C764 C 0.88298 0.4886 0.47103 0.0
C765 C 0.86978 0.45678 0.4932 0.0
C766 C 0.2051 0.36442 0.97115 0.0
C767 C 0.20721 0.38489 0.93622 0.0
C768 C 0.23837 0.35519 0.99187 0.0
C769 C 0.27478 0.36593 0.97811 0.0
H770 H 0.17781 0.35293 0.98108 0.0
H771 H 0.23565 0.33761 1.01752 0.0
S772 S 0.29468 0.42781 0.89316 0.0
N773 N 0.24752 0.4215 0.89245 0.0
N774 N 0.31053 0.40409 0.93121 0.0
C775 C 0.2769 0.38986 0.94535 0.0
C776 C 0.24287 0.39959 0.92452 0.0
C777 C 0.31296 0.6988 0.47076 0.0
C778 C 0.29923 0.70306 0.43286 0.0
C779 C 0.32596 0.73055 0.49184 0.0
C780 C 0.32606 0.76748 0.47541 0.0
H781 H 0.31681 0.67032 0.48296 0.0
H782 H 0.33812 0.72573 0.52019 0.0
S783 S 0.2859 0.79449 0.3797 0.0
N784 N 0.28079 0.74729 0.38197 0.0
N785 N 0.30575 0.80721 0.42101 0.0
C786 C 0.30885 0.77252 0.43887 0.0
C787 C 0.295 0.74019 0.41779 0.0
C788 C 0.91681 0.38456 0.24695 0.0
C789 C 0.92061 0.36757 0.21024 0.0
C790 C 0.94918 0.39653 0.26782 0.0
C791 C 0.98625 0.39162 0.25264 0.0
H792 H 0.88884 0.38705 0.26057 0.0
H793 H 0.94532 0.4061 0.29728 0.0
S794 S 1.01148 0.35628 0.15517 0.0
N795 N 0.96409 0.35233 0.15738 0.0
N796 N 1.02497 0.37449 0.197 0.0
C797 C 0.99019 0.37855 0.21458 0.0
C798 C 0.95732 0.36641 0.19327 0.0
C799 C 0.32227 0.49135 0.71786 0.0
C800 C 0.30231 0.48827 0.75302 0.0
C801 C 0.33153 0.45863 0.69638 0.0
C802 C 0.32129 0.42193 0.70966 0.0
H803 H 0.33365 0.51888 0.70852 0.0
H804 H 0.34895 0.46194 0.6707 0.0
S805 S 0.25995 0.3999 0.79447 0.0
N806 N 0.26603 0.44699 0.79608 0.0
N807 N 0.28352 0.38508 0.75597 0.0
C808 C 0.29749 0.419 0.74242 0.0
C809 C 0.28769 0.45242 0.76396 0.0
C810 C 0.24391 0.82621 0.19431 0.0
C811 C 0.26847 0.85805 0.19845 0.0
C812 C 0.21272 0.82116 0.21927 0.0
C813 C 0.20457 0.84899 0.24725 0.0
H814 H 0.25003 0.80414 0.17331 0.0
H815 H 0.19531 0.79534 0.21705 0.0
S816 S 0.25692 0.9405 0.26472 0.0
N817 N 0.28123 0.91904 0.22996 0.0
N818 N 0.22039 0.91162 0.27456 0.0
C819 C 0.22688 0.88268 0.24906 0.0
C820 C 0.2595 0.88681 0.22502 0.0
C821 C 0.87279 0.69737 0.72484 0.0
C822 C 0.89186 0.70093 0.76046 0.0
C823 C 0.86127 0.72984 0.7041 0.0
C824 C 0.8685 0.76692 0.71833 0.0
H825 H 0.8639 0.66932 0.71441 0.0
H826 H 0.84486 0.72576 0.67784 0.0
S827 S 0.92631 0.79127 0.80514 0.0
N828 N 0.92375 0.74381 0.8055 0.0
N829 N 0.90248 0.80533 0.76644 0.0
C830 C 0.8913 0.7708 0.75179 0.0
C831 C 0.90317 0.73758 0.77278 0.0
C832 C 0.92514 0.94609 0.79436 0.0
C833 C 0.93886 0.9836 0.79995 0.0
C834 C 0.94707 0.91444 0.80625 0.0
C835 C 0.98345 0.91938 0.82381 0.0
H836 H 0.89598 0.94123 0.78419 0.0
H837 H 0.93453 0.88604 0.80319 0.0
S838 S 1.03498 1.01192 0.83719 0.0
N839 N 0.99288 1.02409 0.81853 0.0
N840 N 1.03449 0.96447 0.84044 0.0
C841 C 0.99905 0.9566 0.82568 0.0
C842 C 0.97662 0.98879 0.81372 0.0
C843 C 0.7448 0.41467 0.29484 0.0
C844 C 0.70761 0.42984 0.29871 0.0
C845 C 0.7769 0.43606 0.30655 0.0
C846 C 0.77267 0.47331 0.32221 0.0
H847 H 0.74892 0.38497 0.28627 0.0
H848 H 0.80498 0.4225 0.30489 0.0
S849 S 0.68136 0.52845 0.32978 0.0
N850 N 0.66837 0.48591 0.31298 0.0
N851 N 0.72867 0.52653 0.33473 0.0
C852 C 0.73584 0.49014 0.32222 0.0
C853 C 0.70328 0.46831 0.31028 0.0
C854 C 0.22058 0.19658 0.82461 0.0
C855 C 0.25489 0.19988 0.8032 0.0
C856 C 0.19908 0.22914 0.83448 0.0
C857 C 0.21157 0.26593 0.82356 0.0
H858 H 0.21188 0.16899 0.83633 0.0
H859 H 0.17403 0.22566 0.85277 0.0
S860 S 0.29444 0.28861 0.75979 0.0
N861 N 0.2965 0.24152 0.76567 0.0
N862 N 0.25656 0.30313 0.78456 0.0
C863 C 0.24361 0.26909 0.79881 0.0
C864 C 0.26508 0.23583 0.7883 0.0
C865 C 0.45565 0.69795 0.32668 0.0
C866 C 0.41856 0.71329 0.32181 0.0
C867 C 0.48812 0.71875 0.31528 0.0
C868 C 0.48457 0.75555 0.29873 0.0
H869 H 0.45985 0.67068 0.34127 0.0
H870 H 0.51631 0.70738 0.32257 0.0
S871 S 0.39381 0.80457 0.27139 0.0
N872 N 0.37987 0.76444 0.29276 0.0
N873 N 0.44142 0.8037 0.27202 0.0
C874 C 0.44774 0.76932 0.28965 0.0
C875 C 0.41451 0.74821 0.30132 0.0
C876 C 0.97037 0.20237 0.3684 0.0
C877 C 0.93459 0.20608 0.38709 0.0
C878 C 0.99165 0.23479 0.3576 0.0
C879 C 0.97761 0.27195 0.36487 0.0
H880 H 0.98073 0.17426 0.35962 0.0
H881 H 1.01817 0.23065 0.34167 0.0
S882 S 0.88878 0.29663 0.4193 0.0
N883 N 0.88855 0.24918 0.4171 0.0
N884 N 0.92842 0.31052 0.39703 0.0
C885 C 0.94352 0.27592 0.38668 0.0
C886 C 0.92209 0.24279 0.39794 0.0
C887 C 0.45072 0.41673 0.8934 0.0
C888 C 0.48814 0.4315 0.89002 0.0
C889 C 0.41901 0.43843 0.88115 0.0
C890 C 0.4238 0.4756 0.86542 0.0
H891 H 0.44616 0.38707 0.90198 0.0
H892 H 0.39078 0.42517 0.88249 0.0
S893 S 0.51579 0.52952 0.85816 0.0
N894 N 0.52815 0.48698 0.8755 0.0
N895 N 0.46849 0.52817 0.85288 0.0
C896 C 0.46079 0.492 0.86573 0.0
C897 C 0.493 0.46984 0.87812 0.0
C898 C 0.22367 0.99191 0.40103 0.0
C899 C 0.23239 1.0144 0.36872 0.0
C900 C 0.19461 0.96409 0.39884 0.0
C901 C 0.17555 0.957 0.36385 0.0
H902 H 0.24133 0.99344 0.42675 0.0
H903 H 0.19002 0.94532 0.42325 0.0
S904 S 0.17783 1.0176 0.27659 0.0
N905 N 0.21097 1.03622 0.30526 0.0
N906 N 0.15892 0.98117 0.30061 0.0
C907 C 0.17905 0.98369 0.33412 0.0
C908 C 0.20742 1.01302 0.33662 0.0
C909 C 0.70177 0.7164 0.86759 0.0
C910 C 0.70472 0.75154 0.88759 0.0
C911 C 0.73461 0.69512 0.85817 0.0
C912 C 0.77136 0.70858 0.86821 0.0
H913 H 0.67416 0.7068 0.85652 0.0
H914 H 0.73131 0.66929 0.84098 0.0
S915 S 0.79331 0.79401 0.92877 0.0
N916 N 0.74609 0.7952 0.9231 0.0
N917 N 0.80823 0.75548 0.90532 0.0
C918 C 0.77425 0.74159 0.89169 0.0
C919 C 0.7407 0.76293 0.90166 0.0
C920 C 0.8364 0.98879 0.95573 0.0
C921 C 0.82537 0.97584 0.91912 0.0
C922 C 0.82685 0.96766 0.98858 0.0
C923 C 0.80572 0.93316 0.98583 0.0
H924 H 0.85437 1.01412 0.9589 0.0
H925 H 0.83846 0.97697 1.01605 0.0
S926 S 0.7623 0.89217 0.89759 0.0
N927 N 0.78664 0.93008 0.88248 0.0
N928 N 0.76849 0.89062 0.94471 0.0
C929 C 0.7909 0.92225 0.94997 0.0
C930 C 0.801 0.94347 0.91637 0.0
C931 C 0.82059 0.21682 0.20171 0.0
C932 C 0.80115 0.25228 0.20442 0.0
C933 C 0.82981 0.19563 0.23467 0.0
C934 C 0.82013 0.20951 0.27131 0.0
H935 H 0.83138 0.20682 0.17418 0.0
H936 H 0.84667 0.16956 0.23152 0.0
S937 S 0.76159 0.29643 0.29277 0.0
N938 N 0.76692 0.29712 0.24556 0.0
N939 N 0.78413 0.25743 0.30795 0.0
C940 C 0.79715 0.24292 0.27402 0.0
C941 C 0.78746 0.26422 0.24033 0.0
C942 C 0.49164 0.33194 0.73263 0.0
C943 C 0.47903 0.32111 0.76941 0.0
C944 C 0.46974 0.32302 0.70008 0.0
C945 C 0.43473 0.30277 0.70328 0.0
H946 H 0.51734 0.34933 0.72912 0.0
H947 H 0.47884 0.33454 0.67253 0.0
S948 S 0.39405 0.26011 0.79191 0.0
N949 N 0.4329 0.28332 0.80655 0.0
N950 N 0.39189 0.26652 0.74486 0.0
C951 C 0.42407 0.28806 0.73922 0.0
C952 C 0.44613 0.29746 0.77253 0.0
C953 C 0.40002 0.92194 0.23776 0.0
C954 C 0.39643 0.93596 0.20004 0.0
C955 C 0.38587 0.94319 0.26897 0.0
C956 C 0.3681 0.97933 0.26349 0.0
H957 H 0.41075 0.8931 0.24296 0.0
H958 H 0.38779 0.93053 0.29743 0.0
S959 S 0.3577 1.03114 0.1707 0.0
N960 N 0.37825 0.98983 0.15917 0.0
N961 N 0.35212 1.03006 0.21792 0.0
C962 C 0.36754 0.99505 0.22627 0.0
C963 C 0.38176 0.97332 0.19452 0.0
C964 C 0.77409 0.89312 0.74318 0.0
C965 C 0.75918 0.89069 0.70577 0.0
C966 C 0.7523 0.88043 0.77457 0.0
C967 C 0.7149 0.86526 0.76944 0.0
H968 H 0.80398 0.90094 0.74787 0.0
H969 H 0.76573 0.88083 0.80275 0.0
S970 S 0.66035 0.86156 0.67759 0.0
N971 N 0.7032 0.87845 0.66559 0.0
N972 N 0.6618 0.85497 0.72467 0.0
C973 C 0.69827 0.86695 0.7326 0.0
C974 C 0.72051 0.87986 0.70072 0.0
C975 C 0.39956 0.26749 0.94636 0.0
C976 C 0.39504 0.25332 0.98384 0.0
C977 C 0.38741 0.24569 0.91473 0.0
C978 C 0.37069 0.20896 0.91964 0.0
H979 H 0.40909 0.29683 0.94158 0.0
H980 H 0.38969 0.25854 0.8864 0.0
S981 S 0.36028 0.15639 1.01197 0.0
N982 N 0.37832 0.19868 1.02418 0.0
N983 N 0.35603 0.15725 0.96459 0.0
C984 C 0.36988 0.19302 0.95676 0.0
C985 C 0.38207 0.21533 0.98894 0.0
C986 C 0.47156 0.87298 0.48782 0.0
C987 C 0.43447 0.88903 0.48482 0.0
C988 C 0.49193 0.86173 0.45507 0.0
C989 C 0.47584 0.86623 0.41825 0.0
H990 H 0.48354 0.86601 0.51582 0.0
H991 H 0.51953 0.8476 0.45886 0.0
S992 S 0.38338 0.91528 0.39491 0.0
N993 N 0.38516 0.91493 0.44243 0.0
N994 N 0.42353 0.89433 0.38036 0.0
C995 C 0.44051 0.88614 0.41472 0.0
C996 C 0.41988 0.89771 0.44822 0.0
C997 C 0.75033 0.30363 0.41877 0.0
C998 C 0.71391 0.32116 0.4234 0.0
C999 C 0.77206 0.29191 0.45062 0.0
C1000 C 0.75816 0.29772 0.48802 0.0
H1001 H 0.76305 0.30046 0.39047 0.0
H1002 H 0.80124 0.2818 0.44599 0.0
S1003 S 0.66172 0.33443 0.51557 0.0
N1004 N 0.6625 0.33761 0.46812 0.0
N1005 N 0.70383 0.31604 0.5281 0.0
C1006 C 0.72031 0.31125 0.49291 0.0
C1007 C 0.69807 0.32306 0.46053 0.0
C1008 C 0.24628 0.32039 0.48452 0.0
C1009 C 0.25316 0.35975 0.48943 0.0
C1010 C 0.2194 0.30786 0.4575 0.0
C1011 C 0.19905 0.33439 0.43456 0.0
H1012 H 0.26018 0.29932 0.50291 0.0
H1013 H 0.21358 0.27725 0.45557 0.0
S1014 S 0.21195 0.44014 0.43222 0.0
N1015 N 0.24149 0.42498 0.46634 0.0
N1016 N 0.19081 0.40111 0.4151 0.0
C1017 C 0.20789 0.37358 0.43712 0.0
C1018 C 0.23508 0.38639 0.46483 0.0
C1019 C 0.31426 0.72033 0.97837 0.0
C1020 C 0.34092 0.7449 0.99651 0.0
C1021 C 0.32613 0.69462 0.95 0.0
C1022 C 0.36497 0.69267 0.93945 0.0
H1023 H 0.28416 0.72031 0.98669 0.0
H1024 H 0.30517 0.67506 0.93761 0.0
S1025 S 0.44495 0.75424 0.97466 0.0
N1026 N 0.40689 0.76841 0.99941 0.0
N1027 N 0.42946 0.7196 0.94598 0.0
C1028 C 0.39155 0.71843 0.95583 0.0
C1029 C 0.37942 0.74478 0.98452 0.0
C1030 C 0.96965 0.87437 0.46873 0.0
C1031 C 0.98989 0.84832 0.44527 0.0
C1032 C 0.94225 0.8613 0.4948 0.0
C1033 C 0.93481 0.8219 0.49813 0.0
H1034 H 0.97588 0.90494 0.46795 0.0
H1035 H 0.92841 0.88189 0.51374 0.0
S1036 S 0.97543 0.74294 0.4388 0.0
N1037 N 0.99741 0.78222 0.42345 0.0
N1038 N 0.9457 0.75733 0.47299 0.0
C1039 C 0.95276 0.79584 0.47296 0.0
C1040 C 0.98049 0.80919 0.44622 0.0
C1041 C 0.8031 0.4704 0.96187 0.0
C1042 C 0.82944 0.4879 0.93652 0.0
C1043 C 0.81542 0.44285 0.98836 0.0
C1044 C 0.85434 0.43246 0.99014 0.0
H1045 H 0.77312 0.47918 0.96243 0.0
H1046 H 0.79492 0.43142 1.00894 0.0
S1047 S 0.93289 0.46419 0.92507 0.0
N1048 N 0.89471 0.48891 0.911 0.0
N1049 N 0.91805 0.43702 0.96117 0.0
C1050 C 0.88028 0.44736 0.96292 0.0
C1051 C 0.86773 0.47523 0.93588 0.0
C1052 C 0.23125 0.80181 0.71695 0.0
C1053 C 0.25508 0.82814 0.69742 0.0
C1054 C 0.20506 0.8144 0.7446 0.0
C1055 C 0.20191 0.85363 0.75305 0.0
H1056 H 0.23185 0.7714 0.70995 0.0
H1057 H 0.18589 0.79363 0.75783 0.0
S1058 S 0.26206 0.93311 0.71455 0.0
N1059 N 0.27725 0.8943 0.69168 0.0
N1060 N 0.22761 0.91824 0.74377 0.0
C1061 C 0.22738 0.87992 0.73575 0.0
C1062 C 0.25422 0.86705 0.7078 0.0
C1063 C 0.86768 0.69965 0.24913 0.0
C1064 C 0.82853 0.69641 0.25803 0.0
C1065 C 0.87984 0.72567 0.22118 0.0
C1066 C 0.85315 0.74923 0.20174 0.0
H1067 H 0.88871 0.68056 0.26214 0.0
H1068 H 0.91019 0.72626 0.2138 0.0
S1069 S 0.74835 0.7563 0.22027 0.0
N1070 N 0.76369 0.72205 0.24953 0.0
N1071 N 0.78686 0.77137 0.19675 0.0
C1072 C 0.81437 0.74848 0.21269 0.0
C1073 C 0.80194 0.72183 0.24102 0.0
C1074 C 0.94792 0.32158 0.70472 0.0
C1075 C 0.94828 0.36021 0.69328 0.0
C1076 C 0.97198 0.30904 0.7343 0.0
C1077 C 0.9965 0.33496 0.75348 0.0
H1078 H 0.93005 0.30071 0.68988 0.0
H1079 H 0.97226 0.27863 0.74136 0.0
S1080 S 1.00437 0.43998 0.73734 0.0
N1081 N 0.97259 0.42504 0.70523 0.0
N1082 N 1.01737 0.40122 0.76164 0.0
C1083 C 0.99531 0.37407 0.74403 0.0
C1084 C 0.97129 0.38678 0.7135 0.0
C1085 C 0.38863 0.47151 0.22948 0.0
C1086 C 0.36192 0.49048 0.25334 0.0
C1087 C 0.37659 0.44346 0.20338 0.0
C1088 C 0.33752 0.43397 0.20034 0.0
H1089 H 0.4189 0.47925 0.22998 0.0
H1090 H 0.39764 0.43073 0.18417 0.0
S1091 S 0.25727 0.47079 0.26058 0.0
N1092 N 0.29563 0.49465 0.2756 0.0
N1093 N 0.27274 0.44181 0.2262 0.0
C1094 C 0.31091 0.45074 0.22585 0.0
C1095 C 0.32322 0.47913 0.25257 0.0
C1096 C 0.449 0.20211 0.36834 0.0
C1097 C 0.44578 0.1948 0.32885 0.0
C1098 C 0.47448 0.23003 0.38168 0.0
C1099 C 0.49702 0.25151 0.35581 0.0
H1100 H 0.43302 0.18515 0.3891 0.0
H1101 H 0.47741 0.23391 0.41253 0.0
S1102 S 0.49459 0.2469 0.24933 0.0
N1103 N 0.46377 0.21363 0.26368 0.0
N1104 N 0.51177 0.26663 0.28907 0.0
C1105 C 0.49211 0.24632 0.31616 0.0
C1106 C 0.4664 0.21764 0.30255 0.0
C1107 C 0.46495 0.97 0.87906 0.0
C1108 C 0.44166 0.98979 0.85241 0.0
C1109 C 0.4907 0.94181 0.86687 0.0
C1110 C 0.49393 0.93303 0.82772 0.0
H1111 H 0.4643 0.97719 0.90943 0.0
H1112 H 0.50954 0.92842 0.88789 0.0
S1113 S 0.43484 0.97198 0.74753 0.0
N1114 N 0.41986 0.99545 0.78608 0.0
N1115 N 0.4687 0.94223 0.76284 0.0
C1116 C 0.46886 0.95053 0.80111 0.0
C1117 C 0.44247 0.97909 0.81359 0.0
C1118 C 0.7456 0.98324 0.37569 0.0
C1119 C 0.75408 0.98668 0.33649 0.0
C1120 C 0.71834 0.95656 0.38811 0.0
C1121 C 0.6992 0.93256 0.36162 0.0
H1122 H 0.75844 1.00258 0.39657 0.0
H1123 H 0.7112 0.9558 0.41849 0.0
S1124 S 0.71692 0.92602 0.2567 0.0
N1125 N 0.74554 0.96091 0.27178 0.0
N1126 N 0.6941 0.9104 0.2954 0.0
C1127 C 0.70976 0.93363 0.32277 0.0
C1128 C 0.73736 0.96093 0.31008 0.0
C1129 C 0.74782 0.20084 0.81807 0.0
C1130 C 0.75506 0.19639 0.85744 0.0
C1131 C 0.72065 0.22753 0.80544 0.0
C1132 C 0.70039 0.25059 0.83187 0.0
H1133 H 0.76166 0.18232 0.79712 0.0
H1134 H 0.71458 0.22911 0.77485 0.0
S1135 S 0.71417 0.25408 0.93753 0.0
N1136 N 0.74381 0.22004 0.92253 0.0
N1137 N 0.69257 0.27063 0.89847 0.0
C1138 C 0.70955 0.24846 0.87105 0.0
C1139 C 0.73703 0.2211 0.88396 0.0
C1140 C 0.96986 0.86834 0.69076 0.0
C1141 C 0.95711 0.83142 0.67877 0.0
C1142 C 0.99907 0.87344 0.71905 0.0
C1143 C 1.01711 0.84193 0.73743 0.0
H1144 H 0.95678 0.89388 0.67852 0.0
H1145 H 1.00679 0.90252 0.72728 0.0
S1146 S 0.99519 0.73888 0.71693 0.0
N1147 N 0.96603 0.76266 0.68782 0.0
N1148 N 1.01984 0.77195 0.74062 0.0
C1149 C 1.00493 0.80481 0.72545 0.0
C1150 C 0.97545 0.79966 0.69638 0.0
C1151 C 0.87803 0.47203 0.19154 0.0
C1152 C 0.8459 0.45352 0.17465 0.0
C1153 C 0.87388 0.50065 0.22048 0.0
C1154 C 0.83734 0.51284 0.2341 0.0
H1155 H 0.90689 0.46366 0.18309 0.0
H1156 H 0.89984 0.51298 0.23267 0.0
S1157 S 0.74348 0.47427 0.19951 0.0
N1158 N 0.77578 0.45034 0.17413 0.0
N1159 N 0.76823 0.5037 0.22747 0.0
C1160 C 0.80495 0.49506 0.21698 0.0
C1161 C 0.80915 0.46568 0.18776 0.0
C1162 C 0.19228 0.3084 0.71693 0.0
C1163 C 0.17423 0.34024 0.73467 0.0
C1164 C 0.22079 0.313 0.68795 0.0
C1165 C 0.23255 0.34969 0.67446 0.0
H1166 H 0.18541 0.27951 0.72646 0.0
H1167 H 0.23426 0.28731 0.67653 0.0
S1168 S 0.19273 0.4428 0.70917 0.0
N1169 N 0.16955 0.41017 0.73483 0.0
N1170 N 0.22188 0.41854 0.68053 0.0
C1171 C 0.21365 0.38172 0.69089 0.0
C1172 C 0.18501 0.37709 0.72077 0.0
C1173 C 0.385 0.69115 0.21745 0.0
C1174 C 0.35267 0.67589 0.23696 0.0
C1175 C 0.38147 0.72112 0.18978 0.0
C1176 C 0.34538 0.73736 0.17963 0.0
H1177 H 0.41355 0.68039 0.22409 0.0
H1178 H 0.40752 0.73174 0.17627 0.0
S1179 S 0.25146 0.70927 0.22283 0.0
N1180 N 0.283 0.68087 0.24428 0.0
N1181 N 0.27665 0.73574 0.19248 0.0
C1182 C 0.31286 0.72225 0.19877 0.0
C1183 C 0.31642 0.6921 0.22721 0.0
C1184 C 0.9707 0.31504 0.4979 0.0
C1185 C 0.9579 0.35173 0.51041 0.0
C1186 C 0.99966 0.31051 0.46937 0.0
C1187 C 1.01732 0.34241 0.45132 0.0
H1188 H 0.95794 0.28928 0.50999 0.0
H1189 H 1.00754 0.2816 0.46075 0.0
S1190 S 0.99452 0.44507 0.47292 0.0
N1191 N 0.96591 0.42066 0.50197 0.0
N1192 N 1.01933 0.41248 0.4488 0.0
C1193 C 1.00492 0.3793 0.46374 0.0
C1194 C 0.97567 0.38386 0.49299 0.0
C1195 C 0.38201 0.46489 1.00067 0.0
C1196 C 0.34557 0.45368 1.01526 0.0
C1197 C 0.38606 0.49343 0.97172 0.0
C1198 C 0.35387 0.51221 0.95537 0.0
H1199 H 0.40792 0.45107 1.01127 0.0
H1200 H 0.41476 0.5 0.96135 0.0
S1201 S 0.25171 0.49423 0.98306 0.0
N1202 N 0.27654 0.46472 1.0109 0.0
N1203 N 0.28389 0.51745 0.95687 0.0
C1204 C 0.31725 0.50165 0.97002 0.0
C1205 C 0.31318 0.47283 0.99974 0.0
C1206 C 0.20375 0.81757 0.51377 0.0
C1207 C 0.23982 0.83648 0.51243 0.0
C1208 C 0.17524 0.82334 0.48471 0.0
C1209 C 0.18191 0.84743 0.45251 0.0
H1210 H 0.19722 0.7987 0.53772 0.0
H1211 H 0.14788 0.80855 0.48732 0.0
S1212 S 0.27378 0.89873 0.43226 0.0
N1213 N 0.28077 0.87891 0.47484 0.0
N1214 N 0.22996 0.88564 0.4193 0.0
C1215 C 0.21863 0.86459 0.45011 0.0
C1216 C 0.24673 0.86025 0.48023 0.0
C1217 C 0.87364 0.68282 0.97414 0.0
C1218 C 0.83727 0.67101 0.95975 0.0
C1219 C 0.8775 0.71155 1.00293 0.0
C1220 C 0.84525 0.73071 1.01865 0.0
H1221 H 0.89972 0.67026 0.96252 0.0
H1222 H 0.90628 0.71977 1.01185 0.0
S1223 S 0.74306 0.70945 0.99321 0.0
N1224 N 0.76807 0.67984 0.9657 0.0
N1225 N 0.77513 0.73382 1.01856 0.0
C1226 C 0.80861 0.71841 1.00535 0.0
C1227 C 0.80468 0.68874 0.97642 0.0
C1228 C 0.68944 0.9669 0.87352 0.0
C1229 C 0.67755 0.9532 0.83694 0.0
C1230 C 0.71796 0.99594 0.87784 0.0
C1231 C 0.73673 1.01267 0.84585 0.0
H1232 H 0.67698 0.95468 0.89936 0.0
H1233 H 0.72618 1.00444 0.90672 0.0
S1234 S 0.71626 0.98792 0.74337 0.0
N1235 N 0.68679 0.95989 0.76795 0.0
N1236 N 0.74011 1.01328 0.77578 0.0
C1237 C 0.72469 0.9996 0.80905 0.0
C1238 C 0.69535 0.97036 0.80468 0.0
C1239 C 0.6941 0.21567 0.38433 0.0
C1240 C 0.67531 0.23225 0.35227 0.0
C1241 C 0.72257 0.18665 0.3801 0.0
C1242 C 0.73371 0.17218 0.3436 0.0
H1243 H 0.6876 0.22594 0.41305 0.0
H1244 H 0.73642 0.17588 0.40591 0.0
S1245 S 0.69318 0.205 0.25004 0.0
N1246 N 0.67004 0.23109 0.28234 0.0
N1247 N 0.72262 0.17692 0.27468 0.0
C1248 C 0.71455 0.18791 0.31135 0.0
C1249 C 0.68581 0.21771 0.3156 0.0
C1250 C 0.47188 0.18677 0.81066 0.0
C1251 C 0.45888 0.17412 0.84719 0.0
C1252 C 0.50114 0.21507 0.80651 0.0
C1253 C 0.51877 0.23275 0.83867 0.0
H1254 H 0.459 0.17505 0.78477 0.0
H1255 H 0.50915 0.22393 0.7777 0.0
S1256 S 0.49565 0.21031 0.94107 0.0
N1257 N 0.46684 0.18174 0.91627 0.0
N1258 N 0.52075 0.23453 0.90878 0.0
C1259 C 0.50628 0.22002 0.8754 0.0
C1260 C 0.4768 0.19098 0.87957 0.0
C1261 C 0.50324 0.96482 0.3168 0.0
C1262 C 0.51545 0.95216 0.35365 0.0
C1263 C 0.47395 0.9929 0.31185 0.0
C1264 C 0.45466 1.00971 0.34344 0.0
H1265 H 0.51616 0.95262 0.29118 0.0
H1266 H 0.46577 1.00079 0.28278 0.0
S1267 S 0.47532 0.98758 0.44637 0.0
N1268 N 0.50574 0.95991 0.4225 0.0
N1269 N 0.45072 1.0115 0.41338 0.0
C1270 C 0.46669 0.99755 0.38051 0.0
C1271 C 0.49693 0.96931 0.38555 0.0
loop_
_geom_bond_atom_site_label_1
_geom_bond_atom_site_label_2
_geom_bond_distance
_geom_bond_site_symmetry_2
_ccdc_geom_bond_type
O0 Tb1 2.506 . S
O0 C14 1.265 . S
Tb1 O0 2.506 . S
Tb1 O6 2.312 1_655 S
Tb1 O10 2.271 . S
Tb1 O12 2.338 . S
Tb1 O19 2.441 . S
C2 O10 1.252 . S
C2 O11 1.253 . S
O3 Tb4 2.271 . S
O3 C13 1.252 . S
Tb4 O3 2.271 . S
Tb4 O7 2.338 . S
Tb4 O11 2.312 1_455 S
Tb4 O15 2.441 . S
Tb4 O16 2.506 . S
C5 O15 1.244 . S
C5 O16 1.265 . S
O6 Tb1 2.312 1_455 S
O6 C13 1.253 . S
O7 Tb4 2.338 . S
O7 C8 1.258 . S
C8 O7 1.258 . S
C8 O9 1.251 . S
O9 C8 1.251 . S
O10 Tb1 2.271 . S
O10 C2 1.252 . S
O11 C2 1.253 . S
O11 Tb4 2.312 1_655 S
O12 Tb1 2.338 . S
O12 C17 1.258 . S
C13 O3 1.252 . S
C13 O6 1.253 . S
C14 O0 1.265 . S
C14 O19 1.244 . S
O15 Tb4 2.441 . S
O15 C5 1.244 . S
O16 Tb4 2.506 . S
O16 C5 1.265 . S
C17 O12 1.258 . S
C17 O18 1.251 . S
O18 C17 1.251 . S
O19 Tb1 2.441 . S
O19 C14 1.244 . S
O20 Tb21 2.506 . S
O20 C34 1.265 . S
Tb21 O20 2.506 . S
Tb21 O26 2.312 . S
Tb21 O30 2.271 . S
Tb21 O32 2.338 . S
Tb21 O39 2.441 . S
C22 O30 1.252 . S
C22 O31 1.253 . S
O23 Tb24 2.271 . S
O23 C33 1.252 . S
Tb24 O23 2.271 . S
Tb24 O27 2.338 . S
Tb24 O31 2.312 . S
Tb24 O35 2.441 . S
Tb24 O36 2.506 . S
C25 O35 1.244 . S
C25 O36 1.265 . S
O26 Tb21 2.312 . S
O26 C33 1.253 . S
O27 Tb24 2.338 . S
O27 C28 1.258 . S
C28 O27 1.258 . S
C28 O29 1.251 . S
O29 C28 1.251 . S
O30 Tb21 2.271 . S
O30 C22 1.252 . S
O31 C22 1.253 . S
O31 Tb24 2.312 . S
O32 Tb21 2.338 . S
O32 C37 1.258 . S
C33 O23 1.252 . S
C33 O26 1.253 . S
C34 O20 1.265 . S
C34 O39 1.244 . S
O35 Tb24 2.441 . S
O35 C25 1.244 . S
O36 Tb24 2.506 . S
O36 C25 1.265 . S
C37 O32 1.258 . S
C37 O38 1.251 . S
O38 C37 1.251 . S
O39 Tb21 2.441 . S
O39 C34 1.244 . S
O40 Tb41 2.506 . S
O40 C54 1.265 . S
Tb41 O40 2.506 . S
Tb41 O46 2.312 1_455 S
Tb41 O50 2.271 . S
Tb41 O52 2.338 . S
Tb41 O59 2.441 . S
C42 O50 1.252 . S
C42 O51 1.253 . S
O43 Tb44 2.271 . S
O43 C53 1.252 . S
Tb44 O43 2.271 . S
Tb44 O47 2.338 . S
Tb44 O51 2.312 1_655 S
Tb44 O55 2.441 . S
Tb44 O56 2.506 . S
C45 O55 1.244 . S
C45 O56 1.265 . S
O46 Tb41 2.312 1_655 S
O46 C53 1.253 . S
O47 Tb44 2.338 . S
O47 C48 1.258 . S
C48 O47 1.258 . S
C48 O49 1.251 . S
O49 C48 1.251 . S
O50 Tb41 2.271 . S
O50 C42 1.252 . S
O51 C42 1.253 . S
O51 Tb44 2.312 1_455 S
O52 Tb41 2.338 . S
O52 C57 1.258 . S
C53 O43 1.252 . S
C53 O46 1.253 . S
C54 O40 1.265 . S
C54 O59 1.244 . S
O55 Tb44 2.441 . S
O55 C45 1.244 . S
O56 Tb44 2.506 . S
O56 C45 1.265 . S
C57 O52 1.258 . S
C57 O58 1.251 . S
O58 C57 1.251 . S
O59 Tb41 2.441 . S
O59 C54 1.244 . S
O60 Tb61 2.506 . S
O60 C74 1.265 . S
Tb61 O60 2.506 . S
Tb61 O66 2.312 . S
Tb61 O70 2.271 . S
Tb61 O72 2.338 . S
Tb61 O79 2.441 . S
C62 O70 1.252 . S
C62 O71 1.253 . S
O63 Tb64 2.271 . S
O63 C73 1.252 . S
Tb64 O63 2.271 . S
Tb64 O67 2.338 . S
Tb64 O71 2.312 . S
Tb64 O75 2.441 . S
Tb64 O76 2.506 . S
C65 O75 1.244 . S
C65 O76 1.265 . S
O66 Tb61 2.312 . S
O66 C73 1.253 . S
O67 Tb64 2.338 . S
O67 C68 1.258 . S
C68 O67 1.258 . S
C68 O69 1.251 . S
O69 C68 1.251 . S
O70 Tb61 2.271 . S
O70 C62 1.252 . S
O71 C62 1.253 . S
O71 Tb64 2.312 . S
O72 Tb61 2.338 . S
O72 C77 1.258 . S
C73 O63 1.252 . S
C73 O66 1.253 . S
C74 O60 1.265 . S
C74 O79 1.244 . S
O75 Tb64 2.441 . S
O75 C65 1.244 . S
O76 Tb64 2.506 . S
O76 C65 1.265 . S
C77 O72 1.258 . S
C77 O78 1.251 . S
O78 C77 1.251 . S
O79 Tb61 2.441 . S
O79 C74 1.244 . S
O80 Tb81 2.506 . S
O80 C94 1.265 . S
Tb81 O80 2.506 . S
Tb81 O86 2.312 1_655 S
Tb81 O90 2.271 . S
Tb81 O92 2.338 . S
Tb81 O99 2.441 . S
C82 O90 1.252 . S
C82 O91 1.253 . S
O83 Tb84 2.271 . S
O83 C93 1.252 . S
Tb84 O83 2.271 . S
Tb84 O87 2.338 . S
Tb84 O91 2.312 1_455 S
Tb84 O95 2.441 . S
Tb84 O96 2.506 . S
C85 O95 1.244 . S
C85 O96 1.265 . S
O86 Tb81 2.312 1_455 S
O86 C93 1.253 . S
O87 Tb84 2.338 . S
O87 C88 1.258 . S
C88 O87 1.258 . S
C88 O89 1.251 . S
O89 C88 1.251 . S
O90 Tb81 2.271 . S
O90 C82 1.252 . S
O91 C82 1.253 . S
O91 Tb84 2.312 1_655 S
O92 Tb81 2.338 . S
O92 C97 1.258 . S
C93 O83 1.252 . S
C93 O86 1.253 . S
C94 O80 1.265 . S
C94 O99 1.244 . S
O95 Tb84 2.441 . S
O95 C85 1.244 . S
O96 Tb84 2.506 . S
O96 C85 1.265 . S
C97 O92 1.258 . S
C97 O98 1.251 . S
O98 C97 1.251 . S
O99 Tb81 2.441 . S
O99 C94 1.244 . S
O100 Tb101 2.506 . S
O100 C114 1.265 . S
Tb101 O100 2.506 . S
Tb101 O106 2.312 . S
Tb101 O110 2.271 . S
Tb101 O112 2.338 . S
Tb101 O119 2.441 . S
C102 O110 1.252 . S
C102 O111 1.253 . S
O103 Tb104 2.271 . S
O103 C113 1.252 . S
Tb104 O103 2.271 . S
Tb104 O107 2.338 . S
Tb104 O111 2.312 . S
Tb104 O115 2.441 . S
Tb104 O116 2.506 . S
C105 O115 1.244 . S
C105 O116 1.265 . S
O106 Tb101 2.312 . S
O106 C113 1.253 . S
O107 Tb104 2.338 . S
O107 C108 1.258 . S
C108 O107 1.258 . S
C108 O109 1.251 . S
O109 C108 1.251 . S
O110 Tb101 2.271 . S
O110 C102 1.252 . S
O111 C102 1.253 . S
O111 Tb104 2.312 . S
O112 Tb101 2.338 . S
O112 C117 1.258 . S
C113 O103 1.252 . S
C113 O106 1.253 . S
C114 O100 1.265 . S
C114 O119 1.244 . S
O115 Tb104 2.441 . S
O115 C105 1.244 . S
O116 Tb104 2.506 . S
O116 C105 1.265 . S
C117 O112 1.258 . S
C117 O118 1.251 . S
O118 C117 1.251 . S
O119 Tb101 2.441 . S
O119 C114 1.244 . S
O120 Tb121 2.506 . S
O120 C134 1.265 . S
Tb121 O120 2.506 . S
Tb121 O126 2.312 1_455 S
Tb121 O130 2.271 . S
Tb121 O132 2.338 . S
Tb121 O139 2.441 . S
C122 O130 1.252 . S
C122 O131 1.253 . S
O123 Tb124 2.271 . S
O123 C133 1.252 . S
Tb124 O123 2.271 . S
Tb124 O127 2.338 . S
Tb124 O131 2.312 1_655 S
Tb124 O135 2.441 . S
Tb124 O136 2.506 . S
C125 O135 1.244 . S
C125 O136 1.265 . S
O126 Tb121 2.312 1_655 S
O126 C133 1.253 . S
O127 Tb124 2.338 . S
O127 C128 1.258 . S
C128 O127 1.258 . S
C128 O129 1.251 . S
O129 C128 1.251 . S
O130 Tb121 2.271 . S
O130 C122 1.252 . S
O131 C122 1.253 . S
O131 Tb124 2.312 1_455 S
O132 Tb121 2.338 . S
O132 C137 1.258 . S
C133 O123 1.252 . S
C133 O126 1.253 . S
C134 O120 1.265 . S
C134 O139 1.244 . S
O135 Tb124 2.441 . S
O135 C125 1.244 . S
O136 Tb124 2.506 . S
O136 C125 1.265 . S
C137 O132 1.258 . S
C137 O138 1.251 . S
O138 C137 1.251 . S
O139 Tb121 2.441 . S
O139 C134 1.244 . S
O140 Tb141 2.506 . S
O140 C154 1.265 . S
Tb141 O140 2.506 . S
Tb141 O146 2.312 . S
Tb141 O150 2.271 . S
Tb141 O152 2.338 . S
Tb141 O159 2.441 . S
C142 O150 1.252 . S
C142 O151 1.253 . S
O143 Tb144 2.271 . S
O143 C153 1.252 . S
Tb144 O143 2.271 . S
Tb144 O147 2.338 . S
Tb144 O151 2.312 . S
Tb144 O155 2.441 . S
Tb144 O156 2.506 . S
C145 O155 1.244 . S
C145 O156 1.265 . S
O146 Tb141 2.312 . S
O146 C153 1.253 . S
O147 Tb144 2.338 . S
O147 C148 1.258 . S
C148 O147 1.258 . S
C148 O149 1.251 . S
O149 C148 1.251 . S
O150 Tb141 2.271 . S
O150 C142 1.252 . S
O151 C142 1.253 . S
O151 Tb144 2.312 . S
O152 Tb141 2.338 . S
O152 C157 1.258 . S
C153 O143 1.252 . S
C153 O146 1.253 . S
C154 O140 1.265 . S
C154 O159 1.244 . S
O155 Tb144 2.441 . S
O155 C145 1.244 . S
O156 Tb144 2.506 . S
O156 C145 1.265 . S
C157 O152 1.258 . S
C157 O158 1.251 . S
O158 C157 1.251 . S
O159 Tb141 2.441 . S
O159 C154 1.244 . S
O160 Tb161 2.506 . S
O160 C174 1.265 . S
Tb161 O160 2.506 . S
Tb161 O166 2.312 1_565 S
Tb161 O170 2.271 . S
Tb161 O172 2.338 . S
Tb161 O179 2.441 . S
C162 O170 1.252 . S
C162 O171 1.253 . S
O163 Tb164 2.271 . S
O163 C173 1.252 . S
Tb164 O163 2.271 . S
Tb164 O167 2.338 . S
Tb164 O171 2.312 1_545 S
Tb164 O175 2.441 . S
Tb164 O176 2.506 . S
C165 O175 1.244 . S
C165 O176 1.265 . S
O166 Tb161 2.312 1_545 S
O166 C173 1.253 . S
O167 Tb164 2.338 . S
O167 C168 1.258 . S
C168 O167 1.258 . S
C168 O169 1.251 . S
O169 C168 1.251 . S
O170 Tb161 2.271 . S
O170 C162 1.252 . S
O171 C162 1.253 . S
O171 Tb164 2.312 1_565 S
O172 Tb161 2.338 . S
O172 C177 1.258 . S
C173 O163 1.252 . S
C173 O166 1.253 . S
C174 O160 1.265 . S
C174 O179 1.244 . S
O175 Tb164 2.441 . S
O175 C165 1.244 . S
O176 Tb164 2.506 . S
O176 C165 1.265 . S
C177 O172 1.258 . S
C177 O178 1.251 . S
O178 C177 1.251 . S
O179 Tb161 2.441 . S
O179 C174 1.244 . S
O180 Tb181 2.506 . S
O180 C194 1.265 . S
Tb181 O180 2.506 . S
Tb181 O186 2.312 . S
Tb181 O190 2.271 . S
Tb181 O192 2.338 . S
Tb181 O199 2.441 . S
C182 O190 1.252 . S
C182 O191 1.253 . S
O183 Tb184 2.271 . S
O183 C193 1.252 . S
Tb184 O183 2.271 . S
Tb184 O187 2.338 . S
Tb184 O191 2.312 . S
Tb184 O195 2.441 . S
Tb184 O196 2.506 . S
C185 O195 1.244 . S
C185 O196 1.265 . S
O186 Tb181 2.312 . S
O186 C193 1.253 . S
O187 Tb184 2.338 . S
O187 C188 1.258 . S
C188 O187 1.258 . S
C188 O189 1.251 . S
O189 C188 1.251 . S
O190 Tb181 2.271 . S
O190 C182 1.252 . S
O191 C182 1.253 . S
O191 Tb184 2.312 . S
O192 Tb181 2.338 . S
O192 C197 1.258 . S
C193 O183 1.252 . S
C193 O186 1.253 . S
C194 O180 1.265 . S
C194 O199 1.244 . S
O195 Tb184 2.441 . S
O195 C185 1.244 . S
O196 Tb184 2.506 . S
O196 C185 1.265 . S
C197 O192 1.258 . S
C197 O198 1.251 . S
O198 C197 1.251 . S
O199 Tb181 2.441 . S
O199 C194 1.244 . S
O200 Tb201 2.506 . S
O200 C214 1.265 . S
Tb201 O200 2.506 . S
Tb201 O206 2.312 1_545 S
Tb201 O210 2.271 . S
Tb201 O212 2.338 . S
Tb201 O219 2.441 . S
C202 O210 1.252 . S
C202 O211 1.253 . S
O203 Tb204 2.271 . S
O203 C213 1.252 . S
Tb204 O203 2.271 . S
Tb204 O207 2.338 . S
Tb204 O211 2.312 1_565 S
Tb204 O215 2.441 . S
Tb204 O216 2.506 . S
C205 O215 1.244 . S
C205 O216 1.265 . S
O206 Tb201 2.312 1_565 S
O206 C213 1.253 . S
O207 Tb204 2.338 . S
O207 C208 1.258 . S
C208 O207 1.258 . S
C208 O209 1.251 . S
O209 C208 1.251 . S
O210 Tb201 2.271 . S
O210 C202 1.252 . S
O211 C202 1.253 . S
O211 Tb204 2.312 1_545 S
O212 Tb201 2.338 . S
O212 C217 1.258 . S
C213 O203 1.252 . S
C213 O206 1.253 . S
C214 O200 1.265 . S
C214 O219 1.244 . S
O215 Tb204 2.441 . S
O215 C205 1.244 . S
O216 Tb204 2.506 . S
O216 C205 1.265 . S
C217 O212 1.258 . S
C217 O218 1.251 . S
O218 C217 1.251 . S
O219 Tb201 2.441 . S
O219 C214 1.244 . S
O220 Tb221 2.506 . S
O220 C234 1.265 . S
Tb221 O220 2.506 . S
Tb221 O226 2.312 . S
Tb221 O230 2.271 . S
Tb221 O232 2.338 . S
Tb221 O239 2.441 . S
C222 O230 1.252 . S
C222 O231 1.253 . S
O223 Tb224 2.271 . S
O223 C233 1.252 . S
Tb224 O223 2.271 . S
Tb224 O227 2.338 . S
Tb224 O231 2.312 . S
Tb224 O235 2.441 . S
Tb224 O236 2.506 . S
C225 O235 1.244 . S
C225 O236 1.265 . S
O226 Tb221 2.312 . S
O226 C233 1.253 . S
O227 Tb224 2.338 . S
O227 C228 1.258 . S
C228 O227 1.258 . S
C228 O229 1.251 . S
O229 C228 1.251 . S
O230 Tb221 2.271 . S
O230 C222 1.252 . S
O231 C222 1.253 . S
O231 Tb224 2.312 . S
O232 Tb221 2.338 . S
O232 C237 1.258 . S
C233 O223 1.252 . S
C233 O226 1.253 . S
C234 O220 1.265 . S
C234 O239 1.244 . S
O235 Tb224 2.441 . S
O235 C225 1.244 . S
O236 Tb224 2.506 . S
O236 C225 1.265 . S
C237 O232 1.258 . S
C237 O238 1.251 . S
O238 C237 1.251 . S
O239 Tb221 2.441 . S
O239 C234 1.244 . S
O240 Tb241 2.506 . S
O240 C254 1.265 . S
Tb241 O240 2.506 . S
Tb241 O246 2.312 1_545 S
Tb241 O250 2.271 . S
Tb241 O252 2.338 . S
Tb241 O259 2.441 . S
C242 O250 1.252 . S
C242 O251 1.253 . S
O243 Tb244 2.271 . S
O243 C253 1.252 . S
Tb244 O243 2.271 . S
Tb244 O247 2.338 . S
Tb244 O251 2.312 1_565 S
Tb244 O255 2.441 . S
Tb244 O256 2.506 . S
C245 O255 1.244 . S
C245 O256 1.265 . S
O246 Tb241 2.312 1_565 S
O246 C253 1.253 . S
O247 Tb244 2.338 . S
O247 C248 1.258 . S
C248 O247 1.258 . S
C248 O249 1.251 . S
O249 C248 1.251 . S
O250 Tb241 2.271 . S
O250 C242 1.252 . S
O251 C242 1.253 . S
O251 Tb244 2.312 1_545 S
O252 Tb241 2.338 . S
O252 C257 1.258 . S
C253 O243 1.252 . S
C253 O246 1.253 . S
C254 O240 1.265 . S
C254 O259 1.244 . S
O255 Tb244 2.441 . S
O255 C245 1.244 . S
O256 Tb244 2.506 . S
O256 C245 1.265 . S
C257 O252 1.258 . S
C257 O258 1.251 . S
O258 C257 1.251 . S
O259 Tb241 2.441 . S
O259 C254 1.244 . S
O260 Tb261 2.506 . S
O260 C274 1.265 . S
Tb261 O260 2.506 . S
Tb261 O266 2.312 . S
Tb261 O270 2.271 . S
Tb261 O272 2.338 . S
Tb261 O279 2.441 . S
C262 O270 1.252 . S
C262 O271 1.253 . S
O263 Tb264 2.271 . S
O263 C273 1.252 . S
Tb264 O263 2.271 . S
Tb264 O267 2.338 . S
Tb264 O271 2.312 . S
Tb264 O275 2.441 . S
Tb264 O276 2.506 . S
C265 O275 1.244 . S
C265 O276 1.265 . S
O266 Tb261 2.312 . S
O266 C273 1.253 . S
O267 Tb264 2.338 . S
O267 C268 1.258 . S
C268 O267 1.258 . S
C268 O269 1.251 . S
O269 C268 1.251 . S
O270 Tb261 2.271 . S
O270 C262 1.252 . S
O271 C262 1.253 . S
O271 Tb264 2.312 . S
O272 Tb261 2.338 . S
O272 C277 1.258 . S
C273 O263 1.252 . S
C273 O266 1.253 . S
C274 O260 1.265 . S
C274 O279 1.244 . S
O275 Tb264 2.441 . S
O275 C265 1.244 . S
O276 Tb264 2.506 . S
O276 C265 1.265 . S
C277 O272 1.258 . S
C277 O278 1.251 . S
O278 C277 1.251 . S
O279 Tb261 2.441 . S
O279 C274 1.244 . S
O280 Tb281 2.506 . S
O280 C294 1.265 . S
Tb281 O280 2.506 . S
Tb281 O286 2.312 1_565 S
Tb281 O290 2.271 . S
Tb281 O292 2.338 . S
Tb281 O299 2.441 . S
C282 O290 1.252 . S
C282 O291 1.253 . S
O283 Tb284 2.271 . S
O283 C293 1.252 . S
Tb284 O283 2.271 . S
Tb284 O287 2.338 . S
Tb284 O291 2.312 1_545 S
Tb284 O295 2.441 . S
Tb284 O296 2.506 . S
C285 O295 1.244 . S
C285 O296 1.265 . S
O286 Tb281 2.312 1_545 S
O286 C293 1.253 . S
O287 Tb284 2.338 . S
O287 C288 1.258 . S
C288 O287 1.258 . S
C288 O289 1.251 . S
O289 C288 1.251 . S
O290 Tb281 2.271 . S
O290 C282 1.252 . S
O291 C282 1.253 . S
O291 Tb284 2.312 1_565 S
O292 Tb281 2.338 . S
O292 C297 1.258 . S
C293 O283 1.252 . S
C293 O286 1.253 . S
C294 O280 1.265 . S
C294 O299 1.244 . S
O295 Tb284 2.441 . S
O295 C285 1.244 . S
O296 Tb284 2.506 . S
O296 C285 1.265 . S
C297 O292 1.258 . S
C297 O298 1.251 . S
O298 C297 1.251 . S
O299 Tb281 2.441 . S
O299 C294 1.244 . S
O300 Tb301 2.506 . S
O300 C314 1.265 . S
Tb301 O300 2.506 . S
Tb301 O306 2.312 . S
Tb301 O310 2.271 . S
Tb301 O312 2.338 . S
Tb301 O319 2.441 . S
C302 O310 1.252 . S
C302 O311 1.253 . S
O303 Tb304 2.271 . S
O303 C313 1.252 . S
Tb304 O303 2.271 . S
Tb304 O307 2.338 . S
Tb304 O311 2.312 . S
Tb304 O315 2.441 . S
Tb304 O316 2.506 . S
C305 O315 1.244 . S
C305 O316 1.265 . S
O306 Tb301 2.312 . S
O306 C313 1.253 . S
O307 Tb304 2.338 . S
O307 C308 1.258 . S
C308 O307 1.258 . S
C308 O309 1.251 . S
O309 C308 1.251 . S
O310 Tb301 2.271 . S
O310 C302 1.252 . S
O311 C302 1.253 . S
O311 Tb304 2.312 . S
O312 Tb301 2.338 . S
O312 C317 1.258 . S
C313 O303 1.252 . S
C313 O306 1.253 . S
C314 O300 1.265 . S
C314 O319 1.244 . S
O315 Tb304 2.441 . S
O315 C305 1.244 . S
O316 Tb304 2.506 . S
O316 C305 1.265 . S
C317 O312 1.258 . S
C317 O318 1.251 . S
O318 C317 1.251 . S
O319 Tb301 2.441 . S
O319 C314 1.244 . S
O320 Tb321 2.506 . S
O320 C334 1.265 . S
Tb321 O320 2.506 . S
Tb321 O326 2.312 1_556 S
Tb321 O330 2.271 . S
Tb321 O332 2.338 . S
Tb321 O339 2.441 . S
C322 O330 1.252 . S
C322 O331 1.253 . S
O323 Tb324 2.271 . S
O323 C333 1.252 . S
Tb324 O323 2.271 . S
Tb324 O327 2.338 . S
Tb324 O331 2.312 1_554 S
Tb324 O335 2.441 . S
Tb324 O336 2.506 . S
C325 O335 1.244 . S
C325 O336 1.265 . S
O326 Tb321 2.312 1_554 S
O326 C333 1.253 . S
O327 Tb324 2.338 . S
O327 C328 1.258 . S
C328 O327 1.258 . S
C328 O329 1.251 . S
O329 C328 1.251 . S
O330 Tb321 2.271 . S
O330 C322 1.252 . S
O331 C322 1.253 . S
O331 Tb324 2.312 1_556 S
O332 Tb321 2.338 . S
O332 C337 1.258 . S
C333 O323 1.252 . S
C333 O326 1.253 . S
C334 O320 1.265 . S
C334 O339 1.244 . S
O335 Tb324 2.441 . S
O335 C325 1.244 . S
O336 Tb324 2.506 . S
O336 C325 1.265 . S
C337 O332 1.258 . S
C337 O338 1.251 . S
O338 C337 1.251 . S
O339 Tb321 2.441 . S
O339 C334 1.244 . S
O340 Tb341 2.506 . S
O340 C354 1.265 . S
Tb341 O340 2.506 . S
Tb341 O346 2.312 1_554 S
Tb341 O350 2.271 . S
Tb341 O352 2.338 . S
Tb341 O359 2.441 . S
C342 O350 1.252 . S
C342 O351 1.253 . S
O343 Tb344 2.271 . S
O343 C353 1.252 . S
Tb344 O343 2.271 . S
Tb344 O347 2.338 . S
Tb344 O351 2.312 1_556 S
Tb344 O355 2.441 . S
Tb344 O356 2.506 . S
C345 O355 1.244 . S
C345 O356 1.265 . S
O346 Tb341 2.312 1_556 S
O346 C353 1.253 . S
O347 Tb344 2.338 . S
O347 C348 1.258 . S
C348 O347 1.258 . S
C348 O349 1.251 . S
O349 C348 1.251 . S
O350 Tb341 2.271 . S
O350 C342 1.252 . S
O351 C342 1.253 . S
O351 Tb344 2.312 1_554 S
O352 Tb341 2.338 . S
O352 C357 1.258 . S
C353 O343 1.252 . S
C353 O346 1.253 . S
C354 O340 1.265 . S
C354 O359 1.244 . S
O355 Tb344 2.441 . S
O355 C345 1.244 . S
O356 Tb344 2.506 . S
O356 C345 1.265 . S
C357 O352 1.258 . S
C357 O358 1.251 . S
O358 C357 1.251 . S
O359 Tb341 2.441 . S
O359 C354 1.244 . S
O360 Tb361 2.506 . S
O360 C374 1.265 . S
Tb361 O360 2.506 . S
Tb361 O366 2.312 . S
Tb361 O370 2.271 . S
Tb361 O372 2.338 . S
Tb361 O379 2.441 . S
C362 O370 1.252 . S
C362 O371 1.253 . S
O363 Tb364 2.271 . S
O363 C373 1.252 . S
Tb364 O363 2.271 . S
Tb364 O367 2.338 . S
Tb364 O371 2.312 . S
Tb364 O375 2.441 . S
Tb364 O376 2.506 . S
C365 O375 1.244 . S
C365 O376 1.265 . S
O366 Tb361 2.312 . S
O366 C373 1.253 . S
O367 Tb364 2.338 . S
O367 C368 1.258 . S
C368 O367 1.258 . S
C368 O369 1.251 . S
O369 C368 1.251 . S
O370 Tb361 2.271 . S
O370 C362 1.252 . S
O371 C362 1.253 . S
O371 Tb364 2.312 . S
O372 Tb361 2.338 . S
O372 C377 1.258 . S
C373 O363 1.252 . S
C373 O366 1.253 . S
C374 O360 1.265 . S
C374 O379 1.244 . S
O375 Tb364 2.441 . S
O375 C365 1.244 . S
O376 Tb364 2.506 . S
O376 C365 1.265 . S
C377 O372 1.258 . S
C377 O378 1.251 . S
O378 C377 1.251 . S
O379 Tb361 2.441 . S
O379 C374 1.244 . S
O380 Tb381 2.506 . S
O380 C394 1.265 . S
Tb381 O380 2.506 . S
Tb381 O386 2.312 1_554 S
Tb381 O390 2.271 . S
Tb381 O392 2.338 . S
Tb381 O399 2.441 . S
C382 O390 1.252 . S
C382 O391 1.253 . S
O383 Tb384 2.271 . S
O383 C393 1.252 . S
Tb384 O383 2.271 . S
Tb384 O387 2.338 . S
Tb384 O391 2.312 1_556 S
Tb384 O395 2.441 . S
Tb384 O396 2.506 . S
C385 O395 1.244 . S
C385 O396 1.265 . S
O386 Tb381 2.312 1_556 S
O386 C393 1.253 . S
O387 Tb384 2.338 . S
O387 C388 1.258 . S
C388 O387 1.258 . S
C388 O389 1.251 . S
O389 C388 1.251 . S
O390 Tb381 2.271 . S
O390 C382 1.252 . S
O391 C382 1.253 . S
O391 Tb384 2.312 1_554 S
O392 Tb381 2.338 . S
O392 C397 1.258 . S
C393 O383 1.252 . S
C393 O386 1.253 . S
C394 O380 1.265 . S
C394 O399 1.244 . S
O395 Tb384 2.441 . S
O395 C385 1.244 . S
O396 Tb384 2.506 . S
O396 C385 1.265 . S
C397 O392 1.258 . S
C397 O398 1.251 . S
O398 C397 1.251 . S
O399 Tb381 2.441 . S
O399 C394 1.244 . S
O400 Tb401 2.506 . S
O400 C414 1.265 . S
Tb401 O400 2.506 . S
Tb401 O406 2.312 . S
Tb401 O410 2.271 . S
Tb401 O412 2.338 . S
Tb401 O419 2.441 . S
C402 O410 1.252 . S
C402 O411 1.253 . S
O403 Tb404 2.271 . S
O403 C413 1.252 . S
Tb404 O403 2.271 . S
Tb404 O407 2.338 . S
Tb404 O411 2.312 . S
Tb404 O415 2.441 . S
Tb404 O416 2.506 . S
C405 O415 1.244 . S
C405 O416 1.265 . S
O406 Tb401 2.312 . S
O406 C413 1.253 . S
O407 Tb404 2.338 . S
O407 C408 1.258 . S
C408 O407 1.258 . S
C408 O409 1.251 . S
O409 C408 1.251 . S
O410 Tb401 2.271 . S
O410 C402 1.252 . S
O411 C402 1.253 . S
O411 Tb404 2.312 . S
O412 Tb401 2.338 . S
O412 C417 1.258 . S
C413 O403 1.252 . S
C413 O406 1.253 . S
C414 O400 1.265 . S
C414 O419 1.244 . S
O415 Tb404 2.441 . S
O415 C405 1.244 . S
O416 Tb404 2.506 . S
O416 C405 1.265 . S
C417 O412 1.258 . S
C417 O418 1.251 . S
O418 C417 1.251 . S
O419 Tb401 2.441 . S
O419 C414 1.244 . S
O420 Tb421 2.506 . S
O420 C434 1.265 . S
Tb421 O420 2.506 . S
Tb421 O426 2.312 1_556 S
Tb421 O430 2.271 . S
Tb421 O432 2.338 . S
Tb421 O439 2.441 . S
C422 O430 1.252 . S
C422 O431 1.253 . S
O423 Tb424 2.271 . S
O423 C433 1.252 . S
Tb424 O423 2.271 . S
Tb424 O427 2.338 . S
Tb424 O431 2.312 1_554 S
Tb424 O435 2.441 . S
Tb424 O436 2.506 . S
C425 O435 1.244 . S
C425 O436 1.265 . S
O426 Tb421 2.312 1_554 S
O426 C433 1.253 . S
O427 Tb424 2.338 . S
O427 C428 1.258 . S
C428 O427 1.258 . S
C428 O429 1.251 . S
O429 C428 1.251 . S
O430 Tb421 2.271 . S
O430 C422 1.252 . S
O431 C422 1.253 . S
O431 Tb424 2.312 1_556 S
O432 Tb421 2.338 . S
O432 C437 1.258 . S
C433 O423 1.252 . S
C433 O426 1.253 . S
C434 O420 1.265 . S
C434 O439 1.244 . S
O435 Tb424 2.441 . S
O435 C425 1.244 . S
O436 Tb424 2.506 . S
O436 C425 1.265 . S
C437 O432 1.258 . S
C437 O438 1.251 . S
O438 C437 1.251 . S
O439 Tb421 2.441 . S
O439 C434 1.244 . S
O440 Tb441 2.506 . S
O440 C454 1.265 . S
Tb441 O440 2.506 . S
Tb441 O446 2.312 . S
Tb441 O450 2.271 . S
Tb441 O452 2.338 . S
Tb441 O459 2.441 . S
C442 O450 1.252 . S
C442 O451 1.253 . S
O443 Tb444 2.271 . S
O443 C453 1.252 . S
Tb444 O443 2.271 . S
Tb444 O447 2.338 . S
Tb444 O451 2.312 . S
Tb444 O455 2.441 . S
Tb444 O456 2.506 . S
C445 O455 1.244 . S
C445 O456 1.265 . S
O446 Tb441 2.312 . S
O446 C453 1.253 . S
O447 Tb444 2.338 . S
O447 C448 1.258 . S
C448 O447 1.258 . S
C448 O449 1.251 . S
O449 C448 1.251 . S
O450 Tb441 2.271 . S
O450 C442 1.252 . S
O451 C442 1.253 . S
O451 Tb444 2.312 . S
O452 Tb441 2.338 . S
O452 C457 1.258 . S
C453 O443 1.252 . S
C453 O446 1.253 . S
C454 O440 1.265 . S
C454 O459 1.244 . S
O455 Tb444 2.441 . S
O455 C445 1.244 . S
O456 Tb444 2.506 . S
O456 C445 1.265 . S
C457 O452 1.258 . S
C457 O458 1.251 . S
O458 C457 1.251 . S
O459 Tb441 2.441 . S
O459 C454 1.244 . S
O460 Tb461 2.506 . S
O460 C474 1.265 . S
Tb461 O460 2.506 . S
Tb461 O466 2.312 . S
Tb461 O470 2.271 . S
Tb461 O472 2.338 . S
Tb461 O479 2.441 . S
C462 O470 1.252 . S
C462 O471 1.253 . S
O463 Tb464 2.271 . S
O463 C473 1.252 . S
Tb464 O463 2.271 . S
Tb464 O467 2.338 . S
Tb464 O471 2.312 . S
Tb464 O475 2.441 . S
Tb464 O476 2.506 . S
C465 O475 1.244 . S
C465 O476 1.265 . S
O466 Tb461 2.312 . S
O466 C473 1.253 . S
O467 Tb464 2.338 . S
O467 C468 1.258 . S
C468 O467 1.258 . S
C468 O469 1.251 . S
O469 C468 1.251 . S
O470 Tb461 2.271 . S
O470 C462 1.252 . S
O471 C462 1.253 . S
O471 Tb464 2.312 . S
O472 Tb461 2.338 . S
O472 C477 1.258 . S
C473 O463 1.252 . S
C473 O466 1.253 . S
C474 O460 1.265 . S
C474 O479 1.244 . S
O475 Tb464 2.441 . S
O475 C465 1.244 . S
O476 Tb464 2.506 . S
O476 C465 1.265 . S
C477 O472 1.258 . S
C477 O478 1.251 . S
O478 C477 1.251 . S
O479 Tb461 2.441 . S
O479 C474 1.244 . S
C480 C481 1.369 . S
C480 C482 1.419 . S
C480 H484 0.930 . S
C481 C480 1.369 . S
C481 C490 1.429 . S
C482 C480 1.419 . S
C482 C483 1.363 . S
C482 H485 0.929 . S
C483 C482 1.363 . S
C483 C489 1.428 . S
H484 C480 0.930 . S
H485 C482 0.929 . S
S486 N487 1.613 . S
S486 N488 1.610 . S
N487 S486 1.613 . S
N487 C490 1.350 . S
N488 S486 1.610 . S
N488 C489 1.351 . S
C489 C483 1.428 . S
C489 N488 1.351 . S
C489 C490 1.434 . S
C490 C481 1.429 . S
C490 N487 1.350 . S
C490 C489 1.434 . S
C491 C492 1.369 . S
C491 C493 1.419 . S
C491 H495 0.930 . S
C492 C491 1.369 . S
C492 C501 1.429 . S
C493 C491 1.419 . S
C493 C494 1.363 . S
C493 H496 0.929 . S
C494 C493 1.363 . S
C494 C500 1.428 . S
H495 C491 0.930 . S
H496 C493 0.929 . S
S497 N498 1.613 . S
S497 N499 1.610 . S
N498 S497 1.613 . S
N498 C501 1.350 . S
N499 S497 1.610 . S
N499 C500 1.351 . S
C500 C494 1.428 . S
C500 N499 1.351 . S
C500 C501 1.434 . S
C501 C492 1.429 . S
C501 N498 1.350 . S
C501 C500 1.434 . S
C502 C503 1.369 . S
C502 C504 1.419 . S
C502 H506 0.930 . S
C503 C502 1.369 . S
C503 C512 1.429 . S
C504 C502 1.419 . S
C504 C505 1.363 . S
C504 H507 0.929 . S
C505 C504 1.363 . S
C505 C511 1.428 . S
H506 C502 0.930 . S
H507 C504 0.929 . S
S508 N509 1.613 . S
S508 N510 1.610 . S
N509 S508 1.613 . S
N509 C512 1.350 . S
N510 S508 1.610 . S
N510 C511 1.351 . S
C511 C505 1.428 . S
C511 N510 1.351 . S
C511 C512 1.434 . S
C512 C503 1.429 . S
C512 N509 1.350 . S
C512 C511 1.434 . S
C513 C514 1.369 . S
C513 C515 1.419 . S
C513 H517 0.930 . S
C514 C513 1.369 . S
C514 C523 1.429 . S
C515 C513 1.419 . S
C515 C516 1.363 . S
C515 H518 0.929 . S
C516 C515 1.363 . S
C516 C522 1.428 . S
H517 C513 0.930 . S
H518 C515 0.929 . S
S519 N520 1.613 . S
S519 N521 1.610 . S
N520 S519 1.613 . S
N520 C523 1.350 . S
N521 S519 1.610 . S
N521 C522 1.351 . S
C522 C516 1.428 . S
C522 N521 1.351 . S
C522 C523 1.434 . S
C523 C514 1.429 . S
C523 N520 1.350 . S
C523 C522 1.434 . S
C524 C525 1.369 . S
C524 C526 1.419 . S
C524 H528 0.930 . S
C525 C524 1.369 . S
C525 C534 1.429 . S
C526 C524 1.419 . S
C526 C527 1.363 . S
C526 H529 0.929 . S
C527 C526 1.363 . S
C527 C533 1.428 . S
H528 C524 0.930 . S
H529 C526 0.929 . S
S530 N531 1.613 . S
S530 N532 1.610 . S
N531 S530 1.613 . S
N531 C534 1.350 . S
N532 S530 1.610 . S
N532 C533 1.351 . S
C533 C527 1.428 . S
C533 N532 1.351 . S
C533 C534 1.434 . S
C534 C525 1.429 . S
C534 N531 1.350 . S
C534 C533 1.434 . S
C535 C536 1.369 . S
C535 C537 1.419 . S
C535 H539 0.930 . S
C536 C535 1.369 . S
C536 C545 1.429 . S
C537 C535 1.419 . S
C537 C538 1.363 . S
C537 H540 0.929 . S
C538 C537 1.363 . S
C538 C544 1.428 . S
H539 C535 0.930 . S
H540 C537 0.929 . S
S541 N542 1.613 . S
S541 N543 1.610 . S
N542 S541 1.613 . S
N542 C545 1.350 . S
N543 S541 1.610 . S
N543 C544 1.351 . S
C544 C538 1.428 . S
C544 N543 1.351 . S
C544 C545 1.434 . S
C545 C536 1.429 . S
C545 N542 1.350 . S
C545 C544 1.434 . S
C546 C547 1.369 . S
C546 C548 1.419 . S
C546 H550 0.930 . S
C547 C546 1.369 . S
C547 C556 1.429 . S
C548 C546 1.419 . S
C548 C549 1.363 . S
C548 H551 0.929 . S
C549 C548 1.363 . S
C549 C555 1.428 . S
H550 C546 0.930 . S
H551 C548 0.929 . S
S552 N553 1.613 . S
S552 N554 1.610 . S
N553 S552 1.613 . S
N553 C556 1.350 . S
N554 S552 1.610 . S
N554 C555 1.351 . S
C555 C549 1.428 . S
C555 N554 1.351 . S
C555 C556 1.434 . S
C556 C547 1.429 . S
C556 N553 1.350 . S
C556 C555 1.434 . S
C557 C558 1.369 . S
C557 C559 1.419 . S
C557 H561 0.930 . S
C558 C557 1.369 . S
C558 C567 1.429 . S
C559 C557 1.419 . S
C559 C560 1.363 . S
C559 H562 0.929 . S
C560 C559 1.363 . S
C560 C566 1.428 . S
H561 C557 0.930 . S
H562 C559 0.929 . S
S563 N564 1.613 . S
S563 N565 1.610 . S
N564 S563 1.613 . S
N564 C567 1.350 . S
N565 S563 1.610 . S
N565 C566 1.351 . S
C566 C560 1.428 . S
C566 N565 1.351 . S
C566 C567 1.434 . S
C567 C558 1.429 . S
C567 N564 1.350 . S
C567 C566 1.434 . S
C568 C569 1.369 . S
C568 C570 1.419 . S
C568 H572 0.930 . S
C569 C568 1.369 . S
C569 C578 1.429 . S
C570 C568 1.419 . S
C570 C571 1.363 . S
C570 H573 0.929 . S
C571 C570 1.363 . S
C571 C577 1.428 . S
H572 C568 0.930 . S
H573 C570 0.929 . S
S574 N575 1.613 . S
S574 N576 1.610 . S
N575 S574 1.613 . S
N575 C578 1.350 . S
N576 S574 1.610 . S
N576 C577 1.351 . S
C577 C571 1.428 . S
C577 N576 1.351 . S
C577 C578 1.434 . S
C578 C569 1.429 . S
C578 N575 1.350 . S
C578 C577 1.434 . S
C579 C580 1.369 . S
C579 C581 1.419 . S
C579 H583 0.930 . S
C580 C579 1.369 . S
C580 C589 1.429 . S
C581 C579 1.419 . S
C581 C582 1.363 . S
C581 H584 0.929 . S
C582 C581 1.363 . S
C582 C588 1.428 . S
H583 C579 0.930 . S
H584 C581 0.929 . S
S585 N586 1.613 . S
S585 N587 1.610 . S
N586 S585 1.613 . S
N586 C589 1.350 . S
N587 S585 1.610 . S
N587 C588 1.351 . S
C588 C582 1.428 . S
C588 N587 1.351 . S
C588 C589 1.434 . S
C589 C580 1.429 . S
C589 N586 1.350 . S
C589 C588 1.434 . S
C590 C591 1.369 . S
C590 C592 1.419 . S
C590 H594 0.930 . S
C591 C590 1.369 . S
C591 C600 1.429 . S
C592 C590 1.419 . S
C592 C593 1.363 . S
C592 H595 0.929 . S
C593 C592 1.363 . S
C593 C599 1.428 . S
H594 C590 0.930 . S
H595 C592 0.929 . S
S596 N597 1.613 . S
S596 N598 1.610 . S
N597 S596 1.613 . S
N597 C600 1.350 . S
N598 S596 1.610 . S
N598 C599 1.351 . S
C599 C593 1.428 . S
C599 N598 1.351 . S
C599 C600 1.434 . S
C600 C591 1.429 . S
C600 N597 1.350 . S
C600 C599 1.434 . S
C601 C602 1.369 . S
C601 C603 1.419 . S
C601 H605 0.930 . S
C602 C601 1.369 . S
C602 C611 1.429 . S
C603 C601 1.419 . S
C603 C604 1.363 . S
C603 H606 0.929 . S
C604 C603 1.363 . S
C604 C610 1.428 . S
H605 C601 0.930 . S
H606 C603 0.929 . S
S607 N608 1.613 . S
S607 N609 1.610 . S
N608 S607 1.613 . S
N608 C611 1.350 . S
N609 S607 1.610 . S
N609 C610 1.351 . S
C610 C604 1.428 . S
C610 N609 1.351 . S
C610 C611 1.434 . S
C611 C602 1.429 . S
C611 N608 1.350 . S
C611 C610 1.434 . S
C612 C613 1.369 . S
C612 C614 1.419 . S
C612 H616 0.930 . S
C613 C612 1.369 . S
C613 C622 1.429 . S
C614 C612 1.419 . S
C614 C615 1.363 . S
C614 H617 0.929 . S
C615 C614 1.363 . S
C615 C621 1.428 . S
H616 C612 0.930 . S
H617 C614 0.929 . S
S618 N619 1.613 . S
S618 N620 1.610 . S
N619 S618 1.613 . S
N619 C622 1.350 . S
N620 S618 1.610 . S
N620 C621 1.351 . S
C621 C615 1.428 . S
C621 N620 1.351 . S
C621 C622 1.434 . S
C622 C613 1.429 . S
C622 N619 1.350 . S
C622 C621 1.434 . S
C623 C624 1.369 . S
C623 C625 1.419 . S
C623 H627 0.930 . S
C624 C623 1.369 . S
C624 C633 1.429 . S
C625 C623 1.419 . S
C625 C626 1.363 . S
C625 H628 0.929 . S
C626 C625 1.363 . S
C626 C632 1.428 . S
H627 C623 0.930 . S
H628 C625 0.929 . S
S629 N630 1.613 . S
S629 N631 1.610 . S
N630 S629 1.613 . S
N630 C633 1.350 . S
N631 S629 1.610 . S
N631 C632 1.351 . S
C632 C626 1.428 . S
C632 N631 1.351 . S
C632 C633 1.434 . S
C633 C624 1.429 . S
C633 N630 1.350 . S
C633 C632 1.434 . S
C634 C635 1.369 . S
C634 C636 1.419 . S
C634 H638 0.930 . S
C635 C634 1.369 . S
C635 C644 1.429 . S
C636 C634 1.419 . S
C636 C637 1.363 . S
C636 H639 0.929 . S
C637 C636 1.363 . S
C637 C643 1.428 . S
H638 C634 0.930 . S
H639 C636 0.929 . S
S640 N641 1.613 . S
S640 N642 1.610 . S
N641 S640 1.613 . S
N641 C644 1.350 . S
N642 S640 1.610 . S
N642 C643 1.351 . S
C643 C637 1.428 . S
C643 N642 1.351 . S
C643 C644 1.434 . S
C644 C635 1.429 . S
C644 N641 1.350 . S
C644 C643 1.434 . S
C645 C646 1.369 . S
C645 C647 1.419 . S
C645 H649 0.930 . S
C646 C645 1.369 . S
C646 C655 1.429 . S
C647 C645 1.419 . S
C647 C648 1.363 . S
C647 H650 0.929 . S
C648 C647 1.363 . S
C648 C654 1.428 . S
H649 C645 0.930 . S
H650 C647 0.929 . S
S651 N652 1.613 . S
S651 N653 1.610 . S
N652 S651 1.613 . S
N652 C655 1.350 . S
N653 S651 1.610 . S
N653 C654 1.351 . S
C654 C648 1.428 . S
C654 N653 1.351 . S
C654 C655 1.434 . S
C655 C646 1.429 . S
C655 N652 1.350 . S
C655 C654 1.434 . S
C656 C657 1.369 . S
C656 C658 1.419 . S
C656 H660 0.930 . S
C657 C656 1.369 . S
C657 C666 1.429 . S
C658 C656 1.419 . S
C658 C659 1.363 . S
C658 H661 0.929 . S
C659 C658 1.363 . S
C659 C665 1.428 . S
H660 C656 0.930 . S
H661 C658 0.929 . S
S662 N663 1.613 . S
S662 N664 1.610 . S
N663 S662 1.613 . S
N663 C666 1.350 . S
N664 S662 1.610 . S
N664 C665 1.351 . S
C665 C659 1.428 . S
C665 N664 1.351 . S
C665 C666 1.434 . S
C666 C657 1.429 . S
C666 N663 1.350 . S
C666 C665 1.434 . S
C667 C668 1.369 . S
C667 C669 1.419 . S
C667 H671 0.930 . S
C668 C667 1.369 . S
C668 C677 1.429 . S
C669 C667 1.419 . S
C669 C670 1.363 . S
C669 H672 0.929 . S
C670 C669 1.363 . S
C670 C676 1.428 . S
H671 C667 0.930 . S
H672 C669 0.929 . S
S673 N674 1.613 . S
S673 N675 1.610 . S
N674 S673 1.613 . S
N674 C677 1.350 . S
N675 S673 1.610 . S
N675 C676 1.351 . S
C676 C670 1.428 . S
C676 N675 1.351 . S
C676 C677 1.434 . S
C677 C668 1.429 . S
C677 N674 1.350 . S
C677 C676 1.434 . S
C678 C679 1.369 . S
C678 C680 1.419 . S
C678 H682 0.930 . S
C679 C678 1.369 . S
C679 C688 1.429 . S
C680 C678 1.419 . S
C680 C681 1.363 . S
C680 H683 0.929 . S
C681 C680 1.363 . S
C681 C687 1.428 . S
H682 C678 0.930 . S
H683 C680 0.929 . S
S684 N685 1.613 . S
S684 N686 1.610 . S
N685 S684 1.613 . S
N685 C688 1.350 . S
N686 S684 1.610 . S
N686 C687 1.351 . S
C687 C681 1.428 . S
C687 N686 1.351 . S
C687 C688 1.434 . S
C688 C679 1.429 . S
C688 N685 1.350 . S
C688 C687 1.434 . S
C689 C690 1.369 . S
C689 C691 1.419 . S
C689 H693 0.930 . S
C690 C689 1.369 . S
C690 C699 1.429 . S
C691 C689 1.419 . S
C691 C692 1.363 . S
C691 H694 0.929 . S
C692 C691 1.363 . S
C692 C698 1.428 . S
H693 C689 0.930 . S
H694 C691 0.929 . S
S695 N696 1.613 . S
S695 N697 1.610 . S
N696 S695 1.613 . S
N696 C699 1.350 . S
N697 S695 1.610 . S
N697 C698 1.351 . S
C698 C692 1.428 . S
C698 N697 1.351 . S
C698 C699 1.434 . S
C699 C690 1.429 . S
C699 N696 1.350 . S
C699 C698 1.434 . S
C700 C701 1.369 . S
C700 C702 1.419 . S
C700 H704 0.930 . S
C701 C700 1.369 . S
C701 C710 1.429 . S
C702 C700 1.419 . S
C702 C703 1.363 . S
C702 H705 0.929 . S
C703 C702 1.363 . S
C703 C709 1.428 . S
H704 C700 0.930 . S
H705 C702 0.929 . S
S706 N707 1.613 . S
S706 N708 1.610 . S
N707 S706 1.613 . S
N707 C710 1.350 . S
N708 S706 1.610 . S
N708 C709 1.351 . S
C709 C703 1.428 . S
C709 N708 1.351 . S
C709 C710 1.434 . S
C710 C701 1.429 . S
C710 N707 1.350 . S
C710 C709 1.434 . S
C711 C712 1.369 . S
C711 C713 1.419 . S
C711 H715 0.930 . S
C712 C711 1.369 . S
C712 C721 1.429 . S
C713 C711 1.419 . S
C713 C714 1.363 . S
C713 H716 0.929 . S
C714 C713 1.363 . S
C714 C720 1.428 . S
H715 C711 0.930 . S
H716 C713 0.929 . S
S717 N718 1.613 . S
S717 N719 1.610 . S
N718 S717 1.613 . S
N718 C721 1.350 . S
N719 S717 1.610 . S
N719 C720 1.351 . S
C720 C714 1.428 . S
C720 N719 1.351 . S
C720 C721 1.434 . S
C721 C712 1.429 . S
C721 N718 1.350 . S
C721 C720 1.434 . S
C722 C723 1.369 . S
C722 C724 1.419 . S
C722 H726 0.930 . S
C723 C722 1.369 . S
C723 C732 1.429 . S
C724 C722 1.419 . S
C724 C725 1.363 . S
C724 H727 0.929 . S
C725 C724 1.363 . S
C725 C731 1.428 . S
H726 C722 0.930 . S
H727 C724 0.929 . S
S728 N729 1.613 . S
S728 N730 1.610 . S
N729 S728 1.613 . S
N729 C732 1.350 . S
N730 S728 1.610 . S
N730 C731 1.351 . S
C731 C725 1.428 . S
C731 N730 1.351 . S
C731 C732 1.434 . S
C732 C723 1.429 . S
C732 N729 1.350 . S
C732 C731 1.434 . S
C733 C734 1.369 . S
C733 C735 1.419 . S
C733 H737 0.930 . S
C734 C733 1.369 . S
C734 C743 1.429 . S
C735 C733 1.419 . S
C735 C736 1.363 . S
C735 H738 0.929 . S
C736 C735 1.363 . S
C736 C742 1.428 . S
H737 C733 0.930 . S
H738 C735 0.929 . S
S739 N740 1.613 . S
S739 N741 1.610 . S
N740 S739 1.613 . S
N740 C743 1.350 . S
N741 S739 1.610 . S
N741 C742 1.351 . S
C742 C736 1.428 . S
C742 N741 1.351 . S
C742 C743 1.434 . S
C743 C734 1.429 . S
C743 N740 1.350 . S
C743 C742 1.434 . S
C744 C745 1.369 . S
C744 C746 1.419 . S
C744 H748 0.930 . S
C745 C744 1.369 . S
C745 C754 1.429 . S
C746 C744 1.419 . S
C746 C747 1.363 . S
C746 H749 0.929 . S
C747 C746 1.363 . S
C747 C753 1.428 . S
H748 C744 0.930 . S
H749 C746 0.929 . S
S750 N751 1.613 . S
S750 N752 1.610 . S
N751 S750 1.613 . S
N751 C754 1.350 . S
N752 S750 1.610 . S
N752 C753 1.351 . S
C753 C747 1.428 . S
C753 N752 1.351 . S
C753 C754 1.434 . S
C754 C745 1.429 . S
C754 N751 1.350 . S
C754 C753 1.434 . S
C755 C756 1.369 . S
C755 C757 1.419 . S
C755 H759 0.930 . S
C756 C755 1.369 . S
C756 C765 1.429 . S
C757 C755 1.419 . S
C757 C758 1.363 . S
C757 H760 0.929 . S
C758 C757 1.363 . S
C758 C764 1.428 . S
H759 C755 0.930 . S
H760 C757 0.929 . S
S761 N762 1.613 . S
S761 N763 1.610 . S
N762 S761 1.613 . S
N762 C765 1.350 . S
N763 S761 1.610 . S
N763 C764 1.351 . S
C764 C758 1.428 . S
C764 N763 1.351 . S
C764 C765 1.434 . S
C765 C756 1.429 . S
C765 N762 1.350 . S
C765 C764 1.434 . S
C766 C767 1.369 . S
C766 C768 1.419 . S
C766 H770 0.930 . S
C767 C766 1.369 . S
C767 C776 1.429 . S
C768 C766 1.419 . S
C768 C769 1.363 . S
C768 H771 0.929 . S
C769 C768 1.363 . S
C769 C775 1.428 . S
H770 C766 0.930 . S
H771 C768 0.929 . S
S772 N773 1.613 . S
S772 N774 1.610 . S
N773 S772 1.613 . S
N773 C776 1.350 . S
N774 S772 1.610 . S
N774 C775 1.351 . S
C775 C769 1.428 . S
C775 N774 1.351 . S
C775 C776 1.434 . S
C776 C767 1.429 . S
C776 N773 1.350 . S
C776 C775 1.434 . S
C777 C778 1.369 . S
C777 C779 1.419 . S
C777 H781 0.930 . S
C778 C777 1.369 . S
C778 C787 1.429 . S
C779 C777 1.419 . S
C779 C780 1.363 . S
C779 H782 0.929 . S
C780 C779 1.363 . S
C780 C786 1.428 . S
H781 C777 0.930 . S
H782 C779 0.929 . S
S783 N784 1.613 . S
S783 N785 1.610 . S
N784 S783 1.613 . S
N784 C787 1.350 . S
N785 S783 1.610 . S
N785 C786 1.351 . S
C786 C780 1.428 . S
C786 N785 1.351 . S
C786 C787 1.434 . S
C787 C778 1.429 . S
C787 N784 1.350 . S
C787 C786 1.434 . S
C788 C789 1.369 . S
C788 C790 1.419 . S
C788 H792 0.930 . S
C789 C788 1.369 . S
C789 C798 1.429 . S
C790 C788 1.419 . S
C790 C791 1.363 . S
C790 H793 0.929 . S
C791 C790 1.363 . S
C791 C797 1.428 . S
H792 C788 0.930 . S
H793 C790 0.929 . S
S794 N795 1.613 . S
S794 N796 1.610 . S
N795 S794 1.613 . S
N795 C798 1.350 . S
N796 S794 1.610 . S
N796 C797 1.351 . S
C797 C791 1.428 . S
C797 N796 1.351 . S
C797 C798 1.434 . S
C798 C789 1.429 . S
C798 N795 1.350 . S
C798 C797 1.434 . S
C799 C800 1.369 . S
C799 C801 1.419 . S
C799 H803 0.930 . S
C800 C799 1.369 . S
C800 C809 1.429 . S
C801 C799 1.419 . S
C801 C802 1.363 . S
C801 H804 0.929 . S
C802 C801 1.363 . S
C802 C808 1.428 . S
H803 C799 0.930 . S
H804 C801 0.929 . S
S805 N806 1.613 . S
S805 N807 1.610 . S
N806 S805 1.613 . S
N806 C809 1.350 . S
N807 S805 1.610 . S
N807 C808 1.351 . S
C808 C802 1.428 . S
C808 N807 1.351 . S
C808 C809 1.434 . S
C809 C800 1.429 . S
C809 N806 1.350 . S
C809 C808 1.434 . S
C810 C811 1.369 . S
C810 C812 1.419 . S
C810 H814 0.930 . S
C811 C810 1.369 . S
C811 C820 1.429 . S
C812 C810 1.419 . S
C812 C813 1.363 . S
C812 H815 0.929 . S
C813 C812 1.363 . S
C813 C819 1.428 . S
H814 C810 0.930 . S
H815 C812 0.929 . S
S816 N817 1.613 . S
S816 N818 1.610 . S
N817 S816 1.613 . S
N817 C820 1.350 . S
N818 S816 1.610 . S
N818 C819 1.351 . S
C819 C813 1.428 . S
C819 N818 1.351 . S
C819 C820 1.434 . S
C820 C811 1.429 . S
C820 N817 1.350 . S
C820 C819 1.434 . S
C821 C822 1.369 . S
C821 C823 1.419 . S
C821 H825 0.930 . S
C822 C821 1.369 . S
C822 C831 1.429 . S
C823 C821 1.419 . S
C823 C824 1.363 . S
C823 H826 0.929 . S
C824 C823 1.363 . S
C824 C830 1.428 . S
H825 C821 0.930 . S
H826 C823 0.929 . S
S827 N828 1.613 . S
S827 N829 1.610 . S
N828 S827 1.613 . S
N828 C831 1.350 . S
N829 S827 1.610 . S
N829 C830 1.351 . S
C830 C824 1.428 . S
C830 N829 1.351 . S
C830 C831 1.434 . S
C831 C822 1.429 . S
C831 N828 1.350 . S
C831 C830 1.434 . S
C832 C833 1.369 . S
C832 C834 1.419 . S
C832 H836 0.930 . S
C833 C832 1.369 . S
C833 C842 1.429 . S
C834 C832 1.419 . S
C834 C835 1.363 . S
C834 H837 0.929 . S
C835 C834 1.363 . S
C835 C841 1.428 . S
H836 C832 0.930 . S
H837 C834 0.929 . S
S838 N839 1.613 . S
S838 N840 1.610 . S
N839 S838 1.613 . S
N839 C842 1.350 . S
N840 S838 1.610 . S
N840 C841 1.351 . S
C841 C835 1.428 . S
C841 N840 1.351 . S
C841 C842 1.434 . S
C842 C833 1.429 . S
C842 N839 1.350 . S
C842 C841 1.434 . S
C843 C844 1.369 . S
C843 C845 1.419 . S
C843 H847 0.930 . S
C844 C843 1.369 . S
C844 C853 1.429 . S
C845 C843 1.419 . S
C845 C846 1.363 . S
C845 H848 0.929 . S
C846 C845 1.363 . S
C846 C852 1.428 . S
H847 C843 0.930 . S
H848 C845 0.929 . S
S849 N850 1.613 . S
S849 N851 1.610 . S
N850 S849 1.613 . S
N850 C853 1.350 . S
N851 S849 1.610 . S
N851 C852 1.351 . S
C852 C846 1.428 . S
C852 N851 1.351 . S
C852 C853 1.434 . S
C853 C844 1.429 . S
C853 N850 1.350 . S
C853 C852 1.434 . S
C854 C855 1.369 . S
C854 C856 1.419 . S
C854 H858 0.930 . S
C855 C854 1.369 . S
C855 C864 1.429 . S
C856 C854 1.419 . S
C856 C857 1.363 . S
C856 H859 0.929 . S
C857 C856 1.363 . S
C857 C863 1.428 . S
H858 C854 0.930 . S
H859 C856 0.929 . S
S860 N861 1.613 . S
S860 N862 1.610 . S
N861 S860 1.613 . S
N861 C864 1.350 . S
N862 S860 1.610 . S
N862 C863 1.351 . S
C863 C857 1.428 . S
C863 N862 1.351 . S
C863 C864 1.434 . S
C864 C855 1.429 . S
C864 N861 1.350 . S
C864 C863 1.434 . S
C865 C866 1.369 . S
C865 C867 1.419 . S
C865 H869 0.930 . S
C866 C865 1.369 . S
C866 C875 1.429 . S
C867 C865 1.419 . S
C867 C868 1.363 . S
C867 H870 0.929 . S
C868 C867 1.363 . S
C868 C874 1.428 . S
H869 C865 0.930 . S
H870 C867 0.929 . S
S871 N872 1.613 . S
S871 N873 1.610 . S
N872 S871 1.613 . S
N872 C875 1.350 . S
N873 S871 1.610 . S
N873 C874 1.351 . S
C874 C868 1.428 . S
C874 N873 1.351 . S
C874 C875 1.434 . S
C875 C866 1.429 . S
C875 N872 1.350 . S
C875 C874 1.434 . S
C876 C877 1.369 . S
C876 C878 1.419 . S
C876 H880 0.930 . S
C877 C876 1.369 . S
C877 C886 1.429 . S
C878 C876 1.419 . S
C878 C879 1.363 . S
C878 H881 0.929 . S
C879 C878 1.363 . S
C879 C885 1.428 . S
H880 C876 0.930 . S
H881 C878 0.929 . S
S882 N883 1.613 . S
S882 N884 1.610 . S
N883 S882 1.613 . S
N883 C886 1.350 . S
N884 S882 1.610 . S
N884 C885 1.351 . S
C885 C879 1.428 . S
C885 N884 1.351 . S
C885 C886 1.434 . S
C886 C877 1.429 . S
C886 N883 1.350 . S
C886 C885 1.434 . S
C887 C888 1.369 . S
C887 C889 1.419 . S
C887 H891 0.930 . S
C888 C887 1.369 . S
C888 C897 1.429 . S
C889 C887 1.419 . S
C889 C890 1.363 . S
C889 H892 0.929 . S
C890 C889 1.363 . S
C890 C896 1.428 . S
H891 C887 0.930 . S
H892 C889 0.929 . S
S893 N894 1.613 . S
S893 N895 1.610 . S
N894 S893 1.613 . S
N894 C897 1.350 . S
N895 S893 1.610 . S
N895 C896 1.351 . S
C896 C890 1.428 . S
C896 N895 1.351 . S
C896 C897 1.434 . S
C897 C888 1.429 . S
C897 N894 1.350 . S
C897 C896 1.434 . S
C898 C899 1.369 . S
C898 C900 1.419 . S
C898 H902 0.930 . S
C899 C898 1.369 . S
C899 C908 1.429 . S
C900 C898 1.419 . S
C900 C901 1.363 . S
C900 H903 0.929 . S
C901 C900 1.363 . S
C901 C907 1.428 . S
H902 C898 0.930 . S
H903 C900 0.929 . S
S904 N905 1.613 . S
S904 N906 1.610 . S
N905 S904 1.613 . S
N905 C908 1.350 . S
N906 S904 1.610 . S
N906 C907 1.351 . S
C907 C901 1.428 . S
C907 N906 1.351 . S
C907 C908 1.434 . S
C908 C899 1.429 . S
C908 N905 1.350 . S
C908 C907 1.434 . S
C909 C910 1.369 . S
C909 C911 1.419 . S
C909 H913 0.930 . S
C910 C909 1.369 . S
C910 C919 1.429 . S
C911 C909 1.419 . S
C911 C912 1.363 . S
C911 H914 0.929 . S
C912 C911 1.363 . S
C912 C918 1.428 . S
H913 C909 0.930 . S
H914 C911 0.929 . S
S915 N916 1.613 . S
S915 N917 1.610 . S
N916 S915 1.613 . S
N916 C919 1.350 . S
N917 S915 1.610 . S
N917 C918 1.351 . S
C918 C912 1.428 . S
C918 N917 1.351 . S
C918 C919 1.434 . S
C919 C910 1.429 . S
C919 N916 1.350 . S
C919 C918 1.434 . S
C920 C921 1.369 . S
C920 C922 1.419 . S
C920 H924 0.930 . S
C921 C920 1.369 . S
C921 C930 1.429 . S
C922 C920 1.419 . S
C922 C923 1.363 . S
C922 H925 0.929 . S
C923 C922 1.363 . S
C923 C929 1.428 . S
H924 C920 0.930 . S
H925 C922 0.929 . S
S926 N927 1.613 . S
S926 N928 1.610 . S
N927 S926 1.613 . S
N927 C930 1.350 . S
N928 S926 1.610 . S
N928 C929 1.351 . S
C929 C923 1.428 . S
C929 N928 1.351 . S
C929 C930 1.434 . S
C930 C921 1.429 . S
C930 N927 1.350 . S
C930 C929 1.434 . S
C931 C932 1.369 . S
C931 C933 1.419 . S
C931 H935 0.930 . S
C932 C931 1.369 . S
C932 C941 1.429 . S
C933 C931 1.419 . S
C933 C934 1.363 . S
C933 H936 0.929 . S
C934 C933 1.363 . S
C934 C940 1.428 . S
H935 C931 0.930 . S
H936 C933 0.929 . S
S937 N938 1.613 . S
S937 N939 1.610 . S
N938 S937 1.613 . S
N938 C941 1.350 . S
N939 S937 1.610 . S
N939 C940 1.351 . S
C940 C934 1.428 . S
C940 N939 1.351 . S
C940 C941 1.434 . S
C941 C932 1.429 . S
C941 N938 1.350 . S
C941 C940 1.434 . S
C942 C943 1.369 . S
C942 C944 1.419 . S
C942 H946 0.930 . S
C943 C942 1.369 . S
C943 C952 1.429 . S
C944 C942 1.419 . S
C944 C945 1.363 . S
C944 H947 0.929 . S
C945 C944 1.363 . S
C945 C951 1.428 . S
H946 C942 0.930 . S
H947 C944 0.929 . S
S948 N949 1.613 . S
S948 N950 1.610 . S
N949 S948 1.613 . S
N949 C952 1.350 . S
N950 S948 1.610 . S
N950 C951 1.351 . S
C951 C945 1.428 . S
C951 N950 1.351 . S
C951 C952 1.434 . S
C952 C943 1.429 . S
C952 N949 1.350 . S
C952 C951 1.434 . S
C953 C954 1.369 . S
C953 C955 1.419 . S
C953 H957 0.930 . S
C954 C953 1.369 . S
C954 C963 1.429 . S
C955 C953 1.419 . S
C955 C956 1.363 . S
C955 H958 0.929 . S
C956 C955 1.363 . S
C956 C962 1.428 . S
H957 C953 0.930 . S
H958 C955 0.929 . S
S959 N960 1.613 . S
S959 N961 1.610 . S
N960 S959 1.613 . S
N960 C963 1.350 . S
N961 S959 1.610 . S
N961 C962 1.351 . S
C962 C956 1.428 . S
C962 N961 1.351 . S
C962 C963 1.434 . S
C963 C954 1.429 . S
C963 N960 1.350 . S
C963 C962 1.434 . S
C964 C965 1.369 . S
C964 C966 1.419 . S
C964 H968 0.930 . S
C965 C964 1.369 . S
C965 C974 1.429 . S
C966 C964 1.419 . S
C966 C967 1.363 . S
C966 H969 0.929 . S
C967 C966 1.363 . S
C967 C973 1.428 . S
H968 C964 0.930 . S
H969 C966 0.929 . S
S970 N971 1.613 . S
S970 N972 1.610 . S
N971 S970 1.613 . S
N971 C974 1.350 . S
N972 S970 1.610 . S
N972 C973 1.351 . S
C973 C967 1.428 . S
C973 N972 1.351 . S
C973 C974 1.434 . S
C974 C965 1.429 . S
C974 N971 1.350 . S
C974 C973 1.434 . S
C975 C976 1.369 . S
C975 C977 1.419 . S
C975 H979 0.930 . S
C976 C975 1.369 . S
C976 C985 1.429 . S
C977 C975 1.419 . S
C977 C978 1.363 . S
C977 H980 0.929 . S
C978 C977 1.363 . S
C978 C984 1.428 . S
H979 C975 0.930 . S
H980 C977 0.929 . S
S981 N982 1.613 . S
S981 N983 1.610 . S
N982 S981 1.613 . S
N982 C985 1.350 . S
N983 S981 1.610 . S
N983 C984 1.351 . S
C984 C978 1.428 . S
C984 N983 1.351 . S
C984 C985 1.434 . S
C985 C976 1.429 . S
C985 N982 1.350 . S
C985 C984 1.434 . S
C986 C987 1.369 . S
C986 C988 1.419 . S
C986 H990 0.930 . S
C987 C986 1.369 . S
C987 C996 1.429 . S
C988 C986 1.419 . S
C988 C989 1.363 . S
C988 H991 0.929 . S
C989 C988 1.363 . S
C989 C995 1.428 . S
H990 C986 0.930 . S
H991 C988 0.929 . S
S992 N993 1.613 . S
S992 N994 1.610 . S
N993 S992 1.613 . S
N993 C996 1.350 . S
N994 S992 1.610 . S
N994 C995 1.351 . S
C995 C989 1.428 . S
C995 N994 1.351 . S
C995 C996 1.434 . S
C996 C987 1.429 . S
C996 N993 1.350 . S
C996 C995 1.434 . S
C997 C998 1.369 . S
C997 C999 1.419 . S
C997 H1001 0.930 . S
C998 C997 1.369 . S
C998 C1007 1.429 . S
C999 C997 1.419 . S
C999 C1000 1.363 . S
C999 H1002 0.929 . S
C1000 C999 1.363 . S
C1000 C1006 1.428 . S
H1001 C997 0.930 . S
H1002 C999 0.929 . S
S1003 N1004 1.613 . S
S1003 N1005 1.610 . S
N1004 S1003 1.613 . S
N1004 C1007 1.350 . S
N1005 S1003 1.610 . S
N1005 C1006 1.351 . S
C1006 C1000 1.428 . S
C1006 N1005 1.351 . S
C1006 C1007 1.434 . S
C1007 C998 1.429 . S
C1007 N1004 1.350 . S
C1007 C1006 1.434 . S
C1008 C1009 1.369 . S
C1008 C1010 1.419 . S
C1008 H1012 0.930 . S
C1009 C1008 1.369 . S
C1009 C1018 1.429 . S
C1010 C1008 1.419 . S
C1010 C1011 1.363 . S
C1010 H1013 0.929 . S
C1011 C1010 1.363 . S
C1011 C1017 1.428 . S
H1012 C1008 0.930 . S
H1013 C1010 0.929 . S
S1014 N1015 1.613 . S
S1014 N1016 1.610 . S
N1015 S1014 1.613 . S
N1015 C1018 1.350 . S
N1016 S1014 1.610 . S
N1016 C1017 1.351 . S
C1017 C1011 1.428 . S
C1017 N1016 1.351 . S
C1017 C1018 1.434 . S
C1018 C1009 1.429 . S
C1018 N1015 1.350 . S
C1018 C1017 1.434 . S
C1019 C1020 1.369 . S
C1019 C1021 1.419 . S
C1019 H1023 0.930 . S
C1020 C1019 1.369 . S
C1020 C1029 1.429 . S
C1021 C1019 1.419 . S
C1021 C1022 1.363 . S
C1021 H1024 0.929 . S
C1022 C1021 1.363 . S
C1022 C1028 1.428 . S
H1023 C1019 0.930 . S
H1024 C1021 0.929 . S
S1025 N1026 1.613 . S
S1025 N1027 1.610 . S
N1026 S1025 1.613 . S
N1026 C1029 1.350 . S
N1027 S1025 1.610 . S
N1027 C1028 1.351 . S
C1028 C1022 1.428 . S
C1028 N1027 1.351 . S
C1028 C1029 1.434 . S
C1029 C1020 1.429 . S
C1029 N1026 1.350 . S
C1029 C1028 1.434 . S
C1030 C1031 1.369 . S
C1030 C1032 1.419 . S
C1030 H1034 0.930 . S
C1031 C1030 1.369 . S
C1031 C1040 1.429 . S
C1032 C1030 1.419 . S
C1032 C1033 1.363 . S
C1032 H1035 0.929 . S
C1033 C1032 1.363 . S
C1033 C1039 1.428 . S
H1034 C1030 0.930 . S
H1035 C1032 0.929 . S
S1036 N1037 1.613 . S
S1036 N1038 1.610 . S
N1037 S1036 1.613 . S
N1037 C1040 1.350 . S
N1038 S1036 1.610 . S
N1038 C1039 1.351 . S
C1039 C1033 1.428 . S
C1039 N1038 1.351 . S
C1039 C1040 1.434 . S
C1040 C1031 1.429 . S
C1040 N1037 1.350 . S
C1040 C1039 1.434 . S
C1041 C1042 1.369 . S
C1041 C1043 1.419 . S
C1041 H1045 0.930 . S
C1042 C1041 1.369 . S
C1042 C1051 1.429 . S
C1043 C1041 1.419 . S
C1043 C1044 1.363 . S
C1043 H1046 0.929 . S
C1044 C1043 1.363 . S
C1044 C1050 1.428 . S
H1045 C1041 0.930 . S
H1046 C1043 0.929 . S
S1047 N1048 1.613 . S
S1047 N1049 1.610 . S
N1048 S1047 1.613 . S
N1048 C1051 1.350 . S
N1049 S1047 1.610 . S
N1049 C1050 1.351 . S
C1050 C1044 1.428 . S
C1050 N1049 1.351 . S
C1050 C1051 1.434 . S
C1051 C1042 1.429 . S
C1051 N1048 1.350 . S
C1051 C1050 1.434 . S
C1052 C1053 1.369 . S
C1052 C1054 1.419 . S
C1052 H1056 0.930 . S
C1053 C1052 1.369 . S
C1053 C1062 1.429 . S
C1054 C1052 1.419 . S
C1054 C1055 1.363 . S
C1054 H1057 0.929 . S
C1055 C1054 1.363 . S
C1055 C1061 1.428 . S
H1056 C1052 0.930 . S
H1057 C1054 0.929 . S
S1058 N1059 1.613 . S
S1058 N1060 1.610 . S
N1059 S1058 1.613 . S
N1059 C1062 1.350 . S
N1060 S1058 1.610 . S
N1060 C1061 1.351 . S
C1061 C1055 1.428 . S
C1061 N1060 1.351 . S
C1061 C1062 1.434 . S
C1062 C1053 1.429 . S
C1062 N1059 1.350 . S
C1062 C1061 1.434 . S
C1063 C1064 1.369 . S
C1063 C1065 1.419 . S
C1063 H1067 0.930 . S
C1064 C1063 1.369 . S
C1064 C1073 1.429 . S
C1065 C1063 1.419 . S
C1065 C1066 1.363 . S
C1065 H1068 0.929 . S
C1066 C1065 1.363 . S
C1066 C1072 1.428 . S
H1067 C1063 0.930 . S
H1068 C1065 0.929 . S
S1069 N1070 1.613 . S
S1069 N1071 1.610 . S
N1070 S1069 1.613 . S
N1070 C1073 1.350 . S
N1071 S1069 1.610 . S
N1071 C1072 1.351 . S
C1072 C1066 1.428 . S
C1072 N1071 1.351 . S
C1072 C1073 1.434 . S
C1073 C1064 1.429 . S
C1073 N1070 1.350 . S
C1073 C1072 1.434 . S
C1074 C1075 1.369 . S
C1074 C1076 1.419 . S
C1074 H1078 0.930 . S
C1075 C1074 1.369 . S
C1075 C1084 1.429 . S
C1076 C1074 1.419 . S
C1076 C1077 1.363 . S
C1076 H1079 0.929 . S
C1077 C1076 1.363 . S
C1077 C1083 1.428 . S
H1078 C1074 0.930 . S
H1079 C1076 0.929 . S
S1080 N1081 1.613 . S
S1080 N1082 1.610 . S
N1081 S1080 1.613 . S
N1081 C1084 1.350 . S
N1082 S1080 1.610 . S
N1082 C1083 1.351 . S
C1083 C1077 1.428 . S
C1083 N1082 1.351 . S
C1083 C1084 1.434 . S
C1084 C1075 1.429 . S
C1084 N1081 1.350 . S
C1084 C1083 1.434 . S
C1085 C1086 1.369 . S
C1085 C1087 1.419 . S
C1085 H1089 0.930 . S
C1086 C1085 1.369 . S
C1086 C1095 1.429 . S
C1087 C1085 1.419 . S
C1087 C1088 1.363 . S
C1087 H1090 0.929 . S
C1088 C1087 1.363 . S
C1088 C1094 1.428 . S
H1089 C1085 0.930 . S
H1090 C1087 0.929 . S
S1091 N1092 1.613 . S
S1091 N1093 1.610 . S
N1092 S1091 1.613 . S
N1092 C1095 1.350 . S
N1093 S1091 1.610 . S
N1093 C1094 1.351 . S
C1094 C1088 1.428 . S
C1094 N1093 1.351 . S
C1094 C1095 1.434 . S
C1095 C1086 1.429 . S
C1095 N1092 1.350 . S
C1095 C1094 1.434 . S
C1096 C1097 1.369 . S
C1096 C1098 1.419 . S
C1096 H1100 0.930 . S
C1097 C1096 1.369 . S
C1097 C1106 1.429 . S
C1098 C1096 1.419 . S
C1098 C1099 1.363 . S
C1098 H1101 0.929 . S
C1099 C1098 1.363 . S
C1099 C1105 1.428 . S
H1100 C1096 0.930 . S
H1101 C1098 0.929 . S
S1102 N1103 1.613 . S
S1102 N1104 1.610 . S
N1103 S1102 1.613 . S
N1103 C1106 1.350 . S
N1104 S1102 1.610 . S
N1104 C1105 1.351 . S
C1105 C1099 1.428 . S
C1105 N1104 1.351 . S
C1105 C1106 1.434 . S
C1106 C1097 1.429 . S
C1106 N1103 1.350 . S
C1106 C1105 1.434 . S
C1107 C1108 1.369 . S
C1107 C1109 1.419 . S
C1107 H1111 0.930 . S
C1108 C1107 1.369 . S
C1108 C1117 1.429 . S
C1109 C1107 1.419 . S
C1109 C1110 1.363 . S
C1109 H1112 0.929 . S
C1110 C1109 1.363 . S
C1110 C1116 1.428 . S
H1111 C1107 0.930 . S
H1112 C1109 0.929 . S
S1113 N1114 1.613 . S
S1113 N1115 1.610 . S
N1114 S1113 1.613 . S
N1114 C1117 1.350 . S
N1115 S1113 1.610 . S
N1115 C1116 1.351 . S
C1116 C1110 1.428 . S
C1116 N1115 1.351 . S
C1116 C1117 1.434 . S
C1117 C1108 1.429 . S
C1117 N1114 1.350 . S
C1117 C1116 1.434 . S
C1118 C1119 1.369 . S
C1118 C1120 1.419 . S
C1118 H1122 0.930 . S
C1119 C1118 1.369 . S
C1119 C1128 1.429 . S
C1120 C1118 1.419 . S
C1120 C1121 1.363 . S
C1120 H1123 0.929 . S
C1121 C1120 1.363 . S
C1121 C1127 1.428 . S
H1122 C1118 0.930 . S
H1123 C1120 0.929 . S
S1124 N1125 1.613 . S
S1124 N1126 1.610 . S
N1125 S1124 1.613 . S
N1125 C1128 1.350 . S
N1126 S1124 1.610 . S
N1126 C1127 1.351 . S
C1127 C1121 1.428 . S
C1127 N1126 1.351 . S
C1127 C1128 1.434 . S
C1128 C1119 1.429 . S
C1128 N1125 1.350 . S
C1128 C1127 1.434 . S
C1129 C1130 1.369 . S
C1129 C1131 1.419 . S
C1129 H1133 0.930 . S
C1130 C1129 1.369 . S
C1130 C1139 1.429 . S
C1131 C1129 1.419 . S
C1131 C1132 1.363 . S
C1131 H1134 0.929 . S
C1132 C1131 1.363 . S
C1132 C1138 1.428 . S
H1133 C1129 0.930 . S
H1134 C1131 0.929 . S
S1135 N1136 1.613 . S
S1135 N1137 1.610 . S
N1136 S1135 1.613 . S
N1136 C1139 1.350 . S
N1137 S1135 1.610 . S
N1137 C1138 1.351 . S
C1138 C1132 1.428 . S
C1138 N1137 1.351 . S
C1138 C1139 1.434 . S
C1139 C1130 1.429 . S
C1139 N1136 1.350 . S
C1139 C1138 1.434 . S
C1140 C1141 1.369 . S
C1140 C1142 1.419 . S
C1140 H1144 0.930 . S
C1141 C1140 1.369 . S
C1141 C1150 1.429 . S
C1142 C1140 1.419 . S
C1142 C1143 1.363 . S
C1142 H1145 0.929 . S
C1143 C1142 1.363 . S
C1143 C1149 1.428 . S
H1144 C1140 0.930 . S
H1145 C1142 0.929 . S
S1146 N1147 1.613 . S
S1146 N1148 1.610 . S
N1147 S1146 1.613 . S
N1147 C1150 1.350 . S
N1148 S1146 1.610 . S
N1148 C1149 1.351 . S
C1149 C1143 1.428 . S
C1149 N1148 1.351 . S
C1149 C1150 1.434 . S
C1150 C1141 1.429 . S
C1150 N1147 1.350 . S
C1150 C1149 1.434 . S
C1151 C1152 1.369 . S
C1151 C1153 1.419 . S
C1151 H1155 0.930 . S
C1152 C1151 1.369 . S
C1152 C1161 1.429 . S
C1153 C1151 1.419 . S
C1153 C1154 1.363 . S
C1153 H1156 0.929 . S
C1154 C1153 1.363 . S
C1154 C1160 1.428 . S
H1155 C1151 0.930 . S
H1156 C1153 0.929 . S
S1157 N1158 1.613 . S
S1157 N1159 1.610 . S
N1158 S1157 1.613 . S
N1158 C1161 1.350 . S
N1159 S1157 1.610 . S
N1159 C1160 1.351 . S
C1160 C1154 1.428 . S
C1160 N1159 1.351 . S
C1160 C1161 1.434 . S
C1161 C1152 1.429 . S
C1161 N1158 1.350 . S
C1161 C1160 1.434 . S
C1162 C1163 1.369 . S
C1162 C1164 1.419 . S
C1162 H1166 0.930 . S
C1163 C1162 1.369 . S
C1163 C1172 1.429 . S
C1164 C1162 1.419 . S
C1164 C1165 1.363 . S
C1164 H1167 0.929 . S
C1165 C1164 1.363 . S
C1165 C1171 1.428 . S
H1166 C1162 0.930 . S
H1167 C1164 0.929 . S
S1168 N1169 1.613 . S
S1168 N1170 1.610 . S
N1169 S1168 1.613 . S
N1169 C1172 1.350 . S
N1170 S1168 1.610 . S
N1170 C1171 1.351 . S
C1171 C1165 1.428 . S
C1171 N1170 1.351 . S
C1171 C1172 1.434 . S
C1172 C1163 1.429 . S
C1172 N1169 1.350 . S
C1172 C1171 1.434 . S
C1173 C1174 1.369 . S
C1173 C1175 1.419 . S
C1173 H1177 0.930 . S
C1174 C1173 1.369 . S
C1174 C1183 1.429 . S
C1175 C1173 1.419 . S
C1175 C1176 1.363 . S
C1175 H1178 0.929 . S
C1176 C1175 1.363 . S
C1176 C1182 1.428 . S
H1177 C1173 0.930 . S
H1178 C1175 0.929 . S
S1179 N1180 1.613 . S
S1179 N1181 1.610 . S
N1180 S1179 1.613 . S
N1180 C1183 1.350 . S
N1181 S1179 1.610 . S
N1181 C1182 1.351 . S
C1182 C1176 1.428 . S
C1182 N1181 1.351 . S
C1182 C1183 1.434 . S
C1183 C1174 1.429 . S
C1183 N1180 1.350 . S
C1183 C1182 1.434 . S
C1184 C1185 1.369 . S
C1184 C1186 1.419 . S
C1184 H1188 0.930 . S
C1185 C1184 1.369 . S
C1185 C1194 1.429 . S
C1186 C1184 1.419 . S
C1186 C1187 1.363 . S
C1186 H1189 0.929 . S
C1187 C1186 1.363 . S
C1187 C1193 1.428 . S
H1188 C1184 0.930 . S
H1189 C1186 0.929 . S
S1190 N1191 1.613 . S
S1190 N1192 1.610 . S
N1191 S1190 1.613 . S
N1191 C1194 1.350 . S
N1192 S1190 1.610 . S
N1192 C1193 1.351 . S
C1193 C1187 1.428 . S
C1193 N1192 1.351 . S
C1193 C1194 1.434 . S
C1194 C1185 1.429 . S
C1194 N1191 1.350 . S
C1194 C1193 1.434 . S
C1195 C1196 1.369 . S
C1195 C1197 1.419 . S
C1195 H1199 0.930 . S
C1196 C1195 1.369 . S
C1196 C1205 1.429 . S
C1197 C1195 1.419 . S
C1197 C1198 1.363 . S
C1197 H1200 0.929 . S
C1198 C1197 1.363 . S
C1198 C1204 1.428 . S
H1199 C1195 0.930 . S
H1200 C1197 0.929 . S
S1201 N1202 1.613 . S
S1201 N1203 1.610 . S
N1202 S1201 1.613 . S
N1202 C1205 1.350 . S
N1203 S1201 1.610 . S
N1203 C1204 1.351 . S
C1204 C1198 1.428 . S
C1204 N1203 1.351 . S
C1204 C1205 1.434 . S
C1205 C1196 1.429 . S
C1205 N1202 1.350 . S
C1205 C1204 1.434 . S
C1206 C1207 1.369 . S
C1206 C1208 1.419 . S
C1206 H1210 0.930 . S
C1207 C1206 1.369 . S
C1207 C1216 1.429 . S
C1208 C1206 1.419 . S
C1208 C1209 1.363 . S
C1208 H1211 0.929 . S
C1209 C1208 1.363 . S
C1209 C1215 1.428 . S
H1210 C1206 0.930 . S
H1211 C1208 0.929 . S
S1212 N1213 1.613 . S
S1212 N1214 1.610 . S
N1213 S1212 1.613 . S
N1213 C1216 1.350 . S
N1214 S1212 1.610 . S
N1214 C1215 1.351 . S
C1215 C1209 1.428 . S
C1215 N1214 1.351 . S
C1215 C1216 1.434 . S
C1216 C1207 1.429 . S
C1216 N1213 1.350 . S
C1216 C1215 1.434 . S
C1217 C1218 1.369 . S
C1217 C1219 1.419 . S
C1217 H1221 0.930 . S
C1218 C1217 1.369 . S
C1218 C1227 1.429 . S
C1219 C1217 1.419 . S
C1219 C1220 1.363 . S
C1219 H1222 0.929 . S
C1220 C1219 1.363 . S
C1220 C1226 1.428 . S
H1221 C1217 0.930 . S
H1222 C1219 0.929 . S
S1223 N1224 1.613 . S
S1223 N1225 1.610 . S
N1224 S1223 1.613 . S
N1224 C1227 1.350 . S
N1225 S1223 1.610 . S
N1225 C1226 1.351 . S
C1226 C1220 1.428 . S
C1226 N1225 1.351 . S
C1226 C1227 1.434 . S
C1227 C1218 1.429 . S
C1227 N1224 1.350 . S
C1227 C1226 1.434 . S
C1228 C1229 1.369 . S
C1228 C1230 1.419 . S
C1228 H1232 0.930 . S
C1229 C1228 1.369 . S
C1229 C1238 1.429 . S
C1230 C1228 1.419 . S
C1230 C1231 1.363 . S
C1230 H1233 0.929 . S
C1231 C1230 1.363 . S
C1231 C1237 1.428 . S
H1232 C1228 0.930 . S
H1233 C1230 0.929 . S
S1234 N1235 1.613 . S
S1234 N1236 1.610 . S
N1235 S1234 1.613 . S
N1235 C1238 1.350 . S
N1236 S1234 1.610 . S
N1236 C1237 1.351 . S
C1237 C1231 1.428 . S
C1237 N1236 1.351 . S
C1237 C1238 1.434 . S
C1238 C1229 1.429 . S
C1238 N1235 1.350 . S
C1238 C1237 1.434 . S
C1239 C1240 1.369 . S
C1239 C1241 1.419 . S
C1239 H1243 0.930 . S
C1240 C1239 1.369 . S
C1240 C1249 1.429 . S
C1241 C1239 1.419 . S
C1241 C1242 1.363 . S
C1241 H1244 0.929 . S
C1242 C1241 1.363 . S
C1242 C1248 1.428 . S
H1243 C1239 0.930 . S
H1244 C1241 0.929 . S
S1245 N1246 1.613 . S
S1245 N1247 1.610 . S
N1246 S1245 1.613 . S
N1246 C1249 1.350 . S
N1247 S1245 1.610 . S
N1247 C1248 1.351 . S
C1248 C1242 1.428 . S
C1248 N1247 1.351 . S
C1248 C1249 1.434 . S
C1249 C1240 1.429 . S
C1249 N1246 1.350 . S
C1249 C1248 1.434 . S
C1250 C1251 1.369 . S
C1250 C1252 1.419 . S
C1250 H1254 0.930 . S
C1251 C1250 1.369 . S
C1251 C1260 1.429 . S
C1252 C1250 1.419 . S
C1252 C1253 1.363 . S
C1252 H1255 0.929 . S
C1253 C1252 1.363 . S
C1253 C1259 1.428 . S
H1254 C1250 0.930 . S
H1255 C1252 0.929 . S
S1256 N1257 1.613 . S
S1256 N1258 1.610 . S
N1257 S1256 1.613 . S
N1257 C1260 1.350 . S
N1258 S1256 1.610 . S
N1258 C1259 1.351 . S
C1259 C1253 1.428 . S
C1259 N1258 1.351 . S
C1259 C1260 1.434 . S
C1260 C1251 1.429 . S
C1260 N1257 1.350 . S
C1260 C1259 1.434 . S
C1261 C1262 1.369 . S
C1261 C1263 1.419 . S
C1261 H1265 0.930 . S
C1262 C1261 1.369 . S
C1262 C1271 1.429 . S
C1263 C1261 1.419 . S
C1263 C1264 1.363 . S
C1263 H1266 0.929 . S
C1264 C1263 1.363 . S
C1264 C1270 1.428 . S
H1265 C1261 0.930 . S
H1266 C1263 0.929 . S
S1267 N1268 1.613 . S
S1267 N1269 1.610 . S
N1268 S1267 1.613 . S
N1268 C1271 1.350 . S
N1269 S1267 1.610 . S
N1269 C1270 1.351 . S
C1270 C1264 1.428 . S
C1270 N1269 1.351 . S
C1270 C1271 1.434 . S
C1271 C1262 1.429 . S
C1271 N1268 1.350 . S
C1271 C1270 1.434 . S
C481 C13 2.792 . S
C483 C328 2.615 . S
C492 C33 2.792 . S
C494 C477 2.612 . S
C503 C428 2.609 . S
C505 C53 2.793 . S
C514 C73 2.794 . S
C516 C448 2.615 . S
C525 C93 2.794 . S
C527 C348 2.615 . S
C536 C113 2.794 . S
C538 C368 2.614 . S
C547 C133 2.793 . S
C549 C388 2.616 . S
C558 C153 2.794 . S
C560 C417 2.615 . S
C569 C173 2.793 . S
C571 C8 2.610 . S
C580 C193 2.793 . S
C582 C28 2.610 . S
C591 C48 2.616 . S
C593 C213 2.794 . S
C602 C68 2.617 . S
C604 C233 2.793 . S
C613 C253 2.793 . S
C615 C88 2.610 . S
C624 C262 2.792 . S
C626 C108 2.611 . S
C635 C293 2.792 . S
C637 C128 2.611 . S
C646 C313 2.793 . S
C648 C148 2.616 . S
C657 C333 2.794 . S
C659 C168 2.615 . S
C668 C353 2.794 . S
C670 C248 2.612 . S
C679 C277 2.609 . S
C681 C373 2.793 . S
C690 C393 2.792 . S
C692 C288 2.611 . S
C701 C402 2.794 . S
C703 C308 2.612 . S
C712 C433 2.792 . S
C714 C208 2.614 . S
C723 C228 2.616 . S
C725 C453 2.792 . S
C734 C462 2.792 . S
C736 C188 2.614 . S
C745 C437 1.526 . S
C747 C94 1.479 . S
C756 C457 1.530 . S
C758 C114 1.481 . S
C767 C134 1.481 . S
C769 C337 1.532 . S
C778 C154 1.478 . S
C780 C468 1.525 . S
C789 C397 1.532 . S
C791 C14 1.476 . S
C800 C34 1.480 . S
C802 C408 1.532 . S
C811 C357 1.533 . S
C813 C54 1.477 . S
C822 C74 1.478 . S
C824 C377 1.532 . S
C833 C294 1.479 . S
C835 C97 1.526 . S
C844 C314 1.470 . S
C846 C117 1.524 . S
C855 C254 1.478 . S
C857 C137 1.531 . S
C866 C157 1.527 . S
C868 C265 1.480 . S
C877 C214 1.475 . S
C879 C17 1.530 . S
C888 C234 1.478 . S
C890 C37 1.525 . S
C899 C174 1.476 . S
C901 C57 1.524 . S
C910 C194 1.470 . S
C912 C77 1.524 . S
C921 C297 1.522 . S
C923 C434 1.473 . S
C932 C394 1.475 . S
C934 C217 1.531 . S
C943 C237 1.524 . S
C945 C405 1.477 . S
C954 C354 1.471 . S
C956 C177 1.523 . S
C965 C374 1.475 . S
C967 C197 1.530 . S
C976 C334 1.483 . S
C978 C257 1.530 . S
C987 C465 1.482 . S
C989 C268 1.531 . S
C998 C317 1.531 . S
C1000 C454 1.481 . S
C1009 C414 0.846 . S
C1011 C5 0.859 . S
C1020 C345 0.863 . S
C1022 C25 0.843 . S
C1031 C45 0.859 . S
C1033 C365 0.838 . S
C1042 C65 0.861 . S
C1044 C385 0.847 . S
C1053 C474 0.852 . S
C1055 C85 0.838 . S
C1064 C105 0.836 . S
C1066 C425 0.858 . S
C1075 C445 0.834 . S
C1077 C125 0.854 . S
C1086 C145 0.852 . S
C1088 C325 0.838 . S
C1097 C165 0.836 . S
C1099 C305 0.857 . S
C1108 C245 0.860 . S
C1110 C185 0.839 . S
C1119 C205 0.845 . S
C1121 C274 0.841 . S
C1130 C285 0.849 . S
C1132 C225 0.858 . S
C1141 C362 3.345 . S
C1143 C82 3.345 . S
C1152 C382 3.346 . S
C1154 C102 3.345 . S
C1163 C122 3.345 . S
C1165 C413 3.347 . S
C1174 C142 3.346 . S
C1176 C342 3.347 . S
C1185 C442 3.345 . S
C1187 C2 3.347 . S
C1196 C322 3.346 . S
C1198 C22 3.345 . S
C1207 C473 3.346 . S
C1209 C42 3.347 . S
C1218 C62 3.347 . S
C1220 C422 3.346 . S
C1229 C182 3.347 . S
C1231 C282 3.347 . S
C1240 C302 3.347 . S
C1242 C202 3.345 . S
C1251 C242 3.346 . S
C1253 C222 3.347 . S
C1262 C273 3.346 . S
C1264 C162 3.345 . S
