# Generated by pormake.
# Topology uki, (4)-cn, num edge types: 1
# Building blocks:
#     Node 0, Type 0, BuildingBlock: NAWXER_clean_sbu_0, # of connection points: 4
#     Node 1, Type 0, BuildingBlock: NAWXER_clean_sbu_0, # of connection points: 4
#     Node 2, Type 0, BuildingBlock: NAWXER_clean_sbu_0, # of connection points: 4
#     Node 3, Type 0, BuildingBlock: NAWXER_clean_sbu_0, # of connection points: 4
#     Node 4, Type 0, BuildingBlock: NAWXER_clean_sbu_0, # of connection points: 4
#     Node 5, Type 0, BuildingBlock: NAWXER_clean_sbu_0, # of connection points: 4
#     Node 6, Type 0, BuildingBlock: NAWXER_clean_sbu_0, # of connection points: 4
#     Node 7, Type 0, BuildingBlock: NAWXER_clean_sbu_0, # of connection points: 4
#     Node 8, Type 0, BuildingBlock: NAWXER_clean_sbu_0, # of connection points: 4
#     Node 9, Type 0, BuildingBlock: NAWXER_clean_sbu_0, # of connection points: 4
#     Node 10, Type 0, BuildingBlock: NAWXER_clean_sbu_0, # of connection points: 4
#     Node 11, Type 0, BuildingBlock: NAWXER_clean_sbu_0, # of connection points: 4
#     Node 12, Type 0, BuildingBlock: NAWXER_clean_sbu_0, # of connection points: 4
#     Node 13, Type 0, BuildingBlock: NAWXER_clean_sbu_0, # of connection points: 4
#     Node 14, Type 0, BuildingBlock: NAWXER_clean_sbu_0, # of connection points: 4
#     Node 15, Type 0, BuildingBlock: NAWXER_clean_sbu_0, # of connection points: 4
#     Edge 16, Type (0, 0), BuildingBlock: XIVTED_clean_linker_0, # of connection points: 2
#     Edge 17, Type (0, 0), BuildingBlock: XIVTED_clean_linker_0, # of connection points: 2
#     Edge 18, Type (0, 0), BuildingBlock: XIVTED_clean_linker_0, # of connection points: 2
#     Edge 19, Type (0, 0), BuildingBlock: XIVTED_clean_linker_0, # of connection points: 2
#     Edge 20, Type (0, 0), BuildingBlock: XIVTED_clean_linker_0, # of connection points: 2
#     Edge 21, Type (0, 0), BuildingBlock: XIVTED_clean_linker_0, # of connection points: 2
#     Edge 22, Type (0, 0), BuildingBlock: XIVTED_clean_linker_0, # of connection points: 2
#     Edge 23, Type (0, 0), BuildingBlock: XIVTED_clean_linker_0, # of connection points: 2
#     Edge 24, Type (0, 0), BuildingBlock: XIVTED_clean_linker_0, # of connection points: 2
#     Edge 25, Type (0, 0), BuildingBlock: XIVTED_clean_linker_0, # of connection points: 2
#     Edge 26, Type (0, 0), BuildingBlock: XIVTED_clean_linker_0, # of connection points: 2
#     Edge 27, Type (0, 0), BuildingBlock: XIVTED_clean_linker_0, # of connection points: 2
#     Edge 28, Type (0, 0), BuildingBlock: XIVTED_clean_linker_0, # of connection points: 2
#     Edge 29, Type (0, 0), BuildingBlock: XIVTED_clean_linker_0, # of connection points: 2
#     Edge 30, Type (0, 0), BuildingBlock: XIVTED_clean_linker_0, # of connection points: 2
#     Edge 31, Type (0, 0), BuildingBlock: XIVTED_clean_linker_0, # of connection points: 2
#     Edge 32, Type (0, 0), BuildingBlock: XIVTED_clean_linker_0, # of connection points: 2
#     Edge 33, Type (0, 0), BuildingBlock: XIVTED_clean_linker_0, # of connection points: 2
#     Edge 34, Type (0, 0), BuildingBlock: XIVTED_clean_linker_0, # of connection points: 2
#     Edge 35, Type (0, 0), BuildingBlock: XIVTED_clean_linker_0, # of connection points: 2
#     Edge 36, Type (0, 0), BuildingBlock: XIVTED_clean_linker_0, # of connection points: 2
#     Edge 37, Type (0, 0), BuildingBlock: XIVTED_clean_linker_0, # of connection points: 2
#     Edge 38, Type (0, 0), BuildingBlock: XIVTED_clean_linker_0, # of connection points: 2
#     Edge 39, Type (0, 0), BuildingBlock: XIVTED_clean_linker_0, # of connection points: 2
#     Edge 40, Type (0, 0), BuildingBlock: XIVTED_clean_linker_0, # of connection points: 2
#     Edge 41, Type (0, 0), BuildingBlock: XIVTED_clean_linker_0, # of connection points: 2
#     Edge 42, Type (0, 0), BuildingBlock: XIVTED_clean_linker_0, # of connection points: 2
#     Edge 43, Type (0, 0), BuildingBlock: XIVTED_clean_linker_0, # of connection points: 2
#     Edge 44, Type (0, 0), BuildingBlock: XIVTED_clean_linker_0, # of connection points: 2
#     Edge 45, Type (0, 0), BuildingBlock: XIVTED_clean_linker_0, # of connection points: 2
#     Edge 46, Type (0, 0), BuildingBlock: XIVTED_clean_linker_0, # of connection points: 2
#     Edge 47, Type (0, 0), BuildingBlock: XIVTED_clean_linker_0, # of connection points: 2
# Relax obj value: 0.074
# Max RMSD: 0.234
# Mean RMSD: 0.234
data_MOF--net-uki--node1-NAWXER_clean_sbu_0--edge1-XIVTED_clean_linker_0
_symmetry_space_group_name_H-M    P1
_symmetry_Int_Tables_number       1
_symmetry_cell_setting            triclinic
loop_
_symmetry_equiv_pos_as_xyz
'x, y, z'
_cell_length_a     31.963915
_cell_length_b     31.927506
_cell_length_c     73.876663
_cell_angle_alpha  89.995515
_cell_angle_beta   90.006347
_cell_angle_gamma 89.962328
loop_
_atom_site_label
_atom_site_type_symbol
_atom_site_fract_x
_atom_site_fract_y
_atom_site_fract_z
_atom_type_partial_charge
C0 C 0.13367 0.22335 0.32967 0.0
C1 C 0.01612 0.25266 0.29002 0.0
O2 O 0.09979 0.24249 0.33306 0.0
Zn3 Zn 0.07462 0.23691 0.3096 0.0
O4 O 0.13948 0.20762 0.31388 0.0
Zn5 Zn 0.10416 0.20301 0.28904 0.0
O6 O 0.13996 0.22944 0.27161 0.0
O7 O 0.11468 0.27332 0.29192 0.0
O8 O 0.04329 0.22929 0.28213 0.0
O9 O 0.02228 0.26476 0.30617 0.0
O10 O 0.05753 0.17131 0.30818 0.0
O11 O 0.09615 0.14388 0.28644 0.0
C12 C 0.13725 0.26639 0.27785 0.0
C13 C 0.0688 0.1395 0.29873 0.0
C14 C 0.27001 0.86099 0.72232 0.0
C15 C 0.13649 0.92316 0.7063 0.0
O16 O 0.27356 0.88585 0.70873 0.0
Zn17 Zn 0.23124 0.92258 0.69194 0.0
O18 O 0.23418 0.85361 0.729 0.0
Zn19 Zn 0.20331 0.89021 0.7134 0.0
O20 O 0.20451 0.85633 0.68819 0.0
O21 O 0.23502 0.89771 0.66832 0.0
O22 O 0.145 0.89723 0.71878 0.0
O23 O 0.16535 0.93472 0.69533 0.0
O24 O 0.25408 0.9776 0.69458 0.0
O25 O 0.22907 0.95142 0.72005 0.0
C26 C 0.21768 0.86305 0.67204 0.0
C27 C 0.24729 0.98126 0.71145 0.0
C28 C 0.85977 0.73487 0.27811 0.0
C29 C 0.93068 0.85996 0.29935 0.0
O30 O 0.85719 0.77208 0.27218 0.0
Zn31 Zn 0.89428 0.7975 0.28954 0.0
O32 O 0.88279 0.72717 0.29194 0.0
Zn33 Zn 0.92339 0.76211 0.3097 0.0
O34 O 0.89795 0.75451 0.33292 0.0
O35 O 0.86003 0.79405 0.31474 0.0
O36 O 0.94144 0.82783 0.30875 0.0
O37 O 0.90338 0.8562 0.287 0.0
O38 O 0.95462 0.77034 0.28224 0.0
O39 O 0.97514 0.73359 0.306 0.0
C40 C 0.86534 0.77616 0.33013 0.0
C41 C 0.9814 0.74614 0.28993 0.0
C42 C 0.78118 0.1346 0.67165 0.0
C43 C 0.74895 0.01827 0.71157 0.0
O44 O 0.79493 0.1414 0.6877 0.0
Zn45 Zn 0.79578 0.10794 0.71302 0.0
O46 O 0.76283 0.10034 0.6682 0.0
Zn47 Zn 0.7661 0.076 0.69193 0.0
O48 O 0.72551 0.11425 0.70867 0.0
O49 O 0.76611 0.14537 0.72877 0.0
O50 O 0.73988 0.02268 0.69494 0.0
O51 O 0.76962 0.04692 0.71988 0.0
O52 O 0.85375 0.09985 0.7182 0.0
O53 O 0.83179 0.06096 0.69543 0.0
C54 C 0.72998 0.13902 0.72221 0.0
C55 C 0.86115 0.07241 0.70621 0.0
C56 C 0.01848 0.2486 0.9607 0.0
C57 C 0.13585 0.27911 0.92103 0.0
O58 O 0.0232 0.23927 0.94411 0.0
Zn59 Zn 0.07669 0.2651 0.9411 0.0
O60 O 0.04706 0.2695 0.96895 0.0
Zn61 Zn 0.10759 0.2965 0.96203 0.0
O62 O 0.09964 0.35559 0.96573 0.0
O63 O 0.0602 0.33025 0.94384 0.0
O64 O 0.14232 0.29327 0.93704 0.0
O65 O 0.10141 0.26125 0.91746 0.0
O66 O 0.11624 0.22624 0.95826 0.0
O67 O 0.14347 0.2684 0.9788 0.0
C68 C 0.07164 0.36107 0.9538 0.0
C69 C 0.13949 0.23186 0.97225 0.0
C70 C 0.27852 0.86222 0.07785 0.0
C71 C 0.25018 0.98188 0.03891 0.0
O72 O 0.29261 0.85626 0.0618 0.0
Zn73 Zn 0.29713 0.89219 0.03719 0.0
O74 O 0.26194 0.89714 0.08182 0.0
Zn75 Zn 0.26633 0.92305 0.05837 0.0
O76 O 0.22705 0.88444 0.04104 0.0
O77 O 0.26853 0.8573 0.02019 0.0
O78 O 0.24107 0.9771 0.05553 0.0
O79 O 0.27072 0.95315 0.03058 0.0
O80 O 0.35637 0.89939 0.03367 0.0
O81 O 0.33155 0.93862 0.05575 0.0
C82 C 0.2322 0.8615 0.02691 0.0
C83 C 0.36221 0.92699 0.04575 0.0
C84 C 0.86119 0.72118 0.92314 0.0
C85 C 0.98033 0.75112 0.96189 0.0
O86 O 0.89556 0.73886 0.91929 0.0
Zn87 Zn 0.92142 0.7346 0.94268 0.0
O88 O 0.85547 0.70673 0.93916 0.0
Zn89 Zn 0.89149 0.70285 0.96379 0.0
O90 O 0.85631 0.73055 0.98095 0.0
O91 O 0.88246 0.77305 0.96025 0.0
O92 O 0.95215 0.73003 0.9703 0.0
O93 O 0.97496 0.76056 0.94535 0.0
O94 O 0.93814 0.66949 0.94507 0.0
O95 O 0.89973 0.64367 0.96719 0.0
C96 C 0.85985 0.76717 0.97441 0.0
C97 C 0.92719 0.63846 0.95501 0.0
C98 C 0.72134 0.13952 0.078 0.0
C99 C 0.74954 0.02022 0.03887 0.0
O100 O 0.70711 0.14558 0.06198 0.0
Zn101 Zn 0.70248 0.10987 0.03733 0.0
O102 O 0.73806 0.10462 0.08189 0.0
Zn103 Zn 0.73354 0.07889 0.05841 0.0
O104 O 0.77263 0.11761 0.04104 0.0
O105 O 0.73088 0.14488 0.02032 0.0
O106 O 0.75887 0.0249 0.05547 0.0
O107 O 0.72887 0.04898 0.03061 0.0
O108 O 0.64326 0.10262 0.03388 0.0
O109 O 0.66831 0.06315 0.05583 0.0
C110 C 0.7673 0.14062 0.02695 0.0
C111 C 0.63756 0.07484 0.0459 0.0
C112 C 0.51752 0.74997 0.78937 0.0
C113 C 0.63576 0.72091 0.82882 0.0
O114 O 0.52204 0.75934 0.80597 0.0
Zn115 Zn 0.57594 0.73404 0.80896 0.0
O116 O 0.54631 0.72951 0.78106 0.0
Zn117 Zn 0.60775 0.70442 0.78775 0.0
O118 O 0.60078 0.64606 0.78303 0.0
O119 O 0.56249 0.66788 0.80602 0.0
O120 O 0.64207 0.70686 0.81278 0.0
O121 O 0.60124 0.73855 0.83251 0.0
O122 O 0.61299 0.77479 0.79184 0.0
O123 O 0.64408 0.73436 0.77164 0.0
C124 C 0.57424 0.63837 0.79535 0.0
C125 C 0.63735 0.77051 0.77816 0.0
C126 C 0.72263 0.36705 0.17166 0.0
C127 C 0.74849 0.48545 0.2117 0.0
O128 O 0.70824 0.36046 0.18759 0.0
Zn129 Zn 0.70357 0.39436 0.2125 0.0
O130 O 0.73949 0.40202 0.16807 0.0
Zn131 Zn 0.7342 0.42728 0.19176 0.0
O132 O 0.77425 0.39014 0.20927 0.0
O133 O 0.73291 0.3578 0.22877 0.0
O134 O 0.75777 0.48181 0.19504 0.0
O135 O 0.72876 0.45572 0.21977 0.0
O136 O 0.64415 0.40075 0.21607 0.0
O137 O 0.66879 0.44162 0.19451 0.0
C138 C 0.76937 0.3652 0.22275 0.0
C139 C 0.63818 0.42913 0.20432 0.0
C140 C 0.36295 0.28125 0.82752 0.0
C141 C 0.48085 0.24829 0.78865 0.0
O142 O 0.39719 0.2632 0.83131 0.0
Zn143 Zn 0.42218 0.26629 0.80783 0.0
O144 O 0.35684 0.29507 0.81141 0.0
Zn145 Zn 0.39243 0.29661 0.78643 0.0
O146 O 0.35695 0.26795 0.76974 0.0
O147 O 0.38254 0.22685 0.79104 0.0
O148 O 0.45323 0.2699 0.78017 0.0
O149 O 0.47509 0.2387 0.80514 0.0
O150 O 0.43806 0.33212 0.80484 0.0
O151 O 0.40089 0.35458 0.78164 0.0
C152 C 0.35997 0.23187 0.77681 0.0
C153 C 0.42739 0.36176 0.79402 0.0
C154 C 0.276 0.63409 0.17128 0.0
C155 C 0.24828 0.51635 0.21149 0.0
O156 O 0.2903 0.6406 0.18723 0.0
Zn157 Zn 0.29436 0.60684 0.21219 0.0
O158 O 0.25882 0.59927 0.16769 0.0
Zn159 Zn 0.26359 0.57412 0.19144 0.0
O160 O 0.22382 0.61201 0.20878 0.0
O161 O 0.2654 0.64396 0.22832 0.0
O162 O 0.23928 0.51993 0.1948 0.0
O163 O 0.26831 0.5459 0.21954 0.0
O164 O 0.35363 0.59984 0.21588 0.0
O165 O 0.32883 0.55904 0.19433 0.0
C166 C 0.22891 0.63704 0.22221 0.0
C167 C 0.35946 0.57132 0.20419 0.0
C168 C 0.52167 0.75073 0.46316 0.0
C169 C 0.63906 0.77889 0.42343 0.0
O170 O 0.52611 0.74167 0.44654 0.0
Zn171 Zn 0.58017 0.76642 0.44352 0.0
O172 O 0.55055 0.77114 0.4714 0.0
Zn173 Zn 0.61097 0.7977 0.4644 0.0
O174 O 0.6024 0.85593 0.46877 0.0
O175 O 0.5657 0.8326 0.44559 0.0
O176 O 0.6453 0.79521 0.43908 0.0
O177 O 0.60523 0.75953 0.42028 0.0
O178 O 0.61895 0.7274 0.46079 0.0
O179 O 0.64709 0.76951 0.48109 0.0
C180 C 0.57625 0.86266 0.4562 0.0
C181 C 0.64249 0.73294 0.47467 0.0
C182 C 0.78302 0.36013 0.57739 0.0
C183 C 0.75166 0.47819 0.53818 0.0
O184 O 0.79604 0.35339 0.56121 0.0
Zn185 Zn 0.79739 0.38824 0.53609 0.0
O186 O 0.76588 0.39487 0.58117 0.0
Zn187 Zn 0.76882 0.41949 0.55759 0.0
O188 O 0.72756 0.38073 0.54104 0.0
O189 O 0.76759 0.35282 0.51987 0.0
O190 O 0.74425 0.47401 0.55497 0.0
O191 O 0.77085 0.44893 0.52963 0.0
O192 O 0.85542 0.39594 0.53079 0.0
O193 O 0.8345 0.43334 0.55417 0.0
C194 C 0.73172 0.35741 0.52696 0.0
C195 C 0.8635 0.42223 0.54317 0.0
C196 C 0.42273 0.13563 0.45695 0.0
C197 C 0.35885 0.26777 0.47373 0.0
O198 O 0.39679 0.14372 0.46945 0.0
Zn199 Zn 0.38928 0.20203 0.4644 0.0
O200 O 0.43381 0.16477 0.44601 0.0
Zn201 Zn 0.42031 0.23061 0.44286 0.0
O202 O 0.4748 0.25493 0.44542 0.0
O203 O 0.45001 0.22842 0.47082 0.0
O204 O 0.38193 0.27191 0.45959 0.0
O205 O 0.35425 0.23183 0.4808 0.0
O206 O 0.354 0.20424 0.43937 0.0
O207 O 0.3955 0.23417 0.41936 0.0
C208 C 0.47914 0.2476 0.4622 0.0
C209 C 0.36065 0.21744 0.4232 0.0
C210 C 0.26664 0.6421 0.52621 0.0
C211 C 0.13639 0.5753 0.54326 0.0
O212 O 0.27142 0.61933 0.54042 0.0
Zn213 Zn 0.23125 0.58026 0.55729 0.0
O214 O 0.23062 0.64568 0.51914 0.0
Zn215 Zn 0.20176 0.61018 0.53565 0.0
O216 O 0.20294 0.64593 0.56056 0.0
O217 O 0.23422 0.60569 0.58069 0.0
O218 O 0.14375 0.60111 0.53062 0.0
O219 O 0.16579 0.5652 0.55424 0.0
O220 O 0.25682 0.52618 0.55491 0.0
O221 O 0.22948 0.54987 0.52947 0.0
C222 C 0.2164 0.63999 0.57674 0.0
C223 C 0.24937 0.52131 0.53816 0.0
H224 H 0.17068 0.2673 0.24373 0.0
H225 H 0.24487 0.50604 0.24824 0.0
H226 H 0.15079 0.34584 0.29051 0.0
H227 H 0.22185 0.44097 0.198 0.0
H228 H 0.22108 0.44412 0.26485 0.0
H229 H 0.20056 0.32736 0.22772 0.0
C230 C 0.17294 0.29706 0.25069 0.0
C231 C 0.15805 0.30161 0.26846 0.0
C232 C 0.22134 0.44343 0.25019 0.0
C233 C 0.19228 0.37033 0.25023 0.0
C234 C 0.23504 0.47867 0.2407 0.0
C235 C 0.23518 0.47872 0.2217 0.0
C236 C 0.20825 0.40778 0.24062 0.0
C237 C 0.22199 0.44239 0.21264 0.0
C238 C 0.18978 0.33135 0.24151 0.0
C239 C 0.16166 0.34098 0.27679 0.0
N240 N 0.20916 0.40834 0.22219 0.0
N241 N 0.17845 0.37382 0.26761 0.0
H242 H 0.47333 0.70761 0.76359 0.0
H243 H 0.34518 0.89906 0.72738 0.0
H244 H 0.47803 0.82514 0.79229 0.0
H245 H 0.27974 0.7831 0.73704 0.0
H246 H 0.40588 0.87103 0.74387 0.0
H247 H 0.41228 0.73349 0.74653 0.0
C248 C 0.46147 0.7388 0.76626 0.0
C249 C 0.48031 0.76429 0.77939 0.0
C250 C 0.37825 0.85177 0.74221 0.0
C251 C 0.41215 0.79415 0.75969 0.0
C252 C 0.34389 0.86751 0.73275 0.0
C253 C 0.3076 0.84325 0.73092 0.0
C254 C 0.37663 0.81111 0.74934 0.0
C255 C 0.3072 0.80273 0.73827 0.0
C256 C 0.42681 0.75339 0.7566 0.0
C257 C 0.46399 0.80447 0.78239 0.0
N258 N 0.34146 0.78766 0.74705 0.0
N259 N 0.4311 0.81847 0.77241 0.0
H260 H 0.75097 0.49616 0.24842 0.0
H261 H 0.82612 0.73471 0.24398 0.0
H262 H 0.77459 0.56094 0.19816 0.0
H263 H 0.84501 0.65574 0.29071 0.0
H264 H 0.79563 0.67496 0.22791 0.0
H265 H 0.77421 0.55826 0.265 0.0
C266 C 0.7608 0.52352 0.24087 0.0
C267 C 0.76104 0.5233 0.22187 0.0
C268 C 0.8063 0.67085 0.24171 0.0
C269 C 0.78737 0.59447 0.24077 0.0
C270 C 0.82348 0.70494 0.25092 0.0
C271 C 0.83832 0.70013 0.26869 0.0
C272 C 0.80342 0.63184 0.2504 0.0
C273 C 0.83423 0.66079 0.27699 0.0
C274 C 0.77418 0.55887 0.25035 0.0
C275 C 0.77418 0.55964 0.2128 0.0
N276 N 0.81715 0.62816 0.26778 0.0
N277 N 0.78676 0.59381 0.22234 0.0
H278 H 0.51931 0.17274 0.7923 0.0
H279 H 0.72231 0.21703 0.73712 0.0
H280 H 0.52691 0.28951 0.76313 0.0
H281 H 0.65414 0.10265 0.72746 0.0
H282 H 0.66077 0.2455 0.75303 0.0
H283 H 0.57991 0.1468 0.77514 0.0
C284 C 0.53404 0.19299 0.78241 0.0
C285 C 0.51828 0.23322 0.77904 0.0
C286 C 0.65947 0.21429 0.74731 0.0
C287 C 0.58751 0.20421 0.75983 0.0
C288 C 0.69436 0.19806 0.73832 0.0
C289 C 0.69297 0.15762 0.73094 0.0
C290 C 0.62382 0.18921 0.74944 0.0
C291 C 0.65618 0.13414 0.73284 0.0
C292 C 0.56826 0.17813 0.77261 0.0
C293 C 0.53817 0.25821 0.766 0.0
N294 N 0.62317 0.15003 0.74218 0.0
N295 N 0.57222 0.24348 0.75697 0.0
H296 H 0.22321 0.0563 0.05319 0.0
H297 H 0.15094 0.15259 0.95891 0.0
H298 H 0.24591 0.9939 0.00229 0.0
H299 H 0.17318 0.22863 0.00625 0.0
H300 H 0.18046 0.09221 0.9749 0.0
H301 H 0.19914 0.11814 0.0366 0.0
C302 C 0.22317 0.05562 0.03853 0.0
C303 C 0.23655 0.01989 0.0291 0.0
C304 C 0.17912 0.12221 0.98172 0.0
C305 C 0.20875 0.09036 0.01007 0.0
C306 C 0.1622 0.15664 0.97263 0.0
C307 C 0.15957 0.1957 0.98127 0.0
C308 C 0.19282 0.12672 0.99968 0.0
C309 C 0.17472 0.19915 0.99905 0.0
C310 C 0.2096 0.09097 0.02908 0.0
C311 C 0.23598 0.02083 0.0101 0.0
N312 N 0.19034 0.16501 0.00772 0.0
N313 N 0.22197 0.05537 0.0012 0.0
H314 H 0.1534 0.85071 0.04068 0.0
H315 H 0.05411 0.77789 0.94715 0.0
H316 H 0.2278 0.82775 0.99293 0.0
H317 H 0.99338 0.75572 0.99845 0.0
H318 H 0.1164 0.80201 0.96331 0.0
H319 H 0.09251 0.82135 0.02509 0.0
C320 C 0.15697 0.83934 0.02695 0.0
C321 C 0.19572 0.84172 0.01807 0.0
C322 C 0.0895 0.79167 0.97102 0.0
C323 C 0.12616 0.80859 1.00015 0.0
C324 C 0.05389 0.77808 0.96181 0.0
C325 C 0.01851 0.76483 0.97148 0.0
C326 C 0.08949 0.79267 0.99002 0.0
C327 C 0.02003 0.76555 0.99047 0.0
C328 C 0.12226 0.8225 0.0181 0.0
C329 C 0.19857 0.82643 1.0003 0.0
N330 N 0.05484 0.77958 0.99913 0.0
N331 N 0.16415 0.81085 0.99186 0.0
H332 H 0.82686 0.76991 0.00856 0.0
H333 H 0.75273 0.00828 0.00223 0.0
H334 H 0.84747 0.84641 0.96121 0.0
H335 H 0.77702 0.94579 0.05298 0.0
H336 H 0.77689 0.94579 0.98612 0.0
H337 H 0.79762 0.83087 0.02414 0.0
C338 C 0.82493 0.79943 0.00138 0.0
C339 C 0.83978 0.80312 0.98357 0.0
C340 C 0.77685 0.9458 0.00078 0.0
C341 C 0.80624 0.87286 0.00131 0.0
C342 C 0.76293 0.98135 0.00999 0.0
C343 C 0.763 0.98227 0.02899 0.0
C344 C 0.79034 0.91072 0.01063 0.0
C345 C 0.77668 0.94652 0.03833 0.0
C346 C 0.80845 0.83422 0.01032 0.0
C347 C 0.83661 0.84221 0.97497 0.0
N348 N 0.78968 0.91212 0.02906 0.0
N349 N 0.82011 0.87557 0.98391 0.0
H350 H 0.84623 0.15182 0.04055 0.0
H351 H 0.9444 0.22151 0.94636 0.0
H352 H 0.77135 0.17359 0.99282 0.0
H353 H 0.0061 0.24497 0.99734 0.0
H354 H 0.88232 0.1981 0.96285 0.0
H355 H 0.90701 0.18064 0.02468 0.0
C356 C 0.84253 0.16283 0.02677 0.0
C357 C 0.80368 0.16025 0.01798 0.0
C358 C 0.90939 0.20857 0.97041 0.0
C359 C 0.87311 0.19272 0.99973 0.0
C360 C 0.94488 0.22175 0.96102 0.0
C361 C 0.98048 0.23516 0.9705 0.0
C362 C 0.9097 0.20816 0.98942 0.0
C363 C 0.97929 0.23499 0.9895 0.0
C364 C 0.87718 0.17935 0.01775 0.0
C365 C 0.80066 0.17508 1.00013 0.0
N366 N 0.94457 0.22137 0.99835 0.0
N367 N 0.83501 0.19032 0.99154 0.0
H368 H 0.59981 0.84593 0.77316 0.0
H369 H 0.79087 0.97387 0.73742 0.0
H370 H 0.71484 0.77926 0.76294 0.0
H371 H 0.67393 0.97892 0.70837 0.0
H372 H 0.76494 0.91234 0.75417 0.0
H373 H 0.62805 0.90657 0.75671 0.0
C374 C 0.63119 0.84433 0.76764 0.0
C375 C 0.65515 0.80775 0.76933 0.0
C376 C 0.74519 0.92707 0.74409 0.0
C377 C 0.68752 0.87672 0.75099 0.0
C378 C 0.75978 0.96202 0.73463 0.0
C379 C 0.73445 0.98109 0.7215 0.0
C380 C 0.70459 0.91236 0.74079 0.0
C381 C 0.69444 0.96474 0.7183 0.0
C382 C 0.64704 0.87867 0.75822 0.0
C383 C 0.69545 0.80696 0.76182 0.0
N384 N 0.68043 0.93156 0.72808 0.0
N385 N 0.71068 0.84124 0.75309 0.0
H386 H 0.96945 0.20935 0.26528 0.0
H387 H 0.84484 0.4023 0.22804 0.0
H388 H 0.97878 0.329 0.29208 0.0
H389 H 0.7774 0.28772 0.23823 0.0
H390 H 0.905 0.3737 0.24464 0.0
H391 H 0.90809 0.23546 0.24847 0.0
C392 C 0.95857 0.24106 0.26758 0.0
C393 C 0.97886 0.26711 0.28009 0.0
C394 C 0.87703 0.35487 0.24312 0.0
C395 C 0.91024 0.29712 0.26071 0.0
C396 C 0.84294 0.37096 0.2336 0.0
C397 C 0.80626 0.34725 0.23185 0.0
C398 C 0.87478 0.3144 0.2504 0.0
C399 C 0.80515 0.30695 0.23942 0.0
C400 C 0.92369 0.25576 0.25808 0.0
C401 C 0.96369 0.30791 0.28265 0.0
N402 N 0.83919 0.2915 0.24825 0.0
N403 N 0.93057 0.32192 0.27284 0.0
H404 H 0.27078 0.05661 0.69707 0.0
H405 H 0.34943 0.15271 0.79049 0.0
H406 H 0.25535 0.99232 0.74804 0.0
H407 H 0.32446 0.2281 0.74319 0.0
H408 H 0.31933 0.09207 0.77493 0.0
H409 H 0.29528 0.11845 0.71343 0.0
C410 C 0.27249 0.05552 0.7117 0.0
C411 C 0.26104 0.01925 0.7212 0.0
C412 C 0.3202 0.12199 0.76803 0.0
C413 C 0.28931 0.08979 0.73999 0.0
C414 C 0.33743 0.15657 0.77688 0.0
C415 C 0.33953 0.19552 0.76812 0.0
C416 C 0.30555 0.12627 0.7502 0.0
C417 C 0.32343 0.19872 0.75048 0.0
C418 C 0.28632 0.09088 0.72104 0.0
C419 C 0.26374 0.01967 0.74018 0.0
N420 N 0.30746 0.16447 0.74205 0.0
N421 N 0.27791 0.0543 0.74895 0.0
H422 H 0.01749 0.66925 0.29185 0.0
H423 H 0.22197 0.71473 0.23757 0.0
H424 H 0.02867 0.7889 0.26516 0.0
H425 H 0.15289 0.60108 0.2275 0.0
H426 H 0.16065 0.74336 0.25359 0.0
H427 H 0.07759 0.64362 0.27438 0.0
C428 C 0.03286 0.69018 0.28242 0.0
C429 C 0.01826 0.73117 0.27987 0.0
C430 C 0.15909 0.71228 0.24775 0.0
C431 C 0.08702 0.7024 0.26027 0.0
C432 C 0.19389 0.69593 0.23872 0.0
C433 C 0.1922 0.65563 0.2312 0.0
C434 C 0.12321 0.68747 0.24975 0.0
C435 C 0.15521 0.63242 0.233 0.0
C436 C 0.06682 0.67549 0.27243 0.0
C437 C 0.039 0.75701 0.2674 0.0
N438 N 0.1223 0.64843 0.24236 0.0
N439 N 0.07281 0.74234 0.25816 0.0
H440 H 0.74559 0.48976 0.50161 0.0
H441 H 0.67735 0.72976 0.50847 0.0
H442 H 0.72656 0.5532 0.55255 0.0
H443 H 0.65241 0.65343 0.46146 0.0
H444 H 0.70609 0.66826 0.52383 0.0
H445 H 0.72163 0.5526 0.48572 0.0
C446 C 0.73654 0.51696 0.50945 0.0
C447 C 0.73794 0.51622 0.52844 0.0
C448 C 0.69442 0.66506 0.51014 0.0
C449 C 0.71084 0.58819 0.51034 0.0
C450 C 0.67823 0.70016 0.50132 0.0
C451 C 0.66233 0.69667 0.48367 0.0
C452 C 0.69524 0.62633 0.50116 0.0
C453 C 0.66413 0.65747 0.4751 0.0
C454 C 0.72275 0.55272 0.50038 0.0
C455 C 0.72574 0.55233 0.53791 0.0
N456 N 0.68036 0.62382 0.48392 0.0
N457 N 0.71283 0.58693 0.52875 0.0
H458 H 0.65243 0.3491 0.54078 0.0
H459 H 0.5538 0.27221 0.44759 0.0
H460 H 0.72671 0.32193 0.4934 0.0
H461 H 0.4909 0.25509 0.49876 0.0
H462 H 0.61587 0.29655 0.46381 0.0
H463 H 0.591 0.32021 0.52532 0.0
C464 C 0.65587 0.3369 0.52718 0.0
C465 C 0.69475 0.33795 0.51836 0.0
C466 C 0.58853 0.28728 0.47149 0.0
C467 C 0.62467 0.30543 0.50059 0.0
C468 C 0.55305 0.27355 0.46224 0.0
C469 C 0.51714 0.2616 0.47184 0.0
C470 C 0.58791 0.2897 0.49047 0.0
C471 C 0.51798 0.26385 0.49083 0.0
C472 C 0.62086 0.32036 0.51839 0.0
C473 C 0.69741 0.32166 0.50074 0.0
N474 N 0.55272 0.27794 0.49953 0.0
N475 N 0.66279 0.30642 0.49239 0.0
H476 H 0.27566 0.44732 0.55302 0.0
H477 H 0.3498 0.34686 0.45975 0.0
H478 H 0.25613 0.50873 0.50164 0.0
H479 H 0.32478 0.27323 0.50755 0.0
H480 H 0.32135 0.40854 0.4752 0.0
H481 H 0.30016 0.38498 0.53695 0.0
C482 C 0.27654 0.4477 0.53836 0.0
C483 C 0.26383 0.48325 0.52865 0.0
C484 C 0.32189 0.37878 0.48223 0.0
C485 C 0.29207 0.41219 0.51021 0.0
C486 C 0.33818 0.34362 0.47345 0.0
C487 C 0.33967 0.30485 0.48238 0.0
C488 C 0.30767 0.37524 0.50015 0.0
C489 C 0.32412 0.30245 0.50012 0.0
C490 C 0.29035 0.41206 0.52921 0.0
C491 C 0.26549 0.48193 0.50966 0.0
N492 N 0.3091 0.33723 0.50848 0.0
N493 N 0.27964 0.44707 0.50105 0.0
H494 H 0.50976 0.74668 0.49982 0.0
H495 H 0.27078 0.67665 0.49244 0.0
H496 H 0.44718 0.72457 0.44893 0.0
H497 H 0.34566 0.65277 0.53999 0.0
H498 H 0.33235 0.70555 0.4774 0.0
H499 H 0.4469 0.72294 0.51579 0.0
C500 C 0.48275 0.73703 0.49201 0.0
C501 C 0.48371 0.73746 0.47301 0.0
C502 C 0.33524 0.6941 0.49114 0.0
C503 C 0.41184 0.71069 0.49118 0.0
C504 C 0.30009 0.67779 0.49978 0.0
C505 C 0.30313 0.66211 0.51748 0.0
C506 C 0.37365 0.69524 0.50032 0.0
C507 C 0.34198 0.66432 0.5263 0.0
C508 C 0.44702 0.72337 0.50113 0.0
C509 C 0.44788 0.72451 0.46358 0.0
N510 N 0.37578 0.68063 0.51762 0.0
N511 N 0.41334 0.7118 0.47276 0.0
H512 H 0.36947 0.22339 0.38649 0.0
H513 H 0.12565 0.23528 0.3662 0.0
H514 H 0.27656 0.20549 0.42817 0.0
H515 H 0.21627 0.20333 0.32513 0.0
H516 H 0.18079 0.23073 0.38912 0.0
H517 H 0.31398 0.22215 0.3637 0.0
C518 C 0.3374 0.21906 0.39085 0.0
C519 C 0.32759 0.21458 0.40926 0.0
C520 C 0.1885 0.22451 0.3751 0.0
C521 C 0.26399 0.21361 0.38327 0.0
C522 C 0.15713 0.22728 0.36201 0.0
C523 C 0.16641 0.21973 0.34372 0.0
C524 C 0.22958 0.21483 0.36984 0.0
C525 C 0.20771 0.20929 0.33907 0.0
C526 C 0.3058 0.21822 0.37783 0.0
C527 C 0.28552 0.20892 0.41412 0.0
N528 N 0.23786 0.2075 0.35203 0.0
N529 N 0.25518 0.20899 0.40121 0.0
H530 H 0.20057 0.72348 0.57152 0.0
H531 H 0.20044 0.77991 0.67688 0.0
H532 H 0.22344 0.63212 0.61345 0.0
H533 H 0.22588 0.8714 0.6353 0.0
H534 H 0.19681 0.72552 0.65361 0.0
H535 H 0.19782 0.77839 0.59469 0.0
C536 C 0.20468 0.71493 0.5856 0.0
C537 C 0.21242 0.67321 0.59057 0.0
C538 C 0.20308 0.75753 0.6496 0.0
C539 C 0.20906 0.73569 0.61706 0.0
C540 C 0.20499 0.78862 0.66285 0.0
C541 C 0.21367 0.83023 0.65803 0.0
C542 C 0.2093 0.76821 0.63136 0.0
C543 C 0.21939 0.83967 0.63962 0.0
C544 C 0.20331 0.74627 0.59878 0.0
C545 C 0.21767 0.66392 0.60901 0.0
N546 N 0.21701 0.8089 0.62694 0.0
N547 N 0.2158 0.6949 0.62159 0.0
H548 H 0.6576 0.71846 0.39889 0.0
H549 H 0.81397 0.8425 0.33777 0.0
H550 H 0.69529 0.84169 0.41639 0.0
H551 H 0.84277 0.71616 0.35432 0.0
H552 H 0.75885 0.84524 0.3611 0.0
H553 H 0.71399 0.71909 0.37639 0.0
C554 C 0.67754 0.74579 0.39786 0.0
C555 C 0.67197 0.78008 0.40947 0.0
C556 C 0.77749 0.81711 0.35958 0.0
C557 C 0.7356 0.78119 0.38366 0.0
C558 C 0.80863 0.81543 0.3463 0.0
C559 C 0.83286 0.77908 0.34423 0.0
C560 C 0.76981 0.78171 0.37031 0.0
C561 C 0.82491 0.74484 0.3556 0.0
C562 C 0.7097 0.74598 0.38513 0.0
C563 C 0.69882 0.81461 0.4077 0.0
N564 N 0.7936 0.74674 0.368 0.0
N565 N 0.72936 0.81454 0.39485 0.0
H566 H 0.77208 0.12529 0.63501 0.0
H567 H 0.77673 0.36932 0.61408 0.0
H568 H 0.79951 0.21771 0.67596 0.0
H569 H 0.79739 0.27623 0.57266 0.0
H570 H 0.7797 0.31419 0.63703 0.0
H571 H 0.77599 0.18012 0.61191 0.0
C572 C 0.77905 0.15708 0.63914 0.0
C573 C 0.7854 0.16697 0.65745 0.0
C574 C 0.78386 0.30588 0.62293 0.0
C575 C 0.78949 0.22982 0.63112 0.0
C576 C 0.78202 0.33729 0.60982 0.0
C577 C 0.78675 0.32733 0.59143 0.0
C578 C 0.78976 0.2641 0.6176 0.0
C579 C 0.79369 0.28531 0.58669 0.0
C580 C 0.78142 0.1883 0.62595 0.0
C581 C 0.79449 0.20867 0.66201 0.0
N582 N 0.79459 0.25515 0.59969 0.0
N583 N 0.79588 0.23864 0.64895 0.0
H584 H 0.12732 0.26977 0.88436 0.0
H585 H 0.37144 0.274 0.8642 0.0
H586 H 0.21899 0.29648 0.92568 0.0
H587 H 0.27931 0.29638 0.82259 0.0
H588 H 0.31598 0.2765 0.88698 0.0
H589 H 0.18254 0.27365 0.86146 0.0
C590 C 0.15904 0.27652 0.88862 0.0
C591 C 0.16859 0.28274 0.90697 0.0
C592 C 0.30796 0.28114 0.87287 0.0
C593 C 0.23187 0.28685 0.88086 0.0
C594 C 0.33955 0.27959 0.85986 0.0
C595 C 0.32996 0.28494 0.84147 0.0
C596 C 0.26634 0.28737 0.86745 0.0
C597 C 0.2881 0.29223 0.83663 0.0
C598 C 0.19047 0.2789 0.87553 0.0
C599 C 0.21021 0.29157 0.91169 0.0
N600 N 0.25774 0.29283 0.84953 0.0
N601 N 0.24038 0.29299 0.89874 0.0
H602 H 0.29226 0.71713 0.17665 0.0
H603 H 0.29186 0.7786 0.072 0.0
H604 H 0.26526 0.6275 0.1345 0.0
H605 H 0.26932 0.86829 0.11462 0.0
H606 H 0.29261 0.72249 0.09462 0.0
H607 H 0.29445 0.77264 0.15388 0.0
C608 C 0.287 0.70906 0.16259 0.0
C609 C 0.27848 0.66758 0.15747 0.0
C610 C 0.28754 0.75448 0.09899 0.0
C611 C 0.2812 0.73102 0.13135 0.0
C612 C 0.28732 0.78654 0.08612 0.0
C613 C 0.28045 0.82821 0.09144 0.0
C614 C 0.28154 0.76423 0.11733 0.0
C615 C 0.27454 0.83661 0.10991 0.0
C616 C 0.28808 0.74081 0.14963 0.0
C617 C 0.27175 0.65906 0.13905 0.0
N618 N 0.2754 0.80493 0.1222 0.0
N619 N 0.27343 0.6905 0.12663 0.0
H620 H 0.77796 0.70545 0.92861 0.0
H621 H 0.71887 0.70447 0.82364 0.0
H622 H 0.86806 0.73009 0.88642 0.0
H623 H 0.62839 0.73033 0.86555 0.0
H624 H 0.77393 0.70218 0.84664 0.0
H625 H 0.7226 0.70301 0.90569 0.0
C626 C 0.78614 0.71009 0.91452 0.0
C627 C 0.82766 0.71813 0.90941 0.0
C628 C 0.74199 0.70827 0.85078 0.0
C629 C 0.76461 0.71506 0.88319 0.0
C630 C 0.71053 0.70939 0.83769 0.0
C631 C 0.66899 0.71775 0.84269 0.0
C632 C 0.73178 0.7149 0.86903 0.0
C633 C 0.66004 0.72402 0.8611 0.0
C634 C 0.75452 0.70887 0.90149 0.0
C635 C 0.83644 0.72405 0.89097 0.0
N636 N 0.69117 0.72234 0.87362 0.0
N637 N 0.80519 0.72225 0.87851 0.0
H638 H 0.70734 0.22307 0.0723 0.0
H639 H 0.70738 0.2838 0.17701 0.0
H640 H 0.73106 0.13318 0.11473 0.0
H641 H 0.73317 0.37388 0.1349 0.0
H642 H 0.7056 0.22836 0.1542 0.0
H643 H 0.70638 0.27896 0.09501 0.0
C644 C 0.71211 0.21504 0.0864 0.0
C645 C 0.71935 0.17339 0.09164 0.0
C646 C 0.71162 0.26027 0.14997 0.0
C647 C 0.71804 0.23712 0.11763 0.0
C648 C 0.71246 0.29197 0.16295 0.0
C649 C 0.72051 0.33356 0.15785 0.0
C650 C 0.71825 0.27022 0.13169 0.0
C651 C 0.72704 0.34223 0.13943 0.0
C652 C 0.71176 0.24698 0.09932 0.0
C653 C 0.72554 0.16487 0.11009 0.0
N654 N 0.72558 0.31084 0.127 0.0
N655 N 0.72456 0.19643 0.12243 0.0
H656 H 0.01074 0.87521 0.31054 0.0
H657 H 0.98988 0.12354 0.31104 0.0
H658 H 0.89675 0.93749 0.29458 0.0
H659 H 0.10252 0.06208 0.29283 0.0
H660 H 0.95577 0.05486 0.31355 0.0
H661 H 0.04544 0.9438 0.31259 0.0
C662 C 0.99292 0.90335 0.30774 0.0
C663 C 0.95096 0.90086 0.30229 0.0
C664 C 0.98806 0.05657 0.30917 0.0
C665 C 0.99002 0.97879 0.30488 0.0
C666 C 0.00755 0.09556 0.30781 0.0
C667 C 0.04894 0.09835 0.30162 0.0
C668 C 0.0105 0.0202 0.30474 0.0
C669 C 0.07043 0.06121 0.29751 0.0
C670 C 0.01273 0.94227 0.30882 0.0
C671 C 0.92926 0.93815 0.29869 0.0
N672 N 0.051 0.02355 0.29921 0.0
N673 N 0.949 0.97568 0.30012 0.0
H674 H 0.91805 0.06563 0.73349 0.0
H675 H 0.09881 0.95916 0.67684 0.0
H676 H 0.89772 0.03128 0.67767 0.0
H677 H 0.07919 0.93159 0.7334 0.0
H678 H 0.03096 0.99541 0.67615 0.0
H679 H 0.98435 0.02738 0.73302 0.0
C680 C 0.92774 0.05038 0.72108 0.0
C681 C 0.90239 0.0516 0.70559 0.0
C682 C 0.04153 0.98112 0.68863 0.0
C683 C 0.97819 0.00807 0.70498 0.0
C684 C 0.08013 0.96056 0.68907 0.0
C685 C 0.09452 0.94232 0.7052 0.0
C686 C 0.01787 0.98435 0.70456 0.0
C687 C 0.06915 0.94499 0.72065 0.0
C688 C 0.96536 0.02832 0.72088 0.0
C689 C 0.91633 0.03097 0.68992 0.0
N690 N 0.03227 0.9661 0.72001 0.0
N691 N 0.95355 0.01023 0.68996 0.0
H692 H 0.99146 0.37615 0.94308 0.0
H693 H 0.00691 0.62368 0.94359 0.0
H694 H 0.10382 0.43874 0.96081 0.0
H695 H 0.89535 0.56062 0.96195 0.0
H696 H 0.04285 0.55578 0.94204 0.0
H697 H 0.95548 0.44408 0.94214 0.0
C698 C 0.00865 0.40425 0.94656 0.0
C699 C 0.0506 0.40198 0.95208 0.0
C700 C 0.01044 0.55696 0.9463 0.0
C701 C 0.00995 0.47929 0.95075 0.0
C702 C 0.98988 0.59549 0.94709 0.0
C703 C 0.94818 0.59761 0.95295 0.0
C704 C 0.98876 0.52034 0.95093 0.0
C705 C 0.9276 0.56024 0.95746 0.0
C706 C 0.98807 0.4428 0.94612 0.0
C707 C 0.07139 0.43923 0.95659 0.0
N708 N 0.94803 0.52299 0.95624 0.0
N709 N 0.05091 0.47651 0.9557 0.0
H710 H 0.43937 0.89403 0.0384 0.0
H711 H 0.56029 0.10798 0.03899 0.0
H712 H 0.37833 0.0067 0.05694 0.0
H713 H 0.62171 0.99469 0.05657 0.0
H714 H 0.4927 0.07156 0.04063 0.0
H715 H 0.50702 0.93034 0.04012 0.0
C716 C 0.44028 0.92633 0.04288 0.0
C717 C 0.40336 0.94744 0.04758 0.0
C718 C 0.52103 0.05489 0.04424 0.0
C719 C 0.48003 0.98911 0.04916 0.0
C720 C 0.55947 0.07552 0.04325 0.0
C721 C 0.59647 0.05427 0.04771 0.0
C722 C 0.51987 0.01247 0.04918 0.0
C723 C 0.5938 0.01223 0.05315 0.0
C724 C 0.47876 0.94688 0.04392 0.0
C725 C 0.40616 0.98926 0.05332 0.0
N726 N 0.55616 0.99246 0.05349 0.0
N727 N 0.44383 0.00898 0.0537 0.0
H728 H 0.43419 0.41966 0.76719 0.0
H729 H 0.53626 0.60143 0.82462 0.0
H730 H 0.46741 0.39789 0.82304 0.0
H731 H 0.56715 0.58059 0.76847 0.0
H732 H 0.5004 0.53321 0.82519 0.0
H733 H 0.4712 0.48651 0.76825 0.0
C734 C 0.44896 0.42911 0.77974 0.0
C735 C 0.44781 0.40318 0.79505 0.0
C736 C 0.51533 0.54366 0.81283 0.0
C737 C 0.48991 0.47972 0.79634 0.0
C738 C 0.53563 0.58246 0.81247 0.0
C739 C 0.55473 0.59655 0.79648 0.0
C740 C 0.51324 0.5196 0.79697 0.0
C741 C 0.55307 0.57081 0.78111 0.0
C742 C 0.47029 0.46709 0.78028 0.0
C743 C 0.46775 0.41694 0.81092 0.0
N744 N 0.53223 0.53382 0.78167 0.0
N745 N 0.48784 0.45454 0.81121 0.0
H746 H 0.62211 0.50918 0.19366 0.0
H747 H 0.37521 0.49096 0.19382 0.0
H748 H 0.56088 0.39611 0.21154 0.0
H749 H 0.43683 0.60417 0.21128 0.0
H750 H 0.44332 0.45549 0.19292 0.0
H751 H 0.55395 0.54445 0.19269 0.0
C752 C 0.59426 0.49167 0.19718 0.0
C753 C 0.59701 0.44971 0.20271 0.0
C754 C 0.44179 0.48813 0.19686 0.0
C755 C 0.51934 0.48962 0.20139 0.0
C756 C 0.40313 0.50845 0.19727 0.0
C757 C 0.40052 0.55052 0.20266 0.0
C758 C 0.47808 0.51039 0.2014 0.0
C759 C 0.43756 0.57165 0.20714 0.0
C760 C 0.55556 0.51188 0.19674 0.0
C761 C 0.56004 0.42855 0.20729 0.0
N762 N 0.47497 0.55143 0.20628 0.0
N763 N 0.52257 0.44867 0.2064 0.0
H764 H 0.42944 0.07774 0.48388 0.0
H765 H 0.53689 0.89773 0.4268 0.0
H766 H 0.46167 0.09892 0.42788 0.0
H767 H 0.56703 0.92059 0.48288 0.0
H768 H 0.49814 0.96439 0.42609 0.0
H769 H 0.46742 0.0113 0.48292 0.0
C770 C 0.44408 0.06818 0.47132 0.0
C771 C 0.44255 0.0939 0.45594 0.0
C772 C 0.51352 0.95471 0.43846 0.0
C773 C 0.48577 0.01794 0.45479 0.0
C774 C 0.53552 0.91683 0.4389 0.0
C775 C 0.55529 0.90377 0.45491 0.0
C776 C 0.51042 0.97885 0.45428 0.0
C777 C 0.55253 0.92961 0.47022 0.0
C778 C 0.46598 0.03047 0.47084 0.0
C779 C 0.46234 0.08005 0.44005 0.0
N780 N 0.53009 0.96566 0.46959 0.0
N781 N 0.48305 0.04278 0.43984 0.0
H782 H 0.92074 0.42881 0.51601 0.0
H783 H 0.10035 0.53763 0.57276 0.0
H784 H 0.90034 0.4621 0.57195 0.0
H785 H 0.07929 0.56499 0.51627 0.0
H786 H 0.03361 0.49937 0.57351 0.0
H787 H 0.98699 0.467 0.51664 0.0
C788 C 0.93043 0.44376 0.52849 0.0
C789 C 0.90501 0.44239 0.54395 0.0
C790 C 0.04366 0.51402 0.56102 0.0
C791 C 0.98074 0.48586 0.54473 0.0
C792 C 0.08162 0.53574 0.56056 0.0
C793 C 0.09522 0.55457 0.54443 0.0
C794 C 0.01993 0.51028 0.54513 0.0
C795 C 0.06983 0.55119 0.52901 0.0
C796 C 0.96803 0.46578 0.52878 0.0
C797 C 0.91899 0.46259 0.55972 0.0
N798 N 0.03363 0.52904 0.52969 0.0
N799 N 0.95614 0.48339 0.55975 0.0
loop_
_geom_bond_atom_site_label_1
_geom_bond_atom_site_label_2
_geom_bond_distance
_geom_bond_site_symmetry_2
_ccdc_geom_bond_type
C0 O2 1.247 . S
C0 O4 1.258 . S
C1 O8 1.247 . S
C1 O9 1.258 . S
O2 C0 1.247 . S
O2 Zn3 2.028 . S
Zn3 O2 2.028 . S
Zn3 O7 2.035 . S
Zn3 O9 2.035 . S
Zn3 O10 2.028 . S
O4 C0 1.258 . S
O4 Zn5 2.035 . S
Zn5 O4 2.035 . S
Zn5 O6 2.028 . S
Zn5 O8 2.028 . S
Zn5 O11 2.035 . S
O6 Zn5 2.028 . S
O6 C12 1.247 . S
O7 Zn3 2.035 . S
O7 C12 1.258 . S
O8 C1 1.247 . S
O8 Zn5 2.028 . S
O9 C1 1.258 . S
O9 Zn3 2.035 . S
O10 Zn3 2.028 . S
O10 C13 1.247 . S
O11 Zn5 2.035 . S
O11 C13 1.258 . S
C12 O6 1.247 . S
C12 O7 1.258 . S
C13 O10 1.247 . S
C13 O11 1.258 . S
C14 O16 1.247 . S
C14 O18 1.258 . S
C15 O22 1.247 . S
C15 O23 1.258 . S
O16 C14 1.247 . S
O16 Zn17 2.028 . S
Zn17 O16 2.028 . S
Zn17 O21 2.035 . S
Zn17 O23 2.035 . S
Zn17 O24 2.028 . S
O18 C14 1.258 . S
O18 Zn19 2.035 . S
Zn19 O18 2.035 . S
Zn19 O20 2.028 . S
Zn19 O22 2.028 . S
Zn19 O25 2.035 . S
O20 Zn19 2.028 . S
O20 C26 1.247 . S
O21 Zn17 2.035 . S
O21 C26 1.258 . S
O22 C15 1.247 . S
O22 Zn19 2.028 . S
O23 C15 1.258 . S
O23 Zn17 2.035 . S
O24 Zn17 2.028 . S
O24 C27 1.247 . S
O25 Zn19 2.035 . S
O25 C27 1.258 . S
C26 O20 1.247 . S
C26 O21 1.258 . S
C27 O24 1.247 . S
C27 O25 1.258 . S
C28 O30 1.247 . S
C28 O32 1.258 . S
C29 O36 1.247 . S
C29 O37 1.258 . S
O30 C28 1.247 . S
O30 Zn31 2.028 . S
Zn31 O30 2.028 . S
Zn31 O35 2.035 . S
Zn31 O37 2.035 . S
Zn31 O38 2.028 . S
O32 C28 1.258 . S
O32 Zn33 2.035 . S
Zn33 O32 2.035 . S
Zn33 O34 2.028 . S
Zn33 O36 2.028 . S
Zn33 O39 2.035 . S
O34 Zn33 2.028 . S
O34 C40 1.247 . S
O35 Zn31 2.035 . S
O35 C40 1.258 . S
O36 C29 1.247 . S
O36 Zn33 2.028 . S
O37 C29 1.258 . S
O37 Zn31 2.035 . S
O38 Zn31 2.028 . S
O38 C41 1.247 . S
O39 Zn33 2.035 . S
O39 C41 1.258 . S
C40 O34 1.247 . S
C40 O35 1.258 . S
C41 O38 1.247 . S
C41 O39 1.258 . S
C42 O44 1.247 . S
C42 O46 1.258 . S
C43 O50 1.247 . S
C43 O51 1.258 . S
O44 C42 1.247 . S
O44 Zn45 2.028 . S
Zn45 O44 2.028 . S
Zn45 O49 2.035 . S
Zn45 O51 2.035 . S
Zn45 O52 2.028 . S
O46 C42 1.258 . S
O46 Zn47 2.035 . S
Zn47 O46 2.035 . S
Zn47 O48 2.028 . S
Zn47 O50 2.028 . S
Zn47 O53 2.035 . S
O48 Zn47 2.028 . S
O48 C54 1.247 . S
O49 Zn45 2.035 . S
O49 C54 1.258 . S
O50 C43 1.247 . S
O50 Zn47 2.028 . S
O51 C43 1.258 . S
O51 Zn45 2.035 . S
O52 Zn45 2.028 . S
O52 C55 1.247 . S
O53 Zn47 2.035 . S
O53 C55 1.258 . S
C54 O48 1.247 . S
C54 O49 1.258 . S
C55 O52 1.247 . S
C55 O53 1.258 . S
C56 O58 1.247 . S
C56 O60 1.258 . S
C57 O64 1.247 . S
C57 O65 1.258 . S
O58 C56 1.247 . S
O58 Zn59 2.028 . S
Zn59 O58 2.028 . S
Zn59 O63 2.035 . S
Zn59 O65 2.035 . S
Zn59 O66 2.028 . S
O60 C56 1.258 . S
O60 Zn61 2.035 . S
Zn61 O60 2.035 . S
Zn61 O62 2.028 . S
Zn61 O64 2.028 . S
Zn61 O67 2.035 . S
O62 Zn61 2.028 . S
O62 C68 1.247 . S
O63 Zn59 2.035 . S
O63 C68 1.258 . S
O64 C57 1.247 . S
O64 Zn61 2.028 . S
O65 C57 1.258 . S
O65 Zn59 2.035 . S
O66 Zn59 2.028 . S
O66 C69 1.247 . S
O67 Zn61 2.035 . S
O67 C69 1.258 . S
C68 O62 1.247 . S
C68 O63 1.258 . S
C69 O66 1.247 . S
C69 O67 1.258 . S
C70 O72 1.247 . S
C70 O74 1.258 . S
C71 O78 1.247 . S
C71 O79 1.258 . S
O72 C70 1.247 . S
O72 Zn73 2.028 . S
Zn73 O72 2.028 . S
Zn73 O77 2.035 . S
Zn73 O79 2.035 . S
Zn73 O80 2.028 . S
O74 C70 1.258 . S
O74 Zn75 2.035 . S
Zn75 O74 2.035 . S
Zn75 O76 2.028 . S
Zn75 O78 2.028 . S
Zn75 O81 2.035 . S
O76 Zn75 2.028 . S
O76 C82 1.247 . S
O77 Zn73 2.035 . S
O77 C82 1.258 . S
O78 C71 1.247 . S
O78 Zn75 2.028 . S
O79 C71 1.258 . S
O79 Zn73 2.035 . S
O80 Zn73 2.028 . S
O80 C83 1.247 . S
O81 Zn75 2.035 . S
O81 C83 1.258 . S
C82 O76 1.247 . S
C82 O77 1.258 . S
C83 O80 1.247 . S
C83 O81 1.258 . S
C84 O86 1.247 . S
C84 O88 1.258 . S
C85 O92 1.247 . S
C85 O93 1.258 . S
O86 C84 1.247 . S
O86 Zn87 2.028 . S
Zn87 O86 2.028 . S
Zn87 O91 2.035 . S
Zn87 O93 2.035 . S
Zn87 O94 2.028 . S
O88 C84 1.258 . S
O88 Zn89 2.035 . S
Zn89 O88 2.035 . S
Zn89 O90 2.028 . S
Zn89 O92 2.028 . S
Zn89 O95 2.035 . S
O90 Zn89 2.028 . S
O90 C96 1.247 . S
O91 Zn87 2.035 . S
O91 C96 1.258 . S
O92 C85 1.247 . S
O92 Zn89 2.028 . S
O93 C85 1.258 . S
O93 Zn87 2.035 . S
O94 Zn87 2.028 . S
O94 C97 1.247 . S
O95 Zn89 2.035 . S
O95 C97 1.258 . S
C96 O90 1.247 . S
C96 O91 1.258 . S
C97 O94 1.247 . S
C97 O95 1.258 . S
C98 O100 1.247 . S
C98 O102 1.258 . S
C99 O106 1.247 . S
C99 O107 1.258 . S
O100 C98 1.247 . S
O100 Zn101 2.028 . S
Zn101 O100 2.028 . S
Zn101 O105 2.035 . S
Zn101 O107 2.035 . S
Zn101 O108 2.028 . S
O102 C98 1.258 . S
O102 Zn103 2.035 . S
Zn103 O102 2.035 . S
Zn103 O104 2.028 . S
Zn103 O106 2.028 . S
Zn103 O109 2.035 . S
O104 Zn103 2.028 . S
O104 C110 1.247 . S
O105 Zn101 2.035 . S
O105 C110 1.258 . S
O106 C99 1.247 . S
O106 Zn103 2.028 . S
O107 C99 1.258 . S
O107 Zn101 2.035 . S
O108 Zn101 2.028 . S
O108 C111 1.247 . S
O109 Zn103 2.035 . S
O109 C111 1.258 . S
C110 O104 1.247 . S
C110 O105 1.258 . S
C111 O108 1.247 . S
C111 O109 1.258 . S
C112 O114 1.247 . S
C112 O116 1.258 . S
C113 O120 1.247 . S
C113 O121 1.258 . S
O114 C112 1.247 . S
O114 Zn115 2.028 . S
Zn115 O114 2.028 . S
Zn115 O119 2.035 . S
Zn115 O121 2.035 . S
Zn115 O122 2.028 . S
O116 C112 1.258 . S
O116 Zn117 2.035 . S
Zn117 O116 2.035 . S
Zn117 O118 2.028 . S
Zn117 O120 2.028 . S
Zn117 O123 2.035 . S
O118 Zn117 2.028 . S
O118 C124 1.247 . S
O119 Zn115 2.035 . S
O119 C124 1.258 . S
O120 C113 1.247 . S
O120 Zn117 2.028 . S
O121 C113 1.258 . S
O121 Zn115 2.035 . S
O122 Zn115 2.028 . S
O122 C125 1.247 . S
O123 Zn117 2.035 . S
O123 C125 1.258 . S
C124 O118 1.247 . S
C124 O119 1.258 . S
C125 O122 1.247 . S
C125 O123 1.258 . S
C126 O128 1.247 . S
C126 O130 1.258 . S
C127 O134 1.247 . S
C127 O135 1.258 . S
O128 C126 1.247 . S
O128 Zn129 2.028 . S
Zn129 O128 2.028 . S
Zn129 O133 2.035 . S
Zn129 O135 2.035 . S
Zn129 O136 2.028 . S
O130 C126 1.258 . S
O130 Zn131 2.035 . S
Zn131 O130 2.035 . S
Zn131 O132 2.028 . S
Zn131 O134 2.028 . S
Zn131 O137 2.035 . S
O132 Zn131 2.028 . S
O132 C138 1.247 . S
O133 Zn129 2.035 . S
O133 C138 1.258 . S
O134 C127 1.247 . S
O134 Zn131 2.028 . S
O135 C127 1.258 . S
O135 Zn129 2.035 . S
O136 Zn129 2.028 . S
O136 C139 1.247 . S
O137 Zn131 2.035 . S
O137 C139 1.258 . S
C138 O132 1.247 . S
C138 O133 1.258 . S
C139 O136 1.247 . S
C139 O137 1.258 . S
C140 O142 1.247 . S
C140 O144 1.258 . S
C141 O148 1.247 . S
C141 O149 1.258 . S
O142 C140 1.247 . S
O142 Zn143 2.028 . S
Zn143 O142 2.028 . S
Zn143 O147 2.035 . S
Zn143 O149 2.035 . S
Zn143 O150 2.028 . S
O144 C140 1.258 . S
O144 Zn145 2.035 . S
Zn145 O144 2.035 . S
Zn145 O146 2.028 . S
Zn145 O148 2.028 . S
Zn145 O151 2.035 . S
O146 Zn145 2.028 . S
O146 C152 1.247 . S
O147 Zn143 2.035 . S
O147 C152 1.258 . S
O148 C141 1.247 . S
O148 Zn145 2.028 . S
O149 C141 1.258 . S
O149 Zn143 2.035 . S
O150 Zn143 2.028 . S
O150 C153 1.247 . S
O151 Zn145 2.035 . S
O151 C153 1.258 . S
C152 O146 1.247 . S
C152 O147 1.258 . S
C153 O150 1.247 . S
C153 O151 1.258 . S
C154 O156 1.247 . S
C154 O158 1.258 . S
C155 O162 1.247 . S
C155 O163 1.258 . S
O156 C154 1.247 . S
O156 Zn157 2.028 . S
Zn157 O156 2.028 . S
Zn157 O161 2.035 . S
Zn157 O163 2.035 . S
Zn157 O164 2.028 . S
O158 C154 1.258 . S
O158 Zn159 2.035 . S
Zn159 O158 2.035 . S
Zn159 O160 2.028 . S
Zn159 O162 2.028 . S
Zn159 O165 2.035 . S
O160 Zn159 2.028 . S
O160 C166 1.247 . S
O161 Zn157 2.035 . S
O161 C166 1.258 . S
O162 C155 1.247 . S
O162 Zn159 2.028 . S
O163 C155 1.258 . S
O163 Zn157 2.035 . S
O164 Zn157 2.028 . S
O164 C167 1.247 . S
O165 Zn159 2.035 . S
O165 C167 1.258 . S
C166 O160 1.247 . S
C166 O161 1.258 . S
C167 O164 1.247 . S
C167 O165 1.258 . S
C168 O170 1.247 . S
C168 O172 1.258 . S
C169 O176 1.247 . S
C169 O177 1.258 . S
O170 C168 1.247 . S
O170 Zn171 2.028 . S
Zn171 O170 2.028 . S
Zn171 O175 2.035 . S
Zn171 O177 2.035 . S
Zn171 O178 2.028 . S
O172 C168 1.258 . S
O172 Zn173 2.035 . S
Zn173 O172 2.035 . S
Zn173 O174 2.028 . S
Zn173 O176 2.028 . S
Zn173 O179 2.035 . S
O174 Zn173 2.028 . S
O174 C180 1.247 . S
O175 Zn171 2.035 . S
O175 C180 1.258 . S
O176 C169 1.247 . S
O176 Zn173 2.028 . S
O177 C169 1.258 . S
O177 Zn171 2.035 . S
O178 Zn171 2.028 . S
O178 C181 1.247 . S
O179 Zn173 2.035 . S
O179 C181 1.258 . S
C180 O174 1.247 . S
C180 O175 1.258 . S
C181 O178 1.247 . S
C181 O179 1.258 . S
C182 O184 1.247 . S
C182 O186 1.258 . S
C183 O190 1.247 . S
C183 O191 1.258 . S
O184 C182 1.247 . S
O184 Zn185 2.028 . S
Zn185 O184 2.028 . S
Zn185 O189 2.035 . S
Zn185 O191 2.035 . S
Zn185 O192 2.028 . S
O186 C182 1.258 . S
O186 Zn187 2.035 . S
Zn187 O186 2.035 . S
Zn187 O188 2.028 . S
Zn187 O190 2.028 . S
Zn187 O193 2.035 . S
O188 Zn187 2.028 . S
O188 C194 1.247 . S
O189 Zn185 2.035 . S
O189 C194 1.258 . S
O190 C183 1.247 . S
O190 Zn187 2.028 . S
O191 C183 1.258 . S
O191 Zn185 2.035 . S
O192 Zn185 2.028 . S
O192 C195 1.247 . S
O193 Zn187 2.035 . S
O193 C195 1.258 . S
C194 O188 1.247 . S
C194 O189 1.258 . S
C195 O192 1.247 . S
C195 O193 1.258 . S
C196 O198 1.247 . S
C196 O200 1.258 . S
C197 O204 1.247 . S
C197 O205 1.258 . S
O198 C196 1.247 . S
O198 Zn199 2.028 . S
Zn199 O198 2.028 . S
Zn199 O203 2.035 . S
Zn199 O205 2.035 . S
Zn199 O206 2.028 . S
O200 C196 1.258 . S
O200 Zn201 2.035 . S
Zn201 O200 2.035 . S
Zn201 O202 2.028 . S
Zn201 O204 2.028 . S
Zn201 O207 2.035 . S
O202 Zn201 2.028 . S
O202 C208 1.247 . S
O203 Zn199 2.035 . S
O203 C208 1.258 . S
O204 C197 1.247 . S
O204 Zn201 2.028 . S
O205 C197 1.258 . S
O205 Zn199 2.035 . S
O206 Zn199 2.028 . S
O206 C209 1.247 . S
O207 Zn201 2.035 . S
O207 C209 1.258 . S
C208 O202 1.247 . S
C208 O203 1.258 . S
C209 O206 1.247 . S
C209 O207 1.258 . S
C210 O212 1.247 . S
C210 O214 1.258 . S
C211 O218 1.247 . S
C211 O219 1.258 . S
O212 C210 1.247 . S
O212 Zn213 2.028 . S
Zn213 O212 2.028 . S
Zn213 O217 2.035 . S
Zn213 O219 2.035 . S
Zn213 O220 2.028 . S
O214 C210 1.258 . S
O214 Zn215 2.035 . S
Zn215 O214 2.035 . S
Zn215 O216 2.028 . S
Zn215 O218 2.028 . S
Zn215 O221 2.035 . S
O216 Zn215 2.028 . S
O216 C222 1.247 . S
O217 Zn213 2.035 . S
O217 C222 1.258 . S
O218 C211 1.247 . S
O218 Zn215 2.028 . S
O219 C211 1.258 . S
O219 Zn213 2.035 . S
O220 Zn213 2.028 . S
O220 C223 1.247 . S
O221 Zn215 2.035 . S
O221 C223 1.258 . S
C222 O216 1.247 . S
C222 O217 1.258 . S
C223 O220 1.247 . S
C223 O221 1.258 . S
H224 C230 0.930 . S
H225 C234 0.930 . S
H226 C239 0.929 . S
H227 C237 0.929 . S
H228 C232 0.929 . S
H229 C238 0.929 . S
C230 H224 0.930 . S
C230 C231 1.367 . S
C230 C238 1.378 . S
C231 C230 1.367 . S
C231 C239 1.433 . S
C232 H228 0.929 . S
C232 C234 1.378 . S
C232 C236 1.350 . S
C233 C236 1.463 . S
C233 C238 1.350 . S
C233 N241 1.427 . S
C234 H225 0.930 . S
C234 C232 1.378 . S
C234 C235 1.367 . S
C235 C234 1.367 . S
C235 C237 1.433 . S
C236 C232 1.350 . S
C236 C233 1.463 . S
C236 N240 1.427 . S
C237 H227 0.929 . S
C237 C235 1.433 . S
C237 N240 1.384 . S
C238 H229 0.929 . S
C238 C230 1.378 . S
C238 C233 1.350 . S
C239 H226 0.929 . S
C239 C231 1.433 . S
C239 N241 1.384 . S
N240 C236 1.427 . S
N240 C237 1.384 . S
N241 C233 1.427 . S
N241 C239 1.384 . S
H242 C248 0.930 . S
H243 C252 0.930 . S
H244 C257 0.929 . S
H245 C255 0.929 . S
H246 C250 0.929 . S
H247 C256 0.929 . S
C248 H242 0.930 . S
C248 C249 1.367 . S
C248 C256 1.378 . S
C249 C248 1.367 . S
C249 C257 1.433 . S
C250 H246 0.929 . S
C250 C252 1.378 . S
C250 C254 1.350 . S
C251 C254 1.463 . S
C251 C256 1.350 . S
C251 N259 1.427 . S
C252 H243 0.930 . S
C252 C250 1.378 . S
C252 C253 1.367 . S
C253 C252 1.367 . S
C253 C255 1.433 . S
C254 C250 1.350 . S
C254 C251 1.463 . S
C254 N258 1.427 . S
C255 H245 0.929 . S
C255 C253 1.433 . S
C255 N258 1.384 . S
C256 H247 0.929 . S
C256 C248 1.378 . S
C256 C251 1.350 . S
C257 H244 0.929 . S
C257 C249 1.433 . S
C257 N259 1.384 . S
N258 C254 1.427 . S
N258 C255 1.384 . S
N259 C251 1.427 . S
N259 C257 1.384 . S
H260 C266 0.930 . S
H261 C270 0.930 . S
H262 C275 0.929 . S
H263 C273 0.929 . S
H264 C268 0.929 . S
H265 C274 0.929 . S
C266 H260 0.930 . S
C266 C267 1.367 . S
C266 C274 1.378 . S
C267 C266 1.367 . S
C267 C275 1.433 . S
C268 H264 0.929 . S
C268 C270 1.378 . S
C268 C272 1.350 . S
C269 C272 1.463 . S
C269 C274 1.350 . S
C269 N277 1.427 . S
C270 H261 0.930 . S
C270 C268 1.378 . S
C270 C271 1.367 . S
C271 C270 1.367 . S
C271 C273 1.433 . S
C272 C268 1.350 . S
C272 C269 1.463 . S
C272 N276 1.427 . S
C273 H263 0.929 . S
C273 C271 1.433 . S
C273 N276 1.384 . S
C274 H265 0.929 . S
C274 C266 1.378 . S
C274 C269 1.350 . S
C275 H262 0.929 . S
C275 C267 1.433 . S
C275 N277 1.384 . S
N276 C272 1.427 . S
N276 C273 1.384 . S
N277 C269 1.427 . S
N277 C275 1.384 . S
H278 C284 0.930 . S
H279 C288 0.930 . S
H280 C293 0.929 . S
H281 C291 0.929 . S
H282 C286 0.929 . S
H283 C292 0.929 . S
C284 H278 0.930 . S
C284 C285 1.367 . S
C284 C292 1.378 . S
C285 C284 1.367 . S
C285 C293 1.433 . S
C286 H282 0.929 . S
C286 C288 1.378 . S
C286 C290 1.350 . S
C287 C290 1.463 . S
C287 C292 1.350 . S
C287 N295 1.427 . S
C288 H279 0.930 . S
C288 C286 1.378 . S
C288 C289 1.367 . S
C289 C288 1.367 . S
C289 C291 1.433 . S
C290 C286 1.350 . S
C290 C287 1.463 . S
C290 N294 1.427 . S
C291 H281 0.929 . S
C291 C289 1.433 . S
C291 N294 1.384 . S
C292 H283 0.929 . S
C292 C284 1.378 . S
C292 C287 1.350 . S
C293 H280 0.929 . S
C293 C285 1.433 . S
C293 N295 1.384 . S
N294 C290 1.427 . S
N294 C291 1.384 . S
N295 C287 1.427 . S
N295 C293 1.384 . S
H296 C302 0.930 . S
H297 C306 0.930 . S
H298 C311 0.929 1_565 S
H299 C309 0.929 . S
H300 C304 0.929 . S
H301 C310 0.929 . S
C302 H296 0.930 . S
C302 C303 1.367 . S
C302 C310 1.378 . S
C303 C302 1.367 . S
C303 C311 1.433 1_554 S
C304 H300 0.929 . S
C304 C306 1.378 . S
C304 C308 1.350 . S
C305 C308 1.463 . S
C305 C310 1.350 1_556 S
C305 N313 1.427 . S
C306 H297 0.930 . S
C306 C304 1.378 . S
C306 C307 1.367 . S
C307 C306 1.367 . S
C307 C309 1.433 . S
C308 C304 1.350 . S
C308 C305 1.463 . S
C308 N312 1.427 . S
C309 H299 0.929 . S
C309 C307 1.433 . S
C309 N312 1.384 . S
C310 H301 0.929 . S
C310 C302 1.378 . S
C310 C305 1.350 1_554 S
C311 H298 0.929 1_545 S
C311 C303 1.433 1_556 S
C311 N313 1.384 . S
N312 C308 1.427 . S
N312 C309 1.384 . S
N313 C305 1.427 . S
N313 C311 1.384 . S
H314 C320 0.930 . S
H315 C324 0.930 . S
H316 C329 0.929 . S
H317 C327 0.929 1_655 S
H318 C322 0.929 . S
H319 C328 0.929 . S
C320 H314 0.930 . S
C320 C321 1.367 . S
C320 C328 1.378 . S
C321 C320 1.367 . S
C321 C329 1.433 . S
C322 H318 0.929 . S
C322 C324 1.378 . S
C322 C326 1.350 1_556 S
C323 C326 1.463 . S
C323 C328 1.350 . S
C323 N331 1.427 . S
C324 H315 0.930 . S
C324 C322 1.378 . S
C324 C325 1.367 . S
C325 C324 1.367 . S
C325 C327 1.433 . S
C326 C322 1.350 1_554 S
C326 C323 1.463 . S
C326 N330 1.433 . S
C327 H317 0.929 1_455 S
C327 C325 1.433 . S
C327 N330 1.357 1_556 S
C328 H319 0.929 . S
C328 C320 1.378 . S
C328 C323 1.350 . S
C329 H316 0.929 . S
C329 C321 1.433 . S
C329 N331 1.384 . S
N330 C326 1.433 . S
N330 C327 1.357 1_554 S
N331 C323 1.427 . S
N331 C329 1.384 . S
H332 C338 0.930 . S
H333 C342 0.930 1_545 S
H334 C347 0.929 . S
H335 C345 0.929 . S
H336 C340 0.929 . S
H337 C346 0.929 1_554 S
C338 H332 0.930 . S
C338 C339 1.367 . S
C338 C346 1.378 . S
C339 C338 1.367 . S
C339 C347 1.433 . S
C340 H336 0.929 . S
C340 C342 1.378 . S
C340 C344 1.350 . S
C341 C344 1.463 . S
C341 C346 1.350 . S
C341 N349 1.427 . S
C342 H333 0.930 1_565 S
C342 C340 1.378 . S
C342 C343 1.367 1_556 S
C343 C342 1.367 1_554 S
C343 C345 1.433 . S
C344 C340 1.350 . S
C344 C341 1.463 . S
C344 N348 1.427 1_556 S
C345 H335 0.929 . S
C345 C343 1.433 . S
C345 N348 1.384 . S
C346 H337 0.929 1_556 S
C346 C338 1.378 . S
C346 C341 1.350 . S
C347 H334 0.929 . S
C347 C339 1.433 . S
C347 N349 1.384 . S
N348 C344 1.427 1_554 S
N348 C345 1.384 . S
N349 C341 1.427 . S
N349 C347 1.384 . S
H350 C356 0.930 . S
H351 C360 0.930 . S
H352 C365 0.929 . S
H353 C363 0.926 1_454 S
H354 C358 0.929 . S
H355 C364 0.929 . S
C356 H350 0.930 . S
C356 C357 1.367 . S
C356 C364 1.378 . S
C357 C356 1.367 . S
C357 C365 1.433 . S
C358 H354 0.929 . S
C358 C360 1.378 . S
C358 C362 1.350 1_556 S
C359 C362 1.463 . S
C359 C364 1.350 . S
C359 N367 1.427 . S
C360 H351 0.930 . S
C360 C358 1.378 . S
C360 C361 1.367 . S
C361 C360 1.367 . S
C361 C363 1.440 . S
C362 C358 1.350 1_554 S
C362 C359 1.463 . S
C362 N366 1.427 . S
C363 H353 0.926 1_656 S
C363 C361 1.440 . S
C363 N366 1.379 1_556 S
C364 H355 0.929 . S
C364 C356 1.378 . S
C364 C359 1.350 . S
C365 H352 0.929 . S
C365 C357 1.433 . S
C365 N367 1.384 . S
N366 C362 1.427 . S
N366 C363 1.379 1_554 S
N367 C359 1.427 . S
N367 C365 1.384 . S
H368 C374 0.930 . S
H369 C378 0.930 . S
H370 C383 0.929 . S
H371 C381 0.940 . S
H372 C376 0.929 . S
H373 C382 0.929 . S
C374 H368 0.930 . S
C374 C375 1.367 . S
C374 C382 1.378 . S
C375 C374 1.367 . S
C375 C383 1.433 . S
C376 H372 0.929 . S
C376 C378 1.378 . S
C376 C380 1.350 . S
C377 C380 1.463 . S
C377 C382 1.350 . S
C377 N385 1.427 . S
C378 H369 0.930 . S
C378 C376 1.378 . S
C378 C379 1.367 . S
C379 C378 1.367 . S
C379 C381 1.433 . S
C380 C376 1.350 . S
C380 C377 1.463 . S
C380 N384 1.427 . S
C381 H371 0.940 . S
C381 C379 1.433 . S
C381 N384 1.384 . S
C382 H373 0.929 . S
C382 C374 1.378 . S
C382 C377 1.350 . S
C383 H370 0.929 . S
C383 C375 1.433 . S
C383 N385 1.384 . S
N384 C380 1.427 . S
N384 C381 1.384 . S
N385 C377 1.427 . S
N385 C383 1.384 . S
H386 C392 0.930 . S
H387 C396 0.930 . S
H388 C401 0.929 1_455 S
H389 C399 0.929 . S
H390 C394 0.929 . S
H391 C400 0.929 . S
C392 H386 0.930 . S
C392 C393 1.367 . S
C392 C400 1.378 . S
C393 C392 1.367 . S
C393 C401 1.433 . S
C394 H390 0.929 . S
C394 C396 1.378 . S
C394 C398 1.350 . S
C395 C398 1.463 . S
C395 C400 1.350 . S
C395 N403 1.427 . S
C396 H387 0.930 . S
C396 C394 1.378 . S
C396 C397 1.367 . S
C397 C396 1.367 . S
C397 C399 1.433 . S
C398 C394 1.350 . S
C398 C395 1.463 . S
C398 N402 1.427 . S
C399 H389 0.929 . S
C399 C397 1.433 . S
C399 N402 1.384 . S
C400 H391 0.929 . S
C400 C392 1.378 . S
C400 C395 1.350 . S
C401 H388 0.929 1_655 S
C401 C393 1.433 . S
C401 N403 1.384 . S
N402 C398 1.427 . S
N402 C399 1.384 . S
N403 C395 1.427 . S
N403 C401 1.384 . S
H404 C410 0.930 . S
H405 C414 0.930 . S
H406 C419 0.929 1_565 S
H407 C417 0.929 . S
H408 C412 0.929 . S
H409 C418 0.929 . S
C410 H404 0.930 . S
C410 C411 1.367 . S
C410 C418 1.378 . S
C411 C410 1.367 . S
C411 C419 1.433 . S
C412 H408 0.929 . S
C412 C414 1.378 . S
C412 C416 1.350 . S
C413 C416 1.463 . S
C413 C418 1.350 . S
C413 N421 1.427 . S
C414 H405 0.930 . S
C414 C412 1.378 . S
C414 C415 1.367 . S
C415 C414 1.367 . S
C415 C417 1.433 . S
C416 C412 1.350 . S
C416 C413 1.463 . S
C416 N420 1.427 . S
C417 H407 0.929 . S
C417 C415 1.433 . S
C417 N420 1.384 . S
C418 H409 0.929 . S
C418 C410 1.378 . S
C418 C413 1.350 . S
C419 H406 0.929 1_545 S
C419 C411 1.433 . S
C419 N421 1.384 . S
N420 C416 1.427 . S
N420 C417 1.384 . S
N421 C413 1.427 . S
N421 C419 1.384 . S
H422 C428 0.930 . S
H423 C432 0.930 . S
H424 C437 0.929 . S
H425 C435 0.929 . S
H426 C430 0.929 . S
H427 C436 0.929 . S
C428 H422 0.930 . S
C428 C429 1.367 . S
C428 C436 1.378 . S
C429 C428 1.367 . S
C429 C437 1.433 . S
C430 H426 0.929 . S
C430 C432 1.378 . S
C430 C434 1.350 . S
C431 C434 1.463 . S
C431 C436 1.350 . S
C431 N439 1.427 . S
C432 H423 0.930 . S
C432 C430 1.378 . S
C432 C433 1.367 . S
C433 C432 1.367 . S
C433 C435 1.433 . S
C434 C430 1.350 . S
C434 C431 1.463 . S
C434 N438 1.427 . S
C435 H425 0.929 . S
C435 C433 1.433 . S
C435 N438 1.384 . S
C436 H427 0.929 . S
C436 C428 1.378 . S
C436 C431 1.350 . S
C437 H424 0.929 . S
C437 C429 1.433 . S
C437 N439 1.384 . S
N438 C434 1.427 . S
N438 C435 1.384 . S
N439 C431 1.427 . S
N439 C437 1.384 . S
H440 C446 0.930 . S
H441 C450 0.930 . S
H442 C455 0.929 . S
H443 C453 0.929 . S
H444 C448 0.929 . S
H445 C454 0.929 . S
C446 H440 0.930 . S
C446 C447 1.367 . S
C446 C454 1.378 . S
C447 C446 1.367 . S
C447 C455 1.433 . S
C448 H444 0.929 . S
C448 C450 1.378 . S
C448 C452 1.350 . S
C449 C452 1.463 . S
C449 C454 1.350 . S
C449 N457 1.427 . S
C450 H441 0.930 . S
C450 C448 1.378 . S
C450 C451 1.367 . S
C451 C450 1.367 . S
C451 C453 1.433 . S
C452 C448 1.350 . S
C452 C449 1.463 . S
C452 N456 1.427 . S
C453 H443 0.929 . S
C453 C451 1.433 . S
C453 N456 1.384 . S
C454 H445 0.929 . S
C454 C446 1.378 . S
C454 C449 1.350 . S
C455 H442 0.929 . S
C455 C447 1.433 . S
C455 N457 1.384 . S
N456 C452 1.427 . S
N456 C453 1.384 . S
N457 C449 1.427 . S
N457 C455 1.384 . S
H458 C464 0.930 . S
H459 C468 0.930 . S
H460 C473 0.929 . S
H461 C471 0.929 . S
H462 C466 0.929 . S
H463 C472 0.929 . S
C464 H458 0.930 . S
C464 C465 1.367 . S
C464 C472 1.378 . S
C465 C464 1.367 . S
C465 C473 1.433 . S
C466 H462 0.929 . S
C466 C468 1.378 . S
C466 C470 1.350 . S
C467 C470 1.463 . S
C467 C472 1.350 . S
C467 N475 1.427 . S
C468 H459 0.930 . S
C468 C466 1.378 . S
C468 C469 1.367 . S
C469 C468 1.367 . S
C469 C471 1.433 . S
C470 C466 1.350 . S
C470 C467 1.463 . S
C470 N474 1.427 . S
C471 H461 0.929 . S
C471 C469 1.433 . S
C471 N474 1.384 . S
C472 H463 0.929 . S
C472 C464 1.378 . S
C472 C467 1.350 . S
C473 H460 0.929 . S
C473 C465 1.433 . S
C473 N475 1.384 . S
N474 C470 1.427 . S
N474 C471 1.384 . S
N475 C467 1.427 . S
N475 C473 1.384 . S
H476 C482 0.930 . S
H477 C486 0.930 . S
H478 C491 0.929 . S
H479 C489 0.929 . S
H480 C484 0.929 . S
H481 C490 0.929 . S
C482 H476 0.930 . S
C482 C483 1.367 . S
C482 C490 1.378 . S
C483 C482 1.367 . S
C483 C491 1.433 . S
C484 H480 0.929 . S
C484 C486 1.378 . S
C484 C488 1.350 . S
C485 C488 1.463 . S
C485 C490 1.350 . S
C485 N493 1.427 . S
C486 H477 0.930 . S
C486 C484 1.378 . S
C486 C487 1.367 . S
C487 C486 1.367 . S
C487 C489 1.433 . S
C488 C484 1.350 . S
C488 C485 1.463 . S
C488 N492 1.427 . S
C489 H479 0.929 . S
C489 C487 1.433 . S
C489 N492 1.384 . S
C490 H481 0.929 . S
C490 C482 1.378 . S
C490 C485 1.350 . S
C491 H478 0.929 . S
C491 C483 1.433 . S
C491 N493 1.384 . S
N492 C488 1.427 . S
N492 C489 1.384 . S
N493 C485 1.427 . S
N493 C491 1.384 . S
H494 C500 0.930 . S
H495 C504 0.930 . S
H496 C509 0.929 . S
H497 C507 0.929 . S
H498 C502 0.929 . S
H499 C508 0.929 . S
C500 H494 0.930 . S
C500 C501 1.367 . S
C500 C508 1.378 . S
C501 C500 1.367 . S
C501 C509 1.433 . S
C502 H498 0.929 . S
C502 C504 1.378 . S
C502 C506 1.350 . S
C503 C506 1.463 . S
C503 C508 1.350 . S
C503 N511 1.427 . S
C504 H495 0.930 . S
C504 C502 1.378 . S
C504 C505 1.367 . S
C505 C504 1.367 . S
C505 C507 1.433 . S
C506 C502 1.350 . S
C506 C503 1.463 . S
C506 N510 1.427 . S
C507 H497 0.929 . S
C507 C505 1.433 . S
C507 N510 1.384 . S
C508 H499 0.929 . S
C508 C500 1.378 . S
C508 C503 1.350 . S
C509 H496 0.929 . S
C509 C501 1.433 . S
C509 N511 1.384 . S
N510 C506 1.427 . S
N510 C507 1.384 . S
N511 C503 1.427 . S
N511 C509 1.384 . S
H512 C518 0.930 . S
H513 C522 0.930 . S
H514 C527 0.929 . S
H515 C525 0.929 . S
H516 C520 0.929 . S
H517 C526 0.929 . S
C518 H512 0.930 . S
C518 C519 1.367 . S
C518 C526 1.378 . S
C519 C518 1.367 . S
C519 C527 1.433 . S
C520 H516 0.929 . S
C520 C522 1.378 . S
C520 C524 1.350 . S
C521 C524 1.463 . S
C521 C526 1.350 . S
C521 N529 1.427 . S
C522 H513 0.930 . S
C522 C520 1.378 . S
C522 C523 1.367 . S
C523 C522 1.367 . S
C523 C525 1.433 . S
C524 C520 1.350 . S
C524 C521 1.463 . S
C524 N528 1.427 . S
C525 H515 0.929 . S
C525 C523 1.433 . S
C525 N528 1.384 . S
C526 H517 0.929 . S
C526 C518 1.378 . S
C526 C521 1.350 . S
C527 H514 0.929 . S
C527 C519 1.433 . S
C527 N529 1.384 . S
N528 C524 1.427 . S
N528 C525 1.384 . S
N529 C521 1.427 . S
N529 C527 1.384 . S
H530 C536 0.930 . S
H531 C540 0.930 . S
H532 C545 0.929 . S
H533 C543 0.929 . S
H534 C538 0.929 . S
H535 C544 0.929 . S
C536 H530 0.930 . S
C536 C537 1.367 . S
C536 C544 1.378 . S
C537 C536 1.367 . S
C537 C545 1.433 . S
C538 H534 0.929 . S
C538 C540 1.378 . S
C538 C542 1.350 . S
C539 C542 1.463 . S
C539 C544 1.350 . S
C539 N547 1.427 . S
C540 H531 0.930 . S
C540 C538 1.378 . S
C540 C541 1.367 . S
C541 C540 1.367 . S
C541 C543 1.433 . S
C542 C538 1.350 . S
C542 C539 1.463 . S
C542 N546 1.427 . S
C543 H533 0.929 . S
C543 C541 1.433 . S
C543 N546 1.384 . S
C544 H535 0.929 . S
C544 C536 1.378 . S
C544 C539 1.350 . S
C545 H532 0.929 . S
C545 C537 1.433 . S
C545 N547 1.384 . S
N546 C542 1.427 . S
N546 C543 1.384 . S
N547 C539 1.427 . S
N547 C545 1.384 . S
H548 C554 0.930 . S
H549 C558 0.930 . S
H550 C563 0.929 . S
H551 C561 0.929 . S
H552 C556 0.929 . S
H553 C562 0.929 . S
C554 H548 0.930 . S
C554 C555 1.367 . S
C554 C562 1.378 . S
C555 C554 1.367 . S
C555 C563 1.433 . S
C556 H552 0.929 . S
C556 C558 1.378 . S
C556 C560 1.350 . S
C557 C560 1.463 . S
C557 C562 1.350 . S
C557 N565 1.427 . S
C558 H549 0.930 . S
C558 C556 1.378 . S
C558 C559 1.367 . S
C559 C558 1.367 . S
C559 C561 1.433 . S
C560 C556 1.350 . S
C560 C557 1.463 . S
C560 N564 1.427 . S
C561 H551 0.929 . S
C561 C559 1.433 . S
C561 N564 1.384 . S
C562 H553 0.929 . S
C562 C554 1.378 . S
C562 C557 1.350 . S
C563 H550 0.929 . S
C563 C555 1.433 . S
C563 N565 1.384 . S
N564 C560 1.427 . S
N564 C561 1.384 . S
N565 C557 1.427 . S
N565 C563 1.384 . S
H566 C572 0.930 . S
H567 C576 0.930 . S
H568 C581 0.929 . S
H569 C579 0.929 . S
H570 C574 0.929 . S
H571 C580 0.929 . S
C572 H566 0.930 . S
C572 C573 1.367 . S
C572 C580 1.378 . S
C573 C572 1.367 . S
C573 C581 1.433 . S
C574 H570 0.929 . S
C574 C576 1.378 . S
C574 C578 1.350 . S
C575 C578 1.463 . S
C575 C580 1.350 . S
C575 N583 1.427 . S
C576 H567 0.930 . S
C576 C574 1.378 . S
C576 C577 1.367 . S
C577 C576 1.367 . S
C577 C579 1.433 . S
C578 C574 1.350 . S
C578 C575 1.463 . S
C578 N582 1.427 . S
C579 H569 0.929 . S
C579 C577 1.433 . S
C579 N582 1.384 . S
C580 H571 0.929 . S
C580 C572 1.378 . S
C580 C575 1.350 . S
C581 H568 0.929 . S
C581 C573 1.433 . S
C581 N583 1.384 . S
N582 C578 1.427 . S
N582 C579 1.384 . S
N583 C575 1.427 . S
N583 C581 1.384 . S
H584 C590 0.930 . S
H585 C594 0.930 . S
H586 C599 0.929 . S
H587 C597 0.929 . S
H588 C592 0.929 . S
H589 C598 0.929 . S
C590 H584 0.930 . S
C590 C591 1.367 . S
C590 C598 1.378 . S
C591 C590 1.367 . S
C591 C599 1.433 . S
C592 H588 0.929 . S
C592 C594 1.378 . S
C592 C596 1.350 . S
C593 C596 1.463 . S
C593 C598 1.350 . S
C593 N601 1.427 . S
C594 H585 0.930 . S
C594 C592 1.378 . S
C594 C595 1.367 . S
C595 C594 1.367 . S
C595 C597 1.433 . S
C596 C592 1.350 . S
C596 C593 1.463 . S
C596 N600 1.427 . S
C597 H587 0.929 . S
C597 C595 1.433 . S
C597 N600 1.384 . S
C598 H589 0.929 . S
C598 C590 1.378 . S
C598 C593 1.350 . S
C599 H586 0.929 . S
C599 C591 1.433 . S
C599 N601 1.384 . S
N600 C596 1.427 . S
N600 C597 1.384 . S
N601 C593 1.427 . S
N601 C599 1.384 . S
H602 C608 0.930 . S
H603 C612 0.930 . S
H604 C617 0.929 . S
H605 C615 0.929 . S
H606 C610 0.929 . S
H607 C616 0.929 . S
C608 H602 0.930 . S
C608 C609 1.367 . S
C608 C616 1.378 . S
C609 C608 1.367 . S
C609 C617 1.433 . S
C610 H606 0.929 . S
C610 C612 1.378 . S
C610 C614 1.350 . S
C611 C614 1.463 . S
C611 C616 1.350 . S
C611 N619 1.427 . S
C612 H603 0.930 . S
C612 C610 1.378 . S
C612 C613 1.367 . S
C613 C612 1.367 . S
C613 C615 1.433 . S
C614 C610 1.350 . S
C614 C611 1.463 . S
C614 N618 1.427 . S
C615 H605 0.929 . S
C615 C613 1.433 . S
C615 N618 1.384 . S
C616 H607 0.929 . S
C616 C608 1.378 . S
C616 C611 1.350 . S
C617 H604 0.929 . S
C617 C609 1.433 . S
C617 N619 1.384 . S
N618 C614 1.427 . S
N618 C615 1.384 . S
N619 C611 1.427 . S
N619 C617 1.384 . S
H620 C626 0.930 . S
H621 C630 0.930 . S
H622 C635 0.929 . S
H623 C633 0.929 . S
H624 C628 0.929 . S
H625 C634 0.929 . S
C626 H620 0.930 . S
C626 C627 1.367 . S
C626 C634 1.378 . S
C627 C626 1.367 . S
C627 C635 1.433 . S
C628 H624 0.929 . S
C628 C630 1.378 . S
C628 C632 1.350 . S
C629 C632 1.463 . S
C629 C634 1.350 . S
C629 N637 1.427 . S
C630 H621 0.930 . S
C630 C628 1.378 . S
C630 C631 1.367 . S
C631 C630 1.367 . S
C631 C633 1.433 . S
C632 C628 1.350 . S
C632 C629 1.463 . S
C632 N636 1.427 . S
C633 H623 0.929 . S
C633 C631 1.433 . S
C633 N636 1.384 . S
C634 H625 0.929 . S
C634 C626 1.378 . S
C634 C629 1.350 . S
C635 H622 0.929 . S
C635 C627 1.433 . S
C635 N637 1.384 . S
N636 C632 1.427 . S
N636 C633 1.384 . S
N637 C629 1.427 . S
N637 C635 1.384 . S
H638 C644 0.930 . S
H639 C648 0.930 . S
H640 C653 0.929 . S
H641 C651 0.929 . S
H642 C646 0.929 . S
H643 C652 0.929 . S
C644 H638 0.930 . S
C644 C645 1.367 . S
C644 C652 1.378 . S
C645 C644 1.367 . S
C645 C653 1.433 . S
C646 H642 0.929 . S
C646 C648 1.378 . S
C646 C650 1.350 . S
C647 C650 1.463 . S
C647 C652 1.350 . S
C647 N655 1.427 . S
C648 H639 0.930 . S
C648 C646 1.378 . S
C648 C649 1.367 . S
C649 C648 1.367 . S
C649 C651 1.433 . S
C650 C646 1.350 . S
C650 C647 1.463 . S
C650 N654 1.427 . S
C651 H641 0.929 . S
C651 C649 1.433 . S
C651 N654 1.384 . S
C652 H643 0.929 . S
C652 C644 1.378 . S
C652 C647 1.350 . S
C653 H640 0.929 . S
C653 C645 1.433 . S
C653 N655 1.384 . S
N654 C650 1.427 . S
N654 C651 1.384 . S
N655 C647 1.427 . S
N655 C653 1.384 . S
H656 C662 0.930 . S
H657 C666 0.930 . S
H658 C671 0.929 . S
H659 C669 0.929 . S
H660 C664 0.929 . S
H661 C670 0.929 . S
C662 H656 0.930 . S
C662 C663 1.367 1_455 S
C662 C670 1.378 . S
C663 C662 1.367 1_655 S
C663 C671 1.433 . S
C664 H660 0.929 . S
C664 C666 1.378 . S
C664 C668 1.350 1_655 S
C665 C668 1.463 1_665 S
C665 C670 1.350 1_655 S
C665 N673 1.427 . S
C666 H657 0.930 . S
C666 C664 1.378 . S
C666 C667 1.367 1_655 S
C667 C666 1.367 1_455 S
C667 C669 1.433 . S
C668 C664 1.350 1_455 S
C668 C665 1.463 1_445 S
C668 N672 1.427 . S
C669 H659 0.929 . S
C669 C667 1.433 . S
C669 N672 1.384 . S
C670 H661 0.929 . S
C670 C662 1.378 . S
C670 C665 1.350 1_455 S
C671 H658 0.929 . S
C671 C663 1.433 . S
C671 N673 1.384 . S
N672 C668 1.427 . S
N672 C669 1.384 . S
N673 C665 1.427 . S
N673 C671 1.384 . S
H674 C680 0.930 . S
H675 C684 0.930 . S
H676 C689 0.929 . S
H677 C687 0.929 . S
H678 C682 0.929 . S
H679 C688 0.929 . S
C680 H674 0.930 . S
C680 C681 1.367 . S
C680 C688 1.378 . S
C681 C680 1.367 . S
C681 C689 1.433 . S
C682 H678 0.929 . S
C682 C684 1.378 . S
C682 C686 1.350 . S
C683 C686 1.463 1_645 S
C683 C688 1.350 . S
C683 N691 1.427 1_545 S
C684 H675 0.930 . S
C684 C682 1.378 . S
C684 C685 1.367 . S
C685 C684 1.367 . S
C685 C687 1.433 . S
C686 C682 1.350 . S
C686 C683 1.463 1_465 S
C686 N690 1.427 1_565 S
C687 H677 0.929 . S
C687 C685 1.433 . S
C687 N690 1.384 1_565 S
C688 H679 0.929 . S
C688 C680 1.378 . S
C688 C683 1.350 . S
C689 H676 0.929 . S
C689 C681 1.433 . S
C689 N691 1.384 1_545 S
N690 C686 1.427 1_545 S
N690 C687 1.384 1_545 S
N691 C683 1.427 1_565 S
N691 C689 1.384 1_565 S
H692 C698 0.930 . S
H693 C702 0.930 . S
H694 C707 0.929 . S
H695 C705 0.929 . S
H696 C700 0.929 . S
H697 C706 0.929 . S
C698 H692 0.930 . S
C698 C699 1.367 1_655 S
C698 C706 1.378 . S
C699 C698 1.367 1_455 S
C699 C707 1.433 . S
C700 H696 0.929 . S
C700 C702 1.378 . S
C700 C704 1.350 1_455 S
C701 C704 1.463 1_455 S
C701 C706 1.350 1_455 S
C701 N709 1.427 . S
C702 H693 0.930 . S
C702 C700 1.378 . S
C702 C703 1.367 1_455 S
C703 C702 1.367 1_655 S
C703 C705 1.433 . S
C704 C700 1.350 1_655 S
C704 C701 1.463 1_655 S
C704 N708 1.427 . S
C705 H695 0.929 . S
C705 C703 1.433 . S
C705 N708 1.384 . S
C706 H697 0.929 . S
C706 C698 1.378 . S
C706 C701 1.350 1_655 S
C707 H694 0.929 . S
C707 C699 1.433 . S
C707 N709 1.384 . S
N708 C704 1.427 . S
N708 C705 1.384 . S
N709 C701 1.427 . S
N709 C707 1.384 . S
H710 C716 0.930 . S
H711 C720 0.930 . S
H712 C725 0.938 . S
H713 C723 0.938 . S
H714 C718 0.929 . S
H715 C724 0.929 . S
C716 H710 0.930 . S
C716 C717 1.367 . S
C716 C724 1.378 . S
C717 C716 1.367 . S
C717 C725 1.418 1_565 S
C718 H714 0.929 . S
C718 C720 1.378 . S
C718 C722 1.350 . S
C719 C722 1.463 1_565 S
C719 C724 1.350 . S
C719 N727 1.427 1_565 S
C720 H711 0.930 . S
C720 C718 1.378 . S
C720 C721 1.367 . S
C721 C720 1.367 . S
C721 C723 1.418 1_545 S
C722 C718 1.350 . S
C722 C719 1.463 1_545 S
C722 N726 1.427 1_545 S
C723 H713 0.938 . S
C723 C721 1.418 1_565 S
C723 N726 1.390 . S
C724 H715 0.929 . S
C724 C716 1.378 . S
C724 C719 1.350 . S
C725 H712 0.938 . S
C725 C717 1.418 1_545 S
C725 N727 1.390 . S
N726 C722 1.427 1_565 S
N726 C723 1.390 . S
N727 C719 1.427 1_545 S
N727 C725 1.390 . S
H728 C734 0.930 . S
H729 C738 0.930 . S
H730 C743 0.929 . S
H731 C741 0.929 . S
H732 C736 0.929 . S
H733 C742 0.929 . S
C734 H728 0.930 . S
C734 C735 1.367 . S
C734 C742 1.378 . S
C735 C734 1.367 . S
C735 C743 1.433 . S
C736 H732 0.929 . S
C736 C738 1.378 . S
C736 C740 1.350 . S
C737 C740 1.463 . S
C737 C742 1.350 . S
C737 N745 1.427 . S
C738 H729 0.930 . S
C738 C736 1.378 . S
C738 C739 1.367 . S
C739 C738 1.367 . S
C739 C741 1.433 . S
C740 C736 1.350 . S
C740 C737 1.463 . S
C740 N744 1.427 . S
C741 H731 0.929 . S
C741 C739 1.433 . S
C741 N744 1.384 . S
C742 H733 0.929 . S
C742 C734 1.378 . S
C742 C737 1.350 . S
C743 H730 0.929 . S
C743 C735 1.433 . S
C743 N745 1.384 . S
N744 C740 1.427 . S
N744 C741 1.384 . S
N745 C737 1.427 . S
N745 C743 1.384 . S
H746 C752 0.930 . S
H747 C756 0.930 . S
H748 C761 0.929 . S
H749 C759 0.929 . S
H750 C754 0.929 . S
H751 C760 0.929 . S
C752 H746 0.930 . S
C752 C753 1.367 . S
C752 C760 1.378 . S
C753 C752 1.367 . S
C753 C761 1.433 . S
C754 H750 0.929 . S
C754 C756 1.378 . S
C754 C758 1.350 . S
C755 C758 1.463 . S
C755 C760 1.350 . S
C755 N763 1.427 . S
C756 H747 0.930 . S
C756 C754 1.378 . S
C756 C757 1.367 . S
C757 C756 1.367 . S
C757 C759 1.433 . S
C758 C754 1.350 . S
C758 C755 1.463 . S
C758 N762 1.427 . S
C759 H749 0.929 . S
C759 C757 1.433 . S
C759 N762 1.384 . S
C760 H751 0.929 . S
C760 C752 1.378 . S
C760 C755 1.350 . S
C761 H748 0.929 . S
C761 C753 1.433 . S
C761 N763 1.384 . S
N762 C758 1.427 . S
N762 C759 1.384 . S
N763 C755 1.427 . S
N763 C761 1.384 . S
H764 C770 0.930 . S
H765 C774 0.930 . S
H766 C779 0.929 . S
H767 C777 0.929 . S
H768 C772 0.929 . S
H769 C778 0.929 . S
C770 H764 0.930 . S
C770 C771 1.367 . S
C770 C778 1.378 . S
C771 C770 1.367 . S
C771 C779 1.433 . S
C772 H768 0.929 . S
C772 C774 1.378 . S
C772 C776 1.350 . S
C773 C776 1.463 1_545 S
C773 C778 1.350 . S
C773 N781 1.427 . S
C774 H765 0.930 . S
C774 C772 1.378 . S
C774 C775 1.367 . S
C775 C774 1.367 . S
C775 C777 1.433 . S
C776 C772 1.350 . S
C776 C773 1.463 1_565 S
C776 N780 1.427 . S
C777 H767 0.929 . S
C777 C775 1.433 . S
C777 N780 1.384 . S
C778 H769 0.929 . S
C778 C770 1.378 . S
C778 C773 1.350 . S
C779 H766 0.929 . S
C779 C771 1.433 . S
C779 N781 1.384 . S
N780 C776 1.427 . S
N780 C777 1.384 . S
N781 C773 1.427 . S
N781 C779 1.384 . S
H782 C788 0.930 . S
H783 C792 0.930 . S
H784 C797 0.929 . S
H785 C795 0.929 . S
H786 C790 0.929 . S
H787 C796 0.929 . S
C788 H782 0.930 . S
C788 C789 1.367 . S
C788 C796 1.378 . S
C789 C788 1.367 . S
C789 C797 1.433 . S
C790 H786 0.929 . S
C790 C792 1.378 . S
C790 C794 1.350 . S
C791 C794 1.463 1_655 S
C791 C796 1.350 . S
C791 N799 1.427 . S
C792 H783 0.930 . S
C792 C790 1.378 . S
C792 C793 1.367 . S
C793 C792 1.367 . S
C793 C795 1.433 . S
C794 C790 1.350 . S
C794 C791 1.463 1_455 S
C794 N798 1.427 . S
C795 H785 0.929 . S
C795 C793 1.433 . S
C795 N798 1.384 . S
C796 H787 0.929 . S
C796 C788 1.378 . S
C796 C791 1.350 . S
C797 H784 0.929 . S
C797 C789 1.433 . S
C797 N799 1.384 . S
N798 C794 1.427 . S
N798 C795 1.384 . S
N799 C791 1.427 . S
N799 C797 1.384 . S
C231 C12 1.601 . S
C235 C155 1.613 . S
C249 C112 1.613 . S
C253 C14 1.605 . S
C267 C127 1.610 . S
C271 C28 1.597 . S
C285 C141 1.610 . S
C289 C54 1.600 . S
C303 C71 1.609 1_545 S
C307 C69 1.606 . S
C321 C82 1.606 . S
C325 C85 1.613 1_455 S
C339 C96 1.599 . S
C343 C99 1.613 1_565 S
C357 C110 1.606 . S
C361 C56 1.610 1_655 S
C375 C125 1.604 . S
C379 C43 1.613 1_565 S
C393 C1 1.613 1_655 S
C397 C138 1.605 . S
C411 C27 1.611 1_545 S
C415 C152 1.605 . S
C429 C41 1.609 1_455 S
C433 C166 1.601 . S
C447 C183 1.613 . S
C451 C181 1.602 . S
C465 C194 1.606 . S
C469 C208 1.609 . S
C483 C223 1.608 . S
C487 C197 1.604 . S
C501 C168 1.613 . S
C505 C210 1.603 . S
C519 C209 1.799 . S
C523 C0 1.799 . S
C537 C222 1.801 . S
C541 C26 1.804 . S
C555 C169 1.797 . S
C559 C40 1.803 . S
C573 C42 1.798 . S
C577 C182 1.802 . S
C591 C57 1.798 . S
C595 C140 1.800 . S
C609 C154 1.805 . S
C613 C70 1.799 . S
C627 C84 1.797 . S
C631 C113 1.805 . S
C645 C98 1.805 . S
C649 C126 1.800 . S
C663 C29 1.667 . S
C667 C13 1.663 . S
C681 C55 1.660 . S
C685 C15 1.667 . S
C699 C68 1.665 . S
C703 C97 1.663 . S
C717 C83 1.661 . S
C721 C111 1.666 . S
C735 C153 1.662 . S
C739 C124 1.667 . S
C753 C139 1.662 . S
C757 C167 1.665 . S
C771 C196 1.659 . S
C775 C180 1.668 . S
C789 C195 1.659 . S
C793 C211 1.668 . S
