# Generated by pormake.
# Topology wkf, (6)-cn, num edge types: 1
# Building blocks:
#     Node 0, Type 0, BuildingBlock: IZENUY_clean_sbu_0, # of connection points: 6
#     Node 1, Type 0, BuildingBlock: IZENUY_clean_sbu_0, # of connection points: 6
#     Node 2, Type 0, BuildingBlock: IZENUY_clean_sbu_0, # of connection points: 6
#     Node 3, Type 0, BuildingBlock: IZENUY_clean_sbu_0, # of connection points: 6
#     Node 4, Type 0, BuildingBlock: IZENUY_clean_sbu_0, # of connection points: 6
#     Node 5, Type 0, BuildingBlock: IZENUY_clean_sbu_0, # of connection points: 6
#     Node 6, Type 0, BuildingBlock: IZENUY_clean_sbu_0, # of connection points: 6
#     Node 7, Type 0, BuildingBlock: IZENUY_clean_sbu_0, # of connection points: 6
#     Node 8, Type 0, BuildingBlock: IZENUY_clean_sbu_0, # of connection points: 6
#     Node 9, Type 0, BuildingBlock: IZENUY_clean_sbu_0, # of connection points: 6
#     Node 10, Type 0, BuildingBlock: IZENUY_clean_sbu_0, # of connection points: 6
#     Node 11, Type 0, BuildingBlock: IZENUY_clean_sbu_0, # of connection points: 6
#     Edge 12, Type (0, 0), BuildingBlock: TEMPAE_clean_linker_10, # of connection points: 2
#     Edge 13, Type (0, 0), BuildingBlock: TEMPAE_clean_linker_10, # of connection points: 2
#     Edge 14, Type (0, 0), BuildingBlock: TEMPAE_clean_linker_10, # of connection points: 2
#     Edge 15, Type (0, 0), BuildingBlock: TEMPAE_clean_linker_10, # of connection points: 2
#     Edge 16, Type (0, 0), BuildingBlock: TEMPAE_clean_linker_10, # of connection points: 2
#     Edge 17, Type (0, 0), BuildingBlock: TEMPAE_clean_linker_10, # of connection points: 2
#     Edge 18, Type (0, 0), BuildingBlock: TEMPAE_clean_linker_10, # of connection points: 2
#     Edge 19, Type (0, 0), BuildingBlock: TEMPAE_clean_linker_10, # of connection points: 2
#     Edge 20, Type (0, 0), BuildingBlock: TEMPAE_clean_linker_10, # of connection points: 2
#     Edge 21, Type (0, 0), BuildingBlock: TEMPAE_clean_linker_10, # of connection points: 2
#     Edge 22, Type (0, 0), BuildingBlock: TEMPAE_clean_linker_10, # of connection points: 2
#     Edge 23, Type (0, 0), BuildingBlock: TEMPAE_clean_linker_10, # of connection points: 2
#     Edge 24, Type (0, 0), BuildingBlock: TEMPAE_clean_linker_10, # of connection points: 2
#     Edge 25, Type (0, 0), BuildingBlock: TEMPAE_clean_linker_10, # of connection points: 2
#     Edge 26, Type (0, 0), BuildingBlock: TEMPAE_clean_linker_10, # of connection points: 2
#     Edge 27, Type (0, 0), BuildingBlock: TEMPAE_clean_linker_10, # of connection points: 2
#     Edge 28, Type (0, 0), BuildingBlock: TEMPAE_clean_linker_10, # of connection points: 2
#     Edge 29, Type (0, 0), BuildingBlock: TEMPAE_clean_linker_10, # of connection points: 2
#     Edge 30, Type (0, 0), BuildingBlock: TEMPAE_clean_linker_10, # of connection points: 2
#     Edge 31, Type (0, 0), BuildingBlock: TEMPAE_clean_linker_10, # of connection points: 2
#     Edge 32, Type (0, 0), BuildingBlock: TEMPAE_clean_linker_10, # of connection points: 2
#     Edge 33, Type (0, 0), BuildingBlock: TEMPAE_clean_linker_10, # of connection points: 2
#     Edge 34, Type (0, 0), BuildingBlock: TEMPAE_clean_linker_10, # of connection points: 2
#     Edge 35, Type (0, 0), BuildingBlock: TEMPAE_clean_linker_10, # of connection points: 2
#     Edge 36, Type (0, 0), BuildingBlock: TEMPAE_clean_linker_10, # of connection points: 2
#     Edge 37, Type (0, 0), BuildingBlock: TEMPAE_clean_linker_10, # of connection points: 2
#     Edge 38, Type (0, 0), BuildingBlock: TEMPAE_clean_linker_10, # of connection points: 2
#     Edge 39, Type (0, 0), BuildingBlock: TEMPAE_clean_linker_10, # of connection points: 2
#     Edge 40, Type (0, 0), BuildingBlock: TEMPAE_clean_linker_10, # of connection points: 2
#     Edge 41, Type (0, 0), BuildingBlock: TEMPAE_clean_linker_10, # of connection points: 2
#     Edge 42, Type (0, 0), BuildingBlock: TEMPAE_clean_linker_10, # of connection points: 2
#     Edge 43, Type (0, 0), BuildingBlock: TEMPAE_clean_linker_10, # of connection points: 2
#     Edge 44, Type (0, 0), BuildingBlock: TEMPAE_clean_linker_10, # of connection points: 2
#     Edge 45, Type (0, 0), BuildingBlock: TEMPAE_clean_linker_10, # of connection points: 2
#     Edge 46, Type (0, 0), BuildingBlock: TEMPAE_clean_linker_10, # of connection points: 2
#     Edge 47, Type (0, 0), BuildingBlock: TEMPAE_clean_linker_10, # of connection points: 2
# Relax obj value: 0.283
# Max RMSD: 0.255
# Mean RMSD: 0.255
data_MOF--net-wkf--node1-IZENUY_clean_sbu_0--edge1-TEMPAE_clean_linker_10
_symmetry_space_group_name_H-M    P1
_symmetry_Int_Tables_number       1
_symmetry_cell_setting            triclinic
loop_
_symmetry_equiv_pos_as_xyz
'x, y, z'
_cell_length_a     27.359196
_cell_length_b     27.332239
_cell_length_c     74.774891
_cell_angle_alpha  89.776316
_cell_angle_beta   90.23702
_cell_angle_gamma 120.10546
loop_
_atom_site_label
_atom_site_type_symbol
_atom_site_fract_x
_atom_site_fract_y
_atom_site_fract_z
_atom_type_partial_charge
Fe0 Fe 0.44759 0.14574 0.34618 0.0
Fe1 Fe 0.33416 0.11522 0.36323 0.0
O2 O 0.40426 0.12883 0.36534 0.0
Fe3 Fe 0.43226 0.12622 0.38645 0.0
O4 O 0.50434 0.18115 0.38102 0.0
O5 O 0.4966 0.2154 0.35514 0.0
O6 O 0.41347 0.17764 0.33367 0.0
C7 C 0.38865 0.20255 0.33947 0.0
C8 C 0.47504 0.07552 0.36567 0.0
O9 O 0.35814 0.18437 0.3532 0.0
C10 C 0.31943 0.03612 0.38848 0.0
O11 O 0.40085 0.07741 0.33651 0.0
O12 O 0.32231 0.07932 0.34132 0.0
O13 O 0.44458 0.07013 0.37898 0.0
O14 O 0.48956 0.11604 0.35486 0.0
C15 C 0.37477 0.18087 0.39515 0.0
O16 O 0.30519 0.04568 0.37337 0.0
O17 O 0.36542 0.07169 0.3957 0.0
C18 C 0.34873 0.05768 0.33377 0.0
O19 O 0.33473 0.14821 0.38477 0.0
O20 O 0.42128 0.18158 0.3952 0.0
C21 C 0.52124 0.22151 0.36996 0.0
Fe22 Fe 0.31542 0.40131 0.55596 0.0
Fe23 Fe 0.30287 0.44638 0.51999 0.0
O24 O 0.27861 0.38963 0.53547 0.0
Fe25 Fe 0.21816 0.32348 0.5305 0.0
O26 O 0.19081 0.31075 0.55348 0.0
O27 O 0.25302 0.38553 0.56873 0.0
O28 O 0.33503 0.47549 0.55734 0.0
C29 C 0.30731 0.49785 0.55155 0.0
C30 C 0.28251 0.28726 0.54831 0.0
O31 O 0.28699 0.48725 0.53586 0.0
C32 C 0.28396 0.35747 0.49855 0.0
O33 O 0.38069 0.41805 0.54428 0.0
O34 O 0.37611 0.48061 0.52717 0.0
O35 O 0.25495 0.28433 0.53439 0.0
O36 O 0.30115 0.32937 0.55855 0.0
C37 C 0.18665 0.396 0.51582 0.0
O38 O 0.31871 0.4072 0.50376 0.0
O39 O 0.2375 0.32667 0.50673 0.0
C40 C 0.40373 0.45885 0.53337 0.0
O41 O 0.23537 0.42373 0.50942 0.0
O42 O 0.17444 0.35567 0.52644 0.0
C43 C 0.20422 0.34286 0.56704 0.0
Fe44 Fe 0.86523 0.27609 0.71934 0.0
Fe45 Fe 0.83878 0.27659 0.67966 0.0
O46 O 0.85537 0.24591 0.69784 0.0
Fe47 Fe 0.86196 0.18526 0.69469 0.0
O48 O 0.80543 0.14427 0.71042 0.0
O49 O 0.83903 0.20897 0.73138 0.0
O50 O 0.79389 0.26193 0.71965 0.0
C51 C 0.77251 0.27898 0.70811 0.0
C52 C 0.94994 0.25252 0.71955 0.0
O53 O 0.79664 0.29871 0.69322 0.0
C54 C 0.91644 0.24776 0.665 0.0
O55 O 0.89272 0.34944 0.71139 0.0
O56 O 0.90291 0.343 0.68263 0.0
O57 O 0.91708 0.20532 0.71211 0.0
O58 O 0.93707 0.29074 0.72025 0.0
C59 C 0.76946 0.16519 0.67223 0.0
O60 O 0.87748 0.25965 0.66304 0.0
O61 O 0.91875 0.22237 0.67882 0.0
C62 C 0.9152 0.37219 0.6966 0.0
O63 O 0.77398 0.21239 0.67538 0.0
O64 O 0.8079 0.1545 0.6768 0.0
C65 C 0.80508 0.15891 0.72636 0.0
Fe66 Fe 0.55415 0.85568 0.85872 0.0
Fe67 Fe 0.67929 0.90085 0.86655 0.0
O68 O 0.61425 0.89625 0.87215 0.0
Fe69 Fe 0.61023 0.93197 0.89122 0.0
O70 O 0.55739 0.86782 0.90121 0.0
O71 O 0.50367 0.83022 0.87752 0.0
O72 O 0.55894 0.79311 0.8622 0.0
C73 C 0.59988 0.78869 0.85691 0.0
C74 C 0.54101 0.94635 0.86567 0.0
O75 O 0.64791 0.83224 0.85499 0.0
C76 C 0.71376 0.01019 0.88014 0.0
O77 O 0.59498 0.87527 0.83758 0.0
O78 O 0.6824 0.93644 0.84595 0.0
O79 O 0.55727 0.94804 0.88169 0.0
O80 O 0.54488 0.91482 0.85433 0.0
C81 C 0.67527 0.88275 0.90243 0.0
O82 O 0.72371 0.97062 0.87683 0.0
O83 O 0.6638 -0.00084 0.88246 0.0
C84 C 0.64421 0.91638 0.83413 0.0
O85 O 0.67815 0.86514 0.88708 0.0
O86 O 0.66141 0.92053 0.90425 0.0
C87 C 0.51222 0.83072 0.89423 0.0
Fe88 Fe 0.70627 0.57287 0.01641 0.0
Fe89 Fe 0.79197 0.67797 0.03707 0.0
O90 O 0.72988 0.61093 0.03673 0.0
Fe91 Fe 0.69099 0.58104 0.05653 0.0
O92 O 0.66745 0.50814 0.04994 0.0
O93 O 0.71512 0.51586 0.02541 0.0
O94 O 0.77639 0.60243 0.0064 0.0
C95 C 0.82341 0.62153 0.01415 0.0
C96 C 0.605 0.55045 0.033 0.0
O97 O 0.83344 0.64854 0.02853 0.0
C98 C 0.72726 0.69737 0.06038 0.0
O99 O 0.69627 0.6277 0.00664 0.0
O100 O 0.77949 0.69848 0.0146 0.0
O101 O 0.62854 0.57843 0.04691 0.0
O102 O 0.63135 0.53614 0.02237 0.0
C103 C 0.79915 0.62487 0.06905 0.0
O104 O 0.7551 0.71191 0.04603 0.0
O105 O 0.70826 0.64829 0.06674 0.0
C106 C 0.73428 0.67901 0.0054 0.0
O107 O 0.81442 0.6686 0.05946 0.0
O108 O 0.75064 0.58185 0.06741 0.0
C109 C 0.68942 0.48886 0.03926 0.0
Fe110 Fe 0.10765 0.74118 0.20295 0.0
Fe111 Fe 0.07018 0.64931 0.23172 0.0
O112 O 0.09537 0.67423 0.20992 0.0
Fe113 Fe 0.10765 0.63086 0.19519 0.0
O114 O 0.16463 0.68902 0.18277 0.0
O115 O 0.18077 0.76463 0.19768 0.0
O116 O 0.13324 0.77418 0.22505 0.0
C117 C 0.14965 0.75894 0.23885 0.0
C118 C 0.05373 0.66926 0.17318 0.0
O119 O 0.13266 0.70727 0.24188 0.0
C120 C 0.00664 0.5556 0.21186 0.0
O121 O 0.03549 0.72331 0.20772 0.0
O122 O 0.03201 0.68723 0.23416 0.0
O123 O 0.05547 0.62725 0.1795 0.0
O124 O 0.08354 0.7184 0.17982 0.0
C125 C 0.14994 0.61579 0.2263 0.0
O126 O 0.00593 0.59091 0.22247 0.0
O127 O 0.05206 0.56444 0.20469 0.0
C128 C 0.01239 0.70686 0.22275 0.0
O129 O 0.10455 0.6069 0.23353 0.0
O130 O 0.16069 0.63263 0.21028 0.0
C131 C 0.19687 0.74 0.18704 0.0
Fe132 Fe 0.85204 0.56207 0.47724 0.0
Fe133 Fe 0.89736 0.68755 0.46962 0.0
O134 O 0.8937 0.62273 0.46414 0.0
Fe135 Fe 0.93141 0.61943 0.4455 0.0
O136 O 0.86837 0.5667 0.4349 0.0
O137 O 0.82859 0.51221 0.45829 0.0
O138 O 0.78975 0.56667 0.47307 0.0
C139 C 0.78442 0.60722 0.47824 0.0
C140 C 0.94324 0.54916 0.47132 0.0
O141 O 0.82752 0.65547 0.48044 0.0
C142 C 0.00816 0.72291 0.4573 0.0
O143 O 0.86939 0.60218 0.4985 0.0
O144 O 0.93078 0.69011 0.49062 0.0
O145 O 0.94671 0.56628 0.45532 0.0
O146 O 0.91077 0.5528 0.4823 0.0
C147 C 0.883 0.68439 0.43357 0.0
O148 O 0.96811 0.73253 0.4601 0.0
O149 O -0.00238 0.67307 0.45486 0.0
C150 C 0.90992 0.65143 0.50227 0.0
O151 O 0.86393 0.68712 0.44868 0.0
O152 O 0.92102 0.67075 0.43221 0.0
C153 C 0.83047 0.52139 0.44158 0.0
Fe154 Fe 0.27213 0.84318 0.65621 0.0
Fe155 Fe 0.18124 0.86692 0.64121 0.0
O156 O 0.24158 0.85993 0.63803 0.0
Fe157 Fe 0.27156 0.86949 0.61651 0.0
O158 O 0.25718 0.79797 0.61627 0.0
O159 O 0.29416 0.80099 0.64267 0.0
O160 O 0.20787 0.77842 0.66045 0.0
C161 C 0.16083 0.77415 0.66362 0.0
C162 C 0.36765 0.91953 0.63926 0.0
O163 O 0.15041 0.81284 0.6591 0.0
C164 C 0.24846 0.95462 0.61624 0.0
O165 O 0.25528 0.88187 0.67283 0.0
O166 O 0.21861 0.92375 0.65707 0.0
O167 O 0.34487 0.89694 0.62447 0.0
O168 O 0.33854 0.9073 0.65324 0.0
C169 C 0.15435 0.80983 0.60956 0.0
O170 O 0.2014 0.92207 0.62378 0.0
O171 O 0.28645 0.94148 0.61552 0.0
C172 C 0.24372 0.92107 0.6709 0.0
O173 O 0.13999 0.81038 0.62552 0.0
O174 O 0.20444 0.84335 0.6045 0.0
C175 C 0.27423 0.77663 0.62783 0.0
Fe176 Fe 0.44271 0.31052 0.81575 0.0
Fe177 Fe 0.32019 0.2241 0.80548 0.0
O178 O 0.38594 0.28466 0.80025 0.0
Fe179 Fe 0.39714 0.32001 0.77949 0.0
O180 O 0.47142 0.34031 0.77825 0.0
O181 O 0.48399 0.29416 0.80017 0.0
O182 O 0.42077 0.24379 0.82683 0.0
C183 C 0.3931 0.19438 0.82088 0.0
C184 C 0.45435 0.41021 0.80134 0.0
O185 O 0.35299 0.18122 0.81009 0.0
C186 C 0.28311 0.28672 0.78702 0.0
O187 O 0.40312 0.32693 0.83168 0.0
O188 O 0.32324 0.24494 0.82907 0.0
O189 O 0.41326 0.38589 0.79062 0.0
O190 O 0.47623 0.38335 0.80808 0.0
C191 C 0.33956 0.2081 0.76913 0.0
O192 O 0.28048 0.26006 0.80112 0.0
O193 O 0.32504 0.30485 0.77674 0.0
C194 C 0.35351 0.29212 0.83695 0.0
O195 O 0.30758 0.19521 0.78269 0.0
O196 O 0.38197 0.25695 0.76723 0.0
C197 C 0.4943 0.31344 0.78435 0.0
Fe198 Fe 0.11182 0.33306 0.97351 0.0
Fe199 Fe 0.11703 0.4304 0.95151 0.0
O200 O 0.12383 0.40274 0.97214 0.0
Fe201 Fe 0.14359 0.44597 0.99145 0.0
O202 O 0.17963 0.41321 0.00257 0.0
O203 O 0.18285 0.35851 0.98189 0.0
O204 O 0.14101 0.33456 0.95117 0.0
C205 C 0.17239 0.37546 0.94087 0.0
C206 C 0.05958 0.34578 0.00473 0.0
O207 O 0.1721 0.42148 0.94142 0.0
C208 C 0.06898 0.4721 0.97367 0.0
O209 O 0.04036 0.30295 0.96481 0.0
O210 O 0.06245 0.3631 0.94262 0.0
O211 O 0.0778 0.39787 0.00231 0.0
O212 O 0.08031 0.32024 0.99614 0.0
C213 C 0.21359 0.52087 0.96678 0.0
O214 O 0.06123 0.44057 0.96044 0.0
O215 O 0.11043 0.4866 0.98412 0.0
C216 C 0.02817 0.3171 0.95011 0.0
O217 O 0.17117 0.5031 0.95657 0.0
O218 O 0.21089 0.49631 0.98137 0.0
C219 C 0.20348 0.38891 0.99553 0.0
Fe220 Fe 0.73969 0.10721 0.13611 0.0
Fe221 Fe 0.64933 0.0678 0.10665 0.0
O222 O 0.67421 0.09646 0.12813 0.0
Fe223 Fe 0.63257 0.11476 0.14155 0.0
O224 O 0.69167 0.17126 0.15364 0.0
O225 O 0.7663 0.18225 0.13946 0.0
O226 O 0.77432 0.12618 0.11403 0.0
C227 C 0.76108 0.14086 0.09947 0.0
C228 C 0.66553 0.06223 0.16596 0.0
O229 O 0.71024 0.12545 0.09587 0.0
C230 C 0.55274 0.01335 0.12595 0.0
O231 O 0.71831 0.03312 0.13341 0.0
O232 O 0.68173 0.02401 0.10658 0.0
O233 O 0.62449 0.06345 0.15851 0.0
O234 O 0.7151 0.08946 0.15943 0.0
C235 C 0.62759 0.15624 0.10885 0.0
O236 O 0.58746 0.00789 0.1164 0.0
O237 O 0.5649 0.06112 0.13208 0.0
C238 C 0.6979 0.00512 0.11929 0.0
O239 O 0.61283 0.10755 0.10289 0.0
O240 O 0.64038 0.16739 0.12516 0.0
C241 C 0.74266 0.20181 0.14919 0.0
Fe242 Fe 0.58385 0.69683 0.27872 0.0
Fe243 Fe 0.56618 0.69473 0.31897 0.0
O244 O 0.60632 0.72951 0.29979 0.0
Fe245 Fe 0.66823 0.79658 0.30156 0.0
O246 O 0.63975 0.82885 0.28644 0.0
O247 O 0.6127 0.76293 0.26602 0.0
O248 O 0.51943 0.69891 0.28039 0.0
C249 C 0.48447 0.6762 0.29288 0.0
C250 C 0.69616 0.73783 0.27593 0.0
O251 O 0.49762 0.66074 0.3072 0.0
C252 C 0.67897 0.74201 0.33089 0.0
O253 O 0.54988 0.62385 0.28738 0.0
O254 O 0.57611 0.63508 0.31545 0.0
O255 O 0.70484 0.78348 0.28319 0.0
O256 O 0.64779 0.69418 0.27603 0.0
C257 C 0.59188 0.80279 0.32567 0.0
O258 O 0.62705 0.72251 0.33409 0.0
O259 O 0.70098 0.76908 0.31667 0.0
C260 C 0.55789 0.60441 0.30179 0.0
O261 O 0.55399 0.75206 0.3236 0.0
O262 O 0.64193 0.82071 0.32025 0.0
C263 C 0.62346 0.81177 0.27068 0.0
C264 C 0.18956 0.78501 0.26993 0.0
C265 C 0.18291 0.8017 0.25273 0.0
C266 C 0.21697 0.82505 0.28355 0.0
C267 C 0.23881 0.88321 0.27985 0.0
C268 C 0.23379 0.90043 0.26238 0.0
C269 C 0.20576 0.85952 0.24908 0.0
C270 C 0.22144 0.80499 0.30201 0.0
C271 C 0.2574 0.9621 0.2578 0.0
C272 C 0.26148 0.98616 0.31744 0.0
C273 C 0.31992 0.01195 0.32032 0.0
C274 C 0.23434 0.94336 0.30456 0.0
C275 C 0.26645 0.92623 0.29423 0.0
C276 C 0.32528 0.95156 0.29723 0.0
C277 C 0.35121 0.99386 0.31026 0.0
C278 C 0.17136 0.9168 0.3019 0.0
C279 C 0.36111 0.93476 0.28645 0.0
H280 H 0.17211 0.74048 0.27291 0.0
H281 H 0.20129 0.87293 0.23581 0.0
H282 H 0.26626 0.82614 0.30635 0.0
H283 H 0.19848 0.81662 0.31174 0.0
H284 H 0.20374 0.75848 0.30258 0.0
H285 H 0.25174 0.96866 0.24344 0.0
H286 H 0.2362 0.97984 0.26595 0.0
H287 H 0.30313 0.98644 0.26106 0.0
H288 H 0.23685 -0.00057 0.32523 0.0
H289 H 0.39637 0.01322 0.3124 0.0
H290 H 0.1506 0.87022 0.30346 0.0
H291 H 0.16236 0.92535 0.28812 0.0
H292 H 0.15209 0.9331 0.31152 0.0
H293 H 0.34426 0.88854 0.28754 0.0
H294 H 0.40597 0.9571 0.29087 0.0
H295 H 0.3595 0.94443 0.27211 0.0
C296 C 0.33593 0.37161 0.46966 0.0
C297 C 0.29675 0.33502 0.48231 0.0
C298 C 0.3494 0.35035 0.45453 0.0
C299 C 0.32413 0.29112 0.45223 0.0
C300 C 0.28459 0.25405 0.46497 0.0
C301 C 0.27095 0.27643 0.47974 0.0
C302 C 0.39097 0.39124 0.44108 0.0
C303 C 0.25762 0.19065 0.46324 0.0
C304 C 0.31963 0.22398 0.40732 0.0
C305 C 0.36456 0.21337 0.40902 0.0
C306 C 0.30741 0.25143 0.42097 0.0
C307 C 0.34015 0.26756 0.43685 0.0
C308 C 0.38636 0.25814 0.43847 0.0
C309 C 0.39834 0.2317 0.42447 0.0
C310 C 0.25869 0.26204 0.41855 0.0
C311 C 0.42184 0.27391 0.45528 0.0
H312 H 0.3559 0.41695 0.47154 0.0
H313 H 0.24111 0.24789 0.48955 0.0
H314 H 0.42923 0.38705 0.44077 0.0
H315 H 0.37214 0.38117 0.42747 0.0
H316 H 0.40406 0.43587 0.4442 0.0
H317 H 0.22779 0.16765 0.47432 0.0
H318 H 0.23438 0.17639 0.45038 0.0
H319 H 0.29083 0.17866 0.46315 0.0
H320 H 0.29372 0.21048 0.39534 0.0
H321 H 0.43308 0.2236 0.42594 0.0
H322 H 0.27264 0.30703 0.42133 0.0
H323 H 0.22478 0.23606 0.42824 0.0
H324 H 0.24064 0.25159 0.40483 0.0
H325 H 0.43906 0.31928 0.45839 0.0
H326 H 0.45761 0.26575 0.45414 0.0
H327 H 0.39511 0.2492 0.46675 0.0
C328 C 0.9567 0.28976 0.635 0.0
C329 C 0.95846 0.26168 0.65054 0.0
C330 C -0.00327 0.30392 0.62135 0.0
C331 C 0.03962 0.2897 0.62327 0.0
C332 C 0.04181 0.26157 0.63893 0.0
C333 C 0.00127 0.24792 0.65236 0.0
C334 C -0.00691 0.33402 0.60486 0.0
C335 C 0.087 0.24582 0.64147 0.0
C336 C 0.11111 0.27748 0.58144 0.0
C337 C 0.16228 0.32911 0.58149 0.0
C338 C 0.07085 0.26419 0.59495 0.0
C339 C 0.08181 0.30357 0.6088 0.0
C340 C 0.13318 0.3559 0.6089 0.0
C341 C 0.17285 0.36797 0.59528 0.0
C342 C 0.01657 0.20792 0.5944 0.0
C343 C 0.14625 0.39921 0.62336 0.0
H344 H 0.92403 0.30087 0.63349 0.0
H345 H 0.00326 0.22648 0.66433 0.0
H346 H 0.03297 0.37485 0.60315 0.0
H347 H 0.98767 0.30819 0.59281 0.0
H348 H 0.95743 0.34248 0.60549 0.0
H349 H 0.08312 0.22442 0.65449 0.0
H350 H 0.08452 0.21728 0.63056 0.0
H351 H 0.12942 0.28428 0.64077 0.0
H352 H 0.1025 0.24718 0.57086 0.0
H353 H 0.21202 0.40816 0.59538 0.0
H354 H 0.97984 0.21468 0.59392 0.0
H355 H 0.0125 0.18354 0.60675 0.0
H356 H 0.01438 0.18208 0.58266 0.0
H357 H 0.11313 0.41129 0.62363 0.0
H358 H 0.18792 0.43806 0.62141 0.0
H359 H 0.14609 0.38081 0.63663 0.0
C360 C 0.75992 0.13456 0.75638 0.0
C361 C 0.76944 0.11645 0.73991 0.0
C362 C 0.731 0.09599 0.77015 0.0
C363 C 0.71151 0.03782 0.76747 0.0
C364 C 0.71799 0.01878 0.75053 0.0
C365 C 0.74675 0.05839 0.73688 0.0
C366 C 0.72427 0.11802 0.78793 0.0
C367 C 0.69748 0.95706 0.74716 0.0
C368 C 0.71523 0.96589 0.81024 0.0
C369 C 0.65888 0.93995 0.81587 0.0
C370 C 0.73207 -0.00499 0.79396 0.0
C371 C 0.69166 -0.00107 0.78311 0.0
C372 C 0.63411 0.97055 0.78829 0.0
C373 C 0.61827 0.94099 0.80463 0.0
C374 C 0.79379 0.02418 0.78887 0.0
C375 C 0.5899 0.97413 0.77715 0.0
H376 H 0.77629 0.17927 0.75868 0.0
H377 H 0.75349 0.04407 0.72412 0.0
H378 H 0.68005 0.09284 0.79269 0.0
H379 H 0.7517 0.11379 0.79806 0.0
H380 H 0.73589 0.1632 0.78719 0.0
H381 H 0.69845 0.9481 0.73272 0.0
H382 H 0.72475 0.94448 0.75452 0.0
H383 H 0.65375 0.93034 0.75218 0.0
H384 H 0.74664 0.96461 0.81881 0.0
H385 H 0.5747 0.92118 0.80902 0.0
H386 H 0.81194 0.07071 0.78935 0.0
H387 H 0.79858 0.01307 0.77499 0.0
H388 H 0.81877 0.01278 0.79796 0.0
H389 H 0.59546 0.01707 0.7784 0.0
H390 H 0.54636 0.94282 0.78148 0.0
H391 H 0.59464 0.96721 0.7628 0.0
C392 C 0.71192 0.82385 0.91628 0.0
C393 C 0.69017 0.86033 0.91837 0.0
C394 C 0.72223 0.79874 0.93111 0.0
C395 C 0.7103 0.8101 0.94851 0.0
C396 C 0.68987 0.8481 0.95079 0.0
C397 C 0.68009 0.87283 0.93569 0.0
C398 C 0.74415 0.75853 0.92811 0.0
C399 C 0.67644 0.8611 0.96912 0.0
C400 C 0.67607 0.69425 0.9826 0.0
C401 C 0.72774 0.71472 0.99167 0.0
C402 C 0.66943 0.72569 0.96893 0.0
C403 C 0.71561 0.77902 0.96411 0.0
C404 C 0.7674 0.80081 0.97354 0.0
C405 C 0.77284 0.76843 0.98724 0.0
C406 C 0.61334 0.70105 0.9593 0.0
C407 C 0.81747 0.85762 0.96882 0.0
H408 H 0.72006 0.81403 0.90298 0.0
H409 H 0.6631 0.90079 0.93745 0.0
H410 H 0.78252 0.77127 0.93633 0.0
H411 H 0.71187 0.71529 0.93239 0.0
H412 H 0.75461 0.75692 0.91386 0.0
H413 H 0.66555 0.89516 0.96876 0.0
H414 H 0.6402 0.8225 0.97486 0.0
H415 H 0.7129 0.87402 0.97827 0.0
H416 H 0.64069 0.65312 0.98605 0.0
H417 H 0.81281 0.78475 0.99422 0.0
H418 H 0.61878 0.69348 0.94507 0.0
H419 H 0.59755 0.73133 0.95953 0.0
H420 H 0.58074 0.66047 0.96531 0.0
H421 H 0.83179 0.85628 0.95506 0.0
H422 H 0.85351 0.87021 0.97816 0.0
H423 H 0.80526 0.89068 0.96897 0.0
C424 C -0.00057 0.61397 0.14629 0.0
C425 C 0.01742 0.66118 0.15744 0.0
C426 C 0.96418 0.60543 0.13151 0.0
C427 C 0.94529 0.64424 0.12807 0.0
C428 C 0.96245 0.69136 0.13949 0.0
C429 C -0.00114 0.69963 0.1539 0.0
C430 C 0.94766 0.55523 0.11948 0.0
C431 C 0.94175 0.73269 0.13664 0.0
C432 C 0.8953 0.65946 0.08196 0.0
C433 C 0.83649 0.62677 0.08371 0.0
C434 C 0.93127 0.6637 0.09607 0.0
C435 C 0.90776 0.636 0.1125 0.0
C436 C 0.84833 0.60251 0.11428 0.0
C437 C 0.81343 0.59757 0.09975 0.0
C438 C -0.00559 0.69841 0.09347 0.0
C439 C 0.82154 0.57314 0.13166 0.0
H440 H 0.01346 0.58395 0.14899 0.0
H441 H 0.01179 0.73563 0.16265 0.0
H442 H 0.9011 0.52741 0.11938 0.0
H443 H 0.96083 0.56985 0.10554 0.0
H444 H 0.96705 0.52979 0.12376 0.0
H445 H 0.95721 0.76582 0.14715 0.0
H446 H 0.956 0.75365 0.12343 0.0
H447 H 0.89486 0.70984 0.13659 0.0
H448 H 0.91322 0.68157 0.0695 0.0
H449 H 0.76793 0.57245 0.10117 0.0
H450 H 0.01441 0.67303 0.09709 0.0
H451 H 0.01241 0.73568 0.10245 0.0
H452 H 0.00592 0.71353 0.07947 0.0
H453 H 0.83456 0.54175 0.13497 0.0
H454 H 0.77466 0.55097 0.13111 0.0
H455 H 0.83628 0.60432 0.14273 0.0
C456 C 0.12888 0.76623 0.5793 0.0
C457 C 0.11145 0.7746 0.59605 0.0
C458 C 0.08973 0.73761 0.56564 0.0
C459 C 0.03163 0.71717 0.56874 0.0
C460 C 0.01333 0.72252 0.58593 0.0
C461 C 0.05352 0.75107 0.59945 0.0
C462 C 0.111 0.73214 0.54756 0.0
C463 C 0.9517 0.70094 0.58976 0.0
C464 C 0.9574 0.72129 0.5266 0.0
C465 C 0.93254 0.66529 0.52064 0.0
C466 C 0.98668 0.73776 0.54286 0.0
C467 C -0.00811 0.69735 0.55333 0.0
C468 C 0.96428 0.64001 0.54787 0.0
C469 C 0.93451 0.62452 0.53157 0.0
C470 C 0.01496 0.79924 0.54826 0.0
C471 C 0.96916 0.59579 0.55861 0.0
H472 H 0.17349 0.78327 0.57669 0.0
H473 H 0.03969 0.75689 0.61243 0.0
H474 H 0.08628 0.68798 0.54267 0.0
H475 H 0.1054 0.7595 0.53774 0.0
H476 H 0.15641 0.74469 0.54791 0.0
H477 H 0.9435 0.70108 0.60429 0.0
H478 H 0.93815 0.72812 0.5828 0.0
H479 H 0.92523 0.65734 0.58457 0.0
H480 H 0.95536 0.75277 0.51826 0.0
H481 H 0.91554 0.58123 0.52692 0.0
H482 H 0.06151 0.81836 0.54746 0.0
H483 H 0.00445 0.8031 0.56231 0.0
H484 H 0.00227 0.82404 0.53956 0.0
H485 H 0.01217 0.60192 0.55695 0.0
H486 H 0.93798 0.55222 0.55423 0.0
H487 H 0.96307 0.59997 0.57306 0.0
C488 C 0.28557 0.96061 0.70094 0.0
C489 C 0.25751 0.96276 0.68546 0.0
C490 C 0.29964 0.00029 0.7147 0.0
C491 C 0.28535 0.04318 0.71295 0.0
C492 C 0.25717 0.04573 0.69736 0.0
C493 C 0.24362 0.00553 0.6838 0.0
C494 C 0.32984 -0.00366 0.73112 0.0
C495 C 0.24137 0.09097 0.695 0.0
C496 C 0.27413 0.11456 0.75495 0.0
C497 C 0.32572 0.16575 0.7548 0.0
C498 C 0.26053 0.07427 0.74142 0.0
C499 C 0.29956 0.08526 0.72747 0.0
C500 C 0.35191 0.13657 0.72732 0.0
C501 C 0.36429 0.17625 0.74095 0.0
C502 C 0.20427 0.01999 0.74202 0.0
C503 C 0.39485 0.14962 0.71274 0.0
H504 H 0.29676 0.92794 0.70233 0.0
H505 H 0.22217 0.00776 0.67187 0.0
H506 H 0.37075 0.03614 0.73282 0.0
H507 H 0.30425 0.99093 0.74322 0.0
H508 H 0.33809 0.96052 0.7304 0.0
H509 H 0.21967 0.08719 0.68206 0.0
H510 H 0.21314 0.08842 0.70602 0.0
H511 H 0.27982 0.13343 0.69568 0.0
H512 H 0.24406 0.10604 0.76558 0.0
H513 H 0.40445 0.21545 0.74078 0.0
H514 H 0.21093 0.98316 0.74234 0.0
H515 H 0.17962 0.01613 0.72976 0.0
H516 H 0.1788 0.01773 0.75386 0.0
H517 H 0.40664 0.11629 0.71231 0.0
H518 H 0.43385 0.19118 0.7147 0.0
H519 H 0.37628 0.14981 0.69954 0.0
C520 C 0.21756 0.32326 0.92796 0.0
C521 C 0.20499 0.36698 0.92662 0.0
C522 C 0.2458 0.31296 0.91411 0.0
C523 C 0.26081 0.34642 0.89839 0.0
C524 C 0.24931 0.3914 0.89712 0.0
C525 C 0.22207 0.40148 0.91132 0.0
C526 C 0.25853 0.26549 0.91616 0.0
C527 C 0.2638 0.42753 0.88049 0.0
C528 C 0.36645 0.3456 0.86549 0.0
C529 C 0.33049 0.30546 0.85294 0.0
C530 C 0.3445 0.35877 0.88053 0.0
C531 C 0.28521 0.33215 0.88282 0.0
C532 C 0.24879 0.29203 0.87009 0.0
C533 C 0.27186 0.27877 0.85544 0.0
C534 C 0.38471 0.40105 0.89396 0.0
C535 C 0.18533 0.26362 0.87181 0.0
H536 H 0.20511 0.29687 0.93983 0.0
H537 H 0.21247 0.43532 0.91015 0.0
H538 H 0.23347 0.23174 0.90631 0.0
H539 H 0.30381 0.28111 0.91336 0.0
H540 H 0.24854 0.24663 0.92978 0.0
H541 H 0.25449 0.46249 0.88195 0.0
H542 H 0.30919 0.44599 0.87721 0.0
H543 H 0.23924 0.40092 0.86897 0.0
H544 H 0.4118 0.36632 0.86367 0.0
H545 H 0.24378 0.24824 0.84568 0.0
H546 H 0.37603 0.38165 0.90748 0.0
H547 H 0.37824 0.43794 0.89463 0.0
H548 H 0.42963 0.41642 0.89059 0.0
H549 H 0.17151 0.23948 0.88453 0.0
H550 H 0.16291 0.23423 0.86057 0.0
H551 H 0.17226 0.29603 0.87221 0.0
C552 C 0.86178 0.18832 0.08903 0.0
C553 C 0.80514 0.17226 0.08573 0.0
C554 C 0.90352 0.21666 0.07596 0.0
C555 C 0.88834 0.2291 0.05913 0.0
C556 C 0.83139 0.21356 0.05576 0.0
C557 C 0.79056 0.18553 0.0691 0.0
C558 C 0.96393 0.23331 0.08018 0.0
C559 C 0.81344 0.22618 0.03802 0.0
C560 C 0.00253 0.34613 0.03081 0.0
C561 C 0.01613 0.31556 0.01872 0.0
C562 C 0.96124 0.31857 0.04403 0.0
C563 C 0.9322 0.25883 0.04512 0.0
C564 C 0.94533 0.22761 0.03289 0.0
C565 C 0.98736 0.25635 0.01991 0.0
C566 C 0.94888 0.35348 0.05689 0.0
C567 C 0.9147 0.1638 0.03347 0.0
H568 H 0.87362 0.17859 0.10184 0.0
H569 H 0.74702 0.17364 0.0664 0.0
H570 H 0.9789 0.21276 0.07062 0.0
H571 H -0.00834 0.2797 0.07861 0.0
H572 H 0.96896 0.22129 0.09398 0.0
H573 H 0.76747 0.21128 0.03752 0.0
H574 H 0.83703 0.27236 0.0354 0.0
H575 H 0.82375 0.2056 0.02707 0.0
H576 H 0.02447 0.3919 0.03005 0.0
H577 H -0.00281 0.23235 0.01055 0.0
H578 H 0.95613 0.34456 0.07084 0.0
H579 H 0.90386 0.34181 0.05583 0.0
H580 H 0.97557 0.3996 0.05436 0.0
H581 H 0.9212 0.14928 0.04667 0.0
H582 H 0.92925 0.14572 0.02287 0.0
H583 H 0.8686 0.14666 0.03183 0.0
C584 C 0.61119 0.83201 0.23888 0.0
C585 C 0.62337 0.85058 0.2567 0.0
C586 C 0.61431 0.86828 0.22508 0.0
C587 C 0.62951 0.92468 0.22911 0.0
C588 C 0.63941 0.94318 0.24713 0.0
C589 C 0.63651 0.90598 0.26073 0.0
C590 C 0.60338 0.84672 0.20607 0.0
C591 C 0.65435 0.00264 0.25197 0.0
C592 C 0.70164 0.02748 0.19088 0.0
C593 C 0.65667 0.03069 0.183 0.0
C594 C 0.69369 -0.00508 0.20629 0.0
C595 C 0.63948 0.96499 0.21419 0.0
C596 C 0.59427 0.96967 0.20674 0.0
C597 C 0.60329 0.00209 0.19115 0.0
C598 C 0.74291 0.99061 0.21366 0.0
C599 C 0.53579 0.93868 0.21473 0.0
H600 H 0.60043 0.78918 0.23555 0.0
H601 H 0.64531 0.92056 0.27446 0.0
H602 H 0.57025 0.85332 0.19985 0.0
H603 H 0.64238 0.87083 0.19802 0.0
H604 H 0.58975 0.80105 0.20526 0.0
H605 H 0.65578 0.00899 0.26667 0.0
H606 H 0.69626 0.03316 0.24632 0.0
H607 H 0.6231 0.01266 0.24606 0.0
H608 H 0.74306 0.04931 0.18474 0.0
H609 H 0.56818 0.00419 0.1852 0.0
H610 H 0.73411 0.94648 0.21233 0.0
H611 H 0.74868 0.0012 0.2281 0.0
H612 H 0.78306 0.01909 0.20661 0.0
H613 H 0.51426 0.8938 0.21044 0.0
H614 H 0.50969 0.95715 0.21026 0.0
H615 H 0.53766 0.93941 0.22955 0.0
C616 C 0.86219 0.67498 0.40079 0.0
C617 C 0.86173 0.69874 0.41734 0.0
C618 C 0.83675 0.68346 0.38565 0.0
C619 C 0.81121 0.71733 0.38706 0.0
C620 C 0.81285 0.74338 0.40356 0.0
C621 C 0.83758 0.73329 0.41854 0.0
C622 C 0.83484 0.654 0.36841 0.0
C623 C 0.78668 0.7803 0.40556 0.0
C624 C 0.77265 0.77173 0.34548 0.0
C625 C 0.7141 0.73483 0.34459 0.0
C626 C 0.80522 0.76607 0.35906 0.0
C627 C 0.77864 0.72191 0.37179 0.0
C628 C 0.7199 0.68337 0.37052 0.0
C629 C 0.68834 0.69059 0.35704 0.0
C630 C 0.86769 0.80817 0.36009 0.0
C631 C 0.69009 0.63502 0.3836 0.0
H632 H 0.88032 0.64775 0.39985 0.0
H633 H 0.83743 0.75201 0.43129 0.0
H634 H 0.79053 0.62136 0.36538 0.0
H635 H 0.85005 0.68453 0.35712 0.0
H636 H 0.86073 0.63313 0.36909 0.0
H637 H 0.79588 0.80137 0.41882 0.0
H638 H 0.80247 0.81325 0.39498 0.0
H639 H 0.74017 0.75428 0.40394 0.0
H640 H 0.79276 0.80591 0.33586 0.0
H641 H 0.64323 0.66134 0.35624 0.0
H642 H 0.89212 0.78581 0.36025 0.0
H643 H 0.87729 0.83241 0.37275 0.0
H644 H 0.88241 0.83844 0.34871 0.0
H645 H 0.71132 0.60951 0.38411 0.0
H646 H 0.64495 0.60669 0.38006 0.0
H647 H 0.6923 0.65191 0.39723 0.0
C648 C 0.61925 0.89252 0.34205 0.0
C649 C 0.57719 0.84091 0.33503 0.0
C650 C 0.60505 0.93011 0.34997 0.0
C651 C 0.54771 0.91591 0.35051 0.0
C652 C 0.50498 0.86289 0.3441 0.0
C653 C 0.52026 0.82587 0.33653 0.0
C654 C 0.65152 0.98614 0.35691 0.0
C655 C 0.44343 0.84675 0.3441 0.0
C656 C 0.4967 0.00119 0.37615 0.0
C657 C 0.49583 0.03606 0.36253 0.0
C658 C 0.51567 0.96302 0.37267 0.0
C659 C 0.53285 0.95931 0.35514 0.0
C660 C 0.53234 -0.00525 0.34141 0.0
C661 C 0.51417 0.03288 0.34532 0.0
C662 C 0.5164 0.92607 0.3876 0.0
C663 C 0.54921 0.99119 0.32243 0.0
H664 H 0.66325 0.90393 0.34111 0.0
H665 H 0.48753 0.78599 0.3311 0.0
H666 H 0.65701 0.02048 0.34771 0.0
H667 H 0.64026 -0.0047 0.37023 0.0
H668 H 0.69252 0.98714 0.358 0.0
H669 H 0.41512 0.80183 0.34031 0.0
H670 H 0.43081 0.85388 0.35748 0.0
H671 H 0.43683 0.87385 0.33444 0.0
H672 H 0.4827 0.0038 0.38947 0.0
H673 H 0.51297 0.05933 0.33468 0.0
H674 H 0.55853 0.92957 0.38847 0.0
H675 H 0.48516 0.88116 0.38476 0.0
H676 H 0.50622 0.93745 0.40076 0.0
H677 H 0.59263 -0.00224 0.32219 0.0
H678 H 0.54774 0.02294 0.31347 0.0
H679 H 0.52046 0.94845 0.31694 0.0
C680 C 0.48696 0.53381 0.51738 0.0
C681 C 0.46368 0.48499 0.52815 0.0
C682 C 0.54109 0.55683 0.51026 0.0
C683 C 0.5734 0.53101 0.51419 0.0
C684 C 0.55167 0.4835 0.52578 0.0
C685 C 0.49663 0.4607 0.5326 0.0
C686 C 0.56246 0.60711 0.4978 0.0
C687 C 0.58574 0.45564 0.53041 0.0
C688 C 0.68019 0.54885 0.47914 0.0
C689 C 0.73013 0.59322 0.48628 0.0
C690 C 0.62887 0.52799 0.48817 0.0
C691 C 0.62792 0.55147 0.50492 0.0
C692 C 0.67815 0.59679 0.51211 0.0
C693 C 0.72877 0.61763 0.50257 0.0
C694 C 0.57577 0.48069 0.47984 0.0
C695 C 0.67855 0.62235 0.53001 0.0
H696 H 0.46218 0.55342 0.51395 0.0
H697 H 0.47896 0.42317 0.54094 0.0
H698 H 0.60434 0.64155 0.50229 0.0
H699 H 0.56793 0.59462 0.48417 0.0
H700 H 0.53315 0.62407 0.49692 0.0
H701 H 0.56541 0.4231 0.54104 0.0
H702 H 0.59071 0.4351 0.51833 0.0
H703 H 0.62873 0.48777 0.53493 0.0
H704 H 0.68156 0.52983 0.46658 0.0
H705 H 0.76773 0.65113 0.50827 0.0
H706 H 0.54426 0.49447 0.47784 0.0
H707 H 0.55653 0.44357 0.48893 0.0
H708 H 0.58395 0.46717 0.46674 0.0
H709 H 0.64995 0.64013 0.52967 0.0
H710 H 0.72149 0.65644 0.53391 0.0
H711 H 0.66246 0.58907 0.5405 0.0
C712 C 0.06136 0.69747 0.66934 0.0
C713 C 0.11903 0.72341 0.67336 0.0
C714 C 0.02366 0.64283 0.67576 0.0
C715 C 0.04449 0.61429 0.68647 0.0
C716 C 0.10172 0.64275 0.69191 0.0
C717 C 0.13831 0.69688 0.68523 0.0
C718 C 0.96277 0.61389 0.66978 0.0
C719 C 0.12567 0.61415 0.7034 0.0
C720 C 0.94754 0.47056 0.70755 0.0
C721 C 0.94976 0.43429 0.69477 0.0
C722 C 0.97717 0.52948 0.70493 0.0
C723 C 0.00998 0.55227 0.68928 0.0
C724 C 0.01274 0.51575 0.67647 0.0
C725 C 0.98259 0.45735 0.67936 0.0
C726 C 0.97329 0.5673 0.71882 0.0
C727 C 0.0479 0.53832 0.65969 0.0
H728 H 0.04645 0.71804 0.66018 0.0
H729 H 0.18286 0.7174 0.6886 0.0
H730 H 0.95593 0.58284 0.65915 0.0
H731 H 0.93411 0.59031 0.68102 0.0
H732 H 0.95102 0.6445 0.66434 0.0
H733 H 0.16827 0.64471 0.70869 0.0
H734 H 0.09735 0.59179 0.71482 0.0
H735 H 0.12921 0.5821 0.69531 0.0
H736 H 0.92176 0.45289 0.71939 0.0
H737 H 0.98469 0.42956 0.66947 0.0
H738 H 0.95747 0.59363 0.71258 0.0
H739 H 0.01587 0.59663 0.72432 0.0
H740 H 0.94487 0.54286 0.73003 0.0
H741 H 0.03448 0.56435 0.65197 0.0
H742 H 0.04439 0.50403 0.65089 0.0
H743 H 0.09301 0.56605 0.6633 0.0
C744 C 0.46459 0.17363 0.83333 0.0
C745 C 0.40905 0.15314 0.82729 0.0
C746 C 0.48209 0.13725 0.84012 0.0
C747 C 0.44295 0.07867 0.84108 0.0
C748 C 0.38667 0.05738 0.835 0.0
C749 C 0.37039 0.09499 0.82799 0.0
C750 C 0.54285 0.1616 0.84602 0.0
C751 C 0.3439 -0.00494 0.83595 0.0
C752 C 0.51189 0.98878 0.84142 0.0
C753 C 0.51443 0.97928 0.85979 0.0
C754 C 0.48661 0.01905 0.83513 0.0
C755 C 0.46275 0.04011 0.84749 0.0
C756 C 0.46396 0.0297 0.86603 0.0
C757 C 0.49029 -0.00029 0.87201 0.0
C758 C 0.4875 0.03036 0.81529 0.0
C759 C 0.43863 0.05141 0.87955 0.0
H760 H 0.49494 0.21853 0.83259 0.0
H761 H 0.32743 0.07914 0.82338 0.0
H762 H 0.5446 0.1506 0.8602 0.0
H763 H 0.5635 0.14308 0.83795 0.0
H764 H 0.56767 0.20835 0.84459 0.0
H765 H 0.30133 0.98557 0.83139 0.0
H766 H 0.35786 0.97105 0.82751 0.0
H767 H 0.34072 0.97961 0.84988 0.0
H768 H 0.53076 0.9734 0.83188 0.0
H769 H 0.49166 0.99197 0.88618 0.0
H770 H 0.51413 0.07639 0.81269 0.0
H771 H 0.44431 0.01722 0.81042 0.0
H772 H 0.50446 0.00785 0.80738 0.0
H773 H 0.46351 0.09829 0.87994 0.0
H774 H 0.43792 0.03497 0.89322 0.0
H775 H 0.39484 0.03928 0.87561 0.0
C776 C 0.27013 0.40862 0.02075 0.0
C777 C 0.25903 0.40196 0.00235 0.0
C778 C 0.32517 0.42966 0.02726 0.0
C779 C 0.37006 0.44622 0.01501 0.0
C780 C 0.35877 0.43858 0.99641 0.0
C781 C 0.30305 0.4156 0.99031 0.0
C782 C 0.33549 0.43559 0.0472 0.0
C783 C 0.40576 0.45708 0.98291 0.0
C784 C 0.51852 0.55723 0.02876 0.0
C785 C 0.54383 0.52408 0.03075 0.0
C786 C 0.46135 0.53223 0.02391 0.0
C787 C 0.42909 0.4728 0.02154 0.0
C788 C 0.45414 0.43907 0.02449 0.0
C789 C 0.51159 0.46532 0.0288 0.0
C790 C 0.43623 0.56958 0.02048 0.0
C791 C 0.4208 0.37553 0.02252 0.0
H792 H 0.23582 0.3982 0.03 0.0
H793 H 0.29436 0.41145 0.97606 0.0
H794 H 0.36001 0.41515 0.05134 0.0
H795 H 0.36096 0.48099 0.05077 0.0
H796 H 0.29548 0.41646 0.05492 0.0
H797 H 0.38966 0.44746 0.96895 0.0
H798 H 0.43511 0.50333 0.98405 0.0
H799 H 0.43059 0.43592 0.98565 0.0
H800 H 0.54409 0.60278 0.03009 0.0
H801 H 0.5317 0.43999 0.03039 0.0
H802 H 0.39776 0.55542 0.0287 0.0
H803 H 0.42328 0.56616 0.00624 0.0
H804 H 0.46645 0.61471 0.02352 0.0
H805 H 0.38115 0.35766 0.03038 0.0
H806 H 0.44518 0.3552 0.02701 0.0
H807 H 0.40875 0.36433 0.00831 0.0
C808 C 0.94386 0.45246 0.21144 0.0
C809 C 0.95468 0.50594 0.20611 0.0
C810 C 0.90394 0.40416 0.2023 0.0
C811 C 0.87585 0.41029 0.18724 0.0
C812 C 0.88488 0.4643 0.18237 0.0
C813 C 0.92422 0.51172 0.19201 0.0
C814 C 0.89466 0.34707 0.20803 0.0
C815 C 0.85653 0.47269 0.16622 0.0
C816 C 0.83291 0.29356 0.15324 0.0
C817 C 0.77592 0.25797 0.15757 0.0
C818 C 0.86541 0.3449 0.16226 0.0
C819 C 0.84028 0.36047 0.17596 0.0
C820 C 0.78228 0.32599 0.17983 0.0
C821 C 0.75072 0.27524 0.17053 0.0
C822 C 0.92712 0.38147 0.15758 0.0
C823 C 0.75417 0.3415 0.19432 0.0
H824 H 0.96873 0.44878 0.22213 0.0
H825 H 0.93422 0.55369 0.1877 0.0
H826 H 0.84884 0.31637 0.20937 0.0
H827 H 0.91153 0.33055 0.19767 0.0
H828 H 0.9158 0.34913 0.22095 0.0
H829 H 0.86136 0.51555 0.16595 0.0
H830 H 0.8758 0.46739 0.15388 0.0
H831 H 0.81088 0.44065 0.16589 0.0
H832 H 0.85241 0.28082 0.14308 0.0
H833 H 0.7065 0.24829 0.17386 0.0
H834 H 0.95359 0.38274 0.16905 0.0
H835 H 0.93719 0.42553 0.15492 0.0
H836 H 0.93902 0.3656 0.14567 0.0
H837 H 0.77218 0.34027 0.20753 0.0
H838 H 0.70774 0.31233 0.19472 0.0
H839 H 0.76252 0.38526 0.19228 0.0
C840 C -0.00028 0.50143 0.46538 0.0
C841 C 0.97487 0.52144 0.47748 0.0
C842 C 0.02898 0.47456 0.47154 0.0
C843 C 0.03394 0.46836 0.49018 0.0
C844 C 0.00819 0.48774 0.50241 0.0
C845 C 0.97894 0.51386 0.49591 0.0
C846 C 0.05597 0.45427 0.45814 0.0
C847 C 0.01348 0.48307 0.52239 0.0
C848 C 0.08788 0.37335 0.50812 0.0
C849 C 0.14534 0.41273 0.51033 0.0
C850 C 0.05076 0.39054 0.50131 0.0
C851 C 0.07183 0.44831 0.49702 0.0
C852 C 0.12953 0.4882 0.49978 0.0
C853 C 0.16548 0.46985 0.5063 0.0
C854 C 0.98937 0.34702 0.49846 0.0
C855 C 0.15349 0.5504 0.49583 0.0
H856 H -0.00372 0.5067 0.45114 0.0
H857 H 0.96007 0.5294 0.5054 0.0
H858 H 0.10264 0.48027 0.45922 0.0
H859 H 0.04412 0.40983 0.46103 0.0
H860 H 0.04348 0.457 0.44418 0.0
H861 H 0.98738 0.49637 0.53004 0.0
H862 H 0.0006 0.43894 0.52616 0.0
H863 H 0.05824 0.5101 0.5265 0.0
H864 H 0.07243 0.32919 0.51117 0.0
H865 H 0.20985 0.50054 0.50827 0.0
H866 H 0.97803 0.34647 0.48417 0.0
H867 H 0.9622 0.35836 0.50633 0.0
H868 H 0.97971 0.30384 0.5024 0.0
H869 H 0.1471 0.55645 0.48151 0.0
H870 H 0.19935 0.57588 0.49891 0.0
H871 H 0.131 0.56716 0.5038 0.0
C872 C 0.46593 0.95199 0.62828 0.0
C873 C 0.42971 0.95413 0.64108 0.0
C874 C 0.52481 0.98167 0.6309 0.0
C875 C 0.5476 0.01445 0.64656 0.0
C876 C 0.51113 0.01714 0.65939 0.0
C877 C 0.45277 0.98695 0.6565 0.0
C878 C 0.56257 0.97787 0.61699 0.0
C879 C 0.5337 0.05225 0.67619 0.0
C880 C 0.69268 0.06567 0.66649 0.0
C881 C 0.71865 0.12342 0.6625 0.0
C882 C 0.63806 0.02801 0.66006 0.0
C883 C 0.60957 0.04896 0.64938 0.0
C884 C 0.63804 0.10628 0.64398 0.0
C885 C 0.69215 0.14283 0.65067 0.0
C886 C 0.60912 0.96702 0.66599 0.0
C887 C 0.60949 0.13036 0.63253 0.0
H888 H 0.44826 0.92623 0.61643 0.0
H889 H 0.42504 0.98902 0.66641 0.0
H890 H 0.5919 0.02053 0.61153 0.0
H891 H 0.58883 0.96195 0.6232 0.0
H892 H 0.53815 0.94953 0.60574 0.0
H893 H 0.49945 0.0487 0.685 0.0
H894 H 0.5597 0.03879 0.68389 0.0
H895 H 0.5614 0.09743 0.6726 0.0
H896 H 0.71322 0.05065 0.67561 0.0
H897 H 0.71268 0.18744 0.64733 0.0
H898 H 0.58557 0.93841 0.65474 0.0
H899 H 0.57807 0.96012 0.67662 0.0
H900 H 0.63967 0.9552 0.67142 0.0
H901 H 0.58713 0.10208 0.6211 0.0
H902 H 0.64004 0.17302 0.62727 0.0
H903 H 0.57749 0.13387 0.64064 0.0
C904 C 0.54513 0.68434 0.85566 0.0
C905 C 0.58664 0.73548 0.84827 0.0
C906 C 0.52496 0.63364 0.84628 0.0
C907 C 0.54594 0.63469 0.82892 0.0
C908 C 0.58814 0.68628 0.82142 0.0
C909 C 0.60861 0.73621 0.83133 0.0
C910 C 0.48115 0.57907 0.85492 0.0
C911 C 0.61065 0.68884 0.80282 0.0
C912 C 0.53249 0.49661 0.81497 0.0
C913 C 0.48077 0.47082 0.8057 0.0
C914 C 0.55533 0.55098 0.82191 0.0
C915 C 0.52632 0.58092 0.81926 0.0
C916 C 0.47616 0.557 0.80885 0.0
C917 C 0.45362 0.50174 0.80223 0.0
C918 C 0.60858 0.57475 0.83309 0.0
C919 C 0.44497 0.58864 0.8055 0.0
H920 H 0.52791 0.68424 0.86871 0.0
H921 H 0.63974 0.77617 0.82547 0.0
H922 H 0.44236 0.55864 0.84658 0.0
H923 H 0.49735 0.54917 0.85587 0.0
H924 H 0.46957 0.58574 0.86855 0.0
H925 H 0.64241 0.73263 0.79879 0.0
H926 H 0.63042 0.66205 0.80206 0.0
H927 H 0.57534 0.67176 0.79303 0.0
H928 H 0.55439 0.47342 0.81748 0.0
H929 H 0.41386 0.48209 0.795 0.0
H930 H 0.5986 0.57888 0.84719 0.0
H931 H 0.64022 0.61759 0.82834 0.0
H932 H 0.62801 0.54752 0.83281 0.0
H933 H 0.42522 0.59131 0.81811 0.0
H934 H 0.4113 0.56759 0.79524 0.0
H935 H 0.47473 0.63256 0.80108 0.0
C936 C 0.87053 0.60605 0.98825 0.0
C937 C 0.86519 0.6087 0.00678 0.0
C938 C 0.90578 0.58766 0.98111 0.0
C939 C 0.93439 0.56969 0.99284 0.0
C940 C 0.92964 0.57307 0.01159 0.0
C941 C 0.8957 0.59351 0.01834 0.0
C942 C 0.91148 0.58632 0.96106 0.0
C943 C 0.95846 0.5529 0.0245 0.0
C944 C 0.97513 0.46368 0.97705 0.0
C945 C 0.03379 0.49777 0.97604 0.0
C946 C 0.94178 0.48688 0.98211 0.0
C947 C 0.96804 0.54564 0.98562 0.0
C948 C 0.02707 0.58065 0.9835 0.0
C949 C 0.05948 0.556 0.97903 0.0
C950 C 0.87908 0.44811 0.98471 0.0
C951 C 0.05621 0.64367 0.98662 0.0
H952 H 0.84679 0.61798 0.97937 0.0
H953 H 0.89069 0.59486 0.03269 0.0
H954 H 0.95676 0.60859 0.95725 0.0
H955 H 0.89267 0.54192 0.95648 0.0
H956 H 0.89025 0.60625 0.95389 0.0
H957 H 0.95051 0.55869 0.03868 0.0
H958 H 0.94315 0.50736 0.02223 0.0
H959 H 0.00472 0.57612 0.02219 0.0
H960 H 0.9558 0.4185 0.97488 0.0
H961 H 0.10507 0.58209 0.97812 0.0
H962 H 0.85496 0.46356 0.9769 0.0
H963 H 0.8683 0.44801 0.99901 0.0
H964 H 0.86499 0.40394 0.98063 0.0
H965 H 0.03403 0.66224 0.97927 0.0
H966 H 0.10111 0.66553 0.98233 0.0
H967 H 0.0548 0.65212 1.00105 0.0
C968 C 0.45026 0.96899 0.1315 0.0
C969 C 0.49876 0.96422 0.13102 0.0
C970 C 0.40074 0.92698 0.13952 0.0
C971 C 0.40065 0.8802 0.14775 0.0
C972 C 0.44902 0.87414 0.14669 0.0
C973 C 0.49755 0.91614 0.13808 0.0
C974 C 0.3495 0.93417 0.13999 0.0
C975 C 0.45095 0.82562 0.15571 0.0
C976 C 0.29606 0.82007 0.18578 0.0
C977 C 0.25096 0.77295 0.17762 0.0
C978 C 0.3466 0.85349 0.17649 0.0
C979 C 0.35116 0.84024 0.1585 0.0
C980 C 0.3063 0.79178 0.15039 0.0
C981 C 0.25686 0.75826 0.16015 0.0
C982 C 0.39434 0.90403 0.18573 0.0
C983 C 0.30943 0.77694 0.13116 0.0
H984 H 0.45166 0.00651 0.12605 0.0
H985 H 0.53571 0.91331 0.13796 0.0
H986 H 0.31137 0.89479 0.13553 0.0
H987 H 0.34187 0.94256 0.15391 0.0
H988 H 0.35468 0.96968 0.13138 0.0
H989 H 0.48852 0.82294 0.15161 0.0
H990 H 0.45259 0.83147 0.17042 0.0
H991 H 0.41232 0.78485 0.15264 0.0
H992 H 0.29169 0.83094 0.19938 0.0
H993 H 0.22187 0.72183 0.15381 0.0
H994 H 0.39941 0.94351 0.17974 0.0
H995 H 0.43474 0.90443 0.18382 0.0
H996 H 0.38674 0.90442 0.2003 0.0
H997 H 0.31076 0.81014 0.12224 0.0
H998 H 0.27267 0.73555 0.12727 0.0
H999 H 0.34873 0.77557 0.12883 0.0
C1000 C 0.48275 0.50584 0.29495 0.0
C1001 C 0.53219 0.54299 0.30426 0.0
C1002 C 0.45268 0.44812 0.29924 0.0
C1003 C 0.47348 0.42722 0.31284 0.0
C1004 C 0.52454 0.46429 0.32182 0.0
C1005 C 0.553 0.52193 0.31753 0.0
C1006 C 0.39786 0.40991 0.28965 0.0
C1007 C 0.54867 0.44325 0.33615 0.0
C1008 C 0.38402 0.29177 0.33868 0.0
C1009 C 0.40029 0.25584 0.33071 0.0
C1010 C 0.40465 0.34697 0.33222 0.0
C1011 C 0.44272 0.36644 0.31763 0.0
C1012 C 0.45611 0.3291 0.3088 0.0
C1013 C 0.43436 0.27412 0.31536 0.0
C1014 C 0.38859 0.38549 0.34172 0.0
C1015 C 0.49687 0.34841 0.29328 0.0
H1016 H 0.4661 0.5223 0.28489 0.0
H1017 H 0.59117 0.55079 0.32475 0.0
H1018 H 0.39998 0.37469 0.28309 0.0
H1019 H 0.36274 0.39076 0.29944 0.0
H1020 H 0.38765 0.43287 0.27935 0.0
H1021 H 0.58969 0.47737 0.34143 0.0
H1022 H 0.51855 0.42505 0.34745 0.0
H1023 H 0.55499 0.40907 0.33075 0.0
H1024 H 0.35753 0.27786 0.35049 0.0
H1025 H 0.4467 0.24644 0.30897 0.0
H1026 H 0.37703 0.40859 0.33191 0.0
H1027 H 0.42531 0.4175 0.3495 0.0
H1028 H 0.35267 0.36187 0.35104 0.0
H1029 H 0.48522 0.37039 0.28309 0.0
H1030 H 0.49827 0.31268 0.28676 0.0
H1031 H 0.53997 0.37908 0.29813 0.0
C1032 C 0.07392 0.82562 0.45183 0.0
C1033 C 0.06349 0.7699 0.45147 0.0
C1034 C 0.12003 0.86887 0.44269 0.0
C1035 C 0.15638 0.8559 0.43299 0.0
C1036 C 0.1487 0.80079 0.43372 0.0
C1037 C 0.10243 0.75841 0.44306 0.0
C1038 C 0.1277 0.92758 0.44249 0.0
C1039 C 0.187 0.78563 0.42366 0.0
C1040 C 0.22533 0.94845 0.39247 0.0
C1041 C 0.27914 0.98665 0.39914 0.0
C1042 C 0.1854 0.90457 0.40324 0.0
C1043 C 0.19975 0.89904 0.42107 0.0
C1044 C 0.25454 0.93616 0.42767 0.0
C1045 C 0.29365 0.97941 0.41661 0.0
C1046 C 0.12733 0.86515 0.39572 0.0
C1047 C 0.27124 0.93144 0.44661 0.0
H1048 H 0.04442 0.83498 0.45848 0.0
H1049 H 0.09503 0.71557 0.44282 0.0
H1050 H 0.17202 0.95953 0.44578 0.0
H1051 H 0.11872 0.93742 0.42887 0.0
H1052 H 0.09924 0.93193 0.45209 0.0
H1053 H 0.17934 0.74289 0.42728 0.0
H1054 H 0.17977 0.78648 0.40907 0.0
H1055 H 0.232 0.81699 0.4263 0.0
H1056 H 0.21393 0.95354 0.37897 0.0
H1057 H 0.33527 0.0085 0.42189 0.0
H1058 H 0.09523 0.87013 0.40326 0.0
H1059 H 0.11688 0.82056 0.39731 0.0
H1060 H 0.12389 0.87333 0.38133 0.0
H1061 H 0.24595 0.94063 0.45615 0.0
H1062 H 0.31675 0.96116 0.44927 0.0
H1063 H 0.26208 0.88773 0.44937 0.0
C1064 C 0.24846 0.18304 0.54821 0.0
C1065 C 0.28509 0.2374 0.55486 0.0
C1066 C 0.2434 0.13496 0.55689 0.0
C1067 C 0.27545 0.14167 0.57257 0.0
C1068 C 0.31479 0.19651 0.57868 0.0
C1069 C 0.31946 0.24359 0.56967 0.0
C1070 C 0.20193 0.07701 0.54978 0.0
C1071 C 0.34985 0.20555 0.59532 0.0
C1072 C 0.22035 0.02596 0.60786 0.0
C1073 C 0.25535 0.00286 0.60528 0.0
C1074 C 0.22574 0.07057 0.59707 0.0
C1075 C 0.26642 0.09177 0.58319 0.0
C1076 C 0.3011 0.0679 0.58031 0.0
C1077 C 0.29554 0.02414 0.59148 0.0
C1078 C 0.18866 0.09572 0.60073 0.0
C1079 C 0.34441 0.08888 0.5655 0.0
H1080 H 0.22182 0.17787 0.53677 0.0
H1081 H 0.34844 0.28546 0.57479 0.0
H1082 H 0.22225 0.05076 0.54871 0.0
H1083 H 0.16607 0.05528 0.55921 0.0
H1084 H 0.18494 0.07906 0.53645 0.0
H1085 H 0.38035 0.25099 0.59781 0.0
H1086 H 0.32166 0.18808 0.60711 0.0
H1087 H 0.37368 0.18273 0.59424 0.0
H1088 H 0.18918 0.0096 0.61846 0.0
H1089 H 0.32226 0.00599 0.5892 0.0
H1090 H 0.1648 0.094 0.58849 0.0
H1091 H 0.2153 0.14093 0.60442 0.0
H1092 H 0.15811 0.07342 0.6117 0.0
H1093 H 0.32411 0.08787 0.55253 0.0
H1094 H 0.36546 0.06329 0.56429 0.0
H1095 H 0.37723 0.13348 0.56803 0.0
C1096 C 0.17912 0.25318 0.78729 0.0
C1097 C 0.23327 0.28908 0.7804 0.0
C1098 C 0.13098 0.24809 0.77868 0.0
C1099 C 0.13742 0.27936 0.76283 0.0
C1100 C 0.19208 0.31793 0.75644 0.0
C1101 C 0.23923 0.32264 0.76538 0.0
C1102 C 0.07322 0.20743 0.78606 0.0
C1103 C 0.20082 0.35216 0.73961 0.0
C1104 C 0.0206 0.22363 0.72795 0.0
C1105 C -0.00174 0.25936 0.73042 0.0
C1106 C 0.06528 0.22895 0.73867 0.0
C1107 C 0.08737 0.27036 0.75234 0.0
C1108 C 0.06429 0.30581 0.75511 0.0
C1109 C 0.02041 0.30025 0.74402 0.0
C1110 C 0.08957 0.19103 0.73514 0.0
C1111 C 0.0863 0.34996 0.76968 0.0
H1112 H 0.17414 0.22717 0.79889 0.0
H1113 H 0.28096 0.35108 0.76008 0.0
H1114 H 0.04753 0.22834 0.78711 0.0
H1115 H 0.05077 0.17115 0.7768 0.0
H1116 H 0.07558 0.19091 0.79944 0.0
H1117 H 0.2462 0.38208 0.73688 0.0
H1118 H 0.18254 0.32331 0.728 0.0
H1119 H 0.1786 0.3766 0.74063 0.0
H1120 H 0.00357 0.19192 0.71751 0.0
H1121 H 0.00287 0.32756 0.7462 0.0
H1122 H 0.0881 0.16773 0.74749 0.0
H1123 H 0.1346 0.21704 0.73123 0.0
H1124 H 0.06654 0.1599 0.72436 0.0
H1125 H 0.0856 0.33023 0.78275 0.0
H1126 H 0.06122 0.37156 0.77085 0.0
H1127 H 0.13087 0.3823 0.76692 0.0
C1128 C 0.74764 0.10079 0.8966 0.0
C1129 C 0.76005 0.06459 0.88684 0.0
C1130 C 0.78956 0.14559 0.90655 0.0
C1131 C 0.84519 0.15474 0.90646 0.0
C1132 C 0.85893 0.12119 0.89555 0.0
C1133 C 0.81607 0.07634 0.88587 0.0
C1134 C 0.77356 0.18081 0.91798 0.0
C1135 C 0.91826 0.13074 0.89485 0.0
C1136 C 0.96707 0.29243 0.92306 0.0
C1137 C 0.97752 0.27672 0.93995 0.0
C1138 C 0.92321 0.25349 0.91218 0.0
C1139 C 0.8886 0.19765 0.9184 0.0
C1140 C 0.89708 0.18203 0.93573 0.0
C1141 C 0.94166 0.22185 0.94633 0.0
C1142 C 0.91536 0.27155 0.89377 0.0
C1143 C 0.8602 0.12279 0.94283 0.0
H1144 H 0.70449 0.09223 0.89737 0.0
H1145 H 0.82603 0.04888 0.87821 0.0
H1146 H 0.77664 0.17197 0.93231 0.0
H1147 H 0.80318 0.22654 0.91574 0.0
H1148 H 0.72986 0.17175 0.91523 0.0
H1149 H 0.92281 0.10395 0.88461 0.0
H1150 H 0.94888 0.17575 0.89185 0.0
H1151 H 0.92979 0.12093 0.90808 0.0
H1152 H -0.00577 0.33493 0.91805 0.0
H1153 H 0.94925 0.20955 0.95939 0.0
H1154 H 0.87095 0.26112 0.89183 0.0
H1155 H 0.92441 0.24808 0.88347 0.0
H1156 H 0.94353 0.31759 0.89144 0.0
H1157 H 0.81502 0.11064 0.94189 0.0
H1158 H 0.87013 0.11847 0.95697 0.0
H1159 H 0.86598 0.09243 0.93458 0.0
C1160 C 0.65346 0.91015 0.10611 0.0
C1161 C 0.69772 0.95223 0.11618 0.0
C1162 C 0.6571 0.8647 0.09928 0.0
C1163 C 0.70647 0.86176 0.10255 0.0
C1164 C 0.74935 0.90166 0.11395 0.0
C1165 C 0.74433 0.94672 0.12076 0.0
C1166 C 0.61009 0.82248 0.0874 0.0
C1167 C 0.80228 0.89926 0.11781 0.0
C1168 C 0.6989 0.72567 0.08839 0.0
C1169 C 0.72254 0.73982 0.07119 0.0
C1170 C 0.69529 0.7656 0.09909 0.0
C1171 C 0.71542 0.82075 0.09235 0.0
C1172 C 0.73997 0.8356 0.07512 0.0
C1173 C 0.74327 0.79488 0.06473 0.0
C1174 C 0.66884 0.74847 0.11741 0.0
C1175 C 0.76158 0.89416 0.06749 0.0
H1176 H 0.61708 0.91438 0.10283 0.0
H1177 H 0.7785 0.97953 0.12854 0.0
H1178 H 0.62506 0.82853 0.07336 0.0
H1179 H 0.59773 0.77862 0.09134 0.0
H1180 H 0.57207 0.82718 0.08789 0.0
H1181 H 0.82717 0.9278 0.12896 0.0
H1182 H 0.79178 0.85551 0.12121 0.0
H1183 H 0.82919 0.91218 0.10568 0.0
H1184 H 0.68313 0.68328 0.09356 0.0
H1185 H 0.76177 0.80614 0.0515 0.0
H1186 H 0.62889 0.74961 0.11767 0.0
H1187 H 0.6973 0.77879 0.12764 0.0
H1188 H 0.65941 0.70527 0.12122 0.0
H1189 H 0.72599 0.90238 0.06587 0.0
H1190 H 0.78225 0.89972 0.05429 0.0
H1191 H 0.7924 0.92646 0.07683 0.0
C1192 C 0.73063 0.68866 0.25601 0.0
C1193 C 0.74121 0.73758 0.26526 0.0
C1194 C 0.7734 0.68705 0.24633 0.0
C1195 C 0.82799 0.73541 0.246 0.0
C1196 C 0.83824 0.78584 0.2545 0.0
C1197 C 0.79465 0.78631 0.26408 0.0
C1198 C 0.76105 0.63243 0.23746 0.0
C1199 C 0.8961 0.83818 0.25442 0.0
C1200 C 0.94717 0.70444 0.24604 0.0
C1201 C 0.9655 0.71533 0.22822 0.0
C1202 C 0.90295 0.71159 0.25192 0.0
C1203 C 0.87604 0.72994 0.23967 0.0
C1204 C 0.8942 0.74139 0.22166 0.0
C1205 C 0.93905 0.73399 0.21611 0.0
C1206 C 0.88477 0.69897 0.27128 0.0
C1207 C 0.86602 0.76093 0.20832 0.0
H1208 H 0.68922 0.65101 0.25665 0.0
H1209 H 0.80294 0.82451 0.271 0.0
H1210 H 0.77861 0.64053 0.22372 0.0
H1211 H 0.78163 0.61287 0.24516 0.0
H1212 H 0.71501 0.60161 0.23675 0.0
H1213 H 0.89501 0.87602 0.25923 0.0
H1214 H 0.92482 0.83132 0.26326 0.0
H1215 H 0.91439 0.84685 0.24078 0.0
H1216 H 0.96746 0.69024 0.25555 0.0
H1217 H 0.95306 0.74238 0.20232 0.0
H1218 H 0.84004 0.66457 0.27205 0.0
H1219 H 0.88766 0.73685 0.2777 0.0
H1220 H 0.91096 0.68594 0.27911 0.0
H1221 H 0.82075 0.72836 0.20694 0.0
H1222 H 0.8861 0.76929 0.19492 0.0
H1223 H 0.86777 0.8001 0.21316 0.0
C1224 C 0.73748 0.43398 0.43584 0.0
C1225 C 0.7877 0.47945 0.42931 0.0
C1226 C 0.69537 0.39662 0.42403 0.0
C1227 C 0.70415 0.40486 0.40532 0.0
C1228 C 0.75454 0.45085 0.39867 0.0
C1229 C 0.79568 0.48757 0.41073 0.0
C1230 C 0.6416 0.34815 0.43155 0.0
C1231 C 0.76537 0.46082 0.37882 0.0
C1232 C 0.62043 0.26964 0.3795 0.0
C1233 C 0.57342 0.27354 0.37425 0.0
C1234 C 0.66535 0.31407 0.38859 0.0
C1235 C 0.66223 0.36283 0.39281 0.0
C1236 C 0.61661 0.36864 0.38634 0.0
C1237 C 0.57251 0.32363 0.37698 0.0
C1238 C 0.71399 0.30694 0.39486 0.0
C1239 C 0.61196 0.42011 0.39056 0.0
H1240 H 0.73071 0.42804 0.45014 0.0
H1241 H 0.83428 0.52286 0.40553 0.0
H1242 H 0.60439 0.34902 0.42597 0.0
H1243 H 0.6379 0.30735 0.42757 0.0
H1244 H 0.64006 0.34947 0.44637 0.0
H1245 H 0.72983 0.46231 0.37217 0.0
H1246 H 0.80514 0.50081 0.37586 0.0
H1247 H 0.76808 0.42519 0.37282 0.0
H1248 H 0.62048 0.23041 0.37739 0.0
H1249 H 0.53542 0.32585 0.3731 0.0
H1250 H 0.71207 0.30163 0.40961 0.0
H1251 H 0.75493 0.34513 0.39161 0.0
H1252 H 0.71309 0.26954 0.38872 0.0
H1253 H 0.60001 0.41851 0.40481 0.0
H1254 H 0.57951 0.42226 0.38214 0.0
H1255 H 0.65306 0.45949 0.38861 0.0
C1256 C 0.23064 0.67822 0.6177 0.0
C1257 C 0.27972 0.72881 0.62201 0.0
C1258 C 0.23332 0.63732 0.60722 0.0
C1259 C 0.28625 0.64845 0.60055 0.0
C1260 C 0.33628 0.69845 0.60563 0.0
C1261 C 0.33239 0.73812 0.61645 0.0
C1262 C 0.17927 0.58377 0.6025 0.0
C1263 C 0.39342 0.71168 0.59872 0.0
C1264 C 0.30404 0.52998 0.58217 0.0
C1265 C 0.29992 0.53604 0.56365 0.0
C1266 C 0.29824 0.56536 0.59432 0.0
C1267 C 0.28922 0.6087 0.58781 0.0
C1268 C 0.28406 0.61465 0.56914 0.0
C1269 C 0.28888 0.57766 0.55722 0.0
C1270 C 0.30232 0.55664 0.61413 0.0
C1271 C 0.27443 0.66065 0.56178 0.0
H1272 H 0.1899 0.67203 0.62179 0.0
H1273 H 0.36997 0.77818 0.61945 0.0
H1274 H 0.16978 0.58436 0.58809 0.0
H1275 H 0.1839 0.54617 0.60484 0.0
H1276 H 0.14274 0.57888 0.61038 0.0
H1277 H 0.42835 0.75102 0.60464 0.0
H1278 H 0.40098 0.67623 0.60169 0.0
H1279 H 0.39455 0.71673 0.58397 0.0
H1280 H 0.31151 0.49708 0.58724 0.0
H1281 H 0.28532 0.5821 0.54293 0.0
H1282 H 0.26478 0.55246 0.62116 0.0
H1283 H 0.34001 0.594 0.61982 0.0
H1284 H 0.30551 0.51842 0.61699 0.0
H1285 H 0.23511 0.65654 0.56743 0.0
H1286 H 0.27107 0.65937 0.54696 0.0
H1287 H 0.30977 0.70267 0.56583 0.0
C1288 C 0.57509 0.29625 0.77895 0.0
C1289 C 0.53264 0.3058 0.77239 0.0
C1290 C 0.61223 0.29139 0.76711 0.0
C1291 C 0.6056 0.29501 0.74839 0.0
C1292 C 0.56152 0.30261 0.74177 0.0
C1293 C 0.52599 0.30844 0.75383 0.0
C1294 C 0.65904 0.28331 0.77458 0.0
C1295 C 0.55209 0.30505 0.72193 0.0
C1296 C 0.73373 0.33733 0.71921 0.0
C1297 C 0.72472 0.2844 0.714 0.0
C1298 C 0.69447 0.34154 0.73013 0.0
C1299 C 0.64517 0.29157 0.73569 0.0
C1300 C 0.63432 0.23827 0.7294 0.0
C1301 C 0.6748 0.23531 0.7188 0.0
C1302 C 0.70738 0.39907 0.73661 0.0
C1303 C 0.58152 0.18422 0.73463 0.0
H1304 H 0.58004 0.2939 0.79326 0.0
H1305 H 0.49251 0.31479 0.74865 0.0
H1306 H 0.65536 0.24374 0.76929 0.0
H1307 H 0.70059 0.31873 0.77024 0.0
H1308 H 0.65838 0.28128 0.78943 0.0
H1309 H 0.51361 0.30766 0.719 0.0
H1310 H 0.58905 0.34248 0.71596 0.0
H1311 H 0.54801 0.26705 0.71521 0.0
H1312 H 0.77332 0.37497 0.71585 0.0
H1313 H 0.66884 0.1944 0.715 0.0
H1314 H 0.71309 0.40142 0.75135 0.0
H1315 H 0.67152 0.40592 0.73362 0.0
H1316 H 0.74621 0.43383 0.73041 0.0
H1317 H 0.58287 0.17626 0.74914 0.0
H1318 H 0.57687 0.1471 0.72713 0.0
H1319 H 0.54347 0.18795 0.73221 0.0
C1320 C 0.42556 0.73666 0.89947 0.0
C1321 C 0.46956 0.78754 0.90621 0.0
C1322 C 0.38784 0.69413 0.91111 0.0
C1323 C 0.39422 0.70322 0.92984 0.0
C1324 C 0.43856 0.75441 0.9367 0.0
C1325 C 0.47569 0.7959 0.92481 0.0
C1326 C 0.34105 0.63958 0.90339 0.0
C1327 C 0.44638 0.76565 0.95657 0.0
C1328 C 0.25895 0.61835 0.95552 0.0
C1329 C 0.26452 0.57293 0.96158 0.0
C1330 C 0.3024 0.66276 0.94598 0.0
C1331 C 0.35197 0.6608 0.94217 0.0
C1332 C 0.35926 0.6167 0.94927 0.0
C1333 C 0.3152 0.5731 0.95907 0.0
C1334 C 0.29368 0.7098 0.93901 0.0
C1335 C 0.41165 0.61336 0.94545 0.0
H1336 H 0.4212 0.72968 0.88515 0.0
H1337 H 0.50973 0.83511 0.93017 0.0
H1338 H 0.34268 0.60303 0.90923 0.0
H1339 H 0.29944 0.63461 0.90691 0.0
H1340 H 0.34371 0.638 0.8886 0.0
H1341 H 0.48472 0.8067 0.95974 0.0
H1342 H 0.40901 0.76595 0.96214 0.0
H1343 H 0.44967 0.73141 0.96347 0.0
H1344 H 0.21931 0.61761 0.95749 0.0
H1345 H 0.31869 0.53719 0.96357 0.0
H1346 H 0.28969 0.70708 0.92422 0.0
H1347 H 0.33064 0.75161 0.94232 0.0
H1348 H 0.25511 0.70771 0.9446 0.0
H1349 H 0.4118 0.60274 0.93115 0.0
H1350 H 0.41376 0.58065 0.95375 0.0
H1351 H 0.45027 0.65476 0.94788 0.0
C1352 C 0.65086 0.25527 0.10243 0.0
C1353 C 0.63409 0.20078 0.09626 0.0
C1354 C 0.6618 0.29898 0.09041 0.0
C1355 C 0.65584 0.2878 0.0718 0.0
C1356 C 0.63947 0.2331 0.06546 0.0
C1357 C 0.62859 0.19012 0.07778 0.0
C1358 C 0.67929 0.35706 0.09764 0.0
C1359 C 0.63323 0.21997 0.0457 0.0
C1360 C 0.62489 0.39013 0.04783 0.0
C1361 C 0.67914 0.43179 0.04265 0.0
C1362 C 0.6159 0.34029 0.05599 0.0
C1363 C 0.66261 0.33269 0.05924 0.0
C1364 C 0.71671 0.37238 0.05253 0.0
C1365 C 0.72436 0.42183 0.04418 0.0
C1366 C 0.55738 0.29848 0.06264 0.0
C1367 C 0.76739 0.36532 0.05563 0.0
H1368 H 0.6559 0.26394 0.11666 0.0
H1369 H 0.61657 0.1483 0.07287 0.0
H1370 H 0.71984 0.38904 0.09155 0.0
H1371 H 0.6471 0.36878 0.09404 0.0
H1372 H 0.68436 0.35927 0.11242 0.0
H1373 H 0.62213 0.17565 0.04295 0.0
H1374 H 0.59987 0.22707 0.03994 0.0
H1375 H 0.67318 0.24885 0.03866 0.0
H1376 H 0.59003 0.39818 0.0465 0.0
H1377 H 0.76635 0.45457 0.04023 0.0
H1378 H 0.5563 0.30125 0.07742 0.0
H1379 H 0.54627 0.25461 0.05926 0.0
H1380 H 0.52469 0.30678 0.0569 0.0
H1381 H 0.78148 0.37593 0.06973 0.0
H1382 H 0.80326 0.39349 0.0468 0.0
H1383 H 0.7566 0.32091 0.05337 0.0
C1384 C 0.41127 0.69886 0.28475 0.0
C1385 C 0.42584 0.65793 0.2888 0.0
C1386 C 0.35996 0.68372 0.27634 0.0
C1387 C 0.32368 0.62653 0.27148 0.0
C1388 C 0.33679 0.5845 0.27659 0.0
C1389 C 0.38802 0.60082 0.28537 0.0
C1390 C 0.34664 0.72953 0.27151 0.0
C1391 C 0.29914 0.52325 0.27155 0.0
C1392 C 0.18075 0.59689 0.25556 0.0
C1393 C 0.1907 0.60827 0.23718 0.0
C1394 C 0.22263 0.59911 0.26686 0.0
C1395 C 0.27535 0.61247 0.25953 0.0
C1396 C 0.28419 0.61969 0.24082 0.0
C1397 C 0.24171 0.6178 0.22984 0.0
C1398 C 0.2119 0.59158 0.28675 0.0
C1399 C 0.33987 0.63319 0.23255 0.0
H1400 H 0.44134 0.74306 0.28737 0.0
H1401 H 0.40039 0.56964 0.28833 0.0
H1402 H 0.34974 0.73603 0.2568 0.0
H1403 H 0.30281 0.71688 0.27546 0.0
H1404 H 0.37606 0.77047 0.27802 0.0
H1405 H 0.31114 0.49508 0.2787 0.0
H1406 H 0.25429 0.50917 0.27449 0.0
H1407 H 0.30242 0.51833 0.25695 0.0
H1408 H 0.14126 0.58917 0.26137 0.0
H1409 H 0.24941 0.62613 0.21564 0.0
H1410 H 0.23498 0.63347 0.29338 0.0
H1411 H 0.22777 0.56475 0.29255 0.0
H1412 H 0.16627 0.57232 0.28994 0.0
H1413 H 0.37281 0.67669 0.23634 0.0
H1414 H 0.33748 0.63053 0.21772 0.0
H1415 H 0.35362 0.60381 0.23765 0.0
loop_
_geom_bond_atom_site_label_1
_geom_bond_atom_site_label_2
_geom_bond_distance
_geom_bond_site_symmetry_2
_ccdc_geom_bond_type
Fe0 O2 1.918 . S
Fe0 O5 1.997 . S
Fe0 O6 2.002 . S
Fe0 O11 1.976 . S
Fe0 O14 1.996 . S
Fe1 O2 1.918 . S
Fe1 O9 1.997 . S
Fe1 O12 1.996 . S
Fe1 O16 1.976 . S
Fe1 O19 2.002 . S
O2 Fe0 1.918 . S
O2 Fe1 1.918 . S
O2 Fe3 1.918 . S
Fe3 O2 1.918 . S
Fe3 O4 2.002 . S
Fe3 O13 1.976 . S
Fe3 O17 1.996 . S
Fe3 O20 1.997 . S
O4 Fe3 2.002 . S
O4 C21 1.295 . S
O5 Fe0 1.997 . S
O5 C21 1.235 . S
O6 Fe0 2.002 . S
O6 C7 1.295 . S
C7 O6 1.295 . S
C7 O9 1.235 . S
C8 O13 1.287 . S
C8 O14 1.255 . S
O9 Fe1 1.997 . S
O9 C7 1.235 . S
C10 O16 1.287 . S
C10 O17 1.255 . S
O11 Fe0 1.976 . S
O11 C18 1.287 . S
O12 Fe1 1.996 . S
O12 C18 1.255 . S
O13 Fe3 1.976 . S
O13 C8 1.287 . S
O14 Fe0 1.996 . S
O14 C8 1.255 . S
C15 O19 1.295 . S
C15 O20 1.235 . S
O16 Fe1 1.976 . S
O16 C10 1.287 . S
O17 Fe3 1.996 . S
O17 C10 1.255 . S
C18 O11 1.287 . S
C18 O12 1.255 . S
O19 Fe1 2.002 . S
O19 C15 1.295 . S
O20 Fe3 1.997 . S
O20 C15 1.235 . S
C21 O4 1.295 . S
C21 O5 1.235 . S
Fe22 O24 1.918 . S
Fe22 O27 1.997 . S
Fe22 O28 2.002 . S
Fe22 O33 1.976 . S
Fe22 O36 1.996 . S
Fe23 O24 1.918 . S
Fe23 O31 1.997 . S
Fe23 O34 1.996 . S
Fe23 O38 1.976 . S
Fe23 O41 2.002 . S
O24 Fe22 1.918 . S
O24 Fe23 1.918 . S
O24 Fe25 1.918 . S
Fe25 O24 1.918 . S
Fe25 O26 2.002 . S
Fe25 O35 1.976 . S
Fe25 O39 1.996 . S
Fe25 O42 1.997 . S
O26 Fe25 2.002 . S
O26 C43 1.295 . S
O27 Fe22 1.997 . S
O27 C43 1.235 . S
O28 Fe22 2.002 . S
O28 C29 1.295 . S
C29 O28 1.295 . S
C29 O31 1.235 . S
C30 O35 1.287 . S
C30 O36 1.255 . S
O31 Fe23 1.997 . S
O31 C29 1.235 . S
C32 O38 1.287 . S
C32 O39 1.255 . S
O33 Fe22 1.976 . S
O33 C40 1.287 . S
O34 Fe23 1.996 . S
O34 C40 1.255 . S
O35 Fe25 1.976 . S
O35 C30 1.287 . S
O36 Fe22 1.996 . S
O36 C30 1.255 . S
C37 O41 1.295 . S
C37 O42 1.235 . S
O38 Fe23 1.976 . S
O38 C32 1.287 . S
O39 Fe25 1.996 . S
O39 C32 1.255 . S
C40 O33 1.287 . S
C40 O34 1.255 . S
O41 Fe23 2.002 . S
O41 C37 1.295 . S
O42 Fe25 1.997 . S
O42 C37 1.235 . S
C43 O26 1.295 . S
C43 O27 1.235 . S
Fe44 O46 1.918 . S
Fe44 O49 1.997 . S
Fe44 O50 2.002 . S
Fe44 O55 1.976 . S
Fe44 O58 1.996 . S
Fe45 O46 1.918 . S
Fe45 O53 1.997 . S
Fe45 O56 1.996 . S
Fe45 O60 1.976 . S
Fe45 O63 2.002 . S
O46 Fe44 1.918 . S
O46 Fe45 1.918 . S
O46 Fe47 1.918 . S
Fe47 O46 1.918 . S
Fe47 O48 2.002 . S
Fe47 O57 1.976 . S
Fe47 O61 1.996 . S
Fe47 O64 1.997 . S
O48 Fe47 2.002 . S
O48 C65 1.295 . S
O49 Fe44 1.997 . S
O49 C65 1.235 . S
O50 Fe44 2.002 . S
O50 C51 1.295 . S
C51 O50 1.295 . S
C51 O53 1.235 . S
C52 O57 1.287 . S
C52 O58 1.255 . S
O53 Fe45 1.997 . S
O53 C51 1.235 . S
C54 O60 1.287 . S
C54 O61 1.255 . S
O55 Fe44 1.976 . S
O55 C62 1.287 . S
O56 Fe45 1.996 . S
O56 C62 1.255 . S
O57 Fe47 1.976 . S
O57 C52 1.287 . S
O58 Fe44 1.996 . S
O58 C52 1.255 . S
C59 O63 1.295 . S
C59 O64 1.235 . S
O60 Fe45 1.976 . S
O60 C54 1.287 . S
O61 Fe47 1.996 . S
O61 C54 1.255 . S
C62 O55 1.287 . S
C62 O56 1.255 . S
O63 Fe45 2.002 . S
O63 C59 1.295 . S
O64 Fe47 1.997 . S
O64 C59 1.235 . S
C65 O48 1.295 . S
C65 O49 1.235 . S
Fe66 O68 1.918 . S
Fe66 O71 1.997 . S
Fe66 O72 2.002 . S
Fe66 O77 1.976 . S
Fe66 O80 1.996 . S
Fe67 O68 1.918 . S
Fe67 O75 1.997 . S
Fe67 O78 1.996 . S
Fe67 O82 1.976 . S
Fe67 O85 2.002 . S
O68 Fe66 1.918 . S
O68 Fe67 1.918 . S
O68 Fe69 1.918 . S
Fe69 O68 1.918 . S
Fe69 O70 2.002 . S
Fe69 O79 1.976 . S
Fe69 O83 1.996 . S
Fe69 O86 1.997 . S
O70 Fe69 2.002 . S
O70 C87 1.295 . S
O71 Fe66 1.997 . S
O71 C87 1.235 . S
O72 Fe66 2.002 . S
O72 C73 1.295 . S
C73 O72 1.295 . S
C73 O75 1.235 . S
C74 O79 1.287 . S
C74 O80 1.255 . S
O75 Fe67 1.997 . S
O75 C73 1.235 . S
C76 O82 1.287 . S
C76 O83 1.255 . S
O77 Fe66 1.976 . S
O77 C84 1.287 . S
O78 Fe67 1.996 . S
O78 C84 1.255 . S
O79 Fe69 1.976 . S
O79 C74 1.287 . S
O80 Fe66 1.996 . S
O80 C74 1.255 . S
C81 O85 1.295 . S
C81 O86 1.235 . S
O82 Fe67 1.976 . S
O82 C76 1.287 . S
O83 Fe69 1.996 . S
O83 C76 1.255 . S
C84 O77 1.287 . S
C84 O78 1.255 . S
O85 Fe67 2.002 . S
O85 C81 1.295 . S
O86 Fe69 1.997 . S
O86 C81 1.235 . S
C87 O70 1.295 . S
C87 O71 1.235 . S
Fe88 O90 1.918 . S
Fe88 O93 1.997 . S
Fe88 O94 2.002 . S
Fe88 O99 1.968 1_554 S
Fe88 O102 1.996 . S
Fe89 O90 1.918 . S
Fe89 O97 1.997 . S
Fe89 O100 1.996 . S
Fe89 O104 1.976 . S
Fe89 O107 2.002 . S
O90 Fe88 1.918 . S
O90 Fe89 1.918 . S
O90 Fe91 1.918 . S
Fe91 O90 1.918 . S
Fe91 O92 2.002 . S
Fe91 O101 1.976 . S
Fe91 O105 1.996 . S
Fe91 O108 1.997 . S
O92 Fe91 2.002 . S
O92 C109 1.295 . S
O93 Fe88 1.997 . S
O93 C109 1.235 . S
O94 Fe88 2.002 . S
O94 C95 1.295 . S
C95 O94 1.295 . S
C95 O97 1.235 . S
C96 O101 1.287 . S
C96 O102 1.255 . S
O97 Fe89 1.997 . S
O97 C95 1.235 . S
C98 O104 1.287 . S
C98 O105 1.255 . S
O99 Fe88 1.968 1_556 S
O99 C106 1.288 . S
O100 Fe89 1.996 . S
O100 C106 1.255 1_554 S
O101 Fe91 1.976 . S
O101 C96 1.287 . S
O102 Fe88 1.996 . S
O102 C96 1.255 . S
C103 O107 1.295 . S
C103 O108 1.235 . S
O104 Fe89 1.976 . S
O104 C98 1.287 . S
O105 Fe91 1.996 . S
O105 C98 1.255 . S
C106 O99 1.288 . S
C106 O100 1.255 1_556 S
O107 Fe89 2.002 . S
O107 C103 1.295 . S
O108 Fe91 1.997 . S
O108 C103 1.235 . S
C109 O92 1.295 . S
C109 O93 1.235 . S
Fe110 O112 1.918 . S
Fe110 O115 1.997 . S
Fe110 O116 2.002 . S
Fe110 O121 1.976 . S
Fe110 O124 1.996 . S
Fe111 O112 1.918 . S
Fe111 O119 1.997 . S
Fe111 O122 1.996 . S
Fe111 O126 1.976 . S
Fe111 O129 2.002 . S
O112 Fe110 1.918 . S
O112 Fe111 1.918 . S
O112 Fe113 1.918 . S
Fe113 O112 1.918 . S
Fe113 O114 2.002 . S
Fe113 O123 1.976 . S
Fe113 O127 1.996 . S
Fe113 O130 1.997 . S
O114 Fe113 2.002 . S
O114 C131 1.295 . S
O115 Fe110 1.997 . S
O115 C131 1.235 . S
O116 Fe110 2.002 . S
O116 C117 1.295 . S
C117 O116 1.295 . S
C117 O119 1.235 . S
C118 O123 1.287 . S
C118 O124 1.255 . S
O119 Fe111 1.997 . S
O119 C117 1.235 . S
C120 O126 1.287 . S
C120 O127 1.255 . S
O121 Fe110 1.976 . S
O121 C128 1.287 . S
O122 Fe111 1.996 . S
O122 C128 1.255 . S
O123 Fe113 1.976 . S
O123 C118 1.287 . S
O124 Fe110 1.996 . S
O124 C118 1.255 . S
C125 O129 1.295 . S
C125 O130 1.235 . S
O126 Fe111 1.976 . S
O126 C120 1.287 . S
O127 Fe113 1.996 . S
O127 C120 1.255 . S
C128 O121 1.287 . S
C128 O122 1.255 . S
O129 Fe111 2.002 . S
O129 C125 1.295 . S
O130 Fe113 1.997 . S
O130 C125 1.235 . S
C131 O114 1.295 . S
C131 O115 1.235 . S
Fe132 O134 1.918 . S
Fe132 O137 1.997 . S
Fe132 O138 2.002 . S
Fe132 O143 1.976 . S
Fe132 O146 1.996 . S
Fe133 O134 1.918 . S
Fe133 O141 1.997 . S
Fe133 O144 1.996 . S
Fe133 O148 1.976 . S
Fe133 O151 2.002 . S
O134 Fe132 1.918 . S
O134 Fe133 1.918 . S
O134 Fe135 1.918 . S
Fe135 O134 1.918 . S
Fe135 O136 2.002 . S
Fe135 O145 1.976 . S
Fe135 O149 1.996 . S
Fe135 O152 1.997 . S
O136 Fe135 2.002 . S
O136 C153 1.295 . S
O137 Fe132 1.997 . S
O137 C153 1.235 . S
O138 Fe132 2.002 . S
O138 C139 1.295 . S
C139 O138 1.295 . S
C139 O141 1.235 . S
C140 O145 1.287 . S
C140 O146 1.255 . S
O141 Fe133 1.997 . S
O141 C139 1.235 . S
C142 O148 1.287 . S
C142 O149 1.255 . S
O143 Fe132 1.976 . S
O143 C150 1.287 . S
O144 Fe133 1.996 . S
O144 C150 1.255 . S
O145 Fe135 1.976 . S
O145 C140 1.287 . S
O146 Fe132 1.996 . S
O146 C140 1.255 . S
C147 O151 1.295 . S
C147 O152 1.235 . S
O148 Fe133 1.976 . S
O148 C142 1.287 . S
O149 Fe135 1.996 . S
O149 C142 1.255 . S
C150 O143 1.287 . S
C150 O144 1.255 . S
O151 Fe133 2.002 . S
O151 C147 1.295 . S
O152 Fe135 1.997 . S
O152 C147 1.235 . S
C153 O136 1.295 . S
C153 O137 1.235 . S
Fe154 O156 1.918 . S
Fe154 O159 1.997 . S
Fe154 O160 2.002 . S
Fe154 O165 1.976 . S
Fe154 O168 1.996 . S
Fe155 O156 1.918 . S
Fe155 O163 1.997 . S
Fe155 O166 1.996 . S
Fe155 O170 1.976 . S
Fe155 O173 2.002 . S
O156 Fe154 1.918 . S
O156 Fe155 1.918 . S
O156 Fe157 1.918 . S
Fe157 O156 1.918 . S
Fe157 O158 2.002 . S
Fe157 O167 1.976 . S
Fe157 O171 1.996 . S
Fe157 O174 1.997 . S
O158 Fe157 2.002 . S
O158 C175 1.295 . S
O159 Fe154 1.997 . S
O159 C175 1.235 . S
O160 Fe154 2.002 . S
O160 C161 1.295 . S
C161 O160 1.295 . S
C161 O163 1.235 . S
C162 O167 1.287 . S
C162 O168 1.255 . S
O163 Fe155 1.997 . S
O163 C161 1.235 . S
C164 O170 1.287 . S
C164 O171 1.255 . S
O165 Fe154 1.976 . S
O165 C172 1.287 . S
O166 Fe155 1.996 . S
O166 C172 1.255 . S
O167 Fe157 1.976 . S
O167 C162 1.287 . S
O168 Fe154 1.996 . S
O168 C162 1.255 . S
C169 O173 1.295 . S
C169 O174 1.235 . S
O170 Fe155 1.976 . S
O170 C164 1.287 . S
O171 Fe157 1.996 . S
O171 C164 1.255 . S
C172 O165 1.287 . S
C172 O166 1.255 . S
O173 Fe155 2.002 . S
O173 C169 1.295 . S
O174 Fe157 1.997 . S
O174 C169 1.235 . S
C175 O158 1.295 . S
C175 O159 1.235 . S
Fe176 O178 1.918 . S
Fe176 O181 1.997 . S
Fe176 O182 2.002 . S
Fe176 O187 1.976 . S
Fe176 O190 1.996 . S
Fe177 O178 1.918 . S
Fe177 O185 1.997 . S
Fe177 O188 1.996 . S
Fe177 O192 1.976 . S
Fe177 O195 2.002 . S
O178 Fe176 1.918 . S
O178 Fe177 1.918 . S
O178 Fe179 1.918 . S
Fe179 O178 1.918 . S
Fe179 O180 2.002 . S
Fe179 O189 1.976 . S
Fe179 O193 1.996 . S
Fe179 O196 1.997 . S
O180 Fe179 2.002 . S
O180 C197 1.295 . S
O181 Fe176 1.997 . S
O181 C197 1.235 . S
O182 Fe176 2.002 . S
O182 C183 1.295 . S
C183 O182 1.295 . S
C183 O185 1.235 . S
C184 O189 1.287 . S
C184 O190 1.255 . S
O185 Fe177 1.997 . S
O185 C183 1.235 . S
C186 O192 1.287 . S
C186 O193 1.255 . S
O187 Fe176 1.976 . S
O187 C194 1.287 . S
O188 Fe177 1.996 . S
O188 C194 1.255 . S
O189 Fe179 1.976 . S
O189 C184 1.287 . S
O190 Fe176 1.996 . S
O190 C184 1.255 . S
C191 O195 1.295 . S
C191 O196 1.235 . S
O192 Fe177 1.976 . S
O192 C186 1.287 . S
O193 Fe179 1.996 . S
O193 C186 1.255 . S
C194 O187 1.287 . S
C194 O188 1.255 . S
O195 Fe177 2.002 . S
O195 C191 1.295 . S
O196 Fe179 1.997 . S
O196 C191 1.235 . S
C197 O180 1.295 . S
C197 O181 1.235 . S
Fe198 O200 1.918 . S
Fe198 O203 1.997 . S
Fe198 O204 2.002 . S
Fe198 O209 1.976 . S
Fe198 O212 1.996 . S
Fe199 O200 1.918 . S
Fe199 O207 1.997 . S
Fe199 O210 1.996 . S
Fe199 O214 1.976 . S
Fe199 O217 2.002 . S
O200 Fe198 1.918 . S
O200 Fe199 1.918 . S
O200 Fe201 1.918 . S
Fe201 O200 1.918 . S
Fe201 O202 2.002 . S
Fe201 O211 1.968 1_556 S
Fe201 O215 1.996 . S
Fe201 O218 1.997 . S
O202 Fe201 2.002 . S
O202 C219 1.295 . S
O203 Fe198 1.997 . S
O203 C219 1.235 . S
O204 Fe198 2.002 . S
O204 C205 1.295 . S
C205 O204 1.295 . S
C205 O207 1.235 . S
C206 O211 1.288 . S
C206 O212 1.255 1_554 S
O207 Fe199 1.997 . S
O207 C205 1.235 . S
C208 O214 1.287 . S
C208 O215 1.255 . S
O209 Fe198 1.976 . S
O209 C216 1.287 . S
O210 Fe199 1.996 . S
O210 C216 1.255 . S
O211 Fe201 1.968 1_554 S
O211 C206 1.288 . S
O212 Fe198 1.996 . S
O212 C206 1.255 1_556 S
C213 O217 1.295 . S
C213 O218 1.235 . S
O214 Fe199 1.976 . S
O214 C208 1.287 . S
O215 Fe201 1.996 . S
O215 C208 1.255 . S
C216 O209 1.287 . S
C216 O210 1.255 . S
O217 Fe199 2.002 . S
O217 C213 1.295 . S
O218 Fe201 1.997 . S
O218 C213 1.235 . S
C219 O202 1.295 . S
C219 O203 1.235 . S
Fe220 O222 1.918 . S
Fe220 O225 1.997 . S
Fe220 O226 2.002 . S
Fe220 O231 1.976 . S
Fe220 O234 1.996 . S
Fe221 O222 1.918 . S
Fe221 O229 1.997 . S
Fe221 O232 1.996 . S
Fe221 O236 1.976 . S
Fe221 O239 2.002 . S
O222 Fe220 1.918 . S
O222 Fe221 1.918 . S
O222 Fe223 1.918 . S
Fe223 O222 1.918 . S
Fe223 O224 2.002 . S
Fe223 O233 1.976 . S
Fe223 O237 1.996 . S
Fe223 O240 1.997 . S
O224 Fe223 2.002 . S
O224 C241 1.295 . S
O225 Fe220 1.997 . S
O225 C241 1.235 . S
O226 Fe220 2.002 . S
O226 C227 1.295 . S
C227 O226 1.295 . S
C227 O229 1.235 . S
C228 O233 1.287 . S
C228 O234 1.255 . S
O229 Fe221 1.997 . S
O229 C227 1.235 . S
C230 O236 1.287 . S
C230 O237 1.255 . S
O231 Fe220 1.976 . S
O231 C238 1.287 . S
O232 Fe221 1.996 . S
O232 C238 1.255 . S
O233 Fe223 1.976 . S
O233 C228 1.287 . S
O234 Fe220 1.996 . S
O234 C228 1.255 . S
C235 O239 1.295 . S
C235 O240 1.235 . S
O236 Fe221 1.976 . S
O236 C230 1.287 . S
O237 Fe223 1.996 . S
O237 C230 1.255 . S
C238 O231 1.287 . S
C238 O232 1.255 . S
O239 Fe221 2.002 . S
O239 C235 1.295 . S
O240 Fe223 1.997 . S
O240 C235 1.235 . S
C241 O224 1.295 . S
C241 O225 1.235 . S
Fe242 O244 1.918 . S
Fe242 O247 1.997 . S
Fe242 O248 2.002 . S
Fe242 O253 1.976 . S
Fe242 O256 1.996 . S
Fe243 O244 1.918 . S
Fe243 O251 1.997 . S
Fe243 O254 1.996 . S
Fe243 O258 1.976 . S
Fe243 O261 2.002 . S
O244 Fe242 1.918 . S
O244 Fe243 1.918 . S
O244 Fe245 1.918 . S
Fe245 O244 1.918 . S
Fe245 O246 2.002 . S
Fe245 O255 1.976 . S
Fe245 O259 1.996 . S
Fe245 O262 1.997 . S
O246 Fe245 2.002 . S
O246 C263 1.295 . S
O247 Fe242 1.997 . S
O247 C263 1.235 . S
O248 Fe242 2.002 . S
O248 C249 1.295 . S
C249 O248 1.295 . S
C249 O251 1.235 . S
C250 O255 1.287 . S
C250 O256 1.255 . S
O251 Fe243 1.997 . S
O251 C249 1.235 . S
C252 O258 1.287 . S
C252 O259 1.255 . S
O253 Fe242 1.976 . S
O253 C260 1.287 . S
O254 Fe243 1.996 . S
O254 C260 1.255 . S
O255 Fe245 1.976 . S
O255 C250 1.287 . S
O256 Fe242 1.996 . S
O256 C250 1.255 . S
C257 O261 1.295 . S
C257 O262 1.235 . S
O258 Fe243 1.976 . S
O258 C252 1.287 . S
O259 Fe245 1.996 . S
O259 C252 1.255 . S
C260 O253 1.287 . S
C260 O254 1.255 . S
O261 Fe243 2.002 . S
O261 C257 1.295 . S
O262 Fe245 1.997 . S
O262 C257 1.235 . S
C263 O246 1.295 . S
C263 O247 1.235 . S
C264 C265 1.391 . S
C264 C266 1.394 . S
C264 H280 0.931 . S
C265 C264 1.391 . S
C265 C269 1.376 . S
C266 C264 1.394 . S
C266 C267 1.369 . S
C266 C270 1.531 . S
C267 C266 1.369 . S
C267 C268 1.410 . S
C267 C275 1.503 1_565 S
C268 C267 1.410 . S
C268 C269 1.392 . S
C268 C271 1.511 1_565 S
C269 C265 1.376 . S
C269 C268 1.392 . S
C269 H281 0.929 . S
C270 C266 1.531 . S
C270 H282 0.960 . S
C270 H283 0.962 . S
C270 H284 0.960 . S
C271 C268 1.511 1_545 S
C271 H285 0.961 . S
C271 H286 0.961 . S
C271 H287 0.961 . S
C272 C273 1.370 . S
C272 C274 1.363 . S
C272 H288 0.931 . S
C273 C272 1.370 . S
C273 C277 1.408 . S
C274 C272 1.363 . S
C274 C275 1.370 . S
C274 C278 1.524 1_545 S
C275 C267 1.503 1_545 S
C275 C274 1.370 . S
C275 C276 1.403 . S
C276 C275 1.403 . S
C276 C277 1.404 . S
C276 C279 1.539 . S
C277 C273 1.408 . S
C277 C276 1.404 . S
C277 H289 0.930 . S
C278 C274 1.524 1_565 S
C278 H290 0.956 . S
C278 H291 0.961 . S
C278 H292 0.961 . S
C279 C276 1.539 . S
C279 H293 0.958 . S
C279 H294 0.961 . S
C279 H295 0.960 . S
H280 C264 0.931 . S
H281 C269 0.929 . S
H282 C270 0.960 . S
H283 C270 0.962 . S
H284 C270 0.960 . S
H285 C271 0.961 . S
H286 C271 0.961 . S
H287 C271 0.961 . S
H288 C272 0.931 . S
H289 C277 0.930 . S
H290 C278 0.956 . S
H291 C278 0.961 . S
H292 C278 0.961 . S
H293 C279 0.958 . S
H294 C279 0.961 . S
H295 C279 0.960 . S
C296 C297 1.391 . S
C296 C298 1.394 . S
C296 H312 0.931 . S
C297 C296 1.391 . S
C297 C301 1.376 . S
C298 C296 1.394 . S
C298 C299 1.369 . S
C298 C302 1.531 . S
C299 C298 1.369 . S
C299 C300 1.410 . S
C299 C307 1.503 . S
C300 C299 1.410 . S
C300 C301 1.392 . S
C300 C303 1.511 . S
C301 C297 1.376 . S
C301 C300 1.392 . S
C301 H313 0.929 . S
C302 C298 1.531 . S
C302 H314 0.960 . S
C302 H315 0.962 . S
C302 H316 0.960 . S
C303 C300 1.511 . S
C303 H317 0.961 . S
C303 H318 0.961 . S
C303 H319 0.961 . S
C304 C305 1.370 . S
C304 C306 1.363 . S
C304 H320 0.931 . S
C305 C304 1.370 . S
C305 C309 1.408 . S
C306 C304 1.363 . S
C306 C307 1.370 . S
C306 C310 1.524 . S
C307 C299 1.503 . S
C307 C306 1.370 . S
C307 C308 1.403 . S
C308 C307 1.403 . S
C308 C309 1.404 . S
C308 C311 1.539 . S
C309 C305 1.408 . S
C309 C308 1.404 . S
C309 H321 0.930 . S
C310 C306 1.524 . S
C310 H322 0.956 . S
C310 H323 0.961 . S
C310 H324 0.961 . S
C311 C308 1.539 . S
C311 H325 0.958 . S
C311 H326 0.961 . S
C311 H327 0.960 . S
H312 C296 0.931 . S
H313 C301 0.929 . S
H314 C302 0.960 . S
H315 C302 0.962 . S
H316 C302 0.960 . S
H317 C303 0.961 . S
H318 C303 0.961 . S
H319 C303 0.961 . S
H320 C304 0.931 . S
H321 C309 0.930 . S
H322 C310 0.956 . S
H323 C310 0.961 . S
H324 C310 0.961 . S
H325 C311 0.958 . S
H326 C311 0.961 . S
H327 C311 0.960 . S
C328 C329 1.391 . S
C328 C330 1.394 . S
C328 H344 0.931 . S
C329 C328 1.391 . S
C329 C333 1.376 . S
C330 C328 1.394 . S
C330 C331 1.369 . S
C330 C334 1.531 . S
C331 C330 1.369 . S
C331 C332 1.410 1_655 S
C331 C339 1.503 1_655 S
C332 C331 1.410 1_455 S
C332 C333 1.392 1_455 S
C332 C335 1.511 . S
C333 C329 1.376 . S
C333 C332 1.392 1_655 S
C333 H345 0.929 . S
C334 C330 1.531 . S
C334 H346 0.960 . S
C334 H347 0.962 . S
C334 H348 0.960 . S
C335 C332 1.511 . S
C335 H349 0.961 . S
C335 H350 0.961 . S
C335 H351 0.961 . S
C336 C337 1.370 . S
C336 C338 1.363 . S
C336 H352 0.931 . S
C337 C336 1.370 . S
C337 C341 1.408 . S
C338 C336 1.363 . S
C338 C339 1.370 . S
C338 C342 1.524 1_455 S
C339 C331 1.503 1_455 S
C339 C338 1.370 . S
C339 C340 1.403 . S
C340 C339 1.403 . S
C340 C341 1.404 . S
C340 C343 1.539 . S
C341 C337 1.408 . S
C341 C340 1.404 . S
C341 H353 0.930 . S
C342 C338 1.524 1_655 S
C342 H354 0.956 . S
C342 H355 0.961 1_655 S
C342 H356 0.961 1_655 S
C343 C340 1.539 . S
C343 H357 0.958 . S
C343 H358 0.961 . S
C343 H359 0.960 . S
H344 C328 0.931 . S
H345 C333 0.929 . S
H346 C334 0.960 . S
H347 C334 0.962 . S
H348 C334 0.960 . S
H349 C335 0.961 . S
H350 C335 0.961 . S
H351 C335 0.961 . S
H352 C336 0.931 . S
H353 C341 0.930 . S
H354 C342 0.956 . S
H355 C342 0.961 1_455 S
H356 C342 0.961 1_455 S
H357 C343 0.958 . S
H358 C343 0.961 . S
H359 C343 0.960 . S
C360 C361 1.391 . S
C360 C362 1.394 . S
C360 H376 0.931 . S
C361 C360 1.391 . S
C361 C365 1.376 . S
C362 C360 1.394 . S
C362 C363 1.369 . S
C362 C366 1.531 . S
C363 C362 1.369 . S
C363 C364 1.410 . S
C363 C371 1.503 1_545 S
C364 C363 1.410 . S
C364 C365 1.392 . S
C364 C367 1.511 1_545 S
C365 C361 1.376 . S
C365 C364 1.392 . S
C365 H377 0.929 . S
C366 C362 1.531 . S
C366 H378 0.960 . S
C366 H379 0.962 . S
C366 H380 0.960 . S
C367 C364 1.511 1_565 S
C367 H381 0.961 . S
C367 H382 0.961 . S
C367 H383 0.961 . S
C368 C369 1.370 . S
C368 C370 1.363 . S
C368 H384 0.931 . S
C369 C368 1.370 . S
C369 C373 1.408 . S
C370 C368 1.363 . S
C370 C371 1.370 . S
C370 C374 1.524 . S
C371 C363 1.503 1_565 S
C371 C370 1.370 . S
C371 C372 1.403 . S
C372 C371 1.403 . S
C372 C373 1.404 . S
C372 C375 1.537 1_565 S
C373 C369 1.408 . S
C373 C372 1.404 . S
C373 H385 0.930 . S
C374 C370 1.524 . S
C374 H386 0.956 1_565 S
C374 H387 0.961 . S
C374 H388 0.961 . S
C375 C372 1.537 1_545 S
C375 H389 0.961 . S
C375 H390 0.960 1_545 S
C375 H391 0.960 . S
H376 C360 0.931 . S
H377 C365 0.929 . S
H378 C366 0.960 . S
H379 C366 0.962 . S
H380 C366 0.960 . S
H381 C367 0.961 . S
H382 C367 0.961 . S
H383 C367 0.961 . S
H384 C368 0.931 . S
H385 C373 0.930 . S
H386 C374 0.956 1_545 S
H387 C374 0.961 . S
H388 C374 0.961 . S
H389 C375 0.961 . S
H390 C375 0.960 1_565 S
H391 C375 0.960 . S
C392 C393 1.391 . S
C392 C394 1.394 . S
C392 H408 0.931 . S
C393 C392 1.391 . S
C393 C397 1.376 . S
C394 C392 1.394 . S
C394 C395 1.369 . S
C394 C398 1.531 . S
C395 C394 1.369 . S
C395 C396 1.410 . S
C395 C403 1.503 . S
C396 C395 1.410 . S
C396 C397 1.392 . S
C396 C399 1.511 . S
C397 C393 1.376 . S
C397 C396 1.392 . S
C397 H409 0.929 . S
C398 C394 1.531 . S
C398 H410 0.960 . S
C398 H411 0.962 . S
C398 H412 0.960 . S
C399 C396 1.511 . S
C399 H413 0.961 . S
C399 H414 0.961 . S
C399 H415 0.961 . S
C400 C401 1.370 . S
C400 C402 1.363 . S
C400 H416 0.931 . S
C401 C400 1.370 . S
C401 C405 1.408 . S
C402 C400 1.363 . S
C402 C403 1.370 . S
C402 C406 1.524 . S
C403 C395 1.503 . S
C403 C402 1.370 . S
C403 C404 1.403 . S
C404 C403 1.403 . S
C404 C405 1.404 . S
C404 C407 1.539 . S
C405 C401 1.408 . S
C405 C404 1.404 . S
C405 H417 0.930 . S
C406 C402 1.524 . S
C406 H418 0.956 . S
C406 H419 0.961 . S
C406 H420 0.961 . S
C407 C404 1.539 . S
C407 H421 0.958 . S
C407 H422 0.961 . S
C407 H423 0.960 . S
H408 C392 0.931 . S
H409 C397 0.929 . S
H410 C398 0.960 . S
H411 C398 0.962 . S
H412 C398 0.960 . S
H413 C399 0.961 . S
H414 C399 0.961 . S
H415 C399 0.961 . S
H416 C400 0.931 . S
H417 C405 0.930 . S
H418 C406 0.956 . S
H419 C406 0.961 . S
H420 C406 0.961 . S
H421 C407 0.958 . S
H422 C407 0.961 . S
H423 C407 0.960 . S
C424 C425 1.391 . S
C424 C426 1.394 . S
C424 H440 0.931 . S
C425 C424 1.391 . S
C425 C429 1.376 . S
C426 C424 1.394 . S
C426 C427 1.369 1_455 S
C426 C430 1.531 . S
C427 C426 1.369 1_655 S
C427 C428 1.410 . S
C427 C435 1.503 . S
C428 C427 1.410 . S
C428 C429 1.392 1_655 S
C428 C431 1.511 . S
C429 C425 1.376 . S
C429 C428 1.392 1_455 S
C429 H441 0.929 . S
C430 C426 1.531 . S
C430 H442 0.960 . S
C430 H443 0.962 . S
C430 H444 0.960 . S
C431 C428 1.511 . S
C431 H445 0.961 . S
C431 H446 0.961 . S
C431 H447 0.961 . S
C432 C433 1.370 . S
C432 C434 1.363 . S
C432 H448 0.931 . S
C433 C432 1.370 . S
C433 C437 1.408 . S
C434 C432 1.363 . S
C434 C435 1.370 . S
C434 C438 1.524 1_655 S
C435 C427 1.503 . S
C435 C434 1.370 . S
C435 C436 1.403 . S
C436 C435 1.403 . S
C436 C437 1.404 . S
C436 C439 1.539 . S
C437 C433 1.408 . S
C437 C436 1.404 . S
C437 H449 0.930 . S
C438 C434 1.524 1_455 S
C438 H450 0.956 . S
C438 H451 0.961 . S
C438 H452 0.961 . S
C439 C436 1.539 . S
C439 H453 0.958 . S
C439 H454 0.961 . S
C439 H455 0.960 . S
H440 C424 0.931 . S
H441 C429 0.929 . S
H442 C430 0.960 . S
H443 C430 0.962 . S
H444 C430 0.960 . S
H445 C431 0.961 . S
H446 C431 0.961 . S
H447 C431 0.961 . S
H448 C432 0.931 . S
H449 C437 0.930 . S
H450 C438 0.956 . S
H451 C438 0.961 . S
H452 C438 0.961 . S
H453 C439 0.958 . S
H454 C439 0.961 . S
H455 C439 0.960 . S
C456 C457 1.391 . S
C456 C458 1.394 . S
C456 H472 0.931 . S
C457 C456 1.391 . S
C457 C461 1.376 . S
C458 C456 1.394 . S
C458 C459 1.369 . S
C458 C462 1.531 . S
C459 C458 1.369 . S
C459 C460 1.410 . S
C459 C467 1.503 1_455 S
C460 C459 1.410 . S
C460 C461 1.392 . S
C460 C463 1.511 1_455 S
C461 C457 1.376 . S
C461 C460 1.392 . S
C461 H473 0.929 . S
C462 C458 1.531 . S
C462 H474 0.960 . S
C462 H475 0.962 . S
C462 H476 0.960 . S
C463 C460 1.511 1_655 S
C463 H477 0.961 . S
C463 H478 0.961 . S
C463 H479 0.961 . S
C464 C465 1.370 . S
C464 C466 1.363 . S
C464 H480 0.931 . S
C465 C464 1.370 . S
C465 C469 1.408 . S
C466 C464 1.363 . S
C466 C467 1.370 . S
C466 C470 1.524 1_655 S
C467 C459 1.503 1_655 S
C467 C466 1.370 . S
C467 C468 1.403 . S
C468 C467 1.403 . S
C468 C469 1.404 . S
C468 C471 1.539 . S
C469 C465 1.408 . S
C469 C468 1.404 . S
C469 H481 0.930 . S
C470 C466 1.524 1_455 S
C470 H482 0.956 . S
C470 H483 0.961 . S
C470 H484 0.961 . S
C471 C468 1.539 . S
C471 H485 0.958 . S
C471 H486 0.961 . S
C471 H487 0.960 . S
H472 C456 0.931 . S
H473 C461 0.929 . S
H474 C462 0.960 . S
H475 C462 0.962 . S
H476 C462 0.960 . S
H477 C463 0.961 . S
H478 C463 0.961 . S
H479 C463 0.961 . S
H480 C464 0.931 . S
H481 C469 0.930 . S
H482 C470 0.956 . S
H483 C470 0.961 . S
H484 C470 0.961 . S
H485 C471 0.958 . S
H486 C471 0.961 . S
H487 C471 0.960 . S
C488 C489 1.391 . S
C488 C490 1.394 . S
C488 H504 0.931 . S
C489 C488 1.391 . S
C489 C493 1.376 . S
C490 C488 1.394 . S
C490 C491 1.369 . S
C490 C494 1.531 . S
C491 C490 1.369 . S
C491 C492 1.410 1_565 S
C491 C499 1.503 1_565 S
C492 C491 1.410 1_545 S
C492 C493 1.392 1_545 S
C492 C495 1.511 . S
C493 C489 1.376 . S
C493 C492 1.392 1_565 S
C493 H505 0.929 . S
C494 C490 1.531 . S
C494 H506 0.960 . S
C494 H507 0.962 . S
C494 H508 0.960 . S
C495 C492 1.511 . S
C495 H509 0.961 . S
C495 H510 0.961 . S
C495 H511 0.961 . S
C496 C497 1.370 . S
C496 C498 1.363 . S
C496 H512 0.931 . S
C497 C496 1.370 . S
C497 C501 1.408 . S
C498 C496 1.363 . S
C498 C499 1.370 . S
C498 C502 1.524 . S
C499 C491 1.503 1_545 S
C499 C498 1.370 . S
C499 C500 1.403 . S
C500 C499 1.403 . S
C500 C501 1.404 . S
C500 C503 1.539 . S
C501 C497 1.408 . S
C501 C500 1.404 . S
C501 H513 0.930 . S
C502 C498 1.524 . S
C502 H514 0.956 . S
C502 H515 0.961 . S
C502 H516 0.961 . S
C503 C500 1.539 . S
C503 H517 0.958 1_545 S
C503 H518 0.961 . S
C503 H519 0.960 . S
H504 C488 0.931 . S
H505 C493 0.929 . S
H506 C494 0.960 . S
H507 C494 0.962 . S
H508 C494 0.960 . S
H509 C495 0.961 . S
H510 C495 0.961 . S
H511 C495 0.961 . S
H512 C496 0.931 . S
H513 C501 0.930 . S
H514 C502 0.956 . S
H515 C502 0.961 . S
H516 C502 0.961 . S
H517 C503 0.958 1_565 S
H518 C503 0.961 . S
H519 C503 0.960 . S
C520 C521 1.391 . S
C520 C522 1.394 . S
C520 H536 0.931 . S
C521 C520 1.391 . S
C521 C525 1.376 . S
C522 C520 1.394 . S
C522 C523 1.369 . S
C522 C526 1.531 . S
C523 C522 1.369 . S
C523 C524 1.410 . S
C523 C531 1.503 . S
C524 C523 1.410 . S
C524 C525 1.392 . S
C524 C527 1.511 . S
C525 C521 1.376 . S
C525 C524 1.392 . S
C525 H537 0.929 . S
C526 C522 1.531 . S
C526 H538 0.960 . S
C526 H539 0.962 . S
C526 H540 0.960 . S
C527 C524 1.511 . S
C527 H541 0.961 . S
C527 H542 0.961 . S
C527 H543 0.961 . S
C528 C529 1.370 . S
C528 C530 1.363 . S
C528 H544 0.931 . S
C529 C528 1.370 . S
C529 C533 1.408 . S
C530 C528 1.363 . S
C530 C531 1.370 . S
C530 C534 1.524 . S
C531 C523 1.503 . S
C531 C530 1.370 . S
C531 C532 1.403 . S
C532 C531 1.403 . S
C532 C533 1.404 . S
C532 C535 1.539 . S
C533 C529 1.408 . S
C533 C532 1.404 . S
C533 H545 0.930 . S
C534 C530 1.524 . S
C534 H546 0.956 . S
C534 H547 0.961 . S
C534 H548 0.961 . S
C535 C532 1.539 . S
C535 H549 0.958 . S
C535 H550 0.961 . S
C535 H551 0.960 . S
H536 C520 0.931 . S
H537 C525 0.929 . S
H538 C526 0.960 . S
H539 C526 0.962 . S
H540 C526 0.960 . S
H541 C527 0.961 . S
H542 C527 0.961 . S
H543 C527 0.961 . S
H544 C528 0.931 . S
H545 C533 0.930 . S
H546 C534 0.956 . S
H547 C534 0.961 . S
H548 C534 0.961 . S
H549 C535 0.958 . S
H550 C535 0.961 . S
H551 C535 0.960 . S
C552 C553 1.391 . S
C552 C554 1.394 . S
C552 H568 0.931 . S
C553 C552 1.391 . S
C553 C557 1.376 . S
C554 C552 1.394 . S
C554 C555 1.369 . S
C554 C558 1.531 1_655 S
C555 C554 1.369 . S
C555 C556 1.410 . S
C555 C563 1.503 1_655 S
C556 C555 1.410 . S
C556 C557 1.392 . S
C556 C559 1.511 . S
C557 C553 1.376 . S
C557 C556 1.392 . S
C557 H569 0.929 . S
C558 C554 1.531 1_455 S
C558 H570 0.960 . S
C558 H571 0.962 . S
C558 H572 0.960 . S
C559 C556 1.511 . S
C559 H573 0.961 . S
C559 H574 0.961 . S
C559 H575 0.961 . S
C560 C561 1.370 . S
C560 C562 1.363 1_455 S
C560 H576 0.931 . S
C561 C560 1.370 . S
C561 C565 1.408 . S
C562 C560 1.363 1_655 S
C562 C563 1.370 1_655 S
C562 C566 1.524 . S
C563 C555 1.503 1_455 S
C563 C562 1.370 1_455 S
C563 C564 1.403 . S
C564 C563 1.403 . S
C564 C565 1.404 . S
C564 C567 1.539 . S
C565 C561 1.408 . S
C565 C564 1.404 . S
C565 H577 0.930 . S
C566 C562 1.524 . S
C566 H578 0.956 . S
C566 H579 0.961 . S
C566 H580 0.961 . S
C567 C564 1.539 . S
C567 H581 0.958 . S
C567 H582 0.961 . S
C567 H583 0.960 . S
H568 C552 0.931 . S
H569 C557 0.929 . S
H570 C558 0.960 . S
H571 C558 0.962 . S
H572 C558 0.960 . S
H573 C559 0.961 . S
H574 C559 0.961 . S
H575 C559 0.961 . S
H576 C560 0.931 . S
H577 C565 0.930 . S
H578 C566 0.956 . S
H579 C566 0.961 . S
H580 C566 0.961 . S
H581 C567 0.958 . S
H582 C567 0.961 . S
H583 C567 0.960 . S
C584 C585 1.391 . S
C584 C586 1.394 . S
C584 H600 0.931 . S
C585 C584 1.391 . S
C585 C589 1.376 . S
C586 C584 1.394 . S
C586 C587 1.369 . S
C586 C590 1.531 . S
C587 C586 1.369 . S
C587 C588 1.410 . S
C587 C595 1.503 . S
C588 C587 1.410 . S
C588 C589 1.392 . S
C588 C591 1.511 . S
C589 C585 1.376 . S
C589 C588 1.392 . S
C589 H601 0.929 . S
C590 C586 1.531 . S
C590 H602 0.960 . S
C590 H603 0.959 1_565 S
C590 H604 0.960 . S
C591 C588 1.511 . S
C591 H605 0.961 . S
C591 H606 0.961 . S
C591 H607 0.961 . S
C592 C593 1.370 . S
C592 C594 1.363 . S
C592 H608 0.931 . S
C593 C592 1.370 . S
C593 C597 1.408 . S
C594 C592 1.363 . S
C594 C595 1.370 1_545 S
C594 C598 1.524 . S
C595 C587 1.503 . S
C595 C594 1.370 1_565 S
C595 C596 1.403 . S
C596 C595 1.403 . S
C596 C597 1.404 1_565 S
C596 C599 1.539 . S
C597 C593 1.408 . S
C597 C596 1.404 1_545 S
C597 H609 0.930 . S
C598 C594 1.524 . S
C598 H610 0.956 . S
C598 H611 0.961 . S
C598 H612 0.961 . S
C599 C596 1.539 . S
C599 H613 0.958 . S
C599 H614 0.961 . S
C599 H615 0.960 . S
H600 C584 0.931 . S
H601 C589 0.929 . S
H602 C590 0.960 . S
H603 C590 0.959 1_545 S
H604 C590 0.960 . S
H605 C591 0.961 . S
H606 C591 0.961 . S
H607 C591 0.961 . S
H608 C592 0.931 . S
H609 C597 0.930 . S
H610 C598 0.956 . S
H611 C598 0.961 . S
H612 C598 0.961 . S
H613 C599 0.958 . S
H614 C599 0.961 . S
H615 C599 0.960 . S
C616 C617 1.391 . S
C616 C618 1.394 . S
C616 H632 0.931 . S
C617 C616 1.391 . S
C617 C621 1.376 . S
C618 C616 1.394 . S
C618 C619 1.369 . S
C618 C622 1.531 . S
C619 C618 1.369 . S
C619 C620 1.410 . S
C619 C627 1.503 . S
C620 C619 1.410 . S
C620 C621 1.392 . S
C620 C623 1.511 . S
C621 C617 1.376 . S
C621 C620 1.392 . S
C621 H633 0.929 . S
C622 C618 1.531 . S
C622 H634 0.960 . S
C622 H635 0.962 . S
C622 H636 0.960 . S
C623 C620 1.511 . S
C623 H637 0.961 . S
C623 H638 0.961 . S
C623 H639 0.961 . S
C624 C625 1.370 . S
C624 C626 1.363 . S
C624 H640 0.931 . S
C625 C624 1.370 . S
C625 C629 1.408 . S
C626 C624 1.363 . S
C626 C627 1.370 . S
C626 C630 1.524 . S
C627 C619 1.503 . S
C627 C626 1.370 . S
C627 C628 1.403 . S
C628 C627 1.403 . S
C628 C629 1.404 . S
C628 C631 1.539 . S
C629 C625 1.408 . S
C629 C628 1.404 . S
C629 H641 0.930 . S
C630 C626 1.524 . S
C630 H642 0.956 . S
C630 H643 0.961 . S
C630 H644 0.961 . S
C631 C628 1.539 . S
C631 H645 0.958 . S
C631 H646 0.961 . S
C631 H647 0.960 . S
H632 C616 0.931 . S
H633 C621 0.929 . S
H634 C622 0.960 . S
H635 C622 0.962 . S
H636 C622 0.960 . S
H637 C623 0.961 . S
H638 C623 0.961 . S
H639 C623 0.961 . S
H640 C624 0.931 . S
H641 C629 0.930 . S
H642 C630 0.956 . S
H643 C630 0.961 . S
H644 C630 0.961 . S
H645 C631 0.958 . S
H646 C631 0.961 . S
H647 C631 0.960 . S
C648 C649 1.391 . S
C648 C650 1.394 . S
C648 H664 0.931 . S
C649 C648 1.391 . S
C649 C653 1.376 . S
C650 C648 1.394 . S
C650 C651 1.369 . S
C650 C654 1.531 1_565 S
C651 C650 1.369 . S
C651 C652 1.410 . S
C651 C659 1.503 . S
C652 C651 1.410 . S
C652 C653 1.392 . S
C652 C655 1.511 . S
C653 C649 1.376 . S
C653 C652 1.392 . S
C653 H665 0.929 . S
C654 C650 1.531 1_545 S
C654 H666 0.960 . S
C654 H667 0.962 . S
C654 H668 0.960 . S
C655 C652 1.511 . S
C655 H669 0.961 . S
C655 H670 0.961 . S
C655 H671 0.961 . S
C656 C657 1.370 . S
C656 C658 1.363 1_545 S
C656 H672 0.931 . S
C657 C656 1.370 . S
C657 C661 1.408 . S
C658 C656 1.363 1_565 S
C658 C659 1.370 . S
C658 C662 1.524 . S
C659 C651 1.503 . S
C659 C658 1.370 . S
C659 C660 1.403 1_565 S
C660 C659 1.403 1_545 S
C660 C661 1.404 . S
C660 C663 1.539 . S
C661 C657 1.408 . S
C661 C660 1.404 . S
C661 H673 0.930 . S
C662 C658 1.524 . S
C662 H674 0.956 . S
C662 H675 0.961 . S
C662 H676 0.961 . S
C663 C660 1.539 . S
C663 H677 0.958 . S
C663 H678 0.961 . S
C663 H679 0.960 . S
H664 C648 0.931 . S
H665 C653 0.929 . S
H666 C654 0.960 . S
H667 C654 0.962 . S
H668 C654 0.960 . S
H669 C655 0.961 . S
H670 C655 0.961 . S
H671 C655 0.961 . S
H672 C656 0.931 . S
H673 C661 0.930 . S
H674 C662 0.956 . S
H675 C662 0.961 . S
H676 C662 0.961 . S
H677 C663 0.958 . S
H678 C663 0.961 . S
H679 C663 0.960 . S
C680 C681 1.391 . S
C680 C682 1.394 . S
C680 H696 0.931 . S
C681 C680 1.391 . S
C681 C685 1.376 . S
C682 C680 1.394 . S
C682 C683 1.369 . S
C682 C686 1.531 . S
C683 C682 1.369 . S
C683 C684 1.410 . S
C683 C691 1.503 . S
C684 C683 1.410 . S
C684 C685 1.392 . S
C684 C687 1.511 . S
C685 C681 1.376 . S
C685 C684 1.392 . S
C685 H697 0.929 . S
C686 C682 1.531 . S
C686 H698 0.960 . S
C686 H699 0.962 . S
C686 H700 0.960 . S
C687 C684 1.511 . S
C687 H701 0.961 . S
C687 H702 0.961 . S
C687 H703 0.961 . S
C688 C689 1.370 . S
C688 C690 1.363 . S
C688 H704 0.931 . S
C689 C688 1.370 . S
C689 C693 1.408 . S
C690 C688 1.363 . S
C690 C691 1.370 . S
C690 C694 1.524 . S
C691 C683 1.503 . S
C691 C690 1.370 . S
C691 C692 1.403 . S
C692 C691 1.403 . S
C692 C693 1.404 . S
C692 C695 1.539 . S
C693 C689 1.408 . S
C693 C692 1.404 . S
C693 H705 0.930 . S
C694 C690 1.524 . S
C694 H706 0.956 . S
C694 H707 0.961 . S
C694 H708 0.961 . S
C695 C692 1.539 . S
C695 H709 0.958 . S
C695 H710 0.961 . S
C695 H711 0.960 . S
H696 C680 0.931 . S
H697 C685 0.929 . S
H698 C686 0.960 . S
H699 C686 0.962 . S
H700 C686 0.960 . S
H701 C687 0.961 . S
H702 C687 0.961 . S
H703 C687 0.961 . S
H704 C688 0.931 . S
H705 C693 0.930 . S
H706 C694 0.956 . S
H707 C694 0.961 . S
H708 C694 0.961 . S
H709 C695 0.958 . S
H710 C695 0.961 . S
H711 C695 0.960 . S
C712 C713 1.391 . S
C712 C714 1.394 . S
C712 H728 0.931 . S
C713 C712 1.391 . S
C713 C717 1.376 . S
C714 C712 1.394 . S
C714 C715 1.369 . S
C714 C718 1.531 1_455 S
C715 C714 1.369 . S
C715 C716 1.410 . S
C715 C723 1.503 . S
C716 C715 1.410 . S
C716 C717 1.392 . S
C716 C719 1.511 . S
C717 C713 1.376 . S
C717 C716 1.392 . S
C717 H729 0.929 . S
C718 C714 1.531 1_655 S
C718 H730 0.960 . S
C718 H731 0.962 . S
C718 H732 0.960 . S
C719 C716 1.511 . S
C719 H733 0.961 . S
C719 H734 0.961 . S
C719 H735 0.961 . S
C720 C721 1.370 . S
C720 C722 1.363 . S
C720 H736 0.931 . S
C721 C720 1.370 . S
C721 C725 1.408 . S
C722 C720 1.363 . S
C722 C723 1.370 1_655 S
C722 C726 1.524 . S
C723 C715 1.503 . S
C723 C722 1.370 1_455 S
C723 C724 1.403 . S
C724 C723 1.403 . S
C724 C725 1.404 1_455 S
C724 C727 1.539 . S
C725 C721 1.408 . S
C725 C724 1.404 1_655 S
C725 H737 0.930 . S
C726 C722 1.524 . S
C726 H738 0.956 . S
C726 H739 0.961 1_655 S
C726 H740 0.961 . S
C727 C724 1.539 . S
C727 H741 0.958 . S
C727 H742 0.961 . S
C727 H743 0.960 . S
H728 C712 0.931 . S
H729 C717 0.929 . S
H730 C718 0.960 . S
H731 C718 0.962 . S
H732 C718 0.960 . S
H733 C719 0.961 . S
H734 C719 0.961 . S
H735 C719 0.961 . S
H736 C720 0.931 . S
H737 C725 0.930 . S
H738 C726 0.956 . S
H739 C726 0.961 1_455 S
H740 C726 0.961 . S
H741 C727 0.958 . S
H742 C727 0.961 . S
H743 C727 0.960 . S
C744 C745 1.391 . S
C744 C746 1.394 . S
C744 H760 0.931 . S
C745 C744 1.391 . S
C745 C749 1.376 . S
C746 C744 1.394 . S
C746 C747 1.369 . S
C746 C750 1.531 . S
C747 C746 1.369 . S
C747 C748 1.410 . S
C747 C755 1.503 . S
C748 C747 1.410 . S
C748 C749 1.392 . S
C748 C751 1.511 . S
C749 C745 1.376 . S
C749 C748 1.392 . S
C749 H761 0.929 . S
C750 C746 1.531 . S
C750 H762 0.960 . S
C750 H763 0.962 . S
C750 H764 0.960 . S
C751 C748 1.511 . S
C751 H765 0.961 . S
C751 H766 0.961 . S
C751 H767 0.961 1_545 S
C752 C753 1.370 1_545 S
C752 C754 1.363 . S
C752 H768 0.931 . S
C753 C752 1.370 1_565 S
C753 C757 1.408 . S
C754 C752 1.363 . S
C754 C755 1.370 . S
C754 C758 1.524 . S
C755 C747 1.503 . S
C755 C754 1.370 . S
C755 C756 1.403 1_545 S
C756 C755 1.403 1_565 S
C756 C757 1.404 . S
C756 C759 1.539 . S
C757 C753 1.408 . S
C757 C756 1.404 . S
C757 H769 0.930 . S
C758 C754 1.524 . S
C758 H770 0.956 . S
C758 H771 0.961 . S
C758 H772 0.961 . S
C759 C756 1.539 . S
C759 H773 0.958 . S
C759 H774 0.961 . S
C759 H775 0.960 . S
H760 C744 0.931 . S
H761 C749 0.929 . S
H762 C750 0.960 . S
H763 C750 0.962 . S
H764 C750 0.960 . S
H765 C751 0.961 . S
H766 C751 0.961 . S
H767 C751 0.961 1_565 S
H768 C752 0.931 . S
H769 C757 0.930 . S
H770 C758 0.956 . S
H771 C758 0.961 . S
H772 C758 0.961 . S
H773 C759 0.958 . S
H774 C759 0.961 . S
H775 C759 0.960 . S
C776 C777 1.391 1_554 S
C776 C778 1.394 . S
C776 H792 0.931 . S
C777 C776 1.391 1_556 S
C777 C781 1.376 . S
C778 C776 1.394 . S
C778 C779 1.369 . S
C778 C782 1.531 . S
C779 C778 1.369 . S
C779 C780 1.410 1_554 S
C779 C787 1.503 . S
C780 C779 1.410 1_556 S
C780 C781 1.392 . S
C780 C783 1.511 . S
C781 C777 1.376 . S
C781 C780 1.392 . S
C781 H793 0.929 . S
C782 C778 1.531 . S
C782 H794 0.960 . S
C782 H795 0.962 . S
C782 H796 0.960 . S
C783 C780 1.511 . S
C783 H797 0.961 . S
C783 H798 0.961 . S
C783 H799 0.961 . S
C784 C785 1.370 . S
C784 C786 1.363 . S
C784 H800 0.931 . S
C785 C784 1.370 . S
C785 C789 1.408 . S
C786 C784 1.363 . S
C786 C787 1.370 . S
C786 C790 1.524 . S
C787 C779 1.503 . S
C787 C786 1.370 . S
C787 C788 1.403 . S
C788 C787 1.403 . S
C788 C789 1.404 . S
C788 C791 1.539 1_554 S
C789 C785 1.408 . S
C789 C788 1.404 . S
C789 H801 0.930 . S
C790 C786 1.524 . S
C790 H802 0.956 . S
C790 H803 0.961 . S
C790 H804 0.961 . S
C791 C788 1.539 1_556 S
C791 H805 0.958 1_556 S
C791 H806 0.961 . S
C791 H807 0.960 . S
H792 C776 0.931 . S
H793 C781 0.929 . S
H794 C782 0.960 . S
H795 C782 0.962 . S
H796 C782 0.960 . S
H797 C783 0.961 . S
H798 C783 0.961 . S
H799 C783 0.961 . S
H800 C784 0.931 . S
H801 C789 0.930 . S
H802 C790 0.956 . S
H803 C790 0.961 . S
H804 C790 0.961 . S
H805 C791 0.958 1_554 S
H806 C791 0.961 . S
H807 C791 0.960 . S
C808 C809 1.391 . S
C808 C810 1.394 1_455 S
C808 H824 0.931 . S
C809 C808 1.391 . S
C809 C813 1.376 . S
C810 C808 1.394 1_655 S
C810 C811 1.369 . S
C810 C814 1.531 . S
C811 C810 1.369 . S
C811 C812 1.410 . S
C811 C819 1.503 . S
C812 C811 1.410 . S
C812 C813 1.392 1_655 S
C812 C815 1.511 . S
C813 C809 1.376 . S
C813 C812 1.392 1_455 S
C813 H825 0.929 . S
C814 C810 1.531 . S
C814 H826 0.960 . S
C814 H827 0.962 1_655 S
C814 H828 0.960 . S
C815 C812 1.511 . S
C815 H829 0.961 . S
C815 H830 0.961 . S
C815 H831 0.961 . S
C816 C817 1.370 . S
C816 C818 1.363 . S
C816 H832 0.931 . S
C817 C816 1.370 . S
C817 C821 1.408 . S
C818 C816 1.363 . S
C818 C819 1.370 . S
C818 C822 1.524 1_655 S
C819 C811 1.503 . S
C819 C818 1.370 . S
C819 C820 1.403 . S
C820 C819 1.403 . S
C820 C821 1.404 . S
C820 C823 1.539 . S
C821 C817 1.408 . S
C821 C820 1.404 . S
C821 H833 0.930 . S
C822 C818 1.524 1_455 S
C822 H834 0.956 . S
C822 H835 0.961 . S
C822 H836 0.961 . S
C823 C820 1.539 . S
C823 H837 0.958 . S
C823 H838 0.961 . S
C823 H839 0.960 . S
H824 C808 0.931 . S
H825 C813 0.929 . S
H826 C814 0.960 . S
H827 C814 0.962 1_455 S
H828 C814 0.960 . S
H829 C815 0.961 . S
H830 C815 0.961 . S
H831 C815 0.961 . S
H832 C816 0.931 . S
H833 C821 0.930 . S
H834 C822 0.956 . S
H835 C822 0.961 . S
H836 C822 0.961 . S
H837 C823 0.958 . S
H838 C823 0.961 . S
H839 C823 0.960 . S
C840 C841 1.391 1_455 S
C840 C842 1.394 . S
C840 H856 0.931 . S
C841 C840 1.391 1_655 S
C841 C845 1.376 . S
C842 C840 1.394 . S
C842 C843 1.369 . S
C842 C846 1.531 . S
C843 C842 1.369 . S
C843 C844 1.410 1_455 S
C843 C851 1.503 . S
C844 C843 1.410 1_655 S
C844 C845 1.392 . S
C844 C847 1.511 . S
C845 C841 1.376 . S
C845 C844 1.392 . S
C845 H857 0.929 . S
C846 C842 1.531 . S
C846 H858 0.960 . S
C846 H859 0.962 . S
C846 H860 0.960 . S
C847 C844 1.511 . S
C847 H861 0.961 . S
C847 H862 0.961 . S
C847 H863 0.961 . S
C848 C849 1.370 . S
C848 C850 1.363 . S
C848 H864 0.931 . S
C849 C848 1.370 . S
C849 C853 1.408 . S
C850 C848 1.363 . S
C850 C851 1.370 . S
C850 C854 1.524 1_455 S
C851 C843 1.503 . S
C851 C850 1.370 . S
C851 C852 1.403 . S
C852 C851 1.403 . S
C852 C853 1.404 . S
C852 C855 1.539 . S
C853 C849 1.408 . S
C853 C852 1.404 . S
C853 H865 0.930 . S
C854 C850 1.524 1_655 S
C854 H866 0.956 . S
C854 H867 0.961 . S
C854 H868 0.961 . S
C855 C852 1.539 . S
C855 H869 0.958 . S
C855 H870 0.961 . S
C855 H871 0.960 . S
H856 C840 0.931 . S
H857 C845 0.929 . S
H858 C846 0.960 . S
H859 C846 0.962 . S
H860 C846 0.960 . S
H861 C847 0.961 . S
H862 C847 0.961 . S
H863 C847 0.961 . S
H864 C848 0.931 . S
H865 C853 0.930 . S
H866 C854 0.956 . S
H867 C854 0.961 . S
H868 C854 0.961 . S
H869 C855 0.958 . S
H870 C855 0.961 . S
H871 C855 0.960 . S
C872 C873 1.391 . S
C872 C874 1.394 . S
C872 H888 0.931 . S
C873 C872 1.391 . S
C873 C877 1.376 . S
C874 C872 1.394 . S
C874 C875 1.369 1_565 S
C874 C878 1.531 . S
C875 C874 1.369 1_545 S
C875 C876 1.410 . S
C875 C883 1.503 . S
C876 C875 1.410 . S
C876 C877 1.392 1_545 S
C876 C879 1.511 . S
C877 C873 1.376 . S
C877 C876 1.392 1_565 S
C877 H889 0.929 . S
C878 C874 1.531 . S
C878 H890 0.960 1_565 S
C878 H891 0.962 . S
C878 H892 0.960 . S
C879 C876 1.511 . S
C879 H893 0.961 . S
C879 H894 0.961 . S
C879 H895 0.961 . S
C880 C881 1.370 . S
C880 C882 1.363 . S
C880 H896 0.931 . S
C881 C880 1.370 . S
C881 C885 1.408 . S
C882 C880 1.363 . S
C882 C883 1.370 . S
C882 C886 1.524 1_545 S
C883 C875 1.503 . S
C883 C882 1.370 . S
C883 C884 1.403 . S
C884 C883 1.403 . S
C884 C885 1.404 . S
C884 C887 1.539 . S
C885 C881 1.408 . S
C885 C884 1.404 . S
C885 H897 0.930 . S
C886 C882 1.524 1_565 S
C886 H898 0.956 . S
C886 H899 0.961 . S
C886 H900 0.961 . S
C887 C884 1.539 . S
C887 H901 0.958 . S
C887 H902 0.961 . S
C887 H903 0.960 . S
H888 C872 0.931 . S
H889 C877 0.929 . S
H890 C878 0.960 1_545 S
H891 C878 0.962 . S
H892 C878 0.960 . S
H893 C879 0.961 . S
H894 C879 0.961 . S
H895 C879 0.961 . S
H896 C880 0.931 . S
H897 C885 0.930 . S
H898 C886 0.956 . S
H899 C886 0.961 . S
H900 C886 0.961 . S
H901 C887 0.958 . S
H902 C887 0.961 . S
H903 C887 0.960 . S
C904 C905 1.391 . S
C904 C906 1.394 . S
C904 H920 0.931 . S
C905 C904 1.391 . S
C905 C909 1.376 . S
C906 C904 1.394 . S
C906 C907 1.369 . S
C906 C910 1.531 . S
C907 C906 1.369 . S
C907 C908 1.410 . S
C907 C915 1.503 . S
C908 C907 1.410 . S
C908 C909 1.392 . S
C908 C911 1.511 . S
C909 C905 1.376 . S
C909 C908 1.392 . S
C909 H921 0.929 . S
C910 C906 1.531 . S
C910 H922 0.960 . S
C910 H923 0.962 . S
C910 H924 0.960 . S
C911 C908 1.511 . S
C911 H925 0.961 . S
C911 H926 0.961 . S
C911 H927 0.961 . S
C912 C913 1.370 . S
C912 C914 1.363 . S
C912 H928 0.931 . S
C913 C912 1.370 . S
C913 C917 1.408 . S
C914 C912 1.363 . S
C914 C915 1.370 . S
C914 C918 1.524 . S
C915 C907 1.503 . S
C915 C914 1.370 . S
C915 C916 1.403 . S
C916 C915 1.403 . S
C916 C917 1.404 . S
C916 C919 1.539 . S
C917 C913 1.408 . S
C917 C916 1.404 . S
C917 H929 0.930 . S
C918 C914 1.524 . S
C918 H930 0.956 . S
C918 H931 0.961 . S
C918 H932 0.961 . S
C919 C916 1.539 . S
C919 H933 0.958 . S
C919 H934 0.961 . S
C919 H935 0.960 . S
H920 C904 0.931 . S
H921 C909 0.929 . S
H922 C910 0.960 . S
H923 C910 0.962 . S
H924 C910 0.960 . S
H925 C911 0.961 . S
H926 C911 0.961 . S
H927 C911 0.961 . S
H928 C912 0.931 . S
H929 C917 0.930 . S
H930 C918 0.956 . S
H931 C918 0.961 . S
H932 C918 0.961 . S
H933 C919 0.958 . S
H934 C919 0.961 . S
H935 C919 0.960 . S
C936 C937 1.391 1_556 S
C936 C938 1.394 . S
C936 H952 0.931 . S
C937 C936 1.391 1_554 S
C937 C941 1.376 . S
C938 C936 1.394 . S
C938 C939 1.369 . S
C938 C942 1.531 . S
C939 C938 1.369 . S
C939 C940 1.410 1_556 S
C939 C947 1.503 . S
C940 C939 1.410 1_554 S
C940 C941 1.392 . S
C940 C943 1.511 . S
C941 C937 1.376 . S
C941 C940 1.392 . S
C941 H953 0.929 . S
C942 C938 1.531 . S
C942 H954 0.960 . S
C942 H955 0.962 . S
C942 H956 0.960 . S
C943 C940 1.511 . S
C943 H957 0.961 . S
C943 H958 0.961 . S
C943 H959 0.961 1_655 S
C944 C945 1.370 1_655 S
C944 C946 1.363 . S
C944 H960 0.931 . S
C945 C944 1.370 1_455 S
C945 C949 1.408 . S
C946 C944 1.363 . S
C946 C947 1.370 . S
C946 C950 1.524 . S
C947 C939 1.503 . S
C947 C946 1.370 . S
C947 C948 1.403 1_655 S
C948 C947 1.403 1_455 S
C948 C949 1.404 . S
C948 C951 1.539 . S
C949 C945 1.408 . S
C949 C948 1.404 . S
C949 H961 0.930 . S
C950 C946 1.524 . S
C950 H962 0.956 . S
C950 H963 0.961 . S
C950 H964 0.961 . S
C951 C948 1.539 . S
C951 H965 0.958 . S
C951 H966 0.961 . S
C951 H967 0.960 . S
H952 C936 0.931 . S
H953 C941 0.929 . S
H954 C942 0.960 . S
H955 C942 0.962 . S
H956 C942 0.960 . S
H957 C943 0.961 . S
H958 C943 0.961 . S
H959 C943 0.961 1_455 S
H960 C944 0.931 . S
H961 C949 0.930 . S
H962 C950 0.956 . S
H963 C950 0.961 . S
H964 C950 0.961 . S
H965 C951 0.958 . S
H966 C951 0.961 . S
H967 C951 0.960 . S
C968 C969 1.391 . S
C968 C970 1.394 1_545 S
C968 H984 0.931 . S
C969 C968 1.391 . S
C969 C973 1.376 . S
C970 C968 1.394 1_565 S
C970 C971 1.369 . S
C970 C974 1.531 . S
C971 C970 1.369 . S
C971 C972 1.410 . S
C971 C979 1.503 . S
C972 C971 1.410 . S
C972 C973 1.392 1_565 S
C972 C975 1.511 . S
C973 C969 1.376 . S
C973 C972 1.392 1_545 S
C973 H985 0.929 . S
C974 C970 1.531 . S
C974 H986 0.960 . S
C974 H987 0.962 1_565 S
C974 H988 0.960 . S
C975 C972 1.511 . S
C975 H989 0.961 . S
C975 H990 0.961 . S
C975 H991 0.961 . S
C976 C977 1.370 . S
C976 C978 1.363 . S
C976 H992 0.931 . S
C977 C976 1.370 . S
C977 C981 1.408 . S
C978 C976 1.363 . S
C978 C979 1.370 . S
C978 C982 1.524 1_565 S
C979 C971 1.503 . S
C979 C978 1.370 . S
C979 C980 1.403 . S
C980 C979 1.403 . S
C980 C981 1.404 . S
C980 C983 1.539 . S
C981 C977 1.408 . S
C981 C980 1.404 . S
C981 H993 0.930 . S
C982 C978 1.524 1_545 S
C982 H994 0.956 . S
C982 H995 0.961 . S
C982 H996 0.961 . S
C983 C980 1.539 . S
C983 H997 0.958 . S
C983 H998 0.961 . S
C983 H999 0.960 . S
H984 C968 0.931 . S
H985 C973 0.929 . S
H986 C974 0.960 . S
H987 C974 0.962 1_545 S
H988 C974 0.960 . S
H989 C975 0.961 . S
H990 C975 0.961 . S
H991 C975 0.961 . S
H992 C976 0.931 . S
H993 C981 0.930 . S
H994 C982 0.956 . S
H995 C982 0.961 . S
H996 C982 0.961 . S
H997 C983 0.958 . S
H998 C983 0.961 . S
H999 C983 0.960 . S
C1000 C1001 1.391 . S
C1000 C1002 1.394 . S
C1000 H1016 0.931 . S
C1001 C1000 1.391 . S
C1001 C1005 1.376 . S
C1002 C1000 1.394 . S
C1002 C1003 1.369 . S
C1002 C1006 1.531 . S
C1003 C1002 1.369 . S
C1003 C1004 1.410 . S
C1003 C1011 1.503 . S
C1004 C1003 1.410 . S
C1004 C1005 1.392 . S
C1004 C1007 1.511 . S
C1005 C1001 1.376 . S
C1005 C1004 1.392 . S
C1005 H1017 0.929 . S
C1006 C1002 1.531 . S
C1006 H1018 0.960 . S
C1006 H1019 0.962 . S
C1006 H1020 0.960 . S
C1007 C1004 1.511 . S
C1007 H1021 0.961 . S
C1007 H1022 0.961 . S
C1007 H1023 0.961 . S
C1008 C1009 1.370 . S
C1008 C1010 1.363 . S
C1008 H1024 0.931 . S
C1009 C1008 1.370 . S
C1009 C1013 1.408 . S
C1010 C1008 1.363 . S
C1010 C1011 1.370 . S
C1010 C1014 1.524 . S
C1011 C1003 1.503 . S
C1011 C1010 1.370 . S
C1011 C1012 1.403 . S
C1012 C1011 1.403 . S
C1012 C1013 1.404 . S
C1012 C1015 1.539 . S
C1013 C1009 1.408 . S
C1013 C1012 1.404 . S
C1013 H1025 0.930 . S
C1014 C1010 1.524 . S
C1014 H1026 0.956 . S
C1014 H1027 0.961 . S
C1014 H1028 0.961 . S
C1015 C1012 1.539 . S
C1015 H1029 0.958 . S
C1015 H1030 0.961 . S
C1015 H1031 0.960 . S
H1016 C1000 0.931 . S
H1017 C1005 0.929 . S
H1018 C1006 0.960 . S
H1019 C1006 0.962 . S
H1020 C1006 0.960 . S
H1021 C1007 0.961 . S
H1022 C1007 0.961 . S
H1023 C1007 0.961 . S
H1024 C1008 0.931 . S
H1025 C1013 0.930 . S
H1026 C1014 0.956 . S
H1027 C1014 0.961 . S
H1028 C1014 0.961 . S
H1029 C1015 0.958 . S
H1030 C1015 0.961 . S
H1031 C1015 0.960 . S
C1032 C1033 1.391 . S
C1032 C1034 1.394 . S
C1032 H1048 0.931 . S
C1033 C1032 1.391 . S
C1033 C1037 1.376 . S
C1034 C1032 1.394 . S
C1034 C1035 1.369 . S
C1034 C1038 1.531 . S
C1035 C1034 1.369 . S
C1035 C1036 1.410 . S
C1035 C1043 1.503 . S
C1036 C1035 1.410 . S
C1036 C1037 1.392 . S
C1036 C1039 1.511 . S
C1037 C1033 1.376 . S
C1037 C1036 1.392 . S
C1037 H1049 0.929 . S
C1038 C1034 1.531 . S
C1038 H1050 0.960 . S
C1038 H1051 0.962 . S
C1038 H1052 0.960 . S
C1039 C1036 1.511 . S
C1039 H1053 0.961 . S
C1039 H1054 0.961 . S
C1039 H1055 0.961 . S
C1040 C1041 1.370 . S
C1040 C1042 1.363 . S
C1040 H1056 0.931 . S
C1041 C1040 1.370 . S
C1041 C1045 1.408 . S
C1042 C1040 1.363 . S
C1042 C1043 1.370 . S
C1042 C1046 1.524 . S
C1043 C1035 1.503 . S
C1043 C1042 1.370 . S
C1043 C1044 1.403 . S
C1044 C1043 1.403 . S
C1044 C1045 1.404 . S
C1044 C1047 1.539 . S
C1045 C1041 1.408 . S
C1045 C1044 1.404 . S
C1045 H1057 0.930 . S
C1046 C1042 1.524 . S
C1046 H1058 0.956 . S
C1046 H1059 0.961 . S
C1046 H1060 0.961 . S
C1047 C1044 1.539 . S
C1047 H1061 0.958 . S
C1047 H1062 0.961 . S
C1047 H1063 0.960 . S
H1048 C1032 0.931 . S
H1049 C1037 0.929 . S
H1050 C1038 0.960 . S
H1051 C1038 0.962 . S
H1052 C1038 0.960 . S
H1053 C1039 0.961 . S
H1054 C1039 0.961 . S
H1055 C1039 0.961 . S
H1056 C1040 0.931 . S
H1057 C1045 0.930 . S
H1058 C1046 0.956 . S
H1059 C1046 0.961 . S
H1060 C1046 0.961 . S
H1061 C1047 0.958 . S
H1062 C1047 0.961 . S
H1063 C1047 0.960 . S
C1064 C1065 1.391 . S
C1064 C1066 1.394 . S
C1064 H1080 0.931 . S
C1065 C1064 1.391 . S
C1065 C1069 1.376 . S
C1066 C1064 1.394 . S
C1066 C1067 1.369 . S
C1066 C1070 1.531 . S
C1067 C1066 1.369 . S
C1067 C1068 1.410 . S
C1067 C1075 1.503 . S
C1068 C1067 1.410 . S
C1068 C1069 1.392 . S
C1068 C1071 1.511 . S
C1069 C1065 1.376 . S
C1069 C1068 1.392 . S
C1069 H1081 0.929 . S
C1070 C1066 1.531 . S
C1070 H1082 0.960 . S
C1070 H1083 0.962 . S
C1070 H1084 0.960 . S
C1071 C1068 1.511 . S
C1071 H1085 0.961 . S
C1071 H1086 0.961 . S
C1071 H1087 0.961 . S
C1072 C1073 1.370 . S
C1072 C1074 1.363 . S
C1072 H1088 0.931 . S
C1073 C1072 1.370 . S
C1073 C1077 1.408 1_545 S
C1074 C1072 1.363 . S
C1074 C1075 1.370 . S
C1074 C1078 1.524 . S
C1075 C1067 1.503 . S
C1075 C1074 1.370 . S
C1075 C1076 1.403 . S
C1076 C1075 1.403 . S
C1076 C1077 1.404 1_545 S
C1076 C1079 1.539 . S
C1077 C1073 1.408 1_565 S
C1077 C1076 1.404 1_565 S
C1077 H1089 0.930 . S
C1078 C1074 1.524 . S
C1078 H1090 0.956 . S
C1078 H1091 0.961 . S
C1078 H1092 0.961 . S
C1079 C1076 1.539 . S
C1079 H1093 0.958 . S
C1079 H1094 0.961 . S
C1079 H1095 0.960 . S
H1080 C1064 0.931 . S
H1081 C1069 0.929 . S
H1082 C1070 0.960 . S
H1083 C1070 0.962 . S
H1084 C1070 0.960 . S
H1085 C1071 0.961 . S
H1086 C1071 0.961 . S
H1087 C1071 0.961 . S
H1088 C1072 0.931 . S
H1089 C1077 0.930 . S
H1090 C1078 0.956 . S
H1091 C1078 0.961 . S
H1092 C1078 0.961 . S
H1093 C1079 0.958 . S
H1094 C1079 0.961 . S
H1095 C1079 0.960 . S
C1096 C1097 1.391 . S
C1096 C1098 1.394 . S
C1096 H1112 0.931 . S
C1097 C1096 1.391 . S
C1097 C1101 1.376 . S
C1098 C1096 1.394 . S
C1098 C1099 1.369 . S
C1098 C1102 1.531 . S
C1099 C1098 1.369 . S
C1099 C1100 1.410 . S
C1099 C1107 1.503 . S
C1100 C1099 1.410 . S
C1100 C1101 1.392 . S
C1100 C1103 1.511 . S
C1101 C1097 1.376 . S
C1101 C1100 1.392 . S
C1101 H1113 0.929 . S
C1102 C1098 1.531 . S
C1102 H1114 0.960 . S
C1102 H1115 0.962 . S
C1102 H1116 0.960 . S
C1103 C1100 1.511 . S
C1103 H1117 0.961 . S
C1103 H1118 0.961 . S
C1103 H1119 0.961 . S
C1104 C1105 1.370 . S
C1104 C1106 1.363 . S
C1104 H1120 0.931 . S
C1105 C1104 1.370 . S
C1105 C1109 1.408 . S
C1106 C1104 1.363 . S
C1106 C1107 1.370 . S
C1106 C1110 1.524 . S
C1107 C1099 1.503 . S
C1107 C1106 1.370 . S
C1107 C1108 1.403 . S
C1108 C1107 1.403 . S
C1108 C1109 1.404 . S
C1108 C1111 1.539 . S
C1109 C1105 1.408 . S
C1109 C1108 1.404 . S
C1109 H1121 0.930 1_455 S
C1110 C1106 1.524 . S
C1110 H1122 0.956 . S
C1110 H1123 0.961 . S
C1110 H1124 0.961 . S
C1111 C1108 1.539 . S
C1111 H1125 0.958 . S
C1111 H1126 0.961 . S
C1111 H1127 0.960 . S
H1112 C1096 0.931 . S
H1113 C1101 0.929 . S
H1114 C1102 0.960 . S
H1115 C1102 0.962 . S
H1116 C1102 0.960 . S
H1117 C1103 0.961 . S
H1118 C1103 0.961 . S
H1119 C1103 0.961 . S
H1120 C1104 0.931 . S
H1121 C1109 0.930 1_655 S
H1122 C1110 0.956 . S
H1123 C1110 0.961 . S
H1124 C1110 0.961 . S
H1125 C1111 0.958 . S
H1126 C1111 0.961 . S
H1127 C1111 0.960 . S
C1128 C1129 1.391 . S
C1128 C1130 1.394 . S
C1128 H1144 0.931 . S
C1129 C1128 1.391 . S
C1129 C1133 1.376 . S
C1130 C1128 1.394 . S
C1130 C1131 1.369 . S
C1130 C1134 1.531 . S
C1131 C1130 1.369 . S
C1131 C1132 1.410 . S
C1131 C1139 1.503 . S
C1132 C1131 1.410 . S
C1132 C1133 1.392 . S
C1132 C1135 1.511 . S
C1133 C1129 1.376 . S
C1133 C1132 1.392 . S
C1133 H1145 0.929 . S
C1134 C1130 1.531 . S
C1134 H1146 0.960 . S
C1134 H1147 0.962 . S
C1134 H1148 0.960 . S
C1135 C1132 1.511 . S
C1135 H1149 0.961 . S
C1135 H1150 0.961 . S
C1135 H1151 0.961 . S
C1136 C1137 1.370 . S
C1136 C1138 1.363 . S
C1136 H1152 0.931 . S
C1137 C1136 1.370 . S
C1137 C1141 1.408 . S
C1138 C1136 1.363 . S
C1138 C1139 1.370 . S
C1138 C1142 1.524 . S
C1139 C1131 1.503 . S
C1139 C1138 1.370 . S
C1139 C1140 1.403 . S
C1140 C1139 1.403 . S
C1140 C1141 1.404 . S
C1140 C1143 1.539 . S
C1141 C1137 1.408 . S
C1141 C1140 1.404 . S
C1141 H1153 0.930 . S
C1142 C1138 1.524 . S
C1142 H1154 0.956 . S
C1142 H1155 0.961 . S
C1142 H1156 0.961 . S
C1143 C1140 1.539 . S
C1143 H1157 0.958 . S
C1143 H1158 0.961 . S
C1143 H1159 0.960 . S
H1144 C1128 0.931 . S
H1145 C1133 0.929 . S
H1146 C1134 0.960 . S
H1147 C1134 0.962 . S
H1148 C1134 0.960 . S
H1149 C1135 0.961 . S
H1150 C1135 0.961 . S
H1151 C1135 0.961 . S
H1152 C1136 0.931 . S
H1153 C1141 0.930 . S
H1154 C1142 0.956 . S
H1155 C1142 0.961 . S
H1156 C1142 0.961 . S
H1157 C1143 0.958 . S
H1158 C1143 0.961 . S
H1159 C1143 0.960 . S
C1160 C1161 1.391 . S
C1160 C1162 1.394 . S
C1160 H1176 0.931 . S
C1161 C1160 1.391 . S
C1161 C1165 1.376 . S
C1162 C1160 1.394 . S
C1162 C1163 1.369 . S
C1162 C1166 1.531 . S
C1163 C1162 1.369 . S
C1163 C1164 1.410 . S
C1163 C1171 1.503 . S
C1164 C1163 1.410 . S
C1164 C1165 1.392 . S
C1164 C1167 1.511 . S
C1165 C1161 1.376 . S
C1165 C1164 1.392 . S
C1165 H1177 0.929 1_565 S
C1166 C1162 1.531 . S
C1166 H1178 0.960 . S
C1166 H1179 0.962 . S
C1166 H1180 0.960 . S
C1167 C1164 1.511 . S
C1167 H1181 0.961 . S
C1167 H1182 0.961 . S
C1167 H1183 0.961 . S
C1168 C1169 1.370 . S
C1168 C1170 1.363 . S
C1168 H1184 0.931 . S
C1169 C1168 1.370 . S
C1169 C1173 1.408 . S
C1170 C1168 1.363 . S
C1170 C1171 1.370 . S
C1170 C1174 1.524 . S
C1171 C1163 1.503 . S
C1171 C1170 1.370 . S
C1171 C1172 1.403 . S
C1172 C1171 1.403 . S
C1172 C1173 1.404 . S
C1172 C1175 1.539 . S
C1173 C1169 1.408 . S
C1173 C1172 1.404 . S
C1173 H1185 0.930 . S
C1174 C1170 1.524 . S
C1174 H1186 0.956 . S
C1174 H1187 0.961 . S
C1174 H1188 0.961 . S
C1175 C1172 1.539 . S
C1175 H1189 0.958 . S
C1175 H1190 0.961 . S
C1175 H1191 0.960 . S
H1176 C1160 0.931 . S
H1177 C1165 0.929 1_545 S
H1178 C1166 0.960 . S
H1179 C1166 0.962 . S
H1180 C1166 0.960 . S
H1181 C1167 0.961 . S
H1182 C1167 0.961 . S
H1183 C1167 0.961 . S
H1184 C1168 0.931 . S
H1185 C1173 0.930 . S
H1186 C1174 0.956 . S
H1187 C1174 0.961 . S
H1188 C1174 0.961 . S
H1189 C1175 0.958 . S
H1190 C1175 0.961 . S
H1191 C1175 0.960 . S
C1192 C1193 1.391 . S
C1192 C1194 1.394 . S
C1192 H1208 0.931 . S
C1193 C1192 1.391 . S
C1193 C1197 1.376 . S
C1194 C1192 1.394 . S
C1194 C1195 1.369 . S
C1194 C1198 1.531 . S
C1195 C1194 1.369 . S
C1195 C1196 1.410 . S
C1195 C1203 1.503 . S
C1196 C1195 1.410 . S
C1196 C1197 1.392 . S
C1196 C1199 1.511 . S
C1197 C1193 1.376 . S
C1197 C1196 1.392 . S
C1197 H1209 0.929 . S
C1198 C1194 1.531 . S
C1198 H1210 0.960 . S
C1198 H1211 0.962 . S
C1198 H1212 0.960 . S
C1199 C1196 1.511 . S
C1199 H1213 0.961 . S
C1199 H1214 0.961 . S
C1199 H1215 0.961 . S
C1200 C1201 1.370 . S
C1200 C1202 1.363 . S
C1200 H1216 0.931 . S
C1201 C1200 1.370 . S
C1201 C1205 1.408 1_655 S
C1202 C1200 1.363 . S
C1202 C1203 1.370 . S
C1202 C1206 1.524 . S
C1203 C1195 1.503 . S
C1203 C1202 1.370 . S
C1203 C1204 1.403 . S
C1204 C1203 1.403 . S
C1204 C1205 1.404 1_655 S
C1204 C1207 1.539 . S
C1205 C1201 1.408 1_455 S
C1205 C1204 1.404 1_455 S
C1205 H1217 0.930 . S
C1206 C1202 1.524 . S
C1206 H1218 0.956 . S
C1206 H1219 0.961 . S
C1206 H1220 0.961 . S
C1207 C1204 1.539 . S
C1207 H1221 0.958 . S
C1207 H1222 0.961 1_655 S
C1207 H1223 0.960 . S
H1208 C1192 0.931 . S
H1209 C1197 0.929 . S
H1210 C1198 0.960 . S
H1211 C1198 0.962 . S
H1212 C1198 0.960 . S
H1213 C1199 0.961 . S
H1214 C1199 0.961 . S
H1215 C1199 0.961 . S
H1216 C1200 0.931 . S
H1217 C1205 0.930 . S
H1218 C1206 0.956 . S
H1219 C1206 0.961 . S
H1220 C1206 0.961 . S
H1221 C1207 0.958 . S
H1222 C1207 0.961 1_455 S
H1223 C1207 0.960 . S
C1224 C1225 1.391 . S
C1224 C1226 1.394 . S
C1224 H1240 0.931 . S
C1225 C1224 1.391 . S
C1225 C1229 1.376 . S
C1226 C1224 1.394 . S
C1226 C1227 1.369 . S
C1226 C1230 1.531 . S
C1227 C1226 1.369 . S
C1227 C1228 1.410 . S
C1227 C1235 1.503 . S
C1228 C1227 1.410 . S
C1228 C1229 1.392 . S
C1228 C1231 1.511 . S
C1229 C1225 1.376 . S
C1229 C1228 1.392 . S
C1229 H1241 0.929 . S
C1230 C1226 1.531 . S
C1230 H1242 0.960 . S
C1230 H1243 0.962 . S
C1230 H1244 0.960 . S
C1231 C1228 1.511 . S
C1231 H1245 0.961 . S
C1231 H1246 0.961 . S
C1231 H1247 0.961 . S
C1232 C1233 1.370 . S
C1232 C1234 1.363 . S
C1232 H1248 0.931 . S
C1233 C1232 1.370 . S
C1233 C1237 1.408 . S
C1234 C1232 1.363 . S
C1234 C1235 1.370 . S
C1234 C1238 1.524 . S
C1235 C1227 1.503 . S
C1235 C1234 1.370 . S
C1235 C1236 1.403 . S
C1236 C1235 1.403 . S
C1236 C1237 1.404 . S
C1236 C1239 1.539 . S
C1237 C1233 1.408 . S
C1237 C1236 1.404 . S
C1237 H1249 0.930 . S
C1238 C1234 1.524 . S
C1238 H1250 0.956 . S
C1238 H1251 0.961 . S
C1238 H1252 0.961 . S
C1239 C1236 1.539 . S
C1239 H1253 0.958 . S
C1239 H1254 0.961 . S
C1239 H1255 0.960 . S
H1240 C1224 0.931 . S
H1241 C1229 0.929 . S
H1242 C1230 0.960 . S
H1243 C1230 0.962 . S
H1244 C1230 0.960 . S
H1245 C1231 0.961 . S
H1246 C1231 0.961 . S
H1247 C1231 0.961 . S
H1248 C1232 0.931 . S
H1249 C1237 0.930 . S
H1250 C1238 0.956 . S
H1251 C1238 0.961 . S
H1252 C1238 0.961 . S
H1253 C1239 0.958 . S
H1254 C1239 0.961 . S
H1255 C1239 0.960 . S
C1256 C1257 1.391 . S
C1256 C1258 1.394 . S
C1256 H1272 0.931 . S
C1257 C1256 1.391 . S
C1257 C1261 1.376 . S
C1258 C1256 1.394 . S
C1258 C1259 1.369 . S
C1258 C1262 1.531 . S
C1259 C1258 1.369 . S
C1259 C1260 1.410 . S
C1259 C1267 1.503 . S
C1260 C1259 1.410 . S
C1260 C1261 1.392 . S
C1260 C1263 1.511 . S
C1261 C1257 1.376 . S
C1261 C1260 1.392 . S
C1261 H1273 0.929 . S
C1262 C1258 1.531 . S
C1262 H1274 0.960 . S
C1262 H1275 0.962 . S
C1262 H1276 0.960 . S
C1263 C1260 1.511 . S
C1263 H1277 0.961 . S
C1263 H1278 0.961 . S
C1263 H1279 0.961 . S
C1264 C1265 1.370 . S
C1264 C1266 1.363 . S
C1264 H1280 0.931 . S
C1265 C1264 1.370 . S
C1265 C1269 1.408 . S
C1266 C1264 1.363 . S
C1266 C1267 1.370 . S
C1266 C1270 1.524 . S
C1267 C1259 1.503 . S
C1267 C1266 1.370 . S
C1267 C1268 1.403 . S
C1268 C1267 1.403 . S
C1268 C1269 1.404 . S
C1268 C1271 1.539 . S
C1269 C1265 1.408 . S
C1269 C1268 1.404 . S
C1269 H1281 0.930 . S
C1270 C1266 1.524 . S
C1270 H1282 0.956 . S
C1270 H1283 0.961 . S
C1270 H1284 0.961 . S
C1271 C1268 1.539 . S
C1271 H1285 0.958 . S
C1271 H1286 0.961 . S
C1271 H1287 0.960 . S
H1272 C1256 0.931 . S
H1273 C1261 0.929 . S
H1274 C1262 0.960 . S
H1275 C1262 0.962 . S
H1276 C1262 0.960 . S
H1277 C1263 0.961 . S
H1278 C1263 0.961 . S
H1279 C1263 0.961 . S
H1280 C1264 0.931 . S
H1281 C1269 0.930 . S
H1282 C1270 0.956 . S
H1283 C1270 0.961 . S
H1284 C1270 0.961 . S
H1285 C1271 0.958 . S
H1286 C1271 0.961 . S
H1287 C1271 0.960 . S
C1288 C1289 1.391 . S
C1288 C1290 1.394 . S
C1288 H1304 0.931 . S
C1289 C1288 1.391 . S
C1289 C1293 1.376 . S
C1290 C1288 1.394 . S
C1290 C1291 1.369 . S
C1290 C1294 1.531 . S
C1291 C1290 1.369 . S
C1291 C1292 1.410 . S
C1291 C1299 1.503 . S
C1292 C1291 1.410 . S
C1292 C1293 1.392 . S
C1292 C1295 1.511 . S
C1293 C1289 1.376 . S
C1293 C1292 1.392 . S
C1293 H1305 0.929 . S
C1294 C1290 1.531 . S
C1294 H1306 0.960 . S
C1294 H1307 0.962 . S
C1294 H1308 0.960 . S
C1295 C1292 1.511 . S
C1295 H1309 0.961 . S
C1295 H1310 0.961 . S
C1295 H1311 0.961 . S
C1296 C1297 1.370 . S
C1296 C1298 1.363 . S
C1296 H1312 0.931 . S
C1297 C1296 1.370 . S
C1297 C1301 1.408 . S
C1298 C1296 1.363 . S
C1298 C1299 1.370 . S
C1298 C1302 1.524 . S
C1299 C1291 1.503 . S
C1299 C1298 1.370 . S
C1299 C1300 1.403 . S
C1300 C1299 1.403 . S
C1300 C1301 1.404 . S
C1300 C1303 1.539 . S
C1301 C1297 1.408 . S
C1301 C1300 1.404 . S
C1301 H1313 0.930 . S
C1302 C1298 1.524 . S
C1302 H1314 0.956 . S
C1302 H1315 0.961 . S
C1302 H1316 0.961 . S
C1303 C1300 1.539 . S
C1303 H1317 0.958 . S
C1303 H1318 0.961 . S
C1303 H1319 0.960 . S
H1304 C1288 0.931 . S
H1305 C1293 0.929 . S
H1306 C1294 0.960 . S
H1307 C1294 0.962 . S
H1308 C1294 0.960 . S
H1309 C1295 0.961 . S
H1310 C1295 0.961 . S
H1311 C1295 0.961 . S
H1312 C1296 0.931 . S
H1313 C1301 0.930 . S
H1314 C1302 0.956 . S
H1315 C1302 0.961 . S
H1316 C1302 0.961 . S
H1317 C1303 0.958 . S
H1318 C1303 0.961 . S
H1319 C1303 0.960 . S
C1320 C1321 1.391 . S
C1320 C1322 1.394 . S
C1320 H1336 0.931 . S
C1321 C1320 1.391 . S
C1321 C1325 1.376 . S
C1322 C1320 1.394 . S
C1322 C1323 1.369 . S
C1322 C1326 1.531 . S
C1323 C1322 1.369 . S
C1323 C1324 1.410 . S
C1323 C1331 1.503 . S
C1324 C1323 1.410 . S
C1324 C1325 1.392 . S
C1324 C1327 1.511 . S
C1325 C1321 1.376 . S
C1325 C1324 1.392 . S
C1325 H1337 0.929 . S
C1326 C1322 1.531 . S
C1326 H1338 0.960 . S
C1326 H1339 0.962 . S
C1326 H1340 0.960 . S
C1327 C1324 1.511 . S
C1327 H1341 0.961 . S
C1327 H1342 0.961 . S
C1327 H1343 0.961 . S
C1328 C1329 1.370 . S
C1328 C1330 1.363 . S
C1328 H1344 0.931 . S
C1329 C1328 1.370 . S
C1329 C1333 1.408 . S
C1330 C1328 1.363 . S
C1330 C1331 1.370 . S
C1330 C1334 1.524 . S
C1331 C1323 1.503 . S
C1331 C1330 1.370 . S
C1331 C1332 1.403 . S
C1332 C1331 1.403 . S
C1332 C1333 1.404 . S
C1332 C1335 1.539 . S
C1333 C1329 1.408 . S
C1333 C1332 1.404 . S
C1333 H1345 0.930 . S
C1334 C1330 1.524 . S
C1334 H1346 0.956 . S
C1334 H1347 0.961 . S
C1334 H1348 0.961 . S
C1335 C1332 1.539 . S
C1335 H1349 0.958 . S
C1335 H1350 0.961 . S
C1335 H1351 0.960 . S
H1336 C1320 0.931 . S
H1337 C1325 0.929 . S
H1338 C1326 0.960 . S
H1339 C1326 0.962 . S
H1340 C1326 0.960 . S
H1341 C1327 0.961 . S
H1342 C1327 0.961 . S
H1343 C1327 0.961 . S
H1344 C1328 0.931 . S
H1345 C1333 0.930 . S
H1346 C1334 0.956 . S
H1347 C1334 0.961 . S
H1348 C1334 0.961 . S
H1349 C1335 0.958 . S
H1350 C1335 0.961 . S
H1351 C1335 0.960 . S
C1352 C1353 1.391 . S
C1352 C1354 1.394 . S
C1352 H1368 0.931 . S
C1353 C1352 1.391 . S
C1353 C1357 1.376 . S
C1354 C1352 1.394 . S
C1354 C1355 1.369 . S
C1354 C1358 1.531 . S
C1355 C1354 1.369 . S
C1355 C1356 1.410 . S
C1355 C1363 1.503 . S
C1356 C1355 1.410 . S
C1356 C1357 1.392 . S
C1356 C1359 1.511 . S
C1357 C1353 1.376 . S
C1357 C1356 1.392 . S
C1357 H1369 0.929 . S
C1358 C1354 1.531 . S
C1358 H1370 0.960 . S
C1358 H1371 0.962 . S
C1358 H1372 0.960 . S
C1359 C1356 1.511 . S
C1359 H1373 0.961 . S
C1359 H1374 0.961 . S
C1359 H1375 0.961 . S
C1360 C1361 1.370 . S
C1360 C1362 1.363 . S
C1360 H1376 0.931 . S
C1361 C1360 1.370 . S
C1361 C1365 1.408 . S
C1362 C1360 1.363 . S
C1362 C1363 1.370 . S
C1362 C1366 1.524 . S
C1363 C1355 1.503 . S
C1363 C1362 1.370 . S
C1363 C1364 1.403 . S
C1364 C1363 1.403 . S
C1364 C1365 1.404 . S
C1364 C1367 1.539 . S
C1365 C1361 1.408 . S
C1365 C1364 1.404 . S
C1365 H1377 0.930 . S
C1366 C1362 1.524 . S
C1366 H1378 0.956 . S
C1366 H1379 0.961 . S
C1366 H1380 0.961 . S
C1367 C1364 1.539 . S
C1367 H1381 0.958 . S
C1367 H1382 0.961 . S
C1367 H1383 0.960 . S
H1368 C1352 0.931 . S
H1369 C1357 0.929 . S
H1370 C1358 0.960 . S
H1371 C1358 0.962 . S
H1372 C1358 0.960 . S
H1373 C1359 0.961 . S
H1374 C1359 0.961 . S
H1375 C1359 0.961 . S
H1376 C1360 0.931 . S
H1377 C1365 0.930 . S
H1378 C1366 0.956 . S
H1379 C1366 0.961 . S
H1380 C1366 0.961 . S
H1381 C1367 0.958 . S
H1382 C1367 0.961 . S
H1383 C1367 0.960 . S
C1384 C1385 1.391 . S
C1384 C1386 1.394 . S
C1384 H1400 0.931 . S
C1385 C1384 1.391 . S
C1385 C1389 1.376 . S
C1386 C1384 1.394 . S
C1386 C1387 1.369 . S
C1386 C1390 1.531 . S
C1387 C1386 1.369 . S
C1387 C1388 1.410 . S
C1387 C1395 1.503 . S
C1388 C1387 1.410 . S
C1388 C1389 1.392 . S
C1388 C1391 1.511 . S
C1389 C1385 1.376 . S
C1389 C1388 1.392 . S
C1389 H1401 0.929 . S
C1390 C1386 1.531 . S
C1390 H1402 0.960 . S
C1390 H1403 0.962 . S
C1390 H1404 0.960 . S
C1391 C1388 1.511 . S
C1391 H1405 0.961 . S
C1391 H1406 0.961 . S
C1391 H1407 0.961 . S
C1392 C1393 1.370 . S
C1392 C1394 1.363 . S
C1392 H1408 0.931 . S
C1393 C1392 1.370 . S
C1393 C1397 1.408 . S
C1394 C1392 1.363 . S
C1394 C1395 1.370 . S
C1394 C1398 1.524 . S
C1395 C1387 1.503 . S
C1395 C1394 1.370 . S
C1395 C1396 1.403 . S
C1396 C1395 1.403 . S
C1396 C1397 1.404 . S
C1396 C1399 1.539 . S
C1397 C1393 1.408 . S
C1397 C1396 1.404 . S
C1397 H1409 0.930 . S
C1398 C1394 1.524 . S
C1398 H1410 0.956 . S
C1398 H1411 0.961 . S
C1398 H1412 0.961 . S
C1399 C1396 1.539 . S
C1399 H1413 0.958 . S
C1399 H1414 0.961 . S
C1399 H1415 0.960 . S
H1400 C1384 0.931 . S
H1401 C1389 0.929 . S
H1402 C1390 0.960 . S
H1403 C1390 0.962 . S
H1404 C1390 0.960 . S
H1405 C1391 0.961 . S
H1406 C1391 0.961 . S
H1407 C1391 0.961 . S
H1408 C1392 0.931 . S
H1409 C1397 0.930 . S
H1410 C1398 0.956 . S
H1411 C1398 0.961 . S
H1412 C1398 0.961 . S
H1413 C1399 0.958 . S
H1414 C1399 0.961 . S
H1415 C1399 0.960 . S
C265 C117 1.064 . S
C273 C18 1.047 . S
C297 C32 1.034 . S
C305 C15 1.056 . S
C329 C54 1.022 . S
C337 C43 1.054 . S
C361 C65 1.065 . S
C369 C84 1.041 . S
C393 C81 1.032 . S
C401 C106 1.040 . S
C425 C118 1.019 . S
C433 C103 1.053 . S
C457 C169 1.065 . S
C465 C150 1.045 . S
C489 C172 1.037 . S
C497 C191 1.056 . S
C521 C205 1.028 . S
C529 C194 1.050 . S
C553 C227 1.036 . S
C561 C206 1.055 . S
C585 C263 1.042 . S
C593 C228 1.035 . S
C617 C147 1.065 . S
C625 C252 1.042 . S
C649 C257 1.353 . S
C657 C8 1.330 . S
C681 C40 1.341 . S
C689 C139 1.347 . S
C713 C161 1.338 . S
C721 C62 1.335 . S
C745 C183 1.360 . S
C753 C74 1.335 . S
C777 C219 1.362 . S
C785 C96 1.331 . S
C809 C120 1.351 . S
C817 C241 1.334 . S
C841 C140 1.333 . S
C849 C37 1.338 . S
C873 C162 1.356 . S
C881 C59 1.334 . S
C905 C73 1.336 . S
C913 C184 1.347 . S
C937 C95 1.361 . S
C945 C208 1.334 . S
C969 C230 1.353 . S
C977 C131 1.334 . S
C1001 C260 1.360 . S
C1009 C7 1.335 . S
C1033 C142 1.094 1_455 S
C1041 C10 1.073 1_565 S
C1065 C30 1.096 . S
C1073 C164 1.066 1_545 S
C1097 C186 1.097 . S
C1105 C52 1.069 1_455 S
C1129 C76 1.053 1_545 S
C1137 C216 1.078 1_655 S
C1161 C238 1.049 1_565 S
C1169 C98 1.082 . S
C1193 C250 1.068 . S
C1201 C128 1.071 1_655 S
C1225 C153 0.931 . S
C1233 C21 0.905 . S
C1257 C175 0.897 . S
C1265 C29 0.923 . S
C1289 C197 0.911 . S
C1297 C51 0.910 . S
C1321 C87 0.930 . S
C1329 C213 0.905 . S
C1353 C235 0.921 . S
C1361 C109 0.907 . S
C1385 C249 0.889 . S
C1393 C125 0.922 . S
