# Generated by pormake.
# Topology ana, (4)-cn, num edge types: 1
# Building blocks:
#     Node 0, Type 0, BuildingBlock: AZAVOO_clean_sbu_0, # of connection points: 4
#     Node 1, Type 0, BuildingBlock: AZAVOO_clean_sbu_0, # of connection points: 4
#     Node 2, Type 0, BuildingBlock: AZAVOO_clean_sbu_0, # of connection points: 4
#     Node 3, Type 0, BuildingBlock: AZAVOO_clean_sbu_0, # of connection points: 4
#     Node 4, Type 0, BuildingBlock: AZAVOO_clean_sbu_0, # of connection points: 4
#     Node 5, Type 0, BuildingBlock: AZAVOO_clean_sbu_0, # of connection points: 4
#     Node 6, Type 0, BuildingBlock: AZAVOO_clean_sbu_0, # of connection points: 4
#     Node 7, Type 0, BuildingBlock: AZAVOO_clean_sbu_0, # of connection points: 4
#     Node 8, Type 0, BuildingBlock: AZAVOO_clean_sbu_0, # of connection points: 4
#     Node 9, Type 0, BuildingBlock: AZAVOO_clean_sbu_0, # of connection points: 4
#     Node 10, Type 0, BuildingBlock: AZAVOO_clean_sbu_0, # of connection points: 4
#     Node 11, Type 0, BuildingBlock: AZAVOO_clean_sbu_0, # of connection points: 4
#     Node 12, Type 0, BuildingBlock: AZAVOO_clean_sbu_0, # of connection points: 4
#     Node 13, Type 0, BuildingBlock: AZAVOO_clean_sbu_0, # of connection points: 4
#     Node 14, Type 0, BuildingBlock: AZAVOO_clean_sbu_0, # of connection points: 4
#     Node 15, Type 0, BuildingBlock: AZAVOO_clean_sbu_0, # of connection points: 4
#     Node 16, Type 0, BuildingBlock: AZAVOO_clean_sbu_0, # of connection points: 4
#     Node 17, Type 0, BuildingBlock: AZAVOO_clean_sbu_0, # of connection points: 4
#     Node 18, Type 0, BuildingBlock: AZAVOO_clean_sbu_0, # of connection points: 4
#     Node 19, Type 0, BuildingBlock: AZAVOO_clean_sbu_0, # of connection points: 4
#     Node 20, Type 0, BuildingBlock: AZAVOO_clean_sbu_0, # of connection points: 4
#     Node 21, Type 0, BuildingBlock: AZAVOO_clean_sbu_0, # of connection points: 4
#     Node 22, Type 0, BuildingBlock: AZAVOO_clean_sbu_0, # of connection points: 4
#     Node 23, Type 0, BuildingBlock: AZAVOO_clean_sbu_0, # of connection points: 4
#     Node 24, Type 0, BuildingBlock: AZAVOO_clean_sbu_0, # of connection points: 4
#     Node 25, Type 0, BuildingBlock: AZAVOO_clean_sbu_0, # of connection points: 4
#     Node 26, Type 0, BuildingBlock: AZAVOO_clean_sbu_0, # of connection points: 4
#     Node 27, Type 0, BuildingBlock: AZAVOO_clean_sbu_0, # of connection points: 4
#     Node 28, Type 0, BuildingBlock: AZAVOO_clean_sbu_0, # of connection points: 4
#     Node 29, Type 0, BuildingBlock: AZAVOO_clean_sbu_0, # of connection points: 4
#     Node 30, Type 0, BuildingBlock: AZAVOO_clean_sbu_0, # of connection points: 4
#     Node 31, Type 0, BuildingBlock: AZAVOO_clean_sbu_0, # of connection points: 4
#     Node 32, Type 0, BuildingBlock: AZAVOO_clean_sbu_0, # of connection points: 4
#     Node 33, Type 0, BuildingBlock: AZAVOO_clean_sbu_0, # of connection points: 4
#     Node 34, Type 0, BuildingBlock: AZAVOO_clean_sbu_0, # of connection points: 4
#     Node 35, Type 0, BuildingBlock: AZAVOO_clean_sbu_0, # of connection points: 4
#     Node 36, Type 0, BuildingBlock: AZAVOO_clean_sbu_0, # of connection points: 4
#     Node 37, Type 0, BuildingBlock: AZAVOO_clean_sbu_0, # of connection points: 4
#     Node 38, Type 0, BuildingBlock: AZAVOO_clean_sbu_0, # of connection points: 4
#     Node 39, Type 0, BuildingBlock: AZAVOO_clean_sbu_0, # of connection points: 4
#     Node 40, Type 0, BuildingBlock: AZAVOO_clean_sbu_0, # of connection points: 4
#     Node 41, Type 0, BuildingBlock: AZAVOO_clean_sbu_0, # of connection points: 4
#     Node 42, Type 0, BuildingBlock: AZAVOO_clean_sbu_0, # of connection points: 4
#     Node 43, Type 0, BuildingBlock: AZAVOO_clean_sbu_0, # of connection points: 4
#     Node 44, Type 0, BuildingBlock: AZAVOO_clean_sbu_0, # of connection points: 4
#     Node 45, Type 0, BuildingBlock: AZAVOO_clean_sbu_0, # of connection points: 4
#     Node 46, Type 0, BuildingBlock: AZAVOO_clean_sbu_0, # of connection points: 4
#     Node 47, Type 0, BuildingBlock: AZAVOO_clean_sbu_0, # of connection points: 4
#     Edge 48, Type (0, 0), BuildingBlock: UVAHIK_clean_linker_0, # of connection points: 2
#     Edge 49, Type (0, 0), BuildingBlock: UVAHIK_clean_linker_0, # of connection points: 2
#     Edge 50, Type (0, 0), BuildingBlock: UVAHIK_clean_linker_0, # of connection points: 2
#     Edge 51, Type (0, 0), BuildingBlock: UVAHIK_clean_linker_0, # of connection points: 2
#     Edge 52, Type (0, 0), BuildingBlock: UVAHIK_clean_linker_0, # of connection points: 2
#     Edge 53, Type (0, 0), BuildingBlock: UVAHIK_clean_linker_0, # of connection points: 2
#     Edge 54, Type (0, 0), BuildingBlock: UVAHIK_clean_linker_0, # of connection points: 2
#     Edge 55, Type (0, 0), BuildingBlock: UVAHIK_clean_linker_0, # of connection points: 2
#     Edge 56, Type (0, 0), BuildingBlock: UVAHIK_clean_linker_0, # of connection points: 2
#     Edge 57, Type (0, 0), BuildingBlock: UVAHIK_clean_linker_0, # of connection points: 2
#     Edge 58, Type (0, 0), BuildingBlock: UVAHIK_clean_linker_0, # of connection points: 2
#     Edge 59, Type (0, 0), BuildingBlock: UVAHIK_clean_linker_0, # of connection points: 2
#     Edge 60, Type (0, 0), BuildingBlock: UVAHIK_clean_linker_0, # of connection points: 2
#     Edge 61, Type (0, 0), BuildingBlock: UVAHIK_clean_linker_0, # of connection points: 2
#     Edge 62, Type (0, 0), BuildingBlock: UVAHIK_clean_linker_0, # of connection points: 2
#     Edge 63, Type (0, 0), BuildingBlock: UVAHIK_clean_linker_0, # of connection points: 2
#     Edge 64, Type (0, 0), BuildingBlock: UVAHIK_clean_linker_0, # of connection points: 2
#     Edge 65, Type (0, 0), BuildingBlock: UVAHIK_clean_linker_0, # of connection points: 2
#     Edge 66, Type (0, 0), BuildingBlock: UVAHIK_clean_linker_0, # of connection points: 2
#     Edge 67, Type (0, 0), BuildingBlock: UVAHIK_clean_linker_0, # of connection points: 2
#     Edge 68, Type (0, 0), BuildingBlock: UVAHIK_clean_linker_0, # of connection points: 2
#     Edge 69, Type (0, 0), BuildingBlock: UVAHIK_clean_linker_0, # of connection points: 2
#     Edge 70, Type (0, 0), BuildingBlock: UVAHIK_clean_linker_0, # of connection points: 2
#     Edge 71, Type (0, 0), BuildingBlock: UVAHIK_clean_linker_0, # of connection points: 2
#     Edge 72, Type (0, 0), BuildingBlock: UVAHIK_clean_linker_0, # of connection points: 2
#     Edge 73, Type (0, 0), BuildingBlock: UVAHIK_clean_linker_0, # of connection points: 2
#     Edge 74, Type (0, 0), BuildingBlock: UVAHIK_clean_linker_0, # of connection points: 2
#     Edge 75, Type (0, 0), BuildingBlock: UVAHIK_clean_linker_0, # of connection points: 2
#     Edge 76, Type (0, 0), BuildingBlock: UVAHIK_clean_linker_0, # of connection points: 2
#     Edge 77, Type (0, 0), BuildingBlock: UVAHIK_clean_linker_0, # of connection points: 2
#     Edge 78, Type (0, 0), BuildingBlock: UVAHIK_clean_linker_0, # of connection points: 2
#     Edge 79, Type (0, 0), BuildingBlock: UVAHIK_clean_linker_0, # of connection points: 2
#     Edge 80, Type (0, 0), BuildingBlock: UVAHIK_clean_linker_0, # of connection points: 2
#     Edge 81, Type (0, 0), BuildingBlock: UVAHIK_clean_linker_0, # of connection points: 2
#     Edge 82, Type (0, 0), BuildingBlock: UVAHIK_clean_linker_0, # of connection points: 2
#     Edge 83, Type (0, 0), BuildingBlock: UVAHIK_clean_linker_0, # of connection points: 2
#     Edge 84, Type (0, 0), BuildingBlock: UVAHIK_clean_linker_0, # of connection points: 2
#     Edge 85, Type (0, 0), BuildingBlock: UVAHIK_clean_linker_0, # of connection points: 2
#     Edge 86, Type (0, 0), BuildingBlock: UVAHIK_clean_linker_0, # of connection points: 2
#     Edge 87, Type (0, 0), BuildingBlock: UVAHIK_clean_linker_0, # of connection points: 2
#     Edge 88, Type (0, 0), BuildingBlock: UVAHIK_clean_linker_0, # of connection points: 2
#     Edge 89, Type (0, 0), BuildingBlock: UVAHIK_clean_linker_0, # of connection points: 2
#     Edge 90, Type (0, 0), BuildingBlock: UVAHIK_clean_linker_0, # of connection points: 2
#     Edge 91, Type (0, 0), BuildingBlock: UVAHIK_clean_linker_0, # of connection points: 2
#     Edge 92, Type (0, 0), BuildingBlock: UVAHIK_clean_linker_0, # of connection points: 2
#     Edge 93, Type (0, 0), BuildingBlock: UVAHIK_clean_linker_0, # of connection points: 2
#     Edge 94, Type (0, 0), BuildingBlock: UVAHIK_clean_linker_0, # of connection points: 2
#     Edge 95, Type (0, 0), BuildingBlock: UVAHIK_clean_linker_0, # of connection points: 2
#     Edge 96, Type (0, 0), BuildingBlock: UVAHIK_clean_linker_0, # of connection points: 2
#     Edge 97, Type (0, 0), BuildingBlock: UVAHIK_clean_linker_0, # of connection points: 2
#     Edge 98, Type (0, 0), BuildingBlock: UVAHIK_clean_linker_0, # of connection points: 2
#     Edge 99, Type (0, 0), BuildingBlock: UVAHIK_clean_linker_0, # of connection points: 2
#     Edge 100, Type (0, 0), BuildingBlock: UVAHIK_clean_linker_0, # of connection points: 2
#     Edge 101, Type (0, 0), BuildingBlock: UVAHIK_clean_linker_0, # of connection points: 2
#     Edge 102, Type (0, 0), BuildingBlock: UVAHIK_clean_linker_0, # of connection points: 2
#     Edge 103, Type (0, 0), BuildingBlock: UVAHIK_clean_linker_0, # of connection points: 2
#     Edge 104, Type (0, 0), BuildingBlock: UVAHIK_clean_linker_0, # of connection points: 2
#     Edge 105, Type (0, 0), BuildingBlock: UVAHIK_clean_linker_0, # of connection points: 2
#     Edge 106, Type (0, 0), BuildingBlock: UVAHIK_clean_linker_0, # of connection points: 2
#     Edge 107, Type (0, 0), BuildingBlock: UVAHIK_clean_linker_0, # of connection points: 2
#     Edge 108, Type (0, 0), BuildingBlock: UVAHIK_clean_linker_0, # of connection points: 2
#     Edge 109, Type (0, 0), BuildingBlock: UVAHIK_clean_linker_0, # of connection points: 2
#     Edge 110, Type (0, 0), BuildingBlock: UVAHIK_clean_linker_0, # of connection points: 2
#     Edge 111, Type (0, 0), BuildingBlock: UVAHIK_clean_linker_0, # of connection points: 2
#     Edge 112, Type (0, 0), BuildingBlock: UVAHIK_clean_linker_0, # of connection points: 2
#     Edge 113, Type (0, 0), BuildingBlock: UVAHIK_clean_linker_0, # of connection points: 2
#     Edge 114, Type (0, 0), BuildingBlock: UVAHIK_clean_linker_0, # of connection points: 2
#     Edge 115, Type (0, 0), BuildingBlock: UVAHIK_clean_linker_0, # of connection points: 2
#     Edge 116, Type (0, 0), BuildingBlock: UVAHIK_clean_linker_0, # of connection points: 2
#     Edge 117, Type (0, 0), BuildingBlock: UVAHIK_clean_linker_0, # of connection points: 2
#     Edge 118, Type (0, 0), BuildingBlock: UVAHIK_clean_linker_0, # of connection points: 2
#     Edge 119, Type (0, 0), BuildingBlock: UVAHIK_clean_linker_0, # of connection points: 2
#     Edge 120, Type (0, 0), BuildingBlock: UVAHIK_clean_linker_0, # of connection points: 2
#     Edge 121, Type (0, 0), BuildingBlock: UVAHIK_clean_linker_0, # of connection points: 2
#     Edge 122, Type (0, 0), BuildingBlock: UVAHIK_clean_linker_0, # of connection points: 2
#     Edge 123, Type (0, 0), BuildingBlock: UVAHIK_clean_linker_0, # of connection points: 2
#     Edge 124, Type (0, 0), BuildingBlock: UVAHIK_clean_linker_0, # of connection points: 2
#     Edge 125, Type (0, 0), BuildingBlock: UVAHIK_clean_linker_0, # of connection points: 2
#     Edge 126, Type (0, 0), BuildingBlock: UVAHIK_clean_linker_0, # of connection points: 2
#     Edge 127, Type (0, 0), BuildingBlock: UVAHIK_clean_linker_0, # of connection points: 2
#     Edge 128, Type (0, 0), BuildingBlock: UVAHIK_clean_linker_0, # of connection points: 2
#     Edge 129, Type (0, 0), BuildingBlock: UVAHIK_clean_linker_0, # of connection points: 2
#     Edge 130, Type (0, 0), BuildingBlock: UVAHIK_clean_linker_0, # of connection points: 2
#     Edge 131, Type (0, 0), BuildingBlock: UVAHIK_clean_linker_0, # of connection points: 2
#     Edge 132, Type (0, 0), BuildingBlock: UVAHIK_clean_linker_0, # of connection points: 2
#     Edge 133, Type (0, 0), BuildingBlock: UVAHIK_clean_linker_0, # of connection points: 2
#     Edge 134, Type (0, 0), BuildingBlock: UVAHIK_clean_linker_0, # of connection points: 2
#     Edge 135, Type (0, 0), BuildingBlock: UVAHIK_clean_linker_0, # of connection points: 2
#     Edge 136, Type (0, 0), BuildingBlock: UVAHIK_clean_linker_0, # of connection points: 2
#     Edge 137, Type (0, 0), BuildingBlock: UVAHIK_clean_linker_0, # of connection points: 2
#     Edge 138, Type (0, 0), BuildingBlock: UVAHIK_clean_linker_0, # of connection points: 2
#     Edge 139, Type (0, 0), BuildingBlock: UVAHIK_clean_linker_0, # of connection points: 2
#     Edge 140, Type (0, 0), BuildingBlock: UVAHIK_clean_linker_0, # of connection points: 2
#     Edge 141, Type (0, 0), BuildingBlock: UVAHIK_clean_linker_0, # of connection points: 2
#     Edge 142, Type (0, 0), BuildingBlock: UVAHIK_clean_linker_0, # of connection points: 2
#     Edge 143, Type (0, 0), BuildingBlock: UVAHIK_clean_linker_0, # of connection points: 2
# Relax obj value: 0.253
# Max RMSD: 0.249
# Mean RMSD: 0.230
data_MOF--net-ana--node1-AZAVOO_clean_sbu_0--edge1-UVAHIK_clean_linker_0
_symmetry_space_group_name_H-M    P1
_symmetry_Int_Tables_number       1
_symmetry_cell_setting            triclinic
loop_
_symmetry_equiv_pos_as_xyz
'x, y, z'
_cell_length_a     82.8463
_cell_length_b     79.840785
_cell_length_c     79.644102
_cell_angle_alpha  90.237675
_cell_angle_beta   90.653998
_cell_angle_gamma 92.184899
loop_
_atom_site_label
_atom_site_type_symbol
_atom_site_fract_x
_atom_site_fract_y
_atom_site_fract_z
_atom_type_partial_charge
Mg0 Mg 0.14434 0.16225 0.44241 0.0
O1 O 0.12073 0.14833 0.43427 0.0
O2 O 0.12326 0.12101 0.43904 0.0
Mg3 Mg 0.14846 0.11742 0.44992 0.0
C4 C 0.11505 0.13323 0.43391 0.0
C5 C 0.1227 0.19172 0.4324 0.0
O6 O 0.11307 0.18387 0.44302 0.0
O7 O 0.15687 0.15309 0.41901 0.0
O8 O 0.15932 0.12585 0.42471 0.0
O9 O 0.13569 0.16469 0.46871 0.0
O10 O 0.14937 0.14343 0.45933 0.0
C11 C 0.1615 0.13852 0.41514 0.0
C12 C 0.14204 0.15038 0.47154 0.0
O13 O 0.13634 0.18574 0.42924 0.0
Mg14 Mg 0.07806 0.89565 0.63395 0.0
O15 O 0.09665 0.91642 0.62827 0.0
O16 O 0.09479 0.92276 0.60106 0.0
Mg17 Mg 0.07325 0.90718 0.59002 0.0
C18 C 0.10144 0.92474 0.61552 0.0
C19 C 0.08361 0.88031 0.66854 0.0
O20 O 0.0691 0.87436 0.66436 0.0
O21 O 0.09264 0.8771 0.61974 0.0
O22 O 0.0872 0.88273 0.59283 0.0
O23 O 0.05998 0.91413 0.64093 0.0
O24 O 0.06268 0.90407 0.61527 0.0
C25 C 0.09376 0.8738 0.60413 0.0
C26 C 0.05532 0.91382 0.62534 0.0
O27 O 0.09116 0.88985 0.65832 0.0
Mg28 Mg 0.35838 0.80356 0.94857 0.0
O29 O 0.3818 0.8172 0.94009 0.0
O30 O 0.38079 0.84427 0.94691 0.0
Mg31 Mg 0.35669 0.84811 0.95966 0.0
C32 C 0.38805 0.83207 0.9404 0.0
C33 C 0.35454 0.77088 0.92655 0.0
O34 O 0.3392 0.7741 0.92818 0.0
O35 O 0.34435 0.81471 0.92655 0.0
O36 O 0.34361 0.8415 0.93489 0.0
O37 O 0.36867 0.79963 0.97452 0.0
O38 O 0.35501 0.82158 0.96695 0.0
C39 C 0.34005 0.82976 0.92437 0.0
C40 C 0.36281 0.81391 0.97844 0.0
O41 O 0.36517 0.78072 0.93329 0.0
Mg42 Mg 0.42428 0.12099 0.11709 0.0
O43 O 0.40827 0.0998 0.10584 0.0
O44 O 0.4157 0.09525 0.07938 0.0
Mg45 Mg 0.43624 0.11428 0.0736 0.0
C46 C 0.40677 0.09181 0.09196 0.0
C47 C 0.40246 0.11016 0.14711 0.0
O48 O 0.40581 0.09537 0.14107 0.0
O49 O 0.41036 0.13985 0.1024 0.0
O50 O 0.41905 0.13638 0.07622 0.0
O51 O 0.44208 0.1028 0.12541 0.0
O52 O 0.44267 0.11512 0.10059 0.0
C53 C 0.41052 0.14394 0.08695 0.0
C54 C 0.44863 0.10439 0.11079 0.0
O55 O 0.4078 0.12324 0.13965 0.0
Mg56 Mg 0.10687 0.80799 0.07635 0.0
O57 O 0.13059 0.81597 0.08998 0.0
O58 O 0.12737 0.81064 0.11731 0.0
Mg59 Mg 0.1021 0.79909 0.1212 0.0
C60 C 0.13593 0.81605 0.10511 0.0
C61 C 0.10408 0.82716 0.04291 0.0
O62 O 0.0888 0.82489 0.04687 0.0
O63 O 0.0947 0.83097 0.08658 0.0
O64 O 0.09127 0.82403 0.11351 0.0
O65 O 0.11534 0.782 0.07274 0.0
O66 O 0.10212 0.79054 0.095 0.0
C67 C 0.08952 0.83412 0.10126 0.0
C68 C 0.10965 0.77889 0.08752 0.0
O69 O 0.11484 0.82189 0.05284 0.0
Mg70 Mg 0.39274 0.87351 0.3885 0.0
O71 O 0.38492 0.84632 0.3811 0.0
O72 O 0.36012 0.8454 0.36934 0.0
Mg73 Mg 0.34932 0.87043 0.37572 0.0
C74 C 0.37326 0.83846 0.3734 0.0
C75 C 0.42473 0.85531 0.39038 0.0
O76 O 0.41834 0.8496 0.37621 0.0
O77 O 0.37999 0.87103 0.4136 0.0
O78 O 0.35697 0.86419 0.40249 0.0
O79 O 0.39877 0.87837 0.36212 0.0
O80 O 0.37417 0.88169 0.37179 0.0
C81 C 0.36563 0.8751 0.41041 0.0
C82 C 0.38376 0.88129 0.35913 0.0
O83 O 0.41665 0.8651 0.39938 0.0
Mg84 Mg 0.41069 0.20094 0.54531 0.0
O85 O 0.3879 0.19628 0.56102 0.0
O86 O 0.39258 0.20629 0.58693 0.0
Mg87 Mg 0.41883 0.21602 0.58826 0.0
C88 C 0.38326 0.19915 0.57597 0.0
C89 C 0.4093 0.1764 0.51512 0.0
O90 O 0.42489 0.17754 0.51842 0.0
O91 O 0.4222 0.17857 0.55809 0.0
O92 O 0.42633 0.18902 0.58399 0.0
O93 O 0.4029 0.22705 0.5397 0.0
O94 O 0.41846 0.22035 0.56115 0.0
C95 C 0.42704 0.1771 0.57329 0.0
C96 C 0.41069 0.23155 0.55326 0.0
O97 O 0.39979 0.18446 0.52428 0.0
Mg98 Mg 0.10798 0.13541 0.84818 0.0
O99 O 0.11448 0.15805 0.86477 0.0
O100 O 0.14137 0.1607 0.86655 0.0
Mg101 Mg 0.15203 0.14011 0.85055 0.0
C102 C 0.12734 0.16559 0.87025 0.0
C103 C 0.0735 0.148 0.8538 0.0
O104 O 0.08017 0.16093 0.84598 0.0
O105 O 0.11504 0.11745 0.86879 0.0
O106 O 0.14199 0.11952 0.8682 0.0
O107 O 0.10835 0.15176 0.82565 0.0
O108 O 0.12962 0.13881 0.83532 0.0
C109 C 0.12887 0.11285 0.87382 0.0
C110 C 0.1236 0.14898 0.82462 0.0
O111 O 0.08202 0.13549 0.85709 0.0
Mg112 Mg 0.14459 0.39157 0.13641 0.0
O113 O 0.12924 0.3822 0.11393 0.0
O114 O 0.10493 0.39327 0.1158 0.0
Mg115 Mg 0.1046 0.40918 0.13955 0.0
C116 C 0.11495 0.3842 0.10825 0.0
C117 C 0.17282 0.36839 0.14319 0.0
O118 O 0.16944 0.37327 0.15849 0.0
O119 O 0.13106 0.37361 0.15368 0.0
O120 O 0.10729 0.38568 0.15581 0.0
O121 O 0.15292 0.41369 0.12179 0.0
O122 O 0.131 0.41297 0.13741 0.0
C123 C 0.11688 0.37411 0.15968 0.0
C124 C 0.14011 0.42091 0.12682 0.0
O125 O 0.16383 0.37283 0.13111 0.0
Mg126 Mg 0.66578 0.10172 0.89059 0.0
O127 O 0.65107 0.11647 0.87165 0.0
O128 O 0.66188 0.14244 0.86983 0.0
Mg129 Mg 0.68355 0.14423 0.88808 0.0
C130 C 0.65132 0.13116 0.86539 0.0
C131 C 0.63976 0.07537 0.87788 0.0
O132 O 0.64398 0.0824 0.86362 0.0
O133 O 0.65454 0.11555 0.91201 0.0
O134 O 0.66718 0.14077 0.91139 0.0
O135 O 0.68174 0.09365 0.87032 0.0
O136 O 0.68617 0.11692 0.88511 0.0
C137 C 0.65731 0.13016 0.91815 0.0
C138 C 0.69023 0.1074 0.87282 0.0
O139 O 0.64622 0.08087 0.89147 0.0
Mg140 Mg 0.82642 0.89437 0.39214 0.0
O141 O 0.84201 0.88254 0.37218 0.0
O142 O 0.83377 0.85576 0.36868 0.0
Mg143 Mg 0.81297 0.85053 0.38686 0.0
C144 C 0.84307 0.8683 0.365 0.0
C145 C 0.83777 0.93108 0.39534 0.0
O146 O 0.82197 0.93168 0.39621 0.0
O147 O 0.83972 0.88081 0.41246 0.0
O148 O 0.83022 0.85436 0.4098 0.0
O149 O 0.80905 0.90152 0.37251 0.0
O150 O 0.80742 0.87738 0.38605 0.0
C151 C 0.83906 0.86561 0.41732 0.0
C152 C 0.802 0.88689 0.37436 0.0
O153 O 0.84404 0.91688 0.39392 0.0
Mg154 Mg 0.84058 0.12338 0.10024 0.0
O155 O 0.85859 0.13274 0.12011 0.0
O156 O 0.85725 0.1605 0.12277 0.0
Mg157 Mg 0.83819 0.16868 0.10354 0.0
C158 C 0.8632 0.14658 0.12696 0.0
C159 C 0.84415 0.08585 0.09418 0.0
O160 O 0.82943 0.08814 0.08854 0.0
O161 O 0.85693 0.1332 0.08001 0.0
O162 O 0.85364 0.16084 0.08081 0.0
O163 O 0.82179 0.12053 0.1195 0.0
O164 O 0.82588 0.14357 0.10447 0.0
C165 C 0.85969 0.14787 0.07423 0.0
C166 C 0.8181 0.13581 0.11623 0.0
O167 O 0.85246 0.09835 0.09988 0.0
Mg168 Mg 0.33687 0.63027 0.59685 0.0
O169 O 0.35086 0.63762 0.62072 0.0
O170 O 0.34837 0.66506 0.62515 0.0
Mg171 Mg 0.33254 0.67503 0.60383 0.0
C172 C 0.35385 0.65091 0.62934 0.0
C173 C 0.34092 0.59328 0.58921 0.0
O174 O 0.32618 0.59583 0.58382 0.0
O175 O 0.35651 0.6426 0.58155 0.0
O176 O 0.35229 0.66999 0.58409 0.0
O177 O 0.31497 0.62488 0.61164 0.0
O178 O 0.32123 0.64968 0.60064 0.0
C179 C 0.35993 0.65783 0.5779 0.0
C180 C 0.31172 0.64052 0.60984 0.0
O181 O 0.34917 0.60545 0.59568 0.0
Mg182 Mg 0.18128 0.58376 0.40059 0.0
O183 O 0.16539 0.59628 0.3811 0.0
O184 O 0.17567 0.62209 0.37632 0.0
Mg185 Mg 0.19833 0.62585 0.39294 0.0
C186 C 0.16502 0.61036 0.37359 0.0
C187 C 0.16546 0.55164 0.41471 0.0
O188 O 0.17945 0.55262 0.42266 0.0
O189 O 0.17079 0.59969 0.42087 0.0
O190 O 0.18286 0.62488 0.417 0.0
O191 O 0.19644 0.57388 0.38034 0.0
O192 O 0.20108 0.59844 0.39278 0.0
C193 C 0.17344 0.61494 0.4252 0.0
C194 C 0.20479 0.58791 0.38124 0.0
O195 O 0.16199 0.56322 0.40454 0.0
Mg196 Mg 0.35103 0.37435 0.84397 0.0
O197 O 0.3514 0.37901 0.8726 0.0
O198 O 0.37656 0.38709 0.88081 0.0
Mg199 Mg 0.39344 0.38374 0.85861 0.0
C200 C 0.36158 0.38419 0.88388 0.0
C201 C 0.31591 0.36878 0.83287 0.0
O202 O 0.32205 0.37806 0.82076 0.0
O203 O 0.36109 0.3486 0.84842 0.0
O204 O 0.3841 0.35641 0.85899 0.0
O205 O 0.34831 0.40144 0.84016 0.0
O206 O 0.37226 0.39032 0.84265 0.0
C207 C 0.37615 0.3509 0.84628 0.0
C208 C 0.36381 0.40356 0.84186 0.0
O209 O 0.32516 0.36416 0.84468 0.0
Mg210 Mg 0.87504 0.85155 0.62684 0.0
O211 O 0.87868 0.85107 0.59835 0.0
O212 O 0.90411 0.84468 0.59277 0.0
Mg213 Mg 0.91636 0.83961 0.61792 0.0
C214 C 0.88997 0.84849 0.58796 0.0
C215 C 0.83831 0.84267 0.63064 0.0
O216 O 0.84432 0.83257 0.64187 0.0
O217 O 0.87353 0.823 0.62654 0.0
O218 O 0.8989 0.81676 0.62048 0.0
O219 O 0.88434 0.87827 0.62745 0.0
O220 O 0.89961 0.85634 0.63037 0.0
C221 C 0.88423 0.81236 0.6235 0.0
C222 C 0.89863 0.8723 0.62869 0.0
O223 O 0.84784 0.85242 0.62252 0.0
Mg224 Mg 0.94093 0.10063 0.31492 0.0
O225 O 0.92679 0.12278 0.32469 0.0
O226 O 0.90176 0.12078 0.31397 0.0
Mg227 Mg 0.89969 0.09706 0.29789 0.0
C228 C 0.91261 0.12832 0.32302 0.0
C229 C 0.96802 0.09513 0.34169 0.0
O230 O 0.9635 0.07945 0.33859 0.0
O231 O 0.92773 0.083 0.33307 0.0
O232 O 0.90296 0.0811 0.3216 0.0
O233 O 0.94782 0.11535 0.29212 0.0
O234 O 0.92594 0.09876 0.29382 0.0
C235 C 0.91317 0.07717 0.33293 0.0
C236 C 0.9345 0.10945 0.28532 0.0
O237 O 0.96091 0.10675 0.33408 0.0
Mg238 Mg 0.6183 0.14274 0.12939 0.0
O239 O 0.61692 0.14302 0.10048 0.0
O240 O 0.59088 0.14079 0.09266 0.0
Mg241 Mg 0.57584 0.1422 0.1164 0.0
C242 C 0.60588 0.14177 0.08913 0.0
C243 C 0.65281 0.14764 0.14262 0.0
O244 O 0.64489 0.14214 0.15582 0.0
O245 O 0.61231 0.17029 0.12964 0.0
O246 O 0.58664 0.16889 0.12059 0.0
O247 O 0.61658 0.11471 0.12833 0.0
O248 O 0.59564 0.13105 0.13037 0.0
C249 C 0.59934 0.17731 0.12527 0.0
C250 C 0.6011 0.11631 0.12839 0.0
O251 O 0.64513 0.14947 0.12889 0.0
Mg252 Mg 0.55212 0.88856 0.81739 0.0
O253 O 0.5683 0.86872 0.82878 0.0
O254 O 0.59297 0.87209 0.81794 0.0
Mg255 Mg 0.59254 0.89392 0.79951 0.0
C256 C 0.58295 0.86445 0.8276 0.0
C257 C 0.52781 0.86809 0.83949 0.0
O258 O 0.53347 0.85608 0.83018 0.0
O259 O 0.56449 0.9089 0.83364 0.0
O260 O 0.58852 0.91217 0.82138 0.0
O261 O 0.54515 0.87143 0.79614 0.0
O262 O 0.56633 0.88911 0.79593 0.0
C263 C 0.5784 0.91623 0.83254 0.0
C264 C 0.55793 0.87723 0.7886 0.0
O265 O 0.5332 0.88306 0.8374 0.0
Mg266 Mg 0.86766 0.10624 0.86486 0.0
O267 O 0.86154 0.13401 0.86592 0.0
O268 O 0.835 0.13645 0.86955 0.0
Mg269 Mg 0.82478 0.10992 0.87416 0.0
C270 C 0.84915 0.14294 0.86738 0.0
C271 C 0.90099 0.12537 0.85735 0.0
O272 O 0.89194 0.13457 0.8477 0.0
O273 O 0.86732 0.1065 0.89348 0.0
O274 O 0.84112 0.1107 0.89754 0.0
O275 O 0.86026 0.10591 0.83767 0.0
O276 O 0.8439 0.09985 0.85876 0.0
C277 C 0.85552 0.10935 0.90313 0.0
C278 C 0.8458 0.10258 0.84301 0.0
O279 O 0.8945 0.11327 0.86547 0.0
Mg280 Mg 0.56912 0.08563 0.68316 0.0
O281 O 0.58398 0.10371 0.66672 0.0
O282 O 0.60985 0.10382 0.67482 0.0
Mg283 Mg 0.61144 0.0853 0.69663 0.0
C284 C 0.59863 0.10897 0.66526 0.0
C285 C 0.53407 0.0889 0.66886 0.0
O286 O 0.53104 0.08973 0.685 0.0
O287 O 0.57896 0.06327 0.66958 0.0
O288 O 0.60443 0.06307 0.67908 0.0
O289 O 0.5654 0.10605 0.70184 0.0
O290 O 0.58582 0.08906 0.70277 0.0
C291 C 0.59274 0.0567 0.67025 0.0
C292 C 0.57874 0.10174 0.70897 0.0
O293 O 0.54849 0.08698 0.6642 0.0
Mg294 Mg 0.62723 0.89578 0.37905 0.0
O295 O 0.63591 0.86971 0.38548 0.0
O296 O 0.66264 0.87108 0.38988 0.0
Mg297 Mg 0.67079 0.89867 0.38675 0.0
C298 C 0.64916 0.86279 0.38897 0.0
C299 C 0.59446 0.87387 0.37738 0.0
O300 O 0.60229 0.86491 0.3665 0.0
O301 O 0.62993 0.90312 0.40648 0.0
O302 O 0.65666 0.90483 0.4106 0.0
O303 O 0.63227 0.88981 0.35231 0.0
O304 O 0.64984 0.90234 0.36993 0.0
C305 C 0.64226 0.90582 0.41598 0.0
C306 C 0.64688 0.89531 0.35559 0.0
O307 O 0.6014 0.88681 0.38393 0.0
Mg308 Mg 0.92606 0.9169 0.18421 0.0
O309 O 0.91458 0.89423 0.17022 0.0
O310 O 0.8888 0.89005 0.17742 0.0
Mg311 Mg 0.88336 0.91145 0.19535 0.0
C312 C 0.90113 0.88596 0.16911 0.0
C313 C 0.95388 0.90176 0.16467 0.0
O314 O 0.94727 0.88851 0.17197 0.0
O315 O 0.91328 0.93396 0.16616 0.0
O316 O 0.88745 0.93 0.17361 0.0
O317 O 0.93213 0.90089 0.20603 0.0
O318 O 0.90907 0.91369 0.20311 0.0
C319 C 0.89832 0.93689 0.16438 0.0
C320 C 0.91781 0.9036 0.21154 0.0
O321 O 0.94805 0.91601 0.16728 0.0
Mg322 Mg 0.8124 0.55571 0.87638 0.0
O323 O 0.82597 0.57186 0.89637 0.0
O324 O 0.85092 0.56253 0.89924 0.0
Mg325 Mg 0.85344 0.54071 0.88098 0.0
C326 C 0.83999 0.5726 0.90324 0.0
C327 C 0.78686 0.58117 0.88778 0.0
O328 O 0.79245 0.5767 0.90253 0.0
O329 O 0.82644 0.56903 0.8557 0.0
O330 O 0.85108 0.55891 0.85882 0.0
O331 O 0.80429 0.53724 0.89585 0.0
O332 O 0.82707 0.53581 0.88187 0.0
C333 C 0.84111 0.56815 0.85121 0.0
C334 C 0.8177 0.52982 0.89336 0.0
O335 O 0.79259 0.57471 0.87462 0.0
Mg336 Mg 0.31838 0.91654 0.15611 0.0
O337 O 0.33299 0.8994 0.13939 0.0
O338 O 0.3589 0.90815 0.13975 0.0
Mg339 Mg 0.361 0.93056 0.15767 0.0
C340 C 0.34755 0.89809 0.13461 0.0
C341 C 0.29208 0.8942 0.13903 0.0
O342 O 0.30011 0.9005 0.12625 0.0
O343 O 0.32797 0.90405 0.17969 0.0
O344 O 0.35362 0.91386 0.17996 0.0
O345 O 0.3149 0.93398 0.13474 0.0
O346 O 0.3355 0.93607 0.15258 0.0
C347 C 0.34201 0.90521 0.18647 0.0
C348 C 0.32845 0.94137 0.13922 0.0
O349 O 0.29679 0.89809 0.15384 0.0
Mg350 Mg 0.21971 0.09071 0.65964 0.0
O351 O 0.20152 0.0977 0.63912 0.0
O352 O 0.17735 0.08568 0.64452 0.0
Mg353 Mg 0.17966 0.07291 0.66991 0.0
C354 C 0.1867 0.09461 0.63525 0.0
C355 C 0.24162 0.10974 0.6338 0.0
O356 O 0.23448 0.09856 0.62378 0.0
O357 O 0.20954 0.11025 0.67704 0.0
O358 O 0.18488 0.09889 0.68178 0.0
O359 O 0.22393 0.06712 0.64559 0.0
O360 O 0.20547 0.06952 0.66524 0.0
C361 C 0.19559 0.11072 0.68357 0.0
C362 C 0.21176 0.06063 0.65368 0.0
O363 O 0.23802 0.10984 0.64927 0.0
Mg364 Mg 0.16866 0.92079 0.85797 0.0
O365 O 0.15554 0.90659 0.87924 0.0
O366 O 0.13 0.91464 0.87956 0.0
Mg367 Mg 0.12666 0.93366 0.85869 0.0
C368 C 0.14137 0.90595 0.88543 0.0
C369 C 0.19629 0.90142 0.87414 0.0
O370 O 0.19043 0.90927 0.88712 0.0
O371 O 0.15594 0.90423 0.83817 0.0
O372 O 0.13073 0.91325 0.83894 0.0
O373 O 0.17532 0.94181 0.87557 0.0
O374 O 0.15271 0.94021 0.86055 0.0
C375 C 0.14133 0.90377 0.8329 0.0
C376 C 0.16145 0.94787 0.87189 0.0
O377 O 0.18972 0.90326 0.85981 0.0
Mg378 Mg 0.67127 0.44192 0.37062 0.0
O379 O 0.65821 0.42529 0.38997 0.0
O380 O 0.63337 0.43448 0.39348 0.0
Mg381 Mg 0.63079 0.4574 0.37654 0.0
C382 C 0.6444 0.42423 0.3969 0.0
C383 C 0.69641 0.41532 0.3802 0.0
O384 O 0.69149 0.41933 0.39526 0.0
O385 O 0.65629 0.42982 0.34965 0.0
O386 O 0.63207 0.44072 0.35278 0.0
O387 O 0.6805 0.45934 0.39074 0.0
O388 O 0.6573 0.46198 0.37723 0.0
C389 C 0.64172 0.4315 0.34481 0.0
C390 C 0.6673 0.46734 0.38874 0.0
O391 O 0.69048 0.42254 0.3675 0.0
Mg392 Mg 0.80479 0.40245 0.64576 0.0
O393 O 0.81899 0.38953 0.62522 0.0
O394 O 0.84497 0.39817 0.62654 0.0
Mg395 Mg 0.84765 0.41525 0.64945 0.0
C396 C 0.83342 0.38943 0.61978 0.0
C397 C 0.77781 0.38421 0.62473 0.0
O398 O 0.7851 0.39334 0.61319 0.0
O399 O 0.81465 0.38421 0.66475 0.0
O400 O 0.84072 0.39265 0.66606 0.0
O401 O 0.80139 0.42481 0.62956 0.0
O402 O 0.82217 0.422 0.64682 0.0
C403 C 0.82899 0.38282 0.67044 0.0
C404 C 0.81509 0.43067 0.63551 0.0
O405 O 0.78308 0.38503 0.63978 0.0
Mg406 Mg 0.69211 0.58775 0.1493 0.0
O407 O 0.67491 0.59878 0.12975 0.0
O408 O 0.64978 0.58895 0.13479 0.0
Mg409 Mg 0.65071 0.57336 0.15862 0.0
C410 C 0.65983 0.59771 0.12615 0.0
C411 C 0.71743 0.60645 0.12613 0.0
O412 O 0.71059 0.59655 0.11468 0.0
O413 O 0.6839 0.60652 0.16856 0.0
O414 O 0.65853 0.59727 0.17336 0.0
O415 O 0.69439 0.56464 0.13366 0.0
O416 O 0.67593 0.56771 0.15312 0.0
C417 C 0.67038 0.60774 0.17587 0.0
C418 C 0.68179 0.55867 0.14141 0.0
O419 O 0.71236 0.6058 0.14112 0.0
Mg420 Mg 0.63033 0.69075 0.94584 0.0
O421 O 0.60689 0.67686 0.93725 0.0
O422 O 0.60754 0.65022 0.94558 0.0
Mg423 Mg 0.63122 0.64703 0.95994 0.0
C424 C 0.60051 0.66208 0.93809 0.0
C425 C 0.63458 0.7212 0.92077 0.0
O426 O 0.64986 0.71746 0.92181 0.0
O427 O 0.64441 0.67775 0.92529 0.0
O428 O 0.64515 0.65173 0.93559 0.0
O429 O 0.61965 0.69705 0.9708 0.0
O430 O 0.63261 0.67397 0.96535 0.0
C431 C 0.64891 0.66263 0.92444 0.0
C432 C 0.62456 0.68265 0.9757 0.0
O433 O 0.62415 0.71251 0.92888 0.0
Mg434 Mg 0.56739 0.38387 0.14668 0.0
O435 O 0.58671 0.40072 0.13453 0.0
O436 O 0.5823 0.40183 0.10684 0.0
Mg437 Mg 0.56012 0.38451 0.10128 0.0
C438 C 0.59045 0.40608 0.11997 0.0
C439 C 0.58768 0.39768 0.17717 0.0
O440 O 0.586 0.41155 0.1686 0.0
O441 O 0.57985 0.361 0.13719 0.0
O442 O 0.57362 0.36111 0.1098 0.0
O443 O 0.5511 0.40527 0.14918 0.0
O444 O 0.55145 0.38855 0.12703 0.0
C445 C 0.58014 0.35435 0.1226 0.0
C446 C 0.54567 0.40143 0.13429 0.0
O447 O 0.58169 0.38397 0.17126 0.0
Mg448 Mg 0.84762 0.2978 0.43667 0.0
O449 O 0.8705 0.31441 0.43224 0.0
O450 O 0.86712 0.33934 0.44434 0.0
Mg451 Mg 0.84242 0.3388 0.45661 0.0
C452 C 0.87557 0.32932 0.43593 0.0
C453 C 0.86968 0.27303 0.41858 0.0
O454 O 0.87936 0.27841 0.4308 0.0
O455 O 0.83382 0.31242 0.4169 0.0
O456 O 0.83074 0.33668 0.43044 0.0
O457 O 0.85774 0.28891 0.46117 0.0
O458 O 0.84331 0.31148 0.45811 0.0
C459 C 0.82851 0.32722 0.41758 0.0
C460 C 0.85179 0.30219 0.46763 0.0
O461 O 0.85567 0.27889 0.41731 0.0
Mg462 Mg 0.91195 0.61442 0.65545 0.0
O463 O 0.89684 0.59412 0.64149 0.0
O464 O 0.90434 0.59455 0.61461 0.0
Mg465 Mg 0.92421 0.61497 0.61156 0.0
C466 C 0.89564 0.58855 0.62645 0.0
C467 C 0.90321 0.61753 0.69158 0.0
O468 O 0.91826 0.62322 0.69044 0.0
O469 O 0.89691 0.63446 0.64375 0.0
O470 O 0.90621 0.63554 0.61753 0.0
O471 O 0.93106 0.59638 0.66093 0.0
O472 O 0.93048 0.61228 0.63831 0.0
C473 C 0.89717 0.64093 0.62914 0.0
C474 C 0.93739 0.60075 0.64674 0.0
O475 O 0.89584 0.6126 0.67827 0.0
Mg476 Mg 0.59693 0.28781 0.55951 0.0
O477 O 0.62116 0.29596 0.57213 0.0
O478 O 0.61983 0.2891 0.59927 0.0
Mg479 Mg 0.59478 0.27766 0.60428 0.0
C480 C 0.62749 0.29533 0.58682 0.0
C481 C 0.61671 0.30382 0.529 0.0
O482 O 0.62822 0.29431 0.53447 0.0
O483 O 0.58513 0.31027 0.57125 0.0
O484 O 0.58436 0.30329 0.59841 0.0
O485 O 0.60596 0.26199 0.55509 0.0
O486 O 0.5931 0.26966 0.57781 0.0
C487 C 0.58163 0.31346 0.58646 0.0
C488 C 0.60066 0.25831 0.56992 0.0
O489 O 0.6032 0.30347 0.53643 0.0
Mg490 Mg 0.88687 0.35603 0.85906 0.0
O491 O 0.87793 0.33004 0.86812 0.0
O492 O 0.85156 0.32768 0.86189 0.0
Mg493 Mg 0.84373 0.35146 0.84892 0.0
C494 C 0.86444 0.32172 0.86797 0.0
C495 C 0.91764 0.36766 0.87867 0.0
O496 O 0.91039 0.38188 0.87668 0.0
O497 O 0.87475 0.36918 0.88068 0.0
O498 O 0.84874 0.36707 0.87293 0.0
O499 O 0.89224 0.34496 0.83428 0.0
O500 O 0.86881 0.35562 0.84062 0.0
C501 C 0.85995 0.37232 0.88301 0.0
C502 C 0.87747 0.34781 0.82999 0.0
O503 O 0.91053 0.35417 0.87358 0.0
Mg504 Mg 0.90057 0.69912 0.07079 0.0
O505 O 0.87587 0.69254 0.08234 0.0
O506 O 0.87654 0.6998 0.10944 0.0
Mg507 Mg 0.90197 0.71011 0.11554 0.0
C508 C 0.86907 0.69371 0.09657 0.0
C509 C 0.87985 0.68568 0.03997 0.0
O510 O 0.86991 0.69677 0.04565 0.0
O511 O 0.91114 0.67623 0.08325 0.0
O512 O 0.91151 0.684 0.11032 0.0
O513 O 0.89318 0.72547 0.06591 0.0
O514 O 0.90525 0.71719 0.08912 0.0
C515 C 0.91415 0.67337 0.09872 0.0
C516 C 0.89871 0.72899 0.08084 0.0
O517 O 0.89328 0.68389 0.04749 0.0
Mg518 Mg 0.62271 0.65395 0.36065 0.0
O519 O 0.63335 0.67807 0.37284 0.0
O520 O 0.6599 0.67876 0.36809 0.0
Mg521 Mg 0.66626 0.65512 0.35373 0.0
C522 C 0.64735 0.68526 0.37409 0.0
C523 C 0.59025 0.66929 0.36977 0.0
O524 O 0.59656 0.68099 0.36003 0.0
O525 O 0.63241 0.6379 0.38161 0.0
O526 O 0.65873 0.63783 0.37576 0.0
O527 O 0.61955 0.66723 0.33651 0.0
O528 O 0.64149 0.65382 0.34339 0.0
C529 C 0.64662 0.6329 0.38451 0.0
C530 C 0.63398 0.66294 0.33275 0.0
O531 O 0.59867 0.65686 0.37363 0.0
Mg532 Mg 0.63326 0.85779 0.625 0.0
O533 O 0.62962 0.8685 0.59822 0.0
O534 O 0.60573 0.88089 0.59639 0.0
Mg535 Mg 0.59125 0.87188 0.61892 0.0
C536 C 0.61946 0.87742 0.59035 0.0
C537 C 0.66764 0.85655 0.61065 0.0
O538 O 0.66344 0.87159 0.60613 0.0
O539 O 0.6193 0.83354 0.61809 0.0
O540 O 0.59811 0.84598 0.61003 0.0
O541 O 0.64027 0.88323 0.63371 0.0
O542 O 0.61477 0.87393 0.63308 0.0
C543 C 0.60464 0.83659 0.62074 0.0
C544 C 0.62513 0.88629 0.63519 0.0
O545 O 0.6574 0.84703 0.61811 0.0
Mg546 Mg 0.37354 0.35126 0.09407 0.0
O547 O 0.36911 0.35821 0.06639 0.0
O548 O 0.39268 0.35539 0.05333 0.0
Mg549 Mg 0.41197 0.34801 0.07215 0.0
C550 C 0.37771 0.35868 0.05316 0.0
C551 C 0.33824 0.36119 0.10122 0.0
O552 O 0.34544 0.37613 0.10091 0.0
O553 O 0.37432 0.32366 0.08656 0.0
O554 O 0.39822 0.32268 0.07389 0.0
O555 O 0.38047 0.37799 0.1005 0.0
O556 O 0.39754 0.3593 0.09187 0.0
C557 C 0.38508 0.31561 0.07895 0.0
C558 C 0.39493 0.37457 0.09597 0.0
O559 O 0.3465 0.34839 0.09853 0.0
Mg560 Mg 0.43135 0.60345 0.81853 0.0
O561 O 0.41582 0.62165 0.83306 0.0
O562 O 0.39013 0.61766 0.82482 0.0
Mg563 Mg 0.38922 0.59697 0.80487 0.0
C564 C 0.40097 0.62526 0.83382 0.0
C565 C 0.45725 0.62412 0.83916 0.0
O566 O 0.45035 0.63616 0.83085 0.0
O567 O 0.42216 0.58123 0.83414 0.0
O568 O 0.39692 0.57747 0.82422 0.0
O569 O 0.43452 0.62213 0.79785 0.0
O570 O 0.41472 0.60285 0.79872 0.0
C571 C 0.40856 0.57315 0.83374 0.0
C572 C 0.42141 0.61553 0.79123 0.0
O573 O 0.45215 0.60906 0.83688 0.0
Mg574 Mg 0.11135 0.66505 0.62531 0.0
O575 O 0.11444 0.65785 0.59759 0.0
O576 O 0.09022 0.65789 0.5848 0.0
Mg577 Mg 0.07212 0.66685 0.60388 0.0
C578 C 0.1054 0.65564 0.58459 0.0
C579 C 0.14661 0.65948 0.63821 0.0
O580 O 0.13904 0.64777 0.64698 0.0
O581 O 0.10986 0.69217 0.61732 0.0
O582 O 0.08598 0.69238 0.604 0.0
O583 O 0.10546 0.63831 0.63188 0.0
O584 O 0.08747 0.65646 0.62372 0.0
C585 C 0.09911 0.69977 0.60905 0.0
C586 C 0.09076 0.64127 0.6275 0.0
O587 O 0.13854 0.66853 0.62837 0.0
Mg588 Mg 0.05912 0.37784 0.34714 0.0
O589 O 0.07241 0.35589 0.35879 0.0
O590 O 0.09779 0.35683 0.34948 0.0
Mg591 Mg 0.101 0.37967 0.33267 0.0
C592 C 0.08651 0.34996 0.35815 0.0
C593 C 0.02948 0.38406 0.37072 0.0
O594 O 0.03274 0.39985 0.36702 0.0
O595 O 0.07187 0.39623 0.36531 0.0
O596 O 0.09712 0.39662 0.35556 0.0
O597 O 0.05235 0.362 0.32496 0.0
O598 O 0.07494 0.37765 0.32706 0.0
C599 C 0.08662 0.40145 0.36596 0.0
C600 C 0.06626 0.36654 0.31891 0.0
O601 O 0.03834 0.37282 0.36492 0.0
Mg602 Mg 0.38524 0.62335 0.37502 0.0
O603 O 0.3794 0.65105 0.37042 0.0
O604 O 0.35417 0.65456 0.37919 0.0
Mg605 Mg 0.34395 0.62978 0.38922 0.0
C606 C 0.36733 0.66027 0.37283 0.0
C607 C 0.41874 0.64022 0.36282 0.0
O608 O 0.40965 0.64947 0.35327 0.0
O609 O 0.3881 0.6295 0.40288 0.0
O610 O 0.36263 0.6335 0.41048 0.0
O611 O 0.37485 0.61604 0.34959 0.0
O612 O 0.36095 0.61714 0.37309 0.0
C613 C 0.37773 0.63323 0.41386 0.0
C614 C 0.36105 0.6152 0.35707 0.0
O615 O 0.41218 0.6289 0.37192 0.0
Mg616 Mg 0.07445 0.59133 0.1871 0.0
O617 O 0.08525 0.61603 0.17702 0.0
O618 O 0.11132 0.61856 0.18455 0.0
Mg619 Mg 0.11745 0.59454 0.19824 0.0
C620 C 0.09883 0.62414 0.17729 0.0
C621 C 0.03842 0.5889 0.17616 0.0
O622 O 0.03771 0.58122 0.1907 0.0
O623 O 0.08653 0.57763 0.16607 0.0
O624 O 0.11265 0.57981 0.17358 0.0
O625 O 0.0694 0.60328 0.21185 0.0
O626 O 0.09205 0.59096 0.20572 0.0
C627 C 0.10135 0.5748 0.16347 0.0
C628 C 0.08382 0.59923 0.21632 0.0
O629 O 0.052 0.59459 0.17102 0.0
Mg630 Mg 0.12613 0.37718 0.89602 0.0
O631 O 0.12883 0.34879 0.89882 0.0
O632 O 0.15317 0.34448 0.91016 0.0
Mg633 Mg 0.16595 0.36999 0.9147 0.0
C634 C 0.13954 0.33901 0.90431 0.0
C635 C 0.08982 0.38439 0.89694 0.0
O636 O 0.09629 0.39815 0.9037 0.0
O637 O 0.12204 0.37842 0.92421 0.0
O638 O 0.14672 0.37406 0.93443 0.0
O639 O 0.13753 0.37642 0.87051 0.0
O640 O 0.151 0.37999 0.89446 0.0
C641 C 0.13177 0.37667 0.93654 0.0
C642 C 0.15122 0.37744 0.8785 0.0
O643 O 0.09905 0.37313 0.89183 0.0
Mg644 Mg 0.43179 0.42171 0.65517 0.0
O645 O 0.4223 0.39713 0.64306 0.0
O646 O 0.39636 0.39273 0.64969 0.0
Mg647 Mg 0.38962 0.41413 0.66708 0.0
C648 C 0.40906 0.38844 0.64212 0.0
C649 C 0.46745 0.42427 0.64512 0.0
O650 O 0.46811 0.42939 0.66082 0.0
O651 O 0.41771 0.43676 0.63629 0.0
O652 O 0.39231 0.43245 0.64497 0.0
O653 O 0.4394 0.40804 0.67788 0.0
O654 O 0.41525 0.41853 0.67457 0.0
C655 C 0.40263 0.43928 0.63507 0.0
C656 C 0.425 0.40996 0.68354 0.0
O657 O 0.45372 0.421 0.63838 0.0
Mg658 Mg 0.32923 0.06923 0.3404 0.0
O659 O 0.34352 0.08321 0.3615 0.0
O660 O 0.36856 0.07377 0.36108 0.0
Mg661 Mg 0.37011 0.05367 0.34071 0.0
C662 C 0.358 0.08322 0.36723 0.0
C663 C 0.29659 0.0837 0.33291 0.0
O664 O 0.29676 0.07022 0.32339 0.0
O665 O 0.34216 0.08455 0.32039 0.0
O666 O 0.36641 0.07326 0.3199 0.0
O667 O 0.32169 0.04912 0.3581 0.0
O668 O 0.34389 0.04872 0.343 0.0
C669 C 0.3562 0.08346 0.31415 0.0
C670 C 0.33485 0.0418 0.35429 0.0
O671 O 0.30904 0.08764 0.34173 0.0
C672 C 0.10501 0.32716 0.36611 0.0
C673 C 0.08982 0.33433 0.36731 0.0
C674 C 0.10804 0.3121 0.37415 0.0
C675 C 0.0875 0.27431 0.39126 0.0
H676 H 0.1294 0.26767 0.41187 0.0
C677 C 0.10296 0.21438 0.42809 0.0
C678 C 0.11813 0.2078 0.4249 0.0
C679 C 0.09895 0.22993 0.42158 0.0
C680 C 0.11768 0.2693 0.40605 0.0
H681 H 0.06598 0.33135 0.37818 0.0
H682 H 0.07138 0.30509 0.39239 0.0
H683 H 0.12342 0.29493 0.40019 0.0
H684 H 0.14088 0.21226 0.41212 0.0
H685 H 0.13386 0.23932 0.40073 0.0
H686 H 0.08181 0.24861 0.39713 0.0
C687 C 0.08085 0.31106 0.38502 0.0
C688 C 0.11426 0.28491 0.39936 0.0
C689 C 0.0778 0.32616 0.37695 0.0
C690 C 0.12911 0.21698 0.41487 0.0
C691 C 0.12514 0.23254 0.40844 0.0
C692 C 0.09091 0.25869 0.39802 0.0
C693 C 0.09599 0.30383 0.38363 0.0
C694 C 0.0992 0.28754 0.3917 0.0
C695 C 0.11008 0.23925 0.41182 0.0
C696 C 0.10612 0.25598 0.40529 0.0
H697 H 0.11455 0.33304 0.35876 0.0
H698 H 0.11975 0.30674 0.37261 0.0
H699 H 0.07585 0.27588 0.38527 0.0
H700 H 0.09422 0.2076 0.43576 0.0
H701 H 0.08729 0.23483 0.42447 0.0
C702 C 0.02985 0.92778 0.63245 0.0
C703 C 0.04008 0.9215 0.62017 0.0
C704 C 0.01353 0.92992 0.6288 0.0
C705 C 0.97814 0.93167 0.61944 0.0
H706 H 0.96472 0.88991 0.59751 0.0
C707 C 0.91276 0.89941 0.62013 0.0
C708 C 0.91342 0.88289 0.62614 0.0
C709 C 0.92704 0.9086 0.61636 0.0
C710 C 0.96822 0.90177 0.60343 0.0
H711 H 0.04192 0.91516 0.59378 0.0
H712 H 0.01356 0.91941 0.58727 0.0
H713 H 0.99241 0.90033 0.59508 0.0
H714 H 0.92957 0.86353 0.63395 0.0
H715 H 0.95418 0.87929 0.62704 0.0
H716 H 0.95392 0.93215 0.6288 0.0
C717 C 0.01796 0.92204 0.5999 0.0
C718 C 0.9841 0.90789 0.6019 0.0
C719 C 0.03425 0.91969 0.60361 0.0
C720 C 0.92857 0.87602 0.62892 0.0
C721 C 0.94269 0.88505 0.62498 0.0
C722 C 0.96215 0.92551 0.62094 0.0
C723 C 0.00718 0.92599 0.61275 0.0
C724 C 0.98949 0.92249 0.61056 0.0
C725 C 0.94207 0.90128 0.61837 0.0
C726 C 0.95735 0.91008 0.6136 0.0
H727 H 0.03402 0.92951 0.6453 0.0
H728 H 0.00568 0.93303 0.63904 0.0
H729 H 0.98183 0.94309 0.62606 0.0
H730 H 0.90125 0.90507 0.61795 0.0
H731 H 0.92632 0.92117 0.61141 0.0
C732 C 0.34775 0.74496 0.90958 0.0
C733 C 0.35941 0.75576 0.91733 0.0
C734 C 0.35235 0.73056 0.9011 0.0
C735 C 0.38751 0.71165 0.88118 0.0
H736 H 0.36174 0.67032 0.88529 0.0
C737 C 0.40806 0.64902 0.85367 0.0
C738 C 0.39626 0.63922 0.84488 0.0
C739 C 0.40369 0.66282 0.86324 0.0
C740 C 0.36899 0.6818 0.88391 0.0
H741 H 0.38508 0.75987 0.92223 0.0
H742 H 0.39307 0.73469 0.90763 0.0
H743 H 0.35385 0.69535 0.90033 0.0
H744 H 0.37054 0.63606 0.83965 0.0
H745 H 0.36298 0.66012 0.85629 0.0
H746 H 0.40264 0.69809 0.86476 0.0
C747 C 0.38038 0.73746 0.9079 0.0
C748 C 0.36446 0.69616 0.8925 0.0
C749 C 0.37578 0.75186 0.91635 0.0
C750 C 0.37996 0.64332 0.84623 0.0
C751 C 0.3756 0.65707 0.85585 0.0
C752 C 0.39207 0.69728 0.87263 0.0
C753 C 0.36872 0.72662 0.90018 0.0
C754 C 0.37363 0.71128 0.89119 0.0
C755 C 0.38742 0.6671 0.86432 0.0
C756 C 0.38283 0.68221 0.87385 0.0
H757 H 0.33504 0.74762 0.91004 0.0
H758 H 0.34308 0.72263 0.89509 0.0
H759 H 0.39472 0.72314 0.87968 0.0
H760 H 0.42072 0.64622 0.85297 0.0
H761 H 0.41306 0.67016 0.8698 0.0
C762 C 0.47023 0.09641 0.09071 0.0
C763 C 0.4632 0.09516 0.10664 0.0
C764 C 0.48549 0.09007 0.08789 0.0
C765 C 0.52172 0.09144 0.09084 0.0
H766 H 0.54126 0.05949 0.12064 0.0
C767 C 0.57792 0.09702 0.13431 0.0
C768 C 0.58985 0.10266 0.12316 0.0
C769 C 0.56422 0.08808 0.12833 0.0
C770 C 0.53597 0.0682 0.11196 0.0
H771 H 0.46605 0.08506 0.1317 0.0
H772 H 0.49268 0.07483 0.12714 0.0
H773 H 0.51205 0.0581 0.11593 0.0
H774 H 0.59751 0.10287 0.09728 0.0
H775 H 0.57321 0.08761 0.08664 0.0
H776 H 0.54556 0.10186 0.08734 0.0
C777 C 0.48647 0.08027 0.11658 0.0
C778 C 0.51923 0.06756 0.10938 0.0
C779 C 0.47116 0.08635 0.11929 0.0
C780 C 0.58853 0.09829 0.10611 0.0
C781 C 0.57464 0.08966 0.10004 0.0
C782 C 0.53845 0.09185 0.09316 0.0
C783 C 0.49415 0.08263 0.10104 0.0
C784 C 0.5118 0.07987 0.09965 0.0
C785 C 0.56206 0.08512 0.11102 0.0
C786 C 0.54561 0.08088 0.1045 0.0
H787 H 0.46429 0.10293 0.08063 0.0
H788 H 0.49079 0.09174 0.07563 0.0
H789 H 0.51659 0.10122 0.08333 0.0
H790 H 0.57863 0.10056 0.14746 0.0
H791 H 0.55463 0.08498 0.13705 0.0
C792 C 0.11195 0.6525 0.17298 0.0
C793 C 0.10038 0.64009 0.16807 0.0
C794 C 0.11376 0.66734 0.16384 0.0
C795 C 0.09312 0.69254 0.13113 0.0
H796 H 0.13539 0.71491 0.12826 0.0
C797 C 0.10911 0.74773 0.08638 0.0
C798 C 0.11168 0.76261 0.09562 0.0
C799 C 0.109 0.73224 0.09451 0.0
C800 C 0.12357 0.70868 0.12895 0.0
H801 H 0.08183 0.63326 0.14963 0.0
H802 H 0.08548 0.65865 0.1332 0.0
H803 H 0.13232 0.68868 0.1438 0.0
H804 H 0.11728 0.77309 0.12023 0.0
H805 H 0.11756 0.74591 0.13437 0.0
H806 H 0.08462 0.7124 0.11573 0.0
C807 C 0.09276 0.65737 0.14445 0.0
C808 C 0.12172 0.69378 0.13799 0.0
C809 C 0.0907 0.64273 0.15383 0.0
C810 C 0.11502 0.76178 0.11291 0.0
C811 C 0.11531 0.7463 0.12095 0.0
C812 C 0.09507 0.70721 0.12179 0.0
C813 C 0.1043 0.66992 0.14933 0.0
C814 C 0.10642 0.68558 0.13935 0.0
C815 C 0.11192 0.73149 0.11187 0.0
C816 C 0.11026 0.71542 0.12077 0.0
H817 H 0.1195 0.6508 0.18399 0.0
H818 H 0.1225 0.67681 0.16826 0.0
H819 H 0.08109 0.68688 0.13215 0.0
H820 H 0.10646 0.74812 0.07303 0.0
H821 H 0.10635 0.72089 0.08733 0.0
C822 C 0.45002 0.86175 0.40714 0.0
C823 C 0.44197 0.85272 0.39416 0.0
C824 C 0.46683 0.8615 0.40877 0.0
C825 C 0.50345 0.8404 0.39419 0.0
H826 H 0.52305 0.8852 0.39721 0.0
C827 C 0.56869 0.8568 0.37293 0.0
C828 C 0.57763 0.86922 0.38194 0.0
C829 C 0.55252 0.85311 0.37684 0.0
C830 C 0.51785 0.87255 0.39667 0.0
H831 H 0.4451 0.8353 0.37356 0.0
H832 H 0.47435 0.835 0.37631 0.0
H833 H 0.49411 0.88114 0.40071 0.0
H834 H 0.57687 0.88695 0.40263 0.0
H835 H 0.54887 0.88033 0.40959 0.0
H836 H 0.52726 0.8319 0.38977 0.0
C837 C 0.46773 0.84224 0.38526 0.0
C838 C 0.50123 0.87022 0.39871 0.0
C839 C 0.45094 0.84251 0.38362 0.0
C840 C 0.57026 0.87746 0.39528 0.0
C841 C 0.55417 0.87371 0.39925 0.0
C842 C 0.52014 0.84273 0.3922 0.0
C843 C 0.4759 0.85218 0.39749 0.0
C844 C 0.49379 0.85416 0.39726 0.0
C845 C 0.54502 0.8617 0.3899 0.0
C846 C 0.5275 0.85888 0.39318 0.0
H847 H 0.44345 0.86963 0.41556 0.0
H848 H 0.47278 0.86907 0.4185 0.0
H849 H 0.49808 0.82785 0.39315 0.0
H850 H 0.57404 0.8502 0.3626 0.0
H851 H 0.54577 0.84391 0.36927 0.0
C852 C 0.39667 0.25856 0.55775 0.0
C853 C 0.41 0.24855 0.56047 0.0
C854 C 0.39577 0.27405 0.566 0.0
C855 C 0.41391 0.29737 0.60274 0.0
H856 H 0.39434 0.33577 0.58234 0.0
C857 C 0.42275 0.3645 0.62869 0.0
C858 C 0.40848 0.37282 0.63205 0.0
C859 C 0.42219 0.34951 0.61959 0.0
C860 C 0.39975 0.32508 0.58817 0.0
H861 H 0.43321 0.24715 0.57311 0.0
H862 H 0.43208 0.27427 0.58672 0.0
H863 H 0.39495 0.30934 0.56672 0.0
H864 H 0.3825 0.37219 0.6281 0.0
H865 H 0.38165 0.34609 0.61176 0.0
H866 H 0.41923 0.31334 0.62391 0.0
C867 C 0.42193 0.27004 0.57892 0.0
C868 C 0.40005 0.30992 0.57929 0.0
C869 C 0.42267 0.25452 0.57098 0.0
C870 C 0.39369 0.36601 0.6258 0.0
C871 C 0.39318 0.35116 0.61638 0.0
C872 C 0.41388 0.31256 0.61144 0.0
C873 C 0.40832 0.27987 0.57689 0.0
C874 C 0.40729 0.2959 0.58641 0.0
C875 C 0.40742 0.34271 0.61338 0.0
C876 C 0.40691 0.32656 0.6042 0.0
H877 H 0.38672 0.25418 0.54974 0.0
H878 H 0.38505 0.2812 0.5642 0.0
H879 H 0.41915 0.28676 0.6089 0.0
H880 H 0.43432 0.36942 0.63336 0.0
H881 H 0.43333 0.34322 0.61734 0.0
C882 C 0.0489 0.13377 0.86601 0.0
C883 C 0.05597 0.1473 0.85718 0.0
C884 C 0.03216 0.1323 0.86784 0.0
C885 C 0.99429 0.15557 0.86368 0.0
H886 H 0.97499 0.11105 0.8566 0.0
C887 C 0.92598 0.14263 0.85048 0.0
C888 C 0.91864 0.12879 0.85863 0.0
C889 C 0.94271 0.14556 0.85148 0.0
C890 C 0.98019 0.12352 0.8588 0.0
H891 H 0.05107 0.17024 0.84386 0.0
H892 H 0.02187 0.16752 0.84676 0.0
H893 H 0.00423 0.11506 0.85671 0.0
H894 H 0.92309 0.10735 0.87448 0.0
H895 H 0.95221 0.11247 0.87619 0.0
H896 H 0.97011 0.16401 0.86541 0.0
C897 C 0.02925 0.15814 0.85248 0.0
C898 C 0.99697 0.12583 0.85892 0.0
C899 C 0.046 0.15966 0.85074 0.0
C900 C 0.92835 0.11808 0.86797 0.0
C901 C 0.94505 0.12096 0.8689 0.0
C902 C 0.97747 0.15326 0.86348 0.0
C903 C 0.0221 0.14428 0.86079 0.0
C904 C 0.00424 0.14188 0.86133 0.0
C905 C 0.95243 0.13465 0.86058 0.0
C906 C 0.97026 0.13721 0.86102 0.0
H907 H 0.05626 0.12412 0.87126 0.0
H908 H 0.02708 0.12165 0.87461 0.0
H909 H -0.0005 0.16806 0.86577 0.0
H910 H 0.91882 0.15114 0.84322 0.0
H911 H 0.94809 0.15614 0.84482 0.0
C912 C 0.38679 0.09722 0.17068 0.0
C913 C 0.39422 0.11149 0.16341 0.0
C914 C 0.38051 0.09798 0.18685 0.0
C915 C 0.38707 0.12025 0.22637 0.0
H916 H 0.34757 0.09631 0.23928 0.0
C917 C 0.34785 0.1002 0.28915 0.0
C918 C 0.36013 0.09281 0.2986 0.0
C919 C 0.35098 0.10643 0.27308 0.0
C920 C 0.3585 0.10329 0.23587 0.0
H921 H 0.40034 0.13793 0.16713 0.0
H922 H 0.38949 0.13917 0.19551 0.0
H923 H 0.35391 0.09949 0.20958 0.0
H924 H 0.38559 0.08736 0.29906 0.0
H925 H 0.39102 0.09829 0.27112 0.0
H926 H 0.39192 0.12354 0.25269 0.0
C927 C 0.38857 0.12741 0.18867 0.0
C928 C 0.36219 0.10497 0.21888 0.0
C929 C 0.3947 0.1267 0.1724 0.0
C930 C 0.37583 0.09286 0.29209 0.0
C931 C 0.37898 0.09922 0.2761 0.0
C932 C 0.38345 0.11844 0.24338 0.0
C933 C 0.38165 0.11298 0.19615 0.0
C934 C 0.37668 0.11314 0.21397 0.0
C935 C 0.36647 0.10557 0.26622 0.0
C936 C 0.36929 0.10963 0.24831 0.0
H937 H 0.38618 0.08533 0.16406 0.0
H938 H 0.37538 0.08661 0.19235 0.0
H939 H 0.39838 0.12651 0.22296 0.0
H940 H 0.33562 0.10042 0.29378 0.0
H941 H 0.34115 0.11143 0.26581 0.0
C942 C 0.13688 0.15194 0.50244 0.0
C943 C 0.14211 0.14288 0.48847 0.0
C944 C 0.13953 0.14605 0.51872 0.0
C945 C 0.16805 0.11987 0.54103 0.0
H946 H 0.13929 0.12433 0.57872 0.0
C947 C 0.19028 0.11099 0.6087 0.0
C948 C 0.18029 0.10116 0.61924 0.0
C949 C 0.18453 0.11643 0.5932 0.0
C950 C 0.1474 0.12293 0.56828 0.0
H951 H 0.15319 0.11998 0.48063 0.0
H952 H 0.15743 0.10956 0.50885 0.0
H953 H 0.13016 0.13195 0.55052 0.0
H954 H 0.15624 0.08977 0.62188 0.0
H955 H 0.14628 0.09915 0.59473 0.0
H956 H 0.18521 0.1107 0.5586 0.0
C957 C 0.15165 0.12141 0.50728 0.0
C958 C 0.14222 0.1274 0.55218 0.0
C959 C 0.14908 0.12733 0.49106 0.0
C960 C 0.16428 0.09728 0.61409 0.0
C961 C 0.15852 0.10274 0.59856 0.0
C962 C 0.17321 0.11545 0.55706 0.0
C963 C 0.14743 0.13097 0.52129 0.0
C964 C 0.1525 0.12588 0.53839 0.0
C965 C 0.16866 0.11217 0.58786 0.0
C966 C 0.16299 0.11698 0.57088 0.0
H967 H 0.13146 0.16399 0.50085 0.0
H968 H 0.13618 0.15372 0.52927 0.0
H969 H 0.17637 0.11881 0.53073 0.0
H970 H 0.20265 0.11433 0.61231 0.0
H971 H 0.19255 0.12392 0.58535 0.0
C972 C 0.12079 0.88726 0.816 0.0
C973 C 0.13675 0.89352 0.81804 0.0
C974 C 0.1155 0.8805 0.80062 0.0
C975 C 0.12897 0.86924 0.75724 0.0
H976 H 0.08651 0.88455 0.74527 0.0
C977 C 0.10649 0.88197 0.68945 0.0
C978 C 0.09047 0.87694 0.68536 0.0
C979 C 0.11249 0.87998 0.70578 0.0
C980 C 0.09828 0.87994 0.74847 0.0
H981 H 0.15997 0.89674 0.80602 0.0
H982 H 0.15061 0.88573 0.77893 0.0
H983 H 0.09631 0.88784 0.77389 0.0
H984 H 0.06841 0.86524 0.695 0.0
H985 H 0.07882 0.86206 0.72354 0.0
H986 H 0.13111 0.86235 0.73129 0.0
C987 C 0.14221 0.88553 0.78924 0.0
C988 C 0.10391 0.88173 0.76496 0.0
C989 C 0.14761 0.89191 0.80478 0.0
C990 C 0.08078 0.86932 0.69776 0.0
C991 C 0.08671 0.86752 0.7141 0.0
C992 C 0.12339 0.8677 0.74062 0.0
C993 C 0.12592 0.88032 0.78678 0.0
C994 C 0.11942 0.8766 0.76957 0.0
C995 C 0.10252 0.8731 0.71834 0.0
C996 C 0.10806 0.87322 0.73608 0.0
H997 H 0.11224 0.88816 0.82612 0.0
H998 H 0.10302 0.87609 0.7994 0.0
H999 H 0.14086 0.8649 0.76033 0.0
H1000 H 0.11429 0.88779 0.68015 0.0
H1001 H 0.12468 0.88452 0.70875 0.0
C1002 C 0.37182 0.81254 0.00873 0.0
C1003 C 0.36422 0.82108 0.9956 0.0
C1004 C 0.37137 0.81869 0.02525 0.0
C1005 C 0.34633 0.84513 0.05149 0.0
H1006 H 0.38316 0.84872 0.08191 0.0
C1007 C 0.33926 0.87302 0.11705 0.0
C1008 C 0.35109 0.88529 0.12178 0.0
C1009 C 0.34184 0.86224 0.10357 0.0
C1010 C 0.37276 0.84777 0.07355 0.0
H1011 H 0.35066 0.84305 0.98951 0.0
H1012 H 0.35022 0.85379 0.01791 0.0
H1013 H 0.38618 0.83617 0.05404 0.0
H1014 H 0.37527 0.89519 0.11659 0.0
H1015 H 0.37958 0.87669 0.09284 0.0
H1016 H 0.33302 0.85727 0.07045 0.0
C1017 C 0.35627 0.84223 0.01559 0.0
C1018 C 0.37447 0.84046 0.05767 0.0
C1019 C 0.35671 0.83613 -0.00078 0.0
C1020 C 0.36588 0.88592 0.11327 0.0
C1021 C 0.36841 0.87521 0.0997 0.0
C1022 C 0.34462 0.85239 0.06727 0.0
C1023 C 0.36324 0.8334 0.02886 0.0
C1024 C 0.36134 0.83946 0.04634 0.0
C1025 C 0.35623 0.86356 0.09439 0.0
C1026 C 0.35786 0.85408 0.07841 0.0
H1027 H 0.37767 0.80088 0.00635 0.0
H1028 H 0.37686 0.81163 0.03525 0.0
H1029 H 0.33591 0.84427 0.04314 0.0
H1030 H 0.3278 0.87203 0.12346 0.0
H1031 H 0.33234 0.85316 0.10005 0.0
C1032 C 0.36152 0.88481 0.33774 0.0
C1033 C 0.37791 0.88268 0.3416 0.0
C1034 C 0.35633 0.88597 0.32098 0.0
C1035 C 0.37172 0.89757 0.27947 0.0
H1036 H 0.33477 0.87191 0.26134 0.0
C1037 C 0.36052 0.89543 0.20896 0.0
C1038 C 0.34471 0.89801 0.2033 0.0
C1039 C 0.36357 0.89168 0.22575 0.0
C1040 C 0.34503 0.87926 0.26627 0.0
H1041 H 0.40168 0.87997 0.3309 0.0
H1042 H 0.39268 0.88209 0.30194 0.0
H1043 H 0.34164 0.86993 0.2913 0.0
H1044 H 0.31954 0.89759 0.21054 0.0
H1045 H 0.32492 0.89131 0.24006 0.0
H1046 H 0.37515 0.90707 0.25474 0.0
C1047 C 0.38384 0.88296 0.31178 0.0
C1048 C 0.34893 0.87814 0.2834 0.0
C1049 C 0.38897 0.8817 0.32842 0.0
C1050 C 0.33186 0.89564 0.21454 0.0
C1051 C 0.33495 0.89205 0.23145 0.0
C1052 C 0.36782 0.89873 0.26248 0.0
C1053 C 0.36751 0.88521 0.30786 0.0
C1054 C 0.36247 0.88711 0.29008 0.0
C1055 C 0.35091 0.89063 0.23734 0.0
C1056 C 0.3546 0.8894 0.25559 0.0
H1057 H 0.35272 0.88567 0.34761 0.0
H1058 H 0.34368 0.88781 0.31829 0.0
H1059 H 0.38202 0.9049 0.28434 0.0
H1060 H 0.37065 0.89691 0.20054 0.0
H1061 H 0.37596 0.89015 0.22977 0.0
C1062 C 0.38662 0.16621 0.49599 0.0
C1063 C 0.40308 0.1664 0.50055 0.0
C1064 C 0.38096 0.15719 0.48187 0.0
C1065 C 0.39148 0.12267 0.45341 0.0
H1066 H 0.36178 0.14297 0.42225 0.0
C1067 C 0.37868 0.09451 0.38797 0.0
C1068 C 0.36262 0.09385 0.38199 0.0
C1069 C 0.38297 0.10358 0.40247 0.0
C1070 C 0.36992 0.13704 0.43093 0.0
H1071 H 0.42645 0.15711 0.4939 0.0
H1072 H 0.4166 0.14147 0.46933 0.0
H1073 H 0.37027 0.15801 0.44783 0.0
H1074 H 0.33856 0.10261 0.38646 0.0
H1075 H 0.34607 0.11837 0.4119 0.0
H1076 H 0.39121 0.10173 0.43658 0.0
C1077 C 0.40803 0.14816 0.47673 0.0
C1078 C 0.37477 0.14566 0.44559 0.0
C1079 C 0.4137 0.15722 0.49078 0.0
C1080 C 0.35104 0.10285 0.39068 0.0
C1081 C 0.35535 0.11193 0.40524 0.0
C1082 C 0.38662 0.11406 0.4388 0.0
C1083 C 0.39161 0.14808 0.47207 0.0
C1084 C 0.38576 0.13864 0.45691 0.0
C1085 C 0.37134 0.11222 0.41142 0.0
C1086 C 0.37593 0.12121 0.42727 0.0
H1087 H 0.37812 0.17314 0.50325 0.0
H1088 H 0.36821 0.15723 0.47871 0.0
H1089 H 0.39971 0.11676 0.46202 0.0
H1090 H 0.38797 0.08787 0.38156 0.0
H1091 H 0.39546 0.10382 0.40667 0.0
C1092 C 0.12608 0.16521 0.79795 0.0
C1093 C 0.13341 0.15606 0.8108 0.0
C1094 C 0.1344 0.16886 0.78316 0.0
C1095 C 0.1739 0.16674 0.76168 0.0
H1096 H 0.14791 0.14558 0.72624 0.0
C1097 C 0.20097 0.12855 0.7088 0.0
C1098 C 0.19167 0.12489 0.69437 0.0
C1099 C 0.19518 0.13925 0.72111 0.0
C1100 C 0.15536 0.15204 0.73565 0.0
H1101 H 0.15572 0.14507 0.81894 0.0
H1102 H 0.17016 0.15138 0.79318 0.0
H1103 H 0.13538 0.15305 0.75221 0.0
H1104 H 0.17009 0.13066 0.68038 0.0
H1105 H 0.16048 0.15029 0.7012 0.0
H1106 H 0.19403 0.16527 0.74519 0.0
C1107 C 0.15803 0.15577 0.7945 0.0
C1108 C 0.14809 0.1563 0.75067 0.0
C1109 C 0.14969 0.15204 0.80924 0.0
C1110 C 0.17733 0.13324 0.69157 0.0
C1111 C 0.17179 0.14433 0.7036 0.0
C1112 C 0.18118 0.16271 0.74648 0.0
C1113 C 0.15021 0.16351 0.78102 0.0
C1114 C 0.15738 0.16304 0.76408 0.0
C1115 C 0.18014 0.14672 0.71898 0.0
C1116 C 0.17212 0.15461 0.73353 0.0
H1117 H 0.1136 0.16865 0.79884 0.0
H1118 H 0.12815 0.17499 0.77302 0.0
H1119 H 0.18131 0.17209 0.77179 0.0
H1120 H 0.21205 0.12213 0.71119 0.0
H1121 H 0.20196 0.14059 0.73276 0.0
C1122 C 0.12485 0.83603 0.02173 0.0
C1123 C 0.10862 0.83493 0.02671 0.0
C1124 C 0.12902 0.84273 0.00611 0.0
C1125 C 0.11157 0.85159 0.96427 0.0
H1126 H 0.14928 0.88146 0.95986 0.0
C1127 C 0.12232 0.89344 0.90652 0.0
C1128 C 0.13814 0.89553 0.90046 0.0
C1129 C 0.1193 0.88467 0.92135 0.0
C1130 C 0.13885 0.87294 0.96084 0.0
H1131 H 0.08408 0.84031 0.01933 0.0
H1132 H 0.09136 0.85222 0.99224 0.0
H1133 H 0.14287 0.8693 0.98714 0.0
H1134 H 0.16317 0.88963 0.90506 0.0
H1135 H 0.15784 0.87427 0.93101 0.0
H1136 H 0.1074 0.85546 0.93802 0.0
C1137 C 0.10085 0.8476 0.00025 0.0
C1138 C 0.13516 0.86599 0.97647 0.0
C1139 C 0.09668 0.84089 0.01585 0.0
C1140 C 0.15084 0.88828 0.90938 0.0
C1141 C 0.14782 0.87957 0.9243 0.0
C1142 C 0.11523 0.85858 0.94866 0.0
C1143 C 0.11705 0.84849 0.99514 0.0
C1144 C 0.12137 0.85538 0.97841 0.0
C1145 C 0.13203 0.87783 0.93051 0.0
C1146 C 0.12881 0.86947 0.94681 0.0
H1147 H 0.13435 0.83151 0.02979 0.0
H1148 H 0.14159 0.84309 0.00249 0.0
H1149 H 0.10105 0.84319 0.96524 0.0
H1150 H 0.11224 0.89882 0.89998 0.0
H1151 H 0.10703 0.8837 0.9259 0.0
C1152 C 0.31221 0.37332 0.1099 0.0
C1153 C 0.32094 0.35925 0.10549 0.0
C1154 C 0.29607 0.37149 0.11462 0.0
C1155 C 0.26001 0.34338 0.11134 0.0
H1156 H 0.24582 0.36985 0.14895 0.0
C1157 C 0.19359 0.35876 0.12307 0.0
C1158 C 0.18855 0.36097 0.13971 0.0
C1159 C 0.20955 0.35493 0.1197 0.0
C1160 C 0.24959 0.36214 0.13859 0.0
H1161 H 0.31947 0.33222 0.10231 0.0
H1162 H 0.29121 0.32906 0.11056 0.0
H1163 H 0.27422 0.37078 0.14149 0.0
H1164 H 0.1959 0.35937 0.16587 0.0
H1165 H 0.22368 0.35249 0.15996 0.0
H1166 H 0.23528 0.33487 0.10838 0.0
C1167 C 0.29689 0.3415 0.11031 0.0
C1168 C 0.26585 0.36287 0.13417 0.0
C1169 C 0.31308 0.34332 0.10565 0.0
C1170 C 0.19944 0.35796 0.15291 0.0
C1171 C 0.21539 0.35411 0.14953 0.0
C1172 C 0.24369 0.34269 0.11573 0.0
C1173 C 0.28826 0.35556 0.115 0.0
C1174 C 0.27119 0.35374 0.12033 0.0
C1175 C 0.22078 0.35318 0.13288 0.0
C1176 C 0.23827 0.35226 0.12926 0.0
H1177 H 0.31787 0.38578 0.10986 0.0
H1178 H 0.28967 0.3826 0.11789 0.0
H1179 H 0.26377 0.33624 0.10057 0.0
H1180 H 0.18548 0.3609 0.1126 0.0
H1181 H 0.21331 0.35438 0.10673 0.0
C1182 C 0.71223 0.12743 0.86286 0.0
C1183 C 0.70431 0.11157 0.86215 0.0
C1184 C 0.72642 0.13058 0.85383 0.0
C1185 C 0.76183 0.12936 0.84566 0.0
H1186 H 0.7732 0.10221 0.80738 0.0
C1187 C 0.81934 0.09316 0.8312 0.0
C1188 C 0.83143 0.10583 0.83285 0.0
C1189 C 0.80347 0.0972 0.82741 0.0
C1190 C 0.77012 0.11012 0.81786 0.0
H1191 H 0.7047 0.0868 0.85093 0.0
H1192 H 0.72962 0.09192 0.83601 0.0
H1193 H 0.74487 0.10418 0.81501 0.0
H1194 H 0.83687 0.13246 0.8309 0.0
H1195 H 0.80891 0.13966 0.82477 0.0
H1196 H 0.78714 0.13499 0.84865 0.0
C1197 C 0.72478 0.10221 0.84299 0.0
C1198 C 0.75393 0.11111 0.8224 0.0
C1199 C 0.71049 0.09917 0.85175 0.0
C1200 C 0.82776 0.12247 0.82931 0.0
C1201 C 0.81178 0.12659 0.82594 0.0
C1202 C 0.77795 0.12865 0.8409 0.0
C1203 C 0.73316 0.11784 0.84416 0.0
C1204 C 0.74965 0.12003 0.8369 0.0
C1205 C 0.79941 0.11405 0.82573 0.0
C1206 C 0.78231 0.11841 0.82745 0.0
H1207 H 0.70768 0.1373 0.87062 0.0
H1208 H 0.7323 0.1429 0.8548 0.0
H1209 H 0.75918 0.13623 0.85697 0.0
H1210 H 0.8219 0.0803 0.83424 0.0
H1211 H 0.79414 0.08732 0.82753 0.0
C1212 C 0.12109 0.44434 0.12367 0.0
C1213 C 0.13628 0.43776 0.12072 0.0
C1214 C 0.11815 0.46092 0.11958 0.0
C1215 C 0.13948 0.50028 0.12066 0.0
H1216 H 0.09895 0.51723 0.10451 0.0
C1217 C 0.12128 0.56404 0.1431 0.0
C1218 C 0.10547 0.56387 0.14929 0.0
C1219 C 0.1259 0.55163 0.13192 0.0
C1220 C 0.11036 0.51274 0.10905 0.0
H1221 H 0.16002 0.4431 0.11032 0.0
H1222 H 0.15498 0.47233 0.10371 0.0
H1223 H 0.10535 0.48814 0.09888 0.0
H1224 H 0.08176 0.5515 0.14758 0.0
H1225 H 0.08992 0.52946 0.12894 0.0
H1226 H 0.14395 0.52403 0.1323 0.0
C1227 C 0.14534 0.46453 0.10897 0.0
C1228 C 0.11405 0.49613 0.10569 0.0
C1229 C 0.1482 0.44784 0.11281 0.0
C1230 C 0.09406 0.55191 0.14307 0.0
C1231 C 0.09875 0.5393 0.1322 0.0
C1232 C 0.13568 0.51674 0.12429 0.0
C1233 C 0.1304 0.47131 0.1127 0.0
C1234 C 0.12833 0.48959 0.11212 0.0
C1235 C 0.11492 0.53857 0.12706 0.0
C1236 C 0.1207 0.52294 0.11925 0.0
H1237 H 0.11163 0.43693 0.12965 0.0
H1238 H 0.1066 0.46591 0.1228 0.0
H1239 H 0.15053 0.4955 0.12587 0.0
H1240 H 0.13024 0.57335 0.14743 0.0
H1241 H 0.13832 0.5518 0.12782 0.0
C1242 C 0.67315 0.90199 0.3423 0.0
C1243 C 0.66053 0.89028 0.34543 0.0
C1244 C 0.68811 0.89665 0.33707 0.0
C1245 C 0.71322 0.86401 0.34828 0.0
H1246 H 0.74377 0.8862 0.31845 0.0
C1247 C 0.78042 0.86573 0.36516 0.0
C1248 C 0.78782 0.88178 0.36384 0.0
C1249 C 0.76579 0.86187 0.35679 0.0
C1250 C 0.73542 0.87984 0.32687 0.0
H1251 H 0.65318 0.86397 0.34484 0.0
H1252 H 0.6797 0.8545 0.33626 0.0
H1253 H 0.71482 0.88891 0.31366 0.0
H1254 H 0.78622 0.90604 0.35189 0.0
H1255 H 0.76063 0.8997 0.33805 0.0
H1256 H 0.73351 0.85643 0.36262 0.0
C1257 C 0.67784 0.86781 0.33735 0.0
C1258 C 0.71886 0.88126 0.32398 0.0
C1259 C 0.6627 0.87323 0.34216 0.0
C1260 C 0.78081 0.89355 0.35324 0.0
C1261 C 0.76613 0.88981 0.34509 0.0
C1262 C 0.72976 0.86288 0.35139 0.0
C1263 C 0.69082 0.87946 0.33538 0.0
C1264 C 0.70766 0.87397 0.33511 0.0
C1265 C 0.75814 0.87409 0.34714 0.0
C1266 C 0.74108 0.87151 0.34123 0.0
H1267 H 0.67174 0.91517 0.34498 0.0
H1268 H 0.69798 0.90586 0.33588 0.0
H1269 H 0.70483 0.8584 0.35716 0.0
H1270 H 0.7856 0.85632 0.3731 0.0
H1271 H 0.76019 0.84952 0.35839 0.0
C1272 C 0.90423 0.96201 0.14648 0.0
C1273 C 0.89336 0.94923 0.15177 0.0
C1274 C 0.89896 0.97479 0.13607 0.0
C1275 C 0.86124 0.99547 0.12506 0.0
H1276 H 0.88909 0.02052 0.09456 0.0
C1277 C 0.83996 0.05471 0.09256 0.0
C1278 C 0.85034 0.06879 0.09541 0.0
C1279 C 0.84528 0.03861 0.09563 0.0
C1280 C 0.88118 0.01357 0.10299 0.0
H1281 H 0.86881 0.93904 0.1493 0.0
H1282 H 0.85976 0.96094 0.13065 0.0
H1283 H 0.89819 0.99437 0.10666 0.0
H1284 H 0.87471 0.07702 0.10265 0.0
H1285 H 0.88397 0.04887 0.10797 0.0
H1286 H 0.84434 0.01473 0.12153 0.0
C1287 C 0.8722 0.9615 0.13502 0.0
C1288 C 0.88639 -0.00135 0.10998 0.0
C1289 C 0.87739 0.9489 0.14565 0.0
C1290 C 0.8664 0.06641 0.10046 0.0
C1291 C 0.87175 0.0503 0.10337 0.0
C1292 C 0.85598 0.01023 0.11792 0.0
C1293 C 0.88277 0.9749 0.13053 0.0
C1294 C 0.87662 0.98961 0.12141 0.0
C1295 C 0.86111 0.03629 0.10142 0.0
C1296 C 0.86602 0.0196 0.1071 0.0
H1297 H 0.91662 0.96258 0.15102 0.0
H1298 H 0.90742 0.98497 0.13306 0.0
H1299 H 0.85349 0.98909 0.13405 0.0
H1300 H 0.82755 0.05612 0.08858 0.0
H1301 H 0.83688 0.02799 0.0939 0.0
C1302 C 0.17369 0.64991 0.6476 0.0
C1303 C 0.16441 0.66159 0.63904 0.0
C1304 C 0.19055 0.65123 0.64728 0.0
C1305 C 0.22328 0.66854 0.62101 0.0
H1306 H 0.25046 0.65447 0.65791 0.0
C1307 C 0.29157 0.66295 0.61268 0.0
C1308 C 0.29714 0.64725 0.61747 0.0
C1309 C 0.2765 0.66809 0.61799 0.0
C1310 C 0.24301 0.65849 0.64752 0.0
H1311 H 0.16552 0.68429 0.62414 0.0
H1312 H 0.19491 0.68673 0.62382 0.0
H1313 H 0.22152 0.65719 0.66221 0.0
H1314 H 0.29185 0.62516 0.63251 0.0
H1315 H 0.26563 0.63409 0.64169 0.0
H1316 H 0.24464 0.66939 0.6062 0.0
C1317 C 0.18918 0.67635 0.63047 0.0
C1318 C 0.22645 0.65999 0.64996 0.0
C1319 C 0.17233 0.67498 0.63071 0.0
C1320 C 0.28785 0.63729 0.62852 0.0
C1321 C 0.27286 0.64246 0.63389 0.0
C1322 C 0.23983 0.6671 0.6186 0.0
C1323 C 0.19849 0.66431 0.63847 0.0
C1324 C 0.21633 0.66465 0.63661 0.0
C1325 C 0.2668 0.65768 0.62828 0.0
C1326 C 0.24981 0.66167 0.63171 0.0
H1327 H 0.16795 0.63946 0.65414 0.0
H1328 H 0.19734 0.64161 0.65339 0.0
H1329 H 0.21584 0.67192 0.61038 0.0
H1330 H 0.2985 0.67092 0.60422 0.0
H1331 H 0.27221 0.67998 0.61362 0.0
C1332 C 0.08264 0.42892 0.38 0.0
C1333 C 0.09171 0.41457 0.37813 0.0
C1334 C 0.08918 0.44293 0.38866 0.0
C1335 C 0.12971 0.46115 0.40009 0.0
H1336 H 0.10487 0.49638 0.41959 0.0
C1337 C 0.16059 0.52204 0.424 0.0
C1338 C 0.15489 0.53636 0.416 0.0
C1339 C 0.15161 0.50689 0.42329 0.0
C1340 C 0.11192 0.48657 0.41425 0.0
H1341 H 0.1139 0.40281 0.38507 0.0
H1342 H 0.12486 0.42667 0.4012 0.0
H1343 H 0.09143 0.4695 0.41213 0.0
H1344 H 0.1348 0.54633 0.40203 0.0
H1345 H 0.11904 0.5198 0.40095 0.0
H1346 H 0.15016 0.47818 0.40228 0.0
C1347 C 0.1131 0.42763 0.39528 0.0
C1348 C 0.10425 0.4712 0.40987 0.0
C1349 C 0.10678 0.41386 0.38621 0.0
C1350 C 0.13956 0.53548 0.40821 0.0
C1351 C 0.13049 0.52034 0.40768 0.0
C1352 C 0.13738 0.47631 0.40475 0.0
C1353 C 0.10477 0.44267 0.39591 0.0
C1354 C 0.113 0.45837 0.40244 0.0
C1355 C 0.13668 0.50581 0.41477 0.0
C1356 C 0.12854 0.48926 0.4116 0.0
H1357 H 0.07102 0.42976 0.37375 0.0
H1358 H 0.08238 0.45424 0.38871 0.0
H1359 H 0.13687 0.45189 0.39399 0.0
H1360 H 0.1723 0.52231 0.43019 0.0
H1361 H 0.15658 0.49587 0.42895 0.0
C1362 C 0.42019 0.54741 0.84624 0.0
C1363 C 0.40669 0.557 0.84269 0.0
C1364 C 0.41814 0.53066 0.85117 0.0
C1365 C 0.38779 0.49847 0.86546 0.0
H1366 H 0.41004 0.46866 0.83575 0.0
C1367 C 0.36098 0.43416 0.84668 0.0
C1368 C 0.37107 0.42055 0.84481 0.0
C1369 C 0.36749 0.45022 0.8499 0.0
C1370 C 0.40397 0.47673 0.84441 0.0
H1371 H 0.38052 0.55705 0.84298 0.0
H1372 H 0.37695 0.52803 0.85172 0.0
H1373 H 0.41788 0.4984 0.83661 0.0
H1374 H 0.39598 0.41316 0.84472 0.0
H1375 H 0.40743 0.4414 0.85034 0.0
H1376 H 0.37346 0.47693 0.87279 0.0
C1377 C 0.38912 0.53333 0.85063 0.0
C1378 C 0.40848 0.49379 0.84493 0.0
C1379 C 0.39117 0.54996 0.84552 0.0
C1380 C 0.38788 0.42338 0.84616 0.0
C1381 C 0.39444 0.43955 0.84933 0.0
C1382 C 0.38331 0.48143 0.86497 0.0
C1383 C 0.40256 0.52331 0.85289 0.0
C1384 C 0.40005 0.50493 0.85501 0.0
C1385 C 0.38428 0.45313 0.8513 0.0
C1386 C 0.39094 0.47049 0.85398 0.0
H1387 H 0.43232 0.55248 0.84415 0.0
H1388 H 0.42871 0.52327 0.853 0.0
H1389 H 0.38124 0.50671 0.87355 0.0
H1390 H 0.34796 0.43246 0.8457 0.0
H1391 H 0.35933 0.46044 0.85096 0.0
C1392 C 0.89152 0.6663 0.61206 0.0
C1393 C 0.88806 0.65625 0.6261 0.0
C1394 C 0.88509 0.68213 0.61059 0.0
C1395 C 0.87073 0.71548 0.63798 0.0
H1396 H 0.86658 0.73834 0.59538 0.0
C1397 C 0.86654 0.78772 0.63215 0.0
C1398 C 0.87955 0.79436 0.62278 0.0
C1399 C 0.86276 0.77047 0.63184 0.0
C1400 C 0.86749 0.73205 0.60736 0.0
H1401 H 0.87396 0.65434 0.64885 0.0
H1402 H 0.86237 0.6818 0.64604 0.0
H1403 H 0.86751 0.70782 0.59586 0.0
H1404 H 0.89828 0.78835 0.60517 0.0
H1405 H 0.89147 0.75842 0.60438 0.0
H1406 H 0.87103 0.73986 0.64937 0.0
C1407 C 0.87047 0.67766 0.63643 0.0
C1408 C 0.86814 0.71461 0.60766 0.0
C1409 C 0.87705 0.66187 0.63799 0.0
C1410 C 0.8883 0.78358 0.61265 0.0
C1411 C 0.8843 0.76648 0.61206 0.0
C1412 C 0.86981 0.73291 0.63768 0.0
C1413 C 0.87488 0.68824 0.62303 0.0
C1414 C 0.87052 0.70616 0.62292 0.0
C1415 C 0.87166 0.75974 0.6218 0.0
C1416 C 0.86887 0.74137 0.62233 0.0
H1417 H 0.89993 0.66238 0.60264 0.0
H1418 H 0.88897 0.68993 0.6002 0.0
H1419 H 0.87273 0.70951 0.64996 0.0
H1420 H 0.85959 0.79578 0.64004 0.0
H1421 H 0.853 0.76549 0.63951 0.0
C1422 C 0.98739 0.11585 0.35562 0.0
C1423 C 0.98178 0.09916 0.35321 0.0
C1424 C 0.00094 0.11957 0.36578 0.0
C1425 C 0.03747 0.10025 0.38234 0.0
H1426 H 0.04031 0.13932 0.41147 0.0
C1427 C 0.09219 0.11311 0.42615 0.0
C1428 C 0.0987 0.12964 0.42668 0.0
C1429 C 0.07725 0.10948 0.41842 0.0
C1430 C 0.03974 0.12844 0.40329 0.0
H1431 H 0.9857 0.07334 0.36002 0.0
H1432 H 0.00921 0.07985 0.37787 0.0
H1433 H 0.01532 0.13272 0.39583 0.0
H1434 H 0.09432 0.15538 0.41987 0.0
H1435 H 0.06829 0.14899 0.40623 0.0
H1436 H 0.06188 0.09602 0.38964 0.0
C1437 C 0.00331 0.09004 0.37168 0.0
C1438 C 0.02543 0.12466 0.39434 0.0
C1439 C 0.98978 0.08632 0.36151 0.0
C1440 C 0.08968 0.14252 0.41968 0.0
C1441 C 0.07471 0.13887 0.41194 0.0
C1442 C 0.05174 0.10402 0.39129 0.0
C1443 C 0.00917 0.10669 0.37377 0.0
C1444 C 0.02415 0.11053 0.38372 0.0
C1445 C 0.06844 0.12227 0.41102 0.0
C1446 C 0.05307 0.11817 0.40184 0.0
H1447 H 0.98151 0.12605 0.34941 0.0
H1448 H 0.00523 0.13251 0.36698 0.0
H1449 H 0.03702 0.08946 0.37403 0.0
H1450 H 0.09872 0.10288 0.43151 0.0
H1451 H 0.07262 0.09661 0.41818 0.0
C1452 C 0.60986 0.20582 0.13461 0.0
C1453 C 0.5991 0.19579 0.12477 0.0
C1454 C 0.60938 0.22332 0.13399 0.0
C1455 C 0.58242 0.2571 0.12029 0.0
H1456 H 0.62125 0.28553 0.12503 0.0
C1457 C 0.58204 0.32732 0.10693 0.0
C1458 C 0.58653 0.33738 0.12088 0.0
C1459 C 0.5856 0.31038 0.1066 0.0
C1460 C 0.61035 0.27768 0.1237 0.0
H1461 H 0.57987 0.1962 0.10608 0.0
H1462 H 0.57948 0.22647 0.10445 0.0
H1463 H 0.62317 0.25502 0.12619 0.0
H1464 H 0.5994 0.33785 0.14478 0.0
H1465 H 0.60588 0.30821 0.14397 0.0
H1466 H 0.56972 0.27975 0.11735 0.0
C1467 C 0.58785 0.22099 0.1132 0.0
C1468 C 0.61139 0.26023 0.12448 0.0
C1469 C 0.58812 0.20358 0.11406 0.0
C1470 C 0.59568 0.33041 0.13391 0.0
C1471 C 0.59945 0.31349 0.13344 0.0
C1472 C 0.58145 0.27445 0.1192 0.0
C1473 C 0.59832 0.23113 0.1233 0.0
C1474 C 0.59742 0.24971 0.12274 0.0
C1475 C 0.59394 0.30324 0.12005 0.0
C1476 C 0.59538 0.28488 0.12086 0.0
H1477 H 0.61844 0.20014 0.14299 0.0
H1478 H 0.61749 0.23068 0.14211 0.0
H1479 H 0.57133 0.24952 0.11939 0.0
H1480 H 0.57501 0.33227 0.09667 0.0
H1481 H 0.58134 0.3027 0.09608 0.0
C1482 C 0.41168 0.82266 0.92375 0.0
C1483 C 0.40387 0.83546 0.93228 0.0
C1484 C 0.42604 0.82617 0.91516 0.0
C1485 C 0.44869 0.86123 0.89527 0.0
H1486 H 0.48375 0.83043 0.89477 0.0
C1487 C 0.50843 0.87718 0.86142 0.0
C1488 C 0.51485 0.86433 0.85172 0.0
C1489 C 0.49571 0.8737 0.8724 0.0
C1490 C 0.47401 0.83909 0.89469 0.0
H1491 H 0.4054 0.86189 0.9389 0.0
H1492 H 0.43046 0.86791 0.92409 0.0
H1493 H 0.46009 0.82419 0.91198 0.0
H1494 H 0.51312 0.83767 0.84623 0.0
H1495 H 0.49083 0.83166 0.86522 0.0
H1496 H 0.46246 0.87604 0.87784 0.0
C1497 C 0.42534 0.85522 0.9238 0.0
C1498 C 0.46045 0.83552 0.90454 0.0
C1499 C 0.411 0.85173 0.93238 0.0
C1500 C 0.50847 0.84787 0.85351 0.0
C1501 C 0.49574 0.8444 0.86448 0.0
C1502 C 0.46222 0.8648 0.88542 0.0
C1503 C 0.43292 0.84254 0.9149 0.0
C1504 C 0.4476 0.84652 0.90489 0.0
C1505 C 0.4891 0.8573 0.87394 0.0
C1506 C 0.47501 0.85374 0.88494 0.0
H1507 H 0.40654 0.80999 0.92338 0.0
H1508 H 0.43149 0.81614 0.9083 0.0
H1509 H 0.43889 0.86983 0.89501 0.0
H1510 H 0.51313 0.88998 0.86042 0.0
H1511 H 0.49103 0.88389 0.87968 0.0
C1512 C 0.83812 0.17172 0.86896 0.0
C1513 C 0.85147 0.16143 0.86776 0.0
C1514 C 0.84038 0.18907 0.87066 0.0
C1515 C 0.87015 0.22398 0.86424 0.0
H1516 H 0.84276 0.24749 0.8949 0.0
C1517 C 0.87828 0.29514 0.87483 0.0
C1518 C 0.86395 0.3039 0.87311 0.0
C1519 C 0.87768 0.27772 0.87673 0.0
C1520 C 0.85048 0.2411 0.88627 0.0
H1521 H 0.87767 0.16143 0.86712 0.0
H1522 H 0.88156 0.19165 0.87016 0.0
H1523 H 0.83977 0.21708 0.89222 0.0
H1524 H 0.83777 0.30137 0.87326 0.0
H1525 H 0.83676 0.27111 0.87656 0.0
H1526 H 0.88071 0.24803 0.85814 0.0
C1527 C 0.86935 0.18631 0.86965 0.0
C1528 C 0.84873 0.2237 0.88467 0.0
C1529 C 0.8671 0.16896 0.86792 0.0
C1530 C 0.84905 0.29501 0.87444 0.0
C1531 C 0.84845 0.27765 0.87642 0.0
C1532 C 0.87193 0.24138 0.86587 0.0
C1533 C 0.85602 0.19655 0.87121 0.0
C1534 C 0.85839 0.21496 0.87346 0.0
C1535 C 0.86275 0.26876 0.87708 0.0
C1536 C 0.86197 0.25016 0.87674 0.0
H1537 H 0.82591 0.16637 0.86879 0.0
H1538 H 0.82984 0.19664 0.8715 0.0
H1539 H 0.87767 0.21767 0.85537 0.0
H1540 H 0.88997 0.3016 0.8739 0.0
H1541 H 0.8889 0.27122 0.87746 0.0
C1542 C 0.44382 0.15205 0.56833 0.0
C1543 C 0.43421 0.16144 0.57899 0.0
C1544 C 0.45273 0.13893 0.57482 0.0
C1545 C 0.4578 0.11174 0.61211 0.0
H1546 H 0.50366 0.11915 0.60463 0.0
C1547 C 0.50574 0.09603 0.66135 0.0
C1548 C 0.52117 0.09156 0.65626 0.0
C1549 C 0.49401 0.1001 0.64947 0.0
C1550 C 0.4909 0.11655 0.60661 0.0
H1551 H 0.42532 0.16371 0.60436 0.0
H1552 H 0.44058 0.1408 0.61556 0.0
H1553 H 0.48432 0.13369 0.58735 0.0
H1554 H 0.5361 0.08694 0.63464 0.0
H1555 H 0.51554 0.09382 0.6139 0.0
H1556 H 0.46438 0.09505 0.63179 0.0
C1557 C 0.44138 0.14353 0.60228 0.0
C1558 C 0.4798 0.1249 0.59666 0.0
C1559 C 0.43274 0.15675 0.59589 0.0
C1560 C 0.52437 0.0905 0.63899 0.0
C1561 C 0.51261 0.0945 0.62709 0.0
C1562 C 0.46888 0.1033 0.622 0.0
C1563 C 0.45187 0.13481 0.59196 0.0
C1564 C 0.46317 0.12307 0.59974 0.0
C1565 C 0.49739 0.0997 0.6322 0.0
C1566 C 0.48559 0.10611 0.6198 0.0
H1567 H 0.44516 0.15545 0.55525 0.0
H1568 H 0.4607 0.13236 0.56659 0.0
H1569 H 0.44502 0.10995 0.61462 0.0
H1570 H 0.50286 0.09696 0.67454 0.0
H1571 H 0.48252 0.10428 0.6539 0.0
C1572 C 0.66093 0.83686 0.40091 0.0
C1573 C 0.64888 0.84444 0.39139 0.0
C1574 C 0.66074 0.81944 0.40281 0.0
C1575 C 0.63452 0.78066 0.39536 0.0
H1576 H 0.67561 0.75908 0.39591 0.0
C1577 C 0.66186 0.71316 0.37646 0.0
C1578 C 0.64884 0.70245 0.3811 0.0
C1579 C 0.6623 0.73005 0.38108 0.0
C1580 C 0.66399 0.76485 0.39562 0.0
H1581 H 0.62726 0.83975 0.37626 0.0
H1582 H 0.62734 0.80951 0.37876 0.0
H1583 H 0.67513 0.78938 0.39663 0.0
H1584 H 0.62659 0.70079 0.39514 0.0
H1585 H 0.62775 0.73009 0.40397 0.0
H1586 H 0.62341 0.75623 0.39292 0.0
C1587 C 0.63661 0.81689 0.38541 0.0
C1588 C 0.66371 0.78233 0.39634 0.0
C1589 C 0.63662 0.83429 0.38383 0.0
C1590 C 0.63671 0.70879 0.39124 0.0
C1591 C 0.63733 0.72564 0.39618 0.0
C1592 C 0.63481 0.76321 0.39426 0.0
C1593 C 0.64867 0.80917 0.39491 0.0
C1594 C 0.64897 0.79051 0.39587 0.0
C1595 C 0.64991 0.73663 0.39076 0.0
C1596 C 0.64957 0.75505 0.39402 0.0
H1597 H 0.67046 0.8444 0.40701 0.0
H1598 H 0.67006 0.81406 0.41049 0.0
H1599 H 0.62289 0.7864 0.39545 0.0
H1600 H 0.67134 0.70872 0.36852 0.0
H1601 H 0.67205 0.73804 0.37634 0.0
C1602 C 0.0767 0.85442 0.12039 0.0
C1603 C 0.07965 0.84892 0.10397 0.0
C1604 C 0.06494 0.86607 0.12341 0.0
C1605 C 0.04073 0.89329 0.12691 0.0
H1606 H 0.00046 0.87715 0.10621 0.0
C1607 C 0.97827 0.91377 0.14986 0.0
C1608 C 0.96803 0.89993 0.15378 0.0
C1609 C 0.99222 0.9116 0.14045 0.0
C1610 C 0.01163 0.88196 0.11194 0.0
H1611 H 0.07351 0.85237 0.07769 0.0
H1612 H 0.05279 0.87268 0.08301 0.0
H1613 H 0.02596 0.86725 0.09583 0.0
H1614 H 0.96393 0.87314 0.15033 0.0
H1615 H 0.98808 0.86939 0.13388 0.0
H1616 H 0.02623 0.90718 0.14373 0.0
C1617 C 0.05956 0.86788 0.09354 0.0
C1618 C 0.02625 0.87643 0.10589 0.0
C1619 C 0.07147 0.85631 0.0905 0.0
C1620 C 0.97164 0.88403 0.14761 0.0
C1621 C 0.9854 0.88191 0.13804 0.0
C1622 C 0.02607 0.8989 0.13291 0.0
C1623 C 0.05578 0.8724 0.11008 0.0
C1624 C 0.04092 0.88148 0.11378 0.0
C1625 C 0.99596 0.89561 0.13455 0.0
C1626 C 0.01137 0.89271 0.12593 0.0
H1627 H 0.08292 0.84909 0.13103 0.0
H1628 H 0.06226 0.86917 0.13631 0.0
H1629 H 0.05186 0.89752 0.13312 0.0
H1630 H 0.97577 0.92618 0.15446 0.0
H1631 H 0.00016 0.92237 0.13791 0.0
C1632 C 0.61101 0.83871 0.65172 0.0
C1633 C 0.59972 0.83883 0.6384 0.0
C1634 C 0.60616 0.84156 0.6682 0.0
C1635 C 0.57225 0.85873 0.69244 0.0
H1636 H 0.59413 0.83824 0.72998 0.0
C1637 C 0.55079 0.86367 0.76108 0.0
C1638 C 0.56264 0.87047 0.77217 0.0
C1639 C 0.55498 0.85846 0.74498 0.0
C1640 C 0.58794 0.84401 0.71958 0.0
H1641 H 0.5744 0.84103 0.63205 0.0
H1642 H 0.5658 0.84519 0.66082 0.0
H1643 H 0.60182 0.83137 0.70134 0.0
H1644 H 0.58825 0.87634 0.77539 0.0
H1645 H 0.5956 0.8669 0.74742 0.0
H1646 H 0.55811 0.871 0.71083 0.0
C1647 C 0.57852 0.84369 0.65853 0.0
C1648 C 0.5924 0.84021 0.70316 0.0
C1649 C 0.58341 0.84118 0.64203 0.0
C1650 C 0.57882 0.87137 0.76709 0.0
C1651 C 0.58306 0.86585 0.75113 0.0
C1652 C 0.5676 0.86226 0.70883 0.0
C1653 C 0.58985 0.84415 0.67184 0.0
C1654 C 0.58472 0.84765 0.68935 0.0
C1655 C 0.57114 0.85962 0.73985 0.0
C1656 C 0.5755 0.85506 0.72253 0.0
H1657 H 0.62367 0.83686 0.6494 0.0
H1658 H 0.61531 0.84206 0.67802 0.0
H1659 H 0.56627 0.86501 0.68223 0.0
H1660 H 0.53821 0.86285 0.76466 0.0
H1661 H 0.54559 0.85362 0.73649 0.0
C1662 C 0.8708 0.85307 0.564 0.0
C1663 C 0.88636 0.84934 0.56973 0.0
C1664 C 0.8672 0.85323 0.54684 0.0
C1665 C 0.88587 0.85728 0.50529 0.0
H1666 H 0.84427 0.83894 0.48983 0.0
C1667 C 0.84567 0.84533 0.44018 0.0
C1668 C 0.8478 0.86128 0.43294 0.0
C1669 C 0.85232 0.84201 0.45598 0.0
C1670 C 0.85604 0.84389 0.49387 0.0
H1671 H 0.91039 0.84301 0.56183 0.0
H1672 H 0.90403 0.84324 0.53188 0.0
H1673 H 0.85181 0.83677 0.51935 0.0
H1674 H 0.8594 0.88595 0.43626 0.0
H1675 H 0.87077 0.88022 0.46377 0.0
H1676 H 0.89008 0.86442 0.47978 0.0
C1677 C 0.89467 0.84615 0.54069 0.0
C1678 C 0.86026 0.84285 0.51084 0.0
C1679 C 0.89828 0.84597 0.55787 0.0
C1680 C 0.85743 0.87354 0.44147 0.0
C1681 C 0.86407 0.87023 0.45723 0.0
C1682 C 0.88164 0.85833 0.4883 0.0
C1683 C 0.87906 0.84968 0.535 0.0
C1684 C 0.8751 0.84979 0.51679 0.0
C1685 C 0.86126 0.85456 0.46484 0.0
C1686 C 0.86657 0.85188 0.48246 0.0
H1687 H 0.86132 0.85578 0.57275 0.0
H1688 H 0.85513 0.8563 0.54284 0.0
H1689 H 0.89737 0.86281 0.50949 0.0
H1690 H 0.83842 0.83555 0.43392 0.0
H1691 H 0.85016 0.82973 0.46142 0.0
C1692 C 0.8854 0.13265 0.14221 0.0
C1693 C 0.87492 0.14602 0.14105 0.0
C1694 C 0.89472 0.13046 0.15667 0.0
C1695 C 0.90774 0.1499 0.19759 0.0
H1696 H 0.90697 0.10347 0.21177 0.0
C1697 C 0.91484 0.1078 0.26134 0.0
C1698 C 0.92894 0.1151 0.26864 0.0
C1699 C 0.90971 0.1126 0.24542 0.0
C1700 C 0.90723 0.11652 0.20806 0.0
H1701 H 0.86663 0.16813 0.1537 0.0
H1702 H 0.88252 0.16401 0.17925 0.0
H1703 H 0.89602 0.11049 0.18449 0.0
H1704 H 0.94867 0.1333 0.26496 0.0
H1705 H 0.93979 0.14154 0.23687 0.0
H1706 H 0.91831 0.15587 0.22169 0.0
C1707 C 0.8838 0.15538 0.16887 0.0
C1708 C 0.90118 0.12054 0.19226 0.0
C1709 C 0.87464 0.15772 0.15424 0.0
C1710 C 0.93774 0.12746 0.25968 0.0
C1711 C 0.93261 0.13224 0.24364 0.0
C1712 C 0.91375 0.14586 0.21352 0.0
C1713 C 0.89355 0.1414 0.17045 0.0
C1714 C 0.9012 0.13728 0.18684 0.0
C1715 C 0.91861 0.12472 0.23627 0.0
C1716 C 0.91331 0.12913 0.21901 0.0
H1717 H 0.88605 0.12357 0.13212 0.0
H1718 H 0.90245 0.11983 0.15725 0.0
H1719 H 0.90808 0.1629 0.19376 0.0
H1720 H 0.90781 0.09818 0.26781 0.0
H1721 H 0.8987 0.10677 0.24026 0.0
C1722 C 0.65759 0.14579 0.94549 0.0
C1723 C 0.64989 0.13425 0.93439 0.0
C1724 C 0.65183 0.14784 0.96178 0.0
C1725 C 0.62647 0.1251 0.99316 0.0
H1726 H 0.63154 0.16687 0.01802 0.0
C1727 C 0.59976 0.1348 0.05901 0.0
C1728 C 0.61056 0.14148 0.07126 0.0
C1729 C 0.60409 0.13453 0.04212 0.0
C1730 C 0.63013 0.15512 0.01121 0.0
H1731 H 0.62948 0.11668 0.93122 0.0
H1732 H 0.61896 0.12082 0.95927 0.0
H1733 H 0.63903 0.166 0.98846 0.0
H1734 H 0.6343 0.15331 0.07537 0.0
H1735 H 0.64174 0.15308 0.04572 0.0
H1736 H 0.61724 0.11438 0.01589 0.0
C1737 C 0.62986 0.12779 0.95573 0.0
C1738 C 0.63446 0.15458 0.9943 0.0
C1739 C 0.63579 0.12552 0.93957 0.0
C1740 C 0.62574 0.14801 0.06624 0.0
C1741 C 0.62996 0.14799 0.04928 0.0
C1742 C 0.62192 0.12573 0.00997 0.0
C1743 C 0.63806 0.1386 0.96724 0.0
C1744 C 0.63278 0.13952 0.98506 0.0
C1745 C 0.6192 0.14117 0.03709 0.0
C1746 C 0.62379 0.1407 0.01918 0.0
H1747 H 0.66855 0.15262 0.94189 0.0
H1748 H 0.65859 0.15615 0.97028 0.0
H1749 H 0.62535 0.11317 0.98667 0.0
H1750 H 0.588 0.12961 0.06248 0.0
H1751 H 0.59556 0.12926 0.03294 0.0
C1752 C 0.643 0.14835 0.84066 0.0
C1753 C 0.64016 0.13449 0.85122 0.0
C1754 C 0.63425 0.14984 0.82565 0.0
C1755 C 0.59871 0.13282 0.80125 0.0
H1756 H 0.62706 0.13819 0.76307 0.0
C1757 C 0.60077 0.10695 0.73031 0.0
C1758 C 0.58545 0.11072 0.72394 0.0
C1759 C 0.60659 0.11421 0.74525 0.0
C1760 C 0.61896 0.13684 0.77361 0.0
H1761 H 0.62498 0.11208 0.85493 0.0
H1762 H 0.6098 0.11468 0.82882 0.0
H1763 H 0.63776 0.14325 0.79136 0.0
H1764 H 0.56436 0.1254 0.72813 0.0
H1765 H 0.57449 0.13791 0.75454 0.0
H1766 H 0.58011 0.12558 0.78346 0.0
C1767 C 0.61878 0.12439 0.8321 0.0
C1768 C 0.62504 0.13988 0.7898 0.0
C1769 C 0.62759 0.12284 0.84703 0.0
C1770 C 0.57623 0.12227 0.73268 0.0
C1771 C 0.58198 0.12938 0.74781 0.0
C1772 C 0.5926 0.12989 0.78502 0.0
C1773 C 0.62238 0.1376 0.82098 0.0
C1774 C 0.61512 0.13738 0.80384 0.0
C1775 C 0.59716 0.12527 0.75432 0.0
C1776 C 0.60281 0.13133 0.77109 0.0
H1777 H 0.65255 0.1576 0.84352 0.0
H1778 H 0.63716 0.16026 0.81741 0.0
H1779 H 0.59075 0.13093 0.81183 0.0
H1780 H 0.60815 0.09804 0.72403 0.0
H1781 H 0.61822 0.1106 0.75007 0.0
C1782 C 0.62507 0.90356 0.44151 0.0
C1783 C 0.63985 0.9084 0.43417 0.0
C1784 C 0.62345 0.90361 0.45893 0.0
C1785 C 0.64849 0.90169 0.49759 0.0
H1786 H 0.60714 0.90719 0.51876 0.0
C1787 C 0.63469 0.87571 0.56346 0.0
C1788 C 0.62358 0.88386 0.57352 0.0
C1789 C 0.63764 0.88116 0.54709 0.0
C1790 C 0.61889 0.90589 0.51319 0.0
H1791 H 0.6642 0.91817 0.4393 0.0
H1792 H 0.66119 0.9189 0.46969 0.0
H1793 H 0.61018 0.91376 0.48925 0.0
H1794 H 0.60756 0.90468 0.57471 0.0
H1795 H 0.61318 0.91459 0.54648 0.0
H1796 H 0.65732 0.8943 0.52165 0.0
C1797 C 0.651 0.91449 0.46203 0.0
C1798 C 0.62055 0.90941 0.49613 0.0
C1799 C 0.6527 0.9142 0.44459 0.0
C1800 C 0.61599 0.89797 0.56715 0.0
C1801 C 0.61916 0.9036 0.55091 0.0
C1802 C 0.64689 0.89841 0.51472 0.0
C1803 C 0.6365 0.90875 0.46945 0.0
C1804 C 0.63526 0.90698 0.488 0.0
C1805 C 0.62977 0.89507 0.54052 0.0
C1806 C 0.63197 0.90009 0.52267 0.0
H1807 H 0.61495 0.89892 0.43386 0.0
H1808 H 0.61216 0.89887 0.46413 0.0
H1809 H 0.65997 0.89949 0.49178 0.0
H1810 H 0.64069 0.86477 0.56803 0.0
H1811 H 0.6457 0.87408 0.53943 0.0
C1812 C 0.85345 0.85288 0.34008 0.0
C1813 C 0.85454 0.86677 0.351 0.0
C1814 C 0.86273 0.8526 0.32554 0.0
C1815 C 0.89727 0.87348 0.30368 0.0
H1816 H 0.87109 0.8652 0.2636 0.0
C1817 C 0.92151 0.88503 0.23652 0.0
C1818 C 0.91158 0.89523 0.22681 0.0
C1819 C 0.91586 0.87798 0.25151 0.0
C1820 C 0.87859 0.8674 0.27468 0.0
H1821 H 0.86708 0.89072 0.35581 0.0
H1822 H 0.88317 0.89022 0.33048 0.0
H1823 H 0.85973 0.8591 0.29111 0.0
H1824 H 0.8879 0.90586 0.2252 0.0
H1825 H 0.87802 0.89338 0.25103 0.0
H1826 H 0.91588 0.88254 0.2872 0.0
C1827 C 0.87518 0.87953 0.33315 0.0
C1828 C 0.87215 0.86376 0.29042 0.0
C1829 C 0.86584 0.87987 0.34761 0.0
C1830 C 0.89581 0.89791 0.2322 0.0
C1831 C 0.89011 0.89072 0.24702 0.0
C1832 C 0.90376 0.87701 0.2879 0.0
C1833 C 0.87338 0.86613 0.32171 0.0
C1834 C 0.88125 0.86725 0.30511 0.0
C1835 C 0.90011 0.88083 0.25691 0.0
C1836 C 0.89429 0.8745 0.2733 0.0
H1837 H 0.84493 0.84253 0.34235 0.0
H1838 H 0.86122 0.84202 0.31702 0.0
H1839 H 0.9046 0.87616 0.31479 0.0
H1840 H 0.93375 0.88275 0.23273 0.0
H1841 H 0.9238 0.87039 0.25891 0.0
C1842 C 0.84879 0.12525 0.92872 0.0
C1843 C 0.85874 0.1138 0.92089 0.0
C1844 C 0.85203 0.13068 0.94505 0.0
C1845 C 0.88344 0.13207 0.979 0.0
H1846 H 0.84614 0.14128 0.00605 0.0
C1847 C 0.87682 0.13596 0.05189 0.0
C1848 C 0.8676 0.14918 0.05774 0.0
C1849 C 0.88002 0.13435 0.03479 0.0
C1850 C 0.85668 0.139 0.99855 0.0
H1851 H 0.88 0.0991 0.92397 0.0
H1852 H 0.88517 0.10782 0.95317 0.0
H1853 H 0.84219 0.13121 0.97755 0.0
H1854 H 0.85621 0.17216 0.05061 0.0
H1855 H 0.86151 0.16909 0.02069 0.0
H1856 H 0.89775 0.13887 0.0009 0.0
C1857 C 0.8751 0.11299 0.94643 0.0
C1858 C 0.85445 0.13325 0.98216 0.0
C1859 C 0.87206 0.10784 0.92979 0.0
C1860 C 0.86329 0.16181 0.04649 0.0
C1861 C 0.86628 0.16005 0.02937 0.0
C1862 C 0.88564 0.13748 0.99568 0.0
C1863 C 0.86506 0.12447 0.95428 0.0
C1864 C 0.86777 0.12992 0.97203 0.0
C1865 C 0.8739 0.14585 0.02333 0.0
C1866 C 0.87224 0.14117 0.00545 0.0
H1867 H 0.83869 0.13046 0.92204 0.0
H1868 H 0.84434 0.13996 0.95034 0.0
H1869 H 0.89399 0.12976 0.97157 0.0
H1870 H 0.88043 0.12613 0.06031 0.0
H1871 H 0.88588 0.12328 0.03038 0.0
C1872 C 0.7685 0.60145 0.90097 0.0
C1873 C 0.7737 0.59314 0.88655 0.0
C1874 C 0.75559 0.61215 0.90006 0.0
C1875 C 0.71881 0.61887 0.87585 0.0
H1876 H 0.71755 0.6586 0.90389 0.0
C1877 C 0.6718 0.66962 0.90507 0.0
C1878 C 0.66052 0.65779 0.9115 0.0
C1879 C 0.68529 0.66431 0.89635 0.0
C1880 C 0.71775 0.64778 0.89566 0.0
H1881 H 0.76971 0.58992 0.85973 0.0
H1882 H 0.74702 0.60858 0.85819 0.0
H1883 H 0.74302 0.64488 0.9001 0.0
H1884 H 0.65353 0.63136 0.91229 0.0
H1885 H 0.67685 0.62216 0.89712 0.0
H1886 H 0.6934 0.62143 0.87192 0.0
C1887 C 0.75294 0.60674 0.8702 0.0
C1888 C 0.73231 0.63979 0.89368 0.0
C1889 C 0.76595 0.59609 0.87109 0.0
C1890 C 0.66211 0.64076 0.90762 0.0
C1891 C 0.67545 0.63549 0.8988 0.0
C1892 C 0.70422 0.62684 0.87787 0.0
C1893 C 0.74753 0.61477 0.88471 0.0
C1894 C 0.73287 0.6249 0.88427 0.0
C1895 C 0.68758 0.64712 0.89376 0.0
C1896 C 0.70341 0.64101 0.88832 0.0
H1897 H 0.77424 0.5995 0.91306 0.0
H1898 H 0.75157 0.61795 0.91152 0.0
H1899 H 0.71884 0.6074 0.86853 0.0
H1900 H 0.67088 0.68284 0.90786 0.0
H1901 H 0.69435 0.67358 0.89243 0.0
C1902 C 0.26792 0.87765 0.14955 0.0
C1903 C 0.27716 0.88378 0.13606 0.0
C1904 C 0.25326 0.86881 0.1466 0.0
C1905 C 0.22907 0.8462 0.11349 0.0
H1906 H 0.19285 0.85775 0.1411 0.0
C1907 C 0.16272 0.8283 0.09573 0.0
C1908 C 0.15257 0.82271 0.10875 0.0
C1909 C 0.17833 0.83474 0.0993 0.0
C1910 C 0.20288 0.85423 0.13341 0.0
H1911 H 0.27847 0.88503 0.10889 0.0
H1912 H 0.25288 0.86986 0.10378 0.0
H1913 H 0.21953 0.87034 0.14712 0.0
H1914 H 0.15099 0.81935 0.13575 0.0
H1915 H 0.17814 0.8305 0.14189 0.0
H1916 H 0.21229 0.83028 0.0996 0.0
C1917 C 0.25701 0.87168 0.11664 0.0
C1918 C 0.21819 0.86142 0.13688 0.0
C1919 C 0.27165 0.88049 0.11958 0.0
C1920 C 0.15843 0.8236 0.12539 0.0
C1921 C 0.17398 0.83007 0.12895 0.0
C1922 C 0.21373 0.83905 0.10998 0.0
C1923 C 0.24754 0.86592 0.13011 0.0
C1924 C 0.23145 0.85757 0.12691 0.0
C1925 C 0.18409 0.83577 0.11596 0.0
C1926 C 0.20046 0.84305 0.11985 0.0
H1927 H 0.27188 0.8799 0.1624 0.0
H1928 H 0.24637 0.86431 0.15726 0.0
H1929 H 0.23907 0.84278 0.10571 0.0
H1930 H 0.15862 0.82781 0.08277 0.0
H1931 H 0.18578 0.8392 0.08904 0.0
C1932 C 0.80953 0.5048 0.91058 0.0
C1933 C 0.82171 0.51446 0.9026 0.0
C1934 C 0.81271 0.48884 0.91673 0.0
C1935 C 0.84521 0.45936 0.92621 0.0
H1936 H 0.81688 0.42681 0.90326 0.0
C1937 C 0.86708 0.39767 0.90036 0.0
C1938 C 0.85582 0.38478 0.89589 0.0
C1939 C 0.86205 0.41206 0.90852 0.0
C1940 C 0.82473 0.43551 0.91028 0.0
H1941 H 0.84708 0.51553 0.89615 0.0
H1942 H 0.85264 0.48795 0.90695 0.0
H1943 H 0.80946 0.45576 0.90466 0.0
H1944 H 0.83098 0.37578 0.89846 0.0
H1945 H 0.82235 0.40047 0.91349 0.0
H1946 H 0.86075 0.43917 0.93139 0.0
C1947 C 0.84063 0.49261 0.90843 0.0
C1948 C 0.82044 0.45222 0.91102 0.0
C1949 C 0.83739 0.50841 0.90208 0.0
C1950 C 0.83987 0.38567 0.90149 0.0
C1951 C 0.8349 0.39991 0.90998 0.0
C1952 C 0.84942 0.44256 0.92569 0.0
C1953 C 0.8282 0.48241 0.91526 0.0
C1954 C 0.83096 0.46443 0.91832 0.0
C1955 C 0.8457 0.41373 0.91265 0.0
C1956 C 0.83959 0.43054 0.91701 0.0
H1957 H 0.79732 0.50913 0.91122 0.0
H1958 H 0.80292 0.48126 0.92201 0.0
H1959 H 0.85345 0.46852 0.93211 0.0
H1960 H 0.87948 0.39736 0.89622 0.0
H1961 H 0.87078 0.42238 0.91024 0.0
C1962 C 0.26222 0.1332 0.63814 0.0
C1963 C 0.25433 0.12147 0.62735 0.0
C1964 C 0.27488 0.14358 0.63231 0.0
C1965 C 0.29434 0.1599 0.59369 0.0
H1966 H 0.33238 0.16419 0.62242 0.0
C1967 C 0.35702 0.18328 0.57012 0.0
C1968 C 0.3669 0.19312 0.58109 0.0
C1969 C 0.34224 0.17634 0.57551 0.0
C1970 C 0.32178 0.16337 0.61434 0.0
H1971 H 0.25323 0.11183 0.60184 0.0
H1972 H 0.27545 0.12981 0.59174 0.0
H1973 H 0.30846 0.14883 0.63232 0.0
H1974 H 0.36856 0.204 0.60611 0.0
H1975 H 0.34273 0.19206 0.6154 0.0
H1976 H 0.30783 0.17425 0.57559 0.0
C1977 C 0.27175 0.13109 0.60466 0.0
C1978 C 0.30805 0.15455 0.62002 0.0
C1979 C 0.25907 0.1207 0.61049 0.0
C1980 C 0.36135 0.19636 0.59736 0.0
C1981 C 0.34657 0.18945 0.60273 0.0
C1982 C 0.3081 0.16874 0.58799 0.0
C1983 C 0.27995 0.14248 0.61557 0.0
C1984 C 0.29421 0.15261 0.60973 0.0
C1985 C 0.33698 0.17909 0.59199 0.0
C1986 C 0.32202 0.17048 0.59822 0.0
H1987 H 0.25879 0.13421 0.65118 0.0
H1988 H 0.28078 0.15241 0.64097 0.0
H1989 H 0.2838 0.1588 0.58554 0.0
H1990 H 0.3609 0.18051 0.5575 0.0
H1991 H 0.33521 0.1683 0.56696 0.0
C1992 C 0.13951 0.96637 0.88119 0.0
C1993 C 0.15601 0.96321 0.88016 0.0
C1994 C 0.13447 0.98174 0.8872 0.0
C1995 C 0.14899 0.02233 0.90704 0.0
H1996 H 0.11579 0.0402 0.87831 0.0
C1997 C 0.14493 0.09137 0.88869 0.0
C1998 C 0.12981 0.09759 0.88427 0.0
C1999 C 0.14612 0.07499 0.89455 0.0
C2000 C 0.12478 0.03536 0.88679 0.0
H2001 H 0.18019 0.97325 0.8855 0.0
H2002 H 0.17151 0.00036 0.89532 0.0
H2003 H 0.12171 0.01088 0.87626 0.0
H2004 H 0.10392 0.09217 0.88459 0.0
H2005 H 0.10604 0.06364 0.89489 0.0
H2006 H 0.15265 0.04732 0.91673 0.0
C2007 C 0.16236 0.99088 0.89188 0.0
C2008 C 0.12821 0.01845 0.88561 0.0
C2009 C 0.16737 0.97537 0.88612 0.0
C2010 C 0.11579 0.08771 0.88761 0.0
C2011 C 0.11699 0.07133 0.89346 0.0
C2012 C 0.14562 0.03935 0.90812 0.0
C2013 C 0.14585 0.99444 0.89204 0.0
C2014 C 0.14066 0.01178 0.89537 0.0
C2015 C 0.1322 0.06452 0.89613 0.0
C2016 C 0.13377 0.04612 0.89766 0.0
H2017 H 0.13044 0.9571 0.87713 0.0
H2018 H 0.12165 0.98384 0.88759 0.0
H2019 H 0.15845 0.01756 0.91498 0.0
H2020 H 0.15597 0.09869 0.88649 0.0
H2021 H 0.15803 0.07014 0.89647 0.0
C2022 C 0.81664 0.35058 0.4017 0.0
C2023 C 0.81796 0.33327 0.40404 0.0
C2024 C 0.80412 0.35671 0.39196 0.0
C2025 C 0.77709 0.36739 0.36909 0.0
H2026 H 0.73706 0.34843 0.38687 0.0
C2027 C 0.71665 0.40085 0.36262 0.0
C2028 C 0.70898 0.40285 0.37812 0.0
C2029 C 0.72915 0.38967 0.36101 0.0
C2030 C 0.74811 0.35375 0.38163 0.0
H2031 H 0.8081 0.30872 0.39683 0.0
H2032 H 0.78596 0.31948 0.37987 0.0
H2033 H 0.76201 0.3337 0.39089 0.0
H2034 H 0.70795 0.39424 0.4039 0.0
H2035 H 0.7297 0.37483 0.40111 0.0
H2036 H 0.76331 0.38802 0.36085 0.0
C2037 C 0.79464 0.32829 0.38563 0.0
C2038 C 0.76238 0.34522 0.38375 0.0
C2039 C 0.80735 0.32213 0.39525 0.0
C2040 C 0.71367 0.39306 0.39181 0.0
C2041 C 0.72603 0.3818 0.39016 0.0
C2042 C 0.76278 0.37589 0.36691 0.0
C2043 C 0.79253 0.34565 0.38448 0.0
C2044 C 0.77715 0.35233 0.37817 0.0
C2045 C 0.73405 0.38014 0.37482 0.0
C2046 C 0.7483 0.36951 0.37384 0.0
H2047 H 0.82475 0.35945 0.40822 0.0
H2048 H 0.8028 0.37015 0.39145 0.0
H2049 H 0.78827 0.37308 0.36452 0.0
H2050 H 0.71326 0.40819 0.35182 0.0
H2051 H 0.7351 0.38861 0.34903 0.0
C2052 C 0.83798 0.45197 0.63499 0.0
C2053 C 0.8224 0.44673 0.62956 0.0
C2054 C 0.84458 0.46755 0.63031 0.0
C2055 C 0.85836 0.49783 0.61161 0.0
H2056 H 0.83353 0.53623 0.62364 0.0
C2057 C 0.88548 0.56505 0.60769 0.0
C2058 C 0.88443 0.57406 0.62283 0.0
C2059 C 0.87605 0.55038 0.60502 0.0
C2060 C 0.84053 0.52562 0.62007 0.0
H2061 H 0.80154 0.45375 0.61484 0.0
H2062 H 0.81303 0.48134 0.60701 0.0
H2063 H 0.82095 0.50801 0.62484 0.0
H2064 H 0.87198 0.57523 0.64662 0.0
H2065 H 0.85553 0.54966 0.6419 0.0
H2066 H 0.87812 0.51528 0.60749 0.0
C2067 C 0.82014 0.47317 0.61472 0.0
C2068 C 0.83331 0.50952 0.62063 0.0
C2069 C 0.81361 0.45739 0.61917 0.0
C2070 C 0.87317 0.56853 0.63487 0.0
C2071 C 0.86364 0.55396 0.63211 0.0
C2072 C 0.86551 0.51391 0.61088 0.0
C2073 C 0.83566 0.47839 0.62033 0.0
C2074 C 0.84232 0.49546 0.6169 0.0
C2075 C 0.86525 0.54453 0.61733 0.0
C2076 C 0.85682 0.52791 0.61558 0.0
H2077 H 0.84503 0.44426 0.64316 0.0
H2078 H 0.85648 0.47138 0.63505 0.0
H2079 H 0.86552 0.48717 0.60859 0.0
H2080 H 0.89399 0.56898 0.59813 0.0
H2081 H 0.87744 0.5434 0.59346 0.0
C2082 C 0.68037 0.5322 0.12414 0.0
C2083 C 0.67416 0.54217 0.13697 0.0
C2084 C 0.6735 0.51621 0.12073 0.0
C2085 C 0.64825 0.48297 0.14091 0.0
H2086 H 0.64067 0.46629 0.09562 0.0
C2087 C 0.61622 0.41928 0.131 0.0
C2088 C 0.60393 0.41862 0.1187 0.0
C2089 C 0.62767 0.43255 0.13137 0.0
C2090 C 0.64268 0.47078 0.10834 0.0
H2091 H 0.65576 0.54322 0.15609 0.0
H2092 H 0.64357 0.51587 0.14981 0.0
H2093 H 0.65439 0.49364 0.10002 0.0
H2094 H 0.5945 0.43079 0.0966 0.0
H2095 H 0.61406 0.45437 0.09764 0.0
H2096 H 0.63584 0.46081 0.14935 0.0
C2097 C 0.65394 0.52014 0.1426 0.0
C2098 C 0.65069 0.48638 0.11086 0.0
C2099 C 0.66082 0.53597 0.14606 0.0
C2100 C 0.60386 0.43098 0.10621 0.0
C2101 C 0.61515 0.44446 0.10678 0.0
C2102 C 0.64017 0.46753 0.13841 0.0
C2103 C 0.66033 0.50994 0.13009 0.0
C2104 C 0.65324 0.49279 0.12719 0.0
C2105 C 0.62688 0.44568 0.1197 0.0
C2106 C 0.63704 0.46132 0.12211 0.0
H2107 H 0.69068 0.53661 0.11693 0.0
H2108 H 0.67875 0.50863 0.11105 0.0
H2109 H 0.65032 0.48736 0.15367 0.0
H2110 H 0.61671 0.40977 0.14064 0.0
H2111 H 0.63681 0.43279 0.14121 0.0
C2112 C 0.61321 0.74011 0.91045 0.0
C2113 C 0.62949 0.73571 0.91077 0.0
C2114 C 0.6084 0.75407 0.90145 0.0
C2115 C 0.62046 0.78237 0.86701 0.0
H2116 H 0.59032 0.81214 0.88746 0.0
C2117 C 0.60471 0.84551 0.83712 0.0
C2118 C 0.58847 0.85002 0.83751 0.0
C2119 C 0.60987 0.83172 0.84618 0.0
C2120 C 0.5986 0.80385 0.88149 0.0
H2121 H 0.65345 0.74246 0.90169 0.0
H2122 H 0.64502 0.76689 0.88598 0.0
H2123 H 0.59906 0.78769 0.90284 0.0
H2124 H 0.56492 0.84349 0.84783 0.0
H2125 H 0.5739 0.81933 0.86344 0.0
H2126 H 0.61991 0.79846 0.84561 0.0
C2127 C 0.63598 0.75945 0.89263 0.0
C2128 C 0.60362 0.78985 0.89031 0.0
C2129 C 0.64082 0.74549 0.9017 0.0
C2130 C 0.57754 0.84044 0.84727 0.0
C2131 C 0.5827 0.82662 0.85631 0.0
C2132 C 0.6154 0.79636 0.85816 0.0
C2133 C 0.61973 0.76394 0.8925 0.0
C2134 C 0.61457 0.77893 0.88316 0.0
C2135 C 0.59892 0.82207 0.85583 0.0
C2136 C 0.60439 0.80725 0.86529 0.0
H2137 H 0.60415 0.73282 0.91724 0.0
H2138 H 0.59575 0.75705 0.90139 0.0
H2139 H 0.62874 0.77408 0.86107 0.0
H2140 H 0.61349 0.85264 0.8298 0.0
H2141 H 0.6225 0.82872 0.84574 0.0
C2142 C 0.52582 0.40522 0.11093 0.0
C2143 C 0.53209 0.4103 0.12667 0.0
C2144 C 0.51096 0.4108 0.1053 0.0
C2145 C 0.47321 0.42115 0.1243 0.0
H2146 H 0.45897 0.42149 0.07778 0.0
C2147 C 0.40828 0.40099 0.10725 0.0
C2148 C 0.4081 0.38755 0.09579 0.0
C2149 C 0.42207 0.41158 0.10904 0.0
C2150 C 0.46273 0.42163 0.09085 0.0
H2151 H 0.52853 0.42658 0.14808 0.0
H2152 H 0.5025 0.43632 0.13822 0.0
H2153 H 0.48751 0.42687 0.08468 0.0
H2154 H 0.4214 0.37589 0.07593 0.0
H2155 H 0.44535 0.39396 0.07917 0.0
H2156 H 0.44875 0.41473 0.13043 0.0
C2157 C 0.509 0.42785 0.13034 0.0
C2158 C 0.47906 0.4247 0.0948 0.0
C2159 C 0.52393 0.42229 0.13596 0.0
C2160 C 0.42133 0.3858 0.08519 0.0
C2161 C 0.435 0.39641 0.08686 0.0
C2162 C 0.45691 0.41808 0.12035 0.0
C2163 C 0.50202 0.42155 0.11532 0.0
C2164 C 0.4846 0.42355 0.11149 0.0
C2165 C 0.43579 0.40901 0.09925 0.0
C2166 C 0.45166 0.41732 0.10352 0.0
H2167 H 0.53182 0.39607 0.1034 0.0
H2168 H 0.50592 0.40556 0.09373 0.0
H2169 H 0.47703 0.42006 0.13728 0.0
H2170 H 0.39816 0.40271 0.1155 0.0
H2171 H 0.42226 0.42129 0.11859 0.0
C2172 C 0.91977 0.15207 0.34285 0.0
C2173 C 0.90855 0.14395 0.33189 0.0
C2174 C 0.91581 0.16667 0.35137 0.0
C2175 C 0.88064 0.18993 0.3653 0.0
H2176 H 0.91218 0.22668 0.37133 0.0
C2177 C 0.86386 0.25276 0.39497 0.0
C2178 C 0.87466 0.25956 0.40714 0.0
C2179 C 0.86822 0.23933 0.3849 0.0
C2180 C 0.90329 0.21646 0.36985 0.0
H2181 H 0.88441 0.14502 0.32113 0.0
H2182 H 0.87761 0.17052 0.33582 0.0
H2183 H 0.91937 0.20183 0.35551 0.0
H2184 H 0.89871 0.2579 0.41796 0.0
H2185 H 0.90627 0.23442 0.40044 0.0
H2186 H 0.86459 0.2045 0.37967 0.0
C2187 C 0.88938 0.16546 0.33804 0.0
C2188 C 0.90741 0.20223 0.36081 0.0
C2189 C 0.89333 0.15086 0.32955 0.0
C2190 C 0.89008 0.25293 0.40872 0.0
C2191 C 0.89446 0.23954 0.39861 0.0
C2192 C 0.87652 0.20417 0.37429 0.0
C2193 C 0.90054 0.17349 0.34912 0.0
C2194 C 0.89614 0.18877 0.35848 0.0
C2195 C 0.88351 0.23245 0.38674 0.0
C2196 C 0.88781 0.21757 0.37672 0.0
H2197 H 0.9316 0.14709 0.34499 0.0
H2198 H 0.92461 0.17243 0.35997 0.0
H2199 H 0.87177 0.17968 0.36399 0.0
H2200 H 0.85191 0.25762 0.39338 0.0
H2201 H 0.8596 0.2343 0.37569 0.0
C2202 C 0.96019 0.59986 0.62653 0.0
C2203 C 0.95282 0.59394 0.64126 0.0
C2204 C 0.97615 0.59616 0.6231 0.0
C2205 C 0.01271 0.58996 0.64707 0.0
H2206 H 0.03166 0.59012 0.60279 0.0
C2207 C 0.07769 0.61471 0.63819 0.0
C2208 C 0.07822 0.62771 0.62637 0.0
C2209 C 0.0644 0.60333 0.63856 0.0
C2210 C 0.02659 0.58989 0.61527 0.0
H2211 H 0.95584 0.57816 0.66311 0.0
H2212 H 0.98377 0.57174 0.65709 0.0
H2213 H 0.00304 0.58242 0.60593 0.0
H2214 H 0.06633 0.63781 0.60451 0.0
H2215 H 0.04316 0.61845 0.60531 0.0
H2216 H 0.03587 0.59857 0.6563 0.0
C2217 C 0.97726 0.57941 0.64832 0.0
C2218 C 0.01021 0.58548 0.61706 0.0
C2219 C 0.96125 0.58307 0.65173 0.0
C2220 C 0.06598 0.62832 0.61412 0.0
C2221 C 0.05283 0.61694 0.61438 0.0
C2222 C 0.02906 0.59439 0.64527 0.0
C2223 C 0.98508 0.5865 0.63434 0.0
C2224 C 0.00293 0.58634 0.63287 0.0
C2225 C 0.05158 0.60468 0.62696 0.0
C2226 C 0.03595 0.59529 0.62925 0.0
H2227 H 0.95402 0.60821 0.61817 0.0
H2228 H 0.98183 0.60197 0.61229 0.0
H2229 H 0.00749 0.59086 0.65943 0.0
H2230 H 0.08709 0.61389 0.64769 0.0
H2231 H 0.06385 0.59392 0.64832 0.0
C2232 C 0.6122 0.22956 0.5697 0.0
C2233 C 0.60372 0.24203 0.578 0.0
C2234 C 0.61471 0.21414 0.5775 0.0
C2235 C 0.60647 0.17968 0.59421 0.0
H2236 H 0.62007 0.17968 0.64099 0.0
C2237 C 0.59095 0.12624 0.6404 0.0
C2238 C 0.60251 0.12204 0.6526 0.0
C2239 C 0.59401 0.13951 0.62937 0.0
C2240 C 0.61651 0.17941 0.62786 0.0
H2241 H 0.59092 0.24781 0.60082 0.0
H2242 H 0.59574 0.22137 0.61445 0.0
H2243 H 0.62038 0.20595 0.62546 0.0
H2244 H 0.62663 0.12811 0.66228 0.0
H2245 H 0.63187 0.15142 0.64309 0.0
H2246 H 0.60197 0.15319 0.59684 0.0
C2247 C 0.60057 0.22354 0.60202 0.0
C2248 C 0.61658 0.19446 0.61902 0.0
C2249 C 0.59784 0.23874 0.59418 0.0
C2250 C 0.61744 0.13104 0.65309 0.0
C2251 C 0.62044 0.14442 0.64214 0.0
C2252 C 0.60622 0.16461 0.60313 0.0
C2253 C 0.60901 0.21108 0.59379 0.0
C2254 C 0.6112 0.19481 0.60223 0.0
C2255 C 0.60865 0.14897 0.63035 0.0
C2256 C 0.61091 0.16439 0.62016 0.0
H2257 H 0.61679 0.23166 0.55718 0.0
H2258 H 0.62121 0.20467 0.57087 0.0
H2259 H 0.6022 0.17963 0.5813 0.0
H2260 H 0.57936 0.11953 0.6396 0.0
H2261 H 0.58463 0.14282 0.62054 0.0
C2262 C 0.06191 0.39473 0.90052 0.0
C2263 C 0.07205 0.38177 0.89602 0.0
C2264 C 0.04513 0.39219 0.90007 0.0
C2265 C 0.01267 0.36461 0.88153 0.0
H2266 H 0.98652 0.38482 0.91566 0.0
C2267 C 0.94366 0.35315 0.88304 0.0
C2268 C 0.93471 0.3677 0.88439 0.0
C2269 C 0.96029 0.35377 0.88628 0.0
C2270 C 0.99367 0.37915 0.90602 0.0
H2271 H 0.07251 0.35592 0.88762 0.0
H2272 H 0.04325 0.35139 0.88708 0.0
H2273 H 0.01591 0.38804 0.91741 0.0
H2274 H 0.93605 0.39409 0.89108 0.0
H2275 H 0.96504 0.39513 0.89679 0.0
H2276 H 0.99042 0.35578 0.87013 0.0
C2277 C 0.04825 0.36363 0.89069 0.0
C2278 C 0.0105 0.38104 0.90698 0.0
C2279 C 0.06503 0.3662 0.89105 0.0
C2280 C 0.9426 0.38267 0.88987 0.0
C2281 C 0.95921 0.38326 0.89322 0.0
C2282 C 0.99585 0.36265 0.88064 0.0
C2283 C 0.03808 0.37659 0.8952 0.0
C2284 C 0.02021 0.37395 0.89464 0.0
C2285 C 0.9683 0.36891 0.89107 0.0
C2286 C 0.98617 0.37003 0.89278 0.0
H2287 H 0.06692 0.4069 0.90435 0.0
H2288 H 0.03769 0.40254 0.90334 0.0
H2289 H 0.01973 0.3592 0.87168 0.0
H2290 H 0.93795 0.3414 0.87889 0.0
H2291 H 0.96695 0.34246 0.88475 0.0
C2292 C 0.88929 0.7586 0.08036 0.0
C2293 C 0.89752 0.7458 0.08848 0.0
C2294 C 0.88898 0.77464 0.08756 0.0
C2295 C 0.91176 0.80179 0.11786 0.0
H2296 H 0.8727 0.82691 0.12001 0.0
C2297 C 0.91258 0.86769 0.14692 0.0
C2298 C 0.8999 0.87114 0.15786 0.0
C2299 C 0.91172 0.85346 0.13667 0.0
C2300 C 0.88369 0.82001 0.11954 0.0
H2301 H 0.91181 0.73981 0.11053 0.0
H2302 H 0.91096 0.76739 0.12311 0.0
H2303 H 0.87214 0.79972 0.10567 0.0
H2304 H 0.87622 0.86248 0.16629 0.0
H2305 H 0.87491 0.83742 0.14866 0.0
H2306 H 0.92321 0.8216 0.13219 0.0
C2307 C 0.90493 0.76521 0.11111 0.0
C2308 C 0.8834 0.80454 0.11118 0.0
C2309 C 0.90524 0.74929 0.10396 0.0
C2310 C 0.8862 0.8602 0.15802 0.0
C2311 C 0.88539 0.84589 0.14782 0.0
C2312 C 0.91204 0.81718 0.1262 0.0
C2313 C 0.89699 0.77813 0.10293 0.0
C2314 C 0.89738 0.79515 0.11051 0.0
C2315 C 0.89823 0.84226 0.13717 0.0
C2316 C 0.89798 0.8264 0.12733 0.0
H2317 H 0.88326 0.75629 0.06839 0.0
H2318 H 0.88281 0.78439 0.08094 0.0
H2319 H 0.9228 0.79498 0.11734 0.0
H2320 H 0.92324 0.87595 0.1463 0.0
H2321 H 0.9217 0.85119 0.1284 0.0
C2322 C 0.44374 0.65748 0.35594 0.0
C2323 C 0.43641 0.6436 0.36402 0.0
C2324 C 0.46033 0.66104 0.35787 0.0
C2325 C 0.4984 0.64137 0.3693 0.0
H2326 H 0.51446 0.68707 0.37694 0.0
C2327 C 0.56565 0.65562 0.38258 0.0
C2328 C 0.57275 0.66885 0.37333 0.0
C2329 C 0.54886 0.65359 0.38347 0.0
C2330 C 0.51017 0.67426 0.37472 0.0
H2331 H 0.44077 0.62249 0.38035 0.0
H2332 H 0.46959 0.62871 0.38367 0.0
H2333 H 0.48544 0.68118 0.37352 0.0
H2334 H 0.56779 0.69098 0.35869 0.0
H2335 H 0.53855 0.68731 0.36005 0.0
H2336 H 0.52303 0.63442 0.37021 0.0
C2337 C 0.46258 0.63678 0.37577 0.0
C2338 C 0.49356 0.6709 0.37272 0.0
C2339 C 0.44603 0.63326 0.3739 0.0
C2340 C 0.56271 0.68061 0.36589 0.0
C2341 C 0.54592 0.67854 0.36672 0.0
C2342 C 0.51497 0.64473 0.37126 0.0
C2343 C 0.46991 0.65074 0.36784 0.0
C2344 C 0.48751 0.65442 0.36995 0.0
C2345 C 0.5388 0.66472 0.37509 0.0
C2346 C 0.52107 0.66121 0.37396 0.0
H2347 H 0.43666 0.66571 0.34828 0.0
H2348 H 0.46568 0.67178 0.35145 0.0
H2349 H 0.49415 0.62858 0.36694 0.0
H2350 H 0.57304 0.64643 0.38861 0.0
H2351 H 0.54375 0.64302 0.39035 0.0
C2352 C 0.86311 0.58127 0.83396 0.0
C2353 C 0.84662 0.57722 0.83607 0.0
C2354 C 0.86864 0.58817 0.81893 0.0
C2355 C 0.85535 0.60684 0.77833 0.0
H2356 H 0.89596 0.58986 0.76319 0.0
C2357 C 0.8793 0.61062 0.70977 0.0
C2358 C 0.89565 0.61573 0.70823 0.0
C2359 C 0.87265 0.60786 0.72565 0.0
C2360 C 0.88468 0.59482 0.76733 0.0
H2361 H 0.82291 0.57777 0.82435 0.0
H2362 H 0.83262 0.58921 0.79783 0.0
H2363 H 0.88569 0.58161 0.79047 0.0
H2364 H 0.91767 0.62247 0.72212 0.0
H2365 H 0.90611 0.6174 0.74968 0.0
H2366 H 0.85422 0.61952 0.75463 0.0
C2367 C 0.84127 0.58745 0.8079 0.0
C2368 C 0.87881 0.59019 0.78303 0.0
C2369 C 0.83569 0.58082 0.82309 0.0
C2370 C 0.90506 0.61847 0.72285 0.0
C2371 C 0.89847 0.61553 0.73864 0.0
C2372 C 0.86115 0.61128 0.76246 0.0
C2373 C 0.85788 0.59086 0.8055 0.0
C2374 C 0.86411 0.5962 0.78882 0.0
C2375 C 0.88229 0.60996 0.74018 0.0
C2376 C 0.87591 0.60537 0.75688 0.0
H2377 H 0.87178 0.57887 0.84386 0.0
H2378 H 0.88145 0.59111 0.81776 0.0
H2379 H 0.84408 0.61184 0.78242 0.0
H2380 H 0.87174 0.60848 0.69874 0.0
H2381 H 0.86015 0.60349 0.72654 0.0
C2382 C 0.66193 0.6217 0.10606 0.0
C2383 C 0.6537 0.60708 0.11162 0.0
C2384 C 0.65589 0.63072 0.09252 0.0
C2385 C 0.63423 0.62553 0.05379 0.0
H2386 H 0.62492 0.67267 0.05683 0.0
C2387 C 0.61493 0.66005 0.99476 0.0
C2388 C 0.62161 0.67626 0.99265 0.0
C2389 C 0.61537 0.6524 0.01047 0.0
C2390 C 0.62762 0.65956 0.05568 0.0
H2391 H 0.6328 0.59034 0.10731 0.0
H2392 H 0.62261 0.60581 0.0832 0.0
H2393 H 0.63357 0.65775 0.08191 0.0
H2394 H 0.63335 0.6976 0.0051 0.0
H2395 H 0.63498 0.68406 0.03239 0.0
H2396 H 0.62947 0.62729 0.02756 0.0
C2397 C 0.63355 0.6104 0.08956 0.0
C2398 C 0.63248 0.65104 0.07007 0.0
C2399 C 0.63938 0.60159 0.10332 0.0
C2400 C 0.62795 0.68512 0.00658 0.0
C2401 C 0.62883 0.67731 0.02223 0.0
C2402 C 0.62975 0.6341 0.03935 0.0
C2403 C 0.64172 0.62505 0.08411 0.0
C2404 C 0.63589 0.63399 0.06918 0.0
C2405 C 0.62306 0.66061 0.02425 0.0
C2406 C 0.62647 0.65128 0.04002 0.0
H2407 H 0.67295 0.62627 0.11228 0.0
H2408 H 0.66244 0.64194 0.08839 0.0
H2409 H 0.63697 0.6124 0.05282 0.0
H2410 H 0.60989 0.65306 0.98412 0.0
H2411 H 0.61025 0.63979 0.01161 0.0
C2412 C 0.60331 0.41307 0.19983 0.0
C2413 C 0.59529 0.3983 0.19405 0.0
C2414 C 0.6095 0.41411 0.2162 0.0
C2415 C 0.60302 0.39677 0.25801 0.0
H2416 H 0.64442 0.419 0.26825 0.0
C2417 C 0.64733 0.41563 0.3184 0.0
C2418 C 0.63626 0.42362 0.32873 0.0
C2419 C 0.64273 0.40997 0.30237 0.0
C2420 C 0.63291 0.41258 0.2656 0.0
H2421 H 0.58781 0.37288 0.20078 0.0
H2422 H 0.59855 0.37478 0.22945 0.0
H2423 H 0.63638 0.41397 0.23904 0.0
H2424 H 0.61142 0.4311 0.33056 0.0
H2425 H 0.60343 0.42117 0.30258 0.0
H2426 H 0.59943 0.39566 0.2846 0.0
C2427 C 0.59998 0.38555 0.2213 0.0
C2428 C 0.62826 0.40985 0.24888 0.0
C2429 C 0.59392 0.38445 0.20486 0.0
C2430 C 0.62028 0.42506 0.32294 0.0
C2431 C 0.61566 0.4193 0.30693 0.0
C2432 C 0.60762 0.39962 0.27475 0.0
C2433 C 0.60768 0.40046 0.22718 0.0
C2434 C 0.61318 0.40211 0.24491 0.0
C2435 C 0.62694 0.41204 0.29635 0.0
C2436 C 0.62254 0.40773 0.27871 0.0
H2437 H 0.6046 0.42394 0.1918 0.0
H2438 H 0.61525 0.42582 0.22043 0.0
H2439 H 0.59127 0.39088 0.25531 0.0
H2440 H 0.65973 0.41422 0.32246 0.0
H2441 H 0.65162 0.40422 0.29457 0.0
C2442 C 0.84992 0.38221 0.5949 0.0
C2443 C 0.83698 0.37831 0.60558 0.0
C2444 C 0.85332 0.3716 0.58152 0.0
C2445 C 0.83466 0.33688 0.55566 0.0
H2446 H 0.87826 0.33478 0.53871 0.0
C2447 C 0.85013 0.29665 0.49826 0.0
C2448 C 0.85504 0.30719 0.48509 0.0
C2449 C 0.85022 0.30277 0.51474 0.0
C2450 C 0.86608 0.33513 0.54348 0.0
H2451 H 0.81776 0.36004 0.61106 0.0
H2452 H 0.82413 0.34111 0.58829 0.0
H2453 H 0.87345 0.35035 0.56453 0.0
H2454 H 0.865 0.33174 0.47862 0.0
H2455 H 0.86572 0.34227 0.50752 0.0
H2456 H 0.82744 0.32146 0.53461 0.0
C2457 C 0.83131 0.35265 0.58973 0.0
C2458 C 0.86324 0.34421 0.55812 0.0
C2459 C 0.82768 0.36347 0.60285 0.0
C2460 C 0.86112 0.32346 0.48865 0.0
C2461 C 0.86161 0.32942 0.50513 0.0
C2462 C 0.83757 0.32751 0.54126 0.0
C2463 C 0.8441 0.35663 0.57876 0.0
C2464 C 0.84742 0.34558 0.56417 0.0
C2465 C 0.85565 0.31932 0.51821 0.0
C2466 C 0.85323 0.32688 0.53486 0.0
H2467 H 0.85723 0.39363 0.59668 0.0
H2468 H 0.86301 0.37535 0.57317 0.0
H2469 H 0.82228 0.33783 0.55965 0.0
H2470 H 0.84527 0.2841 0.49568 0.0
H2471 H 0.84553 0.29482 0.52469 0.0
C2472 C 0.88104 0.3353 0.80153 0.0
C2473 C 0.87101 0.34278 0.81329 0.0
C2474 C 0.87577 0.33279 0.78496 0.0
C2475 C 0.84044 0.33338 0.75604 0.0
H2476 H 0.87063 0.35627 0.72634 0.0
C2477 C 0.82076 0.36708 0.69615 0.0
C2478 C 0.83213 0.37037 0.68355 0.0
C2479 C 0.82502 0.35797 0.71037 0.0
C2480 C 0.86214 0.34936 0.73419 0.0
H2481 H 0.84719 0.3524 0.81718 0.0
H2482 H 0.83803 0.34802 0.78829 0.0
H2483 H 0.87892 0.35004 0.75473 0.0
H2484 H 0.85614 0.36527 0.67489 0.0
H2485 H 0.86329 0.34856 0.69919 0.0
H2486 H 0.82351 0.33305 0.73552 0.0
C2487 C 0.84992 0.34402 0.7919 0.0
C2488 C 0.86693 0.34584 0.75057 0.0
C2489 C 0.85522 0.34663 0.80844 0.0
C2490 C 0.84726 0.36313 0.68462 0.0
C2491 C 0.85137 0.35366 0.69861 0.0
C2492 C 0.83568 0.3367 0.73951 0.0
C2493 C 0.86035 0.33762 0.77987 0.0
C2494 C 0.85599 0.33831 0.76182 0.0
C2495 C 0.84061 0.35169 0.71207 0.0
C2496 C 0.84632 0.34526 0.72854 0.0
H2497 H 0.89322 0.33205 0.8049 0.0
H2498 H 0.884 0.3277 0.77596 0.0
H2499 H 0.83182 0.32741 0.76445 0.0
H2500 H 0.80901 0.37257 0.6956 0.0
H2501 H 0.81641 0.35687 0.72047 0.0
C2502 C 0.85893 0.58627 0.92438 0.0
C2503 C 0.84369 0.58542 0.91641 0.0
C2504 C 0.86243 0.59813 0.93695 0.0
C2505 C 0.84312 0.62504 0.96791 0.0
H2506 H 0.88555 0.64724 0.97019 0.0
C2507 C 0.86019 0.67638 0.01729 0.0
C2508 C 0.8754 0.67521 0.02512 0.0
C2509 C 0.85596 0.66629 0.00341 0.0
C2510 C 0.87369 0.64105 0.9698 0.0
H2511 H 0.82021 0.59659 0.91536 0.0
H2512 H 0.8264 0.61738 0.93726 0.0
H2513 H 0.87878 0.62818 0.94697 0.0
H2514 H 0.89811 0.66255 0.02447 0.0
H2515 H 0.8907 0.64494 0.00036 0.0
H2516 H 0.8381 0.63784 0.99084 0.0
C2517 C 0.83557 0.6087 0.93388 0.0
C2518 C 0.86981 0.63013 0.95649 0.0
C2519 C 0.83205 0.59682 0.92126 0.0
C2520 C 0.88631 0.66381 0.01872 0.0
C2521 C 0.8821 0.65378 0.00482 0.0
C2522 C 0.847 0.636 0.98122 0.0
C2523 C 0.8508 0.60947 0.94187 0.0
C2524 C 0.85455 0.62184 0.9555 0.0
C2525 C 0.86688 0.65488 0.99702 0.0
C2526 C 0.8624 0.64396 0.98242 0.0
H2527 H 0.86819 0.57767 0.92103 0.0
H2528 H 0.8742 0.59821 0.94303 0.0
H2529 H 0.83132 0.61871 0.96762 0.0
H2530 H 0.8515 0.68504 0.02191 0.0
H2531 H 0.84419 0.66754 0.99757 0.0
C2532 C 0.65581 0.66074 0.31145 0.0
C2533 C 0.64074 0.66674 0.31605 0.0
C2534 C 0.66056 0.6611 0.29467 0.0
C2535 C 0.64093 0.65539 0.25483 0.0
H2536 H 0.68352 0.66272 0.23597 0.0
C2537 C 0.65367 0.62863 0.19019 0.0
C2538 C 0.66853 0.62101 0.18849 0.0
C2539 C 0.65117 0.63956 0.20355 0.0
C2540 C 0.67157 0.6605 0.24105 0.0
H2541 H 0.61959 0.67931 0.30698 0.0
H2542 H 0.62783 0.67969 0.27769 0.0
H2543 H 0.67811 0.6728 0.26433 0.0
H2544 H 0.69269 0.61931 0.19882 0.0
H2545 H 0.68809 0.63748 0.22276 0.0
H2546 H 0.63455 0.64193 0.23251 0.0
C2547 C 0.63589 0.67466 0.28705 0.0
C2548 C 0.66847 0.66641 0.25723 0.0
C2549 C 0.63119 0.67443 0.30382 0.0
C2550 C 0.68112 0.6251 0.19987 0.0
C2551 C 0.67848 0.63564 0.21354 0.0
C2552 C 0.64408 0.64921 0.23887 0.0
C2553 C 0.65028 0.66735 0.28224 0.0
C2554 C 0.65319 0.66364 0.26434 0.0
C2555 C 0.66329 0.64262 0.21585 0.0
C2556 C 0.65953 0.65135 0.23185 0.0
H2557 H 0.66347 0.65482 0.32059 0.0
H2558 H 0.67169 0.65531 0.29128 0.0
H2559 H 0.62911 0.65278 0.26013 0.0
H2560 H 0.64387 0.62585 0.18138 0.0
H2561 H 0.6395 0.64512 0.20452 0.0
C2562 C 0.63443 0.31621 0.50646 0.0
C2563 C 0.61948 0.31533 0.51467 0.0
C2564 C 0.63708 0.32746 0.49325 0.0
C2565 C 0.62211 0.36676 0.47573 0.0
H2566 H 0.64484 0.35378 0.43572 0.0
C2567 C 0.62629 0.40958 0.41774 0.0
C2568 C 0.64124 0.41096 0.40958 0.0
C2569 C 0.62353 0.39748 0.43011 0.0
C2570 C 0.63862 0.35766 0.44688 0.0
H2571 H 0.59553 0.32542 0.51523 0.0
H2572 H 0.60013 0.34487 0.49219 0.0
H2573 H 0.6404 0.33349 0.45821 0.0
H2574 H 0.66494 0.40038 0.40792 0.0
H2575 H 0.66019 0.37947 0.42963 0.0
H2576 H 0.62039 0.39093 0.46452 0.0
C2577 C 0.60987 0.33705 0.49609 0.0
C2578 C 0.63607 0.34603 0.45977 0.0
C2579 C 0.60721 0.3258 0.50925 0.0
C2580 C 0.65328 0.39974 0.41393 0.0
C2581 C 0.65053 0.38764 0.42633 0.0
C2582 C 0.62467 0.37839 0.46288 0.0
C2583 C 0.62486 0.3381 0.488 0.0
C2584 C 0.62775 0.35044 0.47432 0.0
C2585 C 0.63566 0.38645 0.43466 0.0
C2586 C 0.63292 0.37398 0.44828 0.0
H2587 H 0.64414 0.30834 0.51034 0.0
H2588 H 0.64881 0.32807 0.48738 0.0
H2589 H 0.6159 0.37066 0.4869 0.0
H2590 H 0.6167 0.41793 0.41466 0.0
H2591 H 0.61185 0.39673 0.43608 0.0
C2592 C 0.69588 0.86242 0.60091 0.0
C2593 C 0.68468 0.85183 0.60924 0.0
C2594 C 0.71234 0.85924 0.60142 0.0
C2595 C 0.74191 0.83951 0.62852 0.0
H2596 H 0.77083 0.8472 0.59116 0.0
C2597 C 0.81041 0.83037 0.63488 0.0
C2598 C 0.8207 0.8424 0.62723 0.0
C2599 C 0.79379 0.83002 0.63165 0.0
C2600 C 0.76293 0.84515 0.60175 0.0
H2601 H 0.68188 0.82907 0.62389 0.0
H2602 H 0.71065 0.82351 0.62474 0.0
H2603 H 0.7417 0.8487 0.58675 0.0
H2604 H 0.82161 0.86348 0.61012 0.0
H2605 H 0.79258 0.86311 0.60477 0.0
H2606 H 0.76305 0.83641 0.64364 0.0
C2607 C 0.70668 0.83439 0.61799 0.0
C2608 C 0.74625 0.84595 0.5992 0.0
C2609 C 0.6902 0.83752 0.6174 0.0
C2610 C 0.81401 0.85403 0.61621 0.0
C2611 C 0.79738 0.85373 0.61304 0.0
C2612 C 0.75857 0.83879 0.63109 0.0
C2613 C 0.71796 0.84542 0.61032 0.0
C2614 C 0.73557 0.84328 0.6126 0.0
C2615 C 0.78705 0.84175 0.62075 0.0
C2616 C 0.7693 0.84176 0.61777 0.0
H2617 H 0.69202 0.87352 0.59445 0.0
H2618 H 0.72073 0.86804 0.59548 0.0
H2619 H 0.73402 0.83768 0.63916 0.0
H2620 H 0.81519 0.82114 0.64334 0.0
H2621 H 0.78624 0.82047 0.63762 0.0
C2622 C 0.22726 0.60673 0.37062 0.0
C2623 C 0.21832 0.59145 0.36966 0.0
C2624 C 0.24115 0.60928 0.36104 0.0
C2625 C 0.27356 0.58526 0.34464 0.0
H2626 H 0.28866 0.62853 0.32788 0.0
C2627 C 0.34118 0.59949 0.33852 0.0
C2628 C 0.34566 0.61394 0.34777 0.0
C2629 C 0.32507 0.59667 0.33333 0.0
C2630 C 0.2846 0.6163 0.33235 0.0
H2631 H 0.21643 0.56721 0.3572 0.0
H2632 H 0.24084 0.57164 0.34065 0.0
H2633 H 0.26005 0.62364 0.33403 0.0
H2634 H 0.33751 0.63746 0.35743 0.0
H2635 H 0.30966 0.63268 0.34862 0.0
H2636 H 0.29817 0.57828 0.34426 0.0
C2637 C 0.23709 0.58161 0.34883 0.0
C2638 C 0.26823 0.61352 0.33587 0.0
C2639 C 0.22311 0.5791 0.35831 0.0
C2640 C 0.33427 0.62616 0.35046 0.0
C2641 C 0.31831 0.62346 0.3452 0.0
C2642 C 0.28994 0.58807 0.34125 0.0
C2643 C 0.24645 0.59658 0.3504 0.0
C2644 C 0.2627 0.59824 0.3428 0.0
C2645 C 0.31333 0.60835 0.33725 0.0
C2646 C 0.29577 0.60391 0.33589 0.0
H2647 H 0.22394 0.61649 0.37923 0.0
H2648 H 0.24823 0.62087 0.36272 0.0
H2649 H 0.26969 0.57336 0.35004 0.0
H2650 H 0.34983 0.58989 0.33638 0.0
H2651 H 0.32164 0.58498 0.32708 0.0
C2652 C 0.61034 0.03392 0.66038 0.0
C2653 C 0.59486 0.04037 0.66186 0.0
C2654 C 0.61221 0.01764 0.65447 0.0
C2655 C 0.59096 0.97696 0.65345 0.0
H2656 H 0.62571 0.96471 0.62417 0.0
C2657 C 0.60377 0.90775 0.63741 0.0
C2658 C 0.62014 0.90376 0.63722 0.0
C2659 C 0.59937 0.92448 0.6385 0.0
C2660 C 0.61601 0.96791 0.63246 0.0
H2661 H 0.56925 0.03497 0.65758 0.0
H2662 H 0.57259 0.00644 0.64737 0.0
H2663 H 0.62048 0.99423 0.62874 0.0
H2664 H 0.64472 0.91419 0.63847 0.0
H2665 H 0.6371 0.9431 0.64079 0.0
H2666 H 0.58687 0.9507 0.65771 0.0
C2667 C 0.58323 0.01403 0.65086 0.0
C2668 C 0.61299 0.98481 0.635 0.0
C2669 C 0.58135 0.0304 0.65661 0.0
C2670 C 0.63199 0.91679 0.63846 0.0
C2671 C 0.62761 0.93343 0.63962 0.0
C2672 C 0.59406 0.96004 0.65101 0.0
C2673 C 0.59865 0.00739 0.65004 0.0
C2674 C 0.60064 0.98951 0.64577 0.0
C2675 C 0.61127 0.93752 0.63949 0.0
C2676 C 0.60685 0.95534 0.64077 0.0
H2677 H 0.621 0.04128 0.66425 0.0
H2678 H 0.62425 0.01281 0.65408 0.0
H2679 H 0.58146 0.98023 0.66196 0.0
H2680 H 0.59435 0.898 0.63659 0.0
H2681 H 0.58667 0.9272 0.63834 0.0
C2682 C 0.1711 0.38132 0.85514 0.0
C2683 C 0.16647 0.37362 0.87025 0.0
C2684 C 0.18657 0.37901 0.84871 0.0
C2685 C 0.22681 0.36889 0.86447 0.0
H2686 H 0.23803 0.36266 0.8178 0.0
C2687 C 0.29164 0.35604 0.84702 0.0
C2688 C 0.29823 0.3658 0.83399 0.0
C2689 C 0.27498 0.35512 0.84949 0.0
C2690 C 0.23505 0.36447 0.83087 0.0
H2691 H 0.17355 0.35611 0.88939 0.0
H2692 H 0.20016 0.35196 0.87829 0.0
H2693 H 0.20959 0.36501 0.82549 0.0
H2694 H 0.29245 0.38139 0.81265 0.0
H2695 H 0.26337 0.38 0.81716 0.0
H2696 H 0.25204 0.3686 0.86998 0.0
C2697 C 0.19226 0.3603 0.87171 0.0
C2698 C 0.21881 0.36585 0.83525 0.0
C2699 C 0.177 0.36272 0.87813 0.0
C2700 C 0.28775 0.37382 0.82287 0.0
C2701 C 0.27106 0.37296 0.82539 0.0
C2702 C 0.24292 0.36752 0.86014 0.0
C2703 C 0.19746 0.36885 0.85728 0.0
C2704 C 0.21454 0.3679 0.85214 0.0
C2705 C 0.26456 0.36403 0.83904 0.0
C2706 C 0.24725 0.36515 0.84333 0.0
H2707 H 0.16308 0.38969 0.84878 0.0
H2708 H 0.19025 0.38573 0.83752 0.0
H2709 H 0.22396 0.3709 0.87756 0.0
H2710 H 0.29937 0.34954 0.85568 0.0
H2711 H 0.27029 0.34782 0.85991 0.0
C2712 C 0.4072 0.46549 0.61851 0.0
C2713 C 0.39697 0.4519 0.6231 0.0
C2714 C 0.401 0.47913 0.60999 0.0
C2715 C 0.36205 0.49951 0.60522 0.0
H2716 H 0.38723 0.53056 0.57776 0.0
C2717 C 0.33732 0.56241 0.58431 0.0
C2718 C 0.34747 0.57634 0.58849 0.0
C2719 C 0.34318 0.54625 0.58476 0.0
C2720 C 0.38006 0.52194 0.58537 0.0
H2721 H 0.37264 0.44107 0.62091 0.0
H2722 H 0.36197 0.46448 0.60536 0.0
H2723 H 0.39772 0.50309 0.58429 0.0
H2724 H 0.37192 0.58435 0.59566 0.0
H2725 H 0.38216 0.55607 0.59639 0.0
H2726 H 0.3445 0.5184 0.60642 0.0
C2727 C 0.37462 0.46501 0.60896 0.0
C2728 C 0.38607 0.50625 0.58916 0.0
C2729 C 0.38075 0.45153 0.61777 0.0
C2730 C 0.36377 0.57385 0.59247 0.0
C2731 C 0.36967 0.55769 0.59275 0.0
C2732 C 0.35599 0.51506 0.60125 0.0
C2733 C 0.3845 0.47932 0.60563 0.0
C2734 C 0.3773 0.49498 0.59948 0.0
C2735 C 0.35935 0.54373 0.58922 0.0
C2736 C 0.36508 0.52657 0.59161 0.0
H2737 H 0.41976 0.46613 0.6225 0.0
H2738 H 0.40898 0.48994 0.60779 0.0
H2739 H 0.35507 0.4914 0.6135 0.0
H2740 H 0.32471 0.56392 0.58112 0.0
H2741 H 0.335 0.53569 0.58189 0.0
C2742 C 0.79826 0.13654 0.13948 0.0
C2743 C 0.80411 0.14317 0.12435 0.0
C2744 C 0.78319 0.14091 0.14541 0.0
C2745 C 0.74813 0.16826 0.13697 0.0
H2746 H 0.72369 0.12888 0.15212 0.0
C2747 C 0.67885 0.15826 0.13009 0.0
C2748 C 0.6705 0.15079 0.14356 0.0
C2749 C 0.69569 0.16022 0.13062 0.0
C2750 C 0.73039 0.14008 0.14818 0.0
H2751 H 0.79942 0.16046 0.10414 0.0
H2752 H 0.77286 0.16755 0.114 0.0
H2753 H 0.7526 0.12753 0.14845 0.0
H2754 H 0.6732 0.14007 0.16839 0.0
H2755 H 0.70261 0.14328 0.16915 0.0
H2756 H 0.72547 0.18038 0.13578 0.0
C2757 C 0.77995 0.15929 0.1216 0.0
C2758 C 0.74704 0.13936 0.14615 0.0
C2759 C 0.79519 0.15518 0.11587 0.0
C2760 C 0.67928 0.1458 0.15777 0.0
C2761 C 0.69611 0.14761 0.15822 0.0
C2762 C 0.73139 0.16889 0.13879 0.0
C2763 C 0.77348 0.15168 0.13609 0.0
C2764 C 0.75613 0.15335 0.14026 0.0
C2765 C 0.70448 0.15461 0.14455 0.0
C2766 C 0.72235 0.15471 0.14418 0.0
H2767 H 0.80502 0.12742 0.14639 0.0
H2768 H 0.77885 0.13522 0.15691 0.0
H2769 H 0.75474 0.17935 0.13268 0.0
H2770 H 0.67241 0.16231 0.119 0.0
H2771 H 0.70186 0.16552 0.11984 0.0
C2772 C 0.62107 0.05481 0.86298 0.0
C2773 C 0.62911 0.06007 0.87782 0.0
C2774 C 0.61256 0.03939 0.86226 0.0
C2775 C 0.61352 0.9979 0.88075 0.0
H2776 H 0.57447 0.98989 0.85414 0.0
C2777 C 0.57047 0.93974 0.85141 0.0
C2778 C 0.5826 0.93079 0.84352 0.0
C2779 C 0.57432 0.95489 0.85968 0.0
C2780 C 0.58522 0.9919 0.86188 0.0
H2781 H 0.63384 0.05364 0.90382 0.0
H2782 H 0.61903 0.02659 0.90249 0.0
H2783 H 0.58354 0.0186 0.86095 0.0
H2784 H 0.60836 0.93014 0.83912 0.0
H2785 H 0.61504 0.95641 0.8536 0.0
H2786 H 0.61552 0.97124 0.88114 0.0
C2787 C 0.61941 0.03441 0.8914 0.0
C2788 C 0.59049 0.00834 0.86563 0.0
C2789 C 0.62782 0.04992 0.89217 0.0
C2790 C 0.59873 0.93678 0.84497 0.0
C2791 C 0.60257 0.95179 0.85338 0.0
C2792 C 0.60831 0.98147 0.8769 0.0
C2793 C 0.61197 0.02884 0.87634 0.0
C2794 C 0.60494 0.01152 0.8747 0.0
C2795 C 0.59037 0.96124 0.86043 0.0
C2796 C 0.59436 0.97832 0.86701 0.0
H2797 H 0.62176 0.06238 0.85173 0.0
H2798 H 0.6071 0.03539 0.85042 0.0
H2799 H 0.62476 -6e-05 0.88767 0.0
H2800 H 0.55793 0.93545 0.85053 0.0
H2801 H 0.56469 0.96187 0.86512 0.0
C2802 C 0.89155 0.06188 0.34899 0.0
C2803 C 0.90803 0.06456 0.34553 0.0
C2804 C 0.88634 0.04861 0.35916 0.0
C2805 C 0.89688 0.00645 0.36926 0.0
H2806 H 0.86214 0.00885 0.40129 0.0
C2807 C 0.86479 0.9464 0.39425 0.0
C2808 C 0.84785 0.94677 0.39461 0.0
C2809 C 0.87414 0.96121 0.39223 0.0
C2810 C 0.8718 0.00794 0.39233 0.0
H2811 H 0.93208 0.05587 0.35062 0.0
H2812 H 0.92288 0.03234 0.3682 0.0
H2813 H 0.87502 0.03465 0.39071 0.0
H2814 H 0.82747 0.96303 0.39367 0.0
H2815 H 0.84362 0.98863 0.38967 0.0
H2816 H 0.89308 0.97985 0.36998 0.0
C2817 C 0.91404 0.04064 0.36306 0.0
C2818 C 0.87923 0.02272 0.38637 0.0
C2819 C 0.9193 0.05413 0.35308 0.0
C2820 C 0.84049 0.96229 0.39346 0.0
C2821 C 0.8498 0.97704 0.39131 0.0
C2822 C 0.88933 0.99167 0.37506 0.0
C2823 C 0.89749 0.03759 0.36593 0.0
C2824 C 0.89154 0.02212 0.37444 0.0
C2825 C 0.86674 0.97669 0.39041 0.0
C2826 C 0.87637 0.99223 0.3863 0.0
H2827 H 0.88259 0.06977 0.34343 0.0
H2828 H 0.8735 0.04648 0.36103 0.0
H2829 H 0.90623 0.00562 0.35993 0.0
H2830 H 0.87083 0.93464 0.39525 0.0
H2831 H 0.88715 0.96049 0.39185 0.0
C2832 C 0.37382 0.28726 0.08716 0.0
C2833 C 0.38259 0.29745 0.0759 0.0
C2834 C 0.37327 0.26981 0.08518 0.0
C2835 C 0.39729 0.23702 0.06574 0.0
H2836 H 0.36234 0.20729 0.08078 0.0
C2837 C 0.4047 0.16631 0.06596 0.0
C2838 C 0.40191 0.15904 0.08176 0.0
C2839 C 0.39893 0.18211 0.06226 0.0
C2840 C 0.37215 0.21547 0.07646 0.0
H2841 H 0.39646 0.29763 0.05299 0.0
H2842 H 0.39494 0.2674 0.04911 0.0
H2843 H 0.35853 0.23752 0.0797 0.0
H2844 H 0.38961 0.16201 0.10547 0.0
H2845 H 0.37965 0.18955 0.099 0.0
H2846 H 0.41099 0.21513 0.06277 0.0
C2847 C 0.38907 0.27269 0.05989 0.0
C2848 C 0.37002 0.23277 0.07592 0.0
C2849 C 0.38989 0.29003 0.06205 0.0
C2850 C 0.39214 0.16731 0.09324 0.0
C2851 C 0.38631 0.18307 0.08949 0.0
C2852 C 0.39935 0.2198 0.06612 0.0
C2853 C 0.38125 0.2623 0.07173 0.0
C2854 C 0.38268 0.24379 0.07082 0.0
C2855 C 0.39017 0.19089 0.07422 0.0
C2856 C 0.38692 0.20885 0.07176 0.0
H2857 H 0.36809 0.29269 0.09794 0.0
H2858 H 0.36724 0.26223 0.09463 0.0
H2859 H 0.40747 0.24507 0.06212 0.0
H2860 H 0.41206 0.16023 0.05677 0.0
H2861 H 0.40189 0.18776 0.05028 0.0
C2862 C 0.57775 0.64205 0.92967 0.0
C2863 C 0.58473 0.65839 0.92963 0.0
C2864 C 0.5633 0.63835 0.921 0.0
C2865 C 0.5275 0.65758 0.90223 0.0
H2866 H 0.52506 0.61715 0.87502 0.0
C2867 C 0.47724 0.64458 0.85248 0.0
C2868 C 0.47103 0.62803 0.85069 0.0
C2869 C 0.49055 0.64823 0.86298 0.0
C2870 C 0.52543 0.62836 0.88274 0.0
H2871 H 0.58171 0.68374 0.92068 0.0
H2872 H 0.55653 0.67724 0.90548 0.0
H2873 H 0.54919 0.62365 0.89191 0.0
H2874 H 0.47372 0.60238 0.85883 0.0
H2875 H 0.49681 0.60878 0.87731 0.0
H2876 H 0.50375 0.66233 0.89298 0.0
C2877 C 0.56221 0.66732 0.91235 0.0
C2878 C 0.53928 0.63209 0.89241 0.0
C2879 C 0.5767 0.67102 0.92099 0.0
C2880 C 0.47827 0.61525 0.85984 0.0
C2881 C 0.49156 0.6189 0.87037 0.0
C2882 C 0.51362 0.65383 0.89257 0.0
C2883 C 0.55544 0.6509 0.91211 0.0
C2884 C 0.5405 0.64677 0.90221 0.0
C2885 C 0.49793 0.63542 0.87197 0.0
C2886 C 0.51246 0.63921 0.88265 0.0
H2887 H 0.58354 0.63201 0.93624 0.0
H2888 H 0.55827 0.62564 0.92125 0.0
H2889 H 0.528 0.66888 0.90982 0.0
H2890 H 0.47196 0.65473 0.8456 0.0
H2891 H 0.49527 0.66105 0.86376 0.0
C2892 C 0.1127 0.72784 0.61461 0.0
C2893 C 0.10199 0.71763 0.6049 0.0
C2894 C 0.11487 0.74489 0.611 0.0
C2895 C 0.09406 0.77899 0.58932 0.0
H2896 H 0.13391 0.80419 0.59964 0.0
C2897 C 0.09685 0.85015 0.58383 0.0
C2898 C 0.10096 0.85783 0.59929 0.0
C2899 C 0.10044 0.83344 0.58089 0.0
C2900 C 0.12276 0.79726 0.59657 0.0
H2901 H 0.08587 0.71703 0.58326 0.0
H2902 H 0.09008 0.74654 0.57658 0.0
H2903 H 0.13318 0.7736 0.60133 0.0
H2904 H 0.11359 0.85463 0.62302 0.0
H2905 H 0.11994 0.82555 0.61781 0.0
H2906 H 0.08362 0.80262 0.58477 0.0
C2907 C 0.09637 0.74161 0.58736 0.0
C2908 C 0.12228 0.77977 0.59767 0.0
C2909 C 0.09397 0.72466 0.59116 0.0
C2910 C 0.1101 0.849 0.61105 0.0
C2911 C 0.11384 0.83237 0.60803 0.0
C2912 C 0.09462 0.7964 0.58801 0.0
C2913 C 0.1066 0.75204 0.59743 0.0
C2914 C 0.10779 0.77044 0.59446 0.0
C2915 C 0.1084 0.82422 0.59326 0.0
C2916 C 0.10885 0.80574 0.59199 0.0
H2917 H 0.11904 0.72276 0.62529 0.0
H2918 H 0.12265 0.75253 0.61921 0.0
H2919 H 0.0826 0.77235 0.58706 0.0
H2920 H 0.08986 0.85661 0.57447 0.0
H2921 H 0.09627 0.82746 0.56931 0.0
C2922 C 0.00458 0.39123 0.38647 0.0
C2923 C 0.0148 0.37911 0.38017 0.0
C2924 C 0.99007 0.38638 0.3942 0.0
C2925 C 0.96787 0.34961 0.41276 0.0
H2926 H 0.93003 0.37441 0.40109 0.0
C2927 C 0.90263 0.32403 0.42348 0.0
C2928 C 0.89179 0.33525 0.43035 0.0
C2929 C 0.91797 0.32972 0.41839 0.0
C2930 C 0.94052 0.36747 0.4046 0.0
H2931 H 0.01801 0.35237 0.37745 0.0
H2932 H 0.99269 0.34397 0.39054 0.0
H2933 H 0.95643 0.38396 0.39093 0.0
H2934 H 0.88858 0.36127 0.43718 0.0
H2935 H 0.91527 0.37113 0.42819 0.0
H2936 H 0.9518 0.33288 0.42607 0.0
C2937 C 0.99593 0.35722 0.38981 0.0
C2938 C 0.95567 0.37297 0.39885 0.0
C2939 C 0.01043 0.36205 0.38218 0.0
C2940 C 0.89661 0.35227 0.43195 0.0
C2941 C 0.91188 0.35796 0.42673 0.0
C2942 C 0.9527 0.34404 0.4184 0.0
C2943 C 0.98546 0.3693 0.39573 0.0
C2944 C 0.96952 0.36404 0.40275 0.0
C2945 C 0.92271 0.34675 0.41993 0.0
C2946 C 0.93887 0.35285 0.41428 0.0
H2947 H 0.00764 0.40447 0.3852 0.0
H2948 H 0.98241 0.39601 0.39887 0.0
H2949 H 0.97832 0.34259 0.41625 0.0
H2950 H 0.89931 0.31084 0.42208 0.0
H2951 H 0.92604 0.32082 0.41303 0.0
C2952 C 0.36531 0.8129 0.35657 0.0
C2953 C 0.37487 0.82054 0.36933 0.0
C2954 C 0.36608 0.79575 0.35339 0.0
C2955 C 0.38939 0.75781 0.36372 0.0
H2956 H 0.34798 0.73498 0.35514 0.0
C2957 C 0.3823 0.68537 0.36069 0.0
C2958 C 0.36871 0.67838 0.3689 0.0
C2959 C 0.38371 0.70265 0.3578 0.0
C2960 C 0.35964 0.74114 0.3576 0.0
H2961 H 0.39311 0.81633 0.38843 0.0
H2962 H 0.39394 0.7863 0.38344 0.0
H2963 H 0.34973 0.76531 0.35593 0.0
H2964 H 0.34592 0.68413 0.38042 0.0
H2965 H 0.34858 0.71401 0.37584 0.0
H2966 H 0.39902 0.73349 0.36655 0.0
C2967 C 0.38616 0.79356 0.37553 0.0
C2968 C 0.36072 0.7586 0.35779 0.0
C2969 C 0.38559 0.81079 0.3785 0.0
C2970 C 0.35651 0.68901 0.37395 0.0
C2971 C 0.35798 0.70621 0.3712 0.0
C2972 C 0.38827 0.74029 0.36376 0.0
C2973 C 0.37621 0.78577 0.36311 0.0
C2974 C 0.37554 0.7672 0.36117 0.0
C2975 C 0.3716 0.71328 0.36315 0.0
C2976 C 0.37329 0.73176 0.36108 0.0
H2977 H 0.35713 0.82017 0.34909 0.0
H2978 H 0.35854 0.79029 0.34345 0.0
H2979 H 0.40107 0.76399 0.36604 0.0
H2980 H 0.39189 0.67755 0.35657 0.0
H2981 H 0.39429 0.70767 0.35141 0.0
C2982 C 0.00828 0.58872 0.17357 0.0
C2983 C 0.02351 0.59188 0.16642 0.0
C2984 C 0.99424 0.59298 0.16498 0.0
C2985 C 0.97731 0.60448 0.12372 0.0
H2986 H 0.95089 0.63362 0.14992 0.0
C2987 C 0.93519 0.65236 0.09408 0.0
C2988 C 0.9223 0.65803 0.10356 0.0
C2989 C 0.94524 0.64024 0.10063 0.0
C2990 C 0.95777 0.62516 0.14243 0.0
H2991 H 0.03592 0.6011 0.14425 0.0
H2992 H 0.01137 0.60851 0.12926 0.0
H2993 H 0.97284 0.61952 0.16345 0.0
H2994 H 0.90868 0.65439 0.12637 0.0
H2995 H 0.92554 0.63255 0.13737 0.0
H2996 H 0.9623 0.61025 0.10262 0.0
C2997 C 0.01031 0.60273 0.1415 0.0
C2998 C 0.97045 0.61712 0.15024 0.0
C2999 C 0.02437 0.59862 0.15016 0.0
C3000 C 0.91871 0.65035 0.11894 0.0
C3001 C 0.92848 0.63796 0.12529 0.0
C3002 C 0.96443 0.61235 0.11591 0.0
C3003 C 0.99514 0.60032 0.149 0.0
C3004 C 0.98056 0.607 0.14092 0.0
C3005 C 0.94237 0.63336 0.11664 0.0
C3006 C 0.9547 0.6231 0.1251 0.0
H3007 H 0.0072 0.58345 0.18604 0.0
H3008 H 0.98267 0.59089 0.17099 0.0
H3009 H 0.98487 0.59661 0.11628 0.0
H3010 H 0.93823 0.65817 0.08221 0.0
H3011 H 0.95584 0.63715 0.09361 0.0
C3012 C 0.14834 0.30958 0.90776 0.0
C3013 C 0.13605 0.3207 0.90406 0.0
C3014 C 0.14519 0.2923 0.90737 0.0
C3015 C 0.11713 0.26049 0.88871 0.0
H3016 H 0.13907 0.23088 0.91916 0.0
C3017 C 0.11102 0.18916 0.88073 0.0
C3018 C 0.12598 0.18148 0.87966 0.0
C3019 C 0.11017 0.2054 0.88716 0.0
C3020 C 0.13282 0.23901 0.91062 0.0
H3021 H 0.11067 0.32234 0.89745 0.0
H3022 H 0.10513 0.29213 0.89698 0.0
H3023 H 0.14132 0.26115 0.92368 0.0
H3024 H 0.15156 0.18436 0.88569 0.0
H3025 H 0.15003 0.21266 0.89686 0.0
H3026 H 0.10892 0.23839 0.87545 0.0
C3027 C 0.11728 0.29681 0.89992 0.0
C3028 C 0.13416 0.25633 0.91315 0.0
C3029 C 0.12046 0.31413 0.90021 0.0
C3030 C 0.13987 0.18994 0.88621 0.0
C3031 C 0.13898 0.20613 0.89273 0.0
C3032 C 0.11572 0.24319 0.88625 0.0
C3033 C 0.12964 0.2857 0.90338 0.0
C3034 C 0.12666 0.26729 0.90197 0.0
C3035 C 0.12421 0.21422 0.89277 0.0
C3036 C 0.12386 0.23229 0.89694 0.0
H3037 H 0.16051 0.31419 0.91072 0.0
H3038 H 0.15507 0.28411 0.90979 0.0
H3039 H 0.11137 0.26855 0.87973 0.0
H3040 H 0.10006 0.18297 0.8759 0.0
H3041 H 0.09859 0.21127 0.88725 0.0
C3042 C 0.56298 0.33635 0.57911 0.0
C3043 C 0.57371 0.32919 0.59054 0.0
C3044 C 0.55406 0.35009 0.58388 0.0
C3045 C 0.53966 0.3701 0.62272 0.0
H3046 H 0.52336 0.40294 0.59172 0.0
C3047 C 0.49713 0.41967 0.6454 0.0
C3048 C 0.48233 0.41936 0.63657 0.0
C3049 C 0.51052 0.41212 0.6386 0.0
C3050 C 0.52791 0.39388 0.6005 0.0
H3051 H 0.58455 0.33151 0.61536 0.0
H3052 H 0.56968 0.3559 0.62341 0.0
H3053 H 0.54321 0.38317 0.58215 0.0
H3054 H 0.47038 0.41222 0.61309 0.0
H3055 H 0.49385 0.39909 0.60122 0.0
H3056 H 0.52437 0.38072 0.641 0.0
C3057 C 0.5675 0.35053 0.61104 0.0
C3058 C 0.5392 0.38249 0.59502 0.0
C3059 C 0.57612 0.33661 0.60641 0.0
C3060 C 0.48158 0.41256 0.62025 0.0
C3061 C 0.49504 0.40511 0.61341 0.0
C3062 C 0.52862 0.38159 0.62821 0.0
C3063 C 0.55593 0.35711 0.60007 0.0
C3064 C 0.54504 0.37028 0.60602 0.0
C3065 C 0.50943 0.40426 0.6228 0.0
C3066 C 0.52245 0.39344 0.61713 0.0
H3067 H 0.56089 0.33083 0.56679 0.0
H3068 H 0.54518 0.35466 0.57512 0.0
H3069 H 0.54348 0.36067 0.63148 0.0
H3070 H 0.49817 0.42494 0.65793 0.0
H3071 H 0.52156 0.41182 0.64601 0.0
C3072 C 0.08849 0.35542 0.30174 0.0
C3073 C 0.07213 0.35889 0.30342 0.0
C3074 C 0.09427 0.34953 0.28651 0.0
C3075 C 0.08128 0.33517 0.24327 0.0
H3076 H 0.12126 0.3585 0.23094 0.0
C3077 C 0.09593 0.36117 0.1784 0.0
C3078 C 0.1121 0.36242 0.17324 0.0
C3079 C 0.09192 0.3535 0.19357 0.0
C3080 C 0.1103 0.3515 0.23424 0.0
H3081 H 0.04876 0.35815 0.29097 0.0
H3082 H 0.05889 0.34879 0.26407 0.0
H3083 H 0.11261 0.35916 0.25979 0.0
H3084 H 0.13647 0.35502 0.17905 0.0
H3085 H 0.12943 0.3418 0.2057 0.0
H3086 H 0.0785 0.32878 0.21718 0.0
C3087 C 0.06729 0.35008 0.27455 0.0
C3088 C 0.10529 0.35185 0.25087 0.0
C3089 C 0.06147 0.35561 0.28992 0.0
C3090 C 0.12392 0.35438 0.18273 0.0
C3091 C 0.11991 0.34685 0.19801 0.0
C3092 C 0.0862 0.33503 0.22654 0.0
C3093 C 0.08386 0.34737 0.27252 0.0
C3094 C 0.09044 0.3442 0.25553 0.0
C3095 C 0.10401 0.34705 0.20392 0.0
C3096 C 0.10051 0.34366 0.2218 0.0
H3097 H 0.09685 0.35731 0.31216 0.0
H3098 H 0.107 0.34709 0.2856 0.0
H3099 H 0.06997 0.32878 0.24646 0.0
H3100 H 0.08652 0.36706 0.17125 0.0
H3101 H 0.07956 0.35392 0.19782 0.0
C3102 C 0.3659 0.39469 0.91326 0.0
C3103 C 0.35618 0.3858 0.90143 0.0
C3104 C 0.36211 0.39427 0.93027 0.0
C3105 C 0.34941 0.39443 0.96595 0.0
H3106 H 0.34606 0.34813 0.98045 0.0
C3107 C 0.35688 0.37283 0.03555 0.0
C3108 C 0.3701 0.36234 0.03682 0.0
C3109 C 0.35031 0.37659 0.01977 0.0
C3110 C 0.34665 0.36114 0.9766 0.0
H3111 H 0.33421 0.37041 0.89806 0.0
H3112 H 0.32773 0.36946 0.92792 0.0
H3113 H 0.34269 0.35471 0.95078 0.0
H3114 H 0.38637 0.34707 0.02276 0.0
H3115 H 0.37469 0.35329 0.99544 0.0
H3116 H 0.35436 0.40066 0.99178 0.0
C3117 C 0.33829 0.37675 0.92395 0.0
C3118 C 0.34463 0.36493 0.95964 0.0
C3119 C 0.34199 0.37733 0.90687 0.0
C3120 C 0.37628 0.3553 0.02216 0.0
C3121 C 0.36951 0.35873 0.00654 0.0
C3122 C 0.35125 0.39064 0.98298 0.0
C3123 C 0.34857 0.38483 0.93586 0.0
C3124 C 0.34671 0.38153 0.95405 0.0
C3125 C 0.35658 0.3695 0.00517 0.0
C3126 C 0.35059 0.37389 0.98828 0.0
H3127 H 0.37682 0.40149 0.90946 0.0
H3128 H 0.37036 0.40049 0.93915 0.0
H3129 H 0.35095 0.40735 0.96197 0.0
H3130 H 0.35192 0.37842 0.04669 0.0
H3131 H 0.34038 0.385 0.01896 0.0
C3132 C 0.36247 0.66181 0.65778 0.0
C3133 C 0.36332 0.64958 0.6451 0.0
C3134 C 0.37012 0.65958 0.67332 0.0
C3135 C 0.38471 0.62547 0.69992 0.0
H3136 H 0.40309 0.66184 0.7273 0.0
C3137 C 0.4229 0.63421 0.76597 0.0
C3138 C 0.41449 0.62195 0.77541 0.0
C3139 C 0.41707 0.63891 0.75017 0.0
C3140 C 0.39812 0.65153 0.71975 0.0
H3141 H 0.37375 0.62599 0.63837 0.0
H3142 H 0.38745 0.62237 0.66519 0.0
H3143 H 0.39347 0.66753 0.69884 0.0
H3144 H 0.39302 0.60553 0.77593 0.0
H3145 H 0.38262 0.6141 0.74891 0.0
H3146 H 0.38968 0.60939 0.7205 0.0
C3147 C 0.38043 0.6334 0.66339 0.0
C3148 C 0.39246 0.65482 0.7035 0.0
C3149 C 0.37264 0.63552 0.64797 0.0
C3150 C 0.39984 0.615 0.76905 0.0
C3151 C 0.39394 0.61979 0.75341 0.0
C3152 C 0.39043 0.62219 0.71604 0.0
C3153 C 0.37892 0.64517 0.67642 0.0
C3154 C 0.38561 0.64182 0.69343 0.0
C3155 C 0.40267 0.63148 0.74357 0.0
C3156 C 0.39704 0.63518 0.72624 0.0
H3157 H 0.35535 0.67277 0.65596 0.0
H3158 H 0.36858 0.66883 0.68309 0.0
H3159 H 0.37929 0.61518 0.69267 0.0
H3160 H 0.43426 0.63978 0.77051 0.0
H3161 H 0.42413 0.64789 0.74288 0.0
C3162 C 0.10344 0.64302 0.55586 0.0
C3163 C 0.11279 0.6511 0.56851 0.0
C3164 C 0.11015 0.63956 0.54029 0.0
C3165 C 0.14951 0.63739 0.51826 0.0
H3166 H 0.12201 0.63961 0.47863 0.0
C3167 C 0.17322 0.63405 0.45019 0.0
C3168 C 0.16583 0.62099 0.44064 0.0
C3169 C 0.16672 0.63873 0.46556 0.0
C3170 C 0.12979 0.63896 0.48962 0.0
H3171 H 0.1365 0.66191 0.57482 0.0
H3172 H 0.14806 0.65651 0.54745 0.0
H3173 H 0.11098 0.64572 0.50613 0.0
H3174 H 0.14551 0.60305 0.43931 0.0
H3175 H 0.13391 0.6116 0.46594 0.0
H3176 H 0.16841 0.63109 0.50146 0.0
C3177 C 0.13567 0.65235 0.54965 0.0
C3178 C 0.12348 0.64231 0.5054 0.0
C3179 C 0.12904 0.65551 0.56535 0.0
C3180 C 0.1515 0.61311 0.44644 0.0
C3181 C 0.14483 0.61803 0.46161 0.0
C3182 C 0.15588 0.63436 0.50242 0.0
C3183 C 0.12628 0.64442 0.53686 0.0
C3184 C 0.13319 0.64136 0.51998 0.0
C3185 C 0.15253 0.63067 0.47141 0.0
C3186 C 0.14603 0.63495 0.48801 0.0
H3187 H 0.09092 0.63932 0.55801 0.0
H3188 H 0.10264 0.63304 0.53096 0.0
H3189 H 0.15731 0.63626 0.52915 0.0
H3190 H 0.18431 0.64028 0.44606 0.0
H3191 H 0.1728 0.64857 0.47292 0.0
C3192 C 0.08222 0.61327 0.24455 0.0
C3193 C 0.09066 0.60354 0.23307 0.0
C3194 C 0.08828 0.61596 0.26088 0.0
C3195 C 0.11392 0.59582 0.2918 0.0
H3196 H 0.11814 0.63909 0.31404 0.0
C3197 C 0.13986 0.60056 0.35824 0.0
C3198 C 0.15259 0.61255 0.36035 0.0
C3199 C 0.12948 0.60119 0.34436 0.0
C3200 C 0.11696 0.62693 0.30799 0.0
H3201 H 0.11227 0.58942 0.22959 0.0
H3202 H 0.12275 0.59416 0.25784 0.0
H3203 H 0.106 0.63697 0.28581 0.0
H3204 H 0.16367 0.63532 0.35013 0.0
H3205 H 0.14571 0.63623 0.32572 0.0
H3206 H 0.12525 0.58574 0.31349 0.0
C3207 C 0.11142 0.59959 0.25431 0.0
C3208 C 0.10994 0.62571 0.29192 0.0
C3209 C 0.10545 0.597 0.23806 0.0
C3210 C 0.15404 0.62583 0.34885 0.0
C3211 C 0.14367 0.62642 0.33489 0.0
C3212 C 0.12081 0.597 0.3078 0.0
C3213 C 0.10276 0.60881 0.26598 0.0
C3214 C 0.1087 0.61018 0.28356 0.0
C3215 C 0.13163 0.61377 0.33222 0.0
C3216 C 0.12266 0.61259 0.31599 0.0
H3217 H 0.07079 0.61849 0.24105 0.0
H3218 H 0.08138 0.62312 0.26967 0.0
H3219 H 0.11292 0.58365 0.28572 0.0
H3220 H 0.13823 0.59031 0.367 0.0
H3221 H 0.12009 0.59146 0.34282 0.0
C3222 C 0.09581 0.38151 0.08371 0.0
C3223 C 0.11047 0.37738 0.09147 0.0
C3224 C 0.09287 0.37771 0.0668 0.0
C3225 C 0.09847 0.38258 0.02952 0.0
H3226 H 0.11586 0.34441 0.00666 0.0
C3227 C 0.10942 0.37976 0.95738 0.0
C3228 C 0.12546 0.37588 0.95382 0.0
C3229 C 0.10343 0.37778 0.97365 0.0
C3230 C 0.11079 0.35506 0.01288 0.0
H3231 H 0.13291 0.36471 0.08791 0.0
H3232 H 0.12789 0.35827 0.05848 0.0
H3233 H 0.11194 0.3434 0.03697 0.0
H3234 H 0.14776 0.36696 0.96463 0.0
H3235 H 0.13731 0.36353 0.99272 0.0
H3236 H 0.09802 0.39449 0.00546 0.0
C3237 C 0.1186 0.36438 0.06544 0.0
C3238 C 0.10857 0.3545 0.0302 0.0
C3239 C 0.12155 0.3682 0.08232 0.0
C3240 C 0.13536 0.37012 0.96686 0.0
C3241 C 0.12933 0.36794 0.98295 0.0
C3242 C 0.10061 0.3831 0.01216 0.0
C3243 C 0.1045 0.36962 0.05734 0.0
C3244 C 0.1031 0.36855 0.0388 0.0
C3245 C 0.11331 0.37162 0.98649 0.0
C3246 C 0.10748 0.36964 0.00385 0.0
H3247 H 0.08692 0.38844 0.09044 0.0
H3248 H 0.0818 0.38168 0.06095 0.0
H3249 H 0.09433 0.39366 0.03578 0.0
H3250 H 0.10149 0.3842 0.94759 0.0
H3251 H 0.09105 0.38082 0.97616 0.0
C3252 C 0.37014 0.35838 0.8163 0.0
C3253 C 0.38134 0.35706 0.82958 0.0
C3254 C 0.37514 0.36385 0.80052 0.0
C3255 C 0.40946 0.38532 0.77864 0.0
H3256 H 0.38774 0.36649 0.73907 0.0
C3257 C 0.43176 0.39655 0.71088 0.0
C3258 C 0.42006 0.40259 0.69976 0.0
C3259 C 0.42732 0.39046 0.72665 0.0
C3260 C 0.39386 0.37186 0.75004 0.0
H3261 H 0.4067 0.35979 0.83646 0.0
H3262 H 0.41555 0.36876 0.80875 0.0
H3263 H 0.37973 0.35675 0.76683 0.0
H3264 H 0.3945 0.40672 0.69639 0.0
H3265 H 0.38672 0.39561 0.72374 0.0
H3266 H 0.42388 0.40009 0.76163 0.0
C3267 C 0.40278 0.36621 0.8107 0.0
C3268 C 0.38923 0.36639 0.76596 0.0
C3269 C 0.39773 0.36099 0.82658 0.0
C3270 C 0.40379 0.40209 0.70459 0.0
C3271 C 0.39933 0.39572 0.72024 0.0
C3272 C 0.41427 0.39058 0.76269 0.0
C3273 C 0.39154 0.36771 0.79746 0.0
C3274 C 0.39685 0.37318 0.78049 0.0
C3275 C 0.41108 0.39003 0.73146 0.0
C3276 C 0.4064 0.384 0.74829 0.0
H3277 H 0.35743 0.35529 0.81806 0.0
H3278 H 0.36608 0.36514 0.79076 0.0
H3279 H 0.41544 0.39104 0.78951 0.0
H3280 H 0.44441 0.39683 0.70756 0.0
H3281 H 0.43658 0.38605 0.73508 0.0
C3282 C 0.39725 0.63219 0.43817 0.0
C3283 C 0.38325 0.63851 0.4308 0.0
C3284 C 0.40182 0.63687 0.45458 0.0
C3285 C 0.39626 0.66842 0.4876 0.0
H3286 H 0.39372 0.63106 0.51843 0.0
C3287 C 0.36887 0.67338 0.55239 0.0
C3288 C 0.37165 0.66098 0.56438 0.0
C3289 C 0.3771 0.67336 0.53717 0.0
C3290 C 0.39503 0.64173 0.51016 0.0
H3291 H 0.36362 0.65535 0.43433 0.0
H3292 H 0.37174 0.66368 0.46271 0.0
H3293 H 0.39588 0.62574 0.48858 0.0
H3294 H 0.3866 0.64027 0.57098 0.0
H3295 H 0.40161 0.64079 0.54484 0.0
H3296 H 0.39495 0.68446 0.50908 0.0
C3297 C 0.3791 0.65506 0.45593 0.0
C3298 C 0.39621 0.63861 0.49298 0.0
C3299 C 0.37434 0.65011 0.43978 0.0
C3300 C 0.38406 0.6498 0.56177 0.0
C3301 C 0.39256 0.65002 0.54673 0.0
C3302 C 0.39537 0.67158 0.50483 0.0
C3303 C 0.39271 0.6483 0.46358 0.0
C3304 C 0.39602 0.65187 0.48153 0.0
C3305 C 0.38848 0.66113 0.53381 0.0
C3306 C 0.39385 0.65824 0.51627 0.0
H3307 H 0.40434 0.62327 0.43148 0.0
H3308 H 0.4123 0.63142 0.46031 0.0
H3309 H 0.39627 0.67886 0.47896 0.0
H3310 H 0.35933 0.68212 0.55408 0.0
H3311 H 0.37349 0.68207 0.52759 0.0
C3312 C 0.16953 0.12159 0.39051 0.0
C3313 C 0.17129 0.13636 0.40003 0.0
C3314 C 0.18077 0.11798 0.37822 0.0
C3315 C 0.21838 0.13478 0.3569 0.0
H3316 H 0.22866 0.08781 0.3577 0.0
C3317 C 0.28118 0.10746 0.34463 0.0
C3318 C 0.28144 0.09268 0.335 0.0
C3319 C 0.26649 0.11462 0.34841 0.0
C3320 C 0.2258 0.10093 0.35711 0.0
H3321 H 0.18556 0.15938 0.40371 0.0
H3322 H 0.20575 0.15271 0.38302 0.0
H3323 H 0.20478 0.09682 0.3718 0.0
H3324 H 0.2666 0.07441 0.32092 0.0
H3325 H 0.24102 0.08674 0.32784 0.0
H3326 H 0.24037 0.13878 0.34317 0.0
C3327 C 0.19546 0.1441 0.38447 0.0
C3328 C 0.21198 0.10615 0.36512 0.0
C3329 C 0.18392 0.14794 0.39642 0.0
C3330 C 0.26683 0.08574 0.32846 0.0
C3331 C 0.25217 0.09277 0.33241 0.0
C3332 C 0.23244 0.12956 0.34916 0.0
C3333 C 0.19437 0.12876 0.37563 0.0
C3334 C 0.20814 0.12318 0.36534 0.0
C3335 C 0.25185 0.10701 0.34277 0.0
C3336 C 0.23632 0.11261 0.34937 0.0
H3337 H 0.15975 0.11257 0.39298 0.0
H3338 H 0.17912 0.10635 0.37126 0.0
H3339 H 0.21573 0.14794 0.35651 0.0
H3340 H 0.29225 0.11316 0.34976 0.0
H3341 H 0.26654 0.12555 0.35652 0.0
C3342 C 0.75545 0.36382 0.63262 0.0
C3343 C 0.76334 0.37358 0.62033 0.0
C3344 C 0.74143 0.35431 0.62857 0.0
C3345 C 0.71761 0.33607 0.59285 0.0
H3346 H 0.68237 0.33683 0.62443 0.0
C3347 C 0.65238 0.31131 0.57703 0.0
C3348 C 0.64401 0.30262 0.58979 0.0
C3349 C 0.66752 0.31908 0.58033 0.0
C3350 C 0.69216 0.33631 0.61557 0.0
H3351 H 0.76287 0.38074 0.59408 0.0
H3352 H 0.73831 0.36431 0.5871 0.0
H3353 H 0.70773 0.3519 0.63107 0.0
H3354 H 0.64533 0.29479 0.61585 0.0
H3355 H 0.67167 0.30815 0.62146 0.0
H3356 H 0.70189 0.32056 0.57728 0.0
C3357 C 0.74305 0.36386 0.59981 0.0
C3358 C 0.70671 0.34494 0.61938 0.0
C3359 C 0.75708 0.37337 0.60385 0.0
C3360 C 0.65133 0.30149 0.60574 0.0
C3361 C 0.66642 0.30923 0.60901 0.0
C3362 C 0.70302 0.32743 0.58902 0.0
C3363 C 0.73498 0.35435 0.61216 0.0
C3364 C 0.71962 0.34491 0.60809 0.0
C3365 C 0.67459 0.31833 0.59644 0.0
C3366 C 0.69015 0.32743 0.60036 0.0
H3367 H 0.76001 0.36362 0.64541 0.0
H3368 H 0.73564 0.3469 0.63832 0.0
H3369 H 0.72739 0.33566 0.58397 0.0
H3370 H 0.64711 0.31243 0.5646 0.0
H3371 H 0.67347 0.32609 0.5704 0.0
C3372 C 0.37605 0.90458 0.40462 0.0
C3373 C 0.36305 0.89283 0.40607 0.0
C3374 C 0.37334 0.92107 0.39983 0.0
C3375 C 0.34188 0.94699 0.38005 0.0
H3376 H 0.36942 0.98399 0.39658 0.0
C3377 C 0.32693 0.01617 0.3705 0.0
C3378 C 0.33896 0.02581 0.36227 0.0
C3379 C 0.33024 0.00035 0.37676 0.0
C3380 C 0.36169 0.97373 0.39186 0.0
H3381 H 0.33702 0.88943 0.40466 0.0
H3382 H 0.33219 0.91831 0.39713 0.0
H3383 H 0.3742 0.95553 0.40608 0.0
H3384 H 0.36406 0.02668 0.35476 0.0
H3385 H 0.36993 -0.00085 0.36618 0.0
H3386 H 0.32909 0.96539 0.36629 0.0
C3387 C 0.34455 0.91467 0.39886 0.0
C3388 C 0.36446 0.9574 0.39719 0.0
C3389 C 0.34729 0.89813 0.40332 0.0
C3390 C 0.35453 0.01957 0.361 0.0
C3391 C 0.35792 0.00385 0.36757 0.0
C3392 C 0.33895 0.96332 0.375 0.0
C3393 C 0.35755 0.92633 0.39681 0.0
C3394 C 0.3546 0.94379 0.39132 0.0
C3395 C 0.34571 0.994 0.37521 0.0
C3396 C 0.34883 0.9768 0.38083 0.0
H3397 H 0.38837 0.90097 0.40676 0.0
H3398 H 0.38369 0.92957 0.39818 0.0
H3399 H 0.33428 0.93687 0.37489 0.0
H3400 H 0.3148 0.02061 0.37165 0.0
H3401 H 0.32066 0.99298 0.3827 0.0
C3402 C 0.84421 0.67833 0.08525 0.0
C3403 C 0.85223 0.68709 0.09847 0.0
C3404 C 0.82878 0.67103 0.08754 0.0
C3405 C 0.8024 0.65516 0.12128 0.0
H3406 H 0.76887 0.65466 0.08689 0.0
C3407 C 0.73867 0.62816 0.13432 0.0
C3408 C 0.73155 0.61752 0.12199 0.0
C3409 C 0.75263 0.63779 0.13086 0.0
C3410 C 0.77817 0.6546 0.09655 0.0
H3411 H 0.84996 0.69564 0.12422 0.0
H3412 H 0.82306 0.68312 0.1281 0.0
H3413 H 0.79467 0.6696 0.08187 0.0
H3414 H 0.73323 0.60909 0.09616 0.0
H3415 H 0.75776 0.62582 0.09018 0.0
H3416 H 0.78606 0.64009 0.13591 0.0
C3417 C 0.82883 0.68159 0.11608 0.0
C3418 C 0.79294 0.66314 0.09368 0.0
C3419 C 0.84424 0.68885 0.11381 0.0
C3420 C 0.73843 0.61713 0.10595 0.0
C3421 C 0.75244 0.62678 0.10249 0.0
C3422 C 0.78768 0.64666 0.12414 0.0
C3423 C 0.82103 0.67235 0.10308 0.0
C3424 C 0.80521 0.66353 0.10604 0.0
C3425 C 0.75984 0.63701 0.115 0.0
C3426 C 0.77538 0.64629 0.11184 0.0
H3427 H 0.85 0.67674 0.07325 0.0
H3428 H 0.82315 0.66389 0.07732 0.0
H3429 H 0.81172 0.6549 0.13092 0.0
H3430 H 0.7336 0.62889 0.14677 0.0
H3431 H 0.75787 0.64578 0.14068 0.0
C3432 C 0.66412 0.61469 0.40197 0.0
C3433 C 0.64867 0.6187 0.39616 0.0
C3434 C 0.66666 0.59911 0.4093 0.0
C3435 C 0.64543 0.55832 0.42144 0.0
H3436 H 0.68356 0.53977 0.40197 0.0
C3437 C 0.64982 0.49102 0.39651 0.0
C3438 C 0.66454 0.48297 0.39815 0.0
C3439 C 0.64821 0.5072 0.40288 0.0
C3440 C 0.67303 0.54477 0.40784 0.0
H3441 H 0.62353 0.61013 0.39487 0.0
H3442 H 0.628 0.58288 0.40683 0.0
H3443 H 0.68042 0.56975 0.40158 0.0
H3444 H 0.68875 0.48511 0.40883 0.0
H3445 H 0.686 0.51352 0.41967 0.0
H3446 H 0.63757 0.5329 0.42636 0.0
C3447 C 0.63818 0.59174 0.40618 0.0
C3448 C 0.67122 0.56207 0.4077 0.0
C3449 C 0.6356 0.60744 0.3992 0.0
C3450 C 0.67727 0.49099 0.40729 0.0
C3451 C 0.67572 0.50726 0.41347 0.0
C3452 C 0.64714 0.54094 0.42132 0.0
C3453 C 0.65388 0.58704 0.41059 0.0
C3454 C 0.65715 0.56908 0.41399 0.0
C3455 C 0.66135 0.51572 0.41085 0.0
C3456 C 0.66075 0.53399 0.41406 0.0
H3457 H 0.6744 0.62323 0.40005 0.0
H3458 H 0.67882 0.59621 0.41309 0.0
H3459 H 0.63462 0.56323 0.42678 0.0
H3460 H 0.63978 0.4852 0.38959 0.0
H3461 H 0.63703 0.51346 0.40054 0.0
C3462 C 0.21806 0.88388 0.86222 0.0
C3463 C 0.21101 0.89163 0.8761 0.0
C3464 C 0.23265 0.87572 0.86406 0.0
C3465 C 0.25999 0.85233 0.87483 0.0
H3466 H 0.29228 0.87663 0.90197 0.0
C3467 C 0.31524 0.8231 0.90718 0.0
C3468 C 0.32876 0.83374 0.91065 0.0
C3469 C 0.30195 0.82915 0.89837 0.0
C3470 C 0.28357 0.86975 0.89408 0.0
H3471 H 0.21342 0.89625 0.9029 0.0
H3472 H 0.23873 0.88209 0.90606 0.0
H3473 H 0.26653 0.889 0.89639 0.0
H3474 H 0.33996 0.85818 0.90591 0.0
H3475 H 0.31717 0.86848 0.88993 0.0
H3476 H 0.27714 0.83293 0.87276 0.0
C3477 C 0.23312 0.88251 0.89372 0.0
C3478 C 0.26868 0.87677 0.89111 0.0
C3479 C 0.21857 0.89057 0.89191 0.0
C3480 C 0.32958 0.84979 0.90354 0.0
C3481 C 0.31647 0.85573 0.89452 0.0
C3482 C 0.27496 0.84521 0.87788 0.0
C3483 C 0.24048 0.87528 0.87978 0.0
C3484 C 0.25662 0.86804 0.88173 0.0
C3485 C 0.30212 0.84586 0.89277 0.0
C3486 C 0.28686 0.8538 0.88771 0.0
H3487 H 0.21249 0.88442 0.84987 0.0
H3488 H 0.23807 0.87027 0.8531 0.0
H3489 H 0.25089 0.84532 0.86754 0.0
H3490 H 0.31428 0.81069 0.91262 0.0
H3491 H 0.2911 0.82121 0.89724 0.0
C3492 C 0.32674 0.96258 0.11623 0.0
C3493 C 0.33559 0.95536 0.12933 0.0
C3494 C 0.33302 0.97665 0.10776 0.0
C3495 C 0.37075 0.00057 0.09892 0.0
H3496 H 0.34456 0.03983 0.09924 0.0
C3497 C 0.38356 0.07472 0.10352 0.0
C3498 C 0.39525 0.07722 0.09102 0.0
C3499 C 0.37413 0.05988 0.10399 0.0
C3500 C 0.35193 0.02892 0.09889 0.0
H3501 H 0.3581 0.95708 0.14354 0.0
H3502 H 0.36914 0.98126 0.12857 0.0
H3503 H 0.33273 0.01268 0.10782 0.0
H3504 H 0.40555 0.06647 0.06866 0.0
H3505 H 0.38915 0.04041 0.06967 0.0
H3506 H 0.39013 0.01687 0.0907 0.0
C3507 C 0.35738 0.97603 0.12482 0.0
C3508 C 0.34515 0.01339 0.10368 0.0
C3509 C 0.35101 0.96217 0.13344 0.0
C3510 C 0.39669 0.06492 0.07849 0.0
C3511 C 0.38736 0.04998 0.07908 0.0
C3512 C 0.37747 0.01604 0.09396 0.0
C3513 C 0.34836 0.98355 0.11207 0.0
C3514 C 0.35466 -0.00079 0.10425 0.0
C3515 C 0.37627 0.04717 0.09207 0.0
C3516 C 0.36827 0.03045 0.0944 0.0
H3517 H 0.31479 0.95765 0.1128 0.0
H3518 H 0.32585 0.98224 0.09796 0.0
H3519 H 0.37829 0.98978 0.09915 0.0
H3520 H 0.38207 0.084 0.11329 0.0
H3521 H 0.36578 0.058 0.11424 0.0
C3522 C 0.12044 0.94171 0.634 0.0
C3523 C 0.11507 0.93713 0.61776 0.0
C3524 C 0.13311 0.9535 0.63633 0.0
C3525 C 0.15515 0.98826 0.61502 0.0
H3526 H 0.18392 0.98457 0.6535 0.0
C3527 C 0.20549 0.03827 0.63216 0.0
C3528 C 0.20396 0.04448 0.64857 0.0
C3529 C 0.19678 0.02373 0.62704 0.0
C3530 C 0.17602 0.9857 0.64266 0.0
H3531 H 0.11904 0.9412 0.59118 0.0
H3532 H 0.14148 0.96161 0.59526 0.0
H3533 H 0.16476 0.96155 0.64664 0.0
H3534 H 0.19268 0.04012 0.67267 0.0
H3535 H 0.17781 0.01457 0.66385 0.0
H3536 H 0.1665 0.0125 0.61118 0.0
C3537 C 0.13565 0.95626 0.60621 0.0
C3538 C 0.16497 0.97259 0.63878 0.0
C3539 C 0.12282 0.94453 0.60387 0.0
C3540 C 0.19406 0.03561 0.65993 0.0
C3541 C 0.18562 0.02096 0.65492 0.0
C3542 C 0.16637 0.00129 0.6188 0.0
C3543 C 0.14091 0.96092 0.62249 0.0
C3544 C 0.15405 0.97391 0.62522 0.0
C3545 C 0.18671 0.01502 0.63837 0.0
C3546 C 0.17658 0.0003 0.63292 0.0
H3547 H 0.11468 0.93637 0.645 0.0
H3548 H 0.13655 0.95704 0.64905 0.0
H3549 H 0.14686 0.98979 0.60459 0.0
H3550 H 0.21298 0.04494 0.62313 0.0
H3551 H 0.19781 0.01936 0.61421 0.0
loop_
_geom_bond_atom_site_label_1
_geom_bond_atom_site_label_2
_geom_bond_distance
_geom_bond_site_symmetry_2
_ccdc_geom_bond_type
Mg0 O1 2.028 . S
Mg0 O7 1.986 . S
Mg0 O9 2.114 . S
Mg0 O10 2.251 . S
Mg0 O13 2.010 . S
O1 Mg0 2.028 . S
O1 C4 1.250 . S
O2 Mg3 2.028 . S
O2 C4 1.248 . S
Mg3 O2 2.028 . S
Mg3 O8 2.032 . S
Mg3 O10 2.079 . S
C4 O1 1.250 . S
C4 O2 1.248 . S
C5 O6 1.264 . S
C5 O13 1.249 . S
O6 C5 1.264 . S
O7 Mg0 1.986 . S
O7 C11 1.246 . S
O8 Mg3 2.032 . S
O8 C11 1.259 . S
O9 Mg0 2.114 . S
O9 C12 1.252 . S
O10 Mg0 2.251 . S
O10 Mg3 2.079 . S
O10 C12 1.273 . S
C11 O7 1.246 . S
C11 O8 1.259 . S
C12 O9 1.252 . S
C12 O10 1.273 . S
O13 Mg0 2.010 . S
O13 C5 1.249 . S
Mg14 O15 2.028 . S
Mg14 O21 1.986 . S
Mg14 O23 2.114 . S
Mg14 O24 2.251 . S
Mg14 O27 2.010 . S
O15 Mg14 2.028 . S
O15 C18 1.250 . S
O16 Mg17 2.028 . S
O16 C18 1.248 . S
Mg17 O16 2.028 . S
Mg17 O22 2.032 . S
Mg17 O24 2.079 . S
C18 O15 1.250 . S
C18 O16 1.248 . S
C19 O20 1.264 . S
C19 O27 1.249 . S
O20 C19 1.264 . S
O21 Mg14 1.986 . S
O21 C25 1.246 . S
O22 Mg17 2.032 . S
O22 C25 1.259 . S
O23 Mg14 2.114 . S
O23 C26 1.252 . S
O24 Mg14 2.251 . S
O24 Mg17 2.079 . S
O24 C26 1.273 . S
C25 O21 1.246 . S
C25 O22 1.259 . S
C26 O23 1.252 . S
C26 O24 1.273 . S
O27 Mg14 2.010 . S
O27 C19 1.249 . S
Mg28 O29 2.028 . S
Mg28 O35 1.986 . S
Mg28 O37 2.114 . S
Mg28 O38 2.251 . S
Mg28 O41 2.010 . S
O29 Mg28 2.028 . S
O29 C32 1.250 . S
O30 Mg31 2.028 . S
O30 C32 1.248 . S
Mg31 O30 2.028 . S
Mg31 O36 2.032 . S
Mg31 O38 2.079 . S
C32 O29 1.250 . S
C32 O30 1.248 . S
C33 O34 1.264 . S
C33 O41 1.249 . S
O34 C33 1.264 . S
O35 Mg28 1.986 . S
O35 C39 1.246 . S
O36 Mg31 2.032 . S
O36 C39 1.259 . S
O37 Mg28 2.114 . S
O37 C40 1.252 . S
O38 Mg28 2.251 . S
O38 Mg31 2.079 . S
O38 C40 1.273 . S
C39 O35 1.246 . S
C39 O36 1.259 . S
C40 O37 1.252 . S
C40 O38 1.273 . S
O41 Mg28 2.010 . S
O41 C33 1.249 . S
Mg42 O43 2.028 . S
Mg42 O49 1.986 . S
Mg42 O51 2.114 . S
Mg42 O52 2.251 . S
Mg42 O55 2.010 . S
O43 Mg42 2.028 . S
O43 C46 1.250 . S
O44 Mg45 2.028 . S
O44 C46 1.248 . S
Mg45 O44 2.028 . S
Mg45 O50 2.032 . S
Mg45 O52 2.079 . S
C46 O43 1.250 . S
C46 O44 1.248 . S
C47 O48 1.264 . S
C47 O55 1.249 . S
O48 C47 1.264 . S
O49 Mg42 1.986 . S
O49 C53 1.246 . S
O50 Mg45 2.032 . S
O50 C53 1.259 . S
O51 Mg42 2.114 . S
O51 C54 1.252 . S
O52 Mg42 2.251 . S
O52 Mg45 2.079 . S
O52 C54 1.273 . S
C53 O49 1.246 . S
C53 O50 1.259 . S
C54 O51 1.252 . S
C54 O52 1.273 . S
O55 Mg42 2.010 . S
O55 C47 1.249 . S
Mg56 O57 2.028 . S
Mg56 O63 1.986 . S
Mg56 O65 2.114 . S
Mg56 O66 2.251 . S
Mg56 O69 2.010 . S
O57 Mg56 2.028 . S
O57 C60 1.250 . S
O58 Mg59 2.028 . S
O58 C60 1.248 . S
Mg59 O58 2.028 . S
Mg59 O64 2.032 . S
Mg59 O66 2.079 . S
C60 O57 1.250 . S
C60 O58 1.248 . S
C61 O62 1.264 . S
C61 O69 1.249 . S
O62 C61 1.264 . S
O63 Mg56 1.986 . S
O63 C67 1.246 . S
O64 Mg59 2.032 . S
O64 C67 1.259 . S
O65 Mg56 2.114 . S
O65 C68 1.252 . S
O66 Mg56 2.251 . S
O66 Mg59 2.079 . S
O66 C68 1.273 . S
C67 O63 1.246 . S
C67 O64 1.259 . S
C68 O65 1.252 . S
C68 O66 1.273 . S
O69 Mg56 2.010 . S
O69 C61 1.249 . S
Mg70 O71 2.028 . S
Mg70 O77 1.986 . S
Mg70 O79 2.114 . S
Mg70 O80 2.251 . S
Mg70 O83 2.010 . S
O71 Mg70 2.028 . S
O71 C74 1.250 . S
O72 Mg73 2.028 . S
O72 C74 1.248 . S
Mg73 O72 2.028 . S
Mg73 O78 2.032 . S
Mg73 O80 2.079 . S
C74 O71 1.250 . S
C74 O72 1.248 . S
C75 O76 1.264 . S
C75 O83 1.249 . S
O76 C75 1.264 . S
O77 Mg70 1.986 . S
O77 C81 1.246 . S
O78 Mg73 2.032 . S
O78 C81 1.259 . S
O79 Mg70 2.114 . S
O79 C82 1.252 . S
O80 Mg70 2.251 . S
O80 Mg73 2.079 . S
O80 C82 1.273 . S
C81 O77 1.246 . S
C81 O78 1.259 . S
C82 O79 1.252 . S
C82 O80 1.273 . S
O83 Mg70 2.010 . S
O83 C75 1.249 . S
Mg84 O85 2.028 . S
Mg84 O91 1.986 . S
Mg84 O93 2.114 . S
Mg84 O94 2.251 . S
Mg84 O97 2.010 . S
O85 Mg84 2.028 . S
O85 C88 1.250 . S
O86 Mg87 2.028 . S
O86 C88 1.248 . S
Mg87 O86 2.028 . S
Mg87 O92 2.032 . S
Mg87 O94 2.079 . S
C88 O85 1.250 . S
C88 O86 1.248 . S
C89 O90 1.264 . S
C89 O97 1.249 . S
O90 C89 1.264 . S
O91 Mg84 1.986 . S
O91 C95 1.246 . S
O92 Mg87 2.032 . S
O92 C95 1.259 . S
O93 Mg84 2.114 . S
O93 C96 1.252 . S
O94 Mg84 2.251 . S
O94 Mg87 2.079 . S
O94 C96 1.273 . S
C95 O91 1.246 . S
C95 O92 1.259 . S
C96 O93 1.252 . S
C96 O94 1.273 . S
O97 Mg84 2.010 . S
O97 C89 1.249 . S
Mg98 O99 2.028 . S
Mg98 O105 1.986 . S
Mg98 O107 2.114 . S
Mg98 O108 2.251 . S
Mg98 O111 2.010 . S
O99 Mg98 2.028 . S
O99 C102 1.250 . S
O100 Mg101 2.028 . S
O100 C102 1.248 . S
Mg101 O100 2.028 . S
Mg101 O106 2.032 . S
Mg101 O108 2.079 . S
C102 O99 1.250 . S
C102 O100 1.248 . S
C103 O104 1.264 . S
C103 O111 1.249 . S
O104 C103 1.264 . S
O105 Mg98 1.986 . S
O105 C109 1.246 . S
O106 Mg101 2.032 . S
O106 C109 1.259 . S
O107 Mg98 2.114 . S
O107 C110 1.252 . S
O108 Mg98 2.251 . S
O108 Mg101 2.079 . S
O108 C110 1.273 . S
C109 O105 1.246 . S
C109 O106 1.259 . S
C110 O107 1.252 . S
C110 O108 1.273 . S
O111 Mg98 2.010 . S
O111 C103 1.249 . S
Mg112 O113 2.028 . S
Mg112 O119 1.986 . S
Mg112 O121 2.114 . S
Mg112 O122 2.251 . S
Mg112 O125 2.010 . S
O113 Mg112 2.028 . S
O113 C116 1.250 . S
O114 Mg115 2.028 . S
O114 C116 1.248 . S
Mg115 O114 2.028 . S
Mg115 O120 2.032 . S
Mg115 O122 2.079 . S
C116 O113 1.250 . S
C116 O114 1.248 . S
C117 O118 1.264 . S
C117 O125 1.249 . S
O118 C117 1.264 . S
O119 Mg112 1.986 . S
O119 C123 1.246 . S
O120 Mg115 2.032 . S
O120 C123 1.259 . S
O121 Mg112 2.114 . S
O121 C124 1.252 . S
O122 Mg112 2.251 . S
O122 Mg115 2.079 . S
O122 C124 1.273 . S
C123 O119 1.246 . S
C123 O120 1.259 . S
C124 O121 1.252 . S
C124 O122 1.273 . S
O125 Mg112 2.010 . S
O125 C117 1.249 . S
Mg126 O127 2.028 . S
Mg126 O133 1.986 . S
Mg126 O135 2.114 . S
Mg126 O136 2.251 . S
Mg126 O139 2.010 . S
O127 Mg126 2.028 . S
O127 C130 1.250 . S
O128 Mg129 2.028 . S
O128 C130 1.248 . S
Mg129 O128 2.028 . S
Mg129 O134 2.032 . S
Mg129 O136 2.079 . S
C130 O127 1.250 . S
C130 O128 1.248 . S
C131 O132 1.264 . S
C131 O139 1.249 . S
O132 C131 1.264 . S
O133 Mg126 1.986 . S
O133 C137 1.246 . S
O134 Mg129 2.032 . S
O134 C137 1.259 . S
O135 Mg126 2.114 . S
O135 C138 1.252 . S
O136 Mg126 2.251 . S
O136 Mg129 2.079 . S
O136 C138 1.273 . S
C137 O133 1.246 . S
C137 O134 1.259 . S
C138 O135 1.252 . S
C138 O136 1.273 . S
O139 Mg126 2.010 . S
O139 C131 1.249 . S
Mg140 O141 2.028 . S
Mg140 O147 1.986 . S
Mg140 O149 2.114 . S
Mg140 O150 2.251 . S
Mg140 O153 2.010 . S
O141 Mg140 2.028 . S
O141 C144 1.250 . S
O142 Mg143 2.028 . S
O142 C144 1.248 . S
Mg143 O142 2.028 . S
Mg143 O148 2.032 . S
Mg143 O150 2.079 . S
C144 O141 1.250 . S
C144 O142 1.248 . S
C145 O146 1.264 . S
C145 O153 1.249 . S
O146 C145 1.264 . S
O147 Mg140 1.986 . S
O147 C151 1.246 . S
O148 Mg143 2.032 . S
O148 C151 1.259 . S
O149 Mg140 2.114 . S
O149 C152 1.252 . S
O150 Mg140 2.251 . S
O150 Mg143 2.079 . S
O150 C152 1.273 . S
C151 O147 1.246 . S
C151 O148 1.259 . S
C152 O149 1.252 . S
C152 O150 1.273 . S
O153 Mg140 2.010 . S
O153 C145 1.249 . S
Mg154 O155 2.028 . S
Mg154 O161 1.986 . S
Mg154 O163 2.114 . S
Mg154 O164 2.251 . S
Mg154 O167 2.010 . S
O155 Mg154 2.028 . S
O155 C158 1.250 . S
O156 Mg157 2.028 . S
O156 C158 1.248 . S
Mg157 O156 2.028 . S
Mg157 O162 2.032 . S
Mg157 O164 2.079 . S
C158 O155 1.250 . S
C158 O156 1.248 . S
C159 O160 1.264 . S
C159 O167 1.249 . S
O160 C159 1.264 . S
O161 Mg154 1.986 . S
O161 C165 1.246 . S
O162 Mg157 2.032 . S
O162 C165 1.259 . S
O163 Mg154 2.114 . S
O163 C166 1.252 . S
O164 Mg154 2.251 . S
O164 Mg157 2.079 . S
O164 C166 1.273 . S
C165 O161 1.246 . S
C165 O162 1.259 . S
C166 O163 1.252 . S
C166 O164 1.273 . S
O167 Mg154 2.010 . S
O167 C159 1.249 . S
Mg168 O169 2.028 . S
Mg168 O175 1.986 . S
Mg168 O177 2.114 . S
Mg168 O178 2.251 . S
Mg168 O181 2.010 . S
O169 Mg168 2.028 . S
O169 C172 1.250 . S
O170 Mg171 2.028 . S
O170 C172 1.248 . S
Mg171 O170 2.028 . S
Mg171 O176 2.032 . S
Mg171 O178 2.079 . S
C172 O169 1.250 . S
C172 O170 1.248 . S
C173 O174 1.264 . S
C173 O181 1.249 . S
O174 C173 1.264 . S
O175 Mg168 1.986 . S
O175 C179 1.246 . S
O176 Mg171 2.032 . S
O176 C179 1.259 . S
O177 Mg168 2.114 . S
O177 C180 1.252 . S
O178 Mg168 2.251 . S
O178 Mg171 2.079 . S
O178 C180 1.273 . S
C179 O175 1.246 . S
C179 O176 1.259 . S
C180 O177 1.252 . S
C180 O178 1.273 . S
O181 Mg168 2.010 . S
O181 C173 1.249 . S
Mg182 O183 2.028 . S
Mg182 O189 1.986 . S
Mg182 O191 2.114 . S
Mg182 O192 2.251 . S
Mg182 O195 2.010 . S
O183 Mg182 2.028 . S
O183 C186 1.250 . S
O184 Mg185 2.028 . S
O184 C186 1.248 . S
Mg185 O184 2.028 . S
Mg185 O190 2.032 . S
Mg185 O192 2.079 . S
C186 O183 1.250 . S
C186 O184 1.248 . S
C187 O188 1.264 . S
C187 O195 1.249 . S
O188 C187 1.264 . S
O189 Mg182 1.986 . S
O189 C193 1.246 . S
O190 Mg185 2.032 . S
O190 C193 1.259 . S
O191 Mg182 2.114 . S
O191 C194 1.252 . S
O192 Mg182 2.251 . S
O192 Mg185 2.079 . S
O192 C194 1.273 . S
C193 O189 1.246 . S
C193 O190 1.259 . S
C194 O191 1.252 . S
C194 O192 1.273 . S
O195 Mg182 2.010 . S
O195 C187 1.249 . S
Mg196 O197 2.028 . S
Mg196 O203 1.986 . S
Mg196 O205 2.114 . S
Mg196 O206 2.251 . S
Mg196 O209 2.010 . S
O197 Mg196 2.028 . S
O197 C200 1.250 . S
O198 Mg199 2.028 . S
O198 C200 1.248 . S
Mg199 O198 2.028 . S
Mg199 O204 2.032 . S
Mg199 O206 2.079 . S
C200 O197 1.250 . S
C200 O198 1.248 . S
C201 O202 1.264 . S
C201 O209 1.249 . S
O202 C201 1.264 . S
O203 Mg196 1.986 . S
O203 C207 1.246 . S
O204 Mg199 2.032 . S
O204 C207 1.259 . S
O205 Mg196 2.114 . S
O205 C208 1.252 . S
O206 Mg196 2.251 . S
O206 Mg199 2.079 . S
O206 C208 1.273 . S
C207 O203 1.246 . S
C207 O204 1.259 . S
C208 O205 1.252 . S
C208 O206 1.273 . S
O209 Mg196 2.010 . S
O209 C201 1.249 . S
Mg210 O211 2.028 . S
Mg210 O217 1.986 . S
Mg210 O219 2.114 . S
Mg210 O220 2.251 . S
Mg210 O223 2.010 . S
O211 Mg210 2.028 . S
O211 C214 1.250 . S
O212 Mg213 2.028 . S
O212 C214 1.248 . S
Mg213 O212 2.028 . S
Mg213 O218 2.032 . S
Mg213 O220 2.079 . S
C214 O211 1.250 . S
C214 O212 1.248 . S
C215 O216 1.264 . S
C215 O223 1.249 . S
O216 C215 1.264 . S
O217 Mg210 1.986 . S
O217 C221 1.246 . S
O218 Mg213 2.032 . S
O218 C221 1.259 . S
O219 Mg210 2.114 . S
O219 C222 1.252 . S
O220 Mg210 2.251 . S
O220 Mg213 2.079 . S
O220 C222 1.273 . S
C221 O217 1.246 . S
C221 O218 1.259 . S
C222 O219 1.252 . S
C222 O220 1.273 . S
O223 Mg210 2.010 . S
O223 C215 1.249 . S
Mg224 O225 2.028 . S
Mg224 O231 1.986 . S
Mg224 O233 2.114 . S
Mg224 O234 2.251 . S
Mg224 O237 2.010 . S
O225 Mg224 2.028 . S
O225 C228 1.250 . S
O226 Mg227 2.028 . S
O226 C228 1.248 . S
Mg227 O226 2.028 . S
Mg227 O232 2.032 . S
Mg227 O234 2.079 . S
C228 O225 1.250 . S
C228 O226 1.248 . S
C229 O230 1.264 . S
C229 O237 1.249 . S
O230 C229 1.264 . S
O231 Mg224 1.986 . S
O231 C235 1.246 . S
O232 Mg227 2.032 . S
O232 C235 1.259 . S
O233 Mg224 2.114 . S
O233 C236 1.252 . S
O234 Mg224 2.251 . S
O234 Mg227 2.079 . S
O234 C236 1.273 . S
C235 O231 1.246 . S
C235 O232 1.259 . S
C236 O233 1.252 . S
C236 O234 1.273 . S
O237 Mg224 2.010 . S
O237 C229 1.249 . S
Mg238 O239 2.028 . S
Mg238 O245 1.986 . S
Mg238 O247 2.114 . S
Mg238 O248 2.251 . S
Mg238 O251 2.010 . S
O239 Mg238 2.028 . S
O239 C242 1.250 . S
O240 Mg241 2.028 . S
O240 C242 1.248 . S
Mg241 O240 2.028 . S
Mg241 O246 2.032 . S
Mg241 O248 2.079 . S
C242 O239 1.250 . S
C242 O240 1.248 . S
C243 O244 1.264 . S
C243 O251 1.249 . S
O244 C243 1.264 . S
O245 Mg238 1.986 . S
O245 C249 1.246 . S
O246 Mg241 2.032 . S
O246 C249 1.259 . S
O247 Mg238 2.114 . S
O247 C250 1.252 . S
O248 Mg238 2.251 . S
O248 Mg241 2.079 . S
O248 C250 1.273 . S
C249 O245 1.246 . S
C249 O246 1.259 . S
C250 O247 1.252 . S
C250 O248 1.273 . S
O251 Mg238 2.010 . S
O251 C243 1.249 . S
Mg252 O253 2.028 . S
Mg252 O259 1.986 . S
Mg252 O261 2.114 . S
Mg252 O262 2.251 . S
Mg252 O265 2.010 . S
O253 Mg252 2.028 . S
O253 C256 1.250 . S
O254 Mg255 2.028 . S
O254 C256 1.248 . S
Mg255 O254 2.028 . S
Mg255 O260 2.032 . S
Mg255 O262 2.079 . S
C256 O253 1.250 . S
C256 O254 1.248 . S
C257 O258 1.264 . S
C257 O265 1.249 . S
O258 C257 1.264 . S
O259 Mg252 1.986 . S
O259 C263 1.246 . S
O260 Mg255 2.032 . S
O260 C263 1.259 . S
O261 Mg252 2.114 . S
O261 C264 1.252 . S
O262 Mg252 2.251 . S
O262 Mg255 2.079 . S
O262 C264 1.273 . S
C263 O259 1.246 . S
C263 O260 1.259 . S
C264 O261 1.252 . S
C264 O262 1.273 . S
O265 Mg252 2.010 . S
O265 C257 1.249 . S
Mg266 O267 2.028 . S
Mg266 O273 1.986 . S
Mg266 O275 2.114 . S
Mg266 O276 2.251 . S
Mg266 O279 2.010 . S
O267 Mg266 2.028 . S
O267 C270 1.250 . S
O268 Mg269 2.028 . S
O268 C270 1.248 . S
Mg269 O268 2.028 . S
Mg269 O274 2.032 . S
Mg269 O276 2.079 . S
C270 O267 1.250 . S
C270 O268 1.248 . S
C271 O272 1.264 . S
C271 O279 1.249 . S
O272 C271 1.264 . S
O273 Mg266 1.986 . S
O273 C277 1.246 . S
O274 Mg269 2.032 . S
O274 C277 1.259 . S
O275 Mg266 2.114 . S
O275 C278 1.252 . S
O276 Mg266 2.251 . S
O276 Mg269 2.079 . S
O276 C278 1.273 . S
C277 O273 1.246 . S
C277 O274 1.259 . S
C278 O275 1.252 . S
C278 O276 1.273 . S
O279 Mg266 2.010 . S
O279 C271 1.249 . S
Mg280 O281 2.028 . S
Mg280 O287 1.986 . S
Mg280 O289 2.114 . S
Mg280 O290 2.251 . S
Mg280 O293 2.010 . S
O281 Mg280 2.028 . S
O281 C284 1.250 . S
O282 Mg283 2.028 . S
O282 C284 1.248 . S
Mg283 O282 2.028 . S
Mg283 O288 2.032 . S
Mg283 O290 2.079 . S
C284 O281 1.250 . S
C284 O282 1.248 . S
C285 O286 1.264 . S
C285 O293 1.249 . S
O286 C285 1.264 . S
O287 Mg280 1.986 . S
O287 C291 1.246 . S
O288 Mg283 2.032 . S
O288 C291 1.259 . S
O289 Mg280 2.114 . S
O289 C292 1.252 . S
O290 Mg280 2.251 . S
O290 Mg283 2.079 . S
O290 C292 1.273 . S
C291 O287 1.246 . S
C291 O288 1.259 . S
C292 O289 1.252 . S
C292 O290 1.273 . S
O293 Mg280 2.010 . S
O293 C285 1.249 . S
Mg294 O295 2.028 . S
Mg294 O301 1.986 . S
Mg294 O303 2.114 . S
Mg294 O304 2.251 . S
Mg294 O307 2.010 . S
O295 Mg294 2.028 . S
O295 C298 1.250 . S
O296 Mg297 2.028 . S
O296 C298 1.248 . S
Mg297 O296 2.028 . S
Mg297 O302 2.032 . S
Mg297 O304 2.079 . S
C298 O295 1.250 . S
C298 O296 1.248 . S
C299 O300 1.264 . S
C299 O307 1.249 . S
O300 C299 1.264 . S
O301 Mg294 1.986 . S
O301 C305 1.246 . S
O302 Mg297 2.032 . S
O302 C305 1.259 . S
O303 Mg294 2.114 . S
O303 C306 1.252 . S
O304 Mg294 2.251 . S
O304 Mg297 2.079 . S
O304 C306 1.273 . S
C305 O301 1.246 . S
C305 O302 1.259 . S
C306 O303 1.252 . S
C306 O304 1.273 . S
O307 Mg294 2.010 . S
O307 C299 1.249 . S
Mg308 O309 2.028 . S
Mg308 O315 1.986 . S
Mg308 O317 2.114 . S
Mg308 O318 2.251 . S
Mg308 O321 2.010 . S
O309 Mg308 2.028 . S
O309 C312 1.250 . S
O310 Mg311 2.028 . S
O310 C312 1.248 . S
Mg311 O310 2.028 . S
Mg311 O316 2.032 . S
Mg311 O318 2.079 . S
C312 O309 1.250 . S
C312 O310 1.248 . S
C313 O314 1.264 . S
C313 O321 1.249 . S
O314 C313 1.264 . S
O315 Mg308 1.986 . S
O315 C319 1.246 . S
O316 Mg311 2.032 . S
O316 C319 1.259 . S
O317 Mg308 2.114 . S
O317 C320 1.252 . S
O318 Mg308 2.251 . S
O318 Mg311 2.079 . S
O318 C320 1.273 . S
C319 O315 1.246 . S
C319 O316 1.259 . S
C320 O317 1.252 . S
C320 O318 1.273 . S
O321 Mg308 2.010 . S
O321 C313 1.249 . S
Mg322 O323 2.028 . S
Mg322 O329 1.986 . S
Mg322 O331 2.114 . S
Mg322 O332 2.251 . S
Mg322 O335 2.010 . S
O323 Mg322 2.028 . S
O323 C326 1.250 . S
O324 Mg325 2.028 . S
O324 C326 1.248 . S
Mg325 O324 2.028 . S
Mg325 O330 2.032 . S
Mg325 O332 2.079 . S
C326 O323 1.250 . S
C326 O324 1.248 . S
C327 O328 1.264 . S
C327 O335 1.249 . S
O328 C327 1.264 . S
O329 Mg322 1.986 . S
O329 C333 1.246 . S
O330 Mg325 2.032 . S
O330 C333 1.259 . S
O331 Mg322 2.114 . S
O331 C334 1.252 . S
O332 Mg322 2.251 . S
O332 Mg325 2.079 . S
O332 C334 1.273 . S
C333 O329 1.246 . S
C333 O330 1.259 . S
C334 O331 1.252 . S
C334 O332 1.273 . S
O335 Mg322 2.010 . S
O335 C327 1.249 . S
Mg336 O337 2.028 . S
Mg336 O343 1.986 . S
Mg336 O345 2.114 . S
Mg336 O346 2.251 . S
Mg336 O349 2.010 . S
O337 Mg336 2.028 . S
O337 C340 1.250 . S
O338 Mg339 2.028 . S
O338 C340 1.248 . S
Mg339 O338 2.028 . S
Mg339 O344 2.032 . S
Mg339 O346 2.079 . S
C340 O337 1.250 . S
C340 O338 1.248 . S
C341 O342 1.264 . S
C341 O349 1.249 . S
O342 C341 1.264 . S
O343 Mg336 1.986 . S
O343 C347 1.246 . S
O344 Mg339 2.032 . S
O344 C347 1.259 . S
O345 Mg336 2.114 . S
O345 C348 1.252 . S
O346 Mg336 2.251 . S
O346 Mg339 2.079 . S
O346 C348 1.273 . S
C347 O343 1.246 . S
C347 O344 1.259 . S
C348 O345 1.252 . S
C348 O346 1.273 . S
O349 Mg336 2.010 . S
O349 C341 1.249 . S
Mg350 O351 2.028 . S
Mg350 O357 1.986 . S
Mg350 O359 2.114 . S
Mg350 O360 2.251 . S
Mg350 O363 2.010 . S
O351 Mg350 2.028 . S
O351 C354 1.250 . S
O352 Mg353 2.028 . S
O352 C354 1.248 . S
Mg353 O352 2.028 . S
Mg353 O358 2.032 . S
Mg353 O360 2.079 . S
C354 O351 1.250 . S
C354 O352 1.248 . S
C355 O356 1.264 . S
C355 O363 1.249 . S
O356 C355 1.264 . S
O357 Mg350 1.986 . S
O357 C361 1.246 . S
O358 Mg353 2.032 . S
O358 C361 1.259 . S
O359 Mg350 2.114 . S
O359 C362 1.252 . S
O360 Mg350 2.251 . S
O360 Mg353 2.079 . S
O360 C362 1.273 . S
C361 O357 1.246 . S
C361 O358 1.259 . S
C362 O359 1.252 . S
C362 O360 1.273 . S
O363 Mg350 2.010 . S
O363 C355 1.249 . S
Mg364 O365 2.028 . S
Mg364 O371 1.986 . S
Mg364 O373 2.114 . S
Mg364 O374 2.251 . S
Mg364 O377 2.010 . S
O365 Mg364 2.028 . S
O365 C368 1.250 . S
O366 Mg367 2.028 . S
O366 C368 1.248 . S
Mg367 O366 2.028 . S
Mg367 O372 2.032 . S
Mg367 O374 2.079 . S
C368 O365 1.250 . S
C368 O366 1.248 . S
C369 O370 1.264 . S
C369 O377 1.249 . S
O370 C369 1.264 . S
O371 Mg364 1.986 . S
O371 C375 1.246 . S
O372 Mg367 2.032 . S
O372 C375 1.259 . S
O373 Mg364 2.114 . S
O373 C376 1.252 . S
O374 Mg364 2.251 . S
O374 Mg367 2.079 . S
O374 C376 1.273 . S
C375 O371 1.246 . S
C375 O372 1.259 . S
C376 O373 1.252 . S
C376 O374 1.273 . S
O377 Mg364 2.010 . S
O377 C369 1.249 . S
Mg378 O379 2.028 . S
Mg378 O385 1.986 . S
Mg378 O387 2.114 . S
Mg378 O388 2.251 . S
Mg378 O391 2.010 . S
O379 Mg378 2.028 . S
O379 C382 1.250 . S
O380 Mg381 2.028 . S
O380 C382 1.248 . S
Mg381 O380 2.028 . S
Mg381 O386 2.032 . S
Mg381 O388 2.079 . S
C382 O379 1.250 . S
C382 O380 1.248 . S
C383 O384 1.264 . S
C383 O391 1.249 . S
O384 C383 1.264 . S
O385 Mg378 1.986 . S
O385 C389 1.246 . S
O386 Mg381 2.032 . S
O386 C389 1.259 . S
O387 Mg378 2.114 . S
O387 C390 1.252 . S
O388 Mg378 2.251 . S
O388 Mg381 2.079 . S
O388 C390 1.273 . S
C389 O385 1.246 . S
C389 O386 1.259 . S
C390 O387 1.252 . S
C390 O388 1.273 . S
O391 Mg378 2.010 . S
O391 C383 1.249 . S
Mg392 O393 2.028 . S
Mg392 O399 1.986 . S
Mg392 O401 2.114 . S
Mg392 O402 2.251 . S
Mg392 O405 2.010 . S
O393 Mg392 2.028 . S
O393 C396 1.250 . S
O394 Mg395 2.028 . S
O394 C396 1.248 . S
Mg395 O394 2.028 . S
Mg395 O400 2.032 . S
Mg395 O402 2.079 . S
C396 O393 1.250 . S
C396 O394 1.248 . S
C397 O398 1.264 . S
C397 O405 1.249 . S
O398 C397 1.264 . S
O399 Mg392 1.986 . S
O399 C403 1.246 . S
O400 Mg395 2.032 . S
O400 C403 1.259 . S
O401 Mg392 2.114 . S
O401 C404 1.252 . S
O402 Mg392 2.251 . S
O402 Mg395 2.079 . S
O402 C404 1.273 . S
C403 O399 1.246 . S
C403 O400 1.259 . S
C404 O401 1.252 . S
C404 O402 1.273 . S
O405 Mg392 2.010 . S
O405 C397 1.249 . S
Mg406 O407 2.028 . S
Mg406 O413 1.986 . S
Mg406 O415 2.114 . S
Mg406 O416 2.251 . S
Mg406 O419 2.010 . S
O407 Mg406 2.028 . S
O407 C410 1.250 . S
O408 Mg409 2.028 . S
O408 C410 1.248 . S
Mg409 O408 2.028 . S
Mg409 O414 2.032 . S
Mg409 O416 2.079 . S
C410 O407 1.250 . S
C410 O408 1.248 . S
C411 O412 1.264 . S
C411 O419 1.249 . S
O412 C411 1.264 . S
O413 Mg406 1.986 . S
O413 C417 1.246 . S
O414 Mg409 2.032 . S
O414 C417 1.259 . S
O415 Mg406 2.114 . S
O415 C418 1.252 . S
O416 Mg406 2.251 . S
O416 Mg409 2.079 . S
O416 C418 1.273 . S
C417 O413 1.246 . S
C417 O414 1.259 . S
C418 O415 1.252 . S
C418 O416 1.273 . S
O419 Mg406 2.010 . S
O419 C411 1.249 . S
Mg420 O421 2.028 . S
Mg420 O427 1.986 . S
Mg420 O429 2.114 . S
Mg420 O430 2.251 . S
Mg420 O433 2.010 . S
O421 Mg420 2.028 . S
O421 C424 1.250 . S
O422 Mg423 2.028 . S
O422 C424 1.248 . S
Mg423 O422 2.028 . S
Mg423 O428 2.032 . S
Mg423 O430 2.079 . S
C424 O421 1.250 . S
C424 O422 1.248 . S
C425 O426 1.264 . S
C425 O433 1.249 . S
O426 C425 1.264 . S
O427 Mg420 1.986 . S
O427 C431 1.246 . S
O428 Mg423 2.032 . S
O428 C431 1.259 . S
O429 Mg420 2.114 . S
O429 C432 1.252 . S
O430 Mg420 2.251 . S
O430 Mg423 2.079 . S
O430 C432 1.273 . S
C431 O427 1.246 . S
C431 O428 1.259 . S
C432 O429 1.252 . S
C432 O430 1.273 . S
O433 Mg420 2.010 . S
O433 C425 1.249 . S
Mg434 O435 2.028 . S
Mg434 O441 1.986 . S
Mg434 O443 2.114 . S
Mg434 O444 2.251 . S
Mg434 O447 2.010 . S
O435 Mg434 2.028 . S
O435 C438 1.250 . S
O436 Mg437 2.028 . S
O436 C438 1.248 . S
Mg437 O436 2.028 . S
Mg437 O442 2.032 . S
Mg437 O444 2.079 . S
C438 O435 1.250 . S
C438 O436 1.248 . S
C439 O440 1.264 . S
C439 O447 1.249 . S
O440 C439 1.264 . S
O441 Mg434 1.986 . S
O441 C445 1.246 . S
O442 Mg437 2.032 . S
O442 C445 1.259 . S
O443 Mg434 2.114 . S
O443 C446 1.252 . S
O444 Mg434 2.251 . S
O444 Mg437 2.079 . S
O444 C446 1.273 . S
C445 O441 1.246 . S
C445 O442 1.259 . S
C446 O443 1.252 . S
C446 O444 1.273 . S
O447 Mg434 2.010 . S
O447 C439 1.249 . S
Mg448 O449 2.028 . S
Mg448 O455 1.986 . S
Mg448 O457 2.114 . S
Mg448 O458 2.251 . S
Mg448 O461 2.010 . S
O449 Mg448 2.028 . S
O449 C452 1.250 . S
O450 Mg451 2.028 . S
O450 C452 1.248 . S
Mg451 O450 2.028 . S
Mg451 O456 2.032 . S
Mg451 O458 2.079 . S
C452 O449 1.250 . S
C452 O450 1.248 . S
C453 O454 1.264 . S
C453 O461 1.249 . S
O454 C453 1.264 . S
O455 Mg448 1.986 . S
O455 C459 1.246 . S
O456 Mg451 2.032 . S
O456 C459 1.259 . S
O457 Mg448 2.114 . S
O457 C460 1.252 . S
O458 Mg448 2.251 . S
O458 Mg451 2.079 . S
O458 C460 1.273 . S
C459 O455 1.246 . S
C459 O456 1.259 . S
C460 O457 1.252 . S
C460 O458 1.273 . S
O461 Mg448 2.010 . S
O461 C453 1.249 . S
Mg462 O463 2.028 . S
Mg462 O469 1.986 . S
Mg462 O471 2.114 . S
Mg462 O472 2.251 . S
Mg462 O475 2.010 . S
O463 Mg462 2.028 . S
O463 C466 1.250 . S
O464 Mg465 2.028 . S
O464 C466 1.248 . S
Mg465 O464 2.028 . S
Mg465 O470 2.032 . S
Mg465 O472 2.079 . S
C466 O463 1.250 . S
C466 O464 1.248 . S
C467 O468 1.264 . S
C467 O475 1.249 . S
O468 C467 1.264 . S
O469 Mg462 1.986 . S
O469 C473 1.246 . S
O470 Mg465 2.032 . S
O470 C473 1.259 . S
O471 Mg462 2.114 . S
O471 C474 1.252 . S
O472 Mg462 2.251 . S
O472 Mg465 2.079 . S
O472 C474 1.273 . S
C473 O469 1.246 . S
C473 O470 1.259 . S
C474 O471 1.252 . S
C474 O472 1.273 . S
O475 Mg462 2.010 . S
O475 C467 1.249 . S
Mg476 O477 2.028 . S
Mg476 O483 1.986 . S
Mg476 O485 2.114 . S
Mg476 O486 2.251 . S
Mg476 O489 2.010 . S
O477 Mg476 2.028 . S
O477 C480 1.250 . S
O478 Mg479 2.028 . S
O478 C480 1.248 . S
Mg479 O478 2.028 . S
Mg479 O484 2.032 . S
Mg479 O486 2.079 . S
C480 O477 1.250 . S
C480 O478 1.248 . S
C481 O482 1.264 . S
C481 O489 1.249 . S
O482 C481 1.264 . S
O483 Mg476 1.986 . S
O483 C487 1.246 . S
O484 Mg479 2.032 . S
O484 C487 1.259 . S
O485 Mg476 2.114 . S
O485 C488 1.252 . S
O486 Mg476 2.251 . S
O486 Mg479 2.079 . S
O486 C488 1.273 . S
C487 O483 1.246 . S
C487 O484 1.259 . S
C488 O485 1.252 . S
C488 O486 1.273 . S
O489 Mg476 2.010 . S
O489 C481 1.249 . S
Mg490 O491 2.028 . S
Mg490 O497 1.986 . S
Mg490 O499 2.114 . S
Mg490 O500 2.251 . S
Mg490 O503 2.010 . S
O491 Mg490 2.028 . S
O491 C494 1.250 . S
O492 Mg493 2.028 . S
O492 C494 1.248 . S
Mg493 O492 2.028 . S
Mg493 O498 2.032 . S
Mg493 O500 2.079 . S
C494 O491 1.250 . S
C494 O492 1.248 . S
C495 O496 1.264 . S
C495 O503 1.249 . S
O496 C495 1.264 . S
O497 Mg490 1.986 . S
O497 C501 1.246 . S
O498 Mg493 2.032 . S
O498 C501 1.259 . S
O499 Mg490 2.114 . S
O499 C502 1.252 . S
O500 Mg490 2.251 . S
O500 Mg493 2.079 . S
O500 C502 1.273 . S
C501 O497 1.246 . S
C501 O498 1.259 . S
C502 O499 1.252 . S
C502 O500 1.273 . S
O503 Mg490 2.010 . S
O503 C495 1.249 . S
Mg504 O505 2.028 . S
Mg504 O511 1.986 . S
Mg504 O513 2.114 . S
Mg504 O514 2.251 . S
Mg504 O517 2.010 . S
O505 Mg504 2.028 . S
O505 C508 1.250 . S
O506 Mg507 2.028 . S
O506 C508 1.248 . S
Mg507 O506 2.028 . S
Mg507 O512 2.032 . S
Mg507 O514 2.079 . S
C508 O505 1.250 . S
C508 O506 1.248 . S
C509 O510 1.264 . S
C509 O517 1.249 . S
O510 C509 1.264 . S
O511 Mg504 1.986 . S
O511 C515 1.246 . S
O512 Mg507 2.032 . S
O512 C515 1.259 . S
O513 Mg504 2.114 . S
O513 C516 1.252 . S
O514 Mg504 2.251 . S
O514 Mg507 2.079 . S
O514 C516 1.273 . S
C515 O511 1.246 . S
C515 O512 1.259 . S
C516 O513 1.252 . S
C516 O514 1.273 . S
O517 Mg504 2.010 . S
O517 C509 1.249 . S
Mg518 O519 2.028 . S
Mg518 O525 1.986 . S
Mg518 O527 2.114 . S
Mg518 O528 2.251 . S
Mg518 O531 2.010 . S
O519 Mg518 2.028 . S
O519 C522 1.250 . S
O520 Mg521 2.028 . S
O520 C522 1.248 . S
Mg521 O520 2.028 . S
Mg521 O526 2.032 . S
Mg521 O528 2.079 . S
C522 O519 1.250 . S
C522 O520 1.248 . S
C523 O524 1.264 . S
C523 O531 1.249 . S
O524 C523 1.264 . S
O525 Mg518 1.986 . S
O525 C529 1.246 . S
O526 Mg521 2.032 . S
O526 C529 1.259 . S
O527 Mg518 2.114 . S
O527 C530 1.252 . S
O528 Mg518 2.251 . S
O528 Mg521 2.079 . S
O528 C530 1.273 . S
C529 O525 1.246 . S
C529 O526 1.259 . S
C530 O527 1.252 . S
C530 O528 1.273 . S
O531 Mg518 2.010 . S
O531 C523 1.249 . S
Mg532 O533 2.028 . S
Mg532 O539 1.986 . S
Mg532 O541 2.114 . S
Mg532 O542 2.251 . S
Mg532 O545 2.010 . S
O533 Mg532 2.028 . S
O533 C536 1.250 . S
O534 Mg535 2.028 . S
O534 C536 1.248 . S
Mg535 O534 2.028 . S
Mg535 O540 2.032 . S
Mg535 O542 2.079 . S
C536 O533 1.250 . S
C536 O534 1.248 . S
C537 O538 1.264 . S
C537 O545 1.249 . S
O538 C537 1.264 . S
O539 Mg532 1.986 . S
O539 C543 1.246 . S
O540 Mg535 2.032 . S
O540 C543 1.259 . S
O541 Mg532 2.114 . S
O541 C544 1.252 . S
O542 Mg532 2.251 . S
O542 Mg535 2.079 . S
O542 C544 1.273 . S
C543 O539 1.246 . S
C543 O540 1.259 . S
C544 O541 1.252 . S
C544 O542 1.273 . S
O545 Mg532 2.010 . S
O545 C537 1.249 . S
Mg546 O547 2.028 . S
Mg546 O553 1.986 . S
Mg546 O555 2.114 . S
Mg546 O556 2.251 . S
Mg546 O559 2.010 . S
O547 Mg546 2.028 . S
O547 C550 1.250 . S
O548 Mg549 2.028 . S
O548 C550 1.248 . S
Mg549 O548 2.028 . S
Mg549 O554 2.032 . S
Mg549 O556 2.079 . S
C550 O547 1.250 . S
C550 O548 1.248 . S
C551 O552 1.264 . S
C551 O559 1.249 . S
O552 C551 1.264 . S
O553 Mg546 1.986 . S
O553 C557 1.246 . S
O554 Mg549 2.032 . S
O554 C557 1.259 . S
O555 Mg546 2.114 . S
O555 C558 1.252 . S
O556 Mg546 2.251 . S
O556 Mg549 2.079 . S
O556 C558 1.273 . S
C557 O553 1.246 . S
C557 O554 1.259 . S
C558 O555 1.252 . S
C558 O556 1.273 . S
O559 Mg546 2.010 . S
O559 C551 1.249 . S
Mg560 O561 2.028 . S
Mg560 O567 1.986 . S
Mg560 O569 2.114 . S
Mg560 O570 2.251 . S
Mg560 O573 2.010 . S
O561 Mg560 2.028 . S
O561 C564 1.250 . S
O562 Mg563 2.028 . S
O562 C564 1.248 . S
Mg563 O562 2.028 . S
Mg563 O568 2.032 . S
Mg563 O570 2.079 . S
C564 O561 1.250 . S
C564 O562 1.248 . S
C565 O566 1.264 . S
C565 O573 1.249 . S
O566 C565 1.264 . S
O567 Mg560 1.986 . S
O567 C571 1.246 . S
O568 Mg563 2.032 . S
O568 C571 1.259 . S
O569 Mg560 2.114 . S
O569 C572 1.252 . S
O570 Mg560 2.251 . S
O570 Mg563 2.079 . S
O570 C572 1.273 . S
C571 O567 1.246 . S
C571 O568 1.259 . S
C572 O569 1.252 . S
C572 O570 1.273 . S
O573 Mg560 2.010 . S
O573 C565 1.249 . S
Mg574 O575 2.028 . S
Mg574 O581 1.986 . S
Mg574 O583 2.114 . S
Mg574 O584 2.251 . S
Mg574 O587 2.010 . S
O575 Mg574 2.028 . S
O575 C578 1.250 . S
O576 Mg577 2.028 . S
O576 C578 1.248 . S
Mg577 O576 2.028 . S
Mg577 O582 2.032 . S
Mg577 O584 2.079 . S
C578 O575 1.250 . S
C578 O576 1.248 . S
C579 O580 1.264 . S
C579 O587 1.249 . S
O580 C579 1.264 . S
O581 Mg574 1.986 . S
O581 C585 1.246 . S
O582 Mg577 2.032 . S
O582 C585 1.259 . S
O583 Mg574 2.114 . S
O583 C586 1.252 . S
O584 Mg574 2.251 . S
O584 Mg577 2.079 . S
O584 C586 1.273 . S
C585 O581 1.246 . S
C585 O582 1.259 . S
C586 O583 1.252 . S
C586 O584 1.273 . S
O587 Mg574 2.010 . S
O587 C579 1.249 . S
Mg588 O589 2.028 . S
Mg588 O595 1.986 . S
Mg588 O597 2.114 . S
Mg588 O598 2.251 . S
Mg588 O601 2.010 . S
O589 Mg588 2.028 . S
O589 C592 1.250 . S
O590 Mg591 2.028 . S
O590 C592 1.248 . S
Mg591 O590 2.028 . S
Mg591 O596 2.032 . S
Mg591 O598 2.079 . S
C592 O589 1.250 . S
C592 O590 1.248 . S
C593 O594 1.264 . S
C593 O601 1.249 . S
O594 C593 1.264 . S
O595 Mg588 1.986 . S
O595 C599 1.246 . S
O596 Mg591 2.032 . S
O596 C599 1.259 . S
O597 Mg588 2.114 . S
O597 C600 1.252 . S
O598 Mg588 2.251 . S
O598 Mg591 2.079 . S
O598 C600 1.273 . S
C599 O595 1.246 . S
C599 O596 1.259 . S
C600 O597 1.252 . S
C600 O598 1.273 . S
O601 Mg588 2.010 . S
O601 C593 1.249 . S
Mg602 O603 2.028 . S
Mg602 O609 1.986 . S
Mg602 O611 2.114 . S
Mg602 O612 2.251 . S
Mg602 O615 2.010 . S
O603 Mg602 2.028 . S
O603 C606 1.250 . S
O604 Mg605 2.028 . S
O604 C606 1.248 . S
Mg605 O604 2.028 . S
Mg605 O610 2.032 . S
Mg605 O612 2.079 . S
C606 O603 1.250 . S
C606 O604 1.248 . S
C607 O608 1.264 . S
C607 O615 1.249 . S
O608 C607 1.264 . S
O609 Mg602 1.986 . S
O609 C613 1.246 . S
O610 Mg605 2.032 . S
O610 C613 1.259 . S
O611 Mg602 2.114 . S
O611 C614 1.252 . S
O612 Mg602 2.251 . S
O612 Mg605 2.079 . S
O612 C614 1.273 . S
C613 O609 1.246 . S
C613 O610 1.259 . S
C614 O611 1.252 . S
C614 O612 1.273 . S
O615 Mg602 2.010 . S
O615 C607 1.249 . S
Mg616 O617 2.028 . S
Mg616 O623 1.986 . S
Mg616 O625 2.114 . S
Mg616 O626 2.251 . S
Mg616 O629 2.010 . S
O617 Mg616 2.028 . S
O617 C620 1.250 . S
O618 Mg619 2.028 . S
O618 C620 1.248 . S
Mg619 O618 2.028 . S
Mg619 O624 2.032 . S
Mg619 O626 2.079 . S
C620 O617 1.250 . S
C620 O618 1.248 . S
C621 O622 1.264 . S
C621 O629 1.249 . S
O622 C621 1.264 . S
O623 Mg616 1.986 . S
O623 C627 1.246 . S
O624 Mg619 2.032 . S
O624 C627 1.259 . S
O625 Mg616 2.114 . S
O625 C628 1.252 . S
O626 Mg616 2.251 . S
O626 Mg619 2.079 . S
O626 C628 1.273 . S
C627 O623 1.246 . S
C627 O624 1.259 . S
C628 O625 1.252 . S
C628 O626 1.273 . S
O629 Mg616 2.010 . S
O629 C621 1.249 . S
Mg630 O631 2.028 . S
Mg630 O637 1.986 . S
Mg630 O639 2.114 . S
Mg630 O640 2.251 . S
Mg630 O643 2.010 . S
O631 Mg630 2.028 . S
O631 C634 1.250 . S
O632 Mg633 2.028 . S
O632 C634 1.248 . S
Mg633 O632 2.028 . S
Mg633 O638 2.032 . S
Mg633 O640 2.079 . S
C634 O631 1.250 . S
C634 O632 1.248 . S
C635 O636 1.264 . S
C635 O643 1.249 . S
O636 C635 1.264 . S
O637 Mg630 1.986 . S
O637 C641 1.246 . S
O638 Mg633 2.032 . S
O638 C641 1.259 . S
O639 Mg630 2.114 . S
O639 C642 1.252 . S
O640 Mg630 2.251 . S
O640 Mg633 2.079 . S
O640 C642 1.273 . S
C641 O637 1.246 . S
C641 O638 1.259 . S
C642 O639 1.252 . S
C642 O640 1.273 . S
O643 Mg630 2.010 . S
O643 C635 1.249 . S
Mg644 O645 2.028 . S
Mg644 O651 1.986 . S
Mg644 O653 2.114 . S
Mg644 O654 2.251 . S
Mg644 O657 2.010 . S
O645 Mg644 2.028 . S
O645 C648 1.250 . S
O646 Mg647 2.028 . S
O646 C648 1.248 . S
Mg647 O646 2.028 . S
Mg647 O652 2.032 . S
Mg647 O654 2.079 . S
C648 O645 1.250 . S
C648 O646 1.248 . S
C649 O650 1.264 . S
C649 O657 1.249 . S
O650 C649 1.264 . S
O651 Mg644 1.986 . S
O651 C655 1.246 . S
O652 Mg647 2.032 . S
O652 C655 1.259 . S
O653 Mg644 2.114 . S
O653 C656 1.252 . S
O654 Mg644 2.251 . S
O654 Mg647 2.079 . S
O654 C656 1.273 . S
C655 O651 1.246 . S
C655 O652 1.259 . S
C656 O653 1.252 . S
C656 O654 1.273 . S
O657 Mg644 2.010 . S
O657 C649 1.249 . S
Mg658 O659 2.028 . S
Mg658 O665 1.986 . S
Mg658 O667 2.114 . S
Mg658 O668 2.251 . S
Mg658 O671 2.010 . S
O659 Mg658 2.028 . S
O659 C662 1.250 . S
O660 Mg661 2.028 . S
O660 C662 1.248 . S
Mg661 O660 2.028 . S
Mg661 O666 2.032 . S
Mg661 O668 2.079 . S
C662 O659 1.250 . S
C662 O660 1.248 . S
C663 O664 1.264 . S
C663 O671 1.249 . S
O664 C663 1.264 . S
O665 Mg658 1.986 . S
O665 C669 1.246 . S
O666 Mg661 2.032 . S
O666 C669 1.259 . S
O667 Mg658 2.114 . S
O667 C670 1.252 . S
O668 Mg658 2.251 . S
O668 Mg661 2.079 . S
O668 C670 1.273 . S
C669 O665 1.246 . S
C669 O666 1.259 . S
C670 O667 1.252 . S
C670 O668 1.273 . S
O671 Mg658 2.010 . S
O671 C663 1.249 . S
C672 C673 1.349 . S
C672 C674 1.327 . S
C672 H697 0.950 . S
C673 C672 1.349 . S
C673 C689 1.349 . S
C674 C672 1.327 . S
C674 C693 1.429 . S
C674 H698 0.950 . S
C675 C692 1.574 . S
C675 C694 1.368 . S
C675 H699 0.949 . S
H676 C680 0.949 . S
C677 C678 1.349 . S
C677 C679 1.327 . S
C677 H700 0.950 . S
C678 C677 1.349 . S
C678 C690 1.349 . S
C679 C677 1.327 . S
C679 C695 1.429 . S
C679 H701 0.950 . S
C680 H676 0.949 . S
C680 C688 1.574 . S
C680 C696 1.368 . S
H681 C689 0.950 . S
H682 C687 0.950 . S
H683 C688 0.949 . S
H684 C690 0.950 . S
H685 C691 0.950 . S
H686 C692 0.949 . S
C687 H682 0.950 . S
C687 C689 1.327 . S
C687 C693 1.429 . S
C688 C680 1.574 . S
C688 H683 0.949 . S
C688 C694 1.368 . S
C689 C673 1.349 . S
C689 H681 0.950 . S
C689 C687 1.327 . S
C690 C678 1.349 . S
C690 H684 0.950 . S
C690 C691 1.327 . S
C691 H685 0.950 . S
C691 C690 1.327 . S
C691 C695 1.429 . S
C692 C675 1.574 . S
C692 H686 0.949 . S
C692 C696 1.368 . S
C693 C674 1.429 . S
C693 C687 1.429 . S
C693 C694 1.523 . S
C694 C675 1.368 . S
C694 C688 1.368 . S
C694 C693 1.523 . S
C695 C679 1.429 . S
C695 C691 1.429 . S
C695 C696 1.523 . S
C696 C680 1.368 . S
C696 C692 1.368 . S
C696 C695 1.523 . S
H697 C672 0.950 . S
H698 C674 0.950 . S
H699 C675 0.949 . S
H700 C677 0.950 . S
H701 C679 0.950 . S
C702 C703 1.349 . S
C702 C704 1.327 . S
C702 H727 0.950 . S
C703 C702 1.349 . S
C703 C719 1.349 . S
C704 C702 1.327 . S
C704 C723 1.429 . S
C704 H728 0.950 . S
C705 C722 1.574 . S
C705 C724 1.380 . S
C705 H729 0.949 1_655 S
H706 C710 0.949 . S
C707 C708 1.349 . S
C707 C709 1.327 . S
C707 H730 0.950 . S
C708 C707 1.349 . S
C708 C720 1.349 . S
C709 C707 1.327 . S
C709 C725 1.429 . S
C709 H731 0.950 . S
C710 H706 0.949 . S
C710 C718 1.574 . S
C710 C726 1.368 . S
H711 C719 0.950 . S
H712 C717 0.950 . S
H713 C718 0.949 . S
H714 C720 0.950 . S
H715 C721 0.950 . S
H716 C722 0.949 . S
C717 H712 0.950 . S
C717 C719 1.327 . S
C717 C723 1.429 . S
C718 C710 1.574 . S
C718 H713 0.949 . S
C718 C724 1.385 . S
C719 C703 1.349 . S
C719 H711 0.950 . S
C719 C717 1.327 . S
C720 C708 1.349 . S
C720 H714 0.950 . S
C720 C721 1.327 . S
C721 H715 0.950 . S
C721 C720 1.327 . S
C721 C725 1.429 . S
C722 C705 1.574 . S
C722 H716 0.949 . S
C722 C726 1.368 . S
C723 C704 1.429 . S
C723 C717 1.429 . S
C723 C724 1.487 1_455 S
C724 C705 1.380 . S
C724 C718 1.385 . S
C724 C723 1.487 1_655 S
C725 C709 1.429 . S
C725 C721 1.429 . S
C725 C726 1.523 . S
C726 C710 1.368 . S
C726 C722 1.368 . S
C726 C725 1.523 . S
H727 C702 0.950 . S
H728 C704 0.950 . S
H729 C705 0.949 1_455 S
H730 C707 0.950 . S
H731 C709 0.950 . S
C732 C733 1.349 . S
C732 C734 1.327 . S
C732 H757 0.950 . S
C733 C732 1.349 . S
C733 C749 1.349 . S
C734 C732 1.327 . S
C734 C753 1.429 . S
C734 H758 0.950 . S
C735 C752 1.574 . S
C735 C754 1.368 . S
C735 H759 0.949 . S
H736 C740 0.949 . S
C737 C738 1.349 . S
C737 C739 1.327 . S
C737 H760 0.950 . S
C738 C737 1.349 . S
C738 C750 1.349 . S
C739 C737 1.327 . S
C739 C755 1.429 . S
C739 H761 0.950 . S
C740 H736 0.949 . S
C740 C748 1.574 . S
C740 C756 1.368 . S
H741 C749 0.950 . S
H742 C747 0.950 . S
H743 C748 0.949 . S
H744 C750 0.950 . S
H745 C751 0.950 . S
H746 C752 0.949 . S
C747 H742 0.950 . S
C747 C749 1.327 . S
C747 C753 1.429 . S
C748 C740 1.574 . S
C748 H743 0.949 . S
C748 C754 1.368 . S
C749 C733 1.349 . S
C749 H741 0.950 . S
C749 C747 1.327 . S
C750 C738 1.349 . S
C750 H744 0.950 . S
C750 C751 1.327 . S
C751 H745 0.950 . S
C751 C750 1.327 . S
C751 C755 1.429 . S
C752 C735 1.574 . S
C752 H746 0.949 . S
C752 C756 1.368 . S
C753 C734 1.429 . S
C753 C747 1.429 . S
C753 C754 1.523 . S
C754 C735 1.368 . S
C754 C748 1.368 . S
C754 C753 1.523 . S
C755 C739 1.429 . S
C755 C751 1.429 . S
C755 C756 1.523 . S
C756 C740 1.368 . S
C756 C752 1.368 . S
C756 C755 1.523 . S
H757 C732 0.950 . S
H758 C734 0.950 . S
H759 C735 0.949 . S
H760 C737 0.950 . S
H761 C739 0.950 . S
C762 C763 1.349 . S
C762 C764 1.327 . S
C762 H787 0.950 . S
C763 C762 1.349 . S
C763 C779 1.349 . S
C764 C762 1.327 . S
C764 C783 1.429 . S
C764 H788 0.950 . S
C765 C782 1.574 . S
C765 C784 1.368 . S
C765 H789 0.949 . S
H766 C770 0.949 . S
C767 C768 1.349 . S
C767 C769 1.327 . S
C767 H790 0.950 . S
C768 C767 1.349 . S
C768 C780 1.349 . S
C769 C767 1.327 . S
C769 C785 1.429 . S
C769 H791 0.950 . S
C770 H766 0.949 . S
C770 C778 1.574 . S
C770 C786 1.368 . S
H771 C779 0.950 . S
H772 C777 0.950 . S
H773 C778 0.949 . S
H774 C780 0.950 . S
H775 C781 0.950 . S
H776 C782 0.949 . S
C777 H772 0.950 . S
C777 C779 1.327 . S
C777 C783 1.429 . S
C778 C770 1.574 . S
C778 H773 0.949 . S
C778 C784 1.368 . S
C779 C763 1.349 . S
C779 H771 0.950 . S
C779 C777 1.327 . S
C780 C768 1.349 . S
C780 H774 0.950 . S
C780 C781 1.327 . S
C781 H775 0.950 . S
C781 C780 1.327 . S
C781 C785 1.429 . S
C782 C765 1.574 . S
C782 H776 0.949 . S
C782 C786 1.368 . S
C783 C764 1.429 . S
C783 C777 1.429 . S
C783 C784 1.523 . S
C784 C765 1.368 . S
C784 C778 1.368 . S
C784 C783 1.523 . S
C785 C769 1.429 . S
C785 C781 1.429 . S
C785 C786 1.523 . S
C786 C770 1.368 . S
C786 C782 1.368 . S
C786 C785 1.523 . S
H787 C762 0.950 . S
H788 C764 0.950 . S
H789 C765 0.949 . S
H790 C767 0.950 . S
H791 C769 0.950 . S
C792 C793 1.349 . S
C792 C794 1.327 . S
C792 H817 0.950 . S
C793 C792 1.349 . S
C793 C809 1.349 . S
C794 C792 1.327 . S
C794 C813 1.429 . S
C794 H818 0.950 . S
C795 C812 1.574 . S
C795 C814 1.368 . S
C795 H819 0.949 . S
H796 C800 0.949 . S
C797 C798 1.349 . S
C797 C799 1.327 . S
C797 H820 0.950 . S
C798 C797 1.349 . S
C798 C810 1.349 . S
C799 C797 1.327 . S
C799 C815 1.429 . S
C799 H821 0.950 . S
C800 H796 0.949 . S
C800 C808 1.574 . S
C800 C816 1.368 . S
H801 C809 0.950 . S
H802 C807 0.950 . S
H803 C808 0.949 . S
H804 C810 0.950 . S
H805 C811 0.950 . S
H806 C812 0.949 . S
C807 H802 0.950 . S
C807 C809 1.327 . S
C807 C813 1.429 . S
C808 C800 1.574 . S
C808 H803 0.949 . S
C808 C814 1.368 . S
C809 C793 1.349 . S
C809 H801 0.950 . S
C809 C807 1.327 . S
C810 C798 1.349 . S
C810 H804 0.950 . S
C810 C811 1.327 . S
C811 H805 0.950 . S
C811 C810 1.327 . S
C811 C815 1.429 . S
C812 C795 1.574 . S
C812 H806 0.949 . S
C812 C816 1.368 . S
C813 C794 1.429 . S
C813 C807 1.429 . S
C813 C814 1.523 . S
C814 C795 1.368 . S
C814 C808 1.368 . S
C814 C813 1.523 . S
C815 C799 1.429 . S
C815 C811 1.429 . S
C815 C816 1.523 . S
C816 C800 1.368 . S
C816 C812 1.368 . S
C816 C815 1.523 . S
H817 C792 0.950 . S
H818 C794 0.950 . S
H819 C795 0.949 . S
H820 C797 0.950 . S
H821 C799 0.950 . S
C822 C823 1.349 . S
C822 C824 1.327 . S
C822 H847 0.950 . S
C823 C822 1.349 . S
C823 C839 1.349 . S
C824 C822 1.327 . S
C824 C843 1.429 . S
C824 H848 0.950 . S
C825 C842 1.574 . S
C825 C844 1.368 . S
C825 H849 0.949 . S
H826 C830 0.949 . S
C827 C828 1.349 . S
C827 C829 1.327 . S
C827 H850 0.950 . S
C828 C827 1.349 . S
C828 C840 1.349 . S
C829 C827 1.327 . S
C829 C845 1.429 . S
C829 H851 0.950 . S
C830 H826 0.949 . S
C830 C838 1.574 . S
C830 C846 1.368 . S
H831 C839 0.950 . S
H832 C837 0.950 . S
H833 C838 0.949 . S
H834 C840 0.950 . S
H835 C841 0.950 . S
H836 C842 0.949 . S
C837 H832 0.950 . S
C837 C839 1.327 . S
C837 C843 1.429 . S
C838 C830 1.574 . S
C838 H833 0.949 . S
C838 C844 1.368 . S
C839 C823 1.349 . S
C839 H831 0.950 . S
C839 C837 1.327 . S
C840 C828 1.349 . S
C840 H834 0.950 . S
C840 C841 1.327 . S
C841 H835 0.950 . S
C841 C840 1.327 . S
C841 C845 1.429 . S
C842 C825 1.574 . S
C842 H836 0.949 . S
C842 C846 1.368 . S
C843 C824 1.429 . S
C843 C837 1.429 . S
C843 C844 1.523 . S
C844 C825 1.368 . S
C844 C838 1.368 . S
C844 C843 1.523 . S
C845 C829 1.429 . S
C845 C841 1.429 . S
C845 C846 1.523 . S
C846 C830 1.368 . S
C846 C842 1.368 . S
C846 C845 1.523 . S
H847 C822 0.950 . S
H848 C824 0.950 . S
H849 C825 0.949 . S
H850 C827 0.950 . S
H851 C829 0.950 . S
C852 C853 1.349 . S
C852 C854 1.327 . S
C852 H877 0.950 . S
C853 C852 1.349 . S
C853 C869 1.349 . S
C854 C852 1.327 . S
C854 C873 1.429 . S
C854 H878 0.950 . S
C855 C872 1.574 . S
C855 C874 1.368 . S
C855 H879 0.949 . S
H856 C860 0.949 . S
C857 C858 1.349 . S
C857 C859 1.327 . S
C857 H880 0.950 . S
C858 C857 1.349 . S
C858 C870 1.349 . S
C859 C857 1.327 . S
C859 C875 1.429 . S
C859 H881 0.950 . S
C860 H856 0.949 . S
C860 C868 1.574 . S
C860 C876 1.368 . S
H861 C869 0.950 . S
H862 C867 0.950 . S
H863 C868 0.949 . S
H864 C870 0.950 . S
H865 C871 0.950 . S
H866 C872 0.949 . S
C867 H862 0.950 . S
C867 C869 1.327 . S
C867 C873 1.429 . S
C868 C860 1.574 . S
C868 H863 0.949 . S
C868 C874 1.368 . S
C869 C853 1.349 . S
C869 H861 0.950 . S
C869 C867 1.327 . S
C870 C858 1.349 . S
C870 H864 0.950 . S
C870 C871 1.327 . S
C871 H865 0.950 . S
C871 C870 1.327 . S
C871 C875 1.429 . S
C872 C855 1.574 . S
C872 H866 0.949 . S
C872 C876 1.368 . S
C873 C854 1.429 . S
C873 C867 1.429 . S
C873 C874 1.523 . S
C874 C855 1.368 . S
C874 C868 1.368 . S
C874 C873 1.523 . S
C875 C859 1.429 . S
C875 C871 1.429 . S
C875 C876 1.523 . S
C876 C860 1.368 . S
C876 C872 1.368 . S
C876 C875 1.523 . S
H877 C852 0.950 . S
H878 C854 0.950 . S
H879 C855 0.949 . S
H880 C857 0.950 . S
H881 C859 0.950 . S
C882 C883 1.349 . S
C882 C884 1.327 . S
C882 H907 0.950 . S
C883 C882 1.349 . S
C883 C899 1.349 . S
C884 C882 1.327 . S
C884 C903 1.429 . S
C884 H908 0.950 . S
C885 C902 1.574 . S
C885 C904 1.368 . S
C885 H909 0.949 . S
H886 C890 0.949 . S
C887 C888 1.349 . S
C887 C889 1.327 . S
C887 H910 0.950 . S
C888 C887 1.349 . S
C888 C900 1.349 . S
C889 C887 1.327 . S
C889 C905 1.429 . S
C889 H911 0.950 . S
C890 H886 0.949 . S
C890 C898 1.574 . S
C890 C906 1.368 . S
H891 C899 0.950 . S
H892 C897 0.950 . S
H893 C898 0.949 . S
H894 C900 0.950 . S
H895 C901 0.950 . S
H896 C902 0.949 . S
C897 H892 0.950 . S
C897 C899 1.327 . S
C897 C903 1.429 . S
C898 C890 1.574 . S
C898 H893 0.949 . S
C898 C904 1.368 . S
C899 C883 1.349 . S
C899 H891 0.950 . S
C899 C897 1.327 . S
C900 C888 1.349 . S
C900 H894 0.950 . S
C900 C901 1.327 . S
C901 H895 0.950 . S
C901 C900 1.327 . S
C901 C905 1.429 . S
C902 C885 1.574 . S
C902 H896 0.949 . S
C902 C906 1.368 . S
C903 C884 1.429 . S
C903 C897 1.429 . S
C903 C904 1.523 1_455 S
C904 C885 1.368 . S
C904 C898 1.368 . S
C904 C903 1.523 1_655 S
C905 C889 1.429 . S
C905 C901 1.429 . S
C905 C906 1.523 . S
C906 C890 1.368 . S
C906 C902 1.368 . S
C906 C905 1.523 . S
H907 C882 0.950 . S
H908 C884 0.950 . S
H909 C885 0.949 . S
H910 C887 0.950 . S
H911 C889 0.950 . S
C912 C913 1.349 . S
C912 C914 1.327 . S
C912 H937 0.950 . S
C913 C912 1.349 . S
C913 C929 1.349 . S
C914 C912 1.327 . S
C914 C933 1.429 . S
C914 H938 0.950 . S
C915 C932 1.574 . S
C915 C934 1.368 . S
C915 H939 0.949 . S
H916 C920 0.949 . S
C917 C918 1.349 . S
C917 C919 1.327 . S
C917 H940 0.950 . S
C918 C917 1.349 . S
C918 C930 1.349 . S
C919 C917 1.327 . S
C919 C935 1.429 . S
C919 H941 0.950 . S
C920 H916 0.949 . S
C920 C928 1.574 . S
C920 C936 1.368 . S
H921 C929 0.950 . S
H922 C927 0.950 . S
H923 C928 0.949 . S
H924 C930 0.950 . S
H925 C931 0.950 . S
H926 C932 0.949 . S
C927 H922 0.950 . S
C927 C929 1.327 . S
C927 C933 1.429 . S
C928 C920 1.574 . S
C928 H923 0.949 . S
C928 C934 1.368 . S
C929 C913 1.349 . S
C929 H921 0.950 . S
C929 C927 1.327 . S
C930 C918 1.349 . S
C930 H924 0.950 . S
C930 C931 1.327 . S
C931 H925 0.950 . S
C931 C930 1.327 . S
C931 C935 1.429 . S
C932 C915 1.574 . S
C932 H926 0.949 . S
C932 C936 1.368 . S
C933 C914 1.429 . S
C933 C927 1.429 . S
C933 C934 1.523 . S
C934 C915 1.368 . S
C934 C928 1.368 . S
C934 C933 1.523 . S
C935 C919 1.429 . S
C935 C931 1.429 . S
C935 C936 1.523 . S
C936 C920 1.368 . S
C936 C932 1.368 . S
C936 C935 1.523 . S
H937 C912 0.950 . S
H938 C914 0.950 . S
H939 C915 0.949 . S
H940 C917 0.950 . S
H941 C919 0.950 . S
C942 C943 1.349 . S
C942 C944 1.327 . S
C942 H967 0.950 . S
C943 C942 1.349 . S
C943 C959 1.349 . S
C944 C942 1.327 . S
C944 C963 1.429 . S
C944 H968 0.950 . S
C945 C962 1.574 . S
C945 C964 1.368 . S
C945 H969 0.949 . S
H946 C950 0.949 . S
C947 C948 1.349 . S
C947 C949 1.327 . S
C947 H970 0.950 . S
C948 C947 1.349 . S
C948 C960 1.349 . S
C949 C947 1.327 . S
C949 C965 1.429 . S
C949 H971 0.950 . S
C950 H946 0.949 . S
C950 C958 1.574 . S
C950 C966 1.368 . S
H951 C959 0.950 . S
H952 C957 0.950 . S
H953 C958 0.949 . S
H954 C960 0.950 . S
H955 C961 0.950 . S
H956 C962 0.949 . S
C957 H952 0.950 . S
C957 C959 1.327 . S
C957 C963 1.429 . S
C958 C950 1.574 . S
C958 H953 0.949 . S
C958 C964 1.368 . S
C959 C943 1.349 . S
C959 H951 0.950 . S
C959 C957 1.327 . S
C960 C948 1.349 . S
C960 H954 0.950 . S
C960 C961 1.327 . S
C961 H955 0.950 . S
C961 C960 1.327 . S
C961 C965 1.429 . S
C962 C945 1.574 . S
C962 H956 0.949 . S
C962 C966 1.368 . S
C963 C944 1.429 . S
C963 C957 1.429 . S
C963 C964 1.523 . S
C964 C945 1.368 . S
C964 C958 1.368 . S
C964 C963 1.523 . S
C965 C949 1.429 . S
C965 C961 1.429 . S
C965 C966 1.523 . S
C966 C950 1.368 . S
C966 C962 1.368 . S
C966 C965 1.523 . S
H967 C942 0.950 . S
H968 C944 0.950 . S
H969 C945 0.949 . S
H970 C947 0.950 . S
H971 C949 0.950 . S
C972 C973 1.349 . S
C972 C974 1.327 . S
C972 H997 0.950 . S
C973 C972 1.349 . S
C973 C989 1.349 . S
C974 C972 1.327 . S
C974 C993 1.429 . S
C974 H998 0.950 . S
C975 C992 1.574 . S
C975 C994 1.368 . S
C975 H999 0.949 . S
H976 C980 0.949 . S
C977 C978 1.349 . S
C977 C979 1.327 . S
C977 H1000 0.950 . S
C978 C977 1.349 . S
C978 C990 1.349 . S
C979 C977 1.327 . S
C979 C995 1.429 . S
C979 H1001 0.950 . S
C980 H976 0.949 . S
C980 C988 1.574 . S
C980 C996 1.368 . S
H981 C989 0.950 . S
H982 C987 0.950 . S
H983 C988 0.949 . S
H984 C990 0.950 . S
H985 C991 0.950 . S
H986 C992 0.949 . S
C987 H982 0.950 . S
C987 C989 1.327 . S
C987 C993 1.429 . S
C988 C980 1.574 . S
C988 H983 0.949 . S
C988 C994 1.368 . S
C989 C973 1.349 . S
C989 H981 0.950 . S
C989 C987 1.327 . S
C990 C978 1.349 . S
C990 H984 0.950 . S
C990 C991 1.327 . S
C991 H985 0.950 . S
C991 C990 1.327 . S
C991 C995 1.429 . S
C992 C975 1.574 . S
C992 H986 0.949 . S
C992 C996 1.368 . S
C993 C974 1.429 . S
C993 C987 1.429 . S
C993 C994 1.523 . S
C994 C975 1.368 . S
C994 C988 1.368 . S
C994 C993 1.523 . S
C995 C979 1.429 . S
C995 C991 1.429 . S
C995 C996 1.523 . S
C996 C980 1.368 . S
C996 C992 1.368 . S
C996 C995 1.523 . S
H997 C972 0.950 . S
H998 C974 0.950 . S
H999 C975 0.949 . S
H1000 C977 0.950 . S
H1001 C979 0.950 . S
C1002 C1003 1.349 . S
C1002 C1004 1.327 . S
C1002 H1027 0.950 . S
C1003 C1002 1.349 . S
C1003 C1019 1.349 . S
C1004 C1002 1.327 . S
C1004 C1023 1.429 . S
C1004 H1028 0.950 . S
C1005 C1022 1.574 . S
C1005 C1024 1.368 . S
C1005 H1029 0.949 . S
H1006 C1010 0.949 . S
C1007 C1008 1.349 . S
C1007 C1009 1.327 . S
C1007 H1030 0.950 . S
C1008 C1007 1.349 . S
C1008 C1020 1.349 . S
C1009 C1007 1.327 . S
C1009 C1025 1.429 . S
C1009 H1031 0.950 . S
C1010 H1006 0.949 . S
C1010 C1018 1.574 . S
C1010 C1026 1.368 . S
H1011 C1019 0.950 . S
H1012 C1017 0.950 . S
H1013 C1018 0.949 . S
H1014 C1020 0.950 . S
H1015 C1021 0.950 . S
H1016 C1022 0.949 . S
C1017 H1012 0.950 . S
C1017 C1019 1.327 . S
C1017 C1023 1.429 . S
C1018 C1010 1.574 . S
C1018 H1013 0.949 . S
C1018 C1024 1.368 . S
C1019 C1003 1.349 . S
C1019 H1011 0.950 . S
C1019 C1017 1.327 . S
C1020 C1008 1.349 . S
C1020 H1014 0.950 . S
C1020 C1021 1.327 . S
C1021 H1015 0.950 . S
C1021 C1020 1.327 . S
C1021 C1025 1.429 . S
C1022 C1005 1.574 . S
C1022 H1016 0.949 . S
C1022 C1026 1.368 . S
C1023 C1004 1.429 . S
C1023 C1017 1.429 . S
C1023 C1024 1.523 1_556 S
C1024 C1005 1.368 . S
C1024 C1018 1.368 . S
C1024 C1023 1.523 1_554 S
C1025 C1009 1.429 . S
C1025 C1021 1.429 . S
C1025 C1026 1.523 . S
C1026 C1010 1.368 . S
C1026 C1022 1.368 . S
C1026 C1025 1.523 . S
H1027 C1002 0.950 . S
H1028 C1004 0.950 . S
H1029 C1005 0.949 . S
H1030 C1007 0.950 . S
H1031 C1009 0.950 . S
C1032 C1033 1.349 . S
C1032 C1034 1.327 . S
C1032 H1057 0.950 . S
C1033 C1032 1.349 . S
C1033 C1049 1.349 . S
C1034 C1032 1.327 . S
C1034 C1053 1.429 . S
C1034 H1058 0.950 . S
C1035 C1052 1.574 . S
C1035 C1054 1.368 . S
C1035 H1059 0.949 . S
H1036 C1040 0.949 . S
C1037 C1038 1.349 . S
C1037 C1039 1.327 . S
C1037 H1060 0.950 . S
C1038 C1037 1.349 . S
C1038 C1050 1.349 . S
C1039 C1037 1.327 . S
C1039 C1055 1.429 . S
C1039 H1061 0.950 . S
C1040 H1036 0.949 . S
C1040 C1048 1.574 . S
C1040 C1056 1.368 . S
H1041 C1049 0.950 . S
H1042 C1047 0.950 . S
H1043 C1048 0.949 . S
H1044 C1050 0.950 . S
H1045 C1051 0.950 . S
H1046 C1052 0.949 . S
C1047 H1042 0.950 . S
C1047 C1049 1.327 . S
C1047 C1053 1.429 . S
C1048 C1040 1.574 . S
C1048 H1043 0.949 . S
C1048 C1054 1.368 . S
C1049 C1033 1.349 . S
C1049 H1041 0.950 . S
C1049 C1047 1.327 . S
C1050 C1038 1.349 . S
C1050 H1044 0.950 . S
C1050 C1051 1.327 . S
C1051 H1045 0.950 . S
C1051 C1050 1.327 . S
C1051 C1055 1.429 . S
C1052 C1035 1.574 . S
C1052 H1046 0.949 . S
C1052 C1056 1.368 . S
C1053 C1034 1.429 . S
C1053 C1047 1.429 . S
C1053 C1054 1.523 . S
C1054 C1035 1.368 . S
C1054 C1048 1.368 . S
C1054 C1053 1.523 . S
C1055 C1039 1.429 . S
C1055 C1051 1.429 . S
C1055 C1056 1.523 . S
C1056 C1040 1.368 . S
C1056 C1052 1.368 . S
C1056 C1055 1.523 . S
H1057 C1032 0.950 . S
H1058 C1034 0.950 . S
H1059 C1035 0.949 . S
H1060 C1037 0.950 . S
H1061 C1039 0.950 . S
C1062 C1063 1.349 . S
C1062 C1064 1.327 . S
C1062 H1087 0.950 . S
C1063 C1062 1.349 . S
C1063 C1079 1.349 . S
C1064 C1062 1.327 . S
C1064 C1083 1.429 . S
C1064 H1088 0.950 . S
C1065 C1082 1.574 . S
C1065 C1084 1.368 . S
C1065 H1089 0.949 . S
H1066 C1070 0.949 . S
C1067 C1068 1.349 . S
C1067 C1069 1.327 . S
C1067 H1090 0.950 . S
C1068 C1067 1.349 . S
C1068 C1080 1.349 . S
C1069 C1067 1.327 . S
C1069 C1085 1.429 . S
C1069 H1091 0.950 . S
C1070 H1066 0.949 . S
C1070 C1078 1.574 . S
C1070 C1086 1.368 . S
H1071 C1079 0.950 . S
H1072 C1077 0.950 . S
H1073 C1078 0.949 . S
H1074 C1080 0.950 . S
H1075 C1081 0.950 . S
H1076 C1082 0.949 . S
C1077 H1072 0.950 . S
C1077 C1079 1.327 . S
C1077 C1083 1.429 . S
C1078 C1070 1.574 . S
C1078 H1073 0.949 . S
C1078 C1084 1.368 . S
C1079 C1063 1.349 . S
C1079 H1071 0.950 . S
C1079 C1077 1.327 . S
C1080 C1068 1.349 . S
C1080 H1074 0.950 . S
C1080 C1081 1.327 . S
C1081 H1075 0.950 . S
C1081 C1080 1.327 . S
C1081 C1085 1.429 . S
C1082 C1065 1.574 . S
C1082 H1076 0.949 . S
C1082 C1086 1.368 . S
C1083 C1064 1.429 . S
C1083 C1077 1.429 . S
C1083 C1084 1.523 . S
C1084 C1065 1.368 . S
C1084 C1078 1.368 . S
C1084 C1083 1.523 . S
C1085 C1069 1.429 . S
C1085 C1081 1.429 . S
C1085 C1086 1.523 . S
C1086 C1070 1.368 . S
C1086 C1082 1.368 . S
C1086 C1085 1.523 . S
H1087 C1062 0.950 . S
H1088 C1064 0.950 . S
H1089 C1065 0.949 . S
H1090 C1067 0.950 . S
H1091 C1069 0.950 . S
C1092 C1093 1.349 . S
C1092 C1094 1.327 . S
C1092 H1117 0.950 . S
C1093 C1092 1.349 . S
C1093 C1109 1.349 . S
C1094 C1092 1.327 . S
C1094 C1113 1.429 . S
C1094 H1118 0.950 . S
C1095 C1112 1.574 . S
C1095 C1114 1.368 . S
C1095 H1119 0.949 . S
H1096 C1100 0.949 . S
C1097 C1098 1.349 . S
C1097 C1099 1.327 . S
C1097 H1120 0.950 . S
C1098 C1097 1.349 . S
C1098 C1110 1.349 . S
C1099 C1097 1.327 . S
C1099 C1115 1.429 . S
C1099 H1121 0.950 . S
C1100 H1096 0.949 . S
C1100 C1108 1.574 . S
C1100 C1116 1.368 . S
H1101 C1109 0.950 . S
H1102 C1107 0.950 . S
H1103 C1108 0.949 . S
H1104 C1110 0.950 . S
H1105 C1111 0.950 . S
H1106 C1112 0.949 . S
C1107 H1102 0.950 . S
C1107 C1109 1.327 . S
C1107 C1113 1.429 . S
C1108 C1100 1.574 . S
C1108 H1103 0.949 . S
C1108 C1114 1.368 . S
C1109 C1093 1.349 . S
C1109 H1101 0.950 . S
C1109 C1107 1.327 . S
C1110 C1098 1.349 . S
C1110 H1104 0.950 . S
C1110 C1111 1.327 . S
C1111 H1105 0.950 . S
C1111 C1110 1.327 . S
C1111 C1115 1.429 . S
C1112 C1095 1.574 . S
C1112 H1106 0.949 . S
C1112 C1116 1.368 . S
C1113 C1094 1.429 . S
C1113 C1107 1.429 . S
C1113 C1114 1.523 . S
C1114 C1095 1.368 . S
C1114 C1108 1.368 . S
C1114 C1113 1.523 . S
C1115 C1099 1.429 . S
C1115 C1111 1.429 . S
C1115 C1116 1.523 . S
C1116 C1100 1.368 . S
C1116 C1112 1.368 . S
C1116 C1115 1.523 . S
H1117 C1092 0.950 . S
H1118 C1094 0.950 . S
H1119 C1095 0.949 . S
H1120 C1097 0.950 . S
H1121 C1099 0.950 . S
C1122 C1123 1.349 . S
C1122 C1124 1.327 . S
C1122 H1147 0.950 . S
C1123 C1122 1.349 . S
C1123 C1139 1.349 . S
C1124 C1122 1.327 . S
C1124 C1143 1.429 . S
C1124 H1148 0.950 . S
C1125 C1142 1.574 . S
C1125 C1144 1.368 . S
C1125 H1149 0.949 . S
H1126 C1130 0.949 . S
C1127 C1128 1.349 . S
C1127 C1129 1.327 . S
C1127 H1150 0.950 . S
C1128 C1127 1.349 . S
C1128 C1140 1.349 . S
C1129 C1127 1.327 . S
C1129 C1145 1.429 . S
C1129 H1151 0.950 . S
C1130 H1126 0.949 . S
C1130 C1138 1.574 . S
C1130 C1146 1.368 . S
H1131 C1139 0.950 . S
H1132 C1137 0.950 . S
H1133 C1138 0.949 . S
H1134 C1140 0.950 . S
H1135 C1141 0.950 . S
H1136 C1142 0.949 . S
C1137 H1132 0.950 . S
C1137 C1139 1.327 . S
C1137 C1143 1.429 . S
C1138 C1130 1.574 . S
C1138 H1133 0.949 . S
C1138 C1144 1.368 . S
C1139 C1123 1.349 . S
C1139 H1131 0.950 . S
C1139 C1137 1.327 . S
C1140 C1128 1.349 . S
C1140 H1134 0.950 . S
C1140 C1141 1.327 . S
C1141 H1135 0.950 . S
C1141 C1140 1.327 . S
C1141 C1145 1.429 . S
C1142 C1125 1.574 . S
C1142 H1136 0.949 . S
C1142 C1146 1.368 . S
C1143 C1124 1.429 . S
C1143 C1137 1.429 . S
C1143 C1144 1.523 1_554 S
C1144 C1125 1.368 . S
C1144 C1138 1.368 . S
C1144 C1143 1.523 1_556 S
C1145 C1129 1.429 . S
C1145 C1141 1.429 . S
C1145 C1146 1.523 . S
C1146 C1130 1.368 . S
C1146 C1142 1.368 . S
C1146 C1145 1.523 . S
H1147 C1122 0.950 . S
H1148 C1124 0.950 . S
H1149 C1125 0.949 . S
H1150 C1127 0.950 . S
H1151 C1129 0.950 . S
C1152 C1153 1.349 . S
C1152 C1154 1.327 . S
C1152 H1177 0.950 . S
C1153 C1152 1.349 . S
C1153 C1169 1.349 . S
C1154 C1152 1.327 . S
C1154 C1173 1.429 . S
C1154 H1178 0.950 . S
C1155 C1172 1.574 . S
C1155 C1174 1.368 . S
C1155 H1179 0.949 . S
H1156 C1160 0.949 . S
C1157 C1158 1.349 . S
C1157 C1159 1.327 . S
C1157 H1180 0.950 . S
C1158 C1157 1.349 . S
C1158 C1170 1.349 . S
C1159 C1157 1.327 . S
C1159 C1175 1.429 . S
C1159 H1181 0.950 . S
C1160 H1156 0.949 . S
C1160 C1168 1.574 . S
C1160 C1176 1.368 . S
H1161 C1169 0.950 . S
H1162 C1167 0.950 . S
H1163 C1168 0.949 . S
H1164 C1170 0.950 . S
H1165 C1171 0.950 . S
H1166 C1172 0.949 . S
C1167 H1162 0.950 . S
C1167 C1169 1.327 . S
C1167 C1173 1.429 . S
C1168 C1160 1.574 . S
C1168 H1163 0.949 . S
C1168 C1174 1.368 . S
C1169 C1153 1.349 . S
C1169 H1161 0.950 . S
C1169 C1167 1.327 . S
C1170 C1158 1.349 . S
C1170 H1164 0.950 . S
C1170 C1171 1.327 . S
C1171 H1165 0.950 . S
C1171 C1170 1.327 . S
C1171 C1175 1.429 . S
C1172 C1155 1.574 . S
C1172 H1166 0.949 . S
C1172 C1176 1.368 . S
C1173 C1154 1.429 . S
C1173 C1167 1.429 . S
C1173 C1174 1.523 . S
C1174 C1155 1.368 . S
C1174 C1168 1.368 . S
C1174 C1173 1.523 . S
C1175 C1159 1.429 . S
C1175 C1171 1.429 . S
C1175 C1176 1.523 . S
C1176 C1160 1.368 . S
C1176 C1172 1.368 . S
C1176 C1175 1.523 . S
H1177 C1152 0.950 . S
H1178 C1154 0.950 . S
H1179 C1155 0.949 . S
H1180 C1157 0.950 . S
H1181 C1159 0.950 . S
C1182 C1183 1.349 . S
C1182 C1184 1.327 . S
C1182 H1207 0.950 . S
C1183 C1182 1.349 . S
C1183 C1199 1.349 . S
C1184 C1182 1.327 . S
C1184 C1203 1.429 . S
C1184 H1208 0.950 . S
C1185 C1202 1.574 . S
C1185 C1204 1.368 . S
C1185 H1209 0.949 . S
H1186 C1190 0.949 . S
C1187 C1188 1.349 . S
C1187 C1189 1.327 . S
C1187 H1210 0.950 . S
C1188 C1187 1.349 . S
C1188 C1200 1.349 . S
C1189 C1187 1.327 . S
C1189 C1205 1.429 . S
C1189 H1211 0.950 . S
C1190 H1186 0.949 . S
C1190 C1198 1.574 . S
C1190 C1206 1.368 . S
H1191 C1199 0.950 . S
H1192 C1197 0.950 . S
H1193 C1198 0.949 . S
H1194 C1200 0.950 . S
H1195 C1201 0.950 . S
H1196 C1202 0.949 . S
C1197 H1192 0.950 . S
C1197 C1199 1.327 . S
C1197 C1203 1.429 . S
C1198 C1190 1.574 . S
C1198 H1193 0.949 . S
C1198 C1204 1.368 . S
C1199 C1183 1.349 . S
C1199 H1191 0.950 . S
C1199 C1197 1.327 . S
C1200 C1188 1.349 . S
C1200 H1194 0.950 . S
C1200 C1201 1.327 . S
C1201 H1195 0.950 . S
C1201 C1200 1.327 . S
C1201 C1205 1.429 . S
C1202 C1185 1.574 . S
C1202 H1196 0.949 . S
C1202 C1206 1.368 . S
C1203 C1184 1.429 . S
C1203 C1197 1.429 . S
C1203 C1204 1.523 . S
C1204 C1185 1.368 . S
C1204 C1198 1.368 . S
C1204 C1203 1.523 . S
C1205 C1189 1.429 . S
C1205 C1201 1.429 . S
C1205 C1206 1.523 . S
C1206 C1190 1.368 . S
C1206 C1202 1.368 . S
C1206 C1205 1.523 . S
H1207 C1182 0.950 . S
H1208 C1184 0.950 . S
H1209 C1185 0.949 . S
H1210 C1187 0.950 . S
H1211 C1189 0.950 . S
C1212 C1213 1.349 . S
C1212 C1214 1.327 . S
C1212 H1237 0.950 . S
C1213 C1212 1.349 . S
C1213 C1229 1.349 . S
C1214 C1212 1.327 . S
C1214 C1233 1.429 . S
C1214 H1238 0.950 . S
C1215 C1232 1.574 . S
C1215 C1234 1.368 . S
C1215 H1239 0.949 . S
H1216 C1220 0.949 . S
C1217 C1218 1.349 . S
C1217 C1219 1.327 . S
C1217 H1240 0.950 . S
C1218 C1217 1.349 . S
C1218 C1230 1.349 . S
C1219 C1217 1.327 . S
C1219 C1235 1.429 . S
C1219 H1241 0.950 . S
C1220 H1216 0.949 . S
C1220 C1228 1.574 . S
C1220 C1236 1.368 . S
H1221 C1229 0.950 . S
H1222 C1227 0.950 . S
H1223 C1228 0.949 . S
H1224 C1230 0.950 . S
H1225 C1231 0.950 . S
H1226 C1232 0.949 . S
C1227 H1222 0.950 . S
C1227 C1229 1.327 . S
C1227 C1233 1.429 . S
C1228 C1220 1.574 . S
C1228 H1223 0.949 . S
C1228 C1234 1.368 . S
C1229 C1213 1.349 . S
C1229 H1221 0.950 . S
C1229 C1227 1.327 . S
C1230 C1218 1.349 . S
C1230 H1224 0.950 . S
C1230 C1231 1.327 . S
C1231 H1225 0.950 . S
C1231 C1230 1.327 . S
C1231 C1235 1.429 . S
C1232 C1215 1.574 . S
C1232 H1226 0.949 . S
C1232 C1236 1.368 . S
C1233 C1214 1.429 . S
C1233 C1227 1.429 . S
C1233 C1234 1.523 . S
C1234 C1215 1.368 . S
C1234 C1228 1.368 . S
C1234 C1233 1.523 . S
C1235 C1219 1.429 . S
C1235 C1231 1.429 . S
C1235 C1236 1.523 . S
C1236 C1220 1.368 . S
C1236 C1232 1.368 . S
C1236 C1235 1.523 . S
H1237 C1212 0.950 . S
H1238 C1214 0.950 . S
H1239 C1215 0.949 . S
H1240 C1217 0.950 . S
H1241 C1219 0.950 . S
C1242 C1243 1.349 . S
C1242 C1244 1.327 . S
C1242 H1267 0.950 . S
C1243 C1242 1.349 . S
C1243 C1259 1.349 . S
C1244 C1242 1.327 . S
C1244 C1263 1.429 . S
C1244 H1268 0.950 . S
C1245 C1262 1.574 . S
C1245 C1264 1.368 . S
C1245 H1269 0.949 . S
H1246 C1250 0.949 . S
C1247 C1248 1.349 . S
C1247 C1249 1.327 . S
C1247 H1270 0.950 . S
C1248 C1247 1.349 . S
C1248 C1260 1.349 . S
C1249 C1247 1.327 . S
C1249 C1265 1.429 . S
C1249 H1271 0.950 . S
C1250 H1246 0.949 . S
C1250 C1258 1.574 . S
C1250 C1266 1.368 . S
H1251 C1259 0.950 . S
H1252 C1257 0.950 . S
H1253 C1258 0.949 . S
H1254 C1260 0.950 . S
H1255 C1261 0.950 . S
H1256 C1262 0.949 . S
C1257 H1252 0.950 . S
C1257 C1259 1.327 . S
C1257 C1263 1.429 . S
C1258 C1250 1.574 . S
C1258 H1253 0.949 . S
C1258 C1264 1.368 . S
C1259 C1243 1.349 . S
C1259 H1251 0.950 . S
C1259 C1257 1.327 . S
C1260 C1248 1.349 . S
C1260 H1254 0.950 . S
C1260 C1261 1.327 . S
C1261 H1255 0.950 . S
C1261 C1260 1.327 . S
C1261 C1265 1.429 . S
C1262 C1245 1.574 . S
C1262 H1256 0.949 . S
C1262 C1266 1.368 . S
C1263 C1244 1.429 . S
C1263 C1257 1.429 . S
C1263 C1264 1.523 . S
C1264 C1245 1.368 . S
C1264 C1258 1.368 . S
C1264 C1263 1.523 . S
C1265 C1249 1.429 . S
C1265 C1261 1.429 . S
C1265 C1266 1.523 . S
C1266 C1250 1.368 . S
C1266 C1262 1.368 . S
C1266 C1265 1.523 . S
H1267 C1242 0.950 . S
H1268 C1244 0.950 . S
H1269 C1245 0.949 . S
H1270 C1247 0.950 . S
H1271 C1249 0.950 . S
C1272 C1273 1.349 . S
C1272 C1274 1.327 . S
C1272 H1297 0.950 . S
C1273 C1272 1.349 . S
C1273 C1289 1.349 . S
C1274 C1272 1.327 . S
C1274 C1293 1.429 . S
C1274 H1298 0.950 . S
C1275 C1292 1.574 . S
C1275 C1294 1.368 . S
C1275 H1299 0.949 . S
H1276 C1280 0.949 . S
C1277 C1278 1.349 . S
C1277 C1279 1.327 . S
C1277 H1300 0.950 . S
C1278 C1277 1.349 . S
C1278 C1290 1.349 . S
C1279 C1277 1.327 . S
C1279 C1295 1.429 . S
C1279 H1301 0.950 . S
C1280 H1276 0.949 . S
C1280 C1288 1.574 . S
C1280 C1296 1.368 . S
H1281 C1289 0.950 . S
H1282 C1287 0.950 . S
H1283 C1288 0.949 . S
H1284 C1290 0.950 . S
H1285 C1291 0.950 . S
H1286 C1292 0.949 . S
C1287 H1282 0.950 . S
C1287 C1289 1.327 . S
C1287 C1293 1.429 . S
C1288 C1280 1.574 . S
C1288 H1283 0.949 . S
C1288 C1294 1.368 . S
C1289 C1273 1.349 . S
C1289 H1281 0.950 . S
C1289 C1287 1.327 . S
C1290 C1278 1.349 . S
C1290 H1284 0.950 . S
C1290 C1291 1.327 . S
C1291 H1285 0.950 . S
C1291 C1290 1.327 . S
C1291 C1295 1.429 . S
C1292 C1275 1.574 . S
C1292 H1286 0.949 . S
C1292 C1296 1.368 . S
C1293 C1274 1.429 . S
C1293 C1287 1.429 . S
C1293 C1294 1.523 . S
C1294 C1275 1.368 . S
C1294 C1288 1.368 . S
C1294 C1293 1.523 . S
C1295 C1279 1.429 . S
C1295 C1291 1.429 . S
C1295 C1296 1.523 1_545 S
C1296 C1280 1.368 . S
C1296 C1292 1.368 . S
C1296 C1295 1.523 1_565 S
H1297 C1272 0.950 . S
H1298 C1274 0.950 . S
H1299 C1275 0.949 . S
H1300 C1277 0.950 . S
H1301 C1279 0.950 . S
C1302 C1303 1.349 . S
C1302 C1304 1.327 . S
C1302 H1327 0.950 . S
C1303 C1302 1.349 . S
C1303 C1319 1.349 . S
C1304 C1302 1.327 . S
C1304 C1323 1.429 . S
C1304 H1328 0.950 . S
C1305 C1322 1.574 . S
C1305 C1324 1.368 . S
C1305 H1329 0.949 . S
H1306 C1310 0.949 . S
C1307 C1308 1.349 . S
C1307 C1309 1.327 . S
C1307 H1330 0.950 . S
C1308 C1307 1.349 . S
C1308 C1320 1.349 . S
C1309 C1307 1.327 . S
C1309 C1325 1.429 . S
C1309 H1331 0.950 . S
C1310 H1306 0.949 . S
C1310 C1318 1.574 . S
C1310 C1326 1.368 . S
H1311 C1319 0.950 . S
H1312 C1317 0.950 . S
H1313 C1318 0.949 . S
H1314 C1320 0.950 . S
H1315 C1321 0.950 . S
H1316 C1322 0.949 . S
C1317 H1312 0.950 . S
C1317 C1319 1.327 . S
C1317 C1323 1.429 . S
C1318 C1310 1.574 . S
C1318 H1313 0.949 . S
C1318 C1324 1.368 . S
C1319 C1303 1.349 . S
C1319 H1311 0.950 . S
C1319 C1317 1.327 . S
C1320 C1308 1.349 . S
C1320 H1314 0.950 . S
C1320 C1321 1.327 . S
C1321 H1315 0.950 . S
C1321 C1320 1.327 . S
C1321 C1325 1.429 . S
C1322 C1305 1.574 . S
C1322 H1316 0.949 . S
C1322 C1326 1.368 . S
C1323 C1304 1.429 . S
C1323 C1317 1.429 . S
C1323 C1324 1.523 . S
C1324 C1305 1.368 . S
C1324 C1318 1.368 . S
C1324 C1323 1.523 . S
C1325 C1309 1.429 . S
C1325 C1321 1.429 . S
C1325 C1326 1.523 . S
C1326 C1310 1.368 . S
C1326 C1322 1.368 . S
C1326 C1325 1.523 . S
H1327 C1302 0.950 . S
H1328 C1304 0.950 . S
H1329 C1305 0.949 . S
H1330 C1307 0.950 . S
H1331 C1309 0.950 . S
C1332 C1333 1.349 . S
C1332 C1334 1.327 . S
C1332 H1357 0.950 . S
C1333 C1332 1.349 . S
C1333 C1349 1.349 . S
C1334 C1332 1.327 . S
C1334 C1353 1.429 . S
C1334 H1358 0.950 . S
C1335 C1352 1.574 . S
C1335 C1354 1.368 . S
C1335 H1359 0.949 . S
H1336 C1340 0.949 . S
C1337 C1338 1.349 . S
C1337 C1339 1.327 . S
C1337 H1360 0.950 . S
C1338 C1337 1.349 . S
C1338 C1350 1.349 . S
C1339 C1337 1.327 . S
C1339 C1355 1.429 . S
C1339 H1361 0.950 . S
C1340 H1336 0.949 . S
C1340 C1348 1.574 . S
C1340 C1356 1.368 . S
H1341 C1349 0.950 . S
H1342 C1347 0.950 . S
H1343 C1348 0.949 . S
H1344 C1350 0.950 . S
H1345 C1351 0.950 . S
H1346 C1352 0.949 . S
C1347 H1342 0.950 . S
C1347 C1349 1.327 . S
C1347 C1353 1.429 . S
C1348 C1340 1.574 . S
C1348 H1343 0.949 . S
C1348 C1354 1.368 . S
C1349 C1333 1.349 . S
C1349 H1341 0.950 . S
C1349 C1347 1.327 . S
C1350 C1338 1.349 . S
C1350 H1344 0.950 . S
C1350 C1351 1.327 . S
C1351 H1345 0.950 . S
C1351 C1350 1.327 . S
C1351 C1355 1.429 . S
C1352 C1335 1.574 . S
C1352 H1346 0.949 . S
C1352 C1356 1.368 . S
C1353 C1334 1.429 . S
C1353 C1347 1.429 . S
C1353 C1354 1.523 . S
C1354 C1335 1.368 . S
C1354 C1348 1.368 . S
C1354 C1353 1.523 . S
C1355 C1339 1.429 . S
C1355 C1351 1.429 . S
C1355 C1356 1.523 . S
C1356 C1340 1.368 . S
C1356 C1352 1.368 . S
C1356 C1355 1.523 . S
H1357 C1332 0.950 . S
H1358 C1334 0.950 . S
H1359 C1335 0.949 . S
H1360 C1337 0.950 . S
H1361 C1339 0.950 . S
C1362 C1363 1.349 . S
C1362 C1364 1.327 . S
C1362 H1387 0.950 . S
C1363 C1362 1.349 . S
C1363 C1379 1.349 . S
C1364 C1362 1.327 . S
C1364 C1383 1.429 . S
C1364 H1388 0.950 . S
C1365 C1382 1.574 . S
C1365 C1384 1.368 . S
C1365 H1389 0.949 . S
H1366 C1370 0.949 . S
C1367 C1368 1.349 . S
C1367 C1369 1.327 . S
C1367 H1390 0.950 . S
C1368 C1367 1.349 . S
C1368 C1380 1.349 . S
C1369 C1367 1.327 . S
C1369 C1385 1.429 . S
C1369 H1391 0.950 . S
C1370 H1366 0.949 . S
C1370 C1378 1.574 . S
C1370 C1386 1.368 . S
H1371 C1379 0.950 . S
H1372 C1377 0.950 . S
H1373 C1378 0.949 . S
H1374 C1380 0.950 . S
H1375 C1381 0.950 . S
H1376 C1382 0.949 . S
C1377 H1372 0.950 . S
C1377 C1379 1.327 . S
C1377 C1383 1.429 . S
C1378 C1370 1.574 . S
C1378 H1373 0.949 . S
C1378 C1384 1.368 . S
C1379 C1363 1.349 . S
C1379 H1371 0.950 . S
C1379 C1377 1.327 . S
C1380 C1368 1.349 . S
C1380 H1374 0.950 . S
C1380 C1381 1.327 . S
C1381 H1375 0.950 . S
C1381 C1380 1.327 . S
C1381 C1385 1.429 . S
C1382 C1365 1.574 . S
C1382 H1376 0.949 . S
C1382 C1386 1.368 . S
C1383 C1364 1.429 . S
C1383 C1377 1.429 . S
C1383 C1384 1.523 . S
C1384 C1365 1.368 . S
C1384 C1378 1.368 . S
C1384 C1383 1.523 . S
C1385 C1369 1.429 . S
C1385 C1381 1.429 . S
C1385 C1386 1.523 . S
C1386 C1370 1.368 . S
C1386 C1382 1.368 . S
C1386 C1385 1.523 . S
H1387 C1362 0.950 . S
H1388 C1364 0.950 . S
H1389 C1365 0.949 . S
H1390 C1367 0.950 . S
H1391 C1369 0.950 . S
C1392 C1393 1.349 . S
C1392 C1394 1.327 . S
C1392 H1417 0.950 . S
C1393 C1392 1.349 . S
C1393 C1409 1.349 . S
C1394 C1392 1.327 . S
C1394 C1413 1.429 . S
C1394 H1418 0.950 . S
C1395 C1412 1.574 . S
C1395 C1414 1.368 . S
C1395 H1419 0.949 . S
H1396 C1400 0.949 . S
C1397 C1398 1.349 . S
C1397 C1399 1.327 . S
C1397 H1420 0.950 . S
C1398 C1397 1.349 . S
C1398 C1410 1.349 . S
C1399 C1397 1.327 . S
C1399 C1415 1.429 . S
C1399 H1421 0.950 . S
C1400 H1396 0.949 . S
C1400 C1408 1.574 . S
C1400 C1416 1.368 . S
H1401 C1409 0.950 . S
H1402 C1407 0.950 . S
H1403 C1408 0.949 . S
H1404 C1410 0.950 . S
H1405 C1411 0.950 . S
H1406 C1412 0.949 . S
C1407 H1402 0.950 . S
C1407 C1409 1.327 . S
C1407 C1413 1.429 . S
C1408 C1400 1.574 . S
C1408 H1403 0.949 . S
C1408 C1414 1.368 . S
C1409 C1393 1.349 . S
C1409 H1401 0.950 . S
C1409 C1407 1.327 . S
C1410 C1398 1.349 . S
C1410 H1404 0.950 . S
C1410 C1411 1.327 . S
C1411 H1405 0.950 . S
C1411 C1410 1.327 . S
C1411 C1415 1.429 . S
C1412 C1395 1.574 . S
C1412 H1406 0.949 . S
C1412 C1416 1.368 . S
C1413 C1394 1.429 . S
C1413 C1407 1.429 . S
C1413 C1414 1.523 . S
C1414 C1395 1.368 . S
C1414 C1408 1.368 . S
C1414 C1413 1.523 . S
C1415 C1399 1.429 . S
C1415 C1411 1.429 . S
C1415 C1416 1.523 . S
C1416 C1400 1.368 . S
C1416 C1412 1.368 . S
C1416 C1415 1.523 . S
H1417 C1392 0.950 . S
H1418 C1394 0.950 . S
H1419 C1395 0.949 . S
H1420 C1397 0.950 . S
H1421 C1399 0.950 . S
C1422 C1423 1.349 . S
C1422 C1424 1.327 . S
C1422 H1447 0.950 . S
C1423 C1422 1.349 . S
C1423 C1439 1.349 . S
C1424 C1422 1.327 . S
C1424 C1443 1.429 . S
C1424 H1448 0.950 . S
C1425 C1442 1.574 . S
C1425 C1444 1.368 . S
C1425 H1449 0.949 . S
H1426 C1430 0.949 . S
C1427 C1428 1.349 . S
C1427 C1429 1.327 . S
C1427 H1450 0.950 . S
C1428 C1427 1.349 . S
C1428 C1440 1.349 . S
C1429 C1427 1.327 . S
C1429 C1445 1.429 . S
C1429 H1451 0.950 . S
C1430 H1426 0.949 . S
C1430 C1438 1.574 . S
C1430 C1446 1.368 . S
H1431 C1439 0.950 . S
H1432 C1437 0.950 . S
H1433 C1438 0.949 . S
H1434 C1440 0.950 . S
H1435 C1441 0.950 . S
H1436 C1442 0.949 . S
C1437 H1432 0.950 . S
C1437 C1439 1.327 . S
C1437 C1443 1.429 . S
C1438 C1430 1.574 . S
C1438 H1433 0.949 . S
C1438 C1444 1.368 . S
C1439 C1423 1.349 . S
C1439 H1431 0.950 . S
C1439 C1437 1.327 . S
C1440 C1428 1.349 . S
C1440 H1434 0.950 . S
C1440 C1441 1.327 . S
C1441 H1435 0.950 . S
C1441 C1440 1.327 . S
C1441 C1445 1.429 . S
C1442 C1425 1.574 . S
C1442 H1436 0.949 . S
C1442 C1446 1.368 . S
C1443 C1424 1.429 . S
C1443 C1437 1.429 . S
C1443 C1444 1.523 1_655 S
C1444 C1425 1.368 . S
C1444 C1438 1.368 . S
C1444 C1443 1.523 1_455 S
C1445 C1429 1.429 . S
C1445 C1441 1.429 . S
C1445 C1446 1.523 . S
C1446 C1430 1.368 . S
C1446 C1442 1.368 . S
C1446 C1445 1.523 . S
H1447 C1422 0.950 . S
H1448 C1424 0.950 . S
H1449 C1425 0.949 . S
H1450 C1427 0.950 . S
H1451 C1429 0.950 . S
C1452 C1453 1.349 . S
C1452 C1454 1.327 . S
C1452 H1477 0.950 . S
C1453 C1452 1.349 . S
C1453 C1469 1.349 . S
C1454 C1452 1.327 . S
C1454 C1473 1.429 . S
C1454 H1478 0.950 . S
C1455 C1472 1.574 . S
C1455 C1474 1.368 . S
C1455 H1479 0.949 . S
H1456 C1460 0.949 . S
C1457 C1458 1.349 . S
C1457 C1459 1.327 . S
C1457 H1480 0.950 . S
C1458 C1457 1.349 . S
C1458 C1470 1.349 . S
C1459 C1457 1.327 . S
C1459 C1475 1.429 . S
C1459 H1481 0.950 . S
C1460 H1456 0.949 . S
C1460 C1468 1.574 . S
C1460 C1476 1.368 . S
H1461 C1469 0.950 . S
H1462 C1467 0.950 . S
H1463 C1468 0.949 . S
H1464 C1470 0.950 . S
H1465 C1471 0.950 . S
H1466 C1472 0.949 . S
C1467 H1462 0.950 . S
C1467 C1469 1.327 . S
C1467 C1473 1.429 . S
C1468 C1460 1.574 . S
C1468 H1463 0.949 . S
C1468 C1474 1.368 . S
C1469 C1453 1.349 . S
C1469 H1461 0.950 . S
C1469 C1467 1.327 . S
C1470 C1458 1.349 . S
C1470 H1464 0.950 . S
C1470 C1471 1.327 . S
C1471 H1465 0.950 . S
C1471 C1470 1.327 . S
C1471 C1475 1.429 . S
C1472 C1455 1.574 . S
C1472 H1466 0.949 . S
C1472 C1476 1.368 . S
C1473 C1454 1.429 . S
C1473 C1467 1.429 . S
C1473 C1474 1.523 . S
C1474 C1455 1.368 . S
C1474 C1468 1.368 . S
C1474 C1473 1.523 . S
C1475 C1459 1.429 . S
C1475 C1471 1.429 . S
C1475 C1476 1.523 . S
C1476 C1460 1.368 . S
C1476 C1472 1.368 . S
C1476 C1475 1.523 . S
H1477 C1452 0.950 . S
H1478 C1454 0.950 . S
H1479 C1455 0.949 . S
H1480 C1457 0.950 . S
H1481 C1459 0.950 . S
C1482 C1483 1.349 . S
C1482 C1484 1.327 . S
C1482 H1507 0.950 . S
C1483 C1482 1.349 . S
C1483 C1499 1.349 . S
C1484 C1482 1.327 . S
C1484 C1503 1.429 . S
C1484 H1508 0.950 . S
C1485 C1502 1.574 . S
C1485 C1504 1.368 . S
C1485 H1509 0.949 . S
H1486 C1490 0.949 . S
C1487 C1488 1.349 . S
C1487 C1489 1.327 . S
C1487 H1510 0.950 . S
C1488 C1487 1.349 . S
C1488 C1500 1.349 . S
C1489 C1487 1.327 . S
C1489 C1505 1.429 . S
C1489 H1511 0.950 . S
C1490 H1486 0.949 . S
C1490 C1498 1.574 . S
C1490 C1506 1.368 . S
H1491 C1499 0.950 . S
H1492 C1497 0.950 . S
H1493 C1498 0.949 . S
H1494 C1500 0.950 . S
H1495 C1501 0.950 . S
H1496 C1502 0.949 . S
C1497 H1492 0.950 . S
C1497 C1499 1.327 . S
C1497 C1503 1.429 . S
C1498 C1490 1.574 . S
C1498 H1493 0.949 . S
C1498 C1504 1.368 . S
C1499 C1483 1.349 . S
C1499 H1491 0.950 . S
C1499 C1497 1.327 . S
C1500 C1488 1.349 . S
C1500 H1494 0.950 . S
C1500 C1501 1.327 . S
C1501 H1495 0.950 . S
C1501 C1500 1.327 . S
C1501 C1505 1.429 . S
C1502 C1485 1.574 . S
C1502 H1496 0.949 . S
C1502 C1506 1.368 . S
C1503 C1484 1.429 . S
C1503 C1497 1.429 . S
C1503 C1504 1.523 . S
C1504 C1485 1.368 . S
C1504 C1498 1.368 . S
C1504 C1503 1.523 . S
C1505 C1489 1.429 . S
C1505 C1501 1.429 . S
C1505 C1506 1.523 . S
C1506 C1490 1.368 . S
C1506 C1502 1.368 . S
C1506 C1505 1.523 . S
H1507 C1482 0.950 . S
H1508 C1484 0.950 . S
H1509 C1485 0.949 . S
H1510 C1487 0.950 . S
H1511 C1489 0.950 . S
C1512 C1513 1.349 . S
C1512 C1514 1.327 . S
C1512 H1537 0.950 . S
C1513 C1512 1.349 . S
C1513 C1529 1.349 . S
C1514 C1512 1.327 . S
C1514 C1533 1.429 . S
C1514 H1538 0.950 . S
C1515 C1532 1.574 . S
C1515 C1534 1.368 . S
C1515 H1539 0.949 . S
H1516 C1520 0.949 . S
C1517 C1518 1.349 . S
C1517 C1519 1.327 . S
C1517 H1540 0.950 . S
C1518 C1517 1.349 . S
C1518 C1530 1.349 . S
C1519 C1517 1.327 . S
C1519 C1535 1.429 . S
C1519 H1541 0.950 . S
C1520 H1516 0.949 . S
C1520 C1528 1.574 . S
C1520 C1536 1.368 . S
H1521 C1529 0.950 . S
H1522 C1527 0.950 . S
H1523 C1528 0.949 . S
H1524 C1530 0.950 . S
H1525 C1531 0.950 . S
H1526 C1532 0.949 . S
C1527 H1522 0.950 . S
C1527 C1529 1.327 . S
C1527 C1533 1.429 . S
C1528 C1520 1.574 . S
C1528 H1523 0.949 . S
C1528 C1534 1.368 . S
C1529 C1513 1.349 . S
C1529 H1521 0.950 . S
C1529 C1527 1.327 . S
C1530 C1518 1.349 . S
C1530 H1524 0.950 . S
C1530 C1531 1.327 . S
C1531 H1525 0.950 . S
C1531 C1530 1.327 . S
C1531 C1535 1.429 . S
C1532 C1515 1.574 . S
C1532 H1526 0.949 . S
C1532 C1536 1.368 . S
C1533 C1514 1.429 . S
C1533 C1527 1.429 . S
C1533 C1534 1.523 . S
C1534 C1515 1.368 . S
C1534 C1528 1.368 . S
C1534 C1533 1.523 . S
C1535 C1519 1.429 . S
C1535 C1531 1.429 . S
C1535 C1536 1.523 . S
C1536 C1520 1.368 . S
C1536 C1532 1.368 . S
C1536 C1535 1.523 . S
H1537 C1512 0.950 . S
H1538 C1514 0.950 . S
H1539 C1515 0.949 . S
H1540 C1517 0.950 . S
H1541 C1519 0.950 . S
C1542 C1543 1.349 . S
C1542 C1544 1.327 . S
C1542 H1567 0.950 . S
C1543 C1542 1.349 . S
C1543 C1559 1.349 . S
C1544 C1542 1.327 . S
C1544 C1563 1.429 . S
C1544 H1568 0.950 . S
C1545 C1562 1.574 . S
C1545 C1564 1.368 . S
C1545 H1569 0.949 . S
H1546 C1550 0.949 . S
C1547 C1548 1.349 . S
C1547 C1549 1.327 . S
C1547 H1570 0.950 . S
C1548 C1547 1.349 . S
C1548 C1560 1.349 . S
C1549 C1547 1.327 . S
C1549 C1565 1.429 . S
C1549 H1571 0.950 . S
C1550 H1546 0.949 . S
C1550 C1558 1.574 . S
C1550 C1566 1.368 . S
H1551 C1559 0.950 . S
H1552 C1557 0.950 . S
H1553 C1558 0.949 . S
H1554 C1560 0.950 . S
H1555 C1561 0.950 . S
H1556 C1562 0.949 . S
C1557 H1552 0.950 . S
C1557 C1559 1.327 . S
C1557 C1563 1.429 . S
C1558 C1550 1.574 . S
C1558 H1553 0.949 . S
C1558 C1564 1.368 . S
C1559 C1543 1.349 . S
C1559 H1551 0.950 . S
C1559 C1557 1.327 . S
C1560 C1548 1.349 . S
C1560 H1554 0.950 . S
C1560 C1561 1.327 . S
C1561 H1555 0.950 . S
C1561 C1560 1.327 . S
C1561 C1565 1.429 . S
C1562 C1545 1.574 . S
C1562 H1556 0.949 . S
C1562 C1566 1.368 . S
C1563 C1544 1.429 . S
C1563 C1557 1.429 . S
C1563 C1564 1.523 . S
C1564 C1545 1.368 . S
C1564 C1558 1.368 . S
C1564 C1563 1.523 . S
C1565 C1549 1.429 . S
C1565 C1561 1.429 . S
C1565 C1566 1.523 . S
C1566 C1550 1.368 . S
C1566 C1562 1.368 . S
C1566 C1565 1.523 . S
H1567 C1542 0.950 . S
H1568 C1544 0.950 . S
H1569 C1545 0.949 . S
H1570 C1547 0.950 . S
H1571 C1549 0.950 . S
C1572 C1573 1.349 . S
C1572 C1574 1.327 . S
C1572 H1597 0.950 . S
C1573 C1572 1.349 . S
C1573 C1589 1.349 . S
C1574 C1572 1.327 . S
C1574 C1593 1.429 . S
C1574 H1598 0.950 . S
C1575 C1592 1.574 . S
C1575 C1594 1.368 . S
C1575 H1599 0.949 . S
H1576 C1580 0.949 . S
C1577 C1578 1.349 . S
C1577 C1579 1.327 . S
C1577 H1600 0.950 . S
C1578 C1577 1.349 . S
C1578 C1590 1.349 . S
C1579 C1577 1.327 . S
C1579 C1595 1.429 . S
C1579 H1601 0.950 . S
C1580 H1576 0.949 . S
C1580 C1588 1.574 . S
C1580 C1596 1.368 . S
H1581 C1589 0.950 . S
H1582 C1587 0.950 . S
H1583 C1588 0.949 . S
H1584 C1590 0.950 . S
H1585 C1591 0.950 . S
H1586 C1592 0.949 . S
C1587 H1582 0.950 . S
C1587 C1589 1.327 . S
C1587 C1593 1.429 . S
C1588 C1580 1.574 . S
C1588 H1583 0.949 . S
C1588 C1594 1.368 . S
C1589 C1573 1.349 . S
C1589 H1581 0.950 . S
C1589 C1587 1.327 . S
C1590 C1578 1.349 . S
C1590 H1584 0.950 . S
C1590 C1591 1.327 . S
C1591 H1585 0.950 . S
C1591 C1590 1.327 . S
C1591 C1595 1.429 . S
C1592 C1575 1.574 . S
C1592 H1586 0.949 . S
C1592 C1596 1.368 . S
C1593 C1574 1.429 . S
C1593 C1587 1.429 . S
C1593 C1594 1.523 . S
C1594 C1575 1.368 . S
C1594 C1588 1.368 . S
C1594 C1593 1.523 . S
C1595 C1579 1.429 . S
C1595 C1591 1.429 . S
C1595 C1596 1.523 . S
C1596 C1580 1.368 . S
C1596 C1592 1.368 . S
C1596 C1595 1.523 . S
H1597 C1572 0.950 . S
H1598 C1574 0.950 . S
H1599 C1575 0.949 . S
H1600 C1577 0.950 . S
H1601 C1579 0.950 . S
C1602 C1603 1.349 . S
C1602 C1604 1.327 . S
C1602 H1627 0.950 . S
C1603 C1602 1.349 . S
C1603 C1619 1.349 . S
C1604 C1602 1.327 . S
C1604 C1623 1.429 . S
C1604 H1628 0.950 . S
C1605 C1622 1.574 . S
C1605 C1624 1.368 . S
C1605 H1629 0.949 . S
H1606 C1610 0.949 . S
C1607 C1608 1.349 . S
C1607 C1609 1.327 . S
C1607 H1630 0.950 . S
C1608 C1607 1.349 . S
C1608 C1620 1.349 . S
C1609 C1607 1.327 . S
C1609 C1625 1.429 . S
C1609 H1631 0.950 . S
C1610 H1606 0.949 . S
C1610 C1618 1.574 . S
C1610 C1626 1.368 . S
H1611 C1619 0.950 . S
H1612 C1617 0.950 . S
H1613 C1618 0.949 . S
H1614 C1620 0.950 . S
H1615 C1621 0.950 . S
H1616 C1622 0.949 . S
C1617 H1612 0.950 . S
C1617 C1619 1.327 . S
C1617 C1623 1.429 . S
C1618 C1610 1.574 . S
C1618 H1613 0.949 . S
C1618 C1624 1.368 . S
C1619 C1603 1.349 . S
C1619 H1611 0.950 . S
C1619 C1617 1.327 . S
C1620 C1608 1.349 . S
C1620 H1614 0.950 . S
C1620 C1621 1.327 . S
C1621 H1615 0.950 . S
C1621 C1620 1.327 . S
C1621 C1625 1.429 . S
C1622 C1605 1.574 . S
C1622 H1616 0.949 . S
C1622 C1626 1.368 . S
C1623 C1604 1.429 . S
C1623 C1617 1.429 . S
C1623 C1624 1.523 . S
C1624 C1605 1.368 . S
C1624 C1618 1.368 . S
C1624 C1623 1.523 . S
C1625 C1609 1.429 . S
C1625 C1621 1.429 . S
C1625 C1626 1.523 1_655 S
C1626 C1610 1.368 . S
C1626 C1622 1.368 . S
C1626 C1625 1.523 1_455 S
H1627 C1602 0.950 . S
H1628 C1604 0.950 . S
H1629 C1605 0.949 . S
H1630 C1607 0.950 . S
H1631 C1609 0.950 . S
C1632 C1633 1.349 . S
C1632 C1634 1.327 . S
C1632 H1657 0.950 . S
C1633 C1632 1.349 . S
C1633 C1649 1.349 . S
C1634 C1632 1.327 . S
C1634 C1653 1.429 . S
C1634 H1658 0.950 . S
C1635 C1652 1.574 . S
C1635 C1654 1.368 . S
C1635 H1659 0.949 . S
H1636 C1640 0.949 . S
C1637 C1638 1.349 . S
C1637 C1639 1.327 . S
C1637 H1660 0.950 . S
C1638 C1637 1.349 . S
C1638 C1650 1.349 . S
C1639 C1637 1.327 . S
C1639 C1655 1.429 . S
C1639 H1661 0.950 . S
C1640 H1636 0.949 . S
C1640 C1648 1.574 . S
C1640 C1656 1.368 . S
H1641 C1649 0.950 . S
H1642 C1647 0.950 . S
H1643 C1648 0.949 . S
H1644 C1650 0.950 . S
H1645 C1651 0.950 . S
H1646 C1652 0.949 . S
C1647 H1642 0.950 . S
C1647 C1649 1.327 . S
C1647 C1653 1.429 . S
C1648 C1640 1.574 . S
C1648 H1643 0.949 . S
C1648 C1654 1.368 . S
C1649 C1633 1.349 . S
C1649 H1641 0.950 . S
C1649 C1647 1.327 . S
C1650 C1638 1.349 . S
C1650 H1644 0.950 . S
C1650 C1651 1.327 . S
C1651 H1645 0.950 . S
C1651 C1650 1.327 . S
C1651 C1655 1.429 . S
C1652 C1635 1.574 . S
C1652 H1646 0.949 . S
C1652 C1656 1.368 . S
C1653 C1634 1.429 . S
C1653 C1647 1.429 . S
C1653 C1654 1.523 . S
C1654 C1635 1.368 . S
C1654 C1648 1.368 . S
C1654 C1653 1.523 . S
C1655 C1639 1.429 . S
C1655 C1651 1.429 . S
C1655 C1656 1.523 . S
C1656 C1640 1.368 . S
C1656 C1652 1.368 . S
C1656 C1655 1.523 . S
H1657 C1632 0.950 . S
H1658 C1634 0.950 . S
H1659 C1635 0.949 . S
H1660 C1637 0.950 . S
H1661 C1639 0.950 . S
C1662 C1663 1.349 . S
C1662 C1664 1.327 . S
C1662 H1687 0.950 . S
C1663 C1662 1.349 . S
C1663 C1679 1.349 . S
C1664 C1662 1.327 . S
C1664 C1683 1.429 . S
C1664 H1688 0.950 . S
C1665 C1682 1.574 . S
C1665 C1684 1.368 . S
C1665 H1689 0.949 . S
H1666 C1670 0.949 . S
C1667 C1668 1.349 . S
C1667 C1669 1.327 . S
C1667 H1690 0.950 . S
C1668 C1667 1.349 . S
C1668 C1680 1.349 . S
C1669 C1667 1.327 . S
C1669 C1685 1.429 . S
C1669 H1691 0.950 . S
C1670 H1666 0.949 . S
C1670 C1678 1.574 . S
C1670 C1686 1.368 . S
H1671 C1679 0.950 . S
H1672 C1677 0.950 . S
H1673 C1678 0.949 . S
H1674 C1680 0.950 . S
H1675 C1681 0.950 . S
H1676 C1682 0.949 . S
C1677 H1672 0.950 . S
C1677 C1679 1.327 . S
C1677 C1683 1.429 . S
C1678 C1670 1.574 . S
C1678 H1673 0.949 . S
C1678 C1684 1.368 . S
C1679 C1663 1.349 . S
C1679 H1671 0.950 . S
C1679 C1677 1.327 . S
C1680 C1668 1.349 . S
C1680 H1674 0.950 . S
C1680 C1681 1.327 . S
C1681 H1675 0.950 . S
C1681 C1680 1.327 . S
C1681 C1685 1.429 . S
C1682 C1665 1.574 . S
C1682 H1676 0.949 . S
C1682 C1686 1.368 . S
C1683 C1664 1.429 . S
C1683 C1677 1.429 . S
C1683 C1684 1.523 . S
C1684 C1665 1.368 . S
C1684 C1678 1.368 . S
C1684 C1683 1.523 . S
C1685 C1669 1.429 . S
C1685 C1681 1.429 . S
C1685 C1686 1.523 . S
C1686 C1670 1.368 . S
C1686 C1682 1.368 . S
C1686 C1685 1.523 . S
H1687 C1662 0.950 . S
H1688 C1664 0.950 . S
H1689 C1665 0.949 . S
H1690 C1667 0.950 . S
H1691 C1669 0.950 . S
C1692 C1693 1.349 . S
C1692 C1694 1.327 . S
C1692 H1717 0.950 . S
C1693 C1692 1.349 . S
C1693 C1709 1.349 . S
C1694 C1692 1.327 . S
C1694 C1713 1.429 . S
C1694 H1718 0.950 . S
C1695 C1712 1.574 . S
C1695 C1714 1.368 . S
C1695 H1719 0.949 . S
H1696 C1700 0.949 . S
C1697 C1698 1.349 . S
C1697 C1699 1.327 . S
C1697 H1720 0.950 . S
C1698 C1697 1.349 . S
C1698 C1710 1.349 . S
C1699 C1697 1.327 . S
C1699 C1715 1.429 . S
C1699 H1721 0.950 . S
C1700 H1696 0.949 . S
C1700 C1708 1.574 . S
C1700 C1716 1.368 . S
H1701 C1709 0.950 . S
H1702 C1707 0.950 . S
H1703 C1708 0.949 . S
H1704 C1710 0.950 . S
H1705 C1711 0.950 . S
H1706 C1712 0.949 . S
C1707 H1702 0.950 . S
C1707 C1709 1.327 . S
C1707 C1713 1.429 . S
C1708 C1700 1.574 . S
C1708 H1703 0.949 . S
C1708 C1714 1.368 . S
C1709 C1693 1.349 . S
C1709 H1701 0.950 . S
C1709 C1707 1.327 . S
C1710 C1698 1.349 . S
C1710 H1704 0.950 . S
C1710 C1711 1.327 . S
C1711 H1705 0.950 . S
C1711 C1710 1.327 . S
C1711 C1715 1.429 . S
C1712 C1695 1.574 . S
C1712 H1706 0.949 . S
C1712 C1716 1.368 . S
C1713 C1694 1.429 . S
C1713 C1707 1.429 . S
C1713 C1714 1.523 . S
C1714 C1695 1.368 . S
C1714 C1708 1.368 . S
C1714 C1713 1.523 . S
C1715 C1699 1.429 . S
C1715 C1711 1.429 . S
C1715 C1716 1.523 . S
C1716 C1700 1.368 . S
C1716 C1712 1.368 . S
C1716 C1715 1.523 . S
H1717 C1692 0.950 . S
H1718 C1694 0.950 . S
H1719 C1695 0.949 . S
H1720 C1697 0.950 . S
H1721 C1699 0.950 . S
C1722 C1723 1.349 . S
C1722 C1724 1.327 . S
C1722 H1747 0.950 . S
C1723 C1722 1.349 . S
C1723 C1739 1.349 . S
C1724 C1722 1.327 . S
C1724 C1743 1.429 . S
C1724 H1748 0.950 . S
C1725 C1742 1.549 1_556 S
C1725 C1744 1.368 . S
C1725 H1749 0.949 . S
H1726 C1730 0.929 1_554 S
C1727 C1728 1.349 . S
C1727 C1729 1.327 . S
C1727 H1750 0.950 . S
C1728 C1727 1.349 . S
C1728 C1740 1.349 . S
C1729 C1727 1.327 . S
C1729 C1745 1.429 . S
C1729 H1751 0.950 . S
C1730 H1726 0.929 1_556 S
C1730 C1738 1.574 . S
C1730 C1746 1.368 1_556 S
H1731 C1739 0.950 . S
H1732 C1737 0.950 . S
H1733 C1738 0.949 . S
H1734 C1740 0.950 . S
H1735 C1741 0.950 . S
H1736 C1742 0.966 . S
C1737 H1732 0.950 . S
C1737 C1739 1.327 . S
C1737 C1743 1.429 . S
C1738 C1730 1.574 . S
C1738 H1733 0.949 . S
C1738 C1744 1.368 . S
C1739 C1723 1.349 . S
C1739 H1731 0.950 . S
C1739 C1737 1.327 . S
C1740 C1728 1.349 . S
C1740 H1734 0.950 . S
C1740 C1741 1.327 . S
C1741 H1735 0.950 . S
C1741 C1740 1.327 . S
C1741 C1745 1.429 . S
C1742 C1725 1.549 1_554 S
C1742 H1736 0.966 . S
C1742 C1746 1.375 . S
C1743 C1724 1.429 . S
C1743 C1737 1.429 . S
C1743 C1744 1.523 . S
C1744 C1725 1.368 . S
C1744 C1738 1.368 . S
C1744 C1743 1.523 . S
C1745 C1729 1.429 . S
C1745 C1741 1.429 . S
C1745 C1746 1.523 . S
C1746 C1730 1.368 1_554 S
C1746 C1742 1.375 . S
C1746 C1745 1.523 . S
H1747 C1722 0.950 . S
H1748 C1724 0.950 . S
H1749 C1725 0.949 . S
H1750 C1727 0.950 . S
H1751 C1729 0.950 . S
C1752 C1753 1.349 . S
C1752 C1754 1.327 . S
C1752 H1777 0.950 . S
C1753 C1752 1.349 . S
C1753 C1769 1.349 . S
C1754 C1752 1.327 . S
C1754 C1773 1.429 . S
C1754 H1778 0.950 . S
C1755 C1772 1.574 . S
C1755 C1774 1.368 . S
C1755 H1779 0.949 . S
H1756 C1760 0.949 . S
C1757 C1758 1.349 . S
C1757 C1759 1.327 . S
C1757 H1780 0.950 . S
C1758 C1757 1.349 . S
C1758 C1770 1.349 . S
C1759 C1757 1.327 . S
C1759 C1775 1.429 . S
C1759 H1781 0.950 . S
C1760 H1756 0.949 . S
C1760 C1768 1.574 . S
C1760 C1776 1.368 . S
H1761 C1769 0.950 . S
H1762 C1767 0.950 . S
H1763 C1768 0.949 . S
H1764 C1770 0.950 . S
H1765 C1771 0.950 . S
H1766 C1772 0.949 . S
C1767 H1762 0.950 . S
C1767 C1769 1.327 . S
C1767 C1773 1.429 . S
C1768 C1760 1.574 . S
C1768 H1763 0.949 . S
C1768 C1774 1.368 . S
C1769 C1753 1.349 . S
C1769 H1761 0.950 . S
C1769 C1767 1.327 . S
C1770 C1758 1.349 . S
C1770 H1764 0.950 . S
C1770 C1771 1.327 . S
C1771 H1765 0.950 . S
C1771 C1770 1.327 . S
C1771 C1775 1.429 . S
C1772 C1755 1.574 . S
C1772 H1766 0.949 . S
C1772 C1776 1.368 . S
C1773 C1754 1.429 . S
C1773 C1767 1.429 . S
C1773 C1774 1.523 . S
C1774 C1755 1.368 . S
C1774 C1768 1.368 . S
C1774 C1773 1.523 . S
C1775 C1759 1.429 . S
C1775 C1771 1.429 . S
C1775 C1776 1.523 . S
C1776 C1760 1.368 . S
C1776 C1772 1.368 . S
C1776 C1775 1.523 . S
H1777 C1752 0.950 . S
H1778 C1754 0.950 . S
H1779 C1755 0.949 . S
H1780 C1757 0.950 . S
H1781 C1759 0.950 . S
C1782 C1783 1.349 . S
C1782 C1784 1.327 . S
C1782 H1807 0.950 . S
C1783 C1782 1.349 . S
C1783 C1799 1.349 . S
C1784 C1782 1.327 . S
C1784 C1803 1.429 . S
C1784 H1808 0.950 . S
C1785 C1802 1.574 . S
C1785 C1804 1.368 . S
C1785 H1809 0.949 . S
H1786 C1790 0.949 . S
C1787 C1788 1.349 . S
C1787 C1789 1.327 . S
C1787 H1810 0.950 . S
C1788 C1787 1.349 . S
C1788 C1800 1.349 . S
C1789 C1787 1.327 . S
C1789 C1805 1.429 . S
C1789 H1811 0.950 . S
C1790 H1786 0.949 . S
C1790 C1798 1.574 . S
C1790 C1806 1.368 . S
H1791 C1799 0.950 . S
H1792 C1797 0.950 . S
H1793 C1798 0.949 . S
H1794 C1800 0.950 . S
H1795 C1801 0.950 . S
H1796 C1802 0.949 . S
C1797 H1792 0.950 . S
C1797 C1799 1.327 . S
C1797 C1803 1.429 . S
C1798 C1790 1.574 . S
C1798 H1793 0.949 . S
C1798 C1804 1.368 . S
C1799 C1783 1.349 . S
C1799 H1791 0.950 . S
C1799 C1797 1.327 . S
C1800 C1788 1.349 . S
C1800 H1794 0.950 . S
C1800 C1801 1.327 . S
C1801 H1795 0.950 . S
C1801 C1800 1.327 . S
C1801 C1805 1.429 . S
C1802 C1785 1.574 . S
C1802 H1796 0.949 . S
C1802 C1806 1.368 . S
C1803 C1784 1.429 . S
C1803 C1797 1.429 . S
C1803 C1804 1.523 . S
C1804 C1785 1.368 . S
C1804 C1798 1.368 . S
C1804 C1803 1.523 . S
C1805 C1789 1.429 . S
C1805 C1801 1.429 . S
C1805 C1806 1.523 . S
C1806 C1790 1.368 . S
C1806 C1802 1.368 . S
C1806 C1805 1.523 . S
H1807 C1782 0.950 . S
H1808 C1784 0.950 . S
H1809 C1785 0.949 . S
H1810 C1787 0.950 . S
H1811 C1789 0.950 . S
C1812 C1813 1.349 . S
C1812 C1814 1.327 . S
C1812 H1837 0.950 . S
C1813 C1812 1.349 . S
C1813 C1829 1.349 . S
C1814 C1812 1.327 . S
C1814 C1833 1.429 . S
C1814 H1838 0.950 . S
C1815 C1832 1.574 . S
C1815 C1834 1.368 . S
C1815 H1839 0.949 . S
H1816 C1820 0.949 . S
C1817 C1818 1.349 . S
C1817 C1819 1.327 . S
C1817 H1840 0.950 . S
C1818 C1817 1.349 . S
C1818 C1830 1.349 . S
C1819 C1817 1.327 . S
C1819 C1835 1.429 . S
C1819 H1841 0.950 . S
C1820 H1816 0.949 . S
C1820 C1828 1.574 . S
C1820 C1836 1.368 . S
H1821 C1829 0.950 . S
H1822 C1827 0.950 . S
H1823 C1828 0.949 . S
H1824 C1830 0.950 . S
H1825 C1831 0.950 . S
H1826 C1832 0.949 . S
C1827 H1822 0.950 . S
C1827 C1829 1.327 . S
C1827 C1833 1.429 . S
C1828 C1820 1.574 . S
C1828 H1823 0.949 . S
C1828 C1834 1.368 . S
C1829 C1813 1.349 . S
C1829 H1821 0.950 . S
C1829 C1827 1.327 . S
C1830 C1818 1.349 . S
C1830 H1824 0.950 . S
C1830 C1831 1.327 . S
C1831 H1825 0.950 . S
C1831 C1830 1.327 . S
C1831 C1835 1.429 . S
C1832 C1815 1.574 . S
C1832 H1826 0.949 . S
C1832 C1836 1.368 . S
C1833 C1814 1.429 . S
C1833 C1827 1.429 . S
C1833 C1834 1.523 . S
C1834 C1815 1.368 . S
C1834 C1828 1.368 . S
C1834 C1833 1.523 . S
C1835 C1819 1.429 . S
C1835 C1831 1.429 . S
C1835 C1836 1.523 . S
C1836 C1820 1.368 . S
C1836 C1832 1.368 . S
C1836 C1835 1.523 . S
H1837 C1812 0.950 . S
H1838 C1814 0.950 . S
H1839 C1815 0.949 . S
H1840 C1817 0.950 . S
H1841 C1819 0.950 . S
C1842 C1843 1.349 . S
C1842 C1844 1.327 . S
C1842 H1867 0.950 . S
C1843 C1842 1.349 . S
C1843 C1859 1.349 . S
C1844 C1842 1.327 . S
C1844 C1863 1.429 . S
C1844 H1868 0.950 . S
C1845 C1862 1.574 . S
C1845 C1864 1.368 . S
C1845 H1869 0.949 1_554 S
H1846 C1850 0.949 . S
C1847 C1848 1.349 . S
C1847 C1849 1.327 . S
C1847 H1870 0.950 . S
C1848 C1847 1.349 . S
C1848 C1860 1.349 . S
C1849 C1847 1.327 . S
C1849 C1865 1.429 . S
C1849 H1871 0.950 . S
C1850 H1846 0.949 . S
C1850 C1858 1.574 . S
C1850 C1866 1.368 . S
H1851 C1859 0.950 . S
H1852 C1857 0.950 . S
H1853 C1858 0.949 . S
H1854 C1860 0.950 . S
H1855 C1861 0.950 . S
H1856 C1862 0.949 . S
C1857 H1852 0.950 . S
C1857 C1859 1.327 . S
C1857 C1863 1.429 . S
C1858 C1850 1.574 . S
C1858 H1853 0.949 . S
C1858 C1864 1.368 . S
C1859 C1843 1.349 . S
C1859 H1851 0.950 . S
C1859 C1857 1.327 . S
C1860 C1848 1.349 . S
C1860 H1854 0.950 . S
C1860 C1861 1.327 . S
C1861 H1855 0.950 . S
C1861 C1860 1.327 . S
C1861 C1865 1.429 . S
C1862 C1845 1.574 . S
C1862 H1856 0.949 . S
C1862 C1866 1.368 . S
C1863 C1844 1.429 . S
C1863 C1857 1.429 . S
C1863 C1864 1.523 1_556 S
C1864 C1845 1.368 . S
C1864 C1858 1.368 . S
C1864 C1863 1.523 1_554 S
C1865 C1849 1.429 . S
C1865 C1861 1.429 . S
C1865 C1866 1.523 . S
C1866 C1850 1.368 . S
C1866 C1862 1.368 . S
C1866 C1865 1.523 . S
H1867 C1842 0.950 . S
H1868 C1844 0.950 . S
H1869 C1845 0.949 1_556 S
H1870 C1847 0.950 . S
H1871 C1849 0.950 . S
C1872 C1873 1.349 . S
C1872 C1874 1.327 . S
C1872 H1897 0.950 . S
C1873 C1872 1.349 . S
C1873 C1889 1.349 . S
C1874 C1872 1.327 . S
C1874 C1893 1.429 . S
C1874 H1898 0.950 . S
C1875 C1892 1.574 . S
C1875 C1894 1.368 . S
C1875 H1899 0.949 . S
H1876 C1880 0.949 . S
C1877 C1878 1.349 . S
C1877 C1879 1.327 . S
C1877 H1900 0.950 . S
C1878 C1877 1.349 . S
C1878 C1890 1.349 . S
C1879 C1877 1.327 . S
C1879 C1895 1.429 . S
C1879 H1901 0.950 . S
C1880 H1876 0.949 . S
C1880 C1888 1.574 . S
C1880 C1896 1.368 . S
H1881 C1889 0.950 . S
H1882 C1887 0.950 . S
H1883 C1888 0.949 . S
H1884 C1890 0.950 . S
H1885 C1891 0.950 . S
H1886 C1892 0.949 . S
C1887 H1882 0.950 . S
C1887 C1889 1.327 . S
C1887 C1893 1.429 . S
C1888 C1880 1.574 . S
C1888 H1883 0.949 . S
C1888 C1894 1.368 . S
C1889 C1873 1.349 . S
C1889 H1881 0.950 . S
C1889 C1887 1.327 . S
C1890 C1878 1.349 . S
C1890 H1884 0.950 . S
C1890 C1891 1.327 . S
C1891 H1885 0.950 . S
C1891 C1890 1.327 . S
C1891 C1895 1.429 . S
C1892 C1875 1.574 . S
C1892 H1886 0.949 . S
C1892 C1896 1.368 . S
C1893 C1874 1.429 . S
C1893 C1887 1.429 . S
C1893 C1894 1.523 . S
C1894 C1875 1.368 . S
C1894 C1888 1.368 . S
C1894 C1893 1.523 . S
C1895 C1879 1.429 . S
C1895 C1891 1.429 . S
C1895 C1896 1.523 . S
C1896 C1880 1.368 . S
C1896 C1892 1.368 . S
C1896 C1895 1.523 . S
H1897 C1872 0.950 . S
H1898 C1874 0.950 . S
H1899 C1875 0.949 . S
H1900 C1877 0.950 . S
H1901 C1879 0.950 . S
C1902 C1903 1.349 . S
C1902 C1904 1.327 . S
C1902 H1927 0.950 . S
C1903 C1902 1.349 . S
C1903 C1919 1.349 . S
C1904 C1902 1.327 . S
C1904 C1923 1.429 . S
C1904 H1928 0.950 . S
C1905 C1922 1.574 . S
C1905 C1924 1.368 . S
C1905 H1929 0.949 . S
H1906 C1910 0.949 . S
C1907 C1908 1.349 . S
C1907 C1909 1.327 . S
C1907 H1930 0.950 . S
C1908 C1907 1.349 . S
C1908 C1920 1.349 . S
C1909 C1907 1.327 . S
C1909 C1925 1.429 . S
C1909 H1931 0.950 . S
C1910 H1906 0.949 . S
C1910 C1918 1.574 . S
C1910 C1926 1.368 . S
H1911 C1919 0.950 . S
H1912 C1917 0.950 . S
H1913 C1918 0.949 . S
H1914 C1920 0.950 . S
H1915 C1921 0.950 . S
H1916 C1922 0.949 . S
C1917 H1912 0.950 . S
C1917 C1919 1.327 . S
C1917 C1923 1.429 . S
C1918 C1910 1.574 . S
C1918 H1913 0.949 . S
C1918 C1924 1.368 . S
C1919 C1903 1.349 . S
C1919 H1911 0.950 . S
C1919 C1917 1.327 . S
C1920 C1908 1.349 . S
C1920 H1914 0.950 . S
C1920 C1921 1.327 . S
C1921 H1915 0.950 . S
C1921 C1920 1.327 . S
C1921 C1925 1.429 . S
C1922 C1905 1.574 . S
C1922 H1916 0.949 . S
C1922 C1926 1.368 . S
C1923 C1904 1.429 . S
C1923 C1917 1.429 . S
C1923 C1924 1.523 . S
C1924 C1905 1.368 . S
C1924 C1918 1.368 . S
C1924 C1923 1.523 . S
C1925 C1909 1.429 . S
C1925 C1921 1.429 . S
C1925 C1926 1.523 . S
C1926 C1910 1.368 . S
C1926 C1922 1.368 . S
C1926 C1925 1.523 . S
H1927 C1902 0.950 . S
H1928 C1904 0.950 . S
H1929 C1905 0.949 . S
H1930 C1907 0.950 . S
H1931 C1909 0.950 . S
C1932 C1933 1.349 . S
C1932 C1934 1.327 . S
C1932 H1957 0.950 . S
C1933 C1932 1.349 . S
C1933 C1949 1.349 . S
C1934 C1932 1.327 . S
C1934 C1953 1.429 . S
C1934 H1958 0.950 . S
C1935 C1952 1.574 . S
C1935 C1954 1.368 . S
C1935 H1959 0.949 . S
H1936 C1940 0.949 . S
C1937 C1938 1.349 . S
C1937 C1939 1.327 . S
C1937 H1960 0.950 . S
C1938 C1937 1.349 . S
C1938 C1950 1.349 . S
C1939 C1937 1.327 . S
C1939 C1955 1.429 . S
C1939 H1961 0.950 . S
C1940 H1936 0.949 . S
C1940 C1948 1.574 . S
C1940 C1956 1.368 . S
H1941 C1949 0.950 . S
H1942 C1947 0.950 . S
H1943 C1948 0.949 . S
H1944 C1950 0.950 . S
H1945 C1951 0.950 . S
H1946 C1952 0.949 . S
C1947 H1942 0.950 . S
C1947 C1949 1.327 . S
C1947 C1953 1.429 . S
C1948 C1940 1.574 . S
C1948 H1943 0.949 . S
C1948 C1954 1.368 . S
C1949 C1933 1.349 . S
C1949 H1941 0.950 . S
C1949 C1947 1.327 . S
C1950 C1938 1.349 . S
C1950 H1944 0.950 . S
C1950 C1951 1.327 . S
C1951 H1945 0.950 . S
C1951 C1950 1.327 . S
C1951 C1955 1.429 . S
C1952 C1935 1.574 . S
C1952 H1946 0.949 . S
C1952 C1956 1.368 . S
C1953 C1934 1.429 . S
C1953 C1947 1.429 . S
C1953 C1954 1.523 . S
C1954 C1935 1.368 . S
C1954 C1948 1.368 . S
C1954 C1953 1.523 . S
C1955 C1939 1.429 . S
C1955 C1951 1.429 . S
C1955 C1956 1.523 . S
C1956 C1940 1.368 . S
C1956 C1952 1.368 . S
C1956 C1955 1.523 . S
H1957 C1932 0.950 . S
H1958 C1934 0.950 . S
H1959 C1935 0.949 . S
H1960 C1937 0.950 . S
H1961 C1939 0.950 . S
C1962 C1963 1.349 . S
C1962 C1964 1.327 . S
C1962 H1987 0.950 . S
C1963 C1962 1.349 . S
C1963 C1979 1.349 . S
C1964 C1962 1.327 . S
C1964 C1983 1.429 . S
C1964 H1988 0.950 . S
C1965 C1982 1.574 . S
C1965 C1984 1.368 . S
C1965 H1989 0.949 . S
H1966 C1970 0.949 . S
C1967 C1968 1.349 . S
C1967 C1969 1.327 . S
C1967 H1990 0.950 . S
C1968 C1967 1.349 . S
C1968 C1980 1.349 . S
C1969 C1967 1.327 . S
C1969 C1985 1.429 . S
C1969 H1991 0.950 . S
C1970 H1966 0.949 . S
C1970 C1978 1.574 . S
C1970 C1986 1.368 . S
H1971 C1979 0.950 . S
H1972 C1977 0.950 . S
H1973 C1978 0.949 . S
H1974 C1980 0.950 . S
H1975 C1981 0.950 . S
H1976 C1982 0.949 . S
C1977 H1972 0.950 . S
C1977 C1979 1.327 . S
C1977 C1983 1.429 . S
C1978 C1970 1.574 . S
C1978 H1973 0.949 . S
C1978 C1984 1.368 . S
C1979 C1963 1.349 . S
C1979 H1971 0.950 . S
C1979 C1977 1.327 . S
C1980 C1968 1.349 . S
C1980 H1974 0.950 . S
C1980 C1981 1.327 . S
C1981 H1975 0.950 . S
C1981 C1980 1.327 . S
C1981 C1985 1.429 . S
C1982 C1965 1.574 . S
C1982 H1976 0.949 . S
C1982 C1986 1.368 . S
C1983 C1964 1.429 . S
C1983 C1977 1.429 . S
C1983 C1984 1.523 . S
C1984 C1965 1.368 . S
C1984 C1978 1.368 . S
C1984 C1983 1.523 . S
C1985 C1969 1.429 . S
C1985 C1981 1.429 . S
C1985 C1986 1.523 . S
C1986 C1970 1.368 . S
C1986 C1982 1.368 . S
C1986 C1985 1.523 . S
H1987 C1962 0.950 . S
H1988 C1964 0.950 . S
H1989 C1965 0.949 . S
H1990 C1967 0.950 . S
H1991 C1969 0.950 . S
C1992 C1993 1.349 . S
C1992 C1994 1.327 . S
C1992 H2017 0.950 . S
C1993 C1992 1.349 . S
C1993 C2009 1.349 . S
C1994 C1992 1.327 . S
C1994 C2013 1.429 . S
C1994 H2018 0.950 . S
C1995 C2012 1.574 . S
C1995 C2014 1.368 . S
C1995 H2019 0.949 . S
H1996 C2000 0.949 . S
C1997 C1998 1.349 . S
C1997 C1999 1.327 . S
C1997 H2020 0.950 . S
C1998 C1997 1.349 . S
C1998 C2010 1.349 . S
C1999 C1997 1.327 . S
C1999 C2015 1.429 . S
C1999 H2021 0.950 . S
C2000 H1996 0.949 . S
C2000 C2008 1.574 . S
C2000 C2016 1.368 . S
H2001 C2009 0.950 . S
H2002 C2007 0.950 . S
H2003 C2008 0.949 . S
H2004 C2010 0.950 . S
H2005 C2011 0.950 . S
H2006 C2012 0.949 . S
C2007 H2002 0.950 . S
C2007 C2009 1.327 . S
C2007 C2013 1.429 . S
C2008 C2000 1.574 . S
C2008 H2003 0.949 . S
C2008 C2014 1.368 . S
C2009 C1993 1.349 . S
C2009 H2001 0.950 . S
C2009 C2007 1.327 . S
C2010 C1998 1.349 . S
C2010 H2004 0.950 . S
C2010 C2011 1.327 . S
C2011 H2005 0.950 . S
C2011 C2010 1.327 . S
C2011 C2015 1.429 . S
C2012 C1995 1.574 . S
C2012 H2006 0.949 . S
C2012 C2016 1.368 . S
C2013 C1994 1.429 . S
C2013 C2007 1.429 . S
C2013 C2014 1.523 1_565 S
C2014 C1995 1.368 . S
C2014 C2008 1.368 . S
C2014 C2013 1.523 1_545 S
C2015 C1999 1.429 . S
C2015 C2011 1.429 . S
C2015 C2016 1.523 . S
C2016 C2000 1.368 . S
C2016 C2012 1.368 . S
C2016 C2015 1.523 . S
H2017 C1992 0.950 . S
H2018 C1994 0.950 . S
H2019 C1995 0.949 . S
H2020 C1997 0.950 . S
H2021 C1999 0.950 . S
C2022 C2023 1.349 . S
C2022 C2024 1.327 . S
C2022 H2047 0.950 . S
C2023 C2022 1.349 . S
C2023 C2039 1.349 . S
C2024 C2022 1.327 . S
C2024 C2043 1.429 . S
C2024 H2048 0.950 . S
C2025 C2042 1.574 . S
C2025 C2044 1.368 . S
C2025 H2049 0.949 . S
H2026 C2030 0.949 . S
C2027 C2028 1.349 . S
C2027 C2029 1.327 . S
C2027 H2050 0.950 . S
C2028 C2027 1.349 . S
C2028 C2040 1.349 . S
C2029 C2027 1.327 . S
C2029 C2045 1.429 . S
C2029 H2051 0.950 . S
C2030 H2026 0.949 . S
C2030 C2038 1.574 . S
C2030 C2046 1.368 . S
H2031 C2039 0.950 . S
H2032 C2037 0.950 . S
H2033 C2038 0.949 . S
H2034 C2040 0.950 . S
H2035 C2041 0.950 . S
H2036 C2042 0.949 . S
C2037 H2032 0.950 . S
C2037 C2039 1.327 . S
C2037 C2043 1.429 . S
C2038 C2030 1.574 . S
C2038 H2033 0.949 . S
C2038 C2044 1.368 . S
C2039 C2023 1.349 . S
C2039 H2031 0.950 . S
C2039 C2037 1.327 . S
C2040 C2028 1.349 . S
C2040 H2034 0.950 . S
C2040 C2041 1.327 . S
C2041 H2035 0.950 . S
C2041 C2040 1.327 . S
C2041 C2045 1.429 . S
C2042 C2025 1.574 . S
C2042 H2036 0.949 . S
C2042 C2046 1.368 . S
C2043 C2024 1.429 . S
C2043 C2037 1.429 . S
C2043 C2044 1.523 . S
C2044 C2025 1.368 . S
C2044 C2038 1.368 . S
C2044 C2043 1.523 . S
C2045 C2029 1.429 . S
C2045 C2041 1.429 . S
C2045 C2046 1.523 . S
C2046 C2030 1.368 . S
C2046 C2042 1.368 . S
C2046 C2045 1.523 . S
H2047 C2022 0.950 . S
H2048 C2024 0.950 . S
H2049 C2025 0.949 . S
H2050 C2027 0.950 . S
H2051 C2029 0.950 . S
C2052 C2053 1.349 . S
C2052 C2054 1.327 . S
C2052 H2077 0.950 . S
C2053 C2052 1.349 . S
C2053 C2069 1.349 . S
C2054 C2052 1.327 . S
C2054 C2073 1.429 . S
C2054 H2078 0.950 . S
C2055 C2072 1.574 . S
C2055 C2074 1.368 . S
C2055 H2079 0.949 . S
H2056 C2060 0.949 . S
C2057 C2058 1.349 . S
C2057 C2059 1.327 . S
C2057 H2080 0.950 . S
C2058 C2057 1.349 . S
C2058 C2070 1.349 . S
C2059 C2057 1.327 . S
C2059 C2075 1.429 . S
C2059 H2081 0.950 . S
C2060 H2056 0.949 . S
C2060 C2068 1.574 . S
C2060 C2076 1.368 . S
H2061 C2069 0.950 . S
H2062 C2067 0.950 . S
H2063 C2068 0.949 . S
H2064 C2070 0.950 . S
H2065 C2071 0.950 . S
H2066 C2072 0.949 . S
C2067 H2062 0.950 . S
C2067 C2069 1.327 . S
C2067 C2073 1.429 . S
C2068 C2060 1.574 . S
C2068 H2063 0.949 . S
C2068 C2074 1.368 . S
C2069 C2053 1.349 . S
C2069 H2061 0.950 . S
C2069 C2067 1.327 . S
C2070 C2058 1.349 . S
C2070 H2064 0.950 . S
C2070 C2071 1.327 . S
C2071 H2065 0.950 . S
C2071 C2070 1.327 . S
C2071 C2075 1.429 . S
C2072 C2055 1.574 . S
C2072 H2066 0.949 . S
C2072 C2076 1.368 . S
C2073 C2054 1.429 . S
C2073 C2067 1.429 . S
C2073 C2074 1.523 . S
C2074 C2055 1.368 . S
C2074 C2068 1.368 . S
C2074 C2073 1.523 . S
C2075 C2059 1.429 . S
C2075 C2071 1.429 . S
C2075 C2076 1.523 . S
C2076 C2060 1.368 . S
C2076 C2072 1.368 . S
C2076 C2075 1.523 . S
H2077 C2052 0.950 . S
H2078 C2054 0.950 . S
H2079 C2055 0.949 . S
H2080 C2057 0.950 . S
H2081 C2059 0.950 . S
C2082 C2083 1.349 . S
C2082 C2084 1.327 . S
C2082 H2107 0.950 . S
C2083 C2082 1.349 . S
C2083 C2099 1.349 . S
C2084 C2082 1.327 . S
C2084 C2103 1.429 . S
C2084 H2108 0.950 . S
C2085 C2102 1.574 . S
C2085 C2104 1.368 . S
C2085 H2109 0.949 . S
H2086 C2090 0.949 . S
C2087 C2088 1.349 . S
C2087 C2089 1.327 . S
C2087 H2110 0.950 . S
C2088 C2087 1.349 . S
C2088 C2100 1.349 . S
C2089 C2087 1.327 . S
C2089 C2105 1.429 . S
C2089 H2111 0.950 . S
C2090 H2086 0.949 . S
C2090 C2098 1.574 . S
C2090 C2106 1.368 . S
H2091 C2099 0.950 . S
H2092 C2097 0.950 . S
H2093 C2098 0.949 . S
H2094 C2100 0.950 . S
H2095 C2101 0.950 . S
H2096 C2102 0.949 . S
C2097 H2092 0.950 . S
C2097 C2099 1.327 . S
C2097 C2103 1.429 . S
C2098 C2090 1.574 . S
C2098 H2093 0.949 . S
C2098 C2104 1.368 . S
C2099 C2083 1.349 . S
C2099 H2091 0.950 . S
C2099 C2097 1.327 . S
C2100 C2088 1.349 . S
C2100 H2094 0.950 . S
C2100 C2101 1.327 . S
C2101 H2095 0.950 . S
C2101 C2100 1.327 . S
C2101 C2105 1.429 . S
C2102 C2085 1.574 . S
C2102 H2096 0.949 . S
C2102 C2106 1.368 . S
C2103 C2084 1.429 . S
C2103 C2097 1.429 . S
C2103 C2104 1.523 . S
C2104 C2085 1.368 . S
C2104 C2098 1.368 . S
C2104 C2103 1.523 . S
C2105 C2089 1.429 . S
C2105 C2101 1.429 . S
C2105 C2106 1.523 . S
C2106 C2090 1.368 . S
C2106 C2102 1.368 . S
C2106 C2105 1.523 . S
H2107 C2082 0.950 . S
H2108 C2084 0.950 . S
H2109 C2085 0.949 . S
H2110 C2087 0.950 . S
H2111 C2089 0.950 . S
C2112 C2113 1.349 . S
C2112 C2114 1.327 . S
C2112 H2137 0.950 . S
C2113 C2112 1.349 . S
C2113 C2129 1.349 . S
C2114 C2112 1.327 . S
C2114 C2133 1.429 . S
C2114 H2138 0.950 . S
C2115 C2132 1.574 . S
C2115 C2134 1.368 . S
C2115 H2139 0.949 . S
H2116 C2120 0.949 . S
C2117 C2118 1.349 . S
C2117 C2119 1.327 . S
C2117 H2140 0.950 . S
C2118 C2117 1.349 . S
C2118 C2130 1.349 . S
C2119 C2117 1.327 . S
C2119 C2135 1.429 . S
C2119 H2141 0.950 . S
C2120 H2116 0.949 . S
C2120 C2128 1.574 . S
C2120 C2136 1.368 . S
H2121 C2129 0.950 . S
H2122 C2127 0.950 . S
H2123 C2128 0.949 . S
H2124 C2130 0.950 . S
H2125 C2131 0.950 . S
H2126 C2132 0.949 . S
C2127 H2122 0.950 . S
C2127 C2129 1.327 . S
C2127 C2133 1.429 . S
C2128 C2120 1.574 . S
C2128 H2123 0.949 . S
C2128 C2134 1.368 . S
C2129 C2113 1.349 . S
C2129 H2121 0.950 . S
C2129 C2127 1.327 . S
C2130 C2118 1.349 . S
C2130 H2124 0.950 . S
C2130 C2131 1.327 . S
C2131 H2125 0.950 . S
C2131 C2130 1.327 . S
C2131 C2135 1.429 . S
C2132 C2115 1.574 . S
C2132 H2126 0.949 . S
C2132 C2136 1.368 . S
C2133 C2114 1.429 . S
C2133 C2127 1.429 . S
C2133 C2134 1.523 . S
C2134 C2115 1.368 . S
C2134 C2128 1.368 . S
C2134 C2133 1.523 . S
C2135 C2119 1.429 . S
C2135 C2131 1.429 . S
C2135 C2136 1.523 . S
C2136 C2120 1.368 . S
C2136 C2132 1.368 . S
C2136 C2135 1.523 . S
H2137 C2112 0.950 . S
H2138 C2114 0.950 . S
H2139 C2115 0.949 . S
H2140 C2117 0.950 . S
H2141 C2119 0.950 . S
C2142 C2143 1.349 . S
C2142 C2144 1.327 . S
C2142 H2167 0.950 . S
C2143 C2142 1.349 . S
C2143 C2159 1.349 . S
C2144 C2142 1.327 . S
C2144 C2163 1.429 . S
C2144 H2168 0.950 . S
C2145 C2162 1.574 . S
C2145 C2164 1.368 . S
C2145 H2169 0.949 . S
H2146 C2150 0.949 . S
C2147 C2148 1.349 . S
C2147 C2149 1.327 . S
C2147 H2170 0.950 . S
C2148 C2147 1.349 . S
C2148 C2160 1.349 . S
C2149 C2147 1.327 . S
C2149 C2165 1.429 . S
C2149 H2171 0.950 . S
C2150 H2146 0.949 . S
C2150 C2158 1.574 . S
C2150 C2166 1.368 . S
H2151 C2159 0.950 . S
H2152 C2157 0.950 . S
H2153 C2158 0.949 . S
H2154 C2160 0.950 . S
H2155 C2161 0.950 . S
H2156 C2162 0.949 . S
C2157 H2152 0.950 . S
C2157 C2159 1.327 . S
C2157 C2163 1.429 . S
C2158 C2150 1.574 . S
C2158 H2153 0.949 . S
C2158 C2164 1.368 . S
C2159 C2143 1.349 . S
C2159 H2151 0.950 . S
C2159 C2157 1.327 . S
C2160 C2148 1.349 . S
C2160 H2154 0.950 . S
C2160 C2161 1.327 . S
C2161 H2155 0.950 . S
C2161 C2160 1.327 . S
C2161 C2165 1.429 . S
C2162 C2145 1.574 . S
C2162 H2156 0.949 . S
C2162 C2166 1.368 . S
C2163 C2144 1.429 . S
C2163 C2157 1.429 . S
C2163 C2164 1.523 . S
C2164 C2145 1.368 . S
C2164 C2158 1.368 . S
C2164 C2163 1.523 . S
C2165 C2149 1.429 . S
C2165 C2161 1.429 . S
C2165 C2166 1.523 . S
C2166 C2150 1.368 . S
C2166 C2162 1.368 . S
C2166 C2165 1.523 . S
H2167 C2142 0.950 . S
H2168 C2144 0.950 . S
H2169 C2145 0.949 . S
H2170 C2147 0.950 . S
H2171 C2149 0.950 . S
C2172 C2173 1.349 . S
C2172 C2174 1.327 . S
C2172 H2197 0.950 . S
C2173 C2172 1.349 . S
C2173 C2189 1.349 . S
C2174 C2172 1.327 . S
C2174 C2193 1.429 . S
C2174 H2198 0.950 . S
C2175 C2192 1.574 . S
C2175 C2194 1.368 . S
C2175 H2199 0.949 . S
H2176 C2180 0.949 . S
C2177 C2178 1.349 . S
C2177 C2179 1.327 . S
C2177 H2200 0.950 . S
C2178 C2177 1.349 . S
C2178 C2190 1.349 . S
C2179 C2177 1.327 . S
C2179 C2195 1.429 . S
C2179 H2201 0.950 . S
C2180 H2176 0.949 . S
C2180 C2188 1.574 . S
C2180 C2196 1.368 . S
H2181 C2189 0.950 . S
H2182 C2187 0.950 . S
H2183 C2188 0.949 . S
H2184 C2190 0.950 . S
H2185 C2191 0.950 . S
H2186 C2192 0.949 . S
C2187 H2182 0.950 . S
C2187 C2189 1.327 . S
C2187 C2193 1.429 . S
C2188 C2180 1.574 . S
C2188 H2183 0.949 . S
C2188 C2194 1.368 . S
C2189 C2173 1.349 . S
C2189 H2181 0.950 . S
C2189 C2187 1.327 . S
C2190 C2178 1.349 . S
C2190 H2184 0.950 . S
C2190 C2191 1.327 . S
C2191 H2185 0.950 . S
C2191 C2190 1.327 . S
C2191 C2195 1.429 . S
C2192 C2175 1.574 . S
C2192 H2186 0.949 . S
C2192 C2196 1.368 . S
C2193 C2174 1.429 . S
C2193 C2187 1.429 . S
C2193 C2194 1.523 . S
C2194 C2175 1.368 . S
C2194 C2188 1.368 . S
C2194 C2193 1.523 . S
C2195 C2179 1.429 . S
C2195 C2191 1.429 . S
C2195 C2196 1.523 . S
C2196 C2180 1.368 . S
C2196 C2192 1.368 . S
C2196 C2195 1.523 . S
H2197 C2172 0.950 . S
H2198 C2174 0.950 . S
H2199 C2175 0.949 . S
H2200 C2177 0.950 . S
H2201 C2179 0.950 . S
C2202 C2203 1.349 . S
C2202 C2204 1.327 . S
C2202 H2227 0.950 . S
C2203 C2202 1.349 . S
C2203 C2219 1.349 . S
C2204 C2202 1.327 . S
C2204 C2223 1.429 . S
C2204 H2228 0.950 . S
C2205 C2222 1.574 . S
C2205 C2224 1.368 . S
C2205 H2229 0.949 . S
H2206 C2210 0.949 . S
C2207 C2208 1.349 . S
C2207 C2209 1.327 . S
C2207 H2230 0.950 . S
C2208 C2207 1.349 . S
C2208 C2220 1.349 . S
C2209 C2207 1.327 . S
C2209 C2225 1.429 . S
C2209 H2231 0.950 . S
C2210 H2206 0.949 . S
C2210 C2218 1.574 . S
C2210 C2226 1.368 . S
H2211 C2219 0.950 . S
H2212 C2217 0.950 . S
H2213 C2218 0.949 . S
H2214 C2220 0.950 . S
H2215 C2221 0.950 . S
H2216 C2222 0.949 . S
C2217 H2212 0.950 . S
C2217 C2219 1.327 . S
C2217 C2223 1.429 . S
C2218 C2210 1.574 . S
C2218 H2213 0.949 . S
C2218 C2224 1.368 . S
C2219 C2203 1.349 . S
C2219 H2211 0.950 . S
C2219 C2217 1.327 . S
C2220 C2208 1.349 . S
C2220 H2214 0.950 . S
C2220 C2221 1.327 . S
C2221 H2215 0.950 . S
C2221 C2220 1.327 . S
C2221 C2225 1.429 . S
C2222 C2205 1.574 . S
C2222 H2216 0.949 . S
C2222 C2226 1.368 . S
C2223 C2204 1.429 . S
C2223 C2217 1.429 . S
C2223 C2224 1.523 1_655 S
C2224 C2205 1.368 . S
C2224 C2218 1.368 . S
C2224 C2223 1.523 1_455 S
C2225 C2209 1.429 . S
C2225 C2221 1.429 . S
C2225 C2226 1.523 . S
C2226 C2210 1.368 . S
C2226 C2222 1.368 . S
C2226 C2225 1.523 . S
H2227 C2202 0.950 . S
H2228 C2204 0.950 . S
H2229 C2205 0.949 . S
H2230 C2207 0.950 . S
H2231 C2209 0.950 . S
C2232 C2233 1.349 . S
C2232 C2234 1.327 . S
C2232 H2257 0.950 . S
C2233 C2232 1.349 . S
C2233 C2249 1.349 . S
C2234 C2232 1.327 . S
C2234 C2253 1.429 . S
C2234 H2258 0.950 . S
C2235 C2252 1.574 . S
C2235 C2254 1.368 . S
C2235 H2259 0.949 . S
H2236 C2240 0.949 . S
C2237 C2238 1.349 . S
C2237 C2239 1.327 . S
C2237 H2260 0.950 . S
C2238 C2237 1.349 . S
C2238 C2250 1.349 . S
C2239 C2237 1.327 . S
C2239 C2255 1.429 . S
C2239 H2261 0.950 . S
C2240 H2236 0.949 . S
C2240 C2248 1.574 . S
C2240 C2256 1.368 . S
H2241 C2249 0.950 . S
H2242 C2247 0.950 . S
H2243 C2248 0.949 . S
H2244 C2250 0.950 . S
H2245 C2251 0.950 . S
H2246 C2252 0.949 . S
C2247 H2242 0.950 . S
C2247 C2249 1.327 . S
C2247 C2253 1.429 . S
C2248 C2240 1.574 . S
C2248 H2243 0.949 . S
C2248 C2254 1.368 . S
C2249 C2233 1.349 . S
C2249 H2241 0.950 . S
C2249 C2247 1.327 . S
C2250 C2238 1.349 . S
C2250 H2244 0.950 . S
C2250 C2251 1.327 . S
C2251 H2245 0.950 . S
C2251 C2250 1.327 . S
C2251 C2255 1.429 . S
C2252 C2235 1.574 . S
C2252 H2246 0.949 . S
C2252 C2256 1.368 . S
C2253 C2234 1.429 . S
C2253 C2247 1.429 . S
C2253 C2254 1.523 . S
C2254 C2235 1.368 . S
C2254 C2248 1.368 . S
C2254 C2253 1.523 . S
C2255 C2239 1.429 . S
C2255 C2251 1.429 . S
C2255 C2256 1.523 . S
C2256 C2240 1.368 . S
C2256 C2252 1.368 . S
C2256 C2255 1.523 . S
H2257 C2232 0.950 . S
H2258 C2234 0.950 . S
H2259 C2235 0.949 . S
H2260 C2237 0.950 . S
H2261 C2239 0.950 . S
C2262 C2263 1.349 . S
C2262 C2264 1.327 . S
C2262 H2287 0.950 . S
C2263 C2262 1.349 . S
C2263 C2279 1.349 . S
C2264 C2262 1.327 . S
C2264 C2283 1.429 . S
C2264 H2288 0.950 . S
C2265 C2282 1.606 . S
C2265 C2284 1.368 . S
C2265 H2289 0.949 . S
H2266 C2270 0.949 . S
C2267 C2268 1.349 . S
C2267 C2269 1.327 . S
C2267 H2290 0.950 . S
C2268 C2267 1.349 . S
C2268 C2280 1.349 . S
C2269 C2267 1.327 . S
C2269 C2285 1.429 . S
C2269 H2291 0.950 . S
C2270 H2266 0.949 . S
C2270 C2278 1.574 . S
C2270 C2286 1.368 1_455 S
H2271 C2279 0.950 . S
H2272 C2277 0.950 . S
H2273 C2278 0.949 . S
H2274 C2280 0.950 . S
H2275 C2281 0.950 . S
H2276 C2282 0.926 1_655 S
C2277 H2272 0.950 . S
C2277 C2279 1.327 . S
C2277 C2283 1.429 . S
C2278 C2270 1.574 . S
C2278 H2273 0.949 . S
C2278 C2284 1.368 . S
C2279 C2263 1.349 . S
C2279 H2271 0.950 . S
C2279 C2277 1.327 . S
C2280 C2268 1.349 . S
C2280 H2274 0.950 . S
C2280 C2281 1.327 . S
C2281 H2275 0.950 . S
C2281 C2280 1.327 . S
C2281 C2285 1.429 . S
C2282 C2265 1.606 . S
C2282 H2276 0.926 1_455 S
C2282 C2286 1.363 1_455 S
C2283 C2264 1.429 . S
C2283 C2277 1.429 . S
C2283 C2284 1.523 . S
C2284 C2265 1.368 . S
C2284 C2278 1.368 . S
C2284 C2283 1.523 . S
C2285 C2269 1.429 . S
C2285 C2281 1.429 . S
C2285 C2286 1.523 . S
C2286 C2270 1.368 1_655 S
C2286 C2282 1.363 1_655 S
C2286 C2285 1.523 . S
H2287 C2262 0.950 . S
H2288 C2264 0.950 . S
H2289 C2265 0.949 . S
H2290 C2267 0.950 . S
H2291 C2269 0.950 . S
C2292 C2293 1.349 . S
C2292 C2294 1.327 . S
C2292 H2317 0.950 . S
C2293 C2292 1.349 . S
C2293 C2309 1.349 . S
C2294 C2292 1.327 . S
C2294 C2313 1.429 . S
C2294 H2318 0.950 . S
C2295 C2312 1.574 . S
C2295 C2314 1.368 . S
C2295 H2319 0.949 . S
H2296 C2300 0.949 . S
C2297 C2298 1.349 . S
C2297 C2299 1.327 . S
C2297 H2320 0.950 . S
C2298 C2297 1.349 . S
C2298 C2310 1.349 . S
C2299 C2297 1.327 . S
C2299 C2315 1.429 . S
C2299 H2321 0.950 . S
C2300 H2296 0.949 . S
C2300 C2308 1.574 . S
C2300 C2316 1.368 . S
H2301 C2309 0.950 . S
H2302 C2307 0.950 . S
H2303 C2308 0.949 . S
H2304 C2310 0.950 . S
H2305 C2311 0.950 . S
H2306 C2312 0.949 . S
C2307 H2302 0.950 . S
C2307 C2309 1.327 . S
C2307 C2313 1.429 . S
C2308 C2300 1.574 . S
C2308 H2303 0.949 . S
C2308 C2314 1.368 . S
C2309 C2293 1.349 . S
C2309 H2301 0.950 . S
C2309 C2307 1.327 . S
C2310 C2298 1.349 . S
C2310 H2304 0.950 . S
C2310 C2311 1.327 . S
C2311 H2305 0.950 . S
C2311 C2310 1.327 . S
C2311 C2315 1.429 . S
C2312 C2295 1.574 . S
C2312 H2306 0.949 . S
C2312 C2316 1.368 . S
C2313 C2294 1.429 . S
C2313 C2307 1.429 . S
C2313 C2314 1.523 . S
C2314 C2295 1.368 . S
C2314 C2308 1.368 . S
C2314 C2313 1.523 . S
C2315 C2299 1.429 . S
C2315 C2311 1.429 . S
C2315 C2316 1.523 . S
C2316 C2300 1.368 . S
C2316 C2312 1.368 . S
C2316 C2315 1.523 . S
H2317 C2292 0.950 . S
H2318 C2294 0.950 . S
H2319 C2295 0.949 . S
H2320 C2297 0.950 . S
H2321 C2299 0.950 . S
C2322 C2323 1.349 . S
C2322 C2324 1.327 . S
C2322 H2347 0.950 . S
C2323 C2322 1.349 . S
C2323 C2339 1.349 . S
C2324 C2322 1.327 . S
C2324 C2343 1.429 . S
C2324 H2348 0.950 . S
C2325 C2342 1.574 . S
C2325 C2344 1.368 . S
C2325 H2349 0.949 . S
H2326 C2330 0.949 . S
C2327 C2328 1.349 . S
C2327 C2329 1.327 . S
C2327 H2350 0.950 . S
C2328 C2327 1.349 . S
C2328 C2340 1.349 . S
C2329 C2327 1.327 . S
C2329 C2345 1.429 . S
C2329 H2351 0.950 . S
C2330 H2326 0.949 . S
C2330 C2338 1.574 . S
C2330 C2346 1.368 . S
H2331 C2339 0.950 . S
H2332 C2337 0.950 . S
H2333 C2338 0.949 . S
H2334 C2340 0.950 . S
H2335 C2341 0.950 . S
H2336 C2342 0.949 . S
C2337 H2332 0.950 . S
C2337 C2339 1.327 . S
C2337 C2343 1.429 . S
C2338 C2330 1.574 . S
C2338 H2333 0.949 . S
C2338 C2344 1.368 . S
C2339 C2323 1.349 . S
C2339 H2331 0.950 . S
C2339 C2337 1.327 . S
C2340 C2328 1.349 . S
C2340 H2334 0.950 . S
C2340 C2341 1.327 . S
C2341 H2335 0.950 . S
C2341 C2340 1.327 . S
C2341 C2345 1.429 . S
C2342 C2325 1.574 . S
C2342 H2336 0.949 . S
C2342 C2346 1.368 . S
C2343 C2324 1.429 . S
C2343 C2337 1.429 . S
C2343 C2344 1.523 . S
C2344 C2325 1.368 . S
C2344 C2338 1.368 . S
C2344 C2343 1.523 . S
C2345 C2329 1.429 . S
C2345 C2341 1.429 . S
C2345 C2346 1.523 . S
C2346 C2330 1.368 . S
C2346 C2342 1.368 . S
C2346 C2345 1.523 . S
H2347 C2322 0.950 . S
H2348 C2324 0.950 . S
H2349 C2325 0.949 . S
H2350 C2327 0.950 . S
H2351 C2329 0.950 . S
C2352 C2353 1.349 . S
C2352 C2354 1.327 . S
C2352 H2377 0.950 . S
C2353 C2352 1.349 . S
C2353 C2369 1.349 . S
C2354 C2352 1.327 . S
C2354 C2373 1.429 . S
C2354 H2378 0.950 . S
C2355 C2372 1.574 . S
C2355 C2374 1.368 . S
C2355 H2379 0.949 . S
H2356 C2360 0.949 . S
C2357 C2358 1.349 . S
C2357 C2359 1.327 . S
C2357 H2380 0.950 . S
C2358 C2357 1.349 . S
C2358 C2370 1.349 . S
C2359 C2357 1.327 . S
C2359 C2375 1.429 . S
C2359 H2381 0.950 . S
C2360 H2356 0.949 . S
C2360 C2368 1.574 . S
C2360 C2376 1.368 . S
H2361 C2369 0.950 . S
H2362 C2367 0.950 . S
H2363 C2368 0.949 . S
H2364 C2370 0.950 . S
H2365 C2371 0.950 . S
H2366 C2372 0.949 . S
C2367 H2362 0.950 . S
C2367 C2369 1.327 . S
C2367 C2373 1.429 . S
C2368 C2360 1.574 . S
C2368 H2363 0.949 . S
C2368 C2374 1.368 . S
C2369 C2353 1.349 . S
C2369 H2361 0.950 . S
C2369 C2367 1.327 . S
C2370 C2358 1.349 . S
C2370 H2364 0.950 . S
C2370 C2371 1.327 . S
C2371 H2365 0.950 . S
C2371 C2370 1.327 . S
C2371 C2375 1.429 . S
C2372 C2355 1.574 . S
C2372 H2366 0.949 . S
C2372 C2376 1.368 . S
C2373 C2354 1.429 . S
C2373 C2367 1.429 . S
C2373 C2374 1.523 . S
C2374 C2355 1.368 . S
C2374 C2368 1.368 . S
C2374 C2373 1.523 . S
C2375 C2359 1.429 . S
C2375 C2371 1.429 . S
C2375 C2376 1.523 . S
C2376 C2360 1.368 . S
C2376 C2372 1.368 . S
C2376 C2375 1.523 . S
H2377 C2352 0.950 . S
H2378 C2354 0.950 . S
H2379 C2355 0.949 . S
H2380 C2357 0.950 . S
H2381 C2359 0.950 . S
C2382 C2383 1.349 . S
C2382 C2384 1.327 . S
C2382 H2407 0.950 . S
C2383 C2382 1.349 . S
C2383 C2399 1.349 . S
C2384 C2382 1.327 . S
C2384 C2403 1.429 . S
C2384 H2408 0.950 . S
C2385 C2402 1.574 . S
C2385 C2404 1.368 . S
C2385 H2409 0.949 . S
H2386 C2390 0.949 . S
C2387 C2388 1.349 . S
C2387 C2389 1.327 . S
C2387 H2410 0.950 . S
C2388 C2387 1.349 . S
C2388 C2400 1.349 . S
C2389 C2387 1.327 . S
C2389 C2405 1.429 . S
C2389 H2411 0.950 . S
C2390 H2386 0.949 . S
C2390 C2398 1.574 . S
C2390 C2406 1.368 . S
H2391 C2399 0.950 . S
H2392 C2397 0.950 . S
H2393 C2398 0.949 . S
H2394 C2400 0.950 . S
H2395 C2401 0.950 . S
H2396 C2402 0.949 . S
C2397 H2392 0.950 . S
C2397 C2399 1.327 . S
C2397 C2403 1.429 . S
C2398 C2390 1.574 . S
C2398 H2393 0.949 . S
C2398 C2404 1.368 . S
C2399 C2383 1.349 . S
C2399 H2391 0.950 . S
C2399 C2397 1.327 . S
C2400 C2388 1.349 . S
C2400 H2394 0.950 . S
C2400 C2401 1.327 . S
C2401 H2395 0.950 . S
C2401 C2400 1.327 . S
C2401 C2405 1.429 . S
C2402 C2385 1.574 . S
C2402 H2396 0.949 . S
C2402 C2406 1.368 . S
C2403 C2384 1.429 . S
C2403 C2397 1.429 . S
C2403 C2404 1.523 . S
C2404 C2385 1.368 . S
C2404 C2398 1.368 . S
C2404 C2403 1.523 . S
C2405 C2389 1.429 . S
C2405 C2401 1.429 . S
C2405 C2406 1.523 1_556 S
C2406 C2390 1.368 . S
C2406 C2402 1.368 . S
C2406 C2405 1.523 1_554 S
H2407 C2382 0.950 . S
H2408 C2384 0.950 . S
H2409 C2385 0.949 . S
H2410 C2387 0.950 . S
H2411 C2389 0.950 . S
C2412 C2413 1.349 . S
C2412 C2414 1.327 . S
C2412 H2437 0.950 . S
C2413 C2412 1.349 . S
C2413 C2429 1.349 . S
C2414 C2412 1.327 . S
C2414 C2433 1.429 . S
C2414 H2438 0.950 . S
C2415 C2432 1.574 . S
C2415 C2434 1.368 . S
C2415 H2439 0.949 . S
H2416 C2420 0.949 . S
C2417 C2418 1.349 . S
C2417 C2419 1.327 . S
C2417 H2440 0.950 . S
C2418 C2417 1.349 . S
C2418 C2430 1.349 . S
C2419 C2417 1.327 . S
C2419 C2435 1.429 . S
C2419 H2441 0.950 . S
C2420 H2416 0.949 . S
C2420 C2428 1.574 . S
C2420 C2436 1.368 . S
H2421 C2429 0.950 . S
H2422 C2427 0.950 . S
H2423 C2428 0.949 . S
H2424 C2430 0.950 . S
H2425 C2431 0.950 . S
H2426 C2432 0.949 . S
C2427 H2422 0.950 . S
C2427 C2429 1.327 . S
C2427 C2433 1.429 . S
C2428 C2420 1.574 . S
C2428 H2423 0.949 . S
C2428 C2434 1.368 . S
C2429 C2413 1.349 . S
C2429 H2421 0.950 . S
C2429 C2427 1.327 . S
C2430 C2418 1.349 . S
C2430 H2424 0.950 . S
C2430 C2431 1.327 . S
C2431 H2425 0.950 . S
C2431 C2430 1.327 . S
C2431 C2435 1.429 . S
C2432 C2415 1.574 . S
C2432 H2426 0.949 . S
C2432 C2436 1.368 . S
C2433 C2414 1.429 . S
C2433 C2427 1.429 . S
C2433 C2434 1.523 . S
C2434 C2415 1.368 . S
C2434 C2428 1.368 . S
C2434 C2433 1.523 . S
C2435 C2419 1.429 . S
C2435 C2431 1.429 . S
C2435 C2436 1.523 . S
C2436 C2420 1.368 . S
C2436 C2432 1.368 . S
C2436 C2435 1.523 . S
H2437 C2412 0.950 . S
H2438 C2414 0.950 . S
H2439 C2415 0.949 . S
H2440 C2417 0.950 . S
H2441 C2419 0.950 . S
C2442 C2443 1.349 . S
C2442 C2444 1.327 . S
C2442 H2467 0.950 . S
C2443 C2442 1.349 . S
C2443 C2459 1.349 . S
C2444 C2442 1.327 . S
C2444 C2463 1.429 . S
C2444 H2468 0.950 . S
C2445 C2462 1.574 . S
C2445 C2464 1.368 . S
C2445 H2469 0.949 . S
H2446 C2450 0.949 . S
C2447 C2448 1.349 . S
C2447 C2449 1.327 . S
C2447 H2470 0.950 . S
C2448 C2447 1.349 . S
C2448 C2460 1.349 . S
C2449 C2447 1.327 . S
C2449 C2465 1.429 . S
C2449 H2471 0.950 . S
C2450 H2446 0.949 . S
C2450 C2458 1.574 . S
C2450 C2466 1.368 . S
H2451 C2459 0.950 . S
H2452 C2457 0.950 . S
H2453 C2458 0.949 . S
H2454 C2460 0.950 . S
H2455 C2461 0.950 . S
H2456 C2462 0.949 . S
C2457 H2452 0.950 . S
C2457 C2459 1.327 . S
C2457 C2463 1.429 . S
C2458 C2450 1.574 . S
C2458 H2453 0.949 . S
C2458 C2464 1.368 . S
C2459 C2443 1.349 . S
C2459 H2451 0.950 . S
C2459 C2457 1.327 . S
C2460 C2448 1.349 . S
C2460 H2454 0.950 . S
C2460 C2461 1.327 . S
C2461 H2455 0.950 . S
C2461 C2460 1.327 . S
C2461 C2465 1.429 . S
C2462 C2445 1.574 . S
C2462 H2456 0.949 . S
C2462 C2466 1.368 . S
C2463 C2444 1.429 . S
C2463 C2457 1.429 . S
C2463 C2464 1.523 . S
C2464 C2445 1.368 . S
C2464 C2458 1.368 . S
C2464 C2463 1.523 . S
C2465 C2449 1.429 . S
C2465 C2461 1.429 . S
C2465 C2466 1.523 . S
C2466 C2450 1.368 . S
C2466 C2462 1.368 . S
C2466 C2465 1.523 . S
H2467 C2442 0.950 . S
H2468 C2444 0.950 . S
H2469 C2445 0.949 . S
H2470 C2447 0.950 . S
H2471 C2449 0.950 . S
C2472 C2473 1.349 . S
C2472 C2474 1.327 . S
C2472 H2497 0.950 . S
C2473 C2472 1.349 . S
C2473 C2489 1.349 . S
C2474 C2472 1.327 . S
C2474 C2493 1.429 . S
C2474 H2498 0.950 . S
C2475 C2492 1.574 . S
C2475 C2494 1.368 . S
C2475 H2499 0.949 . S
H2476 C2480 0.949 . S
C2477 C2478 1.349 . S
C2477 C2479 1.327 . S
C2477 H2500 0.950 . S
C2478 C2477 1.349 . S
C2478 C2490 1.349 . S
C2479 C2477 1.327 . S
C2479 C2495 1.429 . S
C2479 H2501 0.950 . S
C2480 H2476 0.949 . S
C2480 C2488 1.574 . S
C2480 C2496 1.368 . S
H2481 C2489 0.950 . S
H2482 C2487 0.950 . S
H2483 C2488 0.949 . S
H2484 C2490 0.950 . S
H2485 C2491 0.950 . S
H2486 C2492 0.949 . S
C2487 H2482 0.950 . S
C2487 C2489 1.327 . S
C2487 C2493 1.429 . S
C2488 C2480 1.574 . S
C2488 H2483 0.949 . S
C2488 C2494 1.368 . S
C2489 C2473 1.349 . S
C2489 H2481 0.950 . S
C2489 C2487 1.327 . S
C2490 C2478 1.349 . S
C2490 H2484 0.950 . S
C2490 C2491 1.327 . S
C2491 H2485 0.950 . S
C2491 C2490 1.327 . S
C2491 C2495 1.429 . S
C2492 C2475 1.574 . S
C2492 H2486 0.949 . S
C2492 C2496 1.368 . S
C2493 C2474 1.429 . S
C2493 C2487 1.429 . S
C2493 C2494 1.523 . S
C2494 C2475 1.368 . S
C2494 C2488 1.368 . S
C2494 C2493 1.523 . S
C2495 C2479 1.429 . S
C2495 C2491 1.429 . S
C2495 C2496 1.523 . S
C2496 C2480 1.368 . S
C2496 C2492 1.368 . S
C2496 C2495 1.523 . S
H2497 C2472 0.950 . S
H2498 C2474 0.950 . S
H2499 C2475 0.949 . S
H2500 C2477 0.950 . S
H2501 C2479 0.950 . S
C2502 C2503 1.349 . S
C2502 C2504 1.327 . S
C2502 H2527 0.950 . S
C2503 C2502 1.349 . S
C2503 C2519 1.349 . S
C2504 C2502 1.327 . S
C2504 C2523 1.429 . S
C2504 H2528 0.950 . S
C2505 C2522 1.574 . S
C2505 C2524 1.368 . S
C2505 H2529 0.949 . S
H2506 C2510 0.949 . S
C2507 C2508 1.349 . S
C2507 C2509 1.327 . S
C2507 H2530 0.950 . S
C2508 C2507 1.349 . S
C2508 C2520 1.349 . S
C2509 C2507 1.327 . S
C2509 C2525 1.429 . S
C2509 H2531 0.950 . S
C2510 H2506 0.949 . S
C2510 C2518 1.574 . S
C2510 C2526 1.368 . S
H2511 C2519 0.950 . S
H2512 C2517 0.950 . S
H2513 C2518 0.949 . S
H2514 C2520 0.950 . S
H2515 C2521 0.950 . S
H2516 C2522 0.949 . S
C2517 H2512 0.950 . S
C2517 C2519 1.327 . S
C2517 C2523 1.429 . S
C2518 C2510 1.574 . S
C2518 H2513 0.949 . S
C2518 C2524 1.368 . S
C2519 C2503 1.349 . S
C2519 H2511 0.950 . S
C2519 C2517 1.327 . S
C2520 C2508 1.349 . S
C2520 H2514 0.950 . S
C2520 C2521 1.327 . S
C2521 H2515 0.950 . S
C2521 C2520 1.327 . S
C2521 C2525 1.429 . S
C2522 C2505 1.574 . S
C2522 H2516 0.949 . S
C2522 C2526 1.368 . S
C2523 C2504 1.429 . S
C2523 C2517 1.429 . S
C2523 C2524 1.523 . S
C2524 C2505 1.368 . S
C2524 C2518 1.368 . S
C2524 C2523 1.523 . S
C2525 C2509 1.429 . S
C2525 C2521 1.429 . S
C2525 C2526 1.523 1_554 S
C2526 C2510 1.368 . S
C2526 C2522 1.368 . S
C2526 C2525 1.523 1_556 S
H2527 C2502 0.950 . S
H2528 C2504 0.950 . S
H2529 C2505 0.949 . S
H2530 C2507 0.950 . S
H2531 C2509 0.950 . S
C2532 C2533 1.349 . S
C2532 C2534 1.327 . S
C2532 H2557 0.950 . S
C2533 C2532 1.349 . S
C2533 C2549 1.349 . S
C2534 C2532 1.327 . S
C2534 C2553 1.429 . S
C2534 H2558 0.950 . S
C2535 C2552 1.574 . S
C2535 C2554 1.368 . S
C2535 H2559 0.949 . S
H2536 C2540 0.949 . S
C2537 C2538 1.349 . S
C2537 C2539 1.327 . S
C2537 H2560 0.950 . S
C2538 C2537 1.349 . S
C2538 C2550 1.349 . S
C2539 C2537 1.327 . S
C2539 C2555 1.429 . S
C2539 H2561 0.950 . S
C2540 H2536 0.949 . S
C2540 C2548 1.574 . S
C2540 C2556 1.368 . S
H2541 C2549 0.950 . S
H2542 C2547 0.950 . S
H2543 C2548 0.949 . S
H2544 C2550 0.950 . S
H2545 C2551 0.950 . S
H2546 C2552 0.949 . S
C2547 H2542 0.950 . S
C2547 C2549 1.327 . S
C2547 C2553 1.429 . S
C2548 C2540 1.574 . S
C2548 H2543 0.949 . S
C2548 C2554 1.368 . S
C2549 C2533 1.349 . S
C2549 H2541 0.950 . S
C2549 C2547 1.327 . S
C2550 C2538 1.349 . S
C2550 H2544 0.950 . S
C2550 C2551 1.327 . S
C2551 H2545 0.950 . S
C2551 C2550 1.327 . S
C2551 C2555 1.429 . S
C2552 C2535 1.574 . S
C2552 H2546 0.949 . S
C2552 C2556 1.368 . S
C2553 C2534 1.429 . S
C2553 C2547 1.429 . S
C2553 C2554 1.523 . S
C2554 C2535 1.368 . S
C2554 C2548 1.368 . S
C2554 C2553 1.523 . S
C2555 C2539 1.429 . S
C2555 C2551 1.429 . S
C2555 C2556 1.523 . S
C2556 C2540 1.368 . S
C2556 C2552 1.368 . S
C2556 C2555 1.523 . S
H2557 C2532 0.950 . S
H2558 C2534 0.950 . S
H2559 C2535 0.949 . S
H2560 C2537 0.950 . S
H2561 C2539 0.950 . S
C2562 C2563 1.349 . S
C2562 C2564 1.327 . S
C2562 H2587 0.950 . S
C2563 C2562 1.349 . S
C2563 C2579 1.349 . S
C2564 C2562 1.327 . S
C2564 C2583 1.429 . S
C2564 H2588 0.950 . S
C2565 C2582 1.574 . S
C2565 C2584 1.368 . S
C2565 H2589 0.949 . S
H2566 C2570 0.949 . S
C2567 C2568 1.349 . S
C2567 C2569 1.327 . S
C2567 H2590 0.950 . S
C2568 C2567 1.349 . S
C2568 C2580 1.349 . S
C2569 C2567 1.327 . S
C2569 C2585 1.429 . S
C2569 H2591 0.950 . S
C2570 H2566 0.949 . S
C2570 C2578 1.574 . S
C2570 C2586 1.368 . S
H2571 C2579 0.950 . S
H2572 C2577 0.950 . S
H2573 C2578 0.949 . S
H2574 C2580 0.950 . S
H2575 C2581 0.950 . S
H2576 C2582 0.949 . S
C2577 H2572 0.950 . S
C2577 C2579 1.327 . S
C2577 C2583 1.429 . S
C2578 C2570 1.574 . S
C2578 H2573 0.949 . S
C2578 C2584 1.368 . S
C2579 C2563 1.349 . S
C2579 H2571 0.950 . S
C2579 C2577 1.327 . S
C2580 C2568 1.349 . S
C2580 H2574 0.950 . S
C2580 C2581 1.327 . S
C2581 H2575 0.950 . S
C2581 C2580 1.327 . S
C2581 C2585 1.429 . S
C2582 C2565 1.574 . S
C2582 H2576 0.949 . S
C2582 C2586 1.368 . S
C2583 C2564 1.429 . S
C2583 C2577 1.429 . S
C2583 C2584 1.523 . S
C2584 C2565 1.368 . S
C2584 C2578 1.368 . S
C2584 C2583 1.523 . S
C2585 C2569 1.429 . S
C2585 C2581 1.429 . S
C2585 C2586 1.523 . S
C2586 C2570 1.368 . S
C2586 C2582 1.368 . S
C2586 C2585 1.523 . S
H2587 C2562 0.950 . S
H2588 C2564 0.950 . S
H2589 C2565 0.949 . S
H2590 C2567 0.950 . S
H2591 C2569 0.950 . S
C2592 C2593 1.349 . S
C2592 C2594 1.327 . S
C2592 H2617 0.950 . S
C2593 C2592 1.349 . S
C2593 C2609 1.349 . S
C2594 C2592 1.327 . S
C2594 C2613 1.429 . S
C2594 H2618 0.950 . S
C2595 C2612 1.574 . S
C2595 C2614 1.368 . S
C2595 H2619 0.949 . S
H2596 C2600 0.949 . S
C2597 C2598 1.349 . S
C2597 C2599 1.327 . S
C2597 H2620 0.950 . S
C2598 C2597 1.349 . S
C2598 C2610 1.349 . S
C2599 C2597 1.327 . S
C2599 C2615 1.429 . S
C2599 H2621 0.950 . S
C2600 H2596 0.949 . S
C2600 C2608 1.574 . S
C2600 C2616 1.368 . S
H2601 C2609 0.950 . S
H2602 C2607 0.950 . S
H2603 C2608 0.949 . S
H2604 C2610 0.950 . S
H2605 C2611 0.950 . S
H2606 C2612 0.949 . S
C2607 H2602 0.950 . S
C2607 C2609 1.327 . S
C2607 C2613 1.429 . S
C2608 C2600 1.574 . S
C2608 H2603 0.949 . S
C2608 C2614 1.368 . S
C2609 C2593 1.349 . S
C2609 H2601 0.950 . S
C2609 C2607 1.327 . S
C2610 C2598 1.349 . S
C2610 H2604 0.950 . S
C2610 C2611 1.327 . S
C2611 H2605 0.950 . S
C2611 C2610 1.327 . S
C2611 C2615 1.429 . S
C2612 C2595 1.574 . S
C2612 H2606 0.949 . S
C2612 C2616 1.368 . S
C2613 C2594 1.429 . S
C2613 C2607 1.429 . S
C2613 C2614 1.523 . S
C2614 C2595 1.368 . S
C2614 C2608 1.368 . S
C2614 C2613 1.523 . S
C2615 C2599 1.429 . S
C2615 C2611 1.429 . S
C2615 C2616 1.523 . S
C2616 C2600 1.368 . S
C2616 C2612 1.368 . S
C2616 C2615 1.523 . S
H2617 C2592 0.950 . S
H2618 C2594 0.950 . S
H2619 C2595 0.949 . S
H2620 C2597 0.950 . S
H2621 C2599 0.950 . S
C2622 C2623 1.349 . S
C2622 C2624 1.327 . S
C2622 H2647 0.950 . S
C2623 C2622 1.349 . S
C2623 C2639 1.349 . S
C2624 C2622 1.327 . S
C2624 C2643 1.429 . S
C2624 H2648 0.950 . S
C2625 C2642 1.574 . S
C2625 C2644 1.368 . S
C2625 H2649 0.949 . S
H2626 C2630 0.949 . S
C2627 C2628 1.349 . S
C2627 C2629 1.327 . S
C2627 H2650 0.950 . S
C2628 C2627 1.349 . S
C2628 C2640 1.349 . S
C2629 C2627 1.327 . S
C2629 C2645 1.429 . S
C2629 H2651 0.950 . S
C2630 H2626 0.949 . S
C2630 C2638 1.574 . S
C2630 C2646 1.368 . S
H2631 C2639 0.950 . S
H2632 C2637 0.950 . S
H2633 C2638 0.949 . S
H2634 C2640 0.950 . S
H2635 C2641 0.950 . S
H2636 C2642 0.949 . S
C2637 H2632 0.950 . S
C2637 C2639 1.327 . S
C2637 C2643 1.429 . S
C2638 C2630 1.574 . S
C2638 H2633 0.949 . S
C2638 C2644 1.368 . S
C2639 C2623 1.349 . S
C2639 H2631 0.950 . S
C2639 C2637 1.327 . S
C2640 C2628 1.349 . S
C2640 H2634 0.950 . S
C2640 C2641 1.327 . S
C2641 H2635 0.950 . S
C2641 C2640 1.327 . S
C2641 C2645 1.429 . S
C2642 C2625 1.574 . S
C2642 H2636 0.949 . S
C2642 C2646 1.368 . S
C2643 C2624 1.429 . S
C2643 C2637 1.429 . S
C2643 C2644 1.523 . S
C2644 C2625 1.368 . S
C2644 C2638 1.368 . S
C2644 C2643 1.523 . S
C2645 C2629 1.429 . S
C2645 C2641 1.429 . S
C2645 C2646 1.523 . S
C2646 C2630 1.368 . S
C2646 C2642 1.368 . S
C2646 C2645 1.523 . S
H2647 C2622 0.950 . S
H2648 C2624 0.950 . S
H2649 C2625 0.949 . S
H2650 C2627 0.950 . S
H2651 C2629 0.950 . S
C2652 C2653 1.349 . S
C2652 C2654 1.327 . S
C2652 H2677 0.950 . S
C2653 C2652 1.349 . S
C2653 C2669 1.349 . S
C2654 C2652 1.327 . S
C2654 C2673 1.429 . S
C2654 H2678 0.950 . S
C2655 C2672 1.574 . S
C2655 C2674 1.368 . S
C2655 H2679 0.949 . S
H2656 C2660 0.949 . S
C2657 C2658 1.349 . S
C2657 C2659 1.327 . S
C2657 H2680 0.950 . S
C2658 C2657 1.349 . S
C2658 C2670 1.349 . S
C2659 C2657 1.327 . S
C2659 C2675 1.429 . S
C2659 H2681 0.950 . S
C2660 H2656 0.949 . S
C2660 C2668 1.574 . S
C2660 C2676 1.369 1_545 S
H2661 C2669 0.950 . S
H2662 C2667 0.950 . S
H2663 C2668 0.949 . S
H2664 C2670 0.950 . S
H2665 C2671 0.950 . S
H2666 C2672 0.949 1_565 S
C2667 H2662 0.950 . S
C2667 C2669 1.327 . S
C2667 C2673 1.429 . S
C2668 C2660 1.574 . S
C2668 H2663 0.949 . S
C2668 C2674 1.368 . S
C2669 C2653 1.349 . S
C2669 H2661 0.950 . S
C2669 C2667 1.327 . S
C2670 C2658 1.349 . S
C2670 H2664 0.950 . S
C2670 C2671 1.327 . S
C2671 H2665 0.950 . S
C2671 C2670 1.327 . S
C2671 C2675 1.429 . S
C2672 C2655 1.574 . S
C2672 H2666 0.949 1_545 S
C2672 C2676 1.369 1_545 S
C2673 C2654 1.429 . S
C2673 C2667 1.429 . S
C2673 C2674 1.523 . S
C2674 C2655 1.368 . S
C2674 C2668 1.368 . S
C2674 C2673 1.523 . S
C2675 C2659 1.429 . S
C2675 C2671 1.429 . S
C2675 C2676 1.522 . S
C2676 C2660 1.369 1_565 S
C2676 C2672 1.369 1_565 S
C2676 C2675 1.522 . S
H2677 C2652 0.950 . S
H2678 C2654 0.950 . S
H2679 C2655 0.949 . S
H2680 C2657 0.950 . S
H2681 C2659 0.950 . S
C2682 C2683 1.349 . S
C2682 C2684 1.327 . S
C2682 H2707 0.950 . S
C2683 C2682 1.349 . S
C2683 C2699 1.349 . S
C2684 C2682 1.327 . S
C2684 C2703 1.429 . S
C2684 H2708 0.950 . S
C2685 C2702 1.574 . S
C2685 C2704 1.368 . S
C2685 H2709 0.949 . S
H2686 C2690 0.949 . S
C2687 C2688 1.349 . S
C2687 C2689 1.327 . S
C2687 H2710 0.950 . S
C2688 C2687 1.349 . S
C2688 C2700 1.349 . S
C2689 C2687 1.327 . S
C2689 C2705 1.429 . S
C2689 H2711 0.950 . S
C2690 H2686 0.949 . S
C2690 C2698 1.574 . S
C2690 C2706 1.368 . S
H2691 C2699 0.950 . S
H2692 C2697 0.950 . S
H2693 C2698 0.949 . S
H2694 C2700 0.950 . S
H2695 C2701 0.950 . S
H2696 C2702 0.949 . S
C2697 H2692 0.950 . S
C2697 C2699 1.327 . S
C2697 C2703 1.429 . S
C2698 C2690 1.574 . S
C2698 H2693 0.949 . S
C2698 C2704 1.368 . S
C2699 C2683 1.349 . S
C2699 H2691 0.950 . S
C2699 C2697 1.327 . S
C2700 C2688 1.349 . S
C2700 H2694 0.950 . S
C2700 C2701 1.327 . S
C2701 H2695 0.950 . S
C2701 C2700 1.327 . S
C2701 C2705 1.429 . S
C2702 C2685 1.574 . S
C2702 H2696 0.949 . S
C2702 C2706 1.368 . S
C2703 C2684 1.429 . S
C2703 C2697 1.429 . S
C2703 C2704 1.523 . S
C2704 C2685 1.368 . S
C2704 C2698 1.368 . S
C2704 C2703 1.523 . S
C2705 C2689 1.429 . S
C2705 C2701 1.429 . S
C2705 C2706 1.523 . S
C2706 C2690 1.368 . S
C2706 C2702 1.368 . S
C2706 C2705 1.523 . S
H2707 C2682 0.950 . S
H2708 C2684 0.950 . S
H2709 C2685 0.949 . S
H2710 C2687 0.950 . S
H2711 C2689 0.950 . S
C2712 C2713 1.349 . S
C2712 C2714 1.327 . S
C2712 H2737 0.950 . S
C2713 C2712 1.349 . S
C2713 C2729 1.349 . S
C2714 C2712 1.327 . S
C2714 C2733 1.429 . S
C2714 H2738 0.950 . S
C2715 C2732 1.574 . S
C2715 C2734 1.368 . S
C2715 H2739 0.949 . S
H2716 C2720 0.949 . S
C2717 C2718 1.349 . S
C2717 C2719 1.327 . S
C2717 H2740 0.950 . S
C2718 C2717 1.349 . S
C2718 C2730 1.349 . S
C2719 C2717 1.327 . S
C2719 C2735 1.429 . S
C2719 H2741 0.950 . S
C2720 H2716 0.949 . S
C2720 C2728 1.574 . S
C2720 C2736 1.368 . S
H2721 C2729 0.950 . S
H2722 C2727 0.950 . S
H2723 C2728 0.949 . S
H2724 C2730 0.950 . S
H2725 C2731 0.950 . S
H2726 C2732 0.949 . S
C2727 H2722 0.950 . S
C2727 C2729 1.327 . S
C2727 C2733 1.429 . S
C2728 C2720 1.574 . S
C2728 H2723 0.949 . S
C2728 C2734 1.368 . S
C2729 C2713 1.349 . S
C2729 H2721 0.950 . S
C2729 C2727 1.327 . S
C2730 C2718 1.349 . S
C2730 H2724 0.950 . S
C2730 C2731 1.327 . S
C2731 H2725 0.950 . S
C2731 C2730 1.327 . S
C2731 C2735 1.429 . S
C2732 C2715 1.574 . S
C2732 H2726 0.949 . S
C2732 C2736 1.368 . S
C2733 C2714 1.429 . S
C2733 C2727 1.429 . S
C2733 C2734 1.523 . S
C2734 C2715 1.368 . S
C2734 C2728 1.368 . S
C2734 C2733 1.523 . S
C2735 C2719 1.429 . S
C2735 C2731 1.429 . S
C2735 C2736 1.523 . S
C2736 C2720 1.368 . S
C2736 C2732 1.368 . S
C2736 C2735 1.523 . S
H2737 C2712 0.950 . S
H2738 C2714 0.950 . S
H2739 C2715 0.949 . S
H2740 C2717 0.950 . S
H2741 C2719 0.950 . S
C2742 C2743 1.349 . S
C2742 C2744 1.327 . S
C2742 H2767 0.950 . S
C2743 C2742 1.349 . S
C2743 C2759 1.349 . S
C2744 C2742 1.327 . S
C2744 C2763 1.429 . S
C2744 H2768 0.950 . S
C2745 C2762 1.574 . S
C2745 C2764 1.368 . S
C2745 H2769 0.949 . S
H2746 C2750 0.949 . S
C2747 C2748 1.349 . S
C2747 C2749 1.327 . S
C2747 H2770 0.950 . S
C2748 C2747 1.349 . S
C2748 C2760 1.349 . S
C2749 C2747 1.327 . S
C2749 C2765 1.429 . S
C2749 H2771 0.950 . S
C2750 H2746 0.949 . S
C2750 C2758 1.574 . S
C2750 C2766 1.368 . S
H2751 C2759 0.950 . S
H2752 C2757 0.950 . S
H2753 C2758 0.949 . S
H2754 C2760 0.950 . S
H2755 C2761 0.950 . S
H2756 C2762 0.949 . S
C2757 H2752 0.950 . S
C2757 C2759 1.327 . S
C2757 C2763 1.429 . S
C2758 C2750 1.574 . S
C2758 H2753 0.949 . S
C2758 C2764 1.368 . S
C2759 C2743 1.349 . S
C2759 H2751 0.950 . S
C2759 C2757 1.327 . S
C2760 C2748 1.349 . S
C2760 H2754 0.950 . S
C2760 C2761 1.327 . S
C2761 H2755 0.950 . S
C2761 C2760 1.327 . S
C2761 C2765 1.429 . S
C2762 C2745 1.574 . S
C2762 H2756 0.949 . S
C2762 C2766 1.368 . S
C2763 C2744 1.429 . S
C2763 C2757 1.429 . S
C2763 C2764 1.523 . S
C2764 C2745 1.368 . S
C2764 C2758 1.368 . S
C2764 C2763 1.523 . S
C2765 C2749 1.429 . S
C2765 C2761 1.429 . S
C2765 C2766 1.523 . S
C2766 C2750 1.368 . S
C2766 C2762 1.368 . S
C2766 C2765 1.523 . S
H2767 C2742 0.950 . S
H2768 C2744 0.950 . S
H2769 C2745 0.949 . S
H2770 C2747 0.950 . S
H2771 C2749 0.950 . S
C2772 C2773 1.349 . S
C2772 C2774 1.327 . S
C2772 H2797 0.950 . S
C2773 C2772 1.349 . S
C2773 C2789 1.349 . S
C2774 C2772 1.327 . S
C2774 C2793 1.429 . S
C2774 H2798 0.950 . S
C2775 C2792 1.574 1_545 S
C2775 C2794 1.368 . S
C2775 H2799 0.949 . S
H2776 C2780 0.949 . S
C2777 C2778 1.349 . S
C2777 C2779 1.327 . S
C2777 H2800 0.950 . S
C2778 C2777 1.349 . S
C2778 C2790 1.349 . S
C2779 C2777 1.327 . S
C2779 C2795 1.429 . S
C2779 H2801 0.950 . S
C2780 H2776 0.949 . S
C2780 C2788 1.626 . S
C2780 C2796 1.368 . S
H2781 C2789 0.950 . S
H2782 C2787 0.950 . S
H2783 C2788 0.926 1_545 S
H2784 C2790 0.950 . S
H2785 C2791 0.950 . S
H2786 C2792 0.949 . S
C2787 H2782 0.950 . S
C2787 C2789 1.327 . S
C2787 C2793 1.429 . S
C2788 C2780 1.626 . S
C2788 H2783 0.926 1_565 S
C2788 C2794 1.344 1_565 S
C2789 C2773 1.349 . S
C2789 H2781 0.950 . S
C2789 C2787 1.327 . S
C2790 C2778 1.349 . S
C2790 H2784 0.950 . S
C2790 C2791 1.327 . S
C2791 H2785 0.950 . S
C2791 C2790 1.327 . S
C2791 C2795 1.429 . S
C2792 C2775 1.574 1_565 S
C2792 H2786 0.949 . S
C2792 C2796 1.368 . S
C2793 C2774 1.429 . S
C2793 C2787 1.429 . S
C2793 C2794 1.523 . S
C2794 C2775 1.368 . S
C2794 C2788 1.344 1_545 S
C2794 C2793 1.523 . S
C2795 C2779 1.429 . S
C2795 C2791 1.429 . S
C2795 C2796 1.523 . S
C2796 C2780 1.368 . S
C2796 C2792 1.368 . S
C2796 C2795 1.523 . S
H2797 C2772 0.950 . S
H2798 C2774 0.950 . S
H2799 C2775 0.949 . S
H2800 C2777 0.950 . S
H2801 C2779 0.950 . S
C2802 C2803 1.349 . S
C2802 C2804 1.327 . S
C2802 H2827 0.950 . S
C2803 C2802 1.349 . S
C2803 C2819 1.349 . S
C2804 C2802 1.327 . S
C2804 C2823 1.429 . S
C2804 H2828 0.950 . S
C2805 C2822 1.574 1_545 S
C2805 C2824 1.368 . S
C2805 H2829 0.949 . S
H2806 C2810 0.955 . S
C2807 C2808 1.349 . S
C2807 C2809 1.327 . S
C2807 H2830 0.950 . S
C2808 C2807 1.349 . S
C2808 C2820 1.349 . S
C2809 C2807 1.327 . S
C2809 C2825 1.429 . S
C2809 H2831 0.950 . S
C2810 H2806 0.955 . S
C2810 C2818 1.574 . S
C2810 C2826 1.368 1_545 S
H2811 C2819 0.950 . S
H2812 C2817 0.950 . S
H2813 C2818 0.949 . S
H2814 C2820 0.950 . S
H2815 C2821 0.950 . S
H2816 C2822 0.949 . S
C2817 H2812 0.950 . S
C2817 C2819 1.327 . S
C2817 C2823 1.429 . S
C2818 C2810 1.574 . S
C2818 H2813 0.949 . S
C2818 C2824 1.368 . S
C2819 C2803 1.349 . S
C2819 H2811 0.950 . S
C2819 C2817 1.327 . S
C2820 C2808 1.349 . S
C2820 H2814 0.950 . S
C2820 C2821 1.327 . S
C2821 H2815 0.950 . S
C2821 C2820 1.327 . S
C2821 C2825 1.429 . S
C2822 C2805 1.574 1_565 S
C2822 H2816 0.949 . S
C2822 C2826 1.368 . S
C2823 C2804 1.429 . S
C2823 C2817 1.429 . S
C2823 C2824 1.523 . S
C2824 C2805 1.368 . S
C2824 C2818 1.368 . S
C2824 C2823 1.523 . S
C2825 C2809 1.429 . S
C2825 C2821 1.429 . S
C2825 C2826 1.523 . S
C2826 C2810 1.368 1_565 S
C2826 C2822 1.368 . S
C2826 C2825 1.523 . S
H2827 C2802 0.950 . S
H2828 C2804 0.950 . S
H2829 C2805 0.949 . S
H2830 C2807 0.950 . S
H2831 C2809 0.950 . S
C2832 C2833 1.349 . S
C2832 C2834 1.327 . S
C2832 H2857 0.950 . S
C2833 C2832 1.349 . S
C2833 C2849 1.349 . S
C2834 C2832 1.327 . S
C2834 C2853 1.429 . S
C2834 H2858 0.950 . S
C2835 C2852 1.574 . S
C2835 C2854 1.368 . S
C2835 H2859 0.949 . S
H2836 C2840 0.949 . S
C2837 C2838 1.349 . S
C2837 C2839 1.327 . S
C2837 H2860 0.950 . S
C2838 C2837 1.349 . S
C2838 C2850 1.349 . S
C2839 C2837 1.327 . S
C2839 C2855 1.429 . S
C2839 H2861 0.950 . S
C2840 H2836 0.949 . S
C2840 C2848 1.574 . S
C2840 C2856 1.368 . S
H2841 C2849 0.950 . S
H2842 C2847 0.950 . S
H2843 C2848 0.949 . S
H2844 C2850 0.950 . S
H2845 C2851 0.950 . S
H2846 C2852 0.949 . S
C2847 H2842 0.950 . S
C2847 C2849 1.327 . S
C2847 C2853 1.429 . S
C2848 C2840 1.574 . S
C2848 H2843 0.949 . S
C2848 C2854 1.368 . S
C2849 C2833 1.349 . S
C2849 H2841 0.950 . S
C2849 C2847 1.327 . S
C2850 C2838 1.349 . S
C2850 H2844 0.950 . S
C2850 C2851 1.327 . S
C2851 H2845 0.950 . S
C2851 C2850 1.327 . S
C2851 C2855 1.429 . S
C2852 C2835 1.574 . S
C2852 H2846 0.949 . S
C2852 C2856 1.368 . S
C2853 C2834 1.429 . S
C2853 C2847 1.429 . S
C2853 C2854 1.523 . S
C2854 C2835 1.368 . S
C2854 C2848 1.368 . S
C2854 C2853 1.523 . S
C2855 C2839 1.429 . S
C2855 C2851 1.429 . S
C2855 C2856 1.523 . S
C2856 C2840 1.368 . S
C2856 C2852 1.368 . S
C2856 C2855 1.523 . S
H2857 C2832 0.950 . S
H2858 C2834 0.950 . S
H2859 C2835 0.949 . S
H2860 C2837 0.950 . S
H2861 C2839 0.950 . S
C2862 C2863 1.349 . S
C2862 C2864 1.327 . S
C2862 H2887 0.950 . S
C2863 C2862 1.349 . S
C2863 C2879 1.349 . S
C2864 C2862 1.327 . S
C2864 C2883 1.429 . S
C2864 H2888 0.950 . S
C2865 C2882 1.574 . S
C2865 C2884 1.368 . S
C2865 H2889 0.949 . S
H2866 C2870 0.949 . S
C2867 C2868 1.349 . S
C2867 C2869 1.327 . S
C2867 H2890 0.950 . S
C2868 C2867 1.349 . S
C2868 C2880 1.349 . S
C2869 C2867 1.327 . S
C2869 C2885 1.429 . S
C2869 H2891 0.950 . S
C2870 H2866 0.949 . S
C2870 C2878 1.574 . S
C2870 C2886 1.368 . S
H2871 C2879 0.950 . S
H2872 C2877 0.950 . S
H2873 C2878 0.949 . S
H2874 C2880 0.950 . S
H2875 C2881 0.950 . S
H2876 C2882 0.949 . S
C2877 H2872 0.950 . S
C2877 C2879 1.327 . S
C2877 C2883 1.429 . S
C2878 C2870 1.574 . S
C2878 H2873 0.949 . S
C2878 C2884 1.368 . S
C2879 C2863 1.349 . S
C2879 H2871 0.950 . S
C2879 C2877 1.327 . S
C2880 C2868 1.349 . S
C2880 H2874 0.950 . S
C2880 C2881 1.327 . S
C2881 H2875 0.950 . S
C2881 C2880 1.327 . S
C2881 C2885 1.429 . S
C2882 C2865 1.574 . S
C2882 H2876 0.949 . S
C2882 C2886 1.368 . S
C2883 C2864 1.429 . S
C2883 C2877 1.429 . S
C2883 C2884 1.523 . S
C2884 C2865 1.368 . S
C2884 C2878 1.368 . S
C2884 C2883 1.523 . S
C2885 C2869 1.429 . S
C2885 C2881 1.429 . S
C2885 C2886 1.523 . S
C2886 C2870 1.368 . S
C2886 C2882 1.368 . S
C2886 C2885 1.523 . S
H2887 C2862 0.950 . S
H2888 C2864 0.950 . S
H2889 C2865 0.949 . S
H2890 C2867 0.950 . S
H2891 C2869 0.950 . S
C2892 C2893 1.349 . S
C2892 C2894 1.327 . S
C2892 H2917 0.950 . S
C2893 C2892 1.349 . S
C2893 C2909 1.349 . S
C2894 C2892 1.327 . S
C2894 C2913 1.429 . S
C2894 H2918 0.950 . S
C2895 C2912 1.574 . S
C2895 C2914 1.368 . S
C2895 H2919 0.949 . S
H2896 C2900 0.949 . S
C2897 C2898 1.349 . S
C2897 C2899 1.327 . S
C2897 H2920 0.950 . S
C2898 C2897 1.349 . S
C2898 C2910 1.349 . S
C2899 C2897 1.327 . S
C2899 C2915 1.429 . S
C2899 H2921 0.950 . S
C2900 H2896 0.949 . S
C2900 C2908 1.574 . S
C2900 C2916 1.368 . S
H2901 C2909 0.950 . S
H2902 C2907 0.950 . S
H2903 C2908 0.949 . S
H2904 C2910 0.950 . S
H2905 C2911 0.950 . S
H2906 C2912 0.949 . S
C2907 H2902 0.950 . S
C2907 C2909 1.327 . S
C2907 C2913 1.429 . S
C2908 C2900 1.574 . S
C2908 H2903 0.949 . S
C2908 C2914 1.368 . S
C2909 C2893 1.349 . S
C2909 H2901 0.950 . S
C2909 C2907 1.327 . S
C2910 C2898 1.349 . S
C2910 H2904 0.950 . S
C2910 C2911 1.327 . S
C2911 H2905 0.950 . S
C2911 C2910 1.327 . S
C2911 C2915 1.429 . S
C2912 C2895 1.574 . S
C2912 H2906 0.949 . S
C2912 C2916 1.368 . S
C2913 C2894 1.429 . S
C2913 C2907 1.429 . S
C2913 C2914 1.523 . S
C2914 C2895 1.368 . S
C2914 C2908 1.368 . S
C2914 C2913 1.523 . S
C2915 C2899 1.429 . S
C2915 C2911 1.429 . S
C2915 C2916 1.523 . S
C2916 C2900 1.368 . S
C2916 C2912 1.368 . S
C2916 C2915 1.523 . S
H2917 C2892 0.950 . S
H2918 C2894 0.950 . S
H2919 C2895 0.949 . S
H2920 C2897 0.950 . S
H2921 C2899 0.950 . S
C2922 C2923 1.349 . S
C2922 C2924 1.327 . S
C2922 H2947 0.950 . S
C2923 C2922 1.349 . S
C2923 C2939 1.349 . S
C2924 C2922 1.327 . S
C2924 C2943 1.429 . S
C2924 H2948 0.963 . S
C2925 C2942 1.574 . S
C2925 C2944 1.368 . S
C2925 H2949 0.949 . S
H2926 C2930 0.949 . S
C2927 C2928 1.349 . S
C2927 C2929 1.327 . S
C2927 H2950 0.950 . S
C2928 C2927 1.349 . S
C2928 C2940 1.349 . S
C2929 C2927 1.327 . S
C2929 C2945 1.429 . S
C2929 H2951 0.950 . S
C2930 H2926 0.949 . S
C2930 C2938 1.574 . S
C2930 C2946 1.368 . S
H2931 C2939 0.950 . S
H2932 C2937 0.950 . S
H2933 C2938 0.949 . S
H2934 C2940 0.950 . S
H2935 C2941 0.950 . S
H2936 C2942 0.949 . S
C2937 H2932 0.950 . S
C2937 C2939 1.327 . S
C2937 C2943 1.429 . S
C2938 C2930 1.574 . S
C2938 H2933 0.949 . S
C2938 C2944 1.368 . S
C2939 C2923 1.349 . S
C2939 H2931 0.950 . S
C2939 C2937 1.327 . S
C2940 C2928 1.349 . S
C2940 H2934 0.950 . S
C2940 C2941 1.327 . S
C2941 H2935 0.950 . S
C2941 C2940 1.327 . S
C2941 C2945 1.429 . S
C2942 C2925 1.574 . S
C2942 H2936 0.949 . S
C2942 C2946 1.368 . S
C2943 C2924 1.429 . S
C2943 C2937 1.429 . S
C2943 C2944 1.523 1_455 S
C2944 C2925 1.368 . S
C2944 C2938 1.368 . S
C2944 C2943 1.523 1_655 S
C2945 C2929 1.429 . S
C2945 C2941 1.429 . S
C2945 C2946 1.523 . S
C2946 C2930 1.368 . S
C2946 C2942 1.368 . S
C2946 C2945 1.523 . S
H2947 C2922 0.950 . S
H2948 C2924 0.963 . S
H2949 C2925 0.949 . S
H2950 C2927 0.950 . S
H2951 C2929 0.950 . S
C2952 C2953 1.349 . S
C2952 C2954 1.327 . S
C2952 H2977 0.950 . S
C2953 C2952 1.349 . S
C2953 C2969 1.349 . S
C2954 C2952 1.327 . S
C2954 C2973 1.429 . S
C2954 H2978 0.950 . S
C2955 C2972 1.574 . S
C2955 C2974 1.368 . S
C2955 H2979 0.949 . S
H2956 C2960 0.949 . S
C2957 C2958 1.349 . S
C2957 C2959 1.327 . S
C2957 H2980 0.950 . S
C2958 C2957 1.349 . S
C2958 C2970 1.349 . S
C2959 C2957 1.327 . S
C2959 C2975 1.429 . S
C2959 H2981 0.950 . S
C2960 H2956 0.949 . S
C2960 C2968 1.574 . S
C2960 C2976 1.368 . S
H2961 C2969 0.950 . S
H2962 C2967 0.950 . S
H2963 C2968 0.949 . S
H2964 C2970 0.950 . S
H2965 C2971 0.950 . S
H2966 C2972 0.949 . S
C2967 H2962 0.950 . S
C2967 C2969 1.327 . S
C2967 C2973 1.429 . S
C2968 C2960 1.574 . S
C2968 H2963 0.949 . S
C2968 C2974 1.368 . S
C2969 C2953 1.349 . S
C2969 H2961 0.950 . S
C2969 C2967 1.327 . S
C2970 C2958 1.349 . S
C2970 H2964 0.950 . S
C2970 C2971 1.327 . S
C2971 H2965 0.950 . S
C2971 C2970 1.327 . S
C2971 C2975 1.429 . S
C2972 C2955 1.574 . S
C2972 H2966 0.949 . S
C2972 C2976 1.368 . S
C2973 C2954 1.429 . S
C2973 C2967 1.429 . S
C2973 C2974 1.523 . S
C2974 C2955 1.368 . S
C2974 C2968 1.368 . S
C2974 C2973 1.523 . S
C2975 C2959 1.429 . S
C2975 C2971 1.429 . S
C2975 C2976 1.523 . S
C2976 C2960 1.368 . S
C2976 C2972 1.368 . S
C2976 C2975 1.523 . S
H2977 C2952 0.950 . S
H2978 C2954 0.950 . S
H2979 C2955 0.949 . S
H2980 C2957 0.950 . S
H2981 C2959 0.950 . S
C2982 C2983 1.349 . S
C2982 C2984 1.327 . S
C2982 H3007 0.950 . S
C2983 C2982 1.349 . S
C2983 C2999 1.349 . S
C2984 C2982 1.327 . S
C2984 C3003 1.429 . S
C2984 H3008 0.950 . S
C2985 C3002 1.574 . S
C2985 C3004 1.368 . S
C2985 H3009 0.949 1_655 S
H2986 C2990 0.949 . S
C2987 C2988 1.349 . S
C2987 C2989 1.327 . S
C2987 H3010 0.950 . S
C2988 C2987 1.349 . S
C2988 C3000 1.349 . S
C2989 C2987 1.327 . S
C2989 C3005 1.429 . S
C2989 H3011 0.950 . S
C2990 H2986 0.949 . S
C2990 C2998 1.574 . S
C2990 C3006 1.368 . S
H2991 C2999 0.950 . S
H2992 C2997 0.950 . S
H2993 C2998 0.949 . S
H2994 C3000 0.950 . S
H2995 C3001 0.950 . S
H2996 C3002 0.949 . S
C2997 H2992 0.950 . S
C2997 C2999 1.327 . S
C2997 C3003 1.429 . S
C2998 C2990 1.574 . S
C2998 H2993 0.949 . S
C2998 C3004 1.368 . S
C2999 C2983 1.349 . S
C2999 H2991 0.950 . S
C2999 C2997 1.327 . S
C3000 C2988 1.349 . S
C3000 H2994 0.950 . S
C3000 C3001 1.327 . S
C3001 H2995 0.950 . S
C3001 C3000 1.327 . S
C3001 C3005 1.429 . S
C3002 C2985 1.574 . S
C3002 H2996 0.949 . S
C3002 C3006 1.368 . S
C3003 C2984 1.429 . S
C3003 C2997 1.429 . S
C3003 C3004 1.523 1_455 S
C3004 C2985 1.368 . S
C3004 C2998 1.368 . S
C3004 C3003 1.523 1_655 S
C3005 C2989 1.429 . S
C3005 C3001 1.429 . S
C3005 C3006 1.523 . S
C3006 C2990 1.368 . S
C3006 C3002 1.368 . S
C3006 C3005 1.523 . S
H3007 C2982 0.950 . S
H3008 C2984 0.950 . S
H3009 C2985 0.949 1_455 S
H3010 C2987 0.950 . S
H3011 C2989 0.950 . S
C3012 C3013 1.349 . S
C3012 C3014 1.327 . S
C3012 H3037 0.950 . S
C3013 C3012 1.349 . S
C3013 C3029 1.349 . S
C3014 C3012 1.327 . S
C3014 C3033 1.429 . S
C3014 H3038 0.950 . S
C3015 C3032 1.574 . S
C3015 C3034 1.368 . S
C3015 H3039 0.949 . S
H3016 C3020 0.949 . S
C3017 C3018 1.349 . S
C3017 C3019 1.327 . S
C3017 H3040 0.950 . S
C3018 C3017 1.349 . S
C3018 C3030 1.349 . S
C3019 C3017 1.327 . S
C3019 C3035 1.429 . S
C3019 H3041 0.950 . S
C3020 H3016 0.949 . S
C3020 C3028 1.574 . S
C3020 C3036 1.368 . S
H3021 C3029 0.950 . S
H3022 C3027 0.950 . S
H3023 C3028 0.949 . S
H3024 C3030 0.950 . S
H3025 C3031 0.950 . S
H3026 C3032 0.949 . S
C3027 H3022 0.950 . S
C3027 C3029 1.327 . S
C3027 C3033 1.429 . S
C3028 C3020 1.574 . S
C3028 H3023 0.949 . S
C3028 C3034 1.368 . S
C3029 C3013 1.349 . S
C3029 H3021 0.950 . S
C3029 C3027 1.327 . S
C3030 C3018 1.349 . S
C3030 H3024 0.950 . S
C3030 C3031 1.327 . S
C3031 H3025 0.950 . S
C3031 C3030 1.327 . S
C3031 C3035 1.429 . S
C3032 C3015 1.574 . S
C3032 H3026 0.949 . S
C3032 C3036 1.368 . S
C3033 C3014 1.429 . S
C3033 C3027 1.429 . S
C3033 C3034 1.523 . S
C3034 C3015 1.368 . S
C3034 C3028 1.368 . S
C3034 C3033 1.523 . S
C3035 C3019 1.429 . S
C3035 C3031 1.429 . S
C3035 C3036 1.523 . S
C3036 C3020 1.368 . S
C3036 C3032 1.368 . S
C3036 C3035 1.523 . S
H3037 C3012 0.950 . S
H3038 C3014 0.950 . S
H3039 C3015 0.949 . S
H3040 C3017 0.950 . S
H3041 C3019 0.950 . S
C3042 C3043 1.349 . S
C3042 C3044 1.327 . S
C3042 H3067 0.950 . S
C3043 C3042 1.349 . S
C3043 C3059 1.349 . S
C3044 C3042 1.327 . S
C3044 C3063 1.429 . S
C3044 H3068 0.950 . S
C3045 C3062 1.574 . S
C3045 C3064 1.368 . S
C3045 H3069 0.949 . S
H3046 C3050 0.949 . S
C3047 C3048 1.349 . S
C3047 C3049 1.327 . S
C3047 H3070 0.950 . S
C3048 C3047 1.349 . S
C3048 C3060 1.349 . S
C3049 C3047 1.327 . S
C3049 C3065 1.429 . S
C3049 H3071 0.950 . S
C3050 H3046 0.949 . S
C3050 C3058 1.574 . S
C3050 C3066 1.368 . S
H3051 C3059 0.950 . S
H3052 C3057 0.950 . S
H3053 C3058 0.949 . S
H3054 C3060 0.950 . S
H3055 C3061 0.950 . S
H3056 C3062 0.949 . S
C3057 H3052 0.950 . S
C3057 C3059 1.327 . S
C3057 C3063 1.429 . S
C3058 C3050 1.574 . S
C3058 H3053 0.949 . S
C3058 C3064 1.368 . S
C3059 C3043 1.349 . S
C3059 H3051 0.950 . S
C3059 C3057 1.327 . S
C3060 C3048 1.349 . S
C3060 H3054 0.950 . S
C3060 C3061 1.327 . S
C3061 H3055 0.950 . S
C3061 C3060 1.327 . S
C3061 C3065 1.429 . S
C3062 C3045 1.574 . S
C3062 H3056 0.949 . S
C3062 C3066 1.368 . S
C3063 C3044 1.429 . S
C3063 C3057 1.429 . S
C3063 C3064 1.523 . S
C3064 C3045 1.368 . S
C3064 C3058 1.368 . S
C3064 C3063 1.523 . S
C3065 C3049 1.429 . S
C3065 C3061 1.429 . S
C3065 C3066 1.523 . S
C3066 C3050 1.368 . S
C3066 C3062 1.368 . S
C3066 C3065 1.523 . S
H3067 C3042 0.950 . S
H3068 C3044 0.950 . S
H3069 C3045 0.949 . S
H3070 C3047 0.950 . S
H3071 C3049 0.950 . S
C3072 C3073 1.349 . S
C3072 C3074 1.327 . S
C3072 H3097 0.950 . S
C3073 C3072 1.349 . S
C3073 C3089 1.349 . S
C3074 C3072 1.327 . S
C3074 C3093 1.429 . S
C3074 H3098 0.950 . S
C3075 C3092 1.574 . S
C3075 C3094 1.368 . S
C3075 H3099 0.949 . S
H3076 C3080 0.949 . S
C3077 C3078 1.349 . S
C3077 C3079 1.327 . S
C3077 H3100 0.950 . S
C3078 C3077 1.349 . S
C3078 C3090 1.349 . S
C3079 C3077 1.327 . S
C3079 C3095 1.429 . S
C3079 H3101 0.950 . S
C3080 H3076 0.949 . S
C3080 C3088 1.574 . S
C3080 C3096 1.368 . S
H3081 C3089 0.950 . S
H3082 C3087 0.950 . S
H3083 C3088 0.949 . S
H3084 C3090 0.950 . S
H3085 C3091 0.950 . S
H3086 C3092 0.949 . S
C3087 H3082 0.950 . S
C3087 C3089 1.327 . S
C3087 C3093 1.429 . S
C3088 C3080 1.574 . S
C3088 H3083 0.949 . S
C3088 C3094 1.368 . S
C3089 C3073 1.349 . S
C3089 H3081 0.950 . S
C3089 C3087 1.327 . S
C3090 C3078 1.349 . S
C3090 H3084 0.950 . S
C3090 C3091 1.327 . S
C3091 H3085 0.950 . S
C3091 C3090 1.327 . S
C3091 C3095 1.429 . S
C3092 C3075 1.574 . S
C3092 H3086 0.949 . S
C3092 C3096 1.368 . S
C3093 C3074 1.429 . S
C3093 C3087 1.429 . S
C3093 C3094 1.523 . S
C3094 C3075 1.368 . S
C3094 C3088 1.368 . S
C3094 C3093 1.523 . S
C3095 C3079 1.429 . S
C3095 C3091 1.429 . S
C3095 C3096 1.523 . S
C3096 C3080 1.368 . S
C3096 C3092 1.368 . S
C3096 C3095 1.523 . S
H3097 C3072 0.950 . S
H3098 C3074 0.950 . S
H3099 C3075 0.949 . S
H3100 C3077 0.950 . S
H3101 C3079 0.950 . S
C3102 C3103 1.349 . S
C3102 C3104 1.327 . S
C3102 H3127 0.950 . S
C3103 C3102 1.349 . S
C3103 C3119 1.349 . S
C3104 C3102 1.327 . S
C3104 C3123 1.429 . S
C3104 H3128 0.950 . S
C3105 C3122 1.574 . S
C3105 C3124 1.368 . S
C3105 H3129 0.949 . S
H3106 C3110 0.949 . S
C3107 C3108 1.349 . S
C3107 C3109 1.327 . S
C3107 H3130 0.950 . S
C3108 C3107 1.349 . S
C3108 C3120 1.349 . S
C3109 C3107 1.327 . S
C3109 C3125 1.429 . S
C3109 H3131 0.950 . S
C3110 H3106 0.949 . S
C3110 C3118 1.574 . S
C3110 C3126 1.368 . S
H3111 C3119 0.950 . S
H3112 C3117 0.950 . S
H3113 C3118 0.949 . S
H3114 C3120 0.950 . S
H3115 C3121 0.950 . S
H3116 C3122 0.949 . S
C3117 H3112 0.950 . S
C3117 C3119 1.327 . S
C3117 C3123 1.429 . S
C3118 C3110 1.574 . S
C3118 H3113 0.949 . S
C3118 C3124 1.368 . S
C3119 C3103 1.349 . S
C3119 H3111 0.950 . S
C3119 C3117 1.327 . S
C3120 C3108 1.349 . S
C3120 H3114 0.950 . S
C3120 C3121 1.327 . S
C3121 H3115 0.950 . S
C3121 C3120 1.327 . S
C3121 C3125 1.429 . S
C3122 C3105 1.574 . S
C3122 H3116 0.949 . S
C3122 C3126 1.368 . S
C3123 C3104 1.429 . S
C3123 C3117 1.429 . S
C3123 C3124 1.523 . S
C3124 C3105 1.368 . S
C3124 C3118 1.368 . S
C3124 C3123 1.523 . S
C3125 C3109 1.429 . S
C3125 C3121 1.429 . S
C3125 C3126 1.523 1_554 S
C3126 C3110 1.368 . S
C3126 C3122 1.368 . S
C3126 C3125 1.523 1_556 S
H3127 C3102 0.950 . S
H3128 C3104 0.950 . S
H3129 C3105 0.949 . S
H3130 C3107 0.950 . S
H3131 C3109 0.950 . S
C3132 C3133 1.349 . S
C3132 C3134 1.327 . S
C3132 H3157 0.950 . S
C3133 C3132 1.349 . S
C3133 C3149 1.349 . S
C3134 C3132 1.327 . S
C3134 C3153 1.429 . S
C3134 H3158 0.950 . S
C3135 C3152 1.574 . S
C3135 C3154 1.368 . S
C3135 H3159 0.949 . S
H3136 C3140 0.949 . S
C3137 C3138 1.349 . S
C3137 C3139 1.327 . S
C3137 H3160 0.950 . S
C3138 C3137 1.349 . S
C3138 C3150 1.349 . S
C3139 C3137 1.327 . S
C3139 C3155 1.429 . S
C3139 H3161 0.950 . S
C3140 H3136 0.949 . S
C3140 C3148 1.574 . S
C3140 C3156 1.368 . S
H3141 C3149 0.950 . S
H3142 C3147 0.950 . S
H3143 C3148 0.949 . S
H3144 C3150 0.950 . S
H3145 C3151 0.950 . S
H3146 C3152 0.949 . S
C3147 H3142 0.950 . S
C3147 C3149 1.327 . S
C3147 C3153 1.429 . S
C3148 C3140 1.574 . S
C3148 H3143 0.949 . S
C3148 C3154 1.368 . S
C3149 C3133 1.349 . S
C3149 H3141 0.950 . S
C3149 C3147 1.327 . S
C3150 C3138 1.349 . S
C3150 H3144 0.950 . S
C3150 C3151 1.327 . S
C3151 H3145 0.950 . S
C3151 C3150 1.327 . S
C3151 C3155 1.429 . S
C3152 C3135 1.574 . S
C3152 H3146 0.949 . S
C3152 C3156 1.368 . S
C3153 C3134 1.429 . S
C3153 C3147 1.429 . S
C3153 C3154 1.523 . S
C3154 C3135 1.368 . S
C3154 C3148 1.368 . S
C3154 C3153 1.523 . S
C3155 C3139 1.429 . S
C3155 C3151 1.429 . S
C3155 C3156 1.523 . S
C3156 C3140 1.368 . S
C3156 C3152 1.368 . S
C3156 C3155 1.523 . S
H3157 C3132 0.950 . S
H3158 C3134 0.950 . S
H3159 C3135 0.949 . S
H3160 C3137 0.950 . S
H3161 C3139 0.950 . S
C3162 C3163 1.349 . S
C3162 C3164 1.327 . S
C3162 H3187 0.950 . S
C3163 C3162 1.349 . S
C3163 C3179 1.349 . S
C3164 C3162 1.327 . S
C3164 C3183 1.429 . S
C3164 H3188 0.950 . S
C3165 C3182 1.574 . S
C3165 C3184 1.368 . S
C3165 H3189 0.949 . S
H3166 C3170 0.949 . S
C3167 C3168 1.349 . S
C3167 C3169 1.327 . S
C3167 H3190 0.950 . S
C3168 C3167 1.349 . S
C3168 C3180 1.349 . S
C3169 C3167 1.327 . S
C3169 C3185 1.429 . S
C3169 H3191 0.950 . S
C3170 H3166 0.949 . S
C3170 C3178 1.574 . S
C3170 C3186 1.368 . S
H3171 C3179 0.950 . S
H3172 C3177 0.950 . S
H3173 C3178 0.949 . S
H3174 C3180 0.950 . S
H3175 C3181 0.950 . S
H3176 C3182 0.949 . S
C3177 H3172 0.950 . S
C3177 C3179 1.327 . S
C3177 C3183 1.429 . S
C3178 C3170 1.574 . S
C3178 H3173 0.949 . S
C3178 C3184 1.368 . S
C3179 C3163 1.349 . S
C3179 H3171 0.950 . S
C3179 C3177 1.327 . S
C3180 C3168 1.349 . S
C3180 H3174 0.950 . S
C3180 C3181 1.327 . S
C3181 H3175 0.950 . S
C3181 C3180 1.327 . S
C3181 C3185 1.429 . S
C3182 C3165 1.574 . S
C3182 H3176 0.949 . S
C3182 C3186 1.368 . S
C3183 C3164 1.429 . S
C3183 C3177 1.429 . S
C3183 C3184 1.523 . S
C3184 C3165 1.368 . S
C3184 C3178 1.368 . S
C3184 C3183 1.523 . S
C3185 C3169 1.429 . S
C3185 C3181 1.429 . S
C3185 C3186 1.523 . S
C3186 C3170 1.368 . S
C3186 C3182 1.368 . S
C3186 C3185 1.523 . S
H3187 C3162 0.950 . S
H3188 C3164 0.950 . S
H3189 C3165 0.949 . S
H3190 C3167 0.950 . S
H3191 C3169 0.950 . S
C3192 C3193 1.349 . S
C3192 C3194 1.327 . S
C3192 H3217 0.950 . S
C3193 C3192 1.349 . S
C3193 C3209 1.349 . S
C3194 C3192 1.327 . S
C3194 C3213 1.429 . S
C3194 H3218 0.950 . S
C3195 C3212 1.574 . S
C3195 C3214 1.368 . S
C3195 H3219 0.949 . S
H3196 C3200 0.949 . S
C3197 C3198 1.349 . S
C3197 C3199 1.327 . S
C3197 H3220 0.950 . S
C3198 C3197 1.349 . S
C3198 C3210 1.349 . S
C3199 C3197 1.327 . S
C3199 C3215 1.429 . S
C3199 H3221 0.950 . S
C3200 H3196 0.949 . S
C3200 C3208 1.574 . S
C3200 C3216 1.368 . S
H3201 C3209 0.950 . S
H3202 C3207 0.950 . S
H3203 C3208 0.949 . S
H3204 C3210 0.950 . S
H3205 C3211 0.950 . S
H3206 C3212 0.949 . S
C3207 H3202 0.950 . S
C3207 C3209 1.327 . S
C3207 C3213 1.429 . S
C3208 C3200 1.574 . S
C3208 H3203 0.949 . S
C3208 C3214 1.368 . S
C3209 C3193 1.349 . S
C3209 H3201 0.950 . S
C3209 C3207 1.327 . S
C3210 C3198 1.349 . S
C3210 H3204 0.950 . S
C3210 C3211 1.327 . S
C3211 H3205 0.950 . S
C3211 C3210 1.327 . S
C3211 C3215 1.429 . S
C3212 C3195 1.574 . S
C3212 H3206 0.949 . S
C3212 C3216 1.368 . S
C3213 C3194 1.429 . S
C3213 C3207 1.429 . S
C3213 C3214 1.523 . S
C3214 C3195 1.368 . S
C3214 C3208 1.368 . S
C3214 C3213 1.523 . S
C3215 C3199 1.429 . S
C3215 C3211 1.429 . S
C3215 C3216 1.523 . S
C3216 C3200 1.368 . S
C3216 C3212 1.368 . S
C3216 C3215 1.523 . S
H3217 C3192 0.950 . S
H3218 C3194 0.950 . S
H3219 C3195 0.949 . S
H3220 C3197 0.950 . S
H3221 C3199 0.950 . S
C3222 C3223 1.349 . S
C3222 C3224 1.327 . S
C3222 H3247 0.950 . S
C3223 C3222 1.349 . S
C3223 C3239 1.349 . S
C3224 C3222 1.327 . S
C3224 C3243 1.429 . S
C3224 H3248 0.950 . S
C3225 C3242 1.574 . S
C3225 C3244 1.368 . S
C3225 H3249 0.949 . S
H3226 C3230 0.949 . S
C3227 C3228 1.349 . S
C3227 C3229 1.327 . S
C3227 H3250 0.950 . S
C3228 C3227 1.349 . S
C3228 C3240 1.349 . S
C3229 C3227 1.327 . S
C3229 C3245 1.429 . S
C3229 H3251 0.950 . S
C3230 H3226 0.949 . S
C3230 C3238 1.574 . S
C3230 C3246 1.368 . S
H3231 C3239 0.950 . S
H3232 C3237 0.950 . S
H3233 C3238 0.949 . S
H3234 C3240 0.950 . S
H3235 C3241 0.950 1_554 S
H3236 C3242 0.949 . S
C3237 H3232 0.950 . S
C3237 C3239 1.327 . S
C3237 C3243 1.429 . S
C3238 C3230 1.574 . S
C3238 H3233 0.949 . S
C3238 C3244 1.368 . S
C3239 C3223 1.349 . S
C3239 H3231 0.950 . S
C3239 C3237 1.327 . S
C3240 C3228 1.349 . S
C3240 H3234 0.950 . S
C3240 C3241 1.327 . S
C3241 H3235 0.950 1_556 S
C3241 C3240 1.327 . S
C3241 C3245 1.429 . S
C3242 C3225 1.574 . S
C3242 H3236 0.949 . S
C3242 C3246 1.368 . S
C3243 C3224 1.429 . S
C3243 C3237 1.429 . S
C3243 C3244 1.523 . S
C3244 C3225 1.368 . S
C3244 C3238 1.368 . S
C3244 C3243 1.523 . S
C3245 C3229 1.429 . S
C3245 C3241 1.429 . S
C3245 C3246 1.523 1_556 S
C3246 C3230 1.368 . S
C3246 C3242 1.368 . S
C3246 C3245 1.523 1_554 S
H3247 C3222 0.950 . S
H3248 C3224 0.950 . S
H3249 C3225 0.949 . S
H3250 C3227 0.950 . S
H3251 C3229 0.950 . S
C3252 C3253 1.349 . S
C3252 C3254 1.327 . S
C3252 H3277 0.950 . S
C3253 C3252 1.349 . S
C3253 C3269 1.349 . S
C3254 C3252 1.327 . S
C3254 C3273 1.429 . S
C3254 H3278 0.950 . S
C3255 C3272 1.574 . S
C3255 C3274 1.368 . S
C3255 H3279 0.949 . S
H3256 C3260 0.949 . S
C3257 C3258 1.349 . S
C3257 C3259 1.327 . S
C3257 H3280 0.950 . S
C3258 C3257 1.349 . S
C3258 C3270 1.349 . S
C3259 C3257 1.327 . S
C3259 C3275 1.429 . S
C3259 H3281 0.950 . S
C3260 H3256 0.949 . S
C3260 C3268 1.574 . S
C3260 C3276 1.368 . S
H3261 C3269 0.950 . S
H3262 C3267 0.950 . S
H3263 C3268 0.949 . S
H3264 C3270 0.950 . S
H3265 C3271 0.950 . S
H3266 C3272 0.949 . S
C3267 H3262 0.950 . S
C3267 C3269 1.327 . S
C3267 C3273 1.429 . S
C3268 C3260 1.574 . S
C3268 H3263 0.949 . S
C3268 C3274 1.368 . S
C3269 C3253 1.349 . S
C3269 H3261 0.950 . S
C3269 C3267 1.327 . S
C3270 C3258 1.349 . S
C3270 H3264 0.950 . S
C3270 C3271 1.327 . S
C3271 H3265 0.950 . S
C3271 C3270 1.327 . S
C3271 C3275 1.429 . S
C3272 C3255 1.574 . S
C3272 H3266 0.949 . S
C3272 C3276 1.368 . S
C3273 C3254 1.429 . S
C3273 C3267 1.429 . S
C3273 C3274 1.523 . S
C3274 C3255 1.368 . S
C3274 C3268 1.368 . S
C3274 C3273 1.523 . S
C3275 C3259 1.429 . S
C3275 C3271 1.429 . S
C3275 C3276 1.523 . S
C3276 C3260 1.368 . S
C3276 C3272 1.368 . S
C3276 C3275 1.523 . S
H3277 C3252 0.950 . S
H3278 C3254 0.950 . S
H3279 C3255 0.949 . S
H3280 C3257 0.950 . S
H3281 C3259 0.950 . S
C3282 C3283 1.349 . S
C3282 C3284 1.327 . S
C3282 H3307 0.950 . S
C3283 C3282 1.349 . S
C3283 C3299 1.349 . S
C3284 C3282 1.327 . S
C3284 C3303 1.429 . S
C3284 H3308 0.950 . S
C3285 C3302 1.574 . S
C3285 C3304 1.368 . S
C3285 H3309 0.949 . S
H3286 C3290 0.949 . S
C3287 C3288 1.349 . S
C3287 C3289 1.327 . S
C3287 H3310 0.950 . S
C3288 C3287 1.349 . S
C3288 C3300 1.349 . S
C3289 C3287 1.327 . S
C3289 C3305 1.429 . S
C3289 H3311 0.950 . S
C3290 H3286 0.949 . S
C3290 C3298 1.574 . S
C3290 C3306 1.368 . S
H3291 C3299 0.950 . S
H3292 C3297 0.950 . S
H3293 C3298 0.949 . S
H3294 C3300 0.950 . S
H3295 C3301 0.950 . S
H3296 C3302 0.949 . S
C3297 H3292 0.950 . S
C3297 C3299 1.327 . S
C3297 C3303 1.429 . S
C3298 C3290 1.574 . S
C3298 H3293 0.949 . S
C3298 C3304 1.368 . S
C3299 C3283 1.349 . S
C3299 H3291 0.950 . S
C3299 C3297 1.327 . S
C3300 C3288 1.349 . S
C3300 H3294 0.950 . S
C3300 C3301 1.327 . S
C3301 H3295 0.950 . S
C3301 C3300 1.327 . S
C3301 C3305 1.429 . S
C3302 C3285 1.574 . S
C3302 H3296 0.949 . S
C3302 C3306 1.368 . S
C3303 C3284 1.429 . S
C3303 C3297 1.429 . S
C3303 C3304 1.523 . S
C3304 C3285 1.368 . S
C3304 C3298 1.368 . S
C3304 C3303 1.523 . S
C3305 C3289 1.429 . S
C3305 C3301 1.429 . S
C3305 C3306 1.523 . S
C3306 C3290 1.368 . S
C3306 C3302 1.368 . S
C3306 C3305 1.523 . S
H3307 C3282 0.950 . S
H3308 C3284 0.950 . S
H3309 C3285 0.949 . S
H3310 C3287 0.950 . S
H3311 C3289 0.950 . S
C3312 C3313 1.349 . S
C3312 C3314 1.327 . S
C3312 H3337 0.950 . S
C3313 C3312 1.349 . S
C3313 C3329 1.349 . S
C3314 C3312 1.327 . S
C3314 C3333 1.429 . S
C3314 H3338 0.950 . S
C3315 C3332 1.574 . S
C3315 C3334 1.368 . S
C3315 H3339 0.949 . S
H3316 C3320 0.949 . S
C3317 C3318 1.349 . S
C3317 C3319 1.327 . S
C3317 H3340 0.950 . S
C3318 C3317 1.349 . S
C3318 C3330 1.349 . S
C3319 C3317 1.327 . S
C3319 C3335 1.429 . S
C3319 H3341 0.950 . S
C3320 H3316 0.949 . S
C3320 C3328 1.574 . S
C3320 C3336 1.368 . S
H3321 C3329 0.950 . S
H3322 C3327 0.950 . S
H3323 C3328 0.949 . S
H3324 C3330 0.950 . S
H3325 C3331 0.950 . S
H3326 C3332 0.949 . S
C3327 H3322 0.950 . S
C3327 C3329 1.327 . S
C3327 C3333 1.429 . S
C3328 C3320 1.574 . S
C3328 H3323 0.949 . S
C3328 C3334 1.368 . S
C3329 C3313 1.349 . S
C3329 H3321 0.950 . S
C3329 C3327 1.327 . S
C3330 C3318 1.349 . S
C3330 H3324 0.950 . S
C3330 C3331 1.327 . S
C3331 H3325 0.950 . S
C3331 C3330 1.327 . S
C3331 C3335 1.429 . S
C3332 C3315 1.574 . S
C3332 H3326 0.949 . S
C3332 C3336 1.368 . S
C3333 C3314 1.429 . S
C3333 C3327 1.429 . S
C3333 C3334 1.523 . S
C3334 C3315 1.368 . S
C3334 C3328 1.368 . S
C3334 C3333 1.523 . S
C3335 C3319 1.429 . S
C3335 C3331 1.429 . S
C3335 C3336 1.523 . S
C3336 C3320 1.368 . S
C3336 C3332 1.368 . S
C3336 C3335 1.523 . S
H3337 C3312 0.950 . S
H3338 C3314 0.950 . S
H3339 C3315 0.949 . S
H3340 C3317 0.950 . S
H3341 C3319 0.950 . S
C3342 C3343 1.349 . S
C3342 C3344 1.327 . S
C3342 H3367 0.950 . S
C3343 C3342 1.349 . S
C3343 C3359 1.349 . S
C3344 C3342 1.327 . S
C3344 C3363 1.429 . S
C3344 H3368 0.950 . S
C3345 C3362 1.574 . S
C3345 C3364 1.368 . S
C3345 H3369 0.949 . S
H3346 C3350 0.949 . S
C3347 C3348 1.349 . S
C3347 C3349 1.327 . S
C3347 H3370 0.950 . S
C3348 C3347 1.349 . S
C3348 C3360 1.349 . S
C3349 C3347 1.327 . S
C3349 C3365 1.429 . S
C3349 H3371 0.950 . S
C3350 H3346 0.949 . S
C3350 C3358 1.574 . S
C3350 C3366 1.368 . S
H3351 C3359 0.950 . S
H3352 C3357 0.950 . S
H3353 C3358 0.949 . S
H3354 C3360 0.950 . S
H3355 C3361 0.950 . S
H3356 C3362 0.949 . S
C3357 H3352 0.950 . S
C3357 C3359 1.327 . S
C3357 C3363 1.429 . S
C3358 C3350 1.574 . S
C3358 H3353 0.949 . S
C3358 C3364 1.368 . S
C3359 C3343 1.349 . S
C3359 H3351 0.950 . S
C3359 C3357 1.327 . S
C3360 C3348 1.349 . S
C3360 H3354 0.950 . S
C3360 C3361 1.327 . S
C3361 H3355 0.950 . S
C3361 C3360 1.327 . S
C3361 C3365 1.429 . S
C3362 C3345 1.574 . S
C3362 H3356 0.949 . S
C3362 C3366 1.368 . S
C3363 C3344 1.429 . S
C3363 C3357 1.429 . S
C3363 C3364 1.523 . S
C3364 C3345 1.368 . S
C3364 C3358 1.368 . S
C3364 C3363 1.523 . S
C3365 C3349 1.429 . S
C3365 C3361 1.429 . S
C3365 C3366 1.523 . S
C3366 C3350 1.368 . S
C3366 C3362 1.368 . S
C3366 C3365 1.523 . S
H3367 C3342 0.950 . S
H3368 C3344 0.950 . S
H3369 C3345 0.949 . S
H3370 C3347 0.950 . S
H3371 C3349 0.950 . S
C3372 C3373 1.349 . S
C3372 C3374 1.327 . S
C3372 H3397 0.950 . S
C3373 C3372 1.349 . S
C3373 C3389 1.349 . S
C3374 C3372 1.327 . S
C3374 C3393 1.429 . S
C3374 H3398 0.950 . S
C3375 C3392 1.574 . S
C3375 C3394 1.368 . S
C3375 H3399 0.949 . S
H3376 C3380 0.949 . S
C3377 C3378 1.349 . S
C3377 C3379 1.327 . S
C3377 H3400 0.950 . S
C3378 C3377 1.349 . S
C3378 C3390 1.349 . S
C3379 C3377 1.327 . S
C3379 C3395 1.429 . S
C3379 H3401 0.950 . S
C3380 H3376 0.949 . S
C3380 C3388 1.574 . S
C3380 C3396 1.368 . S
H3381 C3389 0.950 . S
H3382 C3387 0.950 . S
H3383 C3388 0.949 . S
H3384 C3390 0.950 . S
H3385 C3391 0.950 . S
H3386 C3392 0.949 . S
C3387 H3382 0.950 . S
C3387 C3389 1.327 . S
C3387 C3393 1.429 . S
C3388 C3380 1.574 . S
C3388 H3383 0.949 . S
C3388 C3394 1.368 . S
C3389 C3373 1.349 . S
C3389 H3381 0.950 . S
C3389 C3387 1.327 . S
C3390 C3378 1.349 . S
C3390 H3384 0.950 . S
C3390 C3391 1.327 . S
C3391 H3385 0.950 . S
C3391 C3390 1.327 . S
C3391 C3395 1.429 . S
C3392 C3375 1.574 . S
C3392 H3386 0.949 . S
C3392 C3396 1.368 . S
C3393 C3374 1.429 . S
C3393 C3387 1.429 . S
C3393 C3394 1.523 . S
C3394 C3375 1.368 . S
C3394 C3388 1.368 . S
C3394 C3393 1.523 . S
C3395 C3379 1.429 . S
C3395 C3391 1.429 . S
C3395 C3396 1.523 1_545 S
C3396 C3380 1.368 . S
C3396 C3392 1.368 . S
C3396 C3395 1.523 1_565 S
H3397 C3372 0.950 . S
H3398 C3374 0.950 . S
H3399 C3375 0.949 . S
H3400 C3377 0.950 . S
H3401 C3379 0.950 . S
C3402 C3403 1.349 . S
C3402 C3404 1.327 . S
C3402 H3427 0.950 . S
C3403 C3402 1.349 . S
C3403 C3419 1.349 . S
C3404 C3402 1.327 . S
C3404 C3423 1.429 . S
C3404 H3428 0.950 . S
C3405 C3422 1.574 . S
C3405 C3424 1.368 . S
C3405 H3429 0.949 . S
H3406 C3410 0.949 . S
C3407 C3408 1.349 . S
C3407 C3409 1.327 . S
C3407 H3430 0.950 . S
C3408 C3407 1.349 . S
C3408 C3420 1.349 . S
C3409 C3407 1.327 . S
C3409 C3425 1.429 . S
C3409 H3431 0.950 . S
C3410 H3406 0.949 . S
C3410 C3418 1.574 . S
C3410 C3426 1.368 . S
H3411 C3419 0.950 . S
H3412 C3417 0.950 . S
H3413 C3418 0.949 . S
H3414 C3420 0.950 . S
H3415 C3421 0.950 . S
H3416 C3422 0.949 . S
C3417 H3412 0.950 . S
C3417 C3419 1.327 . S
C3417 C3423 1.429 . S
C3418 C3410 1.574 . S
C3418 H3413 0.949 . S
C3418 C3424 1.368 . S
C3419 C3403 1.349 . S
C3419 H3411 0.950 . S
C3419 C3417 1.327 . S
C3420 C3408 1.349 . S
C3420 H3414 0.950 . S
C3420 C3421 1.327 . S
C3421 H3415 0.950 . S
C3421 C3420 1.327 . S
C3421 C3425 1.429 . S
C3422 C3405 1.574 . S
C3422 H3416 0.949 . S
C3422 C3426 1.368 . S
C3423 C3404 1.429 . S
C3423 C3417 1.429 . S
C3423 C3424 1.523 . S
C3424 C3405 1.368 . S
C3424 C3418 1.368 . S
C3424 C3423 1.523 . S
C3425 C3409 1.429 . S
C3425 C3421 1.429 . S
C3425 C3426 1.523 . S
C3426 C3410 1.368 . S
C3426 C3422 1.368 . S
C3426 C3425 1.523 . S
H3427 C3402 0.950 . S
H3428 C3404 0.950 . S
H3429 C3405 0.949 . S
H3430 C3407 0.950 . S
H3431 C3409 0.950 . S
C3432 C3433 1.349 . S
C3432 C3434 1.327 . S
C3432 H3457 0.950 . S
C3433 C3432 1.349 . S
C3433 C3449 1.349 . S
C3434 C3432 1.327 . S
C3434 C3453 1.429 . S
C3434 H3458 0.950 . S
C3435 C3452 1.574 . S
C3435 C3454 1.368 . S
C3435 H3459 0.949 . S
H3436 C3440 0.949 . S
C3437 C3438 1.349 . S
C3437 C3439 1.327 . S
C3437 H3460 0.950 . S
C3438 C3437 1.349 . S
C3438 C3450 1.349 . S
C3439 C3437 1.327 . S
C3439 C3455 1.429 . S
C3439 H3461 0.950 . S
C3440 H3436 0.949 . S
C3440 C3448 1.574 . S
C3440 C3456 1.368 . S
H3441 C3449 0.950 . S
H3442 C3447 0.950 . S
H3443 C3448 0.949 . S
H3444 C3450 0.950 . S
H3445 C3451 0.950 . S
H3446 C3452 0.949 . S
C3447 H3442 0.950 . S
C3447 C3449 1.327 . S
C3447 C3453 1.429 . S
C3448 C3440 1.574 . S
C3448 H3443 0.949 . S
C3448 C3454 1.368 . S
C3449 C3433 1.349 . S
C3449 H3441 0.950 . S
C3449 C3447 1.327 . S
C3450 C3438 1.349 . S
C3450 H3444 0.950 . S
C3450 C3451 1.327 . S
C3451 H3445 0.950 . S
C3451 C3450 1.327 . S
C3451 C3455 1.429 . S
C3452 C3435 1.574 . S
C3452 H3446 0.949 . S
C3452 C3456 1.368 . S
C3453 C3434 1.429 . S
C3453 C3447 1.429 . S
C3453 C3454 1.523 . S
C3454 C3435 1.368 . S
C3454 C3448 1.368 . S
C3454 C3453 1.523 . S
C3455 C3439 1.429 . S
C3455 C3451 1.429 . S
C3455 C3456 1.523 . S
C3456 C3440 1.368 . S
C3456 C3452 1.368 . S
C3456 C3455 1.523 . S
H3457 C3432 0.950 . S
H3458 C3434 0.950 . S
H3459 C3435 0.949 . S
H3460 C3437 0.950 . S
H3461 C3439 0.950 . S
C3462 C3463 1.349 . S
C3462 C3464 1.327 . S
C3462 H3487 0.950 . S
C3463 C3462 1.349 . S
C3463 C3479 1.349 . S
C3464 C3462 1.327 . S
C3464 C3483 1.429 . S
C3464 H3488 0.950 . S
C3465 C3482 1.574 . S
C3465 C3484 1.368 . S
C3465 H3489 0.949 . S
H3466 C3470 0.949 . S
C3467 C3468 1.349 . S
C3467 C3469 1.327 . S
C3467 H3490 0.950 . S
C3468 C3467 1.349 . S
C3468 C3480 1.349 . S
C3469 C3467 1.327 . S
C3469 C3485 1.429 . S
C3469 H3491 0.950 . S
C3470 H3466 0.949 . S
C3470 C3478 1.574 . S
C3470 C3486 1.368 . S
H3471 C3479 0.950 . S
H3472 C3477 0.950 . S
H3473 C3478 0.949 . S
H3474 C3480 0.950 . S
H3475 C3481 0.950 . S
H3476 C3482 0.949 . S
C3477 H3472 0.950 . S
C3477 C3479 1.327 . S
C3477 C3483 1.429 . S
C3478 C3470 1.574 . S
C3478 H3473 0.949 . S
C3478 C3484 1.368 . S
C3479 C3463 1.349 . S
C3479 H3471 0.950 . S
C3479 C3477 1.327 . S
C3480 C3468 1.349 . S
C3480 H3474 0.950 . S
C3480 C3481 1.327 . S
C3481 H3475 0.950 . S
C3481 C3480 1.327 . S
C3481 C3485 1.429 . S
C3482 C3465 1.574 . S
C3482 H3476 0.949 . S
C3482 C3486 1.368 . S
C3483 C3464 1.429 . S
C3483 C3477 1.429 . S
C3483 C3484 1.523 . S
C3484 C3465 1.368 . S
C3484 C3478 1.368 . S
C3484 C3483 1.523 . S
C3485 C3469 1.429 . S
C3485 C3481 1.429 . S
C3485 C3486 1.523 . S
C3486 C3470 1.368 . S
C3486 C3482 1.368 . S
C3486 C3485 1.523 . S
H3487 C3462 0.950 . S
H3488 C3464 0.950 . S
H3489 C3465 0.949 . S
H3490 C3467 0.950 . S
H3491 C3469 0.950 . S
C3492 C3493 1.349 . S
C3492 C3494 1.327 . S
C3492 H3517 0.950 . S
C3493 C3492 1.349 . S
C3493 C3509 1.349 . S
C3494 C3492 1.327 . S
C3494 C3513 1.429 . S
C3494 H3518 0.950 . S
C3495 C3512 1.608 . S
C3495 C3514 1.365 1_545 S
C3495 H3519 0.923 1_545 S
H3496 C3500 0.949 . S
C3497 C3498 1.349 . S
C3497 C3499 1.327 . S
C3497 H3520 0.950 . S
C3498 C3497 1.349 . S
C3498 C3510 1.349 . S
C3499 C3497 1.327 . S
C3499 C3515 1.429 . S
C3499 H3521 0.950 . S
C3500 H3496 0.949 . S
C3500 C3508 1.574 . S
C3500 C3516 1.368 . S
H3501 C3509 0.950 . S
H3502 C3507 0.950 . S
H3503 C3508 0.949 . S
H3504 C3510 0.950 . S
H3505 C3511 0.950 . S
H3506 C3512 0.949 . S
C3507 H3502 0.950 . S
C3507 C3509 1.327 . S
C3507 C3513 1.429 . S
C3508 C3500 1.574 . S
C3508 H3503 0.949 . S
C3508 C3514 1.368 1_545 S
C3509 C3493 1.349 . S
C3509 H3501 0.950 . S
C3509 C3507 1.327 . S
C3510 C3498 1.349 . S
C3510 H3504 0.950 . S
C3510 C3511 1.327 . S
C3511 H3505 0.950 . S
C3511 C3510 1.327 . S
C3511 C3515 1.429 . S
C3512 C3495 1.608 . S
C3512 H3506 0.949 . S
C3512 C3516 1.368 . S
C3513 C3494 1.429 . S
C3513 C3507 1.429 . S
C3513 C3514 1.523 . S
C3514 C3495 1.365 1_565 S
C3514 C3508 1.368 1_565 S
C3514 C3513 1.523 . S
C3515 C3499 1.429 . S
C3515 C3511 1.429 . S
C3515 C3516 1.523 . S
C3516 C3500 1.368 . S
C3516 C3512 1.368 . S
C3516 C3515 1.523 . S
H3517 C3492 0.950 . S
H3518 C3494 0.950 . S
H3519 C3495 0.923 1_565 S
H3520 C3497 0.950 . S
H3521 C3499 0.950 . S
C3522 C3523 1.349 . S
C3522 C3524 1.327 . S
C3522 H3547 0.950 . S
C3523 C3522 1.349 . S
C3523 C3539 1.349 . S
C3524 C3522 1.327 . S
C3524 C3543 1.429 . S
C3524 H3548 0.950 . S
C3525 C3542 1.574 . S
C3525 C3544 1.368 . S
C3525 H3549 0.949 . S
H3526 C3530 0.949 1_545 S
C3527 C3528 1.349 . S
C3527 C3529 1.327 . S
C3527 H3550 0.950 . S
C3528 C3527 1.349 . S
C3528 C3540 1.349 . S
C3529 C3527 1.327 . S
C3529 C3545 1.429 . S
C3529 H3551 0.950 . S
C3530 H3526 0.949 1_565 S
C3530 C3538 1.574 . S
C3530 C3546 1.368 1_565 S
H3531 C3539 0.950 . S
H3532 C3537 0.950 . S
H3533 C3538 0.949 . S
H3534 C3540 0.950 . S
H3535 C3541 0.950 . S
H3536 C3542 0.949 1_545 S
C3537 H3532 0.950 . S
C3537 C3539 1.327 . S
C3537 C3543 1.429 . S
C3538 C3530 1.574 . S
C3538 H3533 0.949 . S
C3538 C3544 1.368 . S
C3539 C3523 1.349 . S
C3539 H3531 0.950 . S
C3539 C3537 1.327 . S
C3540 C3528 1.349 . S
C3540 H3534 0.950 . S
C3540 C3541 1.327 . S
C3541 H3535 0.950 . S
C3541 C3540 1.327 . S
C3541 C3545 1.429 . S
C3542 C3525 1.574 . S
C3542 H3536 0.949 1_565 S
C3542 C3546 1.368 1_565 S
C3543 C3524 1.429 . S
C3543 C3537 1.429 . S
C3543 C3544 1.523 . S
C3544 C3525 1.368 . S
C3544 C3538 1.368 . S
C3544 C3543 1.523 . S
C3545 C3529 1.429 . S
C3545 C3541 1.429 . S
C3545 C3546 1.523 . S
C3546 C3530 1.368 1_545 S
C3546 C3542 1.368 1_545 S
C3546 C3545 1.523 . S
H3547 C3522 0.950 . S
H3548 C3524 0.950 . S
H3549 C3525 0.949 . S
H3550 C3527 0.950 . S
H3551 C3529 0.950 . S
C673 C592 0.997 . S
C678 C5 0.905 . S
C703 C26 1.096 . S
C708 C222 1.086 . S
C733 C33 0.944 . S
C738 C564 1.051 . S
C763 C54 1.138 . S
C768 C250 1.125 . S
C793 C620 1.060 . S
C798 C68 1.066 . S
C823 C75 0.961 . S
C828 C299 1.019 . S
C853 C96 1.014 . S
C858 C648 1.009 . S
C883 C103 0.956 . S
C888 C271 1.009 . S
C913 C47 0.925 . S
C918 C669 1.033 . S
C943 C12 1.114 . S
C948 C354 1.107 . S
C973 C375 0.973 . S
C978 C19 0.876 . S
C1003 C40 1.046 . S
C1008 C340 1.039 . S
C1033 C82 1.044 . S
C1038 C347 1.024 . S
C1063 C89 0.914 . S
C1068 C662 1.019 . S
C1093 C110 1.125 . S
C1098 C361 1.100 . S
C1123 C61 0.930 . S
C1128 C368 1.040 . S
C1153 C551 0.968 . S
C1158 C117 0.946 . S
C1183 C138 1.154 . S
C1188 C278 1.131 . S
C1213 C124 1.072 . S
C1218 C627 1.049 . S
C1243 C306 1.140 . S
C1248 C152 1.157 . S
C1273 C319 1.028 . S
C1278 C159 0.926 . S
C1303 C579 1.018 . S
C1308 C180 1.110 . S
C1333 C599 1.014 . S
C1338 C187 0.907 . S
C1363 C571 1.075 . S
C1368 C208 1.101 . S
C1393 C473 0.978 . S
C1398 C221 0.984 . S
C1423 C229 0.985 . S
C1428 C4 1.110 . S
C1453 C249 1.005 . S
C1458 C445 1.002 . S
C1483 C32 1.046 . S
C1488 C257 0.941 . S
C1513 C270 0.956 . S
C1518 C494 0.960 . S
C1543 C95 1.143 . S
C1548 C285 1.012 . S
C1573 C298 1.064 . S
C1578 C522 1.071 . S
C1603 C67 1.145 . S
C1608 C313 1.017 . S
C1633 C543 1.021 . S
C1638 C264 1.052 . S
C1663 C214 0.951 . S
C1668 C151 0.946 . S
C1693 C158 1.133 . S
C1698 C236 1.138 . S
C1723 C137 1.100 . S
C1728 C242 1.105 . S
C1753 C130 1.219 . S
C1758 C292 1.232 . S
C1783 C305 1.073 . S
C1788 C536 1.076 . S
C1813 C144 1.096 . S
C1818 C320 1.101 . S
C1843 C277 0.986 . S
C1848 C165 0.974 . S
C1873 C327 0.916 . S
C1878 C431 0.991 . S
C1903 C341 1.032 . S
C1908 C60 1.191 . S
C1933 C334 1.019 . S
C1938 C501 0.992 . S
C1963 C355 1.066 . S
C1968 C88 1.227 . S
C1993 C376 1.042 . S
C1998 C109 1.016 . S
C2023 C459 0.951 . S
C2028 C383 0.884 . S
C2053 C404 1.229 . S
C2058 C466 1.222 . S
C2083 C418 1.209 . S
C2088 C438 1.200 . S
C2113 C425 0.931 . S
C2118 C256 1.031 . S
C2143 C446 1.117 . S
C2148 C558 1.105 . S
C2173 C228 1.043 . S
C2178 C453 0.939 . S
C2203 C474 1.157 . S
C2208 C586 1.144 . S
C2233 C488 1.089 . S
C2238 C284 1.083 . S
C2263 C635 1.001 . S
C2268 C495 0.947 . S
C2293 C516 1.037 . S
C2298 C312 1.034 . S
C2323 C607 1.019 . S
C2328 C523 0.968 . S
C2353 C333 1.036 . S
C2358 C467 0.928 . S
C2383 C410 1.059 . S
C2388 C432 1.066 . S
C2413 C439 0.900 . S
C2418 C389 1.002 . S
C2443 C396 1.042 . S
C2448 C460 1.050 . S
C2473 C502 1.064 . S
C2478 C403 1.041 . S
C2503 C326 1.056 . S
C2508 C509 0.945 . S
C2533 C530 1.081 . S
C2538 C417 1.058 . S
C2563 C481 0.933 . S
C2568 C382 1.045 . S
C2593 C537 0.935 . S
C2598 C215 0.970 . S
C2623 C194 1.174 . S
C2628 C614 1.152 . S
C2653 C291 1.082 . S
C2658 C544 1.107 . S
C2683 C642 1.098 . S
C2688 C201 0.961 . S
C2713 C655 1.022 . S
C2718 C173 0.921 . S
C2743 C166 1.074 . S
C2748 C243 0.989 . S
C2773 C131 0.926 . S
C2778 C263 1.039 . S
C2803 C235 1.032 . S
C2808 C145 0.922 . S
C2833 C557 1.076 . S
C2838 C53 1.066 . S
C2863 C424 1.132 . S
C2868 C565 0.999 . S
C2893 C585 0.999 . S
C2898 C25 0.997 . S
C2923 C593 0.922 . S
C2928 C452 1.024 . S
C2953 C74 0.980 . S
C2958 C606 0.976 . S
C2983 C621 1.018 . S
C2988 C515 1.149 . S
C3013 C634 1.034 . S
C3018 C102 1.044 . S
C3043 C487 1.060 . S
C3048 C649 0.954 . S
C3073 C600 1.041 . S
C3078 C123 1.011 . S
C3103 C200 1.040 . S
C3108 C550 1.039 . S
C3133 C172 1.252 . S
C3138 C572 1.262 . S
C3163 C578 1.089 . S
C3168 C193 1.085 . S
C3193 C628 1.254 . S
C3198 C186 1.240 . S
C3223 C116 0.961 . S
C3228 C641 0.956 . S
C3253 C207 0.995 . S
C3258 C656 1.027 . S
C3283 C613 0.993 . S
C3288 C179 0.980 . S
C3313 C11 0.985 . S
C3318 C663 0.910 . S
C3343 C397 1.024 . S
C3348 C480 1.180 . S
C3373 C81 0.996 . S
C3378 C670 1.026 . S
C3403 C508 1.182 . S
C3408 C411 1.027 . S
C3433 C529 1.020 . S
C3438 C390 1.049 . S
C3463 C369 0.886 . S
C3468 C39 0.955 . S
C3493 C348 1.245 . S
C3498 C46 1.237 . S
C3523 C18 1.244 . S
C3528 C362 1.252 . S
