# Generated by pormake.
# Topology uof, (4)-cn, num edge types: 1
# Building blocks:
#     Node 0, Type 0, BuildingBlock: QUQFOY_clean_sbu_1, # of connection points: 4
#     Node 1, Type 0, BuildingBlock: QUQFOY_clean_sbu_1, # of connection points: 4
#     Node 2, Type 0, BuildingBlock: QUQFOY_clean_sbu_1, # of connection points: 4
#     Node 3, Type 0, BuildingBlock: QUQFOY_clean_sbu_1, # of connection points: 4
#     Node 4, Type 0, BuildingBlock: QUQFOY_clean_sbu_1, # of connection points: 4
#     Node 5, Type 0, BuildingBlock: QUQFOY_clean_sbu_1, # of connection points: 4
#     Node 6, Type 0, BuildingBlock: QUQFOY_clean_sbu_1, # of connection points: 4
#     Node 7, Type 0, BuildingBlock: QUQFOY_clean_sbu_1, # of connection points: 4
#     Node 8, Type 0, BuildingBlock: QUQFOY_clean_sbu_1, # of connection points: 4
#     Node 9, Type 0, BuildingBlock: QUQFOY_clean_sbu_1, # of connection points: 4
#     Node 10, Type 0, BuildingBlock: QUQFOY_clean_sbu_1, # of connection points: 4
#     Node 11, Type 0, BuildingBlock: QUQFOY_clean_sbu_1, # of connection points: 4
#     Edge 12, Type (0, 0), BuildingBlock: XUDNAN_clean_linker_2, # of connection points: 2
#     Edge 13, Type (0, 0), BuildingBlock: XUDNAN_clean_linker_2, # of connection points: 2
#     Edge 14, Type (0, 0), BuildingBlock: XUDNAN_clean_linker_2, # of connection points: 2
#     Edge 15, Type (0, 0), BuildingBlock: XUDNAN_clean_linker_2, # of connection points: 2
#     Edge 16, Type (0, 0), BuildingBlock: XUDNAN_clean_linker_2, # of connection points: 2
#     Edge 17, Type (0, 0), BuildingBlock: XUDNAN_clean_linker_2, # of connection points: 2
#     Edge 18, Type (0, 0), BuildingBlock: XUDNAN_clean_linker_2, # of connection points: 2
#     Edge 19, Type (0, 0), BuildingBlock: XUDNAN_clean_linker_2, # of connection points: 2
#     Edge 20, Type (0, 0), BuildingBlock: XUDNAN_clean_linker_2, # of connection points: 2
#     Edge 21, Type (0, 0), BuildingBlock: XUDNAN_clean_linker_2, # of connection points: 2
#     Edge 22, Type (0, 0), BuildingBlock: XUDNAN_clean_linker_2, # of connection points: 2
#     Edge 23, Type (0, 0), BuildingBlock: XUDNAN_clean_linker_2, # of connection points: 2
#     Edge 24, Type (0, 0), BuildingBlock: XUDNAN_clean_linker_2, # of connection points: 2
#     Edge 25, Type (0, 0), BuildingBlock: XUDNAN_clean_linker_2, # of connection points: 2
#     Edge 26, Type (0, 0), BuildingBlock: XUDNAN_clean_linker_2, # of connection points: 2
#     Edge 27, Type (0, 0), BuildingBlock: XUDNAN_clean_linker_2, # of connection points: 2
#     Edge 28, Type (0, 0), BuildingBlock: XUDNAN_clean_linker_2, # of connection points: 2
#     Edge 29, Type (0, 0), BuildingBlock: XUDNAN_clean_linker_2, # of connection points: 2
#     Edge 30, Type (0, 0), BuildingBlock: XUDNAN_clean_linker_2, # of connection points: 2
#     Edge 31, Type (0, 0), BuildingBlock: XUDNAN_clean_linker_2, # of connection points: 2
#     Edge 32, Type (0, 0), BuildingBlock: XUDNAN_clean_linker_2, # of connection points: 2
#     Edge 33, Type (0, 0), BuildingBlock: XUDNAN_clean_linker_2, # of connection points: 2
#     Edge 34, Type (0, 0), BuildingBlock: XUDNAN_clean_linker_2, # of connection points: 2
#     Edge 35, Type (0, 0), BuildingBlock: XUDNAN_clean_linker_2, # of connection points: 2
# Relax obj value: 0.156
# Max RMSD: 0.159
# Mean RMSD: 0.159
data_MOF--net-uof--node1-QUQFOY_clean_sbu_1--edge1-XUDNAN_clean_linker_2
_symmetry_space_group_name_H-M    P1
_symmetry_Int_Tables_number       1
_symmetry_cell_setting            triclinic
loop_
_symmetry_equiv_pos_as_xyz
'x, y, z'
_cell_length_a     32.041874
_cell_length_b     32.070025
_cell_length_c     72.813678
_cell_angle_alpha  90.074604
_cell_angle_beta   89.939295
_cell_angle_gamma 120.051
loop_
_atom_site_label
_atom_site_type_symbol
_atom_site_fract_x
_atom_site_fract_y
_atom_site_fract_z
_atom_type_partial_charge
O0 O 0.32207 0.36298 0.23151 0.0
Cd1 Cd 0.25829 0.30244 0.23916 0.0
Cd2 Cd 0.22717 0.33792 0.206 0.0
O3 O 0.29958 0.39115 0.20795 0.0
O4 O 0.27428 0.28155 0.26275 0.0
O5 O 0.21966 0.30407 0.26082 0.0
C6 C 0.24262 0.28878 0.27077 0.0
C7 C 0.16724 0.3497 0.1922 0.0
C8 C 0.3321 0.39384 0.21881 0.0
C9 C 0.21637 0.23715 0.20642 0.0
O10 O 0.21356 0.27087 0.19853 0.0
O11 O 0.23257 0.24202 0.22267 0.0
O12 O 0.20407 0.35492 0.18316 0.0
O13 O 0.16661 0.34254 0.20968 0.0
O14 O 0.95176 0.3215 0.56326 0.0
Cd15 Cd 0.94918 0.26025 0.57365 0.0
Cd16 Cd 0.89755 0.22762 0.5375 0.0
O17 O 0.91099 0.298 0.53707 0.0
O18 O 0.98662 0.2854 0.597 0.0
O19 O 0.91042 0.22795 0.59657 0.0
C20 C 0.94873 0.2555 0.60594 0.0
C21 C 0.8262 0.16011 0.52718 0.0
C22 C 0.9354 0.33073 0.54885 0.0
C23 C 0.98851 0.2227 0.54405 0.0
O24 O 0.95637 0.21985 0.53313 0.0
O25 O 0.98969 0.23525 0.56069 0.0
O26 O 0.85623 0.19195 0.51588 0.0
O27 O 0.83474 0.16845 0.54454 0.0
O28 O 0.68445 0.98562 0.90613 0.0
Cd29 Cd 0.73464 0.9646 0.91093 0.0
Cd30 Cd 0.67758 0.90102 0.88442 0.0
O31 O 0.62738 0.92122 0.89209 0.0
O32 O 0.76864 1.00229 0.93338 0.0
O33 O 0.72691 0.92278 0.93281 0.0
C34 C 0.75208 0.96207 0.94204 0.0
C35 C 0.66584 0.82485 0.87718 0.0
C36 C 0.64219 0.96238 0.89943 0.0
C37 C 0.77736 0.97754 0.87418 0.0
O38 O 0.73419 0.95055 0.86891 0.0
O39 O 0.78733 0.98393 0.89121 0.0
O40 O 0.6471 0.84471 0.86734 0.0
O41 O 0.68615 0.84559 0.89249 0.0
O42 O 0.69293 0.63516 0.23401 0.0
Cd43 Cd 0.75491 0.696 0.24306 0.0
Cd44 Cd 0.78614 0.67764 0.20746 0.0
O45 O 0.71624 0.6193 0.20748 0.0
O46 O 0.73336 0.71007 0.26688 0.0
O47 O 0.79318 0.695 0.26508 0.0
C48 C 0.76683 0.70618 0.27502 0.0
C49 C 0.85602 0.67622 0.19878 0.0
C50 C 0.68369 0.60978 0.21951 0.0
C51 C 0.78773 0.77147 0.21294 0.0
O52 O 0.79179 0.74285 0.20203 0.0
O53 O 0.77574 0.75999 0.22959 0.0
O54 O 0.8242 0.6714 0.18683 0.0
O55 O 0.84625 0.67783 0.21592 0.0
O56 O 0.05238 0.68969 0.56396 0.0
Cd57 Cd 0.05008 0.74733 0.57577 0.0
Cd58 Cd 0.11018 0.78486 0.53703 0.0
O59 O 0.09534 0.71408 0.53817 0.0
O60 O 0.9948 0.71065 0.59299 0.0
O61 O 0.067 0.76355 0.60292 0.0
C62 C 0.02249 0.73312 0.60657 0.0
C63 C 0.17681 0.8455 0.52078 0.0
C64 C 0.07024 0.68118 0.54979 0.0
C65 C 0.02124 0.79367 0.54494 0.0
O66 O 0.05205 0.79428 0.53382 0.0
O67 O 0.01894 0.78027 0.56149 0.0
O68 O 0.14254 0.80864 0.51262 0.0
O69 O 0.17544 0.84643 0.53849 0.0
O70 O 0.36537 0.04017 0.90084 0.0
Cd71 Cd 0.30333 0.04318 0.90545 0.0
Cd72 Cd 0.34899 0.11548 0.87853 0.0
O73 O 0.40833 0.10992 0.88663 0.0
O74 O 0.27452 1.0025 0.9278 0.0
O75 O 0.30004 0.08051 0.92713 0.0
C76 C 0.28157 0.04073 0.93632 0.0
C77 C 0.35144 0.18754 0.87035 0.0
C78 C 0.40515 0.07254 0.89414 0.0
C79 C 0.25755 0.02454 0.8687 0.0
O80 O 0.29705 0.05984 0.86315 0.0
O81 O 0.2504 0.01463 0.88571 0.0
O82 O 0.37298 0.17019 0.86071 0.0
O83 O 0.33215 0.16637 0.88569 0.0
O84 O 0.65613 0.69455 0.43815 0.0
Cd85 Cd 0.72011 0.75894 0.43578 0.0
Cd86 Cd 0.66327 0.7728 0.4659 0.0
O87 O 0.60887 0.70543 0.45748 0.0
O88 O 0.75579 0.73805 0.41906 0.0
O89 O 0.73359 0.78994 0.41052 0.0
C90 C 0.75324 0.76451 0.40639 0.0
C91 C 0.65721 0.84033 0.47379 0.0
C92 C 0.61603 0.67894 0.44637 0.0
C93 C 0.75975 0.78469 0.47461 0.0
O94 O 0.71824 0.77404 0.48041 0.0
O95 O 0.76829 0.78565 0.4575 0.0
O96 O 0.63706 0.80164 0.4836 0.0
O97 O 0.67633 0.8388 0.45833 0.0
O98 O 0.94896 0.63258 0.7819 0.0
Cd99 Cd 0.94733 0.69137 0.77109 0.0
Cd100 Cd 0.89829 0.67569 0.80827 0.0
O101 O 0.91123 0.61838 0.80873 0.0
O102 O 0.98475 0.70226 0.74779 0.0
O103 O 0.90896 0.68476 0.74802 0.0
C104 C 0.94721 0.69474 0.73874 0.0
C105 C 0.82843 0.67272 0.82007 0.0
C106 C 0.93382 0.60837 0.79669 0.0
C107 C 0.9896 0.77041 0.79995 0.0
O108 O 0.95794 0.74251 0.81135 0.0
O109 O 0.98941 0.75738 0.78346 0.0
O110 O 0.86013 0.67196 0.83072 0.0
O111 O 0.83452 0.67159 0.80256 0.0
O112 O 0.31468 0.96022 0.10314 0.0
Cd113 Cd 0.24811 0.95475 0.09887 0.0
Cd114 Cd 0.24348 0.90469 0.13518 0.0
O115 O 0.31103 0.91717 0.12751 0.0
O116 O 0.26808 0.00836 0.08082 0.0
O117 O 0.21873 0.93269 0.07337 0.0
C118 C 0.24232 0.97736 0.06853 0.0
C119 C 0.1779 0.83348 0.14626 0.0
C120 C 0.33423 0.94393 0.11399 0.0
C121 C 0.22228 0.98397 0.13528 0.0
O122 O 0.24064 0.96337 0.14431 0.0
O123 O 0.21645 0.97838 0.11799 0.0
O124 O 0.2165 0.85771 0.15593 0.0
O125 O 0.17839 0.84718 0.12951 0.0
O126 O 0.35308 0.31663 0.4357 0.0
Cd127 Cd 0.2882 0.25301 0.43317 0.0
Cd128 Cd 0.34161 0.23521 0.46211 0.0
O129 O 0.39812 0.30262 0.45502 0.0
O130 O 0.25435 0.27356 0.41541 0.0
O131 O 0.27504 0.21957 0.40833 0.0
C132 C 0.25642 0.24535 0.40336 0.0
C133 C 0.34123 0.16279 0.46572 0.0
C134 C 0.39258 0.33058 0.44417 0.0
C135 C 0.24773 0.22831 0.47186 0.0
O136 O 0.28815 0.23497 0.47733 0.0
O137 O 0.23944 0.22939 0.45482 0.0
O138 O 0.36175 0.197 0.47766 0.0
O139 O 0.32548 0.17175 0.45073 0.0
O140 O 0.04786 0.36375 0.78114 0.0
Cd141 Cd 0.04724 0.30463 0.76921 0.0
Cd142 Cd 0.1106 0.33027 0.80577 0.0
O143 O 0.09359 0.3847 0.80621 0.0
O144 O 0.99195 0.28431 0.75188 0.0
O145 O 0.06511 0.30655 0.74215 0.0
C146 C 0.02035 0.29091 0.73838 0.0
C147 C 0.18321 0.33794 0.81653 0.0
C148 C 0.0664 0.39085 0.7951 0.0
C149 C 0.02372 0.23053 0.79992 0.0
O150 O 0.05516 0.26206 0.81047 0.0
O151 O 0.0188 0.2405 0.78348 0.0
O152 O 0.15215 0.33857 0.8276 0.0
O153 O 0.17514 0.33732 0.79911 0.0
O154 O 0.6995 0.04892 0.10541 0.0
Cd155 Cd 0.76282 0.04668 0.10366 0.0
Cd156 Cd 0.77836 0.11673 0.13361 0.0
O157 O 0.71063 0.10444 0.12609 0.0
O158 O 0.74222 0.99183 0.08608 0.0
O159 O 0.79875 0.06568 0.07924 0.0
C160 C 0.77255 0.02124 0.07432 0.0
C161 C 0.84926 0.19005 0.13817 0.0
C162 C 0.68419 0.07273 0.11432 0.0
C163 C 0.7852 0.02917 0.14261 0.0
O164 O 0.77939 0.06326 0.14833 0.0
O165 O 0.7839 0.02014 0.12553 0.0
O166 O 0.81441 0.17418 0.14992 0.0
O167 O 0.84186 0.16663 0.12291 0.0
H168 H 0.88667 0.21772 0.17263 0.0
H169 H 0.92324 0.24864 0.11502 0.0
H170 H 0.00816 0.30486 0.12351 0.0
H171 H 0.97637 0.33903 0.19165 0.0
H172 H 0.98892 0.31238 0.21112 0.0
H173 H 0.92978 0.28254 0.20084 0.0
H174 H 0.93555 0.20544 0.19633 0.0
H175 H 0.99453 0.23496 0.20653 0.0
H176 H 0.98599 0.20917 0.18388 0.0
H177 H 0.09028 0.34907 0.13789 0.0
H178 H 0.16316 0.37344 0.1565 0.0
H179 H 0.07411 0.31136 0.20487 0.0
C180 C 0.91218 0.23777 0.16184 0.0
C181 C 0.89813 0.22962 0.14316 0.0
C182 C 0.93304 0.25491 0.12941 0.0
C183 C 0.98135 0.28699 0.13413 0.0
C184 C 0.9943 0.29318 0.15266 0.0
C185 C 0.96068 0.2692 0.16631 0.0
C186 C 0.98481 0.27698 0.18493 0.0
C187 C 0.96903 0.30437 0.1979 0.0
C188 C 0.97462 0.22878 0.1934 0.0
C189 C 0.03742 0.30785 0.17958 0.0
C190 C 0.042 0.31759 0.16095 0.0
C191 C 0.08706 0.3423 0.15252 0.0
C192 C 0.12834 0.35605 0.16325 0.0
C193 C 0.12453 0.34478 0.18222 0.0
C194 C 0.07839 0.32156 0.19053 0.0
H195 H 0.81845 0.11994 0.4933 0.0
H196 H 0.74611 0.09316 0.54595 0.0
H197 H 0.68627 0.0109 0.5357 0.0
H198 H 0.70985 0.04484 0.46439 0.0
H199 H 0.74191 0.02383 0.45031 0.0
H200 H 0.77365 0.08299 0.46051 0.0
H201 H 0.83368 0.06173 0.47574 0.0
H202 H 0.80225 1.00272 0.4656 0.0
H203 H 0.81085 0.00906 0.49012 0.0
H204 H 0.6403 0.92881 0.52112 0.0
H205 H 0.61518 0.85288 0.50443 0.0
H206 H 0.7189 0.93227 0.4615 0.0
C207 C 0.78908 0.09735 0.50247 0.0
C208 C 0.78647 0.11331 0.52034 0.0
C209 C 0.7485 0.08195 0.53214 0.0
C210 C 0.71427 0.03519 0.5264 0.0
C211 C 0.71856 0.0202 0.50883 0.0
C212 C 0.7551 0.05039 0.49704 0.0
C213 C 0.75526 0.0239 0.47978 0.0
C214 C 0.74452 0.04516 0.46274 0.0
C215 C 0.80334 0.02438 0.47771 0.0
C216 C 0.71398 0.97369 0.48389 0.0
C217 C 0.69272 0.97252 0.50057 0.0
C218 C 0.65621 0.9295 0.50792 0.0
C219 C 0.6421 0.88647 0.4983 0.0
C220 C 0.66466 0.88651 0.48153 0.0
C221 C 0.70013 0.93102 0.47405 0.0
H222 H 0.72758 0.7939 0.88848 0.0
H223 H 0.61959 0.76862 0.84735 0.0
H224 H 0.64264 0.71709 0.83001 0.0
H225 H 0.81566 0.80903 0.85859 0.0
H226 H 0.84065 0.77978 0.87212 0.0
H227 H 0.80962 0.80652 0.88324 0.0
H228 H 0.75139 0.72518 0.89887 0.0
H229 H 0.78266 0.69819 0.88795 0.0
H230 H 0.71848 0.67183 0.88499 0.0
H231 H 0.68715 0.68083 0.81435 0.0
H232 H 0.74622 0.65881 0.80278 0.0
H233 H 0.82415 0.7058 0.85429 0.0
C234 C 0.70733 0.77585 0.87625 0.0
C235 C 0.67132 0.78494 0.86942 0.0
C236 C 0.64691 0.76188 0.85299 0.0
C237 C 0.65983 0.73253 0.84301 0.0
C238 C 0.69703 0.72613 0.84966 0.0
C239 C 0.71994 0.74653 0.86608 0.0
C240 C 0.76196 0.73814 0.86927 0.0
C241 C 0.80977 0.78622 0.87089 0.0
C242 C 0.75307 0.70644 0.88628 0.0
C243 C 0.76026 0.71152 0.85179 0.0
C244 C 0.7223 0.70456 0.84072 0.0
C245 C 0.71625 0.68499 0.82311 0.0
C246 C 0.75006 0.67269 0.81662 0.0
C247 C 0.78938 0.6798 0.82771 0.0
C248 C 0.7938 0.69868 0.84564 0.0
H249 H 0.89618 0.70187 0.1645 0.0
H250 H 0.92609 0.67425 0.21984 0.0
H251 H 0.01021 0.70088 0.21081 0.0
H252 H 0.97836 0.66969 0.1397 0.0
H253 H 0.99605 0.71811 0.12348 0.0
H254 H 0.93649 0.68928 0.13341 0.0
H255 H 0.95102 0.77212 0.14474 0.0
H256 H 0.01046 0.80111 0.1349 0.0
H257 H 1.00272 0.80906 0.15893 0.0
H258 H 0.09328 0.73989 0.19683 0.0
H259 H 0.16847 0.79025 0.17959 0.0
H260 H 0.08501 0.79389 0.13339 0.0
C261 C 0.91995 0.69989 0.17458 0.0
C262 C 0.90425 0.68523 0.19284 0.0
C263 C 0.93706 0.68478 0.20574 0.0
C264 C 0.98493 0.69979 0.20071 0.0
C265 C 0.99956 0.71522 0.18272 0.0
C266 C 0.96795 0.71526 0.16983 0.0
C267 C 0.99382 0.73841 0.15202 0.0
C268 C 0.97506 0.70167 0.13622 0.0
C269 C 0.98923 0.7828 0.14739 0.0
C270 C 0.04521 0.7527 0.15704 0.0
C271 C 0.04763 0.73833 0.17471 0.0
C272 C 0.09166 0.75059 0.18288 0.0
C273 C 0.13426 0.77924 0.17296 0.0
C274 C 0.13278 0.79566 0.15503 0.0
C275 C 0.08743 0.78105 0.14687 0.0
H276 H 0.33556 0.12505 0.49987 0.0
H277 H 0.31685 0.0873 0.44208 0.0
H278 H 0.28376 1.00161 0.45028 0.0
H279 H 0.36201 0.0296 0.5162 0.0
H280 H 0.32736 0.01992 0.53688 0.0
H281 H 0.35823 0.0788 0.52646 0.0
H282 H 0.27779 0.07946 0.52504 0.0
H283 H 0.2467 0.02067 0.53534 0.0
H284 H 0.22664 0.03092 0.51357 0.0
H285 H 0.2428 0.91958 0.46473 0.0
H286 H 0.19485 0.84792 0.48401 0.0
H287 H 0.23765 0.93838 0.53261 0.0
C288 C 0.32628 0.09901 0.48891 0.0
C289 C 0.3297 0.11303 0.47029 0.0
C290 C 0.31524 0.07752 0.4564 0.0
C291 C 0.29645 0.02875 0.46095 0.0
C292 C 0.29213 0.01595 0.47947 0.0
C293 C 0.30675 0.05011 0.49324 0.0
C294 C 0.29275 0.02653 0.51203 0.0
C295 C 0.33778 0.03948 0.52357 0.0
C296 C 0.25896 0.0402 0.52207 0.0
C297 C 0.26661 0.97371 0.50668 0.0
C298 C 0.26742 0.96843 0.48785 0.0
C299 C 0.24264 0.9233 0.47951 0.0
C300 C 0.21542 0.88273 0.4906 0.0
C301 C 0.21277 0.88734 0.50987 0.0
C302 C 0.23977 0.93345 0.51799 0.0
H303 H 0.28826 0.2163 0.88234 0.0
H304 H 0.39442 0.24323 0.84011 0.0
H305 H 0.36992 0.29454 0.82355 0.0
H306 H 0.19815 0.20193 0.85335 0.0
H307 H 0.17412 0.23085 0.86765 0.0
H308 H 0.20557 0.20354 0.87793 0.0
H309 H 0.26475 0.28432 0.89376 0.0
H310 H 0.23317 0.31189 0.88361 0.0
H311 H 0.29715 0.33808 0.8801 0.0
H312 H 0.32465 0.33109 0.80891 0.0
H313 H 0.26489 0.35323 0.79836 0.0
H314 H 0.18985 0.30519 0.85041 0.0
C315 C 0.30762 0.23447 0.86999 0.0
C316 C 0.34361 0.226 0.86264 0.0
C317 C 0.36703 0.24939 0.84612 0.0
C318 C 0.35334 0.27868 0.83658 0.0
C319 C 0.31642 0.28474 0.8438 0.0
C320 C 0.29433 0.26386 0.86027 0.0
C321 C 0.25265 0.27235 0.86416 0.0
C322 C 0.20482 0.22432 0.86587 0.0
C323 C 0.26254 0.30353 0.88144 0.0
C324 C 0.2536 0.2996 0.847 0.0
C325 C 0.29089 0.30676 0.83548 0.0
C326 C 0.29606 0.3268 0.81803 0.0
C327 C 0.26192 0.33921 0.81212 0.0
C328 C 0.22321 0.3318 0.82366 0.0
C329 C 0.2198 0.31263 0.84146 0.0
H330 H 0.61134 0.55774 0.24433 0.0
H331 H 0.64059 0.58066 0.18592 0.0
H332 H 0.55344 0.53026 0.17945 0.0
H333 H 0.51464 0.43133 0.24003 0.0
H334 H 0.48046 0.4362 0.25875 0.0
H335 H 0.54521 0.47296 0.25856 0.0
H336 H 0.53753 0.54932 0.2617 0.0
H337 H 0.47277 0.51289 0.26154 0.0
H338 H 0.50288 0.56065 0.245 0.0
H339 H 0.46213 0.48407 0.17961 0.0
H340 H 0.37491 0.43303 0.18593 0.0
H341 H 0.4056 0.43482 0.24403 0.0
C342 C 0.59946 0.55147 0.23017 0.0
C343 C 0.6328 0.57313 0.21562 0.0
C344 C 0.61582 0.56405 0.19727 0.0
C345 C 0.56631 0.53585 0.19347 0.0
C346 C 0.53429 0.51618 0.20815 0.0
C347 C 0.55028 0.52253 0.22611 0.0
C348 C 0.50848 0.49643 0.23935 0.0
C349 C 0.51244 0.45687 0.24978 0.0
C350 C 0.50525 0.53196 0.25268 0.0
C351 C 0.46641 0.47505 0.22607 0.0
C352 C 0.482 0.4875 0.20816 0.0
C353 C 0.44958 0.47359 0.19356 0.0
C354 C 0.40007 0.44499 0.1973 0.0
C355 C 0.38346 0.4299 0.21545 0.0
C356 C 0.41723 0.44564 0.23 0.0
H357 H 0.04307 0.60768 0.57447 0.0
H358 H 0.06367 0.63965 0.51618 0.0
H359 H 0.02782 0.55273 0.50941 0.0
H360 H 0.07207 0.51101 0.57312 0.0
H361 H 0.02823 0.47642 0.59053 0.0
H362 H 0.05666 0.54113 0.5905 0.0
H363 H 0.97242 0.53393 0.58986 0.0
H364 H 0.94375 0.46921 0.5895 0.0
H365 H 0.93079 0.50014 0.57172 0.0
H366 H 0.98325 0.4611 0.50905 0.0
H367 H 0.94645 0.37381 0.51531 0.0
H368 H 0.95932 0.40299 0.57385 0.0
C369 C 0.04069 0.59648 0.56028 0.0
C370 C 0.05616 0.63045 0.54585 0.0
C371 C 0.05249 0.61434 0.52747 0.0
C372 C 0.03174 0.56499 0.52349 0.0
C373 C 0.01553 0.53234 0.53804 0.0
C374 C 0.02085 0.54757 0.55608 0.0
C375 C 1.00153 0.50542 0.56925 0.0
C376 C 0.04204 0.50869 0.58157 0.0
C377 C 0.95964 0.502 0.58076 0.0
C378 C 0.98405 0.46398 0.5558 0.0
C379 C 0.99177 0.48009 0.53785 0.0
C380 C 0.97746 0.44815 0.52306 0.0
C381 C 0.95616 0.3986 0.52674 0.0
C382 C 0.95006 0.38162 0.54505 0.0
C383 C 0.96361 0.41488 0.5597 0.0
H384 H 0.40502 0.98712 0.89603 0.0
H385 H 0.50073 0.14189 0.89338 0.0
H386 H 0.57113 0.12985 0.89482 0.0
H387 H 0.47548 0.95976 0.92688 0.0
H388 H 0.46253 0.90485 0.9153 0.0
H389 H 0.41964 0.92553 0.91452 0.0
H390 H 0.42084 0.92381 0.87896 0.0
H391 H 0.46368 0.90306 0.87963 0.0
H392 H 0.47751 0.95678 0.867 0.0
H393 H 0.6305 0.10133 0.89783 0.0
H394 H 0.67621 0.05862 0.89947 0.0
H395 H 0.54256 0.92131 0.89793 0.0
C396 C 0.44082 0.01851 0.89584 0.0
C397 C 0.44749 0.06557 0.89477 0.0
C398 C 0.49484 0.10562 0.89422 0.0
C399 C 0.53498 0.0991 0.89508 0.0
C400 C 0.52711 0.05226 0.89619 0.0
C401 C 0.48127 0.01259 0.89632 0.0
C402 C 0.4829 0.96607 0.89691 0.0
C403 C 0.4587 0.93737 0.91445 0.0
C404 C 0.45987 0.93564 0.87959 0.0
C405 C 0.53692 0.98579 0.89726 0.0
C406 C 0.56158 0.03563 0.89703 0.0
C407 C 0.61161 0.06235 0.89788 0.0
C408 C 0.63722 0.03764 0.8989 0.0
C409 C 0.61301 0.98654 0.8988 0.0
C410 C 0.56208 0.96032 0.89789 0.0
H411 H 0.56296 0.60757 0.47147 0.0
H412 H 0.58777 0.63661 0.41315 0.0
H413 H 0.53514 0.55006 0.40644 0.0
H414 H 0.56789 0.49924 0.47045 0.0
H415 H 0.52157 0.46803 0.48745 0.0
H416 H 0.55736 0.5328 0.48793 0.0
H417 H 0.48007 0.53935 0.48649 0.0
H418 H 0.44401 0.47458 0.48639 0.0
H419 H 0.43702 0.50902 0.46835 0.0
H420 H 0.48134 0.46129 0.40591 0.0
H421 H 0.42717 0.37441 0.41157 0.0
H422 H 0.44135 0.40027 0.47028 0.0
C423 C 0.55608 0.59565 0.45731 0.0
C424 C 0.57846 0.62865 0.44276 0.0
C425 C 0.57026 0.6118 0.42442 0.0
C426 C 0.54068 0.56277 0.42049 0.0
C427 C 0.52019 0.53087 0.43511 0.0
C428 C 0.52728 0.54642 0.45315 0.0
C429 C 0.50264 0.50399 0.46623 0.0
C430 C 0.53958 0.50085 0.47875 0.0
C431 C 0.46361 0.50691 0.47753 0.0
C432 C 0.48058 0.46234 0.4527 0.0
C433 C 0.49107 0.47888 0.43482 0.0
C434 C 0.47321 0.44781 0.41983 0.0
C435 C 0.44278 0.39858 0.42317 0.0
C436 C 0.4312 0.38077 0.44132 0.0
C437 C 0.45096 0.41293 0.45629 0.0
H438 H 0.95407 0.55718 0.77172 0.0
H439 H 0.94723 0.5782 0.83027 0.0
H440 H 0.98319 0.52691 0.83637 0.0
H441 H 0.92371 0.43107 0.77485 0.0
H442 H 0.96322 0.437 0.75616 0.0
H443 H 0.93551 0.47389 0.75675 0.0
H444 H 0.01996 0.55029 0.75432 0.0
H445 H 0.04801 0.51369 0.75409 0.0
H446 H 0.06547 0.56042 0.77109 0.0
H447 H 0.0268 0.4788 0.83573 0.0
H448 H 0.06207 0.42728 0.82872 0.0
H449 H 0.03603 0.43485 0.77069 0.0
C450 C 0.95945 0.55041 0.78584 0.0
C451 C 0.94786 0.57169 0.80053 0.0
C452 C 0.9554 0.5619 0.81882 0.0
C453 C 0.97621 0.53317 0.8224 0.0
C454 C 0.98855 0.51393 0.80756 0.0
C455 C 0.97939 0.52127 0.78966 0.0
C456 C 0.99522 0.49598 0.77614 0.0
C457 C 0.95183 0.45718 0.76534 0.0
C458 C 0.0345 0.53227 0.76315 0.0
C459 C 0.01533 0.47373 0.78918 0.0
C460 C 0.01176 0.48493 0.80724 0.0
C461 C 0.0293 0.46942 0.82165 0.0
C462 C 0.04968 0.44055 0.81753 0.0
C463 C 0.05173 0.42699 0.79917 0.0
C464 C 0.03481 0.44444 0.78487 0.0
H465 H 0.40573 0.96647 0.13972 0.0
H466 H 0.37875 0.95802 0.08108 0.0
H467 H 0.4657 0.99305 0.07504 0.0
H468 H 0.51444 0.08077 0.13849 0.0
H469 H 0.54493 0.06663 0.15608 0.0
H470 H 0.48009 0.03763 0.15612 0.0
H471 H 0.47352 0.95378 0.15577 0.0
H472 H 0.53833 0.98253 0.15606 0.0
H473 H 0.50443 0.94004 0.13817 0.0
H474 H 0.55459 0.02865 0.07511 0.0
H475 H 0.64125 0.06155 0.08135 0.0
H476 H 0.61336 0.0531 0.13989 0.0
C477 C 0.41817 0.97109 0.12563 0.0
C478 C 0.3855 0.95898 0.11083 0.0
C479 C 0.40316 0.96676 0.09259 0.0
C480 C 0.45248 0.98678 0.08902 0.0
C481 C 0.48392 0.99953 0.10386 0.0
C482 C 0.46767 0.99197 0.12181 0.0
C483 C 0.50969 0.01055 0.13516 0.0
C484 C 0.51243 0.05132 0.14717 0.0
C485 C 0.50629 0.96926 0.14698 0.0
C486 C 0.5519 0.02944 0.12188 0.0
C487 C 0.53597 0.02246 0.1039 0.0
C488 C 0.56759 0.03476 0.08912 0.0
C489 C 0.61671 0.05362 0.09278 0.0
C490 C 0.63394 0.06078 0.11105 0.0
C491 C 0.60121 0.04929 0.12579 0.0
H492 H 0.2491 0.02247 0.16976 0.0
H493 H 0.16489 0.01791 0.12231 0.0
H494 H 0.14558 0.07482 0.1376 0.0
H495 H 0.17331 0.03623 0.20522 0.0
H496 H 0.22506 0.07737 0.21861 0.0
H497 H 0.22683 0.0311 0.20511 0.0
H498 H 0.30368 0.09597 0.18853 0.0
H499 H 0.30217 0.1423 0.20195 0.0
H500 H 0.30257 0.1454 0.17723 0.0
H501 H 0.14229 0.13758 0.15622 0.0
H502 H 0.15763 0.20512 0.17656 0.0
H503 H 0.24456 0.17011 0.21206 0.0
C504 C 0.22573 0.03263 0.16275 0.0
C505 C 0.20827 0.01561 0.14489 0.0
C506 C 0.17864 0.03051 0.136 0.0
C507 C 0.1672 0.06254 0.14462 0.0
C508 C 0.1856 0.07921 0.16211 0.0
C509 C 0.21424 0.06486 0.1711 0.0
C510 C 0.23317 0.09171 0.18906 0.0
C511 C 0.2134 0.05702 0.20547 0.0
C512 C 0.28867 0.12056 0.18918 0.0
C513 C 0.212 0.12459 0.18845 0.0
C514 C 0.18404 0.11613 0.17292 0.0
C515 C 0.1635 0.14413 0.16856 0.0
C516 C 0.17262 0.18253 0.18017 0.0
C517 C 0.20221 0.19273 0.1959 0.0
C518 C 0.22116 0.16262 0.2003 0.0
H519 H 0.00635 0.21218 0.50816 0.0
H520 H 0.05859 0.21667 0.56356 0.0
H521 H 0.12736 0.21127 0.55097 0.0
H522 H 0.0443 0.13038 0.48832 0.0
H523 H 0.06122 0.16254 0.46682 0.0
H524 H 0.01306 0.16055 0.48031 0.0
H525 H 0.05702 0.25388 0.48037 0.0
H526 H 0.1054 0.2562 0.46703 0.0
H527 H 0.11814 0.28751 0.48869 0.0
H528 H 0.1937 0.21274 0.53235 0.0
H529 H 0.25343 0.22144 0.50911 0.0
H530 H 0.15823 0.21758 0.46586 0.0
C531 C 0.03159 0.21094 0.51771 0.0
C532 C 0.02696 0.21458 0.53686 0.0
C533 C 0.06133 0.21375 0.54884 0.0
C534 C 0.10041 0.21057 0.54183 0.0
C535 C 0.10442 0.20815 0.52284 0.0
C536 C 0.07085 0.20813 0.51096 0.0
C537 C 0.08536 0.20906 0.49111 0.0
C538 C 0.04881 0.16287 0.48105 0.0
C539 C 0.09187 0.25436 0.48123 0.0
C540 C 0.13302 0.21083 0.49369 0.0
C541 C 0.14306 0.20969 0.51208 0.0
C542 C 0.18601 0.21314 0.5179 0.0
C543 C 0.21977 0.21824 0.50457 0.0
C544 C 0.21053 0.2202 0.48564 0.0
C545 C 0.16627 0.2159 0.48019 0.0
H546 H 0.01283 0.20235 0.83582 0.0
H547 H 0.95685 0.15067 0.7811 0.0
H548 H 0.89373 0.074 0.79435 0.0
H549 H 0.98368 0.08325 0.85595 0.0
H550 H 0.96719 0.09807 0.87765 0.0
H551 H 0.01314 0.14497 0.86366 0.0
H552 H 0.96564 0.19079 0.86421 0.0
H553 H 0.91952 0.14408 0.87805 0.0
H554 H 0.90381 0.16055 0.85657 0.0
H555 H 0.83057 0.00891 0.81356 0.0
H556 H 0.77138 0.95998 0.83731 0.0
H557 H 0.86814 0.05439 0.87959 0.0
C558 C 0.98822 0.17442 0.82654 0.0
C559 C 0.98989 0.18241 0.80741 0.0
C560 C 0.95635 0.14529 0.7958 0.0
C561 C 0.92052 0.10154 0.80319 0.0
C562 C 0.91901 0.09546 0.82217 0.0
C563 C 0.95216 0.13077 0.83369 0.0
C564 C 0.9395 0.11764 0.85369 0.0
C565 C 0.97818 0.11055 0.8633 0.0
C566 C 0.93163 0.1555 0.8637 0.0
C567 C 0.89286 0.07037 0.85162 0.0
C568 C 0.88214 0.05781 0.83334 0.0
C569 C 0.83896 0.01784 0.82792 0.0
C570 C 0.80548 0.99045 0.84152 0.0
C571 C 0.81526 1.00337 0.8603 0.0
C572 C 0.86 0.04321 0.86538 0.0
H573 H 0.79369 0.94944 0.13595 0.0
H574 H 0.79219 0.04036 0.17994 0.0
H575 H 0.79918 0.9875 0.20273 0.0
H576 H 0.7216 0.83929 0.15803 0.0
H577 H 0.75388 0.81072 0.14941 0.0
H578 H 0.75326 0.8581 0.13644 0.0
H579 H 0.84674 0.90594 0.13632 0.0
H580 H 0.84764 0.85859 0.1493 0.0
H581 H 0.87895 0.91959 0.15779 0.0
H582 H 0.79934 0.92144 0.2208 0.0
H583 H 0.79364 0.84684 0.23286 0.0
H584 H 0.79636 0.79997 0.17709 0.0
C585 C 0.79553 0.95868 0.15035 0.0
C586 C 0.79238 0.99905 0.15614 0.0
C587 C 0.79451 0.00961 0.17515 0.0
C588 C 0.79864 0.9799 0.18822 0.0
C589 C 0.80094 0.94003 0.18206 0.0
C590 C 0.79973 0.92949 0.16359 0.0
C591 C 0.80027 0.88307 0.16065 0.0
C592 C 0.75453 0.84559 0.15054 0.0
C593 C 0.84614 0.89237 0.15041 0.0
C594 C 0.80077 0.8686 0.18037 0.0
C595 C 0.8015 0.90208 0.19251 0.0
C596 C 0.79939 0.89521 0.21145 0.0
C597 C 0.79602 0.85269 0.21816 0.0
C598 C 0.79478 0.8177 0.20593 0.0
C599 C 0.79784 0.82627 0.18681 0.0
H600 H 0.84999 0.79829 0.46794 0.0
H601 H 0.75614 0.79436 0.51183 0.0
H602 H 0.81816 0.80681 0.53459 0.0
H603 H 0.89212 0.73168 0.49038 0.0
H604 H 0.95283 0.76505 0.48163 0.0
H605 H 0.9039 0.76242 0.46864 0.0
H606 H 0.9474 0.85575 0.4681 0.0
H607 H 0.99656 0.85865 0.48116 0.0
H608 H 0.96546 0.88877 0.48942 0.0
H609 H 0.88582 0.81041 0.55271 0.0
H610 H 0.95398 0.80353 0.56487 0.0
H611 H 1.00403 0.8062 0.50918 0.0
C612 C 0.84283 0.801 0.4823 0.0
C613 C 0.79824 0.79539 0.48809 0.0
C614 C 0.79003 0.79849 0.50705 0.0
C615 C 0.82514 0.80586 0.52009 0.0
C616 C 0.86837 0.81043 0.51395 0.0
C617 C 0.87744 0.80831 0.49551 0.0
C618 C 0.92511 0.81021 0.49264 0.0
C619 C 0.91803 0.76463 0.48275 0.0
C620 C 0.96074 0.85609 0.48221 0.0
C621 C 0.94053 0.81193 0.51238 0.0
C622 C 0.90767 0.81273 0.52446 0.0
C623 C 0.91228 0.81062 0.54341 0.0
C624 C 0.95104 0.80659 0.55018 0.0
C625 C 0.98445 0.80452 0.53799 0.0
C626 C 0.97956 0.80841 0.51889 0.0
H627 H 0.16743 0.94808 0.87558 0.0
H628 H 0.26271 0.03338 0.83123 0.0
H629 H 0.20099 0.98174 0.80862 0.0
H630 H 0.12236 0.83576 0.85431 0.0
H631 H 0.06191 0.81124 0.86305 0.0
H632 H 0.11194 0.85744 0.8757 0.0
H633 H 0.0716 0.91021 0.87531 0.0
H634 H 0.02143 0.86413 0.86258 0.0
H635 H 0.05452 0.92462 0.85368 0.0
H636 H 0.13173 0.9169 0.79085 0.0
H637 H 0.06024 0.84333 0.77933 0.0
H638 H 0.01014 0.80211 0.83541 0.0
C639 C 0.17519 0.95629 0.86113 0.0
C640 C 0.21991 0.99475 0.85518 0.0
C641 C 0.22867 0.00411 0.83612 0.0
C642 C 0.19379 0.97511 0.82317 0.0
C643 C 0.15024 0.93723 0.8295 0.0
C644 C 0.14077 0.9279 0.84803 0.0
C645 C 0.09217 0.88354 0.85124 0.0
C646 C 0.09744 0.84472 0.86168 0.0
C647 C 0.05791 0.89642 0.8613 0.0
C648 C 0.07637 0.86863 0.83161 0.0
C649 C 0.11012 0.90023 0.81926 0.0
C650 C 0.1047 0.89222 0.80037 0.0
C651 C 0.06403 0.85032 0.79397 0.0
C652 C 0.02947 0.81707 0.80645 0.0
C653 C 0.0355 0.82706 0.82547 0.0
H654 H 0.28717 0.2219 0.37178 0.0
H655 H 0.19261 0.27232 0.3918 0.0
H656 H 0.17415 0.28345 0.35988 0.0
H657 H 0.33845 0.30652 0.33647 0.0
H658 H 0.34317 0.26665 0.32021 0.0
H659 H 0.34413 0.25639 0.34445 0.0
H660 H 0.2721 0.16961 0.34072 0.0
H661 H 0.27117 0.17946 0.3164 0.0
H662 H 0.21746 0.16029 0.32993 0.0
H663 H 0.17077 0.29516 0.32591 0.0
H664 H 0.18322 0.3069 0.29237 0.0
H665 H 0.28204 0.25147 0.29447 0.0
C666 C 0.26156 0.23398 0.36941 0.0
C667 C 0.24085 0.24569 0.38426 0.0
C668 C 0.20863 0.26283 0.38062 0.0
C669 C 0.19787 0.26923 0.36254 0.0
C670 C 0.21982 0.25858 0.3482 0.0
C671 C 0.25091 0.2412 0.35141 0.0
C672 C 0.27261 0.23619 0.33361 0.0
C673 C 0.32785 0.26836 0.3337 0.0
C674 C 0.25741 0.18323 0.32995 0.0
C675 C 0.24952 0.25421 0.31997 0.0
C676 C 0.21878 0.26645 0.32863 0.0
C677 C 0.19445 0.28531 0.31895 0.0
C678 C 0.20181 0.29194 0.2999 0.0
C679 C 0.23356 0.28013 0.29076 0.0
C680 C 0.25742 0.26077 0.30101 0.0
H681 H 0.02763 0.30005 0.62848 0.0
H682 H 0.87219 0.20648 0.62935 0.0
H683 H 0.8741 0.20505 0.66329 0.0
H684 H 0.05331 0.24344 0.66631 0.0
H685 H 0.10182 0.29935 0.6751 0.0
H686 H 0.0882 0.29295 0.65092 0.0
H687 H 0.07825 0.36826 0.65198 0.0
H688 H 0.09177 0.37487 0.67617 0.0
H689 H 0.03645 0.37021 0.66807 0.0
H690 H 0.8926 0.21638 0.69702 0.0
H691 H 0.92637 0.23613 0.72829 0.0
H692 H 0.07051 0.31998 0.70561 0.0
C693 C 0.99394 0.27917 0.63579 0.0
C694 C 0.94965 0.25345 0.62626 0.0
C695 C 0.90648 0.22641 0.63635 0.0
C696 C 0.90723 0.22545 0.65562 0.0
C697 C 0.95148 0.2514 0.66458 0.0
C698 C 0.9941 0.27748 0.655 0.0
C699 C 0.03684 0.302 0.66793 0.0
C700 C 0.07212 0.2833 0.66488 0.0
C701 C 0.06232 0.3571 0.66592 0.0
C702 C 0.01159 0.28584 0.68632 0.0
C703 C 0.96232 0.25691 0.68404 0.0
C704 C 0.93112 0.23872 0.69896 0.0
C705 C 0.9507 0.2503 0.71668 0.0
C706 C 1.00112 0.27948 0.71941 0.0
C707 C 0.03191 0.29727 0.70397 0.0
H708 H 0.80832 0.07495 0.04277 0.0
H709 H 0.73963 0.9286 0.06353 0.0
H710 H 0.73421 0.89805 0.03202 0.0
H711 H 0.73513 0.04851 1.0041 0.0
H712 H 0.78178 0.09058 0.98897 0.0
H713 H 0.78637 0.10175 0.0133 0.0
H714 H 0.86995 0.10748 0.0137 0.0
H715 H 0.86569 0.09649 0.9893 0.0
H716 H 0.87601 0.05845 1.00461 0.0
H717 H 0.72889 0.88249 0.99813 0.0
H718 H 0.72377 0.88339 0.96428 0.0
H719 H 0.79512 0.03955 0.96535 0.0
C720 C 0.79332 0.03662 0.04071 0.0
C721 C 0.77477 0.00419 0.05562 0.0
C722 C 0.75424 0.95414 0.05232 0.0
C723 C 0.7511 0.93642 0.03446 0.0
C724 C 0.76864 0.96915 0.02 0.0
C725 C 0.78951 0.01823 0.0229 0.0
C726 C 0.80191 0.04525 0.00482 0.0
C727 C 0.77466 0.07315 1.00268 0.0
C728 C 0.85665 0.0789 1.003 0.0
C729 C 0.78375 1.00366 0.99135 0.0
C730 C 0.76517 0.9601 1.00038 0.0
C731 C 0.74392 0.91644 0.99089 0.0
C732 C 0.74112 0.91728 0.97166 0.0
C733 C 0.75927 0.96148 0.96213 0.0
C734 C 0.78143 0.00515 0.97218 0.0
H735 H 0.7246 0.7422 0.29782 0.0
H736 H 0.82739 0.69157 0.2974 0.0
H737 H 0.8399 0.70708 0.33082 0.0
H738 H 0.7876 0.83807 0.33128 0.0
H739 H 0.73267 0.82866 0.34188 0.0
H740 H 0.7332 0.81518 0.31787 0.0
H741 H 0.66343 0.72793 0.32329 0.0
H742 H 0.66246 0.74124 0.34725 0.0
H743 H 0.67002 0.69131 0.34051 0.0
H744 H 0.83692 0.7232 0.3646 0.0
H745 H 0.81888 0.73856 0.39606 0.0
H746 H 0.72063 0.78197 0.37411 0.0
C747 C 0.74991 0.73449 0.30471 0.0
C748 C 0.77496 0.71551 0.295 0.0
C749 C 0.80782 0.7061 0.30455 0.0
C750 C 0.81523 0.71492 0.32352 0.0
C751 C 0.7899 0.73363 0.33266 0.0
C752 C 0.75803 0.74347 0.32354 0.0
C753 C 0.73435 0.76231 0.33657 0.0
C754 C 0.74778 0.81414 0.3316 0.0
C755 C 0.67932 0.72868 0.33692 0.0
C756 C 0.75719 0.76075 0.35456 0.0
C757 C 0.78921 0.7442 0.352 0.0
C758 C 0.81244 0.7368 0.36673 0.0
C759 C 0.80198 0.74564 0.38454 0.0
C760 C 0.76886 0.76206 0.38749 0.0
C761 C 0.74696 0.77055 0.37224 0.0
H762 H 0.07189 0.75655 0.63954 0.0
H763 H 0.92792 0.68991 0.6163 0.0
H764 H 0.89315 0.67465 0.64743 0.0
H765 H 0.04077 0.67321 0.67706 0.0
H766 H 0.08084 0.71808 0.69321 0.0
H767 H 0.09482 0.72563 0.66905 0.0
H768 H 0.10013 0.80895 0.66984 0.0
H769 H 0.08613 0.80161 0.694 0.0
H770 H 0.04971 0.81348 0.67838 0.0
H771 H 0.87357 0.66711 0.68108 0.0
H772 H 0.87084 0.66399 0.71504 0.0
H773 H 0.02688 0.73213 0.71652 0.0
C774 C 0.0331 0.73899 0.64103 0.0
C775 C 1.00267 0.72458 0.62547 0.0
C776 C 0.95201 0.70121 0.628 0.0
C777 C 0.93185 0.69248 0.64564 0.0
C778 C 0.96272 0.70694 0.66069 0.0
C779 C 0.01223 0.72937 0.6586 0.0
C780 C 0.03708 0.7397 0.67712 0.0
C781 C 0.06502 0.71252 0.67923 0.0
C782 C 0.07021 0.79417 0.68 0.0
C783 C 0.99383 0.7196 0.68986 0.0
C784 C 0.9513 0.70125 0.68011 0.0
C785 C 0.90664 0.68124 0.68889 0.0
C786 C 0.90542 0.67968 0.70817 0.0
C787 C 0.94854 0.69757 0.71843 0.0
C788 C 0.99323 0.71786 0.70907 0.0
H789 H 0.22089 0.92429 0.03659 0.0
H790 H 0.26489 0.06721 0.05748 0.0
H791 H 0.2728 0.09734 0.02581 0.0
H792 H 0.30383 0.96292 1.00033 0.0
H793 H 0.2644 0.91767 0.98417 0.0
H794 H 0.25613 0.90557 0.00843 0.0
H795 H 0.16743 0.88585 0.00579 0.0
H796 H 0.1754 0.89772 0.98147 0.0
H797 H 0.15443 0.92946 0.99575 0.0
H798 H 0.28244 0.1138 0.99204 0.0
H799 H 0.29429 0.11543 0.95846 0.0
H800 H 0.24575 0.96245 0.95928 0.0
C801 C 0.23102 0.96161 0.03447 0.0
C802 C 0.24187 0.99332 0.0495 0.0
C803 C 0.25625 0.04223 0.04617 0.0
C804 C 0.26072 0.05969 0.02822 0.0
C805 C 0.25082 0.02785 0.01368 0.0
C806 C 0.2362 0.97982 0.01657 0.0
C807 C 0.23153 0.95421 0.99851 0.0
C808 C 0.26603 0.93392 0.99783 0.0
C809 C 0.17907 0.91446 0.99519 0.0
C810 C 0.24673 0.99554 0.98512 0.0
C811 C 0.25716 0.03757 0.99414 0.0
C812 C 0.27389 0.08099 0.98478 0.0
C813 C 0.28057 0.08159 0.96571 0.0
C814 C 0.27083 0.03911 0.9562 0.0
C815 C 0.25317 0.9955 0.9661 0.0
loop_
_geom_bond_atom_site_label_1
_geom_bond_atom_site_label_2
_geom_bond_distance
_geom_bond_site_symmetry_2
_ccdc_geom_bond_type
O0 Cd1 2.223 . S
O0 C8 1.315 . S
Cd1 O0 2.223 . S
Cd1 O4 2.297 . S
Cd1 O5 2.439 . S
Cd1 O11 2.240 . S
Cd2 O3 2.240 . S
Cd2 O10 2.223 . S
Cd2 O12 2.297 . S
Cd2 O13 2.439 . S
O3 Cd2 2.240 . S
O3 C8 1.279 . S
O4 Cd1 2.297 . S
O4 C6 1.247 . S
O5 Cd1 2.439 . S
O5 C6 1.208 . S
C6 O4 1.247 . S
C6 O5 1.208 . S
C7 O12 1.247 . S
C7 O13 1.208 . S
C8 O0 1.315 . S
C8 O3 1.279 . S
C9 O10 1.315 . S
C9 O11 1.279 . S
O10 Cd2 2.223 . S
O10 C9 1.315 . S
O11 Cd1 2.240 . S
O11 C9 1.279 . S
O12 Cd2 2.297 . S
O12 C7 1.247 . S
O13 Cd2 2.439 . S
O13 C7 1.208 . S
O14 Cd15 2.223 . S
O14 C22 1.315 1_455 S
Cd15 O14 2.223 . S
Cd15 O18 2.297 . S
Cd15 O19 2.439 1_455 S
Cd15 O25 2.240 . S
Cd16 O17 2.240 . S
Cd16 O24 2.223 . S
Cd16 O26 2.297 . S
Cd16 O27 2.439 . S
O17 Cd16 2.240 . S
O17 C22 1.279 . S
O18 Cd15 2.297 . S
O18 C20 1.247 1_455 S
O19 Cd15 2.439 1_655 S
O19 C20 1.208 . S
C20 O18 1.247 1_655 S
C20 O19 1.208 . S
C21 O26 1.247 . S
C21 O27 1.208 . S
C22 O14 1.315 1_655 S
C22 O17 1.279 . S
C23 O24 1.315 1_455 S
C23 O25 1.279 . S
O24 Cd16 2.223 . S
O24 C23 1.315 1_655 S
O25 Cd15 2.240 . S
O25 C23 1.279 . S
O26 Cd16 2.297 . S
O26 C21 1.247 . S
O27 Cd16 2.439 . S
O27 C21 1.208 . S
O28 Cd29 2.223 . S
O28 C36 1.315 1_545 S
Cd29 O28 2.223 . S
Cd29 O32 2.297 . S
Cd29 O33 2.439 1_545 S
Cd29 O39 2.240 . S
Cd30 O31 2.240 . S
Cd30 O38 2.223 . S
Cd30 O40 2.297 . S
Cd30 O41 2.439 . S
O31 Cd30 2.240 . S
O31 C36 1.279 . S
O32 Cd29 2.297 . S
O32 C34 1.247 1_545 S
O33 Cd29 2.439 1_565 S
O33 C34 1.208 . S
C34 O32 1.247 1_565 S
C34 O33 1.208 . S
C35 O40 1.247 . S
C35 O41 1.208 . S
C36 O28 1.315 1_565 S
C36 O31 1.279 . S
C37 O38 1.315 1_545 S
C37 O39 1.279 . S
O38 Cd30 2.223 . S
O38 C37 1.315 1_565 S
O39 Cd29 2.240 . S
O39 C37 1.279 . S
O40 Cd30 2.297 . S
O40 C35 1.247 . S
O41 Cd30 2.439 . S
O41 C35 1.208 . S
O42 Cd43 2.223 . S
O42 C50 1.315 . S
Cd43 O42 2.223 . S
Cd43 O46 2.297 . S
Cd43 O47 2.439 . S
Cd43 O53 2.240 . S
Cd44 O45 2.240 . S
Cd44 O52 2.223 . S
Cd44 O54 2.297 . S
Cd44 O55 2.439 . S
O45 Cd44 2.240 . S
O45 C50 1.279 . S
O46 Cd43 2.297 . S
O46 C48 1.247 . S
O47 Cd43 2.439 . S
O47 C48 1.208 . S
C48 O46 1.247 . S
C48 O47 1.208 . S
C49 O54 1.247 . S
C49 O55 1.208 . S
C50 O42 1.315 . S
C50 O45 1.279 . S
C51 O52 1.315 . S
C51 O53 1.279 . S
O52 Cd44 2.223 . S
O52 C51 1.315 . S
O53 Cd43 2.240 . S
O53 C51 1.279 . S
O54 Cd44 2.297 . S
O54 C49 1.247 . S
O55 Cd44 2.439 . S
O55 C49 1.208 . S
O56 Cd57 2.223 . S
O56 C64 1.315 1_655 S
Cd57 O56 2.223 . S
Cd57 O60 2.297 . S
Cd57 O61 2.439 1_655 S
Cd57 O67 2.240 . S
Cd58 O59 2.240 . S
Cd58 O66 2.223 . S
Cd58 O68 2.297 . S
Cd58 O69 2.439 . S
O59 Cd58 2.240 . S
O59 C64 1.279 . S
O60 Cd57 2.297 . S
O60 C62 1.247 1_655 S
O61 Cd57 2.439 1_455 S
O61 C62 1.208 . S
C62 O60 1.247 1_455 S
C62 O61 1.208 . S
C63 O68 1.247 . S
C63 O69 1.208 . S
C64 O56 1.315 1_455 S
C64 O59 1.279 . S
C65 O66 1.315 1_655 S
C65 O67 1.279 . S
O66 Cd58 2.223 . S
O66 C65 1.315 1_455 S
O67 Cd57 2.240 . S
O67 C65 1.279 . S
O68 Cd58 2.297 . S
O68 C63 1.247 . S
O69 Cd58 2.439 . S
O69 C63 1.208 . S
O70 Cd71 2.223 . S
O70 C78 1.315 1_565 S
Cd71 O70 2.223 . S
Cd71 O74 2.297 . S
Cd71 O75 2.439 1_565 S
Cd71 O81 2.240 . S
Cd72 O73 2.240 . S
Cd72 O80 2.223 . S
Cd72 O82 2.297 . S
Cd72 O83 2.439 . S
O73 Cd72 2.240 . S
O73 C78 1.279 . S
O74 Cd71 2.297 . S
O74 C76 1.247 1_565 S
O75 Cd71 2.439 1_545 S
O75 C76 1.208 . S
C76 O74 1.247 1_545 S
C76 O75 1.208 . S
C77 O82 1.247 . S
C77 O83 1.208 . S
C78 O70 1.315 1_545 S
C78 O73 1.279 . S
C79 O80 1.315 1_565 S
C79 O81 1.279 . S
O80 Cd72 2.223 . S
O80 C79 1.315 1_545 S
O81 Cd71 2.240 . S
O81 C79 1.279 . S
O82 Cd72 2.297 . S
O82 C77 1.247 . S
O83 Cd72 2.439 . S
O83 C77 1.208 . S
O84 Cd85 2.223 . S
O84 C92 1.315 . S
Cd85 O84 2.223 . S
Cd85 O88 2.297 . S
Cd85 O89 2.439 . S
Cd85 O95 2.240 . S
Cd86 O87 2.240 . S
Cd86 O94 2.223 . S
Cd86 O96 2.297 . S
Cd86 O97 2.439 . S
O87 Cd86 2.240 . S
O87 C92 1.279 . S
O88 Cd85 2.297 . S
O88 C90 1.247 . S
O89 Cd85 2.439 . S
O89 C90 1.208 . S
C90 O88 1.247 . S
C90 O89 1.208 . S
C91 O96 1.247 . S
C91 O97 1.208 . S
C92 O84 1.315 . S
C92 O87 1.279 . S
C93 O94 1.315 . S
C93 O95 1.279 . S
O94 Cd86 2.223 . S
O94 C93 1.315 . S
O95 Cd85 2.240 . S
O95 C93 1.279 . S
O96 Cd86 2.297 . S
O96 C91 1.247 . S
O97 Cd86 2.439 . S
O97 C91 1.208 . S
O98 Cd99 2.223 . S
O98 C106 1.315 1_455 S
Cd99 O98 2.223 . S
Cd99 O102 2.297 . S
Cd99 O103 2.439 1_455 S
Cd99 O109 2.240 . S
Cd100 O101 2.240 . S
Cd100 O108 2.223 . S
Cd100 O110 2.297 . S
Cd100 O111 2.439 . S
O101 Cd100 2.240 . S
O101 C106 1.279 . S
O102 Cd99 2.297 . S
O102 C104 1.247 1_455 S
O103 Cd99 2.439 1_655 S
O103 C104 1.208 . S
C104 O102 1.247 1_655 S
C104 O103 1.208 . S
C105 O110 1.247 . S
C105 O111 1.208 . S
C106 O98 1.315 1_655 S
C106 O101 1.279 . S
C107 O108 1.315 1_455 S
C107 O109 1.279 . S
O108 Cd100 2.223 . S
O108 C107 1.315 1_655 S
O109 Cd99 2.240 . S
O109 C107 1.279 . S
O110 Cd100 2.297 . S
O110 C105 1.247 . S
O111 Cd100 2.439 . S
O111 C105 1.208 . S
O112 Cd113 2.223 . S
O112 C120 1.315 1_545 S
Cd113 O112 2.223 . S
Cd113 O116 2.297 . S
Cd113 O117 2.439 1_545 S
Cd113 O123 2.240 . S
Cd114 O115 2.240 . S
Cd114 O122 2.223 . S
Cd114 O124 2.297 . S
Cd114 O125 2.439 . S
O115 Cd114 2.240 . S
O115 C120 1.279 . S
O116 Cd113 2.297 . S
O116 C118 1.247 1_545 S
O117 Cd113 2.439 1_565 S
O117 C118 1.208 . S
C118 O116 1.247 1_565 S
C118 O117 1.208 . S
C119 O124 1.247 . S
C119 O125 1.208 . S
C120 O112 1.315 1_565 S
C120 O115 1.279 . S
C121 O122 1.315 1_545 S
C121 O123 1.279 . S
O122 Cd114 2.223 . S
O122 C121 1.315 1_565 S
O123 Cd113 2.240 . S
O123 C121 1.279 . S
O124 Cd114 2.297 . S
O124 C119 1.247 . S
O125 Cd114 2.439 . S
O125 C119 1.208 . S
O126 Cd127 2.223 . S
O126 C134 1.315 . S
Cd127 O126 2.223 . S
Cd127 O130 2.297 . S
Cd127 O131 2.439 . S
Cd127 O137 2.240 . S
Cd128 O129 2.240 . S
Cd128 O136 2.223 . S
Cd128 O138 2.297 . S
Cd128 O139 2.439 . S
O129 Cd128 2.240 . S
O129 C134 1.279 . S
O130 Cd127 2.297 . S
O130 C132 1.247 . S
O131 Cd127 2.439 . S
O131 C132 1.208 . S
C132 O130 1.247 . S
C132 O131 1.208 . S
C133 O138 1.247 . S
C133 O139 1.208 . S
C134 O126 1.315 . S
C134 O129 1.279 . S
C135 O136 1.315 . S
C135 O137 1.279 . S
O136 Cd128 2.223 . S
O136 C135 1.315 . S
O137 Cd127 2.240 . S
O137 C135 1.279 . S
O138 Cd128 2.297 . S
O138 C133 1.247 . S
O139 Cd128 2.439 . S
O139 C133 1.208 . S
O140 Cd141 2.223 . S
O140 C148 1.315 1_655 S
Cd141 O140 2.223 . S
Cd141 O144 2.297 . S
Cd141 O145 2.439 1_655 S
Cd141 O151 2.240 . S
Cd142 O143 2.240 . S
Cd142 O150 2.223 . S
Cd142 O152 2.297 . S
Cd142 O153 2.439 . S
O143 Cd142 2.240 . S
O143 C148 1.279 . S
O144 Cd141 2.297 . S
O144 C146 1.247 1_655 S
O145 Cd141 2.439 1_455 S
O145 C146 1.208 . S
C146 O144 1.247 1_455 S
C146 O145 1.208 . S
C147 O152 1.247 . S
C147 O153 1.208 . S
C148 O140 1.315 1_455 S
C148 O143 1.279 . S
C149 O150 1.315 1_655 S
C149 O151 1.279 . S
O150 Cd142 2.223 . S
O150 C149 1.315 1_455 S
O151 Cd141 2.240 . S
O151 C149 1.279 . S
O152 Cd142 2.297 . S
O152 C147 1.247 . S
O153 Cd142 2.439 . S
O153 C147 1.208 . S
O154 Cd155 2.223 . S
O154 C162 1.315 1_565 S
Cd155 O154 2.223 . S
Cd155 O158 2.297 . S
Cd155 O159 2.439 1_565 S
Cd155 O165 2.240 . S
Cd156 O157 2.240 . S
Cd156 O164 2.223 . S
Cd156 O166 2.297 . S
Cd156 O167 2.439 . S
O157 Cd156 2.240 . S
O157 C162 1.279 . S
O158 Cd155 2.297 . S
O158 C160 1.247 1_565 S
O159 Cd155 2.439 1_545 S
O159 C160 1.208 . S
C160 O158 1.247 1_545 S
C160 O159 1.208 . S
C161 O166 1.247 . S
C161 O167 1.208 . S
C162 O154 1.315 1_545 S
C162 O157 1.279 . S
C163 O164 1.315 1_565 S
C163 O165 1.279 . S
O164 Cd156 2.223 . S
O164 C163 1.315 1_545 S
O165 Cd155 2.240 . S
O165 C163 1.279 . S
O166 Cd156 2.297 . S
O166 C161 1.247 . S
O167 Cd156 2.439 . S
O167 C161 1.208 . S
H168 C180 0.930 . S
H169 C182 0.930 . S
H170 C183 0.930 1_455 S
H171 C187 0.959 . S
H172 C187 0.959 . S
H173 C187 0.961 . S
H174 C188 0.960 . S
H175 C188 0.961 . S
H176 C188 0.959 . S
H177 C191 0.929 . S
H178 C192 0.931 . S
H179 C194 0.930 . S
C180 H168 0.930 . S
C180 C181 1.399 . S
C180 C185 1.399 . S
C181 C180 1.399 . S
C181 C182 1.376 . S
C182 H169 0.930 . S
C182 C181 1.376 . S
C182 C183 1.388 . S
C183 H170 0.930 1_655 S
C183 C182 1.388 . S
C183 C184 1.390 . S
C184 C183 1.390 . S
C184 C185 1.394 . S
C184 C190 1.465 1_655 S
C185 C180 1.399 . S
C185 C184 1.394 . S
C185 C186 1.516 . S
C186 C185 1.516 . S
C186 C187 1.502 . S
C186 C188 1.561 . S
C186 C189 1.526 1_655 S
C187 H171 0.959 . S
C187 H172 0.959 . S
C187 H173 0.961 . S
C187 C186 1.502 . S
C188 H174 0.960 . S
C188 H175 0.961 . S
C188 H176 0.959 . S
C188 C186 1.561 . S
C189 C186 1.526 1_455 S
C189 C190 1.396 . S
C189 C194 1.390 . S
C190 C184 1.465 1_455 S
C190 C189 1.396 . S
C190 C191 1.399 . S
C191 H177 0.929 . S
C191 C190 1.399 . S
C191 C192 1.385 . S
C192 H178 0.931 . S
C192 C191 1.385 . S
C192 C193 1.389 . S
C193 C192 1.389 . S
C193 C194 1.387 . S
C194 H179 0.930 . S
C194 C189 1.390 . S
C194 C193 1.387 . S
H195 C207 0.930 . S
H196 C209 0.930 . S
H197 C210 0.930 1_565 S
H198 C214 0.959 . S
H199 C214 0.959 . S
H200 C214 0.961 . S
H201 C215 0.960 . S
H202 C215 0.961 . S
H203 C215 0.959 . S
H204 C218 0.929 . S
H205 C219 0.931 . S
H206 C221 0.930 . S
C207 H195 0.930 . S
C207 C208 1.399 . S
C207 C212 1.399 . S
C208 C207 1.399 . S
C208 C209 1.376 . S
C209 H196 0.930 . S
C209 C208 1.376 . S
C209 C210 1.388 . S
C210 H197 0.930 1_545 S
C210 C209 1.388 . S
C210 C211 1.390 . S
C211 C210 1.390 . S
C211 C212 1.394 . S
C211 C217 1.465 1_545 S
C212 C207 1.399 . S
C212 C211 1.394 . S
C212 C213 1.516 . S
C213 C212 1.516 . S
C213 C214 1.502 . S
C213 C215 1.561 . S
C213 C216 1.526 1_545 S
C214 H198 0.959 . S
C214 H199 0.959 . S
C214 H200 0.961 . S
C214 C213 1.502 . S
C215 H201 0.960 . S
C215 H202 0.961 . S
C215 H203 0.959 . S
C215 C213 1.561 . S
C216 C213 1.526 1_565 S
C216 C217 1.396 . S
C216 C221 1.390 . S
C217 C211 1.465 1_565 S
C217 C216 1.396 . S
C217 C218 1.399 . S
C218 H204 0.929 . S
C218 C217 1.399 . S
C218 C219 1.385 . S
C219 H205 0.931 . S
C219 C218 1.385 . S
C219 C220 1.389 . S
C220 C219 1.389 . S
C220 C221 1.387 . S
C221 H206 0.930 . S
C221 C216 1.390 . S
C221 C220 1.387 . S
H222 C234 0.930 . S
H223 C236 0.930 . S
H224 C237 0.930 . S
H225 C241 0.959 . S
H226 C241 0.959 . S
H227 C241 0.961 . S
H228 C242 0.960 . S
H229 C242 0.961 . S
H230 C242 0.959 . S
H231 C245 0.929 . S
H232 C246 0.931 . S
H233 C248 0.930 . S
C234 H222 0.930 . S
C234 C235 1.399 . S
C234 C239 1.399 . S
C235 C234 1.399 . S
C235 C236 1.376 . S
C236 H223 0.930 . S
C236 C235 1.376 . S
C236 C237 1.388 . S
C237 H224 0.930 . S
C237 C236 1.388 . S
C237 C238 1.390 . S
C238 C237 1.390 . S
C238 C239 1.394 . S
C238 C244 1.465 . S
C239 C234 1.399 . S
C239 C238 1.394 . S
C239 C240 1.516 . S
C240 C239 1.516 . S
C240 C241 1.502 . S
C240 C242 1.561 . S
C240 C243 1.526 . S
C241 H225 0.959 . S
C241 H226 0.959 . S
C241 H227 0.961 . S
C241 C240 1.502 . S
C242 H228 0.960 . S
C242 H229 0.961 . S
C242 H230 0.959 . S
C242 C240 1.561 . S
C243 C240 1.526 . S
C243 C244 1.396 . S
C243 C248 1.390 . S
C244 C238 1.465 . S
C244 C243 1.396 . S
C244 C245 1.399 . S
C245 H231 0.929 . S
C245 C244 1.399 . S
C245 C246 1.385 . S
C246 H232 0.931 . S
C246 C245 1.385 . S
C246 C247 1.389 . S
C247 C246 1.389 . S
C247 C248 1.387 . S
C248 H233 0.930 . S
C248 C243 1.390 . S
C248 C247 1.387 . S
H249 C261 0.930 . S
H250 C263 0.930 . S
H251 C264 0.930 . S
H252 C268 0.959 . S
H253 C268 0.959 . S
H254 C268 0.961 . S
H255 C269 0.960 . S
H256 C269 0.961 . S
H257 C269 0.959 . S
H258 C272 0.929 . S
H259 C273 0.931 . S
H260 C275 0.930 . S
C261 H249 0.930 . S
C261 C262 1.399 . S
C261 C266 1.399 . S
C262 C261 1.399 . S
C262 C263 1.376 . S
C263 H250 0.930 . S
C263 C262 1.376 . S
C263 C264 1.388 . S
C264 H251 0.930 . S
C264 C263 1.388 . S
C264 C265 1.390 . S
C265 C264 1.390 . S
C265 C266 1.394 . S
C265 C271 1.465 1_655 S
C266 C261 1.399 . S
C266 C265 1.394 . S
C266 C267 1.516 . S
C267 C266 1.516 . S
C267 C268 1.502 . S
C267 C269 1.561 . S
C267 C270 1.526 1_655 S
C268 H252 0.959 . S
C268 H253 0.959 . S
C268 H254 0.961 . S
C268 C267 1.502 . S
C269 H255 0.960 . S
C269 H256 0.961 . S
C269 H257 0.959 . S
C269 C267 1.561 . S
C270 C267 1.526 1_455 S
C270 C271 1.396 . S
C270 C275 1.390 . S
C271 C265 1.465 1_455 S
C271 C270 1.396 . S
C271 C272 1.399 . S
C272 H258 0.929 . S
C272 C271 1.399 . S
C272 C273 1.385 . S
C273 H259 0.931 . S
C273 C272 1.385 . S
C273 C274 1.389 . S
C274 C273 1.389 . S
C274 C275 1.387 . S
C275 H260 0.930 . S
C275 C270 1.390 . S
C275 C274 1.387 . S
H276 C288 0.930 . S
H277 C290 0.930 . S
H278 C291 0.930 . S
H279 C295 0.959 . S
H280 C295 0.959 . S
H281 C295 0.961 . S
H282 C296 0.960 . S
H283 C296 0.961 . S
H284 C296 0.959 . S
H285 C299 0.929 . S
H286 C300 0.931 . S
H287 C302 0.930 . S
C288 H276 0.930 . S
C288 C289 1.399 . S
C288 C293 1.399 . S
C289 C288 1.399 . S
C289 C290 1.376 . S
C290 H277 0.930 . S
C290 C289 1.376 . S
C290 C291 1.388 . S
C291 H278 0.930 . S
C291 C290 1.388 . S
C291 C292 1.390 . S
C292 C291 1.390 . S
C292 C293 1.394 . S
C292 C298 1.465 1_545 S
C293 C288 1.399 . S
C293 C292 1.394 . S
C293 C294 1.516 . S
C294 C293 1.516 . S
C294 C295 1.502 . S
C294 C296 1.561 . S
C294 C297 1.526 1_545 S
C295 H279 0.959 . S
C295 H280 0.959 . S
C295 H281 0.961 . S
C295 C294 1.502 . S
C296 H282 0.960 . S
C296 H283 0.961 . S
C296 H284 0.959 . S
C296 C294 1.561 . S
C297 C294 1.526 1_565 S
C297 C298 1.396 . S
C297 C302 1.390 . S
C298 C292 1.465 1_565 S
C298 C297 1.396 . S
C298 C299 1.399 . S
C299 H285 0.929 . S
C299 C298 1.399 . S
C299 C300 1.385 . S
C300 H286 0.931 . S
C300 C299 1.385 . S
C300 C301 1.389 . S
C301 C300 1.389 . S
C301 C302 1.387 . S
C302 H287 0.930 . S
C302 C297 1.390 . S
C302 C301 1.387 . S
H303 C315 0.930 . S
H304 C317 0.930 . S
H305 C318 0.930 . S
H306 C322 0.959 . S
H307 C322 0.959 . S
H308 C322 0.961 . S
H309 C323 0.960 . S
H310 C323 0.961 . S
H311 C323 0.959 . S
H312 C326 0.929 . S
H313 C327 0.931 . S
H314 C329 0.930 . S
C315 H303 0.930 . S
C315 C316 1.399 . S
C315 C320 1.399 . S
C316 C315 1.399 . S
C316 C317 1.376 . S
C317 H304 0.930 . S
C317 C316 1.376 . S
C317 C318 1.388 . S
C318 H305 0.930 . S
C318 C317 1.388 . S
C318 C319 1.390 . S
C319 C318 1.390 . S
C319 C320 1.394 . S
C319 C325 1.465 . S
C320 C315 1.399 . S
C320 C319 1.394 . S
C320 C321 1.516 . S
C321 C320 1.516 . S
C321 C322 1.502 . S
C321 C323 1.561 . S
C321 C324 1.526 . S
C322 H306 0.959 . S
C322 H307 0.959 . S
C322 H308 0.961 . S
C322 C321 1.502 . S
C323 H309 0.960 . S
C323 H310 0.961 . S
C323 H311 0.959 . S
C323 C321 1.561 . S
C324 C321 1.526 . S
C324 C325 1.396 . S
C324 C329 1.390 . S
C325 C319 1.465 . S
C325 C324 1.396 . S
C325 C326 1.399 . S
C326 H312 0.929 . S
C326 C325 1.399 . S
C326 C327 1.385 . S
C327 H313 0.931 . S
C327 C326 1.385 . S
C327 C328 1.389 . S
C328 C327 1.389 . S
C328 C329 1.387 . S
C329 H314 0.930 . S
C329 C324 1.390 . S
C329 C328 1.387 . S
H330 C342 0.930 . S
H331 C344 0.930 . S
H332 C345 0.930 . S
H333 C349 0.959 . S
H334 C349 0.959 . S
H335 C349 0.961 . S
H336 C350 0.960 . S
H337 C350 0.961 . S
H338 C350 0.959 . S
H339 C353 0.929 . S
H340 C354 0.931 . S
H341 C356 0.930 . S
C342 H330 0.930 . S
C342 C343 1.399 . S
C342 C347 1.399 . S
C343 C342 1.399 . S
C343 C344 1.376 . S
C344 H331 0.930 . S
C344 C343 1.376 . S
C344 C345 1.388 . S
C345 H332 0.930 . S
C345 C344 1.388 . S
C345 C346 1.390 . S
C346 C345 1.390 . S
C346 C347 1.394 . S
C346 C352 1.465 . S
C347 C342 1.399 . S
C347 C346 1.394 . S
C347 C348 1.516 . S
C348 C347 1.516 . S
C348 C349 1.502 . S
C348 C350 1.561 . S
C348 C351 1.526 . S
C349 H333 0.959 . S
C349 H334 0.959 . S
C349 H335 0.961 . S
C349 C348 1.502 . S
C350 H336 0.960 . S
C350 H337 0.961 . S
C350 H338 0.959 . S
C350 C348 1.561 . S
C351 C348 1.526 . S
C351 C352 1.396 . S
C351 C356 1.390 . S
C352 C346 1.465 . S
C352 C351 1.396 . S
C352 C353 1.399 . S
C353 H339 0.929 . S
C353 C352 1.399 . S
C353 C354 1.385 . S
C354 H340 0.931 . S
C354 C353 1.385 . S
C354 C355 1.389 . S
C355 C354 1.389 . S
C355 C356 1.387 . S
C356 H341 0.930 . S
C356 C351 1.390 . S
C356 C355 1.387 . S
H357 C369 0.930 . S
H358 C371 0.923 1_655 S
H359 C372 0.930 . S
H360 C376 0.959 . S
H361 C376 0.959 . S
H362 C376 0.961 . S
H363 C377 0.960 . S
H364 C377 0.961 . S
H365 C377 0.959 . S
H366 C380 0.929 . S
H367 C381 0.931 . S
H368 C383 0.930 . S
C369 H357 0.930 . S
C369 C370 1.399 . S
C369 C374 1.399 . S
C370 C369 1.399 . S
C370 C371 1.376 . S
C371 H358 0.923 1_455 S
C371 C370 1.376 . S
C371 C372 1.388 1_455 S
C372 H359 0.930 . S
C372 C371 1.388 1_655 S
C372 C373 1.390 . S
C373 C372 1.390 . S
C373 C374 1.394 1_655 S
C373 C379 1.465 . S
C374 C369 1.399 . S
C374 C373 1.394 1_455 S
C374 C375 1.516 . S
C375 C374 1.516 . S
C375 C376 1.502 . S
C375 C377 1.561 1_455 S
C375 C378 1.526 1_455 S
C376 H360 0.959 . S
C376 H361 0.959 . S
C376 H362 0.961 . S
C376 C375 1.502 . S
C377 H363 0.960 . S
C377 H364 0.961 . S
C377 H365 0.959 . S
C377 C375 1.561 1_655 S
C378 C375 1.526 1_655 S
C378 C379 1.396 . S
C378 C383 1.390 . S
C379 C373 1.465 . S
C379 C378 1.396 . S
C379 C380 1.399 . S
C380 H366 0.929 . S
C380 C379 1.399 . S
C380 C381 1.385 . S
C381 H367 0.931 . S
C381 C380 1.385 . S
C381 C382 1.389 . S
C382 C381 1.389 . S
C382 C383 1.387 . S
C383 H368 0.930 . S
C383 C378 1.390 . S
C383 C382 1.387 . S
H384 C396 0.930 . S
H385 C398 0.930 . S
H386 C399 0.930 . S
H387 C403 0.959 . S
H388 C403 0.959 . S
H389 C403 0.961 . S
H390 C404 0.960 . S
H391 C404 0.961 . S
H392 C404 0.959 . S
H393 C407 0.929 . S
H394 C408 0.931 . S
H395 C410 0.930 . S
C396 H384 0.930 . S
C396 C397 1.399 1_565 S
C396 C401 1.399 . S
C397 C396 1.399 1_545 S
C397 C398 1.376 . S
C398 H385 0.930 . S
C398 C397 1.376 . S
C398 C399 1.388 . S
C399 H386 0.930 . S
C399 C398 1.388 . S
C399 C400 1.390 . S
C400 C399 1.390 . S
C400 C401 1.394 1_545 S
C400 C406 1.465 . S
C401 C396 1.399 . S
C401 C400 1.394 1_565 S
C401 C402 1.516 . S
C402 C401 1.516 . S
C402 C403 1.502 . S
C402 C404 1.561 . S
C402 C405 1.526 . S
C403 H387 0.959 . S
C403 H388 0.959 . S
C403 H389 0.961 . S
C403 C402 1.502 . S
C404 H390 0.960 . S
C404 H391 0.961 . S
C404 H392 0.959 . S
C404 C402 1.561 . S
C405 C402 1.526 . S
C405 C406 1.396 1_565 S
C405 C410 1.390 . S
C406 C400 1.465 . S
C406 C405 1.396 1_545 S
C406 C407 1.399 . S
C407 H393 0.929 . S
C407 C406 1.399 . S
C407 C408 1.385 . S
C408 H394 0.931 . S
C408 C407 1.385 . S
C408 C409 1.389 1_545 S
C409 C408 1.389 1_565 S
C409 C410 1.387 . S
C410 H395 0.930 . S
C410 C405 1.390 . S
C410 C409 1.387 . S
H411 C423 0.930 . S
H412 C425 0.930 . S
H413 C426 0.930 . S
H414 C430 0.959 . S
H415 C430 0.959 . S
H416 C430 0.961 . S
H417 C431 0.960 . S
H418 C431 0.961 . S
H419 C431 0.959 . S
H420 C434 0.929 . S
H421 C435 0.931 . S
H422 C437 0.930 . S
C423 H411 0.930 . S
C423 C424 1.399 . S
C423 C428 1.399 . S
C424 C423 1.399 . S
C424 C425 1.376 . S
C425 H412 0.930 . S
C425 C424 1.376 . S
C425 C426 1.388 . S
C426 H413 0.930 . S
C426 C425 1.388 . S
C426 C427 1.390 . S
C427 C426 1.390 . S
C427 C428 1.394 . S
C427 C433 1.465 . S
C428 C423 1.399 . S
C428 C427 1.394 . S
C428 C429 1.516 . S
C429 C428 1.516 . S
C429 C430 1.502 . S
C429 C431 1.561 . S
C429 C432 1.526 . S
C430 H414 0.959 . S
C430 H415 0.959 . S
C430 H416 0.961 . S
C430 C429 1.502 . S
C431 H417 0.960 . S
C431 H418 0.961 . S
C431 H419 0.959 . S
C431 C429 1.561 . S
C432 C429 1.526 . S
C432 C433 1.396 . S
C432 C437 1.390 . S
C433 C427 1.465 . S
C433 C432 1.396 . S
C433 C434 1.399 . S
C434 H420 0.929 . S
C434 C433 1.399 . S
C434 C435 1.385 . S
C435 H421 0.931 . S
C435 C434 1.385 . S
C435 C436 1.389 . S
C436 C435 1.389 . S
C436 C437 1.387 . S
C437 H422 0.930 . S
C437 C432 1.390 . S
C437 C436 1.387 . S
H438 C450 0.930 . S
H439 C452 0.930 . S
H440 C453 0.930 . S
H441 C457 0.959 . S
H442 C457 0.959 . S
H443 C457 0.961 . S
H444 C458 0.960 . S
H445 C458 0.961 . S
H446 C458 0.959 . S
H447 C461 0.929 . S
H448 C462 0.931 . S
H449 C464 0.930 . S
C450 H438 0.930 . S
C450 C451 1.399 . S
C450 C455 1.399 . S
C451 C450 1.399 . S
C451 C452 1.376 1_655 S
C452 H439 0.930 . S
C452 C451 1.376 1_455 S
C452 C453 1.388 . S
C453 H440 0.930 . S
C453 C452 1.388 . S
C453 C454 1.390 . S
C454 C453 1.390 . S
C454 C455 1.394 1_455 S
C454 C460 1.465 . S
C455 C450 1.399 . S
C455 C454 1.394 1_655 S
C455 C456 1.516 . S
C456 C455 1.516 . S
C456 C457 1.502 . S
C456 C458 1.561 . S
C456 C459 1.526 . S
C457 H441 0.959 . S
C457 H442 0.959 . S
C457 H443 0.961 . S
C457 C456 1.502 . S
C458 H444 0.960 . S
C458 H445 0.961 . S
C458 H446 0.959 . S
C458 C456 1.561 . S
C459 C456 1.526 . S
C459 C460 1.396 1_655 S
C459 C464 1.390 . S
C460 C454 1.465 . S
C460 C459 1.396 1_455 S
C460 C461 1.399 . S
C461 H447 0.929 . S
C461 C460 1.399 . S
C461 C462 1.385 . S
C462 H448 0.931 . S
C462 C461 1.385 . S
C462 C463 1.389 . S
C463 C462 1.389 . S
C463 C464 1.387 1_455 S
C464 H449 0.930 . S
C464 C459 1.390 . S
C464 C463 1.387 1_655 S
H465 C477 0.929 . S
H466 C479 0.930 . S
H467 C480 0.930 . S
H468 C484 0.959 . S
H469 C484 0.959 . S
H470 C484 0.961 . S
H471 C485 0.960 . S
H472 C485 0.961 . S
H473 C485 0.959 . S
H474 C488 0.929 . S
H475 C489 0.931 . S
H476 C491 0.930 . S
C477 H465 0.929 . S
C477 C478 1.399 1_545 S
C477 C482 1.406 . S
C478 C477 1.399 1_565 S
C478 C479 1.376 . S
C479 H466 0.930 . S
C479 C478 1.376 . S
C479 C480 1.388 . S
C480 H467 0.930 . S
C480 C479 1.388 . S
C480 C481 1.390 . S
C481 C480 1.390 . S
C481 C482 1.387 1_565 S
C481 C487 1.465 . S
C482 C477 1.406 . S
C482 C481 1.387 1_545 S
C482 C483 1.515 . S
C483 C482 1.515 . S
C483 C484 1.502 . S
C483 C485 1.561 1_545 S
C483 C486 1.526 . S
C484 H468 0.959 . S
C484 H469 0.959 . S
C484 H470 0.961 . S
C484 C483 1.502 . S
C485 H471 0.960 . S
C485 H472 0.961 . S
C485 H473 0.959 . S
C485 C483 1.561 1_565 S
C486 C483 1.526 . S
C486 C487 1.396 1_545 S
C486 C491 1.390 . S
C487 C481 1.465 . S
C487 C486 1.396 1_565 S
C487 C488 1.399 . S
C488 H474 0.929 . S
C488 C487 1.399 . S
C488 C489 1.385 . S
C489 H475 0.931 . S
C489 C488 1.385 . S
C489 C490 1.389 1_565 S
C490 C489 1.389 1_545 S
C490 C491 1.387 . S
C491 H476 0.930 . S
C491 C486 1.390 . S
C491 C490 1.387 . S
H492 C504 0.930 . S
H493 C506 0.930 . S
H494 C507 0.930 . S
H495 C511 0.959 . S
H496 C511 0.959 . S
H497 C511 0.961 . S
H498 C512 0.960 . S
H499 C512 0.961 . S
H500 C512 0.959 . S
H501 C515 0.929 . S
H502 C516 0.931 . S
H503 C518 0.930 . S
C504 H492 0.930 . S
C504 C505 1.399 . S
C504 C509 1.399 . S
C505 C504 1.399 . S
C505 C506 1.376 . S
C506 H493 0.930 . S
C506 C505 1.376 . S
C506 C507 1.388 . S
C507 H494 0.930 . S
C507 C506 1.388 . S
C507 C508 1.390 . S
C508 C507 1.390 . S
C508 C509 1.394 . S
C508 C514 1.465 . S
C509 C504 1.399 . S
C509 C508 1.394 . S
C509 C510 1.516 . S
C510 C509 1.516 . S
C510 C511 1.502 . S
C510 C512 1.561 . S
C510 C513 1.526 . S
C511 H495 0.959 . S
C511 H496 0.959 . S
C511 H497 0.961 . S
C511 C510 1.502 . S
C512 H498 0.960 . S
C512 H499 0.961 . S
C512 H500 0.959 . S
C512 C510 1.561 . S
C513 C510 1.526 . S
C513 C514 1.396 . S
C513 C518 1.390 . S
C514 C508 1.465 . S
C514 C513 1.396 . S
C514 C515 1.399 . S
C515 H501 0.929 . S
C515 C514 1.399 . S
C515 C516 1.385 . S
C516 H502 0.931 . S
C516 C515 1.385 . S
C516 C517 1.389 . S
C517 C516 1.389 . S
C517 C518 1.387 . S
C518 H503 0.930 . S
C518 C513 1.390 . S
C518 C517 1.387 . S
H519 C531 0.930 . S
H520 C533 0.930 . S
H521 C534 0.930 . S
H522 C538 0.959 . S
H523 C538 0.959 . S
H524 C538 0.961 . S
H525 C539 0.960 . S
H526 C539 0.961 . S
H527 C539 0.959 . S
H528 C542 0.929 . S
H529 C543 0.931 . S
H530 C545 0.930 . S
C531 H519 0.930 . S
C531 C532 1.399 . S
C531 C536 1.399 . S
C532 C531 1.399 . S
C532 C533 1.376 . S
C533 H520 0.930 . S
C533 C532 1.376 . S
C533 C534 1.388 . S
C534 H521 0.930 . S
C534 C533 1.388 . S
C534 C535 1.390 . S
C535 C534 1.390 . S
C535 C536 1.394 . S
C535 C541 1.465 . S
C536 C531 1.399 . S
C536 C535 1.394 . S
C536 C537 1.516 . S
C537 C536 1.516 . S
C537 C538 1.502 . S
C537 C539 1.561 . S
C537 C540 1.526 . S
C538 H522 0.959 . S
C538 H523 0.959 . S
C538 H524 0.961 . S
C538 C537 1.502 . S
C539 H525 0.960 . S
C539 H526 0.961 . S
C539 H527 0.959 . S
C539 C537 1.561 . S
C540 C537 1.526 . S
C540 C541 1.396 . S
C540 C545 1.390 . S
C541 C535 1.465 . S
C541 C540 1.396 . S
C541 C542 1.399 . S
C542 H528 0.929 . S
C542 C541 1.399 . S
C542 C543 1.385 . S
C543 H529 0.931 . S
C543 C542 1.385 . S
C543 C544 1.389 . S
C544 C543 1.389 . S
C544 C545 1.387 . S
C545 H530 0.930 . S
C545 C540 1.390 . S
C545 C544 1.387 . S
H546 C558 0.930 . S
H547 C560 0.930 . S
H548 C561 0.930 . S
H549 C565 0.959 . S
H550 C565 0.959 . S
H551 C565 0.961 . S
H552 C566 0.960 . S
H553 C566 0.961 . S
H554 C566 0.959 . S
H555 C569 0.929 . S
H556 C570 0.931 . S
H557 C572 0.930 . S
C558 H546 0.930 . S
C558 C559 1.399 . S
C558 C563 1.399 . S
C559 C558 1.399 . S
C559 C560 1.376 . S
C560 H547 0.930 . S
C560 C559 1.376 . S
C560 C561 1.388 . S
C561 H548 0.930 . S
C561 C560 1.388 . S
C561 C562 1.390 . S
C562 C561 1.390 . S
C562 C563 1.394 . S
C562 C568 1.465 . S
C563 C558 1.399 . S
C563 C562 1.394 . S
C563 C564 1.516 . S
C564 C563 1.516 . S
C564 C565 1.502 . S
C564 C566 1.561 . S
C564 C567 1.526 . S
C565 H549 0.959 . S
C565 H550 0.959 . S
C565 H551 0.961 . S
C565 C564 1.502 . S
C566 H552 0.960 . S
C566 H553 0.961 . S
C566 H554 0.959 . S
C566 C564 1.561 . S
C567 C564 1.526 . S
C567 C568 1.396 . S
C567 C572 1.390 . S
C568 C562 1.465 . S
C568 C567 1.396 . S
C568 C569 1.399 . S
C569 H555 0.929 . S
C569 C568 1.399 . S
C569 C570 1.385 . S
C570 H556 0.931 . S
C570 C569 1.385 . S
C570 C571 1.389 . S
C571 C570 1.389 . S
C571 C572 1.387 . S
C572 H557 0.930 . S
C572 C567 1.390 . S
C572 C571 1.387 . S
H573 C585 0.930 . S
H574 C587 0.929 1_545 S
H575 C588 0.930 . S
H576 C592 0.959 . S
H577 C592 0.959 . S
H578 C592 0.961 . S
H579 C593 0.960 . S
H580 C593 0.961 . S
H581 C593 0.959 . S
H582 C596 0.929 . S
H583 C597 0.931 . S
H584 C599 0.930 . S
C585 H573 0.930 . S
C585 C586 1.399 . S
C585 C590 1.399 . S
C586 C585 1.399 . S
C586 C587 1.376 . S
C587 H574 0.929 1_565 S
C587 C586 1.376 . S
C587 C588 1.388 . S
C588 H575 0.930 . S
C588 C587 1.388 . S
C588 C589 1.390 . S
C589 C588 1.390 . S
C589 C590 1.394 . S
C589 C595 1.465 . S
C590 C585 1.399 . S
C590 C589 1.394 . S
C590 C591 1.516 . S
C591 C590 1.516 . S
C591 C592 1.502 . S
C591 C593 1.561 . S
C591 C594 1.526 . S
C592 H576 0.959 . S
C592 H577 0.959 . S
C592 H578 0.961 . S
C592 C591 1.502 . S
C593 H579 0.960 . S
C593 H580 0.961 . S
C593 H581 0.959 . S
C593 C591 1.561 . S
C594 C591 1.526 . S
C594 C595 1.396 . S
C594 C599 1.390 . S
C595 C589 1.465 . S
C595 C594 1.396 . S
C595 C596 1.399 . S
C596 H582 0.929 . S
C596 C595 1.399 . S
C596 C597 1.385 . S
C597 H583 0.931 . S
C597 C596 1.385 . S
C597 C598 1.389 . S
C598 C597 1.389 . S
C598 C599 1.387 . S
C599 H584 0.930 . S
C599 C594 1.390 . S
C599 C598 1.387 . S
H600 C612 0.930 . S
H601 C614 0.930 . S
H602 C615 0.930 . S
H603 C619 0.959 . S
H604 C619 0.959 . S
H605 C619 0.961 . S
H606 C620 0.960 . S
H607 C620 0.961 . S
H608 C620 0.959 . S
H609 C623 0.929 . S
H610 C624 0.931 . S
H611 C626 0.930 . S
C612 H600 0.930 . S
C612 C613 1.399 . S
C612 C617 1.399 . S
C613 C612 1.399 . S
C613 C614 1.376 . S
C614 H601 0.930 . S
C614 C613 1.376 . S
C614 C615 1.388 . S
C615 H602 0.930 . S
C615 C614 1.388 . S
C615 C616 1.390 . S
C616 C615 1.390 . S
C616 C617 1.394 . S
C616 C622 1.465 . S
C617 C612 1.399 . S
C617 C616 1.394 . S
C617 C618 1.516 . S
C618 C617 1.516 . S
C618 C619 1.502 . S
C618 C620 1.561 . S
C618 C621 1.526 . S
C619 H603 0.959 . S
C619 H604 0.959 . S
C619 H605 0.961 . S
C619 C618 1.502 . S
C620 H606 0.960 . S
C620 H607 0.961 . S
C620 H608 0.959 . S
C620 C618 1.561 . S
C621 C618 1.526 . S
C621 C622 1.396 . S
C621 C626 1.390 . S
C622 C616 1.465 . S
C622 C621 1.396 . S
C622 C623 1.399 . S
C623 H609 0.929 . S
C623 C622 1.399 . S
C623 C624 1.385 . S
C624 H610 0.931 . S
C624 C623 1.385 . S
C624 C625 1.389 . S
C625 C624 1.389 . S
C625 C626 1.387 . S
C626 H611 0.930 . S
C626 C621 1.390 . S
C626 C625 1.387 . S
H627 C639 0.930 . S
H628 C641 0.930 1_545 S
H629 C642 0.930 . S
H630 C646 0.959 . S
H631 C646 0.959 . S
H632 C646 0.961 . S
H633 C647 0.960 . S
H634 C647 0.961 . S
H635 C647 0.959 . S
H636 C650 0.929 . S
H637 C651 0.931 . S
H638 C653 0.930 . S
C639 H627 0.930 . S
C639 C640 1.399 . S
C639 C644 1.399 . S
C640 C639 1.399 . S
C640 C641 1.376 . S
C641 H628 0.930 1_565 S
C641 C640 1.376 . S
C641 C642 1.388 . S
C642 H629 0.930 . S
C642 C641 1.388 . S
C642 C643 1.390 . S
C643 C642 1.390 . S
C643 C644 1.394 . S
C643 C649 1.465 . S
C644 C639 1.399 . S
C644 C643 1.394 . S
C644 C645 1.516 . S
C645 C644 1.516 . S
C645 C646 1.502 . S
C645 C647 1.561 . S
C645 C648 1.526 . S
C646 H630 0.959 . S
C646 H631 0.959 . S
C646 H632 0.961 . S
C646 C645 1.502 . S
C647 H633 0.960 . S
C647 H634 0.961 . S
C647 H635 0.959 . S
C647 C645 1.561 . S
C648 C645 1.526 . S
C648 C649 1.396 . S
C648 C653 1.390 . S
C649 C643 1.465 . S
C649 C648 1.396 . S
C649 C650 1.399 . S
C650 H636 0.929 . S
C650 C649 1.399 . S
C650 C651 1.385 . S
C651 H637 0.931 . S
C651 C650 1.385 . S
C651 C652 1.389 . S
C652 C651 1.389 . S
C652 C653 1.387 . S
C653 H638 0.930 . S
C653 C648 1.390 . S
C653 C652 1.387 . S
H654 C666 0.930 . S
H655 C668 0.930 . S
H656 C669 0.930 . S
H657 C673 0.959 . S
H658 C673 0.959 . S
H659 C673 0.961 . S
H660 C674 0.960 . S
H661 C674 0.961 . S
H662 C674 0.959 . S
H663 C677 0.929 . S
H664 C678 0.931 . S
H665 C680 0.930 . S
C666 H654 0.930 . S
C666 C667 1.399 . S
C666 C671 1.399 . S
C667 C666 1.399 . S
C667 C668 1.376 . S
C668 H655 0.930 . S
C668 C667 1.376 . S
C668 C669 1.388 . S
C669 H656 0.930 . S
C669 C668 1.388 . S
C669 C670 1.390 . S
C670 C669 1.390 . S
C670 C671 1.394 . S
C670 C676 1.465 . S
C671 C666 1.399 . S
C671 C670 1.394 . S
C671 C672 1.516 . S
C672 C671 1.516 . S
C672 C673 1.502 . S
C672 C674 1.561 . S
C672 C675 1.526 . S
C673 H657 0.959 . S
C673 H658 0.959 . S
C673 H659 0.961 . S
C673 C672 1.502 . S
C674 H660 0.960 . S
C674 H661 0.961 . S
C674 H662 0.959 . S
C674 C672 1.561 . S
C675 C672 1.526 . S
C675 C676 1.396 . S
C675 C680 1.390 . S
C676 C670 1.465 . S
C676 C675 1.396 . S
C676 C677 1.399 . S
C677 H663 0.929 . S
C677 C676 1.399 . S
C677 C678 1.385 . S
C678 H664 0.931 . S
C678 C677 1.385 . S
C678 C679 1.389 . S
C679 C678 1.389 . S
C679 C680 1.387 . S
C680 H665 0.930 . S
C680 C675 1.390 . S
C680 C679 1.387 . S
H681 C693 0.930 . S
H682 C695 0.930 . S
H683 C696 0.930 . S
H684 C700 0.959 . S
H685 C700 0.959 . S
H686 C700 0.961 . S
H687 C701 0.960 . S
H688 C701 0.961 . S
H689 C701 0.959 . S
H690 C704 0.929 . S
H691 C705 0.931 . S
H692 C707 0.930 . S
C693 H681 0.930 . S
C693 C694 1.399 . S
C693 C698 1.399 . S
C694 C693 1.399 . S
C694 C695 1.376 . S
C695 H682 0.930 . S
C695 C694 1.376 . S
C695 C696 1.388 . S
C696 H683 0.930 . S
C696 C695 1.388 . S
C696 C697 1.390 . S
C697 C696 1.390 . S
C697 C698 1.394 . S
C697 C703 1.465 1_655 S
C698 C693 1.399 . S
C698 C697 1.394 . S
C698 C699 1.516 . S
C699 C698 1.516 . S
C699 C700 1.502 1_655 S
C699 C701 1.561 . S
C699 C702 1.526 1_655 S
C700 H684 0.959 . S
C700 H685 0.959 . S
C700 H686 0.961 . S
C700 C699 1.502 1_455 S
C701 H687 0.960 . S
C701 H688 0.961 . S
C701 H689 0.959 . S
C701 C699 1.561 . S
C702 C699 1.526 1_455 S
C702 C703 1.396 . S
C702 C707 1.390 . S
C703 C697 1.465 1_455 S
C703 C702 1.396 . S
C703 C704 1.399 . S
C704 H690 0.929 . S
C704 C703 1.399 . S
C704 C705 1.385 . S
C705 H691 0.931 . S
C705 C704 1.385 . S
C705 C706 1.389 . S
C706 C705 1.389 . S
C706 C707 1.387 . S
C707 H692 0.930 . S
C707 C702 1.390 . S
C707 C706 1.387 . S
H708 C720 0.930 . S
H709 C722 0.930 . S
H710 C723 0.930 . S
H711 C727 0.959 . S
H712 C727 0.959 . S
H713 C727 0.961 . S
H714 C728 0.986 . S
H715 C728 0.961 . S
H716 C728 0.959 . S
H717 C731 0.929 . S
H718 C732 0.931 . S
H719 C734 0.930 . S
C720 H708 0.930 . S
C720 C721 1.399 . S
C720 C725 1.399 . S
C721 C720 1.399 . S
C721 C722 1.376 1_545 S
C722 H709 0.930 . S
C722 C721 1.376 1_565 S
C722 C723 1.388 . S
C723 H710 0.930 . S
C723 C722 1.388 . S
C723 C724 1.390 . S
C724 C723 1.390 . S
C724 C725 1.394 1_565 S
C724 C730 1.465 1_554 S
C725 C720 1.399 . S
C725 C724 1.394 1_545 S
C725 C726 1.516 1_554 S
C726 C725 1.516 1_556 S
C726 C727 1.502 . S
C726 C728 1.561 . S
C726 C729 1.526 . S
C727 H711 0.959 . S
C727 H712 0.959 . S
C727 H713 0.961 . S
C727 C726 1.502 . S
C728 H714 0.986 . S
C728 H715 0.961 . S
C728 H716 0.959 . S
C728 C726 1.561 . S
C729 C726 1.526 . S
C729 C730 1.396 1_545 S
C729 C734 1.390 . S
C730 C724 1.465 1_556 S
C730 C729 1.396 1_565 S
C730 C731 1.399 . S
C731 H717 0.929 . S
C731 C730 1.399 . S
C731 C732 1.385 . S
C732 H718 0.931 . S
C732 C731 1.385 . S
C732 C733 1.389 . S
C733 C732 1.389 . S
C733 C734 1.387 1_565 S
C734 H719 0.930 . S
C734 C729 1.390 . S
C734 C733 1.387 1_545 S
H735 C747 0.930 . S
H736 C749 0.930 . S
H737 C750 0.930 . S
H738 C754 0.959 . S
H739 C754 0.959 . S
H740 C754 0.961 . S
H741 C755 0.960 . S
H742 C755 0.961 . S
H743 C755 0.959 . S
H744 C758 0.929 . S
H745 C759 0.931 . S
H746 C761 0.930 . S
C747 H735 0.930 . S
C747 C748 1.399 . S
C747 C752 1.399 . S
C748 C747 1.399 . S
C748 C749 1.376 . S
C749 H736 0.930 . S
C749 C748 1.376 . S
C749 C750 1.388 . S
C750 H737 0.930 . S
C750 C749 1.388 . S
C750 C751 1.390 . S
C751 C750 1.390 . S
C751 C752 1.394 . S
C751 C757 1.465 . S
C752 C747 1.399 . S
C752 C751 1.394 . S
C752 C753 1.516 . S
C753 C752 1.516 . S
C753 C754 1.502 . S
C753 C755 1.561 . S
C753 C756 1.526 . S
C754 H738 0.959 . S
C754 H739 0.959 . S
C754 H740 0.961 . S
C754 C753 1.502 . S
C755 H741 0.960 . S
C755 H742 0.961 . S
C755 H743 0.959 . S
C755 C753 1.561 . S
C756 C753 1.526 . S
C756 C757 1.396 . S
C756 C761 1.390 . S
C757 C751 1.465 . S
C757 C756 1.396 . S
C757 C758 1.399 . S
C758 H744 0.929 . S
C758 C757 1.399 . S
C758 C759 1.385 . S
C759 H745 0.931 . S
C759 C758 1.385 . S
C759 C760 1.389 . S
C760 C759 1.389 . S
C760 C761 1.387 . S
C761 H746 0.930 . S
C761 C756 1.390 . S
C761 C760 1.387 . S
H762 C774 0.930 . S
H763 C776 0.930 . S
H764 C777 0.930 . S
H765 C781 0.959 . S
H766 C781 0.959 . S
H767 C781 0.961 . S
H768 C782 0.960 . S
H769 C782 0.961 . S
H770 C782 0.959 . S
H771 C785 0.929 . S
H772 C786 0.931 . S
H773 C788 0.930 . S
C774 H762 0.930 . S
C774 C775 1.399 . S
C774 C779 1.399 . S
C775 C774 1.399 . S
C775 C776 1.376 1_455 S
C776 H763 0.930 . S
C776 C775 1.376 1_655 S
C776 C777 1.388 . S
C777 H764 0.930 . S
C777 C776 1.388 . S
C777 C778 1.390 . S
C778 C777 1.390 . S
C778 C779 1.394 1_655 S
C778 C784 1.465 . S
C779 C774 1.399 . S
C779 C778 1.394 1_455 S
C779 C780 1.516 . S
C780 C779 1.516 . S
C780 C781 1.502 . S
C780 C782 1.561 . S
C780 C783 1.526 . S
C781 H765 0.959 . S
C781 H766 0.959 . S
C781 H767 0.961 . S
C781 C780 1.502 . S
C782 H768 0.960 . S
C782 H769 0.961 . S
C782 H770 0.959 . S
C782 C780 1.561 . S
C783 C780 1.526 . S
C783 C784 1.396 1_455 S
C783 C788 1.390 . S
C784 C778 1.465 . S
C784 C783 1.396 1_655 S
C784 C785 1.399 . S
C785 H771 0.929 . S
C785 C784 1.399 . S
C785 C786 1.385 . S
C786 H772 0.931 . S
C786 C785 1.385 . S
C786 C787 1.389 . S
C787 C786 1.389 . S
C787 C788 1.387 1_655 S
C788 H773 0.930 . S
C788 C783 1.390 . S
C788 C787 1.387 1_455 S
H789 C801 0.930 . S
H790 C803 0.930 . S
H791 C804 0.930 . S
H792 C808 0.959 . S
H793 C808 0.959 . S
H794 C808 0.961 1_554 S
H795 C809 0.960 . S
H796 C809 0.961 . S
H797 C809 0.959 . S
H798 C812 0.929 . S
H799 C813 0.931 . S
H800 C815 0.930 . S
C801 H789 0.930 . S
C801 C802 1.399 . S
C801 C806 1.399 . S
C802 C801 1.399 . S
C802 C803 1.376 1_565 S
C803 H790 0.930 . S
C803 C802 1.376 1_545 S
C803 C804 1.388 . S
C804 H791 0.930 . S
C804 C803 1.388 . S
C804 C805 1.390 . S
C805 C804 1.390 . S
C805 C806 1.394 1_545 S
C805 C811 1.465 1_554 S
C806 C801 1.399 . S
C806 C805 1.394 1_565 S
C806 C807 1.516 1_554 S
C807 C806 1.516 1_556 S
C807 C808 1.502 . S
C807 C809 1.561 . S
C807 C810 1.526 . S
C808 H792 0.959 . S
C808 H793 0.959 . S
C808 H794 0.961 1_556 S
C808 C807 1.502 . S
C809 H795 0.960 . S
C809 H796 0.961 . S
C809 H797 0.959 . S
C809 C807 1.561 . S
C810 C807 1.526 . S
C810 C811 1.396 1_565 S
C810 C815 1.390 . S
C811 C805 1.465 1_556 S
C811 C810 1.396 1_545 S
C811 C812 1.399 . S
C812 H798 0.929 . S
C812 C811 1.399 . S
C812 C813 1.385 . S
C813 H799 0.931 . S
C813 C812 1.385 . S
C813 C814 1.389 . S
C814 C813 1.389 . S
C814 C815 1.387 1_545 S
C815 H800 0.930 . S
C815 C810 1.390 . S
C815 C814 1.387 1_565 S
C181 C161 1.572 . S
C193 C7 1.506 . S
C208 C21 1.567 . S
C220 C91 1.506 . S
C235 C35 1.504 . S
C247 C105 1.569 . S
C262 C49 1.552 . S
C274 C119 1.518 . S
C289 C133 1.556 . S
C301 C63 1.514 . S
C316 C77 1.506 . S
C328 C147 1.565 . S
C343 C50 1.144 . S
C355 C8 1.181 . S
C370 C64 1.157 . S
C382 C22 1.180 . S
C397 C78 1.156 . S
C409 C36 1.104 . S
C424 C92 1.104 . S
C436 C134 1.109 . S
C451 C106 1.096 . S
C463 C148 1.132 . S
C478 C120 1.134 . S
C490 C162 1.097 . S
C505 C121 0.975 . S
C517 C9 0.958 . S
C532 C23 0.959 . S
C544 C135 0.945 . S
C559 C149 1.004 . S
C571 C37 0.993 . S
C586 C163 0.934 . S
C598 C51 0.946 . S
C613 C93 0.994 . S
C625 C65 1.004 . S
C640 C79 0.931 . S
C652 C107 0.940 . S
C667 C132 1.582 . S
C679 C6 1.659 . S
C694 C20 1.645 . S
C706 C146 1.619 . S
C721 C160 1.588 . S
C733 C34 1.666 . S
C748 C48 1.639 . S
C760 C90 1.626 . S
C775 C62 1.582 . S
C787 C104 1.667 . S
C802 C118 1.601 . S
C814 C76 1.658 . S
