# Generated by pormake.
# Topology vcc, (6)-cn, num edge types: 1
# Building blocks:
#     Node 0, Type 0, BuildingBlock: KUMBUR_clean_sbu_0, # of connection points: 6
#     Node 1, Type 0, BuildingBlock: KUMBUR_clean_sbu_0, # of connection points: 6
#     Node 2, Type 0, BuildingBlock: KUMBUR_clean_sbu_0, # of connection points: 6
#     Node 3, Type 0, BuildingBlock: KUMBUR_clean_sbu_0, # of connection points: 6
#     Node 4, Type 0, BuildingBlock: KUMBUR_clean_sbu_0, # of connection points: 6
#     Node 5, Type 0, BuildingBlock: KUMBUR_clean_sbu_0, # of connection points: 6
#     Node 6, Type 0, BuildingBlock: KUMBUR_clean_sbu_0, # of connection points: 6
#     Node 7, Type 0, BuildingBlock: KUMBUR_clean_sbu_0, # of connection points: 6
#     Node 8, Type 0, BuildingBlock: KUMBUR_clean_sbu_0, # of connection points: 6
#     Node 9, Type 0, BuildingBlock: KUMBUR_clean_sbu_0, # of connection points: 6
#     Node 10, Type 0, BuildingBlock: KUMBUR_clean_sbu_0, # of connection points: 6
#     Node 11, Type 0, BuildingBlock: KUMBUR_clean_sbu_0, # of connection points: 6
#     Node 12, Type 0, BuildingBlock: KUMBUR_clean_sbu_0, # of connection points: 6
#     Node 13, Type 0, BuildingBlock: KUMBUR_clean_sbu_0, # of connection points: 6
#     Node 14, Type 0, BuildingBlock: KUMBUR_clean_sbu_0, # of connection points: 6
#     Node 15, Type 0, BuildingBlock: KUMBUR_clean_sbu_0, # of connection points: 6
#     Node 16, Type 0, BuildingBlock: KUMBUR_clean_sbu_0, # of connection points: 6
#     Node 17, Type 0, BuildingBlock: KUMBUR_clean_sbu_0, # of connection points: 6
#     Node 18, Type 0, BuildingBlock: KUMBUR_clean_sbu_0, # of connection points: 6
#     Node 19, Type 0, BuildingBlock: KUMBUR_clean_sbu_0, # of connection points: 6
#     Node 20, Type 0, BuildingBlock: KUMBUR_clean_sbu_0, # of connection points: 6
#     Node 21, Type 0, BuildingBlock: KUMBUR_clean_sbu_0, # of connection points: 6
#     Node 22, Type 0, BuildingBlock: KUMBUR_clean_sbu_0, # of connection points: 6
#     Node 23, Type 0, BuildingBlock: KUMBUR_clean_sbu_0, # of connection points: 6
#     Node 24, Type 0, BuildingBlock: KUMBUR_clean_sbu_0, # of connection points: 6
#     Node 25, Type 0, BuildingBlock: KUMBUR_clean_sbu_0, # of connection points: 6
#     Node 26, Type 0, BuildingBlock: KUMBUR_clean_sbu_0, # of connection points: 6
#     Node 27, Type 0, BuildingBlock: KUMBUR_clean_sbu_0, # of connection points: 6
#     Node 28, Type 0, BuildingBlock: KUMBUR_clean_sbu_0, # of connection points: 6
#     Node 29, Type 0, BuildingBlock: KUMBUR_clean_sbu_0, # of connection points: 6
#     Node 30, Type 0, BuildingBlock: KUMBUR_clean_sbu_0, # of connection points: 6
#     Node 31, Type 0, BuildingBlock: KUMBUR_clean_sbu_0, # of connection points: 6
#     Edge 32, Type (0, 0), BuildingBlock: TEMPAE_clean_linker_10, # of connection points: 2
#     Edge 33, Type (0, 0), BuildingBlock: TEMPAE_clean_linker_10, # of connection points: 2
#     Edge 34, Type (0, 0), BuildingBlock: TEMPAE_clean_linker_10, # of connection points: 2
#     Edge 35, Type (0, 0), BuildingBlock: TEMPAE_clean_linker_10, # of connection points: 2
#     Edge 36, Type (0, 0), BuildingBlock: TEMPAE_clean_linker_10, # of connection points: 2
#     Edge 37, Type (0, 0), BuildingBlock: TEMPAE_clean_linker_10, # of connection points: 2
#     Edge 38, Type (0, 0), BuildingBlock: TEMPAE_clean_linker_10, # of connection points: 2
#     Edge 39, Type (0, 0), BuildingBlock: TEMPAE_clean_linker_10, # of connection points: 2
#     Edge 40, Type (0, 0), BuildingBlock: TEMPAE_clean_linker_10, # of connection points: 2
#     Edge 41, Type (0, 0), BuildingBlock: TEMPAE_clean_linker_10, # of connection points: 2
#     Edge 42, Type (0, 0), BuildingBlock: TEMPAE_clean_linker_10, # of connection points: 2
#     Edge 43, Type (0, 0), BuildingBlock: TEMPAE_clean_linker_10, # of connection points: 2
#     Edge 44, Type (0, 0), BuildingBlock: TEMPAE_clean_linker_10, # of connection points: 2
#     Edge 45, Type (0, 0), BuildingBlock: TEMPAE_clean_linker_10, # of connection points: 2
#     Edge 46, Type (0, 0), BuildingBlock: TEMPAE_clean_linker_10, # of connection points: 2
#     Edge 47, Type (0, 0), BuildingBlock: TEMPAE_clean_linker_10, # of connection points: 2
#     Edge 48, Type (0, 0), BuildingBlock: TEMPAE_clean_linker_10, # of connection points: 2
#     Edge 49, Type (0, 0), BuildingBlock: TEMPAE_clean_linker_10, # of connection points: 2
#     Edge 50, Type (0, 0), BuildingBlock: TEMPAE_clean_linker_10, # of connection points: 2
#     Edge 51, Type (0, 0), BuildingBlock: TEMPAE_clean_linker_10, # of connection points: 2
#     Edge 52, Type (0, 0), BuildingBlock: TEMPAE_clean_linker_10, # of connection points: 2
#     Edge 53, Type (0, 0), BuildingBlock: TEMPAE_clean_linker_10, # of connection points: 2
#     Edge 54, Type (0, 0), BuildingBlock: TEMPAE_clean_linker_10, # of connection points: 2
#     Edge 55, Type (0, 0), BuildingBlock: TEMPAE_clean_linker_10, # of connection points: 2
#     Edge 56, Type (0, 0), BuildingBlock: TEMPAE_clean_linker_10, # of connection points: 2
#     Edge 57, Type (0, 0), BuildingBlock: TEMPAE_clean_linker_10, # of connection points: 2
#     Edge 58, Type (0, 0), BuildingBlock: TEMPAE_clean_linker_10, # of connection points: 2
#     Edge 59, Type (0, 0), BuildingBlock: TEMPAE_clean_linker_10, # of connection points: 2
#     Edge 60, Type (0, 0), BuildingBlock: TEMPAE_clean_linker_10, # of connection points: 2
#     Edge 61, Type (0, 0), BuildingBlock: TEMPAE_clean_linker_10, # of connection points: 2
#     Edge 62, Type (0, 0), BuildingBlock: TEMPAE_clean_linker_10, # of connection points: 2
#     Edge 63, Type (0, 0), BuildingBlock: TEMPAE_clean_linker_10, # of connection points: 2
#     Edge 64, Type (0, 0), BuildingBlock: TEMPAE_clean_linker_10, # of connection points: 2
#     Edge 65, Type (0, 0), BuildingBlock: TEMPAE_clean_linker_10, # of connection points: 2
#     Edge 66, Type (0, 0), BuildingBlock: TEMPAE_clean_linker_10, # of connection points: 2
#     Edge 67, Type (0, 0), BuildingBlock: TEMPAE_clean_linker_10, # of connection points: 2
#     Edge 68, Type (0, 0), BuildingBlock: TEMPAE_clean_linker_10, # of connection points: 2
#     Edge 69, Type (0, 0), BuildingBlock: TEMPAE_clean_linker_10, # of connection points: 2
#     Edge 70, Type (0, 0), BuildingBlock: TEMPAE_clean_linker_10, # of connection points: 2
#     Edge 71, Type (0, 0), BuildingBlock: TEMPAE_clean_linker_10, # of connection points: 2
#     Edge 72, Type (0, 0), BuildingBlock: TEMPAE_clean_linker_10, # of connection points: 2
#     Edge 73, Type (0, 0), BuildingBlock: TEMPAE_clean_linker_10, # of connection points: 2
#     Edge 74, Type (0, 0), BuildingBlock: TEMPAE_clean_linker_10, # of connection points: 2
#     Edge 75, Type (0, 0), BuildingBlock: TEMPAE_clean_linker_10, # of connection points: 2
#     Edge 76, Type (0, 0), BuildingBlock: TEMPAE_clean_linker_10, # of connection points: 2
#     Edge 77, Type (0, 0), BuildingBlock: TEMPAE_clean_linker_10, # of connection points: 2
#     Edge 78, Type (0, 0), BuildingBlock: TEMPAE_clean_linker_10, # of connection points: 2
#     Edge 79, Type (0, 0), BuildingBlock: TEMPAE_clean_linker_10, # of connection points: 2
#     Edge 80, Type (0, 0), BuildingBlock: TEMPAE_clean_linker_10, # of connection points: 2
#     Edge 81, Type (0, 0), BuildingBlock: TEMPAE_clean_linker_10, # of connection points: 2
#     Edge 82, Type (0, 0), BuildingBlock: TEMPAE_clean_linker_10, # of connection points: 2
#     Edge 83, Type (0, 0), BuildingBlock: TEMPAE_clean_linker_10, # of connection points: 2
#     Edge 84, Type (0, 0), BuildingBlock: TEMPAE_clean_linker_10, # of connection points: 2
#     Edge 85, Type (0, 0), BuildingBlock: TEMPAE_clean_linker_10, # of connection points: 2
#     Edge 86, Type (0, 0), BuildingBlock: TEMPAE_clean_linker_10, # of connection points: 2
#     Edge 87, Type (0, 0), BuildingBlock: TEMPAE_clean_linker_10, # of connection points: 2
#     Edge 88, Type (0, 0), BuildingBlock: TEMPAE_clean_linker_10, # of connection points: 2
#     Edge 89, Type (0, 0), BuildingBlock: TEMPAE_clean_linker_10, # of connection points: 2
#     Edge 90, Type (0, 0), BuildingBlock: TEMPAE_clean_linker_10, # of connection points: 2
#     Edge 91, Type (0, 0), BuildingBlock: TEMPAE_clean_linker_10, # of connection points: 2
#     Edge 92, Type (0, 0), BuildingBlock: TEMPAE_clean_linker_10, # of connection points: 2
#     Edge 93, Type (0, 0), BuildingBlock: TEMPAE_clean_linker_10, # of connection points: 2
#     Edge 94, Type (0, 0), BuildingBlock: TEMPAE_clean_linker_10, # of connection points: 2
#     Edge 95, Type (0, 0), BuildingBlock: TEMPAE_clean_linker_10, # of connection points: 2
#     Edge 96, Type (0, 0), BuildingBlock: TEMPAE_clean_linker_10, # of connection points: 2
#     Edge 97, Type (0, 0), BuildingBlock: TEMPAE_clean_linker_10, # of connection points: 2
#     Edge 98, Type (0, 0), BuildingBlock: TEMPAE_clean_linker_10, # of connection points: 2
#     Edge 99, Type (0, 0), BuildingBlock: TEMPAE_clean_linker_10, # of connection points: 2
#     Edge 100, Type (0, 0), BuildingBlock: TEMPAE_clean_linker_10, # of connection points: 2
#     Edge 101, Type (0, 0), BuildingBlock: TEMPAE_clean_linker_10, # of connection points: 2
#     Edge 102, Type (0, 0), BuildingBlock: TEMPAE_clean_linker_10, # of connection points: 2
#     Edge 103, Type (0, 0), BuildingBlock: TEMPAE_clean_linker_10, # of connection points: 2
#     Edge 104, Type (0, 0), BuildingBlock: TEMPAE_clean_linker_10, # of connection points: 2
#     Edge 105, Type (0, 0), BuildingBlock: TEMPAE_clean_linker_10, # of connection points: 2
#     Edge 106, Type (0, 0), BuildingBlock: TEMPAE_clean_linker_10, # of connection points: 2
#     Edge 107, Type (0, 0), BuildingBlock: TEMPAE_clean_linker_10, # of connection points: 2
#     Edge 108, Type (0, 0), BuildingBlock: TEMPAE_clean_linker_10, # of connection points: 2
#     Edge 109, Type (0, 0), BuildingBlock: TEMPAE_clean_linker_10, # of connection points: 2
#     Edge 110, Type (0, 0), BuildingBlock: TEMPAE_clean_linker_10, # of connection points: 2
#     Edge 111, Type (0, 0), BuildingBlock: TEMPAE_clean_linker_10, # of connection points: 2
#     Edge 112, Type (0, 0), BuildingBlock: TEMPAE_clean_linker_10, # of connection points: 2
#     Edge 113, Type (0, 0), BuildingBlock: TEMPAE_clean_linker_10, # of connection points: 2
#     Edge 114, Type (0, 0), BuildingBlock: TEMPAE_clean_linker_10, # of connection points: 2
#     Edge 115, Type (0, 0), BuildingBlock: TEMPAE_clean_linker_10, # of connection points: 2
#     Edge 116, Type (0, 0), BuildingBlock: TEMPAE_clean_linker_10, # of connection points: 2
#     Edge 117, Type (0, 0), BuildingBlock: TEMPAE_clean_linker_10, # of connection points: 2
#     Edge 118, Type (0, 0), BuildingBlock: TEMPAE_clean_linker_10, # of connection points: 2
#     Edge 119, Type (0, 0), BuildingBlock: TEMPAE_clean_linker_10, # of connection points: 2
#     Edge 120, Type (0, 0), BuildingBlock: TEMPAE_clean_linker_10, # of connection points: 2
#     Edge 121, Type (0, 0), BuildingBlock: TEMPAE_clean_linker_10, # of connection points: 2
#     Edge 122, Type (0, 0), BuildingBlock: TEMPAE_clean_linker_10, # of connection points: 2
#     Edge 123, Type (0, 0), BuildingBlock: TEMPAE_clean_linker_10, # of connection points: 2
#     Edge 124, Type (0, 0), BuildingBlock: TEMPAE_clean_linker_10, # of connection points: 2
#     Edge 125, Type (0, 0), BuildingBlock: TEMPAE_clean_linker_10, # of connection points: 2
#     Edge 126, Type (0, 0), BuildingBlock: TEMPAE_clean_linker_10, # of connection points: 2
#     Edge 127, Type (0, 0), BuildingBlock: TEMPAE_clean_linker_10, # of connection points: 2
# Relax obj value: 0.218
# Max RMSD: 0.190
# Mean RMSD: 0.189
data_MOF--net-vcc--node1-KUMBUR_clean_sbu_0--edge1-TEMPAE_clean_linker_10
_symmetry_space_group_name_H-M    P1
_symmetry_Int_Tables_number       1
_symmetry_cell_setting            triclinic
loop_
_symmetry_equiv_pos_as_xyz
'x, y, z'
_cell_length_a     37.047963
_cell_length_b     58.562761
_cell_length_c     54.09001
_cell_angle_alpha  90.053476
_cell_angle_beta   90.006282
_cell_angle_gamma 89.953716
loop_
_atom_site_label
_atom_site_type_symbol
_atom_site_fract_x
_atom_site_fract_y
_atom_site_fract_z
_atom_type_partial_charge
Tb0 Tb 0.37854 0.01368 0.09739 0.0
C1 C 0.24036 0.98061 0.10165 0.0
C2 C 0.20371 0.0147 0.09902 0.0
C3 C 0.1772 0.97769 0.09033 0.0
C4 C 0.23658 0.00391 0.10499 0.0
C5 C 0.21091 0.96735 0.09357 0.0
C6 C 0.17357 0.00139 0.09288 0.0
C7 C 0.25122 0.93525 0.08958 0.0
N8 N 0.27369 0.97135 0.10442 0.0
C9 C 0.27954 0.94898 0.09794 0.0
C10 C 0.21655 0.94432 0.08792 0.0
Tb11 Tb 0.31049 0.99306 0.12918 0.0
N12 N 0.26625 0.01609 0.11161 0.0
C13 C 0.26634 0.03925 0.1076 0.0
C14 C 0.20264 0.03851 0.09813 0.0
C15 C 0.2345 0.05077 0.10143 0.0
H16 H 0.30494 0.94085 0.10121 0.0
H17 H 0.23466 0.06912 0.099 0.0
H18 H 0.14785 0.0094 0.08912 0.0
H19 H 0.25599 0.91747 0.08516 0.0
H20 H 0.29064 0.04914 0.10821 0.0
H21 H 0.48834 0.97543 0.14812 0.0
H22 H 0.178 0.04746 0.09336 0.0
H23 H 0.3606 0.06742 0.07957 0.0
H24 H 0.42796 0.9759 0.12922 0.0
H25 H 0.39336 0.10429 0.08013 0.0
H26 H 0.1545 0.96753 0.08448 0.0
H27 H 0.52556 0.01052 0.14818 0.0
H28 H 0.53155 0.05202 0.13806 0.0
H29 H 0.19457 0.9336 0.0816 0.0
H30 H 0.50519 0.08711 0.12079 0.0
N31 N 0.4293 0.0114 0.12084 0.0
C32 C 0.44328 0.9915 0.13004 0.0
C33 C 0.49875 0.01091 0.14027 0.0
C34 C 0.48446 0.03121 0.13071 0.0
C35 C 0.47786 0.99107 0.14026 0.0
C36 C 0.44908 0.03101 0.12106 0.0
H37 H 0.45364 0.10678 0.09956 0.0
N38 N 0.40086 0.04989 0.10034 0.0
C39 C 0.40505 0.08941 0.08887 0.0
C40 C 0.43437 0.05083 0.11078 0.0
C41 C 0.38647 0.06863 0.08873 0.0
C42 C 0.43912 0.09073 0.09986 0.0
C43 C 0.45442 0.07128 0.11067 0.0
O44 O 0.39953 0.02716 0.06429 0.0
O45 O 0.32483 0.99737 0.08904 0.0
O46 O 0.34691 0.96407 0.12374 0.0
O47 O 0.38021 0.97674 0.09073 0.0
O48 O 0.3367 0.0255 0.06979 0.0
O49 O 0.42413 0.99801 0.08224 0.0
O50 O 0.29339 0.96226 0.14402 0.0
O51 O 0.36764 0.00244 0.13594 0.0
O52 O 0.36263 0.04104 0.12363 0.0
O53 O 0.31223 0.02806 0.14453 0.0
O54 O 0.34001 0.99225 0.16533 0.0
O55 O 0.26809 0.99389 0.155 0.0
C56 C 0.31203 0.00979 0.07058 0.0
C57 C 0.44355 0.00618 1.04233 0.0
C58 C 0.44129 0.98628 1.00336 0.0
C59 C 0.42432 0.9933 1.02517 0.0
C60 C 0.47787 0.99162 0.99961 0.0
C61 C 0.47982 0.01172 1.03831 0.0
C62 C 0.49707 0.00424 1.017 0.0
C63 C 0.36949 0.96031 0.10549 0.0
C64 C 0.4272 0.01342 0.06515 0.0
C65 C 0.48935 0.07156 0.1208 0.0
C66 C 0.50439 0.05157 0.13062 0.0
C67 C 0.37248 0.99866 0.1601 0.0
C68 C 0.27104 0.96397 0.18402 0.0
C69 C 0.2486 0.97469 0.20106 0.0
C70 C 0.2491 0.96789 0.22557 0.0
C71 C 0.27155 0.94984 0.23317 0.0
C72 C 0.29387 0.94601 0.19159 0.0
C73 C 0.29398 0.93899 0.21616 0.0
C74 C 0.3367 0.04409 0.14016 0.0
C75 C 0.27014 0.97186 0.15856 0.0
H76 H 0.39626 0.98912 1.02867 0.0
H77 H 0.49116 0.98661 0.98283 0.0
H78 H 0.49482 0.02165 0.05176 0.0
H79 H 0.52514 0.00838 1.01392 0.0
H80 H 0.23152 0.98885 0.19547 0.0
H81 H 0.27269 0.94468 0.25233 0.0
H82 H 0.31171 0.93748 0.17867 0.0
H83 H 0.3118 0.9254 0.22209 0.0
Tb84 Tb 0.90219 0.23697 0.09688 0.0
C85 C 0.03593 0.27114 0.09691 0.0
C86 C 0.07955 0.24023 0.09806 0.0
C87 C 0.09656 0.27666 0.08056 0.0
C88 C 0.04461 0.24887 0.10321 0.0
C89 C 0.06175 0.28502 0.08489 0.0
C90 C 0.10564 0.25442 0.08735 0.0
C91 C 0.01868 0.31562 0.08473 0.0
N92 N 1.00263 0.2793 0.10285 0.0
C93 C 0.99488 0.30179 0.09794 0.0
C94 C 0.05234 0.30722 0.07817 0.0
Tb95 Tb 0.97134 0.25643 0.13034 0.0
N96 N 0.01841 0.23539 0.11314 0.0
C97 C 0.02469 0.21231 0.11498 0.0
C98 C 0.08668 0.2172 0.10244 0.0
C99 C 0.05876 0.20307 0.11011 0.0
H100 H 0.97246 0.31034 0.1061 0.0
H101 H 0.06338 0.18492 0.11224 0.0
H102 H 0.13254 0.24808 0.08344 0.0
H103 H 1.01182 0.33326 0.08098 0.0
H104 H 1.0043 0.20029 0.11989 0.0
H105 H 0.78572 0.27499 0.13679 0.0
H106 H 0.11299 0.20993 0.09858 0.0
H107 H 0.92224 0.18375 0.07771 0.0
H108 H 0.85015 0.2739 0.12612 0.0
H109 H 0.88994 0.14666 0.07618 0.0
H110 H 0.11659 0.28742 0.07206 0.0
H111 H 0.75006 0.23947 0.13365 0.0
H112 H 0.74619 0.19796 0.12749 0.0
H113 H 0.07136 0.31827 0.06878 0.0
H114 H 0.77482 0.16282 0.11233 0.0
N115 N 0.85119 0.23804 0.11984 0.0
C116 C 0.83529 0.25811 0.12692 0.0
C117 C 0.77855 0.23888 0.13124 0.0
C118 C 0.79492 0.21826 0.12505 0.0
C119 C 0.79865 0.25887 0.13253 0.0
C120 C 0.83179 0.2183 0.11891 0.0
H121 H 0.82854 0.14347 0.09366 0.0
N122 N 0.88141 0.2002 0.09901 0.0
C123 C 0.87786 0.16115 0.08545 0.0
C124 C 0.84747 0.19874 0.10872 0.0
C125 C 0.89623 0.18198 0.08658 0.0
C126 C 0.8432 0.15939 0.09542 0.0
C127 C 0.82719 0.17844 0.10656 0.0
O128 O 0.87623 0.22338 0.06542 0.0
O129 O 0.96027 0.24523 0.09181 0.0
O130 O 0.93325 0.28509 0.12612 0.0
O131 O 0.90353 0.27409 0.09087 0.0
O132 O 0.93643 0.23213 0.06265 0.0
O133 O 0.8599 0.25581 0.08116 0.0
O134 O 0.98685 0.2873 0.14691 0.0
O135 O 0.91149 0.25261 0.13469 0.0
O136 O 0.91899 0.20865 0.1216 0.0
O137 O 0.96723 0.22142 0.1452 0.0
O138 O 0.9416 0.24695 0.16518 0.0
O139 O 0.01564 0.25622 0.15444 0.0
C140 C 0.96746 0.24072 0.06824 0.0
C141 C 0.83268 0.24524 1.04364 0.0
C142 C 0.83105 0.2619 1.00296 0.0
C143 C 0.85044 0.25577 1.02411 0.0
C144 C 0.7937 0.25793 1.00192 0.0
C145 C 0.79557 0.24074 1.04233 0.0
C146 C 0.77606 0.24719 1.02145 0.0
C147 C 0.9126 0.2899 0.10694 0.0
C148 C 0.8518 0.23938 0.06602 0.0
C149 C 0.79097 0.17814 0.11419 0.0
C150 C 0.77469 0.19812 0.12294 0.0
C151 C 0.90779 0.24727 0.15856 0.0
C152 C 0.02222 0.28656 0.18319 0.0
C153 C 0.0411 0.27258 0.19962 0.0
C154 C 0.04852 0.28003 0.22362 0.0
C155 C 0.03956 0.30255 0.23044 0.0
C156 C 1.01376 0.30908 0.19004 0.0
C157 C 0.02274 0.31707 0.21355 0.0
C158 C 0.94383 0.20527 0.13882 0.0
C159 C 1.01397 0.27814 0.15836 0.0
H160 H 0.87926 0.25893 1.02527 0.0
H161 H 0.77854 0.26252 0.9857 0.0
H162 H 0.78171 0.23245 0.05751 0.0
H163 H 0.74744 0.2437 1.0203 0.0
H164 H 0.04885 0.25547 0.19411 0.0
H165 H 0.044 0.30865 0.24911 0.0
H166 H 1.00028 0.32049 0.17727 0.0
H167 H 0.01574 0.33432 0.21892 0.0
Tb168 Tb 0.37987 0.23789 0.253 0.0
C169 C 0.2448 0.26748 0.25892 0.0
C170 C 0.20228 0.23598 0.25794 0.0
C171 C 0.18863 0.26949 0.28244 0.0
C172 C 0.23541 0.24587 0.25032 0.0
C173 C 0.2213 0.27936 0.27518 0.0
C174 C 0.17907 0.24792 0.27382 0.0
C175 C 0.26208 0.31114 0.27452 0.0
N176 N 0.27639 0.27703 0.25126 0.0
C177 C 0.28386 0.2992 0.25793 0.0
C178 C 0.23079 0.30112 0.28338 0.0
Tb179 Tb 0.30636 0.25673 0.22074 0.0
N180 N 0.25792 0.23479 0.23428 0.0
C181 C 0.24707 0.21412 0.22461 0.0
C182 C 0.19314 0.21429 0.24944 0.0
C183 C 0.21563 0.20335 0.23272 0.0
H184 H 0.30443 0.309 0.24915 0.0
H185 H 0.20802 0.1869 0.22521 0.0
H186 H 0.15367 0.24052 0.27964 0.0
H187 H 0.26864 0.32856 0.27954 0.0
H188 H 0.26067 0.2058 0.2096 0.0
H189 H 0.47484 0.28395 0.1956 0.0
H190 H 0.1683 0.20608 0.2552 0.0
H191 H 0.37887 0.18361 0.27383 0.0
H192 H 0.41986 0.27969 0.22003 0.0
H193 H 0.41707 0.14931 0.26912 0.0
H194 H 0.17046 0.27856 0.29463 0.0
H195 H 0.51464 0.25086 0.18882 0.0
H196 H 0.52836 0.20973 0.1964 0.0
H197 H 0.21346 0.31066 0.29581 0.0
H198 H 0.51266 0.1733 0.21583 0.0
N199 N 0.42635 0.2439 0.22605 0.0
C200 C 0.43625 0.26487 0.21701 0.0
C201 C 0.49046 0.2488 0.19975 0.0
C202 C 0.48151 0.22769 0.21015 0.0
C203 C 0.46781 0.26748 0.20326 0.0
C204 C 0.44866 0.22559 0.22322 0.0
H205 H 0.47099 0.15054 0.24233 0.0
N206 N 0.40835 0.20333 0.24751 0.0
C207 C 0.42335 0.16466 0.25887 0.0
C208 C 0.43911 0.2047 0.23377 0.0
C209 C 0.40157 0.18401 0.26123 0.0
C210 C 0.45374 0.16544 0.24374 0.0
C211 C 0.4625 0.18572 0.23151 0.0
O212 O 0.40595 0.22468 0.28427 0.0
O213 O 0.32221 0.2469 0.25873 0.0
O214 O 0.34304 0.28569 0.22512 0.0
O215 O 0.37559 0.27482 0.25938 0.0
O216 O 0.34607 0.23331 0.28773 0.0
O217 O 0.42471 0.25576 0.26689 0.0
O218 O 0.28619 0.28776 0.20804 0.0
O219 O 0.36426 0.24785 0.21413 0.0
O220 O 0.35461 0.20726 0.23657 0.0
O221 O 0.3153 0.22166 0.20708 0.0
O222 O 0.33562 0.25698 0.18439 0.0
O223 O 0.26426 0.25574 0.19488 0.0
C224 C 0.31479 0.24168 0.28199 0.0
C225 C 0.44777 0.24682 0.30629 0.0
C226 C 0.4441 0.26525 0.34608 0.0
C227 C 0.42905 0.26058 0.32291 0.0
C228 C 0.47858 0.25678 0.35195 0.0
C229 C 0.4819 0.23812 0.31234 0.0
C230 C 0.49745 0.24332 0.3351 0.0
C231 C 0.36446 0.29058 0.24382 0.0
C232 C 0.43144 0.23993 0.28317 0.0
C233 C 0.49457 0.18773 0.21791 0.0
C234 C 0.50389 0.20859 0.2072 0.0
C235 C 0.36835 0.25083 0.18968 0.0
C236 C 0.266 0.28652 0.16727 0.0
C237 C 0.2424 0.27711 0.15006 0.0
C238 C 0.24434 0.28372 0.12549 0.0
C239 C 0.2694 0.30037 0.11806 0.0
C240 C 0.29141 0.30305 0.15988 0.0
C241 C 0.29288 0.31001 0.13528 0.0
C242 C 0.33309 0.20442 0.21728 0.0
C243 C 0.26455 0.27793 0.19245 0.0
H244 H 0.40218 0.26663 0.31833 0.0
H245 H 0.48989 0.25946 0.3701 0.0
H246 H 0.49639 0.22724 0.2995 0.0
H247 H 0.5237 0.23649 0.3399 0.0
H248 H 0.22354 0.26385 0.15552 0.0
H249 H 0.27182 0.30523 0.09885 0.0
H250 H 0.31039 0.31035 0.17291 0.0
H251 H 0.31274 0.32244 0.12947 0.0
Tb252 Tb 0.8964 0.01157 0.25149 0.0
C253 C 0.04287 0.97944 0.2475 0.0
C254 C 0.07716 0.01433 0.25244 0.0
C255 C 0.10572 0.97791 0.26053 0.0
C256 C 0.04476 0.00294 0.24607 0.0
C257 C 0.07336 0.96669 0.25505 0.0
C258 C 0.10774 0.00166 0.25921 0.0
C259 C 0.03965 0.9323 0.24805 0.0
N260 N 1.01181 0.969 0.2404 0.0
C261 C 1.0109 0.94552 0.23951 0.0
C262 C 0.07108 0.94293 0.25592 0.0
Tb263 Tb 0.97014 0.99217 0.22058 0.0
N264 N 0.0146 0.01466 0.2393 0.0
C265 C 1.01396 0.03783 0.24332 0.0
C266 C 0.07763 0.03814 0.2525 0.0
C267 C 0.04552 0.04992 0.24874 0.0
H268 H 0.98898 0.93646 0.23085 0.0
H269 H 0.04469 0.06829 0.25099 0.0
H270 H 0.1329 0.01009 0.26381 0.0
H271 H 0.03811 0.91385 0.24743 0.0
H272 H 0.98945 0.04734 0.244 0.0
H273 H 0.80427 0.95667 0.20074 0.0
H274 H 0.10193 0.04749 0.25717 0.0
H275 H 0.89042 0.06783 0.26505 0.0
H276 H 0.85586 0.96476 0.22743 0.0
H277 H 0.85362 0.10058 0.25152 0.0
H278 H 0.1294 0.96822 0.26543 0.0
H279 H 0.77101 0.98838 0.18118 0.0
H280 H 0.75769 0.03002 0.17937 0.0
H281 H 0.09386 0.93262 0.26172 0.0
H282 H 0.77161 0.06907 0.1926 0.0
N283 N 0.8509 0.00099 0.22505 0.0
C284 C 0.8408 0.97889 0.22023 0.0
C285 C 0.79249 0.9921 0.19411 0.0
C286 C 0.80141 0.01461 0.20006 0.0
C287 C 0.81148 0.97416 0.20487 0.0
C288 C 0.83126 0.01871 0.21573 0.0
H289 H 0.80718 0.09546 0.21927 0.0
N290 N 0.86764 0.04456 0.23889 0.0
C291 C 0.84983 0.08402 0.243 0.0
C292 C 0.83983 0.04099 0.22278 0.0
C293 C 0.87069 0.06541 0.25052 0.0
C294 C 0.8237 0.08106 0.22478 0.0
C295 C 0.81764 0.0593 0.21499 0.0
O296 O 0.87613 0.02915 0.28246 0.0
O297 O 0.95435 0.00262 0.25785 0.0
O298 O 0.94254 0.96264 0.23762 0.0
O299 O 0.89507 0.97558 0.26148 0.0
O300 O 0.92975 0.01357 0.28714 0.0
O301 O 0.84708 0.00092 0.26623 0.0
O302 O 0.97313 0.96314 0.19775 0.0
O303 O 0.9105 0.99493 0.21507 0.0
O304 O 0.92079 0.04093 0.23147 0.0
O305 O 0.96651 0.02729 0.20586 0.0
O306 O 0.9418 0.0027 0.18562 0.0
O307 O 0.0155 0.98871 0.19806 0.0
C308 C 0.96154 0.00586 0.28153 0.0
C309 C 0.83172 0.01084 0.30636 0.0
C310 C 0.8363 0.99092 0.34523 0.0
C311 C 0.85123 0.99694 0.32245 0.0
C312 C 0.80152 0.99852 0.35144 0.0
C313 C 0.79702 0.01842 0.31264 0.0
C314 C 0.78186 0.01216 0.33518 0.0
C315 C 0.91591 0.95905 0.2534 0.0
C316 C 0.84648 0.01715 0.2826 0.0
C317 C 0.78875 0.0552 0.19878 0.0
C318 C 0.78077 0.03295 0.19127 0.0
C319 C 0.90795 0.00109 0.19144 0.0
C320 C 1.01402 0.96322 0.16413 0.0
C321 C 0.0295 0.97951 0.1486 0.0
C322 C 0.04116 0.97336 0.12501 0.0
C323 C 0.03774 0.95053 0.11713 0.0
C324 C 1.01078 0.9405 0.15622 0.0
C325 C 0.02268 0.93419 0.13275 0.0
C326 C 0.94419 0.04379 0.21309 0.0
C327 C 1.00486 0.96899 0.18951 0.0
H328 H 0.87816 0.99126 0.3175 0.0
H329 H 0.79042 0.99467 0.36932 0.0
H330 H 0.78167 0.02908 0.30007 0.0
H331 H 0.75519 0.01812 0.3402 0.0
H332 H 0.03234 0.99706 0.15474 0.0
H333 H 0.0455 0.94545 0.09862 0.0
H334 H 0.99953 0.9276 0.16833 0.0
H335 H 0.01996 0.91669 0.12659 0.0
Tb336 Tb 0.72464 0.00416 0.96831 0.0
C337 C 0.59386 0.96149 0.96991 0.0
C338 C 0.55188 0.99056 0.95582 0.0
C339 C 0.54179 0.95102 0.94467 0.0
C340 C 0.58423 0.98446 0.96809 0.0
C341 C 0.57168 0.94458 0.95892 0.0
C342 C 0.53188 0.97395 0.94316 0.0
C343 C 0.60521 0.91579 0.9808 0.0
N344 N 0.62212 0.95552 0.98465 0.0
C345 C 0.62577 0.93298 0.99173 0.0
C346 C 0.57856 0.92157 0.96387 0.0
Tb347 Tb 0.65255 0.98617 1.00218 0.0
N348 N 0.60426 0.00049 0.98023 0.0
C349 C 0.59113 0.02236 0.98246 0.0
C350 C 0.53922 0.01297 0.95775 0.0
C351 C 0.55873 0.02884 0.97135 0.0
H352 H 0.6453 0.92799 1.00561 0.0
H353 H 0.54852 0.04603 0.97367 0.0
H354 H 0.50757 0.97856 0.93323 0.0
H355 H 0.60949 0.89811 0.98585 0.0
H356 H 0.60329 0.03469 0.99445 0.0
H357 H 0.81499 0.93468 0.99223 0.0
H358 H 0.51376 0.018 0.94954 0.0
H359 H 0.73206 0.06197 0.9793 0.0
H360 H 0.75961 0.95045 0.97661 0.0
H361 H 0.77029 0.08685 1.00328 0.0
H362 H 0.52501 0.93826 0.93586 0.0
H363 H 0.86026 0.95959 1.01176 0.0
H364 H 0.87739 0.99787 1.02744 0.0
H365 H 0.56203 0.90822 0.95585 0.0
H366 H 0.86327 0.03834 1.03302 0.0
N367 N 0.76869 0.98455 0.98958 0.0
C368 C 0.7765 0.96178 0.98674 0.0
C369 C 0.83472 0.96675 1.00579 0.0
C370 C 0.82694 0.98987 1.00913 0.0
C371 C 0.80914 0.95262 0.99498 0.0
C372 C 0.79332 0.99853 1.00078 0.0
H373 H 0.82306 0.07125 1.02514 0.0
N374 N 0.7554 0.03053 0.99239 0.0
C375 C 0.77443 0.06856 1.00406 0.0
C376 C 0.78579 0.02181 1.00316 0.0
C377 C 0.75128 0.05391 0.99137 0.0
C378 C 0.8043 0.05971 1.01618 0.0
C379 C 0.81113 0.03631 1.01501 0.0
O380 O 0.7526 0.02895 0.94769 0.0
O381 O 0.66561 0.9974 0.96342 0.0
O382 O 0.68379 0.9565 0.98813 0.0
O383 O 0.71259 0.96995 0.95356 0.0
O384 O 0.69239 0.00659 0.93288 0.0
O385 O 0.76841 0.99319 0.94672 0.0
O386 O 0.63357 0.96382 1.02982 0.0
O387 O 0.71091 0.99429 1.0071 0.0
O388 O 0.69007 0.03386 0.97421 0.0
O389 O 0.65981 0.02305 1.00965 0.0
O390 O 0.68467 0.98622 1.03771 0.0
O391 O 0.60823 0.99676 1.02357 0.0
C392 C 0.65964 0.00116 0.93935 0.0
C393 C 0.80007 0.01845 0.92045 0.0
C394 C 0.80756 0.02052 0.87647 0.0
C395 C 0.78579 0.01639 0.89697 0.0
C396 C 0.8442 0.02589 0.8794 0.0
C397 C 0.83641 0.02446 0.92375 0.0
C398 C 0.85853 0.02804 0.90317 0.0
C399 C 0.69624 0.95325 0.96544 0.0
C400 C 0.77743 0.01418 0.94169 0.0
C401 C 0.84362 0.02738 1.02411 0.0
C402 C 0.85175 0.00435 1.02081 0.0
C403 C 0.71697 0.99205 1.03126 0.0
C404 C 0.58732 0.97529 0.05801 0.0
C405 C 0.60003 0.9863 0.07919 0.0
C406 C 0.58083 0.98466 0.10163 0.0
C407 C 0.54899 0.97147 0.10215 0.0
C408 C 0.5555 0.96248 0.05889 0.0
C409 C 0.53642 0.96057 0.08093 0.0
C410 C 0.67141 0.03901 0.99423 0.0
C411 C 0.60611 0.97701 1.03447 0.0
H412 H 0.75763 0.01171 0.89462 0.0
H413 H 0.86125 0.02888 0.86345 0.0
H414 H 0.84755 0.02633 0.94217 0.0
H415 H 0.88656 0.03268 0.90563 0.0
H416 H 0.62531 0.99553 0.07812 0.0
H417 H 0.53375 0.96926 0.11888 0.0
H418 H 0.54545 0.95392 1.04249 0.0
H419 H 0.51194 0.9505 0.08162 0.0
Tb420 Tb 0.05786 0.73953 0.97057 0.0
C421 C 0.18689 0.79182 0.97354 0.0
C422 C 0.22702 0.76656 0.95073 0.0
C423 C 0.23621 0.80752 0.94908 0.0
C424 C 0.19678 0.76985 0.96626 0.0
C425 C 0.2074 0.81077 0.96556 0.0
C426 C 0.24596 0.78548 0.9417 0.0
C427 C 0.17299 0.83463 0.99328 0.0
N428 N 0.15904 0.79452 0.98977 0.0
C429 C 0.15379 0.81541 1.001 0.0
C430 C 0.19948 0.83238 0.97516 0.0
Tb431 Tb 0.13198 0.76072 1.00168 0.0
N432 N 0.17805 0.75168 0.97524 0.0
C433 C 0.18943 0.72988 0.97029 0.0
C434 C 0.23821 0.74429 0.94534 0.0
C435 C 0.21997 0.7259 0.95579 0.0
H436 H 0.13352 0.8173 1.01527 0.0
H437 H 0.22863 0.7086 0.95197 0.0
H438 H 0.26881 0.78318 0.92951 0.0
H439 H 0.16754 0.85115 1.00147 0.0
H440 H 0.17474 0.71543 0.97691 0.0
H441 H 0.98665 0.81203 1.012 0.0
H442 H 0.26141 0.74112 0.93362 0.0
H443 H 0.04305 0.68231 0.97746 0.0
H444 H 0.03935 0.79319 0.99513 0.0
H445 H 0.99469 0.65822 0.99275 0.0
H446 H 0.25177 0.82192 0.94251 0.0
H447 H 0.93196 0.78982 1.02185 0.0
H448 H 0.90126 0.75205 1.02417 0.0
H449 H 0.21465 0.84728 0.96945 0.0
H450 H 0.90406 0.71041 1.01984 0.0
N451 N 0.01541 0.76006 0.99277 0.0
C452 C 0.01587 0.783 0.99783 0.0
C453 C 0.95521 0.78129 1.01393 0.0
C454 C 0.95537 0.75771 1.01026 0.0
C455 C 0.98592 0.79387 1.00825 0.0
C456 C 0.98655 0.74732 1.00019 0.0
H457 H 0.93937 0.67546 1.00991 0.0
N458 N 0.01953 0.71391 0.98977 0.0
C459 C 0.99278 0.67657 0.99487 0.0
C460 C 0.98856 0.72364 0.99843 0.0
C461 C 0.021 0.69055 0.98702 0.0
C462 C 0.96152 0.68636 1.00429 0.0
C463 C 0.95881 0.71009 1.00579 0.0
O464 O 0.04244 0.7133 0.94589 0.0
O465 O 0.11579 0.74782 0.96458 0.0
O466 O 0.10673 0.78935 0.98137 0.0
O467 O 0.06243 0.77453 0.95543 0.0
O468 O 0.08913 0.73837 0.93457 0.0
O469 O 1.01055 0.74441 0.95053 0.0
O470 O 0.15308 0.77853 1.032 0.0
O471 O 0.07538 0.74895 1.0086 0.0
O472 O 0.08707 0.7099 0.98535 0.0
O473 O 0.13331 0.72406 1.00994 0.0
O474 O 0.0971 0.76623 1.03567 0.0
O475 O 0.17914 0.74803 1.0182 0.0
C476 C 0.12134 0.74486 0.94049 0.0
C477 C 0.99223 0.71908 0.91886 0.0
C478 C 0.97156 0.73169 0.87888 0.0
C479 C 0.98849 0.7362 0.90139 0.0
C480 C 0.95497 0.71039 0.87499 0.0
C481 C 0.97605 0.69773 0.91504 0.0
C482 C 0.9569 0.69354 0.89325 0.0
C483 C 0.08397 0.79142 0.96258 0.0
C484 C 1.01188 0.72368 0.94151 0.0
C485 C 0.92717 0.72056 1.0144 0.0
C486 C 0.92554 0.74428 1.0168 0.0
C487 C 0.06756 0.75495 1.03168 0.0
C488 C 0.19169 0.75914 0.05893 0.0
C489 C 0.17188 0.74383 0.07343 0.0
C490 C 0.18254 0.73968 0.09784 0.0
C491 C 0.21264 0.75127 0.10754 0.0
C492 C 0.22213 0.77016 0.06861 0.0
C493 C 0.23253 0.76624 0.09293 0.0
C494 C 0.11388 0.70703 1.00115 0.0
C495 C 0.18058 0.7648 1.03399 0.0
H496 H 1.00076 0.75275 0.9047 0.0
H497 H 0.94224 0.70636 0.85749 0.0
H498 H 0.97823 0.68442 0.92887 0.0
H499 H 0.9446 0.67702 0.89017 0.0
H500 H 0.14804 0.73561 0.06594 0.0
H501 H 0.21972 0.74937 0.12678 0.0
H502 H 0.2374 0.78213 0.05747 0.0
H503 H 0.25546 0.77522 0.10059 0.0
Tb504 Tb 0.72372 0.74154 0.88079 0.0
C505 C 0.59016 0.78762 0.87852 0.0
C506 C 0.548 0.75826 0.89188 0.0
C507 C 0.53352 0.79812 0.89853 0.0
C508 C 0.58163 0.76456 0.88161 0.0
C509 C 0.56567 0.80453 0.88683 0.0
C510 C 0.52446 0.7751 0.90069 0.0
C511 C 0.60201 0.83309 0.86684 0.0
N512 N 0.62019 0.79345 0.86534 0.0
C513 C 0.62436 0.81582 0.85782 0.0
C514 C 0.57279 0.82746 0.88171 0.0
Tb515 Tb 0.65061 0.76231 0.84898 0.0
N516 N 0.60474 0.74832 0.87291 0.0
C517 C 0.59579 0.72569 0.87466 0.0
C518 C 0.53813 0.73521 0.89193 0.0
C519 C 0.56185 0.71891 0.88286 0.0
H520 H 0.64537 0.82051 0.84488 0.0
H521 H 0.5548 0.70098 0.88342 0.0
H522 H 0.49862 0.7705 0.9085 0.0
H523 H 0.60665 0.85068 0.8616 0.0
H524 H 0.6145 0.7126 0.87032 0.0
H525 H 0.81014 0.80683 0.84274 0.0
H526 H 0.51225 0.72972 0.899 0.0
H527 H 0.73606 0.68406 0.88556 0.0
H528 H 0.75526 0.79283 0.86225 0.0
H529 H 0.77874 0.65585 0.86928 0.0
H530 H 0.5147 0.81096 0.9049 0.0
H531 H 0.85342 0.77972 0.82462 0.0
H532 H 0.86911 0.73959 0.8132 0.0
H533 H 0.55471 0.84083 0.88796 0.0
H534 H 0.85897 0.6987 0.81873 0.0
N535 N 0.76645 0.75766 0.85589 0.0
C536 C 0.77316 0.7806 0.85432 0.0
C537 C 0.82904 0.77329 0.83304 0.0
C538 C 0.82162 0.74991 0.83367 0.0
C539 C 0.8047 0.78868 0.84335 0.0
C540 C 0.79011 0.74231 0.84587 0.0
H541 H 0.82594 0.66747 0.83978 0.0
N542 N 0.75628 0.71179 0.86371 0.0
C543 C 0.78019 0.67338 0.86306 0.0
C544 C 0.78433 0.71889 0.84925 0.0
C545 C 0.75576 0.68954 0.87202 0.0
C546 C 0.80671 0.68002 0.84642 0.0
C547 C 0.80989 0.70303 0.84 0.0
O548 O 0.74932 0.72107 0.90708 0.0
O549 O 0.66538 0.74962 0.8868 0.0
O550 O 0.68043 0.79153 0.86457 0.0
O551 O 0.71536 0.77634 0.89575 0.0
O552 O 0.69111 0.73721 0.91604 0.0
O553 O 0.7712 0.7541 0.89721 0.0
O554 O 0.63069 0.78323 0.82034 0.0
O555 O 0.7081 0.75257 0.84281 0.0
O556 O 0.69537 0.71156 0.86579 0.0
O557 O 0.6534 0.72609 0.83797 0.0
O558 O 0.68255 0.76377 0.81315 0.0
O559 O 0.60238 0.75287 0.83211 0.0
C560 C 0.65914 0.74483 0.91054 0.0
C561 C 0.79637 0.7354 0.93142 0.0
C562 C 0.7948 0.73771 0.97562 0.0
C563 C 0.77736 0.73926 0.95295 0.0
C564 C 0.8321 0.7333 0.97666 0.0
C565 C 0.83353 0.73078 0.93209 0.0
C566 C 0.85145 0.72991 0.9548 0.0
C567 C 0.69768 0.79365 0.88579 0.0
C568 C 0.77708 0.73473 0.90833 0.0
C569 C 0.83946 0.71069 0.82615 0.0
C570 C 0.84541 0.73403 0.82315 0.0
C571 C 0.71398 0.75565 0.81876 0.0
C572 C 0.58979 0.76583 0.79284 0.0
C573 C 0.60715 0.74908 0.77891 0.0
C574 C 0.59379 0.74328 0.75567 0.0
C575 C 0.56288 0.75426 0.74651 0.0
C576 C 0.55876 0.77668 0.7838 0.0
C577 C 0.54527 0.77083 0.76058 0.0
C578 C 0.67186 0.70887 0.84756 0.0
C579 C 0.60188 0.77063 0.81771 0.0
H580 H 0.74875 0.74322 0.95201 0.0
H581 H 0.84597 0.73225 0.99425 0.0
H582 H 0.84842 0.72764 0.91518 0.0
H583 H 0.88011 0.72632 0.95548 0.0
H584 H 0.63122 0.74077 0.78596 0.0
H585 H 0.55363 0.7507 0.72802 0.0
H586 H 0.5449 0.78947 0.79475 0.0
H587 H 0.52158 0.77935 0.75334 0.0
Tb588 Tb 0.05444 0.00275 0.87947 0.0
C589 C 0.19097 0.95577 0.87049 0.0
C590 C 0.23037 0.9806 0.89455 0.0
C591 C 0.24554 0.94056 0.88937 0.0
C592 C 0.19881 0.97736 0.88035 0.0
C593 C 0.21484 0.93736 0.87465 0.0
C594 C 0.25333 0.9621 0.89912 0.0
C595 C 0.17862 0.91419 0.84725 0.0
N596 N 0.16116 0.95304 0.85596 0.0
C597 C 0.15595 0.93288 0.84324 0.0
C598 C 0.20794 0.91636 0.86322 0.0
Tb599 Tb 0.13092 0.98667 0.84885 0.0
N600 N 0.17628 0.99524 0.87565 0.0
C601 C 0.18457 0.01677 0.88384 0.0
C602 C 0.23805 0.0024 0.90386 0.0
C603 C 0.21524 0.02058 0.89826 0.0
H604 H 0.13364 0.9313 0.83042 0.0
H605 H 0.2213 0.03756 0.90498 0.0
H606 H 0.27729 0.96436 0.91019 0.0
H607 H 0.17369 0.89819 0.83781 0.0
H608 H 0.1677 0.0311 0.87942 0.0
H609 H 0.98649 0.93414 0.83063 0.0
H610 H 0.26187 0.00543 0.91501 0.0
H611 H 0.04317 0.0614 0.87618 0.0
H612 H 0.03692 0.95086 0.8533 0.0
H613 H 0.9993 0.0871 0.85823 0.0
H614 H 0.26379 0.92651 0.89296 0.0
H615 H 0.93565 0.95835 0.81705 0.0
H616 H 0.90718 0.99691 0.81488 0.0
H617 H 0.22569 0.90188 0.86608 0.0
H618 H 0.91113 0.03819 0.82195 0.0
N619 N 0.01608 0.98486 0.85259 0.0
C620 C 0.0154 0.96192 0.84766 0.0
C621 C 0.95805 0.96597 0.82695 0.0
C622 C 0.95882 0.98939 0.83184 0.0
C623 C 0.98669 0.95226 0.83457 0.0
C624 C 0.98889 0.99862 0.84444 0.0
H625 H 0.94643 0.07185 0.83606 0.0
N626 N 0.02109 0.03083 0.85993 0.0
C627 C 0.99707 0.06892 0.85488 0.0
C628 C 0.99153 0.02218 0.84809 0.0
C629 C 0.02314 0.05401 0.86416 0.0
C630 C 0.9671 0.06024 0.84263 0.0
C631 C 0.96361 0.03668 0.83956 0.0
O632 O 0.02096 0.02266 0.9021 0.0
O633 O 0.11258 0.99576 0.88706 0.0
O634 O 0.11156 0.9561 0.86908 0.0
O635 O 0.06171 0.96723 0.89193 0.0
O636 O 0.08414 0.00686 0.91583 0.0
O637 O 1.01045 0.98653 0.89636 0.0
O638 O 0.15734 0.97276 0.8182 0.0
O639 O 0.07388 0.99604 0.8411 0.0
O640 O 0.08645 0.03381 0.87509 0.0
O641 O 0.12435 0.02362 0.84297 0.0
O642 O 0.09861 0.98052 0.81378 0.0
O643 O 0.17564 0.00446 0.83473 0.0
C644 C 0.11684 -3e-05 0.91113 0.0
C645 C 0.97687 0.00508 0.92723 0.0
C646 C 0.97216 0.00883 0.9713 0.0
C647 C 0.9928 0.00968 0.94982 0.0
C648 C 0.93528 0.00328 0.97009 0.0
C649 C 0.94012 -0.0005 0.92579 0.0
C650 C 0.91935 0.99858 0.94729 0.0
C651 C 0.08606 0.9518 0.88556 0.0
C652 C 0.99821 0.00584 0.90494 0.0
C653 C 0.93294 0.0273 0.82824 0.0
C654 C 0.93064 0.00377 0.82426 0.0
C655 C 0.06823 0.99098 0.81747 0.0
C656 C 0.19686 0.99514 0.79495 0.0
C657 C 0.1766 0.00811 0.77831 0.0
C658 C 0.19072 0.01271 0.75488 0.0
C659 C 0.22487 0.00421 0.74842 0.0
C660 C 0.23099 0.98679 0.78837 0.0
C661 C 0.24514 0.99151 0.76513 0.0
C662 C 0.10837 0.03923 0.8568 0.0
C663 C 0.18228 0.98842 0.81861 0.0
H664 H 0.02155 0.01314 0.95071 0.0
H665 H 0.91914 0.00219 0.98674 0.0
H666 H 0.92766 0.99575 0.90812 0.0
H667 H 0.89114 0.99392 0.94633 0.0
H668 H 0.14969 0.01385 0.78323 0.0
H669 H 0.2347 0.00638 0.72992 0.0
H670 H 0.24646 0.97636 0.8011 0.0
H671 H 0.27128 0.98483 0.75984 0.0
Tb672 Tb 0.3784 0.51203 0.59965 0.0
C673 C 0.24671 0.47819 0.59449 0.0
C674 C 0.20231 0.50873 0.59529 0.0
C675 C 0.19117 0.47499 0.57056 0.0
C676 C 0.23621 0.49978 0.60269 0.0
C677 C 0.22393 0.46567 0.5784 0.0
C678 C 0.17994 0.49618 0.5794 0.0
C679 C 0.26443 0.43384 0.58151 0.0
N680 N 0.27821 0.46906 0.60289 0.0
C681 C 0.28537 0.44643 0.598 0.0
C682 C 0.23386 0.44364 0.57127 0.0
Tb683 Tb 0.30756 0.49097 0.63223 0.0
N684 N 0.25825 0.51164 0.61837 0.0
C685 C 0.24655 0.53223 0.62768 0.0
C686 C 0.1919 0.53026 0.60367 0.0
C687 C 0.21417 0.54205 0.61986 0.0
H688 H 0.30504 0.43687 0.60816 0.0
H689 H 0.20574 0.55844 0.62715 0.0
H690 H 0.15409 0.50292 0.57352 0.0
H691 H 0.27092 0.41614 0.57772 0.0
H692 H 0.26021 0.5411 0.64229 0.0
H693 H 0.47424 0.46213 0.65252 0.0
H694 H 0.16643 0.53776 0.59807 0.0
H695 H 0.37578 0.56887 0.58561 0.0
H696 H 0.41949 0.46795 0.62863 0.0
H697 H 0.41258 0.60272 0.59475 0.0
H698 H 0.1743 0.46568 0.55779 0.0
H699 H 0.51291 0.4948 0.66277 0.0
H700 H 0.5287 0.53592 0.65641 0.0
H701 H 0.21698 0.43359 0.55904 0.0
H702 H 0.5112 0.57393 0.64201 0.0
N703 N 0.42527 0.50412 0.6257 0.0
C704 C 0.43557 0.48258 0.63274 0.0
C705 C 0.48952 0.49746 0.65127 0.0
C706 C 0.48069 0.51919 0.64248 0.0
C707 C 0.46717 0.47906 0.64614 0.0
C708 C 0.44748 0.52224 0.63005 0.0
H709 H 0.46759 0.59904 0.62011 0.0
N710 N 0.40587 0.54648 0.60917 0.0
C711 C 0.41953 0.58642 0.60289 0.0
C712 C 0.43716 0.54398 0.62217 0.0
C713 C 0.39823 0.56725 0.5983 0.0
C714 C 0.45057 0.58425 0.61714 0.0
C715 C 0.4603 0.56283 0.62636 0.0
O716 O 0.4039 0.52966 0.57122 0.0
O717 O 0.32099 0.50203 0.59385 0.0
O718 O 0.3454 0.46291 0.62535 0.0
O719 O 0.37521 0.47539 0.59066 0.0
O720 O 0.34542 0.51483 0.56449 0.0
O721 O 0.42343 0.49652 0.58274 0.0
O722 O 0.29042 0.46 0.64709 0.0
O723 O 0.36498 0.50106 0.63861 0.0
O724 O 0.34732 0.54135 0.61395 0.0
O725 O 0.3159 0.52604 0.64676 0.0
O726 O 0.33717 0.49033 0.6682 0.0
O727 O 0.26445 0.49164 0.65738 0.0
C728 C 0.31422 0.50635 0.57015 0.0
C729 C 0.44207 0.51105 0.54422 0.0
C730 C 0.43144 0.49826 0.50277 0.0
C731 C 0.42225 0.49783 0.52766 0.0
C732 C 0.45968 0.51217 0.49442 0.0
C733 C 0.47162 0.52403 0.53616 0.0
C734 C 0.48035 0.52464 0.51115 0.0
C735 C 0.36458 0.45877 0.60531 0.0
C736 C 0.42931 0.51449 0.56907 0.0
C737 C 0.49316 0.55968 0.63876 0.0
C738 C 0.5033 0.53797 0.64676 0.0
C739 C 0.36938 0.49737 0.6629 0.0
C740 C 0.264 0.46162 0.68644 0.0
C741 C 0.2399 0.47247 0.70241 0.0
C742 C 0.2379 0.46597 0.72713 0.0
C743 C 0.25895 0.44756 0.73564 0.0
C744 C 0.28505 0.44325 0.69503 0.0
C745 C 0.28224 0.43618 0.71955 0.0
C746 C 0.33029 0.54382 0.63524 0.0
C747 C 0.26611 0.46961 0.66091 0.0
H748 H 0.39897 0.48818 0.53388 0.0
H749 H 0.46476 0.51377 0.47485 0.0
H750 H 0.48673 0.53453 0.54902 0.0
H751 H 0.50218 0.53535 0.5047 0.0
H752 H 0.22376 0.48673 0.69589 0.0
H753 H 0.25872 0.44271 0.75496 0.0
H754 H 0.30378 0.43445 0.68294 0.0
H755 H 0.29881 0.42227 0.72626 0.0
Tb756 Tb 0.90073 0.73461 0.59651 0.0
C757 C 0.02961 0.7767 0.59599 0.0
C758 C 0.07146 0.74695 0.58323 0.0
C759 C 0.08211 0.78603 0.57059 0.0
C760 C 0.03924 0.75369 0.59527 0.0
C761 C 0.05154 0.79306 0.58387 0.0
C762 C 0.09225 0.76309 0.57053 0.0
C763 C 0.01617 0.82279 0.60264 0.0
N764 N 1.00081 0.78325 0.61002 0.0
C765 C 0.99614 0.80617 0.61498 0.0
C766 C 0.04348 0.81621 0.58656 0.0
Tb767 Tb 0.97267 0.75342 0.63067 0.0
N768 N 0.01779 0.73802 0.60676 0.0
C769 C 0.02826 0.71556 0.60751 0.0
C770 C 0.08211 0.72411 0.58432 0.0
C771 C 0.06032 0.70835 0.5964 0.0
H772 H 0.97768 0.81207 0.62907 0.0
H773 H 0.06848 0.69063 0.59749 0.0
H774 H 0.11646 0.75798 0.56077 0.0
H775 H 1.01123 0.84072 0.60619 0.0
H776 H 1.01367 0.7031 0.61791 0.0
H777 H 0.7996 0.79577 0.62697 0.0
H778 H 0.1071 0.71847 0.57587 0.0
H779 H 0.88985 0.6765 0.59469 0.0
H780 H 0.84908 0.78215 0.60148 0.0
H781 H 0.85794 0.64741 0.61862 0.0
H782 H 0.09892 0.79836 0.5611 0.0
H783 H 0.76923 0.7695 0.65586 0.0
H784 H 0.76338 0.73043 0.6728 0.0
H785 H 0.05959 0.82918 0.5775 0.0
H786 H 0.78058 0.68997 0.67181 0.0
N787 N 0.85302 0.7494 0.61878 0.0
C788 C 0.83925 0.77094 0.61563 0.0
C789 C 0.7927 0.76374 0.64565 0.0
C790 C 0.80447 0.74113 0.6472 0.0
C791 C 0.8098 0.7786 0.62945 0.0
C792 C 0.83464 0.73421 0.63305 0.0
H793 H 0.81531 0.65886 0.6514 0.0
N794 N 0.8705 0.70479 0.61612 0.0
C795 C 0.85435 0.6653 0.62309 0.0
C796 C 0.8442 0.71133 0.63214 0.0
C797 C 0.87305 0.682 0.6099 0.0
C798 C 0.83038 0.67182 0.64153 0.0
C799 C 0.82385 0.69502 0.64551 0.0
O800 O 0.87533 0.71204 0.57225 0.0
O801 O 0.95878 0.74344 0.59206 0.0
O802 O 0.93679 0.78261 0.62564 0.0
O803 O 0.90783 0.77171 0.58973 0.0
O804 O 0.93462 0.73217 0.56174 0.0
O805 O 0.8622 0.74775 0.5713 0.0
O806 O 1.00214 0.77548 0.6535 0.0
O807 O 0.91424 0.74522 0.6355 0.0
O808 O 0.93344 0.70458 0.60795 0.0
O809 O 0.96304 0.71799 0.64248 0.0
O810 O 0.94017 0.75631 0.66582 0.0
O811 O 1.01447 0.73894 0.65213 0.0
C812 C 0.96581 0.74002 0.56826 0.0
C813 C 0.8501 0.72508 0.53523 0.0
C814 C 0.85103 0.73918 0.49283 0.0
C815 C 0.85687 0.74277 0.51829 0.0
C816 C 0.83884 0.71766 0.48469 0.0
C817 C 0.83668 0.70409 0.52668 0.0
C818 C 0.83123 0.70041 0.50156 0.0
C819 C 0.91847 0.78765 0.60553 0.0
C820 C 0.85562 0.72766 0.562 0.0
C821 C 0.79591 0.70221 0.66112 0.0
C822 C 0.78609 0.7252 0.66176 0.0
C823 C 0.90817 0.74933 0.65948 0.0
C824 C 0.05175 0.76261 0.67771 0.0
C825 C 0.04017 0.76584 0.70171 0.0
C826 C 0.0653 0.7689 0.72046 0.0
C827 C 0.10234 0.76905 0.7153 0.0
C828 C 0.08873 0.76267 0.67206 0.0
C829 C 0.11406 0.76601 0.69094 0.0
C830 C 0.94902 0.70094 0.62971 0.0
C831 C 0.02496 0.75927 0.6587 0.0
H832 H 0.8666 0.75913 0.52483 0.0
H833 H 0.83531 0.71407 0.46519 0.0
H834 H 0.83067 0.69041 0.53951 0.0
H835 H 0.82139 0.68405 0.49511 0.0
H836 H 1.0115 0.76539 0.70595 0.0
H837 H 0.12186 0.77117 0.72999 0.0
H838 H 0.09787 0.76019 0.65322 0.0
H839 H 0.14263 0.76603 0.68675 0.0
Tb840 Tb 0.37746 0.73729 0.75074 0.0
C841 C 0.23846 0.76938 0.75418 0.0
C842 C 0.19787 0.73692 0.7537 0.0
C843 C 0.1779 0.77269 0.77163 0.0
C844 C 0.23153 0.74693 0.74773 0.0
C845 C 0.21187 0.78227 0.76682 0.0
C846 C 0.17081 0.75012 0.76489 0.0
C847 C 0.25356 0.81359 0.76858 0.0
N848 N 0.27136 0.77837 0.74859 0.0
C849 C 0.27853 0.80057 0.75532 0.0
C850 C 0.21998 0.80448 0.77422 0.0
Tb851 Tb 0.3034 0.7569 0.71983 0.0
N852 N 0.25876 0.73441 0.73762 0.0
C853 C 0.25541 0.71107 0.737 0.0
C854 C 0.19319 0.71356 0.74986 0.0
C855 C 0.22256 0.70046 0.74241 0.0
H856 H 0.30165 0.80961 0.7489 0.0
H857 H 0.22013 0.68208 0.74115 0.0
H858 H 0.14478 0.74275 0.76935 0.0
H859 H 0.2597 0.8311 0.77345 0.0
H860 H 0.27751 0.69998 0.73309 0.0
H861 H 0.4759 0.78652 0.6996 0.0
H862 H 0.1679 0.70524 0.75431 0.0
H863 H 0.37143 0.68089 0.76469 0.0
H864 H 0.41844 0.78087 0.72069 0.0
H865 H 0.40966 0.64674 0.75808 0.0
H866 H 0.15708 0.78249 0.78089 0.0
H867 H 0.51693 0.754 0.69305 0.0
H868 H 0.52957 0.71251 0.69791 0.0
H869 H 0.20033 0.81486 0.78394 0.0
H870 H 0.51127 0.67459 0.71273 0.0
N871 N 0.42547 0.74502 0.72592 0.0
C872 C 0.43546 0.76631 0.71794 0.0
C873 C 0.49154 0.75127 0.70253 0.0
C874 C 0.48165 0.72957 0.71099 0.0
C875 C 0.46837 0.76968 0.70603 0.0
C876 C 0.44789 0.72679 0.72272 0.0
H877 H 0.4666 0.65001 0.73464 0.0
N878 N 0.40492 0.70282 0.74307 0.0
C879 C 0.41747 0.66299 0.75023 0.0
C880 C 0.43711 0.70514 0.73099 0.0
C881 C 0.39579 0.68225 0.75374 0.0
C882 C 0.44964 0.66493 0.73701 0.0
C883 C 0.46015 0.68617 0.72763 0.0
O884 O 0.40179 0.72083 0.78061 0.0
O885 O 0.31985 0.7463 0.75734 0.0
O886 O 0.33944 0.78607 0.72534 0.0
O887 O 0.37516 0.77421 0.75786 0.0
O888 O 0.34388 0.73213 0.78556 0.0
O889 O 0.42266 0.75306 0.76662 0.0
O890 O 0.28189 0.78733 0.70637 0.0
O891 O 0.36147 0.74905 0.71321 0.0
O892 O 0.35809 0.70908 0.72675 0.0
O893 O 0.30882 0.72209 0.704 0.0
O894 O 0.33327 0.75787 0.68353 0.0
O895 O 0.26036 0.75482 0.69461 0.0
C896 C 0.31285 0.74125 0.78068 0.0
C897 C 0.44186 0.74077 0.80569 0.0
C898 C 0.43645 0.75818 0.84565 0.0
C899 C 0.42327 0.75516 0.8218 0.0
C900 C 0.46749 0.74656 0.85336 0.0
C901 C 0.47338 0.72949 0.81319 0.0
C902 C 0.48615 0.73235 0.83714 0.0
C903 C 0.36186 0.79042 0.74367 0.0
C904 C 0.42777 0.73582 0.78153 0.0
C905 C 0.4934 0.689 0.71558 0.0
C906 C 0.50404 0.7106 0.70735 0.0
C907 C 0.36611 0.75203 0.68897 0.0
C908 C 0.25571 0.78602 0.66695 0.0
C909 C 0.23377 0.77444 0.65018 0.0
C910 C 0.23148 0.78169 0.62567 0.0
C911 C 0.24947 0.80175 0.61837 0.0
C912 C 0.27362 0.80608 0.65956 0.0
C913 C 0.27014 0.81399 0.63537 0.0
C914 C 0.33305 0.70605 0.70952 0.0
C915 C 0.25897 0.77701 0.69207 0.0
H916 H 0.39832 0.76332 0.8161 0.0
H917 H 0.47594 0.74795 0.8723 0.0
H918 H 0.48751 0.71807 0.80071 0.0
H919 H 0.50983 0.72313 0.84322 0.0
H920 H 0.21982 0.75902 0.65586 0.0
H921 H 0.24907 0.80734 0.59928 0.0
H922 H 0.29046 0.81557 0.67231 0.0
H923 H 0.28435 0.82922 0.6296 0.0
Tb924 Tb 0.90345 0.51265 0.75289 0.0
C925 C 0.03673 0.47829 0.75571 0.0
C926 C 0.07512 0.51164 0.75856 0.0
C927 C 0.09451 0.4761 0.77718 0.0
C928 C 0.04329 0.50094 0.74976 0.0
C929 C 0.06214 0.46581 0.76985 0.0
C930 C 0.10105 0.49895 0.77155 0.0
C931 C 0.02154 0.43383 0.76936 0.0
N932 N 1.00463 0.46891 0.74901 0.0
C933 C 0.99746 0.44666 0.7552 0.0
C934 C 0.05408 0.44342 0.77672 0.0
Tb935 Tb 0.97106 0.48996 0.72117 0.0
N936 N 0.01683 0.51302 0.73797 0.0
C937 C 0.01948 0.53647 0.73771 0.0
C938 C 0.07909 0.53511 0.75551 0.0
C939 C 0.0507 0.54763 0.7457 0.0
H940 H 0.97465 0.43782 0.74781 0.0
H941 H 0.05244 0.56606 0.74482 0.0
H942 H 0.12561 0.50691 0.7782 0.0
H943 H 0.01539 0.41626 0.77393 0.0
H944 H 0.99783 0.54744 0.73246 0.0
H945 H 0.78227 0.47749 0.71404 0.0
H946 H 0.10295 0.54391 0.76212 0.0
H947 H 0.92908 0.56629 0.76659 0.0
H948 H 0.84517 0.47593 0.72891 0.0
H949 H 0.90112 0.60465 0.7647 0.0
H950 H 0.11417 0.46664 0.78782 0.0
H951 H 0.75242 0.51509 0.70858 0.0
H952 H 0.75297 0.55702 0.71436 0.0
H953 H 0.07285 0.43338 0.78758 0.0
H954 H 0.78482 0.59147 0.72845 0.0
N955 N 0.85028 0.51197 0.73218 0.0
C956 C 0.8323 0.4923 0.72652 0.0
C957 C 0.77962 0.51421 0.71543 0.0
C958 C 0.79768 0.5342 0.72194 0.0
C959 C 0.79653 0.49312 0.71836 0.0
C960 C 0.83338 0.53258 0.73066 0.0
H961 H 0.84002 0.60936 0.74703 0.0
N962 N 0.88505 0.54978 0.74858 0.0
C963 C 0.88689 0.58999 0.75739 0.0
C964 C 0.8511 0.55202 0.73917 0.0
C965 C 0.90271 0.56832 0.75833 0.0
C966 C 0.85236 0.59258 0.74741 0.0
C967 C 0.83387 0.57348 0.73839 0.0
O968 O 0.88607 0.52887 0.78533 0.0
O969 O 0.95643 0.49581 0.76079 0.0
O970 O 0.93338 0.46167 0.72697 0.0
O971 O 0.89916 0.47546 0.75923 0.0
O972 O 0.94748 0.52519 0.77852 0.0
O973 O 0.86044 0.49798 0.7725 0.0
O974 O 0.98489 0.45803 0.70714 0.0
O975 O 0.91328 0.49842 0.71522 0.0
O976 O 0.91778 0.53787 0.72385 0.0
O977 O 0.96891 0.52433 0.70409 0.0
O978 O 0.94108 0.49208 0.68484 0.0
O979 O 0.01515 0.48795 0.69697 0.0
C980 C 0.97064 0.50869 0.77814 0.0
C981 C 0.85215 0.50836 0.81405 0.0
C982 C 0.86101 0.48513 0.8504 0.0
C983 C 0.8689 0.4898 0.82565 0.0
C984 C 0.83693 0.49943 0.86336 0.0
C985 C 0.82792 0.52228 0.82703 0.0
C986 C 0.82046 0.51786 0.8517 0.0
C987 C 0.91023 0.45848 0.74508 0.0
C988 C 0.86001 0.51438 0.7887 0.0
C989 C 0.79859 0.57515 0.72907 0.0
C990 C 0.7805 0.55556 0.72095 0.0
C991 C 0.90785 0.49653 0.69079 0.0
C992 C 1.00628 0.45968 0.66693 0.0
C993 C 0.02849 0.47049 0.64988 0.0
C994 C 0.02295 0.46698 0.62491 0.0
C995 C 0.99588 0.45207 0.61659 0.0
C996 C 0.97928 0.44443 0.65879 0.0
C997 C 0.97423 0.44066 0.6336 0.0
C998 C 0.94403 0.54041 0.70749 0.0
C999 C 1.0095 0.46629 0.69275 0.0
H1000 H 0.88856 0.47954 0.81576 0.0
H1001 H 0.83219 0.49693 0.88288 0.0
H1002 H 0.81528 0.53683 0.81815 0.0
H1003 H 0.80257 0.52903 0.86192 0.0
H1004 H 0.04897 0.48251 0.65593 0.0
H1005 H 0.99104 0.44964 0.59704 0.0
H1006 H 0.96151 0.43592 0.67173 0.0
H1007 H 0.95305 0.42935 0.62727 0.0
Tb1008 Tb 0.72876 0.5069 0.4669 0.0
C1009 C 0.5872 0.46325 0.48527 0.0
C1010 C 0.54565 0.49182 0.46962 0.0
C1011 C 0.52606 0.45245 0.47364 0.0
C1012 C 0.58005 0.48563 0.47872 0.0
C1013 C 0.56009 0.44642 0.48295 0.0
C1014 C 0.51886 0.4751 0.46712 0.0
C1015 C 0.60075 0.41939 0.5018 0.0
N1016 N 0.62013 0.45813 0.49482 0.0
C1017 C 0.62625 0.43679 0.50451 0.0
C1018 C 0.56762 0.42417 0.49074 0.0
Tb1019 Tb 0.65782 0.48898 0.5005 0.0
N1020 N 0.60738 0.50104 0.47971 0.0
C1021 C 0.60212 0.52278 0.47111 0.0
C1022 C 0.54025 0.51418 0.46129 0.0
C1023 C 0.56861 0.52969 0.46204 0.0
H1024 H 0.65118 0.43321 0.51418 0.0
H1025 H 0.56496 0.54686 0.45507 0.0
H1026 H 0.493 0.47939 0.45912 0.0
H1027 H 0.60639 0.40243 0.50873 0.0
H1028 H 0.62371 0.53486 0.47027 0.0
H1029 H 0.80819 0.43288 0.49846 0.0
H1030 H 0.51502 0.51938 0.45297 0.0
H1031 H 0.75119 0.56248 0.46885 0.0
H1032 H 0.76066 0.45087 0.47588 0.0
H1033 H 0.79359 0.58689 0.49096 0.0
H1034 H 0.50513 0.4397 0.47143 0.0
H1035 H 0.85141 0.45569 0.52257 0.0
H1036 H 0.8726 0.49351 0.53684 0.0
H1037 H 0.5476 0.41077 0.48908 0.0
H1038 H 0.86719 0.53517 0.53634 0.0
N1039 N 0.77268 0.48529 0.4873 0.0
C1040 C 0.7773 0.46199 0.48646 0.0
C1041 C 0.8297 0.46416 0.51277 0.0
C1042 C 0.82599 0.48782 0.51342 0.0
C1043 C 0.80528 0.45126 0.49926 0.0
C1044 C 0.79697 0.49815 0.50049 0.0
H1045 H 0.83788 0.56999 0.51963 0.0
N1046 N 0.7662 0.53176 0.48771 0.0
C1047 C 0.79323 0.56871 0.49459 0.0
C1048 C 0.79328 0.52185 0.50094 0.0
C1049 C 0.76838 0.55467 0.48258 0.0
C1050 C 0.81822 0.5591 0.51062 0.0
C1051 C 0.81942 0.5354 0.51326 0.0
O1052 O 0.74472 0.53118 0.44002 0.0
O1053 O 0.67022 0.49885 0.4614 0.0
O1054 O 0.67495 0.45878 0.47936 0.0
O1055 O 0.72021 0.47168 0.4532 0.0
O1056 O 0.69672 0.50785 0.43139 0.0
O1057 O 0.77779 0.50186 0.44922 0.0
O1058 O 0.64463 0.47405 0.53462 0.0
O1059 O 0.71318 0.50308 0.50703 0.0
O1060 O 0.7009 0.53853 0.47844 0.0
O1061 O 0.6605 0.52572 0.50774 0.0
O1062 O 0.70056 0.47461 0.52578 0.0
O1063 O 0.62148 0.50661 0.52328 0.0
C1064 C 0.66406 0.50184 0.43716 0.0
C1065 C 0.79374 0.52168 0.41338 0.0
C1066 C 0.81487 0.50185 0.37693 0.0
C1067 C 0.79579 0.50192 0.39917 0.0
C1068 C 0.83368 0.52163 0.36962 0.0
C1069 C 0.8122 0.54141 0.40603 0.0
C1070 C 0.83243 0.54129 0.38426 0.0
C1071 C 0.69802 0.45544 0.46112 0.0
C1072 C 0.77585 0.5211 0.43722 0.0
C1073 C 0.84728 0.52499 0.52663 0.0
C1074 C 0.85052 0.50128 0.52675 0.0
C1075 C 0.72534 0.49018 0.52523 0.0
C1076 C 0.59133 0.48649 0.55508 0.0
C1077 C 0.59098 0.49758 0.57763 0.0
C1078 C 0.56397 0.49342 0.59495 0.0
C1079 C 0.53581 0.4783 0.58899 0.0
C1080 C 0.56352 0.47127 0.54898 0.0
C1081 C 0.53545 0.46747 0.56586 0.0
C1082 C 0.67747 0.54241 0.4964 0.0
C1083 C 0.62325 0.49089 0.54021 0.0
H1084 H 0.78171 0.48665 0.40515 0.0
H1085 H 0.84789 0.52226 0.35213 0.0
H1086 H 0.81142 0.55671 0.41731 0.0
H1087 H 0.8466 0.55655 0.37851 0.0
H1088 H 0.61377 0.50839 0.58239 0.0
H1089 H 0.51492 0.47443 0.60233 0.0
H1090 H 0.56369 0.46208 0.53176 0.0
H1091 H 0.51404 0.45561 0.56134 0.0
Tb1092 Tb 0.05326 0.24287 0.46847 0.0
C1093 C 0.18176 0.29005 0.46888 0.0
C1094 C 0.22241 0.26343 0.44854 0.0
C1095 C 0.23079 0.30411 0.4429 0.0
C1096 C 0.19161 0.26765 0.46333 0.0
C1097 C 0.20205 0.30844 0.4591 0.0
C1098 C 0.24114 0.28168 0.43785 0.0
C1099 C 0.16943 0.33406 0.48582 0.0
N1100 N 0.15503 0.29381 0.4857 0.0
C1101 C 0.15104 0.31538 0.49567 0.0
C1102 C 0.19453 0.33064 0.46707 0.0
Tb1103 Tb 0.12758 0.26084 0.50036 0.0
N1104 N 0.17314 0.25009 0.47396 0.0
C1105 C 0.1862 0.22821 0.472 0.0
C1106 C 0.23488 0.24103 0.44596 0.0
C1107 C 0.21736 0.22347 0.45842 0.0
H1108 H 0.13247 0.31833 0.5108 0.0
H1109 H 0.2276 0.20619 0.45734 0.0
H1110 H 0.2646 0.27865 0.42644 0.0
H1111 H 0.16469 0.35105 0.49303 0.0
H1112 H 0.17423 0.21433 0.48194 0.0
H1113 H 0.96364 0.31283 0.49273 0.0
H1114 H 0.25882 0.23725 0.43519 0.0
H1115 H 0.04594 0.18545 0.48117 0.0
H1116 H 0.0171 0.29646 0.47485 0.0
H1117 H 1.01023 0.16128 0.50762 0.0
H1118 H 0.2464 0.31802 0.43517 0.0
H1119 H 0.92072 0.28866 0.51548 0.0
H1120 H 0.9053 0.25095 0.53333 0.0
H1121 H 0.2094 0.3451 0.45987 0.0
H1122 H 0.92013 0.21068 0.53978 0.0
N1123 N 1.01012 0.26301 0.49017 0.0
C1124 C 1.00167 0.2856 0.48657 0.0
C1125 C 0.94565 0.28131 0.50864 0.0
C1126 C 0.95381 0.25833 0.51244 0.0
C1127 C 0.96995 0.29504 0.49602 0.0
C1128 C 0.9866 0.24941 0.50292 0.0
H1129 H 0.95963 0.17754 0.53128 0.0
N1130 N 0.02402 0.21725 0.49433 0.0
C1131 C 1.00613 0.17959 0.508 0.0
C1132 C 0.99449 0.22625 0.50589 0.0
C1133 C 0.02802 0.19386 0.49386 0.0
C1134 C 0.97745 0.1888 0.52111 0.0
C1135 C 0.97038 0.21214 0.51937 0.0
O1136 O 0.02456 0.2175 0.44938 0.0
O1137 O 0.11178 0.24967 0.46217 0.0
O1138 O 0.09588 0.29067 0.48782 0.0
O1139 O 0.06495 0.27733 0.45395 0.0
O1140 O 0.08373 0.24019 0.43224 0.0
O1141 O 1.00842 0.25303 0.44748 0.0
O1142 O 0.15267 0.27964 0.52878 0.0
O1143 O 0.06962 0.25256 0.50676 0.0
O1144 O 0.08793 0.21306 0.47344 0.0
O1145 O 0.12159 0.22388 0.50746 0.0
O1146 O 0.09679 0.26209 0.53652 0.0
O1147 O 0.17312 0.2467 0.51731 0.0
C1148 C 0.11663 0.24586 0.43805 0.0
C1149 C 0.97951 0.22728 0.42055 0.0
C1150 C 0.9763 0.22503 0.37634 0.0
C1151 C 0.99579 0.22993 0.39771 0.0
C1152 C 0.94028 0.21789 0.37769 0.0
C1153 C 0.94373 0.21966 0.42222 0.0
C1154 C 0.92426 0.21485 0.40073 0.0
C1155 C 0.08177 0.29402 0.46569 0.0
C1156 C 0.99955 0.23192 0.44287 0.0
C1157 C 0.9388 0.22135 0.52957 0.0
C1158 C 0.93025 0.24424 0.52578 0.0
C1159 C 0.0645 0.25546 0.53087 0.0
C1160 C 0.19637 0.2617 0.55408 0.0
C1161 C 0.17874 0.25104 0.57376 0.0
C1162 C 0.1975 0.24735 0.5958 0.0
C1163 C 0.23335 0.25454 0.59801 0.0
C1164 C 0.2324 0.26872 0.55637 0.0
C1165 C 0.25089 0.26513 0.57839 0.0
C1166 C 0.10838 0.20794 0.49265 0.0
C1167 C 0.17889 0.26491 0.53044 0.0
H1168 H 0.02357 0.23573 0.39656 0.0
H1169 H 0.92509 0.21412 0.36106 0.0
H1170 H 0.93124 0.21716 0.44009 0.0
H1171 H 0.89719 0.20822 0.40178 0.0
H1172 H 0.15081 0.24574 0.57199 0.0
H1173 H 0.2471 0.25255 0.6152 0.0
H1174 H 0.24623 0.27685 0.54106 0.0
H1175 H 0.27861 0.27069 0.58033 0.0
Tb1176 Tb 0.72828 0.24295 0.38057 0.0
C1177 C 0.5933 0.2918 0.37263 0.0
C1178 C 0.554 0.26705 0.39669 0.0
C1179 C 0.54064 0.3075 0.39365 0.0
C1180 C 0.58499 0.27016 0.38183 0.0
C1181 C 0.57025 0.31043 0.37778 0.0
C1182 C 0.53274 0.28591 0.40323 0.0
C1183 C 0.60523 0.33334 0.34943 0.0
N1184 N 0.62238 0.29431 0.3574 0.0
C1185 C 0.62748 0.31454 0.34488 0.0
C1186 C 0.57675 0.33135 0.36614 0.0
Tb1187 Tb 0.65241 0.26077 0.34904 0.0
N1188 N 0.6057 0.25201 0.37502 0.0
C1189 C 0.59549 0.23026 0.38128 0.0
C1190 C 0.54406 0.2449 0.40352 0.0
C1191 C 0.56436 0.22641 0.39523 0.0
H1192 H 0.64938 0.31615 0.33176 0.0
H1193 H 0.55661 0.20918 0.40011 0.0
H1194 H 0.50916 0.28377 0.41482 0.0
H1195 H 0.60997 0.34933 0.33997 0.0
H1196 H 0.61128 0.21572 0.3759 0.0
H1197 H 0.80453 0.31551 0.34652 0.0
H1198 H 0.52019 0.24186 0.41462 0.0
H1199 H 0.74903 0.18668 0.38035 0.0
H1200 H 0.7505 0.29747 0.36216 0.0
H1201 H 0.79344 0.1617 0.36092 0.0
H1202 H 0.52301 0.3217 0.39802 0.0
H1203 H 0.85448 0.29216 0.33011 0.0
H1204 H 0.8779 0.25402 0.31797 0.0
H1205 H 0.55946 0.34595 0.36952 0.0
H1206 H 0.87241 0.21238 0.31898 0.0
N1207 N 0.76879 0.26316 0.35671 0.0
C1208 C 0.77145 0.2865 0.35571 0.0
C1209 C 0.83049 0.28386 0.3372 0.0
C1210 C 0.82688 0.26015 0.33642 0.0
C1211 C 0.80244 0.29708 0.34654 0.0
C1212 C 0.79553 0.25002 0.34661 0.0
H1213 H 0.84079 0.17793 0.33427 0.0
N1214 N 0.76484 0.21675 0.36056 0.0
C1215 C 0.79307 0.17971 0.35643 0.0
C1216 C 0.79273 0.22628 0.34771 0.0
C1217 C 0.76697 0.19401 0.36673 0.0
C1218 C 0.81977 0.18895 0.3415 0.0
C1219 C 0.82087 0.21253 0.33792 0.0
O1220 O 0.75333 0.22115 0.406 0.0
O1221 O 0.6696 0.24953 0.38651 0.0
O1222 O 0.67263 0.29062 0.36995 0.0
O1223 O 0.71964 0.27784 0.39489 0.0
O1224 O 0.69595 0.23949 0.41629 0.0
O1225 O 0.77568 0.25435 0.39748 0.0
O1226 O 0.63146 0.27597 0.3169 0.0
O1227 O 0.71044 0.25213 0.34277 0.0
O1228 O 0.70093 0.21148 0.36864 0.0
O1229 O 0.65399 0.22384 0.34349 0.0
O1230 O 0.68556 0.26463 0.31387 0.0
O1231 O 0.60745 0.24476 0.33281 0.0
C1232 C 0.66343 0.24585 0.41042 0.0
C1233 C 0.79824 0.23561 0.43185 0.0
C1234 C 0.79411 0.2428 0.47506 0.0
C1235 C 0.7791 0.24398 0.45168 0.0
C1236 C 0.82956 0.23501 0.47857 0.0
C1237 C 0.83331 0.22718 0.43489 0.0
C1238 C 0.84926 0.22721 0.45829 0.0
C1239 C 0.69628 0.29379 0.38801 0.0
C1240 C 0.7811 0.23471 0.40813 0.0
C1241 C 0.85074 0.22272 0.3265 0.0
C1242 C 0.85398 0.24643 0.32606 0.0
C1243 C 0.71672 0.25591 0.31899 0.0
C1244 C 0.5775 0.26153 0.29788 0.0
C1245 C 0.58386 0.24948 0.27618 0.0
C1246 C 0.56068 0.25207 0.25607 0.0
C1247 C 0.53002 0.26609 0.25836 0.0
C1248 C 0.54715 0.27563 0.30018 0.0
C1249 C 0.52306 0.2776 0.28046 0.0
C1250 C 0.67395 0.20751 0.35318 0.0
C1251 C 0.60507 0.26126 0.31673 0.0
H1252 H 0.75173 0.25024 0.44913 0.0
H1253 H 0.84118 0.234 0.49692 0.0
H1254 H 0.84773 0.22036 0.41926 0.0
H1255 H 0.87616 0.22049 0.4609 0.0
H1256 H 0.60847 0.23953 0.27432 0.0
H1257 H 0.51226 0.26883 0.24289 0.0
H1258 H 0.54239 0.28525 0.317 0.0
H1259 H 0.49956 0.2885 0.28205 0.0
Tb1260 Tb 0.05559 0.50494 0.38073 0.0
C1261 C 0.18195 0.45481 0.38101 0.0
C1262 C 0.22188 0.4807 0.40307 0.0
C1263 C 0.22861 0.43984 0.40839 0.0
C1264 C 0.19212 0.47703 0.38716 0.0
C1265 C 0.20114 0.43607 0.39104 0.0
C1266 C 0.23908 0.46208 0.41424 0.0
C1267 C 0.16932 0.41119 0.36304 0.0
N1268 N 0.15572 0.45154 0.3637 0.0
C1269 C 0.15167 0.43019 0.3532 0.0
C1270 C 0.19357 0.41408 0.38244 0.0
Tb1271 Tb 0.12929 0.48501 0.34954 0.0
N1272 N 0.17471 0.49497 0.3764 0.0
C1273 C 0.18797 0.51671 0.37932 0.0
C1274 C 0.23437 0.50296 0.40673 0.0
C1275 C 0.21788 0.52094 0.39432 0.0
H1276 H 0.13328 0.42768 0.33788 0.0
H1277 H 0.22804 0.53816 0.39643 0.0
H1278 H 0.26131 0.46473 0.42684 0.0
H1279 H 0.16447 0.39436 0.35547 0.0
H1280 H 0.17696 0.53087 0.36935 0.0
H1281 H 0.96381 0.43783 0.35424 0.0
H1282 H 0.25717 0.50641 0.41867 0.0
H1283 H 0.05275 0.56304 0.3694 0.0
H1284 H 0.02035 0.45233 0.36972 0.0
H1285 H 0.0177 0.58875 0.34425 0.0
H1286 H 0.24304 0.42563 0.41657 0.0
H1287 H 0.92038 0.46395 0.3349 0.0
H1288 H 0.90612 0.50267 0.3184 0.0
H1289 H 0.2076 0.39934 0.38981 0.0
H1290 H 0.92302 0.54261 0.31279 0.0
N1291 N 1.01255 0.48656 0.3577 0.0
C1292 C 1.00377 0.46396 0.35998 0.0
C1293 C 0.9462 0.47044 0.34079 0.0
C1294 C 0.9555 0.4933 0.33727 0.0
C1295 C 0.97072 0.45562 0.35165 0.0
C1296 C 0.98922 0.50112 0.34614 0.0
H1297 H 0.96512 0.57446 0.32118 0.0
N1298 N 0.02856 0.53213 0.35554 0.0
C1299 C 1.0125 0.57058 0.34336 0.0
C1300 C 0.99826 0.52418 0.34398 0.0
C1301 C 0.03398 0.5554 0.3567 0.0
C1302 C 0.98273 0.56247 0.33055 0.0
C1303 C 0.97437 0.53928 0.33162 0.0
O1304 O 0.02661 0.53023 0.39988 0.0
O1305 O 0.11347 0.49662 0.3876 0.0
O1306 O 0.09885 0.45552 0.36424 0.0
O1307 O 0.06426 0.47022 0.39596 0.0
O1308 O 0.08599 0.50789 0.41704 0.0
O1309 O 1.00917 0.49504 0.39981 0.0
O1310 O 0.15325 0.46641 0.32057 0.0
O1311 O 0.07177 0.49449 0.34277 0.0
O1312 O 0.09205 0.53369 0.37605 0.0
O1313 O 0.12513 0.52204 0.34209 0.0
O1314 O 0.09778 0.48339 0.31342 0.0
O1315 O 0.1766 0.49785 0.33377 0.0
C1316 C 0.11844 0.50089 0.41164 0.0
C1317 C 0.98244 0.5192 0.4284 0.0
C1318 C 0.98373 0.51635 0.47242 0.0
C1319 C 1.00147 0.51554 0.44991 0.0
C1320 C 0.94649 0.52084 0.47353 0.0
C1321 C 0.94532 0.52396 0.42902 0.0
C1322 C 0.92734 0.52484 0.45171 0.0
C1323 C 0.08209 0.45306 0.38564 0.0
C1324 C 1.00067 0.51604 0.40523 0.0
C1325 C 0.94169 0.53116 0.32199 0.0
C1326 C 0.93199 0.50839 0.32524 0.0
C1327 C 0.06601 0.49124 0.31878 0.0
C1328 C 0.19492 0.48522 0.29494 0.0
C1329 C 0.17522 0.49821 0.27807 0.0
C1330 C 0.18973 0.50269 0.25476 0.0
C1331 C 0.22415 0.49436 0.24866 0.0
C1332 C 0.22932 0.477 0.28882 0.0
C1333 C 0.24406 0.48175 0.26571 0.0
C1334 C 0.11267 0.53826 0.35684 0.0
C1335 C 0.18056 0.48035 0.31925 0.0
H1336 H 0.02993 0.51115 0.44905 0.0
H1337 H 0.93244 0.52116 0.4911 0.0
H1338 H 0.93029 0.52654 0.41205 0.0
H1339 H 0.89864 0.52827 0.45236 0.0
H1340 H 0.1485 0.50438 0.28285 0.0
H1341 H 0.23472 0.4967 0.2303 0.0
H1342 H 0.24478 0.467 0.30195 0.0
H1343 H 0.27052 0.4753 0.26084 0.0
Tb1344 Tb 0.88074 0.01168 0.59714 0.0
C1345 C 0.74301 0.97758 0.59619 0.0
C1346 C 0.70155 0.00965 0.59747 0.0
C1347 C 0.68138 0.97338 0.5809 0.0
C1348 C 0.73589 8e-05 0.60241 0.0
C1349 C 0.71593 0.96421 0.58474 0.0
C1350 C 0.6741 0.99598 0.58749 0.0
C1351 C 0.75805 0.93305 0.58292 0.0
N1352 N 0.77634 0.96889 0.60123 0.0
C1353 C 0.7834 0.94651 0.59526 0.0
C1354 C 0.72406 0.94186 0.57777 0.0
Tb1355 Tb 0.80876 0.99101 0.62901 0.0
N1356 N 0.76339 0.013 0.61151 0.0
C1357 C 0.75951 0.0363 0.61198 0.0
C1358 C 0.69656 0.03305 0.60101 0.0
C1359 C 0.72608 0.04653 0.60733 0.0
H1360 H 0.80671 0.93776 0.60185 0.0
H1361 H 0.72322 0.0649 0.60841 0.0
H1362 H 0.64758 0.00302 0.58378 0.0
H1363 H 0.76417 0.91541 0.57858 0.0
H1364 H 0.78155 0.04758 0.61534 0.0
H1365 H 0.98254 0.96698 0.64996 0.0
H1366 H 0.67078 0.04106 0.59723 0.0
H1367 H 0.87097 0.06722 0.58071 0.0
H1368 H 0.92674 0.96999 0.62602 0.0
H1369 H 0.90531 0.10296 0.5876 0.0
H1370 H 0.66019 0.9632 0.57258 0.0
H1371 H 0.01787 0.0016 0.65911 0.0
H1372 H 0.02496 0.04343 0.65515 0.0
H1373 H 0.70406 0.93111 0.56892 0.0
H1374 H 1.00474 0.08034 0.63856 0.0
N1375 N 0.92878 0.00614 0.6225 0.0
C1376 C 0.94122 0.98528 0.6302 0.0
C1377 C 0.99305 0.00308 0.64866 0.0
C1378 C 0.9812 0.02424 0.63979 0.0
C1379 C 0.97318 0.98348 0.64363 0.0
C1380 C 0.94845 0.0254 0.62662 0.0
H1381 H 0.96025 0.10253 0.61347 0.0
N1382 N 0.90492 0.04718 0.60406 0.0
C1383 C 0.91406 0.08722 0.59619 0.0
C1384 C 0.93625 0.04639 0.61736 0.0
C1385 C 0.89461 0.06707 0.59246 0.0
C1386 C 0.94513 0.08689 0.61077 0.0
C1387 C 0.95688 0.06634 0.62122 0.0
O1388 O 0.90462 0.02778 0.56659 0.0
O1389 O 0.8231 0.00196 0.59093 0.0
O1390 O 0.84511 0.96196 0.62305 0.0
O1391 O 0.88093 0.97447 0.59084 0.0
O1392 O 0.84667 0.01571 0.56234 0.0
O1393 O 0.9272 0.99667 0.58201 0.0
O1394 O 0.78826 0.9608 0.64391 0.0
O1395 O 0.86663 -0.00033 0.63513 0.0
O1396 O 0.86056 0.03978 0.62131 0.0
O1397 O 0.81346 0.02567 0.64528 0.0
O1398 O 0.83966 0.98967 0.66495 0.0
O1399 O 0.76508 0.9935 0.65345 0.0
C1400 C 0.81573 0.00654 0.56739 0.0
C1401 C 0.94949 0.00875 0.54352 0.0
C1402 C 0.94904 0.99288 0.50243 0.0
C1403 C 0.9312 0.99749 0.52463 0.0
C1404 C 0.98515 -0.00048 0.49934 0.0
C1405 C 0.98541 0.01569 0.5403 0.0
C1406 C 1.00321 0.01108 0.51816 0.0
C1407 C 0.86815 0.95802 0.60497 0.0
C1408 C 0.93188 0.01365 0.56678 0.0
C1409 C 0.98883 0.06516 0.63506 0.0
C1410 C 1.00072 0.0442 0.64431 0.0
C1411 C 0.87209 0.9962 0.6593 0.0
C1412 C 0.75696 0.96296 0.68165 0.0
C1413 C 0.739 0.97703 0.69844 0.0
C1414 C 0.73312 0.96978 0.72263 0.0
C1415 C 0.74299 0.94747 0.72956 0.0
C1416 C 0.76658 0.94063 0.6886 0.0
C1417 C 0.75929 0.9329 0.71246 0.0
C1418 C 0.83653 0.04221 0.63936 0.0
C1419 C 0.76367 0.9714 0.65665 0.0
H1420 H 0.90321 0.99254 0.5271 0.0
H1421 H 0.99883 0.99633 0.48212 0.0
H1422 H 0.99963 0.02465 0.55489 0.0
H1423 H 0.0308 0.0166 0.51551 0.0
H1424 H 0.73089 0.99412 0.69306 0.0
H1425 H 0.73972 0.94166 0.74843 0.0
H1426 H 0.77972 0.92918 0.67567 0.0
H1427 H 0.76716 0.91583 0.71791 0.0
Tb1428 Tb 0.39599 0.23631 0.59609 0.0
C1429 C 0.5436 0.27015 0.60637 0.0
C1430 C 0.57891 0.23537 0.60471 0.0
C1431 C 0.60822 0.27195 0.59982 0.0
C1432 C 0.54569 0.24671 0.6086 0.0
C1433 C 0.57493 0.28297 0.60139 0.0
C1434 C 0.61045 0.24818 0.60127 0.0
C1435 C 0.53908 0.31709 0.60236 0.0
N1436 N 0.51108 0.28038 0.6097 0.0
C1437 C 0.50917 0.30386 0.60862 0.0
C1438 C 0.57226 0.30661 0.59886 0.0
Tb1439 Tb 0.46801 0.25731 0.62816 0.0
N1440 N 0.51459 0.23497 0.61235 0.0
C1441 C 0.51401 0.21218 0.60646 0.0
C1442 C 0.57897 0.2116 0.60284 0.0
C1443 C 0.54611 0.20006 0.60259 0.0
H1444 H 0.48563 0.3131 0.61463 0.0
H1445 H 0.54535 0.18192 0.5988 0.0
H1446 H 0.63639 0.23989 0.5989 0.0
H1447 H 0.53687 0.33552 0.60161 0.0
H1448 H 0.48934 0.20318 0.60334 0.0
H1449 H 0.31046 0.29429 0.64883 0.0
H1450 H 0.60379 0.20226 0.59957 0.0
H1451 H 0.392 0.17897 0.58708 0.0
H1452 H 0.3627 0.28454 0.62379 0.0
H1453 H 0.35252 0.14756 0.60043 0.0
H1454 H 0.63211 0.28195 0.59747 0.0
H1455 H 0.26834 0.26417 0.66234 0.0
H1456 H 0.24898 0.22371 0.66011 0.0
H1457 H 0.5958 0.31696 0.5949 0.0
H1458 H 0.26131 0.18397 0.6482 0.0
N1459 N 0.35124 0.2488 0.62204 0.0
C1460 C 0.3445 0.27108 0.62854 0.0
C1461 C 0.2915 0.25969 0.65109 0.0
C1462 C 0.29759 0.23709 0.64375 0.0
C1463 C 0.31497 0.27674 0.64333 0.0
C1464 C 0.32865 0.23185 0.62971 0.0
H1465 H 0.30032 0.15551 0.62742 0.0
N1466 N 0.366 0.20421 0.60948 0.0
C1467 C 0.34785 0.1647 0.60723 0.0
C1468 C 0.33616 0.20912 0.6233 0.0
C1469 C 0.3705 0.18251 0.60007 0.0
C1470 C 0.31843 0.16928 0.62242 0.0
C1471 C 0.31166 0.1917 0.63 0.0
O1472 O 0.37699 0.21672 0.56615 0.0
O1473 O 0.45367 0.24675 0.59016 0.0
O1474 O 0.44126 0.28592 0.60902 0.0
O1475 O 0.39306 0.27251 0.58626 0.0
O1476 O 0.42983 0.235 0.56083 0.0
O1477 O 0.34662 0.24551 0.58055 0.0
O1478 O 0.47052 0.28748 0.64849 0.0
O1479 O 0.41058 0.24801 0.6339 0.0
O1480 O 0.42261 0.20737 0.61558 0.0
O1481 O 0.46444 0.22236 0.64335 0.0
O1482 O 0.43748 0.25589 0.66422 0.0
O1483 O 0.51021 0.26031 0.65352 0.0
C1484 C 0.46125 0.24328 0.56644 0.0
C1485 C 0.33008 0.23228 0.54178 0.0
C1486 C 0.33 0.25078 0.50207 0.0
C1487 C 0.34805 0.24487 0.52378 0.0
C1488 C 0.29396 0.24422 0.49862 0.0
C1489 C 0.29433 0.22521 0.53806 0.0
C1490 C 0.27627 0.23122 0.51644 0.0
C1491 C 0.41426 0.28924 0.59354 0.0
C1492 C 0.34664 0.22812 0.56552 0.0
C1493 C 0.28029 0.19718 0.64314 0.0
C1494 C 0.27322 0.21978 0.64986 0.0
C1495 C 0.40515 0.24992 0.65823 0.0
C1496 C 0.5031 0.28723 0.68589 0.0
C1497 C 0.52808 0.27566 0.70056 0.0
C1498 C 0.53507 0.28309 0.72445 0.0
C1499 C 0.51714 0.30247 0.73377 0.0
C1500 C 0.48493 0.30646 0.69529 0.0
C1501 C 0.49196 0.31399 0.71924 0.0
C1502 C 0.44411 0.20523 0.63518 0.0
C1503 C 0.49971 0.28085 0.66 0.0
H1504 H 0.37576 0.25022 0.52672 0.0
H1505 H 0.28002 0.24879 0.48189 0.0
H1506 H 0.28018 0.21556 0.55214 0.0
H1507 H 0.24857 0.22597 0.51358 0.0
H1508 H 0.54226 0.2608 0.69352 0.0
H1509 H 0.52173 0.3083 0.75248 0.0
H1510 H 0.46591 0.3159 0.68403 0.0
H1511 H 0.47793 0.32874 0.72655 0.0
Tb1512 Tb 0.88271 0.23416 0.75329 0.0
C1513 C 0.75184 0.26844 0.75986 0.0
C1514 C 0.70936 0.23696 0.76166 0.0
C1515 C 0.69897 0.27074 0.78651 0.0
C1516 C 0.74177 0.24658 0.75245 0.0
C1517 C 0.73005 0.28074 0.77677 0.0
C1518 C 0.68828 0.24908 0.77876 0.0
C1519 C 0.76825 0.31335 0.77108 0.0
N1520 N 0.78212 0.27795 0.75008 0.0
C1521 C 0.78852 0.30079 0.75414 0.0
C1522 C 0.73935 0.30311 0.78294 0.0
Tb1523 Tb 0.81134 0.2558 0.72082 0.0
N1524 N 0.76264 0.23515 0.73569 0.0
C1525 C 0.75027 0.21481 0.72621 0.0
C1526 C 0.69883 0.2154 0.75347 0.0
C1527 C 0.71923 0.20439 0.73552 0.0
H1528 H 0.80744 0.31027 0.74318 0.0
H1529 H 0.71034 0.18815 0.72816 0.0
H1530 H 0.66365 0.24182 0.78611 0.0
H1531 H 0.77414 0.33122 0.77422 0.0
H1532 H 0.76248 0.20666 0.71051 0.0
H1533 H 0.98431 0.29021 0.71339 0.0
H1534 H 0.67441 0.20743 0.76032 0.0
H1535 H 0.88825 0.17656 0.76004 0.0
H1536 H 0.9349 0.28048 0.74085 0.0
H1537 H 0.91778 0.14461 0.7386 0.0
H1538 H 0.68279 0.27991 0.79978 0.0
H1539 H 1.01216 0.26047 0.68729 0.0
H1540 H 0.01453 0.21999 0.67415 0.0
H1541 H 0.72322 0.31301 0.7958 0.0
H1542 H 0.99494 0.18033 0.67968 0.0
N1543 N 0.92923 0.24612 0.72814 0.0
C1544 C 0.94379 0.26768 0.72813 0.0
C1545 C 0.98919 0.25623 0.69881 0.0
C1546 C 0.97595 0.23394 0.69988 0.0
C1547 C 0.97335 0.27309 0.71329 0.0
C1548 C 0.94597 0.22916 0.71521 0.0
H1549 H 0.95919 0.15206 0.7038 0.0
N1550 N 0.90871 0.20214 0.73553 0.0
C1551 C 0.92232 0.16194 0.7324 0.0
C1552 C 0.93477 0.20669 0.71849 0.0
C1553 C 0.90536 0.18018 0.74432 0.0
C1554 C 0.94558 0.16621 0.71276 0.0
C1555 C 0.95337 0.18878 0.70635 0.0
O1556 O 0.90289 0.21336 0.78208 0.0
O1557 O 0.82532 0.24467 0.75911 0.0
O1558 O 0.84914 0.28378 0.7277 0.0
O1559 O 0.87968 0.27105 0.76229 0.0
O1560 O 0.85001 0.23303 0.78886 0.0
O1561 O 0.93142 0.24318 0.76983 0.0
O1562 O 0.79305 0.28652 0.70645 0.0
O1563 O 0.86893 0.24653 0.71514 0.0
O1564 O 0.84901 0.20536 0.73991 0.0
O1565 O 0.81934 0.22081 0.7064 0.0
O1566 O 0.84195 0.25623 0.68482 0.0
O1567 O 0.7691 0.25464 0.6949 0.0
C1568 C 0.81844 0.24089 0.78293 0.0
C1569 C 0.94632 0.22986 0.80859 0.0
C1570 C 0.94385 0.2509 0.8469 0.0
C1571 C 0.92851 0.24503 0.8242 0.0
C1572 C 0.97754 0.24182 0.85365 0.0
C1573 C 0.97984 0.22066 0.81538 0.0
C1574 C 0.99549 0.22673 0.8379 0.0
C1575 C 0.86876 0.28773 0.74755 0.0
C1576 C 0.93226 0.22543 0.78408 0.0
C1577 C 0.98094 0.19384 0.68948 0.0
C1578 C 0.99228 0.21637 0.68639 0.0
C1579 C 0.87428 0.25001 0.69099 0.0
C1580 C 0.76934 0.28533 0.66667 0.0
C1581 C 0.7458 0.27511 0.64998 0.0
C1582 C 0.74351 0.28327 0.62597 0.0
C1583 C 0.76429 0.30215 0.61859 0.0
C1584 C 0.7906 0.30406 0.65925 0.0
C1585 C 0.7879 0.31243 0.63523 0.0
C1586 C 0.83254 0.20291 0.71831 0.0
C1587 C 0.76999 0.27676 0.69189 0.0
H1588 H 0.90272 0.25222 0.81873 0.0
H1589 H 0.98917 0.2458 0.87144 0.0
H1590 H 0.9941 0.20914 0.8031 0.0
H1591 H 0.02133 0.21963 0.84322 0.0
H1592 H 0.72962 0.26053 0.6555 0.0
H1593 H 0.76318 0.30843 0.59979 0.0
H1594 H 0.80911 0.31229 0.67193 0.0
H1595 H 0.80434 0.32674 0.62946 0.0
Tb1596 Tb 0.3984 0.01316 0.75146 0.0
C1597 C 0.53326 0.97476 0.7569 0.0
C1598 C 0.56914 0.00751 0.76968 0.0
C1599 C 0.58747 0.96945 0.78191 0.0
C1600 C 0.53848 0.99841 0.7576 0.0
C1601 C 0.55841 0.96018 0.76875 0.0
C1602 C 0.59309 0.993 0.7821 0.0
C1603 C 0.5293 0.92799 0.74978 0.0
N1604 N 0.50569 0.966 0.74308 0.0
C1605 C 0.50566 0.94293 0.73792 0.0
C1606 C 0.55519 0.93659 0.7658 0.0
Tb1607 Tb 0.47368 0.99346 0.72145 0.0
N1608 N 0.51414 0.01245 0.7462 0.0
C1609 C 0.51889 0.03566 0.74698 0.0
C1610 C 0.57486 0.03108 0.76919 0.0
C1611 C 0.54944 0.04519 0.75803 0.0
H1612 H 0.48766 0.93571 0.72424 0.0
H1613 H 0.5532 0.06352 0.7581 0.0
H1614 H 0.61617 -0.00011 0.79183 0.0
H1615 H 0.52808 0.90985 0.74602 0.0
H1616 H 0.50002 0.04723 0.73884 0.0
H1617 H 0.30571 0.96201 0.69768 0.0
H1618 H 0.59834 0.03858 0.77794 0.0
H1619 H 0.40023 0.06953 0.76633 0.0
H1620 H 0.36192 0.96894 0.72026 0.0
H1621 H 0.36068 0.10284 0.75881 0.0
H1622 H 0.60655 0.95841 0.79125 0.0
H1623 H 0.26405 0.99395 0.68932 0.0
H1624 H 0.24967 0.03512 0.69365 0.0
H1625 H 0.57398 0.92496 0.7746 0.0
H1626 H 0.26512 0.07346 0.70892 0.0
N1627 N 0.35256 0.00454 0.72522 0.0
C1628 C 0.34393 0.983 0.71725 0.0
C1629 C 0.28875 0.99711 0.69949 0.0
C1630 C 0.29743 0.01907 0.70793 0.0
C1631 C 0.31211 0.97902 0.70419 0.0
C1632 C 0.33004 0.02246 0.72082 0.0
H1633 H 0.30625 0.09867 0.73288 0.0
N1634 N 0.37016 0.04717 0.74285 0.0
C1635 C 0.35458 0.08656 0.7503 0.0
C1636 C 0.33923 0.04429 0.72948 0.0
C1637 C 0.37703 0.06777 0.75432 0.0
C1638 C 0.32387 0.08412 0.73566 0.0
C1639 C 0.31551 0.06281 0.72546 0.0
O1640 O 0.37463 0.02957 0.78177 0.0
O1641 O 0.45537 0.00327 0.75894 0.0
O1642 O 0.44281 0.96292 0.73215 0.0
O1643 O 0.39797 0.97622 0.75843 0.0
O1644 O 0.43094 0.01765 0.78699 0.0
O1645 O 0.35111 -0.00112 0.76601 0.0
O1646 O 0.50144 0.97078 0.69845 0.0
O1647 O 0.41591 0.00184 0.71369 0.0
O1648 O 0.41987 0.04214 0.72975 0.0
O1649 O 0.46778 0.02843 0.70639 0.0
O1650 O 0.44315 0.98933 0.68527 0.0
O1651 O 0.52184 0.00491 0.70518 0.0
C1652 C 0.46151 0.00776 0.78257 0.0
C1653 C 0.33007 0.01077 0.80472 0.0
C1654 C 0.33176 0.99374 0.84505 0.0
C1655 C 0.34837 0.99809 0.82246 0.0
C1656 C 0.29685 0.00191 0.8497 0.0
C1657 C 0.29536 0.01927 0.80942 0.0
C1658 C 0.27862 0.01467 0.83193 0.0
C1659 C 0.4167 0.95945 0.74839 0.0
C1660 C 0.34688 0.01587 0.78137 0.0
C1661 C 0.28349 0.0594 0.7122 0.0
C1662 C 0.27453 0.03763 0.7036 0.0
C1663 C 0.41098 0.99732 0.6897 0.0
C1664 C 0.55124 0.98286 0.67517 0.0
C1665 C 0.53488 0.98319 0.65232 0.0
C1666 C 0.55561 0.9804 0.63123 0.0
C1667 C 0.59326 0.9781 0.63282 0.0
C1668 C 0.58877 0.98022 0.67731 0.0
C1669 C 0.60985 0.97795 0.65601 0.0
C1670 C 0.44476 0.04489 0.71245 0.0
C1671 C 0.52903 0.98455 0.69684 0.0
H1672 H 0.37566 0.99216 0.81896 0.0
H1673 H 0.28465 -0.00074 0.86747 0.0
H1674 H 0.28128 0.02939 0.79569 0.0
H1675 H 0.25187 0.02125 0.83572 0.0
H1676 H 0.50588 0.9857 0.65098 0.0
H1677 H 0.60951 0.97634 0.61629 0.0
H1678 H 0.60159 0.97986 0.69531 0.0
H1679 H 0.63883 0.97601 0.65746 0.0
Tb1680 Tb 0.22212 0.00368 0.47087 0.0
C1681 C 0.09305 0.95647 0.46954 0.0
C1682 C 0.05386 0.98338 0.44831 0.0
C1683 C 0.04453 0.94274 0.4429 0.0
C1684 C 0.0838 0.97893 0.46383 0.0
C1685 C 0.0727 0.93823 0.45949 0.0
C1686 C 0.0349 0.96523 0.4376 0.0
C1687 C 0.10442 0.91237 0.48638 0.0
N1688 N 0.11954 0.95253 0.48648 0.0
C1689 C 0.12298 0.93091 0.49642 0.0
C1690 C 0.0797 0.91597 0.46746 0.0
Tb1691 Tb 0.14705 0.98539 0.50156 0.0
N1692 N 0.1026 0.99638 0.47441 0.0
C1693 C 0.09146 0.0185 0.47097 0.0
C1694 C 0.04288 0.00596 0.44464 0.0
C1695 C 0.06131 0.02354 0.45648 0.0
H1696 H 0.1413 0.92781 0.51165 0.0
H1697 H 0.05276 0.04107 0.45403 0.0
H1698 H 1.01198 0.96843 0.42578 0.0
H1699 H 0.10881 0.89534 0.49356 0.0
H1700 H 0.10523 0.03253 0.47939 0.0
H1701 H 0.2933 0.93776 0.5222 0.0
H1702 H 0.01982 0.00997 0.4331 0.0
H1703 H 0.23886 0.0602 0.46293 0.0
H1704 H 0.2435 0.95256 0.49778 0.0
H1705 H 0.28519 0.08734 0.47659 0.0
H1706 H 0.02898 0.92892 0.43491 0.0
H1707 H 0.34259 0.96333 0.5353 0.0
H1708 H 0.36998 0.00176 0.5349 0.0
H1709 H 0.06475 0.90161 0.46006 0.0
H1710 H 0.36683 0.04247 0.52382 0.0
N1711 N 0.26174 0.98716 0.49795 0.0
C1712 C 0.26365 0.96436 0.50368 0.0
C1713 C 0.3201 0.97018 0.52485 0.0
C1714 C 0.31877 0.99328 0.51845 0.0
C1715 C 0.29233 0.95572 0.51755 0.0
C1716 C 0.28859 0.00164 0.50525 0.0
H1717 H 0.33477 0.07444 0.50359 0.0
N1718 N 0.2581 0.03268 0.4854 0.0
C1719 C 0.28558 0.06997 0.4834 0.0
C1720 C 0.28651 0.02489 0.49911 0.0
C1721 C 0.25883 0.05459 0.47622 0.0
C1722 C 0.31355 0.06259 0.49855 0.0
C1723 C 0.31497 0.03973 0.50585 0.0
O1724 O 0.25404 0.02025 0.44477 0.0
O1725 O 0.16412 0.99636 0.46363 0.0
O1726 O 0.17811 0.95546 0.48842 0.0
O1727 O 0.21072 0.96955 0.45584 0.0
O1728 O 0.19081 0.01008 0.43534 0.0
O1729 O 0.26685 0.98572 0.45672 0.0
O1730 O 0.12231 0.96624 0.52952 0.0
O1731 O 0.20404 0.99564 0.50923 0.0
O1732 O 0.19527 0.03527 0.48307 0.0
O1733 O 0.14947 0.02246 0.50908 0.0
O1734 O 0.17798 0.98348 0.53789 0.0
O1735 O 0.09994 0.99847 0.51771 0.0
C1736 C 0.15887 0.00184 0.43998 0.0
C1737 C 0.30097 0.00146 0.42428 0.0
C1738 C 0.30446 0.00161 0.38029 0.0
C1739 C 0.28449 0.99884 0.4017 0.0
C1740 C 0.34201 0.00472 0.38139 0.0
C1741 C 0.33837 0.0049 0.42598 0.0
C1742 C 0.35905 0.00611 0.40439 0.0
C1743 C 0.1943 0.95248 0.46687 0.0
C1744 C 0.27835 0.00407 0.44558 0.0
C1745 C 0.34488 0.03122 0.51873 0.0
C1746 C 0.34677 0.00811 0.52494 0.0
C1747 C 0.20924 0.99253 0.53337 0.0
C1748 C 0.08119 0.98414 0.55597 0.0
C1749 C 0.10023 0.997 0.57338 0.0
C1750 C 0.08659 -0.00096 0.5973 0.0
C1751 C 0.05462 0.98779 0.60381 0.0
C1752 C 0.04832 0.97379 0.56222 0.0
C1753 C 0.03506 0.97561 0.58622 0.0
C1754 C 0.16896 0.03911 0.49917 0.0
C1755 C 0.09546 0.98046 0.53142 0.0
H1756 H 0.25551 0.99607 0.40083 0.0
H1757 H 0.35767 0.0067 0.36466 0.0
H1758 H 0.35122 0.0073 0.44379 0.0
H1759 H 0.38788 0.00893 0.40546 0.0
H1760 H 0.12567 0.00496 0.5685 0.0
H1761 H 0.04581 0.98777 0.62273 0.0
H1762 H 0.03339 0.96393 0.54869 0.0
H1763 H 1.01021 0.96712 0.59133 0.0
Tb1764 Tb 0.55279 0.74257 0.47082 0.0
C1765 C 0.68645 0.79261 0.48774 0.0
C1766 C 0.73568 0.76656 0.47852 0.0
C1767 C 0.74746 0.8072 0.48215 0.0
C1768 C 0.69846 0.77059 0.48185 0.0
C1769 C 0.71096 0.81111 0.48747 0.0
C1770 C 0.75993 0.78495 0.47861 0.0
C1771 C 0.66429 0.83523 0.50439 0.0
N1772 N 0.65229 0.7954 0.49663 0.0
C1773 C 0.64203 0.81612 0.50652 0.0
C1774 C 0.69891 0.83274 0.49473 0.0
Tb1775 Tb 0.62317 0.7613 0.50357 0.0
N1776 N 0.67487 0.75276 0.483 0.0
C1777 C 0.68669 0.73082 0.47953 0.0
C1778 C 0.74783 0.74397 0.47746 0.0
C1779 C 0.72335 0.72609 0.47739 0.0
H1780 H 0.61621 0.81775 0.51571 0.0
H1781 H 0.73272 0.7086 0.47624 0.0
H1782 H 0.78858 0.7822 0.4768 0.0
H1783 H 0.65533 0.85166 0.51123 0.0
H1784 H 0.66855 0.71665 0.48001 0.0
H1785 H 0.47791 0.81473 0.5098 0.0
H1786 H 0.77599 0.73994 0.47784 0.0
H1787 H 0.5452 0.68506 0.48321 0.0
H1788 H 0.52955 0.79732 0.48984 0.0
H1789 H 0.50164 0.66048 0.50281 0.0
H1790 H 0.76675 0.8211 0.48247 0.0
H1791 H 0.42826 0.79087 0.52567 0.0
H1792 H 0.40231 0.75223 0.53255 0.0
H1793 H 0.71685 0.84734 0.49435 0.0
H1794 H 0.40874 0.71064 0.5305 0.0
N1795 N 0.51053 0.76295 0.49316 0.0
C1796 C 0.50852 0.7862 0.49588 0.0
C1797 C 0.45114 0.78285 0.51668 0.0
C1798 C 0.45343 0.75915 0.51456 0.0
C1799 C 0.47907 0.79637 0.50769 0.0
C1800 C 0.48417 0.74945 0.50312 0.0
H1801 H 0.44621 0.67663 0.5209 0.0
N1802 N 0.51966 0.71663 0.49361 0.0
C1803 C 0.49791 0.67881 0.50345 0.0
C1804 C 0.48862 0.72575 0.503 0.0
C1805 C 0.52381 0.69326 0.49322 0.0
C1806 C 0.46647 0.68796 0.51329 0.0
C1807 C 0.4613 0.71157 0.51301 0.0
O1808 O 0.52906 0.71645 0.44981 0.0
O1809 O 0.61147 0.74998 0.46522 0.0
O1810 O 0.60624 0.78947 0.47887 0.0
O1811 O 0.55742 0.77733 0.4558 0.0
O1812 O 0.58492 0.74205 0.43488 0.0
O1813 O 0.50515 0.75 0.45172 0.0
O1814 O 0.64287 0.7774 0.53593 0.0
O1815 O 0.5686 0.74669 0.51108 0.0
O1816 O 0.58731 0.71305 0.47547 0.0
O1817 O 0.61816 0.72421 0.51035 0.0
O1818 O 0.58305 0.77402 0.53146 0.0
O1819 O 0.66438 0.74496 0.52316 0.0
C1820 C 0.61799 0.74697 0.44117 0.0
C1821 C 0.4857 0.726 0.42042 0.0
C1822 C 0.49139 0.73088 0.37688 0.0
C1823 C 0.50539 0.73333 0.40038 0.0
C1824 C 0.45653 0.72208 0.37321 0.0
C1825 C 0.45134 0.7164 0.41729 0.0
C1826 C 0.43648 0.71476 0.39359 0.0
C1827 C 0.58156 0.79299 0.4617 0.0
C1828 C 0.50094 0.7289 0.44461 0.0
C1829 C 0.4299 0.72132 0.52291 0.0
C1830 C 0.4262 0.745 0.52402 0.0
C1831 C 0.55775 0.75883 0.53029 0.0
C1832 C 0.68889 0.75945 0.55993 0.0
C1833 C 0.67355 0.74751 0.57941 0.0
C1834 C 0.69473 0.74175 0.59977 0.0
C1835 C 0.73141 0.7476 0.6002 0.0
C1836 C 0.72525 0.76606 0.56067 0.0
C1837 C 0.74656 0.76005 0.58085 0.0
C1838 C 0.6067 0.70813 0.4951 0.0
C1839 C 0.66894 0.76253 0.53739 0.0
H1840 H 0.53185 0.74089 0.40304 0.0
H1841 H 0.44539 0.72045 0.35478 0.0
H1842 H 0.43631 0.71022 0.43305 0.0
H1843 H 0.4098 0.70761 0.39101 0.0
H1844 H 0.64538 0.74247 0.57858 0.0
H1845 H 0.74788 0.7428 0.61569 0.0
H1846 H 0.73732 0.77518 0.54531 0.0
H1847 H 0.77478 0.76478 0.58136 0.0
Tb1848 Tb 0.22539 0.74189 0.38 0.0
C1849 C 0.09136 0.79157 0.37637 0.0
C1850 C 0.05162 0.76635 0.39955 0.0
C1851 C 0.03969 0.80706 0.39878 0.0
C1852 C 0.08248 0.76966 0.38454 0.0
C1853 C 0.06925 0.81032 0.38294 0.0
C1854 C 0.03097 0.78516 0.40709 0.0
C1855 C 0.10431 0.83405 0.35549 0.0
N1856 N 0.11999 0.79434 0.36074 0.0
C1857 C 0.12522 0.81508 0.34917 0.0
C1858 C 0.0765 0.83173 0.37265 0.0
Tb1859 Tb 0.14823 0.76055 0.34995 0.0
N1860 N 0.10221 0.75149 0.3764 0.0
C1861 C 0.09095 0.72969 0.38132 0.0
C1862 C 0.04075 0.74407 0.4051 0.0
C1863 C 0.0596 0.72571 0.39498 0.0
H1864 H 0.14648 0.81697 0.3356 0.0
H1865 H 0.05067 0.7084 0.39829 0.0
H1866 H 1.00727 0.78282 0.41853 0.0
H1867 H 0.10943 0.85043 0.34693 0.0
H1868 H 0.10585 0.71517 0.37488 0.0
H1869 H 0.29246 0.81158 0.33196 0.0
H1870 H 0.01684 0.74088 0.4161 0.0
H1871 H 0.24292 0.68478 0.38115 0.0
H1872 H 0.2431 0.79432 0.3551 0.0
H1873 H 0.28962 0.65935 0.3651 0.0
H1874 H 0.02262 0.82128 0.40408 0.0
H1875 H 0.34329 0.7879 0.31733 0.0
H1876 H 0.37251 0.74968 0.31433 0.0
H1877 H 0.0601 0.84645 0.37728 0.0
H1878 H 0.37105 0.70854 0.32258 0.0
N1879 N 0.26497 0.76056 0.35438 0.0
C1880 C 0.26494 0.78351 0.34945 0.0
C1881 C 0.32153 0.78005 0.32767 0.0
C1882 C 0.32157 0.75664 0.33254 0.0
C1883 C 0.29293 0.79347 0.33593 0.0
C1884 C 0.29227 0.74709 0.34572 0.0
H1885 H 0.33965 0.67478 0.34016 0.0
N1886 N 0.26226 0.71458 0.3623 0.0
C1887 C 0.29004 0.67728 0.36026 0.0
C1888 C 0.29086 0.72356 0.34976 0.0
C1889 C 0.26293 0.69184 0.36877 0.0
C1890 C 0.31829 0.68608 0.34635 0.0
C1891 C 0.31949 0.70947 0.34144 0.0
O1892 O 0.25034 0.72085 0.4059 0.0
O1893 O 0.167 0.74859 0.3868 0.0
O1894 O 0.16917 0.7894 0.372 0.0
O1895 O 0.21997 0.77732 0.39338 0.0
O1896 O 0.19452 0.73827 0.41606 0.0
O1897 O 0.2726 0.75434 0.3972 0.0
O1898 O 0.12633 0.77761 0.31937 0.0
O1899 O 0.20544 0.75051 0.34235 0.0
O1900 O 0.19789 0.71081 0.36687 0.0
O1901 O 0.14891 0.72349 0.34357 0.0
O1902 O 0.18121 0.7659 0.31497 0.0
O1903 O 0.10136 0.74683 0.33391 0.0
C1904 C 0.16195 0.74465 0.41072 0.0
C1905 C 0.29915 0.7335 0.43023 0.0
C1906 C 0.302 0.7295 0.47446 0.0
C1907 C 0.28193 0.73273 0.45293 0.0
C1908 C 0.33977 0.72756 0.47318 0.0
C1909 C 0.33681 0.73149 0.42875 0.0
C1910 C 0.35707 0.72868 0.45031 0.0
C1911 C 0.19527 0.79292 0.3882 0.0
C1912 C 0.27793 0.73461 0.40784 0.0
C1913 C 0.34892 0.71913 0.32896 0.0
C1914 C 0.34983 0.74258 0.32437 0.0
C1915 C 0.21153 0.75548 0.3188 0.0
C1916 C 0.07991 0.76089 0.29558 0.0
C1917 C 0.09541 0.74829 0.27639 0.0
C1918 C 0.07674 0.74606 0.25405 0.0
C1919 C 0.04285 0.75632 0.25115 0.0
C1920 C 0.04622 0.77144 0.29242 0.0
C1921 C 0.02755 0.76895 0.27026 0.0
C1922 C 0.16987 0.70702 0.35218 0.0
C1923 C 0.09831 0.76417 0.31894 0.0
H1924 H 0.25285 0.73484 0.45379 0.0
H1925 H 0.35575 0.72534 0.48978 0.0
H1926 H 0.35037 0.73188 0.411 0.0
H1927 H 0.3861 0.72742 0.44937 0.0
H1928 H 0.12206 0.74087 0.27855 0.0
H1929 H 0.02912 0.75538 0.23374 0.0
H1930 H 0.03427 0.78144 0.30718 0.0
H1931 H 1.0015 0.77703 0.26779 0.0
Tb1932 Tb 0.55612 0.00456 0.37965 0.0
C1933 C 0.68505 0.95372 0.36569 0.0
C1934 C 0.72628 0.97489 0.39183 0.0
C1935 C 0.73501 0.93414 0.38566 0.0
C1936 C 0.69559 0.97409 0.37648 0.0
C1937 C 0.70517 0.93363 0.36963 0.0
C1938 C 0.74527 0.9547 0.39692 0.0
C1939 C 0.66569 0.9143 0.34081 0.0
N1940 N 0.65537 0.95373 0.3509 0.0
C1941 C 0.64645 0.93464 0.33753 0.0
C1942 C 0.69488 0.91371 0.35716 0.0
Tb1943 Tb 0.62603 0.98808 0.34747 0.0
N1944 N 0.67674 0.99331 0.37102 0.0
C1945 C 0.68959 0.01423 0.37816 0.0
C1946 C 0.73781 0.99607 0.40083 0.0
C1947 C 0.72042 0.0159 0.39297 0.0
H1948 H 0.62364 0.93499 0.32506 0.0
H1949 H 0.73009 0.03246 0.39889 0.0
H1950 H 0.7685 0.955 0.40901 0.0
H1951 H 0.65794 0.89908 0.33078 0.0
H1952 H 0.67592 0.02968 0.37279 0.0
H1953 H 0.48574 0.92718 0.34617 0.0
H1954 H 0.76127 0.99739 0.41271 0.0
H1955 H 0.54635 0.05737 0.35413 0.0
H1956 H 0.53919 0.94842 0.35712 0.0
H1957 H 0.49768 0.07947 0.33607 0.0
H1958 H 0.75061 0.91884 0.3892 0.0
H1959 H 0.42862 0.94736 0.33773 0.0
H1960 H 0.39732 0.98445 0.33026 0.0
H1961 H 0.70965 0.89791 0.35971 0.0
H1962 H 0.40113 0.02613 0.3264 0.0
N1963 N 0.51269 0.98087 0.36094 0.0
C1964 C 0.51445 0.95777 0.3564 0.0
C1965 C 0.45196 0.9569 0.34398 0.0
C1966 C 0.4515 0.98068 0.3449 0.0
C1967 C 0.48405 0.94547 0.34887 0.0
C1968 C 0.48278 0.9923 0.35311 0.0
H1969 H 0.43871 0.06148 0.32768 0.0
N1970 N 0.51746 0.02575 0.35509 0.0
C1971 C 0.49379 0.06149 0.33983 0.0
C1972 C 0.48526 0.01563 0.35018 0.0
C1973 C 0.522 0.04848 0.34964 0.0
C1974 C 0.46047 0.05136 0.3354 0.0
C1975 C 0.45603 0.0281 0.34008 0.0
O1976 O 0.54183 0.03552 0.39574 0.0
O1977 O 0.61576 0.00262 0.38512 0.0
O1978 O 0.61169 0.95846 0.37129 0.0
O1979 O 0.56036 0.96909 0.3929 0.0
O1980 O 0.58568 0.99425 0.4146 0.0
O1981 O 0.51323 0.00486 0.40499 0.0
O1982 O 0.63969 0.97806 0.31141 0.0
O1983 O 0.57086 0.00189 0.33994 0.0
O1984 O 0.59045 0.03463 0.37647 0.0
O1985 O 0.622 0.02509 0.34173 0.0
O1986 O 0.58402 0.97328 0.32185 0.0
O1987 O 0.66741 0.00609 0.32945 0.0
C1988 C 0.61954 0.99613 0.40853 0.0
C1989 C 0.52055 0.03268 0.43576 0.0
C1990 C 0.50495 0.02416 0.47767 0.0
C1991 C 0.5 0.02051 0.45269 0.0
C1992 C 0.52959 0.04065 0.4861 0.0
C1993 C 0.54507 0.04947 0.44398 0.0
C1994 C 0.54945 0.05341 0.46919 0.0
C1995 C 0.58599 0.95403 0.3876 0.0
C1996 C 0.51771 0.02647 0.40987 0.0
C1997 C 0.42387 0.01681 0.33395 0.0
C1998 C 0.42166 0.9931 0.33625 0.0
C1999 C 0.55906 0.98879 0.32196 0.0
C2000 C 0.69441 0.99049 0.2935 0.0
C2001 C 0.69096 -0.00034 0.27003 0.0
C2002 C 0.71741 0.99625 0.25209 0.0
C2003 C 0.74827 0.98346 0.25826 0.0
C2004 C 0.7251 0.97789 0.29992 0.0
C2005 C 0.75223 0.97453 0.2822 0.0
C2006 C 0.6103 0.04051 0.35742 0.0
C2007 C 0.66362 0.99412 0.30949 0.0
H2008 H 0.48142 0.00734 0.44654 0.0
H2009 H 0.53417 0.04322 0.50563 0.0
H2010 H 0.56135 0.05917 0.43109 0.0
H2011 H 0.5688 0.06592 0.4756 0.0
H2012 H 0.66615 0.00856 0.26532 0.0
H2013 H 0.76885 0.98013 0.24466 0.0
H2014 H 0.72785 0.9706 0.31823 0.0
H2015 H 0.77603 0.9647 0.28687 0.0
Tb2016 Tb 0.87882 0.51252 0.09893 0.0
C2017 C 0.74622 0.47281 0.0971 0.0
C2018 C 0.70758 0.50374 0.08287 0.0
C2019 C 0.69248 0.46463 0.07248 0.0
C2020 C 0.73919 0.49613 0.09503 0.0
C2021 C 0.72261 0.45691 0.0858 0.0
C2022 C 0.68465 0.48792 0.07138 0.0
C2023 C 0.75571 0.42655 0.10535 0.0
N2024 N 0.77429 0.46569 0.11154 0.0
C2025 C 0.77712 0.44282 0.1172 0.0
C2026 C 0.72868 0.4336 0.08926 0.0
Tb2027 Tb 0.80412 0.49526 0.13141 0.0
N2028 N 0.76271 0.51134 0.10526 0.0
C2029 C 0.75585 0.53432 0.10388 0.0
C2030 C 0.69976 0.52708 0.08262 0.0
C2031 C 0.72408 0.54243 0.09308 0.0
H2032 H 0.79504 0.4367 0.13149 0.0
H2033 H 0.71851 0.56057 0.09267 0.0
H2034 H 0.66063 0.49355 0.06169 0.0
H2035 H 0.7592 0.40859 0.10941 0.0
H2036 H 0.77372 0.54659 0.112 0.0
H2037 H 0.97794 0.46115 0.14736 0.0
H2038 H 0.67539 0.53347 0.07397 0.0
H2039 H 0.88486 0.56817 0.08116 0.0
H2040 H 0.92654 0.46774 0.11998 0.0
H2041 H 0.92355 0.60109 0.09119 0.0
H2042 H 0.67423 0.45263 0.06374 0.0
H2043 H 1.00804 0.49382 0.16758 0.0
H2044 H 1.01381 0.53586 0.17225 0.0
H2045 H 0.71135 0.42095 0.08073 0.0
H2046 H 1.00039 0.57417 0.15591 0.0
N2047 N 0.92536 0.50372 0.12512 0.0
C2048 C 0.93813 0.48209 0.12922 0.0
C2049 C 0.98507 0.4968 0.15562 0.0
C2050 C 0.97356 0.51896 0.1501 0.0
C2051 C 0.96815 0.47833 0.14429 0.0
C2052 C 0.94388 0.52202 0.13402 0.0
H2053 H 0.96955 0.59794 0.12405 0.0
N2054 N 0.90828 0.54624 0.10847 0.0
C2055 C 0.92688 0.58519 0.1011 0.0
C2056 C 0.93551 0.54377 0.12522 0.0
C2057 C 0.90508 0.56645 0.09548 0.0
C2058 C 0.95277 0.58334 0.11967 0.0
C2059 C 0.95747 0.56252 0.1319 0.0
O2060 O 0.9005 0.52852 0.06771 0.0
O2061 O 0.82075 0.50414 0.09288 0.0
O2062 O 0.83756 0.46482 0.12748 0.0
O2063 O 0.87389 0.47506 0.09436 0.0
O2064 O 0.8465 0.51498 0.0633 0.0
O2065 O 0.92444 0.49731 0.08233 0.0
O2066 O 0.77016 0.47603 0.15471 0.0
O2067 O 0.8625 0.50255 0.1372 0.0
O2068 O 0.8558 0.54338 0.11699 0.0
O2069 O 0.81241 0.53038 0.14435 0.0
O2070 O 0.83604 0.49138 0.16699 0.0
O2071 O 0.76199 0.5123 0.14904 0.0
C2072 C 0.81494 0.5071 0.06881 0.0
C2073 C 0.95028 0.51335 1.04581 0.0
C2074 C 0.95749 0.50235 1.00327 0.0
C2075 C 0.93949 0.50006 1.02577 0.0
C2076 C 0.98624 0.51775 1.00102 0.0
C2077 C 0.98012 0.52796 1.04389 0.0
C2078 C 0.9983 0.53002 1.02148 0.0
C2079 C 0.85942 0.45953 0.10914 0.0
C2080 C 0.92818 0.51483 0.06773 0.0
C2081 C 0.98448 0.55973 0.1498 0.0
C2082 C 0.99221 0.538 0.15906 0.0
C2083 C 0.86831 0.49831 0.16109 0.0
C2084 C 0.72986 0.49609 0.18155 0.0
C2085 C 0.74186 0.48515 0.20273 0.0
C2086 C 0.72354 0.48845 0.22489 0.0
C2087 C 0.69235 0.50205 0.22582 0.0
C2088 C 0.69901 0.51003 0.18236 0.0
C2089 C 0.67994 0.5127 0.20442 0.0
C2090 C 0.83331 0.54674 0.1357 0.0
C2091 C 0.74904 0.49361 0.15837 0.0
H2092 H 0.91584 0.48923 1.0272 0.0
H2093 H 0.99823 0.52092 0.98325 0.0
H2094 H 0.98846 0.53838 0.05945 0.0
H2095 H 0.02064 0.5418 1.0197 0.0
H2096 H 0.76654 0.47514 0.20233 0.0
H2097 H 0.67847 0.50497 0.24318 0.0
H2098 H 0.68961 0.51874 0.1659 0.0
H2099 H 0.65611 0.52339 0.20502 0.0
Tb2100 Tb 0.39713 0.73712 0.09673 0.0
C2101 C 0.5289 0.77344 0.0915 0.0
C2102 C 0.56877 0.74128 0.08396 0.0
C2103 C 0.58244 0.77798 0.06571 0.0
C2104 C 0.53744 0.75053 0.09526 0.0
C2105 C 0.55176 0.78732 0.07681 0.0
C2106 C 0.59101 0.75507 0.06929 0.0
C2107 C 0.51445 0.8196 0.08638 0.0
N2108 N 0.49879 0.78227 0.10231 0.0
C2109 C 0.49292 0.80549 0.10093 0.0
C2110 C 0.54366 0.81041 0.07389 0.0
Tb2111 Tb 0.46824 0.75735 0.12829 0.0
N2112 N 0.51486 0.73721 0.10915 0.0
C2113 C 0.52351 0.71455 0.11245 0.0
C2114 C 0.57673 0.71823 0.08719 0.0
C2115 C 0.55396 0.70486 0.10142 0.0
H2116 H 0.4734 0.81397 0.11244 0.0
H2117 H 0.56009 0.68697 0.10422 0.0
H2118 H 0.61484 0.7481 0.0605 0.0
H2119 H 0.50914 0.83777 0.08553 0.0
H2120 H 0.50844 0.70322 0.12385 0.0
H2121 H 0.30186 0.79084 0.14627 0.0
H2122 H 0.60033 0.71058 0.0787 0.0
H2123 H 0.39303 0.68176 0.08046 0.0
H2124 H 0.35485 0.78289 0.12149 0.0
H2125 H 0.35225 0.64919 0.0882 0.0
H2126 H 0.59968 0.78851 0.05433 0.0
H2127 H 0.26201 0.75921 0.15871 0.0
H2128 H 0.24704 0.71806 0.15612 0.0
H2129 H 0.56063 0.82147 0.06281 0.0
H2130 H 0.26139 0.67932 0.14164 0.0
N2131 N 0.34941 0.74695 0.12166 0.0
C2132 C 0.33971 0.76882 0.12769 0.0
C2133 C 0.28611 0.7556 0.14805 0.0
C2134 C 0.2944 0.73341 0.14034 0.0
C2135 C 0.30869 0.77344 0.14137 0.0
C2136 C 0.32685 0.72941 0.12727 0.0
H2137 H 0.30035 0.65363 0.11644 0.0
N2138 N 0.36571 0.70421 0.10534 0.0
C2139 C 0.34744 0.6654 0.09725 0.0
C2140 C 0.33543 0.70745 0.11923 0.0
C2141 C 0.37052 0.68387 0.093 0.0
C2142 C 0.31827 0.66795 0.11326 0.0
C2143 C 0.31131 0.68927 0.12386 0.0
O2144 O 0.37742 0.72176 0.06433 0.0
O2145 O 0.4518 0.75194 0.08878 0.0
O2146 O 0.43139 0.78596 0.1233 0.0
O2147 O 0.40177 0.77411 0.08821 0.0
O2148 O 0.43777 0.72515 0.06806 0.0
O2149 O 0.35082 0.75105 0.08025 0.0
O2150 O 0.49006 0.78603 0.14487 0.0
O2151 O 0.41085 0.74748 0.13526 0.0
O2152 O 0.41858 0.70737 0.11754 0.0
O2153 O 0.46328 0.72231 0.1427 0.0
O2154 O 0.43745 0.75922 0.16423 0.0
O2155 O 0.511 0.75257 0.15333 0.0
C2156 C 0.46401 0.73975 0.07002 0.0
C2157 C 0.33303 0.73999 1.04057 0.0
C2158 C 0.33569 0.75912 1.0014 0.0
C2159 C 0.35105 0.75433 1.0243 0.0
C2160 C 0.30225 0.74957 0.99493 0.0
C2161 C 0.29959 0.73041 1.03423 0.0
C2162 C 0.28416 0.73525 1.01134 0.0
C2163 C 0.41299 0.79055 0.10314 0.0
C2164 C 0.34876 0.7346 0.0642 0.0
C2165 C 0.27993 0.69314 0.13772 0.0
C2166 C 0.27152 0.71516 0.14578 0.0
C2167 C 0.40555 0.7514 0.15936 0.0
C2168 C 0.50812 0.77983 0.18494 0.0
C2169 C 0.53061 0.76849 0.20132 0.0
C2170 C 0.52711 0.7726 0.22632 0.0
C2171 C 0.50145 0.78826 0.23524 0.0
C2172 C 0.48203 0.79546 0.19369 0.0
C2173 C 0.47876 0.79958 0.21888 0.0
C2174 C 0.44258 0.70508 0.13555 0.0
C2175 C 0.51112 0.77427 0.15897 0.0
H2176 H 0.3772 0.76133 1.02924 0.0
H2177 H 0.29107 0.75258 0.97684 0.0
H2178 H 0.28563 0.71911 1.04689 0.0
H2179 H 0.25861 0.72767 1.00619 0.0
H2180 H 0.55048 0.75628 0.19471 0.0
H2181 H 0.49887 0.79176 0.25471 0.0
H2182 H 0.4639 0.80428 0.18123 0.0
H2183 H 0.45866 0.81144 0.2257 0.0
Tb2184 Tb 0.8805 0.73687 0.25311 0.0
C2185 C 0.75114 0.7704 0.26121 0.0
C2186 C 0.71077 0.73796 0.26527 0.0
C2187 C 0.69983 0.77222 0.28924 0.0
C2188 C 0.74163 0.74818 0.25452 0.0
C2189 C 0.72971 0.78264 0.27837 0.0
C2190 C 0.69027 0.75001 0.28269 0.0
C2191 C 0.76801 0.81523 0.27272 0.0
N2192 N 0.78116 0.78002 0.25115 0.0
C2193 C 0.78811 0.80274 0.25564 0.0
C2194 C 0.73894 0.80505 0.28443 0.0
Tb2195 Tb 0.80915 0.75799 0.22131 0.0
N2196 N 0.76206 0.73673 0.23752 0.0
C2197 C 0.75026 0.71586 0.22909 0.0
C2198 C 0.70116 0.71587 0.25827 0.0
C2199 C 0.72075 0.70491 0.23989 0.0
H2200 H 0.80708 0.81228 0.24484 0.0
H2201 H 0.71241 0.68824 0.23339 0.0
H2202 H 0.6669 0.74225 0.29115 0.0
H2203 H 0.77424 0.83302 0.27613 0.0
H2204 H 0.76163 0.70751 0.21324 0.0
H2205 H 0.97696 0.7837 0.19729 0.0
H2206 H 0.67795 0.70745 0.26634 0.0
H2207 H 0.87809 0.68158 0.271 0.0
H2208 H 0.9243 0.77977 0.22408 0.0
H2209 H 0.91232 0.64643 0.26172 0.0
H2210 H 0.68417 0.7814 0.30283 0.0
H2211 H 1.01204 0.74961 0.18534 0.0
H2212 H 0.02295 0.70812 0.19031 0.0
H2213 H 0.72312 0.81484 0.29756 0.0
H2214 H 1.00473 0.67076 0.20639 0.0
N2215 N 0.92635 0.74335 0.22568 0.0
C2216 C 0.93818 0.76457 0.21851 0.0
C2217 C 0.98817 0.74767 0.19672 0.0
C2218 C 0.9779 0.72628 0.20581 0.0
C2219 C 0.96851 0.76695 0.20343 0.0
C2220 C 0.94606 0.72443 0.22001 0.0
H2221 H 0.9632 0.64761 0.2323 0.0
N2222 N 0.90629 0.70196 0.24458 0.0
C2223 C 0.91891 0.6622 0.25233 0.0
C2224 C 0.93557 0.70322 0.2294 0.0
C2225 C 0.8994 0.68207 0.25732 0.0
C2226 C 0.94754 0.66293 0.23569 0.0
C2227 C 0.95694 0.68368 0.22468 0.0
O2228 O 0.90688 0.72146 0.2832 0.0
O2229 O 0.82392 0.74767 0.25975 0.0
O2230 O 0.84722 0.78588 0.2265 0.0
O2231 O 0.87708 0.77368 0.26129 0.0
O2232 O 0.84698 0.732 0.28793 0.0
O2233 O 0.92637 0.75323 0.26732 0.0
O2234 O 0.78919 0.78861 0.2077 0.0
O2235 O 0.86635 0.74792 0.2145 0.0
O2236 O 0.85151 0.70742 0.23697 0.0
O2237 O 0.81631 0.72332 0.20613 0.0
O2238 O 0.83917 0.75915 0.18503 0.0
O2239 O 0.76555 0.75649 0.19658 0.0
C2240 C 0.81655 0.74202 0.28306 0.0
C2241 C 0.95543 0.73996 0.30333 0.0
C2242 C 0.96462 0.75548 0.34401 0.0
C2243 C 0.94307 0.75317 0.32301 0.0
C2244 C 0.99893 0.7454 0.34464 0.0
C2245 C 0.98925 0.72928 0.30433 0.0
C2246 C 1.0111 0.73213 0.32499 0.0
C2247 C 0.86713 0.79008 0.2461 0.0
C2248 C 0.93322 0.73611 0.28189 0.0
C2249 C 0.98812 0.68558 0.2102 0.0
C2250 C 0.9987 0.70684 0.20115 0.0
C2251 C 0.87121 0.7516 0.19026 0.0
C2252 C 0.76475 0.78686 0.16823 0.0
C2253 C 0.74041 0.77666 0.15212 0.0
C2254 C 0.73888 0.78369 0.1277 0.0
C2255 C 0.76122 0.80152 0.11935 0.0
C2256 C 0.78736 0.80463 0.15995 0.0
C2257 C 0.78538 0.81196 0.13551 0.0
C2258 C 0.83216 0.70546 0.21652 0.0
C2259 C 0.76589 0.77861 0.19351 0.0
H2260 H 0.91599 0.76024 0.32263 0.0
H2261 H 0.01547 0.74691 0.36076 0.0
H2262 H 0.99874 0.71882 0.2891 0.0
H2263 H 0.03718 0.72384 0.32592 0.0
H2264 H 0.72337 0.76271 0.15832 0.0
H2265 H 0.76093 0.80678 0.10018 0.0
H2266 H 0.8066 0.81276 0.17219 0.0
H2267 H 0.80298 0.82541 0.129 0.0
Tb2268 Tb 0.39877 0.51232 0.25123 0.0
C2269 C 0.53524 0.46854 0.24814 0.0
C2270 C 0.57071 0.49731 0.26974 0.0
C2271 C 0.58904 0.45755 0.27128 0.0
C2272 C 0.54056 0.49127 0.25509 0.0
C2273 C 0.56011 0.45163 0.25582 0.0
C2274 C 0.59451 0.48032 0.27801 0.0
C2275 C 0.53038 0.42477 0.22889 0.0
N2276 N 0.50769 0.4633 0.23242 0.0
C2277 C 0.5068 0.44205 0.22143 0.0
C2278 C 0.55658 0.42943 0.24662 0.0
Tb2279 Tb 0.47462 0.49461 0.21975 0.0
N2280 N 0.51711 0.50755 0.24693 0.0
C2281 C 0.52282 0.53012 0.2524 0.0
C2282 C 0.57629 0.52031 0.27557 0.0
C2283 C 0.5523 0.53676 0.26681 0.0
H2284 H 0.48722 0.43829 0.20714 0.0
H2285 H 0.5565 0.55461 0.27117 0.0
H2286 H 0.61767 0.48468 0.28927 0.0
H2287 H 0.52846 0.40791 0.22079 0.0
H2288 H 0.50487 0.54313 0.24568 0.0
H2289 H 0.31512 0.45377 0.19862 0.0
H2290 H 0.59908 0.52554 0.28677 0.0
H2291 H 0.38812 0.56818 0.26531 0.0
H2292 H 0.36952 0.46488 0.22083 0.0
H2293 H 0.34558 0.5989 0.25459 0.0
H2294 H 0.60817 0.44474 0.27741 0.0
H2295 H 0.26842 0.4825 0.18908 0.0
H2296 H 0.24721 0.52252 0.19187 0.0
H2297 H 0.5751 0.41604 0.25215 0.0
H2298 H 0.25749 0.56237 0.20431 0.0
N2299 N 0.35486 0.49998 0.2246 0.0
C2300 C 0.34965 0.47774 0.21739 0.0
C2301 C 0.29247 0.48755 0.1991 0.0
C2302 C 0.29761 0.51019 0.20656 0.0
C2303 C 0.3187 0.47131 0.20444 0.0
C2304 C 0.3296 0.51613 0.21922 0.0
H2305 H 0.29424 0.59096 0.22685 0.0
N2306 N 0.36509 0.54385 0.2404 0.0
C2307 C 0.34271 0.5822 0.24624 0.0
C2308 C 0.33535 0.5387 0.22665 0.0
C2309 C 0.36717 0.56483 0.25183 0.0
C2310 C 0.31378 0.57763 0.23063 0.0
C2311 C 0.30904 0.55553 0.22144 0.0
O2312 O 0.37433 0.52804 0.28198 0.0
O2313 O 0.45623 0.50297 0.2578 0.0
O2314 O 0.44807 0.4633 0.23273 0.0
O2315 O 0.40245 0.47559 0.25902 0.0
O2316 O 0.43144 0.51612 0.28666 0.0
O2317 O 0.35238 0.49708 0.26594 0.0
O2318 O 0.50245 0.47867 0.19116 0.0
O2319 O 0.41674 0.50314 0.21274 0.0
O2320 O 0.42399 0.54377 0.23642 0.0
O2321 O 0.46722 0.53053 0.20904 0.0
O2322 O 0.44287 0.48908 0.1846 0.0
O2323 O 0.51941 0.51233 0.20462 0.0
C2324 C 0.4624 0.50694 0.28157 0.0
C2325 C 0.32862 0.50857 0.30412 0.0
C2326 C 0.32752 0.49143 0.3446 0.0
C2327 C 0.346 0.4965 0.32276 0.0
C2328 C 0.2912 0.49795 0.34731 0.0
C2329 C 0.29262 0.51548 0.30699 0.0
C2330 C 0.27391 0.51009 0.32858 0.0
C2331 C 0.42262 0.4593 0.24928 0.0
C2332 C 0.34714 0.5139 0.28129 0.0
C2333 C 0.27775 0.54962 0.20842 0.0
C2334 C 0.27186 0.52699 0.20138 0.0
C2335 C 0.41142 0.49802 0.18894 0.0
C2336 C 0.55374 0.49494 0.17181 0.0
C2337 C 0.54158 0.49326 0.14772 0.0
C2338 C 0.56597 0.48911 0.12877 0.0
C2339 C 0.60298 0.48749 0.13354 0.0
C2340 C 0.59077 0.49348 0.17705 0.0
C2341 C 0.61534 0.48976 0.1578 0.0
C2342 C 0.44759 0.54726 0.21842 0.0
C2343 C 0.52736 0.49441 0.19144 0.0
H2344 H 0.37401 0.4915 0.32047 0.0
H2345 H 0.27674 0.49445 0.36424 0.0
H2346 H 0.27898 0.5249 0.29249 0.0
H2347 H 0.24619 0.51551 0.33088 0.0
H2348 H 0.5128 0.49388 0.14384 0.0
H2349 H 0.62191 0.48399 0.11874 0.0
H2350 H 0.60036 0.49417 0.19596 0.0
H2351 H 0.64367 0.48763 0.16169 0.0
Tb2352 Tb 0.22447 0.50501 0.96924 0.0
C2353 C 0.09604 0.45142 0.97932 0.0
C2354 C 0.05212 0.47386 0.9564 0.0
C2355 C 0.04453 0.43283 0.96003 0.0
C2356 C 0.08467 0.47246 0.96978 0.0
C2357 C 0.07541 0.43156 0.97494 0.0
C2358 C 0.03302 0.4539 0.95084 0.0
C2359 C 0.11557 0.41073 1.00202 0.0
N2360 N 0.12615 0.45057 0.99385 0.0
C2361 C 0.13502 0.4308 1.00622 0.0
C2362 C 0.08587 0.41107 0.98615 0.0
Tb2363 Tb 0.15096 0.48583 1.00099 0.0
N2364 N 0.10369 0.49172 0.97522 0.0
C2365 C 0.09019 0.51282 0.96949 0.0
C2366 C 0.03857 0.49538 0.95019 0.0
C2367 C 0.05715 0.51492 0.95745 0.0
H2368 H 0.15764 0.43065 1.01888 0.0
H2369 H 0.04623 0.53169 0.95363 0.0
H2370 H 1.0087 0.45471 0.94003 0.0
H2371 H 0.12325 0.39506 1.01121 0.0
H2372 H 0.1041 0.52812 0.975 0.0
H2373 H 0.29832 0.43529 1.01253 0.0
H2374 H 1.01299 0.49718 0.94082 0.0
H2375 H 0.22834 0.56335 0.98068 0.0
H2376 H 0.24606 0.45176 0.99192 0.0
H2377 H 0.2711 0.58891 0.9997 0.0
H2378 H 0.02874 0.4177 0.95609 0.0
H2379 H 0.34793 0.46005 1.02682 0.0
H2380 H 0.37298 0.49937 1.0319 0.0
H2381 H 0.07068 0.39551 0.98311 0.0
H2382 H 0.36651 0.54063 1.02737 0.0
N2383 N 0.26499 0.4862 0.99383 0.0
C2384 C 0.26716 0.4631 0.99754 0.0
C2385 C 0.32484 0.46758 1.01766 0.0
C2386 C 0.32228 0.49118 1.01433 0.0
C2387 C 0.29688 0.45355 1.00961 0.0
C2388 C 0.29132 0.50023 1.00271 0.0
H2389 H 0.32756 0.57395 1.01751 0.0
N2390 N 0.25522 0.53232 0.9917 0.0
C2391 C 0.27555 0.57065 1.00065 0.0
C2392 C 0.2865 0.52387 1.00137 0.0
C2393 C 0.25011 0.55563 0.99081 0.0
C2394 C 0.30757 0.56217 1.01034 0.0
C2395 C 0.31357 0.53865 1.01058 0.0
O2396 O 0.2517 0.53007 0.94898 0.0
O2397 O 0.16628 0.49754 0.96305 0.0
O2398 O 0.17103 0.45721 0.97762 0.0
O2399 O 0.22056 0.46974 0.95519 0.0
O2400 O 0.19415 0.50578 0.93285 0.0
O2401 O 0.27082 0.4951 0.94945 0.0
O2402 O 0.1247 0.47075 1.03135 0.0
O2403 O 0.20759 0.49653 1.00795 0.0
O2404 O 0.18855 0.53425 0.97373 0.0
O2405 O 0.15498 0.52282 1.00749 0.0
O2406 O 0.18512 0.47937 1.03508 0.0
O2407 O 0.10626 0.50294 1.01622 0.0
C2408 C 0.16126 0.50039 0.93881 0.0
C2409 C 0.29752 0.52043 0.92094 0.0
C2410 C 0.29796 0.524 0.87672 0.0
C2411 C 0.27947 0.51947 0.89858 0.0
C2412 C 0.33496 0.52931 0.87728 0.0
C2413 C 0.33432 0.52599 0.9218 0.0
C2414 C 0.35305 0.53041 0.8999 0.0
C2415 C 0.19644 0.45387 0.96073 0.0
C2416 C 0.27805 0.51621 0.94358 0.0
C2417 C 0.34542 0.52953 1.02041 0.0
C2418 C 0.34934 0.50595 1.02279 0.0
C2419 C 0.21458 0.49077 1.03126 0.0
C2420 C 0.07917 0.49062 0.05338 0.0
C2421 C 0.09606 0.5005 0.07371 0.0
C2422 C 0.07631 0.50445 0.09536 0.0
C2423 C 0.03956 0.49872 0.09633 0.0
C2424 C 0.04261 0.48452 0.05453 0.0
C2425 C 0.02292 0.48849 0.07606 0.0
C2426 C 0.16754 0.53888 0.99275 0.0
C2427 C 0.09901 0.48595 1.03085 0.0
H2428 H 0.25116 0.51471 0.89822 0.0
H2429 H 0.34967 0.5325 0.86033 0.0
H2430 H 0.34845 0.5269 0.93932 0.0
H2431 H 0.38151 0.53457 0.90046 0.0
H2432 H 0.12454 0.50473 0.07285 0.0
H2433 H 0.02421 0.50138 0.11304 0.0
H2434 H 0.0294 0.47662 1.03881 0.0
H2435 H 0.9949 0.48343 0.07713 0.0
Tb2436 Tb 0.55568 0.24144 0.97077 0.0
C2437 C 0.68529 0.2889 0.97029 0.0
C2438 C 0.72582 0.2611 0.95195 0.0
C2439 C 0.73508 0.30135 0.94403 0.0
C2440 C 0.69492 0.2663 0.96628 0.0
C2441 C 0.70609 0.30665 0.95965 0.0
C2442 C 0.74502 0.27865 0.94034 0.0
C2443 C 0.67299 0.33375 0.98415 0.0
N2444 N 0.658 0.29355 0.98637 0.0
C2445 C 0.65389 0.31571 0.99472 0.0
C2446 C 0.69868 0.32925 0.96611 0.0
Tb2447 Tb 0.62931 0.26145 1.00283 0.0
N2448 N 0.67552 0.24949 0.97744 0.0
C2449 C 0.68698 0.22731 0.97563 0.0
C2450 C 0.73783 0.23852 0.95074 0.0
C2451 C 0.71858 0.22161 0.96298 0.0
H2452 H 0.63534 0.31957 1.00961 0.0
H2453 H 0.72738 0.204 0.96202 0.0
H2454 H 0.76843 0.27488 0.92922 0.0
H2455 H 0.66831 0.35109 0.99032 0.0
H2456 H 0.67216 0.21367 0.98359 0.0
H2457 H 0.47617 0.30643 1.01785 0.0
H2458 H 0.76196 0.23401 0.94052 0.0
H2459 H 0.54293 0.18408 0.96466 0.0
H2460 H 0.52769 0.29252 0.99452 0.0
H2461 H 0.49794 0.15612 0.97806 0.0
H2462 H 0.75105 0.31475 0.93563 0.0
H2463 H 0.42917 0.27967 1.03194 0.0
H2464 H 0.40502 0.24015 1.0332 0.0
H2465 H 0.71403 0.34324 0.9583 0.0
H2466 H 0.41135 0.19962 1.02289 0.0
N2467 N 0.51276 0.25735 0.99617 0.0
C2468 C 0.50856 0.28023 1.00079 0.0
C2469 C 0.45242 0.27322 1.02198 0.0
C2470 C 0.45596 0.24998 1.01669 0.0
C2471 C 0.47888 0.28836 1.01407 0.0
C2472 C 0.48709 0.24225 1.00398 0.0
H2473 H 0.44648 0.16818 1.00384 0.0
N2474 N 0.52078 0.21178 0.98574 0.0
C2475 C 0.49599 0.17363 0.98435 0.0
C2476 C 0.49128 0.21898 0.99877 0.0
C2477 C 0.52193 0.18959 0.97725 0.0
C2478 C 0.46699 0.18052 0.99882 0.0
C2479 C 0.46368 0.20346 1.00553 0.0
O2480 O 0.5292 0.22232 0.94387 0.0
O2481 O 0.61409 0.24932 0.9648 0.0
O2482 O 0.59732 0.29098 0.98929 0.0
O2483 O 0.56509 0.27636 0.95658 0.0
O2484 O 0.58845 0.23618 0.93576 0.0
O2485 O 0.50973 0.25603 0.95424 0.0
O2486 O 0.65512 0.28265 1.02801 0.0
O2487 O 0.57206 0.25119 1.00892 0.0
O2488 O 0.58318 0.21074 0.98478 0.0
O2489 O 0.62722 0.22456 1.01152 0.0
O2490 O 0.59564 0.26545 1.03761 0.0
O2491 O 0.67035 0.24726 1.02568 0.0
C2492 C 0.62021 0.24417 0.94112 0.0
C2493 C 0.484 0.23833 0.91946 0.0
C2494 C 0.48656 0.24071 0.87545 0.0
C2495 C 0.50337 0.24274 0.89825 0.0
C2496 C 0.44965 0.23549 0.87382 0.0
C2497 C 0.44737 0.23263 0.91824 0.0
C2498 C 0.43006 0.23143 0.89535 0.0
C2499 C 0.58102 0.29377 0.96765 0.0
C2500 C 0.50271 0.23698 0.94263 0.0
C2501 C 0.43271 0.21133 1.01776 0.0
C2502 C 0.42903 0.23443 1.02355 0.0
C2503 C 0.5653 0.25553 1.03256 0.0
C2504 C 0.68693 0.26898 0.06191 0.0
C2505 C 0.6748 0.25381 0.08021 0.0
C2506 C 0.68157 0.25851 0.10547 0.0
C2507 C 0.7008 0.27862 0.11154 0.0
C2508 C 0.70734 0.28815 0.06858 0.0
C2509 C 0.71418 0.29293 0.09325 0.0
C2510 C 0.60846 0.20752 1.00173 0.0
C2511 C 0.67709 0.26705 1.03576 0.0
H2512 H 0.53185 0.24699 0.89947 0.0
H2513 H 0.43642 0.23398 0.85602 0.0
H2514 H 0.43279 0.22855 0.93492 0.0
H2515 H 0.40197 0.22674 0.89415 0.0
H2516 H 0.65986 0.2388 0.07463 0.0
H2517 H 0.70495 0.28397 0.13045 0.0
H2518 H 0.71701 0.29994 0.05462 0.0
H2519 H 0.72901 0.30816 0.09826 0.0
Tb2520 Tb 0.22268 0.24181 0.87778 0.0
C2521 C 0.09128 0.28887 0.87955 0.0
C2522 C 0.05303 0.26126 0.90048 0.0
C2523 C 0.04163 0.30171 0.90578 0.0
C2524 C 0.08291 0.26628 0.8851 0.0
C2525 C 0.0699 0.30674 0.88943 0.0
C2526 C 0.03305 0.27905 0.91112 0.0
C2527 C 0.10121 0.33316 0.86298 0.0
N2528 N 0.11805 0.29328 0.86296 0.0
C2529 C 0.12084 0.31495 0.85314 0.0
C2530 C 0.07613 0.32911 0.88158 0.0
Tb2531 Tb 0.14684 0.26101 0.84761 0.0
N2532 N 0.10279 0.24921 0.87469 0.0
C2533 C 0.09316 0.22688 0.8785 0.0
C2534 C 0.04342 0.23848 0.90432 0.0
C2535 C 0.06323 0.22125 0.89294 0.0
H2536 H 0.13918 0.31834 0.83801 0.0
H2537 H 0.05597 0.20354 0.89573 0.0
H2538 H 1.0103 0.27541 0.92302 0.0
H2539 H 0.105 0.35026 0.85585 0.0
H2540 H 0.10831 0.21311 0.87078 0.0
H2541 H 0.29702 0.30704 0.82792 0.0
H2542 H 0.02055 0.23402 0.91583 0.0
H2543 H 0.23649 0.18454 0.88391 0.0
H2544 H 0.24503 0.29223 0.85033 0.0
H2545 H 0.28338 0.15726 0.87175 0.0
H2546 H 0.02535 0.31525 0.91368 0.0
H2547 H 0.34758 0.2815 0.81706 0.0
H2548 H 0.37532 0.24281 0.8187 0.0
H2549 H 0.06037 0.34321 0.88882 0.0
H2550 H 0.37086 0.2023 0.82956 0.0
N2551 N 0.2639 0.25782 0.85144 0.0
C2552 C 0.26606 0.28053 0.84554 0.0
C2553 C 0.32427 0.27465 0.82662 0.0
C2554 C 0.32245 0.25156 0.83296 0.0
C2555 C 0.2958 0.28912 0.83272 0.0
C2556 C 0.29121 0.24331 0.84502 0.0
H2557 H 0.33607 0.17021 0.84774 0.0
N2558 N 0.25857 0.21247 0.86327 0.0
C2559 C 0.28488 0.17477 0.86543 0.0
C2560 C 0.28836 0.2201 0.8509 0.0
C2561 C 0.25779 0.19028 0.87171 0.0
C2562 C 0.31461 0.18217 0.85198 0.0
C2563 C 0.31719 0.20511 0.84519 0.0
O2564 O 0.25116 0.22363 0.9045 0.0
O2565 O 0.16504 0.24995 0.88511 0.0
O2566 O 0.17723 0.29108 0.86103 0.0
O2567 O 0.21351 0.27671 0.8919 0.0
O2568 O 0.19122 0.23559 0.91317 0.0
O2569 O 0.2682 0.25771 0.89336 0.0
O2570 O 0.12265 0.27997 0.81921 0.0
O2571 O 0.20386 0.25072 0.83995 0.0
O2572 O 0.1957 0.21088 0.86412 0.0
O2573 O 0.14908 0.22418 0.83913 0.0
O2574 O 0.17791 0.26375 0.81158 0.0
O2575 O 0.09973 0.24799 0.83147 0.0
C2576 C 0.15973 0.24441 0.90866 0.0
C2577 C 0.29748 0.24058 0.92716 0.0
C2578 C 0.2977 0.24403 0.97106 0.0
C2579 C 0.2801 0.24678 0.94865 0.0
C2580 C 0.33374 0.23675 0.97199 0.0
C2581 C 0.33316 0.23268 0.92763 0.0
C2582 C 0.35144 0.23103 0.95013 0.0
C2583 C 0.19602 0.29389 0.88162 0.0
C2584 C 0.27689 0.23886 0.90484 0.0
C2585 C 0.34845 0.21355 0.83378 0.0
C2586 C 0.35105 0.23665 0.82767 0.0
C2587 C 0.209 0.25447 0.816 0.0
C2588 C 0.08293 0.26129 0.7923 0.0
C2589 C 0.1006 0.24601 0.7765 0.0
C2590 C 0.08803 0.24307 0.75227 0.0
C2591 C 0.05779 0.25556 0.74425 0.0
C2592 C 0.05247 0.2733 0.78424 0.0
C2593 C 0.03996 0.27044 0.76024 0.0
C2594 C 0.16915 0.20742 0.84818 0.0
C2595 C 0.09598 0.26564 0.8171 0.0
H2596 H 0.25209 0.25227 0.94806 0.0
H2597 H 0.34739 0.23444 0.98953 0.0
H2598 H 0.34602 0.22693 0.91081 0.0
H2599 H 0.37843 0.22422 0.95088 0.0
H2600 H 0.12435 0.23691 0.78286 0.0
H2601 H 0.0491 0.25454 0.72526 0.0
H2602 H 0.03876 0.28519 0.79642 0.0
H2603 H 0.01705 0.28026 0.75393 0.0
Tb2604 Tb 0.55284 0.50622 0.88324 0.0
C2605 C 0.68363 0.45561 0.85852 0.0
C2606 C 0.73238 0.47762 0.87654 0.0
C2607 C 0.74191 0.43776 0.86589 0.0
C2608 C 0.69657 0.47604 0.86805 0.0
C2609 C 0.70638 0.43634 0.85699 0.0
C2610 C 0.7546 0.4583 0.87592 0.0
C2611 C 0.65826 0.41627 0.83603 0.0
N2612 N 0.64945 0.45503 0.84944 0.0
C2613 C 0.63694 0.43594 0.83746 0.0
C2614 C 0.69311 0.41645 0.84585 0.0
Tb2615 Tb 0.62053 0.48952 0.84906 0.0
N2616 N 0.67482 0.49469 0.86769 0.0
C2617 C 0.68796 0.51566 0.87421 0.0
C2618 C 0.74527 0.49881 0.88452 0.0
C2619 C 0.72345 0.51805 0.88243 0.0
H2620 H 0.61032 0.43588 0.8293 0.0
H2621 H 0.73365 0.53469 0.88762 0.0
H2622 H 0.78177 0.45932 0.88284 0.0
H2623 H 0.64802 0.40112 0.82697 0.0
H2624 H 0.67135 0.53068 0.87283 0.0
H2625 H 0.47673 0.43011 0.85212 0.0
H2626 H 0.77218 0.5006 0.8919 0.0
H2627 H 0.54229 0.56133 0.86522 0.0
H2628 H 0.5298 0.44906 0.86657 0.0
H2629 H 0.49681 0.58408 0.8449 0.0
H2630 H 0.7599 0.4232 0.86483 0.0
H2631 H 0.42438 0.45219 0.83751 0.0
H2632 H 0.39753 0.48981 0.82722 0.0
H2633 H 0.70983 0.40133 0.84426 0.0
H2634 H 0.40344 0.53138 0.82447 0.0
N2635 N 0.50865 0.4833 0.86427 0.0
C2636 C 0.50752 0.45985 0.8623 0.0
C2637 C 0.44777 0.46106 0.84476 0.0
C2638 C 0.44968 0.48481 0.8446 0.0
C2639 C 0.47716 0.44857 0.8531 0.0
C2640 C 0.48093 0.49562 0.85415 0.0
H2641 H 0.44044 0.56632 0.83029 0.0
N2642 N 0.51621 0.52908 0.85923 0.0
C2643 C 0.49324 0.56578 0.84637 0.0
C2644 C 0.48476 0.51913 0.85178 0.0
C2645 C 0.52003 0.55233 0.85718 0.0
C2646 C 0.46131 0.55576 0.83846 0.0
C2647 C 0.45666 0.53225 0.84107 0.0
O2648 O 0.5395 0.53485 0.9056 0.0
O2649 O 0.61298 0.50416 0.88748 0.0
O2650 O 0.61003 0.46013 0.87422 0.0
O2651 O 0.55897 0.47057 0.89627 0.0
O2652 O 0.58338 0.49581 0.91751 0.0
O2653 O 0.50501 0.50553 0.90313 0.0
O2654 O 0.62819 0.48001 0.81219 0.0
O2655 O 0.56542 0.50356 0.84296 0.0
O2656 O 0.58687 0.53664 0.87906 0.0
O2657 O 0.61654 0.52656 0.84367 0.0
O2658 O 0.57689 0.47394 0.82581 0.0
O2659 O 0.66057 0.50682 0.82826 0.0
C2660 C 0.61715 0.49783 0.91103 0.0
C2661 C 0.49443 0.52997 0.93634 0.0
C2662 C 0.47527 0.5144 0.97548 0.0
C2663 C 0.49096 0.51157 0.95234 0.0
C2664 C 0.46135 0.53586 0.98231 0.0
C2665 C 0.48072 0.55143 0.94304 0.0
C2666 C 0.464 0.5543 0.966 0.0
C2667 C 0.58447 0.45541 0.89059 0.0
C2668 C 0.50857 0.52612 0.91165 0.0
C2669 C 0.42508 0.52154 0.83276 0.0
C2670 C 0.42168 0.49789 0.83438 0.0
C2671 C 0.55298 0.49001 0.82557 0.0
C2672 C 0.68255 0.48862 0.79165 0.0
C2673 C 0.68552 0.50253 0.77091 0.0
C2674 C 0.69406 0.49294 0.74783 0.0
C2675 C 0.71019 0.47104 0.74765 0.0
C2676 C 0.69781 0.46675 0.79132 0.0
C2677 C 0.71342 0.45851 0.76957 0.0
C2678 C 0.60583 0.54225 0.85939 0.0
C2679 C 0.65359 0.4949 0.80867 0.0
H2680 H 0.50124 0.49493 0.94699 0.0
H2681 H 0.44989 0.53858 1.0005 0.0
H2682 H 0.4825 0.56575 0.93043 0.0
H2683 H 0.45357 0.57088 0.97129 0.0
H2684 H 0.67555 0.51986 0.7723 0.0
H2685 H 0.71805 0.46266 0.73069 0.0
H2686 H 0.69582 0.45564 0.80715 0.0
H2687 H 0.72482 0.44149 0.76914 0.0
C2688 C 0.38157 0.82667 0.11566 0.0
C2689 C 0.40311 0.81486 0.09856 0.0
C2690 C 0.37564 0.85029 0.11362 0.0
C2691 C 0.39553 0.86314 0.09611 0.0
C2692 C 0.41853 0.85144 0.07934 0.0
C2693 C 0.42031 0.82734 0.07983 0.0
C2694 C 0.34865 0.86137 0.13078 0.0
C2695 C 0.44358 0.86438 0.06239 0.0
C2696 C 0.36588 0.92413 0.08107 0.0
C2697 C 0.38097 0.93644 0.10074 0.0
C2698 C 0.37049 0.9003 0.07919 0.0
C2699 C 0.39314 0.88875 0.09626 0.0
C2700 C 0.41089 0.90161 0.11495 0.0
C2701 C 0.40353 0.9251 0.11749 0.0
C2702 C 0.34876 0.88731 0.06021 0.0
C2703 C 0.43682 0.89055 0.13284 0.0
H2704 H 0.36948 0.81766 0.131 0.0
H2705 H 0.4378 0.81843 0.06698 0.0
H2706 H 0.36285 0.86865 0.147 0.0
H2707 H 0.33386 0.87539 0.12139 0.0
H2708 H 0.32866 0.84877 0.13773 0.0
H2709 H 0.45929 0.85283 1.05013 0.0
H2710 H 0.42842 0.87666 0.0508 0.0
H2711 H 0.46281 0.87448 0.07374 0.0
H2712 H 0.34825 0.9329 0.06819 0.0
H2713 H 0.41519 0.93456 0.13276 0.0
H2714 H 0.33043 0.8752 0.06977 0.0
H2715 H 0.36668 0.87705 1.04815 0.0
H2716 H 0.33228 0.89879 1.04839 0.0
H2717 H 0.42154 0.88272 0.14826 0.0
H2718 H 0.45567 0.90328 0.14093 0.0
H2719 H 0.45282 0.87692 0.12369 0.0
C2720 C 0.89378 0.42406 0.12058 0.0
C2721 C 0.86826 0.43494 0.10548 0.0
C2722 C 0.90086 0.4005 0.11832 0.0
C2723 C 0.87978 0.38694 0.10205 0.0
C2724 C 0.85318 0.3978 0.08724 0.0
C2725 C 0.84857 0.42172 0.08858 0.0
C2726 C 0.93071 0.39014 0.13368 0.0
C2727 C 0.82823 0.38404 0.07098 0.0
C2728 C 0.91293 0.32714 0.084 0.0
C2729 C 0.89994 0.31383 0.10361 0.0
C2730 C 0.9068 0.35092 0.08324 0.0
C2731 C 0.8847 0.3614 0.10147 0.0
C2732 C 0.86913 0.34753 0.12016 0.0
C2733 C 0.87802 0.32415 0.12152 0.0
C2734 C 0.92597 0.36499 0.06393 0.0
C2735 C 0.84369 0.35743 0.13915 0.0
H2736 H 0.90815 0.43386 0.1344 0.0
H2737 H 0.82829 0.42998 0.07723 0.0
H2738 H 0.91895 0.38008 0.14903 0.0
H2739 H 0.94734 0.37836 0.12231 0.0
H2740 H 0.94863 0.40339 0.14177 0.0
H2741 H 0.80925 0.39501 0.0604 0.0
H2742 H 0.84392 0.37351 0.05775 0.0
H2743 H 0.8123 0.37212 0.0826 0.0
H2744 H 0.93009 0.31921 0.0702 0.0
H2745 H 0.86788 0.31392 0.1367 0.0
H2746 H 0.94414 0.37742 0.07316 0.0
H2747 H 0.90628 0.37496 0.05291 0.0
H2748 H 0.94231 0.3543 0.05114 0.0
H2749 H 0.85925 0.36711 0.15317 0.0
H2750 H 0.8282 0.34389 0.14886 0.0
H2751 H 0.82437 0.36943 0.13036 0.0
C2752 C 0.37778 0.42745 0.25663 0.0
C2753 C 0.41372 0.43492 0.25492 0.0
C2754 C 0.36932 0.40394 0.25778 0.0
C2755 C 0.39743 0.38743 0.25713 0.0
C2756 C 0.43373 0.39504 0.25727 0.0
C2757 C 0.44127 0.4186 0.25666 0.0
C2758 C 0.33024 0.39676 0.25855 0.0
C2759 C 0.46476 0.37833 0.25665 0.0
C2760 C 0.38041 0.32403 0.2713 0.0
C2761 C 0.37505 0.31496 0.24754 0.0
C2762 C 0.3869 0.3476 0.27484 0.0
C2763 C 0.38913 0.3624 0.25411 0.0
C2764 C 0.38439 0.35313 0.23009 0.0
C2765 C 0.37697 0.32971 0.22715 0.0
C2766 C 0.39071 0.35674 0.3008 0.0
C2767 C 0.38729 0.36798 0.20737 0.0
H2768 H 0.35614 0.4399 0.25604 0.0
H2769 H 0.46891 0.42426 0.25736 0.0
H2770 H 0.32269 0.38878 0.24067 0.0
H2771 H 0.32599 0.38378 0.2732 0.0
H2772 H 0.31188 0.41143 0.262 0.0
H2773 H 0.49122 0.38684 0.25951 0.0
H2774 H 0.46135 0.36499 0.27099 0.0
H2775 H 0.46522 0.36959 0.23843 0.0
H2776 H 0.37832 0.31284 0.28718 0.0
H2777 H 0.37282 0.32287 0.20874 0.0
H2778 H 0.37015 0.37018 0.30415 0.0
H2779 H 0.41757 0.36479 0.3032 0.0
H2780 H 0.3875 0.34318 0.31498 0.0
H2781 H 0.36678 0.38177 0.2081 0.0
H2782 H 0.3834 0.35814 0.19 0.0
H2783 H 0.41422 0.37626 0.2068 0.0
C2784 C 0.87944 0.82307 0.27507 0.0
C2785 C 0.8773 0.81434 0.25094 0.0
C2786 C 0.88395 0.84673 0.27936 0.0
C2787 C 0.8872 0.86196 0.25906 0.0
C2788 C 0.88578 0.85304 0.2347 0.0
C2789 C 0.88055 0.8295 0.23098 0.0
C2790 C 0.88421 0.85549 0.3056 0.0
C2791 C 0.88971 0.86838 0.21244 0.0
C2792 C 0.87184 0.92665 0.26064 0.0
C2793 C 0.90747 0.93485 0.26023 0.0
C2794 C 0.86456 0.90297 0.26199 0.0
C2795 C 0.89356 0.8871 0.26285 0.0
C2796 C 0.92926 0.89552 0.26477 0.0
C2797 C 0.93552 0.9192 0.26417 0.0
C2798 C 0.8259 0.89494 0.26111 0.0
C2799 C 0.96121 0.87952 0.26575 0.0
H2800 H 0.8761 0.81154 0.29057 0.0
H2801 H 0.87871 0.82293 0.21228 0.0
H2802 H 0.90948 0.86502 0.30931 0.0
H2803 H 0.8615 0.8676 0.3083 0.0
H2804 H 0.88174 0.8415 0.31935 0.0
H2805 H 0.88851 0.85876 0.19475 0.0
H2806 H 0.86796 0.88141 0.21239 0.0
H2807 H 0.91583 0.87761 0.21334 0.0
H2808 H 0.84963 0.93855 0.25883 0.0
H2809 H 0.96262 0.92543 0.2665 0.0
H2810 H 0.8213 0.88117 0.27483 0.0
H2811 H 0.82001 0.88778 0.24255 0.0
H2812 H 0.80659 0.90908 0.26476 0.0
H2813 H 0.95729 0.86635 0.28021 0.0
H2814 H 0.9869 0.88867 0.26946 0.0
H2815 H 0.96372 0.87049 0.24777 0.0
C2816 C 0.65539 0.07213 1.02254 0.0
C2817 C 0.66218 0.06366 0.99868 0.0
C2818 C 0.64816 0.09558 1.02665 0.0
C2819 C 0.64697 0.111 1.00638 0.0
C2820 C 0.65364 0.10243 0.98228 0.0
C2821 C 0.66122 0.07906 0.97877 0.0
C2822 C 0.64158 0.10382 0.05269 0.0
C2823 C 0.65233 0.11794 0.96002 0.0
C2824 C 0.59163 0.16613 1.00804 0.0
C2825 C 0.6182 0.18319 1.00814 0.0
C2826 C 0.6004 0.14271 1.00838 0.0
C2827 C 0.63698 0.13581 1.00987 0.0
C2828 C 0.66383 0.1529 1.01284 0.0
C2829 C 0.65411 0.17631 1.01231 0.0
C2830 C 0.57047 0.12539 1.00579 0.0
C2831 C 0.70311 0.14652 1.01537 0.0
H2832 H 0.65628 0.06048 1.03809 0.0
H2833 H 0.6662 0.07277 0.96023 0.0
H2834 H 0.65854 0.11898 0.05674 0.0
H2835 H 0.613 0.10915 0.05471 0.0
H2836 H 0.6474 0.0904 0.06664 0.0
H2837 H 0.65909 0.10884 0.94259 0.0
H2838 H 0.62491 0.1254 0.95818 0.0
H2839 H 0.6715 0.13232 0.96244 0.0
H2840 H 0.56374 0.17104 1.00773 0.0
H2841 H 0.67498 0.18908 1.01428 0.0
H2842 H 0.57315 0.11181 1.01993 0.0
H2843 H 0.57239 0.11706 0.98739 0.0
H2844 H 0.54331 0.13327 1.00754 0.0
H2845 H 0.70655 0.13321 1.02977 0.0
H2846 H 0.72023 0.16145 1.02016 0.0
H2847 H 0.71292 0.1392 0.99766 0.0
C2848 C 0.15931 0.67515 1.00694 0.0
C2849 C 0.12353 0.68303 1.00789 0.0
C2850 C 0.1672 0.65156 1.00776 0.0
C2851 C 0.1387 0.63548 1.00981 0.0
C2852 C 0.10304 0.64357 1.01335 0.0
C2853 C 0.09617 0.66719 1.01289 0.0
C2854 C 0.20584 0.64381 1.005 0.0
C2855 C 0.07168 0.62731 1.01595 0.0
C2856 C 0.15174 0.57799 0.97765 0.0
C2857 C 0.15791 0.56316 0.99752 0.0
C2858 C 0.14503 0.60138 0.98151 0.0
C2859 C 0.14549 0.61044 1.00584 0.0
C2860 C 0.15177 0.59549 1.02603 0.0
C2861 C 0.15741 0.57198 1.02165 0.0
C2862 C 0.13747 0.61643 0.95946 0.0
C2863 C 0.15347 0.60442 0.05219 0.0
H2864 H 0.18109 0.68721 1.00443 0.0
H2865 H 0.06908 0.67324 1.01606 0.0
H2866 H 0.21241 0.63058 1.01897 0.0
H2867 H 0.20963 0.63598 0.98649 0.0
H2868 H 0.2252 0.65818 1.00694 0.0
H2869 H 0.04628 0.63625 1.02105 0.0
H2870 H 0.06733 0.6183 0.99814 0.0
H2871 H 0.07752 0.61414 1.03012 0.0
H2872 H 0.15204 0.57123 0.95898 0.0
H2873 H 0.16273 0.56062 1.03705 0.0
H2874 H 0.15832 0.62996 0.95811 0.0
H2875 H 0.11098 0.62504 0.96177 0.0
H2876 H 0.13712 0.60668 0.94183 0.0
H2877 H 0.17606 0.61675 0.05391 0.0
H2878 H 0.15749 0.59054 0.06591 0.0
H2879 H 0.12832 0.61375 0.05685 0.0
C2880 C 0.68798 0.66767 0.84038 0.0
C2881 C 0.66165 0.68483 0.84082 0.0
C2882 C 0.67886 0.64438 0.84139 0.0
C2883 C 0.64209 0.63785 0.84137 0.0
C2884 C 0.61532 0.65498 0.83833 0.0
C2885 C 0.62543 0.67825 0.83785 0.0
C2886 C 0.70868 0.62697 0.84416 0.0
C2887 C 0.57585 0.64884 0.83691 0.0
C2888 C 0.62231 0.57441 0.8307 0.0
C2889 C 0.61527 0.56665 0.85479 0.0
C2890 C 0.63008 0.59756 0.82593 0.0
C2891 C 0.63184 0.61335 0.84579 0.0
C2892 C 0.6251 0.60552 0.87018 0.0
C2893 C 0.61646 0.5824 0.87433 0.0
C2894 C 0.63637 0.60513 0.79962 0.0
C2895 C 0.62757 0.62152 0.892 0.0
H2896 H 0.71588 0.67246 0.83938 0.0
H2897 H 0.60469 0.6912 0.83634 0.0
H2898 H 0.70883 0.62053 0.86346 0.0
H2899 H 0.70425 0.61211 0.83183 0.0
H2900 H 0.73565 0.63432 0.84007 0.0
H2901 H 0.55883 0.66368 0.83163 0.0
H2902 H 0.57156 0.63489 0.82333 0.0
H2903 H 0.56663 0.6425 0.85518 0.0
H2904 H 0.62109 0.56242 0.81544 0.0
H2905 H 0.61117 0.57656 0.89299 0.0
H2906 H 0.6643 0.61165 0.79753 0.0
H2907 H 0.61782 0.61936 0.79492 0.0
H2908 H 0.63224 0.59104 0.78614 0.0
H2909 H 0.65509 0.62896 0.893 0.0
H2910 H 0.62166 0.61283 0.90979 0.0
H2911 H 0.60832 0.63588 0.88967 0.0
C2912 C 0.1237 0.17617 0.83837 0.0
C2913 C 0.15963 0.1831 0.84209 0.0
C2914 C 0.11431 0.15275 0.83753 0.0
C2915 C 0.14139 0.13578 0.84051 0.0
C2916 C 0.17791 0.14276 0.84201 0.0
C2917 C 0.18643 0.16618 0.84211 0.0
C2918 C 0.07517 0.1462 0.83462 0.0
C2919 C 0.20802 0.12558 0.845 0.0
C2920 C 0.11617 0.07952 0.87203 0.0
C2921 C 0.11676 0.06386 0.85238 0.0
C2922 C 0.12389 0.10283 0.86831 0.0
C2923 C 0.13167 0.11103 0.84421 0.0
C2924 C 0.13183 0.09532 0.82419 0.0
C2925 C 0.12486 0.07194 0.82856 0.0
C2926 C 0.12438 0.11865 0.89035 0.0
C2927 C 0.13898 0.10325 0.79811 0.0
H2928 H 0.10264 0.18895 0.83709 0.0
H2929 H 0.2143 0.17119 0.84243 0.0
H2930 H 0.07227 0.13251 0.82057 0.0
H2931 H 0.06483 0.13938 0.85239 0.0
H2932 H 0.05814 0.16097 0.82913 0.0
H2933 H 0.23512 0.13362 0.84396 0.0
H2934 H 0.20538 0.11702 0.86321 0.0
H2935 H 0.20625 0.11215 0.8306 0.0
H2936 H 0.11026 0.07344 0.89051 0.0
H2937 H 0.12507 0.06001 0.81322 0.0
H2938 H 0.10468 0.1327 0.88765 0.0
H2939 H 0.15149 0.12654 0.8922 0.0
H2940 H 0.1178 0.10969 0.90787 0.0
H2941 H 0.11835 0.11603 0.79264 0.0
H2942 H 0.13845 0.08894 0.7846 0.0
H2943 H 0.16563 0.11178 0.79697 0.0
C2944 C 0.4332 0.32922 0.58235 0.0
C2945 C 0.40537 0.31355 0.587 0.0
C2946 C 0.4272 0.353 0.58283 0.0
C2947 C 0.39184 0.36162 0.5865 0.0
C2948 C 0.36284 0.3458 0.58818 0.0
C2949 C 0.36994 0.32201 0.58858 0.0
C2950 C 0.45922 0.36885 0.58112 0.0
C2951 C 0.32443 0.35399 0.59085 0.0
C2952 C 0.37989 0.4191 0.61952 0.0
C2953 C 0.37484 0.43448 0.59992 0.0
C2954 C 0.38586 0.39563 0.61532 0.0
C2955 C 0.38583 0.38687 0.59084 0.0
C2956 C 0.38068 0.40234 0.5709 0.0
C2957 C 0.37584 0.42595 0.57564 0.0
C2958 C 0.39207 0.38015 0.63722 0.0
C2959 C 0.37946 0.39389 0.54456 0.0
H2960 H 0.46007 0.32288 0.57886 0.0
H2961 H 0.34785 0.31017 0.59129 0.0
H2962 H 0.45456 0.38211 0.56687 0.0
H2963 H 0.46286 0.37777 0.59906 0.0
H2964 H 0.48459 0.35961 0.57664 0.0
H2965 H 0.30467 0.33991 0.58839 0.0
H2966 H 0.32055 0.36148 0.60951 0.0
H2967 H 0.31856 0.36758 0.57714 0.0
H2968 H 0.37908 0.42547 0.63834 0.0
H2969 H 0.37131 0.4376 0.56039 0.0
H2970 H 0.41814 0.371 0.63508 0.0
H2971 H 0.37049 0.36706 0.63813 0.0
H2972 H 0.39247 0.38966 0.655 0.0
H2973 H 0.40626 0.38708 0.53916 0.0
H2974 H 0.37186 0.4076 0.53136 0.0
H2975 H 0.35981 0.37968 0.54284 0.0
C2976 C 0.8669 0.92108 0.58105 0.0
C2977 C 0.88022 0.93392 0.60099 0.0
C2978 C 0.87214 0.89717 0.57979 0.0
C2979 C 0.89373 0.88599 0.59782 0.0
C2980 C 0.90969 0.89935 0.61682 0.0
C2981 C 0.90149 0.92283 0.61876 0.0
C2982 C 0.85291 0.88377 0.55994 0.0
C2983 C 0.93511 0.88884 0.63542 0.0
C2984 C 0.88423 0.82322 0.6167 0.0
C2985 C 0.90908 0.81214 0.60125 0.0
C2986 C 0.87719 0.8468 0.61443 0.0
C2987 C 0.89795 0.8603 0.5979 0.0
C2988 C 0.92377 0.84918 0.58258 0.0
C2989 C 0.92787 0.82518 0.58373 0.0
C2990 C 0.84761 0.85723 0.62998 0.0
C2991 C 0.94811 0.86252 0.56553 0.0
H2992 H 0.85021 0.92949 0.56734 0.0
H2993 H 0.91162 0.93245 0.6344 0.0
H2994 H 0.87287 0.87639 0.54694 0.0
H2995 H 0.83773 0.86938 0.56831 0.0
H2996 H 0.83378 0.89453 0.54923 0.0
H2997 H 0.95077 0.90203 0.64557 0.0
H2998 H 0.91957 0.87879 0.64912 0.0
H2999 H 0.95428 0.87704 0.62613 0.0
H3000 H 0.87013 0.81341 0.63065 0.0
H3001 H 0.94748 0.81677 0.57194 0.0
H3002 H 0.83114 0.86924 0.6188 0.0
H3003 H 0.85959 0.86703 0.64547 0.0
H3004 H 0.82949 0.84401 0.63791 0.0
H3005 H 0.93365 0.86614 0.54803 0.0
H3006 H 0.97293 0.85276 0.56087 0.0
H3007 H 0.95617 0.87907 0.57389 0.0
C3008 C 0.4331 0.91965 0.76183 0.0
C3009 C 0.40663 0.93525 0.75424 0.0
C3010 C 0.4264 0.89599 0.76263 0.0
C3011 C 0.39143 0.8876 0.7572 0.0
C3012 C 0.36335 0.90356 0.75248 0.0
C3013 C 0.37129 0.92715 0.75092 0.0
C3014 C 0.45743 0.87996 0.76779 0.0
C3015 C 0.32515 0.89564 0.7481 0.0
C3016 C 0.38062 0.82867 0.72754 0.0
C3017 C 0.37263 0.81467 0.74782 0.0
C3018 C 0.38763 0.85214 0.73052 0.0
C3019 C 0.38508 0.86231 0.75428 0.0
C3020 C 0.37674 0.84823 0.77489 0.0
C3021 C 0.37141 0.82451 0.77148 0.0
C3022 C 0.39762 0.86612 0.70811 0.0
C3023 C 0.37253 0.85827 0.80043 0.0
H3024 H 0.45926 0.92593 0.76714 0.0
H3025 H 0.34999 0.93905 0.74633 0.0
H3026 H 0.44969 0.86681 0.7815 0.0
H3027 H 0.46481 0.87092 0.75046 0.0
H3028 H 0.48165 0.88912 0.77473 0.0
H3029 H 0.30569 0.91009 0.74795 0.0
H3030 H 0.32349 0.88669 0.73005 0.0
H3031 H 0.31693 0.8833 0.7626 0.0
H3032 H 0.38151 0.82116 0.70921 0.0
H3033 H 0.36458 0.81384 0.78716 0.0
H3034 H 0.42358 0.87508 0.71141 0.0
H3035 H 0.37677 0.87937 0.70477 0.0
H3036 H 0.40027 0.8555 0.69118 0.0
H3037 H 0.39882 0.86494 0.80703 0.0
H3038 H 0.36256 0.84552 0.814 0.0
H3039 H 0.35343 0.87288 0.79995 0.0
C3040 C 0.90092 0.32361 0.73493 0.0
C3041 C 0.87957 0.31198 0.75225 0.0
C3042 C 0.9066 0.34739 0.73656 0.0
C3043 C 0.88753 0.36047 0.75443 0.0
C3044 C 0.86561 0.34878 0.77187 0.0
C3045 C 0.86344 0.32465 0.77133 0.0
C3046 C 0.93254 0.35846 0.71871 0.0
C3047 C 0.84204 0.36179 0.78977 0.0
C3048 C 0.91582 0.42211 0.76931 0.0
C3049 C 0.89892 0.43452 0.75037 0.0
C3050 C 0.91283 0.39809 0.77068 0.0
C3051 C 0.88961 0.38626 0.75416 0.0
C3052 C 0.86986 0.39915 0.73645 0.0
C3053 C 0.87583 0.42289 0.73416 0.0
C3054 C 0.93668 0.38528 0.78856 0.0
C3055 C 0.84301 0.38786 0.71939 0.0
H3056 H 0.91303 0.31412 0.71985 0.0
H3057 H 0.84652 0.31586 0.7846 0.0
H3058 H 0.91729 0.36695 0.70369 0.0
H3059 H 0.94902 0.37165 0.72819 0.0
H3060 H 0.95097 0.34573 0.71015 0.0
H3061 H 0.82731 0.35029 0.80259 0.0
H3062 H 0.85821 0.37399 0.80081 0.0
H3063 H 0.82198 0.37196 0.77921 0.0
H3064 H 0.93373 0.431 0.7819 0.0
H3065 H 0.86271 0.43235 0.71945 0.0
H3066 H 0.95424 0.37325 0.77817 0.0
H3067 H 0.92018 0.37494 0.80144 0.0
H3068 H 0.95411 0.39689 0.79959 0.0
H3069 H 0.85749 0.37923 0.70409 0.0
H3070 H 0.82414 0.4005 0.71115 0.0
H3071 H 0.82708 0.37475 0.72941 0.0
C3072 C 0.63118 0.5718 0.50944 0.0
C3073 C 0.66679 0.56642 0.50253 0.0
C3074 C 0.62007 0.59471 0.51252 0.0
C3075 C 0.64514 0.61265 0.50863 0.0
C3076 C 0.68155 0.60718 0.50358 0.0
C3077 C 0.69176 0.58427 0.50088 0.0
C3078 C 0.58112 0.5997 0.51858 0.0
C3079 C 0.70952 0.62558 0.49951 0.0
C3080 C 0.6148 0.66833 0.47944 0.0
C3081 C 0.61675 0.68381 0.49922 0.0
C3082 C 0.62261 0.6451 0.48262 0.0
C3083 C 0.63297 0.63691 0.50619 0.0
C3084 C 0.6349 0.65238 0.52637 0.0
C3085 C 0.62689 0.6757 0.52262 0.0
C3086 C 0.6206 0.62939 0.46049 0.0
C3087 C 0.64544 0.64429 0.55185 0.0
H3088 H 0.61158 0.5582 0.51146 0.0
H3089 H 0.71946 0.58061 0.49738 0.0
H3090 H 0.57911 0.61341 0.53269 0.0
H3091 H 0.56709 0.60581 0.50172 0.0
H3092 H 0.56681 0.5843 0.52548 0.0
H3093 H 0.73728 0.61851 0.49801 0.0
H3094 H 0.70327 0.63493 0.48219 0.0
H3095 H 0.70895 0.63816 0.51483 0.0
H3096 H 0.60722 0.67442 0.46124 0.0
H3097 H 0.62817 0.6875 0.53805 0.0
H3098 H 0.60243 0.6148 0.46448 0.0
H3099 H 0.64776 0.62227 0.45649 0.0
H3100 H 0.61062 0.63824 0.44366 0.0
H3101 H 0.62608 0.63112 0.55825 0.0
H3102 H 0.64593 0.65844 0.56554 0.0
H3103 H 0.6725 0.63619 0.55133 0.0
C3104 C 0.1856 0.08077 0.50277 0.0
C3105 C 0.15944 0.0636 0.50493 0.0
C3106 C 0.17677 0.10412 0.50344 0.0
C3107 C 0.14069 0.11093 0.50777 0.0
C3108 C 0.11448 0.09378 0.51262 0.0
C3109 C 0.12408 0.07037 0.51105 0.0
C3110 C 0.20594 0.12146 0.49817 0.0
C3111 C 0.07593 0.10011 0.5184 0.0
C3112 C 0.12729 0.17507 0.52044 0.0
C3113 C 0.11722 0.18324 0.49701 0.0
C3114 C 0.13368 0.15153 0.52457 0.0
C3115 C 0.13036 0.1357 0.50476 0.0
C3116 C 0.12014 0.14395 0.48115 0.0
C3117 C 0.11388 0.16743 0.47758 0.0
C3118 C 0.14416 0.14362 0.55012 0.0
C3119 C 0.11651 0.12797 0.45936 0.0
H3120 H 0.21328 0.07608 0.50044 0.0
H3121 H 0.10354 0.05746 0.51381 0.0
H3122 H 0.19977 0.13045 0.48061 0.0
H3123 H 0.20688 0.13453 0.513 0.0
H3124 H 0.23307 0.11351 0.49651 0.0
H3125 H 0.06046 0.08539 0.52582 0.0
H3126 H 0.07496 0.11428 0.53203 0.0
H3127 H 0.06243 0.10616 0.50131 0.0
H3128 H 0.1297 0.18703 0.53566 0.0
H3129 H 0.10631 0.17345 0.45936 0.0
H3130 H 0.17238 0.13729 0.54996 0.0
H3131 H 0.12674 0.12919 0.55595 0.0
H3132 H 0.14202 0.15751 0.56405 0.0
H3133 H 0.14307 0.12008 0.45521 0.0
H3134 H 0.10667 0.13682 0.4425 0.0
H3135 H 0.09752 0.11394 0.46386 0.0
C3136 C 0.68945 0.16583 0.34906 0.0
C3137 C 0.66366 0.18328 0.34789 0.0
C3138 C 0.67989 0.14272 0.34822 0.0
C3139 C 0.64341 0.13662 0.34461 0.0
C3140 C 0.6174 0.15405 0.34077 0.0
C3141 C 0.62776 0.17719 0.34262 0.0
C3142 C 0.70875 0.12488 0.3525 0.0
C3143 C 0.57841 0.14829 0.33572 0.0
C3144 C 0.62876 0.07346 0.33049 0.0
C3145 C 0.61904 0.06501 0.35381 0.0
C3146 C 0.63514 0.09693 0.32685 0.0
C3147 C 0.63255 0.11218 0.34715 0.0
C3148 C 0.62269 0.10366 0.3707 0.0
C3149 C 0.61576 0.08028 0.37368 0.0
C3150 C 0.64483 0.10535 0.30134 0.0
C3151 C 0.62041 0.11916 0.39299 0.0
H3152 H 0.71732 0.17001 0.35062 0.0
H3153 H 0.60749 0.19041 0.3407 0.0
H3154 H 0.70257 0.11519 0.36961 0.0
H3155 H 0.70926 0.11246 0.33703 0.0
H3156 H 0.73608 0.13247 0.35442 0.0
H3157 H 0.56298 0.16335 0.32907 0.0
H3158 H 0.57641 0.13446 0.32175 0.0
H3159 H 0.56558 0.142 0.35294 0.0
H3160 H 0.63082 0.06179 0.31498 0.0
H3161 H 0.6082 0.07389 0.39176 0.0
H3162 H 0.67328 0.11121 0.3011 0.0
H3163 H 0.62772 0.1202 0.29629 0.0
H3164 H 0.64156 0.09187 0.28705 0.0
H3165 H 0.64727 0.12684 0.39667 0.0
H3166 H 0.61141 0.10998 0.40986 0.0
H3167 H 0.60135 0.13338 0.38935 0.0
C3168 C 0.18785 0.66617 0.34422 0.0
C3169 C 0.16055 0.68266 0.34623 0.0
C3170 C 0.18013 0.64268 0.34313 0.0
C3171 C 0.14381 0.63522 0.3428 0.0
C3172 C 0.1159 0.65186 0.34212 0.0
C3173 C 0.12456 0.67534 0.34384 0.0
C3174 C 0.211 0.62583 0.34376 0.0
C3175 C 0.07678 0.64484 0.34078 0.0
C3176 C 0.12755 0.57162 0.32887 0.0
C3177 C 0.1228 0.56266 0.35271 0.0
C3178 C 0.13349 0.59525 0.32518 0.0
C3179 C 0.1354 0.61022 0.34583 0.0
C3180 C 0.13113 0.60107 0.3699 0.0
C3181 C 0.12481 0.57758 0.373 0.0
C3182 C 0.13728 0.60423 0.29918 0.0
C3183 C 0.1334 0.61613 0.39253 0.0
H3184 H 0.21551 0.67156 0.34354 0.0
H3185 H 0.10301 0.68783 0.34418 0.0
H3186 H 0.21046 0.61638 0.36153 0.0
H3187 H 0.2082 0.61309 0.32872 0.0
H3188 H 0.23768 0.63432 0.34196 0.0
H3189 H 0.0588 0.65953 0.33659 0.0
H3190 H 0.07288 0.6315 0.32644 0.0
H3191 H 0.06844 0.6374 0.35874 0.0
H3192 H 0.12555 0.56029 0.31307 0.0
H3193 H 0.12125 0.57082 0.3915 0.0
H3194 H 0.16451 0.6117 0.29659 0.0
H3195 H 0.11738 0.61807 0.29592 0.0
H3196 H 0.13322 0.59068 0.28506 0.0
H3197 H 0.16028 0.62445 0.39335 0.0
H3198 H 0.12913 0.60645 0.40994 0.0
H3199 H 0.11285 0.62988 0.39145 0.0
C3200 C 0.20686 0.97247 0.26033 0.0
C3201 C 0.2315 0.98217 0.24394 0.0
C3202 C 0.20285 0.98176 0.28394 0.0
C3203 C 0.22533 0.0002 0.29065 0.0
C3204 C 0.24348 0.01299 0.27233 0.0
C3205 C 0.24649 0.00362 0.24877 0.0
C3206 C 0.18014 0.96944 0.30291 0.0
C3207 C 0.26692 0.03321 0.27896 0.0
C3208 C 0.25369 0.01545 0.35492 0.0
C3209 C 0.28477 0.00186 0.35718 0.0
C3210 C 0.23207 0.01398 0.33394 0.0
C3211 C 0.24282 -0.00081 0.31482 0.0
C3212 C 0.27349 0.98474 0.31763 0.0
C3213 C 0.29427 0.98644 0.33887 0.0
C3214 C 0.19834 0.02838 0.33221 0.0
C3215 C 0.28476 0.96753 0.29832 0.0
H3216 H 0.19436 0.95627 0.25578 0.0
H3217 H 0.26503 0.01123 0.2356 0.0
H3218 H 0.19586 0.96565 0.31987 0.0
H3219 H 0.15726 0.9806 0.30838 0.0
H3220 H 0.16915 0.9531 0.29569 0.0
H3221 H 0.27277 0.04395 0.26252 0.0
H3222 H 0.25392 0.0439 0.29335 0.0
H3223 H 0.29304 0.02697 0.28647 0.0
H3224 H 0.24617 0.02704 0.36971 0.0
H3225 H 0.31753 0.97542 0.34144 0.0
H3226 H 0.17652 0.01921 0.32227 0.0
H3227 H 0.2044 0.04422 0.32182 0.0
H3228 H 0.18831 0.03333 0.35082 0.0
H3229 H 0.2621 0.95572 0.29443 0.0
H3230 H 0.30826 0.95707 0.30425 0.0
H3231 H 0.29227 0.97643 0.281 0.0
C3232 C 0.02548 0.21463 0.34802 0.0
C3233 C 0.99433 0.2274 0.35276 0.0
C3234 C 0.04527 0.21826 0.32646 0.0
C3235 C 0.03357 0.2353 0.30991 0.0
C3236 C 1.00212 0.24843 0.31491 0.0
C3237 C 0.98256 0.24406 0.33632 0.0
C3238 C 0.07879 0.20429 0.32173 0.0
C3239 C 0.98926 0.26724 0.29787 0.0
C3240 C 0.0798 0.26975 0.26289 0.0
C3241 C 0.05869 0.26319 0.24262 0.0
C3242 C 0.07675 0.25804 0.2853 0.0
C3243 C 0.05275 0.23935 0.28668 0.0
C3244 C 0.03768 0.2299 0.26504 0.0
C3245 C 0.04053 0.24214 0.24311 0.0
C3246 C 0.09457 0.26769 0.30817 0.0
C3247 C 1.01253 0.2096 0.26596 0.0
H3248 H 0.03443 0.20199 0.36132 0.0
H3249 H 0.95876 0.25411 0.34067 0.0
H3250 H 0.07929 0.19792 0.30241 0.0
H3251 H 0.10291 0.21521 0.32436 0.0
H3252 H 0.08088 0.18949 0.3345 0.0
H3253 H 0.96552 0.27653 0.30542 0.0
H3254 H 1.01119 0.27979 0.29472 0.0
H3255 H 0.98162 0.25994 0.27968 0.0
H3256 H 0.09532 0.28542 0.26204 0.0
H3257 H 0.02446 0.23664 0.22746 0.0
H3258 H 0.11395 0.25503 0.31569 0.0
H3259 H 0.07428 0.27117 0.32279 0.0
H3260 H 0.10914 0.28385 0.30432 0.0
H3261 H 0.02189 0.19681 0.27966 0.0
H3262 H 1.01011 0.20125 0.24758 0.0
H3263 H 0.98523 0.21543 0.27163 0.0
C3264 C 0.28785 0.26209 1.01109 0.0
C3265 C 0.27671 0.2466 0.99333 0.0
C3266 C 0.26804 0.26468 1.03264 0.0
C3267 C 0.23648 0.25119 1.03617 0.0
C3268 C 0.22444 0.2361 1.01763 0.0
C3269 C 0.24494 0.23395 0.99624 0.0
C3270 C 0.28171 0.28147 0.0517 0.0
C3271 C 0.19105 0.22158 1.02024 0.0
C3272 C 0.23786 0.24796 0.10263 0.0
C3273 C 0.22559 0.27022 0.10692 0.0
C3274 C 0.23458 0.23847 0.07913 0.0
C3275 C 0.21896 0.25195 0.06032 0.0
C3276 C 0.19916 0.2718 0.06623 0.0
C3277 C 0.20319 0.28108 0.08984 0.0
C3278 C 0.25495 0.21677 0.07323 0.0
C3279 C 0.18025 0.2854 1.04637 0.0
H3280 H 0.3121 0.27209 1.00807 0.0
H3281 H 0.23651 0.22206 0.98195 0.0
H3282 H 0.26109 0.29483 0.05509 0.0
H3283 H 0.28727 0.27254 0.06936 0.0
H3284 H 0.30692 0.29017 1.0458 0.0
H3285 H 0.17371 0.2237 1.00363 0.0
H3286 H 0.19904 0.20332 1.02097 0.0
H3287 H 0.17502 0.22564 1.03697 0.0
H3288 H 0.25466 0.23951 0.11629 0.0
H3289 H 0.19285 0.29801 0.09385 0.0
H3290 H 0.28129 0.22115 0.06464 0.0
H3291 H 0.23964 0.20618 0.05984 0.0
H3292 H 0.26035 0.20652 0.0901 0.0
H3293 H 0.19946 0.29036 1.03159 0.0
H3294 H 0.1679 0.30129 0.05373 0.0
H3295 H 0.1591 0.27464 1.03766 0.0
C3296 C 0.0784 0.98665 0.08977 0.0
C3297 C 0.05171 0.99118 0.10735 0.0
C3298 C 0.07797 0.99792 0.06701 0.0
C3299 C 0.04932 0.01319 0.06222 0.0
C3300 C 0.0279 0.02157 0.08186 0.0
C3301 C 0.02936 0.01032 0.10452 0.0
C3302 C 0.10402 0.99063 1.04693 0.0
C3303 C 0.99757 0.03833 0.07745 0.0
C3304 C 0.01589 0.02854 0.99875 0.0
C3305 C 0.99076 0.01098 0.99491 0.0
C3306 C 0.03691 0.029 1.02017 0.0
C3307 C 0.03176 0.0118 1.03801 0.0
C3308 C 1.00739 0.99351 1.03362 0.0
C3309 C 0.98699 0.99349 1.0121 0.0
C3310 C 0.06477 0.04751 1.02359 0.0
C3311 C 1.00289 0.97375 0.05138 0.0
H3312 H 0.09639 0.97238 0.09265 0.0
H3313 H 1.0091 0.01428 0.11834 0.0
H3314 H 0.09141 0.99043 1.02834 0.0
H3315 H 0.12661 0.00304 1.04621 0.0
H3316 H 0.11546 0.97344 0.05055 0.0
H3317 H 0.98956 0.04709 0.09484 0.0
H3318 H 1.00525 0.05132 0.06354 0.0
H3319 H 0.97367 0.02896 0.07032 0.0
H3320 H 0.01935 0.04169 0.98485 0.0
H3321 H 0.96879 0.9794 1.00834 0.0
H3322 H 0.09095 0.03992 1.02931 0.0
H3323 H 0.0561 0.05928 1.03852 0.0
H3324 H 0.06896 0.05758 1.00644 0.0
H3325 H 0.02908 0.96489 0.05398 0.0
H3326 H 0.98304 0.96094 1.04469 0.0
H3327 H 0.9936 0.98003 0.06964 0.0
C3328 C 0.76128 0.03355 0.84724 0.0
C3329 C 0.79076 0.01934 0.85229 0.0
C3330 C 0.74098 0.03054 0.8258 0.0
C3331 C 0.75054 0.01278 0.80947 0.0
C3332 C 0.78033 0.99824 0.81468 0.0
C3333 C 0.80038 0.00189 0.83611 0.0
C3334 C 0.70897 0.04589 0.82109 0.0
C3335 C 0.79083 0.97866 0.79785 0.0
C3336 C 0.70204 0.98058 0.76162 0.0
C3337 C 0.72382 0.98674 0.7416 0.0
C3338 C 0.70566 0.99201 0.78415 0.0
C3339 C 0.73137 0.00973 0.78603 0.0
C3340 C 0.7475 0.01892 0.76463 0.0
C3341 C 0.74365 0.00714 0.74244 0.0
C3342 C 0.68704 0.98265 0.80674 0.0
C3343 C 0.7745 0.03821 0.76606 0.0
H3344 H 0.75373 0.04668 0.86042 0.0
H3345 H 0.82264 0.99062 0.84074 0.0
H3346 H 0.70798 0.0514 0.80149 0.0
H3347 H 0.68375 0.03637 0.82501 0.0
H3348 H 0.70945 0.0613 0.83309 0.0
H3349 H 0.76764 0.96691 0.79531 0.0
H3350 H 0.79844 0.98529 0.77937 0.0
H3351 H 0.81389 0.96863 0.80523 0.0
H3352 H 0.68557 0.96532 0.7605 0.0
H3353 H 0.76018 0.01223 0.72685 0.0
H3354 H 0.67429 0.99674 0.81731 0.0
H3355 H 0.70711 0.97435 0.81904 0.0
H3356 H 0.66621 0.96981 0.80191 0.0
H3357 H 0.76587 0.05131 0.77965 0.0
H3358 H 0.77842 0.04648 0.74778 0.0
H3359 H 0.80096 0.03132 0.77223 0.0
C3360 C 1.01327 0.75583 0.85504 0.0
C3361 C 0.97813 0.74743 0.85828 0.0
C3362 C 0.02326 0.76647 0.83322 0.0
C3363 C 0.99758 0.76824 0.81409 0.0
C3364 C 0.961 0.76263 0.81832 0.0
C3365 C 0.95158 0.75196 0.84054 0.0
C3366 C 0.06265 0.77228 0.82935 0.0
C3367 C 0.93271 0.76537 0.79852 0.0
C3368 C 0.03936 0.78995 0.75553 0.0
C3369 C 0.05146 0.76937 0.74543 0.0
C3370 C 0.0192 0.78996 0.77735 0.0
C3371 C 1.01147 0.7689 0.78883 0.0
C3372 C 0.02223 0.74801 0.77787 0.0
C3373 C 0.04249 0.74855 0.75627 0.0
C3374 C 1.00664 0.81234 0.78821 0.0
C3375 C 1.01295 0.7251 0.78913 0.0
H3376 H 0.03412 0.75221 0.86854 0.0
H3377 H 0.92419 0.74599 0.84337 0.0
H3378 H 0.07564 0.75859 0.81825 0.0
H3379 H 0.0656 0.78853 0.81907 0.0
H3380 H 0.07745 0.77377 0.84714 0.0
H3381 H 0.90784 0.77266 0.80665 0.0
H3382 H 0.94155 0.77668 0.78323 0.0
H3383 H 0.92587 0.74837 0.79075 0.0
H3384 H 0.04498 0.80587 0.74606 0.0
H3385 H 0.0505 0.73272 0.74737 0.0
H3386 H 0.02481 0.81727 0.80361 0.0
H3387 H 0.97895 0.81077 0.79585 0.0
H3388 H 1.00695 0.82625 0.77426 0.0
H3389 H 0.02628 0.72334 0.80741 0.0
H3390 H 0.02155 0.71058 0.77728 0.0
H3391 H 0.98339 0.72379 0.79211 0.0
C3392 C 0.78496 0.75733 1.01511 0.0
C3393 C 0.77337 0.74139 0.99782 0.0
C3394 C 0.76395 0.76212 1.03574 0.0
C3395 C 0.73059 0.75049 1.03896 0.0
C3396 C 0.71774 0.73536 1.0207 0.0
C3397 C 0.73971 0.73067 1.0004 0.0
C3398 C 0.77811 0.7793 0.05423 0.0
C3399 C 0.68161 0.72362 1.02261 0.0
C3400 C 0.7299 0.74756 0.10576 0.0
C3401 C 0.71877 0.77009 0.10992 0.0
C3402 C 0.7268 0.73819 0.08216 0.0
C3403 C 0.71281 0.75212 0.0631 0.0
C3404 C 0.69427 0.7725 0.06893 0.0
C3405 C 0.69721 0.7813 0.09272 0.0
C3406 C 0.74577 0.71592 0.07662 0.0
C3407 C 0.67711 0.78686 1.04923 0.0
H3408 H 0.81037 0.76617 1.01235 0.0
H3409 H 0.73059 0.71858 0.98654 0.0
H3410 H 0.78202 0.77104 0.07248 0.0
H3411 H 0.8043 0.78686 1.04848 0.0
H3412 H 0.75845 0.79343 0.05648 0.0
H3413 H 0.66884 0.72219 1.00408 0.0
H3414 H 0.68561 0.70603 1.0297 0.0
H3415 H 0.66279 0.73273 1.03511 0.0
H3416 H 0.74595 0.73875 0.11957 0.0
H3417 H 0.68751 0.79839 0.09672 0.0
H3418 H 0.77266 0.71952 0.06841 0.0
H3419 H 0.73015 0.70573 0.06305 0.0
H3420 H 0.74988 0.70557 0.0936 0.0
H3421 H 0.69736 0.79226 1.0353 0.0
H3422 H 0.66363 0.8023 0.05684 0.0
H3423 H 0.65697 0.77616 1.03985 0.0
C3424 C 0.24437 0.53073 0.85027 0.0
C3425 C 0.2786 0.52092 0.85349 0.0
C3426 C 0.2233 0.52519 0.82971 0.0
C3427 C 0.23719 0.50962 0.81224 0.0
C3428 C 0.27165 0.4994 0.81573 0.0
C3429 C 0.29206 0.50541 0.83631 0.0
C3430 C 0.1862 0.53558 0.82695 0.0
C3431 C 0.28695 0.48184 0.79804 0.0
C3432 C 0.20103 0.47178 0.76481 0.0
C3433 C 0.2201 0.48111 0.74497 0.0
C3434 C 0.19952 0.48355 0.78726 0.0
C3435 C 0.21766 0.50468 0.78924 0.0
C3436 C 0.22939 0.5162 0.76778 0.0
C3437 C 0.23054 0.50411 0.74559 0.0
C3438 C 0.1844 0.47174 0.80971 0.0
C3439 C 0.24827 0.53902 0.76924 0.0
H3440 H 0.23393 0.54241 0.86411 0.0
H3441 H 0.318 0.49731 0.8395 0.0
H3442 H 0.18355 0.54405 0.8087 0.0
H3443 H 0.16547 0.52196 0.82774 0.0
H3444 H 0.18025 0.54824 0.8417 0.0
H3445 H 0.26838 0.46705 0.79661 0.0
H3446 H 0.28997 0.48933 0.77934 0.0
H3447 H 0.31376 0.47536 0.80402 0.0
H3448 H 0.19158 0.45429 0.76375 0.0
H3449 H 0.24469 0.51155 0.73 0.0
H3450 H 0.16397 0.48297 0.81843 0.0
H3451 H 0.206 0.46863 0.82352 0.0
H3452 H 0.17166 0.45511 0.80508 0.0
H3453 H 0.23549 0.55024 0.78325 0.0
H3454 H 0.24818 0.54786 0.75107 0.0
H3455 H 0.27682 0.53629 0.77479 0.0
C3456 C 0.25031 0.71863 0.50118 0.0
C3457 C 0.28307 0.73031 0.49813 0.0
C3458 C 0.22893 0.72236 0.52207 0.0
C3459 C 0.24094 0.73808 0.54003 0.0
C3460 C 0.27451 0.74952 0.53719 0.0
C3461 C 0.29523 0.74536 0.51624 0.0
C3462 C 0.1932 0.71014 0.52434 0.0
C3463 C 0.28847 0.76657 0.55596 0.0
C3464 C 0.19858 0.77459 0.58638 0.0
C3465 C 0.21719 0.766 0.60686 0.0
C3466 C 0.19955 0.76276 0.56394 0.0
C3467 C 0.21993 0.74239 0.56255 0.0
C3468 C 0.23148 0.73136 0.58434 0.0
C3469 C 0.23011 0.74347 0.6065 0.0
C3470 C 0.18505 0.77417 0.54101 0.0
C3471 C 0.25233 0.7092 0.58349 0.0
H3472 H 0.24101 0.70704 0.48689 0.0
H3473 H 0.32019 0.75468 0.51346 0.0
H3474 H 0.18802 0.7047 0.54366 0.0
H3475 H 0.17114 0.72192 0.51887 0.0
H3476 H 0.19191 0.69493 0.51209 0.0
H3477 H 0.31459 0.77429 0.55033 0.0
H3478 H 0.26865 0.78057 0.55853 0.0
H3479 H 0.29245 0.7581 0.57409 0.0
H3480 H 0.18727 0.79167 0.58707 0.0
H3481 H 0.24397 0.73652 0.62248 0.0
H3482 H 0.17229 0.76142 0.52864 0.0
H3483 H 0.20761 0.78225 0.53074 0.0
H3484 H 0.16496 0.78762 0.54559 0.0
H3485 H 0.24139 0.6976 0.56911 0.0
H3486 H 0.25179 0.70035 0.60164 0.0
H3487 H 0.28094 0.71286 0.5788 0.0
C3488 C 0.99333 0.49275 0.50904 0.0
C3489 C 1.00449 0.51079 0.49428 0.0
C3490 C 1.01288 0.48699 0.52999 0.0
C3491 C 0.044 0.50001 0.53616 0.0
C3492 C 0.0573 0.51675 0.51986 0.0
C3493 C 0.0371 0.52208 0.49896 0.0
C3494 C 0.99784 0.4685 0.54654 0.0
C3495 C 0.0911 0.53024 0.52507 0.0
C3496 C 0.02853 0.50254 0.60184 0.0
C3497 C 0.04235 0.48098 0.6074 0.0
C3498 C 0.03577 0.51223 0.5789 0.0
C3499 C 0.05634 0.49939 0.56177 0.0
C3500 C 0.07642 0.48024 0.56956 0.0
C3501 C 0.06886 0.47097 0.5927 0.0
C3502 C 0.01491 0.53326 0.57121 0.0
C3503 C 0.09924 0.46683 0.55165 0.0
H3504 H 0.96892 0.48345 0.50439 0.0
H3505 H 0.04621 0.53553 0.48667 0.0
H3506 H 0.01933 0.45674 0.55287 0.0
H3507 H 0.98525 0.47654 0.563 0.0
H3508 H 0.97687 0.45812 0.53708 0.0
H3509 H 0.10756 0.53162 0.50797 0.0
H3510 H 0.08359 0.54787 0.53061 0.0
H3511 H 0.10777 0.52256 0.53993 0.0
H3512 H 1.00849 0.51027 0.61387 0.0
H3513 H 0.07999 0.45451 0.59785 0.0
H3514 H 0.99106 0.52808 0.56009 0.0
H3515 H 0.03187 0.54455 0.55957 0.0
H3516 H 1.00514 0.54311 0.58744 0.0
H3517 H 0.08167 0.45795 0.5381 0.0
H3518 H 0.1156 0.45367 0.56126 0.0
H3519 H 0.11701 0.47855 0.54108 0.0
C3520 C 0.74822 0.45822 0.25203 0.0
C3521 C 0.74135 0.48131 0.24742 0.0
C3522 C 0.76737 0.45174 0.27315 0.0
C3523 C 0.77957 0.46889 0.28948 0.0
C3524 C 0.77541 0.49235 0.28345 0.0
C3525 C 0.75576 0.49821 0.26256 0.0
C3526 C 0.7732 0.42671 0.27827 0.0
C3527 C 0.79026 0.51139 0.29942 0.0
C3528 C 0.77354 0.47548 0.35548 0.0
C3529 C 0.80904 0.483 0.35941 0.0
C3530 C 0.764 0.46543 0.33313 0.0
C3531 C 0.79074 0.4632 0.31471 0.0
C3532 C 0.82753 0.46543 0.32088 0.0
C3533 C 0.83648 0.47595 0.3433 0.0
C3534 C 0.72439 0.46227 0.32745 0.0
C3535 C 0.85679 0.46044 0.30229 0.0
H3536 H 0.73822 0.44535 0.23935 0.0
H3537 H 0.7518 0.51606 0.25787 0.0
H3538 H 0.79729 0.42369 0.29003 0.0
H3539 H 0.74923 0.4198 0.288 0.0
H3540 H 0.77637 0.41702 0.26074 0.0
H3541 H 0.78675 0.52847 0.29079 0.0
H3542 H 0.77628 0.5116 0.31754 0.0
H3543 H 0.8195 0.50878 0.30279 0.0
H3544 H 0.7521 0.48038 0.36806 0.0
H3545 H 0.86416 0.48074 0.34702 0.0
H3546 H 0.72012 0.44748 0.315 0.0
H3547 H 0.71397 0.47778 0.31802 0.0
H3548 H 0.70835 0.45971 0.34458 0.0
H3549 H 0.84635 0.45243 0.28513 0.0
H3550 H 0.87673 0.44859 0.31057 0.0
H3551 H 0.87093 0.47645 0.29729 0.0
C3552 C 0.77913 0.2639 0.51251 0.0
C3553 C 0.77055 0.24695 0.49572 0.0
C3554 C 0.75771 0.26708 0.53323 0.0
C3555 C 0.72731 0.25252 0.53697 0.0
C3556 C 0.71725 0.23644 0.51883 0.0
C3557 C 0.73917 0.23389 0.49819 0.0
C3558 C 0.76945 0.28506 0.55161 0.0
C3559 C 0.685 0.22094 0.5213 0.0
C3560 C 0.73488 0.24774 0.60268 0.0
C3561 C 0.72372 0.27012 0.60763 0.0
C3562 C 0.72886 0.23841 0.57935 0.0
C3563 C 0.71096 0.25198 0.56154 0.0
C3564 C 0.69155 0.2715 0.56887 0.0
C3565 C 0.69999 0.28124 0.59169 0.0
C3566 C 0.74864 0.2168 0.57225 0.0
C3567 C 0.66764 0.28415 0.55091 0.0
H3568 H 0.80304 0.27426 0.50964 0.0
H3569 H 0.73257 0.22104 0.48445 0.0
H3570 H 0.74746 0.29759 0.55462 0.0
H3571 H 0.77635 0.27688 0.56945 0.0
H3572 H 0.79354 0.29473 0.54531 0.0
H3573 H 0.66726 0.22308 0.50491 0.0
H3574 H 0.69415 0.20287 0.52125 0.0
H3575 H 0.66912 0.22409 0.53832 0.0
H3576 H 0.75285 0.23905 0.61543 0.0
H3577 H 0.6906 0.29829 0.59616 0.0
H3578 H 0.77352 0.22126 0.56185 0.0
H3579 H 0.73161 0.20599 0.56012 0.0
H3580 H 0.75665 0.20669 0.58873 0.0
H3581 H 0.6828 0.28887 0.53398 0.0
H3582 H 0.65604 0.29991 0.55914 0.0
H3583 H 0.64524 0.27278 0.54516 0.0
C3584 C 0.49808 0.25994 0.83632 0.0
C3585 C 0.50839 0.24371 0.85355 0.0
C3586 C 0.51866 0.26329 0.81525 0.0
C3587 C 0.55016 0.24976 0.81153 0.0
C3588 C 0.562 0.23442 0.82989 0.0
C3589 C 0.54057 0.23139 0.85079 0.0
C3590 C 0.5056 0.2808 0.79679 0.0
C3591 C 0.59616 0.22058 0.82732 0.0
C3592 C 0.54398 0.24642 0.74544 0.0
C3593 C 0.55635 0.26863 0.74096 0.0
C3594 C 0.54909 0.23665 0.76866 0.0
C3595 C 0.5667 0.24979 0.78697 0.0
C3596 C 0.58704 0.26917 0.78027 0.0
C3597 C 0.58132 0.27868 0.75696 0.0
C3598 C 0.52795 0.21543 0.77516 0.0
C3599 C 0.60723 0.2828 0.79941 0.0
H3600 H 0.47379 0.26993 0.83937 0.0
H3601 H 0.54861 0.21912 0.86477 0.0
H3602 H 0.52691 0.29369 0.79352 0.0
H3603 H 0.499 0.27238 0.779 0.0
H3604 H 0.48109 0.29001 0.80319 0.0
H3605 H 0.60875 0.21763 0.84569 0.0
H3606 H 0.58952 0.20364 0.81936 0.0
H3607 H 0.61614 0.22901 0.81511 0.0
H3608 H 0.52536 0.2384 0.73261 0.0
H3609 H 0.59188 0.2955 0.7528 0.0
H3610 H 0.50199 0.22046 0.78392 0.0
H3611 H 0.54302 0.20473 0.78853 0.0
H3612 H 0.52168 0.20507 0.7585 0.0
H3613 H 0.58787 0.29288 0.81064 0.0
H3614 H 0.62629 0.29497 0.79064 0.0
H3615 H 0.62191 0.27124 0.81218 0.0
C3616 C 0.54617 -0.00104 0.59156 0.0
C3617 C 0.53707 0.98157 0.60777 0.0
C3618 C 0.52638 0.00212 0.5701 0.0
C3619 C 0.49716 0.98712 0.56489 0.0
C3620 C 0.4866 0.97031 0.58199 0.0
C3621 C 0.50702 0.96761 0.6034 0.0
C3622 C 0.538 0.02094 0.55273 0.0
C3623 C 0.45484 0.95475 0.57741 0.0
C3624 C 0.46229 0.01612 0.51116 0.0
C3625 C 0.48878 0.00834 0.49494 0.0
C3626 C 0.4583 0.00555 0.53408 0.0
C3627 C 0.48191 0.98743 0.54004 0.0
C3628 C 0.50258 0.97653 0.52148 0.0
C3629 C 0.50604 0.98744 0.49877 0.0
C3630 C 0.4358 0.01708 0.55369 0.0
C3631 C 0.52783 0.95699 0.52738 0.0
H3632 H 0.5685 0.01027 0.59589 0.0
H3633 H 0.49959 0.95464 0.61678 0.0
H3634 H 0.5493 0.01331 0.53564 0.0
H3635 H 0.51473 0.03186 0.54767 0.0
H3636 H 0.559 0.03216 0.56096 0.0
H3637 H 0.44421 0.94761 0.59497 0.0
H3638 H 0.43277 0.96381 0.56763 0.0
H3639 H 0.46349 0.94026 0.5656 0.0
H3640 H 0.44847 0.03207 0.50736 0.0
H3641 H 0.52607 0.98145 0.48562 0.0
H3642 H 0.45362 0.02629 0.56683 0.0
H3643 H 0.42043 0.00421 0.56441 0.0
H3644 H 0.41692 0.02975 0.54567 0.0
H3645 H 0.55251 0.9638 0.53643 0.0
H3646 H 0.53623 0.94771 0.51041 0.0
H3647 H 0.51508 0.94475 0.54032 0.0
C3648 C 0.53804 0.73881 0.2516 0.0
C3649 C 0.54958 0.76014 0.24338 0.0
C3650 C 0.54795 0.73144 0.2751 0.0
C3651 C 0.56812 0.74657 0.29019 0.0
C3652 C 0.58608 0.76538 0.27949 0.0
C3653 C 0.57657 0.77199 0.25572 0.0
C3654 C 0.52995 0.71037 0.28549 0.0
C3655 C 0.60837 0.78144 0.29465 0.0
C3656 C 0.50321 0.75489 0.34103 0.0
C3657 C 0.51429 0.73748 0.35655 0.0
C3658 C 0.52418 0.7608 0.32081 0.0
C3659 C 0.55645 0.74832 0.316 0.0
C3660 C 0.56986 0.73276 0.33364 0.0
C3661 C 0.54832 0.72739 0.35387 0.0
C3662 C 0.50837 0.77792 0.30305 0.0
C3663 C 0.60492 0.7201 0.33035 0.0
H3664 H 0.51769 0.72953 0.24124 0.0
H3665 H 0.58596 0.7882 0.24847 0.0
H3666 H 0.54911 0.70056 0.2971 0.0
H3667 H 0.50677 0.71547 0.2973 0.0
H3668 H 0.51964 0.69901 0.27062 0.0
H3669 H 0.62679 0.79173 0.28291 0.0
H3670 H 0.59069 0.79329 0.30511 0.0
H3671 H 0.624 0.77146 0.308 0.0
H3672 H 0.47748 0.76327 0.34425 0.0
H3673 H 0.5573 0.71456 0.36696 0.0
H3674 H 0.49405 0.76842 0.28827 0.0
H3675 H 0.52932 0.78888 0.29468 0.0
H3676 H 0.48842 0.7893 0.31223 0.0
H3677 H 0.59929 0.70198 0.32576 0.0
H3678 H 0.62019 0.72019 0.34803 0.0
H3679 H 0.62192 0.72756 0.31563 0.0
C3680 C 0.53963 0.5034 0.09062 0.0
C3681 C 0.55108 0.48483 0.10455 0.0
C3682 C 0.51949 0.49997 0.06928 0.0
C3683 C 0.51099 0.47727 0.06197 0.0
C3684 C 0.52078 0.45855 0.07691 0.0
C3685 C 0.54117 0.46258 0.09815 0.0
C3686 C 0.50808 0.52068 0.05445 0.0
C3687 C 0.51041 0.43434 0.07051 0.0
C3688 C 0.45223 0.49084 1.01049 0.0
C3689 C 0.47961 0.49605 0.99363 0.0
C3690 C 0.46065 0.47902 1.03221 0.0
C3691 C 0.49713 0.47369 1.03695 0.0
C3692 C 0.52281 0.4745 1.01776 0.0
C3693 C 0.51379 0.486 0.99621 0.0
C3694 C 0.43196 0.47571 0.05158 0.0
C3695 C 0.56176 0.46785 1.02182 0.0
H3696 H 0.54598 0.52059 0.09674 0.0
H3697 H 0.54865 0.44847 0.11008 0.0
H3698 H 0.52085 0.52026 1.03592 0.0
H3699 H 0.47838 0.52075 0.05189 0.0
H3700 H 0.51579 0.53697 0.06357 0.0
H3701 H 0.50545 0.42424 0.08755 0.0
H3702 H 0.48596 0.43357 0.05869 0.0
H3703 H 0.53302 0.4261 0.06044 0.0
H3704 H 0.42536 0.49761 1.00769 0.0
H3705 H 0.53501 0.48955 0.98296 0.0
H3706 H 0.42384 0.49255 0.05923 0.0
H3707 H 0.4412 0.46466 0.06698 0.0
H3708 H 0.40786 0.46771 1.04308 0.0
H3709 H 0.57594 0.48193 1.03158 0.0
H3710 H 0.57583 0.46475 1.004 0.0
H3711 H 0.56381 0.45229 1.03336 0.0
C3712 C 0.38693 0.98593 0.9767 0.0
C3713 C 0.42024 0.97622 0.98303 0.0
C3714 C 0.37184 0.98194 0.9535 0.0
C3715 C 0.39097 0.96821 0.93638 0.0
C3716 C 0.42203 0.95607 0.9438 0.0
C3717 C 0.43617 0.96005 0.96733 0.0
C3718 C 0.33805 0.99485 0.94635 0.0
C3719 C 0.44294 0.94117 0.92609 0.0
C3720 C 0.3409 0.96361 0.87651 0.0
C3721 C 0.35257 0.98368 0.86511 0.0
C3722 C 0.35614 0.95671 0.89894 0.0
C3723 C 0.38265 0.97068 0.91001 0.0
C3724 C 0.39703 0.98967 0.89717 0.0
C3725 C 0.38169 0.99595 0.87468 0.0
C3726 C 0.342 0.93564 0.91169 0.0
C3727 C 0.42618 0.00461 0.90817 0.0
H3728 H 0.37434 0.9984 0.98878 0.0
H3729 H 0.46139 0.95199 0.97259 0.0
H3730 H 0.34558 0.01006 0.93525 0.0
H3731 H 0.32009 0.98408 0.93488 0.0
H3732 H 0.32274 0.00077 0.96283 0.0
H3733 H 0.45858 0.92792 0.93615 0.0
H3734 H 0.42507 0.93268 0.91247 0.0
H3735 H 0.46224 0.95193 0.91561 0.0
H3736 H 0.31882 0.95401 0.86846 0.0
H3737 H 0.39064 0.01141 0.86549 0.0
H3738 H 0.32314 0.94072 0.92665 0.0
H3739 H 0.3642 0.92588 0.92046 0.0
H3740 H 0.32764 0.92423 0.89859 0.0
H3741 H 0.41459 0.01499 0.92342 0.0
H3742 H 0.43798 0.01642 0.89429 0.0
H3743 H 0.44819 0.99404 0.91606 0.0
C3744 C 0.88001 0.2572 0.97252 0.0
C3745 C 0.85031 0.26977 0.98089 0.0
C3746 C 0.89461 0.26128 0.94924 0.0
C3747 C 0.87933 0.27862 0.93428 0.0
C3748 C 0.85148 0.29272 0.94352 0.0
C3749 C 0.83692 0.28795 0.96681 0.0
C3750 C 0.92386 0.24546 0.93976 0.0
C3751 C 0.83527 0.31164 0.92821 0.0
C3752 C 0.93817 0.28131 0.87884 0.0
C3753 C 0.92249 0.26377 0.86493 0.0
C3754 C 0.92106 0.28933 0.9002 0.0
C3755 C 0.88865 0.27881 0.90788 0.0
C3756 C 0.87074 0.26312 0.89221 0.0
C3757 C 0.88781 0.25598 0.87064 0.0
C3758 C 0.93986 0.30684 0.91607 0.0
C3759 C 0.83638 0.25123 0.89991 0.0
H3760 H 0.89012 0.24302 0.9834 0.0
H3761 H 0.81416 0.29779 0.97358 0.0
H3762 H 0.91281 0.23448 0.92484 0.0
H3763 H 0.94652 0.25538 0.9318 0.0
H3764 H 0.93471 0.23417 0.95449 0.0
H3765 H 0.8209 0.32429 0.93996 0.0
H3766 H 0.85628 0.3206 0.91731 0.0
H3767 H 0.81558 0.3043 0.91497 0.0
H3768 H 0.96473 0.28763 0.87394 0.0
H3769 H 0.87568 0.24246 0.85971 0.0
H3770 H 0.95532 0.29803 0.93082 0.0
H3771 H 0.92008 0.3183 0.92519 0.0
H3772 H 0.9589 0.31731 0.90501 0.0
H3773 H 0.84241 0.23866 0.91469 0.0
H3774 H 0.82337 0.24206 0.88428 0.0
H3775 H 0.81701 0.26374 0.90747 0.0
C3776 C 0.43604 0.2905 0.38261 0.0
C3777 C 0.42151 0.27482 0.3658 0.0
C3778 C 0.41975 0.29384 0.40564 0.0
C3779 C 0.38862 0.28106 0.4116 0.0
C3780 C 0.37146 0.26742 0.39347 0.0
C3781 C 0.3881 0.26461 0.37059 0.0
C3782 C 0.43843 0.30861 0.42459 0.0
C3783 C 0.33864 0.25309 0.3994 0.0
C3784 C 0.37997 0.25092 0.47217 0.0
C3785 C 0.34961 0.26182 0.48195 0.0
C3786 C 0.3947 0.25817 0.44982 0.0
C3787 C 0.37914 0.27718 0.43762 0.0
C3788 C 0.3506 0.28952 0.44865 0.0
C3789 C 0.33568 0.28143 0.47071 0.0
C3790 C 0.42411 0.24391 0.43801 0.0
C3791 C 0.33395 0.31 0.43617 0.0
H3792 H 0.4616 0.29865 0.37853 0.0
H3793 H 0.37692 0.25241 0.35758 0.0
H3794 H 0.41854 0.31832 0.43574 0.0
H3795 H 0.45392 0.29757 0.43746 0.0
H3796 H 0.45747 0.32078 0.41579 0.0
H3797 H 0.32588 0.24593 0.3825 0.0
H3798 H 0.34663 0.23861 0.41145 0.0
H3799 H 0.31835 0.26329 0.40959 0.0
H3800 H 0.39036 0.23562 0.48097 0.0
H3801 H 0.31224 0.2898 0.47861 0.0
H3802 H 0.4458 0.25491 0.43044 0.0
H3803 H 0.41265 0.23403 0.42235 0.0
H3804 H 0.43619 0.23158 0.45124 0.0
H3805 H 0.35521 0.3217 0.42931 0.0
H3806 H 0.31579 0.31958 0.44882 0.0
H3807 H 0.31807 0.30432 0.4199 0.0
C3808 C 0.84411 0.96273 0.3791 0.0
C3809 C 0.85865 0.97995 0.36419 0.0
C3810 C 0.85995 0.95746 0.40185 0.0
C3811 C 0.89056 0.96995 0.40952 0.0
C3812 C 0.90782 0.98528 0.39312 0.0
C3813 C 0.8917 0.98995 0.37041 0.0
C3814 C 0.84125 0.94088 0.41889 0.0
C3815 C 0.94013 -0.00069 0.40092 0.0
C3816 C 0.89865 0.99494 0.47282 0.0
C3817 C 0.92912 0.98338 0.48149 0.0
C3818 C 0.88373 0.98934 0.44995 0.0
C3819 C 0.89947 0.97147 0.43594 0.0
C3820 C 0.92788 0.95825 0.44582 0.0
C3821 C 0.94287 0.96462 0.46852 0.0
C3822 C 0.85378 0.00416 0.4397 0.0
C3823 C 0.94433 0.93872 0.43152 0.0
H3824 H 0.81884 0.95475 0.37386 0.0
H3825 H 0.90292 0.00328 0.35881 0.0
H3826 H 0.86103 0.93058 0.42946 0.0
H3827 H 0.82483 0.95056 0.4325 0.0
H3828 H 0.82313 0.92916 0.40854 0.0
H3829 H 0.95407 0.00712 0.38483 0.0
H3830 H 0.93113 0.01332 0.41332 0.0
H3831 H 0.95972 0.98876 0.41134 0.0
H3832 H 0.88827 0.00951 0.48299 0.0
H3833 H 0.96628 0.95564 0.47562 0.0
H3834 H 0.83244 0.99354 0.43105 0.0
H3835 H 0.86482 0.01551 0.42514 0.0
H3836 H 0.84129 0.01507 0.45418 0.0
H3837 H 0.923 0.92749 0.42389 0.0
H3838 H 0.96264 0.92829 0.44321 0.0
H3839 H 0.95982 0.94551 0.4156 0.0
C3840 C 0.61773 0.01474 0.12324 0.0
C3841 C 0.59566 0.99524 0.12456 0.0
C3842 C 0.63889 0.02148 0.14345 0.0
C3843 C 0.63633 0.00907 0.16576 0.0
C3844 C 0.60888 0.99251 0.16857 0.0
C3845 C 0.59004 0.98502 0.14773 0.0
C3846 C 0.664 0.04157 0.14059 0.0
C3847 C 0.6011 0.98152 0.19326 0.0
C3848 C 0.70916 0.98729 0.20761 0.0
C3849 C 0.70844 0.00342 0.22662 0.0
C3850 C 0.68953 0.99088 0.18586 0.0
C3851 C 0.66565 0.00978 0.18437 0.0
C3852 C 0.66695 0.02702 0.20265 0.0
C3853 C 0.69004 0.02415 0.22291 0.0
C3854 C 0.69207 0.97337 0.1654 0.0
C3855 C 0.64257 0.04768 0.20207 0.0
H3856 H 0.61993 0.02415 0.10607 0.0
H3857 H 0.57237 0.97044 0.14967 0.0
H3858 H 0.64976 0.05721 0.14687 0.0
H3859 H 0.68886 0.03973 0.15184 0.0
H3860 H 0.67168 0.0442 0.12094 0.0
H3861 H 0.57307 0.9748 0.19403 0.0
H3862 H 0.61985 0.96701 0.19625 0.0
H3863 H 0.60488 0.99391 0.20861 0.0
H3864 H 0.72326 0.97125 0.21025 0.0
H3865 H 0.69025 0.03696 0.23741 0.0
H3866 H 0.69006 0.98165 0.14699 0.0
H3867 H 0.66959 0.96098 0.16711 0.0
H3868 H 0.71783 0.96368 0.16634 0.0
H3869 H 0.65696 0.06187 0.19274 0.0
H3870 H 0.63587 0.0535 0.22109 0.0
H3871 H 0.61698 0.04444 0.19202 0.0
C3872 C 0.12417 0.73201 0.11853 0.0
C3873 C 0.16023 0.72592 0.11471 0.0
C3874 C 0.10739 0.72693 0.14104 0.0
C3875 C 0.12793 0.71652 0.16005 0.0
C3876 C 0.16196 0.7069 0.15454 0.0
C3877 C 0.17723 0.71114 0.13135 0.0
C3878 C 0.06989 0.73594 0.14567 0.0
C3879 C 0.18487 0.69574 0.1742 0.0
C3880 C 0.11762 0.75031 0.21878 0.0
C3881 C 0.09455 0.73634 0.23236 0.0
C3882 C 0.13009 0.74342 0.19562 0.0
C3883 C 0.11902 0.722 0.18599 0.0
C3884 C 0.09784 0.70708 0.20051 0.0
C3885 C 0.08536 0.71461 0.22364 0.0
C3886 C 0.15363 0.75964 0.18101 0.0
C3887 C 0.08703 0.68377 0.19114 0.0
H3888 H 0.1105 0.74293 0.10532 0.0
H3889 H 0.20429 0.70531 0.12736 0.0
H3890 H 0.05467 0.7243 0.15792 0.0
H3891 H 0.07159 0.75288 0.15482 0.0
H3892 H 0.05471 0.73792 0.12811 0.0
H3893 H 0.20508 0.684 0.16595 0.0
H3894 H 0.19947 0.70919 0.18465 0.0
H3895 H 0.16841 0.68613 0.1877 0.0
H3896 H 0.12444 0.76712 0.2258 0.0
H3897 H 0.06747 0.70395 0.23449 0.0
H3898 H 0.13837 0.7662 0.16485 0.0
H3899 H 0.17791 0.75066 0.17391 0.0
H3900 H 0.16261 0.77448 0.19224 0.0
H3901 H 0.07072 0.6855 0.17404 0.0
H3902 H 0.07132 0.67405 0.20508 0.0
H3903 H 0.11117 0.67362 0.18614 0.0
C3904 C 0.65006 0.73688 0.73307 0.0
C3905 C 0.61551 0.7292 0.73904 0.0
C3906 C 0.66566 0.7307 0.71065 0.0
C3907 C 0.64646 0.71595 0.69458 0.0
C3908 C 0.61494 0.70479 0.70286 0.0
C3909 C 0.59938 0.71182 0.72517 0.0
C3910 C 0.70039 0.74214 0.70303 0.0
C3911 C 0.59512 0.68799 0.68666 0.0
C3912 C 0.64785 0.7425 0.63192 0.0
C3913 C 0.67781 0.73162 0.62155 0.0
C3914 C 0.63523 0.7361 0.65513 0.0
C3915 C 0.65293 0.71815 0.6679 0.0
C3916 C 0.68085 0.70564 0.65638 0.0
C3917 C 0.69342 0.71276 0.63327 0.0
C3918 C 0.60544 0.75013 0.66688 0.0
C3919 C 0.6988 0.68573 0.66905 0.0
H3920 H 0.66282 0.74992 0.74434 0.0
H3921 H 0.57326 0.7053 0.73068 0.0
H3922 H 0.69754 0.75078 0.68488 0.0
H3923 H 0.70994 0.75487 0.71681 0.0
H3924 H 0.7213 0.72885 0.70124 0.0
H3925 H 0.57635 0.67724 0.69761 0.0
H3926 H 0.5792 0.69739 0.67256 0.0
H3927 H 0.61434 0.67679 0.67666 0.0
H3928 H 0.63598 0.75713 0.62269 0.0
H3929 H 0.71624 0.7042 0.62478 0.0
H3930 H 0.61642 0.75984 0.68284 0.0
H3931 H 0.58368 0.73891 0.67392 0.0
H3932 H 0.59327 0.76252 0.65373 0.0
H3933 H 0.71581 0.69202 0.68447 0.0
H3934 H 0.71609 0.6758 0.65615 0.0
H3935 H 0.67825 0.67418 0.67714 0.0
C3936 C 0.13666 0.01174 0.72839 0.0
C3937 C 0.16835 0.02291 0.73543 0.0
C3938 C 0.12251 0.01496 0.70473 0.0
C3939 C 0.14107 0.02938 0.68797 0.0
C3940 C 0.16989 0.04314 0.69625 0.0
C3941 C 0.18299 0.0399 0.72026 0.0
C3942 C 0.09052 0.00074 0.69679 0.0
C3943 C 0.18967 0.05902 0.67893 0.0
C3944 C 0.13735 0.00027 0.62655 0.0
C3945 C 0.10706 0.01092 0.61645 0.0
C3946 C 0.15149 0.00782 0.64903 0.0
C3947 C 0.13465 0.02638 0.66131 0.0
C3948 C 0.10719 0.039 0.64949 0.0
C3949 C 0.09316 0.03083 0.62714 0.0
C3950 C 0.18203 0.99454 0.66072 0.0
C3951 C 0.09064 0.05978 0.66157 0.0
H3952 H 0.12517 0.99874 0.74031 0.0
H3953 H 0.20686 0.04898 0.72634 0.0
H3954 H 0.07208 0.01081 0.68489 0.0
H3955 H 0.10015 0.98586 0.68589 0.0
H3956 H 0.07505 0.99425 0.71292 0.0
H3957 H 0.20728 0.07111 0.68912 0.0
H3958 H 0.20651 0.04885 0.666 0.0
H3959 H 0.17078 0.06899 0.66739 0.0
H3960 H 0.14809 0.98498 0.6179 0.0
H3961 H 0.07012 0.03918 0.61871 0.0
H3962 H 0.17123 0.98376 0.67587 0.0
H3963 H 0.2023 0.00628 0.66886 0.0
H3964 H 0.19579 0.98323 0.64716 0.0
H3965 H 0.07475 0.05445 0.67797 0.0
H3966 H 0.07298 0.06935 0.64863 0.0
H3967 H 0.11163 0.07159 0.66841 0.0
C3968 C 0.37942 0.49743 0.4751 0.0
C3969 C 0.40957 0.48632 0.48467 0.0
C3970 C 0.36597 0.49121 0.45202 0.0
C3971 C 0.3838 0.47378 0.43847 0.0
C3972 C 0.41172 0.46088 0.44946 0.0
C3973 C 0.42383 0.46712 0.47295 0.0
C3974 C 0.33567 0.50517 0.44099 0.0
C3975 C 0.43212 0.44265 0.43555 0.0
C3976 C 0.33284 0.46458 0.38001 0.0
C3977 C 0.34741 0.48224 0.36576 0.0
C3978 C 0.34789 0.45923 0.40299 0.0
C3979 C 0.37709 0.47238 0.41178 0.0
C3980 C 0.39441 0.48835 0.39621 0.0
C3981 C 0.37921 0.49314 0.37325 0.0
C3982 C 0.33096 0.44092 0.41875 0.0
C3983 C 0.42635 0.50231 0.40484 0.0
H3984 H 0.36858 0.51228 0.48456 0.0
H3985 H 0.44675 0.45844 0.48108 0.0
H3986 H 0.34691 0.51738 0.42733 0.0
H3987 H 0.31628 0.49397 0.43117 0.0
H3988 H 0.32085 0.51507 0.45529 0.0
H3989 H 0.44164 0.4291 0.44835 0.0
H3990 H 0.41569 0.43473 0.42072 0.0
H3991 H 0.45634 0.45045 0.4269 0.0
H3992 H 0.30873 0.45582 0.37375 0.0
H3993 H 0.39052 0.50676 0.3621 0.0
H3994 H 0.31884 0.4487 0.43553 0.0
H3995 H 0.35197 0.42877 0.42513 0.0
H3996 H 0.30989 0.43126 0.40859 0.0
H3997 H 0.41681 0.51602 0.41743 0.0
H3998 H 0.44075 0.51044 0.38912 0.0
H3999 H 0.44577 0.49157 0.41526 0.0
C4000 C 0.83871 0.75928 0.45284 0.0
C4001 C 0.85987 0.75695 0.47425 0.0
C4002 C 0.85134 0.77113 0.4323 0.0
C4003 C 0.88755 0.77835 0.43223 0.0
C4004 C 0.90653 0.77986 0.45483 0.0
C4005 C 0.89234 0.76914 0.47587 0.0
C4006 C 0.82852 0.77141 0.40919 0.0
C4007 C 0.9443 0.78913 0.45601 0.0
C4008 C 0.93957 0.74575 0.38418 0.0
C4009 C 0.94765 0.76271 0.36705 0.0
C4010 C 0.91987 0.75076 0.40533 0.0
C4011 C 0.90851 0.77361 0.40963 0.0
C4012 C 0.9167 0.79095 0.39229 0.0
C4013 C 0.93615 0.78519 0.37088 0.0
C4014 C 0.9104 0.73124 0.4225 0.0
C4015 C 0.90519 0.81539 0.39632 0.0
H4016 H 0.81358 0.75029 0.45091 0.0
H4017 H 0.90883 0.76797 0.49238 0.0
H4018 H 0.83567 0.78594 0.39701 0.0
H4019 H 0.83284 0.75532 0.39876 0.0
H4020 H 0.79938 0.77253 0.41396 0.0
H4021 H 0.96348 0.77477 0.45875 0.0
H4022 H 0.95208 0.79857 0.43911 0.0
H4023 H 0.94655 0.80087 0.47204 0.0
H4024 H 0.94774 0.72827 0.38052 0.0
H4025 H 0.94218 0.79809 0.35713 0.0
H4026 H 0.88075 0.72863 0.42271 0.0
H4027 H 0.91933 0.73503 0.44162 0.0
H4028 H 0.92305 0.71487 0.41676 0.0
H4029 H 0.87702 0.81634 0.40317 0.0
H4030 H 0.90745 0.82567 0.37913 0.0
H4031 H 0.92272 0.82328 0.41058 0.0
C4032 C 0.4309 0.78916 0.87612 0.0
C4033 C 0.41553 0.77037 0.86416 0.0
C4034 C 0.41867 0.79573 0.89949 0.0
C4035 C 0.39141 0.78268 0.91092 0.0
C4036 C 0.37344 0.76509 0.89772 0.0
C4037 C 0.3855 0.75939 0.87412 0.0
C4038 C 0.43755 0.81485 0.91293 0.0
C4039 C 0.34492 0.75025 0.90966 0.0
C4040 C 0.39002 0.7625 0.97569 0.0
C4041 C 0.35655 0.77133 0.98279 0.0
C4042 C 0.40495 0.76857 0.95301 0.0
C4043 C 0.38586 0.78407 0.93772 0.0
C4044 C 0.35539 0.79583 0.94683 0.0
C4045 C 0.34053 0.78899 0.96933 0.0
C4046 C 0.4389 0.75659 0.94442 0.0
C4047 C 0.33599 0.81343 0.93145 0.0
H4048 H 0.45438 0.79739 0.86814 0.0
H4049 H 0.37418 0.74467 0.86469 0.0
H4050 H 0.41821 0.82515 0.9239 0.0
H4051 H 0.45742 0.80753 0.92605 0.0
H4052 H 0.45202 0.82628 0.8999 0.0
H4053 H 0.33113 0.73903 0.89604 0.0
H4054 H 0.35769 0.7392 0.92386 0.0
H4055 H 0.32433 0.76088 0.91907 0.0
H4056 H 0.40256 0.7491 0.98657 0.0
H4057 H 0.31501 0.79611 0.97544 0.0
H4058 H 0.46069 0.76937 0.94241 0.0
H4059 H 0.43475 0.74831 0.92617 0.0
H4060 H 0.44823 0.74338 0.95771 0.0
H4061 H 0.35548 0.82483 0.92203 0.0
H4062 H 0.31753 0.824 0.9429 0.0
H4063 H 0.32003 0.80476 0.91685 0.0
C4064 C 0.86431 0.45523 0.88204 0.0
C4065 C 0.88241 0.46863 0.86468 0.0
C4066 C 0.87703 0.45411 0.90632 0.0
C4067 C 0.91097 0.46394 0.91179 0.0
C4068 C 0.93342 0.4717 0.89223 0.0
C4069 C 0.91864 0.47397 0.86858 0.0
C4070 C 0.85084 0.44683 0.92619 0.0
C4071 C 0.97046 0.48142 0.89696 0.0
C4072 C 0.92287 0.50466 0.9648 0.0
C4073 C 0.94279 0.49142 0.98126 0.0
C4074 C 0.90998 0.49523 0.94287 0.0
C4075 C 0.91844 0.47221 0.93707 0.0
C4076 C 0.9365 0.45833 0.95452 0.0
C4077 C 0.94848 0.4682 0.9767 0.0
C4078 C 0.88805 0.51013 0.92569 0.0
C4079 C 0.94386 0.43338 0.94955 0.0
H4080 H 0.83732 0.44953 0.87792 0.0
H4081 H 0.9333 0.48342 0.85457 0.0
H4082 H 0.86441 0.4417 0.94354 0.0
H4083 H 0.83272 0.46142 0.93052 0.0
H4084 H 0.83363 0.43255 0.91959 0.0
H4085 H 0.98243 0.48928 0.88021 0.0
H4086 H 0.96932 0.49482 0.91138 0.0
H4087 H 0.98852 0.4676 0.90338 0.0
H4088 H 0.91777 0.52248 0.96903 0.0
H4089 H 0.96325 0.45804 0.99006 0.0
H4090 H 0.86196 0.50168 0.92159 0.0
H4091 H 0.90256 0.5126 0.90796 0.0
H4092 H 0.88236 0.52722 0.93374 0.0
H4093 H 0.91817 0.42371 0.94944 0.0
H4094 H 0.96168 0.42572 0.96382 0.0
H4095 H 0.95644 0.43112 0.93109 0.0
C4096 C 0.64796 0.51783 0.72634 0.0
C4097 C 0.67838 0.50327 0.72482 0.0
C4098 C 0.62746 0.52332 0.70554 0.0
C4099 C 0.63707 0.51382 0.68259 0.0
C4100 C 0.66967 0.50144 0.6801 0.0
C4101 C 0.6897 0.49612 0.70126 0.0
C4102 C 0.59304 0.5368 0.70915 0.0
C4103 C 0.68221 0.49249 0.65531 0.0
C4104 C 0.57183 0.48601 0.63948 0.0
C4105 C 0.5707 0.50178 0.62016 0.0
C4106 C 0.58951 0.49133 0.66152 0.0
C4107 C 0.60967 0.51181 0.66302 0.0
C4108 C 0.60696 0.52839 0.64423 0.0
C4109 C 0.58589 0.52357 0.62344 0.0
C4110 C 0.58942 0.47407 0.68226 0.0
C4111 C 0.62888 0.55009 0.64492 0.0
H4112 H 0.6374 0.52352 0.74388 0.0
H4113 H 0.71344 0.48556 0.69918 0.0
H4114 H 0.58299 0.54463 0.69182 0.0
H4115 H 0.57184 0.52521 0.71633 0.0
H4116 H 0.59712 0.55052 0.72308 0.0
H4117 H 0.70479 0.48017 0.65719 0.0
H4118 H 0.66007 0.48381 0.64521 0.0
H4119 H 0.69135 0.50703 0.64376 0.0
H4120 H 0.56034 0.46913 0.63701 0.0
H4121 H 0.5847 0.53584 0.60846 0.0
H4122 H 0.58502 0.48269 0.70029 0.0
H4123 H 0.61597 0.46531 0.68302 0.0
H4124 H 0.56807 0.46096 0.67972 0.0
H4125 H 0.62491 0.55912 0.66273 0.0
H4126 H 0.62183 0.56185 0.62955 0.0
H4127 H 0.658 0.54579 0.64349 0.0
C4128 C 0.09063 0.21666 0.71624 0.0
C4129 C 0.10881 0.22971 0.73404 0.0
C4130 C 0.10753 0.21107 0.69391 0.0
C4131 C 0.14289 0.21905 0.68954 0.0
C4132 C 0.16333 0.22831 0.70923 0.0
C4133 C 0.14587 0.23373 0.7314 0.0
C4134 C 0.08579 0.19986 0.67373 0.0
C4135 C 0.20218 0.23524 0.70583 0.0
C4136 C 0.18783 0.21655 0.62666 0.0
C4137 C 0.17913 0.23822 0.61757 0.0
C4138 C 0.17482 0.20935 0.64974 0.0
C4139 C 0.15358 0.22455 0.66391 0.0
C4140 C 0.14338 0.24607 0.65406 0.0
C4141 C 0.15625 0.25258 0.63087 0.0
C4142 C 0.18524 0.18609 0.65936 0.0
C4143 C 0.1202 0.26272 0.66842 0.0
H4144 H 0.06223 0.2128 0.71873 0.0
H4145 H 0.16029 0.24334 0.74541 0.0
H4146 H 0.07516 0.21325 0.66122 0.0
H4147 H 0.1027 0.18824 0.66244 0.0
H4148 H 0.0628 0.19002 0.68142 0.0
H4149 H 0.21521 0.23959 0.72368 0.0
H4150 H 0.21755 0.2211 0.69724 0.0
H4151 H 0.20382 0.25028 0.69338 0.0
H4152 H 0.20572 0.2056 0.6161 0.0
H4153 H 0.14993 0.26939 0.62362 0.0
H4154 H 0.16222 0.17766 0.6687 0.0
H4155 H 0.20697 0.18795 0.6733 0.0
H4156 H 0.19512 0.17478 0.64431 0.0
H4157 H 0.09442 0.25453 0.67388 0.0
H4158 H 0.11381 0.27834 0.65762 0.0
H4159 H 0.13437 0.26796 0.68559 0.0
C4160 C 0.68319 0.24396 0.14925 0.0
C4161 C 0.66695 0.24376 0.12572 0.0
C4162 C 0.66695 0.23374 0.16956 0.0
C4163 C 0.63146 0.22553 0.16709 0.0
C4164 C 0.61696 0.22195 0.14324 0.0
C4165 C 0.63501 0.23105 0.12264 0.0
C4166 C 0.68523 0.23587 0.19444 0.0
C4167 C 0.58122 0.21018 0.13948 0.0
C4168 C 0.58473 0.22103 0.22897 0.0
C4169 C 0.57274 0.2436 0.2319 0.0
C4170 C 0.60156 0.21408 0.20697 0.0
C4171 C 0.60698 0.23028 0.188 0.0
C4172 C 0.59363 0.25288 0.19068 0.0
C4173 C 0.57699 0.25925 0.21272 0.0
C4174 C 0.61348 0.1896 0.204 0.0
C4175 C 0.59867 0.27086 0.17091 0.0
H4176 H 0.70717 0.25376 0.1529 0.0
H4177 H 0.62203 0.22993 0.10477 0.0
H4178 H 0.67725 0.25228 0.20316 0.0
H4179 H 0.6774 0.22178 0.207 0.0
H4180 H 0.71509 0.23582 0.19242 0.0
H4181 H 0.56565 0.21843 0.12436 0.0
H4182 H 0.58641 0.19225 0.13388 0.0
H4183 H 0.56464 0.20975 0.15652 0.0
H4184 H 0.58134 0.20899 0.244 0.0
H4185 H 0.56847 0.27681 0.21533 0.0
H4186 H 0.64229 0.18869 0.19851 0.0
H4187 H 0.59755 0.18155 0.18895 0.0
H4188 H 0.6096 0.17955 0.2212 0.0
H4189 H 0.62777 0.27491 0.16886 0.0
H4190 H 0.58423 0.28699 0.17533 0.0
H4191 H 0.58859 0.26451 0.15286 0.0
C4192 C 0.08176 0.5303 0.13172 0.0
C4193 C 0.09499 0.51197 0.11778 0.0
C4194 C 0.09704 0.53552 0.15471 0.0
C4195 C 0.12497 0.52152 0.16391 0.0
C4196 C 0.14016 0.5041 0.14905 0.0
C4197 C 0.12487 0.49952 0.12604 0.0
C4198 C 0.0826 0.55528 0.16964 0.0
C4199 C 0.17098 0.48934 0.15806 0.0
C4200 C 0.1813 0.53034 0.22048 0.0
C4201 C 0.16731 0.51301 0.23544 0.0
C4202 C 0.16544 0.53527 0.19764 0.0
C4203 C 0.13497 0.52257 0.19016 0.0
C4204 C 0.11795 0.50733 0.20677 0.0
C4205 C 0.13448 0.50267 0.22937 0.0
C4206 C 0.1836 0.55217 0.18064 0.0
C4207 C 0.0847 0.49395 0.19957 0.0
H4208 H 0.05909 0.54016 0.12486 0.0
H4209 H 0.13504 0.48538 0.11509 0.0
H4210 H 0.06941 0.54884 0.18667 0.0
H4211 H 0.10491 0.56654 0.17571 0.0
H4212 H 0.06314 0.56573 0.15894 0.0
H4213 H 0.18221 0.47838 0.14314 0.0
H4214 H 0.19305 0.50011 0.16557 0.0
H4215 H 0.16138 0.47813 0.17323 0.0
H4216 H 0.20599 0.53886 0.22592 0.0
H4217 H 0.1235 0.48943 0.24119 0.0
H4218 H 0.16452 0.55998 0.16736 0.0
H4219 H 0.20461 0.54327 0.16965 0.0
H4220 H 0.19673 0.566 0.1914 0.0
H4221 H 0.06491 0.50512 0.19006 0.0
H4222 H 0.07141 0.48603 0.21586 0.0
H4223 H 0.09241 0.48014 0.18652 0.0
C4224 C 0.3177 0.17734 0.18186 0.0
C4225 C 0.32978 0.18078 0.20626 0.0
C4226 C 0.31662 0.15524 0.17109 0.0
C4227 C 0.32827 0.13588 0.18481 0.0
C4228 C 0.3399 0.13926 0.20952 0.0
C4229 C 0.33983 0.16138 0.21994 0.0
C4230 C 0.30361 0.15267 0.14481 0.0
C4231 C 0.3532 0.11949 0.22493 0.0
C4232 C 0.30284 0.07458 0.16477 0.0
C4233 C 0.33425 0.06717 0.15254 0.0
C4234 C 0.30033 0.09682 0.17512 0.0
C4235 C 0.3298 0.11228 0.17322 0.0
C4236 C 0.36156 0.10478 0.16105 0.0
C4237 C 0.36345 0.08249 0.15119 0.0
C4238 C 0.26602 0.1038 0.1881 0.0
C4239 C 0.39381 0.12035 0.15841 0.0
H4240 H 0.3096 0.192 0.17097 0.0
H4241 H 0.34752 0.16338 0.23905 0.0
H4242 H 0.32595 0.14631 0.133 0.0
H4243 H 0.28161 0.13985 0.14392 0.0
H4244 H 0.29357 0.16903 0.13702 0.0
H4245 H 0.36098 0.1248 0.24392 0.0
H4246 H 0.33199 0.10619 0.22623 0.0
H4247 H 0.37702 0.11154 0.21593 0.0
H4248 H 0.27999 0.0631 0.16603 0.0
H4249 H 0.38821 0.07705 0.14245 0.0
H4250 H 0.25476 0.11938 0.17934 0.0
H4251 H 0.27193 0.10809 0.20767 0.0
H4252 H 0.24524 0.09015 0.18765 0.0
H4253 H 0.38615 0.13572 0.14764 0.0
H4254 H 0.41683 0.11186 0.14897 0.0
H4255 H 0.40294 0.12626 0.17687 0.0
C4256 C 0.96055 0.07113 0.17817 0.0
C4257 C 0.94817 0.06749 0.20242 0.0
C4258 C 0.96204 0.09339 0.16779 0.0
C4259 C 0.9504 0.11265 0.18176 0.0
C4260 C 0.93859 0.10902 0.20638 0.0
C4261 C 0.93851 0.08678 0.21644 0.0
C4262 C 0.97553 0.09624 0.14168 0.0
C4263 C 0.92517 0.12862 0.22205 0.0
C4264 C 0.97644 0.17432 0.16355 0.0
C4265 C 0.94561 0.18193 0.15076 0.0
C4266 C 0.97865 0.15188 0.17337 0.0
C4267 C 0.94929 0.13644 0.17061 0.0
C4268 C 0.91793 0.1442 0.15812 0.0
C4269 C 0.91646 0.16664 0.14862 0.0
C4270 C 1.01255 0.14465 0.18667 0.0
C4271 C 0.88562 0.12878 0.15488 0.0
H4272 H 0.96848 0.05653 0.1671 0.0
H4273 H 0.9311 0.0846 0.23558 0.0
H4274 H 0.95337 0.10263 0.12975 0.0
H4275 H 0.99746 0.10913 0.14117 0.0
H4276 H 0.98583 0.07997 0.13378 0.0
H4277 H 0.91734 0.1231 0.24094 0.0
H4278 H 0.94628 0.14196 0.22359 0.0
H4279 H 0.90134 0.1366 0.2131 0.0
H4280 H 0.99918 0.18579 0.16559 0.0
H4281 H 0.892 0.17226 0.13965 0.0
H4282 H 0.0237 0.12896 0.17802 0.0
H4283 H 1.00619 0.14046 0.20618 0.0
H4284 H 0.03361 0.15814 0.18643 0.0
H4285 H 0.89356 0.11316 0.14463 0.0
H4286 H 0.86327 0.13725 0.14471 0.0
H4287 H 0.87541 0.12328 0.17322 0.0
C4288 C 0.72596 0.83244 0.89431 0.0
C4289 C 0.69799 0.81668 0.89819 0.0
C4290 C 0.72513 0.85456 0.90505 0.0
C4291 C 0.69554 0.86142 0.92011 0.0
C4292 C 0.66705 0.84552 0.92385 0.0
C4293 C 0.66872 0.82348 0.913 0.0
C4294 C 0.75607 0.87068 0.90022 0.0
C4295 C 0.63447 0.85185 0.93913 0.0
C4296 C 0.70865 0.91056 0.96711 0.0
C4297 C 0.69592 0.92971 0.95413 0.0
C4298 C 0.70892 0.88848 0.95627 0.0
C4299 C 0.69475 0.88499 0.9321 0.0
C4300 C 0.68055 0.90424 0.91934 0.0
C4301 C 0.68198 0.92626 0.93025 0.0
C4302 C 0.72497 0.86887 0.97059 0.0
C4303 C 0.66367 0.9016 0.89411 0.0
H4304 H 0.7485 0.82761 0.8827 0.0
H4305 H 0.64678 0.81154 0.91592 0.0
H4306 H 0.74598 0.88638 0.89107 0.0
H4307 H 0.76851 0.87593 0.918 0.0
H4308 H 0.77722 0.86289 0.88833 0.0
H4309 H 0.61419 0.8379 0.93981 0.0
H4310 H 0.64289 0.85601 0.95829 0.0
H4311 H 0.62146 0.86735 0.93139 0.0
H4312 H 0.71929 0.91296 0.98559 0.0
H4313 H 0.67139 0.94081 0.92024 0.0
H4314 H 0.74749 0.86118 0.95991 0.0
H4315 H 0.70439 0.85535 0.97332 0.0
H4316 H 0.73533 0.87426 0.98896 0.0
H4317 H 0.6845 0.89627 0.88056 0.0
H4318 H 0.65104 0.91771 0.88751 0.0
H4319 H 0.64277 0.88804 0.89449 0.0
C4320 C 0.08462 0.83448 0.96549 0.0
C4321 C 0.08055 0.81471 0.95098 0.0
C4322 C 0.08504 0.85657 0.95496 0.0
C4323 C 0.08094 0.85937 0.92905 0.0
C4324 C 0.07617 0.83946 0.91428 0.0
C4325 C 0.07585 0.81749 0.92538 0.0
C4326 C 0.09038 0.87695 0.97167 0.0
C4327 C 0.07215 0.84132 0.88662 0.0
C4328 C 0.05169 0.91864 0.9048 0.0
C4329 C 0.08448 0.92825 0.89687 0.0
C4330 C 0.05009 0.89632 0.91492 0.0
C4331 C 0.08204 0.88306 0.91755 0.0
C4332 C 0.11527 0.89286 0.90992 0.0
C4333 C 0.11603 0.91515 0.89981 0.0
C4334 C 1.01405 0.8869 0.92288 0.0
C4335 C 0.15026 0.87987 0.91262 0.0
H4336 H 0.0874 0.8327 0.98531 0.0
H4337 H 0.07302 0.80241 0.91389 0.0
H4338 H 0.11495 0.88644 0.96607 0.0
H4339 H 0.06719 0.88882 0.96988 0.0
H4340 H 0.09319 0.87199 0.9914 0.0
H4341 H 0.06785 0.82444 0.87771 0.0
H4342 H 0.04904 0.85262 0.88204 0.0
H4343 H 0.09672 0.84922 0.87861 0.0
H4344 H 0.02708 0.92849 0.90279 0.0
H4345 H 0.14168 0.92253 0.89469 0.0
H4346 H 0.01454 0.88315 0.94298 0.0
H4347 H 1.00862 0.87058 0.91314 0.0
H4348 H 0.99153 0.89893 0.91907 0.0
H4349 H 0.15491 0.87554 0.93233 0.0
H4350 H 0.17382 0.88973 0.90577 0.0
H4351 H 0.14872 0.86355 0.90226 0.0
C4352 C 0.29871 0.67284 0.68978 0.0
C4353 C 0.33147 0.68278 0.69733 0.0
C4354 C 0.29719 0.65013 0.68054 0.0
C4355 C 0.32925 0.63692 0.678 0.0
C4356 C 0.36248 0.64717 0.68495 0.0
C4357 C 0.36311 0.66969 0.6945 0.0
C4358 C 0.26103 0.64014 0.67373 0.0
C4359 C 0.39762 0.63433 0.68231 0.0
C4360 C 0.32468 0.57098 0.67203 0.0
C4361 C 0.32754 0.56754 0.64634 0.0
C4362 C 0.32491 0.59325 0.68256 0.0
C4363 C 0.32822 0.61286 0.6672 0.0
C4364 C 0.33078 0.60941 0.64127 0.0
C4365 C 0.32986 0.58707 0.63128 0.0
C4366 C 0.32205 0.59575 0.71025 0.0
C4367 C 0.33501 0.62942 0.62395 0.0
H4368 H 0.274 0.68258 0.69167 0.0
H4369 H 0.38875 0.67721 0.69952 0.0
H4370 H 0.26061 0.63579 0.65377 0.0
H4371 H 0.25651 0.62406 0.68412 0.0
H4372 H 0.2384 0.65206 0.67768 0.0
H4373 H 0.42131 0.64487 0.68762 0.0
H4374 H 0.39716 0.61886 0.69412 0.0
H4375 H 0.40118 0.62854 0.66292 0.0
H4376 H 0.323 0.55621 0.68403 0.0
H4377 H 0.33089 0.58493 0.61143 0.0
H4378 H 0.29898 0.60703 0.71499 0.0
H4379 H 0.34681 0.60396 0.71759 0.0
H4380 H 0.31836 0.57906 0.71967 0.0
H4381 H 0.31135 0.64094 0.62559 0.0
H4382 H 0.33772 0.62399 0.60435 0.0
H4383 H 0.35926 0.63947 0.62911 0.0
C4384 C 0.94665 0.65749 0.62525 0.0
C4385 C 0.95196 0.67694 0.6401 0.0
C4386 C 0.94538 0.6352 0.63544 0.0
C4387 C 0.95179 0.63171 0.66106 0.0
C4388 C 0.95914 0.65118 0.67595 0.0
C4389 C 0.9587 0.67337 0.66545 0.0
C4390 C 0.93614 0.61537 0.61879 0.0
C4391 C 0.96705 0.64862 0.70318 0.0
C4392 C 0.91562 0.57744 0.69287 0.0
C4393 C 0.94603 0.56301 0.69392 0.0
C4394 C 0.91711 0.59955 0.6824 0.0
C4395 C 0.9499 0.60789 0.67229 0.0
C4396 C 0.98064 0.59328 0.67283 0.0
C4397 C 0.97833 0.57113 0.68346 0.0
C4398 C 0.8834 0.61406 0.68233 0.0
C4399 C 0.01629 0.60125 0.66254 0.0
H4400 H 0.94292 0.65964 0.60556 0.0
H4401 H 0.96315 0.68802 0.67731 0.0
H4402 H 0.95851 0.60277 0.61878 0.0
H4403 H 0.91177 0.60652 0.62589 0.0
H4404 H 0.93089 0.62082 0.59946 0.0
H4405 H 0.97476 0.66508 0.71193 0.0
H4406 H 0.94293 0.64184 0.71283 0.0
H4407 H 0.98926 0.63615 0.70598 0.0
H4408 H 0.89026 0.57143 0.70026 0.0
H4409 H 1.00215 0.56041 0.68412 0.0
H4410 H 0.87708 0.61968 0.66322 0.0
H4411 H 0.88782 0.62966 0.69357 0.0
H4412 H 0.85965 0.60485 0.6899 0.0
H4413 H 1.01343 0.60516 0.64258 0.0
H4414 H 0.03795 0.5883 0.66486 0.0
H4415 H 0.02469 0.61726 0.67191 0.0
C4416 C 0.66666 0.33057 0.40164 0.0
C4417 C 0.69795 0.31711 0.39974 0.0
C4418 C 0.66748 0.35302 0.41116 0.0
C4419 C 0.7005 0.36257 0.41945 0.0
C4420 C 0.73215 0.34884 0.41828 0.0
C4421 C 0.7305 0.32637 0.40855 0.0
C4422 C 0.63284 0.36658 0.41219 0.0
C4423 C 0.76785 0.35793 0.42735 0.0
C4424 C 0.70789 0.42815 0.42513 0.0
C4425 C 0.70028 0.43181 0.45027 0.0
C4426 C 0.7082 0.40585 0.41486 0.0
C4427 C 0.70149 0.38652 0.43011 0.0
C4428 C 0.6946 0.3902 0.45561 0.0
C4429 C 0.69403 0.41261 0.46525 0.0
C4430 C 0.71499 0.403 0.38754 0.0
C4431 C 0.68747 0.3704 0.47279 0.0
H4432 H 0.64116 0.32339 0.39602 0.0
H4433 H 0.7549 0.31619 0.40744 0.0
H4434 H 0.62818 0.37319 0.43115 0.0
H4435 H 0.63491 0.38156 0.39972 0.0
H4436 H 0.60902 0.3563 0.40664 0.0
H4437 H 0.79014 0.34546 0.42479 0.0
H4438 H 0.77474 0.37389 0.41737 0.0
H4439 H 0.76584 0.36226 0.44728 0.0
H4440 H 0.7127 0.44278 0.41332 0.0
H4441 H 0.68916 0.41506 0.48478 0.0
H4442 H 0.69111 0.395 0.37868 0.0
H4443 H 0.73825 0.39138 0.38449 0.0
H4444 H 0.72056 0.41953 0.37822 0.0
H4445 H 0.66309 0.36097 0.46666 0.0
H4446 H 0.68333 0.376 0.49222 0.0
H4447 H 0.71043 0.35824 0.47222 0.0
C4448 C 0.10116 0.32139 0.43234 0.0
C4449 C 0.08253 0.31752 0.45452 0.0
C4450 C 0.10303 0.34333 0.42142 0.0
C4451 C 0.08506 0.36212 0.43261 0.0
C4452 C 0.06666 0.35834 0.45534 0.0
C4453 C 0.06613 0.33628 0.46616 0.0
C4454 C 0.12429 0.34631 0.39784 0.0
C4455 C 0.047 0.37759 0.46806 0.0
C4456 C 0.10938 0.42405 0.41459 0.0
C4457 C 0.0821 0.42986 0.3977 0.0
C4458 C 0.11103 0.40223 0.42586 0.0
C4459 C 0.08454 0.38546 0.42027 0.0
C4460 C 0.05735 0.39109 0.40275 0.0
C4461 C 0.05668 0.41298 0.39156 0.0
C4462 C 0.14137 0.39713 0.44364 0.0
C4463 C 0.02878 0.37391 0.39577 0.0
H4464 H 0.11502 0.30725 0.42376 0.0
H4465 H 0.0522 0.33361 0.48354 0.0
H4466 H 0.1059 0.35137 0.38262 0.0
H4467 H 0.14438 0.3602 0.40005 0.0
H4468 H 0.13867 0.33044 0.39234 0.0
H4469 H 0.03417 0.37209 0.48563 0.0
H4470 H 0.066 0.39175 0.47209 0.0
H4471 H 0.02578 0.38447 0.45563 0.0
H4472 H 0.12998 0.43653 0.41868 0.0
H4473 H 0.03623 0.41666 0.37789 0.0
H4474 H 0.15672 0.38195 0.43726 0.0
H4475 H 0.1302 0.393 0.46212 0.0
H4476 H 0.16037 0.41171 0.44556 0.0
H4477 H 0.04162 0.35847 0.38776 0.0
H4478 H 1.00918 0.38084 0.38216 0.0
H4479 H 1.01383 0.36844 0.41253 0.0
C4480 C 0.86548 0.07893 0.65465 0.0
C4481 C 0.83441 0.0653 0.65209 0.0
C4482 C 0.86432 0.1011 0.66518 0.0
C4483 C 0.83105 0.11046 0.67346 0.0
C4484 C 0.79954 0.0967 0.67119 0.0
C4485 C 0.80164 0.07437 0.66088 0.0
C4486 C 0.89894 0.11453 0.66735 0.0
C4487 C 0.76334 0.10572 0.6794 0.0
C4488 C 0.83244 0.15943 0.72154 0.0
C4489 C 0.82932 0.17925 0.70698 0.0
C4490 C 0.8333 0.13726 0.71097 0.0
C4491 C 0.82949 0.13427 0.68502 0.0
C4492 C 0.8249 0.15418 0.67027 0.0
C4493 C 0.82508 0.17622 0.6813 0.0
C4494 C 0.83929 0.11696 0.72763 0.0
C4495 C 0.82039 0.15224 0.64263 0.0
H4496 H 0.89113 0.07209 0.64874 0.0
H4497 H 0.77732 0.06423 0.65917 0.0
H4498 H 0.89787 0.12952 0.65485 0.0
H4499 H 0.90234 0.1211 0.68646 0.0
H4500 H 0.92303 0.10415 0.66246 0.0
H4501 H 0.74116 0.09341 0.67576 0.0
H4502 H 0.764 0.10955 0.69948 0.0
H4503 H 0.75727 0.12194 0.66966 0.0
H4504 H 0.83472 0.16121 0.7414 0.0
H4505 H 0.82261 0.19119 0.66965 0.0
H4506 H 0.86406 0.10771 0.72186 0.0
H4507 H 0.81641 0.10485 0.72595 0.0
H4508 H 0.84221 0.12197 0.74735 0.0
H4509 H 0.8455 0.14534 0.63431 0.0
H4510 H 0.8143 0.16897 0.6339 0.0
H4511 H 0.7983 0.14012 0.63818 0.0
C4512 C 0.44317 0.16206 0.63169 0.0
C4513 C 0.44862 0.1817 0.64621 0.0
C4514 C 0.44415 0.13984 0.6419 0.0
C4515 C 0.45143 0.13672 0.66743 0.0
C4516 C 0.45819 0.15645 0.6821 0.0
C4517 C 0.4568 0.17857 0.67137 0.0
C4518 C 0.43664 0.11965 0.62531 0.0
C4519 C 0.46597 0.15425 0.70936 0.0
C4520 C 0.41599 0.08176 0.69797 0.0
C4521 C 0.44698 0.06797 0.70001 0.0
C4522 C 0.4172 0.10399 0.68785 0.0
C4523 C 0.45022 0.11299 0.67885 0.0
C4524 C 0.48154 0.09893 0.68014 0.0
C4525 C 0.47956 0.07671 0.69063 0.0
C4526 C 0.3829 0.11791 0.68684 0.0
C4527 C 0.51724 0.1074 0.67045 0.0
H4528 H 0.43823 0.164 0.61211 0.0
H4529 H 0.46115 0.19348 0.68288 0.0
H4530 H 0.45943 0.10738 0.62612 0.0
H4531 H 0.41219 0.11054 0.63182 0.0
H4532 H 0.43235 0.12478 0.60575 0.0
H4533 H 0.47246 0.17094 0.71805 0.0
H4534 H 0.44218 0.14685 0.71888 0.0
H4535 H 0.48895 0.1424 0.71235 0.0
H4536 H 0.39035 0.07502 0.70398 0.0
H4537 H 0.50373 0.06633 0.69183 0.0
H4538 H 0.37726 0.12328 0.66757 0.0
H4539 H 0.38616 0.13366 0.69804 0.0
H4540 H 0.35918 0.10833 0.69389 0.0
H4541 H 0.51494 0.11115 0.65041 0.0
H4542 H 0.53929 0.09479 0.67321 0.0
H4543 H 0.52471 0.12358 0.67983 0.0
C4544 C 0.22908 0.82754 0.40474 0.0
C4545 C 0.19649 0.81591 0.40063 0.0
C4546 C 0.2296 0.84978 0.41518 0.0
C4547 C 0.19682 0.86074 0.42211 0.0
C4548 C 0.16393 0.84882 0.41836 0.0
C4549 C 0.16425 0.82674 0.40779 0.0
C4550 C 0.26533 0.86167 0.41868 0.0
C4551 C 0.1282 0.85943 0.42535 0.0
C4552 C 0.19779 0.90934 0.47025 0.0
C4553 C 0.19611 0.92905 0.4555 0.0
C4554 C 0.19847 0.88721 0.45968 0.0
C4555 C 0.19686 0.88442 0.4336 0.0
C4556 C 0.19474 0.90432 0.41864 0.0
C4557 C 0.19491 0.92625 0.4297 0.0
C4558 C 0.20076 0.86674 0.47651 0.0
C4559 C 0.19181 0.90246 0.39088 0.0
H4560 H 0.25417 0.81945 0.39928 0.0
H4561 H 0.13904 0.81773 0.40546 0.0
H4562 H 0.26546 0.87803 0.40834 0.0
H4563 H 0.2693 0.86584 0.43851 0.0
H4564 H 0.28841 0.85109 0.41226 0.0
H4565 H 0.1052 0.84757 0.42247 0.0
H4566 H 0.12849 0.86478 0.44503 0.0
H4567 H 0.12355 0.875 0.41411 0.0
H4568 H 0.19891 0.91122 0.49016 0.0
H4569 H 0.19319 0.9413 0.41809 0.0
H4570 H 0.22475 0.8563 0.47167 0.0
H4571 H 0.17664 0.85577 0.47395 0.0
H4572 H 0.20258 0.87166 0.49631 0.0
H4573 H 0.2161 0.89382 0.38337 0.0
H4574 H 0.18903 0.91941 0.38187 0.0
H4575 H 0.16811 0.89186 0.38583 0.0
C4576 C 0.58345 0.81955 0.42475 0.0
C4577 C 0.57986 0.81632 0.45034 0.0
C4578 C 0.58507 0.84177 0.41437 0.0
C4579 C 0.58234 0.86139 0.42982 0.0
C4580 C 0.57814 0.85806 0.45566 0.0
C4581 C 0.57715 0.83572 0.46551 0.0
C4582 C 0.59015 0.84425 0.38684 0.0
C4583 C 0.57495 0.87815 0.47303 0.0
C4584 C 0.61696 0.91939 0.40576 0.0
C4585 C 0.58491 0.9307 0.39916 0.0
C4586 C 0.61657 0.89714 0.416 0.0
C4587 C 0.58336 0.88533 0.41906 0.0
C4588 C 0.55094 0.89669 0.41228 0.0
C4589 C 0.55205 0.91927 0.40298 0.0
C4590 C 0.65181 0.88636 0.42371 0.0
C4591 C 0.51493 0.88487 0.41458 0.0
H4592 H 0.586 0.8047 0.41291 0.0
H4593 H 0.574 0.83341 0.48526 0.0
H4594 H 0.56723 0.85397 0.37885 0.0
H4595 H 0.61508 0.85412 0.38299 0.0
H4596 H 0.59213 0.82747 0.37733 0.0
H4597 H 0.57223 0.87277 0.49263 0.0
H4598 H 0.5991 0.88923 0.47131 0.0
H4599 H 0.55112 0.88864 0.468 0.0
H4600 H 0.64244 0.92816 0.40337 0.0
H4601 H 0.52708 0.92776 0.39807 0.0
H4602 H 0.65617 0.87026 0.41332 0.0
H4603 H 0.65088 0.88192 0.44364 0.0
H4604 H 0.67524 0.89782 0.42047 0.0
H4605 H 0.5154 0.86853 0.40418 0.0
H4606 H 0.49235 0.8955 0.40749 0.0
H4607 H 0.50957 0.88068 0.43423 0.0
C4608 C 0.86198 0.58377 0.14984 0.0
C4609 C 0.83105 0.57012 0.14737 0.0
C4610 C 0.86083 0.60573 0.16064 0.0
C4611 C 0.8278 0.61454 0.16984 0.0
C4612 C 0.79645 0.60063 0.16804 0.0
C4613 C 0.79845 0.57869 0.15695 0.0
C4614 C 0.89518 0.61952 0.16227 0.0
C4615 C 0.76075 0.6089 0.178 0.0
C4616 C 0.83389 0.6622 0.2187 0.0
C4617 C 0.82845 0.68218 0.20479 0.0
C4618 C 0.8335 0.64029 0.2077 0.0
C4619 C 0.82656 0.63789 0.18202 0.0
C4620 C 0.81992 0.65795 0.16795 0.0
C4621 C 0.82095 0.67972 0.17942 0.0
C4622 C 0.8413 0.61968 0.22357 0.0
C4623 C 0.81255 0.65645 0.14057 0.0
H4624 H 0.88753 0.57694 0.14409 0.0
H4625 H 0.77434 0.56829 0.15564 0.0
H4626 H 0.89304 0.63465 0.15002 0.0
H4627 H 0.89941 0.62589 0.18137 0.0
H4628 H 0.91929 0.60951 0.15676 0.0
H4629 H 0.73875 0.59631 0.17502 0.0
H4630 H 0.76313 0.61235 0.19811 0.0
H4631 H 0.75317 0.62521 0.16895 0.0
H4632 H 0.83837 0.66361 0.23839 0.0
H4633 H 0.81668 0.69489 0.16834 0.0
H4634 H 0.86576 0.61078 0.21666 0.0
H4635 H 0.81858 0.6074 0.22243 0.0
H4636 H 0.84573 0.62429 0.24327 0.0
H4637 H 0.8366 0.64944 0.13096 0.0
H4638 H 0.80592 0.67335 0.13241 0.0
H4639 H 0.7898 0.64458 0.13701 0.0
C4640 C 0.4355 0.59013 0.21875 0.0
C4641 C 0.45197 0.57101 0.20774 0.0
C4642 C 0.43595 0.61192 0.20754 0.0
C4643 C 0.45513 0.61542 0.18517 0.0
C4644 C 0.47389 0.59658 0.1747 0.0
C4645 C 0.47171 0.5747 0.18584 0.0
C4646 C 0.41472 0.63108 0.2193 0.0
C4647 C 0.49566 0.59938 0.15134 0.0
C4648 C 0.4229 0.66403 0.143 0.0
C4649 C 0.44676 0.68205 0.14816 0.0
C4650 C 0.42581 0.64243 0.15437 0.0
C4651 C 0.45331 0.63828 0.17199 0.0
C4652 C 0.47773 0.65631 0.17753 0.0
C4653 C 0.47416 0.67784 0.16567 0.0
C4654 C 0.39879 0.6241 0.14777 0.0
C4655 C 0.50753 0.65291 0.19615 0.0
H4656 H 0.42203 0.5882 0.23623 0.0
H4657 H 0.48517 0.56039 0.17708 0.0
H4658 H 0.43262 0.64584 0.2231 0.0
H4659 H 0.39346 0.63702 0.20635 0.0
H4660 H 0.40161 0.6258 0.23686 0.0
H4661 H 0.51171 0.58387 0.14689 0.0
H4662 H 0.47734 0.603 0.1356 0.0
H4663 H 0.51429 0.61412 0.15313 0.0
H4664 H 0.40119 0.66679 0.13037 0.0
H4665 H 0.49291 0.6914 0.17021 0.0
H4666 H 0.38347 0.61899 0.16449 0.0
H4667 H 0.41299 0.60869 0.14085 0.0
H4668 H 0.37932 0.62979 0.13342 0.0
H4669 H 0.49573 0.65026 0.21477 0.0
H4670 H 0.52611 0.66777 0.19701 0.0
H4671 H 0.52335 0.63739 0.19154 0.0
C4672 C 0.16622 0.418 0.94469 0.0
C4673 C 0.19795 0.43077 0.94821 0.0
C4674 C 0.16654 0.39592 0.93408 0.0
C4675 C 0.19959 0.38594 0.92633 0.0
C4676 C 0.23179 0.39891 0.92933 0.0
C4677 C 0.23059 0.42106 0.94008 0.0
C4678 C 0.13132 0.38318 0.93141 0.0
C4679 C 0.26766 0.3893 0.92125 0.0
C4680 C 0.20405 0.32035 0.91845 0.0
C4681 C 0.19899 0.31745 0.89285 0.0
C4682 C 0.20451 0.34233 0.92951 0.0
C4683 C 0.20023 0.36224 0.91474 0.0
C4684 C 0.19558 0.35936 0.88885 0.0
C4685 C 0.19514 0.3372 0.87832 0.0
C4686 C 0.20884 0.34421 0.95716 0.0
C4687 C 0.19046 0.37977 0.87221 0.0
H4688 H 0.14073 0.42546 0.94989 0.0
H4689 H 0.25538 0.43062 0.94251 0.0
H4690 H 0.12829 0.37637 0.91238 0.0
H4691 H 0.13114 0.3684 0.94422 0.0
H4692 H 0.10761 0.39413 0.93564 0.0
H4693 H 0.29031 0.40125 0.92492 0.0
H4694 H 0.27303 0.37301 0.93105 0.0
H4695 H 0.26693 0.38542 0.90117 0.0
H4696 H 0.20674 0.30534 0.93001 0.0
H4697 H 0.19183 0.33537 0.85852 0.0
H4698 H 0.18444 0.35227 0.96529 0.0
H4699 H 0.23213 0.35536 0.96167 0.0
H4700 H 0.21298 0.32732 0.96606 0.0
H4701 H 0.16577 0.38923 0.87771 0.0
H4702 H 0.18793 0.37485 0.85244 0.0
H4703 H 0.21359 0.39165 0.87423 0.0
C4704 C 0.57313 0.3206 0.93078 0.0
C4705 C 0.57838 0.31749 0.95636 0.0
C4706 C 0.57328 0.34266 0.91977 0.0
C4707 C 0.57967 0.36248 0.9344 0.0
C4708 C 0.58453 0.35942 0.96025 0.0
C4709 C 0.58282 0.33729 0.97084 0.0
C4710 C 0.56681 0.34471 0.89233 0.0
C4711 C 0.59231 0.37956 0.97682 0.0
C4712 C 0.61429 0.41766 0.90261 0.0
C4713 C 0.58352 0.43182 0.90226 0.0
C4714 C 0.61351 0.39537 0.91299 0.0
C4715 C 0.58093 0.38634 0.92291 0.0
C4716 C 0.54971 0.40049 0.92233 0.0
C4717 C 0.5515 0.42294 0.91247 0.0
C4718 C 0.64789 0.38155 0.9136 0.0
C4719 C 0.51402 0.39178 0.93187 0.0
H4720 H 0.56939 0.30568 0.91918 0.0
H4721 H 0.58527 0.33553 0.99067 0.0
H4722 H 0.5448 0.35714 0.88871 0.0
H4723 H 0.59145 0.35128 0.88313 0.0
H4724 H 0.55952 0.32809 0.88377 0.0
H4725 H 0.59742 0.37436 0.99625 0.0
H4726 H 0.6163 0.38893 0.9699 0.0
H4727 H 0.56923 0.39163 0.97653 0.0
H4728 H 0.63934 0.42412 0.89504 0.0
H4729 H 0.52736 0.43341 0.91229 0.0
H4730 H 0.64425 0.36541 0.90318 0.0
H4731 H 0.65448 0.37688 0.93297 0.0
H4732 H 0.67113 0.39095 0.90556 0.0
H4733 H 0.50698 0.37553 0.92247 0.0
H4734 H 0.49176 0.40421 0.92893 0.0
H4735 H 0.51607 0.3881 0.95193 0.0
C4736 C 0.25845 0.9875 1.0429 0.0
C4737 C 0.28319 0.00601 1.04731 0.0
C4738 C 0.23211 0.98609 1.02228 0.0
C4739 C 0.2302 0.00234 1.00194 0.0
C4740 C 0.25691 0.02019 1.00535 0.0
C4741 C 0.28079 0.02202 1.02714 0.0
C4742 C 0.20558 0.96664 1.02321 0.0
C4743 C 0.26197 0.03785 0.98543 0.0
C4744 C 0.17504 0.98287 0.9382 0.0
C4745 C 0.14826 1e-05 0.93298 0.0
C4746 C 0.2014 0.98367 0.95888 0.0
C4747 C 0.20142 0.00104 0.97818 0.0
C4748 C 0.17236 0.01718 0.97417 0.0
C4749 C 0.14801 0.01669 0.95256 0.0
C4750 C 0.2306 0.9658 0.95933 0.0
C4751 C 0.16538 0.03502 0.99365 0.0
H4752 H 0.2595 0.97336 0.05547 0.0
H4753 H 0.29898 0.03648 1.0279 0.0
H4754 H 0.18438 0.9677 1.0088 0.0
H4755 H 0.22028 0.95021 1.02133 0.0
H4756 H 0.19203 0.96639 1.04144 0.0
H4757 H 0.29119 0.04109 0.98244 0.0
H4758 H 0.2498 0.03273 0.96752 0.0
H4759 H 0.24976 0.05421 0.99155 0.0
H4760 H 0.17544 0.96817 0.92611 0.0
H4761 H 0.12739 0.02976 0.95137 0.0
H4762 H 0.23387 0.9584 0.97797 0.0
H4763 H 0.25667 0.97394 0.95444 0.0
H4764 H 0.22514 0.95167 0.94617 0.0
H4765 H 0.16771 0.0275 1.01243 0.0
H4766 H 0.13819 0.04281 0.99169 0.0
H4767 H 0.18571 0.04879 0.99204 0.0
C4768 C 0.11986 0.26573 0.94464 0.0
C4769 C 0.12794 0.24591 0.92992 0.0
C4770 C 0.09613 0.26606 0.9667 0.0
C4771 C 0.07685 0.24621 0.976 0.0
C4772 C 0.08483 0.22625 0.96107 0.0
C4773 C 0.11047 0.22617 0.94021 0.0
C4774 C 0.09392 0.28793 0.98124 0.0
C4775 C 0.06594 0.20412 0.96672 0.0
C4776 C 0.03391 0.23464 1.04559 0.0
C4777 C 0.99851 0.24462 1.0467 0.0
C4778 C 0.0591 0.23623 1.02442 0.0
C4779 C 0.04988 0.24611 1.00065 0.0
C4780 C 1.01321 0.25472 1.00095 0.0
C4781 C 0.98952 0.25415 1.02292 0.0
C4782 C 0.09672 0.22722 1.02781 0.0
C4783 C 0.99754 0.26363 0.97717 0.0
H4784 H 0.13353 0.28136 0.93948 0.0
H4785 H 0.11623 0.20999 0.93133 0.0
H4786 H 0.06552 0.29251 0.9852 0.0
H4787 H 0.10754 0.28546 0.99933 0.0
H4788 H 0.10698 0.30242 0.97148 0.0
H4789 H 0.06148 0.19411 0.94953 0.0
H4790 H 0.08317 0.19366 0.97907 0.0
H4791 H 0.03949 0.20692 0.97586 0.0
H4792 H 0.04179 0.22423 0.06101 0.0
H4793 H 0.96235 0.26078 1.021 0.0
H4794 H 0.11624 0.24105 1.02363 0.0
H4795 H 0.10193 0.21308 1.01469 0.0
H4796 H 0.10164 0.22092 1.04685 0.0
H4797 H 1.01134 0.27959 0.97164 0.0
H4798 H 0.96822 0.2673 0.97877 0.0
H4799 H 1.00187 0.25098 0.96215 0.0
C4800 C 0.28466 0.26032 0.32303 0.0
C4801 C 0.28236 0.24469 0.30258 0.0
C4802 C 0.2598 0.26115 0.34436 0.0
C4803 C 0.22908 0.24603 0.34743 0.0
C4804 C 0.22653 0.23021 0.32679 0.0
C4805 C 0.2528 0.22918 0.30624 0.0
C4806 C 0.26767 0.27855 0.36411 0.0
C4807 C 0.19515 0.21393 0.32592 0.0
C4808 C 0.17229 0.22862 0.41054 0.0
C4809 C 0.14881 0.24723 0.41702 0.0
C4810 C 0.19863 0.22857 0.39003 0.0
C4811 C 0.20106 0.24642 0.3715 0.0
C4812 C 0.17494 0.26433 0.37653 0.0
C4813 C 0.15067 0.26452 0.39821 0.0
C4814 C 0.2243 0.20868 0.38875 0.0
C4815 C 0.17087 0.28348 0.35822 0.0
H4816 H 0.30718 0.2721 0.3228 0.0
H4817 H 0.24987 0.21566 0.29273 0.0
H4818 H 0.25334 0.29463 0.35961 0.0
H4819 H 0.25859 0.27264 0.38255 0.0
H4820 H 0.29694 0.28257 0.36498 0.0
H4821 H 0.18924 0.2084 0.3067 0.0
H4822 H 0.20185 0.19843 0.33669 0.0
H4823 H 0.17047 0.22178 0.3339 0.0
H4824 H 0.1704 0.21343 0.42185 0.0
H4825 H 0.13141 0.27828 0.39963 0.0
H4826 H 0.24964 0.21308 0.37891 0.0
H4827 H 0.211 0.19429 0.37905 0.0
H4828 H 0.23129 0.20257 0.40758 0.0
H4829 H 0.18983 0.2974 0.36312 0.0
H4830 H 0.14313 0.2907 0.35857 0.0
H4831 H 0.17697 0.2777 0.33914 0.0
C4832 C 0.98974 0.98773 0.32381 0.0
C4833 C 0.994 0.00203 0.30233 0.0
C4834 C 1.01451 0.98657 0.34531 0.0
C4835 C 0.04715 0.00022 0.34793 0.0
C4836 C 0.05173 0.01463 0.32625 0.0
C4837 C 0.0258 0.01586 0.30542 0.0
C4838 C 1.00448 0.97037 0.36572 0.0
C4839 C 0.08477 0.02948 0.32445 0.0
C4840 C 0.10772 0.01981 0.40908 0.0
C4841 C 0.12689 0.00032 0.41859 0.0
C4842 C 0.0816 0.01964 0.38839 0.0
C4843 C 0.07478 2e-05 0.37254 0.0
C4844 C 0.09611 0.98056 0.38098 0.0
C4845 C 0.12002 0.98085 0.40301 0.0
C4846 C 0.06065 0.04132 0.38426 0.0
C4847 C 0.09558 0.95878 0.36621 0.0
H4848 H 0.96568 0.97724 0.32424 0.0
H4849 H 0.03033 0.0288 0.29174 0.0
H4850 H 0.01725 0.95357 0.36212 0.0
H4851 H 1.01388 0.97671 0.38389 0.0
H4852 H 0.97487 0.96754 0.36647 0.0
H4853 H 0.09459 0.0302 0.30509 0.0
H4854 H 0.0776 0.04715 0.32996 0.0
H4855 H 0.10715 0.02331 0.33633 0.0
H4856 H 0.11231 0.03586 0.41854 0.0
H4857 H 0.13473 0.9654 0.40746 0.0
H4858 H 0.03574 0.03855 0.37328 0.0
H4859 H 0.0781 0.05383 0.37458 0.0
H4860 H 0.05294 0.04905 0.40228 0.0
H4861 H 0.07857 0.94606 0.37595 0.0
H4862 H 0.12321 0.95147 0.36495 0.0
H4863 H 0.08506 0.96128 0.3472 0.0
C4864 C 0.86007 0.97958 0.16046 0.0
C4865 C 0.87705 -8e-05 0.16963 0.0
C4866 C 0.83462 0.97857 0.13945 0.0
C4867 C 0.82631 0.99788 0.1235 0.0
C4868 C 0.84525 0.01819 0.13184 0.0
C4869 C 0.86884 0.01891 0.15381 0.0
C4870 C 0.81612 0.95606 0.13514 0.0
C4871 C 0.84163 0.03989 0.11712 0.0
C4872 C 0.77968 0.98131 0.05613 0.0
C4873 C 0.74862 0.99562 0.05239 0.0
C4874 C 0.80492 0.98261 0.07728 0.0
C4875 C 0.79927 0.99697 0.09889 0.0
C4876 C 0.76605 0.00992 0.09629 0.0
C4877 C 0.74286 0.00937 0.07409 0.0
C4878 C 0.83776 0.9675 0.07623 0.0
C4879 C 0.75181 0.02328 0.11795 0.0
H4880 H 0.86615 0.96386 0.17014 0.0
H4881 H 0.88179 0.03495 0.15839 0.0
H4882 H 0.79162 0.9577 0.12349 0.0
H4883 H 0.83534 0.94413 0.12614 0.0
H4884 H 0.80821 0.94828 0.15305 0.0
H4885 H 0.86565 0.05103 0.11949 0.0
H4886 H 0.83799 0.03631 0.09711 0.0
H4887 H 0.81778 0.04955 0.1238 0.0
H4888 H 0.78404 0.96801 1.04265 0.0
H4889 H 0.7183 0.01943 0.07444 0.0
H4890 H 0.82994 0.94986 0.08141 0.0
H4891 H 0.85963 0.97342 0.08868 0.0
H4892 H 0.84861 0.96668 0.05718 0.0
H4893 H 0.7247 0.0166 0.12276 0.0
H4894 H 0.74853 0.04148 0.11268 0.0
H4895 H 0.76893 0.02207 0.13466 0.0
C4896 C 1.00842 0.73611 0.05671 0.0
C4897 C 0.03591 0.75313 0.05329 0.0
C4898 C 0.98188 0.73555 0.07725 0.0
C4899 C 0.98278 0.75085 0.09855 0.0
C4900 C 1.0121 0.7671 0.09597 0.0
C4901 C 0.03625 0.7682 0.07434 0.0
C4902 C 0.951 0.719 0.07481 0.0
C4903 C 0.01979 0.78368 0.11661 0.0
C4904 C 0.90661 0.76883 0.15099 0.0
C4905 C 0.90268 0.75059 0.16856 0.0
C4906 C 0.93042 0.76889 0.12916 0.0
C4907 C 0.95436 0.75023 0.12254 0.0
C4908 C 0.95016 0.73137 0.13994 0.0
C4909 C 0.92462 0.73148 0.16111 0.0
C4910 C 0.92834 0.78956 0.11267 0.0
C4911 C 0.97271 0.71017 0.13668 0.0
H4912 H 1.00782 0.72237 1.04354 0.0
H4913 H 0.05695 0.78126 0.07443 0.0
H4914 H 0.94294 0.71148 0.09262 0.0
H4915 H 0.92709 0.72841 0.06784 0.0
H4916 H 0.95732 0.70494 0.06172 0.0
H4917 H 1.00964 0.80081 0.11129 0.0
H4918 H 1.00729 0.77857 0.13439 0.0
H4919 H 0.04937 0.78529 0.11949 0.0
H4920 H 0.88985 0.78375 0.15405 0.0
H4921 H 0.92191 0.71597 0.17181 0.0
H4922 H 0.93772 0.78596 0.09358 0.0
H4923 H 0.94518 0.80335 0.12069 0.0
H4924 H 0.90022 0.79609 0.11173 0.0
H4925 H 0.9549 0.69558 0.13194 0.0
H4926 H 0.98605 0.70565 0.15417 0.0
H4927 H 0.99395 0.71195 0.12239 0.0
C4928 C 0.85204 0.76642 0.68656 0.0
C4929 C 0.87559 0.74783 0.68018 0.0
C4930 C 0.82629 0.76678 0.70746 0.0
C4931 C 0.82421 0.74916 0.72646 0.0
C4932 C 0.84994 0.73098 0.72099 0.0
C4933 C 0.87353 0.73047 0.6989 0.0
C4934 C 0.80104 0.7869 0.7085 0.0
C4935 C 0.8548 0.71173 0.73911 0.0
C4936 C 0.77004 0.77013 0.78986 0.0
C4937 C 0.746 0.75233 0.79776 0.0
C4938 C 0.79578 0.76879 0.76904 0.0
C4939 C 0.79709 0.75008 0.75129 0.0
C4940 C 0.77088 0.73259 0.75817 0.0
C4941 C 0.7474 0.73379 0.78032 0.0
C4942 C 0.82208 0.78825 0.7668 0.0
C4943 C 0.76568 0.71213 0.74169 0.0
H4944 H 0.85322 0.78128 0.67469 0.0
H4945 H 0.89201 0.71623 0.6969 0.0
H4946 H 0.77693 0.78359 0.72011 0.0
H4947 H 0.81586 0.80192 0.71578 0.0
H4948 H 0.79184 0.79166 0.68969 0.0
H4949 H 0.88382 0.70719 0.74082 0.0
H4950 H 0.84436 0.71593 0.75779 0.0
H4951 H 0.84068 0.69637 0.73199 0.0
H4952 H 0.7689 0.78593 0.80017 0.0
H4953 H 0.72852 0.71996 0.78339 0.0
H4954 H 0.80789 0.80335 0.75913 0.0
H4955 H 0.8457 0.78399 0.75508 0.0
H4956 H 0.83213 0.7934 0.78527 0.0
H4957 H 0.77647 0.7148 0.72279 0.0
H4958 H 0.73657 0.70778 0.74027 0.0
H4959 H 0.77932 0.69718 0.75014 0.0
C4960 C 0.90417 0.98032 0.70045 0.0
C4961 C 0.90377 0.99695 0.68089 0.0
C4962 C 0.92823 0.98027 0.72213 0.0
C4963 C 0.95652 0.99691 0.72626 0.0
C4964 C 0.95648 0.01398 0.70667 0.0
C4965 C 0.92995 0.01446 0.68608 0.0
C4966 C 0.92203 0.96189 0.74111 0.0
C4967 C 0.98615 0.03159 0.70608 0.0
C4968 C 1.01314 0.01175 0.79054 0.0
C4969 C 0.03711 0.99298 0.7956 0.0
C4970 C 0.98704 0.01286 0.7698 0.0
C4971 C 0.98506 0.99601 0.75004 0.0
C4972 C 1.01111 0.97789 0.75411 0.0
C4973 C 0.03496 0.97656 0.77587 0.0
C4974 C 0.95975 0.03197 0.77013 0.0
C4975 C 0.01533 0.95933 0.73504 0.0
H4976 H 0.88425 0.96683 0.69917 0.0
H4977 H 0.92979 0.02918 0.6741 0.0
H4978 H 0.93683 0.94627 0.73545 0.0
H4979 H 0.93135 0.96706 0.7598 0.0
H4980 H 0.89295 0.95739 0.74223 0.0
H4981 H 0.97607 0.04814 0.6988 0.0
H4982 H 0.99941 0.03433 0.72414 0.0
H4983 H 1.00775 0.02547 0.69365 0.0
H4984 H 0.01491 0.02626 0.80275 0.0
H4985 H 0.0532 0.96213 0.77704 0.0
H4986 H 0.93291 0.02476 0.77475 0.0
H4987 H 0.95668 0.04021 0.75191 0.0
H4988 H 0.96666 0.04535 0.78389 0.0
H4989 H 1.002 0.94359 0.74185 0.0
H4990 H 0.04434 0.9552 0.73236 0.0
H4991 H 1.00365 0.96401 0.71685 0.0
C4992 C 0.28871 0.48979 0.52662 0.0
C4993 C 0.28264 0.50279 0.54887 0.0
C4994 C 0.2647 0.48904 0.50478 0.0
C4995 C 0.23073 0.50132 0.50295 0.0
C4996 C 0.2246 0.51468 0.52523 0.0
C4997 C 0.25019 0.51604 0.54623 0.0
C4998 C 0.27713 0.47528 0.48289 0.0
C4999 C 0.18972 0.52762 0.52734 0.0
C5000 C 0.16972 0.51967 0.44166 0.0
C5001 C 0.15083 0.4999 0.43267 0.0
C5002 C 0.19563 0.52011 0.46245 0.0
C5003 C 0.20308 0.50072 0.47849 0.0
C5004 C 0.18264 0.48088 0.47026 0.0
C5005 C 0.15813 0.48079 0.44861 0.0
C5006 C 0.21577 0.54214 0.46622 0.0
C5007 C 0.18526 0.45893 0.4846 0.0
H5008 H 0.31376 0.48025 0.5258 0.0
H5009 H 0.24463 0.52826 0.56072 0.0
H5010 H 0.26414 0.45825 0.48334 0.0
H5011 H 0.26951 0.48381 0.46535 0.0
H5012 H 0.3068 0.47261 0.48312 0.0
H5013 H 0.18507 0.53427 0.54629 0.0
H5014 H 0.18981 0.54233 0.51454 0.0
H5015 H 0.16702 0.51627 0.52208 0.0
H5016 H 0.16484 0.53549 0.43184 0.0
H5017 H 0.14344 0.46529 0.44475 0.0
H5018 H 0.23866 0.54052 0.47931 0.0
H5019 H 0.19679 0.55538 0.47305 0.0
H5020 H 0.22642 0.5483 0.44822 0.0
H5021 H 0.20245 0.44675 0.47417 0.0
H5022 H 0.15819 0.45096 0.48641 0.0
H5023 H 0.19675 0.46134 0.50336 0.0
C5024 C 0.128 0.76416 0.45015 0.0
C5025 C 0.13015 0.74634 0.43194 0.0
C5026 C 0.10512 0.76384 0.47258 0.0
C5027 C 0.07935 0.74578 0.47845 0.0
C5028 C 0.08166 0.72773 0.45996 0.0
C5029 C 0.10777 0.72757 0.43937 0.0
C5030 C 0.1115 0.78288 0.49076 0.0
C5031 C 0.0561 0.70778 0.46104 0.0
C5032 C 0.02283 0.72505 0.54077 0.0
C5033 C 0.99882 0.74303 0.54817 0.0
C5034 C 0.04948 0.72632 0.52054 0.0
C5035 C 0.05198 0.74521 0.50308 0.0
C5036 C 0.02654 0.76315 0.50997 0.0
C5037 C 1.00191 0.76192 0.53144 0.0
C5038 C 0.07577 0.70675 0.51886 0.0
C5039 C 0.02389 0.78436 0.49443 0.0
H5040 H 0.14618 0.77847 0.44765 0.0
H5041 H 0.10997 0.71211 0.42848 0.0
H5042 H 0.10056 0.77909 0.50939 0.0
H5043 H 0.14089 0.78621 0.49262 0.0
H5044 H 0.09923 0.79881 0.4835 0.0
H5045 H 0.04603 0.70357 0.44229 0.0
H5046 H 0.07089 0.69248 0.46764 0.0
H5047 H 0.03237 0.71103 0.47301 0.0
H5048 H 0.02134 0.70937 0.5513 0.0
H5049 H 0.98366 0.77608 0.53464 0.0
H5050 H 0.09977 0.71083 0.50745 0.0
H5051 H 0.06177 0.69159 0.51119 0.0
H5052 H 0.08522 0.7018 0.53754 0.0
H5053 H 0.04155 0.79771 0.50244 0.0
H5054 H 0.9962 0.79143 0.49503 0.0
H5055 H 0.03165 0.78123 0.4749 0.0
C5056 C 0.28909 0.75751 0.82474 0.0
C5057 C 0.28182 0.7452 0.8022 0.0
C5058 C 0.26542 0.75844 0.84673 0.0
C5059 C 0.23087 0.74691 0.84844 0.0
C5060 C 0.22325 0.7345 0.82579 0.0
C5061 C 0.24837 0.733 0.80459 0.0
C5062 C 0.27846 0.77182 0.86874 0.0
C5063 C 0.18732 0.72275 0.82351 0.0
C5064 C 0.17216 0.72723 0.90979 0.0
C5065 C 0.15357 0.74676 0.91963 0.0
C5066 C 0.19764 0.72738 0.88885 0.0
C5067 C 0.20419 0.74711 0.87326 0.0
C5068 C 0.184 0.76678 0.8823 0.0
C5069 C 0.16042 0.7664 0.9044 0.0
C5070 C 0.21825 0.70562 0.88427 0.0
C5071 C 0.18587 0.78896 0.86834 0.0
H5072 H 0.31472 0.76637 0.82562 0.0
H5073 H 0.24188 0.72122 0.78996 0.0
H5074 H 0.26479 0.78865 0.8691 0.0
H5075 H 0.27191 0.76283 0.88623 0.0
H5076 H 0.30797 0.77496 0.86791 0.0
H5077 H 0.18262 0.71593 0.80464 0.0
H5078 H 0.1858 0.70836 0.83669 0.0
H5079 H 0.16529 0.73489 0.82818 0.0
H5080 H 0.16745 0.71112 0.91908 0.0
H5081 H 0.14609 0.7819 0.90927 0.0
H5082 H 0.24218 0.70815 0.87227 0.0
H5083 H 0.20006 0.69287 0.87563 0.0
H5084 H 0.22744 0.69825 0.90212 0.0
H5085 H 0.20355 0.80098 0.87858 0.0
H5086 H 0.15869 0.79695 0.8673 0.0
H5087 H 0.19645 0.78683 0.84929 0.0
C5088 C 0.12979 0.48215 0.89785 0.0
C5089 C 0.12921 0.49851 0.91768 0.0
C5090 C 0.10662 0.48261 0.87555 0.0
C5091 C 0.07837 0.49947 0.87113 0.0
C5092 C 0.07763 0.51597 0.89126 0.0
C5093 C 0.10362 0.5162 0.91197 0.0
C5094 C 0.11455 0.46483 0.85621 0.0
C5095 C 0.04873 0.53407 0.8918 0.0
C5096 C 0.02288 0.52248 0.8096 0.0
C5097 C 0.99993 0.5046 0.80062 0.0
C5098 C 0.04847 0.52065 0.83032 0.0
C5099 C 0.05175 0.50069 0.84617 0.0
C5100 C 0.02822 0.48242 0.83718 0.0
C5101 C 1.00424 0.48444 0.81537 0.0
C5102 C 0.07302 0.54082 0.83418 0.0
C5103 C 0.02695 0.45998 0.85067 0.0
H5104 H 0.15015 0.46891 0.89911 0.0
H5105 H 0.10365 0.53102 0.92391 0.0
H5106 H 0.10176 0.44849 0.8617 0.0
H5107 H 0.10464 0.46984 0.83764 0.0
H5108 H 0.14402 0.46154 0.85511 0.0
H5109 H 0.06096 0.55091 0.88761 0.0
H5110 H 0.02632 0.53062 0.87874 0.0
H5111 H 0.03697 0.53536 0.91058 0.0
H5112 H 0.02166 0.53854 0.79971 0.0
H5113 H 0.98773 0.4699 0.81036 0.0
H5114 H 0.09674 0.53677 0.84588 0.0
H5115 H 0.05743 0.55496 0.84273 0.0
H5116 H 0.08299 0.5472 0.81609 0.0
H5117 H 0.04305 0.44723 0.84021 0.0
H5118 H 0.99884 0.45344 0.85142 0.0
H5119 H 0.03748 0.46123 0.8698 0.0
C5120 C 0.77269 0.47524 0.55982 0.0
C5121 C 0.75334 0.49391 0.54874 0.0
C5122 C 0.79693 0.47673 0.5814 0.0
C5123 C 0.80231 0.49728 0.59585 0.0
C5124 C 0.7817 0.51617 0.58541 0.0
C5125 C 0.75931 0.51449 0.56269 0.0
C5126 C 0.81718 0.45546 0.58857 0.0
C5127 C 0.78164 0.53853 0.59914 0.0
C5128 C 0.84283 0.48814 0.66674 0.0
C5129 C 0.87715 0.4995 0.66869 0.0
C5130 C 0.81853 0.48859 0.64499 0.0
C5131 C 0.82787 0.49859 0.62125 0.0
C5132 C 0.86376 0.50842 0.6223 0.0
C5133 C 0.88632 0.50904 0.64489 0.0
C5134 C 0.78242 0.47721 0.64773 0.0
C5135 C 0.88026 0.51686 0.59856 0.0
H5136 H 0.76952 0.45874 0.55103 0.0
H5137 H 0.74508 0.52957 0.55642 0.0
H5138 H 0.8442 0.4596 0.59624 0.0
H5139 H 0.80163 0.44619 0.6029 0.0
H5140 H 0.82071 0.44384 0.57251 0.0
H5141 H 0.76139 0.55067 0.59162 0.0
H5142 H 0.77578 0.53555 0.61902 0.0
H5143 H 0.80858 0.54661 0.59795 0.0
H5144 H 0.83529 0.47711 0.68174 0.0
H5145 H 0.91299 0.51648 0.64341 0.0
H5146 H 0.78541 0.45867 0.64411 0.0
H5147 H 0.76222 0.48429 0.63467 0.0
H5148 H 0.77209 0.47922 0.66688 0.0
H5149 H 0.88189 0.50251 0.58516 0.0
H5150 H 0.90777 0.52394 0.60131 0.0
H5151 H 0.86306 0.53017 0.59007 0.0
C5152 C 1.00372 0.26726 0.55711 0.0
C5153 C 0.03337 0.25203 0.55235 0.0
C5154 C 0.97871 0.26584 0.57835 0.0
C5155 C 0.9833 0.25023 0.59893 0.0
C5156 C 0.01543 0.23639 0.59553 0.0
C5157 C 0.03834 0.23711 0.57318 0.0
C5158 C 0.94739 0.2822 0.57883 0.0
C5159 C 0.02826 0.22202 0.61685 0.0
C5160 C 0.92868 0.26728 0.66299 0.0
C5161 C 0.90623 0.24839 0.67 0.0
C5162 C 0.95422 0.26753 0.64207 0.0
C5163 C 0.95682 0.24946 0.62376 0.0
C5164 C 0.93181 0.2311 0.62947 0.0
C5165 C 0.90844 0.23069 0.65164 0.0
C5166 C 0.97855 0.28799 0.64002 0.0
C5167 C 0.92702 0.21231 0.61074 0.0
H5168 H 1.00014 0.28115 0.54422 0.0
H5169 H 0.062 0.22624 0.57265 0.0
H5170 H 0.92384 0.27494 0.58878 0.0
H5171 H 0.95579 0.29814 0.58825 0.0
H5172 H 0.93884 0.28691 0.55989 0.0
H5173 H 0.05617 0.21558 0.61402 0.0
H5174 H 0.02768 0.23234 0.63405 0.0
H5175 H 1.01027 0.20716 0.61954 0.0
H5176 H 0.92675 0.28248 0.67433 0.0
H5177 H 0.8902 0.2164 0.65398 0.0
H5178 H 0.96332 0.30229 0.63155 0.0
H5179 H 1.00295 0.28446 0.62874 0.0
H5180 H 0.98724 0.29379 0.65865 0.0
H5181 H 0.91814 0.21982 0.59289 0.0
H5182 H 0.90681 0.19944 0.6167 0.0
H5183 H 0.95291 0.20348 0.60724 0.0
C5184 C 0.77474 0.26908 0.2909 0.0
C5185 C 0.74821 0.25231 0.29769 0.0
C5186 C 0.79982 0.26752 0.26972 0.0
C5187 C 0.79794 0.25001 0.25081 0.0
C5188 C 0.7693 0.23386 0.2564 0.0
C5189 C 0.74643 0.23499 0.27881 0.0
C5190 C 0.82889 0.28534 0.2677 0.0
C5191 C 0.76099 0.21516 0.23814 0.0
C5192 C 0.84788 0.26403 0.18382 0.0
C5193 C 0.87593 0.24736 0.17998 0.0
C5194 C 0.8225 0.26443 0.20498 0.0
C5195 C 0.82456 0.249 0.226 0.0
C5196 C 0.85377 0.23282 0.22277 0.0
C5197 C 0.87757 0.23219 0.20089 0.0
C5198 C 0.79298 0.28207 0.20438 0.0
C5199 C 0.86123 0.21619 0.24335 0.0
H5200 H 0.77582 0.28426 0.30216 0.0
H5201 H 0.72548 0.22225 0.28094 0.0
H5202 H 0.85453 0.27769 0.261 0.0
H5203 H 0.82039 0.29862 0.25436 0.0
H5204 H 0.83399 0.29385 0.28568 0.0
H5205 H 0.73143 0.21214 0.23713 0.0
H5206 H 0.77107 0.2191 0.2193 0.0
H5207 H 0.77363 0.19904 0.24454 0.0
H5208 H 0.84598 0.27776 0.17055 0.0
H5209 H 0.89891 0.21954 0.20053 0.0
H5210 H 0.8031 0.29816 0.21265 0.0
H5211 H 0.76879 0.27644 0.21484 0.0
H5212 H 0.78484 0.2859 0.18506 0.0
H5213 H 0.86501 0.22559 0.26101 0.0
H5214 H 0.88557 0.2056 0.23976 0.0
H5215 H 0.8378 0.20466 0.24575 0.0
C5216 C 0.90918 0.51822 0.19742 0.0
C5217 C 0.90138 0.49913 0.18154 0.0
C5218 C 0.93362 0.51785 0.21912 0.0
C5219 C 0.95442 0.49795 0.22698 0.0
C5220 C 0.94685 0.47874 0.21064 0.0
C5221 C 0.92023 0.47927 0.1903 0.0
C5222 C 0.93543 0.53947 0.23412 0.0
C5223 C 0.96763 0.45682 0.21357 0.0
C5224 C 0.03762 0.51045 0.2771 0.0
C5225 C 0.0343 0.49478 0.29748 0.0
C5226 C 1.01365 0.51157 0.25519 0.0
C5227 C 0.98222 0.497 0.25146 0.0
C5228 C 0.97903 0.48094 0.2719 0.0
C5229 C 1.00485 0.47942 0.29273 0.0
C5230 C 0.02397 0.52841 0.23542 0.0
C5231 C 0.94786 0.46449 0.27229 0.0
H5232 H 0.89479 0.53391 0.19345 0.0
H5233 H 0.91496 0.46347 0.1805 0.0
H5234 H 0.94585 0.53658 0.25309 0.0
H5235 H 0.95313 0.55187 0.22448 0.0
H5236 H 0.90828 0.54743 0.23552 0.0
H5237 H 0.97633 0.45042 0.19518 0.0
H5238 H 0.99195 0.45875 0.22533 0.0
H5239 H 0.94963 0.44362 0.22156 0.0
H5240 H 0.06052 0.52193 0.27772 0.0
H5241 H 1.00177 0.46539 0.3055 0.0
H5242 H 1.01414 0.54561 0.24078 0.0
H5243 H 1.0126 0.52384 0.21711 0.0
H5244 H 0.05379 0.5296 0.23373 0.0
H5245 H 0.92483 0.47033 0.26081 0.0
H5246 H 0.93807 0.46196 0.2914 0.0
H5247 H 0.95719 0.44758 0.26565 0.0
C5248 C 0.7929 0.99291 0.52184 0.0
C5249 C 0.78443 0.00264 0.54569 0.0
C5250 C 0.76863 0.99198 0.50005 0.0
C5251 C 0.73192 0.00064 0.49983 0.0
C5252 C 0.72321 0.01079 0.52362 0.0
C5253 C 0.74887 0.01254 0.54462 0.0
C5254 C 0.78347 0.98219 0.47641 0.0
C5255 C 0.68556 0.01979 0.52736 0.0
C5256 C 0.67085 0.01741 0.43782 0.0
C5257 C 0.65148 0.99737 0.42995 0.0
C5258 C 0.69671 0.01846 0.45875 0.0
C5259 C 0.70407 -0.00044 0.47549 0.0
C5260 C 0.68347 0.97959 0.46821 0.0
C5261 C 0.65886 0.97882 0.44666 0.0
C5262 C 0.71668 0.04051 0.46276 0.0
C5263 C 0.68642 0.9585 0.48395 0.0
H5264 H 0.81999 0.98622 0.51973 0.0
H5265 H 0.74115 0.02303 0.56001 0.0
H5266 H 0.76967 0.96592 0.472 0.0
H5267 H 0.77821 0.99409 0.46085 0.0
H5268 H 0.81289 0.97878 0.47762 0.0
H5269 H 0.68276 0.02944 0.54492 0.0
H5270 H 0.67745 0.03098 0.51182 0.0
H5271 H 0.66647 0.00518 0.52767 0.0
H5272 H 0.6659 0.03287 0.42739 0.0
H5273 H 0.64446 0.96307 0.44308 0.0
H5274 H 0.74548 0.03713 0.46712 0.0
H5275 H 0.70474 0.04977 0.47867 0.0
H5276 H 0.71519 0.05179 0.44629 0.0
H5277 H 0.71405 0.95136 0.4826 0.0
H5278 H 0.66698 0.94505 0.47829 0.0
H5279 H 0.6816 0.96292 0.50365 0.0
C5280 C 0.53065 0.24012 0.54604 0.0
C5281 C 0.49327 0.24683 0.54507 0.0
C5282 C 0.55677 0.241 0.52522 0.0
C5283 C 0.54787 0.24805 0.50019 0.0
C5284 C 0.51013 0.25447 0.49884 0.0
C5285 C 0.48475 0.25361 0.52004 0.0
C5286 C 0.59484 0.23371 0.53036 0.0
C5287 C 0.49559 0.26173 0.47412 0.0
C5288 C 0.62059 0.26735 0.44514 0.0
C5289 C 0.63022 0.24737 0.43101 0.0
C5290 C 0.59554 0.26783 0.46661 0.0
C5291 C 0.57645 0.24796 0.47613 0.0
C5292 C 0.5862 0.2278 0.46199 0.0
C5293 C 0.61273 0.22765 0.4415 0.0
C5294 C 0.59124 0.29005 0.48027 0.0
C5295 C 0.56833 0.20557 0.46854 0.0
H5296 H 0.53986 0.23281 0.56298 0.0
H5297 H 0.45686 0.25819 0.5166 0.0
H5298 H 0.59848 0.21575 0.52434 0.0
H5299 H 0.61412 0.24448 0.5199 0.0
H5300 H 0.60139 0.23475 0.55034 0.0
H5301 H 0.46691 0.26711 0.47521 0.0
H5302 H 0.51162 0.2761 0.4666 0.0
H5303 H 0.49825 0.24735 0.46086 0.0
H5304 H 0.63394 0.28308 0.43995 0.0
H5305 H 0.61944 0.21136 0.43318 0.0
H5306 H 0.60322 0.2883 0.499 0.0
H5307 H 0.5623 0.29422 0.48279 0.0
H5308 H 0.60466 0.30445 0.4706 0.0
H5309 H 0.58035 0.19883 0.48582 0.0
H5310 H 0.5718 0.19257 0.45376 0.0
H5311 H 0.53902 0.20818 0.47183 0.0
C5312 C 0.75792 0.22736 0.80879 0.0
C5313 C 0.78585 0.24383 0.80381 0.0
C5314 C 0.73182 0.22824 0.82958 0.0
C5315 C 0.73257 0.24516 0.84936 0.0
C5316 C 0.7618 0.26131 0.84501 0.0
C5317 C 0.78659 0.26044 0.82349 0.0
C5318 C 0.7027 0.21034 0.82968 0.0
C5319 C 0.76857 0.27995 0.86361 0.0
C5320 C 0.65474 0.26363 0.90156 0.0
C5321 C 0.65254 0.24595 0.92 0.0
C5322 C 0.67857 0.26345 0.8795 0.0
C5323 C 0.70464 0.24552 0.87386 0.0
C5324 C 0.70217 0.22753 0.89233 0.0
C5325 C 0.67598 0.22742 0.91302 0.0
C5326 C 0.67376 0.28257 0.86127 0.0
C5327 C 0.7276 0.20755 0.89079 0.0
H5328 H 0.75603 0.21317 0.79601 0.0
H5329 H 0.80784 0.2731 0.82249 0.0
H5330 H 0.71389 0.19424 0.83726 0.0
H5331 H 0.67897 0.21553 0.84086 0.0
H5332 H 0.69352 0.20663 0.81055 0.0
H5333 H 0.79797 0.28307 0.86575 0.0
H5334 H 0.75647 0.29606 0.8567 0.0
H5335 H 0.75696 0.276 0.88201 0.0
H5336 H 0.63614 0.27777 0.90372 0.0
H5337 H 0.67426 0.21211 0.92415 0.0
H5338 H 0.67872 0.27658 0.84215 0.0
H5339 H 0.69317 0.2964 0.86556 0.0
H5340 H 0.64613 0.28991 0.86225 0.0
H5341 H 0.71358 0.19304 0.88178 0.0
H5342 H 0.73555 0.20181 0.90958 0.0
H5343 H 0.75244 0.21163 0.88022 0.0
C5344 C 0.49673 0.98556 0.8201 0.0
C5345 C 0.49348 0.00478 0.80368 0.0
C5346 C 0.52103 0.98423 0.84183 0.0
C5347 C 0.54633 0.00207 0.84884 0.0
C5348 C 0.54339 0.02137 0.83215 0.0
C5349 C 0.51659 0.02295 0.81199 0.0
C5350 C 0.51752 0.96381 0.85852 0.0
C5351 C 0.56999 0.04067 0.83485 0.0
C5352 C 0.59749 0.01493 0.91557 0.0
C5353 C 0.62722 -0.00062 0.91839 0.0
C5354 C 0.57091 0.01484 0.8951 0.0
C5355 C 0.57435 0.00095 0.87297 0.0
C5356 C 0.60639 0.98667 0.87453 0.0
C5357 C 0.63062 0.98585 0.89626 0.0
C5358 C 0.53739 0.02913 0.89829 0.0
C5359 C 0.61695 0.97241 0.85254 0.0
H5360 H 0.47866 0.97139 0.81661 0.0
H5361 H 0.51432 0.03896 0.8022 0.0
H5362 H 0.54404 0.95549 0.86117 0.0
H5363 H 0.50805 0.96952 0.87701 0.0
H5364 H 0.49824 0.95097 0.85118 0.0
H5365 H 0.569 0.05258 0.81891 0.0
H5366 H 0.56437 0.05065 0.8518 0.0
H5367 H 0.5978 0.03373 0.8365 0.0
H5368 H 0.59504 0.02799 0.92951 0.0
H5369 H 0.65396 0.97475 0.89528 0.0
H5370 H 0.51535 0.01788 0.90492 0.0
H5371 H 0.52779 0.03661 0.88074 0.0
H5372 H 0.54139 0.04301 0.91201 0.0
H5373 H 0.60538 0.95505 0.85444 0.0
H5374 H 0.64672 0.97041 0.85151 0.0
H5375 H 0.60719 0.97999 0.83499 0.0
C5376 C 0.2429 0.97877 0.57536 0.0
C5377 C 0.24108 0.99458 0.55499 0.0
C5378 C 0.26777 0.98007 0.59668 0.0
C5379 C 0.29549 0.99735 0.59956 0.0
C5380 C 0.29349 0.0138 0.57944 0.0
C5381 C 0.26656 0.0128 0.55909 0.0
C5382 C 0.26294 0.96273 0.61698 0.0
C5383 C 0.3212 0.03263 0.57866 0.0
C5384 C 0.35185 0.01509 0.6634 0.0
C5385 C 0.37946 0.99818 0.66767 0.0
C5386 C 0.32471 0.01455 0.64313 0.0
C5387 C 0.32499 0.99812 0.62293 0.0
C5388 C 0.35482 0.98232 0.62586 0.0
C5389 C 0.37979 0.98235 0.64721 0.0
C5390 C 0.29394 0.03134 0.64449 0.0
C5391 C 0.36264 0.96587 0.60514 0.0
H5392 H 0.22358 0.9649 0.57504 0.0
H5393 H 0.26556 0.02693 0.54631 0.0
H5394 H 0.28231 0.94851 0.61435 0.0
H5395 H 0.26802 0.97045 0.63542 0.0
H5396 H 0.23531 0.95538 0.61684 0.0
H5397 H 0.3146 0.04576 0.56459 0.0
H5398 H 0.32421 0.0412 0.59674 0.0
H5399 H 0.34797 0.0251 0.57435 0.0
H5400 H 0.35143 0.02949 0.67582 0.0
H5401 H 0.40103 0.96964 0.64744 0.0
H5402 H 0.27082 0.02286 0.65366 0.0
H5403 H 0.28387 0.0366 0.62613 0.0
H5404 H 0.30142 0.0468 0.65521 0.0
H5405 H 0.33765 0.95815 0.5977 0.0
H5406 H 0.38116 0.95198 0.61101 0.0
H5407 H 0.37546 0.97541 0.58975 0.0
C5408 C 0.39284 0.76477 0.64517 0.0
C5409 C 0.39695 0.75106 0.66703 0.0
C5410 C 0.41645 0.76431 0.62336 0.0
C5411 C 0.44902 0.75081 0.62183 0.0
C5412 C 0.45323 0.73644 0.64351 0.0
C5413 C 0.42705 0.73583 0.66415 0.0
C5414 C 0.4048 0.77786 0.60106 0.0
C5415 C 0.48649 0.72175 0.64584 0.0
C5416 C 0.50846 0.73536 0.55945 0.0
C5417 C 0.52921 0.75527 0.55327 0.0
C5418 C 0.48227 0.73397 0.58 0.0
C5419 C 0.47732 0.7519 0.59826 0.0
C5420 C 0.5005 0.77118 0.59328 0.0
C5421 C 0.524 0.77279 0.57151 0.0
C5422 C 0.45842 0.71318 0.58141 0.0
C5423 C 0.50187 0.79044 0.61173 0.0
H5424 H 0.36955 0.77595 0.6446 0.0
H5425 H 0.42986 0.7225 0.67763 0.0
H5426 H 0.41954 0.79428 0.60054 0.0
H5427 H 0.4108 0.76843 0.58371 0.0
H5428 H 0.37545 0.78176 0.60157 0.0
H5429 H 0.48033 0.70557 0.65565 0.0
H5430 H 0.49936 0.71779 0.62791 0.0
H5431 H 0.50698 0.73116 0.6567 0.0
H5432 H 0.51271 0.72036 0.54825 0.0
H5433 H 0.53951 0.7883 0.56913 0.0
H5434 H 0.42995 0.71845 0.57846 0.0
H5435 H 0.45962 0.70514 0.59988 0.0
H5436 H 0.46571 0.70012 0.56739 0.0
H5437 H 0.47894 0.8022 0.60853 0.0
H5438 H 0.52717 0.80047 0.60997 0.0
H5439 H 0.49992 0.78387 0.63095 0.0
C5440 C 0.34615 0.73427 0.1857 0.0
C5441 C 0.37472 0.75047 0.18158 0.0
C5442 C 0.32027 0.73484 0.20666 0.0
C5443 C 0.32325 0.75024 0.22766 0.0
C5444 C 0.35429 0.765 0.22488 0.0
C5445 C 0.37753 0.76535 0.20275 0.0
C5446 C 0.28808 0.71922 0.20533 0.0
C5447 C 0.36472 0.78034 0.24607 0.0
C5448 C 0.24532 0.77033 0.27763 0.0
C5449 C 0.24293 0.75366 0.2971 0.0
C5450 C 0.26933 0.7692 0.25593 0.0
C5451 C 0.29516 0.75106 0.25166 0.0
C5452 C 0.29287 0.73391 0.27105 0.0
C5453 C 0.26692 0.73491 0.2919 0.0
C5454 C 0.2657 0.78767 0.23674 0.0
C5455 C 0.31921 0.7143 0.27042 0.0
H5456 H 0.34414 0.72031 0.17279 0.0
H5457 H 0.39955 0.7775 0.20252 0.0
H5458 H 0.2779 0.71408 0.2237 0.0
H5459 H 0.26568 0.72864 0.19636 0.0
H5460 H 0.29408 0.70365 0.19435 0.0
H5461 H 0.39411 0.78411 0.24587 0.0
H5462 H 0.35017 0.7968 0.24444 0.0
H5463 H 0.35777 0.77254 0.26417 0.0
H5464 H 0.22713 0.78476 0.27902 0.0
H5465 H 0.26527 0.72036 0.30407 0.0
H5466 H 0.26707 0.78033 0.21782 0.0
H5467 H 0.28818 0.79998 0.23878 0.0
H5468 H 0.23995 0.79722 0.2387 0.0
H5469 H 0.31899 0.70556 0.25229 0.0
H5470 H 0.31354 0.70145 0.28498 0.0
H5471 H 0.34694 0.72104 0.27305 0.0
C5472 C 0.52692 0.97516 0.27971 0.0
C5473 C 0.53145 0.99241 0.29838 0.0
C5474 C 0.50389 0.97706 0.25763 0.0
C5475 C 0.48123 0.99657 0.25241 0.0
C5476 C 0.48529 0.01408 0.27122 0.0
C5477 C 0.51025 0.01219 0.29244 0.0
C5478 C 0.50469 0.95778 0.2392 0.0
C5479 C 0.46158 0.03493 0.26985 0.0
C5480 C 0.43531 0.01242 0.18482 0.0
C5481 C 0.40276 -0.00071 0.18248 0.0
C5482 C 0.46071 0.01115 0.20594 0.0
C5483 C 0.4538 0.99816 0.22832 0.0
C5484 C 0.41946 0.98661 0.22699 0.0
C5485 C 0.39623 0.98682 0.20498 0.0
C5486 C 0.49607 0.02366 0.20391 0.0
C5487 C 0.40594 0.9742 0.24955 0.0
H5488 H 0.54236 0.95961 0.2821 0.0
H5489 H 0.51312 0.02675 0.3044 0.0
H5490 H 0.47859 0.94857 0.23953 0.0
H5491 H 0.50847 0.96461 0.22023 0.0
H5492 H 0.52658 0.94534 0.24317 0.0
H5493 H 0.4717 0.04896 0.28179 0.0
H5494 H 0.45905 0.04132 0.25068 0.0
H5495 H 0.43404 0.03024 0.27613 0.0
H5496 H 0.44107 0.02432 0.17025 0.0
H5497 H 0.37144 0.97706 0.2058 0.0
H5498 H 0.5186 0.01116 0.20481 0.0
H5499 H 0.49958 0.0356 0.2196 0.0
H5500 H 0.4983 0.03352 0.18648 0.0
H5501 H 0.41976 0.95748 0.25113 0.0
H5502 H 0.3764 0.97102 0.24862 0.0
H5503 H 0.41185 0.98412 0.26659 0.0
C5504 C 0.64627 0.48514 0.95493 0.0
C5505 C 0.64913 0.49849 0.9326 0.0
C5506 C 0.67097 0.48598 0.97641 0.0
C5507 C 0.70278 0.50034 0.97771 0.0
C5508 C 0.70602 0.51396 0.95532 0.0
C5509 C 0.67952 0.51368 0.93473 0.0
C5510 C 0.66084 0.4721 0.99879 0.0
C5511 C 0.73812 0.52948 0.95265 0.0
C5512 C 0.75861 0.52184 1.03995 0.0
C5513 C 0.78285 0.50402 1.04771 0.0
C5514 C 0.73238 0.52037 1.01939 0.0
C5515 C 0.73076 0.50159 1.00192 0.0
C5516 C 0.7575 0.48434 1.00818 0.0
C5517 C 0.7814 0.48551 1.03015 0.0
C5518 C 0.70578 0.5396 1.01655 0.0
C5519 C 0.76257 0.46461 0.99065 0.0
H5520 H 0.62312 0.4739 0.95612 0.0
H5521 H 0.68216 0.52663 0.92076 0.0
H5522 H 0.68487 0.46516 1.00837 0.0
H5523 H 0.64658 0.48336 1.01211 0.0
H5524 H 0.64261 0.45775 0.99391 0.0
H5525 H 0.74547 0.53174 0.93292 0.0
H5526 H 0.73132 0.54656 0.96015 0.0
H5527 H 0.762 0.52278 0.96271 0.0
H5528 H 0.76001 0.53768 1.05016 0.0
H5529 H 0.80056 0.47178 1.03298 0.0
H5530 H 0.67856 0.53286 1.01199 0.0
H5531 H 0.71445 0.55088 1.00126 0.0
H5532 H 0.70386 0.55012 1.03359 0.0
H5533 H 0.73994 0.4524 0.99269 0.0
H5534 H 0.7882 0.45531 0.99418 0.0
H5535 H 0.76256 0.47073 0.97121 0.0
C5536 C 0.6312 0.76153 0.95349 0.0
C5537 C 0.62716 0.74745 0.93187 0.0
C5538 C 0.60766 0.76125 0.97563 0.0
C5539 C 0.57533 0.74732 0.97822 0.0
C5540 C 0.57128 0.73289 0.95657 0.0
C5541 C 0.59744 0.73204 0.93589 0.0
C5542 C 0.62016 0.77526 0.99711 0.0
C5543 C 0.53827 0.71803 0.95429 0.0
C5544 C 0.51663 0.72514 1.0388 0.0
C5545 C 0.49435 0.74346 1.04779 0.0
C5546 C 0.54309 0.7266 1.01846 0.0
C5547 C 0.54802 0.74656 1.00292 0.0
C5548 C 0.52529 0.76526 1.01166 0.0
C5549 C 0.50033 0.76365 1.03313 0.0
C5550 C 0.56678 0.70607 1.01419 0.0
C5551 C 0.52673 0.78763 0.99804 0.0
H5552 H 0.65477 0.77248 0.95385 0.0
H5553 H 0.59513 0.71794 0.92331 0.0
H5554 H 0.61318 0.79344 0.99396 0.0
H5555 H 0.60789 0.76943 1.01466 0.0
H5556 H 0.65003 0.7742 0.99855 0.0
H5557 H 0.52026 0.72541 0.94011 0.0
H5558 H 0.54588 0.70058 0.94818 0.0
H5559 H 0.52195 0.71698 0.97135 0.0
H5560 H 0.5142 0.70902 1.04845 0.0
H5561 H 0.48457 0.77857 1.03802 0.0
H5562 H 0.59384 0.7111 1.00727 0.0
H5563 H 0.55402 0.69469 1.00033 0.0
H5564 H 0.57028 0.69605 1.03145 0.0
H5565 H 0.55035 0.79752 1.00465 0.0
H5566 H 0.50221 0.79809 1.00144 0.0
H5567 H 0.52977 0.78488 0.97782 0.0
C5568 C 0.64416 0.75937 0.39625 0.0
C5569 C 0.65066 0.74924 0.42008 0.0
C5570 C 0.66889 0.75889 0.37476 0.0
C5571 C 0.70431 0.74828 0.3746 0.0
C5572 C 0.71133 0.73799 0.39852 0.0
C5573 C 0.68509 0.73763 0.41925 0.0
C5574 C 0.65564 0.76929 0.35129 0.0
C5575 C 0.74714 0.72647 0.40266 0.0
C5576 C 0.76157 0.72656 0.31267 0.0
C5577 C 0.78443 0.74486 0.30427 0.0
C5578 C 0.7362 0.7276 0.33385 0.0
C5579 C 0.73212 0.7472 0.35013 0.0
C5580 C 0.75596 0.76553 0.34226 0.0
C5581 C 0.78079 0.76409 0.32076 0.0
C5582 C 0.71304 0.70705 0.33875 0.0
C5583 C 0.75596 0.78722 0.35714 0.0
H5584 H 0.61811 0.76749 0.39388 0.0
H5585 H 0.69145 0.72645 0.43419 0.0
H5586 H 0.6688 0.78606 0.34841 0.0
H5587 H 0.66291 0.75793 0.33568 0.0
H5588 H 0.62593 0.77189 0.35151 0.0
H5589 H 0.7554 0.72774 0.42236 0.0
H5590 H 0.74469 0.70811 0.39796 0.0
H5591 H 0.76871 0.73404 0.39101 0.0
H5592 H 0.76327 0.71076 0.30231 0.0
H5593 H 0.7981 0.77857 0.31698 0.0
H5594 H 0.68437 0.7123 0.34027 0.0
H5595 H 0.72089 0.69926 0.35664 0.0
H5596 H 0.7155 0.69395 0.32398 0.0
H5597 H 0.72981 0.79613 0.35465 0.0
H5598 H 0.77795 0.799 0.35151 0.0
H5599 H 0.75883 0.78326 0.37711 0.0
C5600 C 0.50639 0.52382 0.31731 0.0
C5601 C 0.49522 0.50488 0.30218 0.0
C5602 C 0.53269 0.52283 0.33779 0.0
C5603 C 0.54996 0.50206 0.34619 0.0
C5604 C 0.53821 0.48265 0.33144 0.0
C5605 C 0.51194 0.48417 0.3108 0.0
C5606 C 0.54157 0.54469 0.35108 0.0
C5607 C 0.55335 0.45951 0.33762 0.0
C5608 C 0.64181 0.50591 0.38958 0.0
C5609 C 0.63278 0.50038 0.41489 0.0
C5610 C 0.61703 0.50562 0.36813 0.0
C5611 C 0.57879 0.50087 0.36983 0.0
C5612 C 0.56923 0.49488 0.39498 0.0
C5613 C 0.59542 0.4937 0.41576 0.0
C5614 C 0.63281 0.50951 0.34287 0.0
C5615 C 0.53012 0.49007 0.40031 0.0
H5616 H 0.4943 0.54018 0.313 0.0
H5617 H 0.50415 0.46857 0.30147 0.0
H5618 H 0.53276 0.5434 0.37064 0.0
H5619 H 0.5712 0.54744 0.35115 0.0
H5620 H 0.5284 0.55976 0.34248 0.0
H5621 H 0.54707 0.44665 0.32313 0.0
H5622 H 0.58307 0.46052 0.33997 0.0
H5623 H 0.54176 0.45356 0.35539 0.0
H5624 H 0.66975 0.51022 0.38607 0.0
H5625 H 0.58628 0.48659 0.43261 0.0
H5626 H 0.61789 0.52324 0.33312 0.0
H5627 H 0.62975 0.49367 0.33181 0.0
H5628 H 0.66191 0.51399 0.34358 0.0
H5629 H 0.51522 0.50652 0.40104 0.0
H5630 H 0.52649 0.4811 0.41808 0.0
H5631 H 0.51771 0.47961 0.38549 0.0
C5632 C 0.35147 0.51454 0.16278 0.0
C5633 C 0.38009 0.49834 0.16698 0.0
C5634 C 0.32496 0.5135 0.14223 0.0
C5635 C 0.32722 0.49749 0.12175 0.0
C5636 C 0.35816 0.48263 0.12458 0.0
C5637 C 0.38212 0.48282 0.14634 0.0
C5638 C 0.2928 0.52923 0.14345 0.0
C5639 C 0.36763 0.46658 0.10378 0.0
C5640 C 0.24893 0.47652 0.07252 0.0
C5641 C 0.24603 0.49304 0.05292 0.0
C5642 C 0.27284 0.47812 0.09426 0.0
C5643 C 0.29865 0.49633 0.09809 0.0
C5644 C 0.29574 0.51334 0.07866 0.0
C5645 C 0.2692 0.51215 0.0582 0.0
C5646 C 0.26869 0.46034 0.11415 0.0
C5647 C 0.32211 0.53293 0.07864 0.0
H5648 H 0.34967 0.52872 0.17544 0.0
H5649 H 0.40404 0.47058 0.14668 0.0
H5650 H 0.28416 0.53546 0.12512 0.0
H5651 H 0.26956 0.51941 0.15073 0.0
H5652 H 0.29792 0.54415 0.15561 0.0
H5653 H 0.39682 0.46223 0.10395 0.0
H5654 H 0.35237 0.45045 0.10592 0.0
H5655 H 0.3608 0.47409 0.08552 0.0
H5656 H 0.23096 0.46198 0.07138 0.0
H5657 H 0.26607 0.52699 1.04669 0.0
H5658 H 0.26921 0.46843 0.13274 0.0
H5659 H 0.29137 0.44806 0.11315 0.0
H5660 H 0.24311 0.45062 0.11217 0.0
H5661 H 0.3265 0.54014 0.09728 0.0
H5662 H 0.31348 0.54691 0.06611 0.0
H5663 H 0.3488 0.52646 0.07253 0.0
C5664 C 0.42803 0.23419 0.16373 0.0
C5665 C 0.39873 0.24988 0.16729 0.0
C5666 C 0.45408 0.23485 0.14296 0.0
C5667 C 0.45058 0.24969 0.12157 0.0
C5668 C 0.41832 0.26357 0.12361 0.0
C5669 C 0.39492 0.26399 0.14563 0.0
C5670 C 0.48701 0.22001 0.1449 0.0
C5671 C 0.40641 0.27764 0.10177 0.0
C5672 C 0.52715 0.27113 0.07147 0.0
C5673 C 0.53275 0.25356 0.05329 0.0
C5674 C 0.50226 0.26997 0.09266 0.0
C5675 C 0.47919 0.25063 0.09787 0.0
C5676 C 0.48495 0.2325 0.07981 0.0
C5677 C 0.51116 0.2339 0.05918 0.0
C5678 C 0.50216 0.28977 0.11045 0.0
C5679 C 0.46387 0.21062 0.08206 0.0
H5680 H 0.43057 0.22067 0.17707 0.0
H5681 H 0.37199 0.27549 0.14535 0.0
H5682 H 0.49436 0.2122 0.12707 0.0
H5683 H 0.51003 0.23093 0.15047 0.0
H5684 H 0.4835 0.20616 0.15864 0.0
H5685 H 0.37648 0.2778 0.10033 0.0
H5686 H 0.41516 0.29557 0.10438 0.0
H5687 H 0.41762 0.27112 0.08408 0.0
H5688 H 0.54339 0.28639 0.06943 0.0
H5689 H 0.51497 0.2189 1.04778 0.0
H5690 H 0.50182 0.28358 0.12986 0.0
H5691 H 0.47761 0.3002 0.10747 0.0
H5692 H 0.526 0.30101 0.10789 0.0
H5693 H 0.48186 0.19697 0.08916 0.0
H5694 H 0.45467 0.20473 0.06372 0.0
H5695 H 0.44008 0.21225 0.09438 0.0
C5696 C 0.36977 0.26722 0.69725 0.0
C5697 C 0.37318 0.24913 0.67944 0.0
C5698 C 0.34598 0.2673 0.71903 0.0
C5699 C 0.32149 0.24887 0.72526 0.0
C5700 C 0.3252 0.23012 0.70762 0.0
C5701 C 0.35086 0.23015 0.68658 0.0
C5702 C 0.34883 0.28766 0.73595 0.0
C5703 C 0.3022 0.20908 0.71057 0.0
C5704 C 0.26702 0.23505 0.79074 0.0
C5705 C 0.24026 0.25251 0.79427 0.0
C5706 C 0.29344 0.2342 0.77019 0.0
C5707 C 0.29303 0.24968 0.74911 0.0
C5708 C 0.2644 0.26641 0.75183 0.0
C5709 C 0.24025 0.26771 0.77341 0.0
C5710 C 0.32368 0.21713 0.77234 0.0
C5711 C 0.25747 0.28335 0.73142 0.0
H5712 H 0.38703 0.28192 0.69446 0.0
H5713 H 0.35324 0.21473 0.67566 0.0
H5714 H 0.33267 0.30189 0.72817 0.0
H5715 H 0.33922 0.28394 0.75495 0.0
H5716 H 0.37723 0.29367 0.73709 0.0
H5717 H 0.31955 0.19453 0.71617 0.0
H5718 H 0.27999 0.21133 0.72409 0.0
H5719 H 0.29021 0.20396 0.69282 0.0
H5720 H 0.26743 0.2214 0.80409 0.0
H5721 H 0.21999 0.28105 0.7735 0.0
H5722 H 0.34947 0.22641 0.7751 0.0
H5723 H 0.32684 0.20692 0.75544 0.0
H5724 H 0.31949 0.20507 0.78786 0.0
H5725 H 0.26817 0.30026 0.73705 0.0
H5726 H 0.22798 0.28545 0.72846 0.0
H5727 H 0.26993 0.27826 0.7136 0.0
C5728 C 0.51964 0.47526 0.78462 0.0
C5729 C 0.52575 0.49338 0.80198 0.0
C5730 C 0.49698 0.47674 0.76244 0.0
C5731 C 0.476 0.49668 0.75605 0.0
C5732 C 0.48162 0.5151 0.77363 0.0
C5733 C 0.50666 0.51361 0.79477 0.0
C5734 C 0.49662 0.45649 0.74526 0.0
C5735 C 0.46039 0.53686 0.77053 0.0
C5736 C 0.42892 0.51367 0.68933 0.0
C5737 C 0.39943 0.49822 0.68532 0.0
C5738 C 0.45405 0.51277 0.71057 0.0
C5739 C 0.44903 0.49793 0.73179 0.0
C5740 C 0.41677 0.4843 0.72916 0.0
C5741 C 0.39451 0.48406 0.70675 0.0
C5742 C 0.48683 0.52793 0.70943 0.0
C5743 C 0.40335 0.47038 0.7507 0.0
H5744 H 0.53362 0.45933 0.7881 0.0
H5745 H 0.51119 0.52877 0.8057 0.0
H5746 H 0.47199 0.44625 0.74863 0.0
H5747 H 0.49645 0.46207 0.72564 0.0
H5748 H 0.52033 0.4452 0.74827 0.0
H5749 H 0.45949 0.54692 0.78786 0.0
H5750 H 0.47319 0.54778 0.75632 0.0
H5751 H 0.43234 0.53315 0.76453 0.0
H5752 H 0.43212 0.52738 0.67632 0.0
H5753 H 0.37141 0.47271 0.70659 0.0
H5754 H 0.50325 0.52781 0.72648 0.0
H5755 H 0.47881 0.5457 0.70486 0.0
H5756 H 0.50487 0.52179 0.69462 0.0
H5757 H 0.40878 0.45204 0.74718 0.0
H5758 H 0.37362 0.47226 0.75254 0.0
H5759 H 0.41593 0.47541 0.76851 0.0
loop_
_geom_bond_atom_site_label_1
_geom_bond_atom_site_label_2
_geom_bond_distance
_geom_bond_site_symmetry_2
_ccdc_geom_bond_type
Tb0 N31 2.660 1_545 S
Tb0 N38 2.600 . S
Tb0 O44 2.546 . S
Tb0 O45 2.610 1_545 S
Tb0 O47 2.320 1_545 S
Tb0 O48 2.552 . S
Tb0 O49 2.413 1_545 S
Tb0 O51 2.362 . S
Tb0 O52 2.421 . S
Tb0 C64 2.811 1_554 S
C1 C4 1.432 . S
C1 C5 1.414 . S
C1 N8 1.359 . S
C2 C4 1.417 . S
C2 C6 1.432 . S
C2 C14 1.410 1_565 S
C3 C5 1.444 . S
C3 C6 1.317 . S
C3 H26 0.929 . S
C4 C1 1.432 . S
C4 C2 1.417 . S
C4 N12 1.360 1_565 S
C5 C1 1.414 . S
C5 C3 1.444 . S
C5 C10 1.385 . S
C6 C2 1.432 . S
C6 C3 1.317 . S
C6 H18 0.930 . S
C7 C9 1.392 . S
C7 C10 1.370 . S
C7 H19 0.931 . S
N8 C1 1.359 . S
N8 C9 1.327 . S
N8 Tb11 2.600 . S
C9 C7 1.392 . S
C9 N8 1.327 . S
C9 H16 0.930 . S
C10 C5 1.385 . S
C10 C7 1.370 . S
C10 H29 0.930 . S
Tb11 N8 2.600 . S
Tb11 N12 2.660 1_565 S
Tb11 O45 2.362 . S
Tb11 O46 2.421 . S
Tb11 O50 2.546 . S
Tb11 O51 2.610 1_565 S
Tb11 O53 2.320 1_565 S
Tb11 O54 2.552 . S
Tb11 O55 2.413 1_565 S
Tb11 C75 2.833 . S
N12 C4 1.360 1_545 S
N12 Tb11 2.660 1_545 S
N12 C13 1.305 . S
C13 N12 1.305 . S
C13 C15 1.407 . S
C13 H20 0.930 . S
C14 C2 1.410 1_545 S
C14 C15 1.345 . S
C14 H22 0.930 . S
C15 C13 1.407 . S
C15 C14 1.345 . S
C15 H17 0.930 . S
H16 C9 0.930 . S
H17 C15 0.930 . S
H18 C6 0.930 . S
H19 C7 0.931 . S
H20 C13 0.930 . S
H21 C35 0.930 . S
H22 C14 0.930 . S
H23 C41 0.930 . S
H24 C32 0.930 . S
H25 C39 0.931 . S
H26 C3 0.929 . S
H27 C33 0.930 . S
H28 C66 0.930 . S
H29 C10 0.930 . S
H30 C65 0.929 . S
N31 Tb0 2.660 1_565 S
N31 C32 1.305 . S
N31 C36 1.360 1_565 S
C32 H24 0.930 . S
C32 N31 1.305 . S
C32 C35 1.407 . S
C33 H27 0.930 . S
C33 C34 1.410 1_565 S
C33 C35 1.345 . S
C34 C33 1.410 1_545 S
C34 C36 1.417 . S
C34 C66 1.432 . S
C35 H21 0.930 . S
C35 C32 1.407 . S
C35 C33 1.345 . S
C36 N31 1.360 1_545 S
C36 C34 1.417 . S
C36 C40 1.432 . S
H37 C42 0.930 . S
N38 Tb0 2.600 . S
N38 C40 1.359 . S
N38 C41 1.327 . S
C39 H25 0.931 . S
C39 C41 1.392 . S
C39 C42 1.370 . S
C40 C36 1.432 . S
C40 N38 1.359 . S
C40 C43 1.414 . S
C41 H23 0.930 . S
C41 N38 1.327 . S
C41 C39 1.392 . S
C42 H37 0.930 . S
C42 C39 1.370 . S
C42 C43 1.385 . S
C43 C40 1.414 . S
C43 C42 1.385 . S
C43 C65 1.444 . S
O44 Tb0 2.546 . S
O44 C64 1.240 1_554 S
O45 Tb0 2.610 1_565 S
O45 Tb11 2.362 . S
O45 C56 1.282 1_565 S
O46 Tb11 2.421 . S
O46 C63 1.262 . S
O47 Tb0 2.320 1_565 S
O47 C63 1.260 . S
O48 Tb0 2.552 . S
O48 C56 1.246 . S
O49 Tb0 2.413 1_565 S
O49 C64 1.245 1_564 S
O50 Tb11 2.546 . S
O50 C75 1.251 . S
O51 Tb0 2.362 . S
O51 Tb11 2.610 1_545 S
O51 C67 1.283 1_545 S
O52 Tb0 2.421 . S
O52 C74 1.262 . S
O53 Tb11 2.320 1_545 S
O53 C74 1.260 . S
O54 Tb11 2.552 . S
O54 C67 1.241 . S
O55 Tb11 2.413 1_545 S
O55 C75 1.256 1_545 S
C56 O45 1.282 1_545 S
C56 O48 1.246 . S
C57 C59 1.382 1_545 S
C57 C61 1.393 . S
C57 C64 1.523 . S
C58 C59 1.401 . S
C58 C60 1.374 1_565 S
C59 C57 1.382 1_565 S
C59 C58 1.401 . S
C59 H76 0.930 . S
C60 C58 1.374 1_545 S
C60 C62 1.392 . S
C60 H77 0.931 . S
C61 C57 1.393 . S
C61 C62 1.401 . S
C61 H78 0.930 . S
C62 C60 1.392 . S
C62 C61 1.401 . S
C62 H79 0.930 . S
C63 O46 1.262 . S
C63 O47 1.260 . S
C64 Tb0 2.811 1_556 S
C64 O44 1.240 1_556 S
C64 O49 1.245 1_546 S
C64 C57 1.523 . S
C65 H30 0.929 . S
C65 C43 1.444 . S
C65 C66 1.317 . S
C66 H28 0.930 . S
C66 C34 1.432 . S
C66 C65 1.317 . S
C67 O51 1.283 1_565 S
C67 O54 1.241 . S
C68 C69 1.382 1_565 S
C68 C72 1.393 . S
C68 C75 1.500 . S
C69 C68 1.382 1_545 S
C69 C70 1.401 . S
C69 H80 0.930 . S
C70 C69 1.401 . S
C70 C71 1.365 1_545 S
C71 C70 1.365 1_565 S
C71 C73 1.392 . S
C71 H81 0.931 . S
C72 C68 1.393 . S
C72 C73 1.401 . S
C72 H82 0.930 . S
C73 C71 1.392 . S
C73 C72 1.401 . S
C73 H83 0.930 . S
C74 O52 1.262 . S
C74 O53 1.260 . S
C75 Tb11 2.833 . S
C75 O50 1.251 . S
C75 O55 1.256 1_565 S
C75 C68 1.500 . S
H76 C59 0.930 . S
H77 C60 0.931 . S
H78 C61 0.930 . S
H79 C62 0.930 . S
H80 C69 0.930 . S
H81 C71 0.931 . S
H82 C72 0.930 . S
H83 C73 0.930 . S
Tb84 N115 2.660 . S
Tb84 N122 2.600 . S
Tb84 O128 2.546 . S
Tb84 O129 2.610 . S
Tb84 O131 2.320 . S
Tb84 O132 2.552 . S
Tb84 O133 2.413 . S
Tb84 O135 2.362 . S
Tb84 O136 2.421 . S
Tb84 C148 2.802 1_554 S
C85 C88 1.432 . S
C85 C89 1.414 . S
C85 N92 1.359 . S
C86 C88 1.417 . S
C86 C90 1.432 . S
C86 C98 1.410 . S
C87 C89 1.444 . S
C87 C90 1.317 . S
C87 H110 0.929 . S
C88 C85 1.432 . S
C88 C86 1.417 . S
C88 N96 1.360 . S
C89 C85 1.414 . S
C89 C87 1.444 . S
C89 C94 1.385 . S
C90 C86 1.432 . S
C90 C87 1.317 . S
C90 H102 0.930 . S
C91 C93 1.393 . S
C91 C94 1.370 . S
C91 H103 0.931 . S
N92 C85 1.359 . S
N92 C93 1.327 . S
N92 Tb95 2.600 1_455 S
C93 C91 1.393 . S
C93 N92 1.327 . S
C93 H100 0.929 1_455 S
C94 C89 1.385 . S
C94 C91 1.370 . S
C94 H113 0.930 . S
Tb95 N92 2.600 1_655 S
Tb95 N96 2.660 1_655 S
Tb95 O129 2.362 . S
Tb95 O130 2.421 . S
Tb95 O134 2.546 . S
Tb95 O135 2.610 . S
Tb95 O137 2.320 . S
Tb95 O138 2.552 . S
Tb95 O139 2.413 . S
Tb95 C159 2.833 . S
N96 C88 1.360 . S
N96 Tb95 2.660 1_455 S
N96 C97 1.305 . S
C97 N96 1.305 . S
C97 C99 1.407 . S
C97 H104 0.930 . S
C98 C86 1.410 . S
C98 C99 1.345 . S
C98 H106 0.930 . S
C99 C97 1.407 . S
C99 C98 1.345 . S
C99 H101 0.930 . S
H100 C93 0.929 1_655 S
H101 C99 0.930 . S
H102 C90 0.930 . S
H103 C91 0.931 . S
H104 C97 0.930 . S
H105 C119 0.930 . S
H106 C98 0.930 . S
H107 C125 0.930 . S
H108 C116 0.930 . S
H109 C123 0.931 . S
H110 C87 0.929 . S
H111 C117 0.930 . S
H112 C150 0.930 . S
H113 C94 0.930 . S
H114 C149 0.929 . S
N115 Tb84 2.660 . S
N115 C116 1.305 . S
N115 C120 1.360 . S
C116 H108 0.930 . S
C116 N115 1.305 . S
C116 C119 1.407 . S
C117 H111 0.930 . S
C117 C118 1.410 . S
C117 C119 1.345 . S
C118 C117 1.410 . S
C118 C120 1.417 . S
C118 C150 1.432 . S
C119 H105 0.930 . S
C119 C116 1.407 . S
C119 C117 1.345 . S
C120 N115 1.360 . S
C120 C118 1.417 . S
C120 C124 1.432 . S
H121 C126 0.930 . S
N122 Tb84 2.600 . S
N122 C124 1.359 . S
N122 C125 1.327 . S
C123 H109 0.931 . S
C123 C125 1.392 . S
C123 C126 1.370 . S
C124 C120 1.432 . S
C124 N122 1.359 . S
C124 C127 1.414 . S
C125 H107 0.930 . S
C125 N122 1.327 . S
C125 C123 1.392 . S
C126 H121 0.930 . S
C126 C123 1.370 . S
C126 C127 1.385 . S
C127 C124 1.414 . S
C127 C126 1.385 . S
C127 C149 1.444 . S
O128 Tb84 2.546 . S
O128 C148 1.236 1_554 S
O129 Tb84 2.610 . S
O129 Tb95 2.362 . S
O129 C140 1.283 . S
O130 Tb95 2.421 . S
O130 C147 1.262 . S
O131 Tb84 2.320 . S
O131 C147 1.260 . S
O132 Tb84 2.552 . S
O132 C140 1.243 . S
O133 Tb84 2.413 . S
O133 C148 1.241 1_554 S
O134 Tb95 2.546 . S
O134 C159 1.251 . S
O135 Tb84 2.362 . S
O135 Tb95 2.610 . S
O135 C151 1.283 . S
O136 Tb84 2.421 . S
O136 C158 1.262 . S
O137 Tb95 2.320 . S
O137 C158 1.260 . S
O138 Tb95 2.552 . S
O138 C151 1.243 . S
O139 Tb95 2.413 . S
O139 C159 1.256 . S
C140 O129 1.283 . S
C140 O132 1.243 . S
C141 C143 1.382 . S
C141 C145 1.393 . S
C141 C148 1.532 . S
C142 C143 1.400 . S
C142 C144 1.384 . S
C143 C141 1.382 . S
C143 C142 1.400 . S
C143 H160 0.930 . S
C144 C142 1.384 . S
C144 C146 1.392 . S
C144 H161 0.931 . S
C145 C141 1.393 . S
C145 C146 1.401 . S
C145 H162 0.930 . S
C146 C144 1.392 . S
C146 C145 1.401 . S
C146 H163 0.930 . S
C147 O130 1.262 . S
C147 O131 1.260 . S
C148 Tb84 2.802 1_556 S
C148 O128 1.236 1_556 S
C148 O133 1.241 1_556 S
C148 C141 1.532 . S
C149 H114 0.929 . S
C149 C127 1.444 . S
C149 C150 1.317 . S
C150 H112 0.930 . S
C150 C118 1.432 . S
C150 C149 1.317 . S
C151 O135 1.283 . S
C151 O138 1.243 . S
C152 C153 1.382 . S
C152 C156 1.393 1_655 S
C152 C159 1.500 . S
C153 C152 1.382 . S
C153 C154 1.400 1_655 S
C153 H164 0.930 . S
C154 C153 1.400 1_455 S
C154 C155 1.384 . S
C155 C154 1.384 . S
C155 C157 1.392 . S
C155 H165 0.931 . S
C156 C152 1.393 1_455 S
C156 C157 1.401 . S
C156 H166 0.930 . S
C157 C155 1.392 . S
C157 C156 1.401 . S
C157 H167 0.930 . S
C158 O136 1.262 . S
C158 O137 1.260 . S
C159 Tb95 2.833 . S
C159 O134 1.251 . S
C159 O139 1.256 . S
C159 C152 1.500 . S
H160 C143 0.930 . S
H161 C144 0.931 . S
H162 C145 0.930 . S
H163 C146 0.930 . S
H164 C153 0.930 . S
H165 C155 0.931 . S
H166 C156 0.930 . S
H167 C157 0.930 . S
Tb168 N199 2.660 . S
Tb168 N206 2.600 . S
Tb168 O212 2.546 . S
Tb168 O213 2.610 . S
Tb168 O215 2.320 . S
Tb168 O216 2.552 . S
Tb168 O217 2.413 . S
Tb168 O219 2.362 . S
Tb168 O220 2.421 . S
Tb168 C232 2.833 . S
C169 C172 1.432 . S
C169 C173 1.414 . S
C169 N176 1.359 . S
C170 C172 1.417 . S
C170 C174 1.432 . S
C170 C182 1.410 . S
C171 C173 1.444 . S
C171 C174 1.317 . S
C171 H194 0.929 . S
C172 C169 1.432 . S
C172 C170 1.417 . S
C172 N180 1.360 . S
C173 C169 1.414 . S
C173 C171 1.444 . S
C173 C178 1.385 . S
C174 C170 1.432 . S
C174 C171 1.317 . S
C174 H186 0.930 . S
C175 C177 1.392 . S
C175 C178 1.370 . S
C175 H187 0.931 . S
N176 C169 1.359 . S
N176 C177 1.327 . S
N176 Tb179 2.600 . S
C177 C175 1.392 . S
C177 N176 1.327 . S
C177 H184 0.930 . S
C178 C173 1.385 . S
C178 C175 1.370 . S
C178 H197 0.930 . S
Tb179 N176 2.600 . S
Tb179 N180 2.660 . S
Tb179 O213 2.362 . S
Tb179 O214 2.421 . S
Tb179 O218 2.546 . S
Tb179 O219 2.610 . S
Tb179 O221 2.320 . S
Tb179 O222 2.552 . S
Tb179 O223 2.413 . S
Tb179 C243 2.833 . S
N180 C172 1.360 . S
N180 Tb179 2.660 . S
N180 C181 1.305 . S
C181 N180 1.305 . S
C181 C183 1.407 . S
C181 H188 0.930 . S
C182 C170 1.410 . S
C182 C183 1.345 . S
C182 H190 0.930 . S
C183 C181 1.407 . S
C183 C182 1.345 . S
C183 H185 0.930 . S
H184 C177 0.930 . S
H185 C183 0.930 . S
H186 C174 0.930 . S
H187 C175 0.931 . S
H188 C181 0.930 . S
H189 C203 0.930 . S
H190 C182 0.930 . S
H191 C209 0.930 . S
H192 C200 0.930 . S
H193 C207 0.931 . S
H194 C171 0.929 . S
H195 C201 0.930 . S
H196 C234 0.930 . S
H197 C178 0.930 . S
H198 C233 0.929 . S
N199 Tb168 2.660 . S
N199 C200 1.305 . S
N199 C204 1.360 . S
C200 H192 0.930 . S
C200 N199 1.305 . S
C200 C203 1.407 . S
C201 H195 0.930 . S
C201 C202 1.410 . S
C201 C203 1.345 . S
C202 C201 1.410 . S
C202 C204 1.417 . S
C202 C234 1.432 . S
C203 H189 0.930 . S
C203 C200 1.407 . S
C203 C201 1.345 . S
C204 N199 1.360 . S
C204 C202 1.417 . S
C204 C208 1.432 . S
H205 C210 0.930 . S
N206 Tb168 2.600 . S
N206 C208 1.359 . S
N206 C209 1.327 . S
C207 H193 0.931 . S
C207 C209 1.392 . S
C207 C210 1.370 . S
C208 C204 1.432 . S
C208 N206 1.359 . S
C208 C211 1.414 . S
C209 H191 0.930 . S
C209 N206 1.327 . S
C209 C207 1.392 . S
C210 H205 0.930 . S
C210 C207 1.370 . S
C210 C211 1.385 . S
C211 C208 1.414 . S
C211 C210 1.385 . S
C211 C233 1.444 . S
O212 Tb168 2.546 . S
O212 C232 1.251 . S
O213 Tb168 2.610 . S
O213 Tb179 2.362 . S
O213 C224 1.283 . S
O214 Tb179 2.421 . S
O214 C231 1.262 . S
O215 Tb168 2.320 . S
O215 C231 1.260 . S
O216 Tb168 2.552 . S
O216 C224 1.243 . S
O217 Tb168 2.413 . S
O217 C232 1.256 . S
O218 Tb179 2.546 . S
O218 C243 1.251 . S
O219 Tb168 2.362 . S
O219 Tb179 2.610 . S
O219 C235 1.283 . S
O220 Tb168 2.421 . S
O220 C242 1.262 . S
O221 Tb179 2.320 . S
O221 C242 1.260 . S
O222 Tb179 2.552 . S
O222 C235 1.243 . S
O223 Tb179 2.413 . S
O223 C243 1.256 . S
C224 O213 1.283 . S
C224 O216 1.243 . S
C225 C227 1.382 . S
C225 C229 1.393 . S
C225 C232 1.500 . S
C226 C227 1.400 . S
C226 C228 1.384 . S
C227 C225 1.382 . S
C227 C226 1.400 . S
C227 H244 0.930 . S
C228 C226 1.384 . S
C228 C230 1.392 . S
C228 H245 0.931 . S
C229 C225 1.393 . S
C229 C230 1.401 . S
C229 H246 0.930 . S
C230 C228 1.392 . S
C230 C229 1.401 . S
C230 H247 0.930 . S
C231 O214 1.262 . S
C231 O215 1.260 . S
C232 Tb168 2.833 . S
C232 O212 1.251 . S
C232 O217 1.256 . S
C232 C225 1.500 . S
C233 H198 0.929 . S
C233 C211 1.444 . S
C233 C234 1.317 . S
C234 H196 0.930 . S
C234 C202 1.432 . S
C234 C233 1.317 . S
C235 O219 1.283 . S
C235 O222 1.243 . S
C236 C237 1.382 . S
C236 C240 1.393 . S
C236 C243 1.500 . S
C237 C236 1.382 . S
C237 C238 1.400 . S
C237 H248 0.930 . S
C238 C237 1.400 . S
C238 C239 1.384 . S
C239 C238 1.384 . S
C239 C241 1.392 . S
C239 H249 0.931 . S
C240 C236 1.393 . S
C240 C241 1.401 . S
C240 H250 0.930 . S
C241 C239 1.392 . S
C241 C240 1.401 . S
C241 H251 0.930 . S
C242 O220 1.262 . S
C242 O221 1.260 . S
C243 Tb179 2.833 . S
C243 O218 1.251 . S
C243 O223 1.256 . S
C243 C236 1.500 . S
H244 C227 0.930 . S
H245 C228 0.931 . S
H246 C229 0.930 . S
H247 C230 0.930 . S
H248 C237 0.930 . S
H249 C239 0.931 . S
H250 C240 0.930 . S
H251 C241 0.930 . S
Tb252 N283 2.660 1_545 S
Tb252 N290 2.600 . S
Tb252 O296 2.546 . S
Tb252 O297 2.610 1_545 S
Tb252 O299 2.320 1_545 S
Tb252 O300 2.552 . S
Tb252 O301 2.413 1_545 S
Tb252 O303 2.362 . S
Tb252 O304 2.421 . S
Tb252 C316 2.833 . S
C253 C256 1.432 . S
C253 C257 1.414 . S
C253 N260 1.359 . S
C254 C256 1.417 . S
C254 C258 1.432 . S
C254 C266 1.410 1_565 S
C255 C257 1.444 . S
C255 C258 1.317 . S
C255 H278 0.929 . S
C256 C253 1.432 . S
C256 C254 1.417 . S
C256 N264 1.360 1_565 S
C257 C253 1.414 . S
C257 C255 1.444 . S
C257 C262 1.385 . S
C258 C254 1.432 . S
C258 C255 1.317 . S
C258 H270 0.930 . S
C259 C261 1.392 1_455 S
C259 C262 1.370 . S
C259 H271 0.931 . S
N260 C253 1.359 . S
N260 C261 1.327 1_455 S
N260 Tb263 2.600 1_455 S
C261 C259 1.392 1_655 S
C261 N260 1.327 1_655 S
C261 H268 0.930 . S
C262 C257 1.385 . S
C262 C259 1.370 . S
C262 H281 0.930 . S
Tb263 N260 2.600 1_655 S
Tb263 N264 2.660 1_665 S
Tb263 O297 2.362 . S
Tb263 O298 2.421 . S
Tb263 O302 2.546 . S
Tb263 O303 2.610 1_565 S
Tb263 O305 2.320 1_565 S
Tb263 O306 2.552 . S
Tb263 O307 2.413 1_565 S
Tb263 C327 2.833 . S
N264 C256 1.360 1_545 S
N264 Tb263 2.660 1_445 S
N264 C265 1.305 . S
C265 N264 1.305 . S
C265 C267 1.407 . S
C265 H272 0.930 . S
C266 C254 1.410 1_545 S
C266 C267 1.345 . S
C266 H274 0.930 . S
C267 C265 1.407 . S
C267 C266 1.345 . S
C267 H269 0.930 . S
H268 C261 0.930 . S
H269 C267 0.930 . S
H270 C258 0.930 . S
H271 C259 0.931 . S
H272 C265 0.930 . S
H273 C287 0.930 . S
H274 C266 0.930 . S
H275 C293 0.930 . S
H276 C284 0.930 . S
H277 C291 0.931 . S
H278 C255 0.929 . S
H279 C285 0.930 . S
H280 C318 0.930 . S
H281 C262 0.930 . S
H282 C317 0.929 . S
N283 Tb252 2.660 1_565 S
N283 C284 1.305 . S
N283 C288 1.360 1_565 S
C284 H276 0.930 . S
C284 N283 1.305 . S
C284 C287 1.407 . S
C285 H279 0.930 . S
C285 C286 1.410 1_565 S
C285 C287 1.345 . S
C286 C285 1.410 1_545 S
C286 C288 1.417 . S
C286 C318 1.432 . S
C287 H273 0.930 . S
C287 C284 1.407 . S
C287 C285 1.345 . S
C288 N283 1.360 1_545 S
C288 C286 1.417 . S
C288 C292 1.432 . S
H289 C294 0.930 . S
N290 Tb252 2.600 . S
N290 C292 1.359 . S
N290 C293 1.327 . S
C291 H277 0.931 . S
C291 C293 1.392 . S
C291 C294 1.370 . S
C292 C288 1.432 . S
C292 N290 1.359 . S
C292 C295 1.414 . S
C293 H275 0.930 . S
C293 N290 1.327 . S
C293 C291 1.392 . S
C294 H289 0.930 . S
C294 C291 1.370 . S
C294 C295 1.385 . S
C295 C292 1.414 . S
C295 C294 1.385 . S
C295 C317 1.444 . S
O296 Tb252 2.546 . S
O296 C316 1.251 . S
O297 Tb252 2.610 1_565 S
O297 Tb263 2.362 . S
O297 C308 1.282 1_565 S
O298 Tb263 2.421 . S
O298 C315 1.262 . S
O299 Tb252 2.320 1_565 S
O299 C315 1.260 . S
O300 Tb252 2.552 . S
O300 C308 1.246 . S
O301 Tb252 2.413 1_565 S
O301 C316 1.256 1_565 S
O302 Tb263 2.546 . S
O302 C327 1.251 . S
O303 Tb252 2.362 . S
O303 Tb263 2.610 1_545 S
O303 C319 1.283 1_545 S
O304 Tb252 2.421 . S
O304 C326 1.262 . S
O305 Tb263 2.320 1_545 S
O305 C326 1.260 . S
O306 Tb263 2.552 . S
O306 C319 1.241 . S
O307 Tb263 2.413 1_545 S
O307 C327 1.256 1_545 S
C308 O297 1.282 1_545 S
C308 O300 1.246 . S
C309 C311 1.382 1_545 S
C309 C313 1.393 . S
C309 C316 1.500 . S
C310 C311 1.401 . S
C310 C312 1.374 1_565 S
C311 C309 1.382 1_565 S
C311 C310 1.401 . S
C311 H328 0.930 . S
C312 C310 1.374 1_545 S
C312 C314 1.392 . S
C312 H329 0.931 . S
C313 C309 1.393 . S
C313 C314 1.401 . S
C313 H330 0.930 . S
C314 C312 1.392 . S
C314 C313 1.401 . S
C314 H331 0.930 . S
C315 O298 1.262 . S
C315 O299 1.260 . S
C316 Tb252 2.833 . S
C316 O296 1.251 . S
C316 O301 1.256 1_545 S
C316 C309 1.500 . S
C317 H282 0.929 . S
C317 C295 1.444 . S
C317 C318 1.317 . S
C318 H280 0.930 . S
C318 C286 1.432 . S
C318 C317 1.317 . S
C319 O303 1.283 1_565 S
C319 O306 1.241 . S
C320 C321 1.382 1_565 S
C320 C324 1.393 1_655 S
C320 C327 1.500 . S
C321 C320 1.382 1_545 S
C321 C322 1.394 1_655 S
C321 H332 0.930 . S
C322 C321 1.394 1_455 S
C322 C323 1.376 1_545 S
C323 C322 1.376 1_565 S
C323 C325 1.392 . S
C323 H333 0.931 . S
C324 C320 1.393 1_455 S
C324 C325 1.401 . S
C324 H334 0.930 . S
C325 C323 1.392 . S
C325 C324 1.401 . S
C325 H335 0.930 . S
C326 O304 1.262 . S
C326 O305 1.260 . S
C327 Tb263 2.833 . S
C327 O302 1.251 . S
C327 O307 1.256 1_565 S
C327 C320 1.500 . S
H328 C311 0.930 . S
H329 C312 0.931 . S
H330 C313 0.930 . S
H331 C314 0.930 . S
H332 C321 0.930 . S
H333 C323 0.931 . S
H334 C324 0.930 . S
H335 C325 0.930 . S
Tb336 N367 2.660 1_545 S
Tb336 N374 2.600 . S
Tb336 O380 2.546 . S
Tb336 O381 2.610 1_545 S
Tb336 O383 2.320 1_545 S
Tb336 O384 2.552 . S
Tb336 O385 2.413 1_545 S
Tb336 O387 2.362 . S
Tb336 O388 2.421 . S
Tb336 C400 2.833 . S
C337 C340 1.432 . S
C337 C341 1.414 . S
C337 N344 1.359 . S
C338 C340 1.417 . S
C338 C342 1.432 . S
C338 C350 1.410 1_565 S
C339 C341 1.444 . S
C339 C342 1.317 . S
C339 H362 0.929 . S
C340 C337 1.432 . S
C340 C338 1.417 . S
C340 N348 1.360 1_565 S
C341 C337 1.414 . S
C341 C339 1.444 . S
C341 C346 1.385 . S
C342 C338 1.432 . S
C342 C339 1.317 . S
C342 H354 0.930 . S
C343 C345 1.392 . S
C343 C346 1.370 . S
C343 H355 0.931 . S
N344 C337 1.359 . S
N344 C345 1.327 . S
N344 Tb347 2.600 . S
C345 C343 1.392 . S
C345 N344 1.327 . S
C345 H352 0.930 . S
C346 C341 1.385 . S
C346 C343 1.370 . S
C346 H365 0.930 . S
Tb347 N344 2.600 . S
Tb347 N348 2.660 1_565 S
Tb347 O381 2.362 . S
Tb347 O382 2.421 . S
Tb347 O386 2.546 . S
Tb347 O387 2.610 1_565 S
Tb347 O389 2.320 1_565 S
Tb347 O390 2.552 . S
Tb347 O391 2.413 1_565 S
Tb347 C411 2.811 1_556 S
N348 C340 1.360 1_545 S
N348 Tb347 2.660 1_545 S
N348 C349 1.305 . S
C349 N348 1.305 . S
C349 C351 1.407 . S
C349 H356 0.930 . S
C350 C338 1.410 1_545 S
C350 C351 1.345 . S
C350 H358 0.930 . S
C351 C349 1.407 . S
C351 C350 1.345 . S
C351 H353 0.930 . S
H352 C345 0.930 . S
H353 C351 0.930 . S
H354 C342 0.930 . S
H355 C343 0.931 . S
H356 C349 0.930 . S
H357 C371 0.930 . S
H358 C350 0.930 . S
H359 C377 0.930 . S
H360 C368 0.930 . S
H361 C375 0.931 . S
H362 C339 0.929 . S
H363 C369 0.930 . S
H364 C402 0.930 . S
H365 C346 0.930 . S
H366 C401 0.929 . S
N367 Tb336 2.660 1_565 S
N367 C368 1.305 . S
N367 C372 1.360 1_565 S
C368 H360 0.930 . S
C368 N367 1.305 . S
C368 C371 1.407 . S
C369 H363 0.930 . S
C369 C370 1.410 1_565 S
C369 C371 1.345 . S
C370 C369 1.410 1_545 S
C370 C372 1.417 . S
C370 C402 1.432 . S
C371 H357 0.930 . S
C371 C368 1.407 . S
C371 C369 1.345 . S
C372 N367 1.360 1_545 S
C372 C370 1.417 . S
C372 C376 1.432 . S
H373 C378 0.930 . S
N374 Tb336 2.600 . S
N374 C376 1.359 . S
N374 C377 1.327 . S
C375 H361 0.931 . S
C375 C377 1.392 . S
C375 C378 1.370 . S
C376 C372 1.432 . S
C376 N374 1.359 . S
C376 C379 1.414 . S
C377 H359 0.930 . S
C377 N374 1.327 . S
C377 C375 1.392 . S
C378 H373 0.930 . S
C378 C375 1.370 . S
C378 C379 1.385 . S
C379 C376 1.414 . S
C379 C378 1.385 . S
C379 C401 1.444 . S
O380 Tb336 2.546 . S
O380 C400 1.251 . S
O381 Tb336 2.610 1_565 S
O381 Tb347 2.362 . S
O381 C392 1.283 1_565 S
O382 Tb347 2.421 . S
O382 C399 1.262 . S
O383 Tb336 2.320 1_565 S
O383 C399 1.260 . S
O384 Tb336 2.552 . S
O384 C392 1.241 . S
O385 Tb336 2.413 1_565 S
O385 C400 1.256 1_565 S
O386 Tb347 2.546 . S
O386 C411 1.240 1_556 S
O387 Tb336 2.362 . S
O387 Tb347 2.610 1_545 S
O387 C403 1.282 1_545 S
O388 Tb336 2.421 . S
O388 C410 1.262 . S
O389 Tb347 2.320 1_545 S
O389 C410 1.260 . S
O390 Tb347 2.552 . S
O390 C403 1.246 . S
O391 Tb347 2.413 1_545 S
O391 C411 1.245 1_546 S
C392 O381 1.283 1_545 S
C392 O384 1.241 . S
C393 C395 1.382 1_545 S
C393 C397 1.393 . S
C393 C400 1.500 . S
C394 C395 1.401 . S
C394 C396 1.365 1_565 S
C395 C393 1.382 1_565 S
C395 C394 1.401 . S
C395 H412 0.930 . S
C396 C394 1.365 1_545 S
C396 C398 1.392 . S
C396 H413 0.931 . S
C397 C393 1.393 . S
C397 C398 1.401 . S
C397 H414 0.930 . S
C398 C396 1.392 . S
C398 C397 1.401 . S
C398 H415 0.930 . S
C399 O382 1.262 . S
C399 O383 1.260 . S
C400 Tb336 2.833 . S
C400 O380 1.251 . S
C400 O385 1.256 1_545 S
C400 C393 1.500 . S
C401 H366 0.929 . S
C401 C379 1.444 . S
C401 C402 1.317 . S
C402 H364 0.930 . S
C402 C370 1.432 . S
C402 C401 1.317 . S
C403 O387 1.282 1_565 S
C403 O390 1.246 . S
C404 C405 1.382 1_565 S
C404 C408 1.393 . S
C404 C411 1.522 . S
C405 C404 1.382 1_545 S
C405 C406 1.401 . S
C405 H416 0.930 . S
C406 C405 1.401 . S
C406 C407 1.374 1_545 S
C407 C406 1.374 1_565 S
C407 C409 1.392 . S
C407 H417 0.931 . S
C408 C404 1.393 . S
C408 C409 1.401 . S
C408 H418 0.930 . S
C409 C407 1.392 . S
C409 C408 1.401 . S
C409 H419 0.930 . S
C410 O388 1.262 . S
C410 O389 1.260 . S
C411 Tb347 2.811 1_554 S
C411 O386 1.240 1_554 S
C411 O391 1.245 1_564 S
C411 C404 1.522 . S
H412 C395 0.930 . S
H413 C396 0.931 . S
H414 C397 0.930 . S
H415 C398 0.930 . S
H416 C405 0.930 . S
H417 C407 0.931 . S
H418 C408 0.930 . S
H419 C409 0.930 . S
Tb420 N451 2.660 1_455 S
Tb420 N458 2.600 1_455 S
Tb420 O464 2.546 . S
Tb420 O465 2.610 . S
Tb420 O467 2.320 . S
Tb420 O468 2.552 . S
Tb420 O469 2.413 . S
Tb420 O471 2.362 . S
Tb420 O472 2.421 . S
Tb420 C484 2.833 . S
C421 C424 1.432 . S
C421 C425 1.414 . S
C421 N428 1.359 . S
C422 C424 1.417 . S
C422 C426 1.432 . S
C422 C434 1.410 . S
C423 C425 1.444 . S
C423 C426 1.317 . S
C423 H446 0.929 . S
C424 C421 1.432 . S
C424 C422 1.417 . S
C424 N432 1.360 . S
C425 C421 1.414 . S
C425 C423 1.444 . S
C425 C430 1.385 . S
C426 C422 1.432 . S
C426 C423 1.317 . S
C426 H438 0.930 . S
C427 C429 1.392 . S
C427 C430 1.370 . S
C427 H439 0.931 . S
N428 C421 1.359 . S
N428 C429 1.327 . S
N428 Tb431 2.600 . S
C429 C427 1.392 . S
C429 N428 1.327 . S
C429 H436 0.930 . S
C430 C425 1.385 . S
C430 C427 1.370 . S
C430 H449 0.930 . S
Tb431 N428 2.600 . S
Tb431 N432 2.660 . S
Tb431 O465 2.362 . S
Tb431 O466 2.421 . S
Tb431 O470 2.546 . S
Tb431 O471 2.610 . S
Tb431 O473 2.320 . S
Tb431 O474 2.552 . S
Tb431 O475 2.413 . S
Tb431 C495 2.802 1_556 S
N432 C424 1.360 . S
N432 Tb431 2.660 . S
N432 C433 1.305 . S
C433 N432 1.305 . S
C433 C435 1.407 . S
C433 H440 0.930 . S
C434 C422 1.410 . S
C434 C435 1.345 . S
C434 H442 0.930 . S
C435 C433 1.407 . S
C435 C434 1.345 . S
C435 H437 0.930 . S
H436 C429 0.930 . S
H437 C435 0.930 . S
H438 C426 0.930 . S
H439 C427 0.931 . S
H440 C433 0.930 . S
H441 C455 0.930 . S
H442 C434 0.930 . S
H443 C461 0.929 1_455 S
H444 C452 0.930 . S
H445 C459 0.931 . S
H446 C423 0.929 . S
H447 C453 0.930 . S
H448 C486 0.930 . S
H449 C430 0.930 . S
H450 C485 0.929 . S
N451 Tb420 2.660 1_655 S
N451 C452 1.305 . S
N451 C456 1.360 . S
C452 H444 0.930 . S
C452 N451 1.305 . S
C452 C455 1.407 . S
C453 H447 0.930 . S
C453 C454 1.410 . S
C453 C455 1.345 . S
C454 C453 1.410 . S
C454 C456 1.417 . S
C454 C486 1.432 . S
C455 H441 0.930 . S
C455 C452 1.407 . S
C455 C453 1.345 . S
C456 N451 1.360 . S
C456 C454 1.417 . S
C456 C460 1.432 . S
H457 C462 0.930 . S
N458 Tb420 2.600 1_655 S
N458 C460 1.359 . S
N458 C461 1.327 . S
C459 H445 0.931 . S
C459 C461 1.393 . S
C459 C462 1.370 . S
C460 C456 1.432 . S
C460 N458 1.359 . S
C460 C463 1.414 . S
C461 H443 0.929 1_655 S
C461 N458 1.327 . S
C461 C459 1.393 . S
C462 H457 0.930 . S
C462 C459 1.370 . S
C462 C463 1.385 . S
C463 C460 1.414 . S
C463 C462 1.385 . S
C463 C485 1.444 . S
O464 Tb420 2.546 . S
O464 C484 1.251 . S
O465 Tb420 2.610 . S
O465 Tb431 2.362 . S
O465 C476 1.283 . S
O466 Tb431 2.421 . S
O466 C483 1.262 . S
O467 Tb420 2.320 . S
O467 C483 1.260 . S
O468 Tb420 2.552 . S
O468 C476 1.243 . S
O469 Tb420 2.413 . S
O469 C484 1.256 . S
O470 Tb431 2.546 . S
O470 C495 1.236 1_556 S
O471 Tb420 2.362 . S
O471 Tb431 2.610 . S
O471 C487 1.283 . S
O472 Tb420 2.421 . S
O472 C494 1.262 . S
O473 Tb431 2.320 . S
O473 C494 1.260 . S
O474 Tb431 2.552 . S
O474 C487 1.243 . S
O475 Tb431 2.413 . S
O475 C495 1.241 1_556 S
C476 O465 1.283 . S
C476 O468 1.243 . S
C477 C479 1.382 . S
C477 C481 1.393 1_455 S
C477 C484 1.500 . S
C478 C479 1.400 1_655 S
C478 C480 1.384 . S
C479 C477 1.382 . S
C479 C478 1.400 1_455 S
C479 H496 0.930 . S
C480 C478 1.384 . S
C480 C482 1.392 . S
C480 H497 0.931 . S
C481 C477 1.393 1_655 S
C481 C482 1.401 . S
C481 H498 0.930 . S
C482 C480 1.392 . S
C482 C481 1.401 . S
C482 H499 0.930 . S
C483 O466 1.262 . S
C483 O467 1.260 . S
C484 Tb420 2.833 . S
C484 O464 1.251 . S
C484 O469 1.256 . S
C484 C477 1.500 . S
C485 H450 0.929 . S
C485 C463 1.444 . S
C485 C486 1.317 . S
C486 H448 0.930 . S
C486 C454 1.432 . S
C486 C485 1.317 . S
C487 O471 1.283 . S
C487 O474 1.243 . S
C488 C489 1.382 . S
C488 C492 1.393 . S
C488 C495 1.532 . S
C489 C488 1.382 . S
C489 C490 1.400 . S
C489 H500 0.930 . S
C490 C489 1.400 . S
C490 C491 1.384 . S
C491 C490 1.384 . S
C491 C493 1.392 . S
C491 H501 0.931 . S
C492 C488 1.393 . S
C492 C493 1.401 . S
C492 H502 0.930 . S
C493 C491 1.392 . S
C493 C492 1.401 . S
C493 H503 0.930 . S
C494 O472 1.262 . S
C494 O473 1.260 . S
C495 Tb431 2.802 1_554 S
C495 O470 1.236 1_554 S
C495 O475 1.241 1_554 S
C495 C488 1.532 . S
H496 C479 0.930 . S
H497 C480 0.931 . S
H498 C481 0.930 . S
H499 C482 0.930 . S
H500 C489 0.930 . S
H501 C491 0.931 . S
H502 C492 0.930 . S
H503 C493 0.930 . S
Tb504 N535 2.660 . S
Tb504 N542 2.600 . S
Tb504 O548 2.546 . S
Tb504 O549 2.610 . S
Tb504 O551 2.320 . S
Tb504 O552 2.552 . S
Tb504 O553 2.413 . S
Tb504 O555 2.362 . S
Tb504 O556 2.421 . S
Tb504 C568 2.833 . S
C505 C508 1.432 . S
C505 C509 1.414 . S
C505 N512 1.359 . S
C506 C508 1.417 . S
C506 C510 1.432 . S
C506 C518 1.410 . S
C507 C509 1.444 . S
C507 C510 1.317 . S
C507 H530 0.929 . S
C508 C505 1.432 . S
C508 C506 1.417 . S
C508 N516 1.360 . S
C509 C505 1.414 . S
C509 C507 1.444 . S
C509 C514 1.385 . S
C510 C506 1.432 . S
C510 C507 1.317 . S
C510 H522 0.930 . S
C511 C513 1.392 . S
C511 C514 1.370 . S
C511 H523 0.931 . S
N512 C505 1.359 . S
N512 C513 1.327 . S
N512 Tb515 2.600 . S
C513 C511 1.392 . S
C513 N512 1.327 . S
C513 H520 0.930 . S
C514 C509 1.385 . S
C514 C511 1.370 . S
C514 H533 0.930 . S
Tb515 N512 2.600 . S
Tb515 N516 2.660 . S
Tb515 O549 2.362 . S
Tb515 O550 2.421 . S
Tb515 O554 2.546 . S
Tb515 O555 2.610 . S
Tb515 O557 2.320 . S
Tb515 O558 2.552 . S
Tb515 O559 2.413 . S
Tb515 C579 2.833 . S
N516 C508 1.360 . S
N516 Tb515 2.660 . S
N516 C517 1.305 . S
C517 N516 1.305 . S
C517 C519 1.407 . S
C517 H524 0.930 . S
C518 C506 1.410 . S
C518 C519 1.345 . S
C518 H526 0.930 . S
C519 C517 1.407 . S
C519 C518 1.345 . S
C519 H521 0.930 . S
H520 C513 0.930 . S
H521 C519 0.930 . S
H522 C510 0.930 . S
H523 C511 0.931 . S
H524 C517 0.930 . S
H525 C539 0.930 . S
H526 C518 0.930 . S
H527 C545 0.930 . S
H528 C536 0.930 . S
H529 C543 0.931 . S
H530 C507 0.929 . S
H531 C537 0.930 . S
H532 C570 0.930 . S
H533 C514 0.930 . S
H534 C569 0.929 . S
N535 Tb504 2.660 . S
N535 C536 1.305 . S
N535 C540 1.360 . S
C536 H528 0.930 . S
C536 N535 1.305 . S
C536 C539 1.407 . S
C537 H531 0.930 . S
C537 C538 1.410 . S
C537 C539 1.345 . S
C538 C537 1.410 . S
C538 C540 1.417 . S
C538 C570 1.432 . S
C539 H525 0.930 . S
C539 C536 1.407 . S
C539 C537 1.345 . S
C540 N535 1.360 . S
C540 C538 1.417 . S
C540 C544 1.432 . S
H541 C546 0.930 . S
N542 Tb504 2.600 . S
N542 C544 1.359 . S
N542 C545 1.327 . S
C543 H529 0.931 . S
C543 C545 1.392 . S
C543 C546 1.370 . S
C544 C540 1.432 . S
C544 N542 1.359 . S
C544 C547 1.414 . S
C545 H527 0.930 . S
C545 N542 1.327 . S
C545 C543 1.392 . S
C546 H541 0.930 . S
C546 C543 1.370 . S
C546 C547 1.385 . S
C547 C544 1.414 . S
C547 C546 1.385 . S
C547 C569 1.444 . S
O548 Tb504 2.546 . S
O548 C568 1.251 . S
O549 Tb504 2.610 . S
O549 Tb515 2.362 . S
O549 C560 1.283 . S
O550 Tb515 2.421 . S
O550 C567 1.262 . S
O551 Tb504 2.320 . S
O551 C567 1.260 . S
O552 Tb504 2.552 . S
O552 C560 1.243 . S
O553 Tb504 2.413 . S
O553 C568 1.256 . S
O554 Tb515 2.546 . S
O554 C579 1.251 . S
O555 Tb504 2.362 . S
O555 Tb515 2.610 . S
O555 C571 1.283 . S
O556 Tb504 2.421 . S
O556 C578 1.262 . S
O557 Tb515 2.320 . S
O557 C578 1.260 . S
O558 Tb515 2.552 . S
O558 C571 1.243 . S
O559 Tb515 2.413 . S
O559 C579 1.256 . S
C560 O549 1.283 . S
C560 O552 1.243 . S
C561 C563 1.382 . S
C561 C565 1.393 . S
C561 C568 1.500 . S
C562 C563 1.400 . S
C562 C564 1.384 . S
C563 C561 1.382 . S
C563 C562 1.400 . S
C563 H580 0.930 . S
C564 C562 1.384 . S
C564 C566 1.392 . S
C564 H581 0.931 . S
C565 C561 1.393 . S
C565 C566 1.401 . S
C565 H582 0.930 . S
C566 C564 1.392 . S
C566 C565 1.401 . S
C566 H583 0.930 . S
C567 O550 1.262 . S
C567 O551 1.260 . S
C568 Tb504 2.833 . S
C568 O548 1.251 . S
C568 O553 1.256 . S
C568 C561 1.500 . S
C569 H534 0.929 . S
C569 C547 1.444 . S
C569 C570 1.317 . S
C570 H532 0.930 . S
C570 C538 1.432 . S
C570 C569 1.317 . S
C571 O555 1.283 . S
C571 O558 1.243 . S
C572 C573 1.382 . S
C572 C576 1.393 . S
C572 C579 1.500 . S
C573 C572 1.382 . S
C573 C574 1.400 . S
C573 H584 0.930 . S
C574 C573 1.400 . S
C574 C575 1.384 . S
C575 C574 1.384 . S
C575 C577 1.392 . S
C575 H585 0.931 . S
C576 C572 1.393 . S
C576 C577 1.401 . S
C576 H586 0.930 . S
C577 C575 1.392 . S
C577 C576 1.401 . S
C577 H587 0.930 . S
C578 O556 1.262 . S
C578 O557 1.260 . S
C579 Tb515 2.833 . S
C579 O554 1.251 . S
C579 O559 1.256 . S
C579 C572 1.500 . S
H580 C563 0.930 . S
H581 C564 0.931 . S
H582 C565 0.930 . S
H583 C566 0.930 . S
H584 C573 0.930 . S
H585 C575 0.931 . S
H586 C576 0.930 . S
H587 C577 0.930 . S
Tb588 N619 2.660 1_445 S
Tb588 N626 2.600 1_455 S
Tb588 O632 2.546 . S
Tb588 O633 2.610 1_545 S
Tb588 O635 2.320 1_545 S
Tb588 O636 2.552 . S
Tb588 O637 2.413 1_545 S
Tb588 O639 2.362 . S
Tb588 O640 2.421 . S
Tb588 C652 2.833 . S
C589 C592 1.432 . S
C589 C593 1.414 . S
C589 N596 1.359 . S
C590 C592 1.417 . S
C590 C594 1.432 . S
C590 C602 1.410 1_565 S
C591 C593 1.444 . S
C591 C594 1.317 . S
C591 H614 0.929 . S
C592 C589 1.432 . S
C592 C590 1.417 . S
C592 N600 1.360 1_565 S
C593 C589 1.414 . S
C593 C591 1.444 . S
C593 C598 1.385 . S
C594 C590 1.432 . S
C594 C591 1.317 . S
C594 H606 0.930 . S
C595 C597 1.392 . S
C595 C598 1.370 . S
C595 H607 0.931 . S
N596 C589 1.359 . S
N596 C597 1.327 . S
N596 Tb599 2.600 . S
C597 C595 1.392 . S
C597 N596 1.327 . S
C597 H604 0.930 . S
C598 C593 1.385 . S
C598 C595 1.370 . S
C598 H617 0.930 . S
Tb599 N596 2.600 . S
Tb599 N600 2.660 1_565 S
Tb599 O633 2.362 . S
Tb599 O634 2.421 . S
Tb599 O638 2.546 . S
Tb599 O639 2.610 1_565 S
Tb599 O641 2.320 1_565 S
Tb599 O642 2.552 . S
Tb599 O643 2.413 1_565 S
Tb599 C663 2.833 . S
N600 C592 1.360 1_545 S
N600 Tb599 2.660 1_545 S
N600 C601 1.305 . S
C601 N600 1.305 . S
C601 C603 1.407 . S
C601 H608 0.930 . S
C602 C590 1.410 1_545 S
C602 C603 1.345 . S
C602 H610 0.930 . S
C603 C601 1.407 . S
C603 C602 1.345 . S
C603 H605 0.930 . S
H604 C597 0.930 . S
H605 C603 0.930 . S
H606 C594 0.930 . S
H607 C595 0.931 . S
H608 C601 0.930 . S
H609 C623 0.930 . S
H610 C602 0.930 . S
H611 C629 0.930 . S
H612 C620 0.930 . S
H613 C627 0.931 . S
H614 C591 0.929 . S
H615 C621 0.930 . S
H616 C654 0.930 . S
H617 C598 0.930 . S
H618 C653 0.929 . S
N619 Tb588 2.660 1_665 S
N619 C620 1.305 . S
N619 C624 1.360 1_565 S
C620 H612 0.930 . S
C620 N619 1.305 . S
C620 C623 1.407 . S
C621 H615 0.930 . S
C621 C622 1.410 1_565 S
C621 C623 1.345 . S
C622 C621 1.410 1_545 S
C622 C624 1.417 . S
C622 C654 1.432 . S
C623 H609 0.930 . S
C623 C620 1.407 . S
C623 C621 1.345 . S
C624 N619 1.360 1_545 S
C624 C622 1.417 . S
C624 C628 1.432 . S
H625 C630 0.930 . S
N626 Tb588 2.600 1_655 S
N626 C628 1.359 . S
N626 C629 1.327 1_655 S
C627 H613 0.931 . S
C627 C629 1.392 1_655 S
C627 C630 1.370 . S
C628 C624 1.432 . S
C628 N626 1.359 . S
C628 C631 1.414 . S
C629 H611 0.930 . S
C629 N626 1.327 1_455 S
C629 C627 1.392 1_455 S
C630 H625 0.930 . S
C630 C627 1.370 . S
C630 C631 1.385 . S
C631 C628 1.414 . S
C631 C630 1.385 . S
C631 C653 1.444 . S
O632 Tb588 2.546 . S
O632 C652 1.251 . S
O633 Tb588 2.610 1_565 S
O633 Tb599 2.362 . S
O633 C644 1.283 1_565 S
O634 Tb599 2.421 . S
O634 C651 1.262 . S
O635 Tb588 2.320 1_565 S
O635 C651 1.260 . S
O636 Tb588 2.552 . S
O636 C644 1.241 . S
O637 Tb588 2.413 1_565 S
O637 C652 1.256 1_565 S
O638 Tb599 2.546 . S
O638 C663 1.251 . S
O639 Tb588 2.362 . S
O639 Tb599 2.610 1_545 S
O639 C655 1.282 1_545 S
O640 Tb588 2.421 . S
O640 C662 1.262 . S
O641 Tb599 2.320 1_545 S
O641 C662 1.260 . S
O642 Tb599 2.552 . S
O642 C655 1.246 . S
O643 Tb599 2.413 1_545 S
O643 C663 1.256 1_545 S
C644 O633 1.283 1_545 S
C644 O636 1.241 . S
C645 C647 1.382 1_545 S
C645 C649 1.393 1_455 S
C645 C652 1.500 . S
C646 C647 1.394 1_655 S
C646 C648 1.376 1_565 S
C647 C645 1.382 1_565 S
C647 C646 1.394 1_455 S
C647 H664 0.930 . S
C648 C646 1.376 1_545 S
C648 C650 1.392 . S
C648 H665 0.931 . S
C649 C645 1.393 1_655 S
C649 C650 1.401 . S
C649 H666 0.930 . S
C650 C648 1.392 . S
C650 C649 1.401 . S
C650 H667 0.930 . S
C651 O634 1.262 . S
C651 O635 1.260 . S
C652 Tb588 2.833 . S
C652 O632 1.251 . S
C652 O637 1.256 1_545 S
C652 C645 1.500 . S
C653 H618 0.929 . S
C653 C631 1.444 . S
C653 C654 1.317 . S
C654 H616 0.930 . S
C654 C622 1.432 . S
C654 C653 1.317 . S
C655 O639 1.282 1_565 S
C655 O642 1.246 . S
C656 C657 1.382 1_565 S
C656 C660 1.393 . S
C656 C663 1.500 . S
C657 C656 1.382 1_545 S
C657 C658 1.401 . S
C657 H668 0.930 . S
C658 C657 1.401 . S
C658 C659 1.374 1_545 S
C659 C658 1.374 1_565 S
C659 C661 1.392 . S
C659 H669 0.931 . S
C660 C656 1.393 . S
C660 C661 1.401 . S
C660 H670 0.930 . S
C661 C659 1.392 . S
C661 C660 1.401 . S
C661 H671 0.930 . S
C662 O640 1.262 . S
C662 O641 1.260 . S
C663 Tb599 2.833 . S
C663 O638 1.251 . S
C663 O643 1.256 1_565 S
C663 C656 1.500 . S
H664 C647 0.930 . S
H665 C648 0.931 . S
H666 C649 0.930 . S
H667 C650 0.930 . S
H668 C657 0.930 . S
H669 C659 0.931 . S
H670 C660 0.930 . S
H671 C661 0.930 . S
Tb672 N703 2.660 . S
Tb672 N710 2.600 . S
Tb672 O716 2.546 . S
Tb672 O717 2.610 . S
Tb672 O719 2.320 . S
Tb672 O720 2.552 . S
Tb672 O721 2.413 . S
Tb672 O723 2.362 . S
Tb672 O724 2.421 . S
Tb672 C736 2.833 . S
C673 C676 1.432 . S
C673 C677 1.414 . S
C673 N680 1.359 . S
C674 C676 1.417 . S
C674 C678 1.432 . S
C674 C686 1.410 . S
C675 C677 1.444 . S
C675 C678 1.317 . S
C675 H698 0.929 . S
C676 C673 1.432 . S
C676 C674 1.417 . S
C676 N684 1.360 . S
C677 C673 1.414 . S
C677 C675 1.444 . S
C677 C682 1.385 . S
C678 C674 1.432 . S
C678 C675 1.317 . S
C678 H690 0.930 . S
C679 C681 1.392 . S
C679 C682 1.370 . S
C679 H691 0.931 . S
N680 C673 1.359 . S
N680 C681 1.327 . S
N680 Tb683 2.600 . S
C681 C679 1.392 . S
C681 N680 1.327 . S
C681 H688 0.930 . S
C682 C677 1.385 . S
C682 C679 1.370 . S
C682 H701 0.930 . S
Tb683 N680 2.600 . S
Tb683 N684 2.660 . S
Tb683 O717 2.362 . S
Tb683 O718 2.421 . S
Tb683 O722 2.546 . S
Tb683 O723 2.610 . S
Tb683 O725 2.320 . S
Tb683 O726 2.552 . S
Tb683 O727 2.413 . S
Tb683 C747 2.833 . S
N684 C676 1.360 . S
N684 Tb683 2.660 . S
N684 C685 1.305 . S
C685 N684 1.305 . S
C685 C687 1.407 . S
C685 H692 0.930 . S
C686 C674 1.410 . S
C686 C687 1.345 . S
C686 H694 0.930 . S
C687 C685 1.407 . S
C687 C686 1.345 . S
C687 H689 0.930 . S
H688 C681 0.930 . S
H689 C687 0.930 . S
H690 C678 0.930 . S
H691 C679 0.931 . S
H692 C685 0.930 . S
H693 C707 0.930 . S
H694 C686 0.930 . S
H695 C713 0.930 . S
H696 C704 0.930 . S
H697 C711 0.931 . S
H698 C675 0.929 . S
H699 C705 0.930 . S
H700 C738 0.930 . S
H701 C682 0.930 . S
H702 C737 0.929 . S
N703 Tb672 2.660 . S
N703 C704 1.305 . S
N703 C708 1.360 . S
C704 H696 0.930 . S
C704 N703 1.305 . S
C704 C707 1.407 . S
C705 H699 0.930 . S
C705 C706 1.410 . S
C705 C707 1.345 . S
C706 C705 1.410 . S
C706 C708 1.417 . S
C706 C738 1.432 . S
C707 H693 0.930 . S
C707 C704 1.407 . S
C707 C705 1.345 . S
C708 N703 1.360 . S
C708 C706 1.417 . S
C708 C712 1.432 . S
H709 C714 0.930 . S
N710 Tb672 2.600 . S
N710 C712 1.359 . S
N710 C713 1.327 . S
C711 H697 0.931 . S
C711 C713 1.392 . S
C711 C714 1.370 . S
C712 C708 1.432 . S
C712 N710 1.359 . S
C712 C715 1.414 . S
C713 H695 0.930 . S
C713 N710 1.327 . S
C713 C711 1.392 . S
C714 H709 0.930 . S
C714 C711 1.370 . S
C714 C715 1.385 . S
C715 C712 1.414 . S
C715 C714 1.385 . S
C715 C737 1.444 . S
O716 Tb672 2.546 . S
O716 C736 1.251 . S
O717 Tb672 2.610 . S
O717 Tb683 2.362 . S
O717 C728 1.283 . S
O718 Tb683 2.421 . S
O718 C735 1.262 . S
O719 Tb672 2.320 . S
O719 C735 1.260 . S
O720 Tb672 2.552 . S
O720 C728 1.243 . S
O721 Tb672 2.413 . S
O721 C736 1.256 . S
O722 Tb683 2.546 . S
O722 C747 1.251 . S
O723 Tb672 2.362 . S
O723 Tb683 2.610 . S
O723 C739 1.283 . S
O724 Tb672 2.421 . S
O724 C746 1.262 . S
O725 Tb683 2.320 . S
O725 C746 1.260 . S
O726 Tb683 2.552 . S
O726 C739 1.243 . S
O727 Tb683 2.413 . S
O727 C747 1.256 . S
C728 O717 1.283 . S
C728 O720 1.243 . S
C729 C731 1.382 . S
C729 C733 1.393 . S
C729 C736 1.500 . S
C730 C731 1.400 . S
C730 C732 1.384 . S
C731 C729 1.382 . S
C731 C730 1.400 . S
C731 H748 0.930 . S
C732 C730 1.384 . S
C732 C734 1.392 . S
C732 H749 0.931 . S
C733 C729 1.393 . S
C733 C734 1.401 . S
C733 H750 0.930 . S
C734 C732 1.392 . S
C734 C733 1.401 . S
C734 H751 0.930 . S
C735 O718 1.262 . S
C735 O719 1.260 . S
C736 Tb672 2.833 . S
C736 O716 1.251 . S
C736 O721 1.256 . S
C736 C729 1.500 . S
C737 H702 0.929 . S
C737 C715 1.444 . S
C737 C738 1.317 . S
C738 H700 0.930 . S
C738 C706 1.432 . S
C738 C737 1.317 . S
C739 O723 1.283 . S
C739 O726 1.243 . S
C740 C741 1.382 . S
C740 C744 1.393 . S
C740 C747 1.500 . S
C741 C740 1.382 . S
C741 C742 1.400 . S
C741 H752 0.930 . S
C742 C741 1.400 . S
C742 C743 1.384 . S
C743 C742 1.384 . S
C743 C745 1.392 . S
C743 H753 0.931 . S
C744 C740 1.393 . S
C744 C745 1.401 . S
C744 H754 0.930 . S
C745 C743 1.392 . S
C745 C744 1.401 . S
C745 H755 0.930 . S
C746 O724 1.262 . S
C746 O725 1.260 . S
C747 Tb683 2.833 . S
C747 O722 1.251 . S
C747 O727 1.256 . S
C747 C740 1.500 . S
H748 C731 0.930 . S
H749 C732 0.931 . S
H750 C733 0.930 . S
H751 C734 0.930 . S
H752 C741 0.930 . S
H753 C743 0.931 . S
H754 C744 0.930 . S
H755 C745 0.930 . S
Tb756 N787 2.660 . S
Tb756 N794 2.600 . S
Tb756 O800 2.546 . S
Tb756 O801 2.610 . S
Tb756 O803 2.320 . S
Tb756 O804 2.552 . S
Tb756 O805 2.413 . S
Tb756 O807 2.362 . S
Tb756 O808 2.421 . S
Tb756 C820 2.833 . S
C757 C760 1.432 . S
C757 C761 1.414 . S
C757 N764 1.359 . S
C758 C760 1.417 . S
C758 C762 1.432 . S
C758 C770 1.410 . S
C759 C761 1.444 . S
C759 C762 1.317 . S
C759 H782 0.929 . S
C760 C757 1.432 . S
C760 C758 1.417 . S
C760 N768 1.360 . S
C761 C757 1.414 . S
C761 C759 1.444 . S
C761 C766 1.385 . S
C762 C758 1.432 . S
C762 C759 1.317 . S
C762 H774 0.930 . S
C763 C765 1.393 . S
C763 C766 1.370 . S
C763 H775 0.931 . S
N764 C757 1.359 . S
N764 C765 1.327 . S
N764 Tb767 2.600 1_455 S
C765 C763 1.393 . S
C765 N764 1.327 . S
C765 H772 0.929 1_455 S
C766 C761 1.385 . S
C766 C763 1.370 . S
C766 H785 0.930 . S
Tb767 N764 2.600 1_655 S
Tb767 N768 2.660 1_655 S
Tb767 O801 2.362 . S
Tb767 O802 2.421 . S
Tb767 O806 2.546 . S
Tb767 O807 2.610 . S
Tb767 O809 2.320 . S
Tb767 O810 2.552 . S
Tb767 O811 2.413 . S
Tb767 C831 2.833 . S
N768 C760 1.360 . S
N768 Tb767 2.660 1_455 S
N768 C769 1.305 . S
C769 N768 1.305 . S
C769 C771 1.407 . S
C769 H776 0.930 . S
C770 C758 1.410 . S
C770 C771 1.345 . S
C770 H778 0.930 . S
C771 C769 1.407 . S
C771 C770 1.345 . S
C771 H773 0.930 . S
H772 C765 0.929 1_655 S
H773 C771 0.930 . S
H774 C762 0.930 . S
H775 C763 0.931 . S
H776 C769 0.930 . S
H777 C791 0.930 . S
H778 C770 0.930 . S
H779 C797 0.930 . S
H780 C788 0.930 . S
H781 C795 0.931 . S
H782 C759 0.929 . S
H783 C789 0.930 . S
H784 C822 0.930 . S
H785 C766 0.930 . S
H786 C821 0.929 . S
N787 Tb756 2.660 . S
N787 C788 1.305 . S
N787 C792 1.360 . S
C788 H780 0.930 . S
C788 N787 1.305 . S
C788 C791 1.407 . S
C789 H783 0.930 . S
C789 C790 1.410 . S
C789 C791 1.345 . S
C790 C789 1.410 . S
C790 C792 1.417 . S
C790 C822 1.432 . S
C791 H777 0.930 . S
C791 C788 1.407 . S
C791 C789 1.345 . S
C792 N787 1.360 . S
C792 C790 1.417 . S
C792 C796 1.432 . S
H793 C798 0.930 . S
N794 Tb756 2.600 . S
N794 C796 1.359 . S
N794 C797 1.327 . S
C795 H781 0.931 . S
C795 C797 1.392 . S
C795 C798 1.370 . S
C796 C792 1.432 . S
C796 N794 1.359 . S
C796 C799 1.414 . S
C797 H779 0.930 . S
C797 N794 1.327 . S
C797 C795 1.392 . S
C798 H793 0.930 . S
C798 C795 1.370 . S
C798 C799 1.385 . S
C799 C796 1.414 . S
C799 C798 1.385 . S
C799 C821 1.444 . S
O800 Tb756 2.546 . S
O800 C820 1.251 . S
O801 Tb756 2.610 . S
O801 Tb767 2.362 . S
O801 C812 1.283 . S
O802 Tb767 2.421 . S
O802 C819 1.262 . S
O803 Tb756 2.320 . S
O803 C819 1.260 . S
O804 Tb756 2.552 . S
O804 C812 1.243 . S
O805 Tb756 2.413 . S
O805 C820 1.256 . S
O806 Tb767 2.546 . S
O806 C831 1.251 . S
O807 Tb756 2.362 . S
O807 Tb767 2.610 . S
O807 C823 1.283 . S
O808 Tb756 2.421 . S
O808 C830 1.262 . S
O809 Tb767 2.320 . S
O809 C830 1.260 . S
O810 Tb767 2.552 . S
O810 C823 1.243 . S
O811 Tb767 2.413 . S
O811 C831 1.256 . S
C812 O801 1.283 . S
C812 O804 1.243 . S
C813 C815 1.382 . S
C813 C817 1.393 . S
C813 C820 1.500 . S
C814 C815 1.400 . S
C814 C816 1.384 . S
C815 C813 1.382 . S
C815 C814 1.400 . S
C815 H832 0.930 . S
C816 C814 1.384 . S
C816 C818 1.392 . S
C816 H833 0.931 . S
C817 C813 1.393 . S
C817 C818 1.401 . S
C817 H834 0.930 . S
C818 C816 1.392 . S
C818 C817 1.401 . S
C818 H835 0.930 . S
C819 O802 1.262 . S
C819 O803 1.260 . S
C820 Tb756 2.833 . S
C820 O800 1.251 . S
C820 O805 1.256 . S
C820 C813 1.500 . S
C821 H786 0.929 . S
C821 C799 1.444 . S
C821 C822 1.317 . S
C822 H784 0.930 . S
C822 C790 1.432 . S
C822 C821 1.317 . S
C823 O807 1.283 . S
C823 O810 1.243 . S
C824 C825 1.382 . S
C824 C828 1.393 1_655 S
C824 C831 1.500 . S
C825 C824 1.382 . S
C825 C826 1.400 1_655 S
C825 H836 0.930 . S
C826 C825 1.400 1_455 S
C826 C827 1.384 . S
C827 C826 1.384 . S
C827 C829 1.392 . S
C827 H837 0.931 . S
C828 C824 1.393 1_455 S
C828 C829 1.401 . S
C828 H838 0.930 . S
C829 C827 1.392 . S
C829 C828 1.401 . S
C829 H839 0.930 . S
C830 O808 1.262 . S
C830 O809 1.260 . S
C831 Tb767 2.833 . S
C831 O806 1.251 . S
C831 O811 1.256 . S
C831 C824 1.500 . S
H832 C815 0.930 . S
H833 C816 0.931 . S
H834 C817 0.930 . S
H835 C818 0.930 . S
H836 C825 0.930 . S
H837 C827 0.931 . S
H838 C828 0.930 . S
H839 C829 0.930 . S
Tb840 N871 2.660 . S
Tb840 N878 2.600 . S
Tb840 O884 2.546 . S
Tb840 O885 2.610 . S
Tb840 O887 2.320 . S
Tb840 O888 2.552 . S
Tb840 O889 2.413 . S
Tb840 O891 2.362 . S
Tb840 O892 2.421 . S
Tb840 C904 2.833 . S
C841 C844 1.432 . S
C841 C845 1.414 . S
C841 N848 1.359 . S
C842 C844 1.417 . S
C842 C846 1.432 . S
C842 C854 1.410 . S
C843 C845 1.444 . S
C843 C846 1.317 . S
C843 H866 0.929 . S
C844 C841 1.432 . S
C844 C842 1.417 . S
C844 N852 1.360 . S
C845 C841 1.414 . S
C845 C843 1.444 . S
C845 C850 1.385 . S
C846 C842 1.432 . S
C846 C843 1.317 . S
C846 H858 0.930 . S
C847 C849 1.392 . S
C847 C850 1.370 . S
C847 H859 0.931 . S
N848 C841 1.359 . S
N848 C849 1.327 . S
N848 Tb851 2.600 . S
C849 C847 1.392 . S
C849 N848 1.327 . S
C849 H856 0.930 . S
C850 C845 1.385 . S
C850 C847 1.370 . S
C850 H869 0.930 . S
Tb851 N848 2.600 . S
Tb851 N852 2.660 . S
Tb851 O885 2.362 . S
Tb851 O886 2.421 . S
Tb851 O890 2.546 . S
Tb851 O891 2.610 . S
Tb851 O893 2.320 . S
Tb851 O894 2.552 . S
Tb851 O895 2.413 . S
Tb851 C915 2.833 . S
N852 C844 1.360 . S
N852 Tb851 2.660 . S
N852 C853 1.305 . S
C853 N852 1.305 . S
C853 C855 1.407 . S
C853 H860 0.930 . S
C854 C842 1.410 . S
C854 C855 1.345 . S
C854 H862 0.930 . S
C855 C853 1.407 . S
C855 C854 1.345 . S
C855 H857 0.930 . S
H856 C849 0.930 . S
H857 C855 0.930 . S
H858 C846 0.930 . S
H859 C847 0.931 . S
H860 C853 0.930 . S
H861 C875 0.930 . S
H862 C854 0.930 . S
H863 C881 0.930 . S
H864 C872 0.930 . S
H865 C879 0.931 . S
H866 C843 0.929 . S
H867 C873 0.930 . S
H868 C906 0.930 . S
H869 C850 0.930 . S
H870 C905 0.929 . S
N871 Tb840 2.660 . S
N871 C872 1.305 . S
N871 C876 1.360 . S
C872 H864 0.930 . S
C872 N871 1.305 . S
C872 C875 1.407 . S
C873 H867 0.930 . S
C873 C874 1.410 . S
C873 C875 1.345 . S
C874 C873 1.410 . S
C874 C876 1.417 . S
C874 C906 1.432 . S
C875 H861 0.930 . S
C875 C872 1.407 . S
C875 C873 1.345 . S
C876 N871 1.360 . S
C876 C874 1.417 . S
C876 C880 1.432 . S
H877 C882 0.930 . S
N878 Tb840 2.600 . S
N878 C880 1.359 . S
N878 C881 1.327 . S
C879 H865 0.931 . S
C879 C881 1.392 . S
C879 C882 1.370 . S
C880 C876 1.432 . S
C880 N878 1.359 . S
C880 C883 1.414 . S
C881 H863 0.930 . S
C881 N878 1.327 . S
C881 C879 1.392 . S
C882 H877 0.930 . S
C882 C879 1.370 . S
C882 C883 1.385 . S
C883 C880 1.414 . S
C883 C882 1.385 . S
C883 C905 1.444 . S
O884 Tb840 2.546 . S
O884 C904 1.251 . S
O885 Tb840 2.610 . S
O885 Tb851 2.362 . S
O885 C896 1.283 . S
O886 Tb851 2.421 . S
O886 C903 1.262 . S
O887 Tb840 2.320 . S
O887 C903 1.260 . S
O888 Tb840 2.552 . S
O888 C896 1.243 . S
O889 Tb840 2.413 . S
O889 C904 1.256 . S
O890 Tb851 2.546 . S
O890 C915 1.251 . S
O891 Tb840 2.362 . S
O891 Tb851 2.610 . S
O891 C907 1.283 . S
O892 Tb840 2.421 . S
O892 C914 1.262 . S
O893 Tb851 2.320 . S
O893 C914 1.260 . S
O894 Tb851 2.552 . S
O894 C907 1.243 . S
O895 Tb851 2.413 . S
O895 C915 1.256 . S
C896 O885 1.283 . S
C896 O888 1.243 . S
C897 C899 1.382 . S
C897 C901 1.393 . S
C897 C904 1.500 . S
C898 C899 1.400 . S
C898 C900 1.384 . S
C899 C897 1.382 . S
C899 C898 1.400 . S
C899 H916 0.930 . S
C900 C898 1.384 . S
C900 C902 1.392 . S
C900 H917 0.931 . S
C901 C897 1.393 . S
C901 C902 1.401 . S
C901 H918 0.930 . S
C902 C900 1.392 . S
C902 C901 1.401 . S
C902 H919 0.930 . S
C903 O886 1.262 . S
C903 O887 1.260 . S
C904 Tb840 2.833 . S
C904 O884 1.251 . S
C904 O889 1.256 . S
C904 C897 1.500 . S
C905 H870 0.929 . S
C905 C883 1.444 . S
C905 C906 1.317 . S
C906 H868 0.930 . S
C906 C874 1.432 . S
C906 C905 1.317 . S
C907 O891 1.283 . S
C907 O894 1.243 . S
C908 C909 1.382 . S
C908 C912 1.393 . S
C908 C915 1.500 . S
C909 C908 1.382 . S
C909 C910 1.400 . S
C909 H920 0.930 . S
C910 C909 1.400 . S
C910 C911 1.384 . S
C911 C910 1.384 . S
C911 C913 1.392 . S
C911 H921 0.931 . S
C912 C908 1.393 . S
C912 C913 1.401 . S
C912 H922 0.930 . S
C913 C911 1.392 . S
C913 C912 1.401 . S
C913 H923 0.930 . S
C914 O892 1.262 . S
C914 O893 1.260 . S
C915 Tb851 2.833 . S
C915 O890 1.251 . S
C915 O895 1.256 . S
C915 C908 1.500 . S
H916 C899 0.930 . S
H917 C900 0.931 . S
H918 C901 0.930 . S
H919 C902 0.930 . S
H920 C909 0.930 . S
H921 C911 0.931 . S
H922 C912 0.930 . S
H923 C913 0.930 . S
Tb924 N955 2.660 . S
Tb924 N962 2.600 . S
Tb924 O968 2.546 . S
Tb924 O969 2.610 . S
Tb924 O971 2.320 . S
Tb924 O972 2.552 . S
Tb924 O973 2.413 . S
Tb924 O975 2.362 . S
Tb924 O976 2.421 . S
Tb924 C988 2.833 . S
C925 C928 1.432 . S
C925 C929 1.414 . S
C925 N932 1.359 . S
C926 C928 1.417 . S
C926 C930 1.432 . S
C926 C938 1.410 . S
C927 C929 1.444 . S
C927 C930 1.317 . S
C927 H950 0.929 . S
C928 C925 1.432 . S
C928 C926 1.417 . S
C928 N936 1.360 . S
C929 C925 1.414 . S
C929 C927 1.444 . S
C929 C934 1.385 . S
C930 C926 1.432 . S
C930 C927 1.317 . S
C930 H942 0.930 . S
C931 C933 1.373 1_455 S
C931 C934 1.370 . S
C931 H943 0.931 . S
N932 C925 1.359 . S
N932 C933 1.323 1_455 S
N932 Tb935 2.600 1_455 S
C933 C931 1.373 1_655 S
C933 N932 1.323 1_655 S
C933 H940 0.955 . S
C934 C929 1.385 . S
C934 C931 1.370 . S
C934 H953 0.930 . S
Tb935 N932 2.600 1_655 S
Tb935 N936 2.660 1_655 S
Tb935 O969 2.362 . S
Tb935 O970 2.421 . S
Tb935 O974 2.546 . S
Tb935 O975 2.610 . S
Tb935 O977 2.320 . S
Tb935 O978 2.552 . S
Tb935 O979 2.413 . S
Tb935 C999 2.833 . S
N936 C928 1.360 . S
N936 Tb935 2.660 1_455 S
N936 C937 1.305 . S
C937 N936 1.305 . S
C937 C939 1.407 . S
C937 H944 0.930 . S
C938 C926 1.410 . S
C938 C939 1.345 . S
C938 H946 0.930 . S
C939 C937 1.407 . S
C939 C938 1.345 . S
C939 H941 0.930 . S
H940 C933 0.955 . S
H941 C939 0.930 . S
H942 C930 0.930 . S
H943 C931 0.931 . S
H944 C937 0.930 . S
H945 C959 0.930 . S
H946 C938 0.930 . S
H947 C965 0.930 . S
H948 C956 0.930 . S
H949 C963 0.931 . S
H950 C927 0.929 . S
H951 C957 0.930 . S
H952 C990 0.930 . S
H953 C934 0.930 . S
H954 C989 0.929 . S
N955 Tb924 2.660 . S
N955 C956 1.305 . S
N955 C960 1.360 . S
C956 H948 0.930 . S
C956 N955 1.305 . S
C956 C959 1.407 . S
C957 H951 0.930 . S
C957 C958 1.410 . S
C957 C959 1.345 . S
C958 C957 1.410 . S
C958 C960 1.417 . S
C958 C990 1.432 . S
C959 H945 0.930 . S
C959 C956 1.407 . S
C959 C957 1.345 . S
C960 N955 1.360 . S
C960 C958 1.417 . S
C960 C964 1.432 . S
H961 C966 0.930 . S
N962 Tb924 2.600 . S
N962 C964 1.359 . S
N962 C965 1.327 . S
C963 H949 0.931 . S
C963 C965 1.392 . S
C963 C966 1.370 . S
C964 C960 1.432 . S
C964 N962 1.359 . S
C964 C967 1.414 . S
C965 H947 0.930 . S
C965 N962 1.327 . S
C965 C963 1.392 . S
C966 H961 0.930 . S
C966 C963 1.370 . S
C966 C967 1.385 . S
C967 C964 1.414 . S
C967 C966 1.385 . S
C967 C989 1.444 . S
O968 Tb924 2.546 . S
O968 C988 1.251 . S
O969 Tb924 2.610 . S
O969 Tb935 2.362 . S
O969 C980 1.283 . S
O970 Tb935 2.421 . S
O970 C987 1.262 . S
O971 Tb924 2.320 . S
O971 C987 1.260 . S
O972 Tb924 2.552 . S
O972 C980 1.243 . S
O973 Tb924 2.413 . S
O973 C988 1.256 . S
O974 Tb935 2.546 . S
O974 C999 1.251 . S
O975 Tb924 2.362 . S
O975 Tb935 2.610 . S
O975 C991 1.283 . S
O976 Tb924 2.421 . S
O976 C998 1.262 . S
O977 Tb935 2.320 . S
O977 C998 1.260 . S
O978 Tb935 2.552 . S
O978 C991 1.243 . S
O979 Tb935 2.413 . S
O979 C999 1.256 . S
C980 O969 1.283 . S
C980 O972 1.243 . S
C981 C983 1.382 . S
C981 C985 1.393 . S
C981 C988 1.500 . S
C982 C983 1.400 . S
C982 C984 1.384 . S
C983 C981 1.382 . S
C983 C982 1.400 . S
C983 H1000 0.930 . S
C984 C982 1.384 . S
C984 C986 1.392 . S
C984 H1001 0.931 . S
C985 C981 1.393 . S
C985 C986 1.401 . S
C985 H1002 0.930 . S
C986 C984 1.392 . S
C986 C985 1.401 . S
C986 H1003 0.930 . S
C987 O970 1.262 . S
C987 O971 1.260 . S
C988 Tb924 2.833 . S
C988 O968 1.251 . S
C988 O973 1.256 . S
C988 C981 1.500 . S
C989 H954 0.929 . S
C989 C967 1.444 . S
C989 C990 1.317 . S
C990 H952 0.930 . S
C990 C958 1.432 . S
C990 C989 1.317 . S
C991 O975 1.283 . S
C991 O978 1.243 . S
C992 C993 1.382 . S
C992 C996 1.393 1_655 S
C992 C999 1.500 . S
C993 C992 1.382 . S
C993 C994 1.400 1_655 S
C993 H1004 0.930 . S
C994 C993 1.400 1_455 S
C994 C995 1.384 . S
C995 C994 1.384 . S
C995 C997 1.392 . S
C995 H1005 0.931 . S
C996 C992 1.393 1_455 S
C996 C997 1.401 . S
C996 H1006 0.930 . S
C997 C995 1.392 . S
C997 C996 1.401 . S
C997 H1007 0.930 . S
C998 O976 1.262 . S
C998 O977 1.260 . S
C999 Tb935 2.833 . S
C999 O974 1.251 . S
C999 O979 1.256 . S
C999 C992 1.500 . S
H1000 C983 0.930 . S
H1001 C984 0.931 . S
H1002 C985 0.930 . S
H1003 C986 0.930 . S
H1004 C993 0.930 . S
H1005 C995 0.931 . S
H1006 C996 0.930 . S
H1007 C997 0.930 . S
Tb1008 N1039 2.660 . S
Tb1008 N1046 2.600 . S
Tb1008 O1052 2.546 . S
Tb1008 O1053 2.610 . S
Tb1008 O1055 2.320 . S
Tb1008 O1056 2.552 . S
Tb1008 O1057 2.413 . S
Tb1008 O1059 2.362 . S
Tb1008 O1060 2.421 . S
Tb1008 C1072 2.833 . S
C1009 C1012 1.432 . S
C1009 C1013 1.414 . S
C1009 N1016 1.359 . S
C1010 C1012 1.417 . S
C1010 C1014 1.432 . S
C1010 C1022 1.410 . S
C1011 C1013 1.444 . S
C1011 C1014 1.317 . S
C1011 H1034 0.929 . S
C1012 C1009 1.432 . S
C1012 C1010 1.417 . S
C1012 N1020 1.360 . S
C1013 C1009 1.414 . S
C1013 C1011 1.444 . S
C1013 C1018 1.385 . S
C1014 C1010 1.432 . S
C1014 C1011 1.317 . S
C1014 H1026 0.930 . S
C1015 C1017 1.392 . S
C1015 C1018 1.370 . S
C1015 H1027 0.931 . S
N1016 C1009 1.359 . S
N1016 C1017 1.327 . S
N1016 Tb1019 2.600 . S
C1017 C1015 1.392 . S
C1017 N1016 1.327 . S
C1017 H1024 0.930 . S
C1018 C1013 1.385 . S
C1018 C1015 1.370 . S
C1018 H1037 0.930 . S
Tb1019 N1016 2.600 . S
Tb1019 N1020 2.660 . S
Tb1019 O1053 2.362 . S
Tb1019 O1054 2.421 . S
Tb1019 O1058 2.546 . S
Tb1019 O1059 2.610 . S
Tb1019 O1061 2.320 . S
Tb1019 O1062 2.552 . S
Tb1019 O1063 2.413 . S
Tb1019 C1083 2.833 . S
N1020 C1012 1.360 . S
N1020 Tb1019 2.660 . S
N1020 C1021 1.305 . S
C1021 N1020 1.305 . S
C1021 C1023 1.407 . S
C1021 H1028 0.930 . S
C1022 C1010 1.410 . S
C1022 C1023 1.345 . S
C1022 H1030 0.930 . S
C1023 C1021 1.407 . S
C1023 C1022 1.345 . S
C1023 H1025 0.930 . S
H1024 C1017 0.930 . S
H1025 C1023 0.930 . S
H1026 C1014 0.930 . S
H1027 C1015 0.931 . S
H1028 C1021 0.930 . S
H1029 C1043 0.930 . S
H1030 C1022 0.930 . S
H1031 C1049 0.930 . S
H1032 C1040 0.930 . S
H1033 C1047 0.931 . S
H1034 C1011 0.929 . S
H1035 C1041 0.930 . S
H1036 C1074 0.930 . S
H1037 C1018 0.930 . S
H1038 C1073 0.929 . S
N1039 Tb1008 2.660 . S
N1039 C1040 1.305 . S
N1039 C1044 1.360 . S
C1040 H1032 0.930 . S
C1040 N1039 1.305 . S
C1040 C1043 1.407 . S
C1041 H1035 0.930 . S
C1041 C1042 1.410 . S
C1041 C1043 1.345 . S
C1042 C1041 1.410 . S
C1042 C1044 1.417 . S
C1042 C1074 1.432 . S
C1043 H1029 0.930 . S
C1043 C1040 1.407 . S
C1043 C1041 1.345 . S
C1044 N1039 1.360 . S
C1044 C1042 1.417 . S
C1044 C1048 1.432 . S
H1045 C1050 0.930 . S
N1046 Tb1008 2.600 . S
N1046 C1048 1.359 . S
N1046 C1049 1.327 . S
C1047 H1033 0.931 . S
C1047 C1049 1.392 . S
C1047 C1050 1.370 . S
C1048 C1044 1.432 . S
C1048 N1046 1.359 . S
C1048 C1051 1.414 . S
C1049 H1031 0.930 . S
C1049 N1046 1.327 . S
C1049 C1047 1.392 . S
C1050 H1045 0.930 . S
C1050 C1047 1.370 . S
C1050 C1051 1.385 . S
C1051 C1048 1.414 . S
C1051 C1050 1.385 . S
C1051 C1073 1.444 . S
O1052 Tb1008 2.546 . S
O1052 C1072 1.251 . S
O1053 Tb1008 2.610 . S
O1053 Tb1019 2.362 . S
O1053 C1064 1.283 . S
O1054 Tb1019 2.421 . S
O1054 C1071 1.262 . S
O1055 Tb1008 2.320 . S
O1055 C1071 1.260 . S
O1056 Tb1008 2.552 . S
O1056 C1064 1.243 . S
O1057 Tb1008 2.413 . S
O1057 C1072 1.256 . S
O1058 Tb1019 2.546 . S
O1058 C1083 1.251 . S
O1059 Tb1008 2.362 . S
O1059 Tb1019 2.610 . S
O1059 C1075 1.283 . S
O1060 Tb1008 2.421 . S
O1060 C1082 1.262 . S
O1061 Tb1019 2.320 . S
O1061 C1082 1.260 . S
O1062 Tb1019 2.552 . S
O1062 C1075 1.243 . S
O1063 Tb1019 2.413 . S
O1063 C1083 1.256 . S
C1064 O1053 1.283 . S
C1064 O1056 1.243 . S
C1065 C1067 1.382 . S
C1065 C1069 1.393 . S
C1065 C1072 1.500 . S
C1066 C1067 1.400 . S
C1066 C1068 1.384 . S
C1067 C1065 1.382 . S
C1067 C1066 1.400 . S
C1067 H1084 0.930 . S
C1068 C1066 1.384 . S
C1068 C1070 1.392 . S
C1068 H1085 0.931 . S
C1069 C1065 1.393 . S
C1069 C1070 1.401 . S
C1069 H1086 0.930 . S
C1070 C1068 1.392 . S
C1070 C1069 1.401 . S
C1070 H1087 0.930 . S
C1071 O1054 1.262 . S
C1071 O1055 1.260 . S
C1072 Tb1008 2.833 . S
C1072 O1052 1.251 . S
C1072 O1057 1.256 . S
C1072 C1065 1.500 . S
C1073 H1038 0.929 . S
C1073 C1051 1.444 . S
C1073 C1074 1.317 . S
C1074 H1036 0.930 . S
C1074 C1042 1.432 . S
C1074 C1073 1.317 . S
C1075 O1059 1.283 . S
C1075 O1062 1.243 . S
C1076 C1077 1.382 . S
C1076 C1080 1.393 . S
C1076 C1083 1.500 . S
C1077 C1076 1.382 . S
C1077 C1078 1.400 . S
C1077 H1088 0.930 . S
C1078 C1077 1.400 . S
C1078 C1079 1.384 . S
C1079 C1078 1.384 . S
C1079 C1081 1.392 . S
C1079 H1089 0.931 . S
C1080 C1076 1.393 . S
C1080 C1081 1.401 . S
C1080 H1090 0.930 . S
C1081 C1079 1.392 . S
C1081 C1080 1.401 . S
C1081 H1091 0.930 . S
C1082 O1060 1.262 . S
C1082 O1061 1.260 . S
C1083 Tb1019 2.833 . S
C1083 O1058 1.251 . S
C1083 O1063 1.256 . S
C1083 C1076 1.500 . S
H1084 C1067 0.930 . S
H1085 C1068 0.931 . S
H1086 C1069 0.930 . S
H1087 C1070 0.930 . S
H1088 C1077 0.930 . S
H1089 C1079 0.931 . S
H1090 C1080 0.930 . S
H1091 C1081 0.930 . S
Tb1092 N1123 2.660 1_455 S
Tb1092 N1130 2.600 1_455 S
Tb1092 O1136 2.546 . S
Tb1092 O1137 2.610 . S
Tb1092 O1139 2.320 . S
Tb1092 O1140 2.552 . S
Tb1092 O1141 2.413 . S
Tb1092 O1143 2.362 . S
Tb1092 O1144 2.421 . S
Tb1092 C1156 2.833 . S
C1093 C1096 1.432 . S
C1093 C1097 1.414 . S
C1093 N1100 1.359 . S
C1094 C1096 1.417 . S
C1094 C1098 1.432 . S
C1094 C1106 1.410 . S
C1095 C1097 1.444 . S
C1095 C1098 1.317 . S
C1095 H1118 0.929 . S
C1096 C1093 1.432 . S
C1096 C1094 1.417 . S
C1096 N1104 1.360 . S
C1097 C1093 1.414 . S
C1097 C1095 1.444 . S
C1097 C1102 1.385 . S
C1098 C1094 1.432 . S
C1098 C1095 1.317 . S
C1098 H1110 0.930 . S
C1099 C1101 1.392 . S
C1099 C1102 1.370 . S
C1099 H1111 0.931 . S
N1100 C1093 1.359 . S
N1100 C1101 1.327 . S
N1100 Tb1103 2.600 . S
C1101 C1099 1.392 . S
C1101 N1100 1.327 . S
C1101 H1108 0.930 . S
C1102 C1097 1.385 . S
C1102 C1099 1.370 . S
C1102 H1121 0.930 . S
Tb1103 N1100 2.600 . S
Tb1103 N1104 2.660 . S
Tb1103 O1137 2.362 . S
Tb1103 O1138 2.421 . S
Tb1103 O1142 2.546 . S
Tb1103 O1143 2.610 . S
Tb1103 O1145 2.320 . S
Tb1103 O1146 2.552 . S
Tb1103 O1147 2.413 . S
Tb1103 C1167 2.833 . S
N1104 C1096 1.360 . S
N1104 Tb1103 2.660 . S
N1104 C1105 1.305 . S
C1105 N1104 1.305 . S
C1105 C1107 1.407 . S
C1105 H1112 0.930 . S
C1106 C1094 1.410 . S
C1106 C1107 1.345 . S
C1106 H1114 0.930 . S
C1107 C1105 1.407 . S
C1107 C1106 1.345 . S
C1107 H1109 0.930 . S
H1108 C1101 0.930 . S
H1109 C1107 0.930 . S
H1110 C1098 0.930 . S
H1111 C1099 0.931 . S
H1112 C1105 0.930 . S
H1113 C1127 0.930 . S
H1114 C1106 0.930 . S
H1115 C1133 0.929 1_455 S
H1116 C1124 0.930 . S
H1117 C1131 0.931 . S
H1118 C1095 0.929 . S
H1119 C1125 0.930 . S
H1120 C1158 0.930 . S
H1121 C1102 0.930 . S
H1122 C1157 0.929 . S
N1123 Tb1092 2.660 1_655 S
N1123 C1124 1.305 . S
N1123 C1128 1.360 . S
C1124 H1116 0.930 . S
C1124 N1123 1.305 . S
C1124 C1127 1.407 . S
C1125 H1119 0.930 . S
C1125 C1126 1.410 . S
C1125 C1127 1.345 . S
C1126 C1125 1.410 . S
C1126 C1128 1.417 . S
C1126 C1158 1.432 . S
C1127 H1113 0.930 . S
C1127 C1124 1.407 . S
C1127 C1125 1.345 . S
C1128 N1123 1.360 . S
C1128 C1126 1.417 . S
C1128 C1132 1.432 . S
H1129 C1134 0.930 . S
N1130 Tb1092 2.600 1_655 S
N1130 C1132 1.359 . S
N1130 C1133 1.327 . S
C1131 H1117 0.931 . S
C1131 C1133 1.393 . S
C1131 C1134 1.370 . S
C1132 C1128 1.432 . S
C1132 N1130 1.359 . S
C1132 C1135 1.414 . S
C1133 H1115 0.929 1_655 S
C1133 N1130 1.327 . S
C1133 C1131 1.393 . S
C1134 H1129 0.930 . S
C1134 C1131 1.370 . S
C1134 C1135 1.385 . S
C1135 C1132 1.414 . S
C1135 C1134 1.385 . S
C1135 C1157 1.444 . S
O1136 Tb1092 2.546 . S
O1136 C1156 1.251 . S
O1137 Tb1092 2.610 . S
O1137 Tb1103 2.362 . S
O1137 C1148 1.283 . S
O1138 Tb1103 2.421 . S
O1138 C1155 1.262 . S
O1139 Tb1092 2.320 . S
O1139 C1155 1.260 . S
O1140 Tb1092 2.552 . S
O1140 C1148 1.243 . S
O1141 Tb1092 2.413 . S
O1141 C1156 1.256 . S
O1142 Tb1103 2.546 . S
O1142 C1167 1.251 . S
O1143 Tb1092 2.362 . S
O1143 Tb1103 2.610 . S
O1143 C1159 1.283 . S
O1144 Tb1092 2.421 . S
O1144 C1166 1.262 . S
O1145 Tb1103 2.320 . S
O1145 C1166 1.260 . S
O1146 Tb1103 2.552 . S
O1146 C1159 1.243 . S
O1147 Tb1103 2.413 . S
O1147 C1167 1.256 . S
C1148 O1137 1.283 . S
C1148 O1140 1.243 . S
C1149 C1151 1.382 . S
C1149 C1153 1.393 1_455 S
C1149 C1156 1.500 . S
C1150 C1151 1.400 1_655 S
C1150 C1152 1.384 . S
C1151 C1149 1.382 . S
C1151 C1150 1.400 1_455 S
C1151 H1168 0.930 . S
C1152 C1150 1.384 . S
C1152 C1154 1.392 . S
C1152 H1169 0.931 . S
C1153 C1149 1.393 1_655 S
C1153 C1154 1.401 . S
C1153 H1170 0.930 . S
C1154 C1152 1.392 . S
C1154 C1153 1.401 . S
C1154 H1171 0.930 . S
C1155 O1138 1.262 . S
C1155 O1139 1.260 . S
C1156 Tb1092 2.833 . S
C1156 O1136 1.251 . S
C1156 O1141 1.256 . S
C1156 C1149 1.500 . S
C1157 H1122 0.929 . S
C1157 C1135 1.444 . S
C1157 C1158 1.317 . S
C1158 H1120 0.930 . S
C1158 C1126 1.432 . S
C1158 C1157 1.317 . S
C1159 O1143 1.283 . S
C1159 O1146 1.243 . S
C1160 C1161 1.382 . S
C1160 C1164 1.393 . S
C1160 C1167 1.500 . S
C1161 C1160 1.382 . S
C1161 C1162 1.400 . S
C1161 H1172 0.930 . S
C1162 C1161 1.400 . S
C1162 C1163 1.384 . S
C1163 C1162 1.384 . S
C1163 C1165 1.392 . S
C1163 H1173 0.931 . S
C1164 C1160 1.393 . S
C1164 C1165 1.401 . S
C1164 H1174 0.930 . S
C1165 C1163 1.392 . S
C1165 C1164 1.401 . S
C1165 H1175 0.930 . S
C1166 O1144 1.262 . S
C1166 O1145 1.260 . S
C1167 Tb1103 2.833 . S
C1167 O1142 1.251 . S
C1167 O1147 1.256 . S
C1167 C1160 1.500 . S
H1168 C1151 0.930 . S
H1169 C1152 0.931 . S
H1170 C1153 0.930 . S
H1171 C1154 0.930 . S
H1172 C1161 0.930 . S
H1173 C1163 0.931 . S
H1174 C1164 0.930 . S
H1175 C1165 0.930 . S
Tb1176 N1207 2.660 . S
Tb1176 N1214 2.600 . S
Tb1176 O1220 2.546 . S
Tb1176 O1221 2.610 . S
Tb1176 O1223 2.320 . S
Tb1176 O1224 2.552 . S
Tb1176 O1225 2.413 . S
Tb1176 O1227 2.362 . S
Tb1176 O1228 2.421 . S
Tb1176 C1240 2.833 . S
C1177 C1180 1.432 . S
C1177 C1181 1.414 . S
C1177 N1184 1.359 . S
C1178 C1180 1.417 . S
C1178 C1182 1.432 . S
C1178 C1190 1.410 . S
C1179 C1181 1.444 . S
C1179 C1182 1.317 . S
C1179 H1202 0.929 . S
C1180 C1177 1.432 . S
C1180 C1178 1.417 . S
C1180 N1188 1.360 . S
C1181 C1177 1.414 . S
C1181 C1179 1.444 . S
C1181 C1186 1.385 . S
C1182 C1178 1.432 . S
C1182 C1179 1.317 . S
C1182 H1194 0.930 . S
C1183 C1185 1.392 . S
C1183 C1186 1.370 . S
C1183 H1195 0.931 . S
N1184 C1177 1.359 . S
N1184 C1185 1.327 . S
N1184 Tb1187 2.600 . S
C1185 C1183 1.392 . S
C1185 N1184 1.327 . S
C1185 H1192 0.930 . S
C1186 C1181 1.385 . S
C1186 C1183 1.370 . S
C1186 H1205 0.930 . S
Tb1187 N1184 2.600 . S
Tb1187 N1188 2.660 . S
Tb1187 O1221 2.362 . S
Tb1187 O1222 2.421 . S
Tb1187 O1226 2.546 . S
Tb1187 O1227 2.610 . S
Tb1187 O1229 2.320 . S
Tb1187 O1230 2.552 . S
Tb1187 O1231 2.413 . S
Tb1187 C1251 2.833 . S
N1188 C1180 1.360 . S
N1188 Tb1187 2.660 . S
N1188 C1189 1.305 . S
C1189 N1188 1.305 . S
C1189 C1191 1.407 . S
C1189 H1196 0.930 . S
C1190 C1178 1.410 . S
C1190 C1191 1.345 . S
C1190 H1198 0.930 . S
C1191 C1189 1.407 . S
C1191 C1190 1.345 . S
C1191 H1193 0.930 . S
H1192 C1185 0.930 . S
H1193 C1191 0.930 . S
H1194 C1182 0.930 . S
H1195 C1183 0.931 . S
H1196 C1189 0.930 . S
H1197 C1211 0.930 . S
H1198 C1190 0.930 . S
H1199 C1217 0.930 . S
H1200 C1208 0.930 . S
H1201 C1215 0.931 . S
H1202 C1179 0.929 . S
H1203 C1209 0.930 . S
H1204 C1242 0.930 . S
H1205 C1186 0.930 . S
H1206 C1241 0.929 . S
N1207 Tb1176 2.660 . S
N1207 C1208 1.305 . S
N1207 C1212 1.360 . S
C1208 H1200 0.930 . S
C1208 N1207 1.305 . S
C1208 C1211 1.407 . S
C1209 H1203 0.930 . S
C1209 C1210 1.410 . S
C1209 C1211 1.345 . S
C1210 C1209 1.410 . S
C1210 C1212 1.417 . S
C1210 C1242 1.432 . S
C1211 H1197 0.930 . S
C1211 C1208 1.407 . S
C1211 C1209 1.345 . S
C1212 N1207 1.360 . S
C1212 C1210 1.417 . S
C1212 C1216 1.432 . S
H1213 C1218 0.930 . S
N1214 Tb1176 2.600 . S
N1214 C1216 1.359 . S
N1214 C1217 1.327 . S
C1215 H1201 0.931 . S
C1215 C1217 1.392 . S
C1215 C1218 1.370 . S
C1216 C1212 1.432 . S
C1216 N1214 1.359 . S
C1216 C1219 1.414 . S
C1217 H1199 0.930 . S
C1217 N1214 1.327 . S
C1217 C1215 1.392 . S
C1218 H1213 0.930 . S
C1218 C1215 1.370 . S
C1218 C1219 1.385 . S
C1219 C1216 1.414 . S
C1219 C1218 1.385 . S
C1219 C1241 1.444 . S
O1220 Tb1176 2.546 . S
O1220 C1240 1.251 . S
O1221 Tb1176 2.610 . S
O1221 Tb1187 2.362 . S
O1221 C1232 1.283 . S
O1222 Tb1187 2.421 . S
O1222 C1239 1.262 . S
O1223 Tb1176 2.320 . S
O1223 C1239 1.260 . S
O1224 Tb1176 2.552 . S
O1224 C1232 1.243 . S
O1225 Tb1176 2.413 . S
O1225 C1240 1.256 . S
O1226 Tb1187 2.546 . S
O1226 C1251 1.251 . S
O1227 Tb1176 2.362 . S
O1227 Tb1187 2.610 . S
O1227 C1243 1.283 . S
O1228 Tb1176 2.421 . S
O1228 C1250 1.262 . S
O1229 Tb1187 2.320 . S
O1229 C1250 1.260 . S
O1230 Tb1187 2.552 . S
O1230 C1243 1.243 . S
O1231 Tb1187 2.413 . S
O1231 C1251 1.256 . S
C1232 O1221 1.283 . S
C1232 O1224 1.243 . S
C1233 C1235 1.382 . S
C1233 C1237 1.393 . S
C1233 C1240 1.500 . S
C1234 C1235 1.400 . S
C1234 C1236 1.384 . S
C1235 C1233 1.382 . S
C1235 C1234 1.400 . S
C1235 H1252 0.930 . S
C1236 C1234 1.384 . S
C1236 C1238 1.392 . S
C1236 H1253 0.931 . S
C1237 C1233 1.393 . S
C1237 C1238 1.401 . S
C1237 H1254 0.930 . S
C1238 C1236 1.392 . S
C1238 C1237 1.401 . S
C1238 H1255 0.930 . S
C1239 O1222 1.262 . S
C1239 O1223 1.260 . S
C1240 Tb1176 2.833 . S
C1240 O1220 1.251 . S
C1240 O1225 1.256 . S
C1240 C1233 1.500 . S
C1241 H1206 0.929 . S
C1241 C1219 1.444 . S
C1241 C1242 1.317 . S
C1242 H1204 0.930 . S
C1242 C1210 1.432 . S
C1242 C1241 1.317 . S
C1243 O1227 1.283 . S
C1243 O1230 1.243 . S
C1244 C1245 1.382 . S
C1244 C1248 1.393 . S
C1244 C1251 1.500 . S
C1245 C1244 1.382 . S
C1245 C1246 1.400 . S
C1245 H1256 0.930 . S
C1246 C1245 1.400 . S
C1246 C1247 1.384 . S
C1247 C1246 1.384 . S
C1247 C1249 1.392 . S
C1247 H1257 0.931 . S
C1248 C1244 1.393 . S
C1248 C1249 1.401 . S
C1248 H1258 0.930 . S
C1249 C1247 1.392 . S
C1249 C1248 1.401 . S
C1249 H1259 0.930 . S
C1250 O1228 1.262 . S
C1250 O1229 1.260 . S
C1251 Tb1187 2.833 . S
C1251 O1226 1.251 . S
C1251 O1231 1.256 . S
C1251 C1244 1.500 . S
H1252 C1235 0.930 . S
H1253 C1236 0.931 . S
H1254 C1237 0.930 . S
H1255 C1238 0.930 . S
H1256 C1245 0.930 . S
H1257 C1247 0.931 . S
H1258 C1248 0.930 . S
H1259 C1249 0.930 . S
Tb1260 N1291 2.660 1_455 S
Tb1260 N1298 2.600 1_455 S
Tb1260 O1304 2.546 . S
Tb1260 O1305 2.610 . S
Tb1260 O1307 2.320 . S
Tb1260 O1308 2.552 . S
Tb1260 O1309 2.413 . S
Tb1260 O1311 2.362 . S
Tb1260 O1312 2.421 . S
Tb1260 C1324 2.833 . S
C1261 C1264 1.432 . S
C1261 C1265 1.414 . S
C1261 N1268 1.359 . S
C1262 C1264 1.417 . S
C1262 C1266 1.432 . S
C1262 C1274 1.410 . S
C1263 C1265 1.444 . S
C1263 C1266 1.317 . S
C1263 H1286 0.929 . S
C1264 C1261 1.432 . S
C1264 C1262 1.417 . S
C1264 N1272 1.360 . S
C1265 C1261 1.414 . S
C1265 C1263 1.444 . S
C1265 C1270 1.385 . S
C1266 C1262 1.432 . S
C1266 C1263 1.317 . S
C1266 H1278 0.930 . S
C1267 C1269 1.392 . S
C1267 C1270 1.370 . S
C1267 H1279 0.931 . S
N1268 C1261 1.359 . S
N1268 C1269 1.327 . S
N1268 Tb1271 2.600 . S
C1269 C1267 1.392 . S
C1269 N1268 1.327 . S
C1269 H1276 0.930 . S
C1270 C1265 1.385 . S
C1270 C1267 1.370 . S
C1270 H1289 0.930 . S
Tb1271 N1268 2.600 . S
Tb1271 N1272 2.660 . S
Tb1271 O1305 2.362 . S
Tb1271 O1306 2.421 . S
Tb1271 O1310 2.546 . S
Tb1271 O1311 2.610 . S
Tb1271 O1313 2.320 . S
Tb1271 O1314 2.552 . S
Tb1271 O1315 2.413 . S
Tb1271 C1335 2.833 . S
N1272 C1264 1.360 . S
N1272 Tb1271 2.660 . S
N1272 C1273 1.305 . S
C1273 N1272 1.305 . S
C1273 C1275 1.407 . S
C1273 H1280 0.930 . S
C1274 C1262 1.410 . S
C1274 C1275 1.345 . S
C1274 H1282 0.930 . S
C1275 C1273 1.407 . S
C1275 C1274 1.345 . S
C1275 H1277 0.930 . S
H1276 C1269 0.930 . S
H1277 C1275 0.930 . S
H1278 C1266 0.930 . S
H1279 C1267 0.931 . S
H1280 C1273 0.930 . S
H1281 C1295 0.930 . S
H1282 C1274 0.930 . S
H1283 C1301 0.955 . S
H1284 C1292 0.930 . S
H1285 C1299 0.931 . S
H1286 C1263 0.929 . S
H1287 C1293 0.930 . S
H1288 C1326 0.930 . S
H1289 C1270 0.930 . S
H1290 C1325 0.929 . S
N1291 Tb1260 2.660 1_655 S
N1291 C1292 1.305 . S
N1291 C1296 1.360 . S
C1292 H1284 0.930 . S
C1292 N1291 1.305 . S
C1292 C1295 1.407 . S
C1293 H1287 0.930 . S
C1293 C1294 1.410 . S
C1293 C1295 1.345 . S
C1294 C1293 1.410 . S
C1294 C1296 1.417 . S
C1294 C1326 1.432 . S
C1295 H1281 0.930 . S
C1295 C1292 1.407 . S
C1295 C1293 1.345 . S
C1296 N1291 1.360 . S
C1296 C1294 1.417 . S
C1296 C1300 1.432 . S
H1297 C1302 0.930 . S
N1298 Tb1260 2.600 1_655 S
N1298 C1300 1.359 . S
N1298 C1301 1.323 1_655 S
C1299 H1285 0.931 . S
C1299 C1301 1.373 1_655 S
C1299 C1302 1.370 . S
C1300 C1296 1.432 . S
C1300 N1298 1.359 . S
C1300 C1303 1.414 . S
C1301 H1283 0.955 . S
C1301 N1298 1.323 1_455 S
C1301 C1299 1.373 1_455 S
C1302 H1297 0.930 . S
C1302 C1299 1.370 . S
C1302 C1303 1.385 . S
C1303 C1300 1.414 . S
C1303 C1302 1.385 . S
C1303 C1325 1.444 . S
O1304 Tb1260 2.546 . S
O1304 C1324 1.251 . S
O1305 Tb1260 2.610 . S
O1305 Tb1271 2.362 . S
O1305 C1316 1.283 . S
O1306 Tb1271 2.421 . S
O1306 C1323 1.262 . S
O1307 Tb1260 2.320 . S
O1307 C1323 1.260 . S
O1308 Tb1260 2.552 . S
O1308 C1316 1.243 . S
O1309 Tb1260 2.413 . S
O1309 C1324 1.256 . S
O1310 Tb1271 2.546 . S
O1310 C1335 1.251 . S
O1311 Tb1260 2.362 . S
O1311 Tb1271 2.610 . S
O1311 C1327 1.283 . S
O1312 Tb1260 2.421 . S
O1312 C1334 1.262 . S
O1313 Tb1271 2.320 . S
O1313 C1334 1.260 . S
O1314 Tb1271 2.552 . S
O1314 C1327 1.243 . S
O1315 Tb1271 2.413 . S
O1315 C1335 1.256 . S
C1316 O1305 1.283 . S
C1316 O1308 1.243 . S
C1317 C1319 1.382 . S
C1317 C1321 1.393 1_455 S
C1317 C1324 1.500 . S
C1318 C1319 1.400 1_655 S
C1318 C1320 1.384 . S
C1319 C1317 1.382 . S
C1319 C1318 1.400 1_455 S
C1319 H1336 0.930 . S
C1320 C1318 1.384 . S
C1320 C1322 1.392 . S
C1320 H1337 0.931 . S
C1321 C1317 1.393 1_655 S
C1321 C1322 1.401 . S
C1321 H1338 0.930 . S
C1322 C1320 1.392 . S
C1322 C1321 1.401 . S
C1322 H1339 0.930 . S
C1323 O1306 1.262 . S
C1323 O1307 1.260 . S
C1324 Tb1260 2.833 . S
C1324 O1304 1.251 . S
C1324 O1309 1.256 . S
C1324 C1317 1.500 . S
C1325 H1290 0.929 . S
C1325 C1303 1.444 . S
C1325 C1326 1.317 . S
C1326 H1288 0.930 . S
C1326 C1294 1.432 . S
C1326 C1325 1.317 . S
C1327 O1311 1.283 . S
C1327 O1314 1.243 . S
C1328 C1329 1.382 . S
C1328 C1332 1.393 . S
C1328 C1335 1.500 . S
C1329 C1328 1.382 . S
C1329 C1330 1.400 . S
C1329 H1340 0.930 . S
C1330 C1329 1.400 . S
C1330 C1331 1.384 . S
C1331 C1330 1.384 . S
C1331 C1333 1.392 . S
C1331 H1341 0.931 . S
C1332 C1328 1.393 . S
C1332 C1333 1.401 . S
C1332 H1342 0.930 . S
C1333 C1331 1.392 . S
C1333 C1332 1.401 . S
C1333 H1343 0.930 . S
C1334 O1312 1.262 . S
C1334 O1313 1.260 . S
C1335 Tb1271 2.833 . S
C1335 O1310 1.251 . S
C1335 O1315 1.256 . S
C1335 C1328 1.500 . S
H1336 C1319 0.930 . S
H1337 C1320 0.931 . S
H1338 C1321 0.930 . S
H1339 C1322 0.930 . S
H1340 C1329 0.930 . S
H1341 C1331 0.931 . S
H1342 C1332 0.930 . S
H1343 C1333 0.930 . S
Tb1344 N1375 2.660 1_545 S
Tb1344 N1382 2.600 . S
Tb1344 O1388 2.546 . S
Tb1344 O1389 2.610 1_545 S
Tb1344 O1391 2.320 1_545 S
Tb1344 O1392 2.552 . S
Tb1344 O1393 2.413 1_545 S
Tb1344 O1395 2.362 . S
Tb1344 O1396 2.421 . S
Tb1344 C1408 2.833 . S
C1345 C1348 1.432 . S
C1345 C1349 1.414 . S
C1345 N1352 1.359 . S
C1346 C1348 1.417 . S
C1346 C1350 1.432 . S
C1346 C1358 1.410 1_565 S
C1347 C1349 1.444 . S
C1347 C1350 1.317 . S
C1347 H1370 0.929 . S
C1348 C1345 1.432 . S
C1348 C1346 1.417 . S
C1348 N1356 1.360 1_565 S
C1349 C1345 1.414 . S
C1349 C1347 1.444 . S
C1349 C1354 1.385 . S
C1350 C1346 1.432 . S
C1350 C1347 1.317 . S
C1350 H1362 0.930 . S
C1351 C1353 1.392 . S
C1351 C1354 1.370 . S
C1351 H1363 0.931 . S
N1352 C1345 1.359 . S
N1352 C1353 1.327 . S
N1352 Tb1355 2.600 . S
C1353 C1351 1.392 . S
C1353 N1352 1.327 . S
C1353 H1360 0.930 . S
C1354 C1349 1.385 . S
C1354 C1351 1.370 . S
C1354 H1373 0.930 . S
Tb1355 N1352 2.600 . S
Tb1355 N1356 2.660 1_565 S
Tb1355 O1389 2.362 . S
Tb1355 O1390 2.421 . S
Tb1355 O1394 2.546 . S
Tb1355 O1395 2.610 1_565 S
Tb1355 O1397 2.320 1_565 S
Tb1355 O1398 2.552 . S
Tb1355 O1399 2.413 1_565 S
Tb1355 C1419 2.833 . S
N1356 C1348 1.360 1_545 S
N1356 Tb1355 2.660 1_545 S
N1356 C1357 1.305 . S
C1357 N1356 1.305 . S
C1357 C1359 1.407 . S
C1357 H1364 0.930 . S
C1358 C1346 1.410 1_545 S
C1358 C1359 1.345 . S
C1358 H1366 0.930 . S
C1359 C1357 1.407 . S
C1359 C1358 1.345 . S
C1359 H1361 0.930 . S
H1360 C1353 0.930 . S
H1361 C1359 0.930 . S
H1362 C1350 0.930 . S
H1363 C1351 0.931 . S
H1364 C1357 0.930 . S
H1365 C1379 0.930 . S
H1366 C1358 0.930 . S
H1367 C1385 0.930 . S
H1368 C1376 0.930 . S
H1369 C1383 0.931 . S
H1370 C1347 0.929 . S
H1371 C1377 0.930 1_455 S
H1372 C1410 0.930 . S
H1373 C1354 0.930 . S
H1374 C1409 0.929 . S
N1375 Tb1344 2.660 1_565 S
N1375 C1376 1.305 . S
N1375 C1380 1.360 1_565 S
C1376 H1368 0.930 . S
C1376 N1375 1.305 . S
C1376 C1379 1.407 . S
C1377 H1371 0.930 1_655 S
C1377 C1378 1.410 1_565 S
C1377 C1379 1.345 . S
C1378 C1377 1.410 1_545 S
C1378 C1380 1.417 . S
C1378 C1410 1.432 1_655 S
C1379 H1365 0.930 . S
C1379 C1376 1.407 . S
C1379 C1377 1.345 . S
C1380 N1375 1.360 1_545 S
C1380 C1378 1.417 . S
C1380 C1384 1.432 . S
H1381 C1386 0.930 . S
N1382 Tb1344 2.600 . S
N1382 C1384 1.359 . S
N1382 C1385 1.327 . S
C1383 H1369 0.931 . S
C1383 C1385 1.392 . S
C1383 C1386 1.370 . S
C1384 C1380 1.432 . S
C1384 N1382 1.359 . S
C1384 C1387 1.414 . S
C1385 H1367 0.930 . S
C1385 N1382 1.327 . S
C1385 C1383 1.392 . S
C1386 H1381 0.930 . S
C1386 C1383 1.370 . S
C1386 C1387 1.385 . S
C1387 C1384 1.414 . S
C1387 C1386 1.385 . S
C1387 C1409 1.444 1_655 S
O1388 Tb1344 2.546 . S
O1388 C1408 1.251 . S
O1389 Tb1344 2.610 1_565 S
O1389 Tb1355 2.362 . S
O1389 C1400 1.282 1_565 S
O1390 Tb1355 2.421 . S
O1390 C1407 1.262 . S
O1391 Tb1344 2.320 1_565 S
O1391 C1407 1.260 . S
O1392 Tb1344 2.552 . S
O1392 C1400 1.246 . S
O1393 Tb1344 2.413 1_565 S
O1393 C1408 1.256 1_565 S
O1394 Tb1355 2.546 . S
O1394 C1419 1.251 . S
O1395 Tb1344 2.362 . S
O1395 Tb1355 2.610 1_545 S
O1395 C1411 1.283 1_545 S
O1396 Tb1344 2.421 . S
O1396 C1418 1.262 . S
O1397 Tb1355 2.320 1_545 S
O1397 C1418 1.260 . S
O1398 Tb1355 2.552 . S
O1398 C1411 1.241 . S
O1399 Tb1355 2.413 1_545 S
O1399 C1419 1.256 1_545 S
C1400 O1389 1.282 1_545 S
C1400 O1392 1.246 . S
C1401 C1403 1.382 1_545 S
C1401 C1405 1.393 . S
C1401 C1408 1.500 . S
C1402 C1403 1.401 . S
C1402 C1404 1.374 1_565 S
C1403 C1401 1.382 1_565 S
C1403 C1402 1.401 . S
C1403 H1420 0.930 . S
C1404 C1402 1.374 1_545 S
C1404 C1406 1.392 . S
C1404 H1421 0.931 . S
C1405 C1401 1.393 . S
C1405 C1406 1.401 . S
C1405 H1422 0.930 . S
C1406 C1404 1.392 . S
C1406 C1405 1.401 . S
C1406 H1423 0.930 . S
C1407 O1390 1.262 . S
C1407 O1391 1.260 . S
C1408 Tb1344 2.833 . S
C1408 O1388 1.251 . S
C1408 O1393 1.256 1_545 S
C1408 C1401 1.500 . S
C1409 H1374 0.929 . S
C1409 C1387 1.444 1_455 S
C1409 C1410 1.317 . S
C1410 H1372 0.930 . S
C1410 C1378 1.432 1_455 S
C1410 C1409 1.317 . S
C1411 O1395 1.283 1_565 S
C1411 O1398 1.241 . S
C1412 C1413 1.382 1_565 S
C1412 C1416 1.393 . S
C1412 C1419 1.500 . S
C1413 C1412 1.382 1_545 S
C1413 C1414 1.401 . S
C1413 H1424 0.930 . S
C1414 C1413 1.401 . S
C1414 C1415 1.365 1_545 S
C1415 C1414 1.365 1_565 S
C1415 C1417 1.392 . S
C1415 H1425 0.931 . S
C1416 C1412 1.393 . S
C1416 C1417 1.401 . S
C1416 H1426 0.930 . S
C1417 C1415 1.392 . S
C1417 C1416 1.401 . S
C1417 H1427 0.930 . S
C1418 O1396 1.262 . S
C1418 O1397 1.260 . S
C1419 Tb1355 2.833 . S
C1419 O1394 1.251 . S
C1419 O1399 1.256 1_565 S
C1419 C1412 1.500 . S
H1420 C1403 0.930 . S
H1421 C1404 0.931 . S
H1422 C1405 0.930 . S
H1423 C1406 0.930 . S
H1424 C1413 0.930 . S
H1425 C1415 0.931 . S
H1426 C1416 0.930 . S
H1427 C1417 0.930 . S
Tb1428 N1459 2.660 . S
Tb1428 N1466 2.600 . S
Tb1428 O1472 2.546 . S
Tb1428 O1473 2.610 . S
Tb1428 O1475 2.320 . S
Tb1428 O1476 2.552 . S
Tb1428 O1477 2.413 . S
Tb1428 O1479 2.362 . S
Tb1428 O1480 2.421 . S
Tb1428 C1492 2.833 . S
C1429 C1432 1.432 . S
C1429 C1433 1.414 . S
C1429 N1436 1.359 . S
C1430 C1432 1.417 . S
C1430 C1434 1.432 . S
C1430 C1442 1.410 . S
C1431 C1433 1.444 . S
C1431 C1434 1.317 . S
C1431 H1454 0.929 . S
C1432 C1429 1.432 . S
C1432 C1430 1.417 . S
C1432 N1440 1.360 . S
C1433 C1429 1.414 . S
C1433 C1431 1.444 . S
C1433 C1438 1.385 . S
C1434 C1430 1.432 . S
C1434 C1431 1.317 . S
C1434 H1446 0.930 . S
C1435 C1437 1.392 . S
C1435 C1438 1.370 . S
C1435 H1447 0.931 . S
N1436 C1429 1.359 . S
N1436 C1437 1.327 . S
N1436 Tb1439 2.600 . S
C1437 C1435 1.392 . S
C1437 N1436 1.327 . S
C1437 H1444 0.930 . S
C1438 C1433 1.385 . S
C1438 C1435 1.370 . S
C1438 H1457 0.930 . S
Tb1439 N1436 2.600 . S
Tb1439 N1440 2.660 . S
Tb1439 O1473 2.362 . S
Tb1439 O1474 2.421 . S
Tb1439 O1478 2.546 . S
Tb1439 O1479 2.610 . S
Tb1439 O1481 2.320 . S
Tb1439 O1482 2.552 . S
Tb1439 O1483 2.413 . S
Tb1439 C1503 2.833 . S
N1440 C1432 1.360 . S
N1440 Tb1439 2.660 . S
N1440 C1441 1.305 . S
C1441 N1440 1.305 . S
C1441 C1443 1.407 . S
C1441 H1448 0.930 . S
C1442 C1430 1.410 . S
C1442 C1443 1.345 . S
C1442 H1450 0.930 . S
C1443 C1441 1.407 . S
C1443 C1442 1.345 . S
C1443 H1445 0.930 . S
H1444 C1437 0.930 . S
H1445 C1443 0.930 . S
H1446 C1434 0.930 . S
H1447 C1435 0.931 . S
H1448 C1441 0.930 . S
H1449 C1463 0.930 . S
H1450 C1442 0.930 . S
H1451 C1469 0.930 . S
H1452 C1460 0.930 . S
H1453 C1467 0.931 . S
H1454 C1431 0.929 . S
H1455 C1461 0.930 . S
H1456 C1494 0.930 . S
H1457 C1438 0.930 . S
H1458 C1493 0.929 . S
N1459 Tb1428 2.660 . S
N1459 C1460 1.305 . S
N1459 C1464 1.360 . S
C1460 H1452 0.930 . S
C1460 N1459 1.305 . S
C1460 C1463 1.407 . S
C1461 H1455 0.930 . S
C1461 C1462 1.410 . S
C1461 C1463 1.345 . S
C1462 C1461 1.410 . S
C1462 C1464 1.417 . S
C1462 C1494 1.432 . S
C1463 H1449 0.930 . S
C1463 C1460 1.407 . S
C1463 C1461 1.345 . S
C1464 N1459 1.360 . S
C1464 C1462 1.417 . S
C1464 C1468 1.432 . S
H1465 C1470 0.930 . S
N1466 Tb1428 2.600 . S
N1466 C1468 1.359 . S
N1466 C1469 1.327 . S
C1467 H1453 0.931 . S
C1467 C1469 1.392 . S
C1467 C1470 1.370 . S
C1468 C1464 1.432 . S
C1468 N1466 1.359 . S
C1468 C1471 1.414 . S
C1469 H1451 0.930 . S
C1469 N1466 1.327 . S
C1469 C1467 1.392 . S
C1470 H1465 0.930 . S
C1470 C1467 1.370 . S
C1470 C1471 1.385 . S
C1471 C1468 1.414 . S
C1471 C1470 1.385 . S
C1471 C1493 1.444 . S
O1472 Tb1428 2.546 . S
O1472 C1492 1.251 . S
O1473 Tb1428 2.610 . S
O1473 Tb1439 2.362 . S
O1473 C1484 1.283 . S
O1474 Tb1439 2.421 . S
O1474 C1491 1.262 . S
O1475 Tb1428 2.320 . S
O1475 C1491 1.260 . S
O1476 Tb1428 2.552 . S
O1476 C1484 1.243 . S
O1477 Tb1428 2.413 . S
O1477 C1492 1.256 . S
O1478 Tb1439 2.546 . S
O1478 C1503 1.251 . S
O1479 Tb1428 2.362 . S
O1479 Tb1439 2.610 . S
O1479 C1495 1.283 . S
O1480 Tb1428 2.421 . S
O1480 C1502 1.262 . S
O1481 Tb1439 2.320 . S
O1481 C1502 1.260 . S
O1482 Tb1439 2.552 . S
O1482 C1495 1.243 . S
O1483 Tb1439 2.413 . S
O1483 C1503 1.256 . S
C1484 O1473 1.283 . S
C1484 O1476 1.243 . S
C1485 C1487 1.382 . S
C1485 C1489 1.393 . S
C1485 C1492 1.500 . S
C1486 C1487 1.400 . S
C1486 C1488 1.384 . S
C1487 C1485 1.382 . S
C1487 C1486 1.400 . S
C1487 H1504 0.930 . S
C1488 C1486 1.384 . S
C1488 C1490 1.392 . S
C1488 H1505 0.931 . S
C1489 C1485 1.393 . S
C1489 C1490 1.401 . S
C1489 H1506 0.930 . S
C1490 C1488 1.392 . S
C1490 C1489 1.401 . S
C1490 H1507 0.930 . S
C1491 O1474 1.262 . S
C1491 O1475 1.260 . S
C1492 Tb1428 2.833 . S
C1492 O1472 1.251 . S
C1492 O1477 1.256 . S
C1492 C1485 1.500 . S
C1493 H1458 0.929 . S
C1493 C1471 1.444 . S
C1493 C1494 1.317 . S
C1494 H1456 0.930 . S
C1494 C1462 1.432 . S
C1494 C1493 1.317 . S
C1495 O1479 1.283 . S
C1495 O1482 1.243 . S
C1496 C1497 1.382 . S
C1496 C1500 1.393 . S
C1496 C1503 1.500 . S
C1497 C1496 1.382 . S
C1497 C1498 1.400 . S
C1497 H1508 0.930 . S
C1498 C1497 1.400 . S
C1498 C1499 1.384 . S
C1499 C1498 1.384 . S
C1499 C1501 1.392 . S
C1499 H1509 0.931 . S
C1500 C1496 1.393 . S
C1500 C1501 1.401 . S
C1500 H1510 0.930 . S
C1501 C1499 1.392 . S
C1501 C1500 1.401 . S
C1501 H1511 0.930 . S
C1502 O1480 1.262 . S
C1502 O1481 1.260 . S
C1503 Tb1439 2.833 . S
C1503 O1478 1.251 . S
C1503 O1483 1.256 . S
C1503 C1496 1.500 . S
H1504 C1487 0.930 . S
H1505 C1488 0.931 . S
H1506 C1489 0.930 . S
H1507 C1490 0.930 . S
H1508 C1497 0.930 . S
H1509 C1499 0.931 . S
H1510 C1500 0.930 . S
H1511 C1501 0.930 . S
Tb1512 N1543 2.660 . S
Tb1512 N1550 2.600 . S
Tb1512 O1556 2.546 . S
Tb1512 O1557 2.610 . S
Tb1512 O1559 2.320 . S
Tb1512 O1560 2.552 . S
Tb1512 O1561 2.413 . S
Tb1512 O1563 2.362 . S
Tb1512 O1564 2.421 . S
Tb1512 C1576 2.833 . S
C1513 C1516 1.432 . S
C1513 C1517 1.414 . S
C1513 N1520 1.359 . S
C1514 C1516 1.417 . S
C1514 C1518 1.432 . S
C1514 C1526 1.410 . S
C1515 C1517 1.444 . S
C1515 C1518 1.317 . S
C1515 H1538 0.929 . S
C1516 C1513 1.432 . S
C1516 C1514 1.417 . S
C1516 N1524 1.360 . S
C1517 C1513 1.414 . S
C1517 C1515 1.444 . S
C1517 C1522 1.385 . S
C1518 C1514 1.432 . S
C1518 C1515 1.317 . S
C1518 H1530 0.930 . S
C1519 C1521 1.392 . S
C1519 C1522 1.370 . S
C1519 H1531 0.931 . S
N1520 C1513 1.359 . S
N1520 C1521 1.327 . S
N1520 Tb1523 2.600 . S
C1521 C1519 1.392 . S
C1521 N1520 1.327 . S
C1521 H1528 0.930 . S
C1522 C1517 1.385 . S
C1522 C1519 1.370 . S
C1522 H1541 0.930 . S
Tb1523 N1520 2.600 . S
Tb1523 N1524 2.660 . S
Tb1523 O1557 2.362 . S
Tb1523 O1558 2.421 . S
Tb1523 O1562 2.546 . S
Tb1523 O1563 2.610 . S
Tb1523 O1565 2.320 . S
Tb1523 O1566 2.552 . S
Tb1523 O1567 2.413 . S
Tb1523 C1587 2.833 . S
N1524 C1516 1.360 . S
N1524 Tb1523 2.660 . S
N1524 C1525 1.305 . S
C1525 N1524 1.305 . S
C1525 C1527 1.407 . S
C1525 H1532 0.930 . S
C1526 C1514 1.410 . S
C1526 C1527 1.345 . S
C1526 H1534 0.930 . S
C1527 C1525 1.407 . S
C1527 C1526 1.345 . S
C1527 H1529 0.930 . S
H1528 C1521 0.930 . S
H1529 C1527 0.930 . S
H1530 C1518 0.930 . S
H1531 C1519 0.931 . S
H1532 C1525 0.930 . S
H1533 C1547 0.930 . S
H1534 C1526 0.930 . S
H1535 C1553 0.930 . S
H1536 C1544 0.930 . S
H1537 C1551 0.931 . S
H1538 C1515 0.929 . S
H1539 C1545 0.930 1_455 S
H1540 C1578 0.930 . S
H1541 C1522 0.930 . S
H1542 C1577 0.929 . S
N1543 Tb1512 2.660 . S
N1543 C1544 1.305 . S
N1543 C1548 1.360 . S
C1544 H1536 0.930 . S
C1544 N1543 1.305 . S
C1544 C1547 1.407 . S
C1545 H1539 0.930 1_655 S
C1545 C1546 1.410 . S
C1545 C1547 1.345 . S
C1546 C1545 1.410 . S
C1546 C1548 1.417 . S
C1546 C1578 1.432 1_655 S
C1547 H1533 0.930 . S
C1547 C1544 1.407 . S
C1547 C1545 1.345 . S
C1548 N1543 1.360 . S
C1548 C1546 1.417 . S
C1548 C1552 1.432 . S
H1549 C1554 0.930 . S
N1550 Tb1512 2.600 . S
N1550 C1552 1.359 . S
N1550 C1553 1.327 . S
C1551 H1537 0.931 . S
C1551 C1553 1.392 . S
C1551 C1554 1.370 . S
C1552 C1548 1.432 . S
C1552 N1550 1.359 . S
C1552 C1555 1.414 . S
C1553 H1535 0.930 . S
C1553 N1550 1.327 . S
C1553 C1551 1.392 . S
C1554 H1549 0.930 . S
C1554 C1551 1.370 . S
C1554 C1555 1.385 . S
C1555 C1552 1.414 . S
C1555 C1554 1.385 . S
C1555 C1577 1.444 1_655 S
O1556 Tb1512 2.546 . S
O1556 C1576 1.251 . S
O1557 Tb1512 2.610 . S
O1557 Tb1523 2.362 . S
O1557 C1568 1.283 . S
O1558 Tb1523 2.421 . S
O1558 C1575 1.262 . S
O1559 Tb1512 2.320 . S
O1559 C1575 1.260 . S
O1560 Tb1512 2.552 . S
O1560 C1568 1.243 . S
O1561 Tb1512 2.413 . S
O1561 C1576 1.256 . S
O1562 Tb1523 2.546 . S
O1562 C1587 1.251 . S
O1563 Tb1512 2.362 . S
O1563 Tb1523 2.610 . S
O1563 C1579 1.283 . S
O1564 Tb1512 2.421 . S
O1564 C1586 1.262 . S
O1565 Tb1523 2.320 . S
O1565 C1586 1.260 . S
O1566 Tb1523 2.552 . S
O1566 C1579 1.243 . S
O1567 Tb1523 2.413 . S
O1567 C1587 1.256 . S
C1568 O1557 1.283 . S
C1568 O1560 1.243 . S
C1569 C1571 1.382 . S
C1569 C1573 1.393 . S
C1569 C1576 1.500 . S
C1570 C1571 1.400 . S
C1570 C1572 1.384 . S
C1571 C1569 1.382 . S
C1571 C1570 1.400 . S
C1571 H1588 0.930 . S
C1572 C1570 1.384 . S
C1572 C1574 1.392 . S
C1572 H1589 0.931 . S
C1573 C1569 1.393 . S
C1573 C1574 1.401 . S
C1573 H1590 0.930 . S
C1574 C1572 1.392 . S
C1574 C1573 1.401 . S
C1574 H1591 0.930 . S
C1575 O1558 1.262 . S
C1575 O1559 1.260 . S
C1576 Tb1512 2.833 . S
C1576 O1556 1.251 . S
C1576 O1561 1.256 . S
C1576 C1569 1.500 . S
C1577 H1542 0.929 . S
C1577 C1555 1.444 1_455 S
C1577 C1578 1.317 . S
C1578 H1540 0.930 . S
C1578 C1546 1.432 1_455 S
C1578 C1577 1.317 . S
C1579 O1563 1.283 . S
C1579 O1566 1.243 . S
C1580 C1581 1.382 . S
C1580 C1584 1.393 . S
C1580 C1587 1.500 . S
C1581 C1580 1.382 . S
C1581 C1582 1.400 . S
C1581 H1592 0.930 . S
C1582 C1581 1.400 . S
C1582 C1583 1.384 . S
C1583 C1582 1.384 . S
C1583 C1585 1.392 . S
C1583 H1593 0.931 . S
C1584 C1580 1.393 . S
C1584 C1585 1.401 . S
C1584 H1594 0.930 . S
C1585 C1583 1.392 . S
C1585 C1584 1.401 . S
C1585 H1595 0.930 . S
C1586 O1564 1.262 . S
C1586 O1565 1.260 . S
C1587 Tb1523 2.833 . S
C1587 O1562 1.251 . S
C1587 O1567 1.256 . S
C1587 C1580 1.500 . S
H1588 C1571 0.930 . S
H1589 C1572 0.931 . S
H1590 C1573 0.930 . S
H1591 C1574 0.930 . S
H1592 C1581 0.930 . S
H1593 C1583 0.931 . S
H1594 C1584 0.930 . S
H1595 C1585 0.930 . S
Tb1596 N1627 2.660 1_545 S
Tb1596 N1634 2.600 . S
Tb1596 O1640 2.546 . S
Tb1596 O1641 2.610 1_545 S
Tb1596 O1643 2.320 1_545 S
Tb1596 O1644 2.552 . S
Tb1596 O1645 2.413 1_545 S
Tb1596 O1647 2.362 . S
Tb1596 O1648 2.421 . S
Tb1596 C1660 2.833 . S
C1597 C1600 1.432 . S
C1597 C1601 1.414 . S
C1597 N1604 1.359 . S
C1598 C1600 1.417 . S
C1598 C1602 1.432 . S
C1598 C1610 1.410 1_565 S
C1599 C1601 1.444 . S
C1599 C1602 1.317 . S
C1599 H1622 0.929 . S
C1600 C1597 1.432 . S
C1600 C1598 1.417 . S
C1600 N1608 1.360 1_565 S
C1601 C1597 1.414 . S
C1601 C1599 1.444 . S
C1601 C1606 1.385 . S
C1602 C1598 1.432 . S
C1602 C1599 1.317 . S
C1602 H1614 0.930 . S
C1603 C1605 1.392 . S
C1603 C1606 1.370 . S
C1603 H1615 0.931 . S
N1604 C1597 1.359 . S
N1604 C1605 1.327 . S
N1604 Tb1607 2.600 . S
C1605 C1603 1.392 . S
C1605 N1604 1.327 . S
C1605 H1612 0.930 . S
C1606 C1601 1.385 . S
C1606 C1603 1.370 . S
C1606 H1625 0.930 . S
Tb1607 N1604 2.600 . S
Tb1607 N1608 2.660 1_565 S
Tb1607 O1641 2.362 . S
Tb1607 O1642 2.421 . S
Tb1607 O1646 2.546 . S
Tb1607 O1647 2.610 1_565 S
Tb1607 O1649 2.320 1_565 S
Tb1607 O1650 2.552 . S
Tb1607 O1651 2.413 1_565 S
Tb1607 C1671 2.833 . S
N1608 C1600 1.360 1_545 S
N1608 Tb1607 2.660 1_545 S
N1608 C1609 1.305 . S
C1609 N1608 1.305 . S
C1609 C1611 1.407 . S
C1609 H1616 0.930 . S
C1610 C1598 1.410 1_545 S
C1610 C1611 1.345 . S
C1610 H1618 0.930 . S
C1611 C1609 1.407 . S
C1611 C1610 1.345 . S
C1611 H1613 0.930 . S
H1612 C1605 0.930 . S
H1613 C1611 0.930 . S
H1614 C1602 0.930 . S
H1615 C1603 0.931 . S
H1616 C1609 0.930 . S
H1617 C1631 0.930 . S
H1618 C1610 0.930 . S
H1619 C1637 0.930 . S
H1620 C1628 0.930 . S
H1621 C1635 0.931 . S
H1622 C1599 0.929 . S
H1623 C1629 0.930 . S
H1624 C1662 0.930 . S
H1625 C1606 0.930 . S
H1626 C1661 0.929 . S
N1627 Tb1596 2.660 1_565 S
N1627 C1628 1.305 . S
N1627 C1632 1.360 1_565 S
C1628 H1620 0.930 . S
C1628 N1627 1.305 . S
C1628 C1631 1.407 . S
C1629 H1623 0.930 . S
C1629 C1630 1.410 1_565 S
C1629 C1631 1.345 . S
C1630 C1629 1.410 1_545 S
C1630 C1632 1.417 . S
C1630 C1662 1.432 . S
C1631 H1617 0.930 . S
C1631 C1628 1.407 . S
C1631 C1629 1.345 . S
C1632 N1627 1.360 1_545 S
C1632 C1630 1.417 . S
C1632 C1636 1.432 . S
H1633 C1638 0.930 . S
N1634 Tb1596 2.600 . S
N1634 C1636 1.359 . S
N1634 C1637 1.327 . S
C1635 H1621 0.931 . S
C1635 C1637 1.392 . S
C1635 C1638 1.370 . S
C1636 C1632 1.432 . S
C1636 N1634 1.359 . S
C1636 C1639 1.414 . S
C1637 H1619 0.930 . S
C1637 N1634 1.327 . S
C1637 C1635 1.392 . S
C1638 H1633 0.930 . S
C1638 C1635 1.370 . S
C1638 C1639 1.385 . S
C1639 C1636 1.414 . S
C1639 C1638 1.385 . S
C1639 C1661 1.444 . S
O1640 Tb1596 2.546 . S
O1640 C1660 1.251 . S
O1641 Tb1596 2.610 1_565 S
O1641 Tb1607 2.362 . S
O1641 C1652 1.282 1_565 S
O1642 Tb1607 2.421 . S
O1642 C1659 1.262 . S
O1643 Tb1596 2.320 1_565 S
O1643 C1659 1.260 . S
O1644 Tb1596 2.552 . S
O1644 C1652 1.246 . S
O1645 Tb1596 2.413 1_565 S
O1645 C1660 1.256 1_565 S
O1646 Tb1607 2.546 . S
O1646 C1671 1.251 . S
O1647 Tb1596 2.362 . S
O1647 Tb1607 2.610 1_545 S
O1647 C1663 1.283 1_545 S
O1648 Tb1596 2.421 . S
O1648 C1670 1.262 . S
O1649 Tb1607 2.320 1_545 S
O1649 C1670 1.260 . S
O1650 Tb1607 2.552 . S
O1650 C1663 1.241 . S
O1651 Tb1607 2.413 1_545 S
O1651 C1671 1.256 1_545 S
C1652 O1641 1.282 1_545 S
C1652 O1644 1.246 . S
C1653 C1655 1.382 1_545 S
C1653 C1657 1.393 . S
C1653 C1660 1.500 . S
C1654 C1655 1.401 . S
C1654 C1656 1.374 1_565 S
C1655 C1653 1.382 1_565 S
C1655 C1654 1.401 . S
C1655 H1672 0.930 . S
C1656 C1654 1.374 1_545 S
C1656 C1658 1.392 . S
C1656 H1673 0.931 . S
C1657 C1653 1.393 . S
C1657 C1658 1.401 . S
C1657 H1674 0.930 . S
C1658 C1656 1.392 . S
C1658 C1657 1.401 . S
C1658 H1675 0.930 . S
C1659 O1642 1.262 . S
C1659 O1643 1.260 . S
C1660 Tb1596 2.833 . S
C1660 O1640 1.251 . S
C1660 O1645 1.256 1_545 S
C1660 C1653 1.500 . S
C1661 H1626 0.929 . S
C1661 C1639 1.444 . S
C1661 C1662 1.317 . S
C1662 H1624 0.930 . S
C1662 C1630 1.432 . S
C1662 C1661 1.317 . S
C1663 O1647 1.283 1_565 S
C1663 O1650 1.241 . S
C1664 C1665 1.382 1_565 S
C1664 C1668 1.393 . S
C1664 C1671 1.500 . S
C1665 C1664 1.382 1_545 S
C1665 C1666 1.401 . S
C1665 H1676 0.930 . S
C1666 C1665 1.401 . S
C1666 C1667 1.365 1_545 S
C1667 C1666 1.365 1_565 S
C1667 C1669 1.392 . S
C1667 H1677 0.931 . S
C1668 C1664 1.393 . S
C1668 C1669 1.401 . S
C1668 H1678 0.930 . S
C1669 C1667 1.392 . S
C1669 C1668 1.401 . S
C1669 H1679 0.930 . S
C1670 O1648 1.262 . S
C1670 O1649 1.260 . S
C1671 Tb1607 2.833 . S
C1671 O1646 1.251 . S
C1671 O1651 1.256 1_565 S
C1671 C1664 1.500 . S
H1672 C1655 0.930 . S
H1673 C1656 0.931 . S
H1674 C1657 0.930 . S
H1675 C1658 0.930 . S
H1676 C1665 0.930 . S
H1677 C1667 0.931 . S
H1678 C1668 0.930 . S
H1679 C1669 0.930 . S
Tb1680 N1711 2.660 1_545 S
Tb1680 N1718 2.600 . S
Tb1680 O1724 2.546 . S
Tb1680 O1725 2.610 1_545 S
Tb1680 O1727 2.320 1_545 S
Tb1680 O1728 2.552 . S
Tb1680 O1729 2.413 1_545 S
Tb1680 O1731 2.362 . S
Tb1680 O1732 2.421 . S
Tb1680 C1744 2.833 . S
C1681 C1684 1.432 . S
C1681 C1685 1.414 . S
C1681 N1688 1.359 . S
C1682 C1684 1.417 . S
C1682 C1686 1.432 1_455 S
C1682 C1694 1.410 1_565 S
C1683 C1685 1.444 1_655 S
C1683 C1686 1.317 . S
C1683 H1706 0.929 . S
C1684 C1681 1.432 . S
C1684 C1682 1.417 . S
C1684 N1692 1.360 1_565 S
C1685 C1681 1.414 . S
C1685 C1683 1.444 1_455 S
C1685 C1690 1.385 . S
C1686 C1682 1.432 1_655 S
C1686 C1683 1.317 . S
C1686 H1698 0.930 . S
C1687 C1689 1.392 . S
C1687 C1690 1.370 . S
C1687 H1699 0.931 . S
N1688 C1681 1.359 . S
N1688 C1689 1.327 . S
N1688 Tb1691 2.600 . S
C1689 C1687 1.392 . S
C1689 N1688 1.327 . S
C1689 H1696 0.930 . S
C1690 C1685 1.385 . S
C1690 C1687 1.370 . S
C1690 H1709 0.930 . S
Tb1691 N1688 2.600 . S
Tb1691 N1692 2.660 1_565 S
Tb1691 O1725 2.362 . S
Tb1691 O1726 2.421 . S
Tb1691 O1730 2.546 . S
Tb1691 O1731 2.610 1_565 S
Tb1691 O1733 2.320 1_565 S
Tb1691 O1734 2.552 . S
Tb1691 O1735 2.413 1_565 S
Tb1691 C1755 2.833 . S
N1692 C1684 1.360 1_545 S
N1692 Tb1691 2.660 1_545 S
N1692 C1693 1.305 . S
C1693 N1692 1.305 . S
C1693 C1695 1.407 . S
C1693 H1700 0.930 . S
C1694 C1682 1.410 1_545 S
C1694 C1695 1.345 . S
C1694 H1702 0.930 1_455 S
C1695 C1693 1.407 . S
C1695 C1694 1.345 . S
C1695 H1697 0.930 . S
H1696 C1689 0.930 . S
H1697 C1695 0.930 . S
H1698 C1686 0.930 . S
H1699 C1687 0.931 . S
H1700 C1693 0.930 . S
H1701 C1715 0.930 . S
H1702 C1694 0.930 1_655 S
H1703 C1721 0.930 . S
H1704 C1712 0.930 . S
H1705 C1719 0.931 . S
H1706 C1683 0.929 . S
H1707 C1713 0.930 . S
H1708 C1746 0.930 . S
H1709 C1690 0.930 . S
H1710 C1745 0.929 . S
N1711 Tb1680 2.660 1_565 S
N1711 C1712 1.305 . S
N1711 C1716 1.360 1_565 S
C1712 H1704 0.930 . S
C1712 N1711 1.305 . S
C1712 C1715 1.407 . S
C1713 H1707 0.930 . S
C1713 C1714 1.410 1_565 S
C1713 C1715 1.345 . S
C1714 C1713 1.410 1_545 S
C1714 C1716 1.417 . S
C1714 C1746 1.432 . S
C1715 H1701 0.930 . S
C1715 C1712 1.407 . S
C1715 C1713 1.345 . S
C1716 N1711 1.360 1_545 S
C1716 C1714 1.417 . S
C1716 C1720 1.432 . S
H1717 C1722 0.930 . S
N1718 Tb1680 2.600 . S
N1718 C1720 1.359 . S
N1718 C1721 1.327 . S
C1719 H1705 0.931 . S
C1719 C1721 1.392 . S
C1719 C1722 1.370 . S
C1720 C1716 1.432 . S
C1720 N1718 1.359 . S
C1720 C1723 1.414 . S
C1721 H1703 0.930 . S
C1721 N1718 1.327 . S
C1721 C1719 1.392 . S
C1722 H1717 0.930 . S
C1722 C1719 1.370 . S
C1722 C1723 1.385 . S
C1723 C1720 1.414 . S
C1723 C1722 1.385 . S
C1723 C1745 1.444 . S
O1724 Tb1680 2.546 . S
O1724 C1744 1.251 . S
O1725 Tb1680 2.610 1_565 S
O1725 Tb1691 2.362 . S
O1725 C1736 1.283 1_565 S
O1726 Tb1691 2.421 . S
O1726 C1743 1.262 . S
O1727 Tb1680 2.320 1_565 S
O1727 C1743 1.260 . S
O1728 Tb1680 2.552 . S
O1728 C1736 1.241 . S
O1729 Tb1680 2.413 1_565 S
O1729 C1744 1.256 1_565 S
O1730 Tb1691 2.546 . S
O1730 C1755 1.251 . S
O1731 Tb1680 2.362 . S
O1731 Tb1691 2.610 1_545 S
O1731 C1747 1.282 1_545 S
O1732 Tb1680 2.421 . S
O1732 C1754 1.262 . S
O1733 Tb1691 2.320 1_545 S
O1733 C1754 1.260 . S
O1734 Tb1691 2.552 . S
O1734 C1747 1.246 . S
O1735 Tb1691 2.413 1_545 S
O1735 C1755 1.256 1_545 S
C1736 O1725 1.283 1_545 S
C1736 O1728 1.241 . S
C1737 C1739 1.382 1_545 S
C1737 C1741 1.393 . S
C1737 C1744 1.500 . S
C1738 C1739 1.401 . S
C1738 C1740 1.365 1_565 S
C1739 C1737 1.382 1_565 S
C1739 C1738 1.401 . S
C1739 H1756 0.930 . S
C1740 C1738 1.365 1_545 S
C1740 C1742 1.392 . S
C1740 H1757 0.931 . S
C1741 C1737 1.393 . S
C1741 C1742 1.401 . S
C1741 H1758 0.930 . S
C1742 C1740 1.392 . S
C1742 C1741 1.401 . S
C1742 H1759 0.930 . S
C1743 O1726 1.262 . S
C1743 O1727 1.260 . S
C1744 Tb1680 2.833 . S
C1744 O1724 1.251 . S
C1744 O1729 1.256 1_545 S
C1744 C1737 1.500 . S
C1745 H1710 0.929 . S
C1745 C1723 1.444 . S
C1745 C1746 1.317 . S
C1746 H1708 0.930 . S
C1746 C1714 1.432 . S
C1746 C1745 1.317 . S
C1747 O1731 1.282 1_565 S
C1747 O1734 1.246 . S
C1748 C1749 1.382 1_565 S
C1748 C1752 1.393 . S
C1748 C1755 1.500 . S
C1749 C1748 1.382 1_545 S
C1749 C1750 1.401 . S
C1749 H1760 0.930 . S
C1750 C1749 1.401 . S
C1750 C1751 1.374 1_545 S
C1751 C1750 1.374 1_565 S
C1751 C1753 1.392 . S
C1751 H1761 0.931 . S
C1752 C1748 1.393 . S
C1752 C1753 1.401 . S
C1752 H1762 0.930 . S
C1753 C1751 1.392 . S
C1753 C1752 1.401 . S
C1753 H1763 0.930 . S
C1754 O1732 1.262 . S
C1754 O1733 1.260 . S
C1755 Tb1691 2.833 . S
C1755 O1730 1.251 . S
C1755 O1735 1.256 1_565 S
C1755 C1748 1.500 . S
H1756 C1739 0.930 . S
H1757 C1740 0.931 . S
H1758 C1741 0.930 . S
H1759 C1742 0.930 . S
H1760 C1749 0.930 . S
H1761 C1751 0.931 . S
H1762 C1752 0.930 . S
H1763 C1753 0.930 . S
Tb1764 N1795 2.660 . S
Tb1764 N1802 2.600 . S
Tb1764 O1808 2.546 . S
Tb1764 O1809 2.610 . S
Tb1764 O1811 2.320 . S
Tb1764 O1812 2.552 . S
Tb1764 O1813 2.413 . S
Tb1764 O1815 2.362 . S
Tb1764 O1816 2.421 . S
Tb1764 C1828 2.833 . S
C1765 C1768 1.432 . S
C1765 C1769 1.414 . S
C1765 N1772 1.359 . S
C1766 C1768 1.417 . S
C1766 C1770 1.432 . S
C1766 C1778 1.410 . S
C1767 C1769 1.444 . S
C1767 C1770 1.317 . S
C1767 H1790 0.929 . S
C1768 C1765 1.432 . S
C1768 C1766 1.417 . S
C1768 N1776 1.360 . S
C1769 C1765 1.414 . S
C1769 C1767 1.444 . S
C1769 C1774 1.385 . S
C1770 C1766 1.432 . S
C1770 C1767 1.317 . S
C1770 H1782 0.930 . S
C1771 C1773 1.392 . S
C1771 C1774 1.370 . S
C1771 H1783 0.931 . S
N1772 C1765 1.359 . S
N1772 C1773 1.327 . S
N1772 Tb1775 2.600 . S
C1773 C1771 1.392 . S
C1773 N1772 1.327 . S
C1773 H1780 0.930 . S
C1774 C1769 1.385 . S
C1774 C1771 1.370 . S
C1774 H1793 0.930 . S
Tb1775 N1772 2.600 . S
Tb1775 N1776 2.660 . S
Tb1775 O1809 2.362 . S
Tb1775 O1810 2.421 . S
Tb1775 O1814 2.546 . S
Tb1775 O1815 2.610 . S
Tb1775 O1817 2.320 . S
Tb1775 O1818 2.552 . S
Tb1775 O1819 2.413 . S
Tb1775 C1839 2.833 . S
N1776 C1768 1.360 . S
N1776 Tb1775 2.660 . S
N1776 C1777 1.305 . S
C1777 N1776 1.305 . S
C1777 C1779 1.407 . S
C1777 H1784 0.930 . S
C1778 C1766 1.410 . S
C1778 C1779 1.345 . S
C1778 H1786 0.930 . S
C1779 C1777 1.407 . S
C1779 C1778 1.345 . S
C1779 H1781 0.930 . S
H1780 C1773 0.930 . S
H1781 C1779 0.930 . S
H1782 C1770 0.930 . S
H1783 C1771 0.931 . S
H1784 C1777 0.930 . S
H1785 C1799 0.930 . S
H1786 C1778 0.930 . S
H1787 C1805 0.930 . S
H1788 C1796 0.930 . S
H1789 C1803 0.931 . S
H1790 C1767 0.929 . S
H1791 C1797 0.930 . S
H1792 C1830 0.930 . S
H1793 C1774 0.930 . S
H1794 C1829 0.929 . S
N1795 Tb1764 2.660 . S
N1795 C1796 1.305 . S
N1795 C1800 1.360 . S
C1796 H1788 0.930 . S
C1796 N1795 1.305 . S
C1796 C1799 1.407 . S
C1797 H1791 0.930 . S
C1797 C1798 1.410 . S
C1797 C1799 1.345 . S
C1798 C1797 1.410 . S
C1798 C1800 1.417 . S
C1798 C1830 1.432 . S
C1799 H1785 0.930 . S
C1799 C1796 1.407 . S
C1799 C1797 1.345 . S
C1800 N1795 1.360 . S
C1800 C1798 1.417 . S
C1800 C1804 1.432 . S
H1801 C1806 0.930 . S
N1802 Tb1764 2.600 . S
N1802 C1804 1.359 . S
N1802 C1805 1.327 . S
C1803 H1789 0.931 . S
C1803 C1805 1.392 . S
C1803 C1806 1.370 . S
C1804 C1800 1.432 . S
C1804 N1802 1.359 . S
C1804 C1807 1.414 . S
C1805 H1787 0.930 . S
C1805 N1802 1.327 . S
C1805 C1803 1.392 . S
C1806 H1801 0.930 . S
C1806 C1803 1.370 . S
C1806 C1807 1.385 . S
C1807 C1804 1.414 . S
C1807 C1806 1.385 . S
C1807 C1829 1.444 . S
O1808 Tb1764 2.546 . S
O1808 C1828 1.251 . S
O1809 Tb1764 2.610 . S
O1809 Tb1775 2.362 . S
O1809 C1820 1.283 . S
O1810 Tb1775 2.421 . S
O1810 C1827 1.262 . S
O1811 Tb1764 2.320 . S
O1811 C1827 1.260 . S
O1812 Tb1764 2.552 . S
O1812 C1820 1.243 . S
O1813 Tb1764 2.413 . S
O1813 C1828 1.256 . S
O1814 Tb1775 2.546 . S
O1814 C1839 1.251 . S
O1815 Tb1764 2.362 . S
O1815 Tb1775 2.610 . S
O1815 C1831 1.283 . S
O1816 Tb1764 2.421 . S
O1816 C1838 1.262 . S
O1817 Tb1775 2.320 . S
O1817 C1838 1.260 . S
O1818 Tb1775 2.552 . S
O1818 C1831 1.243 . S
O1819 Tb1775 2.413 . S
O1819 C1839 1.256 . S
C1820 O1809 1.283 . S
C1820 O1812 1.243 . S
C1821 C1823 1.382 . S
C1821 C1825 1.393 . S
C1821 C1828 1.500 . S
C1822 C1823 1.400 . S
C1822 C1824 1.384 . S
C1823 C1821 1.382 . S
C1823 C1822 1.400 . S
C1823 H1840 0.930 . S
C1824 C1822 1.384 . S
C1824 C1826 1.392 . S
C1824 H1841 0.931 . S
C1825 C1821 1.393 . S
C1825 C1826 1.401 . S
C1825 H1842 0.930 . S
C1826 C1824 1.392 . S
C1826 C1825 1.401 . S
C1826 H1843 0.930 . S
C1827 O1810 1.262 . S
C1827 O1811 1.260 . S
C1828 Tb1764 2.833 . S
C1828 O1808 1.251 . S
C1828 O1813 1.256 . S
C1828 C1821 1.500 . S
C1829 H1794 0.929 . S
C1829 C1807 1.444 . S
C1829 C1830 1.317 . S
C1830 H1792 0.930 . S
C1830 C1798 1.432 . S
C1830 C1829 1.317 . S
C1831 O1815 1.283 . S
C1831 O1818 1.243 . S
C1832 C1833 1.382 . S
C1832 C1836 1.393 . S
C1832 C1839 1.500 . S
C1833 C1832 1.382 . S
C1833 C1834 1.400 . S
C1833 H1844 0.930 . S
C1834 C1833 1.400 . S
C1834 C1835 1.384 . S
C1835 C1834 1.384 . S
C1835 C1837 1.392 . S
C1835 H1845 0.931 . S
C1836 C1832 1.393 . S
C1836 C1837 1.401 . S
C1836 H1846 0.930 . S
C1837 C1835 1.392 . S
C1837 C1836 1.401 . S
C1837 H1847 0.930 . S
C1838 O1816 1.262 . S
C1838 O1817 1.260 . S
C1839 Tb1775 2.833 . S
C1839 O1814 1.251 . S
C1839 O1819 1.256 . S
C1839 C1832 1.500 . S
H1840 C1823 0.930 . S
H1841 C1824 0.931 . S
H1842 C1825 0.930 . S
H1843 C1826 0.930 . S
H1844 C1833 0.930 . S
H1845 C1835 0.931 . S
H1846 C1836 0.930 . S
H1847 C1837 0.930 . S
Tb1848 N1879 2.660 . S
Tb1848 N1886 2.600 . S
Tb1848 O1892 2.546 . S
Tb1848 O1893 2.610 . S
Tb1848 O1895 2.320 . S
Tb1848 O1896 2.552 . S
Tb1848 O1897 2.413 . S
Tb1848 O1899 2.362 . S
Tb1848 O1900 2.421 . S
Tb1848 C1912 2.833 . S
C1849 C1852 1.432 . S
C1849 C1853 1.414 . S
C1849 N1856 1.359 . S
C1850 C1852 1.417 . S
C1850 C1854 1.432 1_455 S
C1850 C1862 1.410 . S
C1851 C1853 1.444 1_655 S
C1851 C1854 1.317 . S
C1851 H1874 0.929 . S
C1852 C1849 1.432 . S
C1852 C1850 1.417 . S
C1852 N1860 1.360 . S
C1853 C1849 1.414 . S
C1853 C1851 1.444 1_455 S
C1853 C1858 1.385 . S
C1854 C1850 1.432 1_655 S
C1854 C1851 1.317 . S
C1854 H1866 0.930 . S
C1855 C1857 1.392 . S
C1855 C1858 1.370 . S
C1855 H1867 0.931 . S
N1856 C1849 1.359 . S
N1856 C1857 1.327 . S
N1856 Tb1859 2.600 . S
C1857 C1855 1.392 . S
C1857 N1856 1.327 . S
C1857 H1864 0.930 . S
C1858 C1853 1.385 . S
C1858 C1855 1.370 . S
C1858 H1877 0.930 . S
Tb1859 N1856 2.600 . S
Tb1859 N1860 2.660 . S
Tb1859 O1893 2.362 . S
Tb1859 O1894 2.421 . S
Tb1859 O1898 2.546 . S
Tb1859 O1899 2.610 . S
Tb1859 O1901 2.320 . S
Tb1859 O1902 2.552 . S
Tb1859 O1903 2.413 . S
Tb1859 C1923 2.833 . S
N1860 C1852 1.360 . S
N1860 Tb1859 2.660 . S
N1860 C1861 1.305 . S
C1861 N1860 1.305 . S
C1861 C1863 1.407 . S
C1861 H1868 0.930 . S
C1862 C1850 1.410 . S
C1862 C1863 1.345 . S
C1862 H1870 0.930 1_455 S
C1863 C1861 1.407 . S
C1863 C1862 1.345 . S
C1863 H1865 0.930 . S
H1864 C1857 0.930 . S
H1865 C1863 0.930 . S
H1866 C1854 0.930 . S
H1867 C1855 0.931 . S
H1868 C1861 0.930 . S
H1869 C1883 0.930 . S
H1870 C1862 0.930 1_655 S
H1871 C1889 0.930 . S
H1872 C1880 0.930 . S
H1873 C1887 0.931 . S
H1874 C1851 0.929 . S
H1875 C1881 0.930 . S
H1876 C1914 0.930 . S
H1877 C1858 0.930 . S
H1878 C1913 0.929 . S
N1879 Tb1848 2.660 . S
N1879 C1880 1.305 . S
N1879 C1884 1.360 . S
C1880 H1872 0.930 . S
C1880 N1879 1.305 . S
C1880 C1883 1.407 . S
C1881 H1875 0.930 . S
C1881 C1882 1.410 . S
C1881 C1883 1.345 . S
C1882 C1881 1.410 . S
C1882 C1884 1.417 . S
C1882 C1914 1.432 . S
C1883 H1869 0.930 . S
C1883 C1880 1.407 . S
C1883 C1881 1.345 . S
C1884 N1879 1.360 . S
C1884 C1882 1.417 . S
C1884 C1888 1.432 . S
H1885 C1890 0.930 . S
N1886 Tb1848 2.600 . S
N1886 C1888 1.359 . S
N1886 C1889 1.327 . S
C1887 H1873 0.931 . S
C1887 C1889 1.392 . S
C1887 C1890 1.370 . S
C1888 C1884 1.432 . S
C1888 N1886 1.359 . S
C1888 C1891 1.414 . S
C1889 H1871 0.930 . S
C1889 N1886 1.327 . S
C1889 C1887 1.392 . S
C1890 H1885 0.930 . S
C1890 C1887 1.370 . S
C1890 C1891 1.385 . S
C1891 C1888 1.414 . S
C1891 C1890 1.385 . S
C1891 C1913 1.444 . S
O1892 Tb1848 2.546 . S
O1892 C1912 1.251 . S
O1893 Tb1848 2.610 . S
O1893 Tb1859 2.362 . S
O1893 C1904 1.283 . S
O1894 Tb1859 2.421 . S
O1894 C1911 1.262 . S
O1895 Tb1848 2.320 . S
O1895 C1911 1.260 . S
O1896 Tb1848 2.552 . S
O1896 C1904 1.243 . S
O1897 Tb1848 2.413 . S
O1897 C1912 1.256 . S
O1898 Tb1859 2.546 . S
O1898 C1923 1.251 . S
O1899 Tb1848 2.362 . S
O1899 Tb1859 2.610 . S
O1899 C1915 1.283 . S
O1900 Tb1848 2.421 . S
O1900 C1922 1.262 . S
O1901 Tb1859 2.320 . S
O1901 C1922 1.260 . S
O1902 Tb1859 2.552 . S
O1902 C1915 1.243 . S
O1903 Tb1859 2.413 . S
O1903 C1923 1.256 . S
C1904 O1893 1.283 . S
C1904 O1896 1.243 . S
C1905 C1907 1.382 . S
C1905 C1909 1.393 . S
C1905 C1912 1.500 . S
C1906 C1907 1.400 . S
C1906 C1908 1.384 . S
C1907 C1905 1.382 . S
C1907 C1906 1.400 . S
C1907 H1924 0.930 . S
C1908 C1906 1.384 . S
C1908 C1910 1.392 . S
C1908 H1925 0.931 . S
C1909 C1905 1.393 . S
C1909 C1910 1.401 . S
C1909 H1926 0.930 . S
C1910 C1908 1.392 . S
C1910 C1909 1.401 . S
C1910 H1927 0.930 . S
C1911 O1894 1.262 . S
C1911 O1895 1.260 . S
C1912 Tb1848 2.833 . S
C1912 O1892 1.251 . S
C1912 O1897 1.256 . S
C1912 C1905 1.500 . S
C1913 H1878 0.929 . S
C1913 C1891 1.444 . S
C1913 C1914 1.317 . S
C1914 H1876 0.930 . S
C1914 C1882 1.432 . S
C1914 C1913 1.317 . S
C1915 O1899 1.283 . S
C1915 O1902 1.243 . S
C1916 C1917 1.382 . S
C1916 C1920 1.393 . S
C1916 C1923 1.500 . S
C1917 C1916 1.382 . S
C1917 C1918 1.400 . S
C1917 H1928 0.930 . S
C1918 C1917 1.400 . S
C1918 C1919 1.384 . S
C1919 C1918 1.384 . S
C1919 C1921 1.392 . S
C1919 H1929 0.931 . S
C1920 C1916 1.393 . S
C1920 C1921 1.401 . S
C1920 H1930 0.930 . S
C1921 C1919 1.392 . S
C1921 C1920 1.401 . S
C1921 H1931 0.930 . S
C1922 O1900 1.262 . S
C1922 O1901 1.260 . S
C1923 Tb1859 2.833 . S
C1923 O1898 1.251 . S
C1923 O1903 1.256 . S
C1923 C1916 1.500 . S
H1924 C1907 0.930 . S
H1925 C1908 0.931 . S
H1926 C1909 0.930 . S
H1927 C1910 0.930 . S
H1928 C1917 0.930 . S
H1929 C1919 0.931 . S
H1930 C1920 0.930 . S
H1931 C1921 0.930 . S
Tb1932 N1963 2.660 1_545 S
Tb1932 N1970 2.600 . S
Tb1932 O1976 2.546 . S
Tb1932 O1977 2.610 1_545 S
Tb1932 O1979 2.320 1_545 S
Tb1932 O1980 2.552 . S
Tb1932 O1981 2.413 1_545 S
Tb1932 O1983 2.362 . S
Tb1932 O1984 2.421 . S
Tb1932 C1996 2.833 . S
C1933 C1936 1.432 . S
C1933 C1937 1.414 . S
C1933 N1940 1.359 . S
C1934 C1936 1.417 . S
C1934 C1938 1.432 . S
C1934 C1946 1.410 1_565 S
C1935 C1937 1.444 . S
C1935 C1938 1.317 . S
C1935 H1958 0.929 . S
C1936 C1933 1.432 . S
C1936 C1934 1.417 . S
C1936 N1944 1.360 1_565 S
C1937 C1933 1.414 . S
C1937 C1935 1.444 . S
C1937 C1942 1.385 . S
C1938 C1934 1.432 . S
C1938 C1935 1.317 . S
C1938 H1950 0.930 . S
C1939 C1941 1.392 . S
C1939 C1942 1.370 . S
C1939 H1951 0.931 . S
N1940 C1933 1.359 . S
N1940 C1941 1.327 . S
N1940 Tb1943 2.600 . S
C1941 C1939 1.392 . S
C1941 N1940 1.327 . S
C1941 H1948 0.930 . S
C1942 C1937 1.385 . S
C1942 C1939 1.370 . S
C1942 H1961 0.930 . S
Tb1943 N1940 2.600 . S
Tb1943 N1944 2.660 1_565 S
Tb1943 O1977 2.362 . S
Tb1943 O1978 2.421 . S
Tb1943 O1982 2.546 . S
Tb1943 O1983 2.610 1_565 S
Tb1943 O1985 2.320 1_565 S
Tb1943 O1986 2.552 . S
Tb1943 O1987 2.413 1_565 S
Tb1943 C2007 2.833 . S
N1944 C1936 1.360 1_545 S
N1944 Tb1943 2.660 1_545 S
N1944 C1945 1.305 . S
C1945 N1944 1.305 . S
C1945 C1947 1.407 . S
C1945 H1952 0.930 . S
C1946 C1934 1.410 1_545 S
C1946 C1947 1.345 . S
C1946 H1954 0.930 . S
C1947 C1945 1.407 . S
C1947 C1946 1.345 . S
C1947 H1949 0.930 . S
H1948 C1941 0.930 . S
H1949 C1947 0.930 . S
H1950 C1938 0.930 . S
H1951 C1939 0.931 . S
H1952 C1945 0.930 . S
H1953 C1967 0.930 . S
H1954 C1946 0.930 . S
H1955 C1973 0.930 . S
H1956 C1964 0.930 . S
H1957 C1971 0.931 . S
H1958 C1935 0.929 . S
H1959 C1965 0.930 . S
H1960 C1998 0.930 . S
H1961 C1942 0.930 . S
H1962 C1997 0.929 . S
N1963 Tb1932 2.660 1_565 S
N1963 C1964 1.305 . S
N1963 C1968 1.360 1_565 S
C1964 H1956 0.930 . S
C1964 N1963 1.305 . S
C1964 C1967 1.407 . S
C1965 H1959 0.930 . S
C1965 C1966 1.410 1_565 S
C1965 C1967 1.345 . S
C1966 C1965 1.410 1_545 S
C1966 C1968 1.417 . S
C1966 C1998 1.432 . S
C1967 H1953 0.930 . S
C1967 C1964 1.407 . S
C1967 C1965 1.345 . S
C1968 N1963 1.360 1_545 S
C1968 C1966 1.417 . S
C1968 C1972 1.432 . S
H1969 C1974 0.930 . S
N1970 Tb1932 2.600 . S
N1970 C1972 1.359 . S
N1970 C1973 1.327 . S
C1971 H1957 0.931 . S
C1971 C1973 1.392 . S
C1971 C1974 1.370 . S
C1972 C1968 1.432 . S
C1972 N1970 1.359 . S
C1972 C1975 1.414 . S
C1973 H1955 0.930 . S
C1973 N1970 1.327 . S
C1973 C1971 1.392 . S
C1974 H1969 0.930 . S
C1974 C1971 1.370 . S
C1974 C1975 1.385 . S
C1975 C1972 1.414 . S
C1975 C1974 1.385 . S
C1975 C1997 1.444 . S
O1976 Tb1932 2.546 . S
O1976 C1996 1.251 . S
O1977 Tb1932 2.610 1_565 S
O1977 Tb1943 2.362 . S
O1977 C1988 1.283 1_565 S
O1978 Tb1943 2.421 . S
O1978 C1995 1.262 . S
O1979 Tb1932 2.320 1_565 S
O1979 C1995 1.260 . S
O1980 Tb1932 2.552 . S
O1980 C1988 1.241 . S
O1981 Tb1932 2.413 1_565 S
O1981 C1996 1.256 1_565 S
O1982 Tb1943 2.546 . S
O1982 C2007 1.251 . S
O1983 Tb1932 2.362 . S
O1983 Tb1943 2.610 1_545 S
O1983 C1999 1.282 1_545 S
O1984 Tb1932 2.421 . S
O1984 C2006 1.262 . S
O1985 Tb1943 2.320 1_545 S
O1985 C2006 1.260 . S
O1986 Tb1943 2.552 . S
O1986 C1999 1.246 . S
O1987 Tb1943 2.413 1_545 S
O1987 C2007 1.256 1_545 S
C1988 O1977 1.283 1_545 S
C1988 O1980 1.241 . S
C1989 C1991 1.382 1_545 S
C1989 C1993 1.393 . S
C1989 C1996 1.500 . S
C1990 C1991 1.401 . S
C1990 C1992 1.365 1_565 S
C1991 C1989 1.382 1_565 S
C1991 C1990 1.401 . S
C1991 H2008 0.930 . S
C1992 C1990 1.365 1_545 S
C1992 C1994 1.392 . S
C1992 H2009 0.931 . S
C1993 C1989 1.393 . S
C1993 C1994 1.401 . S
C1993 H2010 0.930 . S
C1994 C1992 1.392 . S
C1994 C1993 1.401 . S
C1994 H2011 0.930 . S
C1995 O1978 1.262 . S
C1995 O1979 1.260 . S
C1996 Tb1932 2.833 . S
C1996 O1976 1.251 . S
C1996 O1981 1.256 1_545 S
C1996 C1989 1.500 . S
C1997 H1962 0.929 . S
C1997 C1975 1.444 . S
C1997 C1998 1.317 . S
C1998 H1960 0.930 . S
C1998 C1966 1.432 . S
C1998 C1997 1.317 . S
C1999 O1983 1.282 1_565 S
C1999 O1986 1.246 . S
C2000 C2001 1.382 1_565 S
C2000 C2004 1.393 . S
C2000 C2007 1.500 . S
C2001 C2000 1.382 1_545 S
C2001 C2002 1.401 . S
C2001 H2012 0.930 . S
C2002 C2001 1.401 . S
C2002 C2003 1.374 1_545 S
C2003 C2002 1.374 1_565 S
C2003 C2005 1.392 . S
C2003 H2013 0.931 . S
C2004 C2000 1.393 . S
C2004 C2005 1.401 . S
C2004 H2014 0.930 . S
C2005 C2003 1.392 . S
C2005 C2004 1.401 . S
C2005 H2015 0.930 . S
C2006 O1984 1.262 . S
C2006 O1985 1.260 . S
C2007 Tb1943 2.833 . S
C2007 O1982 1.251 . S
C2007 O1987 1.256 1_565 S
C2007 C2000 1.500 . S
H2008 C1991 0.930 . S
H2009 C1992 0.931 . S
H2010 C1993 0.930 . S
H2011 C1994 0.930 . S
H2012 C2001 0.930 . S
H2013 C2003 0.931 . S
H2014 C2004 0.930 . S
H2015 C2005 0.930 . S
Tb2016 N2047 2.660 . S
Tb2016 N2054 2.600 . S
Tb2016 O2060 2.546 . S
Tb2016 O2061 2.610 . S
Tb2016 O2063 2.320 . S
Tb2016 O2064 2.552 . S
Tb2016 O2065 2.413 . S
Tb2016 O2067 2.362 . S
Tb2016 O2068 2.421 . S
Tb2016 C2080 2.814 1_554 S
C2017 C2020 1.432 . S
C2017 C2021 1.414 . S
C2017 N2024 1.359 . S
C2018 C2020 1.417 . S
C2018 C2022 1.432 . S
C2018 C2030 1.410 . S
C2019 C2021 1.444 . S
C2019 C2022 1.317 . S
C2019 H2042 0.929 . S
C2020 C2017 1.432 . S
C2020 C2018 1.417 . S
C2020 N2028 1.360 . S
C2021 C2017 1.414 . S
C2021 C2019 1.444 . S
C2021 C2026 1.385 . S
C2022 C2018 1.432 . S
C2022 C2019 1.317 . S
C2022 H2034 0.930 . S
C2023 C2025 1.392 . S
C2023 C2026 1.370 . S
C2023 H2035 0.931 . S
N2024 C2017 1.359 . S
N2024 C2025 1.327 . S
N2024 Tb2027 2.600 . S
C2025 C2023 1.392 . S
C2025 N2024 1.327 . S
C2025 H2032 0.930 . S
C2026 C2021 1.385 . S
C2026 C2023 1.370 . S
C2026 H2045 0.930 . S
Tb2027 N2024 2.600 . S
Tb2027 N2028 2.660 . S
Tb2027 O2061 2.362 . S
Tb2027 O2062 2.421 . S
Tb2027 O2066 2.546 . S
Tb2027 O2067 2.610 . S
Tb2027 O2069 2.320 . S
Tb2027 O2070 2.552 . S
Tb2027 O2071 2.413 . S
Tb2027 C2091 2.833 . S
N2028 C2020 1.360 . S
N2028 Tb2027 2.660 . S
N2028 C2029 1.305 . S
C2029 N2028 1.305 . S
C2029 C2031 1.407 . S
C2029 H2036 0.930 . S
C2030 C2018 1.410 . S
C2030 C2031 1.345 . S
C2030 H2038 0.930 . S
C2031 C2029 1.407 . S
C2031 C2030 1.345 . S
C2031 H2033 0.930 . S
H2032 C2025 0.930 . S
H2033 C2031 0.930 . S
H2034 C2022 0.930 . S
H2035 C2023 0.931 . S
H2036 C2029 0.930 . S
H2037 C2051 0.930 . S
H2038 C2030 0.930 . S
H2039 C2057 0.930 . S
H2040 C2048 0.930 . S
H2041 C2055 0.931 . S
H2042 C2019 0.929 . S
H2043 C2049 0.930 1_455 S
H2044 C2082 0.930 . S
H2045 C2026 0.930 . S
H2046 C2081 0.929 . S
N2047 Tb2016 2.660 . S
N2047 C2048 1.305 . S
N2047 C2052 1.360 . S
C2048 H2040 0.930 . S
C2048 N2047 1.305 . S
C2048 C2051 1.407 . S
C2049 H2043 0.930 1_655 S
C2049 C2050 1.410 . S
C2049 C2051 1.345 . S
C2050 C2049 1.410 . S
C2050 C2052 1.417 . S
C2050 C2082 1.432 1_655 S
C2051 H2037 0.930 . S
C2051 C2048 1.407 . S
C2051 C2049 1.345 . S
C2052 N2047 1.360 . S
C2052 C2050 1.417 . S
C2052 C2056 1.432 . S
H2053 C2058 0.930 . S
N2054 Tb2016 2.600 . S
N2054 C2056 1.359 . S
N2054 C2057 1.327 . S
C2055 H2041 0.931 . S
C2055 C2057 1.392 . S
C2055 C2058 1.370 . S
C2056 C2052 1.432 . S
C2056 N2054 1.359 . S
C2056 C2059 1.414 . S
C2057 H2039 0.930 . S
C2057 N2054 1.327 . S
C2057 C2055 1.392 . S
C2058 H2053 0.930 . S
C2058 C2055 1.370 . S
C2058 C2059 1.385 . S
C2059 C2056 1.414 . S
C2059 C2058 1.385 . S
C2059 C2081 1.444 1_655 S
O2060 Tb2016 2.546 . S
O2060 C2080 1.242 1_554 S
O2061 Tb2016 2.610 . S
O2061 Tb2027 2.362 . S
O2061 C2072 1.283 . S
O2062 Tb2027 2.421 . S
O2062 C2079 1.262 . S
O2063 Tb2016 2.320 . S
O2063 C2079 1.260 . S
O2064 Tb2016 2.552 . S
O2064 C2072 1.243 . S
O2065 Tb2016 2.413 . S
O2065 C2080 1.247 1_554 S
O2066 Tb2027 2.546 . S
O2066 C2091 1.251 . S
O2067 Tb2016 2.362 . S
O2067 Tb2027 2.610 . S
O2067 C2083 1.283 . S
O2068 Tb2016 2.421 . S
O2068 C2090 1.262 . S
O2069 Tb2027 2.320 . S
O2069 C2090 1.260 . S
O2070 Tb2027 2.552 . S
O2070 C2083 1.243 . S
O2071 Tb2027 2.413 . S
O2071 C2091 1.256 . S
C2072 O2061 1.283 . S
C2072 O2064 1.243 . S
C2073 C2075 1.382 . S
C2073 C2077 1.393 . S
C2073 C2080 1.519 . S
C2074 C2075 1.400 . S
C2074 C2076 1.384 . S
C2075 C2073 1.382 . S
C2075 C2074 1.400 . S
C2075 H2092 0.930 . S
C2076 C2074 1.384 . S
C2076 C2078 1.392 . S
C2076 H2093 0.931 . S
C2077 C2073 1.393 . S
C2077 C2078 1.401 . S
C2077 H2094 0.930 . S
C2078 C2076 1.392 . S
C2078 C2077 1.401 . S
C2078 H2095 0.930 . S
C2079 O2062 1.262 . S
C2079 O2063 1.260 . S
C2080 Tb2016 2.814 1_556 S
C2080 O2060 1.242 1_556 S
C2080 O2065 1.247 1_556 S
C2080 C2073 1.519 . S
C2081 H2046 0.929 . S
C2081 C2059 1.444 1_455 S
C2081 C2082 1.317 . S
C2082 H2044 0.930 . S
C2082 C2050 1.432 1_455 S
C2082 C2081 1.317 . S
C2083 O2067 1.283 . S
C2083 O2070 1.243 . S
C2084 C2085 1.382 . S
C2084 C2088 1.393 . S
C2084 C2091 1.500 . S
C2085 C2084 1.382 . S
C2085 C2086 1.400 . S
C2085 H2096 0.930 . S
C2086 C2085 1.400 . S
C2086 C2087 1.384 . S
C2087 C2086 1.384 . S
C2087 C2089 1.392 . S
C2087 H2097 0.931 . S
C2088 C2084 1.393 . S
C2088 C2089 1.401 . S
C2088 H2098 0.930 . S
C2089 C2087 1.392 . S
C2089 C2088 1.401 . S
C2089 H2099 0.930 . S
C2090 O2068 1.262 . S
C2090 O2069 1.260 . S
C2091 Tb2027 2.833 . S
C2091 O2066 1.251 . S
C2091 O2071 1.256 . S
C2091 C2084 1.500 . S
H2092 C2075 0.930 . S
H2093 C2076 0.931 . S
H2094 C2077 0.930 . S
H2095 C2078 0.930 . S
H2096 C2085 0.930 . S
H2097 C2087 0.931 . S
H2098 C2088 0.930 . S
H2099 C2089 0.930 . S
Tb2100 N2131 2.660 . S
Tb2100 N2138 2.600 . S
Tb2100 O2144 2.546 . S
Tb2100 O2145 2.610 . S
Tb2100 O2147 2.320 . S
Tb2100 O2148 2.552 . S
Tb2100 O2149 2.413 . S
Tb2100 O2151 2.362 . S
Tb2100 O2152 2.421 . S
Tb2100 C2164 2.803 1_554 S
C2101 C2104 1.432 . S
C2101 C2105 1.414 . S
C2101 N2108 1.359 . S
C2102 C2104 1.417 . S
C2102 C2106 1.432 . S
C2102 C2114 1.410 . S
C2103 C2105 1.444 . S
C2103 C2106 1.317 . S
C2103 H2126 0.929 . S
C2104 C2101 1.432 . S
C2104 C2102 1.417 . S
C2104 N2112 1.360 . S
C2105 C2101 1.414 . S
C2105 C2103 1.444 . S
C2105 C2110 1.385 . S
C2106 C2102 1.432 . S
C2106 C2103 1.317 . S
C2106 H2118 0.930 . S
C2107 C2109 1.392 . S
C2107 C2110 1.370 . S
C2107 H2119 0.931 . S
N2108 C2101 1.359 . S
N2108 C2109 1.327 . S
N2108 Tb2111 2.600 . S
C2109 C2107 1.392 . S
C2109 N2108 1.327 . S
C2109 H2116 0.930 . S
C2110 C2105 1.385 . S
C2110 C2107 1.370 . S
C2110 H2129 0.930 . S
Tb2111 N2108 2.600 . S
Tb2111 N2112 2.660 . S
Tb2111 O2145 2.362 . S
Tb2111 O2146 2.421 . S
Tb2111 O2150 2.546 . S
Tb2111 O2151 2.610 . S
Tb2111 O2153 2.320 . S
Tb2111 O2154 2.552 . S
Tb2111 O2155 2.413 . S
Tb2111 C2175 2.833 . S
N2112 C2104 1.360 . S
N2112 Tb2111 2.660 . S
N2112 C2113 1.305 . S
C2113 N2112 1.305 . S
C2113 C2115 1.407 . S
C2113 H2120 0.930 . S
C2114 C2102 1.410 . S
C2114 C2115 1.345 . S
C2114 H2122 0.930 . S
C2115 C2113 1.407 . S
C2115 C2114 1.345 . S
C2115 H2117 0.930 . S
H2116 C2109 0.930 . S
H2117 C2115 0.930 . S
H2118 C2106 0.930 . S
H2119 C2107 0.931 . S
H2120 C2113 0.930 . S
H2121 C2135 0.930 . S
H2122 C2114 0.930 . S
H2123 C2141 0.930 . S
H2124 C2132 0.930 . S
H2125 C2139 0.931 . S
H2126 C2103 0.929 . S
H2127 C2133 0.930 . S
H2128 C2166 0.930 . S
H2129 C2110 0.930 . S
H2130 C2165 0.929 . S
N2131 Tb2100 2.660 . S
N2131 C2132 1.305 . S
N2131 C2136 1.360 . S
C2132 H2124 0.930 . S
C2132 N2131 1.305 . S
C2132 C2135 1.407 . S
C2133 H2127 0.930 . S
C2133 C2134 1.410 . S
C2133 C2135 1.345 . S
C2134 C2133 1.410 . S
C2134 C2136 1.417 . S
C2134 C2166 1.432 . S
C2135 H2121 0.930 . S
C2135 C2132 1.407 . S
C2135 C2133 1.345 . S
C2136 N2131 1.360 . S
C2136 C2134 1.417 . S
C2136 C2140 1.432 . S
H2137 C2142 0.930 . S
N2138 Tb2100 2.600 . S
N2138 C2140 1.359 . S
N2138 C2141 1.327 . S
C2139 H2125 0.931 . S
C2139 C2141 1.392 . S
C2139 C2142 1.370 . S
C2140 C2136 1.432 . S
C2140 N2138 1.359 . S
C2140 C2143 1.414 . S
C2141 H2123 0.930 . S
C2141 N2138 1.327 . S
C2141 C2139 1.392 . S
C2142 H2137 0.930 . S
C2142 C2139 1.370 . S
C2142 C2143 1.385 . S
C2143 C2140 1.414 . S
C2143 C2142 1.385 . S
C2143 C2165 1.444 . S
O2144 Tb2100 2.546 . S
O2144 C2164 1.237 1_554 S
O2145 Tb2100 2.610 . S
O2145 Tb2111 2.362 . S
O2145 C2156 1.283 . S
O2146 Tb2111 2.421 . S
O2146 C2163 1.262 . S
O2147 Tb2100 2.320 . S
O2147 C2163 1.260 . S
O2148 Tb2100 2.552 . S
O2148 C2156 1.243 . S
O2149 Tb2100 2.413 . S
O2149 C2164 1.241 1_554 S
O2150 Tb2111 2.546 . S
O2150 C2175 1.251 . S
O2151 Tb2100 2.362 . S
O2151 Tb2111 2.610 . S
O2151 C2167 1.283 . S
O2152 Tb2100 2.421 . S
O2152 C2174 1.262 . S
O2153 Tb2111 2.320 . S
O2153 C2174 1.260 . S
O2154 Tb2111 2.552 . S
O2154 C2167 1.243 . S
O2155 Tb2111 2.413 . S
O2155 C2175 1.256 . S
C2156 O2145 1.283 . S
C2156 O2148 1.243 . S
C2157 C2159 1.382 . S
C2157 C2161 1.393 . S
C2157 C2164 1.531 . S
C2158 C2159 1.400 . S
C2158 C2160 1.384 . S
C2159 C2157 1.382 . S
C2159 C2158 1.400 . S
C2159 H2176 0.930 . S
C2160 C2158 1.384 . S
C2160 C2162 1.392 . S
C2160 H2177 0.931 . S
C2161 C2157 1.393 . S
C2161 C2162 1.401 . S
C2161 H2178 0.930 . S
C2162 C2160 1.392 . S
C2162 C2161 1.401 . S
C2162 H2179 0.930 . S
C2163 O2146 1.262 . S
C2163 O2147 1.260 . S
C2164 Tb2100 2.803 1_556 S
C2164 O2144 1.237 1_556 S
C2164 O2149 1.241 1_556 S
C2164 C2157 1.531 . S
C2165 H2130 0.929 . S
C2165 C2143 1.444 . S
C2165 C2166 1.317 . S
C2166 H2128 0.930 . S
C2166 C2134 1.432 . S
C2166 C2165 1.317 . S
C2167 O2151 1.283 . S
C2167 O2154 1.243 . S
C2168 C2169 1.382 . S
C2168 C2172 1.393 . S
C2168 C2175 1.500 . S
C2169 C2168 1.382 . S
C2169 C2170 1.400 . S
C2169 H2180 0.930 . S
C2170 C2169 1.400 . S
C2170 C2171 1.384 . S
C2171 C2170 1.384 . S
C2171 C2173 1.392 . S
C2171 H2181 0.931 . S
C2172 C2168 1.393 . S
C2172 C2173 1.401 . S
C2172 H2182 0.930 . S
C2173 C2171 1.392 . S
C2173 C2172 1.401 . S
C2173 H2183 0.930 . S
C2174 O2152 1.262 . S
C2174 O2153 1.260 . S
C2175 Tb2111 2.833 . S
C2175 O2150 1.251 . S
C2175 O2155 1.256 . S
C2175 C2168 1.500 . S
H2176 C2159 0.930 . S
H2177 C2160 0.931 . S
H2178 C2161 0.930 . S
H2179 C2162 0.930 . S
H2180 C2169 0.930 . S
H2181 C2171 0.931 . S
H2182 C2172 0.930 . S
H2183 C2173 0.930 . S
Tb2184 N2215 2.660 . S
Tb2184 N2222 2.600 . S
Tb2184 O2228 2.546 . S
Tb2184 O2229 2.610 . S
Tb2184 O2231 2.320 . S
Tb2184 O2232 2.552 . S
Tb2184 O2233 2.413 . S
Tb2184 O2235 2.362 . S
Tb2184 O2236 2.421 . S
Tb2184 C2248 2.833 . S
C2185 C2188 1.432 . S
C2185 C2189 1.414 . S
C2185 N2192 1.359 . S
C2186 C2188 1.417 . S
C2186 C2190 1.432 . S
C2186 C2198 1.410 . S
C2187 C2189 1.444 . S
C2187 C2190 1.317 . S
C2187 H2210 0.929 . S
C2188 C2185 1.432 . S
C2188 C2186 1.417 . S
C2188 N2196 1.360 . S
C2189 C2185 1.414 . S
C2189 C2187 1.444 . S
C2189 C2194 1.385 . S
C2190 C2186 1.432 . S
C2190 C2187 1.317 . S
C2190 H2202 0.930 . S
C2191 C2193 1.392 . S
C2191 C2194 1.370 . S
C2191 H2203 0.931 . S
N2192 C2185 1.359 . S
N2192 C2193 1.327 . S
N2192 Tb2195 2.600 . S
C2193 C2191 1.392 . S
C2193 N2192 1.327 . S
C2193 H2200 0.930 . S
C2194 C2189 1.385 . S
C2194 C2191 1.370 . S
C2194 H2213 0.930 . S
Tb2195 N2192 2.600 . S
Tb2195 N2196 2.660 . S
Tb2195 O2229 2.362 . S
Tb2195 O2230 2.421 . S
Tb2195 O2234 2.546 . S
Tb2195 O2235 2.610 . S
Tb2195 O2237 2.320 . S
Tb2195 O2238 2.552 . S
Tb2195 O2239 2.413 . S
Tb2195 C2259 2.833 . S
N2196 C2188 1.360 . S
N2196 Tb2195 2.660 . S
N2196 C2197 1.305 . S
C2197 N2196 1.305 . S
C2197 C2199 1.407 . S
C2197 H2204 0.930 . S
C2198 C2186 1.410 . S
C2198 C2199 1.345 . S
C2198 H2206 0.930 . S
C2199 C2197 1.407 . S
C2199 C2198 1.345 . S
C2199 H2201 0.930 . S
H2200 C2193 0.930 . S
H2201 C2199 0.930 . S
H2202 C2190 0.930 . S
H2203 C2191 0.931 . S
H2204 C2197 0.930 . S
H2205 C2219 0.930 . S
H2206 C2198 0.930 . S
H2207 C2225 0.930 . S
H2208 C2216 0.930 . S
H2209 C2223 0.931 . S
H2210 C2187 0.929 . S
H2211 C2217 0.930 1_455 S
H2212 C2250 0.930 . S
H2213 C2194 0.930 . S
H2214 C2249 0.929 . S
N2215 Tb2184 2.660 . S
N2215 C2216 1.305 . S
N2215 C2220 1.360 . S
C2216 H2208 0.930 . S
C2216 N2215 1.305 . S
C2216 C2219 1.407 . S
C2217 H2211 0.930 1_655 S
C2217 C2218 1.410 . S
C2217 C2219 1.345 . S
C2218 C2217 1.410 . S
C2218 C2220 1.417 . S
C2218 C2250 1.432 1_655 S
C2219 H2205 0.930 . S
C2219 C2216 1.407 . S
C2219 C2217 1.345 . S
C2220 N2215 1.360 . S
C2220 C2218 1.417 . S
C2220 C2224 1.432 . S
H2221 C2226 0.930 . S
N2222 Tb2184 2.600 . S
N2222 C2224 1.359 . S
N2222 C2225 1.327 . S
C2223 H2209 0.931 . S
C2223 C2225 1.392 . S
C2223 C2226 1.370 . S
C2224 C2220 1.432 . S
C2224 N2222 1.359 . S
C2224 C2227 1.414 . S
C2225 H2207 0.930 . S
C2225 N2222 1.327 . S
C2225 C2223 1.392 . S
C2226 H2221 0.930 . S
C2226 C2223 1.370 . S
C2226 C2227 1.385 . S
C2227 C2224 1.414 . S
C2227 C2226 1.385 . S
C2227 C2249 1.444 1_655 S
O2228 Tb2184 2.546 . S
O2228 C2248 1.251 . S
O2229 Tb2184 2.610 . S
O2229 Tb2195 2.362 . S
O2229 C2240 1.283 . S
O2230 Tb2195 2.421 . S
O2230 C2247 1.262 . S
O2231 Tb2184 2.320 . S
O2231 C2247 1.260 . S
O2232 Tb2184 2.552 . S
O2232 C2240 1.243 . S
O2233 Tb2184 2.413 . S
O2233 C2248 1.256 . S
O2234 Tb2195 2.546 . S
O2234 C2259 1.251 . S
O2235 Tb2184 2.362 . S
O2235 Tb2195 2.610 . S
O2235 C2251 1.283 . S
O2236 Tb2184 2.421 . S
O2236 C2258 1.262 . S
O2237 Tb2195 2.320 . S
O2237 C2258 1.260 . S
O2238 Tb2195 2.552 . S
O2238 C2251 1.243 . S
O2239 Tb2195 2.413 . S
O2239 C2259 1.256 . S
C2240 O2229 1.283 . S
C2240 O2232 1.243 . S
C2241 C2243 1.382 . S
C2241 C2245 1.393 . S
C2241 C2248 1.500 . S
C2242 C2243 1.400 . S
C2242 C2244 1.384 . S
C2243 C2241 1.382 . S
C2243 C2242 1.400 . S
C2243 H2260 0.930 . S
C2244 C2242 1.384 . S
C2244 C2246 1.392 . S
C2244 H2261 0.931 . S
C2245 C2241 1.393 . S
C2245 C2246 1.401 . S
C2245 H2262 0.930 . S
C2246 C2244 1.392 . S
C2246 C2245 1.401 . S
C2246 H2263 0.930 . S
C2247 O2230 1.262 . S
C2247 O2231 1.260 . S
C2248 Tb2184 2.833 . S
C2248 O2228 1.251 . S
C2248 O2233 1.256 . S
C2248 C2241 1.500 . S
C2249 H2214 0.929 . S
C2249 C2227 1.444 1_455 S
C2249 C2250 1.317 . S
C2250 H2212 0.930 . S
C2250 C2218 1.432 1_455 S
C2250 C2249 1.317 . S
C2251 O2235 1.283 . S
C2251 O2238 1.243 . S
C2252 C2253 1.382 . S
C2252 C2256 1.393 . S
C2252 C2259 1.500 . S
C2253 C2252 1.382 . S
C2253 C2254 1.400 . S
C2253 H2264 0.930 . S
C2254 C2253 1.400 . S
C2254 C2255 1.384 . S
C2255 C2254 1.384 . S
C2255 C2257 1.392 . S
C2255 H2265 0.931 . S
C2256 C2252 1.393 . S
C2256 C2257 1.401 . S
C2256 H2266 0.930 . S
C2257 C2255 1.392 . S
C2257 C2256 1.401 . S
C2257 H2267 0.930 . S
C2258 O2236 1.262 . S
C2258 O2237 1.260 . S
C2259 Tb2195 2.833 . S
C2259 O2234 1.251 . S
C2259 O2239 1.256 . S
C2259 C2252 1.500 . S
H2260 C2243 0.930 . S
H2261 C2244 0.931 . S
H2262 C2245 0.930 . S
H2263 C2246 0.930 . S
H2264 C2253 0.930 . S
H2265 C2255 0.931 . S
H2266 C2256 0.930 . S
H2267 C2257 0.930 . S
Tb2268 N2299 2.660 . S
Tb2268 N2306 2.600 . S
Tb2268 O2312 2.546 . S
Tb2268 O2313 2.610 . S
Tb2268 O2315 2.320 . S
Tb2268 O2316 2.552 . S
Tb2268 O2317 2.413 . S
Tb2268 O2319 2.362 . S
Tb2268 O2320 2.421 . S
Tb2268 C2332 2.833 . S
C2269 C2272 1.432 . S
C2269 C2273 1.414 . S
C2269 N2276 1.359 . S
C2270 C2272 1.417 . S
C2270 C2274 1.432 . S
C2270 C2282 1.410 . S
C2271 C2273 1.444 . S
C2271 C2274 1.317 . S
C2271 H2294 0.929 . S
C2272 C2269 1.432 . S
C2272 C2270 1.417 . S
C2272 N2280 1.360 . S
C2273 C2269 1.414 . S
C2273 C2271 1.444 . S
C2273 C2278 1.385 . S
C2274 C2270 1.432 . S
C2274 C2271 1.317 . S
C2274 H2286 0.930 . S
C2275 C2277 1.392 . S
C2275 C2278 1.370 . S
C2275 H2287 0.931 . S
N2276 C2269 1.359 . S
N2276 C2277 1.327 . S
N2276 Tb2279 2.600 . S
C2277 C2275 1.392 . S
C2277 N2276 1.327 . S
C2277 H2284 0.930 . S
C2278 C2273 1.385 . S
C2278 C2275 1.370 . S
C2278 H2297 0.930 . S
Tb2279 N2276 2.600 . S
Tb2279 N2280 2.660 . S
Tb2279 O2313 2.362 . S
Tb2279 O2314 2.421 . S
Tb2279 O2318 2.546 . S
Tb2279 O2319 2.610 . S
Tb2279 O2321 2.320 . S
Tb2279 O2322 2.552 . S
Tb2279 O2323 2.413 . S
Tb2279 C2343 2.833 . S
N2280 C2272 1.360 . S
N2280 Tb2279 2.660 . S
N2280 C2281 1.305 . S
C2281 N2280 1.305 . S
C2281 C2283 1.407 . S
C2281 H2288 0.930 . S
C2282 C2270 1.410 . S
C2282 C2283 1.345 . S
C2282 H2290 0.930 . S
C2283 C2281 1.407 . S
C2283 C2282 1.345 . S
C2283 H2285 0.930 . S
H2284 C2277 0.930 . S
H2285 C2283 0.930 . S
H2286 C2274 0.930 . S
H2287 C2275 0.931 . S
H2288 C2281 0.930 . S
H2289 C2303 0.930 . S
H2290 C2282 0.930 . S
H2291 C2309 0.930 . S
H2292 C2300 0.930 . S
H2293 C2307 0.931 . S
H2294 C2271 0.929 . S
H2295 C2301 0.930 . S
H2296 C2334 0.930 . S
H2297 C2278 0.930 . S
H2298 C2333 0.929 . S
N2299 Tb2268 2.660 . S
N2299 C2300 1.305 . S
N2299 C2304 1.360 . S
C2300 H2292 0.930 . S
C2300 N2299 1.305 . S
C2300 C2303 1.407 . S
C2301 H2295 0.930 . S
C2301 C2302 1.410 . S
C2301 C2303 1.345 . S
C2302 C2301 1.410 . S
C2302 C2304 1.417 . S
C2302 C2334 1.432 . S
C2303 H2289 0.930 . S
C2303 C2300 1.407 . S
C2303 C2301 1.345 . S
C2304 N2299 1.360 . S
C2304 C2302 1.417 . S
C2304 C2308 1.432 . S
H2305 C2310 0.930 . S
N2306 Tb2268 2.600 . S
N2306 C2308 1.359 . S
N2306 C2309 1.327 . S
C2307 H2293 0.931 . S
C2307 C2309 1.392 . S
C2307 C2310 1.370 . S
C2308 C2304 1.432 . S
C2308 N2306 1.359 . S
C2308 C2311 1.414 . S
C2309 H2291 0.930 . S
C2309 N2306 1.327 . S
C2309 C2307 1.392 . S
C2310 H2305 0.930 . S
C2310 C2307 1.370 . S
C2310 C2311 1.385 . S
C2311 C2308 1.414 . S
C2311 C2310 1.385 . S
C2311 C2333 1.444 . S
O2312 Tb2268 2.546 . S
O2312 C2332 1.251 . S
O2313 Tb2268 2.610 . S
O2313 Tb2279 2.362 . S
O2313 C2324 1.283 . S
O2314 Tb2279 2.421 . S
O2314 C2331 1.262 . S
O2315 Tb2268 2.320 . S
O2315 C2331 1.260 . S
O2316 Tb2268 2.552 . S
O2316 C2324 1.243 . S
O2317 Tb2268 2.413 . S
O2317 C2332 1.256 . S
O2318 Tb2279 2.546 . S
O2318 C2343 1.251 . S
O2319 Tb2268 2.362 . S
O2319 Tb2279 2.610 . S
O2319 C2335 1.283 . S
O2320 Tb2268 2.421 . S
O2320 C2342 1.262 . S
O2321 Tb2279 2.320 . S
O2321 C2342 1.260 . S
O2322 Tb2279 2.552 . S
O2322 C2335 1.243 . S
O2323 Tb2279 2.413 . S
O2323 C2343 1.256 . S
C2324 O2313 1.283 . S
C2324 O2316 1.243 . S
C2325 C2327 1.382 . S
C2325 C2329 1.393 . S
C2325 C2332 1.500 . S
C2326 C2327 1.400 . S
C2326 C2328 1.384 . S
C2327 C2325 1.382 . S
C2327 C2326 1.400 . S
C2327 H2344 0.930 . S
C2328 C2326 1.384 . S
C2328 C2330 1.392 . S
C2328 H2345 0.931 . S
C2329 C2325 1.393 . S
C2329 C2330 1.401 . S
C2329 H2346 0.930 . S
C2330 C2328 1.392 . S
C2330 C2329 1.401 . S
C2330 H2347 0.930 . S
C2331 O2314 1.262 . S
C2331 O2315 1.260 . S
C2332 Tb2268 2.833 . S
C2332 O2312 1.251 . S
C2332 O2317 1.256 . S
C2332 C2325 1.500 . S
C2333 H2298 0.929 . S
C2333 C2311 1.444 . S
C2333 C2334 1.317 . S
C2334 H2296 0.930 . S
C2334 C2302 1.432 . S
C2334 C2333 1.317 . S
C2335 O2319 1.283 . S
C2335 O2322 1.243 . S
C2336 C2337 1.382 . S
C2336 C2340 1.393 . S
C2336 C2343 1.500 . S
C2337 C2336 1.382 . S
C2337 C2338 1.400 . S
C2337 H2348 0.930 . S
C2338 C2337 1.400 . S
C2338 C2339 1.384 . S
C2339 C2338 1.384 . S
C2339 C2341 1.392 . S
C2339 H2349 0.931 . S
C2340 C2336 1.393 . S
C2340 C2341 1.401 . S
C2340 H2350 0.930 . S
C2341 C2339 1.392 . S
C2341 C2340 1.401 . S
C2341 H2351 0.930 . S
C2342 O2320 1.262 . S
C2342 O2321 1.260 . S
C2343 Tb2279 2.833 . S
C2343 O2318 1.251 . S
C2343 O2323 1.256 . S
C2343 C2336 1.500 . S
H2344 C2327 0.930 . S
H2345 C2328 0.931 . S
H2346 C2329 0.930 . S
H2347 C2330 0.930 . S
H2348 C2337 0.930 . S
H2349 C2339 0.931 . S
H2350 C2340 0.930 . S
H2351 C2341 0.930 . S
Tb2352 N2383 2.660 . S
Tb2352 N2390 2.600 . S
Tb2352 O2396 2.546 . S
Tb2352 O2397 2.610 . S
Tb2352 O2399 2.320 . S
Tb2352 O2400 2.552 . S
Tb2352 O2401 2.413 . S
Tb2352 O2403 2.362 . S
Tb2352 O2404 2.421 . S
Tb2352 C2416 2.833 . S
C2353 C2356 1.432 . S
C2353 C2357 1.414 . S
C2353 N2360 1.359 . S
C2354 C2356 1.417 . S
C2354 C2358 1.432 1_455 S
C2354 C2366 1.410 . S
C2355 C2357 1.444 1_655 S
C2355 C2358 1.317 . S
C2355 H2378 0.929 . S
C2356 C2353 1.432 . S
C2356 C2354 1.417 . S
C2356 N2364 1.360 . S
C2357 C2353 1.414 . S
C2357 C2355 1.444 1_455 S
C2357 C2362 1.385 . S
C2358 C2354 1.432 1_655 S
C2358 C2355 1.317 . S
C2358 H2370 0.930 . S
C2359 C2361 1.392 . S
C2359 C2362 1.370 . S
C2359 H2371 0.931 . S
N2360 C2353 1.359 . S
N2360 C2361 1.327 . S
N2360 Tb2363 2.600 . S
C2361 C2359 1.392 . S
C2361 N2360 1.327 . S
C2361 H2368 0.930 . S
C2362 C2357 1.385 . S
C2362 C2359 1.370 . S
C2362 H2381 0.930 . S
Tb2363 N2360 2.600 . S
Tb2363 N2364 2.660 . S
Tb2363 O2397 2.362 . S
Tb2363 O2398 2.421 . S
Tb2363 O2402 2.546 . S
Tb2363 O2403 2.610 . S
Tb2363 O2405 2.320 . S
Tb2363 O2406 2.552 . S
Tb2363 O2407 2.413 . S
Tb2363 C2427 2.814 1_556 S
N2364 C2356 1.360 . S
N2364 Tb2363 2.660 . S
N2364 C2365 1.305 . S
C2365 N2364 1.305 . S
C2365 C2367 1.407 . S
C2365 H2372 0.930 . S
C2366 C2354 1.410 . S
C2366 C2367 1.345 . S
C2366 H2374 0.930 1_455 S
C2367 C2365 1.407 . S
C2367 C2366 1.345 . S
C2367 H2369 0.930 . S
H2368 C2361 0.930 . S
H2369 C2367 0.930 . S
H2370 C2358 0.930 . S
H2371 C2359 0.931 . S
H2372 C2365 0.930 . S
H2373 C2387 0.930 . S
H2374 C2366 0.930 1_655 S
H2375 C2393 0.930 . S
H2376 C2384 0.930 . S
H2377 C2391 0.931 . S
H2378 C2355 0.929 . S
H2379 C2385 0.930 . S
H2380 C2418 0.930 . S
H2381 C2362 0.930 . S
H2382 C2417 0.929 . S
N2383 Tb2352 2.660 . S
N2383 C2384 1.305 . S
N2383 C2388 1.360 . S
C2384 H2376 0.930 . S
C2384 N2383 1.305 . S
C2384 C2387 1.407 . S
C2385 H2379 0.930 . S
C2385 C2386 1.410 . S
C2385 C2387 1.345 . S
C2386 C2385 1.410 . S
C2386 C2388 1.417 . S
C2386 C2418 1.432 . S
C2387 H2373 0.930 . S
C2387 C2384 1.407 . S
C2387 C2385 1.345 . S
C2388 N2383 1.360 . S
C2388 C2386 1.417 . S
C2388 C2392 1.432 . S
H2389 C2394 0.930 . S
N2390 Tb2352 2.600 . S
N2390 C2392 1.359 . S
N2390 C2393 1.327 . S
C2391 H2377 0.931 . S
C2391 C2393 1.392 . S
C2391 C2394 1.370 . S
C2392 C2388 1.432 . S
C2392 N2390 1.359 . S
C2392 C2395 1.414 . S
C2393 H2375 0.930 . S
C2393 N2390 1.327 . S
C2393 C2391 1.392 . S
C2394 H2389 0.930 . S
C2394 C2391 1.370 . S
C2394 C2395 1.385 . S
C2395 C2392 1.414 . S
C2395 C2394 1.385 . S
C2395 C2417 1.444 . S
O2396 Tb2352 2.546 . S
O2396 C2416 1.251 . S
O2397 Tb2352 2.610 . S
O2397 Tb2363 2.362 . S
O2397 C2408 1.283 . S
O2398 Tb2363 2.421 . S
O2398 C2415 1.262 . S
O2399 Tb2352 2.320 . S
O2399 C2415 1.260 . S
O2400 Tb2352 2.552 . S
O2400 C2408 1.243 . S
O2401 Tb2352 2.413 . S
O2401 C2416 1.256 . S
O2402 Tb2363 2.546 . S
O2402 C2427 1.242 1_556 S
O2403 Tb2352 2.362 . S
O2403 Tb2363 2.610 . S
O2403 C2419 1.283 . S
O2404 Tb2352 2.421 . S
O2404 C2426 1.262 . S
O2405 Tb2363 2.320 . S
O2405 C2426 1.260 . S
O2406 Tb2363 2.552 . S
O2406 C2419 1.243 . S
O2407 Tb2363 2.413 . S
O2407 C2427 1.247 1_556 S
C2408 O2397 1.283 . S
C2408 O2400 1.243 . S
C2409 C2411 1.382 . S
C2409 C2413 1.393 . S
C2409 C2416 1.500 . S
C2410 C2411 1.400 . S
C2410 C2412 1.384 . S
C2411 C2409 1.382 . S
C2411 C2410 1.400 . S
C2411 H2428 0.930 . S
C2412 C2410 1.384 . S
C2412 C2414 1.392 . S
C2412 H2429 0.931 . S
C2413 C2409 1.393 . S
C2413 C2414 1.401 . S
C2413 H2430 0.930 . S
C2414 C2412 1.392 . S
C2414 C2413 1.401 . S
C2414 H2431 0.930 . S
C2415 O2398 1.262 . S
C2415 O2399 1.260 . S
C2416 Tb2352 2.833 . S
C2416 O2396 1.251 . S
C2416 O2401 1.256 . S
C2416 C2409 1.500 . S
C2417 H2382 0.929 . S
C2417 C2395 1.444 . S
C2417 C2418 1.317 . S
C2418 H2380 0.930 . S
C2418 C2386 1.432 . S
C2418 C2417 1.317 . S
C2419 O2403 1.283 . S
C2419 O2406 1.243 . S
C2420 C2421 1.382 . S
C2420 C2424 1.393 . S
C2420 C2427 1.519 . S
C2421 C2420 1.382 . S
C2421 C2422 1.400 . S
C2421 H2432 0.930 . S
C2422 C2421 1.400 . S
C2422 C2423 1.384 . S
C2423 C2422 1.384 . S
C2423 C2425 1.392 . S
C2423 H2433 0.931 . S
C2424 C2420 1.393 . S
C2424 C2425 1.401 . S
C2424 H2434 0.930 . S
C2425 C2423 1.392 . S
C2425 C2424 1.401 . S
C2425 H2435 0.930 . S
C2426 O2404 1.262 . S
C2426 O2405 1.260 . S
C2427 Tb2363 2.814 1_554 S
C2427 O2402 1.242 1_554 S
C2427 O2407 1.247 1_554 S
C2427 C2420 1.519 . S
H2428 C2411 0.930 . S
H2429 C2412 0.931 . S
H2430 C2413 0.930 . S
H2431 C2414 0.930 . S
H2432 C2421 0.930 . S
H2433 C2423 0.931 . S
H2434 C2424 0.930 . S
H2435 C2425 0.930 . S
Tb2436 N2467 2.660 . S
Tb2436 N2474 2.600 . S
Tb2436 O2480 2.546 . S
Tb2436 O2481 2.610 . S
Tb2436 O2483 2.320 . S
Tb2436 O2484 2.552 . S
Tb2436 O2485 2.413 . S
Tb2436 O2487 2.362 . S
Tb2436 O2488 2.421 . S
Tb2436 C2500 2.833 . S
C2437 C2440 1.432 . S
C2437 C2441 1.414 . S
C2437 N2444 1.359 . S
C2438 C2440 1.417 . S
C2438 C2442 1.432 . S
C2438 C2450 1.410 . S
C2439 C2441 1.444 . S
C2439 C2442 1.317 . S
C2439 H2462 0.929 . S
C2440 C2437 1.432 . S
C2440 C2438 1.417 . S
C2440 N2448 1.360 . S
C2441 C2437 1.414 . S
C2441 C2439 1.444 . S
C2441 C2446 1.385 . S
C2442 C2438 1.432 . S
C2442 C2439 1.317 . S
C2442 H2454 0.930 . S
C2443 C2445 1.392 . S
C2443 C2446 1.370 . S
C2443 H2455 0.931 . S
N2444 C2437 1.359 . S
N2444 C2445 1.327 . S
N2444 Tb2447 2.600 . S
C2445 C2443 1.392 . S
C2445 N2444 1.327 . S
C2445 H2452 0.930 . S
C2446 C2441 1.385 . S
C2446 C2443 1.370 . S
C2446 H2465 0.930 . S
Tb2447 N2444 2.600 . S
Tb2447 N2448 2.660 . S
Tb2447 O2481 2.362 . S
Tb2447 O2482 2.421 . S
Tb2447 O2486 2.546 . S
Tb2447 O2487 2.610 . S
Tb2447 O2489 2.320 . S
Tb2447 O2490 2.552 . S
Tb2447 O2491 2.413 . S
Tb2447 C2511 2.803 1_556 S
N2448 C2440 1.360 . S
N2448 Tb2447 2.660 . S
N2448 C2449 1.305 . S
C2449 N2448 1.305 . S
C2449 C2451 1.407 . S
C2449 H2456 0.930 . S
C2450 C2438 1.410 . S
C2450 C2451 1.345 . S
C2450 H2458 0.930 . S
C2451 C2449 1.407 . S
C2451 C2450 1.345 . S
C2451 H2453 0.930 . S
H2452 C2445 0.930 . S
H2453 C2451 0.930 . S
H2454 C2442 0.930 . S
H2455 C2443 0.931 . S
H2456 C2449 0.930 . S
H2457 C2471 0.930 . S
H2458 C2450 0.930 . S
H2459 C2477 0.930 . S
H2460 C2468 0.930 . S
H2461 C2475 0.931 . S
H2462 C2439 0.929 . S
H2463 C2469 0.930 . S
H2464 C2502 0.930 . S
H2465 C2446 0.930 . S
H2466 C2501 0.929 . S
N2467 Tb2436 2.660 . S
N2467 C2468 1.305 . S
N2467 C2472 1.360 . S
C2468 H2460 0.930 . S
C2468 N2467 1.305 . S
C2468 C2471 1.407 . S
C2469 H2463 0.930 . S
C2469 C2470 1.410 . S
C2469 C2471 1.345 . S
C2470 C2469 1.410 . S
C2470 C2472 1.417 . S
C2470 C2502 1.432 . S
C2471 H2457 0.930 . S
C2471 C2468 1.407 . S
C2471 C2469 1.345 . S
C2472 N2467 1.360 . S
C2472 C2470 1.417 . S
C2472 C2476 1.432 . S
H2473 C2478 0.930 . S
N2474 Tb2436 2.600 . S
N2474 C2476 1.359 . S
N2474 C2477 1.327 . S
C2475 H2461 0.931 . S
C2475 C2477 1.392 . S
C2475 C2478 1.370 . S
C2476 C2472 1.432 . S
C2476 N2474 1.359 . S
C2476 C2479 1.414 . S
C2477 H2459 0.930 . S
C2477 N2474 1.327 . S
C2477 C2475 1.392 . S
C2478 H2473 0.930 . S
C2478 C2475 1.370 . S
C2478 C2479 1.385 . S
C2479 C2476 1.414 . S
C2479 C2478 1.385 . S
C2479 C2501 1.444 . S
O2480 Tb2436 2.546 . S
O2480 C2500 1.251 . S
O2481 Tb2436 2.610 . S
O2481 Tb2447 2.362 . S
O2481 C2492 1.283 . S
O2482 Tb2447 2.421 . S
O2482 C2499 1.262 . S
O2483 Tb2436 2.320 . S
O2483 C2499 1.260 . S
O2484 Tb2436 2.552 . S
O2484 C2492 1.243 . S
O2485 Tb2436 2.413 . S
O2485 C2500 1.256 . S
O2486 Tb2447 2.546 . S
O2486 C2511 1.237 1_556 S
O2487 Tb2436 2.362 . S
O2487 Tb2447 2.610 . S
O2487 C2503 1.283 . S
O2488 Tb2436 2.421 . S
O2488 C2510 1.262 . S
O2489 Tb2447 2.320 . S
O2489 C2510 1.260 . S
O2490 Tb2447 2.552 . S
O2490 C2503 1.243 . S
O2491 Tb2447 2.413 . S
O2491 C2511 1.241 1_556 S
C2492 O2481 1.283 . S
C2492 O2484 1.243 . S
C2493 C2495 1.382 . S
C2493 C2497 1.393 . S
C2493 C2500 1.500 . S
C2494 C2495 1.400 . S
C2494 C2496 1.384 . S
C2495 C2493 1.382 . S
C2495 C2494 1.400 . S
C2495 H2512 0.930 . S
C2496 C2494 1.384 . S
C2496 C2498 1.392 . S
C2496 H2513 0.931 . S
C2497 C2493 1.393 . S
C2497 C2498 1.401 . S
C2497 H2514 0.930 . S
C2498 C2496 1.392 . S
C2498 C2497 1.401 . S
C2498 H2515 0.930 . S
C2499 O2482 1.262 . S
C2499 O2483 1.260 . S
C2500 Tb2436 2.833 . S
C2500 O2480 1.251 . S
C2500 O2485 1.256 . S
C2500 C2493 1.500 . S
C2501 H2466 0.929 . S
C2501 C2479 1.444 . S
C2501 C2502 1.317 . S
C2502 H2464 0.930 . S
C2502 C2470 1.432 . S
C2502 C2501 1.317 . S
C2503 O2487 1.283 . S
C2503 O2490 1.243 . S
C2504 C2505 1.382 . S
C2504 C2508 1.393 . S
C2504 C2511 1.531 . S
C2505 C2504 1.382 . S
C2505 C2506 1.400 . S
C2505 H2516 0.930 . S
C2506 C2505 1.400 . S
C2506 C2507 1.384 . S
C2507 C2506 1.384 . S
C2507 C2509 1.392 . S
C2507 H2517 0.931 . S
C2508 C2504 1.393 . S
C2508 C2509 1.401 . S
C2508 H2518 0.930 . S
C2509 C2507 1.392 . S
C2509 C2508 1.401 . S
C2509 H2519 0.930 . S
C2510 O2488 1.262 . S
C2510 O2489 1.260 . S
C2511 Tb2447 2.803 1_554 S
C2511 O2486 1.237 1_554 S
C2511 O2491 1.241 1_554 S
C2511 C2504 1.531 . S
H2512 C2495 0.930 . S
H2513 C2496 0.931 . S
H2514 C2497 0.930 . S
H2515 C2498 0.930 . S
H2516 C2505 0.930 . S
H2517 C2507 0.931 . S
H2518 C2508 0.930 . S
H2519 C2509 0.930 . S
Tb2520 N2551 2.660 . S
Tb2520 N2558 2.600 . S
Tb2520 O2564 2.546 . S
Tb2520 O2565 2.610 . S
Tb2520 O2567 2.320 . S
Tb2520 O2568 2.552 . S
Tb2520 O2569 2.413 . S
Tb2520 O2571 2.362 . S
Tb2520 O2572 2.421 . S
Tb2520 C2584 2.833 . S
C2521 C2524 1.432 . S
C2521 C2525 1.414 . S
C2521 N2528 1.359 . S
C2522 C2524 1.417 . S
C2522 C2526 1.432 1_455 S
C2522 C2534 1.410 . S
C2523 C2525 1.444 1_655 S
C2523 C2526 1.317 . S
C2523 H2546 0.929 . S
C2524 C2521 1.432 . S
C2524 C2522 1.417 . S
C2524 N2532 1.360 . S
C2525 C2521 1.414 . S
C2525 C2523 1.444 1_455 S
C2525 C2530 1.385 . S
C2526 C2522 1.432 1_655 S
C2526 C2523 1.317 . S
C2526 H2538 0.930 . S
C2527 C2529 1.392 . S
C2527 C2530 1.370 . S
C2527 H2539 0.931 . S
N2528 C2521 1.359 . S
N2528 C2529 1.327 . S
N2528 Tb2531 2.600 . S
C2529 C2527 1.392 . S
C2529 N2528 1.327 . S
C2529 H2536 0.930 . S
C2530 C2525 1.385 . S
C2530 C2527 1.370 . S
C2530 H2549 0.930 . S
Tb2531 N2528 2.600 . S
Tb2531 N2532 2.660 . S
Tb2531 O2565 2.362 . S
Tb2531 O2566 2.421 . S
Tb2531 O2570 2.546 . S
Tb2531 O2571 2.610 . S
Tb2531 O2573 2.320 . S
Tb2531 O2574 2.552 . S
Tb2531 O2575 2.413 . S
Tb2531 C2595 2.833 . S
N2532 C2524 1.360 . S
N2532 Tb2531 2.660 . S
N2532 C2533 1.305 . S
C2533 N2532 1.305 . S
C2533 C2535 1.407 . S
C2533 H2540 0.930 . S
C2534 C2522 1.410 . S
C2534 C2535 1.345 . S
C2534 H2542 0.930 1_455 S
C2535 C2533 1.407 . S
C2535 C2534 1.345 . S
C2535 H2537 0.930 . S
H2536 C2529 0.930 . S
H2537 C2535 0.930 . S
H2538 C2526 0.930 . S
H2539 C2527 0.931 . S
H2540 C2533 0.930 . S
H2541 C2555 0.930 . S
H2542 C2534 0.930 1_655 S
H2543 C2561 0.930 . S
H2544 C2552 0.930 . S
H2545 C2559 0.931 . S
H2546 C2523 0.929 . S
H2547 C2553 0.930 . S
H2548 C2586 0.930 . S
H2549 C2530 0.930 . S
H2550 C2585 0.929 . S
N2551 Tb2520 2.660 . S
N2551 C2552 1.305 . S
N2551 C2556 1.360 . S
C2552 H2544 0.930 . S
C2552 N2551 1.305 . S
C2552 C2555 1.407 . S
C2553 H2547 0.930 . S
C2553 C2554 1.410 . S
C2553 C2555 1.345 . S
C2554 C2553 1.410 . S
C2554 C2556 1.417 . S
C2554 C2586 1.432 . S
C2555 H2541 0.930 . S
C2555 C2552 1.407 . S
C2555 C2553 1.345 . S
C2556 N2551 1.360 . S
C2556 C2554 1.417 . S
C2556 C2560 1.432 . S
H2557 C2562 0.930 . S
N2558 Tb2520 2.600 . S
N2558 C2560 1.359 . S
N2558 C2561 1.327 . S
C2559 H2545 0.931 . S
C2559 C2561 1.392 . S
C2559 C2562 1.370 . S
C2560 C2556 1.432 . S
C2560 N2558 1.359 . S
C2560 C2563 1.414 . S
C2561 H2543 0.930 . S
C2561 N2558 1.327 . S
C2561 C2559 1.392 . S
C2562 H2557 0.930 . S
C2562 C2559 1.370 . S
C2562 C2563 1.385 . S
C2563 C2560 1.414 . S
C2563 C2562 1.385 . S
C2563 C2585 1.444 . S
O2564 Tb2520 2.546 . S
O2564 C2584 1.251 . S
O2565 Tb2520 2.610 . S
O2565 Tb2531 2.362 . S
O2565 C2576 1.283 . S
O2566 Tb2531 2.421 . S
O2566 C2583 1.262 . S
O2567 Tb2520 2.320 . S
O2567 C2583 1.260 . S
O2568 Tb2520 2.552 . S
O2568 C2576 1.243 . S
O2569 Tb2520 2.413 . S
O2569 C2584 1.256 . S
O2570 Tb2531 2.546 . S
O2570 C2595 1.251 . S
O2571 Tb2520 2.362 . S
O2571 Tb2531 2.610 . S
O2571 C2587 1.283 . S
O2572 Tb2520 2.421 . S
O2572 C2594 1.262 . S
O2573 Tb2531 2.320 . S
O2573 C2594 1.260 . S
O2574 Tb2531 2.552 . S
O2574 C2587 1.243 . S
O2575 Tb2531 2.413 . S
O2575 C2595 1.256 . S
C2576 O2565 1.283 . S
C2576 O2568 1.243 . S
C2577 C2579 1.382 . S
C2577 C2581 1.393 . S
C2577 C2584 1.500 . S
C2578 C2579 1.400 . S
C2578 C2580 1.384 . S
C2579 C2577 1.382 . S
C2579 C2578 1.400 . S
C2579 H2596 0.930 . S
C2580 C2578 1.384 . S
C2580 C2582 1.392 . S
C2580 H2597 0.931 . S
C2581 C2577 1.393 . S
C2581 C2582 1.401 . S
C2581 H2598 0.930 . S
C2582 C2580 1.392 . S
C2582 C2581 1.401 . S
C2582 H2599 0.930 . S
C2583 O2566 1.262 . S
C2583 O2567 1.260 . S
C2584 Tb2520 2.833 . S
C2584 O2564 1.251 . S
C2584 O2569 1.256 . S
C2584 C2577 1.500 . S
C2585 H2550 0.929 . S
C2585 C2563 1.444 . S
C2585 C2586 1.317 . S
C2586 H2548 0.930 . S
C2586 C2554 1.432 . S
C2586 C2585 1.317 . S
C2587 O2571 1.283 . S
C2587 O2574 1.243 . S
C2588 C2589 1.382 . S
C2588 C2592 1.393 . S
C2588 C2595 1.500 . S
C2589 C2588 1.382 . S
C2589 C2590 1.400 . S
C2589 H2600 0.930 . S
C2590 C2589 1.400 . S
C2590 C2591 1.384 . S
C2591 C2590 1.384 . S
C2591 C2593 1.392 . S
C2591 H2601 0.931 . S
C2592 C2588 1.393 . S
C2592 C2593 1.401 . S
C2592 H2602 0.930 . S
C2593 C2591 1.392 . S
C2593 C2592 1.401 . S
C2593 H2603 0.930 . S
C2594 O2572 1.262 . S
C2594 O2573 1.260 . S
C2595 Tb2531 2.833 . S
C2595 O2570 1.251 . S
C2595 O2575 1.256 . S
C2595 C2588 1.500 . S
H2596 C2579 0.930 . S
H2597 C2580 0.931 . S
H2598 C2581 0.930 . S
H2599 C2582 0.930 . S
H2600 C2589 0.930 . S
H2601 C2591 0.931 . S
H2602 C2592 0.930 . S
H2603 C2593 0.930 . S
Tb2604 N2635 2.660 . S
Tb2604 N2642 2.600 . S
Tb2604 O2648 2.546 . S
Tb2604 O2649 2.610 . S
Tb2604 O2651 2.320 . S
Tb2604 O2652 2.552 . S
Tb2604 O2653 2.413 . S
Tb2604 O2655 2.362 . S
Tb2604 O2656 2.421 . S
Tb2604 C2668 2.833 . S
C2605 C2608 1.432 . S
C2605 C2609 1.414 . S
C2605 N2612 1.359 . S
C2606 C2608 1.417 . S
C2606 C2610 1.432 . S
C2606 C2618 1.410 . S
C2607 C2609 1.444 . S
C2607 C2610 1.317 . S
C2607 H2630 0.929 . S
C2608 C2605 1.432 . S
C2608 C2606 1.417 . S
C2608 N2616 1.360 . S
C2609 C2605 1.414 . S
C2609 C2607 1.444 . S
C2609 C2614 1.385 . S
C2610 C2606 1.432 . S
C2610 C2607 1.317 . S
C2610 H2622 0.930 . S
C2611 C2613 1.392 . S
C2611 C2614 1.370 . S
C2611 H2623 0.931 . S
N2612 C2605 1.359 . S
N2612 C2613 1.327 . S
N2612 Tb2615 2.600 . S
C2613 C2611 1.392 . S
C2613 N2612 1.327 . S
C2613 H2620 0.930 . S
C2614 C2609 1.385 . S
C2614 C2611 1.370 . S
C2614 H2633 0.930 . S
Tb2615 N2612 2.600 . S
Tb2615 N2616 2.660 . S
Tb2615 O2649 2.362 . S
Tb2615 O2650 2.421 . S
Tb2615 O2654 2.546 . S
Tb2615 O2655 2.610 . S
Tb2615 O2657 2.320 . S
Tb2615 O2658 2.552 . S
Tb2615 O2659 2.413 . S
Tb2615 C2679 2.833 . S
N2616 C2608 1.360 . S
N2616 Tb2615 2.660 . S
N2616 C2617 1.305 . S
C2617 N2616 1.305 . S
C2617 C2619 1.407 . S
C2617 H2624 0.930 . S
C2618 C2606 1.410 . S
C2618 C2619 1.345 . S
C2618 H2626 0.930 . S
C2619 C2617 1.407 . S
C2619 C2618 1.345 . S
C2619 H2621 0.930 . S
H2620 C2613 0.930 . S
H2621 C2619 0.930 . S
H2622 C2610 0.930 . S
H2623 C2611 0.931 . S
H2624 C2617 0.930 . S
H2625 C2639 0.930 . S
H2626 C2618 0.930 . S
H2627 C2645 0.930 . S
H2628 C2636 0.930 . S
H2629 C2643 0.931 . S
H2630 C2607 0.929 . S
H2631 C2637 0.930 . S
H2632 C2670 0.930 . S
H2633 C2614 0.930 . S
H2634 C2669 0.929 . S
N2635 Tb2604 2.660 . S
N2635 C2636 1.305 . S
N2635 C2640 1.360 . S
C2636 H2628 0.930 . S
C2636 N2635 1.305 . S
C2636 C2639 1.407 . S
C2637 H2631 0.930 . S
C2637 C2638 1.410 . S
C2637 C2639 1.345 . S
C2638 C2637 1.410 . S
C2638 C2640 1.417 . S
C2638 C2670 1.432 . S
C2639 H2625 0.930 . S
C2639 C2636 1.407 . S
C2639 C2637 1.345 . S
C2640 N2635 1.360 . S
C2640 C2638 1.417 . S
C2640 C2644 1.432 . S
H2641 C2646 0.930 . S
N2642 Tb2604 2.600 . S
N2642 C2644 1.359 . S
N2642 C2645 1.327 . S
C2643 H2629 0.931 . S
C2643 C2645 1.392 . S
C2643 C2646 1.370 . S
C2644 C2640 1.432 . S
C2644 N2642 1.359 . S
C2644 C2647 1.414 . S
C2645 H2627 0.930 . S
C2645 N2642 1.327 . S
C2645 C2643 1.392 . S
C2646 H2641 0.930 . S
C2646 C2643 1.370 . S
C2646 C2647 1.385 . S
C2647 C2644 1.414 . S
C2647 C2646 1.385 . S
C2647 C2669 1.444 . S
O2648 Tb2604 2.546 . S
O2648 C2668 1.251 . S
O2649 Tb2604 2.610 . S
O2649 Tb2615 2.362 . S
O2649 C2660 1.283 . S
O2650 Tb2615 2.421 . S
O2650 C2667 1.262 . S
O2651 Tb2604 2.320 . S
O2651 C2667 1.260 . S
O2652 Tb2604 2.552 . S
O2652 C2660 1.243 . S
O2653 Tb2604 2.413 . S
O2653 C2668 1.256 . S
O2654 Tb2615 2.546 . S
O2654 C2679 1.251 . S
O2655 Tb2604 2.362 . S
O2655 Tb2615 2.610 . S
O2655 C2671 1.283 . S
O2656 Tb2604 2.421 . S
O2656 C2678 1.262 . S
O2657 Tb2615 2.320 . S
O2657 C2678 1.260 . S
O2658 Tb2615 2.552 . S
O2658 C2671 1.243 . S
O2659 Tb2615 2.413 . S
O2659 C2679 1.256 . S
C2660 O2649 1.283 . S
C2660 O2652 1.243 . S
C2661 C2663 1.382 . S
C2661 C2665 1.393 . S
C2661 C2668 1.500 . S
C2662 C2663 1.400 . S
C2662 C2664 1.384 . S
C2663 C2661 1.382 . S
C2663 C2662 1.400 . S
C2663 H2680 0.930 . S
C2664 C2662 1.384 . S
C2664 C2666 1.392 . S
C2664 H2681 0.931 . S
C2665 C2661 1.393 . S
C2665 C2666 1.401 . S
C2665 H2682 0.930 . S
C2666 C2664 1.392 . S
C2666 C2665 1.401 . S
C2666 H2683 0.930 . S
C2667 O2650 1.262 . S
C2667 O2651 1.260 . S
C2668 Tb2604 2.833 . S
C2668 O2648 1.251 . S
C2668 O2653 1.256 . S
C2668 C2661 1.500 . S
C2669 H2634 0.929 . S
C2669 C2647 1.444 . S
C2669 C2670 1.317 . S
C2670 H2632 0.930 . S
C2670 C2638 1.432 . S
C2670 C2669 1.317 . S
C2671 O2655 1.283 . S
C2671 O2658 1.243 . S
C2672 C2673 1.382 . S
C2672 C2676 1.393 . S
C2672 C2679 1.500 . S
C2673 C2672 1.382 . S
C2673 C2674 1.400 . S
C2673 H2684 0.930 . S
C2674 C2673 1.400 . S
C2674 C2675 1.384 . S
C2675 C2674 1.384 . S
C2675 C2677 1.392 . S
C2675 H2685 0.931 . S
C2676 C2672 1.393 . S
C2676 C2677 1.401 . S
C2676 H2686 0.930 . S
C2677 C2675 1.392 . S
C2677 C2676 1.401 . S
C2677 H2687 0.930 . S
C2678 O2656 1.262 . S
C2678 O2657 1.260 . S
C2679 Tb2615 2.833 . S
C2679 O2654 1.251 . S
C2679 O2659 1.256 . S
C2679 C2672 1.500 . S
H2680 C2663 0.930 . S
H2681 C2664 0.931 . S
H2682 C2665 0.930 . S
H2683 C2666 0.930 . S
H2684 C2673 0.930 . S
H2685 C2675 0.931 . S
H2686 C2676 0.930 . S
H2687 C2677 0.930 . S
C2688 C2689 1.391 . S
C2688 C2690 1.394 . S
C2688 H2704 0.931 . S
C2689 C2688 1.391 . S
C2689 C2693 1.376 . S
C2690 C2688 1.394 . S
C2690 C2691 1.369 . S
C2690 C2694 1.531 . S
C2691 C2690 1.369 . S
C2691 C2692 1.410 . S
C2691 C2699 1.503 . S
C2692 C2691 1.410 . S
C2692 C2693 1.392 . S
C2692 C2695 1.511 . S
C2693 C2689 1.376 . S
C2693 C2692 1.392 . S
C2693 H2705 0.929 . S
C2694 C2690 1.531 . S
C2694 H2706 0.960 . S
C2694 H2707 0.962 . S
C2694 H2708 0.960 . S
C2695 C2692 1.511 . S
C2695 H2709 0.961 . S
C2695 H2710 0.961 . S
C2695 H2711 0.961 . S
C2696 C2697 1.370 . S
C2696 C2698 1.363 . S
C2696 H2712 0.931 . S
C2697 C2696 1.370 . S
C2697 C2701 1.408 . S
C2698 C2696 1.363 . S
C2698 C2699 1.370 . S
C2698 C2702 1.524 . S
C2699 C2691 1.503 . S
C2699 C2698 1.370 . S
C2699 C2700 1.403 . S
C2700 C2699 1.403 . S
C2700 C2701 1.404 . S
C2700 C2703 1.539 . S
C2701 C2697 1.408 . S
C2701 C2700 1.404 . S
C2701 H2713 0.930 . S
C2702 C2698 1.524 . S
C2702 H2714 0.956 . S
C2702 H2715 0.961 . S
C2702 H2716 0.961 1_554 S
C2703 C2700 1.539 . S
C2703 H2717 0.958 . S
C2703 H2718 0.961 . S
C2703 H2719 0.960 . S
H2704 C2688 0.931 . S
H2705 C2693 0.929 . S
H2706 C2694 0.960 . S
H2707 C2694 0.962 . S
H2708 C2694 0.960 . S
H2709 C2695 0.961 . S
H2710 C2695 0.961 . S
H2711 C2695 0.961 . S
H2712 C2696 0.931 . S
H2713 C2701 0.930 . S
H2714 C2702 0.956 . S
H2715 C2702 0.961 . S
H2716 C2702 0.961 1_556 S
H2717 C2703 0.958 . S
H2718 C2703 0.961 . S
H2719 C2703 0.960 . S
C2720 C2721 1.391 . S
C2720 C2722 1.394 . S
C2720 H2736 0.931 . S
C2721 C2720 1.391 . S
C2721 C2725 1.376 . S
C2722 C2720 1.394 . S
C2722 C2723 1.369 . S
C2722 C2726 1.531 . S
C2723 C2722 1.369 . S
C2723 C2724 1.410 . S
C2723 C2731 1.503 . S
C2724 C2723 1.410 . S
C2724 C2725 1.392 . S
C2724 C2727 1.511 . S
C2725 C2721 1.376 . S
C2725 C2724 1.392 . S
C2725 H2737 0.929 . S
C2726 C2722 1.531 . S
C2726 H2738 0.960 . S
C2726 H2739 0.962 . S
C2726 H2740 0.960 . S
C2727 C2724 1.511 . S
C2727 H2741 0.961 . S
C2727 H2742 0.961 . S
C2727 H2743 0.961 . S
C2728 C2729 1.370 . S
C2728 C2730 1.363 . S
C2728 H2744 0.931 . S
C2729 C2728 1.370 . S
C2729 C2733 1.408 . S
C2730 C2728 1.363 . S
C2730 C2731 1.370 . S
C2730 C2734 1.524 . S
C2731 C2723 1.503 . S
C2731 C2730 1.370 . S
C2731 C2732 1.403 . S
C2732 C2731 1.403 . S
C2732 C2733 1.404 . S
C2732 C2735 1.539 . S
C2733 C2729 1.408 . S
C2733 C2732 1.404 . S
C2733 H2745 0.930 . S
C2734 C2730 1.524 . S
C2734 H2746 0.956 . S
C2734 H2747 0.961 . S
C2734 H2748 0.961 . S
C2735 C2732 1.539 . S
C2735 H2749 0.958 . S
C2735 H2750 0.961 . S
C2735 H2751 0.960 . S
H2736 C2720 0.931 . S
H2737 C2725 0.929 . S
H2738 C2726 0.960 . S
H2739 C2726 0.962 . S
H2740 C2726 0.960 . S
H2741 C2727 0.961 . S
H2742 C2727 0.961 . S
H2743 C2727 0.961 . S
H2744 C2728 0.931 . S
H2745 C2733 0.930 . S
H2746 C2734 0.956 . S
H2747 C2734 0.961 . S
H2748 C2734 0.961 . S
H2749 C2735 0.958 . S
H2750 C2735 0.961 . S
H2751 C2735 0.960 . S
C2752 C2753 1.391 . S
C2752 C2754 1.394 . S
C2752 H2768 0.931 . S
C2753 C2752 1.391 . S
C2753 C2757 1.376 . S
C2754 C2752 1.394 . S
C2754 C2755 1.369 . S
C2754 C2758 1.531 . S
C2755 C2754 1.369 . S
C2755 C2756 1.410 . S
C2755 C2763 1.503 . S
C2756 C2755 1.410 . S
C2756 C2757 1.392 . S
C2756 C2759 1.511 . S
C2757 C2753 1.376 . S
C2757 C2756 1.392 . S
C2757 H2769 0.929 . S
C2758 C2754 1.531 . S
C2758 H2770 0.960 . S
C2758 H2771 0.962 . S
C2758 H2772 0.960 . S
C2759 C2756 1.511 . S
C2759 H2773 0.961 . S
C2759 H2774 0.961 . S
C2759 H2775 0.961 . S
C2760 C2761 1.370 . S
C2760 C2762 1.363 . S
C2760 H2776 0.931 . S
C2761 C2760 1.370 . S
C2761 C2765 1.408 . S
C2762 C2760 1.363 . S
C2762 C2763 1.370 . S
C2762 C2766 1.524 . S
C2763 C2755 1.503 . S
C2763 C2762 1.370 . S
C2763 C2764 1.403 . S
C2764 C2763 1.403 . S
C2764 C2765 1.404 . S
C2764 C2767 1.539 . S
C2765 C2761 1.408 . S
C2765 C2764 1.404 . S
C2765 H2777 0.930 . S
C2766 C2762 1.524 . S
C2766 H2778 0.956 . S
C2766 H2779 0.961 . S
C2766 H2780 0.961 . S
C2767 C2764 1.539 . S
C2767 H2781 0.958 . S
C2767 H2782 0.961 . S
C2767 H2783 0.960 . S
H2768 C2752 0.931 . S
H2769 C2757 0.929 . S
H2770 C2758 0.960 . S
H2771 C2758 0.962 . S
H2772 C2758 0.960 . S
H2773 C2759 0.961 . S
H2774 C2759 0.961 . S
H2775 C2759 0.961 . S
H2776 C2760 0.931 . S
H2777 C2765 0.930 . S
H2778 C2766 0.956 . S
H2779 C2766 0.961 . S
H2780 C2766 0.961 . S
H2781 C2767 0.958 . S
H2782 C2767 0.961 . S
H2783 C2767 0.960 . S
C2784 C2785 1.391 . S
C2784 C2786 1.394 . S
C2784 H2800 0.931 . S
C2785 C2784 1.391 . S
C2785 C2789 1.376 . S
C2786 C2784 1.394 . S
C2786 C2787 1.369 . S
C2786 C2790 1.531 . S
C2787 C2786 1.369 . S
C2787 C2788 1.410 . S
C2787 C2795 1.503 . S
C2788 C2787 1.410 . S
C2788 C2789 1.392 . S
C2788 C2791 1.511 . S
C2789 C2785 1.376 . S
C2789 C2788 1.392 . S
C2789 H2801 0.929 . S
C2790 C2786 1.531 . S
C2790 H2802 0.960 . S
C2790 H2803 0.962 . S
C2790 H2804 0.960 . S
C2791 C2788 1.511 . S
C2791 H2805 0.961 . S
C2791 H2806 0.961 . S
C2791 H2807 0.961 . S
C2792 C2793 1.370 . S
C2792 C2794 1.363 . S
C2792 H2808 0.931 . S
C2793 C2792 1.370 . S
C2793 C2797 1.408 . S
C2794 C2792 1.363 . S
C2794 C2795 1.370 . S
C2794 C2798 1.524 . S
C2795 C2787 1.503 . S
C2795 C2794 1.370 . S
C2795 C2796 1.403 . S
C2796 C2795 1.403 . S
C2796 C2797 1.404 . S
C2796 C2799 1.539 . S
C2797 C2793 1.408 . S
C2797 C2796 1.404 . S
C2797 H2809 0.930 . S
C2798 C2794 1.524 . S
C2798 H2810 0.956 . S
C2798 H2811 0.961 . S
C2798 H2812 0.961 . S
C2799 C2796 1.539 . S
C2799 H2813 0.958 . S
C2799 H2814 0.961 . S
C2799 H2815 0.960 . S
H2800 C2784 0.931 . S
H2801 C2789 0.929 . S
H2802 C2790 0.960 . S
H2803 C2790 0.962 . S
H2804 C2790 0.960 . S
H2805 C2791 0.961 . S
H2806 C2791 0.961 . S
H2807 C2791 0.961 . S
H2808 C2792 0.931 . S
H2809 C2797 0.930 . S
H2810 C2798 0.956 . S
H2811 C2798 0.961 . S
H2812 C2798 0.961 . S
H2813 C2799 0.958 . S
H2814 C2799 0.961 . S
H2815 C2799 0.960 . S
C2816 C2817 1.391 . S
C2816 C2818 1.394 . S
C2816 H2832 0.931 . S
C2817 C2816 1.391 . S
C2817 C2821 1.376 . S
C2818 C2816 1.394 . S
C2818 C2819 1.369 . S
C2818 C2822 1.531 . S
C2819 C2818 1.369 . S
C2819 C2820 1.410 . S
C2819 C2827 1.503 . S
C2820 C2819 1.410 . S
C2820 C2821 1.392 . S
C2820 C2823 1.511 . S
C2821 C2817 1.376 . S
C2821 C2820 1.392 . S
C2821 H2833 0.929 . S
C2822 C2818 1.531 . S
C2822 H2834 0.960 . S
C2822 H2835 0.962 1_556 S
C2822 H2836 0.960 1_556 S
C2823 C2820 1.511 . S
C2823 H2837 0.961 . S
C2823 H2838 0.961 . S
C2823 H2839 0.961 . S
C2824 C2825 1.370 . S
C2824 C2826 1.363 . S
C2824 H2840 0.931 . S
C2825 C2824 1.370 . S
C2825 C2829 1.408 . S
C2826 C2824 1.363 . S
C2826 C2827 1.370 . S
C2826 C2830 1.524 . S
C2827 C2819 1.503 . S
C2827 C2826 1.370 . S
C2827 C2828 1.403 . S
C2828 C2827 1.403 . S
C2828 C2829 1.404 . S
C2828 C2831 1.539 . S
C2829 C2825 1.408 . S
C2829 C2828 1.404 . S
C2829 H2841 0.930 . S
C2830 C2826 1.524 . S
C2830 H2842 0.956 . S
C2830 H2843 0.961 . S
C2830 H2844 0.961 . S
C2831 C2828 1.539 . S
C2831 H2845 0.958 . S
C2831 H2846 0.961 . S
C2831 H2847 0.960 . S
H2832 C2816 0.931 . S
H2833 C2821 0.929 . S
H2834 C2822 0.960 . S
H2835 C2822 0.962 1_554 S
H2836 C2822 0.960 1_554 S
H2837 C2823 0.961 . S
H2838 C2823 0.961 . S
H2839 C2823 0.961 . S
H2840 C2824 0.931 . S
H2841 C2829 0.930 . S
H2842 C2830 0.956 . S
H2843 C2830 0.961 . S
H2844 C2830 0.961 . S
H2845 C2831 0.958 . S
H2846 C2831 0.961 . S
H2847 C2831 0.960 . S
C2848 C2849 1.391 . S
C2848 C2850 1.394 . S
C2848 H2864 0.931 . S
C2849 C2848 1.391 . S
C2849 C2853 1.376 . S
C2850 C2848 1.394 . S
C2850 C2851 1.369 . S
C2850 C2854 1.531 . S
C2851 C2850 1.369 . S
C2851 C2852 1.410 . S
C2851 C2859 1.503 . S
C2852 C2851 1.410 . S
C2852 C2853 1.392 . S
C2852 C2855 1.511 . S
C2853 C2849 1.376 . S
C2853 C2852 1.392 . S
C2853 H2865 0.929 . S
C2854 C2850 1.531 . S
C2854 H2866 0.960 . S
C2854 H2867 0.962 . S
C2854 H2868 0.960 . S
C2855 C2852 1.511 . S
C2855 H2869 0.961 . S
C2855 H2870 0.961 . S
C2855 H2871 0.961 . S
C2856 C2857 1.370 . S
C2856 C2858 1.363 . S
C2856 H2872 0.931 . S
C2857 C2856 1.370 . S
C2857 C2861 1.408 . S
C2858 C2856 1.363 . S
C2858 C2859 1.370 . S
C2858 C2862 1.524 . S
C2859 C2851 1.503 . S
C2859 C2858 1.370 . S
C2859 C2860 1.403 . S
C2860 C2859 1.403 . S
C2860 C2861 1.404 . S
C2860 C2863 1.560 . S
C2861 C2857 1.408 . S
C2861 C2860 1.404 . S
C2861 H2873 0.930 . S
C2862 C2858 1.524 . S
C2862 H2874 0.956 . S
C2862 H2875 0.961 . S
C2862 H2876 0.961 . S
C2863 C2860 1.560 . S
C2863 H2877 0.957 1_556 S
C2863 H2878 0.944 1_556 S
C2863 H2879 0.956 1_556 S
H2864 C2848 0.931 . S
H2865 C2853 0.929 . S
H2866 C2854 0.960 . S
H2867 C2854 0.962 . S
H2868 C2854 0.960 . S
H2869 C2855 0.961 . S
H2870 C2855 0.961 . S
H2871 C2855 0.961 . S
H2872 C2856 0.931 . S
H2873 C2861 0.930 . S
H2874 C2862 0.956 . S
H2875 C2862 0.961 . S
H2876 C2862 0.961 . S
H2877 C2863 0.957 1_554 S
H2878 C2863 0.944 1_554 S
H2879 C2863 0.956 1_554 S
C2880 C2881 1.391 . S
C2880 C2882 1.394 . S
C2880 H2896 0.931 . S
C2881 C2880 1.391 . S
C2881 C2885 1.376 . S
C2882 C2880 1.394 . S
C2882 C2883 1.369 . S
C2882 C2886 1.531 . S
C2883 C2882 1.369 . S
C2883 C2884 1.410 . S
C2883 C2891 1.503 . S
C2884 C2883 1.410 . S
C2884 C2885 1.392 . S
C2884 C2887 1.511 . S
C2885 C2881 1.376 . S
C2885 C2884 1.392 . S
C2885 H2897 0.929 . S
C2886 C2882 1.531 . S
C2886 H2898 0.960 . S
C2886 H2899 0.962 . S
C2886 H2900 0.960 . S
C2887 C2884 1.511 . S
C2887 H2901 0.961 . S
C2887 H2902 0.961 . S
C2887 H2903 0.961 . S
C2888 C2889 1.370 . S
C2888 C2890 1.363 . S
C2888 H2904 0.931 . S
C2889 C2888 1.370 . S
C2889 C2893 1.408 . S
C2890 C2888 1.363 . S
C2890 C2891 1.370 . S
C2890 C2894 1.524 . S
C2891 C2883 1.503 . S
C2891 C2890 1.370 . S
C2891 C2892 1.403 . S
C2892 C2891 1.403 . S
C2892 C2893 1.404 . S
C2892 C2895 1.539 . S
C2893 C2889 1.408 . S
C2893 C2892 1.404 . S
C2893 H2905 0.930 . S
C2894 C2890 1.524 . S
C2894 H2906 0.956 . S
C2894 H2907 0.961 . S
C2894 H2908 0.961 . S
C2895 C2892 1.539 . S
C2895 H2909 0.958 . S
C2895 H2910 0.961 . S
C2895 H2911 0.960 . S
H2896 C2880 0.931 . S
H2897 C2885 0.929 . S
H2898 C2886 0.960 . S
H2899 C2886 0.962 . S
H2900 C2886 0.960 . S
H2901 C2887 0.961 . S
H2902 C2887 0.961 . S
H2903 C2887 0.961 . S
H2904 C2888 0.931 . S
H2905 C2893 0.930 . S
H2906 C2894 0.956 . S
H2907 C2894 0.961 . S
H2908 C2894 0.961 . S
H2909 C2895 0.958 . S
H2910 C2895 0.961 . S
H2911 C2895 0.960 . S
C2912 C2913 1.391 . S
C2912 C2914 1.394 . S
C2912 H2928 0.931 . S
C2913 C2912 1.391 . S
C2913 C2917 1.376 . S
C2914 C2912 1.394 . S
C2914 C2915 1.369 . S
C2914 C2918 1.531 . S
C2915 C2914 1.369 . S
C2915 C2916 1.410 . S
C2915 C2923 1.503 . S
C2916 C2915 1.410 . S
C2916 C2917 1.392 . S
C2916 C2919 1.511 . S
C2917 C2913 1.376 . S
C2917 C2916 1.392 . S
C2917 H2929 0.929 . S
C2918 C2914 1.531 . S
C2918 H2930 0.960 . S
C2918 H2931 0.962 . S
C2918 H2932 0.960 . S
C2919 C2916 1.511 . S
C2919 H2933 0.961 . S
C2919 H2934 0.961 . S
C2919 H2935 0.961 . S
C2920 C2921 1.370 . S
C2920 C2922 1.363 . S
C2920 H2936 0.931 . S
C2921 C2920 1.370 . S
C2921 C2925 1.408 . S
C2922 C2920 1.363 . S
C2922 C2923 1.370 . S
C2922 C2926 1.524 . S
C2923 C2915 1.503 . S
C2923 C2922 1.370 . S
C2923 C2924 1.403 . S
C2924 C2923 1.403 . S
C2924 C2925 1.404 . S
C2924 C2927 1.539 . S
C2925 C2921 1.408 . S
C2925 C2924 1.404 . S
C2925 H2937 0.930 . S
C2926 C2922 1.524 . S
C2926 H2938 0.956 . S
C2926 H2939 0.961 . S
C2926 H2940 0.961 . S
C2927 C2924 1.539 . S
C2927 H2941 0.958 . S
C2927 H2942 0.961 . S
C2927 H2943 0.960 . S
H2928 C2912 0.931 . S
H2929 C2917 0.929 . S
H2930 C2918 0.960 . S
H2931 C2918 0.962 . S
H2932 C2918 0.960 . S
H2933 C2919 0.961 . S
H2934 C2919 0.961 . S
H2935 C2919 0.961 . S
H2936 C2920 0.931 . S
H2937 C2925 0.930 . S
H2938 C2926 0.956 . S
H2939 C2926 0.961 . S
H2940 C2926 0.961 . S
H2941 C2927 0.958 . S
H2942 C2927 0.961 . S
H2943 C2927 0.960 . S
C2944 C2945 1.391 . S
C2944 C2946 1.394 . S
C2944 H2960 0.931 . S
C2945 C2944 1.391 . S
C2945 C2949 1.376 . S
C2946 C2944 1.394 . S
C2946 C2947 1.369 . S
C2946 C2950 1.531 . S
C2947 C2946 1.369 . S
C2947 C2948 1.410 . S
C2947 C2955 1.503 . S
C2948 C2947 1.410 . S
C2948 C2949 1.392 . S
C2948 C2951 1.511 . S
C2949 C2945 1.376 . S
C2949 C2948 1.392 . S
C2949 H2961 0.929 . S
C2950 C2946 1.531 . S
C2950 H2962 0.960 . S
C2950 H2963 0.962 . S
C2950 H2964 0.960 . S
C2951 C2948 1.511 . S
C2951 H2965 0.961 . S
C2951 H2966 0.961 . S
C2951 H2967 0.961 . S
C2952 C2953 1.370 . S
C2952 C2954 1.363 . S
C2952 H2968 0.931 . S
C2953 C2952 1.370 . S
C2953 C2957 1.408 . S
C2954 C2952 1.363 . S
C2954 C2955 1.370 . S
C2954 C2958 1.524 . S
C2955 C2947 1.503 . S
C2955 C2954 1.370 . S
C2955 C2956 1.403 . S
C2956 C2955 1.403 . S
C2956 C2957 1.404 . S
C2956 C2959 1.539 . S
C2957 C2953 1.408 . S
C2957 C2956 1.404 . S
C2957 H2969 0.930 . S
C2958 C2954 1.524 . S
C2958 H2970 0.956 . S
C2958 H2971 0.961 . S
C2958 H2972 0.961 . S
C2959 C2956 1.539 . S
C2959 H2973 0.958 . S
C2959 H2974 0.961 . S
C2959 H2975 0.960 . S
H2960 C2944 0.931 . S
H2961 C2949 0.929 . S
H2962 C2950 0.960 . S
H2963 C2950 0.962 . S
H2964 C2950 0.960 . S
H2965 C2951 0.961 . S
H2966 C2951 0.961 . S
H2967 C2951 0.961 . S
H2968 C2952 0.931 . S
H2969 C2957 0.930 . S
H2970 C2958 0.956 . S
H2971 C2958 0.961 . S
H2972 C2958 0.961 . S
H2973 C2959 0.958 . S
H2974 C2959 0.961 . S
H2975 C2959 0.960 . S
C2976 C2977 1.391 . S
C2976 C2978 1.394 . S
C2976 H2992 0.931 . S
C2977 C2976 1.391 . S
C2977 C2981 1.376 . S
C2978 C2976 1.394 . S
C2978 C2979 1.369 . S
C2978 C2982 1.531 . S
C2979 C2978 1.369 . S
C2979 C2980 1.410 . S
C2979 C2987 1.503 . S
C2980 C2979 1.410 . S
C2980 C2981 1.392 . S
C2980 C2983 1.511 . S
C2981 C2977 1.376 . S
C2981 C2980 1.392 . S
C2981 H2993 0.929 . S
C2982 C2978 1.531 . S
C2982 H2994 0.960 . S
C2982 H2995 0.962 . S
C2982 H2996 0.960 . S
C2983 C2980 1.511 . S
C2983 H2997 0.961 . S
C2983 H2998 0.961 . S
C2983 H2999 0.961 . S
C2984 C2985 1.370 . S
C2984 C2986 1.363 . S
C2984 H3000 0.931 . S
C2985 C2984 1.370 . S
C2985 C2989 1.408 . S
C2986 C2984 1.363 . S
C2986 C2987 1.370 . S
C2986 C2990 1.524 . S
C2987 C2979 1.503 . S
C2987 C2986 1.370 . S
C2987 C2988 1.403 . S
C2988 C2987 1.403 . S
C2988 C2989 1.404 . S
C2988 C2991 1.539 . S
C2989 C2985 1.408 . S
C2989 C2988 1.404 . S
C2989 H3001 0.930 . S
C2990 C2986 1.524 . S
C2990 H3002 0.956 . S
C2990 H3003 0.961 . S
C2990 H3004 0.961 . S
C2991 C2988 1.539 . S
C2991 H3005 0.958 . S
C2991 H3006 0.961 . S
C2991 H3007 0.960 . S
H2992 C2976 0.931 . S
H2993 C2981 0.929 . S
H2994 C2982 0.960 . S
H2995 C2982 0.962 . S
H2996 C2982 0.960 . S
H2997 C2983 0.961 . S
H2998 C2983 0.961 . S
H2999 C2983 0.961 . S
H3000 C2984 0.931 . S
H3001 C2989 0.930 . S
H3002 C2990 0.956 . S
H3003 C2990 0.961 . S
H3004 C2990 0.961 . S
H3005 C2991 0.958 . S
H3006 C2991 0.961 . S
H3007 C2991 0.960 . S
C3008 C3009 1.391 . S
C3008 C3010 1.394 . S
C3008 H3024 0.931 . S
C3009 C3008 1.391 . S
C3009 C3013 1.376 . S
C3010 C3008 1.394 . S
C3010 C3011 1.369 . S
C3010 C3014 1.531 . S
C3011 C3010 1.369 . S
C3011 C3012 1.410 . S
C3011 C3019 1.503 . S
C3012 C3011 1.410 . S
C3012 C3013 1.392 . S
C3012 C3015 1.511 . S
C3013 C3009 1.376 . S
C3013 C3012 1.392 . S
C3013 H3025 0.929 . S
C3014 C3010 1.531 . S
C3014 H3026 0.960 . S
C3014 H3027 0.962 . S
C3014 H3028 0.960 . S
C3015 C3012 1.511 . S
C3015 H3029 0.961 . S
C3015 H3030 0.961 . S
C3015 H3031 0.961 . S
C3016 C3017 1.370 . S
C3016 C3018 1.363 . S
C3016 H3032 0.931 . S
C3017 C3016 1.370 . S
C3017 C3021 1.408 . S
C3018 C3016 1.363 . S
C3018 C3019 1.370 . S
C3018 C3022 1.524 . S
C3019 C3011 1.503 . S
C3019 C3018 1.370 . S
C3019 C3020 1.403 . S
C3020 C3019 1.403 . S
C3020 C3021 1.404 . S
C3020 C3023 1.539 . S
C3021 C3017 1.408 . S
C3021 C3020 1.404 . S
C3021 H3033 0.930 . S
C3022 C3018 1.524 . S
C3022 H3034 0.956 . S
C3022 H3035 0.961 . S
C3022 H3036 0.961 . S
C3023 C3020 1.539 . S
C3023 H3037 0.958 . S
C3023 H3038 0.961 . S
C3023 H3039 0.960 . S
H3024 C3008 0.931 . S
H3025 C3013 0.929 . S
H3026 C3014 0.960 . S
H3027 C3014 0.962 . S
H3028 C3014 0.960 . S
H3029 C3015 0.961 . S
H3030 C3015 0.961 . S
H3031 C3015 0.961 . S
H3032 C3016 0.931 . S
H3033 C3021 0.930 . S
H3034 C3022 0.956 . S
H3035 C3022 0.961 . S
H3036 C3022 0.961 . S
H3037 C3023 0.958 . S
H3038 C3023 0.961 . S
H3039 C3023 0.960 . S
C3040 C3041 1.391 . S
C3040 C3042 1.394 . S
C3040 H3056 0.931 . S
C3041 C3040 1.391 . S
C3041 C3045 1.376 . S
C3042 C3040 1.394 . S
C3042 C3043 1.369 . S
C3042 C3046 1.531 . S
C3043 C3042 1.369 . S
C3043 C3044 1.410 . S
C3043 C3051 1.503 . S
C3044 C3043 1.410 . S
C3044 C3045 1.392 . S
C3044 C3047 1.511 . S
C3045 C3041 1.376 . S
C3045 C3044 1.392 . S
C3045 H3057 0.929 . S
C3046 C3042 1.531 . S
C3046 H3058 0.960 . S
C3046 H3059 0.962 . S
C3046 H3060 0.960 . S
C3047 C3044 1.511 . S
C3047 H3061 0.961 . S
C3047 H3062 0.961 . S
C3047 H3063 0.961 . S
C3048 C3049 1.370 . S
C3048 C3050 1.363 . S
C3048 H3064 0.931 . S
C3049 C3048 1.370 . S
C3049 C3053 1.408 . S
C3050 C3048 1.363 . S
C3050 C3051 1.370 . S
C3050 C3054 1.524 . S
C3051 C3043 1.503 . S
C3051 C3050 1.370 . S
C3051 C3052 1.403 . S
C3052 C3051 1.403 . S
C3052 C3053 1.404 . S
C3052 C3055 1.539 . S
C3053 C3049 1.408 . S
C3053 C3052 1.404 . S
C3053 H3065 0.930 . S
C3054 C3050 1.524 . S
C3054 H3066 0.956 . S
C3054 H3067 0.961 . S
C3054 H3068 0.961 . S
C3055 C3052 1.539 . S
C3055 H3069 0.958 . S
C3055 H3070 0.961 . S
C3055 H3071 0.960 . S
H3056 C3040 0.931 . S
H3057 C3045 0.929 . S
H3058 C3046 0.960 . S
H3059 C3046 0.962 . S
H3060 C3046 0.960 . S
H3061 C3047 0.961 . S
H3062 C3047 0.961 . S
H3063 C3047 0.961 . S
H3064 C3048 0.931 . S
H3065 C3053 0.930 . S
H3066 C3054 0.956 . S
H3067 C3054 0.961 . S
H3068 C3054 0.961 . S
H3069 C3055 0.958 . S
H3070 C3055 0.961 . S
H3071 C3055 0.960 . S
C3072 C3073 1.391 . S
C3072 C3074 1.394 . S
C3072 H3088 0.931 . S
C3073 C3072 1.391 . S
C3073 C3077 1.376 . S
C3074 C3072 1.394 . S
C3074 C3075 1.369 . S
C3074 C3078 1.531 . S
C3075 C3074 1.369 . S
C3075 C3076 1.410 . S
C3075 C3083 1.503 . S
C3076 C3075 1.410 . S
C3076 C3077 1.392 . S
C3076 C3079 1.511 . S
C3077 C3073 1.376 . S
C3077 C3076 1.392 . S
C3077 H3089 0.929 . S
C3078 C3074 1.531 . S
C3078 H3090 0.960 . S
C3078 H3091 0.962 . S
C3078 H3092 0.960 . S
C3079 C3076 1.511 . S
C3079 H3093 0.961 . S
C3079 H3094 0.961 . S
C3079 H3095 0.961 . S
C3080 C3081 1.370 . S
C3080 C3082 1.363 . S
C3080 H3096 0.931 . S
C3081 C3080 1.370 . S
C3081 C3085 1.408 . S
C3082 C3080 1.363 . S
C3082 C3083 1.370 . S
C3082 C3086 1.524 . S
C3083 C3075 1.503 . S
C3083 C3082 1.370 . S
C3083 C3084 1.403 . S
C3084 C3083 1.403 . S
C3084 C3085 1.404 . S
C3084 C3087 1.539 . S
C3085 C3081 1.408 . S
C3085 C3084 1.404 . S
C3085 H3097 0.930 . S
C3086 C3082 1.524 . S
C3086 H3098 0.956 . S
C3086 H3099 0.961 . S
C3086 H3100 0.961 . S
C3087 C3084 1.539 . S
C3087 H3101 0.958 . S
C3087 H3102 0.961 . S
C3087 H3103 0.960 . S
H3088 C3072 0.931 . S
H3089 C3077 0.929 . S
H3090 C3078 0.960 . S
H3091 C3078 0.962 . S
H3092 C3078 0.960 . S
H3093 C3079 0.961 . S
H3094 C3079 0.961 . S
H3095 C3079 0.961 . S
H3096 C3080 0.931 . S
H3097 C3085 0.930 . S
H3098 C3086 0.956 . S
H3099 C3086 0.961 . S
H3100 C3086 0.961 . S
H3101 C3087 0.958 . S
H3102 C3087 0.961 . S
H3103 C3087 0.960 . S
C3104 C3105 1.391 . S
C3104 C3106 1.394 . S
C3104 H3120 0.931 . S
C3105 C3104 1.391 . S
C3105 C3109 1.376 . S
C3106 C3104 1.394 . S
C3106 C3107 1.369 . S
C3106 C3110 1.531 . S
C3107 C3106 1.369 . S
C3107 C3108 1.410 . S
C3107 C3115 1.503 . S
C3108 C3107 1.410 . S
C3108 C3109 1.392 . S
C3108 C3111 1.511 . S
C3109 C3105 1.376 . S
C3109 C3108 1.392 . S
C3109 H3121 0.929 . S
C3110 C3106 1.531 . S
C3110 H3122 0.960 . S
C3110 H3123 0.962 . S
C3110 H3124 0.960 . S
C3111 C3108 1.511 . S
C3111 H3125 0.961 . S
C3111 H3126 0.961 . S
C3111 H3127 0.961 . S
C3112 C3113 1.370 . S
C3112 C3114 1.363 . S
C3112 H3128 0.931 . S
C3113 C3112 1.370 . S
C3113 C3117 1.408 . S
C3114 C3112 1.363 . S
C3114 C3115 1.370 . S
C3114 C3118 1.524 . S
C3115 C3107 1.503 . S
C3115 C3114 1.370 . S
C3115 C3116 1.403 . S
C3116 C3115 1.403 . S
C3116 C3117 1.404 . S
C3116 C3119 1.539 . S
C3117 C3113 1.408 . S
C3117 C3116 1.404 . S
C3117 H3129 0.930 . S
C3118 C3114 1.524 . S
C3118 H3130 0.956 . S
C3118 H3131 0.961 . S
C3118 H3132 0.961 . S
C3119 C3116 1.539 . S
C3119 H3133 0.958 . S
C3119 H3134 0.961 . S
C3119 H3135 0.960 . S
H3120 C3104 0.931 . S
H3121 C3109 0.929 . S
H3122 C3110 0.960 . S
H3123 C3110 0.962 . S
H3124 C3110 0.960 . S
H3125 C3111 0.961 . S
H3126 C3111 0.961 . S
H3127 C3111 0.961 . S
H3128 C3112 0.931 . S
H3129 C3117 0.930 . S
H3130 C3118 0.956 . S
H3131 C3118 0.961 . S
H3132 C3118 0.961 . S
H3133 C3119 0.958 . S
H3134 C3119 0.961 . S
H3135 C3119 0.960 . S
C3136 C3137 1.391 . S
C3136 C3138 1.394 . S
C3136 H3152 0.931 . S
C3137 C3136 1.391 . S
C3137 C3141 1.376 . S
C3138 C3136 1.394 . S
C3138 C3139 1.369 . S
C3138 C3142 1.531 . S
C3139 C3138 1.369 . S
C3139 C3140 1.410 . S
C3139 C3147 1.503 . S
C3140 C3139 1.410 . S
C3140 C3141 1.392 . S
C3140 C3143 1.511 . S
C3141 C3137 1.376 . S
C3141 C3140 1.392 . S
C3141 H3153 0.929 . S
C3142 C3138 1.531 . S
C3142 H3154 0.960 . S
C3142 H3155 0.962 . S
C3142 H3156 0.960 . S
C3143 C3140 1.511 . S
C3143 H3157 0.961 . S
C3143 H3158 0.961 . S
C3143 H3159 0.961 . S
C3144 C3145 1.370 . S
C3144 C3146 1.363 . S
C3144 H3160 0.931 . S
C3145 C3144 1.370 . S
C3145 C3149 1.408 . S
C3146 C3144 1.363 . S
C3146 C3147 1.370 . S
C3146 C3150 1.524 . S
C3147 C3139 1.503 . S
C3147 C3146 1.370 . S
C3147 C3148 1.403 . S
C3148 C3147 1.403 . S
C3148 C3149 1.404 . S
C3148 C3151 1.539 . S
C3149 C3145 1.408 . S
C3149 C3148 1.404 . S
C3149 H3161 0.930 . S
C3150 C3146 1.524 . S
C3150 H3162 0.956 . S
C3150 H3163 0.961 . S
C3150 H3164 0.961 . S
C3151 C3148 1.539 . S
C3151 H3165 0.958 . S
C3151 H3166 0.961 . S
C3151 H3167 0.960 . S
H3152 C3136 0.931 . S
H3153 C3141 0.929 . S
H3154 C3142 0.960 . S
H3155 C3142 0.962 . S
H3156 C3142 0.960 . S
H3157 C3143 0.961 . S
H3158 C3143 0.961 . S
H3159 C3143 0.961 . S
H3160 C3144 0.931 . S
H3161 C3149 0.930 . S
H3162 C3150 0.956 . S
H3163 C3150 0.961 . S
H3164 C3150 0.961 . S
H3165 C3151 0.958 . S
H3166 C3151 0.961 . S
H3167 C3151 0.960 . S
C3168 C3169 1.391 . S
C3168 C3170 1.394 . S
C3168 H3184 0.931 . S
C3169 C3168 1.391 . S
C3169 C3173 1.376 . S
C3170 C3168 1.394 . S
C3170 C3171 1.369 . S
C3170 C3174 1.531 . S
C3171 C3170 1.369 . S
C3171 C3172 1.410 . S
C3171 C3179 1.503 . S
C3172 C3171 1.410 . S
C3172 C3173 1.392 . S
C3172 C3175 1.511 . S
C3173 C3169 1.376 . S
C3173 C3172 1.392 . S
C3173 H3185 0.929 . S
C3174 C3170 1.531 . S
C3174 H3186 0.960 . S
C3174 H3187 0.962 . S
C3174 H3188 0.960 . S
C3175 C3172 1.511 . S
C3175 H3189 0.961 . S
C3175 H3190 0.961 . S
C3175 H3191 0.961 . S
C3176 C3177 1.370 . S
C3176 C3178 1.363 . S
C3176 H3192 0.931 . S
C3177 C3176 1.370 . S
C3177 C3181 1.408 . S
C3178 C3176 1.363 . S
C3178 C3179 1.370 . S
C3178 C3182 1.524 . S
C3179 C3171 1.503 . S
C3179 C3178 1.370 . S
C3179 C3180 1.403 . S
C3180 C3179 1.403 . S
C3180 C3181 1.404 . S
C3180 C3183 1.539 . S
C3181 C3177 1.408 . S
C3181 C3180 1.404 . S
C3181 H3193 0.930 . S
C3182 C3178 1.524 . S
C3182 H3194 0.956 . S
C3182 H3195 0.961 . S
C3182 H3196 0.961 . S
C3183 C3180 1.539 . S
C3183 H3197 0.958 . S
C3183 H3198 0.961 . S
C3183 H3199 0.960 . S
H3184 C3168 0.931 . S
H3185 C3173 0.929 . S
H3186 C3174 0.960 . S
H3187 C3174 0.962 . S
H3188 C3174 0.960 . S
H3189 C3175 0.961 . S
H3190 C3175 0.961 . S
H3191 C3175 0.961 . S
H3192 C3176 0.931 . S
H3193 C3181 0.930 . S
H3194 C3182 0.956 . S
H3195 C3182 0.961 . S
H3196 C3182 0.961 . S
H3197 C3183 0.958 . S
H3198 C3183 0.961 . S
H3199 C3183 0.960 . S
C3200 C3201 1.391 1_565 S
C3200 C3202 1.394 . S
C3200 H3216 0.931 . S
C3201 C3200 1.391 1_545 S
C3201 C3205 1.376 . S
C3202 C3200 1.394 . S
C3202 C3203 1.369 . S
C3202 C3206 1.531 . S
C3203 C3202 1.369 . S
C3203 C3204 1.410 1_565 S
C3203 C3211 1.503 . S
C3204 C3203 1.410 1_545 S
C3204 C3205 1.392 . S
C3204 C3207 1.511 . S
C3205 C3201 1.376 . S
C3205 C3204 1.392 . S
C3205 H3217 0.929 . S
C3206 C3202 1.531 . S
C3206 H3218 0.960 . S
C3206 H3219 0.962 . S
C3206 H3220 0.960 . S
C3207 C3204 1.511 . S
C3207 H3221 0.961 . S
C3207 H3222 0.961 . S
C3207 H3223 0.961 . S
C3208 C3209 1.370 1_545 S
C3208 C3210 1.363 . S
C3208 H3224 0.931 . S
C3209 C3208 1.370 1_565 S
C3209 C3213 1.408 . S
C3210 C3208 1.363 . S
C3210 C3211 1.370 1_545 S
C3210 C3214 1.524 . S
C3211 C3203 1.503 . S
C3211 C3210 1.370 1_565 S
C3211 C3212 1.403 . S
C3212 C3211 1.403 . S
C3212 C3213 1.404 . S
C3212 C3215 1.539 . S
C3213 C3209 1.408 . S
C3213 C3212 1.404 . S
C3213 H3225 0.930 . S
C3214 C3210 1.524 . S
C3214 H3226 0.956 . S
C3214 H3227 0.961 . S
C3214 H3228 0.961 . S
C3215 C3212 1.539 . S
C3215 H3229 0.958 . S
C3215 H3230 0.961 . S
C3215 H3231 0.960 . S
H3216 C3200 0.931 . S
H3217 C3205 0.929 . S
H3218 C3206 0.960 . S
H3219 C3206 0.962 . S
H3220 C3206 0.960 . S
H3221 C3207 0.961 . S
H3222 C3207 0.961 . S
H3223 C3207 0.961 . S
H3224 C3208 0.931 . S
H3225 C3213 0.930 . S
H3226 C3214 0.956 . S
H3227 C3214 0.961 . S
H3228 C3214 0.961 . S
H3229 C3215 0.958 . S
H3230 C3215 0.961 . S
H3231 C3215 0.960 . S
C3232 C3233 1.380 1_455 S
C3232 C3234 1.394 . S
C3232 H3248 0.931 . S
C3233 C3232 1.380 1_655 S
C3233 C3237 1.389 . S
C3234 C3232 1.394 . S
C3234 C3235 1.369 1_455 S
C3234 C3238 1.531 . S
C3235 C3234 1.369 1_655 S
C3235 C3236 1.410 . S
C3235 C3243 1.503 . S
C3236 C3235 1.410 . S
C3236 C3237 1.392 . S
C3236 C3239 1.511 . S
C3237 C3233 1.389 . S
C3237 C3236 1.392 . S
C3237 H3249 0.929 . S
C3238 C3234 1.531 . S
C3238 H3250 0.960 . S
C3238 H3251 0.962 . S
C3238 H3252 0.960 . S
C3239 C3236 1.511 . S
C3239 H3253 0.961 . S
C3239 H3254 0.961 . S
C3239 H3255 0.961 . S
C3240 C3241 1.370 1_455 S
C3240 C3242 1.363 . S
C3240 H3256 0.931 . S
C3241 C3240 1.370 1_655 S
C3241 C3245 1.408 . S
C3242 C3240 1.363 . S
C3242 C3243 1.370 1_455 S
C3242 C3246 1.524 . S
C3243 C3235 1.503 . S
C3243 C3242 1.370 1_655 S
C3243 C3244 1.403 . S
C3244 C3243 1.403 . S
C3244 C3245 1.404 . S
C3244 C3247 1.539 . S
C3245 C3241 1.408 . S
C3245 C3244 1.404 . S
C3245 H3257 0.930 . S
C3246 C3242 1.524 . S
C3246 H3258 0.956 . S
C3246 H3259 0.961 . S
C3246 H3260 0.961 . S
C3247 C3244 1.539 . S
C3247 H3261 0.958 . S
C3247 H3262 0.961 . S
C3247 H3263 0.960 . S
H3248 C3232 0.931 . S
H3249 C3237 0.929 . S
H3250 C3238 0.960 . S
H3251 C3238 0.962 . S
H3252 C3238 0.960 . S
H3253 C3239 0.961 . S
H3254 C3239 0.961 . S
H3255 C3239 0.961 . S
H3256 C3240 0.931 . S
H3257 C3245 0.930 . S
H3258 C3246 0.956 . S
H3259 C3246 0.961 . S
H3260 C3246 0.961 . S
H3261 C3247 0.958 . S
H3262 C3247 0.961 . S
H3263 C3247 0.960 . S
C3264 C3265 1.391 . S
C3264 C3266 1.394 . S
C3264 H3280 0.931 . S
C3265 C3264 1.391 . S
C3265 C3269 1.376 . S
C3266 C3264 1.394 . S
C3266 C3267 1.369 . S
C3266 C3270 1.531 . S
C3267 C3266 1.369 . S
C3267 C3268 1.410 . S
C3267 C3275 1.503 1_556 S
C3268 C3267 1.410 . S
C3268 C3269 1.392 . S
C3268 C3271 1.511 . S
C3269 C3265 1.376 . S
C3269 C3268 1.392 . S
C3269 H3281 0.929 . S
C3270 C3266 1.531 . S
C3270 H3282 0.960 1_556 S
C3270 H3283 0.962 . S
C3270 H3284 0.960 . S
C3271 C3268 1.511 . S
C3271 H3285 0.961 . S
C3271 H3286 0.967 . S
C3271 H3287 0.961 . S
C3272 C3273 1.370 . S
C3272 C3274 1.363 . S
C3272 H3288 0.931 . S
C3273 C3272 1.370 . S
C3273 C3277 1.408 . S
C3274 C3272 1.363 . S
C3274 C3275 1.370 . S
C3274 C3278 1.524 . S
C3275 C3267 1.503 1_554 S
C3275 C3274 1.370 . S
C3275 C3276 1.403 . S
C3276 C3275 1.403 . S
C3276 C3277 1.404 . S
C3276 C3279 1.539 . S
C3277 C3273 1.408 . S
C3277 C3276 1.404 . S
C3277 H3289 0.930 . S
C3278 C3274 1.524 . S
C3278 H3290 0.956 1_554 S
C3278 H3291 0.961 1_554 S
C3278 H3292 0.961 . S
C3279 C3276 1.539 . S
C3279 H3293 0.958 . S
C3279 H3294 0.961 . S
C3279 H3295 0.960 . S
H3280 C3264 0.931 . S
H3281 C3269 0.929 . S
H3282 C3270 0.960 1_554 S
H3283 C3270 0.962 . S
H3284 C3270 0.960 . S
H3285 C3271 0.961 . S
H3286 C3271 0.967 . S
H3287 C3271 0.961 . S
H3288 C3272 0.931 . S
H3289 C3277 0.930 . S
H3290 C3278 0.956 1_556 S
H3291 C3278 0.961 1_556 S
H3292 C3278 0.961 . S
H3293 C3279 0.958 . S
H3294 C3279 0.961 . S
H3295 C3279 0.960 . S
C3296 C3297 1.378 1_465 S
C3296 C3298 1.401 . S
C3296 H3312 0.937 . S
C3297 C3296 1.378 1_645 S
C3297 C3301 1.376 . S
C3298 C3296 1.401 . S
C3298 C3299 1.369 1_455 S
C3298 C3302 1.531 . S
C3299 C3298 1.369 1_655 S
C3299 C3300 1.410 1_565 S
C3299 C3307 1.503 1_554 S
C3300 C3299 1.410 1_545 S
C3300 C3301 1.392 . S
C3300 C3303 1.511 . S
C3301 C3297 1.376 . S
C3301 C3300 1.392 . S
C3301 H3313 0.929 . S
C3302 C3298 1.531 . S
C3302 H3314 0.960 . S
C3302 H3315 0.962 . S
C3302 H3316 0.960 . S
C3303 C3300 1.511 . S
C3303 H3317 0.961 . S
C3303 H3318 0.961 1_554 S
C3303 H3319 0.961 1_545 S
C3304 C3305 1.370 1_545 S
C3304 C3306 1.363 . S
C3304 H3320 0.931 . S
C3305 C3304 1.370 1_565 S
C3305 C3309 1.408 1_455 S
C3306 C3304 1.363 . S
C3306 C3307 1.370 1_445 S
C3306 C3310 1.524 . S
C3307 C3299 1.503 1_556 S
C3307 C3306 1.370 1_665 S
C3307 C3308 1.403 . S
C3308 C3307 1.403 . S
C3308 C3309 1.404 . S
C3308 C3311 1.539 . S
C3309 C3305 1.408 1_655 S
C3309 C3308 1.404 . S
C3309 H3321 0.930 . S
C3310 C3306 1.524 . S
C3310 H3322 0.956 . S
C3310 H3323 0.961 . S
C3310 H3324 0.961 . S
C3311 C3308 1.539 . S
C3311 H3325 0.958 . S
C3311 H3326 0.961 . S
C3311 H3327 0.960 1_556 S
H3312 C3296 0.937 . S
H3313 C3301 0.929 . S
H3314 C3302 0.960 . S
H3315 C3302 0.962 . S
H3316 C3302 0.960 . S
H3317 C3303 0.961 . S
H3318 C3303 0.961 1_556 S
H3319 C3303 0.961 1_565 S
H3320 C3304 0.931 . S
H3321 C3309 0.930 . S
H3322 C3310 0.956 . S
H3323 C3310 0.961 . S
H3324 C3310 0.961 . S
H3325 C3311 0.958 . S
H3326 C3311 0.961 . S
H3327 C3311 0.960 1_554 S
C3328 C3329 1.391 1_545 S
C3328 C3330 1.394 . S
C3328 H3344 0.931 . S
C3329 C3328 1.391 1_565 S
C3329 C3333 1.376 . S
C3330 C3328 1.394 . S
C3330 C3331 1.380 . S
C3330 C3334 1.531 . S
C3331 C3330 1.380 . S
C3331 C3332 1.394 1_545 S
C3331 C3339 1.506 . S
C3332 C3331 1.394 1_565 S
C3332 C3333 1.392 . S
C3332 C3335 1.511 . S
C3333 C3329 1.376 . S
C3333 C3332 1.392 . S
C3333 H3345 0.929 . S
C3334 C3330 1.531 . S
C3334 H3346 0.960 . S
C3334 H3347 0.962 . S
C3334 H3348 0.960 . S
C3335 C3332 1.511 . S
C3335 H3349 0.961 . S
C3335 H3350 0.961 . S
C3335 H3351 0.961 . S
C3336 C3337 1.372 1_565 S
C3336 C3338 1.362 . S
C3336 H3352 0.929 . S
C3337 C3336 1.372 1_545 S
C3337 C3341 1.408 . S
C3338 C3336 1.362 . S
C3338 C3339 1.370 1_565 S
C3338 C3342 1.524 . S
C3339 C3331 1.506 . S
C3339 C3338 1.370 1_545 S
C3339 C3340 1.403 . S
C3340 C3339 1.403 . S
C3340 C3341 1.404 . S
C3340 C3343 1.539 . S
C3341 C3337 1.408 . S
C3341 C3340 1.404 . S
C3341 H3353 0.930 . S
C3342 C3338 1.524 . S
C3342 H3354 0.956 . S
C3342 H3355 0.961 . S
C3342 H3356 0.961 . S
C3343 C3340 1.539 . S
C3343 H3357 0.958 . S
C3343 H3358 0.961 . S
C3343 H3359 0.960 . S
H3344 C3328 0.931 . S
H3345 C3333 0.929 . S
H3346 C3334 0.960 . S
H3347 C3334 0.962 . S
H3348 C3334 0.960 . S
H3349 C3335 0.961 . S
H3350 C3335 0.961 . S
H3351 C3335 0.961 . S
H3352 C3336 0.929 . S
H3353 C3341 0.930 . S
H3354 C3342 0.956 . S
H3355 C3342 0.961 . S
H3356 C3342 0.961 . S
H3357 C3343 0.958 . S
H3358 C3343 0.961 . S
H3359 C3343 0.960 . S
C3360 C3361 1.391 . S
C3360 C3362 1.394 . S
C3360 H3376 0.931 . S
C3361 C3360 1.391 . S
C3361 C3365 1.376 1_455 S
C3362 C3360 1.394 . S
C3362 C3363 1.370 1_455 S
C3362 C3366 1.531 . S
C3363 C3362 1.370 1_655 S
C3363 C3364 1.408 . S
C3363 C3371 1.503 . S
C3364 C3363 1.408 . S
C3364 C3365 1.392 . S
C3364 C3367 1.511 . S
C3365 C3361 1.376 1_655 S
C3365 C3364 1.392 . S
C3365 H3377 0.929 . S
C3366 C3362 1.531 . S
C3366 H3378 0.960 . S
C3366 H3379 0.962 . S
C3366 H3380 0.960 . S
C3367 C3364 1.511 . S
C3367 H3381 0.961 . S
C3367 H3382 0.961 . S
C3367 H3383 0.961 . S
C3368 C3369 1.370 1_455 S
C3368 C3370 1.363 . S
C3368 H3384 0.931 . S
C3369 C3368 1.370 1_655 S
C3369 C3373 1.408 . S
C3370 C3368 1.363 . S
C3370 C3371 1.369 1_455 S
C3370 C3374 1.524 . S
C3371 C3363 1.503 . S
C3371 C3370 1.369 1_655 S
C3371 C3372 1.405 . S
C3372 C3371 1.405 . S
C3372 C3373 1.404 . S
C3372 C3375 1.539 . S
C3373 C3369 1.408 . S
C3373 C3372 1.404 . S
C3373 H3385 0.930 . S
C3374 C3370 1.524 . S
C3374 H3386 0.956 . S
C3374 H3387 0.961 1_455 S
C3374 H3388 0.961 . S
C3375 C3372 1.539 . S
C3375 H3389 0.958 1_655 S
C3375 H3390 0.961 . S
C3375 H3391 0.960 . S
H3376 C3360 0.931 . S
H3377 C3365 0.929 . S
H3378 C3366 0.960 . S
H3379 C3366 0.962 . S
H3380 C3366 0.960 . S
H3381 C3367 0.961 . S
H3382 C3367 0.961 . S
H3383 C3367 0.961 . S
H3384 C3368 0.931 . S
H3385 C3373 0.930 . S
H3386 C3374 0.956 . S
H3387 C3374 0.961 1_655 S
H3388 C3374 0.961 . S
H3389 C3375 0.958 1_455 S
H3390 C3375 0.961 . S
H3391 C3375 0.960 . S
C3392 C3393 1.391 . S
C3392 C3394 1.394 . S
C3392 H3408 0.931 . S
C3393 C3392 1.391 . S
C3393 C3397 1.376 . S
C3394 C3392 1.394 . S
C3394 C3395 1.369 . S
C3394 C3398 1.531 . S
C3395 C3394 1.369 . S
C3395 C3396 1.410 . S
C3395 C3403 1.503 1_556 S
C3396 C3395 1.410 . S
C3396 C3397 1.392 . S
C3396 C3399 1.511 . S
C3397 C3393 1.376 . S
C3397 C3396 1.392 . S
C3397 H3409 0.929 . S
C3398 C3394 1.531 . S
C3398 H3410 0.960 1_556 S
C3398 H3411 0.962 . S
C3398 H3412 0.960 . S
C3399 C3396 1.511 . S
C3399 H3413 0.961 . S
C3399 H3414 0.963 . S
C3399 H3415 0.961 . S
C3400 C3401 1.370 . S
C3400 C3402 1.363 . S
C3400 H3416 0.931 . S
C3401 C3400 1.370 . S
C3401 C3405 1.408 . S
C3402 C3400 1.363 . S
C3402 C3403 1.370 . S
C3402 C3406 1.524 . S
C3403 C3395 1.503 1_554 S
C3403 C3402 1.370 . S
C3403 C3404 1.403 . S
C3404 C3403 1.403 . S
C3404 C3405 1.404 . S
C3404 C3407 1.539 . S
C3405 C3401 1.408 . S
C3405 C3404 1.404 . S
C3405 H3417 0.930 . S
C3406 C3402 1.524 . S
C3406 H3418 0.956 1_554 S
C3406 H3419 0.961 1_554 S
C3406 H3420 0.961 . S
C3407 C3404 1.539 . S
C3407 H3421 0.958 . S
C3407 H3422 0.961 . S
C3407 H3423 0.960 . S
H3408 C3392 0.931 . S
H3409 C3397 0.929 . S
H3410 C3398 0.960 1_554 S
H3411 C3398 0.962 . S
H3412 C3398 0.960 . S
H3413 C3399 0.961 . S
H3414 C3399 0.963 . S
H3415 C3399 0.961 . S
H3416 C3400 0.931 . S
H3417 C3405 0.930 . S
H3418 C3406 0.956 1_556 S
H3419 C3406 0.961 1_556 S
H3420 C3406 0.961 . S
H3421 C3407 0.958 . S
H3422 C3407 0.961 . S
H3423 C3407 0.960 . S
C3424 C3425 1.391 . S
C3424 C3426 1.394 . S
C3424 H3440 0.931 . S
C3425 C3424 1.391 . S
C3425 C3429 1.376 . S
C3426 C3424 1.394 . S
C3426 C3427 1.369 . S
C3426 C3430 1.531 . S
C3427 C3426 1.369 . S
C3427 C3428 1.410 . S
C3427 C3435 1.503 . S
C3428 C3427 1.410 . S
C3428 C3429 1.392 . S
C3428 C3431 1.511 . S
C3429 C3425 1.376 . S
C3429 C3428 1.392 . S
C3429 H3441 0.929 . S
C3430 C3426 1.531 . S
C3430 H3442 0.960 . S
C3430 H3443 0.962 . S
C3430 H3444 0.960 . S
C3431 C3428 1.511 . S
C3431 H3445 0.961 . S
C3431 H3446 0.961 . S
C3431 H3447 0.961 . S
C3432 C3433 1.370 . S
C3432 C3434 1.363 . S
C3432 H3448 0.931 . S
C3433 C3432 1.370 . S
C3433 C3437 1.408 . S
C3434 C3432 1.363 . S
C3434 C3435 1.370 . S
C3434 C3438 1.524 . S
C3435 C3427 1.503 . S
C3435 C3434 1.370 . S
C3435 C3436 1.403 . S
C3436 C3435 1.403 . S
C3436 C3437 1.404 . S
C3436 C3439 1.539 . S
C3437 C3433 1.408 . S
C3437 C3436 1.404 . S
C3437 H3449 0.930 . S
C3438 C3434 1.524 . S
C3438 H3450 0.956 . S
C3438 H3451 0.961 . S
C3438 H3452 0.961 . S
C3439 C3436 1.539 . S
C3439 H3453 0.958 . S
C3439 H3454 0.961 . S
C3439 H3455 0.960 . S
H3440 C3424 0.931 . S
H3441 C3429 0.929 . S
H3442 C3430 0.960 . S
H3443 C3430 0.962 . S
H3444 C3430 0.960 . S
H3445 C3431 0.961 . S
H3446 C3431 0.961 . S
H3447 C3431 0.961 . S
H3448 C3432 0.931 . S
H3449 C3437 0.930 . S
H3450 C3438 0.956 . S
H3451 C3438 0.961 . S
H3452 C3438 0.961 . S
H3453 C3439 0.958 . S
H3454 C3439 0.961 . S
H3455 C3439 0.960 . S
C3456 C3457 1.391 . S
C3456 C3458 1.394 . S
C3456 H3472 0.931 . S
C3457 C3456 1.391 . S
C3457 C3461 1.376 . S
C3458 C3456 1.394 . S
C3458 C3459 1.369 . S
C3458 C3462 1.531 . S
C3459 C3458 1.369 . S
C3459 C3460 1.410 . S
C3459 C3467 1.503 . S
C3460 C3459 1.410 . S
C3460 C3461 1.392 . S
C3460 C3463 1.511 . S
C3461 C3457 1.376 . S
C3461 C3460 1.392 . S
C3461 H3473 0.929 . S
C3462 C3458 1.531 . S
C3462 H3474 0.960 . S
C3462 H3475 0.962 . S
C3462 H3476 0.960 . S
C3463 C3460 1.511 . S
C3463 H3477 0.961 . S
C3463 H3478 0.961 . S
C3463 H3479 0.961 . S
C3464 C3465 1.370 . S
C3464 C3466 1.363 . S
C3464 H3480 0.931 . S
C3465 C3464 1.370 . S
C3465 C3469 1.408 . S
C3466 C3464 1.363 . S
C3466 C3467 1.370 . S
C3466 C3470 1.524 . S
C3467 C3459 1.503 . S
C3467 C3466 1.370 . S
C3467 C3468 1.403 . S
C3468 C3467 1.403 . S
C3468 C3469 1.404 . S
C3468 C3471 1.539 . S
C3469 C3465 1.408 . S
C3469 C3468 1.404 . S
C3469 H3481 0.930 . S
C3470 C3466 1.524 . S
C3470 H3482 0.956 . S
C3470 H3483 0.961 . S
C3470 H3484 0.961 . S
C3471 C3468 1.539 . S
C3471 H3485 0.958 . S
C3471 H3486 0.961 . S
C3471 H3487 0.960 . S
H3472 C3456 0.931 . S
H3473 C3461 0.929 . S
H3474 C3462 0.960 . S
H3475 C3462 0.962 . S
H3476 C3462 0.960 . S
H3477 C3463 0.961 . S
H3478 C3463 0.961 . S
H3479 C3463 0.961 . S
H3480 C3464 0.931 . S
H3481 C3469 0.930 . S
H3482 C3470 0.956 . S
H3483 C3470 0.961 . S
H3484 C3470 0.961 . S
H3485 C3471 0.958 . S
H3486 C3471 0.961 . S
H3487 C3471 0.960 . S
C3488 C3489 1.391 1_655 S
C3488 C3490 1.394 . S
C3488 H3504 0.931 . S
C3489 C3488 1.391 1_455 S
C3489 C3493 1.376 . S
C3490 C3488 1.394 . S
C3490 C3491 1.369 1_655 S
C3490 C3494 1.531 . S
C3491 C3490 1.369 1_455 S
C3491 C3492 1.410 . S
C3491 C3499 1.503 . S
C3492 C3491 1.410 . S
C3492 C3493 1.392 . S
C3492 C3495 1.511 . S
C3493 C3489 1.376 . S
C3493 C3492 1.392 . S
C3493 H3505 0.929 . S
C3494 C3490 1.531 . S
C3494 H3506 0.960 . S
C3494 H3507 0.962 . S
C3494 H3508 0.960 . S
C3495 C3492 1.511 . S
C3495 H3509 0.961 . S
C3495 H3510 0.961 . S
C3495 H3511 0.961 . S
C3496 C3497 1.370 . S
C3496 C3498 1.363 . S
C3496 H3512 0.931 . S
C3497 C3496 1.370 . S
C3497 C3501 1.408 1_655 S
C3498 C3496 1.363 . S
C3498 C3499 1.370 1_655 S
C3498 C3502 1.524 . S
C3499 C3491 1.503 . S
C3499 C3498 1.370 1_455 S
C3499 C3500 1.403 . S
C3500 C3499 1.403 . S
C3500 C3501 1.404 . S
C3500 C3503 1.539 . S
C3501 C3497 1.408 1_455 S
C3501 C3500 1.404 . S
C3501 H3513 0.930 . S
C3502 C3498 1.524 . S
C3502 H3514 0.956 . S
C3502 H3515 0.961 . S
C3502 H3516 0.961 . S
C3503 C3500 1.539 . S
C3503 H3517 0.958 . S
C3503 H3518 0.961 . S
C3503 H3519 0.960 . S
H3504 C3488 0.931 . S
H3505 C3493 0.929 . S
H3506 C3494 0.960 . S
H3507 C3494 0.962 . S
H3508 C3494 0.960 . S
H3509 C3495 0.961 . S
H3510 C3495 0.961 . S
H3511 C3495 0.961 . S
H3512 C3496 0.931 . S
H3513 C3501 0.930 . S
H3514 C3502 0.956 . S
H3515 C3502 0.961 . S
H3516 C3502 0.961 . S
H3517 C3503 0.958 . S
H3518 C3503 0.961 . S
H3519 C3503 0.960 . S
C3520 C3521 1.391 . S
C3520 C3522 1.394 . S
C3520 H3536 0.931 . S
C3521 C3520 1.391 . S
C3521 C3525 1.376 . S
C3522 C3520 1.394 . S
C3522 C3523 1.369 . S
C3522 C3526 1.531 . S
C3523 C3522 1.369 . S
C3523 C3524 1.410 . S
C3523 C3531 1.503 . S
C3524 C3523 1.410 . S
C3524 C3525 1.392 . S
C3524 C3527 1.511 . S
C3525 C3521 1.376 . S
C3525 C3524 1.392 . S
C3525 H3537 0.929 . S
C3526 C3522 1.531 . S
C3526 H3538 0.960 . S
C3526 H3539 0.962 . S
C3526 H3540 0.960 . S
C3527 C3524 1.511 . S
C3527 H3541 0.961 . S
C3527 H3542 0.961 . S
C3527 H3543 0.961 . S
C3528 C3529 1.370 . S
C3528 C3530 1.363 . S
C3528 H3544 0.931 . S
C3529 C3528 1.370 . S
C3529 C3533 1.408 . S
C3530 C3528 1.363 . S
C3530 C3531 1.370 . S
C3530 C3534 1.524 . S
C3531 C3523 1.503 . S
C3531 C3530 1.370 . S
C3531 C3532 1.403 . S
C3532 C3531 1.403 . S
C3532 C3533 1.404 . S
C3532 C3535 1.539 . S
C3533 C3529 1.408 . S
C3533 C3532 1.404 . S
C3533 H3545 0.930 . S
C3534 C3530 1.524 . S
C3534 H3546 0.956 . S
C3534 H3547 0.961 . S
C3534 H3548 0.961 . S
C3535 C3532 1.539 . S
C3535 H3549 0.958 . S
C3535 H3550 0.961 . S
C3535 H3551 0.960 . S
H3536 C3520 0.931 . S
H3537 C3525 0.929 . S
H3538 C3526 0.960 . S
H3539 C3526 0.962 . S
H3540 C3526 0.960 . S
H3541 C3527 0.961 . S
H3542 C3527 0.961 . S
H3543 C3527 0.961 . S
H3544 C3528 0.931 . S
H3545 C3533 0.930 . S
H3546 C3534 0.956 . S
H3547 C3534 0.961 . S
H3548 C3534 0.961 . S
H3549 C3535 0.958 . S
H3550 C3535 0.961 . S
H3551 C3535 0.960 . S
C3552 C3553 1.391 . S
C3552 C3554 1.394 . S
C3552 H3568 0.931 . S
C3553 C3552 1.391 . S
C3553 C3557 1.376 . S
C3554 C3552 1.394 . S
C3554 C3555 1.369 . S
C3554 C3558 1.531 . S
C3555 C3554 1.369 . S
C3555 C3556 1.410 . S
C3555 C3563 1.503 . S
C3556 C3555 1.410 . S
C3556 C3557 1.392 . S
C3556 C3559 1.511 . S
C3557 C3553 1.376 . S
C3557 C3556 1.392 . S
C3557 H3569 0.929 . S
C3558 C3554 1.531 . S
C3558 H3570 0.960 . S
C3558 H3571 0.962 . S
C3558 H3572 0.960 . S
C3559 C3556 1.511 . S
C3559 H3573 0.961 . S
C3559 H3574 0.961 . S
C3559 H3575 0.961 . S
C3560 C3561 1.370 . S
C3560 C3562 1.363 . S
C3560 H3576 0.931 . S
C3561 C3560 1.370 . S
C3561 C3565 1.408 . S
C3562 C3560 1.363 . S
C3562 C3563 1.370 . S
C3562 C3566 1.524 . S
C3563 C3555 1.503 . S
C3563 C3562 1.370 . S
C3563 C3564 1.403 . S
C3564 C3563 1.403 . S
C3564 C3565 1.404 . S
C3564 C3567 1.539 . S
C3565 C3561 1.408 . S
C3565 C3564 1.404 . S
C3565 H3577 0.930 . S
C3566 C3562 1.524 . S
C3566 H3578 0.956 . S
C3566 H3579 0.961 . S
C3566 H3580 0.961 . S
C3567 C3564 1.539 . S
C3567 H3581 0.958 . S
C3567 H3582 0.961 . S
C3567 H3583 0.960 . S
H3568 C3552 0.931 . S
H3569 C3557 0.929 . S
H3570 C3558 0.960 . S
H3571 C3558 0.962 . S
H3572 C3558 0.960 . S
H3573 C3559 0.961 . S
H3574 C3559 0.961 . S
H3575 C3559 0.961 . S
H3576 C3560 0.931 . S
H3577 C3565 0.930 . S
H3578 C3566 0.956 . S
H3579 C3566 0.961 . S
H3580 C3566 0.961 . S
H3581 C3567 0.958 . S
H3582 C3567 0.961 . S
H3583 C3567 0.960 . S
C3584 C3585 1.391 . S
C3584 C3586 1.394 . S
C3584 H3600 0.931 . S
C3585 C3584 1.391 . S
C3585 C3589 1.376 . S
C3586 C3584 1.394 . S
C3586 C3587 1.369 . S
C3586 C3590 1.531 . S
C3587 C3586 1.369 . S
C3587 C3588 1.410 . S
C3587 C3595 1.503 . S
C3588 C3587 1.410 . S
C3588 C3589 1.392 . S
C3588 C3591 1.511 . S
C3589 C3585 1.376 . S
C3589 C3588 1.392 . S
C3589 H3601 0.929 . S
C3590 C3586 1.531 . S
C3590 H3602 0.960 . S
C3590 H3603 0.962 . S
C3590 H3604 0.960 . S
C3591 C3588 1.511 . S
C3591 H3605 0.961 . S
C3591 H3606 0.961 . S
C3591 H3607 0.961 . S
C3592 C3593 1.370 . S
C3592 C3594 1.363 . S
C3592 H3608 0.931 . S
C3593 C3592 1.370 . S
C3593 C3597 1.408 . S
C3594 C3592 1.363 . S
C3594 C3595 1.370 . S
C3594 C3598 1.524 . S
C3595 C3587 1.503 . S
C3595 C3594 1.370 . S
C3595 C3596 1.403 . S
C3596 C3595 1.403 . S
C3596 C3597 1.404 . S
C3596 C3599 1.539 . S
C3597 C3593 1.408 . S
C3597 C3596 1.404 . S
C3597 H3609 0.930 . S
C3598 C3594 1.524 . S
C3598 H3610 0.956 . S
C3598 H3611 0.961 . S
C3598 H3612 0.961 . S
C3599 C3596 1.539 . S
C3599 H3613 0.958 . S
C3599 H3614 0.961 . S
C3599 H3615 0.960 . S
H3600 C3584 0.931 . S
H3601 C3589 0.929 . S
H3602 C3590 0.960 . S
H3603 C3590 0.962 . S
H3604 C3590 0.960 . S
H3605 C3591 0.961 . S
H3606 C3591 0.961 . S
H3607 C3591 0.961 . S
H3608 C3592 0.931 . S
H3609 C3597 0.930 . S
H3610 C3598 0.956 . S
H3611 C3598 0.961 . S
H3612 C3598 0.961 . S
H3613 C3599 0.958 . S
H3614 C3599 0.961 . S
H3615 C3599 0.960 . S
C3616 C3617 1.391 . S
C3616 C3618 1.394 . S
C3616 H3632 0.931 . S
C3617 C3616 1.391 . S
C3617 C3621 1.376 1_545 S
C3618 C3616 1.394 . S
C3618 C3619 1.369 1_545 S
C3618 C3622 1.531 . S
C3619 C3618 1.369 1_565 S
C3619 C3620 1.410 . S
C3619 C3627 1.503 . S
C3620 C3619 1.410 . S
C3620 C3621 1.392 . S
C3620 C3623 1.511 . S
C3621 C3617 1.376 1_565 S
C3621 C3620 1.392 . S
C3621 H3633 0.929 . S
C3622 C3618 1.531 . S
C3622 H3634 0.960 . S
C3622 H3635 0.962 . S
C3622 H3636 0.960 . S
C3623 C3620 1.511 . S
C3623 H3637 0.961 . S
C3623 H3638 0.961 . S
C3623 H3639 0.961 . S
C3624 C3625 1.370 1_545 S
C3624 C3626 1.363 . S
C3624 H3640 0.931 . S
C3625 C3624 1.370 1_565 S
C3625 C3629 1.408 . S
C3626 C3624 1.363 . S
C3626 C3627 1.370 1_545 S
C3626 C3630 1.524 . S
C3627 C3619 1.503 . S
C3627 C3626 1.370 1_565 S
C3627 C3628 1.403 . S
C3628 C3627 1.403 . S
C3628 C3629 1.404 . S
C3628 C3631 1.539 . S
C3629 C3625 1.408 . S
C3629 C3628 1.404 . S
C3629 H3641 0.930 . S
C3630 C3626 1.524 . S
C3630 H3642 0.956 . S
C3630 H3643 0.961 . S
C3630 H3644 0.961 . S
C3631 C3628 1.539 . S
C3631 H3645 0.958 . S
C3631 H3646 0.961 . S
C3631 H3647 0.960 . S
H3632 C3616 0.931 . S
H3633 C3621 0.929 . S
H3634 C3622 0.960 . S
H3635 C3622 0.962 . S
H3636 C3622 0.960 . S
H3637 C3623 0.961 . S
H3638 C3623 0.961 . S
H3639 C3623 0.961 . S
H3640 C3624 0.931 . S
H3641 C3629 0.930 . S
H3642 C3630 0.956 . S
H3643 C3630 0.961 . S
H3644 C3630 0.961 . S
H3645 C3631 0.958 . S
H3646 C3631 0.961 . S
H3647 C3631 0.960 . S
C3648 C3649 1.391 . S
C3648 C3650 1.394 . S
C3648 H3664 0.931 . S
C3649 C3648 1.391 . S
C3649 C3653 1.376 . S
C3650 C3648 1.394 . S
C3650 C3651 1.369 . S
C3650 C3654 1.531 . S
C3651 C3650 1.369 . S
C3651 C3652 1.410 . S
C3651 C3659 1.503 . S
C3652 C3651 1.410 . S
C3652 C3653 1.392 . S
C3652 C3655 1.511 . S
C3653 C3649 1.376 . S
C3653 C3652 1.392 . S
C3653 H3665 0.929 . S
C3654 C3650 1.531 . S
C3654 H3666 0.960 . S
C3654 H3667 0.962 . S
C3654 H3668 0.960 . S
C3655 C3652 1.511 . S
C3655 H3669 0.961 . S
C3655 H3670 0.961 . S
C3655 H3671 0.961 . S
C3656 C3657 1.370 . S
C3656 C3658 1.363 . S
C3656 H3672 0.931 . S
C3657 C3656 1.370 . S
C3657 C3661 1.408 . S
C3658 C3656 1.363 . S
C3658 C3659 1.370 . S
C3658 C3662 1.524 . S
C3659 C3651 1.503 . S
C3659 C3658 1.370 . S
C3659 C3660 1.403 . S
C3660 C3659 1.403 . S
C3660 C3661 1.404 . S
C3660 C3663 1.539 . S
C3661 C3657 1.408 . S
C3661 C3660 1.404 . S
C3661 H3673 0.930 . S
C3662 C3658 1.524 . S
C3662 H3674 0.956 . S
C3662 H3675 0.961 . S
C3662 H3676 0.961 . S
C3663 C3660 1.539 . S
C3663 H3677 0.958 . S
C3663 H3678 0.961 . S
C3663 H3679 0.960 . S
H3664 C3648 0.931 . S
H3665 C3653 0.929 . S
H3666 C3654 0.960 . S
H3667 C3654 0.962 . S
H3668 C3654 0.960 . S
H3669 C3655 0.961 . S
H3670 C3655 0.961 . S
H3671 C3655 0.961 . S
H3672 C3656 0.931 . S
H3673 C3661 0.930 . S
H3674 C3662 0.956 . S
H3675 C3662 0.961 . S
H3676 C3662 0.961 . S
H3677 C3663 0.958 . S
H3678 C3663 0.961 . S
H3679 C3663 0.960 . S
C3680 C3681 1.391 . S
C3680 C3682 1.394 . S
C3680 H3696 0.931 . S
C3681 C3680 1.391 . S
C3681 C3685 1.376 . S
C3682 C3680 1.394 . S
C3682 C3683 1.369 . S
C3682 C3686 1.531 . S
C3683 C3682 1.369 . S
C3683 C3684 1.410 . S
C3683 C3691 1.503 1_554 S
C3684 C3683 1.410 . S
C3684 C3685 1.392 . S
C3684 C3687 1.511 . S
C3685 C3681 1.376 . S
C3685 C3684 1.392 . S
C3685 H3697 0.929 . S
C3686 C3682 1.531 . S
C3686 H3698 0.960 1_554 S
C3686 H3699 0.968 . S
C3686 H3700 0.960 . S
C3687 C3684 1.511 . S
C3687 H3701 0.961 . S
C3687 H3702 0.961 . S
C3687 H3703 0.961 . S
C3688 C3689 1.370 . S
C3688 C3690 1.363 . S
C3688 H3704 0.931 . S
C3689 C3688 1.370 . S
C3689 C3693 1.408 . S
C3690 C3688 1.363 . S
C3690 C3691 1.370 . S
C3690 C3694 1.524 . S
C3691 C3683 1.503 1_556 S
C3691 C3690 1.370 . S
C3691 C3692 1.403 . S
C3692 C3691 1.403 . S
C3692 C3693 1.404 . S
C3692 C3695 1.539 . S
C3693 C3689 1.408 . S
C3693 C3692 1.404 . S
C3693 H3705 0.930 . S
C3694 C3690 1.524 . S
C3694 H3706 0.956 . S
C3694 H3707 0.961 1_556 S
C3694 H3708 0.961 . S
C3695 C3692 1.539 . S
C3695 H3709 0.958 . S
C3695 H3710 0.961 . S
C3695 H3711 0.960 1_556 S
H3696 C3680 0.931 . S
H3697 C3685 0.929 . S
H3698 C3686 0.960 1_556 S
H3699 C3686 0.968 . S
H3700 C3686 0.960 . S
H3701 C3687 0.961 . S
H3702 C3687 0.961 . S
H3703 C3687 0.961 . S
H3704 C3688 0.931 . S
H3705 C3693 0.930 . S
H3706 C3694 0.956 . S
H3707 C3694 0.961 1_554 S
H3708 C3694 0.961 . S
H3709 C3695 0.958 . S
H3710 C3695 0.961 . S
H3711 C3695 0.960 1_554 S
C3712 C3713 1.387 1_545 S
C3712 C3714 1.394 . S
C3712 H3728 0.934 . S
C3713 C3712 1.387 1_565 S
C3713 C3717 1.376 . S
C3714 C3712 1.394 . S
C3714 C3715 1.369 1_545 S
C3714 C3718 1.531 . S
C3715 C3714 1.369 1_565 S
C3715 C3716 1.410 . S
C3715 C3723 1.503 . S
C3716 C3715 1.410 . S
C3716 C3717 1.392 . S
C3716 C3719 1.511 . S
C3717 C3713 1.376 . S
C3717 C3716 1.392 . S
C3717 H3729 0.929 . S
C3718 C3714 1.531 . S
C3718 H3730 0.960 . S
C3718 H3731 0.962 1_545 S
C3718 H3732 0.960 . S
C3719 C3716 1.511 . S
C3719 H3733 0.961 . S
C3719 H3734 0.961 . S
C3719 H3735 0.961 . S
C3720 C3721 1.370 . S
C3720 C3722 1.363 . S
C3720 H3736 0.931 . S
C3721 C3720 1.370 . S
C3721 C3725 1.408 1_565 S
C3722 C3720 1.363 . S
C3722 C3723 1.370 . S
C3722 C3726 1.524 . S
C3723 C3715 1.503 . S
C3723 C3722 1.370 . S
C3723 C3724 1.403 1_565 S
C3724 C3723 1.403 1_545 S
C3724 C3725 1.404 . S
C3724 C3727 1.539 . S
C3725 C3721 1.408 1_545 S
C3725 C3724 1.404 . S
C3725 H3737 0.930 . S
C3726 C3722 1.524 . S
C3726 H3738 0.956 . S
C3726 H3739 0.961 . S
C3726 H3740 0.961 . S
C3727 C3724 1.539 . S
C3727 H3741 0.958 . S
C3727 H3742 0.961 . S
C3727 H3743 0.960 . S
H3728 C3712 0.934 . S
H3729 C3717 0.929 . S
H3730 C3718 0.960 . S
H3731 C3718 0.962 1_565 S
H3732 C3718 0.960 . S
H3733 C3719 0.961 . S
H3734 C3719 0.961 . S
H3735 C3719 0.961 . S
H3736 C3720 0.931 . S
H3737 C3725 0.930 . S
H3738 C3726 0.956 . S
H3739 C3726 0.961 . S
H3740 C3726 0.961 . S
H3741 C3727 0.958 . S
H3742 C3727 0.961 . S
H3743 C3727 0.960 . S
C3744 C3745 1.391 . S
C3744 C3746 1.394 . S
C3744 H3760 0.931 . S
C3745 C3744 1.391 . S
C3745 C3749 1.376 . S
C3746 C3744 1.394 . S
C3746 C3747 1.369 . S
C3746 C3750 1.531 . S
C3747 C3746 1.369 . S
C3747 C3748 1.410 . S
C3747 C3755 1.503 . S
C3748 C3747 1.410 . S
C3748 C3749 1.392 . S
C3748 C3751 1.511 . S
C3749 C3745 1.376 . S
C3749 C3748 1.392 . S
C3749 H3761 0.929 . S
C3750 C3746 1.531 . S
C3750 H3762 0.960 . S
C3750 H3763 0.962 . S
C3750 H3764 0.960 . S
C3751 C3748 1.511 . S
C3751 H3765 0.961 . S
C3751 H3766 0.961 . S
C3751 H3767 0.961 . S
C3752 C3753 1.370 . S
C3752 C3754 1.363 . S
C3752 H3768 0.931 . S
C3753 C3752 1.370 . S
C3753 C3757 1.408 . S
C3754 C3752 1.363 . S
C3754 C3755 1.370 . S
C3754 C3758 1.524 . S
C3755 C3747 1.503 . S
C3755 C3754 1.370 . S
C3755 C3756 1.403 . S
C3756 C3755 1.403 . S
C3756 C3757 1.404 . S
C3756 C3759 1.539 . S
C3757 C3753 1.408 . S
C3757 C3756 1.404 . S
C3757 H3769 0.930 . S
C3758 C3754 1.524 . S
C3758 H3770 0.956 . S
C3758 H3771 0.961 . S
C3758 H3772 0.961 . S
C3759 C3756 1.539 . S
C3759 H3773 0.958 . S
C3759 H3774 0.961 . S
C3759 H3775 0.960 . S
H3760 C3744 0.931 . S
H3761 C3749 0.929 . S
H3762 C3750 0.960 . S
H3763 C3750 0.962 . S
H3764 C3750 0.960 . S
H3765 C3751 0.961 . S
H3766 C3751 0.961 . S
H3767 C3751 0.961 . S
H3768 C3752 0.931 . S
H3769 C3757 0.930 . S
H3770 C3758 0.956 . S
H3771 C3758 0.961 . S
H3772 C3758 0.961 . S
H3773 C3759 0.958 . S
H3774 C3759 0.961 . S
H3775 C3759 0.960 . S
C3776 C3777 1.391 . S
C3776 C3778 1.394 . S
C3776 H3792 0.931 . S
C3777 C3776 1.391 . S
C3777 C3781 1.376 . S
C3778 C3776 1.394 . S
C3778 C3779 1.369 . S
C3778 C3782 1.531 . S
C3779 C3778 1.369 . S
C3779 C3780 1.410 . S
C3779 C3787 1.503 . S
C3780 C3779 1.410 . S
C3780 C3781 1.392 . S
C3780 C3783 1.511 . S
C3781 C3777 1.376 . S
C3781 C3780 1.392 . S
C3781 H3793 0.929 . S
C3782 C3778 1.531 . S
C3782 H3794 0.960 . S
C3782 H3795 0.962 . S
C3782 H3796 0.960 . S
C3783 C3780 1.511 . S
C3783 H3797 0.961 . S
C3783 H3798 0.961 . S
C3783 H3799 0.961 . S
C3784 C3785 1.370 . S
C3784 C3786 1.363 . S
C3784 H3800 0.931 . S
C3785 C3784 1.370 . S
C3785 C3789 1.408 . S
C3786 C3784 1.363 . S
C3786 C3787 1.370 . S
C3786 C3790 1.524 . S
C3787 C3779 1.503 . S
C3787 C3786 1.370 . S
C3787 C3788 1.403 . S
C3788 C3787 1.403 . S
C3788 C3789 1.404 . S
C3788 C3791 1.539 . S
C3789 C3785 1.408 . S
C3789 C3788 1.404 . S
C3789 H3801 0.930 . S
C3790 C3786 1.524 . S
C3790 H3802 0.956 . S
C3790 H3803 0.961 . S
C3790 H3804 0.961 . S
C3791 C3788 1.539 . S
C3791 H3805 0.958 . S
C3791 H3806 0.961 . S
C3791 H3807 0.960 . S
H3792 C3776 0.931 . S
H3793 C3781 0.929 . S
H3794 C3782 0.960 . S
H3795 C3782 0.962 . S
H3796 C3782 0.960 . S
H3797 C3783 0.961 . S
H3798 C3783 0.961 . S
H3799 C3783 0.961 . S
H3800 C3784 0.931 . S
H3801 C3789 0.930 . S
H3802 C3790 0.956 . S
H3803 C3790 0.961 . S
H3804 C3790 0.961 . S
H3805 C3791 0.958 . S
H3806 C3791 0.961 . S
H3807 C3791 0.960 . S
C3808 C3809 1.391 . S
C3808 C3810 1.394 . S
C3808 H3824 0.931 . S
C3809 C3808 1.391 . S
C3809 C3813 1.376 . S
C3810 C3808 1.394 . S
C3810 C3811 1.369 . S
C3810 C3814 1.531 . S
C3811 C3810 1.369 . S
C3811 C3812 1.410 . S
C3811 C3819 1.503 . S
C3812 C3811 1.410 . S
C3812 C3813 1.392 . S
C3812 C3815 1.511 1_565 S
C3813 C3809 1.376 . S
C3813 C3812 1.392 . S
C3813 H3825 0.917 1_565 S
C3814 C3810 1.531 . S
C3814 H3826 0.960 . S
C3814 H3827 0.962 . S
C3814 H3828 0.960 . S
C3815 C3812 1.511 1_545 S
C3815 H3829 0.961 . S
C3815 H3830 0.961 . S
C3815 H3831 0.961 1_545 S
C3816 C3817 1.370 1_545 S
C3816 C3818 1.363 . S
C3816 H3832 0.931 . S
C3817 C3816 1.370 1_565 S
C3817 C3821 1.408 . S
C3818 C3816 1.363 . S
C3818 C3819 1.370 1_545 S
C3818 C3822 1.524 . S
C3819 C3811 1.503 . S
C3819 C3818 1.370 1_565 S
C3819 C3820 1.403 . S
C3820 C3819 1.403 . S
C3820 C3821 1.404 . S
C3820 C3823 1.539 . S
C3821 C3817 1.408 . S
C3821 C3820 1.404 . S
C3821 H3833 0.930 . S
C3822 C3818 1.524 . S
C3822 H3834 0.956 . S
C3822 H3835 0.961 . S
C3822 H3836 0.961 . S
C3823 C3820 1.539 . S
C3823 H3837 0.958 . S
C3823 H3838 0.961 . S
C3823 H3839 0.960 . S
H3824 C3808 0.931 . S
H3825 C3813 0.917 1_545 S
H3826 C3814 0.960 . S
H3827 C3814 0.962 . S
H3828 C3814 0.960 . S
H3829 C3815 0.961 . S
H3830 C3815 0.961 . S
H3831 C3815 0.961 1_565 S
H3832 C3816 0.931 . S
H3833 C3821 0.930 . S
H3834 C3822 0.956 . S
H3835 C3822 0.961 . S
H3836 C3822 0.961 . S
H3837 C3823 0.958 . S
H3838 C3823 0.961 . S
H3839 C3823 0.960 . S
C3840 C3841 1.391 . S
C3840 C3842 1.394 . S
C3840 H3856 0.931 . S
C3841 C3840 1.391 . S
C3841 C3845 1.376 . S
C3842 C3840 1.394 . S
C3842 C3843 1.369 . S
C3842 C3846 1.531 . S
C3843 C3842 1.369 . S
C3843 C3844 1.410 . S
C3843 C3851 1.503 . S
C3844 C3843 1.410 . S
C3844 C3845 1.392 . S
C3844 C3847 1.511 1_545 S
C3845 C3841 1.376 . S
C3845 C3844 1.392 . S
C3845 H3857 0.929 1_545 S
C3846 C3842 1.531 . S
C3846 H3858 0.960 . S
C3846 H3859 0.962 . S
C3846 H3860 0.960 . S
C3847 C3844 1.511 1_565 S
C3847 H3861 0.961 . S
C3847 H3862 0.961 . S
C3847 H3863 0.930 1_565 S
C3848 C3849 1.370 1_565 S
C3848 C3850 1.363 . S
C3848 H3864 0.931 . S
C3849 C3848 1.370 1_545 S
C3849 C3853 1.408 . S
C3850 C3848 1.363 . S
C3850 C3851 1.370 1_565 S
C3850 C3854 1.524 . S
C3851 C3843 1.503 . S
C3851 C3850 1.370 1_545 S
C3851 C3852 1.403 . S
C3852 C3851 1.403 . S
C3852 C3853 1.404 . S
C3852 C3855 1.539 . S
C3853 C3849 1.408 . S
C3853 C3852 1.404 . S
C3853 H3865 0.930 . S
C3854 C3850 1.524 . S
C3854 H3866 0.956 . S
C3854 H3867 0.961 . S
C3854 H3868 0.961 . S
C3855 C3852 1.539 . S
C3855 H3869 0.958 . S
C3855 H3870 0.961 . S
C3855 H3871 0.960 . S
H3856 C3840 0.931 . S
H3857 C3845 0.929 1_565 S
H3858 C3846 0.960 . S
H3859 C3846 0.962 . S
H3860 C3846 0.960 . S
H3861 C3847 0.961 . S
H3862 C3847 0.961 . S
H3863 C3847 0.930 1_545 S
H3864 C3848 0.931 . S
H3865 C3853 0.930 . S
H3866 C3854 0.956 . S
H3867 C3854 0.961 . S
H3868 C3854 0.961 . S
H3869 C3855 0.958 . S
H3870 C3855 0.961 . S
H3871 C3855 0.960 . S
C3872 C3873 1.391 . S
C3872 C3874 1.394 . S
C3872 H3888 0.931 . S
C3873 C3872 1.391 . S
C3873 C3877 1.376 . S
C3874 C3872 1.394 . S
C3874 C3875 1.369 . S
C3874 C3878 1.531 . S
C3875 C3874 1.369 . S
C3875 C3876 1.410 . S
C3875 C3883 1.503 . S
C3876 C3875 1.410 . S
C3876 C3877 1.392 . S
C3876 C3879 1.511 . S
C3877 C3873 1.376 . S
C3877 C3876 1.392 . S
C3877 H3889 0.929 . S
C3878 C3874 1.531 . S
C3878 H3890 0.960 . S
C3878 H3891 0.962 . S
C3878 H3892 0.960 . S
C3879 C3876 1.511 . S
C3879 H3893 0.961 . S
C3879 H3894 0.961 . S
C3879 H3895 0.961 . S
C3880 C3881 1.370 . S
C3880 C3882 1.363 . S
C3880 H3896 0.931 . S
C3881 C3880 1.370 . S
C3881 C3885 1.408 . S
C3882 C3880 1.363 . S
C3882 C3883 1.370 . S
C3882 C3886 1.524 . S
C3883 C3875 1.503 . S
C3883 C3882 1.370 . S
C3883 C3884 1.403 . S
C3884 C3883 1.403 . S
C3884 C3885 1.404 . S
C3884 C3887 1.539 . S
C3885 C3881 1.408 . S
C3885 C3884 1.404 . S
C3885 H3897 0.930 . S
C3886 C3882 1.524 . S
C3886 H3898 0.956 . S
C3886 H3899 0.961 . S
C3886 H3900 0.961 . S
C3887 C3884 1.539 . S
C3887 H3901 0.958 . S
C3887 H3902 0.961 . S
C3887 H3903 0.960 . S
H3888 C3872 0.931 . S
H3889 C3877 0.929 . S
H3890 C3878 0.960 . S
H3891 C3878 0.962 . S
H3892 C3878 0.960 . S
H3893 C3879 0.961 . S
H3894 C3879 0.961 . S
H3895 C3879 0.961 . S
H3896 C3880 0.931 . S
H3897 C3885 0.930 . S
H3898 C3886 0.956 . S
H3899 C3886 0.961 . S
H3900 C3886 0.961 . S
H3901 C3887 0.958 . S
H3902 C3887 0.961 . S
H3903 C3887 0.960 . S
C3904 C3905 1.391 . S
C3904 C3906 1.394 . S
C3904 H3920 0.931 . S
C3905 C3904 1.391 . S
C3905 C3909 1.376 . S
C3906 C3904 1.394 . S
C3906 C3907 1.369 . S
C3906 C3910 1.531 . S
C3907 C3906 1.369 . S
C3907 C3908 1.410 . S
C3907 C3915 1.503 . S
C3908 C3907 1.410 . S
C3908 C3909 1.392 . S
C3908 C3911 1.511 . S
C3909 C3905 1.376 . S
C3909 C3908 1.392 . S
C3909 H3921 0.929 . S
C3910 C3906 1.531 . S
C3910 H3922 0.960 . S
C3910 H3923 0.962 . S
C3910 H3924 0.960 . S
C3911 C3908 1.511 . S
C3911 H3925 0.961 . S
C3911 H3926 0.961 . S
C3911 H3927 0.961 . S
C3912 C3913 1.370 . S
C3912 C3914 1.363 . S
C3912 H3928 0.931 . S
C3913 C3912 1.370 . S
C3913 C3917 1.408 . S
C3914 C3912 1.363 . S
C3914 C3915 1.370 . S
C3914 C3918 1.524 . S
C3915 C3907 1.503 . S
C3915 C3914 1.370 . S
C3915 C3916 1.403 . S
C3916 C3915 1.403 . S
C3916 C3917 1.404 . S
C3916 C3919 1.539 . S
C3917 C3913 1.408 . S
C3917 C3916 1.404 . S
C3917 H3929 0.930 . S
C3918 C3914 1.524 . S
C3918 H3930 0.956 . S
C3918 H3931 0.961 . S
C3918 H3932 0.961 . S
C3919 C3916 1.539 . S
C3919 H3933 0.958 . S
C3919 H3934 0.961 . S
C3919 H3935 0.960 . S
H3920 C3904 0.931 . S
H3921 C3909 0.929 . S
H3922 C3910 0.960 . S
H3923 C3910 0.962 . S
H3924 C3910 0.960 . S
H3925 C3911 0.961 . S
H3926 C3911 0.961 . S
H3927 C3911 0.961 . S
H3928 C3912 0.931 . S
H3929 C3917 0.930 . S
H3930 C3918 0.956 . S
H3931 C3918 0.961 . S
H3932 C3918 0.961 . S
H3933 C3919 0.958 . S
H3934 C3919 0.961 . S
H3935 C3919 0.960 . S
C3936 C3937 1.391 . S
C3936 C3938 1.394 . S
C3936 H3952 0.931 1_545 S
C3937 C3936 1.391 . S
C3937 C3941 1.376 . S
C3938 C3936 1.394 . S
C3938 C3939 1.369 . S
C3938 C3942 1.531 1_545 S
C3939 C3938 1.369 . S
C3939 C3940 1.410 . S
C3939 C3947 1.503 . S
C3940 C3939 1.410 . S
C3940 C3941 1.392 . S
C3940 C3943 1.511 . S
C3941 C3937 1.376 . S
C3941 C3940 1.392 . S
C3941 H3953 0.929 . S
C3942 C3938 1.531 1_565 S
C3942 H3954 0.960 1_565 S
C3942 H3955 0.962 . S
C3942 H3956 0.960 . S
C3943 C3940 1.511 . S
C3943 H3957 0.961 . S
C3943 H3958 0.961 . S
C3943 H3959 0.961 . S
C3944 C3945 1.370 1_565 S
C3944 C3946 1.363 . S
C3944 H3960 0.931 . S
C3945 C3944 1.370 1_545 S
C3945 C3949 1.408 . S
C3946 C3944 1.363 . S
C3946 C3947 1.370 1_565 S
C3946 C3950 1.524 . S
C3947 C3939 1.503 . S
C3947 C3946 1.370 1_545 S
C3947 C3948 1.403 . S
C3948 C3947 1.403 . S
C3948 C3949 1.404 . S
C3948 C3951 1.539 . S
C3949 C3945 1.408 . S
C3949 C3948 1.404 . S
C3949 H3961 0.930 . S
C3950 C3946 1.524 . S
C3950 H3962 0.956 . S
C3950 H3963 0.961 . S
C3950 H3964 0.961 . S
C3951 C3948 1.539 . S
C3951 H3965 0.958 . S
C3951 H3966 0.961 . S
C3951 H3967 0.960 . S
H3952 C3936 0.931 1_565 S
H3953 C3941 0.929 . S
H3954 C3942 0.960 1_545 S
H3955 C3942 0.962 . S
H3956 C3942 0.960 . S
H3957 C3943 0.961 . S
H3958 C3943 0.961 . S
H3959 C3943 0.961 . S
H3960 C3944 0.931 . S
H3961 C3949 0.930 . S
H3962 C3950 0.956 . S
H3963 C3950 0.961 . S
H3964 C3950 0.961 . S
H3965 C3951 0.958 . S
H3966 C3951 0.961 . S
H3967 C3951 0.960 . S
C3968 C3969 1.391 . S
C3968 C3970 1.394 . S
C3968 H3984 0.931 . S
C3969 C3968 1.391 . S
C3969 C3973 1.376 . S
C3970 C3968 1.394 . S
C3970 C3971 1.369 . S
C3970 C3974 1.531 . S
C3971 C3970 1.369 . S
C3971 C3972 1.410 . S
C3971 C3979 1.503 . S
C3972 C3971 1.410 . S
C3972 C3973 1.392 . S
C3972 C3975 1.511 . S
C3973 C3969 1.376 . S
C3973 C3972 1.392 . S
C3973 H3985 0.929 . S
C3974 C3970 1.531 . S
C3974 H3986 0.960 . S
C3974 H3987 0.962 . S
C3974 H3988 0.960 . S
C3975 C3972 1.511 . S
C3975 H3989 0.961 . S
C3975 H3990 0.961 . S
C3975 H3991 0.961 . S
C3976 C3977 1.370 . S
C3976 C3978 1.363 . S
C3976 H3992 0.931 . S
C3977 C3976 1.370 . S
C3977 C3981 1.408 . S
C3978 C3976 1.363 . S
C3978 C3979 1.370 . S
C3978 C3982 1.524 . S
C3979 C3971 1.503 . S
C3979 C3978 1.370 . S
C3979 C3980 1.403 . S
C3980 C3979 1.403 . S
C3980 C3981 1.404 . S
C3980 C3983 1.539 . S
C3981 C3977 1.408 . S
C3981 C3980 1.404 . S
C3981 H3993 0.930 . S
C3982 C3978 1.524 . S
C3982 H3994 0.956 . S
C3982 H3995 0.961 . S
C3982 H3996 0.961 . S
C3983 C3980 1.539 . S
C3983 H3997 0.958 . S
C3983 H3998 0.961 . S
C3983 H3999 0.960 . S
H3984 C3968 0.931 . S
H3985 C3973 0.929 . S
H3986 C3974 0.960 . S
H3987 C3974 0.962 . S
H3988 C3974 0.960 . S
H3989 C3975 0.961 . S
H3990 C3975 0.961 . S
H3991 C3975 0.961 . S
H3992 C3976 0.931 . S
H3993 C3981 0.930 . S
H3994 C3982 0.956 . S
H3995 C3982 0.961 . S
H3996 C3982 0.961 . S
H3997 C3983 0.958 . S
H3998 C3983 0.961 . S
H3999 C3983 0.960 . S
C4000 C4001 1.391 . S
C4000 C4002 1.394 . S
C4000 H4016 0.931 . S
C4001 C4000 1.391 . S
C4001 C4005 1.376 . S
C4002 C4000 1.394 . S
C4002 C4003 1.369 . S
C4002 C4006 1.531 . S
C4003 C4002 1.369 . S
C4003 C4004 1.410 . S
C4003 C4011 1.503 . S
C4004 C4003 1.410 . S
C4004 C4005 1.392 . S
C4004 C4007 1.511 . S
C4005 C4001 1.376 . S
C4005 C4004 1.392 . S
C4005 H4017 0.929 . S
C4006 C4002 1.531 . S
C4006 H4018 0.960 . S
C4006 H4019 0.962 . S
C4006 H4020 0.960 . S
C4007 C4004 1.511 . S
C4007 H4021 0.961 . S
C4007 H4022 0.961 . S
C4007 H4023 0.961 . S
C4008 C4009 1.370 . S
C4008 C4010 1.363 . S
C4008 H4024 0.931 . S
C4009 C4008 1.370 . S
C4009 C4013 1.408 . S
C4010 C4008 1.363 . S
C4010 C4011 1.370 . S
C4010 C4014 1.524 . S
C4011 C4003 1.503 . S
C4011 C4010 1.370 . S
C4011 C4012 1.403 . S
C4012 C4011 1.403 . S
C4012 C4013 1.404 . S
C4012 C4015 1.539 . S
C4013 C4009 1.408 . S
C4013 C4012 1.404 . S
C4013 H4025 0.930 . S
C4014 C4010 1.524 . S
C4014 H4026 0.956 . S
C4014 H4027 0.961 . S
C4014 H4028 0.961 . S
C4015 C4012 1.539 . S
C4015 H4029 0.958 . S
C4015 H4030 0.961 . S
C4015 H4031 0.960 . S
H4016 C4000 0.931 . S
H4017 C4005 0.929 . S
H4018 C4006 0.960 . S
H4019 C4006 0.962 . S
H4020 C4006 0.960 . S
H4021 C4007 0.961 . S
H4022 C4007 0.961 . S
H4023 C4007 0.961 . S
H4024 C4008 0.931 . S
H4025 C4013 0.930 . S
H4026 C4014 0.956 . S
H4027 C4014 0.961 . S
H4028 C4014 0.961 . S
H4029 C4015 0.958 . S
H4030 C4015 0.961 . S
H4031 C4015 0.960 . S
C4032 C4033 1.391 . S
C4032 C4034 1.394 . S
C4032 H4048 0.931 . S
C4033 C4032 1.391 . S
C4033 C4037 1.376 . S
C4034 C4032 1.394 . S
C4034 C4035 1.369 . S
C4034 C4038 1.531 . S
C4035 C4034 1.369 . S
C4035 C4036 1.410 . S
C4035 C4043 1.503 . S
C4036 C4035 1.410 . S
C4036 C4037 1.392 . S
C4036 C4039 1.511 . S
C4037 C4033 1.376 . S
C4037 C4036 1.392 . S
C4037 H4049 0.929 . S
C4038 C4034 1.531 . S
C4038 H4050 0.960 . S
C4038 H4051 0.962 . S
C4038 H4052 0.960 . S
C4039 C4036 1.511 . S
C4039 H4053 0.961 . S
C4039 H4054 0.961 . S
C4039 H4055 0.961 . S
C4040 C4041 1.370 . S
C4040 C4042 1.363 . S
C4040 H4056 0.931 . S
C4041 C4040 1.370 . S
C4041 C4045 1.408 . S
C4042 C4040 1.363 . S
C4042 C4043 1.370 . S
C4042 C4046 1.524 . S
C4043 C4035 1.503 . S
C4043 C4042 1.370 . S
C4043 C4044 1.403 . S
C4044 C4043 1.403 . S
C4044 C4045 1.404 . S
C4044 C4047 1.539 . S
C4045 C4041 1.408 . S
C4045 C4044 1.404 . S
C4045 H4057 0.930 . S
C4046 C4042 1.524 . S
C4046 H4058 0.956 . S
C4046 H4059 0.961 . S
C4046 H4060 0.961 . S
C4047 C4044 1.539 . S
C4047 H4061 0.958 . S
C4047 H4062 0.961 . S
C4047 H4063 0.960 . S
H4048 C4032 0.931 . S
H4049 C4037 0.929 . S
H4050 C4038 0.960 . S
H4051 C4038 0.962 . S
H4052 C4038 0.960 . S
H4053 C4039 0.961 . S
H4054 C4039 0.961 . S
H4055 C4039 0.961 . S
H4056 C4040 0.931 . S
H4057 C4045 0.930 . S
H4058 C4046 0.956 . S
H4059 C4046 0.961 . S
H4060 C4046 0.961 . S
H4061 C4047 0.958 . S
H4062 C4047 0.961 . S
H4063 C4047 0.960 . S
C4064 C4065 1.391 . S
C4064 C4066 1.394 . S
C4064 H4080 0.931 . S
C4065 C4064 1.391 . S
C4065 C4069 1.376 . S
C4066 C4064 1.394 . S
C4066 C4067 1.369 . S
C4066 C4070 1.531 . S
C4067 C4066 1.369 . S
C4067 C4068 1.410 . S
C4067 C4075 1.503 . S
C4068 C4067 1.410 . S
C4068 C4069 1.392 . S
C4068 C4071 1.511 . S
C4069 C4065 1.376 . S
C4069 C4068 1.392 . S
C4069 H4081 0.929 . S
C4070 C4066 1.531 . S
C4070 H4082 0.960 . S
C4070 H4083 0.962 . S
C4070 H4084 0.960 . S
C4071 C4068 1.511 . S
C4071 H4085 0.961 . S
C4071 H4086 0.961 . S
C4071 H4087 0.961 . S
C4072 C4073 1.370 . S
C4072 C4074 1.363 . S
C4072 H4088 0.931 . S
C4073 C4072 1.370 . S
C4073 C4077 1.408 . S
C4074 C4072 1.363 . S
C4074 C4075 1.370 . S
C4074 C4078 1.524 . S
C4075 C4067 1.503 . S
C4075 C4074 1.370 . S
C4075 C4076 1.403 . S
C4076 C4075 1.403 . S
C4076 C4077 1.404 . S
C4076 C4079 1.539 . S
C4077 C4073 1.408 . S
C4077 C4076 1.404 . S
C4077 H4089 0.930 . S
C4078 C4074 1.524 . S
C4078 H4090 0.956 . S
C4078 H4091 0.961 . S
C4078 H4092 0.961 . S
C4079 C4076 1.539 . S
C4079 H4093 0.958 . S
C4079 H4094 0.961 . S
C4079 H4095 0.960 . S
H4080 C4064 0.931 . S
H4081 C4069 0.929 . S
H4082 C4070 0.960 . S
H4083 C4070 0.962 . S
H4084 C4070 0.960 . S
H4085 C4071 0.961 . S
H4086 C4071 0.961 . S
H4087 C4071 0.961 . S
H4088 C4072 0.931 . S
H4089 C4077 0.930 . S
H4090 C4078 0.956 . S
H4091 C4078 0.961 . S
H4092 C4078 0.961 . S
H4093 C4079 0.958 . S
H4094 C4079 0.961 . S
H4095 C4079 0.960 . S
C4096 C4097 1.391 . S
C4096 C4098 1.394 . S
C4096 H4112 0.931 . S
C4097 C4096 1.391 . S
C4097 C4101 1.376 . S
C4098 C4096 1.394 . S
C4098 C4099 1.369 . S
C4098 C4102 1.531 . S
C4099 C4098 1.369 . S
C4099 C4100 1.410 . S
C4099 C4107 1.503 . S
C4100 C4099 1.410 . S
C4100 C4101 1.392 . S
C4100 C4103 1.511 . S
C4101 C4097 1.376 . S
C4101 C4100 1.392 . S
C4101 H4113 0.929 . S
C4102 C4098 1.531 . S
C4102 H4114 0.960 . S
C4102 H4115 0.962 . S
C4102 H4116 0.960 . S
C4103 C4100 1.511 . S
C4103 H4117 0.961 . S
C4103 H4118 0.961 . S
C4103 H4119 0.961 . S
C4104 C4105 1.370 . S
C4104 C4106 1.363 . S
C4104 H4120 0.931 . S
C4105 C4104 1.370 . S
C4105 C4109 1.408 . S
C4106 C4104 1.363 . S
C4106 C4107 1.370 . S
C4106 C4110 1.524 . S
C4107 C4099 1.503 . S
C4107 C4106 1.370 . S
C4107 C4108 1.403 . S
C4108 C4107 1.403 . S
C4108 C4109 1.404 . S
C4108 C4111 1.539 . S
C4109 C4105 1.408 . S
C4109 C4108 1.404 . S
C4109 H4121 0.930 . S
C4110 C4106 1.524 . S
C4110 H4122 0.956 . S
C4110 H4123 0.961 . S
C4110 H4124 0.961 . S
C4111 C4108 1.539 . S
C4111 H4125 0.958 . S
C4111 H4126 0.961 . S
C4111 H4127 0.960 . S
H4112 C4096 0.931 . S
H4113 C4101 0.929 . S
H4114 C4102 0.960 . S
H4115 C4102 0.962 . S
H4116 C4102 0.960 . S
H4117 C4103 0.961 . S
H4118 C4103 0.961 . S
H4119 C4103 0.961 . S
H4120 C4104 0.931 . S
H4121 C4109 0.930 . S
H4122 C4110 0.956 . S
H4123 C4110 0.961 . S
H4124 C4110 0.961 . S
H4125 C4111 0.958 . S
H4126 C4111 0.961 . S
H4127 C4111 0.960 . S
C4128 C4129 1.391 . S
C4128 C4130 1.394 . S
C4128 H4144 0.931 . S
C4129 C4128 1.391 . S
C4129 C4133 1.376 . S
C4130 C4128 1.394 . S
C4130 C4131 1.369 . S
C4130 C4134 1.531 . S
C4131 C4130 1.369 . S
C4131 C4132 1.410 . S
C4131 C4139 1.503 . S
C4132 C4131 1.410 . S
C4132 C4133 1.392 . S
C4132 C4135 1.511 . S
C4133 C4129 1.376 . S
C4133 C4132 1.392 . S
C4133 H4145 0.929 . S
C4134 C4130 1.531 . S
C4134 H4146 0.960 . S
C4134 H4147 0.962 . S
C4134 H4148 0.960 . S
C4135 C4132 1.511 . S
C4135 H4149 0.961 . S
C4135 H4150 0.961 . S
C4135 H4151 0.961 . S
C4136 C4137 1.370 . S
C4136 C4138 1.363 . S
C4136 H4152 0.931 . S
C4137 C4136 1.370 . S
C4137 C4141 1.408 . S
C4138 C4136 1.363 . S
C4138 C4139 1.370 . S
C4138 C4142 1.524 . S
C4139 C4131 1.503 . S
C4139 C4138 1.370 . S
C4139 C4140 1.403 . S
C4140 C4139 1.403 . S
C4140 C4141 1.404 . S
C4140 C4143 1.539 . S
C4141 C4137 1.408 . S
C4141 C4140 1.404 . S
C4141 H4153 0.930 . S
C4142 C4138 1.524 . S
C4142 H4154 0.956 . S
C4142 H4155 0.961 . S
C4142 H4156 0.961 . S
C4143 C4140 1.539 . S
C4143 H4157 0.958 . S
C4143 H4158 0.961 . S
C4143 H4159 0.960 . S
H4144 C4128 0.931 . S
H4145 C4133 0.929 . S
H4146 C4134 0.960 . S
H4147 C4134 0.962 . S
H4148 C4134 0.960 . S
H4149 C4135 0.961 . S
H4150 C4135 0.961 . S
H4151 C4135 0.961 . S
H4152 C4136 0.931 . S
H4153 C4141 0.930 . S
H4154 C4142 0.956 . S
H4155 C4142 0.961 . S
H4156 C4142 0.961 . S
H4157 C4143 0.958 . S
H4158 C4143 0.961 . S
H4159 C4143 0.960 . S
C4160 C4161 1.391 . S
C4160 C4162 1.394 . S
C4160 H4176 0.931 . S
C4161 C4160 1.391 . S
C4161 C4165 1.376 . S
C4162 C4160 1.394 . S
C4162 C4163 1.369 . S
C4162 C4166 1.531 . S
C4163 C4162 1.369 . S
C4163 C4164 1.410 . S
C4163 C4171 1.503 . S
C4164 C4163 1.410 . S
C4164 C4165 1.392 . S
C4164 C4167 1.511 . S
C4165 C4161 1.376 . S
C4165 C4164 1.392 . S
C4165 H4177 0.929 . S
C4166 C4162 1.531 . S
C4166 H4178 0.960 . S
C4166 H4179 0.962 . S
C4166 H4180 0.960 . S
C4167 C4164 1.511 . S
C4167 H4181 0.961 . S
C4167 H4182 0.961 . S
C4167 H4183 0.961 . S
C4168 C4169 1.370 . S
C4168 C4170 1.363 . S
C4168 H4184 0.931 . S
C4169 C4168 1.370 . S
C4169 C4173 1.408 . S
C4170 C4168 1.363 . S
C4170 C4171 1.370 . S
C4170 C4174 1.524 . S
C4171 C4163 1.503 . S
C4171 C4170 1.370 . S
C4171 C4172 1.403 . S
C4172 C4171 1.403 . S
C4172 C4173 1.404 . S
C4172 C4175 1.539 . S
C4173 C4169 1.408 . S
C4173 C4172 1.404 . S
C4173 H4185 0.930 . S
C4174 C4170 1.524 . S
C4174 H4186 0.956 . S
C4174 H4187 0.961 . S
C4174 H4188 0.961 . S
C4175 C4172 1.539 . S
C4175 H4189 0.958 . S
C4175 H4190 0.961 . S
C4175 H4191 0.960 . S
H4176 C4160 0.931 . S
H4177 C4165 0.929 . S
H4178 C4166 0.960 . S
H4179 C4166 0.962 . S
H4180 C4166 0.960 . S
H4181 C4167 0.961 . S
H4182 C4167 0.961 . S
H4183 C4167 0.961 . S
H4184 C4168 0.931 . S
H4185 C4173 0.930 . S
H4186 C4174 0.956 . S
H4187 C4174 0.961 . S
H4188 C4174 0.961 . S
H4189 C4175 0.958 . S
H4190 C4175 0.961 . S
H4191 C4175 0.960 . S
C4192 C4193 1.391 . S
C4192 C4194 1.394 . S
C4192 H4208 0.931 . S
C4193 C4192 1.391 . S
C4193 C4197 1.376 . S
C4194 C4192 1.394 . S
C4194 C4195 1.369 . S
C4194 C4198 1.531 . S
C4195 C4194 1.369 . S
C4195 C4196 1.410 . S
C4195 C4203 1.503 . S
C4196 C4195 1.410 . S
C4196 C4197 1.392 . S
C4196 C4199 1.511 . S
C4197 C4193 1.376 . S
C4197 C4196 1.392 . S
C4197 H4209 0.929 . S
C4198 C4194 1.531 . S
C4198 H4210 0.960 . S
C4198 H4211 0.962 . S
C4198 H4212 0.960 . S
C4199 C4196 1.511 . S
C4199 H4213 0.961 . S
C4199 H4214 0.961 . S
C4199 H4215 0.961 . S
C4200 C4201 1.370 . S
C4200 C4202 1.363 . S
C4200 H4216 0.931 . S
C4201 C4200 1.370 . S
C4201 C4205 1.408 . S
C4202 C4200 1.363 . S
C4202 C4203 1.370 . S
C4202 C4206 1.524 . S
C4203 C4195 1.503 . S
C4203 C4202 1.370 . S
C4203 C4204 1.403 . S
C4204 C4203 1.403 . S
C4204 C4205 1.404 . S
C4204 C4207 1.539 . S
C4205 C4201 1.408 . S
C4205 C4204 1.404 . S
C4205 H4217 0.930 . S
C4206 C4202 1.524 . S
C4206 H4218 0.956 . S
C4206 H4219 0.961 . S
C4206 H4220 0.961 . S
C4207 C4204 1.539 . S
C4207 H4221 0.958 . S
C4207 H4222 0.961 . S
C4207 H4223 0.960 . S
H4208 C4192 0.931 . S
H4209 C4197 0.929 . S
H4210 C4198 0.960 . S
H4211 C4198 0.962 . S
H4212 C4198 0.960 . S
H4213 C4199 0.961 . S
H4214 C4199 0.961 . S
H4215 C4199 0.961 . S
H4216 C4200 0.931 . S
H4217 C4205 0.930 . S
H4218 C4206 0.956 . S
H4219 C4206 0.961 . S
H4220 C4206 0.961 . S
H4221 C4207 0.958 . S
H4222 C4207 0.961 . S
H4223 C4207 0.960 . S
C4224 C4225 1.391 . S
C4224 C4226 1.394 . S
C4224 H4240 0.931 . S
C4225 C4224 1.391 . S
C4225 C4229 1.376 . S
C4226 C4224 1.394 . S
C4226 C4227 1.369 . S
C4226 C4230 1.531 . S
C4227 C4226 1.369 . S
C4227 C4228 1.410 . S
C4227 C4235 1.503 . S
C4228 C4227 1.410 . S
C4228 C4229 1.392 . S
C4228 C4231 1.511 . S
C4229 C4225 1.376 . S
C4229 C4228 1.392 . S
C4229 H4241 0.929 . S
C4230 C4226 1.531 . S
C4230 H4242 0.960 . S
C4230 H4243 0.962 . S
C4230 H4244 0.960 . S
C4231 C4228 1.511 . S
C4231 H4245 0.961 . S
C4231 H4246 0.961 . S
C4231 H4247 0.961 . S
C4232 C4233 1.370 . S
C4232 C4234 1.363 . S
C4232 H4248 0.931 . S
C4233 C4232 1.370 . S
C4233 C4237 1.408 . S
C4234 C4232 1.363 . S
C4234 C4235 1.370 . S
C4234 C4238 1.524 . S
C4235 C4227 1.503 . S
C4235 C4234 1.370 . S
C4235 C4236 1.403 . S
C4236 C4235 1.403 . S
C4236 C4237 1.404 . S
C4236 C4239 1.539 . S
C4237 C4233 1.408 . S
C4237 C4236 1.404 . S
C4237 H4249 0.930 . S
C4238 C4234 1.524 . S
C4238 H4250 0.956 . S
C4238 H4251 0.961 . S
C4238 H4252 0.961 . S
C4239 C4236 1.539 . S
C4239 H4253 0.958 . S
C4239 H4254 0.961 . S
C4239 H4255 0.960 . S
H4240 C4224 0.931 . S
H4241 C4229 0.929 . S
H4242 C4230 0.960 . S
H4243 C4230 0.962 . S
H4244 C4230 0.960 . S
H4245 C4231 0.961 . S
H4246 C4231 0.961 . S
H4247 C4231 0.961 . S
H4248 C4232 0.931 . S
H4249 C4237 0.930 . S
H4250 C4238 0.956 . S
H4251 C4238 0.961 . S
H4252 C4238 0.961 . S
H4253 C4239 0.958 . S
H4254 C4239 0.961 . S
H4255 C4239 0.960 . S
C4256 C4257 1.391 . S
C4256 C4258 1.394 . S
C4256 H4272 0.931 . S
C4257 C4256 1.391 . S
C4257 C4261 1.376 . S
C4258 C4256 1.394 . S
C4258 C4259 1.369 . S
C4258 C4262 1.531 . S
C4259 C4258 1.369 . S
C4259 C4260 1.410 . S
C4259 C4267 1.503 . S
C4260 C4259 1.410 . S
C4260 C4261 1.392 . S
C4260 C4263 1.511 . S
C4261 C4257 1.376 . S
C4261 C4260 1.392 . S
C4261 H4273 0.929 . S
C4262 C4258 1.531 . S
C4262 H4274 0.960 . S
C4262 H4275 0.962 . S
C4262 H4276 0.960 . S
C4263 C4260 1.511 . S
C4263 H4277 0.961 . S
C4263 H4278 0.961 . S
C4263 H4279 0.961 . S
C4264 C4265 1.370 . S
C4264 C4266 1.363 . S
C4264 H4280 0.931 . S
C4265 C4264 1.370 . S
C4265 C4269 1.408 . S
C4266 C4264 1.363 . S
C4266 C4267 1.370 . S
C4266 C4270 1.524 . S
C4267 C4259 1.503 . S
C4267 C4266 1.370 . S
C4267 C4268 1.403 . S
C4268 C4267 1.403 . S
C4268 C4269 1.404 . S
C4268 C4271 1.539 . S
C4269 C4265 1.408 . S
C4269 C4268 1.404 . S
C4269 H4281 0.930 . S
C4270 C4266 1.524 . S
C4270 H4282 0.956 . S
C4270 H4283 0.961 . S
C4270 H4284 0.961 . S
C4271 C4268 1.539 . S
C4271 H4285 0.958 . S
C4271 H4286 0.961 . S
C4271 H4287 0.960 . S
H4272 C4256 0.931 . S
H4273 C4261 0.929 . S
H4274 C4262 0.960 . S
H4275 C4262 0.962 . S
H4276 C4262 0.960 . S
H4277 C4263 0.961 . S
H4278 C4263 0.961 . S
H4279 C4263 0.961 . S
H4280 C4264 0.931 . S
H4281 C4269 0.930 . S
H4282 C4270 0.956 . S
H4283 C4270 0.961 . S
H4284 C4270 0.961 . S
H4285 C4271 0.958 . S
H4286 C4271 0.961 . S
H4287 C4271 0.960 . S
C4288 C4289 1.391 . S
C4288 C4290 1.394 . S
C4288 H4304 0.931 . S
C4289 C4288 1.391 . S
C4289 C4293 1.376 . S
C4290 C4288 1.394 . S
C4290 C4291 1.369 . S
C4290 C4294 1.531 . S
C4291 C4290 1.369 . S
C4291 C4292 1.410 . S
C4291 C4299 1.503 . S
C4292 C4291 1.410 . S
C4292 C4293 1.392 . S
C4292 C4295 1.511 . S
C4293 C4289 1.376 . S
C4293 C4292 1.392 . S
C4293 H4305 0.929 . S
C4294 C4290 1.531 . S
C4294 H4306 0.960 . S
C4294 H4307 0.962 . S
C4294 H4308 0.960 . S
C4295 C4292 1.511 . S
C4295 H4309 0.961 . S
C4295 H4310 0.961 . S
C4295 H4311 0.961 . S
C4296 C4297 1.370 . S
C4296 C4298 1.363 . S
C4296 H4312 0.931 . S
C4297 C4296 1.370 . S
C4297 C4301 1.408 . S
C4298 C4296 1.363 . S
C4298 C4299 1.370 . S
C4298 C4302 1.524 . S
C4299 C4291 1.503 . S
C4299 C4298 1.370 . S
C4299 C4300 1.403 . S
C4300 C4299 1.403 . S
C4300 C4301 1.404 . S
C4300 C4303 1.539 . S
C4301 C4297 1.408 . S
C4301 C4300 1.404 . S
C4301 H4313 0.930 . S
C4302 C4298 1.524 . S
C4302 H4314 0.956 . S
C4302 H4315 0.961 . S
C4302 H4316 0.961 . S
C4303 C4300 1.539 . S
C4303 H4317 0.958 . S
C4303 H4318 0.961 . S
C4303 H4319 0.960 . S
H4304 C4288 0.931 . S
H4305 C4293 0.929 . S
H4306 C4294 0.960 . S
H4307 C4294 0.962 . S
H4308 C4294 0.960 . S
H4309 C4295 0.961 . S
H4310 C4295 0.961 . S
H4311 C4295 0.961 . S
H4312 C4296 0.931 . S
H4313 C4301 0.930 . S
H4314 C4302 0.956 . S
H4315 C4302 0.961 . S
H4316 C4302 0.961 . S
H4317 C4303 0.958 . S
H4318 C4303 0.961 . S
H4319 C4303 0.960 . S
C4320 C4321 1.391 . S
C4320 C4322 1.394 . S
C4320 H4336 0.931 . S
C4321 C4320 1.391 . S
C4321 C4325 1.376 . S
C4322 C4320 1.394 . S
C4322 C4323 1.369 . S
C4322 C4326 1.531 . S
C4323 C4322 1.369 . S
C4323 C4324 1.410 . S
C4323 C4331 1.503 . S
C4324 C4323 1.410 . S
C4324 C4325 1.392 . S
C4324 C4327 1.511 . S
C4325 C4321 1.376 . S
C4325 C4324 1.392 . S
C4325 H4337 0.929 . S
C4326 C4322 1.531 . S
C4326 H4338 0.960 . S
C4326 H4339 0.962 . S
C4326 H4340 0.960 . S
C4327 C4324 1.511 . S
C4327 H4341 0.961 . S
C4327 H4342 0.961 . S
C4327 H4343 0.961 . S
C4328 C4329 1.370 . S
C4328 C4330 1.363 . S
C4328 H4344 0.931 . S
C4329 C4328 1.370 . S
C4329 C4333 1.408 . S
C4330 C4328 1.363 . S
C4330 C4331 1.370 . S
C4330 C4334 1.524 . S
C4331 C4323 1.503 . S
C4331 C4330 1.370 . S
C4331 C4332 1.403 . S
C4332 C4331 1.403 . S
C4332 C4333 1.404 . S
C4332 C4335 1.539 . S
C4333 C4329 1.408 . S
C4333 C4332 1.404 . S
C4333 H4345 0.930 . S
C4334 C4330 1.524 . S
C4334 H4346 0.956 . S
C4334 H4347 0.961 . S
C4334 H4348 0.961 1_455 S
C4335 C4332 1.539 . S
C4335 H4349 0.958 . S
C4335 H4350 0.961 . S
C4335 H4351 0.960 . S
H4336 C4320 0.931 . S
H4337 C4325 0.929 . S
H4338 C4326 0.960 . S
H4339 C4326 0.962 . S
H4340 C4326 0.960 . S
H4341 C4327 0.961 . S
H4342 C4327 0.961 . S
H4343 C4327 0.961 . S
H4344 C4328 0.931 . S
H4345 C4333 0.930 . S
H4346 C4334 0.956 . S
H4347 C4334 0.961 . S
H4348 C4334 0.961 1_655 S
H4349 C4335 0.958 . S
H4350 C4335 0.961 . S
H4351 C4335 0.960 . S
C4352 C4353 1.391 . S
C4352 C4354 1.394 . S
C4352 H4368 0.931 . S
C4353 C4352 1.391 . S
C4353 C4357 1.376 . S
C4354 C4352 1.394 . S
C4354 C4355 1.369 . S
C4354 C4358 1.531 . S
C4355 C4354 1.369 . S
C4355 C4356 1.410 . S
C4355 C4363 1.503 . S
C4356 C4355 1.410 . S
C4356 C4357 1.392 . S
C4356 C4359 1.511 . S
C4357 C4353 1.376 . S
C4357 C4356 1.392 . S
C4357 H4369 0.929 . S
C4358 C4354 1.531 . S
C4358 H4370 0.960 . S
C4358 H4371 0.962 . S
C4358 H4372 0.960 . S
C4359 C4356 1.511 . S
C4359 H4373 0.961 . S
C4359 H4374 0.961 . S
C4359 H4375 0.961 . S
C4360 C4361 1.370 . S
C4360 C4362 1.363 . S
C4360 H4376 0.931 . S
C4361 C4360 1.370 . S
C4361 C4365 1.408 . S
C4362 C4360 1.363 . S
C4362 C4363 1.370 . S
C4362 C4366 1.524 . S
C4363 C4355 1.503 . S
C4363 C4362 1.370 . S
C4363 C4364 1.403 . S
C4364 C4363 1.403 . S
C4364 C4365 1.404 . S
C4364 C4367 1.539 . S
C4365 C4361 1.408 . S
C4365 C4364 1.404 . S
C4365 H4377 0.930 . S
C4366 C4362 1.524 . S
C4366 H4378 0.956 . S
C4366 H4379 0.961 . S
C4366 H4380 0.961 . S
C4367 C4364 1.539 . S
C4367 H4381 0.958 . S
C4367 H4382 0.961 . S
C4367 H4383 0.960 . S
H4368 C4352 0.931 . S
H4369 C4357 0.929 . S
H4370 C4358 0.960 . S
H4371 C4358 0.962 . S
H4372 C4358 0.960 . S
H4373 C4359 0.961 . S
H4374 C4359 0.961 . S
H4375 C4359 0.961 . S
H4376 C4360 0.931 . S
H4377 C4365 0.930 . S
H4378 C4366 0.956 . S
H4379 C4366 0.961 . S
H4380 C4366 0.961 . S
H4381 C4367 0.958 . S
H4382 C4367 0.961 . S
H4383 C4367 0.960 . S
C4384 C4385 1.391 . S
C4384 C4386 1.394 . S
C4384 H4400 0.931 . S
C4385 C4384 1.391 . S
C4385 C4389 1.376 . S
C4386 C4384 1.394 . S
C4386 C4387 1.369 . S
C4386 C4390 1.531 . S
C4387 C4386 1.369 . S
C4387 C4388 1.410 . S
C4387 C4395 1.503 . S
C4388 C4387 1.410 . S
C4388 C4389 1.392 . S
C4388 C4391 1.511 . S
C4389 C4385 1.376 . S
C4389 C4388 1.392 . S
C4389 H4401 0.929 . S
C4390 C4386 1.531 . S
C4390 H4402 0.960 . S
C4390 H4403 0.962 . S
C4390 H4404 0.960 . S
C4391 C4388 1.511 . S
C4391 H4405 0.961 . S
C4391 H4406 0.961 . S
C4391 H4407 0.961 . S
C4392 C4393 1.370 . S
C4392 C4394 1.363 . S
C4392 H4408 0.931 . S
C4393 C4392 1.370 . S
C4393 C4397 1.408 . S
C4394 C4392 1.363 . S
C4394 C4395 1.370 . S
C4394 C4398 1.524 . S
C4395 C4387 1.503 . S
C4395 C4394 1.370 . S
C4395 C4396 1.403 . S
C4396 C4395 1.403 . S
C4396 C4397 1.404 . S
C4396 C4399 1.539 . S
C4397 C4393 1.408 . S
C4397 C4396 1.404 . S
C4397 H4409 0.930 . S
C4398 C4394 1.524 . S
C4398 H4410 0.956 . S
C4398 H4411 0.961 . S
C4398 H4412 0.961 . S
C4399 C4396 1.539 . S
C4399 H4413 0.958 . S
C4399 H4414 0.961 1_655 S
C4399 H4415 0.960 . S
H4400 C4384 0.931 . S
H4401 C4389 0.929 . S
H4402 C4390 0.960 . S
H4403 C4390 0.962 . S
H4404 C4390 0.960 . S
H4405 C4391 0.961 . S
H4406 C4391 0.961 . S
H4407 C4391 0.961 . S
H4408 C4392 0.931 . S
H4409 C4397 0.930 . S
H4410 C4398 0.956 . S
H4411 C4398 0.961 . S
H4412 C4398 0.961 . S
H4413 C4399 0.958 . S
H4414 C4399 0.961 1_455 S
H4415 C4399 0.960 . S
C4416 C4417 1.391 . S
C4416 C4418 1.394 . S
C4416 H4432 0.931 . S
C4417 C4416 1.391 . S
C4417 C4421 1.376 . S
C4418 C4416 1.394 . S
C4418 C4419 1.369 . S
C4418 C4422 1.531 . S
C4419 C4418 1.369 . S
C4419 C4420 1.410 . S
C4419 C4427 1.503 . S
C4420 C4419 1.410 . S
C4420 C4421 1.392 . S
C4420 C4423 1.511 . S
C4421 C4417 1.376 . S
C4421 C4420 1.392 . S
C4421 H4433 0.929 . S
C4422 C4418 1.531 . S
C4422 H4434 0.960 . S
C4422 H4435 0.962 . S
C4422 H4436 0.960 . S
C4423 C4420 1.511 . S
C4423 H4437 0.961 . S
C4423 H4438 0.961 . S
C4423 H4439 0.961 . S
C4424 C4425 1.370 . S
C4424 C4426 1.363 . S
C4424 H4440 0.931 . S
C4425 C4424 1.370 . S
C4425 C4429 1.408 . S
C4426 C4424 1.363 . S
C4426 C4427 1.370 . S
C4426 C4430 1.524 . S
C4427 C4419 1.503 . S
C4427 C4426 1.370 . S
C4427 C4428 1.403 . S
C4428 C4427 1.403 . S
C4428 C4429 1.404 . S
C4428 C4431 1.539 . S
C4429 C4425 1.408 . S
C4429 C4428 1.404 . S
C4429 H4441 0.930 . S
C4430 C4426 1.524 . S
C4430 H4442 0.956 . S
C4430 H4443 0.961 . S
C4430 H4444 0.961 . S
C4431 C4428 1.539 . S
C4431 H4445 0.958 . S
C4431 H4446 0.961 . S
C4431 H4447 0.960 . S
H4432 C4416 0.931 . S
H4433 C4421 0.929 . S
H4434 C4422 0.960 . S
H4435 C4422 0.962 . S
H4436 C4422 0.960 . S
H4437 C4423 0.961 . S
H4438 C4423 0.961 . S
H4439 C4423 0.961 . S
H4440 C4424 0.931 . S
H4441 C4429 0.930 . S
H4442 C4430 0.956 . S
H4443 C4430 0.961 . S
H4444 C4430 0.961 . S
H4445 C4431 0.958 . S
H4446 C4431 0.961 . S
H4447 C4431 0.960 . S
C4448 C4449 1.391 . S
C4448 C4450 1.394 . S
C4448 H4464 0.931 . S
C4449 C4448 1.391 . S
C4449 C4453 1.376 . S
C4450 C4448 1.394 . S
C4450 C4451 1.369 . S
C4450 C4454 1.531 . S
C4451 C4450 1.369 . S
C4451 C4452 1.410 . S
C4451 C4459 1.503 . S
C4452 C4451 1.410 . S
C4452 C4453 1.392 . S
C4452 C4455 1.511 . S
C4453 C4449 1.376 . S
C4453 C4452 1.392 . S
C4453 H4465 0.929 . S
C4454 C4450 1.531 . S
C4454 H4466 0.960 . S
C4454 H4467 0.962 . S
C4454 H4468 0.960 . S
C4455 C4452 1.511 . S
C4455 H4469 0.961 . S
C4455 H4470 0.961 . S
C4455 H4471 0.961 1_455 S
C4456 C4457 1.370 . S
C4456 C4458 1.363 . S
C4456 H4472 0.931 . S
C4457 C4456 1.370 . S
C4457 C4461 1.408 . S
C4458 C4456 1.363 . S
C4458 C4459 1.370 . S
C4458 C4462 1.524 . S
C4459 C4451 1.503 . S
C4459 C4458 1.370 . S
C4459 C4460 1.403 . S
C4460 C4459 1.403 . S
C4460 C4461 1.404 . S
C4460 C4463 1.539 . S
C4461 C4457 1.408 . S
C4461 C4460 1.404 . S
C4461 H4473 0.930 . S
C4462 C4458 1.524 . S
C4462 H4474 0.956 . S
C4462 H4475 0.961 . S
C4462 H4476 0.961 . S
C4463 C4460 1.539 . S
C4463 H4477 0.958 . S
C4463 H4478 0.961 1_455 S
C4463 H4479 0.960 . S
H4464 C4448 0.931 . S
H4465 C4453 0.929 . S
H4466 C4454 0.960 . S
H4467 C4454 0.962 . S
H4468 C4454 0.960 . S
H4469 C4455 0.961 . S
H4470 C4455 0.961 . S
H4471 C4455 0.961 1_655 S
H4472 C4456 0.931 . S
H4473 C4461 0.930 . S
H4474 C4462 0.956 . S
H4475 C4462 0.961 . S
H4476 C4462 0.961 . S
H4477 C4463 0.958 . S
H4478 C4463 0.961 1_655 S
H4479 C4463 0.960 . S
C4480 C4481 1.391 . S
C4480 C4482 1.394 . S
C4480 H4496 0.931 . S
C4481 C4480 1.391 . S
C4481 C4485 1.376 . S
C4482 C4480 1.394 . S
C4482 C4483 1.369 . S
C4482 C4486 1.531 . S
C4483 C4482 1.369 . S
C4483 C4484 1.410 . S
C4483 C4491 1.503 . S
C4484 C4483 1.410 . S
C4484 C4485 1.392 . S
C4484 C4487 1.511 . S
C4485 C4481 1.376 . S
C4485 C4484 1.392 . S
C4485 H4497 0.929 . S
C4486 C4482 1.531 . S
C4486 H4498 0.960 . S
C4486 H4499 0.962 . S
C4486 H4500 0.960 . S
C4487 C4484 1.511 . S
C4487 H4501 0.961 . S
C4487 H4502 0.961 . S
C4487 H4503 0.961 . S
C4488 C4489 1.370 . S
C4488 C4490 1.363 . S
C4488 H4504 0.931 . S
C4489 C4488 1.370 . S
C4489 C4493 1.408 . S
C4490 C4488 1.363 . S
C4490 C4491 1.370 . S
C4490 C4494 1.524 . S
C4491 C4483 1.503 . S
C4491 C4490 1.370 . S
C4491 C4492 1.403 . S
C4492 C4491 1.403 . S
C4492 C4493 1.404 . S
C4492 C4495 1.539 . S
C4493 C4489 1.408 . S
C4493 C4492 1.404 . S
C4493 H4505 0.930 . S
C4494 C4490 1.524 . S
C4494 H4506 0.956 . S
C4494 H4507 0.961 . S
C4494 H4508 0.961 . S
C4495 C4492 1.539 . S
C4495 H4509 0.958 . S
C4495 H4510 0.961 . S
C4495 H4511 0.960 . S
H4496 C4480 0.931 . S
H4497 C4485 0.929 . S
H4498 C4486 0.960 . S
H4499 C4486 0.962 . S
H4500 C4486 0.960 . S
H4501 C4487 0.961 . S
H4502 C4487 0.961 . S
H4503 C4487 0.961 . S
H4504 C4488 0.931 . S
H4505 C4493 0.930 . S
H4506 C4494 0.956 . S
H4507 C4494 0.961 . S
H4508 C4494 0.961 . S
H4509 C4495 0.958 . S
H4510 C4495 0.961 . S
H4511 C4495 0.960 . S
C4512 C4513 1.391 . S
C4512 C4514 1.394 . S
C4512 H4528 0.931 . S
C4513 C4512 1.391 . S
C4513 C4517 1.376 . S
C4514 C4512 1.394 . S
C4514 C4515 1.369 . S
C4514 C4518 1.531 . S
C4515 C4514 1.369 . S
C4515 C4516 1.410 . S
C4515 C4523 1.503 . S
C4516 C4515 1.410 . S
C4516 C4517 1.392 . S
C4516 C4519 1.511 . S
C4517 C4513 1.376 . S
C4517 C4516 1.392 . S
C4517 H4529 0.929 . S
C4518 C4514 1.531 . S
C4518 H4530 0.960 . S
C4518 H4531 0.962 . S
C4518 H4532 0.960 . S
C4519 C4516 1.511 . S
C4519 H4533 0.961 . S
C4519 H4534 0.961 . S
C4519 H4535 0.961 . S
C4520 C4521 1.370 . S
C4520 C4522 1.363 . S
C4520 H4536 0.931 . S
C4521 C4520 1.370 . S
C4521 C4525 1.408 . S
C4522 C4520 1.363 . S
C4522 C4523 1.370 . S
C4522 C4526 1.524 . S
C4523 C4515 1.503 . S
C4523 C4522 1.370 . S
C4523 C4524 1.403 . S
C4524 C4523 1.403 . S
C4524 C4525 1.404 . S
C4524 C4527 1.539 . S
C4525 C4521 1.408 . S
C4525 C4524 1.404 . S
C4525 H4537 0.930 . S
C4526 C4522 1.524 . S
C4526 H4538 0.956 . S
C4526 H4539 0.961 . S
C4526 H4540 0.961 . S
C4527 C4524 1.539 . S
C4527 H4541 0.958 . S
C4527 H4542 0.961 . S
C4527 H4543 0.960 . S
H4528 C4512 0.931 . S
H4529 C4517 0.929 . S
H4530 C4518 0.960 . S
H4531 C4518 0.962 . S
H4532 C4518 0.960 . S
H4533 C4519 0.961 . S
H4534 C4519 0.961 . S
H4535 C4519 0.961 . S
H4536 C4520 0.931 . S
H4537 C4525 0.930 . S
H4538 C4526 0.956 . S
H4539 C4526 0.961 . S
H4540 C4526 0.961 . S
H4541 C4527 0.958 . S
H4542 C4527 0.961 . S
H4543 C4527 0.960 . S
C4544 C4545 1.391 . S
C4544 C4546 1.394 . S
C4544 H4560 0.931 . S
C4545 C4544 1.391 . S
C4545 C4549 1.376 . S
C4546 C4544 1.394 . S
C4546 C4547 1.369 . S
C4546 C4550 1.531 . S
C4547 C4546 1.369 . S
C4547 C4548 1.410 . S
C4547 C4555 1.503 . S
C4548 C4547 1.410 . S
C4548 C4549 1.392 . S
C4548 C4551 1.511 . S
C4549 C4545 1.376 . S
C4549 C4548 1.392 . S
C4549 H4561 0.929 . S
C4550 C4546 1.531 . S
C4550 H4562 0.960 . S
C4550 H4563 0.962 . S
C4550 H4564 0.960 . S
C4551 C4548 1.511 . S
C4551 H4565 0.961 . S
C4551 H4566 0.961 . S
C4551 H4567 0.961 . S
C4552 C4553 1.370 . S
C4552 C4554 1.363 . S
C4552 H4568 0.931 . S
C4553 C4552 1.370 . S
C4553 C4557 1.408 . S
C4554 C4552 1.363 . S
C4554 C4555 1.370 . S
C4554 C4558 1.524 . S
C4555 C4547 1.503 . S
C4555 C4554 1.370 . S
C4555 C4556 1.403 . S
C4556 C4555 1.403 . S
C4556 C4557 1.404 . S
C4556 C4559 1.539 . S
C4557 C4553 1.408 . S
C4557 C4556 1.404 . S
C4557 H4569 0.930 . S
C4558 C4554 1.524 . S
C4558 H4570 0.956 . S
C4558 H4571 0.961 . S
C4558 H4572 0.961 . S
C4559 C4556 1.539 . S
C4559 H4573 0.958 . S
C4559 H4574 0.961 . S
C4559 H4575 0.960 . S
H4560 C4544 0.931 . S
H4561 C4549 0.929 . S
H4562 C4550 0.960 . S
H4563 C4550 0.962 . S
H4564 C4550 0.960 . S
H4565 C4551 0.961 . S
H4566 C4551 0.961 . S
H4567 C4551 0.961 . S
H4568 C4552 0.931 . S
H4569 C4557 0.930 . S
H4570 C4558 0.956 . S
H4571 C4558 0.961 . S
H4572 C4558 0.961 . S
H4573 C4559 0.958 . S
H4574 C4559 0.961 . S
H4575 C4559 0.960 . S
C4576 C4577 1.391 . S
C4576 C4578 1.394 . S
C4576 H4592 0.931 . S
C4577 C4576 1.391 . S
C4577 C4581 1.376 . S
C4578 C4576 1.394 . S
C4578 C4579 1.369 . S
C4578 C4582 1.531 . S
C4579 C4578 1.369 . S
C4579 C4580 1.410 . S
C4579 C4587 1.503 . S
C4580 C4579 1.410 . S
C4580 C4581 1.392 . S
C4580 C4583 1.511 . S
C4581 C4577 1.376 . S
C4581 C4580 1.392 . S
C4581 H4593 0.929 . S
C4582 C4578 1.531 . S
C4582 H4594 0.960 . S
C4582 H4595 0.962 . S
C4582 H4596 0.960 . S
C4583 C4580 1.511 . S
C4583 H4597 0.961 . S
C4583 H4598 0.961 . S
C4583 H4599 0.961 . S
C4584 C4585 1.370 . S
C4584 C4586 1.363 . S
C4584 H4600 0.931 . S
C4585 C4584 1.370 . S
C4585 C4589 1.408 . S
C4586 C4584 1.363 . S
C4586 C4587 1.370 . S
C4586 C4590 1.524 . S
C4587 C4579 1.503 . S
C4587 C4586 1.370 . S
C4587 C4588 1.403 . S
C4588 C4587 1.403 . S
C4588 C4589 1.404 . S
C4588 C4591 1.539 . S
C4589 C4585 1.408 . S
C4589 C4588 1.404 . S
C4589 H4601 0.930 . S
C4590 C4586 1.524 . S
C4590 H4602 0.956 . S
C4590 H4603 0.961 . S
C4590 H4604 0.961 . S
C4591 C4588 1.539 . S
C4591 H4605 0.958 . S
C4591 H4606 0.961 . S
C4591 H4607 0.960 . S
H4592 C4576 0.931 . S
H4593 C4581 0.929 . S
H4594 C4582 0.960 . S
H4595 C4582 0.962 . S
H4596 C4582 0.960 . S
H4597 C4583 0.961 . S
H4598 C4583 0.961 . S
H4599 C4583 0.961 . S
H4600 C4584 0.931 . S
H4601 C4589 0.930 . S
H4602 C4590 0.956 . S
H4603 C4590 0.961 . S
H4604 C4590 0.961 . S
H4605 C4591 0.958 . S
H4606 C4591 0.961 . S
H4607 C4591 0.960 . S
C4608 C4609 1.391 . S
C4608 C4610 1.394 . S
C4608 H4624 0.931 . S
C4609 C4608 1.391 . S
C4609 C4613 1.376 . S
C4610 C4608 1.394 . S
C4610 C4611 1.369 . S
C4610 C4614 1.531 . S
C4611 C4610 1.369 . S
C4611 C4612 1.410 . S
C4611 C4619 1.503 . S
C4612 C4611 1.410 . S
C4612 C4613 1.392 . S
C4612 C4615 1.511 . S
C4613 C4609 1.376 . S
C4613 C4612 1.392 . S
C4613 H4625 0.929 . S
C4614 C4610 1.531 . S
C4614 H4626 0.960 . S
C4614 H4627 0.962 . S
C4614 H4628 0.960 . S
C4615 C4612 1.511 . S
C4615 H4629 0.961 . S
C4615 H4630 0.961 . S
C4615 H4631 0.961 . S
C4616 C4617 1.370 . S
C4616 C4618 1.363 . S
C4616 H4632 0.931 . S
C4617 C4616 1.370 . S
C4617 C4621 1.408 . S
C4618 C4616 1.363 . S
C4618 C4619 1.370 . S
C4618 C4622 1.524 . S
C4619 C4611 1.503 . S
C4619 C4618 1.370 . S
C4619 C4620 1.403 . S
C4620 C4619 1.403 . S
C4620 C4621 1.404 . S
C4620 C4623 1.539 . S
C4621 C4617 1.408 . S
C4621 C4620 1.404 . S
C4621 H4633 0.930 . S
C4622 C4618 1.524 . S
C4622 H4634 0.956 . S
C4622 H4635 0.961 . S
C4622 H4636 0.961 . S
C4623 C4620 1.539 . S
C4623 H4637 0.958 . S
C4623 H4638 0.961 . S
C4623 H4639 0.960 . S
H4624 C4608 0.931 . S
H4625 C4613 0.929 . S
H4626 C4614 0.960 . S
H4627 C4614 0.962 . S
H4628 C4614 0.960 . S
H4629 C4615 0.961 . S
H4630 C4615 0.961 . S
H4631 C4615 0.961 . S
H4632 C4616 0.931 . S
H4633 C4621 0.930 . S
H4634 C4622 0.956 . S
H4635 C4622 0.961 . S
H4636 C4622 0.961 . S
H4637 C4623 0.958 . S
H4638 C4623 0.961 . S
H4639 C4623 0.960 . S
C4640 C4641 1.391 . S
C4640 C4642 1.394 . S
C4640 H4656 0.931 . S
C4641 C4640 1.391 . S
C4641 C4645 1.376 . S
C4642 C4640 1.394 . S
C4642 C4643 1.369 . S
C4642 C4646 1.531 . S
C4643 C4642 1.369 . S
C4643 C4644 1.410 . S
C4643 C4651 1.503 . S
C4644 C4643 1.410 . S
C4644 C4645 1.392 . S
C4644 C4647 1.511 . S
C4645 C4641 1.376 . S
C4645 C4644 1.392 . S
C4645 H4657 0.929 . S
C4646 C4642 1.531 . S
C4646 H4658 0.960 . S
C4646 H4659 0.962 . S
C4646 H4660 0.960 . S
C4647 C4644 1.511 . S
C4647 H4661 0.961 . S
C4647 H4662 0.961 . S
C4647 H4663 0.961 . S
C4648 C4649 1.370 . S
C4648 C4650 1.363 . S
C4648 H4664 0.931 . S
C4649 C4648 1.370 . S
C4649 C4653 1.408 . S
C4650 C4648 1.363 . S
C4650 C4651 1.370 . S
C4650 C4654 1.524 . S
C4651 C4643 1.503 . S
C4651 C4650 1.370 . S
C4651 C4652 1.403 . S
C4652 C4651 1.403 . S
C4652 C4653 1.404 . S
C4652 C4655 1.539 . S
C4653 C4649 1.408 . S
C4653 C4652 1.404 . S
C4653 H4665 0.930 . S
C4654 C4650 1.524 . S
C4654 H4666 0.956 . S
C4654 H4667 0.961 . S
C4654 H4668 0.961 . S
C4655 C4652 1.539 . S
C4655 H4669 0.958 . S
C4655 H4670 0.961 . S
C4655 H4671 0.960 . S
H4656 C4640 0.931 . S
H4657 C4645 0.929 . S
H4658 C4646 0.960 . S
H4659 C4646 0.962 . S
H4660 C4646 0.960 . S
H4661 C4647 0.961 . S
H4662 C4647 0.961 . S
H4663 C4647 0.961 . S
H4664 C4648 0.931 . S
H4665 C4653 0.930 . S
H4666 C4654 0.956 . S
H4667 C4654 0.961 . S
H4668 C4654 0.961 . S
H4669 C4655 0.958 . S
H4670 C4655 0.961 . S
H4671 C4655 0.960 . S
C4672 C4673 1.391 . S
C4672 C4674 1.394 . S
C4672 H4688 0.931 . S
C4673 C4672 1.391 . S
C4673 C4677 1.376 . S
C4674 C4672 1.394 . S
C4674 C4675 1.369 . S
C4674 C4678 1.531 . S
C4675 C4674 1.369 . S
C4675 C4676 1.410 . S
C4675 C4683 1.503 . S
C4676 C4675 1.410 . S
C4676 C4677 1.392 . S
C4676 C4679 1.511 . S
C4677 C4673 1.376 . S
C4677 C4676 1.392 . S
C4677 H4689 0.929 . S
C4678 C4674 1.531 . S
C4678 H4690 0.960 . S
C4678 H4691 0.962 . S
C4678 H4692 0.960 . S
C4679 C4676 1.511 . S
C4679 H4693 0.961 . S
C4679 H4694 0.961 . S
C4679 H4695 0.961 . S
C4680 C4681 1.370 . S
C4680 C4682 1.363 . S
C4680 H4696 0.931 . S
C4681 C4680 1.370 . S
C4681 C4685 1.408 . S
C4682 C4680 1.363 . S
C4682 C4683 1.370 . S
C4682 C4686 1.524 . S
C4683 C4675 1.503 . S
C4683 C4682 1.370 . S
C4683 C4684 1.403 . S
C4684 C4683 1.403 . S
C4684 C4685 1.404 . S
C4684 C4687 1.539 . S
C4685 C4681 1.408 . S
C4685 C4684 1.404 . S
C4685 H4697 0.930 . S
C4686 C4682 1.524 . S
C4686 H4698 0.956 . S
C4686 H4699 0.961 . S
C4686 H4700 0.961 . S
C4687 C4684 1.539 . S
C4687 H4701 0.958 . S
C4687 H4702 0.961 . S
C4687 H4703 0.960 . S
H4688 C4672 0.931 . S
H4689 C4677 0.929 . S
H4690 C4678 0.960 . S
H4691 C4678 0.962 . S
H4692 C4678 0.960 . S
H4693 C4679 0.961 . S
H4694 C4679 0.961 . S
H4695 C4679 0.961 . S
H4696 C4680 0.931 . S
H4697 C4685 0.930 . S
H4698 C4686 0.956 . S
H4699 C4686 0.961 . S
H4700 C4686 0.961 . S
H4701 C4687 0.958 . S
H4702 C4687 0.961 . S
H4703 C4687 0.960 . S
C4704 C4705 1.391 . S
C4704 C4706 1.394 . S
C4704 H4720 0.931 . S
C4705 C4704 1.391 . S
C4705 C4709 1.376 . S
C4706 C4704 1.394 . S
C4706 C4707 1.369 . S
C4706 C4710 1.531 . S
C4707 C4706 1.369 . S
C4707 C4708 1.410 . S
C4707 C4715 1.503 . S
C4708 C4707 1.410 . S
C4708 C4709 1.392 . S
C4708 C4711 1.511 . S
C4709 C4705 1.376 . S
C4709 C4708 1.392 . S
C4709 H4721 0.929 . S
C4710 C4706 1.531 . S
C4710 H4722 0.960 . S
C4710 H4723 0.962 . S
C4710 H4724 0.960 . S
C4711 C4708 1.511 . S
C4711 H4725 0.961 . S
C4711 H4726 0.961 . S
C4711 H4727 0.961 . S
C4712 C4713 1.370 . S
C4712 C4714 1.363 . S
C4712 H4728 0.931 . S
C4713 C4712 1.370 . S
C4713 C4717 1.408 . S
C4714 C4712 1.363 . S
C4714 C4715 1.370 . S
C4714 C4718 1.524 . S
C4715 C4707 1.503 . S
C4715 C4714 1.370 . S
C4715 C4716 1.403 . S
C4716 C4715 1.403 . S
C4716 C4717 1.404 . S
C4716 C4719 1.539 . S
C4717 C4713 1.408 . S
C4717 C4716 1.404 . S
C4717 H4729 0.930 . S
C4718 C4714 1.524 . S
C4718 H4730 0.956 . S
C4718 H4731 0.961 . S
C4718 H4732 0.961 . S
C4719 C4716 1.539 . S
C4719 H4733 0.958 . S
C4719 H4734 0.961 . S
C4719 H4735 0.960 . S
H4720 C4704 0.931 . S
H4721 C4709 0.929 . S
H4722 C4710 0.960 . S
H4723 C4710 0.962 . S
H4724 C4710 0.960 . S
H4725 C4711 0.961 . S
H4726 C4711 0.961 . S
H4727 C4711 0.961 . S
H4728 C4712 0.931 . S
H4729 C4717 0.930 . S
H4730 C4718 0.956 . S
H4731 C4718 0.961 . S
H4732 C4718 0.961 . S
H4733 C4719 0.958 . S
H4734 C4719 0.961 . S
H4735 C4719 0.960 . S
C4736 C4737 1.391 . S
C4736 C4738 1.394 . S
C4736 H4752 0.931 1_556 S
C4737 C4736 1.391 . S
C4737 C4741 1.376 1_565 S
C4738 C4736 1.394 . S
C4738 C4739 1.378 . S
C4738 C4742 1.531 . S
C4739 C4738 1.378 . S
C4739 C4740 1.400 1_565 S
C4739 C4747 1.504 . S
C4740 C4739 1.400 1_545 S
C4740 C4741 1.392 . S
C4740 C4743 1.511 . S
C4741 C4737 1.376 1_545 S
C4741 C4740 1.392 . S
C4741 H4753 0.929 . S
C4742 C4738 1.531 . S
C4742 H4754 0.960 . S
C4742 H4755 0.962 . S
C4742 H4756 0.960 . S
C4743 C4740 1.511 . S
C4743 H4757 0.961 . S
C4743 H4758 0.961 . S
C4743 H4759 0.961 . S
C4744 C4745 1.370 . S
C4744 C4746 1.363 . S
C4744 H4760 0.931 . S
C4745 C4744 1.370 . S
C4745 C4749 1.408 1_565 S
C4746 C4744 1.363 . S
C4746 C4747 1.370 . S
C4746 C4750 1.524 . S
C4747 C4739 1.504 . S
C4747 C4746 1.370 . S
C4747 C4748 1.403 1_565 S
C4748 C4747 1.403 1_545 S
C4748 C4749 1.404 . S
C4748 C4751 1.539 . S
C4749 C4745 1.408 1_545 S
C4749 C4748 1.404 . S
C4749 H4761 0.930 . S
C4750 C4746 1.524 . S
C4750 H4762 0.956 . S
C4750 H4763 0.961 . S
C4750 H4764 0.961 . S
C4751 C4748 1.539 . S
C4751 H4765 0.958 . S
C4751 H4766 0.961 . S
C4751 H4767 0.960 . S
H4752 C4736 0.931 1_554 S
H4753 C4741 0.929 . S
H4754 C4742 0.960 . S
H4755 C4742 0.962 . S
H4756 C4742 0.960 . S
H4757 C4743 0.961 . S
H4758 C4743 0.961 . S
H4759 C4743 0.961 . S
H4760 C4744 0.931 . S
H4761 C4749 0.930 . S
H4762 C4750 0.956 . S
H4763 C4750 0.961 . S
H4764 C4750 0.961 . S
H4765 C4751 0.958 . S
H4766 C4751 0.961 . S
H4767 C4751 0.960 . S
C4768 C4769 1.391 . S
C4768 C4770 1.394 . S
C4768 H4784 0.931 . S
C4769 C4768 1.391 . S
C4769 C4773 1.376 . S
C4770 C4768 1.394 . S
C4770 C4771 1.369 . S
C4770 C4774 1.531 . S
C4771 C4770 1.369 . S
C4771 C4772 1.410 . S
C4771 C4779 1.503 . S
C4772 C4771 1.410 . S
C4772 C4773 1.392 . S
C4772 C4775 1.511 . S
C4773 C4769 1.376 . S
C4773 C4772 1.392 . S
C4773 H4785 0.929 . S
C4774 C4770 1.531 . S
C4774 H4786 0.960 . S
C4774 H4787 0.962 . S
C4774 H4788 0.960 . S
C4775 C4772 1.511 . S
C4775 H4789 0.961 . S
C4775 H4790 0.961 . S
C4775 H4791 0.961 . S
C4776 C4777 1.370 . S
C4776 C4778 1.363 . S
C4776 H4792 0.931 1_556 S
C4777 C4776 1.370 . S
C4777 C4781 1.408 1_455 S
C4778 C4776 1.363 . S
C4778 C4779 1.370 . S
C4778 C4782 1.524 . S
C4779 C4771 1.503 . S
C4779 C4778 1.370 . S
C4779 C4780 1.403 1_455 S
C4780 C4779 1.403 1_655 S
C4780 C4781 1.404 . S
C4780 C4783 1.539 . S
C4781 C4777 1.408 1_655 S
C4781 C4780 1.404 . S
C4781 H4793 0.930 . S
C4782 C4778 1.524 . S
C4782 H4794 0.956 . S
C4782 H4795 0.961 . S
C4782 H4796 0.961 . S
C4783 C4780 1.539 . S
C4783 H4797 0.958 . S
C4783 H4798 0.961 . S
C4783 H4799 0.960 . S
H4784 C4768 0.931 . S
H4785 C4773 0.929 . S
H4786 C4774 0.960 . S
H4787 C4774 0.962 . S
H4788 C4774 0.960 . S
H4789 C4775 0.961 . S
H4790 C4775 0.961 . S
H4791 C4775 0.961 . S
H4792 C4776 0.931 1_554 S
H4793 C4781 0.930 . S
H4794 C4782 0.956 . S
H4795 C4782 0.961 . S
H4796 C4782 0.961 . S
H4797 C4783 0.958 . S
H4798 C4783 0.961 . S
H4799 C4783 0.960 . S
C4800 C4801 1.391 . S
C4800 C4802 1.394 . S
C4800 H4816 0.931 . S
C4801 C4800 1.391 . S
C4801 C4805 1.376 . S
C4802 C4800 1.394 . S
C4802 C4803 1.369 . S
C4802 C4806 1.531 . S
C4803 C4802 1.369 . S
C4803 C4804 1.410 . S
C4803 C4811 1.503 . S
C4804 C4803 1.410 . S
C4804 C4805 1.392 . S
C4804 C4807 1.511 . S
C4805 C4801 1.376 . S
C4805 C4804 1.392 . S
C4805 H4817 0.929 . S
C4806 C4802 1.531 . S
C4806 H4818 0.960 . S
C4806 H4819 0.962 . S
C4806 H4820 0.960 . S
C4807 C4804 1.511 . S
C4807 H4821 0.961 . S
C4807 H4822 0.961 . S
C4807 H4823 0.961 . S
C4808 C4809 1.370 . S
C4808 C4810 1.363 . S
C4808 H4824 0.931 . S
C4809 C4808 1.370 . S
C4809 C4813 1.408 . S
C4810 C4808 1.363 . S
C4810 C4811 1.370 . S
C4810 C4814 1.524 . S
C4811 C4803 1.503 . S
C4811 C4810 1.370 . S
C4811 C4812 1.403 . S
C4812 C4811 1.403 . S
C4812 C4813 1.404 . S
C4812 C4815 1.539 . S
C4813 C4809 1.408 . S
C4813 C4812 1.404 . S
C4813 H4825 0.930 . S
C4814 C4810 1.524 . S
C4814 H4826 0.956 . S
C4814 H4827 0.961 . S
C4814 H4828 0.961 . S
C4815 C4812 1.539 . S
C4815 H4829 0.958 . S
C4815 H4830 0.961 . S
C4815 H4831 0.960 . S
H4816 C4800 0.931 . S
H4817 C4805 0.929 . S
H4818 C4806 0.960 . S
H4819 C4806 0.962 . S
H4820 C4806 0.960 . S
H4821 C4807 0.961 . S
H4822 C4807 0.961 . S
H4823 C4807 0.961 . S
H4824 C4808 0.931 . S
H4825 C4813 0.930 . S
H4826 C4814 0.956 . S
H4827 C4814 0.961 . S
H4828 C4814 0.961 . S
H4829 C4815 0.958 . S
H4830 C4815 0.961 . S
H4831 C4815 0.960 . S
C4832 C4833 1.391 1_655 S
C4832 C4834 1.394 1_655 S
C4832 H4848 0.931 . S
C4833 C4832 1.391 1_455 S
C4833 C4837 1.376 1_565 S
C4834 C4832 1.394 1_455 S
C4834 C4835 1.369 . S
C4834 C4838 1.531 1_455 S
C4835 C4834 1.369 . S
C4835 C4836 1.410 1_565 S
C4835 C4843 1.503 . S
C4836 C4835 1.410 1_545 S
C4836 C4837 1.392 . S
C4836 C4839 1.511 . S
C4837 C4833 1.376 1_545 S
C4837 C4836 1.392 . S
C4837 H4849 0.929 . S
C4838 C4834 1.531 1_655 S
C4838 H4850 0.960 1_655 S
C4838 H4851 0.962 . S
C4838 H4852 0.960 . S
C4839 C4836 1.511 . S
C4839 H4853 0.961 . S
C4839 H4854 0.961 . S
C4839 H4855 0.993 . S
C4840 C4841 1.370 1_545 S
C4840 C4842 1.363 . S
C4840 H4856 0.931 . S
C4841 C4840 1.370 1_565 S
C4841 C4845 1.408 . S
C4842 C4840 1.363 . S
C4842 C4843 1.370 1_545 S
C4842 C4846 1.524 . S
C4843 C4835 1.503 . S
C4843 C4842 1.370 1_565 S
C4843 C4844 1.403 . S
C4844 C4843 1.403 . S
C4844 C4845 1.404 . S
C4844 C4847 1.539 . S
C4845 C4841 1.408 . S
C4845 C4844 1.404 . S
C4845 H4857 0.930 . S
C4846 C4842 1.524 . S
C4846 H4858 0.956 . S
C4846 H4859 0.961 . S
C4846 H4860 0.961 . S
C4847 C4844 1.539 . S
C4847 H4861 0.958 . S
C4847 H4862 0.961 . S
C4847 H4863 0.960 . S
H4848 C4832 0.931 . S
H4849 C4837 0.929 . S
H4850 C4838 0.960 1_455 S
H4851 C4838 0.962 . S
H4852 C4838 0.960 . S
H4853 C4839 0.961 . S
H4854 C4839 0.961 . S
H4855 C4839 0.993 . S
H4856 C4840 0.931 . S
H4857 C4845 0.930 . S
H4858 C4846 0.956 . S
H4859 C4846 0.961 . S
H4860 C4846 0.961 . S
H4861 C4847 0.958 . S
H4862 C4847 0.961 . S
H4863 C4847 0.960 . S
C4864 C4865 1.391 1_565 S
C4864 C4866 1.394 . S
C4864 H4880 0.931 . S
C4865 C4864 1.391 1_545 S
C4865 C4869 1.376 . S
C4866 C4864 1.394 . S
C4866 C4867 1.369 1_565 S
C4866 C4870 1.531 . S
C4867 C4866 1.369 1_545 S
C4867 C4868 1.410 . S
C4867 C4875 1.503 . S
C4868 C4867 1.410 . S
C4868 C4869 1.392 . S
C4868 C4871 1.511 . S
C4869 C4865 1.376 . S
C4869 C4868 1.392 . S
C4869 H4881 0.929 . S
C4870 C4866 1.531 . S
C4870 H4882 0.960 . S
C4870 H4883 0.962 . S
C4870 H4884 0.960 . S
C4871 C4868 1.511 . S
C4871 H4885 0.961 . S
C4871 H4886 0.961 . S
C4871 H4887 0.961 . S
C4872 C4873 1.370 1_565 S
C4872 C4874 1.363 . S
C4872 H4888 0.931 1_554 S
C4873 C4872 1.370 1_545 S
C4873 C4877 1.408 . S
C4874 C4872 1.363 . S
C4874 C4875 1.370 1_565 S
C4874 C4878 1.524 . S
C4875 C4867 1.503 . S
C4875 C4874 1.370 1_545 S
C4875 C4876 1.403 . S
C4876 C4875 1.403 . S
C4876 C4877 1.404 . S
C4876 C4879 1.539 . S
C4877 C4873 1.408 . S
C4877 C4876 1.404 . S
C4877 H4889 0.930 . S
C4878 C4874 1.524 . S
C4878 H4890 0.956 . S
C4878 H4891 0.961 1_565 S
C4878 H4892 0.961 . S
C4879 C4876 1.539 . S
C4879 H4893 0.958 . S
C4879 H4894 0.961 . S
C4879 H4895 0.960 . S
H4880 C4864 0.931 . S
H4881 C4869 0.929 . S
H4882 C4870 0.960 . S
H4883 C4870 0.962 . S
H4884 C4870 0.960 . S
H4885 C4871 0.961 . S
H4886 C4871 0.961 . S
H4887 C4871 0.961 . S
H4888 C4872 0.931 1_556 S
H4889 C4877 0.930 . S
H4890 C4878 0.956 . S
H4891 C4878 0.961 1_545 S
H4892 C4878 0.961 . S
H4893 C4879 0.958 . S
H4894 C4879 0.961 . S
H4895 C4879 0.960 . S
C4896 C4897 1.389 1_655 S
C4896 C4898 1.394 . S
C4896 H4912 0.931 1_554 S
C4897 C4896 1.389 1_455 S
C4897 C4901 1.377 . S
C4898 C4896 1.394 . S
C4898 C4899 1.369 . S
C4898 C4902 1.531 . S
C4899 C4898 1.369 . S
C4899 C4900 1.394 1_655 S
C4899 C4907 1.503 . S
C4900 C4899 1.394 1_455 S
C4900 C4901 1.400 . S
C4900 C4903 1.520 . S
C4901 C4897 1.377 . S
C4901 C4900 1.400 . S
C4901 H4913 0.929 . S
C4902 C4898 1.531 . S
C4902 H4914 0.960 . S
C4902 H4915 0.962 . S
C4902 H4916 0.960 . S
C4903 C4900 1.520 . S
C4903 H4917 0.961 . S
C4903 H4918 0.961 . S
C4903 H4919 0.961 . S
C4904 C4905 1.370 . S
C4904 C4906 1.363 . S
C4904 H4920 0.931 . S
C4905 C4904 1.370 . S
C4905 C4909 1.408 . S
C4906 C4904 1.363 . S
C4906 C4907 1.370 . S
C4906 C4910 1.524 . S
C4907 C4899 1.503 . S
C4907 C4906 1.370 . S
C4907 C4908 1.403 . S
C4908 C4907 1.403 . S
C4908 C4909 1.404 . S
C4908 C4911 1.539 . S
C4909 C4905 1.408 . S
C4909 C4908 1.404 . S
C4909 H4921 0.930 . S
C4910 C4906 1.524 . S
C4910 H4922 0.956 . S
C4910 H4923 0.961 . S
C4910 H4924 0.961 . S
C4911 C4908 1.539 . S
C4911 H4925 0.958 . S
C4911 H4926 0.961 . S
C4911 H4927 0.960 . S
H4912 C4896 0.931 1_556 S
H4913 C4901 0.929 . S
H4914 C4902 0.960 . S
H4915 C4902 0.962 . S
H4916 C4902 0.960 . S
H4917 C4903 0.961 . S
H4918 C4903 0.961 . S
H4919 C4903 0.961 . S
H4920 C4904 0.931 . S
H4921 C4909 0.930 . S
H4922 C4910 0.956 . S
H4923 C4910 0.961 . S
H4924 C4910 0.961 . S
H4925 C4911 0.958 . S
H4926 C4911 0.961 . S
H4927 C4911 0.960 . S
C4928 C4929 1.391 . S
C4928 C4930 1.394 . S
C4928 H4944 0.931 . S
C4929 C4928 1.391 . S
C4929 C4933 1.376 . S
C4930 C4928 1.394 . S
C4930 C4931 1.369 . S
C4930 C4934 1.531 . S
C4931 C4930 1.369 . S
C4931 C4932 1.410 . S
C4931 C4939 1.503 . S
C4932 C4931 1.410 . S
C4932 C4933 1.392 . S
C4932 C4935 1.511 . S
C4933 C4929 1.376 . S
C4933 C4932 1.392 . S
C4933 H4945 0.929 . S
C4934 C4930 1.531 . S
C4934 H4946 0.960 . S
C4934 H4947 0.962 . S
C4934 H4948 0.960 . S
C4935 C4932 1.511 . S
C4935 H4949 0.961 . S
C4935 H4950 0.961 . S
C4935 H4951 0.961 . S
C4936 C4937 1.370 . S
C4936 C4938 1.363 . S
C4936 H4952 0.931 . S
C4937 C4936 1.370 . S
C4937 C4941 1.408 . S
C4938 C4936 1.363 . S
C4938 C4939 1.370 . S
C4938 C4942 1.524 . S
C4939 C4931 1.503 . S
C4939 C4938 1.370 . S
C4939 C4940 1.403 . S
C4940 C4939 1.403 . S
C4940 C4941 1.404 . S
C4940 C4943 1.539 . S
C4941 C4937 1.408 . S
C4941 C4940 1.404 . S
C4941 H4953 0.930 . S
C4942 C4938 1.524 . S
C4942 H4954 0.956 . S
C4942 H4955 0.961 . S
C4942 H4956 0.961 . S
C4943 C4940 1.539 . S
C4943 H4957 0.958 . S
C4943 H4958 0.961 . S
C4943 H4959 0.960 . S
H4944 C4928 0.931 . S
H4945 C4933 0.929 . S
H4946 C4934 0.960 . S
H4947 C4934 0.962 . S
H4948 C4934 0.960 . S
H4949 C4935 0.961 . S
H4950 C4935 0.961 . S
H4951 C4935 0.961 . S
H4952 C4936 0.931 . S
H4953 C4941 0.930 . S
H4954 C4942 0.956 . S
H4955 C4942 0.961 . S
H4956 C4942 0.961 . S
H4957 C4943 0.958 . S
H4958 C4943 0.961 . S
H4959 C4943 0.960 . S
C4960 C4961 1.391 1_565 S
C4960 C4962 1.394 . S
C4960 H4976 0.931 . S
C4961 C4960 1.391 1_545 S
C4961 C4965 1.376 . S
C4962 C4960 1.394 . S
C4962 C4963 1.373 . S
C4962 C4966 1.531 . S
C4963 C4962 1.373 . S
C4963 C4964 1.405 1_565 S
C4963 C4971 1.503 1_565 S
C4964 C4963 1.405 1_545 S
C4964 C4965 1.392 . S
C4964 C4967 1.511 . S
C4965 C4961 1.376 . S
C4965 C4964 1.392 . S
C4965 H4977 0.929 . S
C4966 C4962 1.531 . S
C4966 H4978 0.960 . S
C4966 H4979 0.962 . S
C4966 H4980 0.960 . S
C4967 C4964 1.511 . S
C4967 H4981 0.961 . S
C4967 H4982 0.958 1_655 S
C4967 H4983 0.961 1_655 S
C4968 C4969 1.370 1_655 S
C4968 C4970 1.363 . S
C4968 H4984 0.931 . S
C4969 C4968 1.370 1_455 S
C4969 C4973 1.408 1_545 S
C4970 C4968 1.363 . S
C4970 C4971 1.370 . S
C4970 C4974 1.524 . S
C4971 C4963 1.503 1_545 S
C4971 C4970 1.370 . S
C4971 C4972 1.403 1_545 S
C4972 C4971 1.403 1_565 S
C4972 C4973 1.404 1_655 S
C4972 C4975 1.539 1_655 S
C4973 C4969 1.408 1_565 S
C4973 C4972 1.404 1_455 S
C4973 H4985 0.930 . S
C4974 C4970 1.524 . S
C4974 H4986 0.956 . S
C4974 H4987 0.961 . S
C4974 H4988 0.961 . S
C4975 C4972 1.539 1_455 S
C4975 H4989 0.958 1_455 S
C4975 H4990 0.961 . S
C4975 H4991 0.960 . S
H4976 C4960 0.931 . S
H4977 C4965 0.929 . S
H4978 C4966 0.960 . S
H4979 C4966 0.962 . S
H4980 C4966 0.960 . S
H4981 C4967 0.961 . S
H4982 C4967 0.958 1_455 S
H4983 C4967 0.961 1_455 S
H4984 C4968 0.931 . S
H4985 C4973 0.930 . S
H4986 C4974 0.956 . S
H4987 C4974 0.961 . S
H4988 C4974 0.961 . S
H4989 C4975 0.958 1_655 S
H4990 C4975 0.961 . S
H4991 C4975 0.960 . S
C4992 C4993 1.391 . S
C4992 C4994 1.394 . S
C4992 H5008 0.931 . S
C4993 C4992 1.391 . S
C4993 C4997 1.376 . S
C4994 C4992 1.394 . S
C4994 C4995 1.369 . S
C4994 C4998 1.531 . S
C4995 C4994 1.369 . S
C4995 C4996 1.410 . S
C4995 C5003 1.503 . S
C4996 C4995 1.410 . S
C4996 C4997 1.392 . S
C4996 C4999 1.511 . S
C4997 C4993 1.376 . S
C4997 C4996 1.392 . S
C4997 H5009 0.929 . S
C4998 C4994 1.531 . S
C4998 H5010 0.960 . S
C4998 H5011 0.962 . S
C4998 H5012 0.960 . S
C4999 C4996 1.511 . S
C4999 H5013 0.961 . S
C4999 H5014 0.961 . S
C4999 H5015 0.961 . S
C5000 C5001 1.370 . S
C5000 C5002 1.363 . S
C5000 H5016 0.931 . S
C5001 C5000 1.370 . S
C5001 C5005 1.408 . S
C5002 C5000 1.363 . S
C5002 C5003 1.370 . S
C5002 C5006 1.524 . S
C5003 C4995 1.503 . S
C5003 C5002 1.370 . S
C5003 C5004 1.403 . S
C5004 C5003 1.403 . S
C5004 C5005 1.404 . S
C5004 C5007 1.539 . S
C5005 C5001 1.408 . S
C5005 C5004 1.404 . S
C5005 H5017 0.930 . S
C5006 C5002 1.524 . S
C5006 H5018 0.956 . S
C5006 H5019 0.961 . S
C5006 H5020 0.961 . S
C5007 C5004 1.539 . S
C5007 H5021 0.958 . S
C5007 H5022 0.961 . S
C5007 H5023 0.960 . S
H5008 C4992 0.931 . S
H5009 C4997 0.929 . S
H5010 C4998 0.960 . S
H5011 C4998 0.962 . S
H5012 C4998 0.960 . S
H5013 C4999 0.961 . S
H5014 C4999 0.961 . S
H5015 C4999 0.961 . S
H5016 C5000 0.931 . S
H5017 C5005 0.930 . S
H5018 C5006 0.956 . S
H5019 C5006 0.961 . S
H5020 C5006 0.961 . S
H5021 C5007 0.958 . S
H5022 C5007 0.961 . S
H5023 C5007 0.960 . S
C5024 C5025 1.391 . S
C5024 C5026 1.394 . S
C5024 H5040 0.931 . S
C5025 C5024 1.391 . S
C5025 C5029 1.376 . S
C5026 C5024 1.394 . S
C5026 C5027 1.369 . S
C5026 C5030 1.531 . S
C5027 C5026 1.369 . S
C5027 C5028 1.410 . S
C5027 C5035 1.503 . S
C5028 C5027 1.410 . S
C5028 C5029 1.392 . S
C5028 C5031 1.511 . S
C5029 C5025 1.376 . S
C5029 C5028 1.392 . S
C5029 H5041 0.929 . S
C5030 C5026 1.531 . S
C5030 H5042 0.960 . S
C5030 H5043 0.962 . S
C5030 H5044 0.960 . S
C5031 C5028 1.511 . S
C5031 H5045 0.961 . S
C5031 H5046 0.961 . S
C5031 H5047 0.961 1_455 S
C5032 C5033 1.372 . S
C5032 C5034 1.363 . S
C5032 H5048 0.931 . S
C5033 C5032 1.372 . S
C5033 C5037 1.408 1_455 S
C5034 C5032 1.363 . S
C5034 C5035 1.370 . S
C5034 C5038 1.524 . S
C5035 C5027 1.503 . S
C5035 C5034 1.370 . S
C5035 C5036 1.403 1_455 S
C5036 C5035 1.403 1_655 S
C5036 C5037 1.404 . S
C5036 C5039 1.539 . S
C5037 C5033 1.408 1_655 S
C5037 C5036 1.404 . S
C5037 H5049 0.930 . S
C5038 C5034 1.524 . S
C5038 H5050 0.956 . S
C5038 H5051 0.961 . S
C5038 H5052 0.961 . S
C5039 C5036 1.539 . S
C5039 H5053 0.958 . S
C5039 H5054 0.961 . S
C5039 H5055 0.960 . S
H5040 C5024 0.931 . S
H5041 C5029 0.929 . S
H5042 C5030 0.960 . S
H5043 C5030 0.962 . S
H5044 C5030 0.960 . S
H5045 C5031 0.961 . S
H5046 C5031 0.961 . S
H5047 C5031 0.961 1_655 S
H5048 C5032 0.931 . S
H5049 C5037 0.930 . S
H5050 C5038 0.956 . S
H5051 C5038 0.961 . S
H5052 C5038 0.961 . S
H5053 C5039 0.958 . S
H5054 C5039 0.961 . S
H5055 C5039 0.960 . S
C5056 C5057 1.391 . S
C5056 C5058 1.394 . S
C5056 H5072 0.931 . S
C5057 C5056 1.391 . S
C5057 C5061 1.376 . S
C5058 C5056 1.394 . S
C5058 C5059 1.369 . S
C5058 C5062 1.531 . S
C5059 C5058 1.369 . S
C5059 C5060 1.410 . S
C5059 C5067 1.503 . S
C5060 C5059 1.410 . S
C5060 C5061 1.392 . S
C5060 C5063 1.511 . S
C5061 C5057 1.376 . S
C5061 C5060 1.392 . S
C5061 H5073 0.929 . S
C5062 C5058 1.531 . S
C5062 H5074 0.960 . S
C5062 H5075 0.962 . S
C5062 H5076 0.960 . S
C5063 C5060 1.511 . S
C5063 H5077 0.961 . S
C5063 H5078 0.961 . S
C5063 H5079 0.961 . S
C5064 C5065 1.370 . S
C5064 C5066 1.363 . S
C5064 H5080 0.931 . S
C5065 C5064 1.370 . S
C5065 C5069 1.408 . S
C5066 C5064 1.363 . S
C5066 C5067 1.370 . S
C5066 C5070 1.524 . S
C5067 C5059 1.503 . S
C5067 C5066 1.370 . S
C5067 C5068 1.403 . S
C5068 C5067 1.403 . S
C5068 C5069 1.404 . S
C5068 C5071 1.539 . S
C5069 C5065 1.408 . S
C5069 C5068 1.404 . S
C5069 H5081 0.930 . S
C5070 C5066 1.524 . S
C5070 H5082 0.956 . S
C5070 H5083 0.961 . S
C5070 H5084 0.961 . S
C5071 C5068 1.539 . S
C5071 H5085 0.958 . S
C5071 H5086 0.961 . S
C5071 H5087 0.960 . S
H5072 C5056 0.931 . S
H5073 C5061 0.929 . S
H5074 C5062 0.960 . S
H5075 C5062 0.962 . S
H5076 C5062 0.960 . S
H5077 C5063 0.961 . S
H5078 C5063 0.961 . S
H5079 C5063 0.961 . S
H5080 C5064 0.931 . S
H5081 C5069 0.930 . S
H5082 C5070 0.956 . S
H5083 C5070 0.961 . S
H5084 C5070 0.961 . S
H5085 C5071 0.958 . S
H5086 C5071 0.961 . S
H5087 C5071 0.960 . S
C5088 C5089 1.391 . S
C5088 C5090 1.394 . S
C5088 H5104 0.931 . S
C5089 C5088 1.391 . S
C5089 C5093 1.376 . S
C5090 C5088 1.394 . S
C5090 C5091 1.369 . S
C5090 C5094 1.531 . S
C5091 C5090 1.369 . S
C5091 C5092 1.410 . S
C5091 C5099 1.503 . S
C5092 C5091 1.410 . S
C5092 C5093 1.392 . S
C5092 C5095 1.511 1_455 S
C5093 C5089 1.376 . S
C5093 C5092 1.392 . S
C5093 H5105 0.929 . S
C5094 C5090 1.531 . S
C5094 H5106 0.960 . S
C5094 H5107 0.962 . S
C5094 H5108 0.960 . S
C5095 C5092 1.511 1_655 S
C5095 H5109 0.961 . S
C5095 H5110 0.961 . S
C5095 H5111 0.961 . S
C5096 C5097 1.370 1_455 S
C5096 C5098 1.363 . S
C5096 H5112 0.931 . S
C5097 C5096 1.370 1_655 S
C5097 C5101 1.408 . S
C5098 C5096 1.363 . S
C5098 C5099 1.370 . S
C5098 C5102 1.524 . S
C5099 C5091 1.503 . S
C5099 C5098 1.370 . S
C5099 C5100 1.403 . S
C5100 C5099 1.403 . S
C5100 C5101 1.404 1_455 S
C5100 C5103 1.539 . S
C5101 C5097 1.408 . S
C5101 C5100 1.404 1_655 S
C5101 H5113 0.930 . S
C5102 C5098 1.524 . S
C5102 H5114 0.956 . S
C5102 H5115 0.961 . S
C5102 H5116 0.961 . S
C5103 C5100 1.539 . S
C5103 H5117 0.958 . S
C5103 H5118 0.961 1_455 S
C5103 H5119 0.960 . S
H5104 C5088 0.931 . S
H5105 C5093 0.929 . S
H5106 C5094 0.960 . S
H5107 C5094 0.962 . S
H5108 C5094 0.960 . S
H5109 C5095 0.961 . S
H5110 C5095 0.961 . S
H5111 C5095 0.961 . S
H5112 C5096 0.931 . S
H5113 C5101 0.930 . S
H5114 C5102 0.956 . S
H5115 C5102 0.961 . S
H5116 C5102 0.961 . S
H5117 C5103 0.958 . S
H5118 C5103 0.961 1_655 S
H5119 C5103 0.960 . S
C5120 C5121 1.391 . S
C5120 C5122 1.394 . S
C5120 H5136 0.931 . S
C5121 C5120 1.391 . S
C5121 C5125 1.376 . S
C5122 C5120 1.394 . S
C5122 C5123 1.369 . S
C5122 C5126 1.531 . S
C5123 C5122 1.369 . S
C5123 C5124 1.410 . S
C5123 C5131 1.503 . S
C5124 C5123 1.410 . S
C5124 C5125 1.392 . S
C5124 C5127 1.511 . S
C5125 C5121 1.376 . S
C5125 C5124 1.392 . S
C5125 H5137 0.929 . S
C5126 C5122 1.531 . S
C5126 H5138 0.960 . S
C5126 H5139 0.962 . S
C5126 H5140 0.960 . S
C5127 C5124 1.511 . S
C5127 H5141 0.961 . S
C5127 H5142 0.961 . S
C5127 H5143 0.961 . S
C5128 C5129 1.370 . S
C5128 C5130 1.363 . S
C5128 H5144 0.931 . S
C5129 C5128 1.370 . S
C5129 C5133 1.408 . S
C5130 C5128 1.363 . S
C5130 C5131 1.370 . S
C5130 C5134 1.524 . S
C5131 C5123 1.503 . S
C5131 C5130 1.370 . S
C5131 C5132 1.403 . S
C5132 C5131 1.403 . S
C5132 C5133 1.404 . S
C5132 C5135 1.539 . S
C5133 C5129 1.408 . S
C5133 C5132 1.404 . S
C5133 H5145 0.930 . S
C5134 C5130 1.524 . S
C5134 H5146 0.956 . S
C5134 H5147 0.961 . S
C5134 H5148 0.961 . S
C5135 C5132 1.539 . S
C5135 H5149 0.958 . S
C5135 H5150 0.961 . S
C5135 H5151 0.960 . S
H5136 C5120 0.931 . S
H5137 C5125 0.929 . S
H5138 C5126 0.960 . S
H5139 C5126 0.962 . S
H5140 C5126 0.960 . S
H5141 C5127 0.961 . S
H5142 C5127 0.961 . S
H5143 C5127 0.961 . S
H5144 C5128 0.931 . S
H5145 C5133 0.930 . S
H5146 C5134 0.956 . S
H5147 C5134 0.961 . S
H5148 C5134 0.961 . S
H5149 C5135 0.958 . S
H5150 C5135 0.961 . S
H5151 C5135 0.960 . S
C5152 C5153 1.391 . S
C5152 C5154 1.394 . S
C5152 H5168 0.931 . S
C5153 C5152 1.391 . S
C5153 C5157 1.376 1_655 S
C5154 C5152 1.394 . S
C5154 C5155 1.369 . S
C5154 C5158 1.531 . S
C5155 C5154 1.369 . S
C5155 C5156 1.410 . S
C5155 C5163 1.503 . S
C5156 C5155 1.410 . S
C5156 C5157 1.392 1_655 S
C5156 C5159 1.511 1_655 S
C5157 C5153 1.376 1_455 S
C5157 C5156 1.392 1_455 S
C5157 H5169 0.929 . S
C5158 C5154 1.531 . S
C5158 H5170 0.960 . S
C5158 H5171 0.962 . S
C5158 H5172 0.960 . S
C5159 C5156 1.511 1_455 S
C5159 H5173 0.961 . S
C5159 H5174 0.964 . S
C5159 H5175 0.961 1_455 S
C5160 C5161 1.370 . S
C5160 C5162 1.363 . S
C5160 H5176 0.931 . S
C5161 C5160 1.370 . S
C5161 C5165 1.408 . S
C5162 C5160 1.363 . S
C5162 C5163 1.370 . S
C5162 C5166 1.524 . S
C5163 C5155 1.503 . S
C5163 C5162 1.370 . S
C5163 C5164 1.403 . S
C5164 C5163 1.403 . S
C5164 C5165 1.404 . S
C5164 C5167 1.539 . S
C5165 C5161 1.408 . S
C5165 C5164 1.404 . S
C5165 H5177 0.930 . S
C5166 C5162 1.524 . S
C5166 H5178 0.956 . S
C5166 H5179 0.988 . S
C5166 H5180 0.961 . S
C5167 C5164 1.539 . S
C5167 H5181 0.958 . S
C5167 H5182 0.961 . S
C5167 H5183 0.960 . S
H5168 C5152 0.931 . S
H5169 C5157 0.929 . S
H5170 C5158 0.960 . S
H5171 C5158 0.962 . S
H5172 C5158 0.960 . S
H5173 C5159 0.961 . S
H5174 C5159 0.964 . S
H5175 C5159 0.961 1_655 S
H5176 C5160 0.931 . S
H5177 C5165 0.930 . S
H5178 C5166 0.956 . S
H5179 C5166 0.988 . S
H5180 C5166 0.961 . S
H5181 C5167 0.958 . S
H5182 C5167 0.961 . S
H5183 C5167 0.960 . S
C5184 C5185 1.391 . S
C5184 C5186 1.394 . S
C5184 H5200 0.931 . S
C5185 C5184 1.391 . S
C5185 C5189 1.376 . S
C5186 C5184 1.394 . S
C5186 C5187 1.369 . S
C5186 C5190 1.531 . S
C5187 C5186 1.369 . S
C5187 C5188 1.410 . S
C5187 C5195 1.503 . S
C5188 C5187 1.410 . S
C5188 C5189 1.392 . S
C5188 C5191 1.511 . S
C5189 C5185 1.376 . S
C5189 C5188 1.392 . S
C5189 H5201 0.929 . S
C5190 C5186 1.531 . S
C5190 H5202 0.960 . S
C5190 H5203 0.962 . S
C5190 H5204 0.960 . S
C5191 C5188 1.511 . S
C5191 H5205 0.961 . S
C5191 H5206 0.961 . S
C5191 H5207 0.961 . S
C5192 C5193 1.370 . S
C5192 C5194 1.363 . S
C5192 H5208 0.931 . S
C5193 C5192 1.370 . S
C5193 C5197 1.408 . S
C5194 C5192 1.363 . S
C5194 C5195 1.370 . S
C5194 C5198 1.524 . S
C5195 C5187 1.503 . S
C5195 C5194 1.370 . S
C5195 C5196 1.403 . S
C5196 C5195 1.403 . S
C5196 C5197 1.404 . S
C5196 C5199 1.539 . S
C5197 C5193 1.408 . S
C5197 C5196 1.404 . S
C5197 H5209 0.930 . S
C5198 C5194 1.524 . S
C5198 H5210 0.956 . S
C5198 H5211 0.961 . S
C5198 H5212 0.961 . S
C5199 C5196 1.539 . S
C5199 H5213 0.958 . S
C5199 H5214 0.961 . S
C5199 H5215 0.960 . S
H5200 C5184 0.931 . S
H5201 C5189 0.929 . S
H5202 C5190 0.960 . S
H5203 C5190 0.962 . S
H5204 C5190 0.960 . S
H5205 C5191 0.961 . S
H5206 C5191 0.961 . S
H5207 C5191 0.961 . S
H5208 C5192 0.931 . S
H5209 C5197 0.930 . S
H5210 C5198 0.956 . S
H5211 C5198 0.961 . S
H5212 C5198 0.961 . S
H5213 C5199 0.958 . S
H5214 C5199 0.961 . S
H5215 C5199 0.960 . S
C5216 C5217 1.391 . S
C5216 C5218 1.394 . S
C5216 H5232 0.931 . S
C5217 C5216 1.391 . S
C5217 C5221 1.376 . S
C5218 C5216 1.394 . S
C5218 C5219 1.369 . S
C5218 C5222 1.531 . S
C5219 C5218 1.369 . S
C5219 C5220 1.410 . S
C5219 C5227 1.503 . S
C5220 C5219 1.410 . S
C5220 C5221 1.392 . S
C5220 C5223 1.511 . S
C5221 C5217 1.376 . S
C5221 C5220 1.392 . S
C5221 H5233 0.929 . S
C5222 C5218 1.531 . S
C5222 H5234 0.960 . S
C5222 H5235 0.962 . S
C5222 H5236 0.960 . S
C5223 C5220 1.511 . S
C5223 H5237 0.961 . S
C5223 H5238 0.961 . S
C5223 H5239 0.961 . S
C5224 C5225 1.370 1_455 S
C5224 C5226 1.363 1_455 S
C5224 H5240 0.931 . S
C5225 C5224 1.370 1_655 S
C5225 C5229 1.408 . S
C5226 C5224 1.363 1_655 S
C5226 C5227 1.370 . S
C5226 C5230 1.524 1_655 S
C5227 C5219 1.503 . S
C5227 C5226 1.370 . S
C5227 C5228 1.403 . S
C5228 C5227 1.403 . S
C5228 C5229 1.404 . S
C5228 C5231 1.539 . S
C5229 C5225 1.408 . S
C5229 C5228 1.404 . S
C5229 H5241 0.930 . S
C5230 C5226 1.524 1_455 S
C5230 H5242 0.965 . S
C5230 H5243 0.961 . S
C5230 H5244 0.961 . S
C5231 C5228 1.539 . S
C5231 H5245 0.958 . S
C5231 H5246 0.961 . S
C5231 H5247 0.960 . S
H5232 C5216 0.931 . S
H5233 C5221 0.929 . S
H5234 C5222 0.960 . S
H5235 C5222 0.962 . S
H5236 C5222 0.960 . S
H5237 C5223 0.961 . S
H5238 C5223 0.961 . S
H5239 C5223 0.961 . S
H5240 C5224 0.931 . S
H5241 C5229 0.930 . S
H5242 C5230 0.965 . S
H5243 C5230 0.961 . S
H5244 C5230 0.961 . S
H5245 C5231 0.958 . S
H5246 C5231 0.961 . S
H5247 C5231 0.960 . S
C5248 C5249 1.391 . S
C5248 C5250 1.394 . S
C5248 H5264 0.931 . S
C5249 C5248 1.391 . S
C5249 C5253 1.376 . S
C5250 C5248 1.394 . S
C5250 C5251 1.369 . S
C5250 C5254 1.531 . S
C5251 C5250 1.369 . S
C5251 C5252 1.410 . S
C5251 C5259 1.503 . S
C5252 C5251 1.410 . S
C5252 C5253 1.392 . S
C5252 C5255 1.511 1_565 S
C5253 C5249 1.376 . S
C5253 C5252 1.392 . S
C5253 H5265 0.929 1_565 S
C5254 C5250 1.531 . S
C5254 H5266 0.960 . S
C5254 H5267 0.962 . S
C5254 H5268 0.960 . S
C5255 C5252 1.511 1_545 S
C5255 H5269 0.962 . S
C5255 H5270 0.962 . S
C5255 H5271 0.958 1_545 S
C5256 C5257 1.370 1_545 S
C5256 C5258 1.363 . S
C5256 H5272 0.931 . S
C5257 C5256 1.370 1_565 S
C5257 C5261 1.408 . S
C5258 C5256 1.363 . S
C5258 C5259 1.370 1_545 S
C5258 C5262 1.524 . S
C5259 C5251 1.503 . S
C5259 C5258 1.370 1_565 S
C5259 C5260 1.403 . S
C5260 C5259 1.403 . S
C5260 C5261 1.404 . S
C5260 C5263 1.539 . S
C5261 C5257 1.408 . S
C5261 C5260 1.404 . S
C5261 H5273 0.930 . S
C5262 C5258 1.524 . S
C5262 H5274 0.956 . S
C5262 H5275 0.961 . S
C5262 H5276 0.961 . S
C5263 C5260 1.539 . S
C5263 H5277 0.958 . S
C5263 H5278 0.961 . S
C5263 H5279 0.960 . S
H5264 C5248 0.931 . S
H5265 C5253 0.929 1_545 S
H5266 C5254 0.960 . S
H5267 C5254 0.962 . S
H5268 C5254 0.960 . S
H5269 C5255 0.962 . S
H5270 C5255 0.962 . S
H5271 C5255 0.958 1_565 S
H5272 C5256 0.931 . S
H5273 C5261 0.930 . S
H5274 C5262 0.956 . S
H5275 C5262 0.961 . S
H5276 C5262 0.961 . S
H5277 C5263 0.958 . S
H5278 C5263 0.961 . S
H5279 C5263 0.960 . S
C5280 C5281 1.391 . S
C5280 C5282 1.394 . S
C5280 H5296 0.931 . S
C5281 C5280 1.391 . S
C5281 C5285 1.376 . S
C5282 C5280 1.394 . S
C5282 C5283 1.369 . S
C5282 C5286 1.531 . S
C5283 C5282 1.369 . S
C5283 C5284 1.410 . S
C5283 C5291 1.503 . S
C5284 C5283 1.410 . S
C5284 C5285 1.392 . S
C5284 C5287 1.511 . S
C5285 C5281 1.376 . S
C5285 C5284 1.392 . S
C5285 H5297 0.929 . S
C5286 C5282 1.531 . S
C5286 H5298 0.960 . S
C5286 H5299 0.962 . S
C5286 H5300 0.960 . S
C5287 C5284 1.511 . S
C5287 H5301 0.961 . S
C5287 H5302 0.961 . S
C5287 H5303 0.961 . S
C5288 C5289 1.370 . S
C5288 C5290 1.363 . S
C5288 H5304 0.931 . S
C5289 C5288 1.370 . S
C5289 C5293 1.408 . S
C5290 C5288 1.363 . S
C5290 C5291 1.370 . S
C5290 C5294 1.524 . S
C5291 C5283 1.503 . S
C5291 C5290 1.370 . S
C5291 C5292 1.403 . S
C5292 C5291 1.403 . S
C5292 C5293 1.404 . S
C5292 C5295 1.539 . S
C5293 C5289 1.408 . S
C5293 C5292 1.404 . S
C5293 H5305 0.930 . S
C5294 C5290 1.524 . S
C5294 H5306 0.956 . S
C5294 H5307 0.961 . S
C5294 H5308 0.961 . S
C5295 C5292 1.539 . S
C5295 H5309 0.958 . S
C5295 H5310 0.961 . S
C5295 H5311 0.960 . S
H5296 C5280 0.931 . S
H5297 C5285 0.929 . S
H5298 C5286 0.960 . S
H5299 C5286 0.962 . S
H5300 C5286 0.960 . S
H5301 C5287 0.961 . S
H5302 C5287 0.961 . S
H5303 C5287 0.961 . S
H5304 C5288 0.931 . S
H5305 C5293 0.930 . S
H5306 C5294 0.956 . S
H5307 C5294 0.961 . S
H5308 C5294 0.961 . S
H5309 C5295 0.958 . S
H5310 C5295 0.961 . S
H5311 C5295 0.960 . S
C5312 C5313 1.391 . S
C5312 C5314 1.394 . S
C5312 H5328 0.931 . S
C5313 C5312 1.391 . S
C5313 C5317 1.376 . S
C5314 C5312 1.394 . S
C5314 C5315 1.369 . S
C5314 C5318 1.531 . S
C5315 C5314 1.369 . S
C5315 C5316 1.410 . S
C5315 C5323 1.503 . S
C5316 C5315 1.410 . S
C5316 C5317 1.392 . S
C5316 C5319 1.511 . S
C5317 C5313 1.376 . S
C5317 C5316 1.392 . S
C5317 H5329 0.929 . S
C5318 C5314 1.531 . S
C5318 H5330 0.960 . S
C5318 H5331 0.962 . S
C5318 H5332 0.960 . S
C5319 C5316 1.511 . S
C5319 H5333 0.961 . S
C5319 H5334 0.961 . S
C5319 H5335 0.961 . S
C5320 C5321 1.370 . S
C5320 C5322 1.363 . S
C5320 H5336 0.931 . S
C5321 C5320 1.370 . S
C5321 C5325 1.408 . S
C5322 C5320 1.363 . S
C5322 C5323 1.370 . S
C5322 C5326 1.524 . S
C5323 C5315 1.503 . S
C5323 C5322 1.370 . S
C5323 C5324 1.403 . S
C5324 C5323 1.403 . S
C5324 C5325 1.404 . S
C5324 C5327 1.539 . S
C5325 C5321 1.408 . S
C5325 C5324 1.404 . S
C5325 H5337 0.930 . S
C5326 C5322 1.524 . S
C5326 H5338 0.956 . S
C5326 H5339 0.961 . S
C5326 H5340 0.961 . S
C5327 C5324 1.539 . S
C5327 H5341 0.958 . S
C5327 H5342 0.961 . S
C5327 H5343 0.960 . S
H5328 C5312 0.931 . S
H5329 C5317 0.929 . S
H5330 C5318 0.960 . S
H5331 C5318 0.962 . S
H5332 C5318 0.960 . S
H5333 C5319 0.961 . S
H5334 C5319 0.961 . S
H5335 C5319 0.961 . S
H5336 C5320 0.931 . S
H5337 C5325 0.930 . S
H5338 C5326 0.956 . S
H5339 C5326 0.961 . S
H5340 C5326 0.961 . S
H5341 C5327 0.958 . S
H5342 C5327 0.961 . S
H5343 C5327 0.960 . S
C5344 C5345 1.391 . S
C5344 C5346 1.394 . S
C5344 H5360 0.931 . S
C5345 C5344 1.391 . S
C5345 C5349 1.376 1_565 S
C5346 C5344 1.394 . S
C5346 C5347 1.369 . S
C5346 C5350 1.531 . S
C5347 C5346 1.369 . S
C5347 C5348 1.410 1_565 S
C5347 C5355 1.503 . S
C5348 C5347 1.410 1_545 S
C5348 C5349 1.392 . S
C5348 C5351 1.511 . S
C5349 C5345 1.376 1_545 S
C5349 C5348 1.392 . S
C5349 H5361 0.929 . S
C5350 C5346 1.531 . S
C5350 H5362 0.960 . S
C5350 H5363 0.962 . S
C5350 H5364 0.960 . S
C5351 C5348 1.511 . S
C5351 H5365 0.961 . S
C5351 H5366 0.961 . S
C5351 H5367 0.961 . S
C5352 C5353 1.370 1_545 S
C5352 C5354 1.363 . S
C5352 H5368 0.931 . S
C5353 C5352 1.370 1_565 S
C5353 C5357 1.408 . S
C5354 C5352 1.363 . S
C5354 C5355 1.370 1_545 S
C5354 C5358 1.524 . S
C5355 C5347 1.503 . S
C5355 C5354 1.370 1_565 S
C5355 C5356 1.403 . S
C5356 C5355 1.403 . S
C5356 C5357 1.404 . S
C5356 C5359 1.539 . S
C5357 C5353 1.408 . S
C5357 C5356 1.404 . S
C5357 H5369 0.930 . S
C5358 C5354 1.524 . S
C5358 H5370 0.956 . S
C5358 H5371 0.961 . S
C5358 H5372 0.961 . S
C5359 C5356 1.539 . S
C5359 H5373 0.958 . S
C5359 H5374 0.961 . S
C5359 H5375 0.960 . S
H5360 C5344 0.931 . S
H5361 C5349 0.929 . S
H5362 C5350 0.960 . S
H5363 C5350 0.962 . S
H5364 C5350 0.960 . S
H5365 C5351 0.961 . S
H5366 C5351 0.961 . S
H5367 C5351 0.961 . S
H5368 C5352 0.931 . S
H5369 C5357 0.930 . S
H5370 C5358 0.956 . S
H5371 C5358 0.961 . S
H5372 C5358 0.961 . S
H5373 C5359 0.958 . S
H5374 C5359 0.961 . S
H5375 C5359 0.960 . S
C5376 C5377 1.391 1_565 S
C5376 C5378 1.394 . S
C5376 H5392 0.931 . S
C5377 C5376 1.391 1_545 S
C5377 C5381 1.376 . S
C5378 C5376 1.394 . S
C5378 C5379 1.349 1_565 S
C5378 C5382 1.531 . S
C5379 C5378 1.349 1_545 S
C5379 C5380 1.431 . S
C5379 C5387 1.505 . S
C5380 C5379 1.431 . S
C5380 C5381 1.392 . S
C5380 C5383 1.511 . S
C5381 C5377 1.376 . S
C5381 C5380 1.392 . S
C5381 H5393 0.929 . S
C5382 C5378 1.531 . S
C5382 H5394 0.960 . S
C5382 H5395 0.962 . S
C5382 H5396 0.960 . S
C5383 C5380 1.511 . S
C5383 H5397 0.961 . S
C5383 H5398 0.961 . S
C5383 H5399 0.961 . S
C5384 C5385 1.370 . S
C5384 C5386 1.363 . S
C5384 H5400 0.931 . S
C5385 C5384 1.370 . S
C5385 C5389 1.408 1_545 S
C5386 C5384 1.363 . S
C5386 C5387 1.370 . S
C5386 C5390 1.524 . S
C5387 C5379 1.505 . S
C5387 C5386 1.370 . S
C5387 C5388 1.403 1_545 S
C5388 C5387 1.403 1_565 S
C5388 C5389 1.404 . S
C5388 C5391 1.539 . S
C5389 C5385 1.408 1_565 S
C5389 C5388 1.404 . S
C5389 H5401 0.930 . S
C5390 C5386 1.524 . S
C5390 H5402 0.956 . S
C5390 H5403 0.961 . S
C5390 H5404 0.961 . S
C5391 C5388 1.539 . S
C5391 H5405 0.958 . S
C5391 H5406 0.961 . S
C5391 H5407 0.960 . S
H5392 C5376 0.931 . S
H5393 C5381 0.929 . S
H5394 C5382 0.960 . S
H5395 C5382 0.962 . S
H5396 C5382 0.960 . S
H5397 C5383 0.961 . S
H5398 C5383 0.961 . S
H5399 C5383 0.961 . S
H5400 C5384 0.931 . S
H5401 C5389 0.930 . S
H5402 C5390 0.956 . S
H5403 C5390 0.961 . S
H5404 C5390 0.961 . S
H5405 C5391 0.958 . S
H5406 C5391 0.961 . S
H5407 C5391 0.960 . S
C5408 C5409 1.391 . S
C5408 C5410 1.394 . S
C5408 H5424 0.931 . S
C5409 C5408 1.391 . S
C5409 C5413 1.376 . S
C5410 C5408 1.394 . S
C5410 C5411 1.369 . S
C5410 C5414 1.531 . S
C5411 C5410 1.369 . S
C5411 C5412 1.410 . S
C5411 C5419 1.503 . S
C5412 C5411 1.410 . S
C5412 C5413 1.392 . S
C5412 C5415 1.511 . S
C5413 C5409 1.376 . S
C5413 C5412 1.392 . S
C5413 H5425 0.929 . S
C5414 C5410 1.531 . S
C5414 H5426 0.960 . S
C5414 H5427 0.962 . S
C5414 H5428 0.960 . S
C5415 C5412 1.511 . S
C5415 H5429 0.961 . S
C5415 H5430 0.961 . S
C5415 H5431 0.961 . S
C5416 C5417 1.370 . S
C5416 C5418 1.363 . S
C5416 H5432 0.931 . S
C5417 C5416 1.370 . S
C5417 C5421 1.408 . S
C5418 C5416 1.363 . S
C5418 C5419 1.370 . S
C5418 C5422 1.524 . S
C5419 C5411 1.503 . S
C5419 C5418 1.370 . S
C5419 C5420 1.403 . S
C5420 C5419 1.403 . S
C5420 C5421 1.404 . S
C5420 C5423 1.539 . S
C5421 C5417 1.408 . S
C5421 C5420 1.404 . S
C5421 H5433 0.930 . S
C5422 C5418 1.524 . S
C5422 H5434 0.956 . S
C5422 H5435 0.961 . S
C5422 H5436 0.961 . S
C5423 C5420 1.539 . S
C5423 H5437 0.958 . S
C5423 H5438 0.961 . S
C5423 H5439 0.960 . S
H5424 C5408 0.931 . S
H5425 C5413 0.929 . S
H5426 C5414 0.960 . S
H5427 C5414 0.962 . S
H5428 C5414 0.960 . S
H5429 C5415 0.961 . S
H5430 C5415 0.961 . S
H5431 C5415 0.961 . S
H5432 C5416 0.931 . S
H5433 C5421 0.930 . S
H5434 C5422 0.956 . S
H5435 C5422 0.961 . S
H5436 C5422 0.961 . S
H5437 C5423 0.958 . S
H5438 C5423 0.961 . S
H5439 C5423 0.960 . S
C5440 C5441 1.391 . S
C5440 C5442 1.394 . S
C5440 H5456 0.931 . S
C5441 C5440 1.391 . S
C5441 C5445 1.376 . S
C5442 C5440 1.394 . S
C5442 C5443 1.369 . S
C5442 C5446 1.531 . S
C5443 C5442 1.369 . S
C5443 C5444 1.410 . S
C5443 C5451 1.503 . S
C5444 C5443 1.410 . S
C5444 C5445 1.392 . S
C5444 C5447 1.511 . S
C5445 C5441 1.376 . S
C5445 C5444 1.392 . S
C5445 H5457 0.929 . S
C5446 C5442 1.531 . S
C5446 H5458 0.960 . S
C5446 H5459 0.962 . S
C5446 H5460 0.960 . S
C5447 C5444 1.511 . S
C5447 H5461 0.961 . S
C5447 H5462 0.961 . S
C5447 H5463 0.961 . S
C5448 C5449 1.370 . S
C5448 C5450 1.363 . S
C5448 H5464 0.931 . S
C5449 C5448 1.370 . S
C5449 C5453 1.408 . S
C5450 C5448 1.363 . S
C5450 C5451 1.370 . S
C5450 C5454 1.524 . S
C5451 C5443 1.503 . S
C5451 C5450 1.370 . S
C5451 C5452 1.403 . S
C5452 C5451 1.403 . S
C5452 C5453 1.404 . S
C5452 C5455 1.539 . S
C5453 C5449 1.408 . S
C5453 C5452 1.404 . S
C5453 H5465 0.930 . S
C5454 C5450 1.524 . S
C5454 H5466 0.956 . S
C5454 H5467 0.961 . S
C5454 H5468 0.961 . S
C5455 C5452 1.539 . S
C5455 H5469 0.958 . S
C5455 H5470 0.961 . S
C5455 H5471 0.960 . S
H5456 C5440 0.931 . S
H5457 C5445 0.929 . S
H5458 C5446 0.960 . S
H5459 C5446 0.962 . S
H5460 C5446 0.960 . S
H5461 C5447 0.961 . S
H5462 C5447 0.961 . S
H5463 C5447 0.961 . S
H5464 C5448 0.931 . S
H5465 C5453 0.930 . S
H5466 C5454 0.956 . S
H5467 C5454 0.961 . S
H5468 C5454 0.961 . S
H5469 C5455 0.958 . S
H5470 C5455 0.961 . S
H5471 C5455 0.960 . S
C5472 C5473 1.391 1_565 S
C5472 C5474 1.394 . S
C5472 H5488 0.931 . S
C5473 C5472 1.391 1_545 S
C5473 C5477 1.376 . S
C5474 C5472 1.394 . S
C5474 C5475 1.369 1_565 S
C5474 C5478 1.531 . S
C5475 C5474 1.369 1_545 S
C5475 C5476 1.410 . S
C5475 C5483 1.503 . S
C5476 C5475 1.410 . S
C5476 C5477 1.392 . S
C5476 C5479 1.511 . S
C5477 C5473 1.376 . S
C5477 C5476 1.392 . S
C5477 H5489 0.929 . S
C5478 C5474 1.531 . S
C5478 H5490 0.960 . S
C5478 H5491 0.962 . S
C5478 H5492 0.960 . S
C5479 C5476 1.511 . S
C5479 H5493 0.961 . S
C5479 H5494 0.961 . S
C5479 H5495 0.961 . S
C5480 C5481 1.370 . S
C5480 C5482 1.363 . S
C5480 H5496 0.931 . S
C5481 C5480 1.370 . S
C5481 C5485 1.408 1_545 S
C5482 C5480 1.363 . S
C5482 C5483 1.370 . S
C5482 C5486 1.524 . S
C5483 C5475 1.503 . S
C5483 C5482 1.370 . S
C5483 C5484 1.403 1_545 S
C5484 C5483 1.403 1_565 S
C5484 C5485 1.404 . S
C5484 C5487 1.539 . S
C5485 C5481 1.408 1_565 S
C5485 C5484 1.404 . S
C5485 H5497 0.930 . S
C5486 C5482 1.524 . S
C5486 H5498 0.956 . S
C5486 H5499 0.961 . S
C5486 H5500 0.961 . S
C5487 C5484 1.539 . S
C5487 H5501 0.958 . S
C5487 H5502 0.961 . S
C5487 H5503 0.960 . S
H5488 C5472 0.931 . S
H5489 C5477 0.929 . S
H5490 C5478 0.960 . S
H5491 C5478 0.962 . S
H5492 C5478 0.960 . S
H5493 C5479 0.961 . S
H5494 C5479 0.961 . S
H5495 C5479 0.961 . S
H5496 C5480 0.931 . S
H5497 C5485 0.930 . S
H5498 C5486 0.956 . S
H5499 C5486 0.961 . S
H5500 C5486 0.961 . S
H5501 C5487 0.958 . S
H5502 C5487 0.961 . S
H5503 C5487 0.960 . S
C5504 C5505 1.391 . S
C5504 C5506 1.394 . S
C5504 H5520 0.931 . S
C5505 C5504 1.391 . S
C5505 C5509 1.376 . S
C5506 C5504 1.394 . S
C5506 C5507 1.369 . S
C5506 C5510 1.531 . S
C5507 C5506 1.369 . S
C5507 C5508 1.410 . S
C5507 C5515 1.503 . S
C5508 C5507 1.410 . S
C5508 C5509 1.392 . S
C5508 C5511 1.511 . S
C5509 C5505 1.376 . S
C5509 C5508 1.392 . S
C5509 H5521 0.929 . S
C5510 C5506 1.531 . S
C5510 H5522 0.960 . S
C5510 H5523 0.962 . S
C5510 H5524 0.960 . S
C5511 C5508 1.511 . S
C5511 H5525 0.961 . S
C5511 H5526 0.961 . S
C5511 H5527 0.961 . S
C5512 C5513 1.370 . S
C5512 C5514 1.363 . S
C5512 H5528 0.931 . S
C5513 C5512 1.370 . S
C5513 C5517 1.408 . S
C5514 C5512 1.363 . S
C5514 C5515 1.370 . S
C5514 C5518 1.524 . S
C5515 C5507 1.503 . S
C5515 C5514 1.370 . S
C5515 C5516 1.403 . S
C5516 C5515 1.403 . S
C5516 C5517 1.404 . S
C5516 C5519 1.539 . S
C5517 C5513 1.408 . S
C5517 C5516 1.404 . S
C5517 H5529 0.930 . S
C5518 C5514 1.524 . S
C5518 H5530 0.956 . S
C5518 H5531 0.961 . S
C5518 H5532 0.961 . S
C5519 C5516 1.539 . S
C5519 H5533 0.958 . S
C5519 H5534 0.961 . S
C5519 H5535 0.960 . S
H5520 C5504 0.931 . S
H5521 C5509 0.929 . S
H5522 C5510 0.960 . S
H5523 C5510 0.962 . S
H5524 C5510 0.960 . S
H5525 C5511 0.961 . S
H5526 C5511 0.961 . S
H5527 C5511 0.961 . S
H5528 C5512 0.931 . S
H5529 C5517 0.930 . S
H5530 C5518 0.956 . S
H5531 C5518 0.961 . S
H5532 C5518 0.961 . S
H5533 C5519 0.958 . S
H5534 C5519 0.961 . S
H5535 C5519 0.960 . S
C5536 C5537 1.391 . S
C5536 C5538 1.394 . S
C5536 H5552 0.931 . S
C5537 C5536 1.391 . S
C5537 C5541 1.376 . S
C5538 C5536 1.394 . S
C5538 C5539 1.369 . S
C5538 C5542 1.531 . S
C5539 C5538 1.369 . S
C5539 C5540 1.410 . S
C5539 C5547 1.503 . S
C5540 C5539 1.410 . S
C5540 C5541 1.392 . S
C5540 C5543 1.511 . S
C5541 C5537 1.376 . S
C5541 C5540 1.392 . S
C5541 H5553 0.929 . S
C5542 C5538 1.531 . S
C5542 H5554 0.960 . S
C5542 H5555 0.962 . S
C5542 H5556 0.960 . S
C5543 C5540 1.511 . S
C5543 H5557 0.961 . S
C5543 H5558 0.961 . S
C5543 H5559 0.961 . S
C5544 C5545 1.370 . S
C5544 C5546 1.363 . S
C5544 H5560 0.931 . S
C5545 C5544 1.370 . S
C5545 C5549 1.408 . S
C5546 C5544 1.363 . S
C5546 C5547 1.370 . S
C5546 C5550 1.524 . S
C5547 C5539 1.503 . S
C5547 C5546 1.370 . S
C5547 C5548 1.403 . S
C5548 C5547 1.403 . S
C5548 C5549 1.404 . S
C5548 C5551 1.539 . S
C5549 C5545 1.408 . S
C5549 C5548 1.404 . S
C5549 H5561 0.930 . S
C5550 C5546 1.524 . S
C5550 H5562 0.956 . S
C5550 H5563 0.961 . S
C5550 H5564 0.961 . S
C5551 C5548 1.539 . S
C5551 H5565 0.958 . S
C5551 H5566 0.961 . S
C5551 H5567 0.960 . S
H5552 C5536 0.931 . S
H5553 C5541 0.929 . S
H5554 C5542 0.960 . S
H5555 C5542 0.962 . S
H5556 C5542 0.960 . S
H5557 C5543 0.961 . S
H5558 C5543 0.961 . S
H5559 C5543 0.961 . S
H5560 C5544 0.931 . S
H5561 C5549 0.930 . S
H5562 C5550 0.956 . S
H5563 C5550 0.961 . S
H5564 C5550 0.961 . S
H5565 C5551 0.958 . S
H5566 C5551 0.961 . S
H5567 C5551 0.960 . S
C5568 C5569 1.391 . S
C5568 C5570 1.394 . S
C5568 H5584 0.931 . S
C5569 C5568 1.391 . S
C5569 C5573 1.376 . S
C5570 C5568 1.394 . S
C5570 C5571 1.369 . S
C5570 C5574 1.531 . S
C5571 C5570 1.369 . S
C5571 C5572 1.410 . S
C5571 C5579 1.503 . S
C5572 C5571 1.410 . S
C5572 C5573 1.392 . S
C5572 C5575 1.511 . S
C5573 C5569 1.376 . S
C5573 C5572 1.392 . S
C5573 H5585 0.929 . S
C5574 C5570 1.531 . S
C5574 H5586 0.960 . S
C5574 H5587 0.962 . S
C5574 H5588 0.960 . S
C5575 C5572 1.511 . S
C5575 H5589 0.961 . S
C5575 H5590 0.961 . S
C5575 H5591 0.961 . S
C5576 C5577 1.370 . S
C5576 C5578 1.363 . S
C5576 H5592 0.931 . S
C5577 C5576 1.370 . S
C5577 C5581 1.408 . S
C5578 C5576 1.363 . S
C5578 C5579 1.370 . S
C5578 C5582 1.524 . S
C5579 C5571 1.503 . S
C5579 C5578 1.370 . S
C5579 C5580 1.403 . S
C5580 C5579 1.403 . S
C5580 C5581 1.404 . S
C5580 C5583 1.539 . S
C5581 C5577 1.408 . S
C5581 C5580 1.404 . S
C5581 H5593 0.930 . S
C5582 C5578 1.524 . S
C5582 H5594 0.956 . S
C5582 H5595 0.961 . S
C5582 H5596 0.961 . S
C5583 C5580 1.539 . S
C5583 H5597 0.958 . S
C5583 H5598 0.961 . S
C5583 H5599 0.960 . S
H5584 C5568 0.931 . S
H5585 C5573 0.929 . S
H5586 C5574 0.960 . S
H5587 C5574 0.962 . S
H5588 C5574 0.960 . S
H5589 C5575 0.961 . S
H5590 C5575 0.961 . S
H5591 C5575 0.961 . S
H5592 C5576 0.931 . S
H5593 C5581 0.930 . S
H5594 C5582 0.956 . S
H5595 C5582 0.961 . S
H5596 C5582 0.961 . S
H5597 C5583 0.958 . S
H5598 C5583 0.961 . S
H5599 C5583 0.960 . S
C5600 C5601 1.391 . S
C5600 C5602 1.394 . S
C5600 H5616 0.931 . S
C5601 C5600 1.391 . S
C5601 C5605 1.376 . S
C5602 C5600 1.394 . S
C5602 C5603 1.369 . S
C5602 C5606 1.531 . S
C5603 C5602 1.369 . S
C5603 C5604 1.410 . S
C5603 C5611 1.503 . S
C5604 C5603 1.410 . S
C5604 C5605 1.392 . S
C5604 C5607 1.511 . S
C5605 C5601 1.376 . S
C5605 C5604 1.392 . S
C5605 H5617 0.929 . S
C5606 C5602 1.531 . S
C5606 H5618 0.960 . S
C5606 H5619 0.962 . S
C5606 H5620 0.960 . S
C5607 C5604 1.511 . S
C5607 H5621 0.961 . S
C5607 H5622 0.961 . S
C5607 H5623 0.961 . S
C5608 C5609 1.370 . S
C5608 C5610 1.363 . S
C5608 H5624 0.931 . S
C5609 C5608 1.370 . S
C5609 C5613 1.408 . S
C5610 C5608 1.363 . S
C5610 C5611 1.370 . S
C5610 C5614 1.524 . S
C5611 C5603 1.503 . S
C5611 C5610 1.370 . S
C5611 C5612 1.403 . S
C5612 C5611 1.403 . S
C5612 C5613 1.404 . S
C5612 C5615 1.539 . S
C5613 C5609 1.408 . S
C5613 C5612 1.404 . S
C5613 H5625 0.930 . S
C5614 C5610 1.524 . S
C5614 H5626 0.956 . S
C5614 H5627 0.961 . S
C5614 H5628 0.961 . S
C5615 C5612 1.539 . S
C5615 H5629 0.958 . S
C5615 H5630 0.961 . S
C5615 H5631 0.960 . S
H5616 C5600 0.931 . S
H5617 C5605 0.929 . S
H5618 C5606 0.960 . S
H5619 C5606 0.962 . S
H5620 C5606 0.960 . S
H5621 C5607 0.961 . S
H5622 C5607 0.961 . S
H5623 C5607 0.961 . S
H5624 C5608 0.931 . S
H5625 C5613 0.930 . S
H5626 C5614 0.956 . S
H5627 C5614 0.961 . S
H5628 C5614 0.961 . S
H5629 C5615 0.958 . S
H5630 C5615 0.961 . S
H5631 C5615 0.960 . S
C5632 C5633 1.391 . S
C5632 C5634 1.394 . S
C5632 H5648 0.931 . S
C5633 C5632 1.391 . S
C5633 C5637 1.376 . S
C5634 C5632 1.394 . S
C5634 C5635 1.369 . S
C5634 C5638 1.531 . S
C5635 C5634 1.369 . S
C5635 C5636 1.410 . S
C5635 C5643 1.503 . S
C5636 C5635 1.410 . S
C5636 C5637 1.392 . S
C5636 C5639 1.511 . S
C5637 C5633 1.376 . S
C5637 C5636 1.392 . S
C5637 H5649 0.929 . S
C5638 C5634 1.531 . S
C5638 H5650 0.960 . S
C5638 H5651 0.962 . S
C5638 H5652 0.960 . S
C5639 C5636 1.511 . S
C5639 H5653 0.961 . S
C5639 H5654 0.961 . S
C5639 H5655 0.961 . S
C5640 C5641 1.370 . S
C5640 C5642 1.363 . S
C5640 H5656 0.931 . S
C5641 C5640 1.370 . S
C5641 C5645 1.408 . S
C5642 C5640 1.363 . S
C5642 C5643 1.370 . S
C5642 C5646 1.524 . S
C5643 C5635 1.503 . S
C5643 C5642 1.370 . S
C5643 C5644 1.403 . S
C5644 C5643 1.403 . S
C5644 C5645 1.404 . S
C5644 C5647 1.539 . S
C5645 C5641 1.408 . S
C5645 C5644 1.404 . S
C5645 H5657 0.930 1_554 S
C5646 C5642 1.524 . S
C5646 H5658 0.956 . S
C5646 H5659 0.961 . S
C5646 H5660 0.961 . S
C5647 C5644 1.539 . S
C5647 H5661 0.958 . S
C5647 H5662 0.961 . S
C5647 H5663 0.960 . S
H5648 C5632 0.931 . S
H5649 C5637 0.929 . S
H5650 C5638 0.960 . S
H5651 C5638 0.962 . S
H5652 C5638 0.960 . S
H5653 C5639 0.961 . S
H5654 C5639 0.961 . S
H5655 C5639 0.961 . S
H5656 C5640 0.931 . S
H5657 C5645 0.930 1_556 S
H5658 C5646 0.956 . S
H5659 C5646 0.961 . S
H5660 C5646 0.961 . S
H5661 C5647 0.958 . S
H5662 C5647 0.961 . S
H5663 C5647 0.960 . S
C5664 C5665 1.391 . S
C5664 C5666 1.394 . S
C5664 H5680 0.931 . S
C5665 C5664 1.391 . S
C5665 C5669 1.376 . S
C5666 C5664 1.394 . S
C5666 C5667 1.369 . S
C5666 C5670 1.531 . S
C5667 C5666 1.369 . S
C5667 C5668 1.410 . S
C5667 C5675 1.503 . S
C5668 C5667 1.410 . S
C5668 C5669 1.392 . S
C5668 C5671 1.511 . S
C5669 C5665 1.376 . S
C5669 C5668 1.392 . S
C5669 H5681 0.929 . S
C5670 C5666 1.531 . S
C5670 H5682 0.960 . S
C5670 H5683 0.962 . S
C5670 H5684 0.960 . S
C5671 C5668 1.511 . S
C5671 H5685 0.961 . S
C5671 H5686 0.961 . S
C5671 H5687 0.961 . S
C5672 C5673 1.370 . S
C5672 C5674 1.363 . S
C5672 H5688 0.931 . S
C5673 C5672 1.370 . S
C5673 C5677 1.408 . S
C5674 C5672 1.363 . S
C5674 C5675 1.370 . S
C5674 C5678 1.524 . S
C5675 C5667 1.503 . S
C5675 C5674 1.370 . S
C5675 C5676 1.403 . S
C5676 C5675 1.403 . S
C5676 C5677 1.404 . S
C5676 C5679 1.539 . S
C5677 C5673 1.408 . S
C5677 C5676 1.404 . S
C5677 H5689 0.930 . S
C5678 C5674 1.524 . S
C5678 H5690 0.956 . S
C5678 H5691 0.961 . S
C5678 H5692 0.961 . S
C5679 C5676 1.539 . S
C5679 H5693 0.958 . S
C5679 H5694 0.961 . S
C5679 H5695 0.960 . S
H5680 C5664 0.931 . S
H5681 C5669 0.929 . S
H5682 C5670 0.960 . S
H5683 C5670 0.962 . S
H5684 C5670 0.960 . S
H5685 C5671 0.961 . S
H5686 C5671 0.961 . S
H5687 C5671 0.961 . S
H5688 C5672 0.931 . S
H5689 C5677 0.930 . S
H5690 C5678 0.956 . S
H5691 C5678 0.961 . S
H5692 C5678 0.961 . S
H5693 C5679 0.958 . S
H5694 C5679 0.961 . S
H5695 C5679 0.960 . S
C5696 C5697 1.391 . S
C5696 C5698 1.394 . S
C5696 H5712 0.931 . S
C5697 C5696 1.391 . S
C5697 C5701 1.376 . S
C5698 C5696 1.394 . S
C5698 C5699 1.369 . S
C5698 C5702 1.531 . S
C5699 C5698 1.369 . S
C5699 C5700 1.410 . S
C5699 C5707 1.503 . S
C5700 C5699 1.410 . S
C5700 C5701 1.392 . S
C5700 C5703 1.511 . S
C5701 C5697 1.376 . S
C5701 C5700 1.392 . S
C5701 H5713 0.929 . S
C5702 C5698 1.531 . S
C5702 H5714 0.960 . S
C5702 H5715 0.962 . S
C5702 H5716 0.960 . S
C5703 C5700 1.511 . S
C5703 H5717 0.961 . S
C5703 H5718 0.961 . S
C5703 H5719 0.961 . S
C5704 C5705 1.370 . S
C5704 C5706 1.363 . S
C5704 H5720 0.931 . S
C5705 C5704 1.370 . S
C5705 C5709 1.408 . S
C5706 C5704 1.363 . S
C5706 C5707 1.370 . S
C5706 C5710 1.524 . S
C5707 C5699 1.503 . S
C5707 C5706 1.370 . S
C5707 C5708 1.403 . S
C5708 C5707 1.403 . S
C5708 C5709 1.404 . S
C5708 C5711 1.539 . S
C5709 C5705 1.408 . S
C5709 C5708 1.404 . S
C5709 H5721 0.930 . S
C5710 C5706 1.524 . S
C5710 H5722 0.956 . S
C5710 H5723 0.961 . S
C5710 H5724 0.961 . S
C5711 C5708 1.539 . S
C5711 H5725 0.958 . S
C5711 H5726 0.961 . S
C5711 H5727 0.960 . S
H5712 C5696 0.931 . S
H5713 C5701 0.929 . S
H5714 C5702 0.960 . S
H5715 C5702 0.962 . S
H5716 C5702 0.960 . S
H5717 C5703 0.961 . S
H5718 C5703 0.961 . S
H5719 C5703 0.961 . S
H5720 C5704 0.931 . S
H5721 C5709 0.930 . S
H5722 C5710 0.956 . S
H5723 C5710 0.961 . S
H5724 C5710 0.961 . S
H5725 C5711 0.958 . S
H5726 C5711 0.961 . S
H5727 C5711 0.960 . S
C5728 C5729 1.391 . S
C5728 C5730 1.394 . S
C5728 H5744 0.931 . S
C5729 C5728 1.391 . S
C5729 C5733 1.376 . S
C5730 C5728 1.394 . S
C5730 C5731 1.369 . S
C5730 C5734 1.531 . S
C5731 C5730 1.369 . S
C5731 C5732 1.410 . S
C5731 C5739 1.503 . S
C5732 C5731 1.410 . S
C5732 C5733 1.392 . S
C5732 C5735 1.511 . S
C5733 C5729 1.376 . S
C5733 C5732 1.392 . S
C5733 H5745 0.929 . S
C5734 C5730 1.531 . S
C5734 H5746 0.960 . S
C5734 H5747 0.962 . S
C5734 H5748 0.960 . S
C5735 C5732 1.511 . S
C5735 H5749 0.961 . S
C5735 H5750 0.961 . S
C5735 H5751 0.961 . S
C5736 C5737 1.370 . S
C5736 C5738 1.363 . S
C5736 H5752 0.931 . S
C5737 C5736 1.370 . S
C5737 C5741 1.408 . S
C5738 C5736 1.363 . S
C5738 C5739 1.370 . S
C5738 C5742 1.524 . S
C5739 C5731 1.503 . S
C5739 C5738 1.370 . S
C5739 C5740 1.403 . S
C5740 C5739 1.403 . S
C5740 C5741 1.404 . S
C5740 C5743 1.539 . S
C5741 C5737 1.408 . S
C5741 C5740 1.404 . S
C5741 H5753 0.930 . S
C5742 C5738 1.524 . S
C5742 H5754 0.956 . S
C5742 H5755 0.961 . S
C5742 H5756 0.961 . S
C5743 C5740 1.539 . S
C5743 H5757 0.958 . S
C5743 H5758 0.961 . S
C5743 H5759 0.960 . S
H5744 C5728 0.931 . S
H5745 C5733 0.929 . S
H5746 C5734 0.960 . S
H5747 C5734 0.962 . S
H5748 C5734 0.960 . S
H5749 C5735 0.961 . S
H5750 C5735 0.961 . S
H5751 C5735 0.961 . S
H5752 C5736 0.931 . S
H5753 C5741 0.930 . S
H5754 C5742 0.956 . S
H5755 C5742 0.961 . S
H5756 C5742 0.961 . S
H5757 C5743 0.958 . S
H5758 C5743 0.961 . S
H5759 C5743 0.960 . S
C2689 C2163 1.357 . S
C2697 C63 1.370 . S
C2721 C2079 1.297 . S
C2729 C147 1.297 . S
C2753 C2331 1.275 . S
C2761 C231 1.298 . S
C2785 C2247 1.351 . S
C2793 C315 1.394 . S
C2817 C410 1.411 . S
C2825 C2510 1.380 . S
C2849 C494 1.347 . S
C2857 C2426 1.337 . S
C2881 C578 1.266 . S
C2889 C2678 1.307 . S
C2913 C2594 1.427 . S
C2921 C662 1.401 . S
C2945 C1491 1.356 . S
C2953 C735 1.338 . S
C2977 C1407 1.390 . S
C2985 C819 1.408 . S
C3009 C1659 1.408 . S
C3017 C903 1.410 . S
C3041 C1575 1.303 . S
C3049 C987 1.299 . S
C3073 C1082 1.365 . S
C3081 C1838 1.323 . S
C3105 C1754 1.334 . S
C3113 C1166 1.386 . S
C3137 C1250 1.335 . S
C3145 C2006 1.383 . S
C3169 C1922 1.268 . S
C3177 C1334 1.305 . S
C3201 C70 0.667 . S
C3209 C1738 0.715 . S
C3233 C1150 0.579 . S
C3241 C154 0.701 1_655 S
C3265 C2578 0.778 . S
C3273 C238 0.624 . S
C3297 C322 0.611 1_655 S
C3305 C646 0.731 1_455 S
C3329 C394 0.637 . S
C3337 C1414 0.728 . S
C3361 C478 0.551 1_455 S
C3369 C826 0.715 1_655 S
C3393 C562 0.778 . S
C3401 C2254 0.624 . S
C3425 C2410 0.565 . S
C3433 C742 0.719 . S
C3457 C1906 0.554 . S
C3465 C910 0.711 . S
C3489 C1318 0.778 1_455 S
C3497 C994 0.639 1_655 S
C3521 C2086 0.677 . S
C3529 C1066 0.672 . S
C3553 C1234 0.769 . S
C3561 C1582 0.630 . S
C3585 C2494 0.764 . S
C3593 C1498 0.633 . S
C3617 C1666 0.611 . S
C3625 C1990 0.746 . S
C3649 C2170 0.712 . S
C3657 C1822 0.660 . S
C3681 C2338 0.677 . S
C3689 C2662 0.688 . S
C3713 C58 0.764 . S
C3721 C1654 0.811 . S
C3745 C142 0.766 . S
C3753 C1570 0.799 . S
C3777 C226 0.897 . S
C3785 C1486 0.851 . S
C3809 C310 0.916 . S
C3817 C1402 0.873 . S
C3841 C406 0.913 . S
C3849 C2002 0.866 . S
C3873 C490 0.901 . S
C3881 C1918 0.853 . S
C3905 C574 0.900 . S
C3913 C1834 0.853 . S
C3937 C658 0.912 . S
C3945 C1750 0.876 . S
C3969 C730 0.751 . S
C3977 C2326 0.799 . S
C4001 C814 0.903 . S
C4009 C2242 0.856 . S
C4033 C898 0.869 . S
C4041 C2158 0.838 . S
C4065 C982 0.913 . S
C4073 C2074 0.866 . S
C4097 C2674 0.903 . S
C4105 C1078 0.856 . S
C4129 C2590 0.734 . S
C4137 C1162 0.785 . S
C4161 C2506 0.734 . S
C4169 C1246 0.788 . S
C4193 C2422 0.812 . S
C4201 C1330 0.814 . S
C4225 C242 2.098 . S
C4233 C74 2.089 . S
C4257 C326 2.098 . S
C4265 C158 2.090 . S
C4289 C567 2.087 . S
C4297 C399 2.093 . S
C4321 C483 2.095 . S
C4329 C651 2.091 . S
C4353 C914 2.163 . S
C4361 C746 2.157 . S
C4385 C830 2.147 . S
C4393 C998 2.159 . S
C4417 C1239 2.164 . S
C4425 C1071 2.157 . S
C4449 C1155 2.157 . S
C4457 C1323 2.157 . S
C4481 C1418 2.080 . S
C4489 C1586 2.092 . S
C4513 C1502 2.082 . S
C4521 C1670 2.087 . S
C4545 C1911 2.084 . S
C4553 C1743 2.093 . S
C4577 C1827 2.089 . S
C4585 C1995 2.085 . S
C4609 C2090 2.146 . S
C4617 C2258 2.162 . S
C4641 C2342 2.146 . S
C4649 C2174 2.160 . S
C4673 C2415 2.163 . S
C4681 C2583 2.157 . S
C4705 C2499 2.149 . S
C4713 C2667 2.159 . S
C4737 C56 2.758 1_566 S
C4745 C644 2.748 1_565 S
C4769 C2576 2.788 . S
C4777 C140 2.747 1_456 S
C4801 C224 2.771 . S
C4809 C1148 2.769 . S
C4833 C308 2.771 1_465 S
C4841 C1736 2.755 1_565 S
C4865 C319 2.775 1_545 S
C4873 C403 2.753 1_544 S
C4897 C487 2.751 1_554 S
C4905 C2251 2.780 . S
C4929 C823 2.789 . S
C4937 C571 2.752 . S
C4961 C1411 2.757 1_545 S
C4969 C655 2.749 1_545 S
C4993 C728 2.764 . S
C5001 C1316 2.766 . S
C5025 C1904 2.792 . S
C5033 C812 2.751 1_455 S
C5057 C896 2.770 . S
C5065 C476 2.775 . S
C5089 C2408 2.777 . S
C5097 C980 2.753 . S
C5121 C1075 2.772 . S
C5129 C991 2.760 . S
C5153 C1159 2.774 1_655 S
C5161 C1579 2.776 . S
C5185 C1243 2.774 . S
C5193 C151 2.776 . S
C5217 C2083 2.737 . S
C5225 C1327 2.759 1_655 S
C5249 C1400 2.766 1_565 S
C5257 C1988 2.757 1_565 S
C5281 C1484 2.731 . S
C5289 C1232 2.773 . S
C5313 C1568 2.726 . S
C5321 C2492 2.777 . S
C5345 C1652 2.774 1_565 S
C5353 C392 2.751 1_565 S
C5377 C1747 2.762 1_545 S
C5385 C1663 2.747 1_545 S
C5409 C907 2.768 . S
C5417 C1831 2.746 . S
C5441 C2167 2.768 . S
C5449 C1915 2.764 . S
C5473 C1999 2.766 1_545 S
C5481 C67 2.748 1_545 S
C5505 C2660 2.781 . S
C5513 C2072 2.750 1_556 S
C5537 C560 2.786 . S
C5545 C2156 2.759 1_556 S
C5569 C1820 2.787 . S
C5577 C2240 2.758 . S
C5601 C2324 2.726 . S
C5609 C1064 2.774 . S
C5633 C2335 2.754 . S
C5641 C2419 2.764 1_554 S
C5665 C235 2.776 . S
C5673 C2503 2.766 1_554 S
C5697 C1495 2.787 . S
C5705 C2587 2.750 . S
C5729 C2671 2.764 . S
C5737 C739 2.756 . S
