# Generated by pormake.
# Topology lcy-e, (6)-cn, num edge types: 1
# Building blocks:
#     Node 0, Type 0, BuildingBlock: BETGAK_clean_sbu_0, # of connection points: 6
#     Node 1, Type 0, BuildingBlock: BETGAK_clean_sbu_0, # of connection points: 6
#     Node 2, Type 0, BuildingBlock: BETGAK_clean_sbu_0, # of connection points: 6
#     Node 3, Type 0, BuildingBlock: BETGAK_clean_sbu_0, # of connection points: 6
#     Node 4, Type 0, BuildingBlock: BETGAK_clean_sbu_0, # of connection points: 6
#     Node 5, Type 0, BuildingBlock: BETGAK_clean_sbu_0, # of connection points: 6
#     Node 6, Type 0, BuildingBlock: BETGAK_clean_sbu_0, # of connection points: 6
#     Node 7, Type 0, BuildingBlock: BETGAK_clean_sbu_0, # of connection points: 6
#     Node 8, Type 0, BuildingBlock: BETGAK_clean_sbu_0, # of connection points: 6
#     Node 9, Type 0, BuildingBlock: BETGAK_clean_sbu_0, # of connection points: 6
#     Node 10, Type 0, BuildingBlock: BETGAK_clean_sbu_0, # of connection points: 6
#     Node 11, Type 0, BuildingBlock: BETGAK_clean_sbu_0, # of connection points: 6
#     Edge 12, Type (0, 0), BuildingBlock: XUDNAN_clean_linker_2, # of connection points: 2
#     Edge 13, Type (0, 0), BuildingBlock: XUDNAN_clean_linker_2, # of connection points: 2
#     Edge 14, Type (0, 0), BuildingBlock: XUDNAN_clean_linker_2, # of connection points: 2
#     Edge 15, Type (0, 0), BuildingBlock: XUDNAN_clean_linker_2, # of connection points: 2
#     Edge 16, Type (0, 0), BuildingBlock: XUDNAN_clean_linker_2, # of connection points: 2
#     Edge 17, Type (0, 0), BuildingBlock: XUDNAN_clean_linker_2, # of connection points: 2
#     Edge 18, Type (0, 0), BuildingBlock: XUDNAN_clean_linker_2, # of connection points: 2
#     Edge 19, Type (0, 0), BuildingBlock: XUDNAN_clean_linker_2, # of connection points: 2
#     Edge 20, Type (0, 0), BuildingBlock: XUDNAN_clean_linker_2, # of connection points: 2
#     Edge 21, Type (0, 0), BuildingBlock: XUDNAN_clean_linker_2, # of connection points: 2
#     Edge 22, Type (0, 0), BuildingBlock: XUDNAN_clean_linker_2, # of connection points: 2
#     Edge 23, Type (0, 0), BuildingBlock: XUDNAN_clean_linker_2, # of connection points: 2
#     Edge 24, Type (0, 0), BuildingBlock: XUDNAN_clean_linker_2, # of connection points: 2
#     Edge 25, Type (0, 0), BuildingBlock: XUDNAN_clean_linker_2, # of connection points: 2
#     Edge 26, Type (0, 0), BuildingBlock: XUDNAN_clean_linker_2, # of connection points: 2
#     Edge 27, Type (0, 0), BuildingBlock: XUDNAN_clean_linker_2, # of connection points: 2
#     Edge 28, Type (0, 0), BuildingBlock: XUDNAN_clean_linker_2, # of connection points: 2
#     Edge 29, Type (0, 0), BuildingBlock: XUDNAN_clean_linker_2, # of connection points: 2
#     Edge 30, Type (0, 0), BuildingBlock: XUDNAN_clean_linker_2, # of connection points: 2
#     Edge 31, Type (0, 0), BuildingBlock: XUDNAN_clean_linker_2, # of connection points: 2
#     Edge 32, Type (0, 0), BuildingBlock: XUDNAN_clean_linker_2, # of connection points: 2
#     Edge 33, Type (0, 0), BuildingBlock: XUDNAN_clean_linker_2, # of connection points: 2
#     Edge 34, Type (0, 0), BuildingBlock: XUDNAN_clean_linker_2, # of connection points: 2
#     Edge 35, Type (0, 0), BuildingBlock: XUDNAN_clean_linker_2, # of connection points: 2
#     Edge 36, Type (0, 0), BuildingBlock: XUDNAN_clean_linker_2, # of connection points: 2
#     Edge 37, Type (0, 0), BuildingBlock: XUDNAN_clean_linker_2, # of connection points: 2
#     Edge 38, Type (0, 0), BuildingBlock: XUDNAN_clean_linker_2, # of connection points: 2
#     Edge 39, Type (0, 0), BuildingBlock: XUDNAN_clean_linker_2, # of connection points: 2
#     Edge 40, Type (0, 0), BuildingBlock: XUDNAN_clean_linker_2, # of connection points: 2
#     Edge 41, Type (0, 0), BuildingBlock: XUDNAN_clean_linker_2, # of connection points: 2
#     Edge 42, Type (0, 0), BuildingBlock: XUDNAN_clean_linker_2, # of connection points: 2
#     Edge 43, Type (0, 0), BuildingBlock: XUDNAN_clean_linker_2, # of connection points: 2
#     Edge 44, Type (0, 0), BuildingBlock: XUDNAN_clean_linker_2, # of connection points: 2
#     Edge 45, Type (0, 0), BuildingBlock: XUDNAN_clean_linker_2, # of connection points: 2
#     Edge 46, Type (0, 0), BuildingBlock: XUDNAN_clean_linker_2, # of connection points: 2
#     Edge 47, Type (0, 0), BuildingBlock: XUDNAN_clean_linker_2, # of connection points: 2
# Relax obj value: 0.200
# Max RMSD: 0.311
# Mean RMSD: 0.287
data_MOF--net-lcy-e--node1-BETGAK_clean_sbu_0--edge1-XUDNAN_clean_linker_2
_symmetry_space_group_name_H-M    P1
_symmetry_Int_Tables_number       1
_symmetry_cell_setting            triclinic
loop_
_symmetry_equiv_pos_as_xyz
'x, y, z'
_cell_length_a     45.055745
_cell_length_b     41.702786
_cell_length_c     44.96386
_cell_angle_alpha  89.075126
_cell_angle_beta   90.937764
_cell_angle_gamma 88.416219
loop_
_atom_site_label
_atom_site_type_symbol
_atom_site_fract_x
_atom_site_fract_y
_atom_site_fract_z
_atom_type_partial_charge
La0 La 0.14559 0.27858 0.48665 0.0
La1 La 0.16161 0.22237 0.52519 0.0
C2 C 0.14835 0.32866 0.45423 0.0
C3 C 0.15623 0.33606 0.42302 0.0
C4 C 0.15234 0.31366 0.40037 0.0
C5 C 0.15921 0.32145 0.37084 0.0
C6 C 0.17035 0.35173 0.36327 0.0
C7 C 0.17489 0.37376 0.38621 0.0
C8 C 0.16785 0.36601 0.41571 0.0
C9 C 0.10867 0.23097 0.48029 0.0
C10 C 0.1943 0.22558 0.46555 0.0
C11 C 0.16401 0.17323 0.55887 0.0
C12 C 0.14477 0.14952 0.57319 0.0
C13 C 0.14143 0.14933 0.6042 0.0
C14 C 0.12649 0.12458 0.61843 0.0
C15 C 0.11482 0.0993 0.60195 0.0
C16 C 0.11762 0.09999 0.57082 0.0
C17 C 0.13233 0.1248 0.55662 0.0
C18 C 0.1959 0.27305 0.53149 0.0
C19 C 0.11191 0.26934 0.54592 0.0
O20 O 0.12404 0.31283 0.45836 0.0
O21 O 0.17003 0.31786 0.47164 0.0
O22 O 0.10136 0.26109 0.47715 0.0
O23 O 0.13655 0.22804 0.48424 0.0
O24 O 0.18235 0.25488 0.46185 0.0
O25 O 0.18686 0.20676 0.48774 0.0
O26 O 0.16312 0.2026 0.56868 0.0
O27 O 0.16587 0.1725 0.52991 0.0
O28 O 0.20525 0.24351 0.53371 0.0
O29 O 0.16832 0.27309 0.5279 0.0
O30 O 0.11885 0.23881 0.54185 0.0
O31 O 0.12417 0.2917 0.52897 0.0
H32 H 0.14379 0.29022 0.40548 0.0
H33 H 0.15583 0.30369 0.3539 0.0
H34 H 0.18314 0.39737 0.38126 0.0
H35 H 0.17119 0.38361 0.43283 0.0
H36 H 0.15103 0.16791 0.61756 0.0
H37 H 0.12439 0.12509 0.64238 0.0
H38 H 0.10941 0.08074 0.55738 0.0
H39 H 0.13474 0.12394 0.53271 0.0
La40 La 1.00481 0.86628 0.74553 0.0
La41 La 0.0587 0.88413 0.78941 0.0
C42 C 0.95898 0.87733 0.7135 0.0
C43 C 0.95172 0.88664 0.68204 0.0
C44 C 0.93701 0.86556 0.66314 0.0
C45 C 0.92723 0.87575 0.63462 0.0
C46 C 0.93163 0.90742 0.62442 0.0
C47 C 0.94711 0.92813 0.64313 0.0
C48 C 0.95701 0.91792 0.67142 0.0
C49 C 0.05084 0.82563 0.74151 0.0
C50 C 0.05265 0.91547 0.72406 0.0
C51 C 0.11068 0.88952 0.81068 0.0
C52 C 0.13411 0.87644 0.83176 0.0
C53 C 0.14203 0.89462 0.85655 0.0
C54 C 0.16768 0.8868 0.87342 0.0
C55 C 0.18628 0.86055 0.86602 0.0
C56 C 0.17748 0.84108 0.84236 0.0
C57 C 0.15178 0.84906 0.82525 0.0
C58 C 1.00663 0.91413 0.79776 0.0
C59 C 1.01151 0.83631 0.81136 0.0
O60 O 0.9695 0.84818 0.71955 0.0
O61 O 0.97258 0.89896 0.72897 0.0
O62 O 0.02638 0.82357 0.72595 0.0
O63 O 0.0479 0.85006 0.75729 0.0
O64 O 0.03189 0.89505 0.71675 0.0
O65 O 0.06469 0.91675 0.75121 0.0
O66 O 0.08706 0.9038 0.82164 0.0
O67 O 0.10446 0.87341 0.78668 0.0
O68 O 0.02721 0.91034 0.81833 0.0
O69 O 1.01735 0.90405 0.77377 0.0
O70 O 0.04022 0.8429 0.81211 0.0
O71 O 0.99309 0.84562 0.78909 0.0
H72 H 0.93246 0.84141 0.67066 0.0
H73 H 0.91587 0.85885 0.62074 0.0
H74 H 0.95059 0.95279 0.63649 0.0
H75 H 0.96805 0.93508 0.6853 0.0
H76 H 0.12919 0.916 0.86205 0.0
H77 H 0.17362 0.90212 0.89168 0.0
H78 H 0.19137 0.82081 0.83597 0.0
H79 H 0.14659 0.83466 0.80613 0.0
La80 La 0.40067 0.78705 0.03147 0.0
La81 La 0.40224 0.74136 0.97952 0.0
C82 C 0.4046 0.81532 0.08073 0.0
C83 C 0.41537 0.84635 0.09192 0.0
C84 C 0.40706 0.87576 0.07806 0.0
C85 C 0.41646 0.90477 0.0899 0.0
C86 C 0.43452 0.90514 0.1158 0.0
C87 C 0.44358 0.87559 0.12904 0.0
C88 C 0.43403 0.84658 0.11728 0.0
C89 C 0.36777 0.80511 0.98456 0.0
C90 C 0.44637 0.80084 0.98138 0.0
C91 C 0.3995 0.71999 0.92726 0.0
C92 C 0.38282 0.70103 0.90525 0.0
C93 C 0.39622 0.67306 0.89402 0.0
C94 C 0.3838 0.65769 0.86955 0.0
C95 C 0.35761 0.66992 0.85551 0.0
C96 C 0.34356 0.69731 0.86746 0.0
C97 C 0.35606 0.71275 0.89199 0.0
C98 C 0.43412 0.72271 0.02688 0.0
C99 C 0.36112 0.72303 0.03013 0.0
O100 O 0.38062 0.81602 0.0638 0.0
O101 O 0.42487 0.79529 0.07094 0.0
O102 O 0.38221 0.82437 1.00153 0.0
O103 O 0.37102 0.77684 0.99485 0.0
O104 O 0.43863 0.80753 1.00891 0.0
O105 O 0.43395 0.77762 0.96628 0.0
O106 O 0.41325 0.70481 0.94943 0.0
O107 O 0.38819 0.74782 0.93508 0.0
O108 O 0.42289 0.70306 1.00794 0.0
O109 O 0.43035 0.75094 1.01686 0.0
O110 O 0.36489 0.72079 1.00117 0.0
O111 O 0.37427 0.74544 0.04618 0.0
H112 H 0.39301 0.87642 0.05827 0.0
H113 H 0.40939 0.92701 0.07883 0.0
H114 H 0.45724 0.87489 0.14909 0.0
H115 H 0.44088 0.82425 0.12832 0.0
H116 H 0.41713 0.66381 0.90335 0.0
H117 H 0.39561 0.63702 0.86081 0.0
H118 H 0.32318 0.70722 0.85753 0.0
H119 H 0.3453 0.73448 0.89985 0.0
La120 La 0.55852 0.13572 0.25261 0.0
La121 La 0.50628 0.12208 0.29281 0.0
C122 C 0.60435 0.13026 0.22115 0.0
C123 C 0.61206 0.12022 0.19081 0.0
C124 C 0.59033 0.11814 0.16825 0.0
C125 C 0.59825 0.10857 0.13961 0.0
C126 C 0.62805 0.10074 0.13295 0.0
C127 C 0.64965 0.10286 0.15578 0.0
C128 C 0.64172 0.1125 0.18435 0.0
C129 C 0.51168 0.17434 0.24471 0.0
C130 C 0.50891 0.08493 0.23337 0.0
C131 C 0.45913 0.13153 0.32091 0.0
C132 C 0.431 0.13904 0.33659 0.0
C133 C 0.41819 0.11647 0.3556 0.0
C134 C 0.39084 0.12331 0.36898 0.0
C135 C 0.3755 0.15286 0.36357 0.0
C136 C 0.38873 0.17565 0.34499 0.0
C137 C 0.41606 0.16882 0.33168 0.0
C138 C 0.55564 0.08578 0.3025 0.0
C139 C 0.55521 0.17088 0.31442 0.0
O140 O 0.58842 0.15685 0.22332 0.0
O141 O 0.59533 0.10772 0.23922 0.0
O142 O 0.53877 0.18286 0.24055 0.0
O143 O 0.5116 0.14466 0.2504 0.0
O144 O 0.53654 0.09496 0.2303 0.0
O145 O 0.49138 0.09628 0.25424 0.0
O146 O 0.47267 0.10323 0.32056 0.0
O147 O 0.47272 0.15392 0.3062 0.0
O148 O 0.52903 0.07631 0.30831 0.0
O149 O 0.55323 0.11466 0.29498 0.0
O150 O 0.52722 0.1622 0.31526 0.0
O151 O 0.57328 0.15956 0.29365 0.0
H152 H 0.56728 0.12396 0.17277 0.0
H153 H 0.58101 0.10761 0.12261 0.0
H154 H 0.67269 0.09651 0.15178 0.0
H155 H 0.6588 0.11378 0.2015 0.0
H156 H 0.42915 0.09339 0.35994 0.0
H157 H 0.38167 0.10532 0.38354 0.0
H158 H 0.37756 0.19846 0.33995 0.0
H159 H 0.42519 0.18674 0.31699 0.0
La160 La 0.65291 0.24756 0.56761 0.0
La161 La 0.66686 0.30202 0.52322 0.0
C162 C 0.64766 0.19619 0.59712 0.0
C163 C 0.65967 0.18333 0.62625 0.0
C164 C 0.6873 0.1667 0.62762 0.0
C165 C 0.6991 0.1548 0.65472 0.0
C166 C 0.68361 0.15889 0.68136 0.0
C167 C 0.65565 0.1749 0.68 0.0
C168 C 0.64384 0.187 0.65278 0.0
C169 C 0.63576 0.30632 0.58258 0.0
C170 C 0.70998 0.28694 0.57757 0.0
C171 C 0.66722 0.35403 0.49375 0.0
C172 C 0.64862 0.37844 0.47744 0.0
C173 C 0.65827 0.41011 0.47652 0.0
C174 C 0.64276 0.43372 0.45963 0.0
C175 C 0.61712 0.42625 0.44318 0.0
C176 C 0.60697 0.39456 0.44476 0.0
C177 C 0.62263 0.37082 0.46169 0.0
C178 C 0.69634 0.2463 0.51623 0.0
C179 C 0.61392 0.25644 0.50751 0.0
O180 O 0.62787 0.21997 0.5974 0.0
O181 O 0.66725 0.20018 0.57619 0.0
O182 O 0.64538 0.28424 0.60119 0.0
O183 O 0.63493 0.29462 0.55702 0.0
O184 O 0.69803 0.25852 0.58016 0.0
O185 O 0.69869 0.30966 0.55948 0.0
O186 O 0.6705 0.32563 0.48191 0.0
O187 O 0.66466 0.35248 0.52277 0.0
O188 O 0.70659 0.27403 0.50859 0.0
O189 O 0.67051 0.25161 0.52479 0.0
O190 O 0.62718 0.28377 0.50146 0.0
O191 O 0.62035 0.23892 0.53196 0.0
H192 H 0.69998 0.16282 0.60768 0.0
H193 H 0.72036 0.14202 0.6547 0.0
H194 H 0.6431 0.17856 0.70005 0.0
H195 H 0.62238 0.19936 0.65257 0.0
H196 H 0.67822 0.41653 0.48856 0.0
H197 H 0.65094 0.4579 0.45945 0.0
H198 H 0.58741 0.38789 0.43227 0.0
H199 H 0.61476 0.34651 0.46206 0.0
La200 La 1.00827 0.39119 0.74989 0.0
La201 La 0.04933 0.36285 0.79698 0.0
C202 C 0.97269 0.40168 0.70679 0.0
C203 C 0.94617 0.38616 0.69496 0.0
C204 C 0.92223 0.4052 0.68395 0.0
C205 C 0.89634 0.39101 0.67369 0.0
C206 C 0.89398 0.35743 0.67419 0.0
C207 C 0.91824 0.33841 0.68502 0.0
C208 C 0.94404 0.35264 0.69541 0.0
C209 C 1.01235 0.42575 0.79825 0.0
C210 C 0.98802 0.33108 0.78967 0.0
C211 C 0.08246 0.35447 0.84262 0.0
C212 C 0.09877 0.37387 0.86446 0.0
C213 C 0.1258 0.36207 0.87678 0.0
C214 C 0.13994 0.37832 0.89985 0.0
C215 C 0.12719 0.40667 0.91135 0.0
C216 C 0.10036 0.41875 0.89838 0.0
C217 C 0.08646 0.40269 0.87512 0.0
C218 C 0.04833 0.33171 0.74566 0.0
C219 C 0.07227 0.41693 0.75322 0.0
O220 O 0.96975 0.41485 0.73281 0.0
O221 O 0.99798 0.3857 0.70464 0.0
O222 O 1.00932 0.43736 0.77146 0.0
O223 O 1.01164 0.39543 0.79754 0.0
O224 O 0.9841 0.34892 0.76517 0.0
O225 O 1.01121 0.33437 0.80753 0.0
O226 O 0.09229 0.35359 0.8154 0.0
O227 O 0.05349 0.35712 0.84316 0.0
O228 O 0.05341 0.31778 0.77135 0.0
O229 O 0.04679 0.36124 0.74974 0.0
O230 O 0.07356 0.40499 0.78078 0.0
O231 O 0.0493 0.41165 0.73544 0.0
H232 H 0.92341 0.43113 0.68365 0.0
H233 H 0.87797 0.40641 0.66596 0.0
H234 H 0.91738 0.31249 0.68535 0.0
H235 H 0.96224 0.33743 0.70392 0.0
H236 H 0.13572 0.33986 0.86893 0.0
H237 H 0.16081 0.36853 0.90874 0.0
H238 H 0.08947 0.44016 0.90673 0.0
H239 H 0.06564 0.41238 0.86604 0.0
La240 La 0.89618 0.76456 0.05979 0.0
La241 La 0.89046 0.71164 1.01566 0.0
C242 C 0.88608 0.81263 0.09172 0.0
C243 C 0.87939 0.81974 0.12301 0.0
C244 C 0.8964 0.80594 0.14663 0.0
C245 C 0.89172 0.8157 0.17584 0.0
C246 C 0.86981 0.83922 0.18203 0.0
C247 C 0.85193 0.85189 0.15851 0.0
C248 C 0.85678 0.84231 0.12927 0.0
C249 C 0.93644 0.71839 0.06787 0.0
C250 C 0.85049 0.70828 0.07173 0.0
C251 C 0.89634 0.66419 0.9816 0.0
C252 C 0.91749 0.64275 0.96588 0.0
C253 C 0.91273 0.63731 0.93548 0.0
C254 C 0.92847 0.61282 0.92108 0.0
C255 C 0.94933 0.593 0.9368 0.0
C256 C 0.95513 0.59952 0.96696 0.0
C257 C 0.9394 0.6241 0.98135 0.0
C258 C 0.8535 0.76257 1.00807 0.0
C259 C 0.93591 0.76517 1.0037 0.0
O260 O 0.9127 0.80097 0.08634 0.0
O261 O 0.86543 0.79859 0.07621 0.0
O262 O 0.93975 0.748 0.07509 0.0
O263 O 0.90978 0.71452 0.05966 0.0
O264 O 0.86036 0.73663 0.07958 0.0
O265 O 0.86046 0.69307 0.04828 0.0
O266 O 0.8922 0.69378 0.97192 0.0
O267 O 0.89592 0.66204 1.01063 0.0
O268 O 0.84633 0.73343 1.00212 0.0
O269 O 0.88013 0.76176 1.01582 0.0
O270 O 0.93214 0.73383 1.00287 0.0
O271 O 0.91959 0.78319 1.02155 0.0
H272 H 0.91383 0.78824 0.14249 0.0
H273 H 0.90561 0.80524 0.19355 0.0
H274 H 0.83505 0.87024 0.16253 0.0
H275 H 0.84342 0.85327 0.11139 0.0
H276 H 0.89573 0.65102 0.92311 0.0
H277 H 0.92311 0.60839 0.89797 0.0
H278 H 0.97137 0.58512 0.97966 0.0
H279 H 0.94362 0.62761 1.00483 0.0
La280 La 0.55042 0.62754 0.24798 0.0
La281 La 0.49752 0.63791 0.28819 0.0
C282 C 0.58619 0.62209 0.2055 0.0
C283 C 0.61804 0.62383 0.19861 0.0
C284 C 0.62945 0.60474 0.1759 0.0
C285 C 0.65829 0.60891 0.16582 0.0
C286 C 0.67643 0.63239 0.17821 0.0
C287 C 0.66521 0.65097 0.20158 0.0
C288 C 0.63631 0.64668 0.21175 0.0
C289 C 0.55493 0.59857 0.30096 0.0
C290 C 0.55268 0.68513 0.29189 0.0
C291 C 0.46615 0.64204 0.33406 0.0
C292 C 0.45001 0.62368 0.35699 0.0
C293 C 0.41907 0.62086 0.35447 0.0
C294 C 0.4027 0.60985 0.37855 0.0
C295 C 0.41679 0.60165 0.40591 0.0
C296 C 0.44794 0.60243 0.40785 0.0
C297 C 0.46436 0.61346 0.3837 0.0
C298 C 0.49112 0.6658 0.2347 0.0
C299 C 0.49197 0.58616 0.24261 0.0
O300 O 0.57742 0.59763 0.22143 0.0
O301 O 0.57305 0.64902 0.21303 0.0
O302 O 0.57714 0.60951 0.28631 0.0
O303 O 0.53197 0.60209 0.28485 0.0
O304 O 0.56574 0.67085 0.26932 0.0
O305 O 0.52722 0.67536 0.3026 0.0
O306 O 0.45521 0.64345 0.30683 0.0
O307 O 0.49525 0.64012 0.33467 0.0
O308 O 0.46917 0.65728 0.2511 0.0
O309 O 0.51475 0.66187 0.25001 0.0
O310 O 0.48819 0.59114 0.27116 0.0
O311 O 0.51281 0.60156 0.22793 0.0
H312 H 0.61564 0.5873 0.16519 0.0
H313 H 0.66597 0.59449 0.14752 0.0
H314 H 0.67868 0.669 0.21182 0.0
H315 H 0.62797 0.66181 0.22929 0.0
H316 H 0.40726 0.62869 0.33435 0.0
H317 H 0.37878 0.60899 0.37611 0.0
H318 H 0.45949 0.59644 0.4286 0.0
H319 H 0.48814 0.61555 0.38655 0.0
La320 La 0.23308 0.51498 0.15621 0.0
La321 La 0.27941 0.465 0.13879 0.0
C322 C 0.20075 0.56332 0.16744 0.0
C323 C 0.16983 0.574 0.16062 0.0
C324 C 0.14586 0.55326 0.16277 0.0
C325 C 0.11729 0.56356 0.15322 0.0
C326 C 0.11224 0.59465 0.14104 0.0
C327 C 0.13647 0.61518 0.1391 0.0
C328 C 0.16477 0.60504 0.14894 0.0
C329 C 0.22259 0.45516 0.17405 0.0
C330 C 0.22368 0.47787 0.09723 0.0
C331 C 0.31218 0.41517 0.13528 0.0
C332 C 0.32841 0.38994 0.15322 0.0
C333 C 0.32089 0.35783 0.14928 0.0
C334 C 0.33712 0.33292 0.16366 0.0
C335 C 0.36148 0.33935 0.1824 0.0
C336 C 0.36887 0.37161 0.18665 0.0
C337 C 0.35251 0.39667 0.17222 0.0
C338 C 0.28187 0.5219 0.11044 0.0
C339 C 0.29558 0.51 0.19138 0.0
O340 O 0.2054 0.53927 0.18633 0.0
O341 O 0.21755 0.56107 0.14407 0.0
O342 O 0.20283 0.47564 0.16359 0.0
O343 O 0.24733 0.46851 0.17372 0.0
O344 O 0.21974 0.50559 0.11059 0.0
O345 O 0.24247 0.45554 0.1081 0.0
O346 O 0.3223 0.44438 0.13494 0.0
O347 O 0.28306 0.4149 0.13572 0.0
O348 O 0.29087 0.49501 0.09898 0.0
O349 O 0.27496 0.51555 0.13654 0.0
O350 O 0.30088 0.48174 0.17929 0.0
O351 O 0.27101 0.52733 0.18485 0.0
H352 H 0.14927 0.52899 0.17134 0.0
H353 H 0.09921 0.54716 0.15536 0.0
H354 H 0.13385 0.63895 0.12921 0.0
H355 H 0.18302 0.62125 0.14659 0.0
H356 H 0.30274 0.3519 0.13444 0.0
H357 H 0.33103 0.30847 0.15932 0.0
H358 H 0.38732 0.37751 0.2011 0.0
H359 H 0.35898 0.42118 0.17564 0.0
La360 La 0.74514 0.98691 0.89742 0.0
La361 La 0.78789 0.03821 0.91516 0.0
C362 C 0.71559 0.93704 0.88907 0.0
C363 C 0.68546 0.92625 0.8972 0.0
C364 C 0.66008 0.93671 0.88076 0.0
C365 C 0.63201 0.92539 0.88774 0.0
C366 C 0.62845 0.90318 0.91126 0.0
C367 C 0.65374 0.89323 0.92812 0.0
C368 C 0.68189 0.90451 0.92109 0.0
C369 C 0.73889 0.04171 0.86705 0.0
C370 C 0.72462 0.03423 0.94745 0.0
C371 C 0.81169 0.09214 0.92078 0.0
C372 C 0.83103 0.11381 0.9039 0.0
C373 C 0.84198 0.14112 0.9177 0.0
C374 C 0.8585 0.16333 0.90165 0.0
C375 C 0.86425 0.15887 0.87129 0.0
C376 C 0.85376 0.13102 0.8577 0.0
C377 C 0.83746 0.10865 0.87388 0.0
C378 C 0.79444 0.98292 0.94471 0.0
C379 C 0.8114 0.98757 0.87164 0.0
O380 O 0.71721 0.96055 0.86955 0.0
O381 O 0.73478 0.94005 0.91087 0.0
O382 O 0.71726 0.02383 0.87504 0.0
O383 O 0.76309 0.02814 0.87545 0.0
O384 O 0.71914 1.00749 0.93313 0.0
O385 O 0.74936 0.0502 0.94319 0.0
O386 O 0.82366 0.06508 0.93096 0.0
O387 O 0.78502 0.08826 0.90956 0.0
O388 O 0.81612 1.00198 0.93941 0.0
O389 O 0.77058 0.99664 0.93602 0.0
O390 O 0.81334 0.01776 0.87962 0.0
O391 O 0.78779 0.97035 0.87802 0.0
H392 H 0.66186 0.95343 0.86224 0.0
H393 H 0.61303 0.93396 0.87451 0.0
H394 H 0.65193 0.87592 0.94617 0.0
H395 H 0.70098 0.89581 0.93411 0.0
H396 H 0.83723 0.14563 0.94082 0.0
H397 H 0.86593 0.18456 0.91281 0.0
H398 H 0.8581 0.12653 0.83449 0.0
H399 H 0.82954 0.08756 0.86286 0.0
La400 La 0.76323 0.97048 0.40781 0.0
La401 La 0.81294 0.02109 0.39588 0.0
C402 C 0.71707 0.93796 0.40552 0.0
C403 C 0.69926 0.91856 0.38486 0.0
C404 C 0.71033 0.88897 0.37442 0.0
C405 C 0.69135 0.86746 0.36072 0.0
C406 C 0.6609 0.87506 0.3571 0.0
C407 C 0.65044 0.90579 0.36526 0.0
C408 C 0.66938 0.9272 0.37915 0.0
C409 C 0.80533 0.96763 0.45054 0.0
C410 C 0.81403 0.95407 0.36177 0.0
C411 C 0.86225 0.04886 0.39247 0.0
C412 C 0.88618 0.06591 0.4087 0.0
C413 C 0.89335 0.09713 0.39961 0.0
C414 C 0.91883 0.11176 0.41083 0.0
C415 C 0.938 0.09557 0.43152 0.0
C416 C 0.9301 0.06475 0.44145 0.0
C417 C 0.90475 0.05006 0.43006 0.0
C418 C 0.76264 0.02696 0.36351 0.0
C419 C 0.76298 0.03841 0.43894 0.0
O420 O 0.74343 0.92627 0.41327 0.0
O421 O 0.71667 0.96928 0.40181 0.0
O422 O 0.78223 0.95002 0.44975 0.0
O423 O 0.8032 0.98572 0.42801 0.0
O424 O 0.78789 0.94643 0.37263 0.0
O425 O 0.82745 0.98107 0.36826 0.0
O426 O 0.83646 0.06355 0.38771 0.0
O427 O 0.85949 0.01816 0.39793 0.0
O428 O 0.77944 0.05073 0.37017 0.0
O429 O 0.77581 1.00161 0.37256 0.0
O430 O 0.79204 0.0398 0.43524 0.0
O431 O 0.74685 0.01533 0.42728 0.0
H432 H 0.7333 0.88153 0.37833 0.0
H433 H 0.70022 0.84406 0.35482 0.0
H434 H 0.62726 0.91278 0.36214 0.0
H435 H 0.66027 0.94986 0.38683 0.0
H436 H 0.87988 0.1098 0.38278 0.0
H437 H 0.92413 0.13527 0.40221 0.0
H438 H 0.94382 0.05159 0.45773 0.0
H439 H 0.90039 0.02581 0.4373 0.0
La440 La 0.32389 0.48501 0.64623 0.0
La441 La 0.27042 0.5304 0.63956 0.0
C442 C 0.36352 0.44222 0.63832 0.0
C443 C 0.39553 0.43848 0.63296 0.0
C444 C 0.41638 0.45869 0.64587 0.0
C445 C 0.44681 0.45314 0.64145 0.0
C446 C 0.45677 0.42746 0.6239 0.0
C447 C 0.43564 0.40789 0.61046 0.0
C448 C 0.40537 0.41337 0.61497 0.0
C449 C 0.32512 0.53373 0.68254 0.0
C450 C 0.32115 0.53783 0.59334 0.0
C451 C 0.23038 0.57317 0.64608 0.0
C452 C 0.21575 0.59459 0.66769 0.0
C453 C 0.18467 0.59515 0.6692 0.0
C454 C 0.16964 0.61921 0.68475 0.0
C455 C 0.18537 0.64339 0.6991 0.0
C456 C 0.21659 0.64168 0.69914 0.0
C457 C 0.23164 0.61759 0.68349 0.0
C458 C 0.26875 0.47779 0.60614 0.0
C459 C 0.26949 0.47695 0.6875 0.0
O460 O 0.35546 0.4521 0.66457 0.0
O461 O 0.34751 0.45568 0.61677 0.0
O462 O 0.33791 0.50604 0.68785 0.0
O463 O 0.31518 0.53476 0.65605 0.0
O464 O 0.33544 0.51296 0.60626 0.0
O465 O 0.29607 0.54991 0.60372 0.0
O466 O 0.22546 0.54237 0.64772 0.0
O467 O 0.25785 0.57903 0.63925 0.0
O468 O 0.2546 0.50451 0.59949 0.0
O469 O 0.27952 0.48088 0.63165 0.0
O470 O 0.2663 0.50831 0.68382 0.0
O471 O 0.28866 0.46112 0.67056 0.0
H472 H 0.4092 0.47841 0.65966 0.0
H473 H 0.46252 0.46878 0.65191 0.0
H474 H 0.4425 0.38759 0.59724 0.0
H475 H 0.38959 0.39752 0.60483 0.0
H476 H 0.17187 0.57782 0.65713 0.0
H477 H 0.14559 0.61948 0.68472 0.0
H478 H 0.22939 0.65997 0.70984 0.0
H479 H 0.2556 0.61799 0.68262 0.0
H480 H 0.17787 0.33678 0.52978 0.0
H481 H 0.25189 0.27288 0.55531 0.0
H482 H 0.27906 0.31894 0.57475 0.0
H483 H 0.22351 0.40423 0.50599 0.0
H484 H 0.19785 0.43421 0.51974 0.0
H485 H 0.1844 0.39637 0.5071 0.0
H486 H 0.15957 0.38706 0.55801 0.0
H487 H 0.173 0.4248 0.57079 0.0
H488 H 0.18178 0.38841 0.59166 0.0
H489 H 0.29528 0.36994 0.59686 0.0
H490 H 0.30271 0.42416 0.61531 0.0
H491 H 0.22186 0.4581 0.57028 0.0
C492 C 0.19999 0.33261 0.53906 0.0
C493 C 0.21283 0.3012 0.54103 0.0
C494 C 0.24168 0.29667 0.55353 0.0
C495 C 0.25725 0.3227 0.56465 0.0
C496 C 0.24391 0.35326 0.56265 0.0
C497 C 0.21614 0.35851 0.54977 0.0
C498 C 0.20698 0.3939 0.55062 0.0
C499 C 0.20295 0.40801 0.51898 0.0
C500 C 0.17866 0.39882 0.56885 0.0
C501 C 0.23381 0.40763 0.56638 0.0
C502 C 0.25458 0.38351 0.57338 0.0
C503 C 0.27977 0.38922 0.59052 0.0
C504 C 0.28403 0.42033 0.60065 0.0
C505 C 0.26391 0.44588 0.59292 0.0
C506 C 0.23836 0.43939 0.57547 0.0
H507 H 0.86969 1.00359 0.87719 0.0
H508 H 0.81174 0.93736 0.83287 0.0
H509 H 0.85527 0.91292 0.80793 0.0
H510 H 0.92111 0.01578 0.8181 0.0
H511 H 0.95341 0.01592 0.84229 0.0
H512 H 0.91774 0.02888 0.85594 0.0
H513 H 0.92269 0.98704 0.89911 0.0
H514 H 0.95844 0.97407 0.88569 0.0
H515 H 0.92968 0.9454 0.89078 0.0
H516 H 0.90469 0.89615 0.78787 0.0
H517 H 0.95637 0.88483 0.77653 0.0
H518 H 0.98406 0.96064 0.83466 0.0
C519 C 0.86612 0.98412 0.86199 0.0
C520 C 0.83722 0.97265 0.85654 0.0
C521 C 0.83359 0.94661 0.83719 0.0
C522 C 0.85819 0.93268 0.82292 0.0
C523 C 0.88631 0.9447 0.82867 0.0
C524 C 0.89049 0.96953 0.84805 0.0
C525 C 0.92326 0.97682 0.85146 0.0
C526 C 0.92922 1.01141 0.84134 0.0
C527 C 0.93415 0.97045 0.88367 0.0
C528 C 0.93688 0.95261 0.83045 0.0
C529 C 0.91505 0.93453 0.81751 0.0
C530 C 0.92189 0.9105 0.79757 0.0
C531 C 0.95171 0.90464 0.7907 0.0
C532 C 0.97477 0.92263 0.80345 0.0
C533 C 0.96705 0.94682 0.82394 0.0
H534 H 0.35267 0.66173 1.01118 0.0
H535 H 0.33328 0.72573 0.08393 0.0
H536 H 0.30808 0.68176 0.11015 0.0
H537 H 0.28507 0.61535 1.01355 0.0
H538 H 0.3042 0.57787 1.00613 0.0
H539 H 0.31836 0.61496 0.99184 0.0
H540 H 0.36914 0.60199 1.0177 0.0
H541 H 0.35517 0.56489 0.03208 0.0
H542 H 0.37061 0.59356 0.05716 0.0
H543 H 0.28577 0.63115 0.12857 0.0
H544 H 0.27148 0.57631 0.14075 0.0
H545 H 0.30795 0.54283 0.05776 0.0
C546 C 0.34258 0.66672 0.03237 0.0
C547 C 0.34436 0.69747 0.04526 0.0
C548 C 0.33183 0.70259 0.07347 0.0
C549 C 0.31746 0.67775 0.08848 0.0
C550 C 0.31619 0.64776 0.07517 0.0
C551 C 0.32867 0.64201 0.0479 0.0
C552 C 0.32619 0.60691 0.03961 0.0
C553 C 0.30733 0.60359 1.01109 0.0
C554 C 0.35712 0.5909 0.03646 0.0
C555 C 0.31035 0.59373 0.06655 0.0
C556 C 0.30451 0.61795 0.08651 0.0
C557 C 0.29025 0.61207 0.11311 0.0
C558 C 0.28213 0.58067 0.11978 0.0
C559 C 0.28854 0.55506 0.10031 0.0
C560 C 0.30262 0.56182 0.07309 0.0
H561 H 0.60645 0.11457 0.32096 0.0
H562 H 0.57036 0.02108 0.30489 0.0
H563 H 0.6197 0.9957 0.3175 0.0
H564 H 0.67855 0.10094 0.29281 0.0
H565 H 0.69719 0.12306 0.32137 0.0
H566 H 0.65933 0.13347 0.31096 0.0
H567 H 0.64334 0.12625 0.36569 0.0
H568 H 0.68122 0.11616 0.37637 0.0
H569 H 0.65212 0.08898 0.38517 0.0
H570 H 0.67488 0.98137 0.32882 0.0
H571 H 0.72803 0.97849 0.34381 0.0
H572 H 0.72633 0.08122 0.35701 0.0
C573 C 0.60878 0.08873 0.32015 0.0
C574 C 0.58448 0.06979 0.3117 0.0
C575 C 0.58858 0.03604 0.3113 0.0
C576 C 0.61659 0.02149 0.31833 0.0
C577 C 0.64015 0.04099 0.32633 0.0
C578 C 0.63625 0.07388 0.32786 0.0
C579 C 0.66461 0.08955 0.33819 0.0
C580 C 0.67556 0.11314 0.31441 0.0
C581 C 0.66004 0.10622 0.36813 0.0
C582 C 0.68546 0.06046 0.34165 0.0
C583 C 0.67103 0.03267 0.33447 0.0
C584 C 0.6861 1.00296 0.33496 0.0
C585 C 0.71634 1.00155 0.34355 0.0
C586 C 0.73125 0.02947 0.35225 0.0
C587 C 0.71555 0.05936 0.35081 0.0
H588 H 0.74882 0.20987 0.51694 0.0
H589 H 0.65901 0.21506 0.48056 0.0
H590 H 0.66576 0.16155 0.45945 0.0
H591 H 0.78134 0.16744 0.45356 0.0
H592 H 0.80641 0.14304 0.47661 0.0
H593 H 0.79487 0.18244 0.4885 0.0
H594 H 0.77636 0.15769 0.53782 0.0
H595 H 0.78736 0.11814 0.52584 0.0
H596 H 0.74958 0.12638 0.53661 0.0
H597 H 0.68041 0.10705 0.44459 0.0
H598 H 0.70483 0.05614 0.43074 0.0
H599 H 0.78632 0.0851 0.47446 0.0
C600 C 0.73091 0.19982 0.50407 0.0
C601 C 0.70331 0.21639 0.50054 0.0
C602 C 0.68017 0.20253 0.48383 0.0
C603 C 0.68377 0.17213 0.47174 0.0
C604 C 0.71078 0.15584 0.47635 0.0
C605 C 0.7342 0.16922 0.4916 0.0
C606 C 0.76089 0.14617 0.49288 0.0
C607 C 0.78745 0.16064 0.47693 0.0
C608 C 0.76902 0.13653 0.52521 0.0
C609 C 0.74866 0.11803 0.47598 0.0
C610 C 0.71957 0.12411 0.46705 0.0
C611 C 0.70323 0.10191 0.45139 0.0
C612 C 0.71724 0.07289 0.44387 0.0
C613 C 0.74743 0.0665 0.45169 0.0
C614 C 0.76318 0.08926 0.46832 0.0
H615 H 0.12105 0.44604 0.7793 0.0
H616 H 0.08575 0.41307 0.69497 0.0
H617 H 0.13429 0.41915 0.67236 0.0
H618 H 0.16486 0.509 0.74181 0.0
H619 H 0.19462 0.50616 0.76909 0.0
H620 H 0.15725 0.49758 0.77971 0.0
H621 H 0.1757 0.44188 0.79992 0.0
H622 H 0.21299 0.45 0.78863 0.0
H623 H 0.19492 0.41476 0.77551 0.0
H624 H 0.18726 0.4206 0.66074 0.0
H625 H 0.23854 0.43703 0.6536 0.0
H626 H 0.23894 0.48091 0.74051 0.0
C627 C 0.12355 0.44052 0.75601 0.0
C628 C 0.09978 0.42797 0.73924 0.0
C629 C 0.10368 0.42183 0.70861 0.0
C630 C 0.13129 0.42502 0.6955 0.0
C631 C 0.15458 0.43582 0.71288 0.0
C632 C 0.15079 0.44525 0.74191 0.0
C633 C 0.17906 0.45975 0.75404 0.0
C634 C 0.17362 0.49523 0.7616 0.0
C635 C 0.19139 0.44044 0.78114 0.0
C636 C 0.19927 0.45611 0.72744 0.0
C637 C 0.18475 0.4411 0.70448 0.0
C638 C 0.19877 0.43305 0.67823 0.0
C639 C 0.22806 0.44216 0.67455 0.0
C640 C 0.24267 0.4602 0.6965 0.0
C641 C 0.22828 0.46691 0.72353 0.0
H642 H 0.84517 0.94505 0.95083 0.0
H643 H 0.75046 0.94544 0.96611 0.0
H644 H 0.75423 0.88822 0.9816 0.0
H645 H 0.85326 0.86528 0.92332 0.0
H646 H 0.8882 0.85669 0.94229 0.0
H647 H 0.87793 0.89736 0.93163 0.0
H648 H 0.88471 0.91517 0.98619 0.0
H649 H 0.89533 0.87463 0.99693 0.0
H650 H 0.86509 0.89489 1.01529 0.0
H651 H 0.76858 0.82926 0.99361 0.0
H652 H 0.79324 0.77662 1.00665 0.0
H653 H 0.87858 0.81674 0.98713 0.0
C654 C 0.82527 0.93311 0.95758 0.0
C655 C 0.79735 0.94943 0.95644 0.0
C656 C 0.77191 0.93309 0.96586 0.0
C657 C 0.77387 0.90061 0.97485 0.0
C658 C 0.8016 0.88489 0.97497 0.0
C659 C 0.82694 0.90082 0.96708 0.0
C660 C 0.85425 0.8789 0.97025 0.0
C661 C 0.86928 0.87429 0.94008 0.0
C662 C 0.87613 0.89166 0.99356 0.0
C663 C 0.84035 0.84819 0.98103 0.0
C664 C 0.80993 0.85185 0.98328 0.0
C665 C 0.79244 0.82626 0.99214 0.0
C666 C 0.80652 0.79642 0.99935 0.0
C667 C 0.83775 0.79267 0.99812 0.0
C668 C 0.85467 0.81894 0.98863 0.0
H669 H 0.46153 0.53102 0.25434 0.0
H670 H 0.46316 0.61447 0.19571 0.0
H671 H 0.41142 0.60581 0.18041 0.0
H672 H 0.41559 0.48367 0.19943 0.0
H673 H 0.39683 0.46316 0.22895 0.0
H674 H 0.43457 0.47536 0.23443 0.0
H675 H 0.41831 0.50609 0.2813 0.0
H676 H 0.38033 0.49504 0.27536 0.0
H677 H 0.38937 0.53675 0.27802 0.0
H678 H 0.3574 0.59522 0.18047 0.0
H679 H 0.30836 0.57131 0.17822 0.0
H680 H 0.34291 0.48735 0.22701 0.0
C681 C 0.4513 0.5466 0.23736 0.0
C682 C 0.46623 0.57364 0.22635 0.0
C683 C 0.4522 0.5937 0.20438 0.0
C684 C 0.42266 0.58916 0.19581 0.0
C685 C 0.40796 0.56348 0.20838 0.0
C686 C 0.42221 0.54134 0.22722 0.0
C687 C 0.40143 0.51469 0.23579 0.0
C688 C 0.41278 0.4823 0.22394 0.0
C689 C 0.39712 0.51307 0.26963 0.0
C690 C 0.37307 0.52614 0.2197 0.0
C691 C 0.37729 0.55495 0.20498 0.0
C692 C 0.35403 0.57209 0.19095 0.0
C693 C 0.32608 0.55841 0.19013 0.0
C694 C 0.32182 0.52725 0.20202 0.0
C695 C 0.34553 0.51118 0.21765 0.0
H696 H 0.56933 0.23103 0.33606 0.0
H697 H 0.56669 0.1298 0.35909 0.0
H698 H 0.57695 0.14178 0.41159 0.0
H699 H 0.63071 0.24811 0.38934 0.0
H700 H 0.61563 0.2873 0.39793 0.0
H701 H 0.60896 0.27065 0.36179 0.0
H702 H 0.55236 0.27897 0.36917 0.0
H703 H 0.55891 0.2948 0.40568 0.0
H704 H 0.53526 0.26101 0.4011 0.0
H705 H 0.58244 0.16427 0.4617 0.0
H706 H 0.59516 0.19475 0.50613 0.0
H707 H 0.59813 0.28191 0.45199 0.0
C708 C 0.57176 0.21149 0.35214 0.0
C709 C 0.5677 0.17941 0.3436 0.0
C710 C 0.57033 0.15442 0.36522 0.0
C711 C 0.57575 0.16102 0.39514 0.0
C712 C 0.57871 0.19282 0.40317 0.0
C713 C 0.57775 0.21765 0.38236 0.0
C714 C 0.58281 0.24951 0.39737 0.0
C715 C 0.61122 0.26479 0.38593 0.0
C716 C 0.55571 0.27242 0.39306 0.0
C717 C 0.58642 0.23854 0.4297 0.0
C718 C 0.58333 0.20581 0.43244 0.0
C719 C 0.58527 0.18991 0.45988 0.0
C720 C 0.5922 0.20761 0.48513 0.0
C721 C 0.59783 0.24083 0.48277 0.0
C722 C 0.59387 0.25661 0.45471 0.0
H723 H 0.11108 0.32479 0.57974 0.0
H724 H 0.07391 0.23014 0.57396 0.0
H725 H 0.05252 0.23623 0.62358 0.0
H726 H 0.13187 0.31937 0.65471 0.0
H727 H 0.12206 0.36001 0.6643 0.0
H728 H 0.13214 0.35083 0.62673 0.0
H729 H 0.08242 0.37531 0.60643 0.0
H730 H 0.07241 0.38573 0.64376 0.0
H731 H 0.04797 0.36195 0.62156 0.0
H732 H 0.04058 0.24922 0.67669 0.0
H733 H 0.03338 0.27196 0.72687 0.0
H734 H 0.07521 0.35902 0.69796 0.0
C735 C 0.09758 0.30586 0.58849 0.0
C736 C 0.09413 0.27702 0.57272 0.0
C737 C 0.07691 0.25248 0.58545 0.0
C738 C 0.06467 0.25565 0.61376 0.0
C739 C 0.06944 0.28369 0.62926 0.0
C740 C 0.08492 0.30871 0.61689 0.0
C741 C 0.08761 0.3358 0.63893 0.0
C742 C 0.12036 0.34185 0.6466 0.0
C743 C 0.07164 0.36652 0.62695 0.0
C744 C 0.07164 0.32184 0.66552 0.0
C745 C 0.06155 0.29163 0.65958 0.0
C746 C 0.04789 0.27313 0.68141 0.0
C747 C 0.04405 0.28607 0.70989 0.0
C748 C 0.0534 0.31734 0.71612 0.0
C749 C 0.06733 0.33532 0.69358 0.0
H750 H 1.01329 0.77891 0.84425 0.0
H751 H 0.98073 0.87762 0.84426 0.0
H752 H 0.96309 0.87088 0.89493 0.0
H753 H 0.94985 0.74822 0.88466 0.0
H754 H 0.97152 0.71828 0.90544 0.0
H755 H 0.98321 0.73104 0.86911 0.0
H756 H 0.03437 0.74547 0.89154 0.0
H757 H 1.02258 0.73328 0.92804 0.0
H758 H 0.03602 0.77312 0.9219 0.0
H759 H 0.95164 0.85564 0.94575 0.0
H760 H 0.93602 0.82918 0.99163 0.0
H761 H 0.97021 0.73771 0.9596 0.0
C762 C 1.00216 0.79883 0.85498 0.0
C763 C 0.99819 0.82891 0.84025 0.0
C764 C 0.98365 0.85445 0.85486 0.0
C765 C 0.97385 0.85094 0.8839 0.0
C766 C 0.97839 0.8214 0.89808 0.0
C767 C 0.99134 0.79541 0.88406 0.0
C768 C 0.99113 0.76577 0.90421 0.0
C769 C 0.97283 0.73926 0.89001 0.0
C770 C 1.02292 0.7537 0.91187 0.0
C771 C 0.97596 0.77943 0.93142 0.0
C772 C 0.96968 0.8118 0.92745 0.0
C773 C 0.95613 0.8302 0.94915 0.0
C774 C 0.94746 0.81487 0.97526 0.0
C775 C 0.95158 0.78126 0.97921 0.0
C776 C 0.96677 0.76344 0.95727 0.0
H777 H 0.44776 0.70242 0.20493 0.0
H778 H 0.52641 0.64359 0.19024 0.0
H779 H 0.52208 0.65399 0.13657 0.0
H780 H 0.40789 0.6755 0.14058 0.0
H781 H 0.3902 0.71385 0.13178 0.0
H782 H 0.40051 0.70367 0.16972 0.0
H783 H 0.43156 0.75501 0.1731 0.0
H784 H 0.42089 0.76539 0.1353 0.0
H785 H 0.45964 0.76217 0.14586 0.0
H786 H 0.50731 0.66764 0.08363 0.0
H787 H 0.48412 0.68581 0.03565 0.0
H788 H 0.41493 0.73612 0.08356 0.0
C789 C 0.46435 0.69226 0.19039 0.0
C790 C 0.48863 0.67354 0.20221 0.0
C791 C 0.50919 0.6599 0.18229 0.0
C792 C 0.50638 0.66509 0.15147 0.0
C793 C 0.48259 0.68397 0.14056 0.0
C794 C 0.46188 0.69745 0.15935 0.0
C795 C 0.4379 0.71603 0.14155 0.0
C796 C 0.40732 0.70139 0.14619 0.0
C797 C 0.43749 0.75177 0.14943 0.0
C798 C 0.44852 0.71093 0.10999 0.0
C799 C 0.47419 0.69209 0.10994 0.0
C800 C 0.48743 0.68281 0.08343 0.0
C801 C 0.47416 0.6932 0.0563 0.0
C802 C 0.44825 0.71311 0.05581 0.0
C803 C 0.43527 0.7219 0.08308 0.0
H804 H 0.21714 0.38547 0.34018 0.0
H805 H 0.13582 0.33916 0.3143 0.0
H806 H 0.14318 0.35602 0.26216 0.0
H807 H 0.2075 0.45365 0.29288 0.0
H808 H 0.2462 0.45646 0.28391 0.0
H809 H 0.23574 0.43868 0.3188 0.0
H810 H 0.26605 0.38703 0.30651 0.0
H811 H 0.27646 0.40464 0.27145 0.0
H812 H 0.25845 0.36658 0.27231 0.0
H813 H 0.15658 0.38245 0.21362 0.0
H814 H 0.17568 0.41566 0.17239 0.0
H815 H 0.24944 0.44306 0.22865 0.0
C816 C 0.20097 0.37869 0.32353 0.0
C817 C 0.17593 0.36076 0.3315 0.0
C818 C 0.15541 0.35237 0.30885 0.0
C819 C 0.15935 0.36196 0.27911 0.0
C820 C 0.18412 0.37973 0.27208 0.0
C821 C 0.20472 0.38784 0.2936 0.0
C822 C 0.22884 0.40808 0.28024 0.0
C823 C 0.2296 0.44118 0.29482 0.0
C824 C 0.25925 0.39052 0.28278 0.0
C825 C 0.21817 0.41077 0.24804 0.0
C826 C 0.19236 0.39413 0.24381 0.0
C827 C 0.17708 0.39504 0.21654 0.0
C828 C 0.1881 0.41387 0.19322 0.0
C829 C 0.21433 0.43131 0.19709 0.0
C830 C 0.22983 0.42919 0.22474 0.0
H831 H 0.87852 0.89169 0.59803 0.0
H832 H 0.9549 0.9512 0.58475 0.0
H833 H 0.93117 0.97431 0.53904 0.0
H834 H 0.86647 0.87423 0.51991 0.0
H835 H 0.82667 0.87469 0.52339 0.0
H836 H 0.85011 0.86304 0.55476 0.0
H837 H 0.82422 0.90675 0.58638 0.0
H838 H 0.80093 0.91875 0.55502 0.0
H839 H 0.82334 0.94789 0.57335 0.0
H840 H 0.89698 0.99272 0.49478 0.0
H841 H 0.85736 1.0011 0.45585 0.0
H842 H 0.8061 0.92732 0.49796 0.0
C843 C 0.89068 0.90908 0.58533 0.0
C844 C 0.91865 0.91956 0.59533 0.0
C845 C 0.93325 0.94301 0.57803 0.0
C846 C 0.92001 0.95622 0.55186 0.0
C847 C 0.89221 0.9456 0.54298 0.0
C848 C 0.87795 0.92226 0.55912 0.0
C849 C 0.84831 0.91474 0.54505 0.0
C850 C 0.84788 0.87959 0.53519 0.0
C851 C 0.8227 0.92251 0.56621 0.0
C852 C 0.84793 0.9376 0.51858 0.0
C853 C 0.87329 0.95541 0.51762 0.0
C854 C 0.8772 0.97858 0.49524 0.0
C855 C 0.85473 0.98323 0.4732 0.0
C856 C 0.82899 0.96465 0.4737 0.0
C857 C 0.82566 0.94179 0.49684 0.0
H858 H 0.33941 0.52792 0.74099 0.0
H859 H 0.30924 0.59787 0.67407 0.0
H860 H 0.3105 0.64055 0.7121 0.0
H861 H 0.29882 0.56191 0.80315 0.0
H862 H 0.32848 0.55214 0.82941 0.0
H863 H 0.32302 0.52751 0.79733 0.0
H864 H 0.37753 0.53596 0.78213 0.0
H865 H 0.38316 0.56063 0.81407 0.0
H866 H 0.39055 0.57619 0.77739 0.0
H867 H 0.3189 0.67595 0.75782 0.0
H868 H 0.33338 0.70034 0.80546 0.0
H869 H 0.35673 0.60579 0.84185 0.0
C870 C 0.33282 0.55219 0.73431 0.0
C871 C 0.32417 0.55968 0.70462 0.0
C872 C 0.31574 0.59167 0.69678 0.0
C873 C 0.31645 0.61598 0.71823 0.0
C874 C 0.32545 0.60773 0.74736 0.0
C875 C 0.33332 0.57647 0.75532 0.0
C876 C 0.3432 0.57364 0.78762 0.0
C877 C 0.32212 0.55255 0.80543 0.0
C878 C 0.37553 0.56086 0.79045 0.0
C879 C 0.34044 0.60834 0.79664 0.0
C880 C 0.32995 0.62771 0.77329 0.0
C881 C 0.32678 0.66086 0.77627 0.0
C882 C 0.3349 0.6745 0.80356 0.0
C883 C 0.34621 0.65507 0.82762 0.0
C884 C 0.34845 0.62148 0.82398 0.0
H885 H 0.67868 0.1142 0.10147 0.0
H886 H 0.59692 0.06171 0.09566 0.0
H887 H 0.61123 0.04227 0.04628 0.0
H888 H 0.68248 0.13676 1.02313 0.0
H889 H 0.72226 0.13124 1.02189 0.0
H890 H 0.70487 0.1427 0.05608 0.0
H891 H 0.72994 0.09355 0.08321 0.0
H892 H 0.74749 0.08204 0.04916 0.0
H893 H 0.72479 0.054 0.06873 0.0
H894 H 0.63558 0.02599 0.99865 0.0
H895 H 0.66827 0.01379 0.95661 0.0
H896 H 0.7346 0.07637 0.99315 0.0
C897 C 0.66374 0.0986 0.08989 0.0
C898 C 0.63649 0.08972 0.10262 0.0
C899 C 0.6176 0.06945 0.08636 0.0
C900 C 0.62562 0.0581 0.05828 0.0
C901 C 0.65263 0.06719 0.04655 0.0
C902 C 0.67141 0.087 0.06181 0.0
C903 C 0.69965 0.09229 0.04462 0.0
C904 C 0.70247 0.12786 0.03592 0.0
C905 C 0.72709 0.07971 0.0625 0.0
C906 C 0.69399 0.07202 1.01748 0.0
C907 C 0.66666 0.05787 1.01901 0.0
C908 C 0.65692 0.03713 0.99713 0.0
C909 C 0.67571 0.03034 0.9733 0.0
C910 C 0.70401 0.04421 0.97137 0.0
C911 C 0.71299 0.06569 0.99367 0.0
H912 H 0.6558 0.12779 0.72764 0.0
H913 H 0.74163 0.16157 0.70048 0.0
H914 H 0.76455 0.13843 0.74648 0.0
H915 H 0.66645 0.14167 0.80772 0.0
H916 H 0.64728 0.10602 0.81841 0.0
H917 H 0.63725 0.12693 0.78416 0.0
H918 H 0.64627 0.0746 0.75497 0.0
H919 H 0.65631 0.05357 0.78909 0.0
H920 H 0.6817 0.05359 0.75852 0.0
H921 H 0.7789 0.10866 0.79435 0.0
H922 H 0.78313 0.07417 0.83965 0.0
H923 H 0.68807 0.06089 0.83648 0.0
C924 C 0.67932 0.13084 0.7316 0.0
C925 C 0.69686 0.1465 0.71023 0.0
C926 C 0.7277 0.14937 0.71619 0.0
C927 C 0.74093 0.13648 0.74242 0.0
C928 C 0.7231 0.12084 0.76277 0.0
C929 C 0.69293 0.11806 0.75773 0.0
C930 C 0.67901 0.09889 0.7826 0.0
C931 C 0.65615 0.11962 0.7992 0.0
C932 C 0.66501 0.06835 0.77057 0.0
C933 C 0.70611 0.09088 0.80212 0.0
C934 C 0.73132 0.10395 0.79041 0.0
C935 C 0.75922 0.09862 0.80386 0.0
C936 C 0.76145 0.07909 0.82965 0.0
C937 C 0.73599 0.06509 0.84179 0.0
C938 C 0.70794 0.07154 0.82797 0.0
H939 H 0.21502 0.42092 0.0678 0.0
H940 H 0.19629 0.52355 0.06152 0.0
H941 H 0.171 0.51652 1.01321 0.0
H942 H 0.22835 0.40838 0.9899 0.0
H943 H 0.21016 0.37046 0.98878 0.0
H944 H 0.22736 0.38328 1.02287 0.0
H945 H 0.17768 0.377 0.05029 0.0
H946 H 0.16039 0.36397 1.01633 0.0
H947 H 0.14465 0.39759 0.03592 0.0
H948 H 0.14903 0.49898 0.96488 0.0
H949 H 0.12855 0.4716 0.92138 0.0
H950 H 0.15825 0.3797 0.95985 0.0
C951 C 0.20561 0.44189 0.05624 0.0
C952 C 0.20774 0.47282 0.06854 0.0
C953 C 0.1949 0.49959 0.05274 0.0
C954 C 0.18056 0.49589 0.02515 0.0
C955 C 0.17893 0.4652 1.01361 0.0
C956 C 0.1908 0.43859 0.02873 0.0
C957 C 0.18512 0.4082 1.0116 0.0
C958 C 0.2145 0.39161 1.00277 0.0
C959 C 0.16581 0.38535 0.02961 0.0
C960 C 0.16834 0.42197 0.98451 0.0
C961 C 0.16526 0.45492 0.98607 0.0
C962 C 0.151 0.47312 0.96356 0.0
C963 C 0.13921 0.45723 0.93896 0.0
C964 C 0.14133 0.42331 0.93704 0.0
C965 C 0.15638 0.40562 0.96023 0.0
H966 H 0.78627 0.91801 0.31964 0.0
H967 H 0.87307 0.94447 0.35264 0.0
H968 H 0.89679 0.91355 0.31265 0.0
H969 H 0.80744 0.83694 0.29359 0.0
H970 H 0.78393 0.84075 0.26083 0.0
H971 H 0.77385 0.86142 0.29425 0.0
H972 H 0.77098 0.91531 0.26475 0.0
H973 H 0.78116 0.89489 0.23131 0.0
H974 H 0.80274 0.92786 0.24413 0.0
H975 H 0.91102 0.8828 0.26773 0.0
H976 H 0.91487 0.85686 0.21898 0.0
H977 H 0.81885 0.85219 0.21332 0.0
C978 C 0.81028 0.91659 0.31881 0.0
C979 C 0.82792 0.93323 0.33939 0.0
C980 C 0.85922 0.93172 0.33714 0.0
C981 C 0.87288 0.91413 0.31459 0.0
C982 C 0.8549 0.89845 0.2943 0.0
C983 C 0.82428 0.89961 0.29606 0.0
C984 C 0.81009 0.88308 0.26982 0.0
C985 C 0.79281 0.8538 0.28025 0.0
C986 C 0.79007 0.9067 0.25142 0.0
C987 C 0.8375 0.87299 0.25281 0.0
C988 C 0.8631 0.88161 0.26763 0.0
C989 C 0.89115 0.87564 0.25604 0.0
C990 C 0.89312 0.86077 0.22839 0.0
C991 C 0.86719 0.85233 0.21243 0.0
C992 C 0.83905 0.85836 0.22501 0.0
H993 H 0.37071 0.51915 0.56118 0.0
H994 H 0.29806 0.58989 0.5625 0.0
H995 H 0.31484 0.61303 0.51537 0.0
H996 H 0.42529 0.57277 0.52975 0.0
H997 H 0.44214 0.54227 0.50706 0.0
H998 H 0.42502 0.53125 0.54155 0.0
H999 H 0.39158 0.4919 0.51345 0.0
H1000 H 0.40847 0.50291 0.47884 0.0
H1001 H 0.36875 0.50653 0.48255 0.0
H1002 H 0.33771 0.62781 0.46763 0.0
H1003 H 0.36723 0.63515 0.42263 0.0
H1004 H 0.42596 0.55569 0.45087 0.0
C1005 C 0.35849 0.53967 0.55169 0.0
C1006 C 0.33298 0.55259 0.56575 0.0
C1007 C 0.31761 0.57941 0.55238 0.0
C1008 C 0.32695 0.5928 0.52549 0.0
C1009 C 0.35182 0.57931 0.51208 0.0
C1010 C 0.36759 0.55353 0.52471 0.0
C1011 C 0.39353 0.54374 0.50529 0.0
C1012 C 0.42326 0.54776 0.5219 0.0
C1013 C 0.39038 0.50922 0.49439 0.0
C1014 C 0.38964 0.56795 0.47977 0.0
C1015 C 0.36534 0.58811 0.48425 0.0
C1016 C 0.3568 0.61217 0.46382 0.0
C1017 C 0.3736 0.61596 0.43815 0.0
C1018 C 0.39878 0.59582 0.43293 0.0
C1019 C 0.40689 0.57152 0.4542 0.0
H1020 H 0.24384 0.25407 0.44206 0.0
H1021 H 0.19498 0.16597 0.44317 0.0
H1022 H 0.23466 0.13905 0.41494 0.0
H1023 H 0.27734 0.24372 0.36717 0.0
H1024 H 0.31237 0.25963 0.37886 0.0
H1025 H 0.27846 0.2734 0.39585 0.0
H1026 H 0.30057 0.25777 0.44775 0.0
H1027 H 0.33438 0.24366 0.43094 0.0
H1028 H 0.31409 0.21721 0.45476 0.0
H1029 H 0.28083 0.12011 0.39044 0.0
H1030 H 0.33047 0.11051 0.36976 0.0
H1031 H 0.35168 0.20983 0.38566 0.0
C1032 C 0.24117 0.22945 0.43545 0.0
C1033 C 0.21608 0.21221 0.44435 0.0
C1034 C 0.21384 0.17967 0.43629 0.0
C1035 C 0.23629 0.16416 0.42028 0.0
C1036 C 0.26114 0.18137 0.41258 0.0
C1037 C 0.26377 0.21334 0.41968 0.0
C1038 C 0.29391 0.22536 0.41047 0.0
C1039 C 0.2903 0.25211 0.38667 0.0
C1040 C 0.31179 0.23666 0.4376 0.0
C1041 C 0.30784 0.19505 0.39759 0.0
C1042 C 0.28838 0.1701 0.3989 0.0
C1043 C 0.29625 0.13951 0.38919 0.0
C1044 C 0.32471 0.1342 0.37774 0.0
C1045 C 0.34532 0.15925 0.37615 0.0
C1046 C 0.33651 0.19016 0.38619 0.0
H1047 H 0.13108 0.06958 0.6554 0.0
H1048 H 0.06654 0.06623 0.58269 0.0
H1049 H 0.0457 0.01777 0.60515 0.0
H1050 H 0.14366 0.98535 0.66511 0.0
H1051 H 0.14583 0.98617 0.70516 0.0
H1052 H 0.15619 0.02072 0.68354 0.0
H1053 H 0.11838 0.05637 0.71172 0.0
H1054 H 0.10817 0.02202 0.7337 0.0
H1055 H 0.08009 0.04505 0.71306 0.0
H1056 H 0.03308 0.96895 0.63383 0.0
H1057 H 0.02547 0.92542 0.66989 0.0
H1058 H 0.09586 0.96153 0.72645 0.0
C1059 C 0.11227 0.05901 0.64439 0.0
C1060 C 0.10074 0.07164 0.61698 0.0
C1061 C 0.07629 0.0567 0.60327 0.0
C1062 C 0.06417 0.02922 0.61593 0.0
C1063 C 0.07647 0.01709 0.64254 0.0
C1064 C 0.09964 0.0317 0.65691 0.0
C1065 C 0.10821 0.01398 0.68568 0.0
C1066 C 0.14038 1.00077 0.6848 0.0
C1067 C 0.10341 0.03565 0.71263 0.0
C1068 C 0.08623 0.98708 0.68512 0.0
C1069 C 0.0684 0.98927 0.65982 0.0
C1070 C 0.04675 0.96708 0.65384 0.0
C1071 C 0.04271 0.94229 0.67454 0.0
C1072 C 0.05998 0.93996 0.70123 0.0
C1073 C 0.08227 0.96258 0.70635 0.0
H1074 H 0.21356 0.80493 0.89041 0.0
H1075 H 0.2267 0.90653 0.87511 0.0
H1076 H 0.2755 0.90176 0.90041 0.0
H1077 H 0.24607 0.80154 0.96353 0.0
H1078 H 0.26368 0.7625 0.95985 0.0
H1079 H 0.23046 0.77282 0.93859 0.0
H1080 H 0.25766 0.75943 0.88971 0.0
H1081 H 0.29067 0.74868 0.91118 0.0
H1082 H 0.29218 0.77842 0.88175 0.0
H1083 H 0.32152 0.88752 0.92873 0.0
H1084 H 0.3619 0.86484 0.96078 0.0
H1085 H 0.32083 0.77194 0.9595 0.0
C1086 C 0.22693 0.82602 0.89215 0.0
C1087 C 0.21614 0.85622 0.88085 0.0
C1088 C 0.23421 0.8833 0.88386 0.0
C1089 C 0.26211 0.88078 0.89802 0.0
C1090 C 0.27195 0.85096 0.90921 0.0
C1091 C 0.25502 0.82399 0.90659 0.0
C1092 C 0.27058 0.79528 0.9222 0.0
C1093 C 0.25156 0.78227 0.94755 0.0
C1094 C 0.27823 0.7689 0.89987 0.0
C1095 C 0.29857 0.81056 0.93425 0.0
C1096 C 0.29886 0.84265 0.92611 0.0
C1097 C 0.32164 0.86238 0.93512 0.0
C1098 C 0.34451 0.84926 0.95337 0.0
C1099 C 0.34462 0.81666 0.96266 0.0
C1100 C 0.32151 0.79689 0.95254 0.0
H1101 H 0.53301 0.02961 0.20838 0.0
H1102 H 0.45361 0.09077 0.20974 0.0
H1103 H 0.42755 0.05317 0.17746 0.0
H1104 H 0.52328 1.0012 0.13088 0.0
H1105 H 0.5362 0.96091 0.14009 0.0
H1106 H 0.55006 0.99426 0.16067 0.0
H1107 H 0.53362 0.96739 0.2098 0.0
H1108 H 0.51955 0.9341 0.18938 0.0
H1109 H 0.49547 0.95629 0.21375 0.0
H1110 H 0.40877 1.00823 0.14776 0.0
H1111 H 0.39786 0.95755 0.12306 0.0
H1112 H 0.48822 0.92298 0.14129 0.0
C1113 C 0.51038 0.03532 0.20123 0.0
C1114 C 0.4954 0.06331 0.21132 0.0
C1115 C 0.46553 0.06956 0.20221 0.0
C1116 C 0.45053 0.04837 0.18381 0.0
C1117 C 0.46554 0.02068 0.17476 0.0
C1118 C 0.49477 0.01395 0.1831 0.0
C1119 C 0.50475 0.98124 0.17176 0.0
C1120 C 0.53008 0.98461 0.14953 0.0
C1121 C 0.51388 0.95841 0.19772 0.0
C1122 C 0.47643 0.97057 0.15632 0.0
C1123 C 0.4543 0.994 0.15804 0.0
C1124 C 0.42601 0.98981 0.146 0.0
C1125 C 0.42006 0.96092 0.13184 0.0
C1126 C 0.44216 0.93621 0.1299 0.0
C1127 C 0.47078 0.94129 0.14238 0.0
H1128 H 0.85762 0.37553 0.62659 0.0
H1129 H 0.86713 0.30529 0.69878 0.0
H1130 H 0.82134 0.27982 0.68165 0.0
H1131 H 0.77771 0.38481 0.63024 0.0
H1132 H 0.77265 0.38927 0.59053 0.0
H1133 H 0.80655 0.40175 0.60809 0.0
H1134 H 0.83704 0.36502 0.57327 0.0
H1135 H 0.80324 0.35239 0.55563 0.0
H1136 H 0.82908 0.32294 0.57168 0.0
H1137 H 0.7752 0.26149 0.65654 0.0
H1138 H 0.73071 0.2521 0.62576 0.0
H1139 H 0.74962 0.33563 0.57102 0.0
C1140 C 0.84997 0.35499 0.63901 0.0
C1141 C 0.86618 0.34232 0.66395 0.0
C1142 C 0.8555 0.31511 0.67928 0.0
C1143 C 0.82937 0.30059 0.66986 0.0
C1144 C 0.81403 0.31367 0.64521 0.0
C1145 C 0.82381 0.34033 0.63005 0.0
C1146 C 0.80301 0.34968 0.60432 0.0
C1147 C 0.78916 0.38338 0.60856 0.0
C1148 C 0.81906 0.34735 0.57446 0.0
C1149 C 0.78005 0.32403 0.60736 0.0
C1150 C 0.78695 0.30347 0.63104 0.0
C1151 C 0.76949 0.27748 0.63801 0.0
C1152 C 0.74429 0.27233 0.6203 0.0
C1153 C 0.73663 0.29317 0.59597 0.0
C1154 C 0.75476 0.31943 0.58957 0.0
H1155 H 1.00641 0.49073 0.79951 0.0
H1156 H 1.00657 0.40601 0.85669 0.0
H1157 H 0.99449 0.44026 0.89975 0.0
H1158 H 0.03709 0.54608 0.8539 0.0
H1159 H 1.01363 0.57915 0.84059 0.0
H1160 H 0.02526 0.54824 0.81541 0.0
H1161 H 0.97025 0.53839 0.80151 0.0
H1162 H 0.95845 0.56913 0.82669 0.0
H1163 H 0.94451 0.5292 0.83051 0.0
H1164 H 0.97862 0.48417 0.93571 0.0
H1165 H 0.9597 0.53261 0.96089 0.0
H1166 H 0.96973 0.58822 0.87945 0.0
C1167 C 1.00436 0.47936 0.82118 0.0
C1168 C 1.00761 0.44571 0.82484 0.0
C1169 C 1.00439 0.43177 0.85347 0.0
C1170 C 0.99753 0.45106 0.878 0.0
C1171 C 0.99394 0.4842 0.87347 0.0
C1172 C 0.99734 0.49818 0.84571 0.0
C1173 C 0.99057 0.53397 0.84611 0.0
C1174 C 1.01829 0.55298 0.83856 0.0
C1175 C 0.96439 0.54319 0.82496 0.0
C1176 C 0.98221 0.53803 0.87832 0.0
C1177 C 0.9846 0.50917 0.89388 0.0
C1178 C 0.97703 0.5069 0.92377 0.0
C1179 C 0.96645 0.53468 0.93796 0.0
C1180 C 0.96329 0.56443 0.92228 0.0
C1181 C 0.9717 0.56595 0.89212 0.0
H1182 H 0.80549 0.73503 0.10521 0.0
H1183 H 0.84572 0.64405 0.07963 0.0
H1184 H 0.80806 0.61519 0.1078 0.0
H1185 H 0.78203 0.70959 0.18019 0.0
H1186 H 0.7473 0.73205 0.17754 0.0
H1187 H 0.77923 0.74597 0.15799 0.0
H1188 H 0.74905 0.74666 0.10845 0.0
H1189 H 0.71708 0.73278 0.12782 0.0
H1190 H 0.73124 0.71068 0.09673 0.0
H1191 H 0.76508 0.59586 0.13616 0.0
H1192 H 0.71764 0.58715 0.16115 0.0
H1193 H 0.70301 0.6902 0.1669 0.0
C1194 C 0.80661 0.70906 0.10607 0.0
C1195 C 0.82864 0.69176 0.09039 0.0
C1196 C 0.82903 0.65778 0.09143 0.0
C1197 C 0.80782 0.64115 0.10751 0.0
C1198 C 0.78614 0.65877 0.12233 0.0
C1199 C 0.7852 0.69195 0.12171 0.0
C1200 C 0.75805 0.70484 0.13772 0.0
C1201 C 0.76721 0.72426 0.16498 0.0
C1202 C 0.73765 0.72492 0.1164 0.0
C1203 C 0.74376 0.67372 0.14697 0.0
C1204 C 0.76061 0.6475 0.13816 0.0
C1205 C 0.7517 0.6162 0.14325 0.0
C1206 C 0.7246 0.61149 0.15731 0.0
C1207 C 0.70644 0.63793 0.16593 0.0
C1208 C 0.71651 0.66946 0.16102 0.0
H1209 H 0.64224 0.47204 0.40755 0.0
H1210 H 0.55689 0.43743 0.43528 0.0
H1211 H 0.53155 0.47939 0.40379 0.0
H1212 H 0.62173 0.55674 0.4059 0.0
H1213 H 0.64346 0.56519 0.37354 0.0
H1214 H 0.65472 0.53286 0.39868 0.0
H1215 H 0.65455 0.4931 0.35498 0.0
H1216 H 0.64342 0.5253 0.32971 0.0
H1217 H 0.62147 0.48991 0.33224 0.0
H1218 H 0.51555 0.52525 0.3684 0.0
H1219 H 0.51046 0.56895 0.33058 0.0
H1220 H 0.60635 0.57375 0.32678 0.0
C1221 C 0.61821 0.47347 0.40735 0.0
C1222 C 0.6016 0.45141 0.4241 0.0
C1223 C 0.57015 0.4538 0.42253 0.0
C1224 C 0.55555 0.47773 0.40486 0.0
C1225 C 0.57266 0.49916 0.38881 0.0
C1226 C 0.60332 0.49713 0.38984 0.0
C1227 C 0.61664 0.5224 0.36986 0.0
C1228 C 0.63523 0.54567 0.38809 0.0
C1229 C 0.6351 0.50674 0.34524 0.0
C1230 C 0.58871 0.53891 0.35722 0.0
C1231 C 0.56353 0.52529 0.36852 0.0
C1232 C 0.53514 0.53608 0.35951 0.0
C1233 C 0.53246 0.56095 0.33805 0.0
C1234 C 0.55799 0.57477 0.32577 0.0
C1235 C 0.58642 0.56384 0.33591 0.0
H1236 H 0.42244 0.33358 0.18998 0.0
H1237 H 0.34108 0.28336 0.2066 0.0
H1238 H 0.37046 0.23639 0.22558 0.0
H1239 H 0.46456 0.26713 0.16511 0.0
H1240 H 0.49889 0.27829 0.18276 0.0
H1241 H 0.47156 0.30875 0.17195 0.0
H1242 H 0.47061 0.32939 0.22598 0.0
H1243 H 0.49814 0.29912 0.23691 0.0
H1244 H 0.46338 0.30181 0.25612 0.0
H1245 H 0.40883 0.19316 0.23933 0.0
H1246 H 0.45333 0.1583 0.24923 0.0
H1247 H 0.5097 0.23732 0.22628 0.0
C1248 C 0.41074 0.313 0.19817 0.0
C1249 C 0.37934 0.31225 0.19655 0.0
C1250 C 0.36507 0.28446 0.20709 0.0
C1251 C 0.38157 0.25767 0.21811 0.0
C1252 C 0.41244 0.25896 0.21877 0.0
C1253 C 0.4269 0.28603 0.20938 0.0
C1254 C 0.46033 0.28088 0.21177 0.0
C1255 C 0.47467 0.28394 0.18107 0.0
C1256 C 0.47391 0.30419 0.23403 0.0
C1257 C 0.4624 0.24658 0.22355 0.0
C1258 C 0.43451 0.23434 0.22742 0.0
C1259 C 0.43077 0.20266 0.2368 0.0
C1260 C 0.45617 0.18304 0.24243 0.0
C1261 C 0.48496 0.19523 0.23901 0.0
C1262 C 0.48798 0.22744 0.22946 0.0
H1263 H 0.98508 0.29323 0.84052 0.0
H1264 H 0.94121 0.31174 0.75501 0.0
H1265 H 0.90562 0.26941 0.76613 0.0
H1266 H 0.97749 0.20745 0.84168 0.0
H1267 H 0.97063 0.20501 0.88102 0.0
H1268 H 0.99282 0.23665 0.8663 0.0
H1269 H 0.95785 0.27908 0.88998 0.0
H1270 H 0.93559 0.24758 0.90483 0.0
H1271 H 0.91859 0.27884 0.88164 0.0
H1272 H 0.87498 0.22416 0.78639 0.0
H1273 H 0.8504 0.1817 0.81503 0.0
H1274 H 0.9136 0.19297 0.88772 0.0
C1275 C 0.96801 0.28844 0.82408 0.0
C1276 C 0.96612 0.30596 0.79679 0.0
C1277 C 0.94325 0.29884 0.77606 0.0
C1278 C 0.92291 0.27471 0.78216 0.0
C1279 C 0.92551 0.25787 0.80918 0.0
C1280 C 0.94738 0.26455 0.82989 0.0
C1281 C 0.94505 0.24322 0.85742 0.0
C1282 C 0.97317 0.22182 0.86185 0.0
C1283 C 0.9389 0.26339 0.8851 0.0
C1284 C 0.91843 0.22353 0.84902 0.0
C1285 C 0.90761 0.23221 0.82101 0.0
C1286 C 0.8833 0.2172 0.80833 0.0
C1287 C 0.86959 0.19291 0.82473 0.0
C1288 C 0.88 0.18381 0.85368 0.0
C1289 C 0.90487 0.19945 0.8658 0.0
H1290 H 0.08703 0.6552 0.14399 0.0
H1291 H 0.06924 0.55971 0.11234 0.0
H1292 H 1.02092 0.57974 0.09147 0.0
H1293 H 1.01247 0.67897 0.16232 0.0
H1294 H 1.01666 0.71964 0.1492 0.0
H1295 H 0.04845 0.69684 0.16347 0.0
H1296 H 0.07602 0.70726 0.11419 0.0
H1297 H 0.04431 0.73004 0.09978 0.0
H1298 H 0.05889 0.69641 0.0794 0.0
H1299 H 0.9741 0.61204 0.07247 0.0
H1300 H 0.93536 0.65308 0.05731 0.0
H1301 H 0.98745 0.72649 0.09876 0.0
C1302 C 0.0732 0.63834 0.13257 0.0
C1303 C 0.0822 0.6058 0.12987 0.0
C1304 C 0.06282 0.58466 0.11518 0.0
C1305 C 0.03536 0.59588 0.10304 0.0
C1306 C 0.02759 0.62832 0.10561 0.0
C1307 C 0.04612 0.64916 0.12002 0.0
C1308 C 0.03366 0.68314 0.11888 0.0
C1309 C 0.02744 0.69535 0.15034 0.0
C1310 C 0.05445 0.70552 0.10206 0.0
C1311 C 1.0052 0.67836 0.10151 0.0
C1312 C 1.00173 0.64664 0.09414 0.0
C1313 C 0.97672 0.63693 0.07814 0.0
C1314 C 0.95486 0.66032 0.06956 0.0
C1315 C 0.95848 0.69292 0.07671 0.0
C1316 C 0.98401 0.70178 0.09284 0.0
H1317 H 0.66754 0.82752 0.31486 0.0
H1318 H 0.60663 0.86449 0.38082 0.0
H1319 H 0.57285 0.82069 0.37042 0.0
H1320 H 0.61073 0.80031 0.26261 0.0
H1321 H 0.6317 0.7647 0.2528 0.0
H1322 H 0.65075 0.80007 0.26407 0.0
H1323 H 0.6789 0.7668 0.30526 0.0
H1324 H 0.65979 0.73141 0.29425 0.0
H1325 H 0.65813 0.74457 0.33219 0.0
H1326 H 0.54702 0.77196 0.35572 0.0
H1327 H 0.52845 0.72217 0.33511 0.0
H1328 H 0.60526 0.71505 0.27801 0.0
C1329 C 0.647 0.82652 0.32696 0.0
C1330 C 0.63968 0.84986 0.34845 0.0
C1331 C 0.61253 0.84755 0.36375 0.0
C1332 C 0.59326 0.82251 0.35822 0.0
C1333 C 0.60131 0.79981 0.33728 0.0
C1334 C 0.62735 0.80158 0.32166 0.0
C1335 C 0.63062 0.77353 0.30065 0.0
C1336 C 0.63096 0.78537 0.2681 0.0
C1337 C 0.65852 0.75286 0.30857 0.0
C1338 C 0.60247 0.75564 0.30723 0.0
C1339 C 0.58605 0.77135 0.32851 0.0
C1340 C 0.55954 0.75952 0.33888 0.0
C1341 C 0.54923 0.73105 0.327 0.0
C1342 C 0.56528 0.71452 0.30477 0.0
C1343 C 0.5924 0.72705 0.29488 0.0
H1344 H 0.5926 0.33783 0.54939 0.0
H1345 H 0.6351 0.33498 0.63659 0.0
H1346 H 0.59744 0.37404 0.65452 0.0
H1347 H 0.56452 0.4241 0.55036 0.0
H1348 H 0.53032 0.41386 0.53192 0.0
H1349 H 0.56422 0.39174 0.52426 0.0
H1350 H 0.53876 0.33878 0.53827 0.0
H1351 H 0.50499 0.36063 0.54628 0.0
H1352 H 0.52223 0.33461 0.57433 0.0
H1353 H 0.5512 0.40604 0.66504 0.0
H1354 H 0.49963 0.42711 0.66781 0.0
H1355 H 0.48638 0.40829 0.57398 0.0
C1356 C 0.59459 0.34639 0.57193 0.0
C1357 C 0.61685 0.33376 0.5916 0.0
C1358 C 0.61831 0.34468 0.62118 0.0
C1359 C 0.59708 0.3669 0.63149 0.0
C1360 C 0.5746 0.37795 0.6119 0.0
C1361 C 0.57332 0.36818 0.58265 0.0
C1362 C 0.54481 0.38003 0.56729 0.0
C1363 C 0.55137 0.40386 0.54196 0.0
C1364 C 0.52664 0.35183 0.5559 0.0
C1365 C 0.52963 0.39669 0.59283 0.0
C1366 C 0.54746 0.39589 0.61816 0.0
C1367 C 0.53728 0.40743 0.64519 0.0
C1368 C 0.50795 0.41947 0.64654 0.0
C1369 C 0.48898 0.41949 0.6211 0.0
C1370 C 0.50034 0.40864 0.59379 0.0
H1371 H 0.13796 0.67673 0.67417 0.0
H1372 H 0.19654 0.67454 0.75173 0.0
H1373 H 0.16985 0.72249 0.77105 0.0
H1374 H 0.13238 0.76217 0.66553 0.0
H1375 H 0.09391 0.7623 0.65387 0.0
H1376 H 0.11783 0.72813 0.64649 0.0
H1377 H 0.08172 0.69082 0.67384 0.0
H1378 H 0.0576 0.72481 0.6811 0.0
H1379 H 0.07137 0.69956 0.71148 0.0
H1380 H 0.1348 0.77074 0.78221 0.0
H1381 H 0.09522 0.81331 0.78376 0.0
H1382 H 0.06149 0.78317 0.69821 0.0
C1383 C 0.14502 0.68601 0.69543 0.0
C1384 C 0.16918 0.67164 0.71158 0.0
C1385 C 0.17812 0.68517 0.73893 0.0
C1386 C 0.16306 0.71236 0.75008 0.0
C1387 C 0.13927 0.72588 0.7335 0.0
C1388 C 0.13041 0.71305 0.70672 0.0
C1389 C 0.10433 0.73176 0.69296 0.0
C1390 C 0.11262 0.74699 0.66294 0.0
C1391 C 0.07715 0.71047 0.68967 0.0
C1392 C 0.09953 0.75699 0.71628 0.0
C1393 C 0.11987 0.75346 0.73952 0.0
C1394 C 0.11904 0.77387 0.76389 0.0
C1395 C 0.09674 0.79824 0.76448 0.0
C1396 C 0.07581 0.80197 0.7408 0.0
C1397 C 0.07741 0.78107 0.71651 0.0
H1398 H 0.49424 0.83191 1.0067 0.0
H1399 H 0.45277 0.80955 0.92199 0.0
H1400 H 0.49359 0.83492 0.8956 0.0
H1401 H 0.52442 0.90954 0.98316 0.0
H1402 H 0.55855 0.90338 1.00421 0.0
H1403 H 0.52492 0.88558 1.01691 0.0
H1404 H 0.55127 0.8296 1.01776 0.0
H1405 H 0.58489 0.84719 1.00489 0.0
H1406 H 0.56852 0.8151 0.98448 0.0
H1407 H 0.53937 0.86014 0.8779 0.0
H1408 H 0.58804 0.88383 0.86981 0.0
H1409 H 0.60177 0.89006 0.96535 0.0
C1410 C 0.49356 0.83289 0.98262 0.0
C1411 C 0.47016 0.81879 0.96644 0.0
C1412 C 0.4704 0.82006 0.93492 0.0
C1413 C 0.49349 0.83451 0.91967 0.0
C1414 C 0.51646 0.8476 0.93613 0.0
C1415 C 0.5168 0.84703 0.96689 0.0
C1416 C 0.54507 0.86164 0.97891 0.0
C1417 C 0.5378 0.89183 0.99686 0.0
C1418 C 0.56353 0.8369 0.99761 0.0
C1419 C 0.56057 0.87009 0.9501 0.0
C1420 C 0.54343 0.86197 0.92577 0.0
C1421 C 0.55289 0.8669 0.89677 0.0
C1422 C 0.58058 0.88057 0.8924 0.0
C1423 C 0.59878 0.8892 0.91686 0.0
C1424 C 0.58851 0.88372 0.94614 0.0
H1425 H 0.94996 0.15954 0.44166 0.0
H1426 H 0.99195 0.06452 0.4433 0.0
H1427 H 0.03954 0.08797 0.45793 0.0
H1428 H 1.01079 0.19983 0.40937 0.0
H1429 H 1.00546 0.23574 0.43065 0.0
H1430 H 0.9743 0.2112 0.42208 0.0
H1431 H 0.96273 0.20622 0.4782 0.0
H1432 H 0.99389 0.23075 0.48693 0.0
H1433 H 0.99131 0.19148 0.50386 0.0
H1434 H 0.08393 0.1227 0.47112 0.0
H1435 H 0.12001 0.1655 0.48069 0.0
H1436 H 0.04916 0.23727 0.46894 0.0
C1437 C 0.96909 0.14353 0.445 0.0
C1438 C 0.96676 0.10995 0.44143 0.0
C1439 C 0.99262 0.09017 0.44642 0.0
C1440 C 1.01997 0.10333 0.45456 0.0
C1441 C 1.02144 0.13646 0.45767 0.0
C1442 C 0.99662 0.15627 0.45303 0.0
C1443 C 1.00419 0.19118 0.45703 0.0
C1444 C 0.99834 0.21062 0.42805 0.0
C1445 C 0.98701 0.20576 0.48305 0.0
C1446 C 0.03716 0.18799 0.46428 0.0
C1447 C 0.04678 0.15625 0.46476 0.0
C1448 C 0.07655 0.14761 0.47077 0.0
C1449 C 0.09693 0.17204 0.47618 0.0
C1450 C 0.08749 0.20471 0.47543 0.0
C1451 C 0.05714 0.21253 0.46959 0.0
loop_
_geom_bond_atom_site_label_1
_geom_bond_atom_site_label_2
_geom_bond_distance
_geom_bond_site_symmetry_2
_ccdc_geom_bond_type
La0 C2 2.928 . S
La0 O20 2.521 . S
La0 O21 2.628 . S
La0 O22 2.554 . S
La0 O23 2.757 . S
La0 O24 2.470 . S
La0 O29 2.482 . S
La0 O31 2.503 . S
La1 C11 2.928 . S
La1 O23 2.482 . S
La1 O25 2.503 . S
La1 O26 2.521 . S
La1 O27 2.628 . S
La1 O28 2.554 . S
La1 O29 2.757 . S
La1 O30 2.470 . S
C2 La0 2.928 . S
C2 C3 1.503 . S
C2 O20 1.261 . S
C2 O21 1.243 . S
C3 C2 1.503 . S
C3 C4 1.394 . S
C3 C8 1.373 . S
C4 C3 1.394 . S
C4 C5 1.380 . S
C4 H32 0.930 . S
C5 C4 1.380 . S
C5 C6 1.376 . S
C5 H33 0.930 . S
C6 C5 1.376 . S
C6 C7 1.370 . S
C7 C6 1.370 . S
C7 C8 1.396 . S
C7 H34 0.929 . S
C8 C3 1.373 . S
C8 C7 1.396 . S
C8 H35 0.929 . S
C9 O22 1.240 . S
C9 O23 1.289 . S
C10 O24 1.258 . S
C10 O25 1.256 . S
C11 La1 2.928 . S
C11 C12 1.503 . S
C11 O26 1.261 . S
C11 O27 1.243 . S
C12 C11 1.503 . S
C12 C13 1.394 . S
C12 C17 1.373 . S
C13 C12 1.394 . S
C13 C14 1.380 . S
C13 H36 0.930 . S
C14 C13 1.380 . S
C14 C15 1.376 . S
C14 H37 0.930 . S
C15 C14 1.376 . S
C15 C16 1.370 . S
C16 C15 1.370 . S
C16 C17 1.396 . S
C16 H38 0.929 . S
C17 C12 1.373 . S
C17 C16 1.396 . S
C17 H39 0.929 . S
C18 O28 1.240 . S
C18 O29 1.289 . S
C19 O30 1.258 . S
C19 O31 1.256 . S
O20 La0 2.521 . S
O20 C2 1.261 . S
O21 La0 2.628 . S
O21 C2 1.243 . S
O22 La0 2.554 . S
O22 C9 1.240 . S
O23 La0 2.757 . S
O23 La1 2.482 . S
O23 C9 1.289 . S
O24 La0 2.470 . S
O24 C10 1.258 . S
O25 La1 2.503 . S
O25 C10 1.256 . S
O26 La1 2.521 . S
O26 C11 1.261 . S
O27 La1 2.628 . S
O27 C11 1.243 . S
O28 La1 2.554 . S
O28 C18 1.240 . S
O29 La0 2.482 . S
O29 La1 2.757 . S
O29 C18 1.289 . S
O30 La1 2.470 . S
O30 C19 1.258 . S
O31 La0 2.503 . S
O31 C19 1.256 . S
H32 C4 0.930 . S
H33 C5 0.930 . S
H34 C7 0.929 . S
H35 C8 0.929 . S
H36 C13 0.930 . S
H37 C14 0.930 . S
H38 C16 0.929 . S
H39 C17 0.929 . S
La40 C42 2.928 . S
La40 O60 2.521 . S
La40 O61 2.628 . S
La40 O62 2.554 1_655 S
La40 O63 2.757 1_655 S
La40 O64 2.470 1_655 S
La40 O69 2.482 . S
La40 O71 2.503 . S
La41 C51 2.928 . S
La41 O63 2.482 . S
La41 O65 2.503 . S
La41 O66 2.521 . S
La41 O67 2.628 . S
La41 O68 2.533 1_455 S
La41 O69 2.757 1_455 S
La41 O70 2.470 . S
C42 La40 2.928 . S
C42 C43 1.503 . S
C42 O60 1.261 . S
C42 O61 1.243 . S
C43 C42 1.503 . S
C43 C44 1.394 . S
C43 C48 1.373 . S
C44 C43 1.394 . S
C44 C45 1.380 . S
C44 H72 0.930 . S
C45 C44 1.380 . S
C45 C46 1.376 . S
C45 H73 0.930 . S
C46 C45 1.376 . S
C46 C47 1.370 . S
C47 C46 1.370 . S
C47 C48 1.396 . S
C47 H74 0.929 . S
C48 C43 1.373 . S
C48 C47 1.396 . S
C48 H75 0.929 . S
C49 O62 1.240 . S
C49 O63 1.289 . S
C50 O64 1.258 . S
C50 O65 1.256 . S
C51 La41 2.928 . S
C51 C52 1.503 . S
C51 O66 1.261 . S
C51 O67 1.243 . S
C52 C51 1.503 . S
C52 C53 1.394 . S
C52 C57 1.373 . S
C53 C52 1.394 . S
C53 C54 1.380 . S
C53 H76 0.930 . S
C54 C53 1.380 . S
C54 C55 1.376 . S
C54 H77 0.930 . S
C55 C54 1.376 . S
C55 C56 1.370 . S
C56 C55 1.370 . S
C56 C57 1.396 . S
C56 H78 0.929 . S
C57 C52 1.373 . S
C57 C56 1.396 . S
C57 H79 0.929 . S
C58 O68 1.260 . S
C58 O69 1.289 . S
C59 O70 1.258 1_655 S
C59 O71 1.256 . S
O60 La40 2.521 . S
O60 C42 1.261 . S
O61 La40 2.628 . S
O61 C42 1.243 . S
O62 La40 2.554 1_455 S
O62 C49 1.240 . S
O63 La40 2.757 1_455 S
O63 La41 2.482 . S
O63 C49 1.289 . S
O64 La40 2.470 1_455 S
O64 C50 1.258 . S
O65 La41 2.503 . S
O65 C50 1.256 . S
O66 La41 2.521 . S
O66 C51 1.261 . S
O67 La41 2.628 . S
O67 C51 1.243 . S
O68 La41 2.533 1_655 S
O68 C58 1.260 . S
O69 La40 2.482 . S
O69 La41 2.757 1_655 S
O69 C58 1.289 . S
O70 La41 2.470 . S
O70 C59 1.258 1_455 S
O71 La40 2.503 . S
O71 C59 1.256 . S
H72 C44 0.930 . S
H73 C45 0.930 . S
H74 C47 0.929 . S
H75 C48 0.929 . S
H76 C53 0.930 . S
H77 C54 0.930 . S
H78 C56 0.929 . S
H79 C57 0.929 . S
La80 C82 2.928 . S
La80 O100 2.521 . S
La80 O101 2.628 . S
La80 O102 2.554 1_554 S
La80 O103 2.757 1_554 S
La80 O104 2.470 1_554 S
La80 O109 2.482 . S
La80 O111 2.503 . S
La81 C91 2.928 . S
La81 O103 2.482 . S
La81 O105 2.503 . S
La81 O106 2.521 . S
La81 O107 2.628 . S
La81 O108 2.554 . S
La81 O109 2.757 1_556 S
La81 O110 2.470 . S
C82 La80 2.928 . S
C82 C83 1.503 . S
C82 O100 1.261 . S
C82 O101 1.243 . S
C83 C82 1.503 . S
C83 C84 1.394 . S
C83 C88 1.373 . S
C84 C83 1.394 . S
C84 C85 1.380 . S
C84 H112 0.930 . S
C85 C84 1.380 . S
C85 C86 1.376 . S
C85 H113 0.930 . S
C86 C85 1.376 . S
C86 C87 1.370 . S
C87 C86 1.370 . S
C87 C88 1.396 . S
C87 H114 0.929 . S
C88 C83 1.373 . S
C88 C87 1.396 . S
C88 H115 0.929 . S
C89 O102 1.240 . S
C89 O103 1.289 . S
C90 O104 1.258 . S
C90 O105 1.256 . S
C91 La81 2.928 . S
C91 C92 1.503 . S
C91 O106 1.261 . S
C91 O107 1.243 . S
C92 C91 1.503 . S
C92 C93 1.394 . S
C92 C97 1.373 . S
C93 C92 1.394 . S
C93 C94 1.380 . S
C93 H116 0.930 . S
C94 C93 1.380 . S
C94 C95 1.376 . S
C94 H117 0.930 . S
C95 C94 1.376 . S
C95 C96 1.370 . S
C96 C95 1.370 . S
C96 C97 1.396 . S
C96 H118 0.929 . S
C97 C92 1.373 . S
C97 C96 1.396 . S
C97 H119 0.929 . S
C98 O108 1.240 1_554 S
C98 O109 1.289 . S
C99 O110 1.258 1_554 S
C99 O111 1.256 . S
O100 La80 2.521 . S
O100 C82 1.261 . S
O101 La80 2.628 . S
O101 C82 1.243 . S
O102 La80 2.554 1_556 S
O102 C89 1.240 . S
O103 La80 2.757 1_556 S
O103 La81 2.482 . S
O103 C89 1.289 . S
O104 La80 2.470 1_556 S
O104 C90 1.258 . S
O105 La81 2.503 . S
O105 C90 1.256 . S
O106 La81 2.521 . S
O106 C91 1.261 . S
O107 La81 2.628 . S
O107 C91 1.243 . S
O108 La81 2.554 . S
O108 C98 1.240 1_556 S
O109 La80 2.482 . S
O109 La81 2.757 1_554 S
O109 C98 1.289 . S
O110 La81 2.470 . S
O110 C99 1.258 1_556 S
O111 La80 2.503 . S
O111 C99 1.256 . S
H112 C84 0.930 . S
H113 C85 0.930 . S
H114 C87 0.929 . S
H115 C88 0.929 . S
H116 C93 0.930 . S
H117 C94 0.930 . S
H118 C96 0.929 . S
H119 C97 0.929 . S
La120 C122 2.928 . S
La120 O140 2.521 . S
La120 O141 2.628 . S
La120 O142 2.554 . S
La120 O143 2.757 . S
La120 O144 2.470 . S
La120 O149 2.482 . S
La120 O151 2.503 . S
La121 C131 2.928 . S
La121 O143 2.482 . S
La121 O145 2.503 . S
La121 O146 2.521 . S
La121 O147 2.628 . S
La121 O148 2.554 . S
La121 O149 2.757 . S
La121 O150 2.470 . S
C122 La120 2.928 . S
C122 C123 1.503 . S
C122 O140 1.261 . S
C122 O141 1.243 . S
C123 C122 1.503 . S
C123 C124 1.394 . S
C123 C128 1.373 . S
C124 C123 1.394 . S
C124 C125 1.380 . S
C124 H152 0.930 . S
C125 C124 1.380 . S
C125 C126 1.376 . S
C125 H153 0.930 . S
C126 C125 1.376 . S
C126 C127 1.370 . S
C127 C126 1.370 . S
C127 C128 1.396 . S
C127 H154 0.929 . S
C128 C123 1.373 . S
C128 C127 1.396 . S
C128 H155 0.929 . S
C129 O142 1.240 . S
C129 O143 1.289 . S
C130 O144 1.258 . S
C130 O145 1.256 . S
C131 La121 2.928 . S
C131 C132 1.503 . S
C131 O146 1.261 . S
C131 O147 1.243 . S
C132 C131 1.503 . S
C132 C133 1.394 . S
C132 C137 1.373 . S
C133 C132 1.394 . S
C133 C134 1.380 . S
C133 H156 0.930 . S
C134 C133 1.380 . S
C134 C135 1.376 . S
C134 H157 0.930 . S
C135 C134 1.376 . S
C135 C136 1.370 . S
C136 C135 1.370 . S
C136 C137 1.396 . S
C136 H158 0.929 . S
C137 C132 1.373 . S
C137 C136 1.396 . S
C137 H159 0.929 . S
C138 O148 1.240 . S
C138 O149 1.289 . S
C139 O150 1.258 . S
C139 O151 1.256 . S
O140 La120 2.521 . S
O140 C122 1.261 . S
O141 La120 2.628 . S
O141 C122 1.243 . S
O142 La120 2.554 . S
O142 C129 1.240 . S
O143 La120 2.757 . S
O143 La121 2.482 . S
O143 C129 1.289 . S
O144 La120 2.470 . S
O144 C130 1.258 . S
O145 La121 2.503 . S
O145 C130 1.256 . S
O146 La121 2.521 . S
O146 C131 1.261 . S
O147 La121 2.628 . S
O147 C131 1.243 . S
O148 La121 2.554 . S
O148 C138 1.240 . S
O149 La120 2.482 . S
O149 La121 2.757 . S
O149 C138 1.289 . S
O150 La121 2.470 . S
O150 C139 1.258 . S
O151 La120 2.503 . S
O151 C139 1.256 . S
H152 C124 0.930 . S
H153 C125 0.930 . S
H154 C127 0.929 . S
H155 C128 0.929 . S
H156 C133 0.930 . S
H157 C134 0.930 . S
H158 C136 0.929 . S
H159 C137 0.929 . S
La160 C162 2.928 . S
La160 O180 2.521 . S
La160 O181 2.628 . S
La160 O182 2.554 . S
La160 O183 2.757 . S
La160 O184 2.470 . S
La160 O189 2.482 . S
La160 O191 2.503 . S
La161 C171 2.928 . S
La161 O183 2.482 . S
La161 O185 2.503 . S
La161 O186 2.521 . S
La161 O187 2.628 . S
La161 O188 2.554 . S
La161 O189 2.757 . S
La161 O190 2.470 . S
C162 La160 2.928 . S
C162 C163 1.503 . S
C162 O180 1.261 . S
C162 O181 1.243 . S
C163 C162 1.503 . S
C163 C164 1.394 . S
C163 C168 1.373 . S
C164 C163 1.394 . S
C164 C165 1.380 . S
C164 H192 0.930 . S
C165 C164 1.380 . S
C165 C166 1.376 . S
C165 H193 0.930 . S
C166 C165 1.376 . S
C166 C167 1.370 . S
C167 C166 1.370 . S
C167 C168 1.396 . S
C167 H194 0.929 . S
C168 C163 1.373 . S
C168 C167 1.396 . S
C168 H195 0.929 . S
C169 O182 1.240 . S
C169 O183 1.289 . S
C170 O184 1.258 . S
C170 O185 1.256 . S
C171 La161 2.928 . S
C171 C172 1.503 . S
C171 O186 1.261 . S
C171 O187 1.243 . S
C172 C171 1.503 . S
C172 C173 1.394 . S
C172 C177 1.373 . S
C173 C172 1.394 . S
C173 C174 1.380 . S
C173 H196 0.930 . S
C174 C173 1.380 . S
C174 C175 1.376 . S
C174 H197 0.930 . S
C175 C174 1.376 . S
C175 C176 1.370 . S
C176 C175 1.370 . S
C176 C177 1.396 . S
C176 H198 0.929 . S
C177 C172 1.373 . S
C177 C176 1.396 . S
C177 H199 0.929 . S
C178 O188 1.240 . S
C178 O189 1.289 . S
C179 O190 1.258 . S
C179 O191 1.256 . S
O180 La160 2.521 . S
O180 C162 1.261 . S
O181 La160 2.628 . S
O181 C162 1.243 . S
O182 La160 2.554 . S
O182 C169 1.240 . S
O183 La160 2.757 . S
O183 La161 2.482 . S
O183 C169 1.289 . S
O184 La160 2.470 . S
O184 C170 1.258 . S
O185 La161 2.503 . S
O185 C170 1.256 . S
O186 La161 2.521 . S
O186 C171 1.261 . S
O187 La161 2.628 . S
O187 C171 1.243 . S
O188 La161 2.554 . S
O188 C178 1.240 . S
O189 La160 2.482 . S
O189 La161 2.757 . S
O189 C178 1.289 . S
O190 La161 2.470 . S
O190 C179 1.258 . S
O191 La160 2.503 . S
O191 C179 1.256 . S
H192 C164 0.930 . S
H193 C165 0.930 . S
H194 C167 0.929 . S
H195 C168 0.929 . S
H196 C173 0.930 . S
H197 C174 0.930 . S
H198 C176 0.929 . S
H199 C177 0.929 . S
La200 C202 2.928 . S
La200 O220 2.521 . S
La200 O221 2.628 . S
La200 O222 2.554 . S
La200 O223 2.757 . S
La200 O224 2.470 . S
La200 O229 2.482 1_655 S
La200 O231 2.503 1_655 S
La201 C211 2.928 . S
La201 O223 2.482 1_455 S
La201 O225 2.503 1_455 S
La201 O226 2.521 . S
La201 O227 2.628 . S
La201 O228 2.554 . S
La201 O229 2.757 . S
La201 O230 2.470 . S
C202 La200 2.928 . S
C202 C203 1.503 . S
C202 O220 1.261 . S
C202 O221 1.243 . S
C203 C202 1.503 . S
C203 C204 1.394 . S
C203 C208 1.373 . S
C204 C203 1.394 . S
C204 C205 1.380 . S
C204 H232 0.930 . S
C205 C204 1.380 . S
C205 C206 1.376 . S
C205 H233 0.930 . S
C206 C205 1.376 . S
C206 C207 1.370 . S
C207 C206 1.370 . S
C207 C208 1.396 . S
C207 H234 0.929 . S
C208 C203 1.373 . S
C208 C207 1.396 . S
C208 H235 0.929 . S
C209 O222 1.240 . S
C209 O223 1.289 . S
C210 O224 1.258 . S
C210 O225 1.256 . S
C211 La201 2.928 . S
C211 C212 1.503 . S
C211 O226 1.261 . S
C211 O227 1.243 . S
C212 C211 1.503 . S
C212 C213 1.394 . S
C212 C217 1.373 . S
C213 C212 1.394 . S
C213 C214 1.380 . S
C213 H236 0.930 . S
C214 C213 1.380 . S
C214 C215 1.376 . S
C214 H237 0.930 . S
C215 C214 1.376 . S
C215 C216 1.370 . S
C216 C215 1.370 . S
C216 C217 1.396 . S
C216 H238 0.929 . S
C217 C212 1.373 . S
C217 C216 1.396 . S
C217 H239 0.929 . S
C218 O228 1.240 . S
C218 O229 1.289 . S
C219 O230 1.258 . S
C219 O231 1.256 . S
O220 La200 2.521 . S
O220 C202 1.261 . S
O221 La200 2.628 . S
O221 C202 1.243 . S
O222 La200 2.554 . S
O222 C209 1.240 . S
O223 La200 2.757 . S
O223 La201 2.482 1_655 S
O223 C209 1.289 . S
O224 La200 2.470 . S
O224 C210 1.258 . S
O225 La201 2.503 1_655 S
O225 C210 1.256 . S
O226 La201 2.521 . S
O226 C211 1.261 . S
O227 La201 2.628 . S
O227 C211 1.243 . S
O228 La201 2.554 . S
O228 C218 1.240 . S
O229 La200 2.482 1_455 S
O229 La201 2.757 . S
O229 C218 1.289 . S
O230 La201 2.470 . S
O230 C219 1.258 . S
O231 La200 2.503 1_455 S
O231 C219 1.256 . S
H232 C204 0.930 . S
H233 C205 0.930 . S
H234 C207 0.929 . S
H235 C208 0.929 . S
H236 C213 0.930 . S
H237 C214 0.930 . S
H238 C216 0.929 . S
H239 C217 0.929 . S
La240 C242 2.928 . S
La240 O260 2.521 . S
La240 O261 2.628 . S
La240 O262 2.554 . S
La240 O263 2.757 . S
La240 O264 2.470 . S
La240 O269 2.482 . S
La240 O271 2.503 1_554 S
La241 C251 2.928 . S
La241 O263 2.482 1_556 S
La241 O265 2.503 1_556 S
La241 O266 2.521 . S
La241 O267 2.628 . S
La241 O268 2.554 . S
La241 O269 2.757 1_556 S
La241 O270 2.470 . S
C242 La240 2.928 . S
C242 C243 1.503 . S
C242 O260 1.261 . S
C242 O261 1.243 . S
C243 C242 1.503 . S
C243 C244 1.394 . S
C243 C248 1.373 . S
C244 C243 1.394 . S
C244 C245 1.380 . S
C244 H272 0.930 . S
C245 C244 1.380 . S
C245 C246 1.376 . S
C245 H273 0.930 . S
C246 C245 1.376 . S
C246 C247 1.370 . S
C247 C246 1.370 . S
C247 C248 1.396 . S
C247 H274 0.929 . S
C248 C243 1.373 . S
C248 C247 1.396 . S
C248 H275 0.929 . S
C249 O262 1.240 . S
C249 O263 1.289 . S
C250 O264 1.258 . S
C250 O265 1.256 . S
C251 La241 2.928 . S
C251 C252 1.503 . S
C251 O266 1.261 . S
C251 O267 1.243 . S
C252 C251 1.503 . S
C252 C253 1.394 . S
C252 C257 1.373 . S
C253 C252 1.394 . S
C253 C254 1.380 . S
C253 H276 0.930 . S
C254 C253 1.380 . S
C254 C255 1.376 . S
C254 H277 0.930 . S
C255 C254 1.376 . S
C255 C256 1.370 . S
C256 C255 1.370 . S
C256 C257 1.396 . S
C256 H278 0.929 . S
C257 C252 1.373 . S
C257 C256 1.396 . S
C257 H279 0.929 . S
C258 O268 1.240 . S
C258 O269 1.289 1_556 S
C259 O270 1.258 . S
C259 O271 1.256 . S
O260 La240 2.521 . S
O260 C242 1.261 . S
O261 La240 2.628 . S
O261 C242 1.243 . S
O262 La240 2.554 . S
O262 C249 1.240 . S
O263 La240 2.757 . S
O263 La241 2.482 1_554 S
O263 C249 1.289 . S
O264 La240 2.470 . S
O264 C250 1.258 . S
O265 La241 2.503 1_554 S
O265 C250 1.256 . S
O266 La241 2.521 . S
O266 C251 1.261 . S
O267 La241 2.628 . S
O267 C251 1.243 . S
O268 La241 2.554 . S
O268 C258 1.240 . S
O269 La240 2.482 . S
O269 La241 2.757 1_554 S
O269 C258 1.289 1_554 S
O270 La241 2.470 . S
O270 C259 1.258 . S
O271 La240 2.503 1_556 S
O271 C259 1.256 . S
H272 C244 0.930 . S
H273 C245 0.930 . S
H274 C247 0.929 . S
H275 C248 0.929 . S
H276 C253 0.930 . S
H277 C254 0.930 . S
H278 C256 0.929 . S
H279 C257 0.929 . S
La280 C282 2.928 . S
La280 O300 2.521 . S
La280 O301 2.628 . S
La280 O302 2.554 . S
La280 O303 2.757 . S
La280 O304 2.470 . S
La280 O309 2.482 . S
La280 O311 2.503 . S
La281 C291 2.928 . S
La281 O303 2.482 . S
La281 O305 2.503 . S
La281 O306 2.521 . S
La281 O307 2.628 . S
La281 O308 2.554 . S
La281 O309 2.757 . S
La281 O310 2.470 . S
C282 La280 2.928 . S
C282 C283 1.503 . S
C282 O300 1.261 . S
C282 O301 1.243 . S
C283 C282 1.503 . S
C283 C284 1.394 . S
C283 C288 1.373 . S
C284 C283 1.394 . S
C284 C285 1.380 . S
C284 H312 0.930 . S
C285 C284 1.380 . S
C285 C286 1.376 . S
C285 H313 0.930 . S
C286 C285 1.376 . S
C286 C287 1.370 . S
C287 C286 1.370 . S
C287 C288 1.396 . S
C287 H314 0.929 . S
C288 C283 1.373 . S
C288 C287 1.396 . S
C288 H315 0.929 . S
C289 O302 1.240 . S
C289 O303 1.289 . S
C290 O304 1.258 . S
C290 O305 1.256 . S
C291 La281 2.928 . S
C291 C292 1.503 . S
C291 O306 1.261 . S
C291 O307 1.243 . S
C292 C291 1.503 . S
C292 C293 1.394 . S
C292 C297 1.373 . S
C293 C292 1.394 . S
C293 C294 1.380 . S
C293 H316 0.930 . S
C294 C293 1.380 . S
C294 C295 1.376 . S
C294 H317 0.930 . S
C295 C294 1.376 . S
C295 C296 1.370 . S
C296 C295 1.370 . S
C296 C297 1.396 . S
C296 H318 0.929 . S
C297 C292 1.373 . S
C297 C296 1.396 . S
C297 H319 0.929 . S
C298 O308 1.240 . S
C298 O309 1.289 . S
C299 O310 1.258 . S
C299 O311 1.256 . S
O300 La280 2.521 . S
O300 C282 1.261 . S
O301 La280 2.628 . S
O301 C282 1.243 . S
O302 La280 2.554 . S
O302 C289 1.240 . S
O303 La280 2.757 . S
O303 La281 2.482 . S
O303 C289 1.289 . S
O304 La280 2.470 . S
O304 C290 1.258 . S
O305 La281 2.503 . S
O305 C290 1.256 . S
O306 La281 2.521 . S
O306 C291 1.261 . S
O307 La281 2.628 . S
O307 C291 1.243 . S
O308 La281 2.554 . S
O308 C298 1.240 . S
O309 La280 2.482 . S
O309 La281 2.757 . S
O309 C298 1.289 . S
O310 La281 2.470 . S
O310 C299 1.258 . S
O311 La280 2.503 . S
O311 C299 1.256 . S
H312 C284 0.930 . S
H313 C285 0.930 . S
H314 C287 0.929 . S
H315 C288 0.929 . S
H316 C293 0.930 . S
H317 C294 0.930 . S
H318 C296 0.929 . S
H319 C297 0.929 . S
La320 C322 2.928 . S
La320 O340 2.521 . S
La320 O341 2.628 . S
La320 O342 2.554 . S
La320 O343 2.757 . S
La320 O344 2.470 . S
La320 O349 2.482 . S
La320 O351 2.503 . S
La321 C331 2.928 . S
La321 O343 2.482 . S
La321 O345 2.503 . S
La321 O346 2.521 . S
La321 O347 2.628 . S
La321 O348 2.554 . S
La321 O349 2.757 . S
La321 O350 2.470 . S
C322 La320 2.928 . S
C322 C323 1.503 . S
C322 O340 1.261 . S
C322 O341 1.243 . S
C323 C322 1.503 . S
C323 C324 1.394 . S
C323 C328 1.373 . S
C324 C323 1.394 . S
C324 C325 1.380 . S
C324 H352 0.930 . S
C325 C324 1.380 . S
C325 C326 1.376 . S
C325 H353 0.930 . S
C326 C325 1.376 . S
C326 C327 1.370 . S
C327 C326 1.370 . S
C327 C328 1.396 . S
C327 H354 0.929 . S
C328 C323 1.373 . S
C328 C327 1.396 . S
C328 H355 0.929 . S
C329 O342 1.240 . S
C329 O343 1.289 . S
C330 O344 1.258 . S
C330 O345 1.256 . S
C331 La321 2.928 . S
C331 C332 1.503 . S
C331 O346 1.261 . S
C331 O347 1.243 . S
C332 C331 1.503 . S
C332 C333 1.394 . S
C332 C337 1.373 . S
C333 C332 1.394 . S
C333 C334 1.380 . S
C333 H356 0.930 . S
C334 C333 1.380 . S
C334 C335 1.376 . S
C334 H357 0.930 . S
C335 C334 1.376 . S
C335 C336 1.370 . S
C336 C335 1.370 . S
C336 C337 1.396 . S
C336 H358 0.929 . S
C337 C332 1.373 . S
C337 C336 1.396 . S
C337 H359 0.929 . S
C338 O348 1.240 . S
C338 O349 1.289 . S
C339 O350 1.258 . S
C339 O351 1.256 . S
O340 La320 2.521 . S
O340 C322 1.261 . S
O341 La320 2.628 . S
O341 C322 1.243 . S
O342 La320 2.554 . S
O342 C329 1.240 . S
O343 La320 2.757 . S
O343 La321 2.482 . S
O343 C329 1.289 . S
O344 La320 2.470 . S
O344 C330 1.258 . S
O345 La321 2.503 . S
O345 C330 1.256 . S
O346 La321 2.521 . S
O346 C331 1.261 . S
O347 La321 2.628 . S
O347 C331 1.243 . S
O348 La321 2.554 . S
O348 C338 1.240 . S
O349 La320 2.482 . S
O349 La321 2.757 . S
O349 C338 1.289 . S
O350 La321 2.470 . S
O350 C339 1.258 . S
O351 La320 2.503 . S
O351 C339 1.256 . S
H352 C324 0.930 . S
H353 C325 0.930 . S
H354 C327 0.929 . S
H355 C328 0.929 . S
H356 C333 0.930 . S
H357 C334 0.930 . S
H358 C336 0.929 . S
H359 C337 0.929 . S
La360 C362 2.928 . S
La360 O380 2.521 . S
La360 O381 2.628 . S
La360 O382 2.554 1_565 S
La360 O383 2.757 1_565 S
La360 O384 2.470 1_565 S
La360 O389 2.482 . S
La360 O391 2.503 . S
La361 C371 2.928 . S
La361 O383 2.482 . S
La361 O385 2.503 . S
La361 O386 2.521 . S
La361 O387 2.628 . S
La361 O388 2.554 1_545 S
La361 O389 2.757 1_545 S
La361 O390 2.470 1_545 S
C362 La360 2.928 . S
C362 C363 1.503 . S
C362 O380 1.261 . S
C362 O381 1.243 . S
C363 C362 1.503 . S
C363 C364 1.394 . S
C363 C368 1.373 . S
C364 C363 1.394 . S
C364 C365 1.380 . S
C364 H392 0.930 . S
C365 C364 1.380 . S
C365 C366 1.376 . S
C365 H393 0.930 . S
C366 C365 1.376 . S
C366 C367 1.370 . S
C367 C366 1.370 . S
C367 C368 1.396 . S
C367 H394 0.929 . S
C368 C363 1.373 . S
C368 C367 1.396 . S
C368 H395 0.929 . S
C369 O382 1.240 . S
C369 O383 1.289 . S
C370 O384 1.258 . S
C370 O385 1.256 . S
C371 La361 2.928 . S
C371 C372 1.503 . S
C371 O386 1.261 . S
C371 O387 1.243 . S
C372 C371 1.503 . S
C372 C373 1.394 . S
C372 C377 1.373 . S
C373 C372 1.394 . S
C373 C374 1.380 . S
C373 H396 0.930 . S
C374 C373 1.380 . S
C374 C375 1.376 . S
C374 H397 0.930 . S
C375 C374 1.376 . S
C375 C376 1.370 . S
C376 C375 1.370 . S
C376 C377 1.396 . S
C376 H398 0.929 . S
C377 C372 1.373 . S
C377 C376 1.396 . S
C377 H399 0.929 . S
C378 O388 1.240 . S
C378 O389 1.289 . S
C379 O390 1.258 . S
C379 O391 1.256 . S
O380 La360 2.521 . S
O380 C362 1.261 . S
O381 La360 2.628 . S
O381 C362 1.243 . S
O382 La360 2.554 1_545 S
O382 C369 1.240 . S
O383 La360 2.757 1_545 S
O383 La361 2.482 . S
O383 C369 1.289 . S
O384 La360 2.470 1_545 S
O384 C370 1.258 . S
O385 La361 2.503 . S
O385 C370 1.256 . S
O386 La361 2.521 . S
O386 C371 1.261 . S
O387 La361 2.628 . S
O387 C371 1.243 . S
O388 La361 2.554 1_565 S
O388 C378 1.240 . S
O389 La360 2.482 . S
O389 La361 2.757 1_565 S
O389 C378 1.289 . S
O390 La361 2.470 1_565 S
O390 C379 1.258 . S
O391 La360 2.503 . S
O391 C379 1.256 . S
H392 C364 0.930 . S
H393 C365 0.930 . S
H394 C367 0.929 . S
H395 C368 0.929 . S
H396 C373 0.930 . S
H397 C374 0.930 . S
H398 C376 0.929 . S
H399 C377 0.929 . S
La400 C402 2.928 . S
La400 O420 2.521 . S
La400 O421 2.628 . S
La400 O422 2.554 . S
La400 O423 2.757 . S
La400 O424 2.470 . S
La400 O429 2.482 1_565 S
La400 O431 2.503 1_565 S
La401 C411 2.928 . S
La401 O423 2.482 1_545 S
La401 O425 2.503 1_545 S
La401 O426 2.521 . S
La401 O427 2.628 . S
La401 O428 2.554 . S
La401 O429 2.757 . S
La401 O430 2.470 . S
C402 La400 2.928 . S
C402 C403 1.503 . S
C402 O420 1.261 . S
C402 O421 1.243 . S
C403 C402 1.503 . S
C403 C404 1.394 . S
C403 C408 1.373 . S
C404 C403 1.394 . S
C404 C405 1.380 . S
C404 H432 0.930 . S
C405 C404 1.380 . S
C405 C406 1.376 . S
C405 H433 0.930 . S
C406 C405 1.376 . S
C406 C407 1.370 . S
C407 C406 1.370 . S
C407 C408 1.396 . S
C407 H434 0.929 . S
C408 C403 1.373 . S
C408 C407 1.396 . S
C408 H435 0.929 . S
C409 O422 1.240 . S
C409 O423 1.289 . S
C410 O424 1.258 . S
C410 O425 1.256 . S
C411 La401 2.928 . S
C411 C412 1.503 . S
C411 O426 1.261 . S
C411 O427 1.243 . S
C412 C411 1.503 . S
C412 C413 1.394 . S
C412 C417 1.373 . S
C413 C412 1.394 . S
C413 C414 1.380 . S
C413 H436 0.930 . S
C414 C413 1.380 . S
C414 C415 1.376 . S
C414 H437 0.930 . S
C415 C414 1.376 . S
C415 C416 1.370 . S
C416 C415 1.370 . S
C416 C417 1.396 . S
C416 H438 0.929 . S
C417 C412 1.373 . S
C417 C416 1.396 . S
C417 H439 0.929 . S
C418 O428 1.240 . S
C418 O429 1.289 . S
C419 O430 1.258 . S
C419 O431 1.256 . S
O420 La400 2.521 . S
O420 C402 1.261 . S
O421 La400 2.628 . S
O421 C402 1.243 . S
O422 La400 2.554 . S
O422 C409 1.240 . S
O423 La400 2.757 . S
O423 La401 2.482 1_565 S
O423 C409 1.289 . S
O424 La400 2.470 . S
O424 C410 1.258 . S
O425 La401 2.503 1_565 S
O425 C410 1.256 . S
O426 La401 2.521 . S
O426 C411 1.261 . S
O427 La401 2.628 . S
O427 C411 1.243 . S
O428 La401 2.554 . S
O428 C418 1.240 . S
O429 La400 2.482 1_545 S
O429 La401 2.757 . S
O429 C418 1.289 . S
O430 La401 2.470 . S
O430 C419 1.258 . S
O431 La400 2.503 1_545 S
O431 C419 1.256 . S
H432 C404 0.930 . S
H433 C405 0.930 . S
H434 C407 0.929 . S
H435 C408 0.929 . S
H436 C413 0.930 . S
H437 C414 0.930 . S
H438 C416 0.929 . S
H439 C417 0.929 . S
La440 C442 2.928 . S
La440 O460 2.521 . S
La440 O461 2.628 . S
La440 O462 2.554 . S
La440 O463 2.757 . S
La440 O464 2.470 . S
La440 O469 2.482 . S
La440 O471 2.503 . S
La441 C451 2.928 . S
La441 O463 2.482 . S
La441 O465 2.503 . S
La441 O466 2.521 . S
La441 O467 2.628 . S
La441 O468 2.554 . S
La441 O469 2.757 . S
La441 O470 2.470 . S
C442 La440 2.928 . S
C442 C443 1.503 . S
C442 O460 1.261 . S
C442 O461 1.243 . S
C443 C442 1.503 . S
C443 C444 1.394 . S
C443 C448 1.373 . S
C444 C443 1.394 . S
C444 C445 1.380 . S
C444 H472 0.930 . S
C445 C444 1.380 . S
C445 C446 1.376 . S
C445 H473 0.930 . S
C446 C445 1.376 . S
C446 C447 1.370 . S
C447 C446 1.370 . S
C447 C448 1.396 . S
C447 H474 0.929 . S
C448 C443 1.373 . S
C448 C447 1.396 . S
C448 H475 0.929 . S
C449 O462 1.240 . S
C449 O463 1.289 . S
C450 O464 1.258 . S
C450 O465 1.256 . S
C451 La441 2.928 . S
C451 C452 1.503 . S
C451 O466 1.261 . S
C451 O467 1.243 . S
C452 C451 1.503 . S
C452 C453 1.394 . S
C452 C457 1.373 . S
C453 C452 1.394 . S
C453 C454 1.380 . S
C453 H476 0.930 . S
C454 C453 1.380 . S
C454 C455 1.376 . S
C454 H477 0.930 . S
C455 C454 1.376 . S
C455 C456 1.370 . S
C456 C455 1.370 . S
C456 C457 1.396 . S
C456 H478 0.929 . S
C457 C452 1.373 . S
C457 C456 1.396 . S
C457 H479 0.929 . S
C458 O468 1.240 . S
C458 O469 1.289 . S
C459 O470 1.258 . S
C459 O471 1.256 . S
O460 La440 2.521 . S
O460 C442 1.261 . S
O461 La440 2.628 . S
O461 C442 1.243 . S
O462 La440 2.554 . S
O462 C449 1.240 . S
O463 La440 2.757 . S
O463 La441 2.482 . S
O463 C449 1.289 . S
O464 La440 2.470 . S
O464 C450 1.258 . S
O465 La441 2.503 . S
O465 C450 1.256 . S
O466 La441 2.521 . S
O466 C451 1.261 . S
O467 La441 2.628 . S
O467 C451 1.243 . S
O468 La441 2.554 . S
O468 C458 1.240 . S
O469 La440 2.482 . S
O469 La441 2.757 . S
O469 C458 1.289 . S
O470 La441 2.470 . S
O470 C459 1.258 . S
O471 La440 2.503 . S
O471 C459 1.256 . S
H472 C444 0.930 . S
H473 C445 0.930 . S
H474 C447 0.929 . S
H475 C448 0.929 . S
H476 C453 0.930 . S
H477 C454 0.930 . S
H478 C456 0.929 . S
H479 C457 0.929 . S
H480 C492 0.930 . S
H481 C494 0.930 . S
H482 C495 0.930 . S
H483 C499 0.959 . S
H484 C499 0.959 . S
H485 C499 0.961 . S
H486 C500 0.960 . S
H487 C500 0.961 . S
H488 C500 0.959 . S
H489 C503 0.929 . S
H490 C504 0.931 . S
H491 C506 0.930 . S
C492 H480 0.930 . S
C492 C493 1.399 . S
C492 C497 1.399 . S
C493 C492 1.399 . S
C493 C494 1.376 . S
C494 H481 0.930 . S
C494 C493 1.376 . S
C494 C495 1.388 . S
C495 H482 0.930 . S
C495 C494 1.388 . S
C495 C496 1.390 . S
C496 C495 1.390 . S
C496 C497 1.394 . S
C496 C502 1.465 . S
C497 C492 1.399 . S
C497 C496 1.394 . S
C497 C498 1.516 . S
C498 C497 1.516 . S
C498 C499 1.502 . S
C498 C500 1.561 . S
C498 C501 1.526 . S
C499 H483 0.959 . S
C499 H484 0.959 . S
C499 H485 0.961 . S
C499 C498 1.502 . S
C500 H486 0.960 . S
C500 H487 0.961 . S
C500 H488 0.959 . S
C500 C498 1.561 . S
C501 C498 1.526 . S
C501 C502 1.396 . S
C501 C506 1.390 . S
C502 C496 1.465 . S
C502 C501 1.396 . S
C502 C503 1.399 . S
C503 H489 0.929 . S
C503 C502 1.399 . S
C503 C504 1.385 . S
C504 H490 0.931 . S
C504 C503 1.385 . S
C504 C505 1.389 . S
C505 C504 1.389 . S
C505 C506 1.387 . S
C506 H491 0.930 . S
C506 C501 1.390 . S
C506 C505 1.387 . S
H507 C519 0.930 . S
H508 C521 0.930 . S
H509 C522 0.930 . S
H510 C526 0.959 . S
H511 C526 0.959 . S
H512 C526 0.961 . S
H513 C527 0.960 . S
H514 C527 0.961 . S
H515 C527 0.959 . S
H516 C530 0.929 . S
H517 C531 0.931 . S
H518 C533 0.930 . S
C519 H507 0.930 . S
C519 C520 1.399 . S
C519 C524 1.399 . S
C520 C519 1.399 . S
C520 C521 1.376 . S
C521 H508 0.930 . S
C521 C520 1.376 . S
C521 C522 1.388 . S
C522 H509 0.930 . S
C522 C521 1.388 . S
C522 C523 1.390 . S
C523 C522 1.390 . S
C523 C524 1.394 . S
C523 C529 1.465 . S
C524 C519 1.399 . S
C524 C523 1.394 . S
C524 C525 1.516 . S
C525 C524 1.516 . S
C525 C526 1.502 . S
C525 C527 1.561 . S
C525 C528 1.526 . S
C526 H510 0.959 . S
C526 H511 0.959 . S
C526 H512 0.961 . S
C526 C525 1.502 . S
C527 H513 0.960 . S
C527 H514 0.961 . S
C527 H515 0.959 . S
C527 C525 1.561 . S
C528 C525 1.526 . S
C528 C529 1.396 . S
C528 C533 1.390 . S
C529 C523 1.465 . S
C529 C528 1.396 . S
C529 C530 1.399 . S
C530 H516 0.929 . S
C530 C529 1.399 . S
C530 C531 1.385 . S
C531 H517 0.931 . S
C531 C530 1.385 . S
C531 C532 1.389 . S
C532 C531 1.389 . S
C532 C533 1.387 . S
C533 H518 0.930 . S
C533 C528 1.390 . S
C533 C532 1.387 . S
H534 C546 0.903 1_556 S
H535 C548 0.930 . S
H536 C549 0.930 . S
H537 C553 0.959 1_554 S
H538 C553 0.959 . S
H539 C553 0.961 . S
H540 C554 0.960 . S
H541 C554 0.961 . S
H542 C554 0.959 . S
H543 C557 0.929 . S
H544 C558 0.931 . S
H545 C560 0.930 . S
C546 H534 0.903 1_554 S
C546 C547 1.412 . S
C546 C551 1.413 . S
C547 C546 1.412 . S
C547 C548 1.376 . S
C548 H535 0.930 . S
C548 C547 1.376 . S
C548 C549 1.388 . S
C549 H536 0.930 . S
C549 C548 1.388 . S
C549 C550 1.390 . S
C550 C549 1.390 . S
C550 C551 1.394 . S
C550 C556 1.465 . S
C551 C546 1.413 . S
C551 C550 1.394 . S
C551 C552 1.516 . S
C552 C551 1.516 . S
C552 C553 1.502 1_554 S
C552 C554 1.561 1_554 S
C552 C555 1.526 . S
C553 H537 0.959 1_556 S
C553 H538 0.959 . S
C553 H539 0.961 . S
C553 C552 1.502 1_556 S
C554 H540 0.960 . S
C554 H541 0.961 . S
C554 H542 0.959 . S
C554 C552 1.561 1_556 S
C555 C552 1.526 . S
C555 C556 1.396 . S
C555 C560 1.390 . S
C556 C550 1.465 . S
C556 C555 1.396 . S
C556 C557 1.399 . S
C557 H543 0.929 . S
C557 C556 1.399 . S
C557 C558 1.385 . S
C558 H544 0.931 . S
C558 C557 1.385 . S
C558 C559 1.389 . S
C559 C558 1.389 . S
C559 C560 1.387 . S
C560 H545 0.930 . S
C560 C555 1.390 . S
C560 C559 1.387 . S
H561 C573 0.930 . S
H562 C575 0.930 . S
H563 C576 0.930 . S
H564 C580 0.959 . S
H565 C580 0.959 . S
H566 C580 0.961 . S
H567 C581 0.960 . S
H568 C581 0.961 . S
H569 C581 0.959 . S
H570 C584 0.929 1_565 S
H571 C585 0.931 1_565 S
H572 C587 0.930 . S
C573 H561 0.930 . S
C573 C574 1.399 . S
C573 C578 1.399 . S
C574 C573 1.399 . S
C574 C575 1.376 . S
C575 H562 0.930 . S
C575 C574 1.376 . S
C575 C576 1.388 . S
C576 H563 0.930 . S
C576 C575 1.388 . S
C576 C577 1.390 . S
C577 C576 1.390 . S
C577 C578 1.394 . S
C577 C583 1.465 . S
C578 C573 1.399 . S
C578 C577 1.394 . S
C578 C579 1.516 . S
C579 C578 1.516 . S
C579 C580 1.502 . S
C579 C581 1.561 . S
C579 C582 1.526 . S
C580 H564 0.959 . S
C580 H565 0.959 . S
C580 H566 0.961 . S
C580 C579 1.502 . S
C581 H567 0.960 . S
C581 H568 0.961 . S
C581 H569 0.959 . S
C581 C579 1.561 . S
C582 C579 1.526 . S
C582 C583 1.396 . S
C582 C587 1.390 . S
C583 C577 1.465 . S
C583 C582 1.396 . S
C583 C584 1.399 . S
C584 H570 0.929 1_545 S
C584 C583 1.399 . S
C584 C585 1.385 . S
C585 H571 0.931 1_545 S
C585 C584 1.385 . S
C585 C586 1.389 . S
C586 C585 1.389 . S
C586 C587 1.387 . S
C587 H572 0.930 . S
C587 C582 1.390 . S
C587 C586 1.387 . S
H588 C600 0.930 . S
H589 C602 0.930 . S
H590 C603 0.930 . S
H591 C607 0.959 . S
H592 C607 0.959 . S
H593 C607 0.961 . S
H594 C608 0.960 . S
H595 C608 0.961 . S
H596 C608 0.959 . S
H597 C611 0.929 . S
H598 C612 0.931 . S
H599 C614 0.930 . S
C600 H588 0.930 . S
C600 C601 1.399 . S
C600 C605 1.399 . S
C601 C600 1.399 . S
C601 C602 1.376 . S
C602 H589 0.930 . S
C602 C601 1.376 . S
C602 C603 1.388 . S
C603 H590 0.930 . S
C603 C602 1.388 . S
C603 C604 1.390 . S
C604 C603 1.390 . S
C604 C605 1.394 . S
C604 C610 1.465 . S
C605 C600 1.399 . S
C605 C604 1.394 . S
C605 C606 1.516 . S
C606 C605 1.516 . S
C606 C607 1.502 . S
C606 C608 1.561 . S
C606 C609 1.526 . S
C607 H591 0.959 . S
C607 H592 0.959 . S
C607 H593 0.961 . S
C607 C606 1.502 . S
C608 H594 0.960 . S
C608 H595 0.961 . S
C608 H596 0.959 . S
C608 C606 1.561 . S
C609 C606 1.526 . S
C609 C610 1.396 . S
C609 C614 1.390 . S
C610 C604 1.465 . S
C610 C609 1.396 . S
C610 C611 1.399 . S
C611 H597 0.929 . S
C611 C610 1.399 . S
C611 C612 1.385 . S
C612 H598 0.931 . S
C612 C611 1.385 . S
C612 C613 1.389 . S
C613 C612 1.389 . S
C613 C614 1.387 . S
C614 H599 0.930 . S
C614 C609 1.390 . S
C614 C613 1.387 . S
H615 C627 0.930 . S
H616 C629 0.930 . S
H617 C630 0.930 . S
H618 C634 0.959 . S
H619 C634 0.959 . S
H620 C634 0.961 . S
H621 C635 0.960 . S
H622 C635 0.961 . S
H623 C635 0.959 . S
H624 C638 0.929 . S
H625 C639 0.931 . S
H626 C641 0.930 . S
C627 H615 0.930 . S
C627 C628 1.399 . S
C627 C632 1.399 . S
C628 C627 1.399 . S
C628 C629 1.376 . S
C629 H616 0.930 . S
C629 C628 1.376 . S
C629 C630 1.388 . S
C630 H617 0.930 . S
C630 C629 1.388 . S
C630 C631 1.390 . S
C631 C630 1.390 . S
C631 C632 1.394 . S
C631 C637 1.465 . S
C632 C627 1.399 . S
C632 C631 1.394 . S
C632 C633 1.516 . S
C633 C632 1.516 . S
C633 C634 1.502 . S
C633 C635 1.561 . S
C633 C636 1.526 . S
C634 H618 0.959 . S
C634 H619 0.959 . S
C634 H620 0.961 . S
C634 C633 1.502 . S
C635 H621 0.960 . S
C635 H622 0.961 . S
C635 H623 0.959 . S
C635 C633 1.561 . S
C636 C633 1.526 . S
C636 C637 1.396 . S
C636 C641 1.390 . S
C637 C631 1.465 . S
C637 C636 1.396 . S
C637 C638 1.399 . S
C638 H624 0.929 . S
C638 C637 1.399 . S
C638 C639 1.385 . S
C639 H625 0.931 . S
C639 C638 1.385 . S
C639 C640 1.389 . S
C640 C639 1.389 . S
C640 C641 1.387 . S
C641 H626 0.930 . S
C641 C636 1.390 . S
C641 C640 1.387 . S
H642 C654 0.930 . S
H643 C656 0.930 . S
H644 C657 0.930 . S
H645 C661 0.959 . S
H646 C661 0.959 . S
H647 C661 0.961 . S
H648 C662 0.960 . S
H649 C662 0.961 . S
H650 C662 0.959 . S
H651 C665 0.929 1_554 S
H652 C666 0.931 1_554 S
H653 C668 0.930 . S
C654 H642 0.930 . S
C654 C655 1.399 . S
C654 C659 1.399 . S
C655 C654 1.399 . S
C655 C656 1.376 . S
C656 H643 0.930 . S
C656 C655 1.376 . S
C656 C657 1.388 . S
C657 H644 0.930 . S
C657 C656 1.388 . S
C657 C658 1.390 . S
C658 C657 1.390 . S
C658 C659 1.394 . S
C658 C664 1.465 . S
C659 C654 1.399 . S
C659 C658 1.394 . S
C659 C660 1.516 . S
C660 C659 1.516 . S
C660 C661 1.502 . S
C660 C662 1.561 . S
C660 C663 1.526 . S
C661 H645 0.959 . S
C661 H646 0.959 . S
C661 H647 0.961 . S
C661 C660 1.502 . S
C662 H648 0.960 . S
C662 H649 0.961 . S
C662 H650 0.959 . S
C662 C660 1.561 . S
C663 C660 1.526 . S
C663 C664 1.396 . S
C663 C668 1.390 . S
C664 C658 1.465 . S
C664 C663 1.396 . S
C664 C665 1.399 . S
C665 H651 0.929 1_556 S
C665 C664 1.399 . S
C665 C666 1.385 . S
C666 H652 0.931 1_556 S
C666 C665 1.385 . S
C666 C667 1.389 . S
C667 C666 1.389 . S
C667 C668 1.387 . S
C668 H653 0.930 . S
C668 C663 1.390 . S
C668 C667 1.387 . S
H669 C681 0.930 . S
H670 C683 0.930 . S
H671 C684 0.930 . S
H672 C688 0.959 . S
H673 C688 0.959 . S
H674 C688 0.961 . S
H675 C689 0.960 . S
H676 C689 0.961 . S
H677 C689 0.959 . S
H678 C692 0.929 . S
H679 C693 0.931 . S
H680 C695 0.930 . S
C681 H669 0.930 . S
C681 C682 1.399 . S
C681 C686 1.399 . S
C682 C681 1.399 . S
C682 C683 1.376 . S
C683 H670 0.930 . S
C683 C682 1.376 . S
C683 C684 1.388 . S
C684 H671 0.930 . S
C684 C683 1.388 . S
C684 C685 1.390 . S
C685 C684 1.390 . S
C685 C686 1.394 . S
C685 C691 1.465 . S
C686 C681 1.399 . S
C686 C685 1.394 . S
C686 C687 1.516 . S
C687 C686 1.516 . S
C687 C688 1.502 . S
C687 C689 1.561 . S
C687 C690 1.526 . S
C688 H672 0.959 . S
C688 H673 0.959 . S
C688 H674 0.961 . S
C688 C687 1.502 . S
C689 H675 0.960 . S
C689 H676 0.961 . S
C689 H677 0.959 . S
C689 C687 1.561 . S
C690 C687 1.526 . S
C690 C691 1.396 . S
C690 C695 1.390 . S
C691 C685 1.465 . S
C691 C690 1.396 . S
C691 C692 1.399 . S
C692 H678 0.929 . S
C692 C691 1.399 . S
C692 C693 1.385 . S
C693 H679 0.931 . S
C693 C692 1.385 . S
C693 C694 1.389 . S
C694 C693 1.389 . S
C694 C695 1.387 . S
C695 H680 0.930 . S
C695 C690 1.390 . S
C695 C694 1.387 . S
H696 C708 0.930 . S
H697 C710 0.930 . S
H698 C711 0.930 . S
H699 C715 0.959 . S
H700 C715 0.959 . S
H701 C715 0.961 . S
H702 C716 0.960 . S
H703 C716 0.961 . S
H704 C716 0.959 . S
H705 C719 0.929 . S
H706 C720 0.931 . S
H707 C722 0.930 . S
C708 H696 0.930 . S
C708 C709 1.399 . S
C708 C713 1.399 . S
C709 C708 1.399 . S
C709 C710 1.376 . S
C710 H697 0.930 . S
C710 C709 1.376 . S
C710 C711 1.388 . S
C711 H698 0.930 . S
C711 C710 1.388 . S
C711 C712 1.390 . S
C712 C711 1.390 . S
C712 C713 1.394 . S
C712 C718 1.465 . S
C713 C708 1.399 . S
C713 C712 1.394 . S
C713 C714 1.516 . S
C714 C713 1.516 . S
C714 C715 1.502 . S
C714 C716 1.561 . S
C714 C717 1.526 . S
C715 H699 0.959 . S
C715 H700 0.959 . S
C715 H701 0.961 . S
C715 C714 1.502 . S
C716 H702 0.960 . S
C716 H703 0.961 . S
C716 H704 0.959 . S
C716 C714 1.561 . S
C717 C714 1.526 . S
C717 C718 1.396 . S
C717 C722 1.390 . S
C718 C712 1.465 . S
C718 C717 1.396 . S
C718 C719 1.399 . S
C719 H705 0.929 . S
C719 C718 1.399 . S
C719 C720 1.385 . S
C720 H706 0.931 . S
C720 C719 1.385 . S
C720 C721 1.389 . S
C721 C720 1.389 . S
C721 C722 1.387 . S
C722 H707 0.930 . S
C722 C717 1.390 . S
C722 C721 1.387 . S
H723 C735 0.930 . S
H724 C737 0.930 . S
H725 C738 0.930 . S
H726 C742 0.959 . S
H727 C742 0.959 . S
H728 C742 0.961 . S
H729 C743 0.960 . S
H730 C743 0.961 . S
H731 C743 0.959 . S
H732 C746 0.929 . S
H733 C747 0.931 . S
H734 C749 0.930 . S
C735 H723 0.930 . S
C735 C736 1.399 . S
C735 C740 1.399 . S
C736 C735 1.399 . S
C736 C737 1.376 . S
C737 H724 0.930 . S
C737 C736 1.376 . S
C737 C738 1.388 . S
C738 H725 0.930 . S
C738 C737 1.388 . S
C738 C739 1.390 . S
C739 C738 1.390 . S
C739 C740 1.394 . S
C739 C745 1.465 . S
C740 C735 1.399 . S
C740 C739 1.394 . S
C740 C741 1.516 . S
C741 C740 1.516 . S
C741 C742 1.502 . S
C741 C743 1.561 . S
C741 C744 1.526 . S
C742 H726 0.959 . S
C742 H727 0.959 . S
C742 H728 0.961 . S
C742 C741 1.502 . S
C743 H729 0.960 . S
C743 H730 0.961 . S
C743 H731 0.959 . S
C743 C741 1.561 . S
C744 C741 1.526 . S
C744 C745 1.396 . S
C744 C749 1.390 . S
C745 C739 1.465 . S
C745 C744 1.396 . S
C745 C746 1.399 . S
C746 H732 0.929 . S
C746 C745 1.399 . S
C746 C747 1.385 . S
C747 H733 0.931 . S
C747 C746 1.385 . S
C747 C748 1.389 . S
C748 C747 1.389 . S
C748 C749 1.387 . S
C749 H734 0.930 . S
C749 C744 1.390 . S
C749 C748 1.387 . S
H750 C762 0.930 . S
H751 C764 0.930 . S
H752 C765 0.930 . S
H753 C769 0.959 . S
H754 C769 0.959 . S
H755 C769 0.961 . S
H756 C770 0.961 . S
H757 C770 0.961 . S
H758 C770 0.959 1_455 S
H759 C773 0.929 . S
H760 C774 0.931 . S
H761 C776 0.930 . S
C762 H750 0.930 . S
C762 C763 1.399 . S
C762 C767 1.399 . S
C763 C762 1.399 . S
C763 C764 1.376 . S
C764 H751 0.930 . S
C764 C763 1.376 . S
C764 C765 1.388 . S
C765 H752 0.930 . S
C765 C764 1.388 . S
C765 C766 1.390 . S
C766 C765 1.390 . S
C766 C767 1.394 . S
C766 C772 1.465 . S
C767 C762 1.399 . S
C767 C766 1.394 . S
C767 C768 1.516 . S
C768 C767 1.516 . S
C768 C769 1.502 . S
C768 C770 1.561 . S
C768 C771 1.526 . S
C769 H753 0.959 . S
C769 H754 0.959 . S
C769 H755 0.961 . S
C769 C768 1.502 . S
C770 H756 0.961 . S
C770 H757 0.961 . S
C770 H758 0.959 1_655 S
C770 C768 1.561 . S
C771 C768 1.526 . S
C771 C772 1.396 . S
C771 C776 1.390 . S
C772 C766 1.465 . S
C772 C771 1.396 . S
C772 C773 1.399 . S
C773 H759 0.929 . S
C773 C772 1.399 . S
C773 C774 1.385 . S
C774 H760 0.931 . S
C774 C773 1.385 . S
C774 C775 1.389 . S
C775 C774 1.389 . S
C775 C776 1.387 . S
C776 H761 0.930 . S
C776 C771 1.390 . S
C776 C775 1.387 . S
H777 C789 0.930 . S
H778 C791 0.930 . S
H779 C792 0.930 . S
H780 C796 0.959 . S
H781 C796 0.959 . S
H782 C796 0.961 . S
H783 C797 0.960 . S
H784 C797 0.961 . S
H785 C797 0.959 . S
H786 C800 0.929 . S
H787 C801 0.931 . S
H788 C803 0.930 . S
C789 H777 0.930 . S
C789 C790 1.399 . S
C789 C794 1.399 . S
C790 C789 1.399 . S
C790 C791 1.376 . S
C791 H778 0.930 . S
C791 C790 1.376 . S
C791 C792 1.388 . S
C792 H779 0.930 . S
C792 C791 1.388 . S
C792 C793 1.390 . S
C793 C792 1.390 . S
C793 C794 1.394 . S
C793 C799 1.465 . S
C794 C789 1.399 . S
C794 C793 1.394 . S
C794 C795 1.516 . S
C795 C794 1.516 . S
C795 C796 1.502 . S
C795 C797 1.561 . S
C795 C798 1.526 . S
C796 H780 0.959 . S
C796 H781 0.959 . S
C796 H782 0.961 . S
C796 C795 1.502 . S
C797 H783 0.960 . S
C797 H784 0.961 . S
C797 H785 0.959 . S
C797 C795 1.561 . S
C798 C795 1.526 . S
C798 C799 1.396 . S
C798 C803 1.390 . S
C799 C793 1.465 . S
C799 C798 1.396 . S
C799 C800 1.399 . S
C800 H786 0.929 . S
C800 C799 1.399 . S
C800 C801 1.385 . S
C801 H787 0.931 . S
C801 C800 1.385 . S
C801 C802 1.389 . S
C802 C801 1.389 . S
C802 C803 1.387 . S
C803 H788 0.930 . S
C803 C798 1.390 . S
C803 C802 1.387 . S
H804 C816 0.930 . S
H805 C818 0.930 . S
H806 C819 0.930 . S
H807 C823 0.959 . S
H808 C823 0.959 . S
H809 C823 0.961 . S
H810 C824 0.960 . S
H811 C824 0.961 . S
H812 C824 0.959 . S
H813 C827 0.929 . S
H814 C828 0.931 . S
H815 C830 0.930 . S
C816 H804 0.930 . S
C816 C817 1.399 . S
C816 C821 1.399 . S
C817 C816 1.399 . S
C817 C818 1.376 . S
C818 H805 0.930 . S
C818 C817 1.376 . S
C818 C819 1.388 . S
C819 H806 0.930 . S
C819 C818 1.388 . S
C819 C820 1.390 . S
C820 C819 1.390 . S
C820 C821 1.394 . S
C820 C826 1.465 . S
C821 C816 1.399 . S
C821 C820 1.394 . S
C821 C822 1.516 . S
C822 C821 1.516 . S
C822 C823 1.502 . S
C822 C824 1.561 . S
C822 C825 1.526 . S
C823 H807 0.959 . S
C823 H808 0.959 . S
C823 H809 0.961 . S
C823 C822 1.502 . S
C824 H810 0.960 . S
C824 H811 0.961 . S
C824 H812 0.959 . S
C824 C822 1.561 . S
C825 C822 1.526 . S
C825 C826 1.396 . S
C825 C830 1.390 . S
C826 C820 1.465 . S
C826 C825 1.396 . S
C826 C827 1.399 . S
C827 H813 0.929 . S
C827 C826 1.399 . S
C827 C828 1.385 . S
C828 H814 0.931 . S
C828 C827 1.385 . S
C828 C829 1.389 . S
C829 C828 1.389 . S
C829 C830 1.387 . S
C830 H815 0.930 . S
C830 C825 1.390 . S
C830 C829 1.387 . S
H831 C843 0.930 . S
H832 C845 0.930 . S
H833 C846 0.930 . S
H834 C850 0.959 . S
H835 C850 0.959 . S
H836 C850 0.961 . S
H837 C851 0.960 . S
H838 C851 0.961 . S
H839 C851 0.959 . S
H840 C854 0.929 1_545 S
H841 C855 0.931 1_545 S
H842 C857 0.930 . S
C843 H831 0.930 . S
C843 C844 1.399 . S
C843 C848 1.399 . S
C844 C843 1.399 . S
C844 C845 1.376 . S
C845 H832 0.930 . S
C845 C844 1.376 . S
C845 C846 1.388 . S
C846 H833 0.930 . S
C846 C845 1.388 . S
C846 C847 1.390 . S
C847 C846 1.390 . S
C847 C848 1.394 . S
C847 C853 1.465 . S
C848 C843 1.399 . S
C848 C847 1.394 . S
C848 C849 1.516 . S
C849 C848 1.516 . S
C849 C850 1.502 . S
C849 C851 1.561 . S
C849 C852 1.526 . S
C850 H834 0.959 . S
C850 H835 0.959 . S
C850 H836 0.961 . S
C850 C849 1.502 . S
C851 H837 0.960 . S
C851 H838 0.961 . S
C851 H839 0.959 . S
C851 C849 1.561 . S
C852 C849 1.526 . S
C852 C853 1.396 . S
C852 C857 1.390 . S
C853 C847 1.465 . S
C853 C852 1.396 . S
C853 C854 1.399 . S
C854 H840 0.929 1_565 S
C854 C853 1.399 . S
C854 C855 1.385 . S
C855 H841 0.931 1_565 S
C855 C854 1.385 . S
C855 C856 1.389 . S
C856 C855 1.389 . S
C856 C857 1.387 . S
C857 H842 0.930 . S
C857 C852 1.390 . S
C857 C856 1.387 . S
H858 C870 0.930 . S
H859 C872 0.930 . S
H860 C873 0.930 . S
H861 C877 0.959 . S
H862 C877 0.959 . S
H863 C877 0.961 . S
H864 C878 0.960 . S
H865 C878 0.961 . S
H866 C878 0.959 . S
H867 C881 0.929 . S
H868 C882 0.931 . S
H869 C884 0.930 . S
C870 H858 0.930 . S
C870 C871 1.399 . S
C870 C875 1.399 . S
C871 C870 1.399 . S
C871 C872 1.376 . S
C872 H859 0.930 . S
C872 C871 1.376 . S
C872 C873 1.388 . S
C873 H860 0.930 . S
C873 C872 1.388 . S
C873 C874 1.390 . S
C874 C873 1.390 . S
C874 C875 1.394 . S
C874 C880 1.465 . S
C875 C870 1.399 . S
C875 C874 1.394 . S
C875 C876 1.516 . S
C876 C875 1.516 . S
C876 C877 1.502 . S
C876 C878 1.561 . S
C876 C879 1.526 . S
C877 H861 0.959 . S
C877 H862 0.959 . S
C877 H863 0.961 . S
C877 C876 1.502 . S
C878 H864 0.960 . S
C878 H865 0.961 . S
C878 H866 0.959 . S
C878 C876 1.561 . S
C879 C876 1.526 . S
C879 C880 1.396 . S
C879 C884 1.390 . S
C880 C874 1.465 . S
C880 C879 1.396 . S
C880 C881 1.399 . S
C881 H867 0.929 . S
C881 C880 1.399 . S
C881 C882 1.385 . S
C882 H868 0.931 . S
C882 C881 1.385 . S
C882 C883 1.389 . S
C883 C882 1.389 . S
C883 C884 1.387 . S
C884 H869 0.930 . S
C884 C879 1.390 . S
C884 C883 1.387 . S
H885 C897 0.930 . S
H886 C899 0.930 . S
H887 C900 0.930 1_556 S
H888 C904 0.959 . S
H889 C904 0.959 . S
H890 C904 0.961 . S
H891 C905 0.960 . S
H892 C905 0.961 . S
H893 C905 0.959 . S
H894 C908 0.929 . S
H895 C909 0.931 . S
H896 C911 0.930 . S
C897 H885 0.930 . S
C897 C898 1.399 . S
C897 C902 1.399 . S
C898 C897 1.399 . S
C898 C899 1.376 . S
C899 H886 0.930 . S
C899 C898 1.376 . S
C899 C900 1.388 . S
C900 H887 0.930 1_554 S
C900 C899 1.388 . S
C900 C901 1.390 . S
C901 C900 1.390 . S
C901 C902 1.394 . S
C901 C907 1.465 1_554 S
C902 C897 1.399 . S
C902 C901 1.394 . S
C902 C903 1.516 . S
C903 C902 1.516 . S
C903 C904 1.502 . S
C903 C905 1.561 . S
C903 C906 1.526 1_554 S
C904 H888 0.959 . S
C904 H889 0.959 . S
C904 H890 0.961 . S
C904 C903 1.502 . S
C905 H891 0.960 . S
C905 H892 0.961 . S
C905 H893 0.959 . S
C905 C903 1.561 . S
C906 C903 1.526 1_556 S
C906 C907 1.396 . S
C906 C911 1.390 . S
C907 C901 1.465 1_556 S
C907 C906 1.396 . S
C907 C908 1.399 . S
C908 H894 0.929 . S
C908 C907 1.399 . S
C908 C909 1.385 . S
C909 H895 0.931 . S
C909 C908 1.385 . S
C909 C910 1.389 . S
C910 C909 1.389 . S
C910 C911 1.387 . S
C911 H896 0.930 . S
C911 C906 1.390 . S
C911 C910 1.387 . S
H912 C924 0.930 . S
H913 C926 0.930 . S
H914 C927 0.930 . S
H915 C931 0.959 . S
H916 C931 0.959 . S
H917 C931 0.961 . S
H918 C932 0.960 . S
H919 C932 0.961 . S
H920 C932 0.959 . S
H921 C935 0.929 . S
H922 C936 0.931 . S
H923 C938 0.930 . S
C924 H912 0.930 . S
C924 C925 1.399 . S
C924 C929 1.399 . S
C925 C924 1.399 . S
C925 C926 1.376 . S
C926 H913 0.930 . S
C926 C925 1.376 . S
C926 C927 1.388 . S
C927 H914 0.930 . S
C927 C926 1.388 . S
C927 C928 1.390 . S
C928 C927 1.390 . S
C928 C929 1.394 . S
C928 C934 1.465 . S
C929 C924 1.399 . S
C929 C928 1.394 . S
C929 C930 1.516 . S
C930 C929 1.516 . S
C930 C931 1.502 . S
C930 C932 1.561 . S
C930 C933 1.526 . S
C931 H915 0.959 . S
C931 H916 0.959 . S
C931 H917 0.961 . S
C931 C930 1.502 . S
C932 H918 0.960 . S
C932 H919 0.961 . S
C932 H920 0.959 . S
C932 C930 1.561 . S
C933 C930 1.526 . S
C933 C934 1.396 . S
C933 C938 1.390 . S
C934 C928 1.465 . S
C934 C933 1.396 . S
C934 C935 1.399 . S
C935 H921 0.929 . S
C935 C934 1.399 . S
C935 C936 1.385 . S
C936 H922 0.931 . S
C936 C935 1.385 . S
C936 C937 1.389 . S
C937 C936 1.389 . S
C937 C938 1.387 . S
C938 H923 0.930 . S
C938 C933 1.390 . S
C938 C937 1.387 . S
H939 C951 0.930 . S
H940 C953 0.930 . S
H941 C954 0.930 . S
H942 C958 0.959 . S
H943 C958 0.959 . S
H944 C958 0.961 . S
H945 C959 0.960 1_554 S
H946 C959 0.961 . S
H947 C959 0.959 . S
H948 C962 0.929 . S
H949 C963 0.931 . S
H950 C965 0.930 . S
C951 H939 0.930 . S
C951 C952 1.399 . S
C951 C956 1.399 1_554 S
C952 C951 1.399 . S
C952 C953 1.376 . S
C953 H940 0.930 . S
C953 C952 1.376 . S
C953 C954 1.388 1_554 S
C954 H941 0.930 . S
C954 C953 1.388 1_556 S
C954 C955 1.390 . S
C955 C954 1.390 . S
C955 C956 1.394 . S
C955 C961 1.465 . S
C956 C951 1.399 1_556 S
C956 C955 1.394 . S
C956 C957 1.516 . S
C957 C956 1.516 . S
C957 C958 1.502 . S
C957 C959 1.561 . S
C957 C960 1.526 . S
C958 H942 0.959 . S
C958 H943 0.959 . S
C958 H944 0.961 . S
C958 C957 1.502 . S
C959 H945 0.960 1_556 S
C959 H946 0.961 . S
C959 H947 0.959 . S
C959 C957 1.561 . S
C960 C957 1.526 . S
C960 C961 1.396 . S
C960 C965 1.390 . S
C961 C955 1.465 . S
C961 C960 1.396 . S
C961 C962 1.399 . S
C962 H948 0.929 . S
C962 C961 1.399 . S
C962 C963 1.385 . S
C963 H949 0.931 . S
C963 C962 1.385 . S
C963 C964 1.389 . S
C964 C963 1.389 . S
C964 C965 1.387 . S
C965 H950 0.930 . S
C965 C960 1.390 . S
C965 C964 1.387 . S
H966 C978 0.930 . S
H967 C980 0.930 . S
H968 C981 0.930 . S
H969 C985 0.959 . S
H970 C985 0.959 . S
H971 C985 0.961 . S
H972 C986 0.960 . S
H973 C986 0.961 . S
H974 C986 0.959 . S
H975 C989 0.929 . S
H976 C990 0.931 . S
H977 C992 0.930 . S
C978 H966 0.930 . S
C978 C979 1.399 . S
C978 C983 1.399 . S
C979 C978 1.399 . S
C979 C980 1.376 . S
C980 H967 0.930 . S
C980 C979 1.376 . S
C980 C981 1.388 . S
C981 H968 0.930 . S
C981 C980 1.388 . S
C981 C982 1.390 . S
C982 C981 1.390 . S
C982 C983 1.394 . S
C982 C988 1.465 . S
C983 C978 1.399 . S
C983 C982 1.394 . S
C983 C984 1.516 . S
C984 C983 1.516 . S
C984 C985 1.502 . S
C984 C986 1.561 . S
C984 C987 1.526 . S
C985 H969 0.959 . S
C985 H970 0.959 . S
C985 H971 0.961 . S
C985 C984 1.502 . S
C986 H972 0.960 . S
C986 H973 0.961 . S
C986 H974 0.959 . S
C986 C984 1.561 . S
C987 C984 1.526 . S
C987 C988 1.396 . S
C987 C992 1.390 . S
C988 C982 1.465 . S
C988 C987 1.396 . S
C988 C989 1.399 . S
C989 H975 0.929 . S
C989 C988 1.399 . S
C989 C990 1.385 . S
C990 H976 0.931 . S
C990 C989 1.385 . S
C990 C991 1.389 . S
C991 C990 1.389 . S
C991 C992 1.387 . S
C992 H977 0.930 . S
C992 C987 1.390 . S
C992 C991 1.387 . S
H993 C1005 0.930 . S
H994 C1007 0.930 . S
H995 C1008 0.930 . S
H996 C1012 0.959 . S
H997 C1012 0.959 . S
H998 C1012 0.961 . S
H999 C1013 0.960 . S
H1000 C1013 0.961 . S
H1001 C1013 0.959 . S
H1002 C1016 0.929 . S
H1003 C1017 0.931 . S
H1004 C1019 0.930 . S
C1005 H993 0.930 . S
C1005 C1006 1.399 . S
C1005 C1010 1.399 . S
C1006 C1005 1.399 . S
C1006 C1007 1.376 . S
C1007 H994 0.930 . S
C1007 C1006 1.376 . S
C1007 C1008 1.388 . S
C1008 H995 0.930 . S
C1008 C1007 1.388 . S
C1008 C1009 1.390 . S
C1009 C1008 1.390 . S
C1009 C1010 1.394 . S
C1009 C1015 1.465 . S
C1010 C1005 1.399 . S
C1010 C1009 1.394 . S
C1010 C1011 1.516 . S
C1011 C1010 1.516 . S
C1011 C1012 1.502 . S
C1011 C1013 1.561 . S
C1011 C1014 1.526 . S
C1012 H996 0.959 . S
C1012 H997 0.959 . S
C1012 H998 0.961 . S
C1012 C1011 1.502 . S
C1013 H999 0.960 . S
C1013 H1000 0.961 . S
C1013 H1001 0.959 . S
C1013 C1011 1.561 . S
C1014 C1011 1.526 . S
C1014 C1015 1.396 . S
C1014 C1019 1.390 . S
C1015 C1009 1.465 . S
C1015 C1014 1.396 . S
C1015 C1016 1.399 . S
C1016 H1002 0.929 . S
C1016 C1015 1.399 . S
C1016 C1017 1.385 . S
C1017 H1003 0.931 . S
C1017 C1016 1.385 . S
C1017 C1018 1.389 . S
C1018 C1017 1.389 . S
C1018 C1019 1.387 . S
C1019 H1004 0.930 . S
C1019 C1014 1.390 . S
C1019 C1018 1.387 . S
H1020 C1032 0.930 . S
H1021 C1034 0.930 . S
H1022 C1035 0.930 . S
H1023 C1039 0.959 . S
H1024 C1039 0.959 . S
H1025 C1039 0.961 . S
H1026 C1040 0.960 . S
H1027 C1040 0.961 . S
H1028 C1040 0.959 . S
H1029 C1043 0.929 . S
H1030 C1044 0.931 . S
H1031 C1046 0.930 . S
C1032 H1020 0.930 . S
C1032 C1033 1.399 . S
C1032 C1037 1.399 . S
C1033 C1032 1.399 . S
C1033 C1034 1.376 . S
C1034 H1021 0.930 . S
C1034 C1033 1.376 . S
C1034 C1035 1.388 . S
C1035 H1022 0.930 . S
C1035 C1034 1.388 . S
C1035 C1036 1.390 . S
C1036 C1035 1.390 . S
C1036 C1037 1.394 . S
C1036 C1042 1.465 . S
C1037 C1032 1.399 . S
C1037 C1036 1.394 . S
C1037 C1038 1.516 . S
C1038 C1037 1.516 . S
C1038 C1039 1.502 . S
C1038 C1040 1.561 . S
C1038 C1041 1.526 . S
C1039 H1023 0.959 . S
C1039 H1024 0.959 . S
C1039 H1025 0.961 . S
C1039 C1038 1.502 . S
C1040 H1026 0.960 . S
C1040 H1027 0.961 . S
C1040 H1028 0.959 . S
C1040 C1038 1.561 . S
C1041 C1038 1.526 . S
C1041 C1042 1.396 . S
C1041 C1046 1.390 . S
C1042 C1036 1.465 . S
C1042 C1041 1.396 . S
C1042 C1043 1.399 . S
C1043 H1029 0.929 . S
C1043 C1042 1.399 . S
C1043 C1044 1.385 . S
C1044 H1030 0.931 . S
C1044 C1043 1.385 . S
C1044 C1045 1.389 . S
C1045 C1044 1.389 . S
C1045 C1046 1.387 . S
C1046 H1031 0.930 . S
C1046 C1041 1.390 . S
C1046 C1045 1.387 . S
H1047 C1059 0.930 . S
H1048 C1061 0.930 . S
H1049 C1062 0.930 . S
H1050 C1066 0.959 . S
H1051 C1066 0.959 1_565 S
H1052 C1066 0.961 . S
H1053 C1067 0.960 . S
H1054 C1067 0.961 . S
H1055 C1067 0.959 . S
H1056 C1070 0.929 1_655 S
H1057 C1071 0.931 1_655 S
H1058 C1073 0.930 . S
C1059 H1047 0.930 . S
C1059 C1060 1.399 . S
C1059 C1064 1.399 . S
C1060 C1059 1.399 . S
C1060 C1061 1.376 . S
C1061 H1048 0.930 . S
C1061 C1060 1.376 . S
C1061 C1062 1.388 . S
C1062 H1049 0.930 . S
C1062 C1061 1.388 . S
C1062 C1063 1.390 . S
C1063 C1062 1.390 . S
C1063 C1064 1.394 . S
C1063 C1069 1.465 . S
C1064 C1059 1.399 . S
C1064 C1063 1.394 . S
C1064 C1065 1.516 . S
C1065 C1064 1.516 . S
C1065 C1066 1.502 . S
C1065 C1067 1.561 . S
C1065 C1068 1.526 . S
C1066 H1050 0.959 . S
C1066 H1051 0.959 1_545 S
C1066 H1052 0.961 . S
C1066 C1065 1.502 . S
C1067 H1053 0.960 . S
C1067 H1054 0.961 . S
C1067 H1055 0.959 . S
C1067 C1065 1.561 . S
C1068 C1065 1.526 . S
C1068 C1069 1.396 . S
C1068 C1073 1.390 1_545 S
C1069 C1063 1.465 . S
C1069 C1068 1.396 . S
C1069 C1070 1.399 . S
C1070 H1056 0.929 1_455 S
C1070 C1069 1.399 . S
C1070 C1071 1.385 1_545 S
C1071 H1057 0.931 1_455 S
C1071 C1070 1.385 1_565 S
C1071 C1072 1.389 . S
C1072 C1071 1.389 . S
C1072 C1073 1.387 . S
C1073 H1058 0.930 . S
C1073 C1068 1.390 1_565 S
C1073 C1072 1.387 . S
H1074 C1086 0.930 . S
H1075 C1088 0.930 . S
H1076 C1089 0.930 . S
H1077 C1093 0.959 . S
H1078 C1093 0.959 . S
H1079 C1093 0.961 . S
H1080 C1094 0.960 . S
H1081 C1094 0.961 . S
H1082 C1094 0.959 . S
H1083 C1097 0.929 . S
H1084 C1098 0.931 . S
H1085 C1100 0.930 . S
C1086 H1074 0.930 . S
C1086 C1087 1.399 . S
C1086 C1091 1.399 . S
C1087 C1086 1.399 . S
C1087 C1088 1.376 . S
C1088 H1075 0.930 . S
C1088 C1087 1.376 . S
C1088 C1089 1.388 . S
C1089 H1076 0.930 . S
C1089 C1088 1.388 . S
C1089 C1090 1.390 . S
C1090 C1089 1.390 . S
C1090 C1091 1.394 . S
C1090 C1096 1.465 . S
C1091 C1086 1.399 . S
C1091 C1090 1.394 . S
C1091 C1092 1.516 . S
C1092 C1091 1.516 . S
C1092 C1093 1.502 . S
C1092 C1094 1.561 . S
C1092 C1095 1.526 . S
C1093 H1077 0.959 . S
C1093 H1078 0.959 . S
C1093 H1079 0.961 . S
C1093 C1092 1.502 . S
C1094 H1080 0.960 . S
C1094 H1081 0.961 . S
C1094 H1082 0.959 . S
C1094 C1092 1.561 . S
C1095 C1092 1.526 . S
C1095 C1096 1.396 . S
C1095 C1100 1.390 . S
C1096 C1090 1.465 . S
C1096 C1095 1.396 . S
C1096 C1097 1.399 . S
C1097 H1083 0.929 . S
C1097 C1096 1.399 . S
C1097 C1098 1.385 . S
C1098 H1084 0.931 . S
C1098 C1097 1.385 . S
C1098 C1099 1.389 . S
C1099 C1098 1.389 . S
C1099 C1100 1.387 . S
C1100 H1085 0.930 . S
C1100 C1095 1.390 . S
C1100 C1099 1.387 . S
H1101 C1113 0.930 . S
H1102 C1115 0.930 . S
H1103 C1116 0.930 . S
H1104 C1120 0.943 1_545 S
H1105 C1120 0.989 . S
H1106 C1120 0.939 1_545 S
H1107 C1121 0.960 . S
H1108 C1121 0.961 . S
H1109 C1121 0.959 . S
H1110 C1124 0.929 . S
H1111 C1125 0.931 . S
H1112 C1127 0.930 . S
C1113 H1101 0.930 . S
C1113 C1114 1.399 . S
C1113 C1118 1.399 . S
C1114 C1113 1.399 . S
C1114 C1115 1.376 . S
C1115 H1102 0.930 . S
C1115 C1114 1.376 . S
C1115 C1116 1.388 . S
C1116 H1103 0.930 . S
C1116 C1115 1.388 . S
C1116 C1117 1.390 . S
C1117 C1116 1.390 . S
C1117 C1118 1.394 . S
C1117 C1123 1.465 1_545 S
C1118 C1113 1.399 . S
C1118 C1117 1.394 . S
C1118 C1119 1.516 1_545 S
C1119 C1118 1.516 1_565 S
C1119 C1120 1.511 . S
C1119 C1121 1.561 . S
C1119 C1122 1.526 . S
C1120 H1104 0.943 1_565 S
C1120 H1105 0.989 . S
C1120 H1106 0.939 1_565 S
C1120 C1119 1.511 . S
C1121 H1107 0.960 . S
C1121 H1108 0.961 . S
C1121 H1109 0.959 . S
C1121 C1119 1.561 . S
C1122 C1119 1.526 . S
C1122 C1123 1.396 . S
C1122 C1127 1.390 . S
C1123 C1117 1.465 1_565 S
C1123 C1122 1.396 . S
C1123 C1124 1.399 . S
C1124 H1110 0.929 . S
C1124 C1123 1.399 . S
C1124 C1125 1.385 . S
C1125 H1111 0.931 . S
C1125 C1124 1.385 . S
C1125 C1126 1.389 . S
C1126 C1125 1.389 . S
C1126 C1127 1.387 . S
C1127 H1112 0.930 . S
C1127 C1122 1.390 . S
C1127 C1126 1.387 . S
H1128 C1140 0.930 . S
H1129 C1142 0.930 . S
H1130 C1143 0.930 . S
H1131 C1147 0.959 . S
H1132 C1147 0.959 . S
H1133 C1147 0.961 . S
H1134 C1148 0.960 . S
H1135 C1148 0.961 . S
H1136 C1148 0.959 . S
H1137 C1151 0.929 . S
H1138 C1152 0.931 . S
H1139 C1154 0.930 . S
C1140 H1128 0.930 . S
C1140 C1141 1.399 . S
C1140 C1145 1.399 . S
C1141 C1140 1.399 . S
C1141 C1142 1.376 . S
C1142 H1129 0.930 . S
C1142 C1141 1.376 . S
C1142 C1143 1.388 . S
C1143 H1130 0.930 . S
C1143 C1142 1.388 . S
C1143 C1144 1.390 . S
C1144 C1143 1.390 . S
C1144 C1145 1.394 . S
C1144 C1150 1.465 . S
C1145 C1140 1.399 . S
C1145 C1144 1.394 . S
C1145 C1146 1.516 . S
C1146 C1145 1.516 . S
C1146 C1147 1.502 . S
C1146 C1148 1.561 . S
C1146 C1149 1.526 . S
C1147 H1131 0.959 . S
C1147 H1132 0.959 . S
C1147 H1133 0.961 . S
C1147 C1146 1.502 . S
C1148 H1134 0.960 . S
C1148 H1135 0.961 . S
C1148 H1136 0.959 . S
C1148 C1146 1.561 . S
C1149 C1146 1.526 . S
C1149 C1150 1.396 . S
C1149 C1154 1.390 . S
C1150 C1144 1.465 . S
C1150 C1149 1.396 . S
C1150 C1151 1.399 . S
C1151 H1137 0.929 . S
C1151 C1150 1.399 . S
C1151 C1152 1.385 . S
C1152 H1138 0.931 . S
C1152 C1151 1.385 . S
C1152 C1153 1.389 . S
C1153 C1152 1.389 . S
C1153 C1154 1.387 . S
C1154 H1139 0.930 . S
C1154 C1149 1.390 . S
C1154 C1153 1.387 . S
H1155 C1167 0.930 . S
H1156 C1169 0.930 . S
H1157 C1170 0.930 . S
H1158 C1174 0.959 . S
H1159 C1174 0.959 . S
H1160 C1174 0.961 . S
H1161 C1175 0.960 . S
H1162 C1175 0.961 . S
H1163 C1175 0.959 . S
H1164 C1178 0.929 . S
H1165 C1179 0.931 . S
H1166 C1181 0.930 . S
C1167 H1155 0.930 . S
C1167 C1168 1.399 . S
C1167 C1172 1.399 . S
C1168 C1167 1.399 . S
C1168 C1169 1.376 . S
C1169 H1156 0.930 . S
C1169 C1168 1.376 . S
C1169 C1170 1.388 . S
C1170 H1157 0.930 . S
C1170 C1169 1.388 . S
C1170 C1171 1.390 . S
C1171 C1170 1.390 . S
C1171 C1172 1.394 . S
C1171 C1177 1.465 . S
C1172 C1167 1.399 . S
C1172 C1171 1.394 . S
C1172 C1173 1.516 . S
C1173 C1172 1.516 . S
C1173 C1174 1.502 . S
C1173 C1175 1.561 . S
C1173 C1176 1.526 . S
C1174 H1158 0.959 . S
C1174 H1159 0.959 . S
C1174 H1160 0.961 . S
C1174 C1173 1.502 . S
C1175 H1161 0.960 . S
C1175 H1162 0.961 . S
C1175 H1163 0.959 . S
C1175 C1173 1.561 . S
C1176 C1173 1.526 . S
C1176 C1177 1.396 . S
C1176 C1181 1.390 . S
C1177 C1171 1.465 . S
C1177 C1176 1.396 . S
C1177 C1178 1.399 . S
C1178 H1164 0.929 . S
C1178 C1177 1.399 . S
C1178 C1179 1.385 . S
C1179 H1165 0.931 . S
C1179 C1178 1.385 . S
C1179 C1180 1.389 . S
C1180 C1179 1.389 . S
C1180 C1181 1.387 . S
C1181 H1166 0.930 . S
C1181 C1176 1.390 . S
C1181 C1180 1.387 . S
H1182 C1194 0.930 . S
H1183 C1196 0.930 . S
H1184 C1197 0.930 . S
H1185 C1201 0.959 . S
H1186 C1201 0.959 . S
H1187 C1201 0.961 . S
H1188 C1202 0.960 . S
H1189 C1202 0.961 . S
H1190 C1202 0.959 . S
H1191 C1205 0.929 . S
H1192 C1206 0.931 . S
H1193 C1208 0.930 . S
C1194 H1182 0.930 . S
C1194 C1195 1.399 . S
C1194 C1199 1.399 . S
C1195 C1194 1.399 . S
C1195 C1196 1.376 . S
C1196 H1183 0.930 . S
C1196 C1195 1.376 . S
C1196 C1197 1.388 . S
C1197 H1184 0.930 . S
C1197 C1196 1.388 . S
C1197 C1198 1.390 . S
C1198 C1197 1.390 . S
C1198 C1199 1.394 . S
C1198 C1204 1.465 . S
C1199 C1194 1.399 . S
C1199 C1198 1.394 . S
C1199 C1200 1.516 . S
C1200 C1199 1.516 . S
C1200 C1201 1.502 . S
C1200 C1202 1.561 . S
C1200 C1203 1.526 . S
C1201 H1185 0.959 . S
C1201 H1186 0.959 . S
C1201 H1187 0.961 . S
C1201 C1200 1.502 . S
C1202 H1188 0.960 . S
C1202 H1189 0.961 . S
C1202 H1190 0.959 . S
C1202 C1200 1.561 . S
C1203 C1200 1.526 . S
C1203 C1204 1.396 . S
C1203 C1208 1.390 . S
C1204 C1198 1.465 . S
C1204 C1203 1.396 . S
C1204 C1205 1.399 . S
C1205 H1191 0.929 . S
C1205 C1204 1.399 . S
C1205 C1206 1.385 . S
C1206 H1192 0.931 . S
C1206 C1205 1.385 . S
C1206 C1207 1.389 . S
C1207 C1206 1.389 . S
C1207 C1208 1.387 . S
C1208 H1193 0.930 . S
C1208 C1203 1.390 . S
C1208 C1207 1.387 . S
H1209 C1221 0.930 . S
H1210 C1223 0.930 . S
H1211 C1224 0.930 . S
H1212 C1228 0.959 . S
H1213 C1228 0.959 . S
H1214 C1228 0.961 . S
H1215 C1229 0.960 . S
H1216 C1229 0.961 . S
H1217 C1229 0.959 . S
H1218 C1232 0.929 . S
H1219 C1233 0.931 . S
H1220 C1235 0.930 . S
C1221 H1209 0.930 . S
C1221 C1222 1.399 . S
C1221 C1226 1.399 . S
C1222 C1221 1.399 . S
C1222 C1223 1.376 . S
C1223 H1210 0.930 . S
C1223 C1222 1.376 . S
C1223 C1224 1.388 . S
C1224 H1211 0.930 . S
C1224 C1223 1.388 . S
C1224 C1225 1.390 . S
C1225 C1224 1.390 . S
C1225 C1226 1.394 . S
C1225 C1231 1.465 . S
C1226 C1221 1.399 . S
C1226 C1225 1.394 . S
C1226 C1227 1.516 . S
C1227 C1226 1.516 . S
C1227 C1228 1.502 . S
C1227 C1229 1.561 . S
C1227 C1230 1.526 . S
C1228 H1212 0.959 . S
C1228 H1213 0.959 . S
C1228 H1214 0.961 . S
C1228 C1227 1.502 . S
C1229 H1215 0.960 . S
C1229 H1216 0.961 . S
C1229 H1217 0.959 . S
C1229 C1227 1.561 . S
C1230 C1227 1.526 . S
C1230 C1231 1.396 . S
C1230 C1235 1.390 . S
C1231 C1225 1.465 . S
C1231 C1230 1.396 . S
C1231 C1232 1.399 . S
C1232 H1218 0.929 . S
C1232 C1231 1.399 . S
C1232 C1233 1.385 . S
C1233 H1219 0.931 . S
C1233 C1232 1.385 . S
C1233 C1234 1.389 . S
C1234 C1233 1.389 . S
C1234 C1235 1.387 . S
C1235 H1220 0.930 . S
C1235 C1230 1.390 . S
C1235 C1234 1.387 . S
H1236 C1248 0.930 . S
H1237 C1250 0.930 . S
H1238 C1251 0.930 . S
H1239 C1255 0.959 . S
H1240 C1255 0.959 . S
H1241 C1255 0.961 . S
H1242 C1256 0.960 . S
H1243 C1256 0.961 . S
H1244 C1256 0.959 . S
H1245 C1259 0.929 . S
H1246 C1260 0.931 . S
H1247 C1262 0.930 . S
C1248 H1236 0.930 . S
C1248 C1249 1.399 . S
C1248 C1253 1.399 . S
C1249 C1248 1.399 . S
C1249 C1250 1.376 . S
C1250 H1237 0.930 . S
C1250 C1249 1.376 . S
C1250 C1251 1.388 . S
C1251 H1238 0.930 . S
C1251 C1250 1.388 . S
C1251 C1252 1.390 . S
C1252 C1251 1.390 . S
C1252 C1253 1.394 . S
C1252 C1258 1.465 . S
C1253 C1248 1.399 . S
C1253 C1252 1.394 . S
C1253 C1254 1.516 . S
C1254 C1253 1.516 . S
C1254 C1255 1.502 . S
C1254 C1256 1.561 . S
C1254 C1257 1.526 . S
C1255 H1239 0.959 . S
C1255 H1240 0.959 . S
C1255 H1241 0.961 . S
C1255 C1254 1.502 . S
C1256 H1242 0.960 . S
C1256 H1243 0.961 . S
C1256 H1244 0.959 . S
C1256 C1254 1.561 . S
C1257 C1254 1.526 . S
C1257 C1258 1.396 . S
C1257 C1262 1.390 . S
C1258 C1252 1.465 . S
C1258 C1257 1.396 . S
C1258 C1259 1.399 . S
C1259 H1245 0.929 . S
C1259 C1258 1.399 . S
C1259 C1260 1.385 . S
C1260 H1246 0.931 . S
C1260 C1259 1.385 . S
C1260 C1261 1.389 . S
C1261 C1260 1.389 . S
C1261 C1262 1.387 . S
C1262 H1247 0.930 . S
C1262 C1257 1.390 . S
C1262 C1261 1.387 . S
H1263 C1275 0.930 . S
H1264 C1277 0.930 . S
H1265 C1278 0.930 . S
H1266 C1282 0.959 . S
H1267 C1282 0.959 . S
H1268 C1282 0.961 . S
H1269 C1283 0.960 . S
H1270 C1283 0.961 . S
H1271 C1283 0.959 . S
H1272 C1286 0.929 . S
H1273 C1287 0.931 . S
H1274 C1289 0.930 . S
C1275 H1263 0.930 . S
C1275 C1276 1.399 . S
C1275 C1280 1.399 . S
C1276 C1275 1.399 . S
C1276 C1277 1.376 . S
C1277 H1264 0.930 . S
C1277 C1276 1.376 . S
C1277 C1278 1.388 . S
C1278 H1265 0.930 . S
C1278 C1277 1.388 . S
C1278 C1279 1.390 . S
C1279 C1278 1.390 . S
C1279 C1280 1.394 . S
C1279 C1285 1.465 . S
C1280 C1275 1.399 . S
C1280 C1279 1.394 . S
C1280 C1281 1.516 . S
C1281 C1280 1.516 . S
C1281 C1282 1.502 . S
C1281 C1283 1.561 . S
C1281 C1284 1.526 . S
C1282 H1266 0.959 . S
C1282 H1267 0.959 . S
C1282 H1268 0.961 . S
C1282 C1281 1.502 . S
C1283 H1269 0.960 . S
C1283 H1270 0.961 . S
C1283 H1271 0.959 . S
C1283 C1281 1.561 . S
C1284 C1281 1.526 . S
C1284 C1285 1.396 . S
C1284 C1289 1.390 . S
C1285 C1279 1.465 . S
C1285 C1284 1.396 . S
C1285 C1286 1.399 . S
C1286 H1272 0.929 . S
C1286 C1285 1.399 . S
C1286 C1287 1.385 . S
C1287 H1273 0.931 . S
C1287 C1286 1.385 . S
C1287 C1288 1.389 . S
C1288 C1287 1.389 . S
C1288 C1289 1.387 . S
C1289 H1274 0.930 . S
C1289 C1284 1.390 . S
C1289 C1288 1.387 . S
H1290 C1302 0.930 . S
H1291 C1304 0.930 . S
H1292 C1305 0.930 . S
H1293 C1309 0.959 . S
H1294 C1309 0.959 . S
H1295 C1309 0.961 . S
H1296 C1310 0.960 . S
H1297 C1310 0.961 . S
H1298 C1310 0.959 . S
H1299 C1313 0.929 . S
H1300 C1314 0.931 . S
H1301 C1316 0.930 . S
C1302 H1290 0.930 . S
C1302 C1303 1.399 . S
C1302 C1307 1.399 . S
C1303 C1302 1.399 . S
C1303 C1304 1.376 . S
C1304 H1291 0.930 . S
C1304 C1303 1.376 . S
C1304 C1305 1.388 . S
C1305 H1292 0.930 . S
C1305 C1304 1.388 . S
C1305 C1306 1.390 . S
C1306 C1305 1.390 . S
C1306 C1307 1.394 . S
C1306 C1312 1.465 1_455 S
C1307 C1302 1.399 . S
C1307 C1306 1.394 . S
C1307 C1308 1.516 . S
C1308 C1307 1.516 . S
C1308 C1309 1.502 . S
C1308 C1310 1.561 1_554 S
C1308 C1311 1.526 1_455 S
C1309 H1293 0.959 . S
C1309 H1294 0.959 . S
C1309 H1295 0.961 . S
C1309 C1308 1.502 . S
C1310 H1296 0.960 . S
C1310 H1297 0.961 . S
C1310 H1298 0.959 . S
C1310 C1308 1.561 1_556 S
C1311 C1308 1.526 1_655 S
C1311 C1312 1.396 . S
C1311 C1316 1.390 . S
C1312 C1306 1.465 1_655 S
C1312 C1311 1.396 . S
C1312 C1313 1.399 . S
C1313 H1299 0.929 . S
C1313 C1312 1.399 . S
C1313 C1314 1.385 . S
C1314 H1300 0.931 . S
C1314 C1313 1.385 . S
C1314 C1315 1.389 . S
C1315 C1314 1.389 . S
C1315 C1316 1.387 . S
C1316 H1301 0.930 . S
C1316 C1311 1.390 . S
C1316 C1315 1.387 . S
H1317 C1329 0.930 . S
H1318 C1331 0.930 . S
H1319 C1332 0.930 . S
H1320 C1336 0.959 . S
H1321 C1336 0.959 . S
H1322 C1336 0.961 . S
H1323 C1337 0.960 . S
H1324 C1337 0.961 . S
H1325 C1337 0.959 . S
H1326 C1340 0.929 . S
H1327 C1341 0.931 . S
H1328 C1343 0.930 . S
C1329 H1317 0.930 . S
C1329 C1330 1.399 . S
C1329 C1334 1.399 . S
C1330 C1329 1.399 . S
C1330 C1331 1.376 . S
C1331 H1318 0.930 . S
C1331 C1330 1.376 . S
C1331 C1332 1.388 . S
C1332 H1319 0.930 . S
C1332 C1331 1.388 . S
C1332 C1333 1.390 . S
C1333 C1332 1.390 . S
C1333 C1334 1.394 . S
C1333 C1339 1.465 . S
C1334 C1329 1.399 . S
C1334 C1333 1.394 . S
C1334 C1335 1.516 . S
C1335 C1334 1.516 . S
C1335 C1336 1.502 . S
C1335 C1337 1.561 . S
C1335 C1338 1.526 . S
C1336 H1320 0.959 . S
C1336 H1321 0.959 . S
C1336 H1322 0.961 . S
C1336 C1335 1.502 . S
C1337 H1323 0.960 . S
C1337 H1324 0.961 . S
C1337 H1325 0.959 . S
C1337 C1335 1.561 . S
C1338 C1335 1.526 . S
C1338 C1339 1.396 . S
C1338 C1343 1.390 . S
C1339 C1333 1.465 . S
C1339 C1338 1.396 . S
C1339 C1340 1.399 . S
C1340 H1326 0.929 . S
C1340 C1339 1.399 . S
C1340 C1341 1.385 . S
C1341 H1327 0.931 . S
C1341 C1340 1.385 . S
C1341 C1342 1.389 . S
C1342 C1341 1.389 . S
C1342 C1343 1.387 . S
C1343 H1328 0.930 . S
C1343 C1338 1.390 . S
C1343 C1342 1.387 . S
H1344 C1356 0.930 . S
H1345 C1358 0.930 . S
H1346 C1359 0.930 . S
H1347 C1363 0.959 . S
H1348 C1363 0.959 . S
H1349 C1363 0.961 . S
H1350 C1364 0.960 . S
H1351 C1364 0.961 . S
H1352 C1364 0.959 . S
H1353 C1367 0.929 . S
H1354 C1368 0.931 . S
H1355 C1370 0.930 . S
C1356 H1344 0.930 . S
C1356 C1357 1.399 . S
C1356 C1361 1.399 . S
C1357 C1356 1.399 . S
C1357 C1358 1.376 . S
C1358 H1345 0.930 . S
C1358 C1357 1.376 . S
C1358 C1359 1.388 . S
C1359 H1346 0.930 . S
C1359 C1358 1.388 . S
C1359 C1360 1.390 . S
C1360 C1359 1.390 . S
C1360 C1361 1.394 . S
C1360 C1366 1.465 . S
C1361 C1356 1.399 . S
C1361 C1360 1.394 . S
C1361 C1362 1.516 . S
C1362 C1361 1.516 . S
C1362 C1363 1.502 . S
C1362 C1364 1.561 . S
C1362 C1365 1.526 . S
C1363 H1347 0.959 . S
C1363 H1348 0.959 . S
C1363 H1349 0.961 . S
C1363 C1362 1.502 . S
C1364 H1350 0.960 . S
C1364 H1351 0.961 . S
C1364 H1352 0.959 . S
C1364 C1362 1.561 . S
C1365 C1362 1.526 . S
C1365 C1366 1.396 . S
C1365 C1370 1.390 . S
C1366 C1360 1.465 . S
C1366 C1365 1.396 . S
C1366 C1367 1.399 . S
C1367 H1353 0.929 . S
C1367 C1366 1.399 . S
C1367 C1368 1.385 . S
C1368 H1354 0.931 . S
C1368 C1367 1.385 . S
C1368 C1369 1.389 . S
C1369 C1368 1.389 . S
C1369 C1370 1.387 . S
C1370 H1355 0.930 . S
C1370 C1365 1.390 . S
C1370 C1369 1.387 . S
H1371 C1383 0.930 . S
H1372 C1385 0.930 . S
H1373 C1386 0.930 . S
H1374 C1390 0.959 . S
H1375 C1390 0.959 . S
H1376 C1390 0.961 . S
H1377 C1391 0.960 . S
H1378 C1391 0.961 . S
H1379 C1391 0.959 . S
H1380 C1394 0.929 . S
H1381 C1395 0.931 . S
H1382 C1397 0.930 . S
C1383 H1371 0.930 . S
C1383 C1384 1.399 . S
C1383 C1388 1.399 . S
C1384 C1383 1.399 . S
C1384 C1385 1.376 . S
C1385 H1372 0.930 . S
C1385 C1384 1.376 . S
C1385 C1386 1.388 . S
C1386 H1373 0.930 . S
C1386 C1385 1.388 . S
C1386 C1387 1.390 . S
C1387 C1386 1.390 . S
C1387 C1388 1.394 . S
C1387 C1393 1.465 . S
C1388 C1383 1.399 . S
C1388 C1387 1.394 . S
C1388 C1389 1.516 . S
C1389 C1388 1.516 . S
C1389 C1390 1.502 . S
C1389 C1391 1.561 . S
C1389 C1392 1.526 . S
C1390 H1374 0.959 . S
C1390 H1375 0.959 . S
C1390 H1376 0.961 . S
C1390 C1389 1.502 . S
C1391 H1377 0.960 . S
C1391 H1378 0.961 . S
C1391 H1379 0.959 . S
C1391 C1389 1.561 . S
C1392 C1389 1.526 . S
C1392 C1393 1.396 . S
C1392 C1397 1.390 . S
C1393 C1387 1.465 . S
C1393 C1392 1.396 . S
C1393 C1394 1.399 . S
C1394 H1380 0.929 . S
C1394 C1393 1.399 . S
C1394 C1395 1.385 . S
C1395 H1381 0.931 . S
C1395 C1394 1.385 . S
C1395 C1396 1.389 . S
C1396 C1395 1.389 . S
C1396 C1397 1.387 . S
C1397 H1382 0.930 . S
C1397 C1392 1.390 . S
C1397 C1396 1.387 . S
H1398 C1410 0.930 . S
H1399 C1412 0.930 . S
H1400 C1413 0.930 . S
H1401 C1417 0.959 . S
H1402 C1417 0.959 . S
H1403 C1417 0.961 . S
H1404 C1418 0.960 1_554 S
H1405 C1418 0.961 . S
H1406 C1418 0.959 . S
H1407 C1421 0.929 . S
H1408 C1422 0.931 . S
H1409 C1424 0.930 . S
C1410 H1398 0.930 . S
C1410 C1411 1.399 . S
C1410 C1415 1.399 . S
C1411 C1410 1.399 . S
C1411 C1412 1.376 . S
C1412 H1399 0.930 . S
C1412 C1411 1.376 . S
C1412 C1413 1.388 . S
C1413 H1400 0.930 . S
C1413 C1412 1.388 . S
C1413 C1414 1.390 . S
C1414 C1413 1.390 . S
C1414 C1415 1.394 . S
C1414 C1420 1.465 . S
C1415 C1410 1.399 . S
C1415 C1414 1.394 . S
C1415 C1416 1.516 . S
C1416 C1415 1.516 . S
C1416 C1417 1.502 . S
C1416 C1418 1.561 . S
C1416 C1419 1.526 . S
C1417 H1401 0.959 . S
C1417 H1402 0.959 . S
C1417 H1403 0.961 . S
C1417 C1416 1.502 . S
C1418 H1404 0.960 1_556 S
C1418 H1405 0.961 . S
C1418 H1406 0.959 . S
C1418 C1416 1.561 . S
C1419 C1416 1.526 . S
C1419 C1420 1.396 . S
C1419 C1424 1.390 . S
C1420 C1414 1.465 . S
C1420 C1419 1.396 . S
C1420 C1421 1.399 . S
C1421 H1407 0.929 . S
C1421 C1420 1.399 . S
C1421 C1422 1.385 . S
C1422 H1408 0.931 . S
C1422 C1421 1.385 . S
C1422 C1423 1.389 . S
C1423 C1422 1.389 . S
C1423 C1424 1.387 . S
C1424 H1409 0.930 . S
C1424 C1419 1.390 . S
C1424 C1423 1.387 . S
H1425 C1437 0.930 . S
H1426 C1439 0.930 . S
H1427 C1440 0.930 . S
H1428 C1444 0.959 . S
H1429 C1444 0.959 1_455 S
H1430 C1444 0.961 . S
H1431 C1445 0.960 . S
H1432 C1445 0.961 . S
H1433 C1445 0.959 . S
H1434 C1448 0.929 1_655 S
H1435 C1449 0.931 . S
H1436 C1451 0.930 . S
C1437 H1425 0.930 . S
C1437 C1438 1.399 . S
C1437 C1442 1.399 . S
C1438 C1437 1.399 . S
C1438 C1439 1.376 . S
C1439 H1426 0.930 . S
C1439 C1438 1.376 . S
C1439 C1440 1.388 . S
C1440 H1427 0.930 . S
C1440 C1439 1.388 . S
C1440 C1441 1.390 . S
C1441 C1440 1.390 . S
C1441 C1442 1.394 . S
C1441 C1447 1.465 . S
C1442 C1437 1.399 . S
C1442 C1441 1.394 . S
C1442 C1443 1.516 . S
C1443 C1442 1.516 . S
C1443 C1444 1.502 . S
C1443 C1445 1.561 . S
C1443 C1446 1.526 1_655 S
C1444 H1428 0.959 . S
C1444 H1429 0.959 1_655 S
C1444 H1430 0.961 . S
C1444 C1443 1.502 . S
C1445 H1431 0.960 . S
C1445 H1432 0.961 . S
C1445 H1433 0.959 . S
C1445 C1443 1.561 . S
C1446 C1443 1.526 1_455 S
C1446 C1447 1.396 1_455 S
C1446 C1451 1.390 . S
C1447 C1441 1.465 . S
C1447 C1446 1.396 1_655 S
C1447 C1448 1.399 1_655 S
C1448 H1434 0.929 1_455 S
C1448 C1447 1.399 1_455 S
C1448 C1449 1.385 . S
C1449 H1435 0.931 . S
C1449 C1448 1.385 . S
C1449 C1450 1.389 . S
C1450 C1449 1.389 . S
C1450 C1451 1.387 . S
C1451 H1436 0.930 . S
C1451 C1446 1.390 . S
C1451 C1450 1.387 . S
C493 C18 1.029 . S
C505 C458 1.040 . S
C520 C379 1.668 . S
C532 C58 1.749 . S
C547 C99 1.197 . S
C559 C338 1.308 . S
C574 C138 2.039 . S
C586 C418 2.032 . S
C601 C178 1.643 . S
C613 C419 1.545 . S
C628 C219 1.378 . S
C640 C459 1.415 . S
C655 C378 1.815 . S
C667 C258 1.817 . S
C682 C299 1.614 . S
C694 C339 1.682 . S
C709 C139 1.736 . S
C721 C179 1.788 . S
C736 C19 1.582 . S
C748 C218 1.654 . S
C763 C59 1.568 . S
C775 C259 1.581 . S
C790 C298 1.879 . S
C802 C98 1.881 . S
C817 C6 1.608 . S
C829 C329 1.418 . S
C844 C46 1.808 . S
C856 C409 1.710 . S
C871 C449 1.943 . S
C883 C95 1.908 . S
C898 C126 1.533 . S
C910 C370 1.521 . S
C925 C166 1.226 . S
C937 C369 1.129 . S
C952 C330 1.960 . S
C964 C215 1.821 . S
C979 C410 1.340 . S
C991 C246 1.350 . S
C1006 C450 2.622 . S
C1018 C295 2.561 . S
C1033 C10 2.719 . S
C1045 C135 2.614 . S
C1060 C15 1.982 . S
C1072 C50 2.058 . S
C1087 C55 2.244 . S
C1099 C89 2.226 . S
C1114 C130 1.639 . S
C1126 C86 1.716 . S
C1141 C206 1.446 . S
C1153 C170 1.453 . S
C1168 C209 1.309 . S
C1180 C255 1.287 . S
C1195 C250 1.427 . S
C1207 C286 1.491 . S
C1222 C175 0.820 . S
C1234 C289 0.931 . S
C1249 C335 0.763 . S
C1261 C129 0.838 . S
C1276 C210 1.691 . S
C1288 C375 1.576 . S
C1303 C326 1.349 . S
C1315 C249 1.336 . S
C1330 C406 1.799 . S
C1342 C290 1.781 . S
C1357 C169 1.185 . S
C1369 C446 1.342 . S
C1384 C455 1.708 . S
C1396 C49 1.608 . S
C1411 C90 1.484 . S
C1423 C366 1.524 . S
C1438 C415 1.748 . S
C1450 C9 1.742 . S
