# Generated by pormake.
# Topology yfu, (5)-cn, num edge types: 1
# Building blocks:
#     Node 0, Type 0, BuildingBlock: XOMCOT_clean_sbu_1, # of connection points: 5
#     Node 1, Type 0, BuildingBlock: XOMCOT_clean_sbu_1, # of connection points: 5
#     Node 2, Type 0, BuildingBlock: XOMCOT_clean_sbu_1, # of connection points: 5
#     Node 3, Type 0, BuildingBlock: XOMCOT_clean_sbu_1, # of connection points: 5
#     Node 4, Type 0, BuildingBlock: XOMCOT_clean_sbu_1, # of connection points: 5
#     Node 5, Type 0, BuildingBlock: XOMCOT_clean_sbu_1, # of connection points: 5
#     Node 6, Type 0, BuildingBlock: XOMCOT_clean_sbu_1, # of connection points: 5
#     Node 7, Type 0, BuildingBlock: XOMCOT_clean_sbu_1, # of connection points: 5
#     Node 8, Type 0, BuildingBlock: XOMCOT_clean_sbu_1, # of connection points: 5
#     Node 9, Type 0, BuildingBlock: XOMCOT_clean_sbu_1, # of connection points: 5
#     Node 10, Type 0, BuildingBlock: XOMCOT_clean_sbu_1, # of connection points: 5
#     Node 11, Type 0, BuildingBlock: XOMCOT_clean_sbu_1, # of connection points: 5
#     Node 12, Type 0, BuildingBlock: XOMCOT_clean_sbu_1, # of connection points: 5
#     Node 13, Type 0, BuildingBlock: XOMCOT_clean_sbu_1, # of connection points: 5
#     Node 14, Type 0, BuildingBlock: XOMCOT_clean_sbu_1, # of connection points: 5
#     Node 15, Type 0, BuildingBlock: XOMCOT_clean_sbu_1, # of connection points: 5
#     Node 16, Type 0, BuildingBlock: XOMCOT_clean_sbu_1, # of connection points: 5
#     Node 17, Type 0, BuildingBlock: XOMCOT_clean_sbu_1, # of connection points: 5
#     Node 18, Type 0, BuildingBlock: XOMCOT_clean_sbu_1, # of connection points: 5
#     Node 19, Type 0, BuildingBlock: XOMCOT_clean_sbu_1, # of connection points: 5
#     Node 20, Type 0, BuildingBlock: XOMCOT_clean_sbu_1, # of connection points: 5
#     Node 21, Type 0, BuildingBlock: XOMCOT_clean_sbu_1, # of connection points: 5
#     Node 22, Type 0, BuildingBlock: XOMCOT_clean_sbu_1, # of connection points: 5
#     Node 23, Type 0, BuildingBlock: XOMCOT_clean_sbu_1, # of connection points: 5
#     Node 24, Type 0, BuildingBlock: XOMCOT_clean_sbu_1, # of connection points: 5
#     Node 25, Type 0, BuildingBlock: XOMCOT_clean_sbu_1, # of connection points: 5
#     Node 26, Type 0, BuildingBlock: XOMCOT_clean_sbu_1, # of connection points: 5
#     Node 27, Type 0, BuildingBlock: XOMCOT_clean_sbu_1, # of connection points: 5
#     Node 28, Type 0, BuildingBlock: XOMCOT_clean_sbu_1, # of connection points: 5
#     Node 29, Type 0, BuildingBlock: XOMCOT_clean_sbu_1, # of connection points: 5
#     Node 30, Type 0, BuildingBlock: XOMCOT_clean_sbu_1, # of connection points: 5
#     Node 31, Type 0, BuildingBlock: XOMCOT_clean_sbu_1, # of connection points: 5
#     Edge 32, Type (0, 0), BuildingBlock: KIFKEQ_clean_linker_1, # of connection points: 2
#     Edge 33, Type (0, 0), BuildingBlock: KIFKEQ_clean_linker_1, # of connection points: 2
#     Edge 34, Type (0, 0), BuildingBlock: KIFKEQ_clean_linker_1, # of connection points: 2
#     Edge 35, Type (0, 0), BuildingBlock: KIFKEQ_clean_linker_1, # of connection points: 2
#     Edge 36, Type (0, 0), BuildingBlock: KIFKEQ_clean_linker_1, # of connection points: 2
#     Edge 37, Type (0, 0), BuildingBlock: KIFKEQ_clean_linker_1, # of connection points: 2
#     Edge 38, Type (0, 0), BuildingBlock: KIFKEQ_clean_linker_1, # of connection points: 2
#     Edge 39, Type (0, 0), BuildingBlock: KIFKEQ_clean_linker_1, # of connection points: 2
#     Edge 40, Type (0, 0), BuildingBlock: KIFKEQ_clean_linker_1, # of connection points: 2
#     Edge 41, Type (0, 0), BuildingBlock: KIFKEQ_clean_linker_1, # of connection points: 2
#     Edge 42, Type (0, 0), BuildingBlock: KIFKEQ_clean_linker_1, # of connection points: 2
#     Edge 43, Type (0, 0), BuildingBlock: KIFKEQ_clean_linker_1, # of connection points: 2
#     Edge 44, Type (0, 0), BuildingBlock: KIFKEQ_clean_linker_1, # of connection points: 2
#     Edge 45, Type (0, 0), BuildingBlock: KIFKEQ_clean_linker_1, # of connection points: 2
#     Edge 46, Type (0, 0), BuildingBlock: KIFKEQ_clean_linker_1, # of connection points: 2
#     Edge 47, Type (0, 0), BuildingBlock: KIFKEQ_clean_linker_1, # of connection points: 2
#     Edge 48, Type (0, 0), BuildingBlock: KIFKEQ_clean_linker_1, # of connection points: 2
#     Edge 49, Type (0, 0), BuildingBlock: KIFKEQ_clean_linker_1, # of connection points: 2
#     Edge 50, Type (0, 0), BuildingBlock: KIFKEQ_clean_linker_1, # of connection points: 2
#     Edge 51, Type (0, 0), BuildingBlock: KIFKEQ_clean_linker_1, # of connection points: 2
#     Edge 52, Type (0, 0), BuildingBlock: KIFKEQ_clean_linker_1, # of connection points: 2
#     Edge 53, Type (0, 0), BuildingBlock: KIFKEQ_clean_linker_1, # of connection points: 2
#     Edge 54, Type (0, 0), BuildingBlock: KIFKEQ_clean_linker_1, # of connection points: 2
#     Edge 55, Type (0, 0), BuildingBlock: KIFKEQ_clean_linker_1, # of connection points: 2
#     Edge 56, Type (0, 0), BuildingBlock: KIFKEQ_clean_linker_1, # of connection points: 2
#     Edge 57, Type (0, 0), BuildingBlock: KIFKEQ_clean_linker_1, # of connection points: 2
#     Edge 58, Type (0, 0), BuildingBlock: KIFKEQ_clean_linker_1, # of connection points: 2
#     Edge 59, Type (0, 0), BuildingBlock: KIFKEQ_clean_linker_1, # of connection points: 2
#     Edge 60, Type (0, 0), BuildingBlock: KIFKEQ_clean_linker_1, # of connection points: 2
#     Edge 61, Type (0, 0), BuildingBlock: KIFKEQ_clean_linker_1, # of connection points: 2
#     Edge 62, Type (0, 0), BuildingBlock: KIFKEQ_clean_linker_1, # of connection points: 2
#     Edge 63, Type (0, 0), BuildingBlock: KIFKEQ_clean_linker_1, # of connection points: 2
#     Edge 64, Type (0, 0), BuildingBlock: KIFKEQ_clean_linker_1, # of connection points: 2
#     Edge 65, Type (0, 0), BuildingBlock: KIFKEQ_clean_linker_1, # of connection points: 2
#     Edge 66, Type (0, 0), BuildingBlock: KIFKEQ_clean_linker_1, # of connection points: 2
#     Edge 67, Type (0, 0), BuildingBlock: KIFKEQ_clean_linker_1, # of connection points: 2
#     Edge 68, Type (0, 0), BuildingBlock: KIFKEQ_clean_linker_1, # of connection points: 2
#     Edge 69, Type (0, 0), BuildingBlock: KIFKEQ_clean_linker_1, # of connection points: 2
#     Edge 70, Type (0, 0), BuildingBlock: KIFKEQ_clean_linker_1, # of connection points: 2
#     Edge 71, Type (0, 0), BuildingBlock: KIFKEQ_clean_linker_1, # of connection points: 2
#     Edge 72, Type (0, 0), BuildingBlock: KIFKEQ_clean_linker_1, # of connection points: 2
#     Edge 73, Type (0, 0), BuildingBlock: KIFKEQ_clean_linker_1, # of connection points: 2
#     Edge 74, Type (0, 0), BuildingBlock: KIFKEQ_clean_linker_1, # of connection points: 2
#     Edge 75, Type (0, 0), BuildingBlock: KIFKEQ_clean_linker_1, # of connection points: 2
#     Edge 76, Type (0, 0), BuildingBlock: KIFKEQ_clean_linker_1, # of connection points: 2
#     Edge 77, Type (0, 0), BuildingBlock: KIFKEQ_clean_linker_1, # of connection points: 2
#     Edge 78, Type (0, 0), BuildingBlock: KIFKEQ_clean_linker_1, # of connection points: 2
#     Edge 79, Type (0, 0), BuildingBlock: KIFKEQ_clean_linker_1, # of connection points: 2
#     Edge 80, Type (0, 0), BuildingBlock: KIFKEQ_clean_linker_1, # of connection points: 2
#     Edge 81, Type (0, 0), BuildingBlock: KIFKEQ_clean_linker_1, # of connection points: 2
#     Edge 82, Type (0, 0), BuildingBlock: KIFKEQ_clean_linker_1, # of connection points: 2
#     Edge 83, Type (0, 0), BuildingBlock: KIFKEQ_clean_linker_1, # of connection points: 2
#     Edge 84, Type (0, 0), BuildingBlock: KIFKEQ_clean_linker_1, # of connection points: 2
#     Edge 85, Type (0, 0), BuildingBlock: KIFKEQ_clean_linker_1, # of connection points: 2
#     Edge 86, Type (0, 0), BuildingBlock: KIFKEQ_clean_linker_1, # of connection points: 2
#     Edge 87, Type (0, 0), BuildingBlock: KIFKEQ_clean_linker_1, # of connection points: 2
#     Edge 88, Type (0, 0), BuildingBlock: KIFKEQ_clean_linker_1, # of connection points: 2
#     Edge 89, Type (0, 0), BuildingBlock: KIFKEQ_clean_linker_1, # of connection points: 2
#     Edge 90, Type (0, 0), BuildingBlock: KIFKEQ_clean_linker_1, # of connection points: 2
#     Edge 91, Type (0, 0), BuildingBlock: KIFKEQ_clean_linker_1, # of connection points: 2
#     Edge 92, Type (0, 0), BuildingBlock: KIFKEQ_clean_linker_1, # of connection points: 2
#     Edge 93, Type (0, 0), BuildingBlock: KIFKEQ_clean_linker_1, # of connection points: 2
#     Edge 94, Type (0, 0), BuildingBlock: KIFKEQ_clean_linker_1, # of connection points: 2
#     Edge 95, Type (0, 0), BuildingBlock: KIFKEQ_clean_linker_1, # of connection points: 2
#     Edge 96, Type (0, 0), BuildingBlock: KIFKEQ_clean_linker_1, # of connection points: 2
#     Edge 97, Type (0, 0), BuildingBlock: KIFKEQ_clean_linker_1, # of connection points: 2
#     Edge 98, Type (0, 0), BuildingBlock: KIFKEQ_clean_linker_1, # of connection points: 2
#     Edge 99, Type (0, 0), BuildingBlock: KIFKEQ_clean_linker_1, # of connection points: 2
#     Edge 100, Type (0, 0), BuildingBlock: KIFKEQ_clean_linker_1, # of connection points: 2
#     Edge 101, Type (0, 0), BuildingBlock: KIFKEQ_clean_linker_1, # of connection points: 2
#     Edge 102, Type (0, 0), BuildingBlock: KIFKEQ_clean_linker_1, # of connection points: 2
#     Edge 103, Type (0, 0), BuildingBlock: KIFKEQ_clean_linker_1, # of connection points: 2
#     Edge 104, Type (0, 0), BuildingBlock: KIFKEQ_clean_linker_1, # of connection points: 2
#     Edge 105, Type (0, 0), BuildingBlock: KIFKEQ_clean_linker_1, # of connection points: 2
#     Edge 106, Type (0, 0), BuildingBlock: KIFKEQ_clean_linker_1, # of connection points: 2
#     Edge 107, Type (0, 0), BuildingBlock: KIFKEQ_clean_linker_1, # of connection points: 2
#     Edge 108, Type (0, 0), BuildingBlock: KIFKEQ_clean_linker_1, # of connection points: 2
#     Edge 109, Type (0, 0), BuildingBlock: KIFKEQ_clean_linker_1, # of connection points: 2
#     Edge 110, Type (0, 0), BuildingBlock: KIFKEQ_clean_linker_1, # of connection points: 2
#     Edge 111, Type (0, 0), BuildingBlock: KIFKEQ_clean_linker_1, # of connection points: 2
# Relax obj value: 0.459
# Max RMSD: 0.265
# Mean RMSD: 0.265
data_MOF--net-yfu--node1-XOMCOT_clean_sbu_1--edge1-KIFKEQ_clean_linker_1
_symmetry_space_group_name_H-M    P1
_symmetry_Int_Tables_number       1
_symmetry_cell_setting            triclinic
loop_
_symmetry_equiv_pos_as_xyz
'x, y, z'
_cell_length_a     46.493084
_cell_length_b     46.511312
_cell_length_c     81.341397
_cell_angle_alpha  90.125571
_cell_angle_beta   90.07329
_cell_angle_gamma 89.975799
loop_
_atom_site_label
_atom_site_type_symbol
_atom_site_fract_x
_atom_site_fract_y
_atom_site_fract_z
_atom_type_partial_charge
C0 C 0.07841 0.16306 0.29072 0.0
C1 C 0.06491 0.18897 0.28781 0.0
N2 N 0.05612 0.19995 0.3023 0.0
N3 N 0.07731 0.15692 0.30694 0.0
C4 C 0.0645 0.18043 0.31363 0.0
H5 H 0.09005 0.15073 0.28163 0.0
Co6 Co 0.09833 0.13009 0.31966 0.0
C7 C 0.1564 0.14269 0.30834 0.0
O8 O 0.15999 0.11592 0.30364 0.0
N9 N 0.11966 0.10661 0.33362 0.0
C10 C 0.13376 0.09307 0.35848 0.0
C11 C 0.11849 0.11304 0.34975 0.0
C12 C 0.1363 0.08269 0.33273 0.0
N13 N 0.14489 0.07394 0.34782 0.0
O14 O 0.10421 0.10409 0.30085 0.0
H15 H 0.10664 0.13099 0.35483 0.0
H16 H 0.14103 0.0713 0.32144 0.0
O17 O 0.13245 0.15091 0.31437 0.0
C18 C 0.08546 0.09499 0.29055 0.0
O19 O 0.059 0.1049 0.29126 0.0
N20 N 0.06491 0.10892 0.32569 0.0
C21 C 0.02178 0.07583 0.34005 0.0
C22 C 0.02019 0.10592 0.34024 0.0
C23 C 0.04229 0.12208 0.33325 0.0
C24 C 0.06605 0.07943 0.32508 0.0
C25 C 0.04479 0.06256 0.33219 0.0
H26 H 0.04192 0.14496 0.33496 0.0
H27 H 0.08432 0.06842 0.31988 0.0
H28 H 0.0637 0.18443 0.32672 0.0
H29 H 0.06284 0.1994 0.27599 0.0
H30 H 0.13646 0.09257 0.3717 0.0
H31 H 1.0031 0.11687 0.34679 0.0
H32 H 0.04698 0.03936 0.33218 0.0
C33 C 0.18071 0.77294 0.58022 0.0
C34 C 0.15946 0.75368 0.576 0.0
N35 N 0.14198 0.76593 0.56478 0.0
N36 N 0.17668 0.79771 0.57192 0.0
C37 C 0.15389 0.79205 0.56194 0.0
H38 H 0.19666 0.76945 0.58964 0.0
Co39 Co 0.19317 0.83474 0.5756 0.0
C40 C 0.13074 0.84312 0.58056 0.0
O41 O 0.12854 0.81885 0.58872 0.0
N42 N 0.20862 0.87163 0.57875 0.0
C43 C 0.2141 0.91881 0.57605 0.0
C44 C 0.19991 0.89499 0.57029 0.0
C45 C 0.22843 0.8818 0.5895 0.0
N46 N 0.23192 0.91055 0.58823 0.0
O47 O 0.19604 0.83977 0.55254 0.0
H48 H 0.18384 0.89479 0.56067 0.0
H49 H 0.23942 0.86868 0.59847 0.0
O50 O 0.15514 0.85192 0.57552 0.0
C51 C 0.22232 0.83661 0.54858 0.0
O52 O 0.2409 0.82943 0.56005 0.0
N53 N 0.1937 0.82928 0.59842 0.0
C54 C 0.20338 0.81434 0.63119 0.0
C55 C 0.17954 0.83139 0.62669 0.0
C56 C 0.17569 0.83954 0.6103 0.0
C57 C 0.21847 0.81568 0.60277 0.0
C58 C 0.22408 0.80862 0.61905 0.0
H59 H 0.15806 0.85363 0.60732 0.0
H60 H 0.23382 0.80985 0.59335 0.0
H61 H 0.14452 0.80804 0.55392 0.0
H62 H 0.15584 0.73321 0.58194 0.0
H63 H 0.21132 0.94058 0.57166 0.0
H64 H 0.16311 0.83739 0.63545 0.0
H65 H 0.24392 0.7975 0.62183 0.0
C66 C 0.46213 0.91065 0.79702 0.0
C67 C 0.4806 0.88798 0.79382 0.0
N68 N 0.47801 0.86848 0.806 0.0
N69 N 0.44782 0.9054 0.8111 0.0
C70 C 0.45844 0.87991 0.81634 0.0
H71 H 0.45806 0.92871 0.789 0.0
Co72 Co 0.41439 0.92243 0.8199 0.0
C73 C 0.39166 0.86859 0.80676 0.0
O74 O 0.39495 0.87801 0.79168 0.0
N75 N 0.38085 0.93789 0.82879 0.0
C76 C 0.33505 0.94357 0.83578 0.0
C77 C 0.35384 0.92827 0.82612 0.0
C78 C 0.37793 0.95943 0.83985 0.0
N79 N 0.35028 0.96308 0.84432 0.0
O80 O 0.40137 0.93245 0.79837 0.0
H81 H 0.34814 0.91097 0.81785 0.0
H82 H 0.39572 0.97164 0.84486 0.0
O83 O 0.39697 0.88492 0.81901 0.0
C84 C 0.40356 0.95952 0.7963 0.0
O85 O 0.41363 0.97532 0.80841 0.0
N86 N 0.42813 0.91622 0.84089 0.0
C87 C 0.45785 0.91425 0.87041 0.0
C88 C 0.43611 0.89405 0.86705 0.0
C89 C 0.42104 0.89566 0.85213 0.0
C90 C 0.44772 0.93693 0.84446 0.0
C91 C 0.46256 0.9366 0.85921 0.0
H92 H 0.40452 0.88002 0.84944 0.0
H93 H 0.45219 0.95353 0.83552 0.0
H94 H 0.45005 0.86868 0.82687 0.0
H95 H 0.49391 0.88557 0.78301 0.0
H96 H 0.31199 0.94061 0.83655 0.0
H97 H 0.43171 0.87661 0.87548 0.0
H98 H 0.47845 0.95314 0.86155 0.0
C99 C 0.34542 0.20436 0.06158 0.0
C100 C 0.36631 0.22457 0.05845 0.0
N101 N 0.39218 0.21395 0.06302 0.0
N102 N 0.3577 0.18077 0.06803 0.0
C103 C 0.38612 0.18733 0.06888 0.0
H104 H 0.32265 0.20667 0.05922 0.0
Co105 Co 0.33733 0.14738 0.07407 0.0
C106 C 0.38073 0.1006 0.07513 0.0
O107 O 0.36595 0.0868 0.08637 0.0
N108 N 0.3161 0.11382 0.07996 0.0
C109 C 0.29534 0.07093 0.0773 0.0
C110 C 0.31265 0.09092 0.0699 0.0
C111 C 0.3001 0.10717 0.09339 0.0
N112 N 0.2872 0.08109 0.09211 0.0
O113 O 0.32525 0.14264 0.05175 0.0
H114 H 0.32253 0.08863 0.05794 0.0
H115 H 0.29743 0.1213 0.10381 0.0
O116 O 0.37171 0.12471 0.0697 0.0
C117 C 0.29871 0.14832 0.04959 0.0
O118 O 0.28322 0.15655 0.06226 0.0
N119 N 0.3474 0.1543 0.09584 0.0
C120 C 0.36042 0.18925 0.12243 0.0
C121 C 0.38117 0.17032 0.11611 0.0
C122 C 0.37418 0.15279 0.10273 0.0
C123 C 0.32632 0.1703 0.10297 0.0
C124 C 0.33219 0.18751 0.11652 0.0
H125 H 0.39132 0.14102 0.09689 0.0
H126 H 0.30561 0.17209 0.09698 0.0
H127 H 0.40197 0.17298 0.07393 0.0
H128 H 0.36239 0.24539 0.05302 0.0
H129 H 0.28961 0.05028 0.07211 0.0
H130 H 0.40328 0.17136 0.12031 0.0
H131 H 0.31568 0.20214 0.12084 0.0
C132 C 0.04813 0.88904 0.19718 0.0
C133 C 0.03076 0.86511 0.19757 0.0
N134 N 0.0436 0.84385 0.18903 0.0
N135 N 0.07222 0.88315 0.18859 0.0
C136 C 0.06859 0.85543 0.18359 0.0
H137 H 0.04332 0.90942 0.20292 0.0
Co138 Co 0.10338 0.90895 0.18532 0.0
C139 C 0.15237 0.87281 0.17524 0.0
O140 O 0.16205 0.89344 0.16575 0.0
N141 N 0.13517 0.93503 0.18226 0.0
C142 C 0.1781 0.95524 0.18649 0.0
C143 C 0.15805 0.93636 0.19251 0.0
C144 C 0.14217 0.95373 0.17005 0.0
N145 N 0.16826 0.96622 0.17223 0.0
O146 O 0.10987 0.91067 0.20858 0.0
H147 H 0.16087 0.92324 0.20334 0.0
H148 H 0.12904 0.95746 0.15939 0.0
O149 O 0.12901 0.87618 0.18323 0.0
C150 C 0.09686 0.93312 0.21363 0.0
O151 O 0.08189 0.94828 0.20304 0.0
N152 N 0.09454 0.90995 0.16309 0.0
C153 C 0.07156 0.92095 0.13198 0.0
C154 C 0.08582 0.89476 0.13535 0.0
C155 C 0.09746 0.88976 0.15101 0.0
C156 C 0.08001 0.93476 0.1602 0.0
C157 C 0.06995 0.9414 0.14465 0.0
H158 H 0.10756 0.86934 0.15355 0.0
H159 H 0.07724 0.95013 0.17006 0.0
H160 H 0.0841 0.84376 0.1763 0.0
H161 H 0.01008 0.86358 0.20359 0.0
H162 H 0.1989 0.95935 0.19195 0.0
H163 H 0.08705 0.87774 0.1263 0.0
H164 H 0.06049 0.96239 0.14288 0.0
C165 C 0.34565 0.8035 0.40651 0.0
C166 C 0.36782 0.7846 0.40964 0.0
N167 N 0.39 0.79922 0.4164 0.0
N168 N 0.35361 0.83011 0.41116 0.0
C169 C 0.38048 0.82674 0.41735 0.0
H170 H 0.32518 0.79827 0.40092 0.0
Co171 Co 0.3321 0.86403 0.40847 0.0
C172 C 0.37441 0.90856 0.40038 0.0
O173 O 0.35554 0.9207 0.39056 0.0
N174 N 0.3104 0.8989 0.40627 0.0
C175 C 0.29512 0.94285 0.413 0.0
C176 C 0.31268 0.92049 0.41738 0.0
C177 C 0.29111 0.90911 0.39513 0.0
N178 N 0.28151 0.93571 0.39899 0.0
O179 O 0.32887 0.86702 0.43163 0.0
H180 H 0.32683 0.92034 0.42793 0.0
H181 H 0.28392 0.89769 0.38436 0.0
O182 O 0.36745 0.88606 0.40841 0.0
C183 C 0.30364 0.85874 0.43538 0.0
O184 O 0.28638 0.84994 0.42359 0.0
N185 N 0.33324 0.85832 0.38576 0.0
C186 C 0.33011 0.82977 0.35559 0.0
C187 C 0.35657 0.84033 0.36154 0.0
C188 C 0.35767 0.85467 0.37668 0.0
C189 C 0.30747 0.84896 0.37992 0.0
C190 C 0.30516 0.83629 0.36452 0.0
H191 H 0.37848 0.85981 0.3818 0.0
H192 H 0.28874 0.84956 0.38777 0.0
H193 H 0.39285 0.8443 0.42233 0.0
H194 H 0.36736 0.7618 0.40705 0.0
H195 H 0.293 0.96307 0.4195 0.0
H196 H 0.37662 0.83531 0.35544 0.0
H197 H 0.28412 0.82936 0.36041 0.0
C198 C 0.4708 0.10935 0.68344 0.0
C199 C 0.49083 0.13103 0.68577 0.0
N200 N 0.48402 0.15328 0.67587 0.0
N201 N 0.4513 0.11789 0.67218 0.0
C202 C 0.46031 0.14441 0.66774 0.0
H203 H 0.46989 0.08928 0.69009 0.0
Co204 Co 0.41578 0.10172 0.6656 0.0
C205 C 0.38464 0.15384 0.67685 0.0
O206 O 0.37224 0.14052 0.68916 0.0
N207 N 0.38002 0.0866 0.6588 0.0
C208 C 0.33473 0.08274 0.65025 0.0
C209 C 0.35564 0.10135 0.65546 0.0
C210 C 0.37337 0.05896 0.65511 0.0
N211 N 0.34585 0.05608 0.65001 0.0
O212 O 0.40597 0.09439 0.688 0.0
H213 H 0.35304 0.12434 0.65605 0.0
H214 H 0.38844 0.0413 0.65591 0.0
O215 O 0.40014 0.14014 0.66656 0.0
C216 C 0.41136 0.06806 0.691 0.0
O217 O 0.42392 0.05253 0.67957 0.0
N218 N 0.42635 0.10516 0.64369 0.0
C219 C 0.4532 0.10031 0.61322 0.0
C220 C 0.44125 0.12673 0.6184 0.0
C221 C 0.42713 0.12853 0.6336 0.0
C222 C 0.43579 0.07913 0.63836 0.0
C223 C 0.44828 0.076 0.62299 0.0
H224 H 0.41851 0.14896 0.6376 0.0
H225 H 0.43453 0.06073 0.64641 0.0
H226 H 0.44861 0.15778 0.65932 0.0
H227 H 0.50849 0.13058 0.69444 0.0
H228 H 0.31329 0.08856 0.64624 0.0
H229 H 0.44412 0.14622 0.61136 0.0
H230 H 0.45545 0.05481 0.61931 0.0
C231 C 0.16248 0.22057 0.92183 0.0
C232 C 0.14187 0.24061 0.92624 0.0
N233 N 0.11708 0.22663 0.92933 0.0
N234 N 0.15072 0.19408 0.92213 0.0
C235 C 0.12328 0.19854 0.92715 0.0
H236 H 0.18408 0.22516 0.91769 0.0
Co237 Co 0.16704 0.15965 0.91408 0.0
C238 C 0.1079 0.1365 0.90533 0.0
O239 O 0.10952 0.1417 0.88952 0.0
N240 N 0.18282 0.12446 0.9062 0.0
C241 C 0.18701 0.08246 0.89325 0.0
C242 C 0.16883 0.1044 0.89717 0.0
C243 C 0.21005 0.11403 0.90735 0.0
N244 N 0.21296 0.08841 0.89962 0.0
O245 O 0.17386 0.14756 0.93609 0.0
H246 H 0.14707 0.1055 0.89293 0.0
H247 H 0.22755 0.12517 0.91336 0.0
O248 O 0.12906 0.14145 0.91492 0.0
C249 C 0.19891 0.1557 0.94039 0.0
O250 O 0.21445 0.1705 0.92992 0.0
N251 N 0.16361 0.17345 0.89228 0.0
C252 C 0.1678 0.19923 0.86148 0.0
C253 C 0.14253 0.20168 0.87072 0.0
C254 C 0.14123 0.18944 0.88635 0.0
C255 C 0.18865 0.17181 0.8835 0.0
C256 C 0.19113 0.18434 0.86802 0.0
H257 H 0.12232 0.19324 0.89374 0.0
H258 H 0.20754 0.16208 0.88881 0.0
H259 H 0.10747 0.18172 0.92851 0.0
H260 H 0.14442 0.26374 0.92607 0.0
H261 H 0.18184 0.06407 0.88562 0.0
H262 H 0.12459 0.21439 0.86629 0.0
H263 H 0.21144 0.18338 0.86152 0.0
C264 C 0.92282 0.88795 0.69373 0.0
C265 C 0.93776 0.86308 0.69702 0.0
N266 N 0.93919 0.84715 0.68316 0.0
N267 N 0.91437 0.88797 0.67787 0.0
C268 C 0.92477 0.86284 0.67176 0.0
H269 H 0.91893 0.90511 0.70241 0.0
Co270 Co 0.89579 0.91847 0.66668 0.0
C271 C 0.85022 0.87435 0.65202 0.0
O272 O 0.82637 0.88419 0.64545 0.0
N273 N 0.878 0.94913 0.65549 0.0
C274 C 0.87358 0.99307 0.64513 0.0
C275 C 0.89205 0.97385 0.65226 0.0
C276 C 0.85073 0.95393 0.65018 0.0
N277 N 0.84755 0.98067 0.64384 0.0
O278 O 0.87166 0.92603 0.68521 0.0
H279 H 0.91427 0.97804 0.65528 0.0
H280 H 0.83333 0.93872 0.65147 0.0
O281 O 0.86848 0.89194 0.65789 0.0
C282 C 0.88285 0.94776 0.69232 0.0
O283 O 0.90774 0.95736 0.68703 0.0
N284 N 0.92055 0.9138 0.64922 0.0
C285 C 0.96262 0.91782 0.62504 0.0
C286 C 0.93719 0.90201 0.62224 0.0
C287 C 0.91602 0.90082 0.63441 0.0
C288 C 0.94513 0.9286 0.65229 0.0
C289 C 0.96591 0.93175 0.64026 0.0
H290 H 0.89625 0.88953 0.63187 0.0
H291 H 0.94797 0.93911 0.66406 0.0
H292 H 0.9224 0.8566 0.65902 0.0
H293 H 0.9468 0.85737 0.70882 0.0
H294 H 0.87889 0.01463 0.64117 0.0
H295 H 0.93364 0.89035 0.6109 0.0
H296 H 0.9843 0.94515 0.64301 0.0
C297 C 0.84954 0.20564 0.40041 0.0
C298 C 0.8692 0.22585 0.40549 0.0
N299 N 0.88758 0.2136 0.41628 0.0
N300 N 0.85562 0.1802 0.40748 0.0
C301 C 0.87745 0.18634 0.41801 0.0
H302 H 0.8339 0.2085 0.39069 0.0
Co303 Co 0.84115 0.14516 0.39849 0.0
C304 C 0.90253 0.12254 0.40799 0.0
O305 O 0.91783 0.14622 0.40825 0.0
N306 N 0.82659 0.11065 0.38921 0.0
C307 C 0.82658 0.07211 0.37294 0.0
C308 C 0.84325 0.09261 0.38032 0.0
C309 C 0.79942 0.1009 0.38658 0.0
N310 N 0.79893 0.07732 0.37673 0.0
O311 O 0.82484 0.13585 0.41939 0.0
H312 H 0.86597 0.0956 0.37811 0.0
H313 H 0.78033 0.11175 0.39096 0.0
O314 O 0.87587 0.12336 0.40418 0.0
C315 C 0.79921 0.1452 0.42095 0.0
O316 O 0.78736 0.15866 0.40848 0.0
N317 N 0.85514 0.15578 0.37754 0.0
C318 C 0.86186 0.19204 0.35068 0.0
C319 C 0.88478 0.18737 0.36168 0.0
C320 C 0.88115 0.16853 0.37489 0.0
C321 C 0.83431 0.15708 0.36573 0.0
C322 C 0.8379 0.17389 0.35179 0.0
H323 H 0.89759 0.16793 0.38416 0.0
H324 H 0.81346 0.1476 0.36778 0.0
H325 H 0.88661 0.17069 0.42626 0.0
H326 H 0.87118 0.24709 0.40026 0.0
H327 H 0.83406 0.05596 0.36434 0.0
H328 H 0.90399 0.20048 0.36141 0.0
H329 H 0.82027 0.17532 0.34313 0.0
C330 C 0.55434 0.11657 0.17725 0.0
C331 C 0.53739 0.1405 0.1792 0.0
N332 N 0.55441 0.16391 0.17949 0.0
N333 N 0.58222 0.12437 0.17655 0.0
C334 C 0.58157 0.15359 0.17777 0.0
H335 H 0.54676 0.09468 0.17601 0.0
Co336 Co 0.61121 0.09655 0.17217 0.0
C337 C 0.65394 0.14339 0.17305 0.0
O338 O 0.65959 0.13966 0.18872 0.0
N339 N 0.63923 0.06845 0.16778 0.0
C340 C 0.65892 0.02501 0.16898 0.0
C341 C 0.63908 0.0432 0.17585 0.0
C342 C 0.65946 0.0651 0.1559 0.0
N343 N 0.67167 0.03858 0.15632 0.0
O344 O 0.62461 0.09752 0.19455 0.0
H345 H 0.6243 0.0378 0.18561 0.0
H346 H 0.66384 0.08103 0.14654 0.0
O347 O 0.63681 0.12644 0.16558 0.0
C348 C 0.60872 0.08683 0.20572 0.0
O349 O 0.5813 0.08307 0.20254 0.0
N350 N 0.59727 0.09311 0.15082 0.0
C351 C 0.56595 0.08373 0.12218 0.0
C352 C 0.57721 0.11111 0.12569 0.0
C353 C 0.59297 0.11537 0.14017 0.0
C354 C 0.58759 0.06624 0.14717 0.0
C355 C 0.57264 0.06092 0.13273 0.0
H356 H 0.59986 0.13685 0.14336 0.0
H357 H 0.59023 0.04901 0.15593 0.0
H358 H 0.60038 0.16715 0.17722 0.0
H359 H 0.51413 0.14072 0.1798 0.0
H360 H 0.66306 1.00309 0.17274 0.0
H361 H 0.57214 0.12941 0.11801 0.0
H362 H 0.56468 0.0394 0.13041 0.0
C363 C 0.64956 0.78639 0.93259 0.0
C364 C 0.62549 0.76936 0.93447 0.0
N365 N 0.60303 0.78199 0.92678 0.0
N366 N 0.6425 0.80983 0.92381 0.0
C367 C 0.61416 0.80635 0.92032 0.0
H368 H 0.67065 0.78224 0.93767 0.0
Co369 Co 0.6654 0.84201 0.91864 0.0
C370 C 0.61924 0.86722 0.93773 0.0
O371 O 0.62487 0.84926 0.94975 0.0
N372 N 0.6874 0.87463 0.91353 0.0
C373 C 0.70693 0.91793 0.91641 0.0
C374 C 0.68818 0.89842 0.92305 0.0
C375 C 0.70593 0.88026 0.9011 0.0
N376 N 0.71814 0.90656 0.9026 0.0
O377 O 0.68039 0.84362 0.94047 0.0
H378 H 0.67603 0.90131 0.93426 0.0
H379 H 0.71081 0.86527 0.89131 0.0
O380 O 0.63393 0.86656 0.92449 0.0
C381 C 0.70611 0.83422 0.94049 0.0
O382 O 0.71594 0.82211 0.927 0.0
N383 N 0.6537 0.83906 0.89695 0.0
C384 C 0.64466 0.8244 0.86422 0.0
C385 C 0.62609 0.84384 0.87217 0.0
C386 C 0.6313 0.85136 0.88866 0.0
C387 C 0.67178 0.82036 0.88936 0.0
C388 C 0.6679 0.81299 0.87301 0.0
H389 H 0.617 0.86619 0.89483 0.0
H390 H 0.68927 0.81085 0.89624 0.0
H391 H 0.60183 0.82189 0.91343 0.0
H392 H 0.6247 0.74957 0.9414 0.0
H393 H 0.71164 0.93908 0.92129 0.0
H394 H 0.60768 0.85274 0.86578 0.0
H395 H 0.68229 0.79737 0.86752 0.0
C396 C 0.9645 0.09717 0.81331 0.0
C397 C 0.98203 0.12012 0.80961 0.0
N398 N 0.96561 0.14203 0.80416 0.0
N399 N 0.9368 0.10441 0.81053 0.0
C400 C 0.93857 0.13124 0.804 0.0
H401 H 0.97187 0.07706 0.81835 0.0
Co402 Co 0.90176 0.08549 0.81665 0.0
C403 C 0.89764 0.14267 0.83153 0.0
O404 O 0.92333 0.13881 0.83791 0.0
N405 N 0.86712 0.06767 0.82217 0.0
C406 C 0.82031 0.05907 0.82428 0.0
C407 C 0.84074 0.07774 0.81841 0.0
C408 C 0.86223 0.04276 0.83026 0.0
N409 N 0.83383 0.03708 0.8318 0.0
O410 O 0.88802 0.08977 0.79473 0.0
H411 H 0.83661 0.09753 0.81186 0.0
H412 H 0.87914 0.02902 0.83491 0.0
O413 O 0.88574 0.12298 0.82288 0.0
C414 C 0.89463 0.06655 0.78735 0.0
O415 O 0.91041 0.04754 0.79516 0.0
N416 N 0.91539 0.07763 0.83799 0.0
C417 C 0.94242 0.062 0.8673 0.0
C418 C 0.91966 0.08207 0.86724 0.0
C419 C 0.90543 0.08841 0.85254 0.0
C420 C 0.93376 0.05489 0.8382 0.0
C421 C 0.94728 0.04649 0.85269 0.0
H422 H 0.88725 0.10285 0.85286 0.0
H423 H 0.93829 0.04346 0.82691 0.0
H424 H 0.91987 0.14352 0.80047 0.0
H425 H 1.00505 0.12079 0.81147 0.0
H426 H 0.79725 0.06191 0.82346 0.0
H427 H 0.9134 0.09389 0.8781 0.0
H428 H 0.96217 0.02868 0.8521 0.0
C429 C 0.66371 0.23159 0.55848 0.0
C430 C 0.64004 0.24925 0.55702 0.0
N431 N 0.61714 0.23312 0.5527 0.0
N432 N 0.656 0.20429 0.5551 0.0
C433 C 0.62757 0.20601 0.55139 0.0
H434 H 0.6849 0.23799 0.56258 0.0
Co435 Co 0.67949 0.1716 0.55842 0.0
C436 C 0.63462 0.12724 0.55542 0.0
O437 O 0.64869 0.1124 0.54427 0.0
N438 N 0.70262 0.1387 0.5619 0.0
C439 C 0.73718 0.10606 0.55895 0.0
C440 C 0.72416 0.12962 0.55208 0.0
C441 C 0.7032 0.12026 0.57482 0.0
N442 N 0.72415 0.10017 0.57331 0.0
O443 O 0.67931 0.16384 0.53514 0.0
H444 H 0.73091 0.1399 0.54086 0.0
H445 H 0.68896 0.12194 0.5853 0.0
O446 O 0.64577 0.14954 0.56181 0.0
C447 C 0.69759 0.18002 0.52803 0.0
O448 O 0.71007 0.20015 0.53687 0.0
N449 N 0.68183 0.18068 0.58072 0.0
C450 C 0.69036 0.20564 0.6115 0.0
C451 C 0.66269 0.19715 0.6064 0.0
C452 C 0.65887 0.18464 0.5909 0.0
C453 C 0.70893 0.18742 0.58578 0.0
C454 C 0.71375 0.19942 0.60123 0.0
H455 H 0.63732 0.18006 0.58669 0.0
H456 H 0.72682 0.18463 0.57744 0.0
H457 H 0.61456 0.18764 0.54808 0.0
H458 H 0.63951 0.27201 0.55981 0.0
H459 H 0.75584 0.095 0.5541 0.0
H460 H 0.64388 0.20199 0.61373 0.0
H461 H 0.73549 0.20517 0.60471 0.0
C462 C 0.62969 0.83885 0.2834 0.0
C463 C 0.618 0.81182 0.28158 0.0
N464 N 0.59053 0.81239 0.28689 0.0
N465 N 0.60983 0.85675 0.28981 0.0
C466 C 0.5861 0.83998 0.29166 0.0
H467 H 0.65168 0.84482 0.28076 0.0
Co468 Co 0.6165 0.89528 0.29654 0.0
C469 C 0.66023 0.88878 0.32305 0.0
O470 O 0.64816 0.90912 0.33193 0.0
N471 N 0.6233 0.93422 0.30304 0.0
C472 C 0.61755 0.97954 0.31139 0.0
C473 C 0.60392 0.95549 0.30539 0.0
C474 C 0.64888 0.94701 0.30643 0.0
N475 N 0.6459 0.97401 0.31243 0.0
O476 O 0.64065 0.90236 0.27822 0.0
H477 H 0.58114 0.95402 0.30312 0.0
H478 H 0.6693 0.93603 0.30545 0.0
O479 O 0.64938 0.88173 0.30918 0.0
C480 C 0.62669 0.90881 0.2653 0.0
O481 O 0.59961 0.90084 0.26436 0.0
N482 N 0.59118 0.88975 0.31403 0.0
C483 C 0.54845 0.88982 0.33774 0.0
C484 C 0.57421 0.87495 0.3405 0.0
C485 C 0.59512 0.87446 0.32819 0.0
C486 C 0.56515 0.9016 0.3106 0.0
C487 C 0.5437 0.90252 0.32238 0.0
H488 H 0.6141 0.8616 0.3301 0.0
H489 H 0.56128 0.91083 0.29861 0.0
H490 H 0.56603 0.84768 0.29671 0.0
H491 H 0.62938 0.79293 0.27732 0.0
H492 H 0.60714 0.99937 0.31501 0.0
H493 H 0.57798 0.86365 0.35193 0.0
H494 H 0.52385 0.9137 0.31958 0.0
C495 C 0.87373 0.80907 0.06053 0.0
C496 C 0.89625 0.79061 0.05716 0.0
N497 N 0.91943 0.80631 0.0529 0.0
N498 N 0.88251 0.83645 0.05848 0.0
C499 C 0.9103 0.83395 0.05352 0.0
H500 H 0.85259 0.80294 0.06479 0.0
Co501 Co 0.86123 0.87012 0.06361 0.0
C502 C 0.91066 0.90977 0.05875 0.0
O503 O 0.89983 0.92316 0.04597 0.0
N504 N 0.84019 0.90476 0.06878 0.0
C505 C 0.81908 0.9475 0.06546 0.0
C506 C 0.83575 0.92673 0.05821 0.0
C507 C 0.82601 0.91336 0.0826 0.0
N508 N 0.81277 0.93921 0.08088 0.0
O509 O 0.85863 0.87832 0.04074 0.0
H510 H 0.84364 0.92776 0.04575 0.0
H511 H 0.82545 0.90111 0.09384 0.0
O512 O 0.89649 0.89028 0.06609 0.0
C513 C 0.83445 0.86789 0.0364 0.0
O514 O 0.81833 0.8553 0.0475 0.0
N515 N 0.86133 0.85932 0.08552 0.0
C516 C 0.85639 0.82657 0.1138 0.0
C517 C 0.88207 0.84129 0.11045 0.0
C518 C 0.88418 0.85766 0.09605 0.0
C519 C 0.83583 0.84656 0.08921 0.0
C520 C 0.8327 0.83058 0.10344 0.0
H521 H 0.90465 0.86704 0.09286 0.0
H522 H 0.81824 0.8476 0.08053 0.0
H523 H 0.92377 0.85202 0.05043 0.0
H524 H 0.89588 0.76746 0.05846 0.0
H525 H 0.8116 0.96688 0.0595 0.0
H526 H 0.9009 0.83827 0.1181 0.0
H527 H 0.81254 0.8196 0.10568 0.0
C528 C 0.55169 0.61633 0.80523 0.0
C529 C 0.53353 0.63946 0.80274 0.0
N530 N 0.54403 0.66232 0.81103 0.0
N531 N 0.57369 0.6246 0.81495 0.0
C532 C 0.56801 0.65251 0.81849 0.0
H533 H 0.54964 0.5953 0.79968 0.0
Co534 Co 0.60799 0.60495 0.82016 0.0
C535 C 0.62767 0.65469 0.80193 0.0
O536 O 0.61256 0.64554 0.7893 0.0
N537 N 0.64248 0.5862 0.82532 0.0
C538 C 0.68691 0.56916 0.82265 0.0
C539 C 0.66625 0.58657 0.81581 0.0
C540 C 0.6493 0.56858 0.83796 0.0
N541 N 0.67621 0.55795 0.83659 0.0
O542 O 0.61092 0.59071 0.79808 0.0
H543 H 0.66824 0.59842 0.80444 0.0
H544 H 0.63474 0.56293 0.84778 0.0
O545 O 0.62926 0.63943 0.81494 0.0
C546 C 0.60425 0.56414 0.79768 0.0
O547 O 0.59604 0.55178 0.81141 0.0
N548 N 0.60346 0.61566 0.84198 0.0
C549 C 0.58312 0.62466 0.87363 0.0
C550 C 0.60079 0.64529 0.86608 0.0
C551 C 0.61142 0.64005 0.8502 0.0
C552 C 0.58711 0.59526 0.84937 0.0
C553 C 0.57724 0.59901 0.86529 0.0
H554 H 0.62433 0.65625 0.84421 0.0
H555 H 0.5809 0.57627 0.84254 0.0
H556 H 0.58249 0.66612 0.82538 0.0
H557 H 0.51454 0.63955 0.79504 0.0
H558 H 0.70823 0.56518 0.81782 0.0
H559 H 0.60522 0.66561 0.8721 0.0
H560 H 0.56309 0.58292 0.8705 0.0
C561 C 0.6155 0.33963 0.03025 0.0
C562 C 0.58926 0.32651 0.02852 0.0
N563 N 0.58302 0.31224 0.04248 0.0
N564 N 0.62667 0.3336 0.04518 0.0
C565 C 0.60625 0.31675 0.05233 0.0
H566 H 0.62518 0.35359 0.02123 0.0
Co567 Co 0.66129 0.35002 0.0538 0.0
C568 C 0.64573 0.4106 0.05064 0.0
O569 O 0.66985 0.41754 0.04328 0.0
N570 N 0.69501 0.36638 0.06236 0.0
C571 C 0.7415 0.37406 0.06672 0.0
C572 C 0.72171 0.35769 0.05834 0.0
C573 C 0.69908 0.38783 0.07344 0.0
N574 N 0.72734 0.39311 0.07627 0.0
O575 O 0.67385 0.36069 0.03243 0.0
H576 H 0.72652 0.34051 0.04981 0.0
H577 H 0.68163 0.39912 0.07942 0.0
O578 O 0.64127 0.38523 0.05586 0.0
C579 C 0.68557 0.34125 0.02373 0.0
O580 O 0.68413 0.31443 0.0287 0.0
N581 N 0.65154 0.33856 0.07474 0.0
C582 C 0.64768 0.31506 0.10588 0.0
C583 C 0.63114 0.33926 0.10179 0.0
C584 C 0.63369 0.35111 0.08601 0.0
C585 C 0.66708 0.31474 0.0785 0.0
C586 C 0.66566 0.30276 0.09404 0.0
H587 H 0.62144 0.37009 0.08289 0.0
H588 H 0.68104 0.30532 0.06932 0.0
H589 H 0.60785 0.30877 0.06475 0.0
H590 H 0.57576 0.32799 0.01773 0.0
H591 H 0.76461 0.37226 0.06559 0.0
H592 H 0.61672 0.34888 0.11069 0.0
H593 H 0.67821 0.28369 0.09673 0.0
C594 C 0.95586 0.44171 0.31813 0.0
C595 C 0.97544 0.42033 0.3145 0.0
N596 N 0.96539 0.39502 0.32027 0.0
N597 N 0.93336 0.4302 0.32613 0.0
C598 C 0.93991 0.40182 0.32735 0.0
H599 H 0.95751 0.46411 0.31471 0.0
Co600 Co 0.8993 0.44939 0.3322 0.0
C601 C 0.85881 0.40105 0.33788 0.0
O602 O 0.84516 0.4141 0.34991 0.0
N603 N 0.86434 0.46827 0.33807 0.0
C604 C 0.81879 0.48298 0.33617 0.0
C605 C 0.83988 0.46636 0.32912 0.0
C606 C 0.85735 0.4864 0.35055 0.0
N607 N 0.82979 0.49561 0.34968 0.0
O608 O 0.89121 0.45637 0.30952 0.0
H609 H 0.83742 0.45348 0.31813 0.0
H610 H 0.87208 0.49343 0.35997 0.0
O611 O 0.87965 0.41343 0.3307 0.0
C612 C 0.89427 0.48263 0.30549 0.0
O613 O 0.90232 0.50121 0.31679 0.0
N614 N 0.90923 0.44465 0.35424 0.0
C615 C 0.9371 0.44508 0.38462 0.0
C616 C 0.92374 0.41993 0.3787 0.0
C617 C 0.9099 0.42013 0.36342 0.0
C618 C 0.92158 0.46923 0.35994 0.0
C619 C 0.9345 0.47028 0.37533 0.0
H620 H 0.90184 0.40008 0.35862 0.0
H621 H 0.92194 0.48811 0.3522 0.0
H622 H 0.92604 0.38633 0.33322 0.0
H623 H 0.99512 0.4233 0.30765 0.0
H624 H 0.79694 0.4853 0.33177 0.0
H625 H 0.92587 0.39966 0.38511 0.0
H626 H 0.94403 0.49032 0.37938 0.0
C627 C 0.88934 0.69394 0.55111 0.0
C628 C 0.91269 0.71196 0.54856 0.0
N629 N 0.93601 0.70032 0.55587 0.0
N630 N 0.89789 0.67093 0.55991 0.0
C631 C 0.92628 0.67572 0.5626 0.0
H632 H 0.86769 0.69727 0.54663 0.0
Co633 Co 0.87785 0.63745 0.56689 0.0
C634 C 0.92589 0.6138 0.54889 0.0
O635 O 0.91545 0.62649 0.53577 0.0
N636 N 0.85902 0.60357 0.57374 0.0
C637 C 0.84549 0.5577 0.57365 0.0
C638 C 0.86424 0.57739 0.56719 0.0
C639 C 0.83666 0.59917 0.58413 0.0
N640 N 0.82804 0.57136 0.5843 0.0
O641 O 0.86329 0.63052 0.54528 0.0
H642 H 0.88017 0.57288 0.55787 0.0
H643 H 0.82612 0.61608 0.59097 0.0
O644 O 0.9125 0.61549 0.5626 0.0
C645 C 0.83736 0.63919 0.54561 0.0
O646 O 0.82837 0.65326 0.55865 0.0
N647 N 0.88802 0.64602 0.58851 0.0
C648 C 0.89499 0.6784 0.61697 0.0
C649 C 0.91793 0.66181 0.61082 0.0
C650 C 0.9137 0.64483 0.59666 0.0
C651 C 0.86537 0.66066 0.59497 0.0
C652 C 0.86812 0.67629 0.60938 0.0
H653 H 0.93159 0.63299 0.59154 0.0
H654 H 0.8455 0.66215 0.58816 0.0
H655 H 0.94012 0.66065 0.56878 0.0
H656 H 0.91239 0.732 0.54184 0.0
H657 H 0.8448 0.53501 0.5707 0.0
H658 H 0.93911 0.66329 0.6163 0.0
H659 H 0.85009 0.68922 0.61347 0.0
C660 C 0.55354 0.40319 0.66146 0.0
C661 C 0.53664 0.3791 0.66293 0.0
N662 N 0.55168 0.35859 0.67093 0.0
N663 N 0.5794 0.39809 0.66832 0.0
C664 C 0.5774 0.37099 0.67431 0.0
H665 H 0.54782 0.42271 0.65505 0.0
Co666 Co 0.61155 0.42244 0.66661 0.0
C667 C 0.65988 0.38114 0.67249 0.0
O668 O 0.6768 0.39901 0.68043 0.0
N669 N 0.64416 0.44705 0.66479 0.0
C670 C 0.67712 0.48025 0.67075 0.0
C671 C 0.65422 0.46492 0.6766 0.0
C672 C 0.66176 0.45208 0.65178 0.0
N673 N 0.68188 0.47234 0.65509 0.0
O674 O 0.61259 0.42613 0.69004 0.0
H675 H 0.64553 0.46738 0.68879 0.0
H676 H 0.65987 0.44124 0.64005 0.0
O677 O 0.63563 0.38944 0.66707 0.0
C678 C 0.59405 0.44496 0.69429 0.0
O679 O 0.57683 0.45518 0.68288 0.0
N680 N 0.60828 0.42054 0.64381 0.0
C681 C 0.5855 0.42047 0.61213 0.0
C682 C 0.6 0.39617 0.61825 0.0
C683 C 0.61102 0.3965 0.63427 0.0
C684 C 0.59671 0.44505 0.63758 0.0
C685 C 0.58523 0.44554 0.6218 0.0
H686 H 0.6197 0.37686 0.63931 0.0
H687 H 0.59423 0.46365 0.64547 0.0
H688 H 0.59475 0.36042 0.68075 0.0
H689 H 0.51541 0.37663 0.65768 0.0
H690 H 0.68874 0.49674 0.67741 0.0
H691 H 0.60115 0.37645 0.61118 0.0
H692 H 0.57395 0.46473 0.61793 0.0
C693 C 0.88168 0.32257 0.91318 0.0
C694 C 0.90145 0.30219 0.91785 0.0
N695 N 0.92041 0.31449 0.92824 0.0
N696 N 0.88827 0.34798 0.92026 0.0
C697 C 0.91112 0.34194 0.93003 0.0
H698 H 0.86476 0.31959 0.9042 0.0
Co699 Co 0.86966 0.38267 0.9141 0.0
C700 C 0.93106 0.40786 0.91966 0.0
O701 O 0.94727 0.38499 0.91796 0.0
N702 N 0.8509 0.41676 0.90796 0.0
C703 C 0.84299 0.45863 0.89565 0.0
C704 C 0.86336 0.43857 0.89967 0.0
C705 C 0.82261 0.42366 0.90837 0.0
N706 N 0.81739 0.44919 0.90103 0.0
O707 O 0.85778 0.3885 0.93617 0.0
H708 H 0.88548 0.43888 0.89562 0.0
H709 H 0.80605 0.40955 0.91305 0.0
O710 O 0.90385 0.40596 0.91791 0.0
C711 C 0.83635 0.37219 0.93884 0.0
O712 O 0.8273 0.35507 0.92706 0.0
N713 N 0.87872 0.37553 0.89187 0.0
C714 C 0.87961 0.34324 0.86312 0.0
C715 C 0.9051 0.34794 0.87204 0.0
C716 C 0.90427 0.36469 0.88637 0.0
C717 C 0.85483 0.37409 0.88213 0.0
C718 C 0.85518 0.35911 0.86738 0.0
H719 H 0.92304 0.36517 0.89409 0.0
H720 H 0.8343 0.38158 0.88656 0.0
H721 H 0.92136 0.35749 0.938 0.0
H722 H 0.90306 0.28063 0.9129 0.0
H723 H 0.84631 0.47754 0.88815 0.0
H724 H 0.92455 0.33612 0.86921 0.0
H725 H 0.83525 0.35676 0.86059 0.0
C726 C 0.94357 0.60097 0.18148 0.0
C727 C 0.96363 0.62199 0.18501 0.0
N728 N 0.95719 0.64577 0.17628 0.0
N729 N 0.92425 0.61134 0.17065 0.0
C730 C 0.93352 0.63853 0.1675 0.0
H731 H 0.94248 0.57987 0.187 0.0
Co732 Co 0.88955 0.59322 0.16393 0.0
C733 C 0.86922 0.64743 0.17724 0.0
O734 O 0.88204 0.64147 0.19122 0.0
N735 N 0.8546 0.57584 0.15715 0.0
C736 C 0.80775 0.56736 0.15437 0.0
C737 C 0.82809 0.5848 0.16152 0.0
C738 C 0.84969 0.55253 0.14748 0.0
N739 N 0.82127 0.54695 0.14549 0.0
O740 O 0.88032 0.5849 0.18631 0.0
H741 H 0.82365 0.60287 0.1695 0.0
H742 H 0.86657 0.53947 0.14226 0.0
O743 O 0.8704 0.62977 0.16523 0.0
C744 C 0.882 0.55841 0.19009 0.0
O745 O 0.88881 0.53968 0.17862 0.0
N746 N 0.89987 0.59867 0.14219 0.0
C747 C 0.92922 0.59999 0.11242 0.0
C748 C 0.91421 0.62442 0.11811 0.0
C749 C 0.89911 0.62315 0.13299 0.0
C750 C 0.91274 0.57449 0.13639 0.0
C751 C 0.92633 0.57428 0.12123 0.0
H752 H 0.88883 0.64237 0.13762 0.0
H753 H 0.91361 0.5555 0.14401 0.0
H754 H 0.92203 0.6535 0.15976 0.0
H755 H 0.98124 0.62002 0.19364 0.0
H756 H 0.78471 0.56989 0.15553 0.0
H757 H 0.91576 0.64489 0.11188 0.0
H758 H 0.93635 0.55452 0.11714 0.0
C759 C 0.61771 0.70229 0.4676 0.0
C760 C 0.59089 0.71481 0.46749 0.0
N761 N 0.58191 0.71723 0.45179 0.0
N762 N 0.626 0.69663 0.45203 0.0
C763 C 0.60357 0.70592 0.44271 0.0
H764 H 0.63005 0.69762 0.47851 0.0
Co765 Co 0.66066 0.67958 0.44433 0.0
C766 C 0.627 0.62889 0.4342 0.0
O767 O 0.6354 0.61301 0.44664 0.0
N768 N 0.69452 0.66297 0.43652 0.0
C769 C 0.74127 0.65803 0.43195 0.0
C770 C 0.72058 0.67434 0.43959 0.0
C771 C 0.69983 0.63972 0.42694 0.0
N772 N 0.72827 0.63615 0.42396 0.0
O773 O 0.66234 0.6543 0.46249 0.0
H774 H 0.7242 0.69362 0.44676 0.0
H775 H 0.68321 0.62574 0.4222 0.0
O776 O 0.63732 0.65389 0.43209 0.0
C777 C 0.67737 0.6654 0.4739 0.0
O778 O 0.68422 0.69274 0.4729 0.0
N779 N 0.66188 0.70512 0.42719 0.0
C780 C 0.67782 0.74544 0.40392 0.0
C781 C 0.66807 0.71817 0.39902 0.0
C782 C 0.66039 0.69807 0.41092 0.0
C783 C 0.6706 0.73161 0.43216 0.0
C784 C 0.67871 0.75216 0.42072 0.0
H785 H 0.6546 0.6766 0.40706 0.0
H786 H 0.6726 0.73621 0.44515 0.0
H787 H 0.6034 0.70483 0.42943 0.0
H788 H 0.57886 0.72126 0.47825 0.0
H789 H 0.76409 0.66252 0.43197 0.0
H790 H 0.66679 0.71228 0.38615 0.0
H791 H 0.68653 0.77276 0.42505 0.0
C792 C 0.45289 0.40552 0.1929 0.0
C793 C 0.46687 0.38049 0.19719 0.0
N794 N 0.46775 0.36293 0.18398 0.0
N795 N 0.44464 0.40392 0.17704 0.0
C796 C 0.45407 0.3777 0.17193 0.0
H797 H 0.44944 0.4239 0.20081 0.0
Co798 Co 0.42606 0.43283 0.16454 0.0
C799 C 0.38196 0.39591 0.14634 0.0
O800 O 0.37303 0.41378 0.13495 0.0
N801 N 0.40789 0.46198 0.15191 0.0
C802 C 0.40476 0.50181 0.13692 0.0
C803 C 0.4231 0.48283 0.14435 0.0
C804 C 0.38 0.46945 0.14925 0.0
N805 N 0.37756 0.49353 0.13996 0.0
O806 O 0.40044 0.44079 0.18231 0.0
H807 H 0.44626 0.48449 0.14439 0.0
H808 H 0.3619 0.45784 0.15431 0.0
O809 O 0.40116 0.40342 0.15661 0.0
C810 C 0.40853 0.46439 0.1888 0.0
O811 O 0.43172 0.4769 0.18298 0.0
N812 N 0.45249 0.42719 0.14782 0.0
C813 C 0.4946 0.43593 0.12423 0.0
C814 C 0.46793 0.42397 0.11984 0.0
C815 C 0.44698 0.41985 0.13188 0.0
C816 C 0.47874 0.43737 0.15241 0.0
C817 C 0.50009 0.44199 0.14081 0.0
H818 H 0.42607 0.41247 0.12815 0.0
H819 H 0.48234 0.44392 0.16501 0.0
H820 H 0.45098 0.36967 0.15956 0.0
H821 H 0.47634 0.37597 0.20907 0.0
H822 H 0.41109 0.52026 0.1297 0.0
H823 H 0.46303 0.41858 0.10719 0.0
H824 H 0.52016 0.45163 0.14474 0.0
C825 C 0.35254 0.69789 0.92266 0.0
C826 C 0.37448 0.717 0.92644 0.0
N827 N 0.39898 0.70757 0.91938 0.0
N828 N 0.36306 0.67641 0.91326 0.0
C829 C 0.3912 0.68335 0.91138 0.0
H830 H 0.33058 0.69925 0.92693 0.0
Co831 Co 0.34559 0.64193 0.90534 0.0
C832 C 0.39651 0.61972 0.92233 0.0
O833 O 0.38619 0.62869 0.93647 0.0
N834 N 0.32962 0.60753 0.89713 0.0
C835 C 0.32688 0.5662 0.88337 0.0
C836 C 0.345 0.58531 0.89097 0.0
C837 C 0.30203 0.60126 0.89311 0.0
N838 N 0.2999 0.5763 0.88463 0.0
O839 O 0.33171 0.63298 0.92698 0.0
H840 H 0.36817 0.5836 0.89107 0.0
H841 H 0.28407 0.61551 0.89536 0.0
O842 O 0.38155 0.62252 0.90927 0.0
C843 C 0.30582 0.64156 0.92871 0.0
O844 O 0.29368 0.65546 0.91649 0.0
N845 N 0.35564 0.65174 0.88393 0.0
C846 C 0.36098 0.67864 0.85347 0.0
C847 C 0.38519 0.66664 0.86145 0.0
C848 C 0.38186 0.65233 0.87646 0.0
C849 C 0.33178 0.66068 0.87576 0.0
C850 C 0.3338 0.67289 0.86026 0.0
H851 H 0.40057 0.64342 0.88243 0.0
H852 H 0.31097 0.65916 0.88161 0.0
H853 H 0.40618 0.67037 0.90459 0.0
H854 H 0.37263 0.73576 0.93425 0.0
H855 H 0.33316 0.54667 0.87706 0.0
H856 H 0.40677 0.6695 0.85684 0.0
H857 H 0.31403 0.6792 0.85428 0.0
C858 C 0.03881 0.61034 0.65654 0.0
C859 C 0.01797 0.63061 0.6595 0.0
N860 N 0.02859 0.65054 0.6699 0.0
N861 N 0.06322 0.61742 0.66459 0.0
C862 C 0.05551 0.64108 0.67345 0.0
H863 H 0.03612 0.59217 0.64845 0.0
Co864 Co 0.10052 0.59995 0.66198 0.0
C865 C 0.11325 0.66214 0.66167 0.0
O866 O 0.09238 0.66675 0.65107 0.0
N867 N 0.1369 0.58267 0.65959 0.0
C868 C 0.18331 0.57224 0.66232 0.0
C869 C 0.161 0.58891 0.6681 0.0
C870 C 0.14502 0.56189 0.64887 0.0
N871 N 0.17328 0.55526 0.65013 0.0
O872 O 0.10123 0.59163 0.68493 0.0
H873 H 0.16237 0.60481 0.67779 0.0
H874 H 0.13043 0.55173 0.64029 0.0
O875 O 0.11912 0.63661 0.6663 0.0
C876 C 0.09725 0.56491 0.68738 0.0
O877 O 0.09204 0.54827 0.67464 0.0
N878 N 0.09962 0.60532 0.63911 0.0
C879 C 0.09359 0.60285 0.60508 0.0
C880 C 0.11186 0.62327 0.61231 0.0
C881 C 0.11546 0.62343 0.62944 0.0
C882 C 0.08397 0.5839 0.63207 0.0
C883 C 0.0803 0.58246 0.61518 0.0
H884 H 0.13106 0.63788 0.63474 0.0
H885 H 0.07441 0.56754 0.63973 0.0
H886 H 0.06999 0.65211 0.68174 0.0
H887 H 0.99716 0.63133 0.65356 0.0
H888 H 0.20537 0.57319 0.66653 0.0
H889 H 0.12315 0.63884 0.60484 0.0
H890 H 0.0662 0.56609 0.61017 0.0
C891 C 0.13085 0.30647 0.44 0.0
C892 C 0.10572 0.2922 0.44386 0.0
N893 N 0.09077 0.28747 0.42991 0.0
N894 N 0.13254 0.31016 0.42356 0.0
C895 C 0.10745 0.29879 0.41791 0.0
H896 H 0.14538 0.31565 0.44893 0.0
Co897 Co 0.15586 0.33486 0.41033 0.0
C898 C 0.11082 0.36785 0.40821 0.0
O899 O 0.10956 0.3522 0.39476 0.0
N900 N 0.17614 0.35964 0.39637 0.0
C901 C 0.19141 0.37501 0.37207 0.0
C902 C 0.1734 0.3563 0.37998 0.0
C903 C 0.19557 0.38119 0.3982 0.0
N904 N 0.20541 0.39064 0.38348 0.0
O905 O 0.18287 0.34262 0.42843 0.0
H906 H 0.15962 0.34052 0.37417 0.0
H907 H 0.2031 0.38902 0.40998 0.0
O908 O 0.13268 0.36565 0.41743 0.0
C909 C 0.19753 0.32515 0.43724 0.0
O910 O 0.19426 0.29729 0.43524 0.0
N911 N 0.17867 0.30401 0.40252 0.0
C912 C 0.21016 0.26376 0.38467 0.0
C913 C 0.18057 0.26022 0.38705 0.0
C914 C 0.16515 0.2809 0.3957 0.0
C915 C 0.20786 0.30713 0.40081 0.0
C916 C 0.22398 0.28733 0.39179 0.0
H917 H 0.14213 0.27915 0.39587 0.0
H918 H 0.21866 0.32592 0.4056 0.0
H919 H 0.10089 0.30016 0.40519 0.0
H920 H 0.09816 0.28767 0.45615 0.0
H921 H 0.19413 0.37696 0.3589 0.0
H922 H 0.16904 0.24275 0.38116 0.0
H923 H 0.24671 0.29102 0.38982 0.0
C924 C 0.45146 0.58987 0.30117 0.0
C925 C 0.47307 0.60809 0.29596 0.0
N926 N 0.4665 0.63519 0.3006 0.0
N927 N 0.43109 0.60522 0.30904 0.0
C928 C 0.44099 0.63268 0.30844 0.0
H929 H 0.451 0.5668 0.29956 0.0
Co930 Co 0.39772 0.59145 0.31995 0.0
C931 C 0.35945 0.6392 0.31129 0.0
O932 O 0.34135 0.62167 0.30397 0.0
N933 N 0.36454 0.57859 0.33131 0.0
C934 C 0.33012 0.5784 0.35035 0.0
C935 C 0.34975 0.59501 0.34213 0.0
C936 C 0.35337 0.55186 0.33328 0.0
N937 N 0.33244 0.55121 0.34485 0.0
O938 O 0.38121 0.58082 0.29936 0.0
H939 H 0.35398 0.61746 0.3446 0.0
H940 H 0.36149 0.53288 0.32716 0.0
O941 O 0.38175 0.62936 0.31844 0.0
C942 C 0.38665 0.55461 0.2961 0.0
O943 O 0.40209 0.53983 0.30667 0.0
N944 N 0.41493 0.59887 0.33991 0.0
C945 C 0.44959 0.59999 0.36766 0.0
C946 C 0.43935 0.62575 0.36072 0.0
C947 C 0.42162 0.62471 0.34685 0.0
C948 C 0.42317 0.57378 0.34703 0.0
C949 C 0.43999 0.57381 0.36111 0.0
H950 H 0.41458 0.64456 0.34131 0.0
H951 H 0.4174 0.55355 0.34134 0.0
H952 H 0.43029 0.6505 0.3142 0.0
H953 H 0.49218 0.60167 0.28934 0.0
H954 H 0.3157 0.58564 0.35994 0.0
H955 H 0.44624 0.6465 0.3653 0.0
H956 H 0.4465 0.55342 0.36633 0.0
C957 C 0.1659 0.72588 0.05762 0.0
C958 C 0.14443 0.74467 0.05302 0.0
N959 N 0.12249 0.72956 0.04648 0.0
N960 N 0.15764 0.69861 0.05438 0.0
C961 C 0.13188 0.70194 0.0466 0.0
H962 H 0.18536 0.73211 0.06388 0.0
Co963 Co 0.17346 0.66262 0.06205 0.0
C964 C 0.11336 0.66239 0.07297 0.0
O965 O 0.11755 0.68822 0.07913 0.0
N966 N 0.18817 0.62704 0.06925 0.0
C967 C 0.19285 0.58009 0.0735 0.0
C968 C 0.17646 0.60109 0.06614 0.0
C969 C 0.21178 0.62125 0.07847 0.0
N970 N 0.2151 0.59275 0.08131 0.0
O971 O 0.173 0.64866 0.0398 0.0
H972 H 0.15713 0.59764 0.059 0.0
H973 H 0.22641 0.63761 0.08288 0.0
O974 O 0.13419 0.64889 0.06613 0.0
C975 C 0.19909 0.64957 0.03493 0.0
O976 O 0.21883 0.65918 0.04511 0.0
N977 N 0.17802 0.67664 0.08353 0.0
C978 C 0.19223 0.70387 0.11289 0.0
C979 C 0.16993 0.68346 0.11238 0.0
C980 C 0.16403 0.66902 0.09764 0.0
C981 C 0.20222 0.69293 0.08446 0.0
C982 C 0.20982 0.70668 0.09899 0.0
H983 H 0.14773 0.65251 0.09755 0.0
H984 H 0.21542 0.69572 0.07365 0.0
H985 H 0.11901 0.684 0.0424 0.0
H986 H 0.14415 0.76749 0.05564 0.0
H987 H 0.18838 0.55726 0.07331 0.0
H988 H 0.15642 0.67945 0.12295 0.0
H989 H 0.22865 0.72035 0.09906 0.0
C990 C 0.05161 0.38702 0.78683 0.0
C991 C 0.03694 0.36224 0.78287 0.0
N992 N 0.0282 0.34951 0.79685 0.0
N993 N 0.0515 0.39084 0.80331 0.0
C994 C 0.0374 0.36729 0.80898 0.0
H995 H 0.06425 0.39932 0.77823 0.0
Co996 Co 0.07704 0.41262 0.81676 0.0
C997 C 0.10669 0.36551 0.8198 0.0
O998 O 0.08935 0.36529 0.83254 0.0
N999 N 0.10243 0.43111 0.83107 0.0
C1000 C 0.1177 0.44301 0.85597 0.0
C1001 C 0.09781 0.42765 0.84727 0.0
C1002 C 0.12575 0.4485 0.83015 0.0
N1003 N 0.13555 0.45616 0.8453 0.0
O1004 O 0.08699 0.43849 0.7985 0.0
H1005 H 0.08044 0.4151 0.8524 0.0
H1006 H 0.13515 0.45541 0.81866 0.0
O1007 O 0.10655 0.3871 0.81034 0.0
C1008 C 0.06923 0.45238 0.78944 0.0
O1009 O 0.0414 0.44887 0.79147 0.0
N1010 N 0.04775 0.4381 0.82398 0.0
C1011 C 0.01216 0.4744 0.84219 0.0
C1012 C 1.00541 0.44517 0.84023 0.0
C1013 C 0.02373 0.42732 0.83128 0.0
C1014 C 0.05362 0.46696 0.82502 0.0
C1015 C 0.03607 0.48544 0.83401 0.0
H1016 H 0.01973 0.40456 0.83141 0.0
H1017 H 0.0732 0.47565 0.81992 0.0
H1018 H 0.03619 0.362 0.82189 0.0
H1019 H 0.03546 0.35296 0.77069 0.0
H1020 H 0.11827 0.4448 0.86922 0.0
H1021 H 0.98762 0.43557 0.84683 0.0
H1022 H 0.04227 0.50775 0.83548 0.0
C1023 C 0.36537 0.31236 0.54706 0.0
C1024 C 0.38859 0.29424 0.54482 0.0
N1025 N 0.41195 0.30594 0.55213 0.0
N1026 N 0.37382 0.33556 0.55572 0.0
C1027 C 0.40215 0.33087 0.5587 0.0
H1028 H 0.34387 0.30916 0.54232 0.0
Co1029 Co 0.35187 0.36848 0.56096 0.0
C1030 C 0.39653 0.41285 0.56739 0.0
O1031 O 0.38064 0.42584 0.57851 0.0
N1032 N 0.33014 0.40233 0.56603 0.0
C1033 C 0.31234 0.44651 0.56292 0.0
C1034 C 0.33028 0.426 0.55642 0.0
C1035 C 0.31165 0.40922 0.57837 0.0
N1036 N 0.3005 0.43599 0.57675 0.0
O1037 O 0.34474 0.37459 0.53789 0.0
H1038 H 0.34303 0.42842 0.5454 0.0
H1039 H 0.306 0.39498 0.58829 0.0
O1040 O 0.38686 0.39075 0.55994 0.0
C1041 C 0.31861 0.36825 0.53471 0.0
O1042 O 0.30209 0.35948 0.5468 0.0
N1043 N 0.35616 0.35977 0.58322 0.0
C1044 C 0.35555 0.3294 0.61277 0.0
C1045 C 0.3802 0.34477 0.6079 0.0
C1046 C 0.38003 0.36007 0.59305 0.0
C1047 C 0.33194 0.34587 0.5881 0.0
C1048 C 0.33074 0.3317 0.60306 0.0
H1049 H 0.3997 0.37006 0.58901 0.0
H1050 H 0.31356 0.345 0.57995 0.0
H1051 H 0.41544 0.34566 0.56551 0.0
H1052 H 0.38821 0.27435 0.53792 0.0
H1053 H 0.30877 0.46776 0.55794 0.0
H1054 H 0.40005 0.34342 0.61483 0.0
H1055 H 0.31086 0.32117 0.60645 0.0
H1056 H 0.23504 0.28077 0.35624 0.0
H1057 H 0.2159 0.20578 0.38531 0.0
H1058 H 0.23976 0.25057 0.33177 0.0
H1059 H 0.22069 0.17559 0.36106 0.0
H1060 H 0.15939 0.20063 0.30618 0.0
H1061 H 0.19229 0.2306 0.3218 0.0
H1062 H 0.24212 0.15555 0.33479 0.0
H1063 H 0.20917 0.12552 0.31886 0.0
C1064 C 0.23354 0.25764 0.35755 0.0
C1065 C 0.22468 0.24545 0.37248 0.0
C1066 C 0.23617 0.24039 0.34356 0.0
C1067 C 0.23006 0.21085 0.34445 0.0
C1068 C 0.22565 0.19826 0.35995 0.0
C1069 C 0.22272 0.21551 0.37387 0.0
C1070 C 0.17827 0.1908 0.31162 0.0
C1071 C 0.18155 0.16086 0.31161 0.0
C1072 C 0.1973 0.20796 0.32051 0.0
C1073 C 0.21951 0.19529 0.32976 0.0
C1074 C 0.22508 0.16578 0.32783 0.0
C1075 C 0.20625 0.14863 0.31868 0.0
H1076 H 0.02052 0.92364 0.63111 0.0
H1077 H 0.95973 0.91222 0.59111 0.0
H1078 H 0.05958 0.91694 0.61237 0.0
H1079 H 0.99992 0.90245 0.57259 0.0
H1080 H 0.0757 0.82525 0.57773 0.0
H1081 H 0.03281 0.8546 0.58081 0.0
H1082 H 0.08535 0.93103 0.58305 0.0
H1083 H 0.12855 0.90159 0.57921 0.0
C1084 C 0.01516 0.92077 0.61828 0.0
C1085 C 0.98649 0.91812 0.61284 0.0
C1086 C 0.03788 0.91693 0.60747 0.0
C1087 C 0.03264 0.90934 0.59108 0.0
C1088 C 1.00431 0.90855 0.58521 0.0
C1089 C 0.98137 0.91346 0.59595 0.0
C1090 C 0.078 0.84841 0.57814 0.0
C1091 C 0.10525 0.86122 0.57858 0.0
C1092 C 0.05345 0.86524 0.57966 0.0
C1093 C 0.05596 0.89496 0.58216 0.0
C1094 C 0.08304 0.90813 0.58094 0.0
C1095 C 0.10764 0.8913 0.57894 0.0
H1096 H 0.40705 0.68778 0.83202 0.0
H1097 H 0.32197 0.72054 0.84384 0.0
H1098 H 0.416 0.7313 0.81621 0.0
H1099 H 0.33047 0.76141 0.82681 0.0
H1100 H 0.36288 0.82994 0.78741 0.0
H1101 H 0.35602 0.7783 0.79286 0.0
H1102 H 0.4061 0.78627 0.8373 0.0
H1103 H 0.41171 0.83744 0.83247 0.0
C1104 C 0.38992 0.7034 0.83106 0.0
C1105 C 0.36399 0.70029 0.83991 0.0
C1106 C 0.39499 0.72804 0.82165 0.0
C1107 C 0.37376 0.7493 0.82032 0.0
C1108 C 0.3469 0.74491 0.82748 0.0
C1109 C 0.34215 0.72099 0.83732 0.0
C1110 C 0.37246 0.82051 0.79828 0.0
C1111 C 0.38748 0.8377 0.80963 0.0
C1112 C 0.36885 0.7911 0.80125 0.0
C1113 C 0.3812 0.77856 0.81525 0.0
C1114 C 0.397 0.79554 0.82624 0.0
C1115 C 0.39981 0.82488 0.82357 0.0
H1116 H 0.40363 0.04715 0.07836 0.0
H1117 H 0.42591 0.13407 0.06506 0.0
H1118 H 0.45421 0.03632 0.08281 0.0
H1119 H 0.47597 0.12436 0.07119 0.0
H1120 H 0.56341 0.10603 0.09074 0.0
H1121 H 0.52245 0.10356 0.07174 0.0
H1122 H 0.47655 0.05128 0.10696 0.0
H1123 H 0.51668 0.05347 0.12535 0.0
C1124 C 0.41941 0.06382 0.07612 0.0
C1125 C 0.41077 0.09188 0.07227 0.0
C1126 C 0.44838 0.05771 0.07876 0.0
C1127 C 0.46896 0.07989 0.07828 0.0
C1128 C 0.46075 0.10681 0.072 0.0
C1129 C 0.43184 0.11258 0.06873 0.0
C1130 C 0.54468 0.09359 0.09415 0.0
C1131 C 0.54341 0.07977 0.10949 0.0
C1132 C 0.52128 0.09211 0.08329 0.0
C1133 C 0.4962 0.07698 0.08769 0.0
C1134 C 0.49566 0.06233 0.10277 0.0
C1135 C 0.51884 0.06371 0.11347 0.0
H1136 H 0.20874 0.75984 0.11105 0.0
H1137 H 0.1812 0.69562 0.14613 0.0
H1138 H 0.20737 0.79588 0.13202 0.0
H1139 H 0.17883 0.73294 0.16741 0.0
H1140 H 0.12777 0.82029 0.18098 0.0
H1141 H 0.14549 0.77448 0.17061 0.0
H1142 H 0.22607 0.81473 0.15766 0.0
H1143 H 0.20763 0.86088 0.16711 0.0
C1144 C 0.20338 0.753 0.12338 0.0
C1145 C 0.19519 0.72453 0.12678 0.0
C1146 C 0.20258 0.77394 0.13552 0.0
C1147 C 0.19322 0.76727 0.15145 0.0
C1148 C 0.18613 0.73865 0.1552 0.0
C1149 C 0.18728 0.71738 0.14298 0.0
C1150 C 0.14948 0.81921 0.17627 0.0
C1151 C 0.16587 0.84428 0.17411 0.0
C1152 C 0.15981 0.79284 0.17052 0.0
C1153 C 0.18684 0.79125 0.16286 0.0
C1154 C 0.20481 0.81555 0.16308 0.0
C1155 C 0.19425 0.84195 0.16846 0.0
H1156 H 0.55627 0.90265 0.37035 0.0
H1157 H 0.49089 0.88314 0.33416 0.0
H1158 H 0.51845 0.91369 0.39058 0.0
H1159 H 0.45371 0.895 0.35402 0.0
H1160 H 0.39743 0.95038 0.3811 0.0
H1161 H 0.44541 0.94897 0.36931 0.0
H1162 H 0.46902 0.8806 0.40242 0.0
H1163 H 0.42112 0.88221 0.41456 0.0
C1164 C 0.53392 0.90039 0.36681 0.0
C1165 C 0.52639 0.89252 0.35065 0.0
C1166 C 0.51248 0.90695 0.37828 0.0
C1167 C 0.48353 0.90596 0.37355 0.0
C1168 C 0.47607 0.89666 0.35771 0.0
C1169 C 0.49728 0.88984 0.34639 0.0
C1170 C 0.4131 0.93582 0.38637 0.0
C1171 C 0.4051 0.91535 0.39817 0.0
C1172 C 0.44057 0.93513 0.37965 0.0
C1173 C 0.4603 0.91418 0.38476 0.0
C1174 C 0.4539 0.89677 0.39827 0.0
C1175 C 0.42637 0.89752 0.40507 0.0
H1176 H 0.42337 0.1957 0.67053 0.0
H1177 H 0.33243 0.18019 0.67586 0.0
H1178 H 0.41353 0.24308 0.65914 0.0
H1179 H 0.32234 0.22807 0.66463 0.0
H1180 H 0.32765 0.27776 0.61427 0.0
H1181 H 0.33147 0.24088 0.63482 0.0
H1182 H 0.39122 0.29313 0.66239 0.0
H1183 H 0.38637 0.33153 0.64197 0.0
C1184 C 0.40128 0.20273 0.66951 0.0
C1185 C 0.3786 0.18425 0.67364 0.0
C1186 C 0.39565 0.23001 0.66325 0.0
C1187 C 0.36717 0.23912 0.66089 0.0
C1188 C 0.3445 0.22144 0.66627 0.0
C1189 C 0.35021 0.19418 0.67271 0.0
C1190 C 0.34073 0.28228 0.62498 0.0
C1191 C 0.35644 0.30807 0.62643 0.0
C1192 C 0.34294 0.26087 0.6368 0.0
C1193 C 0.36137 0.26425 0.65029 0.0
C1194 C 0.37674 0.2901 0.65209 0.0
C1195 C 0.37413 0.31193 0.64033 0.0
H1196 H 0.05464 0.1582 0.9077 0.0
H1197 H 0.10422 0.08098 0.91501 0.0
H1198 H 0.01045 0.13031 0.90799 0.0
H1199 H 0.05981 0.05253 0.91483 0.0
H1200 H 0.99828 0.04126 0.86704 0.0
H1201 H 0.03544 0.05164 0.88628 0.0
H1202 H 0.97417 0.09146 0.9189 0.0
H1203 H 0.93539 0.07884 0.90015 0.0
C1204 C 0.05582 0.13539 0.91026 0.0
C1205 C 0.08246 0.12156 0.91132 0.0
C1206 C 0.03055 0.11937 0.91053 0.0
C1207 C 0.03176 0.08921 0.91131 0.0
C1208 C 0.05836 0.07576 0.91429 0.0
C1209 C 0.08368 0.09195 0.91435 0.0
C1210 C 0.99171 0.05076 0.87856 0.0
C1211 C 0.96329 0.06027 0.88138 0.0
C1212 C 0.01352 0.0567 0.88976 0.0
C1213 C 1.00778 0.07285 0.90393 0.0
C1214 C 0.97914 0.07924 0.9079 0.0
C1215 C 0.957 0.07251 0.89687 0.0
H1216 H 0.86701 0.68922 0.64584 0.0
H1217 H 0.93009 0.72388 0.61248 0.0
H1218 H 0.85853 0.73742 0.65704 0.0
H1219 H 0.92136 0.77198 0.62349 0.0
H1220 H 0.8542 0.84641 0.62303 0.0
H1221 H 0.87139 0.79739 0.61826 0.0
H1222 H 0.88111 0.78517 0.67058 0.0
H1223 H 0.86481 0.83491 0.67528 0.0
C1224 C 0.88013 0.70691 0.64154 0.0
C1225 C 0.89925 0.70288 0.62833 0.0
C1226 C 0.87508 0.73449 0.64782 0.0
C1227 C 0.88882 0.75836 0.64082 0.0
C1228 C 0.91022 0.75388 0.6289 0.0
C1229 C 0.91558 0.7263 0.62281 0.0
C1230 C 0.85997 0.83318 0.63348 0.0
C1231 C 0.85844 0.84421 0.64948 0.0
C1232 C 0.87002 0.80531 0.63077 0.0
C1233 C 0.87809 0.78778 0.64406 0.0
C1234 C 0.87522 0.79838 0.66016 0.0
C1235 C 0.86595 0.82667 0.66283 0.0
H1236 H 0.96352 0.07402 0.33834 0.0
H1237 H 0.03615 0.0411 0.36544 0.0
H1238 H 0.93191 0.06166 0.361 0.0
H1239 H 1.00457 0.02912 0.38841 0.0
H1240 H 0.95893 0.11271 0.41525 0.0
H1241 H 0.98749 0.07638 0.40173 0.0
H1242 H 0.91016 0.03294 0.38593 0.0
H1243 H 0.88142 0.06825 0.40093 0.0
C1244 C 0.97239 0.0628 0.34885 0.0
C1245 C 1.00212 0.05907 0.35042 0.0
C1246 C 0.9543 0.05533 0.36179 0.0
C1247 C 0.96594 0.04491 0.37662 0.0
C1248 C 0.99512 0.03716 0.37714 0.0
C1249 C 0.01317 0.04421 0.36405 0.0
C1250 C 0.94794 0.09462 0.40966 0.0
C1251 C 0.91799 0.09478 0.40759 0.0
C1252 C 0.96438 0.07346 0.40202 0.0
C1253 C 0.95092 0.05283 0.39196 0.0
C1254 C 0.92101 0.04927 0.39316 0.0
C1255 C 0.90457 0.06997 0.40134 0.0
H1256 H 0.6498 0.15635 0.14065 0.0
H1257 H 0.66865 0.19424 0.18806 0.0
H1258 H 0.64508 0.2041 0.12885 0.0
H1259 H 0.66477 0.24236 0.17589 0.0
H1260 H 0.68915 0.30967 0.1291 0.0
H1261 H 0.69205 0.27028 0.14898 0.0
H1262 H 0.60492 0.24596 0.13709 0.0
H1263 H 0.60195 0.28551 0.11734 0.0
C1264 C 0.65345 0.17486 0.14849 0.0
C1265 C 0.65916 0.17154 0.16534 0.0
C1266 C 0.65046 0.20213 0.14176 0.0
C1267 C 0.65366 0.22664 0.15165 0.0
C1268 C 0.66173 0.22359 0.16817 0.0
C1269 C 0.66432 0.19613 0.17502 0.0
C1270 C 0.67015 0.29683 0.13145 0.0
C1271 C 0.64532 0.30042 0.1218 0.0
C1272 C 0.67187 0.27432 0.14273 0.0
C1273 C 0.64888 0.25506 0.14425 0.0
C1274 C 0.62293 0.26061 0.13596 0.0
C1275 C 0.62111 0.28331 0.12483 0.0
H1276 H 0.60915 0.9221 0.92881 0.0
H1277 H 0.56711 0.84392 0.944 0.0
H1278 H 0.56401 0.93951 0.91725 0.0
H1279 H 0.52228 0.86042 0.93152 0.0
H1280 H 0.4459 0.89987 0.90269 0.0
H1281 H 0.48094 0.89483 0.92528 0.0
H1282 H 0.54963 0.91535 0.89155 0.0
H1283 H 0.5155 0.91986 0.86944 0.0
C1284 C 0.58987 0.90926 0.93028 0.0
C1285 C 0.5914 0.88168 0.93703 0.0
C1286 C 0.56413 0.91906 0.9236 0.0
C1287 C 0.53998 0.90087 0.92303 0.0
C1288 C 0.54055 0.87486 0.93177 0.0
C1289 C 0.56621 0.8654 0.93889 0.0
C1290 C 0.46852 0.90339 0.90025 0.0
C1291 C 0.47792 0.91085 0.8844 0.0
C1292 C 0.48844 0.90072 0.91314 0.0
C1293 C 0.51785 0.90567 0.91028 0.0
C1294 C 0.52701 0.91264 0.89435 0.0
C1295 C 0.50739 0.9151 0.88162 0.0
H1296 H 0.8822 0.16889 0.8595 0.0
H1297 H 0.88696 0.18066 0.80697 0.0
H1298 H 0.87259 0.22019 0.86304 0.0
H1299 H 0.87871 0.2325 0.81056 0.0
H1300 H 0.91763 0.31941 0.8408 0.0
H1301 H 0.91528 0.27042 0.82951 0.0
H1302 H 0.83198 0.25865 0.85174 0.0
H1303 H 0.83418 0.30655 0.86317 0.0
C1304 C 0.88032 0.18243 0.84872 0.0
C1305 C 0.88485 0.17111 0.833 0.0
C1306 C 0.87505 0.21164 0.85072 0.0
C1307 C 0.87505 0.22999 0.83704 0.0
C1308 C 0.8786 0.21856 0.82122 0.0
C1309 C 0.88305 0.18905 0.81918 0.0
C1310 C 0.8985 0.30665 0.84285 0.0
C1311 C 0.87614 0.31703 0.85287 0.0
C1312 C 0.89706 0.27882 0.83629 0.0
C1313 C 0.87339 0.26112 0.83983 0.0
C1314 C 0.85027 0.27214 0.84878 0.0
C1315 C 0.85158 0.29976 0.85523 0.0
H1316 H 0.60438 0.07734 0.54945 0.0
H1317 H 0.59673 0.16194 0.57119 0.0
H1318 H 0.55478 0.06671 0.55812 0.0
H1319 H 0.5477 0.1519 0.57885 0.0
H1320 H 0.45556 0.13358 0.58497 0.0
H1321 H 0.4961 0.13716 0.56598 0.0
H1322 H 0.53771 0.06605 0.59019 0.0
H1323 H 0.49913 0.06352 0.60976 0.0
C1324 C 0.59204 0.09379 0.55571 0.0
C1325 C 0.60453 0.12044 0.55963 0.0
C1326 C 0.56372 0.08782 0.56051 0.0
C1327 C 0.54739 0.10878 0.56879 0.0
C1328 C 0.55957 0.13567 0.5721 0.0
C1329 C 0.58788 0.14127 0.56781 0.0
C1330 C 0.47313 0.11847 0.5862 0.0
C1331 C 0.47391 0.09859 0.59922 0.0
C1332 C 0.49607 0.12026 0.57513 0.0
C1333 C 0.5198 0.10174 0.57666 0.0
C1334 C 0.51938 0.08017 0.58858 0.0
C1335 C 0.49695 0.0788 0.59984 0.0
H1336 H 0.70921 0.73686 0.37576 0.0
H1337 H 0.66667 0.80275 0.40436 0.0
H1338 H 0.72013 0.77236 0.35449 0.0
H1339 H 0.6778 0.83784 0.3835 0.0
H1340 H 0.69527 0.90058 0.34894 0.0
H1341 H 0.71374 0.86505 0.36823 0.0
H1342 H 0.68743 0.79695 0.33527 0.0
H1343 H 0.67002 0.83237 0.3158 0.0
C1344 C 0.70245 0.75892 0.37757 0.0
C1345 C 0.6868 0.767 0.39164 0.0
C1346 C 0.70898 0.77923 0.36551 0.0
C1347 C 0.7001 0.8079 0.36739 0.0
C1348 C 0.68568 0.81611 0.38184 0.0
C1349 C 0.67906 0.7959 0.39379 0.0
C1350 C 0.69461 0.87805 0.34554 0.0
C1351 C 0.68034 0.86908 0.33122 0.0
C1352 C 0.70515 0.85774 0.35657 0.0
C1353 C 0.70099 0.8283 0.35351 0.0
C1354 C 0.69076 0.8195 0.33803 0.0
C1355 C 0.68061 0.83984 0.32688 0.0
H1356 H 0.02434 0.95579 0.12668 0.0
H1357 H 0.08169 0.89726 0.10108 0.0
H1358 H 0.99465 0.95889 0.10273 0.0
H1359 H 0.04923 0.89848 0.07743 0.0
H1360 H 0.94525 0.87151 0.07399 0.0
H1361 H 0.99286 0.87903 0.08495 0.0
H1362 H 0.9913 0.96683 0.06797 0.0
H1363 H 0.94356 0.95859 0.0556 0.0
C1364 C 0.03158 0.94433 0.11589 0.0
C1365 C 0.0558 0.92599 0.11618 0.0
C1366 C 0.01421 0.94625 0.10203 0.0
C1367 C 0.01985 0.92916 0.08827 0.0
C1368 C 0.04478 0.91215 0.08793 0.0
C1369 C 0.06292 0.91098 0.10166 0.0
C1370 C 0.95534 0.8921 0.0719 0.0
C1371 C 0.94066 0.91446 0.06388 0.0
C1372 C 0.98281 0.89628 0.07808 0.0
C1373 C 0.99582 0.92331 0.07702 0.0
C1374 C 0.98178 0.94561 0.06855 0.0
C1375 C 0.95448 0.94101 0.06169 0.0
H1376 H 0.68202 0.81961 0.8386 0.0
H1377 H 0.59468 0.80092 0.85297 0.0
H1378 H 0.67885 0.78345 0.81686 0.0
H1379 H 0.59147 0.76503 0.83108 0.0
H1380 H 0.67215 0.67966 0.8181 0.0
H1381 H 0.67512 0.72978 0.82685 0.0
H1382 H 0.59744 0.74898 0.79986 0.0
H1383 H 0.59504 0.69892 0.79061 0.0
C1384 C 0.6617 0.80874 0.83659 0.0
C1385 C 0.63877 0.81259 0.84764 0.0
C1386 C 0.65994 0.78805 0.82419 0.0
C1387 C 0.6351 0.7712 0.82254 0.0
C1388 C 0.6108 0.77787 0.83208 0.0
C1389 C 0.61261 0.79847 0.84459 0.0
C1390 C 0.65647 0.69488 0.81347 0.0
C1391 C 0.63361 0.68559 0.80359 0.0
C1392 C 0.65814 0.72354 0.81844 0.0
C1393 C 0.63657 0.74323 0.81392 0.0
C1394 C 0.61447 0.73428 0.80333 0.0
C1395 C 0.61324 0.70571 0.79798 0.0
H1396 H 0.59081 0.41174 0.04077 0.0
H1397 H 0.65263 0.45553 0.0714 0.0
H1398 H 0.55177 0.43088 0.05733 0.0
H1399 H 0.61347 0.47498 0.08813 0.0
H1400 H 0.55258 0.42885 0.12654 0.0
H1401 H 0.58857 0.43844 0.1058 0.0
H1402 H 0.52245 0.46782 0.07245 0.0
H1403 H 0.48607 0.45883 0.09355 0.0
C1404 C 0.59581 0.42701 0.05045 0.0
C1405 C 0.62442 0.43222 0.05497 0.0
C1406 C 0.57349 0.43798 0.05996 0.0
C1407 C 0.57972 0.45385 0.07422 0.0
C1408 C 0.60823 0.4625 0.07727 0.0
C1409 C 0.63059 0.45165 0.06765 0.0
C1410 C 0.54569 0.43807 0.11497 0.0
C1411 C 0.51645 0.44282 0.11164 0.0
C1412 C 0.56638 0.44385 0.10312 0.0
C1413 C 0.55832 0.4543 0.0876 0.0
C1414 C 0.52919 0.45994 0.08437 0.0
C1415 C 0.50841 0.45436 0.09634 0.0
H1416 H 0.81284 0.22258 0.34355 0.0
H1417 H 0.90536 0.2253 0.33714 0.0
H1418 H 0.8094 0.27189 0.33531 0.0
H1419 H 0.9017 0.2761 0.33015 0.0
H1420 H 0.88494 0.36771 0.31458 0.0
H1421 H 0.88397 0.31546 0.3125 0.0
H1422 H 0.82279 0.31226 0.35242 0.0
H1423 H 0.82359 0.36432 0.35447 0.0
C1424 C 0.83253 0.23312 0.33991 0.0
C1425 C 0.85959 0.21958 0.34137 0.0
C1426 C 0.83044 0.26185 0.33544 0.0
C1427 C 0.85527 0.27806 0.33262 0.0
C1428 C 0.88212 0.26412 0.3324 0.0
C1429 C 0.88424 0.23505 0.33662 0.0
C1430 C 0.87092 0.35586 0.32275 0.0
C1431 C 0.85453 0.37011 0.33484 0.0
C1432 C 0.87048 0.32595 0.32155 0.0
C1433 C 0.85338 0.30979 0.33228 0.0
C1434 C 0.83588 0.32415 0.34378 0.0
C1435 C 0.83641 0.35402 0.34503 0.0
H1436 H 0.95126 0.573 0.56772 0.0
H1437 H 0.9691 0.63779 0.53118 0.0
H1438 H 1.00263 0.56788 0.5729 0.0
H1439 H 0.0206 0.63327 0.53673 0.0
H1440 H 0.0898 0.55876 0.58293 0.0
H1441 H 0.05439 0.55732 0.56079 0.0
H1442 H 0.0414 0.64876 0.56581 0.0
H1443 H 0.07625 0.65018 0.58813 0.0
C1444 C 0.96627 0.58536 0.56041 0.0
C1445 C 0.95637 0.6057 0.5491 0.0
C1446 C 0.99566 0.58233 0.56325 0.0
C1447 C 0.01552 0.60009 0.55509 0.0
C1448 C 1.00571 0.61913 0.54299 0.0
C1449 C 0.97629 0.62164 0.53985 0.0
C1450 C 0.08043 0.57877 0.57873 0.0
C1451 C 0.08484 0.60438 0.58762 0.0
C1452 C 0.06026 0.57792 0.56605 0.0
C1453 C 0.04473 0.60277 0.56199 0.0
C1454 C 0.05308 0.62929 0.56879 0.0
C1455 C 0.07308 0.6301 0.58159 0.0
H1456 H 0.72643 0.25174 0.61446 0.0
H1457 H 0.66233 0.20357 0.64129 0.0
H1458 H 0.72458 0.28945 0.63496 0.0
H1459 H 0.66017 0.24204 0.66176 0.0
H1460 H 0.62533 0.33754 0.66257 0.0
H1461 H 0.63869 0.28997 0.6539 0.0
H1462 H 0.72777 0.30864 0.66459 0.0
H1463 H 0.71401 0.35699 0.67406 0.0
C1464 C 0.71277 0.24854 0.62506 0.0
C1465 C 0.69411 0.22475 0.62603 0.0
C1466 C 0.71181 0.27027 0.63688 0.0
C1467 C 0.69202 0.2688 0.64984 0.0
C1468 C 0.67543 0.24377 0.65176 0.0
C1469 C 0.67649 0.2219 0.63997 0.0
C1470 C 0.64766 0.33145 0.6637 0.0
C1471 C 0.66858 0.35115 0.6691 0.0
C1472 C 0.65532 0.30393 0.65877 0.0
C1473 C 0.68423 0.29546 0.65871 0.0
C1474 C 0.70526 0.31465 0.66465 0.0
C1475 C 0.69742 0.34225 0.67 0.0
H1476 H 0.03827 0.50452 0.86671 0.0
H1477 H 0.9547 0.48055 0.84805 0.0
H1478 H 0.01799 0.51089 0.894 0.0
H1479 H 0.93445 0.48667 0.87528 0.0
H1480 H 0.9052 0.4613 0.91991 0.0
H1481 H 0.92465 0.50221 0.9048 0.0
H1482 H 1.00815 0.46141 0.90461 0.0
H1483 H 0.98839 0.4202 0.91848 0.0
C1484 C 0.01523 0.50232 0.8682 0.0
C1485 C 0.99814 0.49093 0.85548 0.0
C1486 C 1.0036 0.50607 0.88388 0.0
C1487 C 0.97497 0.49808 0.88693 0.0
C1488 C 0.95675 0.49258 0.87344 0.0
C1489 C 0.96837 0.48872 0.8578 0.0
C1490 C 0.92783 0.4614 0.91686 0.0
C1491 C 0.9447 0.43653 0.91884 0.0
C1492 C 0.93908 0.48514 0.90856 0.0
C1493 C 0.96753 0.48437 0.90278 0.0
C1494 C 0.98589 0.46246 0.90848 0.0
C1495 C 0.97446 0.43849 0.91633 0.0
H1496 H 0.84025 0.77217 0.10789 0.0
H1497 H 0.87125 0.82768 0.14664 0.0
H1498 H 0.83886 0.73213 0.12666 0.0
H1499 H 0.869 0.78718 0.16601 0.0
H1500 H 0.8993 0.69563 0.18443 0.0
H1501 H 0.89306 0.74246 0.1715 0.0
H1502 H 0.81408 0.71258 0.14905 0.0
H1503 H 0.82169 0.66522 0.16107 0.0
C1504 C 0.84618 0.77588 0.12061 0.0
C1505 C 0.85543 0.80305 0.12591 0.0
C1506 C 0.84516 0.75294 0.13145 0.0
C1507 C 0.85312 0.75654 0.14799 0.0
C1508 C 0.86261 0.78376 0.15335 0.0
C1509 C 0.86392 0.80688 0.14234 0.0
C1510 C 0.88016 0.69951 0.17714 0.0
C1511 C 0.86099 0.67705 0.17358 0.0
C1512 C 0.87655 0.72633 0.16974 0.0
C1513 C 0.85341 0.73108 0.15893 0.0
C1514 C 0.83262 0.70934 0.1569 0.0
C1515 C 0.8367 0.68236 0.1639 0.0
H1516 H 0.59934 0.66183 0.41161 0.0
H1517 H 0.59663 0.57829 0.43494 0.0
H1518 H 0.55365 0.6522 0.39841 0.0
H1519 H 0.55076 0.56841 0.42103 0.0
H1520 H 0.49468 0.56254 0.37038 0.0
H1521 H 0.53608 0.56622 0.38842 0.0
H1522 H 0.50027 0.64259 0.41055 0.0
H1523 H 0.45766 0.6383 0.39308 0.0
C1524 C 0.58916 0.64128 0.41385 0.0
C1525 C 0.6015 0.62088 0.42449 0.0
C1526 C 0.56286 0.63596 0.40638 0.0
C1527 C 0.54863 0.6099 0.40908 0.0
C1528 C 0.56138 0.58883 0.41903 0.0
C1529 C 0.58759 0.5944 0.42684 0.0
C1530 C 0.49485 0.57952 0.3795 0.0
C1531 C 0.47273 0.60022 0.38022 0.0
C1532 C 0.51871 0.58159 0.38977 0.0
C1533 C 0.52117 0.60467 0.40071 0.0
C1534 C 0.49867 0.62466 0.40206 0.0
C1535 C 0.47449 0.62232 0.39199 0.0
H1536 H 0.38592 0.35644 0.17081 0.0
H1537 H 0.36409 0.36582 0.11941 0.0
H1538 H 0.38304 0.3041 0.16804 0.0
H1539 H 0.36165 0.31351 0.1167 0.0
H1540 H 0.40297 0.22547 0.11362 0.0
H1541 H 0.40712 0.2758 0.1215 0.0
H1542 H 0.34032 0.26455 0.15767 0.0
H1543 H 0.3358 0.2138 0.14968 0.0
C1544 C 0.38 0.34732 0.15901 0.0
C1545 C 0.37521 0.3651 0.14529 0.0
C1546 C 0.37844 0.31749 0.15748 0.0
C1547 C 0.37251 0.30513 0.14215 0.0
C1548 C 0.36654 0.32283 0.1286 0.0
C1549 C 0.36765 0.35265 0.13019 0.0
C1550 C 0.39003 0.2333 0.12376 0.0
C1551 C 0.36911 0.21574 0.1311 0.0
C1552 C 0.39213 0.26218 0.12807 0.0
C1553 C 0.37366 0.27382 0.13993 0.0
C1554 C 0.35465 0.25582 0.14843 0.0
C1555 C 0.35222 0.2269 0.14395 0.0
H1556 H 0.57902 0.59401 0.90213 0.0
H1557 H 0.54538 0.66822 0.87682 0.0
H1558 H 0.5356 0.59227 0.91919 0.0
H1559 H 0.50181 0.66571 0.89336 0.0
H1560 H 0.42426 0.59818 0.89567 0.0
H1561 H 0.47506 0.60378 0.88924 0.0
H1562 H 0.49082 0.6382 0.93766 0.0
H1563 H 0.43953 0.63305 0.94425 0.0
C1564 C 0.56313 0.61092 0.90091 0.0
C1565 C 0.56546 0.63128 0.88821 0.0
C1566 C 0.53832 0.6098 0.91058 0.0
C1567 C 0.51568 0.62894 0.90755 0.0
C1568 C 0.51939 0.65121 0.89614 0.0
C1569 C 0.54436 0.65268 0.88671 0.0
C1570 C 0.43855 0.60629 0.90513 0.0
C1571 C 0.4278 0.61552 0.92038 0.0
C1572 C 0.46754 0.60957 0.90141 0.0
C1573 C 0.4864 0.62178 0.91292 0.0
C1574 C 0.47643 0.6288 0.92866 0.0
C1575 C 0.44719 0.62563 0.93241 0.0
H1576 H 0.23051 0.76293 0.63819 0.0
H1577 H 0.17781 0.82853 0.66117 0.0
H1578 H 0.2147 0.72882 0.65785 0.0
H1579 H 0.16068 0.79287 0.6807 0.0
H1580 H 0.16612 0.66149 0.67656 0.0
H1581 H 0.19675 0.70324 0.6818 0.0
H1582 H 0.12713 0.75925 0.66703 0.0
H1583 H 0.09693 0.71797 0.66197 0.0
C1584 C 0.21651 0.77081 0.64778 0.0
C1585 C 0.20384 0.79835 0.64713 0.0
C1586 C 0.20745 0.75081 0.65934 0.0
C1587 C 0.18513 0.75772 0.67023 0.0
C1588 C 0.17708 0.7867 0.67193 0.0
C1589 C 0.18652 0.80699 0.66047 0.0
C1590 C 0.15722 0.68282 0.67494 0.0
C1591 C 0.12966 0.68662 0.66819 0.0
C1592 C 0.17464 0.70669 0.6781 0.0
C1593 C 0.16464 0.73455 0.67451 0.0
C1594 C 0.13567 0.73821 0.66995 0.0
C1595 C 0.11844 0.71445 0.66668 0.0
H1596 H 0.10523 0.42101 0.4224 0.0
H1597 H 0.05785 0.34566 0.40751 0.0
H1598 H 0.05962 0.44651 0.42726 0.0
H1599 H 0.01293 0.37021 0.41257 0.0
H1600 H 0.98799 0.47426 0.38734 0.0
H1601 H 0.02875 0.46033 0.40349 0.0
H1602 H 0.97702 0.39759 0.42895 0.0
H1603 H 0.93513 0.41215 0.41285 0.0
C1604 C 0.08507 0.40972 0.42069 0.0
C1605 C 0.08467 0.38184 0.41414 0.0
C1606 C 0.05909 0.42412 0.42358 0.0
C1607 C 0.03269 0.41042 0.42023 0.0
C1608 C 0.03275 0.38138 0.41547 0.0
C1609 C 0.05849 0.36739 0.41226 0.0
C1610 C 0.98449 0.45861 0.39695 0.0
C1611 C 0.95831 0.44357 0.39831 0.0
C1612 C 1.00816 0.45067 0.40636 0.0
C1613 C 1.00628 0.42728 0.41714 0.0
C1614 C 0.97912 0.41534 0.42044 0.0
C1615 C 0.95524 0.42343 0.41106 0.0
H1616 H 0.39593 0.68137 0.32158 0.0
H1617 H 0.30996 0.66771 0.30284 0.0
H1618 H 0.38585 0.73182 0.32524 0.0
H1619 H 0.29955 0.71887 0.30705 0.0
H1620 H 0.29279 0.78427 0.35293 0.0
H1621 H 0.29722 0.74265 0.33569 0.0
H1622 H 0.37096 0.78002 0.31175 0.0
H1623 H 0.36571 0.82341 0.32851 0.0
C1624 C 0.37508 0.68916 0.31785 0.0
C1625 C 0.35374 0.67038 0.31196 0.0
C1626 C 0.36939 0.71828 0.31982 0.0
C1627 C 0.34204 0.72927 0.31626 0.0
C1628 C 0.32092 0.71086 0.30973 0.0
C1629 C 0.32683 0.68163 0.30744 0.0
C1630 C 0.3091 0.7848 0.34347 0.0
C1631 C 0.32912 0.80751 0.34237 0.0
C1632 C 0.31161 0.76058 0.33355 0.0
C1633 C 0.33449 0.75809 0.32249 0.0
C1634 C 0.35316 0.78151 0.3203 0.0
C1635 C 0.35032 0.80617 0.33004 0.0
H1636 H 0.09614 0.6077 0.0649 0.0
H1637 H 0.06431 0.69056 0.08086 0.0
H1638 H 0.04738 0.58801 0.06719 0.0
H1639 H 0.01624 0.67117 0.0829 0.0
H1640 H 0.93066 0.63569 0.08518 0.0
H1641 H 0.97332 0.64773 0.06907 0.0
H1642 H 0.02117 0.58133 0.09404 0.0
H1643 H 0.98003 0.57025 0.1105 0.0
C1644 C 0.07873 0.62176 0.06861 0.0
C1645 C 0.08407 0.65048 0.07298 0.0
C1646 C 0.05089 0.6106 0.06977 0.0
C1647 C 0.02806 0.62815 0.07508 0.0
C1648 C 0.03326 0.65726 0.07847 0.0
C1649 C 0.06098 0.66822 0.07759 0.0
C1650 C 0.9501 0.62332 0.08704 0.0
C1651 C 0.95175 0.60237 0.09947 0.0
C1652 C 0.97439 0.63 0.07767 0.0
C1653 C 1.00052 0.61557 0.08043 0.0
C1654 C 1.00123 0.59256 0.09147 0.0
C1655 C 0.97729 0.58621 0.10098 0.0
H1656 H 0.14077 0.19193 0.83203 0.0
H1657 H 0.20155 0.24572 0.85769 0.0
H1658 H 0.13504 0.22891 0.81097 0.0
H1659 H 0.19447 0.28346 0.8376 0.0
H1660 H 0.08228 0.31403 0.81662 0.0
H1661 H 0.1062 0.26818 0.81737 0.0
H1662 H 0.18867 0.31097 0.81344 0.0
H1663 H 0.16378 0.35755 0.813 0.0
C1664 C 0.15355 0.21136 0.83281 0.0
C1665 C 0.17107 0.21651 0.84651 0.0
C1666 C 0.15028 0.23256 0.82083 0.0
C1667 C 0.1633 0.25968 0.82294 0.0
C1668 C 0.18391 0.26304 0.8355 0.0
C1669 C 0.18781 0.24151 0.84718 0.0
C1670 C 0.10546 0.31349 0.81538 0.0
C1671 C 0.12136 0.33895 0.81525 0.0
C1672 C 0.11935 0.28711 0.81557 0.0
C1673 C 0.14959 0.28575 0.81589 0.0
C1674 C 0.16538 0.31132 0.81357 0.0
C1675 C 0.15126 0.33792 0.81328 0.0
H1676 H 0.43775 0.38376 0.54994 0.0
H1677 H 0.42593 0.45612 0.58272 0.0
H1678 H 0.48959 0.38607 0.55445 0.0
H1679 H 0.4778 0.45906 0.58658 0.0
H1680 H 0.55388 0.37405 0.60178 0.0
H1681 H 0.51222 0.37514 0.5839 0.0
H1682 H 0.52922 0.46397 0.57234 0.0
H1683 H 0.57231 0.46265 0.58952 0.0
C1684 C 0.44619 0.4006 0.55777 0.0
C1685 C 0.42765 0.41915 0.56645 0.0
C1686 C 0.47589 0.402 0.56021 0.0
C1687 C 0.48756 0.4226 0.57091 0.0
C1688 C 0.46931 0.44308 0.57817 0.0
C1689 C 0.43958 0.44128 0.57603 0.0
C1690 C 0.54987 0.39345 0.59482 0.0
C1691 C 0.5662 0.41853 0.59751 0.0
C1692 C 0.52579 0.39406 0.58458 0.0
C1693 C 0.51734 0.4198 0.57701 0.0
C1694 C 0.53522 0.44397 0.57823 0.0
C1695 C 0.55972 0.4432 0.58819 0.0
H1696 H 0.13455 0.0385 0.37305 0.0
H1697 H 0.19316 0.05377 0.33301 0.0
H1698 H 0.16653 1.00183 0.384 0.0
H1699 H 0.22602 0.01719 0.3442 0.0
H1700 H 0.26996 0.93559 0.36611 0.0
H1701 H 0.2349 0.96589 0.35167 0.0
H1702 H 0.21195 1.00584 0.39783 0.0
H1703 H 0.24577 0.97517 0.41213 0.0
C1704 C 0.15427 0.03372 0.36653 0.0
C1705 C 0.16164 0.04917 0.35235 0.0
C1706 C 0.17268 0.01284 0.37282 0.0
C1707 C 0.19917 1.00704 0.36521 0.0
C1708 C 0.20577 0.02115 0.35036 0.0
C1709 C 0.18704 0.04203 0.34394 0.0
C1710 C 0.25713 0.95063 0.37315 0.0
C1711 C 0.2607 0.95299 0.39029 0.0
C1712 C 0.23727 0.96816 0.36486 0.0
C1713 C 0.22046 0.98815 0.3736 0.0
C1714 C 0.22413 0.99036 0.39072 0.0
C1715 C 0.24387 0.973 0.39893 0.0
H1716 H 0.36856 0.01208 0.63225 0.0
H1717 H 0.29012 0.04313 0.65429 0.0
H1718 H 0.34147 0.97364 0.61848 0.0
H1719 H 0.26319 1.00486 0.64086 0.0
H1720 H 0.22107 0.96605 0.59573 0.0
H1721 H 0.25022 0.99817 0.61225 0.0
H1722 H 0.31078 0.92953 0.62133 0.0
H1723 H 0.28171 0.89726 0.60414 0.0
C1724 C 0.34568 0.01022 0.63446 0.0
C1725 C 0.3313 0.03078 0.64411 0.0
C1726 C 0.33017 0.98828 0.62659 0.0
C1727 C 0.30009 0.98657 0.62834 0.0
C1728 C 0.2862 1.00602 0.63892 0.0
C1729 C 0.3016 0.02789 0.64665 0.0
C1730 C 0.24071 0.95777 0.60108 0.0
C1731 C 0.24916 0.92913 0.59847 0.0
C1732 C 0.25726 0.97611 0.61077 0.0
C1733 C 0.28272 0.96636 0.61823 0.0
C1734 C 0.2913 0.93769 0.6157 0.0
C1735 C 0.27457 0.91918 0.60598 0.0
H1736 H 0.26733 0.10728 0.89382 0.0
H1737 H 0.21547 0.03099 0.89874 0.0
H1738 H 0.30755 0.07781 0.88385 0.0
H1739 H 0.25431 1.00191 0.88813 0.0
H1740 H 0.32641 0.94933 0.8731 0.0
H1741 H 0.29926 0.98133 0.89117 0.0
H1742 H 0.3189 0.05277 0.85909 0.0
H1743 H 0.34762 0.02058 0.84176 0.0
C1744 C 0.26481 0.08417 0.89312 0.0
C1745 C 0.2383 0.07136 0.8969 0.0
C1746 C 0.28763 0.06731 0.88721 0.0
C1747 C 0.28425 0.03741 0.88505 0.0
C1748 C 0.25814 0.02468 0.88983 0.0
C1749 C 0.23563 0.04139 0.89576 0.0
C1750 C 0.32548 0.97207 0.87031 0.0
C1751 C 0.33883 0.98272 0.85618 0.0
C1752 C 0.30976 0.9904 0.8805 0.0
C1753 C 0.30628 0.01962 0.87644 0.0
C1754 C 0.32124 0.03052 0.86274 0.0
C1755 C 0.33756 0.01219 0.85275 0.0
H1756 H 0.28071 0.09274 0.1249 0.0
H1757 H 0.25055 0.03662 0.08613 0.0
H1758 H 0.25001 0.06763 0.1444 0.0
H1759 H 0.22169 0.01052 0.10566 0.0
H1760 H 0.154 0.98053 0.14053 0.0
H1761 H 0.18066 0.01074 0.12183 0.0
H1762 H 0.24543 0.02464 0.15913 0.0
H1763 H 0.21791 0.99603 0.17823 0.0
C1764 C 0.26764 0.07512 0.12046 0.0
C1765 C 0.26852 0.06677 0.10381 0.0
C1766 C 0.2502 0.0604 0.13174 0.0
C1767 C 0.23327 0.0368 0.12673 0.0
C1768 C 0.23396 0.02875 0.11006 0.0
C1769 C 0.25109 0.04358 0.0988 0.0
C1770 C 0.17365 0.9902 0.14497 0.0
C1771 C 0.18361 0.98523 0.16109 0.0
C1772 C 0.18927 1.00742 0.13405 0.0
C1773 C 0.21556 0.02005 0.13878 0.0
C1774 C 0.22522 0.01562 0.15497 0.0
C1775 C 0.20946 0.99868 0.16596 0.0
H1776 H 0.80719 0.95665 0.62393 0.0
H1777 H 0.83129 0.03562 0.64807 0.0
H1778 H 0.76994 0.98257 0.60844 0.0
H1779 H 0.79494 0.06161 0.63256 0.0
H1780 H 0.7483 0.04866 0.56669 0.0
H1781 H 0.77215 0.01668 0.58601 0.0
H1782 H 0.74526 0.07117 0.62625 0.0
H1783 H 0.72208 0.10375 0.60668 0.0
C1784 C 0.80405 0.97939 0.62618 0.0
C1785 C 0.82233 0.99423 0.63702 0.0
C1786 C 0.78295 0.99433 0.61722 0.0
C1787 C 0.77957 0.02432 0.61909 0.0
C1788 C 0.79663 0.03858 0.63083 0.0
C1789 C 0.81771 0.02374 0.63963 0.0
C1790 C 0.74721 0.05366 0.57968 0.0
C1791 C 0.73365 0.07898 0.58511 0.0
C1792 C 0.76062 0.0351 0.59082 0.0
C1793 C 0.7609 0.04137 0.60773 0.0
C1794 C 0.74581 0.06584 0.61328 0.0
C1795 C 0.73227 0.08441 0.6021 0.0
H1796 H 0.74764 0.1005 0.36746 0.0
H1797 H 0.79572 0.02122 0.3688 0.0
H1798 H 0.70998 0.07668 0.35131 0.0
H1799 H 0.75832 0.99737 0.3529 0.0
H1800 H 0.70413 0.97121 0.30908 0.0
H1801 H 0.74008 0.99683 0.32526 0.0
H1802 H 0.6726 0.04053 0.35186 0.0
H1803 H 0.63675 0.01505 0.33575 0.0
C1804 C 0.74987 0.07787 0.36459 0.0
C1805 C 0.77472 0.06277 0.36932 0.0
C1806 C 0.72839 0.06421 0.35527 0.0
C1807 C 0.73131 0.03516 0.35053 0.0
C1808 C 0.75565 0.01991 0.35589 0.0
C1809 C 0.77702 0.03352 0.36513 0.0
C1810 C 0.6969 0.98628 0.31834 0.0
C1811 C 0.66738 0.99095 0.321 0.0
C1812 C 0.71756 1.00096 0.32769 0.0
C1813 C 0.70929 0.02067 0.33999 0.0
C1814 C 0.67982 0.02582 0.34238 0.0
C1815 C 0.65918 0.01117 0.33305 0.0
H1816 H 0.67247 0.98332 0.14611 0.0
H1817 H 0.71652 0.06427 0.14071 0.0
H1818 H 0.70746 0.96012 0.12842 0.0
H1819 H 0.75256 0.04087 0.12324 0.0
H1820 H 0.79639 0.99557 0.07997 0.0
H1821 H 0.76244 0.01987 0.09771 0.0
H1822 H 0.75441 0.9429 0.12698 0.0
H1823 H 0.78698 0.91788 0.10851 0.0
C1824 C 0.68991 0.99614 0.14125 0.0
C1825 C 0.69184 0.02563 0.14497 0.0
C1826 C 0.7102 0.98275 0.13113 0.0
C1827 C 0.73336 0.99832 0.12448 0.0
C1828 C 0.735 0.02806 0.12797 0.0
C1829 C 0.71438 0.04157 0.138 0.0
C1830 C 0.78726 0.98354 0.09004 0.0
C1831 C 0.79439 0.95437 0.09248 0.0
C1832 C 0.76793 0.99778 0.10046 0.0
C1833 C 0.75524 0.9835 0.11383 0.0
C1834 C 0.76311 0.95461 0.11663 0.0
C1835 C 0.78225 0.94024 0.1061 0.0
H1836 H 0.72267 0.90055 0.86946 0.0
H1837 H 0.75954 0.9443 0.91129 0.0
H1838 H 0.7539 0.92821 0.85111 0.0
H1839 H 0.78994 0.9724 0.89313 0.0
H1840 H 0.85503 1.00786 0.85803 0.0
H1841 H 0.83004 0.97161 0.87432 0.0
H1842 H 0.7565 0.9779 0.84201 0.0
H1843 H 0.78187 0.0133 0.82547 0.0
C1844 C 0.73768 0.91578 0.87474 0.0
C1845 C 0.73841 0.92046 0.89181 0.0
C1846 C 0.75538 0.93183 0.86424 0.0
C1847 C 0.77436 0.95269 0.87062 0.0
C1848 C 0.77585 0.95639 0.88776 0.0
C1849 C 0.75813 0.94051 0.89819 0.0
C1850 C 0.83378 1.00107 0.85422 0.0
C1851 C 0.82034 0.01371 0.84054 0.0
C1852 C 0.81931 0.98048 0.86365 0.0
C1853 C 0.79112 0.97197 0.85957 0.0
C1854 C 0.77823 0.98373 0.84546 0.0
C1855 C 0.79265 1.00433 0.83608 0.0
H1856 H 0.80061 0.50368 0.90542 0.0
H1857 H 0.77462 0.42255 0.8846 0.0
H1858 H 0.76051 0.52765 0.89152 0.0
H1859 H 0.73461 0.44648 0.87034 0.0
H1860 H 0.71043 0.51366 0.82821 0.0
H1861 H 0.73929 0.48389 0.84669 0.0
H1862 H 0.70457 0.52959 0.88844 0.0
H1863 H 0.6753 0.55918 0.86982 0.0
C1864 C 0.78562 0.49093 0.89828 0.0
C1865 C 0.79035 0.46137 0.89617 0.0
C1866 C 0.76275 0.50455 0.89032 0.0
C1867 C 0.74453 0.48891 0.87983 0.0
C1868 C 0.74837 0.459 0.87838 0.0
C1869 C 0.77098 0.44528 0.88662 0.0
C1870 C 0.70874 0.51703 0.84135 0.0
C1871 C 0.69086 0.53875 0.84762 0.0
C1872 C 0.725 0.49987 0.85192 0.0
C1873 C 0.72408 0.5044 0.86899 0.0
C1874 C 0.70561 0.52565 0.87533 0.0
C1875 C 0.68885 0.54246 0.86472 0.0
H1876 H 0.70284 0.44276 0.0875 0.0
H1877 H 0.78119 0.39287 0.08933 0.0
H1878 H 0.72552 0.47988 0.10437 0.0
H1879 H 0.80375 0.42991 0.10597 0.0
H1880 H 0.84491 0.51606 0.12032 0.0
H1881 H 0.82178 0.47883 0.10385 0.0
H1882 H 0.74383 0.48899 0.13204 0.0
H1883 H 0.76688 0.52589 0.1486 0.0
C1884 C 0.72476 0.4395 0.09157 0.0
C1885 C 0.74014 0.41474 0.08686 0.0
C1886 C 0.73782 0.46086 0.10125 0.0
C1887 C 0.76661 0.45806 0.10645 0.0
C1888 C 0.78179 0.43314 0.10193 0.0
C1889 C 0.76875 0.4118 0.09234 0.0
C1890 C 0.82296 0.51023 0.12316 0.0
C1891 C 0.80789 0.52428 0.13586 0.0
C1892 C 0.80963 0.48883 0.11367 0.0
C1893 C 0.78084 0.4809 0.11655 0.0
C1894 C 0.76583 0.49484 0.12926 0.0
C1895 C 0.77916 0.51611 0.1388 0.0
H1896 H 0.84007 0.50394 0.38222 0.0
H1897 H 0.78618 0.53185 0.34208 0.0
H1898 H 0.81467 0.53646 0.40076 0.0
H1899 H 0.76116 0.56474 0.36042 0.0
H1900 H 0.70414 0.60315 0.39982 0.0
H1901 H 0.7282 0.56784 0.38249 0.0
H1902 H 0.80849 0.58541 0.40736 0.0
H1903 H 0.7842 0.61927 0.42525 0.0
C1904 C 0.82298 0.51722 0.37731 0.0
C1905 C 0.81513 0.5152 0.36066 0.0
C1906 C 0.80838 0.53593 0.38794 0.0
C1907 C 0.78569 0.55331 0.38216 0.0
C1908 C 0.77803 0.55133 0.36546 0.0
C1909 C 0.79247 0.53249 0.35488 0.0
C1910 C 0.72681 0.59922 0.40178 0.0
C1911 C 0.74214 0.6144 0.41395 0.0
C1912 C 0.74076 0.57916 0.39166 0.0
C1913 C 0.77045 0.57379 0.39337 0.0
C1914 C 0.78561 0.58863 0.40572 0.0
C1915 C 0.77166 0.6085 0.41588 0.0
H1916 H 0.67861 0.47788 0.62182 0.0
H1917 H 0.73304 0.49553 0.66367 0.0
H1918 H 0.71264 0.50308 0.60402 0.0
H1919 H 0.76685 0.52055 0.64603 0.0
H1920 H 0.80743 0.58862 0.61394 0.0
H1921 H 0.77088 0.5646 0.63052 0.0
H1922 H 0.76065 0.50016 0.59263 0.0
H1923 H 0.79628 0.52474 0.57589 0.0
C1924 C 0.69797 0.48679 0.62719 0.0
C1925 C 0.70294 0.48489 0.64421 0.0
C1926 C 0.71745 0.50134 0.617 0.0
C1927 C 0.74233 0.51426 0.62362 0.0
C1928 C 0.74758 0.51159 0.64056 0.0
C1929 C 0.7282 0.49711 0.65068 0.0
C1930 C 0.79707 0.56959 0.60907 0.0
C1931 C 0.80505 0.55846 0.59367 0.0
C1932 C 0.77634 0.55559 0.61864 0.0
C1933 C 0.76301 0.5302 0.613 0.0
C1934 C 0.77033 0.51968 0.59736 0.0
C1935 C 0.79106 0.53362 0.58783 0.0
H1936 H 0.23437 0.53801 0.07765 0.0
H1937 H 0.24656 0.61503 0.10653 0.0
H1938 H 0.27158 0.51384 0.09347 0.0
H1939 H 0.28363 0.59074 0.12256 0.0
H1940 H 0.37132 0.55023 0.13369 0.0
H1941 H 0.33128 0.57381 0.1202 0.0
H1942 H 0.28462 0.49348 0.11945 0.0
H1943 H 0.32574 0.46947 0.1324 0.0
C1944 C 0.24473 0.54973 0.08751 0.0
C1945 C 0.23738 0.57856 0.09075 0.0
C1946 C 0.26608 0.53577 0.09667 0.0
C1947 C 0.28072 0.55018 0.1094 0.0
C1948 C 0.27321 0.57899 0.11272 0.0
C1949 C 0.25191 0.593 0.1035 0.0
C1950 C 0.35257 0.53751 0.13065 0.0
C1951 C 0.35197 0.50782 0.13395 0.0
C1952 C 0.32933 0.55118 0.12306 0.0
C1953 C 0.30457 0.53566 0.1186 0.0
C1954 C 0.30347 0.5061 0.12246 0.0
C1955 C 0.32688 0.49235 0.13008 0.0
H1956 H 0.16201 0.46 0.87509 0.0
H1957 H 0.16402 0.49471 0.82579 0.0
H1958 H 0.19929 0.49303 0.88339 0.0
H1959 H 0.20277 0.52734 0.83421 0.0
H1960 H 0.29627 0.54921 0.85533 0.0
H1961 H 0.25516 0.52232 0.84455 0.0
H1962 H 0.2053 0.54716 0.88701 0.0
H1963 H 0.2466 0.57412 0.89778 0.0
C1964 C 0.17002 0.47482 0.86598 0.0
C1965 C 0.15927 0.47484 0.84975 0.0
C1966 C 0.19158 0.49382 0.87082 0.0
C1967 C 0.20357 0.51312 0.85955 0.0
C1968 C 0.19372 0.51276 0.84319 0.0
C1969 C 0.17163 0.49393 0.83835 0.0
C1970 C 0.27641 0.54911 0.86226 0.0
C1971 C 0.27464 0.56343 0.87748 0.0
C1972 C 0.25284 0.53396 0.85602 0.0
C1973 C 0.22712 0.53251 0.86498 0.0
C1974 C 0.22497 0.54778 0.8799 0.0
C1975 C 0.24846 0.56331 0.88603 0.0
H1976 H 0.291 0.42656 0.60938 0.0
H1977 H 0.2639 0.47904 0.56847 0.0
H1978 H 0.25827 0.45292 0.6274 0.0
H1979 H 0.23239 0.50613 0.5865 0.0
H1980 H 0.16043 0.53627 0.61927 0.0
H1981 H 0.18923 0.50477 0.60194 0.0
H1982 H 0.2533 0.49886 0.6403 0.0
H1983 H 0.22383 0.52918 0.65791 0.0
C1984 C 0.27802 0.44359 0.60419 0.0
C1985 C 0.28035 0.45071 0.58743 0.0
C1986 C 0.25944 0.45897 0.61458 0.0
C1987 C 0.24265 0.48184 0.60849 0.0
C1988 C 0.24464 0.48852 0.59167 0.0
C1989 C 0.26312 0.47317 0.58132 0.0
C1990 C 0.18039 0.52791 0.62415 0.0
C1991 C 0.18975 0.53552 0.64004 0.0
C1992 C 0.19716 0.51005 0.6141 0.0
C1993 C 0.22382 0.49932 0.61961 0.0
C1994 C 0.23284 0.50641 0.63563 0.0
C1995 C 0.21604 0.5242 0.64569 0.0
H1996 H 0.31332 0.50518 0.32761 0.0
H1997 H 0.31637 0.54177 0.3763 0.0
H1998 H 0.28375 0.46576 0.33783 0.0
H1999 H 0.28813 0.50188 0.38684 0.0
H2000 H 0.21086 0.44335 0.39736 0.0
H2001 H 0.24281 0.48196 0.3883 0.0
H2002 H 0.28116 0.42408 0.35281 0.0
H2003 H 0.24809 0.38649 0.36137 0.0
C2004 C 0.30804 0.50446 0.34057 0.0
C2005 C 0.31694 0.52666 0.3511 0.0
C2006 C 0.29116 0.48178 0.34652 0.0
C2007 C 0.28324 0.48039 0.36327 0.0
C2008 C 0.293 0.50233 0.37384 0.0
C2009 C 0.3094 0.52521 0.36781 0.0
C2010 C 0.22643 0.43899 0.38778 0.0
C2011 C 0.22692 0.41208 0.37999 0.0
C2012 C 0.24486 0.46106 0.38255 0.0
C2013 C 0.2646 0.4565 0.36959 0.0
C2014 C 0.26583 0.42895 0.36243 0.0
C2015 C 0.24709 0.4072 0.36745 0.0
H2016 H 0.1333 0.05997 0.29052 0.0
H2017 H 0.05083 0.07236 0.267 0.0
H2018 H 0.13941 0.01465 0.27543 0.0
H2019 H 0.05702 0.02775 0.25201 0.0
H2020 H 0.14531 0.95787 0.22581 0.0
H2021 H 0.14549 0.99598 0.24657 0.0
H2022 H 0.05709 0.97628 0.25832 0.0
H2023 H 0.05682 0.93899 0.23719 0.0
C2024 C 0.11666 0.05322 0.28203 0.0
C2025 C 0.09146 0.06965 0.28007 0.0
C2026 C 0.12011 0.02723 0.27346 0.0
C2027 C 0.09834 0.01722 0.26288 0.0
C2028 C 0.07377 0.03432 0.26049 0.0
C2029 C 0.07037 0.06014 0.26896 0.0
C2030 C 0.12645 0.96075 0.23344 0.0
C2031 C 0.1011 0.94543 0.23006 0.0
C2032 C 0.12646 0.98275 0.24524 0.0
C2033 C 0.10106 0.98963 0.25375 0.0
C2034 C 0.07679 0.97194 0.25165 0.0
C2035 C 0.07673 0.95025 0.23978 0.0
H2036 H 0.27345 0.86045 0.5411 0.0
H2037 H 0.195 0.82902 0.51912 0.0
H2038 H 0.29303 0.87038 0.51404 0.0
H2039 H 0.21516 0.83715 0.49181 0.0
H2040 H 0.2494 0.87139 0.44454 0.0
H2041 H 0.22912 0.87022 0.47205 0.0
H2042 H 0.31252 0.84667 0.49157 0.0
H2043 H 0.33299 0.84972 0.464 0.0
C2044 C 0.2605 0.85548 0.53038 0.0
C2045 C 0.23287 0.84375 0.53209 0.0
C2046 C 0.27179 0.86098 0.51486 0.0
C2047 C 0.25594 0.85425 0.50065 0.0
C2048 C 0.22791 0.84303 0.50243 0.0
C2049 C 0.21635 0.83816 0.51804 0.0
C2050 C 0.26339 0.86628 0.4548 0.0
C2051 C 0.29265 0.86042 0.45225 0.0
C2052 C 0.25174 0.86537 0.47055 0.0
C2053 C 0.26898 0.8579 0.48408 0.0
C2054 C 0.29858 0.85287 0.48152 0.0
C2055 C 0.31037 0.85446 0.46574 0.0
H2056 H 0.39015 0.01459 0.69414 0.0
H2057 H 0.41384 0.0895 0.72239 0.0
H2058 H 0.38155 0.98786 0.7193 0.0
H2059 H 0.40696 0.06236 0.74779 0.0
H2060 H 0.41106 0.9383 0.76522 0.0
H2061 H 0.40825 0.96545 0.73964 0.0
H2062 H 0.37709 0.03952 0.76657 0.0
H2063 H 0.38159 0.0127 0.79209 0.0
C2064 C 0.39343 0.02532 0.70584 0.0
C2065 C 0.40285 0.05397 0.70641 0.0
C2066 C 0.38875 0.00993 0.72027 0.0
C2067 C 0.39404 0.02261 0.73568 0.0
C2068 C 0.40232 0.05183 0.73621 0.0
C2069 C 0.4064 0.06746 0.72168 0.0
C2070 C 0.40312 0.9602 0.76555 0.0
C2071 C 0.39677 0.97354 0.78056 0.0
C2072 C 0.40142 0.97586 0.75089 0.0
C2073 C 0.39277 1.00498 0.75098 0.0
C2074 C 0.38463 0.01751 0.766 0.0
C2075 C 0.38691 1.00206 0.78063 0.0
H2076 H 0.25231 0.13545 0.94583 0.0
H2077 H 0.17428 0.15985 0.97078 0.0
H2078 H 0.27639 0.12867 0.97209 0.0
H2079 H 0.19872 0.15525 -0.00277 0.0
H2080 H 0.24389 0.13163 0.04387 0.0
H2081 H 0.21915 0.12792 0.0176 0.0
H2082 H 0.29688 0.15505 -0.00719 0.0
H2083 H 0.32192 0.15668 0.01914 0.0
C2084 C 0.24034 0.13926 0.95705 0.0
C2085 C 0.21154 0.14814 0.95639 0.0
C2086 C 0.25421 0.13574 0.97213 0.0
C2087 C 0.23985 0.1419 0.98694 0.0
C2088 C 0.21055 0.14988 0.9862 0.0
C2089 C 0.19644 0.15264 0.97105 0.0
C2090 C 0.25568 0.1365 0.03273 0.0
C2091 C 0.28473 0.14456 0.03347 0.0
C2092 C 0.24144 0.13461 0.01765 0.0
C2093 C 0.25572 0.14146 0.00293 0.0
C2094 C 0.28511 0.14905 0.00375 0.0
C2095 C 0.29954 0.15022 0.01885 0.0
H2096 H 0.86472 1.00206 0.68931 0.0
H2097 H 0.87051 0.9321 0.72379 0.0
H2098 H 0.85688 0.03588 0.71186 0.0
H2099 H 0.86304 0.96585 0.74653 0.0
H2100 H 0.90845 0.0793 0.75574 0.0
H2101 H 0.89395 0.05148 0.73158 0.0
H2102 H 0.83484 1.00265 0.7615 0.0
H2103 H 0.84967 0.03052 0.78561 0.0
C2104 C 0.86305 0.99384 0.70173 0.0
C2105 C 0.86799 0.96463 0.70493 0.0
C2106 C 0.85889 0.01319 0.71464 0.0
C2107 C 0.85984 1.00366 0.73099 0.0
C2108 C 0.86198 0.97389 0.73406 0.0
C2109 C 0.86611 0.95447 0.72108 0.0
C2110 C 0.89144 0.06352 0.75692 0.0
C2111 C 0.87984 0.05718 0.77236 0.0
C2112 C 0.88314 0.04748 0.74314 0.0
C2113 C 0.86335 0.02465 0.74466 0.0
C2114 C 0.85026 0.01988 0.75996 0.0
C2115 C 0.8585 0.03599 0.77369 0.0
H2116 H 0.67948 0.13914 0.50544 0.0
H2117 H 0.7442 0.20432 0.51369 0.0
H2118 H 0.70355 0.12576 0.47956 0.0
H2119 H 0.76812 0.19056 0.48842 0.0
H2120 H 0.82136 0.13983 0.45207 0.0
H2121 H 0.79516 0.14495 0.47805 0.0
H2122 H 0.71523 0.15222 0.45136 0.0
H2123 H 0.74134 0.14749 0.42543 0.0
C2124 C 0.69863 0.15067 0.50174 0.0
C2125 C 0.70983 0.17284 0.51165 0.0
C2126 C 0.71245 0.14294 0.487 0.0
C2127 C 0.738 0.15681 0.48217 0.0
C2128 C 0.74883 0.17911 0.49199 0.0
C2129 C 0.73485 0.18716 0.50643 0.0
C2130 C 0.79816 0.14194 0.45178 0.0
C2131 C 0.78344 0.14354 0.43673 0.0
C2132 C 0.78318 0.14499 0.46662 0.0
C2133 C 0.75317 0.14917 0.46669 0.0
C2134 C 0.73829 0.14891 0.45168 0.0
C2135 C 0.7533 0.14637 0.43685 0.0
H2136 H 0.58228 0.0666 0.23303 0.0
H2137 H 0.66373 0.065 0.20751 0.0
H2138 H 0.59581 0.02315 0.24783 0.0
H2139 H 0.67695 0.02103 0.22231 0.0
H2140 H 0.6049 0.92539 0.23585 0.0
H2141 H 0.60885 0.9731 0.22369 0.0
H2142 H 0.67221 0.99684 0.25998 0.0
H2143 H 0.66865 0.9488 0.27221 0.0
C2144 C 0.60353 0.05767 0.23105 0.0
C2145 C 0.6216 0.06882 0.21879 0.0
C2146 C 0.61119 0.03275 0.23948 0.0
C2147 C 0.63711 0.01868 0.23591 0.0
C2148 C 0.65682 0.03162 0.22519 0.0
C2149 C 0.64923 0.05682 0.21679 0.0
C2150 C 0.62042 0.94035 0.24093 0.0
C2151 C 0.63608 0.93344 0.25515 0.0
C2152 C 0.62258 0.96765 0.234 0.0
C2153 C 0.64051 0.98852 0.24111 0.0
C2154 C 0.65826 0.98097 0.25435 0.0
C2155 C 0.65621 0.95347 0.26128 0.0
H2156 H 0.84658 0.83394 0.01038 0.0
H2157 H 0.79434 0.90543 0.026 0.0
H2158 H 0.81602 0.82747 0.98627 0.0
H2159 H 0.76416 0.89998 0.00156 0.0
H2160 H 0.69383 0.85432 0.9715 0.0
H2161 H 0.7282 0.86667 -0.00684 0.0
H2162 H 0.79845 0.84382 0.96087 0.0
H2163 H 0.76428 0.83035 0.93971 0.0
C2164 C 0.82934 0.84913 0.00815 0.0
C2165 C 0.823 0.87048 0.01974 0.0
C2166 C 0.81164 0.84537 -0.00559 0.0
C2167 C 0.78728 0.86296 -0.00795 0.0
C2168 C 0.78231 0.88566 0.00315 0.0
C2169 C 0.79988 0.8892 0.01696 0.0
C2170 C 0.71661 0.85179 0.96913 0.0
C2171 C 0.7263 0.84102 0.95399 0.0
C2172 C 0.73637 0.85919 0.98145 0.0
C2173 C 0.76621 0.85634 0.97877 0.0
C2174 C 0.77572 0.84588 0.96351 0.0
C2175 C 0.75604 0.83814 0.95134 0.0
H2176 H 0.6061 0.58281 0.76565 0.0
H2177 H 0.60625 0.50604 0.79545 0.0
H2178 H 0.60525 0.55286 0.74077 0.0
H2179 H 0.6055 0.47638 0.77076 0.0
H2180 H 0.6302 0.4343 0.72054 0.0
H2181 H 0.63541 0.46354 0.74555 0.0
H2182 H 0.56739 0.51949 0.72879 0.0
H2183 H 0.56188 0.4905 0.70417 0.0
C2184 C 0.60623 0.55962 0.76688 0.0
C2185 C 0.60594 0.54677 0.78247 0.0
C2186 C 0.60563 0.54249 0.75269 0.0
C2187 C 0.60518 0.51227 0.75387 0.0
C2188 C 0.60602 0.49955 0.76946 0.0
C2189 C 0.60622 0.5166 0.7836 0.0
C2190 C 0.61615 0.45262 0.72233 0.0
C2191 C 0.59564 0.46002 0.71035 0.0
C2192 C 0.61922 0.46942 0.73658 0.0
C2193 C 0.60211 0.49407 0.73895 0.0
C2194 C 0.58128 0.501 0.72714 0.0
C2195 C 0.57796 0.48412 0.71309 0.0
H2196 H 0.70707 0.30635 -8e-05 0.0
H2197 H 0.71043 0.39364 0.01806 0.0
H2198 H 0.74582 0.31689 0.98083 0.0
H2199 H 0.75004 0.40401 -0.0007 0.0
H2200 H 0.8328 0.32973 0.96105 0.0
H2201 H 0.79628 0.32468 0.98234 0.0
H2202 H 0.76426 0.40967 0.97094 0.0
H2203 H 0.80195 0.41495 0.95013 0.0
C2204 C 0.71599 0.32786 -0.00026 0.0
C2205 C 0.70579 0.3491 0.01051 0.0
C2206 C 0.73847 0.33384 0.98895 0.0
C2207 C 0.75159 0.36111 0.98883 0.0
C2208 C 0.74048 0.38279 -0.00091 0.0
C2209 C 0.71771 0.37686 0.00979 0.0
C2210 C 0.81858 0.34766 0.96359 0.0
C2211 C 0.82023 0.37283 0.95425 0.0
C2212 C 0.79734 0.34465 0.97554 0.0
C2213 C 0.77682 0.36647 0.97804 0.0
C2214 C 0.77972 0.39247 0.96936 0.0
C2215 C 0.80136 0.39563 0.95754 0.0
H2216 H 0.87549 0.53545 0.29663 0.0
H2217 H 0.89921 0.45284 0.27658 0.0
H2218 H 0.86786 0.554 0.26905 0.0
H2219 H 0.89333 0.47172 0.24881 0.0
H2220 H 0.86397 0.50599 0.20026 0.0
H2221 H 0.86267 0.48748 0.2282 0.0
H2222 H 0.89323 0.56955 0.2463 0.0
H2223 H 0.89281 0.58834 0.21836 0.0
C2224 C 0.87921 0.5213 0.28624 0.0
C2225 C 0.8881 0.49279 0.28869 0.0
C2226 C 0.87504 0.53199 0.2704 0.0
C2227 C 0.88029 0.51459 0.25656 0.0
C2228 C 0.88862 0.48575 0.25909 0.0
C2229 C 0.89219 0.47488 0.27501 0.0
C2230 C 0.87002 0.52013 0.21028 0.0
C2231 C 0.87854 0.54855 0.20719 0.0
C2232 C 0.86955 0.50946 0.22631 0.0
C2233 C 0.87821 0.52678 0.23962 0.0
C2234 C 0.88599 0.55557 0.23648 0.0
C2235 C 0.88587 0.56642 0.22045 0.0
H2236 H 0.83826 0.64213 0.51189 0.0
H2237 H 0.78749 0.61394 0.55318 0.0
H2238 H 0.79602 0.63679 0.4939 0.0
H2239 H 0.7457 0.60833 0.53538 0.0
H2240 H 0.71357 0.62236 0.46529 0.0
H2241 H 0.75397 0.60502 0.48202 0.0
H2242 H 0.72117 0.6527 0.5236 0.0
H2243 H 0.68164 0.67058 0.50678 0.0
C2244 C 0.81841 0.63376 0.51693 0.0
C2245 C 0.81572 0.62897 0.53386 0.0
C2246 C 0.79431 0.6306 0.50669 0.0
C2247 C 0.76754 0.62255 0.51337 0.0
C2248 C 0.76596 0.6149 0.52999 0.0
C2249 C 0.78981 0.61818 0.54015 0.0
C2250 C 0.71443 0.628 0.47822 0.0
C2251 C 0.69446 0.64742 0.48493 0.0
C2252 C 0.73766 0.61838 0.48768 0.0
C2253 C 0.74067 0.62755 0.50405 0.0
C2254 C 0.71919 0.64499 0.51107 0.0
C2255 C 0.69649 0.65513 0.50152 0.0
H2256 H 0.36394 0.58024 0.26851 0.0
H2257 H 0.39006 0.49809 0.28822 0.0
H2258 H 0.35757 0.55802 0.24144 0.0
H2259 H 0.38461 0.47626 0.26137 0.0
H2260 H 0.37395 0.43888 0.21208 0.0
H2261 H 0.3572 0.46104 0.23777 0.0
H2262 H 0.39365 0.54222 0.22251 0.0
H2263 H 0.4095 0.52044 0.19708 0.0
C2264 C 0.36785 0.5574 0.26713 0.0
C2265 C 0.37814 0.54105 0.28038 0.0
C2266 C 0.36427 0.54467 0.25164 0.0
C2267 C 0.37097 0.51541 0.24916 0.0
C2268 C 0.37902 0.49874 0.26278 0.0
C2269 C 0.38254 0.5114 0.27818 0.0
C2270 C 0.3776 0.46162 0.21412 0.0
C2271 C 0.39351 0.47783 0.2028 0.0
C2272 C 0.36817 0.4743 0.22882 0.0
C2273 C 0.37438 0.50337 0.23231 0.0
C2274 C 0.3882 0.51992 0.22027 0.0
C2275 C 0.39766 0.50729 0.20573 0.0
H2276 H 0.32561 0.63368 0.96026 0.0
H2277 H 0.24789 0.63839 0.93136 0.0
H2278 H 0.29681 0.63088 0.9853 0.0
H2279 H 0.21904 0.63419 0.95612 0.0
H2280 H 0.2415 0.61205 0.02827 0.0
H2281 H 0.26583 0.60478 0.00209 0.0
H2282 H 0.20437 0.66138 0.97869 0.0
H2283 H 0.17931 0.66721 0.0049 0.0
C2284 C 0.30238 0.63352 0.95926 0.0
C2285 C 0.28903 0.63655 0.94389 0.0
C2286 C 0.28574 0.63176 0.9736 0.0
C2287 C 0.25536 0.63249 0.97286 0.0
C2288 C 0.24223 0.63425 0.95732 0.0
C2289 C 0.25882 0.63648 0.94308 0.0
C2290 C 0.23273 0.62214 0.01736 0.0
C2291 C 0.20847 0.63998 0.01851 0.0
C2292 C 0.24693 0.61838 0.00239 0.0
C2293 C 0.23762 0.63296 0.98822 0.0
C2294 C 0.21218 0.64954 0.98923 0.0
C2295 C 0.19765 0.65287 0.00423 0.0
H2296 H 0.0899 0.59071 0.71754 0.0
H2297 H 0.11024 0.50961 0.69435 0.0
H2298 H 0.08898 0.56671 0.74443 0.0
H2299 H 0.10957 0.48594 0.72096 0.0
H2300 H 0.12033 0.45227 0.77253 0.0
H2301 H 0.13321 0.48332 0.74927 0.0
H2302 H 0.05317 0.5294 0.75494 0.0
H2303 H 0.0403 0.4985 0.77787 0.0
C2304 C 0.09464 0.56794 0.71823 0.0
C2305 C 0.09969 0.55192 0.70387 0.0
C2306 C 0.09411 0.55423 0.73356 0.0
C2307 C 0.09922 0.52446 0.73475 0.0
C2308 C 0.10587 0.50892 0.72046 0.0
C2309 C 0.10591 0.52245 0.70519 0.0
C2310 C 0.10581 0.46937 0.76894 0.0
C2311 C 0.07918 0.47278 0.77682 0.0
C2312 C 0.11312 0.48708 0.75566 0.0
C2313 C 0.09416 0.50877 0.75033 0.0
C2314 C 0.06834 0.51311 0.75888 0.0
C2315 C 0.06085 0.49519 0.77189 0.0
H2316 H 0.2027 0.37966 0.44999 0.0
H2317 H 0.24026 0.29478 0.45211 0.0
H2318 H 0.23621 0.39594 0.47137 0.0
H2319 H 0.27362 0.31104 0.47326 0.0
H2320 H 0.34179 0.35108 0.50525 0.0
H2321 H 0.31534 0.34478 0.47926 0.0
H2322 H 0.24009 0.38308 0.50139 0.0
H2323 H 0.26627 0.389 0.52713 0.0
C2324 C 0.21826 0.36459 0.45488 0.0
C2325 C 0.21861 0.33586 0.44948 0.0
C2326 C 0.23745 0.3739 0.46709 0.0
C2327 C 0.25766 0.3548 0.47394 0.0
C2328 C 0.25863 0.3264 0.46808 0.0
C2329 C 0.23924 0.317 0.45608 0.0
C2330 C 0.3199 0.35891 0.50431 0.0
C2331 C 0.30597 0.37043 0.51813 0.0
C2332 C 0.30469 0.35511 0.48954 0.0
C2333 C 0.27555 0.36328 0.48833 0.0
C2334 C 0.2625 0.37677 0.50185 0.0
C2335 C 0.27747 0.38006 0.51661 0.0
H2336 H 0.02152 0.21537 0.32777 0.0
H2337 H 0.06084 0.24808 0.28357 0.0
H2338 H 0.99943 0.26238 0.33273 0.0
H2339 H 0.03838 0.29465 0.28829 0.0
H2340 H 0.0204 0.38244 0.31097 0.0
H2341 H 0.04179 0.33542 0.30698 0.0
H2342 H 0.96228 0.29514 0.3216 0.0
H2343 H 0.94047 0.34224 0.32543 0.0
C2344 C 0.02551 0.23256 0.31912 0.0
C2345 C 0.043 0.22779 0.30525 0.0
C2346 C 0.01261 0.25946 0.32188 0.0
C2347 C 0.01709 0.28243 0.31092 0.0
C2348 C 0.03464 0.27763 0.2971 0.0
C2349 C 0.04732 0.25074 0.29428 0.0
C2350 C 1.00718 0.36377 0.31324 0.0
C2351 C 0.97842 0.3667 0.31846 0.0
C2352 C 0.01959 0.3366 0.31093 0.0
C2353 C 1.0038 0.31135 0.31386 0.0
C2354 C 0.97523 0.31408 0.31936 0.0
C2355 C 0.96268 0.34131 0.32156 0.0
H2356 H 0.97821 0.68553 0.57756 0.0
H2357 H 0.96152 0.73888 0.53517 0.0
H2358 H 0.02785 0.70093 0.57771 0.0
H2359 H 0.01172 0.7546 0.53545 0.0
H2360 H 0.09641 0.79827 0.55402 0.0
H2361 H 0.04668 0.78277 0.55102 0.0
H2362 H 0.07182 0.69576 0.56257 0.0
H2363 H 0.12142 0.71122 0.56573 0.0
C2364 C 0.98505 0.70031 0.5681 0.0
C2365 C 0.96552 0.71064 0.55622 0.0
C2366 C 0.01378 0.70919 0.5682 0.0
C2367 C 0.02409 0.72881 0.55648 0.0
C2368 C 1.00457 0.73959 0.54474 0.0
C2369 C 0.97569 0.73058 0.54459 0.0
C2370 C 0.09157 0.77575 0.55571 0.0
C2371 C 0.11323 0.75617 0.56045 0.0
C2372 C 0.06286 0.76682 0.55395 0.0
C2373 C 0.05498 0.73805 0.55681 0.0
C2374 C 0.07684 0.71824 0.56069 0.0
C2375 C 0.10545 0.72714 0.56246 0.0
H2376 H 0.48431 0.8352 0.8332 0.0
H2377 H 0.49776 0.83547 0.78066 0.0
H2378 H 0.49939 0.7853 0.83437 0.0
H2379 H 0.5144 0.78586 0.78197 0.0
H2380 H 0.5121 0.68807 0.78717 0.0
H2381 H 0.49685 0.73812 0.78606 0.0
H2382 H 0.53963 0.75438 0.83232 0.0
H2383 H 0.55397 0.70418 0.83372 0.0
C2384 C 0.49064 0.82474 0.82187 0.0
C2385 C 0.4896 0.83958 0.8068 0.0
C2386 C 0.49965 0.79607 0.82258 0.0
C2387 C 0.50812 0.78135 0.80827 0.0
C2388 C 0.50765 0.7963 0.79323 0.0
C2389 C 0.49849 0.825 0.79251 0.0
C2390 C 0.51796 0.70218 0.79721 0.0
C2391 C 0.53421 0.69187 0.81056 0.0
C2392 C 0.50957 0.73109 0.79645 0.0
C2393 C 0.51716 0.75051 0.80903 0.0
C2394 C 0.53323 0.74013 0.82243 0.0
C2395 C 0.54167 0.71127 0.82317 0.0
H2396 H 0.40321 0.26915 0.05333 0.0
H2397 H 0.44586 0.19135 0.06933 0.0
H2398 H 0.4492 0.29193 0.04952 0.0
H2399 H 0.49228 0.21457 0.06532 0.0
H2400 H 0.57137 0.2761 0.06834 0.0
H2401 H 0.52576 0.25228 0.07447 0.0
H2402 H 0.48825 0.28974 0.03094 0.0
H2403 H 0.53258 0.31432 0.02524 0.0
C2404 C 0.42218 0.25661 0.05601 0.0
C2405 C 0.42013 0.22795 0.06149 0.0
C2406 C 0.44888 0.26987 0.05374 0.0
C2407 C 0.4747 0.25509 0.05686 0.0
C2408 C 0.47291 0.22674 0.06283 0.0
C2409 C 0.44605 0.21333 0.06507 0.0
C2410 C 0.5534 0.27949 0.06012 0.0
C2411 C 0.55622 0.29738 0.04622 0.0
C2412 C 0.52721 0.26553 0.06358 0.0
C2413 C 0.50308 0.26913 0.05328 0.0
C2414 C 0.50604 0.28676 0.03937 0.0
C2415 C 0.53197 0.30069 0.03596 0.0
H2416 H 0.98552 0.66809 0.20258 0.0
H2417 H 0.9593 0.68784 0.15296 0.0
H2418 H 1.00772 0.71528 0.20504 0.0
H2419 H 0.9814 0.73555 0.15551 0.0
H2420 H 0.05074 0.80837 0.16257 0.0
H2421 H 0.03028 0.76002 0.15879 0.0
H2422 H 0.99125 0.76555 0.2068 0.0
H2423 H 0.01166 0.81331 0.21055 0.0
C2424 C 0.98469 0.68235 0.19211 0.0
C2425 C 0.9707 0.67387 0.17753 0.0
C2426 C 0.99724 0.70963 0.19358 0.0
C2427 C 0.99642 0.72933 0.18048 0.0
C2428 C 0.98269 0.72086 0.1658 0.0
C2429 C 0.9698 0.69358 0.16439 0.0
C2430 C 0.03795 0.79911 0.17233 0.0
C2431 C 0.03276 0.81484 0.18684 0.0
C2432 C 0.026 0.77153 0.17011 0.0
C2433 C 0.00906 0.75881 0.18249 0.0
C2434 C 1.00432 0.77446 0.19705 0.0
C2435 C 0.01586 0.80203 0.19915 0.0
H2436 H 0.55457 0.70791 0.4225 0.0
H2437 H 0.54763 0.75507 0.46813 0.0
H2438 H 0.50917 0.72872 0.4133 0.0
H2439 H 0.50179 0.77454 0.45937 0.0
H2440 H 0.43236 0.8262 0.43415 0.0
H2441 H 0.47919 0.80737 0.44163 0.0
H2442 H 0.45886 0.72714 0.41747 0.0
H2443 H 0.41267 0.74633 0.40924 0.0
C2444 C 0.54349 0.72271 0.43059 0.0
C2445 C 0.555 0.72963 0.44613 0.0
C2446 C 0.51715 0.73444 0.42538 0.0
C2447 C 0.50152 0.75341 0.43556 0.0
C2448 C 0.51319 0.7604 0.45103 0.0
C2449 C 0.53947 0.7488 0.45619 0.0
C2450 C 0.43772 0.80464 0.43025 0.0
C2451 C 0.41809 0.78795 0.42107 0.0
C2452 C 0.46473 0.79364 0.43473 0.0
C2453 C 0.47303 0.76555 0.43027 0.0
C2454 C 0.45357 0.74896 0.42101 0.0
C2455 C 0.42664 0.75998 0.41645 0.0
H2456 H 0.5214 0.17814 0.69777 0.0
H2457 H 0.47577 0.19429 0.65231 0.0
H2458 H 0.53924 0.22758 0.69747 0.0
H2459 H 0.49266 0.24341 0.65251 0.0
H2460 H 0.49747 0.33664 0.66915 0.0
H2461 H 0.48324 0.2866 0.6705 0.0
H2462 H 0.57103 0.26198 0.68029 0.0
H2463 H 0.58578 0.31225 0.67852 0.0
C2464 C 0.51524 0.19191 0.68767 0.0
C2465 C 0.49661 0.18187 0.67522 0.0
C2466 C 0.52547 0.22034 0.68754 0.0
C2467 C 0.51702 0.23952 0.6751 0.0
C2468 C 0.49911 0.22935 0.66246 0.0
C2469 C 0.48929 0.20098 0.66243 0.0
C2470 C 0.51398 0.3208 0.67147 0.0
C2471 C 0.54298 0.32891 0.67342 0.0
C2472 C 0.5057 0.29196 0.67229 0.0
C2473 C 0.52604 0.27027 0.67531 0.0
C2474 C 0.55484 0.27823 0.67797 0.0
C2475 C 0.56326 0.30718 0.67697 0.0
H2476 H 0.06676 0.20564 0.91774 0.0
H2477 H 0.1032 0.2762 0.94515 0.0
H2478 H 0.01939 0.227 0.91995 0.0
H2479 H 0.05533 0.29758 0.94791 0.0
H2480 H 0.97124 0.34294 0.93198 0.0
H2481 H 0.01886 0.32168 0.93367 0.0
H2482 H 0.98046 0.23723 0.93677 0.0
H2483 H 0.9329 0.25868 0.93419 0.0
C2484 C 0.06452 0.22544 0.92461 0.0
C2485 C 0.08877 0.23903 0.93143 0.0
C2486 C 0.0372 0.23779 0.92593 0.0
C2487 C 0.03314 0.26404 0.93427 0.0
C2488 C 0.05746 0.27755 0.94123 0.0
C2489 C 0.08494 0.26527 0.93973 0.0
C2490 C 0.97287 0.31991 0.93323 0.0
C2491 C 0.94812 0.30253 0.93265 0.0
C2492 C 1.00036 0.3076 0.93427 0.0
C2493 C 1.00384 0.27754 0.93505 0.0
C2494 C 0.9789 0.26036 0.93564 0.0
C2495 C 0.95151 0.27266 0.93433 0.0
H2496 H 0.97848 0.82205 0.70368 0.0
H2497 H 0.93347 0.80891 0.65776 0.0
H2498 H 0.99994 0.77465 0.70119 0.0
H2499 H 0.95477 0.76125 0.65547 0.0
H2500 H 0.97228 0.66613 0.6667 0.0
H2501 H 0.9518 0.71392 0.66948 0.0
H2502 H 0.03461 0.74697 0.68427 0.0
H2503 H 0.05549 0.6992 0.68113 0.0
C2504 C 0.97277 0.80912 0.69311 0.0
C2505 C 0.95328 0.81941 0.68118 0.0
C2506 C 0.98542 0.78188 0.69163 0.0
C2507 C 0.97885 0.76391 0.67824 0.0
C2508 C 0.95989 0.77429 0.66612 0.0
C2509 C 0.9476 0.80175 0.66746 0.0
C2510 C 0.98634 0.68343 0.67048 0.0
C2511 C 0.0158 0.6784 0.67352 0.0
C2512 C 0.97449 0.71099 0.67205 0.0
C2513 C 0.99156 0.73442 0.67695 0.0
C2514 C 0.02076 0.72939 0.68055 0.0
C2515 C 0.03275 0.70182 0.6788 0.0
H2516 H 0.05245 0.29499 0.40468 0.0
H2517 H 0.06248 0.25309 0.45168 0.0
H2518 H 1.00341 0.27737 0.40289 0.0
H2519 H 0.01309 0.2356 0.44988 0.0
H2520 H 0.93274 0.18486 0.43084 0.0
H2521 H 0.98178 0.20209 0.4344 0.0
H2522 H 0.95665 0.28535 0.41611 0.0
H2523 H 0.90778 0.26854 0.41261 0.0
C2524 C 0.04439 0.28209 0.41468 0.0
C2525 C 0.06174 0.27596 0.42846 0.0
C2526 C 0.01598 0.27207 0.41369 0.0
C2527 C 1.00402 0.25523 0.42632 0.0
C2528 C 0.0215 0.24845 0.4399 0.0
C2529 C 0.04986 0.25875 0.44099 0.0
C2530 C 0.93733 0.2069 0.42765 0.0
C2531 C 0.91579 0.22484 0.42094 0.0
C2532 C 0.96569 0.21684 0.42976 0.0
C2533 C 0.97345 0.24499 0.42523 0.0
C2534 C 0.95175 0.2633 0.41931 0.0
C2535 C 0.92345 0.25351 0.41733 0.0
H2536 H 0.49028 0.33597 0.15701 0.0
H2537 H 0.47578 0.3254 0.20904 0.0
H2538 H 0.51328 0.28851 0.15599 0.0
H2539 H 0.49915 0.27868 0.20811 0.0
H2540 H 0.509 0.18308 0.1969 0.0
H2541 H 0.48889 0.2313 0.19742 0.0
H2542 H 0.55682 0.2607 0.16545 0.0
H2543 H 0.57687 0.2117 0.16477 0.0
C2544 C 0.4919 0.32358 0.16822 0.0
C2545 C 0.48107 0.33469 0.18312 0.0
C2546 C 0.50543 0.29649 0.16767 0.0
C2547 C 0.50815 0.27963 0.18197 0.0
C2548 C 0.49729 0.29082 0.19681 0.0
C2549 C 0.48403 0.31785 0.19738 0.0
C2550 C 0.51973 0.19978 0.18998 0.0
C2551 C 0.54449 0.1934 0.18076 0.0
C2552 C 0.50829 0.22758 0.19038 0.0
C2553 C 0.52114 0.25008 0.18149 0.0
C2554 C 0.54618 0.24389 0.17235 0.0
C2555 C 0.55788 0.21591 0.17209 0.0
H2556 H 0.58238 0.72908 0.93509 0.0
H2557 H 0.55517 0.8121 0.91694 0.0
H2558 H 0.53313 0.71261 0.93444 0.0
H2559 H 0.50591 0.79497 0.91552 0.0
H2560 H 0.41501 0.76207 0.92818 0.0
H2561 H 0.46394 0.7809 0.93065 0.0
H2562 H 0.49776 0.69837 0.91599 0.0
H2563 H 0.44966 0.67956 0.91383 0.0
C2564 C 0.56609 0.74398 0.93096 0.0
C2565 C 0.57334 0.7721 0.92611 0.0
C2566 C 0.5376 0.73432 0.93039 0.0
C2567 C 0.51527 0.7523 0.92481 0.0
C2568 C 0.52235 0.7805 0.92006 0.0
C2569 C 0.55091 0.79026 0.9207 0.0
C2570 C 0.43287 0.74787 0.92557 0.0
C2571 C 0.42795 0.71915 0.92081 0.0
C2572 C 0.46103 0.75878 0.92684 0.0
C2573 C 0.48504 0.74119 0.9235 0.0
C2574 C 0.48001 0.71255 0.9188 0.0
C2575 C 0.45207 0.70176 0.91743 0.0
H2576 H 0.93634 0.18528 0.78863 0.0
H2577 H 0.01407 0.16781 0.81607 0.0
H2578 H 0.94926 0.23608 0.78756 0.0
H2579 H 0.02737 0.21801 0.81437 0.0
H2580 H 0.03047 0.31382 0.82358 0.0
H2581 H 0.0141 0.26434 0.8252 0.0
H2582 H 0.98335 0.26908 0.77518 0.0
H2583 H 0.99901 0.31896 0.77367 0.0
C2584 C 0.95623 0.19204 0.79435 0.0
C2585 C 0.97411 0.17197 0.80237 0.0
C2586 C 0.96377 0.22127 0.79363 0.0
C2587 C 0.98936 0.23132 0.80093 0.0
C2588 C 1.00729 0.21126 0.80881 0.0
C2589 C 0.9998 0.18215 0.80953 0.0
C2590 C 0.01998 0.30463 0.81294 0.0
C2591 C 0.01652 0.32065 0.79838 0.0
C2592 C 0.01079 0.27596 0.81383 0.0
C2593 C 0.99764 0.26244 0.80026 0.0
C2594 C 0.99327 0.2787 0.78591 0.0
C2595 C 1.00257 0.30734 0.78499 0.0
H2596 H 0.59797 0.2866 0.54515 0.0
H2597 H 0.5685 0.20158 0.55787 0.0
H2598 H 0.54856 0.30373 0.54488 0.0
H2599 H 0.51899 0.21874 0.55797 0.0
H2600 H 0.43072 0.2526 0.54271 0.0
H2601 H 0.47977 0.23492 0.54205 0.0
H2602 H 0.50975 0.31564 0.56202 0.0
H2603 H 0.46109 0.33392 0.56192 0.0
C2604 C 0.58097 0.27154 0.54799 0.0
C2605 C 0.58746 0.24268 0.55159 0.0
C2606 C 0.55249 0.28142 0.54792 0.0
C2607 C 0.52948 0.2628 0.55155 0.0
C2608 C 0.53593 0.23376 0.5549 0.0
C2609 C 0.56447 0.22384 0.55486 0.0
C2610 C 0.44762 0.26683 0.54684 0.0
C2611 C 0.44132 0.29495 0.55227 0.0
C2612 C 0.47597 0.25645 0.54663 0.0
C2613 C 0.49906 0.27374 0.55193 0.0
C2614 C 0.49279 0.30172 0.55755 0.0
C2615 C 0.46449 0.31217 0.55767 0.0
H2616 H 0.54493 0.8061 0.30777 0.0
H2617 H 0.59183 0.76277 0.26923 0.0
H2618 H 0.51439 0.76381 0.31104 0.0
H2619 H 0.56139 0.72073 0.27241 0.0
H2620 H 0.52388 0.63885 0.294 0.0
H2621 H 0.55263 0.68198 0.29063 0.0
H2622 H 0.47737 0.73441 0.29893 0.0
H2623 H 0.44848 0.69118 0.30236 0.0
C2624 C 0.54857 0.78777 0.29984 0.0
C2625 C 0.57115 0.788 0.28828 0.0
C2626 C 0.53099 0.76339 0.30172 0.0
C2627 C 0.53543 0.73851 0.2921 0.0
C2628 C 0.5576 0.73907 0.28033 0.0
C2629 C 0.57514 0.76335 0.27847 0.0
C2630 C 0.51324 0.65946 0.29496 0.0
C2631 C 0.48361 0.66113 0.29843 0.0
C2632 C 0.52985 0.68439 0.293 0.0
C2633 C 0.51747 0.71194 0.29441 0.0
C2634 C 0.48787 0.7137 0.29795 0.0
C2635 C 0.4712 0.68872 0.29991 0.0
H2636 H 0.96986 0.83395 0.05919 0.0
H2637 H 0.93526 0.75456 0.04024 0.0
H2638 H 0.01832 0.81522 0.0563 0.0
H2639 H 0.98383 0.73597 0.03659 0.0
H2640 H 0.07259 0.69875 0.04838 0.0
H2641 H 0.0239 0.71739 0.04932 0.0
H2642 H 0.05627 0.80282 0.03966 0.0
H2643 H 0.10512 0.78417 0.0397 0.0
C2644 C 0.97257 0.81265 0.05411 0.0
C2645 C 0.94845 0.79583 0.05001 0.0
C2646 C 1.00059 0.8018 0.05236 0.0
C2647 C 1.00553 0.77385 0.04617 0.0
C2648 C 0.98129 0.75729 0.04172 0.0
C2649 C 0.95325 0.76803 0.04372 0.0
C2650 C 0.06942 0.72147 0.04638 0.0
C2651 C 0.09317 0.73991 0.04429 0.0
C2652 C 0.04121 0.73229 0.04681 0.0
C2653 C 0.03564 0.76191 0.04477 0.0
C2654 C 0.05936 0.78008 0.0418 0.0
C2655 C 0.08758 0.7693 0.04167 0.0
loop_
_geom_bond_atom_site_label_1
_geom_bond_atom_site_label_2
_geom_bond_distance
_geom_bond_site_symmetry_2
_ccdc_geom_bond_type
C0 C1 1.351 . S
C0 N3 1.368 . S
C0 H5 0.931 . S
C1 C0 1.351 . S
C1 N2 1.373 . S
C1 H29 0.930 . S
N2 C1 1.373 . S
N2 C4 1.340 . S
N3 C0 1.368 . S
N3 C4 1.321 . S
N3 Co6 2.135 . S
C4 N2 1.340 . S
C4 N3 1.321 . S
C4 H28 0.930 . S
H5 C0 0.931 . S
Co6 N3 2.135 . S
Co6 N9 2.121 . S
Co6 O14 2.055 . S
Co6 O17 2.039 . S
Co6 N20 2.140 . S
C7 O8 1.227 . S
C7 O17 1.265 . S
O8 C7 1.227 . S
N9 Co6 2.121 . S
N9 C11 1.375 . S
N9 C12 1.313 . S
C10 C11 1.338 . S
C10 N13 1.377 . S
C10 H30 0.930 . S
C11 N9 1.375 . S
C11 C10 1.338 . S
C11 H15 0.931 . S
C12 N9 1.313 . S
C12 N13 1.344 . S
C12 H16 0.930 . S
N13 C10 1.377 . S
N13 C12 1.344 . S
O14 Co6 2.055 . S
O14 C18 1.253 . S
H15 C11 0.931 . S
H16 C12 0.930 . S
O17 Co6 2.039 . S
O17 C7 1.265 . S
C18 O14 1.253 . S
C18 O19 1.227 . S
O19 C18 1.227 . S
N20 Co6 2.140 . S
N20 C23 1.346 . S
N20 C24 1.345 . S
C21 C22 1.387 . S
C21 C25 1.391 . S
C22 C21 1.387 . S
C22 C23 1.369 . S
C22 H31 0.929 . S
C23 N20 1.346 . S
C23 C22 1.369 . S
C23 H26 0.928 . S
C24 N20 1.345 . S
C24 C25 1.371 . S
C24 H27 0.931 . S
C25 C21 1.391 . S
C25 C24 1.371 . S
C25 H32 0.930 . S
H26 C23 0.928 . S
H27 C24 0.931 . S
H28 C4 0.930 . S
H29 C1 0.930 . S
H30 C10 0.930 . S
H31 C22 0.929 . S
H32 C25 0.930 . S
C33 C34 1.351 . S
C33 N36 1.368 . S
C33 H38 0.931 . S
C34 C33 1.351 . S
C34 N35 1.373 . S
C34 H62 0.930 . S
N35 C34 1.373 . S
N35 C37 1.340 . S
N36 C33 1.368 . S
N36 C37 1.321 . S
N36 Co39 2.135 . S
C37 N35 1.340 . S
C37 N36 1.321 . S
C37 H61 0.930 . S
H38 C33 0.931 . S
Co39 N36 2.135 . S
Co39 N42 2.121 . S
Co39 O47 2.055 . S
Co39 O50 2.039 . S
Co39 N53 2.140 . S
C40 O41 1.227 . S
C40 O50 1.265 . S
O41 C40 1.227 . S
N42 Co39 2.121 . S
N42 C44 1.375 . S
N42 C45 1.313 . S
C43 C44 1.338 . S
C43 N46 1.377 . S
C43 H63 0.930 . S
C44 N42 1.375 . S
C44 C43 1.338 . S
C44 H48 0.931 . S
C45 N42 1.313 . S
C45 N46 1.344 . S
C45 H49 0.930 . S
N46 C43 1.377 . S
N46 C45 1.344 . S
O47 Co39 2.055 . S
O47 C51 1.253 . S
H48 C44 0.931 . S
H49 C45 0.930 . S
O50 Co39 2.039 . S
O50 C40 1.265 . S
C51 O47 1.253 . S
C51 O52 1.227 . S
O52 C51 1.227 . S
N53 Co39 2.140 . S
N53 C56 1.346 . S
N53 C57 1.345 . S
C54 C55 1.387 . S
C54 C58 1.391 . S
C55 C54 1.387 . S
C55 C56 1.369 . S
C55 H64 0.929 . S
C56 N53 1.346 . S
C56 C55 1.369 . S
C56 H59 0.928 . S
C57 N53 1.345 . S
C57 C58 1.371 . S
C57 H60 0.931 . S
C58 C54 1.391 . S
C58 C57 1.371 . S
C58 H65 0.930 . S
H59 C56 0.928 . S
H60 C57 0.931 . S
H61 C37 0.930 . S
H62 C34 0.930 . S
H63 C43 0.930 . S
H64 C55 0.929 . S
H65 C58 0.930 . S
C66 C67 1.351 . S
C66 N69 1.368 . S
C66 H71 0.931 . S
C67 C66 1.351 . S
C67 N68 1.373 . S
C67 H95 0.930 . S
N68 C67 1.373 . S
N68 C70 1.340 . S
N69 C66 1.368 . S
N69 C70 1.321 . S
N69 Co72 2.135 . S
C70 N68 1.340 . S
C70 N69 1.321 . S
C70 H94 0.930 . S
H71 C66 0.931 . S
Co72 N69 2.135 . S
Co72 N75 2.121 . S
Co72 O80 2.055 . S
Co72 O83 2.039 . S
Co72 N86 2.140 . S
C73 O74 1.227 . S
C73 O83 1.265 . S
O74 C73 1.227 . S
N75 Co72 2.121 . S
N75 C77 1.375 . S
N75 C78 1.313 . S
C76 C77 1.338 . S
C76 N79 1.377 . S
C76 H96 0.930 . S
C77 N75 1.375 . S
C77 C76 1.338 . S
C77 H81 0.931 . S
C78 N75 1.313 . S
C78 N79 1.344 . S
C78 H82 0.930 . S
N79 C76 1.377 . S
N79 C78 1.344 . S
O80 Co72 2.055 . S
O80 C84 1.253 . S
H81 C77 0.931 . S
H82 C78 0.930 . S
O83 Co72 2.039 . S
O83 C73 1.265 . S
C84 O80 1.253 . S
C84 O85 1.227 . S
O85 C84 1.227 . S
N86 Co72 2.140 . S
N86 C89 1.346 . S
N86 C90 1.345 . S
C87 C88 1.387 . S
C87 C91 1.391 . S
C88 C87 1.387 . S
C88 C89 1.369 . S
C88 H97 0.929 . S
C89 N86 1.346 . S
C89 C88 1.369 . S
C89 H92 0.928 . S
C90 N86 1.345 . S
C90 C91 1.371 . S
C90 H93 0.931 . S
C91 C87 1.391 . S
C91 C90 1.371 . S
C91 H98 0.930 . S
H92 C89 0.928 . S
H93 C90 0.931 . S
H94 C70 0.930 . S
H95 C67 0.930 . S
H96 C76 0.930 . S
H97 C88 0.929 . S
H98 C91 0.930 . S
C99 C100 1.351 . S
C99 N102 1.368 . S
C99 H104 0.931 . S
C100 C99 1.351 . S
C100 N101 1.373 . S
C100 H128 0.930 . S
N101 C100 1.373 . S
N101 C103 1.340 . S
N102 C99 1.368 . S
N102 C103 1.321 . S
N102 Co105 2.135 . S
C103 N101 1.340 . S
C103 N102 1.321 . S
C103 H127 0.930 . S
H104 C99 0.931 . S
Co105 N102 2.135 . S
Co105 N108 2.121 . S
Co105 O113 2.055 . S
Co105 O116 2.039 . S
Co105 N119 2.140 . S
C106 O107 1.227 . S
C106 O116 1.265 . S
O107 C106 1.227 . S
N108 Co105 2.121 . S
N108 C110 1.375 . S
N108 C111 1.313 . S
C109 C110 1.338 . S
C109 N112 1.377 . S
C109 H129 0.930 . S
C110 N108 1.375 . S
C110 C109 1.338 . S
C110 H114 0.931 . S
C111 N108 1.313 . S
C111 N112 1.344 . S
C111 H115 0.930 . S
N112 C109 1.377 . S
N112 C111 1.344 . S
O113 Co105 2.055 . S
O113 C117 1.253 . S
H114 C110 0.931 . S
H115 C111 0.930 . S
O116 Co105 2.039 . S
O116 C106 1.265 . S
C117 O113 1.253 . S
C117 O118 1.227 . S
O118 C117 1.227 . S
N119 Co105 2.140 . S
N119 C122 1.346 . S
N119 C123 1.345 . S
C120 C121 1.387 . S
C120 C124 1.391 . S
C121 C120 1.387 . S
C121 C122 1.369 . S
C121 H130 0.929 . S
C122 N119 1.346 . S
C122 C121 1.369 . S
C122 H125 0.928 . S
C123 N119 1.345 . S
C123 C124 1.371 . S
C123 H126 0.931 . S
C124 C120 1.391 . S
C124 C123 1.371 . S
C124 H131 0.930 . S
H125 C122 0.928 . S
H126 C123 0.931 . S
H127 C103 0.930 . S
H128 C100 0.930 . S
H129 C109 0.930 . S
H130 C121 0.929 . S
H131 C124 0.930 . S
C132 C133 1.351 . S
C132 N135 1.368 . S
C132 H137 0.931 . S
C133 C132 1.351 . S
C133 N134 1.373 . S
C133 H161 0.930 . S
N134 C133 1.373 . S
N134 C136 1.340 . S
N135 C132 1.368 . S
N135 C136 1.321 . S
N135 Co138 2.135 . S
C136 N134 1.340 . S
C136 N135 1.321 . S
C136 H160 0.930 . S
H137 C132 0.931 . S
Co138 N135 2.135 . S
Co138 N141 2.121 . S
Co138 O146 2.055 . S
Co138 O149 2.039 . S
Co138 N152 2.140 . S
C139 O140 1.227 . S
C139 O149 1.265 . S
O140 C139 1.227 . S
N141 Co138 2.121 . S
N141 C143 1.375 . S
N141 C144 1.313 . S
C142 C143 1.338 . S
C142 N145 1.377 . S
C142 H162 0.930 . S
C143 N141 1.375 . S
C143 C142 1.338 . S
C143 H147 0.931 . S
C144 N141 1.313 . S
C144 N145 1.344 . S
C144 H148 0.930 . S
N145 C142 1.377 . S
N145 C144 1.344 . S
O146 Co138 2.055 . S
O146 C150 1.253 . S
H147 C143 0.931 . S
H148 C144 0.930 . S
O149 Co138 2.039 . S
O149 C139 1.265 . S
C150 O146 1.253 . S
C150 O151 1.227 . S
O151 C150 1.227 . S
N152 Co138 2.140 . S
N152 C155 1.346 . S
N152 C156 1.345 . S
C153 C154 1.387 . S
C153 C157 1.391 . S
C154 C153 1.387 . S
C154 C155 1.369 . S
C154 H163 0.929 . S
C155 N152 1.346 . S
C155 C154 1.369 . S
C155 H158 0.928 . S
C156 N152 1.345 . S
C156 C157 1.371 . S
C156 H159 0.931 . S
C157 C153 1.391 . S
C157 C156 1.371 . S
C157 H164 0.930 . S
H158 C155 0.928 . S
H159 C156 0.931 . S
H160 C136 0.930 . S
H161 C133 0.930 . S
H162 C142 0.930 . S
H163 C154 0.929 . S
H164 C157 0.930 . S
C165 C166 1.351 . S
C165 N168 1.368 . S
C165 H170 0.931 . S
C166 C165 1.351 . S
C166 N167 1.373 . S
C166 H194 0.930 . S
N167 C166 1.373 . S
N167 C169 1.340 . S
N168 C165 1.368 . S
N168 C169 1.321 . S
N168 Co171 2.135 . S
C169 N167 1.340 . S
C169 N168 1.321 . S
C169 H193 0.930 . S
H170 C165 0.931 . S
Co171 N168 2.135 . S
Co171 N174 2.121 . S
Co171 O179 2.055 . S
Co171 O182 2.039 . S
Co171 N185 2.140 . S
C172 O173 1.227 . S
C172 O182 1.265 . S
O173 C172 1.227 . S
N174 Co171 2.121 . S
N174 C176 1.375 . S
N174 C177 1.313 . S
C175 C176 1.338 . S
C175 N178 1.377 . S
C175 H195 0.930 . S
C176 N174 1.375 . S
C176 C175 1.338 . S
C176 H180 0.931 . S
C177 N174 1.313 . S
C177 N178 1.344 . S
C177 H181 0.930 . S
N178 C175 1.377 . S
N178 C177 1.344 . S
O179 Co171 2.055 . S
O179 C183 1.253 . S
H180 C176 0.931 . S
H181 C177 0.930 . S
O182 Co171 2.039 . S
O182 C172 1.265 . S
C183 O179 1.253 . S
C183 O184 1.227 . S
O184 C183 1.227 . S
N185 Co171 2.140 . S
N185 C188 1.346 . S
N185 C189 1.345 . S
C186 C187 1.387 . S
C186 C190 1.391 . S
C187 C186 1.387 . S
C187 C188 1.369 . S
C187 H196 0.929 . S
C188 N185 1.346 . S
C188 C187 1.369 . S
C188 H191 0.928 . S
C189 N185 1.345 . S
C189 C190 1.371 . S
C189 H192 0.931 . S
C190 C186 1.391 . S
C190 C189 1.371 . S
C190 H197 0.930 . S
H191 C188 0.928 . S
H192 C189 0.931 . S
H193 C169 0.930 . S
H194 C166 0.930 . S
H195 C175 0.930 . S
H196 C187 0.929 . S
H197 C190 0.930 . S
C198 C199 1.351 . S
C198 N201 1.368 . S
C198 H203 0.931 . S
C199 C198 1.351 . S
C199 N200 1.373 . S
C199 H227 0.930 . S
N200 C199 1.373 . S
N200 C202 1.340 . S
N201 C198 1.368 . S
N201 C202 1.321 . S
N201 Co204 2.135 . S
C202 N200 1.340 . S
C202 N201 1.321 . S
C202 H226 0.930 . S
H203 C198 0.931 . S
Co204 N201 2.135 . S
Co204 N207 2.121 . S
Co204 O212 2.055 . S
Co204 O215 2.039 . S
Co204 N218 2.140 . S
C205 O206 1.227 . S
C205 O215 1.265 . S
O206 C205 1.227 . S
N207 Co204 2.121 . S
N207 C209 1.375 . S
N207 C210 1.313 . S
C208 C209 1.338 . S
C208 N211 1.377 . S
C208 H228 0.930 . S
C209 N207 1.375 . S
C209 C208 1.338 . S
C209 H213 0.931 . S
C210 N207 1.313 . S
C210 N211 1.344 . S
C210 H214 0.930 . S
N211 C208 1.377 . S
N211 C210 1.344 . S
O212 Co204 2.055 . S
O212 C216 1.253 . S
H213 C209 0.931 . S
H214 C210 0.930 . S
O215 Co204 2.039 . S
O215 C205 1.265 . S
C216 O212 1.253 . S
C216 O217 1.227 . S
O217 C216 1.227 . S
N218 Co204 2.140 . S
N218 C221 1.346 . S
N218 C222 1.345 . S
C219 C220 1.387 . S
C219 C223 1.391 . S
C220 C219 1.387 . S
C220 C221 1.369 . S
C220 H229 0.929 . S
C221 N218 1.346 . S
C221 C220 1.369 . S
C221 H224 0.928 . S
C222 N218 1.345 . S
C222 C223 1.371 . S
C222 H225 0.931 . S
C223 C219 1.391 . S
C223 C222 1.371 . S
C223 H230 0.930 . S
H224 C221 0.928 . S
H225 C222 0.931 . S
H226 C202 0.930 . S
H227 C199 0.930 . S
H228 C208 0.930 . S
H229 C220 0.929 . S
H230 C223 0.930 . S
C231 C232 1.351 . S
C231 N234 1.368 . S
C231 H236 0.931 . S
C232 C231 1.351 . S
C232 N233 1.373 . S
C232 H260 0.930 . S
N233 C232 1.373 . S
N233 C235 1.340 . S
N234 C231 1.368 . S
N234 C235 1.321 . S
N234 Co237 2.135 . S
C235 N233 1.340 . S
C235 N234 1.321 . S
C235 H259 0.930 . S
H236 C231 0.931 . S
Co237 N234 2.135 . S
Co237 N240 2.121 . S
Co237 O245 2.055 . S
Co237 O248 2.039 . S
Co237 N251 2.140 . S
C238 O239 1.227 . S
C238 O248 1.265 . S
O239 C238 1.227 . S
N240 Co237 2.121 . S
N240 C242 1.375 . S
N240 C243 1.313 . S
C241 C242 1.338 . S
C241 N244 1.377 . S
C241 H261 0.930 . S
C242 N240 1.375 . S
C242 C241 1.338 . S
C242 H246 0.931 . S
C243 N240 1.313 . S
C243 N244 1.344 . S
C243 H247 0.930 . S
N244 C241 1.377 . S
N244 C243 1.344 . S
O245 Co237 2.055 . S
O245 C249 1.253 . S
H246 C242 0.931 . S
H247 C243 0.930 . S
O248 Co237 2.039 . S
O248 C238 1.265 . S
C249 O245 1.253 . S
C249 O250 1.227 . S
O250 C249 1.227 . S
N251 Co237 2.140 . S
N251 C254 1.346 . S
N251 C255 1.345 . S
C252 C253 1.387 . S
C252 C256 1.391 . S
C253 C252 1.387 . S
C253 C254 1.369 . S
C253 H262 0.929 . S
C254 N251 1.346 . S
C254 C253 1.369 . S
C254 H257 0.928 . S
C255 N251 1.345 . S
C255 C256 1.371 . S
C255 H258 0.931 . S
C256 C252 1.391 . S
C256 C255 1.371 . S
C256 H263 0.930 . S
H257 C254 0.928 . S
H258 C255 0.931 . S
H259 C235 0.930 . S
H260 C232 0.930 . S
H261 C241 0.930 . S
H262 C253 0.929 . S
H263 C256 0.930 . S
C264 C265 1.351 . S
C264 N267 1.368 . S
C264 H269 0.931 . S
C265 C264 1.351 . S
C265 N266 1.373 . S
C265 H293 0.930 . S
N266 C265 1.373 . S
N266 C268 1.340 . S
N267 C264 1.368 . S
N267 C268 1.321 . S
N267 Co270 2.135 . S
C268 N266 1.340 . S
C268 N267 1.321 . S
C268 H292 0.930 . S
H269 C264 0.931 . S
Co270 N267 2.135 . S
Co270 N273 2.121 . S
Co270 O278 2.055 . S
Co270 O281 2.039 . S
Co270 N284 2.140 . S
C271 O272 1.227 . S
C271 O281 1.265 . S
O272 C271 1.227 . S
N273 Co270 2.121 . S
N273 C275 1.375 . S
N273 C276 1.313 . S
C274 C275 1.338 . S
C274 N277 1.377 . S
C274 H294 0.930 . S
C275 N273 1.375 . S
C275 C274 1.338 . S
C275 H279 0.931 . S
C276 N273 1.313 . S
C276 N277 1.344 . S
C276 H280 0.930 . S
N277 C274 1.377 . S
N277 C276 1.344 . S
O278 Co270 2.055 . S
O278 C282 1.253 . S
H279 C275 0.931 . S
H280 C276 0.930 . S
O281 Co270 2.039 . S
O281 C271 1.265 . S
C282 O278 1.253 . S
C282 O283 1.227 . S
O283 C282 1.227 . S
N284 Co270 2.140 . S
N284 C287 1.346 . S
N284 C288 1.345 . S
C285 C286 1.387 . S
C285 C289 1.391 . S
C286 C285 1.387 . S
C286 C287 1.369 . S
C286 H295 0.929 . S
C287 N284 1.346 . S
C287 C286 1.369 . S
C287 H290 0.928 . S
C288 N284 1.345 . S
C288 C289 1.371 . S
C288 H291 0.931 . S
C289 C285 1.391 . S
C289 C288 1.371 . S
C289 H296 0.930 . S
H290 C287 0.928 . S
H291 C288 0.931 . S
H292 C268 0.930 . S
H293 C265 0.930 . S
H294 C274 0.930 . S
H295 C286 0.929 . S
H296 C289 0.930 . S
C297 C298 1.351 . S
C297 N300 1.368 . S
C297 H302 0.931 . S
C298 C297 1.351 . S
C298 N299 1.373 . S
C298 H326 0.930 . S
N299 C298 1.373 . S
N299 C301 1.340 . S
N300 C297 1.368 . S
N300 C301 1.321 . S
N300 Co303 2.135 . S
C301 N299 1.340 . S
C301 N300 1.321 . S
C301 H325 0.930 . S
H302 C297 0.931 . S
Co303 N300 2.135 . S
Co303 N306 2.121 . S
Co303 O311 2.055 . S
Co303 O314 2.039 . S
Co303 N317 2.140 . S
C304 O305 1.227 . S
C304 O314 1.265 . S
O305 C304 1.227 . S
N306 Co303 2.121 . S
N306 C308 1.375 . S
N306 C309 1.313 . S
C307 C308 1.338 . S
C307 N310 1.377 . S
C307 H327 0.930 . S
C308 N306 1.375 . S
C308 C307 1.338 . S
C308 H312 0.931 . S
C309 N306 1.313 . S
C309 N310 1.344 . S
C309 H313 0.930 . S
N310 C307 1.377 . S
N310 C309 1.344 . S
O311 Co303 2.055 . S
O311 C315 1.253 . S
H312 C308 0.931 . S
H313 C309 0.930 . S
O314 Co303 2.039 . S
O314 C304 1.265 . S
C315 O311 1.253 . S
C315 O316 1.227 . S
O316 C315 1.227 . S
N317 Co303 2.140 . S
N317 C320 1.346 . S
N317 C321 1.345 . S
C318 C319 1.387 . S
C318 C322 1.391 . S
C319 C318 1.387 . S
C319 C320 1.369 . S
C319 H328 0.929 . S
C320 N317 1.346 . S
C320 C319 1.369 . S
C320 H323 0.928 . S
C321 N317 1.345 . S
C321 C322 1.371 . S
C321 H324 0.931 . S
C322 C318 1.391 . S
C322 C321 1.371 . S
C322 H329 0.930 . S
H323 C320 0.928 . S
H324 C321 0.931 . S
H325 C301 0.930 . S
H326 C298 0.930 . S
H327 C307 0.930 . S
H328 C319 0.929 . S
H329 C322 0.930 . S
C330 C331 1.351 . S
C330 N333 1.368 . S
C330 H335 0.931 . S
C331 C330 1.351 . S
C331 N332 1.373 . S
C331 H359 0.930 . S
N332 C331 1.373 . S
N332 C334 1.340 . S
N333 C330 1.368 . S
N333 C334 1.321 . S
N333 Co336 2.135 . S
C334 N332 1.340 . S
C334 N333 1.321 . S
C334 H358 0.930 . S
H335 C330 0.931 . S
Co336 N333 2.135 . S
Co336 N339 2.121 . S
Co336 O344 2.055 . S
Co336 O347 2.039 . S
Co336 N350 2.140 . S
C337 O338 1.227 . S
C337 O347 1.265 . S
O338 C337 1.227 . S
N339 Co336 2.121 . S
N339 C341 1.375 . S
N339 C342 1.313 . S
C340 C341 1.338 . S
C340 N343 1.377 . S
C340 H360 0.930 . S
C341 N339 1.375 . S
C341 C340 1.338 . S
C341 H345 0.931 . S
C342 N339 1.313 . S
C342 N343 1.344 . S
C342 H346 0.930 . S
N343 C340 1.377 . S
N343 C342 1.344 . S
O344 Co336 2.055 . S
O344 C348 1.253 . S
H345 C341 0.931 . S
H346 C342 0.930 . S
O347 Co336 2.039 . S
O347 C337 1.265 . S
C348 O344 1.253 . S
C348 O349 1.227 . S
O349 C348 1.227 . S
N350 Co336 2.140 . S
N350 C353 1.346 . S
N350 C354 1.345 . S
C351 C352 1.387 . S
C351 C355 1.391 . S
C352 C351 1.387 . S
C352 C353 1.369 . S
C352 H361 0.929 . S
C353 N350 1.346 . S
C353 C352 1.369 . S
C353 H356 0.928 . S
C354 N350 1.345 . S
C354 C355 1.371 . S
C354 H357 0.931 . S
C355 C351 1.391 . S
C355 C354 1.371 . S
C355 H362 0.930 . S
H356 C353 0.928 . S
H357 C354 0.931 . S
H358 C334 0.930 . S
H359 C331 0.930 . S
H360 C340 0.930 . S
H361 C352 0.929 . S
H362 C355 0.930 . S
C363 C364 1.351 . S
C363 N366 1.368 . S
C363 H368 0.931 . S
C364 C363 1.351 . S
C364 N365 1.373 . S
C364 H392 0.930 . S
N365 C364 1.373 . S
N365 C367 1.340 . S
N366 C363 1.368 . S
N366 C367 1.321 . S
N366 Co369 2.135 . S
C367 N365 1.340 . S
C367 N366 1.321 . S
C367 H391 0.930 . S
H368 C363 0.931 . S
Co369 N366 2.135 . S
Co369 N372 2.121 . S
Co369 O377 2.055 . S
Co369 O380 2.039 . S
Co369 N383 2.140 . S
C370 O371 1.227 . S
C370 O380 1.265 . S
O371 C370 1.227 . S
N372 Co369 2.121 . S
N372 C374 1.375 . S
N372 C375 1.313 . S
C373 C374 1.338 . S
C373 N376 1.377 . S
C373 H393 0.930 . S
C374 N372 1.375 . S
C374 C373 1.338 . S
C374 H378 0.931 . S
C375 N372 1.313 . S
C375 N376 1.344 . S
C375 H379 0.930 . S
N376 C373 1.377 . S
N376 C375 1.344 . S
O377 Co369 2.055 . S
O377 C381 1.253 . S
H378 C374 0.931 . S
H379 C375 0.930 . S
O380 Co369 2.039 . S
O380 C370 1.265 . S
C381 O377 1.253 . S
C381 O382 1.227 . S
O382 C381 1.227 . S
N383 Co369 2.140 . S
N383 C386 1.346 . S
N383 C387 1.345 . S
C384 C385 1.387 . S
C384 C388 1.391 . S
C385 C384 1.387 . S
C385 C386 1.369 . S
C385 H394 0.929 . S
C386 N383 1.346 . S
C386 C385 1.369 . S
C386 H389 0.928 . S
C387 N383 1.345 . S
C387 C388 1.371 . S
C387 H390 0.931 . S
C388 C384 1.391 . S
C388 C387 1.371 . S
C388 H395 0.930 . S
H389 C386 0.928 . S
H390 C387 0.931 . S
H391 C367 0.930 . S
H392 C364 0.930 . S
H393 C373 0.930 . S
H394 C385 0.929 . S
H395 C388 0.930 . S
C396 C397 1.351 . S
C396 N399 1.368 . S
C396 H401 0.931 . S
C397 C396 1.351 . S
C397 N398 1.373 . S
C397 H425 0.930 . S
N398 C397 1.373 . S
N398 C400 1.340 . S
N399 C396 1.368 . S
N399 C400 1.321 . S
N399 Co402 2.135 . S
C400 N398 1.340 . S
C400 N399 1.321 . S
C400 H424 0.930 . S
H401 C396 0.931 . S
Co402 N399 2.135 . S
Co402 N405 2.121 . S
Co402 O410 2.055 . S
Co402 O413 2.039 . S
Co402 N416 2.140 . S
C403 O404 1.227 . S
C403 O413 1.265 . S
O404 C403 1.227 . S
N405 Co402 2.121 . S
N405 C407 1.375 . S
N405 C408 1.313 . S
C406 C407 1.338 . S
C406 N409 1.377 . S
C406 H426 0.930 . S
C407 N405 1.375 . S
C407 C406 1.338 . S
C407 H411 0.931 . S
C408 N405 1.313 . S
C408 N409 1.344 . S
C408 H412 0.930 . S
N409 C406 1.377 . S
N409 C408 1.344 . S
O410 Co402 2.055 . S
O410 C414 1.253 . S
H411 C407 0.931 . S
H412 C408 0.930 . S
O413 Co402 2.039 . S
O413 C403 1.265 . S
C414 O410 1.253 . S
C414 O415 1.227 . S
O415 C414 1.227 . S
N416 Co402 2.140 . S
N416 C419 1.346 . S
N416 C420 1.345 . S
C417 C418 1.387 . S
C417 C421 1.391 . S
C418 C417 1.387 . S
C418 C419 1.369 . S
C418 H427 0.929 . S
C419 N416 1.346 . S
C419 C418 1.369 . S
C419 H422 0.928 . S
C420 N416 1.345 . S
C420 C421 1.371 . S
C420 H423 0.931 . S
C421 C417 1.391 . S
C421 C420 1.371 . S
C421 H428 0.930 . S
H422 C419 0.928 . S
H423 C420 0.931 . S
H424 C400 0.930 . S
H425 C397 0.930 . S
H426 C406 0.930 . S
H427 C418 0.929 . S
H428 C421 0.930 . S
C429 C430 1.351 . S
C429 N432 1.368 . S
C429 H434 0.931 . S
C430 C429 1.351 . S
C430 N431 1.373 . S
C430 H458 0.930 . S
N431 C430 1.373 . S
N431 C433 1.340 . S
N432 C429 1.368 . S
N432 C433 1.321 . S
N432 Co435 2.135 . S
C433 N431 1.340 . S
C433 N432 1.321 . S
C433 H457 0.930 . S
H434 C429 0.931 . S
Co435 N432 2.135 . S
Co435 N438 2.121 . S
Co435 O443 2.055 . S
Co435 O446 2.039 . S
Co435 N449 2.140 . S
C436 O437 1.227 . S
C436 O446 1.265 . S
O437 C436 1.227 . S
N438 Co435 2.121 . S
N438 C440 1.375 . S
N438 C441 1.313 . S
C439 C440 1.338 . S
C439 N442 1.377 . S
C439 H459 0.930 . S
C440 N438 1.375 . S
C440 C439 1.338 . S
C440 H444 0.931 . S
C441 N438 1.313 . S
C441 N442 1.344 . S
C441 H445 0.930 . S
N442 C439 1.377 . S
N442 C441 1.344 . S
O443 Co435 2.055 . S
O443 C447 1.253 . S
H444 C440 0.931 . S
H445 C441 0.930 . S
O446 Co435 2.039 . S
O446 C436 1.265 . S
C447 O443 1.253 . S
C447 O448 1.227 . S
O448 C447 1.227 . S
N449 Co435 2.140 . S
N449 C452 1.346 . S
N449 C453 1.345 . S
C450 C451 1.387 . S
C450 C454 1.391 . S
C451 C450 1.387 . S
C451 C452 1.369 . S
C451 H460 0.929 . S
C452 N449 1.346 . S
C452 C451 1.369 . S
C452 H455 0.928 . S
C453 N449 1.345 . S
C453 C454 1.371 . S
C453 H456 0.931 . S
C454 C450 1.391 . S
C454 C453 1.371 . S
C454 H461 0.930 . S
H455 C452 0.928 . S
H456 C453 0.931 . S
H457 C433 0.930 . S
H458 C430 0.930 . S
H459 C439 0.930 . S
H460 C451 0.929 . S
H461 C454 0.930 . S
C462 C463 1.351 . S
C462 N465 1.368 . S
C462 H467 0.931 . S
C463 C462 1.351 . S
C463 N464 1.373 . S
C463 H491 0.930 . S
N464 C463 1.373 . S
N464 C466 1.340 . S
N465 C462 1.368 . S
N465 C466 1.321 . S
N465 Co468 2.135 . S
C466 N464 1.340 . S
C466 N465 1.321 . S
C466 H490 0.930 . S
H467 C462 0.931 . S
Co468 N465 2.135 . S
Co468 N471 2.121 . S
Co468 O476 2.055 . S
Co468 O479 2.039 . S
Co468 N482 2.140 . S
C469 O470 1.227 . S
C469 O479 1.265 . S
O470 C469 1.227 . S
N471 Co468 2.121 . S
N471 C473 1.375 . S
N471 C474 1.313 . S
C472 C473 1.338 . S
C472 N475 1.377 . S
C472 H492 0.930 . S
C473 N471 1.375 . S
C473 C472 1.338 . S
C473 H477 0.931 . S
C474 N471 1.313 . S
C474 N475 1.344 . S
C474 H478 0.930 . S
N475 C472 1.377 . S
N475 C474 1.344 . S
O476 Co468 2.055 . S
O476 C480 1.253 . S
H477 C473 0.931 . S
H478 C474 0.930 . S
O479 Co468 2.039 . S
O479 C469 1.265 . S
C480 O476 1.253 . S
C480 O481 1.227 . S
O481 C480 1.227 . S
N482 Co468 2.140 . S
N482 C485 1.346 . S
N482 C486 1.345 . S
C483 C484 1.387 . S
C483 C487 1.391 . S
C484 C483 1.387 . S
C484 C485 1.369 . S
C484 H493 0.929 . S
C485 N482 1.346 . S
C485 C484 1.369 . S
C485 H488 0.928 . S
C486 N482 1.345 . S
C486 C487 1.371 . S
C486 H489 0.931 . S
C487 C483 1.391 . S
C487 C486 1.371 . S
C487 H494 0.930 . S
H488 C485 0.928 . S
H489 C486 0.931 . S
H490 C466 0.930 . S
H491 C463 0.930 . S
H492 C472 0.930 . S
H493 C484 0.929 . S
H494 C487 0.930 . S
C495 C496 1.351 . S
C495 N498 1.368 . S
C495 H500 0.931 . S
C496 C495 1.351 . S
C496 N497 1.373 . S
C496 H524 0.930 . S
N497 C496 1.373 . S
N497 C499 1.340 . S
N498 C495 1.368 . S
N498 C499 1.321 . S
N498 Co501 2.135 . S
C499 N497 1.340 . S
C499 N498 1.321 . S
C499 H523 0.930 . S
H500 C495 0.931 . S
Co501 N498 2.135 . S
Co501 N504 2.121 . S
Co501 O509 2.055 . S
Co501 O512 2.039 . S
Co501 N515 2.140 . S
C502 O503 1.227 . S
C502 O512 1.265 . S
O503 C502 1.227 . S
N504 Co501 2.121 . S
N504 C506 1.375 . S
N504 C507 1.313 . S
C505 C506 1.338 . S
C505 N508 1.377 . S
C505 H525 0.930 . S
C506 N504 1.375 . S
C506 C505 1.338 . S
C506 H510 0.931 . S
C507 N504 1.313 . S
C507 N508 1.344 . S
C507 H511 0.930 . S
N508 C505 1.377 . S
N508 C507 1.344 . S
O509 Co501 2.055 . S
O509 C513 1.253 . S
H510 C506 0.931 . S
H511 C507 0.930 . S
O512 Co501 2.039 . S
O512 C502 1.265 . S
C513 O509 1.253 . S
C513 O514 1.227 . S
O514 C513 1.227 . S
N515 Co501 2.140 . S
N515 C518 1.346 . S
N515 C519 1.345 . S
C516 C517 1.387 . S
C516 C520 1.391 . S
C517 C516 1.387 . S
C517 C518 1.369 . S
C517 H526 0.929 . S
C518 N515 1.346 . S
C518 C517 1.369 . S
C518 H521 0.928 . S
C519 N515 1.345 . S
C519 C520 1.371 . S
C519 H522 0.931 . S
C520 C516 1.391 . S
C520 C519 1.371 . S
C520 H527 0.930 . S
H521 C518 0.928 . S
H522 C519 0.931 . S
H523 C499 0.930 . S
H524 C496 0.930 . S
H525 C505 0.930 . S
H526 C517 0.929 . S
H527 C520 0.930 . S
C528 C529 1.351 . S
C528 N531 1.368 . S
C528 H533 0.931 . S
C529 C528 1.351 . S
C529 N530 1.373 . S
C529 H557 0.930 . S
N530 C529 1.373 . S
N530 C532 1.340 . S
N531 C528 1.368 . S
N531 C532 1.321 . S
N531 Co534 2.135 . S
C532 N530 1.340 . S
C532 N531 1.321 . S
C532 H556 0.930 . S
H533 C528 0.931 . S
Co534 N531 2.135 . S
Co534 N537 2.121 . S
Co534 O542 2.055 . S
Co534 O545 2.039 . S
Co534 N548 2.140 . S
C535 O536 1.227 . S
C535 O545 1.265 . S
O536 C535 1.227 . S
N537 Co534 2.121 . S
N537 C539 1.375 . S
N537 C540 1.313 . S
C538 C539 1.338 . S
C538 N541 1.377 . S
C538 H558 0.930 . S
C539 N537 1.375 . S
C539 C538 1.338 . S
C539 H543 0.931 . S
C540 N537 1.313 . S
C540 N541 1.344 . S
C540 H544 0.930 . S
N541 C538 1.377 . S
N541 C540 1.344 . S
O542 Co534 2.055 . S
O542 C546 1.253 . S
H543 C539 0.931 . S
H544 C540 0.930 . S
O545 Co534 2.039 . S
O545 C535 1.265 . S
C546 O542 1.253 . S
C546 O547 1.227 . S
O547 C546 1.227 . S
N548 Co534 2.140 . S
N548 C551 1.346 . S
N548 C552 1.345 . S
C549 C550 1.387 . S
C549 C553 1.391 . S
C550 C549 1.387 . S
C550 C551 1.369 . S
C550 H559 0.929 . S
C551 N548 1.346 . S
C551 C550 1.369 . S
C551 H554 0.928 . S
C552 N548 1.345 . S
C552 C553 1.371 . S
C552 H555 0.931 . S
C553 C549 1.391 . S
C553 C552 1.371 . S
C553 H560 0.930 . S
H554 C551 0.928 . S
H555 C552 0.931 . S
H556 C532 0.930 . S
H557 C529 0.930 . S
H558 C538 0.930 . S
H559 C550 0.929 . S
H560 C553 0.930 . S
C561 C562 1.351 . S
C561 N564 1.368 . S
C561 H566 0.931 . S
C562 C561 1.351 . S
C562 N563 1.373 . S
C562 H590 0.930 . S
N563 C562 1.373 . S
N563 C565 1.340 . S
N564 C561 1.368 . S
N564 C565 1.321 . S
N564 Co567 2.135 . S
C565 N563 1.340 . S
C565 N564 1.321 . S
C565 H589 0.930 . S
H566 C561 0.931 . S
Co567 N564 2.135 . S
Co567 N570 2.121 . S
Co567 O575 2.055 . S
Co567 O578 2.039 . S
Co567 N581 2.140 . S
C568 O569 1.227 . S
C568 O578 1.265 . S
O569 C568 1.227 . S
N570 Co567 2.121 . S
N570 C572 1.375 . S
N570 C573 1.313 . S
C571 C572 1.338 . S
C571 N574 1.377 . S
C571 H591 0.930 . S
C572 N570 1.375 . S
C572 C571 1.338 . S
C572 H576 0.931 . S
C573 N570 1.313 . S
C573 N574 1.344 . S
C573 H577 0.930 . S
N574 C571 1.377 . S
N574 C573 1.344 . S
O575 Co567 2.055 . S
O575 C579 1.253 . S
H576 C572 0.931 . S
H577 C573 0.930 . S
O578 Co567 2.039 . S
O578 C568 1.265 . S
C579 O575 1.253 . S
C579 O580 1.227 . S
O580 C579 1.227 . S
N581 Co567 2.140 . S
N581 C584 1.346 . S
N581 C585 1.345 . S
C582 C583 1.387 . S
C582 C586 1.391 . S
C583 C582 1.387 . S
C583 C584 1.369 . S
C583 H592 0.929 . S
C584 N581 1.346 . S
C584 C583 1.369 . S
C584 H587 0.928 . S
C585 N581 1.345 . S
C585 C586 1.371 . S
C585 H588 0.931 . S
C586 C582 1.391 . S
C586 C585 1.371 . S
C586 H593 0.930 . S
H587 C584 0.928 . S
H588 C585 0.931 . S
H589 C565 0.930 . S
H590 C562 0.930 . S
H591 C571 0.930 . S
H592 C583 0.929 . S
H593 C586 0.930 . S
C594 C595 1.351 . S
C594 N597 1.368 . S
C594 H599 0.931 . S
C595 C594 1.351 . S
C595 N596 1.373 . S
C595 H623 0.930 . S
N596 C595 1.373 . S
N596 C598 1.340 . S
N597 C594 1.368 . S
N597 C598 1.321 . S
N597 Co600 2.135 . S
C598 N596 1.340 . S
C598 N597 1.321 . S
C598 H622 0.930 . S
H599 C594 0.931 . S
Co600 N597 2.135 . S
Co600 N603 2.121 . S
Co600 O608 2.055 . S
Co600 O611 2.039 . S
Co600 N614 2.140 . S
C601 O602 1.227 . S
C601 O611 1.265 . S
O602 C601 1.227 . S
N603 Co600 2.121 . S
N603 C605 1.375 . S
N603 C606 1.313 . S
C604 C605 1.338 . S
C604 N607 1.377 . S
C604 H624 0.930 . S
C605 N603 1.375 . S
C605 C604 1.338 . S
C605 H609 0.931 . S
C606 N603 1.313 . S
C606 N607 1.344 . S
C606 H610 0.930 . S
N607 C604 1.377 . S
N607 C606 1.344 . S
O608 Co600 2.055 . S
O608 C612 1.253 . S
H609 C605 0.931 . S
H610 C606 0.930 . S
O611 Co600 2.039 . S
O611 C601 1.265 . S
C612 O608 1.253 . S
C612 O613 1.227 . S
O613 C612 1.227 . S
N614 Co600 2.140 . S
N614 C617 1.346 . S
N614 C618 1.345 . S
C615 C616 1.387 . S
C615 C619 1.391 . S
C616 C615 1.387 . S
C616 C617 1.369 . S
C616 H625 0.929 . S
C617 N614 1.346 . S
C617 C616 1.369 . S
C617 H620 0.928 . S
C618 N614 1.345 . S
C618 C619 1.371 . S
C618 H621 0.931 . S
C619 C615 1.391 . S
C619 C618 1.371 . S
C619 H626 0.930 . S
H620 C617 0.928 . S
H621 C618 0.931 . S
H622 C598 0.930 . S
H623 C595 0.930 . S
H624 C604 0.930 . S
H625 C616 0.929 . S
H626 C619 0.930 . S
C627 C628 1.351 . S
C627 N630 1.368 . S
C627 H632 0.931 . S
C628 C627 1.351 . S
C628 N629 1.373 . S
C628 H656 0.930 . S
N629 C628 1.373 . S
N629 C631 1.340 . S
N630 C627 1.368 . S
N630 C631 1.321 . S
N630 Co633 2.135 . S
C631 N629 1.340 . S
C631 N630 1.321 . S
C631 H655 0.930 . S
H632 C627 0.931 . S
Co633 N630 2.135 . S
Co633 N636 2.121 . S
Co633 O641 2.055 . S
Co633 O644 2.039 . S
Co633 N647 2.140 . S
C634 O635 1.227 . S
C634 O644 1.265 . S
O635 C634 1.227 . S
N636 Co633 2.121 . S
N636 C638 1.375 . S
N636 C639 1.313 . S
C637 C638 1.338 . S
C637 N640 1.377 . S
C637 H657 0.930 . S
C638 N636 1.375 . S
C638 C637 1.338 . S
C638 H642 0.931 . S
C639 N636 1.313 . S
C639 N640 1.344 . S
C639 H643 0.930 . S
N640 C637 1.377 . S
N640 C639 1.344 . S
O641 Co633 2.055 . S
O641 C645 1.253 . S
H642 C638 0.931 . S
H643 C639 0.930 . S
O644 Co633 2.039 . S
O644 C634 1.265 . S
C645 O641 1.253 . S
C645 O646 1.227 . S
O646 C645 1.227 . S
N647 Co633 2.140 . S
N647 C650 1.346 . S
N647 C651 1.345 . S
C648 C649 1.387 . S
C648 C652 1.391 . S
C649 C648 1.387 . S
C649 C650 1.369 . S
C649 H658 0.929 . S
C650 N647 1.346 . S
C650 C649 1.369 . S
C650 H653 0.928 . S
C651 N647 1.345 . S
C651 C652 1.371 . S
C651 H654 0.931 . S
C652 C648 1.391 . S
C652 C651 1.371 . S
C652 H659 0.930 . S
H653 C650 0.928 . S
H654 C651 0.931 . S
H655 C631 0.930 . S
H656 C628 0.930 . S
H657 C637 0.930 . S
H658 C649 0.929 . S
H659 C652 0.930 . S
C660 C661 1.351 . S
C660 N663 1.368 . S
C660 H665 0.931 . S
C661 C660 1.351 . S
C661 N662 1.373 . S
C661 H689 0.930 . S
N662 C661 1.373 . S
N662 C664 1.340 . S
N663 C660 1.368 . S
N663 C664 1.321 . S
N663 Co666 2.135 . S
C664 N662 1.340 . S
C664 N663 1.321 . S
C664 H688 0.930 . S
H665 C660 0.931 . S
Co666 N663 2.135 . S
Co666 N669 2.121 . S
Co666 O674 2.055 . S
Co666 O677 2.039 . S
Co666 N680 2.140 . S
C667 O668 1.227 . S
C667 O677 1.265 . S
O668 C667 1.227 . S
N669 Co666 2.121 . S
N669 C671 1.375 . S
N669 C672 1.313 . S
C670 C671 1.338 . S
C670 N673 1.377 . S
C670 H690 0.930 . S
C671 N669 1.375 . S
C671 C670 1.338 . S
C671 H675 0.931 . S
C672 N669 1.313 . S
C672 N673 1.344 . S
C672 H676 0.930 . S
N673 C670 1.377 . S
N673 C672 1.344 . S
O674 Co666 2.055 . S
O674 C678 1.253 . S
H675 C671 0.931 . S
H676 C672 0.930 . S
O677 Co666 2.039 . S
O677 C667 1.265 . S
C678 O674 1.253 . S
C678 O679 1.227 . S
O679 C678 1.227 . S
N680 Co666 2.140 . S
N680 C683 1.346 . S
N680 C684 1.345 . S
C681 C682 1.387 . S
C681 C685 1.391 . S
C682 C681 1.387 . S
C682 C683 1.369 . S
C682 H691 0.929 . S
C683 N680 1.346 . S
C683 C682 1.369 . S
C683 H686 0.928 . S
C684 N680 1.345 . S
C684 C685 1.371 . S
C684 H687 0.931 . S
C685 C681 1.391 . S
C685 C684 1.371 . S
C685 H692 0.930 . S
H686 C683 0.928 . S
H687 C684 0.931 . S
H688 C664 0.930 . S
H689 C661 0.930 . S
H690 C670 0.930 . S
H691 C682 0.929 . S
H692 C685 0.930 . S
C693 C694 1.351 . S
C693 N696 1.368 . S
C693 H698 0.931 . S
C694 C693 1.351 . S
C694 N695 1.373 . S
C694 H722 0.930 . S
N695 C694 1.373 . S
N695 C697 1.340 . S
N696 C693 1.368 . S
N696 C697 1.321 . S
N696 Co699 2.135 . S
C697 N695 1.340 . S
C697 N696 1.321 . S
C697 H721 0.930 . S
H698 C693 0.931 . S
Co699 N696 2.135 . S
Co699 N702 2.121 . S
Co699 O707 2.055 . S
Co699 O710 2.039 . S
Co699 N713 2.140 . S
C700 O701 1.227 . S
C700 O710 1.265 . S
O701 C700 1.227 . S
N702 Co699 2.121 . S
N702 C704 1.375 . S
N702 C705 1.313 . S
C703 C704 1.338 . S
C703 N706 1.377 . S
C703 H723 0.930 . S
C704 N702 1.375 . S
C704 C703 1.338 . S
C704 H708 0.931 . S
C705 N702 1.313 . S
C705 N706 1.344 . S
C705 H709 0.930 . S
N706 C703 1.377 . S
N706 C705 1.344 . S
O707 Co699 2.055 . S
O707 C711 1.253 . S
H708 C704 0.931 . S
H709 C705 0.930 . S
O710 Co699 2.039 . S
O710 C700 1.265 . S
C711 O707 1.253 . S
C711 O712 1.227 . S
O712 C711 1.227 . S
N713 Co699 2.140 . S
N713 C716 1.346 . S
N713 C717 1.345 . S
C714 C715 1.387 . S
C714 C718 1.391 . S
C715 C714 1.387 . S
C715 C716 1.369 . S
C715 H724 0.929 . S
C716 N713 1.346 . S
C716 C715 1.369 . S
C716 H719 0.928 . S
C717 N713 1.345 . S
C717 C718 1.371 . S
C717 H720 0.931 . S
C718 C714 1.391 . S
C718 C717 1.371 . S
C718 H725 0.930 . S
H719 C716 0.928 . S
H720 C717 0.931 . S
H721 C697 0.930 . S
H722 C694 0.930 . S
H723 C703 0.930 . S
H724 C715 0.929 . S
H725 C718 0.930 . S
C726 C727 1.351 . S
C726 N729 1.368 . S
C726 H731 0.931 . S
C727 C726 1.351 . S
C727 N728 1.373 . S
C727 H755 0.930 . S
N728 C727 1.373 . S
N728 C730 1.340 . S
N729 C726 1.368 . S
N729 C730 1.321 . S
N729 Co732 2.135 . S
C730 N728 1.340 . S
C730 N729 1.321 . S
C730 H754 0.930 . S
H731 C726 0.931 . S
Co732 N729 2.135 . S
Co732 N735 2.121 . S
Co732 O740 2.055 . S
Co732 O743 2.039 . S
Co732 N746 2.140 . S
C733 O734 1.227 . S
C733 O743 1.265 . S
O734 C733 1.227 . S
N735 Co732 2.121 . S
N735 C737 1.375 . S
N735 C738 1.313 . S
C736 C737 1.338 . S
C736 N739 1.377 . S
C736 H756 0.930 . S
C737 N735 1.375 . S
C737 C736 1.338 . S
C737 H741 0.931 . S
C738 N735 1.313 . S
C738 N739 1.344 . S
C738 H742 0.930 . S
N739 C736 1.377 . S
N739 C738 1.344 . S
O740 Co732 2.055 . S
O740 C744 1.253 . S
H741 C737 0.931 . S
H742 C738 0.930 . S
O743 Co732 2.039 . S
O743 C733 1.265 . S
C744 O740 1.253 . S
C744 O745 1.227 . S
O745 C744 1.227 . S
N746 Co732 2.140 . S
N746 C749 1.346 . S
N746 C750 1.345 . S
C747 C748 1.387 . S
C747 C751 1.391 . S
C748 C747 1.387 . S
C748 C749 1.369 . S
C748 H757 0.929 . S
C749 N746 1.346 . S
C749 C748 1.369 . S
C749 H752 0.928 . S
C750 N746 1.345 . S
C750 C751 1.371 . S
C750 H753 0.931 . S
C751 C747 1.391 . S
C751 C750 1.371 . S
C751 H758 0.930 . S
H752 C749 0.928 . S
H753 C750 0.931 . S
H754 C730 0.930 . S
H755 C727 0.930 . S
H756 C736 0.930 . S
H757 C748 0.929 . S
H758 C751 0.930 . S
C759 C760 1.351 . S
C759 N762 1.368 . S
C759 H764 0.931 . S
C760 C759 1.351 . S
C760 N761 1.373 . S
C760 H788 0.930 . S
N761 C760 1.373 . S
N761 C763 1.340 . S
N762 C759 1.368 . S
N762 C763 1.321 . S
N762 Co765 2.135 . S
C763 N761 1.340 . S
C763 N762 1.321 . S
C763 H787 0.930 . S
H764 C759 0.931 . S
Co765 N762 2.135 . S
Co765 N768 2.121 . S
Co765 O773 2.055 . S
Co765 O776 2.039 . S
Co765 N779 2.140 . S
C766 O767 1.227 . S
C766 O776 1.265 . S
O767 C766 1.227 . S
N768 Co765 2.121 . S
N768 C770 1.375 . S
N768 C771 1.313 . S
C769 C770 1.338 . S
C769 N772 1.377 . S
C769 H789 0.930 . S
C770 N768 1.375 . S
C770 C769 1.338 . S
C770 H774 0.931 . S
C771 N768 1.313 . S
C771 N772 1.344 . S
C771 H775 0.930 . S
N772 C769 1.377 . S
N772 C771 1.344 . S
O773 Co765 2.055 . S
O773 C777 1.253 . S
H774 C770 0.931 . S
H775 C771 0.930 . S
O776 Co765 2.039 . S
O776 C766 1.265 . S
C777 O773 1.253 . S
C777 O778 1.227 . S
O778 C777 1.227 . S
N779 Co765 2.140 . S
N779 C782 1.346 . S
N779 C783 1.345 . S
C780 C781 1.387 . S
C780 C784 1.391 . S
C781 C780 1.387 . S
C781 C782 1.369 . S
C781 H790 0.929 . S
C782 N779 1.346 . S
C782 C781 1.369 . S
C782 H785 0.928 . S
C783 N779 1.345 . S
C783 C784 1.371 . S
C783 H786 0.931 . S
C784 C780 1.391 . S
C784 C783 1.371 . S
C784 H791 0.930 . S
H785 C782 0.928 . S
H786 C783 0.931 . S
H787 C763 0.930 . S
H788 C760 0.930 . S
H789 C769 0.930 . S
H790 C781 0.929 . S
H791 C784 0.930 . S
C792 C793 1.351 . S
C792 N795 1.368 . S
C792 H797 0.931 . S
C793 C792 1.351 . S
C793 N794 1.373 . S
C793 H821 0.930 . S
N794 C793 1.373 . S
N794 C796 1.340 . S
N795 C792 1.368 . S
N795 C796 1.321 . S
N795 Co798 2.135 . S
C796 N794 1.340 . S
C796 N795 1.321 . S
C796 H820 0.930 . S
H797 C792 0.931 . S
Co798 N795 2.135 . S
Co798 N801 2.121 . S
Co798 O806 2.055 . S
Co798 O809 2.039 . S
Co798 N812 2.140 . S
C799 O800 1.227 . S
C799 O809 1.265 . S
O800 C799 1.227 . S
N801 Co798 2.121 . S
N801 C803 1.375 . S
N801 C804 1.313 . S
C802 C803 1.338 . S
C802 N805 1.377 . S
C802 H822 0.930 . S
C803 N801 1.375 . S
C803 C802 1.338 . S
C803 H807 0.931 . S
C804 N801 1.313 . S
C804 N805 1.344 . S
C804 H808 0.930 . S
N805 C802 1.377 . S
N805 C804 1.344 . S
O806 Co798 2.055 . S
O806 C810 1.253 . S
H807 C803 0.931 . S
H808 C804 0.930 . S
O809 Co798 2.039 . S
O809 C799 1.265 . S
C810 O806 1.253 . S
C810 O811 1.227 . S
O811 C810 1.227 . S
N812 Co798 2.140 . S
N812 C815 1.346 . S
N812 C816 1.345 . S
C813 C814 1.387 . S
C813 C817 1.391 . S
C814 C813 1.387 . S
C814 C815 1.369 . S
C814 H823 0.929 . S
C815 N812 1.346 . S
C815 C814 1.369 . S
C815 H818 0.928 . S
C816 N812 1.345 . S
C816 C817 1.371 . S
C816 H819 0.931 . S
C817 C813 1.391 . S
C817 C816 1.371 . S
C817 H824 0.930 . S
H818 C815 0.928 . S
H819 C816 0.931 . S
H820 C796 0.930 . S
H821 C793 0.930 . S
H822 C802 0.930 . S
H823 C814 0.929 . S
H824 C817 0.930 . S
C825 C826 1.351 . S
C825 N828 1.368 . S
C825 H830 0.931 . S
C826 C825 1.351 . S
C826 N827 1.373 . S
C826 H854 0.930 . S
N827 C826 1.373 . S
N827 C829 1.340 . S
N828 C825 1.368 . S
N828 C829 1.321 . S
N828 Co831 2.135 . S
C829 N827 1.340 . S
C829 N828 1.321 . S
C829 H853 0.930 . S
H830 C825 0.931 . S
Co831 N828 2.135 . S
Co831 N834 2.121 . S
Co831 O839 2.055 . S
Co831 O842 2.039 . S
Co831 N845 2.140 . S
C832 O833 1.227 . S
C832 O842 1.265 . S
O833 C832 1.227 . S
N834 Co831 2.121 . S
N834 C836 1.375 . S
N834 C837 1.313 . S
C835 C836 1.338 . S
C835 N838 1.377 . S
C835 H855 0.930 . S
C836 N834 1.375 . S
C836 C835 1.338 . S
C836 H840 0.931 . S
C837 N834 1.313 . S
C837 N838 1.344 . S
C837 H841 0.930 . S
N838 C835 1.377 . S
N838 C837 1.344 . S
O839 Co831 2.055 . S
O839 C843 1.253 . S
H840 C836 0.931 . S
H841 C837 0.930 . S
O842 Co831 2.039 . S
O842 C832 1.265 . S
C843 O839 1.253 . S
C843 O844 1.227 . S
O844 C843 1.227 . S
N845 Co831 2.140 . S
N845 C848 1.346 . S
N845 C849 1.345 . S
C846 C847 1.387 . S
C846 C850 1.391 . S
C847 C846 1.387 . S
C847 C848 1.369 . S
C847 H856 0.929 . S
C848 N845 1.346 . S
C848 C847 1.369 . S
C848 H851 0.928 . S
C849 N845 1.345 . S
C849 C850 1.371 . S
C849 H852 0.931 . S
C850 C846 1.391 . S
C850 C849 1.371 . S
C850 H857 0.930 . S
H851 C848 0.928 . S
H852 C849 0.931 . S
H853 C829 0.930 . S
H854 C826 0.930 . S
H855 C835 0.930 . S
H856 C847 0.929 . S
H857 C850 0.930 . S
C858 C859 1.351 . S
C858 N861 1.368 . S
C858 H863 0.931 . S
C859 C858 1.351 . S
C859 N860 1.373 . S
C859 H887 0.930 . S
N860 C859 1.373 . S
N860 C862 1.340 . S
N861 C858 1.368 . S
N861 C862 1.321 . S
N861 Co864 2.135 . S
C862 N860 1.340 . S
C862 N861 1.321 . S
C862 H886 0.930 . S
H863 C858 0.931 . S
Co864 N861 2.135 . S
Co864 N867 2.121 . S
Co864 O872 2.055 . S
Co864 O875 2.039 . S
Co864 N878 2.140 . S
C865 O866 1.227 . S
C865 O875 1.265 . S
O866 C865 1.227 . S
N867 Co864 2.121 . S
N867 C869 1.375 . S
N867 C870 1.313 . S
C868 C869 1.338 . S
C868 N871 1.377 . S
C868 H888 0.930 . S
C869 N867 1.375 . S
C869 C868 1.338 . S
C869 H873 0.931 . S
C870 N867 1.313 . S
C870 N871 1.344 . S
C870 H874 0.930 . S
N871 C868 1.377 . S
N871 C870 1.344 . S
O872 Co864 2.055 . S
O872 C876 1.253 . S
H873 C869 0.931 . S
H874 C870 0.930 . S
O875 Co864 2.039 . S
O875 C865 1.265 . S
C876 O872 1.253 . S
C876 O877 1.227 . S
O877 C876 1.227 . S
N878 Co864 2.140 . S
N878 C881 1.346 . S
N878 C882 1.345 . S
C879 C880 1.387 . S
C879 C883 1.391 . S
C880 C879 1.387 . S
C880 C881 1.369 . S
C880 H889 0.929 . S
C881 N878 1.346 . S
C881 C880 1.369 . S
C881 H884 0.928 . S
C882 N878 1.345 . S
C882 C883 1.371 . S
C882 H885 0.931 . S
C883 C879 1.391 . S
C883 C882 1.371 . S
C883 H890 0.930 . S
H884 C881 0.928 . S
H885 C882 0.931 . S
H886 C862 0.930 . S
H887 C859 0.930 . S
H888 C868 0.930 . S
H889 C880 0.929 . S
H890 C883 0.930 . S
C891 C892 1.351 . S
C891 N894 1.368 . S
C891 H896 0.931 . S
C892 C891 1.351 . S
C892 N893 1.373 . S
C892 H920 0.930 . S
N893 C892 1.373 . S
N893 C895 1.340 . S
N894 C891 1.368 . S
N894 C895 1.321 . S
N894 Co897 2.135 . S
C895 N893 1.340 . S
C895 N894 1.321 . S
C895 H919 0.930 . S
H896 C891 0.931 . S
Co897 N894 2.135 . S
Co897 N900 2.121 . S
Co897 O905 2.055 . S
Co897 O908 2.039 . S
Co897 N911 2.140 . S
C898 O899 1.227 . S
C898 O908 1.265 . S
O899 C898 1.227 . S
N900 Co897 2.121 . S
N900 C902 1.375 . S
N900 C903 1.313 . S
C901 C902 1.338 . S
C901 N904 1.377 . S
C901 H921 0.930 . S
C902 N900 1.375 . S
C902 C901 1.338 . S
C902 H906 0.931 . S
C903 N900 1.313 . S
C903 N904 1.344 . S
C903 H907 0.930 . S
N904 C901 1.377 . S
N904 C903 1.344 . S
O905 Co897 2.055 . S
O905 C909 1.253 . S
H906 C902 0.931 . S
H907 C903 0.930 . S
O908 Co897 2.039 . S
O908 C898 1.265 . S
C909 O905 1.253 . S
C909 O910 1.227 . S
O910 C909 1.227 . S
N911 Co897 2.140 . S
N911 C914 1.346 . S
N911 C915 1.345 . S
C912 C913 1.387 . S
C912 C916 1.391 . S
C913 C912 1.387 . S
C913 C914 1.369 . S
C913 H922 0.929 . S
C914 N911 1.346 . S
C914 C913 1.369 . S
C914 H917 0.928 . S
C915 N911 1.345 . S
C915 C916 1.371 . S
C915 H918 0.931 . S
C916 C912 1.391 . S
C916 C915 1.371 . S
C916 H923 0.930 . S
H917 C914 0.928 . S
H918 C915 0.931 . S
H919 C895 0.930 . S
H920 C892 0.930 . S
H921 C901 0.930 . S
H922 C913 0.929 . S
H923 C916 0.930 . S
C924 C925 1.351 . S
C924 N927 1.368 . S
C924 H929 0.931 . S
C925 C924 1.351 . S
C925 N926 1.373 . S
C925 H953 0.930 . S
N926 C925 1.373 . S
N926 C928 1.340 . S
N927 C924 1.368 . S
N927 C928 1.321 . S
N927 Co930 2.135 . S
C928 N926 1.340 . S
C928 N927 1.321 . S
C928 H952 0.930 . S
H929 C924 0.931 . S
Co930 N927 2.135 . S
Co930 N933 2.121 . S
Co930 O938 2.055 . S
Co930 O941 2.039 . S
Co930 N944 2.140 . S
C931 O932 1.227 . S
C931 O941 1.265 . S
O932 C931 1.227 . S
N933 Co930 2.121 . S
N933 C935 1.375 . S
N933 C936 1.313 . S
C934 C935 1.338 . S
C934 N937 1.377 . S
C934 H954 0.930 . S
C935 N933 1.375 . S
C935 C934 1.338 . S
C935 H939 0.931 . S
C936 N933 1.313 . S
C936 N937 1.344 . S
C936 H940 0.930 . S
N937 C934 1.377 . S
N937 C936 1.344 . S
O938 Co930 2.055 . S
O938 C942 1.253 . S
H939 C935 0.931 . S
H940 C936 0.930 . S
O941 Co930 2.039 . S
O941 C931 1.265 . S
C942 O938 1.253 . S
C942 O943 1.227 . S
O943 C942 1.227 . S
N944 Co930 2.140 . S
N944 C947 1.346 . S
N944 C948 1.345 . S
C945 C946 1.387 . S
C945 C949 1.391 . S
C946 C945 1.387 . S
C946 C947 1.369 . S
C946 H955 0.929 . S
C947 N944 1.346 . S
C947 C946 1.369 . S
C947 H950 0.928 . S
C948 N944 1.345 . S
C948 C949 1.371 . S
C948 H951 0.931 . S
C949 C945 1.391 . S
C949 C948 1.371 . S
C949 H956 0.930 . S
H950 C947 0.928 . S
H951 C948 0.931 . S
H952 C928 0.930 . S
H953 C925 0.930 . S
H954 C934 0.930 . S
H955 C946 0.929 . S
H956 C949 0.930 . S
C957 C958 1.351 . S
C957 N960 1.368 . S
C957 H962 0.931 . S
C958 C957 1.351 . S
C958 N959 1.373 . S
C958 H986 0.930 . S
N959 C958 1.373 . S
N959 C961 1.340 . S
N960 C957 1.368 . S
N960 C961 1.321 . S
N960 Co963 2.135 . S
C961 N959 1.340 . S
C961 N960 1.321 . S
C961 H985 0.930 . S
H962 C957 0.931 . S
Co963 N960 2.135 . S
Co963 N966 2.121 . S
Co963 O971 2.055 . S
Co963 O974 2.039 . S
Co963 N977 2.140 . S
C964 O965 1.227 . S
C964 O974 1.265 . S
O965 C964 1.227 . S
N966 Co963 2.121 . S
N966 C968 1.375 . S
N966 C969 1.313 . S
C967 C968 1.338 . S
C967 N970 1.377 . S
C967 H987 0.930 . S
C968 N966 1.375 . S
C968 C967 1.338 . S
C968 H972 0.931 . S
C969 N966 1.313 . S
C969 N970 1.344 . S
C969 H973 0.930 . S
N970 C967 1.377 . S
N970 C969 1.344 . S
O971 Co963 2.055 . S
O971 C975 1.253 . S
H972 C968 0.931 . S
H973 C969 0.930 . S
O974 Co963 2.039 . S
O974 C964 1.265 . S
C975 O971 1.253 . S
C975 O976 1.227 . S
O976 C975 1.227 . S
N977 Co963 2.140 . S
N977 C980 1.346 . S
N977 C981 1.345 . S
C978 C979 1.387 . S
C978 C982 1.391 . S
C979 C978 1.387 . S
C979 C980 1.369 . S
C979 H988 0.929 . S
C980 N977 1.346 . S
C980 C979 1.369 . S
C980 H983 0.928 . S
C981 N977 1.345 . S
C981 C982 1.371 . S
C981 H984 0.931 . S
C982 C978 1.391 . S
C982 C981 1.371 . S
C982 H989 0.930 . S
H983 C980 0.928 . S
H984 C981 0.931 . S
H985 C961 0.930 . S
H986 C958 0.930 . S
H987 C967 0.930 . S
H988 C979 0.929 . S
H989 C982 0.930 . S
C990 C991 1.351 . S
C990 N993 1.368 . S
C990 H995 0.931 . S
C991 C990 1.351 . S
C991 N992 1.373 . S
C991 H1019 0.930 . S
N992 C991 1.373 . S
N992 C994 1.340 . S
N993 C990 1.368 . S
N993 C994 1.321 . S
N993 Co996 2.135 . S
C994 N992 1.340 . S
C994 N993 1.321 . S
C994 H1018 0.930 . S
H995 C990 0.931 . S
Co996 N993 2.135 . S
Co996 N999 2.121 . S
Co996 O1004 2.055 . S
Co996 O1007 2.039 . S
Co996 N1010 2.140 . S
C997 O998 1.227 . S
C997 O1007 1.265 . S
O998 C997 1.227 . S
N999 Co996 2.121 . S
N999 C1001 1.375 . S
N999 C1002 1.313 . S
C1000 C1001 1.338 . S
C1000 N1003 1.377 . S
C1000 H1020 0.930 . S
C1001 N999 1.375 . S
C1001 C1000 1.338 . S
C1001 H1005 0.931 . S
C1002 N999 1.313 . S
C1002 N1003 1.344 . S
C1002 H1006 0.930 . S
N1003 C1000 1.377 . S
N1003 C1002 1.344 . S
O1004 Co996 2.055 . S
O1004 C1008 1.253 . S
H1005 C1001 0.931 . S
H1006 C1002 0.930 . S
O1007 Co996 2.039 . S
O1007 C997 1.265 . S
C1008 O1004 1.253 . S
C1008 O1009 1.227 . S
O1009 C1008 1.227 . S
N1010 Co996 2.140 . S
N1010 C1013 1.346 . S
N1010 C1014 1.345 . S
C1011 C1012 1.387 . S
C1011 C1015 1.391 . S
C1012 C1011 1.387 . S
C1012 C1013 1.369 . S
C1012 H1021 0.929 . S
C1013 N1010 1.346 . S
C1013 C1012 1.369 . S
C1013 H1016 0.928 . S
C1014 N1010 1.345 . S
C1014 C1015 1.371 . S
C1014 H1017 0.931 . S
C1015 C1011 1.391 . S
C1015 C1014 1.371 . S
C1015 H1022 0.930 . S
H1016 C1013 0.928 . S
H1017 C1014 0.931 . S
H1018 C994 0.930 . S
H1019 C991 0.930 . S
H1020 C1000 0.930 . S
H1021 C1012 0.929 . S
H1022 C1015 0.930 . S
C1023 C1024 1.351 . S
C1023 N1026 1.368 . S
C1023 H1028 0.931 . S
C1024 C1023 1.351 . S
C1024 N1025 1.373 . S
C1024 H1052 0.930 . S
N1025 C1024 1.373 . S
N1025 C1027 1.340 . S
N1026 C1023 1.368 . S
N1026 C1027 1.321 . S
N1026 Co1029 2.135 . S
C1027 N1025 1.340 . S
C1027 N1026 1.321 . S
C1027 H1051 0.930 . S
H1028 C1023 0.931 . S
Co1029 N1026 2.135 . S
Co1029 N1032 2.121 . S
Co1029 O1037 2.055 . S
Co1029 O1040 2.039 . S
Co1029 N1043 2.140 . S
C1030 O1031 1.227 . S
C1030 O1040 1.265 . S
O1031 C1030 1.227 . S
N1032 Co1029 2.121 . S
N1032 C1034 1.375 . S
N1032 C1035 1.313 . S
C1033 C1034 1.338 . S
C1033 N1036 1.377 . S
C1033 H1053 0.930 . S
C1034 N1032 1.375 . S
C1034 C1033 1.338 . S
C1034 H1038 0.931 . S
C1035 N1032 1.313 . S
C1035 N1036 1.344 . S
C1035 H1039 0.930 . S
N1036 C1033 1.377 . S
N1036 C1035 1.344 . S
O1037 Co1029 2.055 . S
O1037 C1041 1.253 . S
H1038 C1034 0.931 . S
H1039 C1035 0.930 . S
O1040 Co1029 2.039 . S
O1040 C1030 1.265 . S
C1041 O1037 1.253 . S
C1041 O1042 1.227 . S
O1042 C1041 1.227 . S
N1043 Co1029 2.140 . S
N1043 C1046 1.346 . S
N1043 C1047 1.345 . S
C1044 C1045 1.387 . S
C1044 C1048 1.391 . S
C1045 C1044 1.387 . S
C1045 C1046 1.369 . S
C1045 H1054 0.929 . S
C1046 N1043 1.346 . S
C1046 C1045 1.369 . S
C1046 H1049 0.928 . S
C1047 N1043 1.345 . S
C1047 C1048 1.371 . S
C1047 H1050 0.931 . S
C1048 C1044 1.391 . S
C1048 C1047 1.371 . S
C1048 H1055 0.930 . S
H1049 C1046 0.928 . S
H1050 C1047 0.931 . S
H1051 C1027 0.930 . S
H1052 C1024 0.930 . S
H1053 C1033 0.930 . S
H1054 C1045 0.929 . S
H1055 C1048 0.930 . S
H1056 C1064 0.950 . S
H1057 C1069 0.950 . S
H1058 C1066 0.950 . S
H1059 C1068 0.950 . S
H1060 C1070 0.950 . S
H1061 C1072 0.950 . S
H1062 C1074 0.950 . S
H1063 C1075 0.950 . S
C1064 H1056 0.950 . S
C1064 C1065 1.386 . S
C1064 C1066 1.391 . S
C1065 C1064 1.386 . S
C1065 C1069 1.393 . S
C1066 H1058 0.950 . S
C1066 C1064 1.391 . S
C1066 C1067 1.400 . S
C1067 C1066 1.400 . S
C1067 C1068 1.398 . S
C1067 C1073 1.491 . S
C1068 H1059 0.950 . S
C1068 C1067 1.398 . S
C1068 C1069 1.391 . S
C1069 H1057 0.950 . S
C1069 C1065 1.393 . S
C1069 C1068 1.391 . S
C1070 H1060 0.950 . S
C1070 C1071 1.386 . S
C1070 C1072 1.391 . S
C1071 C1070 1.386 . S
C1071 C1075 1.393 . S
C1072 H1061 0.950 . S
C1072 C1070 1.391 . S
C1072 C1073 1.400 . S
C1073 C1067 1.491 . S
C1073 C1072 1.400 . S
C1073 C1074 1.398 . S
C1074 H1062 0.950 . S
C1074 C1073 1.398 . S
C1074 C1075 1.391 . S
C1075 H1063 0.950 . S
C1075 C1071 1.393 . S
C1075 C1074 1.391 . S
H1076 C1084 0.950 . S
H1077 C1089 0.950 . S
H1078 C1086 0.950 . S
H1079 C1088 0.950 1_655 S
H1080 C1090 0.950 . S
H1081 C1092 0.950 . S
H1082 C1094 0.950 . S
H1083 C1095 0.950 . S
C1084 H1076 0.950 . S
C1084 C1085 1.386 1_455 S
C1084 C1086 1.391 . S
C1085 C1084 1.386 1_655 S
C1085 C1089 1.393 . S
C1086 H1078 0.950 . S
C1086 C1084 1.391 . S
C1086 C1087 1.400 . S
C1087 C1086 1.400 . S
C1087 C1088 1.401 . S
C1087 C1093 1.491 . S
C1088 H1079 0.950 1_455 S
C1088 C1087 1.401 . S
C1088 C1089 1.388 1_455 S
C1089 H1077 0.950 . S
C1089 C1085 1.393 . S
C1089 C1088 1.388 1_655 S
C1090 H1080 0.950 . S
C1090 C1091 1.386 . S
C1090 C1092 1.391 . S
C1091 C1090 1.386 . S
C1091 C1095 1.393 . S
C1092 H1081 0.950 . S
C1092 C1090 1.391 . S
C1092 C1093 1.400 . S
C1093 C1087 1.491 . S
C1093 C1092 1.400 . S
C1093 C1094 1.398 . S
C1094 H1082 0.950 . S
C1094 C1093 1.398 . S
C1094 C1095 1.391 . S
C1095 H1083 0.950 . S
C1095 C1091 1.393 . S
C1095 C1094 1.391 . S
H1096 C1104 0.950 . S
H1097 C1109 0.950 . S
H1098 C1106 0.950 . S
H1099 C1108 0.950 . S
H1100 C1110 0.950 . S
H1101 C1112 0.950 . S
H1102 C1114 0.950 . S
H1103 C1115 0.950 . S
C1104 H1096 0.950 . S
C1104 C1105 1.386 . S
C1104 C1106 1.391 . S
C1105 C1104 1.386 . S
C1105 C1109 1.393 . S
C1106 H1098 0.950 . S
C1106 C1104 1.391 . S
C1106 C1107 1.400 . S
C1107 C1106 1.400 . S
C1107 C1108 1.398 . S
C1107 C1113 1.491 . S
C1108 H1099 0.950 . S
C1108 C1107 1.398 . S
C1108 C1109 1.391 . S
C1109 H1097 0.950 . S
C1109 C1105 1.393 . S
C1109 C1108 1.391 . S
C1110 H1100 0.950 . S
C1110 C1111 1.386 . S
C1110 C1112 1.391 . S
C1111 C1110 1.386 . S
C1111 C1115 1.393 . S
C1112 H1101 0.950 . S
C1112 C1110 1.391 . S
C1112 C1113 1.400 . S
C1113 C1107 1.491 . S
C1113 C1112 1.400 . S
C1113 C1114 1.398 . S
C1114 H1102 0.950 . S
C1114 C1113 1.398 . S
C1114 C1115 1.391 . S
C1115 H1103 0.950 . S
C1115 C1111 1.393 . S
C1115 C1114 1.391 . S
H1116 C1124 0.950 . S
H1117 C1129 0.950 . S
H1118 C1126 0.950 . S
H1119 C1128 0.950 . S
H1120 C1130 0.950 . S
H1121 C1132 0.950 . S
H1122 C1134 0.950 . S
H1123 C1135 0.950 . S
C1124 H1116 0.950 . S
C1124 C1125 1.386 . S
C1124 C1126 1.391 . S
C1125 C1124 1.386 . S
C1125 C1129 1.393 . S
C1126 H1118 0.950 . S
C1126 C1124 1.391 . S
C1126 C1127 1.400 . S
C1127 C1126 1.400 . S
C1127 C1128 1.398 . S
C1127 C1133 1.491 . S
C1128 H1119 0.950 . S
C1128 C1127 1.398 . S
C1128 C1129 1.391 . S
C1129 H1117 0.950 . S
C1129 C1125 1.393 . S
C1129 C1128 1.391 . S
C1130 H1120 0.950 . S
C1130 C1131 1.386 . S
C1130 C1132 1.391 . S
C1131 C1130 1.386 . S
C1131 C1135 1.393 . S
C1132 H1121 0.950 . S
C1132 C1130 1.391 . S
C1132 C1133 1.400 . S
C1133 C1127 1.491 . S
C1133 C1132 1.400 . S
C1133 C1134 1.398 . S
C1134 H1122 0.950 . S
C1134 C1133 1.398 . S
C1134 C1135 1.391 . S
C1135 H1123 0.950 . S
C1135 C1131 1.393 . S
C1135 C1134 1.391 . S
H1136 C1144 0.950 . S
H1137 C1149 0.950 . S
H1138 C1146 0.950 . S
H1139 C1148 0.950 . S
H1140 C1150 0.950 . S
H1141 C1152 0.950 . S
H1142 C1154 0.950 . S
H1143 C1155 0.950 . S
C1144 H1136 0.950 . S
C1144 C1145 1.386 . S
C1144 C1146 1.391 . S
C1145 C1144 1.386 . S
C1145 C1149 1.393 . S
C1146 H1138 0.950 . S
C1146 C1144 1.391 . S
C1146 C1147 1.400 . S
C1147 C1146 1.400 . S
C1147 C1148 1.398 . S
C1147 C1153 1.491 . S
C1148 H1139 0.950 . S
C1148 C1147 1.398 . S
C1148 C1149 1.391 . S
C1149 H1137 0.950 . S
C1149 C1145 1.393 . S
C1149 C1148 1.391 . S
C1150 H1140 0.950 . S
C1150 C1151 1.386 . S
C1150 C1152 1.391 . S
C1151 C1150 1.386 . S
C1151 C1155 1.393 . S
C1152 H1141 0.950 . S
C1152 C1150 1.391 . S
C1152 C1153 1.400 . S
C1153 C1147 1.491 . S
C1153 C1152 1.400 . S
C1153 C1154 1.398 . S
C1154 H1142 0.950 . S
C1154 C1153 1.398 . S
C1154 C1155 1.391 . S
C1155 H1143 0.950 . S
C1155 C1151 1.393 . S
C1155 C1154 1.391 . S
H1156 C1164 0.950 . S
H1157 C1169 0.950 . S
H1158 C1166 0.950 . S
H1159 C1168 0.950 . S
H1160 C1170 0.950 . S
H1161 C1172 0.950 . S
H1162 C1174 0.950 . S
H1163 C1175 0.950 . S
C1164 H1156 0.950 . S
C1164 C1165 1.386 . S
C1164 C1166 1.391 . S
C1165 C1164 1.386 . S
C1165 C1169 1.393 . S
C1166 H1158 0.950 . S
C1166 C1164 1.391 . S
C1166 C1167 1.400 . S
C1167 C1166 1.400 . S
C1167 C1168 1.398 . S
C1167 C1173 1.491 . S
C1168 H1159 0.950 . S
C1168 C1167 1.398 . S
C1168 C1169 1.391 . S
C1169 H1157 0.950 . S
C1169 C1165 1.393 . S
C1169 C1168 1.391 . S
C1170 H1160 0.950 . S
C1170 C1171 1.386 . S
C1170 C1172 1.391 . S
C1171 C1170 1.386 . S
C1171 C1175 1.393 . S
C1172 H1161 0.950 . S
C1172 C1170 1.391 . S
C1172 C1173 1.400 . S
C1173 C1167 1.491 . S
C1173 C1172 1.400 . S
C1173 C1174 1.398 . S
C1174 H1162 0.950 . S
C1174 C1173 1.398 . S
C1174 C1175 1.391 . S
C1175 H1163 0.950 . S
C1175 C1171 1.393 . S
C1175 C1174 1.391 . S
H1176 C1184 0.950 . S
H1177 C1189 0.950 . S
H1178 C1186 0.950 . S
H1179 C1188 0.950 . S
H1180 C1190 0.950 . S
H1181 C1192 0.950 . S
H1182 C1194 0.950 . S
H1183 C1195 0.950 . S
C1184 H1176 0.950 . S
C1184 C1185 1.386 . S
C1184 C1186 1.391 . S
C1185 C1184 1.386 . S
C1185 C1189 1.393 . S
C1186 H1178 0.950 . S
C1186 C1184 1.391 . S
C1186 C1187 1.400 . S
C1187 C1186 1.400 . S
C1187 C1188 1.398 . S
C1187 C1193 1.491 . S
C1188 H1179 0.950 . S
C1188 C1187 1.398 . S
C1188 C1189 1.391 . S
C1189 H1177 0.950 . S
C1189 C1185 1.393 . S
C1189 C1188 1.391 . S
C1190 H1180 0.950 . S
C1190 C1191 1.386 . S
C1190 C1192 1.391 . S
C1191 C1190 1.386 . S
C1191 C1195 1.393 . S
C1192 H1181 0.950 . S
C1192 C1190 1.391 . S
C1192 C1193 1.400 . S
C1193 C1187 1.491 . S
C1193 C1192 1.400 . S
C1193 C1194 1.398 . S
C1194 H1182 0.950 . S
C1194 C1193 1.398 . S
C1194 C1195 1.391 . S
C1195 H1183 0.950 . S
C1195 C1191 1.393 . S
C1195 C1194 1.391 . S
H1196 C1204 0.950 . S
H1197 C1209 0.950 . S
H1198 C1206 0.950 . S
H1199 C1208 0.950 . S
H1200 C1210 0.950 . S
H1201 C1212 0.950 . S
H1202 C1214 0.950 . S
H1203 C1215 0.950 . S
C1204 H1196 0.950 . S
C1204 C1205 1.386 . S
C1204 C1206 1.391 . S
C1205 C1204 1.386 . S
C1205 C1209 1.393 . S
C1206 H1198 0.950 . S
C1206 C1204 1.391 . S
C1206 C1207 1.400 . S
C1207 C1206 1.400 . S
C1207 C1208 1.398 . S
C1207 C1213 1.491 . S
C1208 H1199 0.950 . S
C1208 C1207 1.398 . S
C1208 C1209 1.391 . S
C1209 H1197 0.950 . S
C1209 C1205 1.393 . S
C1209 C1208 1.391 . S
C1210 H1200 0.950 . S
C1210 C1211 1.386 1_455 S
C1210 C1212 1.391 . S
C1211 C1210 1.386 1_655 S
C1211 C1215 1.393 . S
C1212 H1201 0.950 . S
C1212 C1210 1.391 . S
C1212 C1213 1.400 . S
C1213 C1207 1.491 . S
C1213 C1212 1.400 . S
C1213 C1214 1.398 1_455 S
C1214 H1202 0.950 . S
C1214 C1213 1.398 1_655 S
C1214 C1215 1.391 . S
C1215 H1203 0.950 . S
C1215 C1211 1.393 . S
C1215 C1214 1.391 . S
H1216 C1224 0.950 . S
H1217 C1229 0.950 . S
H1218 C1226 0.950 . S
H1219 C1228 0.950 . S
H1220 C1230 0.950 . S
H1221 C1232 0.950 . S
H1222 C1234 0.950 . S
H1223 C1235 0.950 . S
C1224 H1216 0.950 . S
C1224 C1225 1.386 . S
C1224 C1226 1.391 . S
C1225 C1224 1.386 . S
C1225 C1229 1.393 . S
C1226 H1218 0.950 . S
C1226 C1224 1.391 . S
C1226 C1227 1.400 . S
C1227 C1226 1.400 . S
C1227 C1228 1.398 . S
C1227 C1233 1.491 . S
C1228 H1219 0.950 . S
C1228 C1227 1.398 . S
C1228 C1229 1.391 . S
C1229 H1217 0.950 . S
C1229 C1225 1.393 . S
C1229 C1228 1.391 . S
C1230 H1220 0.950 . S
C1230 C1231 1.386 . S
C1230 C1232 1.391 . S
C1231 C1230 1.386 . S
C1231 C1235 1.393 . S
C1232 H1221 0.950 . S
C1232 C1230 1.391 . S
C1232 C1233 1.400 . S
C1233 C1227 1.491 . S
C1233 C1232 1.400 . S
C1233 C1234 1.398 . S
C1234 H1222 0.950 . S
C1234 C1233 1.398 . S
C1234 C1235 1.391 . S
C1235 H1223 0.950 . S
C1235 C1231 1.393 . S
C1235 C1234 1.391 . S
H1236 C1244 0.950 . S
H1237 C1249 0.950 . S
H1238 C1246 0.950 . S
H1239 C1248 0.950 . S
H1240 C1250 0.950 . S
H1241 C1252 0.950 . S
H1242 C1254 0.950 . S
H1243 C1255 0.950 . S
C1244 H1236 0.950 . S
C1244 C1245 1.386 1_655 S
C1244 C1246 1.391 . S
C1245 C1244 1.386 1_455 S
C1245 C1249 1.393 . S
C1246 H1238 0.950 . S
C1246 C1244 1.391 . S
C1246 C1247 1.400 . S
C1247 C1246 1.400 . S
C1247 C1248 1.398 1_655 S
C1247 C1253 1.491 . S
C1248 H1239 0.950 . S
C1248 C1247 1.398 1_455 S
C1248 C1249 1.391 . S
C1249 H1237 0.950 . S
C1249 C1245 1.393 . S
C1249 C1248 1.391 . S
C1250 H1240 0.950 . S
C1250 C1251 1.386 . S
C1250 C1252 1.391 . S
C1251 C1250 1.386 . S
C1251 C1255 1.393 . S
C1252 H1241 0.950 . S
C1252 C1250 1.391 . S
C1252 C1253 1.400 . S
C1253 C1247 1.491 . S
C1253 C1252 1.400 . S
C1253 C1254 1.398 . S
C1254 H1242 0.950 . S
C1254 C1253 1.398 . S
C1254 C1255 1.391 . S
C1255 H1243 0.950 . S
C1255 C1251 1.393 . S
C1255 C1254 1.391 . S
H1256 C1264 0.950 . S
H1257 C1269 0.950 . S
H1258 C1266 0.950 . S
H1259 C1268 0.950 . S
H1260 C1270 0.950 . S
H1261 C1272 0.950 . S
H1262 C1274 0.950 . S
H1263 C1275 0.950 . S
C1264 H1256 0.950 . S
C1264 C1265 1.386 . S
C1264 C1266 1.391 . S
C1265 C1264 1.386 . S
C1265 C1269 1.393 . S
C1266 H1258 0.950 . S
C1266 C1264 1.391 . S
C1266 C1267 1.400 . S
C1267 C1266 1.400 . S
C1267 C1268 1.398 . S
C1267 C1273 1.491 . S
C1268 H1259 0.950 . S
C1268 C1267 1.398 . S
C1268 C1269 1.391 . S
C1269 H1257 0.950 . S
C1269 C1265 1.393 . S
C1269 C1268 1.391 . S
C1270 H1260 0.950 . S
C1270 C1271 1.386 . S
C1270 C1272 1.391 . S
C1271 C1270 1.386 . S
C1271 C1275 1.393 . S
C1272 H1261 0.950 . S
C1272 C1270 1.391 . S
C1272 C1273 1.400 . S
C1273 C1267 1.491 . S
C1273 C1272 1.400 . S
C1273 C1274 1.398 . S
C1274 H1262 0.950 . S
C1274 C1273 1.398 . S
C1274 C1275 1.391 . S
C1275 H1263 0.950 . S
C1275 C1271 1.393 . S
C1275 C1274 1.391 . S
H1276 C1284 0.950 . S
H1277 C1289 0.950 . S
H1278 C1286 0.950 . S
H1279 C1288 0.950 . S
H1280 C1290 0.950 . S
H1281 C1292 0.950 . S
H1282 C1294 0.950 . S
H1283 C1295 0.950 . S
C1284 H1276 0.950 . S
C1284 C1285 1.386 . S
C1284 C1286 1.391 . S
C1285 C1284 1.386 . S
C1285 C1289 1.393 . S
C1286 H1278 0.950 . S
C1286 C1284 1.391 . S
C1286 C1287 1.400 . S
C1287 C1286 1.400 . S
C1287 C1288 1.398 . S
C1287 C1293 1.491 . S
C1288 H1279 0.950 . S
C1288 C1287 1.398 . S
C1288 C1289 1.391 . S
C1289 H1277 0.950 . S
C1289 C1285 1.393 . S
C1289 C1288 1.391 . S
C1290 H1280 0.950 . S
C1290 C1291 1.386 . S
C1290 C1292 1.391 . S
C1291 C1290 1.386 . S
C1291 C1295 1.393 . S
C1292 H1281 0.950 . S
C1292 C1290 1.391 . S
C1292 C1293 1.400 . S
C1293 C1287 1.491 . S
C1293 C1292 1.400 . S
C1293 C1294 1.398 . S
C1294 H1282 0.950 . S
C1294 C1293 1.398 . S
C1294 C1295 1.391 . S
C1295 H1283 0.950 . S
C1295 C1291 1.393 . S
C1295 C1294 1.391 . S
H1296 C1304 0.950 . S
H1297 C1309 0.950 . S
H1298 C1306 0.950 . S
H1299 C1308 0.950 . S
H1300 C1310 0.950 . S
H1301 C1312 0.950 . S
H1302 C1314 0.950 . S
H1303 C1315 0.950 . S
C1304 H1296 0.950 . S
C1304 C1305 1.386 . S
C1304 C1306 1.391 . S
C1305 C1304 1.386 . S
C1305 C1309 1.393 . S
C1306 H1298 0.950 . S
C1306 C1304 1.391 . S
C1306 C1307 1.400 . S
C1307 C1306 1.400 . S
C1307 C1308 1.398 . S
C1307 C1313 1.491 . S
C1308 H1299 0.950 . S
C1308 C1307 1.398 . S
C1308 C1309 1.391 . S
C1309 H1297 0.950 . S
C1309 C1305 1.393 . S
C1309 C1308 1.391 . S
C1310 H1300 0.950 . S
C1310 C1311 1.386 . S
C1310 C1312 1.391 . S
C1311 C1310 1.386 . S
C1311 C1315 1.393 . S
C1312 H1301 0.950 . S
C1312 C1310 1.391 . S
C1312 C1313 1.400 . S
C1313 C1307 1.491 . S
C1313 C1312 1.400 . S
C1313 C1314 1.398 . S
C1314 H1302 0.950 . S
C1314 C1313 1.398 . S
C1314 C1315 1.391 . S
C1315 H1303 0.950 . S
C1315 C1311 1.393 . S
C1315 C1314 1.391 . S
H1316 C1324 0.950 . S
H1317 C1329 0.950 . S
H1318 C1326 0.950 . S
H1319 C1328 0.950 . S
H1320 C1330 0.950 . S
H1321 C1332 0.950 . S
H1322 C1334 0.950 . S
H1323 C1335 0.950 . S
C1324 H1316 0.950 . S
C1324 C1325 1.386 . S
C1324 C1326 1.391 . S
C1325 C1324 1.386 . S
C1325 C1329 1.393 . S
C1326 H1318 0.950 . S
C1326 C1324 1.391 . S
C1326 C1327 1.400 . S
C1327 C1326 1.400 . S
C1327 C1328 1.398 . S
C1327 C1333 1.491 . S
C1328 H1319 0.950 . S
C1328 C1327 1.398 . S
C1328 C1329 1.391 . S
C1329 H1317 0.950 . S
C1329 C1325 1.393 . S
C1329 C1328 1.391 . S
C1330 H1320 0.950 . S
C1330 C1331 1.386 . S
C1330 C1332 1.391 . S
C1331 C1330 1.386 . S
C1331 C1335 1.393 . S
C1332 H1321 0.950 . S
C1332 C1330 1.391 . S
C1332 C1333 1.400 . S
C1333 C1327 1.491 . S
C1333 C1332 1.400 . S
C1333 C1334 1.398 . S
C1334 H1322 0.950 . S
C1334 C1333 1.398 . S
C1334 C1335 1.391 . S
C1335 H1323 0.950 . S
C1335 C1331 1.393 . S
C1335 C1334 1.391 . S
H1336 C1344 0.950 . S
H1337 C1349 0.950 . S
H1338 C1346 0.950 . S
H1339 C1348 0.950 . S
H1340 C1350 0.950 . S
H1341 C1352 0.950 . S
H1342 C1354 0.950 . S
H1343 C1355 0.950 . S
C1344 H1336 0.950 . S
C1344 C1345 1.386 . S
C1344 C1346 1.391 . S
C1345 C1344 1.386 . S
C1345 C1349 1.393 . S
C1346 H1338 0.950 . S
C1346 C1344 1.391 . S
C1346 C1347 1.400 . S
C1347 C1346 1.400 . S
C1347 C1348 1.398 . S
C1347 C1353 1.491 . S
C1348 H1339 0.950 . S
C1348 C1347 1.398 . S
C1348 C1349 1.391 . S
C1349 H1337 0.950 . S
C1349 C1345 1.393 . S
C1349 C1348 1.391 . S
C1350 H1340 0.950 . S
C1350 C1351 1.386 . S
C1350 C1352 1.391 . S
C1351 C1350 1.386 . S
C1351 C1355 1.393 . S
C1352 H1341 0.950 . S
C1352 C1350 1.391 . S
C1352 C1353 1.400 . S
C1353 C1347 1.491 . S
C1353 C1352 1.400 . S
C1353 C1354 1.398 . S
C1354 H1342 0.950 . S
C1354 C1353 1.398 . S
C1354 C1355 1.391 . S
C1355 H1343 0.950 . S
C1355 C1351 1.393 . S
C1355 C1354 1.391 . S
H1356 C1364 0.950 . S
H1357 C1369 0.950 . S
H1358 C1366 0.950 . S
H1359 C1368 0.950 . S
H1360 C1370 0.950 . S
H1361 C1372 0.950 . S
H1362 C1374 0.950 . S
H1363 C1375 0.950 . S
C1364 H1356 0.950 . S
C1364 C1365 1.386 1_655 S
C1364 C1366 1.391 . S
C1365 C1364 1.386 1_455 S
C1365 C1369 1.393 . S
C1366 H1358 0.950 . S
C1366 C1364 1.391 . S
C1366 C1367 1.400 . S
C1367 C1366 1.400 . S
C1367 C1368 1.398 1_655 S
C1367 C1373 1.491 . S
C1368 H1359 0.950 . S
C1368 C1367 1.398 1_455 S
C1368 C1369 1.391 . S
C1369 H1357 0.950 . S
C1369 C1365 1.393 . S
C1369 C1368 1.391 . S
C1370 H1360 0.950 . S
C1370 C1371 1.386 . S
C1370 C1372 1.391 . S
C1371 C1370 1.386 . S
C1371 C1375 1.393 . S
C1372 H1361 0.950 . S
C1372 C1370 1.391 . S
C1372 C1373 1.400 . S
C1373 C1367 1.491 . S
C1373 C1372 1.400 . S
C1373 C1374 1.398 . S
C1374 H1362 0.950 . S
C1374 C1373 1.398 . S
C1374 C1375 1.391 . S
C1375 H1363 0.950 . S
C1375 C1371 1.393 . S
C1375 C1374 1.391 . S
H1376 C1384 0.950 . S
H1377 C1389 0.950 . S
H1378 C1386 0.950 . S
H1379 C1388 0.950 . S
H1380 C1390 0.950 . S
H1381 C1392 0.950 . S
H1382 C1394 0.950 . S
H1383 C1395 0.950 . S
C1384 H1376 0.950 . S
C1384 C1385 1.386 . S
C1384 C1386 1.391 . S
C1385 C1384 1.386 . S
C1385 C1389 1.393 . S
C1386 H1378 0.950 . S
C1386 C1384 1.391 . S
C1386 C1387 1.400 . S
C1387 C1386 1.400 . S
C1387 C1388 1.398 . S
C1387 C1393 1.491 . S
C1388 H1379 0.950 . S
C1388 C1387 1.398 . S
C1388 C1389 1.391 . S
C1389 H1377 0.950 . S
C1389 C1385 1.393 . S
C1389 C1388 1.391 . S
C1390 H1380 0.950 . S
C1390 C1391 1.386 . S
C1390 C1392 1.391 . S
C1391 C1390 1.386 . S
C1391 C1395 1.393 . S
C1392 H1381 0.950 . S
C1392 C1390 1.391 . S
C1392 C1393 1.400 . S
C1393 C1387 1.491 . S
C1393 C1392 1.400 . S
C1393 C1394 1.398 . S
C1394 H1382 0.950 . S
C1394 C1393 1.398 . S
C1394 C1395 1.391 . S
C1395 H1383 0.950 . S
C1395 C1391 1.393 . S
C1395 C1394 1.391 . S
H1396 C1404 0.950 . S
H1397 C1409 0.950 . S
H1398 C1406 0.950 . S
H1399 C1408 0.950 . S
H1400 C1410 0.950 . S
H1401 C1412 0.950 . S
H1402 C1414 0.950 . S
H1403 C1415 0.950 . S
C1404 H1396 0.950 . S
C1404 C1405 1.386 . S
C1404 C1406 1.391 . S
C1405 C1404 1.386 . S
C1405 C1409 1.393 . S
C1406 H1398 0.950 . S
C1406 C1404 1.391 . S
C1406 C1407 1.400 . S
C1407 C1406 1.400 . S
C1407 C1408 1.398 . S
C1407 C1413 1.491 . S
C1408 H1399 0.950 . S
C1408 C1407 1.398 . S
C1408 C1409 1.391 . S
C1409 H1397 0.950 . S
C1409 C1405 1.393 . S
C1409 C1408 1.391 . S
C1410 H1400 0.950 . S
C1410 C1411 1.386 . S
C1410 C1412 1.391 . S
C1411 C1410 1.386 . S
C1411 C1415 1.393 . S
C1412 H1401 0.950 . S
C1412 C1410 1.391 . S
C1412 C1413 1.400 . S
C1413 C1407 1.491 . S
C1413 C1412 1.400 . S
C1413 C1414 1.398 . S
C1414 H1402 0.950 . S
C1414 C1413 1.398 . S
C1414 C1415 1.391 . S
C1415 H1403 0.950 . S
C1415 C1411 1.393 . S
C1415 C1414 1.391 . S
H1416 C1424 0.950 . S
H1417 C1429 0.950 . S
H1418 C1426 0.950 . S
H1419 C1428 0.950 . S
H1420 C1430 0.950 . S
H1421 C1432 0.950 . S
H1422 C1434 0.950 . S
H1423 C1435 0.950 . S
C1424 H1416 0.950 . S
C1424 C1425 1.386 . S
C1424 C1426 1.391 . S
C1425 C1424 1.386 . S
C1425 C1429 1.393 . S
C1426 H1418 0.950 . S
C1426 C1424 1.391 . S
C1426 C1427 1.400 . S
C1427 C1426 1.400 . S
C1427 C1428 1.398 . S
C1427 C1433 1.491 . S
C1428 H1419 0.950 . S
C1428 C1427 1.398 . S
C1428 C1429 1.391 . S
C1429 H1417 0.950 . S
C1429 C1425 1.393 . S
C1429 C1428 1.391 . S
C1430 H1420 0.950 . S
C1430 C1431 1.386 . S
C1430 C1432 1.391 . S
C1431 C1430 1.386 . S
C1431 C1435 1.393 . S
C1432 H1421 0.950 . S
C1432 C1430 1.391 . S
C1432 C1433 1.400 . S
C1433 C1427 1.491 . S
C1433 C1432 1.400 . S
C1433 C1434 1.398 . S
C1434 H1422 0.950 . S
C1434 C1433 1.398 . S
C1434 C1435 1.391 . S
C1435 H1423 0.950 . S
C1435 C1431 1.393 . S
C1435 C1434 1.391 . S
H1436 C1444 0.950 . S
H1437 C1449 0.950 . S
H1438 C1446 0.950 . S
H1439 C1448 0.950 . S
H1440 C1450 0.950 . S
H1441 C1452 0.950 . S
H1442 C1454 0.951 . S
H1443 C1455 0.950 . S
C1444 H1436 0.950 . S
C1444 C1445 1.386 . S
C1444 C1446 1.391 . S
C1445 C1444 1.386 . S
C1445 C1449 1.393 . S
C1446 H1438 0.950 . S
C1446 C1444 1.391 . S
C1446 C1447 1.400 . S
C1447 C1446 1.400 . S
C1447 C1448 1.398 . S
C1447 C1453 1.491 . S
C1448 H1439 0.950 . S
C1448 C1447 1.398 . S
C1448 C1449 1.391 . S
C1449 H1437 0.950 . S
C1449 C1445 1.393 . S
C1449 C1448 1.391 . S
C1450 H1440 0.950 . S
C1450 C1451 1.386 1_655 S
C1450 C1452 1.391 . S
C1451 C1450 1.386 1_455 S
C1451 C1455 1.393 . S
C1452 H1441 0.950 . S
C1452 C1450 1.391 . S
C1452 C1453 1.400 . S
C1453 C1447 1.491 . S
C1453 C1452 1.400 . S
C1453 C1454 1.398 . S
C1454 H1442 0.951 . S
C1454 C1453 1.398 . S
C1454 C1455 1.391 1_655 S
C1455 H1443 0.950 . S
C1455 C1451 1.393 . S
C1455 C1454 1.391 1_455 S
H1456 C1464 0.950 . S
H1457 C1469 0.950 . S
H1458 C1466 0.950 . S
H1459 C1468 0.950 . S
H1460 C1470 0.950 . S
H1461 C1472 0.950 . S
H1462 C1474 0.950 . S
H1463 C1475 0.950 . S
C1464 H1456 0.950 . S
C1464 C1465 1.386 . S
C1464 C1466 1.391 . S
C1465 C1464 1.386 . S
C1465 C1469 1.393 . S
C1466 H1458 0.950 . S
C1466 C1464 1.391 . S
C1466 C1467 1.400 . S
C1467 C1466 1.400 . S
C1467 C1468 1.398 . S
C1467 C1473 1.491 . S
C1468 H1459 0.950 . S
C1468 C1467 1.398 . S
C1468 C1469 1.391 . S
C1469 H1457 0.950 . S
C1469 C1465 1.393 . S
C1469 C1468 1.391 . S
C1470 H1460 0.950 . S
C1470 C1471 1.386 . S
C1470 C1472 1.391 . S
C1471 C1470 1.386 . S
C1471 C1475 1.393 . S
C1472 H1461 0.950 . S
C1472 C1470 1.391 . S
C1472 C1473 1.400 . S
C1473 C1467 1.491 . S
C1473 C1472 1.400 . S
C1473 C1474 1.398 . S
C1474 H1462 0.950 . S
C1474 C1473 1.398 . S
C1474 C1475 1.391 . S
C1475 H1463 0.950 . S
C1475 C1471 1.393 . S
C1475 C1474 1.391 . S
H1476 C1484 0.950 . S
H1477 C1489 0.950 . S
H1478 C1486 0.950 . S
H1479 C1488 0.950 . S
H1480 C1490 0.950 . S
H1481 C1492 0.950 . S
H1482 C1494 0.950 . S
H1483 C1495 0.950 . S
C1484 H1476 0.950 . S
C1484 C1485 1.386 . S
C1484 C1486 1.391 . S
C1485 C1484 1.386 . S
C1485 C1489 1.393 1_455 S
C1486 H1478 0.950 . S
C1486 C1484 1.391 . S
C1486 C1487 1.400 1_455 S
C1487 C1486 1.400 1_655 S
C1487 C1488 1.398 . S
C1487 C1493 1.491 . S
C1488 H1479 0.950 . S
C1488 C1487 1.398 . S
C1488 C1489 1.391 . S
C1489 H1477 0.950 . S
C1489 C1485 1.393 1_655 S
C1489 C1488 1.391 . S
C1490 H1480 0.950 . S
C1490 C1491 1.386 . S
C1490 C1492 1.391 . S
C1491 C1490 1.386 . S
C1491 C1495 1.393 . S
C1492 H1481 0.950 . S
C1492 C1490 1.391 . S
C1492 C1493 1.400 . S
C1493 C1487 1.491 . S
C1493 C1492 1.400 . S
C1493 C1494 1.398 . S
C1494 H1482 0.950 . S
C1494 C1493 1.398 . S
C1494 C1495 1.391 . S
C1495 H1483 0.950 . S
C1495 C1491 1.393 . S
C1495 C1494 1.391 . S
H1496 C1504 0.950 . S
H1497 C1509 0.950 . S
H1498 C1506 0.950 . S
H1499 C1508 0.950 . S
H1500 C1510 0.950 . S
H1501 C1512 0.950 . S
H1502 C1514 0.950 . S
H1503 C1515 0.950 . S
C1504 H1496 0.950 . S
C1504 C1505 1.386 . S
C1504 C1506 1.391 . S
C1505 C1504 1.386 . S
C1505 C1509 1.393 . S
C1506 H1498 0.950 . S
C1506 C1504 1.391 . S
C1506 C1507 1.400 . S
C1507 C1506 1.400 . S
C1507 C1508 1.398 . S
C1507 C1513 1.491 . S
C1508 H1499 0.950 . S
C1508 C1507 1.398 . S
C1508 C1509 1.391 . S
C1509 H1497 0.950 . S
C1509 C1505 1.393 . S
C1509 C1508 1.391 . S
C1510 H1500 0.950 . S
C1510 C1511 1.386 . S
C1510 C1512 1.391 . S
C1511 C1510 1.386 . S
C1511 C1515 1.393 . S
C1512 H1501 0.950 . S
C1512 C1510 1.391 . S
C1512 C1513 1.400 . S
C1513 C1507 1.491 . S
C1513 C1512 1.400 . S
C1513 C1514 1.398 . S
C1514 H1502 0.950 . S
C1514 C1513 1.398 . S
C1514 C1515 1.391 . S
C1515 H1503 0.950 . S
C1515 C1511 1.393 . S
C1515 C1514 1.391 . S
H1516 C1524 0.950 . S
H1517 C1529 0.950 . S
H1518 C1526 0.950 . S
H1519 C1528 0.950 . S
H1520 C1530 0.950 . S
H1521 C1532 0.950 . S
H1522 C1534 0.950 . S
H1523 C1535 0.950 . S
C1524 H1516 0.950 . S
C1524 C1525 1.386 . S
C1524 C1526 1.391 . S
C1525 C1524 1.386 . S
C1525 C1529 1.393 . S
C1526 H1518 0.950 . S
C1526 C1524 1.391 . S
C1526 C1527 1.400 . S
C1527 C1526 1.400 . S
C1527 C1528 1.398 . S
C1527 C1533 1.491 . S
C1528 H1519 0.950 . S
C1528 C1527 1.398 . S
C1528 C1529 1.391 . S
C1529 H1517 0.950 . S
C1529 C1525 1.393 . S
C1529 C1528 1.391 . S
C1530 H1520 0.950 . S
C1530 C1531 1.386 . S
C1530 C1532 1.391 . S
C1531 C1530 1.386 . S
C1531 C1535 1.393 . S
C1532 H1521 0.950 . S
C1532 C1530 1.391 . S
C1532 C1533 1.400 . S
C1533 C1527 1.491 . S
C1533 C1532 1.400 . S
C1533 C1534 1.398 . S
C1534 H1522 0.950 . S
C1534 C1533 1.398 . S
C1534 C1535 1.391 . S
C1535 H1523 0.950 . S
C1535 C1531 1.393 . S
C1535 C1534 1.391 . S
H1536 C1544 0.950 . S
H1537 C1549 0.950 . S
H1538 C1546 0.950 . S
H1539 C1548 0.950 . S
H1540 C1550 0.950 . S
H1541 C1552 0.950 . S
H1542 C1554 0.950 . S
H1543 C1555 0.950 . S
C1544 H1536 0.950 . S
C1544 C1545 1.386 . S
C1544 C1546 1.391 . S
C1545 C1544 1.386 . S
C1545 C1549 1.393 . S
C1546 H1538 0.950 . S
C1546 C1544 1.391 . S
C1546 C1547 1.400 . S
C1547 C1546 1.400 . S
C1547 C1548 1.398 . S
C1547 C1553 1.491 . S
C1548 H1539 0.950 . S
C1548 C1547 1.398 . S
C1548 C1549 1.391 . S
C1549 H1537 0.950 . S
C1549 C1545 1.393 . S
C1549 C1548 1.391 . S
C1550 H1540 0.950 . S
C1550 C1551 1.386 . S
C1550 C1552 1.391 . S
C1551 C1550 1.386 . S
C1551 C1555 1.393 . S
C1552 H1541 0.950 . S
C1552 C1550 1.391 . S
C1552 C1553 1.400 . S
C1553 C1547 1.491 . S
C1553 C1552 1.400 . S
C1553 C1554 1.398 . S
C1554 H1542 0.950 . S
C1554 C1553 1.398 . S
C1554 C1555 1.391 . S
C1555 H1543 0.950 . S
C1555 C1551 1.393 . S
C1555 C1554 1.391 . S
H1556 C1564 0.950 . S
H1557 C1569 0.950 . S
H1558 C1566 0.950 . S
H1559 C1568 0.950 . S
H1560 C1570 0.950 . S
H1561 C1572 0.950 . S
H1562 C1574 0.950 . S
H1563 C1575 0.950 . S
C1564 H1556 0.950 . S
C1564 C1565 1.386 . S
C1564 C1566 1.391 . S
C1565 C1564 1.386 . S
C1565 C1569 1.393 . S
C1566 H1558 0.950 . S
C1566 C1564 1.391 . S
C1566 C1567 1.400 . S
C1567 C1566 1.400 . S
C1567 C1568 1.398 . S
C1567 C1573 1.491 . S
C1568 H1559 0.950 . S
C1568 C1567 1.398 . S
C1568 C1569 1.391 . S
C1569 H1557 0.950 . S
C1569 C1565 1.393 . S
C1569 C1568 1.391 . S
C1570 H1560 0.950 . S
C1570 C1571 1.386 . S
C1570 C1572 1.391 . S
C1571 C1570 1.386 . S
C1571 C1575 1.393 . S
C1572 H1561 0.950 . S
C1572 C1570 1.391 . S
C1572 C1573 1.400 . S
C1573 C1567 1.491 . S
C1573 C1572 1.400 . S
C1573 C1574 1.398 . S
C1574 H1562 0.950 . S
C1574 C1573 1.398 . S
C1574 C1575 1.391 . S
C1575 H1563 0.950 . S
C1575 C1571 1.393 . S
C1575 C1574 1.391 . S
H1576 C1584 0.950 . S
H1577 C1589 0.950 . S
H1578 C1586 0.950 . S
H1579 C1588 0.950 . S
H1580 C1590 0.950 . S
H1581 C1592 0.950 . S
H1582 C1594 0.950 . S
H1583 C1595 0.950 . S
C1584 H1576 0.950 . S
C1584 C1585 1.386 . S
C1584 C1586 1.391 . S
C1585 C1584 1.386 . S
C1585 C1589 1.393 . S
C1586 H1578 0.950 . S
C1586 C1584 1.391 . S
C1586 C1587 1.400 . S
C1587 C1586 1.400 . S
C1587 C1588 1.398 . S
C1587 C1593 1.491 . S
C1588 H1579 0.950 . S
C1588 C1587 1.398 . S
C1588 C1589 1.391 . S
C1589 H1577 0.950 . S
C1589 C1585 1.393 . S
C1589 C1588 1.391 . S
C1590 H1580 0.950 . S
C1590 C1591 1.386 . S
C1590 C1592 1.391 . S
C1591 C1590 1.386 . S
C1591 C1595 1.393 . S
C1592 H1581 0.950 . S
C1592 C1590 1.391 . S
C1592 C1593 1.400 . S
C1593 C1587 1.491 . S
C1593 C1592 1.400 . S
C1593 C1594 1.398 . S
C1594 H1582 0.950 . S
C1594 C1593 1.398 . S
C1594 C1595 1.391 . S
C1595 H1583 0.950 . S
C1595 C1591 1.393 . S
C1595 C1594 1.391 . S
H1596 C1604 0.950 . S
H1597 C1609 0.950 . S
H1598 C1606 0.950 . S
H1599 C1608 0.950 . S
H1600 C1610 0.950 . S
H1601 C1612 0.950 . S
H1602 C1614 0.950 . S
H1603 C1615 0.950 . S
C1604 H1596 0.950 . S
C1604 C1605 1.386 . S
C1604 C1606 1.391 . S
C1605 C1604 1.386 . S
C1605 C1609 1.393 . S
C1606 H1598 0.950 . S
C1606 C1604 1.391 . S
C1606 C1607 1.400 . S
C1607 C1606 1.400 . S
C1607 C1608 1.398 . S
C1607 C1613 1.491 . S
C1608 H1599 0.950 . S
C1608 C1607 1.398 . S
C1608 C1609 1.391 . S
C1609 H1597 0.950 . S
C1609 C1605 1.393 . S
C1609 C1608 1.391 . S
C1610 H1600 0.950 . S
C1610 C1611 1.386 . S
C1610 C1612 1.391 1_655 S
C1611 C1610 1.386 . S
C1611 C1615 1.393 . S
C1612 H1601 0.950 . S
C1612 C1610 1.391 1_455 S
C1612 C1613 1.400 . S
C1613 C1607 1.491 . S
C1613 C1612 1.400 . S
C1613 C1614 1.398 . S
C1614 H1602 0.950 . S
C1614 C1613 1.398 . S
C1614 C1615 1.391 1_455 S
C1615 H1603 0.950 . S
C1615 C1611 1.393 . S
C1615 C1614 1.391 1_655 S
H1616 C1624 0.950 . S
H1617 C1629 0.950 . S
H1618 C1626 0.950 . S
H1619 C1628 0.950 . S
H1620 C1630 0.950 . S
H1621 C1632 0.950 . S
H1622 C1634 0.950 . S
H1623 C1635 0.950 . S
C1624 H1616 0.950 . S
C1624 C1625 1.386 . S
C1624 C1626 1.391 . S
C1625 C1624 1.386 . S
C1625 C1629 1.393 . S
C1626 H1618 0.950 . S
C1626 C1624 1.391 . S
C1626 C1627 1.400 . S
C1627 C1626 1.400 . S
C1627 C1628 1.398 . S
C1627 C1633 1.491 . S
C1628 H1619 0.950 . S
C1628 C1627 1.398 . S
C1628 C1629 1.391 . S
C1629 H1617 0.950 . S
C1629 C1625 1.393 . S
C1629 C1628 1.391 . S
C1630 H1620 0.950 . S
C1630 C1631 1.386 . S
C1630 C1632 1.391 . S
C1631 C1630 1.386 . S
C1631 C1635 1.393 . S
C1632 H1621 0.950 . S
C1632 C1630 1.391 . S
C1632 C1633 1.400 . S
C1633 C1627 1.491 . S
C1633 C1632 1.400 . S
C1633 C1634 1.398 . S
C1634 H1622 0.950 . S
C1634 C1633 1.398 . S
C1634 C1635 1.391 . S
C1635 H1623 0.950 . S
C1635 C1631 1.393 . S
C1635 C1634 1.391 . S
H1636 C1644 0.950 . S
H1637 C1649 0.950 . S
H1638 C1646 0.950 . S
H1639 C1648 0.950 . S
H1640 C1650 0.950 . S
H1641 C1652 0.950 . S
H1642 C1654 0.950 . S
H1643 C1655 0.950 . S
C1644 H1636 0.950 . S
C1644 C1645 1.386 . S
C1644 C1646 1.391 . S
C1645 C1644 1.386 . S
C1645 C1649 1.393 . S
C1646 H1638 0.950 . S
C1646 C1644 1.391 . S
C1646 C1647 1.400 . S
C1647 C1646 1.400 . S
C1647 C1648 1.398 . S
C1647 C1653 1.491 . S
C1648 H1639 0.950 . S
C1648 C1647 1.398 . S
C1648 C1649 1.391 . S
C1649 H1637 0.950 . S
C1649 C1645 1.393 . S
C1649 C1648 1.391 . S
C1650 H1640 0.950 . S
C1650 C1651 1.386 . S
C1650 C1652 1.391 . S
C1651 C1650 1.386 . S
C1651 C1655 1.393 1_655 S
C1652 H1641 0.950 . S
C1652 C1650 1.391 . S
C1652 C1653 1.400 1_655 S
C1653 C1647 1.491 . S
C1653 C1652 1.400 1_455 S
C1653 C1654 1.398 . S
C1654 H1642 0.950 . S
C1654 C1653 1.398 . S
C1654 C1655 1.391 . S
C1655 H1643 0.950 . S
C1655 C1651 1.393 1_455 S
C1655 C1654 1.391 . S
H1656 C1664 0.950 . S
H1657 C1669 0.950 . S
H1658 C1666 0.950 . S
H1659 C1668 0.950 . S
H1660 C1670 0.950 . S
H1661 C1672 0.950 . S
H1662 C1674 0.950 . S
H1663 C1675 0.950 . S
C1664 H1656 0.950 . S
C1664 C1665 1.386 . S
C1664 C1666 1.391 . S
C1665 C1664 1.386 . S
C1665 C1669 1.393 . S
C1666 H1658 0.950 . S
C1666 C1664 1.391 . S
C1666 C1667 1.400 . S
C1667 C1666 1.400 . S
C1667 C1668 1.398 . S
C1667 C1673 1.491 . S
C1668 H1659 0.950 . S
C1668 C1667 1.398 . S
C1668 C1669 1.391 . S
C1669 H1657 0.950 . S
C1669 C1665 1.393 . S
C1669 C1668 1.391 . S
C1670 H1660 0.950 . S
C1670 C1671 1.386 . S
C1670 C1672 1.391 . S
C1671 C1670 1.386 . S
C1671 C1675 1.393 . S
C1672 H1661 0.950 . S
C1672 C1670 1.391 . S
C1672 C1673 1.400 . S
C1673 C1667 1.491 . S
C1673 C1672 1.400 . S
C1673 C1674 1.398 . S
C1674 H1662 0.950 . S
C1674 C1673 1.398 . S
C1674 C1675 1.391 . S
C1675 H1663 0.950 . S
C1675 C1671 1.393 . S
C1675 C1674 1.391 . S
H1676 C1684 0.950 . S
H1677 C1689 0.950 . S
H1678 C1686 0.950 . S
H1679 C1688 0.950 . S
H1680 C1690 0.950 . S
H1681 C1692 0.950 . S
H1682 C1694 0.950 . S
H1683 C1695 0.950 . S
C1684 H1676 0.950 . S
C1684 C1685 1.386 . S
C1684 C1686 1.391 . S
C1685 C1684 1.386 . S
C1685 C1689 1.393 . S
C1686 H1678 0.950 . S
C1686 C1684 1.391 . S
C1686 C1687 1.400 . S
C1687 C1686 1.400 . S
C1687 C1688 1.398 . S
C1687 C1693 1.491 . S
C1688 H1679 0.950 . S
C1688 C1687 1.398 . S
C1688 C1689 1.391 . S
C1689 H1677 0.950 . S
C1689 C1685 1.393 . S
C1689 C1688 1.391 . S
C1690 H1680 0.950 . S
C1690 C1691 1.386 . S
C1690 C1692 1.391 . S
C1691 C1690 1.386 . S
C1691 C1695 1.393 . S
C1692 H1681 0.950 . S
C1692 C1690 1.391 . S
C1692 C1693 1.400 . S
C1693 C1687 1.491 . S
C1693 C1692 1.400 . S
C1693 C1694 1.398 . S
C1694 H1682 0.950 . S
C1694 C1693 1.398 . S
C1694 C1695 1.391 . S
C1695 H1683 0.950 . S
C1695 C1691 1.393 . S
C1695 C1694 1.391 . S
H1696 C1704 0.950 . S
H1697 C1709 0.950 . S
H1698 C1706 0.950 . S
H1699 C1708 0.950 . S
H1700 C1710 0.950 . S
H1701 C1712 0.950 . S
H1702 C1714 0.950 . S
H1703 C1715 0.950 . S
C1704 H1696 0.950 . S
C1704 C1705 1.386 . S
C1704 C1706 1.391 . S
C1705 C1704 1.386 . S
C1705 C1709 1.393 1_545 S
C1706 H1698 0.950 . S
C1706 C1704 1.391 . S
C1706 C1707 1.400 1_545 S
C1707 C1706 1.400 1_565 S
C1707 C1708 1.398 . S
C1707 C1713 1.491 . S
C1708 H1699 0.950 . S
C1708 C1707 1.398 . S
C1708 C1709 1.391 . S
C1709 H1697 0.950 . S
C1709 C1705 1.393 1_565 S
C1709 C1708 1.391 . S
C1710 H1700 0.950 . S
C1710 C1711 1.386 . S
C1710 C1712 1.391 . S
C1711 C1710 1.386 . S
C1711 C1715 1.393 . S
C1712 H1701 0.950 . S
C1712 C1710 1.391 . S
C1712 C1713 1.400 . S
C1713 C1707 1.491 . S
C1713 C1712 1.400 . S
C1713 C1714 1.398 . S
C1714 H1702 0.950 . S
C1714 C1713 1.398 . S
C1714 C1715 1.391 . S
C1715 H1703 0.950 . S
C1715 C1711 1.393 . S
C1715 C1714 1.391 . S
H1716 C1724 0.950 . S
H1717 C1729 0.950 . S
H1718 C1726 0.950 . S
H1719 C1728 0.950 . S
H1720 C1730 0.950 . S
H1721 C1732 0.950 . S
H1722 C1734 0.950 . S
H1723 C1735 0.950 . S
C1724 H1716 0.950 . S
C1724 C1725 1.386 . S
C1724 C1726 1.391 1_545 S
C1725 C1724 1.386 . S
C1725 C1729 1.393 . S
C1726 H1718 0.950 . S
C1726 C1724 1.391 1_565 S
C1726 C1727 1.400 . S
C1727 C1726 1.400 . S
C1727 C1728 1.398 . S
C1727 C1733 1.491 . S
C1728 H1719 0.950 . S
C1728 C1727 1.398 . S
C1728 C1729 1.391 1_565 S
C1729 H1717 0.950 . S
C1729 C1725 1.393 . S
C1729 C1728 1.391 1_545 S
C1730 H1720 0.950 . S
C1730 C1731 1.386 . S
C1730 C1732 1.391 . S
C1731 C1730 1.386 . S
C1731 C1735 1.393 . S
C1732 H1721 0.950 . S
C1732 C1730 1.391 . S
C1732 C1733 1.400 . S
C1733 C1727 1.491 . S
C1733 C1732 1.400 . S
C1733 C1734 1.398 . S
C1734 H1722 0.950 . S
C1734 C1733 1.398 . S
C1734 C1735 1.391 . S
C1735 H1723 0.950 . S
C1735 C1731 1.393 . S
C1735 C1734 1.391 . S
H1736 C1744 0.950 . S
H1737 C1749 0.950 . S
H1738 C1746 0.950 . S
H1739 C1748 0.950 . S
H1740 C1750 0.950 . S
H1741 C1752 0.950 . S
H1742 C1754 0.950 . S
H1743 C1755 0.950 . S
C1744 H1736 0.950 . S
C1744 C1745 1.386 . S
C1744 C1746 1.391 . S
C1745 C1744 1.386 . S
C1745 C1749 1.393 . S
C1746 H1738 0.950 . S
C1746 C1744 1.391 . S
C1746 C1747 1.400 . S
C1747 C1746 1.400 . S
C1747 C1748 1.398 . S
C1747 C1753 1.491 . S
C1748 H1739 0.950 . S
C1748 C1747 1.398 . S
C1748 C1749 1.391 . S
C1749 H1737 0.950 . S
C1749 C1745 1.393 . S
C1749 C1748 1.391 . S
C1750 H1740 0.950 . S
C1750 C1751 1.386 . S
C1750 C1752 1.391 . S
C1751 C1750 1.386 . S
C1751 C1755 1.393 1_565 S
C1752 H1741 0.950 . S
C1752 C1750 1.391 . S
C1752 C1753 1.400 1_565 S
C1753 C1747 1.491 . S
C1753 C1752 1.400 1_545 S
C1753 C1754 1.398 . S
C1754 H1742 0.950 . S
C1754 C1753 1.398 . S
C1754 C1755 1.391 . S
C1755 H1743 0.950 . S
C1755 C1751 1.393 1_545 S
C1755 C1754 1.391 . S
H1756 C1764 0.950 . S
H1757 C1769 0.950 . S
H1758 C1766 0.950 . S
H1759 C1768 0.950 . S
H1760 C1770 0.950 . S
H1761 C1772 0.950 . S
H1762 C1774 0.950 . S
H1763 C1775 0.950 . S
C1764 H1756 0.950 . S
C1764 C1765 1.386 . S
C1764 C1766 1.391 . S
C1765 C1764 1.386 . S
C1765 C1769 1.393 . S
C1766 H1758 0.950 . S
C1766 C1764 1.391 . S
C1766 C1767 1.400 . S
C1767 C1766 1.400 . S
C1767 C1768 1.398 . S
C1767 C1773 1.491 . S
C1768 H1759 0.950 . S
C1768 C1767 1.398 . S
C1768 C1769 1.391 . S
C1769 H1757 0.950 . S
C1769 C1765 1.393 . S
C1769 C1768 1.391 . S
C1770 H1760 0.950 . S
C1770 C1771 1.386 . S
C1770 C1772 1.391 . S
C1771 C1770 1.386 . S
C1771 C1775 1.393 1_565 S
C1772 H1761 0.950 . S
C1772 C1770 1.391 . S
C1772 C1773 1.400 1_565 S
C1773 C1767 1.491 . S
C1773 C1772 1.400 1_545 S
C1773 C1774 1.398 . S
C1774 H1762 0.950 . S
C1774 C1773 1.398 . S
C1774 C1775 1.391 . S
C1775 H1763 0.950 . S
C1775 C1771 1.393 1_545 S
C1775 C1774 1.391 . S
H1776 C1784 0.952 . S
H1777 C1789 0.950 . S
H1778 C1786 0.950 . S
H1779 C1788 0.950 . S
H1780 C1790 0.950 . S
H1781 C1792 0.950 . S
H1782 C1794 0.950 . S
H1783 C1795 0.950 . S
C1784 H1776 0.952 . S
C1784 C1785 1.386 1_545 S
C1784 C1786 1.391 . S
C1785 C1784 1.386 1_565 S
C1785 C1789 1.393 . S
C1786 H1778 0.950 . S
C1786 C1784 1.391 . S
C1786 C1787 1.400 . S
C1787 C1786 1.400 . S
C1787 C1788 1.398 . S
C1787 C1793 1.491 . S
C1788 H1779 0.950 . S
C1788 C1787 1.398 . S
C1788 C1789 1.391 1_545 S
C1789 H1777 0.950 . S
C1789 C1785 1.393 . S
C1789 C1788 1.391 1_565 S
C1790 H1780 0.950 . S
C1790 C1791 1.386 . S
C1790 C1792 1.391 . S
C1791 C1790 1.386 . S
C1791 C1795 1.393 . S
C1792 H1781 0.950 . S
C1792 C1790 1.391 . S
C1792 C1793 1.400 . S
C1793 C1787 1.491 . S
C1793 C1792 1.400 . S
C1793 C1794 1.398 . S
C1794 H1782 0.950 . S
C1794 C1793 1.398 . S
C1794 C1795 1.391 . S
C1795 H1783 0.950 . S
C1795 C1791 1.393 . S
C1795 C1794 1.391 . S
H1796 C1804 0.950 . S
H1797 C1809 0.950 . S
H1798 C1806 0.950 . S
H1799 C1808 0.950 . S
H1800 C1810 0.950 . S
H1801 C1812 0.950 . S
H1802 C1814 0.950 . S
H1803 C1815 0.950 . S
C1804 H1796 0.950 . S
C1804 C1805 1.386 . S
C1804 C1806 1.391 . S
C1805 C1804 1.386 . S
C1805 C1809 1.393 . S
C1806 H1798 0.950 . S
C1806 C1804 1.391 . S
C1806 C1807 1.400 . S
C1807 C1806 1.400 . S
C1807 C1808 1.398 . S
C1807 C1813 1.491 . S
C1808 H1799 0.950 . S
C1808 C1807 1.398 . S
C1808 C1809 1.391 . S
C1809 H1797 0.950 . S
C1809 C1805 1.393 . S
C1809 C1808 1.391 . S
C1810 H1800 0.950 . S
C1810 C1811 1.386 . S
C1810 C1812 1.391 . S
C1811 C1810 1.386 . S
C1811 C1815 1.393 1_565 S
C1812 H1801 0.950 . S
C1812 C1810 1.391 . S
C1812 C1813 1.400 1_565 S
C1813 C1807 1.491 . S
C1813 C1812 1.400 1_545 S
C1813 C1814 1.398 . S
C1814 H1802 0.950 . S
C1814 C1813 1.398 . S
C1814 C1815 1.391 . S
C1815 H1803 0.950 . S
C1815 C1811 1.393 1_545 S
C1815 C1814 1.391 . S
H1816 C1824 0.950 . S
H1817 C1829 0.950 . S
H1818 C1826 0.950 . S
H1819 C1828 0.950 . S
H1820 C1830 0.950 . S
H1821 C1832 0.950 . S
H1822 C1834 0.950 . S
H1823 C1835 0.950 . S
C1824 H1816 0.950 . S
C1824 C1825 1.386 1_565 S
C1824 C1826 1.391 . S
C1825 C1824 1.386 1_545 S
C1825 C1829 1.393 . S
C1826 H1818 0.950 . S
C1826 C1824 1.391 . S
C1826 C1827 1.400 . S
C1827 C1826 1.400 . S
C1827 C1828 1.398 1_565 S
C1827 C1833 1.491 . S
C1828 H1819 0.950 . S
C1828 C1827 1.398 1_545 S
C1828 C1829 1.391 . S
C1829 H1817 0.950 . S
C1829 C1825 1.393 . S
C1829 C1828 1.391 . S
C1830 H1820 0.950 . S
C1830 C1831 1.386 . S
C1830 C1832 1.391 . S
C1831 C1830 1.386 . S
C1831 C1835 1.393 . S
C1832 H1821 0.950 . S
C1832 C1830 1.391 . S
C1832 C1833 1.400 . S
C1833 C1827 1.491 . S
C1833 C1832 1.400 . S
C1833 C1834 1.398 . S
C1834 H1822 0.950 . S
C1834 C1833 1.398 . S
C1834 C1835 1.391 . S
C1835 H1823 0.950 . S
C1835 C1831 1.393 . S
C1835 C1834 1.391 . S
H1836 C1844 0.950 . S
H1837 C1849 0.950 . S
H1838 C1846 0.950 . S
H1839 C1848 0.950 . S
H1840 C1850 0.950 . S
H1841 C1852 0.950 . S
H1842 C1854 0.950 . S
H1843 C1855 0.950 . S
C1844 H1836 0.950 . S
C1844 C1845 1.386 . S
C1844 C1846 1.391 . S
C1845 C1844 1.386 . S
C1845 C1849 1.393 . S
C1846 H1838 0.950 . S
C1846 C1844 1.391 . S
C1846 C1847 1.400 . S
C1847 C1846 1.400 . S
C1847 C1848 1.398 . S
C1847 C1853 1.491 . S
C1848 H1839 0.950 . S
C1848 C1847 1.398 . S
C1848 C1849 1.391 . S
C1849 H1837 0.950 . S
C1849 C1845 1.393 . S
C1849 C1848 1.391 . S
C1850 H1840 0.950 . S
C1850 C1851 1.386 . S
C1850 C1852 1.391 . S
C1851 C1850 1.386 . S
C1851 C1855 1.393 1_545 S
C1852 H1841 0.950 . S
C1852 C1850 1.391 . S
C1852 C1853 1.400 1_545 S
C1853 C1847 1.491 . S
C1853 C1852 1.400 1_565 S
C1853 C1854 1.398 . S
C1854 H1842 0.950 . S
C1854 C1853 1.398 . S
C1854 C1855 1.391 . S
C1855 H1843 0.950 . S
C1855 C1851 1.393 1_565 S
C1855 C1854 1.391 . S
H1856 C1864 0.950 . S
H1857 C1869 0.950 . S
H1858 C1866 0.950 . S
H1859 C1868 0.950 . S
H1860 C1870 0.950 . S
H1861 C1872 0.950 . S
H1862 C1874 0.950 . S
H1863 C1875 0.950 . S
C1864 H1856 0.950 . S
C1864 C1865 1.386 . S
C1864 C1866 1.391 . S
C1865 C1864 1.386 . S
C1865 C1869 1.393 . S
C1866 H1858 0.950 . S
C1866 C1864 1.391 . S
C1866 C1867 1.400 . S
C1867 C1866 1.400 . S
C1867 C1868 1.398 . S
C1867 C1873 1.491 . S
C1868 H1859 0.950 . S
C1868 C1867 1.398 . S
C1868 C1869 1.391 . S
C1869 H1857 0.950 . S
C1869 C1865 1.393 . S
C1869 C1868 1.391 . S
C1870 H1860 0.950 . S
C1870 C1871 1.386 . S
C1870 C1872 1.391 . S
C1871 C1870 1.386 . S
C1871 C1875 1.393 . S
C1872 H1861 0.950 . S
C1872 C1870 1.391 . S
C1872 C1873 1.400 . S
C1873 C1867 1.491 . S
C1873 C1872 1.400 . S
C1873 C1874 1.398 . S
C1874 H1862 0.950 . S
C1874 C1873 1.398 . S
C1874 C1875 1.391 . S
C1875 H1863 0.950 . S
C1875 C1871 1.393 . S
C1875 C1874 1.391 . S
H1876 C1884 0.950 . S
H1877 C1889 0.950 . S
H1878 C1886 0.950 . S
H1879 C1888 0.950 . S
H1880 C1890 0.950 . S
H1881 C1892 0.950 . S
H1882 C1894 0.950 . S
H1883 C1895 0.950 . S
C1884 H1876 0.950 . S
C1884 C1885 1.386 . S
C1884 C1886 1.391 . S
C1885 C1884 1.386 . S
C1885 C1889 1.393 . S
C1886 H1878 0.950 . S
C1886 C1884 1.391 . S
C1886 C1887 1.400 . S
C1887 C1886 1.400 . S
C1887 C1888 1.398 . S
C1887 C1893 1.491 . S
C1888 H1879 0.950 . S
C1888 C1887 1.398 . S
C1888 C1889 1.391 . S
C1889 H1877 0.950 . S
C1889 C1885 1.393 . S
C1889 C1888 1.391 . S
C1890 H1880 0.950 . S
C1890 C1891 1.386 . S
C1890 C1892 1.391 . S
C1891 C1890 1.386 . S
C1891 C1895 1.393 . S
C1892 H1881 0.950 . S
C1892 C1890 1.391 . S
C1892 C1893 1.400 . S
C1893 C1887 1.491 . S
C1893 C1892 1.400 . S
C1893 C1894 1.398 . S
C1894 H1882 0.950 . S
C1894 C1893 1.398 . S
C1894 C1895 1.391 . S
C1895 H1883 0.950 . S
C1895 C1891 1.393 . S
C1895 C1894 1.391 . S
H1896 C1904 0.950 . S
H1897 C1909 0.950 . S
H1898 C1906 0.950 . S
H1899 C1908 0.950 . S
H1900 C1910 0.950 . S
H1901 C1912 0.950 . S
H1902 C1914 0.950 . S
H1903 C1915 0.950 . S
C1904 H1896 0.950 . S
C1904 C1905 1.386 . S
C1904 C1906 1.391 . S
C1905 C1904 1.386 . S
C1905 C1909 1.393 . S
C1906 H1898 0.950 . S
C1906 C1904 1.391 . S
C1906 C1907 1.400 . S
C1907 C1906 1.400 . S
C1907 C1908 1.398 . S
C1907 C1913 1.491 . S
C1908 H1899 0.950 . S
C1908 C1907 1.398 . S
C1908 C1909 1.391 . S
C1909 H1897 0.950 . S
C1909 C1905 1.393 . S
C1909 C1908 1.391 . S
C1910 H1900 0.950 . S
C1910 C1911 1.386 . S
C1910 C1912 1.391 . S
C1911 C1910 1.386 . S
C1911 C1915 1.393 . S
C1912 H1901 0.950 . S
C1912 C1910 1.391 . S
C1912 C1913 1.400 . S
C1913 C1907 1.491 . S
C1913 C1912 1.400 . S
C1913 C1914 1.398 . S
C1914 H1902 0.950 . S
C1914 C1913 1.398 . S
C1914 C1915 1.391 . S
C1915 H1903 0.950 . S
C1915 C1911 1.393 . S
C1915 C1914 1.391 . S
H1916 C1924 0.950 . S
H1917 C1929 0.950 . S
H1918 C1926 0.950 . S
H1919 C1928 0.950 . S
H1920 C1930 0.950 . S
H1921 C1932 0.950 . S
H1922 C1934 0.950 . S
H1923 C1935 0.950 . S
C1924 H1916 0.950 . S
C1924 C1925 1.386 . S
C1924 C1926 1.391 . S
C1925 C1924 1.386 . S
C1925 C1929 1.393 . S
C1926 H1918 0.950 . S
C1926 C1924 1.391 . S
C1926 C1927 1.400 . S
C1927 C1926 1.400 . S
C1927 C1928 1.398 . S
C1927 C1933 1.491 . S
C1928 H1919 0.950 . S
C1928 C1927 1.398 . S
C1928 C1929 1.391 . S
C1929 H1917 0.950 . S
C1929 C1925 1.393 . S
C1929 C1928 1.391 . S
C1930 H1920 0.950 . S
C1930 C1931 1.386 . S
C1930 C1932 1.391 . S
C1931 C1930 1.386 . S
C1931 C1935 1.393 . S
C1932 H1921 0.950 . S
C1932 C1930 1.391 . S
C1932 C1933 1.400 . S
C1933 C1927 1.491 . S
C1933 C1932 1.400 . S
C1933 C1934 1.398 . S
C1934 H1922 0.950 . S
C1934 C1933 1.398 . S
C1934 C1935 1.391 . S
C1935 H1923 0.950 . S
C1935 C1931 1.393 . S
C1935 C1934 1.391 . S
H1936 C1944 0.950 . S
H1937 C1949 0.950 . S
H1938 C1946 0.950 . S
H1939 C1948 0.950 . S
H1940 C1950 0.950 . S
H1941 C1952 0.950 . S
H1942 C1954 0.950 . S
H1943 C1955 0.950 . S
C1944 H1936 0.950 . S
C1944 C1945 1.386 . S
C1944 C1946 1.391 . S
C1945 C1944 1.386 . S
C1945 C1949 1.393 . S
C1946 H1938 0.950 . S
C1946 C1944 1.391 . S
C1946 C1947 1.400 . S
C1947 C1946 1.400 . S
C1947 C1948 1.398 . S
C1947 C1953 1.491 . S
C1948 H1939 0.950 . S
C1948 C1947 1.398 . S
C1948 C1949 1.391 . S
C1949 H1937 0.950 . S
C1949 C1945 1.393 . S
C1949 C1948 1.391 . S
C1950 H1940 0.950 . S
C1950 C1951 1.386 . S
C1950 C1952 1.391 . S
C1951 C1950 1.386 . S
C1951 C1955 1.393 . S
C1952 H1941 0.950 . S
C1952 C1950 1.391 . S
C1952 C1953 1.400 . S
C1953 C1947 1.491 . S
C1953 C1952 1.400 . S
C1953 C1954 1.398 . S
C1954 H1942 0.950 . S
C1954 C1953 1.398 . S
C1954 C1955 1.391 . S
C1955 H1943 0.950 . S
C1955 C1951 1.393 . S
C1955 C1954 1.391 . S
H1956 C1964 0.950 . S
H1957 C1969 0.950 . S
H1958 C1966 0.950 . S
H1959 C1968 0.950 . S
H1960 C1970 0.950 . S
H1961 C1972 0.950 . S
H1962 C1974 0.950 . S
H1963 C1975 0.950 . S
C1964 H1956 0.950 . S
C1964 C1965 1.386 . S
C1964 C1966 1.391 . S
C1965 C1964 1.386 . S
C1965 C1969 1.393 . S
C1966 H1958 0.950 . S
C1966 C1964 1.391 . S
C1966 C1967 1.400 . S
C1967 C1966 1.400 . S
C1967 C1968 1.398 . S
C1967 C1973 1.491 . S
C1968 H1959 0.950 . S
C1968 C1967 1.398 . S
C1968 C1969 1.391 . S
C1969 H1957 0.950 . S
C1969 C1965 1.393 . S
C1969 C1968 1.391 . S
C1970 H1960 0.950 . S
C1970 C1971 1.386 . S
C1970 C1972 1.391 . S
C1971 C1970 1.386 . S
C1971 C1975 1.393 . S
C1972 H1961 0.950 . S
C1972 C1970 1.391 . S
C1972 C1973 1.400 . S
C1973 C1967 1.491 . S
C1973 C1972 1.400 . S
C1973 C1974 1.398 . S
C1974 H1962 0.950 . S
C1974 C1973 1.398 . S
C1974 C1975 1.391 . S
C1975 H1963 0.950 . S
C1975 C1971 1.393 . S
C1975 C1974 1.391 . S
H1976 C1984 0.950 . S
H1977 C1989 0.950 . S
H1978 C1986 0.950 . S
H1979 C1988 0.950 . S
H1980 C1990 0.950 . S
H1981 C1992 0.950 . S
H1982 C1994 0.950 . S
H1983 C1995 0.950 . S
C1984 H1976 0.950 . S
C1984 C1985 1.386 . S
C1984 C1986 1.391 . S
C1985 C1984 1.386 . S
C1985 C1989 1.393 . S
C1986 H1978 0.950 . S
C1986 C1984 1.391 . S
C1986 C1987 1.400 . S
C1987 C1986 1.400 . S
C1987 C1988 1.398 . S
C1987 C1993 1.491 . S
C1988 H1979 0.950 . S
C1988 C1987 1.398 . S
C1988 C1989 1.391 . S
C1989 H1977 0.950 . S
C1989 C1985 1.393 . S
C1989 C1988 1.391 . S
C1990 H1980 0.950 . S
C1990 C1991 1.386 . S
C1990 C1992 1.391 . S
C1991 C1990 1.386 . S
C1991 C1995 1.393 . S
C1992 H1981 0.950 . S
C1992 C1990 1.391 . S
C1992 C1993 1.400 . S
C1993 C1987 1.491 . S
C1993 C1992 1.400 . S
C1993 C1994 1.398 . S
C1994 H1982 0.950 . S
C1994 C1993 1.398 . S
C1994 C1995 1.391 . S
C1995 H1983 0.950 . S
C1995 C1991 1.393 . S
C1995 C1994 1.391 . S
H1996 C2004 0.950 . S
H1997 C2009 0.950 . S
H1998 C2006 0.950 . S
H1999 C2008 0.950 . S
H2000 C2010 0.950 . S
H2001 C2012 0.950 . S
H2002 C2014 0.950 . S
H2003 C2015 0.950 . S
C2004 H1996 0.950 . S
C2004 C2005 1.386 . S
C2004 C2006 1.391 . S
C2005 C2004 1.386 . S
C2005 C2009 1.393 . S
C2006 H1998 0.950 . S
C2006 C2004 1.391 . S
C2006 C2007 1.400 . S
C2007 C2006 1.400 . S
C2007 C2008 1.398 . S
C2007 C2013 1.491 . S
C2008 H1999 0.950 . S
C2008 C2007 1.398 . S
C2008 C2009 1.391 . S
C2009 H1997 0.950 . S
C2009 C2005 1.393 . S
C2009 C2008 1.391 . S
C2010 H2000 0.950 . S
C2010 C2011 1.386 . S
C2010 C2012 1.391 . S
C2011 C2010 1.386 . S
C2011 C2015 1.393 . S
C2012 H2001 0.950 . S
C2012 C2010 1.391 . S
C2012 C2013 1.400 . S
C2013 C2007 1.491 . S
C2013 C2012 1.400 . S
C2013 C2014 1.398 . S
C2014 H2002 0.950 . S
C2014 C2013 1.398 . S
C2014 C2015 1.391 . S
C2015 H2003 0.950 . S
C2015 C2011 1.393 . S
C2015 C2014 1.391 . S
H2016 C2024 0.950 . S
H2017 C2029 0.950 . S
H2018 C2026 0.950 1_565 S
H2019 C2028 0.950 . S
H2020 C2030 0.950 . S
H2021 C2032 0.950 1_545 S
H2022 C2034 0.950 . S
H2023 C2035 0.950 . S
C2024 H2016 0.950 . S
C2024 C2025 1.386 . S
C2024 C2026 1.391 . S
C2025 C2024 1.386 . S
C2025 C2029 1.393 . S
C2026 H2018 0.950 1_545 S
C2026 C2024 1.391 . S
C2026 C2027 1.400 . S
C2027 C2026 1.400 . S
C2027 C2028 1.398 . S
C2027 C2033 1.491 1_545 S
C2028 H2019 0.950 . S
C2028 C2027 1.398 . S
C2028 C2029 1.391 . S
C2029 H2017 0.950 . S
C2029 C2025 1.393 . S
C2029 C2028 1.391 . S
C2030 H2020 0.950 . S
C2030 C2031 1.386 . S
C2030 C2032 1.391 . S
C2031 C2030 1.386 . S
C2031 C2035 1.393 . S
C2032 H2021 0.950 1_565 S
C2032 C2030 1.391 . S
C2032 C2033 1.400 . S
C2033 C2027 1.491 1_565 S
C2033 C2032 1.400 . S
C2033 C2034 1.398 . S
C2034 H2022 0.950 . S
C2034 C2033 1.398 . S
C2034 C2035 1.391 . S
C2035 H2023 0.950 . S
C2035 C2031 1.393 . S
C2035 C2034 1.391 . S
H2036 C2044 0.950 . S
H2037 C2049 0.950 . S
H2038 C2046 0.950 . S
H2039 C2048 0.950 . S
H2040 C2050 0.950 . S
H2041 C2052 0.950 . S
H2042 C2054 0.950 . S
H2043 C2055 0.950 . S
C2044 H2036 0.950 . S
C2044 C2045 1.386 . S
C2044 C2046 1.391 . S
C2045 C2044 1.386 . S
C2045 C2049 1.393 . S
C2046 H2038 0.950 . S
C2046 C2044 1.391 . S
C2046 C2047 1.400 . S
C2047 C2046 1.400 . S
C2047 C2048 1.398 . S
C2047 C2053 1.491 . S
C2048 H2039 0.950 . S
C2048 C2047 1.398 . S
C2048 C2049 1.391 . S
C2049 H2037 0.950 . S
C2049 C2045 1.393 . S
C2049 C2048 1.391 . S
C2050 H2040 0.950 . S
C2050 C2051 1.386 . S
C2050 C2052 1.391 . S
C2051 C2050 1.386 . S
C2051 C2055 1.393 . S
C2052 H2041 0.950 . S
C2052 C2050 1.391 . S
C2052 C2053 1.400 . S
C2053 C2047 1.491 . S
C2053 C2052 1.400 . S
C2053 C2054 1.398 . S
C2054 H2042 0.950 . S
C2054 C2053 1.398 . S
C2054 C2055 1.391 . S
C2055 H2043 0.950 . S
C2055 C2051 1.393 . S
C2055 C2054 1.391 . S
H2056 C2064 0.950 . S
H2057 C2069 0.950 . S
H2058 C2066 0.950 . S
H2059 C2068 0.950 . S
H2060 C2070 0.950 . S
H2061 C2072 0.950 . S
H2062 C2074 0.950 . S
H2063 C2075 0.950 . S
C2064 H2056 0.950 . S
C2064 C2065 1.386 . S
C2064 C2066 1.391 . S
C2065 C2064 1.386 . S
C2065 C2069 1.393 . S
C2066 H2058 0.950 . S
C2066 C2064 1.391 . S
C2066 C2067 1.400 . S
C2067 C2066 1.400 . S
C2067 C2068 1.398 . S
C2067 C2073 1.491 1_545 S
C2068 H2059 0.950 . S
C2068 C2067 1.398 . S
C2068 C2069 1.391 . S
C2069 H2057 0.950 . S
C2069 C2065 1.393 . S
C2069 C2068 1.391 . S
C2070 H2060 0.950 . S
C2070 C2071 1.386 . S
C2070 C2072 1.391 . S
C2071 C2070 1.386 . S
C2071 C2075 1.393 . S
C2072 H2061 0.950 . S
C2072 C2070 1.391 . S
C2072 C2073 1.400 . S
C2073 C2067 1.491 1_565 S
C2073 C2072 1.400 . S
C2073 C2074 1.398 . S
C2074 H2062 0.950 . S
C2074 C2073 1.398 . S
C2074 C2075 1.391 . S
C2075 H2063 0.950 . S
C2075 C2071 1.393 . S
C2075 C2074 1.391 . S
H2076 C2084 0.950 . S
H2077 C2089 0.950 . S
H2078 C2086 0.950 . S
H2079 C2088 0.950 1_554 S
H2080 C2090 0.950 . S
H2081 C2092 0.950 . S
H2082 C2094 0.950 1_556 S
H2083 C2095 0.950 . S
C2084 H2076 0.950 . S
C2084 C2085 1.386 . S
C2084 C2086 1.391 . S
C2085 C2084 1.386 . S
C2085 C2089 1.393 . S
C2086 H2078 0.950 . S
C2086 C2084 1.391 . S
C2086 C2087 1.400 . S
C2087 C2086 1.400 . S
C2087 C2088 1.398 . S
C2087 C2093 1.491 1_556 S
C2088 H2079 0.950 1_556 S
C2088 C2087 1.398 . S
C2088 C2089 1.391 . S
C2089 H2077 0.950 . S
C2089 C2085 1.393 . S
C2089 C2088 1.391 . S
C2090 H2080 0.950 . S
C2090 C2091 1.386 . S
C2090 C2092 1.391 . S
C2091 C2090 1.386 . S
C2091 C2095 1.393 . S
C2092 H2081 0.950 . S
C2092 C2090 1.391 . S
C2092 C2093 1.400 . S
C2093 C2087 1.491 1_554 S
C2093 C2092 1.400 . S
C2093 C2094 1.398 . S
C2094 H2082 0.950 1_554 S
C2094 C2093 1.398 . S
C2094 C2095 1.391 . S
C2095 H2083 0.950 . S
C2095 C2091 1.393 . S
C2095 C2094 1.391 . S
H2096 C2104 0.950 . S
H2097 C2109 0.950 . S
H2098 C2106 0.950 . S
H2099 C2108 0.950 . S
H2100 C2110 0.950 . S
H2101 C2112 0.950 . S
H2102 C2114 0.950 . S
H2103 C2115 0.950 . S
C2104 H2096 0.950 . S
C2104 C2105 1.386 . S
C2104 C2106 1.391 . S
C2105 C2104 1.386 . S
C2105 C2109 1.393 . S
C2106 H2098 0.950 . S
C2106 C2104 1.391 . S
C2106 C2107 1.400 . S
C2107 C2106 1.400 . S
C2107 C2108 1.398 . S
C2107 C2113 1.491 1_565 S
C2108 H2099 0.950 . S
C2108 C2107 1.398 . S
C2108 C2109 1.391 . S
C2109 H2097 0.950 . S
C2109 C2105 1.393 . S
C2109 C2108 1.391 . S
C2110 H2100 0.950 . S
C2110 C2111 1.386 . S
C2110 C2112 1.391 . S
C2111 C2110 1.386 . S
C2111 C2115 1.393 . S
C2112 H2101 0.950 . S
C2112 C2110 1.391 . S
C2112 C2113 1.400 . S
C2113 C2107 1.491 1_545 S
C2113 C2112 1.400 . S
C2113 C2114 1.398 . S
C2114 H2102 0.950 . S
C2114 C2113 1.398 . S
C2114 C2115 1.391 . S
C2115 H2103 0.950 . S
C2115 C2111 1.393 . S
C2115 C2114 1.391 . S
H2116 C2124 0.950 . S
H2117 C2129 0.950 . S
H2118 C2126 0.950 . S
H2119 C2128 0.950 . S
H2120 C2130 0.950 . S
H2121 C2132 0.950 . S
H2122 C2134 0.950 . S
H2123 C2135 0.950 . S
C2124 H2116 0.950 . S
C2124 C2125 1.386 . S
C2124 C2126 1.391 . S
C2125 C2124 1.386 . S
C2125 C2129 1.393 . S
C2126 H2118 0.950 . S
C2126 C2124 1.391 . S
C2126 C2127 1.400 . S
C2127 C2126 1.400 . S
C2127 C2128 1.398 . S
C2127 C2133 1.491 . S
C2128 H2119 0.950 . S
C2128 C2127 1.398 . S
C2128 C2129 1.391 . S
C2129 H2117 0.950 . S
C2129 C2125 1.393 . S
C2129 C2128 1.391 . S
C2130 H2120 0.950 . S
C2130 C2131 1.386 . S
C2130 C2132 1.391 . S
C2131 C2130 1.386 . S
C2131 C2135 1.393 . S
C2132 H2121 0.950 . S
C2132 C2130 1.391 . S
C2132 C2133 1.400 . S
C2133 C2127 1.491 . S
C2133 C2132 1.400 . S
C2133 C2134 1.398 . S
C2134 H2122 0.950 . S
C2134 C2133 1.398 . S
C2134 C2135 1.391 . S
C2135 H2123 0.950 . S
C2135 C2131 1.393 . S
C2135 C2134 1.391 . S
H2136 C2144 0.950 . S
H2137 C2149 0.950 . S
H2138 C2146 0.950 . S
H2139 C2148 0.950 1_565 S
H2140 C2150 0.950 . S
H2141 C2152 0.950 . S
H2142 C2154 0.950 1_545 S
H2143 C2155 0.950 . S
C2144 H2136 0.950 . S
C2144 C2145 1.386 . S
C2144 C2146 1.391 . S
C2145 C2144 1.386 . S
C2145 C2149 1.393 . S
C2146 H2138 0.950 . S
C2146 C2144 1.391 . S
C2146 C2147 1.400 . S
C2147 C2146 1.400 . S
C2147 C2148 1.398 . S
C2147 C2153 1.491 1_545 S
C2148 H2139 0.950 1_545 S
C2148 C2147 1.398 . S
C2148 C2149 1.391 . S
C2149 H2137 0.950 . S
C2149 C2145 1.393 . S
C2149 C2148 1.391 . S
C2150 H2140 0.950 . S
C2150 C2151 1.386 . S
C2150 C2152 1.391 . S
C2151 C2150 1.386 . S
C2151 C2155 1.393 . S
C2152 H2141 0.950 . S
C2152 C2150 1.391 . S
C2152 C2153 1.400 . S
C2153 C2147 1.491 1_565 S
C2153 C2152 1.400 . S
C2153 C2154 1.398 . S
C2154 H2142 0.950 1_565 S
C2154 C2153 1.398 . S
C2154 C2155 1.391 . S
C2155 H2143 0.950 . S
C2155 C2151 1.393 . S
C2155 C2154 1.391 . S
H2156 C2164 0.950 . S
H2157 C2169 0.950 . S
H2158 C2166 0.950 1_556 S
H2159 C2168 0.950 . S
H2160 C2170 0.950 . S
H2161 C2172 0.950 1_554 S
H2162 C2174 0.950 . S
H2163 C2175 0.950 . S
C2164 H2156 0.950 . S
C2164 C2165 1.386 . S
C2164 C2166 1.391 . S
C2165 C2164 1.386 . S
C2165 C2169 1.393 . S
C2166 H2158 0.950 1_554 S
C2166 C2164 1.391 . S
C2166 C2167 1.400 . S
C2167 C2166 1.400 . S
C2167 C2168 1.398 . S
C2167 C2173 1.491 1_554 S
C2168 H2159 0.950 . S
C2168 C2167 1.398 . S
C2168 C2169 1.391 . S
C2169 H2157 0.950 . S
C2169 C2165 1.393 . S
C2169 C2168 1.391 . S
C2170 H2160 0.950 . S
C2170 C2171 1.386 . S
C2170 C2172 1.391 . S
C2171 C2170 1.386 . S
C2171 C2175 1.393 . S
C2172 H2161 0.950 1_556 S
C2172 C2170 1.391 . S
C2172 C2173 1.400 . S
C2173 C2167 1.491 1_556 S
C2173 C2172 1.400 . S
C2173 C2174 1.398 . S
C2174 H2162 0.950 . S
C2174 C2173 1.398 . S
C2174 C2175 1.391 . S
C2175 H2163 0.950 . S
C2175 C2171 1.393 . S
C2175 C2174 1.391 . S
H2176 C2184 0.950 . S
H2177 C2189 0.950 . S
H2178 C2186 0.950 . S
H2179 C2188 0.950 . S
H2180 C2190 0.950 . S
H2181 C2192 0.950 . S
H2182 C2194 0.950 . S
H2183 C2195 0.950 . S
C2184 H2176 0.950 . S
C2184 C2185 1.386 . S
C2184 C2186 1.391 . S
C2185 C2184 1.386 . S
C2185 C2189 1.393 . S
C2186 H2178 0.950 . S
C2186 C2184 1.391 . S
C2186 C2187 1.400 . S
C2187 C2186 1.400 . S
C2187 C2188 1.398 . S
C2187 C2193 1.491 . S
C2188 H2179 0.950 . S
C2188 C2187 1.398 . S
C2188 C2189 1.391 . S
C2189 H2177 0.950 . S
C2189 C2185 1.393 . S
C2189 C2188 1.391 . S
C2190 H2180 0.950 . S
C2190 C2191 1.386 . S
C2190 C2192 1.391 . S
C2191 C2190 1.386 . S
C2191 C2195 1.393 . S
C2192 H2181 0.950 . S
C2192 C2190 1.391 . S
C2192 C2193 1.400 . S
C2193 C2187 1.491 . S
C2193 C2192 1.400 . S
C2193 C2194 1.398 . S
C2194 H2182 0.950 . S
C2194 C2193 1.398 . S
C2194 C2195 1.391 . S
C2195 H2183 0.950 . S
C2195 C2191 1.393 . S
C2195 C2194 1.391 . S
H2196 C2204 0.950 . S
H2197 C2209 0.950 . S
H2198 C2206 0.950 1_556 S
H2199 C2208 0.950 . S
H2200 C2210 0.950 . S
H2201 C2212 0.950 1_554 S
H2202 C2214 0.950 . S
H2203 C2215 0.950 . S
C2204 H2196 0.950 . S
C2204 C2205 1.386 . S
C2204 C2206 1.391 . S
C2205 C2204 1.386 . S
C2205 C2209 1.393 . S
C2206 H2198 0.950 1_554 S
C2206 C2204 1.391 . S
C2206 C2207 1.400 . S
C2207 C2206 1.400 . S
C2207 C2208 1.398 . S
C2207 C2213 1.491 1_554 S
C2208 H2199 0.950 . S
C2208 C2207 1.398 . S
C2208 C2209 1.391 . S
C2209 H2197 0.950 . S
C2209 C2205 1.393 . S
C2209 C2208 1.391 . S
C2210 H2200 0.950 . S
C2210 C2211 1.386 . S
C2210 C2212 1.391 . S
C2211 C2210 1.386 . S
C2211 C2215 1.393 . S
C2212 H2201 0.950 1_556 S
C2212 C2210 1.391 . S
C2212 C2213 1.400 . S
C2213 C2207 1.491 1_556 S
C2213 C2212 1.400 . S
C2213 C2214 1.398 . S
C2214 H2202 0.950 . S
C2214 C2213 1.398 . S
C2214 C2215 1.391 . S
C2215 H2203 0.950 . S
C2215 C2211 1.393 . S
C2215 C2214 1.391 . S
H2216 C2224 0.950 . S
H2217 C2229 0.950 . S
H2218 C2226 0.950 . S
H2219 C2228 0.950 . S
H2220 C2230 0.950 . S
H2221 C2232 0.950 . S
H2222 C2234 0.950 . S
H2223 C2235 0.950 . S
C2224 H2216 0.950 . S
C2224 C2225 1.386 . S
C2224 C2226 1.391 . S
C2225 C2224 1.386 . S
C2225 C2229 1.393 . S
C2226 H2218 0.950 . S
C2226 C2224 1.391 . S
C2226 C2227 1.400 . S
C2227 C2226 1.400 . S
C2227 C2228 1.398 . S
C2227 C2233 1.491 . S
C2228 H2219 0.950 . S
C2228 C2227 1.398 . S
C2228 C2229 1.391 . S
C2229 H2217 0.950 . S
C2229 C2225 1.393 . S
C2229 C2228 1.391 . S
C2230 H2220 0.950 . S
C2230 C2231 1.386 . S
C2230 C2232 1.391 . S
C2231 C2230 1.386 . S
C2231 C2235 1.393 . S
C2232 H2221 0.950 . S
C2232 C2230 1.391 . S
C2232 C2233 1.400 . S
C2233 C2227 1.491 . S
C2233 C2232 1.400 . S
C2233 C2234 1.398 . S
C2234 H2222 0.950 . S
C2234 C2233 1.398 . S
C2234 C2235 1.391 . S
C2235 H2223 0.950 . S
C2235 C2231 1.393 . S
C2235 C2234 1.391 . S
H2236 C2244 0.950 . S
H2237 C2249 0.950 . S
H2238 C2246 0.950 . S
H2239 C2248 0.950 . S
H2240 C2250 0.950 . S
H2241 C2252 0.950 . S
H2242 C2254 0.950 . S
H2243 C2255 0.950 . S
C2244 H2236 0.950 . S
C2244 C2245 1.386 . S
C2244 C2246 1.391 . S
C2245 C2244 1.386 . S
C2245 C2249 1.393 . S
C2246 H2238 0.950 . S
C2246 C2244 1.391 . S
C2246 C2247 1.400 . S
C2247 C2246 1.400 . S
C2247 C2248 1.398 . S
C2247 C2253 1.491 . S
C2248 H2239 0.950 . S
C2248 C2247 1.398 . S
C2248 C2249 1.391 . S
C2249 H2237 0.950 . S
C2249 C2245 1.393 . S
C2249 C2248 1.391 . S
C2250 H2240 0.950 . S
C2250 C2251 1.386 . S
C2250 C2252 1.391 . S
C2251 C2250 1.386 . S
C2251 C2255 1.393 . S
C2252 H2241 0.950 . S
C2252 C2250 1.391 . S
C2252 C2253 1.400 . S
C2253 C2247 1.491 . S
C2253 C2252 1.400 . S
C2253 C2254 1.398 . S
C2254 H2242 0.950 . S
C2254 C2253 1.398 . S
C2254 C2255 1.391 . S
C2255 H2243 0.950 . S
C2255 C2251 1.393 . S
C2255 C2254 1.391 . S
H2256 C2264 0.950 . S
H2257 C2269 0.950 . S
H2258 C2266 0.950 . S
H2259 C2268 0.950 . S
H2260 C2270 0.950 . S
H2261 C2272 0.950 . S
H2262 C2274 0.950 . S
H2263 C2275 0.950 . S
C2264 H2256 0.950 . S
C2264 C2265 1.386 . S
C2264 C2266 1.391 . S
C2265 C2264 1.386 . S
C2265 C2269 1.393 . S
C2266 H2258 0.950 . S
C2266 C2264 1.391 . S
C2266 C2267 1.400 . S
C2267 C2266 1.400 . S
C2267 C2268 1.398 . S
C2267 C2273 1.491 . S
C2268 H2259 0.950 . S
C2268 C2267 1.398 . S
C2268 C2269 1.391 . S
C2269 H2257 0.950 . S
C2269 C2265 1.393 . S
C2269 C2268 1.391 . S
C2270 H2260 0.950 . S
C2270 C2271 1.386 . S
C2270 C2272 1.391 . S
C2271 C2270 1.386 . S
C2271 C2275 1.393 . S
C2272 H2261 0.950 . S
C2272 C2270 1.391 . S
C2272 C2273 1.400 . S
C2273 C2267 1.491 . S
C2273 C2272 1.400 . S
C2273 C2274 1.398 . S
C2274 H2262 0.950 . S
C2274 C2273 1.398 . S
C2274 C2275 1.391 . S
C2275 H2263 0.950 . S
C2275 C2271 1.393 . S
C2275 C2274 1.391 . S
H2276 C2284 0.950 . S
H2277 C2289 0.950 . S
H2278 C2286 0.950 . S
H2279 C2288 0.950 1_554 S
H2280 C2290 0.950 . S
H2281 C2292 0.950 . S
H2282 C2294 0.950 1_556 S
H2283 C2295 0.950 . S
C2284 H2276 0.950 . S
C2284 C2285 1.386 . S
C2284 C2286 1.391 . S
C2285 C2284 1.386 . S
C2285 C2289 1.393 . S
C2286 H2278 0.950 . S
C2286 C2284 1.391 . S
C2286 C2287 1.400 . S
C2287 C2286 1.400 . S
C2287 C2288 1.398 . S
C2287 C2293 1.491 1_556 S
C2288 H2279 0.950 1_556 S
C2288 C2287 1.398 . S
C2288 C2289 1.391 . S
C2289 H2277 0.950 . S
C2289 C2285 1.393 . S
C2289 C2288 1.391 . S
C2290 H2280 0.950 . S
C2290 C2291 1.386 . S
C2290 C2292 1.391 . S
C2291 C2290 1.386 . S
C2291 C2295 1.393 . S
C2292 H2281 0.950 . S
C2292 C2290 1.391 . S
C2292 C2293 1.400 . S
C2293 C2287 1.491 1_554 S
C2293 C2292 1.400 . S
C2293 C2294 1.398 . S
C2294 H2282 0.950 1_554 S
C2294 C2293 1.398 . S
C2294 C2295 1.391 . S
C2295 H2283 0.950 . S
C2295 C2291 1.393 . S
C2295 C2294 1.391 . S
H2296 C2304 0.950 . S
H2297 C2309 0.950 . S
H2298 C2306 0.950 . S
H2299 C2308 0.950 . S
H2300 C2310 0.950 . S
H2301 C2312 0.950 . S
H2302 C2314 0.950 . S
H2303 C2315 0.950 . S
C2304 H2296 0.950 . S
C2304 C2305 1.386 . S
C2304 C2306 1.391 . S
C2305 C2304 1.386 . S
C2305 C2309 1.393 . S
C2306 H2298 0.950 . S
C2306 C2304 1.391 . S
C2306 C2307 1.400 . S
C2307 C2306 1.400 . S
C2307 C2308 1.398 . S
C2307 C2313 1.491 . S
C2308 H2299 0.950 . S
C2308 C2307 1.398 . S
C2308 C2309 1.391 . S
C2309 H2297 0.950 . S
C2309 C2305 1.393 . S
C2309 C2308 1.391 . S
C2310 H2300 0.950 . S
C2310 C2311 1.386 . S
C2310 C2312 1.391 . S
C2311 C2310 1.386 . S
C2311 C2315 1.393 . S
C2312 H2301 0.950 . S
C2312 C2310 1.391 . S
C2312 C2313 1.400 . S
C2313 C2307 1.491 . S
C2313 C2312 1.400 . S
C2313 C2314 1.398 . S
C2314 H2302 0.950 . S
C2314 C2313 1.398 . S
C2314 C2315 1.391 . S
C2315 H2303 0.950 . S
C2315 C2311 1.393 . S
C2315 C2314 1.391 . S
H2316 C2324 0.950 . S
H2317 C2329 0.950 . S
H2318 C2326 0.950 . S
H2319 C2328 0.950 . S
H2320 C2330 0.950 . S
H2321 C2332 0.950 . S
H2322 C2334 0.950 . S
H2323 C2335 0.950 . S
C2324 H2316 0.950 . S
C2324 C2325 1.386 . S
C2324 C2326 1.391 . S
C2325 C2324 1.386 . S
C2325 C2329 1.393 . S
C2326 H2318 0.950 . S
C2326 C2324 1.391 . S
C2326 C2327 1.400 . S
C2327 C2326 1.400 . S
C2327 C2328 1.398 . S
C2327 C2333 1.491 . S
C2328 H2319 0.950 . S
C2328 C2327 1.398 . S
C2328 C2329 1.391 . S
C2329 H2317 0.950 . S
C2329 C2325 1.393 . S
C2329 C2328 1.391 . S
C2330 H2320 0.950 . S
C2330 C2331 1.386 . S
C2330 C2332 1.391 . S
C2331 C2330 1.386 . S
C2331 C2335 1.393 . S
C2332 H2321 0.950 . S
C2332 C2330 1.391 . S
C2332 C2333 1.400 . S
C2333 C2327 1.491 . S
C2333 C2332 1.400 . S
C2333 C2334 1.398 . S
C2334 H2322 0.950 . S
C2334 C2333 1.398 . S
C2334 C2335 1.391 . S
C2335 H2323 0.950 . S
C2335 C2331 1.393 . S
C2335 C2334 1.391 . S
H2336 C2344 0.950 . S
H2337 C2349 0.950 . S
H2338 C2346 0.944 1_655 S
H2339 C2348 0.950 . S
H2340 C2350 0.950 . S
H2341 C2352 0.944 1_455 S
H2342 C2354 0.950 . S
H2343 C2355 0.950 . S
C2344 H2336 0.950 . S
C2344 C2345 1.386 . S
C2344 C2346 1.395 . S
C2345 C2344 1.386 . S
C2345 C2349 1.393 . S
C2346 H2338 0.944 1_455 S
C2346 C2344 1.395 . S
C2346 C2347 1.402 . S
C2347 C2346 1.402 . S
C2347 C2348 1.398 . S
C2347 C2353 1.491 1_455 S
C2348 H2339 0.950 . S
C2348 C2347 1.398 . S
C2348 C2349 1.391 . S
C2349 H2337 0.950 . S
C2349 C2345 1.393 . S
C2349 C2348 1.391 . S
C2350 H2340 0.950 . S
C2350 C2351 1.386 . S
C2350 C2352 1.395 . S
C2351 C2350 1.386 . S
C2351 C2355 1.393 . S
C2352 H2341 0.944 1_655 S
C2352 C2350 1.395 . S
C2352 C2353 1.402 . S
C2353 C2347 1.491 1_655 S
C2353 C2352 1.402 . S
C2353 C2354 1.398 . S
C2354 H2342 0.950 . S
C2354 C2353 1.398 . S
C2354 C2355 1.391 . S
C2355 H2343 0.950 . S
C2355 C2351 1.393 . S
C2355 C2354 1.391 . S
H2356 C2364 0.950 . S
H2357 C2369 0.950 . S
H2358 C2366 0.950 1_455 S
H2359 C2368 0.950 . S
H2360 C2370 0.950 . S
H2361 C2372 0.950 1_655 S
H2362 C2374 0.950 . S
H2363 C2375 0.950 . S
C2364 H2356 0.950 . S
C2364 C2365 1.386 . S
C2364 C2366 1.391 . S
C2365 C2364 1.386 . S
C2365 C2369 1.393 . S
C2366 H2358 0.950 1_655 S
C2366 C2364 1.391 . S
C2366 C2367 1.400 . S
C2367 C2366 1.400 . S
C2367 C2368 1.398 . S
C2367 C2373 1.491 1_655 S
C2368 H2359 0.950 . S
C2368 C2367 1.398 . S
C2368 C2369 1.391 . S
C2369 H2357 0.950 . S
C2369 C2365 1.393 . S
C2369 C2368 1.391 . S
C2370 H2360 0.950 . S
C2370 C2371 1.386 . S
C2370 C2372 1.391 . S
C2371 C2370 1.386 . S
C2371 C2375 1.393 . S
C2372 H2361 0.950 1_455 S
C2372 C2370 1.391 . S
C2372 C2373 1.400 . S
C2373 C2367 1.491 1_455 S
C2373 C2372 1.400 . S
C2373 C2374 1.398 . S
C2374 H2362 0.950 . S
C2374 C2373 1.398 . S
C2374 C2375 1.391 . S
C2375 H2363 0.950 . S
C2375 C2371 1.393 . S
C2375 C2374 1.391 . S
H2376 C2384 0.950 . S
H2377 C2389 0.950 . S
H2378 C2386 0.950 . S
H2379 C2388 0.950 . S
H2380 C2390 0.950 . S
H2381 C2392 0.950 . S
H2382 C2394 0.950 . S
H2383 C2395 0.950 . S
C2384 H2376 0.950 . S
C2384 C2385 1.386 . S
C2384 C2386 1.391 . S
C2385 C2384 1.386 . S
C2385 C2389 1.393 . S
C2386 H2378 0.950 . S
C2386 C2384 1.391 . S
C2386 C2387 1.400 . S
C2387 C2386 1.400 . S
C2387 C2388 1.398 . S
C2387 C2393 1.491 . S
C2388 H2379 0.950 . S
C2388 C2387 1.398 . S
C2388 C2389 1.391 . S
C2389 H2377 0.950 . S
C2389 C2385 1.393 . S
C2389 C2388 1.391 . S
C2390 H2380 0.950 . S
C2390 C2391 1.386 . S
C2390 C2392 1.391 . S
C2391 C2390 1.386 . S
C2391 C2395 1.393 . S
C2392 H2381 0.950 . S
C2392 C2390 1.391 . S
C2392 C2393 1.400 . S
C2393 C2387 1.491 . S
C2393 C2392 1.400 . S
C2393 C2394 1.398 . S
C2394 H2382 0.950 . S
C2394 C2393 1.398 . S
C2394 C2395 1.391 . S
C2395 H2383 0.950 . S
C2395 C2391 1.393 . S
C2395 C2394 1.391 . S
H2396 C2404 0.950 . S
H2397 C2409 0.950 . S
H2398 C2406 0.950 . S
H2399 C2408 0.950 . S
H2400 C2410 0.950 . S
H2401 C2412 0.950 . S
H2402 C2414 0.950 . S
H2403 C2415 0.950 . S
C2404 H2396 0.950 . S
C2404 C2405 1.386 . S
C2404 C2406 1.391 . S
C2405 C2404 1.386 . S
C2405 C2409 1.393 . S
C2406 H2398 0.950 . S
C2406 C2404 1.391 . S
C2406 C2407 1.400 . S
C2407 C2406 1.400 . S
C2407 C2408 1.398 . S
C2407 C2413 1.491 . S
C2408 H2399 0.950 . S
C2408 C2407 1.398 . S
C2408 C2409 1.391 . S
C2409 H2397 0.950 . S
C2409 C2405 1.393 . S
C2409 C2408 1.391 . S
C2410 H2400 0.950 . S
C2410 C2411 1.386 . S
C2410 C2412 1.391 . S
C2411 C2410 1.386 . S
C2411 C2415 1.393 . S
C2412 H2401 0.950 . S
C2412 C2410 1.391 . S
C2412 C2413 1.400 . S
C2413 C2407 1.491 . S
C2413 C2412 1.400 . S
C2413 C2414 1.398 . S
C2414 H2402 0.950 . S
C2414 C2413 1.398 . S
C2414 C2415 1.391 . S
C2415 H2403 0.950 . S
C2415 C2411 1.393 . S
C2415 C2414 1.391 . S
H2416 C2424 0.950 . S
H2417 C2429 0.950 . S
H2418 C2426 0.950 . S
H2419 C2428 0.950 . S
H2420 C2430 0.950 . S
H2421 C2432 0.950 . S
H2422 C2434 0.950 . S
H2423 C2435 0.950 . S
C2424 H2416 0.950 . S
C2424 C2425 1.386 . S
C2424 C2426 1.391 . S
C2425 C2424 1.386 . S
C2425 C2429 1.393 . S
C2426 H2418 0.950 . S
C2426 C2424 1.391 . S
C2426 C2427 1.400 . S
C2427 C2426 1.400 . S
C2427 C2428 1.398 . S
C2427 C2433 1.491 1_655 S
C2428 H2419 0.950 . S
C2428 C2427 1.398 . S
C2428 C2429 1.391 . S
C2429 H2417 0.950 . S
C2429 C2425 1.393 . S
C2429 C2428 1.391 . S
C2430 H2420 0.950 . S
C2430 C2431 1.386 . S
C2430 C2432 1.391 . S
C2431 C2430 1.386 . S
C2431 C2435 1.393 . S
C2432 H2421 0.950 . S
C2432 C2430 1.391 . S
C2432 C2433 1.400 . S
C2433 C2427 1.491 1_455 S
C2433 C2432 1.400 . S
C2433 C2434 1.398 . S
C2434 H2422 0.950 . S
C2434 C2433 1.398 . S
C2434 C2435 1.391 . S
C2435 H2423 0.950 . S
C2435 C2431 1.393 . S
C2435 C2434 1.391 . S
H2436 C2444 0.950 . S
H2437 C2449 0.950 . S
H2438 C2446 0.950 . S
H2439 C2448 0.950 . S
H2440 C2450 0.950 . S
H2441 C2452 0.950 . S
H2442 C2454 0.950 . S
H2443 C2455 0.950 . S
C2444 H2436 0.950 . S
C2444 C2445 1.386 . S
C2444 C2446 1.391 . S
C2445 C2444 1.386 . S
C2445 C2449 1.393 . S
C2446 H2438 0.950 . S
C2446 C2444 1.391 . S
C2446 C2447 1.400 . S
C2447 C2446 1.400 . S
C2447 C2448 1.398 . S
C2447 C2453 1.491 . S
C2448 H2439 0.950 . S
C2448 C2447 1.398 . S
C2448 C2449 1.391 . S
C2449 H2437 0.950 . S
C2449 C2445 1.393 . S
C2449 C2448 1.391 . S
C2450 H2440 0.950 . S
C2450 C2451 1.386 . S
C2450 C2452 1.391 . S
C2451 C2450 1.386 . S
C2451 C2455 1.393 . S
C2452 H2441 0.950 . S
C2452 C2450 1.391 . S
C2452 C2453 1.400 . S
C2453 C2447 1.491 . S
C2453 C2452 1.400 . S
C2453 C2454 1.398 . S
C2454 H2442 0.950 . S
C2454 C2453 1.398 . S
C2454 C2455 1.391 . S
C2455 H2443 0.950 . S
C2455 C2451 1.393 . S
C2455 C2454 1.391 . S
H2456 C2464 0.950 . S
H2457 C2469 0.950 . S
H2458 C2466 0.950 . S
H2459 C2468 0.950 . S
H2460 C2470 0.950 . S
H2461 C2472 0.950 . S
H2462 C2474 0.950 . S
H2463 C2475 0.950 . S
C2464 H2456 0.950 . S
C2464 C2465 1.386 . S
C2464 C2466 1.391 . S
C2465 C2464 1.386 . S
C2465 C2469 1.393 . S
C2466 H2458 0.950 . S
C2466 C2464 1.391 . S
C2466 C2467 1.400 . S
C2467 C2466 1.400 . S
C2467 C2468 1.398 . S
C2467 C2473 1.491 . S
C2468 H2459 0.950 . S
C2468 C2467 1.398 . S
C2468 C2469 1.391 . S
C2469 H2457 0.950 . S
C2469 C2465 1.393 . S
C2469 C2468 1.391 . S
C2470 H2460 0.950 . S
C2470 C2471 1.386 . S
C2470 C2472 1.391 . S
C2471 C2470 1.386 . S
C2471 C2475 1.393 . S
C2472 H2461 0.950 . S
C2472 C2470 1.391 . S
C2472 C2473 1.400 . S
C2473 C2467 1.491 . S
C2473 C2472 1.400 . S
C2473 C2474 1.398 . S
C2474 H2462 0.950 . S
C2474 C2473 1.398 . S
C2474 C2475 1.391 . S
C2475 H2463 0.950 . S
C2475 C2471 1.393 . S
C2475 C2474 1.391 . S
H2476 C2484 0.950 . S
H2477 C2489 0.950 . S
H2478 C2486 0.950 . S
H2479 C2488 0.950 . S
H2480 C2490 0.950 . S
H2481 C2492 0.950 . S
H2482 C2494 0.950 . S
H2483 C2495 0.950 . S
C2484 H2476 0.950 . S
C2484 C2485 1.386 . S
C2484 C2486 1.391 . S
C2485 C2484 1.386 . S
C2485 C2489 1.393 . S
C2486 H2478 0.950 . S
C2486 C2484 1.391 . S
C2486 C2487 1.400 . S
C2487 C2486 1.400 . S
C2487 C2488 1.398 . S
C2487 C2493 1.491 1_455 S
C2488 H2479 0.950 . S
C2488 C2487 1.398 . S
C2488 C2489 1.391 . S
C2489 H2477 0.950 . S
C2489 C2485 1.393 . S
C2489 C2488 1.391 . S
C2490 H2480 0.950 . S
C2490 C2491 1.386 . S
C2490 C2492 1.391 . S
C2491 C2490 1.386 . S
C2491 C2495 1.393 . S
C2492 H2481 0.950 . S
C2492 C2490 1.391 . S
C2492 C2493 1.400 . S
C2493 C2487 1.491 1_655 S
C2493 C2492 1.400 . S
C2493 C2494 1.398 . S
C2494 H2482 0.950 . S
C2494 C2493 1.398 . S
C2494 C2495 1.391 . S
C2495 H2483 0.950 . S
C2495 C2491 1.393 . S
C2495 C2494 1.391 . S
H2496 C2504 0.950 . S
H2497 C2509 0.950 . S
H2498 C2506 0.950 1_455 S
H2499 C2508 0.950 . S
H2500 C2510 0.950 . S
H2501 C2512 0.950 1_655 S
H2502 C2514 0.950 . S
H2503 C2515 0.950 . S
C2504 H2496 0.950 . S
C2504 C2505 1.386 . S
C2504 C2506 1.391 . S
C2505 C2504 1.386 . S
C2505 C2509 1.393 . S
C2506 H2498 0.950 1_655 S
C2506 C2504 1.391 . S
C2506 C2507 1.400 . S
C2507 C2506 1.400 . S
C2507 C2508 1.398 . S
C2507 C2513 1.491 1_655 S
C2508 H2499 0.950 . S
C2508 C2507 1.398 . S
C2508 C2509 1.391 . S
C2509 H2497 0.950 . S
C2509 C2505 1.393 . S
C2509 C2508 1.391 . S
C2510 H2500 0.950 . S
C2510 C2511 1.386 . S
C2510 C2512 1.391 . S
C2511 C2510 1.386 . S
C2511 C2515 1.393 . S
C2512 H2501 0.950 1_455 S
C2512 C2510 1.391 . S
C2512 C2513 1.400 . S
C2513 C2507 1.491 1_455 S
C2513 C2512 1.400 . S
C2513 C2514 1.398 . S
C2514 H2502 0.950 . S
C2514 C2513 1.398 . S
C2514 C2515 1.391 . S
C2515 H2503 0.950 . S
C2515 C2511 1.393 . S
C2515 C2514 1.391 . S
H2516 C2524 0.950 . S
H2517 C2529 0.950 . S
H2518 C2526 0.950 1_655 S
H2519 C2528 0.950 . S
H2520 C2530 0.950 . S
H2521 C2532 0.950 1_455 S
H2522 C2534 0.950 . S
H2523 C2535 0.950 . S
C2524 H2516 0.950 . S
C2524 C2525 1.386 . S
C2524 C2526 1.391 . S
C2525 C2524 1.386 . S
C2525 C2529 1.393 . S
C2526 H2518 0.950 1_455 S
C2526 C2524 1.391 . S
C2526 C2527 1.400 . S
C2527 C2526 1.400 . S
C2527 C2528 1.398 . S
C2527 C2533 1.491 1_455 S
C2528 H2519 0.950 . S
C2528 C2527 1.398 . S
C2528 C2529 1.391 . S
C2529 H2517 0.950 . S
C2529 C2525 1.393 . S
C2529 C2528 1.391 . S
C2530 H2520 0.950 . S
C2530 C2531 1.386 . S
C2530 C2532 1.391 . S
C2531 C2530 1.386 . S
C2531 C2535 1.393 . S
C2532 H2521 0.950 1_655 S
C2532 C2530 1.391 . S
C2532 C2533 1.400 . S
C2533 C2527 1.491 1_655 S
C2533 C2532 1.400 . S
C2533 C2534 1.398 . S
C2534 H2522 0.950 . S
C2534 C2533 1.398 . S
C2534 C2535 1.391 . S
C2535 H2523 0.950 . S
C2535 C2531 1.393 . S
C2535 C2534 1.391 . S
H2536 C2544 0.950 . S
H2537 C2549 0.950 . S
H2538 C2546 0.950 . S
H2539 C2548 0.950 . S
H2540 C2550 0.950 . S
H2541 C2552 0.950 . S
H2542 C2554 0.950 . S
H2543 C2555 0.950 . S
C2544 H2536 0.950 . S
C2544 C2545 1.386 . S
C2544 C2546 1.391 . S
C2545 C2544 1.386 . S
C2545 C2549 1.393 . S
C2546 H2538 0.950 . S
C2546 C2544 1.391 . S
C2546 C2547 1.400 . S
C2547 C2546 1.400 . S
C2547 C2548 1.398 . S
C2547 C2553 1.491 . S
C2548 H2539 0.950 . S
C2548 C2547 1.398 . S
C2548 C2549 1.391 . S
C2549 H2537 0.950 . S
C2549 C2545 1.393 . S
C2549 C2548 1.391 . S
C2550 H2540 0.950 . S
C2550 C2551 1.386 . S
C2550 C2552 1.391 . S
C2551 C2550 1.386 . S
C2551 C2555 1.393 . S
C2552 H2541 0.950 . S
C2552 C2550 1.391 . S
C2552 C2553 1.400 . S
C2553 C2547 1.491 . S
C2553 C2552 1.400 . S
C2553 C2554 1.398 . S
C2554 H2542 0.950 . S
C2554 C2553 1.398 . S
C2554 C2555 1.391 . S
C2555 H2543 0.950 . S
C2555 C2551 1.393 . S
C2555 C2554 1.391 . S
H2556 C2564 0.950 . S
H2557 C2569 0.950 . S
H2558 C2566 0.950 . S
H2559 C2568 0.950 . S
H2560 C2570 0.950 . S
H2561 C2572 0.950 . S
H2562 C2574 0.950 . S
H2563 C2575 0.950 . S
C2564 H2556 0.950 . S
C2564 C2565 1.386 . S
C2564 C2566 1.391 . S
C2565 C2564 1.386 . S
C2565 C2569 1.393 . S
C2566 H2558 0.950 . S
C2566 C2564 1.391 . S
C2566 C2567 1.400 . S
C2567 C2566 1.400 . S
C2567 C2568 1.398 . S
C2567 C2573 1.491 . S
C2568 H2559 0.950 . S
C2568 C2567 1.398 . S
C2568 C2569 1.391 . S
C2569 H2557 0.950 . S
C2569 C2565 1.393 . S
C2569 C2568 1.391 . S
C2570 H2560 0.950 . S
C2570 C2571 1.386 . S
C2570 C2572 1.391 . S
C2571 C2570 1.386 . S
C2571 C2575 1.393 . S
C2572 H2561 0.950 . S
C2572 C2570 1.391 . S
C2572 C2573 1.400 . S
C2573 C2567 1.491 . S
C2573 C2572 1.400 . S
C2573 C2574 1.398 . S
C2574 H2562 0.950 . S
C2574 C2573 1.398 . S
C2574 C2575 1.391 . S
C2575 H2563 0.950 . S
C2575 C2571 1.393 . S
C2575 C2574 1.391 . S
H2576 C2584 0.950 . S
H2577 C2589 0.950 . S
H2578 C2586 0.950 . S
H2579 C2588 0.969 . S
H2580 C2590 0.950 . S
H2581 C2592 0.950 . S
H2582 C2594 0.969 . S
H2583 C2595 0.950 . S
C2584 H2576 0.950 . S
C2584 C2585 1.386 . S
C2584 C2586 1.391 . S
C2585 C2584 1.386 . S
C2585 C2589 1.393 . S
C2586 H2578 0.950 . S
C2586 C2584 1.391 . S
C2586 C2587 1.400 . S
C2587 C2586 1.400 . S
C2587 C2588 1.392 1_655 S
C2587 C2593 1.491 1_655 S
C2588 H2579 0.969 . S
C2588 C2587 1.392 1_455 S
C2588 C2589 1.379 1_455 S
C2589 H2577 0.950 . S
C2589 C2585 1.393 . S
C2589 C2588 1.379 1_655 S
C2590 H2580 0.950 . S
C2590 C2591 1.386 . S
C2590 C2592 1.391 . S
C2591 C2590 1.386 . S
C2591 C2595 1.393 . S
C2592 H2581 0.950 . S
C2592 C2590 1.391 . S
C2592 C2593 1.400 . S
C2593 C2587 1.491 1_455 S
C2593 C2592 1.400 . S
C2593 C2594 1.392 1_455 S
C2594 H2582 0.969 . S
C2594 C2593 1.392 1_655 S
C2594 C2595 1.379 1_655 S
C2595 H2583 0.950 . S
C2595 C2591 1.393 . S
C2595 C2594 1.379 1_455 S
H2596 C2604 0.950 . S
H2597 C2609 0.950 . S
H2598 C2606 0.950 . S
H2599 C2608 0.950 . S
H2600 C2610 0.950 . S
H2601 C2612 0.950 . S
H2602 C2614 0.950 . S
H2603 C2615 0.950 . S
C2604 H2596 0.950 . S
C2604 C2605 1.386 . S
C2604 C2606 1.391 . S
C2605 C2604 1.386 . S
C2605 C2609 1.393 . S
C2606 H2598 0.950 . S
C2606 C2604 1.391 . S
C2606 C2607 1.400 . S
C2607 C2606 1.400 . S
C2607 C2608 1.398 . S
C2607 C2613 1.491 . S
C2608 H2599 0.950 . S
C2608 C2607 1.398 . S
C2608 C2609 1.391 . S
C2609 H2597 0.950 . S
C2609 C2605 1.393 . S
C2609 C2608 1.391 . S
C2610 H2600 0.950 . S
C2610 C2611 1.386 . S
C2610 C2612 1.391 . S
C2611 C2610 1.386 . S
C2611 C2615 1.393 . S
C2612 H2601 0.950 . S
C2612 C2610 1.391 . S
C2612 C2613 1.400 . S
C2613 C2607 1.491 . S
C2613 C2612 1.400 . S
C2613 C2614 1.398 . S
C2614 H2602 0.950 . S
C2614 C2613 1.398 . S
C2614 C2615 1.391 . S
C2615 H2603 0.950 . S
C2615 C2611 1.393 . S
C2615 C2614 1.391 . S
H2616 C2624 0.950 . S
H2617 C2629 0.950 . S
H2618 C2626 0.950 . S
H2619 C2628 0.950 . S
H2620 C2630 0.950 . S
H2621 C2632 0.950 . S
H2622 C2634 0.950 . S
H2623 C2635 0.950 . S
C2624 H2616 0.950 . S
C2624 C2625 1.386 . S
C2624 C2626 1.391 . S
C2625 C2624 1.386 . S
C2625 C2629 1.393 . S
C2626 H2618 0.950 . S
C2626 C2624 1.391 . S
C2626 C2627 1.400 . S
C2627 C2626 1.400 . S
C2627 C2628 1.398 . S
C2627 C2633 1.491 . S
C2628 H2619 0.950 . S
C2628 C2627 1.398 . S
C2628 C2629 1.391 . S
C2629 H2617 0.950 . S
C2629 C2625 1.393 . S
C2629 C2628 1.391 . S
C2630 H2620 0.950 . S
C2630 C2631 1.386 . S
C2630 C2632 1.391 . S
C2631 C2630 1.386 . S
C2631 C2635 1.393 . S
C2632 H2621 0.950 . S
C2632 C2630 1.391 . S
C2632 C2633 1.400 . S
C2633 C2627 1.491 . S
C2633 C2632 1.400 . S
C2633 C2634 1.398 . S
C2634 H2622 0.950 . S
C2634 C2633 1.398 . S
C2634 C2635 1.391 . S
C2635 H2623 0.950 . S
C2635 C2631 1.393 . S
C2635 C2634 1.391 . S
H2636 C2644 0.950 . S
H2637 C2649 0.950 . S
H2638 C2646 0.950 1_455 S
H2639 C2648 0.950 . S
H2640 C2650 0.950 . S
H2641 C2652 0.950 1_655 S
H2642 C2654 0.950 . S
H2643 C2655 0.950 . S
C2644 H2636 0.950 . S
C2644 C2645 1.386 . S
C2644 C2646 1.391 . S
C2645 C2644 1.386 . S
C2645 C2649 1.393 . S
C2646 H2638 0.950 1_655 S
C2646 C2644 1.391 . S
C2646 C2647 1.400 . S
C2647 C2646 1.400 . S
C2647 C2648 1.398 . S
C2647 C2653 1.491 1_655 S
C2648 H2639 0.950 . S
C2648 C2647 1.398 . S
C2648 C2649 1.391 . S
C2649 H2637 0.950 . S
C2649 C2645 1.393 . S
C2649 C2648 1.391 . S
C2650 H2640 0.950 . S
C2650 C2651 1.386 . S
C2650 C2652 1.391 . S
C2651 C2650 1.386 . S
C2651 C2655 1.393 . S
C2652 H2641 0.950 1_455 S
C2652 C2650 1.391 . S
C2652 C2653 1.400 . S
C2653 C2647 1.491 1_455 S
C2653 C2652 1.400 . S
C2653 C2654 1.398 . S
C2654 H2642 0.950 . S
C2654 C2653 1.398 . S
C2654 C2655 1.391 . S
C2655 H2643 0.950 . S
C2655 C2651 1.393 . S
C2655 C2654 1.391 . S
C1065 C912 0.515 . S
C1071 C7 0.520 . S
C1085 C285 0.479 . S
C1091 C40 0.555 . S
C1105 C846 0.534 . S
C1111 C73 0.484 . S
C1125 C106 0.537 . S
C1131 C351 0.499 . S
C1145 C978 0.474 . S
C1151 C139 0.558 . S
C1165 C483 0.512 . S
C1171 C172 0.503 . S
C1185 C205 0.488 . S
C1191 C1044 0.535 . S
C1205 C238 0.484 . S
C1211 C417 0.534 . S
C1225 C648 0.474 . S
C1231 C271 0.549 . S
C1245 C21 0.524 . S
C1251 C304 0.491 . S
C1265 C337 0.508 . S
C1271 C582 0.508 . S
C1285 C370 0.487 . S
C1291 C87 0.535 . S
C1305 C403 0.506 . S
C1311 C714 0.525 . S
C1325 C436 0.513 . S
C1331 C219 0.503 . S
C1345 C780 0.469 . S
C1351 C469 0.559 . S
C1365 C153 0.526 . S
C1371 C502 0.489 . S
C1385 C384 0.523 . S
C1391 C535 0.492 . S
C1405 C568 0.515 . S
C1411 C813 0.501 . S
C1425 C318 0.478 . S
C1431 C601 0.542 . S
C1445 C634 0.502 . S
C1451 C879 0.513 . S
C1465 C450 0.472 . S
C1471 C667 0.559 . S
C1485 C1011 0.535 . S
C1491 C700 0.484 . S
C1505 C516 0.470 . S
C1511 C733 0.555 . S
C1525 C766 0.510 . S
C1531 C945 0.506 . S
C1545 C799 0.535 . S
C1551 C120 0.484 . S
C1565 C549 0.470 . S
C1571 C832 0.555 . S
C1585 C54 0.515 . S
C1591 C865 0.519 . S
C1605 C898 0.523 . S
C1611 C615 0.494 . S
C1625 C931 0.554 . S
C1631 C186 0.470 . S
C1645 C964 0.487 . S
C1651 C747 0.535 . S
C1665 C252 0.485 . S
C1671 C997 0.534 . S
C1685 C1030 0.557 . S
C1691 C681 0.469 . S
C1705 N13 1.554 . S
C1711 N178 1.538 . S
C1725 N211 1.563 . S
C1731 N46 1.549 . S
C1745 N244 1.562 . S
C1751 N79 1.547 . S
C1765 N112 1.562 . S
C1771 N145 1.546 . S
C1785 N277 1.559 . S
C1791 N442 1.542 . S
C1805 N310 1.534 . S
C1811 N475 1.541 . S
C1825 N343 1.539 . S
C1831 N508 1.534 . S
C1845 N376 1.537 . S
C1851 N409 1.553 . S
C1865 N706 1.535 . S
C1871 N541 1.550 . S
C1885 N574 1.551 . S
C1891 N739 1.536 . S
C1905 N607 1.563 . S
C1911 N772 1.550 . S
C1925 N673 1.563 . S
C1931 N640 1.548 . S
C1945 N970 1.564 . S
C1951 N805 1.557 . S
C1965 N1003 1.556 . S
C1971 N838 1.564 . S
C1985 N1036 1.537 . S
C1991 N871 1.553 . S
C2005 N937 1.555 . S
C2011 N904 1.539 . S
C2025 C18 1.190 . S
C2031 C150 1.200 . S
C2045 C51 1.202 . S
C2051 C183 1.210 . S
C2065 C216 1.190 . S
C2071 C84 1.190 . S
C2085 C249 1.198 . S
C2091 C117 1.208 . S
C2105 C282 1.210 . S
C2111 C414 1.208 . S
C2125 C447 1.207 . S
C2131 C315 1.211 . S
C2145 C348 1.192 . S
C2151 C480 1.203 . S
C2165 C513 1.191 . S
C2171 C381 1.202 . S
C2185 C546 1.194 . S
C2191 C678 1.188 . S
C2205 C579 1.200 . S
C2211 C711 1.190 . S
C2225 C612 1.198 . S
C2231 C744 1.208 . S
C2245 C645 1.208 . S
C2251 C777 1.210 . S
C2265 C942 1.201 . S
C2271 C810 1.210 . S
C2285 C843 1.197 . S
C2291 C975 1.189 . S
C2305 C876 1.188 . S
C2311 C1008 1.192 . S
C2325 C909 1.210 . S
C2331 C1041 1.208 . S
C2345 N2 1.195 . S
C2351 N596 1.194 . S
C2365 N629 1.191 . S
C2371 N35 1.191 . S
C2385 N68 1.203 . S
C2391 N530 1.203 . S
C2405 N101 1.188 . S
C2411 N563 1.189 . S
C2425 N728 1.189 . S
C2431 N134 1.189 . S
C2445 N761 1.192 . S
C2451 N167 1.192 . S
C2465 N200 1.202 . S
C2471 N662 1.202 . S
C2485 N233 1.202 . S
C2491 N695 1.202 . S
C2505 N266 1.200 . S
C2511 N860 1.200 . S
C2525 N893 1.192 . S
C2531 N299 1.191 . S
C2545 N794 1.188 . S
C2551 N332 1.188 . S
C2565 N365 1.192 . S
C2571 N827 1.192 . S
C2585 N398 1.196 . S
C2591 N992 1.195 . S
C2605 N431 1.201 . S
C2611 N1025 1.201 . S
C2625 N464 1.188 . S
C2631 N926 1.188 . S
C2645 N497 1.191 . S
C2651 N959 1.191 . S
