# Generated by pormake.
# Topology hbo, (4)-cn, num edge types: 1
# Building blocks:
#     Node 0, Type 0, BuildingBlock: KUFVIS_clean_sbu_0, # of connection points: 4
#     Node 1, Type 0, BuildingBlock: KUFVIS_clean_sbu_0, # of connection points: 4
#     Node 2, Type 0, BuildingBlock: KUFVIS_clean_sbu_0, # of connection points: 4
#     Node 3, Type 0, BuildingBlock: KUFVIS_clean_sbu_0, # of connection points: 4
#     Node 4, Type 0, BuildingBlock: KUFVIS_clean_sbu_0, # of connection points: 4
#     Node 5, Type 0, BuildingBlock: KUFVIS_clean_sbu_0, # of connection points: 4
#     Node 6, Type 0, BuildingBlock: KUFVIS_clean_sbu_0, # of connection points: 4
#     Node 7, Type 0, BuildingBlock: KUFVIS_clean_sbu_0, # of connection points: 4
#     Node 8, Type 0, BuildingBlock: KUFVIS_clean_sbu_0, # of connection points: 4
#     Node 9, Type 0, BuildingBlock: KUFVIS_clean_sbu_0, # of connection points: 4
#     Node 10, Type 0, BuildingBlock: KUFVIS_clean_sbu_0, # of connection points: 4
#     Node 11, Type 0, BuildingBlock: KUFVIS_clean_sbu_0, # of connection points: 4
#     Node 12, Type 0, BuildingBlock: KUFVIS_clean_sbu_0, # of connection points: 4
#     Node 13, Type 0, BuildingBlock: KUFVIS_clean_sbu_0, # of connection points: 4
#     Node 14, Type 0, BuildingBlock: KUFVIS_clean_sbu_0, # of connection points: 4
#     Node 15, Type 0, BuildingBlock: KUFVIS_clean_sbu_0, # of connection points: 4
#     Node 16, Type 0, BuildingBlock: KUFVIS_clean_sbu_0, # of connection points: 4
#     Node 17, Type 0, BuildingBlock: KUFVIS_clean_sbu_0, # of connection points: 4
#     Node 18, Type 0, BuildingBlock: KUFVIS_clean_sbu_0, # of connection points: 4
#     Node 19, Type 0, BuildingBlock: KUFVIS_clean_sbu_0, # of connection points: 4
#     Node 20, Type 0, BuildingBlock: KUFVIS_clean_sbu_0, # of connection points: 4
#     Node 21, Type 0, BuildingBlock: KUFVIS_clean_sbu_0, # of connection points: 4
#     Node 22, Type 0, BuildingBlock: KUFVIS_clean_sbu_0, # of connection points: 4
#     Node 23, Type 0, BuildingBlock: KUFVIS_clean_sbu_0, # of connection points: 4
#     Edge 24, Type (0, 0), BuildingBlock: EZIPEK_clean_linker_0, # of connection points: 2
#     Edge 25, Type (0, 0), BuildingBlock: EZIPEK_clean_linker_0, # of connection points: 2
#     Edge 26, Type (0, 0), BuildingBlock: EZIPEK_clean_linker_0, # of connection points: 2
#     Edge 27, Type (0, 0), BuildingBlock: EZIPEK_clean_linker_0, # of connection points: 2
#     Edge 28, Type (0, 0), BuildingBlock: EZIPEK_clean_linker_0, # of connection points: 2
#     Edge 29, Type (0, 0), BuildingBlock: EZIPEK_clean_linker_0, # of connection points: 2
#     Edge 30, Type (0, 0), BuildingBlock: EZIPEK_clean_linker_0, # of connection points: 2
#     Edge 31, Type (0, 0), BuildingBlock: EZIPEK_clean_linker_0, # of connection points: 2
#     Edge 32, Type (0, 0), BuildingBlock: EZIPEK_clean_linker_0, # of connection points: 2
#     Edge 33, Type (0, 0), BuildingBlock: EZIPEK_clean_linker_0, # of connection points: 2
#     Edge 34, Type (0, 0), BuildingBlock: EZIPEK_clean_linker_0, # of connection points: 2
#     Edge 35, Type (0, 0), BuildingBlock: EZIPEK_clean_linker_0, # of connection points: 2
#     Edge 36, Type (0, 0), BuildingBlock: EZIPEK_clean_linker_0, # of connection points: 2
#     Edge 37, Type (0, 0), BuildingBlock: EZIPEK_clean_linker_0, # of connection points: 2
#     Edge 38, Type (0, 0), BuildingBlock: EZIPEK_clean_linker_0, # of connection points: 2
#     Edge 39, Type (0, 0), BuildingBlock: EZIPEK_clean_linker_0, # of connection points: 2
#     Edge 40, Type (0, 0), BuildingBlock: EZIPEK_clean_linker_0, # of connection points: 2
#     Edge 41, Type (0, 0), BuildingBlock: EZIPEK_clean_linker_0, # of connection points: 2
#     Edge 42, Type (0, 0), BuildingBlock: EZIPEK_clean_linker_0, # of connection points: 2
#     Edge 43, Type (0, 0), BuildingBlock: EZIPEK_clean_linker_0, # of connection points: 2
#     Edge 44, Type (0, 0), BuildingBlock: EZIPEK_clean_linker_0, # of connection points: 2
#     Edge 45, Type (0, 0), BuildingBlock: EZIPEK_clean_linker_0, # of connection points: 2
#     Edge 46, Type (0, 0), BuildingBlock: EZIPEK_clean_linker_0, # of connection points: 2
#     Edge 47, Type (0, 0), BuildingBlock: EZIPEK_clean_linker_0, # of connection points: 2
#     Edge 48, Type (0, 0), BuildingBlock: EZIPEK_clean_linker_0, # of connection points: 2
#     Edge 49, Type (0, 0), BuildingBlock: EZIPEK_clean_linker_0, # of connection points: 2
#     Edge 50, Type (0, 0), BuildingBlock: EZIPEK_clean_linker_0, # of connection points: 2
#     Edge 51, Type (0, 0), BuildingBlock: EZIPEK_clean_linker_0, # of connection points: 2
#     Edge 52, Type (0, 0), BuildingBlock: EZIPEK_clean_linker_0, # of connection points: 2
#     Edge 53, Type (0, 0), BuildingBlock: EZIPEK_clean_linker_0, # of connection points: 2
#     Edge 54, Type (0, 0), BuildingBlock: EZIPEK_clean_linker_0, # of connection points: 2
#     Edge 55, Type (0, 0), BuildingBlock: EZIPEK_clean_linker_0, # of connection points: 2
#     Edge 56, Type (0, 0), BuildingBlock: EZIPEK_clean_linker_0, # of connection points: 2
#     Edge 57, Type (0, 0), BuildingBlock: EZIPEK_clean_linker_0, # of connection points: 2
#     Edge 58, Type (0, 0), BuildingBlock: EZIPEK_clean_linker_0, # of connection points: 2
#     Edge 59, Type (0, 0), BuildingBlock: EZIPEK_clean_linker_0, # of connection points: 2
#     Edge 60, Type (0, 0), BuildingBlock: EZIPEK_clean_linker_0, # of connection points: 2
#     Edge 61, Type (0, 0), BuildingBlock: EZIPEK_clean_linker_0, # of connection points: 2
#     Edge 62, Type (0, 0), BuildingBlock: EZIPEK_clean_linker_0, # of connection points: 2
#     Edge 63, Type (0, 0), BuildingBlock: EZIPEK_clean_linker_0, # of connection points: 2
#     Edge 64, Type (0, 0), BuildingBlock: EZIPEK_clean_linker_0, # of connection points: 2
#     Edge 65, Type (0, 0), BuildingBlock: EZIPEK_clean_linker_0, # of connection points: 2
#     Edge 66, Type (0, 0), BuildingBlock: EZIPEK_clean_linker_0, # of connection points: 2
#     Edge 67, Type (0, 0), BuildingBlock: EZIPEK_clean_linker_0, # of connection points: 2
#     Edge 68, Type (0, 0), BuildingBlock: EZIPEK_clean_linker_0, # of connection points: 2
#     Edge 69, Type (0, 0), BuildingBlock: EZIPEK_clean_linker_0, # of connection points: 2
#     Edge 70, Type (0, 0), BuildingBlock: EZIPEK_clean_linker_0, # of connection points: 2
#     Edge 71, Type (0, 0), BuildingBlock: EZIPEK_clean_linker_0, # of connection points: 2
# Relax obj value: 0.253
# Max RMSD: 0.306
# Mean RMSD: 0.266
data_MOF--net-hbo--node1-KUFVIS_clean_sbu_0--edge1-EZIPEK_clean_linker_0
_symmetry_space_group_name_H-M    P1
_symmetry_Int_Tables_number       1
_symmetry_cell_setting            triclinic
loop_
_symmetry_equiv_pos_as_xyz
'x, y, z'
_cell_length_a     37.331872
_cell_length_b     38.406628
_cell_length_c     38.599863
_cell_angle_alpha  91.367608
_cell_angle_beta   89.66986
_cell_angle_gamma 95.253879
loop_
_atom_site_label
_atom_site_type_symbol
_atom_site_fract_x
_atom_site_fract_y
_atom_site_fract_z
_atom_type_partial_charge
Mn0 Mn 0.12229 0.32731 0.26145 0.0
Mn1 Mn 0.10002 0.34015 0.17824 0.0
C2 C 0.16329 0.31969 0.21773 0.0
C3 C 0.12474 0.28907 0.30731 0.0
C4 C 0.12261 0.39924 0.22878 0.0
O5 O 0.06817 0.32756 0.26449 0.0
O6 O 0.05576 0.3359 0.20826 0.0
C7 C 0.06153 0.27055 0.16348 0.0
N8 N 0.08869 0.29539 0.15618 0.0
C9 C 0.10992 0.25976 0.10958 0.0
C10 C 0.08224 0.23373 0.1168 0.0
C11 C 0.05794 0.23917 0.14388 0.0
C12 C 0.1122 0.29043 0.13013 0.0
H13 H 0.04279 0.27477 0.18404 0.0
C14 C 0.04637 0.33237 0.24018 0.0
O15 O 0.1261 0.32267 0.3129 0.0
O16 O 0.11991 0.27817 0.27555 0.0
N17 N 0.13973 0.34504 0.14652 0.0
C18 C 0.16421 0.37319 0.14216 0.0
C19 C 0.19048 0.37204 0.11606 0.0
C20 C 0.19088 0.34227 0.09427 0.0
C21 C 0.16463 0.31414 0.09843 0.0
C22 C 0.13908 0.31683 0.12486 0.0
H23 H 0.16395 0.39623 0.15872 0.0
O24 O 0.17387 0.32497 0.24948 0.0
O25 O 0.12878 0.31877 0.21251 0.0
O26 O 0.12669 0.38068 0.25535 0.0
O27 O 0.11282 0.38672 0.199 0.0
C28 C 0.16277 0.28358 0.07736 0.0
C29 C 0.13545 0.25639 0.08296 0.0
H30 H 0.0794 0.2095 0.10172 0.0
H31 H 0.03644 0.21925 0.14958 0.0
H32 H 0.21041 0.39402 0.11281 0.0
H33 H 0.21127 0.34141 0.07427 0.0
H34 H 0.18226 0.28067 0.05684 0.0
H35 H 0.13439 0.23294 0.0667 0.0
Mn36 Mn 0.15028 0.64128 0.73325 0.0
Mn37 Mn 0.10829 0.60341 0.80181 0.0
C38 C 0.18218 0.63748 0.784 0.0
C39 C 0.16599 0.69092 0.70239 0.0
C40 C 0.13671 0.56314 0.74034 0.0
O41 O 0.09807 0.63974 0.71972 0.0
O42 O 0.07255 0.62076 0.7697 0.0
C43 C 0.07742 0.6644 0.8349 0.0
N44 N 0.09906 0.6378 0.83659 0.0
C45 C 0.11338 0.65235 0.89622 0.0
C46 C 0.09177 0.68027 0.8949 0.0
C47 C 0.07374 0.68634 0.86408 0.0
C48 C 0.11675 0.63191 0.86604 0.0
H49 H 0.06306 0.66881 0.81151 0.0
C50 C 0.07092 0.63277 0.73912 0.0
O51 O 0.16667 0.66002 0.68803 0.0
O52 O 0.15347 0.69266 0.7337 0.0
N53 N 0.13934 0.58589 0.83516 0.0
C54 C 0.15596 0.55575 0.83318 0.0
C55 C 0.17228 0.54387 0.8627 0.0
C56 C 0.17084 0.56271 0.89416 0.0
C57 C 0.15381 0.59375 0.89568 0.0
C58 C 0.13757 0.60407 0.86546 0.0
H59 H 0.15603 0.54028 0.8095 0.0
O60 O 0.19821 0.64252 0.7545 0.0
O61 O 0.14708 0.63548 0.78319 0.0
O62 O 0.15083 0.5891 0.72372 0.0
O63 O 0.11812 0.5659 0.76802 0.0
C64 C 0.15088 0.61396 0.92636 0.0
C65 C 0.13112 0.64355 0.92649 0.0
H66 H 0.08846 0.69695 0.9175 0.0
H67 H 0.05674 0.70764 0.86293 0.0
H68 H 0.18512 0.51977 0.8614 0.0
H69 H 0.18194 0.55242 0.91719 0.0
H70 H 0.16334 0.60675 0.9501 0.0
H71 H 0.12895 0.65882 0.95025 0.0
Mn72 Mn 0.87256 0.66606 0.24864 0.0
Mn73 Mn 0.90626 0.66485 0.3301 0.0
C74 C 0.84544 0.6958 0.29654 0.0
C75 C 0.82511 0.66268 0.20629 0.0
C76 C 0.95013 0.6573 0.26537 0.0
O77 O 0.85591 0.6176 0.26659 0.0
O78 O 0.89168 0.61575 0.31326 0.0
C79 C 0.84414 0.63657 0.37226 0.0
N80 N 0.86868 0.66364 0.36417 0.0
C81 C 0.84773 0.69934 0.41083 0.0
C82 C 0.82148 0.67224 0.4189 0.0
C83 C 0.81989 0.64061 0.39971 0.0
C84 C 0.87134 0.69368 0.38336 0.0
H85 H 0.84328 0.61198 0.35814 0.0
C86 C 0.87037 0.60094 0.29019 0.0
O87 O 0.85568 0.65099 0.20008 0.0
O88 O 0.82086 0.67511 0.23739 0.0
N89 N 0.92024 0.71088 0.34812 0.0
C90 C 0.94765 0.73413 0.33754 0.0
C91 C 0.95304 0.76709 0.35418 0.0
C92 C 0.93028 0.77574 0.38156 0.0
C93 C 0.90245 0.75126 0.39218 0.0
C94 C 0.89837 0.71883 0.3746 0.0
H95 H 0.96505 0.7277 0.31634 0.0
O96 O 0.82758 0.68731 0.26843 0.0
O97 O 0.87709 0.68546 0.29592 0.0
O98 O 0.92373 0.652 0.24441 0.0
O99 O 0.94708 0.66692 0.29712 0.0
C100 C 0.87853 0.75779 0.41945 0.0
C101 C 0.85131 0.73178 0.42889 0.0
H102 H 0.80259 0.67535 0.4399 0.0
H103 H 0.80007 0.61936 0.40609 0.0
H104 H 0.97461 0.78582 0.34585 0.0
H105 H 0.93447 0.80122 0.39428 0.0
H106 H 0.88093 0.78267 0.43344 0.0
H107 H 0.83321 0.73704 0.45002 0.0
Mn108 Mn 0.84926 0.35293 0.7316 0.0
Mn109 Mn 0.8945 0.3685 0.65748 0.0
C110 C 0.84919 0.30782 0.69037 0.0
C111 C 0.79883 0.36133 0.7654 0.0
C112 C 0.92947 0.3579 0.727 0.0
O113 O 0.86037 0.40554 0.73091 0.0
O114 O 0.87769 0.41313 0.67546 0.0
C115 C 0.83698 0.3889 0.61175 0.0
N116 N 0.86309 0.36748 0.61854 0.0
C117 C 0.85464 0.33799 0.56315 0.0
C118 C 0.82732 0.3594 0.55571 0.0
C119 C 0.81833 0.38484 0.58021 0.0
C120 C 0.87142 0.34243 0.5955 0.0
H121 H 0.83035 0.4088 0.63035 0.0
C122 C 0.86845 0.4248 0.70517 0.0
O123 O 0.82977 0.35719 0.77898 0.0
O124 O 0.79685 0.35863 0.73178 0.0
N125 N 0.91251 0.32795 0.63673 0.0
C126 C 0.94121 0.31128 0.64696 0.0
C127 C 0.95592 0.2874 0.62422 0.0
C128 C 0.94148 0.28144 0.59095 0.0
C129 C 0.91146 0.29825 0.58111 0.0
C130 C 0.89811 0.322 0.60483 0.0
H131 H 0.95369 0.317 0.67181 0.0
O132 O 0.83983 0.30168 0.72229 0.0
O133 O 0.85686 0.34073 0.68331 0.0
O134 O 0.9011 0.34722 0.74322 0.0
O135 O 0.92963 0.36953 0.6962 0.0
C136 C 0.89545 0.29377 0.54811 0.0
C137 C 0.86653 0.31306 0.53943 0.0
H138 H 0.81335 0.35678 0.53113 0.0
H139 H 0.7974 0.40157 0.5746 0.0
H140 H 0.97916 0.27455 0.63188 0.0
H141 H 0.95457 0.26483 0.57286 0.0
H142 H 0.90538 0.2759 0.52902 0.0
H143 H 0.85435 0.30926 0.51405 0.0
Mn144 Mn 0.22693 0.13159 0.36535 0.0
Mn145 Mn 0.30773 0.10187 0.38021 0.0
C146 C 0.2685 0.12838 0.32014 0.0
C147 C 0.1892 0.17673 0.36338 0.0
C148 C 0.23878 0.05438 0.37067 0.0
O149 O 0.23004 0.13407 0.41809 0.0
O150 O 0.28499 0.11546 0.42423 0.0
C151 C 0.34449 0.16889 0.40642 0.0
N152 N 0.34309 0.14101 0.3838 0.0
C153 C 0.40009 0.16135 0.35874 0.0
C154 C 0.40214 0.19031 0.38169 0.0
C155 C 0.3741 0.19419 0.4055 0.0
C156 C 0.36947 0.13747 0.36029 0.0
H157 H 0.32314 0.17185 0.42495 0.0
C158 C 0.25631 0.12663 0.43666 0.0
O159 O 0.17652 0.1445 0.36738 0.0
O160 O 0.22398 0.18296 0.3626 0.0
N161 N 0.33413 0.0879 0.34054 0.0
C162 C 0.32883 0.05759 0.32144 0.0
C163 C 0.35592 0.04809 0.29872 0.0
C164 C 0.38819 0.06974 0.2961 0.0
C165 C 0.39256 0.10133 0.31499 0.0
C166 C 0.36507 0.10898 0.33788 0.0
H167 H 0.3047 0.04014 0.32449 0.0
O168 O 0.23446 0.12938 0.31404 0.0
O169 O 0.27731 0.12954 0.35275 0.0
O170 O 0.21793 0.07838 0.36654 0.0
O171 O 0.27261 0.06003 0.37609 0.0
C172 C 0.42385 0.12471 0.31316 0.0
C173 C 0.42735 0.15503 0.33464 0.0
H174 H 0.42515 0.20965 0.38134 0.0
H175 H 0.37546 0.21647 0.4233 0.0
H176 H 0.3524 0.02363 0.28408 0.0
H177 H 0.41002 0.06148 0.28034 0.0
H178 H 0.44543 0.11955 0.29542 0.0
H179 H 0.45142 0.17295 0.3329 0.0
Mn180 Mn 0.3552 0.74019 0.84464 0.0
Mn181 Mn 0.35436 0.66487 0.88862 0.0
C182 C 0.30263 0.7024 0.84724 0.0
C183 C 0.36464 0.77537 0.79663 0.0
C184 C 0.3545 0.73678 0.92246 0.0
O185 O 0.40838 0.7334 0.85024 0.0
O186 O 0.4042 0.68014 0.87452 0.0
C187 C 0.37684 0.6159 0.83404 0.0
N188 N 0.35242 0.62475 0.8583 0.0
C189 C 0.31793 0.56903 0.85121 0.0
C190 C 0.3425 0.55938 0.82591 0.0
C191 C 0.37195 0.58303 0.81713 0.0
C192 C 0.32367 0.60247 0.86649 0.0
H193 H 0.3999 0.63376 0.82779 0.0
C194 C 0.42227 0.70689 0.86203 0.0
O195 O 0.36723 0.78789 0.82794 0.0
O196 O 0.35887 0.74151 0.79281 0.0
N197 N 0.30782 0.64679 0.9041 0.0
C198 C 0.28687 0.66009 0.92923 0.0
C199 C 0.25676 0.63955 0.94164 0.0
C200 C 0.2491 0.60525 0.92875 0.0
C201 C 0.27075 0.59218 0.90254 0.0
C202 C 0.3002 0.61404 0.89097 0.0
H203 H 0.29363 0.68581 0.94037 0.0
O204 O 0.30155 0.73531 0.84052 0.0
O205 O 0.33458 0.69251 0.85217 0.0
O206 O 0.35193 0.75384 0.89519 0.0
O207 O 0.35632 0.70385 0.92297 0.0
C208 C 0.26504 0.55802 0.88825 0.0
C209 C 0.28829 0.54663 0.86223 0.0
H210 H 0.33913 0.53384 0.81322 0.0
H211 H 0.39111 0.57573 0.79773 0.0
H212 H 0.24015 0.64973 0.96187 0.0
H213 H 0.22706 0.58905 0.93986 0.0
H214 H 0.24307 0.54015 0.89724 0.0
H215 H 0.28343 0.52045 0.85118 0.0
Mn216 Mn 0.75076 0.86367 0.35543 0.0
Mn217 Mn 0.66906 0.89344 0.36475 0.0
C218 C 0.71466 0.86717 0.30723 0.0
C219 C 0.78631 0.81697 0.35339 0.0
C220 C 0.738 0.94119 0.36153 0.0
O221 O 0.74239 0.85979 0.40694 0.0
O222 O 0.68809 0.88083 0.4106 0.0
C223 C 0.62916 0.82736 0.38687 0.0
N224 N 0.63346 0.85434 0.36452 0.0
C225 C 0.58026 0.83265 0.33303 0.0
C226 C 0.57549 0.80442 0.35549 0.0
C227 C 0.60011 0.80173 0.38247 0.0
C228 C 0.61016 0.85695 0.33824 0.0
H229 H 0.64771 0.82543 0.4079 0.0
C230 C 0.71522 0.86818 0.42408 0.0
O231 O 0.80028 0.84862 0.3603 0.0
O232 O 0.75171 0.81243 0.35008 0.0
N233 N 0.6469 0.90656 0.3232 0.0
C234 C 0.65426 0.93645 0.30517 0.0
C235 C 0.63023 0.94508 0.27971 0.0
C236 C 0.59907 0.92275 0.27281 0.0
C237 C 0.59261 0.89157 0.29084 0.0
C238 C 0.61692 0.88495 0.31678 0.0
H239 H 0.67761 0.95429 0.31101 0.0
O240 O 0.74924 0.86677 0.30429 0.0
O241 O 0.70213 0.86589 0.33882 0.0
O242 O 0.7598 0.91736 0.36026 0.0
O243 O 0.70391 0.93488 0.36367 0.0
C244 C 0.56223 0.86757 0.28513 0.0
C245 C 0.55634 0.83784 0.3059 0.0
H246 H 0.5529 0.78481 0.3524 0.0
H247 H 0.59653 0.78011 0.40001 0.0
H248 H 0.63524 0.96937 0.26612 0.0
H249 H 0.57976 0.93037 0.25435 0.0
H250 H 0.54315 0.87184 0.26497 0.0
H251 H 0.53295 0.81951 0.30124 0.0
Mn252 Mn 0.63744 0.26204 0.84643 0.0
Mn253 Mn 0.61976 0.34439 0.86815 0.0
C254 C 0.68097 0.30803 0.84035 0.0
C255 C 0.64221 0.21986 0.80257 0.0
C256 C 0.63348 0.29014 0.92096 0.0
O257 O 0.5832 0.25712 0.84836 0.0
O258 O 0.57418 0.3135 0.86156 0.0
C259 C 0.58718 0.36276 0.80204 0.0
N260 N 0.61354 0.36872 0.82623 0.0
C261 C 0.64323 0.41528 0.79304 0.0
C262 C 0.61657 0.40935 0.76761 0.0
C263 C 0.58835 0.38305 0.7722 0.0
C264 C 0.64056 0.39428 0.82228 0.0
H265 H 0.56549 0.34267 0.80551 0.0
C266 C 0.56292 0.28138 0.85506 0.0
O267 O 0.64136 0.21106 0.83495 0.0
O268 O 0.63646 0.25172 0.79629 0.0
N269 N 0.66179 0.37632 0.87484 0.0
C270 C 0.6844 0.37976 0.90254 0.0
C271 C 0.71361 0.40557 0.90252 0.0
C272 C 0.71908 0.42773 0.87417 0.0
C273 C 0.69484 0.42436 0.84643 0.0
C274 C 0.66593 0.39851 0.84816 0.0
H275 H 0.68041 0.36267 0.92432 0.0
O276 O 0.68988 0.2765 0.84329 0.0
O277 O 0.64686 0.31176 0.84239 0.0
O278 O 0.63862 0.26505 0.89958 0.0
O279 O 0.62721 0.32088 0.91207 0.0
C280 C 0.69825 0.44558 0.81712 0.0
C281 C 0.6725 0.441 0.79041 0.0
H282 H 0.61748 0.42486 0.74449 0.0
H283 H 0.56758 0.37839 0.75276 0.0
H284 H 0.73203 0.40818 0.92417 0.0
H285 H 0.74184 0.44737 0.87408 0.0
H286 H 0.7205 0.4656 0.81491 0.0
H287 H 0.67538 0.4575 0.76801 0.0
Mn288 Mn 0.28989 0.85484 0.63897 0.0
Mn289 Mn 0.20445 0.86633 0.61706 0.0
C290 C 0.2456 0.80864 0.6405 0.0
C291 C 0.3328 0.85272 0.68191 0.0
C292 C 0.26474 0.85889 0.565 0.0
O293 O 0.28969 0.90791 0.64051 0.0
O294 O 0.23081 0.91187 0.62968 0.0
C295 C 0.18015 0.88882 0.68655 0.0
N296 N 0.17653 0.86625 0.65876 0.0
C297 C 0.12847 0.83127 0.68671 0.0
C298 C 0.1316 0.85422 0.71555 0.0
C299 C 0.15758 0.88309 0.71547 0.0
C300 C 0.15186 0.83819 0.65872 0.0
H301 H 0.20034 0.91084 0.68679 0.0
C302 C 0.26251 0.92548 0.63698 0.0
O303 O 0.34248 0.85644 0.64972 0.0
O304 O 0.29897 0.85372 0.68893 0.0
N305 N 0.17539 0.82426 0.60471 0.0
C306 C 0.17412 0.80621 0.57385 0.0
C307 C 0.14836 0.77753 0.56891 0.0
C308 C 0.12389 0.76801 0.59557 0.0
C309 C 0.12498 0.78765 0.62669 0.0
C310 C 0.1508 0.81636 0.62984 0.0
H311 H 0.19266 0.81359 0.55315 0.0
O312 O 0.27921 0.80289 0.63876 0.0
O313 O 0.23918 0.84119 0.64092 0.0
O314 O 0.28972 0.85478 0.58644 0.0
O315 O 0.23252 0.86467 0.57343 0.0
C316 C 0.1012 0.78011 0.65455 0.0
C317 C 0.10313 0.80176 0.68466 0.0
H318 H 0.11423 0.84989 0.73791 0.0
H319 H 0.16028 0.90082 0.73771 0.0
H320 H 0.14746 0.76274 0.54467 0.0
H321 H 0.10425 0.7457 0.59178 0.0
H322 H 0.08124 0.7578 0.65305 0.0
H323 H 0.08475 0.79566 0.70594 0.0
Mn324 Mn 0.66922 0.75567 0.13976 0.0
Mn325 Mn 0.64838 0.83583 0.11637 0.0
C326 C 0.67275 0.80011 0.18121 0.0
C327 C 0.71098 0.71396 0.14067 0.0
C328 C 0.59238 0.77695 0.13496 0.0
O329 O 0.66648 0.75144 0.08766 0.0
O330 O 0.65591 0.80613 0.07452 0.0
C331 C 0.71982 0.85766 0.08629 0.0
N332 N 0.69265 0.86375 0.10871 0.0
C333 C 0.72333 0.91861 0.12772 0.0
C334 C 0.75158 0.91302 0.10475 0.0
C335 C 0.7499 0.88231 0.08409 0.0
C336 C 0.69442 0.89275 0.12929 0.0
H337 H 0.71854 0.83417 0.07025 0.0
C338 C 0.66108 0.77467 0.06598 0.0
O339 O 0.67664 0.70509 0.1419 0.0
O340 O 0.72082 0.74718 0.13872 0.0
N341 N 0.63992 0.8692 0.15222 0.0
C342 C 0.60812 0.87315 0.16856 0.0
C343 C 0.60391 0.90358 0.18822 0.0
C344 C 0.63228 0.93016 0.19053 0.0
C345 C 0.66409 0.92652 0.17197 0.0
C346 C 0.6663 0.89584 0.15205 0.0
H347 H 0.58523 0.85449 0.16448 0.0
O348 O 0.67294 0.76762 0.18945 0.0
O349 O 0.67334 0.80624 0.14788 0.0
O350 O 0.61427 0.75445 0.14213 0.0
O351 O 0.60187 0.80794 0.12471 0.0
C352 C 0.69275 0.95303 0.17076 0.0
C353 C 0.72261 0.94885 0.149 0.0
H354 H 0.77466 0.93214 0.10275 0.0
H355 H 0.77163 0.87774 0.06636 0.0
H356 H 0.57817 0.90705 0.20009 0.0
H357 H 0.62858 0.95408 0.20492 0.0
H358 H 0.69189 0.97691 0.18615 0.0
H359 H 0.74453 0.96936 0.14832 0.0
Mn360 Mn 0.73724 0.13909 0.63937 0.0
Mn361 Mn 0.81681 0.12107 0.60487 0.0
C362 C 0.78349 0.18385 0.63363 0.0
C363 C 0.69975 0.14458 0.68722 0.0
C364 C 0.74985 0.12892 0.56238 0.0
O365 O 0.73484 0.08602 0.64117 0.0
O366 O 0.79105 0.07784 0.62302 0.0
C367 C 0.85368 0.10132 0.66823 0.0
N368 N 0.85274 0.12174 0.63993 0.0
C369 C 0.91201 0.1492 0.65186 0.0
C370 C 0.91354 0.12872 0.68132 0.0
C371 C 0.88415 0.10482 0.68965 0.0
C372 C 0.88052 0.14532 0.63211 0.0
H373 H 0.83132 0.08261 0.67442 0.0
C374 C 0.76001 0.06651 0.6344 0.0
O375 O 0.68664 0.13977 0.65623 0.0
O376 O 0.73421 0.14385 0.69058 0.0
N377 N 0.8451 0.16018 0.58627 0.0
C378 C 0.83968 0.17703 0.55634 0.0
C379 C 0.86752 0.19964 0.54272 0.0
C380 C 0.90071 0.20436 0.55981 0.0
C381 C 0.90533 0.18779 0.59124 0.0
C382 C 0.87674 0.16518 0.60331 0.0
H383 H 0.81476 0.17238 0.54224 0.0
O384 O 0.75025 0.19047 0.63682 0.0
O385 O 0.78887 0.15086 0.63411 0.0
O386 O 0.72906 0.13627 0.58717 0.0
O387 O 0.78196 0.12088 0.5666 0.0
C388 C 0.93764 0.19156 0.61025 0.0
C389 C 0.94072 0.17282 0.64093 0.0
H390 H 0.93723 0.13095 0.69759 0.0
H391 H 0.88516 0.08886 0.71228 0.0
H392 H 0.86383 0.21246 0.51849 0.0
H393 H 0.92273 0.21989 0.54786 0.0
H394 H 0.96041 0.20859 0.60144 0.0
H395 H 0.96558 0.17617 0.65546 0.0
Mn396 Mn 0.32847 0.22726 0.15702 0.0
Mn397 Mn 0.36162 0.1508 0.13583 0.0
C398 C 0.32935 0.1858 0.19908 0.0
C399 C 0.27922 0.26051 0.15501 0.0
C400 C 0.40902 0.21745 0.15318 0.0
O401 O 0.33129 0.22832 0.10524 0.0
O402 O 0.35227 0.17658 0.09317 0.0
C403 C 0.29464 0.11904 0.10281 0.0
N404 N 0.32116 0.11766 0.12673 0.0
C405 C 0.29565 0.06153 0.14566 0.0
C406 C 0.26812 0.06231 0.12123 0.0
C407 C 0.26752 0.0913 0.09983 0.0
C408 C 0.32151 0.09033 0.14795 0.0
H409 H 0.29409 0.14115 0.08616 0.0
C410 C 0.34155 0.2056 0.08408 0.0
O411 O 0.31192 0.27524 0.15749 0.0
O412 O 0.27565 0.22665 0.15508 0.0
N413 N 0.37194 0.12118 0.17291 0.0
C414 C 0.4024 0.12267 0.19228 0.0
C415 C 0.40891 0.09432 0.21286 0.0
C416 C 0.38429 0.0644 0.21283 0.0
C417 C 0.35325 0.06323 0.19266 0.0
C418 C 0.34867 0.09193 0.17204 0.0
H419 H 0.42258 0.14437 0.19043 0.0
O420 O 0.32576 0.21831 0.20695 0.0
O421 O 0.33116 0.1781 0.16588 0.0
O422 O 0.38342 0.2368 0.15925 0.0
O423 O 0.40435 0.18468 0.1452 0.0
C424 C 0.32772 0.03386 0.19082 0.0
C425 C 0.2986 0.03324 0.16768 0.0
H426 H 0.24737 0.04078 0.11863 0.0
H427 H 0.24634 0.09216 0.08092 0.0
H428 H 0.43346 0.09505 0.22773 0.0
H429 H 0.39005 0.04178 0.22725 0.0
H430 H 0.33045 0.01147 0.20682 0.0
H431 H 0.27907 0.01058 0.16649 0.0
Mn432 Mn 0.84655 0.64417 0.72279 0.0
Mn433 Mn 0.879 0.62243 0.80002 0.0
C434 C 0.80867 0.63976 0.7707 0.0
C435 C 0.83523 0.68536 0.68224 0.0
C436 C 0.85971 0.5696 0.74288 0.0
O437 O 0.90011 0.65279 0.71513 0.0
O438 O 0.91879 0.63559 0.76686 0.0
C439 C 0.91263 0.69271 0.82045 0.0
N440 N 0.88931 0.66433 0.82728 0.0
C441 C 0.87512 0.68833 0.8833 0.0
C442 C 0.89881 0.71793 0.87676 0.0
C443 C 0.91756 0.72017 0.84512 0.0
C444 C 0.87088 0.66208 0.85745 0.0
H445 H 0.92739 0.6943 0.79645 0.0
C446 C 0.92466 0.64654 0.7361 0.0
O447 O 0.83812 0.65299 0.67307 0.0
O448 O 0.83989 0.69394 0.71472 0.0
N449 N 0.84428 0.60923 0.83494 0.0
C450 C 0.82296 0.57866 0.8374 0.0
C451 C 0.804 0.57137 0.86826 0.0
C452 C 0.80728 0.59557 0.8962 0.0
C453 C 0.82854 0.62722 0.89274 0.0
C454 C 0.84737 0.63272 0.86166 0.0
H455 H 0.82121 0.55958 0.81632 0.0
O456 O 0.79607 0.63688 0.7394 0.0
O457 O 0.8436 0.64507 0.77312 0.0
O458 O 0.85115 0.59144 0.72067 0.0
O459 O 0.86882 0.57785 0.77405 0.0
C460 C 0.83262 0.65304 0.91933 0.0
C461 C 0.85564 0.68377 0.91447 0.0
H462 H 0.90289 0.73903 0.89586 0.0
H463 H 0.93599 0.74287 0.83988 0.0
H464 H 0.78763 0.54681 0.87076 0.0
H465 H 0.79412 0.58938 0.92057 0.0
H466 H 0.81817 0.64954 0.9436 0.0
H467 H 0.8584 0.70356 0.93499 0.0
Mn468 Mn 0.82389 0.37884 0.25572 0.0
Mn469 Mn 0.86783 0.41779 0.18838 0.0
C470 C 0.7938 0.38839 0.20753 0.0
C471 C 0.83335 0.34419 0.30626 0.0
C472 C 0.8551 0.45369 0.25774 0.0
O473 O 0.87602 0.36257 0.25786 0.0
O474 O 0.90421 0.39539 0.21575 0.0
C475 C 0.89719 0.36188 0.14546 0.0
N476 N 0.87509 0.38811 0.1489 0.0
C477 C 0.85958 0.38307 0.08839 0.0
C478 C 0.88132 0.35533 0.08453 0.0
C479 C 0.90025 0.34475 0.11319 0.0
C480 C 0.8572 0.39887 0.12131 0.0
H481 H 0.91255 0.35422 0.16707 0.0
C482 C 0.90416 0.3732 0.24002 0.0
O483 O 0.80893 0.36523 0.3051 0.0
O484 O 0.85688 0.34879 0.28183 0.0
N485 N 0.8353 0.43965 0.15957 0.0
C486 C 0.81595 0.46723 0.16744 0.0
C487 C 0.79714 0.48227 0.14112 0.0
C488 C 0.79842 0.46883 0.10704 0.0
C489 C 0.81765 0.43983 0.09975 0.0
C490 C 0.83624 0.4262 0.12695 0.0
H491 H 0.81526 0.47802 0.1935 0.0
O492 O 0.78319 0.40177 0.23651 0.0
O493 O 0.82824 0.38429 0.20547 0.0
O494 O 0.84469 0.42667 0.27466 0.0
O495 O 0.86243 0.45267 0.22562 0.0
C496 C 0.81952 0.42425 0.06645 0.0
C497 C 0.8403 0.39575 0.06082 0.0
H498 H 0.88395 0.34219 0.05962 0.0
H499 H 0.91749 0.32367 0.11033 0.0
H500 H 0.7819 0.50433 0.14704 0.0
H501 H 0.78399 0.48061 0.08676 0.0
H502 H 0.80518 0.43406 0.04497 0.0
H503 H 0.84156 0.384 0.0351 0.0
Mn504 Mn 0.14759 0.34668 0.76359 0.0
Mn505 Mn 0.12765 0.39684 0.83279 0.0
C506 C 0.18816 0.35533 0.80879 0.0
C507 C 0.14365 0.29214 0.73548 0.0
C508 C 0.1523 0.42584 0.76305 0.0
O509 O 0.09451 0.35151 0.75795 0.0
O510 O 0.08293 0.38031 0.8078 0.0
C511 C 0.08712 0.34209 0.87373 0.0
N512 N 0.11491 0.36747 0.87101 0.0
C513 C 0.13354 0.35886 0.92946 0.0
C514 C 0.10517 0.3326 0.93291 0.0
C515 C 0.08195 0.32407 0.90485 0.0
C516 C 0.13773 0.37547 0.8976 0.0
H517 H 0.06913 0.33555 0.85226 0.0
C518 C 0.07325 0.36527 0.77905 0.0
O519 O 0.14995 0.32086 0.7185 0.0
O520 O 0.13789 0.29537 0.76853 0.0
N521 N 0.16798 0.4148 0.8601 0.0
C522 C 0.19295 0.44182 0.85302 0.0
C523 C 0.21723 0.45468 0.87889 0.0
C524 C 0.21492 0.44024 0.91198 0.0
C525 C 0.18912 0.41243 0.9187 0.0
C526 C 0.16554 0.40084 0.89197 0.0
H527 H 0.1938 0.45396 0.82805 0.0
O528 O 0.19816 0.3445 0.77848 0.0
O529 O 0.15415 0.35998 0.812 0.0
O530 O 0.15843 0.39701 0.74817 0.0
O531 O 0.14075 0.4287 0.79419 0.0
C532 C 0.18509 0.39653 0.95122 0.0
C533 C 0.15765 0.3694 0.95643 0.0
H534 H 0.10094 0.31886 0.95699 0.0
H535 H 0.06002 0.30381 0.90728 0.0
H536 H 0.23702 0.47626 0.87365 0.0
H537 H 0.23228 0.45139 0.93237 0.0
H538 H 0.20274 0.40507 0.97249 0.0
H539 H 0.15499 0.35722 0.98145 0.0
Mn540 Mn 0.16453 0.62308 0.23175 0.0
Mn541 Mn 0.1336 0.5971 0.15273 0.0
C542 C 0.20456 0.62454 0.18602 0.0
C543 C 0.17104 0.66809 0.27302 0.0
C544 C 0.14252 0.54789 0.21207 0.0
O545 O 0.11145 0.62394 0.23594 0.0
O546 O 0.09329 0.61603 0.18035 0.0
C547 C 0.11378 0.66096 0.11874 0.0
N548 N 0.13505 0.63407 0.12016 0.0
C549 C 0.16147 0.64877 0.06468 0.0
C550 C 0.14124 0.67772 0.06366 0.0
C551 C 0.11716 0.68374 0.09075 0.0
C552 C 0.15775 0.6276 0.09379 0.0
H553 H 0.09395 0.66461 0.13844 0.0
C554 C 0.08763 0.62304 0.21263 0.0
O555 O 0.16956 0.6356 0.28193 0.0
O556 O 0.17066 0.67393 0.24008 0.0
N557 N 0.17026 0.57891 0.12463 0.0
C558 C 0.18654 0.54893 0.12876 0.0
C559 C 0.20887 0.53731 0.10243 0.0
C560 C 0.21404 0.55645 0.07205 0.0
C561 C 0.19808 0.58789 0.06883 0.0
C562 C 0.17608 0.59819 0.096 0.0
H563 H 0.18191 0.53345 0.15157 0.0
O564 O 0.21546 0.62354 0.2179 0.0
O565 O 0.16983 0.62363 0.18201 0.0
O566 O 0.1586 0.56986 0.23325 0.0
O567 O 0.13127 0.55608 0.18251 0.0
C568 C 0.20214 0.60877 0.03928 0.0
C569 C 0.18423 0.63944 0.03741 0.0
H570 H 0.14327 0.69494 0.04177 0.0
H571 H 0.10066 0.70543 0.08969 0.0
H572 H 0.22136 0.51318 0.10517 0.0
H573 H 0.22979 0.5463 0.05117 0.0
H574 H 0.21865 0.60133 0.01766 0.0
H575 H 0.18743 0.65517 0.01447 0.0
Mn576 Mn 0.73794 0.84222 0.63902 0.0
Mn577 Mn 0.65441 0.86904 0.63486 0.0
C578 C 0.69961 0.83397 0.6854 0.0
C579 C 0.77589 0.79833 0.62701 0.0
C580 C 0.72218 0.91845 0.6464 0.0
O581 O 0.73143 0.8504 0.58799 0.0
O582 O 0.6735 0.86294 0.587 0.0
C583 C 0.61799 0.80433 0.6033 0.0
N584 N 0.62097 0.82842 0.62985 0.0
C585 C 0.57316 0.79685 0.66147 0.0
C586 C 0.56949 0.77181 0.6344 0.0
C587 C 0.59204 0.77556 0.6052 0.0
C588 C 0.59955 0.82494 0.65813 0.0
H589 H 0.63545 0.80692 0.58094 0.0
C590 C 0.7032 0.85717 0.57209 0.0
O591 O 0.78849 0.83081 0.63124 0.0
O592 O 0.7413 0.79188 0.62951 0.0
N593 N 0.63216 0.8755 0.67912 0.0
C594 C 0.63747 0.90308 0.70187 0.0
C595 C 0.61705 0.90348 0.73252 0.0
C596 C 0.59057 0.87599 0.73895 0.0
C597 C 0.58413 0.84886 0.71422 0.0
C598 C 0.60529 0.85001 0.6841 0.0
H599 H 0.65674 0.92479 0.69637 0.0
O600 O 0.73395 0.8329 0.68942 0.0
O601 O 0.68891 0.83962 0.65421 0.0
O602 O 0.74424 0.89504 0.64839 0.0
O603 O 0.68832 0.91188 0.64095 0.0
C604 C 0.55739 0.82086 0.71813 0.0
C605 C 0.55197 0.79482 0.69181 0.0
H606 H 0.54959 0.74952 0.63582 0.0
H607 H 0.5895 0.75626 0.58427 0.0
H608 H 0.62158 0.92501 0.75104 0.0
H609 H 0.57495 0.87629 0.76268 0.0
H610 H 0.54082 0.81911 0.74127 0.0
H611 H 0.53145 0.77333 0.69518 0.0
Mn612 Mn 0.63321 0.24949 0.14072 0.0
Mn613 Mn 0.61484 0.33198 0.1252 0.0
C614 C 0.67822 0.29492 0.14652 0.0
C615 C 0.63505 0.20498 0.18056 0.0
C616 C 0.62683 0.27786 0.06843 0.0
O617 O 0.57859 0.24628 0.14088 0.0
O618 O 0.56916 0.30306 0.13546 0.0
C619 C 0.58983 0.35098 0.19552 0.0
N620 N 0.6132 0.35686 0.1686 0.0
C621 C 0.64627 0.40405 0.20012 0.0
C622 C 0.62249 0.39858 0.22812 0.0
C623 C 0.59415 0.37192 0.2258 0.0
C624 C 0.64058 0.38237 0.1706 0.0
H625 H 0.56823 0.33029 0.19403 0.0
C626 C 0.55794 0.2709 0.1395 0.0
O627 O 0.63312 0.1979 0.14749 0.0
O628 O 0.63391 0.23738 0.19016 0.0
N629 N 0.65649 0.36294 0.11554 0.0
C630 C 0.67597 0.36582 0.08563 0.0
C631 C 0.7048 0.3918 0.08333 0.0
C632 C 0.71294 0.41468 0.11164 0.0
C633 C 0.69203 0.4118 0.14183 0.0
C634 C 0.66329 0.38579 0.14239 0.0
H635 H 0.66968 0.34835 0.06374 0.0
O636 O 0.68615 0.26287 0.14276 0.0
O637 O 0.64405 0.2991 0.14676 0.0
O638 O 0.63382 0.25298 0.08793 0.0
O639 O 0.61775 0.30752 0.07961 0.0
C640 C 0.69838 0.43391 0.17124 0.0
C641 C 0.6756 0.42992 0.20044 0.0
H642 H 0.62582 0.41458 0.25157 0.0
H643 H 0.57579 0.36742 0.24736 0.0
H644 H 0.72071 0.39417 0.05983 0.0
H645 H 0.73484 0.43477 0.10971 0.0
H646 H 0.72066 0.45406 0.17165 0.0
H647 H 0.68078 0.44698 0.22295 0.0
Mn648 Mn 0.23828 0.14394 0.65834 0.0
Mn649 Mn 0.32647 0.14078 0.63966 0.0
C650 C 0.28087 0.1589 0.70022 0.0
C651 C 0.18871 0.17591 0.66329 0.0
C652 C 0.27523 0.07621 0.65326 0.0
O653 O 0.23843 0.14105 0.60572 0.0
O654 O 0.2983 0.14205 0.59622 0.0
C655 C 0.33866 0.21169 0.61092 0.0
N656 N 0.34691 0.18793 0.63458 0.0
C657 C 0.38989 0.22997 0.66236 0.0
C658 C 0.38202 0.25479 0.63815 0.0
C659 C 0.35626 0.24561 0.61235 0.0
C660 C 0.37144 0.19659 0.65968 0.0
H661 H 0.31863 0.2049 0.59124 0.0
C662 C 0.26573 0.14102 0.58567 0.0
O663 O 0.18463 0.14194 0.66126 0.0
O664 O 0.2208 0.19087 0.65876 0.0
N665 N 0.35726 0.14012 0.67914 0.0
C666 C 0.36369 0.11251 0.69891 0.0
C667 C 0.38866 0.11726 0.72606 0.0
C668 C 0.40774 0.1501 0.73183 0.0
C669 C 0.40236 0.17759 0.70976 0.0
C670 C 0.3771 0.17121 0.68313 0.0
H671 H 0.35035 0.08697 0.69356 0.0
O672 O 0.24781 0.15008 0.70885 0.0
O673 O 0.28801 0.15858 0.66723 0.0
O674 O 0.24737 0.0923 0.65971 0.0
O675 O 0.30624 0.09142 0.64565 0.0
C676 C 0.42129 0.21096 0.71294 0.0
C677 C 0.41502 0.23715 0.68928 0.0
H678 H 0.39546 0.28101 0.63923 0.0
H679 H 0.34988 0.26468 0.59369 0.0
H680 H 0.3934 0.09559 0.74232 0.0
H681 H 0.42693 0.15372 0.75284 0.0
H682 H 0.44075 0.21676 0.73346 0.0
H683 H 0.4296 0.26277 0.69209 0.0
Mn684 Mn 0.364 0.75817 0.13797 0.0
Mn685 Mn 0.38403 0.68328 0.09764 0.0
C686 C 0.32055 0.71081 0.13377 0.0
C687 C 0.36122 0.79635 0.18492 0.0
C688 C 0.37009 0.7494 0.06084 0.0
O689 O 0.41864 0.76296 0.13528 0.0
O690 O 0.42867 0.70869 0.11583 0.0
C691 C 0.41067 0.64321 0.15521 0.0
N692 N 0.38712 0.64582 0.12879 0.0
C693 C 0.36239 0.58624 0.13533 0.0
C694 C 0.38611 0.583 0.16288 0.0
C695 C 0.41023 0.61166 0.17295 0.0
C696 C 0.36356 0.61853 0.11913 0.0
H697 H 0.42963 0.66503 0.16262 0.0
C698 C 0.43949 0.73944 0.12707 0.0
O699 O 0.36316 0.80728 0.15351 0.0
O700 O 0.36371 0.76318 0.18961 0.0
N701 N 0.3431 0.65608 0.07878 0.0
C702 C 0.3221 0.6636 0.05169 0.0
C703 C 0.29751 0.63744 0.03755 0.0
C704 C 0.29504 0.60378 0.05118 0.0
C705 C 0.31613 0.59685 0.07969 0.0
C706 C 0.34044 0.6239 0.09247 0.0
H707 H 0.32467 0.68909 0.04034 0.0
O708 O 0.31165 0.7424 0.13934 0.0
O709 O 0.35488 0.7077 0.13134 0.0
O710 O 0.3611 0.76687 0.08702 0.0
O711 O 0.38121 0.7191 0.06225 0.0
C712 C 0.31475 0.56395 0.09527 0.0
C713 C 0.3377 0.55872 0.12325 0.0
H714 H 0.38609 0.55862 0.17641 0.0
H715 H 0.42869 0.60932 0.19411 0.0
H716 H 0.2812 0.64295 0.01564 0.0
H717 H 0.27757 0.58331 0.03889 0.0
H718 H 0.29617 0.5425 0.08596 0.0
H719 H 0.33624 0.53339 0.13519 0.0
Mn720 Mn 0.73743 0.15777 0.34328 0.0
Mn721 Mn 0.82298 0.15421 0.36999 0.0
C722 C 0.77509 0.20848 0.34875 0.0
C723 C 0.69599 0.15504 0.29813 0.0
C724 C 0.75957 0.14936 0.41883 0.0
O725 O 0.74446 0.10659 0.33721 0.0
O726 O 0.80154 0.10569 0.35591 0.0
C727 C 0.85464 0.13775 0.30161 0.0
N728 N 0.85319 0.15947 0.32978 0.0
C729 C 0.89764 0.20122 0.30497 0.0
C730 C 0.89942 0.17922 0.27563 0.0
C731 C 0.87787 0.14729 0.27399 0.0
C732 C 0.874 0.19021 0.33169 0.0
H733 H 0.83807 0.11351 0.30025 0.0
C734 C 0.77125 0.09037 0.34542 0.0
O735 O 0.68579 0.14826 0.32969 0.0
O736 O 0.73016 0.16218 0.29294 0.0
N737 N 0.84633 0.19849 0.38494 0.0
C738 C 0.843 0.21569 0.41592 0.0
C739 C 0.86356 0.24768 0.42228 0.0
C740 C 0.88752 0.26149 0.39685 0.0
C741 C 0.89138 0.24273 0.36564 0.0
C742 C 0.87061 0.2107 0.36105 0.0
H743 H 0.82454 0.20525 0.43553 0.0
O744 O 0.74046 0.20956 0.34869 0.0
O745 O 0.78639 0.17746 0.34573 0.0
O746 O 0.73526 0.15201 0.39605 0.0
O747 O 0.79324 0.15036 0.41221 0.0
C748 C 0.91514 0.25445 0.339 0.0
C749 C 0.91817 0.23376 0.30862 0.0
H750 H 0.91721 0.18659 0.25423 0.0
H751 H 0.87905 0.13013 0.25145 0.0
H752 H 0.86071 0.26179 0.44661 0.0
H753 H 0.90302 0.28636 0.40167 0.0
H754 H 0.93128 0.27928 0.34164 0.0
H755 H 0.9365 0.24306 0.28828 0.0
Mn756 Mn 0.33711 0.26078 0.87052 0.0
Mn757 Mn 0.36407 0.33314 0.91771 0.0
C758 C 0.29783 0.3036 0.878 0.0
C759 C 0.3392 0.23069 0.81773 0.0
C760 C 0.34149 0.2621 0.94855 0.0
O761 O 0.39073 0.25923 0.87395 0.0
O762 O 0.40692 0.31172 0.89909 0.0
C763 C 0.39799 0.37726 0.86249 0.0
N764 N 0.37288 0.37221 0.88811 0.0
C765 C 0.35368 0.42963 0.88081 0.0
C766 C 0.37901 0.43531 0.85411 0.0
C767 C 0.40114 0.40892 0.8448 0.0
C768 C 0.35101 0.39714 0.89681 0.0
H769 H 0.41536 0.35723 0.85546 0.0
C770 C 0.41421 0.28321 0.88406 0.0
O771 O 0.33359 0.21447 0.84668 0.0
O772 O 0.34142 0.26459 0.81961 0.0
N773 N 0.32576 0.35744 0.93682 0.0
C774 C 0.30435 0.3487 0.96454 0.0
C775 C 0.28177 0.37291 0.97824 0.0
C776 C 0.28234 0.40627 0.96406 0.0
C777 C 0.30485 0.41491 0.93577 0.0
C778 C 0.32641 0.38953 0.92292 0.0
H779 H 0.30505 0.32372 0.97657 0.0
O780 O 0.28632 0.27182 0.86872 0.0
O781 O 0.33249 0.30932 0.88236 0.0
O782 O 0.3312 0.24628 0.92057 0.0
O783 O 0.35519 0.29391 0.95039 0.0
C784 C 0.30785 0.44817 0.92069 0.0
C785 C 0.33167 0.45527 0.89277 0.0
H786 H 0.38192 0.45994 0.84082 0.0
H787 H 0.42086 0.41312 0.82431 0.0
H788 H 0.26469 0.3662 0.00029 0.0
H789 H 0.26598 0.42531 0.97564 0.0
H790 H 0.29244 0.46876 0.93064 0.0
H791 H 0.33352 0.48084 0.88129 0.0
Mn792 Mn 0.2623 0.84556 0.34538 0.0
Mn793 Mn 0.17817 0.83607 0.37882 0.0
C794 C 0.22847 0.79254 0.34017 0.0
C795 C 0.30164 0.85945 0.29992 0.0
C796 C 0.24629 0.84027 0.42187 0.0
O797 O 0.25007 0.8955 0.35347 0.0
O798 O 0.19187 0.88637 0.37046 0.0
C799 C 0.13745 0.85694 0.31831 0.0
N800 N 0.14383 0.83258 0.34204 0.0
C801 C 0.09712 0.79184 0.31812 0.0
C802 C 0.08994 0.81654 0.29353 0.0
C803 C 0.11028 0.84919 0.29356 0.0
C804 C 0.12462 0.801 0.34206 0.0
H805 H 0.15306 0.88204 0.31821 0.0
C806 C 0.22001 0.90632 0.36267 0.0
O807 O 0.31259 0.8606 0.33176 0.0
O808 O 0.26732 0.85227 0.29503 0.0
N809 N 0.16139 0.78849 0.38775 0.0
C810 C 0.17133 0.76774 0.41346 0.0
C811 C 0.15425 0.73381 0.41645 0.0
C812 C 0.12652 0.72185 0.39348 0.0
C813 C 0.11579 0.74414 0.36803 0.0
C814 C 0.13388 0.77766 0.36628 0.0
H815 H 0.19196 0.7771 0.43163 0.0
O816 O 0.2632 0.79425 0.33712 0.0
O817 O 0.21475 0.82197 0.34631 0.0
O818 O 0.26865 0.84064 0.39696 0.0
O819 O 0.21214 0.839 0.4183 0.0
C820 C 0.08782 0.73444 0.34438 0.0
C821 C 0.07843 0.7583 0.31949 0.0
H822 H 0.06905 0.81064 0.27436 0.0
H823 H 0.10502 0.86833 0.27455 0.0
H824 H 0.16235 0.71697 0.4365 0.0
H825 H 0.11346 0.69564 0.39581 0.0
H826 H 0.07342 0.70866 0.34504 0.0
H827 H 0.05706 0.75045 0.30129 0.0
Mn828 Mn 0.64964 0.73022 0.84842 0.0
Mn829 Mn 0.63361 0.65114 0.88468 0.0
C830 C 0.69406 0.69188 0.84506 0.0
C831 C 0.64216 0.7663 0.80184 0.0
C832 C 0.65381 0.7187 0.92592 0.0
O833 O 0.59609 0.72632 0.85672 0.0
O834 O 0.58749 0.67144 0.87596 0.0
C835 C 0.59656 0.61405 0.82499 0.0
N836 N 0.62352 0.61647 0.84884 0.0
C837 C 0.64448 0.5624 0.82803 0.0
C838 C 0.61701 0.55933 0.80323 0.0
C839 C 0.59306 0.58538 0.8016 0.0
C840 C 0.64713 0.59197 0.85014 0.0
H841 H 0.57793 0.63388 0.82371 0.0
C842 C 0.57588 0.69996 0.86639 0.0
O843 O 0.64764 0.77888 0.83305 0.0
O844 O 0.64185 0.7326 0.79786 0.0
N845 N 0.67476 0.6268 0.89439 0.0
C846 C 0.69716 0.63162 0.92213 0.0
C847 C 0.72101 0.60654 0.92916 0.0
C848 C 0.72102 0.57627 0.90805 0.0
C849 C 0.69756 0.57154 0.87989 0.0
C850 C 0.67399 0.5972 0.87451 0.0
H851 H 0.69541 0.65336 0.93991 0.0
O852 O 0.70117 0.72514 0.84035 0.0
O853 O 0.66021 0.68163 0.85099 0.0
O854 O 0.65834 0.73864 0.90008 0.0
O855 O 0.64415 0.68583 0.92345 0.0
C856 C 0.69541 0.54149 0.85806 0.0
C857 C 0.66916 0.53717 0.83182 0.0
H858 H 0.614 0.53705 0.7854 0.0
H859 H 0.57179 0.58325 0.78252 0.0
H860 H 0.73848 0.60998 0.95149 0.0
H861 H 0.73831 0.55621 0.91436 0.0
H862 H 0.71354 0.52138 0.86147 0.0
H863 H 0.66773 0.51408 0.8151 0.0
C864 C 0.10147 0.49279 0.21843 0.0
C865 C 0.1366 0.51058 0.22155 0.0
C866 C 0.16074 0.456 0.23832 0.0
C867 C 0.12652 0.43785 0.23209 0.0
N868 N 0.06295 0.43853 0.22235 0.0
N869 N 0.2007 0.50802 0.22823 0.0
C870 C 0.09648 0.45623 0.22397 0.0
C871 C 0.16645 0.49208 0.2305 0.0
N872 N 0.07318 0.51054 0.20849 0.0
N873 N 0.18787 0.43878 0.25152 0.0
H874 H 0.20661 0.53385 0.22093 0.0
H875 H 0.22369 0.49479 0.23017 0.0
H876 H 0.1851 0.41222 0.25683 0.0
H877 H 0.21213 0.45136 0.26031 0.0
H878 H 0.04798 0.49886 0.20146 0.0
H879 H 0.07477 0.53746 0.20559 0.0
H880 H 0.03901 0.45019 0.22062 0.0
H881 H 0.0585 0.41156 0.22492 0.0
C882 C 0.97556 0.61997 0.70696 0.0
C883 C 0.96223 0.64924 0.72395 0.0
C884 C 0.02305 0.67384 0.73795 0.0
C885 C 0.03561 0.64161 0.72697 0.0
N886 N 0.02768 0.58838 0.69292 0.0
N887 N 0.97216 0.70911 0.74299 0.0
C888 C 0.01305 0.61619 0.70834 0.0
C889 C 0.98578 0.67802 0.73531 0.0
N890 N 0.95214 0.59599 0.69007 0.0
N891 N 0.04668 0.69967 0.7518 0.0
H892 H 0.945 0.71247 0.73939 0.0
H893 H 0.98764 0.732 0.75018 0.0
H894 H 0.07438 0.69773 0.75224 0.0
H895 H 0.03915 0.72265 0.76334 0.0
H896 H 0.95942 0.57359 0.67724 0.0
H897 H 0.92476 0.59908 0.68814 0.0
H898 H 0.01311 0.56762 0.68016 0.0
H899 H 0.05541 0.58689 0.69191 0.0
C900 C 0.89373 0.50745 0.2736 0.0
C901 C 0.85944 0.48869 0.27506 0.0
C902 C 0.8331 0.54266 0.29355 0.0
C903 C 0.86666 0.56201 0.2872 0.0
N904 N 0.92655 0.5629 0.26315 0.0
N905 N 0.79548 0.48818 0.28443 0.0
C906 C 0.89653 0.54439 0.27561 0.0
C907 C 0.82883 0.50608 0.28508 0.0
N908 N 0.9237 0.48986 0.26933 0.0
N909 N 0.80533 0.5593 0.30738 0.0
H910 H 0.79145 0.46135 0.27932 0.0
H911 H 0.77165 0.50011 0.28714 0.0
H912 H 0.80711 0.58623 0.31223 0.0
H913 H 0.78142 0.54623 0.31609 0.0
H914 H 0.94979 0.50186 0.27174 0.0
H915 H 0.92236 0.46272 0.2666 0.0
H916 H 0.94761 0.55146 0.25085 0.0
H917 H 0.92846 0.58986 0.26138 0.0
C918 C 0.0181 0.39459 0.76511 0.0
C919 C 0.0349 0.36334 0.77002 0.0
C920 C 0.97997 0.32797 0.75237 0.0
C921 C 0.96395 0.35921 0.74567 0.0
N922 N 0.96233 0.42091 0.75661 0.0
N923 N 0.03 0.30089 0.77697 0.0
C924 C 0.98143 0.3922 0.75532 0.0
C925 C 0.0153 0.33011 0.7661 0.0
N926 N 0.03743 0.42648 0.76853 0.0
N927 N 0.9614 0.29634 0.74543 0.0
H928 H 0.05553 0.30171 0.78797 0.0
H929 H 0.01609 0.27619 0.77781 0.0
H930 H 0.934 0.29396 0.74032 0.0
H931 H 0.97295 0.27268 0.74451 0.0
H932 H 0.02788 0.44978 0.761 0.0
H933 H 0.0641 0.4297 0.77665 0.0
H934 H 0.97242 0.44526 0.76654 0.0
H935 H 0.93489 0.41941 0.75114 0.0
C936 C 0.12209 0.46598 0.72622 0.0
C937 C 0.15402 0.45754 0.74216 0.0
C938 C 0.18012 0.51763 0.73594 0.0
C939 C 0.14499 0.52752 0.72988 0.0
N940 N 0.08316 0.51145 0.71483 0.0
N941 N 0.21589 0.47268 0.75656 0.0
C942 C 0.11629 0.50166 0.72285 0.0
C943 C 0.1841 0.48251 0.74469 0.0
N944 N 0.09745 0.43985 0.7148 0.0
N945 N 0.2093 0.54166 0.7338 0.0
H946 H 0.21989 0.44643 0.75944 0.0
H947 H 0.23768 0.49017 0.76379 0.0
H948 H 0.20741 0.56746 0.72692 0.0
H949 H 0.23575 0.53542 0.73576 0.0
H950 H 0.07474 0.44422 0.70057 0.0
H951 H 0.1016 0.4135 0.71705 0.0
H952 H 0.06001 0.49416 0.71346 0.0
H953 H 0.07892 0.53747 0.71076 0.0
C954 C 0.0028 0.6695 0.22558 0.0
C955 C 0.98597 0.64965 0.2527 0.0
C956 C 0.03432 0.61076 0.25111 0.0
C957 C 0.05183 0.63139 0.22486 0.0
N958 N 0.05923 0.68722 0.19726 0.0
N959 N 0.99027 0.6066 0.29711 0.0
C960 C 0.03782 0.66259 0.21459 0.0
C961 C 0.00311 0.62193 0.26731 0.0
N962 N 0.9859 0.69561 0.211 0.0
N963 N 0.04726 0.58016 0.26045 0.0
H964 H 0.96644 0.6121 0.30928 0.0
H965 H 0.00459 0.58982 0.31131 0.0
H966 H 0.07168 0.57222 0.25169 0.0
H967 H 0.03268 0.56152 0.27537 0.0
H968 H 0.99519 0.70801 0.18852 0.0
H969 H 0.96158 0.70363 0.22022 0.0
H970 H 0.05154 0.7119 0.19183 0.0
H971 H 0.08636 0.6847 0.19236 0.0
C972 C 0.89576 0.51933 0.7286 0.0
C973 C 0.86163 0.53289 0.73122 0.0
C974 C 0.83181 0.47564 0.71393 0.0
C975 C 0.86604 0.46269 0.71011 0.0
N976 N 0.9304 0.47403 0.7049 0.0
N977 N 0.79755 0.52603 0.72136 0.0
C978 C 0.89797 0.48513 0.7146 0.0
C979 C 0.82973 0.5117 0.72218 0.0
N980 N 0.92606 0.53871 0.74022 0.0
N981 N 0.80134 0.45328 0.71008 0.0
H982 H 0.79476 0.55198 0.72845 0.0
H983 H 0.77398 0.51302 0.71152 0.0
H984 H 0.80186 0.42738 0.70143 0.0
H985 H 0.77572 0.45978 0.71684 0.0
H986 H 0.95077 0.52852 0.74296 0.0
H987 H 0.92627 0.56445 0.74936 0.0
H988 H 0.95415 0.49049 0.70406 0.0
H989 H 0.93315 0.44907 0.69462 0.0
C990 C 0.9454 0.32532 0.23329 0.0
C991 C 0.93831 0.3583 0.24776 0.0
C992 C 0.00057 0.36903 0.2674 0.0
C993 C 0.0086 0.33786 0.24949 0.0
N994 N 0.987 0.28027 0.22935 0.0
N995 N 0.95416 0.40405 0.28982 0.0
C996 C 0.9804 0.31403 0.23666 0.0
C997 C 0.9644 0.37784 0.26848 0.0
N998 N 0.91896 0.30525 0.21581 0.0
N999 N 0.02749 0.39078 0.28227 0.0
H1000 H 0.92735 0.40945 0.29218 0.0
H1001 H 0.97111 0.41775 0.30775 0.0
H1002 H 0.05408 0.38474 0.28337 0.0
H1003 H 0.02398 0.41581 0.29184 0.0
H1004 H 0.92352 0.28284 0.20136 0.0
H1005 H 0.89256 0.312 0.21445 0.0
H1006 H 0.96719 0.26063 0.22213 0.0
H1007 H 0.01185 0.27119 0.23471 0.0
C1008 C 0.2471 0.16411 0.52868 0.0
C1009 C 0.25983 0.13671 0.54789 0.0
C1010 C 0.26228 0.10079 0.49486 0.0
C1011 C 0.25407 0.12967 0.475 0.0
N1012 N 0.245 0.19102 0.47267 0.0
N1013 N 0.28514 0.08087 0.54844 0.0
C1014 C 0.24768 0.16188 0.49179 0.0
C1015 C 0.26898 0.1056 0.53077 0.0
N1016 N 0.23536 0.19264 0.54558 0.0
N1017 N 0.26302 0.06838 0.47955 0.0
H1018 H 0.28968 0.08228 0.57503 0.0
H1019 H 0.29658 0.06003 0.53629 0.0
H1020 H 0.25914 0.06359 0.45314 0.0
H1021 H 0.26422 0.04562 0.49349 0.0
H1022 H 0.22208 0.2115 0.53317 0.0
H1023 H 0.2366 0.19627 0.57242 0.0
H1024 H 0.24412 0.216 0.48354 0.0
H1025 H 0.24722 0.19095 0.44576 0.0
C1026 C 0.3261 0.75769 0.97634 0.0
C1027 C 0.35713 0.75619 0.95553 0.0
C1028 C 0.39616 0.76954 0.00503 0.0
C1029 C 0.36552 0.76359 0.02645 0.0
N1030 N 0.30163 0.7658 0.03409 0.0
N1031 N 0.41942 0.77531 0.94631 0.0
C1032 C 0.33039 0.7627 0.01258 0.0
C1033 C 0.39159 0.76728 0.96868 0.0
N1034 N 0.293 0.75337 0.96122 0.0
N1035 N 0.42934 0.77577 0.01979 0.0
H1036 H 0.41588 0.77418 0.91949 0.0
H1037 H 0.44506 0.78529 0.95403 0.0
H1038 H 0.4324 0.77992 0.04649 0.0
H1039 H 0.45343 0.7766 0.006 0.0
H1040 H 0.26874 0.75069 0.97468 0.0
H1041 H 0.2902 0.7527 0.93436 0.0
H1042 H 0.27522 0.76594 0.02575 0.0
H1043 H 0.30452 0.77098 0.06057 0.0
C1044 C 0.72097 0.89434 0.48349 0.0
C1045 C 0.7152 0.86409 0.46199 0.0
C1046 C 0.70451 0.82816 0.51329 0.0
C1047 C 0.70534 0.85925 0.53407 0.0
N1048 N 0.70757 0.92226 0.53811 0.0
N1049 N 0.7003 0.8019 0.45537 0.0
C1050 C 0.71138 0.89248 0.5189 0.0
C1051 C 0.70677 0.83077 0.47658 0.0
N1052 N 0.73772 0.9243 0.47043 0.0
N1053 N 0.70185 0.79632 0.52866 0.0
H1054 H 0.70347 0.80274 0.42852 0.0
H1055 H 0.69005 0.77753 0.46408 0.0
H1056 H 0.69855 0.79345 0.55534 0.0
H1057 H 0.70502 0.7729 0.51535 0.0
H1058 H 0.74529 0.94653 0.48562 0.0
H1059 H 0.74821 0.9251 0.44532 0.0
H1060 H 0.70859 0.94696 0.52733 0.0
H1061 H 0.70015 0.92198 0.56419 0.0
C1062 C 0.59656 0.27457 0.01154 0.0
C1063 C 0.62843 0.27253 0.0304 0.0
C1064 C 0.66321 0.27465 0.9762 0.0
C1065 C 0.63192 0.28282 0.9584 0.0
N1066 N 0.56943 0.29545 0.9606 0.0
N1067 N 0.69254 0.26935 0.03161 0.0
C1068 C 0.59874 0.28414 0.97645 0.0
C1069 C 0.66192 0.27166 0.01295 0.0
N1070 N 0.56411 0.26594 0.02704 0.0
N1071 N 0.69416 0.27038 0.95812 0.0
H1072 H 0.69209 0.26437 0.05802 0.0
H1073 H 0.71837 0.27338 0.02132 0.0
H1074 H 0.6968 0.27461 0.93162 0.0
H1075 H 0.71668 0.26082 0.9689 0.0
H1076 H 0.53974 0.26401 0.01378 0.0
H1077 H 0.56233 0.25632 0.05211 0.0
H1078 H 0.56899 0.30201 0.93462 0.0
H1079 H 0.54614 0.30066 0.97402 0.0
C1080 C 0.26292 0.81483 0.47772 0.0
C1081 C 0.26097 0.8445 0.45705 0.0
C1082 C 0.27579 0.88367 0.50665 0.0
C1083 C 0.2724 0.85418 0.52796 0.0
N1084 N 0.27615 0.79245 0.53407 0.0
N1085 N 0.27684 0.90597 0.4483 0.0
C1086 C 0.27038 0.81985 0.51353 0.0
C1087 C 0.27119 0.87869 0.47039 0.0
N1088 N 0.25722 0.78211 0.46303 0.0
N1089 N 0.28309 0.91616 0.52146 0.0
H1090 H 0.27418 0.90284 0.42152 0.0
H1091 H 0.2863 0.93128 0.45593 0.0
H1092 H 0.29071 0.91951 0.54739 0.0
H1093 H 0.28187 0.93946 0.50852 0.0
H1094 H 0.25396 0.75917 0.47694 0.0
H1095 H 0.25516 0.77806 0.43631 0.0
H1096 H 0.27689 0.76678 0.52511 0.0
H1097 H 0.28352 0.79597 0.56 0.0
C1098 C 0.62849 0.76522 0.00927 0.0
C1099 C 0.66053 0.76433 0.02881 0.0
C1100 C 0.68902 0.73499 0.98025 0.0
C1101 C 0.65691 0.73553 0.96085 0.0
N1102 N 0.59942 0.75834 0.95322 0.0
N1103 N 0.72366 0.75618 0.03077 0.0
C1104 C 0.62768 0.75292 0.97424 0.0
C1105 C 0.69151 0.75136 0.01368 0.0
N1106 N 0.59829 0.77636 0.02456 0.0
N1107 N 0.71718 0.7189 0.96659 0.0
H1108 H 0.72654 0.76901 0.05487 0.0
H1109 H 0.7481 0.75035 0.02009 0.0
H1110 H 0.71733 0.70966 0.94108 0.0
H1111 H 0.73957 0.7134 0.98069 0.0
H1112 H 0.57289 0.77307 0.01331 0.0
H1113 H 0.5978 0.78682 0.04968 0.0
H1114 H 0.57929 0.77425 0.96011 0.0
H1115 H 0.59747 0.74927 0.92759 0.0
C1116 C 0.73248 0.16476 0.51235 0.0
C1117 C 0.738 0.1317 0.52614 0.0
C1118 C 0.75315 0.10932 0.46905 0.0
C1119 C 0.74839 0.14238 0.45489 0.0
N1120 N 0.72502 0.19878 0.46109 0.0
N1121 N 0.73728 0.06998 0.51586 0.0
C1122 C 0.73479 0.16909 0.47584 0.0
C1123 C 0.74277 0.10308 0.50371 0.0
N1124 N 0.72727 0.19248 0.53403 0.0
N1125 N 0.76913 0.08442 0.45021 0.0
H1126 H 0.72739 0.06546 0.54086 0.0
H1127 H 0.73802 0.04763 0.50009 0.0
H1128 H 0.77794 0.08792 0.42478 0.0
H1129 H 0.77619 0.06131 0.46081 0.0
H1130 H 0.72833 0.21821 0.52591 0.0
H1131 H 0.72322 0.19006 0.56059 0.0
H1132 H 0.71171 0.21761 0.47454 0.0
H1133 H 0.72765 0.20338 0.43466 0.0
C1134 C 0.30712 0.22277 0.03315 0.0
C1135 C 0.34002 0.21348 0.04694 0.0
C1136 C 0.36988 0.22598 0.99152 0.0
C1137 C 0.33925 0.24178 0.98056 0.0
N1138 N 0.27747 0.25319 0.98881 0.0
N1139 N 0.40384 0.20819 0.04006 0.0
C1140 C 0.30735 0.23936 0.00068 0.0
C1141 C 0.37167 0.21507 0.02623 0.0
N1142 N 0.27563 0.21477 0.05074 0.0
N1143 N 0.39676 0.22052 0.96843 0.0
H1144 H 0.40668 0.20005 0.06535 0.0
H1145 H 0.42833 0.21327 0.02724 0.0
H1146 H 0.39535 0.227 0.94241 0.0
H1147 H 0.41834 0.20624 0.97407 0.0
H1148 H 0.25034 0.21818 0.04087 0.0
H1149 H 0.27448 0.20159 0.0741 0.0
H1150 H 0.25482 0.25659 0.00393 0.0
H1151 H 0.27603 0.2624 0.96378 0.0
C1152 C 0.49375 0.2679 0.11863 0.0
C1153 C 0.51885 0.26183 0.14484 0.0
C1154 C 0.47131 0.22944 0.17822 0.0
C1155 C 0.44624 0.23479 0.15181 0.0
N1156 N 0.43145 0.26547 0.10061 0.0
N1157 N 0.52949 0.24695 0.20387 0.0
C1158 C 0.45679 0.25614 0.12324 0.0
C1159 C 0.50703 0.24548 0.17591 0.0
N1160 N 0.50537 0.28366 0.0887 0.0
N1161 N 0.46105 0.20891 0.20552 0.0
H1162 H 0.55545 0.25959 0.20341 0.0
H1163 H 0.52139 0.23878 0.22846 0.0
H1164 H 0.47899 0.20007 0.22314 0.0
H1165 H 0.4345 0.19929 0.20946 0.0
H1166 H 0.48966 0.28415 0.06656 0.0
H1167 H 0.53151 0.29491 0.08516 0.0
H1168 H 0.43662 0.2842 0.08175 0.0
H1169 H 0.40435 0.25638 0.10203 0.0
C1170 C 0.51958 0.70536 0.83275 0.0
C1171 C 0.5366 0.70202 0.86523 0.0
C1172 C 0.47914 0.70531 0.89545 0.0
C1173 C 0.4618 0.70696 0.86289 0.0
N1174 N 0.46375 0.70362 0.8005 0.0
N1175 N 0.53278 0.6947 0.92714 0.0
C1176 C 0.48158 0.70604 0.83148 0.0
C1177 C 0.51642 0.70076 0.89648 0.0
N1178 N 0.53974 0.70726 0.80304 0.0
N1179 N 0.46008 0.70919 0.92547 0.0
H1180 H 0.56036 0.69311 0.9295 0.0
H1181 H 0.51889 0.68903 0.95007 0.0
H1182 H 0.43249 0.71135 0.92602 0.0
H1183 H 0.47177 0.71287 0.94984 0.0
H1184 H 0.53007 0.71451 0.77929 0.0
H1185 H 0.56687 0.70287 0.80226 0.0
H1186 H 0.47592 0.69899 0.77673 0.0
H1187 H 0.43591 0.70373 0.79853 0.0
C1188 C 0.73774 0.00275 0.38313 0.0
C1189 C 0.75172 0.97869 0.35941 0.0
C1190 C 0.7807 0.02803 0.32671 0.0
C1191 C 0.76422 0.05177 0.34909 0.0
N1192 N 0.7187 0.06016 0.39294 0.0
N1193 N 0.78244 0.96833 0.30527 0.0
C1194 C 0.74038 0.03871 0.37563 0.0
C1195 C 0.77268 0.99123 0.33054 0.0
N1196 N 0.72217 0.99135 0.41344 0.0
N1197 N 0.80251 0.04067 0.30057 0.0
H1198 H 0.77708 0.94134 0.30652 0.0
H1199 H 0.79376 0.97601 0.28164 0.0
H1200 H 0.80318 0.0665 0.293 0.0
H1201 H 0.81982 0.02573 0.28667 0.0
H1202 H 0.71604 0.00818 0.43377 0.0
H1203 H 0.71831 0.96508 0.41963 0.0
H1204 H 0.69743 0.05085 0.4088 0.0
H1205 H 0.71991 0.087 0.38994 0.0
C1206 C 0.46364 0.28318 0.84019 0.0
C1207 C 0.45187 0.27893 0.8751 0.0
C1208 C 0.51052 0.26145 0.89113 0.0
C1209 C 0.52402 0.27209 0.85845 0.0
N1210 N 0.5142 0.28853 0.79997 0.0
N1211 N 0.46506 0.26824 0.93487 0.0
C1212 C 0.50064 0.28126 0.83221 0.0
C1213 C 0.47546 0.26894 0.90088 0.0
N1214 N 0.43957 0.28949 0.81501 0.0
N1215 N 0.53112 0.24382 0.91256 0.0
H1216 H 0.43999 0.27511 0.94319 0.0
H1217 H 0.4825 0.26422 0.95507 0.0
H1218 H 0.55698 0.23783 0.90579 0.0
H1219 H 0.52137 0.23254 0.93544 0.0
H1220 H 0.44549 0.28945 0.78865 0.0
H1221 H 0.41281 0.29342 0.82032 0.0
H1222 H 0.49998 0.29925 0.78039 0.0
H1223 H 0.54053 0.28415 0.79308 0.0
C1224 C 0.21329 0.96169 0.39684 0.0
C1225 C 0.21738 0.94438 0.36422 0.0
C1226 C 0.22139 0.00047 0.33514 0.0
C1227 C 0.22349 0.01758 0.36793 0.0
N1228 N 0.20691 0.01671 0.42787 0.0
N1229 N 0.22301 0.94624 0.30194 0.0
C1230 C 0.21505 -0.00119 0.3983 0.0
C1231 C 0.22041 0.96347 0.33315 0.0
N1232 N 0.2096 0.94281 0.42645 0.0
N1233 N 0.21806 0.01969 0.30625 0.0
H1234 H 0.21985 0.91903 0.29927 0.0
H1235 H 0.22974 0.95872 0.27885 0.0
H1236 H 0.21481 0.04635 0.30803 0.0
H1237 H 0.21413 0.00901 0.28139 0.0
H1238 H 0.21079 0.95393 0.45131 0.0
H1239 H 0.20717 0.91557 0.42646 0.0
H1240 H 0.19812 0.00496 0.45078 0.0
H1241 H 0.20535 0.04371 0.42816 0.0
C1242 C 0.53068 0.7751 0.16204 0.0
C1243 C 0.55359 0.76525 0.13474 0.0
C1244 C 0.50145 0.74081 0.1015 0.0
C1245 C 0.47874 0.74803 0.12997 0.0
N1246 N 0.47322 0.76321 0.1907 0.0
N1247 N 0.5614 0.7304 0.08275 0.0
C1248 C 0.49373 0.76273 0.16126 0.0
C1249 C 0.53919 0.74535 0.10588 0.0
N1250 N 0.54401 0.79634 0.18862 0.0
N1251 N 0.48722 0.73139 0.06971 0.0
H1252 H 0.58934 0.73313 0.08481 0.0
H1253 H 0.55196 0.71266 0.06331 0.0
H1254 H 0.45973 0.7287 0.06468 0.0
H1255 H 0.50287 0.72976 0.04738 0.0
H1256 H 0.52783 0.80751 0.20712 0.0
H1257 H 0.57108 0.80495 0.19054 0.0
H1258 H 0.48373 0.77063 0.21499 0.0
H1259 H 0.44653 0.75256 0.19163 0.0
C1260 C 0.75406 0.96848 0.61538 0.0
C1261 C 0.73719 0.95552 0.64602 0.0
C1262 C 0.74187 0.01493 0.67165 0.0
C1263 C 0.7531 0.02826 0.63893 0.0
N1264 N 0.76692 0.01776 0.57839 0.0
N1265 N 0.71853 0.9649 0.7049 0.0
C1266 C 0.75882 0.00505 0.61057 0.0
C1267 C 0.73205 0.97838 0.67465 0.0
N1268 N 0.76621 0.94591 0.59101 0.0
N1269 N 0.74237 0.03695 0.70007 0.0
H1270 H 0.7159 0.93811 0.70908 0.0
H1271 H 0.70947 0.97987 0.72541 0.0
H1272 H 0.75066 0.06358 0.69902 0.0
H1273 H 0.73741 0.02867 0.72525 0.0
H1274 H 0.78255 0.95402 0.57022 0.0
H1275 H 0.76271 0.91882 0.59296 0.0
H1276 H 0.76633 0.00207 0.55597 0.0
H1277 H 0.77134 0.04427 0.57329 0.0
C1278 C 0.28396 0.01682 0.6768 0.0
C1279 C 0.27034 0.03747 0.65075 0.0
C1280 C 0.25466 0.98498 0.61489 0.0
C1281 C 0.26699 0.96404 0.64141 0.0
N1282 N 0.28622 0.95913 0.70056 0.0
N1283 N 0.23365 0.04018 0.59966 0.0
C1284 C 0.28 0.97969 0.67316 0.0
C1285 C 0.25292 0.02125 0.62123 0.0
N1286 N 0.29974 0.03272 0.70552 0.0
N1287 N 0.24568 0.97049 0.58306 0.0
H1288 H 0.23173 0.06694 0.60289 0.0
H1289 H 0.21692 0.02883 0.58018 0.0
H1290 H 0.24579 0.94391 0.57722 0.0
H1291 H 0.24114 0.98525 0.56148 0.0
H1292 H 0.31472 0.02004 0.72317 0.0
H1293 H 0.29856 0.0592 0.71105 0.0
H1294 H 0.2922 0.96888 0.72545 0.0
H1295 H 0.28242 0.93191 0.6994 0.0
C1296 C 0.16071 0.26864 0.35781 0.0
C1297 C 0.13163 0.26311 0.33409 0.0
C1298 C 0.13508 0.20002 0.33524 0.0
C1299 C 0.16545 0.20521 0.35757 0.0
N1300 N 0.19712 0.24279 0.4004 0.0
N1301 N 0.0814 0.22401 0.315 0.0
C1302 C 0.17503 0.23906 0.37222 0.0
C1303 C 0.1153 0.22882 0.32838 0.0
N1304 N 0.17582 0.30157 0.36562 0.0
N1305 N 0.12685 0.16898 0.31773 0.0
H1306 H 0.0665 0.2451 0.31014 0.0
H1307 H 0.06704 0.19948 0.31258 0.0
H1308 H 0.14198 0.14764 0.31887 0.0
H1309 H 0.10699 0.16575 0.29875 0.0
H1310 H 0.20043 0.30642 0.37826 0.0
H1311 H 0.1642 0.32412 0.35927 0.0
H1312 H 0.20267 0.26638 0.41405 0.0
H1313 H 0.20642 0.22139 0.4125 0.0
C1314 C 0.27041 0.64757 0.8198 0.0
C1315 C 0.26979 0.67768 0.84185 0.0
C1316 C 0.20422 0.67382 0.83617 0.0
C1317 C 0.20522 0.64297 0.81523 0.0
N1318 N 0.23764 0.59367 0.79998 0.0
N1319 N 0.23445 0.71148 0.88016 0.0
C1320 C 0.23775 0.62695 0.81297 0.0
C1321 C 0.23602 0.68767 0.8536 0.0
N1322 N 0.30061 0.64089 0.80165 0.0
N1323 N 0.1748 0.6924 0.83629 0.0
H1324 H 0.25747 0.72196 0.89313 0.0
H1325 H 0.21024 0.71764 0.89131 0.0
H1326 H 0.15173 0.68466 0.82218 0.0
H1327 H 0.17455 0.717 0.84825 0.0
H1328 H 0.30079 0.62069 0.78313 0.0
H1329 H 0.32428 0.65745 0.80207 0.0
H1330 H 0.2607 0.58028 0.79882 0.0
H1331 H 0.21367 0.57897 0.79343 0.0
C1332 C 0.80565 0.7234 0.33975 0.0
C1333 C 0.83585 0.7265 0.31735 0.0
C1334 C 0.83698 0.79048 0.32136 0.0
C1335 C 0.80817 0.78723 0.34571 0.0
N1336 N 0.77301 0.75079 0.3857 0.0
N1337 N 0.88461 0.76338 0.29158 0.0
C1338 C 0.79518 0.75367 0.35744 0.0
C1339 C 0.85334 0.76011 0.31032 0.0
N1340 N 0.78614 0.69182 0.3433 0.0
N1341 N 0.84649 0.82164 0.30579 0.0
H1342 H 0.89614 0.7425 0.27972 0.0
H1343 H 0.90077 0.7869 0.29005 0.0
H1344 H 0.83473 0.84464 0.31123 0.0
H1345 H 0.8639 0.82408 0.28462 0.0
H1346 H 0.76171 0.68889 0.35657 0.0
H1347 H 0.79318 0.66893 0.33097 0.0
H1348 H 0.7651 0.72697 0.3971 0.0
H1349 H 0.76596 0.77259 0.39995 0.0
C1350 C 0.76911 0.3613 0.82394 0.0
C1351 C 0.76641 0.3642 0.78766 0.0
C1352 C 0.70275 0.34426 0.78983 0.0
C1353 C 0.70734 0.33403 0.82472 0.0
N1354 N 0.74493 0.33292 0.87535 0.0
N1355 N 0.72726 0.37953 0.74256 0.0
C1356 C 0.74035 0.34326 0.84216 0.0
C1357 C 0.73203 0.3625 0.77256 0.0
N1358 N 0.79826 0.37736 0.84093 0.0
N1359 N 0.672 0.3338 0.77192 0.0
H1360 H 0.74809 0.39544 0.73132 0.0
H1361 H 0.70207 0.38189 0.73183 0.0
H1362 H 0.6496 0.32004 0.78273 0.0
H1363 H 0.66957 0.33677 0.74531 0.0
H1364 H 0.80053 0.37851 0.86783 0.0
H1365 H 0.81774 0.39363 0.82815 0.0
H1366 H 0.76974 0.33515 0.88779 0.0
H1367 H 0.72406 0.3206 0.88995 0.0
C1368 C 0.20768 0.75151 0.63404 0.0
C1369 C 0.21992 0.7812 0.65463 0.0
C1370 C 0.20094 0.74986 0.70649 0.0
C1371 C 0.18312 0.72256 0.68572 0.0
N1372 N 0.16246 0.70259 0.62864 0.0
N1373 N 0.22047 0.81114 0.71077 0.0
C1374 C 0.1843 0.72484 0.64908 0.0
C1375 C 0.2133 0.7815 0.69081 0.0
N1376 N 0.21858 0.74845 0.60042 0.0
N1377 N 0.20998 0.74469 0.74017 0.0
H1378 H 0.23078 0.83501 0.70104 0.0
H1379 H 0.21265 0.81263 0.73672 0.0
H1380 H 0.20737 0.72034 0.75168 0.0
H1381 H 0.22549 0.7634 0.755 0.0
H1382 H 0.21323 0.7256 0.5855 0.0
H1383 H 0.23467 0.76814 0.58829 0.0
H1384 H 0.16137 0.70463 0.6018 0.0
H1385 H 0.14232 0.68505 0.63869 0.0
C1386 C 0.73246 0.65981 0.16718 0.0
C1387 C 0.7386 0.68865 0.14501 0.0
C1388 C 0.80362 0.68796 0.15169 0.0
C1389 C 0.79709 0.66488 0.17973 0.0
N1390 N 0.75669 0.62495 0.21169 0.0
N1391 N 0.77842 0.71659 0.10315 0.0
C1392 C 0.76189 0.6491 0.18627 0.0
C1393 C 0.77386 0.69821 0.13295 0.0
N1394 N 0.69922 0.64184 0.1687 0.0
N1395 N 0.83767 0.70249 0.14495 0.0
H1396 H 0.75648 0.72266 0.08854 0.0
H1397 H 0.80318 0.72226 0.09104 0.0
H1398 H 0.86038 0.69535 0.15753 0.0
H1399 H 0.8434 0.72292 0.12797 0.0
H1400 H 0.69335 0.61949 0.18314 0.0
H1401 H 0.67867 0.64631 0.15171 0.0
H1402 H 0.73151 0.61564 0.22105 0.0
H1403 H 0.77806 0.61497 0.22432 0.0
C1404 C 0.83704 0.21455 0.66568 0.0
C1405 C 0.81182 0.21353 0.63818 0.0
C1406 C 0.81801 0.27755 0.63806 0.0
C1407 C 0.84441 0.27831 0.66446 0.0
N1408 N 0.88884 0.2469 0.69172 0.0
N1409 N 0.78932 0.24403 0.59028 0.0
C1410 C 0.85769 0.24646 0.67361 0.0
C1411 C 0.80673 0.24509 0.62125 0.0
N1412 N 0.83854 0.187 0.68713 0.0
N1413 N 0.80056 0.30637 0.63161 0.0
H1414 H 0.7811 0.22036 0.57766 0.0
H1415 H 0.78689 0.26634 0.57589 0.0
H1416 H 0.80559 0.3299 0.64537 0.0
H1417 H 0.7788 0.30578 0.61472 0.0
H1418 H 0.85464 0.18839 0.7092 0.0
H1419 H 0.8213 0.16423 0.68521 0.0
H1420 H 0.90076 0.2242 0.69745 0.0
H1421 H 0.90435 0.27033 0.69674 0.0
C1422 C 0.18477 0.2738 0.17738 0.0
C1423 C 0.18926 0.30835 0.1917 0.0
C1424 C 0.24967 0.31658 0.1659 0.0
C1425 C 0.24678 0.28056 0.15685 0.0
N1426 N 0.20601 0.23331 0.13471 0.0
N1427 N 0.225 0.36369 0.19848 0.0
C1428 C 0.21241 0.26183 0.15631 0.0
C1429 C 0.22132 0.33026 0.1852 0.0
N1430 N 0.15577 0.2513 0.18605 0.0
N1431 N 0.2781 0.33786 0.1539 0.0
H1432 H 0.20379 0.37523 0.21043 0.0
H1433 H 0.2491 0.37961 0.19855 0.0
H1434 H 0.29649 0.32888 0.13612 0.0
H1435 H 0.28084 0.3649 0.15756 0.0
H1436 H 0.15367 0.22479 0.17921 0.0
H1437 H 0.13507 0.25816 0.20228 0.0
H1438 H 0.18065 0.21991 0.13149 0.0
H1439 H 0.2251 0.22628 0.1166 0.0
C1440 C 0.33995 0.1718 0.26017 0.0
C1441 C 0.32431 0.16065 0.22785 0.0
C1442 C 0.28651 0.11645 0.25899 0.0
C1443 C 0.29453 0.13435 0.2909 0.0
N1444 N 0.32482 0.18596 0.31909 0.0
N1445 N 0.27465 0.12655 0.19919 0.0
C1446 C 0.32087 0.16346 0.29116 0.0
C1447 C 0.29588 0.13344 0.2276 0.0
N1448 N 0.3712 0.19308 0.26112 0.0
N1449 N 0.26859 0.084 0.25865 0.0
H1450 H 0.27778 0.14072 0.17658 0.0
H1451 H 0.25173 0.10885 0.19951 0.0
H1452 H 0.26338 0.0708 0.28161 0.0
H1453 H 0.26357 0.06924 0.23586 0.0
H1454 H 0.38492 0.19986 0.28412 0.0
H1455 H 0.38445 0.2013 0.23856 0.0
H1456 H 0.34149 0.20926 0.31868 0.0
H1457 H 0.30904 0.18347 0.34132 0.0
C1458 C 0.34577 0.83024 0.77058 0.0
C1459 C 0.3644 0.79956 0.76713 0.0
C1460 C 0.37623 0.81255 0.70593 0.0
C1461 C 0.35664 0.84248 0.70987 0.0
N1462 N 0.33855 0.88754 0.74829 0.0
N1463 N 0.40732 0.76845 0.73464 0.0
C1464 C 0.34776 0.85422 0.74336 0.0
C1465 C 0.38288 0.79284 0.73574 0.0
N1466 N 0.32305 0.83498 0.79787 0.0
N1467 N 0.38714 0.80202 0.67388 0.0
H1468 H 0.41366 0.75456 0.75632 0.0
H1469 H 0.42389 0.76462 0.71334 0.0
H1470 H 0.38651 0.81752 0.6522 0.0
H1471 H 0.39659 0.7777 0.66886 0.0
H1472 H 0.30694 0.85574 0.79952 0.0
H1473 H 0.31637 0.81613 0.81634 0.0
H1474 H 0.33388 0.89834 0.77277 0.0
H1475 H 0.33948 0.90513 0.72798 0.0
C1476 C 0.706 0.8739 0.24425 0.0
C1477 C 0.6928 0.85873 0.27547 0.0
C1478 C 0.65383 0.81719 0.24055 0.0
C1479 C 0.67413 0.82641 0.21028 0.0
N1480 N 0.72792 0.85819 0.18784 0.0
N1481 N 0.6601 0.80809 0.30134 0.0
C1482 C 0.70214 0.85389 0.21291 0.0
C1483 C 0.66747 0.82878 0.27341 0.0
N1484 N 0.7246 0.90614 0.24498 0.0
N1485 N 0.62363 0.79441 0.23839 0.0
H1486 H 0.67235 0.81235 0.32533 0.0
H1487 H 0.64451 0.78417 0.2996 0.0
H1488 H 0.61488 0.78226 0.21518 0.0
H1489 H 0.60636 0.7896 0.25943 0.0
H1490 H 0.73387 0.91864 0.22253 0.0
H1491 H 0.72725 0.92135 0.26776 0.0
H1492 H 0.75067 0.87592 0.19064 0.0
H1493 H 0.72826 0.84201 0.16582 0.0
C1494 C 0.68338 0.19836 0.71651 0.0
C1495 C 0.67944 0.16153 0.71479 0.0
C1496 C 0.64655 0.16133 0.77008 0.0
C1497 C 0.65608 0.19799 0.77397 0.0
N1498 N 0.69655 0.24727 0.75524 0.0
N1499 N 0.66038 0.10691 0.74143 0.0
C1500 C 0.67822 0.2154 0.74844 0.0
C1501 C 0.662 0.14254 0.74212 0.0
N1502 N 0.69209 0.21732 0.68771 0.0
N1503 N 0.62205 0.14477 0.79192 0.0
H1504 H 0.67031 0.09279 0.7206 0.0
H1505 H 0.65116 0.09175 0.76225 0.0
H1506 H 0.60943 0.15784 0.81182 0.0
H1507 H 0.61196 0.11875 0.7883 0.0
H1508 H 0.69307 0.24456 0.68775 0.0
H1509 H 0.69328 0.20573 0.66313 0.0
H1510 H 0.71484 0.25939 0.73778 0.0
H1511 H 0.69772 0.25906 0.7798 0.0
C1512 C 0.8347 0.77258 0.63828 0.0
C1513 C 0.79913 0.76868 0.62539 0.0
C1514 C 0.79365 0.70648 0.63783 0.0
C1515 C 0.82609 0.71173 0.65717 0.0
N1516 N 0.88117 0.74711 0.67072 0.0
N1517 N 0.75573 0.72978 0.59484 0.0
C1518 C 0.84807 0.74394 0.65538 0.0
C1519 C 0.78231 0.73472 0.61906 0.0
N1520 N 0.85591 0.80277 0.63247 0.0
N1521 N 0.77192 0.67594 0.63984 0.0
H1522 H 0.7486 0.75031 0.5798 0.0
H1523 H 0.74416 0.70519 0.5869 0.0
H1524 H 0.77829 0.65461 0.65393 0.0
H1525 H 0.74605 0.67269 0.62958 0.0
H1526 H 0.88257 0.80741 0.64023 0.0
H1527 H 0.8479 0.82175 0.61604 0.0
H1528 H 0.89715 0.77059 0.67383 0.0
H1529 H 0.89266 0.7258 0.68089 0.0
C1530 C 0.70506 0.33092 0.19629 0.0
C1531 C 0.70623 0.3213 0.16064 0.0
C1532 C 0.7692 0.34627 0.15798 0.0
C1533 C 0.76632 0.36063 0.19196 0.0
N1534 N 0.74038 0.34409 0.24734 0.0
N1535 N 0.73896 0.32129 0.10669 0.0
C1536 C 0.73641 0.34721 0.21242 0.0
C1537 C 0.73813 0.32964 0.14123 0.0
N1538 N 0.6746 0.32334 0.21553 0.0
N1539 N 0.80221 0.34203 0.14442 0.0
H1540 H 0.71692 0.30853 0.0938 0.0
H1541 H 0.76 0.33024 0.09038 0.0
H1542 H 0.82465 0.34359 0.16025 0.0
H1543 H 0.80632 0.32961 0.12064 0.0
H1544 H 0.67095 0.33446 0.24006 0.0
H1545 H 0.6519 0.30823 0.20652 0.0
H1546 H 0.72089 0.33174 0.26343 0.0
H1547 H 0.76541 0.34779 0.25913 0.0
C1548 C 0.1621 0.23026 0.73532 0.0
C1549 C 0.14599 0.25733 0.71817 0.0
C1550 C 0.14693 0.2232 0.66364 0.0
C1551 C 0.16241 0.1965 0.68122 0.0
N1552 N 0.17029 0.16857 0.73545 0.0
N1553 N 0.11172 0.27305 0.66882 0.0
C1554 C 0.16423 0.19778 0.71775 0.0
C1555 C 0.13461 0.25171 0.68316 0.0
N1556 N 0.17899 0.23619 0.76654 0.0
N1557 N 0.14513 0.22183 0.62835 0.0
H1558 H 0.10049 0.29277 0.68309 0.0
H1559 H 0.10078 0.26856 0.64417 0.0
H1560 H 0.15259 0.20029 0.61389 0.0
H1561 H 0.13782 0.2425 0.61373 0.0
H1562 H 0.19373 0.21775 0.77794 0.0
H1563 H 0.18283 0.26054 0.77898 0.0
H1564 H 0.16945 0.16775 0.76244 0.0
H1565 H 0.17183 0.14432 0.7231 0.0
C1566 C 0.26687 0.62773 0.16437 0.0
C1567 C 0.23173 0.63803 0.16012 0.0
C1568 C 0.25795 0.68462 0.1233 0.0
C1569 C 0.2925 0.68088 0.13682 0.0
N1570 N 0.32607 0.65253 0.18002 0.0
N1571 N 0.19708 0.68544 0.14255 0.0
C1572 C 0.29647 0.65294 0.15955 0.0
C1573 C 0.22756 0.66845 0.14062 0.0
N1574 N 0.27169 0.59545 0.17649 0.0
N1575 N 0.25394 0.70564 0.09593 0.0
H1576 H 0.17584 0.67861 0.15925 0.0
H1577 H 0.19495 0.70919 0.13048 0.0
H1578 H 0.27608 0.71756 0.0828 0.0
H1579 H 0.22898 0.7077 0.08448 0.0
H1580 H 0.29713 0.58684 0.17965 0.0
H1581 H 0.25006 0.57663 0.18019 0.0
H1582 H 0.32805 0.63383 0.19891 0.0
H1583 H 0.34674 0.67263 0.18084 0.0
C1584 C 0.81803 0.28026 0.29443 0.0
C1585 C 0.82402 0.30842 0.31903 0.0
C1586 C 0.79985 0.2698 0.36475 0.0
C1587 C 0.7977 0.241 0.34077 0.0
N1588 N 0.81166 0.21808 0.28365 0.0
N1589 N 0.82621 0.32867 0.37847 0.0
C1590 C 0.80984 0.24588 0.30618 0.0
C1591 C 0.81681 0.30273 0.35456 0.0
N1592 N 0.81601 0.28643 0.25969 0.0
N1593 N 0.78464 0.26601 0.39686 0.0
H1594 H 0.83847 0.35304 0.37152 0.0
H1595 H 0.82476 0.32494 0.4051 0.0
H1596 H 0.7733 0.24199 0.40566 0.0
H1597 H 0.78181 0.28693 0.41403 0.0
H1598 H 0.80779 0.26704 0.24134 0.0
H1599 H 0.81753 0.31121 0.24918 0.0
H1600 H 0.82483 0.22033 0.2598 0.0
H1601 H 0.8031 0.19238 0.28948 0.0
C1602 C 0.24931 0.37097 0.83202 0.0
C1603 C 0.21409 0.35518 0.8378 0.0
C1604 C 0.23764 0.32421 0.8859 0.0
C1605 C 0.273 0.33115 0.87279 0.0
N1606 N 0.31146 0.35955 0.82888 0.0
N1607 N 0.17586 0.31186 0.86872 0.0
C1608 C 0.279 0.35516 0.84541 0.0
C1609 C 0.20814 0.3312 0.86507 0.0
N1610 N 0.25439 0.39934 0.81147 0.0
N1611 N 0.23232 0.30833 0.91688 0.0
H1612 H 0.15405 0.31398 0.85252 0.0
H1613 H 0.17179 0.29156 0.88617 0.0
H1614 H 0.25394 0.30247 0.93186 0.0
H1615 H 0.20714 0.30471 0.92878 0.0
H1616 H 0.27932 0.41361 0.80851 0.0
H1617 H 0.23271 0.41028 0.80058 0.0
H1618 H 0.31558 0.37403 0.80648 0.0
H1619 H 0.33341 0.34633 0.83533 0.0
C1620 C 0.21079 0.72815 0.34415 0.0
C1621 C 0.20672 0.76055 0.32818 0.0
C1622 C 0.16525 0.73074 0.28617 0.0
C1623 C 0.17435 0.69824 0.29812 0.0
N1624 N 0.19016 0.6666 0.34813 0.0
N1625 N 0.18438 0.79178 0.28006 0.0
C1626 C 0.1925 0.69689 0.33011 0.0
C1627 C 0.18463 0.7618 0.29845 0.0
N1628 N 0.2332 0.72716 0.37191 0.0
N1629 N 0.1373 0.73169 0.2636 0.0
H1630 H 0.19942 0.81511 0.2867 0.0
H1631 H 0.17171 0.79269 0.25616 0.0
H1632 H 0.12096 0.70916 0.25644 0.0
H1633 H 0.1276 0.7548 0.2557 0.0
H1634 H 0.24099 0.70416 0.38205 0.0
H1635 H 0.24571 0.74965 0.38378 0.0
H1636 H 0.20071 0.66456 0.37282 0.0
H1637 H 0.17308 0.64476 0.34084 0.0
C1638 C 0.7872 0.67507 0.82215 0.0
C1639 C 0.78289 0.64523 0.79958 0.0
C1640 C 0.71821 0.64161 0.81059 0.0
C1641 C 0.72305 0.66886 0.83615 0.0
N1642 N 0.76505 0.70306 0.87352 0.0
N1643 N 0.74518 0.59324 0.78299 0.0
C1644 C 0.75873 0.68179 0.84506 0.0
C1645 C 0.74878 0.62572 0.79822 0.0
N1646 N 0.81576 0.69966 0.81905 0.0
N1647 N 0.68603 0.63398 0.79435 0.0
H1648 H 0.76746 0.58097 0.7743 0.0
H1649 H 0.72076 0.57766 0.7827 0.0
H1650 H 0.66378 0.64783 0.79906 0.0
H1651 H 0.68283 0.61621 0.77348 0.0
H1652 H 0.81767 0.72321 0.83323 0.0
H1653 H 0.8355 0.6986 0.80006 0.0
H1654 H 0.79098 0.71158 0.88188 0.0
H1655 H 0.74436 0.70932 0.89005 0.0
C1656 C 0.65494 0.78802 0.70925 0.0
C1657 C 0.67512 0.82113 0.71331 0.0
C1658 C 0.6559 0.82458 0.77391 0.0
C1659 C 0.64195 0.78919 0.77121 0.0
N1660 N 0.61042 0.74585 0.73418 0.0
N1661 N 0.69626 0.87063 0.74979 0.0
C1662 C 0.63574 0.77361 0.73805 0.0
C1663 C 0.67561 0.83959 0.74564 0.0
N1664 N 0.65651 0.76897 0.67898 0.0
N1665 N 0.64837 0.84426 0.80248 0.0
H1666 H 0.71052 0.88272 0.72942 0.0
H1667 H 0.70092 0.88323 0.77374 0.0
H1668 H 0.63022 0.83478 0.82142 0.0
H1669 H 0.65559 0.87105 0.80481 0.0
H1670 H 0.64576 0.74307 0.67621 0.0
H1671 H 0.67067 0.77795 0.65716 0.0
H1672 H 0.60224 0.735 0.7102 0.0
H1673 H 0.59432 0.7369 0.75488 0.0
C1674 C 0.68199 0.14285 0.2359 0.0
C1675 C 0.67073 0.1558 0.26852 0.0
C1676 C 0.6224 0.18217 0.23917 0.0
C1677 C 0.64069 0.17873 0.20726 0.0
N1678 N 0.68751 0.15289 0.17449 0.0
N1679 N 0.62811 0.18781 0.30128 0.0
C1680 C 0.66979 0.1574 0.20507 0.0
C1681 C 0.63967 0.17463 0.27043 0.0
N1682 N 0.70452 0.11675 0.23458 0.0
N1683 N 0.58872 0.19328 0.23932 0.0
H1684 H 0.63928 0.18315 0.32511 0.0
H1685 H 0.60847 0.20539 0.30297 0.0
H1686 H 0.5756 0.19783 0.21628 0.0
H1687 H 0.57265 0.19391 0.26146 0.0
H1688 H 0.71142 0.1042 0.21159 0.0
H1689 H 0.71294 0.1051 0.25693 0.0
H1690 H 0.71191 0.14175 0.17283 0.0
H1691 H 0.67883 0.16138 0.15087 0.0
C1692 C 0.31424 0.15676 0.75588 0.0
C1693 C 0.3054 0.17589 0.72658 0.0
C1694 C 0.33607 0.22915 0.75257 0.0
C1695 C 0.33872 0.21123 0.78385 0.0
N1696 N 0.35051 0.15625 0.80765 0.0
N1697 N 0.3049 0.23154 0.69825 0.0
C1698 C 0.33406 0.17433 0.78324 0.0
C1699 C 0.31609 0.21235 0.72485 0.0
N1700 N 0.30209 0.12229 0.75843 0.0
N1701 N 0.3544 0.26124 0.74868 0.0
H1702 H 0.28972 0.22076 0.67746 0.0
H1703 H 0.3084 0.25876 0.69811 0.0
H1704 H 0.37291 0.27193 0.76702 0.0
H1705 H 0.35555 0.27457 0.72545 0.0
H1706 H 0.30429 0.10812 0.78087 0.0
H1707 H 0.28749 0.1085 0.73883 0.0
H1708 H 0.35061 0.12913 0.80696 0.0
H1709 H 0.3683 0.16884 0.82568 0.0
C1710 C 0.31122 0.86165 0.23689 0.0
C1711 C 0.32666 0.85884 0.26974 0.0
C1712 C 0.37324 0.82552 0.24335 0.0
C1713 C 0.35143 0.82023 0.21333 0.0
N1714 N 0.29745 0.83196 0.18241 0.0
N1715 N 0.37932 0.84869 0.30246 0.0
C1716 C 0.32027 0.83863 0.20986 0.0
C1717 C 0.36021 0.84437 0.27241 0.0
N1718 N 0.28703 0.88568 0.2322 0.0
N1719 N 0.40651 0.81334 0.2435 0.0
H1720 H 0.37399 0.86751 0.32121 0.0
H1721 H 0.40119 0.83495 0.30826 0.0
H1722 H 0.41678 0.80035 0.22215 0.0
H1723 H 0.42497 0.81797 0.26353 0.0
H1724 H 0.27668 0.89086 0.20803 0.0
H1725 H 0.28075 0.90298 0.25216 0.0
H1726 H 0.2727 0.84235 0.18085 0.0
H1727 H 0.30106 0.81332 0.16298 0.0
loop_
_geom_bond_atom_site_label_1
_geom_bond_atom_site_label_2
_geom_bond_distance
_geom_bond_site_symmetry_2
_ccdc_geom_bond_type
Mn0 O5 2.095 . S
Mn0 O15 2.162 . S
Mn0 O16 2.297 . S
Mn0 O24 2.385 . S
Mn0 O25 2.209 . S
Mn0 O26 2.094 . S
Mn1 O6 2.121 . S
Mn1 N8 2.257 . S
Mn1 N17 2.282 . S
Mn1 O25 2.215 . S
Mn1 O27 2.117 . S
C2 O24 1.234 . S
C2 O25 1.283 . S
C3 O15 1.281 . S
C3 O16 1.236 . S
C4 O26 1.240 . S
C4 O27 1.264 . S
O5 Mn0 2.095 . S
O5 C14 1.250 . S
O6 Mn1 2.121 . S
O6 C14 1.258 . S
C7 N8 1.326 . S
C7 C11 1.460 . S
C7 H13 0.929 . S
N8 Mn1 2.257 . S
N8 C7 1.326 . S
N8 C12 1.362 . S
C9 C10 1.258 . S
C9 C12 1.431 . S
C9 C29 1.449 . S
C10 C9 1.258 . S
C10 C11 1.477 . S
C10 H30 0.931 . S
C11 C7 1.460 . S
C11 C10 1.477 . S
C11 H31 0.930 . S
C12 N8 1.362 . S
C12 C9 1.431 . S
C12 C22 1.476 . S
H13 C7 0.929 . S
C14 O5 1.250 . S
C14 O6 1.258 . S
O15 Mn0 2.162 . S
O15 C3 1.281 . S
O16 Mn0 2.297 . S
O16 C3 1.236 . S
N17 Mn1 2.282 . S
N17 C18 1.328 . S
N17 C22 1.318 . S
C18 N17 1.328 . S
C18 C19 1.457 . S
C18 H23 0.929 . S
C19 C18 1.457 . S
C19 C20 1.291 . S
C19 H32 0.931 . S
C20 C19 1.291 . S
C20 C21 1.373 . S
C20 H33 0.929 . S
C21 C20 1.373 . S
C21 C22 1.396 . S
C21 C28 1.403 . S
C22 C12 1.476 . S
C22 N17 1.318 . S
C22 C21 1.396 . S
H23 C18 0.929 . S
O24 Mn0 2.385 . S
O24 C2 1.234 . S
O25 Mn0 2.209 . S
O25 Mn1 2.215 . S
O25 C2 1.283 . S
O26 Mn0 2.094 . S
O26 C4 1.240 . S
O27 Mn1 2.117 . S
O27 C4 1.264 . S
C28 C21 1.403 . S
C28 C29 1.399 . S
C28 H34 0.929 . S
C29 C9 1.449 . S
C29 C28 1.399 . S
C29 H35 0.930 . S
H30 C10 0.931 . S
H31 C11 0.930 . S
H32 C19 0.931 . S
H33 C20 0.929 . S
H34 C28 0.929 . S
H35 C29 0.930 . S
Mn36 O41 2.095 . S
Mn36 O51 2.162 . S
Mn36 O52 2.297 . S
Mn36 O60 2.385 . S
Mn36 O61 2.209 . S
Mn36 O62 2.094 . S
Mn37 O42 2.121 . S
Mn37 N44 2.257 . S
Mn37 N53 2.282 . S
Mn37 O61 2.215 . S
Mn37 O63 2.117 . S
C38 O60 1.234 . S
C38 O61 1.283 . S
C39 O51 1.281 . S
C39 O52 1.236 . S
C40 O62 1.240 . S
C40 O63 1.264 . S
O41 Mn36 2.095 . S
O41 C50 1.250 . S
O42 Mn37 2.121 . S
O42 C50 1.258 . S
C43 N44 1.326 . S
C43 C47 1.460 . S
C43 H49 0.929 . S
N44 Mn37 2.257 . S
N44 C43 1.326 . S
N44 C48 1.362 . S
C45 C46 1.258 . S
C45 C48 1.431 . S
C45 C65 1.449 . S
C46 C45 1.258 . S
C46 C47 1.477 . S
C46 H66 0.931 . S
C47 C43 1.460 . S
C47 C46 1.477 . S
C47 H67 0.930 . S
C48 N44 1.362 . S
C48 C45 1.431 . S
C48 C58 1.476 . S
H49 C43 0.929 . S
C50 O41 1.250 . S
C50 O42 1.258 . S
O51 Mn36 2.162 . S
O51 C39 1.281 . S
O52 Mn36 2.297 . S
O52 C39 1.236 . S
N53 Mn37 2.282 . S
N53 C54 1.328 . S
N53 C58 1.318 . S
C54 N53 1.328 . S
C54 C55 1.457 . S
C54 H59 0.929 . S
C55 C54 1.457 . S
C55 C56 1.291 . S
C55 H68 0.931 . S
C56 C55 1.291 . S
C56 C57 1.373 . S
C56 H69 0.929 . S
C57 C56 1.373 . S
C57 C58 1.396 . S
C57 C64 1.403 . S
C58 C48 1.476 . S
C58 N53 1.318 . S
C58 C57 1.396 . S
H59 C54 0.929 . S
O60 Mn36 2.385 . S
O60 C38 1.234 . S
O61 Mn36 2.209 . S
O61 Mn37 2.215 . S
O61 C38 1.283 . S
O62 Mn36 2.094 . S
O62 C40 1.240 . S
O63 Mn37 2.117 . S
O63 C40 1.264 . S
C64 C57 1.403 . S
C64 C65 1.399 . S
C64 H70 0.929 . S
C65 C45 1.449 . S
C65 C64 1.399 . S
C65 H71 0.930 . S
H66 C46 0.931 . S
H67 C47 0.930 . S
H68 C55 0.931 . S
H69 C56 0.929 . S
H70 C64 0.929 . S
H71 C65 0.930 . S
Mn72 O77 2.095 . S
Mn72 O87 2.162 . S
Mn72 O88 2.297 . S
Mn72 O96 2.385 . S
Mn72 O97 2.209 . S
Mn72 O98 2.094 . S
Mn73 O78 2.121 . S
Mn73 N80 2.257 . S
Mn73 N89 2.282 . S
Mn73 O97 2.215 . S
Mn73 O99 2.117 . S
C74 O96 1.234 . S
C74 O97 1.283 . S
C75 O87 1.281 . S
C75 O88 1.236 . S
C76 O98 1.240 . S
C76 O99 1.264 . S
O77 Mn72 2.095 . S
O77 C86 1.250 . S
O78 Mn73 2.121 . S
O78 C86 1.258 . S
C79 N80 1.326 . S
C79 C83 1.460 . S
C79 H85 0.929 . S
N80 Mn73 2.257 . S
N80 C79 1.326 . S
N80 C84 1.362 . S
C81 C82 1.258 . S
C81 C84 1.431 . S
C81 C101 1.449 . S
C82 C81 1.258 . S
C82 C83 1.477 . S
C82 H102 0.931 . S
C83 C79 1.460 . S
C83 C82 1.477 . S
C83 H103 0.930 . S
C84 N80 1.362 . S
C84 C81 1.431 . S
C84 C94 1.476 . S
H85 C79 0.929 . S
C86 O77 1.250 . S
C86 O78 1.258 . S
O87 Mn72 2.162 . S
O87 C75 1.281 . S
O88 Mn72 2.297 . S
O88 C75 1.236 . S
N89 Mn73 2.282 . S
N89 C90 1.328 . S
N89 C94 1.318 . S
C90 N89 1.328 . S
C90 C91 1.457 . S
C90 H95 0.929 . S
C91 C90 1.457 . S
C91 C92 1.291 . S
C91 H104 0.931 . S
C92 C91 1.291 . S
C92 C93 1.373 . S
C92 H105 0.929 . S
C93 C92 1.373 . S
C93 C94 1.396 . S
C93 C100 1.403 . S
C94 C84 1.476 . S
C94 N89 1.318 . S
C94 C93 1.396 . S
H95 C90 0.929 . S
O96 Mn72 2.385 . S
O96 C74 1.234 . S
O97 Mn72 2.209 . S
O97 Mn73 2.215 . S
O97 C74 1.283 . S
O98 Mn72 2.094 . S
O98 C76 1.240 . S
O99 Mn73 2.117 . S
O99 C76 1.264 . S
C100 C93 1.403 . S
C100 C101 1.399 . S
C100 H106 0.929 . S
C101 C81 1.449 . S
C101 C100 1.399 . S
C101 H107 0.930 . S
H102 C82 0.931 . S
H103 C83 0.930 . S
H104 C91 0.931 . S
H105 C92 0.929 . S
H106 C100 0.929 . S
H107 C101 0.930 . S
Mn108 O113 2.095 . S
Mn108 O123 2.162 . S
Mn108 O124 2.297 . S
Mn108 O132 2.385 . S
Mn108 O133 2.209 . S
Mn108 O134 2.094 . S
Mn109 O114 2.121 . S
Mn109 N116 2.257 . S
Mn109 N125 2.282 . S
Mn109 O133 2.215 . S
Mn109 O135 2.117 . S
C110 O132 1.234 . S
C110 O133 1.283 . S
C111 O123 1.281 . S
C111 O124 1.236 . S
C112 O134 1.240 . S
C112 O135 1.264 . S
O113 Mn108 2.095 . S
O113 C122 1.250 . S
O114 Mn109 2.121 . S
O114 C122 1.258 . S
C115 N116 1.326 . S
C115 C119 1.460 . S
C115 H121 0.929 . S
N116 Mn109 2.257 . S
N116 C115 1.326 . S
N116 C120 1.362 . S
C117 C118 1.258 . S
C117 C120 1.431 . S
C117 C137 1.449 . S
C118 C117 1.258 . S
C118 C119 1.477 . S
C118 H138 0.931 . S
C119 C115 1.460 . S
C119 C118 1.477 . S
C119 H139 0.930 . S
C120 N116 1.362 . S
C120 C117 1.431 . S
C120 C130 1.476 . S
H121 C115 0.929 . S
C122 O113 1.250 . S
C122 O114 1.258 . S
O123 Mn108 2.162 . S
O123 C111 1.281 . S
O124 Mn108 2.297 . S
O124 C111 1.236 . S
N125 Mn109 2.282 . S
N125 C126 1.328 . S
N125 C130 1.318 . S
C126 N125 1.328 . S
C126 C127 1.457 . S
C126 H131 0.929 . S
C127 C126 1.457 . S
C127 C128 1.291 . S
C127 H140 0.931 . S
C128 C127 1.291 . S
C128 C129 1.373 . S
C128 H141 0.929 . S
C129 C128 1.373 . S
C129 C130 1.396 . S
C129 C136 1.403 . S
C130 C120 1.476 . S
C130 N125 1.318 . S
C130 C129 1.396 . S
H131 C126 0.929 . S
O132 Mn108 2.385 . S
O132 C110 1.234 . S
O133 Mn108 2.209 . S
O133 Mn109 2.215 . S
O133 C110 1.283 . S
O134 Mn108 2.094 . S
O134 C112 1.240 . S
O135 Mn109 2.117 . S
O135 C112 1.264 . S
C136 C129 1.403 . S
C136 C137 1.399 . S
C136 H142 0.929 . S
C137 C117 1.449 . S
C137 C136 1.399 . S
C137 H143 0.930 . S
H138 C118 0.931 . S
H139 C119 0.930 . S
H140 C127 0.931 . S
H141 C128 0.929 . S
H142 C136 0.929 . S
H143 C137 0.930 . S
Mn144 O149 2.095 . S
Mn144 O159 2.162 . S
Mn144 O160 2.297 . S
Mn144 O168 2.385 . S
Mn144 O169 2.209 . S
Mn144 O170 2.094 . S
Mn145 O150 2.121 . S
Mn145 N152 2.257 . S
Mn145 N161 2.282 . S
Mn145 O169 2.215 . S
Mn145 O171 2.117 . S
C146 O168 1.234 . S
C146 O169 1.283 . S
C147 O159 1.281 . S
C147 O160 1.236 . S
C148 O170 1.240 . S
C148 O171 1.264 . S
O149 Mn144 2.095 . S
O149 C158 1.250 . S
O150 Mn145 2.121 . S
O150 C158 1.258 . S
C151 N152 1.326 . S
C151 C155 1.460 . S
C151 H157 0.929 . S
N152 Mn145 2.257 . S
N152 C151 1.326 . S
N152 C156 1.362 . S
C153 C154 1.258 . S
C153 C156 1.431 . S
C153 C173 1.449 . S
C154 C153 1.258 . S
C154 C155 1.477 . S
C154 H174 0.931 . S
C155 C151 1.460 . S
C155 C154 1.477 . S
C155 H175 0.930 . S
C156 N152 1.362 . S
C156 C153 1.431 . S
C156 C166 1.476 . S
H157 C151 0.929 . S
C158 O149 1.250 . S
C158 O150 1.258 . S
O159 Mn144 2.162 . S
O159 C147 1.281 . S
O160 Mn144 2.297 . S
O160 C147 1.236 . S
N161 Mn145 2.282 . S
N161 C162 1.328 . S
N161 C166 1.318 . S
C162 N161 1.328 . S
C162 C163 1.457 . S
C162 H167 0.929 . S
C163 C162 1.457 . S
C163 C164 1.291 . S
C163 H176 0.931 . S
C164 C163 1.291 . S
C164 C165 1.373 . S
C164 H177 0.929 . S
C165 C164 1.373 . S
C165 C166 1.396 . S
C165 C172 1.403 . S
C166 C156 1.476 . S
C166 N161 1.318 . S
C166 C165 1.396 . S
H167 C162 0.929 . S
O168 Mn144 2.385 . S
O168 C146 1.234 . S
O169 Mn144 2.209 . S
O169 Mn145 2.215 . S
O169 C146 1.283 . S
O170 Mn144 2.094 . S
O170 C148 1.240 . S
O171 Mn145 2.117 . S
O171 C148 1.264 . S
C172 C165 1.403 . S
C172 C173 1.399 . S
C172 H178 0.929 . S
C173 C153 1.449 . S
C173 C172 1.399 . S
C173 H179 0.930 . S
H174 C154 0.931 . S
H175 C155 0.930 . S
H176 C163 0.931 . S
H177 C164 0.929 . S
H178 C172 0.929 . S
H179 C173 0.930 . S
Mn180 O185 2.095 . S
Mn180 O195 2.162 . S
Mn180 O196 2.297 . S
Mn180 O204 2.385 . S
Mn180 O205 2.209 . S
Mn180 O206 2.094 . S
Mn181 O186 2.121 . S
Mn181 N188 2.257 . S
Mn181 N197 2.282 . S
Mn181 O205 2.215 . S
Mn181 O207 2.117 . S
C182 O204 1.234 . S
C182 O205 1.283 . S
C183 O195 1.281 . S
C183 O196 1.236 . S
C184 O206 1.240 . S
C184 O207 1.264 . S
O185 Mn180 2.095 . S
O185 C194 1.250 . S
O186 Mn181 2.121 . S
O186 C194 1.258 . S
C187 N188 1.326 . S
C187 C191 1.460 . S
C187 H193 0.929 . S
N188 Mn181 2.257 . S
N188 C187 1.326 . S
N188 C192 1.362 . S
C189 C190 1.258 . S
C189 C192 1.431 . S
C189 C209 1.449 . S
C190 C189 1.258 . S
C190 C191 1.477 . S
C190 H210 0.931 . S
C191 C187 1.460 . S
C191 C190 1.477 . S
C191 H211 0.930 . S
C192 N188 1.362 . S
C192 C189 1.431 . S
C192 C202 1.476 . S
H193 C187 0.929 . S
C194 O185 1.250 . S
C194 O186 1.258 . S
O195 Mn180 2.162 . S
O195 C183 1.281 . S
O196 Mn180 2.297 . S
O196 C183 1.236 . S
N197 Mn181 2.282 . S
N197 C198 1.328 . S
N197 C202 1.318 . S
C198 N197 1.328 . S
C198 C199 1.457 . S
C198 H203 0.929 . S
C199 C198 1.457 . S
C199 C200 1.291 . S
C199 H212 0.931 . S
C200 C199 1.291 . S
C200 C201 1.373 . S
C200 H213 0.929 . S
C201 C200 1.373 . S
C201 C202 1.396 . S
C201 C208 1.403 . S
C202 C192 1.476 . S
C202 N197 1.318 . S
C202 C201 1.396 . S
H203 C198 0.929 . S
O204 Mn180 2.385 . S
O204 C182 1.234 . S
O205 Mn180 2.209 . S
O205 Mn181 2.215 . S
O205 C182 1.283 . S
O206 Mn180 2.094 . S
O206 C184 1.240 . S
O207 Mn181 2.117 . S
O207 C184 1.264 . S
C208 C201 1.403 . S
C208 C209 1.399 . S
C208 H214 0.929 . S
C209 C189 1.449 . S
C209 C208 1.399 . S
C209 H215 0.930 . S
H210 C190 0.931 . S
H211 C191 0.930 . S
H212 C199 0.931 . S
H213 C200 0.929 . S
H214 C208 0.929 . S
H215 C209 0.930 . S
Mn216 O221 2.095 . S
Mn216 O231 2.162 . S
Mn216 O232 2.297 . S
Mn216 O240 2.385 . S
Mn216 O241 2.209 . S
Mn216 O242 2.094 . S
Mn217 O222 2.121 . S
Mn217 N224 2.257 . S
Mn217 N233 2.282 . S
Mn217 O241 2.215 . S
Mn217 O243 2.117 . S
C218 O240 1.234 . S
C218 O241 1.283 . S
C219 O231 1.281 . S
C219 O232 1.236 . S
C220 O242 1.240 . S
C220 O243 1.264 . S
O221 Mn216 2.095 . S
O221 C230 1.250 . S
O222 Mn217 2.121 . S
O222 C230 1.258 . S
C223 N224 1.326 . S
C223 C227 1.460 . S
C223 H229 0.929 . S
N224 Mn217 2.257 . S
N224 C223 1.326 . S
N224 C228 1.362 . S
C225 C226 1.258 . S
C225 C228 1.431 . S
C225 C245 1.449 . S
C226 C225 1.258 . S
C226 C227 1.477 . S
C226 H246 0.931 . S
C227 C223 1.460 . S
C227 C226 1.477 . S
C227 H247 0.930 . S
C228 N224 1.362 . S
C228 C225 1.431 . S
C228 C238 1.476 . S
H229 C223 0.929 . S
C230 O221 1.250 . S
C230 O222 1.258 . S
O231 Mn216 2.162 . S
O231 C219 1.281 . S
O232 Mn216 2.297 . S
O232 C219 1.236 . S
N233 Mn217 2.282 . S
N233 C234 1.328 . S
N233 C238 1.318 . S
C234 N233 1.328 . S
C234 C235 1.457 . S
C234 H239 0.929 . S
C235 C234 1.457 . S
C235 C236 1.291 . S
C235 H248 0.931 . S
C236 C235 1.291 . S
C236 C237 1.373 . S
C236 H249 0.929 . S
C237 C236 1.373 . S
C237 C238 1.396 . S
C237 C244 1.403 . S
C238 C228 1.476 . S
C238 N233 1.318 . S
C238 C237 1.396 . S
H239 C234 0.929 . S
O240 Mn216 2.385 . S
O240 C218 1.234 . S
O241 Mn216 2.209 . S
O241 Mn217 2.215 . S
O241 C218 1.283 . S
O242 Mn216 2.094 . S
O242 C220 1.240 . S
O243 Mn217 2.117 . S
O243 C220 1.264 . S
C244 C237 1.403 . S
C244 C245 1.399 . S
C244 H250 0.929 . S
C245 C225 1.449 . S
C245 C244 1.399 . S
C245 H251 0.930 . S
H246 C226 0.931 . S
H247 C227 0.930 . S
H248 C235 0.931 . S
H249 C236 0.929 . S
H250 C244 0.929 . S
H251 C245 0.930 . S
Mn252 O257 2.095 . S
Mn252 O267 2.162 . S
Mn252 O268 2.297 . S
Mn252 O276 2.385 . S
Mn252 O277 2.209 . S
Mn252 O278 2.094 . S
Mn253 O258 2.121 . S
Mn253 N260 2.257 . S
Mn253 N269 2.282 . S
Mn253 O277 2.215 . S
Mn253 O279 2.117 . S
C254 O276 1.234 . S
C254 O277 1.283 . S
C255 O267 1.281 . S
C255 O268 1.236 . S
C256 O278 1.240 . S
C256 O279 1.264 . S
O257 Mn252 2.095 . S
O257 C266 1.250 . S
O258 Mn253 2.121 . S
O258 C266 1.258 . S
C259 N260 1.326 . S
C259 C263 1.460 . S
C259 H265 0.929 . S
N260 Mn253 2.257 . S
N260 C259 1.326 . S
N260 C264 1.362 . S
C261 C262 1.258 . S
C261 C264 1.431 . S
C261 C281 1.449 . S
C262 C261 1.258 . S
C262 C263 1.477 . S
C262 H282 0.931 . S
C263 C259 1.460 . S
C263 C262 1.477 . S
C263 H283 0.930 . S
C264 N260 1.362 . S
C264 C261 1.431 . S
C264 C274 1.476 . S
H265 C259 0.929 . S
C266 O257 1.250 . S
C266 O258 1.258 . S
O267 Mn252 2.162 . S
O267 C255 1.281 . S
O268 Mn252 2.297 . S
O268 C255 1.236 . S
N269 Mn253 2.282 . S
N269 C270 1.328 . S
N269 C274 1.318 . S
C270 N269 1.328 . S
C270 C271 1.457 . S
C270 H275 0.929 . S
C271 C270 1.457 . S
C271 C272 1.291 . S
C271 H284 0.931 . S
C272 C271 1.291 . S
C272 C273 1.373 . S
C272 H285 0.929 . S
C273 C272 1.373 . S
C273 C274 1.396 . S
C273 C280 1.403 . S
C274 C264 1.476 . S
C274 N269 1.318 . S
C274 C273 1.396 . S
H275 C270 0.929 . S
O276 Mn252 2.385 . S
O276 C254 1.234 . S
O277 Mn252 2.209 . S
O277 Mn253 2.215 . S
O277 C254 1.283 . S
O278 Mn252 2.094 . S
O278 C256 1.240 . S
O279 Mn253 2.117 . S
O279 C256 1.264 . S
C280 C273 1.403 . S
C280 C281 1.399 . S
C280 H286 0.929 . S
C281 C261 1.449 . S
C281 C280 1.399 . S
C281 H287 0.930 . S
H282 C262 0.931 . S
H283 C263 0.930 . S
H284 C271 0.931 . S
H285 C272 0.929 . S
H286 C280 0.929 . S
H287 C281 0.930 . S
Mn288 O293 2.095 . S
Mn288 O303 2.162 . S
Mn288 O304 2.297 . S
Mn288 O312 2.385 . S
Mn288 O313 2.209 . S
Mn288 O314 2.094 . S
Mn289 O294 2.121 . S
Mn289 N296 2.257 . S
Mn289 N305 2.282 . S
Mn289 O313 2.215 . S
Mn289 O315 2.117 . S
C290 O312 1.234 . S
C290 O313 1.283 . S
C291 O303 1.281 . S
C291 O304 1.236 . S
C292 O314 1.240 . S
C292 O315 1.264 . S
O293 Mn288 2.095 . S
O293 C302 1.250 . S
O294 Mn289 2.121 . S
O294 C302 1.258 . S
C295 N296 1.326 . S
C295 C299 1.460 . S
C295 H301 0.929 . S
N296 Mn289 2.257 . S
N296 C295 1.326 . S
N296 C300 1.362 . S
C297 C298 1.258 . S
C297 C300 1.431 . S
C297 C317 1.449 . S
C298 C297 1.258 . S
C298 C299 1.477 . S
C298 H318 0.931 . S
C299 C295 1.460 . S
C299 C298 1.477 . S
C299 H319 0.930 . S
C300 N296 1.362 . S
C300 C297 1.431 . S
C300 C310 1.476 . S
H301 C295 0.929 . S
C302 O293 1.250 . S
C302 O294 1.258 . S
O303 Mn288 2.162 . S
O303 C291 1.281 . S
O304 Mn288 2.297 . S
O304 C291 1.236 . S
N305 Mn289 2.282 . S
N305 C306 1.328 . S
N305 C310 1.318 . S
C306 N305 1.328 . S
C306 C307 1.457 . S
C306 H311 0.929 . S
C307 C306 1.457 . S
C307 C308 1.291 . S
C307 H320 0.931 . S
C308 C307 1.291 . S
C308 C309 1.373 . S
C308 H321 0.929 . S
C309 C308 1.373 . S
C309 C310 1.396 . S
C309 C316 1.403 . S
C310 C300 1.476 . S
C310 N305 1.318 . S
C310 C309 1.396 . S
H311 C306 0.929 . S
O312 Mn288 2.385 . S
O312 C290 1.234 . S
O313 Mn288 2.209 . S
O313 Mn289 2.215 . S
O313 C290 1.283 . S
O314 Mn288 2.094 . S
O314 C292 1.240 . S
O315 Mn289 2.117 . S
O315 C292 1.264 . S
C316 C309 1.403 . S
C316 C317 1.399 . S
C316 H322 0.929 . S
C317 C297 1.449 . S
C317 C316 1.399 . S
C317 H323 0.930 . S
H318 C298 0.931 . S
H319 C299 0.930 . S
H320 C307 0.931 . S
H321 C308 0.929 . S
H322 C316 0.929 . S
H323 C317 0.930 . S
Mn324 O329 2.095 . S
Mn324 O339 2.162 . S
Mn324 O340 2.297 . S
Mn324 O348 2.385 . S
Mn324 O349 2.209 . S
Mn324 O350 2.094 . S
Mn325 O330 2.121 . S
Mn325 N332 2.257 . S
Mn325 N341 2.282 . S
Mn325 O349 2.215 . S
Mn325 O351 2.117 . S
C326 O348 1.234 . S
C326 O349 1.283 . S
C327 O339 1.281 . S
C327 O340 1.236 . S
C328 O350 1.240 . S
C328 O351 1.264 . S
O329 Mn324 2.095 . S
O329 C338 1.250 . S
O330 Mn325 2.121 . S
O330 C338 1.258 . S
C331 N332 1.326 . S
C331 C335 1.460 . S
C331 H337 0.929 . S
N332 Mn325 2.257 . S
N332 C331 1.326 . S
N332 C336 1.362 . S
C333 C334 1.258 . S
C333 C336 1.431 . S
C333 C353 1.449 . S
C334 C333 1.258 . S
C334 C335 1.477 . S
C334 H354 0.931 . S
C335 C331 1.460 . S
C335 C334 1.477 . S
C335 H355 0.930 . S
C336 N332 1.362 . S
C336 C333 1.431 . S
C336 C346 1.476 . S
H337 C331 0.929 . S
C338 O329 1.250 . S
C338 O330 1.258 . S
O339 Mn324 2.162 . S
O339 C327 1.281 . S
O340 Mn324 2.297 . S
O340 C327 1.236 . S
N341 Mn325 2.282 . S
N341 C342 1.328 . S
N341 C346 1.318 . S
C342 N341 1.328 . S
C342 C343 1.457 . S
C342 H347 0.929 . S
C343 C342 1.457 . S
C343 C344 1.291 . S
C343 H356 0.931 . S
C344 C343 1.291 . S
C344 C345 1.373 . S
C344 H357 0.929 . S
C345 C344 1.373 . S
C345 C346 1.396 . S
C345 C352 1.403 . S
C346 C336 1.476 . S
C346 N341 1.318 . S
C346 C345 1.396 . S
H347 C342 0.929 . S
O348 Mn324 2.385 . S
O348 C326 1.234 . S
O349 Mn324 2.209 . S
O349 Mn325 2.215 . S
O349 C326 1.283 . S
O350 Mn324 2.094 . S
O350 C328 1.240 . S
O351 Mn325 2.117 . S
O351 C328 1.264 . S
C352 C345 1.403 . S
C352 C353 1.399 . S
C352 H358 0.929 . S
C353 C333 1.449 . S
C353 C352 1.399 . S
C353 H359 0.930 . S
H354 C334 0.931 . S
H355 C335 0.930 . S
H356 C343 0.931 . S
H357 C344 0.929 . S
H358 C352 0.929 . S
H359 C353 0.930 . S
Mn360 O365 2.095 . S
Mn360 O375 2.162 . S
Mn360 O376 2.297 . S
Mn360 O384 2.385 . S
Mn360 O385 2.209 . S
Mn360 O386 2.094 . S
Mn361 O366 2.121 . S
Mn361 N368 2.257 . S
Mn361 N377 2.282 . S
Mn361 O385 2.215 . S
Mn361 O387 2.117 . S
C362 O384 1.234 . S
C362 O385 1.283 . S
C363 O375 1.281 . S
C363 O376 1.236 . S
C364 O386 1.240 . S
C364 O387 1.264 . S
O365 Mn360 2.095 . S
O365 C374 1.250 . S
O366 Mn361 2.121 . S
O366 C374 1.258 . S
C367 N368 1.326 . S
C367 C371 1.460 . S
C367 H373 0.929 . S
N368 Mn361 2.257 . S
N368 C367 1.326 . S
N368 C372 1.362 . S
C369 C370 1.258 . S
C369 C372 1.431 . S
C369 C389 1.449 . S
C370 C369 1.258 . S
C370 C371 1.477 . S
C370 H390 0.931 . S
C371 C367 1.460 . S
C371 C370 1.477 . S
C371 H391 0.930 . S
C372 N368 1.362 . S
C372 C369 1.431 . S
C372 C382 1.476 . S
H373 C367 0.929 . S
C374 O365 1.250 . S
C374 O366 1.258 . S
O375 Mn360 2.162 . S
O375 C363 1.281 . S
O376 Mn360 2.297 . S
O376 C363 1.236 . S
N377 Mn361 2.282 . S
N377 C378 1.328 . S
N377 C382 1.318 . S
C378 N377 1.328 . S
C378 C379 1.457 . S
C378 H383 0.929 . S
C379 C378 1.457 . S
C379 C380 1.291 . S
C379 H392 0.931 . S
C380 C379 1.291 . S
C380 C381 1.373 . S
C380 H393 0.929 . S
C381 C380 1.373 . S
C381 C382 1.396 . S
C381 C388 1.403 . S
C382 C372 1.476 . S
C382 N377 1.318 . S
C382 C381 1.396 . S
H383 C378 0.929 . S
O384 Mn360 2.385 . S
O384 C362 1.234 . S
O385 Mn360 2.209 . S
O385 Mn361 2.215 . S
O385 C362 1.283 . S
O386 Mn360 2.094 . S
O386 C364 1.240 . S
O387 Mn361 2.117 . S
O387 C364 1.264 . S
C388 C381 1.403 . S
C388 C389 1.399 . S
C388 H394 0.929 . S
C389 C369 1.449 . S
C389 C388 1.399 . S
C389 H395 0.930 . S
H390 C370 0.931 . S
H391 C371 0.930 . S
H392 C379 0.931 . S
H393 C380 0.929 . S
H394 C388 0.929 . S
H395 C389 0.930 . S
Mn396 O401 2.095 . S
Mn396 O411 2.162 . S
Mn396 O412 2.297 . S
Mn396 O420 2.385 . S
Mn396 O421 2.209 . S
Mn396 O422 2.094 . S
Mn397 O402 2.121 . S
Mn397 N404 2.257 . S
Mn397 N413 2.282 . S
Mn397 O421 2.215 . S
Mn397 O423 2.117 . S
C398 O420 1.234 . S
C398 O421 1.283 . S
C399 O411 1.281 . S
C399 O412 1.236 . S
C400 O422 1.240 . S
C400 O423 1.264 . S
O401 Mn396 2.095 . S
O401 C410 1.250 . S
O402 Mn397 2.121 . S
O402 C410 1.258 . S
C403 N404 1.326 . S
C403 C407 1.460 . S
C403 H409 0.929 . S
N404 Mn397 2.257 . S
N404 C403 1.326 . S
N404 C408 1.362 . S
C405 C406 1.258 . S
C405 C408 1.431 . S
C405 C425 1.449 . S
C406 C405 1.258 . S
C406 C407 1.477 . S
C406 H426 0.931 . S
C407 C403 1.460 . S
C407 C406 1.477 . S
C407 H427 0.930 . S
C408 N404 1.362 . S
C408 C405 1.431 . S
C408 C418 1.476 . S
H409 C403 0.929 . S
C410 O401 1.250 . S
C410 O402 1.258 . S
O411 Mn396 2.162 . S
O411 C399 1.281 . S
O412 Mn396 2.297 . S
O412 C399 1.236 . S
N413 Mn397 2.282 . S
N413 C414 1.328 . S
N413 C418 1.318 . S
C414 N413 1.328 . S
C414 C415 1.457 . S
C414 H419 0.929 . S
C415 C414 1.457 . S
C415 C416 1.291 . S
C415 H428 0.931 . S
C416 C415 1.291 . S
C416 C417 1.373 . S
C416 H429 0.929 . S
C417 C416 1.373 . S
C417 C418 1.396 . S
C417 C424 1.403 . S
C418 C408 1.476 . S
C418 N413 1.318 . S
C418 C417 1.396 . S
H419 C414 0.929 . S
O420 Mn396 2.385 . S
O420 C398 1.234 . S
O421 Mn396 2.209 . S
O421 Mn397 2.215 . S
O421 C398 1.283 . S
O422 Mn396 2.094 . S
O422 C400 1.240 . S
O423 Mn397 2.117 . S
O423 C400 1.264 . S
C424 C417 1.403 . S
C424 C425 1.399 . S
C424 H430 0.929 . S
C425 C405 1.449 . S
C425 C424 1.399 . S
C425 H431 0.930 . S
H426 C406 0.931 . S
H427 C407 0.930 . S
H428 C415 0.931 . S
H429 C416 0.929 . S
H430 C424 0.929 . S
H431 C425 0.930 . S
Mn432 O437 2.095 . S
Mn432 O447 2.162 . S
Mn432 O448 2.297 . S
Mn432 O456 2.385 . S
Mn432 O457 2.209 . S
Mn432 O458 2.094 . S
Mn433 O438 2.121 . S
Mn433 N440 2.257 . S
Mn433 N449 2.282 . S
Mn433 O457 2.215 . S
Mn433 O459 2.117 . S
C434 O456 1.234 . S
C434 O457 1.283 . S
C435 O447 1.281 . S
C435 O448 1.236 . S
C436 O458 1.240 . S
C436 O459 1.264 . S
O437 Mn432 2.095 . S
O437 C446 1.250 . S
O438 Mn433 2.121 . S
O438 C446 1.258 . S
C439 N440 1.326 . S
C439 C443 1.460 . S
C439 H445 0.929 . S
N440 Mn433 2.257 . S
N440 C439 1.326 . S
N440 C444 1.362 . S
C441 C442 1.258 . S
C441 C444 1.431 . S
C441 C461 1.449 . S
C442 C441 1.258 . S
C442 C443 1.477 . S
C442 H462 0.931 . S
C443 C439 1.460 . S
C443 C442 1.477 . S
C443 H463 0.930 . S
C444 N440 1.362 . S
C444 C441 1.431 . S
C444 C454 1.476 . S
H445 C439 0.929 . S
C446 O437 1.250 . S
C446 O438 1.258 . S
O447 Mn432 2.162 . S
O447 C435 1.281 . S
O448 Mn432 2.297 . S
O448 C435 1.236 . S
N449 Mn433 2.282 . S
N449 C450 1.328 . S
N449 C454 1.318 . S
C450 N449 1.328 . S
C450 C451 1.457 . S
C450 H455 0.929 . S
C451 C450 1.457 . S
C451 C452 1.291 . S
C451 H464 0.931 . S
C452 C451 1.291 . S
C452 C453 1.373 . S
C452 H465 0.929 . S
C453 C452 1.373 . S
C453 C454 1.396 . S
C453 C460 1.403 . S
C454 C444 1.476 . S
C454 N449 1.318 . S
C454 C453 1.396 . S
H455 C450 0.929 . S
O456 Mn432 2.385 . S
O456 C434 1.234 . S
O457 Mn432 2.209 . S
O457 Mn433 2.215 . S
O457 C434 1.283 . S
O458 Mn432 2.094 . S
O458 C436 1.240 . S
O459 Mn433 2.117 . S
O459 C436 1.264 . S
C460 C453 1.403 . S
C460 C461 1.399 . S
C460 H466 0.929 . S
C461 C441 1.449 . S
C461 C460 1.399 . S
C461 H467 0.930 . S
H462 C442 0.931 . S
H463 C443 0.930 . S
H464 C451 0.931 . S
H465 C452 0.929 . S
H466 C460 0.929 . S
H467 C461 0.930 . S
Mn468 O473 2.095 . S
Mn468 O483 2.162 . S
Mn468 O484 2.297 . S
Mn468 O492 2.385 . S
Mn468 O493 2.209 . S
Mn468 O494 2.094 . S
Mn469 O474 2.121 . S
Mn469 N476 2.257 . S
Mn469 N485 2.282 . S
Mn469 O493 2.215 . S
Mn469 O495 2.117 . S
C470 O492 1.234 . S
C470 O493 1.283 . S
C471 O483 1.281 . S
C471 O484 1.236 . S
C472 O494 1.240 . S
C472 O495 1.264 . S
O473 Mn468 2.095 . S
O473 C482 1.250 . S
O474 Mn469 2.121 . S
O474 C482 1.258 . S
C475 N476 1.326 . S
C475 C479 1.460 . S
C475 H481 0.929 . S
N476 Mn469 2.257 . S
N476 C475 1.326 . S
N476 C480 1.362 . S
C477 C478 1.258 . S
C477 C480 1.431 . S
C477 C497 1.449 . S
C478 C477 1.258 . S
C478 C479 1.477 . S
C478 H498 0.931 . S
C479 C475 1.460 . S
C479 C478 1.477 . S
C479 H499 0.930 . S
C480 N476 1.362 . S
C480 C477 1.431 . S
C480 C490 1.476 . S
H481 C475 0.929 . S
C482 O473 1.250 . S
C482 O474 1.258 . S
O483 Mn468 2.162 . S
O483 C471 1.281 . S
O484 Mn468 2.297 . S
O484 C471 1.236 . S
N485 Mn469 2.282 . S
N485 C486 1.328 . S
N485 C490 1.318 . S
C486 N485 1.328 . S
C486 C487 1.457 . S
C486 H491 0.929 . S
C487 C486 1.457 . S
C487 C488 1.291 . S
C487 H500 0.931 . S
C488 C487 1.291 . S
C488 C489 1.373 . S
C488 H501 0.929 . S
C489 C488 1.373 . S
C489 C490 1.396 . S
C489 C496 1.403 . S
C490 C480 1.476 . S
C490 N485 1.318 . S
C490 C489 1.396 . S
H491 C486 0.929 . S
O492 Mn468 2.385 . S
O492 C470 1.234 . S
O493 Mn468 2.209 . S
O493 Mn469 2.215 . S
O493 C470 1.283 . S
O494 Mn468 2.094 . S
O494 C472 1.240 . S
O495 Mn469 2.117 . S
O495 C472 1.264 . S
C496 C489 1.403 . S
C496 C497 1.399 . S
C496 H502 0.929 . S
C497 C477 1.449 . S
C497 C496 1.399 . S
C497 H503 0.930 . S
H498 C478 0.931 . S
H499 C479 0.930 . S
H500 C487 0.931 . S
H501 C488 0.929 . S
H502 C496 0.929 . S
H503 C497 0.930 . S
Mn504 O509 2.095 . S
Mn504 O519 2.162 . S
Mn504 O520 2.297 . S
Mn504 O528 2.385 . S
Mn504 O529 2.209 . S
Mn504 O530 2.094 . S
Mn505 O510 2.121 . S
Mn505 N512 2.257 . S
Mn505 N521 2.282 . S
Mn505 O529 2.215 . S
Mn505 O531 2.117 . S
C506 O528 1.234 . S
C506 O529 1.283 . S
C507 O519 1.281 . S
C507 O520 1.236 . S
C508 O530 1.240 . S
C508 O531 1.264 . S
O509 Mn504 2.095 . S
O509 C518 1.250 . S
O510 Mn505 2.121 . S
O510 C518 1.258 . S
C511 N512 1.326 . S
C511 C515 1.460 . S
C511 H517 0.929 . S
N512 Mn505 2.257 . S
N512 C511 1.326 . S
N512 C516 1.362 . S
C513 C514 1.258 . S
C513 C516 1.431 . S
C513 C533 1.449 . S
C514 C513 1.258 . S
C514 C515 1.477 . S
C514 H534 0.931 . S
C515 C511 1.460 . S
C515 C514 1.477 . S
C515 H535 0.930 . S
C516 N512 1.362 . S
C516 C513 1.431 . S
C516 C526 1.476 . S
H517 C511 0.929 . S
C518 O509 1.250 . S
C518 O510 1.258 . S
O519 Mn504 2.162 . S
O519 C507 1.281 . S
O520 Mn504 2.297 . S
O520 C507 1.236 . S
N521 Mn505 2.282 . S
N521 C522 1.328 . S
N521 C526 1.318 . S
C522 N521 1.328 . S
C522 C523 1.457 . S
C522 H527 0.929 . S
C523 C522 1.457 . S
C523 C524 1.291 . S
C523 H536 0.931 . S
C524 C523 1.291 . S
C524 C525 1.373 . S
C524 H537 0.929 . S
C525 C524 1.373 . S
C525 C526 1.396 . S
C525 C532 1.403 . S
C526 C516 1.476 . S
C526 N521 1.318 . S
C526 C525 1.396 . S
H527 C522 0.929 . S
O528 Mn504 2.385 . S
O528 C506 1.234 . S
O529 Mn504 2.209 . S
O529 Mn505 2.215 . S
O529 C506 1.283 . S
O530 Mn504 2.094 . S
O530 C508 1.240 . S
O531 Mn505 2.117 . S
O531 C508 1.264 . S
C532 C525 1.403 . S
C532 C533 1.399 . S
C532 H538 0.929 . S
C533 C513 1.449 . S
C533 C532 1.399 . S
C533 H539 0.930 . S
H534 C514 0.931 . S
H535 C515 0.930 . S
H536 C523 0.931 . S
H537 C524 0.929 . S
H538 C532 0.929 . S
H539 C533 0.930 . S
Mn540 O545 2.095 . S
Mn540 O555 2.162 . S
Mn540 O556 2.297 . S
Mn540 O564 2.385 . S
Mn540 O565 2.209 . S
Mn540 O566 2.094 . S
Mn541 O546 2.121 . S
Mn541 N548 2.257 . S
Mn541 N557 2.282 . S
Mn541 O565 2.215 . S
Mn541 O567 2.117 . S
C542 O564 1.234 . S
C542 O565 1.283 . S
C543 O555 1.281 . S
C543 O556 1.236 . S
C544 O566 1.240 . S
C544 O567 1.264 . S
O545 Mn540 2.095 . S
O545 C554 1.250 . S
O546 Mn541 2.121 . S
O546 C554 1.258 . S
C547 N548 1.326 . S
C547 C551 1.460 . S
C547 H553 0.929 . S
N548 Mn541 2.257 . S
N548 C547 1.326 . S
N548 C552 1.362 . S
C549 C550 1.258 . S
C549 C552 1.431 . S
C549 C569 1.449 . S
C550 C549 1.258 . S
C550 C551 1.477 . S
C550 H570 0.931 . S
C551 C547 1.460 . S
C551 C550 1.477 . S
C551 H571 0.930 . S
C552 N548 1.362 . S
C552 C549 1.431 . S
C552 C562 1.476 . S
H553 C547 0.929 . S
C554 O545 1.250 . S
C554 O546 1.258 . S
O555 Mn540 2.162 . S
O555 C543 1.281 . S
O556 Mn540 2.297 . S
O556 C543 1.236 . S
N557 Mn541 2.282 . S
N557 C558 1.328 . S
N557 C562 1.318 . S
C558 N557 1.328 . S
C558 C559 1.457 . S
C558 H563 0.929 . S
C559 C558 1.457 . S
C559 C560 1.291 . S
C559 H572 0.931 . S
C560 C559 1.291 . S
C560 C561 1.373 . S
C560 H573 0.929 . S
C561 C560 1.373 . S
C561 C562 1.396 . S
C561 C568 1.403 . S
C562 C552 1.476 . S
C562 N557 1.318 . S
C562 C561 1.396 . S
H563 C558 0.929 . S
O564 Mn540 2.385 . S
O564 C542 1.234 . S
O565 Mn540 2.209 . S
O565 Mn541 2.215 . S
O565 C542 1.283 . S
O566 Mn540 2.094 . S
O566 C544 1.240 . S
O567 Mn541 2.117 . S
O567 C544 1.264 . S
C568 C561 1.403 . S
C568 C569 1.399 . S
C568 H574 0.929 . S
C569 C549 1.449 . S
C569 C568 1.399 . S
C569 H575 0.930 . S
H570 C550 0.931 . S
H571 C551 0.930 . S
H572 C559 0.931 . S
H573 C560 0.929 . S
H574 C568 0.929 . S
H575 C569 0.930 . S
Mn576 O581 2.095 . S
Mn576 O591 2.162 . S
Mn576 O592 2.297 . S
Mn576 O600 2.385 . S
Mn576 O601 2.209 . S
Mn576 O602 2.094 . S
Mn577 O582 2.121 . S
Mn577 N584 2.257 . S
Mn577 N593 2.282 . S
Mn577 O601 2.215 . S
Mn577 O603 2.117 . S
C578 O600 1.234 . S
C578 O601 1.283 . S
C579 O591 1.281 . S
C579 O592 1.236 . S
C580 O602 1.240 . S
C580 O603 1.264 . S
O581 Mn576 2.095 . S
O581 C590 1.250 . S
O582 Mn577 2.121 . S
O582 C590 1.258 . S
C583 N584 1.326 . S
C583 C587 1.460 . S
C583 H589 0.929 . S
N584 Mn577 2.257 . S
N584 C583 1.326 . S
N584 C588 1.362 . S
C585 C586 1.258 . S
C585 C588 1.431 . S
C585 C605 1.449 . S
C586 C585 1.258 . S
C586 C587 1.477 . S
C586 H606 0.931 . S
C587 C583 1.460 . S
C587 C586 1.477 . S
C587 H607 0.930 . S
C588 N584 1.362 . S
C588 C585 1.431 . S
C588 C598 1.476 . S
H589 C583 0.929 . S
C590 O581 1.250 . S
C590 O582 1.258 . S
O591 Mn576 2.162 . S
O591 C579 1.281 . S
O592 Mn576 2.297 . S
O592 C579 1.236 . S
N593 Mn577 2.282 . S
N593 C594 1.328 . S
N593 C598 1.318 . S
C594 N593 1.328 . S
C594 C595 1.457 . S
C594 H599 0.929 . S
C595 C594 1.457 . S
C595 C596 1.291 . S
C595 H608 0.931 . S
C596 C595 1.291 . S
C596 C597 1.373 . S
C596 H609 0.929 . S
C597 C596 1.373 . S
C597 C598 1.396 . S
C597 C604 1.403 . S
C598 C588 1.476 . S
C598 N593 1.318 . S
C598 C597 1.396 . S
H599 C594 0.929 . S
O600 Mn576 2.385 . S
O600 C578 1.234 . S
O601 Mn576 2.209 . S
O601 Mn577 2.215 . S
O601 C578 1.283 . S
O602 Mn576 2.094 . S
O602 C580 1.240 . S
O603 Mn577 2.117 . S
O603 C580 1.264 . S
C604 C597 1.403 . S
C604 C605 1.399 . S
C604 H610 0.929 . S
C605 C585 1.449 . S
C605 C604 1.399 . S
C605 H611 0.930 . S
H606 C586 0.931 . S
H607 C587 0.930 . S
H608 C595 0.931 . S
H609 C596 0.929 . S
H610 C604 0.929 . S
H611 C605 0.930 . S
Mn612 O617 2.095 . S
Mn612 O627 2.162 . S
Mn612 O628 2.297 . S
Mn612 O636 2.385 . S
Mn612 O637 2.209 . S
Mn612 O638 2.094 . S
Mn613 O618 2.121 . S
Mn613 N620 2.257 . S
Mn613 N629 2.282 . S
Mn613 O637 2.215 . S
Mn613 O639 2.117 . S
C614 O636 1.234 . S
C614 O637 1.283 . S
C615 O627 1.281 . S
C615 O628 1.236 . S
C616 O638 1.240 . S
C616 O639 1.264 . S
O617 Mn612 2.095 . S
O617 C626 1.250 . S
O618 Mn613 2.121 . S
O618 C626 1.258 . S
C619 N620 1.326 . S
C619 C623 1.460 . S
C619 H625 0.929 . S
N620 Mn613 2.257 . S
N620 C619 1.326 . S
N620 C624 1.362 . S
C621 C622 1.258 . S
C621 C624 1.431 . S
C621 C641 1.449 . S
C622 C621 1.258 . S
C622 C623 1.477 . S
C622 H642 0.931 . S
C623 C619 1.460 . S
C623 C622 1.477 . S
C623 H643 0.930 . S
C624 N620 1.362 . S
C624 C621 1.431 . S
C624 C634 1.476 . S
H625 C619 0.929 . S
C626 O617 1.250 . S
C626 O618 1.258 . S
O627 Mn612 2.162 . S
O627 C615 1.281 . S
O628 Mn612 2.297 . S
O628 C615 1.236 . S
N629 Mn613 2.282 . S
N629 C630 1.328 . S
N629 C634 1.318 . S
C630 N629 1.328 . S
C630 C631 1.457 . S
C630 H635 0.929 . S
C631 C630 1.457 . S
C631 C632 1.291 . S
C631 H644 0.931 . S
C632 C631 1.291 . S
C632 C633 1.373 . S
C632 H645 0.929 . S
C633 C632 1.373 . S
C633 C634 1.396 . S
C633 C640 1.403 . S
C634 C624 1.476 . S
C634 N629 1.318 . S
C634 C633 1.396 . S
H635 C630 0.929 . S
O636 Mn612 2.385 . S
O636 C614 1.234 . S
O637 Mn612 2.209 . S
O637 Mn613 2.215 . S
O637 C614 1.283 . S
O638 Mn612 2.094 . S
O638 C616 1.240 . S
O639 Mn613 2.117 . S
O639 C616 1.264 . S
C640 C633 1.403 . S
C640 C641 1.399 . S
C640 H646 0.929 . S
C641 C621 1.449 . S
C641 C640 1.399 . S
C641 H647 0.930 . S
H642 C622 0.931 . S
H643 C623 0.930 . S
H644 C631 0.931 . S
H645 C632 0.929 . S
H646 C640 0.929 . S
H647 C641 0.930 . S
Mn648 O653 2.095 . S
Mn648 O663 2.162 . S
Mn648 O664 2.297 . S
Mn648 O672 2.385 . S
Mn648 O673 2.209 . S
Mn648 O674 2.094 . S
Mn649 O654 2.121 . S
Mn649 N656 2.257 . S
Mn649 N665 2.282 . S
Mn649 O673 2.215 . S
Mn649 O675 2.117 . S
C650 O672 1.234 . S
C650 O673 1.283 . S
C651 O663 1.281 . S
C651 O664 1.236 . S
C652 O674 1.240 . S
C652 O675 1.264 . S
O653 Mn648 2.095 . S
O653 C662 1.250 . S
O654 Mn649 2.121 . S
O654 C662 1.258 . S
C655 N656 1.326 . S
C655 C659 1.460 . S
C655 H661 0.929 . S
N656 Mn649 2.257 . S
N656 C655 1.326 . S
N656 C660 1.362 . S
C657 C658 1.258 . S
C657 C660 1.431 . S
C657 C677 1.449 . S
C658 C657 1.258 . S
C658 C659 1.477 . S
C658 H678 0.931 . S
C659 C655 1.460 . S
C659 C658 1.477 . S
C659 H679 0.930 . S
C660 N656 1.362 . S
C660 C657 1.431 . S
C660 C670 1.476 . S
H661 C655 0.929 . S
C662 O653 1.250 . S
C662 O654 1.258 . S
O663 Mn648 2.162 . S
O663 C651 1.281 . S
O664 Mn648 2.297 . S
O664 C651 1.236 . S
N665 Mn649 2.282 . S
N665 C666 1.328 . S
N665 C670 1.318 . S
C666 N665 1.328 . S
C666 C667 1.457 . S
C666 H671 0.929 . S
C667 C666 1.457 . S
C667 C668 1.291 . S
C667 H680 0.931 . S
C668 C667 1.291 . S
C668 C669 1.373 . S
C668 H681 0.929 . S
C669 C668 1.373 . S
C669 C670 1.396 . S
C669 C676 1.403 . S
C670 C660 1.476 . S
C670 N665 1.318 . S
C670 C669 1.396 . S
H671 C666 0.929 . S
O672 Mn648 2.385 . S
O672 C650 1.234 . S
O673 Mn648 2.209 . S
O673 Mn649 2.215 . S
O673 C650 1.283 . S
O674 Mn648 2.094 . S
O674 C652 1.240 . S
O675 Mn649 2.117 . S
O675 C652 1.264 . S
C676 C669 1.403 . S
C676 C677 1.399 . S
C676 H682 0.929 . S
C677 C657 1.449 . S
C677 C676 1.399 . S
C677 H683 0.930 . S
H678 C658 0.931 . S
H679 C659 0.930 . S
H680 C667 0.931 . S
H681 C668 0.929 . S
H682 C676 0.929 . S
H683 C677 0.930 . S
Mn684 O689 2.095 . S
Mn684 O699 2.162 . S
Mn684 O700 2.297 . S
Mn684 O708 2.385 . S
Mn684 O709 2.209 . S
Mn684 O710 2.094 . S
Mn685 O690 2.121 . S
Mn685 N692 2.257 . S
Mn685 N701 2.282 . S
Mn685 O709 2.215 . S
Mn685 O711 2.117 . S
C686 O708 1.234 . S
C686 O709 1.283 . S
C687 O699 1.281 . S
C687 O700 1.236 . S
C688 O710 1.240 . S
C688 O711 1.264 . S
O689 Mn684 2.095 . S
O689 C698 1.250 . S
O690 Mn685 2.121 . S
O690 C698 1.258 . S
C691 N692 1.326 . S
C691 C695 1.460 . S
C691 H697 0.929 . S
N692 Mn685 2.257 . S
N692 C691 1.326 . S
N692 C696 1.362 . S
C693 C694 1.258 . S
C693 C696 1.431 . S
C693 C713 1.449 . S
C694 C693 1.258 . S
C694 C695 1.477 . S
C694 H714 0.931 . S
C695 C691 1.460 . S
C695 C694 1.477 . S
C695 H715 0.930 . S
C696 N692 1.362 . S
C696 C693 1.431 . S
C696 C706 1.476 . S
H697 C691 0.929 . S
C698 O689 1.250 . S
C698 O690 1.258 . S
O699 Mn684 2.162 . S
O699 C687 1.281 . S
O700 Mn684 2.297 . S
O700 C687 1.236 . S
N701 Mn685 2.282 . S
N701 C702 1.328 . S
N701 C706 1.318 . S
C702 N701 1.328 . S
C702 C703 1.457 . S
C702 H707 0.929 . S
C703 C702 1.457 . S
C703 C704 1.291 . S
C703 H716 0.931 . S
C704 C703 1.291 . S
C704 C705 1.373 . S
C704 H717 0.929 . S
C705 C704 1.373 . S
C705 C706 1.396 . S
C705 C712 1.403 . S
C706 C696 1.476 . S
C706 N701 1.318 . S
C706 C705 1.396 . S
H707 C702 0.929 . S
O708 Mn684 2.385 . S
O708 C686 1.234 . S
O709 Mn684 2.209 . S
O709 Mn685 2.215 . S
O709 C686 1.283 . S
O710 Mn684 2.094 . S
O710 C688 1.240 . S
O711 Mn685 2.117 . S
O711 C688 1.264 . S
C712 C705 1.403 . S
C712 C713 1.399 . S
C712 H718 0.929 . S
C713 C693 1.449 . S
C713 C712 1.399 . S
C713 H719 0.930 . S
H714 C694 0.931 . S
H715 C695 0.930 . S
H716 C703 0.931 . S
H717 C704 0.929 . S
H718 C712 0.929 . S
H719 C713 0.930 . S
Mn720 O725 2.095 . S
Mn720 O735 2.162 . S
Mn720 O736 2.297 . S
Mn720 O744 2.385 . S
Mn720 O745 2.209 . S
Mn720 O746 2.094 . S
Mn721 O726 2.121 . S
Mn721 N728 2.257 . S
Mn721 N737 2.282 . S
Mn721 O745 2.215 . S
Mn721 O747 2.117 . S
C722 O744 1.234 . S
C722 O745 1.283 . S
C723 O735 1.281 . S
C723 O736 1.236 . S
C724 O746 1.240 . S
C724 O747 1.264 . S
O725 Mn720 2.095 . S
O725 C734 1.250 . S
O726 Mn721 2.121 . S
O726 C734 1.258 . S
C727 N728 1.326 . S
C727 C731 1.460 . S
C727 H733 0.929 . S
N728 Mn721 2.257 . S
N728 C727 1.326 . S
N728 C732 1.362 . S
C729 C730 1.258 . S
C729 C732 1.431 . S
C729 C749 1.449 . S
C730 C729 1.258 . S
C730 C731 1.477 . S
C730 H750 0.931 . S
C731 C727 1.460 . S
C731 C730 1.477 . S
C731 H751 0.930 . S
C732 N728 1.362 . S
C732 C729 1.431 . S
C732 C742 1.476 . S
H733 C727 0.929 . S
C734 O725 1.250 . S
C734 O726 1.258 . S
O735 Mn720 2.162 . S
O735 C723 1.281 . S
O736 Mn720 2.297 . S
O736 C723 1.236 . S
N737 Mn721 2.282 . S
N737 C738 1.328 . S
N737 C742 1.318 . S
C738 N737 1.328 . S
C738 C739 1.457 . S
C738 H743 0.929 . S
C739 C738 1.457 . S
C739 C740 1.291 . S
C739 H752 0.931 . S
C740 C739 1.291 . S
C740 C741 1.373 . S
C740 H753 0.929 . S
C741 C740 1.373 . S
C741 C742 1.396 . S
C741 C748 1.403 . S
C742 C732 1.476 . S
C742 N737 1.318 . S
C742 C741 1.396 . S
H743 C738 0.929 . S
O744 Mn720 2.385 . S
O744 C722 1.234 . S
O745 Mn720 2.209 . S
O745 Mn721 2.215 . S
O745 C722 1.283 . S
O746 Mn720 2.094 . S
O746 C724 1.240 . S
O747 Mn721 2.117 . S
O747 C724 1.264 . S
C748 C741 1.403 . S
C748 C749 1.399 . S
C748 H754 0.929 . S
C749 C729 1.449 . S
C749 C748 1.399 . S
C749 H755 0.930 . S
H750 C730 0.931 . S
H751 C731 0.930 . S
H752 C739 0.931 . S
H753 C740 0.929 . S
H754 C748 0.929 . S
H755 C749 0.930 . S
Mn756 O761 2.095 . S
Mn756 O771 2.162 . S
Mn756 O772 2.297 . S
Mn756 O780 2.385 . S
Mn756 O781 2.209 . S
Mn756 O782 2.094 . S
Mn757 O762 2.121 . S
Mn757 N764 2.257 . S
Mn757 N773 2.282 . S
Mn757 O781 2.215 . S
Mn757 O783 2.117 . S
C758 O780 1.234 . S
C758 O781 1.283 . S
C759 O771 1.281 . S
C759 O772 1.236 . S
C760 O782 1.240 . S
C760 O783 1.264 . S
O761 Mn756 2.095 . S
O761 C770 1.250 . S
O762 Mn757 2.121 . S
O762 C770 1.258 . S
C763 N764 1.326 . S
C763 C767 1.460 . S
C763 H769 0.929 . S
N764 Mn757 2.257 . S
N764 C763 1.326 . S
N764 C768 1.362 . S
C765 C766 1.258 . S
C765 C768 1.431 . S
C765 C785 1.449 . S
C766 C765 1.258 . S
C766 C767 1.477 . S
C766 H786 0.931 . S
C767 C763 1.460 . S
C767 C766 1.477 . S
C767 H787 0.930 . S
C768 N764 1.362 . S
C768 C765 1.431 . S
C768 C778 1.476 . S
H769 C763 0.929 . S
C770 O761 1.250 . S
C770 O762 1.258 . S
O771 Mn756 2.162 . S
O771 C759 1.281 . S
O772 Mn756 2.297 . S
O772 C759 1.236 . S
N773 Mn757 2.282 . S
N773 C774 1.328 . S
N773 C778 1.318 . S
C774 N773 1.328 . S
C774 C775 1.457 . S
C774 H779 0.929 . S
C775 C774 1.457 . S
C775 C776 1.291 . S
C775 H788 0.931 . S
C776 C775 1.291 . S
C776 C777 1.373 . S
C776 H789 0.929 . S
C777 C776 1.373 . S
C777 C778 1.396 . S
C777 C784 1.403 . S
C778 C768 1.476 . S
C778 N773 1.318 . S
C778 C777 1.396 . S
H779 C774 0.929 . S
O780 Mn756 2.385 . S
O780 C758 1.234 . S
O781 Mn756 2.209 . S
O781 Mn757 2.215 . S
O781 C758 1.283 . S
O782 Mn756 2.094 . S
O782 C760 1.240 . S
O783 Mn757 2.117 . S
O783 C760 1.264 . S
C784 C777 1.403 . S
C784 C785 1.399 . S
C784 H790 0.929 . S
C785 C765 1.449 . S
C785 C784 1.399 . S
C785 H791 0.930 . S
H786 C766 0.931 . S
H787 C767 0.930 . S
H788 C775 0.931 . S
H789 C776 0.929 . S
H790 C784 0.929 . S
H791 C785 0.930 . S
Mn792 O797 2.095 . S
Mn792 O807 2.162 . S
Mn792 O808 2.297 . S
Mn792 O816 2.385 . S
Mn792 O817 2.209 . S
Mn792 O818 2.094 . S
Mn793 O798 2.121 . S
Mn793 N800 2.257 . S
Mn793 N809 2.282 . S
Mn793 O817 2.215 . S
Mn793 O819 2.117 . S
C794 O816 1.234 . S
C794 O817 1.283 . S
C795 O807 1.281 . S
C795 O808 1.236 . S
C796 O818 1.240 . S
C796 O819 1.264 . S
O797 Mn792 2.095 . S
O797 C806 1.250 . S
O798 Mn793 2.121 . S
O798 C806 1.258 . S
C799 N800 1.326 . S
C799 C803 1.460 . S
C799 H805 0.929 . S
N800 Mn793 2.257 . S
N800 C799 1.326 . S
N800 C804 1.362 . S
C801 C802 1.258 . S
C801 C804 1.431 . S
C801 C821 1.449 . S
C802 C801 1.258 . S
C802 C803 1.477 . S
C802 H822 0.931 . S
C803 C799 1.460 . S
C803 C802 1.477 . S
C803 H823 0.930 . S
C804 N800 1.362 . S
C804 C801 1.431 . S
C804 C814 1.476 . S
H805 C799 0.929 . S
C806 O797 1.250 . S
C806 O798 1.258 . S
O807 Mn792 2.162 . S
O807 C795 1.281 . S
O808 Mn792 2.297 . S
O808 C795 1.236 . S
N809 Mn793 2.282 . S
N809 C810 1.328 . S
N809 C814 1.318 . S
C810 N809 1.328 . S
C810 C811 1.457 . S
C810 H815 0.929 . S
C811 C810 1.457 . S
C811 C812 1.291 . S
C811 H824 0.931 . S
C812 C811 1.291 . S
C812 C813 1.373 . S
C812 H825 0.929 . S
C813 C812 1.373 . S
C813 C814 1.396 . S
C813 C820 1.403 . S
C814 C804 1.476 . S
C814 N809 1.318 . S
C814 C813 1.396 . S
H815 C810 0.929 . S
O816 Mn792 2.385 . S
O816 C794 1.234 . S
O817 Mn792 2.209 . S
O817 Mn793 2.215 . S
O817 C794 1.283 . S
O818 Mn792 2.094 . S
O818 C796 1.240 . S
O819 Mn793 2.117 . S
O819 C796 1.264 . S
C820 C813 1.403 . S
C820 C821 1.399 . S
C820 H826 0.929 . S
C821 C801 1.449 . S
C821 C820 1.399 . S
C821 H827 0.930 . S
H822 C802 0.931 . S
H823 C803 0.930 . S
H824 C811 0.931 . S
H825 C812 0.929 . S
H826 C820 0.929 . S
H827 C821 0.930 . S
Mn828 O833 2.095 . S
Mn828 O843 2.162 . S
Mn828 O844 2.297 . S
Mn828 O852 2.385 . S
Mn828 O853 2.209 . S
Mn828 O854 2.094 . S
Mn829 O834 2.121 . S
Mn829 N836 2.257 . S
Mn829 N845 2.282 . S
Mn829 O853 2.215 . S
Mn829 O855 2.117 . S
C830 O852 1.234 . S
C830 O853 1.283 . S
C831 O843 1.281 . S
C831 O844 1.236 . S
C832 O854 1.240 . S
C832 O855 1.264 . S
O833 Mn828 2.095 . S
O833 C842 1.250 . S
O834 Mn829 2.121 . S
O834 C842 1.258 . S
C835 N836 1.326 . S
C835 C839 1.460 . S
C835 H841 0.929 . S
N836 Mn829 2.257 . S
N836 C835 1.326 . S
N836 C840 1.362 . S
C837 C838 1.258 . S
C837 C840 1.431 . S
C837 C857 1.449 . S
C838 C837 1.258 . S
C838 C839 1.477 . S
C838 H858 0.931 . S
C839 C835 1.460 . S
C839 C838 1.477 . S
C839 H859 0.930 . S
C840 N836 1.362 . S
C840 C837 1.431 . S
C840 C850 1.476 . S
H841 C835 0.929 . S
C842 O833 1.250 . S
C842 O834 1.258 . S
O843 Mn828 2.162 . S
O843 C831 1.281 . S
O844 Mn828 2.297 . S
O844 C831 1.236 . S
N845 Mn829 2.282 . S
N845 C846 1.328 . S
N845 C850 1.318 . S
C846 N845 1.328 . S
C846 C847 1.457 . S
C846 H851 0.929 . S
C847 C846 1.457 . S
C847 C848 1.291 . S
C847 H860 0.931 . S
C848 C847 1.291 . S
C848 C849 1.373 . S
C848 H861 0.929 . S
C849 C848 1.373 . S
C849 C850 1.396 . S
C849 C856 1.403 . S
C850 C840 1.476 . S
C850 N845 1.318 . S
C850 C849 1.396 . S
H851 C846 0.929 . S
O852 Mn828 2.385 . S
O852 C830 1.234 . S
O853 Mn828 2.209 . S
O853 Mn829 2.215 . S
O853 C830 1.283 . S
O854 Mn828 2.094 . S
O854 C832 1.240 . S
O855 Mn829 2.117 . S
O855 C832 1.264 . S
C856 C849 1.403 . S
C856 C857 1.399 . S
C856 H862 0.929 . S
C857 C837 1.449 . S
C857 C856 1.399 . S
C857 H863 0.930 . S
H858 C838 0.931 . S
H859 C839 0.930 . S
H860 C847 0.931 . S
H861 C848 0.929 . S
H862 C856 0.929 . S
H863 C857 0.930 . S
C864 C865 1.363 . S
C864 C870 1.379 . S
C864 N872 1.356 . S
C865 C864 1.363 . S
C865 C871 1.363 . S
C866 C867 1.363 . S
C866 C871 1.379 . S
C866 N873 1.356 . S
C867 C866 1.363 . S
C867 C870 1.363 . S
N868 C870 1.356 . S
N868 H880 0.984 . S
N868 H881 0.985 . S
N869 C871 1.356 . S
N869 H874 0.984 . S
N869 H875 0.985 . S
C870 C864 1.379 . S
C870 C867 1.363 . S
C870 N868 1.356 . S
C871 C865 1.363 . S
C871 C866 1.379 . S
C871 N869 1.356 . S
N872 C864 1.356 . S
N872 H878 0.984 . S
N872 H879 0.984 . S
N873 C866 1.356 . S
N873 H876 0.984 . S
N873 H877 0.985 . S
H874 N869 0.984 . S
H875 N869 0.985 . S
H876 N873 0.984 . S
H877 N873 0.985 . S
H878 N872 0.984 . S
H879 N872 0.984 . S
H880 N868 0.984 . S
H881 N868 0.985 . S
C882 C883 1.363 . S
C882 C888 1.379 1_655 S
C882 N890 1.356 . S
C883 C882 1.363 . S
C883 C889 1.363 . S
C884 C885 1.363 . S
C884 C889 1.379 1_455 S
C884 N891 1.356 . S
C885 C884 1.363 . S
C885 C888 1.363 . S
N886 C888 1.356 . S
N886 H898 0.984 . S
N886 H899 0.985 . S
N887 C889 1.356 . S
N887 H892 0.984 . S
N887 H893 0.985 . S
C888 C882 1.379 1_455 S
C888 C885 1.363 . S
C888 N886 1.356 . S
C889 C883 1.363 . S
C889 C884 1.379 1_655 S
C889 N887 1.356 . S
N890 C882 1.356 . S
N890 H896 0.984 . S
N890 H897 0.984 . S
N891 C884 1.356 . S
N891 H894 0.984 . S
N891 H895 0.985 . S
H892 N887 0.984 . S
H893 N887 0.985 . S
H894 N891 0.984 . S
H895 N891 0.985 . S
H896 N890 0.984 . S
H897 N890 0.984 . S
H898 N886 0.984 . S
H899 N886 0.985 . S
C900 C901 1.363 . S
C900 C906 1.379 . S
C900 N908 1.356 . S
C901 C900 1.363 . S
C901 C907 1.363 . S
C902 C903 1.363 . S
C902 C907 1.379 . S
C902 N909 1.356 . S
C903 C902 1.363 . S
C903 C906 1.363 . S
N904 C906 1.356 . S
N904 H916 0.984 . S
N904 H917 0.985 . S
N905 C907 1.356 . S
N905 H910 0.984 . S
N905 H911 0.985 . S
C906 C900 1.379 . S
C906 C903 1.363 . S
C906 N904 1.356 . S
C907 C901 1.363 . S
C907 C902 1.379 . S
C907 N905 1.356 . S
N908 C900 1.356 . S
N908 H914 0.984 . S
N908 H915 0.984 . S
N909 C902 1.356 . S
N909 H912 0.984 . S
N909 H913 0.985 . S
H910 N905 0.984 . S
H911 N905 0.985 . S
H912 N909 0.984 . S
H913 N909 0.985 . S
H914 N908 0.984 . S
H915 N908 0.984 . S
H916 N904 0.984 . S
H917 N904 0.985 . S
C918 C919 1.363 . S
C918 C924 1.379 1_455 S
C918 N926 1.356 . S
C919 C918 1.363 . S
C919 C925 1.363 . S
C920 C921 1.363 . S
C920 C925 1.379 1_655 S
C920 N927 1.356 . S
C921 C920 1.363 . S
C921 C924 1.363 . S
N922 C924 1.356 . S
N922 H934 0.984 . S
N922 H935 0.985 . S
N923 C925 1.356 . S
N923 H928 0.984 . S
N923 H929 0.985 . S
C924 C918 1.379 1_655 S
C924 C921 1.363 . S
C924 N922 1.356 . S
C925 C919 1.363 . S
C925 C920 1.379 1_455 S
C925 N923 1.356 . S
N926 C918 1.356 . S
N926 H932 0.984 . S
N926 H933 0.984 . S
N927 C920 1.356 . S
N927 H930 0.984 . S
N927 H931 0.985 . S
H928 N923 0.984 . S
H929 N923 0.985 . S
H930 N927 0.984 . S
H931 N927 0.985 . S
H932 N926 0.984 . S
H933 N926 0.984 . S
H934 N922 0.984 . S
H935 N922 0.985 . S
C936 C937 1.363 . S
C936 C942 1.379 . S
C936 N944 1.356 . S
C937 C936 1.363 . S
C937 C943 1.363 . S
C938 C939 1.363 . S
C938 C943 1.379 . S
C938 N945 1.356 . S
C939 C938 1.363 . S
C939 C942 1.363 . S
N940 C942 1.356 . S
N940 H952 0.984 . S
N940 H953 0.985 . S
N941 C943 1.356 . S
N941 H946 0.984 . S
N941 H947 0.985 . S
C942 C936 1.379 . S
C942 C939 1.363 . S
C942 N940 1.356 . S
C943 C937 1.363 . S
C943 C938 1.379 . S
C943 N941 1.356 . S
N944 C936 1.356 . S
N944 H950 0.984 . S
N944 H951 0.984 . S
N945 C938 1.356 . S
N945 H948 0.984 . S
N945 H949 0.985 . S
H946 N941 0.984 . S
H947 N941 0.985 . S
H948 N945 0.984 . S
H949 N945 0.985 . S
H950 N944 0.984 . S
H951 N944 0.984 . S
H952 N940 0.984 . S
H953 N940 0.985 . S
C954 C955 1.363 1_455 S
C954 C960 1.379 . S
C954 N962 1.356 1_455 S
C955 C954 1.363 1_655 S
C955 C961 1.363 . S
C956 C957 1.363 . S
C956 C961 1.379 1_455 S
C956 N963 1.356 . S
C957 C956 1.363 . S
C957 C960 1.363 . S
N958 C960 1.356 . S
N958 H970 0.984 . S
N958 H971 0.985 . S
N959 C961 1.356 . S
N959 H964 0.984 . S
N959 H965 0.985 . S
C960 C954 1.379 . S
C960 C957 1.363 . S
C960 N958 1.356 . S
C961 C955 1.363 . S
C961 C956 1.379 1_655 S
C961 N959 1.356 . S
N962 C954 1.356 1_655 S
N962 H968 0.984 . S
N962 H969 0.984 . S
N963 C956 1.356 . S
N963 H966 0.984 . S
N963 H967 0.985 . S
H964 N959 0.984 . S
H965 N959 0.985 . S
H966 N963 0.984 . S
H967 N963 0.985 . S
H968 N962 0.984 . S
H969 N962 0.984 . S
H970 N958 0.984 . S
H971 N958 0.985 . S
C972 C973 1.363 . S
C972 C978 1.379 . S
C972 N980 1.356 . S
C973 C972 1.363 . S
C973 C979 1.363 . S
C974 C975 1.363 . S
C974 C979 1.379 . S
C974 N981 1.356 . S
C975 C974 1.363 . S
C975 C978 1.363 . S
N976 C978 1.356 . S
N976 H988 0.984 . S
N976 H989 0.985 . S
N977 C979 1.356 . S
N977 H982 0.984 . S
N977 H983 0.985 . S
C978 C972 1.379 . S
C978 C975 1.363 . S
C978 N976 1.356 . S
C979 C973 1.363 . S
C979 C974 1.379 . S
C979 N977 1.356 . S
N980 C972 1.356 . S
N980 H986 0.984 . S
N980 H987 0.984 . S
N981 C974 1.356 . S
N981 H984 0.984 . S
N981 H985 0.985 . S
H982 N977 0.984 . S
H983 N977 0.985 . S
H984 N981 0.984 . S
H985 N981 0.985 . S
H986 N980 0.984 . S
H987 N980 0.984 . S
H988 N976 0.984 . S
H989 N976 0.985 . S
C990 C991 1.363 . S
C990 C996 1.379 1_655 S
C990 N998 1.356 . S
C991 C990 1.363 . S
C991 C997 1.363 . S
C992 C993 1.363 . S
C992 C997 1.379 1_455 S
C992 N999 1.356 . S
C993 C992 1.363 . S
C993 C996 1.363 . S
N994 C996 1.356 . S
N994 H1006 0.984 . S
N994 H1007 0.985 . S
N995 C997 1.356 . S
N995 H1000 0.984 . S
N995 H1001 0.985 . S
C996 C990 1.379 1_455 S
C996 C993 1.363 . S
C996 N994 1.356 . S
C997 C991 1.363 . S
C997 C992 1.379 1_655 S
C997 N995 1.356 . S
N998 C990 1.356 . S
N998 H1004 0.984 . S
N998 H1005 0.984 . S
N999 C992 1.356 . S
N999 H1002 0.984 . S
N999 H1003 0.985 . S
H1000 N995 0.984 . S
H1001 N995 0.985 . S
H1002 N999 0.984 . S
H1003 N999 0.985 . S
H1004 N998 0.984 . S
H1005 N998 0.984 . S
H1006 N994 0.984 . S
H1007 N994 0.985 . S
C1008 C1009 1.363 . S
C1008 C1014 1.379 . S
C1008 N1016 1.356 . S
C1009 C1008 1.363 . S
C1009 C1015 1.363 . S
C1010 C1011 1.363 . S
C1010 C1015 1.379 . S
C1010 N1017 1.356 . S
C1011 C1010 1.363 . S
C1011 C1014 1.363 . S
N1012 C1014 1.356 . S
N1012 H1024 0.984 . S
N1012 H1025 0.985 . S
N1013 C1015 1.356 . S
N1013 H1018 0.984 . S
N1013 H1019 0.985 . S
C1014 C1008 1.379 . S
C1014 C1011 1.363 . S
C1014 N1012 1.356 . S
C1015 C1009 1.363 . S
C1015 C1010 1.379 . S
C1015 N1013 1.356 . S
N1016 C1008 1.356 . S
N1016 H1022 0.984 . S
N1016 H1023 0.984 . S
N1017 C1010 1.356 . S
N1017 H1020 0.984 . S
N1017 H1021 0.985 . S
H1018 N1013 0.984 . S
H1019 N1013 0.985 . S
H1020 N1017 0.984 . S
H1021 N1017 0.985 . S
H1022 N1016 0.984 . S
H1023 N1016 0.984 . S
H1024 N1012 0.984 . S
H1025 N1012 0.985 . S
C1026 C1027 1.363 . S
C1026 C1032 1.379 1_556 S
C1026 N1034 1.356 . S
C1027 C1026 1.363 . S
C1027 C1033 1.363 . S
C1028 C1029 1.363 . S
C1028 C1033 1.379 1_554 S
C1028 N1035 1.356 . S
C1029 C1028 1.363 . S
C1029 C1032 1.363 . S
N1030 C1032 1.356 . S
N1030 H1042 0.984 . S
N1030 H1043 0.985 . S
N1031 C1033 1.356 . S
N1031 H1036 0.984 . S
N1031 H1037 0.985 . S
C1032 C1026 1.379 1_554 S
C1032 C1029 1.363 . S
C1032 N1030 1.356 . S
C1033 C1027 1.363 . S
C1033 C1028 1.379 1_556 S
C1033 N1031 1.356 . S
N1034 C1026 1.356 . S
N1034 H1040 0.984 . S
N1034 H1041 0.984 . S
N1035 C1028 1.356 . S
N1035 H1038 0.984 . S
N1035 H1039 0.985 . S
H1036 N1031 0.984 . S
H1037 N1031 0.985 . S
H1038 N1035 0.984 . S
H1039 N1035 0.985 . S
H1040 N1034 0.984 . S
H1041 N1034 0.984 . S
H1042 N1030 0.984 . S
H1043 N1030 0.985 . S
C1044 C1045 1.363 . S
C1044 C1050 1.379 . S
C1044 N1052 1.356 . S
C1045 C1044 1.363 . S
C1045 C1051 1.363 . S
C1046 C1047 1.363 . S
C1046 C1051 1.379 . S
C1046 N1053 1.356 . S
C1047 C1046 1.363 . S
C1047 C1050 1.363 . S
N1048 C1050 1.356 . S
N1048 H1060 0.984 . S
N1048 H1061 0.985 . S
N1049 C1051 1.356 . S
N1049 H1054 0.984 . S
N1049 H1055 0.985 . S
C1050 C1044 1.379 . S
C1050 C1047 1.363 . S
C1050 N1048 1.356 . S
C1051 C1045 1.363 . S
C1051 C1046 1.379 . S
C1051 N1049 1.356 . S
N1052 C1044 1.356 . S
N1052 H1058 0.984 . S
N1052 H1059 0.984 . S
N1053 C1046 1.356 . S
N1053 H1056 0.984 . S
N1053 H1057 0.985 . S
H1054 N1049 0.984 . S
H1055 N1049 0.985 . S
H1056 N1053 0.984 . S
H1057 N1053 0.985 . S
H1058 N1052 0.984 . S
H1059 N1052 0.984 . S
H1060 N1048 0.984 . S
H1061 N1048 0.985 . S
C1062 C1063 1.363 . S
C1062 C1068 1.379 1_554 S
C1062 N1070 1.356 . S
C1063 C1062 1.363 . S
C1063 C1069 1.363 . S
C1064 C1065 1.363 . S
C1064 C1069 1.379 1_556 S
C1064 N1071 1.356 . S
C1065 C1064 1.363 . S
C1065 C1068 1.363 . S
N1066 C1068 1.356 . S
N1066 H1078 0.984 . S
N1066 H1079 0.985 . S
N1067 C1069 1.356 . S
N1067 H1072 0.984 . S
N1067 H1073 0.985 . S
C1068 C1062 1.379 1_556 S
C1068 C1065 1.363 . S
C1068 N1066 1.356 . S
C1069 C1063 1.363 . S
C1069 C1064 1.379 1_554 S
C1069 N1067 1.356 . S
N1070 C1062 1.356 . S
N1070 H1076 0.984 . S
N1070 H1077 0.984 . S
N1071 C1064 1.356 . S
N1071 H1074 0.984 . S
N1071 H1075 0.985 . S
H1072 N1067 0.984 . S
H1073 N1067 0.985 . S
H1074 N1071 0.984 . S
H1075 N1071 0.985 . S
H1076 N1070 0.984 . S
H1077 N1070 0.984 . S
H1078 N1066 0.984 . S
H1079 N1066 0.985 . S
C1080 C1081 1.363 . S
C1080 C1086 1.379 . S
C1080 N1088 1.356 . S
C1081 C1080 1.363 . S
C1081 C1087 1.363 . S
C1082 C1083 1.363 . S
C1082 C1087 1.379 . S
C1082 N1089 1.356 . S
C1083 C1082 1.363 . S
C1083 C1086 1.363 . S
N1084 C1086 1.356 . S
N1084 H1096 0.984 . S
N1084 H1097 0.985 . S
N1085 C1087 1.356 . S
N1085 H1090 0.984 . S
N1085 H1091 0.985 . S
C1086 C1080 1.379 . S
C1086 C1083 1.363 . S
C1086 N1084 1.356 . S
C1087 C1081 1.363 . S
C1087 C1082 1.379 . S
C1087 N1085 1.356 . S
N1088 C1080 1.356 . S
N1088 H1094 0.984 . S
N1088 H1095 0.984 . S
N1089 C1082 1.356 . S
N1089 H1092 0.984 . S
N1089 H1093 0.985 . S
H1090 N1085 0.984 . S
H1091 N1085 0.985 . S
H1092 N1089 0.984 . S
H1093 N1089 0.985 . S
H1094 N1088 0.984 . S
H1095 N1088 0.984 . S
H1096 N1084 0.984 . S
H1097 N1084 0.985 . S
C1098 C1099 1.363 . S
C1098 C1104 1.379 1_554 S
C1098 N1106 1.356 . S
C1099 C1098 1.363 . S
C1099 C1105 1.363 . S
C1100 C1101 1.363 . S
C1100 C1105 1.379 1_556 S
C1100 N1107 1.356 . S
C1101 C1100 1.363 . S
C1101 C1104 1.363 . S
N1102 C1104 1.356 . S
N1102 H1114 0.984 . S
N1102 H1115 0.985 . S
N1103 C1105 1.356 . S
N1103 H1108 0.984 . S
N1103 H1109 0.985 . S
C1104 C1098 1.379 1_556 S
C1104 C1101 1.363 . S
C1104 N1102 1.356 . S
C1105 C1099 1.363 . S
C1105 C1100 1.379 1_554 S
C1105 N1103 1.356 . S
N1106 C1098 1.356 . S
N1106 H1112 0.984 . S
N1106 H1113 0.984 . S
N1107 C1100 1.356 . S
N1107 H1110 0.984 . S
N1107 H1111 0.985 . S
H1108 N1103 0.984 . S
H1109 N1103 0.985 . S
H1110 N1107 0.984 . S
H1111 N1107 0.985 . S
H1112 N1106 0.984 . S
H1113 N1106 0.984 . S
H1114 N1102 0.984 . S
H1115 N1102 0.985 . S
C1116 C1117 1.363 . S
C1116 C1122 1.379 . S
C1116 N1124 1.356 . S
C1117 C1116 1.363 . S
C1117 C1123 1.363 . S
C1118 C1119 1.363 . S
C1118 C1123 1.379 . S
C1118 N1125 1.356 . S
C1119 C1118 1.363 . S
C1119 C1122 1.363 . S
N1120 C1122 1.356 . S
N1120 H1132 0.984 . S
N1120 H1133 0.985 . S
N1121 C1123 1.356 . S
N1121 H1126 0.984 . S
N1121 H1127 0.985 . S
C1122 C1116 1.379 . S
C1122 C1119 1.363 . S
C1122 N1120 1.356 . S
C1123 C1117 1.363 . S
C1123 C1118 1.379 . S
C1123 N1121 1.356 . S
N1124 C1116 1.356 . S
N1124 H1130 0.984 . S
N1124 H1131 0.984 . S
N1125 C1118 1.356 . S
N1125 H1128 0.984 . S
N1125 H1129 0.985 . S
H1126 N1121 0.984 . S
H1127 N1121 0.985 . S
H1128 N1125 0.984 . S
H1129 N1125 0.985 . S
H1130 N1124 0.984 . S
H1131 N1124 0.984 . S
H1132 N1120 0.984 . S
H1133 N1120 0.985 . S
C1134 C1135 1.363 . S
C1134 C1140 1.379 1_554 S
C1134 N1142 1.356 . S
C1135 C1134 1.363 . S
C1135 C1141 1.363 . S
C1136 C1137 1.363 . S
C1136 C1141 1.379 1_556 S
C1136 N1143 1.356 . S
C1137 C1136 1.363 . S
C1137 C1140 1.363 . S
N1138 C1140 1.356 . S
N1138 H1150 0.984 . S
N1138 H1151 0.985 . S
N1139 C1141 1.356 . S
N1139 H1144 0.984 . S
N1139 H1145 0.985 . S
C1140 C1134 1.379 1_556 S
C1140 C1137 1.363 . S
C1140 N1138 1.356 . S
C1141 C1135 1.363 . S
C1141 C1136 1.379 1_554 S
C1141 N1139 1.356 . S
N1142 C1134 1.356 . S
N1142 H1148 0.984 . S
N1142 H1149 0.984 . S
N1143 C1136 1.356 . S
N1143 H1146 0.984 . S
N1143 H1147 0.985 . S
H1144 N1139 0.984 . S
H1145 N1139 0.985 . S
H1146 N1143 0.984 . S
H1147 N1143 0.985 . S
H1148 N1142 0.984 . S
H1149 N1142 0.984 . S
H1150 N1138 0.984 . S
H1151 N1138 0.985 . S
C1152 C1153 1.363 . S
C1152 C1158 1.379 . S
C1152 N1160 1.356 . S
C1153 C1152 1.363 . S
C1153 C1159 1.363 . S
C1154 C1155 1.363 . S
C1154 C1159 1.379 . S
C1154 N1161 1.356 . S
C1155 C1154 1.363 . S
C1155 C1158 1.363 . S
N1156 C1158 1.356 . S
N1156 H1168 0.984 . S
N1156 H1169 0.985 . S
N1157 C1159 1.356 . S
N1157 H1162 0.984 . S
N1157 H1163 0.985 . S
C1158 C1152 1.379 . S
C1158 C1155 1.363 . S
C1158 N1156 1.356 . S
C1159 C1153 1.363 . S
C1159 C1154 1.379 . S
C1159 N1157 1.356 . S
N1160 C1152 1.356 . S
N1160 H1166 0.984 . S
N1160 H1167 0.984 . S
N1161 C1154 1.356 . S
N1161 H1164 0.984 . S
N1161 H1165 0.985 . S
H1162 N1157 0.984 . S
H1163 N1157 0.985 . S
H1164 N1161 0.984 . S
H1165 N1161 0.985 . S
H1166 N1160 0.984 . S
H1167 N1160 0.984 . S
H1168 N1156 0.984 . S
H1169 N1156 0.985 . S
C1170 C1171 1.363 . S
C1170 C1176 1.379 . S
C1170 N1178 1.356 . S
C1171 C1170 1.363 . S
C1171 C1177 1.363 . S
C1172 C1173 1.363 . S
C1172 C1177 1.379 . S
C1172 N1179 1.356 . S
C1173 C1172 1.363 . S
C1173 C1176 1.363 . S
N1174 C1176 1.356 . S
N1174 H1186 0.984 . S
N1174 H1187 0.985 . S
N1175 C1177 1.356 . S
N1175 H1180 0.984 . S
N1175 H1181 0.985 . S
C1176 C1170 1.379 . S
C1176 C1173 1.363 . S
C1176 N1174 1.356 . S
C1177 C1171 1.363 . S
C1177 C1172 1.379 . S
C1177 N1175 1.356 . S
N1178 C1170 1.356 . S
N1178 H1184 0.984 . S
N1178 H1185 0.984 . S
N1179 C1172 1.356 . S
N1179 H1182 0.984 . S
N1179 H1183 0.985 . S
H1180 N1175 0.984 . S
H1181 N1175 0.985 . S
H1182 N1179 0.984 . S
H1183 N1179 0.985 . S
H1184 N1178 0.984 . S
H1185 N1178 0.984 . S
H1186 N1174 0.984 . S
H1187 N1174 0.985 . S
C1188 C1189 1.363 . S
C1188 C1194 1.379 1_565 S
C1188 N1196 1.356 . S
C1189 C1188 1.363 . S
C1189 C1195 1.363 . S
C1190 C1191 1.363 . S
C1190 C1195 1.379 1_545 S
C1190 N1197 1.356 . S
C1191 C1190 1.363 . S
C1191 C1194 1.363 . S
N1192 C1194 1.356 . S
N1192 H1204 0.984 . S
N1192 H1205 0.985 . S
N1193 C1195 1.356 . S
N1193 H1198 0.984 . S
N1193 H1199 0.985 . S
C1194 C1188 1.379 1_545 S
C1194 C1191 1.363 . S
C1194 N1192 1.356 . S
C1195 C1189 1.363 . S
C1195 C1190 1.379 1_565 S
C1195 N1193 1.356 . S
N1196 C1188 1.356 . S
N1196 H1202 0.984 . S
N1196 H1203 0.984 . S
N1197 C1190 1.356 . S
N1197 H1200 0.984 . S
N1197 H1201 0.985 . S
H1198 N1193 0.984 . S
H1199 N1193 0.985 . S
H1200 N1197 0.984 . S
H1201 N1197 0.985 . S
H1202 N1196 0.984 . S
H1203 N1196 0.984 . S
H1204 N1192 0.984 . S
H1205 N1192 0.985 . S
C1206 C1207 1.363 . S
C1206 C1212 1.379 . S
C1206 N1214 1.356 . S
C1207 C1206 1.363 . S
C1207 C1213 1.363 . S
C1208 C1209 1.363 . S
C1208 C1213 1.379 . S
C1208 N1215 1.356 . S
C1209 C1208 1.363 . S
C1209 C1212 1.363 . S
N1210 C1212 1.356 . S
N1210 H1222 0.984 . S
N1210 H1223 0.985 . S
N1211 C1213 1.356 . S
N1211 H1216 0.984 . S
N1211 H1217 0.985 . S
C1212 C1206 1.379 . S
C1212 C1209 1.363 . S
C1212 N1210 1.356 . S
C1213 C1207 1.363 . S
C1213 C1208 1.379 . S
C1213 N1211 1.356 . S
N1214 C1206 1.356 . S
N1214 H1220 0.984 . S
N1214 H1221 0.984 . S
N1215 C1208 1.356 . S
N1215 H1218 0.984 . S
N1215 H1219 0.985 . S
H1216 N1211 0.984 . S
H1217 N1211 0.985 . S
H1218 N1215 0.984 . S
H1219 N1215 0.985 . S
H1220 N1214 0.984 . S
H1221 N1214 0.984 . S
H1222 N1210 0.984 . S
H1223 N1210 0.985 . S
C1224 C1225 1.363 . S
C1224 C1230 1.379 1_565 S
C1224 N1232 1.356 . S
C1225 C1224 1.363 . S
C1225 C1231 1.363 . S
C1226 C1227 1.363 . S
C1226 C1231 1.379 1_545 S
C1226 N1233 1.356 . S
C1227 C1226 1.363 . S
C1227 C1230 1.363 . S
N1228 C1230 1.356 . S
N1228 H1240 0.984 . S
N1228 H1241 0.985 . S
N1229 C1231 1.356 . S
N1229 H1234 0.984 . S
N1229 H1235 0.985 . S
C1230 C1224 1.379 1_545 S
C1230 C1227 1.363 . S
C1230 N1228 1.356 . S
C1231 C1225 1.363 . S
C1231 C1226 1.379 1_565 S
C1231 N1229 1.356 . S
N1232 C1224 1.356 . S
N1232 H1238 0.984 . S
N1232 H1239 0.984 . S
N1233 C1226 1.356 . S
N1233 H1236 0.984 . S
N1233 H1237 0.985 . S
H1234 N1229 0.984 . S
H1235 N1229 0.985 . S
H1236 N1233 0.984 . S
H1237 N1233 0.985 . S
H1238 N1232 0.984 . S
H1239 N1232 0.984 . S
H1240 N1228 0.984 . S
H1241 N1228 0.985 . S
C1242 C1243 1.363 . S
C1242 C1248 1.379 . S
C1242 N1250 1.356 . S
C1243 C1242 1.363 . S
C1243 C1249 1.363 . S
C1244 C1245 1.363 . S
C1244 C1249 1.379 . S
C1244 N1251 1.356 . S
C1245 C1244 1.363 . S
C1245 C1248 1.363 . S
N1246 C1248 1.356 . S
N1246 H1258 0.984 . S
N1246 H1259 0.985 . S
N1247 C1249 1.356 . S
N1247 H1252 0.984 . S
N1247 H1253 0.985 . S
C1248 C1242 1.379 . S
C1248 C1245 1.363 . S
C1248 N1246 1.356 . S
C1249 C1243 1.363 . S
C1249 C1244 1.379 . S
C1249 N1247 1.356 . S
N1250 C1242 1.356 . S
N1250 H1256 0.984 . S
N1250 H1257 0.984 . S
N1251 C1244 1.356 . S
N1251 H1254 0.984 . S
N1251 H1255 0.985 . S
H1252 N1247 0.984 . S
H1253 N1247 0.985 . S
H1254 N1251 0.984 . S
H1255 N1251 0.985 . S
H1256 N1250 0.984 . S
H1257 N1250 0.984 . S
H1258 N1246 0.984 . S
H1259 N1246 0.985 . S
C1260 C1261 1.363 . S
C1260 C1266 1.379 1_565 S
C1260 N1268 1.356 . S
C1261 C1260 1.363 . S
C1261 C1267 1.363 . S
C1262 C1263 1.363 . S
C1262 C1267 1.379 1_545 S
C1262 N1269 1.356 . S
C1263 C1262 1.363 . S
C1263 C1266 1.363 . S
N1264 C1266 1.356 . S
N1264 H1276 0.984 . S
N1264 H1277 0.985 . S
N1265 C1267 1.356 . S
N1265 H1270 0.984 . S
N1265 H1271 0.985 . S
C1266 C1260 1.379 1_545 S
C1266 C1263 1.363 . S
C1266 N1264 1.356 . S
C1267 C1261 1.363 . S
C1267 C1262 1.379 1_565 S
C1267 N1265 1.356 . S
N1268 C1260 1.356 . S
N1268 H1274 0.984 . S
N1268 H1275 0.984 . S
N1269 C1262 1.356 . S
N1269 H1272 0.984 . S
N1269 H1273 0.985 . S
H1270 N1265 0.984 . S
H1271 N1265 0.985 . S
H1272 N1269 0.984 . S
H1273 N1269 0.985 . S
H1274 N1268 0.984 . S
H1275 N1268 0.984 . S
H1276 N1264 0.984 . S
H1277 N1264 0.985 . S
C1278 C1279 1.363 . S
C1278 C1284 1.379 1_545 S
C1278 N1286 1.356 . S
C1279 C1278 1.363 . S
C1279 C1285 1.363 . S
C1280 C1281 1.363 . S
C1280 C1285 1.379 1_565 S
C1280 N1287 1.356 . S
C1281 C1280 1.363 . S
C1281 C1284 1.363 . S
N1282 C1284 1.356 . S
N1282 H1294 0.984 . S
N1282 H1295 0.985 . S
N1283 C1285 1.356 . S
N1283 H1288 0.984 . S
N1283 H1289 0.985 . S
C1284 C1278 1.379 1_565 S
C1284 C1281 1.363 . S
C1284 N1282 1.356 . S
C1285 C1279 1.363 . S
C1285 C1280 1.379 1_545 S
C1285 N1283 1.356 . S
N1286 C1278 1.356 . S
N1286 H1292 0.984 . S
N1286 H1293 0.984 . S
N1287 C1280 1.356 . S
N1287 H1290 0.984 . S
N1287 H1291 0.985 . S
H1288 N1283 0.984 . S
H1289 N1283 0.985 . S
H1290 N1287 0.984 . S
H1291 N1287 0.985 . S
H1292 N1286 0.984 . S
H1293 N1286 0.984 . S
H1294 N1282 0.984 . S
H1295 N1282 0.985 . S
C1296 C1297 1.363 . S
C1296 C1302 1.379 . S
C1296 N1304 1.356 . S
C1297 C1296 1.363 . S
C1297 C1303 1.363 . S
C1298 C1299 1.363 . S
C1298 C1303 1.379 . S
C1298 N1305 1.356 . S
C1299 C1298 1.363 . S
C1299 C1302 1.363 . S
N1300 C1302 1.356 . S
N1300 H1312 0.984 . S
N1300 H1313 0.985 . S
N1301 C1303 1.356 . S
N1301 H1306 0.984 . S
N1301 H1307 0.985 . S
C1302 C1296 1.379 . S
C1302 C1299 1.363 . S
C1302 N1300 1.356 . S
C1303 C1297 1.363 . S
C1303 C1298 1.379 . S
C1303 N1301 1.356 . S
N1304 C1296 1.356 . S
N1304 H1310 0.984 . S
N1304 H1311 0.984 . S
N1305 C1298 1.356 . S
N1305 H1308 0.984 . S
N1305 H1309 0.985 . S
H1306 N1301 0.984 . S
H1307 N1301 0.985 . S
H1308 N1305 0.984 . S
H1309 N1305 0.985 . S
H1310 N1304 0.984 . S
H1311 N1304 0.984 . S
H1312 N1300 0.984 . S
H1313 N1300 0.985 . S
C1314 C1315 1.363 . S
C1314 C1320 1.379 . S
C1314 N1322 1.356 . S
C1315 C1314 1.363 . S
C1315 C1321 1.363 . S
C1316 C1317 1.363 . S
C1316 C1321 1.379 . S
C1316 N1323 1.356 . S
C1317 C1316 1.363 . S
C1317 C1320 1.363 . S
N1318 C1320 1.356 . S
N1318 H1330 0.984 . S
N1318 H1331 0.985 . S
N1319 C1321 1.356 . S
N1319 H1324 0.984 . S
N1319 H1325 0.985 . S
C1320 C1314 1.379 . S
C1320 C1317 1.363 . S
C1320 N1318 1.356 . S
C1321 C1315 1.363 . S
C1321 C1316 1.379 . S
C1321 N1319 1.356 . S
N1322 C1314 1.356 . S
N1322 H1328 0.984 . S
N1322 H1329 0.984 . S
N1323 C1316 1.356 . S
N1323 H1326 0.984 . S
N1323 H1327 0.985 . S
H1324 N1319 0.984 . S
H1325 N1319 0.985 . S
H1326 N1323 0.984 . S
H1327 N1323 0.985 . S
H1328 N1322 0.984 . S
H1329 N1322 0.984 . S
H1330 N1318 0.984 . S
H1331 N1318 0.985 . S
C1332 C1333 1.363 . S
C1332 C1338 1.379 . S
C1332 N1340 1.356 . S
C1333 C1332 1.363 . S
C1333 C1339 1.363 . S
C1334 C1335 1.363 . S
C1334 C1339 1.379 . S
C1334 N1341 1.356 . S
C1335 C1334 1.363 . S
C1335 C1338 1.363 . S
N1336 C1338 1.356 . S
N1336 H1348 0.984 . S
N1336 H1349 0.985 . S
N1337 C1339 1.356 . S
N1337 H1342 0.984 . S
N1337 H1343 0.985 . S
C1338 C1332 1.379 . S
C1338 C1335 1.363 . S
C1338 N1336 1.356 . S
C1339 C1333 1.363 . S
C1339 C1334 1.379 . S
C1339 N1337 1.356 . S
N1340 C1332 1.356 . S
N1340 H1346 0.984 . S
N1340 H1347 0.984 . S
N1341 C1334 1.356 . S
N1341 H1344 0.984 . S
N1341 H1345 0.985 . S
H1342 N1337 0.984 . S
H1343 N1337 0.985 . S
H1344 N1341 0.984 . S
H1345 N1341 0.985 . S
H1346 N1340 0.984 . S
H1347 N1340 0.984 . S
H1348 N1336 0.984 . S
H1349 N1336 0.985 . S
C1350 C1351 1.363 . S
C1350 C1356 1.379 . S
C1350 N1358 1.356 . S
C1351 C1350 1.363 . S
C1351 C1357 1.363 . S
C1352 C1353 1.363 . S
C1352 C1357 1.379 . S
C1352 N1359 1.356 . S
C1353 C1352 1.363 . S
C1353 C1356 1.363 . S
N1354 C1356 1.356 . S
N1354 H1366 0.984 . S
N1354 H1367 0.985 . S
N1355 C1357 1.356 . S
N1355 H1360 0.984 . S
N1355 H1361 0.985 . S
C1356 C1350 1.379 . S
C1356 C1353 1.363 . S
C1356 N1354 1.356 . S
C1357 C1351 1.363 . S
C1357 C1352 1.379 . S
C1357 N1355 1.356 . S
N1358 C1350 1.356 . S
N1358 H1364 0.984 . S
N1358 H1365 0.984 . S
N1359 C1352 1.356 . S
N1359 H1362 0.984 . S
N1359 H1363 0.985 . S
H1360 N1355 0.984 . S
H1361 N1355 0.985 . S
H1362 N1359 0.984 . S
H1363 N1359 0.985 . S
H1364 N1358 0.984 . S
H1365 N1358 0.984 . S
H1366 N1354 0.984 . S
H1367 N1354 0.985 . S
C1368 C1369 1.363 . S
C1368 C1374 1.379 . S
C1368 N1376 1.356 . S
C1369 C1368 1.363 . S
C1369 C1375 1.363 . S
C1370 C1371 1.363 . S
C1370 C1375 1.379 . S
C1370 N1377 1.356 . S
C1371 C1370 1.363 . S
C1371 C1374 1.363 . S
N1372 C1374 1.356 . S
N1372 H1384 0.984 . S
N1372 H1385 0.985 . S
N1373 C1375 1.356 . S
N1373 H1378 0.984 . S
N1373 H1379 0.985 . S
C1374 C1368 1.379 . S
C1374 C1371 1.363 . S
C1374 N1372 1.356 . S
C1375 C1369 1.363 . S
C1375 C1370 1.379 . S
C1375 N1373 1.356 . S
N1376 C1368 1.356 . S
N1376 H1382 0.984 . S
N1376 H1383 0.984 . S
N1377 C1370 1.356 . S
N1377 H1380 0.984 . S
N1377 H1381 0.985 . S
H1378 N1373 0.984 . S
H1379 N1373 0.985 . S
H1380 N1377 0.984 . S
H1381 N1377 0.985 . S
H1382 N1376 0.984 . S
H1383 N1376 0.984 . S
H1384 N1372 0.984 . S
H1385 N1372 0.985 . S
C1386 C1387 1.363 . S
C1386 C1392 1.379 . S
C1386 N1394 1.356 . S
C1387 C1386 1.363 . S
C1387 C1393 1.363 . S
C1388 C1389 1.363 . S
C1388 C1393 1.379 . S
C1388 N1395 1.356 . S
C1389 C1388 1.363 . S
C1389 C1392 1.363 . S
N1390 C1392 1.356 . S
N1390 H1402 0.984 . S
N1390 H1403 0.985 . S
N1391 C1393 1.356 . S
N1391 H1396 0.984 . S
N1391 H1397 0.985 . S
C1392 C1386 1.379 . S
C1392 C1389 1.363 . S
C1392 N1390 1.356 . S
C1393 C1387 1.363 . S
C1393 C1388 1.379 . S
C1393 N1391 1.356 . S
N1394 C1386 1.356 . S
N1394 H1400 0.984 . S
N1394 H1401 0.984 . S
N1395 C1388 1.356 . S
N1395 H1398 0.984 . S
N1395 H1399 0.985 . S
H1396 N1391 0.984 . S
H1397 N1391 0.985 . S
H1398 N1395 0.984 . S
H1399 N1395 0.985 . S
H1400 N1394 0.984 . S
H1401 N1394 0.984 . S
H1402 N1390 0.984 . S
H1403 N1390 0.985 . S
C1404 C1405 1.363 . S
C1404 C1410 1.379 . S
C1404 N1412 1.356 . S
C1405 C1404 1.363 . S
C1405 C1411 1.363 . S
C1406 C1407 1.363 . S
C1406 C1411 1.379 . S
C1406 N1413 1.356 . S
C1407 C1406 1.363 . S
C1407 C1410 1.363 . S
N1408 C1410 1.356 . S
N1408 H1420 0.984 . S
N1408 H1421 0.985 . S
N1409 C1411 1.356 . S
N1409 H1414 0.984 . S
N1409 H1415 0.985 . S
C1410 C1404 1.379 . S
C1410 C1407 1.363 . S
C1410 N1408 1.356 . S
C1411 C1405 1.363 . S
C1411 C1406 1.379 . S
C1411 N1409 1.356 . S
N1412 C1404 1.356 . S
N1412 H1418 0.984 . S
N1412 H1419 0.984 . S
N1413 C1406 1.356 . S
N1413 H1416 0.984 . S
N1413 H1417 0.985 . S
H1414 N1409 0.984 . S
H1415 N1409 0.985 . S
H1416 N1413 0.984 . S
H1417 N1413 0.985 . S
H1418 N1412 0.984 . S
H1419 N1412 0.984 . S
H1420 N1408 0.984 . S
H1421 N1408 0.985 . S
C1422 C1423 1.363 . S
C1422 C1428 1.379 . S
C1422 N1430 1.356 . S
C1423 C1422 1.363 . S
C1423 C1429 1.363 . S
C1424 C1425 1.363 . S
C1424 C1429 1.379 . S
C1424 N1431 1.356 . S
C1425 C1424 1.363 . S
C1425 C1428 1.363 . S
N1426 C1428 1.356 . S
N1426 H1438 0.984 . S
N1426 H1439 0.985 . S
N1427 C1429 1.356 . S
N1427 H1432 0.984 . S
N1427 H1433 0.985 . S
C1428 C1422 1.379 . S
C1428 C1425 1.363 . S
C1428 N1426 1.356 . S
C1429 C1423 1.363 . S
C1429 C1424 1.379 . S
C1429 N1427 1.356 . S
N1430 C1422 1.356 . S
N1430 H1436 0.984 . S
N1430 H1437 0.984 . S
N1431 C1424 1.356 . S
N1431 H1434 0.984 . S
N1431 H1435 0.985 . S
H1432 N1427 0.984 . S
H1433 N1427 0.985 . S
H1434 N1431 0.984 . S
H1435 N1431 0.985 . S
H1436 N1430 0.984 . S
H1437 N1430 0.984 . S
H1438 N1426 0.984 . S
H1439 N1426 0.985 . S
C1440 C1441 1.363 . S
C1440 C1446 1.379 . S
C1440 N1448 1.356 . S
C1441 C1440 1.363 . S
C1441 C1447 1.363 . S
C1442 C1443 1.363 . S
C1442 C1447 1.379 . S
C1442 N1449 1.356 . S
C1443 C1442 1.363 . S
C1443 C1446 1.363 . S
N1444 C1446 1.356 . S
N1444 H1456 0.984 . S
N1444 H1457 0.985 . S
N1445 C1447 1.356 . S
N1445 H1450 0.984 . S
N1445 H1451 0.985 . S
C1446 C1440 1.379 . S
C1446 C1443 1.363 . S
C1446 N1444 1.356 . S
C1447 C1441 1.363 . S
C1447 C1442 1.379 . S
C1447 N1445 1.356 . S
N1448 C1440 1.356 . S
N1448 H1454 0.984 . S
N1448 H1455 0.984 . S
N1449 C1442 1.356 . S
N1449 H1452 0.984 . S
N1449 H1453 0.985 . S
H1450 N1445 0.984 . S
H1451 N1445 0.985 . S
H1452 N1449 0.984 . S
H1453 N1449 0.985 . S
H1454 N1448 0.984 . S
H1455 N1448 0.984 . S
H1456 N1444 0.984 . S
H1457 N1444 0.985 . S
C1458 C1459 1.363 . S
C1458 C1464 1.379 . S
C1458 N1466 1.356 . S
C1459 C1458 1.363 . S
C1459 C1465 1.363 . S
C1460 C1461 1.363 . S
C1460 C1465 1.379 . S
C1460 N1467 1.356 . S
C1461 C1460 1.363 . S
C1461 C1464 1.363 . S
N1462 C1464 1.356 . S
N1462 H1474 0.984 . S
N1462 H1475 0.985 . S
N1463 C1465 1.356 . S
N1463 H1468 0.984 . S
N1463 H1469 0.985 . S
C1464 C1458 1.379 . S
C1464 C1461 1.363 . S
C1464 N1462 1.356 . S
C1465 C1459 1.363 . S
C1465 C1460 1.379 . S
C1465 N1463 1.356 . S
N1466 C1458 1.356 . S
N1466 H1472 0.984 . S
N1466 H1473 0.984 . S
N1467 C1460 1.356 . S
N1467 H1470 0.984 . S
N1467 H1471 0.985 . S
H1468 N1463 0.984 . S
H1469 N1463 0.985 . S
H1470 N1467 0.984 . S
H1471 N1467 0.985 . S
H1472 N1466 0.984 . S
H1473 N1466 0.984 . S
H1474 N1462 0.984 . S
H1475 N1462 0.985 . S
C1476 C1477 1.363 . S
C1476 C1482 1.379 . S
C1476 N1484 1.356 . S
C1477 C1476 1.363 . S
C1477 C1483 1.363 . S
C1478 C1479 1.363 . S
C1478 C1483 1.379 . S
C1478 N1485 1.356 . S
C1479 C1478 1.363 . S
C1479 C1482 1.363 . S
N1480 C1482 1.356 . S
N1480 H1492 0.984 . S
N1480 H1493 0.985 . S
N1481 C1483 1.356 . S
N1481 H1486 0.984 . S
N1481 H1487 0.985 . S
C1482 C1476 1.379 . S
C1482 C1479 1.363 . S
C1482 N1480 1.356 . S
C1483 C1477 1.363 . S
C1483 C1478 1.379 . S
C1483 N1481 1.356 . S
N1484 C1476 1.356 . S
N1484 H1490 0.984 . S
N1484 H1491 0.984 . S
N1485 C1478 1.356 . S
N1485 H1488 0.984 . S
N1485 H1489 0.985 . S
H1486 N1481 0.984 . S
H1487 N1481 0.985 . S
H1488 N1485 0.984 . S
H1489 N1485 0.985 . S
H1490 N1484 0.984 . S
H1491 N1484 0.984 . S
H1492 N1480 0.984 . S
H1493 N1480 0.985 . S
C1494 C1495 1.363 . S
C1494 C1500 1.379 . S
C1494 N1502 1.356 . S
C1495 C1494 1.363 . S
C1495 C1501 1.363 . S
C1496 C1497 1.363 . S
C1496 C1501 1.379 . S
C1496 N1503 1.356 . S
C1497 C1496 1.363 . S
C1497 C1500 1.363 . S
N1498 C1500 1.356 . S
N1498 H1510 0.984 . S
N1498 H1511 0.985 . S
N1499 C1501 1.356 . S
N1499 H1504 0.984 . S
N1499 H1505 0.985 . S
C1500 C1494 1.379 . S
C1500 C1497 1.363 . S
C1500 N1498 1.356 . S
C1501 C1495 1.363 . S
C1501 C1496 1.379 . S
C1501 N1499 1.356 . S
N1502 C1494 1.356 . S
N1502 H1508 0.984 . S
N1502 H1509 0.984 . S
N1503 C1496 1.356 . S
N1503 H1506 0.984 . S
N1503 H1507 0.985 . S
H1504 N1499 0.984 . S
H1505 N1499 0.985 . S
H1506 N1503 0.984 . S
H1507 N1503 0.985 . S
H1508 N1502 0.984 . S
H1509 N1502 0.984 . S
H1510 N1498 0.984 . S
H1511 N1498 0.985 . S
C1512 C1513 1.363 . S
C1512 C1518 1.379 . S
C1512 N1520 1.356 . S
C1513 C1512 1.363 . S
C1513 C1519 1.363 . S
C1514 C1515 1.363 . S
C1514 C1519 1.379 . S
C1514 N1521 1.356 . S
C1515 C1514 1.363 . S
C1515 C1518 1.363 . S
N1516 C1518 1.356 . S
N1516 H1528 0.984 . S
N1516 H1529 0.985 . S
N1517 C1519 1.356 . S
N1517 H1522 0.984 . S
N1517 H1523 0.985 . S
C1518 C1512 1.379 . S
C1518 C1515 1.363 . S
C1518 N1516 1.356 . S
C1519 C1513 1.363 . S
C1519 C1514 1.379 . S
C1519 N1517 1.356 . S
N1520 C1512 1.356 . S
N1520 H1526 0.984 . S
N1520 H1527 0.984 . S
N1521 C1514 1.356 . S
N1521 H1524 0.984 . S
N1521 H1525 0.985 . S
H1522 N1517 0.984 . S
H1523 N1517 0.985 . S
H1524 N1521 0.984 . S
H1525 N1521 0.985 . S
H1526 N1520 0.984 . S
H1527 N1520 0.984 . S
H1528 N1516 0.984 . S
H1529 N1516 0.985 . S
C1530 C1531 1.363 . S
C1530 C1536 1.379 . S
C1530 N1538 1.356 . S
C1531 C1530 1.363 . S
C1531 C1537 1.363 . S
C1532 C1533 1.363 . S
C1532 C1537 1.379 . S
C1532 N1539 1.356 . S
C1533 C1532 1.363 . S
C1533 C1536 1.363 . S
N1534 C1536 1.356 . S
N1534 H1546 0.984 . S
N1534 H1547 0.985 . S
N1535 C1537 1.356 . S
N1535 H1540 0.984 . S
N1535 H1541 0.985 . S
C1536 C1530 1.379 . S
C1536 C1533 1.363 . S
C1536 N1534 1.356 . S
C1537 C1531 1.363 . S
C1537 C1532 1.379 . S
C1537 N1535 1.356 . S
N1538 C1530 1.356 . S
N1538 H1544 0.984 . S
N1538 H1545 0.984 . S
N1539 C1532 1.356 . S
N1539 H1542 0.984 . S
N1539 H1543 0.985 . S
H1540 N1535 0.984 . S
H1541 N1535 0.985 . S
H1542 N1539 0.984 . S
H1543 N1539 0.985 . S
H1544 N1538 0.984 . S
H1545 N1538 0.984 . S
H1546 N1534 0.984 . S
H1547 N1534 0.985 . S
C1548 C1549 1.363 . S
C1548 C1554 1.379 . S
C1548 N1556 1.356 . S
C1549 C1548 1.363 . S
C1549 C1555 1.363 . S
C1550 C1551 1.363 . S
C1550 C1555 1.379 . S
C1550 N1557 1.356 . S
C1551 C1550 1.363 . S
C1551 C1554 1.363 . S
N1552 C1554 1.356 . S
N1552 H1564 0.984 . S
N1552 H1565 0.985 . S
N1553 C1555 1.356 . S
N1553 H1558 0.984 . S
N1553 H1559 0.985 . S
C1554 C1548 1.379 . S
C1554 C1551 1.363 . S
C1554 N1552 1.356 . S
C1555 C1549 1.363 . S
C1555 C1550 1.379 . S
C1555 N1553 1.356 . S
N1556 C1548 1.356 . S
N1556 H1562 0.984 . S
N1556 H1563 0.984 . S
N1557 C1550 1.356 . S
N1557 H1560 0.984 . S
N1557 H1561 0.985 . S
H1558 N1553 0.984 . S
H1559 N1553 0.985 . S
H1560 N1557 0.984 . S
H1561 N1557 0.985 . S
H1562 N1556 0.984 . S
H1563 N1556 0.984 . S
H1564 N1552 0.984 . S
H1565 N1552 0.985 . S
C1566 C1567 1.363 . S
C1566 C1572 1.379 . S
C1566 N1574 1.356 . S
C1567 C1566 1.363 . S
C1567 C1573 1.363 . S
C1568 C1569 1.363 . S
C1568 C1573 1.379 . S
C1568 N1575 1.356 . S
C1569 C1568 1.363 . S
C1569 C1572 1.363 . S
N1570 C1572 1.356 . S
N1570 H1582 0.984 . S
N1570 H1583 0.985 . S
N1571 C1573 1.356 . S
N1571 H1576 0.984 . S
N1571 H1577 0.985 . S
C1572 C1566 1.379 . S
C1572 C1569 1.363 . S
C1572 N1570 1.356 . S
C1573 C1567 1.363 . S
C1573 C1568 1.379 . S
C1573 N1571 1.356 . S
N1574 C1566 1.356 . S
N1574 H1580 0.984 . S
N1574 H1581 0.984 . S
N1575 C1568 1.356 . S
N1575 H1578 0.984 . S
N1575 H1579 0.985 . S
H1576 N1571 0.984 . S
H1577 N1571 0.985 . S
H1578 N1575 0.984 . S
H1579 N1575 0.985 . S
H1580 N1574 0.984 . S
H1581 N1574 0.984 . S
H1582 N1570 0.984 . S
H1583 N1570 0.985 . S
C1584 C1585 1.363 . S
C1584 C1590 1.379 . S
C1584 N1592 1.356 . S
C1585 C1584 1.363 . S
C1585 C1591 1.363 . S
C1586 C1587 1.363 . S
C1586 C1591 1.379 . S
C1586 N1593 1.356 . S
C1587 C1586 1.363 . S
C1587 C1590 1.363 . S
N1588 C1590 1.356 . S
N1588 H1600 0.984 . S
N1588 H1601 0.985 . S
N1589 C1591 1.356 . S
N1589 H1594 0.984 . S
N1589 H1595 0.985 . S
C1590 C1584 1.379 . S
C1590 C1587 1.363 . S
C1590 N1588 1.356 . S
C1591 C1585 1.363 . S
C1591 C1586 1.379 . S
C1591 N1589 1.356 . S
N1592 C1584 1.356 . S
N1592 H1598 0.984 . S
N1592 H1599 0.984 . S
N1593 C1586 1.356 . S
N1593 H1596 0.984 . S
N1593 H1597 0.985 . S
H1594 N1589 0.984 . S
H1595 N1589 0.985 . S
H1596 N1593 0.984 . S
H1597 N1593 0.985 . S
H1598 N1592 0.984 . S
H1599 N1592 0.984 . S
H1600 N1588 0.984 . S
H1601 N1588 0.985 . S
C1602 C1603 1.363 . S
C1602 C1608 1.379 . S
C1602 N1610 1.356 . S
C1603 C1602 1.363 . S
C1603 C1609 1.363 . S
C1604 C1605 1.363 . S
C1604 C1609 1.379 . S
C1604 N1611 1.356 . S
C1605 C1604 1.363 . S
C1605 C1608 1.363 . S
N1606 C1608 1.356 . S
N1606 H1618 0.984 . S
N1606 H1619 0.985 . S
N1607 C1609 1.356 . S
N1607 H1612 0.984 . S
N1607 H1613 0.985 . S
C1608 C1602 1.379 . S
C1608 C1605 1.363 . S
C1608 N1606 1.356 . S
C1609 C1603 1.363 . S
C1609 C1604 1.379 . S
C1609 N1607 1.356 . S
N1610 C1602 1.356 . S
N1610 H1616 0.984 . S
N1610 H1617 0.984 . S
N1611 C1604 1.356 . S
N1611 H1614 0.984 . S
N1611 H1615 0.985 . S
H1612 N1607 0.984 . S
H1613 N1607 0.985 . S
H1614 N1611 0.984 . S
H1615 N1611 0.985 . S
H1616 N1610 0.984 . S
H1617 N1610 0.984 . S
H1618 N1606 0.984 . S
H1619 N1606 0.985 . S
C1620 C1621 1.363 . S
C1620 C1626 1.379 . S
C1620 N1628 1.356 . S
C1621 C1620 1.363 . S
C1621 C1627 1.363 . S
C1622 C1623 1.363 . S
C1622 C1627 1.379 . S
C1622 N1629 1.356 . S
C1623 C1622 1.363 . S
C1623 C1626 1.363 . S
N1624 C1626 1.356 . S
N1624 H1636 0.984 . S
N1624 H1637 0.985 . S
N1625 C1627 1.356 . S
N1625 H1630 0.984 . S
N1625 H1631 0.985 . S
C1626 C1620 1.379 . S
C1626 C1623 1.363 . S
C1626 N1624 1.356 . S
C1627 C1621 1.363 . S
C1627 C1622 1.379 . S
C1627 N1625 1.356 . S
N1628 C1620 1.356 . S
N1628 H1634 0.984 . S
N1628 H1635 0.984 . S
N1629 C1622 1.356 . S
N1629 H1632 0.984 . S
N1629 H1633 0.985 . S
H1630 N1625 0.984 . S
H1631 N1625 0.985 . S
H1632 N1629 0.984 . S
H1633 N1629 0.985 . S
H1634 N1628 0.984 . S
H1635 N1628 0.984 . S
H1636 N1624 0.984 . S
H1637 N1624 0.985 . S
C1638 C1639 1.363 . S
C1638 C1644 1.379 . S
C1638 N1646 1.356 . S
C1639 C1638 1.363 . S
C1639 C1645 1.363 . S
C1640 C1641 1.363 . S
C1640 C1645 1.379 . S
C1640 N1647 1.356 . S
C1641 C1640 1.363 . S
C1641 C1644 1.363 . S
N1642 C1644 1.356 . S
N1642 H1654 0.984 . S
N1642 H1655 0.985 . S
N1643 C1645 1.356 . S
N1643 H1648 0.984 . S
N1643 H1649 0.985 . S
C1644 C1638 1.379 . S
C1644 C1641 1.363 . S
C1644 N1642 1.356 . S
C1645 C1639 1.363 . S
C1645 C1640 1.379 . S
C1645 N1643 1.356 . S
N1646 C1638 1.356 . S
N1646 H1652 0.984 . S
N1646 H1653 0.984 . S
N1647 C1640 1.356 . S
N1647 H1650 0.984 . S
N1647 H1651 0.985 . S
H1648 N1643 0.984 . S
H1649 N1643 0.985 . S
H1650 N1647 0.984 . S
H1651 N1647 0.985 . S
H1652 N1646 0.984 . S
H1653 N1646 0.984 . S
H1654 N1642 0.984 . S
H1655 N1642 0.985 . S
C1656 C1657 1.363 . S
C1656 C1662 1.379 . S
C1656 N1664 1.356 . S
C1657 C1656 1.363 . S
C1657 C1663 1.363 . S
C1658 C1659 1.363 . S
C1658 C1663 1.379 . S
C1658 N1665 1.356 . S
C1659 C1658 1.363 . S
C1659 C1662 1.363 . S
N1660 C1662 1.356 . S
N1660 H1672 0.984 . S
N1660 H1673 0.985 . S
N1661 C1663 1.356 . S
N1661 H1666 0.984 . S
N1661 H1667 0.985 . S
C1662 C1656 1.379 . S
C1662 C1659 1.363 . S
C1662 N1660 1.356 . S
C1663 C1657 1.363 . S
C1663 C1658 1.379 . S
C1663 N1661 1.356 . S
N1664 C1656 1.356 . S
N1664 H1670 0.984 . S
N1664 H1671 0.984 . S
N1665 C1658 1.356 . S
N1665 H1668 0.984 . S
N1665 H1669 0.985 . S
H1666 N1661 0.984 . S
H1667 N1661 0.985 . S
H1668 N1665 0.984 . S
H1669 N1665 0.985 . S
H1670 N1664 0.984 . S
H1671 N1664 0.984 . S
H1672 N1660 0.984 . S
H1673 N1660 0.985 . S
C1674 C1675 1.363 . S
C1674 C1680 1.379 . S
C1674 N1682 1.356 . S
C1675 C1674 1.363 . S
C1675 C1681 1.363 . S
C1676 C1677 1.363 . S
C1676 C1681 1.379 . S
C1676 N1683 1.356 . S
C1677 C1676 1.363 . S
C1677 C1680 1.363 . S
N1678 C1680 1.356 . S
N1678 H1690 0.984 . S
N1678 H1691 0.985 . S
N1679 C1681 1.356 . S
N1679 H1684 0.984 . S
N1679 H1685 0.985 . S
C1680 C1674 1.379 . S
C1680 C1677 1.363 . S
C1680 N1678 1.356 . S
C1681 C1675 1.363 . S
C1681 C1676 1.379 . S
C1681 N1679 1.356 . S
N1682 C1674 1.356 . S
N1682 H1688 0.984 . S
N1682 H1689 0.984 . S
N1683 C1676 1.356 . S
N1683 H1686 0.984 . S
N1683 H1687 0.985 . S
H1684 N1679 0.984 . S
H1685 N1679 0.985 . S
H1686 N1683 0.984 . S
H1687 N1683 0.985 . S
H1688 N1682 0.984 . S
H1689 N1682 0.984 . S
H1690 N1678 0.984 . S
H1691 N1678 0.985 . S
C1692 C1693 1.363 . S
C1692 C1698 1.379 . S
C1692 N1700 1.356 . S
C1693 C1692 1.363 . S
C1693 C1699 1.363 . S
C1694 C1695 1.363 . S
C1694 C1699 1.379 . S
C1694 N1701 1.356 . S
C1695 C1694 1.363 . S
C1695 C1698 1.363 . S
N1696 C1698 1.356 . S
N1696 H1708 0.984 . S
N1696 H1709 0.985 . S
N1697 C1699 1.356 . S
N1697 H1702 0.984 . S
N1697 H1703 0.985 . S
C1698 C1692 1.379 . S
C1698 C1695 1.363 . S
C1698 N1696 1.356 . S
C1699 C1693 1.363 . S
C1699 C1694 1.379 . S
C1699 N1697 1.356 . S
N1700 C1692 1.356 . S
N1700 H1706 0.984 . S
N1700 H1707 0.984 . S
N1701 C1694 1.356 . S
N1701 H1704 0.984 . S
N1701 H1705 0.985 . S
H1702 N1697 0.984 . S
H1703 N1697 0.985 . S
H1704 N1701 0.984 . S
H1705 N1701 0.985 . S
H1706 N1700 0.984 . S
H1707 N1700 0.984 . S
H1708 N1696 0.984 . S
H1709 N1696 0.985 . S
C1710 C1711 1.363 . S
C1710 C1716 1.379 . S
C1710 N1718 1.356 . S
C1711 C1710 1.363 . S
C1711 C1717 1.363 . S
C1712 C1713 1.363 . S
C1712 C1717 1.379 . S
C1712 N1719 1.356 . S
C1713 C1712 1.363 . S
C1713 C1716 1.363 . S
N1714 C1716 1.356 . S
N1714 H1726 0.984 . S
N1714 H1727 0.985 . S
N1715 C1717 1.356 . S
N1715 H1720 0.984 . S
N1715 H1721 0.985 . S
C1716 C1710 1.379 . S
C1716 C1713 1.363 . S
C1716 N1714 1.356 . S
C1717 C1711 1.363 . S
C1717 C1712 1.379 . S
C1717 N1715 1.356 . S
N1718 C1710 1.356 . S
N1718 H1724 0.984 . S
N1718 H1725 0.984 . S
N1719 C1712 1.356 . S
N1719 H1722 0.984 . S
N1719 H1723 0.985 . S
H1720 N1715 0.984 . S
H1721 N1715 0.985 . S
H1722 N1719 0.984 . S
H1723 N1719 0.985 . S
H1724 N1718 0.984 . S
H1725 N1718 0.984 . S
H1726 N1714 0.984 . S
H1727 N1714 0.985 . S
C865 C544 1.302 . S
C867 C4 1.296 . S
C883 C446 1.425 . S
C885 C50 1.414 . S
C901 C472 1.384 . S
C903 C86 1.361 . S
C919 C518 1.319 . S
C921 C112 1.347 . S
C937 C508 1.337 . S
C939 C40 1.319 . S
C955 C76 1.249 . S
C957 C554 1.217 . S
C973 C436 1.406 . S
C975 C122 1.375 . S
C991 C482 1.316 . S
C993 C14 1.309 . S
C1009 C662 1.454 . S
C1011 C158 1.451 . S
C1027 C184 1.228 . S
C1029 C688 1.225 . S
C1045 C230 1.465 . S
C1047 C590 1.470 . S
C1063 C616 1.237 . S
C1065 C256 1.234 . S
C1081 C796 1.180 . S
C1083 C292 1.185 . S
C1099 C338 1.438 . S
C1101 C832 1.467 . S
C1117 C364 1.215 . S
C1119 C724 1.208 . S
C1135 C410 1.465 . S
C1137 C760 1.500 . S
C1153 C626 1.298 . S
C1155 C400 1.325 . S
C1171 C842 1.404 . S
C1173 C194 1.397 . S
C1189 C220 1.384 . S
C1191 C734 1.357 . S
C1207 C770 1.347 . S
C1209 C266 1.324 . S
C1225 C806 1.257 . S
C1227 C148 1.284 . S
C1243 C328 1.264 . S
C1245 C698 1.243 . S
C1261 C580 1.376 . S
C1263 C374 1.341 . S
C1279 C652 1.289 . S
C1281 C302 1.255 . S
C1297 C3 1.135 . S
C1299 C147 1.125 . S
C1315 C182 1.125 . S
C1317 C38 1.130 . S
C1333 C74 1.149 . S
C1335 C219 1.187 . S
C1351 C111 1.083 . S
C1353 C254 1.048 . S
C1369 C290 1.075 . S
C1371 C39 1.095 . S
C1387 C327 0.998 . S
C1389 C75 0.997 . S
C1405 C362 1.125 . S
C1407 C110 1.127 . S
C1423 C2 1.045 . S
C1425 C399 1.088 . S
C1441 C398 1.218 . S
C1443 C146 1.205 . S
C1459 C183 0.991 . S
C1461 C291 0.977 . S
C1477 C218 1.225 . S
C1479 C326 1.222 . S
C1495 C363 1.015 . S
C1497 C255 1.008 . S
C1513 C579 1.168 . S
C1515 C435 1.192 . S
C1531 C614 1.131 . S
C1533 C470 1.129 . S
C1549 C507 1.123 . S
C1551 C651 1.083 . S
C1567 C542 1.060 . S
C1569 C686 1.056 . S
C1585 C471 1.119 . S
C1587 C722 1.088 . S
C1603 C506 1.136 . S
C1605 C758 1.136 . S
C1621 C794 0.999 . S
C1623 C543 1.022 . S
C1639 C434 1.198 . S
C1641 C830 1.196 . S
C1657 C578 1.139 . S
C1659 C831 1.200 . S
C1675 C723 0.967 . S
C1677 C615 0.980 . S
C1693 C650 1.147 . S
C1695 C759 1.210 . S
C1711 C795 0.968 . S
C1713 C687 0.985 . S
