# Generated by pormake.
# Topology sml, (6)-cn, num edge types: 1
# Building blocks:
#     Node 0, Type 0, BuildingBlock: MIFKUJ_clean_sbu_0, # of connection points: 6
#     Node 1, Type 0, BuildingBlock: MIFKUJ_clean_sbu_0, # of connection points: 6
#     Node 2, Type 0, BuildingBlock: MIFKUJ_clean_sbu_0, # of connection points: 6
#     Node 3, Type 0, BuildingBlock: MIFKUJ_clean_sbu_0, # of connection points: 6
#     Node 4, Type 0, BuildingBlock: MIFKUJ_clean_sbu_0, # of connection points: 6
#     Node 5, Type 0, BuildingBlock: MIFKUJ_clean_sbu_0, # of connection points: 6
#     Edge 6, Type (0, 0), BuildingBlock: XUDNAN_clean_linker_2, # of connection points: 2
#     Edge 7, Type (0, 0), BuildingBlock: XUDNAN_clean_linker_2, # of connection points: 2
#     Edge 8, Type (0, 0), BuildingBlock: XUDNAN_clean_linker_2, # of connection points: 2
#     Edge 9, Type (0, 0), BuildingBlock: XUDNAN_clean_linker_2, # of connection points: 2
#     Edge 10, Type (0, 0), BuildingBlock: XUDNAN_clean_linker_2, # of connection points: 2
#     Edge 11, Type (0, 0), BuildingBlock: XUDNAN_clean_linker_2, # of connection points: 2
#     Edge 12, Type (0, 0), BuildingBlock: XUDNAN_clean_linker_2, # of connection points: 2
#     Edge 13, Type (0, 0), BuildingBlock: XUDNAN_clean_linker_2, # of connection points: 2
#     Edge 14, Type (0, 0), BuildingBlock: XUDNAN_clean_linker_2, # of connection points: 2
#     Edge 15, Type (0, 0), BuildingBlock: XUDNAN_clean_linker_2, # of connection points: 2
#     Edge 16, Type (0, 0), BuildingBlock: XUDNAN_clean_linker_2, # of connection points: 2
#     Edge 17, Type (0, 0), BuildingBlock: XUDNAN_clean_linker_2, # of connection points: 2
#     Edge 18, Type (0, 0), BuildingBlock: XUDNAN_clean_linker_2, # of connection points: 2
#     Edge 19, Type (0, 0), BuildingBlock: XUDNAN_clean_linker_2, # of connection points: 2
#     Edge 20, Type (0, 0), BuildingBlock: XUDNAN_clean_linker_2, # of connection points: 2
#     Edge 21, Type (0, 0), BuildingBlock: XUDNAN_clean_linker_2, # of connection points: 2
#     Edge 22, Type (0, 0), BuildingBlock: XUDNAN_clean_linker_2, # of connection points: 2
#     Edge 23, Type (0, 0), BuildingBlock: XUDNAN_clean_linker_2, # of connection points: 2
# Relax obj value: 0.138
# Max RMSD: 0.177
# Mean RMSD: 0.177
data_MOF--net-sml--node1-MIFKUJ_clean_sbu_0--edge1-XUDNAN_clean_linker_2
_symmetry_space_group_name_H-M    P1
_symmetry_Int_Tables_number       1
_symmetry_cell_setting            triclinic
loop_
_symmetry_equiv_pos_as_xyz
'x, y, z'
_cell_length_a     38.695545
_cell_length_b     38.713838
_cell_length_c     18.307326
_cell_angle_alpha  90.197309
_cell_angle_beta   89.569887
_cell_angle_gamma 120.64111
loop_
_atom_site_label
_atom_site_type_symbol
_atom_site_fract_x
_atom_site_fract_y
_atom_site_fract_z
_atom_type_partial_charge
Zn0 Zn 0.21481 0.45136 0.09419 0.0
Zn1 Zn 0.2102 0.4043 0.91096 0.0
C2 C 0.22952 0.52902 0.12717 0.0
O3 O 0.25138 0.52533 0.17754 0.0
C4 C 0.22013 0.33502 0.92262 0.0
O5 O 0.18311 0.31668 0.9478 0.0
O6 O 0.2174 0.44452 0.2014 0.0
O7 O 0.16196 0.40265 0.07266 0.0
O8 O 0.15837 0.37367 0.96679 0.0
C9 C 0.18846 0.4437 0.23628 0.0
O10 O 0.16176 0.44833 0.20058 0.0
O11 O 0.21122 0.50118 0.0806 0.0
C12 C 0.20481 0.39529 0.75407 0.0
O13 O 0.22833 0.38037 0.76242 0.0
O14 O 0.19321 0.40643 0.80964 0.0
O15 O 0.25192 0.46201 0.93124 0.0
O16 O 0.26581 0.46002 0.04706 0.0
O17 O 0.23766 0.37222 0.90767 0.0
C18 C 0.14255 0.37505 0.02674 0.0
C19 C 0.27542 0.47712 0.98511 0.0
Zn20 Zn 0.77921 0.20203 0.40795 0.0
Zn21 Zn 0.79674 0.17949 0.22654 0.0
C22 C 0.73284 0.23335 0.45739 0.0
O23 O 0.76965 0.2643 0.45975 0.0
C24 C 0.87162 0.19005 0.21747 0.0
O25 O 0.84685 0.15267 0.19798 0.0
O26 O 0.8085 0.21722 0.50297 0.0
O27 O 0.76681 0.14492 0.38514 0.0
O28 O 0.77287 0.12617 0.27334 0.0
C29 C 0.78997 0.192 0.55378 0.0
O30 O 0.75649 0.15857 0.53833 0.0
O31 O 0.72742 0.20008 0.43342 0.0
C32 C 0.81829 0.20933 0.08592 0.0
O33 O 0.84133 0.24055 0.12694 0.0
O34 O 0.79401 0.17603 0.11663 0.0
O35 O 0.76729 0.20762 0.25255 0.0
O36 O 0.80745 0.24832 0.33546 0.0
O37 O 0.85674 0.20993 0.24497 0.0
C38 C 0.76395 0.11826 0.34048 0.0
C39 C 0.78996 0.24307 0.27471 0.0
Zn40 Zn 0.56747 0.79804 0.76132 0.0
Zn41 Zn 0.57711 0.78431 0.59187 0.0
C42 C 0.49479 0.73816 0.81814 0.0
O43 O 0.49561 0.77154 0.83538 0.0
C44 C 0.6497 0.85219 0.56278 0.0
O45 O 0.65454 0.82233 0.54238 0.0
O46 O 0.57707 0.82094 0.86425 0.0
O47 O 0.61975 0.8016 0.73268 0.0
O48 O 0.60098 0.75609 0.64506 0.0
C49 C 0.58232 0.80025 0.91221 0.0
O50 O 0.58426 0.76883 0.89087 0.0
O51 O 0.52289 0.74018 0.77834 0.0
C52 C 0.56548 0.80053 0.44981 0.0
O53 O 0.55892 0.82444 0.49113 0.0
O54 O 0.57261 0.77538 0.48098 0.0
O55 O 0.52286 0.7714 0.6268 0.0
O56 O 0.54559 0.82467 0.69617 0.0
O57 O 0.61746 0.84396 0.59625 0.0
C58 C 0.62427 0.77582 0.69735 0.0
C59 C 0.52092 0.8015 0.64839 0.0
Zn60 Zn 0.78774 0.53945 0.10019 0.0
Zn61 Zn 0.78998 0.60207 0.91114 0.0
C62 C 0.80896 0.48185 0.06018 0.0
O63 O 0.7957 0.48617 -0.00301 0.0
C64 C 0.7896 0.67529 0.89703 0.0
O65 O 0.82874 0.69111 0.89378 0.0
O66 O 0.78406 0.56138 0.19573 0.0
O67 O 0.81741 0.58327 0.03106 0.0
O68 O 0.84612 0.63157 0.95424 0.0
C69 C 0.761 0.53678 0.24379 0.0
O70 O 0.74011 0.49835 0.2278 0.0
O71 O 0.8108 0.50386 0.11328 0.0
C72 C 0.76285 0.57331 0.76974 0.0
O73 O 0.72804 0.5542 0.80374 0.0
O74 O 0.79478 0.59381 0.80592 0.0
O75 O 0.7492 0.54917 0.96238 0.0
O76 O 0.73302 0.50708 0.05528 0.0
O77 O 0.76727 0.63806 0.91015 0.0
C78 C 0.84875 0.61503 0.01161 0.0
C79 C 0.7242 0.51654 -0.00549 0.0
Zn80 Zn 0.22415 0.8014 0.41922 0.0
Zn81 Zn 0.19676 0.81632 0.24369 0.0
C82 C 0.29367 0.79363 0.41309 0.0
O83 O 0.26648 0.7552 0.41563 0.0
C84 C 0.11557 0.78561 0.22018 0.0
O85 O 0.13194 0.82131 0.18982 0.0
O86 O 0.21352 0.79002 0.52657 0.0
O87 O 0.22113 0.8515 0.40565 0.0
O88 O 0.20904 0.86636 0.29608 0.0
C89 C 0.23915 0.82111 0.56115 0.0
O90 O 0.26663 0.85196 0.52382 0.0
O91 O 0.28238 0.81906 0.4082 0.0
C92 C 0.19217 0.80249 0.08999 0.0
O93 O 0.16673 0.76534 0.10994 0.0
O94 O 0.20808 0.82977 0.13823 0.0
O95 O 0.2298 0.79195 0.26814 0.0
O96 O 0.19351 0.75183 0.35635 0.0
O97 O 0.13802 0.77577 0.25311 0.0
C98 C 0.21687 0.87482 0.36307 0.0
C99 C 0.2089 0.75664 0.29303 0.0
Zn100 Zn 0.43046 0.20815 0.74734 0.0
Zn101 Zn 0.41354 0.21553 0.57742 0.0
C102 C 0.50123 0.28248 0.77709 0.0
O103 O 0.51561 0.25827 0.77966 0.0
C104 C 0.34138 0.14676 0.55647 0.0
O105 O 0.33574 0.17638 0.5386 0.0
O106 O 0.42488 0.18776 0.8508 0.0
O107 O 0.37475 0.19389 0.71684 0.0
O108 O 0.39086 0.2428 0.63848 0.0
C109 C 0.41529 0.2055 0.89856 0.0
O110 O 0.40803 0.23356 0.87724 0.0
O111 O 0.46457 0.26838 0.76081 0.0
C112 C 0.42289 0.20042 0.4354 0.0
O113 O 0.43338 0.17927 0.47573 0.0
O114 O 0.41333 0.22372 0.46747 0.0
O115 O 0.47088 0.23318 0.59841 0.0
O116 O 0.46227 0.19001 0.68491 0.0
O117 O 0.37488 0.15535 0.58445 0.0
C118 C 0.36999 0.22192 0.69269 0.0
C119 C 0.48287 0.21281 0.63238 0.0
H120 H 0.37139 0.29336 0.6957 0.0
H121 H 0.30598 0.17115 0.77777 0.0
H122 H 0.2614 0.18711 0.84889 0.0
H123 H 0.36862 0.33956 0.86406 0.0
H124 H 0.36311 0.3782 0.82073 0.0
H125 H 0.38895 0.35687 0.77379 0.0
H126 H 0.34047 0.33792 0.66413 0.0
H127 H 0.31481 0.35961 0.7104 0.0
H128 H 0.28702 0.30823 0.67979 0.0
H129 H 0.22349 0.21624 0.90991 0.0
H130 H 0.19497 0.25667 0.95602 0.0
H131 H 0.28759 0.36046 0.83883 0.0
C132 C 0.34734 0.26985 0.72786 0.0
C133 C 0.34183 0.23096 0.7308 0.0
C134 C 0.31059 0.20116 0.77468 0.0
C135 C 0.28518 0.20992 0.81532 0.0
C136 C 0.29177 0.24874 0.81213 0.0
C137 C 0.32211 0.27825 0.76967 0.0
C138 C 0.32346 0.31783 0.77736 0.0
C139 C 0.36341 0.35001 0.81099 0.0
C140 C 0.31598 0.33169 0.70353 0.0
C141 C 0.28876 0.30579 0.8298 0.0
C142 C 0.27084 0.26584 0.84927 0.0
C143 C 0.2374 0.24765 0.89542 0.0
C144 C 0.22146 0.27083 0.92141 0.0
C145 C 0.23917 0.31172 0.90139 0.0
C146 C 0.27361 0.3294 0.85587 0.0
H147 H 0.09235 0.37507 0.13395 0.0
H148 H 0.10015 0.3009 0.96357 0.0
H149 H 0.03379 0.24469 0.00064 0.0
H150 H 0.04189 0.29711 0.26917 0.0
H151 H 0.01012 0.31547 0.30175 0.0
H152 H 0.05893 0.34991 0.26376 0.0
H153 H 0.02652 0.37474 0.17003 0.0
H154 H 0.9777 0.3407 0.20818 0.0
H155 H 0.98693 0.33883 0.112 0.0
H156 H 0.96848 0.19618 0.05783 0.0
H157 H 0.90304 0.16027 0.11996 0.0
H158 H 0.93441 0.26654 0.24923 0.0
C159 C 0.08009 0.34701 0.1044 0.0
C160 C 0.10159 0.34231 0.04606 0.0
C161 C 0.0843 0.30524 0.00832 0.0
C162 C 0.04673 0.27305 0.02929 0.0
C163 C 0.02666 0.27851 0.08759 0.0
C164 C 0.04231 0.31468 0.12391 0.0
C165 C 0.01353 0.31297 0.18258 0.0
C166 C 0.03224 0.31924 0.25883 0.0
C167 C 0.00039 0.34362 0.16723 0.0
C168 C 0.97906 0.27022 0.17295 0.0
C169 C 0.9878 0.25079 0.1188 0.0
C170 C 0.96116 0.21108 0.10009 0.0
C171 C 0.92407 0.19087 0.13617 0.0
C172 C 0.91346 0.21056 0.18956 0.0
C173 C 0.94166 0.25066 0.20884 0.0
H174 H 0.71756 0.07885 0.46096 0.0
H175 H 0.78511 0.06691 0.28216 0.0
H176 H 0.76867 1.00057 0.32882 0.0
H177 H 0.74178 0.02659 0.60004 0.0
H178 H 0.69212 0.00192 0.63983 0.0
H179 H 0.71199 0.05026 0.5967 0.0
H180 H 0.65009 0.0211 0.51166 0.0
H181 H 0.62999 0.97286 0.55489 0.0
H182 H 0.63746 0.97734 0.45729 0.0
H183 H 0.74515 0.93617 0.39274 0.0
H184 H 0.70799 0.87261 0.45994 0.0
H185 H 0.65111 0.92289 0.59365 0.0
C186 C 0.7291 0.06233 0.43208 0.0
C187 C 0.75276 0.07805 0.36811 0.0
C188 C 0.76681 0.05536 0.33107 0.0
C189 C 0.75796 0.01783 0.35752 0.0
C190 C 0.7347 0.00321 0.42069 0.0
C191 C 0.7199 0.02435 0.45702 0.0
C192 C 0.6929 1.00013 0.52032 0.0
C193 C 0.71077 0.02097 0.59356 0.0
C194 C 0.65007 0.99239 0.5104 0.0
C195 C 0.69416 0.96175 0.51264 0.0
C196 C 0.71934 0.96477 0.45594 0.0
C197 C 0.72534 0.93337 0.43729 0.0
C198 C 0.70411 0.89736 0.47611 0.0
C199 C 0.67651 0.89266 0.53206 0.0
C200 C 0.67209 0.92563 0.5514 0.0
H201 H 0.6214 0.70416 0.70874 0.0
H202 H 0.69922 0.83235 0.7396 0.0
H203 H 0.75133 0.82105 0.79217 0.0
H204 H 0.64386 0.67695 0.87689 0.0
H205 H 0.64184 0.63205 0.8438 0.0
H206 H 0.61262 0.65021 0.80008 0.0
H207 H 0.64597 0.65257 0.67529 0.0
H208 H 0.67481 0.63376 0.71846 0.0
H209 H 0.69998 0.68002 0.66744 0.0
H210 H 0.79392 0.79544 0.84509 0.0
H211 H 0.8234 0.75701 0.89603 0.0
H212 H 0.71518 0.64567 0.83909 0.0
C213 C 0.64987 0.7298 0.72479 0.0
C214 C 0.65678 0.76911 0.71934 0.0
C215 C 0.69372 0.80202 0.74302 0.0
C216 C 0.7234 0.7959 0.77288 0.0
C217 C 0.7153 0.75665 0.77951 0.0
C218 C 0.67945 0.72415 0.75621 0.0
C219 C 0.67703 0.68492 0.77457 0.0
C220 C 0.64174 0.65955 0.82695 0.0
C221 C 0.6743 0.66144 0.70478 0.0
C222 C 0.71696 0.70045 0.81204 0.0
C223 C 0.73884 0.74188 0.81366 0.0
C224 C 0.77703 0.76295 0.84435 0.0
C225 C 0.79346 0.74097 0.87331 0.0
C226 C 0.77134 0.6985 0.87233 0.0
C227 C 0.73251 0.67815 0.84185 0.0
H228 H 0.07058 0.78605 0.10784 0.0
H229 H 0.06603 0.71652 0.29679 0.0
H230 H 0.9962 0.66448 0.26533 0.0
H231 H 0.96883 0.76418 0.11263 0.0
H232 H 0.96383 0.76071 0.01465 0.0
H233 H 0.01229 0.79268 0.05493 0.0
H234 H 0.04137 0.75568 0.98159 0.0
H235 H 0.99296 0.72341 0.94135 0.0
H236 H 0.01799 0.70196 0.98966 0.0
H237 H 0.92634 0.62008 0.21111 0.0
H238 H 0.86392 0.58696 0.13823 0.0
H239 H 0.91757 0.68555 0.98327 0.0
C240 C 0.05474 0.76021 0.14338 0.0
C241 C 0.07332 0.75548 0.20533 0.0
C242 C 0.05203 0.72073 0.24932 0.0
C243 C 0.01248 0.69109 0.23184 0.0
C244 C 0.99514 0.69657 0.1697 0.0
C245 C 0.0158 0.73023 0.12606 0.0
C246 C 0.99154 0.72845 0.06048 0.0
C247 C 0.98365 0.76358 0.06075 0.0
C248 C 0.01219 0.7273 0.98907 0.0
C249 C 0.95353 0.68887 0.07457 0.0
C250 C 0.95601 0.67077 0.13767 0.0
C251 C 0.92415 0.63397 0.16153 0.0
C252 C 0.88886 0.61538 0.11983 0.0
C253 C 0.88593 0.63366 0.0551 0.0
C254 C 0.91885 0.67075 0.03241 0.0
H255 H 0.33572 0.07519 0.59614 0.0
H256 H 0.28275 0.12594 0.45602 0.0
H257 H 0.2403 0.06002 0.3992 0.0
H258 H 0.34185 0.01224 0.46968 0.0
H259 H 0.32751 0.97039 0.53032 0.0
H260 H 0.35074 0.02052 0.56645 0.0
H261 H 0.29038 0.99862 0.6546 0.0
H262 H 0.26694 0.9483 0.61862 0.0
H263 H 0.24024 0.97519 0.61833 0.0
H264 H 0.21113 0.99203 0.3449 0.0
H265 H 0.1928 0.92393 0.3039 0.0
H266 H 0.26041 0.91512 0.48367 0.0
C267 C 0.31451 0.07213 0.5547 0.0
C268 C 0.31257 0.10574 0.53067 0.0
C269 C 0.28463 0.10064 0.4759 0.0
C270 C 0.26032 0.06326 0.44308 0.0
C271 C 0.26353 0.03094 0.46671 0.0
C272 C 0.28927 0.03466 0.52224 0.0
C273 C 0.28776 0.99525 0.53515 0.0
C274 C 0.32944 0.99991 0.52472 0.0
C275 C 0.27029 0.97834 0.61119 0.0
C276 C 0.25903 0.96972 0.47542 0.0
C277 C 0.24514 0.9908 0.43702 0.0
C278 C 0.22099 0.97479 0.37555 0.0
C279 C 0.21089 0.93621 0.35245 0.0
C280 C 0.22478 0.91406 0.39099 0.0
C281 C 0.24861 0.93093 0.45393 0.0
H282 H 0.2249 0.37572 0.62305 0.0
H283 H 0.16201 0.43126 0.71916 0.0
H284 H 0.14903 0.44754 0.5962 0.0
H285 H 0.27403 0.44591 0.48354 0.0
H286 H 0.26881 0.40988 0.41533 0.0
H287 H 0.27036 0.3994 0.51054 0.0
H288 H 0.20219 0.33284 0.49896 0.0
H289 H 0.20058 0.34293 0.40341 0.0
H290 H 0.15943 0.33374 0.46291 0.0
H291 H 0.14535 0.46039 0.46435 0.0
H292 H 0.15123 0.46895 0.33035 0.0
H293 H 0.21798 0.40672 0.32056 0.0
C294 C 0.20798 0.39087 0.61824 0.0
C295 C 0.19445 0.40221 0.68055 0.0
C296 C 0.17255 0.42215 0.67207 0.0
C297 C 0.165 0.43153 0.60253 0.0
C298 C 0.17933 0.42052 0.5423 0.0
C299 C 0.20014 0.40043 0.5493 0.0
C300 C 0.21337 0.3932 0.47576 0.0
C301 C 0.25937 0.41332 0.47106 0.0
C302 C 0.19265 0.34799 0.4593 0.0
C303 C 0.19796 0.41364 0.42665 0.0
C304 C 0.17784 0.4286 0.46604 0.0
C305 C 0.16082 0.44864 0.43273 0.0
C306 C 0.16429 0.45333 0.35683 0.0
C307 C 0.18512 0.43855 0.31572 0.0
C308 C 0.2022 0.41856 0.35107 0.0
H309 H 0.77495 0.1519 0.98239 0.0
H310 H 0.86667 0.27745 0.00847 0.0
H311 H 0.87123 0.28606 0.87494 0.0
H312 H 0.81716 0.1336 0.82074 0.0
H313 H 0.76904 0.10131 0.77921 0.0
H314 H 0.7733 0.1046 0.87724 0.0
H315 H 0.71859 0.12432 0.8843 0.0
H316 H 0.71399 0.12083 0.78639 0.0
H317 H 0.72493 0.1666 0.8321 0.0
H318 H 0.86594 0.28134 0.73885 0.0
H319 H 0.84855 0.26405 0.60902 0.0
H320 H 0.76002 0.14196 0.67172 0.0
C321 C 0.79608 0.18114 0.95999 0.0
C322 C 0.82061 0.21389 0.00581 0.0
C323 C 0.8477 0.2518 0.97443 0.0
C324 C 0.85058 0.25704 0.89861 0.0
C325 C 0.82617 0.22412 0.85493 0.0
C326 C 0.79931 0.18696 0.88433 0.0
C327 C 0.77592 0.15676 0.82513 0.0
C328 C 0.78437 0.12202 0.82563 0.0
C329 C 0.73068 0.14123 0.83243 0.0
C330 C 0.79375 0.18283 0.75803 0.0
C331 C 0.82284 0.22151 0.77636 0.0
C332 C 0.84328 0.25111 0.72367 0.0
C333 C 0.83332 0.24098 0.65013 0.0
C334 C 0.80303 0.20167 0.63033 0.0
C335 C 0.78337 0.17225 0.68512 0.0
H336 H 0.56897 0.75222 0.34071 0.0
H337 H 0.5683 0.86286 0.37672 0.0
H338 H 0.57427 0.87552 0.24462 0.0
H339 H 0.64007 0.78767 0.19141 0.0
H340 H 0.61442 0.7414 0.14058 0.0
H341 H 0.61033 0.74062 0.23872 0.0
H342 H 0.5327 0.70315 0.22932 0.0
H343 H 0.53662 0.70368 0.13117 0.0
H344 H 0.50945 0.72447 0.17513 0.0
H345 H 0.58013 0.87681 0.10858 0.0
H346 H 0.58358 0.86501 0.97664 0.0
H347 H 0.58009 0.75373 0.02697 0.0
C348 C 0.57008 0.77906 0.3207 0.0
C349 C 0.56813 0.80647 0.36942 0.0
C350 C 0.56951 0.84119 0.34084 0.0
C351 C 0.57305 0.84883 0.26567 0.0
C352 C 0.57494 0.82138 0.21917 0.0
C353 C 0.57326 0.78706 0.24527 0.0
C354 C 0.575 0.76214 0.18276 0.0
C355 C 0.61218 0.75771 0.18875 0.0
C356 C 0.53613 0.72092 0.17942 0.0
C357 C 0.57841 0.78811 0.11798 0.0
C358 C 0.57824 0.82211 0.14025 0.0
C359 C 0.58036 0.8503 0.09036 0.0
C360 C 0.58235 0.84339 0.01553 0.0
C361 C 0.58233 0.80862 0.99132 0.0
C362 C 0.58055 0.78083 0.04358 0.0
H363 H 0.72441 0.51254 0.67238 0.0
H364 H 0.80531 0.64091 0.68913 0.0
H365 H 0.808 0.6465 0.55434 0.0
H366 H 0.77503 0.49926 0.52405 0.0
H367 H 0.73027 0.46019 0.48108 0.0
H368 H 0.73117 0.46709 0.57843 0.0
H369 H 0.66859 0.47471 0.57024 0.0
H370 H 0.66743 0.46787 0.47269 0.0
H371 H 0.66951 0.51201 0.51022 0.0
H372 H 0.80453 0.63755 0.4194 0.0
H373 H 0.79951 0.61437 0.29225 0.0
H374 H 0.72246 0.49106 0.36389 0.0
C375 C 0.74203 0.54173 0.64737 0.0
C376 C 0.7644 0.57626 0.69015 0.0
C377 C 0.78817 0.61412 0.65644 0.0
C378 C 0.78957 0.6176 0.58029 0.0
C379 C 0.76733 0.58283 0.53926 0.0
C380 C 0.74433 0.54555 0.57152 0.0
C381 C 0.72637 0.51246 0.51514 0.0
C382 C 0.74164 0.48303 0.52528 0.0
C383 C 0.68023 0.49048 0.51721 0.0
C384 C 0.74308 0.53696 0.4461 0.0
C385 C 0.76621 0.5775 0.46122 0.0
C386 C 0.78629 0.60592 0.40667 0.0
C387 C 0.78329 0.59244 0.33472 0.0
C388 C 0.7606 0.55091 0.31832 0.0
C389 C 0.73973 0.523 0.37467 0.0
H390 H 0.19206 0.76198 0.66123 0.0
H391 H 0.28289 0.88844 0.6415 0.0
H392 H 0.28043 0.8966 0.7739 0.0
H393 H 0.13348 0.77326 0.80121 0.0
H394 H 0.12248 0.72845 0.85023 0.0
H395 H 0.13146 0.73155 0.75315 0.0
H396 H 0.1881 0.71546 0.77202 0.0
H397 H 0.17917 0.71216 0.86917 0.0
H398 H 0.22871 0.746 0.83334 0.0
H399 H 0.2677 0.89258 0.90574 0.0
H400 H 0.24647 0.87569 0.03392 0.0
H401 H 0.16448 0.75167 0.97178 0.0
C402 C 0.21145 0.79128 0.68496 0.0
C403 C 0.23761 0.82454 0.64105 0.0
C404 C 0.26266 0.86245 0.67397 0.0
C405 C 0.2615 0.86749 0.74921 0.0
C406 C 0.23536 0.83431 0.79092 0.0
C407 C 0.21093 0.79687 0.7605 0.0
C408 C 0.18568 0.76639 0.81866 0.0
C409 C 0.1406 0.7489 0.80498 0.0
C410 C 0.19605 0.73304 0.82357 0.0
C411 C 0.19948 0.79288 0.88595 0.0
C412 C 0.22817 0.83189 0.86837 0.0
C413 C 0.24534 0.86212 0.92054 0.0
C414 C 0.233 0.85222 0.99314 0.0
C415 C 0.20381 0.8124 0.01279 0.0
C416 C 0.18683 0.78238 0.95836 0.0
H417 H 0.41478 0.24612 0.32787 0.0
H418 H 0.4248 0.14054 0.36145 0.0
H419 H 0.42153 0.1292 0.22902 0.0
H420 H 0.34589 0.20692 0.17442 0.0
H421 H 0.36941 0.25411 0.12617 0.0
H422 H 0.37102 0.2535 0.22447 0.0
H423 H 0.4487 0.29695 0.21979 0.0
H424 H 0.44731 0.29765 0.12152 0.0
H425 H 0.47667 0.28002 0.16668 0.0
H426 H 0.4196 0.12996 0.09317 0.0
H427 H 0.419 0.14333 0.96145 0.0
H428 H 0.41009 0.24801 0.01402 0.0
C429 C 0.41603 0.22053 0.30725 0.0
C430 C 0.42016 0.19434 0.35522 0.0
C431 C 0.42192 0.16127 0.32601 0.0
C432 C 0.41994 0.1544 0.25071 0.0
C433 C 0.41626 0.18086 0.20486 0.0
C434 C 0.41434 0.21328 0.23172 0.0
C435 C 0.41166 0.23772 0.1698 0.0
C436 C 0.37213 0.23806 0.17398 0.0
C437 C 0.44826 0.28062 0.16944 0.0
C438 C 0.41237 0.21389 0.10438 0.0
C439 C 0.41503 0.18121 0.12592 0.0
C440 C 0.41729 0.15534 0.07548 0.0
C441 C 0.41699 0.16319 0.00081 0.0
C442 C 0.41431 0.19654 0.97735 0.0
C443 C 0.41176 0.22201 0.03011 0.0
H444 H 0.20294 0.54972 0.24659 0.0
H445 H 0.23843 0.58215 0.02066 0.0
H446 H 0.23095 0.64182 0.03559 0.0
H447 H 0.12749 0.58289 0.24887 0.0
H448 H 0.13863 0.59948 0.34235 0.0
H449 H 0.14342 0.55786 0.31124 0.0
H450 H 0.21717 0.59438 0.35541 0.0
H451 H 0.2128 0.63616 0.38616 0.0
H452 H 0.25192 0.64425 0.3223 0.0
H453 H 0.22959 0.70225 0.08128 0.0
H454 H 0.22835 0.7564 0.14977 0.0
H455 H 0.18721 0.68134 0.34352 0.0
C456 C 0.20851 0.5692 0.20012 0.0
C457 C 0.22146 0.562 0.13265 0.0
C458 C 0.22834 0.58751 0.07256 0.0
C459 C 0.22416 0.62127 0.08066 0.0
C460 C 0.21198 0.62806 0.14855 0.0
C461 C 0.20341 0.60225 0.20678 0.0
C462 C 0.19179 0.61674 0.27437 0.0
C463 C 0.14771 0.58751 0.29544 0.0
C464 C 0.22013 0.62328 0.33829 0.0
C465 C 0.19745 0.65605 0.24644 0.0
C466 C 0.20885 0.66185 0.17359 0.0
C467 C 0.21953 0.69755 0.13762 0.0
C468 C 0.2187 0.72815 0.17709 0.0
C469 C 0.20671 0.72275 0.25154 0.0
C470 C 0.19548 0.68596 0.28622 0.0
H471 H 0.65333 0.17401 0.47503 0.0
H472 H 0.73635 0.30166 0.50558 0.0
H473 H 0.68183 0.30893 0.55864 0.0
H474 H 0.5678 0.18342 0.42578 0.0
H475 H 0.53185 0.1381 0.47243 0.0
H476 H 0.57742 0.14278 0.43599 0.0
H477 H 0.59434 0.12718 0.56392 0.0
H478 H 0.54904 0.12288 0.60092 0.0
H479 H 0.59693 0.15755 0.64093 0.0
H480 H 0.6189 0.3036 0.60364 0.0
H481 H 0.55001 0.28544 0.63908 0.0
H482 H 0.50736 0.16077 0.58766 0.0
C483 C 0.65996 0.20348 0.49269 0.0
C484 C 0.69917 0.23726 0.48619 0.0
C485 C 0.70664 0.27531 0.51001 0.0
C486 C 0.67587 0.27979 0.54037 0.0
C487 C 0.63776 0.24593 0.54675 0.0
C488 C 0.62953 0.20852 0.52351 0.0
C489 C 0.58564 0.17722 0.53622 0.0
C490 C 0.56443 0.15933 0.46327 0.0
C491 C 0.58125 0.14427 0.58864 0.0
C492 C 0.57073 0.2029 0.57102 0.0
C493 C 0.60136 0.24252 0.57577 0.0
C494 C 0.59479 0.2726 0.60135 0.0
C495 C 0.55572 0.26203 0.62171 0.0
C496 C 0.52398 0.22166 0.61815 0.0
C497 C 0.53155 0.19161 0.5931 0.0
H498 H 0.32058 0.50883 0.86091 0.0
H499 H 0.31351 0.53476 0.08943 0.0
H500 H 0.37125 0.60346 0.07205 0.0
H501 H 0.43215 0.56739 0.85154 0.0
H502 H 0.4326 0.58338 0.75902 0.0
H503 H 0.39201 0.5356 0.79036 0.0
H504 H 0.34076 0.55623 0.7519 0.0
H505 H 0.3811 0.6041 0.72094 0.0
H506 H 0.3455 0.60191 0.78759 0.0
H507 H 0.42402 0.67082 0.027 0.0
H508 H 0.47356 0.73151 0.9602 0.0
H509 H 0.45123 0.66128 0.76262 0.0
C510 C 0.33155 0.52889 0.90742 0.0
C511 C 0.31243 0.51669 0.97648 0.0
C512 C 0.32773 0.54354 0.0362 0.0
C513 C 0.36047 0.58258 0.02678 0.0
C514 C 0.37821 0.5939 0.95776 0.0
C515 C 0.36489 0.56764 0.8994 0.0
C516 C 0.38938 0.58751 0.83095 0.0
C517 C 0.41293 0.56726 0.80654 0.0
C518 C 0.36258 0.58744 0.76923 0.0
C519 C 0.41738 0.6296 0.85917 0.0
C520 C 0.41034 0.63249 0.93255 0.0
C521 C 0.43031 0.66879 0.96996 0.0
C522 C 0.45818 0.7031 0.93147 0.0
C523 C 0.46622 0.70085 0.85659 0.0
C524 C 0.44598 0.66354 0.82016 0.0
H525 H 0.82466 0.3232 0.31157 0.0
H526 H 0.76739 0.23918 0.1331 0.0
H527 H 0.77674 0.29424 0.05375 0.0
H528 H 0.77508 0.37617 0.27754 0.0
H529 H 0.81653 0.42476 0.3025 0.0
H530 H 0.81185 0.38011 0.34218 0.0
H531 H 0.88363 0.4015 0.29662 0.0
H532 H 0.88833 0.44611 0.25616 0.0
H533 H 0.89581 0.41178 0.20095 0.0
H534 H 0.78789 0.35639 -0.00469 0.0
H535 H 0.79141 0.42016 0.96651 0.0
H536 H 0.83638 0.46402 0.18441 0.0
C537 C 0.81495 0.31665 0.25533 0.0
C538 C 0.79658 0.27704 0.22792 0.0
C539 C 0.78264 0.26939 0.1549 0.0
C540 C 0.78787 0.30052 0.10914 0.0
C541 C 0.80621 0.33917 0.13752 0.0
C542 C 0.81893 0.34737 0.20921 0.0
C543 C 0.83284 0.39066 0.22833 0.0
C544 C 0.80756 0.39304 0.29133 0.0
C545 C 0.87783 0.41388 0.24658 0.0
C546 C 0.82482 0.40496 0.15682 0.0
C547 C 0.81053 0.37503 0.10471 0.0
C548 C 0.79931 0.38025 0.03539 0.0
C549 C 0.80148 0.41664 0.01952 0.0
C550 C 0.81405 0.44704 0.07321 0.0
C551 C 0.82686 0.44143 0.14208 0.0
H552 H 0.3315 0.75044 0.40806 0.0
H553 H 0.34919 0.86692 0.46768 0.0
H554 H 0.4132 0.88447 0.52649 0.0
H555 H 0.36264 0.73046 0.56517 0.0
H556 H 0.38892 0.70743 0.52609 0.0
H557 H 0.34843 0.7065 0.47698 0.0
H558 H 0.39519 0.74059 0.36539 0.0
H559 H 0.43583 0.74095 0.41359 0.0
H560 H 0.44203 0.78705 0.37759 0.0
H561 H 0.46878 0.88448 0.59706 0.0
H562 H 0.51584 0.8697 0.66152 0.0
H563 H 0.46223 0.75412 0.55241 0.0
C564 C 0.34952 0.78011 0.43142 0.0
C565 C 0.33545 0.80726 0.43342 0.0
C566 C 0.3596 0.84574 0.46498 0.0
C567 C 0.39597 0.85597 0.49874 0.0
C568 C 0.40811 0.82775 0.49889 0.0
C569 C 0.38613 0.791 0.46436 0.0
C570 C 0.40436 0.76503 0.47627 0.0
C571 C 0.37429 0.72502 0.51336 0.0
C572 C 0.4203 0.758 0.40391 0.0
C573 C 0.43842 0.79184 0.52669 0.0
C574 C 0.44053 0.82811 0.53844 0.0
C575 C 0.46799 0.85653 0.58707 0.0
C576 C 0.49432 0.84775 0.62393 0.0
C577 C 0.49273 0.81083 0.61196 0.0
C578 C 0.46443 0.78276 0.56249 0.0
H579 H 0.70968 0.47656 0.86582 0.0
H580 H 0.65088 0.49306 0.05343 0.0
H581 H 0.58465 0.44108 0.00572 0.0
H582 H 0.62851 0.4502 0.72955 0.0
H583 H 0.63488 0.41158 0.68753 0.0
H584 H 0.67727 0.45481 0.72743 0.0
H585 H 0.69234 0.41073 0.80989 0.0
H586 H 0.65107 0.36674 0.76974 0.0
H587 H 0.65305 0.3735 0.86744 0.0
H588 H 0.52555 0.38364 0.94243 0.0
H589 H 0.47996 0.31987 0.87867 0.0
H590 H 0.57862 0.33642 0.74045 0.0
C591 C 0.68262 0.47008 0.89521 0.0
C592 C 0.68486 0.48933 0.96195 0.0
C593 C 0.64933 0.47902 0.0013 0.0
C594 C 0.61171 0.44974 0.97446 0.0
C595 C 0.61036 0.43071 0.90878 0.0
C596 C 0.64497 0.44021 0.87004 0.0
C597 C 0.63601 0.41141 0.80707 0.0
C598 C 0.64463 0.43332 0.73349 0.0
C599 C 0.65949 0.38928 0.81403 0.0
C600 C 0.59139 0.38332 0.8182 0.0
C601 C 0.57682 0.39577 0.8754 0.0
C602 C 0.53658 0.37388 0.89707 0.0
C603 C 0.51088 0.33787 0.86044 0.0
C604 C 0.52592 0.32372 0.8045 0.0
C605 C 0.56644 0.347 0.78255 0.0
loop_
_geom_bond_atom_site_label_1
_geom_bond_atom_site_label_2
_geom_bond_distance
_geom_bond_site_symmetry_2
_ccdc_geom_bond_type
Zn0 O6 1.969 . S
Zn0 O7 1.965 . S
Zn0 O11 2.024 . S
Zn0 O16 1.969 . S
Zn1 O8 1.969 . S
Zn1 O14 1.969 . S
Zn1 O15 1.965 . S
Zn1 O17 2.024 . S
C2 O3 1.229 . S
C2 O11 1.058 . S
O3 C2 1.229 . S
C4 O5 1.229 . S
C4 O17 1.058 . S
O5 C4 1.229 . S
O6 Zn0 1.969 . S
O6 C9 1.267 . S
O7 Zn0 1.965 . S
O7 C18 1.260 . S
O8 Zn1 1.969 . S
O8 C18 1.258 1_556 S
C9 O6 1.267 . S
C9 O10 1.228 . S
O10 C9 1.228 . S
O11 Zn0 2.024 . S
O11 C2 1.058 . S
C12 O13 1.228 . S
C12 O14 1.267 . S
O13 C12 1.228 . S
O14 Zn1 1.969 . S
O14 C12 1.267 . S
O15 Zn1 1.965 . S
O15 C19 1.260 . S
O16 Zn0 1.969 . S
O16 C19 1.258 1_554 S
O17 Zn1 2.024 . S
O17 C4 1.058 . S
C18 O7 1.260 . S
C18 O8 1.258 1_554 S
C19 O15 1.260 . S
C19 O16 1.258 1_556 S
Zn20 O26 1.969 . S
Zn20 O27 1.965 . S
Zn20 O31 2.024 . S
Zn20 O36 1.969 . S
Zn21 O28 1.969 . S
Zn21 O34 1.969 . S
Zn21 O35 1.965 . S
Zn21 O37 2.024 . S
C22 O23 1.229 . S
C22 O31 1.058 . S
O23 C22 1.229 . S
C24 O25 1.229 . S
C24 O37 1.058 . S
O25 C24 1.229 . S
O26 Zn20 1.969 . S
O26 C29 1.267 . S
O27 Zn20 1.965 . S
O27 C38 1.260 . S
O28 Zn21 1.969 . S
O28 C38 1.258 . S
C29 O26 1.267 . S
C29 O30 1.228 . S
O30 C29 1.228 . S
O31 Zn20 2.024 . S
O31 C22 1.058 . S
C32 O33 1.228 . S
C32 O34 1.267 . S
O33 C32 1.228 . S
O34 Zn21 1.969 . S
O34 C32 1.267 . S
O35 Zn21 1.965 . S
O35 C39 1.260 . S
O36 Zn20 1.969 . S
O36 C39 1.258 . S
O37 Zn21 2.024 . S
O37 C24 1.058 . S
C38 O27 1.260 . S
C38 O28 1.258 . S
C39 O35 1.260 . S
C39 O36 1.258 . S
Zn40 O46 1.969 . S
Zn40 O47 1.965 . S
Zn40 O51 2.024 . S
Zn40 O56 1.969 . S
Zn41 O48 1.969 . S
Zn41 O54 1.969 . S
Zn41 O55 1.965 . S
Zn41 O57 2.024 . S
C42 O43 1.229 . S
C42 O51 1.058 . S
O43 C42 1.229 . S
C44 O45 1.229 . S
C44 O57 1.058 . S
O45 C44 1.229 . S
O46 Zn40 1.969 . S
O46 C49 1.267 . S
O47 Zn40 1.965 . S
O47 C58 1.260 . S
O48 Zn41 1.969 . S
O48 C58 1.258 . S
C49 O46 1.267 . S
C49 O50 1.228 . S
O50 C49 1.228 . S
O51 Zn40 2.024 . S
O51 C42 1.058 . S
C52 O53 1.228 . S
C52 O54 1.267 . S
O53 C52 1.228 . S
O54 Zn41 1.969 . S
O54 C52 1.267 . S
O55 Zn41 1.965 . S
O55 C59 1.260 . S
O56 Zn40 1.969 . S
O56 C59 1.258 . S
O57 Zn41 2.024 . S
O57 C44 1.058 . S
C58 O47 1.260 . S
C58 O48 1.258 . S
C59 O55 1.260 . S
C59 O56 1.258 . S
Zn60 O66 1.969 . S
Zn60 O67 1.965 . S
Zn60 O71 2.024 . S
Zn60 O76 1.969 . S
Zn61 O68 1.969 . S
Zn61 O74 1.969 . S
Zn61 O75 1.965 . S
Zn61 O77 2.024 . S
C62 O63 1.229 . S
C62 O71 1.058 . S
O63 C62 1.229 . S
C64 O65 1.229 . S
C64 O77 1.058 . S
O65 C64 1.229 . S
O66 Zn60 1.969 . S
O66 C69 1.267 . S
O67 Zn60 1.965 . S
O67 C78 1.260 . S
O68 Zn61 1.969 . S
O68 C78 1.258 1_556 S
C69 O66 1.267 . S
C69 O70 1.228 . S
O70 C69 1.228 . S
O71 Zn60 2.024 . S
O71 C62 1.058 . S
C72 O73 1.228 . S
C72 O74 1.267 . S
O73 C72 1.228 . S
O74 Zn61 1.969 . S
O74 C72 1.267 . S
O75 Zn61 1.965 . S
O75 C79 1.260 . S
O76 Zn60 1.969 . S
O76 C79 1.258 1_554 S
O77 Zn61 2.024 . S
O77 C64 1.058 . S
C78 O67 1.260 . S
C78 O68 1.258 1_554 S
C79 O75 1.260 . S
C79 O76 1.258 1_556 S
Zn80 O86 1.969 . S
Zn80 O87 1.965 . S
Zn80 O91 2.024 . S
Zn80 O96 1.969 . S
Zn81 O88 1.969 . S
Zn81 O94 1.969 . S
Zn81 O95 1.965 . S
Zn81 O97 2.024 . S
C82 O83 1.229 . S
C82 O91 1.058 . S
O83 C82 1.229 . S
C84 O85 1.229 . S
C84 O97 1.058 . S
O85 C84 1.229 . S
O86 Zn80 1.969 . S
O86 C89 1.267 . S
O87 Zn80 1.965 . S
O87 C98 1.260 . S
O88 Zn81 1.969 . S
O88 C98 1.258 . S
C89 O86 1.267 . S
C89 O90 1.228 . S
O90 C89 1.228 . S
O91 Zn80 2.024 . S
O91 C82 1.058 . S
C92 O93 1.228 . S
C92 O94 1.267 . S
O93 C92 1.228 . S
O94 Zn81 1.969 . S
O94 C92 1.267 . S
O95 Zn81 1.965 . S
O95 C99 1.260 . S
O96 Zn80 1.969 . S
O96 C99 1.258 . S
O97 Zn81 2.024 . S
O97 C84 1.058 . S
C98 O87 1.260 . S
C98 O88 1.258 . S
C99 O95 1.260 . S
C99 O96 1.258 . S
Zn100 O106 1.969 . S
Zn100 O107 1.965 . S
Zn100 O111 2.024 . S
Zn100 O116 1.969 . S
Zn101 O108 1.969 . S
Zn101 O114 1.969 . S
Zn101 O115 1.965 . S
Zn101 O117 2.024 . S
C102 O103 1.229 . S
C102 O111 1.058 . S
O103 C102 1.229 . S
C104 O105 1.229 . S
C104 O117 1.058 . S
O105 C104 1.229 . S
O106 Zn100 1.969 . S
O106 C109 1.267 . S
O107 Zn100 1.965 . S
O107 C118 1.260 . S
O108 Zn101 1.969 . S
O108 C118 1.258 . S
C109 O106 1.267 . S
C109 O110 1.228 . S
O110 C109 1.228 . S
O111 Zn100 2.024 . S
O111 C102 1.058 . S
C112 O113 1.228 . S
C112 O114 1.267 . S
O113 C112 1.228 . S
O114 Zn101 1.969 . S
O114 C112 1.267 . S
O115 Zn101 1.965 . S
O115 C119 1.260 . S
O116 Zn100 1.969 . S
O116 C119 1.258 . S
O117 Zn101 2.024 . S
O117 C104 1.058 . S
C118 O107 1.260 . S
C118 O108 1.258 . S
C119 O115 1.260 . S
C119 O116 1.258 . S
H120 C132 0.930 . S
H121 C134 0.930 . S
H122 C135 0.930 . S
H123 C139 0.959 . S
H124 C139 0.959 . S
H125 C139 0.961 . S
H126 C140 0.960 . S
H127 C140 0.961 . S
H128 C140 0.959 . S
H129 C143 0.929 . S
H130 C144 0.931 . S
H131 C146 0.930 . S
C132 H120 0.930 . S
C132 C133 1.399 . S
C132 C137 1.399 . S
C133 C132 1.399 . S
C133 C134 1.376 . S
C134 H121 0.930 . S
C134 C133 1.376 . S
C134 C135 1.388 . S
C135 H122 0.930 . S
C135 C134 1.388 . S
C135 C136 1.390 . S
C136 C135 1.390 . S
C136 C137 1.394 . S
C136 C142 1.465 . S
C137 C132 1.399 . S
C137 C136 1.394 . S
C137 C138 1.516 . S
C138 C137 1.516 . S
C138 C139 1.502 . S
C138 C140 1.561 . S
C138 C141 1.526 . S
C139 H123 0.959 . S
C139 H124 0.959 . S
C139 H125 0.961 . S
C139 C138 1.502 . S
C140 H126 0.960 . S
C140 H127 0.961 . S
C140 H128 0.959 . S
C140 C138 1.561 . S
C141 C138 1.526 . S
C141 C142 1.396 . S
C141 C146 1.390 . S
C142 C136 1.465 . S
C142 C141 1.396 . S
C142 C143 1.399 . S
C143 H129 0.929 . S
C143 C142 1.399 . S
C143 C144 1.385 . S
C144 H130 0.931 . S
C144 C143 1.385 . S
C144 C145 1.389 . S
C145 C144 1.389 . S
C145 C146 1.387 . S
C146 H131 0.930 . S
C146 C141 1.390 . S
C146 C145 1.387 . S
H147 C159 0.930 . S
H148 C161 0.930 1_556 S
H149 C162 0.930 . S
H150 C166 0.959 . S
H151 C166 0.959 . S
H152 C166 0.961 . S
H153 C167 0.960 . S
H154 C167 0.961 . S
H155 C167 0.959 . S
H156 C170 0.929 . S
H157 C171 0.931 . S
H158 C173 0.930 . S
C159 H147 0.930 . S
C159 C160 1.399 . S
C159 C164 1.399 . S
C160 C159 1.399 . S
C160 C161 1.376 . S
C161 H148 0.930 1_554 S
C161 C160 1.376 . S
C161 C162 1.388 . S
C162 H149 0.930 . S
C162 C161 1.388 . S
C162 C163 1.390 . S
C163 C162 1.390 . S
C163 C164 1.394 . S
C163 C169 1.465 1_455 S
C164 C159 1.399 . S
C164 C163 1.394 . S
C164 C165 1.516 . S
C165 C164 1.516 . S
C165 C166 1.502 . S
C165 C167 1.561 . S
C165 C168 1.526 1_455 S
C166 H150 0.959 . S
C166 H151 0.959 . S
C166 H152 0.961 . S
C166 C165 1.502 . S
C167 H153 0.960 . S
C167 H154 0.961 . S
C167 H155 0.959 . S
C167 C165 1.561 . S
C168 C165 1.526 1_655 S
C168 C169 1.396 . S
C168 C173 1.390 . S
C169 C163 1.465 1_655 S
C169 C168 1.396 . S
C169 C170 1.399 . S
C170 H156 0.929 . S
C170 C169 1.399 . S
C170 C171 1.385 . S
C171 H157 0.931 . S
C171 C170 1.385 . S
C171 C172 1.389 . S
C172 C171 1.389 . S
C172 C173 1.387 . S
C173 H158 0.930 . S
C173 C168 1.390 . S
C173 C172 1.387 . S
H174 C186 0.930 . S
H175 C188 0.930 . S
H176 C189 0.930 . S
H177 C193 0.959 . S
H178 C193 0.959 . S
H179 C193 0.961 . S
H180 C194 0.960 . S
H181 C194 0.961 . S
H182 C194 0.959 . S
H183 C197 0.929 . S
H184 C198 0.931 . S
H185 C200 0.930 . S
C186 H174 0.930 . S
C186 C187 1.399 . S
C186 C191 1.399 . S
C187 C186 1.399 . S
C187 C188 1.376 . S
C188 H175 0.930 . S
C188 C187 1.376 . S
C188 C189 1.388 . S
C189 H176 0.930 . S
C189 C188 1.388 . S
C189 C190 1.390 . S
C190 C189 1.390 . S
C190 C191 1.394 . S
C190 C196 1.465 1_545 S
C191 C186 1.399 . S
C191 C190 1.394 . S
C191 C192 1.516 . S
C192 C191 1.516 . S
C192 C193 1.502 . S
C192 C194 1.561 . S
C192 C195 1.526 1_545 S
C193 H177 0.959 . S
C193 H178 0.959 . S
C193 H179 0.961 . S
C193 C192 1.502 . S
C194 H180 0.960 . S
C194 H181 0.961 . S
C194 H182 0.959 . S
C194 C192 1.561 . S
C195 C192 1.526 1_565 S
C195 C196 1.396 . S
C195 C200 1.390 . S
C196 C190 1.465 1_565 S
C196 C195 1.396 . S
C196 C197 1.399 . S
C197 H183 0.929 . S
C197 C196 1.399 . S
C197 C198 1.385 . S
C198 H184 0.931 . S
C198 C197 1.385 . S
C198 C199 1.389 . S
C199 C198 1.389 . S
C199 C200 1.387 . S
C200 H185 0.930 . S
C200 C195 1.390 . S
C200 C199 1.387 . S
H201 C213 0.930 . S
H202 C215 0.930 . S
H203 C216 0.930 . S
H204 C220 0.959 . S
H205 C220 0.959 . S
H206 C220 0.961 . S
H207 C221 0.960 . S
H208 C221 0.961 . S
H209 C221 0.959 . S
H210 C224 0.929 . S
H211 C225 0.931 . S
H212 C227 0.930 . S
C213 H201 0.930 . S
C213 C214 1.399 . S
C213 C218 1.399 . S
C214 C213 1.399 . S
C214 C215 1.376 . S
C215 H202 0.930 . S
C215 C214 1.376 . S
C215 C216 1.388 . S
C216 H203 0.930 . S
C216 C215 1.388 . S
C216 C217 1.390 . S
C217 C216 1.390 . S
C217 C218 1.394 . S
C217 C223 1.465 . S
C218 C213 1.399 . S
C218 C217 1.394 . S
C218 C219 1.516 . S
C219 C218 1.516 . S
C219 C220 1.502 . S
C219 C221 1.561 . S
C219 C222 1.526 . S
C220 H204 0.959 . S
C220 H205 0.959 . S
C220 H206 0.961 . S
C220 C219 1.502 . S
C221 H207 0.960 . S
C221 H208 0.961 . S
C221 H209 0.959 . S
C221 C219 1.561 . S
C222 C219 1.526 . S
C222 C223 1.396 . S
C222 C227 1.390 . S
C223 C217 1.465 . S
C223 C222 1.396 . S
C223 C224 1.399 . S
C224 H210 0.929 . S
C224 C223 1.399 . S
C224 C225 1.385 . S
C225 H211 0.931 . S
C225 C224 1.385 . S
C225 C226 1.389 . S
C226 C225 1.389 . S
C226 C227 1.387 . S
C227 H212 0.930 . S
C227 C222 1.390 . S
C227 C226 1.387 . S
H228 C240 0.930 . S
H229 C242 0.930 . S
H230 C243 0.930 1_655 S
H231 C247 0.959 1_655 S
H232 C247 0.959 1_656 S
H233 C247 0.961 . S
H234 C248 0.960 . S
H235 C248 0.953 1_656 S
H236 C248 0.959 . S
H237 C251 0.929 . S
H238 C252 0.931 . S
H239 C254 0.930 1_556 S
C240 H228 0.930 . S
C240 C241 1.399 . S
C240 C245 1.399 . S
C241 C240 1.399 . S
C241 C242 1.376 . S
C242 H229 0.930 . S
C242 C241 1.376 . S
C242 C243 1.388 . S
C243 H230 0.930 1_455 S
C243 C242 1.388 . S
C243 C244 1.390 1_455 S
C244 C243 1.390 1_655 S
C244 C245 1.394 1_655 S
C244 C250 1.465 . S
C245 C240 1.399 . S
C245 C244 1.394 1_455 S
C245 C246 1.516 1_455 S
C246 C245 1.516 1_655 S
C246 C247 1.502 1_655 S
C246 C248 1.561 1_655 S
C246 C249 1.526 . S
C247 H231 0.959 1_455 S
C247 H232 0.959 1_454 S
C247 H233 0.961 . S
C247 C246 1.502 1_455 S
C248 H234 0.960 . S
C248 H235 0.953 1_454 S
C248 H236 0.959 . S
C248 C246 1.561 1_455 S
C249 C246 1.526 . S
C249 C250 1.396 . S
C249 C254 1.390 . S
C250 C244 1.465 . S
C250 C249 1.396 . S
C250 C251 1.399 . S
C251 H237 0.929 . S
C251 C250 1.399 . S
C251 C252 1.385 . S
C252 H238 0.931 . S
C252 C251 1.385 . S
C252 C253 1.389 . S
C253 C252 1.389 . S
C253 C254 1.387 . S
C254 H239 0.930 1_554 S
C254 C249 1.390 . S
C254 C253 1.387 . S
H255 C267 0.930 . S
H256 C269 0.930 . S
H257 C270 0.930 . S
H258 C274 0.959 . S
H259 C274 0.959 . S
H260 C274 0.961 . S
H261 C275 0.960 . S
H262 C275 0.961 . S
H263 C275 0.959 . S
H264 C278 0.929 . S
H265 C279 0.931 . S
H266 C281 0.930 . S
C267 H255 0.930 . S
C267 C268 1.399 . S
C267 C272 1.399 . S
C268 C267 1.399 . S
C268 C269 1.376 . S
C269 H256 0.930 . S
C269 C268 1.376 . S
C269 C270 1.388 . S
C270 H257 0.930 . S
C270 C269 1.388 . S
C270 C271 1.390 . S
C271 C270 1.390 . S
C271 C272 1.394 . S
C271 C277 1.465 1_545 S
C272 C267 1.399 . S
C272 C271 1.394 . S
C272 C273 1.516 1_545 S
C273 C272 1.516 1_565 S
C273 C274 1.502 . S
C273 C275 1.561 . S
C273 C276 1.526 . S
C274 H258 0.959 . S
C274 H259 0.959 . S
C274 H260 0.961 . S
C274 C273 1.502 . S
C275 H261 0.960 . S
C275 H262 0.961 . S
C275 H263 0.959 . S
C275 C273 1.561 . S
C276 C273 1.526 . S
C276 C277 1.396 . S
C276 C281 1.390 . S
C277 C271 1.465 1_565 S
C277 C276 1.396 . S
C277 C278 1.399 . S
C278 H264 0.929 . S
C278 C277 1.399 . S
C278 C279 1.385 . S
C279 H265 0.931 . S
C279 C278 1.385 . S
C279 C280 1.389 . S
C280 C279 1.389 . S
C280 C281 1.387 . S
C281 H266 0.930 . S
C281 C276 1.390 . S
C281 C280 1.387 . S
H282 C294 0.930 . S
H283 C296 0.930 . S
H284 C297 0.930 . S
H285 C301 0.959 . S
H286 C301 0.959 . S
H287 C301 0.961 . S
H288 C302 0.960 . S
H289 C302 0.961 . S
H290 C302 0.959 . S
H291 C305 0.929 . S
H292 C306 0.931 . S
H293 C308 0.930 . S
C294 H282 0.930 . S
C294 C295 1.399 . S
C294 C299 1.399 . S
C295 C294 1.399 . S
C295 C296 1.376 . S
C296 H283 0.930 . S
C296 C295 1.376 . S
C296 C297 1.388 . S
C297 H284 0.930 . S
C297 C296 1.388 . S
C297 C298 1.390 . S
C298 C297 1.390 . S
C298 C299 1.394 . S
C298 C304 1.465 . S
C299 C294 1.399 . S
C299 C298 1.394 . S
C299 C300 1.516 . S
C300 C299 1.516 . S
C300 C301 1.502 . S
C300 C302 1.561 . S
C300 C303 1.526 . S
C301 H285 0.959 . S
C301 H286 0.959 . S
C301 H287 0.961 . S
C301 C300 1.502 . S
C302 H288 0.960 . S
C302 H289 0.961 . S
C302 H290 0.959 . S
C302 C300 1.561 . S
C303 C300 1.526 . S
C303 C304 1.396 . S
C303 C308 1.390 . S
C304 C298 1.465 . S
C304 C303 1.396 . S
C304 C305 1.399 . S
C305 H291 0.929 . S
C305 C304 1.399 . S
C305 C306 1.385 . S
C306 H292 0.931 . S
C306 C305 1.385 . S
C306 C307 1.389 . S
C307 C306 1.389 . S
C307 C308 1.387 . S
C308 H293 0.930 . S
C308 C303 1.390 . S
C308 C307 1.387 . S
H309 C321 0.930 . S
H310 C323 0.930 . S
H311 C324 0.930 . S
H312 C328 0.959 . S
H313 C328 0.959 . S
H314 C328 0.961 . S
H315 C329 0.960 . S
H316 C329 0.961 . S
H317 C329 0.959 . S
H318 C332 0.929 . S
H319 C333 0.931 . S
H320 C335 0.930 . S
C321 H309 0.930 . S
C321 C322 1.399 1_556 S
C321 C326 1.399 . S
C322 C321 1.399 1_554 S
C322 C323 1.376 . S
C323 H310 0.930 . S
C323 C322 1.376 . S
C323 C324 1.388 1_554 S
C324 H311 0.930 . S
C324 C323 1.388 1_556 S
C324 C325 1.390 . S
C325 C324 1.390 . S
C325 C326 1.394 . S
C325 C331 1.465 . S
C326 C321 1.399 . S
C326 C325 1.394 . S
C326 C327 1.516 . S
C327 C326 1.516 . S
C327 C328 1.502 . S
C327 C329 1.561 . S
C327 C330 1.526 . S
C328 H312 0.959 . S
C328 H313 0.959 . S
C328 H314 0.961 . S
C328 C327 1.502 . S
C329 H315 0.960 . S
C329 H316 0.961 . S
C329 H317 0.959 . S
C329 C327 1.561 . S
C330 C327 1.526 . S
C330 C331 1.396 . S
C330 C335 1.390 . S
C331 C325 1.465 . S
C331 C330 1.396 . S
C331 C332 1.399 . S
C332 H318 0.929 . S
C332 C331 1.399 . S
C332 C333 1.385 . S
C333 H319 0.931 . S
C333 C332 1.385 . S
C333 C334 1.389 . S
C334 C333 1.389 . S
C334 C335 1.387 . S
C335 H320 0.930 . S
C335 C330 1.390 . S
C335 C334 1.387 . S
H336 C348 0.930 . S
H337 C350 0.930 . S
H338 C351 0.930 . S
H339 C355 0.959 . S
H340 C355 0.959 . S
H341 C355 0.961 . S
H342 C356 0.960 . S
H343 C356 0.961 . S
H344 C356 0.959 . S
H345 C359 0.929 . S
H346 C360 0.931 1_556 S
H347 C362 0.930 . S
C348 H336 0.930 . S
C348 C349 1.399 . S
C348 C353 1.399 . S
C349 C348 1.399 . S
C349 C350 1.376 . S
C350 H337 0.930 . S
C350 C349 1.376 . S
C350 C351 1.388 . S
C351 H338 0.930 . S
C351 C350 1.388 . S
C351 C352 1.390 . S
C352 C351 1.390 . S
C352 C353 1.394 . S
C352 C358 1.465 . S
C353 C348 1.399 . S
C353 C352 1.394 . S
C353 C354 1.516 . S
C354 C353 1.516 . S
C354 C355 1.502 . S
C354 C356 1.561 . S
C354 C357 1.526 . S
C355 H339 0.959 . S
C355 H340 0.959 . S
C355 H341 0.961 . S
C355 C354 1.502 . S
C356 H342 0.960 . S
C356 H343 0.961 . S
C356 H344 0.959 . S
C356 C354 1.561 . S
C357 C354 1.526 . S
C357 C358 1.396 . S
C357 C362 1.390 . S
C358 C352 1.465 . S
C358 C357 1.396 . S
C358 C359 1.399 . S
C359 H345 0.929 . S
C359 C358 1.399 . S
C359 C360 1.385 . S
C360 H346 0.931 1_554 S
C360 C359 1.385 . S
C360 C361 1.389 1_554 S
C361 C360 1.389 1_556 S
C361 C362 1.387 1_556 S
C362 H347 0.930 . S
C362 C357 1.390 . S
C362 C361 1.387 1_554 S
H363 C375 0.930 . S
H364 C377 0.930 . S
H365 C378 0.930 . S
H366 C382 0.959 . S
H367 C382 0.959 . S
H368 C382 0.961 . S
H369 C383 0.960 . S
H370 C383 0.961 . S
H371 C383 0.959 . S
H372 C386 0.929 . S
H373 C387 0.931 . S
H374 C389 0.930 . S
C375 H363 0.930 . S
C375 C376 1.399 . S
C375 C380 1.399 . S
C376 C375 1.399 . S
C376 C377 1.376 . S
C377 H364 0.930 . S
C377 C376 1.376 . S
C377 C378 1.388 . S
C378 H365 0.930 . S
C378 C377 1.388 . S
C378 C379 1.390 . S
C379 C378 1.390 . S
C379 C380 1.394 . S
C379 C385 1.465 . S
C380 C375 1.399 . S
C380 C379 1.394 . S
C380 C381 1.516 . S
C381 C380 1.516 . S
C381 C382 1.502 . S
C381 C383 1.561 . S
C381 C384 1.526 . S
C382 H366 0.959 . S
C382 H367 0.959 . S
C382 H368 0.961 . S
C382 C381 1.502 . S
C383 H369 0.960 . S
C383 H370 0.961 . S
C383 H371 0.959 . S
C383 C381 1.561 . S
C384 C381 1.526 . S
C384 C385 1.396 . S
C384 C389 1.390 . S
C385 C379 1.465 . S
C385 C384 1.396 . S
C385 C386 1.399 . S
C386 H372 0.929 . S
C386 C385 1.399 . S
C386 C387 1.385 . S
C387 H373 0.931 . S
C387 C386 1.385 . S
C387 C388 1.389 . S
C388 C387 1.389 . S
C388 C389 1.387 . S
C389 H374 0.930 . S
C389 C384 1.390 . S
C389 C388 1.387 . S
H390 C402 0.930 . S
H391 C404 0.930 . S
H392 C405 0.930 . S
H393 C409 0.959 . S
H394 C409 0.959 . S
H395 C409 0.961 . S
H396 C410 0.960 . S
H397 C410 0.961 . S
H398 C410 0.959 . S
H399 C413 0.929 . S
H400 C414 0.931 1_554 S
H401 C416 0.930 1_554 S
C402 H390 0.930 . S
C402 C403 1.399 . S
C402 C407 1.399 . S
C403 C402 1.399 . S
C403 C404 1.376 . S
C404 H391 0.930 . S
C404 C403 1.376 . S
C404 C405 1.388 . S
C405 H392 0.930 . S
C405 C404 1.388 . S
C405 C406 1.390 . S
C406 C405 1.390 . S
C406 C407 1.394 . S
C406 C412 1.465 . S
C407 C402 1.399 . S
C407 C406 1.394 . S
C407 C408 1.516 . S
C408 C407 1.516 . S
C408 C409 1.502 . S
C408 C410 1.561 . S
C408 C411 1.526 . S
C409 H393 0.959 . S
C409 H394 0.959 . S
C409 H395 0.961 . S
C409 C408 1.502 . S
C410 H396 0.960 . S
C410 H397 0.961 . S
C410 H398 0.959 . S
C410 C408 1.561 . S
C411 C408 1.526 . S
C411 C412 1.396 . S
C411 C416 1.390 . S
C412 C406 1.465 . S
C412 C411 1.396 . S
C412 C413 1.399 . S
C413 H399 0.929 . S
C413 C412 1.399 . S
C413 C414 1.385 . S
C414 H400 0.931 1_556 S
C414 C413 1.385 . S
C414 C415 1.389 1_556 S
C415 C414 1.389 1_554 S
C415 C416 1.387 1_554 S
C416 H401 0.930 1_556 S
C416 C411 1.390 . S
C416 C415 1.387 1_556 S
H417 C429 0.930 . S
H418 C431 0.930 . S
H419 C432 0.930 . S
H420 C436 0.959 . S
H421 C436 0.959 . S
H422 C436 0.961 . S
H423 C437 0.960 . S
H424 C437 0.961 . S
H425 C437 0.959 . S
H426 C440 0.929 . S
H427 C441 0.931 1_556 S
H428 C443 0.930 . S
C429 H417 0.930 . S
C429 C430 1.399 . S
C429 C434 1.399 . S
C430 C429 1.399 . S
C430 C431 1.376 . S
C431 H418 0.930 . S
C431 C430 1.376 . S
C431 C432 1.388 . S
C432 H419 0.930 . S
C432 C431 1.388 . S
C432 C433 1.390 . S
C433 C432 1.390 . S
C433 C434 1.394 . S
C433 C439 1.465 . S
C434 C429 1.399 . S
C434 C433 1.394 . S
C434 C435 1.516 . S
C435 C434 1.516 . S
C435 C436 1.502 . S
C435 C437 1.561 . S
C435 C438 1.526 . S
C436 H420 0.959 . S
C436 H421 0.959 . S
C436 H422 0.961 . S
C436 C435 1.502 . S
C437 H423 0.960 . S
C437 H424 0.961 . S
C437 H425 0.959 . S
C437 C435 1.561 . S
C438 C435 1.526 . S
C438 C439 1.396 . S
C438 C443 1.390 . S
C439 C433 1.465 . S
C439 C438 1.396 . S
C439 C440 1.399 . S
C440 H426 0.929 . S
C440 C439 1.399 . S
C440 C441 1.385 . S
C441 H427 0.931 1_554 S
C441 C440 1.385 . S
C441 C442 1.389 1_554 S
C442 C441 1.389 1_556 S
C442 C443 1.387 1_556 S
C443 H428 0.930 . S
C443 C438 1.390 . S
C443 C442 1.387 1_554 S
H444 C456 0.930 . S
H445 C458 0.930 . S
H446 C459 0.930 . S
H447 C463 0.959 . S
H448 C463 0.959 . S
H449 C463 0.961 . S
H450 C464 0.960 . S
H451 C464 0.961 . S
H452 C464 0.959 . S
H453 C467 0.929 . S
H454 C468 0.931 . S
H455 C470 0.930 . S
C456 H444 0.930 . S
C456 C457 1.399 . S
C456 C461 1.399 . S
C457 C456 1.399 . S
C457 C458 1.376 . S
C458 H445 0.930 . S
C458 C457 1.376 . S
C458 C459 1.388 . S
C459 H446 0.930 . S
C459 C458 1.388 . S
C459 C460 1.390 . S
C460 C459 1.390 . S
C460 C461 1.394 . S
C460 C466 1.465 . S
C461 C456 1.399 . S
C461 C460 1.394 . S
C461 C462 1.516 . S
C462 C461 1.516 . S
C462 C463 1.502 . S
C462 C464 1.561 . S
C462 C465 1.526 . S
C463 H447 0.959 . S
C463 H448 0.959 . S
C463 H449 0.961 . S
C463 C462 1.502 . S
C464 H450 0.960 . S
C464 H451 0.961 . S
C464 H452 0.959 . S
C464 C462 1.561 . S
C465 C462 1.526 . S
C465 C466 1.396 . S
C465 C470 1.390 . S
C466 C460 1.465 . S
C466 C465 1.396 . S
C466 C467 1.399 . S
C467 H453 0.929 . S
C467 C466 1.399 . S
C467 C468 1.385 . S
C468 H454 0.931 . S
C468 C467 1.385 . S
C468 C469 1.389 . S
C469 C468 1.389 . S
C469 C470 1.387 . S
C470 H455 0.930 . S
C470 C465 1.390 . S
C470 C469 1.387 . S
H471 C483 0.930 . S
H472 C485 0.930 . S
H473 C486 0.930 . S
H474 C490 0.959 . S
H475 C490 0.959 . S
H476 C490 0.961 . S
H477 C491 0.960 . S
H478 C491 0.961 . S
H479 C491 0.959 . S
H480 C494 0.929 . S
H481 C495 0.931 . S
H482 C497 0.930 . S
C483 H471 0.930 . S
C483 C484 1.399 . S
C483 C488 1.399 . S
C484 C483 1.399 . S
C484 C485 1.376 . S
C485 H472 0.930 . S
C485 C484 1.376 . S
C485 C486 1.388 . S
C486 H473 0.930 . S
C486 C485 1.388 . S
C486 C487 1.390 . S
C487 C486 1.390 . S
C487 C488 1.394 . S
C487 C493 1.465 . S
C488 C483 1.399 . S
C488 C487 1.394 . S
C488 C489 1.516 . S
C489 C488 1.516 . S
C489 C490 1.502 . S
C489 C491 1.561 . S
C489 C492 1.526 . S
C490 H474 0.959 . S
C490 H475 0.959 . S
C490 H476 0.961 . S
C490 C489 1.502 . S
C491 H477 0.960 . S
C491 H478 0.961 . S
C491 H479 0.959 . S
C491 C489 1.561 . S
C492 C489 1.526 . S
C492 C493 1.396 . S
C492 C497 1.390 . S
C493 C487 1.465 . S
C493 C492 1.396 . S
C493 C494 1.399 . S
C494 H480 0.929 . S
C494 C493 1.399 . S
C494 C495 1.385 . S
C495 H481 0.931 . S
C495 C494 1.385 . S
C495 C496 1.389 . S
C496 C495 1.389 . S
C496 C497 1.387 . S
C497 H482 0.930 . S
C497 C492 1.390 . S
C497 C496 1.387 . S
H498 C510 0.930 . S
H499 C512 0.930 . S
H500 C513 0.930 . S
H501 C517 0.959 . S
H502 C517 0.959 . S
H503 C517 0.961 . S
H504 C518 0.960 . S
H505 C518 0.961 . S
H506 C518 0.959 . S
H507 C521 0.929 . S
H508 C522 0.931 . S
H509 C524 0.930 . S
C510 H498 0.930 . S
C510 C511 1.399 . S
C510 C515 1.399 . S
C511 C510 1.399 . S
C511 C512 1.376 . S
C512 H499 0.930 . S
C512 C511 1.376 . S
C512 C513 1.388 . S
C513 H500 0.930 . S
C513 C512 1.388 . S
C513 C514 1.390 . S
C514 C513 1.390 . S
C514 C515 1.394 . S
C514 C520 1.465 . S
C515 C510 1.399 . S
C515 C514 1.394 . S
C515 C516 1.516 . S
C516 C515 1.516 . S
C516 C517 1.502 . S
C516 C518 1.561 . S
C516 C519 1.526 . S
C517 H501 0.959 . S
C517 H502 0.959 . S
C517 H503 0.961 . S
C517 C516 1.502 . S
C518 H504 0.960 . S
C518 H505 0.961 . S
C518 H506 0.959 . S
C518 C516 1.561 . S
C519 C516 1.526 . S
C519 C520 1.396 . S
C519 C524 1.390 . S
C520 C514 1.465 . S
C520 C519 1.396 . S
C520 C521 1.399 . S
C521 H507 0.929 . S
C521 C520 1.399 . S
C521 C522 1.385 . S
C522 H508 0.931 . S
C522 C521 1.385 . S
C522 C523 1.389 . S
C523 C522 1.389 . S
C523 C524 1.387 . S
C524 H509 0.930 . S
C524 C519 1.390 . S
C524 C523 1.387 . S
H525 C537 0.930 . S
H526 C539 0.930 . S
H527 C540 0.930 . S
H528 C544 0.959 . S
H529 C544 0.959 . S
H530 C544 0.961 . S
H531 C545 0.960 . S
H532 C545 0.961 . S
H533 C545 0.959 . S
H534 C548 0.929 . S
H535 C549 0.931 . S
H536 C551 0.930 . S
C537 H525 0.930 . S
C537 C538 1.399 . S
C537 C542 1.399 . S
C538 C537 1.399 . S
C538 C539 1.376 . S
C539 H526 0.930 . S
C539 C538 1.376 . S
C539 C540 1.388 . S
C540 H527 0.930 . S
C540 C539 1.388 . S
C540 C541 1.390 . S
C541 C540 1.390 . S
C541 C542 1.394 . S
C541 C547 1.465 . S
C542 C537 1.399 . S
C542 C541 1.394 . S
C542 C543 1.516 . S
C543 C542 1.516 . S
C543 C544 1.502 . S
C543 C545 1.561 . S
C543 C546 1.526 . S
C544 H528 0.959 . S
C544 H529 0.959 . S
C544 H530 0.961 . S
C544 C543 1.502 . S
C545 H531 0.960 . S
C545 H532 0.961 . S
C545 H533 0.959 . S
C545 C543 1.561 . S
C546 C543 1.526 . S
C546 C547 1.396 . S
C546 C551 1.390 . S
C547 C541 1.465 . S
C547 C546 1.396 . S
C547 C548 1.399 . S
C548 H534 0.929 . S
C548 C547 1.399 . S
C548 C549 1.385 . S
C549 H535 0.931 . S
C549 C548 1.385 . S
C549 C550 1.389 . S
C550 C549 1.389 . S
C550 C551 1.387 . S
C551 H536 0.930 . S
C551 C546 1.390 . S
C551 C550 1.387 . S
H552 C564 0.930 . S
H553 C566 0.930 . S
H554 C567 0.930 . S
H555 C571 0.959 . S
H556 C571 0.959 . S
H557 C571 0.961 . S
H558 C572 0.960 . S
H559 C572 0.961 . S
H560 C572 0.959 . S
H561 C575 0.929 . S
H562 C576 0.931 . S
H563 C578 0.930 . S
C564 H552 0.930 . S
C564 C565 1.399 . S
C564 C569 1.399 . S
C565 C564 1.399 . S
C565 C566 1.376 . S
C566 H553 0.930 . S
C566 C565 1.376 . S
C566 C567 1.388 . S
C567 H554 0.930 . S
C567 C566 1.388 . S
C567 C568 1.390 . S
C568 C567 1.390 . S
C568 C569 1.394 . S
C568 C574 1.465 . S
C569 C564 1.399 . S
C569 C568 1.394 . S
C569 C570 1.516 . S
C570 C569 1.516 . S
C570 C571 1.502 . S
C570 C572 1.561 . S
C570 C573 1.526 . S
C571 H555 0.959 . S
C571 H556 0.959 . S
C571 H557 0.961 . S
C571 C570 1.502 . S
C572 H558 0.960 . S
C572 H559 0.961 . S
C572 H560 0.959 . S
C572 C570 1.561 . S
C573 C570 1.526 . S
C573 C574 1.396 . S
C573 C578 1.390 . S
C574 C568 1.465 . S
C574 C573 1.396 . S
C574 C575 1.399 . S
C575 H561 0.929 . S
C575 C574 1.399 . S
C575 C576 1.385 . S
C576 H562 0.931 . S
C576 C575 1.385 . S
C576 C577 1.389 . S
C577 C576 1.389 . S
C577 C578 1.387 . S
C578 H563 0.930 . S
C578 C573 1.390 . S
C578 C577 1.387 . S
H579 C591 0.930 . S
H580 C593 0.930 . S
H581 C594 0.930 1_554 S
H582 C598 0.959 . S
H583 C598 0.959 . S
H584 C598 0.961 . S
H585 C599 0.960 . S
H586 C599 0.961 . S
H587 C599 0.959 . S
H588 C602 0.929 . S
H589 C603 0.931 . S
H590 C605 0.930 . S
C591 H579 0.930 . S
C591 C592 1.399 . S
C591 C596 1.399 . S
C592 C591 1.399 . S
C592 C593 1.376 1_556 S
C593 H580 0.930 . S
C593 C592 1.376 1_554 S
C593 C594 1.388 1_554 S
C594 H581 0.930 1_556 S
C594 C593 1.388 1_556 S
C594 C595 1.390 . S
C595 C594 1.390 . S
C595 C596 1.394 . S
C595 C601 1.465 . S
C596 C591 1.399 . S
C596 C595 1.394 . S
C596 C597 1.516 . S
C597 C596 1.516 . S
C597 C598 1.502 . S
C597 C599 1.561 . S
C597 C600 1.526 . S
C598 H582 0.959 . S
C598 H583 0.959 . S
C598 H584 0.961 . S
C598 C597 1.502 . S
C599 H585 0.960 . S
C599 H586 0.961 . S
C599 H587 0.959 . S
C599 C597 1.561 . S
C600 C597 1.526 . S
C600 C601 1.396 . S
C600 C605 1.390 . S
C601 C595 1.465 . S
C601 C600 1.396 . S
C601 C602 1.399 . S
C602 H588 0.929 . S
C602 C601 1.399 . S
C602 C603 1.385 . S
C603 H589 0.931 . S
C603 C602 1.385 . S
C603 C604 1.389 . S
C604 C603 1.389 . S
C604 C605 1.387 . S
C605 H590 0.930 . S
C605 C600 1.390 . S
C605 C604 1.387 . S
C133 C118 1.399 . S
C145 C4 1.345 . S
C160 C18 1.405 . S
C172 C24 1.293 . S
C187 C38 1.407 . S
C199 C44 1.284 . S
C214 C58 1.399 . S
C226 C64 1.341 . S
C241 C84 1.358 . S
C253 C78 1.404 . S
C268 C104 1.302 . S
C280 C98 1.404 . S
C295 C12 1.276 . S
C307 C9 1.216 . S
C322 C32 1.217 . S
C334 C29 1.275 . S
C349 C52 1.192 . S
C361 C49 1.287 . S
C376 C72 1.213 . S
C388 C69 1.254 . S
C403 C89 1.192 . S
C415 C92 1.287 . S
C430 C112 1.193 . S
C442 C109 1.288 . S
C457 C2 1.395 . S
C469 C99 1.473 . S
C484 C22 1.363 . S
C496 C119 1.473 . S
C511 C19 1.466 . S
C523 C42 1.369 . S
C538 C39 1.495 . S
C550 C62 1.440 . S
C565 C82 1.447 . S
C577 C59 1.526 . S
C592 C79 1.486 . S
C604 C102 1.376 . S
