# Generated by pormake.
# Topology uoq, (4)-cn, num edge types: 1
# Building blocks:
#     Node 0, Type 0, BuildingBlock: QUQFOY_clean_sbu_3, # of connection points: 4
#     Node 1, Type 0, BuildingBlock: QUQFOY_clean_sbu_3, # of connection points: 4
#     Node 2, Type 0, BuildingBlock: QUQFOY_clean_sbu_3, # of connection points: 4
#     Node 3, Type 0, BuildingBlock: QUQFOY_clean_sbu_3, # of connection points: 4
#     Node 4, Type 0, BuildingBlock: QUQFOY_clean_sbu_3, # of connection points: 4
#     Node 5, Type 0, BuildingBlock: QUQFOY_clean_sbu_3, # of connection points: 4
#     Node 6, Type 0, BuildingBlock: QUQFOY_clean_sbu_3, # of connection points: 4
#     Node 7, Type 0, BuildingBlock: QUQFOY_clean_sbu_3, # of connection points: 4
#     Node 8, Type 0, BuildingBlock: QUQFOY_clean_sbu_3, # of connection points: 4
#     Node 9, Type 0, BuildingBlock: QUQFOY_clean_sbu_3, # of connection points: 4
#     Node 10, Type 0, BuildingBlock: QUQFOY_clean_sbu_3, # of connection points: 4
#     Node 11, Type 0, BuildingBlock: QUQFOY_clean_sbu_3, # of connection points: 4
#     Edge 12, Type (0, 0), BuildingBlock: TEMPAE_clean_linker_10, # of connection points: 2
#     Edge 13, Type (0, 0), BuildingBlock: TEMPAE_clean_linker_10, # of connection points: 2
#     Edge 14, Type (0, 0), BuildingBlock: TEMPAE_clean_linker_10, # of connection points: 2
#     Edge 15, Type (0, 0), BuildingBlock: TEMPAE_clean_linker_10, # of connection points: 2
#     Edge 16, Type (0, 0), BuildingBlock: TEMPAE_clean_linker_10, # of connection points: 2
#     Edge 17, Type (0, 0), BuildingBlock: TEMPAE_clean_linker_10, # of connection points: 2
#     Edge 18, Type (0, 0), BuildingBlock: TEMPAE_clean_linker_10, # of connection points: 2
#     Edge 19, Type (0, 0), BuildingBlock: TEMPAE_clean_linker_10, # of connection points: 2
#     Edge 20, Type (0, 0), BuildingBlock: TEMPAE_clean_linker_10, # of connection points: 2
#     Edge 21, Type (0, 0), BuildingBlock: TEMPAE_clean_linker_10, # of connection points: 2
#     Edge 22, Type (0, 0), BuildingBlock: TEMPAE_clean_linker_10, # of connection points: 2
#     Edge 23, Type (0, 0), BuildingBlock: TEMPAE_clean_linker_10, # of connection points: 2
#     Edge 24, Type (0, 0), BuildingBlock: TEMPAE_clean_linker_10, # of connection points: 2
#     Edge 25, Type (0, 0), BuildingBlock: TEMPAE_clean_linker_10, # of connection points: 2
#     Edge 26, Type (0, 0), BuildingBlock: TEMPAE_clean_linker_10, # of connection points: 2
#     Edge 27, Type (0, 0), BuildingBlock: TEMPAE_clean_linker_10, # of connection points: 2
#     Edge 28, Type (0, 0), BuildingBlock: TEMPAE_clean_linker_10, # of connection points: 2
#     Edge 29, Type (0, 0), BuildingBlock: TEMPAE_clean_linker_10, # of connection points: 2
#     Edge 30, Type (0, 0), BuildingBlock: TEMPAE_clean_linker_10, # of connection points: 2
#     Edge 31, Type (0, 0), BuildingBlock: TEMPAE_clean_linker_10, # of connection points: 2
#     Edge 32, Type (0, 0), BuildingBlock: TEMPAE_clean_linker_10, # of connection points: 2
#     Edge 33, Type (0, 0), BuildingBlock: TEMPAE_clean_linker_10, # of connection points: 2
#     Edge 34, Type (0, 0), BuildingBlock: TEMPAE_clean_linker_10, # of connection points: 2
#     Edge 35, Type (0, 0), BuildingBlock: TEMPAE_clean_linker_10, # of connection points: 2
# Relax obj value: 0.158
# Max RMSD: 0.152
# Mean RMSD: 0.152
data_MOF--net-uoq--node1-QUQFOY_clean_sbu_3--edge1-TEMPAE_clean_linker_10
_symmetry_space_group_name_H-M    P1
_symmetry_Int_Tables_number       1
_symmetry_cell_setting            triclinic
loop_
_symmetry_equiv_pos_as_xyz
'x, y, z'
_cell_length_a     61.407414
_cell_length_b     61.499506
_cell_length_c     23.679436
_cell_angle_alpha  90.080093
_cell_angle_beta   89.932763
_cell_angle_gamma 120.04901
loop_
_atom_site_label
_atom_site_type_symbol
_atom_site_fract_x
_atom_site_fract_y
_atom_site_fract_z
_atom_type_partial_charge
C0 C 0.28288 0.36176 0.3019 0.0
O1 O 0.27897 0.37014 0.34754 0.0
Cd2 Cd 0.27027 0.40374 0.35977 0.0
O3 O 0.2826 0.37121 0.25424 0.0
Cd4 Cd 0.27648 0.40579 0.21976 0.0
C5 C 0.32521 0.44942 0.297 0.0
O6 O 0.24597 0.40474 0.28432 0.0
O7 O 0.26787 0.4394 0.23876 0.0
O8 O 0.24504 0.38077 0.15096 0.0
C9 C 0.25096 0.42711 0.2751 0.0
O10 O 0.31032 0.44073 0.33911 0.0
C11 C 0.25629 0.3949 0.10917 0.0
O12 O 0.3192 0.43884 0.24845 0.0
O13 O 0.27847 0.41311 0.11772 0.0
C14 C 0.91118 0.31164 0.62528 0.0
O15 O 0.90203 0.3101 0.67419 0.0
Cd16 Cd 0.85965 0.29648 0.69999 0.0
O17 O 0.89763 0.30639 0.58096 0.0
Cd18 Cd 0.85291 0.29363 0.56055 0.0
C19 C 0.85546 0.34328 0.62983 0.0
O20 O 0.83439 0.26443 0.63633 0.0
O21 O 0.80991 0.27558 0.59721 0.0
O22 O 0.84714 0.26215 0.49104 0.0
C23 C 0.81278 0.26219 0.63371 0.0
O24 O 0.85408 0.33154 0.6752 0.0
C25 C 0.8388 0.27021 0.45219 0.0
O26 O 0.8579 0.33533 0.58163 0.0
O27 O 0.83906 0.2907 0.46185 0.0
C28 C 0.58593 0.89463 0.97165 0.0
O29 O 0.58006 0.88608 0.02147 0.0
Cd30 Cd 0.54018 0.85348 0.05001 0.0
O31 O 0.57136 0.88345 0.92981 0.0
Cd32 Cd 0.53161 0.84251 0.90967 0.0
C33 C 0.50161 0.86954 0.97247 0.0
O34 O 0.53255 0.82041 0.98999 0.0
O35 O 0.49616 0.80376 0.95034 0.0
O36 O 0.55235 0.82697 0.84783 0.0
C37 C 0.50972 0.80326 0.99004 0.0
O38 O 0.51151 0.86767 0.01821 0.0
C39 C 0.53751 0.82182 0.80625 0.0
O40 O 0.50577 0.86224 0.92515 0.0
O41 O 0.52063 0.82798 0.81093 0.0
C42 C 0.66233 0.58643 0.30058 0.0
O43 O 0.66375 0.58052 0.3512 0.0
Cd44 Cd 0.66814 0.54678 0.38446 0.0
O45 O 0.66486 0.57472 0.25871 0.0
Cd46 Cd 0.67652 0.5412 0.24506 0.0
C47 C 0.62165 0.49776 0.3045 0.0
O48 O 0.70066 0.55005 0.32847 0.0
O49 O 0.69048 0.51416 0.29192 0.0
O50 O 0.71272 0.56669 0.18564 0.0
C51 C 0.70165 0.53006 0.33089 0.0
O52 O 0.63141 0.50859 0.35121 0.0
C53 C 0.70633 0.55113 0.14518 0.0
O54 O 0.63286 0.50647 0.25741 0.0
O55 O 0.68474 0.53146 0.14867 0.0
C56 C 0.08409 0.67449 0.67724 0.0
O57 O 0.09205 0.67329 0.72593 0.0
Cd58 Cd 0.133 0.68439 0.7549 0.0
O59 O 0.09873 0.68255 0.63435 0.0
Cd60 Cd 0.14471 0.69816 0.61616 0.0
C61 C 0.13865 0.64316 0.66519 0.0
O62 O 0.15766 0.72089 0.70181 0.0
O63 O 0.18743 0.71897 0.65843 0.0
O64 O 0.15099 0.73239 0.55402 0.0
C65 C 0.18058 0.72709 0.7 0.0
O66 O 0.13616 0.64986 0.71456 0.0
C67 C 0.16056 0.72639 0.51363 0.0
O68 O 0.14149 0.6567 0.62193 0.0
O69 O 0.1609 0.70599 0.51897 0.0
C70 C 0.39976 0.11381 0.05188 0.0
O71 O 0.40766 0.12698 0.09642 0.0
Cd72 Cd 0.44801 0.16396 0.09721 0.0
O73 O 0.41094 0.12229 0.00478 0.0
Cd74 Cd 0.44506 0.1619 0.96275 0.0
C75 C 0.48222 0.14287 0.01926 0.0
O76 O 0.44896 0.19268 0.02901 0.0
O77 O 0.48287 0.20264 0.98253 0.0
O78 O 0.41557 0.16722 0.90605 0.0
C79 C 0.47147 0.20905 0.01754 0.0
O80 O 0.47626 0.14876 0.06613 0.0
C81 C 0.42699 0.17024 0.85952 0.0
O82 O 0.47317 0.14509 0.97259 0.0
O83 O 0.44634 0.1677 0.86006 0.0
C84 C 0.56313 0.67157 0.31688 0.0
O85 O 0.55555 0.6731 0.26801 0.0
Cd86 Cd 0.51827 0.67332 0.24521 0.0
O87 O 0.55157 0.67204 0.36146 0.0
Cd88 Cd 0.5156 0.67894 0.38644 0.0
C89 C 0.47581 0.62261 0.32734 0.0
O90 O 0.51938 0.70348 0.30639 0.0
O91 O 0.48421 0.68994 0.35009 0.0
O92 O 0.54169 0.71406 0.44824 0.0
C93 C 0.49837 0.70246 0.30945 0.0
O94 O 0.48427 0.63358 0.28011 0.0
C95 C 0.52689 0.70638 0.49031 0.0
O96 O 0.48484 0.63387 0.37424 0.0
O97 O 0.50741 0.68471 0.48595 0.0
C98 C 0.89652 0.58668 0.66351 0.0
O99 O 0.88562 0.57834 0.6164 0.0
Cd100 Cd 0.84357 0.54798 0.59585 0.0
O101 O 0.88456 0.57885 0.71021 0.0
Cd102 Cd 0.84007 0.54703 0.73765 0.0
C103 C 0.84424 0.50019 0.67134 0.0
O104 O 0.82071 0.55615 0.66255 0.0
O105 O 0.79649 0.5207 0.70223 0.0
O106 O 0.83399 0.57303 0.80607 0.0
C107 C 0.79926 0.53669 0.6651 0.0
O108 O 0.84132 0.50912 0.62526 0.0
C109 C 0.82576 0.55683 0.84539 0.0
O110 O 0.84668 0.51125 0.71863 0.0
O111 O 0.8267 0.53688 0.83687 0.0
C112 C 0.30512 0.9302 0.07065 0.0
O113 O 0.30246 0.92433 0.01871 0.0
Cd114 Cd 0.30254 0.88915 0.97793 0.0
O115 O 0.3055 0.91552 0.10824 0.0
Cd116 Cd 0.2974 0.87133 0.11184 0.0
C117 C 0.35327 0.89039 0.04714 0.0
O118 O 0.27205 0.85484 0.02917 0.0
O119 O 0.28768 0.83275 0.06107 0.0
O120 O 0.26132 0.85592 0.17383 0.0
C121 C 0.2741 0.83544 0.02469 0.0
O122 O 0.34296 0.89311 0.00306 0.0
C123 C 0.26988 0.84796 0.21237 0.0
O124 O 0.34144 0.88337 0.09405 0.0
O125 O 0.29238 0.85248 0.20641 0.0
C126 C 0.38099 0.2746 0.31535 0.0
O127 O 0.39178 0.2714 0.27297 0.0
Cd128 Cd 0.42975 0.26922 0.27403 0.0
O129 O 0.38983 0.2768 0.36501 0.0
Cd130 Cd 0.42595 0.27702 0.41171 0.0
C131 C 0.46651 0.32773 0.33545 0.0
O132 O 0.43132 0.24795 0.35529 0.0
O133 O 0.4636 0.27341 0.40462 0.0
O134 O 0.3993 0.24591 0.47929 0.0
C135 C 0.45396 0.25553 0.36931 0.0
O136 O 0.46157 0.31231 0.29481 0.0
C137 C 0.41131 0.25821 0.52264 0.0
O138 O 0.45455 0.32088 0.38231 0.0
O139 O 0.42916 0.28062 0.51474 0.0
C140 C 0.09853 0.39859 0.60819 0.0
O141 O 0.11013 0.40832 0.56249 0.0
Cd142 Cd 0.15189 0.44239 0.55594 0.0
O143 O 0.10961 0.40575 0.65586 0.0
Cd144 Cd 0.15274 0.43629 0.6914 0.0
C145 C 0.14449 0.48315 0.64473 0.0
O146 O 0.17743 0.4341 0.61691 0.0
O147 O 0.19597 0.46837 0.66516 0.0
O148 O 0.15639 0.40511 0.74579 0.0
C149 C 0.19741 0.45447 0.62756 0.0
O150 O 0.14739 0.47652 0.59557 0.0
C151 C 0.16221 0.41721 0.79195 0.0
O152 O 0.14465 0.47132 0.68882 0.0
O153 O 0.16174 0.43766 0.79277 0.0
C154 C 0.67786 0.0759 -0.00312 0.0
O155 O 0.67407 0.08143 0.94763 0.0
Cd156 Cd 0.67179 0.11677 0.91813 0.0
O157 O 0.68244 0.09071 0.03886 0.0
Cd158 Cd 0.69085 0.135 0.05288 0.0
C159 C 0.63063 0.118 0.01734 0.0
O160 O 0.70809 0.14814 0.96178 0.0
O161 O 0.7031 0.17587 0.00617 0.0
O162 O 0.72996 0.1495 0.10496 0.0
C163 C 0.71019 0.1696 0.96189 0.0
O164 O 0.63566 0.11433 0.9672 0.0
C165 C 0.72322 0.15687 0.14821 0.0
O166 O 0.64694 0.12512 0.05674 0.0
O167 O 0.70069 0.15257 0.14886 0.0
C168 C 0.31097 0.3481 0.34297 0.0
C169 C 0.29168 0.34356 0.30512 0.0
C170 C 0.32224 0.33318 0.34246 0.0
C171 C 0.31317 0.31253 0.30483 0.0
C172 C 0.29254 0.3069 0.26898 0.0
C173 C 0.28244 0.32297 0.26842 0.0
C174 C 0.34476 0.34043 0.37999 0.0
C175 C 0.2816 0.28436 0.23031 0.0
C176 C 0.36311 0.29686 0.26328 0.0
C177 C 0.36054 0.28004 0.30605 0.0
C178 C 0.34689 0.30665 0.26047 0.0
C179 C 0.32699 0.29855 0.29999 0.0
C180 C 0.32292 0.27975 0.33993 0.0
C181 C 0.34021 0.27118 0.34351 0.0
C182 C 0.3525 0.32731 0.21854 0.0
C183 C 0.30118 0.26973 0.38087 0.0
H184 H 0.31821 0.36424 0.37089 0.0
H185 H 0.26738 0.31948 0.2394 0.0
H186 H 0.34112 0.32466 0.40841 0.0
H187 H 0.36136 0.34453 0.3537 0.0
H188 H 0.34955 0.35721 0.40631 0.0
H189 H 0.26295 0.27996 0.21348 0.0
H190 H 0.29444 0.28803 0.1941 0.0
H191 H 0.27954 0.26762 0.25289 0.0
H192 H 0.37903 0.30387 0.23469 0.0
H193 H 0.33818 0.25802 0.37634 0.0
H194 H 0.35837 0.34514 0.24158 0.0
H195 H 0.33543 0.32293 0.19396 0.0
H196 H 0.3677 0.33035 0.18858 0.0
H197 H 0.30543 0.28362 0.41511 0.0
H198 H 0.29755 0.2518 0.4004 0.0
H199 H 0.2838 0.26664 0.35937 0.0
C200 C 0.94797 0.30994 0.58529 0.0
C201 C 0.93837 0.32147 0.62041 0.0
C202 C 0.97401 0.31915 0.58239 0.0
C203 C -0.00939 0.34092 0.61354 0.0
C204 C 0.98085 0.35269 0.6486 0.0
C205 C 0.9548 0.3425 0.6524 0.0
C206 C 0.98377 0.30564 0.54623 0.0
C207 C -0.00209 0.37644 0.68095 0.0
C208 C 0.05884 0.36288 0.64753 0.0
C209 C 0.07116 0.38118 0.60588 0.0
C210 C 0.03247 0.3481 0.64801 0.0
C211 C 0.01827 0.35256 0.60728 0.0
C212 C 0.03073 0.3705 0.56416 0.0
C213 C 0.05703 0.38428 0.56347 0.0
C214 C 0.01981 0.32848 0.69339 0.0
C215 C 0.01632 0.37647 0.52113 0.0
H216 H 0.9351 0.29346 0.56114 0.0
H217 H 0.94724 0.35142 0.67934 0.0
H218 H -0.00487 0.3179 0.51089 0.0
H219 H -0.0037 0.30127 0.57152 0.0
H220 H 0.96831 0.28788 0.52835 0.0
H221 H -0.01277 0.38348 0.70537 0.0
H222 H 0.00983 0.37307 0.7107 0.0
H223 H 0.01069 0.39138 0.65127 0.0
H224 H 0.06978 0.36033 0.68004 0.0
H225 H 0.06652 0.39859 0.53145 0.0
H226 H 0.00459 0.31074 0.675 0.0
H227 H 0.01105 0.3351 0.72491 0.0
H228 H 0.03332 0.32448 0.71569 0.0
H229 H 0.00194 0.35909 0.49995 0.0
H230 H 0.02881 0.38982 0.48836 0.0
H231 H 0.00626 0.3849 0.54278 0.0
C232 C 0.6281 0.92854 0.00249 0.0
C233 C 0.60765 0.92013 0.96535 0.0
C234 C 0.64538 0.95424 0.00868 0.0
C235 C 0.64154 0.9718 0.97829 0.0
C236 C 0.62211 0.96328 0.93737 0.0
C237 C 0.60557 0.93743 0.93082 0.0
C238 C 0.66652 0.96256 0.05077 0.0
C239 C 0.61732 0.98143 0.90418 0.0
C240 C 0.65543 0.03392 0.04127 0.0
C241 C 0.6742 0.05065 0.00467 0.0
C242 C 0.6457 0.00796 0.03576 0.0
C243 C 0.65556 -0.00116 -0.00639 0.0
C244 C 0.67649 0.01594 0.96108 0.0
C245 C 0.68527 0.04172 0.96626 0.0
C246 C 0.62325 0.99032 0.07112 0.0
C247 C 0.68823 0.00702 0.91751 0.0
H248 H 0.62979 0.91509 0.02898 0.0
H249 H 0.58967 0.93095 0.90242 0.0
H250 H 0.68408 0.97879 0.0344 0.0
H251 H 0.66144 0.96862 0.09036 0.0
H252 H 0.67026 0.94711 0.06119 0.0
H253 H 0.60248 0.9718 0.87167 0.0
H254 H 0.61135 -0.0084 0.9334 0.0
H255 H 0.6348 -0.00435 0.88297 0.0
H256 H 0.64673 0.04094 0.07041 0.0
H257 H 0.69984 0.05481 0.93796 0.0
H258 H 0.62634 0.97573 0.09076 0.0
H259 H 0.6064 0.98056 0.04366 0.0
H260 H 0.61924 0.00033 0.10503 0.0
H261 H 0.68949 0.99072 0.93344 0.0
H262 H 0.70735 0.02218 0.90536 0.0
H263 H 0.67635 0.00086 0.87902 0.0
C264 C 0.63472 0.60035 0.25666 0.0
C265 C 0.65497 0.60552 0.29197 0.0
C266 C 0.62297 0.61487 0.25989 0.0
C267 C 0.63227 0.63533 0.29823 0.0
C268 C 0.65422 0.64199 0.32993 0.0
C269 C 0.66509 0.6267 0.32713 0.0
C270 C 0.59941 0.60703 0.22579 0.0
C271 C 0.66525 0.66421 0.36959 0.0
C272 C 0.60322 0.6765 0.2799 0.0
C273 C 0.58394 0.66628 0.32032 0.0
C274 C 0.62029 0.66779 0.27463 0.0
C275 C 0.6174 0.64786 0.30944 0.0
C276 C 0.59881 0.63844 0.35241 0.0
C277 C 0.58247 0.64806 0.35785 0.0
C278 C 0.64048 0.67896 0.22986 0.0
C279 C 0.595 0.617 0.39003 0.0
H280 H 0.62678 0.58377 0.23003 0.0
H281 H 0.68085 0.63065 0.35435 0.0
H282 H 0.58304 0.60022 0.25469 0.0
H283 H 0.60086 0.62328 0.20228 0.0
H284 H 0.59569 0.59184 0.19518 0.0
H285 H 0.68458 0.66942 0.38321 0.0
H286 H 0.66583 0.68074 0.3493 0.0
H287 H 0.65324 0.65957 0.40775 0.0
H288 H 0.60439 0.69073 0.25104 0.0
H289 H 0.5674 0.64002 0.3887 0.0
H290 H 0.63551 0.66549 0.19441 0.0
H291 H 0.6588 0.68257 0.24707 0.0
H292 H 0.64276 0.69682 0.21284 0.0
H293 H 0.58917 0.59992 0.36403 0.0
H294 H 0.58044 0.6126 0.42287 0.0
H295 H 0.61287 0.62153 0.41123 0.0
C296 C 0.93652 0.61995 0.70828 0.0
C297 C 0.92401 0.60386 0.66292 0.0
C298 C 0.96289 0.63494 0.70833 0.0
C299 C 0.9769 0.63305 0.66287 0.0
C300 C 0.96425 0.6174 0.61629 0.0
C301 C 0.93799 0.60327 0.6166 0.0
C302 C 0.97579 0.65201 0.75797 0.0
C303 C 0.97846 0.61419 0.56785 0.0
C304 C 0.04711 0.67741 0.64294 0.0
C305 C 0.05689 0.66415 0.67088 0.0
C306 C 0.02099 0.668 0.64161 0.0
C307 C 0.00459 0.64452 0.66718 0.0
C308 C 0.01456 0.63096 0.69441 0.0
C309 C 0.04061 0.64115 0.69665 0.0
C310 C 0.01095 0.68321 0.61353 0.0
C311 C -0.00226 0.60546 0.72048 0.0
H312 H 0.92575 0.62066 0.74383 0.0
H313 H 0.92845 0.59076 0.58145 0.0
H314 H 0.98514 0.64407 0.78403 0.0
H315 H -0.00941 0.67079 0.74318 0.0
H316 H 0.96233 0.65432 0.78518 0.0
H317 H 0.96581 0.60279 0.53291 0.0
H318 H -0.00732 0.63272 0.55075 0.0
H319 H -0.0113 0.60475 0.58325 0.0
H320 H 0.05986 0.69539 0.62376 0.0
H321 H 0.04833 0.63094 0.71811 0.0
H322 H -0.00091 0.68654 0.64375 0.0
H323 H -0.00121 0.67264 0.5773 0.0
H324 H 0.02624 0.70162 0.59805 0.0
H325 H 0.98595 0.60694 0.7541 0.0
H326 H 0.00859 0.59723 0.73913 0.0
H327 H 0.98481 0.59231 0.68802 0.0
C328 C 0.29939 0.96698 0.0566 0.0
C329 C 0.31128 0.95588 0.08529 0.0
C330 C 0.30935 -0.00695 0.05794 0.0
C331 C 0.33221 0.00827 0.08686 0.0
C332 C 0.34307 -0.00308 0.11983 0.0
C333 C 0.3322 0.9707 0.11927 0.0
C334 C 0.29663 0.00437 0.02426 0.0
C335 C 0.36762 0.01249 0.15069 0.0
C336 C 0.3792 0.06963 0.01829 0.0
C337 C 0.37969 0.08728 0.05643 0.0
C338 C 0.36335 0.04386 0.02719 0.0
C339 C 0.34702 0.03558 0.07453 0.0
C340 C 0.34617 0.05335 0.11106 0.0
C341 C 0.36285 0.07906 0.10211 0.0
C342 C 0.36507 0.0255 0.9875 0.0
C343 C 0.32835 0.04524 0.16066 0.0
H344 H 0.28306 0.95539 0.03062 0.0
H345 H 0.34146 0.96207 0.14109 0.0
H346 H 0.29717 0.02035 0.04732 0.0
H347 H 0.30672 0.01168 0.98367 0.0
H348 H 0.27673 0.99028 0.01472 0.0
H349 H 0.37193 0.00094 0.17964 0.0
H350 H 0.38313 0.02162 0.11948 0.0
H351 H 0.36725 0.0276 0.17547 0.0
H352 H 0.39228 0.07587 0.98315 0.0
H353 H 0.36308 0.09271 0.1315 0.0
H354 H 0.34638 0.01267 0.9688 0.0
H355 H 0.37099 0.01378 0.01124 0.0
H356 H 0.37868 0.03507 0.95262 0.0
H357 H 0.30929 0.03019 0.14799 0.0
H358 H 0.32691 0.06114 0.17882 0.0
H359 H 0.33509 0.03747 0.19419 0.0
C360 C 0.17788 0.42228 0.89128 0.0
C361 C 0.17219 0.40938 0.83973 0.0
C362 C 0.19064 0.4173 0.93391 0.0
C363 C 0.19817 0.39926 0.92433 0.0
C364 C 0.19169 0.38556 0.87317 0.0
C365 C 0.17861 0.39066 0.83165 0.0
C366 C 0.19678 0.43193 0.98851 0.0
C367 C 0.19954 0.36632 0.86129 0.0
C368 C 0.25425 0.40956 0.01186 0.0
C369 C 0.24244 0.3927 0.05644 0.0
C370 C 0.24013 0.41103 0.96698 0.0
C371 C 0.2136 0.39547 0.96717 0.0
C372 C 0.20177 0.37741 0.01032 0.0
C373 C 0.21636 0.37611 0.05421 0.0
C374 C 0.25346 0.43015 0.92092 0.0
C375 C 0.17354 0.36056 0.01213 0.0
H376 H 0.17293 0.43672 0.89778 0.0
H377 H 0.17438 0.38067 0.79176 0.0
H378 H 0.19007 0.41888 0.02501 0.0
H379 H 0.21748 0.44397 -0.00723 0.0
H380 H 0.18819 0.44407 0.99076 0.0
H381 H 0.19166 0.35617 0.82092 0.0
H382 H 0.22036 0.37577 0.85912 0.0
H383 H 0.19338 0.35239 0.89602 0.0
H384 H 0.27439 0.42238 0.01324 0.0
H385 H 0.20706 0.36301 0.0885 0.0
H386 H 0.24841 0.4451 0.92378 0.0
H387 H 0.24737 0.42123 0.87877 0.0
H388 H 0.27424 0.43905 0.92394 0.0
H389 H 0.16458 0.37207 0.02052 0.0
H390 H 0.1675 0.34598 0.04549 0.0
H391 H 0.16639 0.35113 0.97084 0.0
C392 C 0.82017 0.22935 0.40055 0.0
C393 C 0.82617 0.25458 0.40186 0.0
C394 C 0.80456 0.21292 0.35833 0.0
C395 C 0.79503 0.22201 0.31576 0.0
C396 C 0.80213 0.24778 0.31503 0.0
C397 C 0.81746 0.26372 0.35838 0.0
C398 C 0.79725 0.18556 0.36096 0.0
C399 C 0.79278 0.25829 0.26965 0.0
C400 C 0.76738 0.18276 0.18311 0.0
C401 C 0.74144 0.1718 0.19307 0.0
C402 C 0.78505 0.19912 0.22263 0.0
C403 C 0.7766 0.20431 0.27379 0.0
C404 C 0.75044 0.19271 0.28482 0.0
C405 C 0.73318 0.17677 0.2441 0.0
C406 C 0.81275 0.21137 0.20899 0.0
C407 C 0.74069 0.19739 0.33937 0.0
H408 H 0.8267 0.22207 0.43412 0.0
H409 H 0.82204 0.28319 0.35907 0.0
H410 H 0.77674 0.17391 0.36896 0.0
H411 H 0.80113 0.1794 0.31999 0.0
H412 H 0.80744 0.18178 0.39478 0.0
H413 H 0.80177 0.27907 0.2722 0.0
H414 H 0.79649 0.25315 0.22723 0.0
H415 H 0.77212 0.25004 0.27369 0.0
H416 H 0.77392 0.17919 0.14351 0.0
H417 H 0.71318 0.16836 0.25204 0.0
H418 H 0.82269 0.20712 0.24245 0.0
H419 H 0.82113 0.23207 0.20779 0.0
H420 H 0.81625 0.20503 0.16775 0.0
H421 H 0.74893 0.19277 0.3759 0.0
H422 H 0.71985 0.18613 0.34246 0.0
H423 H 0.74651 0.21757 0.34282 0.0
C424 C 0.52271 0.80214 0.71063 0.0
C425 C 0.53849 0.80714 0.75745 0.0
C426 C 0.52184 0.78618 0.66696 0.0
C427 C 0.53687 0.7747 0.67057 0.0
C428 C 0.55319 0.78009 0.71719 0.0
C429 C 0.55392 0.79634 0.75981 0.0
C430 C 0.50451 0.78125 0.61743 0.0
C431 C 0.56938 0.76812 0.72289 0.0
C432 C 0.51508 0.7144 0.58653 0.0
C433 C 0.53091 0.72314 0.53919 0.0
C434 C 0.51715 0.73088 0.63016 0.0
C435 C 0.53526 0.75678 0.62598 0.0
C436 C 0.55162 0.76561 0.57885 0.0
C437 C 0.54937 0.74867 0.53629 0.0
C438 C 0.49965 0.72066 0.68023 0.0
C439 C 0.57104 0.79308 0.57254 0.0
H440 H 0.51072 0.81039 0.70848 0.0
H441 H 0.56609 0.79997 0.79594 0.0
H442 H 0.51527 0.78571 0.57732 0.0
H443 H 0.48999 0.76105 0.61603 0.0
H444 H 0.49493 0.79249 0.61963 0.0
H445 H 0.58147 0.77468 0.76112 0.0
H446 H 0.55726 0.7474 0.72517 0.0
H447 H 0.58161 0.77238 0.68522 0.0
H448 H 0.50077 0.69472 0.58909 0.0
H449 H 0.56159 0.75566 0.49974 0.0
H450 H 0.48752 0.72926 0.682 0.0
H451 H 0.51067 0.7257 0.72 0.0
H452 H 0.48741 0.69992 0.67841 0.0
H453 H 0.56156 0.80439 0.57049 0.0
H454 H 0.58271 0.79683 0.53397 0.0
H455 H 0.58364 0.79967 0.60985 0.0
C456 C 0.71657 0.53967 0.05093 0.0
C457 C 0.72443 0.55458 0.09974 0.0
C458 C 0.73411 0.54138 0.01033 0.0
C459 C 0.76015 0.55797 0.01941 0.0
C460 C 0.76815 0.57322 0.06836 0.0
C461 C 0.75019 0.57154 0.10756 0.0
C462 C 0.72478 0.52521 0.95802 0.0
C463 C 0.79572 0.59081 0.08015 0.0
C464 C 0.8046 0.54248 0.93967 0.0
C465 C 0.81212 0.5594 0.89438 0.0
C466 C 0.78838 0.54239 0.98178 0.0
C467 C 0.77903 0.55924 0.97782 0.0
C468 C 0.78717 0.57686 0.93314 0.0
C469 C 0.80381 0.5769 0.89236 0.0
C470 C 0.78066 0.52375 0.02959 0.0
C471 C 0.77743 0.59493 0.92691 0.0
H472 H 0.69671 0.52652 0.04467 0.0
H473 H 0.75648 0.58294 0.14548 0.0
H474 H 0.73194 0.53711 0.91969 0.0
H475 H 0.7321 0.51197 0.95711 0.0
H476 H 0.70392 0.51418 0.95596 0.0
H477 H 0.79884 0.60156 0.11995 0.0
H478 H 0.80564 0.57994 0.08321 0.0
H479 H 0.80446 0.60431 0.04486 0.0
H480 H 0.81093 0.5289 0.9415 0.0
H481 H 0.80932 0.58991 0.85726 0.0
H482 H 0.76023 0.51001 0.02667 0.0
H483 H 0.78395 0.53354 0.07078 0.0
H484 H 0.79109 0.51331 0.02905 0.0
H485 H 0.75677 0.58425 0.92014 0.0
H486 H 0.7863 0.60807 0.89097 0.0
H487 H 0.7809 0.60608 0.96612 0.0
C488 C 0.18008 0.76917 0.47075 0.0
C489 C 0.17348 0.74384 0.46612 0.0
C490 C 0.19538 0.78686 0.43009 0.0
C491 C 0.20391 0.77896 0.38304 0.0
C492 C 0.19643 0.75323 0.37687 0.0
C493 C 0.1815 0.73601 0.41879 0.0
C494 C 0.20316 0.81415 0.43854 0.0
C495 C 0.20465 0.74397 0.32661 0.0
C496 C 0.22719 0.82122 0.25395 0.0
C497 C 0.25339 0.83201 0.25867 0.0
C498 C 0.21089 0.80396 0.29409 0.0
C499 C 0.22101 0.79769 0.34079 0.0
C500 C 0.24746 0.80909 0.34677 0.0
C501 C 0.26335 0.82593 0.30529 0.0
C502 C 0.18282 0.79192 0.28566 0.0
C503 C 0.25897 0.80324 0.3966 0.0
H504 H 0.17414 0.77543 0.50747 0.0
H505 H 0.17645 0.71648 0.41496 0.0
H506 H 0.22392 0.82551 0.44278 0.0
H507 H 0.19784 0.82134 0.40122 0.0
H508 H 0.19444 0.81714 0.47669 0.0
H509 H 0.19598 0.7232 0.32633 0.0
H510 H 0.19957 0.74988 0.28683 0.0
H511 H 0.2254 0.75248 0.32695 0.0
H512 H 0.21932 0.82562 0.21775 0.0
H513 H 0.28356 0.83419 0.30915 0.0
H514 H 0.17406 0.79546 0.3229 0.0
H515 H 0.17435 0.77126 0.28168 0.0
H516 H 0.17797 0.79905 0.2474 0.0
H517 H 0.2519 0.80687 0.4366 0.0
H518 H 0.27985 0.81457 0.39647 0.0
H519 H 0.25331 0.78305 0.39617 0.0
C520 C 0.40105 0.18601 0.81346 0.0
C521 C 0.41969 0.17922 0.80907 0.0
C522 C 0.39641 0.19812 0.76891 0.0
C523 C 0.4106 0.20337 0.71864 0.0
C524 C 0.42853 0.19543 0.71285 0.0
C525 C 0.43294 0.18353 0.75828 0.0
C526 C 0.37715 0.20631 0.77662 0.0
C527 C 0.44374 0.20035 0.65939 0.0
C528 C 0.39031 0.21953 0.58163 0.0
C529 C 0.4074 0.24542 0.57762 0.0
C530 C 0.3903 0.2057 0.62863 0.0
C531 C 0.40761 0.21814 0.67286 0.0
C532 C 0.42352 0.24456 0.67112 0.0
C533 C 0.42327 0.25791 0.62335 0.0
C534 C 0.37299 0.17758 0.62903 0.0
C535 C 0.4419 0.25852 0.71812 0.0
H536 H 0.39071 0.18276 0.85263 0.0
H537 H 0.44731 0.17828 0.75459 0.0
H538 H 0.38675 0.22713 0.77738 0.0
H539 H 0.3638 0.19983 0.74064 0.0
H540 H 0.36629 0.19902 0.81642 0.0
H541 H 0.45578 0.19161 0.66035 0.0
H542 H 0.43106 0.19296 0.62228 0.0
H543 H 0.45598 0.22089 0.65327 0.0
H544 H 0.37789 0.20973 0.54656 0.0
H545 H 0.43645 0.27792 0.62063 0.0
H546 H 0.36316 0.1713 0.6702 0.0
H547 H 0.38423 0.16816 0.62327 0.0
H548 H 0.35869 0.17122 0.59489 0.0
H549 H 0.43225 0.25323 0.75964 0.0
H550 H 0.45106 0.27922 0.71311 0.0
H551 H 0.45676 0.25327 0.71869 0.0
C552 C 0.21582 0.48067 0.54352 0.0
C553 C 0.21687 0.46483 0.58441 0.0
C554 C 0.22628 0.48248 0.48996 0.0
C555 C 0.238 0.46819 0.47821 0.0
C556 C 0.24236 0.45532 0.52236 0.0
C557 C 0.23125 0.4534 0.57503 0.0
C558 C 0.22164 0.49673 0.44422 0.0
C559 C 0.25566 0.44065 0.51193 0.0
C560 C 0.22276 0.42847 0.34764 0.0
C561 C 0.24566 0.44061 0.31895 0.0
C562 C 0.21933 0.4387 0.39728 0.0
C563 C 0.23967 0.46118 0.41934 0.0
C564 C 0.26228 0.47442 0.38836 0.0
C565 C 0.26493 0.46403 0.33795 0.0
C566 C 0.1946 0.42434 0.42839 0.0
C567 C 0.28447 0.49824 0.41053 0.0
H568 H 0.2044 0.4893 0.55117 0.0
H569 H 0.23186 0.44112 0.60705 0.0
H570 H 0.23781 0.50573 0.41468 0.0
H571 H 0.20483 0.48343 0.41951 0.0
H572 H 0.21811 0.51137 0.46227 0.0
H573 H 0.26167 0.43587 0.55204 0.0
H574 H 0.24273 0.42287 0.48971 0.0
H575 H 0.27243 0.45142 0.48473 0.0
H576 H 0.20794 0.41041 0.33255 0.0
H577 H 0.28282 0.4733 0.3159 0.0
H578 H 0.18768 0.43713 0.44153 0.0
H579 H 0.19732 0.41586 0.46717 0.0
H580 H 0.17988 0.40903 0.40222 0.0
H581 H 0.27838 0.50985 0.43419 0.0
H582 H 0.29724 0.50966 0.37576 0.0
H583 H 0.29538 0.49327 0.43986 0.0
C584 C 0.77143 0.24951 0.67962 0.0
C585 C 0.79441 0.24978 0.6794 0.0
C586 C 0.75441 0.23852 0.72443 0.0
C587 C 0.76067 0.22766 0.76961 0.0
C588 C 0.78396 0.22816 0.76979 0.0
C589 C 0.80049 0.23912 0.72454 0.0
C590 C 0.72964 0.23813 0.72301 0.0
C591 C 0.7913 0.21673 0.81735 0.0
C592 C 0.73153 0.21138 0.91454 0.0
C593 C 0.71849 0.18516 0.91088 0.0
C594 C 0.74372 0.22601 0.8669 0.0
C595 C 0.74239 0.2139 0.81502 0.0
C596 C 0.727 0.18756 0.81012 0.0
C597 C 0.71541 0.17347 0.85836 0.0
C598 C 0.75992 0.25409 0.87346 0.0
C599 C 0.72477 0.17398 0.75533 0.0
H600 H 0.76675 0.25785 0.64482 0.0
H601 H 0.8183 0.23942 0.72473 0.0
H602 H 0.71397 0.21847 0.71927 0.0
H603 H 0.72677 0.24581 0.76296 0.0
H604 H 0.72851 0.24913 0.6871 0.0
H605 H 0.81068 0.21991 0.81233 0.0
H606 H 0.79013 0.22477 0.85843 0.0
H607 H 0.77804 0.19618 0.81909 0.0
H608 H 0.7337 0.22036 0.95522 0.0
H609 H 0.70486 0.15316 0.85538 0.0
H610 H 0.758 0.264 0.83638 0.0
H611 H 0.77995 0.25914 0.87622 0.0
H612 H 0.75509 0.26095 0.91228 0.0
H613 H 0.72208 0.18386 0.71923 0.0
H614 H 0.70888 0.1543 0.75616 0.0
H615 H 0.74241 0.17359 0.74772 0.0
C616 C 0.47593 0.76439 0.03658 0.0
C617 C 0.49884 0.78705 0.03972 0.0
C618 C 0.46744 0.74772 0.08253 0.0
C619 C 0.48225 0.75417 0.13213 0.0
C620 C 0.50396 0.77819 0.13723 0.0
C621 C 0.51213 0.79418 0.0907 0.0
C622 C 0.44391 0.72249 0.07607 0.0
C623 C 0.52011 0.78609 0.18978 0.0
C624 C 0.47241 0.71976 0.26963 0.0
C625 C 0.48932 0.711 0.26177 0.0
C626 C 0.46738 0.73176 0.22524 0.0
C627 C 0.47937 0.73458 0.17244 0.0
C628 C 0.49405 0.72309 0.16293 0.0
C629 C 0.49915 0.71182 0.20799 0.0
C630 C 0.4512 0.74334 0.23647 0.0
C631 C 0.50676 0.72509 0.10689 0.0
H632 H 0.46539 0.75908 -0.00261 0.0
H633 H 0.52955 0.81196 0.0938 0.0
H634 H 0.44911 0.70853 0.06149 0.0
H635 H 0.43379 0.71579 0.11683 0.0
H636 H 0.431 0.72321 0.04429 0.0
H637 H 0.53414 0.8065 0.18985 0.0
H638 H 0.50831 0.7817 0.22821 0.0
H639 H 0.53041 0.77558 0.19237 0.0
H640 H 0.46451 0.71877 0.31116 0.0
H641 H 0.51185 0.70466 0.2014 0.0
H642 H 0.44054 0.74284 0.19821 0.0
H643 H 0.46339 0.76329 0.2488 0.0
H644 H 0.43775 0.73357 0.27152 0.0
H645 H 0.49343 0.72086 0.07148 0.0
H646 H 0.51438 0.7121 0.10422 0.0
H647 H 0.5226 0.74456 0.10117 0.0
C648 C 0.71817 0.50587 0.38222 0.0
C649 C 0.71026 0.52362 0.38269 0.0
C650 C 0.72909 0.50209 0.43053 0.0
C651 C 0.73158 0.51612 0.48 0.0
C652 C 0.72139 0.53223 0.48195 0.0
C653 C 0.71124 0.53609 0.43298 0.0
C654 C 0.73982 0.48479 0.42709 0.0
C655 C 0.72327 0.54722 0.53422 0.0
C656 C 0.75724 0.5095 0.62017 0.0
C657 C 0.78179 0.53002 0.61736 0.0
C658 C 0.74074 0.50363 0.57432 0.0
C659 C 0.74928 0.51852 0.52492 0.0
C660 C 0.77441 0.53847 0.52112 0.0
C661 C 0.79023 0.54414 0.56761 0.0
C662 C 0.71397 0.48237 0.57975 0.0
C663 C 0.78435 0.55468 0.46889 0.0
H664 H 0.71715 0.49603 0.3434 0.0
H665 H 0.70478 0.54956 0.43384 0.0
H666 H 0.76052 0.49616 0.42144 0.0
H667 H 0.73621 0.47385 0.46664 0.0
H668 H 0.73187 0.47155 0.39095 0.0
H669 H 0.71082 0.55547 0.53178 0.0
H670 H 0.71827 0.5353 0.57251 0.0
H671 H 0.74295 0.56278 0.53927 0.0
H672 H 0.75078 0.49847 0.65855 0.0
H673 H 0.80929 0.55984 0.56487 0.0
H674 H 0.70784 0.4709 0.54063 0.0
H675 H 0.70132 0.4902 0.58605 0.0
H676 H 0.71158 0.46996 0.6161 0.0
H677 H 0.77997 0.54281 0.43059 0.0
H678 H 0.80502 0.56763 0.47069 0.0
H679 H 0.7751 0.56613 0.4642 0.0
C680 C 0.18664 0.74097 0.7996 0.0
C681 C 0.19726 0.74024 0.74777 0.0
C682 C 0.20178 0.75501 0.84465 0.0
C683 C 0.22817 0.76893 0.83733 0.0
C684 C 0.23914 0.76734 0.786 0.0
C685 C 0.22345 0.75282 0.7416 0.0
C686 C 0.1894 0.75601 0.89906 0.0
C687 C 0.26723 0.78202 0.77694 0.0
C688 C 0.25625 0.8269 0.92797 0.0
C689 C 0.26447 0.8191 0.97481 0.0
C690 C 0.24599 0.81129 0.88098 0.0
C691 C 0.2436 0.78719 0.88135 0.0
C692 C 0.2529 0.77962 0.92739 0.0
C693 C 0.26337 0.79579 0.97373 0.0
C694 C 0.23648 0.82009 0.83227 0.0
C695 C 0.25054 0.75399 0.92908 0.0
H696 H 0.16637 0.7309 0.80473 0.0
H697 H 0.23162 0.75214 0.70149 0.0
H698 H 0.19828 0.75227 0.9357 0.0
H699 H 0.19201 0.77509 0.90471 0.0
H700 H 0.16891 0.74221 0.89963 0.0
H701 H 0.27295 0.77595 0.73819 0.0
H702 H 0.27345 0.80228 0.77289 0.0
H703 H 0.27724 0.77996 0.8137 0.0
H704 H 0.2575 0.84512 0.92828 0.0
H705 H 0.26992 0.78985 0.00982 0.0
H706 H 0.21562 0.809 0.83106 0.0
H707 H 0.2435 0.81702 0.79157 0.0
H708 H 0.2423 0.8403 0.8358 0.0
H709 H 0.23054 0.73949 0.93556 0.0
H710 H 0.26185 0.7524 0.96373 0.0
H711 H 0.25661 0.74977 0.88838 0.0
C712 C 0.47436 0.24296 0.07726 0.0
C713 C 0.48531 0.22912 0.05842 0.0
C714 C 0.47993 0.25384 0.13094 0.0
C715 C 0.49624 0.24996 0.16646 0.0
C716 C 0.5105 0.23974 0.14381 0.0
C717 C 0.50483 0.22933 0.08941 0.0
C718 C 0.46519 0.26576 0.1526 0.0
C719 C 0.52894 0.23642 0.17951 0.0
C720 C 0.49281 0.27255 0.31152 0.0
C721 C 0.47018 0.25181 0.32978 0.0
C722 C 0.50386 0.27155 0.26048 0.0
C723 C 0.49197 0.24926 0.22807 0.0
C724 C 0.4713 0.22726 0.25091 0.0
C725 C 0.46045 0.22893 0.3014 0.0
C726 C 0.5263 0.29521 0.23867 0.0
C727 C 0.45851 0.20274 0.21864 0.0
H728 H 0.45949 0.24296 0.05258 0.0
H729 H 0.51341 0.21869 0.07438 0.0
H730 H 0.44974 0.25226 0.18037 0.0
H731 H 0.47738 0.28278 0.1779 0.0
H732 H 0.45674 0.27107 0.11758 0.0
H733 H 0.54361 0.23598 0.15287 0.0
H734 H 0.53813 0.25168 0.21121 0.0
H735 H 0.51879 0.2183 0.20246 0.0
H736 H 0.50044 0.29032 0.33373 0.0
H737 H 0.44313 0.21289 0.31622 0.0
H738 H 0.51972 0.30687 0.21707 0.0
H739 H 0.53749 0.2911 0.20816 0.0
H740 H 0.53867 0.30651 0.27409 0.0
H741 H 0.44803 0.20442 0.18233 0.0
H742 H 0.445 0.18685 0.24544 0.0
H743 H 0.47258 0.19818 0.20167 0.0
C744 C 0.37054 0.47927 0.27419 0.0
C745 C 0.34873 0.47356 0.30446 0.0
C746 C 0.3926 0.50264 0.28108 0.0
C747 C 0.39241 0.52086 0.31753 0.0
C748 C 0.3704 0.51504 0.3483 0.0
C749 C 0.34896 0.49135 0.34196 0.0
C750 C 0.41595 0.50802 0.24864 0.0
C751 C 0.36909 0.53418 0.3861 0.0
C752 C 0.45247 0.57887 0.36625 0.0
C753 C 0.45455 0.5966 0.32636 0.0
C754 C 0.43273 0.55382 0.36296 0.0
C755 C 0.41437 0.54674 0.31992 0.0
C756 C 0.41626 0.56477 0.2802 0.0
C757 C 0.43652 0.58937 0.28345 0.0
C758 C 0.43158 0.53492 0.4052 0.0
C759 C 0.39665 0.55823 0.23479 0.0
H760 H 0.37039 0.46544 0.24551 0.0
H761 H 0.33199 0.48708 0.36496 0.0
H762 H 0.42021 0.52275 0.21654 0.0
H763 H 0.43235 0.51532 0.27753 0.0
H764 H 0.41381 0.49106 0.22683 0.0
H765 H 0.35075 0.52636 0.40835 0.0
H766 H 0.38431 0.54127 0.41807 0.0
H767 H 0.37196 0.55052 0.36054 0.0
H768 H 0.46657 0.58444 0.39906 0.0
H769 H 0.43803 0.60315 0.25282 0.0
H770 H 0.43079 0.51868 0.38277 0.0
H771 H 0.41419 0.52758 0.43088 0.0
H772 H 0.44804 0.5431 0.43408 0.0
H773 H 0.39552 0.54302 0.20753 0.0
H774 H 0.40077 0.57458 0.2077 0.0
H775 H 0.37787 0.55113 0.2544 0.0
C776 C 0.83013 0.45829 0.62899 0.0
C777 C 0.84516 0.47674 0.66847 0.0
C778 C 0.83164 0.43645 0.62257 0.0
C779 C 0.84916 0.43336 0.65527 0.0
C780 C 0.86444 0.45197 0.69523 0.0
C781 C 0.86197 0.47334 0.702 0.0
C782 C 0.81443 0.41666 0.58089 0.0
C783 C 0.8837 0.44953 0.72998 0.0
C784 C 0.83821 0.3676 0.67637 0.0
C785 C 0.85357 0.36617 0.63439 0.0
C786 C 0.83647 0.38929 0.68328 0.0
C787 C 0.85102 0.41033 0.64838 0.0
C788 C 0.86673 0.4091 0.60611 0.0
C789 C 0.86753 0.38681 0.59901 0.0
C790 C 0.81888 0.38957 0.72757 0.0
C791 C 0.88291 0.43139 0.56896 0.0
H792 H 0.81702 0.4609 0.60325 0.0
H793 H 0.87379 0.48778 0.73203 0.0
H794 H 0.82571 0.41406 0.54777 0.0
H795 H 0.80324 0.39836 0.60268 0.0
H796 H 0.80129 0.42161 0.5601 0.0
H797 H 0.8946 0.46599 0.75801 0.0
H798 H 0.87429 0.43237 0.75642 0.0
H799 H 0.897 0.44751 0.70167 0.0
H800 H 0.82724 0.35153 0.70347 0.0
H801 H 0.87957 0.38575 0.56691 0.0
H802 H 0.80505 0.39374 0.70756 0.0
H803 H 0.82962 0.40464 0.75885 0.0
H804 H 0.80846 0.3714 0.75036 0.0
H805 H 0.87088 0.43642 0.54367 0.0
H806 H 0.89484 0.4277 0.53966 0.0
H807 H 0.89528 0.44794 0.59548 0.0
C808 C 0.48635 0.89595 0.0179 0.0
C809 C 0.48328 0.87831 0.97651 0.0
C810 C 0.46724 0.90154 0.02898 0.0
C811 C 0.44427 0.88859 -0.00091 0.0
C812 C 0.4415 0.87153 0.95555 0.0
C813 C 0.46123 0.86685 0.94425 0.0
C814 C 0.47124 0.92046 0.07436 0.0
C815 C 0.41714 0.85707 0.9233 0.0
C816 C 0.38417 0.87685 0.07151 0.0
C817 C 0.37831 0.89279 0.04118 0.0
C818 C 0.4059 0.87569 0.05895 0.0
C819 C 0.42246 0.89134 0.01613 0.0
C820 C 0.41742 0.9086 0.98789 0.0
C821 C 0.39519 0.90885 0.00017 0.0
C822 C 0.41043 0.85676 0.08947 0.0
C823 C 0.43505 0.92618 0.94338 0.0
H824 H 0.5035 0.90495 0.04265 0.0
H825 H 0.45877 0.85303 0.91263 0.0
H826 H 0.46545 0.93385 0.05902 0.0
H827 H 0.45939 0.91064 0.11156 0.0
H828 H 0.49118 0.93123 0.08826 0.0
H829 H 0.41846 0.84547 0.88893 0.0
H830 H 0.4019 0.84451 0.95266 0.0
H831 H 0.41162 0.87013 0.90463 0.0
H832 H 0.37102 0.86423 0.10279 0.0
H833 H 0.39073 0.92129 0.97685 0.0
H834 H 0.42929 0.86626 0.10947 0.0
H835 H 0.41009 0.84295 0.05874 0.0
H836 H 0.39609 0.84643 0.1226 0.0
H837 H 0.45467 0.93611 0.95932 0.0
H838 H 0.42991 0.94035 0.93011 0.0
H839 H 0.4346 0.91525 0.90566 0.0
C840 C 0.57977 0.46661 0.26338 0.0
C841 C 0.59763 0.47375 0.30658 0.0
C842 C 0.55686 0.44376 0.26653 0.0
C843 C 0.55227 0.42748 0.31295 0.0
C844 C 0.5704 0.43462 0.35634 0.0
C845 C 0.59267 0.45781 0.35299 0.0
C846 C 0.53763 0.437 0.22026 0.0
C847 C 0.56663 0.41748 0.40562 0.0
C848 C 0.48754 0.37404 0.35368 0.0
C849 C 0.48769 0.35354 0.32832 0.0
C850 C 0.50796 0.39853 0.3466 0.0
C851 C 0.52923 0.4023 0.31512 0.0
C852 C 0.52935 0.38158 0.28941 0.0
C853 C 0.50843 0.35752 0.29567 0.0
C854 C 0.50695 0.42028 0.37341 0.0
C855 C 0.55196 0.38464 0.25713 0.0
H856 H 0.58354 0.47904 0.22772 0.0
H857 H 0.60659 0.4632 0.38621 0.0
H858 H 0.53496 0.42008 0.19741 0.0
H859 H 0.51918 0.43232 0.23876 0.0
H860 H 0.54328 0.45247 0.18932 0.0
H861 H 0.58266 0.42587 0.4357 0.0
H862 H 0.54922 0.4131 0.42885 0.0
H863 H 0.56432 0.39942 0.38996 0.0
H864 H 0.47139 0.37096 0.37848 0.0
H865 H 0.50865 0.34161 0.27644 0.0
H866 H 0.51171 0.43532 0.34179 0.0
H867 H 0.5211 0.42846 0.4077 0.0
H868 H 0.48812 0.41454 0.39146 0.0
H869 H 0.55681 0.39845 0.22253 0.0
H870 H 0.54876 0.36665 0.23869 0.0
H871 H 0.56847 0.39205 0.2857 0.0
C872 C 0.15471 0.61671 0.62296 0.0
C873 C 0.13786 0.619 0.65888 0.0
C874 C 0.15542 0.59426 0.62087 0.0
C875 C 0.13828 0.57351 0.65404 0.0
C876 C 0.12058 0.57551 0.68868 0.0
C877 C 0.12089 0.59841 0.69142 0.0
C878 C 0.17497 0.59298 0.58452 0.0
C879 C 0.10143 0.55353 0.72307 0.0
C880 C 0.12735 0.50959 0.60963 0.0
C881 C 0.14152 0.50534 0.64985 0.0
C882 C 0.12558 0.53142 0.6114 0.0
C883 C 0.13906 0.54979 0.65317 0.0
C884 C 0.15337 0.54553 0.69401 0.0
C885 C 0.15407 0.52308 0.69242 0.0
C886 C 0.10939 0.53488 0.56847 0.0
C887 C 0.16848 0.56498 0.73833 0.0
H888 H 0.16795 0.63277 0.59824 0.0
H889 H 0.10772 0.60021 0.71886 0.0
H890 H 0.1871 0.58855 0.61117 0.0
H891 H 0.16571 0.57767 0.55301 0.0
H892 H 0.18708 0.61086 0.5618 0.0
H893 H 0.08794 0.55775 0.74493 0.0
H894 H 0.09069 0.53692 0.69541 0.0
H895 H 0.1111 0.54831 0.75527 0.0
H896 H 0.11755 0.49572 0.57689 0.0
H897 H 0.16525 0.51984 0.72307 0.0
H898 H 0.12127 0.55134 0.54137 0.0
H899 H 0.09563 0.5387 0.5902 0.0
H900 H 0.09895 0.51813 0.54096 0.0
H901 H 0.18212 0.58289 0.71762 0.0
H902 H 0.17898 0.55895 0.76632 0.0
H903 H 0.15589 0.56886 0.76477 0.0
C904 C 0.5847 0.09878 -0.00082 0.0
C905 C 0.60633 0.11665 0.0276 0.0
C906 C 0.56238 0.09976 0.00135 0.0
C907 C 0.5621 0.11966 0.03081 0.0
C908 C 0.58364 0.13717 0.06142 0.0
C909 C 0.60542 0.13518 0.06019 0.0
C910 C 0.5395 0.08019 0.97004 0.0
C911 C 0.58429 0.159 0.09225 0.0
C912 C 0.51918 0.14275 0.97656 0.0
C913 C 0.50107 0.13476 0.01938 0.0
C914 C 0.53903 0.13771 0.97954 0.0
C915 C 0.54022 0.12359 0.02548 0.0
C916 C 0.52121 0.11436 0.06732 0.0
C917 C 0.50208 0.12048 0.06433 0.0
C918 C 0.55928 0.14838 0.93477 0.0
C919 C 0.52134 0.09848 0.11571 0.0
H920 H 0.58542 0.08436 0.97421 0.0
H921 H 0.62226 0.14915 0.08164 0.0
H922 H 0.52246 0.07311 -0.00309 0.0
H923 H 0.53636 0.08872 0.93192 0.0
H924 H 0.54161 0.06404 0.95652 0.0
H925 H 0.602 0.17016 0.1164 0.0
H926 H 0.58248 0.17157 0.06136 0.0
H927 H 0.56819 0.15224 0.12186 0.0
H928 H 0.51849 0.15399 0.9421 0.0
H929 H 0.48791 0.11415 0.09724 0.0
H930 H 0.56087 0.13307 0.91397 0.0
H931 H 0.57774 0.1612 0.9546 0.0
H932 H 0.55553 0.15895 0.90186 0.0
H933 H 0.52356 0.08275 0.09953 0.0
H934 H 0.50383 0.09061 0.14124 0.0
H935 H 0.53757 0.10995 0.1438 0.0
loop_
_geom_bond_atom_site_label_1
_geom_bond_atom_site_label_2
_geom_bond_distance
_geom_bond_site_symmetry_2
_ccdc_geom_bond_type
C0 O1 1.306 . S
C0 O3 1.160 . S
O1 C0 1.306 . S
O1 Cd2 2.228 . S
Cd2 O1 2.228 . S
Cd2 O6 2.273 . S
Cd2 O10 2.277 . S
O3 C0 1.160 . S
O3 Cd4 2.203 . S
Cd4 O3 2.203 . S
Cd4 O6 2.411 . S
Cd4 O7 2.333 . S
Cd4 O8 2.352 . S
Cd4 O12 2.277 . S
Cd4 O13 2.356 . S
C5 O10 1.209 . S
C5 O12 1.226 . S
O6 Cd2 2.273 . S
O6 Cd4 2.411 . S
O6 C9 1.320 . S
O7 Cd4 2.333 . S
O7 C9 1.214 . S
O8 Cd4 2.352 . S
O8 C11 1.258 . S
C9 O6 1.320 . S
C9 O7 1.214 . S
O10 Cd2 2.277 . S
O10 C5 1.209 . S
C11 O8 1.258 . S
C11 O13 1.282 . S
O12 Cd4 2.277 . S
O12 C5 1.226 . S
O13 Cd4 2.356 . S
O13 C11 1.282 . S
C14 O15 1.306 . S
C14 O17 1.160 . S
O15 C14 1.306 . S
O15 Cd16 2.228 . S
Cd16 O15 2.228 . S
Cd16 O20 2.273 . S
Cd16 O24 2.277 . S
O17 C14 1.160 . S
O17 Cd18 2.203 . S
Cd18 O17 2.203 . S
Cd18 O20 2.411 . S
Cd18 O21 2.333 . S
Cd18 O22 2.352 . S
Cd18 O26 2.277 . S
Cd18 O27 2.356 . S
C19 O24 1.209 . S
C19 O26 1.226 . S
O20 Cd16 2.273 . S
O20 Cd18 2.411 . S
O20 C23 1.320 . S
O21 Cd18 2.333 . S
O21 C23 1.214 . S
O22 Cd18 2.352 . S
O22 C25 1.258 . S
C23 O20 1.320 . S
C23 O21 1.214 . S
O24 Cd16 2.277 . S
O24 C19 1.209 . S
C25 O22 1.258 . S
C25 O27 1.282 . S
O26 Cd18 2.277 . S
O26 C19 1.226 . S
O27 Cd18 2.356 . S
O27 C25 1.282 . S
C28 O29 1.306 1_556 S
C28 O31 1.160 . S
O29 C28 1.306 1_554 S
O29 Cd30 2.228 . S
Cd30 O29 2.228 . S
Cd30 O34 2.273 . S
Cd30 O38 2.277 . S
O31 C28 1.160 . S
O31 Cd32 2.203 . S
Cd32 O31 2.203 . S
Cd32 O34 2.411 1_556 S
Cd32 O35 2.333 . S
Cd32 O36 2.352 . S
Cd32 O40 2.277 . S
Cd32 O41 2.356 . S
C33 O38 1.209 1_556 S
C33 O40 1.226 . S
O34 Cd30 2.273 . S
O34 Cd32 2.411 1_554 S
O34 C37 1.320 . S
O35 Cd32 2.333 . S
O35 C37 1.214 1_556 S
O36 Cd32 2.352 . S
O36 C39 1.258 . S
C37 O34 1.320 . S
C37 O35 1.214 1_554 S
O38 Cd30 2.277 . S
O38 C33 1.209 1_554 S
C39 O36 1.258 . S
C39 O41 1.282 . S
O40 Cd32 2.277 . S
O40 C33 1.226 . S
O41 Cd32 2.356 . S
O41 C39 1.282 . S
C42 O43 1.306 . S
C42 O45 1.160 . S
O43 C42 1.306 . S
O43 Cd44 2.228 . S
Cd44 O43 2.228 . S
Cd44 O48 2.273 . S
Cd44 O52 2.277 . S
O45 C42 1.160 . S
O45 Cd46 2.203 . S
Cd46 O45 2.203 . S
Cd46 O48 2.411 . S
Cd46 O49 2.333 . S
Cd46 O50 2.352 . S
Cd46 O54 2.277 . S
Cd46 O55 2.356 . S
C47 O52 1.209 . S
C47 O54 1.226 . S
O48 Cd44 2.273 . S
O48 Cd46 2.411 . S
O48 C51 1.320 . S
O49 Cd46 2.333 . S
O49 C51 1.214 . S
O50 Cd46 2.352 . S
O50 C53 1.258 . S
C51 O48 1.320 . S
C51 O49 1.214 . S
O52 Cd44 2.277 . S
O52 C47 1.209 . S
C53 O50 1.258 . S
C53 O55 1.282 . S
O54 Cd46 2.277 . S
O54 C47 1.226 . S
O55 Cd46 2.356 . S
O55 C53 1.282 . S
C56 O57 1.306 . S
C56 O59 1.160 . S
O57 C56 1.306 . S
O57 Cd58 2.228 . S
Cd58 O57 2.228 . S
Cd58 O62 2.273 . S
Cd58 O66 2.277 . S
O59 C56 1.160 . S
O59 Cd60 2.203 . S
Cd60 O59 2.203 . S
Cd60 O62 2.411 . S
Cd60 O63 2.333 . S
Cd60 O64 2.352 . S
Cd60 O68 2.277 . S
Cd60 O69 2.356 . S
C61 O66 1.209 . S
C61 O68 1.226 . S
O62 Cd58 2.273 . S
O62 Cd60 2.411 . S
O62 C65 1.320 . S
O63 Cd60 2.333 . S
O63 C65 1.214 . S
O64 Cd60 2.352 . S
O64 C67 1.258 . S
C65 O62 1.320 . S
C65 O63 1.214 . S
O66 Cd58 2.277 . S
O66 C61 1.209 . S
C67 O64 1.258 . S
C67 O69 1.282 . S
O68 Cd60 2.277 . S
O68 C61 1.226 . S
O69 Cd60 2.356 . S
O69 C67 1.282 . S
C70 O71 1.306 1_556 S
C70 O73 1.160 . S
O71 C70 1.306 1_554 S
O71 Cd72 2.228 . S
Cd72 O71 2.228 . S
Cd72 O76 2.273 . S
Cd72 O80 2.277 . S
O73 C70 1.160 . S
O73 Cd74 2.203 . S
Cd74 O73 2.203 . S
Cd74 O76 2.411 1_556 S
Cd74 O77 2.333 . S
Cd74 O78 2.352 . S
Cd74 O82 2.277 . S
Cd74 O83 2.356 . S
C75 O80 1.209 1_556 S
C75 O82 1.226 . S
O76 Cd72 2.273 . S
O76 Cd74 2.411 1_554 S
O76 C79 1.320 . S
O77 Cd74 2.333 . S
O77 C79 1.214 1_556 S
O78 Cd74 2.352 . S
O78 C81 1.258 . S
C79 O76 1.320 . S
C79 O77 1.214 1_554 S
O80 Cd72 2.277 . S
O80 C75 1.209 1_554 S
C81 O78 1.258 . S
C81 O83 1.282 . S
O82 Cd74 2.277 . S
O82 C75 1.226 . S
O83 Cd74 2.356 . S
O83 C81 1.282 . S
C84 O85 1.306 . S
C84 O87 1.160 . S
O85 C84 1.306 . S
O85 Cd86 2.228 . S
Cd86 O85 2.228 . S
Cd86 O90 2.273 . S
Cd86 O94 2.277 . S
O87 C84 1.160 . S
O87 Cd88 2.203 . S
Cd88 O87 2.203 . S
Cd88 O90 2.411 . S
Cd88 O91 2.333 . S
Cd88 O92 2.352 . S
Cd88 O96 2.277 . S
Cd88 O97 2.356 . S
C89 O94 1.209 . S
C89 O96 1.226 . S
O90 Cd86 2.273 . S
O90 Cd88 2.411 . S
O90 C93 1.320 . S
O91 Cd88 2.333 . S
O91 C93 1.214 . S
O92 Cd88 2.352 . S
O92 C95 1.258 . S
C93 O90 1.320 . S
C93 O91 1.214 . S
O94 Cd86 2.277 . S
O94 C89 1.209 . S
C95 O92 1.258 . S
C95 O97 1.282 . S
O96 Cd88 2.277 . S
O96 C89 1.226 . S
O97 Cd88 2.356 . S
O97 C95 1.282 . S
C98 O99 1.306 . S
C98 O101 1.160 . S
O99 C98 1.306 . S
O99 Cd100 2.228 . S
Cd100 O99 2.228 . S
Cd100 O104 2.273 . S
Cd100 O108 2.277 . S
O101 C98 1.160 . S
O101 Cd102 2.203 . S
Cd102 O101 2.203 . S
Cd102 O104 2.411 . S
Cd102 O105 2.333 . S
Cd102 O106 2.352 . S
Cd102 O110 2.277 . S
Cd102 O111 2.356 . S
C103 O108 1.209 . S
C103 O110 1.226 . S
O104 Cd100 2.273 . S
O104 Cd102 2.411 . S
O104 C107 1.320 . S
O105 Cd102 2.333 . S
O105 C107 1.214 . S
O106 Cd102 2.352 . S
O106 C109 1.258 . S
C107 O104 1.320 . S
C107 O105 1.214 . S
O108 Cd100 2.277 . S
O108 C103 1.209 . S
C109 O106 1.258 . S
C109 O111 1.282 . S
O110 Cd102 2.277 . S
O110 C103 1.226 . S
O111 Cd102 2.356 . S
O111 C109 1.282 . S
C112 O113 1.306 1_554 S
C112 O115 1.160 . S
O113 C112 1.306 1_556 S
O113 Cd114 2.228 . S
Cd114 O113 2.228 . S
Cd114 O118 2.273 . S
Cd114 O122 2.277 . S
O115 C112 1.160 . S
O115 Cd116 2.203 . S
Cd116 O115 2.203 . S
Cd116 O118 2.411 1_554 S
Cd116 O119 2.333 . S
Cd116 O120 2.352 . S
Cd116 O124 2.277 . S
Cd116 O125 2.356 . S
C117 O122 1.209 1_554 S
C117 O124 1.226 . S
O118 Cd114 2.273 . S
O118 Cd116 2.411 1_556 S
O118 C121 1.320 . S
O119 Cd116 2.333 . S
O119 C121 1.214 1_554 S
O120 Cd116 2.352 . S
O120 C123 1.258 . S
C121 O118 1.320 . S
C121 O119 1.214 1_556 S
O122 Cd114 2.277 . S
O122 C117 1.209 1_556 S
C123 O120 1.258 . S
C123 O125 1.282 . S
O124 Cd116 2.277 . S
O124 C117 1.226 . S
O125 Cd116 2.356 . S
O125 C123 1.282 . S
C126 O127 1.306 . S
C126 O129 1.160 . S
O127 C126 1.306 . S
O127 Cd128 2.228 . S
Cd128 O127 2.228 . S
Cd128 O132 2.273 . S
Cd128 O136 2.277 . S
O129 C126 1.160 . S
O129 Cd130 2.203 . S
Cd130 O129 2.203 . S
Cd130 O132 2.411 . S
Cd130 O133 2.333 . S
Cd130 O134 2.352 . S
Cd130 O138 2.277 . S
Cd130 O139 2.356 . S
C131 O136 1.209 . S
C131 O138 1.226 . S
O132 Cd128 2.273 . S
O132 Cd130 2.411 . S
O132 C135 1.320 . S
O133 Cd130 2.333 . S
O133 C135 1.214 . S
O134 Cd130 2.352 . S
O134 C137 1.258 . S
C135 O132 1.320 . S
C135 O133 1.214 . S
O136 Cd128 2.277 . S
O136 C131 1.209 . S
C137 O134 1.258 . S
C137 O139 1.282 . S
O138 Cd130 2.277 . S
O138 C131 1.226 . S
O139 Cd130 2.356 . S
O139 C137 1.282 . S
C140 O141 1.306 . S
C140 O143 1.160 . S
O141 C140 1.306 . S
O141 Cd142 2.228 . S
Cd142 O141 2.228 . S
Cd142 O146 2.273 . S
Cd142 O150 2.277 . S
O143 C140 1.160 . S
O143 Cd144 2.203 . S
Cd144 O143 2.203 . S
Cd144 O146 2.411 . S
Cd144 O147 2.333 . S
Cd144 O148 2.352 . S
Cd144 O152 2.277 . S
Cd144 O153 2.356 . S
C145 O150 1.209 . S
C145 O152 1.226 . S
O146 Cd142 2.273 . S
O146 Cd144 2.411 . S
O146 C149 1.320 . S
O147 Cd144 2.333 . S
O147 C149 1.214 . S
O148 Cd144 2.352 . S
O148 C151 1.258 . S
C149 O146 1.320 . S
C149 O147 1.214 . S
O150 Cd142 2.277 . S
O150 C145 1.209 . S
C151 O148 1.258 . S
C151 O153 1.282 . S
O152 Cd144 2.277 . S
O152 C145 1.226 . S
O153 Cd144 2.356 . S
O153 C151 1.282 . S
C154 O155 1.306 1_554 S
C154 O157 1.160 . S
O155 C154 1.306 1_556 S
O155 Cd156 2.228 . S
Cd156 O155 2.228 . S
Cd156 O160 2.273 . S
Cd156 O164 2.277 . S
O157 C154 1.160 . S
O157 Cd158 2.203 . S
Cd158 O157 2.203 . S
Cd158 O160 2.411 1_554 S
Cd158 O161 2.333 . S
Cd158 O162 2.352 . S
Cd158 O166 2.277 . S
Cd158 O167 2.356 . S
C159 O164 1.209 1_554 S
C159 O166 1.226 . S
O160 Cd156 2.273 . S
O160 Cd158 2.411 1_556 S
O160 C163 1.320 . S
O161 Cd158 2.333 . S
O161 C163 1.214 1_554 S
O162 Cd158 2.352 . S
O162 C165 1.258 . S
C163 O160 1.320 . S
C163 O161 1.214 1_556 S
O164 Cd156 2.277 . S
O164 C159 1.209 1_556 S
C165 O162 1.258 . S
C165 O167 1.282 . S
O166 Cd158 2.277 . S
O166 C159 1.226 . S
O167 Cd158 2.356 . S
O167 C165 1.282 . S
C168 C169 1.391 . S
C168 C170 1.394 . S
C168 H184 0.931 . S
C169 C168 1.391 . S
C169 C173 1.376 . S
C170 C168 1.394 . S
C170 C171 1.369 . S
C170 C174 1.531 . S
C171 C170 1.369 . S
C171 C172 1.410 . S
C171 C179 1.503 . S
C172 C171 1.410 . S
C172 C173 1.392 . S
C172 C175 1.511 . S
C173 C169 1.376 . S
C173 C172 1.392 . S
C173 H185 0.929 . S
C174 C170 1.531 . S
C174 H186 0.960 . S
C174 H187 0.962 . S
C174 H188 0.960 . S
C175 C172 1.511 . S
C175 H189 0.961 . S
C175 H190 0.961 . S
C175 H191 0.961 . S
C176 C177 1.370 . S
C176 C178 1.363 . S
C176 H192 0.931 . S
C177 C176 1.370 . S
C177 C181 1.408 . S
C178 C176 1.363 . S
C178 C179 1.370 . S
C178 C182 1.524 . S
C179 C171 1.503 . S
C179 C178 1.370 . S
C179 C180 1.403 . S
C180 C179 1.403 . S
C180 C181 1.404 . S
C180 C183 1.539 . S
C181 C177 1.408 . S
C181 C180 1.404 . S
C181 H193 0.930 . S
C182 C178 1.524 . S
C182 H194 0.956 . S
C182 H195 0.961 . S
C182 H196 0.961 . S
C183 C180 1.539 . S
C183 H197 0.958 . S
C183 H198 0.961 . S
C183 H199 0.960 . S
H184 C168 0.931 . S
H185 C173 0.929 . S
H186 C174 0.960 . S
H187 C174 0.962 . S
H188 C174 0.960 . S
H189 C175 0.961 . S
H190 C175 0.961 . S
H191 C175 0.961 . S
H192 C176 0.931 . S
H193 C181 0.930 . S
H194 C182 0.956 . S
H195 C182 0.961 . S
H196 C182 0.961 . S
H197 C183 0.958 . S
H198 C183 0.961 . S
H199 C183 0.960 . S
C200 C201 1.391 . S
C200 C202 1.394 . S
C200 H216 0.931 . S
C201 C200 1.391 . S
C201 C205 1.376 . S
C202 C200 1.394 . S
C202 C203 1.369 . S
C202 C206 1.531 1_655 S
C203 C202 1.369 . S
C203 C204 1.410 . S
C203 C211 1.503 1_655 S
C204 C203 1.410 . S
C204 C205 1.392 . S
C204 C207 1.511 . S
C205 C201 1.376 . S
C205 C204 1.392 . S
C205 H217 0.929 . S
C206 C202 1.531 1_455 S
C206 H218 0.960 . S
C206 H219 0.962 . S
C206 H220 0.960 1_455 S
C207 C204 1.511 . S
C207 H221 0.961 . S
C207 H222 0.961 . S
C207 H223 0.961 . S
C208 C209 1.370 . S
C208 C210 1.363 . S
C208 H224 0.931 . S
C209 C208 1.370 . S
C209 C213 1.408 . S
C210 C208 1.363 . S
C210 C211 1.370 . S
C210 C214 1.524 . S
C211 C203 1.503 1_455 S
C211 C210 1.370 . S
C211 C212 1.403 . S
C212 C211 1.403 . S
C212 C213 1.404 . S
C212 C215 1.539 . S
C213 C209 1.408 . S
C213 C212 1.404 . S
C213 H225 0.930 . S
C214 C210 1.524 . S
C214 H226 0.958 1_455 S
C214 H227 0.961 1_455 S
C214 H228 0.961 . S
C215 C212 1.539 . S
C215 H229 0.958 . S
C215 H230 0.961 . S
C215 H231 0.960 . S
H216 C200 0.931 . S
H217 C205 0.929 . S
H218 C206 0.960 . S
H219 C206 0.962 . S
H220 C206 0.960 1_655 S
H221 C207 0.961 . S
H222 C207 0.961 . S
H223 C207 0.961 . S
H224 C208 0.931 . S
H225 C213 0.930 . S
H226 C214 0.958 1_655 S
H227 C214 0.961 1_655 S
H228 C214 0.961 . S
H229 C215 0.958 . S
H230 C215 0.961 . S
H231 C215 0.960 . S
C232 C233 1.391 . S
C232 C234 1.394 . S
C232 H248 0.931 . S
C233 C232 1.391 . S
C233 C237 1.376 . S
C234 C232 1.394 . S
C234 C235 1.369 . S
C234 C238 1.531 . S
C235 C234 1.369 . S
C235 C236 1.410 . S
C235 C243 1.503 1_566 S
C236 C235 1.410 . S
C236 C237 1.392 . S
C236 C239 1.511 . S
C237 C233 1.376 . S
C237 C236 1.392 . S
C237 H249 0.929 . S
C238 C234 1.531 . S
C238 H250 0.960 1_565 S
C238 H251 0.962 1_556 S
C238 H252 0.960 . S
C239 C236 1.511 . S
C239 H253 0.961 . S
C239 H254 0.961 1_565 S
C239 H255 0.958 1_565 S
C240 C241 1.370 . S
C240 C242 1.363 . S
C240 H256 0.931 . S
C241 C240 1.370 . S
C241 C245 1.408 1_554 S
C242 C240 1.363 . S
C242 C243 1.370 . S
C242 C246 1.524 1_545 S
C243 C235 1.503 1_544 S
C243 C242 1.370 . S
C243 C244 1.403 1_554 S
C244 C243 1.403 1_556 S
C244 C245 1.404 . S
C244 C247 1.539 . S
C245 C241 1.408 1_556 S
C245 C244 1.404 . S
C245 H257 0.930 . S
C246 C242 1.524 1_565 S
C246 H258 0.956 . S
C246 H259 0.961 . S
C246 H260 0.961 1_565 S
C247 C244 1.539 . S
C247 H261 0.958 . S
C247 H262 0.961 . S
C247 H263 0.960 . S
H248 C232 0.931 . S
H249 C237 0.929 . S
H250 C238 0.960 1_545 S
H251 C238 0.962 1_554 S
H252 C238 0.960 . S
H253 C239 0.961 . S
H254 C239 0.961 1_545 S
H255 C239 0.958 1_545 S
H256 C240 0.931 . S
H257 C245 0.930 . S
H258 C246 0.956 . S
H259 C246 0.961 . S
H260 C246 0.961 1_545 S
H261 C247 0.958 . S
H262 C247 0.961 . S
H263 C247 0.960 . S
C264 C265 1.391 . S
C264 C266 1.394 . S
C264 H280 0.931 . S
C265 C264 1.391 . S
C265 C269 1.376 . S
C266 C264 1.394 . S
C266 C267 1.369 . S
C266 C270 1.531 . S
C267 C266 1.369 . S
C267 C268 1.410 . S
C267 C275 1.503 . S
C268 C267 1.410 . S
C268 C269 1.392 . S
C268 C271 1.511 . S
C269 C265 1.376 . S
C269 C268 1.392 . S
C269 H281 0.929 . S
C270 C266 1.531 . S
C270 H282 0.960 . S
C270 H283 0.962 . S
C270 H284 0.960 . S
C271 C268 1.511 . S
C271 H285 0.961 . S
C271 H286 0.961 . S
C271 H287 0.961 . S
C272 C273 1.370 . S
C272 C274 1.363 . S
C272 H288 0.931 . S
C273 C272 1.370 . S
C273 C277 1.408 . S
C274 C272 1.363 . S
C274 C275 1.370 . S
C274 C278 1.524 . S
C275 C267 1.503 . S
C275 C274 1.370 . S
C275 C276 1.403 . S
C276 C275 1.403 . S
C276 C277 1.404 . S
C276 C279 1.539 . S
C277 C273 1.408 . S
C277 C276 1.404 . S
C277 H289 0.930 . S
C278 C274 1.524 . S
C278 H290 0.956 . S
C278 H291 0.961 . S
C278 H292 0.961 . S
C279 C276 1.539 . S
C279 H293 0.958 . S
C279 H294 0.961 . S
C279 H295 0.960 . S
H280 C264 0.931 . S
H281 C269 0.929 . S
H282 C270 0.960 . S
H283 C270 0.962 . S
H284 C270 0.960 . S
H285 C271 0.961 . S
H286 C271 0.961 . S
H287 C271 0.961 . S
H288 C272 0.931 . S
H289 C277 0.930 . S
H290 C278 0.956 . S
H291 C278 0.961 . S
H292 C278 0.961 . S
H293 C279 0.958 . S
H294 C279 0.961 . S
H295 C279 0.960 . S
C296 C297 1.391 . S
C296 C298 1.394 . S
C296 H312 0.931 . S
C297 C296 1.391 . S
C297 C301 1.376 . S
C298 C296 1.394 . S
C298 C299 1.369 . S
C298 C302 1.530 . S
C299 C298 1.369 . S
C299 C300 1.410 . S
C299 C307 1.503 1_655 S
C300 C299 1.410 . S
C300 C301 1.392 . S
C300 C303 1.511 . S
C301 C297 1.376 . S
C301 C300 1.392 . S
C301 H313 0.929 . S
C302 C298 1.530 . S
C302 H314 0.962 1_655 S
C302 H315 0.981 1_655 S
C302 H316 0.960 . S
C303 C300 1.511 . S
C303 H317 0.961 . S
C303 H318 0.961 . S
C303 H319 0.961 . S
C304 C305 1.370 . S
C304 C306 1.363 . S
C304 H320 0.931 . S
C305 C304 1.370 . S
C305 C309 1.408 . S
C306 C304 1.363 . S
C306 C307 1.370 . S
C306 C310 1.491 1_455 S
C307 C299 1.503 1_455 S
C307 C306 1.370 . S
C307 C308 1.403 . S
C308 C307 1.403 . S
C308 C309 1.404 . S
C308 C311 1.539 . S
C309 C305 1.408 . S
C309 C308 1.404 . S
C309 H321 0.930 . S
C310 C306 1.491 1_655 S
C310 H322 0.978 . S
C310 H323 0.975 . S
C310 H324 0.958 1_655 S
C311 C308 1.539 . S
C311 H325 0.958 . S
C311 H326 0.961 . S
C311 H327 0.960 . S
H312 C296 0.931 . S
H313 C301 0.929 . S
H314 C302 0.962 1_455 S
H315 C302 0.981 1_455 S
H316 C302 0.960 . S
H317 C303 0.961 . S
H318 C303 0.961 . S
H319 C303 0.961 . S
H320 C304 0.931 . S
H321 C309 0.930 . S
H322 C310 0.978 . S
H323 C310 0.975 . S
H324 C310 0.958 1_455 S
H325 C311 0.958 . S
H326 C311 0.961 . S
H327 C311 0.960 . S
C328 C329 1.391 . S
C328 C330 1.394 . S
C328 H344 0.931 . S
C329 C328 1.391 . S
C329 C333 1.376 . S
C330 C328 1.394 . S
C330 C331 1.369 . S
C330 C334 1.531 . S
C331 C330 1.369 . S
C331 C332 1.410 . S
C331 C339 1.503 1_564 S
C332 C331 1.410 . S
C332 C333 1.392 . S
C332 C335 1.511 . S
C333 C329 1.376 . S
C333 C332 1.392 . S
C333 H345 0.929 . S
C334 C330 1.531 . S
C334 H346 0.960 1_565 S
C334 H347 0.978 . S
C334 H348 0.960 . S
C335 C332 1.511 . S
C335 H349 0.961 1_554 S
C335 H350 0.965 1_564 S
C335 H351 0.961 . S
C336 C337 1.370 . S
C336 C338 1.363 . S
C336 H352 0.931 . S
C337 C336 1.370 . S
C337 C341 1.408 1_556 S
C338 C336 1.363 . S
C338 C339 1.370 . S
C338 C342 1.524 1_545 S
C339 C331 1.503 1_546 S
C339 C338 1.370 . S
C339 C340 1.403 1_556 S
C340 C339 1.403 1_554 S
C340 C341 1.404 . S
C340 C343 1.539 . S
C341 C337 1.408 1_554 S
C341 C340 1.404 . S
C341 H353 0.930 . S
C342 C338 1.524 1_565 S
C342 H354 0.956 . S
C342 H355 0.961 . S
C342 H356 0.961 1_565 S
C343 C340 1.539 . S
C343 H357 0.958 . S
C343 H358 0.961 . S
C343 H359 0.960 . S
H344 C328 0.931 . S
H345 C333 0.929 . S
H346 C334 0.960 1_545 S
H347 C334 0.978 . S
H348 C334 0.960 . S
H349 C335 0.961 1_556 S
H350 C335 0.965 1_546 S
H351 C335 0.961 . S
H352 C336 0.931 . S
H353 C341 0.930 . S
H354 C342 0.956 . S
H355 C342 0.961 . S
H356 C342 0.961 1_545 S
H357 C343 0.958 . S
H358 C343 0.961 . S
H359 C343 0.960 . S
C360 C361 1.391 . S
C360 C362 1.394 . S
C360 H376 0.931 . S
C361 C360 1.391 . S
C361 C365 1.376 . S
C362 C360 1.394 . S
C362 C363 1.369 . S
C362 C366 1.531 1_556 S
C363 C362 1.369 . S
C363 C364 1.410 . S
C363 C371 1.503 1_556 S
C364 C363 1.410 . S
C364 C365 1.392 . S
C364 C367 1.511 . S
C365 C361 1.376 . S
C365 C364 1.392 . S
C365 H377 0.929 . S
C366 C362 1.531 1_554 S
C366 H378 0.960 . S
C366 H379 0.962 . S
C366 H380 0.960 . S
C367 C364 1.511 . S
C367 H381 0.961 . S
C367 H382 0.961 . S
C367 H383 0.961 . S
C368 C369 1.370 . S
C368 C370 1.363 . S
C368 H384 0.931 . S
C369 C368 1.370 . S
C369 C373 1.408 . S
C370 C368 1.363 . S
C370 C371 1.370 . S
C370 C374 1.524 1_554 S
C371 C363 1.503 1_554 S
C371 C370 1.370 . S
C371 C372 1.403 . S
C372 C371 1.403 . S
C372 C373 1.404 . S
C372 C375 1.539 . S
C373 C369 1.408 . S
C373 C372 1.404 . S
C373 H385 0.930 . S
C374 C370 1.524 1_556 S
C374 H386 0.956 . S
C374 H387 0.961 . S
C374 H388 0.961 . S
C375 C372 1.539 . S
C375 H389 0.958 . S
C375 H390 0.961 . S
C375 H391 0.960 . S
H376 C360 0.931 . S
H377 C365 0.929 . S
H378 C366 0.960 . S
H379 C366 0.962 . S
H380 C366 0.960 . S
H381 C367 0.961 . S
H382 C367 0.961 . S
H383 C367 0.961 . S
H384 C368 0.931 . S
H385 C373 0.930 . S
H386 C374 0.956 . S
H387 C374 0.961 . S
H388 C374 0.961 . S
H389 C375 0.958 . S
H390 C375 0.961 . S
H391 C375 0.960 . S
C392 C393 1.391 . S
C392 C394 1.394 . S
C392 H408 0.931 . S
C393 C392 1.391 . S
C393 C397 1.376 . S
C394 C392 1.394 . S
C394 C395 1.369 . S
C394 C398 1.531 . S
C395 C394 1.369 . S
C395 C396 1.410 . S
C395 C403 1.503 . S
C396 C395 1.410 . S
C396 C397 1.392 . S
C396 C399 1.511 . S
C397 C393 1.376 . S
C397 C396 1.392 . S
C397 H409 0.929 . S
C398 C394 1.531 . S
C398 H410 0.960 . S
C398 H411 0.962 . S
C398 H412 0.960 . S
C399 C396 1.511 . S
C399 H413 0.961 . S
C399 H414 0.961 . S
C399 H415 0.961 . S
C400 C401 1.370 . S
C400 C402 1.363 . S
C400 H416 0.931 . S
C401 C400 1.370 . S
C401 C405 1.408 . S
C402 C400 1.363 . S
C402 C403 1.370 . S
C402 C406 1.524 . S
C403 C395 1.503 . S
C403 C402 1.370 . S
C403 C404 1.403 . S
C404 C403 1.403 . S
C404 C405 1.404 . S
C404 C407 1.539 . S
C405 C401 1.408 . S
C405 C404 1.404 . S
C405 H417 0.930 . S
C406 C402 1.524 . S
C406 H418 0.956 . S
C406 H419 0.961 . S
C406 H420 0.961 . S
C407 C404 1.539 . S
C407 H421 0.958 . S
C407 H422 0.961 . S
C407 H423 0.960 . S
H408 C392 0.931 . S
H409 C397 0.929 . S
H410 C398 0.960 . S
H411 C398 0.962 . S
H412 C398 0.960 . S
H413 C399 0.961 . S
H414 C399 0.961 . S
H415 C399 0.961 . S
H416 C400 0.931 . S
H417 C405 0.930 . S
H418 C406 0.956 . S
H419 C406 0.961 . S
H420 C406 0.961 . S
H421 C407 0.958 . S
H422 C407 0.961 . S
H423 C407 0.960 . S
C424 C425 1.391 . S
C424 C426 1.394 . S
C424 H440 0.931 . S
C425 C424 1.391 . S
C425 C429 1.376 . S
C426 C424 1.394 . S
C426 C427 1.369 . S
C426 C430 1.531 . S
C427 C426 1.369 . S
C427 C428 1.410 . S
C427 C435 1.503 . S
C428 C427 1.410 . S
C428 C429 1.392 . S
C428 C431 1.511 . S
C429 C425 1.376 . S
C429 C428 1.392 . S
C429 H441 0.929 . S
C430 C426 1.531 . S
C430 H442 0.960 . S
C430 H443 0.962 . S
C430 H444 0.960 . S
C431 C428 1.511 . S
C431 H445 0.961 . S
C431 H446 0.961 . S
C431 H447 0.961 . S
C432 C433 1.370 . S
C432 C434 1.363 . S
C432 H448 0.931 . S
C433 C432 1.370 . S
C433 C437 1.408 . S
C434 C432 1.363 . S
C434 C435 1.370 . S
C434 C438 1.524 . S
C435 C427 1.503 . S
C435 C434 1.370 . S
C435 C436 1.403 . S
C436 C435 1.403 . S
C436 C437 1.404 . S
C436 C439 1.539 . S
C437 C433 1.408 . S
C437 C436 1.404 . S
C437 H449 0.930 . S
C438 C434 1.524 . S
C438 H450 0.956 . S
C438 H451 0.961 . S
C438 H452 0.961 . S
C439 C436 1.539 . S
C439 H453 0.958 . S
C439 H454 0.961 . S
C439 H455 0.960 . S
H440 C424 0.931 . S
H441 C429 0.929 . S
H442 C430 0.960 . S
H443 C430 0.962 . S
H444 C430 0.960 . S
H445 C431 0.961 . S
H446 C431 0.961 . S
H447 C431 0.961 . S
H448 C432 0.931 . S
H449 C437 0.930 . S
H450 C438 0.956 . S
H451 C438 0.961 . S
H452 C438 0.961 . S
H453 C439 0.958 . S
H454 C439 0.961 . S
H455 C439 0.960 . S
C456 C457 1.391 . S
C456 C458 1.394 . S
C456 H472 0.931 . S
C457 C456 1.391 . S
C457 C461 1.376 . S
C458 C456 1.394 . S
C458 C459 1.369 . S
C458 C462 1.531 . S
C459 C458 1.369 . S
C459 C460 1.410 . S
C459 C467 1.503 1_554 S
C460 C459 1.410 . S
C460 C461 1.392 . S
C460 C463 1.511 1_554 S
C461 C457 1.376 . S
C461 C460 1.392 . S
C461 H473 0.929 . S
C462 C458 1.531 . S
C462 H474 0.960 . S
C462 H475 0.962 . S
C462 H476 0.960 . S
C463 C460 1.511 1_556 S
C463 H477 0.961 1_556 S
C463 H478 0.961 . S
C463 H479 0.961 . S
C464 C465 1.370 . S
C464 C466 1.363 . S
C464 H480 0.931 . S
C465 C464 1.370 . S
C465 C469 1.408 . S
C466 C464 1.363 . S
C466 C467 1.370 . S
C466 C470 1.524 1_556 S
C467 C459 1.503 1_556 S
C467 C466 1.370 . S
C467 C468 1.403 . S
C468 C467 1.403 . S
C468 C469 1.404 . S
C468 C471 1.539 . S
C469 C465 1.408 . S
C469 C468 1.404 . S
C469 H481 0.930 . S
C470 C466 1.524 1_554 S
C470 H482 0.956 . S
C470 H483 0.961 . S
C470 H484 0.961 . S
C471 C468 1.539 . S
C471 H485 0.958 . S
C471 H486 0.961 . S
C471 H487 0.960 . S
H472 C456 0.931 . S
H473 C461 0.929 . S
H474 C462 0.960 . S
H475 C462 0.962 . S
H476 C462 0.960 . S
H477 C463 0.961 1_554 S
H478 C463 0.961 . S
H479 C463 0.961 . S
H480 C464 0.931 . S
H481 C469 0.930 . S
H482 C470 0.956 . S
H483 C470 0.961 . S
H484 C470 0.961 . S
H485 C471 0.958 . S
H486 C471 0.961 . S
H487 C471 0.960 . S
C488 C489 1.391 . S
C488 C490 1.394 . S
C488 H504 0.931 . S
C489 C488 1.391 . S
C489 C493 1.376 . S
C490 C488 1.394 . S
C490 C491 1.369 . S
C490 C494 1.531 . S
C491 C490 1.369 . S
C491 C492 1.410 . S
C491 C499 1.503 . S
C492 C491 1.410 . S
C492 C493 1.392 . S
C492 C495 1.511 . S
C493 C489 1.376 . S
C493 C492 1.392 . S
C493 H505 0.929 . S
C494 C490 1.531 . S
C494 H506 0.960 . S
C494 H507 0.962 . S
C494 H508 0.960 . S
C495 C492 1.511 . S
C495 H509 0.961 . S
C495 H510 0.961 . S
C495 H511 0.961 . S
C496 C497 1.370 . S
C496 C498 1.363 . S
C496 H512 0.931 . S
C497 C496 1.370 . S
C497 C501 1.408 . S
C498 C496 1.363 . S
C498 C499 1.370 . S
C498 C502 1.524 . S
C499 C491 1.503 . S
C499 C498 1.370 . S
C499 C500 1.403 . S
C500 C499 1.403 . S
C500 C501 1.404 . S
C500 C503 1.539 . S
C501 C497 1.408 . S
C501 C500 1.404 . S
C501 H513 0.930 . S
C502 C498 1.524 . S
C502 H514 0.956 . S
C502 H515 0.961 . S
C502 H516 0.961 . S
C503 C500 1.539 . S
C503 H517 0.958 . S
C503 H518 0.961 . S
C503 H519 0.960 . S
H504 C488 0.931 . S
H505 C493 0.929 . S
H506 C494 0.960 . S
H507 C494 0.962 . S
H508 C494 0.960 . S
H509 C495 0.961 . S
H510 C495 0.961 . S
H511 C495 0.961 . S
H512 C496 0.931 . S
H513 C501 0.930 . S
H514 C502 0.956 . S
H515 C502 0.961 . S
H516 C502 0.961 . S
H517 C503 0.958 . S
H518 C503 0.961 . S
H519 C503 0.960 . S
C520 C521 1.391 . S
C520 C522 1.394 . S
C520 H536 0.931 . S
C521 C520 1.391 . S
C521 C525 1.376 . S
C522 C520 1.394 . S
C522 C523 1.369 . S
C522 C526 1.531 . S
C523 C522 1.369 . S
C523 C524 1.410 . S
C523 C531 1.503 . S
C524 C523 1.410 . S
C524 C525 1.392 . S
C524 C527 1.511 . S
C525 C521 1.376 . S
C525 C524 1.392 . S
C525 H537 0.929 . S
C526 C522 1.531 . S
C526 H538 0.960 . S
C526 H539 0.962 . S
C526 H540 0.960 . S
C527 C524 1.511 . S
C527 H541 0.961 . S
C527 H542 0.961 . S
C527 H543 0.961 . S
C528 C529 1.370 . S
C528 C530 1.363 . S
C528 H544 0.931 . S
C529 C528 1.370 . S
C529 C533 1.408 . S
C530 C528 1.363 . S
C530 C531 1.370 . S
C530 C534 1.524 . S
C531 C523 1.503 . S
C531 C530 1.370 . S
C531 C532 1.403 . S
C532 C531 1.403 . S
C532 C533 1.404 . S
C532 C535 1.539 . S
C533 C529 1.408 . S
C533 C532 1.404 . S
C533 H545 0.930 . S
C534 C530 1.524 . S
C534 H546 0.956 . S
C534 H547 0.961 . S
C534 H548 0.961 . S
C535 C532 1.539 . S
C535 H549 0.958 . S
C535 H550 0.961 . S
C535 H551 0.960 . S
H536 C520 0.931 . S
H537 C525 0.929 . S
H538 C526 0.960 . S
H539 C526 0.962 . S
H540 C526 0.960 . S
H541 C527 0.961 . S
H542 C527 0.961 . S
H543 C527 0.961 . S
H544 C528 0.931 . S
H545 C533 0.930 . S
H546 C534 0.956 . S
H547 C534 0.961 . S
H548 C534 0.961 . S
H549 C535 0.958 . S
H550 C535 0.961 . S
H551 C535 0.960 . S
C552 C553 1.391 . S
C552 C554 1.394 . S
C552 H568 0.931 . S
C553 C552 1.391 . S
C553 C557 1.376 . S
C554 C552 1.394 . S
C554 C555 1.369 . S
C554 C558 1.531 . S
C555 C554 1.369 . S
C555 C556 1.410 . S
C555 C563 1.503 . S
C556 C555 1.410 . S
C556 C557 1.392 . S
C556 C559 1.511 . S
C557 C553 1.376 . S
C557 C556 1.392 . S
C557 H569 0.929 . S
C558 C554 1.531 . S
C558 H570 0.960 . S
C558 H571 0.962 . S
C558 H572 0.960 . S
C559 C556 1.511 . S
C559 H573 0.961 . S
C559 H574 0.961 . S
C559 H575 0.961 . S
C560 C561 1.370 . S
C560 C562 1.363 . S
C560 H576 0.931 . S
C561 C560 1.370 . S
C561 C565 1.408 . S
C562 C560 1.363 . S
C562 C563 1.370 . S
C562 C566 1.524 . S
C563 C555 1.503 . S
C563 C562 1.370 . S
C563 C564 1.403 . S
C564 C563 1.403 . S
C564 C565 1.404 . S
C564 C567 1.539 . S
C565 C561 1.408 . S
C565 C564 1.404 . S
C565 H577 0.930 . S
C566 C562 1.524 . S
C566 H578 0.956 . S
C566 H579 0.961 . S
C566 H580 0.961 . S
C567 C564 1.539 . S
C567 H581 0.958 . S
C567 H582 0.961 . S
C567 H583 0.960 . S
H568 C552 0.931 . S
H569 C557 0.929 . S
H570 C558 0.960 . S
H571 C558 0.962 . S
H572 C558 0.960 . S
H573 C559 0.961 . S
H574 C559 0.961 . S
H575 C559 0.961 . S
H576 C560 0.931 . S
H577 C565 0.930 . S
H578 C566 0.956 . S
H579 C566 0.961 . S
H580 C566 0.961 . S
H581 C567 0.958 . S
H582 C567 0.961 . S
H583 C567 0.960 . S
C584 C585 1.391 . S
C584 C586 1.394 . S
C584 H600 0.931 . S
C585 C584 1.391 . S
C585 C589 1.376 . S
C586 C584 1.394 . S
C586 C587 1.369 . S
C586 C590 1.531 . S
C587 C586 1.369 . S
C587 C588 1.410 . S
C587 C595 1.503 . S
C588 C587 1.410 . S
C588 C589 1.392 . S
C588 C591 1.511 . S
C589 C585 1.376 . S
C589 C588 1.392 . S
C589 H601 0.929 . S
C590 C586 1.531 . S
C590 H602 0.960 . S
C590 H603 0.962 . S
C590 H604 0.960 . S
C591 C588 1.511 . S
C591 H605 0.961 . S
C591 H606 0.961 . S
C591 H607 0.961 . S
C592 C593 1.370 . S
C592 C594 1.363 . S
C592 H608 0.931 . S
C593 C592 1.370 . S
C593 C597 1.408 . S
C594 C592 1.363 . S
C594 C595 1.370 . S
C594 C598 1.524 . S
C595 C587 1.503 . S
C595 C594 1.370 . S
C595 C596 1.403 . S
C596 C595 1.403 . S
C596 C597 1.404 . S
C596 C599 1.539 . S
C597 C593 1.408 . S
C597 C596 1.404 . S
C597 H609 0.930 . S
C598 C594 1.524 . S
C598 H610 0.956 . S
C598 H611 0.961 . S
C598 H612 0.961 . S
C599 C596 1.539 . S
C599 H613 0.958 . S
C599 H614 0.961 . S
C599 H615 0.960 . S
H600 C584 0.931 . S
H601 C589 0.929 . S
H602 C590 0.960 . S
H603 C590 0.962 . S
H604 C590 0.960 . S
H605 C591 0.961 . S
H606 C591 0.961 . S
H607 C591 0.961 . S
H608 C592 0.931 . S
H609 C597 0.930 . S
H610 C598 0.956 . S
H611 C598 0.961 . S
H612 C598 0.961 . S
H613 C599 0.958 . S
H614 C599 0.961 . S
H615 C599 0.960 . S
C616 C617 1.391 . S
C616 C618 1.394 . S
C616 H632 0.931 . S
C617 C616 1.391 . S
C617 C621 1.376 . S
C618 C616 1.394 . S
C618 C619 1.369 . S
C618 C622 1.531 . S
C619 C618 1.369 . S
C619 C620 1.410 . S
C619 C627 1.503 . S
C620 C619 1.410 . S
C620 C621 1.392 . S
C620 C623 1.511 . S
C621 C617 1.376 . S
C621 C620 1.392 . S
C621 H633 0.929 . S
C622 C618 1.531 . S
C622 H634 0.960 . S
C622 H635 0.962 . S
C622 H636 0.960 . S
C623 C620 1.511 . S
C623 H637 0.961 . S
C623 H638 0.961 . S
C623 H639 0.961 . S
C624 C625 1.370 . S
C624 C626 1.363 . S
C624 H640 0.931 . S
C625 C624 1.370 . S
C625 C629 1.408 . S
C626 C624 1.363 . S
C626 C627 1.370 . S
C626 C630 1.524 . S
C627 C619 1.503 . S
C627 C626 1.370 . S
C627 C628 1.403 . S
C628 C627 1.403 . S
C628 C629 1.404 . S
C628 C631 1.539 . S
C629 C625 1.408 . S
C629 C628 1.404 . S
C629 H641 0.930 . S
C630 C626 1.524 . S
C630 H642 0.956 . S
C630 H643 0.961 . S
C630 H644 0.961 . S
C631 C628 1.539 . S
C631 H645 0.958 . S
C631 H646 0.961 . S
C631 H647 0.960 . S
H632 C616 0.931 . S
H633 C621 0.929 . S
H634 C622 0.960 . S
H635 C622 0.962 . S
H636 C622 0.960 . S
H637 C623 0.961 . S
H638 C623 0.961 . S
H639 C623 0.961 . S
H640 C624 0.931 . S
H641 C629 0.930 . S
H642 C630 0.956 . S
H643 C630 0.961 . S
H644 C630 0.961 . S
H645 C631 0.958 . S
H646 C631 0.961 . S
H647 C631 0.960 . S
C648 C649 1.391 . S
C648 C650 1.394 . S
C648 H664 0.931 . S
C649 C648 1.391 . S
C649 C653 1.376 . S
C650 C648 1.394 . S
C650 C651 1.369 . S
C650 C654 1.531 . S
C651 C650 1.369 . S
C651 C652 1.410 . S
C651 C659 1.503 . S
C652 C651 1.410 . S
C652 C653 1.392 . S
C652 C655 1.511 . S
C653 C649 1.376 . S
C653 C652 1.392 . S
C653 H665 0.929 . S
C654 C650 1.531 . S
C654 H666 0.960 . S
C654 H667 0.962 . S
C654 H668 0.960 . S
C655 C652 1.511 . S
C655 H669 0.961 . S
C655 H670 0.961 . S
C655 H671 0.961 . S
C656 C657 1.370 . S
C656 C658 1.363 . S
C656 H672 0.931 . S
C657 C656 1.370 . S
C657 C661 1.408 . S
C658 C656 1.363 . S
C658 C659 1.370 . S
C658 C662 1.524 . S
C659 C651 1.503 . S
C659 C658 1.370 . S
C659 C660 1.403 . S
C660 C659 1.403 . S
C660 C661 1.404 . S
C660 C663 1.539 . S
C661 C657 1.408 . S
C661 C660 1.404 . S
C661 H673 0.930 . S
C662 C658 1.524 . S
C662 H674 0.956 . S
C662 H675 0.961 . S
C662 H676 0.961 . S
C663 C660 1.539 . S
C663 H677 0.958 . S
C663 H678 0.961 . S
C663 H679 0.960 . S
H664 C648 0.931 . S
H665 C653 0.929 . S
H666 C654 0.960 . S
H667 C654 0.962 . S
H668 C654 0.960 . S
H669 C655 0.961 . S
H670 C655 0.961 . S
H671 C655 0.961 . S
H672 C656 0.931 . S
H673 C661 0.930 . S
H674 C662 0.956 . S
H675 C662 0.961 . S
H676 C662 0.961 . S
H677 C663 0.958 . S
H678 C663 0.961 . S
H679 C663 0.960 . S
C680 C681 1.391 . S
C680 C682 1.394 . S
C680 H696 0.931 . S
C681 C680 1.391 . S
C681 C685 1.376 . S
C682 C680 1.394 . S
C682 C683 1.369 . S
C682 C686 1.531 . S
C683 C682 1.369 . S
C683 C684 1.410 . S
C683 C691 1.503 . S
C684 C683 1.410 . S
C684 C685 1.392 . S
C684 C687 1.511 . S
C685 C681 1.376 . S
C685 C684 1.392 . S
C685 H697 0.929 . S
C686 C682 1.531 . S
C686 H698 0.960 . S
C686 H699 0.962 . S
C686 H700 0.960 . S
C687 C684 1.511 . S
C687 H701 0.961 . S
C687 H702 0.961 . S
C687 H703 0.961 . S
C688 C689 1.370 . S
C688 C690 1.363 . S
C688 H704 0.931 . S
C689 C688 1.370 . S
C689 C693 1.408 . S
C690 C688 1.363 . S
C690 C691 1.370 . S
C690 C694 1.524 . S
C691 C683 1.503 . S
C691 C690 1.370 . S
C691 C692 1.403 . S
C692 C691 1.403 . S
C692 C693 1.404 . S
C692 C695 1.539 . S
C693 C689 1.408 . S
C693 C692 1.404 . S
C693 H705 0.930 . S
C694 C690 1.524 . S
C694 H706 0.956 . S
C694 H707 0.961 . S
C694 H708 0.961 . S
C695 C692 1.539 . S
C695 H709 0.958 . S
C695 H710 0.961 . S
C695 H711 0.960 . S
H696 C680 0.931 . S
H697 C685 0.929 . S
H698 C686 0.960 . S
H699 C686 0.962 . S
H700 C686 0.960 . S
H701 C687 0.961 . S
H702 C687 0.961 . S
H703 C687 0.961 . S
H704 C688 0.931 . S
H705 C693 0.930 . S
H706 C694 0.956 . S
H707 C694 0.961 . S
H708 C694 0.961 . S
H709 C695 0.958 . S
H710 C695 0.961 . S
H711 C695 0.960 . S
C712 C713 1.391 . S
C712 C714 1.394 . S
C712 H728 0.931 . S
C713 C712 1.391 . S
C713 C717 1.376 . S
C714 C712 1.394 . S
C714 C715 1.369 . S
C714 C718 1.531 . S
C715 C714 1.369 . S
C715 C716 1.410 . S
C715 C723 1.503 . S
C716 C715 1.410 . S
C716 C717 1.392 . S
C716 C719 1.511 . S
C717 C713 1.376 . S
C717 C716 1.392 . S
C717 H729 0.929 . S
C718 C714 1.531 . S
C718 H730 0.960 . S
C718 H731 0.962 . S
C718 H732 0.960 . S
C719 C716 1.511 . S
C719 H733 0.961 . S
C719 H734 0.961 . S
C719 H735 0.961 . S
C720 C721 1.370 . S
C720 C722 1.363 . S
C720 H736 0.931 . S
C721 C720 1.370 . S
C721 C725 1.408 . S
C722 C720 1.363 . S
C722 C723 1.370 . S
C722 C726 1.524 . S
C723 C715 1.503 . S
C723 C722 1.370 . S
C723 C724 1.403 . S
C724 C723 1.403 . S
C724 C725 1.404 . S
C724 C727 1.539 . S
C725 C721 1.408 . S
C725 C724 1.404 . S
C725 H737 0.930 . S
C726 C722 1.524 . S
C726 H738 0.956 . S
C726 H739 0.961 . S
C726 H740 0.961 . S
C727 C724 1.539 . S
C727 H741 0.958 . S
C727 H742 0.961 . S
C727 H743 0.960 . S
H728 C712 0.931 . S
H729 C717 0.929 . S
H730 C718 0.960 . S
H731 C718 0.962 . S
H732 C718 0.960 . S
H733 C719 0.961 . S
H734 C719 0.961 . S
H735 C719 0.961 . S
H736 C720 0.931 . S
H737 C725 0.930 . S
H738 C726 0.956 . S
H739 C726 0.961 . S
H740 C726 0.961 . S
H741 C727 0.958 . S
H742 C727 0.961 . S
H743 C727 0.960 . S
C744 C745 1.391 . S
C744 C746 1.394 . S
C744 H760 0.931 . S
C745 C744 1.391 . S
C745 C749 1.376 . S
C746 C744 1.394 . S
C746 C747 1.369 . S
C746 C750 1.531 . S
C747 C746 1.369 . S
C747 C748 1.410 . S
C747 C755 1.503 . S
C748 C747 1.410 . S
C748 C749 1.392 . S
C748 C751 1.511 . S
C749 C745 1.376 . S
C749 C748 1.392 . S
C749 H761 0.929 . S
C750 C746 1.531 . S
C750 H762 0.960 . S
C750 H763 0.962 . S
C750 H764 0.960 . S
C751 C748 1.511 . S
C751 H765 0.961 . S
C751 H766 0.961 . S
C751 H767 0.961 . S
C752 C753 1.370 . S
C752 C754 1.363 . S
C752 H768 0.931 . S
C753 C752 1.370 . S
C753 C757 1.408 . S
C754 C752 1.363 . S
C754 C755 1.370 . S
C754 C758 1.524 . S
C755 C747 1.503 . S
C755 C754 1.370 . S
C755 C756 1.403 . S
C756 C755 1.403 . S
C756 C757 1.404 . S
C756 C759 1.539 . S
C757 C753 1.408 . S
C757 C756 1.404 . S
C757 H769 0.930 . S
C758 C754 1.524 . S
C758 H770 0.956 . S
C758 H771 0.961 . S
C758 H772 0.961 . S
C759 C756 1.539 . S
C759 H773 0.958 . S
C759 H774 0.961 . S
C759 H775 0.960 . S
H760 C744 0.931 . S
H761 C749 0.929 . S
H762 C750 0.960 . S
H763 C750 0.962 . S
H764 C750 0.960 . S
H765 C751 0.961 . S
H766 C751 0.961 . S
H767 C751 0.961 . S
H768 C752 0.931 . S
H769 C757 0.930 . S
H770 C758 0.956 . S
H771 C758 0.961 . S
H772 C758 0.961 . S
H773 C759 0.958 . S
H774 C759 0.961 . S
H775 C759 0.960 . S
C776 C777 1.391 . S
C776 C778 1.394 . S
C776 H792 0.931 . S
C777 C776 1.391 . S
C777 C781 1.376 . S
C778 C776 1.394 . S
C778 C779 1.369 . S
C778 C782 1.531 . S
C779 C778 1.369 . S
C779 C780 1.410 . S
C779 C787 1.503 . S
C780 C779 1.410 . S
C780 C781 1.392 . S
C780 C783 1.511 . S
C781 C777 1.376 . S
C781 C780 1.392 . S
C781 H793 0.929 . S
C782 C778 1.531 . S
C782 H794 0.960 . S
C782 H795 0.962 . S
C782 H796 0.960 . S
C783 C780 1.511 . S
C783 H797 0.961 . S
C783 H798 0.961 . S
C783 H799 0.961 . S
C784 C785 1.370 . S
C784 C786 1.363 . S
C784 H800 0.931 . S
C785 C784 1.370 . S
C785 C789 1.408 . S
C786 C784 1.363 . S
C786 C787 1.370 . S
C786 C790 1.524 . S
C787 C779 1.503 . S
C787 C786 1.370 . S
C787 C788 1.403 . S
C788 C787 1.403 . S
C788 C789 1.404 . S
C788 C791 1.539 . S
C789 C785 1.408 . S
C789 C788 1.404 . S
C789 H801 0.930 . S
C790 C786 1.524 . S
C790 H802 0.956 . S
C790 H803 0.961 . S
C790 H804 0.961 . S
C791 C788 1.539 . S
C791 H805 0.958 . S
C791 H806 0.961 . S
C791 H807 0.960 . S
H792 C776 0.931 . S
H793 C781 0.929 . S
H794 C782 0.960 . S
H795 C782 0.962 . S
H796 C782 0.960 . S
H797 C783 0.961 . S
H798 C783 0.961 . S
H799 C783 0.961 . S
H800 C784 0.931 . S
H801 C789 0.930 . S
H802 C790 0.956 . S
H803 C790 0.961 . S
H804 C790 0.961 . S
H805 C791 0.958 . S
H806 C791 0.961 . S
H807 C791 0.960 . S
C808 C809 1.391 1_554 S
C808 C810 1.394 . S
C808 H824 0.931 . S
C809 C808 1.391 1_556 S
C809 C813 1.376 . S
C810 C808 1.394 . S
C810 C811 1.369 1_554 S
C810 C814 1.531 . S
C811 C810 1.369 1_556 S
C811 C812 1.410 . S
C811 C819 1.504 . S
C812 C811 1.410 . S
C812 C813 1.392 . S
C812 C815 1.511 . S
C813 C809 1.376 . S
C813 C812 1.392 . S
C813 H825 0.929 . S
C814 C810 1.531 . S
C814 H826 0.960 . S
C814 H827 0.962 . S
C814 H828 0.960 . S
C815 C812 1.511 . S
C815 H829 0.961 . S
C815 H830 0.961 . S
C815 H831 0.961 . S
C816 C817 1.370 . S
C816 C818 1.363 . S
C816 H832 0.931 . S
C817 C816 1.370 . S
C817 C821 1.408 1_554 S
C818 C816 1.363 . S
C818 C819 1.369 1_554 S
C818 C822 1.524 . S
C819 C811 1.504 . S
C819 C818 1.369 1_556 S
C819 C820 1.403 . S
C820 C819 1.403 . S
C820 C821 1.404 . S
C820 C823 1.539 . S
C821 C817 1.408 1_556 S
C821 C820 1.404 . S
C821 H833 0.930 . S
C822 C818 1.524 . S
C822 H834 0.956 . S
C822 H835 0.961 1_554 S
C822 H836 0.961 . S
C823 C820 1.539 . S
C823 H837 0.958 . S
C823 H838 0.961 . S
C823 H839 0.960 . S
H824 C808 0.931 . S
H825 C813 0.929 . S
H826 C814 0.960 . S
H827 C814 0.962 . S
H828 C814 0.960 . S
H829 C815 0.961 . S
H830 C815 0.961 . S
H831 C815 0.961 . S
H832 C816 0.931 . S
H833 C821 0.930 . S
H834 C822 0.956 . S
H835 C822 0.961 1_556 S
H836 C822 0.961 . S
H837 C823 0.958 . S
H838 C823 0.961 . S
H839 C823 0.960 . S
C840 C841 1.391 . S
C840 C842 1.394 . S
C840 H856 0.931 . S
C841 C840 1.391 . S
C841 C845 1.376 . S
C842 C840 1.394 . S
C842 C843 1.369 . S
C842 C846 1.531 . S
C843 C842 1.369 . S
C843 C844 1.410 . S
C843 C851 1.503 . S
C844 C843 1.410 . S
C844 C845 1.392 . S
C844 C847 1.511 . S
C845 C841 1.376 . S
C845 C844 1.392 . S
C845 H857 0.929 . S
C846 C842 1.531 . S
C846 H858 0.960 . S
C846 H859 0.962 . S
C846 H860 0.960 . S
C847 C844 1.511 . S
C847 H861 0.961 . S
C847 H862 0.961 . S
C847 H863 0.961 . S
C848 C849 1.370 . S
C848 C850 1.363 . S
C848 H864 0.931 . S
C849 C848 1.370 . S
C849 C853 1.408 . S
C850 C848 1.363 . S
C850 C851 1.370 . S
C850 C854 1.524 . S
C851 C843 1.503 . S
C851 C850 1.370 . S
C851 C852 1.403 . S
C852 C851 1.403 . S
C852 C853 1.404 . S
C852 C855 1.539 . S
C853 C849 1.408 . S
C853 C852 1.404 . S
C853 H865 0.930 . S
C854 C850 1.524 . S
C854 H866 0.956 . S
C854 H867 0.961 . S
C854 H868 0.961 . S
C855 C852 1.539 . S
C855 H869 0.958 . S
C855 H870 0.961 . S
C855 H871 0.960 . S
H856 C840 0.931 . S
H857 C845 0.929 . S
H858 C846 0.960 . S
H859 C846 0.962 . S
H860 C846 0.960 . S
H861 C847 0.961 . S
H862 C847 0.961 . S
H863 C847 0.961 . S
H864 C848 0.931 . S
H865 C853 0.930 . S
H866 C854 0.956 . S
H867 C854 0.961 . S
H868 C854 0.961 . S
H869 C855 0.958 . S
H870 C855 0.961 . S
H871 C855 0.960 . S
C872 C873 1.391 . S
C872 C874 1.394 . S
C872 H888 0.931 . S
C873 C872 1.391 . S
C873 C877 1.376 . S
C874 C872 1.394 . S
C874 C875 1.369 . S
C874 C878 1.531 . S
C875 C874 1.369 . S
C875 C876 1.410 . S
C875 C883 1.503 . S
C876 C875 1.410 . S
C876 C877 1.392 . S
C876 C879 1.511 . S
C877 C873 1.376 . S
C877 C876 1.392 . S
C877 H889 0.929 . S
C878 C874 1.531 . S
C878 H890 0.960 . S
C878 H891 0.962 . S
C878 H892 0.960 . S
C879 C876 1.511 . S
C879 H893 0.961 . S
C879 H894 0.961 . S
C879 H895 0.961 . S
C880 C881 1.370 . S
C880 C882 1.363 . S
C880 H896 0.931 . S
C881 C880 1.370 . S
C881 C885 1.408 . S
C882 C880 1.363 . S
C882 C883 1.370 . S
C882 C886 1.524 . S
C883 C875 1.503 . S
C883 C882 1.370 . S
C883 C884 1.403 . S
C884 C883 1.403 . S
C884 C885 1.404 . S
C884 C887 1.539 . S
C885 C881 1.408 . S
C885 C884 1.404 . S
C885 H897 0.930 . S
C886 C882 1.524 . S
C886 H898 0.956 . S
C886 H899 0.961 . S
C886 H900 0.961 . S
C887 C884 1.539 . S
C887 H901 0.958 . S
C887 H902 0.961 . S
C887 H903 0.960 . S
H888 C872 0.931 . S
H889 C877 0.929 . S
H890 C878 0.960 . S
H891 C878 0.962 . S
H892 C878 0.960 . S
H893 C879 0.961 . S
H894 C879 0.961 . S
H895 C879 0.961 . S
H896 C880 0.931 . S
H897 C885 0.930 . S
H898 C886 0.956 . S
H899 C886 0.961 . S
H900 C886 0.961 . S
H901 C887 0.958 . S
H902 C887 0.961 . S
H903 C887 0.960 . S
C904 C905 1.391 1_556 S
C904 C906 1.394 . S
C904 H920 0.931 . S
C905 C904 1.391 1_554 S
C905 C909 1.376 . S
C906 C904 1.394 . S
C906 C907 1.369 1_556 S
C906 C910 1.531 . S
C907 C906 1.369 1_554 S
C907 C908 1.410 . S
C907 C915 1.503 1_554 S
C908 C907 1.410 . S
C908 C909 1.392 . S
C908 C911 1.511 . S
C909 C905 1.376 . S
C909 C908 1.392 . S
C909 H921 0.929 . S
C910 C906 1.531 . S
C910 H922 0.960 . S
C910 H923 0.962 . S
C910 H924 0.960 . S
C911 C908 1.511 . S
C911 H925 0.961 . S
C911 H926 0.961 . S
C911 H927 0.961 . S
C912 C913 1.370 . S
C912 C914 1.363 . S
C912 H928 0.931 . S
C913 C912 1.370 . S
C913 C917 1.408 1_556 S
C914 C912 1.363 . S
C914 C915 1.370 . S
C914 C918 1.524 . S
C915 C907 1.503 1_556 S
C915 C914 1.370 . S
C915 C916 1.403 1_556 S
C916 C915 1.403 1_554 S
C916 C917 1.404 . S
C916 C919 1.539 . S
C917 C913 1.408 1_554 S
C917 C916 1.404 . S
C917 H929 0.930 . S
C918 C914 1.524 . S
C918 H930 0.956 . S
C918 H931 0.961 1_556 S
C918 H932 0.961 . S
C919 C916 1.539 . S
C919 H933 0.958 1_554 S
C919 H934 0.961 . S
C919 H935 0.960 . S
H920 C904 0.931 . S
H921 C909 0.929 . S
H922 C910 0.960 . S
H923 C910 0.962 . S
H924 C910 0.960 . S
H925 C911 0.961 . S
H926 C911 0.961 . S
H927 C911 0.961 . S
H928 C912 0.931 . S
H929 C917 0.930 . S
H930 C918 0.956 . S
H931 C918 0.961 1_554 S
H932 C918 0.961 . S
H933 C919 0.958 1_556 S
H934 C919 0.961 . S
H935 C919 0.960 . S
C169 C0 1.326 . S
C177 C126 1.373 . S
C201 C14 1.358 . S
C209 C140 1.349 . S
C233 C28 1.390 . S
C241 C154 1.343 . S
C265 C42 1.318 . S
C273 C84 1.370 . S
C297 C98 1.370 . S
C305 C56 1.345 . S
C329 C112 1.386 . S
C337 C70 1.343 . S
C361 C151 1.772 . S
C369 C11 1.764 . S
C393 C25 1.742 . S
C401 C165 1.758 . S
C425 C39 1.772 . S
C433 C95 1.764 . S
C457 C53 1.753 . S
C465 C109 1.755 . S
C489 C67 1.746 . S
C497 C123 1.759 . S
C521 C81 1.736 . S
C529 C137 1.753 . S
C553 C149 0.951 . S
C561 C9 0.953 . S
C585 C23 0.951 . S
C593 C163 0.956 . S
C617 C37 0.948 . S
C625 C93 0.956 . S
C649 C51 0.955 . S
C657 C107 0.954 . S
C681 C65 0.952 . S
C689 C121 0.952 . S
C713 C79 0.956 . S
C721 C135 0.952 . S
C745 C5 1.631 . S
C753 C89 1.646 . S
C777 C103 1.642 . S
C785 C19 1.641 . S
C809 C33 1.635 . S
C817 C117 1.644 . S
C841 C47 1.635 . S
C849 C131 1.644 . S
C873 C61 1.639 . S
C881 C145 1.643 . S
C905 C159 1.636 . S
C913 C75 1.644 . S
