# Generated by pormake.
# Topology wjf, (4)-cn, num edge types: 1
# Building blocks:
#     Node 0, Type 0, BuildingBlock: CEKHIL_clean_sbu_0, # of connection points: 4
#     Node 1, Type 0, BuildingBlock: CEKHIL_clean_sbu_0, # of connection points: 4
#     Node 2, Type 0, BuildingBlock: CEKHIL_clean_sbu_0, # of connection points: 4
#     Node 3, Type 0, BuildingBlock: CEKHIL_clean_sbu_0, # of connection points: 4
#     Node 4, Type 0, BuildingBlock: CEKHIL_clean_sbu_0, # of connection points: 4
#     Node 5, Type 0, BuildingBlock: CEKHIL_clean_sbu_0, # of connection points: 4
#     Node 6, Type 0, BuildingBlock: CEKHIL_clean_sbu_0, # of connection points: 4
#     Node 7, Type 0, BuildingBlock: CEKHIL_clean_sbu_0, # of connection points: 4
#     Node 8, Type 0, BuildingBlock: CEKHIL_clean_sbu_0, # of connection points: 4
#     Node 9, Type 0, BuildingBlock: CEKHIL_clean_sbu_0, # of connection points: 4
#     Node 10, Type 0, BuildingBlock: CEKHIL_clean_sbu_0, # of connection points: 4
#     Node 11, Type 0, BuildingBlock: CEKHIL_clean_sbu_0, # of connection points: 4
#     Edge 12, Type (0, 0), BuildingBlock: EZIPEK_clean_linker_0, # of connection points: 2
#     Edge 13, Type (0, 0), BuildingBlock: EZIPEK_clean_linker_0, # of connection points: 2
#     Edge 14, Type (0, 0), BuildingBlock: EZIPEK_clean_linker_0, # of connection points: 2
#     Edge 15, Type (0, 0), BuildingBlock: EZIPEK_clean_linker_0, # of connection points: 2
#     Edge 16, Type (0, 0), BuildingBlock: EZIPEK_clean_linker_0, # of connection points: 2
#     Edge 17, Type (0, 0), BuildingBlock: EZIPEK_clean_linker_0, # of connection points: 2
#     Edge 18, Type (0, 0), BuildingBlock: EZIPEK_clean_linker_0, # of connection points: 2
#     Edge 19, Type (0, 0), BuildingBlock: EZIPEK_clean_linker_0, # of connection points: 2
#     Edge 20, Type (0, 0), BuildingBlock: EZIPEK_clean_linker_0, # of connection points: 2
#     Edge 21, Type (0, 0), BuildingBlock: EZIPEK_clean_linker_0, # of connection points: 2
#     Edge 22, Type (0, 0), BuildingBlock: EZIPEK_clean_linker_0, # of connection points: 2
#     Edge 23, Type (0, 0), BuildingBlock: EZIPEK_clean_linker_0, # of connection points: 2
#     Edge 24, Type (0, 0), BuildingBlock: EZIPEK_clean_linker_0, # of connection points: 2
#     Edge 25, Type (0, 0), BuildingBlock: EZIPEK_clean_linker_0, # of connection points: 2
#     Edge 26, Type (0, 0), BuildingBlock: EZIPEK_clean_linker_0, # of connection points: 2
#     Edge 27, Type (0, 0), BuildingBlock: EZIPEK_clean_linker_0, # of connection points: 2
#     Edge 28, Type (0, 0), BuildingBlock: EZIPEK_clean_linker_0, # of connection points: 2
#     Edge 29, Type (0, 0), BuildingBlock: EZIPEK_clean_linker_0, # of connection points: 2
#     Edge 30, Type (0, 0), BuildingBlock: EZIPEK_clean_linker_0, # of connection points: 2
#     Edge 31, Type (0, 0), BuildingBlock: EZIPEK_clean_linker_0, # of connection points: 2
#     Edge 32, Type (0, 0), BuildingBlock: EZIPEK_clean_linker_0, # of connection points: 2
#     Edge 33, Type (0, 0), BuildingBlock: EZIPEK_clean_linker_0, # of connection points: 2
#     Edge 34, Type (0, 0), BuildingBlock: EZIPEK_clean_linker_0, # of connection points: 2
#     Edge 35, Type (0, 0), BuildingBlock: EZIPEK_clean_linker_0, # of connection points: 2
# Relax obj value: 0.108
# Max RMSD: 0.131
# Mean RMSD: 0.131
data_MOF--net-wjf--node1-CEKHIL_clean_sbu_0--edge1-EZIPEK_clean_linker_0
_symmetry_space_group_name_H-M    P1
_symmetry_Int_Tables_number       1
_symmetry_cell_setting            triclinic
loop_
_symmetry_equiv_pos_as_xyz
'x, y, z'
_cell_length_a     37.220188
_cell_length_b     37.215922
_cell_length_c     19.591534
_cell_angle_alpha  89.965063
_cell_angle_beta   90.162523
_cell_angle_gamma 120.02302
loop_
_atom_site_label
_atom_site_type_symbol
_atom_site_fract_x
_atom_site_fract_y
_atom_site_fract_z
_atom_type_partial_charge
Co0 Co 0.32782 0.39253 0.10458 0.0
O1 O 0.26803 0.36168 0.09439 0.0
O2 O 0.30864 0.42655 0.06059 0.0
C3 C 0.33044 0.37376 0.21365 0.0
O4 O 0.39002 0.43508 0.10615 0.0
Co5 Co 0.37788 0.34741 0.13017 0.0
O6 O 0.42632 0.4046 0.1393 0.0
C7 C 0.34352 0.34484 0.99418 0.0
C8 C 0.27152 0.39445 0.06451 0.0
C9 C 0.42444 0.43667 0.12196 0.0
O10 O 0.3343 0.3723 0.01295 0.0
O11 O 0.35644 0.327 0.0353 0.0
O12 O 0.323 0.4038 0.2012 0.0
O13 O 0.33217 0.35406 0.16088 0.0
Co14 Co 0.94494 0.33175 0.41091 0.0
O15 O 0.91525 0.27197 0.40106 0.0
O16 O 0.88755 0.31204 0.3868 0.0
C17 C 0.97961 0.33658 0.50884 0.0
O18 O 0.96421 0.39369 0.41777 0.0
Co19 Co 0.03985 0.38132 0.39799 0.0
O20 O 0.03363 0.43109 0.40768 0.0
C21 C 0.99079 0.34097 0.27905 0.0
C22 C 0.8832 0.27517 0.38384 0.0
C23 C 0.99851 0.42857 0.41535 0.0
O24 O 0.95892 0.33667 0.31119 0.0
O25 O 0.02611 0.35389 0.30701 0.0
O26 O 0.94114 0.32798 0.51024 0.0
O27 O 0.9942 0.33704 0.44882 0.0
Co28 Co 0.628 0.94178 0.76598 0.0
O29 O 0.65252 0.90749 0.7495 0.0
O30 O 0.5893 0.89202 0.71679 0.0
C31 C 0.64655 0.9564 0.87784 0.0
O32 O 0.59195 0.96855 0.7751 0.0
Co33 Co 0.68447 0.03534 0.80161 0.0
O34 O 0.63087 0.03429 0.81332 0.0
C35 C 0.6782 0.00806 0.65935 0.0
C36 C 0.61807 0.88196 0.71883 0.0
C37 C 0.59621 1.00344 0.7952 0.0
O38 O 0.64996 0.97142 0.67683 0.0
O39 O 0.69922 0.03712 0.70225 0.0
O40 O 0.61464 0.92146 0.85948 0.0
O41 O 0.6686 0.97899 0.82728 0.0
Co42 Co 0.68367 0.61351 0.09584 0.0
O43 O 0.74275 0.63778 0.08174 0.0
O44 O 0.69564 0.57317 0.05491 0.0
C45 C 0.68479 0.63614 0.20286 0.0
O46 O 0.62049 0.57772 0.10435 0.0
Co47 Co 0.64641 0.67166 0.11411 0.0
O48 O 0.59277 0.61881 0.12062 0.0
C49 C 0.6713 0.6603 0.97836 0.0
C50 C 0.73437 0.60237 0.05561 0.0
C51 C 0.58912 0.58305 0.11386 0.0
O52 O 0.67732 0.63159 0.00203 0.0
O53 O 0.6624 0.68301 0.01545 0.0
O54 O 0.68954 0.60425 0.19257 0.0
O55 O 0.68589 0.65649 0.14872 0.0
Co56 Co 0.06847 0.68752 0.42612 0.0
O57 O 0.09849 0.74745 0.4196 0.0
O58 O 0.12324 0.70665 0.38929 0.0
C59 C 0.04269 0.68181 0.53272 0.0
O60 O 0.04788 0.62521 0.42456 0.0
Co61 Co 0.97229 0.63778 0.43971 0.0
O62 O 0.98035 0.58941 0.45297 0.0
C63 C 0.00992 0.66669 0.30409 0.0
C64 C 0.12871 0.7439 0.39383 0.0
C65 C 0.01429 0.59091 0.4374 0.0
O66 O 0.04627 0.68291 0.33095 0.0
O67 O 0.97629 0.64902 0.33869 0.0
O68 O 0.08073 0.6902 0.52388 0.0
O69 O 0.02341 0.6821 0.47794 0.0
Co70 Co 0.40478 0.07146 0.76319 0.0
O71 O 0.3721 0.09833 0.75204 0.0
O72 O 0.44022 0.12912 0.7386 0.0
C73 C 0.37626 0.03711 0.86134 0.0
O74 O 0.44968 0.05524 0.77149 0.0
Co75 Co 0.36377 0.9767 0.75184 0.0
O76 O 0.42114 0.98612 0.75962 0.0
C77 C 0.36862 0.02399 0.63241 0.0
C78 C 0.40651 0.13137 0.73498 0.0
C79 C 0.45234 0.02207 0.76883 0.0
O80 O 0.39598 0.05653 0.66372 0.0
O81 O 0.34771 0.9887 0.66112 0.0
O82 O 0.40481 0.07613 0.86226 0.0
O83 O 0.36245 0.02149 0.80152 0.0
Co84 Co 0.61597 0.68018 0.56729 0.0
O85 O 0.64452 0.74006 0.57477 0.0
O86 O 0.57957 0.69774 0.60662 0.0
C87 C 0.63664 0.67667 0.46027 0.0
O88 O 0.5755 0.61758 0.56769 0.0
Co89 Co 0.66396 0.6323 0.54958 0.0
O90 O 0.60795 0.58374 0.53245 0.0
C91 C 0.6591 0.66348 0.68533 0.0
C92 C 0.61068 0.7354 0.60209 0.0
C93 C 0.57521 0.58404 0.55046 0.0
O94 O 0.63514 0.67597 0.66117 0.0
O95 O 0.67607 0.64752 0.64892 0.0
O96 O 0.60567 0.68305 0.46971 0.0
O97 O 0.65626 0.67671 0.51467 0.0
Co98 Co 0.93306 0.60068 0.89732 0.0
O99 O 0.90299 0.62998 0.91149 0.0
O100 O 0.87957 0.56415 0.9385 0.0
C101 C 0.95494 0.62411 0.79 0.0
O102 O 0.95394 0.55909 0.88954 0.0
Co103 Co 0.02837 0.64837 0.87461 0.0
O104 O 0.02119 0.59229 0.85885 0.0
C105 C 0.99486 0.64673 0.01077 0.0
C106 C 0.87374 0.5958 0.93778 0.0
C107 C 0.9874 0.55907 0.87244 0.0
O108 O 0.95887 0.61815 0.99065 0.0
O109 O 0.02566 0.66645 0.97045 0.0
O110 O 0.91772 0.59304 0.80014 0.0
O111 O 0.97586 0.64188 0.8444 0.0
Co112 Co 0.32501 0.94877 0.23924 0.0
O113 O 0.26589 0.91821 0.25515 0.0
O114 O 0.30995 0.89776 0.28762 0.0
C115 C 0.32346 0.9649 0.12927 0.0
O116 O 0.38757 0.97153 0.23092 0.0
Co117 Co 0.36872 0.04355 0.20321 0.0
O118 O 0.41967 0.03905 0.20037 0.0
C119 C 0.34505 0.01627 0.34429 0.0
C120 C 0.272 0.89057 0.28505 0.0
C121 C 0.42049 0.00624 0.21635 0.0
O122 O 0.33456 0.97894 0.32771 0.0
O123 O 0.35548 0.04588 0.30164 0.0
O124 O 0.3166 0.92814 0.1458 0.0
O125 O 0.32538 0.98812 0.17958 0.0
Co126 Co 0.39007 0.32373 0.57996 0.0
O127 O 0.36239 0.26438 0.59505 0.0
O128 O 0.4285 0.30846 0.6187 0.0
C129 C 0.36678 0.32447 0.47411 0.0
O130 O 0.42984 0.38623 0.56996 0.0
Co131 Co 0.33839 0.36796 0.56676 0.0
O132 O 0.3934 0.41933 0.56117 0.0
C133 C 0.34763 0.33977 0.70068 0.0
C134 C 0.39752 0.27062 0.61967 0.0
C135 C 0.42782 0.41971 0.564 0.0
O136 O 0.37429 0.33146 0.67465 0.0
O137 O 0.32666 0.35177 0.66533 0.0
O138 O 0.39691 0.31673 0.48288 0.0
O139 O 0.348 0.32511 0.52916 0.0
Co140 Co 0.06808 0.37885 0.88697 0.0
O141 O 0.09954 0.35152 0.90703 0.0
O142 O 0.11845 0.41614 0.9362 0.0
C143 C 0.05251 0.35924 0.77741 0.0
O144 O 0.04451 0.41778 0.87443 0.0
Co145 Co 0.97349 0.32596 0.84899 0.0
O146 O 0.97691 0.38089 0.84471 0.0
C147 C 1.0003 0.33091 0.99076 0.0
C148 C 0.12631 0.38582 0.93673 0.0
C149 C 0.00943 0.41513 0.85949 0.0
O150 O 0.03733 0.35883 0.97488 0.0
O151 O 0.97112 0.31088 0.94766 0.0
O152 O 0.08907 0.38977 0.79366 0.0
O153 O 0.02936 0.33866 0.82808 0.0
Co154 Co 0.6794 0.0709 0.24159 0.0
O155 O 0.73943 0.09935 0.24806 0.0
O156 O 0.70069 0.12709 0.27432 0.0
C157 C 0.67296 0.04118 0.13763 0.0
O158 O 0.61749 0.05273 0.24143 0.0
Co159 Co 0.62725 0.97515 0.23901 0.0
O160 O 0.57884 0.98345 0.22904 0.0
C161 C 0.66524 0.01709 0.3677 0.0
C162 C 0.7373 0.13082 0.27186 0.0
C163 C 0.58219 0.01909 0.23491 0.0
O164 O 0.6759 0.05192 0.33863 0.0
O165 O 0.64785 0.98241 0.33584 0.0
O166 O 0.68169 0.07959 0.14235 0.0
O167 O 0.6724 0.02347 0.19471 0.0
C168 C 0.37715 0.38755 0.31465 0.0
C169 C 0.33793 0.36297 0.28336 0.0
C170 C 0.31662 0.31363 0.37888 0.0
C171 C 0.3574 0.33637 0.40663 0.0
N172 N 0.42896 0.39091 0.39281 0.0
N173 N 0.27102 0.30071 0.28154 0.0
C174 C 0.38846 0.37193 0.37193 0.0
C175 C 0.30781 0.32543 0.31439 0.0
N176 N 0.40324 0.4266 0.29099 0.0
N177 N 0.28637 0.28056 0.4139 0.0
H178 H 0.26258 0.30953 0.23644 0.0
H179 H 0.24974 0.27064 0.29681 0.0
H180 H 0.29227 0.26862 0.45797 0.0
H181 H 0.25503 0.26595 0.40112 0.0
H182 H 0.43075 0.44778 0.3152 0.0
H183 H 0.39492 0.43936 0.25116 0.0
H184 H 0.45335 0.41334 0.36392 0.0
H185 H 0.43907 0.38277 0.43653 0.0
C186 C 0.03679 0.37876 0.59297 0.0
C187 C 1.00283 0.34006 0.57289 0.0
C188 C 0.00851 0.31131 0.68241 0.0
C189 C 0.03599 0.35222 0.70664 0.0
N190 N 0.06574 0.42615 0.68681 0.0
N191 N 0.9549 0.26847 0.60074 0.0
C192 C 0.04728 0.3864 0.6626 0.0
C193 C 0.98799 0.30599 0.61856 0.0
N194 N 0.06041 0.40786 0.54606 0.0
N195 N 1.00358 0.27761 0.71819 0.0
H196 H 0.9413 0.26245 0.55237 0.0
H197 H 0.93982 0.24408 0.63519 0.0
H198 H 0.02024 0.28011 0.76249 0.0
H199 H 0.98664 0.24735 0.69974 0.0
H200 H 0.08723 0.43549 0.55891 0.0
H201 H 0.05654 0.40142 0.49453 0.0
H202 H 0.07132 0.45121 0.65577 0.0
H203 H 0.07016 0.43356 0.73851 0.0
C204 C 0.62045 0.96412 0.99353 0.0
C205 C 0.65427 0.97222 0.95015 0.0
C206 C 0.70185 0.0226 0.03563 0.0
C207 C 0.66723 0.0197 0.07084 0.0
N208 N 0.59396 0.9949 0.07198 0.0
N209 N 0.72848 0.00601 0.93462 0.0
C210 C 0.62668 0.99253 0.04648 0.0
C211 C 0.69545 1.00071 0.97262 0.0
N212 N 0.58276 0.9288 0.98706 0.0
N213 N 0.74066 0.04551 0.06324 0.0
H214 H 0.72552 0.98595 0.89507 0.0
H215 H 0.75871 0.03018 0.94205 0.0
H216 H 0.74641 0.06287 0.10786 0.0
H217 H 0.76683 0.04562 0.04446 0.0
H218 H 0.55843 0.92115 0.02094 0.0
H219 H 0.57746 0.90395 0.95618 0.0
H220 H 0.56392 0.97802 0.05244 0.0
H221 H 0.59835 0.01795 0.10624 0.0
C222 C 0.69845 0.68617 0.29917 0.0
C223 C 0.67378 0.64589 0.27063 0.0
C224 C 0.62192 0.62877 0.36049 0.0
C225 C 0.64795 0.66761 0.3922 0.0
N226 N 0.71275 0.73228 0.39597 0.0
N227 N 0.61583 0.57585 0.28237 0.0
C228 C 0.6868 0.69601 0.36274 0.0
C229 C 0.63685 0.6162 0.304 0.0
N230 N 0.73313 0.71504 0.26552 0.0
N231 N 0.58223 0.60428 0.38294 0.0
H232 H 0.6234 0.56508 0.23893 0.0
H233 H 0.59218 0.55201 0.31043 0.0
H234 H 0.56981 0.61327 0.4222 0.0
H235 H 0.5603 0.57726 0.3585 0.0
H236 H 0.74945 0.74636 0.27849 0.0
H237 H 0.74485 0.70807 0.22238 0.0
H238 H 0.74349 0.75202 0.38212 0.0
H239 H 0.70415 0.74185 0.43998 0.0
C240 C 0.98547 0.61255 0.68397 0.0
C241 C 0.97368 0.6376 0.72101 0.0
C242 C 1.0052 0.69137 0.63219 0.0
C243 C 0.02098 0.668 0.59966 0.0
N244 N 0.03358 0.61035 0.6047 0.0
N245 N 0.97458 0.70243 0.73383 0.0
C246 C 0.01337 0.62983 0.62859 0.0
C247 C 0.98425 0.67756 0.69609 0.0
N248 N 0.96944 0.57182 0.70074 0.0
N249 N 0.01034 0.72681 0.60216 0.0
H250 H 0.95693 0.69233 0.77834 0.0
H251 H 0.98563 0.73362 0.72304 0.0
H252 H 0.02788 0.73937 0.55808 0.0
H253 H 0.99557 0.74267 0.61882 0.0
H254 H 0.97351 0.55081 0.67136 0.0
H255 H 0.94806 0.55808 0.73969 0.0
H256 H 0.03255 0.58481 0.62852 0.0
H257 H 0.05502 0.62238 0.56556 0.0
C258 C 0.35929 0.97136 0.01776 0.0
C259 C 0.33407 0.98122 0.05871 0.0
C260 C 0.33487 0.0273 0.96816 0.0
C261 C 0.35698 0.01426 0.92555 0.0
N262 N 0.37483 0.96138 0.90325 0.0
N263 N 0.28883 0.01034 0.06499 0.0
C264 C 0.36431 0.98234 0.94814 0.0
C265 C 0.31926 0.00696 0.03182 0.0
N266 N 0.38062 0.95372 0.04523 0.0
N267 N 0.3283 0.05865 0.94768 0.0
H268 H 0.27473 0.99398 0.10944 0.0
H269 H 0.27433 0.02567 0.04447 0.0
H270 H 0.33628 0.072 0.89926 0.0
H271 H 0.31682 0.07274 0.98006 0.0
H272 H 0.40231 0.94983 0.01749 0.0
H273 H 0.38122 0.94818 0.09715 0.0
H274 H 0.37749 0.93571 0.91682 0.0
H275 H 0.37474 0.966 0.85139 0.0
C276 C 0.16356 0.38129 0.04092 0.0
C277 C 0.16407 0.3899 0.97021 0.0
C278 C 0.23421 0.39967 0.96069 0.0
C279 C 0.23499 0.39411 0.03241 0.0
N280 N 0.20323 0.38614 0.14261 0.0
N281 N 0.20168 0.41361 0.86459 0.0
C282 C 0.20037 0.38662 0.07306 0.0
C283 C 0.2 0.40106 0.93069 0.0
N284 N 0.12757 0.36704 0.07702 0.0
N285 N 0.26502 0.40134 0.92058 0.0
H286 H 0.17692 0.41416 0.84051 0.0
H287 H 0.22863 0.42662 0.83539 0.0
H288 H 0.29036 0.39993 0.94007 0.0
H289 H 0.26373 0.4004 0.86747 0.0
H290 H 0.12365 0.35554 0.12656 0.0
H291 H 0.10043 0.36391 0.05573 0.0
H292 H 0.18084 0.38518 0.17548 0.0
H293 H 0.22977 0.39033 0.1679 0.0
C294 C 0.82433 0.20153 0.39455 0.0
C295 C 0.84472 0.23884 0.35628 0.0
C296 C 0.79224 0.20635 0.26529 0.0
C297 C 0.77445 0.16796 0.3005 0.0
N298 N 0.77666 0.12731 0.39492 0.0
N299 N 0.85269 0.27427 0.24903 0.0
C300 C 0.79153 0.16503 0.36393 0.0
C301 C 0.82977 0.24074 0.29013 0.0
N302 N 0.83505 0.20143 0.46136 0.0
N303 N 0.7734 0.21002 0.20783 0.0
H304 H 0.88086 0.29966 0.26385 0.0
H305 H 0.84586 0.2753 0.19773 0.0
H306 H 0.74721 0.18507 0.18597 0.0
H307 H 0.78196 0.23836 0.18461 0.0
H308 H 0.81847 0.17656 0.4943 0.0
H309 H 0.8582 0.22774 0.48601 0.0
H310 H 0.7909 0.12237 0.43684 0.0
H311 H 0.7518 0.10008 0.37583 0.0
C312 C 0.60604 0.80977 0.73135 0.0
C313 C 0.6121 0.84287 0.68805 0.0
C314 C 0.61058 0.80253 0.58758 0.0
C315 C 0.6089 0.77133 0.63141 0.0
N316 N 0.60939 0.74679 0.74533 0.0
N317 N 0.623 0.87285 0.57567 0.0
C318 C 0.60745 0.77518 0.70341 0.0
C319 C 0.61487 0.83972 0.61623 0.0
N320 N 0.59791 0.811 0.79909 0.0
N321 N 0.6069 0.79599 0.51861 0.0
H322 H 0.62489 0.89994 0.59456 0.0
H323 H 0.63039 0.87469 0.52412 0.0
H324 H 0.60379 0.76917 0.49611 0.0
H325 H 0.60358 0.81538 0.48403 0.0
H326 H 0.58869 0.78599 0.83211 0.0
H327 H 0.59689 0.83594 0.8213 0.0
H328 H 0.6137 0.75054 0.79792 0.0
H329 H 0.60973 0.72065 0.72725 0.0
C330 C 0.77509 0.60237 0.95329 0.0
C331 C 0.76762 0.59665 0.02463 0.0
C332 C 0.82948 0.58968 0.03919 0.0
C333 C 0.83598 0.59372 0.96746 0.0
N334 N 0.81147 0.59666 0.85485 0.0
N335 N 0.78292 0.57797 0.13406 0.0
C336 C 0.80775 0.59802 0.92411 0.0
C337 C 0.79339 0.58817 0.06713 0.0
N338 N 0.75175 0.61326 0.91368 0.0
N339 N 0.85881 0.58934 0.08095 0.0
H340 H 0.75704 0.57713 0.15621 0.0
H341 H 0.79773 0.56712 0.16617 0.0
H342 H 0.88538 0.58997 0.06261 0.0
H343 H 0.85853 0.59155 0.13389 0.0
H344 H 0.75885 0.62314 0.86329 0.0
H345 H 0.72648 0.61493 0.93248 0.0
H346 H 0.7895 0.59521 0.82027 0.0
H347 H 0.83493 0.59343 0.83178 0.0
C348 C 0.19451 0.81224 0.41175 0.0
C349 C 0.16665 0.78057 0.36656 0.0
C350 C 0.20825 0.82098 0.26814 0.0
C351 C 0.23674 0.85202 0.31343 0.0
N352 N 0.26021 0.87635 0.42778 0.0
N353 N 0.14853 0.75214 0.25268 0.0
C354 C 0.23084 0.84731 0.38517 0.0
C355 C 0.1741 0.78412 0.29502 0.0
N356 N 0.18586 0.80889 0.48006 0.0
N357 N 0.21342 0.82726 0.19916 0.0
H358 H 0.12157 0.72593 0.26914 0.0
H359 H 0.15489 0.75022 0.20157 0.0
H360 H 0.23928 0.85252 0.17745 0.0
H361 H 0.19132 0.80878 0.16303 0.0
H362 H 0.20188 0.83263 0.51521 0.0
H363 H 0.16109 0.78261 0.50182 0.0
H364 H 0.26041 0.87311 0.48048 0.0
H365 H 0.28615 0.90324 0.41013 0.0
C366 C 0.39295 0.19096 0.74769 0.0
C367 C 0.40649 0.16857 0.70661 0.0
C368 C 0.41345 0.21282 0.60799 0.0
C369 C 0.40162 0.23617 0.64989 0.0
N370 N 0.38561 0.25188 0.76112 0.0
N371 N 0.43329 0.16003 0.59923 0.0
C372 C 0.39287 0.22644 0.7202 0.0
C373 C 0.41807 0.18024 0.63731 0.0
N374 N 0.37987 0.17809 0.81297 0.0
N375 N 0.41888 0.22097 0.53949 0.0
H376 H 0.43415 0.13397 0.6162 0.0
H377 H 0.44719 0.17018 0.55176 0.0
H378 H 0.41699 0.24534 0.51676 0.0
H379 H 0.42269 0.20231 0.50413 0.0
H380 H 0.36461 0.18939 0.84279 0.0
H381 H 0.3824 0.15436 0.83671 0.0
H382 H 0.38339 0.24946 0.81403 0.0
H383 H 0.3847 0.27767 0.74265 0.0
C384 C 0.30614 0.31725 0.81027 0.0
C385 C 0.3448 0.33956 0.77612 0.0
C386 C 0.38123 0.35353 0.88516 0.0
C387 C 0.34294 0.33699 0.92011 0.0
N388 N 0.26848 0.30624 0.91632 0.0
N389 N 0.41783 0.3898 0.78391 0.0
C390 C 0.30516 0.31986 0.88273 0.0
C391 C 0.38205 0.36063 0.81434 0.0
N392 N 0.27079 0.29239 0.77414 0.0
N393 N 0.41695 0.36281 0.919 0.0
H394 H 0.41845 0.39912 0.73358 0.0
H395 H 0.44511 0.40858 0.81093 0.0
H396 H 0.41783 0.35683 0.97064 0.0
H397 H 0.44487 0.37188 0.89389 0.0
H398 H 0.24247 0.27241 0.79714 0.0
H399 H 0.27053 0.28892 0.7213 0.0
H400 H 0.24066 0.29814 0.89144 0.0
H401 H 0.26637 0.30524 0.96947 0.0
C402 C 0.99525 0.3033 0.17725 0.0
C403 C 0.98753 0.33396 0.20507 0.0
C404 C 0.97592 0.35254 0.09104 0.0
C405 C 0.98988 0.32659 0.06326 0.0
N406 N 0.01528 0.27891 0.07759 0.0
N407 N 0.97675 0.39228 0.18895 0.0
C408 C 1.0 0.30214 0.10566 0.0
C409 C 0.97891 0.35947 0.16225 0.0
N410 N 0.99716 0.27492 0.21917 0.0
N411 N 0.96056 0.37115 0.0492 0.0
H412 H 0.98081 0.39973 0.24067 0.0
H413 H 0.97509 0.41462 0.15922 0.0
H414 H 0.95885 0.3676 0.99628 0.0
H415 H 0.94615 0.38709 0.0673 0.0
H416 H 0.9989 0.2495 0.20127 0.0
H417 H 0.99326 0.27469 0.27193 0.0
H418 H 0.02793 0.26437 0.10631 0.0
H419 H 0.01741 0.27611 0.02495 0.0
C420 C 0.69553 0.99433 0.54197 0.0
C421 C 0.68356 0.01711 0.58518 0.0
C422 C 0.65838 0.03829 0.4863 0.0
C423 C 0.67224 0.01739 0.44241 0.0
N424 N 0.71341 0.98437 0.42736 0.0
N425 N 0.66517 0.07071 0.59585 0.0
C426 C 0.69358 0.9979 0.46987 0.0
C427 C 0.66914 0.04262 0.55646 0.0
N428 N 0.70854 0.96911 0.56989 0.0
N429 N 0.63233 0.05144 0.46231 0.0
H430 H 0.67178 0.07463 0.64785 0.0
H431 H 0.65896 0.09291 0.5754 0.0
H432 H 0.62128 0.04666 0.41227 0.0
H433 H 0.61783 0.06281 0.49398 0.0
H434 H 0.71259 0.94773 0.54156 0.0
H435 H 0.71323 0.96809 0.62224 0.0
H436 H 0.73267 0.97345 0.44474 0.0
H437 H 0.71398 0.98781 0.37449 0.0
C438 C 0.70224 0.68747 0.79241 0.0
C439 C 0.6631 0.66316 0.76031 0.0
C440 C 0.62935 0.64129 0.87173 0.0
C441 C 0.66882 0.66303 0.90365 0.0
N442 N 0.74338 0.70214 0.89587 0.0
N443 N 0.59083 0.61022 0.76799 0.0
C444 C 0.70551 0.68473 0.8644 0.0
C445 C 0.62696 0.63832 0.79957 0.0
N446 N 0.73585 0.71426 0.75443 0.0
N447 N 0.59405 0.62354 0.9104 0.0
H448 H 0.58783 0.6063 0.71519 0.0
H449 H 0.56486 0.58795 0.79412 0.0
H450 H 0.59434 0.62351 0.96363 0.0
H451 H 0.56438 0.61154 0.88991 0.0
H452 H 0.76421 0.73596 0.77559 0.0
H453 H 0.73446 0.71706 0.70163 0.0
H454 H 0.77132 0.71426 0.86954 0.0
H455 H 0.74677 0.7019 0.94874 0.0
C456 C 0.02563 0.64346 0.19414 0.0
C457 C 0.007 0.66353 0.22865 0.0
C458 C 0.97955 0.67227 0.11973 0.0
C459 C 1.00133 0.65549 0.08497 0.0
N460 N 0.05222 0.63314 0.0883 0.0
N461 N 0.97194 0.70311 0.22395 0.0
C462 C 0.02684 0.64392 0.12187 0.0
C463 C 0.98539 0.67955 0.19138 0.0
N464 N 0.03979 0.62146 0.23012 0.0
N465 N 0.95331 0.68123 0.08432 0.0
H466 H 0.97631 0.70957 0.27609 0.0
H467 H 0.95969 0.71919 0.19859 0.0
H468 H 0.95048 0.67919 0.03129 0.0
H469 H 0.93264 0.68846 0.10775 0.0
H470 H 0.04918 0.60229 0.20709 0.0
H471 H 0.03794 0.61845 0.28305 0.0
H472 H 0.07483 0.62915 0.11293 0.0
H473 H 0.05358 0.63188 0.03541 0.0
C474 C 0.39218 0.04211 0.44377 0.0
C475 C 0.35158 0.02628 0.41716 0.0
C476 C 0.32372 0.01707 0.53254 0.0
C477 C 0.36316 0.02676 0.55865 0.0
N478 N 0.43333 0.04168 0.53881 0.0
N479 N 0.27802 0.99623 0.43404 0.0
C480 C 0.3972 0.03804 0.51435 0.0
C481 C 0.31708 0.01322 0.46094 0.0
N482 N 0.42584 0.06016 0.40148 0.0
N483 N 0.2931 0.01259 0.57605 0.0
H484 H 0.27246 0.99493 0.3816 0.0
H485 H 0.25116 0.98153 0.46339 0.0
H486 H 0.29721 0.01583 0.62885 0.0
H487 H 0.265 0.00936 0.5596 0.0
H488 H 0.45632 0.076 0.41928 0.0
H489 H 0.42348 0.06251 0.34884 0.0
H490 H 0.45754 0.04532 0.50762 0.0
H491 H 0.43746 0.03662 0.58976 0.0
C492 C 0.49455 0.47873 0.06659 0.0
C493 C 0.46454 0.47648 0.11387 0.0
C494 C 0.51664 0.54287 0.16331 0.0
C495 C 0.54626 0.54623 0.11403 0.0
N496 N 0.55809 0.52303 0.00549 0.0
N497 N 0.44392 0.51412 0.18946 0.0
C498 C 0.53382 0.51568 0.06194 0.0
C499 C 0.47451 0.51094 0.15664 0.0
N500 N 0.48528 0.44583 0.02489 0.0
N501 N 0.52871 0.56898 0.21826 0.0
H502 H 0.41254 0.49306 0.18215 0.0
H503 H 0.44939 0.54044 0.21668 0.0
H504 H 0.55923 0.59221 0.22687 0.0
H505 H 0.50909 0.56478 0.25909 0.0
H506 H 0.50746 0.44335 0.99613 0.0
H507 H 0.4556 0.42016 0.0214 0.0
H508 H 0.54855 0.5037 0.96285 0.0
H509 H 0.58576 0.5507 -0.00257 0.0
C510 C 0.03648 0.53905 0.46823 0.0
C511 C 0.01281 0.55056 0.42644 0.0
C512 C 0.97846 0.48076 0.37464 0.0
C513 C 0.99839 0.46826 0.42328 0.0
N514 N 0.03614 0.48254 0.52905 0.0
N515 N 0.96076 0.53239 0.33856 0.0
C516 C 0.02438 0.49659 0.47384 0.0
C517 C 0.98341 0.52126 0.37948 0.0
N518 N 0.07145 0.56838 0.5005 0.0
N519 N 0.95634 0.45479 0.3222 0.0
H520 H 0.96685 0.56287 0.33432 0.0
H521 H 0.93509 0.51123 0.31031 0.0
H522 H 0.95053 0.42444 0.31847 0.0
H523 H 0.94564 0.46392 0.28023 0.0
H524 H 0.09107 0.56117 0.52788 0.0
H525 H 0.08399 0.6 0.49192 0.0
H526 H 0.05247 0.50142 0.57031 0.0
H527 H 0.0245 0.45097 0.53737 0.0
C528 C 0.55244 0.02407 0.72725 0.0
C529 C 0.56019 0.01002 0.79006 0.0
C530 C 0.50152 0.0121 0.8429 0.0
C531 C 0.49299 0.02461 0.77935 0.0
N532 N 0.5154 0.05285 0.66711 0.0
N533 N 0.54214 0.98858 0.90675 0.0
C534 C 0.52008 0.03377 0.72328 0.0
C535 C 0.5349 1.00378 0.84795 0.0
N536 N 0.57496 0.02637 0.67069 0.0
N537 N 0.4785 0.00988 0.89869 0.0
H538 H 0.56674 0.9829 0.91184 0.0
H539 H 0.52301 0.97959 0.94934 0.0
H540 H 0.45576 0.01842 0.89664 0.0
H541 H 0.48361 1.00288 0.94785 0.0
H542 H 0.56852 0.03249 0.62174 0.0
H543 H 0.59844 0.01888 0.67159 0.0
H544 H 0.53599 0.06373 0.62633 0.0
H545 H 0.49289 0.06165 0.66441 0.0
C546 C 0.50056 0.53334 0.51912 0.0
C547 C 0.53641 0.54313 0.55825 0.0
C548 C 0.50045 0.47233 0.60599 0.0
C549 C 0.46685 0.46108 0.55959 0.0
N550 N 0.44093 0.47964 0.46001 0.0
N551 N 0.57118 0.52161 0.63892 0.0
C552 C 0.46865 0.49126 0.5128 0.0
C553 C 0.5366 0.51237 0.60125 0.0
N554 N 0.49605 0.564 0.48917 0.0
N555 N 0.49725 0.44603 0.65743 0.0
H556 H 0.59614 0.55166 0.64482 0.0
H557 H 0.57585 0.49914 0.66241 0.0
H558 H 0.47238 0.41617 0.66319 0.0
H559 H 0.51798 0.45489 0.69818 0.0
H560 H 0.46862 0.55852 0.46559 0.0
H561 H 0.5174 0.59541 0.49487 0.0
H562 H 0.44384 0.49961 0.42035 0.0
H563 H 0.41783 0.44908 0.45123 0.0
C564 C 0.96865 0.4888 0.82428 0.0
C565 C 0.98885 0.51964 0.87496 0.0
C566 C 0.01881 0.479 0.922 0.0
C567 C 1.00508 0.45288 0.86332 0.0
N568 N 0.97415 0.43972 0.75078 0.0
N569 N 0.03491 0.54487 0.97217 0.0
C570 C 0.98212 0.45981 0.81208 0.0
C571 C 0.01479 0.51512 0.9235 0.0
N572 N 0.93531 0.48569 0.78999 0.0
N573 N 0.03293 0.46805 0.97832 0.0
H574 H 0.02947 0.56948 0.97921 0.0
H575 H 0.0582 0.54599 0.00329 0.0
H576 H 0.03419 0.44078 0.98165 0.0
H577 H 0.03913 0.48373 0.02473 0.0
H578 H 0.91798 0.46194 0.75529 0.0
H579 H 0.92147 0.50291 0.80405 0.0
H580 H 0.96051 0.44653 0.70996 0.0
H581 H 0.98545 0.41996 0.73821 0.0
C582 C 0.51337 1.00032 0.28716 0.0
C583 C 0.54304 0.02079 0.23469 0.0
C584 C 0.49107 0.02782 0.16788 0.0
C585 C 0.46202 0.00955 0.2219 0.0
N586 N 0.44965 0.98837 0.34029 0.0
N587 N 0.56335 0.06471 0.13489 0.0
C588 C 0.47421 0.9984 0.28362 0.0
C589 C 0.53297 0.038 0.17817 0.0
N590 N 0.52271 0.98292 0.34087 0.0
N591 N 0.47835 0.0339 0.10558 0.0
H592 H 0.59459 0.07425 0.14191 0.0
H593 H 0.5582 0.08104 0.09655 0.0
H594 H 0.44777 0.02592 0.09509 0.0
H595 H 0.49715 0.04295 0.06243 0.0
H596 H 0.50066 0.96295 0.37575 0.0
H597 H 0.5522 0.98684 0.34878 0.0
H598 H 0.45912 0.98463 0.38854 0.0
H599 H 0.42139 0.9878 0.34109 0.0
loop_
_geom_bond_atom_site_label_1
_geom_bond_atom_site_label_2
_geom_bond_distance
_geom_bond_site_symmetry_2
_ccdc_geom_bond_type
Co0 O1 2.216 . S
Co0 O2 2.091 . S
Co0 O4 2.004 . S
Co0 O10 2.021 1_554 S
Co0 O12 2.137 . S
Co0 O13 2.244 . S
O1 Co0 2.216 . S
O1 C8 1.247 . S
O2 Co0 2.091 . S
O2 C8 1.261 . S
C3 O12 1.247 . S
C3 O13 1.272 . S
O4 Co0 2.004 . S
O4 C9 1.259 . S
Co5 O6 2.061 . S
Co5 O11 2.052 1_554 S
Co5 O13 2.135 . S
O6 Co5 2.061 . S
O6 C9 1.235 . S
C7 O10 1.238 . S
C7 O11 1.241 . S
C8 O1 1.247 . S
C8 O2 1.261 . S
C9 O4 1.259 . S
C9 O6 1.235 . S
O10 Co0 2.021 1_556 S
O10 C7 1.238 . S
O11 Co5 2.052 1_556 S
O11 C7 1.241 . S
O12 Co0 2.137 . S
O12 C3 1.247 . S
O13 Co0 2.244 . S
O13 C3 1.272 . S
O13 Co5 2.135 . S
Co14 O15 2.216 . S
Co14 O16 2.091 . S
Co14 O18 2.004 . S
Co14 O24 2.021 . S
Co14 O26 2.137 . S
Co14 O27 2.244 1_655 S
O15 Co14 2.216 . S
O15 C22 1.247 . S
O16 Co14 2.091 . S
O16 C22 1.261 . S
C17 O26 1.247 . S
C17 O27 1.272 1_655 S
O18 Co14 2.004 . S
O18 C23 1.259 . S
Co19 O20 2.061 . S
Co19 O25 2.052 . S
Co19 O27 2.135 . S
O20 Co19 2.061 . S
O20 C23 1.235 1_455 S
C21 O24 1.238 1_455 S
C21 O25 1.241 . S
C22 O15 1.247 . S
C22 O16 1.261 . S
C23 O18 1.259 . S
C23 O20 1.235 1_655 S
O24 Co14 2.021 . S
O24 C21 1.238 1_655 S
O25 Co19 2.052 . S
O25 C21 1.241 . S
O26 Co14 2.137 . S
O26 C17 1.247 . S
O27 Co14 2.244 1_455 S
O27 C17 1.272 1_455 S
O27 Co19 2.135 . S
Co28 O29 2.216 . S
Co28 O30 2.091 . S
Co28 O32 2.004 . S
Co28 O38 2.021 . S
Co28 O40 2.137 . S
Co28 O41 2.244 1_565 S
O29 Co28 2.216 . S
O29 C36 1.247 . S
O30 Co28 2.091 . S
O30 C36 1.261 . S
C31 O40 1.247 . S
C31 O41 1.272 1_565 S
O32 Co28 2.004 . S
O32 C37 1.259 . S
Co33 O34 2.061 . S
Co33 O39 2.052 . S
Co33 O41 2.135 . S
O34 Co33 2.061 . S
O34 C37 1.235 1_545 S
C35 O38 1.238 1_545 S
C35 O39 1.241 . S
C36 O29 1.247 . S
C36 O30 1.261 . S
C37 O32 1.259 . S
C37 O34 1.235 1_565 S
O38 Co28 2.021 . S
O38 C35 1.238 1_565 S
O39 Co33 2.052 . S
O39 C35 1.241 . S
O40 Co28 2.137 . S
O40 C31 1.247 . S
O41 Co28 2.244 1_545 S
O41 C31 1.272 1_545 S
O41 Co33 2.135 . S
Co42 O43 2.216 . S
Co42 O44 2.091 . S
Co42 O46 2.004 . S
Co42 O52 2.021 1_554 S
Co42 O54 2.137 . S
Co42 O55 2.244 . S
O43 Co42 2.216 . S
O43 C50 1.247 . S
O44 Co42 2.091 . S
O44 C50 1.261 . S
C45 O54 1.247 . S
C45 O55 1.272 . S
O46 Co42 2.004 . S
O46 C51 1.259 . S
Co47 O48 2.061 . S
Co47 O53 2.052 1_554 S
Co47 O55 2.135 . S
O48 Co47 2.061 . S
O48 C51 1.235 . S
C49 O52 1.238 . S
C49 O53 1.241 . S
C50 O43 1.247 . S
C50 O44 1.261 . S
C51 O46 1.259 . S
C51 O48 1.235 . S
O52 Co42 2.021 1_556 S
O52 C49 1.238 . S
O53 Co47 2.052 1_556 S
O53 C49 1.241 . S
O54 Co42 2.137 . S
O54 C45 1.247 . S
O55 Co42 2.244 . S
O55 C45 1.272 . S
O55 Co47 2.135 . S
Co56 O57 2.216 . S
Co56 O58 2.091 . S
Co56 O60 2.004 . S
Co56 O66 2.021 . S
Co56 O68 2.137 . S
Co56 O69 2.244 1_455 S
O57 Co56 2.216 . S
O57 C64 1.247 . S
O58 Co56 2.091 . S
O58 C64 1.261 . S
C59 O68 1.247 . S
C59 O69 1.272 1_455 S
O60 Co56 2.004 . S
O60 C65 1.259 . S
Co61 O62 2.061 . S
Co61 O67 2.052 . S
Co61 O69 2.135 . S
O62 Co61 2.061 . S
O62 C65 1.235 1_655 S
C63 O66 1.238 1_655 S
C63 O67 1.241 . S
C64 O57 1.247 . S
C64 O58 1.261 . S
C65 O60 1.259 . S
C65 O62 1.235 1_455 S
O66 Co56 2.021 . S
O66 C63 1.238 1_455 S
O67 Co61 2.052 . S
O67 C63 1.241 . S
O68 Co56 2.137 . S
O68 C59 1.247 . S
O69 Co56 2.244 1_655 S
O69 C59 1.272 1_655 S
O69 Co61 2.135 . S
Co70 O71 2.216 . S
Co70 O72 2.091 . S
Co70 O74 2.004 . S
Co70 O80 2.021 . S
Co70 O82 2.137 . S
Co70 O83 2.244 1_545 S
O71 Co70 2.216 . S
O71 C78 1.247 . S
O72 Co70 2.091 . S
O72 C78 1.261 . S
C73 O82 1.247 . S
C73 O83 1.272 1_545 S
O74 Co70 2.004 . S
O74 C79 1.259 . S
Co75 O76 2.061 . S
Co75 O81 2.052 . S
Co75 O83 2.135 . S
O76 Co75 2.061 . S
O76 C79 1.235 1_565 S
C77 O80 1.238 1_565 S
C77 O81 1.241 . S
C78 O71 1.247 . S
C78 O72 1.261 . S
C79 O74 1.259 . S
C79 O76 1.235 1_545 S
O80 Co70 2.021 . S
O80 C77 1.238 1_545 S
O81 Co75 2.052 . S
O81 C77 1.241 . S
O82 Co70 2.137 . S
O82 C73 1.247 . S
O83 Co70 2.244 1_565 S
O83 C73 1.272 1_565 S
O83 Co75 2.135 . S
Co84 O85 2.216 . S
Co84 O86 2.091 . S
Co84 O88 2.004 . S
Co84 O94 2.021 . S
Co84 O96 2.137 . S
Co84 O97 2.244 . S
O85 Co84 2.216 . S
O85 C92 1.247 . S
O86 Co84 2.091 . S
O86 C92 1.261 . S
C87 O96 1.247 . S
C87 O97 1.272 . S
O88 Co84 2.004 . S
O88 C93 1.259 . S
Co89 O90 2.061 . S
Co89 O95 2.052 . S
Co89 O97 2.135 . S
O90 Co89 2.061 . S
O90 C93 1.235 . S
C91 O94 1.238 . S
C91 O95 1.241 . S
C92 O85 1.247 . S
C92 O86 1.261 . S
C93 O88 1.259 . S
C93 O90 1.235 . S
O94 Co84 2.021 . S
O94 C91 1.238 . S
O95 Co89 2.052 . S
O95 C91 1.241 . S
O96 Co84 2.137 . S
O96 C87 1.247 . S
O97 Co84 2.244 . S
O97 C87 1.272 . S
O97 Co89 2.135 . S
Co98 O99 2.216 . S
Co98 O100 2.091 . S
Co98 O102 2.004 . S
Co98 O108 2.021 1_556 S
Co98 O110 2.137 . S
Co98 O111 2.244 1_655 S
O99 Co98 2.216 . S
O99 C106 1.247 . S
O100 Co98 2.091 . S
O100 C106 1.261 . S
C101 O110 1.247 . S
C101 O111 1.272 1_655 S
O102 Co98 2.004 . S
O102 C107 1.259 . S
Co103 O104 2.061 . S
Co103 O109 2.052 1_556 S
Co103 O111 2.135 . S
O104 Co103 2.061 . S
O104 C107 1.235 1_455 S
C105 O108 1.238 1_455 S
C105 O109 1.241 . S
C106 O99 1.247 . S
C106 O100 1.261 . S
C107 O102 1.259 . S
C107 O104 1.235 1_655 S
O108 Co98 2.021 1_554 S
O108 C105 1.238 1_655 S
O109 Co103 2.052 1_554 S
O109 C105 1.241 . S
O110 Co98 2.137 . S
O110 C101 1.247 . S
O111 Co98 2.244 1_455 S
O111 C101 1.272 1_455 S
O111 Co103 2.135 . S
Co112 O113 2.216 . S
Co112 O114 2.091 . S
Co112 O116 2.004 . S
Co112 O122 2.021 . S
Co112 O124 2.137 . S
Co112 O125 2.244 1_565 S
O113 Co112 2.216 . S
O113 C120 1.247 . S
O114 Co112 2.091 . S
O114 C120 1.261 . S
C115 O124 1.247 . S
C115 O125 1.272 1_565 S
O116 Co112 2.004 . S
O116 C121 1.259 . S
Co117 O118 2.061 . S
Co117 O123 2.052 . S
Co117 O125 2.135 . S
O118 Co117 2.061 . S
O118 C121 1.235 1_545 S
C119 O122 1.238 1_545 S
C119 O123 1.241 . S
C120 O113 1.247 . S
C120 O114 1.261 . S
C121 O116 1.259 . S
C121 O118 1.235 1_565 S
O122 Co112 2.021 . S
O122 C119 1.238 1_565 S
O123 Co117 2.052 . S
O123 C119 1.241 . S
O124 Co112 2.137 . S
O124 C115 1.247 . S
O125 Co112 2.244 1_545 S
O125 C115 1.272 1_545 S
O125 Co117 2.135 . S
Co126 O127 2.216 . S
Co126 O128 2.091 . S
Co126 O130 2.004 . S
Co126 O136 2.021 . S
Co126 O138 2.137 . S
Co126 O139 2.244 . S
O127 Co126 2.216 . S
O127 C134 1.247 . S
O128 Co126 2.091 . S
O128 C134 1.261 . S
C129 O138 1.247 . S
C129 O139 1.272 . S
O130 Co126 2.004 . S
O130 C135 1.259 . S
Co131 O132 2.061 . S
Co131 O137 2.052 . S
Co131 O139 2.135 . S
O132 Co131 2.061 . S
O132 C135 1.235 . S
C133 O136 1.238 . S
C133 O137 1.241 . S
C134 O127 1.247 . S
C134 O128 1.261 . S
C135 O130 1.259 . S
C135 O132 1.235 . S
O136 Co126 2.021 . S
O136 C133 1.238 . S
O137 Co131 2.052 . S
O137 C133 1.241 . S
O138 Co126 2.137 . S
O138 C129 1.247 . S
O139 Co126 2.244 . S
O139 C129 1.272 . S
O139 Co131 2.135 . S
Co140 O141 2.216 . S
Co140 O142 2.091 . S
Co140 O144 2.004 . S
Co140 O150 2.021 1_556 S
Co140 O152 2.137 . S
Co140 O153 2.244 1_455 S
O141 Co140 2.216 . S
O141 C148 1.247 . S
O142 Co140 2.091 . S
O142 C148 1.261 . S
C143 O152 1.247 . S
C143 O153 1.272 1_455 S
O144 Co140 2.004 . S
O144 C149 1.259 . S
Co145 O146 2.061 . S
Co145 O151 2.052 1_556 S
Co145 O153 2.135 . S
O146 Co145 2.061 . S
O146 C149 1.235 1_655 S
C147 O150 1.238 1_655 S
C147 O151 1.241 . S
C148 O141 1.247 . S
C148 O142 1.261 . S
C149 O144 1.259 . S
C149 O146 1.235 1_455 S
O150 Co140 2.021 1_554 S
O150 C147 1.238 1_455 S
O151 Co145 2.052 1_554 S
O151 C147 1.241 . S
O152 Co140 2.137 . S
O152 C143 1.247 . S
O153 Co140 2.244 1_655 S
O153 C143 1.272 1_655 S
O153 Co145 2.135 . S
Co154 O155 2.216 . S
Co154 O156 2.091 . S
Co154 O158 2.004 . S
Co154 O164 2.021 . S
Co154 O166 2.137 . S
Co154 O167 2.244 1_545 S
O155 Co154 2.216 . S
O155 C162 1.247 . S
O156 Co154 2.091 . S
O156 C162 1.261 . S
C157 O166 1.247 . S
C157 O167 1.272 1_545 S
O158 Co154 2.004 . S
O158 C163 1.259 . S
Co159 O160 2.061 . S
Co159 O165 2.052 . S
Co159 O167 2.135 . S
O160 Co159 2.061 . S
O160 C163 1.235 1_565 S
C161 O164 1.238 1_565 S
C161 O165 1.241 . S
C162 O155 1.247 . S
C162 O156 1.261 . S
C163 O158 1.259 . S
C163 O160 1.235 1_545 S
O164 Co154 2.021 . S
O164 C161 1.238 1_545 S
O165 Co159 2.052 . S
O165 C161 1.241 . S
O166 Co154 2.137 . S
O166 C157 1.247 . S
O167 Co154 2.244 1_565 S
O167 C157 1.272 1_565 S
O167 Co159 2.135 . S
C168 C169 1.363 . S
C168 C174 1.379 . S
C168 N176 1.356 . S
C169 C168 1.363 . S
C169 C175 1.363 . S
C170 C171 1.363 . S
C170 C175 1.379 . S
C170 N177 1.356 . S
C171 C170 1.363 . S
C171 C174 1.363 . S
N172 C174 1.356 . S
N172 H184 0.984 . S
N172 H185 0.985 . S
N173 C175 1.356 . S
N173 H178 0.984 . S
N173 H179 0.985 . S
C174 C168 1.379 . S
C174 C171 1.363 . S
C174 N172 1.356 . S
C175 C169 1.363 . S
C175 C170 1.379 . S
C175 N173 1.356 . S
N176 C168 1.356 . S
N176 H182 0.984 . S
N176 H183 0.984 . S
N177 C170 1.356 . S
N177 H180 0.984 . S
N177 H181 0.985 . S
H178 N173 0.984 . S
H179 N173 0.985 . S
H180 N177 0.984 . S
H181 N177 0.985 . S
H182 N176 0.984 . S
H183 N176 0.984 . S
H184 N172 0.984 . S
H185 N172 0.985 . S
C186 C187 1.363 1_455 S
C186 C192 1.379 . S
C186 N194 1.356 . S
C187 C186 1.363 1_655 S
C187 C193 1.363 . S
C188 C189 1.363 1_655 S
C188 C193 1.379 . S
C188 N195 1.356 . S
C189 C188 1.363 1_455 S
C189 C192 1.363 . S
N190 C192 1.356 . S
N190 H202 0.984 . S
N190 H203 0.985 . S
N191 C193 1.356 . S
N191 H196 0.984 . S
N191 H197 0.985 . S
C192 C186 1.379 . S
C192 C189 1.363 . S
C192 N190 1.356 . S
C193 C187 1.363 . S
C193 C188 1.379 . S
C193 N191 1.356 . S
N194 C186 1.356 . S
N194 H200 0.984 . S
N194 H201 0.984 . S
N195 C188 1.356 . S
N195 H198 0.984 . S
N195 H199 0.985 . S
H196 N191 0.984 . S
H197 N191 0.985 . S
H198 N195 0.984 . S
H199 N195 0.985 . S
H200 N194 0.984 . S
H201 N194 0.984 . S
H202 N190 0.984 . S
H203 N190 0.985 . S
C204 C205 1.363 . S
C204 C210 1.379 1_556 S
C204 N212 1.356 . S
C205 C204 1.363 . S
C205 C211 1.363 1_565 S
C206 C207 1.363 . S
C206 C211 1.379 1_554 S
C206 N213 1.356 . S
C207 C206 1.363 . S
C207 C210 1.363 1_545 S
N208 C210 1.356 . S
N208 H220 0.984 . S
N208 H221 0.985 . S
N209 C211 1.356 . S
N209 H214 0.984 . S
N209 H215 0.985 . S
C210 C204 1.379 1_554 S
C210 C207 1.363 1_565 S
C210 N208 1.356 . S
C211 C205 1.363 1_545 S
C211 C206 1.379 1_556 S
C211 N209 1.356 . S
N212 C204 1.356 . S
N212 H218 0.984 . S
N212 H219 0.984 . S
N213 C206 1.356 . S
N213 H216 0.984 . S
N213 H217 0.985 . S
H214 N209 0.984 . S
H215 N209 0.985 . S
H216 N213 0.984 . S
H217 N213 0.985 . S
H218 N212 0.984 . S
H219 N212 0.984 . S
H220 N208 0.984 . S
H221 N208 0.985 . S
C222 C223 1.363 . S
C222 C228 1.379 . S
C222 N230 1.356 . S
C223 C222 1.363 . S
C223 C229 1.363 . S
C224 C225 1.363 . S
C224 C229 1.379 . S
C224 N231 1.356 . S
C225 C224 1.363 . S
C225 C228 1.363 . S
N226 C228 1.356 . S
N226 H238 0.984 . S
N226 H239 0.985 . S
N227 C229 1.356 . S
N227 H232 0.984 . S
N227 H233 0.985 . S
C228 C222 1.379 . S
C228 C225 1.363 . S
C228 N226 1.356 . S
C229 C223 1.363 . S
C229 C224 1.379 . S
C229 N227 1.356 . S
N230 C222 1.356 . S
N230 H236 0.984 . S
N230 H237 0.984 . S
N231 C224 1.356 . S
N231 H234 0.984 . S
N231 H235 0.985 . S
H232 N227 0.984 . S
H233 N227 0.985 . S
H234 N231 0.984 . S
H235 N231 0.985 . S
H236 N230 0.984 . S
H237 N230 0.984 . S
H238 N226 0.984 . S
H239 N226 0.985 . S
C240 C241 1.363 . S
C240 C246 1.379 . S
C240 N248 1.356 . S
C241 C240 1.363 . S
C241 C247 1.363 1_655 S
C242 C243 1.363 . S
C242 C247 1.379 . S
C242 N249 1.356 . S
C243 C242 1.363 . S
C243 C246 1.363 1_455 S
N244 C246 1.356 . S
N244 H256 0.984 . S
N244 H257 0.985 1_655 S
N245 C247 1.356 . S
N245 H250 0.985 1_455 S
N245 H251 0.985 . S
C246 C240 1.379 . S
C246 C243 1.363 1_655 S
C246 N244 1.356 . S
C247 C241 1.363 1_455 S
C247 C242 1.379 . S
C247 N245 1.356 . S
N248 C240 1.356 . S
N248 H254 0.984 . S
N248 H255 0.984 . S
N249 C242 1.356 . S
N249 H252 0.984 . S
N249 H253 0.985 . S
H250 N245 0.985 1_655 S
H251 N245 0.985 . S
H252 N249 0.984 . S
H253 N249 0.985 . S
H254 N248 0.984 . S
H255 N248 0.984 . S
H256 N244 0.984 . S
H257 N244 0.985 1_455 S
C258 C259 1.363 . S
C258 C264 1.379 1_554 S
C258 N266 1.356 . S
C259 C258 1.363 . S
C259 C265 1.363 1_565 S
C260 C261 1.363 . S
C260 C265 1.379 1_556 S
C260 N267 1.356 . S
C261 C260 1.363 . S
C261 C264 1.363 1_545 S
N262 C264 1.356 . S
N262 H274 0.984 . S
N262 H275 0.985 . S
N263 C265 1.356 . S
N263 H268 0.984 . S
N263 H269 0.985 . S
C264 C258 1.379 1_556 S
C264 C261 1.363 1_565 S
C264 N262 1.356 . S
C265 C259 1.363 1_545 S
C265 C260 1.379 1_554 S
C265 N263 1.356 . S
N266 C258 1.356 . S
N266 H272 0.984 . S
N266 H273 0.984 . S
N267 C260 1.356 . S
N267 H270 0.984 . S
N267 H271 0.985 . S
H268 N263 0.984 . S
H269 N263 0.985 . S
H270 N267 0.984 . S
H271 N267 0.985 . S
H272 N266 0.984 . S
H273 N266 0.984 . S
H274 N262 0.984 . S
H275 N262 0.985 . S
C276 C277 1.363 1_554 S
C276 C282 1.379 . S
C276 N284 1.356 . S
C277 C276 1.363 1_556 S
C277 C283 1.363 . S
C278 C279 1.363 1_556 S
C278 C283 1.379 . S
C278 N285 1.356 . S
C279 C278 1.363 1_554 S
C279 C282 1.363 . S
N280 C282 1.356 . S
N280 H292 0.984 . S
N280 H293 0.985 . S
N281 C283 1.356 . S
N281 H286 0.984 . S
N281 H287 0.985 . S
C282 C276 1.379 . S
C282 C279 1.363 . S
C282 N280 1.356 . S
C283 C277 1.363 . S
C283 C278 1.379 . S
C283 N281 1.356 . S
N284 C276 1.356 . S
N284 H290 0.984 . S
N284 H291 0.984 1_554 S
N285 C278 1.356 . S
N285 H288 0.984 1_556 S
N285 H289 0.985 . S
H286 N281 0.984 . S
H287 N281 0.985 . S
H288 N285 0.984 1_554 S
H289 N285 0.985 . S
H290 N284 0.984 . S
H291 N284 0.984 1_556 S
H292 N280 0.984 . S
H293 N280 0.985 . S
C294 C295 1.363 . S
C294 C300 1.379 . S
C294 N302 1.356 . S
C295 C294 1.363 . S
C295 C301 1.363 . S
C296 C297 1.363 . S
C296 C301 1.379 . S
C296 N303 1.356 . S
C297 C296 1.363 . S
C297 C300 1.363 . S
N298 C300 1.356 . S
N298 H310 0.984 . S
N298 H311 0.985 . S
N299 C301 1.356 . S
N299 H304 0.984 . S
N299 H305 0.985 . S
C300 C294 1.379 . S
C300 C297 1.363 . S
C300 N298 1.356 . S
C301 C295 1.363 . S
C301 C296 1.379 . S
C301 N299 1.356 . S
N302 C294 1.356 . S
N302 H308 0.984 . S
N302 H309 0.984 . S
N303 C296 1.356 . S
N303 H306 0.984 . S
N303 H307 0.985 . S
H304 N299 0.984 . S
H305 N299 0.985 . S
H306 N303 0.984 . S
H307 N303 0.985 . S
H308 N302 0.984 . S
H309 N302 0.984 . S
H310 N298 0.984 . S
H311 N298 0.985 . S
C312 C313 1.363 . S
C312 C318 1.379 . S
C312 N320 1.356 . S
C313 C312 1.363 . S
C313 C319 1.363 . S
C314 C315 1.363 . S
C314 C319 1.379 . S
C314 N321 1.356 . S
C315 C314 1.363 . S
C315 C318 1.363 . S
N316 C318 1.356 . S
N316 H328 0.984 . S
N316 H329 0.985 . S
N317 C319 1.356 . S
N317 H322 0.984 . S
N317 H323 0.985 . S
C318 C312 1.379 . S
C318 C315 1.363 . S
C318 N316 1.356 . S
C319 C313 1.363 . S
C319 C314 1.379 . S
C319 N317 1.356 . S
N320 C312 1.356 . S
N320 H326 0.984 . S
N320 H327 0.984 . S
N321 C314 1.356 . S
N321 H324 0.984 . S
N321 H325 0.985 . S
H322 N317 0.984 . S
H323 N317 0.985 . S
H324 N321 0.984 . S
H325 N321 0.985 . S
H326 N320 0.984 . S
H327 N320 0.984 . S
H328 N316 0.984 . S
H329 N316 0.985 . S
C330 C331 1.363 1_556 S
C330 C336 1.379 . S
C330 N338 1.356 . S
C331 C330 1.363 1_554 S
C331 C337 1.363 . S
C332 C333 1.363 1_554 S
C332 C337 1.379 . S
C332 N339 1.356 . S
C333 C332 1.363 1_556 S
C333 C336 1.363 . S
N334 C336 1.356 . S
N334 H346 0.984 . S
N334 H347 0.985 . S
N335 C337 1.356 . S
N335 H340 0.984 . S
N335 H341 0.985 . S
C336 C330 1.379 . S
C336 C333 1.363 . S
C336 N334 1.356 . S
C337 C331 1.363 . S
C337 C332 1.379 . S
C337 N335 1.356 . S
N338 C330 1.356 . S
N338 H344 0.984 . S
N338 H345 0.984 1_556 S
N339 C332 1.356 . S
N339 H342 0.984 1_554 S
N339 H343 0.985 . S
H340 N335 0.984 . S
H341 N335 0.985 . S
H342 N339 0.984 1_556 S
H343 N339 0.985 . S
H344 N338 0.984 . S
H345 N338 0.984 1_554 S
H346 N334 0.984 . S
H347 N334 0.985 . S
C348 C349 1.363 . S
C348 C354 1.379 . S
C348 N356 1.356 . S
C349 C348 1.363 . S
C349 C355 1.363 . S
C350 C351 1.363 . S
C350 C355 1.379 . S
C350 N357 1.356 . S
C351 C350 1.363 . S
C351 C354 1.363 . S
N352 C354 1.356 . S
N352 H364 0.984 . S
N352 H365 0.985 . S
N353 C355 1.356 . S
N353 H358 0.984 . S
N353 H359 0.985 . S
C354 C348 1.379 . S
C354 C351 1.363 . S
C354 N352 1.356 . S
C355 C349 1.363 . S
C355 C350 1.379 . S
C355 N353 1.356 . S
N356 C348 1.356 . S
N356 H362 0.984 . S
N356 H363 0.984 . S
N357 C350 1.356 . S
N357 H360 0.984 . S
N357 H361 0.985 . S
H358 N353 0.984 . S
H359 N353 0.985 . S
H360 N357 0.984 . S
H361 N357 0.985 . S
H362 N356 0.984 . S
H363 N356 0.984 . S
H364 N352 0.984 . S
H365 N352 0.985 . S
C366 C367 1.363 . S
C366 C372 1.379 . S
C366 N374 1.356 . S
C367 C366 1.363 . S
C367 C373 1.363 . S
C368 C369 1.363 . S
C368 C373 1.379 . S
C368 N375 1.356 . S
C369 C368 1.363 . S
C369 C372 1.363 . S
N370 C372 1.356 . S
N370 H382 0.984 . S
N370 H383 0.985 . S
N371 C373 1.356 . S
N371 H376 0.984 . S
N371 H377 0.985 . S
C372 C366 1.379 . S
C372 C369 1.363 . S
C372 N370 1.356 . S
C373 C367 1.363 . S
C373 C368 1.379 . S
C373 N371 1.356 . S
N374 C366 1.356 . S
N374 H380 0.984 . S
N374 H381 0.984 . S
N375 C368 1.356 . S
N375 H378 0.984 . S
N375 H379 0.985 . S
H376 N371 0.984 . S
H377 N371 0.985 . S
H378 N375 0.984 . S
H379 N375 0.985 . S
H380 N374 0.984 . S
H381 N374 0.984 . S
H382 N370 0.984 . S
H383 N370 0.985 . S
C384 C385 1.363 . S
C384 C390 1.379 . S
C384 N392 1.356 . S
C385 C384 1.363 . S
C385 C391 1.363 . S
C386 C387 1.363 . S
C386 C391 1.379 . S
C386 N393 1.356 . S
C387 C386 1.363 . S
C387 C390 1.363 . S
N388 C390 1.356 . S
N388 H400 0.984 . S
N388 H401 0.985 . S
N389 C391 1.356 . S
N389 H394 0.984 . S
N389 H395 0.985 . S
C390 C384 1.379 . S
C390 C387 1.363 . S
C390 N388 1.356 . S
C391 C385 1.363 . S
C391 C386 1.379 . S
C391 N389 1.356 . S
N392 C384 1.356 . S
N392 H398 0.984 . S
N392 H399 0.984 . S
N393 C386 1.356 . S
N393 H396 0.984 . S
N393 H397 0.985 . S
H394 N389 0.984 . S
H395 N389 0.985 . S
H396 N393 0.984 . S
H397 N393 0.985 . S
H398 N392 0.984 . S
H399 N392 0.984 . S
H400 N388 0.984 . S
H401 N388 0.985 . S
C402 C403 1.363 . S
C402 C408 1.378 1_455 S
C402 N410 1.356 . S
C403 C402 1.363 . S
C403 C409 1.368 . S
C404 C405 1.363 . S
C404 C409 1.378 1_655 S
C404 N411 1.356 . S
C405 C404 1.363 . S
C405 C408 1.368 . S
N406 C408 1.354 . S
N406 H418 0.978 1_655 S
N406 H419 0.985 . S
N407 C409 1.353 . S
N407 H412 0.984 . S
N407 H413 0.978 1_455 S
C408 C402 1.378 1_655 S
C408 C405 1.368 . S
C408 N406 1.354 . S
C409 C403 1.368 . S
C409 C404 1.378 1_455 S
C409 N407 1.353 . S
N410 C402 1.356 . S
N410 H416 0.984 . S
N410 H417 0.984 . S
N411 C404 1.356 . S
N411 H414 0.984 . S
N411 H415 0.985 . S
H412 N407 0.984 . S
H413 N407 0.978 1_655 S
H414 N411 0.984 . S
H415 N411 0.985 . S
H416 N410 0.984 . S
H417 N410 0.984 . S
H418 N406 0.978 1_455 S
H419 N406 0.985 . S
C420 C421 1.363 1_565 S
C420 C426 1.379 . S
C420 N428 1.356 . S
C421 C420 1.363 1_545 S
C421 C427 1.363 . S
C422 C423 1.363 1_545 S
C422 C427 1.379 . S
C422 N429 1.356 . S
C423 C422 1.363 1_565 S
C423 C426 1.363 . S
N424 C426 1.356 . S
N424 H436 0.984 . S
N424 H437 0.985 . S
N425 C427 1.356 . S
N425 H430 0.984 . S
N425 H431 0.985 . S
C426 C420 1.379 . S
C426 C423 1.363 . S
C426 N424 1.356 . S
C427 C421 1.363 . S
C427 C422 1.379 . S
C427 N425 1.356 . S
N428 C420 1.356 . S
N428 H434 0.984 . S
N428 H435 0.984 . S
N429 C422 1.356 . S
N429 H432 0.984 . S
N429 H433 0.985 . S
H430 N425 0.984 . S
H431 N425 0.985 . S
H432 N429 0.984 . S
H433 N429 0.985 . S
H434 N428 0.984 . S
H435 N428 0.984 . S
H436 N424 0.984 . S
H437 N424 0.985 . S
C438 C439 1.363 . S
C438 C444 1.379 . S
C438 N446 1.356 . S
C439 C438 1.363 . S
C439 C445 1.363 . S
C440 C441 1.363 . S
C440 C445 1.379 . S
C440 N447 1.356 . S
C441 C440 1.363 . S
C441 C444 1.363 . S
N442 C444 1.356 . S
N442 H454 0.984 . S
N442 H455 0.985 . S
N443 C445 1.356 . S
N443 H448 0.984 . S
N443 H449 0.985 . S
C444 C438 1.379 . S
C444 C441 1.363 . S
C444 N442 1.356 . S
C445 C439 1.363 . S
C445 C440 1.379 . S
C445 N443 1.356 . S
N446 C438 1.356 . S
N446 H452 0.984 . S
N446 H453 0.984 . S
N447 C440 1.356 . S
N447 H450 0.984 . S
N447 H451 0.985 . S
H448 N443 0.984 . S
H449 N443 0.985 . S
H450 N447 0.984 . S
H451 N447 0.985 . S
H452 N446 0.984 . S
H453 N446 0.984 . S
H454 N442 0.984 . S
H455 N442 0.985 . S
C456 C457 1.363 1_455 S
C456 C462 1.379 . S
C456 N464 1.356 . S
C457 C456 1.363 1_655 S
C457 C463 1.363 . S
C458 C459 1.363 1_655 S
C458 C463 1.379 . S
C458 N465 1.356 . S
C459 C458 1.363 1_455 S
C459 C462 1.363 . S
N460 C462 1.356 . S
N460 H472 0.984 . S
N460 H473 0.985 . S
N461 C463 1.356 . S
N461 H466 0.984 . S
N461 H467 0.985 . S
C462 C456 1.379 . S
C462 C459 1.363 . S
C462 N460 1.356 . S
C463 C457 1.363 . S
C463 C458 1.379 . S
C463 N461 1.356 . S
N464 C456 1.356 . S
N464 H470 0.984 . S
N464 H471 0.984 1_455 S
N465 C458 1.356 . S
N465 H468 0.984 1_655 S
N465 H469 0.985 . S
H466 N461 0.984 . S
H467 N461 0.985 . S
H468 N465 0.984 1_455 S
H469 N465 0.985 . S
H470 N464 0.984 . S
H471 N464 0.984 1_655 S
H472 N460 0.984 . S
H473 N460 0.985 . S
C474 C475 1.363 . S
C474 C480 1.379 . S
C474 N482 1.356 . S
C475 C474 1.363 . S
C475 C481 1.363 1_545 S
C476 C477 1.363 . S
C476 C481 1.379 . S
C476 N483 1.356 . S
C477 C476 1.363 . S
C477 C480 1.363 1_565 S
N478 C480 1.356 . S
N478 H490 0.984 . S
N478 H491 0.985 . S
N479 C481 1.356 . S
N479 H484 0.984 . S
N479 H485 0.985 . S
C480 C474 1.379 . S
C480 C477 1.363 1_545 S
C480 N478 1.356 . S
C481 C475 1.363 1_565 S
C481 C476 1.379 . S
C481 N479 1.356 . S
N482 C474 1.356 . S
N482 H488 0.984 . S
N482 H489 0.984 . S
N483 C476 1.356 . S
N483 H486 0.984 . S
N483 H487 0.985 . S
H484 N479 0.984 . S
H485 N479 0.985 . S
H486 N483 0.984 . S
H487 N483 0.985 . S
H488 N482 0.984 . S
H489 N482 0.984 . S
H490 N478 0.984 . S
H491 N478 0.985 . S
C492 C493 1.363 . S
C492 C498 1.379 . S
C492 N500 1.356 1_554 S
C493 C492 1.363 . S
C493 C499 1.363 . S
C494 C495 1.363 . S
C494 C499 1.379 . S
C494 N501 1.356 . S
C495 C494 1.363 . S
C495 C498 1.363 . S
N496 C498 1.356 1_556 S
N496 H508 0.984 . S
N496 H509 0.985 . S
N497 C499 1.356 . S
N497 H502 0.984 . S
N497 H503 0.985 . S
C498 C492 1.379 . S
C498 C495 1.363 . S
C498 N496 1.356 1_554 S
C499 C493 1.363 . S
C499 C494 1.379 . S
C499 N497 1.356 . S
N500 C492 1.356 1_556 S
N500 H506 0.984 . S
N500 H507 0.985 . S
N501 C494 1.356 . S
N501 H504 0.984 . S
N501 H505 0.985 . S
H502 N497 0.984 . S
H503 N497 0.985 . S
H504 N501 0.984 . S
H505 N501 0.985 . S
H506 N500 0.984 . S
H507 N500 0.985 . S
H508 N496 0.984 . S
H509 N496 0.985 . S
C510 C511 1.363 . S
C510 C516 1.379 . S
C510 N518 1.356 . S
C511 C510 1.363 . S
C511 C517 1.363 1_455 S
C512 C513 1.363 . S
C512 C517 1.379 . S
C512 N519 1.356 . S
C513 C512 1.363 . S
C513 C516 1.363 1_655 S
N514 C516 1.356 . S
N514 H526 0.984 . S
N514 H527 0.985 . S
N515 C517 1.356 . S
N515 H520 0.984 . S
N515 H521 0.985 . S
C516 C510 1.379 . S
C516 C513 1.363 1_455 S
C516 N514 1.356 . S
C517 C511 1.363 1_655 S
C517 C512 1.379 . S
C517 N515 1.356 . S
N518 C510 1.356 . S
N518 H524 0.984 . S
N518 H525 0.984 . S
N519 C512 1.356 . S
N519 H522 0.984 . S
N519 H523 0.985 . S
H520 N515 0.984 . S
H521 N515 0.985 . S
H522 N519 0.984 . S
H523 N519 0.985 . S
H524 N518 0.984 . S
H525 N518 0.984 . S
H526 N514 0.984 . S
H527 N514 0.985 . S
C528 C529 1.363 1_545 S
C528 C534 1.379 . S
C528 N536 1.356 . S
C529 C528 1.363 1_565 S
C529 C535 1.363 . S
C530 C531 1.363 1_565 S
C530 C535 1.379 . S
C530 N537 1.356 . S
C531 C530 1.363 1_545 S
C531 C534 1.363 . S
N532 C534 1.356 . S
N532 H544 0.984 . S
N532 H545 0.985 . S
N533 C535 1.356 . S
N533 H538 0.984 . S
N533 H539 0.985 . S
C534 C528 1.379 . S
C534 C531 1.363 . S
C534 N532 1.356 . S
C535 C529 1.363 . S
C535 C530 1.379 . S
C535 N533 1.356 . S
N536 C528 1.356 . S
N536 H542 0.984 . S
N536 H543 0.984 . S
N537 C530 1.356 . S
N537 H540 0.984 . S
N537 H541 0.985 . S
H538 N533 0.984 . S
H539 N533 0.985 . S
H540 N537 0.984 . S
H541 N537 0.985 . S
H542 N536 0.984 . S
H543 N536 0.984 . S
H544 N532 0.984 . S
H545 N532 0.985 . S
C546 C547 1.363 . S
C546 C552 1.379 . S
C546 N554 1.356 . S
C547 C546 1.363 . S
C547 C553 1.363 . S
C548 C549 1.363 . S
C548 C553 1.379 . S
C548 N555 1.356 . S
C549 C548 1.363 . S
C549 C552 1.363 . S
N550 C552 1.356 . S
N550 H562 0.984 . S
N550 H563 0.985 . S
N551 C553 1.356 . S
N551 H556 0.984 . S
N551 H557 0.985 . S
C552 C546 1.379 . S
C552 C549 1.363 . S
C552 N550 1.356 . S
C553 C547 1.363 . S
C553 C548 1.379 . S
C553 N551 1.356 . S
N554 C546 1.356 . S
N554 H560 0.984 . S
N554 H561 0.984 . S
N555 C548 1.356 . S
N555 H558 0.984 . S
N555 H559 0.985 . S
H556 N551 0.984 . S
H557 N551 0.985 . S
H558 N555 0.984 . S
H559 N555 0.985 . S
H560 N554 0.984 . S
H561 N554 0.984 . S
H562 N550 0.984 . S
H563 N550 0.985 . S
C564 C565 1.363 . S
C564 C570 1.379 . S
C564 N572 1.356 . S
C565 C564 1.363 . S
C565 C571 1.363 1_655 S
C566 C567 1.363 . S
C566 C571 1.379 . S
C566 N573 1.356 1_556 S
C567 C566 1.363 . S
C567 C570 1.363 1_455 S
N568 C570 1.356 . S
N568 H580 0.984 . S
N568 H581 0.985 . S
N569 C571 1.356 1_554 S
N569 H574 0.985 . S
N569 H575 0.985 . S
C570 C564 1.379 . S
C570 C567 1.363 1_655 S
C570 N568 1.356 . S
C571 C565 1.363 1_455 S
C571 C566 1.379 . S
C571 N569 1.356 1_556 S
N572 C564 1.356 . S
N572 H578 0.984 . S
N572 H579 0.984 . S
N573 C566 1.356 1_554 S
N573 H576 0.985 . S
N573 H577 0.985 . S
H574 N569 0.985 . S
H575 N569 0.985 . S
H576 N573 0.985 . S
H577 N573 0.985 . S
H578 N572 0.984 . S
H579 N572 0.984 . S
H580 N568 0.984 . S
H581 N568 0.985 . S
C582 C583 1.363 1_565 S
C582 C588 1.379 . S
C582 N590 1.356 . S
C583 C582 1.363 1_545 S
C583 C589 1.363 . S
C584 C585 1.363 1_545 S
C584 C589 1.379 . S
C584 N591 1.356 . S
C585 C584 1.363 1_565 S
C585 C588 1.363 . S
N586 C588 1.356 . S
N586 H598 0.984 . S
N586 H599 0.985 . S
N587 C589 1.356 . S
N587 H592 0.984 . S
N587 H593 0.985 . S
C588 C582 1.379 . S
C588 C585 1.363 . S
C588 N586 1.356 . S
C589 C583 1.363 . S
C589 C584 1.379 . S
C589 N587 1.356 . S
N590 C582 1.356 . S
N590 H596 0.984 . S
N590 H597 0.984 . S
N591 C584 1.356 . S
N591 H594 0.984 . S
N591 H595 0.985 . S
H592 N587 0.984 . S
H593 N587 0.985 . S
H594 N591 0.984 . S
H595 N591 0.985 . S
H596 N590 0.984 . S
H597 N590 0.984 . S
H598 N586 0.984 . S
H599 N586 0.985 . S
C169 C3 1.522 . S
C171 C129 1.522 . S
C187 C17 1.522 . S
C189 C143 1.522 . S
C205 C31 1.522 . S
C207 C157 1.522 . S
C223 C45 1.522 . S
C225 C87 1.522 . S
C241 C101 1.522 . S
C243 C59 1.522 . S
C259 C115 1.522 . S
C261 C73 1.522 . S
C277 C148 1.590 . S
C279 C8 1.590 . S
C295 C22 1.590 . S
C297 C162 1.590 . S
C313 C36 1.590 . S
C315 C92 1.590 . S
C331 C50 1.590 . S
C333 C106 1.590 . S
C349 C64 1.590 . S
C351 C120 1.590 . S
C367 C78 1.590 . S
C369 C134 1.590 . S
C385 C133 1.054 . S
C387 C7 1.054 . S
C403 C21 1.054 . S
C405 C147 1.054 . S
C421 C35 1.054 . S
C423 C161 1.054 . S
C439 C91 1.054 . S
C441 C49 1.054 . S
C457 C63 1.054 . S
C459 C105 1.054 . S
C475 C119 1.054 . S
C477 C77 1.054 . S
C493 C9 1.506 . S
C495 C51 1.506 . S
C511 C65 1.506 . S
C513 C23 1.506 . S
C529 C37 1.506 . S
C531 C79 1.506 . S
C547 C93 1.506 . S
C549 C135 1.506 . S
C565 C107 1.506 . S
C567 C149 1.506 . S
C583 C163 1.506 . S
C585 C121 1.506 . S
