# Generated by pormake.
# Topology sma, (6)-cn, num edge types: 1
# Building blocks:
#     Node 0, Type 0, BuildingBlock: BETDIP_clean_sbu_0, # of connection points: 6
#     Node 1, Type 0, BuildingBlock: BETDIP_clean_sbu_0, # of connection points: 6
#     Node 2, Type 0, BuildingBlock: BETDIP_clean_sbu_0, # of connection points: 6
#     Edge 3, Type (0, 0), BuildingBlock: CIFDUS_clean_linker_0, # of connection points: 2
#     Edge 4, Type (0, 0), BuildingBlock: CIFDUS_clean_linker_0, # of connection points: 2
#     Edge 5, Type (0, 0), BuildingBlock: CIFDUS_clean_linker_0, # of connection points: 2
#     Edge 6, Type (0, 0), BuildingBlock: CIFDUS_clean_linker_0, # of connection points: 2
#     Edge 7, Type (0, 0), BuildingBlock: CIFDUS_clean_linker_0, # of connection points: 2
#     Edge 8, Type (0, 0), BuildingBlock: CIFDUS_clean_linker_0, # of connection points: 2
#     Edge 9, Type (0, 0), BuildingBlock: CIFDUS_clean_linker_0, # of connection points: 2
#     Edge 10, Type (0, 0), BuildingBlock: CIFDUS_clean_linker_0, # of connection points: 2
#     Edge 11, Type (0, 0), BuildingBlock: CIFDUS_clean_linker_0, # of connection points: 2
# Relax obj value: 0.065
# Max RMSD: 0.167
# Mean RMSD: 0.167
data_MOF--net-sma--node1-BETDIP_clean_sbu_0--edge1-CIFDUS_clean_linker_0
_symmetry_space_group_name_H-M    P1
_symmetry_Int_Tables_number       1
_symmetry_cell_setting            triclinic
loop_
_symmetry_equiv_pos_as_xyz
'x, y, z'
_cell_length_a     35.603378
_cell_length_b     35.646952
_cell_length_c     12.427446
_cell_angle_alpha  90.710912
_cell_angle_beta   89.79953
_cell_angle_gamma 119.93169
loop_
_atom_site_label
_atom_site_type_symbol
_atom_site_fract_x
_atom_site_fract_y
_atom_site_fract_z
_atom_type_partial_charge
Tb0 Tb 0.08778 0.57738 0.09535 0.0
Tb1 Tb 1.03593 0.48049 0.06054 0.0
C2 C 0.13311 0.65129 0.17949 0.0
C3 C 0.17741 0.68191 0.21689 0.0
C4 C 0.18262 0.70965 0.30346 0.0
C5 C 0.22389 0.74205 0.33519 0.0
C6 C 0.26095 0.74751 0.28073 0.0
C7 C 0.2558 0.71837 0.19681 0.0
C8 C 0.21429 0.6858 0.16498 0.0
C9 C 0.07488 0.55209 0.89308 0.0
C10 C 0.13629 0.52247 0.07981 0.0
C11 C 0.98561 0.40284 0.00621 0.0
C12 C 0.94603 0.36656 0.05406 0.0
C13 C 0.90487 0.35449 0.01209 0.0
C14 C 0.86745 0.32064 0.05781 0.0
C15 C 0.87034 0.29786 0.14617 0.0
C16 C 0.91155 0.30967 0.18735 0.0
C17 C 0.94891 0.34352 0.14188 0.0
C18 C 1.04515 0.50663 0.263 0.0
C19 C 0.99032 0.53779 0.03536 0.0
O20 O 0.11116 0.61594 0.23514 0.0
O21 O 0.12708 0.64429 0.07564 0.0
O22 O 0.08195 0.53347 -0.03095 0.0
O23 O 0.07922 0.58864 0.92688 0.0
O24 O 0.13748 0.55806 0.11757 0.0
O25 O 0.10076 0.49093 0.03438 0.0
O26 O 0.98238 0.43529 -0.03117 0.0
O27 O 1.02185 0.41603 0.05891 0.0
O28 O 1.03941 0.5245 0.18369 0.0
O29 O 1.04138 0.47036 0.23176 0.0
O30 O 0.99039 0.50152 0.01104 0.0
O31 O 1.02358 0.57066 0.08483 0.0
H32 H 0.15457 0.70695 0.34499 0.0
H33 H 0.22674 0.7634 0.40137 0.0
H34 H 0.28367 0.7218 0.15301 0.0
H35 H 0.21097 0.66451 0.09822 0.0
H36 H 0.90158 0.37126 0.94384 0.0
H37 H 0.83626 0.31194 0.02302 0.0
H38 H 0.91494 0.2931 0.25589 0.0
H39 H 0.98003 0.35171 0.17621 0.0
Tb40 Tb 0.57793 1.02416 0.40734 0.0
Tb41 Tb 0.53302 0.07651 0.38015 0.0
C42 C 0.60476 0.97676 0.48426 0.0
C43 C 0.59149 0.93092 0.50408 0.0
C44 C 0.56083 0.9066 0.58325 0.0
C45 C 0.55295 0.86514 0.60928 0.0
C46 C 0.57571 0.8473 0.55717 0.0
C47 C 0.6052 0.87116 0.47553 0.0
C48 C 0.6131 0.9125 0.44971 0.0
C49 C 0.56628 1.03864 0.2075 0.0
C50 C 0.4742 0.97614 0.38878 0.0
C51 C 0.50861 0.12919 0.33129 0.0
C52 C 0.51936 0.1721 0.37575 0.0
C53 C 0.53045 0.20677 0.30626 0.0
C54 C 0.54181 0.24781 0.34758 0.0
C55 C 0.54205 0.25491 0.45934 0.0
C56 C 0.53066 0.22007 0.52877 0.0
C57 C 0.5197 0.17917 0.48752 0.0
C58 C 0.54879 0.06508 0.58014 0.0
C59 C 0.6364 0.12255 0.36321 0.0
O60 O 0.58653 0.99434 0.5419 0.0
O61 O 0.61035 0.98916 0.38391 0.0
O62 O 0.54041 1.03116 0.28386 0.0
O63 O 0.59803 1.03338 0.23888 0.0
O64 O 0.50861 0.97429 0.4227 0.0
O65 O 0.47806 1.01237 0.35016 0.0
O66 O 0.53986 0.12704 0.28102 0.0
O67 O 0.4868 0.09619 0.39445 0.0
O68 O 0.57297 0.07176 0.50083 0.0
O69 O 0.51615 0.06878 0.55079 0.0
O70 O 0.60043 0.1233 0.341 0.0
O71 O 0.63546 0.08827 0.40613 0.0
H72 H 0.54382 0.91997 0.62726 0.0
H73 H 0.53023 0.84777 0.673 0.0
H74 H 0.6227 0.85811 0.43237 0.0
H75 H 0.63707 0.93057 0.38885 0.0
H76 H 0.53053 0.20214 0.21994 0.0
H77 H 0.55009 0.27395 0.29198 0.0
H78 H 0.53106 0.22463 0.61519 0.0
H79 H 0.51181 0.15318 0.54337 0.0
Tb80 Tb 0.53163 0.53488 0.73851 0.0
Tb81 Tb 0.62938 0.57461 0.72438 0.0
C82 C 0.45419 0.50835 0.79028 0.0
C83 C 0.42318 0.51952 0.83861 0.0
C84 C 0.43481 0.55187 0.9181 0.0
C85 C 0.40311 0.55975 -0.03653 0.0
C86 C 0.35949 0.53517 0.93025 0.0
C87 C 0.34862 0.50362 0.84892 0.0
C88 C 0.38005 0.4959 0.80395 0.0
C89 C 0.56073 0.53003 0.54726 0.0
C90 C 0.58811 0.6356 0.7044 0.0
C91 C 0.70996 0.6127 0.69774 0.0
C92 C 0.74599 0.60826 0.74415 0.0
C93 C 0.76321 0.58594 0.68735 0.0
C94 C 0.79686 0.58138 0.73149 0.0
C95 C 0.81436 0.59934 0.83316 0.0
C96 C 0.79745 0.62207 0.88934 0.0
C97 C 0.76377 0.62652 0.84545 0.0
C98 C 0.59538 0.55091 0.91744 0.0
C99 C 0.57172 0.47412 0.72037 0.0
O100 O 0.48229 0.50581 0.85357 0.0
O101 O 0.47055 0.52548 0.69694 0.0
O102 O 0.57896 0.56117 0.6127 0.0
O103 O 0.52281 0.50246 0.58298 0.0
O104 O 0.54983 0.60304 0.73222 0.0
O105 O 0.62223 0.63061 0.68888 0.0
O106 O 0.68241 0.58116 0.63446 0.0
O107 O 0.69054 0.62664 0.76339 0.0
O108 O 0.58433 0.56834 0.84696 0.0
O109 O 0.62817 0.54823 0.88297 0.0
O110 O 0.60785 0.50745 0.68452 0.0
O111 O 0.54075 0.47923 0.7659 0.0
H112 H 0.46807 0.57068 0.94545 0.0
H113 H 0.41248 0.58434 0.02581 0.0
H114 H 0.31563 0.48484 0.81951 0.0
H115 H 0.37052 0.47105 0.74212 0.0
H116 H 0.75066 0.57195 0.60865 0.0
H117 H 0.80957 0.56424 0.68529 0.0
H118 H 0.80986 0.63596 -0.03182 0.0
H119 H 0.75159 0.64417 0.89148 0.0
H120 H 0.22095 0.58825 0.0702 0.0
H121 H 0.14076 0.4491 0.07544 0.0
H122 H 0.20382 0.44118 0.04114 0.0
H123 H 0.27997 0.47298 -0.00668 0.0
H124 H 0.36089 0.61161 -0.02355 0.0
H125 H 0.29983 0.62062 0.03408 0.0
C126 C 0.21754 0.55629 0.06567 0.0
C127 C 0.17615 0.51928 0.07449 0.0
C128 C 0.25404 0.55186 0.0432 0.0
C129 C 0.17216 0.47806 0.06787 0.0
C130 C 0.2082 0.47347 0.04821 0.0
C131 C 0.28433 0.50523 0.00243 0.0
C132 C 0.32472 0.54152 -0.02112 0.0
C133 C 0.249 0.51003 0.03281 0.0
C134 C 0.33013 0.5831 -0.00603 0.0
C135 C 0.29512 0.58824 0.02618 0.0
H136 H 0.71537 0.12776 0.34411 0.0
H137 H 0.65159 0.20315 0.31329 0.0
H138 H 0.71826 0.26401 0.24598 0.0
H139 H 0.79389 0.29513 0.18863 0.0
H140 H 0.8575 0.21951 0.21403 0.0
H141 H 0.79203 0.15989 0.29149 0.0
C142 C 0.71621 0.1577 0.32404 0.0
C143 C 0.67841 0.16072 0.33372 0.0
C144 C 0.75465 0.19258 0.28366 0.0
C145 C 0.68007 0.19972 0.30637 0.0
C146 C 0.71822 0.23462 0.26757 0.0
C147 C 0.79337 0.26551 0.21048 0.0
C148 C 0.83057 0.26183 0.19497 0.0
C149 C 0.7555 0.2312 0.25426 0.0
C150 C 0.82951 0.22345 0.22581 0.0
C151 C 0.79198 0.18921 0.26973 0.0
H152 H 0.63883 0.82653 0.58325 0.0
H153 H 0.50048 0.7728 0.60748 0.0
H154 H 0.49214 0.70314 0.66041 0.0
H155 H 0.52413 0.65683 0.69402 0.0
H156 H 0.66263 0.71123 0.66488 0.0
H157 H 0.6707 0.78103 0.61877 0.0
C158 C 0.60675 0.79949 0.59898 0.0
C159 C 0.57031 0.80487 0.59042 0.0
C160 C 0.60218 0.75955 0.62852 0.0
C161 C 0.52913 0.7697 0.61392 0.0
C162 C 0.52432 0.72977 0.64376 0.0
C163 C 0.55612 0.684 0.67829 0.0
C164 C 0.59267 0.67855 0.68275 0.0
C165 C 0.56062 0.72425 0.65077 0.0
C166 C 0.63384 0.71423 0.66176 0.0
C167 C 0.63856 0.75429 0.63525 0.0
H168 H 0.82243 0.52721 0.83382 0.0
H169 H 0.88676 0.66069 0.93968 0.0
H170 H 0.94564 0.65307 0.01661 0.0
H171 H 0.9802 0.60905 0.0489 0.0
H172 H 0.9156 0.47566 0.9406 0.0
H173 H 0.85595 0.48289 0.86959 0.0
C174 C 0.84948 0.55474 0.87303 0.0
C175 C 0.85014 0.59449 0.88046 0.0
C176 C 0.88333 0.55018 0.91693 0.0
C177 C 0.88514 0.62958 0.93346 0.0
C178 C 0.91898 0.62532 -0.02285 0.0
C179 C 0.95293 0.58145 0.01061 0.0
C180 C 0.95266 0.54191 0.00026 0.0
C181 C 0.91854 0.5858 -0.031 0.0
C182 C 0.91695 0.50657 -0.0501 0.0
C183 C 0.8827 0.51063 0.90887 0.0
H184 H 0.45605 0.89191 0.3736 0.0
H185 H 0.39595 0.9713 0.38385 0.0
H186 H 0.325 0.90757 0.35501 0.0
H187 H 0.28035 0.83026 0.31756 0.0
H188 H 0.33898 0.74976 0.30123 0.0
H189 H 0.41016 0.81292 0.34022 0.0
C190 C 0.42732 0.89509 0.3708 0.0
C191 C 0.4313 0.93633 0.38081 0.0
C192 C 0.38642 0.8582 0.35183 0.0
C193 C 0.39383 0.94 0.37583 0.0
C194 C 0.3532 0.90357 0.35925 0.0
C195 C 0.30855 0.82631 0.32412 0.0
C196 C 0.30425 0.78526 0.30716 0.0
C197 C 0.34918 0.86265 0.34576 0.0
C198 C 0.34141 0.78104 0.31333 0.0
C199 C 0.38208 0.81711 0.33609 0.0
H200 H 0.61677 0.45181 0.58267 0.0
H201 H 0.50697 0.39672 0.79709 0.0
H202 H 0.48903 0.32385 0.73821 0.0
H203 H 0.50225 0.27599 0.61782 0.0
H204 H 0.61067 0.33215 0.39955 0.0
H205 H 0.63115 0.40446 0.46732 0.0
C206 C 0.58922 0.42394 0.6179 0.0
C207 C 0.56334 0.42983 0.69461 0.0
C208 C 0.57851 0.38229 0.58181 0.0
C209 C 0.52749 0.39319 0.7381 0.0
C210 C 0.51712 0.35149 0.70414 0.0
C211 C 0.53059 0.30406 0.58593 0.0
C212 C 0.55476 0.29868 0.50326 0.0
C213 C 0.54202 0.34568 0.62481 0.0
C214 C 0.59115 0.33542 0.46197 0.0
C215 C 0.60303 0.37676 0.50115 0.0
H216 H 1.05843 0.58865 0.72344 0.0
H217 H 0.07683 0.48217 0.81121 0.0
H218 H 0.06909 0.45878 0.62312 0.0
H219 H 1.05878 0.46955 0.43382 0.0
H220 H 1.03756 0.57409 0.34498 0.0
H221 H 1.04505 0.59766 0.53352 0.0
C222 C 1.06068 0.56033 0.70107 0.0
C223 C 0.06855 0.53733 0.78032 0.0
C224 C 1.05599 0.54697 0.5929 0.0
C225 C 0.07101 0.50046 0.75115 0.0
C226 C 1.06662 0.4871 0.64378 0.0
C227 C 1.05573 0.49746 0.45589 0.0
C228 C 1.04845 0.52059 0.37603 0.0
C229 C 1.0594 0.51028 0.56405 0.0
C230 C 1.04412 0.5564 0.40525 0.0
C231 C 1.04812 0.56968 0.51291 0.0
H232 H 0.61788 0.0519 0.03553 0.0
H233 H 0.49546 1.03936 0.13041 0.0
H234 H 0.47936 0.04641 0.9434 0.0
H235 H 0.49935 0.05447 0.75322 0.0
H236 H 0.62251 0.06927 0.65727 0.0
H237 H 0.63909 0.06263 0.84474 0.0
C238 C 0.58776 0.05081 0.01494 0.0
C239 C 0.5577 0.0448 0.09574 0.0
C240 C 0.5788 0.05497 0.90747 0.0
C241 C 0.51893 1.04375 0.06899 0.0
C242 C 0.5097 0.04773 -0.03771 0.0
C243 C 0.52982 0.05627 0.77351 0.0
C244 C 0.55945 0.06171 0.69217 0.0
C245 C 0.53926 0.05304 0.88096 0.0
C246 C 0.59897 0.06438 0.71893 0.0
C247 C 0.60852 0.06081 0.8259 0.0
H248 H 0.52173 0.54394 0.38195 0.0
H249 H 0.62599 0.52101 0.46332 0.0
H250 H 0.64442 0.52271 0.27235 0.0
H251 H 0.63105 0.53175 0.08342 0.0
H252 H 0.5308 0.56118 0.00398 0.0
H253 H 0.50996 0.5555 0.19321 0.0
C254 C 0.54846 0.5394 0.35706 0.0
C255 C 0.57265 0.53239 0.4345 0.0
C256 C 0.55921 0.54132 0.24816 0.0
C257 C 0.60735 0.52671 0.40365 0.0
C258 C 0.61769 0.52754 0.295 0.0
C259 C 0.60449 0.53665 0.10768 0.0
C260 C 0.58187 0.54606 0.03033 0.0
C261 C 0.59386 0.5349 0.21669 0.0
C262 C 0.54797 0.55299 0.0623 0.0
C263 C 0.53632 0.5501 0.17037 0.0
loop_
_geom_bond_atom_site_label_1
_geom_bond_atom_site_label_2
_geom_bond_distance
_geom_bond_site_symmetry_2
_ccdc_geom_bond_type
Tb0 C2 2.809 . S
Tb0 O20 2.484 . S
Tb0 O21 2.440 . S
Tb0 O22 2.658 1_455 S
Tb0 O23 2.409 1_554 S
Tb0 O24 2.378 . S
Tb0 O28 2.325 . S
Tb0 O31 2.341 1_455 S
Tb1 C11 2.809 . S
Tb1 O22 2.325 . S
Tb1 O25 2.341 1_655 S
Tb1 O26 2.484 . S
Tb1 O27 2.440 . S
Tb1 O28 2.658 1_655 S
Tb1 O29 2.409 . S
Tb1 O30 2.378 . S
C2 Tb0 2.809 . S
C2 C3 1.514 . S
C2 O20 1.248 . S
C2 O21 1.266 . S
C3 C2 1.514 . S
C3 C4 1.359 . S
C3 C8 1.348 . S
C4 C3 1.359 . S
C4 C5 1.380 . S
C4 H32 0.929 . S
C5 C4 1.380 . S
C5 C6 1.347 . S
C5 H33 0.931 . S
C6 C5 1.347 . S
C6 C7 1.369 . S
C7 C6 1.369 . S
C7 C8 1.408 . S
C7 H34 0.930 . S
C8 C3 1.348 . S
C8 C7 1.408 . S
C8 H35 0.930 . S
C9 O22 1.281 1_456 S
C9 O23 1.254 . S
C10 O24 1.236 . S
C10 O25 1.266 . S
C11 Tb1 2.809 . S
C11 C12 1.514 . S
C11 O26 1.248 . S
C11 O27 1.266 . S
C12 C11 1.514 . S
C12 C13 1.359 . S
C12 C17 1.348 . S
C13 C12 1.359 . S
C13 C14 1.380 . S
C13 H36 0.929 1_554 S
C14 C13 1.380 . S
C14 C15 1.347 . S
C14 H37 0.931 1_554 S
C15 C14 1.347 . S
C15 C16 1.369 . S
C16 C15 1.369 . S
C16 C17 1.408 . S
C16 H38 0.930 . S
C17 C12 1.348 . S
C17 C16 1.408 . S
C17 H39 0.930 . S
C18 O28 1.276 1_655 S
C18 O29 1.257 . S
C19 O30 1.236 . S
C19 O31 1.266 . S
O20 Tb0 2.484 . S
O20 C2 1.248 . S
O21 Tb0 2.440 . S
O21 C2 1.266 . S
O22 Tb0 2.658 1_655 S
O22 Tb1 2.325 . S
O22 C9 1.281 1_654 S
O23 Tb0 2.409 1_556 S
O23 C9 1.254 . S
O24 Tb0 2.378 . S
O24 C10 1.236 . S
O25 Tb1 2.341 1_455 S
O25 C10 1.266 . S
O26 Tb1 2.484 . S
O26 C11 1.248 . S
O27 Tb1 2.440 . S
O27 C11 1.266 . S
O28 Tb0 2.325 . S
O28 Tb1 2.658 1_455 S
O28 C18 1.276 1_455 S
O29 Tb1 2.409 . S
O29 C18 1.257 . S
O30 Tb1 2.378 . S
O30 C19 1.236 . S
O31 Tb0 2.341 1_655 S
O31 C19 1.266 . S
H32 C4 0.929 . S
H33 C5 0.931 . S
H34 C7 0.930 . S
H35 C8 0.930 . S
H36 C13 0.929 1_556 S
H37 C14 0.931 1_556 S
H38 C16 0.930 . S
H39 C17 0.930 . S
Tb40 C42 2.809 . S
Tb40 O60 2.484 . S
Tb40 O61 2.440 . S
Tb40 O62 2.658 1_565 S
Tb40 O63 2.409 . S
Tb40 O64 2.378 . S
Tb40 O68 2.325 . S
Tb40 O71 2.341 1_565 S
Tb41 C51 2.809 . S
Tb41 O62 2.325 . S
Tb41 O65 2.341 1_545 S
Tb41 O66 2.484 . S
Tb41 O67 2.440 . S
Tb41 O68 2.658 1_545 S
Tb41 O69 2.409 . S
Tb41 O70 2.378 . S
C42 Tb40 2.809 . S
C42 C43 1.514 . S
C42 O60 1.248 . S
C42 O61 1.266 . S
C43 C42 1.514 . S
C43 C44 1.359 . S
C43 C48 1.348 . S
C44 C43 1.359 . S
C44 C45 1.380 . S
C44 H72 0.929 . S
C45 C44 1.380 . S
C45 C46 1.347 . S
C45 H73 0.931 . S
C46 C45 1.347 . S
C46 C47 1.369 . S
C47 C46 1.369 . S
C47 C48 1.408 . S
C47 H74 0.930 . S
C48 C43 1.348 . S
C48 C47 1.408 . S
C48 H75 0.930 . S
C49 O62 1.278 1_565 S
C49 O63 1.259 . S
C50 O64 1.236 . S
C50 O65 1.266 . S
C51 Tb41 2.809 . S
C51 C52 1.514 . S
C51 O66 1.248 . S
C51 O67 1.266 . S
C52 C51 1.514 . S
C52 C53 1.359 . S
C52 C57 1.348 . S
C53 C52 1.359 . S
C53 C54 1.380 . S
C53 H76 0.929 . S
C54 C53 1.380 . S
C54 C55 1.347 . S
C54 H77 0.931 . S
C55 C54 1.347 . S
C55 C56 1.369 . S
C56 C55 1.369 . S
C56 C57 1.408 . S
C56 H78 0.930 . S
C57 C52 1.348 . S
C57 C56 1.408 . S
C57 H79 0.930 . S
C58 O68 1.281 1_545 S
C58 O69 1.254 . S
C59 O70 1.236 . S
C59 O71 1.266 . S
O60 Tb40 2.484 . S
O60 C42 1.248 . S
O61 Tb40 2.440 . S
O61 C42 1.266 . S
O62 Tb40 2.658 1_545 S
O62 Tb41 2.325 . S
O62 C49 1.278 1_545 S
O63 Tb40 2.409 . S
O63 C49 1.259 . S
O64 Tb40 2.378 . S
O64 C50 1.236 . S
O65 Tb41 2.341 1_565 S
O65 C50 1.266 . S
O66 Tb41 2.484 . S
O66 C51 1.248 . S
O67 Tb41 2.440 . S
O67 C51 1.266 . S
O68 Tb40 2.325 . S
O68 Tb41 2.658 1_565 S
O68 C58 1.281 1_565 S
O69 Tb41 2.409 . S
O69 C58 1.254 . S
O70 Tb41 2.378 . S
O70 C59 1.236 . S
O71 Tb40 2.341 1_545 S
O71 C59 1.266 . S
H72 C44 0.929 . S
H73 C45 0.931 . S
H74 C47 0.930 . S
H75 C48 0.930 . S
H76 C53 0.929 . S
H77 C54 0.931 . S
H78 C56 0.930 . S
H79 C57 0.930 . S
Tb80 C82 2.809 . S
Tb80 O100 2.484 . S
Tb80 O101 2.440 . S
Tb80 O102 2.658 . S
Tb80 O103 2.409 . S
Tb80 O104 2.378 . S
Tb80 O108 2.325 . S
Tb80 O111 2.341 . S
Tb81 C91 2.809 . S
Tb81 O102 2.325 . S
Tb81 O105 2.341 . S
Tb81 O106 2.484 . S
Tb81 O107 2.440 . S
Tb81 O108 2.658 . S
Tb81 O109 2.409 1_556 S
Tb81 O110 2.378 . S
C82 Tb80 2.809 . S
C82 C83 1.514 . S
C82 O100 1.248 . S
C82 O101 1.266 . S
C83 C82 1.514 . S
C83 C84 1.359 . S
C83 C88 1.348 . S
C84 C83 1.359 . S
C84 C85 1.380 . S
C84 H112 0.929 1_556 S
C85 C84 1.380 . S
C85 C86 1.347 . S
C85 H113 0.931 1_556 S
C86 C85 1.347 . S
C86 C87 1.369 . S
C87 C86 1.369 . S
C87 C88 1.408 . S
C87 H114 0.930 . S
C88 C83 1.348 . S
C88 C87 1.408 . S
C88 H115 0.930 . S
C89 O102 1.281 . S
C89 O103 1.254 . S
C90 O104 1.236 . S
C90 O105 1.266 . S
C91 Tb81 2.809 . S
C91 C92 1.514 . S
C91 O106 1.248 . S
C91 O107 1.266 . S
C92 C91 1.514 . S
C92 C93 1.359 . S
C92 C97 1.348 . S
C93 C92 1.359 . S
C93 C94 1.380 . S
C93 H116 0.929 . S
C94 C93 1.380 . S
C94 C95 1.347 . S
C94 H117 0.931 . S
C95 C94 1.347 . S
C95 C96 1.369 . S
C96 C95 1.369 . S
C96 C97 1.408 . S
C96 H118 0.930 . S
C97 C92 1.348 . S
C97 C96 1.408 . S
C97 H119 0.930 . S
C98 O108 1.281 1_554 S
C98 O109 1.254 . S
C99 O110 1.236 . S
C99 O111 1.266 . S
O100 Tb80 2.484 . S
O100 C82 1.248 . S
O101 Tb80 2.440 . S
O101 C82 1.266 . S
O102 Tb80 2.658 . S
O102 Tb81 2.325 . S
O102 C89 1.281 . S
O103 Tb80 2.409 . S
O103 C89 1.254 . S
O104 Tb80 2.378 . S
O104 C90 1.236 . S
O105 Tb81 2.341 . S
O105 C90 1.266 . S
O106 Tb81 2.484 . S
O106 C91 1.248 . S
O107 Tb81 2.440 . S
O107 C91 1.266 . S
O108 Tb80 2.325 . S
O108 Tb81 2.658 . S
O108 C98 1.281 1_556 S
O109 Tb81 2.409 1_554 S
O109 C98 1.254 . S
O110 Tb81 2.378 . S
O110 C99 1.236 . S
O111 Tb80 2.341 . S
O111 C99 1.266 . S
H112 C84 0.929 1_554 S
H113 C85 0.931 1_554 S
H114 C87 0.930 . S
H115 C88 0.930 . S
H116 C93 0.929 . S
H117 C94 0.931 . S
H118 C96 0.930 . S
H119 C97 0.930 . S
H120 C126 0.930 . S
H121 C129 0.930 . S
H122 C130 0.930 . S
H123 C131 0.930 . S
H124 C134 0.930 . S
H125 C135 0.930 . S
C126 H120 0.930 . S
C126 C127 1.355 . S
C126 C128 1.415 . S
C127 C126 1.355 . S
C127 C129 1.419 . S
C128 C126 1.415 . S
C128 C133 1.425 . S
C128 C135 1.409 . S
C129 H121 0.930 . S
C129 C127 1.419 . S
C129 C130 1.362 . S
C130 H122 0.930 . S
C130 C129 1.362 . S
C130 C133 1.409 . S
C131 H123 0.930 . S
C131 C132 1.355 . S
C131 C133 1.415 1_556 S
C132 C131 1.355 . S
C132 C134 1.419 . S
C133 C128 1.425 . S
C133 C130 1.409 . S
C133 C131 1.415 1_554 S
C134 H124 0.930 . S
C134 C132 1.419 . S
C134 C135 1.362 1_556 S
C135 H125 0.930 . S
C135 C128 1.409 . S
C135 C134 1.362 1_554 S
H136 C142 0.930 . S
H137 C145 0.930 . S
H138 C146 0.930 . S
H139 C147 0.930 . S
H140 C150 0.930 . S
H141 C151 0.930 . S
C142 H136 0.930 . S
C142 C143 1.355 . S
C142 C144 1.415 . S
C143 C142 1.355 . S
C143 C145 1.419 . S
C144 C142 1.415 . S
C144 C149 1.425 . S
C144 C151 1.409 . S
C145 H137 0.930 . S
C145 C143 1.419 . S
C145 C146 1.362 . S
C146 H138 0.930 . S
C146 C145 1.362 . S
C146 C149 1.409 . S
C147 H139 0.930 . S
C147 C148 1.355 . S
C147 C149 1.415 . S
C148 C147 1.355 . S
C148 C150 1.419 . S
C149 C144 1.425 . S
C149 C146 1.409 . S
C149 C147 1.415 . S
C150 H140 0.930 . S
C150 C148 1.419 . S
C150 C151 1.362 . S
C151 H141 0.930 . S
C151 C144 1.409 . S
C151 C150 1.362 . S
H152 C158 0.930 . S
H153 C161 0.930 . S
H154 C162 0.930 . S
H155 C163 0.930 . S
H156 C166 0.930 . S
H157 C167 0.930 . S
C158 H152 0.930 . S
C158 C159 1.355 . S
C158 C160 1.415 . S
C159 C158 1.355 . S
C159 C161 1.419 . S
C160 C158 1.415 . S
C160 C165 1.425 . S
C160 C167 1.409 . S
C161 H153 0.930 . S
C161 C159 1.419 . S
C161 C162 1.362 . S
C162 H154 0.930 . S
C162 C161 1.362 . S
C162 C165 1.409 . S
C163 H155 0.930 . S
C163 C164 1.355 . S
C163 C165 1.415 . S
C164 C163 1.355 . S
C164 C166 1.419 . S
C165 C160 1.425 . S
C165 C162 1.409 . S
C165 C163 1.415 . S
C166 H156 0.930 . S
C166 C164 1.419 . S
C166 C167 1.362 . S
C167 H157 0.930 . S
C167 C160 1.409 . S
C167 C166 1.362 . S
H168 C174 0.930 . S
H169 C177 0.930 . S
H170 C178 0.930 . S
H171 C179 0.930 . S
H172 C182 0.930 . S
H173 C183 0.930 . S
C174 H168 0.930 . S
C174 C175 1.355 . S
C174 C176 1.415 . S
C175 C174 1.355 . S
C175 C177 1.419 . S
C176 C174 1.415 . S
C176 C181 1.425 1_556 S
C176 C183 1.409 . S
C177 H169 0.930 . S
C177 C175 1.419 . S
C177 C178 1.362 1_556 S
C178 H170 0.930 . S
C178 C177 1.362 1_554 S
C178 C181 1.409 . S
C179 H171 0.930 . S
C179 C180 1.355 . S
C179 C181 1.415 . S
C180 C179 1.355 . S
C180 C182 1.419 . S
C181 C176 1.425 1_554 S
C181 C178 1.409 . S
C181 C179 1.415 . S
C182 H172 0.930 . S
C182 C180 1.419 . S
C182 C183 1.362 1_554 S
C183 H173 0.930 . S
C183 C176 1.409 . S
C183 C182 1.362 1_556 S
H184 C190 0.930 . S
H185 C193 0.930 . S
H186 C194 0.930 . S
H187 C195 0.930 . S
H188 C198 0.930 . S
H189 C199 0.930 . S
C190 H184 0.930 . S
C190 C191 1.355 . S
C190 C192 1.415 . S
C191 C190 1.355 . S
C191 C193 1.419 . S
C192 C190 1.415 . S
C192 C197 1.425 . S
C192 C199 1.409 . S
C193 H185 0.930 . S
C193 C191 1.419 . S
C193 C194 1.362 . S
C194 H186 0.930 . S
C194 C193 1.362 . S
C194 C197 1.409 . S
C195 H187 0.930 . S
C195 C196 1.355 . S
C195 C197 1.415 . S
C196 C195 1.355 . S
C196 C198 1.419 . S
C197 C192 1.425 . S
C197 C194 1.409 . S
C197 C195 1.415 . S
C198 H188 0.930 . S
C198 C196 1.419 . S
C198 C199 1.362 . S
C199 H189 0.930 . S
C199 C192 1.409 . S
C199 C198 1.362 . S
H200 C206 0.930 . S
H201 C209 0.930 . S
H202 C210 0.930 . S
H203 C211 0.930 . S
H204 C214 0.930 . S
H205 C215 0.930 . S
C206 H200 0.930 . S
C206 C207 1.355 . S
C206 C208 1.415 . S
C207 C206 1.355 . S
C207 C209 1.419 . S
C208 C206 1.415 . S
C208 C213 1.425 . S
C208 C215 1.409 . S
C209 H201 0.930 . S
C209 C207 1.419 . S
C209 C210 1.362 . S
C210 H202 0.930 . S
C210 C209 1.362 . S
C210 C213 1.409 . S
C211 H203 0.930 . S
C211 C212 1.355 . S
C211 C213 1.415 . S
C212 C211 1.355 . S
C212 C214 1.419 . S
C213 C208 1.425 . S
C213 C210 1.409 . S
C213 C211 1.415 . S
C214 H204 0.930 . S
C214 C212 1.419 . S
C214 C215 1.362 . S
C215 H205 0.930 . S
C215 C208 1.409 . S
C215 C214 1.362 . S
H216 C222 0.930 . S
H217 C225 0.930 . S
H218 C226 0.930 . S
H219 C227 0.930 . S
H220 C230 0.930 . S
H221 C231 0.930 . S
C222 H216 0.930 . S
C222 C223 1.377 . S
C222 C224 1.415 . S
C223 C222 1.377 . S
C223 C225 1.391 1_655 S
C224 C222 1.415 . S
C224 C229 1.425 1_655 S
C224 C231 1.409 . S
C225 H217 0.930 . S
C225 C223 1.391 1_455 S
C225 C226 1.362 . S
C226 H218 0.930 . S
C226 C225 1.362 . S
C226 C229 1.409 . S
C227 H219 0.930 . S
C227 C228 1.355 . S
C227 C229 1.415 . S
C228 C227 1.355 . S
C228 C230 1.419 1_455 S
C229 C224 1.425 1_455 S
C229 C226 1.409 . S
C229 C227 1.415 . S
C230 H220 0.930 . S
C230 C228 1.419 1_655 S
C230 C231 1.362 . S
C231 H221 0.930 . S
C231 C224 1.409 . S
C231 C230 1.362 . S
H232 C238 0.930 . S
H233 C241 0.930 . S
H234 C242 0.930 . S
H235 C243 0.930 . S
H236 C246 0.930 . S
H237 C247 0.930 . S
C238 H232 0.930 . S
C238 C239 1.371 . S
C238 C240 1.415 . S
C239 C238 1.371 . S
C239 C241 1.398 1_545 S
C240 C238 1.415 . S
C240 C245 1.425 1_544 S
C240 C247 1.409 1_554 S
C241 H233 0.930 . S
C241 C239 1.398 1_565 S
C241 C242 1.362 . S
C242 H234 0.930 . S
C242 C241 1.362 . S
C242 C245 1.409 1_554 S
C243 H235 0.930 . S
C243 C244 1.355 1_565 S
C243 C245 1.415 . S
C244 C243 1.355 1_545 S
C244 C246 1.419 . S
C245 C240 1.425 1_566 S
C245 C242 1.409 1_556 S
C245 C243 1.415 . S
C246 H236 0.930 . S
C246 C244 1.419 . S
C246 C247 1.362 . S
C247 H237 0.930 . S
C247 C240 1.409 1_556 S
C247 C246 1.362 . S
H248 C254 0.930 . S
H249 C257 0.930 . S
H250 C258 0.930 . S
H251 C259 0.930 . S
H252 C262 0.930 . S
H253 C263 0.930 . S
C254 H248 0.930 . S
C254 C255 1.355 . S
C254 C256 1.415 . S
C255 C254 1.355 . S
C255 C257 1.419 . S
C256 C254 1.415 . S
C256 C261 1.425 . S
C256 C263 1.409 . S
C257 H249 0.930 . S
C257 C255 1.419 . S
C257 C258 1.362 . S
C258 H250 0.930 . S
C258 C257 1.362 . S
C258 C261 1.409 . S
C259 H251 0.930 . S
C259 C260 1.355 . S
C259 C261 1.415 . S
C260 C259 1.355 . S
C260 C262 1.419 . S
C261 C256 1.425 . S
C261 C258 1.409 . S
C261 C259 1.415 . S
C262 H252 0.930 . S
C262 C260 1.419 . S
C262 C263 1.362 . S
C263 H253 0.930 . S
C263 C256 1.409 . S
C263 C262 1.362 . S
C127 C10 1.825 . S
C132 C86 1.901 . S
C143 C59 2.200 . S
C148 C15 2.117 . S
C159 C46 1.889 . S
C164 C90 1.812 . S
C175 C95 2.094 . S
C180 C19 2.185 . S
C191 C50 1.868 . S
C196 C6 1.920 . S
C207 C99 2.188 . S
C212 C55 2.125 . S
C223 C9 0.708 1_655 S
C228 C18 0.709 1_455 S
C239 C49 0.590 1_545 S
C244 C58 0.599 . S
C255 C89 0.567 . S
C260 C98 0.567 . S
