# Generated by pormake.
# Topology ubt, (5)-cn, num edge types: 1
# Building blocks:
#     Node 0, Type 0, BuildingBlock: XOMCOT_clean_sbu_0, # of connection points: 5
#     Node 1, Type 0, BuildingBlock: XOMCOT_clean_sbu_0, # of connection points: 5
#     Node 2, Type 0, BuildingBlock: XOMCOT_clean_sbu_0, # of connection points: 5
#     Node 3, Type 0, BuildingBlock: XOMCOT_clean_sbu_0, # of connection points: 5
#     Node 4, Type 0, BuildingBlock: XOMCOT_clean_sbu_0, # of connection points: 5
#     Node 5, Type 0, BuildingBlock: XOMCOT_clean_sbu_0, # of connection points: 5
#     Node 6, Type 0, BuildingBlock: XOMCOT_clean_sbu_0, # of connection points: 5
#     Node 7, Type 0, BuildingBlock: XOMCOT_clean_sbu_0, # of connection points: 5
#     Node 8, Type 0, BuildingBlock: XOMCOT_clean_sbu_0, # of connection points: 5
#     Node 9, Type 0, BuildingBlock: XOMCOT_clean_sbu_0, # of connection points: 5
#     Node 10, Type 0, BuildingBlock: XOMCOT_clean_sbu_0, # of connection points: 5
#     Node 11, Type 0, BuildingBlock: XOMCOT_clean_sbu_0, # of connection points: 5
#     Node 12, Type 0, BuildingBlock: XOMCOT_clean_sbu_0, # of connection points: 5
#     Node 13, Type 0, BuildingBlock: XOMCOT_clean_sbu_0, # of connection points: 5
#     Node 14, Type 0, BuildingBlock: XOMCOT_clean_sbu_0, # of connection points: 5
#     Node 15, Type 0, BuildingBlock: XOMCOT_clean_sbu_0, # of connection points: 5
#     Node 16, Type 0, BuildingBlock: XOMCOT_clean_sbu_0, # of connection points: 5
#     Node 17, Type 0, BuildingBlock: XOMCOT_clean_sbu_0, # of connection points: 5
#     Node 18, Type 0, BuildingBlock: XOMCOT_clean_sbu_0, # of connection points: 5
#     Node 19, Type 0, BuildingBlock: XOMCOT_clean_sbu_0, # of connection points: 5
#     Node 20, Type 0, BuildingBlock: XOMCOT_clean_sbu_0, # of connection points: 5
#     Node 21, Type 0, BuildingBlock: XOMCOT_clean_sbu_0, # of connection points: 5
#     Node 22, Type 0, BuildingBlock: XOMCOT_clean_sbu_0, # of connection points: 5
#     Node 23, Type 0, BuildingBlock: XOMCOT_clean_sbu_0, # of connection points: 5
#     Node 24, Type 0, BuildingBlock: XOMCOT_clean_sbu_0, # of connection points: 5
#     Node 25, Type 0, BuildingBlock: XOMCOT_clean_sbu_0, # of connection points: 5
#     Node 26, Type 0, BuildingBlock: XOMCOT_clean_sbu_0, # of connection points: 5
#     Node 27, Type 0, BuildingBlock: XOMCOT_clean_sbu_0, # of connection points: 5
#     Node 28, Type 0, BuildingBlock: XOMCOT_clean_sbu_0, # of connection points: 5
#     Node 29, Type 0, BuildingBlock: XOMCOT_clean_sbu_0, # of connection points: 5
#     Node 30, Type 0, BuildingBlock: XOMCOT_clean_sbu_0, # of connection points: 5
#     Node 31, Type 0, BuildingBlock: XOMCOT_clean_sbu_0, # of connection points: 5
#     Node 32, Type 0, BuildingBlock: XOMCOT_clean_sbu_0, # of connection points: 5
#     Node 33, Type 0, BuildingBlock: XOMCOT_clean_sbu_0, # of connection points: 5
#     Node 34, Type 0, BuildingBlock: XOMCOT_clean_sbu_0, # of connection points: 5
#     Node 35, Type 0, BuildingBlock: XOMCOT_clean_sbu_0, # of connection points: 5
#     Node 36, Type 0, BuildingBlock: XOMCOT_clean_sbu_0, # of connection points: 5
#     Node 37, Type 0, BuildingBlock: XOMCOT_clean_sbu_0, # of connection points: 5
#     Node 38, Type 0, BuildingBlock: XOMCOT_clean_sbu_0, # of connection points: 5
#     Node 39, Type 0, BuildingBlock: XOMCOT_clean_sbu_0, # of connection points: 5
#     Node 40, Type 0, BuildingBlock: XOMCOT_clean_sbu_0, # of connection points: 5
#     Node 41, Type 0, BuildingBlock: XOMCOT_clean_sbu_0, # of connection points: 5
#     Node 42, Type 0, BuildingBlock: XOMCOT_clean_sbu_0, # of connection points: 5
#     Node 43, Type 0, BuildingBlock: XOMCOT_clean_sbu_0, # of connection points: 5
#     Node 44, Type 0, BuildingBlock: XOMCOT_clean_sbu_0, # of connection points: 5
#     Node 45, Type 0, BuildingBlock: XOMCOT_clean_sbu_0, # of connection points: 5
#     Node 46, Type 0, BuildingBlock: XOMCOT_clean_sbu_0, # of connection points: 5
#     Node 47, Type 0, BuildingBlock: XOMCOT_clean_sbu_0, # of connection points: 5
#     Edge 48, Type (0, 0), BuildingBlock: OJICUG_clean_linker_0, # of connection points: 2
#     Edge 49, Type (0, 0), BuildingBlock: OJICUG_clean_linker_0, # of connection points: 2
#     Edge 50, Type (0, 0), BuildingBlock: OJICUG_clean_linker_0, # of connection points: 2
#     Edge 51, Type (0, 0), BuildingBlock: OJICUG_clean_linker_0, # of connection points: 2
#     Edge 52, Type (0, 0), BuildingBlock: OJICUG_clean_linker_0, # of connection points: 2
#     Edge 53, Type (0, 0), BuildingBlock: OJICUG_clean_linker_0, # of connection points: 2
#     Edge 54, Type (0, 0), BuildingBlock: OJICUG_clean_linker_0, # of connection points: 2
#     Edge 55, Type (0, 0), BuildingBlock: OJICUG_clean_linker_0, # of connection points: 2
#     Edge 56, Type (0, 0), BuildingBlock: OJICUG_clean_linker_0, # of connection points: 2
#     Edge 57, Type (0, 0), BuildingBlock: OJICUG_clean_linker_0, # of connection points: 2
#     Edge 58, Type (0, 0), BuildingBlock: OJICUG_clean_linker_0, # of connection points: 2
#     Edge 59, Type (0, 0), BuildingBlock: OJICUG_clean_linker_0, # of connection points: 2
#     Edge 60, Type (0, 0), BuildingBlock: OJICUG_clean_linker_0, # of connection points: 2
#     Edge 61, Type (0, 0), BuildingBlock: OJICUG_clean_linker_0, # of connection points: 2
#     Edge 62, Type (0, 0), BuildingBlock: OJICUG_clean_linker_0, # of connection points: 2
#     Edge 63, Type (0, 0), BuildingBlock: OJICUG_clean_linker_0, # of connection points: 2
#     Edge 64, Type (0, 0), BuildingBlock: OJICUG_clean_linker_0, # of connection points: 2
#     Edge 65, Type (0, 0), BuildingBlock: OJICUG_clean_linker_0, # of connection points: 2
#     Edge 66, Type (0, 0), BuildingBlock: OJICUG_clean_linker_0, # of connection points: 2
#     Edge 67, Type (0, 0), BuildingBlock: OJICUG_clean_linker_0, # of connection points: 2
#     Edge 68, Type (0, 0), BuildingBlock: OJICUG_clean_linker_0, # of connection points: 2
#     Edge 69, Type (0, 0), BuildingBlock: OJICUG_clean_linker_0, # of connection points: 2
#     Edge 70, Type (0, 0), BuildingBlock: OJICUG_clean_linker_0, # of connection points: 2
#     Edge 71, Type (0, 0), BuildingBlock: OJICUG_clean_linker_0, # of connection points: 2
#     Edge 72, Type (0, 0), BuildingBlock: OJICUG_clean_linker_0, # of connection points: 2
#     Edge 73, Type (0, 0), BuildingBlock: OJICUG_clean_linker_0, # of connection points: 2
#     Edge 74, Type (0, 0), BuildingBlock: OJICUG_clean_linker_0, # of connection points: 2
#     Edge 75, Type (0, 0), BuildingBlock: OJICUG_clean_linker_0, # of connection points: 2
#     Edge 76, Type (0, 0), BuildingBlock: OJICUG_clean_linker_0, # of connection points: 2
#     Edge 77, Type (0, 0), BuildingBlock: OJICUG_clean_linker_0, # of connection points: 2
#     Edge 78, Type (0, 0), BuildingBlock: OJICUG_clean_linker_0, # of connection points: 2
#     Edge 79, Type (0, 0), BuildingBlock: OJICUG_clean_linker_0, # of connection points: 2
#     Edge 80, Type (0, 0), BuildingBlock: OJICUG_clean_linker_0, # of connection points: 2
#     Edge 81, Type (0, 0), BuildingBlock: OJICUG_clean_linker_0, # of connection points: 2
#     Edge 82, Type (0, 0), BuildingBlock: OJICUG_clean_linker_0, # of connection points: 2
#     Edge 83, Type (0, 0), BuildingBlock: OJICUG_clean_linker_0, # of connection points: 2
#     Edge 84, Type (0, 0), BuildingBlock: OJICUG_clean_linker_0, # of connection points: 2
#     Edge 85, Type (0, 0), BuildingBlock: OJICUG_clean_linker_0, # of connection points: 2
#     Edge 86, Type (0, 0), BuildingBlock: OJICUG_clean_linker_0, # of connection points: 2
#     Edge 87, Type (0, 0), BuildingBlock: OJICUG_clean_linker_0, # of connection points: 2
#     Edge 88, Type (0, 0), BuildingBlock: OJICUG_clean_linker_0, # of connection points: 2
#     Edge 89, Type (0, 0), BuildingBlock: OJICUG_clean_linker_0, # of connection points: 2
#     Edge 90, Type (0, 0), BuildingBlock: OJICUG_clean_linker_0, # of connection points: 2
#     Edge 91, Type (0, 0), BuildingBlock: OJICUG_clean_linker_0, # of connection points: 2
#     Edge 92, Type (0, 0), BuildingBlock: OJICUG_clean_linker_0, # of connection points: 2
#     Edge 93, Type (0, 0), BuildingBlock: OJICUG_clean_linker_0, # of connection points: 2
#     Edge 94, Type (0, 0), BuildingBlock: OJICUG_clean_linker_0, # of connection points: 2
#     Edge 95, Type (0, 0), BuildingBlock: OJICUG_clean_linker_0, # of connection points: 2
#     Edge 96, Type (0, 0), BuildingBlock: OJICUG_clean_linker_0, # of connection points: 2
#     Edge 97, Type (0, 0), BuildingBlock: OJICUG_clean_linker_0, # of connection points: 2
#     Edge 98, Type (0, 0), BuildingBlock: OJICUG_clean_linker_0, # of connection points: 2
#     Edge 99, Type (0, 0), BuildingBlock: OJICUG_clean_linker_0, # of connection points: 2
#     Edge 100, Type (0, 0), BuildingBlock: OJICUG_clean_linker_0, # of connection points: 2
#     Edge 101, Type (0, 0), BuildingBlock: OJICUG_clean_linker_0, # of connection points: 2
#     Edge 102, Type (0, 0), BuildingBlock: OJICUG_clean_linker_0, # of connection points: 2
#     Edge 103, Type (0, 0), BuildingBlock: OJICUG_clean_linker_0, # of connection points: 2
#     Edge 104, Type (0, 0), BuildingBlock: OJICUG_clean_linker_0, # of connection points: 2
#     Edge 105, Type (0, 0), BuildingBlock: OJICUG_clean_linker_0, # of connection points: 2
#     Edge 106, Type (0, 0), BuildingBlock: OJICUG_clean_linker_0, # of connection points: 2
#     Edge 107, Type (0, 0), BuildingBlock: OJICUG_clean_linker_0, # of connection points: 2
#     Edge 108, Type (0, 0), BuildingBlock: OJICUG_clean_linker_0, # of connection points: 2
#     Edge 109, Type (0, 0), BuildingBlock: OJICUG_clean_linker_0, # of connection points: 2
#     Edge 110, Type (0, 0), BuildingBlock: OJICUG_clean_linker_0, # of connection points: 2
#     Edge 111, Type (0, 0), BuildingBlock: OJICUG_clean_linker_0, # of connection points: 2
#     Edge 112, Type (0, 0), BuildingBlock: OJICUG_clean_linker_0, # of connection points: 2
#     Edge 113, Type (0, 0), BuildingBlock: OJICUG_clean_linker_0, # of connection points: 2
#     Edge 114, Type (0, 0), BuildingBlock: OJICUG_clean_linker_0, # of connection points: 2
#     Edge 115, Type (0, 0), BuildingBlock: OJICUG_clean_linker_0, # of connection points: 2
#     Edge 116, Type (0, 0), BuildingBlock: OJICUG_clean_linker_0, # of connection points: 2
#     Edge 117, Type (0, 0), BuildingBlock: OJICUG_clean_linker_0, # of connection points: 2
#     Edge 118, Type (0, 0), BuildingBlock: OJICUG_clean_linker_0, # of connection points: 2
#     Edge 119, Type (0, 0), BuildingBlock: OJICUG_clean_linker_0, # of connection points: 2
#     Edge 120, Type (0, 0), BuildingBlock: OJICUG_clean_linker_0, # of connection points: 2
#     Edge 121, Type (0, 0), BuildingBlock: OJICUG_clean_linker_0, # of connection points: 2
#     Edge 122, Type (0, 0), BuildingBlock: OJICUG_clean_linker_0, # of connection points: 2
#     Edge 123, Type (0, 0), BuildingBlock: OJICUG_clean_linker_0, # of connection points: 2
#     Edge 124, Type (0, 0), BuildingBlock: OJICUG_clean_linker_0, # of connection points: 2
#     Edge 125, Type (0, 0), BuildingBlock: OJICUG_clean_linker_0, # of connection points: 2
#     Edge 126, Type (0, 0), BuildingBlock: OJICUG_clean_linker_0, # of connection points: 2
#     Edge 127, Type (0, 0), BuildingBlock: OJICUG_clean_linker_0, # of connection points: 2
#     Edge 128, Type (0, 0), BuildingBlock: OJICUG_clean_linker_0, # of connection points: 2
#     Edge 129, Type (0, 0), BuildingBlock: OJICUG_clean_linker_0, # of connection points: 2
#     Edge 130, Type (0, 0), BuildingBlock: OJICUG_clean_linker_0, # of connection points: 2
#     Edge 131, Type (0, 0), BuildingBlock: OJICUG_clean_linker_0, # of connection points: 2
#     Edge 132, Type (0, 0), BuildingBlock: OJICUG_clean_linker_0, # of connection points: 2
#     Edge 133, Type (0, 0), BuildingBlock: OJICUG_clean_linker_0, # of connection points: 2
#     Edge 134, Type (0, 0), BuildingBlock: OJICUG_clean_linker_0, # of connection points: 2
#     Edge 135, Type (0, 0), BuildingBlock: OJICUG_clean_linker_0, # of connection points: 2
#     Edge 136, Type (0, 0), BuildingBlock: OJICUG_clean_linker_0, # of connection points: 2
#     Edge 137, Type (0, 0), BuildingBlock: OJICUG_clean_linker_0, # of connection points: 2
#     Edge 138, Type (0, 0), BuildingBlock: OJICUG_clean_linker_0, # of connection points: 2
#     Edge 139, Type (0, 0), BuildingBlock: OJICUG_clean_linker_0, # of connection points: 2
#     Edge 140, Type (0, 0), BuildingBlock: OJICUG_clean_linker_0, # of connection points: 2
#     Edge 141, Type (0, 0), BuildingBlock: OJICUG_clean_linker_0, # of connection points: 2
#     Edge 142, Type (0, 0), BuildingBlock: OJICUG_clean_linker_0, # of connection points: 2
#     Edge 143, Type (0, 0), BuildingBlock: OJICUG_clean_linker_0, # of connection points: 2
#     Edge 144, Type (0, 0), BuildingBlock: OJICUG_clean_linker_0, # of connection points: 2
#     Edge 145, Type (0, 0), BuildingBlock: OJICUG_clean_linker_0, # of connection points: 2
#     Edge 146, Type (0, 0), BuildingBlock: OJICUG_clean_linker_0, # of connection points: 2
#     Edge 147, Type (0, 0), BuildingBlock: OJICUG_clean_linker_0, # of connection points: 2
#     Edge 148, Type (0, 0), BuildingBlock: OJICUG_clean_linker_0, # of connection points: 2
#     Edge 149, Type (0, 0), BuildingBlock: OJICUG_clean_linker_0, # of connection points: 2
#     Edge 150, Type (0, 0), BuildingBlock: OJICUG_clean_linker_0, # of connection points: 2
#     Edge 151, Type (0, 0), BuildingBlock: OJICUG_clean_linker_0, # of connection points: 2
#     Edge 152, Type (0, 0), BuildingBlock: OJICUG_clean_linker_0, # of connection points: 2
#     Edge 153, Type (0, 0), BuildingBlock: OJICUG_clean_linker_0, # of connection points: 2
#     Edge 154, Type (0, 0), BuildingBlock: OJICUG_clean_linker_0, # of connection points: 2
#     Edge 155, Type (0, 0), BuildingBlock: OJICUG_clean_linker_0, # of connection points: 2
#     Edge 156, Type (0, 0), BuildingBlock: OJICUG_clean_linker_0, # of connection points: 2
#     Edge 157, Type (0, 0), BuildingBlock: OJICUG_clean_linker_0, # of connection points: 2
#     Edge 158, Type (0, 0), BuildingBlock: OJICUG_clean_linker_0, # of connection points: 2
#     Edge 159, Type (0, 0), BuildingBlock: OJICUG_clean_linker_0, # of connection points: 2
#     Edge 160, Type (0, 0), BuildingBlock: OJICUG_clean_linker_0, # of connection points: 2
#     Edge 161, Type (0, 0), BuildingBlock: OJICUG_clean_linker_0, # of connection points: 2
#     Edge 162, Type (0, 0), BuildingBlock: OJICUG_clean_linker_0, # of connection points: 2
#     Edge 163, Type (0, 0), BuildingBlock: OJICUG_clean_linker_0, # of connection points: 2
#     Edge 164, Type (0, 0), BuildingBlock: OJICUG_clean_linker_0, # of connection points: 2
#     Edge 165, Type (0, 0), BuildingBlock: OJICUG_clean_linker_0, # of connection points: 2
#     Edge 166, Type (0, 0), BuildingBlock: OJICUG_clean_linker_0, # of connection points: 2
#     Edge 167, Type (0, 0), BuildingBlock: OJICUG_clean_linker_0, # of connection points: 2
# Relax obj value: 0.236
# Max RMSD: 0.207
# Mean RMSD: 0.204
data_MOF--net-ubt--node1-XOMCOT_clean_sbu_0--edge1-OJICUG_clean_linker_0
_symmetry_space_group_name_H-M    P1
_symmetry_Int_Tables_number       1
_symmetry_cell_setting            triclinic
loop_
_symmetry_equiv_pos_as_xyz
'x, y, z'
_cell_length_a     54.740986
_cell_length_b     54.512474
_cell_length_c     55.585857
_cell_angle_alpha  89.945788
_cell_angle_beta   89.681596
_cell_angle_gamma 89.91613
loop_
_atom_site_label
_atom_site_type_symbol
_atom_site_fract_x
_atom_site_fract_y
_atom_site_fract_z
_atom_type_partial_charge
Co0 Co 0.99977 0.14398 0.17427 0.0
C1 C 0.96827 0.15766 0.13383 0.0
C2 C 0.95624 0.17477 0.16665 0.0
C3 C 0.94037 0.18112 0.14856 0.0
N4 N 0.9738 0.16027 0.15729 0.0
N5 N 0.94791 0.17029 0.12797 0.0
H6 H 0.97874 0.14645 0.12144 0.0
H7 H 0.95469 0.17984 0.18539 0.0
C8 C 0.04566 0.15991 0.14992 0.0
O9 O 0.05563 0.16129 0.17131 0.0
N10 N 0.026 0.12651 0.19057 0.0
C11 C 0.03513 0.12899 0.21297 0.0
C12 C 0.05514 0.11385 0.21529 0.0
C13 C 0.04031 0.10937 0.17991 0.0
N14 N 0.0584 0.10161 0.19447 0.0
C15 C 0.99795 0.17531 0.21549 0.0
C16 C 0.0101 0.21842 0.19222 0.0
C17 C 0.00265 0.21945 0.21639 0.0
C18 C 0.99689 0.1974 0.22805 0.0
C19 C 0.01099 0.19581 0.18027 0.0
N20 N 0.00541 0.17442 0.19201 0.0
H21 H 0.99176 0.15894 0.22456 0.0
H22 H 0.01457 0.19592 0.16117 0.0
H23 H 0.02862 0.14125 0.22672 0.0
H24 H 0.03835 0.1038 0.16134 0.0
O25 O 0.97608 0.12954 0.19573 0.0
O26 O 0.98834 0.11286 0.16145 0.0
O27 O 0.02325 0.15371 0.14769 0.0
C28 C 0.9742 0.11176 0.18038 0.0
H29 H 0.92398 0.19207 0.15064 0.0
H30 H 0.0667 0.11231 0.23095 0.0
H31 H 0.01404 0.23504 0.18226 0.0
H32 H 0.99108 0.19718 0.24671 0.0
Co33 Co 0.84346 1.00297 0.15427 0.0
C34 C 0.88489 0.02888 0.17429 0.0
C35 C 0.85197 0.03912 0.19292 0.0
C36 C 0.87067 0.05424 0.20034 0.0
N37 N 0.86104 0.02325 0.17662 0.0
N38 N 0.89131 0.04796 0.18836 0.0
H39 H 0.89682 0.02018 0.16127 0.0
H40 H 0.83286 0.04078 0.19769 0.0
C41 C 0.86428 0.95348 0.16471 0.0
O42 O 0.84204 0.94446 0.16423 0.0
N43 N 0.82695 0.98306 0.13025 0.0
C44 C 0.80507 0.98752 0.1199 0.0
C45 C 0.80269 0.97315 0.09984 0.0
C46 C 0.83805 0.96697 0.11519 0.0
N47 N 0.82348 0.96031 0.09684 0.0
C48 C 0.79764 0.99534 0.17801 0.0
C49 C 0.81583 0.97872 0.22126 0.0
C50 C 0.79059 0.98216 0.21874 0.0
C51 C 0.78154 0.99017 0.19673 0.0
C52 C 0.83137 0.98338 0.20164 0.0
N53 N 0.82216 0.99147 0.18019 0.0
H54 H 0.7903 0.00418 0.16247 0.0
H55 H 0.85088 0.98175 0.20409 0.0
H56 H 0.79254 1.00201 0.12465 0.0
H57 H 0.85685 0.96115 0.1169 0.0
O58 O 0.82452 0.03089 0.14497 0.0
O59 O 0.85969 0.01984 0.12801 0.0
O60 O 0.86796 0.9762 0.1604 0.0
C61 C 0.84133 0.03512 0.12896 0.0
H62 H 0.86868 0.0699 0.21215 0.0
H63 H 0.78749 0.97341 0.08746 0.0
H64 H 0.82348 0.97337 0.23841 0.0
H65 H 0.76227 0.99419 0.19457 0.0
Co66 Co 0.9983 0.84761 0.14993 0.0
C67 C 0.95448 0.87415 0.16803 0.0
C68 C 0.98608 0.88198 0.18919 0.0
C69 C 0.9675 0.89744 0.19627 0.0
N70 N 0.97804 0.86743 0.17126 0.0
N71 N 0.94772 0.8926 0.18279 0.0
H72 H 0.94293 0.8673 0.15387 0.0
H73 H 0.00466 0.88283 0.19552 0.0
C74 C 0.04963 0.86412 0.15846 0.0
O75 O 0.05625 0.84095 0.15748 0.0
N76 N 0.01839 0.82864 0.12794 0.0
C77 C 0.01963 0.80419 0.1244 0.0
C78 C 0.03506 0.79965 0.10527 0.0
C79 C 0.0324 0.83855 0.11045 0.0
N80 N 0.04311 0.82131 0.09658 0.0
C81 C 0.99323 0.80324 0.17659 0.0
C82 C 0.02453 0.81345 0.21395 0.0
C83 C 0.01284 0.79059 0.21327 0.0
C84 C 0.99699 0.78572 0.1943 0.0
C85 C 0.02018 0.83069 0.19568 0.0
N86 N 0.00535 0.82516 0.17666 0.0
H87 H 0.98058 0.79864 0.16258 0.0
H88 H 0.02861 0.84841 0.19728 0.0
H89 H 0.00975 0.79039 0.13429 0.0
H90 H 0.03495 0.85811 0.10826 0.0
O91 O 0.97015 0.83093 0.13786 0.0
O92 O 0.9853 0.86494 0.12202 0.0
O93 O 0.02705 0.86992 0.15678 0.0
C94 C 0.96945 0.84715 0.12087 0.0
H95 H 0.96892 0.91212 0.20929 0.0
H96 H 0.03961 0.78177 0.0981 0.0
H97 H 0.03636 0.81822 0.22877 0.0
H98 H 0.98746 0.76836 0.19307 0.0
Co99 Co 0.16466 0.99628 0.14903 0.0
C100 C 0.1271 0.95882 0.16058 0.0
C101 C 0.15973 0.95361 0.18118 0.0
C102 C 0.14442 0.93418 0.18545 0.0
N103 N 0.1489 0.96921 0.16569 0.0
N104 N 0.12402 0.93725 0.1723 0.0
H105 H 0.11464 0.96592 0.14721 0.0
H106 H 0.17812 0.95525 0.18789 0.0
C107 C 0.14049 0.04138 0.16773 0.0
O108 O 0.1625 0.05071 0.16985 0.0
N109 N 0.18029 0.02317 0.1315 0.0
C110 C 0.20427 0.02881 0.12987 0.0
C111 C 0.20704 0.04943 0.11593 0.0
C112 C 0.16896 0.04012 0.11759 0.0
N113 N 0.18488 0.0566 0.1083 0.0
C114 C 0.2084 0.9942 0.17669 0.0
C115 C 0.1888 0.00818 0.22044 0.0
C116 C 0.21335 1.00093 0.21924 0.0
C117 C 0.22306 0.99397 0.197 0.0
C118 C 0.17456 0.00788 0.19954 0.0
N119 N 0.18461 1.00183 0.17769 0.0
H120 H 0.21612 0.98686 0.16038 0.0
H121 H 0.15522 0.01123 0.20134 0.0
H122 H 0.21915 0.01888 0.13777 0.0
H123 H 0.14939 0.04082 0.11497 0.0
O124 O 0.1858 0.97315 0.13326 0.0
O125 O 0.15007 0.9853 0.11907 0.0
O126 O 0.13785 0.01934 0.16023 0.0
C127 C 0.16934 0.97138 0.11671 0.0
H128 H 0.1485 0.91842 0.19659 0.0
H129 H 0.22414 0.0584 0.11157 0.0
H130 H 0.18046 0.01305 0.23749 0.0
H131 H 0.24188 0.988 0.1953 0.0
Co132 Co 0.00353 0.8585 0.84426 0.0
C133 C 0.04983 0.88585 0.83532 0.0
C134 C 0.02177 0.89659 0.81088 0.0
C135 C 0.04111 0.91245 0.80825 0.0
N136 N 0.02708 0.87979 0.82795 0.0
N137 N 0.05864 0.90587 0.82388 0.0
H138 H 0.05912 0.87725 0.85016 0.0
H139 H 0.00429 0.89888 0.80234 0.0
C140 C 0.95501 0.88057 0.83051 0.0
O141 O 0.947 0.85842 0.82564 0.0
N142 N 0.97982 0.83843 0.86146 0.0
C143 C 0.97936 0.81397 0.86555 0.0
C144 C 0.96058 0.80874 0.88146 0.0
C145 C 0.96189 0.84762 0.87557 0.0
N146 N 0.94959 0.82998 0.88744 0.0
C147 C 0.0086 0.81697 0.81366 0.0
C148 C 0.98687 0.83484 0.77258 0.0
C149 C 0.9968 0.81115 0.77247 0.0
C150 C 0.00776 0.80237 0.79326 0.0
C151 C 0.98822 0.84915 0.79362 0.0
N152 N 0.99858 0.84 0.8142 0.0
H153 H 0.01784 0.80937 0.82892 0.0
H154 H 0.98094 0.86745 0.79298 0.0
H155 H 0.99212 0.80075 0.85842 0.0
H156 H 0.95828 0.86702 0.87774 0.0
O157 O 0.02934 0.8384 0.85647 0.0
O158 O 0.01471 0.87062 0.87569 0.0
O159 O 0.97705 0.88372 0.83746 0.0
C160 C 0.02964 0.85189 0.87553 0.0
H161 H 0.04151 0.92849 0.79677 0.0
H162 H 0.95542 0.7908 0.88811 0.0
H163 H 0.97834 0.84224 0.7566 0.0
H164 H 0.01578 0.78417 0.79374 0.0
Co165 Co 0.16326 0.01357 0.86435 0.0
C166 C 0.1291 0.05423 0.8507 0.0
C167 C 0.138 0.03067 0.82108 0.0
C168 C 0.12072 0.04728 0.81365 0.0
N169 N 0.14349 0.03505 0.84429 0.0
N170 N 0.11499 0.06212 0.83228 0.0
H171 H 0.12835 0.06184 0.86861 0.0
H172 H 0.14512 0.01558 0.81055 0.0
C173 C 0.14005 0.96282 0.85739 0.0
O174 O 0.15889 0.95141 0.86668 0.0
N175 N 0.18257 0.99221 0.88453 0.0
C176 C 0.20656 0.9869 0.88277 0.0
C177 C 0.21235 0.97005 0.90037 0.0
C178 C 0.1744 0.97957 0.9038 0.0
N179 N 0.19199 0.96522 0.91331 0.0
C180 C 0.19793 0.02736 0.8292 0.0
C181 C 0.20634 0.98219 0.8083 0.0
C182 C 0.22018 1.0024 0.80058 0.0
C183 C 0.21579 0.02516 0.8115 0.0
C184 C 0.18888 0.98511 0.8266 0.0
N185 N 0.18495 0.00751 0.83699 0.0
H186 H 0.19464 0.04527 0.8368 0.0
H187 H 0.179 0.96922 0.83227 0.0
H188 H 0.2189 0.9942 0.86931 0.0
H189 H 0.15556 0.97985 0.9098 0.0
O190 O 0.18091 0.04078 0.87729 0.0
O191 O 0.14682 0.02608 0.8932 0.0
O192 O 0.13986 0.98623 0.85519 0.0
C193 C 0.16461 0.042 0.89418 0.0
H194 H 0.11212 0.04745 0.79618 0.0
H195 H 0.22987 0.96113 0.90263 0.0
H196 H 0.20875 0.96431 0.80016 0.0
H197 H 0.22616 0.04132 0.8066 0.0
Co198 Co 1.00175 0.16686 0.85866 0.0
C199 C 0.96514 0.12801 0.84997 0.0
C200 C 0.97436 0.14572 0.81677 0.0
C201 C 0.95738 0.12776 0.81222 0.0
N202 N 0.97919 0.14612 0.84058 0.0
N203 N 0.95153 0.11668 0.83316 0.0
H204 H 0.96449 0.12332 0.86883 0.0
H205 H 0.98282 0.15709 0.8032 0.0
C206 C 0.03638 0.13279 0.83297 0.0
O207 O 0.02593 0.13861 0.81256 0.0
N208 N 0.02391 0.18624 0.87735 0.0
C209 C 0.02492 0.21079 0.87968 0.0
C210 C 0.04022 0.21621 0.89861 0.0
C211 C 0.03824 0.17708 0.89475 0.0
N212 N 0.04834 0.19492 0.90817 0.0
C213 C 0.99042 0.20039 0.82142 0.0
C214 C 0.0373 0.20853 0.80456 0.0
C215 C 0.01793 0.2223 0.79504 0.0
C216 C 0.9943 0.21796 0.80366 0.0
C217 C 0.03264 0.19126 0.82279 0.0
N218 N 0.00928 0.18691 0.83053 0.0
H219 H 0.972 0.19756 0.8279 0.0
H220 H 0.04784 0.18194 0.83112 0.0
H221 H 0.01438 0.22371 0.8692 0.0
H222 H 0.04044 0.15763 0.89798 0.0
O223 O 0.97498 0.18646 0.87027 0.0
O224 O 0.9892 0.15344 0.88873 0.0
O225 O 0.0291 0.14261 0.8526 0.0
C226 C 0.9738 0.17173 0.88854 0.0
H227 H 0.95018 0.12306 0.79474 0.0
H228 H 0.04408 0.23435 0.90549 0.0
H229 H 0.05589 0.21167 0.79855 0.0
H230 H 0.97883 0.22807 0.79667 0.0
Co231 Co 0.8458 0.01692 0.85302 0.0
C232 C 0.83743 0.05318 0.89234 0.0
C233 C 0.80446 0.04767 0.8726 0.0
C234 C 0.79979 0.06404 0.89078 0.0
N235 N 0.82821 0.04076 0.87329 0.0
N236 N 0.82049 0.06752 0.90326 0.0
H237 H 0.85598 0.05127 0.89864 0.0
H238 H 0.79069 0.04067 0.86067 0.0
C239 C 0.81728 0.98454 0.8866 0.0
O240 O 0.79756 0.99715 0.88146 0.0
N241 N 0.86379 0.99333 0.83381 0.0
C242 C 0.86341 0.99058 0.80972 0.0
C243 C 0.87843 0.97121 0.80356 0.0
C244 C 0.87939 0.97602 0.84194 0.0
N245 N 0.88851 0.96218 0.82382 0.0
C246 C 0.80884 0.0303 0.82001 0.0
C247 C 0.78972 0.98422 0.81194 0.0
C248 C 0.78081 0.00418 0.79851 0.0
C249 C 0.7904 0.02748 0.8032 0.0
C250 C 0.80801 0.98797 0.82918 0.0
N251 N 0.81705 0.01095 0.83331 0.0
H252 H 0.81635 0.0484 0.82267 0.0
H253 H 0.81565 0.97228 0.83836 0.0
H254 H 0.85282 1.00175 0.79751 0.0
H255 H 0.88367 0.97336 0.86075 0.0
O256 O 0.85899 0.04306 0.83387 0.0
O257 O 0.87676 0.02809 0.86639 0.0
O258 O 0.8377 0.9899 0.87664 0.0
C259 C 0.87724 0.04371 0.84857 0.0
H260 H 0.78234 0.07258 0.89459 0.0
H261 H 0.8819 0.96444 0.78556 0.0
H262 H 0.78336 0.96575 0.80859 0.0
H263 H 0.78391 0.04362 0.79382 0.0
Co264 Co 0.14645 0.17087 0.01047 0.0
C265 C 0.15818 0.13096 0.97701 0.0
C266 C 0.17495 0.16477 0.96583 0.0
C267 C 0.17982 0.14714 0.94877 0.0
N268 N 0.16169 0.15447 0.98363 0.0
N269 N 0.16916 0.12596 0.95579 0.0
H270 H 0.14733 0.11801 0.98725 0.0
H271 H 0.18004 0.18392 0.96497 0.0
C272 C 0.16705 0.14338 0.05207 0.0
O273 O 0.17353 0.16474 0.06093 0.0
N274 N 0.12958 0.18665 0.03738 0.0
C275 C 0.11919 0.20921 0.03786 0.0
C276 C 0.10352 0.2108 0.05731 0.0
C277 C 0.11923 0.17473 0.05621 0.0
N278 N 0.10379 0.18911 0.06881 0.0
C279 C 0.17664 0.21333 0.0146 0.0
C280 C 0.22098 0.1891 0.01238 0.0
C281 C 0.22051 0.21463 0.00911 0.0
C282 C 0.19804 0.22675 0.01115 0.0
C283 C 0.199 0.17627 0.01575 0.0
N284 N 0.17704 0.18836 0.01631 0.0
H285 H 0.15964 0.22309 0.01382 0.0
H286 H 0.19953 0.15645 0.01594 0.0
H287 H 0.12091 0.22299 0.024 0.0
H288 H 0.12106 0.15528 0.05953 0.0
O289 O 0.13268 0.19417 0.98849 0.0
O290 O 0.11503 0.15919 -0.00081 0.0
O291 O 0.15597 0.14236 0.0319 0.0
C292 C 0.11448 0.17917 0.98621 0.0
H293 H 0.18955 0.14996 0.93199 0.0
H294 H 0.09202 0.22626 0.062 0.0
H295 H 0.23793 0.17896 0.01079 0.0
H296 H 0.19682 0.24648 0.00907 0.0
Co297 Co 0.14947 0.84462 0.00039 0.0
C298 C 0.16212 0.88245 0.03486 0.0
C299 C 0.18405 0.85065 0.04187 0.0
C300 C 0.18958 0.86844 0.05856 0.0
N301 N 0.16688 0.85957 0.02687 0.0
N302 N 0.17571 0.88839 0.05411 0.0
H303 H 0.14893 0.89456 0.02655 0.0
H304 H 0.19194 0.83257 0.04138 0.0
C305 C 0.17981 0.88438 0.97865 0.0
O306 O 0.19795 0.87736 0.99242 0.0
N307 N 0.13116 0.83091 0.97431 0.0
C308 C 0.12843 0.80707 0.96877 0.0
C309 C 0.11094 0.80522 0.95115 0.0
C310 C 0.11528 0.84322 0.96031 0.0
N311 N 0.10262 0.82797 0.9459 0.0
C312 C 0.18234 0.80435 0.00553 0.0
C313 C 0.2097 0.81147 0.96422 0.0
C314 C 0.21534 0.7918 0.97946 0.0
C315 C 0.20118 0.78812 6e-05 0.0
C316 C 0.19014 0.82711 0.97014 0.0
N317 N 0.1775 0.82421 0.99129 0.0
H318 H 0.17183 0.80092 0.02163 0.0
H319 H 0.18507 0.84119 0.95747 0.0
H320 H 0.13775 0.79206 0.97756 0.0
H321 H 0.11277 0.8629 0.96109 0.0
O322 O 0.13417 0.82202 0.02225 0.0
O323 O 0.11939 0.85866 0.01317 0.0
O324 O 0.15963 0.87261 0.9789 0.0
C325 C 0.11718 0.83831 0.0253 0.0
H326 H 0.20229 0.86651 0.07329 0.0
H327 H 0.10427 0.78828 0.94351 0.0
H328 H 0.22002 0.81446 0.94781 0.0
H329 H 0.20491 0.77296 0.01212 0.0
Co330 Co 0.85807 0.16645 0.01619 0.0
C331 C 0.84761 0.12744 0.0514 0.0
C332 C 0.81538 0.14896 0.04609 0.0
C333 C 0.81012 0.13071 0.06234 0.0
N334 N 0.83909 0.14713 0.03927 0.0
N335 N 0.83046 0.11725 0.06569 0.0
H336 H 0.86607 0.12061 0.04994 0.0
H337 H 0.80206 0.1616 0.03906 0.0
C338 C 0.82953 0.13214 0.98476 0.0
O339 O 0.80982 0.13774 0.9971 0.0
N340 N 0.87738 0.18442 0.99335 0.0
C341 C 0.87953 0.20881 0.99025 0.0
C342 C 0.89641 0.21291 0.97212 0.0
C343 C 0.89293 0.17407 0.97755 0.0
N344 N 0.90483 0.19098 0.96431 0.0
C345 C 0.82215 0.20195 0.02828 0.0
C346 C 0.80092 0.20685 0.98359 0.0
C347 C 0.79125 0.22002 0.00317 0.0
C348 C 0.80234 0.21765 0.0256 0.0
C349 C 0.82066 0.19082 0.98719 0.0
N350 N 0.83029 0.18775 0.00963 0.0
H351 H 0.83025 0.20033 0.04586 0.0
H352 H 0.82829 0.18107 0.97198 0.0
H353 H 0.86973 0.22255 0.00051 0.0
H354 H 0.89534 0.15444 0.97577 0.0
O355 O 0.8716 0.18546 0.042 0.0
O356 O 0.88801 0.15124 0.02792 0.0
O357 O 0.84988 0.14232 0.98977 0.0
C358 C 0.88884 0.16921 0.04336 0.0
H359 H 0.79245 0.12724 0.07047 0.0
H360 H 0.90233 0.23064 0.96553 0.0
H361 H 0.7932 0.2088 0.9658 0.0
H362 H 0.79589 0.22807 0.04097 0.0
Co363 Co 0.84639 0.85653 -0.00125 0.0
C364 C 0.883 0.84986 0.03763 0.0
C365 C 0.87915 0.81774 0.0157 0.0
C366 C 0.89741 0.81357 0.03208 0.0
N367 N 0.86984 0.84037 0.01939 0.0
N368 N 0.89984 0.83385 0.04568 0.0
H369 H 0.88074 0.86815 0.04478 0.0
H370 H 0.87353 0.80538 0.00157 0.0
C371 C 0.86643 0.84757 0.94807 0.0
O372 O 0.8457 0.85377 0.93803 0.0
N373 N 0.82405 0.87368 0.9777 0.0
C374 C 0.79967 0.87162 0.97509 0.0
C375 C 0.79192 0.88957 0.95922 0.0
C376 C 0.8305 0.89331 0.96437 0.0
N377 N 0.81149 0.90301 0.95236 0.0
C378 C 0.82169 0.81634 0.01911 0.0
C379 C 0.80189 0.79644 0.97806 0.0
C380 C 0.79521 0.78678 0.00061 0.0
C381 C 0.80586 0.79654 0.02119 0.0
C382 C 0.81845 0.81602 0.97672 0.0
N383 N 0.82772 0.82612 0.99719 0.0
H384 H 0.82859 0.82444 0.03545 0.0
H385 H 0.82254 0.82372 0.9594 0.0
H386 H 0.78829 0.85831 0.98423 0.0
H387 H 0.84901 0.90021 0.96342 0.0
O388 O 0.82878 0.86962 0.02551 0.0
O389 O 0.85996 0.88842 0.00775 0.0
O390 O 0.86884 0.84734 0.97097 0.0
C391 C 0.8427 0.88873 0.02412 0.0
H392 H 0.90861 0.79724 0.03334 0.0
H393 H 0.77339 0.89236 0.95309 0.0
H394 H 0.79385 0.78937 0.96172 0.0
H395 H 0.80091 0.78988 0.03893 0.0
Co396 Co 0.00564 0.65311 0.66849 0.0
C397 C 0.97452 0.66489 0.6273 0.0
C398 C 0.96236 0.68341 0.65934 0.0
C399 C 0.94643 0.68878 0.6411 0.0
N400 N 0.98007 0.6687 0.65056 0.0
N401 N 0.95405 0.67706 0.62105 0.0
H402 H 0.9849 0.65304 0.61542 0.0
H403 H 0.96066 0.68915 0.67788 0.0
C404 C 0.05203 0.6697 0.64526 0.0
O405 O 0.05999 0.67447 0.667 0.0
N406 N 0.03142 0.63652 0.68603 0.0
C407 C 0.04227 0.6417 0.70722 0.0
C408 C 0.06159 0.62581 0.71044 0.0
C409 C 0.04414 0.61741 0.67696 0.0
N410 N 0.06256 0.61056 0.69143 0.0
C411 C 1.00212 0.68504 0.70902 0.0
C412 C 0.01322 0.7282 0.68524 0.0
C413 C 0.00469 0.72936 0.70903 0.0
C414 C 0.99947 0.70735 0.72099 0.0
C415 C 0.01537 0.70539 0.67376 0.0
N416 N 0.01025 0.68403 0.68576 0.0
H417 H 0.99676 0.6685 0.71833 0.0
H418 H 0.01961 0.70517 0.65478 0.0
H419 H 0.03775 0.65657 0.71916 0.0
H420 H 0.04095 0.60967 0.65933 0.0
O421 O 0.98129 0.63869 0.68945 0.0
O422 O 0.99498 0.62159 0.65594 0.0
O423 O 0.03019 0.66189 0.64234 0.0
C424 C 0.98025 0.62054 0.67439 0.0
H425 H 0.92987 0.69955 0.64272 0.0
H426 H 0.07444 0.62599 0.72517 0.0
H427 H 0.01698 0.74483 0.67521 0.0
H428 H 0.99294 0.70736 0.73943 0.0
Co429 Co 0.85215 0.50625 0.64948 0.0
C430 C 0.89386 0.5341 0.66757 0.0
C431 C 0.86143 0.54211 0.68798 0.0
C432 C 0.87964 0.55792 0.69502 0.0
N433 N 0.87044 0.52711 0.67087 0.0
N434 N 0.90002 0.55306 0.68201 0.0
H435 H 0.90561 0.52635 0.65383 0.0
H436 H 0.84253 0.5427 0.69372 0.0
C437 C 0.87151 0.45636 0.6599 0.0
O438 O 0.84848 0.44969 0.66139 0.0
N439 N 0.83458 0.48579 0.62654 0.0
C440 C 0.81185 0.48914 0.61768 0.0
C441 C 0.80815 0.47319 0.59896 0.0
C442 C 0.84479 0.46884 0.61178 0.0
N443 N 0.82888 0.46044 0.59527 0.0
C444 C 0.80707 0.50087 0.6752 0.0
C445 C 0.82557 0.4828 0.71774 0.0
C446 C 0.80032 0.48706 0.71596 0.0
C447 C 0.79125 0.49613 0.69427 0.0
C448 C 0.84086 0.48731 0.69778 0.0
N449 N 0.83144 0.49574 0.67652 0.0
H450 H 0.79967 0.51023 0.65996 0.0
H451 H 0.86035 0.48486 0.6997 0.0
H452 H 0.79929 0.5035 0.62266 0.0
H453 H 0.86373 0.46327 0.61256 0.0
O454 O 0.83289 0.53403 0.64011 0.0
O455 O 0.86727 0.52283 0.62205 0.0
O456 O 0.87674 0.47877 0.65514 0.0
C457 C 0.8488 0.53799 0.62323 0.0
H458 H 0.8774 0.57304 0.70744 0.0
H459 H 0.7919 0.47207 0.588 0.0
H460 H 0.83345 0.47645 0.73446 0.0
H461 H 0.77213 0.50095 0.69246 0.0
Co462 Co 1.0013 0.33789 0.6456 0.0
C463 C 0.96499 0.37648 0.65798 0.0
C464 C 0.96105 0.34468 0.68046 0.0
C465 C 0.94226 0.36064 0.6855 0.0
N466 N 0.97545 0.3546 0.66329 0.0
N467 N 0.9445 0.38055 0.67119 0.0
H468 H 0.97128 0.38834 0.6436 0.0
H469 H 0.96316 0.32652 0.68797 0.0
C470 C 0.04726 0.3621 0.66048 0.0
O471 O 0.05659 0.34007 0.66327 0.0
N472 N 0.02699 0.32174 0.62688 0.0
C473 C 0.03362 0.29785 0.62589 0.0
C474 C 0.053 0.29531 0.61026 0.0
C475 C 0.04201 0.33313 0.611 0.0
N476 N 0.05825 0.31747 0.60095 0.0
C477 C 0.00306 0.29438 0.67467 0.0
C478 C 0.02119 0.31536 0.71604 0.0
C479 C 0.0174 0.28992 0.71548 0.0
C480 C 0.00786 0.27957 0.69454 0.0
C481 C 0.01649 0.3295 0.69547 0.0
N482 N 0.00892 0.31873 0.67454 0.0
H483 H 0.9941 0.28615 0.65947 0.0
H484 H 0.01839 0.34916 0.69666 0.0
H485 H 0.02519 0.28286 0.63529 0.0
H486 H 0.04148 0.35264 0.60736 0.0
O487 O 0.9773 0.31634 0.63194 0.0
O488 O 0.98886 0.35175 0.61596 0.0
O489 O 0.02497 0.3648 0.6542 0.0
C490 C 0.97498 0.3324 0.61483 0.0
H491 H 0.92754 0.35733 0.69815 0.0
H492 H 0.06235 0.27838 0.60583 0.0
H493 H 0.02754 0.32427 0.73224 0.0
H494 H 0.00325 0.26027 0.6938 0.0
Co495 Co 0.16025 0.49534 0.65136 0.0
C496 C 0.12453 0.45466 0.65869 0.0
C497 C 0.13131 0.4744 0.69133 0.0
C498 C 0.11463 0.45615 0.69618 0.0
N499 N 0.13799 0.47315 0.66792 0.0
N500 N 0.11036 0.44399 0.67559 0.0
H501 H 0.12488 0.44895 0.64008 0.0
H502 H 0.13789 0.48784 0.70403 0.0
C503 C 0.13918 0.54636 0.66073 0.0
O504 O 0.15941 0.5571 0.65365 0.0
N505 N 0.18182 0.51753 0.6342 0.0
C506 C 0.20573 0.52215 0.63757 0.0
C507 C 0.21314 0.53947 0.62089 0.0
C508 C 0.17537 0.53112 0.61495 0.0
N509 N 0.19388 0.54529 0.60689 0.0
C510 C 0.18867 0.47639 0.68948 0.0
C511 C 0.20082 0.51992 0.71158 0.0
C512 C 0.21082 0.49796 0.7202 0.0
C513 C 0.20417 0.47594 0.70927 0.0
C514 C 0.185 0.51951 0.69196 0.0
N515 N 0.17942 0.49796 0.68078 0.0
H516 H 0.18416 0.45921 0.68093 0.0
H517 H 0.17827 0.53667 0.68554 0.0
H518 H 0.21696 0.51382 0.65129 0.0
H519 H 0.1571 0.53128 0.60763 0.0
O520 O 0.17826 0.46855 0.63791 0.0
O521 O 0.14634 0.48591 0.62042 0.0
O522 O 0.13712 0.52295 0.66085 0.0
C523 C 0.16381 0.46955 0.61958 0.0
H524 H 0.10585 0.45244 0.7133 0.0
H525 H 0.23109 0.5477 0.61972 0.0
H526 H 0.20553 0.53733 0.7197 0.0
H527 H 0.21164 0.45861 0.71534 0.0
Co528 Co 0.00264 0.35827 0.34361 0.0
C529 C 0.0477 0.38915 0.33626 0.0
C530 C 0.02263 0.39112 0.3068 0.0
C531 C 0.04136 0.40736 0.30252 0.0
N532 N 0.02647 0.37967 0.32798 0.0
N533 N 0.05708 0.40614 0.32104 0.0
H534 H 0.05566 0.38476 0.35349 0.0
H535 H 0.00678 0.38844 0.29557 0.0
C536 C 0.9538 0.38393 0.33452 0.0
O537 O 0.94125 0.36427 0.34025 0.0
N538 N 0.97869 0.33754 0.35978 0.0
C539 C 0.97316 0.31391 0.35524 0.0
C540 C 0.95518 0.30648 0.37113 0.0
C541 C 0.9649 0.34371 0.37915 0.0
N542 N 0.94992 0.32528 0.38609 0.0
C543 C 0.02012 0.33069 0.30428 0.0
C544 C 0.97631 0.31873 0.28308 0.0
C545 C 0.99778 0.3073 0.27479 0.0
C546 C 0.01995 0.31416 0.28521 0.0
C547 C 0.97731 0.33541 0.30226 0.0
N548 N 0.99899 0.34054 0.31324 0.0
H549 H 0.03741 0.33482 0.31262 0.0
H550 H 0.96048 0.34286 0.30882 0.0
H551 H 0.98153 0.30279 0.34136 0.0
H552 H 0.96496 0.3618 0.38718 0.0
O553 O 0.02769 0.33755 0.35623 0.0
O554 O 0.01297 0.37024 0.37508 0.0
O555 O 0.97717 0.38398 0.3352 0.0
C556 C 0.02784 0.35143 0.3751 0.0
H557 H 0.04308 0.41947 0.28715 0.0
H558 H 0.94662 0.2886 0.37164 0.0
H559 H 0.95876 0.31425 0.27536 0.0
H560 H 0.03703 0.30577 0.2797 0.0
Co561 Co 0.16368 0.51636 0.3455 0.0
C562 C 0.12637 0.54945 0.32714 0.0
C563 C 0.15946 0.55275 0.30658 0.0
C564 C 0.14424 0.57197 0.30074 0.0
N565 N 0.14827 0.53874 0.3233 0.0
N566 N 0.1236 0.5701 0.31402 0.0
H567 H 0.11403 0.54396 0.34143 0.0
H568 H 0.17825 0.55071 0.30084 0.0
C569 C 0.14166 0.46719 0.33434 0.0
O570 O 0.16345 0.45728 0.33642 0.0
N571 N 0.17855 0.49459 0.36888 0.0
C572 C 0.20159 0.49515 0.37745 0.0
C573 C 0.20339 0.47923 0.39643 0.0
C574 C 0.16641 0.47921 0.38381 0.0
N575 N 0.1813 0.46912 0.40034 0.0
C576 C 0.21053 0.51322 0.32288 0.0
C577 C 0.19707 0.48925 0.28143 0.0
C578 C 0.22189 0.49525 0.28462 0.0
C579 C 0.22832 0.50716 0.30597 0.0
C580 C 0.1798 0.49499 0.29943 0.0
N581 N 0.18679 0.50618 0.3203 0.0
H582 H 0.21603 0.52452 0.33769 0.0
H583 H 0.16076 0.49124 0.29608 0.0
H584 H 0.21597 0.50725 0.37175 0.0
H585 H 0.14703 0.47562 0.38271 0.0
O586 O 0.18213 0.54329 0.35828 0.0
O587 O 0.146 0.53152 0.37209 0.0
O588 O 0.13888 0.4904 0.3366 0.0
C589 C 0.16449 0.54644 0.37364 0.0
H590 H 0.14892 0.58722 0.28913 0.0
H591 H 0.21958 0.47597 0.40706 0.0
H592 H 0.1908 0.48093 0.26492 0.0
H593 H 0.24699 0.51231 0.30971 0.0
Co594 Co 0.00906 0.66706 0.35648 0.0
C595 C 0.97735 0.62707 0.34101 0.0
C596 C 0.9699 0.65995 0.32108 0.0
C597 C 0.95223 0.64286 0.31583 0.0
N598 N 0.98565 0.64998 0.33683 0.0
N599 N 0.95674 0.62224 0.32859 0.0
H600 H 0.98541 0.61487 0.35411 0.0
H601 H 0.97004 0.67889 0.31528 0.0
C602 C 0.05713 0.64667 0.34211 0.0
O603 O 0.06519 0.66936 0.34282 0.0
N604 N 0.03214 0.68339 0.37758 0.0
C605 C 0.03348 0.70733 0.38363 0.0
C606 C 0.04874 0.70983 0.40295 0.0
C607 C 0.0462 0.67169 0.39394 0.0
N608 N 0.05675 0.68742 0.40951 0.0
C609 C 0.00938 0.71225 0.33065 0.0
C610 C 0.02882 0.69529 0.28788 0.0
C611 C 0.02163 0.71987 0.28976 0.0
C612 C 0.01193 0.72828 0.31142 0.0
C613 C 0.02596 0.67967 0.3078 0.0
N614 N 0.01709 0.68844 0.32924 0.0
H615 H 0.99958 0.71891 0.34609 0.0
H616 H 0.02969 0.66037 0.30547 0.0
H617 H 0.02305 0.7221 0.37608 0.0
H618 H 0.04803 0.65195 0.39477 0.0
O619 O 0.98324 0.68656 0.3694 0.0
O620 O 0.99535 0.65122 0.38501 0.0
O621 O 0.03477 0.64214 0.3472 0.0
C622 C 0.98077 0.67017 0.38606 0.0
H623 H 0.93622 0.64618 0.30496 0.0
H624 H 0.05253 0.72684 0.41221 0.0
H625 H 0.03532 0.68797 0.2709 0.0
H626 H 0.00513 0.7469 0.3131 0.0
Co627 Co 0.85477 0.51864 0.34827 0.0
C628 C 0.84605 0.56076 0.38174 0.0
C629 C 0.81801 0.5334 0.38391 0.0
C630 C 0.81364 0.55073 0.40143 0.0
N631 N 0.83841 0.53957 0.37161 0.0
N632 N 0.83128 0.56787 0.4 0.0
H633 H 0.86266 0.57026 0.37688 0.0
H634 H 0.80755 0.51686 0.38099 0.0
C635 C 0.85163 0.46679 0.36948 0.0
O636 O 0.85716 0.45675 0.34874 0.0
N637 N 0.87155 0.49776 0.32526 0.0
C638 C 0.86437 0.49061 0.30319 0.0
C639 C 0.88029 0.47278 0.29504 0.0
C640 C 0.8925 0.48543 0.32949 0.0
N641 N 0.8978 0.46944 0.31173 0.0
C642 C 0.81407 0.53438 0.32082 0.0
C643 C 0.79052 0.48995 0.31618 0.0
C644 C 0.78168 0.51019 0.3032 0.0
C645 C 0.79344 0.53279 0.30626 0.0
C646 C 0.81137 0.49231 0.33046 0.0
N647 N 0.82347 0.51416 0.33198 0.0
H648 H 0.82289 0.55197 0.32261 0.0
H649 H 0.81783 0.47626 0.3395 0.0
H650 H 0.848 0.49672 0.2942 0.0
H651 H 0.90186 0.48582 0.34659 0.0
O652 O 0.86606 0.54647 0.32998 0.0
O653 O 0.8865 0.52949 0.35994 0.0
O654 O 0.84896 0.49011 0.37146 0.0
C655 C 0.88568 0.54601 0.34295 0.0
H656 H 0.79892 0.55049 0.41451 0.0
H657 H 0.87822 0.46191 0.27889 0.0
H658 H 0.78172 0.47222 0.31495 0.0
H659 H 0.78748 0.54902 0.29668 0.0
Co660 Co 0.15843 0.65919 0.50792 0.0
C661 C 0.16256 0.62572 0.46554 0.0
C662 C 0.19775 0.63915 0.47561 0.0
C663 C 0.2006 0.62412 0.45607 0.0
N664 N 0.1738 0.64052 0.48165 0.0
N665 N 0.17847 0.61576 0.44965 0.0
H666 H 0.14312 0.6224 0.46511 0.0
H667 H 0.21264 0.64812 0.48466 0.0
C668 C 0.18818 0.62225 0.53598 0.0
O669 O 0.20806 0.62929 0.52472 0.0
N670 N 0.14269 0.67675 0.53398 0.0
C671 C 0.1442 0.70078 0.53939 0.0
C672 C 0.12944 0.70541 0.5591 0.0
C673 C 0.12675 0.66719 0.55007 0.0
N674 N 0.1184 0.68429 0.56567 0.0
C675 C 0.1953 0.69155 0.49253 0.0
C676 C 0.22087 0.69663 0.53486 0.0
C677 C 0.22908 0.70897 0.51408 0.0
C678 C 0.21578 0.70639 0.49291 0.0
C679 C 0.20017 0.68132 0.53358 0.0
N680 N 0.18819 0.67835 0.51225 0.0
H681 H 0.18555 0.68996 0.47578 0.0
H682 H 0.19366 0.67215 0.54963 0.0
H683 H 0.15511 0.71403 0.52963 0.0
H684 H 0.12149 0.64806 0.5504 0.0
O685 O 0.14386 0.68114 0.48533 0.0
O686 O 0.12634 0.64698 0.49814 0.0
O687 O 0.16769 0.63258 0.5316 0.0
C688 C 0.12535 0.66649 0.48449 0.0
H689 H 0.21777 0.61939 0.44751 0.0
H690 H 0.12668 0.72303 0.56766 0.0
H691 H 0.23028 0.69882 0.55181 0.0
H692 H 0.22083 0.71626 0.4767 0.0
Co693 Co 0.15685 0.35642 0.48857 0.0
C694 C 0.11481 0.34544 0.45862 0.0
C695 C 0.14606 0.32455 0.44709 0.0
C696 C 0.12725 0.32055 0.43122 0.0
N697 N 0.13811 0.34005 0.46428 0.0
N698 N 0.10771 0.33387 0.43841 0.0
H699 H 0.10368 0.35841 0.46855 0.0
H700 H 0.16453 0.31769 0.44541 0.0
C701 C 0.13665 0.33818 0.53499 0.0
O702 O 0.1593 0.33534 0.54223 0.0
N703 N 0.17471 0.3741 0.51312 0.0
C704 C 0.19894 0.37638 0.51694 0.0
C705 C 0.20253 0.39291 0.53523 0.0
C706 C 0.16407 0.3898 0.52879 0.0
N707 N 0.18059 0.40134 0.54264 0.0
C708 C 0.20057 0.32885 0.48295 0.0
C709 C 0.18477 0.28427 0.50056 0.0
C710 C 0.20921 0.28686 0.49316 0.0
C711 C 0.21671 0.30931 0.48372 0.0
C712 C 0.16895 0.30469 0.49952 0.0
N713 N 0.17738 0.32711 0.49202 0.0
H714 H 0.20714 0.34548 0.47479 0.0
H715 H 0.15 0.30231 0.50447 0.0
H716 H 0.21338 0.36756 0.50703 0.0
H717 H 0.14453 0.39263 0.52998 0.0
O718 O 0.17594 0.37186 0.46414 0.0
O719 O 0.1419 0.38764 0.47917 0.0
O720 O 0.13229 0.34558 0.51362 0.0
C721 C 0.16044 0.38973 0.46447 0.0
H722 H 0.1284 0.30991 0.41482 0.0
H723 H 0.22005 0.39877 0.54209 0.0
H724 H 0.17812 0.26689 0.50736 0.0
H725 H 0.23515 0.31181 0.47693 0.0
Co726 Co 0.86179 0.6691 0.51193 0.0
C727 C 0.84667 0.62792 0.54152 0.0
C728 C 0.82725 0.66051 0.55192 0.0
C729 C 0.82244 0.64231 0.56853 0.0
N730 N 0.84241 0.65134 0.53503 0.0
N731 N 0.83494 0.62192 0.56211 0.0
H732 H 0.85938 0.61605 0.53213 0.0
H733 H 0.8216 0.67948 0.55313 0.0
C734 C 0.8479 0.64861 0.46417 0.0
O735 O 0.84832 0.67113 0.45572 0.0
N736 N 0.88254 0.68591 0.48894 0.0
C737 C 0.88702 0.71006 0.48573 0.0
C738 C 0.90478 0.71268 0.46839 0.0
C739 C 0.89839 0.6743 0.47418 0.0
N740 N 0.91181 0.69018 0.46113 0.0
C741 C 0.83558 0.71425 0.51293 0.0
C742 C 0.79283 0.69845 0.49215 0.0
C743 C 0.79497 0.72331 0.49865 0.0
C744 C 0.81687 0.73096 0.50907 0.0
C745 C 0.8125 0.68231 0.4958 0.0
N746 N 0.83403 0.69058 0.50513 0.0
H747 H 0.85126 0.72057 0.52269 0.0
H748 H 0.81006 0.66311 0.49175 0.0
H749 H 0.87893 0.72503 0.49547 0.0
H750 H 0.89977 0.65454 0.4728 0.0
O751 O 0.87566 0.68801 0.53739 0.0
O752 O 0.89088 0.65279 0.52427 0.0
O753 O 0.85211 0.64454 0.48644 0.0
C754 C 0.89235 0.67126 0.53909 0.0
H755 H 0.81207 0.64455 0.58502 0.0
H756 H 0.91229 0.72985 0.46196 0.0
H757 H 0.77593 0.69131 0.48496 0.0
H758 H 0.81971 0.74979 0.51453 0.0
Co759 Co 0.84782 0.35241 0.49979 0.0
C760 C 0.88841 0.3372 0.53072 0.0
C761 C 0.85462 0.32069 0.54199 0.0
C762 C 0.87242 0.31446 0.55823 0.0
N763 N 0.86476 0.33469 0.52464 0.0
N764 N 0.89361 0.32498 0.55122 0.0
H765 H 0.90121 0.34856 0.52087 0.0
H766 H 0.8354 0.31631 0.54339 0.0
C767 C 0.87072 0.33311 0.45459 0.0
O768 O 0.84852 0.32856 0.44692 0.0
N769 N 0.83126 0.37155 0.47503 0.0
C770 C 0.80878 0.38188 0.47625 0.0
C771 C 0.80662 0.39935 0.45852 0.0
C772 C 0.8426 0.38375 0.45693 0.0
N773 N 0.82792 0.40049 0.44642 0.0
C774 C 0.80343 0.32504 0.49979 0.0
C775 C 0.82424 0.2791 0.49527 0.0
C776 C 0.79961 0.28093 0.50229 0.0
C777 C 0.78914 0.30429 0.50368 0.0
C778 C 0.83804 0.30052 0.49155 0.0
N779 N 0.82769 0.32328 0.49422 0.0
H780 H 0.79521 0.34246 0.50358 0.0
H781 H 0.85748 0.29874 0.48856 0.0
H782 H 0.79553 0.37912 0.49039 0.0
H783 H 0.86187 0.38206 0.45286 0.0
O784 O 0.82753 0.36718 0.52405 0.0
O785 O 0.86266 0.38266 0.51112 0.0
O786 O 0.87381 0.34208 0.47563 0.0
C787 C 0.84373 0.38447 0.52537 0.0
H788 H 0.86962 0.3043 0.57475 0.0
H789 H 0.791 0.41115 0.45554 0.0
H790 H 0.83313 0.26138 0.4941 0.0
H791 H 0.77013 0.30664 0.50871 0.0
Co792 Co 0.4994 0.14737 0.66537 0.0
C793 C 0.46918 0.15944 0.62328 0.0
C794 C 0.45696 0.17843 0.65502 0.0
C795 C 0.44144 0.18406 0.63649 0.0
N796 N 0.47447 0.16325 0.64664 0.0
N797 N 0.44909 0.17207 0.61658 0.0
H798 H 0.47948 0.14727 0.61164 0.0
H799 H 0.45508 0.18435 0.67349 0.0
C800 C 0.54652 0.16297 0.64359 0.0
O801 O 0.55365 0.16723 0.66572 0.0
N802 N 0.52445 0.13035 0.68365 0.0
C803 C 0.53377 0.13456 0.70573 0.0
C804 C 0.55282 0.1185 0.70958 0.0
C805 C 0.53773 0.11151 0.67471 0.0
N806 N 0.55516 0.10403 0.69009 0.0
C807 C 0.49617 0.18049 0.70515 0.0
C808 C 0.50941 0.2225 0.68048 0.0
C809 C 0.50112 0.22454 0.70426 0.0
C810 C 0.49457 0.20316 0.71663 0.0
C811 C 0.51036 0.19942 0.66948 0.0
N812 N 0.5045 0.17855 0.682 0.0
H813 H 0.48981 0.16449 0.71474 0.0
H814 H 0.51444 0.19865 0.65049 0.0
H815 H 0.52823 0.14872 0.71806 0.0
H816 H 0.53558 0.10437 0.65668 0.0
O817 O 0.4745 0.13431 0.68633 0.0
O818 O 0.48802 0.11577 0.65347 0.0
O819 O 0.52478 0.15525 0.6397 0.0
C820 C 0.47314 0.11572 0.67188 0.0
H821 H 0.42511 0.19521 0.63786 0.0
H822 H 0.56452 0.11796 0.72522 0.0
H823 H 0.51405 0.2387 0.67013 0.0
H824 H 0.48798 0.20396 0.73503 0.0
Co825 Co 0.34042 0.00608 0.65305 0.0
C826 C 0.3834 0.03273 0.66953 0.0
C827 C 0.35172 0.04305 0.6901 0.0
C828 C 0.37081 0.05818 0.69631 0.0
N829 N 0.35971 0.02709 0.67336 0.0
N830 N 0.39069 0.05185 0.68317 0.0
H831 H 0.39459 0.02387 0.65598 0.0
H832 H 0.33299 0.04474 0.69615 0.0
C833 C 0.35842 0.95563 0.6635 0.0
O834 O 0.33576 0.94783 0.66232 0.0
N835 N 0.32199 0.9852 0.63137 0.0
C836 C 0.29775 0.98441 0.62701 0.0
C837 C 0.2937 0.97008 0.60717 0.0
C838 C 0.33224 0.9717 0.61359 0.0
N839 N 0.31539 0.96208 0.59867 0.0
C840 C 0.29624 0.00827 0.67986 0.0
C841 C 0.31218 0.98602 0.72151 0.0
C842 C 0.28843 0.99578 0.72073 0.0
C843 C 0.28044 0.0063 0.69925 0.0
C844 C 0.32741 0.98777 0.70112 0.0
N845 N 0.31916 0.99844 0.68037 0.0
H846 H 0.29015 0.01908 0.66488 0.0
H847 H 0.34616 0.98185 0.70262 0.0
H848 H 0.28364 0.99431 0.63632 0.0
H849 H 0.35177 0.96939 0.61146 0.0
O850 O 0.32298 0.03409 0.64177 0.0
O851 O 0.35691 0.01978 0.62497 0.0
O852 O 0.36335 0.97831 0.66042 0.0
C853 C 0.33943 0.03607 0.62509 0.0
H854 H 0.36956 0.07382 0.70824 0.0
H855 H 0.2761 0.96674 0.59905 0.0
H856 H 0.31932 0.97829 0.73799 0.0
H857 H 0.2623 0.01408 0.69764 0.0
Co858 Co 0.48814 0.84412 0.64726 0.0
C859 C 0.44464 0.87181 0.6648 0.0
C860 C 0.47563 0.877 0.68754 0.0
C861 C 0.45748 0.89282 0.69482 0.0
N862 N 0.46772 0.86381 0.66857 0.0
N863 N 0.43811 0.88967 0.68035 0.0
H864 H 0.43342 0.86635 0.64983 0.0
H865 H 0.49397 0.87687 0.69451 0.0
C866 C 0.53937 0.86086 0.65774 0.0
O867 O 0.54671 0.8379 0.65738 0.0
N868 N 0.50858 0.82538 0.62555 0.0
C869 C 0.5096 0.801 0.62149 0.0
C870 C 0.52599 0.79665 0.60312 0.0
C871 C 0.52366 0.83547 0.60909 0.0
N872 N 0.53482 0.81838 0.59543 0.0
C873 C 0.48233 0.7993 0.67313 0.0
C874 C 0.51328 0.80851 0.71098 0.0
C875 C 0.50171 0.78562 0.70962 0.0
C876 C 0.48598 0.78127 0.69041 0.0
C877 C 0.50918 0.82615 0.69307 0.0
N878 N 0.49454 0.82115 0.67378 0.0
H879 H 0.46979 0.79511 0.65889 0.0
H880 H 0.51777 0.84371 0.69517 0.0
H881 H 0.49899 0.78715 0.63056 0.0
H882 H 0.52669 0.85502 0.60752 0.0
O883 O 0.46002 0.82793 0.63435 0.0
O884 O 0.47574 0.86198 0.6193 0.0
O885 O 0.5168 0.86621 0.6549 0.0
C886 C 0.45962 0.84448 0.61764 0.0
H887 H 0.45902 0.90667 0.70866 0.0
H888 H 0.53075 0.77888 0.59579 0.0
H889 H 0.52498 0.81298 0.72598 0.0
H890 H 0.47657 0.76392 0.68854 0.0
Co891 Co 0.65762 0.99049 0.65449 0.0
C892 C 0.62172 0.94971 0.66016 0.0
C893 C 0.63063 0.96571 0.69419 0.0
C894 C 0.61399 0.94712 0.69803 0.0
N895 N 0.63601 0.96699 0.67045 0.0
N896 N 0.60841 0.93729 0.67658 0.0
H897 H 0.62074 0.94616 0.64107 0.0
H898 H 0.63788 0.97771 0.70787 0.0
C899 C 0.63411 0.0406 0.6633 0.0
O900 O 0.65419 0.05203 0.65691 0.0
N901 N 0.67856 0.0137 0.63782 0.0
C902 C 0.70221 0.0191 0.64182 0.0
C903 C 0.70953 0.03664 0.62534 0.0
C904 C 0.6722 0.02712 0.6184 0.0
N905 N 0.6905 0.04186 0.61082 0.0
C906 C 0.68743 0.97313 0.69258 0.0
C907 C 0.69573 0.0171 0.71562 0.0
C908 C 0.70768 0.99597 0.72382 0.0
C909 C 0.70295 0.97368 0.71242 0.0
C910 C 0.67991 0.01566 0.69602 0.0
N911 N 0.67628 0.99396 0.68429 0.0
H912 H 0.68443 0.95578 0.68373 0.0
H913 H 0.67152 0.03226 0.69014 0.0
H914 H 0.71334 0.01111 0.6558 0.0
H915 H 0.65416 0.02671 0.61056 0.0
O916 O 0.67698 0.96448 0.64108 0.0
O917 O 0.64461 0.98063 0.62333 0.0
O918 O 0.63299 0.01709 0.6636 0.0
C919 C 0.66252 0.96475 0.62273 0.0
H920 H 0.60601 0.94176 0.7151 0.0
H921 H 0.72725 0.04538 0.62463 0.0
H922 H 0.69888 0.03469 0.72411 0.0
H923 H 0.7119 0.95695 0.71819 0.0
Co924 Co 0.5013 0.85245 0.34463 0.0
C925 C 0.54765 0.87785 0.33014 0.0
C926 C 0.51747 0.88857 0.30824 0.0
C927 C 0.53675 0.90375 0.30315 0.0
N928 N 0.52406 0.87211 0.32524 0.0
N929 N 0.55561 0.8973 0.3172 0.0
H930 H 0.55824 0.86969 0.3444 0.0
H931 H 0.49925 0.89145 0.30158 0.0
C932 C 0.45376 0.87464 0.32736 0.0
O933 O 0.44537 0.85286 0.32162 0.0
N934 N 0.47826 0.83418 0.36503 0.0
C935 C 0.48213 0.81284 0.37694 0.0
C936 C 0.46369 0.80924 0.39356 0.0
C937 C 0.45779 0.84347 0.37543 0.0
N938 N 0.44838 0.82849 0.39242 0.0
C939 C 0.50235 0.80703 0.32014 0.0
C940 C 0.49044 0.82252 0.27449 0.0
C941 C 0.49936 0.79861 0.27776 0.0
C942 C 0.50465 0.79084 0.30102 0.0
C943 C 0.48873 0.8385 0.29435 0.0
N944 N 0.49514 0.83083 0.31697 0.0
H945 H 0.508 0.80042 0.33739 0.0
H946 H 0.48268 0.85695 0.29115 0.0
H947 H 0.49818 0.80142 0.37537 0.0
H948 H 0.45087 0.86174 0.37233 0.0
O949 O 0.52777 0.83367 0.35701 0.0
O950 O 0.51386 0.86763 0.37403 0.0
O951 O 0.47492 0.87697 0.33661 0.0
C952 C 0.52898 0.84905 0.37464 0.0
H953 H 0.53624 0.91961 0.29143 0.0
H954 H 0.46214 0.79411 0.40611 0.0
H955 H 0.48576 0.82908 0.25671 0.0
H956 H 0.51109 0.77235 0.30442 0.0
Co957 Co 0.65839 0.00655 0.35506 0.0
C958 C 0.63437 0.05298 0.33876 0.0
C959 C 0.62481 0.0226 0.31647 0.0
C960 C 0.60969 0.04196 0.31102 0.0
N961 N 0.64036 0.02923 0.33413 0.0
N962 N 0.61547 0.06098 0.32529 0.0
H963 H 0.642 0.06375 0.35314 0.0
H964 H 0.62261 0.00432 0.30947 0.0
C965 C 0.63862 0.95734 0.3396 0.0
O966 O 0.6609 0.94831 0.33934 0.0
N967 N 0.67506 0.98402 0.37694 0.0
C968 C 0.69724 0.98629 0.38738 0.0
C969 C 0.70027 0.96775 0.40398 0.0
C970 C 0.6646 0.96484 0.38846 0.0
N971 N 0.67978 0.95421 0.40433 0.0
C972 C 0.70516 0.00576 0.33263 0.0
C973 C 0.69306 0.98422 0.28955 0.0
C974 C 0.71761 0.99048 0.29369 0.0
C975 C 0.72338 1.00112 0.3158 0.0
C976 C 0.67529 0.98862 0.30738 0.0
N977 N 0.6815 0.99888 0.32897 0.0
H978 H 0.71041 0.01543 0.34855 0.0
H979 H 0.65672 0.98372 0.30352 0.0
H980 H 0.71001 1.00102 0.38447 0.0
H981 H 0.64582 0.95927 0.38619 0.0
O982 O 0.67635 0.0332 0.36824 0.0
O983 O 0.6412 0.01993 0.38315 0.0
O984 O 0.63483 0.9797 0.3456 0.0
C985 C 0.65968 0.035 0.38472 0.0
H986 H 0.59447 0.04146 0.29868 0.0
H987 H 0.71616 0.96459 0.41508 0.0
H988 H 0.68744 0.97645 0.27254 0.0
H989 H 0.74193 0.00615 0.32025 0.0
Co990 Co 0.50917 0.17036 0.35854 0.0
C991 C 0.47751 0.13106 0.34152 0.0
C992 C 0.4704 0.16443 0.32225 0.0
C993 C 0.45323 0.14722 0.31578 0.0
N994 N 0.48563 0.15419 0.33833 0.0
N995 N 0.45756 0.12629 0.3281 0.0
H996 H 0.48536 0.11847 0.3544 0.0
H997 H 0.47073 0.18347 0.31677 0.0
C998 C 0.55703 0.14643 0.34654 0.0
O999 O 0.5673 0.16813 0.34808 0.0
N1000 N 0.53246 0.1856 0.38011 0.0
C1001 C 0.53593 0.20954 0.38509 0.0
C1002 C 0.551 0.21147 0.40466 0.0
C1003 C 0.5451 0.17338 0.39722 0.0
N1004 N 0.55683 0.18872 0.41234 0.0
C1005 C 0.51067 0.21538 0.33239 0.0
C1006 C 0.53112 0.19801 0.29023 0.0
C1007 C 0.52307 0.22242 0.29133 0.0
C1008 C 0.51301 0.23105 0.31278 0.0
C1009 C 0.52834 0.18272 0.31048 0.0
N1010 N 0.51859 0.19159 0.3315 0.0
H1011 H 0.50095 0.22233 0.34779 0.0
H1012 H 0.53269 0.1635 0.3086 0.0
H1013 H 0.52739 0.22484 0.3763 0.0
H1014 H 0.5453 0.1536 0.39869 0.0
O1015 O 0.48368 0.19083 0.37129 0.0
O1016 O 0.49408 0.15492 0.38665 0.0
O1017 O 0.53396 0.14417 0.34977 0.0
C1018 C 0.48009 0.17431 0.38763 0.0
H1019 H 0.43774 0.1505 0.30418 0.0
H1020 H 0.55639 0.22849 0.41309 0.0
H1021 H 0.53818 0.1905 0.27355 0.0
H1022 H 0.50589 0.24957 0.31404 0.0
Co1023 Co 0.35672 0.02075 0.34042 0.0
C1024 C 0.34528 0.05444 0.38057 0.0
C1025 C 0.31801 0.05778 0.35329 0.0
C1026 C 0.31183 0.07303 0.37196 0.0
N1027 N 0.33904 0.04591 0.35859 0.0
N1028 N 0.32893 0.07091 0.3891 0.0
H1029 H 0.36111 0.0482 0.39044 0.0
H1030 H 0.307 0.0555 0.33755 0.0
C1031 C 0.32834 0.99307 0.37787 0.0
O1032 O 0.30983 0.00788 0.37402 0.0
N1033 N 0.37446 0.9958 0.32292 0.0
C1034 C 0.37429 0.99185 0.29899 0.0
C1035 C 0.38726 0.97071 0.29417 0.0
C1036 C 0.38777 0.97733 0.33231 0.0
N1037 N 0.39571 0.96166 0.31514 0.0
C1038 C 0.32193 0.03031 0.3036 0.0
C1039 C 0.29521 0.98759 0.3077 0.0
C1040 C 0.28736 0.00588 0.29172 0.0
C1041 C 0.30138 0.02715 0.28939 0.0
C1042 C 0.3159 0.99166 0.3219 0.0
N1043 N 0.32809 0.01354 0.32082 0.0
H1044 H 0.33217 0.04707 0.30154 0.0
H1045 H 0.32219 0.97706 0.33342 0.0
H1046 H 0.36494 0.00322 0.28601 0.0
H1047 H 0.39093 0.97497 0.35139 0.0
O1048 O 0.37107 0.04578 0.32028 0.0
O1049 O 0.38719 0.03241 0.35423 0.0
O1050 O 0.34805 0.99544 0.36566 0.0
C1051 C 0.38855 0.04723 0.33586 0.0
H1052 H 0.29595 0.08487 0.37281 0.0
H1053 H 0.39028 0.96261 0.27663 0.0
H1054 H 0.28542 0.97041 0.30928 0.0
H1055 H 0.29662 0.04126 0.27648 0.0
Co1056 Co 0.65711 0.15621 0.51132 0.0
C1057 C 0.66029 0.12016 0.47139 0.0
C1058 C 0.6957 0.1348 0.47895 0.0
C1059 C 0.698 0.11792 0.46085 0.0
N1060 N 0.67192 0.13662 0.48555 0.0
N1061 N 0.67575 0.10878 0.45608 0.0
H1062 H 0.64092 0.11648 0.47205 0.0
H1063 H 0.71087 0.14425 0.48702 0.0
C1064 C 0.68565 0.11866 0.53958 0.0
O1065 O 0.70558 0.12513 0.52806 0.0
N1066 N 0.64159 0.17422 0.53706 0.0
C1067 C 0.64341 0.19808 0.54305 0.0
C1068 C 0.62775 0.20259 0.56216 0.0
C1069 C 0.62472 0.16469 0.55214 0.0
N1070 N 0.61592 0.18157 0.56765 0.0
C1071 C 0.69501 0.18748 0.4959 0.0
C1072 C 0.7205 0.19232 0.53829 0.0
C1073 C 0.72917 0.20425 0.51744 0.0
C1074 C 0.7159 0.20179 0.49624 0.0
C1075 C 0.69941 0.17749 0.53704 0.0
N1076 N 0.68745 0.17459 0.51569 0.0
H1077 H 0.68536 0.18598 0.47909 0.0
H1078 H 0.69261 0.16863 0.55314 0.0
H1079 H 0.65502 0.21129 0.53404 0.0
H1080 H 0.61902 0.14569 0.55174 0.0
O1081 O 0.6435 0.17844 0.48838 0.0
O1082 O 0.6246 0.14511 0.50122 0.0
O1083 O 0.6654 0.12953 0.5353 0.0
C1084 C 0.62447 0.16452 0.48741 0.0
H1085 H 0.71492 0.11238 0.45225 0.0
H1086 H 0.62489 0.22006 0.57098 0.0
H1087 H 0.72989 0.19441 0.55526 0.0
H1088 H 0.72134 0.21132 0.47996 0.0
Co1089 Co 0.64462 0.84131 0.50323 0.0
C1090 C 0.65925 0.87995 0.53619 0.0
C1091 C 0.67733 0.84614 0.54501 0.0
C1092 C 0.68301 0.86341 0.56219 0.0
N1093 N 0.66253 0.85668 0.52874 0.0
N1094 N 0.67146 0.8846 0.55669 0.0
H1095 H 0.64735 0.89288 0.52722 0.0
H1096 H 0.68262 0.82702 0.54507 0.0
C1097 C 0.66056 0.86701 0.45864 0.0
O1098 O 0.66074 0.84561 0.44779 0.0
N1099 N 0.62535 0.82693 0.47771 0.0
C1100 C 0.62219 0.80328 0.47126 0.0
C1101 C 0.60527 0.80228 0.45315 0.0
C1102 C 0.60959 0.83979 0.46395 0.0
N1103 N 0.59746 0.82525 0.44855 0.0
C1104 C 0.67196 0.79673 0.50089 0.0
C1105 C 0.71592 0.81649 0.48614 0.0
C1106 C 0.71425 0.7912 0.49031 0.0
C1107 C 0.69198 0.78135 0.49768 0.0
C1108 C 0.69508 0.83124 0.48891 0.0
N1109 N 0.67315 0.82117 0.49552 0.0
H1110 H 0.65576 0.78892 0.50881 0.0
H1111 H 0.69699 0.85084 0.48693 0.0
H1112 H 0.63073 0.78748 0.47912 0.0
H1113 H 0.60741 0.8595 0.46495 0.0
O1114 O 0.62966 0.81956 0.52602 0.0
O1115 O 0.61478 0.85591 0.51573 0.0
O1116 O 0.65521 0.86857 0.48099 0.0
C1117 C 0.61261 0.83591 0.52843 0.0
H1118 H 0.69366 0.86015 0.57824 0.0
H1119 H 0.59892 0.78582 0.44429 0.0
H1120 H 0.73327 0.82482 0.48148 0.0
H1121 H 0.69042 0.76209 0.50229 0.0
Co1122 Co 0.35633 0.16369 0.50768 0.0
C1123 C 0.3467 0.12496 0.54366 0.0
C1124 C 0.31361 0.14423 0.53575 0.0
C1125 C 0.30844 0.12625 0.55224 0.0
N1126 N 0.33775 0.14367 0.5304 0.0
N1127 N 0.32929 0.11422 0.55723 0.0
H1128 H 0.36561 0.11928 0.54366 0.0
H1129 H 0.30007 0.15598 0.52766 0.0
C1130 C 0.32919 0.12907 0.47505 0.0
O1131 O 0.30872 0.13344 0.48663 0.0
N1132 N 0.37519 0.18244 0.48507 0.0
C1133 C 0.37737 0.20691 0.48283 0.0
C1134 C 0.39524 0.21164 0.46581 0.0
C1135 C 0.39161 0.17265 0.46977 0.0
N1136 N 0.40423 0.19 0.45777 0.0
C1137 C 0.3201 0.198 0.52111 0.0
C1138 C 0.29648 0.20278 0.47758 0.0
C1139 C 0.28776 0.21595 0.49762 0.0
C1140 C 0.29993 0.2133 0.5195 0.0
C1141 C 0.317 0.18738 0.47999 0.0
N1142 N 0.32797 0.18452 0.50186 0.0
H1143 H 0.3287 0.19606 0.53842 0.0
H1144 H 0.32413 0.17801 0.46433 0.0
H1145 H 0.36727 0.22027 0.49329 0.0
H1146 H 0.39446 0.1531 0.46783 0.0
O1147 O 0.36975 0.18249 0.53362 0.0
O1148 O 0.38665 0.1488 0.51885 0.0
O1149 O 0.34883 0.14001 0.48097 0.0
C1150 C 0.38745 0.16672 0.53435 0.0
H1151 H 0.29057 0.122 0.55954 0.0
H1152 H 0.40164 0.2296 0.4604 0.0
H1153 H 0.28795 0.20485 0.46016 0.0
H1154 H 0.29382 0.22291 0.5355 0.0
Co1155 Co 0.33767 0.86367 0.49515 0.0
C1156 C 0.37674 0.85134 0.52941 0.0
C1157 C 0.34295 0.83352 0.53858 0.0
C1158 C 0.3597 0.8284 0.55615 0.0
N1159 N 0.35371 0.84762 0.52167 0.0
N1160 N 0.38089 0.83968 0.55045 0.0
H1161 H 0.38985 0.86292 0.52021 0.0
H1162 H 0.32394 0.82824 0.53876 0.0
C1163 C 0.36345 0.84743 0.45076 0.0
O1164 O 0.34187 0.84574 0.44072 0.0
N1165 N 0.32186 0.88093 0.46865 0.0
C1166 C 0.29972 0.87756 0.45853 0.0
C1167 C 0.29605 0.89536 0.44136 0.0
C1168 C 0.33133 0.90067 0.45715 0.0
N1169 N 0.3159 0.90989 0.44055 0.0
C1170 C 0.29539 0.83356 0.49712 0.0
C1171 C 0.31882 0.78921 0.4903 0.0
C1172 C 0.29464 0.78931 0.49889 0.0
C1173 C 0.28277 0.81188 0.50144 0.0
C1174 C 0.33091 0.81153 0.48609 0.0
N1175 N 0.31927 0.83347 0.48978 0.0
H1176 H 0.28616 0.85056 0.50122 0.0
H1177 H 0.3502 0.811 0.48197 0.0
H1178 H 0.28688 0.86325 0.46266 0.0
H1179 H 0.34902 0.90843 0.46122 0.0
O1180 O 0.31537 0.8785 0.51748 0.0
O1181 O 0.3507 0.89486 0.50655 0.0
O1182 O 0.36527 0.85347 0.47292 0.0
C1183 C 0.33097 0.89615 0.51976 0.0
H1184 H 0.35617 0.81821 0.57252 0.0
H1185 H 0.28005 0.8973 0.43015 0.0
H1186 H 0.32876 0.77215 0.48825 0.0
H1187 H 0.26396 0.81289 0.50754 0.0
Co1188 Co 0.49996 0.64527 0.16606 0.0
C1189 C 0.46392 0.6574 0.1285 0.0
C1190 C 0.46458 0.6858 0.15506 0.0
C1191 C 0.44798 0.6921 0.13772 0.0
N1192 N 0.4747 0.66393 0.14938 0.0
N1193 N 0.44741 0.6742 0.121 0.0
H1194 H 0.46819 0.64065 0.119 0.0
H1195 H 0.46932 0.69736 0.16996 0.0
C1196 C 0.52667 0.67495 0.12829 0.0
O1197 O 0.51117 0.69301 0.13168 0.0
N1198 N 0.52493 0.62624 0.182 0.0
C1199 C 0.52506 0.61847 0.20502 0.0
C1200 C 0.54457 0.60268 0.20808 0.0
C1201 C 0.54432 0.61526 0.17142 0.0
N1202 N 0.55663 0.60084 0.18694 0.0
C1203 C 0.49037 0.6776 0.20531 0.0
C1204 C 0.52799 0.71039 0.19761 0.0
C1205 C 0.50923 0.71658 0.21385 0.0
C1206 C 0.49092 0.69934 0.21836 0.0
C1207 C 0.52663 0.68829 0.18464 0.0
N1208 N 0.50689 0.67312 0.18727 0.0
H1209 H 0.4752 0.66548 0.20851 0.0
H1210 H 0.54122 0.68381 0.17231 0.0
H1211 H 0.51152 0.62335 0.21845 0.0
H1212 H 0.54877 0.61686 0.1525 0.0
O1213 O 0.47509 0.62991 0.18558 0.0
O1214 O 0.48805 0.61526 0.15081 0.0
O1215 O 0.52504 0.65538 0.14093 0.0
C1216 C 0.47328 0.6132 0.16919 0.0
H1217 H 0.43767 0.70902 0.13737 0.0
H1218 H 0.54947 0.5932 0.22449 0.0
H1219 H 0.54311 0.72279 0.19444 0.0
H1220 H 0.47669 0.70289 0.23153 0.0
Co1221 Co 0.3442 0.50069 0.14144 0.0
C1222 C 0.38459 0.52943 0.1601 0.0
C1223 C 0.35141 0.53855 0.17886 0.0
C1224 C 0.36953 0.55452 0.18596 0.0
N1225 N 0.36101 0.52278 0.16276 0.0
N1226 N 0.39033 0.54889 0.17393 0.0
H1227 H 0.39687 0.52095 0.14724 0.0
H1228 H 0.33231 0.53938 0.1839 0.0
C1229 C 0.36719 0.45255 0.1534 0.0
O1230 O 0.34513 0.44308 0.15384 0.0
N1231 N 0.32858 0.47898 0.11832 0.0
C1232 C 0.30649 0.48179 0.10787 0.0
C1233 C 0.30473 0.46616 0.08863 0.0
C1234 C 0.34042 0.46268 0.10403 0.0
N1235 N 0.32611 0.45422 0.0862 0.0
C1236 C 0.29898 0.4913 0.16601 0.0
C1237 C 0.31846 0.47979 0.21027 0.0
C1238 C 0.29303 0.48191 0.20798 0.0
C1239 C 0.28336 0.48713 0.18541 0.0
C1240 C 0.33353 0.48325 0.19001 0.0
N1241 N 0.32373 0.48913 0.16814 0.0
H1242 H 0.29098 0.49819 0.14987 0.0
H1243 H 0.35313 0.48271 0.19226 0.0
H1244 H 0.29327 0.49588 0.11197 0.0
H1245 H 0.35949 0.45792 0.10586 0.0
O1246 O 0.32353 0.52713 0.13139 0.0
O1247 O 0.35908 0.51773 0.11437 0.0
O1248 O 0.37018 0.47524 0.14829 0.0
C1249 C 0.33983 0.53191 0.11504 0.0
H1250 H 0.3671 0.57011 0.19777 0.0
H1251 H 0.28948 0.46489 0.07638 0.0
H1252 H 0.3266 0.47642 0.22767 0.0
H1253 H 0.2639 0.48994 0.18317 0.0
Co1254 Co 0.50326 0.34424 0.14481 0.0
C1255 C 0.45843 0.37258 0.15803 0.0
C1256 C 0.48803 0.37967 0.18204 0.0
C1257 C 0.46947 0.39598 0.18703 0.0
N1258 N 0.4813 0.365 0.16369 0.0
N1259 N 0.45095 0.39159 0.1718 0.0
H1260 H 0.44802 0.36579 0.14301 0.0
H1261 H 0.50588 0.37996 0.19017 0.0
C1262 C 0.55374 0.36245 0.15528 0.0
O1263 O 0.56105 0.33947 0.15528 0.0
N1264 N 0.52526 0.32454 0.12521 0.0
C1265 C 0.52923 0.30011 0.12498 0.0
C1266 C 0.54619 0.29483 0.10731 0.0
C1267 C 0.53944 0.33359 0.10735 0.0
N1268 N 0.55267 0.31594 0.09629 0.0
C1269 C 0.49639 0.30154 0.17401 0.0
C1270 C 0.52691 0.31322 0.21158 0.0
C1271 C 0.51493 0.2905 0.21185 0.0
C1272 C 0.49935 0.28495 0.19282 0.0
C1273 C 0.52323 0.32957 0.19236 0.0
N1274 N 0.50883 0.3233 0.17323 0.0
H1275 H 0.4844 0.29618 0.15969 0.0
H1276 H 0.53188 0.34722 0.19336 0.0
H1277 H 0.52056 0.2868 0.1365 0.0
H1278 H 0.53994 0.35283 0.1026 0.0
O1279 O 0.47619 0.32639 0.13172 0.0
O1280 O 0.49177 0.35981 0.11521 0.0
O1281 O 0.53111 0.36752 0.15236 0.0
C1282 C 0.47619 0.34179 0.114 0.0
H1283 H 0.47006 0.41074 0.20002 0.0
H1284 H 0.55337 0.27681 0.10316 0.0
H1285 H 0.53856 0.31856 0.22636 0.0
H1286 H 0.48961 0.26767 0.19227 0.0
Co1287 Co 0.6671 0.49589 0.15228 0.0
C1288 C 0.62896 0.45859 0.162 0.0
C1289 C 0.65901 0.45507 0.18637 0.0
C1290 C 0.64347 0.43566 0.18997 0.0
N1291 N 0.64997 0.46956 0.16884 0.0
N1292 N 0.62472 0.43768 0.17448 0.0
H1293 H 0.61802 0.46472 0.14699 0.0
H1294 H 0.67644 0.45736 0.19506 0.0
C1295 C 0.64174 0.54263 0.16607 0.0
O1296 O 0.66312 0.55351 0.16607 0.0
N1297 N 0.68418 0.52189 0.13484 0.0
C1298 C 0.70793 0.52843 0.136 0.0
C1299 C 0.71236 0.54684 0.11972 0.0
C1300 C 0.67467 0.53633 0.11737 0.0
N1301 N 0.6915 0.55185 0.10796 0.0
C1302 C 0.7093 0.49302 0.18218 0.0
C1303 C 0.68929 0.51259 0.22361 0.0
C1304 C 0.71345 0.50393 0.22409 0.0
C1305 C 0.72337 0.49422 0.20289 0.0
C1306 C 0.67572 0.51108 0.20229 0.0
N1307 N 0.68599 0.502 0.18159 0.0
H1308 H 0.71731 0.48439 0.16658 0.0
H1309 H 0.65669 0.51611 0.20298 0.0
H1310 H 0.7216 0.52059 0.14745 0.0
H1311 H 0.65586 0.5353 0.11157 0.0
O1312 O 0.68831 0.47182 0.13749 0.0
O1313 O 0.65354 0.48475 0.1219 0.0
O1314 O 0.64015 0.51957 0.16199 0.0
C1315 C 0.67259 0.4705 0.12017 0.0
H1316 H 0.64638 0.42058 0.20231 0.0
H1317 H 0.72969 0.55596 0.11693 0.0
H1318 H 0.68064 0.51961 0.23977 0.0
H1319 H 0.74195 0.48739 0.20224 0.0
Co1320 Co 0.50911 0.36085 0.83363 0.0
C1321 C 0.55141 0.39301 0.82081 0.0
C1322 C 0.52328 0.39428 0.79428 0.0
C1323 C 0.54075 0.41134 0.78834 0.0
N1324 N 0.5299 0.38258 0.81463 0.0
N1325 N 0.55837 0.4107 0.80514 0.0
H1326 H 0.56141 0.38859 0.83691 0.0
H1327 H 0.5061 0.39214 0.78518 0.0
C1328 C 0.45806 0.37994 0.82436 0.0
O1329 O 0.44981 0.35738 0.8226 0.0
N1330 N 0.48815 0.34004 0.85309 0.0
C1331 C 0.48762 0.31537 0.85518 0.0
C1332 C 0.47 0.30906 0.87199 0.0
C1333 C 0.47151 0.34831 0.86913 0.0
N1334 N 0.45983 0.32987 0.88045 0.0
C1335 C 0.51769 0.3197 0.80313 0.0
C1336 C 0.48549 0.33014 0.76655 0.0
C1337 C 0.49996 0.309 0.76508 0.0
C1338 C 0.51625 0.30401 0.78355 0.0
C1339 C 0.48793 0.3459 0.78641 0.0
N1340 N 0.50353 0.34037 0.80489 0.0
H1341 H 0.53032 0.31455 0.81695 0.0
H1342 H 0.47748 0.36258 0.78627 0.0
H1343 H 0.49908 0.30272 0.84533 0.0
H1344 H 0.46771 0.36755 0.87222 0.0
O1345 O 0.53704 0.34348 0.84533 0.0
O1346 O 0.52107 0.37563 0.86359 0.0
O1347 O 0.48083 0.38403 0.8275 0.0
C1348 C 0.53736 0.35813 0.86355 0.0
H1349 H 0.53957 0.42444 0.77375 0.0
H1350 H 0.46453 0.29068 0.87703 0.0
H1351 H 0.47278 0.33462 0.75235 0.0
H1352 H 0.52759 0.28769 0.78312 0.0
Co1353 Co 0.66434 0.51601 0.84635 0.0
C1354 C 0.62606 0.5509 0.83243 0.0
C1355 C 0.65362 0.55018 0.80497 0.0
C1356 C 0.63668 0.56795 0.79924 0.0
N1357 N 0.6472 0.53969 0.82612 0.0
N1358 N 0.61945 0.56843 0.81663 0.0
H1359 H 0.61619 0.54721 0.84893 0.0
H1360 H 0.66938 0.54567 0.79417 0.0
C1361 C 0.63161 0.48538 0.81597 0.0
O1362 O 0.63855 0.4984 0.79726 0.0
N1363 N 0.68025 0.4929 0.8671 0.0
C1364 C 0.70425 0.49119 0.87188 0.0
C1365 C 0.70733 0.47432 0.89007 0.0
C1366 C 0.669 0.47744 0.88244 0.0
N1367 N 0.68512 0.46579 0.89673 0.0
C1368 C 0.70507 0.52466 0.81512 0.0
C1369 C 0.70929 0.47773 0.79682 0.0
C1370 C 0.7267 0.49538 0.79009 0.0
C1371 C 0.72437 0.51908 0.79955 0.0
C1372 C 0.69029 0.48406 0.81269 0.0
N1373 N 0.68781 0.50756 0.821 0.0
H1374 H 0.70394 0.54299 0.82237 0.0
H1375 H 0.67818 0.46977 0.81892 0.0
H1376 H 0.71839 0.50199 0.86331 0.0
H1377 H 0.64939 0.47508 0.88328 0.0
O1378 O 0.68263 0.54205 0.86101 0.0
O1379 O 0.64683 0.52859 0.87429 0.0
O1380 O 0.64057 0.48973 0.83668 0.0
C1381 C 0.6652 0.54349 0.87686 0.0
H1382 H 0.63729 0.57994 0.78371 0.0
H1383 H 0.72453 0.4693 0.89823 0.0
H1384 H 0.71074 0.45902 0.79043 0.0
H1385 H 0.73725 0.53337 0.79481 0.0
Co1386 Co 0.50206 0.66453 0.85441 0.0
C1387 C 0.46938 0.62467 0.8412 0.0
C1388 C 0.46077 0.65735 0.82136 0.0
C1389 C 0.44299 0.64007 0.81705 0.0
N1390 N 0.47733 0.64757 0.83641 0.0
N1391 N 0.44829 0.61961 0.82976 0.0
H1392 H 0.47814 0.61254 0.85394 0.0
H1393 H 0.46064 0.67621 0.81531 0.0
C1394 C 0.549 0.64326 0.83862 0.0
O1395 O 0.5567 0.66605 0.83762 0.0
N1396 N 0.52678 0.68035 0.87398 0.0
C1397 C 0.53606 0.7033 0.87413 0.0
C1398 C 0.55177 0.70544 0.89324 0.0
C1399 C 0.53721 0.66899 0.89292 0.0
N1400 N 0.55231 0.68388 0.90514 0.0
C1401 C 0.50287 0.70897 0.82757 0.0
C1402 C 0.51773 0.68971 0.78395 0.0
C1403 C 0.51206 0.7147 0.78565 0.0
C1404 C 0.50461 0.72429 0.80769 0.0
C1405 C 0.51586 0.6749 0.80452 0.0
N1406 N 0.50928 0.68478 0.82626 0.0
H1407 H 0.49571 0.71669 0.84401 0.0
H1408 H 0.51861 0.65537 0.80266 0.0
H1409 H 0.53223 0.7178 0.86161 0.0
H1410 H 0.53326 0.65024 0.89798 0.0
O1411 O 0.47749 0.6854 0.86792 0.0
O1412 O 0.48883 0.65 0.88386 0.0
O1413 O 0.52692 0.63872 0.84492 0.0
C1414 C 0.47507 0.66954 0.88506 0.0
H1415 H 0.42651 0.64305 0.80678 0.0
H1416 H 0.56212 0.72165 0.89785 0.0
H1417 H 0.52252 0.68159 0.76678 0.0
H1418 H 0.49922 0.74336 0.80932 0.0
Co1419 Co 0.34831 0.51435 0.84945 0.0
C1420 C 0.33926 0.55039 0.88887 0.0
C1421 C 0.30601 0.54244 0.87043 0.0
C1422 C 0.30089 0.55858 0.88865 0.0
N1423 N 0.3302 0.53721 0.87028 0.0
N1424 N 0.32175 0.56357 0.90031 0.0
H1425 H 0.35814 0.54991 0.89445 0.0
H1426 H 0.29233 0.53449 0.85897 0.0
C1427 C 0.32108 0.47984 0.88235 0.0
O1428 O 0.30077 0.49155 0.87745 0.0
N1429 N 0.36655 0.4917 0.82953 0.0
C1430 C 0.36572 0.48925 0.80541 0.0
C1431 C 0.38068 0.47 0.79876 0.0
C1432 C 0.38236 0.47441 0.83718 0.0
N1433 N 0.39114 0.46085 0.81876 0.0
C1434 C 0.31086 0.52796 0.81749 0.0
C1435 C 0.2927 0.48181 0.80776 0.0
C1436 C 0.28355 0.50212 0.79504 0.0
C1437 C 0.29256 0.52542 0.80058 0.0
C1438 C 0.31096 0.48526 0.82508 0.0
N1439 N 0.31956 0.50825 0.82995 0.0
H1440 H 0.31791 0.54612 0.82085 0.0
H1441 H 0.31895 0.4694 0.83369 0.0
H1442 H 0.35475 0.50042 0.79354 0.0
H1443 H 0.38695 0.47149 0.85589 0.0
O1444 O 0.36065 0.54115 0.83063 0.0
O1445 O 0.3792 0.52612 0.86267 0.0
O1446 O 0.34124 0.48652 0.87261 0.0
C1447 C 0.37915 0.54193 0.845 0.0
H1448 H 0.28305 0.56596 0.89302 0.0
H1449 H 0.38379 0.46334 0.78066 0.0
H1450 H 0.28659 0.4634 0.80371 0.0
H1451 H 0.28577 0.54172 0.79168 0.0
Co1452 Co 0.65003 0.66119 0.00632 0.0
C1453 C 0.65801 0.62414 0.96744 0.0
C1454 C 0.69091 0.64391 0.97448 0.0
C1455 C 0.6955 0.62743 0.9565 0.0
N1456 N 0.66724 0.64226 0.98138 0.0
N1457 N 0.67487 0.61484 0.95201 0.0
H1458 H 0.63946 0.61758 0.96876 0.0
H1459 H 0.70462 0.65563 0.98221 0.0
C1460 C 0.68115 0.62685 0.03558 0.0
O1461 O 0.70042 0.63361 0.02316 0.0
N1462 N 0.63272 0.67922 0.03096 0.0
C1463 C 0.63144 0.70371 0.03371 0.0
C1464 C 0.6147 0.70885 0.05163 0.0
C1465 C 0.61677 0.66978 0.04706 0.0
N1466 N 0.60539 0.6875 0.05995 0.0
C1467 C 0.68355 0.69653 0.99008 0.0
C1468 C 0.70968 0.70393 0.03171 0.0
C1469 C 0.71581 0.71745 0.0109 0.0
C1470 C 0.70245 0.71329 0.98999 0.0
C1471 C 0.69039 0.68682 0.03096 0.0
N1472 N 0.6781 0.68284 0.00999 0.0
H1473 H 0.67404 0.69365 0.97338 0.0
H1474 H 0.6852 0.67709 0.04715 0.0
H1475 H 0.64136 0.71693 0.02293 0.0
H1476 H 0.61272 0.6504 0.04839 0.0
O1477 O 0.63418 0.68062 0.9824 0.0
O1478 O 0.61919 0.64591 0.997 0.0
O1479 O 0.66043 0.63677 0.03161 0.0
C1480 C 0.61681 0.66462 0.98254 0.0
H1481 H 0.71288 0.62517 0.94744 0.0
H1482 H 0.60952 0.72698 0.05774 0.0
H1483 H 0.71931 0.70688 0.04842 0.0
H1484 H 0.70674 0.72266 0.97331 0.0
Co1485 Co 0.65767 0.35768 0.98992 0.0
C1486 C 0.62041 0.35413 0.95138 0.0
C1487 C 0.63562 0.31869 0.95853 0.0
C1488 C 0.61841 0.31635 0.94085 0.0
N1489 N 0.63723 0.34251 0.96516 0.0
N1490 N 0.60892 0.33865 0.93629 0.0
H1491 H 0.61671 0.37358 0.952 0.0
H1492 H 0.64574 0.30356 0.96605 0.0
C1493 C 0.62349 0.3275 0.02011 0.0
O1494 O 0.63061 0.30802 0.00817 0.0
N1495 N 0.67664 0.37359 0.01449 0.0
C1496 C 0.70109 0.37498 0.01657 0.0
C1497 C 0.70643 0.39093 0.03509 0.0
C1498 C 0.66747 0.38877 0.0314 0.0
N1499 N 0.68523 0.3997 0.04428 0.0
C1500 C 0.68905 0.3199 0.97376 0.0
C1501 C 0.70008 0.29943 0.01779 0.0
C1502 C 0.71232 0.29079 0.99708 0.0
C1503 C 0.70605 0.30102 0.97486 0.0
C1504 C 0.68254 0.31815 0.01579 0.0
N1505 N 0.677 0.32793 0.99384 0.0
H1506 H 0.68545 0.32815 0.95646 0.0
H1507 H 0.67415 0.32547 0.03192 0.0
H1508 H 0.71406 0.36571 0.00496 0.0
H1509 H 0.64812 0.3921 0.03378 0.0
O1510 O 0.67826 0.37177 0.96577 0.0
O1511 O 0.64533 0.38999 0.9807 0.0
O1512 O 0.63271 0.34849 0.01531 0.0
C1513 C 0.66404 0.39073 0.96601 0.0
H1514 H 0.61311 0.2994 0.93221 0.0
H1515 H 0.72453 0.39637 0.04068 0.0
H1516 H 0.70465 0.29254 0.03547 0.0
H1517 H 0.71444 0.29482 0.95826 0.0
Co1518 Co 0.35571 0.66717 0.00952 0.0
C1519 C 0.34056 0.62556 0.03814 0.0
C1520 C 0.31807 0.65635 0.04753 0.0
C1521 C 0.31275 0.63721 0.06291 0.0
N1522 N 0.33556 0.64894 0.03195 0.0
N1523 N 0.32713 0.61796 0.05709 0.0
H1524 H 0.35454 0.61468 0.02938 0.0
H1525 H 0.31042 0.67451 0.04879 0.0
C1526 C 0.32917 0.63033 0.97997 0.0
O1527 O 0.30958 0.63516 0.99289 0.0
N1528 N 0.37665 0.68418 0.98752 0.0
C1529 C 0.37996 0.70848 0.98489 0.0
C1530 C 0.39785 0.7121 0.96771 0.0
C1531 C 0.39251 0.67334 0.97236 0.0
N1532 N 0.40571 0.68993 0.95996 0.0
C1533 C 0.32142 0.70639 0.01503 0.0
C1534 C 0.30187 0.70503 0.96933 0.0
C1535 C 0.29393 0.72317 0.9854 0.0
C1536 C 0.30407 0.72381 0.00841 0.0
C1537 C 0.3198 0.68818 0.97654 0.0
N1538 N 0.32865 0.68829 -0.00046 0.0
H1539 H 0.32935 0.70784 0.03268 0.0
H1540 H 0.32703 0.67569 0.96325 0.0
H1541 H 0.37029 0.72248 0.99492 0.0
H1542 H 0.3942 0.65366 0.97042 0.0
O1543 O 0.36773 0.68682 0.03564 0.0
O1544 O 0.38428 0.6518 0.02369 0.0
O1545 O 0.34897 0.64204 0.98378 0.0
C1546 C 0.38441 0.67017 0.03863 0.0
H1547 H 0.30035 0.63799 0.07813 0.0
H1548 H 0.40479 0.72966 0.96169 0.0
H1549 H 0.29486 0.70437 0.95116 0.0
H1550 H 0.29853 0.73767 0.0213 0.0
Co1551 Co 0.35362 0.3485 0.99074 0.0
C1552 C 0.3901 0.34245 0.02997 0.0
C1553 C 0.38638 0.30995 0.00858 0.0
C1554 C 0.40463 0.30613 0.02508 0.0
N1555 N 0.37696 0.33259 0.01186 0.0
N1556 N 0.40702 0.32664 0.03836 0.0
H1557 H 0.38781 0.36088 0.03676 0.0
H1558 H 0.38092 0.29735 0.99459 0.0
C1559 C 0.37505 0.34115 0.94044 0.0
O1560 O 0.3543 0.34688 0.93016 0.0
N1561 N 0.33137 0.36549 0.96939 0.0
C1562 C 0.30711 0.36284 0.96637 0.0
C1563 C 0.29904 0.38109 0.95099 0.0
C1564 C 0.33744 0.38573 0.95671 0.0
N1565 N 0.31828 0.39534 0.94482 0.0
C1566 C 0.32874 0.30775 0.00987 0.0
C1567 C 0.31092 0.28753 0.96805 0.0
C1568 C 0.30338 0.27768 0.99029 0.0
C1569 C 0.31304 0.28777 0.01128 0.0
C1570 C 0.32723 0.30745 0.96741 0.0
N1571 N 0.33553 0.31768 0.98826 0.0
H1572 H 0.33491 0.31586 0.02648 0.0
H1573 H 0.33197 0.3152 0.95027 0.0
H1574 H 0.29597 0.34901 0.97503 0.0
H1575 H 0.35572 0.39325 0.9563 0.0
O1576 O 0.33513 0.36096 0.01729 0.0
O1577 O 0.36627 0.38056 0.00038 0.0
O1578 O 0.37697 0.34028 0.96337 0.0
C1579 C 0.34867 0.38038 0.01638 0.0
H1580 H 0.41591 0.28988 0.02658 0.0
H1581 H 0.28049 0.3836 0.94484 0.0
H1582 H 0.30382 0.2803 0.95136 0.0
H1583 H 0.30746 0.28119 0.02886 0.0
C1584 C 0.97903 0.26849 0.25918 0.0
C1585 C 0.99716 0.28662 0.25728 0.0
H1586 H 0.96632 0.23339 0.24759 0.0
C1587 C 0.01607 0.28336 0.24028 0.0
H1588 H 0.96431 0.27022 0.27217 0.0
C1589 C 0.01749 0.26194 0.22646 0.0
C1590 C 1.00004 0.24326 0.2293 0.0
H1591 H 0.03017 0.29711 0.2381 0.0
H1592 H 0.03279 0.25962 0.21423 0.0
C1593 C 0.98042 0.24713 0.24535 0.0
C1594 C 0.77498 1.00101 0.2562 0.0
C1595 C 0.7739 0.98179 0.2396 0.0
H1596 H 0.7576 0.01969 0.28515 0.0
C1597 C 0.75453 0.965 0.24087 0.0
H1598 H 0.78935 0.01462 0.25499 0.0
C1599 C 0.73642 0.96743 0.25864 0.0
C1600 C 0.73709 0.98709 0.27505 0.0
H1601 H 0.75319 0.95031 0.22784 0.0
H1602 H 0.72188 0.95401 0.25937 0.0
C1603 C 0.75668 0.00382 0.27351 0.0
C1604 C 0.04122 0.74781 0.25947 0.0
C1605 C 0.02033 0.73614 0.26868 0.0
H1606 H 0.05523 0.77466 0.23463 0.0
C1607 C 0.99729 0.74239 0.2597 0.0
H1608 H 0.05911 0.74347 0.26656 0.0
C1609 C 0.99502 0.76015 0.24187 0.0
C1610 C 0.01577 0.77214 0.23264 0.0
H1611 H 0.98095 0.73386 0.26693 0.0
H1612 H 0.9769 0.76484 0.2356 0.0
C1613 C 0.03895 0.76581 0.24157 0.0
C1614 C 0.26261 0.98133 0.26268 0.0
C1615 C 0.26557 1.00272 0.27634 0.0
H1616 H 0.24341 0.96392 0.23392 0.0
C1617 C 0.24904 0.02226 0.27323 0.0
H1618 H 0.2751 0.96603 0.26467 0.0
C1619 C 0.23091 0.02107 0.25567 0.0
C1620 C 0.22917 1.00041 0.24077 0.0
H1621 H 0.25078 0.03888 0.28376 0.0
H1622 H 0.21925 0.03687 0.2528 0.0
C1623 C 0.24462 0.98022 0.24499 0.0
C1624 C 0.01667 0.79171 0.73682 0.0
C1625 C 0.99587 0.79466 0.75146 0.0
H1626 H 0.0357 0.76868 0.71159 0.0
C1627 C 0.97683 0.7776 0.74987 0.0
H1628 H 0.03182 0.80438 0.73825 0.0
C1629 C 0.97918 0.75705 0.735 0.0
C1630 C 1.00065 0.75317 0.72148 0.0
H1631 H 0.96088 0.77927 0.76138 0.0
H1632 H 0.96463 0.7436 0.7349 0.0
C1633 C 0.01895 0.77123 0.72174 0.0
C1634 C 0.25852 0.01872 0.74611 0.0
C1635 C 0.27239 0.99734 0.7423 0.0
H1636 H 0.23058 0.03652 0.76615 0.0
C1637 C 0.2697 0.97765 0.75842 0.0
H1638 H 0.26052 0.03453 0.73444 0.0
C1639 C 0.25286 0.97915 0.77751 0.0
C1640 C 0.23842 1.00035 0.78072 0.0
H1641 H 0.28015 0.96094 0.75596 0.0
H1642 H 0.25121 0.96375 0.78973 0.0
C1643 C 0.24155 0.02004 0.7647 0.0
C1644 C 0.01115 0.28102 0.75933 0.0
C1645 C 0.02121 0.27425 0.73701 0.0
H1646 H 1.00235 0.26976 0.79529 0.0
C1647 C 0.03278 0.25127 0.73485 0.0
H1648 H 1.00198 0.29852 0.76149 0.0
C1649 C 0.03319 0.2349 0.75427 0.0
C1650 C 0.0217 0.24108 0.77606 0.0
H1651 H 0.04083 0.24567 0.71787 0.0
H1652 H 0.04126 0.21691 0.75182 0.0
C1653 C 0.01124 0.26453 0.77861 0.0
C1654 C 0.74326 0.98385 0.78115 0.0
C1655 C 0.76232 1.00107 0.7791 0.0
H1656 H 0.71092 0.96873 0.76519 0.0
C1657 C 0.76335 0.01597 0.75838 0.0
H1658 H 0.74174 0.97218 0.79685 0.0
C1659 C 0.74543 0.01443 0.74074 0.0
C1660 C 0.72628 0.99754 0.74299 0.0
H1661 H 0.77813 0.02886 0.75563 0.0
H1662 H 0.74675 0.02622 0.72508 0.0
C1663 C 0.72551 0.98198 0.76315 0.0
C1664 C 0.26506 0.22488 0.01436 0.0
C1665 C 0.24287 0.22866 0.00235 0.0
H1666 H 0.30182 0.2372 0.01968 0.0
C1667 C 0.24181 0.24675 0.98427 0.0
H1668 H 0.2665 0.21105 0.02828 0.0
C1669 C 0.26201 0.26162 0.97925 0.0
C1670 C 0.28375 0.25887 0.99228 0.0
H1671 H 0.22511 0.24978 0.97433 0.0
H1672 H 0.26016 0.27613 0.96605 0.0
C1673 C 0.28524 0.23991 0.00946 0.0
C1674 C 0.26 0.78342 0.98032 0.0
C1675 C 0.23633 0.77533 0.97505 0.0
H1676 H 0.297 0.77299 0.98774 0.0
C1677 C 0.23239 0.75036 0.97019 0.0
H1678 H 0.26332 0.80253 0.98451 0.0
C1679 C 0.25165 0.73352 0.97175 0.0
C1680 C 0.27497 0.74135 0.97877 0.0
H1681 H 0.21415 0.74374 0.96646 0.0
H1682 H 0.24795 0.71419 0.96911 0.0
C1683 C 0.27915 0.76653 0.98233 0.0
C1684 C 0.77095 0.25568 0.98327 0.0
C1685 C 0.77028 0.23697 0.00052 0.0
H1686 H 0.75403 0.28791 0.96941 0.0
C1687 C 0.75035 0.23572 0.01655 0.0
H1688 H 0.78635 0.25732 0.97105 0.0
C1689 C 0.73144 0.25298 0.01539 0.0
C1690 C 0.73222 0.27207 0.99837 0.0
H1691 H 0.74945 0.22139 0.03004 0.0
H1692 H 0.71619 0.25125 0.02776 0.0
C1693 C 0.75231 0.27318 0.98237 0.0
C1694 C 0.7331 0.75734 0.99626 0.0
C1695 C 0.73589 0.73584 0.0101 0.0
H1696 H 0.74982 0.7897 0.98191 0.0
C1697 C 0.7585 0.73134 0.02112 0.0
H1698 H 0.71577 0.76179 0.98801 0.0
C1699 C 0.778 0.74768 0.01782 0.0
C1700 C 0.7753 0.76859 0.00318 0.0
H1701 H 0.76133 0.71492 0.03173 0.0
H1702 H 0.7953 0.74385 0.02643 0.0
C1703 C 0.75262 0.77332 0.99261 0.0
C1704 C 0.77059 0.49886 0.77653 0.0
C1705 C 0.74689 0.48959 0.77289 0.0
H1706 H 0.8063 0.5049 0.76153 0.0
C1707 C 0.74216 0.47645 0.75169 0.0
H1708 H 0.77495 0.50874 0.79285 0.0
C1709 C 0.76015 0.47418 0.73384 0.0
C1710 C 0.78336 0.4848 0.73685 0.0
H1711 H 0.72413 0.46912 0.74828 0.0
H1712 H 0.75557 0.46504 0.71717 0.0
C1713 C 0.78867 0.4964 0.75875 0.0
C1714 C 0.22782 0.48255 0.75933 0.0
C1715 C 0.22949 0.49822 0.73929 0.0
H1716 H 0.24349 0.47166 0.79301 0.0
C1717 C 0.2496 0.51394 0.73707 0.0
H1718 H 0.21248 0.47016 0.7613 0.0
C1719 C 0.26747 0.51442 0.75477 0.0
C1720 C 0.26545 0.49954 0.77539 0.0
H1721 H 0.25163 0.52572 0.72148 0.0
H1722 H 0.28289 0.5266 0.75227 0.0
C1723 C 0.24561 0.48329 0.77734 0.0
C1724 C 0.27897 0.50234 0.24548 0.0
C1725 C 0.27662 0.48293 0.22921 0.0
H1726 H 0.2632 0.52239 0.27439 0.0
C1727 C 0.25648 0.46711 0.23132 0.0
H1728 H 0.29392 0.51523 0.24372 0.0
C1729 C 0.23897 0.47067 0.24952 0.0
C1730 C 0.24088 0.49057 0.26559 0.0
H1731 H 0.25413 0.45222 0.21866 0.0
H1732 H 0.22389 0.45792 0.25084 0.0
C1733 C 0.26121 0.50633 0.26318 0.0
C1734 C 0.74508 0.5266 0.28064 0.0
C1735 C 0.7618 0.50745 0.28512 0.0
H1736 H 0.71673 0.54058 0.25788 0.0
C1737 C 0.76066 0.48628 0.27075 0.0
H1738 H 0.74509 0.54301 0.29159 0.0
C1739 C 0.74417 0.48477 0.25174 0.0
C1740 C 0.72847 0.50446 0.24637 0.0
H1741 H 0.77327 0.47121 0.27341 0.0
H1742 H 0.74418 0.46832 0.24082 0.0
C1743 C 0.72861 0.52512 0.26147 0.0
C1744 C 0.26683 0.72588 0.49465 0.0
C1745 C 0.25004 0.72622 0.51395 0.0
H1746 H 0.29404 0.74559 0.47464 0.0
C1747 C 0.25075 0.74577 0.53029 0.0
H1748 H 0.26677 0.71089 0.48186 0.0
C1749 C 0.26637 0.76565 0.52613 0.0
C1750 C 0.28159 0.76634 0.50558 0.0
H1751 H 0.23801 0.74657 0.54524 0.0
H1752 H 0.26574 0.78103 0.53845 0.0
C1753 C 0.28247 0.74572 0.49051 0.0
C1754 C 0.26914 0.2565 0.50739 0.0
C1755 C 0.26704 0.23354 0.49614 0.0
H1756 H 0.25223 0.29073 0.51586 0.0
C1757 C 0.24491 0.2275 0.48478 0.0
H1758 H 0.28597 0.26187 0.51608 0.0
C1759 C 0.22533 0.24425 0.48472 0.0
C1760 C 0.2278 0.26728 0.4958 0.0
H1761 H 0.24272 0.20984 0.47617 0.0
H1762 H 0.20864 0.23956 0.47544 0.0
C1763 C 0.2498 0.27305 0.5073 0.0
C1764 C 0.73885 0.75621 0.47402 0.0
C1765 C 0.73606 0.77539 0.49064 0.0
H1766 H 0.76003 0.72505 0.46303 0.0
C1767 C 0.75246 0.77743 0.50972 0.0
H1768 H 0.72603 0.75414 0.45939 0.0
C1769 C 0.77124 0.76037 0.51243 0.0
C1770 C 0.77446 0.74113 0.49573 0.0
H1771 H 0.75013 0.79168 0.52313 0.0
H1772 H 0.78281 0.76202 0.52805 0.0
C1773 C 0.75807 0.73938 0.47637 0.0
C1774 C 0.76878 0.25968 0.52883 0.0
C1775 C 0.78472 0.259 0.50881 0.0
H1776 H 0.73896 0.24252 0.54762 0.0
C1777 C 0.78482 0.23804 0.49418 0.0
H1778 H 0.76862 0.27537 0.54078 0.0
C1779 C 0.76796 0.21918 0.49826 0.0
C1780 C 0.75077 0.22076 0.51718 0.0
H1781 H 0.79688 0.23689 0.47871 0.0
H1782 H 0.76746 0.20391 0.48581 0.0
C1783 C 0.75202 0.24073 0.53301 0.0
C1784 C 0.47792 0.25499 0.72936 0.0
C1785 C 0.49914 0.24872 0.71633 0.0
H1786 H 0.46132 0.27982 0.7546 0.0
C1787 C 0.51917 0.26476 0.7166 0.0
H1788 H 0.46213 0.24303 0.72923 0.0
C1789 C 0.5187 0.28567 0.73114 0.0
C1790 C 0.49801 0.29114 0.74524 0.0
H1791 H 0.53575 0.26032 0.70679 0.0
H1792 H 0.53497 0.29687 0.73242 0.0
C1793 C 0.47731 0.27613 0.7436 0.0
C1794 C 0.48487 0.75269 0.73636 0.0
C1795 C 0.50503 0.76656 0.72843 0.0
H1796 H 0.47168 0.72497 0.76046 0.0
C1797 C 0.52812 0.76191 0.73851 0.0
H1798 H 0.46676 0.75607 0.72935 0.0
C1799 C 0.53084 0.74401 0.75639 0.0
C1800 C 0.51054 0.73051 0.7643 0.0
H1801 H 0.54402 0.77214 0.73263 0.0
H1802 H 0.54857 0.74116 0.7645 0.0
C1803 C 0.48763 0.73485 0.7541 0.0
C1804 C 0.4839 0.77422 0.24285 0.0
C1805 C 0.50335 0.78122 0.2576 0.0
H1806 H 0.47064 0.74808 0.21726 0.0
C1807 C 0.52585 0.76882 0.2554 0.0
H1808 H 0.46637 0.78337 0.24429 0.0
C1809 C 0.52837 0.74874 0.2399 0.0
C1810 C 0.50833 0.74051 0.22657 0.0
H1811 H 0.54116 0.77395 0.26659 0.0
H1812 H 0.54549 0.73875 0.23951 0.0
C1813 C 0.48632 0.75394 0.22757 0.0
C1814 C 0.54279 0.24911 0.25981 0.0
C1815 C 0.52179 0.23828 0.26978 0.0
H1816 H 0.5571 0.27459 0.23373 0.0
C1817 C 0.49879 0.24469 0.2607 0.0
H1818 H 0.56068 0.24466 0.26684 0.0
C1819 C 0.49671 0.26165 0.24202 0.0
C1820 C 0.51759 0.27283 0.23209 0.0
H1821 H 0.48234 0.2368 0.26837 0.0
H1822 H 0.47865 0.26636 0.2356 0.0
C1823 C 0.5407 0.26641 0.24117 0.0
C1824 C 0.12209 0.07653 0.1903 0.0
C1825 C 0.11903 0.05627 0.175 0.0
H1826 H 0.10517 0.10667 0.20859 0.0
C1827 C 0.0955 0.05088 0.16646 0.0
H1828 H 0.13996 0.08117 0.19723 0.0
C1829 C 0.07556 0.06577 0.17278 0.0
C1830 C 0.07869 0.08597 0.18816 0.0
H1831 H 0.09259 0.03544 0.15457 0.0
H1832 H 0.05765 0.06142 0.16583 0.0
C1833 C 0.10214 0.09106 0.19696 0.0
C1834 C 0.92855 0.06165 0.16641 0.0
C1835 C 0.91385 0.06172 0.18733 0.0
H1836 H 0.95927 0.07727 0.14783 0.0
C1837 C 0.92072 0.07676 0.20664 0.0
H1838 H 0.92377 0.05056 0.15103 0.0
C1839 C 0.94103 0.09216 0.2047 0.0
C1840 C 0.95502 0.09287 0.18342 0.0
H1841 H 0.9101 0.077 0.22312 0.0
H1842 H 0.94533 0.10404 0.2197 0.0
C1843 C 0.94893 0.07704 0.1645 0.0
C1844 C 0.88352 0.91188 0.16876 0.0
C1845 C 0.88528 0.93753 0.17056 0.0
H1846 H 0.90224 0.87737 0.17137 0.0
C1847 C 0.9075 0.94798 0.17782 0.0
H1848 H 0.86662 0.90331 0.16324 0.0
C1849 C 0.92767 0.93315 0.18277 0.0
C1850 C 0.92618 0.90756 0.18027 0.0
H1851 H 0.9094 0.96768 0.17954 0.0
H1852 H 0.9447 0.94183 0.18769 0.0
C1853 C 0.90386 0.89705 0.17339 0.0
C1854 C 0.08096 0.92623 0.16365 0.0
C1855 C 0.1051 0.91921 0.16879 0.0
H1856 H 0.04429 0.91435 0.15667 0.0
C1857 C 0.11067 0.89408 0.1704 0.0
H1858 H 0.07614 0.94545 0.16236 0.0
C1859 C 0.09264 0.87638 0.1671 0.0
C1860 C 0.06845 0.88328 0.16218 0.0
H1861 H 0.12914 0.88798 0.17385 0.0
H1862 H 0.09775 0.85723 0.1684 0.0
C1863 C 0.06275 0.90842 0.16052 0.0
C1864 C 0.09977 0.90857 0.84191 0.0
C1865 C 0.07978 0.92 0.83075 0.0
H1866 H 0.13432 0.91301 0.8591 0.0
C1867 C 0.08013 0.94566 0.82784 0.0
H1868 H 0.10022 0.88886 0.84422 0.0
C1869 C 0.09972 0.95956 0.83634 0.0
C1870 C 0.11946 0.94814 0.84792 0.0
H1871 H 0.06494 0.95518 0.81967 0.0
H1872 H 0.09922 0.9793 0.83406 0.0
C1873 C 0.11936 0.92246 0.85039 0.0
C1874 C 0.06787 0.10761 0.81127 0.0
C1875 C 0.0572 0.11529 0.83304 0.0
H1876 H 0.09488 0.0855 0.79395 0.0
C1877 C 0.06651 0.10592 0.85472 0.0
H1878 H 0.06138 0.11465 0.79423 0.0
C1879 C 0.08565 0.08881 0.85457 0.0
C1880 C 0.09609 0.08077 0.83273 0.0
H1881 H 0.05872 0.11147 0.87184 0.0
H1882 H 0.0918 0.08155 0.87161 0.0
C1883 C 0.0871 0.09072 0.81112 0.0
C1884 C 0.93454 0.08202 0.85712 0.0
C1885 C 0.93351 0.09771 0.83696 0.0
H1886 H 0.91762 0.05247 0.87669 0.0
C1887 C 0.91414 0.09499 0.82074 0.0
H1888 H 0.94936 0.08339 0.86985 0.0
C1889 C 0.89619 0.07731 0.82461 0.0
C1890 C 0.89703 0.06179 0.8448 0.0
H1891 H 0.91246 0.10689 0.80526 0.0
H1892 H 0.88146 0.076 0.81174 0.0
C1893 C 0.91646 0.0642 0.861 0.0
C1894 C 0.90203 0.92087 0.81119 0.0
C1895 C 0.90522 0.94179 0.82559 0.0
H1896 H 0.91505 0.88501 0.80173 0.0
C1897 C 0.92506 0.94254 0.8415 0.0
H1898 H 0.8868 0.91977 0.7989 0.0
C1899 C 0.94157 0.92289 0.84275 0.0
C1900 C 0.93818 0.90182 0.82857 0.0
H1901 H 0.928 0.95852 0.85267 0.0
H1902 H 0.95675 0.92401 0.85513 0.0
C1903 C 0.91815 0.90098 0.81289 0.0
C1904 C 0.16181 0.07829 0.0764 0.0
C1905 C 0.17974 0.07832 0.09439 0.0
H1906 H 0.14404 0.09874 0.04842 0.0
C1907 C 0.19325 0.09983 0.09831 0.0
H1908 H 0.15125 0.0619 0.07296 0.0
C1909 C 0.18902 0.12085 0.08458 0.0
C1910 C 0.17143 0.1208 0.0663 0.0
H1911 H 0.207 0.10045 0.11222 0.0
H1912 H 0.19974 0.13712 0.08818 0.0
C1913 C 0.15787 0.09928 0.06228 0.0
C1914 C 0.90723 0.19109 0.07808 0.0
C1915 C 0.90674 0.17031 0.06314 0.0
H1916 H 0.921 0.20745 0.11017 0.0
C1917 C 0.92171 0.15018 0.06877 0.0
H1918 H 0.89607 0.20701 0.07414 0.0
C1919 C 0.93603 0.15045 0.08962 0.0
C1920 C 0.93549 0.17082 0.10518 0.0
H1921 H 0.92162 0.13388 0.05764 0.0
H1922 H 0.94662 0.13432 0.09411 0.0
C1923 C 0.92141 0.19132 0.09883 0.0
C1924 C 0.81452 0.91267 0.04963 0.0
C1925 C 0.83836 0.90916 0.04086 0.0
H1926 H 0.79126 0.93147 0.07437 0.0
C1927 C 0.85742 0.9235 0.05003 0.0
H1928 H 0.79946 0.90186 0.04284 0.0
C1929 C 0.85268 0.94049 0.06845 0.0
C1930 C 0.82877 0.94353 0.07754 0.0
H1931 H 0.87598 0.92093 0.04364 0.0
H1932 H 0.86762 0.95117 0.0756 0.0
C1933 C 0.80977 0.92969 0.06764 0.0
C1934 C 0.07959 0.85193 0.04758 0.0
C1935 C 0.09705 0.8338 0.04243 0.0
H1936 H 0.04834 0.86203 0.06866 0.0
C1937 C 0.09577 0.81119 0.05454 0.0
H1938 H 0.0801 0.86949 0.03846 0.0
C1939 C 0.0778 0.80697 0.07187 0.0
C1940 C 0.06062 0.82524 0.07753 0.0
H1941 H 0.10897 0.79681 0.05097 0.0
H1942 H 0.07788 0.78962 0.08132 0.0
C1943 C 0.06152 0.84769 0.06499 0.0
C1944 C 0.20538 0.91795 0.96063 0.0
C1945 C 0.18289 0.90559 0.96229 0.0
H1946 H 0.2258 0.94689 0.94389 0.0
C1947 C 0.16329 0.91373 0.94815 0.0
H1948 H 0.22083 0.91221 0.97135 0.0
C1949 C 0.16615 0.93358 0.93253 0.0
C1950 C 0.1887 0.94577 0.93061 0.0
H1951 H 0.14571 0.90464 0.94897 0.0
H1952 H 0.15083 0.93892 0.92147 0.0
C1953 C 0.20826 0.93778 0.94489 0.0
C1954 C 0.09602 0.20613 0.95497 0.0
C1955 C 0.09557 0.18399 0.96798 0.0
H1956 H 0.08158 0.22683 0.92561 0.0
C1957 C 0.07833 0.16606 0.96195 0.0
H1958 H 0.1091 0.22036 0.9592 0.0
C1959 C 0.06246 0.16985 0.94266 0.0
C1960 C 0.06355 0.19165 0.92903 0.0
H1961 H 0.07754 0.14885 0.97167 0.0
H1962 H 0.04948 0.1556 0.93837 0.0
C1963 C 0.08019 0.20992 0.93573 0.0
C1964 C 0.84594 0.09368 0.92976 0.0
C1965 C 0.82332 0.08291 0.92423 0.0
H1966 H 0.8657 0.11782 0.95309 0.0
C1967 C 0.80313 0.08795 0.9392 0.0
H1968 H 0.86179 0.09033 0.91852 0.0
C1969 C 0.80531 0.10369 0.95886 0.0
C1970 C 0.82775 0.11487 0.96418 0.0
H1971 H 0.78555 0.07964 0.9358 0.0
H1972 H 0.78926 0.10716 0.96984 0.0
C1973 C 0.84812 0.10954 0.94951 0.0
C1974 C 0.92645 0.82163 0.92487 0.0
C1975 C 0.92852 0.83355 0.90255 0.0
H1976 H 0.90523 0.81717 0.95723 0.0
C1977 C 0.90997 0.84963 0.89523 0.0
H1978 H 0.94067 0.80926 0.93086 0.0
C1979 C 0.8896 0.85372 0.90989 0.0
C1980 C 0.88768 0.84227 0.93246 0.0
H1981 H 0.9112 0.85892 0.87803 0.0
H1982 H 0.8756 0.86629 0.90375 0.0
C1983 C 0.90632 0.82624 0.93991 0.0
C1984 C 0.04959 0.17952 0.10932 0.0
C1985 C 0.06028 0.16686 0.12862 0.0
H1986 H 0.05546 0.19717 0.07519 0.0
C1987 C 0.08538 0.16154 0.12784 0.0
H1988 H 0.03028 0.18394 0.1096 0.0
C1989 C 0.09954 0.16858 0.10801 0.0
C1990 C 0.08901 0.18174 0.08899 0.0
H1991 H 0.09402 0.15173 0.14248 0.0
H1992 H 0.11883 0.16416 0.10766 0.0
C1993 C 0.06395 0.18723 0.08981 0.0
C1994 C 0.06102 0.8243 0.89285 0.0
C1995 C 0.04749 0.84619 0.89466 0.0
H1996 H 0.08917 0.80171 0.90712 0.0
C1997 C 0.05213 0.86212 0.91393 0.0
H1998 H 0.058 0.81154 0.87824 0.0
C1999 C 0.07022 0.85624 0.93086 0.0
C2000 C 0.08386 0.83433 0.9288 0.0
H2001 H 0.04204 0.87912 0.91575 0.0
H2002 H 0.07336 0.86876 0.94561 0.0
C2003 C 0.07891 0.8185 0.90958 0.0
C2004 C 0.14778 0.08813 0.94277 0.0
C2005 C 0.1685 0.10343 0.94233 0.0
H2006 H 0.13009 0.05647 0.92771 0.0
C2007 C 0.18829 0.0971 0.9275 0.0
H2008 H 0.13218 0.09267 0.95397 0.0
C2009 C 0.18714 0.07657 0.9127 0.0
C2010 C 0.16609 0.06183 0.91222 0.0
H2011 H 0.20463 0.10826 0.92713 0.0
H2012 H 0.20267 0.07261 0.90118 0.0
C2013 C 0.14655 0.06747 0.92775 0.0
C2014 C 0.95373 0.16002 0.92754 0.0
C2015 C 0.95617 0.17637 0.90819 0.0
H2016 H 0.93562 0.15205 0.96084 0.0
C2017 C 0.94176 0.19775 0.90779 0.0
H2018 H 0.96468 0.14348 0.92838 0.0
C2019 C 0.92518 0.20268 0.92632 0.0
C2020 C 0.92252 0.18628 0.9456 0.0
H2021 H 0.94325 0.21078 0.89313 0.0
H2022 H 0.91413 0.21912 0.92531 0.0
C2023 C 0.93701 0.1649 0.94606 0.0
C2024 C 0.83443 0.92833 0.92301 0.0
C2025 C 0.81256 0.92312 0.93546 0.0
H2026 H 0.8531 0.95161 0.89799 0.0
C2027 C 0.79208 0.93807 0.93131 0.0
H2028 H 0.85043 0.91691 0.92529 0.0
C2029 C 0.79357 0.95798 0.91541 0.0
C2030 C 0.81558 0.96335 0.90329 0.0
H2031 H 0.77503 0.93467 0.94067 0.0
H2032 H 0.7775 0.96926 0.9128 0.0
C2033 C 0.83594 0.9482 0.9072 0.0
C2034 C 0.9453 0.86416 0.08631 0.0
C2035 C 0.95162 0.84449 0.10135 0.0
H2036 H 0.92335 0.87615 0.05663 0.0
C2037 C 0.94064 0.8215 0.09777 0.0
H2038 H 0.95352 0.88204 0.08874 0.0
C2039 C 0.92378 0.81811 0.07948 0.0
C2040 C 0.91723 0.83768 0.06452 0.0
H2041 H 0.94524 0.80594 0.10902 0.0
H2042 H 0.91558 0.8002 0.07719 0.0
C2043 C 0.928 0.86082 0.06812 0.0
C2044 C 0.19506 0.91855 0.08094 0.0
C2045 C 0.17465 0.91076 0.06787 0.0
H2046 H 0.20949 0.94413 0.10618 0.0
C2047 C 0.15296 0.92466 0.06919 0.0
H2048 H 0.21214 0.90857 0.07993 0.0
C2049 C 0.15145 0.94526 0.08416 0.0
C2050 C 0.1716 0.95229 0.09802 0.0
H2051 H 0.13684 0.91906 0.05947 0.0
H2052 H 0.13425 0.95499 0.08563 0.0
C2053 C 0.19356 0.93907 0.09583 0.0
C2054 C 0.82064 0.07367 0.11681 0.0
C2055 C 0.83912 0.05626 0.1127 0.0
H2056 H 0.80369 0.10686 0.10538 0.0
C2057 C 0.85485 0.05914 0.09292 0.0
H2058 H 0.80831 0.07201 0.13203 0.0
C2059 C 0.85196 0.07907 0.07736 0.0
C2060 C 0.83339 0.09652 0.08146 0.0
H2061 H 0.86916 0.04588 0.08929 0.0
H2062 H 0.86405 0.08054 0.06198 0.0
C2063 C 0.81786 0.0936 0.10141 0.0
C2064 C 0.09471 0.55496 0.66742 0.0
C2065 C 0.11924 0.56185 0.67012 0.0
H2066 H 0.05715 0.56562 0.67193 0.0
C2067 C 0.12476 0.58431 0.68119 0.0
H2068 H 0.09002 0.53774 0.65891 0.0
C2069 C 0.1061 0.59983 0.68907 0.0
C2070 C 0.08159 0.59344 0.68554 0.0
H2071 H 0.14354 0.58998 0.68363 0.0
H2072 H 0.1108 0.61728 0.6971 0.0
C2073 C 0.076 0.57084 0.67477 0.0
C2074 C 0.94775 0.5995 0.69851 0.0
C2075 C 0.96164 0.60101 0.67723 0.0
H2076 H 0.91779 0.58265 0.71696 0.0
C2077 C 0.95621 0.58503 0.6582 0.0
H2078 H 0.95159 0.61142 0.7136 0.0
C2079 C 0.93655 0.56868 0.66001 0.0
C2080 C 0.92194 0.56786 0.68097 0.0
H2081 H 0.96652 0.58583 0.64153 0.0
H2082 H 0.93226 0.55747 0.64457 0.0
C2083 C 0.92824 0.58307 0.70039 0.0
C2084 C 0.93334 0.42359 0.66051 0.0
C2085 C 0.92663 0.39996 0.66841 0.0
H2086 H 0.92135 0.46018 0.65189 0.0
C2087 C 0.90185 0.3954 0.67347 0.0
H2088 H 0.95227 0.42774 0.65653 0.0
C2089 C 0.88429 0.41378 0.67081 0.0
C2090 C 0.89087 0.43742 0.66305 0.0
H2091 H 0.8958 0.3774 0.67911 0.0
H2092 H 0.86543 0.4093 0.67483 0.0
C2093 C 0.91565 0.44219 0.65798 0.0
C2094 C 0.09503 0.40341 0.68755 0.0
C2095 C 0.09394 0.42384 0.67226 0.0
H2096 H 0.08125 0.36747 0.69543 0.0
C2097 C 0.07692 0.42422 0.65348 0.0
H2098 H 0.10814 0.40283 0.70206 0.0
C2099 C 0.06108 0.40443 0.6501 0.0
C2100 C 0.06265 0.38368 0.66499 0.0
H2101 H 0.07582 0.43993 0.64158 0.0
H2102 H 0.04811 0.40502 0.63545 0.0
C2103 C 0.07977 0.38329 0.68371 0.0
C2104 C 0.09959 0.41178 0.33497 0.0
C2105 C 0.0783 0.42136 0.32452 0.0
H2106 H 0.13652 0.41863 0.3458 0.0
C2107 C 0.07808 0.44608 0.31724 0.0
H2108 H 0.10026 0.39279 0.34064 0.0
C2109 C 0.09861 0.46096 0.32048 0.0
C2110 C 0.12004 0.45132 0.3306 0.0
H2111 H 0.06184 0.45401 0.30937 0.0
H2112 H 0.09777 0.47998 0.31488 0.0
C2113 C 0.12035 0.42653 0.33773 0.0
C2114 C 0.08245 0.58352 0.32726 0.0
C2115 C 0.10605 0.58926 0.31888 0.0
H2116 H 0.04839 0.59709 0.34115 0.0
C2117 C 0.113 0.61404 0.3175 0.0
H2118 H 0.07656 0.56461 0.32845 0.0
C2119 C 0.09703 0.63256 0.32492 0.0
C2120 C 0.07363 0.62683 0.33379 0.0
H2121 H 0.13114 0.61916 0.31156 0.0
H2122 H 0.10321 0.6514 0.32394 0.0
C2123 C 0.06635 0.60211 0.33455 0.0
C2124 C 0.9229 0.59639 0.31384 0.0
C2125 C 0.94049 0.60152 0.33146 0.0
H2126 H 0.89196 0.57498 0.30371 0.0
C2127 C 0.94081 0.58699 0.35248 0.0
H2128 H 0.92233 0.60677 0.29726 0.0
C2129 C 0.92347 0.56841 0.35605 0.0
C2130 C 0.90535 0.56412 0.33879 0.0
H2131 H 0.95385 0.59044 0.3666 0.0
H2132 H 0.92378 0.55796 0.37263 0.0
C2133 C 0.9055 0.57806 0.31752 0.0
C2134 C 0.95045 0.42963 0.32986 0.0
C2135 C 0.9405 0.40611 0.32661 0.0
H2136 H 0.94425 0.46854 0.32773 0.0
C2137 C 0.91718 0.40389 0.31642 0.0
H2138 H 0.96839 0.43187 0.33769 0.0
C2139 C 0.9038 0.42474 0.31017 0.0
C2140 C 0.91324 0.44826 0.31442 0.0
H2141 H 0.90911 0.386 0.31355 0.0
H2142 H 0.88554 0.42249 0.30312 0.0
C2143 C 0.93675 0.45055 0.32413 0.0
C2144 C 0.16871 0.59487 0.56692 0.0
C2145 C 0.18965 0.60237 0.55419 0.0
H2146 H 0.15367 0.57118 0.59379 0.0
C2147 C 0.21202 0.59064 0.55899 0.0
H2148 H 0.1512 0.60356 0.56379 0.0
C2149 C 0.21341 0.57187 0.57615 0.0
C2150 C 0.19247 0.56433 0.58885 0.0
H2151 H 0.22852 0.5959 0.54949 0.0
H2152 H 0.23086 0.56311 0.57929 0.0
C2153 C 0.17011 0.57611 0.58403 0.0
C2154 C 0.92531 0.6529 0.56476 0.0
C2155 C 0.91097 0.67312 0.558 0.0
H2156 H 0.95051 0.63833 0.59057 0.0
C2157 C 0.91301 0.69518 0.57087 0.0
H2158 H 0.92403 0.63569 0.55514 0.0
C2159 C 0.92798 0.69666 0.59093 0.0
C2160 C 0.94132 0.67617 0.59856 0.0
H2161 H 0.90244 0.71121 0.56591 0.0
H2162 H 0.9287 0.71371 0.60086 0.0
C2163 C 0.94046 0.65444 0.58494 0.0
C2164 C 0.85615 0.43828 0.56681 0.0
C2165 C 0.83294 0.4419 0.57724 0.0
H2166 H 0.87782 0.41739 0.54174 0.0
C2167 C 0.8135 0.42695 0.56996 0.0
H2168 H 0.87142 0.44969 0.57192 0.0
C2169 C 0.81715 0.40859 0.55292 0.0
C2170 C 0.84029 0.40483 0.54253 0.0
H2171 H 0.7955 0.42911 0.57785 0.0
H2172 H 0.80175 0.39724 0.54796 0.0
C2173 C 0.85977 0.41997 0.54943 0.0
C2174 C 0.09339 0.34424 0.54902 0.0
C2175 C 0.11627 0.33281 0.55175 0.0
H2176 H 0.05696 0.34861 0.56305 0.0
C2177 C 0.11973 0.31655 0.57104 0.0
H2178 H 0.09027 0.35701 0.53441 0.0
C2179 C 0.10064 0.31151 0.58706 0.0
C2180 C 0.07784 0.32304 0.58448 0.0
H2181 H 0.13715 0.30748 0.57361 0.0
H2182 H 0.10376 0.29881 0.60171 0.0
C2183 C 0.07442 0.33962 0.56545 0.0
C2184 C 0.18873 0.41445 0.43983 0.0
C2185 C 0.16507 0.41129 0.44921 0.0
H2186 H 0.21222 0.43495 0.4169 0.0
C2187 C 0.14668 0.42806 0.44301 0.0
H2188 H 0.20338 0.40191 0.44436 0.0
C2189 C 0.1519 0.44734 0.42704 0.0
C2190 C 0.17562 0.45015 0.41744 0.0
H2191 H 0.1283 0.42596 0.45002 0.0
H2192 H 0.13747 0.46 0.42223 0.0
C2193 C 0.19392 0.43358 0.42421 0.0
C2194 C 0.08836 0.70016 0.43824 0.0
C2195 C 0.07277 0.6819 0.42937 0.0
H2196 H 0.11646 0.70968 0.46278 0.0
C2197 C 0.07339 0.65844 0.44012 0.0
H2198 H 0.08875 0.71829 0.43035 0.0
C2199 C 0.08968 0.65336 0.45894 0.0
C2200 C 0.10561 0.67164 0.46719 0.0
H2201 H 0.06143 0.644 0.43396 0.0
H2202 H 0.09035 0.63504 0.46646 0.0
C2203 C 0.10443 0.69514 0.45687 0.0
C2204 C 0.83425 0.60545 0.45647 0.0
C2205 C 0.84312 0.62792 0.44765 0.0
H2206 H 0.82322 0.56874 0.44802 0.0
C2207 C 0.84778 0.63038 0.42286 0.0
H2208 H 0.83049 0.60304 0.47548 0.0
C2209 C 0.84398 0.61065 0.40725 0.0
C2210 C 0.83495 0.58825 0.41603 0.0
H2211 H 0.85477 0.64742 0.41556 0.0
H2212 H 0.84788 0.61293 0.38827 0.0
C2213 C 0.82995 0.5859 0.44076 0.0
C2214 C 0.91397 0.34239 0.44167 0.0
C2215 C 0.89184 0.32989 0.43791 0.0
H2216 H 0.94978 0.35086 0.428 0.0
C2217 C 0.88956 0.31522 0.41725 0.0
H2218 H 0.9163 0.35395 0.45733 0.0
C2219 C 0.9088 0.31328 0.40065 0.0
C2220 C 0.9307 0.32626 0.40404 0.0
H2221 H 0.87279 0.30536 0.41377 0.0
H2222 H 0.90624 0.30216 0.38474 0.0
C2223 C 0.9331 0.34077 0.4248 0.0
C2224 C 0.08163 0.66452 0.58333 0.0
C2225 C 0.10142 0.68081 0.58536 0.0
H2226 H 0.05009 0.64862 0.60045 0.0
C2227 C 0.10443 0.69372 0.607 0.0
H2228 H 0.07876 0.65448 0.56679 0.0
C2229 C 0.08832 0.69013 0.62631 0.0
C2230 C 0.06847 0.67392 0.62431 0.0
H2231 H 0.11959 0.70625 0.60914 0.0
H2232 H 0.0914 0.70015 0.64284 0.0
C2233 C 0.06514 0.66132 0.60251 0.0
C2234 C 0.05703 0.32326 0.395 0.0
C2235 C 0.04566 0.34639 0.3943 0.0
H2236 H 0.0854 0.30109 0.4099 0.0
C2237 C 0.0534 0.36472 0.41022 0.0
H2238 H 0.05126 0.30863 0.38315 0.0
C2239 C 0.0732 0.36034 0.42557 0.0
C2240 C 0.08546 0.33757 0.42518 0.0
H2241 H 0.04503 0.38273 0.40996 0.0
H2242 H 0.07965 0.37516 0.43679 0.0
C2243 C 0.07666 0.31892 0.41024 0.0
C2244 C 0.189 0.5993 0.40971 0.0
C2245 C 0.17338 0.59959 0.42983 0.0
H2246 H 0.19826 0.58251 0.37625 0.0
C2247 C 0.15348 0.58328 0.43055 0.0
H2248 H 0.20411 0.612 0.40828 0.0
C2249 C 0.14996 0.56635 0.41193 0.0
C2250 C 0.16629 0.56551 0.39235 0.0
H2251 H 0.14117 0.58303 0.44585 0.0
H2252 H 0.13495 0.55348 0.41321 0.0
C2253 C 0.18554 0.58246 0.39125 0.0
C2254 C 0.94289 0.66272 0.44288 0.0
C2255 C 0.92899 0.68447 0.44236 0.0
H2256 H 0.97053 0.64097 0.42535 0.0
C2257 C 0.93182 0.70067 0.423 0.0
H2258 H 0.94107 0.64995 0.4577 0.0
C2259 C 0.94838 0.69556 0.40471 0.0
C2260 C 0.96266 0.67412 0.40531 0.0
H2261 H 0.921 0.71726 0.42184 0.0
H2262 H 0.95005 0.70866 0.39012 0.0
C2263 C 0.95973 0.6576 0.42447 0.0
C2264 C 0.825 0.44157 0.42758 0.0
C2265 C 0.83447 0.41755 0.42768 0.0
H2266 H 0.82336 0.47624 0.40932 0.0
C2267 C 0.85028 0.4103 0.40905 0.0
H2268 H 0.81301 0.44773 0.44191 0.0
C2269 C 0.85599 0.42646 0.39034 0.0
C2270 C 0.84635 0.4504 0.39007 0.0
H2271 H 0.85776 0.3919 0.40868 0.0
H2272 H 0.86795 0.42016 0.37602 0.0
C2273 C 0.83107 0.45793 0.40906 0.0
C2274 C 0.92179 0.30635 0.58042 0.0
C2275 C 0.91584 0.32579 0.56493 0.0
H2276 H 0.9453 0.29311 0.6081 0.0
C2277 C 0.93092 0.34666 0.56444 0.0
H2278 H 0.91076 0.2899 0.58091 0.0
C2279 C 0.95084 0.34851 0.58001 0.0
C2280 C 0.95602 0.3295 0.59628 0.0
H2281 H 0.9267 0.36204 0.55285 0.0
H2282 H 0.96158 0.36518 0.57991 0.0
C2283 C 0.94165 0.30818 0.59592 0.0
C2284 C 0.18818 0.43703 0.59945 0.0
C2285 C 0.16752 0.45238 0.59935 0.0
H2286 H 0.20829 0.40873 0.58179 0.0
C2287 C 0.15101 0.45075 0.58019 0.0
H2288 H 0.20129 0.43775 0.61396 0.0
C2289 C 0.15515 0.43392 0.56151 0.0
C2290 C 0.17596 0.41866 0.56169 0.0
H2291 H 0.13494 0.46234 0.57967 0.0
H2292 H 0.14229 0.43308 0.54683 0.0
C2293 C 0.19234 0.42045 0.58089 0.0
C2294 C 0.81994 0.59268 0.59264 0.0
C2295 C 0.83813 0.59996 0.57629 0.0
H2296 H 0.80904 0.5675 0.62003 0.0
C2297 C 0.85985 0.58605 0.57485 0.0
H2298 H 0.80292 0.60273 0.594 0.0
C2299 C 0.86339 0.56562 0.58979 0.0
C2300 C 0.84532 0.55878 0.60646 0.0
H2301 H 0.87444 0.59131 0.5627 0.0
H2302 H 0.88041 0.55552 0.58859 0.0
C2303 C 0.82348 0.5724 0.60753 0.0
C2304 C 0.56988 0.0648 0.67301 0.0
C2305 C 0.57457 0.08699 0.68501 0.0
H2306 H 0.58518 0.03215 0.65727 0.0
C2307 C 0.5987 0.09298 0.69092 0.0
H2308 H 0.55136 0.05985 0.66835 0.0
C2309 C 0.61792 0.07757 0.68417 0.0
C2310 C 0.61335 0.05555 0.6719 0.0
H2311 H 0.60278 0.11007 0.69995 0.0
H2312 H 0.63643 0.08302 0.68839 0.0
C2313 C 0.58913 0.04898 0.66681 0.0
C2314 C 0.4209 0.0806 0.70016 0.0
C2315 C 0.41326 0.06548 0.68119 0.0
H2316 H 0.44587 0.10804 0.71215 0.0
C2317 C 0.42713 0.06533 0.65973 0.0
H2318 H 0.41101 0.08086 0.71707 0.0
C2319 C 0.44741 0.0808 0.65698 0.0
C2320 C 0.45413 0.09679 0.67557 0.0
H2321 H 0.42176 0.05412 0.64462 0.0
H2322 H 0.45711 0.081 0.63995 0.0
C2323 C 0.441 0.0961 0.69736 0.0
C2324 C 0.39486 0.89686 0.66997 0.0
C2325 C 0.41744 0.90582 0.67798 0.0
H2326 H 0.35826 0.9056 0.65934 0.0
C2327 C 0.42012 0.93111 0.68198 0.0
H2328 H 0.39236 0.87744 0.66678 0.0
C2329 C 0.40085 0.9472 0.67745 0.0
C2330 C 0.37837 0.93832 0.66911 0.0
H2331 H 0.4374 0.93861 0.68778 0.0
H2332 H 0.40366 0.96665 0.68031 0.0
C2333 C 0.3754 0.91295 0.66577 0.0
C2334 C 0.576 0.87688 0.6793 0.0
C2335 C 0.55709 0.88056 0.66269 0.0
H2336 H 0.60694 0.89265 0.69721 0.0
C2337 C 0.55528 0.90323 0.65079 0.0
H2338 H 0.57769 0.85959 0.68878 0.0
C2339 C 0.57239 0.92174 0.6551 0.0
C2340 C 0.59104 0.91818 0.67197 0.0
H2341 H 0.54091 0.90645 0.63784 0.0
H2342 H 0.5709 0.93901 0.64557 0.0
C2343 C 0.5926 0.89571 0.6842 0.0
C2344 C 0.59921 0.9012 0.32832 0.0
C2345 C 0.57686 0.91206 0.322 0.0
H2346 H 0.63653 0.90701 0.33855 0.0
C2347 C 0.57515 0.93779 0.3214 0.0
H2348 H 0.60097 0.88142 0.32899 0.0
C2349 C 0.5952 0.95236 0.32712 0.0
C2350 C 0.61762 0.94159 0.3333 0.0
H2351 H 0.55806 0.94675 0.3171 0.0
H2352 H 0.59308 0.97211 0.32669 0.0
C2353 C 0.61951 0.91584 0.3337 0.0
C2354 C 0.61202 0.10469 0.33712 0.0
C2355 C 0.60101 0.0828 0.32944 0.0
H2356 H 0.60686 0.14198 0.34831 0.0
C2357 C 0.57542 0.08217 0.32713 0.0
H2358 H 0.63166 0.10574 0.33906 0.0
C2359 C 0.56118 0.10277 0.33269 0.0
C2360 C 0.57217 0.12464 0.34041 0.0
H2361 H 0.56628 0.06551 0.32167 0.0
H2362 H 0.54152 0.10152 0.33095 0.0
C2363 C 0.59779 0.12544 0.34236 0.0
C2364 C 0.42619 0.09936 0.31023 0.0
C2365 C 0.44191 0.10497 0.32935 0.0
H2366 H 0.39727 0.07672 0.29724 0.0
C2367 C 0.44102 0.09019 0.35017 0.0
H2368 H 0.42662 0.11003 0.29381 0.0
C2369 C 0.42425 0.07087 0.35208 0.0
C2370 C 0.40798 0.06594 0.33326 0.0
H2371 H 0.45261 0.09406 0.36539 0.0
H2372 H 0.42352 0.06031 0.36858 0.0
C2373 C 0.40942 0.08015 0.31217 0.0
C2374 C 0.44266 0.9177 0.33855 0.0
C2375 C 0.43829 0.89674 0.32446 0.0
H2376 H 0.43226 0.95471 0.34676 0.0
C2377 C 0.41937 0.89736 0.30752 0.0
H2378 H 0.45705 0.91776 0.35186 0.0
C2379 C 0.40546 0.9187 0.30437 0.0
C2380 C 0.40985 0.93963 0.31848 0.0
H2381 H 0.41561 0.88151 0.2964 0.0
H2382 H 0.39108 0.9188 0.29107 0.0
C2383 C 0.42842 0.93881 0.33576 0.0
C2384 C 0.66683 0.07224 0.58724 0.0
C2385 C 0.68921 0.06076 0.59262 0.0
H2386 H 0.64813 0.09952 0.56653 0.0
C2387 C 0.71035 0.06854 0.58037 0.0
H2388 H 0.65024 0.06707 0.59661 0.0
C2389 C 0.70916 0.08726 0.56316 0.0
C2390 C 0.6868 0.09879 0.55785 0.0
H2391 H 0.72782 0.06 0.58393 0.0
H2392 H 0.72584 0.0927 0.55406 0.0
C2393 C 0.66565 0.09103 0.5701 0.0
C2394 C 0.43598 0.14994 0.5799 0.0
C2395 C 0.43657 0.17144 0.59389 0.0
H2396 H 0.41981 0.13146 0.54978 0.0
C2397 C 0.42303 0.19191 0.58643 0.0
H2398 H 0.44617 0.13384 0.58531 0.0
C2399 C 0.40805 0.19054 0.56634 0.0
C2400 C 0.40626 0.16867 0.55315 0.0
H2401 H 0.42353 0.20885 0.59656 0.0
H2402 H 0.39725 0.20649 0.56159 0.0
C2403 C 0.42089 0.14856 0.55963 0.0
C2404 C 0.3042 0.91595 0.55018 0.0
C2405 C 0.32688 0.9151 0.53829 0.0
H2406 H 0.28301 0.93089 0.5788 0.0
C2407 C 0.34568 0.93073 0.54591 0.0
H2408 H 0.28933 0.90411 0.5448 0.0
C2409 C 0.34194 0.94642 0.56559 0.0
C2410 C 0.31935 0.94672 0.57789 0.0
H2411 H 0.36339 0.93034 0.53714 0.0
H2412 H 0.35676 0.95817 0.57118 0.0
C2413 C 0.30051 0.93146 0.5697 0.0
C2414 C 0.59027 0.80892 0.55704 0.0
C2415 C 0.59195 0.83147 0.5449 0.0
H2416 H 0.5709 0.78716 0.58268 0.0
C2417 C 0.57401 0.84942 0.54892 0.0
H2418 H 0.60382 0.79467 0.55429 0.0
C2419 C 0.55495 0.84499 0.56518 0.0
C2420 C 0.55352 0.82252 0.57762 0.0
H2421 H 0.57481 0.86692 0.5397 0.0
H2422 H 0.54135 0.85914 0.568 0.0
C2423 C 0.57127 0.80449 0.57318 0.0
C2424 C 0.65932 0.89084 0.42041 0.0
C2425 C 0.66586 0.88942 0.44475 0.0
H2426 H 0.65828 0.91304 0.38858 0.0
C2427 C 0.67707 0.90969 0.4557 0.0
H2428 H 0.65048 0.87553 0.41162 0.0
C2429 C 0.68199 0.93092 0.44236 0.0
C2430 C 0.67509 0.93243 0.41812 0.0
H2431 H 0.68229 0.909 0.47446 0.0
H2432 H 0.69078 0.94631 0.45102 0.0
C2433 C 0.6636 0.91228 0.4073 0.0
C2434 C 0.60497 0.19407 0.45965 0.0
C2435 C 0.60496 0.17059 0.47009 0.0
H2436 H 0.59049 0.21795 0.43313 0.0
C2437 C 0.58796 0.15321 0.46204 0.0
H2438 H 0.61781 0.20797 0.46541 0.0
C2439 C 0.57183 0.15913 0.44329 0.0
C2440 C 0.57245 0.18252 0.43237 0.0
H2441 H 0.58765 0.13493 0.46968 0.0
H2442 H 0.55907 0.14533 0.4373 0.0
C2443 C 0.58908 0.19991 0.44109 0.0
C2444 C 0.30722 0.10429 0.4441 0.0
C2445 C 0.32929 0.11276 0.45378 0.0
H2446 H 0.2899 0.08411 0.41599 0.0
C2447 C 0.35142 0.10601 0.44253 0.0
H2448 H 0.28988 0.10903 0.45235 0.0
C2449 C 0.35139 0.09158 0.42173 0.0
C2450 C 0.32926 0.08387 0.41163 0.0
H2451 H 0.36877 0.11214 0.44961 0.0
H2452 H 0.36861 0.08715 0.41309 0.0
C2453 C 0.30721 0.09011 0.4232 0.0
C2454 C 0.38532 0.84752 0.41122 0.0
C2455 C 0.38555 0.8426 0.43605 0.0
H2456 H 0.40545 0.84724 0.37799 0.0
C2457 C 0.4069 0.83301 0.4464 0.0
H2458 H 0.36917 0.85507 0.40278 0.0
C2459 C 0.42746 0.828 0.43204 0.0
C2460 C 0.42723 0.83317 0.40725 0.0
H2461 H 0.40755 0.82901 0.46548 0.0
H2462 H 0.44368 0.82047 0.44034 0.0
C2463 C 0.40605 0.84316 0.39705 0.0
C2464 C 0.57826 0.16137 0.58262 0.0
C2465 C 0.59781 0.17769 0.58621 0.0
H2466 H 0.54635 0.14424 0.59777 0.0
C2467 C 0.59977 0.18967 0.60844 0.0
H2468 H 0.57619 0.15205 0.56556 0.0
C2469 C 0.58298 0.18494 0.62692 0.0
C2470 C 0.56352 0.16849 0.62345 0.0
H2471 H 0.6147 0.2022 0.61174 0.0
H2472 H 0.58528 0.1942 0.64399 0.0
C2473 C 0.56112 0.15701 0.60098 0.0
C2474 C 0.56362 0.82512 0.39066 0.0
C2475 C 0.54723 0.84479 0.39362 0.0
H2476 H 0.5924 0.80379 0.4056 0.0
C2477 C 0.54825 0.85887 0.41473 0.0
H2478 H 0.56363 0.814 0.37452 0.0
C2479 C 0.56507 0.85281 0.4328 0.0
C2480 C 0.58082 0.83254 0.42995 0.0
H2481 H 0.53585 0.87413 0.41744 0.0
H2482 H 0.56531 0.8635 0.4492 0.0
C2483 C 0.58011 0.81907 0.40856 0.0
C2484 C 0.65098 0.07393 0.4409 0.0
C2485 C 0.67007 0.091 0.43787 0.0
H2486 H 0.63255 0.04238 0.42635 0.0
C2487 C 0.68428 0.09015 0.41688 0.0
H2488 H 0.63975 0.0742 0.45698 0.0
C2489 C 0.68027 0.07222 0.39969 0.0
C2490 C 0.66187 0.05454 0.40292 0.0
H2491 H 0.69867 0.10339 0.41373 0.0
H2492 H 0.69191 0.07217 0.38387 0.0
C2493 C 0.6469 0.05574 0.42348 0.0
C2494 C 0.45609 0.16031 0.42379 0.0
C2495 C 0.46091 0.178 0.40607 0.0
H2496 H 0.43448 0.15041 0.45445 0.0
C2497 C 0.44704 0.19975 0.40585 0.0
H2498 H 0.46655 0.14344 0.42445 0.0
C2499 C 0.42865 0.20372 0.42286 0.0
C2500 C 0.42361 0.18604 0.44053 0.0
H2501 H 0.45026 0.21379 0.39241 0.0
H2502 H 0.4181 0.22049 0.42189 0.0
C2503 C 0.43761 0.16429 0.44086 0.0
C2504 C 0.29928 0.94584 0.41909 0.0
C2505 C 0.31935 0.93115 0.42546 0.0
H2506 H 0.2864 0.97696 0.39942 0.0
C2507 C 0.34262 0.93734 0.41655 0.0
H2508 H 0.28119 0.94172 0.42591 0.0
C2509 C 0.34563 0.95751 0.40118 0.0
C2510 C 0.32548 0.97211 0.39468 0.0
H2511 H 0.35837 0.92624 0.42103 0.0
H2512 H 0.36373 0.96161 0.39432 0.0
C2513 C 0.30232 0.96614 0.40401 0.0
C2514 C 0.40782 0.82049 0.58019 0.0
C2515 C 0.40234 0.84049 0.56529 0.0
H2516 H 0.43016 0.80612 0.60809 0.0
C2517 C 0.41708 0.86161 0.56643 0.0
H2518 H 0.39711 0.80384 0.57939 0.0
C2519 C 0.43629 0.86298 0.58302 0.0
C2520 C 0.44095 0.84323 0.5986 0.0
H2521 H 0.41316 0.87736 0.55522 0.0
H2522 H 0.44696 0.87965 0.58413 0.0
C2523 C 0.42682 0.82184 0.59662 0.0
C2524 C 0.68909 0.91215 0.58711 0.0
C2525 C 0.67004 0.90639 0.57134 0.0
H2526 H 0.70174 0.93529 0.61534 0.0
C2527 C 0.64911 0.92151 0.57109 0.0
H2528 H 0.70559 0.90121 0.58744 0.0
C2529 C 0.64692 0.94128 0.58706 0.0
C2530 C 0.66558 0.94624 0.60355 0.0
H2531 H 0.63398 0.91748 0.55931 0.0
H2532 H 0.63025 0.95203 0.58716 0.0
C2533 C 0.68689 0.9318 0.60301 0.0
C2534 C 0.35122 0.07715 0.57135 0.0
C2535 C 0.33235 0.09453 0.57414 0.0
H2536 H 0.36836 0.04472 0.5854 0.0
C2537 C 0.31645 0.0926 0.59387 0.0
H2538 H 0.36365 0.07808 0.55618 0.0
C2539 C 0.31906 0.07364 0.61033 0.0
C2540 C 0.33769 0.05612 0.60751 0.0
H2541 H 0.30209 0.10594 0.59682 0.0
H2542 H 0.30637 0.0728 0.62533 0.0
C2543 C 0.35388 0.05804 0.58796 0.0
C2544 C 0.57943 0.56174 0.18993 0.0
C2545 C 0.57784 0.58608 0.18169 0.0
H2546 H 0.60073 0.52858 0.19088 0.0
C2547 C 0.59721 0.59583 0.16809 0.0
H2548 H 0.56462 0.55381 0.2003 0.0
C2549 C 0.61803 0.5817 0.16324 0.0
C2550 C 0.61956 0.55729 0.17126 0.0
H2551 H 0.59638 0.61454 0.16159 0.0
H2552 H 0.63283 0.58979 0.15293 0.0
C2553 C 0.59996 0.54733 0.18443 0.0
C2554 C 0.41938 0.57725 0.19325 0.0
C2555 C 0.41264 0.56305 0.17333 0.0
H2556 H 0.44395 0.60378 0.20766 0.0
C2557 C 0.42736 0.56398 0.15244 0.0
H2558 H 0.40873 0.57669 0.2097 0.0
C2559 C 0.44775 0.57951 0.15125 0.0
C2560 C 0.45383 0.59439 0.17092 0.0
H2561 H 0.42261 0.5535 0.13663 0.0
H2562 H 0.45819 0.58052 0.13466 0.0
C2563 C 0.43969 0.59269 0.19208 0.0
C2564 C 0.40747 0.39629 0.16078 0.0
C2565 C 0.4297 0.40675 0.16797 0.0
H2566 H 0.37018 0.40252 0.15085 0.0
C2567 C 0.43115 0.43238 0.17044 0.0
H2568 H 0.40586 0.3766 0.15876 0.0
C2569 C 0.41092 0.44725 0.16555 0.0
C2570 C 0.38864 0.43679 0.15848 0.0
H2571 H 0.44813 0.441 0.17561 0.0
H2572 H 0.41269 0.46694 0.16744 0.0
C2573 C 0.38707 0.41113 0.15633 0.0
C2574 C 0.61249 0.39419 0.17262 0.0
C2575 C 0.60663 0.41912 0.16965 0.0
H2576 H 0.60063 0.357 0.17033 0.0
C2577 C 0.58309 0.42541 0.16174 0.0
H2578 H 0.63057 0.38865 0.17823 0.0
C2579 C 0.56569 0.4071 0.15724 0.0
C2580 C 0.57168 0.38215 0.16023 0.0
H2581 H 0.57808 0.44447 0.15934 0.0
H2582 H 0.54765 0.41246 0.15129 0.0
C2583 C 0.59531 0.37598 0.16789 0.0
C2584 C 0.58719 0.44081 0.78753 0.0
C2585 C 0.57812 0.42806 0.80769 0.0
H2586 H 0.61108 0.46883 0.77426 0.0
C2587 C 0.58765 0.43365 0.83049 0.0
H2588 H 0.58056 0.43674 0.76967 0.0
C2589 C 0.60528 0.45197 0.83311 0.0
C2590 C 0.61379 0.46519 0.81302 0.0
H2591 H 0.58096 0.4245 0.84648 0.0
H2592 H 0.61188 0.45608 0.851 0.0
C2593 C 0.60477 0.45918 0.79016 0.0
C2594 C 0.57894 0.58065 0.83279 0.0
C2595 C 0.60051 0.5865 0.82012 0.0
H2596 H 0.54546 0.59396 0.84837 0.0
C2597 C 0.60416 0.61079 0.81253 0.0
H2598 H 0.57557 0.56204 0.83871 0.0
C2599 C 0.58716 0.62899 0.81824 0.0
C2600 C 0.56591 0.62334 0.83144 0.0
H2601 H 0.62067 0.61595 0.803 0.0
H2602 H 0.59088 0.64763 0.81254 0.0
C2603 C 0.56169 0.59888 0.83824 0.0
C2604 C 0.43276 0.585 0.85475 0.0
C2605 C 0.43263 0.59857 0.83311 0.0
H2606 H 0.4159 0.55631 0.87562 0.0
C2607 C 0.41587 0.59214 0.81521 0.0
H2608 H 0.44525 0.5896 0.86905 0.0
C2609 C 0.39907 0.57334 0.81907 0.0
C2610 C 0.39858 0.56033 0.84093 0.0
H2611 H 0.41555 0.60185 0.79822 0.0
H2612 H 0.38619 0.56924 0.80491 0.0
C2613 C 0.41589 0.566 0.8586 0.0
C2614 C 0.40356 0.41898 0.80708 0.0
C2615 C 0.4079 0.44057 0.82014 0.0
H2616 H 0.41584 0.38259 0.79857 0.0
C2617 C 0.42885 0.44213 0.8345 0.0
H2618 H 0.38743 0.41738 0.79601 0.0
C2619 C 0.4454 0.42256 0.83549 0.0
C2620 C 0.4409 0.40082 0.82269 0.0
H2621 H 0.43257 0.45866 0.84462 0.0
H2622 H 0.4615 0.42428 0.84661 0.0
C2623 C 0.41973 0.39913 0.80863 0.0
C2624 C 0.70842 0.57725 0.07502 0.0
C2625 C 0.6884 0.5701 0.08935 0.0
H2626 H 0.72189 0.60059 0.04707 0.0
C2627 C 0.66573 0.58164 0.08568 0.0
H2628 H 0.72604 0.5685 0.07704 0.0
C2629 C 0.6633 0.60014 0.06829 0.0
C2630 C 0.68348 0.60743 0.05418 0.0
H2631 H 0.65002 0.57675 0.09657 0.0
H2632 H 0.64564 0.60881 0.06602 0.0
C2633 C 0.70601 0.59566 0.05772 0.0
C2634 C 0.41248 0.68982 0.0973 0.0
C2635 C 0.43212 0.67334 0.09984 0.0
H2636 H 0.38241 0.70186 0.07607 0.0
C2637 C 0.43624 0.65597 0.08147 0.0
H2638 H 0.40822 0.70323 0.11099 0.0
C2639 C 0.42094 0.65497 0.06137 0.0
C2640 C 0.40141 0.67149 0.05909 0.0
H2641 H 0.45123 0.64309 0.08244 0.0
H2642 H 0.4244 0.64127 0.04766 0.0
C2643 C 0.39747 0.689 0.07717 0.0
C2644 C 0.35612 0.43448 0.05862 0.0
C2645 C 0.3322 0.43656 0.06791 0.0
H2646 H 0.38021 0.4152 0.03435 0.0
C2647 C 0.314 0.42091 0.05921 0.0
H2648 H 0.37044 0.44652 0.06487 0.0
C2649 C 0.31956 0.40319 0.04207 0.0
C2650 C 0.34342 0.4008 0.03295 0.0
H2651 H 0.29551 0.42195 0.06614 0.0
H2652 H 0.30509 0.39114 0.03608 0.0
C2653 C 0.36166 0.41681 0.04104 0.0
C2654 C 0.58192 0.34173 0.07326 0.0
C2655 C 0.57024 0.31904 0.07703 0.0
H2656 H 0.60787 0.36226 0.05242 0.0
C2657 C 0.57618 0.29933 0.06178 0.0
H2658 H 0.57812 0.35723 0.08484 0.0
C2659 C 0.5934 0.30217 0.04335 0.0
C2660 C 0.6051 0.32481 0.03961 0.0
H2661 H 0.56736 0.28171 0.06388 0.0
H2662 H 0.59745 0.28655 0.03197 0.0
C2663 C 0.59912 0.3446 0.05473 0.0
C2664 C 0.69223 0.41222 0.93809 0.0
C2665 C 0.66933 0.41136 0.94963 0.0
H2666 H 0.71502 0.42986 0.91217 0.0
C2667 C 0.65183 0.42933 0.94423 0.0
H2668 H 0.70619 0.39868 0.94191 0.0
C2669 C 0.65702 0.44744 0.92702 0.0
C2670 C 0.67984 0.4479 0.91511 0.0
H2671 H 0.63404 0.42905 0.95285 0.0
H2672 H 0.64319 0.46102 0.92304 0.0
C2673 C 0.69741 0.43023 0.9211 0.0
C2674 C 0.5877 0.64878 0.95177 0.0
C2675 C 0.59631 0.66806 0.96602 0.0
H2676 H 0.56727 0.63879 0.92054 0.0
C2677 C 0.58841 0.69208 0.96141 0.0
H2678 H 0.59392 0.63017 0.95482 0.0
C2679 C 0.57323 0.69707 0.94202 0.0
C2680 C 0.56585 0.67816 0.92659 0.0
H2681 H 0.59481 0.70724 0.97228 0.0
H2682 H 0.56782 0.71587 0.9388 0.0
C2683 C 0.5726 0.65381 0.93208 0.0
C2684 C 0.30438 0.58315 0.93663 0.0
C2685 C 0.32427 0.57939 0.92094 0.0
H2686 H 0.29033 0.60195 0.96745 0.0
C2687 C 0.34621 0.59194 0.92532 0.0
H2688 H 0.28737 0.57343 0.93409 0.0
C2689 C 0.34797 0.60833 0.94464 0.0
C2690 C 0.32783 0.61243 0.95998 0.0
H2691 H 0.3618 0.58959 0.91348 0.0
H2692 H 0.365 0.61802 0.94732 0.0
C2693 C 0.30612 0.59945 0.95588 0.0
C2694 C 0.41965 0.34808 0.88887 0.0
C2695 C 0.43862 0.3322 0.89561 0.0
H2696 H 0.38453 0.36293 0.8976 0.0
C2697 C 0.43655 0.31889 0.91716 0.0
H2698 H 0.42083 0.35838 0.87224 0.0
C2699 C 0.41597 0.32187 0.93203 0.0
C2700 C 0.39688 0.33761 0.9251 0.0
H2701 H 0.45105 0.3066 0.92264 0.0
H2702 H 0.41484 0.3117 0.94876 0.0
C2703 C 0.39887 0.35053 0.9033 0.0
C2704 C 0.54957 0.70003 0.09779 0.0
C2705 C 0.54711 0.67805 0.11084 0.0
H2706 H 0.56972 0.72018 0.07136 0.0
C2707 C 0.56436 0.65927 0.10702 0.0
H2708 H 0.53664 0.71489 0.10018 0.0
C2709 C 0.58351 0.66239 0.09047 0.0
C2710 C 0.58593 0.68438 0.07738 0.0
H2711 H 0.56309 0.64213 0.11679 0.0
H2712 H 0.59655 0.64764 0.0881 0.0
C2713 C 0.56872 0.70315 0.08132 0.0
C2714 C 0.59003 0.33023 0.89722 0.0
C2715 C 0.5912 0.34456 0.91809 0.0
H2716 H 0.57247 0.32342 0.86394 0.0
C2717 C 0.57482 0.36436 0.92078 0.0
H2718 H 0.60267 0.31524 0.89429 0.0
C2719 C 0.55723 0.36926 0.90307 0.0
C2720 C 0.55596 0.3545 0.88242 0.0
H2721 H 0.57526 0.37569 0.93675 0.0
H2722 H 0.54456 0.38433 0.90563 0.0
C2723 C 0.57272 0.33511 0.87968 0.0
C2724 C 0.69017 0.56773 0.90512 0.0
C2725 C 0.667 0.56073 0.89711 0.0
H2726 H 0.71088 0.58923 0.92931 0.0
C2727 C 0.64616 0.57074 0.9082 0.0
H2728 H 0.70654 0.55994 0.89715 0.0
C2729 C 0.64859 0.5883 0.92645 0.0
C2730 C 0.67192 0.59577 0.93418 0.0
H2731 H 0.62807 0.56558 0.90224 0.0
H2732 H 0.6322 0.59636 0.93401 0.0
C2733 C 0.69261 0.58475 0.92357 0.0
C2734 C 0.42791 0.70181 0.92319 0.0
C2735 C 0.42373 0.68485 0.9417 0.0
H2736 H 0.4472 0.71015 0.89087 0.0
C2737 C 0.43689 0.6626 0.94169 0.0
H2738 H 0.41788 0.71891 0.92248 0.0
C2739 C 0.45375 0.65741 0.92337 0.0
C2740 C 0.45764 0.67436 0.90478 0.0
H2741 H 0.43428 0.64927 0.9559 0.0
H2742 H 0.46363 0.64018 0.92372 0.0
C2743 C 0.44462 0.69663 0.90495 0.0
C2744 C 0.29845 0.45109 0.90994 0.0
C2745 C 0.32032 0.45803 0.89838 0.0
H2746 H 0.28065 0.4259 0.93388 0.0
C2747 C 0.34136 0.44377 0.90212 0.0
H2748 H 0.28187 0.46165 0.90747 0.0
C2749 C 0.34057 0.42318 0.91713 0.0
C2750 C 0.31877 0.41633 0.9289 0.0
H2751 H 0.35846 0.44841 0.89335 0.0
H2752 H 0.35708 0.41247 0.91926 0.0
C2753 C 0.29768 0.43049 0.925 0.0
C2754 C 0.44828 0.31528 0.09054 0.0
C2755 C 0.4589 0.33846 0.094 0.0
H2756 H 0.42349 0.29345 0.07013 0.0
C2757 C 0.4523 0.35788 0.07874 0.0
H2758 H 0.45305 0.29992 0.10198 0.0
C2759 C 0.43503 0.35414 0.06056 0.0
C2760 C 0.42451 0.33085 0.05714 0.0
H2761 H 0.46016 0.37593 0.08109 0.0
H2762 H 0.43014 0.36934 0.04899 0.0
C2763 C 0.43144 0.31149 0.07224 0.0
C2764 C 0.6611 0.43266 0.06408 0.0
C2765 C 0.68217 0.4178 0.06304 0.0
H2766 H 0.6416 0.46107 0.08278 0.0
C2767 C 0.70018 0.42092 0.08069 0.0
H2768 H 0.64701 0.43108 0.05061 0.0
C2769 C 0.69711 0.43821 0.09902 0.0
C2770 C 0.676 0.4529 0.10014 0.0
H2771 H 0.71648 0.40968 0.08061 0.0
H2772 H 0.71127 0.43991 0.11245 0.0
C2773 C 0.65806 0.45002 0.08242 0.0
C2774 C 0.31388 0.56536 0.09848 0.0
C2775 C 0.33641 0.55293 0.09868 0.0
H2776 H 0.29316 0.59549 0.08476 0.0
C2777 C 0.35553 0.56149 0.08407 0.0
H2778 H 0.29869 0.55907 0.10942 0.0
C2779 C 0.35237 0.58256 0.07004 0.0
C2780 C 0.32997 0.59538 0.07029 0.0
H2781 H 0.3731 0.55233 0.08398 0.0
H2782 H 0.36775 0.58918 0.05963 0.0
C2783 C 0.3107 0.58631 0.08443 0.0
loop_
_geom_bond_atom_site_label_1
_geom_bond_atom_site_label_2
_geom_bond_distance
_geom_bond_site_symmetry_2
_ccdc_geom_bond_type
Co0 N4 2.130 1_455 S
Co0 N10 2.147 . S
Co0 N20 2.192 1_455 S
Co0 O25 2.329 1_455 S
Co0 O26 2.142 1_455 S
Co0 O27 2.113 . S
C1 N4 1.301 . S
C1 N5 1.328 . S
C1 H6 0.930 . S
C2 C3 1.333 . S
C2 N4 1.317 . S
C2 H7 0.930 . S
C3 C2 1.333 . S
C3 N5 1.350 . S
C3 H29 0.931 . S
N4 Co0 2.130 1_655 S
N4 C1 1.301 . S
N4 C2 1.317 . S
N5 C1 1.328 . S
N5 C3 1.350 . S
H6 C1 0.930 . S
H7 C2 0.930 . S
C8 O9 1.224 . S
C8 O27 1.247 . S
O9 C8 1.224 . S
N10 Co0 2.147 . S
N10 C11 1.355 . S
N10 C13 1.311 . S
C11 N10 1.355 . S
C11 C12 1.363 . S
C11 H23 0.929 . S
C12 C11 1.363 . S
C12 N14 1.375 . S
C12 H30 0.931 . S
C13 N10 1.311 . S
C13 N14 1.347 . S
C13 H24 0.929 . S
N14 C12 1.375 . S
N14 C13 1.347 . S
C15 C18 1.365 . S
C15 N20 1.328 . S
C15 H21 0.929 . S
C16 C17 1.396 . S
C16 C19 1.378 . S
C16 H31 0.929 . S
C17 C16 1.396 . S
C17 C18 1.330 1_455 S
C18 C15 1.365 . S
C18 C17 1.330 1_655 S
C18 H32 0.930 . S
C19 C16 1.378 . S
C19 N20 1.315 1_455 S
C19 H22 0.930 . S
N20 Co0 2.192 1_655 S
N20 C15 1.328 . S
N20 C19 1.315 1_655 S
H21 C15 0.929 . S
H22 C19 0.930 . S
H23 C11 0.929 . S
H24 C13 0.929 . S
O25 Co0 2.329 1_655 S
O25 C28 1.244 . S
O26 Co0 2.142 1_655 S
O26 C28 1.240 . S
O27 Co0 2.113 . S
O27 C8 1.247 . S
C28 O25 1.244 . S
C28 O26 1.240 . S
H29 C3 0.931 . S
H30 C12 0.931 . S
H31 C16 0.929 . S
H32 C18 0.930 . S
Co33 N37 2.148 . S
Co33 N43 2.128 1_545 S
Co33 N53 2.194 . S
Co33 O58 2.351 . S
Co33 O59 2.155 . S
Co33 O60 2.096 1_545 S
C34 N37 1.301 . S
C34 N38 1.328 . S
C34 H39 0.930 . S
C35 C36 1.333 . S
C35 N37 1.317 . S
C35 H40 0.930 . S
C36 C35 1.333 . S
C36 N38 1.350 . S
C36 H62 0.931 . S
N37 Co33 2.148 . S
N37 C34 1.301 . S
N37 C35 1.317 . S
N38 C34 1.328 . S
N38 C36 1.350 . S
H39 C34 0.930 . S
H40 C35 0.930 . S
C41 O42 1.224 . S
C41 O60 1.247 . S
O42 C41 1.224 . S
N43 Co33 2.128 1_565 S
N43 C44 1.355 . S
N43 C46 1.311 . S
C44 N43 1.355 . S
C44 C45 1.363 . S
C44 H56 0.929 . S
C45 C44 1.363 . S
C45 N47 1.375 . S
C45 H63 0.931 . S
C46 N43 1.311 . S
C46 N47 1.347 . S
C46 H57 0.929 . S
N47 C45 1.375 . S
N47 C46 1.347 . S
C48 C51 1.365 . S
C48 N53 1.328 . S
C48 H54 0.929 . S
C49 C50 1.362 1_565 S
C49 C52 1.378 . S
C49 H64 0.929 . S
C50 C49 1.362 1_545 S
C50 C51 1.366 . S
C51 C48 1.365 . S
C51 C50 1.366 . S
C51 H65 0.930 . S
C52 C49 1.378 . S
C52 N53 1.315 1_565 S
C52 H55 0.930 . S
N53 Co33 2.194 . S
N53 C48 1.328 . S
N53 C52 1.315 1_545 S
H54 C48 0.929 . S
H55 C52 0.930 . S
H56 C44 0.929 . S
H57 C46 0.929 . S
O58 Co33 2.351 . S
O58 C61 1.244 . S
O59 Co33 2.155 . S
O59 C61 1.240 . S
O60 Co33 2.096 1_565 S
O60 C41 1.247 . S
C61 O58 1.244 . S
C61 O59 1.240 . S
H62 C36 0.931 . S
H63 C45 0.931 . S
H64 C49 0.929 . S
H65 C51 0.930 . S
Co66 N70 2.148 . S
Co66 N76 2.128 1_655 S
Co66 N86 2.194 . S
Co66 O91 2.351 . S
Co66 O92 2.155 . S
Co66 O93 2.096 1_655 S
C67 N70 1.301 . S
C67 N71 1.328 . S
C67 H72 0.930 . S
C68 C69 1.333 . S
C68 N70 1.317 . S
C68 H73 0.930 . S
C69 C68 1.333 . S
C69 N71 1.350 . S
C69 H95 0.931 . S
N70 Co66 2.148 . S
N70 C67 1.301 . S
N70 C68 1.317 . S
N71 C67 1.328 . S
N71 C69 1.350 . S
H72 C67 0.930 . S
H73 C68 0.930 . S
C74 O75 1.224 . S
C74 O93 1.247 . S
O75 C74 1.224 . S
N76 Co66 2.128 1_455 S
N76 C77 1.355 . S
N76 C79 1.311 . S
C77 N76 1.355 . S
C77 C78 1.363 . S
C77 H89 0.929 . S
C78 C77 1.363 . S
C78 N80 1.375 . S
C78 H96 0.931 . S
C79 N76 1.311 . S
C79 N80 1.347 . S
C79 H90 0.929 . S
N80 C78 1.375 . S
N80 C79 1.347 . S
C81 C84 1.365 . S
C81 N86 1.328 . S
C81 H87 0.929 . S
C82 C83 1.362 1_455 S
C82 C85 1.378 . S
C82 H97 0.929 . S
C83 C82 1.362 1_655 S
C83 C84 1.366 . S
C84 C81 1.365 . S
C84 C83 1.366 . S
C84 H98 0.930 . S
C85 C82 1.378 . S
C85 N86 1.315 1_455 S
C85 H88 0.930 . S
N86 Co66 2.194 . S
N86 C81 1.328 . S
N86 C85 1.315 1_655 S
H87 C81 0.929 . S
H88 C85 0.930 . S
H89 C77 0.929 . S
H90 C79 0.929 . S
O91 Co66 2.351 . S
O91 C94 1.244 . S
O92 Co66 2.155 . S
O92 C94 1.240 . S
O93 Co66 2.096 1_455 S
O93 C74 1.247 . S
C94 O91 1.244 . S
C94 O92 1.240 . S
H95 C69 0.931 . S
H96 C78 0.931 . S
H97 C82 0.929 . S
H98 C84 0.930 . S
Co99 N103 2.153 . S
Co99 N109 2.122 1_565 S
Co99 N119 2.194 . S
Co99 O124 2.358 . S
Co99 O125 2.159 . S
Co99 O126 2.090 1_565 S
C100 N103 1.301 . S
C100 N104 1.328 . S
C100 H105 0.930 . S
C101 C102 1.333 . S
C101 N103 1.317 . S
C101 H106 0.930 . S
C102 C101 1.333 . S
C102 N104 1.350 . S
C102 H128 0.931 . S
N103 Co99 2.153 . S
N103 C100 1.301 . S
N103 C101 1.317 . S
N104 C100 1.328 . S
N104 C102 1.350 . S
H105 C100 0.930 . S
H106 C101 0.930 . S
C107 O108 1.224 . S
C107 O126 1.247 . S
O108 C107 1.224 . S
N109 Co99 2.122 1_545 S
N109 C110 1.355 . S
N109 C112 1.311 . S
C110 N109 1.355 . S
C110 C111 1.363 . S
C110 H122 0.929 . S
C111 C110 1.363 . S
C111 N113 1.375 . S
C111 H129 0.931 . S
C112 N109 1.311 . S
C112 N113 1.347 . S
C112 H123 0.929 . S
N113 C111 1.375 . S
N113 C112 1.347 . S
C114 C117 1.365 . S
C114 N119 1.328 . S
C114 H120 0.929 . S
C115 C116 1.354 1_545 S
C115 C118 1.378 . S
C115 H130 0.929 . S
C116 C115 1.354 1_565 S
C116 C117 1.375 . S
C117 C114 1.365 . S
C117 C116 1.375 . S
C117 H131 0.930 . S
C118 C115 1.378 . S
C118 N119 1.315 1_545 S
C118 H121 0.930 . S
N119 Co99 2.194 . S
N119 C114 1.328 . S
N119 C118 1.315 1_565 S
H120 C114 0.929 . S
H121 C118 0.930 . S
H122 C110 0.929 . S
H123 C112 0.929 . S
O124 Co99 2.358 . S
O124 C127 1.244 . S
O125 Co99 2.159 . S
O125 C127 1.240 . S
O126 Co99 2.090 1_545 S
O126 C107 1.247 . S
C127 O124 1.244 . S
C127 O125 1.240 . S
H128 C102 0.931 . S
H129 C111 0.931 . S
H130 C115 0.929 . S
H131 C117 0.930 . S
Co132 N136 2.148 . S
Co132 N142 2.128 1_455 S
Co132 N152 2.194 . S
Co132 O157 2.351 . S
Co132 O158 2.155 . S
Co132 O159 2.096 1_455 S
C133 N136 1.301 . S
C133 N137 1.328 . S
C133 H138 0.930 . S
C134 C135 1.333 . S
C134 N136 1.317 . S
C134 H139 0.930 . S
C135 C134 1.333 . S
C135 N137 1.350 . S
C135 H161 0.931 . S
N136 Co132 2.148 . S
N136 C133 1.301 . S
N136 C134 1.317 . S
N137 C133 1.328 . S
N137 C135 1.350 . S
H138 C133 0.930 . S
H139 C134 0.930 . S
C140 O141 1.224 . S
C140 O159 1.247 . S
O141 C140 1.224 . S
N142 Co132 2.128 1_655 S
N142 C143 1.355 . S
N142 C145 1.311 . S
C143 N142 1.355 . S
C143 C144 1.363 . S
C143 H155 0.929 . S
C144 C143 1.363 . S
C144 N146 1.375 . S
C144 H162 0.931 . S
C145 N142 1.311 . S
C145 N146 1.347 . S
C145 H156 0.929 . S
N146 C144 1.375 . S
N146 C145 1.347 . S
C147 C150 1.365 . S
C147 N152 1.328 . S
C147 H153 0.929 . S
C148 C149 1.362 1_655 S
C148 C151 1.378 . S
C148 H163 0.929 . S
C149 C148 1.362 1_455 S
C149 C150 1.366 . S
C150 C147 1.365 . S
C150 C149 1.366 . S
C150 H164 0.930 . S
C151 C148 1.378 . S
C151 N152 1.315 1_655 S
C151 H154 0.930 . S
N152 Co132 2.194 . S
N152 C147 1.328 . S
N152 C151 1.315 1_455 S
H153 C147 0.929 . S
H154 C151 0.930 . S
H155 C143 0.929 . S
H156 C145 0.929 . S
O157 Co132 2.351 . S
O157 C160 1.244 . S
O158 Co132 2.155 . S
O158 C160 1.240 . S
O159 Co132 2.096 1_655 S
O159 C140 1.247 . S
C160 O157 1.244 . S
C160 O158 1.240 . S
H161 C135 0.931 . S
H162 C144 0.931 . S
H163 C148 0.929 . S
H164 C150 0.930 . S
Co165 N169 2.148 . S
Co165 N175 2.128 1_545 S
Co165 N185 2.194 . S
Co165 O190 2.351 . S
Co165 O191 2.155 . S
Co165 O192 2.096 1_545 S
C166 N169 1.301 . S
C166 N170 1.328 . S
C166 H171 0.930 . S
C167 C168 1.333 . S
C167 N169 1.317 . S
C167 H172 0.930 . S
C168 C167 1.333 . S
C168 N170 1.350 . S
C168 H194 0.931 . S
N169 Co165 2.148 . S
N169 C166 1.301 . S
N169 C167 1.317 . S
N170 C166 1.328 . S
N170 C168 1.350 . S
H171 C166 0.930 . S
H172 C167 0.930 . S
C173 O174 1.224 . S
C173 O192 1.247 . S
O174 C173 1.224 . S
N175 Co165 2.128 1_565 S
N175 C176 1.355 . S
N175 C178 1.311 . S
C176 N175 1.355 . S
C176 C177 1.363 . S
C176 H188 0.929 . S
C177 C176 1.363 . S
C177 N179 1.375 . S
C177 H195 0.931 . S
C178 N175 1.311 . S
C178 N179 1.347 . S
C178 H189 0.929 . S
N179 C177 1.375 . S
N179 C178 1.347 . S
C180 C183 1.365 . S
C180 N185 1.328 . S
C180 H186 0.929 . S
C181 C182 1.362 1_565 S
C181 C184 1.378 . S
C181 H196 0.929 . S
C182 C181 1.362 1_545 S
C182 C183 1.366 . S
C183 C180 1.365 . S
C183 C182 1.366 . S
C183 H197 0.930 . S
C184 C181 1.378 . S
C184 N185 1.315 1_565 S
C184 H187 0.930 . S
N185 Co165 2.194 . S
N185 C180 1.328 . S
N185 C184 1.315 1_545 S
H186 C180 0.929 . S
H187 C184 0.930 . S
H188 C176 0.929 . S
H189 C178 0.929 . S
O190 Co165 2.351 . S
O190 C193 1.244 . S
O191 Co165 2.155 . S
O191 C193 1.240 . S
O192 Co165 2.096 1_565 S
O192 C173 1.247 . S
C193 O190 1.244 . S
C193 O191 1.240 . S
H194 C168 0.931 . S
H195 C177 0.931 . S
H196 C181 0.929 . S
H197 C183 0.930 . S
Co198 N202 2.131 1_455 S
Co198 N208 2.147 . S
Co198 N218 2.192 1_455 S
Co198 O223 2.330 1_455 S
Co198 O224 2.142 1_455 S
Co198 O225 2.112 . S
C199 N202 1.301 . S
C199 N203 1.328 . S
C199 H204 0.930 . S
C200 C201 1.333 . S
C200 N202 1.317 . S
C200 H205 0.930 . S
C201 C200 1.333 . S
C201 N203 1.350 . S
C201 H227 0.931 . S
N202 Co198 2.131 1_655 S
N202 C199 1.301 . S
N202 C200 1.317 . S
N203 C199 1.328 . S
N203 C201 1.350 . S
H204 C199 0.930 . S
H205 C200 0.930 . S
C206 O207 1.224 . S
C206 O225 1.247 . S
O207 C206 1.224 . S
N208 Co198 2.147 . S
N208 C209 1.355 . S
N208 C211 1.311 . S
C209 N208 1.355 . S
C209 C210 1.363 . S
C209 H221 0.929 . S
C210 C209 1.363 . S
C210 N212 1.375 . S
C210 H228 0.931 . S
C211 N208 1.311 . S
C211 N212 1.347 . S
C211 H222 0.929 . S
N212 C210 1.375 . S
N212 C211 1.347 . S
C213 C216 1.365 . S
C213 N218 1.328 . S
C213 H219 0.929 . S
C214 C215 1.387 . S
C214 C217 1.378 . S
C214 H229 0.929 . S
C215 C214 1.387 . S
C215 C216 1.339 1_455 S
C216 C213 1.365 . S
C216 C215 1.339 1_655 S
C216 H230 0.930 . S
C217 C214 1.378 . S
C217 N218 1.315 1_455 S
C217 H220 0.930 . S
N218 Co198 2.192 1_655 S
N218 C213 1.328 . S
N218 C217 1.315 1_655 S
H219 C213 0.929 . S
H220 C217 0.930 . S
H221 C209 0.929 . S
H222 C211 0.929 . S
O223 Co198 2.330 1_655 S
O223 C226 1.244 . S
O224 Co198 2.142 1_655 S
O224 C226 1.240 . S
O225 Co198 2.112 . S
O225 C206 1.247 . S
C226 O223 1.244 . S
C226 O224 1.240 . S
H227 C201 0.931 . S
H228 C210 0.931 . S
H229 C214 0.929 . S
H230 C216 0.930 . S
Co231 N235 2.148 . S
Co231 N241 2.128 1_545 S
Co231 N251 2.194 . S
Co231 O256 2.351 . S
Co231 O257 2.155 . S
Co231 O258 2.096 1_545 S
C232 N235 1.301 . S
C232 N236 1.328 . S
C232 H237 0.930 . S
C233 C234 1.333 . S
C233 N235 1.317 . S
C233 H238 0.930 . S
C234 C233 1.333 . S
C234 N236 1.350 . S
C234 H260 0.931 . S
N235 Co231 2.148 . S
N235 C232 1.301 . S
N235 C233 1.317 . S
N236 C232 1.328 . S
N236 C234 1.350 . S
H237 C232 0.930 . S
H238 C233 0.930 . S
C239 O240 1.224 . S
C239 O258 1.247 . S
O240 C239 1.224 . S
N241 Co231 2.128 1_565 S
N241 C242 1.355 . S
N241 C244 1.311 . S
C242 N241 1.355 . S
C242 C243 1.363 . S
C242 H254 0.929 . S
C243 C242 1.363 . S
C243 N245 1.375 . S
C243 H261 0.931 . S
C244 N241 1.311 . S
C244 N245 1.347 . S
C244 H255 0.929 . S
N245 C243 1.375 . S
N245 C244 1.347 . S
C246 C249 1.365 . S
C246 N251 1.328 . S
C246 H252 0.929 . S
C247 C248 1.362 1_565 S
C247 C250 1.378 . S
C247 H262 0.929 . S
C248 C247 1.362 1_545 S
C248 C249 1.366 . S
C249 C246 1.365 . S
C249 C248 1.366 . S
C249 H263 0.930 . S
C250 C247 1.378 . S
C250 N251 1.315 1_565 S
C250 H253 0.930 . S
N251 Co231 2.194 . S
N251 C246 1.328 . S
N251 C250 1.315 1_545 S
H252 C246 0.929 . S
H253 C250 0.930 . S
H254 C242 0.929 . S
H255 C244 0.929 . S
O256 Co231 2.351 . S
O256 C259 1.244 . S
O257 Co231 2.155 . S
O257 C259 1.240 . S
O258 Co231 2.096 1_565 S
O258 C239 1.247 . S
C259 O256 1.244 . S
C259 O257 1.240 . S
H260 C234 0.931 . S
H261 C243 0.931 . S
H262 C247 0.929 . S
H263 C249 0.930 . S
Co264 N268 2.148 1_554 S
Co264 N274 2.128 . S
Co264 N284 2.194 . S
Co264 O289 2.351 1_554 S
Co264 O290 2.155 1_554 S
Co264 O291 2.096 . S
C265 N268 1.301 . S
C265 N269 1.328 . S
C265 H270 0.930 . S
C266 C267 1.333 . S
C266 N268 1.317 . S
C266 H271 0.930 . S
C267 C266 1.333 . S
C267 N269 1.350 . S
C267 H293 0.931 . S
N268 Co264 2.148 1_556 S
N268 C265 1.301 . S
N268 C266 1.317 . S
N269 C265 1.328 . S
N269 C267 1.350 . S
H270 C265 0.930 . S
H271 C266 0.930 . S
C272 O273 1.224 . S
C272 O291 1.247 . S
O273 C272 1.224 . S
N274 Co264 2.128 . S
N274 C275 1.355 . S
N274 C277 1.311 . S
C275 N274 1.355 . S
C275 C276 1.363 . S
C275 H287 0.929 . S
C276 C275 1.363 . S
C276 N278 1.375 . S
C276 H294 0.931 . S
C277 N274 1.311 . S
C277 N278 1.347 . S
C277 H288 0.929 . S
N278 C276 1.375 . S
N278 C277 1.347 . S
C279 C282 1.365 . S
C279 N284 1.328 1_556 S
C279 H285 0.929 . S
C280 C281 1.362 . S
C280 C283 1.378 . S
C280 H295 0.929 . S
C281 C280 1.362 . S
C281 C282 1.366 1_554 S
C282 C279 1.365 . S
C282 C281 1.366 1_556 S
C282 H296 0.930 . S
C283 C280 1.378 . S
C283 N284 1.315 . S
C283 H286 0.930 . S
N284 Co264 2.194 . S
N284 C279 1.328 1_554 S
N284 C283 1.315 . S
H285 C279 0.929 . S
H286 C283 0.930 . S
H287 C275 0.929 . S
H288 C277 0.929 . S
O289 Co264 2.351 1_556 S
O289 C292 1.244 . S
O290 Co264 2.155 1_556 S
O290 C292 1.240 . S
O291 Co264 2.096 . S
O291 C272 1.247 . S
C292 O289 1.244 . S
C292 O290 1.240 . S
H293 C267 0.931 . S
H294 C276 0.931 . S
H295 C280 0.929 . S
H296 C282 0.930 . S
Co297 N301 2.148 . S
Co297 N307 2.128 1_554 S
Co297 N317 2.194 . S
Co297 O322 2.351 . S
Co297 O323 2.155 . S
Co297 O324 2.096 1_554 S
C298 N301 1.301 . S
C298 N302 1.328 . S
C298 H303 0.930 . S
C299 C300 1.333 . S
C299 N301 1.317 . S
C299 H304 0.930 . S
C300 C299 1.333 . S
C300 N302 1.350 . S
C300 H326 0.931 . S
N301 Co297 2.148 . S
N301 C298 1.301 . S
N301 C299 1.317 . S
N302 C298 1.328 . S
N302 C300 1.350 . S
H303 C298 0.930 . S
H304 C299 0.930 . S
C305 O306 1.224 . S
C305 O324 1.247 . S
O306 C305 1.224 . S
N307 Co297 2.128 1_556 S
N307 C308 1.355 . S
N307 C310 1.311 . S
C308 N307 1.355 . S
C308 C309 1.363 . S
C308 H320 0.929 . S
C309 C308 1.363 . S
C309 N311 1.375 . S
C309 H327 0.931 . S
C310 N307 1.311 . S
C310 N311 1.347 . S
C310 H321 0.929 . S
N311 C309 1.375 . S
N311 C310 1.347 . S
C312 C315 1.365 . S
C312 N317 1.328 . S
C312 H318 0.929 . S
C313 C314 1.362 1_556 S
C313 C316 1.378 . S
C313 H328 0.929 . S
C314 C313 1.362 1_554 S
C314 C315 1.366 . S
C315 C312 1.365 . S
C315 C314 1.366 . S
C315 H329 0.930 . S
C316 C313 1.378 . S
C316 N317 1.315 1_556 S
C316 H319 0.930 . S
N317 Co297 2.194 . S
N317 C312 1.328 . S
N317 C316 1.315 1_554 S
H318 C312 0.929 . S
H319 C316 0.930 . S
H320 C308 0.929 . S
H321 C310 0.929 . S
O322 Co297 2.351 . S
O322 C325 1.244 . S
O323 Co297 2.155 . S
O323 C325 1.240 . S
O324 Co297 2.096 1_556 S
O324 C305 1.247 . S
C325 O322 1.244 . S
C325 O323 1.240 . S
H326 C300 0.931 . S
H327 C309 0.931 . S
H328 C313 0.929 . S
H329 C315 0.930 . S
Co330 N334 2.148 . S
Co330 N340 2.128 1_554 S
Co330 N350 2.194 . S
Co330 O355 2.351 . S
Co330 O356 2.155 . S
Co330 O357 2.096 1_554 S
C331 N334 1.301 . S
C331 N335 1.328 . S
C331 H336 0.930 . S
C332 C333 1.333 . S
C332 N334 1.317 . S
C332 H337 0.930 . S
C333 C332 1.333 . S
C333 N335 1.350 . S
C333 H359 0.931 . S
N334 Co330 2.148 . S
N334 C331 1.301 . S
N334 C332 1.317 . S
N335 C331 1.328 . S
N335 C333 1.350 . S
H336 C331 0.930 . S
H337 C332 0.930 . S
C338 O339 1.224 . S
C338 O357 1.247 . S
O339 C338 1.224 . S
N340 Co330 2.128 1_556 S
N340 C341 1.355 . S
N340 C343 1.311 . S
C341 N340 1.355 . S
C341 C342 1.363 . S
C341 H353 0.929 . S
C342 C341 1.363 . S
C342 N344 1.375 . S
C342 H360 0.931 . S
C343 N340 1.311 . S
C343 N344 1.347 . S
C343 H354 0.929 . S
N344 C342 1.375 . S
N344 C343 1.347 . S
C345 C348 1.365 . S
C345 N350 1.328 . S
C345 H351 0.929 . S
C346 C347 1.362 1_556 S
C346 C349 1.378 . S
C346 H361 0.929 . S
C347 C346 1.362 1_554 S
C347 C348 1.366 . S
C348 C345 1.365 . S
C348 C347 1.366 . S
C348 H362 0.930 . S
C349 C346 1.378 . S
C349 N350 1.315 1_556 S
C349 H352 0.930 . S
N350 Co330 2.194 . S
N350 C345 1.328 . S
N350 C349 1.315 1_554 S
H351 C345 0.929 . S
H352 C349 0.930 . S
H353 C341 0.929 . S
H354 C343 0.929 . S
O355 Co330 2.351 . S
O355 C358 1.244 . S
O356 Co330 2.155 . S
O356 C358 1.240 . S
O357 Co330 2.096 1_556 S
O357 C338 1.247 . S
C358 O355 1.244 . S
C358 O356 1.240 . S
H359 C333 0.931 . S
H360 C342 0.931 . S
H361 C346 0.929 . S
H362 C348 0.930 . S
Co363 N367 2.148 . S
Co363 N373 2.128 1_554 S
Co363 N383 2.194 . S
Co363 O388 2.351 . S
Co363 O389 2.155 . S
Co363 O390 2.096 1_554 S
C364 N367 1.301 . S
C364 N368 1.328 . S
C364 H369 0.930 . S
C365 C366 1.333 . S
C365 N367 1.317 . S
C365 H370 0.930 . S
C366 C365 1.333 . S
C366 N368 1.350 . S
C366 H392 0.931 . S
N367 Co363 2.148 . S
N367 C364 1.301 . S
N367 C365 1.317 . S
N368 C364 1.328 . S
N368 C366 1.350 . S
H369 C364 0.930 . S
H370 C365 0.930 . S
C371 O372 1.224 . S
C371 O390 1.247 . S
O372 C371 1.224 . S
N373 Co363 2.128 1_556 S
N373 C374 1.355 . S
N373 C376 1.311 . S
C374 N373 1.355 . S
C374 C375 1.363 . S
C374 H386 0.929 . S
C375 C374 1.363 . S
C375 N377 1.375 . S
C375 H393 0.931 . S
C376 N373 1.311 . S
C376 N377 1.347 . S
C376 H387 0.929 . S
N377 C375 1.375 . S
N377 C376 1.347 . S
C378 C381 1.365 . S
C378 N383 1.328 . S
C378 H384 0.929 . S
C379 C380 1.362 1_556 S
C379 C382 1.378 . S
C379 H394 0.929 . S
C380 C379 1.362 1_554 S
C380 C381 1.366 . S
C381 C378 1.365 . S
C381 C380 1.366 . S
C381 H395 0.930 . S
C382 C379 1.378 . S
C382 N383 1.315 1_556 S
C382 H385 0.930 . S
N383 Co363 2.194 . S
N383 C378 1.328 . S
N383 C382 1.315 1_554 S
H384 C378 0.929 . S
H385 C382 0.930 . S
H386 C374 0.929 . S
H387 C376 0.929 . S
O388 Co363 2.351 . S
O388 C391 1.244 . S
O389 Co363 2.155 . S
O389 C391 1.240 . S
O390 Co363 2.096 1_556 S
O390 C371 1.247 . S
C391 O388 1.244 . S
C391 O389 1.240 . S
H392 C366 0.931 . S
H393 C375 0.931 . S
H394 C379 0.929 . S
H395 C381 0.930 . S
Co396 N400 2.136 1_455 S
Co396 N406 2.141 . S
Co396 N416 2.193 1_455 S
Co396 O421 2.336 1_455 S
Co396 O422 2.146 1_455 S
Co396 O423 2.108 . S
C397 N400 1.301 . S
C397 N401 1.328 . S
C397 H402 0.930 . S
C398 C399 1.333 . S
C398 N400 1.317 . S
C398 H403 0.930 . S
C399 C398 1.333 . S
C399 N401 1.350 . S
C399 H425 0.931 . S
N400 Co396 2.136 1_655 S
N400 C397 1.301 . S
N400 C398 1.317 . S
N401 C397 1.328 . S
N401 C399 1.350 . S
H402 C397 0.930 . S
H403 C398 0.930 . S
C404 O405 1.224 . S
C404 O423 1.247 . S
O405 C404 1.224 . S
N406 Co396 2.141 . S
N406 C407 1.355 . S
N406 C409 1.311 . S
C407 N406 1.355 . S
C407 C408 1.363 . S
C407 H419 0.929 . S
C408 C407 1.363 . S
C408 N410 1.375 . S
C408 H426 0.931 . S
C409 N406 1.311 . S
C409 N410 1.347 . S
C409 H420 0.929 . S
N410 C408 1.375 . S
N410 C409 1.347 . S
C411 C414 1.365 . S
C411 N416 1.328 . S
C411 H417 0.929 . S
C412 C413 1.383 . S
C412 C415 1.378 . S
C412 H427 0.929 . S
C413 C412 1.383 . S
C413 C414 1.343 1_455 S
C414 C411 1.365 . S
C414 C413 1.343 1_655 S
C414 H428 0.930 . S
C415 C412 1.378 . S
C415 N416 1.315 1_455 S
C415 H418 0.930 . S
N416 Co396 2.193 1_655 S
N416 C411 1.328 . S
N416 C415 1.315 1_655 S
H417 C411 0.929 . S
H418 C415 0.930 . S
H419 C407 0.929 . S
H420 C409 0.929 . S
O421 Co396 2.336 1_655 S
O421 C424 1.244 . S
O422 Co396 2.146 1_655 S
O422 C424 1.240 . S
O423 Co396 2.108 . S
O423 C404 1.247 . S
C424 O421 1.244 . S
C424 O422 1.240 . S
H425 C399 0.931 . S
H426 C408 0.931 . S
H427 C412 0.929 . S
H428 C414 0.930 . S
Co429 N433 2.148 . S
Co429 N439 2.128 . S
Co429 N449 2.194 . S
Co429 O454 2.351 . S
Co429 O455 2.155 . S
Co429 O456 2.096 . S
C430 N433 1.301 . S
C430 N434 1.328 . S
C430 H435 0.930 . S
C431 C432 1.333 . S
C431 N433 1.317 . S
C431 H436 0.930 . S
C432 C431 1.333 . S
C432 N434 1.350 . S
C432 H458 0.931 . S
N433 Co429 2.148 . S
N433 C430 1.301 . S
N433 C431 1.317 . S
N434 C430 1.328 . S
N434 C432 1.350 . S
H435 C430 0.930 . S
H436 C431 0.930 . S
C437 O438 1.224 . S
C437 O456 1.247 . S
O438 C437 1.224 . S
N439 Co429 2.128 . S
N439 C440 1.355 . S
N439 C442 1.311 . S
C440 N439 1.355 . S
C440 C441 1.363 . S
C440 H452 0.929 . S
C441 C440 1.363 . S
C441 N443 1.375 . S
C441 H459 0.931 . S
C442 N439 1.311 . S
C442 N443 1.347 . S
C442 H453 0.929 . S
N443 C441 1.375 . S
N443 C442 1.347 . S
C444 C447 1.365 . S
C444 N449 1.328 . S
C444 H450 0.929 . S
C445 C446 1.362 . S
C445 C448 1.378 . S
C445 H460 0.929 . S
C446 C445 1.362 . S
C446 C447 1.366 . S
C447 C444 1.365 . S
C447 C446 1.366 . S
C447 H461 0.930 . S
C448 C445 1.378 . S
C448 N449 1.315 . S
C448 H451 0.930 . S
N449 Co429 2.194 . S
N449 C444 1.328 . S
N449 C448 1.315 . S
H450 C444 0.929 . S
H451 C448 0.930 . S
H452 C440 0.929 . S
H453 C442 0.929 . S
O454 Co429 2.351 . S
O454 C457 1.244 . S
O455 Co429 2.155 . S
O455 C457 1.240 . S
O456 Co429 2.096 . S
O456 C437 1.247 . S
C457 O454 1.244 . S
C457 O455 1.240 . S
H458 C432 0.931 . S
H459 C441 0.931 . S
H460 C445 0.929 . S
H461 C447 0.930 . S
Co462 N466 2.161 . S
Co462 N472 2.115 1_655 S
Co462 N482 2.195 . S
Co462 O487 2.367 . S
Co462 O488 2.164 . S
Co462 O489 2.083 1_655 S
C463 N466 1.301 . S
C463 N467 1.328 . S
C463 H468 0.930 . S
C464 C465 1.333 . S
C464 N466 1.317 . S
C464 H469 0.930 . S
C465 C464 1.333 . S
C465 N467 1.350 . S
C465 H491 0.931 . S
N466 Co462 2.161 . S
N466 C463 1.301 . S
N466 C464 1.317 . S
N467 C463 1.328 . S
N467 C465 1.350 . S
H468 C463 0.930 . S
H469 C464 0.930 . S
C470 O471 1.224 . S
C470 O489 1.247 . S
O471 C470 1.224 . S
N472 Co462 2.115 1_455 S
N472 C473 1.355 . S
N472 C475 1.311 . S
C473 N472 1.355 . S
C473 C474 1.363 . S
C473 H485 0.929 . S
C474 C473 1.363 . S
C474 N476 1.375 . S
C474 H492 0.931 . S
C475 N472 1.311 . S
C475 N476 1.347 . S
C475 H486 0.929 . S
N476 C474 1.375 . S
N476 C475 1.347 . S
C477 C480 1.365 . S
C477 N482 1.328 . S
C477 H483 0.929 . S
C478 C479 1.347 1_455 S
C478 C481 1.378 . S
C478 H493 0.929 . S
C479 C478 1.347 1_655 S
C479 C480 1.383 . S
C480 C477 1.365 . S
C480 C479 1.383 . S
C480 H494 0.930 . S
C481 C478 1.378 . S
C481 N482 1.315 1_455 S
C481 H484 0.930 . S
N482 Co462 2.195 . S
N482 C477 1.328 . S
N482 C481 1.315 1_655 S
H483 C477 0.929 . S
H484 C481 0.930 . S
H485 C473 0.929 . S
H486 C475 0.929 . S
O487 Co462 2.367 . S
O487 C490 1.244 . S
O488 Co462 2.164 . S
O488 C490 1.240 . S
O489 Co462 2.083 1_455 S
O489 C470 1.247 . S
C490 O487 1.244 . S
C490 O488 1.240 . S
H491 C465 0.931 . S
H492 C474 0.931 . S
H493 C478 0.929 . S
H494 C480 0.930 . S
Co495 N499 2.148 . S
Co495 N505 2.128 . S
Co495 N515 2.194 . S
Co495 O520 2.351 . S
Co495 O521 2.155 . S
Co495 O522 2.096 . S
C496 N499 1.301 . S
C496 N500 1.328 . S
C496 H501 0.930 . S
C497 C498 1.333 . S
C497 N499 1.317 . S
C497 H502 0.930 . S
C498 C497 1.333 . S
C498 N500 1.350 . S
C498 H524 0.931 . S
N499 Co495 2.148 . S
N499 C496 1.301 . S
N499 C497 1.317 . S
N500 C496 1.328 . S
N500 C498 1.350 . S
H501 C496 0.930 . S
H502 C497 0.930 . S
C503 O504 1.224 . S
C503 O522 1.247 . S
O504 C503 1.224 . S
N505 Co495 2.128 . S
N505 C506 1.355 . S
N505 C508 1.311 . S
C506 N505 1.355 . S
C506 C507 1.363 . S
C506 H518 0.929 . S
C507 C506 1.363 . S
C507 N509 1.375 . S
C507 H525 0.931 . S
C508 N505 1.311 . S
C508 N509 1.347 . S
C508 H519 0.929 . S
N509 C507 1.375 . S
N509 C508 1.347 . S
C510 C513 1.365 . S
C510 N515 1.328 . S
C510 H516 0.929 . S
C511 C512 1.362 . S
C511 C514 1.378 . S
C511 H526 0.929 . S
C512 C511 1.362 . S
C512 C513 1.366 . S
C513 C510 1.365 . S
C513 C512 1.366 . S
C513 H527 0.930 . S
C514 C511 1.378 . S
C514 N515 1.315 . S
C514 H517 0.930 . S
N515 Co495 2.194 . S
N515 C510 1.328 . S
N515 C514 1.315 . S
H516 C510 0.929 . S
H517 C514 0.930 . S
H518 C506 0.929 . S
H519 C508 0.929 . S
O520 Co495 2.351 . S
O520 C523 1.244 . S
O521 Co495 2.155 . S
O521 C523 1.240 . S
O522 Co495 2.096 . S
O522 C503 1.247 . S
C523 O520 1.244 . S
C523 O521 1.240 . S
H524 C498 0.931 . S
H525 C507 0.931 . S
H526 C511 0.929 . S
H527 C513 0.930 . S
Co528 N532 2.148 . S
Co528 N538 2.128 1_455 S
Co528 N548 2.194 . S
Co528 O553 2.351 . S
Co528 O554 2.155 . S
Co528 O555 2.096 1_455 S
C529 N532 1.301 . S
C529 N533 1.328 . S
C529 H534 0.930 . S
C530 C531 1.333 . S
C530 N532 1.317 . S
C530 H535 0.930 . S
C531 C530 1.333 . S
C531 N533 1.350 . S
C531 H557 0.931 . S
N532 Co528 2.148 . S
N532 C529 1.301 . S
N532 C530 1.317 . S
N533 C529 1.328 . S
N533 C531 1.350 . S
H534 C529 0.930 . S
H535 C530 0.930 . S
C536 O537 1.224 . S
C536 O555 1.247 . S
O537 C536 1.224 . S
N538 Co528 2.128 1_655 S
N538 C539 1.355 . S
N538 C541 1.311 . S
C539 N538 1.355 . S
C539 C540 1.363 . S
C539 H551 0.929 . S
C540 C539 1.363 . S
C540 N542 1.375 . S
C540 H558 0.931 . S
C541 N538 1.311 . S
C541 N542 1.347 . S
C541 H552 0.929 . S
N542 C540 1.375 . S
N542 C541 1.347 . S
C543 C546 1.365 . S
C543 N548 1.328 . S
C543 H549 0.929 . S
C544 C545 1.362 1_655 S
C544 C547 1.378 . S
C544 H559 0.929 . S
C545 C544 1.362 1_455 S
C545 C546 1.366 . S
C546 C543 1.365 . S
C546 C545 1.366 . S
C546 H560 0.930 . S
C547 C544 1.378 . S
C547 N548 1.315 1_655 S
C547 H550 0.930 . S
N548 Co528 2.194 . S
N548 C543 1.328 . S
N548 C547 1.315 1_455 S
H549 C543 0.929 . S
H550 C547 0.930 . S
H551 C539 0.929 . S
H552 C541 0.929 . S
O553 Co528 2.351 . S
O553 C556 1.244 . S
O554 Co528 2.155 . S
O554 C556 1.240 . S
O555 Co528 2.096 1_655 S
O555 C536 1.247 . S
C556 O553 1.244 . S
C556 O554 1.240 . S
H557 C531 0.931 . S
H558 C540 0.931 . S
H559 C544 0.929 . S
H560 C546 0.930 . S
Co561 N565 2.148 . S
Co561 N571 2.128 . S
Co561 N581 2.194 . S
Co561 O586 2.351 . S
Co561 O587 2.155 . S
Co561 O588 2.096 . S
C562 N565 1.301 . S
C562 N566 1.328 . S
C562 H567 0.930 . S
C563 C564 1.333 . S
C563 N565 1.317 . S
C563 H568 0.930 . S
C564 C563 1.333 . S
C564 N566 1.350 . S
C564 H590 0.931 . S
N565 Co561 2.148 . S
N565 C562 1.301 . S
N565 C563 1.317 . S
N566 C562 1.328 . S
N566 C564 1.350 . S
H567 C562 0.930 . S
H568 C563 0.930 . S
C569 O570 1.224 . S
C569 O588 1.247 . S
O570 C569 1.224 . S
N571 Co561 2.128 . S
N571 C572 1.355 . S
N571 C574 1.311 . S
C572 N571 1.355 . S
C572 C573 1.363 . S
C572 H584 0.929 . S
C573 C572 1.363 . S
C573 N575 1.375 . S
C573 H591 0.931 . S
C574 N571 1.311 . S
C574 N575 1.347 . S
C574 H585 0.929 . S
N575 C573 1.375 . S
N575 C574 1.347 . S
C576 C579 1.365 . S
C576 N581 1.328 . S
C576 H582 0.929 . S
C577 C578 1.362 . S
C577 C580 1.378 . S
C577 H592 0.929 . S
C578 C577 1.362 . S
C578 C579 1.366 . S
C579 C576 1.365 . S
C579 C578 1.366 . S
C579 H593 0.930 . S
C580 C577 1.378 . S
C580 N581 1.315 . S
C580 H583 0.930 . S
N581 Co561 2.194 . S
N581 C576 1.328 . S
N581 C580 1.315 . S
H582 C576 0.929 . S
H583 C580 0.930 . S
H584 C572 0.929 . S
H585 C574 0.929 . S
O586 Co561 2.351 . S
O586 C589 1.244 . S
O587 Co561 2.155 . S
O587 C589 1.240 . S
O588 Co561 2.096 . S
O588 C569 1.247 . S
C589 O586 1.244 . S
C589 O587 1.240 . S
H590 C564 0.931 . S
H591 C573 0.931 . S
H592 C577 0.929 . S
H593 C579 0.930 . S
Co594 N598 2.126 1_455 S
Co594 N604 2.152 . S
Co594 N614 2.192 1_455 S
Co594 O619 2.324 1_455 S
Co594 O620 2.139 1_455 S
Co594 O621 2.117 . S
C595 N598 1.301 . S
C595 N599 1.328 . S
C595 H600 0.930 . S
C596 C597 1.333 . S
C596 N598 1.317 . S
C596 H601 0.930 . S
C597 C596 1.333 . S
C597 N599 1.350 . S
C597 H623 0.931 . S
N598 Co594 2.126 1_655 S
N598 C595 1.301 . S
N598 C596 1.317 . S
N599 C595 1.328 . S
N599 C597 1.350 . S
H600 C595 0.930 . S
H601 C596 0.930 . S
C602 O603 1.224 . S
C602 O621 1.247 . S
O603 C602 1.224 . S
N604 Co594 2.152 . S
N604 C605 1.355 . S
N604 C607 1.311 . S
C605 N604 1.355 . S
C605 C606 1.363 . S
C605 H617 0.929 . S
C606 C605 1.363 . S
C606 N608 1.375 . S
C606 H624 0.931 . S
C607 N604 1.311 . S
C607 N608 1.347 . S
C607 H618 0.929 . S
N608 C606 1.375 . S
N608 C607 1.347 . S
C609 C612 1.365 . S
C609 N614 1.328 . S
C609 H615 0.929 . S
C610 C611 1.385 . S
C610 C613 1.378 . S
C610 H625 0.929 . S
C611 C610 1.385 . S
C611 C612 1.341 1_455 S
C612 C609 1.365 . S
C612 C611 1.341 1_655 S
C612 H626 0.930 . S
C613 C610 1.378 . S
C613 N614 1.315 1_455 S
C613 H616 0.930 . S
N614 Co594 2.192 1_655 S
N614 C609 1.328 . S
N614 C613 1.315 1_655 S
H615 C609 0.929 . S
H616 C613 0.930 . S
H617 C605 0.929 . S
H618 C607 0.929 . S
O619 Co594 2.324 1_655 S
O619 C622 1.244 . S
O620 Co594 2.139 1_655 S
O620 C622 1.240 . S
O621 Co594 2.117 . S
O621 C602 1.247 . S
C622 O619 1.244 . S
C622 O620 1.240 . S
H623 C597 0.931 . S
H624 C606 0.931 . S
H625 C610 0.929 . S
H626 C612 0.930 . S
Co627 N631 2.148 . S
Co627 N637 2.128 . S
Co627 N647 2.194 . S
Co627 O652 2.351 . S
Co627 O653 2.155 . S
Co627 O654 2.096 . S
C628 N631 1.301 . S
C628 N632 1.328 . S
C628 H633 0.930 . S
C629 C630 1.333 . S
C629 N631 1.317 . S
C629 H634 0.930 . S
C630 C629 1.333 . S
C630 N632 1.350 . S
C630 H656 0.931 . S
N631 Co627 2.148 . S
N631 C628 1.301 . S
N631 C629 1.317 . S
N632 C628 1.328 . S
N632 C630 1.350 . S
H633 C628 0.930 . S
H634 C629 0.930 . S
C635 O636 1.224 . S
C635 O654 1.247 . S
O636 C635 1.224 . S
N637 Co627 2.128 . S
N637 C638 1.355 . S
N637 C640 1.311 . S
C638 N637 1.355 . S
C638 C639 1.363 . S
C638 H650 0.929 . S
C639 C638 1.363 . S
C639 N641 1.375 . S
C639 H657 0.931 . S
C640 N637 1.311 . S
C640 N641 1.347 . S
C640 H651 0.929 . S
N641 C639 1.375 . S
N641 C640 1.347 . S
C642 C645 1.365 . S
C642 N647 1.328 . S
C642 H648 0.929 . S
C643 C644 1.362 . S
C643 C646 1.378 . S
C643 H658 0.929 . S
C644 C643 1.362 . S
C644 C645 1.366 . S
C645 C642 1.365 . S
C645 C644 1.366 . S
C645 H659 0.930 . S
C646 C643 1.378 . S
C646 N647 1.315 . S
C646 H649 0.930 . S
N647 Co627 2.194 . S
N647 C642 1.328 . S
N647 C646 1.315 . S
H648 C642 0.929 . S
H649 C646 0.930 . S
H650 C638 0.929 . S
H651 C640 0.929 . S
O652 Co627 2.351 . S
O652 C655 1.244 . S
O653 Co627 2.155 . S
O653 C655 1.240 . S
O654 Co627 2.096 . S
O654 C635 1.247 . S
C655 O652 1.244 . S
C655 O653 1.240 . S
H656 C630 0.931 . S
H657 C639 0.931 . S
H658 C643 0.929 . S
H659 C645 0.930 . S
Co660 N664 2.148 . S
Co660 N670 2.128 . S
Co660 N680 2.194 . S
Co660 O685 2.351 . S
Co660 O686 2.155 . S
Co660 O687 2.096 . S
C661 N664 1.301 . S
C661 N665 1.328 . S
C661 H666 0.930 . S
C662 C663 1.333 . S
C662 N664 1.317 . S
C662 H667 0.930 . S
C663 C662 1.333 . S
C663 N665 1.350 . S
C663 H689 0.931 . S
N664 Co660 2.148 . S
N664 C661 1.301 . S
N664 C662 1.317 . S
N665 C661 1.328 . S
N665 C663 1.350 . S
H666 C661 0.930 . S
H667 C662 0.930 . S
C668 O669 1.224 . S
C668 O687 1.247 . S
O669 C668 1.224 . S
N670 Co660 2.128 . S
N670 C671 1.355 . S
N670 C673 1.311 . S
C671 N670 1.355 . S
C671 C672 1.363 . S
C671 H683 0.929 . S
C672 C671 1.363 . S
C672 N674 1.375 . S
C672 H690 0.931 . S
C673 N670 1.311 . S
C673 N674 1.347 . S
C673 H684 0.929 . S
N674 C672 1.375 . S
N674 C673 1.347 . S
C675 C678 1.365 . S
C675 N680 1.328 . S
C675 H681 0.929 . S
C676 C677 1.362 . S
C676 C679 1.378 . S
C676 H691 0.929 . S
C677 C676 1.362 . S
C677 C678 1.366 . S
C678 C675 1.365 . S
C678 C677 1.366 . S
C678 H692 0.930 . S
C679 C676 1.378 . S
C679 N680 1.315 . S
C679 H682 0.930 . S
N680 Co660 2.194 . S
N680 C675 1.328 . S
N680 C679 1.315 . S
H681 C675 0.929 . S
H682 C679 0.930 . S
H683 C671 0.929 . S
H684 C673 0.929 . S
O685 Co660 2.351 . S
O685 C688 1.244 . S
O686 Co660 2.155 . S
O686 C688 1.240 . S
O687 Co660 2.096 . S
O687 C668 1.247 . S
C688 O685 1.244 . S
C688 O686 1.240 . S
H689 C663 0.931 . S
H690 C672 0.931 . S
H691 C676 0.929 . S
H692 C678 0.930 . S
Co693 N697 2.148 . S
Co693 N703 2.128 . S
Co693 N713 2.194 . S
Co693 O718 2.351 . S
Co693 O719 2.155 . S
Co693 O720 2.096 . S
C694 N697 1.301 . S
C694 N698 1.328 . S
C694 H699 0.930 . S
C695 C696 1.333 . S
C695 N697 1.317 . S
C695 H700 0.930 . S
C696 C695 1.333 . S
C696 N698 1.350 . S
C696 H722 0.931 . S
N697 Co693 2.148 . S
N697 C694 1.301 . S
N697 C695 1.317 . S
N698 C694 1.328 . S
N698 C696 1.350 . S
H699 C694 0.930 . S
H700 C695 0.930 . S
C701 O702 1.224 . S
C701 O720 1.247 . S
O702 C701 1.224 . S
N703 Co693 2.128 . S
N703 C704 1.355 . S
N703 C706 1.311 . S
C704 N703 1.355 . S
C704 C705 1.363 . S
C704 H716 0.929 . S
C705 C704 1.363 . S
C705 N707 1.375 . S
C705 H723 0.931 . S
C706 N703 1.311 . S
C706 N707 1.347 . S
C706 H717 0.929 . S
N707 C705 1.375 . S
N707 C706 1.347 . S
C708 C711 1.365 . S
C708 N713 1.328 . S
C708 H714 0.929 . S
C709 C710 1.362 . S
C709 C712 1.378 . S
C709 H724 0.929 . S
C710 C709 1.362 . S
C710 C711 1.366 . S
C711 C708 1.365 . S
C711 C710 1.366 . S
C711 H725 0.930 . S
C712 C709 1.378 . S
C712 N713 1.315 . S
C712 H715 0.930 . S
N713 Co693 2.194 . S
N713 C708 1.328 . S
N713 C712 1.315 . S
H714 C708 0.929 . S
H715 C712 0.930 . S
H716 C704 0.929 . S
H717 C706 0.929 . S
O718 Co693 2.351 . S
O718 C721 1.244 . S
O719 Co693 2.155 . S
O719 C721 1.240 . S
O720 Co693 2.096 . S
O720 C701 1.247 . S
C721 O718 1.244 . S
C721 O719 1.240 . S
H722 C696 0.931 . S
H723 C705 0.931 . S
H724 C709 0.929 . S
H725 C711 0.930 . S
Co726 N730 2.148 . S
Co726 N736 2.128 . S
Co726 N746 2.194 . S
Co726 O751 2.351 . S
Co726 O752 2.155 . S
Co726 O753 2.096 . S
C727 N730 1.301 . S
C727 N731 1.328 . S
C727 H732 0.930 . S
C728 C729 1.333 . S
C728 N730 1.317 . S
C728 H733 0.930 . S
C729 C728 1.333 . S
C729 N731 1.350 . S
C729 H755 0.931 . S
N730 Co726 2.148 . S
N730 C727 1.301 . S
N730 C728 1.317 . S
N731 C727 1.328 . S
N731 C729 1.350 . S
H732 C727 0.930 . S
H733 C728 0.930 . S
C734 O735 1.224 . S
C734 O753 1.247 . S
O735 C734 1.224 . S
N736 Co726 2.128 . S
N736 C737 1.355 . S
N736 C739 1.311 . S
C737 N736 1.355 . S
C737 C738 1.363 . S
C737 H749 0.929 . S
C738 C737 1.363 . S
C738 N740 1.375 . S
C738 H756 0.931 . S
C739 N736 1.311 . S
C739 N740 1.347 . S
C739 H750 0.929 . S
N740 C738 1.375 . S
N740 C739 1.347 . S
C741 C744 1.365 . S
C741 N746 1.328 . S
C741 H747 0.929 . S
C742 C743 1.362 . S
C742 C745 1.378 . S
C742 H757 0.929 . S
C743 C742 1.362 . S
C743 C744 1.366 . S
C744 C741 1.365 . S
C744 C743 1.366 . S
C744 H758 0.930 . S
C745 C742 1.378 . S
C745 N746 1.315 . S
C745 H748 0.930 . S
N746 Co726 2.194 . S
N746 C741 1.328 . S
N746 C745 1.315 . S
H747 C741 0.929 . S
H748 C745 0.930 . S
H749 C737 0.929 . S
H750 C739 0.929 . S
O751 Co726 2.351 . S
O751 C754 1.244 . S
O752 Co726 2.155 . S
O752 C754 1.240 . S
O753 Co726 2.096 . S
O753 C734 1.247 . S
C754 O751 1.244 . S
C754 O752 1.240 . S
H755 C729 0.931 . S
H756 C738 0.931 . S
H757 C742 0.929 . S
H758 C744 0.930 . S
Co759 N763 2.148 . S
Co759 N769 2.128 . S
Co759 N779 2.194 . S
Co759 O784 2.351 . S
Co759 O785 2.155 . S
Co759 O786 2.096 . S
C760 N763 1.301 . S
C760 N764 1.328 . S
C760 H765 0.930 . S
C761 C762 1.333 . S
C761 N763 1.317 . S
C761 H766 0.930 . S
C762 C761 1.333 . S
C762 N764 1.350 . S
C762 H788 0.931 . S
N763 Co759 2.148 . S
N763 C760 1.301 . S
N763 C761 1.317 . S
N764 C760 1.328 . S
N764 C762 1.350 . S
H765 C760 0.930 . S
H766 C761 0.930 . S
C767 O768 1.224 . S
C767 O786 1.247 . S
O768 C767 1.224 . S
N769 Co759 2.128 . S
N769 C770 1.355 . S
N769 C772 1.311 . S
C770 N769 1.355 . S
C770 C771 1.363 . S
C770 H782 0.929 . S
C771 C770 1.363 . S
C771 N773 1.375 . S
C771 H789 0.931 . S
C772 N769 1.311 . S
C772 N773 1.347 . S
C772 H783 0.929 . S
N773 C771 1.375 . S
N773 C772 1.347 . S
C774 C777 1.365 . S
C774 N779 1.328 . S
C774 H780 0.929 . S
C775 C776 1.362 . S
C775 C778 1.378 . S
C775 H790 0.929 . S
C776 C775 1.362 . S
C776 C777 1.366 . S
C777 C774 1.365 . S
C777 C776 1.366 . S
C777 H791 0.930 . S
C778 C775 1.378 . S
C778 N779 1.315 . S
C778 H781 0.930 . S
N779 Co759 2.194 . S
N779 C774 1.328 . S
N779 C778 1.315 . S
H780 C774 0.929 . S
H781 C778 0.930 . S
H782 C770 0.929 . S
H783 C772 0.929 . S
O784 Co759 2.351 . S
O784 C787 1.244 . S
O785 Co759 2.155 . S
O785 C787 1.240 . S
O786 Co759 2.096 . S
O786 C767 1.247 . S
C787 O784 1.244 . S
C787 O785 1.240 . S
H788 C762 0.931 . S
H789 C771 0.931 . S
H790 C775 0.929 . S
H791 C777 0.930 . S
Co792 N796 2.148 . S
Co792 N802 2.128 . S
Co792 N812 2.194 . S
Co792 O817 2.351 . S
Co792 O818 2.155 . S
Co792 O819 2.096 . S
C793 N796 1.301 . S
C793 N797 1.328 . S
C793 H798 0.930 . S
C794 C795 1.333 . S
C794 N796 1.317 . S
C794 H799 0.930 . S
C795 C794 1.333 . S
C795 N797 1.350 . S
C795 H821 0.931 . S
N796 Co792 2.148 . S
N796 C793 1.301 . S
N796 C794 1.317 . S
N797 C793 1.328 . S
N797 C795 1.350 . S
H798 C793 0.930 . S
H799 C794 0.930 . S
C800 O801 1.224 . S
C800 O819 1.247 . S
O801 C800 1.224 . S
N802 Co792 2.128 . S
N802 C803 1.355 . S
N802 C805 1.311 . S
C803 N802 1.355 . S
C803 C804 1.363 . S
C803 H815 0.929 . S
C804 C803 1.363 . S
C804 N806 1.375 . S
C804 H822 0.931 . S
C805 N802 1.311 . S
C805 N806 1.347 . S
C805 H816 0.929 . S
N806 C804 1.375 . S
N806 C805 1.347 . S
C807 C810 1.365 . S
C807 N812 1.328 . S
C807 H813 0.929 . S
C808 C809 1.362 . S
C808 C811 1.378 . S
C808 H823 0.929 . S
C809 C808 1.362 . S
C809 C810 1.366 . S
C810 C807 1.365 . S
C810 C809 1.366 . S
C810 H824 0.930 . S
C811 C808 1.378 . S
C811 N812 1.315 . S
C811 H814 0.930 . S
N812 Co792 2.194 . S
N812 C807 1.328 . S
N812 C811 1.315 . S
H813 C807 0.929 . S
H814 C811 0.930 . S
H815 C803 0.929 . S
H816 C805 0.929 . S
O817 Co792 2.351 . S
O817 C820 1.244 . S
O818 Co792 2.155 . S
O818 C820 1.240 . S
O819 Co792 2.096 . S
O819 C800 1.247 . S
C820 O817 1.244 . S
C820 O818 1.240 . S
H821 C795 0.931 . S
H822 C804 0.931 . S
H823 C808 0.929 . S
H824 C810 0.930 . S
Co825 N829 2.148 . S
Co825 N835 2.128 1_545 S
Co825 N845 2.194 . S
Co825 O850 2.351 . S
Co825 O851 2.155 . S
Co825 O852 2.096 1_545 S
C826 N829 1.301 . S
C826 N830 1.328 . S
C826 H831 0.930 . S
C827 C828 1.333 . S
C827 N829 1.317 . S
C827 H832 0.930 . S
C828 C827 1.333 . S
C828 N830 1.350 . S
C828 H854 0.931 . S
N829 Co825 2.148 . S
N829 C826 1.301 . S
N829 C827 1.317 . S
N830 C826 1.328 . S
N830 C828 1.350 . S
H831 C826 0.930 . S
H832 C827 0.930 . S
C833 O834 1.224 . S
C833 O852 1.247 . S
O834 C833 1.224 . S
N835 Co825 2.128 1_565 S
N835 C836 1.355 . S
N835 C838 1.311 . S
C836 N835 1.355 . S
C836 C837 1.363 . S
C836 H848 0.929 . S
C837 C836 1.363 . S
C837 N839 1.375 . S
C837 H855 0.931 . S
C838 N835 1.311 . S
C838 N839 1.347 . S
C838 H849 0.929 . S
N839 C837 1.375 . S
N839 C838 1.347 . S
C840 C843 1.365 . S
C840 N845 1.328 . S
C840 H846 0.929 . S
C841 C842 1.362 1_565 S
C841 C844 1.378 . S
C841 H856 0.929 . S
C842 C841 1.362 1_545 S
C842 C843 1.366 . S
C843 C840 1.365 . S
C843 C842 1.366 . S
C843 H857 0.930 . S
C844 C841 1.378 . S
C844 N845 1.315 1_565 S
C844 H847 0.930 . S
N845 Co825 2.194 . S
N845 C840 1.328 . S
N845 C844 1.315 1_545 S
H846 C840 0.929 . S
H847 C844 0.930 . S
H848 C836 0.929 . S
H849 C838 0.929 . S
O850 Co825 2.351 . S
O850 C853 1.244 . S
O851 Co825 2.155 . S
O851 C853 1.240 . S
O852 Co825 2.096 1_565 S
O852 C833 1.247 . S
C853 O850 1.244 . S
C853 O851 1.240 . S
H854 C828 0.931 . S
H855 C837 0.931 . S
H856 C841 0.929 . S
H857 C843 0.930 . S
Co858 N862 2.148 . S
Co858 N868 2.128 . S
Co858 N878 2.194 . S
Co858 O883 2.351 . S
Co858 O884 2.155 . S
Co858 O885 2.096 . S
C859 N862 1.301 . S
C859 N863 1.328 . S
C859 H864 0.930 . S
C860 C861 1.333 . S
C860 N862 1.317 . S
C860 H865 0.930 . S
C861 C860 1.333 . S
C861 N863 1.350 . S
C861 H887 0.931 . S
N862 Co858 2.148 . S
N862 C859 1.301 . S
N862 C860 1.317 . S
N863 C859 1.328 . S
N863 C861 1.350 . S
H864 C859 0.930 . S
H865 C860 0.930 . S
C866 O867 1.224 . S
C866 O885 1.247 . S
O867 C866 1.224 . S
N868 Co858 2.128 . S
N868 C869 1.355 . S
N868 C871 1.311 . S
C869 N868 1.355 . S
C869 C870 1.363 . S
C869 H881 0.929 . S
C870 C869 1.363 . S
C870 N872 1.375 . S
C870 H888 0.931 . S
C871 N868 1.311 . S
C871 N872 1.347 . S
C871 H882 0.929 . S
N872 C870 1.375 . S
N872 C871 1.347 . S
C873 C876 1.365 . S
C873 N878 1.328 . S
C873 H879 0.929 . S
C874 C875 1.362 . S
C874 C877 1.378 . S
C874 H889 0.929 . S
C875 C874 1.362 . S
C875 C876 1.366 . S
C876 C873 1.365 . S
C876 C875 1.366 . S
C876 H890 0.930 . S
C877 C874 1.378 . S
C877 N878 1.315 . S
C877 H880 0.930 . S
N878 Co858 2.194 . S
N878 C873 1.328 . S
N878 C877 1.315 . S
H879 C873 0.929 . S
H880 C877 0.930 . S
H881 C869 0.929 . S
H882 C871 0.929 . S
O883 Co858 2.351 . S
O883 C886 1.244 . S
O884 Co858 2.155 . S
O884 C886 1.240 . S
O885 Co858 2.096 . S
O885 C866 1.247 . S
C886 O883 1.244 . S
C886 O884 1.240 . S
H887 C861 0.931 . S
H888 C870 0.931 . S
H889 C874 0.929 . S
H890 C876 0.930 . S
Co891 N895 2.153 . S
Co891 N901 2.123 1_565 S
Co891 N911 2.194 . S
Co891 O916 2.357 . S
Co891 O917 2.159 . S
Co891 O918 2.090 1_565 S
C892 N895 1.301 . S
C892 N896 1.328 . S
C892 H897 0.930 . S
C893 C894 1.333 . S
C893 N895 1.317 . S
C893 H898 0.930 . S
C894 C893 1.333 . S
C894 N896 1.350 . S
C894 H920 0.931 . S
N895 Co891 2.153 . S
N895 C892 1.301 . S
N895 C893 1.317 . S
N896 C892 1.328 . S
N896 C894 1.350 . S
H897 C892 0.930 . S
H898 C893 0.930 . S
C899 O900 1.224 . S
C899 O918 1.247 . S
O900 C899 1.224 . S
N901 Co891 2.123 1_545 S
N901 C902 1.355 . S
N901 C904 1.311 . S
C902 N901 1.355 . S
C902 C903 1.363 . S
C902 H914 0.929 . S
C903 C902 1.363 . S
C903 N905 1.375 . S
C903 H921 0.931 . S
C904 N901 1.311 . S
C904 N905 1.347 . S
C904 H915 0.929 . S
N905 C903 1.375 . S
N905 C904 1.347 . S
C906 C909 1.365 . S
C906 N911 1.328 . S
C906 H912 0.929 . S
C907 C908 1.354 1_545 S
C907 C910 1.378 . S
C907 H922 0.929 . S
C908 C907 1.354 1_565 S
C908 C909 1.374 . S
C909 C906 1.365 . S
C909 C908 1.374 . S
C909 H923 0.930 . S
C910 C907 1.378 . S
C910 N911 1.315 1_545 S
C910 H913 0.930 . S
N911 Co891 2.194 . S
N911 C906 1.328 . S
N911 C910 1.315 1_565 S
H912 C906 0.929 . S
H913 C910 0.930 . S
H914 C902 0.929 . S
H915 C904 0.929 . S
O916 Co891 2.357 . S
O916 C919 1.244 . S
O917 Co891 2.159 . S
O917 C919 1.240 . S
O918 Co891 2.090 1_545 S
O918 C899 1.247 . S
C919 O916 1.244 . S
C919 O917 1.240 . S
H920 C894 0.931 . S
H921 C903 0.931 . S
H922 C907 0.929 . S
H923 C909 0.930 . S
Co924 N928 2.148 . S
Co924 N934 2.128 . S
Co924 N944 2.194 . S
Co924 O949 2.351 . S
Co924 O950 2.155 . S
Co924 O951 2.096 . S
C925 N928 1.301 . S
C925 N929 1.328 . S
C925 H930 0.930 . S
C926 C927 1.333 . S
C926 N928 1.317 . S
C926 H931 0.930 . S
C927 C926 1.333 . S
C927 N929 1.350 . S
C927 H953 0.931 . S
N928 Co924 2.148 . S
N928 C925 1.301 . S
N928 C926 1.317 . S
N929 C925 1.328 . S
N929 C927 1.350 . S
H930 C925 0.930 . S
H931 C926 0.930 . S
C932 O933 1.224 . S
C932 O951 1.247 . S
O933 C932 1.224 . S
N934 Co924 2.128 . S
N934 C935 1.355 . S
N934 C937 1.311 . S
C935 N934 1.355 . S
C935 C936 1.363 . S
C935 H947 0.929 . S
C936 C935 1.363 . S
C936 N938 1.375 . S
C936 H954 0.931 . S
C937 N934 1.311 . S
C937 N938 1.347 . S
C937 H948 0.929 . S
N938 C936 1.375 . S
N938 C937 1.347 . S
C939 C942 1.365 . S
C939 N944 1.328 . S
C939 H945 0.929 . S
C940 C941 1.362 . S
C940 C943 1.378 . S
C940 H955 0.929 . S
C941 C940 1.362 . S
C941 C942 1.366 . S
C942 C939 1.365 . S
C942 C941 1.366 . S
C942 H956 0.930 . S
C943 C940 1.378 . S
C943 N944 1.315 . S
C943 H946 0.930 . S
N944 Co924 2.194 . S
N944 C939 1.328 . S
N944 C943 1.315 . S
H945 C939 0.929 . S
H946 C943 0.930 . S
H947 C935 0.929 . S
H948 C937 0.929 . S
O949 Co924 2.351 . S
O949 C952 1.244 . S
O950 Co924 2.155 . S
O950 C952 1.240 . S
O951 Co924 2.096 . S
O951 C932 1.247 . S
C952 O949 1.244 . S
C952 O950 1.240 . S
H953 C927 0.931 . S
H954 C936 0.931 . S
H955 C940 0.929 . S
H956 C942 0.930 . S
Co957 N961 2.148 . S
Co957 N967 2.128 1_545 S
Co957 N977 2.194 . S
Co957 O982 2.351 . S
Co957 O983 2.155 . S
Co957 O984 2.096 1_545 S
C958 N961 1.301 . S
C958 N962 1.328 . S
C958 H963 0.930 . S
C959 C960 1.333 . S
C959 N961 1.317 . S
C959 H964 0.930 . S
C960 C959 1.333 . S
C960 N962 1.350 . S
C960 H986 0.931 . S
N961 Co957 2.148 . S
N961 C958 1.301 . S
N961 C959 1.317 . S
N962 C958 1.328 . S
N962 C960 1.350 . S
H963 C958 0.930 . S
H964 C959 0.930 . S
C965 O966 1.224 . S
C965 O984 1.247 . S
O966 C965 1.224 . S
N967 Co957 2.128 1_565 S
N967 C968 1.355 . S
N967 C970 1.311 . S
C968 N967 1.355 . S
C968 C969 1.363 . S
C968 H980 0.929 . S
C969 C968 1.363 . S
C969 N971 1.375 . S
C969 H987 0.931 . S
C970 N967 1.311 . S
C970 N971 1.347 . S
C970 H981 0.929 . S
N971 C969 1.375 . S
N971 C970 1.347 . S
C972 C975 1.365 . S
C972 N977 1.328 . S
C972 H978 0.929 . S
C973 C974 1.362 1_565 S
C973 C976 1.378 . S
C973 H988 0.929 . S
C974 C973 1.362 1_545 S
C974 C975 1.366 . S
C975 C972 1.365 . S
C975 C974 1.366 . S
C975 H989 0.930 . S
C976 C973 1.378 . S
C976 N977 1.315 1_565 S
C976 H979 0.930 . S
N977 Co957 2.194 . S
N977 C972 1.328 . S
N977 C976 1.315 1_545 S
H978 C972 0.929 . S
H979 C976 0.930 . S
H980 C968 0.929 . S
H981 C970 0.929 . S
O982 Co957 2.351 . S
O982 C985 1.244 . S
O983 Co957 2.155 . S
O983 C985 1.240 . S
O984 Co957 2.096 1_565 S
O984 C965 1.247 . S
C985 O982 1.244 . S
C985 O983 1.240 . S
H986 C960 0.931 . S
H987 C969 0.931 . S
H988 C973 0.929 . S
H989 C975 0.930 . S
Co990 N994 2.148 . S
Co990 N1000 2.128 . S
Co990 N1010 2.194 . S
Co990 O1015 2.351 . S
Co990 O1016 2.155 . S
Co990 O1017 2.096 . S
C991 N994 1.301 . S
C991 N995 1.328 . S
C991 H996 0.930 . S
C992 C993 1.333 . S
C992 N994 1.317 . S
C992 H997 0.930 . S
C993 C992 1.333 . S
C993 N995 1.350 . S
C993 H1019 0.931 . S
N994 Co990 2.148 . S
N994 C991 1.301 . S
N994 C992 1.317 . S
N995 C991 1.328 . S
N995 C993 1.350 . S
H996 C991 0.930 . S
H997 C992 0.930 . S
C998 O999 1.224 . S
C998 O1017 1.247 . S
O999 C998 1.224 . S
N1000 Co990 2.128 . S
N1000 C1001 1.355 . S
N1000 C1003 1.311 . S
C1001 N1000 1.355 . S
C1001 C1002 1.363 . S
C1001 H1013 0.929 . S
C1002 C1001 1.363 . S
C1002 N1004 1.375 . S
C1002 H1020 0.931 . S
C1003 N1000 1.311 . S
C1003 N1004 1.347 . S
C1003 H1014 0.929 . S
N1004 C1002 1.375 . S
N1004 C1003 1.347 . S
C1005 C1008 1.365 . S
C1005 N1010 1.328 . S
C1005 H1011 0.929 . S
C1006 C1007 1.362 . S
C1006 C1009 1.378 . S
C1006 H1021 0.929 . S
C1007 C1006 1.362 . S
C1007 C1008 1.366 . S
C1008 C1005 1.365 . S
C1008 C1007 1.366 . S
C1008 H1022 0.930 . S
C1009 C1006 1.378 . S
C1009 N1010 1.315 . S
C1009 H1012 0.930 . S
N1010 Co990 2.194 . S
N1010 C1005 1.328 . S
N1010 C1009 1.315 . S
H1011 C1005 0.929 . S
H1012 C1009 0.930 . S
H1013 C1001 0.929 . S
H1014 C1003 0.929 . S
O1015 Co990 2.351 . S
O1015 C1018 1.244 . S
O1016 Co990 2.155 . S
O1016 C1018 1.240 . S
O1017 Co990 2.096 . S
O1017 C998 1.247 . S
C1018 O1015 1.244 . S
C1018 O1016 1.240 . S
H1019 C993 0.931 . S
H1020 C1002 0.931 . S
H1021 C1006 0.929 . S
H1022 C1008 0.930 . S
Co1023 N1027 2.148 . S
Co1023 N1033 2.128 1_545 S
Co1023 N1043 2.194 . S
Co1023 O1048 2.351 . S
Co1023 O1049 2.155 . S
Co1023 O1050 2.096 1_545 S
C1024 N1027 1.301 . S
C1024 N1028 1.328 . S
C1024 H1029 0.930 . S
C1025 C1026 1.333 . S
C1025 N1027 1.317 . S
C1025 H1030 0.930 . S
C1026 C1025 1.333 . S
C1026 N1028 1.350 . S
C1026 H1052 0.931 . S
N1027 Co1023 2.148 . S
N1027 C1024 1.301 . S
N1027 C1025 1.317 . S
N1028 C1024 1.328 . S
N1028 C1026 1.350 . S
H1029 C1024 0.930 . S
H1030 C1025 0.930 . S
C1031 O1032 1.224 . S
C1031 O1050 1.247 . S
O1032 C1031 1.224 . S
N1033 Co1023 2.128 1_565 S
N1033 C1034 1.355 . S
N1033 C1036 1.311 . S
C1034 N1033 1.355 . S
C1034 C1035 1.363 . S
C1034 H1046 0.929 . S
C1035 C1034 1.363 . S
C1035 N1037 1.375 . S
C1035 H1053 0.931 . S
C1036 N1033 1.311 . S
C1036 N1037 1.347 . S
C1036 H1047 0.929 . S
N1037 C1035 1.375 . S
N1037 C1036 1.347 . S
C1038 C1041 1.365 . S
C1038 N1043 1.328 . S
C1038 H1044 0.929 . S
C1039 C1040 1.362 1_565 S
C1039 C1042 1.378 . S
C1039 H1054 0.929 . S
C1040 C1039 1.362 1_545 S
C1040 C1041 1.366 . S
C1041 C1038 1.365 . S
C1041 C1040 1.366 . S
C1041 H1055 0.930 . S
C1042 C1039 1.378 . S
C1042 N1043 1.315 1_565 S
C1042 H1045 0.930 . S
N1043 Co1023 2.194 . S
N1043 C1038 1.328 . S
N1043 C1042 1.315 1_545 S
H1044 C1038 0.929 . S
H1045 C1042 0.930 . S
H1046 C1034 0.929 . S
H1047 C1036 0.929 . S
O1048 Co1023 2.351 . S
O1048 C1051 1.244 . S
O1049 Co1023 2.155 . S
O1049 C1051 1.240 . S
O1050 Co1023 2.096 1_565 S
O1050 C1031 1.247 . S
C1051 O1048 1.244 . S
C1051 O1049 1.240 . S
H1052 C1026 0.931 . S
H1053 C1035 0.931 . S
H1054 C1039 0.929 . S
H1055 C1041 0.930 . S
Co1056 N1060 2.148 . S
Co1056 N1066 2.128 . S
Co1056 N1076 2.194 . S
Co1056 O1081 2.351 . S
Co1056 O1082 2.155 . S
Co1056 O1083 2.096 . S
C1057 N1060 1.301 . S
C1057 N1061 1.328 . S
C1057 H1062 0.930 . S
C1058 C1059 1.333 . S
C1058 N1060 1.317 . S
C1058 H1063 0.930 . S
C1059 C1058 1.333 . S
C1059 N1061 1.350 . S
C1059 H1085 0.931 . S
N1060 Co1056 2.148 . S
N1060 C1057 1.301 . S
N1060 C1058 1.317 . S
N1061 C1057 1.328 . S
N1061 C1059 1.350 . S
H1062 C1057 0.930 . S
H1063 C1058 0.930 . S
C1064 O1065 1.224 . S
C1064 O1083 1.247 . S
O1065 C1064 1.224 . S
N1066 Co1056 2.128 . S
N1066 C1067 1.355 . S
N1066 C1069 1.311 . S
C1067 N1066 1.355 . S
C1067 C1068 1.363 . S
C1067 H1079 0.929 . S
C1068 C1067 1.363 . S
C1068 N1070 1.375 . S
C1068 H1086 0.931 . S
C1069 N1066 1.311 . S
C1069 N1070 1.347 . S
C1069 H1080 0.929 . S
N1070 C1068 1.375 . S
N1070 C1069 1.347 . S
C1071 C1074 1.365 . S
C1071 N1076 1.328 . S
C1071 H1077 0.929 . S
C1072 C1073 1.362 . S
C1072 C1075 1.378 . S
C1072 H1087 0.929 . S
C1073 C1072 1.362 . S
C1073 C1074 1.366 . S
C1074 C1071 1.365 . S
C1074 C1073 1.366 . S
C1074 H1088 0.930 . S
C1075 C1072 1.378 . S
C1075 N1076 1.315 . S
C1075 H1078 0.930 . S
N1076 Co1056 2.194 . S
N1076 C1071 1.328 . S
N1076 C1075 1.315 . S
H1077 C1071 0.929 . S
H1078 C1075 0.930 . S
H1079 C1067 0.929 . S
H1080 C1069 0.929 . S
O1081 Co1056 2.351 . S
O1081 C1084 1.244 . S
O1082 Co1056 2.155 . S
O1082 C1084 1.240 . S
O1083 Co1056 2.096 . S
O1083 C1064 1.247 . S
C1084 O1081 1.244 . S
C1084 O1082 1.240 . S
H1085 C1059 0.931 . S
H1086 C1068 0.931 . S
H1087 C1072 0.929 . S
H1088 C1074 0.930 . S
Co1089 N1093 2.148 . S
Co1089 N1099 2.128 . S
Co1089 N1109 2.194 . S
Co1089 O1114 2.351 . S
Co1089 O1115 2.155 . S
Co1089 O1116 2.096 . S
C1090 N1093 1.301 . S
C1090 N1094 1.328 . S
C1090 H1095 0.930 . S
C1091 C1092 1.333 . S
C1091 N1093 1.317 . S
C1091 H1096 0.930 . S
C1092 C1091 1.333 . S
C1092 N1094 1.350 . S
C1092 H1118 0.931 . S
N1093 Co1089 2.148 . S
N1093 C1090 1.301 . S
N1093 C1091 1.317 . S
N1094 C1090 1.328 . S
N1094 C1092 1.350 . S
H1095 C1090 0.930 . S
H1096 C1091 0.930 . S
C1097 O1098 1.224 . S
C1097 O1116 1.247 . S
O1098 C1097 1.224 . S
N1099 Co1089 2.128 . S
N1099 C1100 1.355 . S
N1099 C1102 1.311 . S
C1100 N1099 1.355 . S
C1100 C1101 1.363 . S
C1100 H1112 0.929 . S
C1101 C1100 1.363 . S
C1101 N1103 1.375 . S
C1101 H1119 0.931 . S
C1102 N1099 1.311 . S
C1102 N1103 1.347 . S
C1102 H1113 0.929 . S
N1103 C1101 1.375 . S
N1103 C1102 1.347 . S
C1104 C1107 1.365 . S
C1104 N1109 1.328 . S
C1104 H1110 0.929 . S
C1105 C1106 1.362 . S
C1105 C1108 1.378 . S
C1105 H1120 0.929 . S
C1106 C1105 1.362 . S
C1106 C1107 1.366 . S
C1107 C1104 1.365 . S
C1107 C1106 1.366 . S
C1107 H1121 0.930 . S
C1108 C1105 1.378 . S
C1108 N1109 1.315 . S
C1108 H1111 0.930 . S
N1109 Co1089 2.194 . S
N1109 C1104 1.328 . S
N1109 C1108 1.315 . S
H1110 C1104 0.929 . S
H1111 C1108 0.930 . S
H1112 C1100 0.929 . S
H1113 C1102 0.929 . S
O1114 Co1089 2.351 . S
O1114 C1117 1.244 . S
O1115 Co1089 2.155 . S
O1115 C1117 1.240 . S
O1116 Co1089 2.096 . S
O1116 C1097 1.247 . S
C1117 O1114 1.244 . S
C1117 O1115 1.240 . S
H1118 C1092 0.931 . S
H1119 C1101 0.931 . S
H1120 C1105 0.929 . S
H1121 C1107 0.930 . S
Co1122 N1126 2.148 . S
Co1122 N1132 2.128 . S
Co1122 N1142 2.194 . S
Co1122 O1147 2.351 . S
Co1122 O1148 2.155 . S
Co1122 O1149 2.096 . S
C1123 N1126 1.301 . S
C1123 N1127 1.328 . S
C1123 H1128 0.930 . S
C1124 C1125 1.333 . S
C1124 N1126 1.317 . S
C1124 H1129 0.930 . S
C1125 C1124 1.333 . S
C1125 N1127 1.350 . S
C1125 H1151 0.931 . S
N1126 Co1122 2.148 . S
N1126 C1123 1.301 . S
N1126 C1124 1.317 . S
N1127 C1123 1.328 . S
N1127 C1125 1.350 . S
H1128 C1123 0.930 . S
H1129 C1124 0.930 . S
C1130 O1131 1.224 . S
C1130 O1149 1.247 . S
O1131 C1130 1.224 . S
N1132 Co1122 2.128 . S
N1132 C1133 1.355 . S
N1132 C1135 1.311 . S
C1133 N1132 1.355 . S
C1133 C1134 1.363 . S
C1133 H1145 0.929 . S
C1134 C1133 1.363 . S
C1134 N1136 1.375 . S
C1134 H1152 0.931 . S
C1135 N1132 1.311 . S
C1135 N1136 1.347 . S
C1135 H1146 0.929 . S
N1136 C1134 1.375 . S
N1136 C1135 1.347 . S
C1137 C1140 1.365 . S
C1137 N1142 1.328 . S
C1137 H1143 0.929 . S
C1138 C1139 1.362 . S
C1138 C1141 1.378 . S
C1138 H1153 0.929 . S
C1139 C1138 1.362 . S
C1139 C1140 1.366 . S
C1140 C1137 1.365 . S
C1140 C1139 1.366 . S
C1140 H1154 0.930 . S
C1141 C1138 1.378 . S
C1141 N1142 1.315 . S
C1141 H1144 0.930 . S
N1142 Co1122 2.194 . S
N1142 C1137 1.328 . S
N1142 C1141 1.315 . S
H1143 C1137 0.929 . S
H1144 C1141 0.930 . S
H1145 C1133 0.929 . S
H1146 C1135 0.929 . S
O1147 Co1122 2.351 . S
O1147 C1150 1.244 . S
O1148 Co1122 2.155 . S
O1148 C1150 1.240 . S
O1149 Co1122 2.096 . S
O1149 C1130 1.247 . S
C1150 O1147 1.244 . S
C1150 O1148 1.240 . S
H1151 C1125 0.931 . S
H1152 C1134 0.931 . S
H1153 C1138 0.929 . S
H1154 C1140 0.930 . S
Co1155 N1159 2.148 . S
Co1155 N1165 2.128 . S
Co1155 N1175 2.194 . S
Co1155 O1180 2.351 . S
Co1155 O1181 2.155 . S
Co1155 O1182 2.096 . S
C1156 N1159 1.301 . S
C1156 N1160 1.328 . S
C1156 H1161 0.930 . S
C1157 C1158 1.333 . S
C1157 N1159 1.317 . S
C1157 H1162 0.930 . S
C1158 C1157 1.333 . S
C1158 N1160 1.350 . S
C1158 H1184 0.931 . S
N1159 Co1155 2.148 . S
N1159 C1156 1.301 . S
N1159 C1157 1.317 . S
N1160 C1156 1.328 . S
N1160 C1158 1.350 . S
H1161 C1156 0.930 . S
H1162 C1157 0.930 . S
C1163 O1164 1.224 . S
C1163 O1182 1.247 . S
O1164 C1163 1.224 . S
N1165 Co1155 2.128 . S
N1165 C1166 1.355 . S
N1165 C1168 1.311 . S
C1166 N1165 1.355 . S
C1166 C1167 1.363 . S
C1166 H1178 0.929 . S
C1167 C1166 1.363 . S
C1167 N1169 1.375 . S
C1167 H1185 0.931 . S
C1168 N1165 1.311 . S
C1168 N1169 1.347 . S
C1168 H1179 0.929 . S
N1169 C1167 1.375 . S
N1169 C1168 1.347 . S
C1170 C1173 1.365 . S
C1170 N1175 1.328 . S
C1170 H1176 0.929 . S
C1171 C1172 1.362 . S
C1171 C1174 1.378 . S
C1171 H1186 0.929 . S
C1172 C1171 1.362 . S
C1172 C1173 1.366 . S
C1173 C1170 1.365 . S
C1173 C1172 1.366 . S
C1173 H1187 0.930 . S
C1174 C1171 1.378 . S
C1174 N1175 1.315 . S
C1174 H1177 0.930 . S
N1175 Co1155 2.194 . S
N1175 C1170 1.328 . S
N1175 C1174 1.315 . S
H1176 C1170 0.929 . S
H1177 C1174 0.930 . S
H1178 C1166 0.929 . S
H1179 C1168 0.929 . S
O1180 Co1155 2.351 . S
O1180 C1183 1.244 . S
O1181 Co1155 2.155 . S
O1181 C1183 1.240 . S
O1182 Co1155 2.096 . S
O1182 C1163 1.247 . S
C1183 O1180 1.244 . S
C1183 O1181 1.240 . S
H1184 C1158 0.931 . S
H1185 C1167 0.931 . S
H1186 C1171 0.929 . S
H1187 C1173 0.930 . S
Co1188 N1192 2.148 . S
Co1188 N1198 2.128 . S
Co1188 N1208 2.194 . S
Co1188 O1213 2.351 . S
Co1188 O1214 2.155 . S
Co1188 O1215 2.096 . S
C1189 N1192 1.301 . S
C1189 N1193 1.328 . S
C1189 H1194 0.930 . S
C1190 C1191 1.333 . S
C1190 N1192 1.317 . S
C1190 H1195 0.930 . S
C1191 C1190 1.333 . S
C1191 N1193 1.350 . S
C1191 H1217 0.931 . S
N1192 Co1188 2.148 . S
N1192 C1189 1.301 . S
N1192 C1190 1.317 . S
N1193 C1189 1.328 . S
N1193 C1191 1.350 . S
H1194 C1189 0.930 . S
H1195 C1190 0.930 . S
C1196 O1197 1.224 . S
C1196 O1215 1.247 . S
O1197 C1196 1.224 . S
N1198 Co1188 2.128 . S
N1198 C1199 1.355 . S
N1198 C1201 1.311 . S
C1199 N1198 1.355 . S
C1199 C1200 1.363 . S
C1199 H1211 0.929 . S
C1200 C1199 1.363 . S
C1200 N1202 1.375 . S
C1200 H1218 0.931 . S
C1201 N1198 1.311 . S
C1201 N1202 1.347 . S
C1201 H1212 0.929 . S
N1202 C1200 1.375 . S
N1202 C1201 1.347 . S
C1203 C1206 1.365 . S
C1203 N1208 1.328 . S
C1203 H1209 0.929 . S
C1204 C1205 1.362 . S
C1204 C1207 1.378 . S
C1204 H1219 0.929 . S
C1205 C1204 1.362 . S
C1205 C1206 1.366 . S
C1206 C1203 1.365 . S
C1206 C1205 1.366 . S
C1206 H1220 0.930 . S
C1207 C1204 1.378 . S
C1207 N1208 1.315 . S
C1207 H1210 0.930 . S
N1208 Co1188 2.194 . S
N1208 C1203 1.328 . S
N1208 C1207 1.315 . S
H1209 C1203 0.929 . S
H1210 C1207 0.930 . S
H1211 C1199 0.929 . S
H1212 C1201 0.929 . S
O1213 Co1188 2.351 . S
O1213 C1216 1.244 . S
O1214 Co1188 2.155 . S
O1214 C1216 1.240 . S
O1215 Co1188 2.096 . S
O1215 C1196 1.247 . S
C1216 O1213 1.244 . S
C1216 O1214 1.240 . S
H1217 C1191 0.931 . S
H1218 C1200 0.931 . S
H1219 C1204 0.929 . S
H1220 C1206 0.930 . S
Co1221 N1225 2.148 . S
Co1221 N1231 2.128 . S
Co1221 N1241 2.194 . S
Co1221 O1246 2.351 . S
Co1221 O1247 2.155 . S
Co1221 O1248 2.096 . S
C1222 N1225 1.301 . S
C1222 N1226 1.328 . S
C1222 H1227 0.930 . S
C1223 C1224 1.333 . S
C1223 N1225 1.317 . S
C1223 H1228 0.930 . S
C1224 C1223 1.333 . S
C1224 N1226 1.350 . S
C1224 H1250 0.931 . S
N1225 Co1221 2.148 . S
N1225 C1222 1.301 . S
N1225 C1223 1.317 . S
N1226 C1222 1.328 . S
N1226 C1224 1.350 . S
H1227 C1222 0.930 . S
H1228 C1223 0.930 . S
C1229 O1230 1.224 . S
C1229 O1248 1.247 . S
O1230 C1229 1.224 . S
N1231 Co1221 2.128 . S
N1231 C1232 1.355 . S
N1231 C1234 1.311 . S
C1232 N1231 1.355 . S
C1232 C1233 1.363 . S
C1232 H1244 0.929 . S
C1233 C1232 1.363 . S
C1233 N1235 1.375 . S
C1233 H1251 0.931 . S
C1234 N1231 1.311 . S
C1234 N1235 1.347 . S
C1234 H1245 0.929 . S
N1235 C1233 1.375 . S
N1235 C1234 1.347 . S
C1236 C1239 1.365 . S
C1236 N1241 1.328 . S
C1236 H1242 0.929 . S
C1237 C1238 1.362 . S
C1237 C1240 1.378 . S
C1237 H1252 0.929 . S
C1238 C1237 1.362 . S
C1238 C1239 1.366 . S
C1239 C1236 1.365 . S
C1239 C1238 1.366 . S
C1239 H1253 0.930 . S
C1240 C1237 1.378 . S
C1240 N1241 1.315 . S
C1240 H1243 0.930 . S
N1241 Co1221 2.194 . S
N1241 C1236 1.328 . S
N1241 C1240 1.315 . S
H1242 C1236 0.929 . S
H1243 C1240 0.930 . S
H1244 C1232 0.929 . S
H1245 C1234 0.929 . S
O1246 Co1221 2.351 . S
O1246 C1249 1.244 . S
O1247 Co1221 2.155 . S
O1247 C1249 1.240 . S
O1248 Co1221 2.096 . S
O1248 C1229 1.247 . S
C1249 O1246 1.244 . S
C1249 O1247 1.240 . S
H1250 C1224 0.931 . S
H1251 C1233 0.931 . S
H1252 C1237 0.929 . S
H1253 C1239 0.930 . S
Co1254 N1258 2.148 . S
Co1254 N1264 2.128 . S
Co1254 N1274 2.194 . S
Co1254 O1279 2.351 . S
Co1254 O1280 2.155 . S
Co1254 O1281 2.096 . S
C1255 N1258 1.301 . S
C1255 N1259 1.328 . S
C1255 H1260 0.930 . S
C1256 C1257 1.333 . S
C1256 N1258 1.317 . S
C1256 H1261 0.930 . S
C1257 C1256 1.333 . S
C1257 N1259 1.350 . S
C1257 H1283 0.931 . S
N1258 Co1254 2.148 . S
N1258 C1255 1.301 . S
N1258 C1256 1.317 . S
N1259 C1255 1.328 . S
N1259 C1257 1.350 . S
H1260 C1255 0.930 . S
H1261 C1256 0.930 . S
C1262 O1263 1.224 . S
C1262 O1281 1.247 . S
O1263 C1262 1.224 . S
N1264 Co1254 2.128 . S
N1264 C1265 1.355 . S
N1264 C1267 1.311 . S
C1265 N1264 1.355 . S
C1265 C1266 1.363 . S
C1265 H1277 0.929 . S
C1266 C1265 1.363 . S
C1266 N1268 1.375 . S
C1266 H1284 0.931 . S
C1267 N1264 1.311 . S
C1267 N1268 1.347 . S
C1267 H1278 0.929 . S
N1268 C1266 1.375 . S
N1268 C1267 1.347 . S
C1269 C1272 1.365 . S
C1269 N1274 1.328 . S
C1269 H1275 0.929 . S
C1270 C1271 1.362 . S
C1270 C1273 1.378 . S
C1270 H1285 0.929 . S
C1271 C1270 1.362 . S
C1271 C1272 1.366 . S
C1272 C1269 1.365 . S
C1272 C1271 1.366 . S
C1272 H1286 0.930 . S
C1273 C1270 1.378 . S
C1273 N1274 1.315 . S
C1273 H1276 0.930 . S
N1274 Co1254 2.194 . S
N1274 C1269 1.328 . S
N1274 C1273 1.315 . S
H1275 C1269 0.929 . S
H1276 C1273 0.930 . S
H1277 C1265 0.929 . S
H1278 C1267 0.929 . S
O1279 Co1254 2.351 . S
O1279 C1282 1.244 . S
O1280 Co1254 2.155 . S
O1280 C1282 1.240 . S
O1281 Co1254 2.096 . S
O1281 C1262 1.247 . S
C1282 O1279 1.244 . S
C1282 O1280 1.240 . S
H1283 C1257 0.931 . S
H1284 C1266 0.931 . S
H1285 C1270 0.929 . S
H1286 C1272 0.930 . S
Co1287 N1291 2.148 . S
Co1287 N1297 2.128 . S
Co1287 N1307 2.194 . S
Co1287 O1312 2.351 . S
Co1287 O1313 2.155 . S
Co1287 O1314 2.096 . S
C1288 N1291 1.301 . S
C1288 N1292 1.328 . S
C1288 H1293 0.930 . S
C1289 C1290 1.333 . S
C1289 N1291 1.317 . S
C1289 H1294 0.930 . S
C1290 C1289 1.333 . S
C1290 N1292 1.350 . S
C1290 H1316 0.931 . S
N1291 Co1287 2.148 . S
N1291 C1288 1.301 . S
N1291 C1289 1.317 . S
N1292 C1288 1.328 . S
N1292 C1290 1.350 . S
H1293 C1288 0.930 . S
H1294 C1289 0.930 . S
C1295 O1296 1.224 . S
C1295 O1314 1.247 . S
O1296 C1295 1.224 . S
N1297 Co1287 2.128 . S
N1297 C1298 1.355 . S
N1297 C1300 1.311 . S
C1298 N1297 1.355 . S
C1298 C1299 1.363 . S
C1298 H1310 0.929 . S
C1299 C1298 1.363 . S
C1299 N1301 1.375 . S
C1299 H1317 0.931 . S
C1300 N1297 1.311 . S
C1300 N1301 1.347 . S
C1300 H1311 0.929 . S
N1301 C1299 1.375 . S
N1301 C1300 1.347 . S
C1302 C1305 1.365 . S
C1302 N1307 1.328 . S
C1302 H1308 0.929 . S
C1303 C1304 1.362 . S
C1303 C1306 1.378 . S
C1303 H1318 0.929 . S
C1304 C1303 1.362 . S
C1304 C1305 1.366 . S
C1305 C1302 1.365 . S
C1305 C1304 1.366 . S
C1305 H1319 0.930 . S
C1306 C1303 1.378 . S
C1306 N1307 1.315 . S
C1306 H1309 0.930 . S
N1307 Co1287 2.194 . S
N1307 C1302 1.328 . S
N1307 C1306 1.315 . S
H1308 C1302 0.929 . S
H1309 C1306 0.930 . S
H1310 C1298 0.929 . S
H1311 C1300 0.929 . S
O1312 Co1287 2.351 . S
O1312 C1315 1.244 . S
O1313 Co1287 2.155 . S
O1313 C1315 1.240 . S
O1314 Co1287 2.096 . S
O1314 C1295 1.247 . S
C1315 O1312 1.244 . S
C1315 O1313 1.240 . S
H1316 C1290 0.931 . S
H1317 C1299 0.931 . S
H1318 C1303 0.929 . S
H1319 C1305 0.930 . S
Co1320 N1324 2.148 . S
Co1320 N1330 2.128 . S
Co1320 N1340 2.194 . S
Co1320 O1345 2.351 . S
Co1320 O1346 2.155 . S
Co1320 O1347 2.096 . S
C1321 N1324 1.301 . S
C1321 N1325 1.328 . S
C1321 H1326 0.930 . S
C1322 C1323 1.333 . S
C1322 N1324 1.317 . S
C1322 H1327 0.930 . S
C1323 C1322 1.333 . S
C1323 N1325 1.350 . S
C1323 H1349 0.931 . S
N1324 Co1320 2.148 . S
N1324 C1321 1.301 . S
N1324 C1322 1.317 . S
N1325 C1321 1.328 . S
N1325 C1323 1.350 . S
H1326 C1321 0.930 . S
H1327 C1322 0.930 . S
C1328 O1329 1.224 . S
C1328 O1347 1.247 . S
O1329 C1328 1.224 . S
N1330 Co1320 2.128 . S
N1330 C1331 1.355 . S
N1330 C1333 1.311 . S
C1331 N1330 1.355 . S
C1331 C1332 1.363 . S
C1331 H1343 0.929 . S
C1332 C1331 1.363 . S
C1332 N1334 1.375 . S
C1332 H1350 0.931 . S
C1333 N1330 1.311 . S
C1333 N1334 1.347 . S
C1333 H1344 0.929 . S
N1334 C1332 1.375 . S
N1334 C1333 1.347 . S
C1335 C1338 1.365 . S
C1335 N1340 1.328 . S
C1335 H1341 0.929 . S
C1336 C1337 1.362 . S
C1336 C1339 1.378 . S
C1336 H1351 0.929 . S
C1337 C1336 1.362 . S
C1337 C1338 1.366 . S
C1338 C1335 1.365 . S
C1338 C1337 1.366 . S
C1338 H1352 0.930 . S
C1339 C1336 1.378 . S
C1339 N1340 1.315 . S
C1339 H1342 0.930 . S
N1340 Co1320 2.194 . S
N1340 C1335 1.328 . S
N1340 C1339 1.315 . S
H1341 C1335 0.929 . S
H1342 C1339 0.930 . S
H1343 C1331 0.929 . S
H1344 C1333 0.929 . S
O1345 Co1320 2.351 . S
O1345 C1348 1.244 . S
O1346 Co1320 2.155 . S
O1346 C1348 1.240 . S
O1347 Co1320 2.096 . S
O1347 C1328 1.247 . S
C1348 O1345 1.244 . S
C1348 O1346 1.240 . S
H1349 C1323 0.931 . S
H1350 C1332 0.931 . S
H1351 C1336 0.929 . S
H1352 C1338 0.930 . S
Co1353 N1357 2.148 . S
Co1353 N1363 2.128 . S
Co1353 N1373 2.194 . S
Co1353 O1378 2.351 . S
Co1353 O1379 2.155 . S
Co1353 O1380 2.096 . S
C1354 N1357 1.301 . S
C1354 N1358 1.328 . S
C1354 H1359 0.930 . S
C1355 C1356 1.333 . S
C1355 N1357 1.317 . S
C1355 H1360 0.930 . S
C1356 C1355 1.333 . S
C1356 N1358 1.350 . S
C1356 H1382 0.931 . S
N1357 Co1353 2.148 . S
N1357 C1354 1.301 . S
N1357 C1355 1.317 . S
N1358 C1354 1.328 . S
N1358 C1356 1.350 . S
H1359 C1354 0.930 . S
H1360 C1355 0.930 . S
C1361 O1362 1.224 . S
C1361 O1380 1.247 . S
O1362 C1361 1.224 . S
N1363 Co1353 2.128 . S
N1363 C1364 1.355 . S
N1363 C1366 1.311 . S
C1364 N1363 1.355 . S
C1364 C1365 1.363 . S
C1364 H1376 0.929 . S
C1365 C1364 1.363 . S
C1365 N1367 1.375 . S
C1365 H1383 0.931 . S
C1366 N1363 1.311 . S
C1366 N1367 1.347 . S
C1366 H1377 0.929 . S
N1367 C1365 1.375 . S
N1367 C1366 1.347 . S
C1368 C1371 1.365 . S
C1368 N1373 1.328 . S
C1368 H1374 0.929 . S
C1369 C1370 1.362 . S
C1369 C1372 1.378 . S
C1369 H1384 0.929 . S
C1370 C1369 1.362 . S
C1370 C1371 1.366 . S
C1371 C1368 1.365 . S
C1371 C1370 1.366 . S
C1371 H1385 0.930 . S
C1372 C1369 1.378 . S
C1372 N1373 1.315 . S
C1372 H1375 0.930 . S
N1373 Co1353 2.194 . S
N1373 C1368 1.328 . S
N1373 C1372 1.315 . S
H1374 C1368 0.929 . S
H1375 C1372 0.930 . S
H1376 C1364 0.929 . S
H1377 C1366 0.929 . S
O1378 Co1353 2.351 . S
O1378 C1381 1.244 . S
O1379 Co1353 2.155 . S
O1379 C1381 1.240 . S
O1380 Co1353 2.096 . S
O1380 C1361 1.247 . S
C1381 O1378 1.244 . S
C1381 O1379 1.240 . S
H1382 C1356 0.931 . S
H1383 C1365 0.931 . S
H1384 C1369 0.929 . S
H1385 C1371 0.930 . S
Co1386 N1390 2.148 . S
Co1386 N1396 2.128 . S
Co1386 N1406 2.194 . S
Co1386 O1411 2.351 . S
Co1386 O1412 2.155 . S
Co1386 O1413 2.096 . S
C1387 N1390 1.301 . S
C1387 N1391 1.328 . S
C1387 H1392 0.930 . S
C1388 C1389 1.333 . S
C1388 N1390 1.317 . S
C1388 H1393 0.930 . S
C1389 C1388 1.333 . S
C1389 N1391 1.350 . S
C1389 H1415 0.931 . S
N1390 Co1386 2.148 . S
N1390 C1387 1.301 . S
N1390 C1388 1.317 . S
N1391 C1387 1.328 . S
N1391 C1389 1.350 . S
H1392 C1387 0.930 . S
H1393 C1388 0.930 . S
C1394 O1395 1.224 . S
C1394 O1413 1.247 . S
O1395 C1394 1.224 . S
N1396 Co1386 2.128 . S
N1396 C1397 1.355 . S
N1396 C1399 1.311 . S
C1397 N1396 1.355 . S
C1397 C1398 1.363 . S
C1397 H1409 0.929 . S
C1398 C1397 1.363 . S
C1398 N1400 1.375 . S
C1398 H1416 0.931 . S
C1399 N1396 1.311 . S
C1399 N1400 1.347 . S
C1399 H1410 0.929 . S
N1400 C1398 1.375 . S
N1400 C1399 1.347 . S
C1401 C1404 1.365 . S
C1401 N1406 1.328 . S
C1401 H1407 0.929 . S
C1402 C1403 1.362 . S
C1402 C1405 1.378 . S
C1402 H1417 0.929 . S
C1403 C1402 1.362 . S
C1403 C1404 1.366 . S
C1404 C1401 1.365 . S
C1404 C1403 1.366 . S
C1404 H1418 0.930 . S
C1405 C1402 1.378 . S
C1405 N1406 1.315 . S
C1405 H1408 0.930 . S
N1406 Co1386 2.194 . S
N1406 C1401 1.328 . S
N1406 C1405 1.315 . S
H1407 C1401 0.929 . S
H1408 C1405 0.930 . S
H1409 C1397 0.929 . S
H1410 C1399 0.929 . S
O1411 Co1386 2.351 . S
O1411 C1414 1.244 . S
O1412 Co1386 2.155 . S
O1412 C1414 1.240 . S
O1413 Co1386 2.096 . S
O1413 C1394 1.247 . S
C1414 O1411 1.244 . S
C1414 O1412 1.240 . S
H1415 C1389 0.931 . S
H1416 C1398 0.931 . S
H1417 C1402 0.929 . S
H1418 C1404 0.930 . S
Co1419 N1423 2.148 . S
Co1419 N1429 2.128 . S
Co1419 N1439 2.194 . S
Co1419 O1444 2.351 . S
Co1419 O1445 2.155 . S
Co1419 O1446 2.096 . S
C1420 N1423 1.301 . S
C1420 N1424 1.328 . S
C1420 H1425 0.930 . S
C1421 C1422 1.333 . S
C1421 N1423 1.317 . S
C1421 H1426 0.930 . S
C1422 C1421 1.333 . S
C1422 N1424 1.350 . S
C1422 H1448 0.931 . S
N1423 Co1419 2.148 . S
N1423 C1420 1.301 . S
N1423 C1421 1.317 . S
N1424 C1420 1.328 . S
N1424 C1422 1.350 . S
H1425 C1420 0.930 . S
H1426 C1421 0.930 . S
C1427 O1428 1.224 . S
C1427 O1446 1.247 . S
O1428 C1427 1.224 . S
N1429 Co1419 2.128 . S
N1429 C1430 1.355 . S
N1429 C1432 1.311 . S
C1430 N1429 1.355 . S
C1430 C1431 1.363 . S
C1430 H1442 0.929 . S
C1431 C1430 1.363 . S
C1431 N1433 1.375 . S
C1431 H1449 0.931 . S
C1432 N1429 1.311 . S
C1432 N1433 1.347 . S
C1432 H1443 0.929 . S
N1433 C1431 1.375 . S
N1433 C1432 1.347 . S
C1434 C1437 1.365 . S
C1434 N1439 1.328 . S
C1434 H1440 0.929 . S
C1435 C1436 1.362 . S
C1435 C1438 1.378 . S
C1435 H1450 0.929 . S
C1436 C1435 1.362 . S
C1436 C1437 1.366 . S
C1437 C1434 1.365 . S
C1437 C1436 1.366 . S
C1437 H1451 0.930 . S
C1438 C1435 1.378 . S
C1438 N1439 1.315 . S
C1438 H1441 0.930 . S
N1439 Co1419 2.194 . S
N1439 C1434 1.328 . S
N1439 C1438 1.315 . S
H1440 C1434 0.929 . S
H1441 C1438 0.930 . S
H1442 C1430 0.929 . S
H1443 C1432 0.929 . S
O1444 Co1419 2.351 . S
O1444 C1447 1.244 . S
O1445 Co1419 2.155 . S
O1445 C1447 1.240 . S
O1446 Co1419 2.096 . S
O1446 C1427 1.247 . S
C1447 O1444 1.244 . S
C1447 O1445 1.240 . S
H1448 C1422 0.931 . S
H1449 C1431 0.931 . S
H1450 C1435 0.929 . S
H1451 C1437 0.930 . S
Co1452 N1456 2.148 1_554 S
Co1452 N1462 2.128 . S
Co1452 N1472 2.194 . S
Co1452 O1477 2.351 1_554 S
Co1452 O1478 2.155 1_554 S
Co1452 O1479 2.096 . S
C1453 N1456 1.301 . S
C1453 N1457 1.328 . S
C1453 H1458 0.930 . S
C1454 C1455 1.333 . S
C1454 N1456 1.317 . S
C1454 H1459 0.930 . S
C1455 C1454 1.333 . S
C1455 N1457 1.350 . S
C1455 H1481 0.931 . S
N1456 Co1452 2.148 1_556 S
N1456 C1453 1.301 . S
N1456 C1454 1.317 . S
N1457 C1453 1.328 . S
N1457 C1455 1.350 . S
H1458 C1453 0.930 . S
H1459 C1454 0.930 . S
C1460 O1461 1.224 . S
C1460 O1479 1.247 . S
O1461 C1460 1.224 . S
N1462 Co1452 2.128 . S
N1462 C1463 1.355 . S
N1462 C1465 1.311 . S
C1463 N1462 1.355 . S
C1463 C1464 1.363 . S
C1463 H1475 0.929 . S
C1464 C1463 1.363 . S
C1464 N1466 1.375 . S
C1464 H1482 0.931 . S
C1465 N1462 1.311 . S
C1465 N1466 1.347 . S
C1465 H1476 0.929 . S
N1466 C1464 1.375 . S
N1466 C1465 1.347 . S
C1467 C1470 1.365 . S
C1467 N1472 1.328 1_556 S
C1467 H1473 0.929 . S
C1468 C1469 1.362 . S
C1468 C1471 1.378 . S
C1468 H1483 0.929 . S
C1469 C1468 1.362 . S
C1469 C1470 1.366 1_554 S
C1470 C1467 1.365 . S
C1470 C1469 1.366 1_556 S
C1470 H1484 0.930 . S
C1471 C1468 1.378 . S
C1471 N1472 1.315 . S
C1471 H1474 0.930 . S
N1472 Co1452 2.194 . S
N1472 C1467 1.328 1_554 S
N1472 C1471 1.315 . S
H1473 C1467 0.929 . S
H1474 C1471 0.930 . S
H1475 C1463 0.929 . S
H1476 C1465 0.929 . S
O1477 Co1452 2.351 1_556 S
O1477 C1480 1.244 . S
O1478 Co1452 2.155 1_556 S
O1478 C1480 1.240 . S
O1479 Co1452 2.096 . S
O1479 C1460 1.247 . S
C1480 O1477 1.244 . S
C1480 O1478 1.240 . S
H1481 C1455 0.931 . S
H1482 C1464 0.931 . S
H1483 C1468 0.929 . S
H1484 C1470 0.930 . S
Co1485 N1489 2.148 1_554 S
Co1485 N1495 2.128 . S
Co1485 N1505 2.194 . S
Co1485 O1510 2.351 1_554 S
Co1485 O1511 2.155 1_554 S
Co1485 O1512 2.096 . S
C1486 N1489 1.301 . S
C1486 N1490 1.328 . S
C1486 H1491 0.930 . S
C1487 C1488 1.333 . S
C1487 N1489 1.317 . S
C1487 H1492 0.930 . S
C1488 C1487 1.333 . S
C1488 N1490 1.350 . S
C1488 H1514 0.931 . S
N1489 Co1485 2.148 1_556 S
N1489 C1486 1.301 . S
N1489 C1487 1.317 . S
N1490 C1486 1.328 . S
N1490 C1488 1.350 . S
H1491 C1486 0.930 . S
H1492 C1487 0.930 . S
C1493 O1494 1.224 . S
C1493 O1512 1.247 . S
O1494 C1493 1.224 . S
N1495 Co1485 2.128 . S
N1495 C1496 1.355 . S
N1495 C1498 1.311 . S
C1496 N1495 1.355 . S
C1496 C1497 1.363 . S
C1496 H1508 0.929 . S
C1497 C1496 1.363 . S
C1497 N1499 1.375 . S
C1497 H1515 0.931 . S
C1498 N1495 1.311 . S
C1498 N1499 1.347 . S
C1498 H1509 0.929 . S
N1499 C1497 1.375 . S
N1499 C1498 1.347 . S
C1500 C1503 1.365 . S
C1500 N1505 1.318 1_556 S
C1500 H1506 0.929 . S
C1501 C1502 1.362 . S
C1501 C1504 1.378 . S
C1501 H1516 0.929 . S
C1502 C1501 1.362 . S
C1502 C1503 1.366 1_554 S
C1503 C1500 1.365 . S
C1503 C1502 1.366 1_556 S
C1503 H1517 0.930 . S
C1504 C1501 1.378 . S
C1504 N1505 1.325 . S
C1504 H1507 0.930 . S
N1505 Co1485 2.194 . S
N1505 C1500 1.318 1_554 S
N1505 C1504 1.325 . S
H1506 C1500 0.929 . S
H1507 C1504 0.930 . S
H1508 C1496 0.929 . S
H1509 C1498 0.929 . S
O1510 Co1485 2.351 1_556 S
O1510 C1513 1.244 . S
O1511 Co1485 2.155 1_556 S
O1511 C1513 1.240 . S
O1512 Co1485 2.096 . S
O1512 C1493 1.247 . S
C1513 O1510 1.244 . S
C1513 O1511 1.240 . S
H1514 C1488 0.931 . S
H1515 C1497 0.931 . S
H1516 C1501 0.929 . S
H1517 C1503 0.930 . S
Co1518 N1522 2.148 . S
Co1518 N1528 2.128 1_554 S
Co1518 N1538 2.194 . S
Co1518 O1543 2.351 . S
Co1518 O1544 2.155 . S
Co1518 O1545 2.096 1_554 S
C1519 N1522 1.301 . S
C1519 N1523 1.328 . S
C1519 H1524 0.930 . S
C1520 C1521 1.333 . S
C1520 N1522 1.317 . S
C1520 H1525 0.930 . S
C1521 C1520 1.333 . S
C1521 N1523 1.350 . S
C1521 H1547 0.931 . S
N1522 Co1518 2.148 . S
N1522 C1519 1.301 . S
N1522 C1520 1.317 . S
N1523 C1519 1.328 . S
N1523 C1521 1.350 . S
H1524 C1519 0.930 . S
H1525 C1520 0.930 . S
C1526 O1527 1.224 . S
C1526 O1545 1.247 . S
O1527 C1526 1.224 . S
N1528 Co1518 2.128 1_556 S
N1528 C1529 1.355 . S
N1528 C1531 1.311 . S
C1529 N1528 1.355 . S
C1529 C1530 1.363 . S
C1529 H1541 0.929 . S
C1530 C1529 1.363 . S
C1530 N1532 1.375 . S
C1530 H1548 0.931 . S
C1531 N1528 1.311 . S
C1531 N1532 1.347 . S
C1531 H1542 0.929 . S
N1532 C1530 1.375 . S
N1532 C1531 1.347 . S
C1533 C1536 1.365 . S
C1533 N1538 1.328 . S
C1533 H1539 0.929 . S
C1534 C1535 1.362 1_556 S
C1534 C1537 1.378 . S
C1534 H1549 0.929 . S
C1535 C1534 1.362 1_554 S
C1535 C1536 1.366 . S
C1536 C1533 1.365 . S
C1536 C1535 1.366 . S
C1536 H1550 0.930 . S
C1537 C1534 1.378 . S
C1537 N1538 1.315 1_556 S
C1537 H1540 0.930 . S
N1538 Co1518 2.194 . S
N1538 C1533 1.328 . S
N1538 C1537 1.315 1_554 S
H1539 C1533 0.929 . S
H1540 C1537 0.930 . S
H1541 C1529 0.929 . S
H1542 C1531 0.929 . S
O1543 Co1518 2.351 . S
O1543 C1546 1.244 . S
O1544 Co1518 2.155 . S
O1544 C1546 1.240 . S
O1545 Co1518 2.096 1_556 S
O1545 C1526 1.247 . S
C1546 O1543 1.244 . S
C1546 O1544 1.240 . S
H1547 C1521 0.931 . S
H1548 C1530 0.931 . S
H1549 C1534 0.929 . S
H1550 C1536 0.930 . S
Co1551 N1555 2.148 . S
Co1551 N1561 2.128 1_554 S
Co1551 N1571 2.194 . S
Co1551 O1576 2.351 . S
Co1551 O1577 2.155 . S
Co1551 O1578 2.096 1_554 S
C1552 N1555 1.301 . S
C1552 N1556 1.328 . S
C1552 H1557 0.930 . S
C1553 C1554 1.333 . S
C1553 N1555 1.317 . S
C1553 H1558 0.930 . S
C1554 C1553 1.333 . S
C1554 N1556 1.350 . S
C1554 H1580 0.931 . S
N1555 Co1551 2.148 . S
N1555 C1552 1.301 . S
N1555 C1553 1.317 . S
N1556 C1552 1.328 . S
N1556 C1554 1.350 . S
H1557 C1552 0.930 . S
H1558 C1553 0.930 . S
C1559 O1560 1.224 . S
C1559 O1578 1.247 . S
O1560 C1559 1.224 . S
N1561 Co1551 2.128 1_556 S
N1561 C1562 1.355 . S
N1561 C1564 1.311 . S
C1562 N1561 1.355 . S
C1562 C1563 1.363 . S
C1562 H1574 0.929 . S
C1563 C1562 1.363 . S
C1563 N1565 1.375 . S
C1563 H1581 0.931 . S
C1564 N1561 1.311 . S
C1564 N1565 1.347 . S
C1564 H1575 0.929 . S
N1565 C1563 1.375 . S
N1565 C1564 1.347 . S
C1566 C1569 1.365 . S
C1566 N1571 1.328 . S
C1566 H1572 0.929 . S
C1567 C1568 1.362 1_556 S
C1567 C1570 1.378 . S
C1567 H1582 0.929 . S
C1568 C1567 1.362 1_554 S
C1568 C1569 1.366 . S
C1569 C1566 1.365 . S
C1569 C1568 1.366 . S
C1569 H1583 0.930 . S
C1570 C1567 1.378 . S
C1570 N1571 1.315 1_556 S
C1570 H1573 0.930 . S
N1571 Co1551 2.194 . S
N1571 C1566 1.328 . S
N1571 C1570 1.315 1_554 S
H1572 C1566 0.929 . S
H1573 C1570 0.930 . S
H1574 C1562 0.929 . S
H1575 C1564 0.929 . S
O1576 Co1551 2.351 . S
O1576 C1579 1.244 . S
O1577 Co1551 2.155 . S
O1577 C1579 1.240 . S
O1578 Co1551 2.096 1_556 S
O1578 C1559 1.247 . S
C1579 O1576 1.244 . S
C1579 O1577 1.240 . S
H1580 C1554 0.931 . S
H1581 C1563 0.931 . S
H1582 C1567 0.929 . S
H1583 C1569 0.930 . S
C1584 C1585 1.387 1_655 S
C1584 H1588 0.950 . S
C1584 C1593 1.390 . S
C1585 C1584 1.387 1_455 S
C1585 C1587 1.387 . S
H1586 C1593 0.950 . S
C1587 C1585 1.387 . S
C1587 C1589 1.390 . S
C1587 H1591 0.950 . S
H1588 C1584 0.950 . S
C1589 C1587 1.390 . S
C1589 C1590 1.387 . S
C1589 H1592 0.950 . S
C1590 C1589 1.387 . S
C1590 C1593 1.387 1_455 S
H1591 C1587 0.950 . S
H1592 C1589 0.950 . S
C1593 C1584 1.390 . S
C1593 H1586 0.950 . S
C1593 C1590 1.387 1_655 S
C1594 C1595 1.387 . S
C1594 H1598 0.950 . S
C1594 C1603 1.390 . S
C1595 C1594 1.387 . S
C1595 C1597 1.387 1_545 S
H1596 C1603 0.950 . S
C1597 C1595 1.387 1_565 S
C1597 C1599 1.390 . S
C1597 H1601 0.950 . S
H1598 C1594 0.950 . S
C1599 C1597 1.390 . S
C1599 C1600 1.387 1_565 S
C1599 H1602 0.950 . S
C1600 C1599 1.387 1_545 S
C1600 C1603 1.387 . S
H1601 C1597 0.950 . S
H1602 C1599 0.950 . S
C1603 C1594 1.390 . S
C1603 H1596 0.950 . S
C1603 C1600 1.387 . S
C1604 C1605 1.387 . S
C1604 H1608 0.950 . S
C1604 C1613 1.390 . S
C1605 C1604 1.387 . S
C1605 C1607 1.387 1_455 S
H1606 C1613 0.950 . S
C1607 C1605 1.387 1_655 S
C1607 C1609 1.390 . S
C1607 H1611 0.950 . S
H1608 C1604 0.950 . S
C1609 C1607 1.390 . S
C1609 C1610 1.392 . S
C1609 H1612 0.950 . S
C1610 C1609 1.392 . S
C1610 C1613 1.383 1_655 S
H1611 C1607 0.950 . S
H1612 C1609 0.950 . S
C1613 C1604 1.390 . S
C1613 H1606 0.950 . S
C1613 C1610 1.383 1_455 S
C1614 C1615 1.387 1_565 S
C1614 H1618 0.950 . S
C1614 C1623 1.390 . S
C1615 C1614 1.387 1_545 S
C1615 C1617 1.387 . S
H1616 C1623 0.950 . S
C1617 C1615 1.387 . S
C1617 C1619 1.390 . S
C1617 H1621 0.950 . S
H1618 C1614 0.950 . S
C1619 C1617 1.390 . S
C1619 C1620 1.387 . S
C1619 H1622 0.950 . S
C1620 C1619 1.387 . S
C1620 C1623 1.387 1_545 S
H1621 C1617 0.950 . S
H1622 C1619 0.950 . S
C1623 C1614 1.390 . S
C1623 H1616 0.950 . S
C1623 C1620 1.387 1_565 S
C1624 C1625 1.387 . S
C1624 H1628 0.950 . S
C1624 C1633 1.390 . S
C1625 C1624 1.387 . S
C1625 C1627 1.387 1_455 S
H1626 C1633 0.950 . S
C1627 C1625 1.387 1_655 S
C1627 C1629 1.390 . S
C1627 H1631 0.950 . S
H1628 C1624 0.950 . S
C1629 C1627 1.390 . S
C1629 C1630 1.387 1_655 S
C1629 H1632 0.950 . S
C1630 C1629 1.387 1_455 S
C1630 C1633 1.387 . S
H1631 C1627 0.950 . S
H1632 C1629 0.950 . S
C1633 C1624 1.390 . S
C1633 H1626 0.950 . S
C1633 C1630 1.387 . S
C1634 C1635 1.387 . S
C1634 H1638 0.950 . S
C1634 C1643 1.390 . S
C1635 C1634 1.387 . S
C1635 C1637 1.387 1_545 S
H1636 C1643 0.950 . S
C1637 C1635 1.387 1_565 S
C1637 C1639 1.390 . S
C1637 H1641 0.950 . S
H1638 C1634 0.950 . S
C1639 C1637 1.390 . S
C1639 C1640 1.387 1_565 S
C1639 H1642 0.950 . S
C1640 C1639 1.387 1_545 S
C1640 C1643 1.387 . S
H1641 C1637 0.950 . S
H1642 C1639 0.950 . S
C1643 C1634 1.390 . S
C1643 H1636 0.950 . S
C1643 C1640 1.387 . S
C1644 C1645 1.357 1_655 S
C1644 H1648 0.950 . S
C1644 C1653 1.390 . S
C1645 C1644 1.357 1_455 S
C1645 C1647 1.419 . S
H1646 C1653 0.950 . S
C1647 C1645 1.419 . S
C1647 C1649 1.390 . S
C1647 H1651 0.950 . S
H1648 C1644 0.950 . S
C1649 C1647 1.390 . S
C1649 C1650 1.387 . S
C1649 H1652 0.950 . S
C1650 C1649 1.387 . S
C1650 C1653 1.387 1_455 S
H1651 C1647 0.950 . S
H1652 C1649 0.950 . S
C1653 C1644 1.390 . S
C1653 H1646 0.950 . S
C1653 C1650 1.387 1_655 S
C1654 C1655 1.387 1_565 S
C1654 H1658 0.950 . S
C1654 C1663 1.390 . S
C1655 C1654 1.387 1_545 S
C1655 C1657 1.387 . S
H1656 C1663 0.950 . S
C1657 C1655 1.387 . S
C1657 C1659 1.390 . S
C1657 H1661 0.950 . S
H1658 C1654 0.950 . S
C1659 C1657 1.390 . S
C1659 C1660 1.387 . S
C1659 H1662 0.950 . S
C1660 C1659 1.387 . S
C1660 C1663 1.387 1_545 S
H1661 C1657 0.950 . S
H1662 C1659 0.950 . S
C1663 C1654 1.390 . S
C1663 H1656 0.950 . S
C1663 C1660 1.387 1_565 S
C1664 C1665 1.387 . S
C1664 H1668 0.950 . S
C1664 C1673 1.390 . S
C1665 C1664 1.387 . S
C1665 C1667 1.387 1_554 S
H1666 C1673 0.950 . S
C1667 C1665 1.387 1_556 S
C1667 C1669 1.390 . S
C1667 H1671 0.950 . S
H1668 C1664 0.950 . S
C1669 C1667 1.390 . S
C1669 C1670 1.387 1_556 S
C1669 H1672 0.950 . S
C1670 C1669 1.387 1_554 S
C1670 C1673 1.387 . S
H1671 C1667 0.950 . S
H1672 C1669 0.950 . S
C1673 C1664 1.390 . S
C1673 H1666 0.950 . S
C1673 C1670 1.387 . S
C1674 C1675 1.387 . S
C1674 H1678 0.950 . S
C1674 C1683 1.390 . S
C1675 C1674 1.387 . S
C1675 C1677 1.387 1_554 S
H1676 C1683 0.950 . S
C1677 C1675 1.387 1_556 S
C1677 C1679 1.390 . S
C1677 H1681 0.950 . S
H1678 C1674 0.950 . S
C1679 C1677 1.390 . S
C1679 C1680 1.387 1_556 S
C1679 H1682 0.950 . S
C1680 C1679 1.387 1_554 S
C1680 C1683 1.387 . S
H1681 C1677 0.950 . S
H1682 C1679 0.950 . S
C1683 C1674 1.390 . S
C1683 H1676 0.950 . S
C1683 C1680 1.387 . S
C1684 C1685 1.387 1_556 S
C1684 H1688 0.950 . S
C1684 C1693 1.390 . S
C1685 C1684 1.387 1_554 S
C1685 C1687 1.387 . S
H1686 C1693 0.950 . S
C1687 C1685 1.387 . S
C1687 C1689 1.390 . S
C1687 H1691 0.950 . S
H1688 C1684 0.950 . S
C1689 C1687 1.390 . S
C1689 C1690 1.387 . S
C1689 H1692 0.950 . S
C1690 C1689 1.387 . S
C1690 C1693 1.387 1_554 S
H1691 C1687 0.950 . S
H1692 C1689 0.950 . S
C1693 C1684 1.390 . S
C1693 H1686 0.950 . S
C1693 C1690 1.387 1_556 S
C1694 C1695 1.387 1_556 S
C1694 H1698 0.950 . S
C1694 C1703 1.390 . S
C1695 C1694 1.387 1_554 S
C1695 C1697 1.387 . S
H1696 C1703 0.950 . S
C1697 C1695 1.387 . S
C1697 C1699 1.390 . S
C1697 H1701 0.950 . S
H1698 C1694 0.950 . S
C1699 C1697 1.390 . S
C1699 C1700 1.387 . S
C1699 H1702 0.950 . S
C1700 C1699 1.387 . S
C1700 C1703 1.387 1_554 S
H1701 C1697 0.950 . S
H1702 C1699 0.950 . S
C1703 C1694 1.390 . S
C1703 H1696 0.950 . S
C1703 C1700 1.387 1_556 S
C1704 C1705 1.387 . S
C1704 H1708 0.950 . S
C1704 C1713 1.390 . S
C1705 C1704 1.387 . S
C1705 C1707 1.387 . S
H1706 C1713 0.950 . S
C1707 C1705 1.387 . S
C1707 C1709 1.390 . S
C1707 H1711 0.950 . S
H1708 C1704 0.950 . S
C1709 C1707 1.390 . S
C1709 C1710 1.387 . S
C1709 H1712 0.950 . S
C1710 C1709 1.387 . S
C1710 C1713 1.387 . S
H1711 C1707 0.950 . S
H1712 C1709 0.950 . S
C1713 C1704 1.390 . S
C1713 H1706 0.950 . S
C1713 C1710 1.387 . S
C1714 C1715 1.387 . S
C1714 H1718 0.950 . S
C1714 C1723 1.390 . S
C1715 C1714 1.387 . S
C1715 C1717 1.387 . S
H1716 C1723 0.950 . S
C1717 C1715 1.387 . S
C1717 C1719 1.390 . S
C1717 H1721 0.950 . S
H1718 C1714 0.950 . S
C1719 C1717 1.390 . S
C1719 C1720 1.387 . S
C1719 H1722 0.950 . S
C1720 C1719 1.387 . S
C1720 C1723 1.387 . S
H1721 C1717 0.950 . S
H1722 C1719 0.950 . S
C1723 C1714 1.390 . S
C1723 H1716 0.950 . S
C1723 C1720 1.387 . S
C1724 C1725 1.387 . S
C1724 H1728 0.950 . S
C1724 C1733 1.390 . S
C1725 C1724 1.387 . S
C1725 C1727 1.387 . S
H1726 C1733 0.950 . S
C1727 C1725 1.387 . S
C1727 C1729 1.390 . S
C1727 H1731 0.950 . S
H1728 C1724 0.950 . S
C1729 C1727 1.390 . S
C1729 C1730 1.387 . S
C1729 H1732 0.950 . S
C1730 C1729 1.387 . S
C1730 C1733 1.387 . S
H1731 C1727 0.950 . S
H1732 C1729 0.950 . S
C1733 C1724 1.390 . S
C1733 H1726 0.950 . S
C1733 C1730 1.387 . S
C1734 C1735 1.387 . S
C1734 H1738 0.950 . S
C1734 C1743 1.390 . S
C1735 C1734 1.387 . S
C1735 C1737 1.387 . S
H1736 C1743 0.950 . S
C1737 C1735 1.387 . S
C1737 C1739 1.390 . S
C1737 H1741 0.950 . S
H1738 C1734 0.950 . S
C1739 C1737 1.390 . S
C1739 C1740 1.387 . S
C1739 H1742 0.950 . S
C1740 C1739 1.387 . S
C1740 C1743 1.387 . S
H1741 C1737 0.950 . S
H1742 C1739 0.950 . S
C1743 C1734 1.390 . S
C1743 H1736 0.950 . S
C1743 C1740 1.387 . S
C1744 C1745 1.387 . S
C1744 H1748 0.950 . S
C1744 C1753 1.390 . S
C1745 C1744 1.387 . S
C1745 C1747 1.387 . S
H1746 C1753 0.950 . S
C1747 C1745 1.387 . S
C1747 C1749 1.390 . S
C1747 H1751 0.950 . S
H1748 C1744 0.950 . S
C1749 C1747 1.390 . S
C1749 C1750 1.387 . S
C1749 H1752 0.950 . S
C1750 C1749 1.387 . S
C1750 C1753 1.387 . S
H1751 C1747 0.950 . S
H1752 C1749 0.950 . S
C1753 C1744 1.390 . S
C1753 H1746 0.950 . S
C1753 C1750 1.387 . S
C1754 C1755 1.387 . S
C1754 H1758 0.950 . S
C1754 C1763 1.390 . S
C1755 C1754 1.387 . S
C1755 C1757 1.387 . S
H1756 C1763 0.950 . S
C1757 C1755 1.387 . S
C1757 C1759 1.390 . S
C1757 H1761 0.950 . S
H1758 C1754 0.950 . S
C1759 C1757 1.390 . S
C1759 C1760 1.387 . S
C1759 H1762 0.950 . S
C1760 C1759 1.387 . S
C1760 C1763 1.387 . S
H1761 C1757 0.950 . S
H1762 C1759 0.950 . S
C1763 C1754 1.390 . S
C1763 H1756 0.950 . S
C1763 C1760 1.387 . S
C1764 C1765 1.387 . S
C1764 H1768 0.950 . S
C1764 C1773 1.390 . S
C1765 C1764 1.387 . S
C1765 C1767 1.387 . S
H1766 C1773 0.950 . S
C1767 C1765 1.387 . S
C1767 C1769 1.390 . S
C1767 H1771 0.950 . S
H1768 C1764 0.950 . S
C1769 C1767 1.390 . S
C1769 C1770 1.387 . S
C1769 H1772 0.950 . S
C1770 C1769 1.387 . S
C1770 C1773 1.387 . S
H1771 C1767 0.950 . S
H1772 C1769 0.950 . S
C1773 C1764 1.390 . S
C1773 H1766 0.950 . S
C1773 C1770 1.387 . S
C1774 C1775 1.387 . S
C1774 H1778 0.950 . S
C1774 C1783 1.390 . S
C1775 C1774 1.387 . S
C1775 C1777 1.387 . S
H1776 C1783 0.950 . S
C1777 C1775 1.387 . S
C1777 C1779 1.390 . S
C1777 H1781 0.950 . S
H1778 C1774 0.950 . S
C1779 C1777 1.390 . S
C1779 C1780 1.387 . S
C1779 H1782 0.950 . S
C1780 C1779 1.387 . S
C1780 C1783 1.387 . S
H1781 C1777 0.950 . S
H1782 C1779 0.950 . S
C1783 C1774 1.390 . S
C1783 H1776 0.950 . S
C1783 C1780 1.387 . S
C1784 C1785 1.387 . S
C1784 H1788 0.950 . S
C1784 C1793 1.390 . S
C1785 C1784 1.387 . S
C1785 C1787 1.387 . S
H1786 C1793 0.950 . S
C1787 C1785 1.387 . S
C1787 C1789 1.390 . S
C1787 H1791 0.950 . S
H1788 C1784 0.950 . S
C1789 C1787 1.390 . S
C1789 C1790 1.387 . S
C1789 H1792 0.950 . S
C1790 C1789 1.387 . S
C1790 C1793 1.387 . S
H1791 C1787 0.950 . S
H1792 C1789 0.950 . S
C1793 C1784 1.390 . S
C1793 H1786 0.950 . S
C1793 C1790 1.387 . S
C1794 C1795 1.387 . S
C1794 H1798 0.950 . S
C1794 C1803 1.390 . S
C1795 C1794 1.387 . S
C1795 C1797 1.387 . S
H1796 C1803 0.950 . S
C1797 C1795 1.387 . S
C1797 C1799 1.390 . S
C1797 H1801 0.950 . S
H1798 C1794 0.950 . S
C1799 C1797 1.390 . S
C1799 C1800 1.387 . S
C1799 H1802 0.950 . S
C1800 C1799 1.387 . S
C1800 C1803 1.387 . S
H1801 C1797 0.950 . S
H1802 C1799 0.950 . S
C1803 C1794 1.390 . S
C1803 H1796 0.950 . S
C1803 C1800 1.387 . S
C1804 C1805 1.387 . S
C1804 H1808 0.950 . S
C1804 C1813 1.390 . S
C1805 C1804 1.387 . S
C1805 C1807 1.387 . S
H1806 C1813 0.950 . S
C1807 C1805 1.387 . S
C1807 C1809 1.390 . S
C1807 H1811 0.950 . S
H1808 C1804 0.950 . S
C1809 C1807 1.390 . S
C1809 C1810 1.387 . S
C1809 H1812 0.950 . S
C1810 C1809 1.387 . S
C1810 C1813 1.387 . S
H1811 C1807 0.950 . S
H1812 C1809 0.950 . S
C1813 C1804 1.390 . S
C1813 H1806 0.950 . S
C1813 C1810 1.387 . S
C1814 C1815 1.387 . S
C1814 H1818 0.950 . S
C1814 C1823 1.390 . S
C1815 C1814 1.387 . S
C1815 C1817 1.387 . S
H1816 C1823 0.950 . S
C1817 C1815 1.387 . S
C1817 C1819 1.390 . S
C1817 H1821 0.950 . S
H1818 C1814 0.950 . S
C1819 C1817 1.390 . S
C1819 C1820 1.387 . S
C1819 H1822 0.950 . S
C1820 C1819 1.387 . S
C1820 C1823 1.387 . S
H1821 C1817 0.950 . S
H1822 C1819 0.950 . S
C1823 C1814 1.390 . S
C1823 H1816 0.950 . S
C1823 C1820 1.387 . S
C1824 C1825 1.387 . S
C1824 H1828 0.950 . S
C1824 C1833 1.390 . S
C1825 C1824 1.387 . S
C1825 C1827 1.387 . S
H1826 C1833 0.950 . S
C1827 C1825 1.387 . S
C1827 C1829 1.390 . S
C1827 H1831 0.950 . S
H1828 C1824 0.950 . S
C1829 C1827 1.390 . S
C1829 C1830 1.387 . S
C1829 H1832 0.950 . S
C1830 C1829 1.387 . S
C1830 C1833 1.387 . S
H1831 C1827 0.950 . S
H1832 C1829 0.950 . S
C1833 C1824 1.390 . S
C1833 H1826 0.950 . S
C1833 C1830 1.387 . S
C1834 C1835 1.387 . S
C1834 H1838 0.950 . S
C1834 C1843 1.390 . S
C1835 C1834 1.387 . S
C1835 C1837 1.387 . S
H1836 C1843 0.950 . S
C1837 C1835 1.387 . S
C1837 C1839 1.390 . S
C1837 H1841 0.950 . S
H1838 C1834 0.950 . S
C1839 C1837 1.390 . S
C1839 C1840 1.387 . S
C1839 H1842 0.950 . S
C1840 C1839 1.387 . S
C1840 C1843 1.387 . S
H1841 C1837 0.950 . S
H1842 C1839 0.950 . S
C1843 C1834 1.390 . S
C1843 H1836 0.950 . S
C1843 C1840 1.387 . S
C1844 C1845 1.387 . S
C1844 H1848 0.950 . S
C1844 C1853 1.390 . S
C1845 C1844 1.387 . S
C1845 C1847 1.387 . S
H1846 C1853 0.950 . S
C1847 C1845 1.387 . S
C1847 C1849 1.390 . S
C1847 H1851 0.950 . S
H1848 C1844 0.950 . S
C1849 C1847 1.390 . S
C1849 C1850 1.387 . S
C1849 H1852 0.950 . S
C1850 C1849 1.387 . S
C1850 C1853 1.387 . S
H1851 C1847 0.950 . S
H1852 C1849 0.950 . S
C1853 C1844 1.390 . S
C1853 H1846 0.950 . S
C1853 C1850 1.387 . S
C1854 C1855 1.387 . S
C1854 H1858 0.950 . S
C1854 C1863 1.390 . S
C1855 C1854 1.387 . S
C1855 C1857 1.387 . S
H1856 C1863 0.950 . S
C1857 C1855 1.387 . S
C1857 C1859 1.390 . S
C1857 H1861 0.950 . S
H1858 C1854 0.950 . S
C1859 C1857 1.390 . S
C1859 C1860 1.387 . S
C1859 H1862 0.950 . S
C1860 C1859 1.387 . S
C1860 C1863 1.387 . S
H1861 C1857 0.950 . S
H1862 C1859 0.950 . S
C1863 C1854 1.390 . S
C1863 H1856 0.950 . S
C1863 C1860 1.387 . S
C1864 C1865 1.387 . S
C1864 H1868 0.950 . S
C1864 C1873 1.390 . S
C1865 C1864 1.387 . S
C1865 C1867 1.387 . S
H1866 C1873 0.950 . S
C1867 C1865 1.387 . S
C1867 C1869 1.390 . S
C1867 H1871 0.950 . S
H1868 C1864 0.950 . S
C1869 C1867 1.390 . S
C1869 C1870 1.387 . S
C1869 H1872 0.950 . S
C1870 C1869 1.387 . S
C1870 C1873 1.387 . S
H1871 C1867 0.950 . S
H1872 C1869 0.950 . S
C1873 C1864 1.390 . S
C1873 H1866 0.950 . S
C1873 C1870 1.387 . S
C1874 C1875 1.387 . S
C1874 H1878 0.950 . S
C1874 C1883 1.390 . S
C1875 C1874 1.387 . S
C1875 C1877 1.387 . S
H1876 C1883 0.950 . S
C1877 C1875 1.387 . S
C1877 C1879 1.390 . S
C1877 H1881 0.950 . S
H1878 C1874 0.950 . S
C1879 C1877 1.390 . S
C1879 C1880 1.387 . S
C1879 H1882 0.950 . S
C1880 C1879 1.387 . S
C1880 C1883 1.387 . S
H1881 C1877 0.950 . S
H1882 C1879 0.950 . S
C1883 C1874 1.390 . S
C1883 H1876 0.950 . S
C1883 C1880 1.387 . S
C1884 C1885 1.387 . S
C1884 H1888 0.950 . S
C1884 C1893 1.390 . S
C1885 C1884 1.387 . S
C1885 C1887 1.387 . S
H1886 C1893 0.950 . S
C1887 C1885 1.387 . S
C1887 C1889 1.390 . S
C1887 H1891 0.950 . S
H1888 C1884 0.950 . S
C1889 C1887 1.390 . S
C1889 C1890 1.387 . S
C1889 H1892 0.950 . S
C1890 C1889 1.387 . S
C1890 C1893 1.387 . S
H1891 C1887 0.950 . S
H1892 C1889 0.950 . S
C1893 C1884 1.390 . S
C1893 H1886 0.950 . S
C1893 C1890 1.387 . S
C1894 C1895 1.387 . S
C1894 H1898 0.950 . S
C1894 C1903 1.390 . S
C1895 C1894 1.387 . S
C1895 C1897 1.387 . S
H1896 C1903 0.950 . S
C1897 C1895 1.387 . S
C1897 C1899 1.390 . S
C1897 H1901 0.950 . S
H1898 C1894 0.950 . S
C1899 C1897 1.390 . S
C1899 C1900 1.387 . S
C1899 H1902 0.950 . S
C1900 C1899 1.387 . S
C1900 C1903 1.387 . S
H1901 C1897 0.950 . S
H1902 C1899 0.950 . S
C1903 C1894 1.390 . S
C1903 H1896 0.950 . S
C1903 C1900 1.387 . S
C1904 C1905 1.387 . S
C1904 H1908 0.950 . S
C1904 C1913 1.390 . S
C1905 C1904 1.387 . S
C1905 C1907 1.387 . S
H1906 C1913 0.950 . S
C1907 C1905 1.387 . S
C1907 C1909 1.390 . S
C1907 H1911 0.950 . S
H1908 C1904 0.950 . S
C1909 C1907 1.390 . S
C1909 C1910 1.387 . S
C1909 H1912 0.950 . S
C1910 C1909 1.387 . S
C1910 C1913 1.387 . S
H1911 C1907 0.950 . S
H1912 C1909 0.950 . S
C1913 C1904 1.390 . S
C1913 H1906 0.950 . S
C1913 C1910 1.387 . S
C1914 C1915 1.387 . S
C1914 H1918 0.950 . S
C1914 C1923 1.390 . S
C1915 C1914 1.387 . S
C1915 C1917 1.387 . S
H1916 C1923 0.950 . S
C1917 C1915 1.387 . S
C1917 C1919 1.390 . S
C1917 H1921 0.950 . S
H1918 C1914 0.950 . S
C1919 C1917 1.390 . S
C1919 C1920 1.387 . S
C1919 H1922 0.950 . S
C1920 C1919 1.387 . S
C1920 C1923 1.387 . S
H1921 C1917 0.950 . S
H1922 C1919 0.950 . S
C1923 C1914 1.390 . S
C1923 H1916 0.950 . S
C1923 C1920 1.387 . S
C1924 C1925 1.387 . S
C1924 H1928 0.950 . S
C1924 C1933 1.390 . S
C1925 C1924 1.387 . S
C1925 C1927 1.387 . S
H1926 C1933 0.950 . S
C1927 C1925 1.387 . S
C1927 C1929 1.390 . S
C1927 H1931 0.950 . S
H1928 C1924 0.950 . S
C1929 C1927 1.390 . S
C1929 C1930 1.387 . S
C1929 H1932 0.950 . S
C1930 C1929 1.387 . S
C1930 C1933 1.387 . S
H1931 C1927 0.950 . S
H1932 C1929 0.950 . S
C1933 C1924 1.390 . S
C1933 H1926 0.950 . S
C1933 C1930 1.387 . S
C1934 C1935 1.387 . S
C1934 H1938 0.950 . S
C1934 C1943 1.390 . S
C1935 C1934 1.387 . S
C1935 C1937 1.387 . S
H1936 C1943 0.950 . S
C1937 C1935 1.387 . S
C1937 C1939 1.390 . S
C1937 H1941 0.950 . S
H1938 C1934 0.950 . S
C1939 C1937 1.390 . S
C1939 C1940 1.387 . S
C1939 H1942 0.950 . S
C1940 C1939 1.387 . S
C1940 C1943 1.387 . S
H1941 C1937 0.950 . S
H1942 C1939 0.950 . S
C1943 C1934 1.390 . S
C1943 H1936 0.950 . S
C1943 C1940 1.387 . S
C1944 C1945 1.387 . S
C1944 H1948 0.950 . S
C1944 C1953 1.390 . S
C1945 C1944 1.387 . S
C1945 C1947 1.387 . S
H1946 C1953 0.950 . S
C1947 C1945 1.387 . S
C1947 C1949 1.390 . S
C1947 H1951 0.950 . S
H1948 C1944 0.950 . S
C1949 C1947 1.390 . S
C1949 C1950 1.387 . S
C1949 H1952 0.950 . S
C1950 C1949 1.387 . S
C1950 C1953 1.387 . S
H1951 C1947 0.950 . S
H1952 C1949 0.950 . S
C1953 C1944 1.390 . S
C1953 H1946 0.950 . S
C1953 C1950 1.387 . S
C1954 C1955 1.387 . S
C1954 H1958 0.950 . S
C1954 C1963 1.390 . S
C1955 C1954 1.387 . S
C1955 C1957 1.387 . S
H1956 C1963 0.950 . S
C1957 C1955 1.387 . S
C1957 C1959 1.390 . S
C1957 H1961 0.950 . S
H1958 C1954 0.950 . S
C1959 C1957 1.390 . S
C1959 C1960 1.387 . S
C1959 H1962 0.950 . S
C1960 C1959 1.387 . S
C1960 C1963 1.387 . S
H1961 C1957 0.950 . S
H1962 C1959 0.950 . S
C1963 C1954 1.390 . S
C1963 H1956 0.950 . S
C1963 C1960 1.387 . S
C1964 C1965 1.387 . S
C1964 H1968 0.950 . S
C1964 C1973 1.390 . S
C1965 C1964 1.387 . S
C1965 C1967 1.387 . S
H1966 C1973 0.950 . S
C1967 C1965 1.387 . S
C1967 C1969 1.390 . S
C1967 H1971 0.950 . S
H1968 C1964 0.950 . S
C1969 C1967 1.390 . S
C1969 C1970 1.387 . S
C1969 H1972 0.950 . S
C1970 C1969 1.387 . S
C1970 C1973 1.387 . S
H1971 C1967 0.950 . S
H1972 C1969 0.950 . S
C1973 C1964 1.390 . S
C1973 H1966 0.950 . S
C1973 C1970 1.387 . S
C1974 C1975 1.387 . S
C1974 H1978 0.950 . S
C1974 C1983 1.390 . S
C1975 C1974 1.387 . S
C1975 C1977 1.387 . S
H1976 C1983 0.950 . S
C1977 C1975 1.387 . S
C1977 C1979 1.390 . S
C1977 H1981 0.950 . S
H1978 C1974 0.950 . S
C1979 C1977 1.390 . S
C1979 C1980 1.387 . S
C1979 H1982 0.950 . S
C1980 C1979 1.387 . S
C1980 C1983 1.387 . S
H1981 C1977 0.950 . S
H1982 C1979 0.950 . S
C1983 C1974 1.390 . S
C1983 H1976 0.950 . S
C1983 C1980 1.387 . S
C1984 C1985 1.387 . S
C1984 H1988 0.950 . S
C1984 C1993 1.390 . S
C1985 C1984 1.387 . S
C1985 C1987 1.387 . S
H1986 C1993 0.950 . S
C1987 C1985 1.387 . S
C1987 C1989 1.390 . S
C1987 H1991 0.950 . S
H1988 C1984 0.950 . S
C1989 C1987 1.390 . S
C1989 C1990 1.387 . S
C1989 H1992 0.950 . S
C1990 C1989 1.387 . S
C1990 C1993 1.387 . S
H1991 C1987 0.950 . S
H1992 C1989 0.950 . S
C1993 C1984 1.390 . S
C1993 H1986 0.950 . S
C1993 C1990 1.387 . S
C1994 C1995 1.387 . S
C1994 H1998 0.950 . S
C1994 C2003 1.390 . S
C1995 C1994 1.387 . S
C1995 C1997 1.387 . S
H1996 C2003 0.950 . S
C1997 C1995 1.387 . S
C1997 C1999 1.390 . S
C1997 H2001 0.950 . S
H1998 C1994 0.950 . S
C1999 C1997 1.390 . S
C1999 C2000 1.387 . S
C1999 H2002 0.950 . S
C2000 C1999 1.387 . S
C2000 C2003 1.387 . S
H2001 C1997 0.950 . S
H2002 C1999 0.950 . S
C2003 C1994 1.390 . S
C2003 H1996 0.950 . S
C2003 C2000 1.387 . S
C2004 C2005 1.387 . S
C2004 H2008 0.950 . S
C2004 C2013 1.390 . S
C2005 C2004 1.387 . S
C2005 C2007 1.387 . S
H2006 C2013 0.950 . S
C2007 C2005 1.387 . S
C2007 C2009 1.390 . S
C2007 H2011 0.950 . S
H2008 C2004 0.950 . S
C2009 C2007 1.390 . S
C2009 C2010 1.387 . S
C2009 H2012 0.950 . S
C2010 C2009 1.387 . S
C2010 C2013 1.387 . S
H2011 C2007 0.950 . S
H2012 C2009 0.950 . S
C2013 C2004 1.390 . S
C2013 H2006 0.950 . S
C2013 C2010 1.387 . S
C2014 C2015 1.387 . S
C2014 H2018 0.950 . S
C2014 C2023 1.390 . S
C2015 C2014 1.387 . S
C2015 C2017 1.387 . S
H2016 C2023 0.950 . S
C2017 C2015 1.387 . S
C2017 C2019 1.390 . S
C2017 H2021 0.950 . S
H2018 C2014 0.950 . S
C2019 C2017 1.390 . S
C2019 C2020 1.387 . S
C2019 H2022 0.950 . S
C2020 C2019 1.387 . S
C2020 C2023 1.387 . S
H2021 C2017 0.950 . S
H2022 C2019 0.950 . S
C2023 C2014 1.390 . S
C2023 H2016 0.950 . S
C2023 C2020 1.387 . S
C2024 C2025 1.387 . S
C2024 H2028 0.950 . S
C2024 C2033 1.390 . S
C2025 C2024 1.387 . S
C2025 C2027 1.387 . S
H2026 C2033 0.950 . S
C2027 C2025 1.387 . S
C2027 C2029 1.390 . S
C2027 H2031 0.950 . S
H2028 C2024 0.950 . S
C2029 C2027 1.390 . S
C2029 C2030 1.387 . S
C2029 H2032 0.950 . S
C2030 C2029 1.387 . S
C2030 C2033 1.387 . S
H2031 C2027 0.950 . S
H2032 C2029 0.950 . S
C2033 C2024 1.390 . S
C2033 H2026 0.950 . S
C2033 C2030 1.387 . S
C2034 C2035 1.387 . S
C2034 H2038 0.950 . S
C2034 C2043 1.390 . S
C2035 C2034 1.387 . S
C2035 C2037 1.387 . S
H2036 C2043 0.950 . S
C2037 C2035 1.387 . S
C2037 C2039 1.390 . S
C2037 H2041 0.950 . S
H2038 C2034 0.950 . S
C2039 C2037 1.390 . S
C2039 C2040 1.387 . S
C2039 H2042 0.950 . S
C2040 C2039 1.387 . S
C2040 C2043 1.387 . S
H2041 C2037 0.950 . S
H2042 C2039 0.950 . S
C2043 C2034 1.390 . S
C2043 H2036 0.950 . S
C2043 C2040 1.387 . S
C2044 C2045 1.387 . S
C2044 H2048 0.950 . S
C2044 C2053 1.390 . S
C2045 C2044 1.387 . S
C2045 C2047 1.387 . S
H2046 C2053 0.950 . S
C2047 C2045 1.387 . S
C2047 C2049 1.390 . S
C2047 H2051 0.950 . S
H2048 C2044 0.950 . S
C2049 C2047 1.390 . S
C2049 C2050 1.387 . S
C2049 H2052 0.950 . S
C2050 C2049 1.387 . S
C2050 C2053 1.387 . S
H2051 C2047 0.950 . S
H2052 C2049 0.950 . S
C2053 C2044 1.390 . S
C2053 H2046 0.950 . S
C2053 C2050 1.387 . S
C2054 C2055 1.387 . S
C2054 H2058 0.950 . S
C2054 C2063 1.390 . S
C2055 C2054 1.387 . S
C2055 C2057 1.387 . S
H2056 C2063 0.950 . S
C2057 C2055 1.387 . S
C2057 C2059 1.390 . S
C2057 H2061 0.950 . S
H2058 C2054 0.950 . S
C2059 C2057 1.390 . S
C2059 C2060 1.387 . S
C2059 H2062 0.950 . S
C2060 C2059 1.387 . S
C2060 C2063 1.387 . S
H2061 C2057 0.950 . S
H2062 C2059 0.950 . S
C2063 C2054 1.390 . S
C2063 H2056 0.950 . S
C2063 C2060 1.387 . S
C2064 C2065 1.387 . S
C2064 H2068 0.950 . S
C2064 C2073 1.390 . S
C2065 C2064 1.387 . S
C2065 C2067 1.387 . S
H2066 C2073 0.950 . S
C2067 C2065 1.387 . S
C2067 C2069 1.390 . S
C2067 H2071 0.950 . S
H2068 C2064 0.950 . S
C2069 C2067 1.390 . S
C2069 C2070 1.387 . S
C2069 H2072 0.950 . S
C2070 C2069 1.387 . S
C2070 C2073 1.387 . S
H2071 C2067 0.950 . S
H2072 C2069 0.950 . S
C2073 C2064 1.390 . S
C2073 H2066 0.950 . S
C2073 C2070 1.387 . S
C2074 C2075 1.387 . S
C2074 H2078 0.950 . S
C2074 C2083 1.390 . S
C2075 C2074 1.387 . S
C2075 C2077 1.387 . S
H2076 C2083 0.950 . S
C2077 C2075 1.387 . S
C2077 C2079 1.390 . S
C2077 H2081 0.950 . S
H2078 C2074 0.950 . S
C2079 C2077 1.390 . S
C2079 C2080 1.387 . S
C2079 H2082 0.950 . S
C2080 C2079 1.387 . S
C2080 C2083 1.387 . S
H2081 C2077 0.950 . S
H2082 C2079 0.950 . S
C2083 C2074 1.390 . S
C2083 H2076 0.950 . S
C2083 C2080 1.387 . S
C2084 C2085 1.387 . S
C2084 H2088 0.950 . S
C2084 C2093 1.390 . S
C2085 C2084 1.387 . S
C2085 C2087 1.387 . S
H2086 C2093 0.950 . S
C2087 C2085 1.387 . S
C2087 C2089 1.390 . S
C2087 H2091 0.950 . S
H2088 C2084 0.950 . S
C2089 C2087 1.390 . S
C2089 C2090 1.387 . S
C2089 H2092 0.950 . S
C2090 C2089 1.387 . S
C2090 C2093 1.387 . S
H2091 C2087 0.950 . S
H2092 C2089 0.950 . S
C2093 C2084 1.390 . S
C2093 H2086 0.950 . S
C2093 C2090 1.387 . S
C2094 C2095 1.387 . S
C2094 H2098 0.950 . S
C2094 C2103 1.390 . S
C2095 C2094 1.387 . S
C2095 C2097 1.387 . S
H2096 C2103 0.950 . S
C2097 C2095 1.387 . S
C2097 C2099 1.390 . S
C2097 H2101 0.950 . S
H2098 C2094 0.950 . S
C2099 C2097 1.390 . S
C2099 C2100 1.387 . S
C2099 H2102 0.950 . S
C2100 C2099 1.387 . S
C2100 C2103 1.387 . S
H2101 C2097 0.950 . S
H2102 C2099 0.950 . S
C2103 C2094 1.390 . S
C2103 H2096 0.950 . S
C2103 C2100 1.387 . S
C2104 C2105 1.387 . S
C2104 H2108 0.950 . S
C2104 C2113 1.390 . S
C2105 C2104 1.387 . S
C2105 C2107 1.387 . S
H2106 C2113 0.950 . S
C2107 C2105 1.387 . S
C2107 C2109 1.390 . S
C2107 H2111 0.950 . S
H2108 C2104 0.950 . S
C2109 C2107 1.390 . S
C2109 C2110 1.387 . S
C2109 H2112 0.950 . S
C2110 C2109 1.387 . S
C2110 C2113 1.387 . S
H2111 C2107 0.950 . S
H2112 C2109 0.950 . S
C2113 C2104 1.390 . S
C2113 H2106 0.950 . S
C2113 C2110 1.387 . S
C2114 C2115 1.387 . S
C2114 H2118 0.950 . S
C2114 C2123 1.390 . S
C2115 C2114 1.387 . S
C2115 C2117 1.387 . S
H2116 C2123 0.950 . S
C2117 C2115 1.387 . S
C2117 C2119 1.390 . S
C2117 H2121 0.950 . S
H2118 C2114 0.950 . S
C2119 C2117 1.390 . S
C2119 C2120 1.387 . S
C2119 H2122 0.950 . S
C2120 C2119 1.387 . S
C2120 C2123 1.387 . S
H2121 C2117 0.950 . S
H2122 C2119 0.950 . S
C2123 C2114 1.390 . S
C2123 H2116 0.950 . S
C2123 C2120 1.387 . S
C2124 C2125 1.387 . S
C2124 H2128 0.950 . S
C2124 C2133 1.390 . S
C2125 C2124 1.387 . S
C2125 C2127 1.387 . S
H2126 C2133 0.950 . S
C2127 C2125 1.387 . S
C2127 C2129 1.390 . S
C2127 H2131 0.950 . S
H2128 C2124 0.950 . S
C2129 C2127 1.390 . S
C2129 C2130 1.387 . S
C2129 H2132 0.950 . S
C2130 C2129 1.387 . S
C2130 C2133 1.387 . S
H2131 C2127 0.950 . S
H2132 C2129 0.950 . S
C2133 C2124 1.390 . S
C2133 H2126 0.950 . S
C2133 C2130 1.387 . S
C2134 C2135 1.387 . S
C2134 H2138 0.950 . S
C2134 C2143 1.390 . S
C2135 C2134 1.387 . S
C2135 C2137 1.387 . S
H2136 C2143 0.950 . S
C2137 C2135 1.387 . S
C2137 C2139 1.390 . S
C2137 H2141 0.950 . S
H2138 C2134 0.950 . S
C2139 C2137 1.390 . S
C2139 C2140 1.387 . S
C2139 H2142 0.950 . S
C2140 C2139 1.387 . S
C2140 C2143 1.387 . S
H2141 C2137 0.950 . S
H2142 C2139 0.950 . S
C2143 C2134 1.390 . S
C2143 H2136 0.950 . S
C2143 C2140 1.387 . S
C2144 C2145 1.387 . S
C2144 H2148 0.950 . S
C2144 C2153 1.390 . S
C2145 C2144 1.387 . S
C2145 C2147 1.387 . S
H2146 C2153 0.950 . S
C2147 C2145 1.387 . S
C2147 C2149 1.390 . S
C2147 H2151 0.950 . S
H2148 C2144 0.950 . S
C2149 C2147 1.390 . S
C2149 C2150 1.387 . S
C2149 H2152 0.950 . S
C2150 C2149 1.387 . S
C2150 C2153 1.387 . S
H2151 C2147 0.950 . S
H2152 C2149 0.950 . S
C2153 C2144 1.390 . S
C2153 H2146 0.950 . S
C2153 C2150 1.387 . S
C2154 C2155 1.387 . S
C2154 H2158 0.950 . S
C2154 C2163 1.390 . S
C2155 C2154 1.387 . S
C2155 C2157 1.387 . S
H2156 C2163 0.950 . S
C2157 C2155 1.387 . S
C2157 C2159 1.390 . S
C2157 H2161 0.950 . S
H2158 C2154 0.950 . S
C2159 C2157 1.390 . S
C2159 C2160 1.387 . S
C2159 H2162 0.950 . S
C2160 C2159 1.387 . S
C2160 C2163 1.387 . S
H2161 C2157 0.950 . S
H2162 C2159 0.950 . S
C2163 C2154 1.390 . S
C2163 H2156 0.950 . S
C2163 C2160 1.387 . S
C2164 C2165 1.387 . S
C2164 H2168 0.950 . S
C2164 C2173 1.390 . S
C2165 C2164 1.387 . S
C2165 C2167 1.387 . S
H2166 C2173 0.950 . S
C2167 C2165 1.387 . S
C2167 C2169 1.390 . S
C2167 H2171 0.950 . S
H2168 C2164 0.950 . S
C2169 C2167 1.390 . S
C2169 C2170 1.387 . S
C2169 H2172 0.950 . S
C2170 C2169 1.387 . S
C2170 C2173 1.387 . S
H2171 C2167 0.950 . S
H2172 C2169 0.950 . S
C2173 C2164 1.390 . S
C2173 H2166 0.950 . S
C2173 C2170 1.387 . S
C2174 C2175 1.387 . S
C2174 H2178 0.950 . S
C2174 C2183 1.390 . S
C2175 C2174 1.387 . S
C2175 C2177 1.387 . S
H2176 C2183 0.950 . S
C2177 C2175 1.387 . S
C2177 C2179 1.390 . S
C2177 H2181 0.950 . S
H2178 C2174 0.950 . S
C2179 C2177 1.390 . S
C2179 C2180 1.387 . S
C2179 H2182 0.950 . S
C2180 C2179 1.387 . S
C2180 C2183 1.387 . S
H2181 C2177 0.950 . S
H2182 C2179 0.950 . S
C2183 C2174 1.390 . S
C2183 H2176 0.950 . S
C2183 C2180 1.387 . S
C2184 C2185 1.387 . S
C2184 H2188 0.950 . S
C2184 C2193 1.390 . S
C2185 C2184 1.387 . S
C2185 C2187 1.387 . S
H2186 C2193 0.950 . S
C2187 C2185 1.387 . S
C2187 C2189 1.390 . S
C2187 H2191 0.950 . S
H2188 C2184 0.950 . S
C2189 C2187 1.390 . S
C2189 C2190 1.387 . S
C2189 H2192 0.950 . S
C2190 C2189 1.387 . S
C2190 C2193 1.387 . S
H2191 C2187 0.950 . S
H2192 C2189 0.950 . S
C2193 C2184 1.390 . S
C2193 H2186 0.950 . S
C2193 C2190 1.387 . S
C2194 C2195 1.387 . S
C2194 H2198 0.950 . S
C2194 C2203 1.390 . S
C2195 C2194 1.387 . S
C2195 C2197 1.387 . S
H2196 C2203 0.950 . S
C2197 C2195 1.387 . S
C2197 C2199 1.390 . S
C2197 H2201 0.950 . S
H2198 C2194 0.950 . S
C2199 C2197 1.390 . S
C2199 C2200 1.387 . S
C2199 H2202 0.950 . S
C2200 C2199 1.387 . S
C2200 C2203 1.387 . S
H2201 C2197 0.950 . S
H2202 C2199 0.950 . S
C2203 C2194 1.390 . S
C2203 H2196 0.950 . S
C2203 C2200 1.387 . S
C2204 C2205 1.387 . S
C2204 H2208 0.950 . S
C2204 C2213 1.390 . S
C2205 C2204 1.387 . S
C2205 C2207 1.387 . S
H2206 C2213 0.950 . S
C2207 C2205 1.387 . S
C2207 C2209 1.390 . S
C2207 H2211 0.950 . S
H2208 C2204 0.950 . S
C2209 C2207 1.390 . S
C2209 C2210 1.387 . S
C2209 H2212 0.950 . S
C2210 C2209 1.387 . S
C2210 C2213 1.387 . S
H2211 C2207 0.950 . S
H2212 C2209 0.950 . S
C2213 C2204 1.390 . S
C2213 H2206 0.950 . S
C2213 C2210 1.387 . S
C2214 C2215 1.387 . S
C2214 H2218 0.950 . S
C2214 C2223 1.390 . S
C2215 C2214 1.387 . S
C2215 C2217 1.387 . S
H2216 C2223 0.950 . S
C2217 C2215 1.387 . S
C2217 C2219 1.390 . S
C2217 H2221 0.950 . S
H2218 C2214 0.950 . S
C2219 C2217 1.390 . S
C2219 C2220 1.387 . S
C2219 H2222 0.950 . S
C2220 C2219 1.387 . S
C2220 C2223 1.387 . S
H2221 C2217 0.950 . S
H2222 C2219 0.950 . S
C2223 C2214 1.390 . S
C2223 H2216 0.950 . S
C2223 C2220 1.387 . S
C2224 C2225 1.387 . S
C2224 H2228 0.950 . S
C2224 C2233 1.390 . S
C2225 C2224 1.387 . S
C2225 C2227 1.387 . S
H2226 C2233 0.950 . S
C2227 C2225 1.387 . S
C2227 C2229 1.390 . S
C2227 H2231 0.950 . S
H2228 C2224 0.950 . S
C2229 C2227 1.390 . S
C2229 C2230 1.387 . S
C2229 H2232 0.950 . S
C2230 C2229 1.387 . S
C2230 C2233 1.387 . S
H2231 C2227 0.950 . S
H2232 C2229 0.950 . S
C2233 C2224 1.390 . S
C2233 H2226 0.950 . S
C2233 C2230 1.387 . S
C2234 C2235 1.387 . S
C2234 H2238 0.950 . S
C2234 C2243 1.390 . S
C2235 C2234 1.387 . S
C2235 C2237 1.387 . S
H2236 C2243 0.950 . S
C2237 C2235 1.387 . S
C2237 C2239 1.390 . S
C2237 H2241 0.950 . S
H2238 C2234 0.950 . S
C2239 C2237 1.390 . S
C2239 C2240 1.387 . S
C2239 H2242 0.950 . S
C2240 C2239 1.387 . S
C2240 C2243 1.387 . S
H2241 C2237 0.950 . S
H2242 C2239 0.950 . S
C2243 C2234 1.390 . S
C2243 H2236 0.950 . S
C2243 C2240 1.387 . S
C2244 C2245 1.387 . S
C2244 H2248 0.950 . S
C2244 C2253 1.390 . S
C2245 C2244 1.387 . S
C2245 C2247 1.387 . S
H2246 C2253 0.950 . S
C2247 C2245 1.387 . S
C2247 C2249 1.390 . S
C2247 H2251 0.950 . S
H2248 C2244 0.950 . S
C2249 C2247 1.390 . S
C2249 C2250 1.387 . S
C2249 H2252 0.950 . S
C2250 C2249 1.387 . S
C2250 C2253 1.387 . S
H2251 C2247 0.950 . S
H2252 C2249 0.950 . S
C2253 C2244 1.390 . S
C2253 H2246 0.950 . S
C2253 C2250 1.387 . S
C2254 C2255 1.387 . S
C2254 H2258 0.950 . S
C2254 C2263 1.390 . S
C2255 C2254 1.387 . S
C2255 C2257 1.387 . S
H2256 C2263 0.950 . S
C2257 C2255 1.387 . S
C2257 C2259 1.390 . S
C2257 H2261 0.950 . S
H2258 C2254 0.950 . S
C2259 C2257 1.390 . S
C2259 C2260 1.387 . S
C2259 H2262 0.950 . S
C2260 C2259 1.387 . S
C2260 C2263 1.387 . S
H2261 C2257 0.950 . S
H2262 C2259 0.950 . S
C2263 C2254 1.390 . S
C2263 H2256 0.950 . S
C2263 C2260 1.387 . S
C2264 C2265 1.387 . S
C2264 H2268 0.950 . S
C2264 C2273 1.390 . S
C2265 C2264 1.387 . S
C2265 C2267 1.387 . S
H2266 C2273 0.950 . S
C2267 C2265 1.387 . S
C2267 C2269 1.390 . S
C2267 H2271 0.950 . S
H2268 C2264 0.950 . S
C2269 C2267 1.390 . S
C2269 C2270 1.387 . S
C2269 H2272 0.950 . S
C2270 C2269 1.387 . S
C2270 C2273 1.387 . S
H2271 C2267 0.950 . S
H2272 C2269 0.950 . S
C2273 C2264 1.390 . S
C2273 H2266 0.950 . S
C2273 C2270 1.387 . S
C2274 C2275 1.387 . S
C2274 H2278 0.950 . S
C2274 C2283 1.390 . S
C2275 C2274 1.387 . S
C2275 C2277 1.387 . S
H2276 C2283 0.950 . S
C2277 C2275 1.387 . S
C2277 C2279 1.390 . S
C2277 H2281 0.950 . S
H2278 C2274 0.950 . S
C2279 C2277 1.390 . S
C2279 C2280 1.387 . S
C2279 H2282 0.950 . S
C2280 C2279 1.387 . S
C2280 C2283 1.387 . S
H2281 C2277 0.950 . S
H2282 C2279 0.950 . S
C2283 C2274 1.390 . S
C2283 H2276 0.950 . S
C2283 C2280 1.387 . S
C2284 C2285 1.387 . S
C2284 H2288 0.950 . S
C2284 C2293 1.390 . S
C2285 C2284 1.387 . S
C2285 C2287 1.387 . S
H2286 C2293 0.950 . S
C2287 C2285 1.387 . S
C2287 C2289 1.390 . S
C2287 H2291 0.950 . S
H2288 C2284 0.950 . S
C2289 C2287 1.390 . S
C2289 C2290 1.387 . S
C2289 H2292 0.950 . S
C2290 C2289 1.387 . S
C2290 C2293 1.387 . S
H2291 C2287 0.950 . S
H2292 C2289 0.950 . S
C2293 C2284 1.390 . S
C2293 H2286 0.950 . S
C2293 C2290 1.387 . S
C2294 C2295 1.387 . S
C2294 H2298 0.950 . S
C2294 C2303 1.390 . S
C2295 C2294 1.387 . S
C2295 C2297 1.387 . S
H2296 C2303 0.950 . S
C2297 C2295 1.387 . S
C2297 C2299 1.390 . S
C2297 H2301 0.950 . S
H2298 C2294 0.950 . S
C2299 C2297 1.390 . S
C2299 C2300 1.387 . S
C2299 H2302 0.950 . S
C2300 C2299 1.387 . S
C2300 C2303 1.387 . S
H2301 C2297 0.950 . S
H2302 C2299 0.950 . S
C2303 C2294 1.390 . S
C2303 H2296 0.950 . S
C2303 C2300 1.387 . S
C2304 C2305 1.387 . S
C2304 H2308 0.950 . S
C2304 C2313 1.390 . S
C2305 C2304 1.387 . S
C2305 C2307 1.387 . S
H2306 C2313 0.950 . S
C2307 C2305 1.387 . S
C2307 C2309 1.390 . S
C2307 H2311 0.950 . S
H2308 C2304 0.950 . S
C2309 C2307 1.390 . S
C2309 C2310 1.387 . S
C2309 H2312 0.950 . S
C2310 C2309 1.387 . S
C2310 C2313 1.387 . S
H2311 C2307 0.950 . S
H2312 C2309 0.950 . S
C2313 C2304 1.390 . S
C2313 H2306 0.950 . S
C2313 C2310 1.387 . S
C2314 C2315 1.387 . S
C2314 H2318 0.950 . S
C2314 C2323 1.390 . S
C2315 C2314 1.387 . S
C2315 C2317 1.387 . S
H2316 C2323 0.950 . S
C2317 C2315 1.387 . S
C2317 C2319 1.390 . S
C2317 H2321 0.950 . S
H2318 C2314 0.950 . S
C2319 C2317 1.390 . S
C2319 C2320 1.387 . S
C2319 H2322 0.950 . S
C2320 C2319 1.387 . S
C2320 C2323 1.387 . S
H2321 C2317 0.950 . S
H2322 C2319 0.950 . S
C2323 C2314 1.390 . S
C2323 H2316 0.950 . S
C2323 C2320 1.387 . S
C2324 C2325 1.387 . S
C2324 H2328 0.950 . S
C2324 C2333 1.390 . S
C2325 C2324 1.387 . S
C2325 C2327 1.387 . S
H2326 C2333 0.950 . S
C2327 C2325 1.387 . S
C2327 C2329 1.390 . S
C2327 H2331 0.950 . S
H2328 C2324 0.950 . S
C2329 C2327 1.390 . S
C2329 C2330 1.387 . S
C2329 H2332 0.950 . S
C2330 C2329 1.387 . S
C2330 C2333 1.387 . S
H2331 C2327 0.950 . S
H2332 C2329 0.950 . S
C2333 C2324 1.390 . S
C2333 H2326 0.950 . S
C2333 C2330 1.387 . S
C2334 C2335 1.387 . S
C2334 H2338 0.950 . S
C2334 C2343 1.390 . S
C2335 C2334 1.387 . S
C2335 C2337 1.387 . S
H2336 C2343 0.950 . S
C2337 C2335 1.387 . S
C2337 C2339 1.390 . S
C2337 H2341 0.950 . S
H2338 C2334 0.950 . S
C2339 C2337 1.390 . S
C2339 C2340 1.387 . S
C2339 H2342 0.950 . S
C2340 C2339 1.387 . S
C2340 C2343 1.387 . S
H2341 C2337 0.950 . S
H2342 C2339 0.950 . S
C2343 C2334 1.390 . S
C2343 H2336 0.950 . S
C2343 C2340 1.387 . S
C2344 C2345 1.387 . S
C2344 H2348 0.950 . S
C2344 C2353 1.390 . S
C2345 C2344 1.387 . S
C2345 C2347 1.387 . S
H2346 C2353 0.950 . S
C2347 C2345 1.387 . S
C2347 C2349 1.390 . S
C2347 H2351 0.950 . S
H2348 C2344 0.950 . S
C2349 C2347 1.390 . S
C2349 C2350 1.387 . S
C2349 H2352 0.950 . S
C2350 C2349 1.387 . S
C2350 C2353 1.387 . S
H2351 C2347 0.950 . S
H2352 C2349 0.950 . S
C2353 C2344 1.390 . S
C2353 H2346 0.950 . S
C2353 C2350 1.387 . S
C2354 C2355 1.387 . S
C2354 H2358 0.950 . S
C2354 C2363 1.390 . S
C2355 C2354 1.387 . S
C2355 C2357 1.387 . S
H2356 C2363 0.950 . S
C2357 C2355 1.387 . S
C2357 C2359 1.390 . S
C2357 H2361 0.950 . S
H2358 C2354 0.950 . S
C2359 C2357 1.390 . S
C2359 C2360 1.387 . S
C2359 H2362 0.950 . S
C2360 C2359 1.387 . S
C2360 C2363 1.387 . S
H2361 C2357 0.950 . S
H2362 C2359 0.950 . S
C2363 C2354 1.390 . S
C2363 H2356 0.950 . S
C2363 C2360 1.387 . S
C2364 C2365 1.387 . S
C2364 H2368 0.950 . S
C2364 C2373 1.390 . S
C2365 C2364 1.387 . S
C2365 C2367 1.387 . S
H2366 C2373 0.950 . S
C2367 C2365 1.387 . S
C2367 C2369 1.390 . S
C2367 H2371 0.950 . S
H2368 C2364 0.950 . S
C2369 C2367 1.390 . S
C2369 C2370 1.387 . S
C2369 H2372 0.950 . S
C2370 C2369 1.387 . S
C2370 C2373 1.387 . S
H2371 C2367 0.950 . S
H2372 C2369 0.950 . S
C2373 C2364 1.390 . S
C2373 H2366 0.950 . S
C2373 C2370 1.387 . S
C2374 C2375 1.387 . S
C2374 H2378 0.950 . S
C2374 C2383 1.390 . S
C2375 C2374 1.387 . S
C2375 C2377 1.387 . S
H2376 C2383 0.950 . S
C2377 C2375 1.387 . S
C2377 C2379 1.390 . S
C2377 H2381 0.950 . S
H2378 C2374 0.950 . S
C2379 C2377 1.390 . S
C2379 C2380 1.387 . S
C2379 H2382 0.950 . S
C2380 C2379 1.387 . S
C2380 C2383 1.387 . S
H2381 C2377 0.950 . S
H2382 C2379 0.950 . S
C2383 C2374 1.390 . S
C2383 H2376 0.950 . S
C2383 C2380 1.387 . S
C2384 C2385 1.387 . S
C2384 H2388 0.950 . S
C2384 C2393 1.390 . S
C2385 C2384 1.387 . S
C2385 C2387 1.387 . S
H2386 C2393 0.950 . S
C2387 C2385 1.387 . S
C2387 C2389 1.390 . S
C2387 H2391 0.950 . S
H2388 C2384 0.950 . S
C2389 C2387 1.390 . S
C2389 C2390 1.387 . S
C2389 H2392 0.950 . S
C2390 C2389 1.387 . S
C2390 C2393 1.387 . S
H2391 C2387 0.950 . S
H2392 C2389 0.950 . S
C2393 C2384 1.390 . S
C2393 H2386 0.950 . S
C2393 C2390 1.387 . S
C2394 C2395 1.387 . S
C2394 H2398 0.950 . S
C2394 C2403 1.390 . S
C2395 C2394 1.387 . S
C2395 C2397 1.387 . S
H2396 C2403 0.950 . S
C2397 C2395 1.387 . S
C2397 C2399 1.390 . S
C2397 H2401 0.950 . S
H2398 C2394 0.950 . S
C2399 C2397 1.390 . S
C2399 C2400 1.387 . S
C2399 H2402 0.950 . S
C2400 C2399 1.387 . S
C2400 C2403 1.387 . S
H2401 C2397 0.950 . S
H2402 C2399 0.950 . S
C2403 C2394 1.390 . S
C2403 H2396 0.950 . S
C2403 C2400 1.387 . S
C2404 C2405 1.387 . S
C2404 H2408 0.950 . S
C2404 C2413 1.390 . S
C2405 C2404 1.387 . S
C2405 C2407 1.387 . S
H2406 C2413 0.950 . S
C2407 C2405 1.387 . S
C2407 C2409 1.390 . S
C2407 H2411 0.950 . S
H2408 C2404 0.950 . S
C2409 C2407 1.390 . S
C2409 C2410 1.387 . S
C2409 H2412 0.950 . S
C2410 C2409 1.387 . S
C2410 C2413 1.387 . S
H2411 C2407 0.950 . S
H2412 C2409 0.950 . S
C2413 C2404 1.390 . S
C2413 H2406 0.950 . S
C2413 C2410 1.387 . S
C2414 C2415 1.387 . S
C2414 H2418 0.950 . S
C2414 C2423 1.390 . S
C2415 C2414 1.387 . S
C2415 C2417 1.387 . S
H2416 C2423 0.950 . S
C2417 C2415 1.387 . S
C2417 C2419 1.390 . S
C2417 H2421 0.950 . S
H2418 C2414 0.950 . S
C2419 C2417 1.390 . S
C2419 C2420 1.387 . S
C2419 H2422 0.950 . S
C2420 C2419 1.387 . S
C2420 C2423 1.387 . S
H2421 C2417 0.950 . S
H2422 C2419 0.950 . S
C2423 C2414 1.390 . S
C2423 H2416 0.950 . S
C2423 C2420 1.387 . S
C2424 C2425 1.387 . S
C2424 H2428 0.950 . S
C2424 C2433 1.390 . S
C2425 C2424 1.387 . S
C2425 C2427 1.387 . S
H2426 C2433 0.950 . S
C2427 C2425 1.387 . S
C2427 C2429 1.390 . S
C2427 H2431 0.950 . S
H2428 C2424 0.950 . S
C2429 C2427 1.390 . S
C2429 C2430 1.387 . S
C2429 H2432 0.950 . S
C2430 C2429 1.387 . S
C2430 C2433 1.387 . S
H2431 C2427 0.950 . S
H2432 C2429 0.950 . S
C2433 C2424 1.390 . S
C2433 H2426 0.950 . S
C2433 C2430 1.387 . S
C2434 C2435 1.387 . S
C2434 H2438 0.950 . S
C2434 C2443 1.390 . S
C2435 C2434 1.387 . S
C2435 C2437 1.387 . S
H2436 C2443 0.950 . S
C2437 C2435 1.387 . S
C2437 C2439 1.390 . S
C2437 H2441 0.950 . S
H2438 C2434 0.950 . S
C2439 C2437 1.390 . S
C2439 C2440 1.387 . S
C2439 H2442 0.950 . S
C2440 C2439 1.387 . S
C2440 C2443 1.387 . S
H2441 C2437 0.950 . S
H2442 C2439 0.950 . S
C2443 C2434 1.390 . S
C2443 H2436 0.950 . S
C2443 C2440 1.387 . S
C2444 C2445 1.387 . S
C2444 H2448 0.950 . S
C2444 C2453 1.390 . S
C2445 C2444 1.387 . S
C2445 C2447 1.387 . S
H2446 C2453 0.950 . S
C2447 C2445 1.387 . S
C2447 C2449 1.390 . S
C2447 H2451 0.950 . S
H2448 C2444 0.950 . S
C2449 C2447 1.390 . S
C2449 C2450 1.387 . S
C2449 H2452 0.950 . S
C2450 C2449 1.387 . S
C2450 C2453 1.387 . S
H2451 C2447 0.950 . S
H2452 C2449 0.950 . S
C2453 C2444 1.390 . S
C2453 H2446 0.950 . S
C2453 C2450 1.387 . S
C2454 C2455 1.387 . S
C2454 H2458 0.950 . S
C2454 C2463 1.390 . S
C2455 C2454 1.387 . S
C2455 C2457 1.387 . S
H2456 C2463 0.950 . S
C2457 C2455 1.387 . S
C2457 C2459 1.390 . S
C2457 H2461 0.950 . S
H2458 C2454 0.950 . S
C2459 C2457 1.390 . S
C2459 C2460 1.387 . S
C2459 H2462 0.950 . S
C2460 C2459 1.387 . S
C2460 C2463 1.387 . S
H2461 C2457 0.950 . S
H2462 C2459 0.950 . S
C2463 C2454 1.390 . S
C2463 H2456 0.950 . S
C2463 C2460 1.387 . S
C2464 C2465 1.387 . S
C2464 H2468 0.950 . S
C2464 C2473 1.390 . S
C2465 C2464 1.387 . S
C2465 C2467 1.387 . S
H2466 C2473 0.950 . S
C2467 C2465 1.387 . S
C2467 C2469 1.390 . S
C2467 H2471 0.950 . S
H2468 C2464 0.950 . S
C2469 C2467 1.390 . S
C2469 C2470 1.387 . S
C2469 H2472 0.950 . S
C2470 C2469 1.387 . S
C2470 C2473 1.387 . S
H2471 C2467 0.950 . S
H2472 C2469 0.950 . S
C2473 C2464 1.390 . S
C2473 H2466 0.950 . S
C2473 C2470 1.387 . S
C2474 C2475 1.387 . S
C2474 H2478 0.950 . S
C2474 C2483 1.390 . S
C2475 C2474 1.387 . S
C2475 C2477 1.387 . S
H2476 C2483 0.950 . S
C2477 C2475 1.387 . S
C2477 C2479 1.390 . S
C2477 H2481 0.950 . S
H2478 C2474 0.950 . S
C2479 C2477 1.390 . S
C2479 C2480 1.387 . S
C2479 H2482 0.950 . S
C2480 C2479 1.387 . S
C2480 C2483 1.387 . S
H2481 C2477 0.950 . S
H2482 C2479 0.950 . S
C2483 C2474 1.390 . S
C2483 H2476 0.950 . S
C2483 C2480 1.387 . S
C2484 C2485 1.387 . S
C2484 H2488 0.950 . S
C2484 C2493 1.390 . S
C2485 C2484 1.387 . S
C2485 C2487 1.387 . S
H2486 C2493 0.950 . S
C2487 C2485 1.387 . S
C2487 C2489 1.390 . S
C2487 H2491 0.950 . S
H2488 C2484 0.950 . S
C2489 C2487 1.390 . S
C2489 C2490 1.387 . S
C2489 H2492 0.950 . S
C2490 C2489 1.387 . S
C2490 C2493 1.387 . S
H2491 C2487 0.950 . S
H2492 C2489 0.950 . S
C2493 C2484 1.390 . S
C2493 H2486 0.950 . S
C2493 C2490 1.387 . S
C2494 C2495 1.387 . S
C2494 H2498 0.950 . S
C2494 C2503 1.390 . S
C2495 C2494 1.387 . S
C2495 C2497 1.387 . S
H2496 C2503 0.950 . S
C2497 C2495 1.387 . S
C2497 C2499 1.390 . S
C2497 H2501 0.950 . S
H2498 C2494 0.950 . S
C2499 C2497 1.390 . S
C2499 C2500 1.387 . S
C2499 H2502 0.950 . S
C2500 C2499 1.387 . S
C2500 C2503 1.387 . S
H2501 C2497 0.950 . S
H2502 C2499 0.950 . S
C2503 C2494 1.390 . S
C2503 H2496 0.950 . S
C2503 C2500 1.387 . S
C2504 C2505 1.387 . S
C2504 H2508 0.950 . S
C2504 C2513 1.390 . S
C2505 C2504 1.387 . S
C2505 C2507 1.387 . S
H2506 C2513 0.950 . S
C2507 C2505 1.387 . S
C2507 C2509 1.390 . S
C2507 H2511 0.950 . S
H2508 C2504 0.950 . S
C2509 C2507 1.390 . S
C2509 C2510 1.387 . S
C2509 H2512 0.950 . S
C2510 C2509 1.387 . S
C2510 C2513 1.387 . S
H2511 C2507 0.950 . S
H2512 C2509 0.950 . S
C2513 C2504 1.390 . S
C2513 H2506 0.950 . S
C2513 C2510 1.387 . S
C2514 C2515 1.387 . S
C2514 H2518 0.950 . S
C2514 C2523 1.390 . S
C2515 C2514 1.387 . S
C2515 C2517 1.387 . S
H2516 C2523 0.950 . S
C2517 C2515 1.387 . S
C2517 C2519 1.390 . S
C2517 H2521 0.950 . S
H2518 C2514 0.950 . S
C2519 C2517 1.390 . S
C2519 C2520 1.387 . S
C2519 H2522 0.950 . S
C2520 C2519 1.387 . S
C2520 C2523 1.387 . S
H2521 C2517 0.950 . S
H2522 C2519 0.950 . S
C2523 C2514 1.390 . S
C2523 H2516 0.950 . S
C2523 C2520 1.387 . S
C2524 C2525 1.387 . S
C2524 H2528 0.950 . S
C2524 C2533 1.390 . S
C2525 C2524 1.387 . S
C2525 C2527 1.387 . S
H2526 C2533 0.950 . S
C2527 C2525 1.387 . S
C2527 C2529 1.390 . S
C2527 H2531 0.950 . S
H2528 C2524 0.950 . S
C2529 C2527 1.390 . S
C2529 C2530 1.387 . S
C2529 H2532 0.950 . S
C2530 C2529 1.387 . S
C2530 C2533 1.387 . S
H2531 C2527 0.950 . S
H2532 C2529 0.950 . S
C2533 C2524 1.390 . S
C2533 H2526 0.950 . S
C2533 C2530 1.387 . S
C2534 C2535 1.387 . S
C2534 H2538 0.950 . S
C2534 C2543 1.390 . S
C2535 C2534 1.387 . S
C2535 C2537 1.387 . S
H2536 C2543 0.950 . S
C2537 C2535 1.387 . S
C2537 C2539 1.390 . S
C2537 H2541 0.950 . S
H2538 C2534 0.950 . S
C2539 C2537 1.390 . S
C2539 C2540 1.387 . S
C2539 H2542 0.950 . S
C2540 C2539 1.387 . S
C2540 C2543 1.387 . S
H2541 C2537 0.950 . S
H2542 C2539 0.950 . S
C2543 C2534 1.390 . S
C2543 H2536 0.950 . S
C2543 C2540 1.387 . S
C2544 C2545 1.387 . S
C2544 H2548 0.950 . S
C2544 C2553 1.390 . S
C2545 C2544 1.387 . S
C2545 C2547 1.387 . S
H2546 C2553 0.950 . S
C2547 C2545 1.387 . S
C2547 C2549 1.390 . S
C2547 H2551 0.950 . S
H2548 C2544 0.950 . S
C2549 C2547 1.390 . S
C2549 C2550 1.387 . S
C2549 H2552 0.950 . S
C2550 C2549 1.387 . S
C2550 C2553 1.387 . S
H2551 C2547 0.950 . S
H2552 C2549 0.950 . S
C2553 C2544 1.390 . S
C2553 H2546 0.950 . S
C2553 C2550 1.387 . S
C2554 C2555 1.387 . S
C2554 H2558 0.950 . S
C2554 C2563 1.390 . S
C2555 C2554 1.387 . S
C2555 C2557 1.387 . S
H2556 C2563 0.950 . S
C2557 C2555 1.387 . S
C2557 C2559 1.390 . S
C2557 H2561 0.950 . S
H2558 C2554 0.950 . S
C2559 C2557 1.390 . S
C2559 C2560 1.387 . S
C2559 H2562 0.950 . S
C2560 C2559 1.387 . S
C2560 C2563 1.387 . S
H2561 C2557 0.950 . S
H2562 C2559 0.950 . S
C2563 C2554 1.390 . S
C2563 H2556 0.950 . S
C2563 C2560 1.387 . S
C2564 C2565 1.387 . S
C2564 H2568 0.950 . S
C2564 C2573 1.390 . S
C2565 C2564 1.387 . S
C2565 C2567 1.387 . S
H2566 C2573 0.950 . S
C2567 C2565 1.387 . S
C2567 C2569 1.390 . S
C2567 H2571 0.950 . S
H2568 C2564 0.950 . S
C2569 C2567 1.390 . S
C2569 C2570 1.387 . S
C2569 H2572 0.950 . S
C2570 C2569 1.387 . S
C2570 C2573 1.387 . S
H2571 C2567 0.950 . S
H2572 C2569 0.950 . S
C2573 C2564 1.390 . S
C2573 H2566 0.950 . S
C2573 C2570 1.387 . S
C2574 C2575 1.387 . S
C2574 H2578 0.950 . S
C2574 C2583 1.390 . S
C2575 C2574 1.387 . S
C2575 C2577 1.387 . S
H2576 C2583 0.950 . S
C2577 C2575 1.387 . S
C2577 C2579 1.390 . S
C2577 H2581 0.950 . S
H2578 C2574 0.950 . S
C2579 C2577 1.390 . S
C2579 C2580 1.387 . S
C2579 H2582 0.950 . S
C2580 C2579 1.387 . S
C2580 C2583 1.387 . S
H2581 C2577 0.950 . S
H2582 C2579 0.950 . S
C2583 C2574 1.390 . S
C2583 H2576 0.950 . S
C2583 C2580 1.387 . S
C2584 C2585 1.387 . S
C2584 H2588 0.950 . S
C2584 C2593 1.390 . S
C2585 C2584 1.387 . S
C2585 C2587 1.387 . S
H2586 C2593 0.950 . S
C2587 C2585 1.387 . S
C2587 C2589 1.390 . S
C2587 H2591 0.950 . S
H2588 C2584 0.950 . S
C2589 C2587 1.390 . S
C2589 C2590 1.387 . S
C2589 H2592 0.950 . S
C2590 C2589 1.387 . S
C2590 C2593 1.387 . S
H2591 C2587 0.950 . S
H2592 C2589 0.950 . S
C2593 C2584 1.390 . S
C2593 H2586 0.950 . S
C2593 C2590 1.387 . S
C2594 C2595 1.387 . S
C2594 H2598 0.950 . S
C2594 C2603 1.390 . S
C2595 C2594 1.387 . S
C2595 C2597 1.387 . S
H2596 C2603 0.950 . S
C2597 C2595 1.387 . S
C2597 C2599 1.390 . S
C2597 H2601 0.950 . S
H2598 C2594 0.950 . S
C2599 C2597 1.390 . S
C2599 C2600 1.387 . S
C2599 H2602 0.950 . S
C2600 C2599 1.387 . S
C2600 C2603 1.387 . S
H2601 C2597 0.950 . S
H2602 C2599 0.950 . S
C2603 C2594 1.390 . S
C2603 H2596 0.950 . S
C2603 C2600 1.387 . S
C2604 C2605 1.387 . S
C2604 H2608 0.950 . S
C2604 C2613 1.390 . S
C2605 C2604 1.387 . S
C2605 C2607 1.387 . S
H2606 C2613 0.950 . S
C2607 C2605 1.387 . S
C2607 C2609 1.390 . S
C2607 H2611 0.950 . S
H2608 C2604 0.950 . S
C2609 C2607 1.390 . S
C2609 C2610 1.387 . S
C2609 H2612 0.950 . S
C2610 C2609 1.387 . S
C2610 C2613 1.387 . S
H2611 C2607 0.950 . S
H2612 C2609 0.950 . S
C2613 C2604 1.390 . S
C2613 H2606 0.950 . S
C2613 C2610 1.387 . S
C2614 C2615 1.387 . S
C2614 H2618 0.950 . S
C2614 C2623 1.390 . S
C2615 C2614 1.387 . S
C2615 C2617 1.387 . S
H2616 C2623 0.950 . S
C2617 C2615 1.387 . S
C2617 C2619 1.390 . S
C2617 H2621 0.950 . S
H2618 C2614 0.950 . S
C2619 C2617 1.390 . S
C2619 C2620 1.387 . S
C2619 H2622 0.950 . S
C2620 C2619 1.387 . S
C2620 C2623 1.387 . S
H2621 C2617 0.950 . S
H2622 C2619 0.950 . S
C2623 C2614 1.390 . S
C2623 H2616 0.950 . S
C2623 C2620 1.387 . S
C2624 C2625 1.387 . S
C2624 H2628 0.950 . S
C2624 C2633 1.390 . S
C2625 C2624 1.387 . S
C2625 C2627 1.387 . S
H2626 C2633 0.950 . S
C2627 C2625 1.387 . S
C2627 C2629 1.390 . S
C2627 H2631 0.950 . S
H2628 C2624 0.950 . S
C2629 C2627 1.390 . S
C2629 C2630 1.387 . S
C2629 H2632 0.950 . S
C2630 C2629 1.387 . S
C2630 C2633 1.387 . S
H2631 C2627 0.950 . S
H2632 C2629 0.950 . S
C2633 C2624 1.390 . S
C2633 H2626 0.950 . S
C2633 C2630 1.387 . S
C2634 C2635 1.387 . S
C2634 H2638 0.950 . S
C2634 C2643 1.390 . S
C2635 C2634 1.387 . S
C2635 C2637 1.387 . S
H2636 C2643 0.950 . S
C2637 C2635 1.387 . S
C2637 C2639 1.390 . S
C2637 H2641 0.950 . S
H2638 C2634 0.950 . S
C2639 C2637 1.390 . S
C2639 C2640 1.387 . S
C2639 H2642 0.950 . S
C2640 C2639 1.387 . S
C2640 C2643 1.387 . S
H2641 C2637 0.950 . S
H2642 C2639 0.950 . S
C2643 C2634 1.390 . S
C2643 H2636 0.950 . S
C2643 C2640 1.387 . S
C2644 C2645 1.387 . S
C2644 H2648 0.950 . S
C2644 C2653 1.390 . S
C2645 C2644 1.387 . S
C2645 C2647 1.387 . S
H2646 C2653 0.950 . S
C2647 C2645 1.387 . S
C2647 C2649 1.390 . S
C2647 H2651 0.950 . S
H2648 C2644 0.950 . S
C2649 C2647 1.390 . S
C2649 C2650 1.387 . S
C2649 H2652 0.950 . S
C2650 C2649 1.387 . S
C2650 C2653 1.387 . S
H2651 C2647 0.950 . S
H2652 C2649 0.950 . S
C2653 C2644 1.390 . S
C2653 H2646 0.950 . S
C2653 C2650 1.387 . S
C2654 C2655 1.387 . S
C2654 H2658 0.950 . S
C2654 C2663 1.390 . S
C2655 C2654 1.387 . S
C2655 C2657 1.387 . S
H2656 C2663 0.950 . S
C2657 C2655 1.387 . S
C2657 C2659 1.390 . S
C2657 H2661 0.950 . S
H2658 C2654 0.950 . S
C2659 C2657 1.390 . S
C2659 C2660 1.387 . S
C2659 H2662 0.950 . S
C2660 C2659 1.387 . S
C2660 C2663 1.387 . S
H2661 C2657 0.950 . S
H2662 C2659 0.950 . S
C2663 C2654 1.390 . S
C2663 H2656 0.950 . S
C2663 C2660 1.387 . S
C2664 C2665 1.387 . S
C2664 H2668 0.950 . S
C2664 C2673 1.390 . S
C2665 C2664 1.387 . S
C2665 C2667 1.387 . S
H2666 C2673 0.950 . S
C2667 C2665 1.387 . S
C2667 C2669 1.390 . S
C2667 H2671 0.950 . S
H2668 C2664 0.950 . S
C2669 C2667 1.390 . S
C2669 C2670 1.387 . S
C2669 H2672 0.950 . S
C2670 C2669 1.387 . S
C2670 C2673 1.387 . S
H2671 C2667 0.950 . S
H2672 C2669 0.950 . S
C2673 C2664 1.390 . S
C2673 H2666 0.950 . S
C2673 C2670 1.387 . S
C2674 C2675 1.387 . S
C2674 H2678 0.950 . S
C2674 C2683 1.390 . S
C2675 C2674 1.387 . S
C2675 C2677 1.387 . S
H2676 C2683 0.950 . S
C2677 C2675 1.387 . S
C2677 C2679 1.390 . S
C2677 H2681 0.950 . S
H2678 C2674 0.950 . S
C2679 C2677 1.390 . S
C2679 C2680 1.387 . S
C2679 H2682 0.950 . S
C2680 C2679 1.387 . S
C2680 C2683 1.387 . S
H2681 C2677 0.950 . S
H2682 C2679 0.950 . S
C2683 C2674 1.390 . S
C2683 H2676 0.950 . S
C2683 C2680 1.387 . S
C2684 C2685 1.387 . S
C2684 H2688 0.950 . S
C2684 C2693 1.390 . S
C2685 C2684 1.387 . S
C2685 C2687 1.387 . S
H2686 C2693 0.950 . S
C2687 C2685 1.387 . S
C2687 C2689 1.390 . S
C2687 H2691 0.950 . S
H2688 C2684 0.950 . S
C2689 C2687 1.390 . S
C2689 C2690 1.387 . S
C2689 H2692 0.950 . S
C2690 C2689 1.387 . S
C2690 C2693 1.387 . S
H2691 C2687 0.950 . S
H2692 C2689 0.950 . S
C2693 C2684 1.390 . S
C2693 H2686 0.950 . S
C2693 C2690 1.387 . S
C2694 C2695 1.387 . S
C2694 H2698 0.950 . S
C2694 C2703 1.390 . S
C2695 C2694 1.387 . S
C2695 C2697 1.387 . S
H2696 C2703 0.950 . S
C2697 C2695 1.387 . S
C2697 C2699 1.390 . S
C2697 H2701 0.950 . S
H2698 C2694 0.950 . S
C2699 C2697 1.390 . S
C2699 C2700 1.387 . S
C2699 H2702 0.950 . S
C2700 C2699 1.387 . S
C2700 C2703 1.387 . S
H2701 C2697 0.950 . S
H2702 C2699 0.950 . S
C2703 C2694 1.390 . S
C2703 H2696 0.950 . S
C2703 C2700 1.387 . S
C2704 C2705 1.387 . S
C2704 H2708 0.950 . S
C2704 C2713 1.390 . S
C2705 C2704 1.387 . S
C2705 C2707 1.387 . S
H2706 C2713 0.950 . S
C2707 C2705 1.387 . S
C2707 C2709 1.390 . S
C2707 H2711 0.950 . S
H2708 C2704 0.950 . S
C2709 C2707 1.390 . S
C2709 C2710 1.387 . S
C2709 H2712 0.950 . S
C2710 C2709 1.387 . S
C2710 C2713 1.387 . S
H2711 C2707 0.950 . S
H2712 C2709 0.950 . S
C2713 C2704 1.390 . S
C2713 H2706 0.950 . S
C2713 C2710 1.387 . S
C2714 C2715 1.387 . S
C2714 H2718 0.950 . S
C2714 C2723 1.390 . S
C2715 C2714 1.387 . S
C2715 C2717 1.387 . S
H2716 C2723 0.950 . S
C2717 C2715 1.387 . S
C2717 C2719 1.390 . S
C2717 H2721 0.950 . S
H2718 C2714 0.950 . S
C2719 C2717 1.390 . S
C2719 C2720 1.387 . S
C2719 H2722 0.950 . S
C2720 C2719 1.387 . S
C2720 C2723 1.387 . S
H2721 C2717 0.950 . S
H2722 C2719 0.950 . S
C2723 C2714 1.390 . S
C2723 H2716 0.950 . S
C2723 C2720 1.387 . S
C2724 C2725 1.387 . S
C2724 H2728 0.950 . S
C2724 C2733 1.390 . S
C2725 C2724 1.387 . S
C2725 C2727 1.387 . S
H2726 C2733 0.950 . S
C2727 C2725 1.387 . S
C2727 C2729 1.390 . S
C2727 H2731 0.950 . S
H2728 C2724 0.950 . S
C2729 C2727 1.390 . S
C2729 C2730 1.387 . S
C2729 H2732 0.950 . S
C2730 C2729 1.387 . S
C2730 C2733 1.387 . S
H2731 C2727 0.950 . S
H2732 C2729 0.950 . S
C2733 C2724 1.390 . S
C2733 H2726 0.950 . S
C2733 C2730 1.387 . S
C2734 C2735 1.387 . S
C2734 H2738 0.950 . S
C2734 C2743 1.390 . S
C2735 C2734 1.387 . S
C2735 C2737 1.387 . S
H2736 C2743 0.950 . S
C2737 C2735 1.387 . S
C2737 C2739 1.390 . S
C2737 H2741 0.950 . S
H2738 C2734 0.950 . S
C2739 C2737 1.390 . S
C2739 C2740 1.387 . S
C2739 H2742 0.950 . S
C2740 C2739 1.387 . S
C2740 C2743 1.387 . S
H2741 C2737 0.950 . S
H2742 C2739 0.950 . S
C2743 C2734 1.390 . S
C2743 H2736 0.950 . S
C2743 C2740 1.387 . S
C2744 C2745 1.387 . S
C2744 H2748 0.950 . S
C2744 C2753 1.390 . S
C2745 C2744 1.387 . S
C2745 C2747 1.387 . S
H2746 C2753 0.950 . S
C2747 C2745 1.387 . S
C2747 C2749 1.390 . S
C2747 H2751 0.950 . S
H2748 C2744 0.950 . S
C2749 C2747 1.390 . S
C2749 C2750 1.387 . S
C2749 H2752 0.950 . S
C2750 C2749 1.387 . S
C2750 C2753 1.387 . S
H2751 C2747 0.950 . S
H2752 C2749 0.950 . S
C2753 C2744 1.390 . S
C2753 H2746 0.950 . S
C2753 C2750 1.387 . S
C2754 C2755 1.387 . S
C2754 H2758 0.950 . S
C2754 C2763 1.390 . S
C2755 C2754 1.387 . S
C2755 C2757 1.387 . S
H2756 C2763 0.950 . S
C2757 C2755 1.387 . S
C2757 C2759 1.390 . S
C2757 H2761 0.950 . S
H2758 C2754 0.950 . S
C2759 C2757 1.390 . S
C2759 C2760 1.387 . S
C2759 H2762 0.950 . S
C2760 C2759 1.387 . S
C2760 C2763 1.387 . S
H2761 C2757 0.950 . S
H2762 C2759 0.950 . S
C2763 C2754 1.390 . S
C2763 H2756 0.950 . S
C2763 C2760 1.387 . S
C2764 C2765 1.387 . S
C2764 H2768 0.950 . S
C2764 C2773 1.390 . S
C2765 C2764 1.387 . S
C2765 C2767 1.387 . S
H2766 C2773 0.950 . S
C2767 C2765 1.387 . S
C2767 C2769 1.390 . S
C2767 H2771 0.950 . S
H2768 C2764 0.950 . S
C2769 C2767 1.390 . S
C2769 C2770 1.387 . S
C2769 H2772 0.950 . S
C2770 C2769 1.387 . S
C2770 C2773 1.387 . S
H2771 C2767 0.950 . S
H2772 C2769 0.950 . S
C2773 C2764 1.390 . S
C2773 H2766 0.950 . S
C2773 C2770 1.387 . S
C2774 C2775 1.387 . S
C2774 H2778 0.950 . S
C2774 C2783 1.390 . S
C2775 C2774 1.387 . S
C2775 C2777 1.387 . S
H2776 C2783 0.950 . S
C2777 C2775 1.387 . S
C2777 C2779 1.390 . S
C2777 H2781 0.950 . S
H2778 C2774 0.950 . S
C2779 C2777 1.390 . S
C2779 C2780 1.387 . S
C2779 H2782 0.950 . S
C2780 C2779 1.387 . S
C2780 C2783 1.387 . S
H2781 C2777 0.950 . S
H2782 C2779 0.950 . S
C2783 C2774 1.390 . S
C2783 H2776 0.950 . S
C2783 C2780 1.387 . S
C1585 C545 1.060 . S
C1590 C17 1.064 . S
C1595 C50 1.072 . S
C1600 C974 1.072 . S
C1605 C611 1.066 . S
C1610 C83 1.065 . S
C1615 C1040 1.056 . S
C1620 C116 1.054 1_545 S
C1625 C149 1.052 . S
C1630 C413 1.055 . S
C1635 C842 1.072 . S
C1640 C182 1.072 . S
C1645 C479 1.062 1_455 S
C1650 C215 1.066 . S
C1655 C248 1.056 . S
C1660 C908 1.054 1_545 S
C1665 C281 1.042 . S
C1670 C1568 1.041 . S
C1675 C314 1.042 . S
C1680 C1535 1.042 . S
C1685 C347 1.044 . S
C1690 C1502 1.043 . S
C1695 C1469 1.022 . S
C1700 C380 1.022 . S
C1705 C1370 1.079 . S
C1710 C446 1.079 . S
C1715 C512 1.070 . S
C1720 C1436 1.070 . S
C1725 C1238 1.079 . S
C1730 C578 1.079 . S
C1735 C644 1.070 . S
C1740 C1304 1.070 . S
C1745 C677 1.022 . S
C1750 C1172 1.022 . S
C1755 C1139 1.043 . S
C1760 C710 1.044 . S
C1765 C1106 1.043 . S
C1770 C743 1.042 . S
C1775 C776 1.041 . S
C1780 C1073 1.042 . S
C1785 C809 1.060 . S
C1790 C1337 1.060 . S
C1795 C875 1.064 . S
C1800 C1403 1.063 . S
C1805 C941 1.052 . S
C1810 C1205 1.052 . S
C1815 C1007 1.064 . S
C1820 C1271 1.065 . S
C1825 C107 1.760 . S
C1830 N14 1.686 . S
C1835 N38 1.548 . S
C1840 C28 1.819 . S
C1845 C41 1.804 . S
C1850 N71 1.563 . S
C1855 N104 1.563 . S
C1860 C74 1.802 . S
C1865 N137 1.534 . S
C1870 C173 1.769 . S
C1875 C206 1.804 . S
C1880 N170 1.559 . S
C1885 N203 1.518 . S
C1890 C259 1.782 . S
C1895 N245 1.675 . S
C1900 C140 1.748 . S
C1905 N113 1.669 . S
C1910 C272 1.744 . S
C1915 C358 1.813 . S
C1920 N5 1.548 . S
C1925 C391 1.810 . S
C1930 N47 1.708 . S
C1935 C325 1.781 . S
C1940 N80 1.677 . S
C1945 C305 1.794 . S
C1950 N179 1.717 . S
C1955 C292 1.799 . S
C1960 N212 1.699 . S
C1965 N236 1.545 . S
C1970 C338 1.787 . S
C1975 N146 1.671 . S
C1980 C371 1.746 . S
C1985 C8 1.746 . S
C1990 N278 1.672 . S
C1995 C160 1.757 . S
C2000 N311 1.662 . S
C2005 N269 1.500 . S
C2010 C193 1.755 . S
C2015 C226 1.787 . S
C2020 N344 1.686 . S
C2025 N377 1.678 . S
C2030 C239 1.752 . S
C2035 C94 1.741 . S
C2040 N368 1.489 . S
C2045 N302 1.510 . S
C2050 C127 1.772 . S
C2055 C61 1.789 . S
C2060 N335 1.524 . S
C2065 C503 1.744 . S
C2070 N410 1.669 . S
C2075 C424 1.813 . S
C2080 N434 1.545 . S
C2085 N467 1.570 . S
C2090 C437 1.815 . S
C2095 N500 1.544 . S
C2100 C470 1.780 . S
C2105 N533 1.557 . S
C2110 C569 1.797 . S
C2115 N566 1.553 . S
C2120 C602 1.798 . S
C2125 N599 1.515 . S
C2130 C655 1.777 . S
C2135 C536 1.770 . S
C2140 N641 1.695 . S
C2145 C668 1.740 . S
C2150 N509 1.665 . S
C2155 C754 1.789 . S
C2160 N401 1.524 . S
C2165 N443 1.716 . S
C2170 C787 1.818 . S
C2175 C701 1.777 . S
C2180 N476 1.699 . S
C2185 C721 1.802 . S
C2190 N575 1.701 . S
C2195 N608 1.701 . S
C2200 C688 1.801 . S
C2205 C734 1.805 . S
C2210 N632 1.566 . S
C2215 C767 1.758 . S
C2220 N542 1.681 . S
C2225 N674 1.667 . S
C2230 C404 1.742 . S
C2235 C556 1.774 . S
C2240 N698 1.514 . S
C2245 N665 1.487 . S
C2250 C589 1.738 . S
C2255 N740 1.681 . S
C2260 C622 1.780 . S
C2265 N773 1.684 . S
C2270 C635 1.758 . S
C2275 N764 1.509 . S
C2280 C490 1.763 . S
C2285 C523 1.760 . S
C2290 N707 1.664 . S
C2295 N731 1.528 . S
C2300 C457 1.795 . S
C2305 N806 1.683 . S
C2310 C899 1.759 . S
C2315 N830 1.548 . S
C2320 C820 1.819 . S
C2325 N863 1.560 . S
C2330 C833 1.804 . S
C2335 C866 1.805 . S
C2340 N896 1.565 . S
C2345 N929 1.534 . S
C2350 C965 1.768 . S
C2355 N962 1.557 . S
C2360 C998 1.803 . S
C2365 N995 1.523 . S
C2370 C1051 1.784 . S
C2375 C932 1.748 . S
C2380 N1037 1.673 . S
C2385 N905 1.671 . S
C2390 C1064 1.746 . S
C2395 N797 1.545 . S
C2400 C1150 1.812 . S
C2405 C1183 1.811 . S
C2410 N839 1.709 . S
C2415 C1117 1.781 . S
C2420 N872 1.680 . S
C2425 C1097 1.793 . S
C2430 N971 1.715 . S
C2435 C1084 1.800 . S
C2440 N1004 1.701 . S
C2445 C1130 1.786 . S
C2450 N1028 1.544 . S
C2455 C1163 1.744 . S
C2460 N938 1.667 . S
C2465 N1070 1.669 . S
C2470 C800 1.745 . S
C2475 C952 1.756 . S
C2480 N1103 1.660 . S
C2485 N1061 1.499 . S
C2490 C985 1.755 . S
C2495 C1018 1.788 . S
C2500 N1136 1.687 . S
C2505 N1169 1.678 . S
C2510 C1031 1.752 . S
C2515 N1160 1.487 . S
C2520 C886 1.741 . S
C2525 N1094 1.514 . S
C2530 C919 1.773 . S
C2535 N1127 1.522 . S
C2540 C853 1.789 . S
C2545 N1202 1.672 . S
C2550 C1295 1.745 . S
C2555 N1226 1.547 . S
C2560 C1216 1.814 . S
C2565 N1259 1.569 . S
C2570 C1229 1.814 . S
C2575 N1292 1.544 . S
C2580 C1262 1.780 . S
C2585 N1325 1.559 . S
C2590 C1361 1.798 . S
C2595 N1358 1.552 . S
C2600 C1394 1.798 . S
C2605 N1391 1.514 . S
C2610 C1447 1.777 . S
C2615 N1433 1.696 . S
C2620 C1328 1.770 . S
C2625 N1301 1.664 . S
C2630 C1460 1.739 . S
C2635 N1193 1.525 . S
C2640 C1546 1.789 . S
C2645 N1235 1.716 . S
C2650 C1579 1.818 . S
C2655 N1268 1.701 . S
C2660 C1493 1.778 . S
C2665 C1513 1.802 . S
C2670 N1367 1.701 . S
C2675 C1480 1.800 . S
C2680 N1400 1.698 . S
C2685 N1424 1.562 . S
C2690 C1526 1.803 . S
C2695 N1334 1.680 . S
C2700 C1559 1.757 . S
C2705 C1196 1.741 . S
C2710 N1466 1.667 . S
C2715 N1490 1.514 . S
C2720 C1348 1.774 . S
C2725 C1381 1.738 . S
C2730 N1457 1.487 . S
C2735 N1532 1.683 . S
C2740 C1414 1.781 . S
C2745 C1427 1.757 . S
C2750 N1565 1.682 . S
C2755 C1282 1.763 . S
C2760 N1556 1.509 . S
C2765 N1499 1.664 . S
C2770 C1315 1.761 . S
C2775 C1249 1.795 . S
C2780 N1523 1.528 . S
