# Generated by pormake.
# Topology mmt, (4)-cn, num edge types: 1
# Building blocks:
#     Node 0, Type 0, BuildingBlock: QUQFOY_clean_sbu_1, # of connection points: 4
#     Node 1, Type 0, BuildingBlock: QUQFOY_clean_sbu_1, # of connection points: 4
#     Node 2, Type 0, BuildingBlock: QUQFOY_clean_sbu_1, # of connection points: 4
#     Node 3, Type 0, BuildingBlock: QUQFOY_clean_sbu_1, # of connection points: 4
#     Node 4, Type 0, BuildingBlock: QUQFOY_clean_sbu_1, # of connection points: 4
#     Node 5, Type 0, BuildingBlock: QUQFOY_clean_sbu_1, # of connection points: 4
#     Node 6, Type 0, BuildingBlock: QUQFOY_clean_sbu_1, # of connection points: 4
#     Node 7, Type 0, BuildingBlock: QUQFOY_clean_sbu_1, # of connection points: 4
#     Edge 8, Type (0, 0), BuildingBlock: ZUJKAS_clean_linker_0, # of connection points: 2
#     Edge 9, Type (0, 0), BuildingBlock: ZUJKAS_clean_linker_0, # of connection points: 2
#     Edge 10, Type (0, 0), BuildingBlock: ZUJKAS_clean_linker_0, # of connection points: 2
#     Edge 11, Type (0, 0), BuildingBlock: ZUJKAS_clean_linker_0, # of connection points: 2
#     Edge 12, Type (0, 0), BuildingBlock: ZUJKAS_clean_linker_0, # of connection points: 2
#     Edge 13, Type (0, 0), BuildingBlock: ZUJKAS_clean_linker_0, # of connection points: 2
#     Edge 14, Type (0, 0), BuildingBlock: ZUJKAS_clean_linker_0, # of connection points: 2
#     Edge 15, Type (0, 0), BuildingBlock: ZUJKAS_clean_linker_0, # of connection points: 2
#     Edge 16, Type (0, 0), BuildingBlock: ZUJKAS_clean_linker_0, # of connection points: 2
#     Edge 17, Type (0, 0), BuildingBlock: ZUJKAS_clean_linker_0, # of connection points: 2
#     Edge 18, Type (0, 0), BuildingBlock: ZUJKAS_clean_linker_0, # of connection points: 2
#     Edge 19, Type (0, 0), BuildingBlock: ZUJKAS_clean_linker_0, # of connection points: 2
#     Edge 20, Type (0, 0), BuildingBlock: ZUJKAS_clean_linker_0, # of connection points: 2
#     Edge 21, Type (0, 0), BuildingBlock: ZUJKAS_clean_linker_0, # of connection points: 2
#     Edge 22, Type (0, 0), BuildingBlock: ZUJKAS_clean_linker_0, # of connection points: 2
#     Edge 23, Type (0, 0), BuildingBlock: ZUJKAS_clean_linker_0, # of connection points: 2
# Relax obj value: 0.021
# Max RMSD: 0.102
# Mean RMSD: 0.102
data_MOF--net-mmt--node1-QUQFOY_clean_sbu_1--edge1-ZUJKAS_clean_linker_0
_symmetry_space_group_name_H-M    P1
_symmetry_Int_Tables_number       1
_symmetry_cell_setting            triclinic
loop_
_symmetry_equiv_pos_as_xyz
'x, y, z'
_cell_length_a     28.323889
_cell_length_b     53.853332
_cell_length_c     59.657541
_cell_angle_alpha  89.968771
_cell_angle_beta   90.002715
_cell_angle_gamma 89.994712
loop_
_atom_site_label
_atom_site_type_symbol
_atom_site_fract_x
_atom_site_fract_y
_atom_site_fract_z
_atom_type_partial_charge
O0 O 0.18978 0.57002 0.33092 0.0
Cd1 Cd 0.13512 0.59417 0.33769 0.0
Cd2 Cd 0.1027 0.55176 0.36136 0.0
O3 O 0.16503 0.53694 0.34937 0.0
O4 O 0.15892 0.62616 0.32524 0.0
O5 O 0.14292 0.62111 0.36114 0.0
C6 C 0.1578 0.63529 0.34517 0.0
C7 C 0.08001 0.54226 0.39814 0.0
C8 C 0.19533 0.54756 0.33692 0.0
C9 C 0.04279 0.57133 0.3232 0.0
O10 O 0.04831 0.55541 0.33871 0.0
O11 O 0.07293 0.58852 0.32024 0.0
O12 O 0.07877 0.52591 0.38241 0.0
O13 O 0.09507 0.56421 0.3931 0.0
O14 O 0.2971 0.94887 0.33083 0.0
Cd15 Cd 0.35247 0.92511 0.33745 0.0
Cd16 Cd 0.38445 0.96768 0.36097 0.0
O17 O 0.32162 0.98208 0.34915 0.0
O18 O 0.32976 0.89284 0.32515 0.0
O19 O 0.34597 0.89817 0.361 0.0
C20 C 0.33169 0.88376 0.34509 0.0
C21 C 0.40745 0.97733 0.39767 0.0
C22 C 0.29127 0.97131 0.33683 0.0
C23 C 0.4442 0.94848 0.32266 0.0
O24 O 0.43864 0.96435 0.33818 0.0
O25 O 0.41427 0.93118 0.3198 0.0
O26 O 0.40811 0.99368 0.38192 0.0
O27 O 0.39276 0.9553 0.39272 0.0
O28 O 0.68947 0.44909 0.18574 0.0
Cd29 Cd 0.63469 0.42509 0.17876 0.0
Cd30 Cd 0.60281 0.4677 0.15512 0.0
O31 O 0.66526 0.48225 0.16722 0.0
O32 O 0.65807 0.39301 0.1912 0.0
O33 O 0.6426 0.39821 0.15526 0.0
C34 C 0.65716 0.38395 0.17124 0.0
C35 C 0.58059 0.47755 0.11835 0.0
C36 C 0.69533 0.47154 0.17974 0.0
C37 C 0.5424 0.44812 0.19311 0.0
O38 O 0.54824 0.46411 0.17769 0.0
O39 O 0.57233 0.43082 0.19604 0.0
O40 O 0.5794 0.49378 0.13417 0.0
O41 O 0.59526 0.4555 0.12329 0.0
O42 O 0.7968 0.07017 0.18471 0.0
Cd43 Cd 0.85208 0.09403 0.17824 0.0
Cd44 Cd 0.88438 0.05162 0.15459 0.0
O45 O 0.82171 0.03702 0.16642 0.0
O46 O 0.82916 0.12619 0.19067 0.0
O47 O 0.84556 0.1211 0.15481 0.0
C48 C 0.83112 0.1354 0.17078 0.0
C49 C 0.9072 0.0422 0.11782 0.0
C50 C 0.79121 0.04772 0.1787 0.0
C51 C 0.94395 0.07073 0.19298 0.0
O52 O 0.93861 0.05495 0.17736 0.0
O53 O 0.91384 0.08793 0.19592 0.0
O54 O 0.90809 0.02577 0.1335 0.0
O55 O 0.89243 0.06418 0.1229 0.0
O56 O 0.80028 0.44719 0.68622 0.0
Cd57 Cd 0.85642 0.4251 0.67692 0.0
Cd58 Cd 0.87845 0.46852 0.65303 0.0
O59 O 0.8145 0.48042 0.66563 0.0
O60 O 0.83833 0.39196 0.68907 0.0
O61 O 0.84793 0.39888 0.6529 0.0
C62 C 0.83716 0.38367 0.66885 0.0
C63 C 0.89834 0.478 0.61591 0.0
C64 C 0.78902 0.46889 0.67976 0.0
C65 C 0.94558 0.45168 0.68959 0.0
O66 O 0.93427 0.46794 0.67512 0.0
O67 O 0.92027 0.43242 0.69233 0.0
O68 O 0.89714 0.4948 0.63125 0.0
O69 O 0.88695 0.45561 0.62151 0.0
O70 O 0.68672 0.0729 0.686 0.0
Cd71 Cd 0.63253 0.0959 0.67593 0.0
Cd72 Cd 0.60958 0.05257 0.65205 0.0
O73 O 0.67256 0.03989 0.66516 0.0
O74 O 0.65246 0.12854 0.68847 0.0
O75 O 0.64399 0.12215 0.65217 0.0
C76 C 0.65535 0.13696 0.66832 0.0
C77 C 0.58995 0.04276 0.61496 0.0
C78 C 0.69753 0.05109 0.67968 0.0
C79 C 0.54209 0.07046 0.68814 0.0
O80 O 0.5534 0.05394 0.67392 0.0
O81 O 0.56775 0.0896 0.6908 0.0
O82 O 0.59018 0.02619 0.63052 0.0
O83 O 0.60218 0.0651 0.62032 0.0
O84 O 0.30126 0.57365 0.83031 0.0
Cd85 Cd 0.35654 0.59613 0.83999 0.0
Cd86 Cd 0.37879 0.55287 0.86387 0.0
O87 O 0.31506 0.54066 0.85126 0.0
O88 O 0.33747 0.62901 0.8276 0.0
O89 O 0.34675 0.62245 0.86383 0.0
C90 C 0.3355 0.63741 0.84777 0.0
C91 C 0.39891 0.54318 0.90093 0.0
C92 C 0.29001 0.55196 0.83683 0.0
C93 C 0.44564 0.56978 0.82717 0.0
O94 O 0.43429 0.55346 0.84158 0.0
O95 O 0.42058 0.58916 0.82463 0.0
O96 O 0.39781 0.52649 0.8855 0.0
O97 O 0.38739 0.56559 0.89546 0.0
O98 O 0.18756 0.94782 0.82952 0.0
Cd99 Cd 0.13262 0.92527 0.83951 0.0
Cd100 Cd 0.11003 0.96862 0.86327 0.0
O101 O 0.17316 0.981 0.85011 0.0
O102 O 0.15113 0.89227 0.82725 0.0
O103 O 0.14263 0.8991 0.86349 0.0
C104 C 0.15309 0.88395 0.84746 0.0
C105 C 0.09086 0.97836 0.90042 0.0
C106 C 0.19833 0.96967 0.83575 0.0
C107 C 0.04251 0.95112 0.82715 0.0
O108 O 0.05372 0.96756 0.84146 0.0
O109 O 0.06818 0.932 0.82446 0.0
O110 O 0.09125 0.995 0.88492 0.0
O111 O 0.10264 0.95599 0.89497 0.0
H112 H 0.20783 0.49709 0.33738 0.0
H113 H 0.26834 0.47328 0.31742 0.0
H114 H 0.33265 0.54142 0.29489 0.0
H115 H 0.27254 0.56536 0.3147 0.0
H116 H 0.28218 0.4771 0.27001 0.0
H117 H 0.44546 0.49912 0.31724 0.0
H118 H 0.38713 0.50297 0.32903 0.0
H119 H 0.41071 0.52594 0.31024 0.0
C120 C 0.2354 0.50703 0.32856 0.0
C121 C 0.23528 0.53314 0.32758 0.0
C122 C 0.26984 0.49338 0.31713 0.0
C123 C 0.30511 0.5056 0.30486 0.0
C124 C 0.30614 0.53164 0.30456 0.0
H125 H 0.4657 0.47842 0.18862 0.0
H126 H 0.40568 0.48764 0.21675 0.0
C127 C 0.27158 0.54529 0.31581 0.0
C128 C 0.33834 0.49142 0.29064 0.0
H129 H 0.45567 0.48344 0.27991 0.0
C130 C 0.3201 0.47809 0.27237 0.0
C131 C 0.38771 0.49258 0.29389 0.0
C132 C 0.40901 0.50573 0.31379 0.0
C133 C 0.35013 0.46705 0.25654 0.0
C134 C 0.39951 0.46957 0.25903 0.0
C135 C 0.41774 0.48168 0.27798 0.0
C136 C 0.43277 0.46169 0.24128 0.0
C137 C 0.32881 0.45327 0.23701 0.0
C138 C 0.46779 0.44394 0.24573 0.0
C139 C 0.50218 0.43853 0.22961 0.0
C140 C 0.50252 0.45113 0.20893 0.0
C141 C 0.46649 0.46838 0.20435 0.0
C142 C 0.43198 0.47359 0.22037 0.0
H143 H 0.29227 0.447 0.24075 0.0
H144 H 0.32732 0.46581 0.22226 0.0
H145 H 0.35054 0.43686 0.23246 0.0
H146 H 0.4691 0.43468 0.26184 0.0
H147 H 0.52956 0.42524 0.23372 0.0
H148 H 0.95546 0.09295 0.23395 0.0
H149 H 0.01555 0.0834 0.26223 0.0
H150 H 0.08089 0.0315 0.21681 0.0
H151 H 0.02122 0.04083 0.18851 0.0
H152 H 0.02985 0.03431 0.27976 0.0
H153 H 0.19287 0.0727 0.24174 0.0
H154 H 0.13446 0.08261 0.23342 0.0
H155 H 0.15853 0.05402 0.22286 0.0
C156 C 0.98316 0.07987 0.22981 0.0
C157 C 0.98349 0.0676 0.20898 0.0
C158 C 0.01734 0.0744 0.24602 0.0
C159 C 0.0528 0.05691 0.24151 0.0
C160 C 0.05422 0.04533 0.22048 0.0
H161 H 0.21456 0.95328 0.31436 0.0
H162 H 0.15403 0.97706 0.29469 0.0
C163 C 0.01991 0.05061 0.20436 0.0
C164 C 0.08596 0.04899 0.2593 0.0
H165 H 0.2033 0.04223 0.27065 0.0
C166 C 0.06776 0.0364 0.278 0.0
C167 C 0.1353 0.05196 0.25705 0.0
C168 C 0.15654 0.06626 0.23779 0.0
C169 C 0.09783 0.02547 0.2939 0.0
C170 C 0.14721 0.02708 0.29086 0.0
C171 C 0.16537 0.04088 0.27285 0.0
C172 C 0.18063 0.01293 0.30503 0.0
C173 C 0.07656 0.01183 0.31354 0.0
C174 C 0.21553 0.02524 0.31747 0.0
C175 C 0.25022 0.01167 0.32882 0.0
C176 C 0.25098 0.98557 0.3276 0.0
C177 C 0.21503 0.97334 0.31567 0.0
C178 C 0.18022 0.9869 0.30449 0.0
H179 H 0.03993 0.01816 0.31697 0.0
H180 H 0.0753 0.99168 0.30969 0.0
H181 H 0.09817 0.01442 0.32889 0.0
H182 H 0.21655 0.04534 0.31795 0.0
H183 H 0.27751 0.02168 0.33776 0.0
H184 H 0.70919 0.52189 0.1786 0.0
H185 H 0.77 0.54563 0.19843 0.0
H186 H 0.83188 0.47745 0.22238 0.0
H187 H 0.7715 0.45359 0.20269 0.0
H188 H 0.78298 0.5429 0.24582 0.0
H189 H 0.94636 0.51811 0.19982 0.0
H190 H 0.88814 0.51439 0.18788 0.0
H191 H 0.91075 0.49178 0.2073 0.0
C192 C 0.73628 0.51192 0.18772 0.0
C193 C 0.73541 0.48583 0.18911 0.0
C194 C 0.77089 0.52553 0.19907 0.0
C195 C 0.80559 0.51327 0.21169 0.0
C196 C 0.80584 0.48724 0.21243 0.0
H197 H 0.96515 0.54177 0.32796 0.0
H198 H 0.90529 0.53243 0.29978 0.0
C199 C 0.77112 0.47364 0.20126 0.0
C200 C 0.83904 0.52749 0.22577 0.0
H201 H 0.95641 0.53463 0.23687 0.0
C202 C 0.82091 0.54148 0.24365 0.0
C203 C 0.88842 0.52577 0.22278 0.0
C204 C 0.90967 0.51189 0.20328 0.0
C205 C 0.851 0.55265 0.25938 0.0
C206 C 0.90033 0.5496 0.25717 0.0
C207 C 0.91851 0.53681 0.23859 0.0
C208 C 0.9335 0.55763 0.2749 0.0
C209 C 0.8298 0.56716 0.27851 0.0
C210 C 0.96907 0.57501 0.27028 0.0
C211 C 0.00336 0.5805 0.28642 0.0
C212 C 0.00303 0.56833 0.30731 0.0
C213 C 0.96646 0.55147 0.31206 0.0
C214 C 0.93204 0.54619 0.29601 0.0
H215 H 0.79349 0.5736 0.2745 0.0
H216 H 0.82777 0.55506 0.29354 0.0
H217 H 0.85194 0.58352 0.28274 0.0
H218 H 0.97089 0.5839 0.254 0.0
H219 H 0.03118 0.59347 0.28218 0.0
H220 H 0.77836 0.99729 0.17812 0.0
H221 H 0.71759 0.97353 0.19797 0.0
H222 H 0.65348 0.04172 0.22044 0.0
H223 H 0.71384 0.06561 0.20075 0.0
H224 H 0.70377 0.97723 0.24528 0.0
H225 H 0.54048 0.99964 0.1982 0.0
H226 H 0.5988 1.00347 0.18639 0.0
H227 H 0.57529 0.02641 0.20522 0.0
C228 C 0.75076 1.00725 0.1869 0.0
C229 C 0.75103 0.03336 0.1879 0.0
C230 C 0.71618 0.99363 0.19827 0.0
C231 C 0.6809 1.00588 0.2105 0.0
C232 C 0.67999 0.03192 0.2108 0.0
H233 H 0.5209 0.9788 0.32693 0.0
H234 H 0.58065 0.98801 0.29865 0.0
C235 C 0.71469 0.04554 0.19962 0.0
C236 C 0.64762 0.99172 0.22472 0.0
H237 H 0.53028 0.98397 0.23557 0.0
C238 C 0.66584 0.97831 0.24296 0.0
C239 C 0.59824 0.99299 0.22152 0.0
C240 C 0.57695 1.00621 0.20165 0.0
C241 C 0.63581 0.96731 0.25881 0.0
C242 C 0.58644 0.96995 0.25638 0.0
C243 C 0.56821 0.98213 0.23746 0.0
C244 C 0.55322 0.96213 0.27418 0.0
C245 C 0.65712 0.95343 0.27831 0.0
C246 C 0.51808 0.94443 0.2698 0.0
C247 C 0.48384 0.93904 0.28599 0.0
C248 C 0.48379 0.95158 0.30669 0.0
C249 C 0.51989 0.9688 0.31119 0.0
C250 C 0.55425 0.97401 0.29508 0.0
H251 H 0.69358 0.94708 0.27452 0.0
H252 H 0.65879 0.96594 0.29306 0.0
H253 H 0.63527 0.93706 0.28287 0.0
H254 H 0.51659 0.9352 0.25369 0.0
H255 H 0.4564 0.92577 0.28195 0.0
H256 H 0.50461 0.5297 0.82739 0.0
H257 H 0.56194 0.51799 0.79877 0.0
H258 H 0.53386 0.58587 0.76289 0.0
H259 H 0.4759 0.59787 0.79146 0.0
H260 H 0.52976 0.51681 0.74854 0.0
H261 H 0.68624 0.57545 0.76898 0.0
H262 H 0.64505 0.56595 0.79047 0.0
H263 H 0.62766 0.58858 0.77007 0.0
C264 C 0.51102 0.5424 0.81364 0.0
C265 C 0.48537 0.56468 0.81167 0.0
C266 C 0.54377 0.53563 0.79729 0.0
C267 C 0.55188 0.55106 0.77879 0.0
C268 C 0.52807 0.57381 0.77716 0.0
H269 H 0.75892 0.51691 0.67365 0.0
H270 H 0.69696 0.53866 0.69452 0.0
C271 C 0.49505 0.58061 0.79351 0.0
C272 C 0.5827 0.54223 0.7605 0.0
H273 H 0.69504 0.54587 0.74024 0.0
C274 C 0.56576 0.52333 0.7465 0.0
C275 C 0.62925 0.55105 0.75782 0.0
C276 C 0.64855 0.57136 0.77258 0.0
C277 C 0.59482 0.51237 0.73026 0.0
C278 C 0.64235 0.52015 0.7284 0.0
C279 C 0.65862 0.53988 0.74174 0.0
C280 C 0.67679 0.50664 0.71424 0.0
C281 C 0.57445 0.49237 0.71543 0.0
C282 C 0.68574 0.48143 0.71831 0.0
C283 C 0.72085 0.46894 0.70642 0.0
C284 C 0.74818 0.48149 0.69031 0.0
C285 C 0.73842 0.50665 0.68587 0.0
C286 C 0.70315 0.51914 0.69782 0.0
H287 H 0.53563 0.49452 0.71357 0.0
H288 H 0.59083 0.49262 0.69852 0.0
H289 H 0.58116 0.47396 0.72316 0.0
H290 H 0.66657 0.47155 0.73126 0.0
H291 H 0.7275 0.44962 0.71037 0.0
H292 H 0.72751 1.00306 0.67328 0.0
H293 H 0.78503 0.98007 0.69602 0.0
H294 H 0.81237 0.04591 0.73491 0.0
H295 H 0.75554 0.06908 0.71239 0.0
H296 H 0.89086 0.997 0.70889 0.0
H297 H 0.76024 0.98567 0.7778 0.0
H298 H 0.7429 0.98989 0.74888 0.0
H299 H 0.7639 0.01584 0.76487 0.0
C300 C 0.74631 0.01276 0.68644 0.0
C301 C 0.73663 0.03789 0.69111 0.0
C302 C 0.77905 0.99958 0.6994 0.0
C303 C 0.80232 0.01131 0.71721 0.0
C304 C 0.79435 0.03657 0.72129 0.0
H305 H 0.98085 0.99005 0.82831 0.0
H306 H 0.92057 1.0006 0.80078 0.0
C307 C 0.7619 0.04977 0.70835 0.0
C308 C 0.8334 0.99717 0.73242 0.0
H309 H 0.83992 0.97599 0.78622 0.0
C310 C 0.87973 0.99196 0.72568 0.0
C311 C 0.81843 0.99077 0.75425 0.0
C312 C 0.76856 0.99563 0.76197 0.0
C313 C 0.91244 0.98161 0.74073 0.0
C314 C 0.8979 0.97596 0.76288 0.0
C315 C 0.85092 0.98028 0.76924 0.0
C316 C 0.9319 0.96798 0.78031 0.0
C317 C 0.96286 0.97808 0.73319 0.0
C318 C 0.95728 0.94571 0.77831 0.0
C319 C 0.99204 0.9396 0.79407 0.0
C320 C 0.00176 0.95564 0.81211 0.0
C321 C 0.97453 0.97731 0.81459 0.0
C322 C 0.93999 0.98339 0.79886 0.0
H323 H 0.9702 0.9877 0.71708 0.0
H324 H 0.98781 0.98513 0.74606 0.0
H325 H 0.96986 0.95799 0.73081 0.0
H326 H 0.95085 0.93331 0.76436 0.0
H327 H 0.01217 0.9227 0.79172 0.0
H328 H 0.2318 0.57009 0.80423 0.0
H329 H 0.17432 0.54706 0.78199 0.0
H330 H 0.20107 0.48131 0.82119 0.0
H331 H 0.25915 0.50417 0.84365 0.0
H332 H 0.20543 0.49771 0.7588 0.0
H333 H 0.04916 0.49243 0.81548 0.0
H334 H 0.09085 0.51775 0.81738 0.0
H335 H 0.10767 0.48734 0.82654 0.0
C336 C 0.22507 0.55085 0.80843 0.0
C337 C 0.25035 0.53895 0.82567 0.0
C338 C 0.19225 0.53772 0.79565 0.0
C339 C 0.1837 0.51256 0.79997 0.0
C340 C 0.2072 0.5008 0.81773 0.0
H341 H 0.97535 0.42409 0.72567 0.0
H342 H 0.03751 0.43485 0.75256 0.0
C343 C 0.24029 0.5139 0.83052 0.0
C344 C 0.15265 0.49843 0.78474 0.0
H345 H 0.04008 0.47698 0.77884 0.0
C346 C 0.16942 0.49289 0.76321 0.0
C347 C 0.10608 0.49195 0.79075 0.0
C348 C 0.08695 0.49763 0.81376 0.0
C349 C 0.14017 0.48171 0.74717 0.0
C350 C 0.09262 0.47652 0.75271 0.0
C351 C 0.07652 0.48103 0.77462 0.0
C352 C 0.05799 0.46864 0.73551 0.0
C353 C 0.16035 0.47582 0.72438 0.0
C354 C 0.04913 0.484 0.71699 0.0
C355 C 0.01391 0.4779 0.70161 0.0
C356 C 0.98638 0.45641 0.70454 0.0
C357 C -0.00399 0.44072 0.72286 0.0
C358 C 0.03139 0.44686 0.73828 0.0
H359 H 0.19915 0.4729 0.72524 0.0
H360 H 0.14374 0.45899 0.71708 0.0
H361 H 0.15377 0.4917 0.71294 0.0
H362 H 0.06847 0.50118 0.71479 0.0
H363 H 0.00738 0.49048 0.68778 0.0
H364 H 0.2287 0.01759 0.84231 0.0
H365 H 0.28608 0.04061 0.81955 0.0
H366 H 0.31288 0.97491 0.78038 0.0
H367 H 0.25615 0.95169 0.80293 0.0
H368 H 0.39173 0.02372 0.80635 0.0
H369 H 0.2602 0.03539 0.73786 0.0
H370 H 0.24322 0.03102 0.7668 0.0
H371 H 0.26411 1.00517 0.75066 0.0
C372 C 0.24736 1.00791 0.82909 0.0
C373 C 0.23753 0.98282 0.82435 0.0
C374 C 0.28002 0.02112 0.81612 0.0
C375 C 0.30309 1.00945 0.79822 0.0
C376 C 0.29503 0.98421 0.79408 0.0
H377 H 0.48009 0.03172 0.68675 0.0
H378 H 0.42005 0.021 0.71433 0.0
C379 C 0.26265 0.97098 0.80703 0.0
C380 C 0.33398 0.02366 0.78298 0.0
H381 H 0.33967 0.04533 0.72932 0.0
C382 C 0.38036 0.02888 0.78962 0.0
C383 C 0.31869 0.03023 0.76124 0.0
C384 C 0.26875 0.02537 0.75363 0.0
C385 C 0.41282 0.03942 0.77456 0.0
C386 C 0.39795 0.04525 0.75249 0.0
C387 C 0.35092 0.04091 0.74623 0.0
C388 C 0.4317 0.05341 0.73501 0.0
C389 C 0.46332 0.04295 0.78197 0.0
C390 C 0.45714 0.07565 0.7371 0.0
C391 C 0.49177 0.08187 0.72132 0.0
C392 C 0.5013 0.06596 0.70315 0.0
C393 C 0.47394 0.04435 0.70057 0.0
C394 C 0.43953 0.03817 0.71633 0.0
H395 H 0.47092 0.03318 0.79798 0.0
H396 H 0.48814 0.03607 0.76898 0.0
H397 H 0.47023 0.06303 0.7845 0.0
H398 H 0.4509 0.08794 0.75116 0.0
H399 H 0.51202 0.09871 0.72375 0.0
H400 H 0.05054 0.49709 0.4133 0.0
H401 H 0.01935 0.48671 0.45027 0.0
H402 H 0.04043 0.56232 0.47178 0.0
H403 H 0.07146 0.57302 0.43461 0.0
H404 H 0.06255 0.49115 0.49272 0.0
H405 H 0.90025 0.54872 0.4862 0.0
H406 H 0.93602 0.54096 0.46215 0.0
H407 H 0.95465 0.56494 0.4811 0.0
C408 C 0.04864 0.51156 0.42587 0.0
C409 C 0.06327 0.53594 0.42096 0.0
C410 C 0.03082 0.50556 0.44701 0.0
C411 C 0.02693 0.52381 0.46365 0.0
C412 C 0.04236 0.54807 0.45902 0.0
H413 H 0.92433 0.52349 0.60011 0.0
H414 H 0.95515 0.53383 0.56307 0.0
C415 C 0.06034 0.55411 0.43783 0.0
C416 C 0.00686 0.51726 0.48583 0.0
H417 H 0.91446 0.52905 0.52102 0.0
C418 C 0.03011 0.49937 0.49892 0.0
C419 C 0.96449 0.52799 0.4938 0.0
C420 C 0.93706 0.54657 0.48005 0.0
C421 C 0.0126 0.49225 0.51998 0.0
C422 C 0.97016 0.50295 0.52795 0.0
C423 C 0.94691 0.52083 0.51484 0.0
C424 C 0.95006 0.49641 0.55015 0.0
C425 C 0.0403 0.4738 0.53376 0.0
C426 C 0.93604 0.47198 0.55506 0.0
C427 C 0.9184 0.46595 0.57631 0.0
C428 C 0.91423 0.48431 0.59294 0.0
C429 C 0.92718 0.50887 0.58772 0.0
C430 C 0.9448 0.51484 0.56654 0.0
H431 H 0.07734 0.47209 0.52782 0.0
H432 H 0.04069 0.47921 0.55172 0.0
H433 H 0.02345 0.45526 0.53241 0.0
H434 H 0.93888 0.45756 0.54248 0.0
H435 H 0.90855 0.4469 0.57977 0.0
H436 H 0.43723 0.02255 0.41253 0.0
H437 H 0.46878 0.03311 0.44938 0.0
H438 H 0.44758 0.95764 0.47135 0.0
H439 H 0.41626 0.94677 0.4343 0.0
H440 H 0.42615 0.0292 0.49176 0.0
H441 H 0.58757 0.97093 0.48572 0.0
H442 H 0.55172 0.97846 0.46163 0.0
H443 H 0.533 0.95478 0.4809 0.0
C444 C 0.43919 1.00815 0.42517 0.0
C445 C 0.42444 0.98376 0.42043 0.0
C446 C 0.45722 0.01425 0.44624 0.0
C447 C 0.46118 0.9961 0.46298 0.0
C448 C 0.44563 0.97183 0.45851 0.0
H449 H 0.56303 0.99727 0.59956 0.0
H450 H 0.5323 0.98672 0.56256 0.0
C451 C 0.42747 0.96568 0.43739 0.0
C452 C 0.48139 1.00277 0.48511 0.0
H453 H 0.57354 0.99086 0.52044 0.0
C454 C 0.45844 0.02089 0.49803 0.0
C455 C 0.52357 0.99191 0.49318 0.0
C456 C 0.55074 0.97309 0.4796 0.0
C457 C 0.47607 0.02813 0.51904 0.0
C458 C 0.5183 0.0173 0.52711 0.0
C459 C 0.54125 0.99919 0.51417 0.0
C460 C 0.53845 0.02394 0.54927 0.0
C461 C 0.44871 0.04687 0.53264 0.0
C462 C 0.55305 0.04833 0.55396 0.0
C463 C 0.57067 0.05448 0.57518 0.0
C464 C 0.57419 0.03629 0.59201 0.0
C465 C 0.56068 0.01177 0.58702 0.0
C466 C 0.5431 1.00567 0.56586 0.0
H467 H 0.41174 0.04877 0.52664 0.0
H468 H 0.44809 0.04159 0.55064 0.0
H469 H 0.466 0.06528 0.53118 0.0
H470 H 0.55066 0.06262 0.54123 0.0
H471 H 0.58096 0.0735 0.57846 0.0
H472 H 0.57113 0.44701 0.08179 0.0
H473 H 0.54036 0.45807 0.04469 0.0
H474 H 0.52258 0.53391 0.06625 0.0
H475 H 0.55247 0.52301 0.10334 0.0
H476 H 0.44377 0.51527 0.04493 0.0
H477 H 0.60521 0.49712 0.99476 0.0
H478 H 0.58643 0.4714 0.01172 0.0
H479 H 0.60622 0.49953 0.02493 0.0
C480 C 0.56103 0.46608 0.07856 0.0
C481 C 0.56434 0.48413 0.0955 0.0
C482 C 0.54365 0.4724 0.05732 0.0
C483 C 0.52971 0.49689 0.05263 0.0
C484 C 0.53324 0.51492 0.06949 0.0
H485 H 0.41005 0.57413 0.93712 0.0
H486 H 0.4405 0.5632 0.97432 0.0
C487 C 0.55043 0.50864 0.09068 0.0
C488 C 0.50984 0.5037 0.03044 0.0
H489 H 0.53507 0.50585 0.9745 0.0
C490 C 0.46377 0.51332 0.02953 0.0
C491 C 0.53604 0.50114 0.01039 0.0
C492 C 0.58637 0.49195 0.01042 0.0
C493 C 0.44289 0.52005 0.00906 0.0
C494 C 0.46904 0.51743 0.98901 0.0
C495 C 0.5151 0.50783 0.98992 0.0
C496 C 0.44909 0.52413 0.96683 0.0
C497 C 0.39266 0.52939 0.00899 0.0
C498 C 0.44432 0.50588 0.95025 0.0
C499 C 0.42715 0.51206 0.92903 0.0
C500 C 0.41461 0.5367 0.92389 0.0
C501 C 0.4191 0.55497 0.94059 0.0
C502 C 0.43633 0.54874 0.96187 0.0
H503 H 0.37396 0.52473 0.02482 0.0
H504 H 0.39279 0.5499 1.00717 0.0
H505 H 0.37258 0.52146 0.9947 0.0
H506 H 0.45406 0.4868 0.95372 0.0
H507 H 0.42423 0.49752 0.91658 0.0
H508 H 0.0652 0.02395 0.91607 0.0
H509 H 0.03545 0.03456 0.95324 0.0
H510 H 0.05038 0.95824 0.97394 0.0
H511 H 0.08075 0.94742 0.93671 0.0
H512 H 0.95483 0.01517 0.97399 0.0
H513 H 0.11598 0.99696 0.02447 0.0
H514 H 0.11743 1.00022 0.99436 0.0
H515 H 0.09768 0.97169 1.00684 0.0
C516 C 0.06263 1.00941 0.92856 0.0
C517 C 0.07548 0.98482 0.92343 0.0
C518 C 0.04551 0.01553 0.9498 0.0
C519 C 0.04111 0.99726 0.96641 0.0
C520 C 0.05427 0.97271 0.96147 0.0
H521 H 0.93628 0.997 0.1026 0.0
H522 H 0.96692 0.98658 0.06555 0.0
C523 C 0.07145 0.96654 0.94017 0.0
C524 C 0.02097 1.00385 0.98857 0.0
H525 H 0.04581 1.00586 0.04454 0.0
C526 C 0.97474 0.01323 0.98943 0.0
C527 C 0.04704 1.00128 0.00865 0.0
C528 C 0.09743 0.9922 0.00864 0.0
C529 C 0.95354 0.01972 0.00989 0.0
C530 C 0.97963 0.01718 0.02997 0.0
C531 C 0.02588 1.00781 0.02911 0.0
C532 C 0.95942 0.0237 0.05215 0.0
C533 C 0.90305 0.02866 0.00986 0.0
C534 C 0.94503 0.04809 0.05696 0.0
C535 C 0.92724 0.05413 0.07818 0.0
C536 C 0.92392 0.03591 0.09499 0.0
C537 C 0.93829 0.0115 0.09005 0.0
C538 C 0.95592 1.00549 0.06888 0.0
H539 H 0.88445 0.02356 0.99413 0.0
H540 H 0.8832 0.02083 0.02428 0.0
H541 H 0.9026 0.04919 0.01133 0.0
H542 H 0.94827 0.06255 0.04443 0.0
H543 H 0.91678 0.07312 0.0815 0.0
H544 H 0.168 0.65954 0.38551 0.0
H545 H 0.20003 0.70139 0.39167 0.0
H546 H 0.2172 0.71069 0.32034 0.0
H547 H 0.18602 0.66912 0.31407 0.0
H548 H 0.29806 0.72265 0.34536 0.0
H549 H 0.13759 0.76931 0.3791 0.0
H550 H 0.15585 0.74107 0.39269 0.0
H551 H 0.13475 0.74008 0.36434 0.0
C552 C 0.17825 0.67061 0.37115 0.0
C553 C 0.17447 0.66098 0.3493 0.0
C554 C 0.19637 0.69454 0.3747 0.0
C555 C 0.21069 0.70921 0.35644 0.0
C556 C 0.2064 0.69969 0.33467 0.0
H557 H 0.31095 0.84858 0.31393 0.0
H558 H 0.2851 0.80597 0.32015 0.0
C559 C 0.18846 0.67589 0.33112 0.0
C560 C 0.23177 0.73419 0.35964 0.0
H561 H 0.20542 0.79398 0.37422 0.0
C562 C 0.27797 0.73819 0.35192 0.0
C563 C 0.20564 0.7544 0.36835 0.0
C564 C 0.15559 0.75121 0.37649 0.0
C565 C 0.29813 0.76197 0.35189 0.0
C566 C 0.27121 0.78237 0.35955 0.0
C567 C 0.2259 0.77826 0.36834 0.0
C568 C 0.28768 0.80825 0.35632 0.0
C569 C 0.34774 0.76521 0.34317 0.0
C570 C 0.29712 0.82382 0.37465 0.0
C571 C 0.31217 0.84834 0.37115 0.0
C572 C 0.31732 0.85769 0.34925 0.0
C573 C 0.30749 0.842 0.33101 0.0
C574 C 0.29286 0.81757 0.33451 0.0
H575 H 0.36795 0.74754 0.34388 0.0
H576 H 0.34627 0.7713 0.32541 0.0
H577 H 0.36704 0.77957 0.35288 0.0
H578 H 0.29302 0.81697 0.39161 0.0
H579 H 0.31924 0.86001 0.38554 0.0
H580 H 0.81927 0.15946 0.13044 0.0
H581 H 0.79299 0.20253 0.12454 0.0
H582 H 0.78357 0.21291 0.19604 0.0
H583 H 0.80951 0.17028 0.20209 0.0
H584 H 0.70506 0.22535 0.14161 0.0
H585 H 0.86678 0.27156 0.17318 0.0
H586 H 0.86612 0.23959 0.16398 0.0
H587 H 0.84465 0.24766 0.19139 0.0
C588 C 0.81186 0.171 0.14487 0.0
C589 C 0.81664 0.16147 0.16673 0.0
C590 C 0.79676 0.19554 0.14147 0.0
C591 C 0.7869 0.21094 0.15987 0.0
C592 C 0.79167 0.20143 0.18163 0.0
H593 H 0.68435 0.34988 0.20235 0.0
H594 H 0.71548 0.30831 0.19606 0.0
C595 C 0.80636 0.177 0.18503 0.0
C596 C 0.77046 0.23684 0.15674 0.0
H597 H 0.79692 0.29645 0.17147 0.0
C598 C 0.72538 0.24102 0.14771 0.0
C599 C 0.79716 0.25718 0.16469 0.0
C600 C 0.84657 0.25388 0.17367 0.0
C601 C 0.7051 0.26488 0.14774 0.0
C602 C 0.731 0.28502 0.15673 0.0
C603 C 0.777 0.28096 0.1647 0.0
C604 C 0.70987 0.30999 0.15993 0.0
C605 C 0.65527 0.26814 0.13932 0.0
C606 C 0.69605 0.32478 0.14167 0.0
C607 C 0.67796 0.34872 0.14522 0.0
C608 C 0.67371 0.35824 0.16709 0.0
C609 C 0.68717 0.3432 0.18528 0.0
C610 C 0.70507 0.3194 0.18173 0.0
H611 H 0.63733 0.25006 0.13652 0.0
H612 H 0.63413 0.2792 0.1514 0.0
H613 H 0.65596 0.27837 0.12317 0.0
H614 H 0.7001 0.31803 0.12468 0.0
H615 H 0.66812 0.35989 0.13086 0.0
H616 H 0.66934 0.1606 0.6279 0.0
H617 H 0.70379 0.202 0.62184 0.0
H618 H 0.71587 0.21202 0.6933 0.0
H619 H 0.68187 0.17104 0.69951 0.0
H620 H 0.67315 0.2504 0.6394 0.0
H621 H 0.85159 0.22346 0.66875 0.0
H622 H 0.80779 0.20097 0.66024 0.0
H623 H 0.8052 0.2147 0.68769 0.0
C624 C 0.67915 0.1717 0.6423 0.0
C625 C 0.67315 0.16244 0.66418 0.0
C626 C 0.69883 0.19531 0.6388 0.0
C627 C 0.71312 0.20984 0.65712 0.0
C628 C 0.70589 0.2009 0.67893 0.0
H629 H 0.81877 0.34765 0.69961 0.0
H630 H 0.79093 0.30549 0.69297 0.0
C631 C 0.68622 0.17748 0.68243 0.0
C632 C 0.73573 0.2344 0.65387 0.0
H633 H 0.83488 0.26704 0.66763 0.0
C634 C 0.70883 0.25403 0.64513 0.0
C635 C 0.78234 0.23899 0.66129 0.0
C636 C 0.81364 0.21837 0.66982 0.0
C637 C 0.72632 0.27849 0.64498 0.0
C638 C 0.77207 0.28324 0.65351 0.0
C639 C 0.79976 0.26337 0.66117 0.0
C640 C 0.79004 0.30884 0.65685 0.0
C641 C 0.69486 0.29925 0.63691 0.0
C642 C 0.79946 0.32468 0.63867 0.0
C643 C 0.81559 0.34896 0.64241 0.0
C644 C 0.8225 0.35772 0.6644 0.0
C645 C 0.81374 0.34158 0.68246 0.0
C646 C 0.79784 0.31742 0.67872 0.0
H647 H 0.65804 0.29292 0.63397 0.0
H648 H 0.69433 0.31464 0.64929 0.0
H649 H 0.70895 0.30673 0.62092 0.0
H650 H 0.79432 0.31828 0.62164 0.0
H651 H 0.82209 0.36092 0.62815 0.0
H652 H 0.31069 0.67208 0.81675 0.0
H653 H 0.27809 0.71333 0.82317 0.0
H654 H 0.28864 0.70237 0.89459 0.0
H655 H 0.32173 0.66075 0.88831 0.0
H656 H 0.19291 0.72301 0.84855 0.0
H657 H 0.35082 0.77184 0.88268 0.0
H658 H 0.35574 0.74352 0.86663 0.0
H659 H 0.33462 0.74248 0.89495 0.0
C660 C 0.30655 0.67842 0.83386 0.0
C661 C 0.31882 0.66307 0.85203 0.0
C662 C 0.28781 0.70203 0.83748 0.0
C663 C 0.28113 0.71094 0.85932 0.0
C664 C 0.29402 0.69593 0.87758 0.0
H665 H 0.17075 0.86131 0.88799 0.0
H666 H 0.19828 0.81854 0.89424 0.0
C667 C 0.3128 0.67215 0.87397 0.0
C668 C 0.25875 0.73557 0.86257 0.0
H669 H 0.28242 0.79575 0.87676 0.0
C670 C 0.21227 0.73886 0.85499 0.0
C671 C 0.28396 0.75614 0.87115 0.0
C672 C 0.33415 0.75355 0.87925 0.0
C673 C 0.19088 0.76235 0.85498 0.0
C674 C 0.21695 0.78318 0.86238 0.0
C675 C 0.26259 0.77973 0.87105 0.0
C676 C 0.19921 0.80884 0.85906 0.0
C677 C 0.1408 0.76473 0.84662 0.0
C678 C 0.19109 0.81756 0.83725 0.0
C679 C 0.17557 0.84182 0.83364 0.0
C680 C 0.16793 0.85799 0.85178 0.0
C681 C 0.17604 0.84926 0.87369 0.0
C682 C 0.19186 0.82488 0.87728 0.0
H683 H 0.1213 0.74692 0.84824 0.0
H684 H 0.12133 0.77936 0.85593 0.0
H685 H 0.14134 0.76988 0.82861 0.0
H686 H 0.19739 0.80566 0.82292 0.0
H687 H 0.16991 0.84792 0.81655 0.0
loop_
_geom_bond_atom_site_label_1
_geom_bond_atom_site_label_2
_geom_bond_distance
_geom_bond_site_symmetry_2
_ccdc_geom_bond_type
O0 Cd1 2.223 . S
O0 C8 1.315 . S
Cd1 O0 2.223 . S
Cd1 O4 2.297 . S
Cd1 O5 2.439 . S
Cd1 O11 2.240 . S
Cd2 O3 2.240 . S
Cd2 O10 2.223 . S
Cd2 O12 2.297 . S
Cd2 O13 2.439 . S
O3 Cd2 2.240 . S
O3 C8 1.279 . S
O4 Cd1 2.297 . S
O4 C6 1.247 . S
O5 Cd1 2.439 . S
O5 C6 1.208 . S
C6 O4 1.247 . S
C6 O5 1.208 . S
C7 O12 1.247 . S
C7 O13 1.208 . S
C8 O0 1.315 . S
C8 O3 1.279 . S
C9 O10 1.315 . S
C9 O11 1.279 . S
O10 Cd2 2.223 . S
O10 C9 1.315 . S
O11 Cd1 2.240 . S
O11 C9 1.279 . S
O12 Cd2 2.297 . S
O12 C7 1.247 . S
O13 Cd2 2.439 . S
O13 C7 1.208 . S
O14 Cd15 2.223 . S
O14 C22 1.315 . S
Cd15 O14 2.223 . S
Cd15 O18 2.297 . S
Cd15 O19 2.439 . S
Cd15 O25 2.240 . S
Cd16 O17 2.240 . S
Cd16 O24 2.223 . S
Cd16 O26 2.297 . S
Cd16 O27 2.439 . S
O17 Cd16 2.240 . S
O17 C22 1.279 . S
O18 Cd15 2.297 . S
O18 C20 1.247 . S
O19 Cd15 2.439 . S
O19 C20 1.208 . S
C20 O18 1.247 . S
C20 O19 1.208 . S
C21 O26 1.247 . S
C21 O27 1.208 . S
C22 O14 1.315 . S
C22 O17 1.279 . S
C23 O24 1.315 . S
C23 O25 1.279 . S
O24 Cd16 2.223 . S
O24 C23 1.315 . S
O25 Cd15 2.240 . S
O25 C23 1.279 . S
O26 Cd16 2.297 . S
O26 C21 1.247 . S
O27 Cd16 2.439 . S
O27 C21 1.208 . S
O28 Cd29 2.223 . S
O28 C36 1.315 . S
Cd29 O28 2.223 . S
Cd29 O32 2.297 . S
Cd29 O33 2.439 . S
Cd29 O39 2.240 . S
Cd30 O31 2.240 . S
Cd30 O38 2.223 . S
Cd30 O40 2.297 . S
Cd30 O41 2.439 . S
O31 Cd30 2.240 . S
O31 C36 1.279 . S
O32 Cd29 2.297 . S
O32 C34 1.247 . S
O33 Cd29 2.439 . S
O33 C34 1.208 . S
C34 O32 1.247 . S
C34 O33 1.208 . S
C35 O40 1.247 . S
C35 O41 1.208 . S
C36 O28 1.315 . S
C36 O31 1.279 . S
C37 O38 1.315 . S
C37 O39 1.279 . S
O38 Cd30 2.223 . S
O38 C37 1.315 . S
O39 Cd29 2.240 . S
O39 C37 1.279 . S
O40 Cd30 2.297 . S
O40 C35 1.247 . S
O41 Cd30 2.439 . S
O41 C35 1.208 . S
O42 Cd43 2.223 . S
O42 C50 1.315 . S
Cd43 O42 2.223 . S
Cd43 O46 2.297 . S
Cd43 O47 2.439 . S
Cd43 O53 2.240 . S
Cd44 O45 2.240 . S
Cd44 O52 2.223 . S
Cd44 O54 2.297 . S
Cd44 O55 2.439 . S
O45 Cd44 2.240 . S
O45 C50 1.279 . S
O46 Cd43 2.297 . S
O46 C48 1.247 . S
O47 Cd43 2.439 . S
O47 C48 1.208 . S
C48 O46 1.247 . S
C48 O47 1.208 . S
C49 O54 1.247 . S
C49 O55 1.208 . S
C50 O42 1.315 . S
C50 O45 1.279 . S
C51 O52 1.315 . S
C51 O53 1.279 . S
O52 Cd44 2.223 . S
O52 C51 1.315 . S
O53 Cd43 2.240 . S
O53 C51 1.279 . S
O54 Cd44 2.297 . S
O54 C49 1.247 . S
O55 Cd44 2.439 . S
O55 C49 1.208 . S
O56 Cd57 2.223 . S
O56 C64 1.315 . S
Cd57 O56 2.223 . S
Cd57 O60 2.297 . S
Cd57 O61 2.439 . S
Cd57 O67 2.240 . S
Cd58 O59 2.240 . S
Cd58 O66 2.223 . S
Cd58 O68 2.297 . S
Cd58 O69 2.439 . S
O59 Cd58 2.240 . S
O59 C64 1.279 . S
O60 Cd57 2.297 . S
O60 C62 1.247 . S
O61 Cd57 2.439 . S
O61 C62 1.208 . S
C62 O60 1.247 . S
C62 O61 1.208 . S
C63 O68 1.247 . S
C63 O69 1.208 . S
C64 O56 1.315 . S
C64 O59 1.279 . S
C65 O66 1.315 . S
C65 O67 1.279 . S
O66 Cd58 2.223 . S
O66 C65 1.315 . S
O67 Cd57 2.240 . S
O67 C65 1.279 . S
O68 Cd58 2.297 . S
O68 C63 1.247 . S
O69 Cd58 2.439 . S
O69 C63 1.208 . S
O70 Cd71 2.223 . S
O70 C78 1.315 . S
Cd71 O70 2.223 . S
Cd71 O74 2.297 . S
Cd71 O75 2.439 . S
Cd71 O81 2.240 . S
Cd72 O73 2.240 . S
Cd72 O80 2.223 . S
Cd72 O82 2.297 . S
Cd72 O83 2.439 . S
O73 Cd72 2.240 . S
O73 C78 1.279 . S
O74 Cd71 2.297 . S
O74 C76 1.247 . S
O75 Cd71 2.439 . S
O75 C76 1.208 . S
C76 O74 1.247 . S
C76 O75 1.208 . S
C77 O82 1.247 . S
C77 O83 1.208 . S
C78 O70 1.315 . S
C78 O73 1.279 . S
C79 O80 1.315 . S
C79 O81 1.279 . S
O80 Cd72 2.223 . S
O80 C79 1.315 . S
O81 Cd71 2.240 . S
O81 C79 1.279 . S
O82 Cd72 2.297 . S
O82 C77 1.247 . S
O83 Cd72 2.439 . S
O83 C77 1.208 . S
O84 Cd85 2.223 . S
O84 C92 1.315 . S
Cd85 O84 2.223 . S
Cd85 O88 2.297 . S
Cd85 O89 2.439 . S
Cd85 O95 2.240 . S
Cd86 O87 2.240 . S
Cd86 O94 2.223 . S
Cd86 O96 2.297 . S
Cd86 O97 2.439 . S
O87 Cd86 2.240 . S
O87 C92 1.279 . S
O88 Cd85 2.297 . S
O88 C90 1.247 . S
O89 Cd85 2.439 . S
O89 C90 1.208 . S
C90 O88 1.247 . S
C90 O89 1.208 . S
C91 O96 1.247 . S
C91 O97 1.208 . S
C92 O84 1.315 . S
C92 O87 1.279 . S
C93 O94 1.315 . S
C93 O95 1.279 . S
O94 Cd86 2.223 . S
O94 C93 1.315 . S
O95 Cd85 2.240 . S
O95 C93 1.279 . S
O96 Cd86 2.297 . S
O96 C91 1.247 . S
O97 Cd86 2.439 . S
O97 C91 1.208 . S
O98 Cd99 2.223 . S
O98 C106 1.315 . S
Cd99 O98 2.223 . S
Cd99 O102 2.297 . S
Cd99 O103 2.439 . S
Cd99 O109 2.240 . S
Cd100 O101 2.240 . S
Cd100 O108 2.223 . S
Cd100 O110 2.297 . S
Cd100 O111 2.439 . S
O101 Cd100 2.240 . S
O101 C106 1.279 . S
O102 Cd99 2.297 . S
O102 C104 1.247 . S
O103 Cd99 2.439 . S
O103 C104 1.208 . S
C104 O102 1.247 . S
C104 O103 1.208 . S
C105 O110 1.247 . S
C105 O111 1.208 . S
C106 O98 1.315 . S
C106 O101 1.279 . S
C107 O108 1.315 . S
C107 O109 1.279 . S
O108 Cd100 2.223 . S
O108 C107 1.315 . S
O109 Cd99 2.240 . S
O109 C107 1.279 . S
O110 Cd100 2.297 . S
O110 C105 1.247 . S
O111 Cd100 2.439 . S
O111 C105 1.208 . S
H112 C120 0.929 . S
H113 C122 0.930 . S
H114 C124 0.930 . S
H115 C127 0.929 . S
H116 C130 0.930 . S
H117 C132 0.960 . S
H118 C132 0.960 . S
H119 C132 0.960 . S
C120 H112 0.929 . S
C120 C121 1.377 . S
C120 C122 1.384 . S
C121 C120 1.377 . S
C121 C127 1.390 . S
C122 H113 0.930 . S
C122 C120 1.384 . S
C122 C123 1.372 . S
C123 C122 1.372 . S
C123 C124 1.400 . S
C123 C128 1.490 . S
C124 H114 0.930 . S
C124 C123 1.400 . S
C124 C127 1.386 . S
H125 C141 0.930 . S
H126 C142 0.931 . S
C127 H115 0.929 . S
C127 C121 1.390 . S
C127 C124 1.386 . S
C128 C123 1.490 . S
C128 C130 1.395 . S
C128 C131 1.403 . S
H129 C135 0.930 . S
C130 H116 0.930 . S
C130 C128 1.395 . S
C130 C133 1.403 . S
C131 C128 1.403 . S
C131 C132 1.524 . S
C131 C135 1.400 . S
C132 H117 0.960 . S
C132 H118 0.960 . S
C132 H119 0.960 . S
C132 C131 1.524 . S
C133 C130 1.403 . S
C133 C134 1.392 . S
C133 C137 1.495 . S
C134 C133 1.392 . S
C134 C135 1.385 . S
C134 C136 1.478 . S
C135 H129 0.930 . S
C135 C131 1.400 . S
C135 C134 1.385 . S
C136 C134 1.478 . S
C136 C138 1.381 . S
C136 C142 1.383 . S
C137 C133 1.495 . S
C137 H143 0.959 . S
C137 H144 0.961 . S
C137 H145 0.960 . S
C138 C136 1.381 . S
C138 C139 1.394 . S
C138 H146 0.930 . S
C139 C138 1.394 . S
C139 C140 1.383 . S
C139 H147 0.929 . S
C140 C139 1.383 . S
C140 C141 1.377 . S
C141 H125 0.930 . S
C141 C140 1.377 . S
C141 C142 1.379 . S
C142 H126 0.931 . S
C142 C136 1.383 . S
C142 C141 1.379 . S
H143 C137 0.959 . S
H144 C137 0.961 . S
H145 C137 0.960 . S
H146 C138 0.930 . S
H147 C139 0.929 . S
H148 C156 0.929 . S
H149 C158 0.930 1_655 S
H150 C160 0.930 . S
H151 C163 0.929 . S
H152 C166 0.930 . S
H153 C168 0.960 . S
H154 C168 0.960 . S
H155 C168 0.960 . S
C156 H148 0.929 . S
C156 C157 1.377 . S
C156 C158 1.384 1_655 S
C157 C156 1.377 . S
C157 C163 1.390 1_655 S
C158 H149 0.930 1_455 S
C158 C156 1.384 1_455 S
C158 C159 1.372 . S
C159 C158 1.372 . S
C159 C160 1.400 . S
C159 C164 1.490 . S
C160 H150 0.930 . S
C160 C159 1.400 . S
C160 C163 1.386 . S
H161 C177 0.930 . S
H162 C178 0.931 . S
C163 H151 0.929 . S
C163 C157 1.390 1_455 S
C163 C160 1.386 . S
C164 C159 1.490 . S
C164 C166 1.395 1_545 S
C164 C167 1.403 . S
H165 C171 0.930 . S
C166 H152 0.930 . S
C166 C164 1.395 1_565 S
C166 C169 1.403 . S
C167 C164 1.403 . S
C167 C168 1.524 . S
C167 C171 1.400 . S
C168 H153 0.960 . S
C168 H154 0.960 . S
C168 H155 0.960 . S
C168 C167 1.524 . S
C169 C166 1.403 . S
C169 C170 1.392 . S
C169 C173 1.495 . S
C170 C169 1.392 . S
C170 C171 1.385 1_565 S
C170 C172 1.478 . S
C171 H165 0.930 . S
C171 C167 1.400 . S
C171 C170 1.385 1_545 S
C172 C170 1.478 . S
C172 C174 1.381 . S
C172 C178 1.383 . S
C173 C169 1.495 . S
C173 H179 0.959 . S
C173 H180 0.961 . S
C173 H181 0.960 . S
C174 C172 1.381 . S
C174 C175 1.394 . S
C174 H182 0.930 . S
C175 C174 1.394 . S
C175 C176 1.383 . S
C175 H183 0.929 . S
C176 C175 1.383 . S
C176 C177 1.377 . S
C177 H161 0.930 . S
C177 C176 1.377 . S
C177 C178 1.379 . S
C178 H162 0.931 . S
C178 C172 1.383 . S
C178 C177 1.379 . S
H179 C173 0.959 . S
H180 C173 0.961 . S
H181 C173 0.960 . S
H182 C174 0.930 . S
H183 C175 0.929 . S
H184 C192 0.929 . S
H185 C194 0.930 . S
H186 C196 0.930 . S
H187 C199 0.929 . S
H188 C202 0.930 . S
H189 C204 0.960 . S
H190 C204 0.960 . S
H191 C204 0.960 . S
C192 H184 0.929 . S
C192 C193 1.377 . S
C192 C194 1.384 . S
C193 C192 1.377 . S
C193 C199 1.390 . S
C194 H185 0.930 . S
C194 C192 1.384 . S
C194 C195 1.372 . S
C195 C194 1.372 . S
C195 C196 1.400 . S
C195 C200 1.490 . S
C196 H186 0.930 . S
C196 C195 1.400 . S
C196 C199 1.386 . S
H197 C213 0.930 . S
H198 C214 0.931 . S
C199 H187 0.929 . S
C199 C193 1.390 . S
C199 C196 1.386 . S
C200 C195 1.490 . S
C200 C202 1.395 . S
C200 C203 1.403 . S
H201 C207 0.930 . S
C202 H188 0.930 . S
C202 C200 1.395 . S
C202 C205 1.403 . S
C203 C200 1.403 . S
C203 C204 1.524 . S
C203 C207 1.400 . S
C204 H189 0.960 . S
C204 H190 0.960 . S
C204 H191 0.960 . S
C204 C203 1.524 . S
C205 C202 1.403 . S
C205 C206 1.392 . S
C205 C209 1.495 . S
C206 C205 1.392 . S
C206 C207 1.385 . S
C206 C208 1.478 . S
C207 H201 0.930 . S
C207 C203 1.400 . S
C207 C206 1.385 . S
C208 C206 1.478 . S
C208 C210 1.381 . S
C208 C214 1.383 . S
C209 C205 1.495 . S
C209 H215 0.959 . S
C209 H216 0.961 . S
C209 H217 0.960 . S
C210 C208 1.381 . S
C210 C211 1.394 . S
C210 H218 0.930 . S
C211 C210 1.394 . S
C211 C212 1.383 1_655 S
C211 H219 0.929 1_655 S
C212 C211 1.383 1_455 S
C212 C213 1.377 . S
C213 H197 0.930 . S
C213 C212 1.377 . S
C213 C214 1.379 1_455 S
C214 H198 0.931 . S
C214 C208 1.383 . S
C214 C213 1.379 1_655 S
H215 C209 0.959 . S
H216 C209 0.961 . S
H217 C209 0.960 . S
H218 C210 0.930 . S
H219 C211 0.929 1_455 S
H220 C228 0.929 . S
H221 C230 0.930 1_565 S
H222 C232 0.930 . S
H223 C235 0.929 . S
H224 C238 0.930 . S
H225 C240 0.960 . S
H226 C240 0.958 1_565 S
H227 C240 0.960 . S
C228 H220 0.929 . S
C228 C229 1.377 . S
C228 C230 1.384 . S
C229 C228 1.377 . S
C229 C235 1.390 . S
C230 H221 0.930 1_545 S
C230 C228 1.384 . S
C230 C231 1.372 . S
C231 C230 1.372 . S
C231 C232 1.400 . S
C231 C236 1.490 . S
C232 H222 0.930 . S
C232 C231 1.400 . S
C232 C235 1.386 . S
H233 C249 0.929 . S
H234 C250 0.886 1_545 S
C235 H223 0.929 . S
C235 C229 1.390 . S
C235 C232 1.386 . S
C236 C231 1.490 . S
C236 C238 1.395 . S
C236 C239 1.403 . S
H237 C243 0.930 . S
C238 H224 0.930 . S
C238 C236 1.395 . S
C238 C241 1.403 1_545 S
C239 C236 1.403 . S
C239 C240 1.524 . S
C239 C243 1.400 1_545 S
C240 H225 0.960 . S
C240 H226 0.958 1_545 S
C240 H227 0.960 . S
C240 C239 1.524 . S
C241 C238 1.403 1_565 S
C241 C242 1.392 . S
C241 C245 1.495 . S
C242 C241 1.392 . S
C242 C243 1.385 . S
C242 C244 1.478 . S
C243 H237 0.930 . S
C243 C239 1.400 1_565 S
C243 C242 1.385 . S
C244 C242 1.478 . S
C244 C246 1.381 . S
C244 C250 1.410 . S
C245 C241 1.495 . S
C245 H251 0.959 . S
C245 H252 0.961 1_565 S
C245 H253 0.960 . S
C246 C244 1.381 . S
C246 C247 1.394 . S
C246 H254 0.930 . S
C247 C246 1.394 . S
C247 C248 1.383 . S
C247 H255 0.929 . S
C248 C247 1.383 . S
C248 C249 1.377 . S
C249 H233 0.929 . S
C249 C248 1.377 . S
C249 C250 1.397 . S
C250 H234 0.886 1_565 S
C250 C244 1.410 . S
C250 C249 1.397 . S
H251 C245 0.959 . S
H252 C245 0.961 1_545 S
H253 C245 0.960 . S
H254 C246 0.930 . S
H255 C247 0.929 . S
H256 C264 0.929 . S
H257 C266 0.930 . S
H258 C268 0.930 . S
H259 C271 0.929 . S
H260 C274 0.930 . S
H261 C276 0.960 . S
H262 C276 0.960 . S
H263 C276 0.960 . S
C264 H256 0.929 . S
C264 C265 1.377 . S
C264 C266 1.384 . S
C265 C264 1.377 . S
C265 C271 1.390 . S
C266 H257 0.930 . S
C266 C264 1.384 . S
C266 C267 1.372 . S
C267 C266 1.372 . S
C267 C268 1.400 . S
C267 C272 1.490 . S
C268 H258 0.930 . S
C268 C267 1.400 . S
C268 C271 1.386 . S
H269 C285 0.930 . S
H270 C286 0.931 . S
C271 H259 0.929 . S
C271 C265 1.390 . S
C271 C268 1.386 . S
C272 C267 1.490 . S
C272 C274 1.395 . S
C272 C275 1.403 . S
H273 C279 0.930 . S
C274 H260 0.930 . S
C274 C272 1.395 . S
C274 C277 1.403 . S
C275 C272 1.403 . S
C275 C276 1.524 . S
C275 C279 1.400 . S
C276 H261 0.960 . S
C276 H262 0.960 . S
C276 H263 0.960 . S
C276 C275 1.524 . S
C277 C274 1.403 . S
C277 C278 1.392 . S
C277 C281 1.495 . S
C278 C277 1.392 . S
C278 C279 1.385 . S
C278 C280 1.478 . S
C279 H273 0.930 . S
C279 C275 1.400 . S
C279 C278 1.385 . S
C280 C278 1.478 . S
C280 C282 1.381 . S
C280 C286 1.383 . S
C281 C277 1.495 . S
C281 H287 0.959 . S
C281 H288 0.961 . S
C281 H289 0.960 . S
C282 C280 1.381 . S
C282 C283 1.394 . S
C282 H290 0.930 . S
C283 C282 1.394 . S
C283 C284 1.383 . S
C283 H291 0.929 . S
C284 C283 1.383 . S
C284 C285 1.377 . S
C285 H269 0.930 . S
C285 C284 1.377 . S
C285 C286 1.379 . S
C286 H270 0.931 . S
C286 C280 1.383 . S
C286 C285 1.379 . S
H287 C281 0.959 . S
H288 C281 0.961 . S
H289 C281 0.960 . S
H290 C282 0.930 . S
H291 C283 0.929 . S
H292 C300 0.929 . S
H293 C302 0.930 1_565 S
H294 C304 0.930 . S
H295 C307 0.929 . S
H296 C310 0.930 . S
H297 C312 0.960 . S
H298 C312 0.960 . S
H299 C312 0.960 . S
C300 H292 0.929 . S
C300 C301 1.377 . S
C300 C302 1.384 . S
C301 C300 1.377 . S
C301 C307 1.390 . S
C302 H293 0.930 1_545 S
C302 C300 1.384 . S
C302 C303 1.372 . S
C303 C302 1.372 . S
C303 C304 1.400 . S
C303 C308 1.490 . S
C304 H294 0.930 . S
C304 C303 1.400 . S
C304 C307 1.386 . S
H305 C321 0.930 . S
H306 C322 0.931 1_545 S
C307 H295 0.929 . S
C307 C301 1.390 . S
C307 C304 1.386 . S
C308 C303 1.490 . S
C308 C310 1.395 1_545 S
C308 C311 1.403 . S
H309 C315 0.930 . S
C310 H296 0.930 . S
C310 C308 1.395 1_565 S
C310 C313 1.403 . S
C311 C308 1.403 . S
C311 C312 1.524 . S
C311 C315 1.400 . S
C312 H297 0.960 . S
C312 H298 0.960 . S
C312 H299 0.960 . S
C312 C311 1.524 . S
C313 C310 1.403 . S
C313 C314 1.392 . S
C313 C317 1.495 . S
C314 C313 1.392 . S
C314 C315 1.385 1_565 S
C314 C316 1.478 . S
C315 H309 0.930 . S
C315 C311 1.400 . S
C315 C314 1.385 1_545 S
C316 C314 1.478 . S
C316 C318 1.381 . S
C316 C322 1.383 . S
C317 C313 1.495 . S
C317 H323 0.959 . S
C317 H324 0.961 . S
C317 H325 0.960 . S
C318 C316 1.381 . S
C318 C319 1.394 . S
C318 H326 0.930 . S
C319 C318 1.394 . S
C319 C320 1.383 1_655 S
C319 H327 0.929 . S
C320 C319 1.383 1_455 S
C320 C321 1.377 . S
C321 H305 0.930 . S
C321 C320 1.377 . S
C321 C322 1.379 1_455 S
C322 H306 0.931 1_565 S
C322 C316 1.383 . S
C322 C321 1.379 1_655 S
H323 C317 0.959 . S
H324 C317 0.961 . S
H325 C317 0.960 . S
H326 C318 0.930 . S
H327 C319 0.929 . S
H328 C336 0.929 . S
H329 C338 0.930 . S
H330 C340 0.930 . S
H331 C343 0.929 . S
H332 C346 0.930 . S
H333 C348 0.960 . S
H334 C348 0.960 . S
H335 C348 0.960 . S
C336 H328 0.929 . S
C336 C337 1.377 . S
C336 C338 1.384 . S
C337 C336 1.377 . S
C337 C343 1.390 . S
C338 H329 0.930 . S
C338 C336 1.384 . S
C338 C339 1.372 . S
C339 C338 1.372 . S
C339 C340 1.400 . S
C339 C344 1.490 . S
C340 H330 0.930 . S
C340 C339 1.400 . S
C340 C343 1.386 . S
H341 C357 0.930 . S
H342 C358 0.931 . S
C343 H331 0.929 . S
C343 C337 1.390 . S
C343 C340 1.386 . S
C344 C339 1.490 . S
C344 C346 1.395 . S
C344 C347 1.403 . S
H345 C351 0.930 . S
C346 H332 0.930 . S
C346 C344 1.395 . S
C346 C349 1.403 . S
C347 C344 1.403 . S
C347 C348 1.524 . S
C347 C351 1.400 . S
C348 H333 0.960 . S
C348 H334 0.960 . S
C348 H335 0.960 . S
C348 C347 1.524 . S
C349 C346 1.403 . S
C349 C350 1.392 . S
C349 C353 1.495 . S
C350 C349 1.392 . S
C350 C351 1.385 . S
C350 C352 1.478 . S
C351 H345 0.930 . S
C351 C347 1.400 . S
C351 C350 1.385 . S
C352 C350 1.478 . S
C352 C354 1.372 1_455 S
C352 C358 1.383 . S
C353 C349 1.495 . S
C353 H359 0.959 . S
C353 H360 0.961 . S
C353 H361 0.960 . S
C354 C352 1.372 1_655 S
C354 C355 1.401 . S
C354 H362 0.933 . S
C355 C354 1.401 . S
C355 C356 1.383 . S
C355 H363 0.929 . S
C356 C355 1.383 . S
C356 C357 1.377 1_655 S
C357 H341 0.930 . S
C357 C356 1.377 1_455 S
C357 C358 1.379 . S
C358 H342 0.931 . S
C358 C352 1.383 . S
C358 C357 1.379 . S
H359 C353 0.959 . S
H360 C353 0.961 . S
H361 C353 0.960 . S
H362 C354 0.933 . S
H363 C355 0.929 . S
H364 C372 0.929 . S
H365 C374 0.905 1_545 S
H366 C376 0.930 . S
H367 C379 0.929 . S
H368 C382 0.930 . S
H369 C384 0.960 . S
H370 C384 0.960 . S
H371 C384 0.960 . S
C372 H364 0.929 . S
C372 C373 1.377 . S
C372 C374 1.384 . S
C373 C372 1.377 . S
C373 C379 1.390 . S
C374 H365 0.905 1_565 S
C374 C372 1.384 . S
C374 C375 1.372 . S
C375 C374 1.372 . S
C375 C376 1.400 . S
C375 C380 1.490 . S
C376 H366 0.930 . S
C376 C375 1.400 . S
C376 C379 1.386 . S
H377 C393 0.930 . S
H378 C394 0.931 1_565 S
C379 H367 0.929 . S
C379 C373 1.390 . S
C379 C376 1.386 . S
C380 C375 1.490 . S
C380 C382 1.395 1_565 S
C380 C383 1.403 . S
H381 C387 0.930 . S
C382 H368 0.930 . S
C382 C380 1.395 1_545 S
C382 C385 1.403 . S
C383 C380 1.403 . S
C383 C384 1.524 . S
C383 C387 1.400 . S
C384 H369 0.960 . S
C384 H370 0.960 . S
C384 H371 0.960 . S
C384 C383 1.524 . S
C385 C382 1.403 . S
C385 C386 1.392 . S
C385 C389 1.495 . S
C386 C385 1.392 . S
C386 C387 1.385 1_545 S
C386 C388 1.478 . S
C387 H381 0.930 . S
C387 C383 1.400 . S
C387 C386 1.385 1_565 S
C388 C386 1.478 . S
C388 C390 1.381 . S
C388 C394 1.383 . S
C389 C385 1.495 . S
C389 H395 0.959 . S
C389 H396 0.961 . S
C389 H397 0.960 . S
C390 C388 1.381 . S
C390 C391 1.394 . S
C390 H398 0.930 . S
C391 C390 1.394 . S
C391 C392 1.383 . S
C391 H399 0.929 . S
C392 C391 1.383 . S
C392 C393 1.377 . S
C393 H377 0.930 . S
C393 C392 1.377 . S
C393 C394 1.379 . S
C394 H378 0.931 1_545 S
C394 C388 1.383 . S
C394 C393 1.379 . S
H395 C389 0.959 . S
H396 C389 0.961 . S
H397 C389 0.960 . S
H398 C390 0.930 . S
H399 C391 0.929 . S
H400 C408 0.929 . S
H401 C410 0.930 . S
H402 C412 0.930 . S
H403 C415 0.929 . S
H404 C418 0.930 . S
H405 C420 0.960 . S
H406 C420 0.960 . S
H407 C420 0.960 . S
C408 H400 0.929 . S
C408 C409 1.377 . S
C408 C410 1.384 . S
C409 C408 1.377 . S
C409 C415 1.390 . S
C410 H401 0.930 . S
C410 C408 1.384 . S
C410 C411 1.372 . S
C411 C410 1.372 . S
C411 C412 1.400 . S
C411 C416 1.490 . S
C412 H402 0.930 . S
C412 C411 1.400 . S
C412 C415 1.386 . S
H413 C429 0.930 . S
H414 C430 0.931 1_455 S
C415 H403 0.929 . S
C415 C409 1.390 . S
C415 C412 1.386 . S
C416 C411 1.490 . S
C416 C418 1.395 . S
C416 C419 1.403 1_455 S
H417 C423 0.930 . S
C418 H404 0.930 . S
C418 C416 1.395 . S
C418 C421 1.403 . S
C419 C416 1.403 1_655 S
C419 C420 1.524 . S
C419 C423 1.400 . S
C420 H405 0.960 . S
C420 H406 0.960 . S
C420 H407 0.960 . S
C420 C419 1.524 . S
C421 C418 1.403 . S
C421 C422 1.392 1_455 S
C421 C425 1.495 . S
C422 C421 1.392 1_655 S
C422 C423 1.385 . S
C422 C424 1.478 . S
C423 H417 0.930 . S
C423 C419 1.400 . S
C423 C422 1.385 . S
C424 C422 1.478 . S
C424 C426 1.381 . S
C424 C430 1.383 . S
C425 C421 1.495 . S
C425 H431 0.959 . S
C425 H432 0.961 . S
C425 H433 0.960 . S
C426 C424 1.381 . S
C426 C427 1.394 . S
C426 H434 0.930 . S
C427 C426 1.394 . S
C427 C428 1.383 . S
C427 H435 0.929 . S
C428 C427 1.383 . S
C428 C429 1.377 . S
C429 H413 0.930 . S
C429 C428 1.377 . S
C429 C430 1.379 . S
C430 H414 0.931 1_655 S
C430 C424 1.383 . S
C430 C429 1.379 . S
H431 C425 0.959 . S
H432 C425 0.961 . S
H433 C425 0.960 . S
H434 C426 0.930 . S
H435 C427 0.929 . S
H436 C444 0.929 . S
H437 C446 0.930 . S
H438 C448 0.930 . S
H439 C451 0.929 . S
H440 C454 0.930 . S
H441 C456 0.960 . S
H442 C456 0.960 . S
H443 C456 0.960 . S
C444 H436 0.929 . S
C444 C445 1.377 . S
C444 C446 1.384 . S
C445 C444 1.377 . S
C445 C451 1.390 . S
C446 H437 0.930 . S
C446 C444 1.384 . S
C446 C447 1.372 . S
C447 C446 1.372 . S
C447 C448 1.400 . S
C447 C452 1.490 . S
C448 H438 0.930 . S
C448 C447 1.400 . S
C448 C451 1.386 . S
H449 C465 0.930 . S
H450 C466 0.931 . S
C451 H439 0.929 . S
C451 C445 1.390 . S
C451 C448 1.386 . S
C452 C447 1.490 . S
C452 C454 1.395 1_565 S
C452 C455 1.403 . S
H453 C459 0.930 . S
C454 H440 0.930 . S
C454 C452 1.395 1_545 S
C454 C457 1.403 . S
C455 C452 1.403 . S
C455 C456 1.524 . S
C455 C459 1.400 . S
C456 H441 0.960 . S
C456 H442 0.960 . S
C456 H443 0.960 . S
C456 C455 1.524 . S
C457 C454 1.403 . S
C457 C458 1.392 . S
C457 C461 1.495 . S
C458 C457 1.392 . S
C458 C459 1.385 1_545 S
C458 C460 1.478 . S
C459 H453 0.930 . S
C459 C455 1.400 . S
C459 C458 1.385 1_565 S
C460 C458 1.478 . S
C460 C462 1.381 . S
C460 C466 1.383 . S
C461 C457 1.495 . S
C461 H467 0.959 . S
C461 H468 0.961 . S
C461 H469 0.960 . S
C462 C460 1.381 . S
C462 C463 1.394 . S
C462 H470 0.930 . S
C463 C462 1.394 . S
C463 C464 1.383 . S
C463 H471 0.929 . S
C464 C463 1.383 . S
C464 C465 1.377 . S
C465 H449 0.930 . S
C465 C464 1.377 . S
C465 C466 1.379 . S
C466 H450 0.931 . S
C466 C460 1.383 . S
C466 C465 1.379 . S
H467 C461 0.959 . S
H468 C461 0.961 . S
H469 C461 0.960 . S
H470 C462 0.930 . S
H471 C463 0.929 . S
H472 C480 0.929 . S
H473 C482 0.930 . S
H474 C484 0.930 . S
H475 C487 0.929 . S
H476 C490 0.930 . S
H477 C492 0.960 1_556 S
H478 C492 0.960 . S
H479 C492 0.960 . S
C480 H472 0.929 . S
C480 C481 1.377 . S
C480 C482 1.384 . S
C481 C480 1.377 . S
C481 C487 1.390 . S
C482 H473 0.930 . S
C482 C480 1.384 . S
C482 C483 1.372 . S
C483 C482 1.372 . S
C483 C484 1.400 . S
C483 C488 1.490 . S
C484 H474 0.930 . S
C484 C483 1.400 . S
C484 C487 1.386 . S
H485 C501 0.930 . S
H486 C502 0.931 . S
C487 H475 0.929 . S
C487 C481 1.390 . S
C487 C484 1.386 . S
C488 C483 1.490 . S
C488 C490 1.395 . S
C488 C491 1.403 . S
H489 C495 0.930 . S
C490 H476 0.930 . S
C490 C488 1.395 . S
C490 C493 1.365 1_554 S
C491 C488 1.403 . S
C491 C492 1.524 . S
C491 C495 1.400 1_554 S
C492 H477 0.960 1_554 S
C492 H478 0.960 . S
C492 H479 0.960 . S
C492 C491 1.524 . S
C493 C490 1.365 1_556 S
C493 C494 1.429 . S
C493 C497 1.497 . S
C494 C493 1.429 . S
C494 C495 1.385 . S
C494 C496 1.478 . S
C495 H489 0.930 . S
C495 C491 1.400 1_556 S
C495 C494 1.385 . S
C496 C494 1.478 . S
C496 C498 1.381 . S
C496 C502 1.383 . S
C497 C493 1.497 . S
C497 H503 0.959 1_556 S
C497 H504 0.961 . S
C497 H505 0.960 . S
C498 C496 1.381 . S
C498 C499 1.394 . S
C498 H506 0.930 . S
C499 C498 1.394 . S
C499 C500 1.383 . S
C499 H507 0.929 . S
C500 C499 1.383 . S
C500 C501 1.377 . S
C501 H485 0.930 . S
C501 C500 1.377 . S
C501 C502 1.379 . S
C502 H486 0.931 . S
C502 C496 1.383 . S
C502 C501 1.379 . S
H503 C497 0.959 1_554 S
H504 C497 0.961 . S
H505 C497 0.960 . S
H506 C498 0.930 . S
H507 C499 0.929 . S
H508 C516 0.929 . S
H509 C518 0.930 1_645 S
H510 C520 0.930 . S
H511 C523 0.929 . S
H512 C526 0.930 . S
H513 C528 0.960 1_554 S
H514 C528 0.960 . S
H515 C528 0.960 1_565 S
C516 H508 0.929 . S
C516 C517 1.377 . S
C516 C518 1.384 . S
C517 C516 1.377 . S
C517 C523 1.390 . S
C518 H509 0.930 1_465 S
C518 C516 1.384 . S
C518 C519 1.372 . S
C519 C518 1.372 . S
C519 C520 1.400 . S
C519 C524 1.490 . S
C520 H510 0.930 . S
C520 C519 1.400 . S
C520 C523 1.386 . S
H521 C537 0.930 . S
H522 C538 0.931 1_565 S
C523 H511 0.929 . S
C523 C517 1.390 . S
C523 C520 1.386 . S
C524 C519 1.490 . S
C524 C526 1.395 1_455 S
C524 C527 1.403 1_565 S
H525 C531 0.930 . S
C526 H512 0.930 . S
C526 C524 1.395 1_655 S
C526 C529 1.411 1_556 S
C527 C524 1.403 1_545 S
C527 C528 1.524 . S
C527 C531 1.400 1_556 S
C528 H513 0.960 1_556 S
C528 H514 0.960 . S
C528 H515 0.960 1_545 S
C528 C527 1.524 . S
C529 C526 1.411 1_554 S
C529 C530 1.385 1_565 S
C529 C533 1.497 . S
C530 C529 1.385 1_545 S
C530 C531 1.385 1_655 S
C530 C532 1.478 . S
C531 H525 0.930 . S
C531 C527 1.400 1_554 S
C531 C530 1.385 1_455 S
C532 C530 1.478 . S
C532 C534 1.381 . S
C532 C538 1.383 . S
C533 C529 1.497 . S
C533 H539 0.959 1_554 S
C533 H540 0.961 . S
C533 H541 0.960 1_565 S
C534 C532 1.381 . S
C534 C535 1.394 . S
C534 H542 0.930 . S
C535 C534 1.394 . S
C535 C536 1.383 . S
C535 H543 0.929 . S
C536 C535 1.383 . S
C536 C537 1.377 . S
C537 H521 0.930 . S
C537 C536 1.377 . S
C537 C538 1.379 . S
C538 H522 0.931 1_545 S
C538 C532 1.383 . S
C538 C537 1.379 . S
H539 C533 0.959 1_556 S
H540 C533 0.961 . S
H541 C533 0.960 1_545 S
H542 C534 0.930 . S
H543 C535 0.929 . S
H544 C552 0.929 . S
H545 C554 0.930 . S
H546 C556 0.930 . S
H547 C559 0.929 . S
H548 C562 0.930 . S
H549 C564 0.960 . S
H550 C564 0.960 . S
H551 C564 0.960 . S
C552 H544 0.929 . S
C552 C553 1.377 . S
C552 C554 1.384 . S
C553 C552 1.377 . S
C553 C559 1.390 . S
C554 H545 0.930 . S
C554 C552 1.384 . S
C554 C555 1.372 . S
C555 C554 1.372 . S
C555 C556 1.400 . S
C555 C560 1.490 . S
C556 H546 0.930 . S
C556 C555 1.400 . S
C556 C559 1.386 . S
H557 C573 0.930 . S
H558 C574 0.931 . S
C559 H547 0.929 . S
C559 C553 1.390 . S
C559 C556 1.386 . S
C560 C555 1.490 . S
C560 C562 1.395 . S
C560 C563 1.403 . S
H561 C567 0.930 . S
C562 H548 0.930 . S
C562 C560 1.395 . S
C562 C565 1.403 . S
C563 C560 1.403 . S
C563 C564 1.524 . S
C563 C567 1.400 . S
C564 H549 0.960 . S
C564 H550 0.960 . S
C564 H551 0.960 . S
C564 C563 1.524 . S
C565 C562 1.403 . S
C565 C566 1.392 . S
C565 C569 1.495 . S
C566 C565 1.392 . S
C566 C567 1.385 . S
C566 C568 1.478 . S
C567 H561 0.930 . S
C567 C563 1.400 . S
C567 C566 1.385 . S
C568 C566 1.478 . S
C568 C570 1.381 . S
C568 C574 1.383 . S
C569 C565 1.495 . S
C569 H575 0.959 . S
C569 H576 0.961 . S
C569 H577 0.960 . S
C570 C568 1.381 . S
C570 C571 1.394 . S
C570 H578 0.930 . S
C571 C570 1.394 . S
C571 C572 1.383 . S
C571 H579 0.929 . S
C572 C571 1.383 . S
C572 C573 1.377 . S
C573 H557 0.930 . S
C573 C572 1.377 . S
C573 C574 1.379 . S
C574 H558 0.931 . S
C574 C568 1.383 . S
C574 C573 1.379 . S
H575 C569 0.959 . S
H576 C569 0.961 . S
H577 C569 0.960 . S
H578 C570 0.930 . S
H579 C571 0.929 . S
H580 C588 0.929 . S
H581 C590 0.930 . S
H582 C592 0.930 . S
H583 C595 0.929 . S
H584 C598 0.930 . S
H585 C600 0.960 . S
H586 C600 0.960 . S
H587 C600 0.960 . S
C588 H580 0.929 . S
C588 C589 1.377 . S
C588 C590 1.384 . S
C589 C588 1.377 . S
C589 C595 1.390 . S
C590 H581 0.930 . S
C590 C588 1.384 . S
C590 C591 1.372 . S
C591 C590 1.372 . S
C591 C592 1.400 . S
C591 C596 1.490 . S
C592 H582 0.930 . S
C592 C591 1.400 . S
C592 C595 1.386 . S
H593 C609 0.930 . S
H594 C610 0.931 . S
C595 H583 0.929 . S
C595 C589 1.390 . S
C595 C592 1.386 . S
C596 C591 1.490 . S
C596 C598 1.395 . S
C596 C599 1.403 . S
H597 C603 0.930 . S
C598 H584 0.930 . S
C598 C596 1.395 . S
C598 C601 1.403 . S
C599 C596 1.403 . S
C599 C600 1.524 . S
C599 C603 1.400 . S
C600 H585 0.960 . S
C600 H586 0.960 . S
C600 H587 0.960 . S
C600 C599 1.524 . S
C601 C598 1.403 . S
C601 C602 1.392 . S
C601 C605 1.495 . S
C602 C601 1.392 . S
C602 C603 1.385 . S
C602 C604 1.478 . S
C603 H597 0.930 . S
C603 C599 1.400 . S
C603 C602 1.385 . S
C604 C602 1.478 . S
C604 C606 1.381 . S
C604 C610 1.383 . S
C605 C601 1.495 . S
C605 H611 0.959 . S
C605 H612 0.961 . S
C605 H613 0.960 . S
C606 C604 1.381 . S
C606 C607 1.394 . S
C606 H614 0.930 . S
C607 C606 1.394 . S
C607 C608 1.383 . S
C607 H615 0.929 . S
C608 C607 1.383 . S
C608 C609 1.377 . S
C609 H593 0.930 . S
C609 C608 1.377 . S
C609 C610 1.379 . S
C610 H594 0.931 . S
C610 C604 1.383 . S
C610 C609 1.379 . S
H611 C605 0.959 . S
H612 C605 0.961 . S
H613 C605 0.960 . S
H614 C606 0.930 . S
H615 C607 0.929 . S
H616 C624 0.929 . S
H617 C626 0.930 . S
H618 C628 0.930 . S
H619 C631 0.929 . S
H620 C634 0.930 . S
H621 C636 0.960 . S
H622 C636 0.960 . S
H623 C636 0.960 . S
C624 H616 0.929 . S
C624 C625 1.377 . S
C624 C626 1.384 . S
C625 C624 1.377 . S
C625 C631 1.390 . S
C626 H617 0.930 . S
C626 C624 1.384 . S
C626 C627 1.372 . S
C627 C626 1.372 . S
C627 C628 1.400 . S
C627 C632 1.490 . S
C628 H618 0.930 . S
C628 C627 1.400 . S
C628 C631 1.386 . S
H629 C645 0.930 . S
H630 C646 0.931 . S
C631 H619 0.929 . S
C631 C625 1.390 . S
C631 C628 1.386 . S
C632 C627 1.490 . S
C632 C634 1.395 . S
C632 C635 1.403 . S
H633 C639 0.930 . S
C634 H620 0.930 . S
C634 C632 1.395 . S
C634 C637 1.403 . S
C635 C632 1.403 . S
C635 C636 1.524 . S
C635 C639 1.400 . S
C636 H621 0.960 . S
C636 H622 0.960 . S
C636 H623 0.960 . S
C636 C635 1.524 . S
C637 C634 1.403 . S
C637 C638 1.392 . S
C637 C641 1.495 . S
C638 C637 1.392 . S
C638 C639 1.385 . S
C638 C640 1.478 . S
C639 H633 0.930 . S
C639 C635 1.400 . S
C639 C638 1.385 . S
C640 C638 1.478 . S
C640 C642 1.381 . S
C640 C646 1.383 . S
C641 C637 1.495 . S
C641 H647 0.959 . S
C641 H648 0.961 . S
C641 H649 0.960 . S
C642 C640 1.381 . S
C642 C643 1.394 . S
C642 H650 0.930 . S
C643 C642 1.394 . S
C643 C644 1.383 . S
C643 H651 0.929 . S
C644 C643 1.383 . S
C644 C645 1.377 . S
C645 H629 0.930 . S
C645 C644 1.377 . S
C645 C646 1.379 . S
C646 H630 0.931 . S
C646 C640 1.383 . S
C646 C645 1.379 . S
H647 C641 0.959 . S
H648 C641 0.961 . S
H649 C641 0.960 . S
H650 C642 0.930 . S
H651 C643 0.929 . S
H652 C660 0.929 . S
H653 C662 0.930 . S
H654 C664 0.930 . S
H655 C667 0.929 . S
H656 C670 0.930 . S
H657 C672 0.960 . S
H658 C672 0.960 . S
H659 C672 0.960 . S
C660 H652 0.929 . S
C660 C661 1.377 . S
C660 C662 1.384 . S
C661 C660 1.377 . S
C661 C667 1.390 . S
C662 H653 0.930 . S
C662 C660 1.384 . S
C662 C663 1.372 . S
C663 C662 1.372 . S
C663 C664 1.400 . S
C663 C668 1.490 . S
C664 H654 0.930 . S
C664 C663 1.400 . S
C664 C667 1.386 . S
H665 C681 0.930 . S
H666 C682 0.931 . S
C667 H655 0.929 . S
C667 C661 1.390 . S
C667 C664 1.386 . S
C668 C663 1.490 . S
C668 C670 1.395 . S
C668 C671 1.403 . S
H669 C675 0.930 . S
C670 H656 0.930 . S
C670 C668 1.395 . S
C670 C673 1.403 . S
C671 C668 1.403 . S
C671 C672 1.524 . S
C671 C675 1.400 . S
C672 H657 0.960 . S
C672 H658 0.960 . S
C672 H659 0.960 . S
C672 C671 1.524 . S
C673 C670 1.403 . S
C673 C674 1.392 . S
C673 C677 1.495 . S
C674 C673 1.392 . S
C674 C675 1.385 . S
C674 C676 1.478 . S
C675 H669 0.930 . S
C675 C671 1.400 . S
C675 C674 1.385 . S
C676 C674 1.478 . S
C676 C678 1.381 . S
C676 C682 1.383 . S
C677 C673 1.495 . S
C677 H683 0.959 . S
C677 H684 0.961 . S
C677 H685 0.960 . S
C678 C676 1.381 . S
C678 C679 1.394 . S
C678 H686 0.930 . S
C679 C678 1.394 . S
C679 C680 1.383 . S
C679 H687 0.929 . S
C680 C679 1.383 . S
C680 C681 1.377 . S
C681 H665 0.930 . S
C681 C680 1.377 . S
C681 C682 1.379 . S
C682 H666 0.931 . S
C682 C676 1.383 . S
C682 C681 1.379 . S
H683 C677 0.959 . S
H684 C677 0.961 . S
H685 C677 0.960 . S
H686 C678 0.930 . S
H687 C679 0.929 . S
C121 C8 1.712 . S
C140 C37 1.705 . S
C157 C51 1.717 . S
C176 C22 1.697 . S
C193 C36 1.712 . S
C212 C9 1.710 . S
C229 C50 1.712 . S
C248 C23 1.704 . S
C265 C93 1.716 . S
C284 C64 1.693 . S
C301 C78 1.710 . S
C320 C107 1.722 . S
C337 C92 1.711 . S
C356 C65 1.701 . S
C373 C106 1.708 . S
C392 C79 1.722 . S
C409 C7 1.495 . S
C428 C63 1.513 . S
C445 C21 1.497 . S
C464 C77 1.514 . S
C481 C35 1.498 . S
C500 C91 1.488 . S
C517 C105 1.489 . S
C536 C49 1.475 . S
C553 C6 1.500 . S
C572 C20 1.469 . S
C589 C48 1.492 . S
C608 C34 1.509 . S
C625 C76 1.500 . S
C644 C62 1.506 . S
C661 C90 1.491 . S
C680 C104 1.488 . S
