# Generated by pormake.
# Topology ubt, (5)-cn, num edge types: 1
# Building blocks:
#     Node 0, Type 0, BuildingBlock: BEQFEK_clean_sbu_0, # of connection points: 5
#     Node 1, Type 0, BuildingBlock: BEQFEK_clean_sbu_0, # of connection points: 5
#     Node 2, Type 0, BuildingBlock: BEQFEK_clean_sbu_0, # of connection points: 5
#     Node 3, Type 0, BuildingBlock: BEQFEK_clean_sbu_0, # of connection points: 5
#     Node 4, Type 0, BuildingBlock: BEQFEK_clean_sbu_0, # of connection points: 5
#     Node 5, Type 0, BuildingBlock: BEQFEK_clean_sbu_0, # of connection points: 5
#     Node 6, Type 0, BuildingBlock: BEQFEK_clean_sbu_0, # of connection points: 5
#     Node 7, Type 0, BuildingBlock: BEQFEK_clean_sbu_0, # of connection points: 5
#     Node 8, Type 0, BuildingBlock: BEQFEK_clean_sbu_0, # of connection points: 5
#     Node 9, Type 0, BuildingBlock: BEQFEK_clean_sbu_0, # of connection points: 5
#     Node 10, Type 0, BuildingBlock: BEQFEK_clean_sbu_0, # of connection points: 5
#     Node 11, Type 0, BuildingBlock: BEQFEK_clean_sbu_0, # of connection points: 5
#     Node 12, Type 0, BuildingBlock: BEQFEK_clean_sbu_0, # of connection points: 5
#     Node 13, Type 0, BuildingBlock: BEQFEK_clean_sbu_0, # of connection points: 5
#     Node 14, Type 0, BuildingBlock: BEQFEK_clean_sbu_0, # of connection points: 5
#     Node 15, Type 0, BuildingBlock: BEQFEK_clean_sbu_0, # of connection points: 5
#     Node 16, Type 0, BuildingBlock: BEQFEK_clean_sbu_0, # of connection points: 5
#     Node 17, Type 0, BuildingBlock: BEQFEK_clean_sbu_0, # of connection points: 5
#     Node 18, Type 0, BuildingBlock: BEQFEK_clean_sbu_0, # of connection points: 5
#     Node 19, Type 0, BuildingBlock: BEQFEK_clean_sbu_0, # of connection points: 5
#     Node 20, Type 0, BuildingBlock: BEQFEK_clean_sbu_0, # of connection points: 5
#     Node 21, Type 0, BuildingBlock: BEQFEK_clean_sbu_0, # of connection points: 5
#     Node 22, Type 0, BuildingBlock: BEQFEK_clean_sbu_0, # of connection points: 5
#     Node 23, Type 0, BuildingBlock: BEQFEK_clean_sbu_0, # of connection points: 5
#     Node 24, Type 0, BuildingBlock: BEQFEK_clean_sbu_0, # of connection points: 5
#     Node 25, Type 0, BuildingBlock: BEQFEK_clean_sbu_0, # of connection points: 5
#     Node 26, Type 0, BuildingBlock: BEQFEK_clean_sbu_0, # of connection points: 5
#     Node 27, Type 0, BuildingBlock: BEQFEK_clean_sbu_0, # of connection points: 5
#     Node 28, Type 0, BuildingBlock: BEQFEK_clean_sbu_0, # of connection points: 5
#     Node 29, Type 0, BuildingBlock: BEQFEK_clean_sbu_0, # of connection points: 5
#     Node 30, Type 0, BuildingBlock: BEQFEK_clean_sbu_0, # of connection points: 5
#     Node 31, Type 0, BuildingBlock: BEQFEK_clean_sbu_0, # of connection points: 5
#     Node 32, Type 0, BuildingBlock: BEQFEK_clean_sbu_0, # of connection points: 5
#     Node 33, Type 0, BuildingBlock: BEQFEK_clean_sbu_0, # of connection points: 5
#     Node 34, Type 0, BuildingBlock: BEQFEK_clean_sbu_0, # of connection points: 5
#     Node 35, Type 0, BuildingBlock: BEQFEK_clean_sbu_0, # of connection points: 5
#     Node 36, Type 0, BuildingBlock: BEQFEK_clean_sbu_0, # of connection points: 5
#     Node 37, Type 0, BuildingBlock: BEQFEK_clean_sbu_0, # of connection points: 5
#     Node 38, Type 0, BuildingBlock: BEQFEK_clean_sbu_0, # of connection points: 5
#     Node 39, Type 0, BuildingBlock: BEQFEK_clean_sbu_0, # of connection points: 5
#     Node 40, Type 0, BuildingBlock: BEQFEK_clean_sbu_0, # of connection points: 5
#     Node 41, Type 0, BuildingBlock: BEQFEK_clean_sbu_0, # of connection points: 5
#     Node 42, Type 0, BuildingBlock: BEQFEK_clean_sbu_0, # of connection points: 5
#     Node 43, Type 0, BuildingBlock: BEQFEK_clean_sbu_0, # of connection points: 5
#     Node 44, Type 0, BuildingBlock: BEQFEK_clean_sbu_0, # of connection points: 5
#     Node 45, Type 0, BuildingBlock: BEQFEK_clean_sbu_0, # of connection points: 5
#     Node 46, Type 0, BuildingBlock: BEQFEK_clean_sbu_0, # of connection points: 5
#     Node 47, Type 0, BuildingBlock: BEQFEK_clean_sbu_0, # of connection points: 5
#     Edge 48, Type (0, 0), BuildingBlock: AJUNOK_clean_linker_0, # of connection points: 2
#     Edge 49, Type (0, 0), BuildingBlock: AJUNOK_clean_linker_0, # of connection points: 2
#     Edge 50, Type (0, 0), BuildingBlock: AJUNOK_clean_linker_0, # of connection points: 2
#     Edge 51, Type (0, 0), BuildingBlock: AJUNOK_clean_linker_0, # of connection points: 2
#     Edge 52, Type (0, 0), BuildingBlock: AJUNOK_clean_linker_0, # of connection points: 2
#     Edge 53, Type (0, 0), BuildingBlock: AJUNOK_clean_linker_0, # of connection points: 2
#     Edge 54, Type (0, 0), BuildingBlock: AJUNOK_clean_linker_0, # of connection points: 2
#     Edge 55, Type (0, 0), BuildingBlock: AJUNOK_clean_linker_0, # of connection points: 2
#     Edge 56, Type (0, 0), BuildingBlock: AJUNOK_clean_linker_0, # of connection points: 2
#     Edge 57, Type (0, 0), BuildingBlock: AJUNOK_clean_linker_0, # of connection points: 2
#     Edge 58, Type (0, 0), BuildingBlock: AJUNOK_clean_linker_0, # of connection points: 2
#     Edge 59, Type (0, 0), BuildingBlock: AJUNOK_clean_linker_0, # of connection points: 2
#     Edge 60, Type (0, 0), BuildingBlock: AJUNOK_clean_linker_0, # of connection points: 2
#     Edge 61, Type (0, 0), BuildingBlock: AJUNOK_clean_linker_0, # of connection points: 2
#     Edge 62, Type (0, 0), BuildingBlock: AJUNOK_clean_linker_0, # of connection points: 2
#     Edge 63, Type (0, 0), BuildingBlock: AJUNOK_clean_linker_0, # of connection points: 2
#     Edge 64, Type (0, 0), BuildingBlock: AJUNOK_clean_linker_0, # of connection points: 2
#     Edge 65, Type (0, 0), BuildingBlock: AJUNOK_clean_linker_0, # of connection points: 2
#     Edge 66, Type (0, 0), BuildingBlock: AJUNOK_clean_linker_0, # of connection points: 2
#     Edge 67, Type (0, 0), BuildingBlock: AJUNOK_clean_linker_0, # of connection points: 2
#     Edge 68, Type (0, 0), BuildingBlock: AJUNOK_clean_linker_0, # of connection points: 2
#     Edge 69, Type (0, 0), BuildingBlock: AJUNOK_clean_linker_0, # of connection points: 2
#     Edge 70, Type (0, 0), BuildingBlock: AJUNOK_clean_linker_0, # of connection points: 2
#     Edge 71, Type (0, 0), BuildingBlock: AJUNOK_clean_linker_0, # of connection points: 2
#     Edge 72, Type (0, 0), BuildingBlock: AJUNOK_clean_linker_0, # of connection points: 2
#     Edge 73, Type (0, 0), BuildingBlock: AJUNOK_clean_linker_0, # of connection points: 2
#     Edge 74, Type (0, 0), BuildingBlock: AJUNOK_clean_linker_0, # of connection points: 2
#     Edge 75, Type (0, 0), BuildingBlock: AJUNOK_clean_linker_0, # of connection points: 2
#     Edge 76, Type (0, 0), BuildingBlock: AJUNOK_clean_linker_0, # of connection points: 2
#     Edge 77, Type (0, 0), BuildingBlock: AJUNOK_clean_linker_0, # of connection points: 2
#     Edge 78, Type (0, 0), BuildingBlock: AJUNOK_clean_linker_0, # of connection points: 2
#     Edge 79, Type (0, 0), BuildingBlock: AJUNOK_clean_linker_0, # of connection points: 2
#     Edge 80, Type (0, 0), BuildingBlock: AJUNOK_clean_linker_0, # of connection points: 2
#     Edge 81, Type (0, 0), BuildingBlock: AJUNOK_clean_linker_0, # of connection points: 2
#     Edge 82, Type (0, 0), BuildingBlock: AJUNOK_clean_linker_0, # of connection points: 2
#     Edge 83, Type (0, 0), BuildingBlock: AJUNOK_clean_linker_0, # of connection points: 2
#     Edge 84, Type (0, 0), BuildingBlock: AJUNOK_clean_linker_0, # of connection points: 2
#     Edge 85, Type (0, 0), BuildingBlock: AJUNOK_clean_linker_0, # of connection points: 2
#     Edge 86, Type (0, 0), BuildingBlock: AJUNOK_clean_linker_0, # of connection points: 2
#     Edge 87, Type (0, 0), BuildingBlock: AJUNOK_clean_linker_0, # of connection points: 2
#     Edge 88, Type (0, 0), BuildingBlock: AJUNOK_clean_linker_0, # of connection points: 2
#     Edge 89, Type (0, 0), BuildingBlock: AJUNOK_clean_linker_0, # of connection points: 2
#     Edge 90, Type (0, 0), BuildingBlock: AJUNOK_clean_linker_0, # of connection points: 2
#     Edge 91, Type (0, 0), BuildingBlock: AJUNOK_clean_linker_0, # of connection points: 2
#     Edge 92, Type (0, 0), BuildingBlock: AJUNOK_clean_linker_0, # of connection points: 2
#     Edge 93, Type (0, 0), BuildingBlock: AJUNOK_clean_linker_0, # of connection points: 2
#     Edge 94, Type (0, 0), BuildingBlock: AJUNOK_clean_linker_0, # of connection points: 2
#     Edge 95, Type (0, 0), BuildingBlock: AJUNOK_clean_linker_0, # of connection points: 2
#     Edge 96, Type (0, 0), BuildingBlock: AJUNOK_clean_linker_0, # of connection points: 2
#     Edge 97, Type (0, 0), BuildingBlock: AJUNOK_clean_linker_0, # of connection points: 2
#     Edge 98, Type (0, 0), BuildingBlock: AJUNOK_clean_linker_0, # of connection points: 2
#     Edge 99, Type (0, 0), BuildingBlock: AJUNOK_clean_linker_0, # of connection points: 2
#     Edge 100, Type (0, 0), BuildingBlock: AJUNOK_clean_linker_0, # of connection points: 2
#     Edge 101, Type (0, 0), BuildingBlock: AJUNOK_clean_linker_0, # of connection points: 2
#     Edge 102, Type (0, 0), BuildingBlock: AJUNOK_clean_linker_0, # of connection points: 2
#     Edge 103, Type (0, 0), BuildingBlock: AJUNOK_clean_linker_0, # of connection points: 2
#     Edge 104, Type (0, 0), BuildingBlock: AJUNOK_clean_linker_0, # of connection points: 2
#     Edge 105, Type (0, 0), BuildingBlock: AJUNOK_clean_linker_0, # of connection points: 2
#     Edge 106, Type (0, 0), BuildingBlock: AJUNOK_clean_linker_0, # of connection points: 2
#     Edge 107, Type (0, 0), BuildingBlock: AJUNOK_clean_linker_0, # of connection points: 2
#     Edge 108, Type (0, 0), BuildingBlock: AJUNOK_clean_linker_0, # of connection points: 2
#     Edge 109, Type (0, 0), BuildingBlock: AJUNOK_clean_linker_0, # of connection points: 2
#     Edge 110, Type (0, 0), BuildingBlock: AJUNOK_clean_linker_0, # of connection points: 2
#     Edge 111, Type (0, 0), BuildingBlock: AJUNOK_clean_linker_0, # of connection points: 2
#     Edge 112, Type (0, 0), BuildingBlock: AJUNOK_clean_linker_0, # of connection points: 2
#     Edge 113, Type (0, 0), BuildingBlock: AJUNOK_clean_linker_0, # of connection points: 2
#     Edge 114, Type (0, 0), BuildingBlock: AJUNOK_clean_linker_0, # of connection points: 2
#     Edge 115, Type (0, 0), BuildingBlock: AJUNOK_clean_linker_0, # of connection points: 2
#     Edge 116, Type (0, 0), BuildingBlock: AJUNOK_clean_linker_0, # of connection points: 2
#     Edge 117, Type (0, 0), BuildingBlock: AJUNOK_clean_linker_0, # of connection points: 2
#     Edge 118, Type (0, 0), BuildingBlock: AJUNOK_clean_linker_0, # of connection points: 2
#     Edge 119, Type (0, 0), BuildingBlock: AJUNOK_clean_linker_0, # of connection points: 2
#     Edge 120, Type (0, 0), BuildingBlock: AJUNOK_clean_linker_0, # of connection points: 2
#     Edge 121, Type (0, 0), BuildingBlock: AJUNOK_clean_linker_0, # of connection points: 2
#     Edge 122, Type (0, 0), BuildingBlock: AJUNOK_clean_linker_0, # of connection points: 2
#     Edge 123, Type (0, 0), BuildingBlock: AJUNOK_clean_linker_0, # of connection points: 2
#     Edge 124, Type (0, 0), BuildingBlock: AJUNOK_clean_linker_0, # of connection points: 2
#     Edge 125, Type (0, 0), BuildingBlock: AJUNOK_clean_linker_0, # of connection points: 2
#     Edge 126, Type (0, 0), BuildingBlock: AJUNOK_clean_linker_0, # of connection points: 2
#     Edge 127, Type (0, 0), BuildingBlock: AJUNOK_clean_linker_0, # of connection points: 2
#     Edge 128, Type (0, 0), BuildingBlock: AJUNOK_clean_linker_0, # of connection points: 2
#     Edge 129, Type (0, 0), BuildingBlock: AJUNOK_clean_linker_0, # of connection points: 2
#     Edge 130, Type (0, 0), BuildingBlock: AJUNOK_clean_linker_0, # of connection points: 2
#     Edge 131, Type (0, 0), BuildingBlock: AJUNOK_clean_linker_0, # of connection points: 2
#     Edge 132, Type (0, 0), BuildingBlock: AJUNOK_clean_linker_0, # of connection points: 2
#     Edge 133, Type (0, 0), BuildingBlock: AJUNOK_clean_linker_0, # of connection points: 2
#     Edge 134, Type (0, 0), BuildingBlock: AJUNOK_clean_linker_0, # of connection points: 2
#     Edge 135, Type (0, 0), BuildingBlock: AJUNOK_clean_linker_0, # of connection points: 2
#     Edge 136, Type (0, 0), BuildingBlock: AJUNOK_clean_linker_0, # of connection points: 2
#     Edge 137, Type (0, 0), BuildingBlock: AJUNOK_clean_linker_0, # of connection points: 2
#     Edge 138, Type (0, 0), BuildingBlock: AJUNOK_clean_linker_0, # of connection points: 2
#     Edge 139, Type (0, 0), BuildingBlock: AJUNOK_clean_linker_0, # of connection points: 2
#     Edge 140, Type (0, 0), BuildingBlock: AJUNOK_clean_linker_0, # of connection points: 2
#     Edge 141, Type (0, 0), BuildingBlock: AJUNOK_clean_linker_0, # of connection points: 2
#     Edge 142, Type (0, 0), BuildingBlock: AJUNOK_clean_linker_0, # of connection points: 2
#     Edge 143, Type (0, 0), BuildingBlock: AJUNOK_clean_linker_0, # of connection points: 2
#     Edge 144, Type (0, 0), BuildingBlock: AJUNOK_clean_linker_0, # of connection points: 2
#     Edge 145, Type (0, 0), BuildingBlock: AJUNOK_clean_linker_0, # of connection points: 2
#     Edge 146, Type (0, 0), BuildingBlock: AJUNOK_clean_linker_0, # of connection points: 2
#     Edge 147, Type (0, 0), BuildingBlock: AJUNOK_clean_linker_0, # of connection points: 2
#     Edge 148, Type (0, 0), BuildingBlock: AJUNOK_clean_linker_0, # of connection points: 2
#     Edge 149, Type (0, 0), BuildingBlock: AJUNOK_clean_linker_0, # of connection points: 2
#     Edge 150, Type (0, 0), BuildingBlock: AJUNOK_clean_linker_0, # of connection points: 2
#     Edge 151, Type (0, 0), BuildingBlock: AJUNOK_clean_linker_0, # of connection points: 2
#     Edge 152, Type (0, 0), BuildingBlock: AJUNOK_clean_linker_0, # of connection points: 2
#     Edge 153, Type (0, 0), BuildingBlock: AJUNOK_clean_linker_0, # of connection points: 2
#     Edge 154, Type (0, 0), BuildingBlock: AJUNOK_clean_linker_0, # of connection points: 2
#     Edge 155, Type (0, 0), BuildingBlock: AJUNOK_clean_linker_0, # of connection points: 2
#     Edge 156, Type (0, 0), BuildingBlock: AJUNOK_clean_linker_0, # of connection points: 2
#     Edge 157, Type (0, 0), BuildingBlock: AJUNOK_clean_linker_0, # of connection points: 2
#     Edge 158, Type (0, 0), BuildingBlock: AJUNOK_clean_linker_0, # of connection points: 2
#     Edge 159, Type (0, 0), BuildingBlock: AJUNOK_clean_linker_0, # of connection points: 2
#     Edge 160, Type (0, 0), BuildingBlock: AJUNOK_clean_linker_0, # of connection points: 2
#     Edge 161, Type (0, 0), BuildingBlock: AJUNOK_clean_linker_0, # of connection points: 2
#     Edge 162, Type (0, 0), BuildingBlock: AJUNOK_clean_linker_0, # of connection points: 2
#     Edge 163, Type (0, 0), BuildingBlock: AJUNOK_clean_linker_0, # of connection points: 2
#     Edge 164, Type (0, 0), BuildingBlock: AJUNOK_clean_linker_0, # of connection points: 2
#     Edge 165, Type (0, 0), BuildingBlock: AJUNOK_clean_linker_0, # of connection points: 2
#     Edge 166, Type (0, 0), BuildingBlock: AJUNOK_clean_linker_0, # of connection points: 2
#     Edge 167, Type (0, 0), BuildingBlock: AJUNOK_clean_linker_0, # of connection points: 2
# Relax obj value: 0.499
# Max RMSD: 0.207
# Mean RMSD: 0.184
data_MOF--net-ubt--node1-BEQFEK_clean_sbu_0--edge1-AJUNOK_clean_linker_0
_symmetry_space_group_name_H-M    P1
_symmetry_Int_Tables_number       1
_symmetry_cell_setting            triclinic
loop_
_symmetry_equiv_pos_as_xyz
'x, y, z'
_cell_length_a     52.232361
_cell_length_b     52.464281
_cell_length_c     52.513112
_cell_angle_alpha  94.547693
_cell_angle_beta   91.213137
_cell_angle_gamma 91.730534
loop_
_atom_site_label
_atom_site_type_symbol
_atom_site_fract_x
_atom_site_fract_y
_atom_site_fract_z
_atom_type_partial_charge
Co0 Co 0.00793 0.18716 0.24119 0.0
Co1 Co 0.05018 0.22624 0.22568 0.0
C2 C -0.00014 0.21981 0.19807 0.0
O3 O 0.99281 0.20198 0.2115 0.0
O4 O 0.02143 0.23132 0.20184 0.0
C5 C 0.98144 0.14375 0.22624 0.0
O6 O -0.00557 0.14901 0.20605 0.0
C7 C 0.08765 0.23717 0.18932 0.0
C8 C 0.11553 0.2642 0.21002 0.0
C9 C 0.11121 0.24937 0.18718 0.0
N10 N 0.07873 0.24368 0.21259 0.0
N11 N 0.09512 0.26032 0.22477 0.0
C12 C 0.07429 0.21835 0.17011 0.0
H13 H 0.05358 0.22202 0.16914 0.0
H14 H 0.07647 0.19869 0.17605 0.0
H15 H 0.08211 0.21953 0.15075 0.0
C16 C 0.05215 0.15335 0.2404 0.0
N17 N 0.0411 0.17535 0.2353 0.0
N18 N 0.05884 0.19183 0.22892 0.0
C19 C 0.08186 0.18103 0.23035 0.0
C20 C 0.07822 0.15627 0.23708 0.0
C21 C 0.03829 0.13064 0.2498 0.0
H22 H 0.02467 0.137 0.26473 0.0
H23 H 0.02735 0.12031 0.23364 0.0
H24 H 0.05163 0.11704 0.25759 0.0
O25 O 0.00899 0.21358 0.27012 0.0
O26 O 0.0406 0.24027 0.25929 0.0
H27 H 0.10573 0.21435 0.24085 0.0
H28 H 0.12254 0.18489 0.2395 0.0
C29 C 0.10712 0.19532 0.23035 0.0
H30 H 0.11254 0.19778 0.21044 0.0
H31 H 0.09309 0.26791 0.2436 0.0
O32 O 0.98474 0.15817 0.2467 0.0
C33 C 0.02358 0.23343 0.27463 0.0
Co34 Co 0.84705 0.05933 0.1997 0.0
Co35 Co 0.87577 0.0165 0.22887 0.0
C36 C 0.90077 0.06643 0.22147 0.0
O37 O 0.88113 0.07339 0.20961 0.0
O38 O 0.90162 0.04486 0.23074 0.0
C39 C 0.84944 0.08703 0.15683 0.0
O40 O 0.87026 0.0736 0.15573 0.0
C41 C 0.91574 0.97854 0.23334 0.0
C42 C 0.89658 0.94952 0.25515 0.0
C43 C 0.91876 0.95447 0.24207 0.0
N44 N 0.89268 0.98713 0.24046 0.0
N45 N 0.88161 0.96992 0.25405 0.0
C46 C 0.93309 0.99179 0.21591 0.0
H47 H 0.92209 0.00473 0.20438 0.0
H48 H 0.94307 0.97769 0.20308 0.0
H49 H 0.94778 0.00343 0.22762 0.0
C50 C 0.84163 0.01595 0.16013 0.0
N51 N 0.85017 0.02635 0.18317 0.0
N52 N 0.86247 0.00893 0.19505 0.0
C53 C 0.86181 0.98699 0.17993 0.0
C54 C 0.84888 0.99093 0.15754 0.0
C55 C 0.82609 0.0291 0.14116 0.0
H56 H 0.81383 0.04345 0.15106 0.0
H57 H 0.83912 0.03875 0.1283 0.0
H58 H 0.81385 0.01498 0.12918 0.0
O59 O 0.82611 0.0562 0.23072 0.0
O60 O 0.84606 0.02563 0.25029 0.0
H61 H 0.8669 0.95776 0.20568 0.0
H62 H 0.86681 0.94616 0.17263 0.0
C63 C 0.87302 0.96232 0.18649 0.0
H64 H 0.89417 0.9641 0.18622 0.0
H65 H 0.86324 0.97145 0.26135 0.0
O66 O 0.83422 0.08408 0.17514 0.0
C67 C 0.82804 0.04145 0.24892 0.0
Co68 Co 0.00914 0.82602 0.19497 0.0
Co69 Co 0.04833 0.85965 0.22967 0.0
C70 C -0.00244 0.87968 0.21889 0.0
O71 O 0.99197 0.85843 0.20637 0.0
O72 O 0.01989 0.88399 0.22864 0.0
C73 C 0.98592 0.82758 0.14801 0.0
O74 O 0.00103 0.84815 0.1502 0.0
C75 C 0.08601 0.90057 0.24171 0.0
C76 C 0.1144 0.88237 0.26557 0.0
C77 C 0.11024 0.90412 0.25287 0.0
N78 N 0.07657 0.87754 0.247 0.0
N79 N 0.09325 0.86706 0.26195 0.0
C80 C 0.07358 0.91694 0.22318 0.0
H81 H 0.06095 0.90508 0.20938 0.0
H82 H 0.0881 0.92755 0.21265 0.0
H83 H 0.06166 0.93106 0.23391 0.0
C84 C 0.05443 0.82254 0.16083 0.0
N85 N 0.04283 0.8314 0.18243 0.0
N86 N 0.05905 0.84661 0.1964 0.0
C87 C 0.08125 0.84826 0.18365 0.0
C88 C 0.07894 0.8333 0.16072 0.0
C89 C 0.04267 0.80376 0.1407 0.0
H90 H 0.02709 0.79224 0.14866 0.0
H91 H 0.03497 0.81425 0.12489 0.0
H92 H 0.05733 0.7908 0.13259 0.0
O93 O 0.01118 0.80446 0.22484 0.0
O94 O 0.03723 0.83059 0.24992 0.0
H95 H 0.10942 0.85833 0.21319 0.0
H96 H 0.12178 0.85747 0.1815 0.0
C97 C 0.10508 0.8627 0.19334 0.0
H98 H 0.10235 0.88347 0.19272 0.0
H99 H 0.09106 0.84866 0.26799 0.0
O100 O 0.9859 0.81261 0.16599 0.0
C101 C 0.02319 0.81019 0.24613 0.0
Co102 Co 0.23546 0.99155 0.19761 0.0
Co103 Co 0.20762 0.03174 0.23331 0.0
C104 C 0.18661 0.97845 0.22359 0.0
O105 O 0.20522 0.9721 0.20947 0.0
O106 O 0.18499 0.00123 0.23333 0.0
C107 C 0.24867 0.94582 0.16962 0.0
O108 O 0.24303 0.93592 0.19109 0.0
C109 C 0.16704 0.06681 0.24035 0.0
C110 C 0.17996 0.09304 0.27343 0.0
C111 C 0.16069 0.08869 0.2549 0.0
N112 N 0.18938 0.05888 0.24934 0.0
N113 N 0.19692 0.07434 0.26936 0.0
C114 C 0.15227 0.0534 0.21816 0.0
H115 H 0.15167 0.0325 0.21993 0.0
H116 H 0.16213 0.05681 0.20019 0.0
H117 H 0.13238 0.06016 0.21703 0.0
C118 C 0.23436 0.0336 0.16369 0.0
N119 N 0.22665 0.02277 0.18477 0.0
N120 N 0.21702 0.04036 0.20065 0.0
C121 C 0.21958 0.06321 0.19086 0.0
C122 C 0.23021 0.05961 0.16697 0.0
C123 C 0.24652 0.01945 0.1415 0.0
H124 H 0.26598 0.01386 0.14732 0.0
H125 H 0.23498 0.00176 0.13573 0.0
H126 H 0.24793 0.03126 0.12494 0.0
O127 O 0.26081 -0.001 0.2265 0.0
O128 O 0.23879 0.02587 0.25233 0.0
H129 H 0.22345 0.0868 0.22615 0.0
H130 H 0.22886 0.10373 0.19809 0.0
C131 C 0.21718 0.08837 0.20606 0.0
H132 H 0.19695 0.09384 0.20572 0.0
H133 H 0.21398 0.0726 0.27973 0.0
O134 O 0.24926 0.96994 0.16909 0.0
C135 C 0.25862 0.01304 0.24733 0.0
Co136 Co -0.00222 0.87521 0.83384 0.0
Co137 Co 0.04077 0.84017 0.85241 0.0
C138 C -0.00246 0.85411 0.88517 0.0
O139 O 0.98763 0.86704 0.86831 0.0
O140 O 0.01907 0.84414 0.88191 0.0
C141 C 0.97774 0.92148 0.84235 0.0
O142 O -0.00551 0.92018 0.8612 0.0
C143 C 0.08274 0.83511 0.8861 0.0
C144 C 0.10262 0.80044 0.87185 0.0
C145 C 0.10355 0.82046 0.89079 0.0
N146 N 0.0702 0.8247 0.86515 0.0
N147 N 0.08197 0.80384 0.85666 0.0
C148 C 0.07382 0.85811 0.90192 0.0
H149 H 0.06189 0.85154 0.91746 0.0
H150 H 0.06211 0.87018 0.89011 0.0
H151 H 0.08985 0.86992 0.91108 0.0
C152 C 0.0439 0.90625 0.82064 0.0
N153 N 0.03254 0.88593 0.83065 0.0
N154 N 0.05039 0.87077 0.83799 0.0
C155 C 0.0735 0.88077 0.83259 0.0
C156 C 0.07017 0.9037 0.82193 0.0
C157 C 0.03011 0.9278 0.81006 0.0
H158 H 0.0123 0.9205 0.79978 0.0
H159 H 0.0251 0.9418 0.82598 0.0
H160 H 0.04233 0.9379 0.7968 0.0
O161 O 0.99022 0.84315 0.81279 0.0
O162 O 0.02002 0.81808 0.82794 0.0
H163 H 0.09646 0.84747 0.83101 0.0
H164 H 0.11367 0.87664 0.82481 0.0
C165 C 0.09849 0.86829 0.8364 0.0
H166 H 0.10442 0.87141 0.85675 0.0
H167 H 0.07603 0.79207 0.84052 0.0
O168 O 0.97531 0.90273 0.82557 0.0
C169 C 0.00014 0.82136 0.81416 0.0
Co170 Co 0.2276 0.07942 0.874 0.0
Co171 Co 0.20009 0.03759 0.83644 0.0
C172 C 0.17791 0.08912 0.84667 0.0
O173 O 0.19692 0.0959 0.86128 0.0
O174 O 0.17605 0.06655 0.83598 0.0
C175 C 0.21941 0.10689 0.91795 0.0
O176 O 0.19764 0.09443 0.91196 0.0
C177 C 0.15896 0.00013 0.82572 0.0
C178 C 0.17345 0.97383 0.79479 0.0
C179 C 0.15308 0.97752 0.81104 0.0
N180 N 0.18202 0.00903 0.81902 0.0
N181 N 0.19047 0.99348 0.80023 0.0
C182 C 0.14303 0.01331 0.84588 0.0
H183 H 0.14199 0.03383 0.84281 0.0
H184 H 0.15224 0.01194 0.86494 0.0
H185 H 0.12323 0.00501 0.84565 0.0
C186 C 0.22963 0.03568 0.90669 0.0
N187 N 0.22122 0.04643 0.88563 0.0
N188 N 0.21007 0.02866 0.86974 0.0
C189 C 0.21158 0.00591 0.87999 0.0
C190 C 0.22351 0.00965 0.90394 0.0
C191 C 0.24427 0.0499 0.92847 0.0
H192 H 0.25934 0.06246 0.92101 0.0
H193 H 0.23098 0.06209 0.93979 0.0
H194 H 0.25312 0.03683 0.94143 0.0
O195 O 0.25183 0.07697 0.84522 0.0
O196 O 0.23181 0.04696 0.81854 0.0
H197 H 0.21281 0.98088 0.84574 0.0
H198 H 0.21523 0.96479 0.87476 0.0
C199 C 0.20596 0.98055 0.86554 0.0
H200 H 0.18506 0.9767 0.86483 0.0
H201 H 0.20818 -0.00418 0.7917 0.0
O202 O 0.23856 0.103 0.90372 0.0
C203 C 0.25044 0.06294 0.82413 0.0
Co204 Co 0.00096 0.23454 0.89295 0.0
Co205 Co 0.04257 0.20797 0.85795 0.0
C206 C 0.99267 0.18256 0.86422 0.0
O207 O 0.98549 0.20199 0.87782 0.0
O208 O 0.01525 0.18119 0.85595 0.0
C209 C 0.97544 0.22802 0.93751 0.0
O210 O 0.98989 0.20794 0.93521 0.0
C211 C 0.07988 0.16946 0.84357 0.0
C212 C 0.10831 0.19084 0.82236 0.0
C213 C 0.10331 0.16728 0.83178 0.0
N214 N 0.07147 0.19318 0.84127 0.0
N215 N 0.08828 0.2057 0.82808 0.0
C216 C 0.06723 0.15059 0.85961 0.0
H217 H 0.05338 0.13833 0.84746 0.0
H218 H 0.05651 0.16068 0.87519 0.0
H219 H 0.0815 0.13815 0.8679 0.0
C220 C 0.04536 0.23957 0.92934 0.0
N221 N 0.03437 0.23095 0.90669 0.0
N222 N 0.0517 0.21951 0.89234 0.0
C223 C 0.07416 0.22035 0.9056 0.0
C224 C 0.07076 0.23307 0.92934 0.0
C225 C 0.03254 0.25544 0.94999 0.0
H226 H 0.02358 0.24265 0.96333 0.0
H227 H 0.04674 0.26826 0.96111 0.0
H228 H 0.01757 0.26707 0.94171 0.0
O229 O 0.003 0.25832 0.86564 0.0
O230 O 0.03051 0.23771 0.83986 0.0
H231 H 0.1146 0.21265 0.90991 0.0
H232 H 0.09554 0.1881 0.89217 0.0
C233 C 0.09844 0.20904 0.89594 0.0
H234 H 0.10359 0.21728 0.87789 0.0
H235 H 0.08675 0.2248 0.82416 0.0
O236 O 0.97689 0.24435 0.92083 0.0
C237 C 0.01545 0.25613 0.84494 0.0
Co238 Co 0.87324 0.07196 0.85564 0.0
Co239 Co 0.84165 0.03094 0.88339 0.0
C240 C 0.85129 0.08323 0.90779 0.0
O241 O 0.8637 0.08903 0.88847 0.0
O242 O 0.8415 0.06094 0.90901 0.0
C243 C 0.91811 0.09968 0.85849 0.0
O244 O 0.91983 0.08602 0.87834 0.0
C245 C 0.83836 0.99368 0.92084 0.0
C246 C 0.81228 0.96357 0.90227 0.0
C247 C 0.82923 0.96881 0.92286 0.0
N248 N 0.8283 0.00218 0.89947 0.0
N249 N 0.81208 0.98445 0.88885 0.0
C250 C 0.85741 0.00891 0.93807 0.0
H251 H 0.85098 0.02878 0.94159 0.0
H252 H 0.87618 0.00978 0.92863 0.0
H253 H 0.85969 0.00055 0.95671 0.0
C254 C 0.90885 0.02965 0.84864 0.0
N255 N 0.88799 0.04024 0.85923 0.0
N256 N 0.87477 0.02278 0.87058 0.0
C257 C 0.88681 0.00038 0.86711 0.0
C258 C 0.90873 0.00427 0.85353 0.0
C259 C 0.92673 0.04236 0.8313 0.0
H260 H 0.9163 0.05593 0.82007 0.0
H261 H 0.94215 0.05297 0.84293 0.0
H262 H 0.93585 0.028 0.81802 0.0
O263 O 0.8429 0.06594 0.83281 0.0
O264 O 0.81991 0.03797 0.85378 0.0
H265 H 0.8562 0.9724 0.86784 0.0
H266 H 0.88734 0.95888 0.8654 0.0
C267 C 0.87651 0.97503 0.87415 0.0
H268 H 0.87812 0.97437 0.89504 0.0
H269 H 0.80234 0.98582 0.87146 0.0
O270 O 0.89867 0.09635 0.84348 0.0
C271 C 0.82291 0.05178 0.83505 0.0
Co272 Co 0.19742 0.22863 0.02798 0.0
Co273 Co 0.23478 0.19725 0.05991 0.0
C274 C 0.21854 0.17962 0.00659 0.0
O275 O 0.20394 0.19831 0.00523 0.0
O276 O 0.23188 0.17701 0.02658 0.0
C277 C 0.15015 0.22887 0.00587 0.0
O278 O 0.15075 0.20648 0.01542 0.0
C279 C 0.24129 0.15302 0.08762 0.0
C280 C 0.27625 0.16178 0.11146 0.0
C281 C 0.25643 0.14374 0.10651 0.0
N282 N 0.25125 0.1757 0.08205 0.0
N283 N 0.27242 0.18073 0.09599 0.0
C284 C 0.21729 0.14085 0.0753 0.0
H285 H 0.21602 0.14464 0.0549 0.0
H286 H 0.20036 0.14925 0.08475 0.0
H287 H 0.21662 0.11987 0.07684 0.0
C288 C 0.16961 0.23084 0.07629 0.0
N289 N 0.18769 0.22079 0.06093 0.0
N290 N 0.2034 0.20767 0.0744 0.0
C291 C 0.19599 0.20932 0.09892 0.0
C292 C 0.17441 0.22394 0.10079 0.0
C293 C 0.14907 0.24789 0.06791 0.0
H294 H 0.15752 0.26286 0.05659 0.0
H295 H 0.13482 0.23632 0.05565 0.0
H296 H 0.1387 0.25698 0.08423 0.0
O297 O 0.22885 0.25064 0.03154 0.0
O298 O 0.25481 0.2286 0.0557 0.0
H299 H 0.2321 0.20632 0.11851 0.0
H300 H 0.20541 0.21052 0.13942 0.0
C301 C 0.21162 0.20122 0.12096 0.0
H302 H 0.20945 0.18025 0.12175 0.0
H303 H 0.28372 0.19746 0.09563 0.0
O304 O 0.1692 0.2444 0.01004 0.0
C305 C 0.24996 0.24811 0.04363 0.0
Co306 Co 0.1955 0.84076 0.05044 0.0
Co307 Co 0.23284 0.87356 0.01777 0.0
C308 C 0.227 0.88622 0.07343 0.0
O309 O 0.21164 0.8672 0.07453 0.0
O310 O 0.23605 0.89181 0.05226 0.0
C311 C 0.15348 0.84409 0.08111 0.0
O312 O 0.15823 0.86764 0.07525 0.0
C313 C 0.23672 0.91844 0.98904 0.0
C314 C 0.26768 0.9102 0.962 0.0
C315 C 0.24879 0.92759 0.96806 0.0
N316 N 0.2473 0.89637 0.99444 0.0
N317 N 0.26616 0.89175 0.97849 0.0
C318 C 0.21559 0.93037 0.00417 0.0
H319 H 0.21905 0.92832 0.0248 0.0
H320 H 0.19718 0.92012 -0.00139 0.0
H321 H 0.2141 0.95094 0.00101 0.0
C322 C 0.16188 0.84554 0.00554 0.0
N323 N 0.18246 0.85376 0.02025 0.0
N324 N 0.19919 0.86478 0.00595 0.0
C325 C 0.19085 0.8621 0.98146 0.0
C326 C 0.16657 0.85052 0.98037 0.0
C327 C 0.13933 0.83119 0.01515 0.0
H328 H 0.14501 0.81163 0.01901 0.0
H329 H 0.13298 0.841 0.03324 0.0
H330 H 0.12296 0.83004 0.00128 0.0
O331 O 0.22314 0.81639 0.04005 0.0
O332 O 0.24997 0.84065 0.01869 0.0
H333 H 0.22782 0.85714 0.96495 0.0
H334 H 0.20163 0.85086 0.9425 0.0
C335 C 0.20855 0.8634 0.95941 0.0
H336 H 0.2102 0.88334 0.95393 0.0
H337 H 0.27717 0.87547 0.97809 0.0
O338 O 0.16715 0.82643 0.07101 0.0
C339 C 0.24386 0.81941 0.02775 0.0
Co340 Co 0.84385 0.20525 0.02109 0.0
Co341 Co 0.8756 0.23566 0.06568 0.0
C342 C 0.89757 0.22595 0.01424 0.0
O343 O 0.87648 0.21571 0.00584 0.0
O344 O 0.90077 0.23355 0.03766 0.0
C345 C 0.84834 0.16222 0.99096 0.0
O346 O 0.8694 0.16486 0.00517 0.0
C347 C 0.91842 0.243 0.10164 0.0
C348 C 0.90214 0.26424 0.1351 0.0
C349 C 0.92381 0.25176 0.12676 0.0
N350 N 0.89443 0.24928 0.09554 0.0
N351 N 0.885 0.2626 0.1154 0.0
C352 C 0.93528 0.22771 0.08397 0.0
H353 H 0.94031 0.23931 0.06796 0.0
H354 H 0.92476 0.21008 0.07597 0.0
H355 H 0.95339 0.22273 0.09352 0.0
C356 C 0.83812 0.16816 0.06132 0.0
N357 N 0.84759 0.1902 0.05295 0.0
N358 N 0.86031 0.2032 0.07186 0.0
C359 C 0.85875 0.19005 0.09292 0.0
C360 C 0.84503 0.16725 0.0869 0.0
C361 C 0.82148 0.14886 0.0457 0.0
H362 H 0.80848 0.1586 0.03291 0.0
H363 H 0.83371 0.136 0.0338 0.0
H364 H 0.81 0.13701 0.05815 0.0
O365 O 0.8242 0.23731 0.02565 0.0
O366 O 0.84802 0.25892 0.05663 0.0
H367 H 0.85997 0.21666 0.12585 0.0
H368 H 0.86839 0.18462 0.13255 0.0
C369 C 0.86987 0.19926 0.11852 0.0
H370 H 0.89015 0.20439 0.11632 0.0
H371 H 0.86633 0.26916 0.11606 0.0
O372 O 0.83072 0.17828 0.9948 0.0
C373 C 0.82915 0.25743 0.04061 0.0
Co374 Co 0.86582 0.86377 0.05602 0.0
Co375 Co 0.88754 0.82656 0.0144 0.0
C376 C 0.91073 0.83341 0.06748 0.0
O377 O 0.89434 0.84967 0.0745 0.0
O378 O 0.91077 0.82325 0.0447 0.0
C379 C 0.8688 0.9081 0.08605 0.0
O380 O 0.89252 0.90639 0.07835 0.0
C381 C 0.92715 0.81763 0.97933 0.0
C382 C 0.90919 0.79168 0.94847 0.0
C383 C 0.93103 0.8067 0.95502 0.0
N384 N 0.90407 0.80977 0.98673 0.0
N385 N 0.89366 0.79354 0.96865 0.0
C386 C 0.94275 0.83911 0.99314 0.0
H387 H 0.93224 0.84818 0.00938 0.0
H388 H 0.94797 0.85379 0.97988 0.0
H389 H 0.96078 0.83151 0.00059 0.0
C390 C 0.86683 0.89866 0.01482 0.0
N391 N 0.87416 0.8771 0.0249 0.0
N392 N 0.88244 0.86108 0.00659 0.0
C393 C 0.88043 0.872 0.98418 0.0
C394 C 0.87079 0.89618 0.98885 0.0
C395 C 0.85245 0.91958 0.02874 0.0
H396 H 0.83682 0.91127 0.03972 0.0
H397 H 0.86581 0.93109 0.04204 0.0
H398 H 0.84407 0.93275 0.01556 0.0
O399 O 0.8389 0.83813 0.04922 0.0
O400 O 0.85337 0.81043 0.019 0.0
H401 H 0.87418 0.8388 0.95802 0.0
H402 H 0.87433 0.86867 0.9431 0.0
C403 C 0.88321 0.85821 0.9584 0.0
H404 H 0.90384 0.8565 0.95444 0.0
H405 H 0.87511 0.78562 0.96913 0.0
O406 O 0.85259 0.89054 0.07873 0.0
C407 C 0.83592 0.81809 0.03414 0.0
Co408 Co 0.0125 0.68942 0.71834 0.0
Co409 Co 0.04746 0.73813 0.71294 0.0
C410 C 0.01197 0.7153 0.67089 0.0
O411 O 0.00499 0.69633 0.68288 0.0
O412 O 0.02802 0.73194 0.68077 0.0
C413 C 0.98803 0.64115 0.70681 0.0
O414 O -0.00373 0.64435 0.68379 0.0
C415 C 0.08707 0.75929 0.68507 0.0
C416 C 0.10633 0.78957 0.7108 0.0
C417 C 0.10784 0.77619 0.68706 0.0
N418 N 0.07373 0.76228 0.70646 0.0
N419 N 0.08478 0.78097 0.7216 0.0
C420 C 0.08127 0.7386 0.66414 0.0
H421 H 0.06458 0.74415 0.65263 0.0
H422 H 0.07625 0.72038 0.6725 0.0
H423 H 0.09734 0.73562 0.65091 0.0
C424 C 0.05998 0.67116 0.73992 0.0
N425 N 0.04757 0.68804 0.72661 0.0
N426 N 0.06169 0.70915 0.72643 0.0
C427 C 0.08313 0.70689 0.74069 0.0
C428 C 0.08273 0.68276 0.74995 0.0
C429 C 0.04994 0.64453 0.74276 0.0
H430 H 0.04122 0.63636 0.72434 0.0
H431 H 0.06538 0.63198 0.7486 0.0
H432 H 0.03472 0.64507 0.75721 0.0
O433 O -0.00296 0.71723 0.74026 0.0
O434 O 0.02256 0.7516 0.73602 0.0
H435 H 0.11432 0.72462 0.76458 0.0
H436 H 0.11245 0.73399 0.73217 0.0
C437 C 0.10113 0.72891 0.74879 0.0
H438 H 0.08989 0.74565 0.75536 0.0
H439 H 0.07861 0.78674 0.7399 0.0
O440 O -0.00597 0.65768 0.72506 0.0
C441 C 0.00271 0.74098 0.7447 0.0
Co442 Co 0.83954 0.58002 0.70944 0.0
Co443 Co 0.86582 0.54152 0.74463 0.0
C444 C 0.89602 0.58269 0.72396 0.0
O445 O 0.87607 0.59042 0.71317 0.0
O446 O 0.89508 0.56372 0.73739 0.0
C447 C 0.84269 0.59733 0.66124 0.0
O448 O 0.86057 0.58026 0.66168 0.0
C449 C 0.9022 0.5034 0.75738 0.0
C450 C 0.88137 0.48114 0.78478 0.0
C451 C 0.90399 0.48236 0.77152 0.0
N452 N 0.87955 0.51417 0.76194 0.0
N453 N 0.86737 0.50108 0.77873 0.0
C454 C 0.92041 0.51146 0.73764 0.0
H455 H 0.90975 0.51895 0.72148 0.0
H456 H 0.93215 0.49532 0.73029 0.0
H457 H 0.93344 0.52697 0.74641 0.0
C458 C 0.82425 0.53112 0.68002 0.0
N459 N 0.83619 0.5445 0.70001 0.0
N460 N 0.84778 0.5285 0.7142 0.0
C461 C 0.84373 0.5045 0.70341 0.0
C462 C 0.82872 0.50544 0.68144 0.0
C463 C 0.80899 0.54248 0.65956 0.0
H464 H 0.7998 0.5601 0.66738 0.0
H465 H 0.82184 0.54725 0.64396 0.0
H466 H 0.79408 0.5285 0.65131 0.0
O467 O 0.82131 0.58677 0.74232 0.0
O468 O 0.84158 0.56038 0.76678 0.0
H469 H 0.85023 0.47904 0.73258 0.0
H470 H 0.85018 0.46361 0.70074 0.0
C471 C 0.85587 0.48132 0.71266 0.0
H472 H 0.87697 0.48378 0.71227 0.0
H473 H 0.84904 0.50509 0.7852 0.0
O474 O 0.82842 0.60052 0.6806 0.0
C475 C 0.82488 0.5772 0.76376 0.0
Co476 Co -0.00477 0.35661 0.72625 0.0
Co477 Co 0.03351 0.38741 0.76419 0.0
C478 C 0.98212 0.40677 0.75484 0.0
O479 O 0.97699 0.38681 0.7402 0.0
O480 O 0.00424 0.4106 0.76512 0.0
C481 C 0.9712 0.36098 0.68048 0.0
O482 O 0.98567 0.38195 0.68358 0.0
C483 C 0.0685 0.42943 0.78007 0.0
C484 C 0.09538 0.41275 0.80665 0.0
C485 C 0.09073 0.43478 0.79456 0.0
N486 N 0.06037 0.40547 0.78344 0.0
N487 N 0.07612 0.39574 0.79985 0.0
C488 C 0.05711 0.4454 0.76058 0.0
H489 H 0.04588 0.4332 0.74585 0.0
H490 H 0.07225 0.45643 0.75129 0.0
H491 H 0.04405 0.45917 0.77023 0.0
C492 C 0.04092 0.35527 0.69386 0.0
N493 N 0.02854 0.36433 0.7148 0.0
N494 N 0.0448 0.37781 0.73037 0.0
C495 C 0.06805 0.37806 0.7195 0.0
C496 C 0.06625 0.36388 0.69602 0.0
C497 C 0.02915 0.33716 0.67307 0.0
H498 H 0.01904 0.34829 0.65909 0.0
H499 H 0.04382 0.32596 0.6626 0.0
H500 H 0.0151 0.32394 0.68116 0.0
O501 O -0.0017 0.33224 0.75293 0.0
O502 O 0.02393 0.35573 0.78087 0.0
H503 H 0.10939 0.38332 0.72145 0.0
H504 H 0.09163 0.40985 0.7348 0.0
C505 C 0.09226 0.38871 0.73255 0.0
H506 H 0.09405 0.38152 0.75176 0.0
H507 H 0.07457 0.37703 0.80521 0.0
O508 O 0.97252 0.34449 0.69694 0.0
C509 C 0.01058 0.33537 0.7743 0.0
Co510 Co 0.20589 0.52284 0.73215 0.0
Co511 Co 0.18975 0.56425 0.77446 0.0
C512 C 0.16323 0.51304 0.76767 0.0
O513 O 0.17811 0.50605 0.74982 0.0
O514 O 0.16484 0.53554 0.77859 0.0
C515 C 0.19314 0.494 0.68749 0.0
O516 O 0.17061 0.50186 0.69482 0.0
C517 C 0.15511 0.60283 0.79187 0.0
C518 C 0.1796 0.63127 0.8149 0.0
C519 C 0.15519 0.62716 0.80416 0.0
N520 N 0.17826 0.59304 0.79501 0.0
N521 N 0.19262 0.60973 0.80961 0.0
C522 C 0.13509 0.59134 0.77314 0.0
H523 H 0.14212 0.57412 0.76219 0.0
H524 H 0.12944 0.60552 0.75962 0.0
H525 H 0.11776 0.58603 0.78365 0.0
C526 C 0.20424 0.56624 0.70073 0.0
N527 N 0.19809 0.55537 0.72227 0.0
N528 N 0.19269 0.57333 0.74009 0.0
C529 C 0.19575 0.5963 0.73042 0.0
C530 C 0.20317 0.59246 0.70531 0.0
C531 C 0.21365 0.55209 0.677 0.0
H532 H 0.23016 0.54043 0.68182 0.0
H533 H 0.19802 0.5393 0.66839 0.0
H534 H 0.21941 0.56516 0.6624 0.0
O535 O 0.23635 0.52662 0.75464 0.0
O536 O 0.22394 0.55434 0.7862 0.0
H537 H 0.20782 0.62041 0.7635 0.0
H538 H 0.20355 0.63726 0.73513 0.0
C539 C 0.19598 0.62142 0.74589 0.0
H540 H 0.17608 0.6255 0.75113 0.0
H541 H 0.21198 0.60741 0.81394 0.0
O542 O 0.21268 0.5005 0.70155 0.0
C543 C 0.24053 0.5397 0.77588 0.0
Co544 Co 0.0097 0.37232 0.35673 0.0
Co545 Co 0.05247 0.34925 0.38885 0.0
C546 C 0.00479 0.36263 0.41284 0.0
O547 O -0.00329 0.36922 0.39143 0.0
O548 O 0.02755 0.3554 0.41563 0.0
C549 C 0.98752 0.41754 0.35407 0.0
O550 O 0.00469 0.42176 0.3727 0.0
C551 C 0.09074 0.34015 0.42707 0.0
C552 C 0.1169 0.31416 0.40596 0.0
C553 C 0.11277 0.32661 0.42969 0.0
N554 N 0.08187 0.33556 0.40302 0.0
N555 N 0.09735 0.31981 0.39048 0.0
C556 C 0.07976 0.35933 0.44616 0.0
H557 H 0.06499 0.34962 0.45716 0.0
H558 H 0.07052 0.37468 0.43627 0.0
H559 H 0.09479 0.36795 0.45972 0.0
C560 C 0.05412 0.40292 0.34098 0.0
N561 N 0.04341 0.38617 0.35604 0.0
N562 N 0.06101 0.37832 0.37155 0.0
C563 C 0.08339 0.39066 0.36768 0.0
C564 C 0.07981 0.40663 0.34806 0.0
C565 C 0.04078 0.41215 0.31808 0.0
H566 H 0.02649 0.39746 0.30999 0.0
H567 H 0.03043 0.42975 0.32387 0.0
H568 H 0.05469 0.41658 0.30324 0.0
O569 O 0.00814 0.33801 0.33969 0.0
O570 O 0.03798 0.32227 0.36435 0.0
H571 H 0.11691 0.36958 0.37444 0.0
H572 H 0.12118 0.40371 0.38173 0.0
C573 C 0.10765 0.38709 0.3825 0.0
H574 H 0.10331 0.38469 0.40272 0.0
H575 H 0.09486 0.31339 0.37123 0.0
O576 O 0.98606 0.39565 0.34184 0.0
C577 C 0.02119 0.31944 0.34636 0.0
Co578 Co 0.23445 0.56991 0.39277 0.0
Co579 Co 0.20818 0.53026 0.35292 0.0
C580 C 0.18435 0.5799 0.36543 0.0
O581 O 0.20326 0.5863 0.38035 0.0
O582 O 0.1828 0.5577 0.35395 0.0
C583 C 0.22515 0.59395 0.439 0.0
O584 O 0.20541 0.57793 0.43492 0.0
C585 C 0.16764 0.49498 0.33682 0.0
C586 C 0.18344 0.46959 0.30586 0.0
C587 C 0.16162 0.47381 0.32006 0.0
N588 N 0.19162 0.50303 0.33257 0.0
N589 N 0.20096 0.48812 0.31378 0.0
C590 C 0.15236 0.50569 0.35883 0.0
H591 H 0.16518 0.51515 0.37408 0.0
H592 H 0.14055 0.4905 0.36692 0.0
H593 H 0.13953 0.52038 0.35215 0.0
C594 C 0.23471 0.52419 0.42393 0.0
N595 N 0.22874 0.53585 0.40259 0.0
N596 N 0.21738 0.51904 0.38579 0.0
C597 C 0.21566 0.49621 0.39606 0.0
C598 C 0.22623 0.49876 0.42069 0.0
C599 C 0.24809 0.5371 0.44716 0.0
H600 H 0.26072 0.55309 0.44186 0.0
H601 H 0.2336 0.54468 0.46068 0.0
H602 H 0.25971 0.52344 0.45712 0.0
O603 O 0.25981 0.57001 0.3648 0.0
O604 O 0.23904 0.54312 0.33576 0.0
H605 H 0.21239 0.45492 0.39174 0.0
H606 H 0.18451 0.47121 0.38199 0.0
C607 C 0.20573 0.47174 0.38219 0.0
H608 H 0.21232 0.47041 0.36224 0.0
H609 H 0.21954 0.49 0.30703 0.0
O610 O 0.2432 0.59348 0.42307 0.0
C611 C 0.25787 0.55847 0.34242 0.0
Co612 Co 0.00157 0.72502 0.37783 0.0
Co613 Co 0.04681 0.6962 0.34984 0.0
C614 C -0.00395 0.67074 0.35324 0.0
O615 O 0.98743 0.6912 0.36386 0.0
O616 O 0.01948 0.6691 0.34758 0.0
C617 C 0.97085 0.71953 0.41873 0.0
O618 O 0.98459 0.69893 0.41675 0.0
C619 C 0.08595 0.65747 0.34478 0.0
C620 C 0.11686 0.67704 0.32513 0.0
C621 C 0.11098 0.65497 0.33699 0.0
N622 N 0.07749 0.68011 0.33822 0.0
N623 N 0.09588 0.69143 0.32588 0.0
C624 C 0.07156 0.64019 0.36119 0.0
H625 H 0.0575 0.65108 0.37287 0.0
H626 H 0.08485 0.63069 0.37393 0.0
H627 H 0.06113 0.62513 0.34867 0.0
C628 C 0.04178 0.73184 0.41945 0.0
N629 N 0.03354 0.72262 0.39583 0.0
N630 N 0.05241 0.71071 0.3842 0.0
C631 C 0.07318 0.71211 0.40013 0.0
C632 C 0.06705 0.72538 0.42294 0.0
C633 C 0.02637 0.74771 0.43802 0.0
H634 H 0.01312 0.75965 0.42772 0.0
H635 H 0.01501 0.73491 0.44962 0.0
H636 H 0.03908 0.76018 0.45124 0.0
O637 O 0.00685 0.74631 0.34822 0.0
O638 O 0.03683 0.7239 0.32736 0.0
H639 H 0.10495 0.7063 0.37546 0.0
H640 H 0.11338 0.7063 0.4088 0.0
C641 C 0.09839 0.70047 0.39409 0.0
H642 H 0.09612 0.67939 0.39316 0.0
H643 H 0.09468 0.70967 0.31939 0.0
O644 O 0.97455 0.73636 0.40281 0.0
C645 C 0.02144 0.74249 0.32907 0.0
Co646 Co 0.87545 0.56109 0.34874 0.0
Co647 Co 0.84336 0.52238 0.37937 0.0
C648 C 0.85274 0.57557 0.40012 0.0
O649 O 0.86559 0.58023 0.38068 0.0
O650 O 0.84298 0.55352 0.4025 0.0
C651 C 0.9215 0.58743 0.35067 0.0
O652 O 0.92242 0.57478 0.37126 0.0
C653 C 0.83272 0.49209 0.42181 0.0
C654 C 0.81335 0.4572 0.40343 0.0
C655 C 0.82377 0.46783 0.42652 0.0
N656 N 0.82862 0.49534 0.39697 0.0
N657 N 0.8164 0.47471 0.38619 0.0
C658 C 0.84574 0.51181 0.44031 0.0
H659 H 0.865 0.51687 0.43333 0.0
H660 H 0.84735 0.50536 0.45985 0.0
H661 H 0.83439 0.52936 0.44141 0.0
C662 C 0.91024 0.51773 0.34527 0.0
N663 N 0.88932 0.5293 0.35453 0.0
N664 N 0.87681 0.51373 0.36873 0.0
C665 C 0.88987 0.49201 0.36948 0.0
C666 C 0.91122 0.49387 0.35449 0.0
C667 C 0.92756 0.52807 0.32595 0.0
H668 H 0.91716 0.54121 0.31417 0.0
H669 H 0.94403 0.53863 0.33597 0.0
H670 H 0.93527 0.51226 0.31334 0.0
O671 O 0.84492 0.55481 0.32625 0.0
O672 O 0.82233 0.52805 0.34893 0.0
H673 H 0.86484 0.4603 0.37588 0.0
H674 H 0.89776 0.45592 0.38511 0.0
C675 C 0.88241 0.47002 0.38455 0.0
H676 H 0.87851 0.47722 0.4044 0.0
H677 H 0.81154 0.47196 0.36674 0.0
O678 O 0.90199 0.58423 0.3357 0.0
C679 C 0.82499 0.54086 0.32944 0.0
Co680 Co 0.18635 0.72377 0.53292 0.0
Co681 Co 0.22364 0.69792 0.57032 0.0
C682 C 0.2094 0.67302 0.51922 0.0
O683 O 0.19618 0.69184 0.51384 0.0
O684 O 0.22012 0.67217 0.54099 0.0
C685 C 0.13934 0.72109 0.50689 0.0
O686 O 0.13951 0.69904 0.51713 0.0
C687 C 0.22598 0.66429 0.61009 0.0
C688 C 0.26258 0.67449 0.63076 0.0
C689 C 0.24014 0.65977 0.63173 0.0
N690 N 0.23891 0.68145 0.59737 0.0
N691 N 0.26102 0.68725 0.60948 0.0
C692 C 0.20011 0.6532 0.60172 0.0
H693 H 0.18507 0.6653 0.61046 0.0
H694 H 0.19747 0.63352 0.60778 0.0
H695 H 0.19769 0.65294 0.58067 0.0
C696 C 0.15892 0.73394 0.58083 0.0
N697 N 0.17578 0.72 0.56692 0.0
N698 N 0.19336 0.71216 0.58253 0.0
C699 C 0.18953 0.72247 0.60636 0.0
C700 C 0.16745 0.73632 0.60626 0.0
C701 C 0.1355 0.74502 0.56973 0.0
H702 H 0.12555 0.73045 0.55635 0.0
H703 H 0.12186 0.75111 0.58475 0.0
H704 H 0.14117 0.76153 0.55891 0.0
O705 O 0.21742 0.74714 0.53604 0.0
O706 O 0.24403 0.72706 0.56141 0.0
H707 H 0.20738 0.7418 0.64059 0.0
H708 H 0.2086 0.7075 0.63821 0.0
C709 C 0.20978 0.72464 0.62719 0.0
H710 H 0.22901 0.7262 0.61887 0.0
H711 H 0.27441 0.7008 0.60395 0.0
O712 O 0.15821 0.73681 0.51166 0.0
C713 C 0.2388 0.7456 0.54813 0.0
Co714 Co 0.22689 0.38704 0.53123 0.0
Co715 Co 0.19688 0.35338 0.56993 0.0
C716 C 0.18058 0.35297 0.51596 0.0
O717 O 0.19936 0.36774 0.51161 0.0
O718 O 0.17634 0.34654 0.5383 0.0
C719 C 0.21834 0.4248 0.49839 0.0
O720 O 0.19577 0.41936 0.50749 0.0
C721 C 0.15394 0.34674 0.60362 0.0
C722 C 0.1696 0.32288 0.63262 0.0
C723 C 0.14846 0.33692 0.62678 0.0
N724 N 0.17749 0.3396 0.59663 0.0
N725 N 0.18652 0.32484 0.61377 0.0
C726 C 0.13739 0.36321 0.58853 0.0
H727 H 0.14008 0.35883 0.56782 0.0
H728 H 0.14296 0.38364 0.59312 0.0
H729 H 0.11687 0.36026 0.5929 0.0
C730 C 0.21646 0.42747 0.57261 0.0
N731 N 0.21447 0.40313 0.56204 0.0
N732 N 0.20366 0.38865 0.57846 0.0
C733 C 0.19956 0.40306 0.60023 0.0
C734 C 0.20651 0.42805 0.59685 0.0
C735 C 0.2283 0.44947 0.56017 0.0
H736 H 0.24555 0.44325 0.54972 0.0
H737 H 0.21431 0.45628 0.54625 0.0
H738 H 0.23356 0.4656 0.57446 0.0
O739 O 0.25266 0.36071 0.53935 0.0
O740 O 0.22961 0.33645 0.56437 0.0
H741 H 0.20135 0.37378 0.62667 0.0
H742 H 0.2019 0.40578 0.6415 0.0
C743 C 0.19349 0.39298 0.62543 0.0
H744 H 0.17252 0.39225 0.62792 0.0
H745 H 0.20476 0.31725 0.61332 0.0
O746 O 0.23765 0.4135 0.50701 0.0
C747 C 0.25 0.34108 0.5523 0.0
Co748 Co 0.84335 0.69753 0.51143 0.0
Co749 Co 0.87743 0.73084 0.5509 0.0
C750 C 0.89299 0.72226 0.49654 0.0
O751 O 0.87203 0.71035 0.49054 0.0
O752 O 0.89797 0.73041 0.51949 0.0
C753 C 0.84808 0.65501 0.48225 0.0
O754 O 0.8701 0.65986 0.49449 0.0
C755 C 0.92456 0.73771 0.57933 0.0
C756 C 0.91499 0.7611 0.61434 0.0
C757 C 0.93431 0.74699 0.60293 0.0
N758 N 0.90037 0.74525 0.57697 0.0
N759 N 0.89486 0.75983 0.59769 0.0
C760 C 0.9376 0.72085 0.55964 0.0
H761 H 0.94131 0.73196 0.54294 0.0
H762 H 0.92489 0.70408 0.55338 0.0
H763 H 0.95633 0.71441 0.56659 0.0
C764 C 0.84416 0.66228 0.55317 0.0
N765 N 0.85323 0.68319 0.54236 0.0
N766 N 0.86679 0.6977 0.55955 0.0
C767 C 0.86625 0.68678 0.582 0.0
C768 C 0.8521 0.66392 0.57864 0.0
C769 C 0.82532 0.643 0.54051 0.0
H770 H 0.81081 0.65276 0.52937 0.0
H771 H 0.83556 0.62965 0.52714 0.0
H772 H 0.81556 0.63175 0.55471 0.0
O773 O 0.82002 0.72596 0.52113 0.0
O774 O 0.84575 0.75059 0.54805 0.0
H775 H 0.86539 0.71678 0.61191 0.0
H776 H 0.87493 0.68643 0.6226 0.0
C777 C 0.87629 0.69933 0.60693 0.0
H778 H 0.89651 0.70511 0.60511 0.0
H779 H 0.87693 0.76745 0.60116 0.0
O780 O 0.82928 0.66924 0.48758 0.0
C781 C 0.82414 0.74605 0.53637 0.0
Co782 Co 0.84588 0.37748 0.57949 0.0
Co783 Co 0.8829 0.3486 0.54279 0.0
C784 C 0.89793 0.36071 0.59657 0.0
O785 O 0.87607 0.36986 0.60087 0.0
O786 O 0.90417 0.35286 0.57418 0.0
C787 C 0.84211 0.42218 0.60662 0.0
O788 O 0.86502 0.4228 0.59676 0.0
C789 C 0.92616 0.34455 0.50999 0.0
C790 C 0.91386 0.31324 0.48135 0.0
C791 C 0.93292 0.33186 0.48724 0.0
N792 N 0.9039 0.33424 0.51709 0.0
N793 N 0.89697 0.31499 0.50037 0.0
C794 C 0.9387 0.36833 0.52289 0.0
H795 H 0.92533 0.3784 0.53608 0.0
H796 H 0.9454 0.38132 0.50855 0.0
H797 H 0.95572 0.36298 0.53405 0.0
C798 C 0.84267 0.41049 0.53632 0.0
N799 N 0.85385 0.3918 0.54839 0.0
N800 N 0.86947 0.37961 0.53267 0.0
C801 C 0.86868 0.3902 0.51007 0.0
C802 C 0.85186 0.41011 0.51178 0.0
C803 C 0.82232 0.42723 0.54745 0.0
H804 H 0.8314 0.44225 0.56102 0.0
H805 H 0.81192 0.43702 0.53262 0.0
H806 H 0.80853 0.41574 0.55795 0.0
O807 O 0.8256 0.34589 0.57091 0.0
O808 O 0.85387 0.32459 0.54687 0.0
H809 H 0.87217 0.38727 0.46883 0.0
H810 H 0.90122 0.38351 0.4868 0.0
C811 C 0.88034 0.37916 0.486 0.0
H812 H 0.87693 0.35817 0.48394 0.0
H813 H 0.87985 0.30429 0.50098 0.0
O814 O 0.82755 0.40259 0.60135 0.0
C815 C 0.83228 0.32589 0.55766 0.0
Co816 Co 0.50412 0.22242 0.72296 0.0
Co817 Co 0.54822 0.25036 0.69533 0.0
C818 C 0.49642 0.24266 0.6718 0.0
O819 O 0.48859 0.23171 0.69095 0.0
O820 O 0.51953 0.25039 0.67033 0.0
C821 C 0.47569 0.1782 0.72048 0.0
O822 O 0.48949 0.17565 0.69986 0.0
C823 C 0.58546 0.25172 0.65602 0.0
C824 C 0.61729 0.27579 0.67409 0.0
C825 C 0.61063 0.25958 0.65265 0.0
N826 N 0.57796 0.26186 0.67879 0.0
N827 N 0.59676 0.27684 0.68925 0.0
C828 C 0.56873 0.2342 0.6384 0.0
H829 H 0.55043 0.24354 0.6348 0.0
H830 H 0.56426 0.21633 0.64762 0.0
H831 H 0.57764 0.22966 0.61968 0.0
C832 C 0.54515 0.18559 0.72947 0.0
N833 N 0.5358 0.20621 0.71906 0.0
N834 N 0.55413 0.21744 0.70676 0.0
C835 C 0.57562 0.20399 0.70866 0.0
C836 C 0.57043 0.18332 0.72272 0.0
C837 C 0.53084 0.16943 0.74704 0.0
H838 H 0.51728 0.18115 0.7585 0.0
H839 H 0.52005 0.15389 0.73554 0.0
H840 H 0.54399 0.16031 0.76015 0.0
O841 O 0.50974 0.25364 0.74544 0.0
O842 O 0.5411 0.27359 0.72568 0.0
H843 H 0.60546 0.23271 0.70774 0.0
H844 H 0.61697 0.20089 0.70831 0.0
C845 C 0.60163 0.21252 0.70066 0.0
H846 H 0.60234 0.21066 0.67957 0.0
H847 H 0.59621 0.2864 0.70745 0.0
O848 O 0.47868 0.19832 0.73553 0.0
C849 C 0.52547 0.27251 0.74395 0.0
Co850 Co 0.3474 0.08655 0.69928 0.0
Co851 Co 0.3783 0.04605 0.72944 0.0
C852 C 0.3997 0.09769 0.72478 0.0
O853 O 0.37926 0.10328 0.71331 0.0
O854 O 0.40335 0.07525 0.73131 0.0
C855 C 0.35377 0.11646 0.6585 0.0
O856 O 0.3762 0.1062 0.66116 0.0
C857 C 0.41741 0.00789 0.73922 0.0
C858 C 0.3952 0.98059 0.76064 0.0
C859 C 0.41878 0.98438 0.74968 0.0
N860 N 0.39398 0.01725 0.74354 0.0
N861 N 0.38109 0.00109 0.7569 0.0
C862 C 0.43664 0.01975 0.72264 0.0
H863 H 0.42702 0.03203 0.70933 0.0
H864 H 0.44747 0.00482 0.71171 0.0
H865 H 0.45041 0.03197 0.73492 0.0
C866 C 0.34202 0.04164 0.66212 0.0
N867 N 0.35293 0.05358 0.68349 0.0
N868 N 0.36625 0.03704 0.69551 0.0
C869 C 0.36428 0.01413 0.68202 0.0
C870 C 0.34868 0.01628 0.66075 0.0
C871 C 0.32352 0.05369 0.64495 0.0
H872 H 0.31035 0.0658 0.65655 0.0
H873 H 0.33434 0.06621 0.63261 0.0
H874 H 0.31233 0.03903 0.6326 0.0
O875 O 0.32469 0.08291 0.72872 0.0
O876 O 0.34748 0.05526 0.74962 0.0
H877 H 0.36775 0.9847 0.70775 0.0
H878 H 0.37336 0.97405 0.67491 0.0
C879 C 0.37619 0.99021 0.68973 0.0
H880 H 0.39704 0.9937 0.69272 0.0
H881 H 0.3621 0.00337 0.76227 0.0
O882 O 0.33567 0.11008 0.67292 0.0
C883 C 0.32806 0.0693 0.74762 0.0
Co884 Co 0.50017 0.84942 0.70994 0.0
Co885 Co 0.54198 0.87895 0.74407 0.0
C886 C 0.49243 0.90305 0.73451 0.0
O887 O 0.48481 0.88254 0.72177 0.0
O888 O 0.51496 0.905 0.74415 0.0
C889 C 0.47262 0.85189 0.66575 0.0
O890 O 0.48826 0.87201 0.66607 0.0
C891 C 0.58042 0.91882 0.75583 0.0
C892 C 0.60657 0.9021 0.7831 0.0
C893 C 0.60328 0.92335 0.7694 0.0
N894 N 0.57072 0.89591 0.76104 0.0
N895 N 0.58608 0.88619 0.77782 0.0
C896 C 0.56966 0.9344 0.73567 0.0
H897 H 0.5598 0.95094 0.74504 0.0
H898 H 0.55576 0.92282 0.72297 0.0
H899 H 0.58523 0.94203 0.72408 0.0
C900 C 0.54382 0.84398 0.67397 0.0
N901 N 0.53338 0.85346 0.69593 0.0
N902 N 0.55132 0.86593 0.71035 0.0
C903 C 0.57377 0.86466 0.69794 0.0
C904 C 0.5697 0.85088 0.67439 0.0
C905 C 0.52991 0.82674 0.65384 0.0
H906 H 0.51525 0.81471 0.66263 0.0
H907 H 0.52019 0.83852 0.64015 0.0
H908 H 0.54345 0.8143 0.64306 0.0
O909 O 0.50262 0.82672 0.73856 0.0
O910 O 0.53092 0.84978 0.7639 0.0
H911 H 0.60188 0.87102 0.72829 0.0
H912 H 0.61515 0.86967 0.6968 0.0
C913 C 0.59878 0.87615 0.70843 0.0
H914 H 0.59832 0.89723 0.70852 0.0
H915 H 0.58323 0.86819 0.78464 0.0
O916 O 0.47491 0.8365 0.68313 0.0
C917 C 0.51585 0.83026 0.75935 0.0
Co918 Co 0.72425 0.00845 0.70917 0.0
Co919 Co 0.69388 0.05311 0.73621 0.0
C920 C 0.676 -0.00013 0.7387 0.0
O921 O 0.69575 0.99265 0.7269 0.0
O922 O 0.67139 0.02346 0.74244 0.0
C923 C 0.71658 0.97001 0.67259 0.0
O924 O 0.69374 0.97892 0.67706 0.0
C925 C 0.65283 0.0887 0.74002 0.0
C926 C 0.67004 0.12189 0.76351 0.0
C927 C 0.64831 0.11357 0.74926 0.0
N928 N 0.67644 0.08288 0.74772 0.0
N929 N 0.68649 0.10256 0.7622 0.0
C930 C 0.63524 0.0705 0.72409 0.0
H931 H 0.63392 0.05199 0.73284 0.0
H932 H 0.64331 0.06676 0.70481 0.0
H933 H 0.61569 0.078 0.72243 0.0
C934 C 0.72353 0.04246 0.66766 0.0
N935 N 0.71463 0.03571 0.69013 0.0
N936 N 0.70284 0.05507 0.70157 0.0
C937 C 0.70447 0.07505 0.68695 0.0
C938 C 0.71745 0.0676 0.66496 0.0
C939 C 0.73975 0.02599 0.65036 0.0
H940 H 0.75619 0.01921 0.66141 0.0
H941 H 0.72812 0.00909 0.64243 0.0
H942 H 0.74687 0.03622 0.6341 0.0
O943 O 0.74956 0.02153 0.73597 0.0
O944 O 0.72556 0.05081 0.75656 0.0
H945 H 0.70755 0.10666 0.71534 0.0
H946 H 0.70596 0.11601 0.68306 0.0
C947 C 0.69872 0.10196 0.69611 0.0
H948 H 0.67778 0.10367 0.69746 0.0
H949 H 0.70496 0.10319 0.77028 0.0
O950 O 0.73586 0.98048 0.68496 0.0
C951 C 0.74607 0.03831 0.75447 0.0
Co952 Co 0.4975 0.85931 0.361 0.0
Co953 Co 0.53714 0.81986 0.37821 0.0
C954 C 0.49415 0.83629 0.41077 0.0
O955 O 0.48683 0.85162 0.39489 0.0
O956 O 0.51315 0.82233 0.40652 0.0
C957 C 0.47911 0.90652 0.37168 0.0
O958 O 0.49454 0.9035 0.39123 0.0
C959 C 0.57673 0.8112 0.41369 0.0
C960 C 0.60144 0.78265 0.39435 0.0
C961 C 0.5997 0.79917 0.41618 0.0
N962 N 0.56561 0.80283 0.39125 0.0
N963 N 0.58009 0.78529 0.3799 0.0
C964 C 0.56559 0.83118 0.43189 0.0
H965 H 0.54826 0.82289 0.44032 0.0
H966 H 0.55971 0.84768 0.42141 0.0
H967 H 0.57885 0.83781 0.44793 0.0
C968 C 0.54482 0.88763 0.34947 0.0
N969 N 0.53245 0.86807 0.35962 0.0
N970 N 0.54923 0.85183 0.36708 0.0
C971 C 0.57292 0.86075 0.36193 0.0
C972 C 0.5708 0.88368 0.35083 0.0
C973 C 0.53202 0.90928 0.33792 0.0
H974 H 0.5261 0.9233 0.35343 0.0
H975 H 0.54507 0.91936 0.32541 0.0
H976 H 0.51476 0.90205 0.32665 0.0
O977 O 0.49002 0.82878 0.33762 0.0
O978 O 0.51856 0.80076 0.34956 0.0
H979 H 0.61332 0.85564 0.35542 0.0
H980 H 0.60188 0.84607 0.38539 0.0
C981 C 0.59702 0.84648 0.36485 0.0
H982 H 0.59411 0.82659 0.35632 0.0
H983 H 0.57621 0.77627 0.36172 0.0
O984 O 0.47708 0.88884 0.35368 0.0
C985 C 0.49973 0.80668 0.33549 0.0
Co986 Co 0.73031 0.0579 0.37564 0.0
Co987 Co 0.70084 0.01414 0.34244 0.0
C988 C 0.679 0.06656 0.35195 0.0
O989 O 0.69831 0.07395 0.36599 0.0
O990 O 0.67723 0.04371 0.34176 0.0
C991 C 0.74804 0.10558 0.39803 0.0
O992 O 0.7426 0.11236 0.37503 0.0
C993 C 0.65826 0.97755 0.33516 0.0
C994 C 0.67363 0.9461 0.31015 0.0
C995 C 0.65263 0.95295 0.32456 0.0
N996 N 0.68179 0.98466 0.32803 0.0
N997 N 0.6907 0.96602 0.3126 0.0
C998 C 0.64238 0.99362 0.35319 0.0
H999 H 0.63833 0.01181 0.34474 0.0
H1000 H 0.65336 -0.00154 0.37134 0.0
H1001 H 0.62388 0.98389 0.35705 0.0
C1002 C 0.73476 0.01759 0.41132 0.0
N1003 N 0.72496 0.0264 0.38985 0.0
N1004 N 0.71319 0.00752 0.37588 0.0
C1005 C 0.71571 0.98584 0.38788 0.0
C1006 C 0.72931 0.99152 0.41078 0.0
C1007 C 0.75159 0.03331 0.43035 0.0
H1008 H 0.76757 0.04228 0.4203 0.0
H1009 H 0.7403 0.04885 0.43968 0.0
H1010 H 0.75964 0.02167 0.44514 0.0
O1011 O 0.75157 0.05342 0.34499 0.0
O1012 O 0.73114 0.02143 0.32142 0.0
H1013 H 0.71758 0.95443 0.35954 0.0
H1014 H 0.70866 0.94517 0.39082 0.0
C1015 C 0.7067 0.95989 0.37695 0.0
H1016 H 0.68641 0.96059 0.37144 0.0
H1017 H 0.70894 0.96633 0.30486 0.0
O1018 O 0.74639 0.08207 0.40193 0.0
C1019 C 0.74952 0.03806 0.32492 0.0
Co1020 Co 0.5109 0.22209 0.37693 0.0
Co1021 Co 0.54826 0.18945 0.3418 0.0
C1022 C 0.49699 0.16875 0.35444 0.0
O1023 O 0.49299 0.18971 0.3671 0.0
O1024 O 0.51794 0.16526 0.34301 0.0
C1025 C 0.48517 0.22038 0.42122 0.0
O1026 O 0.49805 0.1992 0.41934 0.0
C1027 C 0.58226 0.14673 0.33359 0.0
C1028 C 0.61081 0.16091 0.30735 0.0
C1029 C 0.60517 0.14072 0.32206 0.0
N1030 N 0.57485 0.16947 0.3263 0.0
N1031 N 0.59165 0.17752 0.31001 0.0
C1032 C 0.5694 0.13281 0.35386 0.0
H1033 H 0.55519 0.11868 0.3446 0.0
H1034 H 0.55909 0.14637 0.36699 0.0
H1035 H 0.58347 0.12236 0.36487 0.0
C1036 C 0.55694 0.22691 0.41069 0.0
N1037 N 0.54427 0.21696 0.3894 0.0
N1038 N 0.55999 0.20324 0.37502 0.0
C1039 C 0.5833 0.20439 0.38677 0.0
C1040 C 0.58197 0.2193 0.40961 0.0
C1041 C 0.54581 0.24463 0.43097 0.0
H1042 H 0.53224 0.25748 0.42228 0.0
H1043 H 0.53527 0.23322 0.44449 0.0
H1044 H 0.56112 0.25622 0.44186 0.0
O1045 O 0.51338 0.24246 0.34704 0.0
O1046 O 0.54026 0.21978 0.32215 0.0
H1047 H 0.60925 0.19651 0.35634 0.0
H1048 H 0.62424 0.19832 0.3876 0.0
C1049 C 0.6067 0.19194 0.37635 0.0
H1050 H 0.60444 0.17096 0.37701 0.0
H1051 H 0.59099 0.19514 0.30213 0.0
O1052 O 0.48885 0.23651 0.40466 0.0
C1053 C 0.52633 0.23924 0.32674 0.0
Co1054 Co 0.37722 0.05661 0.35667 0.0
Co1055 Co 0.34159 0.01986 0.38495 0.0
C1056 C 0.34451 0.0748 0.4013 0.0
O1057 O 0.35938 0.07883 0.38306 0.0
O1058 O 0.33679 0.05229 0.40504 0.0
C1059 C 0.41812 0.08995 0.36354 0.0
O1060 O 0.41202 0.08517 0.38688 0.0
C1061 C 0.32735 0.98888 0.42554 0.0
C1062 C 0.29877 0.96121 0.40686 0.0
C1063 C 0.31239 0.96729 0.42965 0.0
N1064 N 0.32315 0.9947 0.40147 0.0
N1065 N 0.30564 0.97854 0.39051 0.0
C1066 C 0.34723 0.0026 0.44301 0.0
H1067 H 0.36013 0.01476 0.43221 0.0
H1068 H 0.35871 0.98881 0.453 0.0
H1069 H 0.33758 0.0152 0.45756 0.0
C1070 C 0.41433 0.01676 0.36632 0.0
N1071 N 0.39146 0.0275 0.37011 0.0
N1072 N 0.37643 0.01171 0.38172 0.0
C1073 C 0.3892 0.99032 0.38542 0.0
C1074 C 0.41363 0.99311 0.37621 0.0
C1075 C 0.43545 0.02777 0.35133 0.0
H1076 H 0.42747 0.0347 0.3335 0.0
H1077 H 0.44474 0.04427 0.36283 0.0
H1078 H 0.45026 0.01355 0.34657 0.0
O1079 O 0.35262 0.04483 0.32852 0.0
O1080 O 0.3268 0.02085 0.35071 0.0
H1081 H 0.35755 0.96309 0.38499 0.0
H1082 H 0.38851 0.94911 0.38683 0.0
C1083 C 0.3772 0.96591 0.39325 0.0
H1084 H 0.3764 0.96673 0.41434 0.0
H1085 H 0.2992 0.97866 0.37154 0.0
O1086 O 0.40537 0.07867 0.34485 0.0
C1087 C 0.33273 0.03035 0.33 0.0
Co1088 Co 0.71098 0.22343 0.50701 0.0
Co1089 Co 0.7415 0.18977 0.54295 0.0
C1090 C 0.73725 0.17574 0.4875 0.0
O1091 O 0.72494 0.19579 0.48477 0.0
O1092 O 0.74397 0.16978 0.50956 0.0
C1093 C 0.66778 0.21893 0.47934 0.0
O1094 O 0.67133 0.19648 0.48807 0.0
C1095 C 0.74465 0.1466 0.57316 0.0
C1096 C 0.77333 0.15936 0.60333 0.0
C1097 C 0.75553 0.13986 0.59589 0.0
N1098 N 0.75486 0.16931 0.56796 0.0
N1099 N 0.77248 0.1766 0.58566 0.0
C1100 C 0.72413 0.13238 0.55693 0.0
H1101 H 0.7279 0.13406 0.53644 0.0
H1102 H 0.70536 0.14099 0.561 0.0
H1103 H 0.7231 0.11184 0.56063 0.0
C1104 C 0.67528 0.22367 0.54886 0.0
N1105 N 0.6952 0.21305 0.53661 0.0
N1106 N 0.70792 0.19934 0.55223 0.0
C1107 C 0.69653 0.20113 0.57517 0.0
C1108 C 0.67552 0.21647 0.5736 0.0
C1109 C 0.65851 0.24317 0.53821 0.0
H1110 H 0.67044 0.25761 0.52914 0.0
H1111 H 0.64526 0.2335 0.52353 0.0
H1112 H 0.64656 0.25289 0.55296 0.0
O1113 O 0.73937 0.24729 0.5186 0.0
O1114 O 0.762 0.22181 0.54224 0.0
H1115 H 0.72885 0.19963 0.60077 0.0
H1116 H 0.69863 0.20174 0.61655 0.0
C1117 C 0.7084 0.19334 0.59946 0.0
H1118 H 0.70702 0.17227 0.5996 0.0
H1119 H 0.78282 0.19402 0.5865 0.0
O1120 O 0.68428 0.23694 0.48499 0.0
C1121 C 0.75888 0.24312 0.53259 0.0
Co1122 Co 0.69379 0.83833 0.57295 0.0
Co1123 Co 0.72989 0.86989 0.53804 0.0
C1124 C 0.7174 0.89035 0.58997 0.0
O1125 O 0.70476 0.8699 0.59306 0.0
O1126 O 0.72779 0.89385 0.56888 0.0
C1127 C 0.64783 0.84359 0.59712 0.0
O1128 O 0.65083 0.86446 0.58508 0.0
C1129 C 0.73673 0.90991 0.50324 0.0
C1130 C 0.77257 0.90011 0.48384 0.0
C1131 C 0.75288 0.91736 0.48419 0.0
N1132 N 0.74626 0.88922 0.51316 0.0
N1133 N 0.76791 0.88366 0.50176 0.0
C1134 C 0.71147 0.92065 0.51068 0.0
H1135 H 0.70024 0.90701 0.52144 0.0
H1136 H 0.70031 0.92525 0.49351 0.0
H1137 H 0.71484 0.93846 0.52332 0.0
C1138 C 0.6633 0.83189 0.52526 0.0
N1139 N 0.68222 0.84419 0.53963 0.0
N1140 N 0.6978 0.85602 0.52468 0.0
C1141 C 0.6896 0.85098 0.50022 0.0
C1142 C 0.66756 0.83559 0.49983 0.0
C1143 C 0.64236 0.81594 0.53577 0.0
H1144 H 0.63079 0.82828 0.54884 0.0
H1145 H 0.62924 0.80689 0.52061 0.0
H1146 H 0.65086 0.80107 0.54692 0.0
O1147 O 0.72392 0.81562 0.56817 0.0
O1148 O 0.74998 0.84012 0.546 0.0
H1149 H 0.69871 0.84409 0.46022 0.0
H1150 H 0.70229 0.87676 0.47318 0.0
C1151 C 0.7049 0.85663 0.47739 0.0
H1152 H 0.72549 0.85374 0.48126 0.0
H1153 H 0.77909 0.86823 0.50569 0.0
O1154 O 0.66456 0.8264 0.59413 0.0
C1155 C 0.74513 0.81973 0.55705 0.0
Co1156 Co 0.37464 0.2421 0.56712 0.0
Co1157 Co 0.33803 0.2077 0.53092 0.0
C1158 C 0.35129 0.19171 0.58236 0.0
O1159 O 0.3645 0.21242 0.58615 0.0
O1160 O 0.33939 0.18638 0.56113 0.0
C1161 C 0.42113 0.242 0.59081 0.0
O1162 O 0.42017 0.21993 0.57709 0.0
C1163 C 0.32526 0.16379 0.49564 0.0
C1164 C 0.29982 0.17982 0.46725 0.0
C1165 C 0.31312 0.15816 0.47207 0.0
N1166 N 0.31987 0.18782 0.50409 0.0
N1167 N 0.30403 0.19707 0.48743 0.0
C1168 C 0.34475 0.14818 0.50812 0.0
H1169 H 0.3583 0.16071 0.52034 0.0
H1170 H 0.35554 0.13655 0.49367 0.0
H1171 H 0.33473 0.13495 0.52036 0.0
C1172 C 0.40721 0.23948 0.5215 0.0
N1173 N 0.38621 0.23241 0.53406 0.0
N1174 N 0.37142 0.21693 0.51875 0.0
C1175 C 0.38306 0.21335 0.496 0.0
C1176 C 0.40599 0.22741 0.49717 0.0
C1177 C 0.42778 0.25802 0.53221 0.0
H1178 H 0.41977 0.27221 0.54639 0.0
H1179 H 0.4429 0.24743 0.54161 0.0
H1180 H 0.4369 0.26818 0.51687 0.0
O1181 O 0.3463 0.2655 0.56398 0.0
O1182 O 0.31928 0.2401 0.53936 0.0
H1183 H 0.35192 0.20408 0.46938 0.0
H1184 H 0.38301 0.20223 0.4554 0.0
C1185 C 0.37193 0.19856 0.47262 0.0
H1186 H 0.3723 0.17784 0.47518 0.0
H1187 H 0.29769 0.21579 0.48888 0.0
O1188 O 0.40296 0.25733 0.58883 0.0
C1189 C 0.32499 0.26152 0.55184 0.0
Co1190 Co 0.33748 0.87433 0.58022 0.0
Co1191 Co 0.36859 0.84219 0.5396 0.0
C1192 C 0.38909 0.85344 0.59223 0.0
O1193 O 0.3691 0.86521 0.59882 0.0
O1194 O 0.39173 0.84405 0.56952 0.0
C1195 C 0.34077 0.92218 0.60022 0.0
O1196 O 0.36215 0.918 0.58807 0.0
C1197 C 0.41156 0.8312 0.5076 0.0
C1198 C 0.39469 0.8064 0.47526 0.0
C1199 C 0.41716 0.81913 0.48415 0.0
N1200 N 0.38681 0.82633 0.51221 0.0
N1201 N 0.37689 0.81102 0.49311 0.0
C1202 C 0.42921 0.84762 0.52527 0.0
H1203 H 0.43312 0.83731 0.54249 0.0
H1204 H 0.41982 0.8657 0.53147 0.0
H1205 H 0.44781 0.8518 0.51644 0.0
C1206 C 0.32976 0.90415 0.53575 0.0
N1207 N 0.34242 0.88626 0.54757 0.0
N1208 N 0.35769 0.87444 0.53133 0.0
C1209 C 0.35591 0.88507 0.50887 0.0
C1210 C 0.33802 0.90409 0.51093 0.0
C1211 C 0.30719 0.91792 0.54649 0.0
H1212 H 0.29756 0.9066 0.56068 0.0
H1213 H 0.3138 0.9367 0.55594 0.0
H1214 H 0.29317 0.92152 0.5311 0.0
O1215 O 0.31449 0.84419 0.5747 0.0
O1216 O 0.33696 0.82195 0.54512 0.0
H1217 H 0.3626 0.85844 0.47695 0.0
H1218 H 0.37069 0.8914 0.47162 0.0
C1219 C 0.37075 0.87687 0.48586 0.0
H1220 H 0.39066 0.87405 0.49204 0.0
H1221 H 0.35771 0.80474 0.49169 0.0
O1222 O 0.32453 0.90375 0.6014 0.0
C1223 C 0.31718 0.82479 0.55882 0.0
Co1224 Co 0.51003 0.70081 0.20717 0.0
Co1225 Co 0.5429 0.75142 0.2053 0.0
C1226 C 0.50414 0.73294 0.16443 0.0
O1227 O 0.49899 0.71245 0.17477 0.0
O1228 O 0.52029 0.74943 0.17454 0.0
C1229 C 0.48681 0.65857 0.23071 0.0
O1230 O 0.49509 0.67062 0.25234 0.0
C1231 C 0.58238 0.77276 0.17757 0.0
C1232 C 0.60482 0.79887 0.2051 0.0
C1233 C 0.60505 0.78696 0.18057 0.0
N1234 N 0.56942 0.77563 0.19924 0.0
N1235 N 0.58241 0.792 0.21546 0.0
C1236 C 0.57459 0.75386 0.1556 0.0
H1237 H 0.55728 0.76068 0.146 0.0
H1238 H 0.56967 0.73503 0.16277 0.0
H1239 H 0.58967 0.75158 0.14112 0.0
C1240 C 0.55924 0.68042 0.21993 0.0
N1241 N 0.54559 0.69874 0.21007 0.0
N1242 N 0.55862 0.72062 0.21313 0.0
C1243 C 0.58031 0.71726 0.22668 0.0
C1244 C 0.5814 0.69166 0.23143 0.0
C1245 C 0.55096 0.65276 0.21855 0.0
H1246 H 0.53958 0.64762 0.20069 0.0
H1247 H 0.56783 0.64044 0.21925 0.0
H1248 H 0.53873 0.64913 0.23491 0.0
O1249 O 0.49838 0.72493 0.23542 0.0
O1250 O 0.52137 0.76141 0.23339 0.0
H1251 H 0.58343 0.75351 0.24832 0.0
H1252 H 0.60883 0.73232 0.2551 0.0
C1253 C 0.59621 0.73882 0.2398 0.0
H1254 H 0.60824 0.74775 0.22568 0.0
H1255 H 0.57715 0.79671 0.2343 0.0
O1256 O 0.49221 0.66772 0.20974 0.0
C1257 C 0.50398 0.7481 0.24329 0.0
Co1258 Co 0.35021 0.57373 0.21107 0.0
Co1259 Co 0.37879 0.53485 0.24457 0.0
C1260 C 0.40531 0.58163 0.23086 0.0
O1261 O 0.38502 0.5878 0.21943 0.0
O1262 O 0.40633 0.56096 0.2418 0.0
C1263 C 0.3542 0.59514 0.16456 0.0
O1264 O 0.37452 0.58108 0.16566 0.0
C1265 C 0.41591 0.49623 0.25549 0.0
C1266 C 0.39374 0.47103 0.27924 0.0
C1267 C 0.41679 0.47331 0.26688 0.0
N1268 N 0.39323 0.50681 0.26053 0.0
N1269 N 0.38036 0.492 0.27533 0.0
C1270 C 0.43486 0.50632 0.23749 0.0
H1271 H 0.44872 0.51958 0.24851 0.0
H1272 H 0.42501 0.51713 0.22304 0.0
H1273 H 0.44564 0.49059 0.22777 0.0
C1274 C 0.34201 0.52629 0.17687 0.0
N1275 N 0.35164 0.53901 0.19845 0.0
N1276 N 0.36394 0.52292 0.21201 0.0
C1277 C 0.36246 0.49952 0.19928 0.0
C1278 C 0.34862 0.50102 0.17674 0.0
C1279 C 0.32627 0.53772 0.15682 0.0
H1280 H 0.31487 0.55348 0.1655 0.0
H1281 H 0.33914 0.54529 0.14249 0.0
H1282 H 0.31324 0.52294 0.14673 0.0
O1283 O 0.32921 0.5754 0.24273 0.0
O1284 O 0.35135 0.54949 0.2662 0.0
H1285 H 0.36962 0.45886 0.19502 0.0
H1286 H 0.39586 0.47899 0.20788 0.0
C1287 C 0.37479 0.47615 0.20781 0.0
H1288 H 0.36865 0.47278 0.22733 0.0
H1289 H 0.36177 0.49536 0.2814 0.0
O1290 O 0.33865 0.59536 0.18302 0.0
C1291 C 0.33298 0.56463 0.26349 0.0
Co1292 Co 0.5034 0.34449 0.21505 0.0
Co1293 Co 0.54389 0.37581 0.25025 0.0
C1294 C 0.48975 0.39351 0.24296 0.0
O1295 O 0.48387 0.37467 0.22703 0.0
O1296 O 0.51197 0.39566 0.25338 0.0
C1297 C 0.45801 0.32566 0.18973 0.0
O1298 O 0.44827 0.33231 0.21206 0.0
C1299 C 0.57472 0.42228 0.25527 0.0
C1300 C 0.60484 0.41572 0.28387 0.0
C1301 C 0.59678 0.43317 0.26711 0.0
N1302 N 0.57018 0.39927 0.26412 0.0
N1303 N 0.58802 0.39556 0.28155 0.0
C1304 C 0.55815 0.43337 0.23555 0.0
H1305 H 0.53812 0.43375 0.24195 0.0
H1306 H 0.55841 0.42108 0.21738 0.0
H1307 H 0.5644 0.4532 0.23224 0.0
C1308 C 0.54546 0.34631 0.17836 0.0
N1309 N 0.53485 0.35372 0.20084 0.0
N1310 N 0.55231 0.36591 0.21596 0.0
C1311 C 0.57483 0.3659 0.20387 0.0
C1312 C 0.57109 0.35396 0.17953 0.0
C1313 C 0.53169 0.33087 0.15685 0.0
H1314 H 0.52601 0.31187 0.16319 0.0
H1315 H 0.51399 0.34063 0.15167 0.0
H1316 H 0.54381 0.32822 0.1398 0.0
O1317 O 0.50992 0.32255 0.24355 0.0
O1318 O 0.54027 0.34385 0.26821 0.0
H1319 H 0.60055 0.36621 0.23627 0.0
H1320 H 0.61624 0.36447 0.2058 0.0
C1321 C 0.60018 0.37288 0.21675 0.0
H1322 H 0.60295 0.39387 0.21838 0.0
H1323 H 0.58923 0.37896 0.29116 0.0
O1324 O 0.48213 0.32666 0.18759 0.0
C1325 C 0.52534 0.32427 0.26287 0.0
Co1326 Co 0.70911 0.52901 0.21247 0.0
Co1327 Co 0.68823 0.56914 0.25387 0.0
C1328 C 0.66197 0.51848 0.24234 0.0
O1329 O 0.67866 0.51247 0.2259 0.0
O1330 O 0.66279 0.54024 0.25488 0.0
C1331 C 0.70041 0.50032 0.16652 0.0
O1332 O 0.67746 0.50885 0.17127 0.0
C1333 C 0.6528 0.60774 0.2693 0.0
C1334 C 0.67567 0.63492 0.29548 0.0
C1335 C 0.65226 0.63153 0.28256 0.0
N1336 N 0.67541 0.59747 0.27401 0.0
N1337 N 0.68875 0.61339 0.29038 0.0
C1338 C 0.63413 0.59713 0.24882 0.0
H1339 H 0.61613 0.59109 0.25781 0.0
H1340 H 0.642 0.58051 0.23757 0.0
H1341 H 0.62931 0.61208 0.23583 0.0
C1342 C 0.71111 0.57355 0.18252 0.0
N1343 N 0.70299 0.56199 0.20301 0.0
N1344 N 0.69525 0.57933 0.22042 0.0
C1345 C 0.69874 0.60264 0.21157 0.0
C1346 C 0.70894 0.59964 0.18744 0.0
C1347 C 0.72219 0.55994 0.15932 0.0
H1348 H 0.73854 0.5485 0.16506 0.0
H1349 H 0.70733 0.54686 0.14971 0.0
H1350 H 0.72858 0.57332 0.14526 0.0
O1351 O 0.73671 0.53161 0.23884 0.0
O1352 O 0.72053 0.55873 0.26889 0.0
H1353 H 0.70583 0.62644 0.24614 0.0
H1354 H 0.70514 0.64374 0.21791 0.0
C1355 C 0.69635 0.62747 0.22723 0.0
H1356 H 0.67579 0.63107 0.22979 0.0
H1357 H 0.70761 0.61057 0.29628 0.0
O1358 O 0.71867 0.50686 0.18227 0.0
C1359 C 0.73815 0.54416 0.26067 0.0
Co1360 Co 0.52612 0.37421 0.87911 0.0
Co1361 Co 0.56361 0.33071 0.88867 0.0
C1362 C 0.51539 0.3379 0.91809 0.0
O1363 O 0.50987 0.35775 0.90703 0.0
O1364 O 0.53521 0.32547 0.91236 0.0
C1365 C 0.50247 0.41384 0.8525 0.0
O1366 O 0.51102 0.40193 0.83159 0.0
C1367 C 0.5998 0.3123 0.92288 0.0
C1368 C 0.62534 0.28862 0.89862 0.0
C1369 C 0.62224 0.29909 0.92343 0.0
N1370 N 0.58999 0.30976 0.89905 0.0
N1371 N 0.60484 0.29495 0.88465 0.0
C1372 C 0.59054 0.33116 0.94336 0.0
H1373 H 0.57644 0.34402 0.93557 0.0
H1374 H 0.60683 0.34287 0.95241 0.0
H1375 H 0.58129 0.32061 0.95838 0.0
C1376 C 0.57394 0.40498 0.88321 0.0
N1377 N 0.56063 0.38333 0.88707 0.0
N1378 N 0.57671 0.36483 0.88959 0.0
C1379 C 0.60072 0.37395 0.88627 0.0
C1380 C 0.59964 0.39962 0.8822 0.0
C1381 C 0.56221 0.42911 0.87593 0.0
H1382 H 0.54557 0.43357 0.88807 0.0
H1383 H 0.57632 0.44543 0.87816 0.0
H1384 H 0.55569 0.42656 0.85563 0.0
O1385 O 0.52431 0.35144 0.84712 0.0
O1386 O 0.55251 0.32128 0.85365 0.0
H1387 H 0.61846 0.34137 0.86791 0.0
H1388 H 0.64016 0.36859 0.87546 0.0
C1389 C 0.62348 0.35758 0.88216 0.0
H1390 H 0.62899 0.34982 0.90042 0.0
H1391 H 0.60214 0.29093 0.86496 0.0
O1392 O 0.50683 0.40499 0.87395 0.0
C1393 C 0.53645 0.33167 0.83951 0.0
Co1394 Co 0.72344 0.5779 0.89117 0.0
Co1395 Co 0.70438 0.53547 0.84964 0.0
C1396 C 0.67418 0.58272 0.8623 0.0
O1397 O 0.68999 0.59051 0.88007 0.0
O1398 O 0.67754 0.5618 0.8491 0.0
C1399 C 0.72677 0.62418 0.91918 0.0
O1400 O 0.72108 0.63126 0.89636 0.0
C1401 C 0.66729 0.49555 0.84111 0.0
C1402 C 0.68624 0.46538 0.81751 0.0
C1403 C 0.66524 0.46987 0.83284 0.0
N1404 N 0.68898 0.5055 0.83229 0.0
N1405 N 0.69984 0.48769 0.81734 0.0
C1406 C 0.65002 0.51022 0.85899 0.0
H1407 H 0.64362 0.52743 0.85004 0.0
H1408 H 0.66071 0.51665 0.87695 0.0
H1409 H 0.63265 0.49882 0.86329 0.0
C1410 C 0.72657 0.53328 0.92278 0.0
N1411 N 0.72087 0.5441 0.90092 0.0
N1412 N 0.71526 0.52604 0.88273 0.0
C1413 C 0.71879 0.50313 0.89216 0.0
C1414 C 0.72543 0.50687 0.91787 0.0
C1415 C 0.73327 0.54801 0.94768 0.0
H1416 H 0.75166 0.55879 0.94588 0.0
H1417 H 0.71833 0.56216 0.95225 0.0
H1418 H 0.73512 0.53517 0.96339 0.0
O1419 O 0.74824 0.58026 0.86238 0.0
O1420 O 0.73376 0.54999 0.83259 0.0
H1421 H 0.72819 0.48126 0.85764 0.0
H1422 H 0.73193 0.46457 0.88614 0.0
C1423 C 0.71995 0.47819 0.87644 0.0
H1424 H 0.70055 0.46946 0.87369 0.0
H1425 H 0.71776 0.48996 0.80921 0.0
O1426 O 0.73269 0.60117 0.92142 0.0
C1427 C 0.74945 0.56828 0.84023 0.0
Co1428 Co 0.49734 0.73289 0.88079 0.0
Co1429 Co 0.54081 0.70469 0.84954 0.0
C1430 C 0.48972 0.68012 0.85388 0.0
O1431 O 0.48246 0.70032 0.86598 0.0
O1432 O 0.51264 0.67833 0.84664 0.0
C1433 C 0.46658 0.72348 0.92021 0.0
O1434 O 0.48058 0.70316 0.91685 0.0
C1435 C 0.57751 0.66444 0.8464 0.0
C1436 C 0.60568 0.67609 0.81853 0.0
C1437 C 0.60019 0.6574 0.83506 0.0
N1438 N 0.56999 0.68636 0.83732 0.0
N1439 N 0.58676 0.69311 0.82038 0.0
C1440 C 0.56283 0.65041 0.86543 0.0
H1441 H 0.55188 0.66395 0.87795 0.0
H1442 H 0.57565 0.63936 0.8772 0.0
H1443 H 0.54895 0.63674 0.85496 0.0
C1444 C 0.53851 0.73859 0.92015 0.0
N1445 N 0.52933 0.72916 0.89703 0.0
N1446 N 0.54784 0.71802 0.88412 0.0
C1447 C 0.56955 0.72037 0.89869 0.0
C1448 C 0.5642 0.73326 0.92197 0.0
C1449 C 0.52351 0.75416 0.93936 0.0
H1450 H 0.51072 0.76695 0.92953 0.0
H1451 H 0.51149 0.74114 0.95013 0.0
H1452 H 0.53639 0.76576 0.95314 0.0
O1453 O 0.5024 0.7556 0.85271 0.0
O1454 O 0.53138 0.73427 0.82906 0.0
H1455 H 0.61097 0.71935 0.90291 0.0
H1456 H 0.59512 0.68976 0.89196 0.0
C1457 C 0.59504 0.7107 0.89057 0.0
H1458 H 0.59852 0.71487 0.87057 0.0
H1459 H 0.58568 0.70963 0.81062 0.0
O1460 O 0.47118 0.74242 0.90697 0.0
C1461 C 0.51646 0.75313 0.83303 0.0
Co1462 Co 0.38423 0.555 0.85056 0.0
Co1463 Co 0.35811 0.51169 0.87958 0.0
C1464 C 0.36069 0.56429 0.90281 0.0
O1465 O 0.37075 0.57182 0.88277 0.0
O1466 O 0.35609 0.54075 0.9052 0.0
C1467 C 0.4225 0.59107 0.85485 0.0
O1468 O 0.42181 0.58249 0.87765 0.0
C1469 C 0.35379 0.47658 0.91855 0.0
C1470 C 0.33103 0.44383 0.89991 0.0
C1471 C 0.34466 0.45214 0.9221 0.0
N1472 N 0.34647 0.48228 0.89513 0.0
N1473 N 0.33248 0.46288 0.88416 0.0
C1474 C 0.36905 0.49467 0.93696 0.0
H1475 H 0.35685 0.51083 0.94322 0.0
H1476 H 0.38576 0.50272 0.92725 0.0
H1477 H 0.37548 0.48562 0.95423 0.0
C1478 C 0.42615 0.51776 0.84814 0.0
N1479 N 0.40288 0.52536 0.85578 0.0
N1480 N 0.39182 0.50716 0.86794 0.0
C1481 C 0.40773 0.48747 0.86844 0.0
C1482 C 0.42995 0.49369 0.85622 0.0
C1483 C 0.44427 0.53304 0.83323 0.0
H1484 H 0.43354 0.54258 0.81841 0.0
H1485 H 0.45415 0.54794 0.84637 0.0
H1486 H 0.45901 0.52083 0.82407 0.0
O1487 O 0.35425 0.54622 0.82788 0.0
O1488 O 0.33481 0.51789 0.85112 0.0
H1489 H 0.38197 0.45541 0.87183 0.0
H1490 H 0.4152 0.44754 0.8726 0.0
C1491 C 0.40132 0.46228 0.8787 0.0
H1492 H 0.40172 0.46467 0.89984 0.0
H1493 H 0.32482 0.46222 0.86557 0.0
O1494 O 0.40726 0.58124 0.83735 0.0
C1495 C 0.3353 0.53134 0.83197 0.0
Co1496 Co 0.68749 0.74339 0.02511 0.0
Co1497 Co 0.72422 0.71398 0.05969 0.0
C1498 C 0.7061 0.69104 0.00911 0.0
O1499 O 0.69394 0.71104 0.00578 0.0
O1500 O 0.71829 0.6888 0.02991 0.0
C1501 C 0.64022 0.74018 0.00333 0.0
O1502 O 0.64187 0.71945 0.01568 0.0
C1503 C 0.72843 0.67789 0.09689 0.0
C1504 C 0.76504 0.68808 0.11757 0.0
C1505 C 0.74315 0.67244 0.11784 0.0
N1506 N 0.7405 0.69643 0.08526 0.0
N1507 N 0.76262 0.70224 0.09734 0.0
C1508 C 0.70265 0.66661 0.08843 0.0
H1509 H 0.69994 0.66701 0.0675 0.0
H1510 H 0.68749 0.67819 0.09768 0.0
H1511 H 0.70039 0.64662 0.09374 0.0
C1512 C 0.66164 0.75298 0.07431 0.0
N1513 N 0.67851 0.74013 0.05947 0.0
N1514 N 0.69522 0.72962 0.07414 0.0
C1515 C 0.69056 0.73681 0.09877 0.0
C1516 C 0.66881 0.75126 0.09976 0.0
C1517 C 0.63985 0.76737 0.06407 0.0
H1518 H 0.64738 0.78206 0.05186 0.0
H1519 H 0.62701 0.75394 0.0521 0.0
H1520 H 0.62815 0.7765 0.07934 0.0
O1521 O 0.72 0.76416 0.025 0.0
O1522 O 0.74565 0.7415 0.04891 0.0
H1523 H 0.72932 0.73834 0.11344 0.0
H1524 H 0.70634 0.75003 0.13618 0.0
C1525 C 0.70964 0.73532 0.12032 0.0
H1526 H 0.70799 0.71627 0.12793 0.0
H1527 H 0.77543 0.71667 0.09256 0.0
O1528 O 0.65879 0.75653 0.00535 0.0
C1529 C 0.74171 0.76015 0.0354 0.0
Co1530 Co 0.73202 0.38378 0.01558 0.0
Co1531 Co 0.70697 0.35059 0.05758 0.0
C1532 C 0.68976 0.34493 0.00268 0.0
O1533 O 0.70531 0.36231 -0.00359 0.0
O1534 O 0.68839 0.33929 0.02565 0.0
C1535 C 0.72259 0.42175 0.98303 0.0
O1536 O 0.69975 0.41388 0.98969 0.0
C1537 C 0.66271 0.34356 0.08906 0.0
C1538 C 0.67694 0.32101 0.11981 0.0
C1539 C 0.65575 0.33388 0.11185 0.0
N1540 N 0.68706 0.33743 0.08422 0.0
N1541 N 0.69533 0.32351 0.10243 0.0
C1542 C 0.64669 0.35862 0.07203 0.0
H1543 H 0.64886 0.35139 0.05183 0.0
H1544 H 0.65351 0.37893 0.07385 0.0
H1545 H 0.62614 0.35739 0.07688 0.0
C1546 C 0.72156 0.42515 0.05629 0.0
N1547 N 0.71986 0.40052 0.04637 0.0
N1548 N 0.7108 0.38628 0.06388 0.0
C1549 C 0.70754 0.40108 0.08559 0.0
C1550 C 0.7134 0.42611 0.08126 0.0
C1551 C 0.73184 0.44715 0.04272 0.0
H1552 H 0.74961 0.44171 0.03276 0.0
H1553 H 0.71741 0.45219 0.02833 0.0
H1554 H 0.73589 0.46428 0.05613 0.0
O1555 O 0.75911 0.35857 0.02396 0.0
O1556 O 0.7412 0.33656 0.05441 0.0
H1557 H 0.71358 0.37299 0.11255 0.0
H1558 H 0.7112 0.4052 0.12685 0.0
C1559 C 0.70369 0.39125 0.11128 0.0
H1560 H 0.68305 0.38809 0.11419 0.0
H1561 H 0.71383 0.31662 0.10356 0.0
O1562 O 0.74204 0.41089 0.99192 0.0
C1563 C 0.75971 0.34104 0.03971 0.0
Co1564 Co 0.33802 0.68723 0.00942 0.0
Co1565 Co 0.36821 0.72755 0.04641 0.0
C1566 C 0.38619 0.71421 0.99391 0.0
O1567 O 0.36801 0.6978 0.98951 0.0
O1568 O 0.38841 0.72702 0.01528 0.0
C1569 C 0.34348 0.64031 0.9855 0.0
O1570 O 0.36409 0.64384 0.00026 0.0
C1571 C 0.4144 0.74662 0.07297 0.0
C1572 C 0.40048 0.76492 0.10905 0.0
C1573 C 0.42249 0.75687 0.09691 0.0
N1574 N 0.38874 0.74747 0.07134 0.0
N1575 N 0.38055 0.75933 0.09262 0.0
C1576 C 0.43083 0.73473 0.05247 0.0
H1577 H 0.42927 0.74569 0.03535 0.0
H1578 H 0.42406 0.71472 0.04719 0.0
H1579 H 0.45134 0.73514 0.05846 0.0
C1580 C 0.34053 0.65723 0.0555 0.0
N1581 N 0.34698 0.67782 0.04278 0.0
N1582 N 0.36016 0.69452 0.05831 0.0
C1583 C 0.36247 0.68492 0.08141 0.0
C1584 C 0.3503 0.66094 0.08035 0.0
C1585 C 0.32307 0.6356 0.04503 0.0
H1586 H 0.30912 0.64238 0.03105 0.0
H1587 H 0.33457 0.62052 0.0352 0.0
H1588 H 0.31264 0.627 0.06061 0.0
O1589 O 0.31351 0.71602 0.0124 0.0
O1590 O 0.33625 0.74434 0.03865 0.0
H1591 H 0.3625 0.7139 0.11227 0.0
H1592 H 0.37919 0.68563 0.11957 0.0
C1593 C 0.37515 0.69871 0.1045 0.0
H1594 H 0.39332 0.70775 0.09914 0.0
H1595 H 0.36125 0.76168 0.09674 0.0
O1596 O 0.3261 0.65683 0.98717 0.0
C1597 C 0.3163 0.7379 0.02494 0.0
Co1598 Co 0.35769 0.3699 0.07627 0.0
Co1599 Co 0.38811 0.33065 0.04157 0.0
C1600 C 0.39997 0.34037 0.09737 0.0
O1601 O 0.38267 0.35675 0.09976 0.0
O1602 O 0.4045 0.32912 0.07573 0.0
C1603 C 0.36019 0.41624 0.10291 0.0
O1604 O 0.38389 0.41273 0.09581 0.0
C1605 C 0.43343 0.32119 0.01311 0.0
C1606 C 0.42203 0.28947 0.98466 0.0
C1607 C 0.44174 0.30718 0.99156 0.0
N1608 N 0.40976 0.31277 0.01822 0.0
N1609 N 0.40323 0.2933 0.00162 0.0
C1610 C 0.44698 0.34341 0.02788 0.0
H1611 H 0.44344 0.34276 0.04856 0.0
H1612 H 0.43927 0.36153 0.0219 0.0
H1613 H 0.46791 0.34332 0.02463 0.0
C1614 C 0.36524 0.40057 0.03253 0.0
N1615 N 0.3718 0.38081 0.04598 0.0
N1616 N 0.38366 0.36396 0.03094 0.0
C1617 C 0.38426 0.37211 0.00722 0.0
C1618 C 0.37307 0.39568 0.00768 0.0
C1619 C 0.3485 0.42179 0.04212 0.0
H1620 H 0.33157 0.41382 0.05153 0.0
H1621 H 0.35951 0.43479 0.05626 0.0
H1622 H 0.342 0.4334 0.02661 0.0
O1623 O 0.33201 0.34242 0.06656 0.0
O1624 O 0.35379 0.31459 0.04146 0.0
H1625 H 0.38041 0.33586 0.98528 0.0
H1626 H 0.38095 0.36294 0.96619 0.0
C1627 C 0.38905 0.35519 0.98357 0.0
H1628 H 0.4099 0.35355 0.98117 0.0
H1629 H 0.38536 0.28375 0.00085 0.0
O1630 O 0.34314 0.3991 0.09627 0.0
C1631 C 0.33323 0.3217 0.05222 0.0
C1632 C 0.04031 0.27882 0.33068 0.0
C1633 C 0.01896 0.29458 0.33156 0.0
C1634 C 0.0408 0.25731 0.31343 0.0
C1635 C 0.01973 0.25058 0.29714 0.0
H1636 H 0.05749 0.28404 0.34207 0.0
H1637 H 0.05829 0.24675 0.31176 0.0
S1638 S 0.95785 0.28289 0.2947 0.0
N1639 N 0.97517 0.3003 0.31673 0.0
N1640 N 0.97608 0.25919 0.28444 0.0
C1641 C -0.00256 0.26467 0.29933 0.0
C1642 C -0.00294 0.28694 0.31656 0.0
C1643 C 0.79843 0.01781 0.27585 0.0
C1644 C 0.80796 0.04132 0.26819 0.0
C1645 C 0.77906 0.0169 0.29383 0.0
C1646 C 0.76916 0.03948 0.30532 0.0
H1647 H 0.80575 -3e-05 0.26761 0.0
H1648 H 0.77215 -0.00158 0.29916 0.0
S1649 S 0.78772 0.10581 0.29196 0.0
N1650 N 0.80583 0.08762 0.27309 0.0
N1651 N 0.7701 0.08597 0.30776 0.0
C1652 C 0.77864 0.0631 0.29798 0.0
C1653 C 0.79786 0.06401 0.27914 0.0
C1654 C 0.02339 0.75023 0.28253 0.0
C1655 C 0.02062 0.75995 0.30811 0.0
C1656 C 0.02323 0.76643 0.2624 0.0
C1657 C 0.02109 0.79302 0.26719 0.0
H1658 H 0.0256 0.72992 0.27802 0.0
H1659 H 0.02558 0.75817 0.24305 0.0
S1660 S 0.01319 0.82808 0.33059 0.0
N1661 N 0.01501 0.79784 0.33691 0.0
N1662 N 0.01572 0.8283 0.2993 0.0
C1663 C 0.01824 0.80295 0.29263 0.0
C1664 C 0.01771 0.78642 0.31301 0.0
C1665 C 0.28946 0.01798 0.31248 0.0
C1666 C 0.31511 0.02476 0.30787 0.0
C1667 C 0.27168 0.01313 0.29247 0.0
C1668 C 0.2789 0.01445 0.26706 0.0
H1669 H 0.28276 0.01706 0.33178 0.0
H1670 H 0.25194 0.0088 0.29698 0.0
S1671 S 0.34375 0.02984 0.24436 0.0
N1672 N 0.34711 0.03155 0.27582 0.0
N1673 N 0.31329 0.022 0.23789 0.0
C1674 C 0.30456 0.02026 0.26189 0.0
C1675 C 0.32277 0.02563 0.28242 0.0
C1676 C 0.98219 0.80213 0.77297 0.0
C1677 C 0.98955 0.79928 0.79837 0.0
C1678 C 0.98149 0.78097 0.75512 0.0
C1679 C 0.98803 0.7568 0.76252 0.0
H1680 H 0.98017 0.82098 0.76624 0.0
H1681 H 0.97946 0.78415 0.73503 0.0
S1682 S -0.00034 0.73857 0.82816 0.0
N1683 N -0.00341 0.76991 0.83129 0.0
N1684 N -0.00465 0.73003 0.79737 0.0
C1685 C 0.99053 0.75308 0.78847 0.0
C1686 C 0.99148 0.77457 0.80663 0.0
C1687 C 0.3001 0.0447 0.77522 0.0
C1688 C 0.30841 0.06848 0.76726 0.0
C1689 C 0.28125 0.0431 0.79365 0.0
C1690 C 0.27074 0.06528 0.80535 0.0
H1691 H 0.3079 0.02716 0.76679 0.0
H1692 H 0.27502 0.0244 0.79895 0.0
S1693 S 0.2865 0.13213 0.79171 0.0
N1694 N 0.30477 0.11464 0.77237 0.0
N1695 N 0.27005 0.11171 0.80793 0.0
C1696 C 0.27921 0.0892 0.79793 0.0
C1697 C 0.29786 0.09078 0.77859 0.0
C1698 C 0.00982 0.32078 0.81832 0.0
C1699 C 0.01016 0.3147 0.79176 0.0
C1700 C 0.01077 0.30161 0.83541 0.0
C1701 C 0.01287 0.27578 0.82652 0.0
H1702 H 0.00882 0.34052 0.82595 0.0
H1703 H 0.01062 0.30712 0.85573 0.0
S1704 S 0.01431 0.24985 0.75878 0.0
N1705 N 0.01211 0.28105 0.75734 0.0
N1706 N 0.01475 0.24504 0.78949 0.0
C1707 C 0.01311 0.26944 0.80001 0.0
C1708 C 0.0115 0.2889 0.78261 0.0
C1709 C 0.81024 0.04759 0.789 0.0
C1710 C 0.80316 0.0501 0.81474 0.0
C1711 C 0.79164 0.04352 0.76939 0.0
C1712 C 0.7655 0.04257 0.77503 0.0
H1713 H 0.83028 0.04798 0.78406 0.0
H1714 H 0.79771 0.04126 0.74976 0.0
S1715 S 0.73725 0.04894 0.83937 0.0
N1716 N 0.76849 0.05166 0.84487 0.0
N1717 N 0.73341 0.04483 0.80801 0.0
C1718 C 0.75821 0.04567 0.80067 0.0
C1719 C 0.77712 0.04921 0.82057 0.0
C1720 C 0.27546 0.28223 0.06809 0.0
C1721 C 0.26925 0.26868 0.04458 0.0
C1722 C 0.29564 0.30037 0.07015 0.0
C1723 C 0.31051 0.30479 0.04889 0.0
H1724 H 0.26492 0.27844 0.08502 0.0
H1725 H 0.30031 0.31017 0.08869 0.0
S1726 S 0.30093 0.27477 0.98295 0.0
N1727 N 0.27827 0.26148 -0.00051 0.0
N1728 N 0.31703 0.29512 0.00345 0.0
C1729 C 0.30407 0.2917 0.02515 0.0
C1730 C 0.28314 0.27369 0.02296 0.0
C1731 C 0.25417 0.77309 0.03015 0.0
C1732 C 0.26187 0.79805 0.02463 0.0
C1733 C 0.27149 0.75306 0.0289 0.0
C1734 C 0.29708 0.75749 0.02246 0.0
H1735 H 0.23477 0.76906 0.03588 0.0
H1736 H 0.26512 0.73434 0.03403 0.0
S1737 S 0.32671 0.8183 0.00437 0.0
N1738 N 0.29681 0.82525 0.01077 0.0
N1739 N 0.32909 0.78771 0.00899 0.0
C1740 C 0.30483 0.78193 0.01607 0.0
C1741 C 0.28728 0.80219 0.01698 0.0
C1742 C 0.80732 0.29456 0.06226 0.0
C1743 C 0.81282 0.27987 0.03956 0.0
C1744 C 0.79113 0.31536 0.06202 0.0
C1745 C 0.78061 0.32278 0.03899 0.0
H1746 H 0.81483 0.28936 0.08047 0.0
H1747 H 0.78626 0.32533 0.08005 0.0
S1748 S 0.79052 0.29183 0.97418 0.0
N1749 N 0.80733 0.27483 0.99333 0.0
N1750 N 0.77751 0.3145 0.99284 0.0
C1751 C 0.78687 0.30901 0.01605 0.0
C1752 C 0.8028 0.28737 0.01635 0.0
C1753 C 0.77733 0.77797 0.01144 0.0
C1754 C 0.76303 0.77821 0.03374 0.0
C1755 C 0.80125 0.79078 0.01165 0.0
C1756 C 0.8112 0.80415 0.03415 0.0
H1757 H 0.77052 0.76695 0.99417 0.0
H1758 H 0.81201 0.79015 0.99421 0.0
S1759 S 0.78044 0.81003 0.09738 0.0
N1760 N 0.7599 0.7925 0.07857 0.0
N1761 N 0.8047 0.81685 0.07918 0.0
C1762 C 0.79661 0.80483 0.05639 0.0
C1763 C 0.77249 0.79175 0.05612 0.0
C1764 C 0.76175 0.57835 0.79667 0.0
C1765 C 0.769 0.57591 0.82228 0.0
C1766 C 0.78013 0.58157 0.77807 0.0
C1767 C 0.80641 0.58173 0.78438 0.0
H1768 H 0.74171 0.57678 0.79078 0.0
H1769 H 0.77373 0.58188 0.75834 0.0
S1770 S 0.83517 0.57868 0.84924 0.0
N1771 N 0.80396 0.57643 0.85353 0.0
N1772 N 0.83874 0.5815 0.81838 0.0
C1773 C 0.81385 0.58088 0.81022 0.0
C1774 C 0.79507 0.57821 0.82925 0.0
C1775 C 0.26513 0.53428 0.8156 0.0
C1776 C 0.26498 0.53719 0.78932 0.0
C1777 C 0.28809 0.53154 0.82896 0.0
C1778 C 0.31168 0.5323 0.81657 0.0
H1779 H 0.24735 0.53386 0.82586 0.0
H1780 H 0.28739 0.52949 0.84931 0.0
S1781 S 0.3214 0.53999 0.7479 0.0
N1782 N 0.29002 0.54051 0.75114 0.0
N1783 N 0.33359 0.53632 0.77663 0.0
C1784 C 0.31182 0.53539 0.79029 0.0
C1785 C 0.28831 0.53755 0.77653 0.0
C1786 C 0.28792 0.56609 0.27823 0.0
C1787 C 0.31429 0.56729 0.28422 0.0
C1788 C 0.26983 0.56374 0.29733 0.0
C1789 C 0.27741 0.56317 0.32318 0.0
H1790 H 0.28125 0.56557 0.25851 0.0
H1791 H 0.24972 0.56195 0.29176 0.0
S1792 S 0.34409 0.5681 0.34907 0.0
N1793 N 0.3471 0.56915 0.31792 0.0
N1794 N 0.31299 0.56566 0.35392 0.0
C1795 C 0.30364 0.5658 0.32959 0.0
C1796 C 0.3221 0.56759 0.31007 0.0
C1797 C 0.77837 0.53964 0.32015 0.0
C1798 C 0.80346 0.54065 0.31107 0.0
C1799 C 0.75732 0.54057 0.30354 0.0
C1800 C 0.76067 0.54187 0.27723 0.0
H1801 H 0.77497 0.5388 0.34036 0.0
H1802 H 0.73828 0.54027 0.31133 0.0
S1803 S 0.82232 0.54395 0.24374 0.0
N1804 N 0.83058 0.54262 0.27414 0.0
N1805 N 0.79068 0.5436 0.24261 0.0
C1806 C 0.78557 0.54221 0.26774 0.0
C1807 C 0.8071 0.54186 0.28477 0.0
C1808 C 0.26447 0.77847 0.57399 0.0
C1809 C 0.25715 0.7671 0.54971 0.0
C1810 C 0.28361 0.79766 0.57677 0.0
C1811 C 0.29643 0.80543 0.55538 0.0
H1812 H 0.25545 0.77229 0.59097 0.0
H1813 H 0.28893 0.80592 0.59579 0.0
S1814 S 0.28353 0.782 0.48765 0.0
N1815 N 0.2631 0.76538 0.50394 0.0
N1816 N 0.2999 0.80114 0.50906 0.0
C1817 C 0.289 0.79442 0.53093 0.0
C1818 C 0.26906 0.77529 0.5281 0.0
C1819 C 0.28014 0.27634 0.55157 0.0
C1820 C 0.30652 0.28233 0.55195 0.0
C1821 C 0.26218 0.29561 0.55187 0.0
C1822 C 0.26987 0.32159 0.5519 0.0
H1823 H 0.27329 0.25663 0.55143 0.0
H1824 H 0.24203 0.29004 0.55176 0.0
S1825 S 0.33671 0.34731 0.55193 0.0
N1826 N 0.33958 0.31605 0.55203 0.0
N1827 N 0.30562 0.35227 0.55182 0.0
C1828 C 0.29617 0.32785 0.55179 0.0
C1829 C 0.31455 0.30822 0.55207 0.0
C1830 C 0.78954 0.80508 0.56206 0.0
C1831 C 0.76401 0.79955 0.55427 0.0
C1832 C 0.80871 0.7876 0.55626 0.0
C1833 C 0.80319 0.76414 0.54186 0.0
H1834 H 0.79479 0.82324 0.57242 0.0
H1835 H 0.82811 0.7928 0.56282 0.0
S1836 S 0.73897 0.74151 0.51595 0.0
N1837 N 0.73392 0.76961 0.53116 0.0
N1838 N 0.76988 0.73671 0.51969 0.0
C1839 C 0.77754 0.75851 0.53388 0.0
C1840 C 0.75797 0.77621 0.54024 0.0
C1841 C 0.78769 0.30913 0.54969 0.0
C1842 C 0.81386 0.30437 0.55276 0.0
C1843 C 0.77002 0.28918 0.5426 0.0
C1844 C 0.77794 0.26383 0.53891 0.0
H1845 H 0.78091 0.32847 0.55211 0.0
H1846 H 0.75001 0.29358 0.54033 0.0
S1847 S 0.84421 0.24132 0.54533 0.0
N1848 N 0.84686 0.2726 0.55189 0.0
N1849 N 0.81347 0.2349 0.53912 0.0
C1850 C 0.80397 0.25876 0.54236 0.0
C1851 C 0.82201 0.27911 0.54914 0.0
C1852 C 0.50616 0.29641 0.78114 0.0
C1853 C 0.52748 0.292 0.76562 0.0
C1854 C 0.50875 0.31092 0.8046 0.0
C1855 C 0.53282 0.32091 0.81326 0.0
H1856 H 0.48758 0.28771 0.77562 0.0
H1857 H 0.49225 0.31302 0.81667 0.0
S1858 S 0.59387 0.31761 0.77884 0.0
N1859 N 0.5729 0.30114 0.75958 0.0
N1860 N 0.5777 0.32791 0.8041 0.0
C1861 C 0.55391 0.31808 0.79738 0.0
C1862 C 0.55124 0.30376 0.77334 0.0
C1863 C 0.51472 0.78463 0.77026 0.0
C1864 C 0.51468 0.81086 0.77831 0.0
C1865 C 0.51562 0.76601 0.78807 0.0
C1866 C 0.51569 0.77296 0.8145 0.0
H1867 H 0.51479 0.77848 0.75007 0.0
H1868 H 0.51601 0.74603 0.7811 0.0
S1869 S 0.515 0.83903 0.84536 0.0
N1870 N 0.51469 0.84281 0.81443 0.0
N1871 N 0.51532 0.80785 0.84782 0.0
C1872 C 0.51509 0.79909 0.82275 0.0
C1873 C 0.51487 0.81803 0.80468 0.0
C1874 C 0.48416 0.79914 0.29073 0.0
C1875 C 0.49184 0.78898 0.31356 0.0
C1876 C 0.48506 0.78443 0.2675 0.0
C1877 C 0.49295 0.7591 0.26668 0.0
H1878 H 0.48016 0.81925 0.29036 0.0
H1879 H 0.48189 0.79359 0.24996 0.0
S1880 S 0.50831 0.72181 0.32161 0.0
N1881 N 0.5027 0.75081 0.33447 0.0
N1882 N 0.50385 0.72295 0.2905 0.0
C1883 C 0.49699 0.74765 0.28956 0.0
C1884 C 0.49657 0.76273 0.31321 0.0
C1885 C 0.5033 0.27033 0.30182 0.0
C1886 C 0.52647 0.25974 0.30913 0.0
C1887 C 0.50311 0.29111 0.28659 0.0
C1888 C 0.52611 0.30258 0.27903 0.0
H1889 H 0.48522 0.26244 0.30787 0.0
H1890 H 0.48485 0.29858 0.28111 0.0
S1891 S 0.59181 0.28218 0.29346 0.0
N1892 N 0.57293 0.26196 0.30748 0.0
N1893 N 0.5726 0.30176 0.27974 0.0
C1894 C 0.54939 0.29228 0.28636 0.0
C1895 C 0.54956 0.27063 0.30118 0.0
C1896 C 0.12322 0.11347 0.26994 0.0
C1897 C 0.13958 0.10573 0.2501 0.0
C1898 C 0.10282 0.12943 0.26557 0.0
C1899 C 0.09839 0.13808 0.24128 0.0
H1900 H 0.12614 0.10702 0.28885 0.0
H1901 H 0.09073 0.13539 0.28132 0.0
S1902 S 0.13703 0.12526 0.18369 0.0
N1903 N 0.151 0.10944 0.20581 0.0
N1904 N 0.11237 0.13898 0.19761 0.0
C1905 C 0.11485 0.1309 0.22149 0.0
C1906 C 0.13556 0.1148 0.22589 0.0
C1907 C 0.93449 0.09298 0.24612 0.0
C1908 C 0.92349 0.08342 0.22258 0.0
C1909 C 0.95376 0.11225 0.2472 0.0
C1910 C 0.96275 0.12208 0.22472 0.0
H1911 H 0.9274 0.08636 0.26376 0.0
H1912 H 0.96131 0.11979 0.26574 0.0
S1913 S 0.94131 0.10105 0.15825 0.0
N1914 N 0.92371 0.08356 0.17641 0.0
N1915 N 0.96016 0.11936 0.17816 0.0
C1916 C 0.95265 0.11156 0.20101 0.0
C1917 C 0.93289 0.09231 0.20002 0.0
C1918 C 0.9649 0.94214 0.2393 0.0
C1919 C 0.93873 0.93571 0.23516 0.0
C1920 C 0.98382 0.92408 0.23372 0.0
C1921 C 0.97731 0.89901 0.22335 0.0
H1922 H 0.97076 0.96109 0.24743 0.0
H1923 H 0.00369 0.92981 0.23771 0.0
S1924 S 0.91124 0.87349 0.20716 0.0
N1925 N 0.90724 0.90312 0.21908 0.0
N1926 N 0.94244 0.86937 0.20814 0.0
C1927 C 0.95111 0.89271 0.21843 0.0
C1928 C 0.93194 0.91098 0.22448 0.0
C1929 C 0.14438 0.96686 0.24204 0.0
C1930 C 0.16713 0.95899 0.23015 0.0
C1931 C 0.12615 0.94902 0.24964 0.0
C1932 C 0.13017 0.9227 0.24601 0.0
H1933 H 0.14054 0.987 0.24548 0.0
H1934 H 0.10881 0.95585 0.25846 0.0
S1935 S 0.18567 0.89174 0.2151 0.0
N1936 N 0.19203 0.9227 0.21453 0.0
N1937 N 0.15784 0.88934 0.22917 0.0
C1938 C 0.15261 0.91445 0.23412 0.0
C1939 C 0.17104 0.93255 0.22604 0.0
C1940 C 0.09673 0.93117 0.79503 0.0
C1941 C 0.09029 0.92346 0.81914 0.0
C1942 C 0.11719 0.94874 0.79249 0.0
C1943 C 0.13153 0.95916 0.81403 0.0
H1944 H 0.0862 0.92327 0.77808 0.0
H1945 H 0.12175 0.95428 0.77363 0.0
S1946 S 0.12245 0.94399 0.88118 0.0
N1947 N 0.09963 0.92712 0.86474 0.0
N1948 N 0.1385 0.95926 0.86002 0.0
C1949 C 0.12529 0.95123 0.83815 0.0
C1950 C 0.1045 0.9336 0.8407 0.0
C1951 C 0.14643 0.15335 0.84479 0.0
C1952 C 0.12202 0.14692 0.8341 0.0
C1953 C 0.16416 0.13449 0.84875 0.0
C1954 C 0.15839 0.10839 0.8418 0.0
H1955 H 0.15167 0.17311 0.8507 0.0
H1956 H 0.18261 0.14055 0.85733 0.0
S1957 S 0.09722 0.0819 0.81175 0.0
N1958 N 0.09298 0.11301 0.81588 0.0
N1959 N 0.12644 0.07739 0.82281 0.0
C1960 C 0.13412 0.1018 0.83051 0.0
C1961 C 0.1159 0.12109 0.82682 0.0
C1962 C 0.98158 0.13606 0.86286 0.0
C1963 C 0.97434 0.16099 0.85876 0.0
C1964 C 0.96329 0.1159 0.86162 0.0
C1965 C 0.93748 0.11998 0.85547 0.0
H1966 H 0.00115 0.13242 0.86842 0.0
H1967 H 0.96924 0.09715 0.8662 0.0
S1968 S 0.90958 0.18131 0.84058 0.0
N1969 N 0.94019 0.18847 0.84685 0.0
N1970 N 0.90596 0.15031 0.84357 0.0
C1971 C 0.93038 0.14449 0.84975 0.0
C1972 C 0.94882 0.16511 0.85168 0.0
C1973 C 0.95072 0.98588 0.86145 0.0
C1974 C 0.92805 0.98542 0.84675 0.0
C1975 C 0.96731 0.96551 0.85896 0.0
C1976 C 0.96168 0.94406 0.84166 0.0
H1977 H 0.955 0.00148 0.87585 0.0
H1978 H 0.98418 0.96623 0.87138 0.0
S1979 S 0.90571 0.93571 0.79667 0.0
N1980 N 0.90159 0.96354 0.81283 0.0
N1981 N 0.93278 0.92494 0.80787 0.0
C1982 C 0.93976 0.94429 0.82563 0.0
C1983 C 0.92288 0.9651 0.82826 0.0
C1984 C 0.21892 0.09708 0.14378 0.0
C1985 C 0.2375 0.07989 0.15042 0.0
C1986 C 0.22529 0.1177 0.12965 0.0
C1987 C 0.25044 0.1217 0.12139 0.0
H1988 H 0.19935 0.09476 0.14989 0.0
H1989 H 0.21045 0.13086 0.12566 0.0
S1990 S 0.3065 0.08314 0.13553 0.0
N1991 N 0.28237 0.06897 0.14928 0.0
N1992 N 0.29428 0.10751 0.12189 0.0
C1993 C 0.26933 0.1049 0.1283 0.0
C1994 C 0.26284 0.08392 0.14288 0.0
C1995 C 0.96005 0.26155 0.15814 0.0
C1996 C 0.94447 0.24341 0.14347 0.0
C1997 C 0.9789 0.25379 0.17509 0.0
C1998 C 0.98211 0.2277 0.17832 0.0
H1999 H 0.95755 0.28179 0.15659 0.0
H2000 H 0.99035 0.26828 0.18639 0.0
S2001 S 0.94638 0.17274 0.14424 0.0
N2002 N 0.93395 0.19822 0.133 0.0
N2003 N 0.96881 0.18382 0.16516 0.0
C2004 C 0.96682 0.20945 0.16363 0.0
C2005 C 0.94807 0.21727 0.14613 0.0
C2006 C 0.87681 0.95308 0.10317 0.0
C2007 C 0.86071 0.93103 0.10117 0.0
C2008 C 0.87105 0.97418 0.11961 0.0
C2009 C 0.84911 0.97375 0.13444 0.0
H2010 H 0.89451 0.9537 0.09282 0.0
H2011 H 0.88481 0.99012 0.12221 0.0
S2012 S 0.79935 0.92219 0.13429 0.0
N2013 N 0.82053 0.91115 0.11361 0.0
N2014 N 0.81018 0.95106 0.14496 0.0
C2015 C 0.8319 0.95279 0.13134 0.0
C2016 C 0.83762 0.93128 0.11453 0.0
C2017 C 0.11745 0.85961 0.10807 0.0
C2018 C 0.1331 0.83929 0.09975 0.0
C2019 C 0.09958 0.85707 0.12726 0.0
C2020 C 0.0964 0.83408 0.13889 0.0
H2021 H 0.11929 0.87797 0.10008 0.0
H2022 H 0.08842 0.87344 0.1334 0.0
S2023 S 0.13175 0.77476 0.12418 0.0
N2024 N 0.14358 0.79498 0.10454 0.0
N2025 N 0.10984 0.7904 0.14081 0.0
C2026 C 0.11128 0.81333 0.13052 0.0
C2027 C 0.12964 0.81588 0.11088 0.0
C2028 C 0.2611 0.96524 0.9438 0.0
C2029 C 0.24176 0.94922 0.95282 0.0
C2030 C 0.25516 0.98515 0.92845 0.0
C2031 C 0.22965 0.98969 0.92149 0.0
H2032 H 0.28102 0.96231 0.94858 0.0
H2033 H 0.27065 -0.00326 0.92155 0.0
S2034 S 0.17202 0.95246 0.93844 0.0
N2035 N 0.19606 0.93839 0.95194 0.0
N2036 N 0.18502 0.97642 0.92416 0.0
C2037 C 0.21019 0.97376 0.93013 0.0
C2038 C 0.21619 0.95339 0.94555 0.0
C2039 C 0.10511 0.22081 0.99054 0.0
C2040 C 0.12862 0.23431 0.98874 0.0
C2041 C 0.0857 0.22186 0.97194 0.0
C2042 C 0.08935 0.23618 0.95083 0.0
H2043 H 0.10202 0.20855 0.00593 0.0
H2044 H 0.0683 0.21032 0.97334 0.0
S2045 S 0.14597 0.27705 0.93837 0.0
N2046 N 0.15343 0.26427 0.96521 0.0
N2047 N 0.11683 0.26588 0.93002 0.0
C2048 C 0.11199 0.25099 0.9495 0.0
C2049 C 0.13169 0.25018 0.96858 0.0
C2050 C 0.87025 0.12011 0.93484 0.0
C2051 C 0.84939 0.10289 0.9293 0.0
C2052 C 0.86936 0.13937 0.95469 0.0
C2053 C 0.84734 0.1426 0.96934 0.0
H2054 H 0.88762 0.11848 0.92397 0.0
H2055 H 0.88608 0.15193 0.95854 0.0
S2056 S 0.78732 0.10304 0.96232 0.0
N2057 N 0.80598 0.09027 0.94001 0.0
N2058 N 0.80408 0.1273 0.97706 0.0
C2059 C 0.82613 0.12588 0.96385 0.0
C2060 C 0.82724 0.10574 0.94392 0.0
C2061 C 0.95441 0.84394 0.90137 0.0
C2062 C 0.98119 0.84477 0.90526 0.0
C2063 C 0.93842 0.83037 0.91685 0.0
C2064 C 0.94858 0.81752 0.937 0.0
H2065 H 0.94569 0.85298 0.88565 0.0
H2066 H 0.9179 0.83032 0.91329 0.0
S2067 S 0.01693 0.81447 0.95617 0.0
N2068 N 0.01697 0.83193 0.93135 0.0
N2069 N 0.98657 0.80676 0.9607 0.0
C2070 C 0.9751 0.81857 0.94157 0.0
C2071 C 0.99149 0.83219 0.92569 0.0
C2072 C 0.13401 0.21808 0.15851 0.0
C2073 C 0.1298 0.24372 0.16695 0.0
C2074 C 0.149 0.21195 0.13736 0.0
C2075 C 0.16047 0.23124 0.12413 0.0
H2076 H 0.12518 0.20255 0.16789 0.0
H2077 H 0.1511 0.192 0.13091 0.0
S2078 S 0.15923 0.30108 0.14121 0.0
N2079 N 0.14067 0.28842 0.16231 0.0
N2080 N 0.16972 0.2768 0.12275 0.0
C2081 C 0.15807 0.25689 0.13343 0.0
C2082 C 0.14259 0.26316 0.15493 0.0
C2083 C 0.12562 0.80958 0.93092 0.0
C2084 C 0.12294 0.82605 0.91133 0.0
C2085 C 0.14014 0.81732 0.95316 0.0
C2086 C 0.1515 0.8421 0.95677 0.0
H2087 H 0.11581 0.79101 0.9294 0.0
H2088 H 0.14225 0.80388 0.9676 0.0
S2089 S 0.15245 0.89081 0.90929 0.0
N2090 N 0.13603 0.86623 0.89497 0.0
N2091 N 0.16001 0.88237 0.93803 0.0
C2092 C 0.14951 0.85827 0.93678 0.0
C2093 C 0.13611 0.84979 0.9137 0.0
C2094 C 0.19807 0.15654 0.96805 0.0
C2095 C 0.21969 0.16072 0.98438 0.0
C2096 C 0.1984 0.1391 0.94659 0.0
C2097 C 0.22052 0.12559 0.94033 0.0
H2098 H 0.1806 0.16661 0.97202 0.0
H2099 H 0.18119 0.13635 0.93467 0.0
S2100 S 0.28232 0.12981 0.97656 0.0
N2101 N 0.26391 0.14996 0.9929 0.0
N2102 N 0.26462 0.11744 0.95193 0.0
C2103 C 0.24241 0.12973 0.95623 0.0
C2104 C 0.24194 0.14719 0.97848 0.0
C2105 C 0.93235 0.23953 0.9539 0.0
C2106 C 0.9569 0.23034 0.9584 0.0
C2107 C 0.91335 0.23844 0.97234 0.0
C2108 C 0.9185 0.22883 -0.00387 0.0
H2109 H 0.92743 0.2465 0.93561 0.0
H2110 H 0.89438 0.24487 0.96783 0.0
S2111 S 0.98011 0.20378 0.01781 0.0
N2112 N 0.98558 0.21208 0.98868 0.0
N2113 N 0.95002 0.21071 0.02346 0.0
C2114 C 0.94322 0.22056 0.00124 0.0
C2115 C 0.9624 0.22114 0.98231 0.0
C2116 C 0.87627 0.93077 0.95967 0.0
C2117 C 0.86024 0.91268 0.97009 0.0
C2118 C 0.86612 0.94882 0.94436 0.0
C2119 C 0.83953 0.94954 0.9392 0.0
H2120 H 0.8967 0.93128 0.96381 0.0
H2121 H 0.87935 0.9622 0.93657 0.0
S2122 S 0.78988 0.9048 0.96106 0.0
N2123 N 0.81697 0.89533 0.97349 0.0
N2124 N 0.7977 0.92943 0.94473 0.0
C2125 C 0.82348 0.93081 0.94886 0.0
C2126 C 0.83387 0.91239 0.96439 0.0
C2127 C 0.94174 0.81852 0.13006 0.0
C2128 C 0.96777 0.82394 0.12604 0.0
C2129 C 0.92333 0.82058 0.11053 0.0
C2130 C 0.93051 0.82725 0.08619 0.0
H2131 H 0.93537 0.81438 0.14884 0.0
H2132 H 0.90327 0.81772 0.1147 0.0
S2133 S -0.00362 0.84104 0.06533 0.0
N2134 N -8e-05 0.83509 0.09561 0.0
N2135 N 0.96537 0.8376 0.05862 0.0
C2136 C 0.95658 0.83104 0.08146 0.0
C2137 C 0.97523 0.82974 0.1015 0.0
C2138 C 0.22829 0.89178 0.12107 0.0
C2139 C 0.23488 0.90123 0.09761 0.0
C2140 C 0.23439 0.90562 0.14434 0.0
C2141 C 0.24716 0.92963 0.14521 0.0
H2142 H 0.2179 0.87364 0.12157 0.0
H2143 H 0.22796 0.89785 0.1617 0.0
S2144 S 0.2711 0.96194 0.08956 0.0
N2145 N 0.25668 0.93535 0.07685 0.0
N2146 N 0.26822 0.96138 0.12076 0.0
C2147 C 0.25499 0.93883 0.12203 0.0
C2148 C 0.24882 0.92466 0.09822 0.0
C2149 C 0.83137 0.12809 0.1435 0.0
C2150 C 0.84493 0.1057 0.13744 0.0
C2151 C 0.83042 0.14761 0.12659 0.0
C2152 C 0.84268 0.14523 0.10293 0.0
H2153 H 0.82251 0.13112 0.16191 0.0
H2154 H 0.82078 0.16505 0.13239 0.0
S2155 S 0.87836 0.08946 0.0768 0.0
N2156 N 0.86912 0.08159 0.10509 0.0
N2157 N 0.86725 0.11819 0.07362 0.0
C2158 C 0.85503 0.12242 0.09608 0.0
C2159 C 0.8562 0.1027 0.11326 0.0
C2160 C 0.1458 0.66273 0.77762 0.0
C2161 C 0.13794 0.647 0.79662 0.0
C2162 C 0.1278 0.67482 0.76302 0.0
C2163 C 0.10149 0.67255 0.76778 0.0
H2164 H 0.16576 0.66404 0.7726 0.0
H2165 H 0.13446 0.68496 0.74711 0.0
S2166 S 0.07217 0.63903 0.82011 0.0
N2167 N 0.10287 0.6325 0.82188 0.0
N2168 N 0.06918 0.65784 0.79651 0.0
C2169 C 0.09381 0.65942 0.78885 0.0
C2170 C 0.11204 0.6461 0.80288 0.0
C2171 C 0.94748 0.61914 0.69134 0.0
C2172 C 0.96692 0.62278 0.71026 0.0
C2173 C 0.92469 0.60586 0.69596 0.0
C2174 C 0.92083 0.59531 0.71942 0.0
H2175 H 0.94926 0.62777 0.67336 0.0
H2176 H 0.90985 0.60416 0.68113 0.0
S2177 S 0.96714 0.59731 0.77409 0.0
N2178 N 0.98176 0.61356 0.75263 0.0
N2179 N 0.93909 0.58768 0.76104 0.0
C2180 C 0.94075 0.59753 0.73794 0.0
C2181 C 0.96377 0.61155 0.73343 0.0
C2182 C 0.9684 0.45094 0.76921 0.0
C2183 C 0.96183 0.42557 0.76005 0.0
C2184 C 0.94952 0.46919 0.77338 0.0
C2185 C 0.92344 0.46257 0.76904 0.0
H2186 H 0.98829 0.45692 0.77264 0.0
H2187 H 0.95534 0.48868 0.77984 0.0
S2188 S 0.89586 0.39894 0.74564 0.0
N2189 N 0.92706 0.39488 0.74712 0.0
N2190 N 0.89182 0.42922 0.75538 0.0
C2191 C 0.91651 0.43729 0.76045 0.0
C2192 C 0.93566 0.41879 0.75581 0.0
C2193 C 0.1507 0.46786 0.77367 0.0
C2194 C 0.14481 0.49393 0.77651 0.0
C2195 C 0.13353 0.44897 0.78091 0.0
C2196 C 0.10967 0.45541 0.79088 0.0
H2197 H 0.16871 0.46193 0.7656 0.0
H2198 H 0.13855 0.4291 0.77772 0.0
S2199 S 0.08517 0.52066 0.80311 0.0
N2200 N 0.11375 0.52522 0.79101 0.0
N2201 N 0.08113 0.4894 0.80413 0.0
C2202 C 0.10364 0.48132 0.79439 0.0
C2203 C 0.12133 0.50068 0.78736 0.0
C2204 C 0.12353 0.41372 0.33094 0.0
C2205 C 0.09927 0.42319 0.33684 0.0
C2206 C 0.14333 0.42995 0.32356 0.0
C2207 C 0.13934 0.45607 0.3215 0.0
H2208 H 0.12752 0.39383 0.33295 0.0
H2209 H 0.16222 0.42231 0.32091 0.0
S2210 S 0.07817 0.48927 0.33025 0.0
N2211 N 0.0718 0.45985 0.33785 0.0
N2212 N 0.10838 0.48971 0.32163 0.0
C2213 C 0.11454 0.46516 0.32482 0.0
C2214 C 0.09461 0.44887 0.33311 0.0
C2215 C 0.14238 0.59166 0.34571 0.0
C2216 C 0.16505 0.59919 0.35976 0.0
C2217 C 0.12479 0.60974 0.33858 0.0
C2218 C 0.12946 0.63603 0.34479 0.0
H2219 H 0.13821 0.57165 0.34 0.0
H2220 H 0.10764 0.60315 0.32775 0.0
S2221 S 0.1847 0.66601 0.38258 0.0
N2222 N 0.19024 0.63511 0.38069 0.0
N2223 N 0.1574 0.66878 0.36678 0.0
C2224 C 0.15167 0.64386 0.35914 0.0
C2225 C 0.16938 0.62553 0.36678 0.0
C2226 C 0.95292 0.6515 0.34085 0.0
C2227 C 0.97843 0.64826 0.34881 0.0
C2228 C 0.93486 0.63109 0.33961 0.0
C2229 C 0.94161 0.60699 0.34701 0.0
H2230 H 0.94673 0.67013 0.33615 0.0
H2231 H 0.9152 0.63461 0.33431 0.0
S2232 S 0.00614 0.58823 0.36792 0.0
N2233 N 0.00982 0.61873 0.36269 0.0
N2234 N 0.97571 0.58056 0.36118 0.0
C2235 C 0.96723 0.60326 0.3541 0.0
C2236 C 0.98572 0.62386 0.35478 0.0
C2237 C 0.97491 0.46285 0.35844 0.0
C2238 C 0.96888 0.43728 0.34966 0.0
C2239 C 0.95635 0.48147 0.35859 0.0
C2240 C 0.93118 0.47502 0.35022 0.0
H2241 H -0.00612 0.46835 0.36611 0.0
H2242 H 0.96139 0.50073 0.36649 0.0
S2243 S 0.90617 0.41179 0.32267 0.0
N2244 N 0.93643 0.40709 0.33021 0.0
N2245 N 0.9015 0.44237 0.33061 0.0
C2246 C 0.92521 0.45003 0.33992 0.0
C2247 C 0.94413 0.43105 0.33957 0.0
C2248 C 0.20669 0.64584 0.66144 0.0
C2249 C 0.232 0.64458 0.65277 0.0
C2250 C 0.19765 0.6295 0.67928 0.0
C2251 C 0.21379 0.61173 0.68923 0.0
H2252 H 0.19361 0.65928 0.65418 0.0
H2253 H 0.17779 0.63024 0.68475 0.0
S2254 S 0.28272 0.604 0.67645 0.0
N2255 N 0.27379 0.62622 0.65781 0.0
N2256 N 0.25696 0.59603 0.69211 0.0
C2257 C 0.23964 0.61172 0.68241 0.0
C2258 C 0.24876 0.62813 0.66404 0.0
C2259 C 0.97497 0.75556 0.62785 0.0
C2260 C 0.95685 0.73786 0.61633 0.0
C2261 C -0.00526 0.74758 0.64344 0.0
C2262 C -0.00345 0.72167 0.64855 0.0
H2263 H 0.97333 0.77578 0.62551 0.0
H2264 H 0.00746 0.76215 0.65302 0.0
S2265 S 0.95511 0.66748 0.62072 0.0
N2266 N 0.94306 0.69304 0.60921 0.0
N2267 N 0.98009 0.6781 0.63868 0.0
C2268 C 0.9795 0.7036 0.63573 0.0
C2269 C 0.95955 0.7117 0.61968 0.0
C2270 C 0.84213 0.4887 0.63882 0.0
C2271 C 0.82696 0.4856 0.66013 0.0
C2272 C 0.84572 0.46824 0.62079 0.0
C2273 C 0.83412 0.4441 0.62341 0.0
H2274 H 0.85256 0.5066 0.63694 0.0
H2275 H 0.85853 0.47111 0.60523 0.0
S2276 S 0.79017 0.42731 0.67446 0.0
N2277 N 0.79843 0.45768 0.68193 0.0
N2278 N 0.80495 0.4189 0.64772 0.0
C2279 C 0.81735 0.44129 0.64366 0.0
C2280 C 0.81386 0.46218 0.66217 0.0
C2281 C 0.11841 0.36851 0.64739 0.0
C2282 C 0.12709 0.34329 0.64419 0.0
C2283 C 0.09885 0.37507 0.66438 0.0
C2284 C 0.08732 0.35668 0.67878 0.0
H2285 H 0.12705 0.38352 0.63715 0.0
H2286 H 0.09264 0.39464 0.66621 0.0
S2287 S 0.10409 0.28861 0.67913 0.0
N2288 N 0.12329 0.3002 0.65795 0.0
N2289 N 0.08669 0.31271 0.69006 0.0
C2290 C 0.09616 0.33163 0.67637 0.0
C2291 C 0.11607 0.32492 0.65908 0.0
C2292 C 0.24451 0.45305 0.47098 0.0
C2293 C 0.22048 0.44355 0.47842 0.0
C2294 C 0.24644 0.47094 0.45234 0.0
C2295 C 0.22444 0.4799 0.4404 0.0
H2296 H 0.26195 0.44672 0.47967 0.0
H2297 H 0.26527 0.4776 0.44706 0.0
S2298 S 0.1571 0.46108 0.45232 0.0
N2299 N 0.17417 0.44452 0.47161 0.0
N2300 N 0.17809 0.47806 0.43716 0.0
C2301 C 0.20044 0.47051 0.44748 0.0
C2302 C 0.19838 0.45242 0.46634 0.0
C2303 C 0.10642 0.74232 0.44742 0.0
C2304 C 0.083 0.72833 0.44668 0.0
C2305 C 0.124 0.74129 0.4679 0.0
C2306 C 0.1188 0.72599 0.48814 0.0
H2307 H 0.11166 0.75313 0.43147 0.0
H2308 H 0.14235 0.75134 0.4671 0.0
S2309 S 0.05853 0.68853 0.49657 0.0
N2310 N 0.05434 0.70092 0.4689 0.0
N2311 N 0.08722 0.69885 0.5074 0.0
C2312 C 0.09465 0.7133 0.48833 0.0
C2313 C 0.07675 0.71455 0.4676 0.0
C2314 C 0.86812 0.63447 0.44423 0.0
C2315 C 0.84717 0.63561 0.46057 0.0
C2316 C 0.86938 0.61525 0.42443 0.0
C2317 C 0.85001 0.5961 0.4206 0.0
H2318 H 0.88379 0.64852 0.44686 0.0
H2319 H 0.88603 0.61504 0.41245 0.0
S2320 S 0.79085 0.59091 0.45806 0.0
N2321 N 0.8063 0.61665 0.47149 0.0
N2322 N 0.80884 0.57979 0.43442 0.0
C2323 C 0.82875 0.59715 0.43669 0.0
C2324 C 0.82725 0.61716 0.45662 0.0
C2325 C 0.97743 0.34215 0.4745 0.0
C2326 C 0.95103 0.34152 0.46908 0.0
C2327 C -0.00517 0.35053 0.45678 0.0
C2328 C 0.98628 0.35893 0.43329 0.0
H2329 H 0.98466 0.3354 0.49217 0.0
H2330 H 0.01511 0.34959 0.46119 0.0
S2331 S 0.91832 0.36466 0.41248 0.0
N2332 N 0.91676 0.35224 0.44032 0.0
N2333 N 0.94915 0.36876 0.4072 0.0
C2334 C 0.95965 0.36003 0.42864 0.0
C2335 C 0.94209 0.35104 0.44648 0.0
C2336 C 0.15572 0.73865 0.65187 0.0
C2337 C 0.15666 0.75055 0.62883 0.0
C2338 C 0.14338 0.74988 0.67299 0.0
C2339 C 0.13041 0.77274 0.6713 0.0
H2340 H 0.1632 0.71975 0.65318 0.0
H2341 H 0.14118 0.73902 0.68958 0.0
S2342 S 0.1324 0.81458 0.6179 0.0
N2343 N 0.14895 0.78951 0.6079 0.0
N2344 N 0.12263 0.80907 0.64675 0.0
C2345 C 0.13322 0.78608 0.64944 0.0
C2346 C 0.14694 0.77522 0.62826 0.0
C2347 C 0.1557 0.3385 0.44816 0.0
C2348 C 0.13072 0.32917 0.45157 0.0
C2349 C 0.17185 0.34557 0.46919 0.0
C2350 C 0.16361 0.3433 0.49432 0.0
H2351 H 0.16236 0.34156 0.4292 0.0
H2352 H 0.19076 0.35341 0.46567 0.0
S2353 S 0.10051 0.31695 0.51276 0.0
N2354 N 0.09892 0.31584 0.48125 0.0
N2355 N 0.12932 0.329 0.52111 0.0
C2356 C 0.13904 0.33256 0.49781 0.0
C2357 C 0.12256 0.32553 0.47631 0.0
C2358 C 0.21199 0.62705 0.50363 0.0
C2359 C 0.21447 0.65298 0.49898 0.0
C2360 C 0.21627 0.60786 0.4842 0.0
C2361 C 0.22416 0.61409 0.45996 0.0
H2362 H 0.20598 0.62161 0.52212 0.0
H2363 H 0.21317 0.58803 0.48805 0.0
S2364 S 0.23485 0.67918 0.43882 0.0
N2365 N 0.22588 0.68397 0.46875 0.0
N2366 N 0.23495 0.64783 0.43256 0.0
C2367 C 0.22762 0.63992 0.45541 0.0
C2368 C 0.2225 0.65943 0.47488 0.0
C2369 C 0.90977 0.73536 0.45469 0.0
C2370 C 0.91333 0.72319 0.47739 0.0
C2371 C 0.92893 0.73526 0.43612 0.0
C2372 C 0.95194 0.72243 0.43945 0.0
H2373 H 0.89207 0.7449 0.45124 0.0
H2374 H 0.92532 0.74447 0.41871 0.0
S2375 S 0.9701 0.68739 0.49555 0.0
N2376 N 0.94129 0.69787 0.50198 0.0
N2377 N 0.97715 0.69769 0.46757 0.0
C2378 C 0.95564 0.71043 0.46225 0.0
C2379 C 0.93635 0.71077 0.48108 0.0
C2380 C 0.86187 0.44096 0.47977 0.0
C2381 C 0.8437 0.42534 0.49083 0.0
C2382 C 0.85517 0.45473 0.45904 0.0
C2383 C 0.82996 0.45357 0.44887 0.0
H2384 H 0.88149 0.44229 0.48702 0.0
H2385 H 0.87002 0.46598 0.45064 0.0
S2386 S 0.77601 0.41333 0.4696 0.0
N2387 N 0.8001 0.40767 0.48905 0.0
N2388 N 0.78723 0.43426 0.45037 0.0
C2389 C 0.81178 0.43746 0.45937 0.0
C2390 C 0.81868 0.42325 0.4804 0.0
C2391 C 0.94274 0.36293 0.61409 0.0
C2392 C 0.91639 0.35916 0.61799 0.0
C2393 C 0.96053 0.3628 0.63441 0.0
C2394 C 0.95263 0.35798 0.65902 0.0
H2395 H 0.94957 0.36685 0.59541 0.0
H2396 H 0.98058 0.36674 0.63092 0.0
S2397 S 0.88611 0.34594 0.67907 0.0
N2398 N 0.88334 0.35006 0.64828 0.0
N2399 N 0.91706 0.34892 0.68625 0.0
C2400 C 0.92652 0.35335 0.66304 0.0
C2401 C 0.9083 0.35419 0.64255 0.0
C2402 C 0.22073 0.47585 0.65262 0.0
C2403 C 0.19607 0.47978 0.66235 0.0
C2404 C 0.22413 0.46089 0.62971 0.0
C2405 C 0.20297 0.4496 0.61585 0.0
H2406 H 0.23761 0.48367 0.66316 0.0
H2407 H 0.24339 0.45685 0.62367 0.0
S2408 S 0.13453 0.45523 0.63164 0.0
N2409 N 0.15011 0.4722 0.65521 0.0
N2410 N 0.15674 0.44422 0.61215 0.0
C2411 C 0.17826 0.45446 0.6245 0.0
C2412 C 0.17473 0.46954 0.64779 0.0
C2413 C 0.8562 0.6216 0.59648 0.0
C2414 C 0.84595 0.64604 0.59831 0.0
C2415 C 0.85392 0.60559 0.61653 0.0
C2416 C 0.84113 0.61333 0.63912 0.0
H2417 H 0.86702 0.61525 0.57991 0.0
H2418 H 0.86299 0.58726 0.61455 0.0
S2419 S 0.80836 0.67469 0.65175 0.0
N2420 N 0.82062 0.67656 0.62319 0.0
N2421 N 0.81627 0.64653 0.661 0.0
C2422 C 0.82946 0.63722 0.64046 0.0
C2423 C 0.83192 0.65357 0.62002 0.0
C2424 C 0.59641 0.16232 0.75511 0.0
C2425 C 0.5886 0.16398 0.72956 0.0
C2426 C 0.61547 0.1455 0.7614 0.0
C2427 C 0.62716 0.12987 0.74232 0.0
H2428 H 0.58827 0.1746 0.77021 0.0
H2429 H 0.62129 0.14489 0.78127 0.0
S2430 S 0.61455 0.12895 0.67237 0.0
N2431 N 0.59428 0.14958 0.6851 0.0
N2432 N 0.63065 0.11856 0.69666 0.0
C2433 C 0.61962 0.1317 0.71666 0.0
C2434 C 0.60017 0.14864 0.71035 0.0
C2435 C 0.44509 0.11224 0.72138 0.0
C2436 C 0.41999 0.11767 0.72854 0.0
C2437 C 0.46338 0.13204 0.71965 0.0
C2438 C 0.45728 0.15771 0.72575 0.0
H2439 H 0.45015 0.09279 0.71555 0.0
H2440 H 0.48222 0.1273 0.71284 0.0
S2441 S 0.39482 0.18153 0.74769 0.0
N2442 N 0.39026 0.15019 0.74312 0.0
N2443 N 0.42503 0.18736 0.74074 0.0
C2444 C 0.43273 0.1632 0.73446 0.0
C2445 C 0.41395 0.14314 0.73562 0.0
C2446 C 0.44808 0.92006 0.73269 0.0
C2447 C 0.47442 0.92454 0.73837 0.0
C2448 C 0.43042 0.93955 0.73647 0.0
C2449 C 0.4383 0.96451 0.74567 0.0
H2450 H 0.44088 0.90123 0.72548 0.0
H2451 H 0.41038 0.93505 0.73191 0.0
S2452 S 0.50474 0.98669 0.76367 0.0
N2453 N 0.50733 0.95617 0.75396 0.0
N2454 N 0.47402 0.99275 0.76074 0.0
C2455 C 0.46447 0.96946 0.75129 0.0
C2456 C 0.48252 0.9495 0.74776 0.0
C2457 C 0.61655 0.96881 0.7649 0.0
C2458 C 0.62296 0.94299 0.76464 0.0
C2459 C 0.63399 0.98723 0.75698 0.0
C2460 C 0.65834 0.98035 0.74825 0.0
H2461 H 0.59773 0.97471 0.77079 0.0
H2462 H 0.62807 0.00685 0.75712 0.0
S2463 S 0.68439 0.91499 0.74481 0.0
N2464 N 0.65525 0.9114 0.7558 0.0
N2465 N 0.68817 0.94576 0.7409 0.0
C2466 C 0.66513 0.95455 0.74861 0.0
C2467 C 0.64742 0.93593 0.75687 0.0
C2468 C 0.59579 0.90601 0.31856 0.0
C2469 C 0.59177 0.90104 0.3441 0.0
C2470 C 0.61571 0.92279 0.31228 0.0
C2471 C 0.63179 0.93532 0.33143 0.0
H2472 H 0.58354 0.8968 0.30342 0.0
H2473 H 0.61837 0.92623 0.29242 0.0
S2474 S 0.62968 0.92727 0.401 0.0
N2475 N 0.60579 0.90883 0.38838 0.0
N2476 N 0.64304 0.94043 0.37682 0.0
C2477 C 0.62808 0.93005 0.35698 0.0
C2478 C 0.60807 0.91286 0.36325 0.0
C2479 C 0.63654 0.07762 0.33237 0.0
C2480 C 0.65951 0.08555 0.34574 0.0
C2481 C 0.61879 0.09547 0.32492 0.0
C2482 C 0.62366 0.12188 0.33005 0.0
H2483 H 0.63225 0.05748 0.32748 0.0
H2484 H 0.60136 0.08861 0.31473 0.0
S2485 S 0.67977 0.15301 0.3655 0.0
N2486 N 0.68514 0.12213 0.36481 0.0
N2487 N 0.65219 0.15523 0.35006 0.0
C2488 C 0.64619 0.13011 0.34362 0.0
C2489 C 0.664 0.11208 0.35166 0.0
C2490 C 0.46099 0.14869 0.37643 0.0
C2491 C 0.47738 0.14792 0.35545 0.0
C2492 C 0.44208 0.12976 0.37868 0.0
C2493 C 0.43835 0.10942 0.35985 0.0
H2494 H 0.46288 0.16396 0.39156 0.0
H2495 H 0.43005 0.1313 0.39526 0.0
S2496 S 0.47604 0.09811 0.3012 0.0
N2497 N 0.4889 0.12477 0.31557 0.0
N2498 N 0.4526 0.08922 0.31955 0.0
C2499 C 0.4544 0.10828 0.33864 0.0
C2500 C 0.47416 0.12747 0.33655 0.0
C2501 C 0.46048 0.94451 0.39474 0.0
C2502 C 0.4639 0.92972 0.37156 0.0
C2503 C 0.44487 0.9657 0.39585 0.0
C2504 C 0.43258 0.97306 0.37377 0.0
H2505 H 0.46923 0.93925 0.41238 0.0
H2506 H 0.44189 0.97606 0.41418 0.0
S2507 S 0.43582 0.94176 0.30829 0.0
N2508 N 0.45417 0.92455 0.32583 0.0
N2509 N 0.42484 0.96469 0.32812 0.0
C2510 C 0.43625 0.95903 0.35038 0.0
C2511 C 0.45195 0.93725 0.34922 0.0
C2512 C 0.71079 0.09733 0.63113 0.0
C2513 C 0.72774 0.08458 0.64636 0.0
C2514 C 0.71995 0.11478 0.61443 0.0
C2515 C 0.74643 0.11987 0.61218 0.0
H2516 H 0.69029 0.09416 0.63255 0.0
H2517 H 0.70603 0.12494 0.60396 0.0
S2518 S 0.79853 0.09227 0.64919 0.0
N2519 N 0.77199 0.07896 0.65938 0.0
N2520 N 0.78936 0.11125 0.62729 0.0
C2521 C 0.76354 0.1073 0.62752 0.0
C2522 C 0.75417 0.08969 0.64471 0.0
C2523 C 0.48476 0.24011 0.62548 0.0
C2524 C 0.47808 0.24617 0.65095 0.0
C2525 C 0.46633 0.23994 0.60572 0.0
C2526 C 0.44101 0.24666 0.61084 0.0
H2527 H 0.50392 0.23411 0.62098 0.0
H2528 H 0.47171 0.23384 0.58642 0.0
S2529 S 0.41454 0.26589 0.67412 0.0
N2530 N 0.44489 0.26016 0.68018 0.0
N2531 N 0.41046 0.2607 0.64284 0.0
C2532 C 0.43449 0.25413 0.63603 0.0
C2533 C 0.45302 0.25365 0.65619 0.0
C2534 C 0.32478 0.95062 0.63625 0.0
C2535 C 0.33672 0.9478 0.61255 0.0
C2536 C 0.32649 0.97405 0.65103 0.0
C2537 C 0.33995 0.99517 0.64232 0.0
H2538 H 0.31594 0.93423 0.6443 0.0
H2539 H 0.31902 0.97513 0.67017 0.0
S2540 S 0.36951 -0.00102 0.57936 0.0
N2541 N 0.35861 0.96908 0.57924 0.0
N2542 N 0.36185 0.01307 0.60729 0.0
C2543 C 0.34944 0.99335 0.6176 0.0
C2544 C 0.34786 0.96956 0.60261 0.0
C2545 C 0.6293 0.83031 0.63817 0.0
C2546 C 0.62626 0.84182 0.61501 0.0
C2547 C 0.61064 0.83266 0.65716 0.0
C2548 C 0.58826 0.84638 0.65351 0.0
H2549 H 0.64671 0.8205 0.64216 0.0
H2550 H 0.614 0.82423 0.67506 0.0
S2551 S 0.56991 0.87776 0.59537 0.0
N2552 N 0.5981 0.86573 0.58887 0.0
N2553 N 0.56332 0.87001 0.62444 0.0
C2554 C 0.58441 0.85675 0.62998 0.0
C2555 C 0.60336 0.85455 0.61079 0.0
C2556 C 0.73612 0.95983 0.47298 0.0
C2557 C 0.74886 0.93717 0.46573 0.0
C2558 C 0.7303 0.97754 0.4552 0.0
C2559 C 0.73745 0.97356 0.42962 0.0
H2560 H 0.73055 0.96409 0.49251 0.0
H2561 H 0.71975 0.99429 0.46143 0.0
S2562 S 0.77458 0.91967 0.40146 0.0
N2563 N 0.7704 0.91307 0.43135 0.0
N2564 N 0.76061 0.94711 0.39847 0.0
C2565 C 0.75166 0.95198 0.42243 0.0
C2566 C 0.7572 0.93368 0.44037 0.0
C2567 C 0.64551 0.23736 0.44284 0.0
C2568 C 0.6445 0.22269 0.46407 0.0
C2569 C 0.62454 0.23735 0.42571 0.0
C2570 C 0.602 0.22304 0.42969 0.0
H2571 H 0.66302 0.24764 0.43866 0.0
H2572 H 0.62629 0.24765 0.40871 0.0
S2573 S 0.58861 0.1844 0.48409 0.0
N2574 N 0.61832 0.19553 0.48939 0.0
N2575 N 0.57893 0.1959 0.45727 0.0
C2576 C 0.60016 0.20982 0.4517 0.0
C2577 C 0.62148 0.20952 0.4689 0.0
C2578 C 0.31671 0.11169 0.45897 0.0
C2579 C 0.31939 0.13721 0.45304 0.0
C2580 C 0.32462 0.09166 0.44198 0.0
C2581 C 0.33594 0.09648 0.41861 0.0
H2582 H 0.30863 0.10721 0.47698 0.0
H2583 H 0.32225 0.07227 0.44748 0.0
S2584 S 0.34767 0.16046 0.39467 0.0
N2585 N 0.33412 0.16651 0.42252 0.0
N2586 N 0.34937 0.12903 0.39063 0.0
C2587 C 0.33869 0.12207 0.41252 0.0
C2588 C 0.33028 0.14239 0.4297 0.0
C2589 C 0.4533 0.80373 0.45756 0.0
C2590 C 0.43946 0.82416 0.4685 0.0
C2591 C 0.47269 0.80801 0.44021 0.0
C2592 C 0.47822 0.83278 0.43293 0.0
H2593 H 0.44863 0.78431 0.46191 0.0
H2594 H 0.48227 0.7917 0.4313 0.0
S2595 S 0.44821 0.89277 0.45699 0.0
N2596 N 0.43338 0.8701 0.47164 0.0
N2597 N 0.46957 0.87804 0.43894 0.0
C2598 C 0.4652 0.85341 0.44449 0.0
C2599 C 0.44578 0.84912 0.46228 0.0
C2600 C 0.64365 0.21196 0.60738 0.0
C2601 C 0.66069 0.22763 0.59498 0.0
C2602 C 0.62792 0.2224 0.62645 0.0
C2603 C 0.62844 0.24893 0.6334 0.0
H2604 H 0.64219 0.19158 0.60199 0.0
H2605 H 0.61517 0.20954 0.63564 0.0
S2606 S 0.67267 0.29735 0.60899 0.0
N2607 N 0.67971 0.27023 0.59288 0.0
N2608 N 0.64937 0.29013 0.62824 0.0
C2609 C 0.64652 0.26453 0.62212 0.0
C2610 C 0.66277 0.25382 0.60291 0.0
C2611 C 0.62775 0.83289 0.43909 0.0
C2612 C 0.62021 0.80688 0.43515 0.0
C2613 C 0.64356 0.84181 0.45983 0.0
C2614 C 0.65279 0.82496 0.47701 0.0
H2615 H 0.62038 0.84669 0.42678 0.0
H2616 H 0.6479 0.86217 0.46293 0.0
S2617 S 0.64334 0.7544 0.47181 0.0
N2618 N 0.62586 0.76391 0.44793 0.0
N2619 N 0.65697 0.78058 0.48641 0.0
C2620 C 0.64742 0.79859 0.47195 0.0
C2621 C 0.63088 0.78954 0.45099 0.0
C2622 C 0.74947 0.13342 0.46679 0.0
C2623 C 0.74328 0.15902 0.46452 0.0
C2624 C 0.75264 0.11662 0.4451 0.0
C2625 C 0.74982 0.1248 0.42029 0.0
H2626 H 0.75087 0.12597 0.48542 0.0
H2627 H 0.75629 0.09681 0.44788 0.0
S2628 S 0.73781 0.19108 0.40408 0.0
N2629 N 0.73745 0.19257 0.43557 0.0
N2630 N 0.74348 0.16102 0.39486 0.0
C2631 C 0.74545 0.15081 0.4178 0.0
C2632 C 0.74209 0.16789 0.43989 0.0
C2633 C 0.45923 0.20289 0.45549 0.0
C2634 C 0.46542 0.22365 0.44101 0.0
C2635 C 0.4399 0.20439 0.47351 0.0
C2636 C 0.42619 0.22675 0.47797 0.0
H2637 H 0.46911 0.18506 0.45271 0.0
H2638 H 0.43566 0.18791 0.48409 0.0
S2639 S 0.43432 0.2865 0.44553 0.0
N2640 N 0.45588 0.26739 0.43253 0.0
N2641 N 0.41948 0.27004 0.4667 0.0
C2642 C 0.43203 0.24772 0.46391 0.0
C2643 C 0.45168 0.24622 0.44535 0.0
C2644 C 0.32746 0.94617 0.49546 0.0
C2645 C 0.32824 0.91951 0.49079 0.0
C2646 C 0.32049 0.96149 0.47601 0.0
C2647 C 0.31479 0.95072 0.45107 0.0
H2648 H 0.33301 0.9553 0.51407 0.0
H2649 H 0.32021 0.98195 0.4805 0.0
S2650 S 0.30903 0.8813 0.4307 0.0
N2651 N 0.31823 0.88254 0.46105 0.0
N2652 N 0.30689 0.91134 0.42382 0.0
C2653 C 0.31357 0.92387 0.44676 0.0
C2654 C 0.32006 0.90827 0.46676 0.0
C2655 C 0.43552 0.85576 0.60389 0.0
C2656 C 0.41009 0.85128 0.61099 0.0
C2657 C 0.45582 0.85507 0.62163 0.0
C2658 C 0.45141 0.84913 0.64681 0.0
H2659 H 0.43969 0.86077 0.58477 0.0
H2660 H 0.47507 0.85957 0.61571 0.0
S2661 S 0.38843 0.83482 0.67457 0.0
N2662 N 0.38156 0.84025 0.64466 0.0
N2663 N 0.41992 0.83812 0.67788 0.0
C2664 C 0.42617 0.84377 0.65393 0.0
C2665 C 0.40542 0.84512 0.63604 0.0
C2666 C 0.69868 0.91178 0.62872 0.0
C2667 C 0.71872 0.91051 0.61124 0.0
C2668 C 0.69871 0.93075 0.64887 0.0
C2669 C 0.719 0.94891 0.6527 0.0
H2670 H 0.68246 0.89834 0.6265 0.0
H2671 H 0.68253 0.93132 0.66148 0.0
S2672 S 0.77671 0.95328 0.61322 0.0
N2673 N 0.7598 0.92865 0.59942 0.0
N2674 N 0.76011 0.96413 0.63801 0.0
C2675 C 0.7396 0.9475 0.63594 0.0
C2676 C 0.73934 0.92839 0.61496 0.0
C2677 C 0.332 0.15354 0.6027 0.0
C2678 C 0.35089 0.1734 0.6028 0.0
C2679 C 0.33205 0.13576 0.62153 0.0
C2680 C 0.35127 0.13694 0.64079 0.0
H2681 H 0.31717 0.1516 0.58788 0.0
H2682 H 0.31757 0.12047 0.62045 0.0
S2683 S 0.40455 0.18533 0.65048 0.0
N2684 N 0.38884 0.19335 0.62487 0.0
N2685 N 0.38906 0.15979 0.65947 0.0
C2686 C 0.36994 0.15682 0.64138 0.0
C2687 C 0.36971 0.17508 0.62262 0.0
C2688 C 0.62617 0.68236 0.24413 0.0
C2689 C 0.59979 0.67992 0.24839 0.0
C2690 C 0.64374 0.66865 0.25771 0.0
C2691 C 0.63532 0.65176 0.27549 0.0
H2692 H 0.63312 0.69392 0.22936 0.0
H2693 H 0.66378 0.66987 0.25293 0.0
S2694 S 0.56906 0.64285 0.29736 0.0
N2695 N 0.56675 0.66338 0.27522 0.0
N2696 N 0.59965 0.63586 0.2991 0.0
C2697 C 0.60932 0.65071 0.28132 0.0
C2698 C 0.59154 0.66523 0.2681 0.0
C2699 C 0.43119 0.61382 0.20974 0.0
C2700 C 0.42799 0.599 0.23065 0.0
C2701 C 0.45104 0.63218 0.20956 0.0
C2702 C 0.46823 0.63681 0.23051 0.0
H2703 H 0.418 0.61149 0.19345 0.0
H2704 H 0.45223 0.64351 0.19322 0.0
S2705 S 0.46935 0.60177 0.28913 0.0
N2706 N 0.44462 0.58881 0.27212 0.0
N2707 N 0.48185 0.62396 0.27206 0.0
C2708 C 0.46586 0.62152 0.2512 0.0
C2709 C 0.44579 0.6024 0.25118 0.0
C2710 C 0.47855 0.43707 0.26222 0.0
C2711 C 0.47064 0.41342 0.24932 0.0
C2712 C 0.46106 0.45641 0.26794 0.0
C2713 C 0.43494 0.45261 0.2615 0.0
H2714 H 0.49848 0.44088 0.2677 0.0
H2715 H 0.46797 0.47442 0.27754 0.0
S2716 S 0.40402 0.39475 0.22752 0.0
N2717 N 0.43453 0.38776 0.23006 0.0
N2718 N 0.40183 0.42394 0.24137 0.0
C2719 C 0.42664 0.42916 0.24885 0.0
C2720 C 0.44443 0.40962 0.24262 0.0
C2721 C 0.63499 0.49621 0.27323 0.0
C2722 C 0.64262 0.49875 0.24798 0.0
C2723 C 0.61987 0.47501 0.27932 0.0
C2724 C 0.61149 0.45608 0.26027 0.0
H2725 H 0.64168 0.51003 0.28852 0.0
H2726 H 0.61492 0.47328 0.29905 0.0
S2727 S 0.6254 0.45466 0.19115 0.0
N2728 N 0.63987 0.48119 0.20379 0.0
N2729 N 0.61171 0.44152 0.21514 0.0
C2730 C 0.61842 0.45888 0.2349 0.0
C2731 C 0.63387 0.48023 0.22877 0.0
C2732 C 0.63257 0.4345 0.88394 0.0
C2733 C 0.61884 0.41489 0.86963 0.0
C2734 C 0.64811 0.45173 0.87186 0.0
C2735 C 0.65005 0.45016 0.84501 0.0
H2736 H 0.63072 0.43696 0.9045 0.0
H2737 H 0.65815 0.46674 0.88378 0.0
S2738 S 0.61895 0.40071 0.79941 0.0
N2739 N 0.60892 0.39354 0.82769 0.0
N2740 N 0.63825 0.42622 0.80478 0.0
C2741 C 0.63727 0.4298 0.83064 0.0
C2742 C 0.62148 0.41216 0.843 0.0
C2743 C 0.64545 0.61918 0.87349 0.0
C2744 C 0.65317 0.5997 0.8555 0.0
C2745 C 0.62784 0.63736 0.86686 0.0
C2746 C 0.61738 0.63694 0.84194 0.0
H2747 H 0.65341 0.62068 0.89278 0.0
H2748 H 0.62292 0.6523 0.88119 0.0
S2749 S 0.63068 0.59011 0.78771 0.0
N2750 N 0.64834 0.58101 0.81163 0.0
N2751 N 0.61554 0.61553 0.79929 0.0
C2752 C 0.62458 0.61754 0.82384 0.0
C2753 C 0.64228 0.59877 0.83061 0.0
C2754 C 0.45036 0.65758 0.86724 0.0
C2755 C 0.47161 0.65779 0.85115 0.0
C2756 C 0.43416 0.63602 0.86757 0.0
C2757 C 0.43809 0.61409 0.85134 0.0
H2758 H 0.44664 0.67385 0.8805 0.0
H2759 H 0.41865 0.63635 0.88099 0.0
S2760 S 0.48941 0.605 0.80424 0.0
N2761 N 0.49498 0.63425 0.81773 0.0
N2762 N 0.46361 0.59381 0.81785 0.0
C2763 C 0.45837 0.6142 0.83428 0.0
C2764 C 0.47539 0.63605 0.83432 0.0
C2765 C 0.46585 0.47187 0.87537 0.0
C2766 C 0.45236 0.4776 0.85332 0.0
C2767 C 0.48307 0.45201 0.87455 0.0
C2768 C 0.48725 0.43706 0.85162 0.0
H2769 H 0.46201 0.48194 0.89366 0.0
H2770 H 0.49235 0.44772 0.89228 0.0
S2771 S 0.45786 0.4462 0.78815 0.0
N2772 N 0.44518 0.46832 0.80771 0.0
N2773 N 0.47785 0.43088 0.80586 0.0
C2774 C 0.47501 0.44375 0.82906 0.0
C2775 C 0.45741 0.46406 0.82999 0.0
C2776 C 0.70214 0.63784 0.16347 0.0
C2777 C 0.71889 0.61987 0.1721 0.0
C2778 C 0.71053 0.65566 0.14682 0.0
C2779 C 0.73577 0.65569 0.1379 0.0
H2780 H 0.68231 0.63769 0.16912 0.0
H2781 H 0.69698 0.66923 0.14065 0.0
S2782 S 0.78804 0.61535 0.1587 0.0
N2783 N 0.76266 0.60552 0.17389 0.0
N2784 N 0.7782 0.63838 0.14151 0.0
C2785 C 0.75314 0.63901 0.1479 0.0
C2786 C 0.7447 0.62112 0.16519 0.0
C2787 C 0.48063 0.76485 0.14112 0.0
C2788 C 0.48775 0.73936 0.14292 0.0
C2789 C 0.46004 0.77061 0.12524 0.0
C2790 C 0.44642 0.75115 0.11035 0.0
H2791 H 0.48977 0.78023 0.15336 0.0
H2792 H 0.45415 0.79024 0.12532 0.0
S2793 S 0.45925 0.68162 0.10659 0.0
N2794 N 0.48111 0.69487 0.12702 0.0
N2795 N 0.44234 0.70548 0.0975 0.0
C2796 C 0.45439 0.72577 0.1109 0.0
C2797 C 0.47521 0.71995 0.12704 0.0
C2798 C 0.33275 0.45906 0.15602 0.0
C2799 C 0.34759 0.48168 0.15496 0.0
C2800 C 0.33572 0.43827 0.13797 0.0
C2801 C 0.35401 0.43948 0.1188 0.0
H2802 H 0.31973 0.45704 0.17158 0.0
H2803 H 0.32479 0.42069 0.13999 0.0
S2804 S 0.39538 0.49572 0.10656 0.0
N2805 N 0.3793 0.50513 0.13218 0.0
N2806 N 0.38531 0.46599 0.09841 0.0
C2807 C 0.36786 0.4626 0.11679 0.0
C2808 C 0.36452 0.48378 0.13488 0.0
C2809 C 0.59904 0.3237 0.15451 0.0
C2810 C 0.5909 0.34872 0.16035 0.0
C2811 C 0.61978 0.319 0.13835 0.0
C2812 C 0.63263 0.3391 0.12714 0.0
H2813 H 0.58986 0.30783 0.16313 0.0
H2814 H 0.62597 0.29954 0.13478 0.0
S2815 S 0.61812 0.40805 0.13663 0.0
N2816 N 0.59686 0.3937 0.15393 0.0
N2817 N 0.63552 0.38506 0.12343 0.0
C2818 C 0.62421 0.36415 0.13261 0.0
C2819 C 0.60339 0.36891 0.14927 0.0
C2820 C 0.70202 0.45388 0.95712 0.0
C2821 C 0.7247 0.44389 0.96687 0.0
C2822 C 0.70262 0.47467 0.94196 0.0
C2823 C 0.72585 0.48667 0.93609 0.0
H2824 H 0.68347 0.44544 0.96096 0.0
H2825 H 0.6847 0.48126 0.93448 0.0
S2826 S 0.79072 0.46839 0.95612 0.0
N2827 N 0.77128 0.44789 0.9691 0.0
N2828 N 0.77216 0.48721 0.94058 0.0
C2829 C 0.7487 0.47723 0.94564 0.0
C2830 C 0.74818 0.4558 0.96103 0.0
C2831 C 0.62228 0.75559 0.96302 0.0
C2832 C 0.61875 0.74225 0.98496 0.0
C2833 C 0.60394 0.75356 0.943 0.0
C2834 C 0.58156 0.73825 0.94441 0.0
H2835 H 0.63988 0.7665 0.96066 0.0
H2836 H 0.60771 0.76323 0.92593 0.0
S2837 S 0.56155 0.7025 -0.00097 0.0
N2838 N 0.58981 0.71554 0.00799 0.0
N2839 N 0.55559 0.71167 0.97019 0.0
C2840 C 0.57698 0.72632 0.96687 0.0
C2841 C 0.59557 0.72829 0.9872 0.0
C2842 C 0.35693 0.57751 0.94921 0.0
C2843 C 0.35398 0.58326 0.92364 0.0
C2844 C 0.35215 0.59579 0.96932 0.0
C2845 C 0.34345 0.62006 0.96451 0.0
H2846 H 0.36399 0.55915 0.95372 0.0
H2847 H 0.35591 0.59114 0.98877 0.0
S2848 S 0.33109 0.64398 0.90103 0.0
N2849 N 0.34092 0.61459 0.89459 0.0
N2850 N 0.3312 0.64867 0.93251 0.0
C2851 C 0.3393 0.62566 0.9391 0.0
C2852 C 0.3448 0.60731 0.9186 0.0
C2853 C 0.48323 0.34752 0.9513 0.0
C2854 C 0.49833 0.32944 0.93804 0.0
C2855 C 0.46576 0.34022 0.96927 0.0
C2856 C 0.4625 0.3145 0.97465 0.0
H2857 H 0.48468 0.36753 0.94758 0.0
H2858 H 0.45415 0.35489 0.97827 0.0
S2859 S 0.49766 0.25968 0.9456 0.0
N2860 N 0.50943 0.28465 0.93192 0.0
N2861 N 0.47598 0.27091 0.96565 0.0
C2862 C 0.47765 0.29621 0.96182 0.0
C2863 C 0.49581 0.30369 0.94364 0.0
C2864 C 0.63435 0.79722 0.14588 0.0
C2865 C 0.62761 0.78137 0.16512 0.0
C2866 C 0.64916 0.78794 0.12537 0.0
C2867 C 0.6566 0.7623 0.1231 0.0
H2868 H 0.62679 0.81621 0.14583 0.0
H2869 H 0.65377 0.80053 0.11063 0.0
S2870 S 0.64558 0.71414 0.17007 0.0
N2871 N 0.63202 0.74014 0.18243 0.0
N2872 N 0.65778 0.72198 0.14292 0.0
C2873 C 0.65138 0.74694 0.14319 0.0
C2874 C 0.63738 0.7567 0.16448 0.0
C2875 C 0.67921 0.33248 0.95668 0.0
C2876 C 0.6739 0.33019 0.98261 0.0
C2877 C 0.6638 0.31988 0.93723 0.0
C2878 C 0.64248 0.30469 0.94304 0.0
H2879 H 0.69496 0.34468 0.95129 0.0
H2880 H 0.66755 0.32348 0.91759 0.0
S2881 S 0.62162 0.29002 0.00731 0.0
N2882 N 0.6469 0.30949 0.01279 0.0
N2883 N 0.61785 0.28614 0.97593 0.0
C2884 C 0.6378 0.3009 0.96864 0.0
C2885 C 0.65351 0.31361 0.98853 0.0
C2886 C 0.734 0.6384 0.96541 0.0
C2887 C 0.72089 0.64083 0.94213 0.0
C2888 C 0.72829 0.65388 0.98744 0.0
C2889 C 0.70901 0.67206 0.98701 0.0
H2890 H 0.74913 0.62482 0.96648 0.0
H2891 H 0.73962 0.65206 0.00468 0.0
S2892 S 0.66626 0.6828 0.93159 0.0
N2893 N 0.68605 0.66087 0.92049 0.0
N2894 N 0.6749 0.68947 0.96185 0.0
C2895 C 0.6948 0.67359 0.9641 0.0
C2896 C 0.70088 0.65814 0.94166 0.0
C2897 C 0.41222 0.69686 0.95763 0.0
C2898 C 0.40558 0.71781 0.97423 0.0
C2899 C 0.43175 0.69919 0.94004 0.0
C2900 C 0.44495 0.72269 0.93786 0.0
H2901 H 0.40282 0.6783 0.95876 0.0
H2902 H 0.43663 0.68232 0.9281 0.0
S2903 S 0.43373 0.78377 0.97569 0.0
N2904 N 0.41307 0.76314 0.98676 0.0
N2905 N 0.44941 0.76755 0.95306 0.0
C2906 C 0.43792 0.74404 0.95364 0.0
C2907 C 0.41835 0.74156 0.97202 0.0
C2908 C 0.37725 0.43458 0.95058 0.0
C2909 C 0.35139 0.43652 0.94315 0.0
C2910 C 0.38413 0.42107 0.97144 0.0
C2911 C 0.36535 0.40901 0.98532 0.0
H2912 H 0.39227 0.44375 0.94033 0.0
H2913 H 0.40419 0.42031 0.97695 0.0
S2914 S 0.29544 0.4054 0.97149 0.0
N2915 N 0.30722 0.4234 0.9498 0.0
N2916 N 0.32024 0.39742 0.98887 0.0
C2917 C 0.33959 0.40957 0.97728 0.0
C2918 C 0.33258 0.42342 0.9561 0.0
C2919 C 0.41815 0.33704 0.16718 0.0
C2920 C 0.44174 0.32487 0.1663 0.0
C2921 C 0.40474 0.34157 0.14478 0.0
C2922 C 0.41421 0.33388 0.12055 0.0
H2923 H 0.41051 0.34434 0.18525 0.0
H2924 H 0.38699 0.35166 0.14656 0.0
S2925 S 0.47362 0.29836 0.10794 0.0
N2926 N 0.47292 0.30301 0.13938 0.0
N2927 N 0.44764 0.3115 0.09712 0.0
C2928 C 0.43704 0.32032 0.1194 0.0
C2929 C 0.4508 0.31581 0.14231 0.0
C2930 C 0.68636 0.45369 0.10898 0.0
C2931 C 0.71083 0.44817 0.09998 0.0
C2932 C 0.68323 0.4712 0.13005 0.0
C2933 C 0.70453 0.48348 0.14315 0.0
H2934 H 0.66957 0.44369 0.10017 0.0
H2935 H 0.66399 0.47436 0.13666 0.0
S2936 S 0.77272 0.47593 0.12628 0.0
N2937 N 0.75665 0.45649 0.10492 0.0
N2938 N 0.75099 0.48967 0.14471 0.0
C2939 C 0.72915 0.4786 0.13381 0.0
C2940 C 0.73225 0.46085 0.11215 0.0
C2941 C 0.33879 0.63443 0.14494 0.0
C2942 C 0.35038 0.61051 0.14223 0.0
C2943 C 0.33826 0.65052 0.12468 0.0
C2944 C 0.34891 0.64304 0.10092 0.0
H2945 H 0.33105 0.64123 0.16312 0.0
H2946 H 0.32989 0.66912 0.12775 0.0
S2947 S 0.37954 0.58157 0.08327 0.0
N2948 N 0.37138 0.57965 0.11328 0.0
N2949 N 0.37014 0.60974 0.07546 0.0
C2950 C 0.35949 0.61879 0.09765 0.0
C2951 C 0.36032 0.60258 0.11824 0.0
loop_
_geom_bond_atom_site_label_1
_geom_bond_atom_site_label_2
_geom_bond_distance
_geom_bond_site_symmetry_2
_ccdc_geom_bond_type
Co0 O3 1.970 1_455 S
Co0 N17 1.989 . S
Co0 O25 1.967 . S
Co0 O32 1.920 1_455 S
Co1 O4 1.966 . S
Co1 N10 2.022 . S
Co1 N18 1.993 . S
Co1 O26 1.941 . S
C2 O3 1.258 . S
C2 O4 1.263 1_655 S
O3 Co0 1.970 1_655 S
O3 C2 1.258 . S
O4 Co1 1.966 . S
O4 C2 1.263 1_455 S
C5 O6 1.235 . S
C5 O32 1.289 . S
O6 C5 1.235 . S
C7 C9 1.400 . S
C7 N10 1.351 . S
C7 C12 1.501 . S
C8 C9 1.387 . S
C8 N11 1.341 . S
C9 C7 1.400 . S
C9 C8 1.387 . S
N10 Co1 2.022 . S
N10 C7 1.351 . S
N10 N11 1.365 . S
N11 C8 1.341 . S
N11 N10 1.365 . S
N11 H31 0.862 . S
C12 C7 1.501 . S
C12 H13 0.961 . S
C12 H14 0.961 . S
C12 H15 0.960 . S
H13 C12 0.961 . S
H14 C12 0.961 . S
H15 C12 0.960 . S
C16 N17 1.342 . S
C16 C20 1.401 . S
C16 C21 1.499 . S
N17 Co0 1.989 . S
N17 C16 1.342 . S
N17 N18 1.388 . S
N18 Co1 1.993 . S
N18 N17 1.388 . S
N18 C19 1.346 . S
C19 N18 1.346 . S
C19 C20 1.396 . S
C19 C29 1.510 . S
C20 C16 1.401 . S
C20 C19 1.396 . S
C21 C16 1.499 . S
C21 H22 0.959 . S
C21 H23 0.960 . S
C21 H24 0.961 . S
H22 C21 0.959 . S
H23 C21 0.960 . S
H24 C21 0.961 . S
O25 Co0 1.967 . S
O25 C33 1.258 . S
O26 Co1 1.941 . S
O26 C33 1.266 . S
H27 C29 0.959 . S
H28 C29 0.961 . S
C29 C19 1.510 . S
C29 H27 0.959 . S
C29 H28 0.961 . S
C29 H30 0.960 . S
H30 C29 0.960 . S
H31 N11 0.862 . S
O32 Co0 1.920 1_655 S
O32 C5 1.289 . S
C33 O25 1.258 . S
C33 O26 1.266 . S
Co34 O37 1.970 . S
Co34 N51 1.989 . S
Co34 O59 1.967 . S
Co34 O66 1.920 . S
Co35 O38 1.966 . S
Co35 N44 2.022 1_545 S
Co35 N52 1.993 . S
Co35 O60 1.941 . S
C36 O37 1.258 . S
C36 O38 1.263 . S
O37 Co34 1.970 . S
O37 C36 1.258 . S
O38 Co35 1.966 . S
O38 C36 1.263 . S
C39 O40 1.235 . S
C39 O66 1.289 . S
O40 C39 1.235 . S
C41 C43 1.400 . S
C41 N44 1.351 . S
C41 C46 1.501 1_565 S
C42 C43 1.387 . S
C42 N45 1.341 . S
C43 C41 1.400 . S
C43 C42 1.387 . S
N44 Co35 2.022 1_565 S
N44 C41 1.351 . S
N44 N45 1.365 . S
N45 C42 1.341 . S
N45 N44 1.365 . S
N45 H65 0.862 . S
C46 C41 1.501 1_545 S
C46 H47 0.961 . S
C46 H48 0.961 . S
C46 H49 0.960 . S
H47 C46 0.961 . S
H48 C46 0.961 . S
H49 C46 0.960 . S
C50 N51 1.342 . S
C50 C54 1.401 1_545 S
C50 C55 1.499 . S
N51 Co34 1.989 . S
N51 C50 1.342 . S
N51 N52 1.388 . S
N52 Co35 1.993 . S
N52 N51 1.388 . S
N52 C53 1.346 1_545 S
C53 N52 1.346 1_565 S
C53 C54 1.396 . S
C53 C63 1.510 . S
C54 C50 1.401 1_565 S
C54 C53 1.396 . S
C55 C50 1.499 . S
C55 H56 0.959 . S
C55 H57 0.960 . S
C55 H58 0.961 . S
H56 C55 0.959 . S
H57 C55 0.960 . S
H58 C55 0.961 . S
O59 Co34 1.967 . S
O59 C67 1.258 . S
O60 Co35 1.941 . S
O60 C67 1.266 . S
H61 C63 0.959 . S
H62 C63 0.961 . S
C63 C53 1.510 . S
C63 H61 0.959 . S
C63 H62 0.961 . S
C63 H64 0.960 . S
H64 C63 0.960 . S
H65 N45 0.862 . S
O66 Co34 1.920 . S
O66 C39 1.289 . S
C67 O59 1.258 . S
C67 O60 1.266 . S
Co68 O71 1.970 . S
Co68 N85 1.989 . S
Co68 O93 1.967 . S
Co68 O100 1.920 1_455 S
Co69 O72 1.966 . S
Co69 N78 2.022 . S
Co69 N86 1.993 . S
Co69 O94 1.941 . S
C70 O71 1.258 . S
C70 O72 1.263 . S
O71 Co68 1.970 . S
O71 C70 1.258 . S
O72 Co69 1.966 . S
O72 C70 1.263 . S
C73 O74 1.235 . S
C73 O100 1.289 . S
O74 C73 1.235 . S
C75 C77 1.400 . S
C75 N78 1.351 . S
C75 C80 1.501 . S
C76 C77 1.387 . S
C76 N79 1.341 . S
C77 C75 1.400 . S
C77 C76 1.387 . S
N78 Co69 2.022 . S
N78 C75 1.351 . S
N78 N79 1.365 . S
N79 C76 1.341 . S
N79 N78 1.365 . S
N79 H99 0.862 . S
C80 C75 1.501 . S
C80 H81 0.961 . S
C80 H82 0.961 . S
C80 H83 0.960 . S
H81 C80 0.961 . S
H82 C80 0.961 . S
H83 C80 0.960 . S
C84 N85 1.342 . S
C84 C88 1.401 . S
C84 C89 1.499 . S
N85 Co68 1.989 . S
N85 C84 1.342 . S
N85 N86 1.388 . S
N86 Co69 1.993 . S
N86 N85 1.388 . S
N86 C87 1.346 . S
C87 N86 1.346 . S
C87 C88 1.396 . S
C87 C97 1.510 . S
C88 C84 1.401 . S
C88 C87 1.396 . S
C89 C84 1.499 . S
C89 H90 0.959 . S
C89 H91 0.960 . S
C89 H92 0.961 . S
H90 C89 0.959 . S
H91 C89 0.960 . S
H92 C89 0.961 . S
O93 Co68 1.967 . S
O93 C101 1.258 . S
O94 Co69 1.941 . S
O94 C101 1.266 . S
H95 C97 0.959 . S
H96 C97 0.961 . S
C97 C87 1.510 . S
C97 H95 0.959 . S
C97 H96 0.961 . S
C97 H98 0.960 . S
H98 C97 0.960 . S
H99 N79 0.862 . S
O100 Co68 1.920 1_655 S
O100 C73 1.289 . S
C101 O93 1.258 . S
C101 O94 1.266 . S
Co102 O105 1.970 1_545 S
Co102 N119 1.989 . S
Co102 O127 1.967 . S
Co102 O134 1.920 1_545 S
Co103 O106 1.966 . S
Co103 N112 2.022 . S
Co103 N120 1.993 . S
Co103 O128 1.941 . S
C104 O105 1.258 1_545 S
C104 O106 1.263 . S
O105 Co102 1.970 1_565 S
O105 C104 1.258 1_565 S
O106 Co103 1.966 . S
O106 C104 1.263 . S
C107 O108 1.235 . S
C107 O134 1.289 . S
O108 C107 1.235 . S
C109 C111 1.400 . S
C109 N112 1.351 . S
C109 C114 1.501 . S
C110 C111 1.387 . S
C110 N113 1.341 . S
C111 C109 1.400 . S
C111 C110 1.387 . S
N112 Co103 2.022 . S
N112 C109 1.351 . S
N112 N113 1.365 . S
N113 C110 1.341 . S
N113 N112 1.365 . S
N113 H133 0.862 . S
C114 C109 1.501 . S
C114 H115 0.961 . S
C114 H116 0.961 . S
C114 H117 0.960 . S
H115 C114 0.961 . S
H116 C114 0.961 . S
H117 C114 0.960 . S
C118 N119 1.342 . S
C118 C122 1.401 . S
C118 C123 1.499 . S
N119 Co102 1.989 . S
N119 C118 1.342 . S
N119 N120 1.388 . S
N120 Co103 1.993 . S
N120 N119 1.388 . S
N120 C121 1.346 . S
C121 N120 1.346 . S
C121 C122 1.396 . S
C121 C131 1.510 . S
C122 C118 1.401 . S
C122 C121 1.396 . S
C123 C118 1.499 . S
C123 H124 0.959 . S
C123 H125 0.960 . S
C123 H126 0.961 . S
H124 C123 0.959 . S
H125 C123 0.960 . S
H126 C123 0.961 . S
O127 Co102 1.967 . S
O127 C135 1.258 . S
O128 Co103 1.941 . S
O128 C135 1.266 . S
H129 C131 0.959 . S
H130 C131 0.961 . S
C131 C121 1.510 . S
C131 H129 0.959 . S
C131 H130 0.961 . S
C131 H132 0.960 . S
H132 C131 0.960 . S
H133 N113 0.862 . S
O134 Co102 1.920 1_565 S
O134 C107 1.289 . S
C135 O127 1.258 . S
C135 O128 1.266 . S
Co136 O139 1.970 1_455 S
Co136 N153 1.989 . S
Co136 O161 1.967 . S
Co136 O168 1.920 1_455 S
Co137 O140 1.966 . S
Co137 N146 2.022 . S
Co137 N154 1.993 . S
Co137 O162 1.941 . S
C138 O139 1.263 . S
C138 O140 1.251 1_655 S
O139 Co136 1.970 1_655 S
O139 C138 1.263 . S
O140 Co137 1.966 . S
O140 C138 1.251 1_455 S
C141 O142 1.235 . S
C141 O168 1.289 . S
O142 C141 1.235 . S
C143 C145 1.400 . S
C143 N146 1.351 . S
C143 C148 1.501 . S
C144 C145 1.387 . S
C144 N147 1.341 . S
C145 C143 1.400 . S
C145 C144 1.387 . S
N146 Co137 2.022 . S
N146 C143 1.351 . S
N146 N147 1.365 . S
N147 C144 1.341 . S
N147 N146 1.365 . S
N147 H167 0.862 . S
C148 C143 1.501 . S
C148 H149 0.961 . S
C148 H150 0.961 . S
C148 H151 0.960 . S
H149 C148 0.961 . S
H150 C148 0.961 . S
H151 C148 0.960 . S
C152 N153 1.342 . S
C152 C156 1.401 . S
C152 C157 1.499 . S
N153 Co136 1.989 . S
N153 C152 1.342 . S
N153 N154 1.388 . S
N154 Co137 1.993 . S
N154 N153 1.388 . S
N154 C155 1.346 . S
C155 N154 1.346 . S
C155 C156 1.396 . S
C155 C165 1.510 . S
C156 C152 1.401 . S
C156 C155 1.396 . S
C157 C152 1.499 . S
C157 H158 0.959 . S
C157 H159 0.960 . S
C157 H160 0.961 . S
H158 C157 0.959 . S
H159 C157 0.960 . S
H160 C157 0.961 . S
O161 Co136 1.967 . S
O161 C169 1.258 . S
O162 Co137 1.941 . S
O162 C169 1.266 . S
H163 C165 0.959 . S
H164 C165 0.961 . S
C165 C155 1.510 . S
C165 H163 0.959 . S
C165 H164 0.961 . S
C165 H166 0.960 . S
H166 C165 0.960 . S
H167 N147 0.862 . S
O168 Co136 1.920 1_655 S
O168 C141 1.289 . S
C169 O161 1.258 . S
C169 O162 1.266 . S
Co170 O173 1.970 . S
Co170 N187 1.989 . S
Co170 O195 1.967 . S
Co170 O202 1.920 . S
Co171 O174 1.966 . S
Co171 N180 2.022 . S
Co171 N188 1.993 . S
Co171 O196 1.941 . S
C172 O173 1.258 . S
C172 O174 1.263 . S
O173 Co170 1.970 . S
O173 C172 1.258 . S
O174 Co171 1.966 . S
O174 C172 1.263 . S
C175 O176 1.235 . S
C175 O202 1.289 . S
O176 C175 1.235 . S
C177 C179 1.400 1_545 S
C177 N180 1.351 . S
C177 C182 1.501 . S
C178 C179 1.387 . S
C178 N181 1.341 . S
C179 C177 1.400 1_565 S
C179 C178 1.387 . S
N180 Co171 2.022 . S
N180 C177 1.351 . S
N180 N181 1.365 1_545 S
N181 C178 1.341 . S
N181 N180 1.365 1_565 S
N181 H201 0.862 . S
C182 C177 1.501 . S
C182 H183 0.961 . S
C182 H184 0.961 . S
C182 H185 0.960 . S
H183 C182 0.961 . S
H184 C182 0.961 . S
H185 C182 0.960 . S
C186 N187 1.342 . S
C186 C190 1.401 . S
C186 C191 1.499 . S
N187 Co170 1.989 . S
N187 C186 1.342 . S
N187 N188 1.388 . S
N188 Co171 1.993 . S
N188 N187 1.388 . S
N188 C189 1.346 . S
C189 N188 1.346 . S
C189 C190 1.396 . S
C189 C199 1.510 1_545 S
C190 C186 1.401 . S
C190 C189 1.396 . S
C191 C186 1.499 . S
C191 H192 0.959 . S
C191 H193 0.960 . S
C191 H194 0.961 . S
H192 C191 0.959 . S
H193 C191 0.960 . S
H194 C191 0.961 . S
O195 Co170 1.967 . S
O195 C203 1.258 . S
O196 Co171 1.941 . S
O196 C203 1.266 . S
H197 C199 0.959 . S
H198 C199 0.961 . S
C199 C189 1.510 1_565 S
C199 H197 0.959 . S
C199 H198 0.961 . S
C199 H200 0.960 . S
H200 C199 0.960 . S
H201 N181 0.862 . S
O202 Co170 1.920 . S
O202 C175 1.289 . S
C203 O195 1.258 . S
C203 O196 1.266 . S
Co204 O207 1.970 1_455 S
Co204 N221 1.989 . S
Co204 O229 1.967 . S
Co204 O236 1.920 1_455 S
Co205 O208 1.966 . S
Co205 N214 2.022 . S
Co205 N222 1.993 . S
Co205 O230 1.941 . S
C206 O207 1.258 . S
C206 O208 1.263 1_655 S
O207 Co204 1.970 1_655 S
O207 C206 1.258 . S
O208 Co205 1.966 . S
O208 C206 1.263 1_455 S
C209 O210 1.235 . S
C209 O236 1.289 . S
O210 C209 1.235 . S
C211 C213 1.400 . S
C211 N214 1.351 . S
C211 C216 1.501 . S
C212 C213 1.387 . S
C212 N215 1.341 . S
C213 C211 1.400 . S
C213 C212 1.387 . S
N214 Co205 2.022 . S
N214 C211 1.351 . S
N214 N215 1.365 . S
N215 C212 1.341 . S
N215 N214 1.365 . S
N215 H235 0.862 . S
C216 C211 1.501 . S
C216 H217 0.961 . S
C216 H218 0.961 . S
C216 H219 0.960 . S
H217 C216 0.961 . S
H218 C216 0.961 . S
H219 C216 0.960 . S
C220 N221 1.342 . S
C220 C224 1.401 . S
C220 C225 1.499 . S
N221 Co204 1.989 . S
N221 C220 1.342 . S
N221 N222 1.388 . S
N222 Co205 1.993 . S
N222 N221 1.388 . S
N222 C223 1.346 . S
C223 N222 1.346 . S
C223 C224 1.396 . S
C223 C233 1.510 . S
C224 C220 1.401 . S
C224 C223 1.396 . S
C225 C220 1.499 . S
C225 H226 0.959 . S
C225 H227 0.960 . S
C225 H228 0.961 . S
H226 C225 0.959 . S
H227 C225 0.960 . S
H228 C225 0.961 . S
O229 Co204 1.967 . S
O229 C237 1.258 . S
O230 Co205 1.941 . S
O230 C237 1.266 . S
H231 C233 0.959 . S
H232 C233 0.961 . S
C233 C223 1.510 . S
C233 H231 0.959 . S
C233 H232 0.961 . S
C233 H234 0.960 . S
H234 C233 0.960 . S
H235 N215 0.862 . S
O236 Co204 1.920 1_655 S
O236 C209 1.289 . S
C237 O229 1.258 . S
C237 O230 1.266 . S
Co238 O241 1.970 . S
Co238 N255 1.989 . S
Co238 O263 1.967 . S
Co238 O270 1.920 . S
Co239 O242 1.966 . S
Co239 N248 2.022 1_545 S
Co239 N256 1.993 . S
Co239 O264 1.941 . S
C240 O241 1.258 . S
C240 O242 1.263 . S
O241 Co238 1.970 . S
O241 C240 1.258 . S
O242 Co239 1.966 . S
O242 C240 1.263 . S
C243 O244 1.235 . S
C243 O270 1.289 . S
O244 C243 1.235 . S
C245 C247 1.400 . S
C245 N248 1.351 . S
C245 C250 1.501 1_565 S
C246 C247 1.387 . S
C246 N249 1.341 . S
C247 C245 1.400 . S
C247 C246 1.387 . S
N248 Co239 2.022 1_565 S
N248 C245 1.351 . S
N248 N249 1.365 . S
N249 C246 1.341 . S
N249 N248 1.365 . S
N249 H269 0.862 . S
C250 C245 1.501 1_545 S
C250 H251 0.961 . S
C250 H252 0.961 . S
C250 H253 0.960 . S
H251 C250 0.961 . S
H252 C250 0.961 . S
H253 C250 0.960 . S
C254 N255 1.342 . S
C254 C258 1.401 1_545 S
C254 C259 1.499 . S
N255 Co238 1.989 . S
N255 C254 1.342 . S
N255 N256 1.388 . S
N256 Co239 1.993 . S
N256 N255 1.388 . S
N256 C257 1.346 1_545 S
C257 N256 1.346 1_565 S
C257 C258 1.396 . S
C257 C267 1.510 . S
C258 C254 1.401 1_565 S
C258 C257 1.396 . S
C259 C254 1.499 . S
C259 H260 0.959 . S
C259 H261 0.960 . S
C259 H262 0.961 . S
H260 C259 0.959 . S
H261 C259 0.960 . S
H262 C259 0.961 . S
O263 Co238 1.967 . S
O263 C271 1.258 . S
O264 Co239 1.941 . S
O264 C271 1.266 . S
H265 C267 0.959 . S
H266 C267 0.961 . S
C267 C257 1.510 . S
C267 H265 0.959 . S
C267 H266 0.961 . S
C267 H268 0.960 . S
H268 C267 0.960 . S
H269 N249 0.862 . S
O270 Co238 1.920 . S
O270 C243 1.289 . S
C271 O263 1.258 . S
C271 O264 1.266 . S
Co272 O275 1.970 . S
Co272 N289 1.989 . S
Co272 O297 1.967 . S
Co272 O304 1.920 . S
Co273 O276 1.966 . S
Co273 N282 2.022 . S
Co273 N290 1.993 . S
Co273 O298 1.941 . S
C274 O275 1.258 . S
C274 O276 1.263 . S
O275 Co272 1.970 . S
O275 C274 1.258 . S
O276 Co273 1.966 . S
O276 C274 1.263 . S
C277 O278 1.234 1_556 S
C277 O304 1.287 1_556 S
O278 C277 1.234 1_554 S
C279 C281 1.400 . S
C279 N282 1.351 . S
C279 C284 1.501 . S
C280 C281 1.387 . S
C280 N283 1.341 . S
C281 C279 1.400 . S
C281 C280 1.387 . S
N282 Co273 2.022 . S
N282 C279 1.351 . S
N282 N283 1.365 . S
N283 C280 1.341 . S
N283 N282 1.365 . S
N283 H303 0.862 . S
C284 C279 1.501 . S
C284 H285 0.961 . S
C284 H286 0.961 . S
C284 H287 0.960 . S
H285 C284 0.961 . S
H286 C284 0.961 . S
H287 C284 0.960 . S
C288 N289 1.342 . S
C288 C292 1.401 . S
C288 C293 1.499 . S
N289 Co272 1.989 . S
N289 C288 1.342 . S
N289 N290 1.388 . S
N290 Co273 1.993 . S
N290 N289 1.388 . S
N290 C291 1.346 . S
C291 N290 1.346 . S
C291 C292 1.396 . S
C291 C301 1.510 . S
C292 C288 1.401 . S
C292 C291 1.396 . S
C293 C288 1.499 . S
C293 H294 0.959 . S
C293 H295 0.960 . S
C293 H296 0.961 . S
H294 C293 0.959 . S
H295 C293 0.960 . S
H296 C293 0.961 . S
O297 Co272 1.967 . S
O297 C305 1.258 . S
O298 Co273 1.941 . S
O298 C305 1.266 . S
H299 C301 0.959 . S
H300 C301 0.961 . S
C301 C291 1.510 . S
C301 H299 0.959 . S
C301 H300 0.961 . S
C301 H302 0.960 . S
H302 C301 0.960 . S
H303 N283 0.862 . S
O304 Co272 1.920 . S
O304 C277 1.287 1_554 S
C305 O297 1.258 . S
C305 O298 1.266 . S
Co306 O309 1.970 . S
Co306 N323 1.989 . S
Co306 O331 1.967 . S
Co306 O338 1.920 . S
Co307 O310 1.966 . S
Co307 N316 2.022 1_554 S
Co307 N324 1.993 . S
Co307 O332 1.941 . S
C308 O309 1.258 . S
C308 O310 1.263 . S
O309 Co306 1.970 . S
O309 C308 1.258 . S
O310 Co307 1.966 . S
O310 C308 1.263 . S
C311 O312 1.235 . S
C311 O338 1.289 . S
O312 C311 1.235 . S
C313 C315 1.400 . S
C313 N316 1.351 . S
C313 C318 1.501 1_556 S
C314 C315 1.387 . S
C314 N317 1.341 . S
C315 C313 1.400 . S
C315 C314 1.387 . S
N316 Co307 2.022 1_556 S
N316 C313 1.351 . S
N316 N317 1.365 . S
N317 C314 1.341 . S
N317 N316 1.365 . S
N317 H337 0.862 . S
C318 C313 1.501 1_554 S
C318 H319 0.961 . S
C318 H320 0.961 . S
C318 H321 0.960 . S
H319 C318 0.961 . S
H320 C318 0.961 . S
H321 C318 0.960 . S
C322 N323 1.342 . S
C322 C326 1.401 1_554 S
C322 C327 1.499 . S
N323 Co306 1.989 . S
N323 C322 1.342 . S
N323 N324 1.388 . S
N324 Co307 1.993 . S
N324 N323 1.388 . S
N324 C325 1.346 1_554 S
C325 N324 1.346 1_556 S
C325 C326 1.396 . S
C325 C335 1.510 . S
C326 C322 1.401 1_556 S
C326 C325 1.396 . S
C327 C322 1.499 . S
C327 H328 0.959 . S
C327 H329 0.960 . S
C327 H330 0.961 . S
H328 C327 0.959 . S
H329 C327 0.960 . S
H330 C327 0.961 . S
O331 Co306 1.967 . S
O331 C339 1.258 . S
O332 Co307 1.941 . S
O332 C339 1.266 . S
H333 C335 0.959 . S
H334 C335 0.961 . S
C335 C325 1.510 . S
C335 H333 0.959 . S
C335 H334 0.961 . S
C335 H336 0.960 . S
H336 C335 0.960 . S
H337 N317 0.862 . S
O338 Co306 1.920 . S
O338 C311 1.289 . S
C339 O331 1.258 . S
C339 O332 1.266 . S
Co340 O343 1.970 . S
Co340 N357 1.989 . S
Co340 O365 1.967 . S
Co340 O372 1.920 1_554 S
Co341 O344 1.966 . S
Co341 N350 2.022 . S
Co341 N358 1.993 . S
Co341 O366 1.941 . S
C342 O343 1.258 . S
C342 O344 1.263 . S
O343 Co340 1.970 . S
O343 C342 1.258 . S
O344 Co341 1.966 . S
O344 C342 1.263 . S
C345 O346 1.235 . S
C345 O372 1.289 . S
O346 C345 1.235 . S
C347 C349 1.400 . S
C347 N350 1.351 . S
C347 C352 1.501 . S
C348 C349 1.387 . S
C348 N351 1.341 . S
C349 C347 1.400 . S
C349 C348 1.387 . S
N350 Co341 2.022 . S
N350 C347 1.351 . S
N350 N351 1.365 . S
N351 C348 1.341 . S
N351 N350 1.365 . S
N351 H371 0.862 . S
C352 C347 1.501 . S
C352 H353 0.961 . S
C352 H354 0.961 . S
C352 H355 0.960 . S
H353 C352 0.961 . S
H354 C352 0.961 . S
H355 C352 0.960 . S
C356 N357 1.342 . S
C356 C360 1.401 . S
C356 C361 1.499 . S
N357 Co340 1.989 . S
N357 C356 1.342 . S
N357 N358 1.388 . S
N358 Co341 1.993 . S
N358 N357 1.388 . S
N358 C359 1.346 . S
C359 N358 1.346 . S
C359 C360 1.396 . S
C359 C369 1.510 . S
C360 C356 1.401 . S
C360 C359 1.396 . S
C361 C356 1.499 . S
C361 H362 0.959 . S
C361 H363 0.960 . S
C361 H364 0.961 . S
H362 C361 0.959 . S
H363 C361 0.960 . S
H364 C361 0.961 . S
O365 Co340 1.967 . S
O365 C373 1.258 . S
O366 Co341 1.941 . S
O366 C373 1.266 . S
H367 C369 0.959 . S
H368 C369 0.961 . S
C369 C359 1.510 . S
C369 H367 0.959 . S
C369 H368 0.961 . S
C369 H370 0.960 . S
H370 C369 0.960 . S
H371 N351 0.862 . S
O372 Co340 1.920 1_556 S
O372 C345 1.289 . S
C373 O365 1.258 . S
C373 O366 1.266 . S
Co374 O377 1.970 . S
Co374 N391 1.989 . S
Co374 O399 1.967 . S
Co374 O406 1.920 . S
Co375 O378 1.966 . S
Co375 N384 2.022 1_554 S
Co375 N392 1.993 . S
Co375 O400 1.941 . S
C376 O377 1.258 . S
C376 O378 1.263 . S
O377 Co374 1.970 . S
O377 C376 1.258 . S
O378 Co375 1.966 . S
O378 C376 1.263 . S
C379 O380 1.235 . S
C379 O406 1.289 . S
O380 C379 1.235 . S
C381 C383 1.400 . S
C381 N384 1.351 . S
C381 C386 1.501 . S
C382 C383 1.387 . S
C382 N385 1.341 . S
C383 C381 1.400 . S
C383 C382 1.387 . S
N384 Co375 2.022 1_556 S
N384 C381 1.351 . S
N384 N385 1.365 . S
N385 C382 1.341 . S
N385 N384 1.365 . S
N385 H405 0.862 . S
C386 C381 1.501 . S
C386 H387 0.961 1_556 S
C386 H388 0.961 . S
C386 H389 0.960 . S
H387 C386 0.961 1_554 S
H388 C386 0.961 . S
H389 C386 0.960 . S
C390 N391 1.342 . S
C390 C394 1.401 1_554 S
C390 C395 1.499 . S
N391 Co374 1.989 . S
N391 C390 1.342 . S
N391 N392 1.388 . S
N392 Co375 1.993 . S
N392 N391 1.388 . S
N392 C393 1.346 1_554 S
C393 N392 1.346 1_556 S
C393 C394 1.396 . S
C393 C403 1.510 . S
C394 C390 1.401 1_556 S
C394 C393 1.396 . S
C395 C390 1.499 . S
C395 H396 0.959 . S
C395 H397 0.960 . S
C395 H398 0.961 . S
H396 C395 0.959 . S
H397 C395 0.960 . S
H398 C395 0.961 . S
O399 Co374 1.967 . S
O399 C407 1.258 . S
O400 Co375 1.941 . S
O400 C407 1.266 . S
H401 C403 0.959 . S
H402 C403 0.961 . S
C403 C393 1.510 . S
C403 H401 0.959 . S
C403 H402 0.961 . S
C403 H404 0.960 . S
H404 C403 0.960 . S
H405 N385 0.862 . S
O406 Co374 1.920 . S
O406 C379 1.289 . S
C407 O399 1.258 . S
C407 O400 1.266 . S
Co408 O411 1.970 . S
Co408 N425 1.989 1_655 S
Co408 O433 1.967 . S
Co408 O440 1.920 . S
Co409 O412 1.966 . S
Co409 N418 2.022 . S
Co409 N426 1.993 . S
Co409 O434 1.941 . S
C410 O411 1.258 . S
C410 O412 1.263 1_655 S
O411 Co408 1.970 . S
O411 C410 1.258 . S
O412 Co409 1.966 . S
O412 C410 1.263 1_455 S
C413 O414 1.235 . S
C413 O440 1.289 . S
O414 C413 1.235 . S
C415 C417 1.400 . S
C415 N418 1.351 . S
C415 C420 1.501 . S
C416 C417 1.387 . S
C416 N419 1.341 . S
C417 C415 1.400 . S
C417 C416 1.387 . S
N418 Co409 2.022 . S
N418 C415 1.351 . S
N418 N419 1.365 . S
N419 C416 1.341 . S
N419 N418 1.365 . S
N419 H439 0.862 . S
C420 C415 1.501 . S
C420 H421 0.961 . S
C420 H422 0.961 . S
C420 H423 0.960 . S
H421 C420 0.961 . S
H422 C420 0.961 . S
H423 C420 0.960 . S
C424 N425 1.342 . S
C424 C428 1.401 . S
C424 C429 1.499 . S
N425 Co408 1.989 1_455 S
N425 C424 1.342 . S
N425 N426 1.388 . S
N426 Co409 1.993 . S
N426 N425 1.388 . S
N426 C427 1.346 . S
C427 N426 1.346 . S
C427 C428 1.396 . S
C427 C437 1.510 . S
C428 C424 1.401 . S
C428 C427 1.396 . S
C429 C424 1.499 . S
C429 H430 0.959 . S
C429 H431 0.960 . S
C429 H432 0.961 . S
H430 C429 0.959 . S
H431 C429 0.960 . S
H432 C429 0.961 . S
O433 Co408 1.967 . S
O433 C441 1.258 1_655 S
O434 Co409 1.941 . S
O434 C441 1.266 . S
H435 C437 0.959 . S
H436 C437 0.961 . S
C437 C427 1.510 . S
C437 H435 0.959 . S
C437 H436 0.961 . S
C437 H438 0.960 . S
H438 C437 0.960 . S
H439 N419 0.862 . S
O440 Co408 1.920 . S
O440 C413 1.289 . S
C441 O433 1.258 1_455 S
C441 O434 1.266 . S
Co442 O445 1.970 . S
Co442 N459 1.989 . S
Co442 O467 1.967 . S
Co442 O474 1.920 . S
Co443 O446 1.966 . S
Co443 N452 2.022 . S
Co443 N460 1.993 . S
Co443 O468 1.941 . S
C444 O445 1.258 . S
C444 O446 1.263 . S
O445 Co442 1.970 . S
O445 C444 1.258 . S
O446 Co443 1.966 . S
O446 C444 1.263 . S
C447 O448 1.235 . S
C447 O474 1.289 . S
O448 C447 1.235 . S
C449 C451 1.400 . S
C449 N452 1.351 . S
C449 C454 1.501 . S
C450 C451 1.387 . S
C450 N453 1.341 . S
C451 C449 1.400 . S
C451 C450 1.387 . S
N452 Co443 2.022 . S
N452 C449 1.351 . S
N452 N453 1.365 . S
N453 C450 1.341 . S
N453 N452 1.365 . S
N453 H473 0.862 . S
C454 C449 1.501 . S
C454 H455 0.961 . S
C454 H456 0.961 . S
C454 H457 0.960 . S
H455 C454 0.961 . S
H456 C454 0.961 . S
H457 C454 0.960 . S
C458 N459 1.342 . S
C458 C462 1.401 . S
C458 C463 1.499 . S
N459 Co442 1.989 . S
N459 C458 1.342 . S
N459 N460 1.388 . S
N460 Co443 1.993 . S
N460 N459 1.388 . S
N460 C461 1.346 . S
C461 N460 1.346 . S
C461 C462 1.396 . S
C461 C471 1.510 . S
C462 C458 1.401 . S
C462 C461 1.396 . S
C463 C458 1.499 . S
C463 H464 0.959 . S
C463 H465 0.960 . S
C463 H466 0.961 . S
H464 C463 0.959 . S
H465 C463 0.960 . S
H466 C463 0.961 . S
O467 Co442 1.967 . S
O467 C475 1.258 . S
O468 Co443 1.941 . S
O468 C475 1.266 . S
H469 C471 0.959 . S
H470 C471 0.961 . S
C471 C461 1.510 . S
C471 H469 0.959 . S
C471 H470 0.961 . S
C471 H472 0.960 . S
H472 C471 0.960 . S
H473 N453 0.862 . S
O474 Co442 1.920 . S
O474 C447 1.289 . S
C475 O467 1.258 . S
C475 O468 1.266 . S
Co476 O479 1.970 1_455 S
Co476 N493 1.989 . S
Co476 O501 1.967 . S
Co476 O508 1.920 1_455 S
Co477 O480 1.966 . S
Co477 N486 2.022 . S
Co477 N494 1.993 . S
Co477 O502 1.941 . S
C478 O479 1.258 . S
C478 O480 1.263 1_655 S
O479 Co476 1.970 1_655 S
O479 C478 1.258 . S
O480 Co477 1.966 . S
O480 C478 1.263 1_455 S
C481 O482 1.235 . S
C481 O508 1.289 . S
O482 C481 1.235 . S
C483 C485 1.400 . S
C483 N486 1.351 . S
C483 C488 1.501 . S
C484 C485 1.387 . S
C484 N487 1.341 . S
C485 C483 1.400 . S
C485 C484 1.387 . S
N486 Co477 2.022 . S
N486 C483 1.351 . S
N486 N487 1.365 . S
N487 C484 1.341 . S
N487 N486 1.365 . S
N487 H507 0.862 . S
C488 C483 1.501 . S
C488 H489 0.961 . S
C488 H490 0.961 . S
C488 H491 0.960 . S
H489 C488 0.961 . S
H490 C488 0.961 . S
H491 C488 0.960 . S
C492 N493 1.342 . S
C492 C496 1.401 . S
C492 C497 1.499 . S
N493 Co476 1.989 . S
N493 C492 1.342 . S
N493 N494 1.388 . S
N494 Co477 1.993 . S
N494 N493 1.388 . S
N494 C495 1.346 . S
C495 N494 1.346 . S
C495 C496 1.396 . S
C495 C505 1.510 . S
C496 C492 1.401 . S
C496 C495 1.396 . S
C497 C492 1.499 . S
C497 H498 0.959 . S
C497 H499 0.960 . S
C497 H500 0.961 . S
H498 C497 0.959 . S
H499 C497 0.960 . S
H500 C497 0.961 . S
O501 Co476 1.967 . S
O501 C509 1.258 . S
O502 Co477 1.941 . S
O502 C509 1.266 . S
H503 C505 0.959 . S
H504 C505 0.961 . S
C505 C495 1.510 . S
C505 H503 0.959 . S
C505 H504 0.961 . S
C505 H506 0.960 . S
H506 C505 0.960 . S
H507 N487 0.862 . S
O508 Co476 1.920 1_655 S
O508 C481 1.289 . S
C509 O501 1.258 . S
C509 O502 1.266 . S
Co510 O513 1.970 . S
Co510 N527 1.989 . S
Co510 O535 1.967 . S
Co510 O542 1.920 . S
Co511 O514 1.966 . S
Co511 N520 2.022 . S
Co511 N528 1.993 . S
Co511 O536 1.941 . S
C512 O513 1.258 . S
C512 O514 1.263 . S
O513 Co510 1.970 . S
O513 C512 1.258 . S
O514 Co511 1.966 . S
O514 C512 1.263 . S
C515 O516 1.235 . S
C515 O542 1.289 . S
O516 C515 1.235 . S
C517 C519 1.400 . S
C517 N520 1.351 . S
C517 C522 1.501 . S
C518 C519 1.387 . S
C518 N521 1.341 . S
C519 C517 1.400 . S
C519 C518 1.387 . S
N520 Co511 2.022 . S
N520 C517 1.351 . S
N520 N521 1.365 . S
N521 C518 1.341 . S
N521 N520 1.365 . S
N521 H541 0.862 . S
C522 C517 1.501 . S
C522 H523 0.961 . S
C522 H524 0.961 . S
C522 H525 0.960 . S
H523 C522 0.961 . S
H524 C522 0.961 . S
H525 C522 0.960 . S
C526 N527 1.342 . S
C526 C530 1.401 . S
C526 C531 1.499 . S
N527 Co510 1.989 . S
N527 C526 1.342 . S
N527 N528 1.388 . S
N528 Co511 1.993 . S
N528 N527 1.388 . S
N528 C529 1.346 . S
C529 N528 1.346 . S
C529 C530 1.396 . S
C529 C539 1.510 . S
C530 C526 1.401 . S
C530 C529 1.396 . S
C531 C526 1.499 . S
C531 H532 0.959 . S
C531 H533 0.960 . S
C531 H534 0.961 . S
H532 C531 0.959 . S
H533 C531 0.960 . S
H534 C531 0.961 . S
O535 Co510 1.967 . S
O535 C543 1.258 . S
O536 Co511 1.941 . S
O536 C543 1.266 . S
H537 C539 0.959 . S
H538 C539 0.961 . S
C539 C529 1.510 . S
C539 H537 0.959 . S
C539 H538 0.961 . S
C539 H540 0.960 . S
H540 C539 0.960 . S
H541 N521 0.862 . S
O542 Co510 1.920 . S
O542 C515 1.289 . S
C543 O535 1.258 . S
C543 O536 1.266 . S
Co544 O547 1.970 . S
Co544 N561 1.989 . S
Co544 O569 1.967 . S
Co544 O576 1.920 . S
Co545 O548 1.966 . S
Co545 N554 2.022 . S
Co545 N562 1.993 . S
Co545 O570 1.941 . S
C546 O547 1.258 . S
C546 O548 1.263 . S
O547 Co544 1.970 . S
O547 C546 1.258 . S
O548 Co545 1.966 . S
O548 C546 1.263 . S
C549 O550 1.235 . S
C549 O576 1.289 1_655 S
O550 C549 1.235 . S
C551 C553 1.400 . S
C551 N554 1.351 . S
C551 C556 1.501 . S
C552 C553 1.387 . S
C552 N555 1.341 . S
C553 C551 1.400 . S
C553 C552 1.387 . S
N554 Co545 2.022 . S
N554 C551 1.351 . S
N554 N555 1.365 . S
N555 C552 1.341 . S
N555 N554 1.365 . S
N555 H575 0.862 . S
C556 C551 1.501 . S
C556 H557 0.961 . S
C556 H558 0.961 . S
C556 H559 0.960 . S
H557 C556 0.961 . S
H558 C556 0.961 . S
H559 C556 0.960 . S
C560 N561 1.342 . S
C560 C564 1.401 . S
C560 C565 1.499 . S
N561 Co544 1.989 . S
N561 C560 1.342 . S
N561 N562 1.388 . S
N562 Co545 1.993 . S
N562 N561 1.388 . S
N562 C563 1.346 . S
C563 N562 1.346 . S
C563 C564 1.396 . S
C563 C573 1.510 . S
C564 C560 1.401 . S
C564 C563 1.396 . S
C565 C560 1.499 . S
C565 H566 0.959 . S
C565 H567 0.960 . S
C565 H568 0.961 . S
H566 C565 0.959 . S
H567 C565 0.960 . S
H568 C565 0.961 . S
O569 Co544 1.967 . S
O569 C577 1.258 . S
O570 Co545 1.941 . S
O570 C577 1.266 . S
H571 C573 0.959 . S
H572 C573 0.961 . S
C573 C563 1.510 . S
C573 H571 0.959 . S
C573 H572 0.961 . S
C573 H574 0.960 . S
H574 C573 0.960 . S
H575 N555 0.862 . S
O576 Co544 1.920 . S
O576 C549 1.289 1_455 S
C577 O569 1.258 . S
C577 O570 1.266 . S
Co578 O581 1.970 . S
Co578 N595 1.989 . S
Co578 O603 1.967 . S
Co578 O610 1.920 . S
Co579 O582 1.966 . S
Co579 N588 2.022 . S
Co579 N596 1.993 . S
Co579 O604 1.941 . S
C580 O581 1.258 . S
C580 O582 1.263 . S
O581 Co578 1.970 . S
O581 C580 1.258 . S
O582 Co579 1.966 . S
O582 C580 1.263 . S
C583 O584 1.235 . S
C583 O610 1.289 . S
O584 C583 1.235 . S
C585 C587 1.400 . S
C585 N588 1.351 . S
C585 C590 1.501 . S
C586 C587 1.387 . S
C586 N589 1.341 . S
C587 C585 1.400 . S
C587 C586 1.387 . S
N588 Co579 2.022 . S
N588 C585 1.351 . S
N588 N589 1.365 . S
N589 C586 1.341 . S
N589 N588 1.365 . S
N589 H609 0.862 . S
C590 C585 1.501 . S
C590 H591 0.961 . S
C590 H592 0.961 . S
C590 H593 0.960 . S
H591 C590 0.961 . S
H592 C590 0.961 . S
H593 C590 0.960 . S
C594 N595 1.342 . S
C594 C598 1.401 . S
C594 C599 1.499 . S
N595 Co578 1.989 . S
N595 C594 1.342 . S
N595 N596 1.388 . S
N596 Co579 1.993 . S
N596 N595 1.388 . S
N596 C597 1.346 . S
C597 N596 1.346 . S
C597 C598 1.396 . S
C597 C607 1.510 . S
C598 C594 1.401 . S
C598 C597 1.396 . S
C599 C594 1.499 . S
C599 H600 0.959 . S
C599 H601 0.960 . S
C599 H602 0.961 . S
H600 C599 0.959 . S
H601 C599 0.960 . S
H602 C599 0.961 . S
O603 Co578 1.967 . S
O603 C611 1.258 . S
O604 Co579 1.941 . S
O604 C611 1.266 . S
H605 C607 0.959 . S
H606 C607 0.961 . S
C607 C597 1.510 . S
C607 H605 0.959 . S
C607 H606 0.961 . S
C607 H608 0.960 . S
H608 C607 0.960 . S
H609 N589 0.862 . S
O610 Co578 1.920 . S
O610 C583 1.289 . S
C611 O603 1.258 . S
C611 O604 1.266 . S
Co612 O615 1.970 1_455 S
Co612 N629 1.989 . S
Co612 O637 1.967 . S
Co612 O644 1.920 1_455 S
Co613 O616 1.966 . S
Co613 N622 2.022 . S
Co613 N630 1.993 . S
Co613 O638 1.941 . S
C614 O615 1.258 1_455 S
C614 O616 1.263 . S
O615 Co612 1.970 1_655 S
O615 C614 1.258 1_655 S
O616 Co613 1.966 . S
O616 C614 1.263 . S
C617 O618 1.235 . S
C617 O644 1.289 . S
O618 C617 1.235 . S
C619 C621 1.400 . S
C619 N622 1.351 . S
C619 C624 1.501 . S
C620 C621 1.387 . S
C620 N623 1.341 . S
C621 C619 1.400 . S
C621 C620 1.387 . S
N622 Co613 2.022 . S
N622 C619 1.351 . S
N622 N623 1.365 . S
N623 C620 1.341 . S
N623 N622 1.365 . S
N623 H643 0.862 . S
C624 C619 1.501 . S
C624 H625 0.961 . S
C624 H626 0.961 . S
C624 H627 0.960 . S
H625 C624 0.961 . S
H626 C624 0.961 . S
H627 C624 0.960 . S
C628 N629 1.342 . S
C628 C632 1.401 . S
C628 C633 1.499 . S
N629 Co612 1.989 . S
N629 C628 1.342 . S
N629 N630 1.388 . S
N630 Co613 1.993 . S
N630 N629 1.388 . S
N630 C631 1.346 . S
C631 N630 1.346 . S
C631 C632 1.396 . S
C631 C641 1.510 . S
C632 C628 1.401 . S
C632 C631 1.396 . S
C633 C628 1.499 . S
C633 H634 0.959 . S
C633 H635 0.960 . S
C633 H636 0.961 . S
H634 C633 0.959 . S
H635 C633 0.960 . S
H636 C633 0.961 . S
O637 Co612 1.967 . S
O637 C645 1.258 . S
O638 Co613 1.941 . S
O638 C645 1.266 . S
H639 C641 0.959 . S
H640 C641 0.961 . S
C641 C631 1.510 . S
C641 H639 0.959 . S
C641 H640 0.961 . S
C641 H642 0.960 . S
H642 C641 0.960 . S
H643 N623 0.862 . S
O644 Co612 1.920 1_655 S
O644 C617 1.289 . S
C645 O637 1.258 . S
C645 O638 1.266 . S
Co646 O649 1.970 . S
Co646 N663 1.989 . S
Co646 O671 1.967 . S
Co646 O678 1.920 . S
Co647 O650 1.966 . S
Co647 N656 2.022 . S
Co647 N664 1.993 . S
Co647 O672 1.941 . S
C648 O649 1.258 . S
C648 O650 1.263 . S
O649 Co646 1.970 . S
O649 C648 1.258 . S
O650 Co647 1.966 . S
O650 C648 1.263 . S
C651 O652 1.235 . S
C651 O678 1.289 . S
O652 C651 1.235 . S
C653 C655 1.400 . S
C653 N656 1.351 . S
C653 C658 1.501 . S
C654 C655 1.387 . S
C654 N657 1.341 . S
C655 C653 1.400 . S
C655 C654 1.387 . S
N656 Co647 2.022 . S
N656 C653 1.351 . S
N656 N657 1.365 . S
N657 C654 1.341 . S
N657 N656 1.365 . S
N657 H677 0.862 . S
C658 C653 1.501 . S
C658 H659 0.961 . S
C658 H660 0.961 . S
C658 H661 0.960 . S
H659 C658 0.961 . S
H660 C658 0.961 . S
H661 C658 0.960 . S
C662 N663 1.342 . S
C662 C666 1.401 . S
C662 C667 1.499 . S
N663 Co646 1.989 . S
N663 C662 1.342 . S
N663 N664 1.388 . S
N664 Co647 1.993 . S
N664 N663 1.388 . S
N664 C665 1.346 . S
C665 N664 1.346 . S
C665 C666 1.396 . S
C665 C675 1.510 . S
C666 C662 1.401 . S
C666 C665 1.396 . S
C667 C662 1.499 . S
C667 H668 0.959 . S
C667 H669 0.960 . S
C667 H670 0.961 . S
H668 C667 0.959 . S
H669 C667 0.960 . S
H670 C667 0.961 . S
O671 Co646 1.967 . S
O671 C679 1.258 . S
O672 Co647 1.941 . S
O672 C679 1.266 . S
H673 C675 0.959 . S
H674 C675 0.961 . S
C675 C665 1.510 . S
C675 H673 0.959 . S
C675 H674 0.961 . S
C675 H676 0.960 . S
H676 C675 0.960 . S
H677 N657 0.862 . S
O678 Co646 1.920 . S
O678 C651 1.289 . S
C679 O671 1.258 . S
C679 O672 1.266 . S
Co680 O683 1.970 . S
Co680 N697 1.989 . S
Co680 O705 1.967 . S
Co680 O712 1.920 . S
Co681 O684 1.966 . S
Co681 N690 2.022 . S
Co681 N698 1.993 . S
Co681 O706 1.941 . S
C682 O683 1.258 . S
C682 O684 1.263 . S
O683 Co680 1.970 . S
O683 C682 1.258 . S
O684 Co681 1.966 . S
O684 C682 1.263 . S
C685 O686 1.235 . S
C685 O712 1.289 . S
O686 C685 1.235 . S
C687 C689 1.400 . S
C687 N690 1.351 . S
C687 C692 1.501 . S
C688 C689 1.387 . S
C688 N691 1.341 . S
C689 C687 1.400 . S
C689 C688 1.387 . S
N690 Co681 2.022 . S
N690 C687 1.351 . S
N690 N691 1.365 . S
N691 C688 1.341 . S
N691 N690 1.365 . S
N691 H711 0.862 . S
C692 C687 1.501 . S
C692 H693 0.961 . S
C692 H694 0.961 . S
C692 H695 0.960 . S
H693 C692 0.961 . S
H694 C692 0.961 . S
H695 C692 0.960 . S
C696 N697 1.342 . S
C696 C700 1.401 . S
C696 C701 1.499 . S
N697 Co680 1.989 . S
N697 C696 1.342 . S
N697 N698 1.388 . S
N698 Co681 1.993 . S
N698 N697 1.388 . S
N698 C699 1.346 . S
C699 N698 1.346 . S
C699 C700 1.396 . S
C699 C709 1.510 . S
C700 C696 1.401 . S
C700 C699 1.396 . S
C701 C696 1.499 . S
C701 H702 0.959 . S
C701 H703 0.960 . S
C701 H704 0.961 . S
H702 C701 0.959 . S
H703 C701 0.960 . S
H704 C701 0.961 . S
O705 Co680 1.967 . S
O705 C713 1.258 . S
O706 Co681 1.941 . S
O706 C713 1.266 . S
H707 C709 0.959 . S
H708 C709 0.961 . S
C709 C699 1.510 . S
C709 H707 0.959 . S
C709 H708 0.961 . S
C709 H710 0.960 . S
H710 C709 0.960 . S
H711 N691 0.862 . S
O712 Co680 1.920 . S
O712 C685 1.289 . S
C713 O705 1.258 . S
C713 O706 1.266 . S
Co714 O717 1.970 . S
Co714 N731 1.989 . S
Co714 O739 1.967 . S
Co714 O746 1.920 . S
Co715 O718 1.966 . S
Co715 N724 2.022 . S
Co715 N732 1.993 . S
Co715 O740 1.941 . S
C716 O717 1.258 . S
C716 O718 1.263 . S
O717 Co714 1.970 . S
O717 C716 1.258 . S
O718 Co715 1.966 . S
O718 C716 1.263 . S
C719 O720 1.235 . S
C719 O746 1.289 . S
O720 C719 1.235 . S
C721 C723 1.400 . S
C721 N724 1.351 . S
C721 C726 1.501 . S
C722 C723 1.387 . S
C722 N725 1.341 . S
C723 C721 1.400 . S
C723 C722 1.387 . S
N724 Co715 2.022 . S
N724 C721 1.351 . S
N724 N725 1.365 . S
N725 C722 1.341 . S
N725 N724 1.365 . S
N725 H745 0.862 . S
C726 C721 1.501 . S
C726 H727 0.961 . S
C726 H728 0.961 . S
C726 H729 0.960 . S
H727 C726 0.961 . S
H728 C726 0.961 . S
H729 C726 0.960 . S
C730 N731 1.342 . S
C730 C734 1.401 . S
C730 C735 1.499 . S
N731 Co714 1.989 . S
N731 C730 1.342 . S
N731 N732 1.388 . S
N732 Co715 1.993 . S
N732 N731 1.388 . S
N732 C733 1.346 . S
C733 N732 1.346 . S
C733 C734 1.396 . S
C733 C743 1.510 . S
C734 C730 1.401 . S
C734 C733 1.396 . S
C735 C730 1.499 . S
C735 H736 0.959 . S
C735 H737 0.960 . S
C735 H738 0.961 . S
H736 C735 0.959 . S
H737 C735 0.960 . S
H738 C735 0.961 . S
O739 Co714 1.967 . S
O739 C747 1.258 . S
O740 Co715 1.941 . S
O740 C747 1.266 . S
H741 C743 0.959 . S
H742 C743 0.961 . S
C743 C733 1.510 . S
C743 H741 0.959 . S
C743 H742 0.961 . S
C743 H744 0.960 . S
H744 C743 0.960 . S
H745 N725 0.862 . S
O746 Co714 1.920 . S
O746 C719 1.289 . S
C747 O739 1.258 . S
C747 O740 1.266 . S
Co748 O751 1.970 . S
Co748 N765 1.989 . S
Co748 O773 1.967 . S
Co748 O780 1.920 . S
Co749 O752 1.966 . S
Co749 N758 2.022 . S
Co749 N766 1.993 . S
Co749 O774 1.941 . S
C750 O751 1.258 . S
C750 O752 1.263 . S
O751 Co748 1.970 . S
O751 C750 1.258 . S
O752 Co749 1.966 . S
O752 C750 1.263 . S
C753 O754 1.235 . S
C753 O780 1.289 . S
O754 C753 1.235 . S
C755 C757 1.400 . S
C755 N758 1.351 . S
C755 C760 1.501 . S
C756 C757 1.387 . S
C756 N759 1.341 . S
C757 C755 1.400 . S
C757 C756 1.387 . S
N758 Co749 2.022 . S
N758 C755 1.351 . S
N758 N759 1.365 . S
N759 C756 1.341 . S
N759 N758 1.365 . S
N759 H779 0.862 . S
C760 C755 1.501 . S
C760 H761 0.961 . S
C760 H762 0.961 . S
C760 H763 0.960 . S
H761 C760 0.961 . S
H762 C760 0.961 . S
H763 C760 0.960 . S
C764 N765 1.342 . S
C764 C768 1.401 . S
C764 C769 1.499 . S
N765 Co748 1.989 . S
N765 C764 1.342 . S
N765 N766 1.388 . S
N766 Co749 1.993 . S
N766 N765 1.388 . S
N766 C767 1.346 . S
C767 N766 1.346 . S
C767 C768 1.396 . S
C767 C777 1.510 . S
C768 C764 1.401 . S
C768 C767 1.396 . S
C769 C764 1.499 . S
C769 H770 0.959 . S
C769 H771 0.960 . S
C769 H772 0.961 . S
H770 C769 0.959 . S
H771 C769 0.960 . S
H772 C769 0.961 . S
O773 Co748 1.967 . S
O773 C781 1.258 . S
O774 Co749 1.941 . S
O774 C781 1.266 . S
H775 C777 0.959 . S
H776 C777 0.961 . S
C777 C767 1.510 . S
C777 H775 0.959 . S
C777 H776 0.961 . S
C777 H778 0.960 . S
H778 C777 0.960 . S
H779 N759 0.862 . S
O780 Co748 1.920 . S
O780 C753 1.289 . S
C781 O773 1.258 . S
C781 O774 1.266 . S
Co782 O785 1.970 . S
Co782 N799 1.989 . S
Co782 O807 1.967 . S
Co782 O814 1.920 . S
Co783 O786 1.966 . S
Co783 N792 2.022 . S
Co783 N800 1.993 . S
Co783 O808 1.941 . S
C784 O785 1.258 . S
C784 O786 1.263 . S
O785 Co782 1.970 . S
O785 C784 1.258 . S
O786 Co783 1.966 . S
O786 C784 1.263 . S
C787 O788 1.235 . S
C787 O814 1.289 . S
O788 C787 1.235 . S
C789 C791 1.400 . S
C789 N792 1.351 . S
C789 C794 1.501 . S
C790 C791 1.387 . S
C790 N793 1.341 . S
C791 C789 1.400 . S
C791 C790 1.387 . S
N792 Co783 2.022 . S
N792 C789 1.351 . S
N792 N793 1.365 . S
N793 C790 1.341 . S
N793 N792 1.365 . S
N793 H813 0.862 . S
C794 C789 1.501 . S
C794 H795 0.961 . S
C794 H796 0.961 . S
C794 H797 0.960 . S
H795 C794 0.961 . S
H796 C794 0.961 . S
H797 C794 0.960 . S
C798 N799 1.342 . S
C798 C802 1.401 . S
C798 C803 1.499 . S
N799 Co782 1.989 . S
N799 C798 1.342 . S
N799 N800 1.388 . S
N800 Co783 1.993 . S
N800 N799 1.388 . S
N800 C801 1.346 . S
C801 N800 1.346 . S
C801 C802 1.396 . S
C801 C811 1.510 . S
C802 C798 1.401 . S
C802 C801 1.396 . S
C803 C798 1.499 . S
C803 H804 0.959 . S
C803 H805 0.960 . S
C803 H806 0.961 . S
H804 C803 0.959 . S
H805 C803 0.960 . S
H806 C803 0.961 . S
O807 Co782 1.967 . S
O807 C815 1.258 . S
O808 Co783 1.941 . S
O808 C815 1.266 . S
H809 C811 0.959 . S
H810 C811 0.961 . S
C811 C801 1.510 . S
C811 H809 0.959 . S
C811 H810 0.961 . S
C811 H812 0.960 . S
H812 C811 0.960 . S
H813 N793 0.862 . S
O814 Co782 1.920 . S
O814 C787 1.289 . S
C815 O807 1.258 . S
C815 O808 1.266 . S
Co816 O819 1.970 . S
Co816 N833 1.989 . S
Co816 O841 1.967 . S
Co816 O848 1.920 . S
Co817 O820 1.966 . S
Co817 N826 2.022 . S
Co817 N834 1.993 . S
Co817 O842 1.941 . S
C818 O819 1.258 . S
C818 O820 1.263 . S
O819 Co816 1.970 . S
O819 C818 1.258 . S
O820 Co817 1.966 . S
O820 C818 1.263 . S
C821 O822 1.235 . S
C821 O848 1.289 . S
O822 C821 1.235 . S
C823 C825 1.400 . S
C823 N826 1.351 . S
C823 C828 1.501 . S
C824 C825 1.387 . S
C824 N827 1.341 . S
C825 C823 1.400 . S
C825 C824 1.387 . S
N826 Co817 2.022 . S
N826 C823 1.351 . S
N826 N827 1.365 . S
N827 C824 1.341 . S
N827 N826 1.365 . S
N827 H847 0.862 . S
C828 C823 1.501 . S
C828 H829 0.961 . S
C828 H830 0.961 . S
C828 H831 0.960 . S
H829 C828 0.961 . S
H830 C828 0.961 . S
H831 C828 0.960 . S
C832 N833 1.342 . S
C832 C836 1.401 . S
C832 C837 1.499 . S
N833 Co816 1.989 . S
N833 C832 1.342 . S
N833 N834 1.388 . S
N834 Co817 1.993 . S
N834 N833 1.388 . S
N834 C835 1.346 . S
C835 N834 1.346 . S
C835 C836 1.396 . S
C835 C845 1.510 . S
C836 C832 1.401 . S
C836 C835 1.396 . S
C837 C832 1.499 . S
C837 H838 0.959 . S
C837 H839 0.960 . S
C837 H840 0.961 . S
H838 C837 0.959 . S
H839 C837 0.960 . S
H840 C837 0.961 . S
O841 Co816 1.967 . S
O841 C849 1.258 . S
O842 Co817 1.941 . S
O842 C849 1.266 . S
H843 C845 0.959 . S
H844 C845 0.961 . S
C845 C835 1.510 . S
C845 H843 0.959 . S
C845 H844 0.961 . S
C845 H846 0.960 . S
H846 C845 0.960 . S
H847 N827 0.862 . S
O848 Co816 1.920 . S
O848 C821 1.289 . S
C849 O841 1.258 . S
C849 O842 1.266 . S
Co850 O853 1.970 . S
Co850 N867 1.989 . S
Co850 O875 1.967 . S
Co850 O882 1.920 . S
Co851 O854 1.966 . S
Co851 N860 2.022 . S
Co851 N868 1.993 . S
Co851 O876 1.941 . S
C852 O853 1.258 . S
C852 O854 1.263 . S
O853 Co850 1.970 . S
O853 C852 1.258 . S
O854 Co851 1.966 . S
O854 C852 1.263 . S
C855 O856 1.235 . S
C855 O882 1.289 . S
O856 C855 1.235 . S
C857 C859 1.400 1_545 S
C857 N860 1.351 . S
C857 C862 1.501 . S
C858 C859 1.387 . S
C858 N861 1.341 . S
C859 C857 1.400 1_565 S
C859 C858 1.387 . S
N860 Co851 2.022 . S
N860 C857 1.351 . S
N860 N861 1.365 1_545 S
N861 C858 1.341 . S
N861 N860 1.365 1_565 S
N861 H881 0.862 . S
C862 C857 1.501 . S
C862 H863 0.961 . S
C862 H864 0.961 . S
C862 H865 0.960 . S
H863 C862 0.961 . S
H864 C862 0.961 . S
H865 C862 0.960 . S
C866 N867 1.342 . S
C866 C870 1.424 . S
C866 C871 1.499 . S
N867 Co850 1.989 . S
N867 C866 1.342 . S
N867 N868 1.388 . S
N868 Co851 1.993 . S
N868 N867 1.388 . S
N868 C869 1.313 1_545 S
C869 N868 1.313 1_565 S
C869 C870 1.388 1_565 S
C869 C879 1.543 . S
C870 C866 1.424 . S
C870 C869 1.388 1_545 S
C871 C866 1.499 . S
C871 H872 0.959 . S
C871 H873 0.960 . S
C871 H874 0.961 . S
H872 C871 0.959 . S
H873 C871 0.960 . S
H874 C871 0.961 . S
O875 Co850 1.967 . S
O875 C883 1.258 . S
O876 Co851 1.941 . S
O876 C883 1.266 . S
H877 C879 0.959 . S
H878 C879 0.961 . S
C879 C869 1.543 . S
C879 H877 0.959 . S
C879 H878 0.961 . S
C879 H880 0.960 . S
H880 C879 0.960 . S
H881 N861 0.862 . S
O882 Co850 1.920 . S
O882 C855 1.289 . S
C883 O875 1.258 . S
C883 O876 1.266 . S
Co884 O887 1.970 . S
Co884 N901 1.989 . S
Co884 O909 1.967 . S
Co884 O916 1.920 . S
Co885 O888 1.966 . S
Co885 N894 2.022 . S
Co885 N902 1.993 . S
Co885 O910 1.941 . S
C886 O887 1.258 . S
C886 O888 1.263 . S
O887 Co884 1.970 . S
O887 C886 1.258 . S
O888 Co885 1.966 . S
O888 C886 1.263 . S
C889 O890 1.235 . S
C889 O916 1.289 . S
O890 C889 1.235 . S
C891 C893 1.400 . S
C891 N894 1.351 . S
C891 C896 1.501 . S
C892 C893 1.387 . S
C892 N895 1.341 . S
C893 C891 1.400 . S
C893 C892 1.387 . S
N894 Co885 2.022 . S
N894 C891 1.351 . S
N894 N895 1.365 . S
N895 C892 1.341 . S
N895 N894 1.365 . S
N895 H915 0.862 . S
C896 C891 1.501 . S
C896 H897 0.961 . S
C896 H898 0.961 . S
C896 H899 0.960 . S
H897 C896 0.961 . S
H898 C896 0.961 . S
H899 C896 0.960 . S
C900 N901 1.342 . S
C900 C904 1.401 . S
C900 C905 1.499 . S
N901 Co884 1.989 . S
N901 C900 1.342 . S
N901 N902 1.388 . S
N902 Co885 1.993 . S
N902 N901 1.388 . S
N902 C903 1.346 . S
C903 N902 1.346 . S
C903 C904 1.396 . S
C903 C913 1.510 . S
C904 C900 1.401 . S
C904 C903 1.396 . S
C905 C900 1.499 . S
C905 H906 0.959 . S
C905 H907 0.960 . S
C905 H908 0.961 . S
H906 C905 0.959 . S
H907 C905 0.960 . S
H908 C905 0.961 . S
O909 Co884 1.967 . S
O909 C917 1.258 . S
O910 Co885 1.941 . S
O910 C917 1.266 . S
H911 C913 0.959 . S
H912 C913 0.961 . S
C913 C903 1.510 . S
C913 H911 0.959 . S
C913 H912 0.961 . S
C913 H914 0.960 . S
H914 C913 0.960 . S
H915 N895 0.862 . S
O916 Co884 1.920 . S
O916 C889 1.289 . S
C917 O909 1.258 . S
C917 O910 1.266 . S
Co918 O921 1.970 . S
Co918 N935 1.989 . S
Co918 O943 1.967 . S
Co918 O950 1.920 1_545 S
Co919 O922 1.966 . S
Co919 N928 2.022 . S
Co919 N936 1.993 . S
Co919 O944 1.941 . S
C920 O921 1.258 . S
C920 O922 1.263 . S
O921 Co918 1.970 . S
O921 C920 1.258 . S
O922 Co919 1.966 . S
O922 C920 1.263 . S
C923 O924 1.235 . S
C923 O950 1.289 . S
O924 C923 1.235 . S
C925 C927 1.400 . S
C925 N928 1.351 . S
C925 C930 1.501 . S
C926 C927 1.387 . S
C926 N929 1.341 . S
C927 C925 1.400 . S
C927 C926 1.387 . S
N928 Co919 2.022 . S
N928 C925 1.351 . S
N928 N929 1.365 . S
N929 C926 1.341 . S
N929 N928 1.365 . S
N929 H949 0.862 . S
C930 C925 1.501 . S
C930 H931 0.961 . S
C930 H932 0.961 . S
C930 H933 0.960 . S
H931 C930 0.961 . S
H932 C930 0.961 . S
H933 C930 0.960 . S
C934 N935 1.342 . S
C934 C938 1.401 . S
C934 C939 1.499 . S
N935 Co918 1.989 . S
N935 C934 1.342 . S
N935 N936 1.388 . S
N936 Co919 1.993 . S
N936 N935 1.388 . S
N936 C937 1.346 . S
C937 N936 1.346 . S
C937 C938 1.396 . S
C937 C947 1.510 . S
C938 C934 1.401 . S
C938 C937 1.396 . S
C939 C934 1.499 . S
C939 H940 0.959 . S
C939 H941 0.960 . S
C939 H942 0.961 . S
H940 C939 0.959 . S
H941 C939 0.960 . S
H942 C939 0.961 . S
O943 Co918 1.967 . S
O943 C951 1.258 . S
O944 Co919 1.941 . S
O944 C951 1.266 . S
H945 C947 0.959 . S
H946 C947 0.961 . S
C947 C937 1.510 . S
C947 H945 0.959 . S
C947 H946 0.961 . S
C947 H948 0.960 . S
H948 C947 0.960 . S
H949 N929 0.862 . S
O950 Co918 1.920 1_565 S
O950 C923 1.289 . S
C951 O943 1.258 . S
C951 O944 1.266 . S
Co952 O955 1.970 . S
Co952 N969 1.989 . S
Co952 O977 1.967 . S
Co952 O984 1.920 . S
Co953 O956 1.966 . S
Co953 N962 2.022 . S
Co953 N970 1.993 . S
Co953 O978 1.941 . S
C954 O955 1.258 . S
C954 O956 1.263 . S
O955 Co952 1.970 . S
O955 C954 1.258 . S
O956 Co953 1.966 . S
O956 C954 1.263 . S
C957 O958 1.235 . S
C957 O984 1.289 . S
O958 C957 1.235 . S
C959 C961 1.400 . S
C959 N962 1.351 . S
C959 C964 1.501 . S
C960 C961 1.387 . S
C960 N963 1.341 . S
C961 C959 1.400 . S
C961 C960 1.387 . S
N962 Co953 2.022 . S
N962 C959 1.351 . S
N962 N963 1.365 . S
N963 C960 1.341 . S
N963 N962 1.365 . S
N963 H983 0.862 . S
C964 C959 1.501 . S
C964 H965 0.961 . S
C964 H966 0.961 . S
C964 H967 0.960 . S
H965 C964 0.961 . S
H966 C964 0.961 . S
H967 C964 0.960 . S
C968 N969 1.342 . S
C968 C972 1.401 . S
C968 C973 1.499 . S
N969 Co952 1.989 . S
N969 C968 1.342 . S
N969 N970 1.388 . S
N970 Co953 1.993 . S
N970 N969 1.388 . S
N970 C971 1.346 . S
C971 N970 1.346 . S
C971 C972 1.396 . S
C971 C981 1.510 . S
C972 C968 1.401 . S
C972 C971 1.396 . S
C973 C968 1.499 . S
C973 H974 0.959 . S
C973 H975 0.960 . S
C973 H976 0.961 . S
H974 C973 0.959 . S
H975 C973 0.960 . S
H976 C973 0.961 . S
O977 Co952 1.967 . S
O977 C985 1.258 . S
O978 Co953 1.941 . S
O978 C985 1.266 . S
H979 C981 0.959 . S
H980 C981 0.961 . S
C981 C971 1.510 . S
C981 H979 0.959 . S
C981 H980 0.961 . S
C981 H982 0.960 . S
H982 C981 0.960 . S
H983 N963 0.862 . S
O984 Co952 1.920 . S
O984 C957 1.289 . S
C985 O977 1.258 . S
C985 O978 1.266 . S
Co986 O989 1.970 . S
Co986 N1003 1.989 . S
Co986 O1011 1.967 . S
Co986 O1018 1.920 . S
Co987 O990 1.966 . S
Co987 N996 2.022 . S
Co987 N1004 1.993 . S
Co987 O1012 1.941 . S
C988 O989 1.258 . S
C988 O990 1.263 . S
O989 Co986 1.970 . S
O989 C988 1.258 . S
O990 Co987 1.966 . S
O990 C988 1.263 . S
C991 O992 1.235 . S
C991 O1018 1.289 . S
O992 C991 1.235 . S
C993 C995 1.400 . S
C993 N996 1.351 1_565 S
C993 C998 1.501 1_565 S
C994 C995 1.387 . S
C994 N997 1.341 . S
C995 C993 1.400 . S
C995 C994 1.387 . S
N996 Co987 2.022 . S
N996 C993 1.351 1_545 S
N996 N997 1.365 1_545 S
N997 C994 1.341 . S
N997 N996 1.365 1_565 S
N997 H1017 0.862 . S
C998 C993 1.501 1_545 S
C998 H999 0.961 . S
C998 H1000 0.961 . S
C998 H1001 0.960 . S
H999 C998 0.961 . S
H1000 C998 0.961 . S
H1001 C998 0.960 . S
C1002 N1003 1.342 . S
C1002 C1006 1.401 . S
C1002 C1007 1.499 . S
N1003 Co986 1.989 . S
N1003 C1002 1.342 . S
N1003 N1004 1.388 . S
N1004 Co987 1.993 . S
N1004 N1003 1.388 . S
N1004 C1005 1.346 . S
C1005 N1004 1.346 . S
C1005 C1006 1.396 . S
C1005 C1015 1.510 1_545 S
C1006 C1002 1.401 . S
C1006 C1005 1.396 . S
C1007 C1002 1.499 . S
C1007 H1008 0.959 . S
C1007 H1009 0.960 . S
C1007 H1010 0.961 . S
H1008 C1007 0.959 . S
H1009 C1007 0.960 . S
H1010 C1007 0.961 . S
O1011 Co986 1.967 . S
O1011 C1019 1.258 . S
O1012 Co987 1.941 . S
O1012 C1019 1.266 . S
H1013 C1015 0.959 . S
H1014 C1015 0.961 . S
C1015 C1005 1.510 1_565 S
C1015 H1013 0.959 . S
C1015 H1014 0.961 . S
C1015 H1016 0.960 . S
H1016 C1015 0.960 . S
H1017 N997 0.862 . S
O1018 Co986 1.920 . S
O1018 C991 1.289 . S
C1019 O1011 1.258 . S
C1019 O1012 1.266 . S
Co1020 O1023 1.970 . S
Co1020 N1037 1.989 . S
Co1020 O1045 1.967 . S
Co1020 O1052 1.920 . S
Co1021 O1024 1.966 . S
Co1021 N1030 2.022 . S
Co1021 N1038 1.993 . S
Co1021 O1046 1.941 . S
C1022 O1023 1.258 . S
C1022 O1024 1.263 . S
O1023 Co1020 1.970 . S
O1023 C1022 1.258 . S
O1024 Co1021 1.966 . S
O1024 C1022 1.263 . S
C1025 O1026 1.235 . S
C1025 O1052 1.289 . S
O1026 C1025 1.235 . S
C1027 C1029 1.400 . S
C1027 N1030 1.351 . S
C1027 C1032 1.501 . S
C1028 C1029 1.387 . S
C1028 N1031 1.341 . S
C1029 C1027 1.400 . S
C1029 C1028 1.387 . S
N1030 Co1021 2.022 . S
N1030 C1027 1.351 . S
N1030 N1031 1.365 . S
N1031 C1028 1.341 . S
N1031 N1030 1.365 . S
N1031 H1051 0.862 . S
C1032 C1027 1.501 . S
C1032 H1033 0.961 . S
C1032 H1034 0.961 . S
C1032 H1035 0.960 . S
H1033 C1032 0.961 . S
H1034 C1032 0.961 . S
H1035 C1032 0.960 . S
C1036 N1037 1.342 . S
C1036 C1040 1.401 . S
C1036 C1041 1.499 . S
N1037 Co1020 1.989 . S
N1037 C1036 1.342 . S
N1037 N1038 1.388 . S
N1038 Co1021 1.993 . S
N1038 N1037 1.388 . S
N1038 C1039 1.346 . S
C1039 N1038 1.346 . S
C1039 C1040 1.396 . S
C1039 C1049 1.510 . S
C1040 C1036 1.401 . S
C1040 C1039 1.396 . S
C1041 C1036 1.499 . S
C1041 H1042 0.959 . S
C1041 H1043 0.960 . S
C1041 H1044 0.961 . S
H1042 C1041 0.959 . S
H1043 C1041 0.960 . S
H1044 C1041 0.961 . S
O1045 Co1020 1.967 . S
O1045 C1053 1.258 . S
O1046 Co1021 1.941 . S
O1046 C1053 1.266 . S
H1047 C1049 0.959 . S
H1048 C1049 0.961 . S
C1049 C1039 1.510 . S
C1049 H1047 0.959 . S
C1049 H1048 0.961 . S
C1049 H1050 0.960 . S
H1050 C1049 0.960 . S
H1051 N1031 0.862 . S
O1052 Co1020 1.920 . S
O1052 C1025 1.289 . S
C1053 O1045 1.258 . S
C1053 O1046 1.266 . S
Co1054 O1057 1.970 . S
Co1054 N1071 1.989 . S
Co1054 O1079 1.967 . S
Co1054 O1086 1.920 . S
Co1055 O1058 1.966 . S
Co1055 N1064 2.022 1_545 S
Co1055 N1072 1.993 . S
Co1055 O1080 1.941 . S
C1056 O1057 1.258 . S
C1056 O1058 1.263 . S
O1057 Co1054 1.970 . S
O1057 C1056 1.258 . S
O1058 Co1055 1.966 . S
O1058 C1056 1.263 . S
C1059 O1060 1.235 . S
C1059 O1086 1.289 . S
O1060 C1059 1.235 . S
C1061 C1063 1.400 . S
C1061 N1064 1.351 . S
C1061 C1066 1.501 1_565 S
C1062 C1063 1.387 . S
C1062 N1065 1.341 . S
C1063 C1061 1.400 . S
C1063 C1062 1.387 . S
N1064 Co1055 2.022 1_565 S
N1064 C1061 1.351 . S
N1064 N1065 1.365 . S
N1065 C1062 1.341 . S
N1065 N1064 1.365 . S
N1065 H1085 0.862 . S
C1066 C1061 1.501 1_545 S
C1066 H1067 0.961 . S
C1066 H1068 0.961 1_545 S
C1066 H1069 0.960 . S
H1067 C1066 0.961 . S
H1068 C1066 0.961 1_565 S
H1069 C1066 0.960 . S
C1070 N1071 1.342 . S
C1070 C1074 1.401 1_545 S
C1070 C1075 1.499 . S
N1071 Co1054 1.989 . S
N1071 C1070 1.342 . S
N1071 N1072 1.388 . S
N1072 Co1055 1.993 . S
N1072 N1071 1.388 . S
N1072 C1073 1.346 1_545 S
C1073 N1072 1.346 1_565 S
C1073 C1074 1.396 . S
C1073 C1083 1.510 . S
C1074 C1070 1.401 1_565 S
C1074 C1073 1.396 . S
C1075 C1070 1.499 . S
C1075 H1076 0.959 . S
C1075 H1077 0.960 . S
C1075 H1078 0.961 . S
H1076 C1075 0.959 . S
H1077 C1075 0.960 . S
H1078 C1075 0.961 . S
O1079 Co1054 1.967 . S
O1079 C1087 1.258 . S
O1080 Co1055 1.941 . S
O1080 C1087 1.266 . S
H1081 C1083 0.959 . S
H1082 C1083 0.961 . S
C1083 C1073 1.510 . S
C1083 H1081 0.959 . S
C1083 H1082 0.961 . S
C1083 H1084 0.960 . S
H1084 C1083 0.960 . S
H1085 N1065 0.862 . S
O1086 Co1054 1.920 . S
O1086 C1059 1.289 . S
C1087 O1079 1.258 . S
C1087 O1080 1.266 . S
Co1088 O1091 1.970 . S
Co1088 N1105 1.989 . S
Co1088 O1113 1.967 . S
Co1088 O1120 1.920 . S
Co1089 O1092 1.966 . S
Co1089 N1098 2.022 . S
Co1089 N1106 1.993 . S
Co1089 O1114 1.941 . S
C1090 O1091 1.258 . S
C1090 O1092 1.263 . S
O1091 Co1088 1.970 . S
O1091 C1090 1.258 . S
O1092 Co1089 1.966 . S
O1092 C1090 1.263 . S
C1093 O1094 1.235 . S
C1093 O1120 1.289 . S
O1094 C1093 1.235 . S
C1095 C1097 1.400 . S
C1095 N1098 1.351 . S
C1095 C1100 1.501 . S
C1096 C1097 1.387 . S
C1096 N1099 1.341 . S
C1097 C1095 1.400 . S
C1097 C1096 1.387 . S
N1098 Co1089 2.022 . S
N1098 C1095 1.351 . S
N1098 N1099 1.365 . S
N1099 C1096 1.341 . S
N1099 N1098 1.365 . S
N1099 H1119 0.862 . S
C1100 C1095 1.501 . S
C1100 H1101 0.961 . S
C1100 H1102 0.961 . S
C1100 H1103 0.960 . S
H1101 C1100 0.961 . S
H1102 C1100 0.961 . S
H1103 C1100 0.960 . S
C1104 N1105 1.342 . S
C1104 C1108 1.401 . S
C1104 C1109 1.499 . S
N1105 Co1088 1.989 . S
N1105 C1104 1.342 . S
N1105 N1106 1.388 . S
N1106 Co1089 1.993 . S
N1106 N1105 1.388 . S
N1106 C1107 1.346 . S
C1107 N1106 1.346 . S
C1107 C1108 1.396 . S
C1107 C1117 1.510 . S
C1108 C1104 1.401 . S
C1108 C1107 1.396 . S
C1109 C1104 1.499 . S
C1109 H1110 0.959 . S
C1109 H1111 0.960 . S
C1109 H1112 0.961 . S
H1110 C1109 0.959 . S
H1111 C1109 0.960 . S
H1112 C1109 0.961 . S
O1113 Co1088 1.967 . S
O1113 C1121 1.258 . S
O1114 Co1089 1.941 . S
O1114 C1121 1.266 . S
H1115 C1117 0.959 . S
H1116 C1117 0.961 . S
C1117 C1107 1.510 . S
C1117 H1115 0.959 . S
C1117 H1116 0.961 . S
C1117 H1118 0.960 . S
H1118 C1117 0.960 . S
H1119 N1099 0.862 . S
O1120 Co1088 1.920 . S
O1120 C1093 1.289 . S
C1121 O1113 1.258 . S
C1121 O1114 1.266 . S
Co1122 O1125 1.970 . S
Co1122 N1139 1.989 . S
Co1122 O1147 1.967 . S
Co1122 O1154 1.920 . S
Co1123 O1126 1.966 . S
Co1123 N1132 2.022 . S
Co1123 N1140 1.993 . S
Co1123 O1148 1.941 . S
C1124 O1125 1.258 . S
C1124 O1126 1.263 . S
O1125 Co1122 1.970 . S
O1125 C1124 1.258 . S
O1126 Co1123 1.966 . S
O1126 C1124 1.263 . S
C1127 O1128 1.235 . S
C1127 O1154 1.289 . S
O1128 C1127 1.235 . S
C1129 C1131 1.400 . S
C1129 N1132 1.351 . S
C1129 C1134 1.501 . S
C1130 C1131 1.387 . S
C1130 N1133 1.341 . S
C1131 C1129 1.400 . S
C1131 C1130 1.387 . S
N1132 Co1123 2.022 . S
N1132 C1129 1.351 . S
N1132 N1133 1.365 . S
N1133 C1130 1.341 . S
N1133 N1132 1.365 . S
N1133 H1153 0.862 . S
C1134 C1129 1.501 . S
C1134 H1135 0.961 . S
C1134 H1136 0.961 . S
C1134 H1137 0.960 . S
H1135 C1134 0.961 . S
H1136 C1134 0.961 . S
H1137 C1134 0.960 . S
C1138 N1139 1.342 . S
C1138 C1142 1.401 . S
C1138 C1143 1.499 . S
N1139 Co1122 1.989 . S
N1139 C1138 1.342 . S
N1139 N1140 1.388 . S
N1140 Co1123 1.993 . S
N1140 N1139 1.388 . S
N1140 C1141 1.346 . S
C1141 N1140 1.346 . S
C1141 C1142 1.396 . S
C1141 C1151 1.510 . S
C1142 C1138 1.401 . S
C1142 C1141 1.396 . S
C1143 C1138 1.499 . S
C1143 H1144 0.959 . S
C1143 H1145 0.960 . S
C1143 H1146 0.961 . S
H1144 C1143 0.959 . S
H1145 C1143 0.960 . S
H1146 C1143 0.961 . S
O1147 Co1122 1.967 . S
O1147 C1155 1.258 . S
O1148 Co1123 1.941 . S
O1148 C1155 1.266 . S
H1149 C1151 0.959 . S
H1150 C1151 0.961 . S
C1151 C1141 1.510 . S
C1151 H1149 0.959 . S
C1151 H1150 0.961 . S
C1151 H1152 0.960 . S
H1152 C1151 0.960 . S
H1153 N1133 0.862 . S
O1154 Co1122 1.920 . S
O1154 C1127 1.289 . S
C1155 O1147 1.258 . S
C1155 O1148 1.266 . S
Co1156 O1159 1.970 . S
Co1156 N1173 1.989 . S
Co1156 O1181 1.967 . S
Co1156 O1188 1.920 . S
Co1157 O1160 1.966 . S
Co1157 N1166 2.022 . S
Co1157 N1174 1.993 . S
Co1157 O1182 1.941 . S
C1158 O1159 1.258 . S
C1158 O1160 1.263 . S
O1159 Co1156 1.970 . S
O1159 C1158 1.258 . S
O1160 Co1157 1.966 . S
O1160 C1158 1.263 . S
C1161 O1162 1.235 . S
C1161 O1188 1.289 . S
O1162 C1161 1.235 . S
C1163 C1165 1.400 . S
C1163 N1166 1.351 . S
C1163 C1168 1.501 . S
C1164 C1165 1.387 . S
C1164 N1167 1.341 . S
C1165 C1163 1.400 . S
C1165 C1164 1.387 . S
N1166 Co1157 2.022 . S
N1166 C1163 1.351 . S
N1166 N1167 1.365 . S
N1167 C1164 1.341 . S
N1167 N1166 1.365 . S
N1167 H1187 0.862 . S
C1168 C1163 1.501 . S
C1168 H1169 0.961 . S
C1168 H1170 0.961 . S
C1168 H1171 0.960 . S
H1169 C1168 0.961 . S
H1170 C1168 0.961 . S
H1171 C1168 0.960 . S
C1172 N1173 1.342 . S
C1172 C1176 1.401 . S
C1172 C1177 1.499 . S
N1173 Co1156 1.989 . S
N1173 C1172 1.342 . S
N1173 N1174 1.388 . S
N1174 Co1157 1.993 . S
N1174 N1173 1.388 . S
N1174 C1175 1.346 . S
C1175 N1174 1.346 . S
C1175 C1176 1.396 . S
C1175 C1185 1.510 . S
C1176 C1172 1.401 . S
C1176 C1175 1.396 . S
C1177 C1172 1.499 . S
C1177 H1178 0.959 . S
C1177 H1179 0.960 . S
C1177 H1180 0.961 . S
H1178 C1177 0.959 . S
H1179 C1177 0.960 . S
H1180 C1177 0.961 . S
O1181 Co1156 1.967 . S
O1181 C1189 1.258 . S
O1182 Co1157 1.941 . S
O1182 C1189 1.266 . S
H1183 C1185 0.959 . S
H1184 C1185 0.961 . S
C1185 C1175 1.510 . S
C1185 H1183 0.959 . S
C1185 H1184 0.961 . S
C1185 H1186 0.960 . S
H1186 C1185 0.960 . S
H1187 N1167 0.862 . S
O1188 Co1156 1.920 . S
O1188 C1161 1.289 . S
C1189 O1181 1.258 . S
C1189 O1182 1.266 . S
Co1190 O1193 1.970 . S
Co1190 N1207 1.989 . S
Co1190 O1215 1.967 . S
Co1190 O1222 1.920 . S
Co1191 O1194 1.966 . S
Co1191 N1200 2.022 . S
Co1191 N1208 1.993 . S
Co1191 O1216 1.941 . S
C1192 O1193 1.258 . S
C1192 O1194 1.263 . S
O1193 Co1190 1.970 . S
O1193 C1192 1.258 . S
O1194 Co1191 1.966 . S
O1194 C1192 1.263 . S
C1195 O1196 1.235 . S
C1195 O1222 1.289 . S
O1196 C1195 1.235 . S
C1197 C1199 1.400 . S
C1197 N1200 1.351 . S
C1197 C1202 1.501 . S
C1198 C1199 1.387 . S
C1198 N1201 1.341 . S
C1199 C1197 1.400 . S
C1199 C1198 1.387 . S
N1200 Co1191 2.022 . S
N1200 C1197 1.351 . S
N1200 N1201 1.365 . S
N1201 C1198 1.341 . S
N1201 N1200 1.365 . S
N1201 H1221 0.862 . S
C1202 C1197 1.501 . S
C1202 H1203 0.961 . S
C1202 H1204 0.961 . S
C1202 H1205 0.960 . S
H1203 C1202 0.961 . S
H1204 C1202 0.961 . S
H1205 C1202 0.960 . S
C1206 N1207 1.342 . S
C1206 C1210 1.401 . S
C1206 C1211 1.499 . S
N1207 Co1190 1.989 . S
N1207 C1206 1.342 . S
N1207 N1208 1.388 . S
N1208 Co1191 1.993 . S
N1208 N1207 1.388 . S
N1208 C1209 1.346 . S
C1209 N1208 1.346 . S
C1209 C1210 1.396 . S
C1209 C1219 1.510 . S
C1210 C1206 1.401 . S
C1210 C1209 1.396 . S
C1211 C1206 1.499 . S
C1211 H1212 0.959 . S
C1211 H1213 0.960 . S
C1211 H1214 0.961 . S
H1212 C1211 0.959 . S
H1213 C1211 0.960 . S
H1214 C1211 0.961 . S
O1215 Co1190 1.967 . S
O1215 C1223 1.258 . S
O1216 Co1191 1.941 . S
O1216 C1223 1.266 . S
H1217 C1219 0.959 . S
H1218 C1219 0.961 . S
C1219 C1209 1.510 . S
C1219 H1217 0.959 . S
C1219 H1218 0.961 . S
C1219 H1220 0.960 . S
H1220 C1219 0.960 . S
H1221 N1201 0.862 . S
O1222 Co1190 1.920 . S
O1222 C1195 1.289 . S
C1223 O1215 1.258 . S
C1223 O1216 1.266 . S
Co1224 O1227 1.970 . S
Co1224 N1241 1.989 . S
Co1224 O1249 1.967 . S
Co1224 O1256 1.920 . S
Co1225 O1228 1.966 . S
Co1225 N1234 2.022 . S
Co1225 N1242 1.993 . S
Co1225 O1250 1.941 . S
C1226 O1227 1.258 . S
C1226 O1228 1.263 . S
O1227 Co1224 1.970 . S
O1227 C1226 1.258 . S
O1228 Co1225 1.966 . S
O1228 C1226 1.263 . S
C1229 O1230 1.235 . S
C1229 O1256 1.289 . S
O1230 C1229 1.235 . S
C1231 C1233 1.400 . S
C1231 N1234 1.351 . S
C1231 C1236 1.501 . S
C1232 C1233 1.387 . S
C1232 N1235 1.341 . S
C1233 C1231 1.400 . S
C1233 C1232 1.387 . S
N1234 Co1225 2.022 . S
N1234 C1231 1.351 . S
N1234 N1235 1.365 . S
N1235 C1232 1.341 . S
N1235 N1234 1.365 . S
N1235 H1255 0.862 . S
C1236 C1231 1.501 . S
C1236 H1237 0.961 . S
C1236 H1238 0.961 . S
C1236 H1239 0.960 . S
H1237 C1236 0.961 . S
H1238 C1236 0.961 . S
H1239 C1236 0.960 . S
C1240 N1241 1.342 . S
C1240 C1244 1.401 . S
C1240 C1245 1.499 . S
N1241 Co1224 1.989 . S
N1241 C1240 1.342 . S
N1241 N1242 1.388 . S
N1242 Co1225 1.993 . S
N1242 N1241 1.388 . S
N1242 C1243 1.346 . S
C1243 N1242 1.346 . S
C1243 C1244 1.396 . S
C1243 C1253 1.510 . S
C1244 C1240 1.401 . S
C1244 C1243 1.396 . S
C1245 C1240 1.499 . S
C1245 H1246 0.959 . S
C1245 H1247 0.960 . S
C1245 H1248 0.961 . S
H1246 C1245 0.959 . S
H1247 C1245 0.960 . S
H1248 C1245 0.961 . S
O1249 Co1224 1.967 . S
O1249 C1257 1.258 . S
O1250 Co1225 1.941 . S
O1250 C1257 1.266 . S
H1251 C1253 0.959 . S
H1252 C1253 0.961 . S
C1253 C1243 1.510 . S
C1253 H1251 0.959 . S
C1253 H1252 0.961 . S
C1253 H1254 0.960 . S
H1254 C1253 0.960 . S
H1255 N1235 0.862 . S
O1256 Co1224 1.920 . S
O1256 C1229 1.289 . S
C1257 O1249 1.258 . S
C1257 O1250 1.266 . S
Co1258 O1261 1.970 . S
Co1258 N1275 1.989 . S
Co1258 O1283 1.967 . S
Co1258 O1290 1.920 . S
Co1259 O1262 1.966 . S
Co1259 N1268 2.022 . S
Co1259 N1276 1.993 . S
Co1259 O1284 1.941 . S
C1260 O1261 1.258 . S
C1260 O1262 1.263 . S
O1261 Co1258 1.970 . S
O1261 C1260 1.258 . S
O1262 Co1259 1.966 . S
O1262 C1260 1.263 . S
C1263 O1264 1.235 . S
C1263 O1290 1.289 . S
O1264 C1263 1.235 . S
C1265 C1267 1.400 . S
C1265 N1268 1.351 . S
C1265 C1270 1.501 . S
C1266 C1267 1.387 . S
C1266 N1269 1.341 . S
C1267 C1265 1.400 . S
C1267 C1266 1.387 . S
N1268 Co1259 2.022 . S
N1268 C1265 1.351 . S
N1268 N1269 1.365 . S
N1269 C1266 1.341 . S
N1269 N1268 1.365 . S
N1269 H1289 0.862 . S
C1270 C1265 1.501 . S
C1270 H1271 0.961 . S
C1270 H1272 0.961 . S
C1270 H1273 0.960 . S
H1271 C1270 0.961 . S
H1272 C1270 0.961 . S
H1273 C1270 0.960 . S
C1274 N1275 1.342 . S
C1274 C1278 1.401 . S
C1274 C1279 1.499 . S
N1275 Co1258 1.989 . S
N1275 C1274 1.342 . S
N1275 N1276 1.388 . S
N1276 Co1259 1.993 . S
N1276 N1275 1.388 . S
N1276 C1277 1.346 . S
C1277 N1276 1.346 . S
C1277 C1278 1.396 . S
C1277 C1287 1.510 . S
C1278 C1274 1.401 . S
C1278 C1277 1.396 . S
C1279 C1274 1.499 . S
C1279 H1280 0.959 . S
C1279 H1281 0.960 . S
C1279 H1282 0.961 . S
H1280 C1279 0.959 . S
H1281 C1279 0.960 . S
H1282 C1279 0.961 . S
O1283 Co1258 1.967 . S
O1283 C1291 1.258 . S
O1284 Co1259 1.941 . S
O1284 C1291 1.266 . S
H1285 C1287 0.959 . S
H1286 C1287 0.961 . S
C1287 C1277 1.510 . S
C1287 H1285 0.959 . S
C1287 H1286 0.961 . S
C1287 H1288 0.960 . S
H1288 C1287 0.960 . S
H1289 N1269 0.862 . S
O1290 Co1258 1.920 . S
O1290 C1263 1.289 . S
C1291 O1283 1.258 . S
C1291 O1284 1.266 . S
Co1292 O1295 1.970 . S
Co1292 N1309 1.989 . S
Co1292 O1317 1.967 . S
Co1292 O1324 1.920 . S
Co1293 O1296 1.966 . S
Co1293 N1302 2.022 . S
Co1293 N1310 1.993 . S
Co1293 O1318 1.941 . S
C1294 O1295 1.258 . S
C1294 O1296 1.263 . S
O1295 Co1292 1.970 . S
O1295 C1294 1.258 . S
O1296 Co1293 1.966 . S
O1296 C1294 1.263 . S
C1297 O1298 1.235 . S
C1297 O1324 1.289 . S
O1298 C1297 1.235 . S
C1299 C1301 1.400 . S
C1299 N1302 1.351 . S
C1299 C1304 1.501 . S
C1300 C1301 1.387 . S
C1300 N1303 1.341 . S
C1301 C1299 1.400 . S
C1301 C1300 1.387 . S
N1302 Co1293 2.022 . S
N1302 C1299 1.351 . S
N1302 N1303 1.365 . S
N1303 C1300 1.341 . S
N1303 N1302 1.365 . S
N1303 H1323 0.862 . S
C1304 C1299 1.501 . S
C1304 H1305 0.961 . S
C1304 H1306 0.961 . S
C1304 H1307 0.960 . S
H1305 C1304 0.961 . S
H1306 C1304 0.961 . S
H1307 C1304 0.960 . S
C1308 N1309 1.342 . S
C1308 C1312 1.401 . S
C1308 C1313 1.499 . S
N1309 Co1292 1.989 . S
N1309 C1308 1.342 . S
N1309 N1310 1.388 . S
N1310 Co1293 1.993 . S
N1310 N1309 1.388 . S
N1310 C1311 1.346 . S
C1311 N1310 1.346 . S
C1311 C1312 1.396 . S
C1311 C1321 1.510 . S
C1312 C1308 1.401 . S
C1312 C1311 1.396 . S
C1313 C1308 1.499 . S
C1313 H1314 0.959 . S
C1313 H1315 0.960 . S
C1313 H1316 0.961 . S
H1314 C1313 0.959 . S
H1315 C1313 0.960 . S
H1316 C1313 0.961 . S
O1317 Co1292 1.967 . S
O1317 C1325 1.258 . S
O1318 Co1293 1.941 . S
O1318 C1325 1.266 . S
H1319 C1321 0.959 . S
H1320 C1321 0.961 . S
C1321 C1311 1.510 . S
C1321 H1319 0.959 . S
C1321 H1320 0.961 . S
C1321 H1322 0.960 . S
H1322 C1321 0.960 . S
H1323 N1303 0.862 . S
O1324 Co1292 1.920 . S
O1324 C1297 1.289 . S
C1325 O1317 1.258 . S
C1325 O1318 1.266 . S
Co1326 O1329 1.970 . S
Co1326 N1343 1.989 . S
Co1326 O1351 1.967 . S
Co1326 O1358 1.920 . S
Co1327 O1330 1.966 . S
Co1327 N1336 2.022 . S
Co1327 N1344 1.993 . S
Co1327 O1352 1.941 . S
C1328 O1329 1.258 . S
C1328 O1330 1.263 . S
O1329 Co1326 1.970 . S
O1329 C1328 1.258 . S
O1330 Co1327 1.966 . S
O1330 C1328 1.263 . S
C1331 O1332 1.235 . S
C1331 O1358 1.289 . S
O1332 C1331 1.235 . S
C1333 C1335 1.400 . S
C1333 N1336 1.351 . S
C1333 C1338 1.501 . S
C1334 C1335 1.387 . S
C1334 N1337 1.341 . S
C1335 C1333 1.400 . S
C1335 C1334 1.387 . S
N1336 Co1327 2.022 . S
N1336 C1333 1.351 . S
N1336 N1337 1.365 . S
N1337 C1334 1.341 . S
N1337 N1336 1.365 . S
N1337 H1357 0.862 . S
C1338 C1333 1.501 . S
C1338 H1339 0.961 . S
C1338 H1340 0.961 . S
C1338 H1341 0.960 . S
H1339 C1338 0.961 . S
H1340 C1338 0.961 . S
H1341 C1338 0.960 . S
C1342 N1343 1.342 . S
C1342 C1346 1.401 . S
C1342 C1347 1.499 . S
N1343 Co1326 1.989 . S
N1343 C1342 1.342 . S
N1343 N1344 1.388 . S
N1344 Co1327 1.993 . S
N1344 N1343 1.388 . S
N1344 C1345 1.346 . S
C1345 N1344 1.346 . S
C1345 C1346 1.396 . S
C1345 C1355 1.510 . S
C1346 C1342 1.401 . S
C1346 C1345 1.396 . S
C1347 C1342 1.499 . S
C1347 H1348 0.959 . S
C1347 H1349 0.960 . S
C1347 H1350 0.961 . S
H1348 C1347 0.959 . S
H1349 C1347 0.960 . S
H1350 C1347 0.961 . S
O1351 Co1326 1.967 . S
O1351 C1359 1.258 . S
O1352 Co1327 1.941 . S
O1352 C1359 1.266 . S
H1353 C1355 0.959 . S
H1354 C1355 0.961 . S
C1355 C1345 1.510 . S
C1355 H1353 0.959 . S
C1355 H1354 0.961 . S
C1355 H1356 0.960 . S
H1356 C1355 0.960 . S
H1357 N1337 0.862 . S
O1358 Co1326 1.920 . S
O1358 C1331 1.289 . S
C1359 O1351 1.258 . S
C1359 O1352 1.266 . S
Co1360 O1363 1.970 . S
Co1360 N1377 1.989 . S
Co1360 O1385 1.967 . S
Co1360 O1392 1.920 . S
Co1361 O1364 1.966 . S
Co1361 N1370 2.022 . S
Co1361 N1378 1.993 . S
Co1361 O1386 1.941 . S
C1362 O1363 1.258 . S
C1362 O1364 1.263 . S
O1363 Co1360 1.970 . S
O1363 C1362 1.258 . S
O1364 Co1361 1.966 . S
O1364 C1362 1.263 . S
C1365 O1366 1.235 . S
C1365 O1392 1.289 . S
O1366 C1365 1.235 . S
C1367 C1369 1.400 . S
C1367 N1370 1.351 . S
C1367 C1372 1.501 . S
C1368 C1369 1.387 . S
C1368 N1371 1.341 . S
C1369 C1367 1.400 . S
C1369 C1368 1.387 . S
N1370 Co1361 2.022 . S
N1370 C1367 1.351 . S
N1370 N1371 1.365 . S
N1371 C1368 1.341 . S
N1371 N1370 1.365 . S
N1371 H1391 0.862 . S
C1372 C1367 1.501 . S
C1372 H1373 0.961 . S
C1372 H1374 0.961 . S
C1372 H1375 0.960 . S
H1373 C1372 0.961 . S
H1374 C1372 0.961 . S
H1375 C1372 0.960 . S
C1376 N1377 1.342 . S
C1376 C1380 1.401 . S
C1376 C1381 1.499 . S
N1377 Co1360 1.989 . S
N1377 C1376 1.342 . S
N1377 N1378 1.388 . S
N1378 Co1361 1.993 . S
N1378 N1377 1.388 . S
N1378 C1379 1.346 . S
C1379 N1378 1.346 . S
C1379 C1380 1.396 . S
C1379 C1389 1.510 . S
C1380 C1376 1.401 . S
C1380 C1379 1.396 . S
C1381 C1376 1.499 . S
C1381 H1382 0.959 . S
C1381 H1383 0.960 . S
C1381 H1384 0.961 . S
H1382 C1381 0.959 . S
H1383 C1381 0.960 . S
H1384 C1381 0.961 . S
O1385 Co1360 1.967 . S
O1385 C1393 1.258 . S
O1386 Co1361 1.941 . S
O1386 C1393 1.266 . S
H1387 C1389 0.959 . S
H1388 C1389 0.961 . S
C1389 C1379 1.510 . S
C1389 H1387 0.959 . S
C1389 H1388 0.961 . S
C1389 H1390 0.960 . S
H1390 C1389 0.960 . S
H1391 N1371 0.862 . S
O1392 Co1360 1.920 . S
O1392 C1365 1.289 . S
C1393 O1385 1.258 . S
C1393 O1386 1.266 . S
Co1394 O1397 1.970 . S
Co1394 N1411 1.989 . S
Co1394 O1419 1.967 . S
Co1394 O1426 1.920 . S
Co1395 O1398 1.966 . S
Co1395 N1404 2.022 . S
Co1395 N1412 1.993 . S
Co1395 O1420 1.941 . S
C1396 O1397 1.258 . S
C1396 O1398 1.263 . S
O1397 Co1394 1.970 . S
O1397 C1396 1.258 . S
O1398 Co1395 1.966 . S
O1398 C1396 1.263 . S
C1399 O1400 1.235 . S
C1399 O1426 1.289 . S
O1400 C1399 1.235 . S
C1401 C1403 1.400 . S
C1401 N1404 1.351 . S
C1401 C1406 1.501 . S
C1402 C1403 1.387 . S
C1402 N1405 1.341 . S
C1403 C1401 1.400 . S
C1403 C1402 1.387 . S
N1404 Co1395 2.022 . S
N1404 C1401 1.351 . S
N1404 N1405 1.365 . S
N1405 C1402 1.341 . S
N1405 N1404 1.365 . S
N1405 H1425 0.862 . S
C1406 C1401 1.501 . S
C1406 H1407 0.961 . S
C1406 H1408 0.961 . S
C1406 H1409 0.960 . S
H1407 C1406 0.961 . S
H1408 C1406 0.961 . S
H1409 C1406 0.960 . S
C1410 N1411 1.342 . S
C1410 C1414 1.401 . S
C1410 C1415 1.499 . S
N1411 Co1394 1.989 . S
N1411 C1410 1.342 . S
N1411 N1412 1.388 . S
N1412 Co1395 1.993 . S
N1412 N1411 1.388 . S
N1412 C1413 1.346 . S
C1413 N1412 1.346 . S
C1413 C1414 1.396 . S
C1413 C1423 1.510 . S
C1414 C1410 1.401 . S
C1414 C1413 1.396 . S
C1415 C1410 1.499 . S
C1415 H1416 0.959 . S
C1415 H1417 0.960 . S
C1415 H1418 0.961 . S
H1416 C1415 0.959 . S
H1417 C1415 0.960 . S
H1418 C1415 0.961 . S
O1419 Co1394 1.967 . S
O1419 C1427 1.258 . S
O1420 Co1395 1.941 . S
O1420 C1427 1.266 . S
H1421 C1423 0.959 . S
H1422 C1423 0.961 . S
C1423 C1413 1.510 . S
C1423 H1421 0.959 . S
C1423 H1422 0.961 . S
C1423 H1424 0.960 . S
H1424 C1423 0.960 . S
H1425 N1405 0.862 . S
O1426 Co1394 1.920 . S
O1426 C1399 1.289 . S
C1427 O1419 1.258 . S
C1427 O1420 1.266 . S
Co1428 O1431 1.970 . S
Co1428 N1445 1.989 . S
Co1428 O1453 1.967 . S
Co1428 O1460 1.920 . S
Co1429 O1432 1.966 . S
Co1429 N1438 2.022 . S
Co1429 N1446 1.993 . S
Co1429 O1454 1.941 . S
C1430 O1431 1.258 . S
C1430 O1432 1.263 . S
O1431 Co1428 1.970 . S
O1431 C1430 1.258 . S
O1432 Co1429 1.966 . S
O1432 C1430 1.263 . S
C1433 O1434 1.235 . S
C1433 O1460 1.289 . S
O1434 C1433 1.235 . S
C1435 C1437 1.400 . S
C1435 N1438 1.351 . S
C1435 C1440 1.501 . S
C1436 C1437 1.387 . S
C1436 N1439 1.341 . S
C1437 C1435 1.400 . S
C1437 C1436 1.387 . S
N1438 Co1429 2.022 . S
N1438 C1435 1.351 . S
N1438 N1439 1.365 . S
N1439 C1436 1.341 . S
N1439 N1438 1.365 . S
N1439 H1459 0.862 . S
C1440 C1435 1.501 . S
C1440 H1441 0.961 . S
C1440 H1442 0.961 . S
C1440 H1443 0.960 . S
H1441 C1440 0.961 . S
H1442 C1440 0.961 . S
H1443 C1440 0.960 . S
C1444 N1445 1.342 . S
C1444 C1448 1.401 . S
C1444 C1449 1.499 . S
N1445 Co1428 1.989 . S
N1445 C1444 1.342 . S
N1445 N1446 1.388 . S
N1446 Co1429 1.993 . S
N1446 N1445 1.388 . S
N1446 C1447 1.346 . S
C1447 N1446 1.346 . S
C1447 C1448 1.396 . S
C1447 C1457 1.510 . S
C1448 C1444 1.401 . S
C1448 C1447 1.396 . S
C1449 C1444 1.499 . S
C1449 H1450 0.959 . S
C1449 H1451 0.960 . S
C1449 H1452 0.961 . S
H1450 C1449 0.959 . S
H1451 C1449 0.960 . S
H1452 C1449 0.961 . S
O1453 Co1428 1.967 . S
O1453 C1461 1.258 . S
O1454 Co1429 1.941 . S
O1454 C1461 1.266 . S
H1455 C1457 0.959 . S
H1456 C1457 0.961 . S
C1457 C1447 1.510 . S
C1457 H1455 0.959 . S
C1457 H1456 0.961 . S
C1457 H1458 0.960 . S
H1458 C1457 0.960 . S
H1459 N1439 0.862 . S
O1460 Co1428 1.920 . S
O1460 C1433 1.289 . S
C1461 O1453 1.258 . S
C1461 O1454 1.266 . S
Co1462 O1465 1.970 . S
Co1462 N1479 1.989 . S
Co1462 O1487 1.967 . S
Co1462 O1494 1.920 . S
Co1463 O1466 1.966 . S
Co1463 N1472 2.022 . S
Co1463 N1480 1.993 . S
Co1463 O1488 1.941 . S
C1464 O1465 1.258 . S
C1464 O1466 1.263 . S
O1465 Co1462 1.970 . S
O1465 C1464 1.258 . S
O1466 Co1463 1.966 . S
O1466 C1464 1.263 . S
C1467 O1468 1.235 . S
C1467 O1494 1.289 . S
O1468 C1467 1.235 . S
C1469 C1471 1.400 . S
C1469 N1472 1.351 . S
C1469 C1474 1.501 . S
C1470 C1471 1.387 . S
C1470 N1473 1.341 . S
C1471 C1469 1.400 . S
C1471 C1470 1.387 . S
N1472 Co1463 2.022 . S
N1472 C1469 1.351 . S
N1472 N1473 1.365 . S
N1473 C1470 1.341 . S
N1473 N1472 1.365 . S
N1473 H1493 0.862 . S
C1474 C1469 1.501 . S
C1474 H1475 0.961 . S
C1474 H1476 0.961 . S
C1474 H1477 0.960 . S
H1475 C1474 0.961 . S
H1476 C1474 0.961 . S
H1477 C1474 0.960 . S
C1478 N1479 1.342 . S
C1478 C1482 1.401 . S
C1478 C1483 1.499 . S
N1479 Co1462 1.989 . S
N1479 C1478 1.342 . S
N1479 N1480 1.388 . S
N1480 Co1463 1.993 . S
N1480 N1479 1.388 . S
N1480 C1481 1.346 . S
C1481 N1480 1.346 . S
C1481 C1482 1.396 . S
C1481 C1491 1.510 . S
C1482 C1478 1.401 . S
C1482 C1481 1.396 . S
C1483 C1478 1.499 . S
C1483 H1484 0.959 . S
C1483 H1485 0.960 . S
C1483 H1486 0.961 . S
H1484 C1483 0.959 . S
H1485 C1483 0.960 . S
H1486 C1483 0.961 . S
O1487 Co1462 1.967 . S
O1487 C1495 1.258 . S
O1488 Co1463 1.941 . S
O1488 C1495 1.266 . S
H1489 C1491 0.959 . S
H1490 C1491 0.961 . S
C1491 C1481 1.510 . S
C1491 H1489 0.959 . S
C1491 H1490 0.961 . S
C1491 H1492 0.960 . S
H1492 C1491 0.960 . S
H1493 N1473 0.862 . S
O1494 Co1462 1.920 . S
O1494 C1467 1.289 . S
C1495 O1487 1.258 . S
C1495 O1488 1.266 . S
Co1496 O1499 1.970 . S
Co1496 N1513 1.989 . S
Co1496 O1521 1.967 . S
Co1496 O1528 1.920 . S
Co1497 O1500 1.966 . S
Co1497 N1506 2.022 . S
Co1497 N1514 1.993 . S
Co1497 O1522 1.941 . S
C1498 O1499 1.258 . S
C1498 O1500 1.263 . S
O1499 Co1496 1.970 . S
O1499 C1498 1.258 . S
O1500 Co1497 1.966 . S
O1500 C1498 1.263 . S
C1501 O1502 1.235 . S
C1501 O1528 1.289 . S
O1502 C1501 1.235 . S
C1503 C1505 1.400 . S
C1503 N1506 1.351 . S
C1503 C1508 1.501 . S
C1504 C1505 1.387 . S
C1504 N1507 1.341 . S
C1505 C1503 1.400 . S
C1505 C1504 1.387 . S
N1506 Co1497 2.022 . S
N1506 C1503 1.351 . S
N1506 N1507 1.365 . S
N1507 C1504 1.341 . S
N1507 N1506 1.365 . S
N1507 H1527 0.862 . S
C1508 C1503 1.501 . S
C1508 H1509 0.961 . S
C1508 H1510 0.961 . S
C1508 H1511 0.960 . S
H1509 C1508 0.961 . S
H1510 C1508 0.961 . S
H1511 C1508 0.960 . S
C1512 N1513 1.342 . S
C1512 C1516 1.401 . S
C1512 C1517 1.499 . S
N1513 Co1496 1.989 . S
N1513 C1512 1.342 . S
N1513 N1514 1.388 . S
N1514 Co1497 1.993 . S
N1514 N1513 1.388 . S
N1514 C1515 1.346 . S
C1515 N1514 1.346 . S
C1515 C1516 1.396 . S
C1515 C1525 1.510 . S
C1516 C1512 1.401 . S
C1516 C1515 1.396 . S
C1517 C1512 1.499 . S
C1517 H1518 0.959 . S
C1517 H1519 0.960 . S
C1517 H1520 0.961 . S
H1518 C1517 0.959 . S
H1519 C1517 0.960 . S
H1520 C1517 0.961 . S
O1521 Co1496 1.967 . S
O1521 C1529 1.258 . S
O1522 Co1497 1.941 . S
O1522 C1529 1.266 . S
H1523 C1525 0.959 . S
H1524 C1525 0.961 . S
C1525 C1515 1.510 . S
C1525 H1523 0.959 . S
C1525 H1524 0.961 . S
C1525 H1526 0.960 . S
H1526 C1525 0.960 . S
H1527 N1507 0.862 . S
O1528 Co1496 1.920 . S
O1528 C1501 1.289 . S
C1529 O1521 1.258 . S
C1529 O1522 1.266 . S
Co1530 O1533 1.970 . S
Co1530 N1547 1.989 . S
Co1530 O1555 1.967 . S
Co1530 O1562 1.920 . S
Co1531 O1534 1.966 . S
Co1531 N1540 2.022 . S
Co1531 N1548 1.993 . S
Co1531 O1556 1.941 . S
C1532 O1533 1.258 . S
C1532 O1534 1.263 . S
O1533 Co1530 1.970 . S
O1533 C1532 1.258 . S
O1534 Co1531 1.966 . S
O1534 C1532 1.263 . S
C1535 O1536 1.235 . S
C1535 O1562 1.289 1_556 S
O1536 C1535 1.235 . S
C1537 C1539 1.400 . S
C1537 N1540 1.351 . S
C1537 C1542 1.501 . S
C1538 C1539 1.387 . S
C1538 N1541 1.341 . S
C1539 C1537 1.400 . S
C1539 C1538 1.387 . S
N1540 Co1531 2.022 . S
N1540 C1537 1.351 . S
N1540 N1541 1.365 . S
N1541 C1538 1.341 . S
N1541 N1540 1.365 . S
N1541 H1561 0.862 . S
C1542 C1537 1.501 . S
C1542 H1543 0.961 . S
C1542 H1544 0.961 . S
C1542 H1545 0.960 . S
H1543 C1542 0.961 . S
H1544 C1542 0.961 . S
H1545 C1542 0.960 . S
C1546 N1547 1.342 . S
C1546 C1550 1.401 . S
C1546 C1551 1.499 . S
N1547 Co1530 1.989 . S
N1547 C1546 1.342 . S
N1547 N1548 1.388 . S
N1548 Co1531 1.993 . S
N1548 N1547 1.388 . S
N1548 C1549 1.346 . S
C1549 N1548 1.346 . S
C1549 C1550 1.396 . S
C1549 C1559 1.510 . S
C1550 C1546 1.401 . S
C1550 C1549 1.396 . S
C1551 C1546 1.499 . S
C1551 H1552 0.959 . S
C1551 H1553 0.960 . S
C1551 H1554 0.961 . S
H1552 C1551 0.959 . S
H1553 C1551 0.960 . S
H1554 C1551 0.961 . S
O1555 Co1530 1.967 . S
O1555 C1563 1.258 . S
O1556 Co1531 1.941 . S
O1556 C1563 1.266 . S
H1557 C1559 0.959 . S
H1558 C1559 0.961 . S
C1559 C1549 1.510 . S
C1559 H1557 0.959 . S
C1559 H1558 0.961 . S
C1559 H1560 0.960 . S
H1560 C1559 0.960 . S
H1561 N1541 0.862 . S
O1562 Co1530 1.920 . S
O1562 C1535 1.289 1_554 S
C1563 O1555 1.258 . S
C1563 O1556 1.266 . S
Co1564 O1567 1.970 . S
Co1564 N1581 1.989 . S
Co1564 O1589 1.967 . S
Co1564 O1596 1.920 . S
Co1565 O1568 1.966 . S
Co1565 N1574 2.022 . S
Co1565 N1582 1.993 . S
Co1565 O1590 1.941 . S
C1566 O1567 1.258 . S
C1566 O1568 1.263 . S
O1567 Co1564 1.970 . S
O1567 C1566 1.258 . S
O1568 Co1565 1.966 . S
O1568 C1566 1.263 . S
C1569 O1570 1.235 . S
C1569 O1596 1.289 1_556 S
O1570 C1569 1.235 . S
C1571 C1573 1.400 . S
C1571 N1574 1.351 . S
C1571 C1576 1.501 . S
C1572 C1573 1.387 . S
C1572 N1575 1.341 . S
C1573 C1571 1.400 . S
C1573 C1572 1.387 . S
N1574 Co1565 2.022 . S
N1574 C1571 1.351 . S
N1574 N1575 1.365 . S
N1575 C1572 1.341 . S
N1575 N1574 1.365 . S
N1575 H1595 0.862 . S
C1576 C1571 1.501 . S
C1576 H1577 0.961 . S
C1576 H1578 0.961 . S
C1576 H1579 0.960 . S
H1577 C1576 0.961 . S
H1578 C1576 0.961 . S
H1579 C1576 0.960 . S
C1580 N1581 1.342 . S
C1580 C1584 1.401 . S
C1580 C1585 1.499 . S
N1581 Co1564 1.989 . S
N1581 C1580 1.342 . S
N1581 N1582 1.388 . S
N1582 Co1565 1.993 . S
N1582 N1581 1.388 . S
N1582 C1583 1.346 . S
C1583 N1582 1.346 . S
C1583 C1584 1.396 . S
C1583 C1593 1.510 . S
C1584 C1580 1.401 . S
C1584 C1583 1.396 . S
C1585 C1580 1.499 . S
C1585 H1586 0.959 . S
C1585 H1587 0.960 . S
C1585 H1588 0.961 . S
H1586 C1585 0.959 . S
H1587 C1585 0.960 . S
H1588 C1585 0.961 . S
O1589 Co1564 1.967 . S
O1589 C1597 1.258 . S
O1590 Co1565 1.941 . S
O1590 C1597 1.266 . S
H1591 C1593 0.959 . S
H1592 C1593 0.961 . S
C1593 C1583 1.510 . S
C1593 H1591 0.959 . S
C1593 H1592 0.961 . S
C1593 H1594 0.960 . S
H1594 C1593 0.960 . S
H1595 N1575 0.862 . S
O1596 Co1564 1.920 . S
O1596 C1569 1.289 1_554 S
C1597 O1589 1.258 . S
C1597 O1590 1.266 . S
Co1598 O1601 1.970 . S
Co1598 N1615 1.989 . S
Co1598 O1623 1.967 . S
Co1598 O1630 1.920 . S
Co1599 O1602 1.966 . S
Co1599 N1608 2.022 1_554 S
Co1599 N1616 1.993 . S
Co1599 O1624 1.941 . S
C1600 O1601 1.258 . S
C1600 O1602 1.263 . S
O1601 Co1598 1.970 . S
O1601 C1600 1.258 . S
O1602 Co1599 1.966 . S
O1602 C1600 1.263 . S
C1603 O1604 1.235 . S
C1603 O1630 1.289 . S
O1604 C1603 1.235 . S
C1605 C1607 1.400 . S
C1605 N1608 1.351 . S
C1605 C1610 1.501 1_556 S
C1606 C1607 1.387 . S
C1606 N1609 1.341 . S
C1607 C1605 1.400 . S
C1607 C1606 1.387 . S
N1608 Co1599 2.022 1_556 S
N1608 C1605 1.351 . S
N1608 N1609 1.365 . S
N1609 C1606 1.341 . S
N1609 N1608 1.365 . S
N1609 H1629 0.862 . S
C1610 C1605 1.501 1_554 S
C1610 H1611 0.961 . S
C1610 H1612 0.961 . S
C1610 H1613 0.960 . S
H1611 C1610 0.961 . S
H1612 C1610 0.961 . S
H1613 C1610 0.960 . S
C1614 N1615 1.342 . S
C1614 C1618 1.401 1_554 S
C1614 C1619 1.499 . S
N1615 Co1598 1.989 . S
N1615 C1614 1.342 . S
N1615 N1616 1.388 . S
N1616 Co1599 1.993 . S
N1616 N1615 1.388 . S
N1616 C1617 1.346 1_554 S
C1617 N1616 1.346 1_556 S
C1617 C1618 1.396 . S
C1617 C1627 1.510 . S
C1618 C1614 1.401 1_556 S
C1618 C1617 1.396 . S
C1619 C1614 1.499 . S
C1619 H1620 0.959 . S
C1619 H1621 0.960 . S
C1619 H1622 0.961 . S
H1620 C1619 0.959 . S
H1621 C1619 0.960 . S
H1622 C1619 0.961 . S
O1623 Co1598 1.967 . S
O1623 C1631 1.258 . S
O1624 Co1599 1.941 . S
O1624 C1631 1.266 . S
H1625 C1627 0.959 . S
H1626 C1627 0.961 . S
C1627 C1617 1.510 . S
C1627 H1625 0.959 . S
C1627 H1626 0.961 . S
C1627 H1628 0.960 . S
H1628 C1627 0.960 . S
H1629 N1609 0.862 . S
O1630 Co1598 1.920 . S
O1630 C1603 1.289 . S
C1631 O1623 1.258 . S
C1631 O1624 1.266 . S
C1632 C1633 1.369 . S
C1632 C1634 1.419 . S
C1632 H1636 0.930 . S
C1633 C1632 1.369 . S
C1633 C1642 1.429 . S
C1634 C1632 1.419 . S
C1634 C1635 1.363 . S
C1634 H1637 0.929 . S
C1635 C1634 1.363 . S
C1635 C1641 1.428 . S
H1636 C1632 0.930 . S
H1637 C1634 0.929 . S
S1638 N1639 1.613 1_655 S
S1638 N1640 1.610 . S
N1639 S1638 1.613 1_455 S
N1639 C1642 1.350 . S
N1640 S1638 1.610 . S
N1640 C1641 1.351 1_655 S
C1641 C1635 1.428 . S
C1641 N1640 1.351 1_455 S
C1641 C1642 1.434 . S
C1642 C1633 1.429 . S
C1642 N1639 1.350 . S
C1642 C1641 1.434 . S
C1643 C1644 1.369 . S
C1643 C1645 1.419 . S
C1643 H1647 0.930 . S
C1644 C1643 1.369 . S
C1644 C1653 1.429 . S
C1645 C1643 1.419 . S
C1645 C1646 1.363 . S
C1645 H1648 0.929 . S
C1646 C1645 1.363 . S
C1646 C1652 1.428 . S
H1647 C1643 0.930 . S
H1648 C1645 0.929 . S
S1649 N1650 1.613 . S
S1649 N1651 1.610 . S
N1650 S1649 1.613 . S
N1650 C1653 1.350 . S
N1651 S1649 1.610 . S
N1651 C1652 1.351 . S
C1652 C1646 1.428 . S
C1652 N1651 1.351 . S
C1652 C1653 1.434 . S
C1653 C1644 1.429 . S
C1653 N1650 1.350 . S
C1653 C1652 1.434 . S
C1654 C1655 1.369 . S
C1654 C1656 1.419 . S
C1654 H1658 0.930 . S
C1655 C1654 1.369 . S
C1655 C1664 1.429 . S
C1656 C1654 1.419 . S
C1656 C1657 1.363 . S
C1656 H1659 0.929 . S
C1657 C1656 1.363 . S
C1657 C1663 1.428 . S
H1658 C1654 0.930 . S
H1659 C1656 0.929 . S
S1660 N1661 1.613 . S
S1660 N1662 1.610 . S
N1661 S1660 1.613 . S
N1661 C1664 1.350 . S
N1662 S1660 1.610 . S
N1662 C1663 1.351 . S
C1663 C1657 1.428 . S
C1663 N1662 1.351 . S
C1663 C1664 1.434 . S
C1664 C1655 1.429 . S
C1664 N1661 1.350 . S
C1664 C1663 1.434 . S
C1665 C1666 1.369 . S
C1665 C1667 1.419 . S
C1665 H1669 0.930 . S
C1666 C1665 1.369 . S
C1666 C1675 1.429 . S
C1667 C1665 1.419 . S
C1667 C1668 1.363 . S
C1667 H1670 0.929 . S
C1668 C1667 1.363 . S
C1668 C1674 1.428 . S
H1669 C1665 0.930 . S
H1670 C1667 0.929 . S
S1671 N1672 1.613 . S
S1671 N1673 1.610 . S
N1672 S1671 1.613 . S
N1672 C1675 1.350 . S
N1673 S1671 1.610 . S
N1673 C1674 1.351 . S
C1674 C1668 1.428 . S
C1674 N1673 1.351 . S
C1674 C1675 1.434 . S
C1675 C1666 1.429 . S
C1675 N1672 1.350 . S
C1675 C1674 1.434 . S
C1676 C1677 1.369 . S
C1676 C1678 1.419 1_455 S
C1676 H1680 0.931 . S
C1677 C1676 1.369 . S
C1677 C1686 1.429 . S
C1678 C1676 1.419 1_655 S
C1678 C1679 1.363 1_655 S
C1678 H1681 0.929 . S
C1679 C1678 1.363 1_455 S
C1679 C1685 1.428 . S
H1680 C1676 0.931 . S
H1681 C1678 0.929 . S
S1682 N1683 1.613 . S
S1682 N1684 1.610 . S
N1683 S1682 1.613 . S
N1683 C1686 1.350 . S
N1684 S1682 1.610 . S
N1684 C1685 1.351 . S
C1685 C1679 1.428 . S
C1685 N1684 1.351 . S
C1685 C1686 1.434 . S
C1686 C1677 1.429 . S
C1686 N1683 1.350 . S
C1686 C1685 1.434 . S
C1687 C1688 1.369 . S
C1687 C1689 1.419 . S
C1687 H1691 0.930 . S
C1688 C1687 1.369 . S
C1688 C1697 1.429 . S
C1689 C1687 1.419 . S
C1689 C1690 1.363 . S
C1689 H1692 0.929 . S
C1690 C1689 1.363 . S
C1690 C1696 1.428 . S
H1691 C1687 0.930 . S
H1692 C1689 0.929 . S
S1693 N1694 1.613 . S
S1693 N1695 1.610 . S
N1694 S1693 1.613 . S
N1694 C1697 1.350 . S
N1695 S1693 1.610 . S
N1695 C1696 1.351 . S
C1696 C1690 1.428 . S
C1696 N1695 1.351 . S
C1696 C1697 1.434 . S
C1697 C1688 1.429 . S
C1697 N1694 1.350 . S
C1697 C1696 1.434 . S
C1698 C1699 1.369 . S
C1698 C1700 1.419 . S
C1698 H1702 0.930 1_455 S
C1699 C1698 1.369 . S
C1699 C1708 1.429 . S
C1700 C1698 1.419 . S
C1700 C1701 1.363 . S
C1700 H1703 0.925 1_455 S
C1701 C1700 1.363 . S
C1701 C1707 1.428 . S
H1702 C1698 0.930 1_655 S
H1703 C1700 0.925 1_655 S
S1704 N1705 1.613 . S
S1704 N1706 1.610 . S
N1705 S1704 1.613 . S
N1705 C1708 1.350 . S
N1706 S1704 1.610 . S
N1706 C1707 1.351 . S
C1707 C1701 1.428 . S
C1707 N1706 1.351 . S
C1707 C1708 1.434 . S
C1708 C1699 1.429 . S
C1708 N1705 1.350 . S
C1708 C1707 1.434 . S
C1709 C1710 1.369 . S
C1709 C1711 1.419 . S
C1709 H1713 0.930 . S
C1710 C1709 1.369 . S
C1710 C1719 1.429 . S
C1711 C1709 1.419 . S
C1711 C1712 1.363 . S
C1711 H1714 0.929 . S
C1712 C1711 1.363 . S
C1712 C1718 1.428 . S
H1713 C1709 0.930 . S
H1714 C1711 0.929 . S
S1715 N1716 1.613 . S
S1715 N1717 1.610 . S
N1716 S1715 1.613 . S
N1716 C1719 1.350 . S
N1717 S1715 1.610 . S
N1717 C1718 1.351 . S
C1718 C1712 1.428 . S
C1718 N1717 1.351 . S
C1718 C1719 1.434 . S
C1719 C1710 1.429 . S
C1719 N1716 1.350 . S
C1719 C1718 1.434 . S
C1720 C1721 1.369 . S
C1720 C1722 1.419 . S
C1720 H1724 0.930 . S
C1721 C1720 1.369 . S
C1721 C1730 1.429 . S
C1722 C1720 1.419 . S
C1722 C1723 1.363 . S
C1722 H1725 0.929 . S
C1723 C1722 1.363 . S
C1723 C1729 1.428 . S
H1724 C1720 0.930 . S
H1725 C1722 0.929 . S
S1726 N1727 1.613 1_556 S
S1726 N1728 1.610 . S
N1727 S1726 1.613 1_554 S
N1727 C1730 1.350 . S
N1728 S1726 1.610 . S
N1728 C1729 1.351 1_556 S
C1729 C1723 1.428 . S
C1729 N1728 1.351 1_554 S
C1729 C1730 1.434 . S
C1730 C1721 1.429 . S
C1730 N1727 1.350 . S
C1730 C1729 1.434 . S
C1731 C1732 1.369 . S
C1731 C1733 1.419 . S
C1731 H1735 0.930 . S
C1732 C1731 1.369 . S
C1732 C1741 1.429 . S
C1733 C1731 1.419 . S
C1733 C1734 1.363 . S
C1733 H1736 0.929 . S
C1734 C1733 1.363 . S
C1734 C1740 1.428 . S
H1735 C1731 0.930 . S
H1736 C1733 0.929 . S
S1737 N1738 1.613 1_556 S
S1737 N1739 1.610 1_556 S
N1738 S1737 1.613 1_554 S
N1738 C1741 1.350 . S
N1739 S1737 1.610 1_554 S
N1739 C1740 1.351 . S
C1740 C1734 1.428 . S
C1740 N1739 1.351 . S
C1740 C1741 1.434 . S
C1741 C1732 1.429 . S
C1741 N1738 1.350 . S
C1741 C1740 1.434 . S
C1742 C1743 1.369 . S
C1742 C1744 1.419 . S
C1742 H1746 0.930 . S
C1743 C1742 1.369 . S
C1743 C1752 1.429 . S
C1744 C1742 1.419 . S
C1744 C1745 1.363 . S
C1744 H1747 0.929 . S
C1745 C1744 1.363 . S
C1745 C1751 1.428 . S
H1746 C1742 0.930 . S
H1747 C1744 0.929 . S
S1748 N1749 1.613 . S
S1748 N1750 1.610 . S
N1749 S1748 1.613 . S
N1749 C1752 1.350 1_556 S
N1750 S1748 1.610 . S
N1750 C1751 1.351 1_556 S
C1751 C1745 1.428 . S
C1751 N1750 1.351 1_554 S
C1751 C1752 1.434 . S
C1752 C1743 1.429 . S
C1752 N1749 1.350 1_554 S
C1752 C1751 1.434 . S
C1753 C1754 1.369 . S
C1753 C1755 1.419 . S
C1753 H1757 0.930 . S
C1754 C1753 1.369 . S
C1754 C1763 1.429 . S
C1755 C1753 1.419 . S
C1755 C1756 1.363 . S
C1755 H1758 0.929 . S
C1756 C1755 1.363 . S
C1756 C1762 1.428 . S
H1757 C1753 0.930 . S
H1758 C1755 0.929 . S
S1759 N1760 1.613 . S
S1759 N1761 1.610 . S
N1760 S1759 1.613 . S
N1760 C1763 1.350 . S
N1761 S1759 1.610 . S
N1761 C1762 1.351 . S
C1762 C1756 1.428 . S
C1762 N1761 1.351 . S
C1762 C1763 1.434 . S
C1763 C1754 1.429 . S
C1763 N1760 1.350 . S
C1763 C1762 1.434 . S
C1764 C1765 1.369 . S
C1764 C1766 1.419 . S
C1764 H1768 0.930 . S
C1765 C1764 1.369 . S
C1765 C1774 1.429 . S
C1766 C1764 1.419 . S
C1766 C1767 1.363 . S
C1766 H1769 0.929 . S
C1767 C1766 1.363 . S
C1767 C1773 1.428 . S
H1768 C1764 0.930 . S
H1769 C1766 0.929 . S
S1770 N1771 1.613 . S
S1770 N1772 1.610 . S
N1771 S1770 1.613 . S
N1771 C1774 1.350 . S
N1772 S1770 1.610 . S
N1772 C1773 1.351 . S
C1773 C1767 1.428 . S
C1773 N1772 1.351 . S
C1773 C1774 1.434 . S
C1774 C1765 1.429 . S
C1774 N1771 1.350 . S
C1774 C1773 1.434 . S
C1775 C1776 1.369 . S
C1775 C1777 1.419 . S
C1775 H1779 0.930 . S
C1776 C1775 1.369 . S
C1776 C1785 1.429 . S
C1777 C1775 1.419 . S
C1777 C1778 1.363 . S
C1777 H1780 0.929 . S
C1778 C1777 1.363 . S
C1778 C1784 1.428 . S
H1779 C1775 0.930 . S
H1780 C1777 0.929 . S
S1781 N1782 1.613 . S
S1781 N1783 1.610 . S
N1782 S1781 1.613 . S
N1782 C1785 1.350 . S
N1783 S1781 1.610 . S
N1783 C1784 1.351 . S
C1784 C1778 1.428 . S
C1784 N1783 1.351 . S
C1784 C1785 1.434 . S
C1785 C1776 1.429 . S
C1785 N1782 1.350 . S
C1785 C1784 1.434 . S
C1786 C1787 1.369 . S
C1786 C1788 1.419 . S
C1786 H1790 0.930 . S
C1787 C1786 1.369 . S
C1787 C1796 1.429 . S
C1788 C1786 1.419 . S
C1788 C1789 1.363 . S
C1788 H1791 0.929 . S
C1789 C1788 1.363 . S
C1789 C1795 1.428 . S
H1790 C1786 0.930 . S
H1791 C1788 0.929 . S
S1792 N1793 1.613 . S
S1792 N1794 1.610 . S
N1793 S1792 1.613 . S
N1793 C1796 1.350 . S
N1794 S1792 1.610 . S
N1794 C1795 1.351 . S
C1795 C1789 1.428 . S
C1795 N1794 1.351 . S
C1795 C1796 1.434 . S
C1796 C1787 1.429 . S
C1796 N1793 1.350 . S
C1796 C1795 1.434 . S
C1797 C1798 1.369 . S
C1797 C1799 1.419 . S
C1797 H1801 0.930 . S
C1798 C1797 1.369 . S
C1798 C1807 1.429 . S
C1799 C1797 1.419 . S
C1799 C1800 1.363 . S
C1799 H1802 0.929 . S
C1800 C1799 1.363 . S
C1800 C1806 1.428 . S
H1801 C1797 0.930 . S
H1802 C1799 0.929 . S
S1803 N1804 1.613 . S
S1803 N1805 1.610 . S
N1804 S1803 1.613 . S
N1804 C1807 1.350 . S
N1805 S1803 1.610 . S
N1805 C1806 1.351 . S
C1806 C1800 1.428 . S
C1806 N1805 1.351 . S
C1806 C1807 1.434 . S
C1807 C1798 1.429 . S
C1807 N1804 1.350 . S
C1807 C1806 1.434 . S
C1808 C1809 1.369 . S
C1808 C1810 1.419 . S
C1808 H1812 0.930 . S
C1809 C1808 1.369 . S
C1809 C1818 1.429 . S
C1810 C1808 1.419 . S
C1810 C1811 1.363 . S
C1810 H1813 0.929 . S
C1811 C1810 1.363 . S
C1811 C1817 1.428 . S
H1812 C1808 0.930 . S
H1813 C1810 0.929 . S
S1814 N1815 1.613 . S
S1814 N1816 1.610 . S
N1815 S1814 1.613 . S
N1815 C1818 1.350 . S
N1816 S1814 1.610 . S
N1816 C1817 1.351 . S
C1817 C1811 1.428 . S
C1817 N1816 1.351 . S
C1817 C1818 1.434 . S
C1818 C1809 1.429 . S
C1818 N1815 1.350 . S
C1818 C1817 1.434 . S
C1819 C1820 1.369 . S
C1819 C1821 1.419 . S
C1819 H1823 0.930 . S
C1820 C1819 1.369 . S
C1820 C1829 1.429 . S
C1821 C1819 1.419 . S
C1821 C1822 1.363 . S
C1821 H1824 0.929 . S
C1822 C1821 1.363 . S
C1822 C1828 1.428 . S
H1823 C1819 0.930 . S
H1824 C1821 0.929 . S
S1825 N1826 1.613 . S
S1825 N1827 1.610 . S
N1826 S1825 1.613 . S
N1826 C1829 1.350 . S
N1827 S1825 1.610 . S
N1827 C1828 1.351 . S
C1828 C1822 1.428 . S
C1828 N1827 1.351 . S
C1828 C1829 1.434 . S
C1829 C1820 1.429 . S
C1829 N1826 1.350 . S
C1829 C1828 1.434 . S
C1830 C1831 1.369 . S
C1830 C1832 1.419 . S
C1830 H1834 0.930 . S
C1831 C1830 1.369 . S
C1831 C1840 1.429 . S
C1832 C1830 1.419 . S
C1832 C1833 1.363 . S
C1832 H1835 0.929 . S
C1833 C1832 1.363 . S
C1833 C1839 1.428 . S
H1834 C1830 0.930 . S
H1835 C1832 0.929 . S
S1836 N1837 1.613 . S
S1836 N1838 1.610 . S
N1837 S1836 1.613 . S
N1837 C1840 1.350 . S
N1838 S1836 1.610 . S
N1838 C1839 1.351 . S
C1839 C1833 1.428 . S
C1839 N1838 1.351 . S
C1839 C1840 1.434 . S
C1840 C1831 1.429 . S
C1840 N1837 1.350 . S
C1840 C1839 1.434 . S
C1841 C1842 1.369 . S
C1841 C1843 1.419 . S
C1841 H1845 0.930 . S
C1842 C1841 1.369 . S
C1842 C1851 1.429 . S
C1843 C1841 1.419 . S
C1843 C1844 1.363 . S
C1843 H1846 0.929 . S
C1844 C1843 1.363 . S
C1844 C1850 1.428 . S
H1845 C1841 0.930 . S
H1846 C1843 0.929 . S
S1847 N1848 1.613 . S
S1847 N1849 1.610 . S
N1848 S1847 1.613 . S
N1848 C1851 1.350 . S
N1849 S1847 1.610 . S
N1849 C1850 1.351 . S
C1850 C1844 1.428 . S
C1850 N1849 1.351 . S
C1850 C1851 1.434 . S
C1851 C1842 1.429 . S
C1851 N1848 1.350 . S
C1851 C1850 1.434 . S
C1852 C1853 1.369 . S
C1852 C1854 1.419 . S
C1852 H1856 0.930 . S
C1853 C1852 1.369 . S
C1853 C1862 1.429 . S
C1854 C1852 1.419 . S
C1854 C1855 1.363 . S
C1854 H1857 0.929 . S
C1855 C1854 1.363 . S
C1855 C1861 1.428 . S
H1856 C1852 0.930 . S
H1857 C1854 0.929 . S
S1858 N1859 1.613 . S
S1858 N1860 1.610 . S
N1859 S1858 1.613 . S
N1859 C1862 1.350 . S
N1860 S1858 1.610 . S
N1860 C1861 1.351 . S
C1861 C1855 1.428 . S
C1861 N1860 1.351 . S
C1861 C1862 1.434 . S
C1862 C1853 1.429 . S
C1862 N1859 1.350 . S
C1862 C1861 1.434 . S
C1863 C1864 1.369 . S
C1863 C1865 1.419 . S
C1863 H1867 0.930 . S
C1864 C1863 1.369 . S
C1864 C1873 1.429 . S
C1865 C1863 1.419 . S
C1865 C1866 1.363 . S
C1865 H1868 0.929 . S
C1866 C1865 1.363 . S
C1866 C1872 1.428 . S
H1867 C1863 0.930 . S
H1868 C1865 0.929 . S
S1869 N1870 1.613 . S
S1869 N1871 1.610 . S
N1870 S1869 1.613 . S
N1870 C1873 1.350 . S
N1871 S1869 1.610 . S
N1871 C1872 1.351 . S
C1872 C1866 1.428 . S
C1872 N1871 1.351 . S
C1872 C1873 1.434 . S
C1873 C1864 1.429 . S
C1873 N1870 1.350 . S
C1873 C1872 1.434 . S
C1874 C1875 1.369 . S
C1874 C1876 1.419 . S
C1874 H1878 0.930 . S
C1875 C1874 1.369 . S
C1875 C1884 1.429 . S
C1876 C1874 1.419 . S
C1876 C1877 1.363 . S
C1876 H1879 0.929 . S
C1877 C1876 1.363 . S
C1877 C1883 1.428 . S
H1878 C1874 0.930 . S
H1879 C1876 0.929 . S
S1880 N1881 1.613 . S
S1880 N1882 1.610 . S
N1881 S1880 1.613 . S
N1881 C1884 1.350 . S
N1882 S1880 1.610 . S
N1882 C1883 1.351 . S
C1883 C1877 1.428 . S
C1883 N1882 1.351 . S
C1883 C1884 1.434 . S
C1884 C1875 1.429 . S
C1884 N1881 1.350 . S
C1884 C1883 1.434 . S
C1885 C1886 1.369 . S
C1885 C1887 1.419 . S
C1885 H1889 0.930 . S
C1886 C1885 1.369 . S
C1886 C1895 1.429 . S
C1887 C1885 1.419 . S
C1887 C1888 1.363 . S
C1887 H1890 0.929 . S
C1888 C1887 1.363 . S
C1888 C1894 1.428 . S
H1889 C1885 0.930 . S
H1890 C1887 0.929 . S
S1891 N1892 1.613 . S
S1891 N1893 1.610 . S
N1892 S1891 1.613 . S
N1892 C1895 1.350 . S
N1893 S1891 1.610 . S
N1893 C1894 1.351 . S
C1894 C1888 1.428 . S
C1894 N1893 1.351 . S
C1894 C1895 1.434 . S
C1895 C1886 1.429 . S
C1895 N1892 1.350 . S
C1895 C1894 1.434 . S
C1896 C1897 1.369 . S
C1896 C1898 1.419 . S
C1896 H1900 0.930 . S
C1897 C1896 1.369 . S
C1897 C1906 1.429 . S
C1898 C1896 1.419 . S
C1898 C1899 1.363 . S
C1898 H1901 0.929 . S
C1899 C1898 1.363 . S
C1899 C1905 1.428 . S
H1900 C1896 0.930 . S
H1901 C1898 0.929 . S
S1902 N1903 1.613 . S
S1902 N1904 1.610 . S
N1903 S1902 1.613 . S
N1903 C1906 1.350 . S
N1904 S1902 1.610 . S
N1904 C1905 1.351 . S
C1905 C1899 1.428 . S
C1905 N1904 1.351 . S
C1905 C1906 1.434 . S
C1906 C1897 1.429 . S
C1906 N1903 1.350 . S
C1906 C1905 1.434 . S
C1907 C1908 1.369 . S
C1907 C1909 1.419 . S
C1907 H1911 0.930 . S
C1908 C1907 1.369 . S
C1908 C1917 1.429 . S
C1909 C1907 1.419 . S
C1909 C1910 1.363 . S
C1909 H1912 0.929 . S
C1910 C1909 1.363 . S
C1910 C1916 1.428 . S
H1911 C1907 0.930 . S
H1912 C1909 0.929 . S
S1913 N1914 1.613 . S
S1913 N1915 1.610 . S
N1914 S1913 1.613 . S
N1914 C1917 1.350 . S
N1915 S1913 1.610 . S
N1915 C1916 1.351 . S
C1916 C1910 1.428 . S
C1916 N1915 1.351 . S
C1916 C1917 1.434 . S
C1917 C1908 1.429 . S
C1917 N1914 1.350 . S
C1917 C1916 1.434 . S
C1918 C1919 1.369 . S
C1918 C1920 1.419 . S
C1918 H1922 0.930 . S
C1919 C1918 1.369 . S
C1919 C1928 1.429 . S
C1920 C1918 1.419 . S
C1920 C1921 1.363 . S
C1920 H1923 0.929 . S
C1921 C1920 1.363 . S
C1921 C1927 1.428 . S
H1922 C1918 0.930 . S
H1923 C1920 0.929 . S
S1924 N1925 1.613 . S
S1924 N1926 1.610 . S
N1925 S1924 1.613 . S
N1925 C1928 1.350 . S
N1926 S1924 1.610 . S
N1926 C1927 1.351 . S
C1927 C1921 1.428 . S
C1927 N1926 1.351 . S
C1927 C1928 1.434 . S
C1928 C1919 1.429 . S
C1928 N1925 1.350 . S
C1928 C1927 1.434 . S
C1929 C1930 1.369 . S
C1929 C1931 1.419 . S
C1929 H1933 0.971 . S
C1930 C1929 1.369 . S
C1930 C1939 1.429 . S
C1931 C1929 1.419 . S
C1931 C1932 1.363 . S
C1931 H1934 0.929 . S
C1932 C1931 1.363 . S
C1932 C1938 1.428 . S
H1933 C1929 0.971 . S
H1934 C1931 0.929 . S
S1935 N1936 1.613 . S
S1935 N1937 1.610 . S
N1936 S1935 1.613 . S
N1936 C1939 1.350 . S
N1937 S1935 1.610 . S
N1937 C1938 1.351 . S
C1938 C1932 1.428 . S
C1938 N1937 1.351 . S
C1938 C1939 1.434 . S
C1939 C1930 1.429 . S
C1939 N1936 1.350 . S
C1939 C1938 1.434 . S
C1940 C1941 1.369 . S
C1940 C1942 1.419 . S
C1940 H1944 0.930 . S
C1941 C1940 1.369 . S
C1941 C1950 1.429 . S
C1942 C1940 1.419 . S
C1942 C1943 1.363 . S
C1942 H1945 0.929 . S
C1943 C1942 1.363 . S
C1943 C1949 1.428 . S
H1944 C1940 0.930 . S
H1945 C1942 0.929 . S
S1946 N1947 1.613 . S
S1946 N1948 1.610 . S
N1947 S1946 1.613 . S
N1947 C1950 1.350 . S
N1948 S1946 1.610 . S
N1948 C1949 1.351 . S
C1949 C1943 1.428 . S
C1949 N1948 1.351 . S
C1949 C1950 1.434 . S
C1950 C1941 1.429 . S
C1950 N1947 1.350 . S
C1950 C1949 1.434 . S
C1951 C1952 1.369 . S
C1951 C1953 1.419 . S
C1951 H1955 0.930 . S
C1952 C1951 1.369 . S
C1952 C1961 1.429 . S
C1953 C1951 1.419 . S
C1953 C1954 1.363 . S
C1953 H1956 0.929 . S
C1954 C1953 1.363 . S
C1954 C1960 1.428 . S
H1955 C1951 0.930 . S
H1956 C1953 0.929 . S
S1957 N1958 1.613 . S
S1957 N1959 1.610 . S
N1958 S1957 1.613 . S
N1958 C1961 1.350 . S
N1959 S1957 1.610 . S
N1959 C1960 1.351 . S
C1960 C1954 1.428 . S
C1960 N1959 1.351 . S
C1960 C1961 1.434 . S
C1961 C1952 1.429 . S
C1961 N1958 1.350 . S
C1961 C1960 1.434 . S
C1962 C1963 1.369 . S
C1962 C1964 1.419 . S
C1962 H1966 0.930 . S
C1963 C1962 1.369 . S
C1963 C1972 1.429 . S
C1964 C1962 1.419 . S
C1964 C1965 1.363 . S
C1964 H1967 0.929 . S
C1965 C1964 1.363 . S
C1965 C1971 1.428 . S
H1966 C1962 0.930 . S
H1967 C1964 0.929 . S
S1968 N1969 1.613 . S
S1968 N1970 1.610 . S
N1969 S1968 1.613 . S
N1969 C1972 1.350 . S
N1970 S1968 1.610 . S
N1970 C1971 1.351 . S
C1971 C1965 1.428 . S
C1971 N1970 1.351 . S
C1971 C1972 1.434 . S
C1972 C1963 1.429 . S
C1972 N1969 1.350 . S
C1972 C1971 1.434 . S
C1973 C1974 1.369 . S
C1973 C1975 1.419 . S
C1973 H1977 0.930 . S
C1974 C1973 1.369 . S
C1974 C1983 1.429 . S
C1975 C1973 1.419 . S
C1975 C1976 1.363 . S
C1975 H1978 0.929 . S
C1976 C1975 1.363 . S
C1976 C1982 1.428 . S
H1977 C1973 0.930 . S
H1978 C1975 0.929 . S
S1979 N1980 1.613 . S
S1979 N1981 1.610 . S
N1980 S1979 1.613 . S
N1980 C1983 1.350 . S
N1981 S1979 1.610 . S
N1981 C1982 1.351 . S
C1982 C1976 1.428 . S
C1982 N1981 1.351 . S
C1982 C1983 1.434 . S
C1983 C1974 1.429 . S
C1983 N1980 1.350 . S
C1983 C1982 1.434 . S
C1984 C1985 1.369 . S
C1984 C1986 1.419 . S
C1984 H1988 0.930 . S
C1985 C1984 1.369 . S
C1985 C1994 1.429 . S
C1986 C1984 1.419 . S
C1986 C1987 1.363 . S
C1986 H1989 0.929 . S
C1987 C1986 1.363 . S
C1987 C1993 1.428 . S
H1988 C1984 0.930 . S
H1989 C1986 0.929 . S
S1990 N1991 1.613 . S
S1990 N1992 1.610 . S
N1991 S1990 1.613 . S
N1991 C1994 1.350 . S
N1992 S1990 1.610 . S
N1992 C1993 1.351 . S
C1993 C1987 1.428 . S
C1993 N1992 1.351 . S
C1993 C1994 1.434 . S
C1994 C1985 1.429 . S
C1994 N1991 1.350 . S
C1994 C1993 1.434 . S
C1995 C1996 1.369 . S
C1995 C1997 1.419 . S
C1995 H1999 0.930 . S
C1996 C1995 1.369 . S
C1996 C2005 1.429 . S
C1997 C1995 1.419 . S
C1997 C1998 1.363 . S
C1997 H2000 0.929 . S
C1998 C1997 1.363 . S
C1998 C2004 1.428 . S
H1999 C1995 0.930 . S
H2000 C1997 0.929 . S
S2001 N2002 1.613 . S
S2001 N2003 1.610 . S
N2002 S2001 1.613 . S
N2002 C2005 1.350 . S
N2003 S2001 1.610 . S
N2003 C2004 1.351 . S
C2004 C1998 1.428 . S
C2004 N2003 1.351 . S
C2004 C2005 1.434 . S
C2005 C1996 1.429 . S
C2005 N2002 1.350 . S
C2005 C2004 1.434 . S
C2006 C2007 1.369 . S
C2006 C2008 1.419 . S
C2006 H2010 0.930 . S
C2007 C2006 1.369 . S
C2007 C2016 1.429 . S
C2008 C2006 1.419 . S
C2008 C2009 1.363 . S
C2008 H2011 0.929 . S
C2009 C2008 1.363 . S
C2009 C2015 1.428 . S
H2010 C2006 0.930 . S
H2011 C2008 0.929 . S
S2012 N2013 1.613 . S
S2012 N2014 1.610 . S
N2013 S2012 1.613 . S
N2013 C2016 1.350 . S
N2014 S2012 1.610 . S
N2014 C2015 1.351 . S
C2015 C2009 1.428 . S
C2015 N2014 1.351 . S
C2015 C2016 1.434 . S
C2016 C2007 1.429 . S
C2016 N2013 1.350 . S
C2016 C2015 1.434 . S
C2017 C2018 1.369 . S
C2017 C2019 1.419 . S
C2017 H2021 0.930 . S
C2018 C2017 1.369 . S
C2018 C2027 1.429 . S
C2019 C2017 1.419 . S
C2019 C2020 1.363 . S
C2019 H2022 0.929 . S
C2020 C2019 1.363 . S
C2020 C2026 1.428 . S
H2021 C2017 0.930 . S
H2022 C2019 0.929 . S
S2023 N2024 1.613 . S
S2023 N2025 1.610 . S
N2024 S2023 1.613 . S
N2024 C2027 1.350 . S
N2025 S2023 1.610 . S
N2025 C2026 1.351 . S
C2026 C2020 1.428 . S
C2026 N2025 1.351 . S
C2026 C2027 1.434 . S
C2027 C2018 1.429 . S
C2027 N2024 1.350 . S
C2027 C2026 1.434 . S
C2028 C2029 1.369 . S
C2028 C2030 1.419 . S
C2028 H2032 0.930 . S
C2029 C2028 1.369 . S
C2029 C2038 1.429 . S
C2030 C2028 1.419 . S
C2030 C2031 1.363 . S
C2030 H2033 0.929 . S
C2031 C2030 1.363 . S
C2031 C2037 1.428 . S
H2032 C2028 0.930 . S
H2033 C2030 0.929 . S
S2034 N2035 1.613 . S
S2034 N2036 1.610 1_565 S
N2035 S2034 1.613 . S
N2035 C2038 1.350 . S
N2036 S2034 1.610 1_545 S
N2036 C2037 1.351 1_545 S
C2037 C2031 1.428 . S
C2037 N2036 1.351 1_565 S
C2037 C2038 1.434 . S
C2038 C2029 1.429 . S
C2038 N2035 1.350 . S
C2038 C2037 1.434 . S
C2039 C2040 1.369 . S
C2039 C2041 1.419 . S
C2039 H2043 0.930 . S
C2040 C2039 1.369 . S
C2040 C2049 1.429 . S
C2041 C2039 1.419 . S
C2041 C2042 1.363 . S
C2041 H2044 0.929 . S
C2042 C2041 1.363 . S
C2042 C2048 1.428 . S
H2043 C2039 0.930 . S
H2044 C2041 0.929 . S
S2045 N2046 1.613 . S
S2045 N2047 1.610 . S
N2046 S2045 1.613 . S
N2046 C2049 1.350 . S
N2047 S2045 1.610 . S
N2047 C2048 1.351 . S
C2048 C2042 1.428 . S
C2048 N2047 1.351 . S
C2048 C2049 1.434 . S
C2049 C2040 1.429 . S
C2049 N2046 1.350 . S
C2049 C2048 1.434 . S
C2050 C2051 1.369 . S
C2050 C2052 1.419 . S
C2050 H2054 0.930 . S
C2051 C2050 1.369 . S
C2051 C2060 1.429 . S
C2052 C2050 1.419 . S
C2052 C2053 1.363 . S
C2052 H2055 0.929 . S
C2053 C2052 1.363 . S
C2053 C2059 1.428 . S
H2054 C2050 0.930 . S
H2055 C2052 0.929 . S
S2056 N2057 1.613 . S
S2056 N2058 1.610 . S
N2057 S2056 1.613 . S
N2057 C2060 1.350 . S
N2058 S2056 1.610 . S
N2058 C2059 1.351 . S
C2059 C2053 1.428 . S
C2059 N2058 1.351 . S
C2059 C2060 1.434 . S
C2060 C2051 1.429 . S
C2060 N2057 1.350 . S
C2060 C2059 1.434 . S
C2061 C2062 1.369 . S
C2061 C2063 1.419 . S
C2061 H2065 0.930 . S
C2062 C2061 1.369 . S
C2062 C2071 1.429 . S
C2063 C2061 1.419 . S
C2063 C2064 1.363 . S
C2063 H2066 0.929 . S
C2064 C2063 1.363 . S
C2064 C2070 1.428 . S
H2065 C2061 0.930 . S
H2066 C2063 0.929 . S
S2067 N2068 1.613 . S
S2067 N2069 1.610 . S
N2068 S2067 1.613 . S
N2068 C2071 1.350 . S
N2069 S2067 1.610 . S
N2069 C2070 1.351 . S
C2070 C2064 1.428 . S
C2070 N2069 1.351 . S
C2070 C2071 1.434 . S
C2071 C2062 1.429 . S
C2071 N2068 1.350 . S
C2071 C2070 1.434 . S
C2072 C2073 1.369 . S
C2072 C2074 1.419 . S
C2072 H2076 0.930 . S
C2073 C2072 1.369 . S
C2073 C2082 1.429 . S
C2074 C2072 1.419 . S
C2074 C2075 1.363 . S
C2074 H2077 0.929 . S
C2075 C2074 1.363 . S
C2075 C2081 1.428 . S
H2076 C2072 0.930 . S
H2077 C2074 0.929 . S
S2078 N2079 1.613 . S
S2078 N2080 1.610 . S
N2079 S2078 1.613 . S
N2079 C2082 1.350 . S
N2080 S2078 1.610 . S
N2080 C2081 1.351 . S
C2081 C2075 1.428 . S
C2081 N2080 1.351 . S
C2081 C2082 1.434 . S
C2082 C2073 1.429 . S
C2082 N2079 1.350 . S
C2082 C2081 1.434 . S
C2083 C2084 1.369 . S
C2083 C2085 1.419 . S
C2083 H2087 0.930 . S
C2084 C2083 1.369 . S
C2084 C2093 1.429 . S
C2085 C2083 1.419 . S
C2085 C2086 1.363 . S
C2085 H2088 0.929 . S
C2086 C2085 1.363 . S
C2086 C2092 1.428 . S
H2087 C2083 0.930 . S
H2088 C2085 0.929 . S
S2089 N2090 1.613 . S
S2089 N2091 1.610 . S
N2090 S2089 1.613 . S
N2090 C2093 1.350 . S
N2091 S2089 1.610 . S
N2091 C2092 1.351 . S
C2092 C2086 1.428 . S
C2092 N2091 1.351 . S
C2092 C2093 1.434 . S
C2093 C2084 1.429 . S
C2093 N2090 1.350 . S
C2093 C2092 1.434 . S
C2094 C2095 1.369 . S
C2094 C2096 1.419 . S
C2094 H2098 0.930 . S
C2095 C2094 1.369 . S
C2095 C2104 1.429 . S
C2096 C2094 1.419 . S
C2096 C2097 1.363 . S
C2096 H2099 0.929 . S
C2097 C2096 1.363 . S
C2097 C2103 1.428 . S
H2098 C2094 0.930 . S
H2099 C2096 0.929 . S
S2100 N2101 1.613 1_556 S
S2100 N2102 1.610 . S
N2101 S2100 1.613 1_554 S
N2101 C2104 1.350 1_554 S
N2102 S2100 1.610 . S
N2102 C2103 1.351 . S
C2103 C2097 1.428 . S
C2103 N2102 1.351 . S
C2103 C2104 1.434 . S
C2104 C2095 1.429 . S
C2104 N2101 1.350 1_556 S
C2104 C2103 1.434 . S
C2105 C2106 1.369 . S
C2105 C2107 1.419 . S
C2105 H2109 0.930 . S
C2106 C2105 1.369 . S
C2106 C2115 1.429 . S
C2107 C2105 1.419 . S
C2107 C2108 1.363 . S
C2107 H2110 0.929 . S
C2108 C2107 1.363 . S
C2108 C2114 1.428 . S
H2109 C2105 0.930 . S
H2110 C2107 0.929 . S
S2111 N2112 1.613 . S
S2111 N2113 1.610 . S
N2112 S2111 1.613 . S
N2112 C2115 1.350 . S
N2113 S2111 1.610 . S
N2113 C2114 1.351 . S
C2114 C2108 1.428 . S
C2114 N2113 1.351 . S
C2114 C2115 1.434 . S
C2115 C2106 1.429 . S
C2115 N2112 1.350 . S
C2115 C2114 1.434 . S
C2116 C2117 1.369 . S
C2116 C2118 1.419 . S
C2116 H2120 0.930 . S
C2117 C2116 1.369 . S
C2117 C2126 1.429 . S
C2118 C2116 1.419 . S
C2118 C2119 1.363 . S
C2118 H2121 0.929 . S
C2119 C2118 1.363 . S
C2119 C2125 1.428 . S
H2120 C2116 0.930 . S
H2121 C2118 0.929 . S
S2122 N2123 1.613 . S
S2122 N2124 1.610 . S
N2123 S2122 1.613 . S
N2123 C2126 1.350 . S
N2124 S2122 1.610 . S
N2124 C2125 1.351 . S
C2125 C2119 1.428 . S
C2125 N2124 1.351 . S
C2125 C2126 1.434 . S
C2126 C2117 1.429 . S
C2126 N2123 1.350 . S
C2126 C2125 1.434 . S
C2127 C2128 1.369 . S
C2127 C2129 1.419 . S
C2127 H2131 0.930 . S
C2128 C2127 1.369 . S
C2128 C2137 1.429 . S
C2129 C2127 1.419 . S
C2129 C2130 1.363 . S
C2129 H2132 0.929 . S
C2130 C2129 1.363 . S
C2130 C2136 1.428 . S
H2131 C2127 0.930 . S
H2132 C2129 0.929 . S
S2133 N2134 1.613 . S
S2133 N2135 1.610 . S
N2134 S2133 1.613 . S
N2134 C2137 1.350 . S
N2135 S2133 1.610 . S
N2135 C2136 1.351 . S
C2136 C2130 1.428 . S
C2136 N2135 1.351 . S
C2136 C2137 1.434 . S
C2137 C2128 1.429 . S
C2137 N2134 1.350 . S
C2137 C2136 1.434 . S
C2138 C2139 1.369 . S
C2138 C2140 1.419 . S
C2138 H2142 0.930 . S
C2139 C2138 1.369 . S
C2139 C2148 1.429 . S
C2140 C2138 1.419 . S
C2140 C2141 1.363 . S
C2140 H2143 0.929 . S
C2141 C2140 1.363 . S
C2141 C2147 1.428 . S
H2142 C2138 0.930 . S
H2143 C2140 0.929 . S
S2144 N2145 1.613 . S
S2144 N2146 1.610 . S
N2145 S2144 1.613 . S
N2145 C2148 1.350 . S
N2146 S2144 1.610 . S
N2146 C2147 1.351 . S
C2147 C2141 1.428 . S
C2147 N2146 1.351 . S
C2147 C2148 1.434 . S
C2148 C2139 1.429 . S
C2148 N2145 1.350 . S
C2148 C2147 1.434 . S
C2149 C2150 1.369 . S
C2149 C2151 1.419 . S
C2149 H2153 0.930 . S
C2150 C2149 1.369 . S
C2150 C2159 1.429 . S
C2151 C2149 1.419 . S
C2151 C2152 1.363 . S
C2151 H2154 0.929 . S
C2152 C2151 1.363 . S
C2152 C2158 1.428 . S
H2153 C2149 0.930 . S
H2154 C2151 0.929 . S
S2155 N2156 1.613 . S
S2155 N2157 1.610 . S
N2156 S2155 1.613 . S
N2156 C2159 1.350 . S
N2157 S2155 1.610 . S
N2157 C2158 1.351 . S
C2158 C2152 1.428 . S
C2158 N2157 1.351 . S
C2158 C2159 1.434 . S
C2159 C2150 1.429 . S
C2159 N2156 1.350 . S
C2159 C2158 1.434 . S
C2160 C2161 1.369 . S
C2160 C2162 1.419 . S
C2160 H2164 0.930 . S
C2161 C2160 1.369 . S
C2161 C2170 1.429 . S
C2162 C2160 1.419 . S
C2162 C2163 1.363 . S
C2162 H2165 0.929 . S
C2163 C2162 1.363 . S
C2163 C2169 1.428 . S
H2164 C2160 0.930 . S
H2165 C2162 0.929 . S
S2166 N2167 1.613 . S
S2166 N2168 1.610 . S
N2167 S2166 1.613 . S
N2167 C2170 1.350 . S
N2168 S2166 1.610 . S
N2168 C2169 1.351 . S
C2169 C2163 1.428 . S
C2169 N2168 1.351 . S
C2169 C2170 1.434 . S
C2170 C2161 1.429 . S
C2170 N2167 1.350 . S
C2170 C2169 1.434 . S
C2171 C2172 1.369 . S
C2171 C2173 1.419 . S
C2171 H2175 0.930 . S
C2172 C2171 1.369 . S
C2172 C2181 1.429 . S
C2173 C2171 1.419 . S
C2173 C2174 1.363 . S
C2173 H2176 0.929 . S
C2174 C2173 1.363 . S
C2174 C2180 1.428 . S
H2175 C2171 0.930 . S
H2176 C2173 0.929 . S
S2177 N2178 1.613 . S
S2177 N2179 1.610 . S
N2178 S2177 1.613 . S
N2178 C2181 1.350 . S
N2179 S2177 1.610 . S
N2179 C2180 1.351 . S
C2180 C2174 1.428 . S
C2180 N2179 1.351 . S
C2180 C2181 1.434 . S
C2181 C2172 1.429 . S
C2181 N2178 1.350 . S
C2181 C2180 1.434 . S
C2182 C2183 1.369 . S
C2182 C2184 1.419 . S
C2182 H2186 0.930 . S
C2183 C2182 1.369 . S
C2183 C2192 1.429 . S
C2184 C2182 1.419 . S
C2184 C2185 1.363 . S
C2184 H2187 0.929 . S
C2185 C2184 1.363 . S
C2185 C2191 1.428 . S
H2186 C2182 0.930 . S
H2187 C2184 0.929 . S
S2188 N2189 1.613 . S
S2188 N2190 1.610 . S
N2189 S2188 1.613 . S
N2189 C2192 1.350 . S
N2190 S2188 1.610 . S
N2190 C2191 1.351 . S
C2191 C2185 1.428 . S
C2191 N2190 1.351 . S
C2191 C2192 1.434 . S
C2192 C2183 1.429 . S
C2192 N2189 1.350 . S
C2192 C2191 1.434 . S
C2193 C2194 1.369 . S
C2193 C2195 1.419 . S
C2193 H2197 0.930 . S
C2194 C2193 1.369 . S
C2194 C2203 1.429 . S
C2195 C2193 1.419 . S
C2195 C2196 1.363 . S
C2195 H2198 0.929 . S
C2196 C2195 1.363 . S
C2196 C2202 1.428 . S
H2197 C2193 0.930 . S
H2198 C2195 0.929 . S
S2199 N2200 1.613 . S
S2199 N2201 1.610 . S
N2200 S2199 1.613 . S
N2200 C2203 1.350 . S
N2201 S2199 1.610 . S
N2201 C2202 1.351 . S
C2202 C2196 1.428 . S
C2202 N2201 1.351 . S
C2202 C2203 1.434 . S
C2203 C2194 1.429 . S
C2203 N2200 1.350 . S
C2203 C2202 1.434 . S
C2204 C2205 1.369 . S
C2204 C2206 1.419 . S
C2204 H2208 0.930 . S
C2205 C2204 1.369 . S
C2205 C2214 1.429 . S
C2206 C2204 1.419 . S
C2206 C2207 1.363 . S
C2206 H2209 0.929 . S
C2207 C2206 1.363 . S
C2207 C2213 1.428 . S
H2208 C2204 0.930 . S
H2209 C2206 0.929 . S
S2210 N2211 1.613 . S
S2210 N2212 1.610 . S
N2211 S2210 1.613 . S
N2211 C2214 1.350 . S
N2212 S2210 1.610 . S
N2212 C2213 1.351 . S
C2213 C2207 1.428 . S
C2213 N2212 1.351 . S
C2213 C2214 1.434 . S
C2214 C2205 1.429 . S
C2214 N2211 1.350 . S
C2214 C2213 1.434 . S
C2215 C2216 1.369 . S
C2215 C2217 1.419 . S
C2215 H2219 0.930 . S
C2216 C2215 1.369 . S
C2216 C2225 1.429 . S
C2217 C2215 1.419 . S
C2217 C2218 1.363 . S
C2217 H2220 0.929 . S
C2218 C2217 1.363 . S
C2218 C2224 1.428 . S
H2219 C2215 0.930 . S
H2220 C2217 0.929 . S
S2221 N2222 1.613 . S
S2221 N2223 1.610 . S
N2222 S2221 1.613 . S
N2222 C2225 1.350 . S
N2223 S2221 1.610 . S
N2223 C2224 1.351 . S
C2224 C2218 1.428 . S
C2224 N2223 1.351 . S
C2224 C2225 1.434 . S
C2225 C2216 1.429 . S
C2225 N2222 1.350 . S
C2225 C2224 1.434 . S
C2226 C2227 1.369 . S
C2226 C2228 1.419 . S
C2226 H2230 0.930 . S
C2227 C2226 1.369 . S
C2227 C2236 1.429 . S
C2228 C2226 1.419 . S
C2228 C2229 1.363 . S
C2228 H2231 0.929 . S
C2229 C2228 1.363 . S
C2229 C2235 1.428 . S
H2230 C2226 0.930 . S
H2231 C2228 0.929 . S
S2232 N2233 1.613 . S
S2232 N2234 1.610 1_455 S
N2233 S2232 1.613 . S
N2233 C2236 1.350 1_455 S
N2234 S2232 1.610 1_655 S
N2234 C2235 1.351 . S
C2235 C2229 1.428 . S
C2235 N2234 1.351 . S
C2235 C2236 1.434 . S
C2236 C2227 1.429 . S
C2236 N2233 1.350 1_655 S
C2236 C2235 1.434 . S
C2237 C2238 1.369 . S
C2237 C2239 1.419 . S
C2237 H2241 0.930 . S
C2238 C2237 1.369 . S
C2238 C2247 1.429 . S
C2239 C2237 1.419 . S
C2239 C2240 1.363 . S
C2239 H2242 0.929 . S
C2240 C2239 1.363 . S
C2240 C2246 1.428 . S
H2241 C2237 0.930 . S
H2242 C2239 0.929 . S
S2243 N2244 1.613 . S
S2243 N2245 1.610 . S
N2244 S2243 1.613 . S
N2244 C2247 1.350 . S
N2245 S2243 1.610 . S
N2245 C2246 1.351 . S
C2246 C2240 1.428 . S
C2246 N2245 1.351 . S
C2246 C2247 1.434 . S
C2247 C2238 1.429 . S
C2247 N2244 1.350 . S
C2247 C2246 1.434 . S
C2248 C2249 1.369 . S
C2248 C2250 1.419 . S
C2248 H2252 0.930 . S
C2249 C2248 1.369 . S
C2249 C2258 1.429 . S
C2250 C2248 1.419 . S
C2250 C2251 1.363 . S
C2250 H2253 0.929 . S
C2251 C2250 1.363 . S
C2251 C2257 1.428 . S
H2252 C2248 0.930 . S
H2253 C2250 0.929 . S
S2254 N2255 1.613 . S
S2254 N2256 1.610 . S
N2255 S2254 1.613 . S
N2255 C2258 1.350 . S
N2256 S2254 1.610 . S
N2256 C2257 1.351 . S
C2257 C2251 1.428 . S
C2257 N2256 1.351 . S
C2257 C2258 1.434 . S
C2258 C2249 1.429 . S
C2258 N2255 1.350 . S
C2258 C2257 1.434 . S
C2259 C2260 1.369 . S
C2259 C2261 1.419 . S
C2259 H2263 0.930 . S
C2260 C2259 1.369 . S
C2260 C2269 1.429 . S
C2261 C2259 1.419 . S
C2261 C2262 1.363 . S
C2261 H2264 0.929 . S
C2262 C2261 1.363 . S
C2262 C2268 1.428 . S
H2263 C2259 0.930 . S
H2264 C2261 0.929 . S
S2265 N2266 1.613 . S
S2265 N2267 1.610 . S
N2266 S2265 1.613 . S
N2266 C2269 1.350 . S
N2267 S2265 1.610 . S
N2267 C2268 1.351 . S
C2268 C2262 1.428 . S
C2268 N2267 1.351 . S
C2268 C2269 1.434 . S
C2269 C2260 1.429 . S
C2269 N2266 1.350 . S
C2269 C2268 1.434 . S
C2270 C2271 1.369 . S
C2270 C2272 1.419 . S
C2270 H2274 0.930 . S
C2271 C2270 1.369 . S
C2271 C2280 1.429 . S
C2272 C2270 1.419 . S
C2272 C2273 1.363 . S
C2272 H2275 0.929 . S
C2273 C2272 1.363 . S
C2273 C2279 1.428 . S
H2274 C2270 0.930 . S
H2275 C2272 0.929 . S
S2276 N2277 1.613 . S
S2276 N2278 1.610 . S
N2277 S2276 1.613 . S
N2277 C2280 1.350 . S
N2278 S2276 1.610 . S
N2278 C2279 1.351 . S
C2279 C2273 1.428 . S
C2279 N2278 1.351 . S
C2279 C2280 1.434 . S
C2280 C2271 1.429 . S
C2280 N2277 1.350 . S
C2280 C2279 1.434 . S
C2281 C2282 1.369 . S
C2281 C2283 1.419 . S
C2281 H2285 0.930 . S
C2282 C2281 1.369 . S
C2282 C2291 1.429 . S
C2283 C2281 1.419 . S
C2283 C2284 1.363 . S
C2283 H2286 0.929 . S
C2284 C2283 1.363 . S
C2284 C2290 1.428 . S
H2285 C2281 0.930 . S
H2286 C2283 0.929 . S
S2287 N2288 1.613 . S
S2287 N2289 1.610 . S
N2288 S2287 1.613 . S
N2288 C2291 1.350 . S
N2289 S2287 1.610 . S
N2289 C2290 1.351 . S
C2290 C2284 1.428 . S
C2290 N2289 1.351 . S
C2290 C2291 1.434 . S
C2291 C2282 1.429 . S
C2291 N2288 1.350 . S
C2291 C2290 1.434 . S
C2292 C2293 1.369 . S
C2292 C2294 1.419 . S
C2292 H2296 0.930 . S
C2293 C2292 1.369 . S
C2293 C2302 1.429 . S
C2294 C2292 1.419 . S
C2294 C2295 1.363 . S
C2294 H2297 0.929 . S
C2295 C2294 1.363 . S
C2295 C2301 1.428 . S
H2296 C2292 0.930 . S
H2297 C2294 0.929 . S
S2298 N2299 1.613 . S
S2298 N2300 1.610 . S
N2299 S2298 1.613 . S
N2299 C2302 1.350 . S
N2300 S2298 1.610 . S
N2300 C2301 1.351 . S
C2301 C2295 1.428 . S
C2301 N2300 1.351 . S
C2301 C2302 1.434 . S
C2302 C2293 1.429 . S
C2302 N2299 1.350 . S
C2302 C2301 1.434 . S
C2303 C2304 1.369 . S
C2303 C2305 1.419 . S
C2303 H2307 0.930 . S
C2304 C2303 1.369 . S
C2304 C2313 1.429 . S
C2305 C2303 1.419 . S
C2305 C2306 1.363 . S
C2305 H2308 0.929 . S
C2306 C2305 1.363 . S
C2306 C2312 1.428 . S
H2307 C2303 0.930 . S
H2308 C2305 0.929 . S
S2309 N2310 1.613 . S
S2309 N2311 1.610 . S
N2310 S2309 1.613 . S
N2310 C2313 1.350 . S
N2311 S2309 1.610 . S
N2311 C2312 1.351 . S
C2312 C2306 1.428 . S
C2312 N2311 1.351 . S
C2312 C2313 1.434 . S
C2313 C2304 1.429 . S
C2313 N2310 1.350 . S
C2313 C2312 1.434 . S
C2314 C2315 1.369 . S
C2314 C2316 1.419 . S
C2314 H2318 0.930 . S
C2315 C2314 1.369 . S
C2315 C2324 1.429 . S
C2316 C2314 1.419 . S
C2316 C2317 1.363 . S
C2316 H2319 0.929 . S
C2317 C2316 1.363 . S
C2317 C2323 1.428 . S
H2318 C2314 0.930 . S
H2319 C2316 0.929 . S
S2320 N2321 1.613 . S
S2320 N2322 1.610 . S
N2321 S2320 1.613 . S
N2321 C2324 1.350 . S
N2322 S2320 1.610 . S
N2322 C2323 1.351 . S
C2323 C2317 1.428 . S
C2323 N2322 1.351 . S
C2323 C2324 1.434 . S
C2324 C2315 1.429 . S
C2324 N2321 1.350 . S
C2324 C2323 1.434 . S
C2325 C2326 1.369 . S
C2325 C2327 1.419 . S
C2325 H2329 0.930 . S
C2326 C2325 1.369 . S
C2326 C2335 1.429 . S
C2327 C2325 1.419 . S
C2327 C2328 1.363 . S
C2327 H2330 0.929 1_655 S
C2328 C2327 1.363 . S
C2328 C2334 1.428 . S
H2329 C2325 0.930 . S
H2330 C2327 0.929 1_455 S
S2331 N2332 1.613 . S
S2331 N2333 1.610 . S
N2332 S2331 1.613 . S
N2332 C2335 1.350 . S
N2333 S2331 1.610 . S
N2333 C2334 1.351 . S
C2334 C2328 1.428 . S
C2334 N2333 1.351 . S
C2334 C2335 1.434 . S
C2335 C2326 1.429 . S
C2335 N2332 1.350 . S
C2335 C2334 1.434 . S
C2336 C2337 1.369 . S
C2336 C2338 1.419 . S
C2336 H2340 0.930 . S
C2337 C2336 1.369 . S
C2337 C2346 1.429 . S
C2338 C2336 1.419 . S
C2338 C2339 1.363 . S
C2338 H2341 0.929 . S
C2339 C2338 1.363 . S
C2339 C2345 1.428 . S
H2340 C2336 0.930 . S
H2341 C2338 0.929 . S
S2342 N2343 1.613 . S
S2342 N2344 1.610 . S
N2343 S2342 1.613 . S
N2343 C2346 1.350 . S
N2344 S2342 1.610 . S
N2344 C2345 1.351 . S
C2345 C2339 1.428 . S
C2345 N2344 1.351 . S
C2345 C2346 1.434 . S
C2346 C2337 1.429 . S
C2346 N2343 1.350 . S
C2346 C2345 1.434 . S
C2347 C2348 1.369 . S
C2347 C2349 1.419 . S
C2347 H2351 0.930 . S
C2348 C2347 1.369 . S
C2348 C2357 1.429 . S
C2349 C2347 1.419 . S
C2349 C2350 1.363 . S
C2349 H2352 0.929 . S
C2350 C2349 1.363 . S
C2350 C2356 1.428 . S
H2351 C2347 0.930 . S
H2352 C2349 0.929 . S
S2353 N2354 1.613 . S
S2353 N2355 1.610 . S
N2354 S2353 1.613 . S
N2354 C2357 1.350 . S
N2355 S2353 1.610 . S
N2355 C2356 1.351 . S
C2356 C2350 1.428 . S
C2356 N2355 1.351 . S
C2356 C2357 1.434 . S
C2357 C2348 1.429 . S
C2357 N2354 1.350 . S
C2357 C2356 1.434 . S
C2358 C2359 1.369 . S
C2358 C2360 1.419 . S
C2358 H2362 0.930 . S
C2359 C2358 1.369 . S
C2359 C2368 1.429 . S
C2360 C2358 1.419 . S
C2360 C2361 1.363 . S
C2360 H2363 0.929 . S
C2361 C2360 1.363 . S
C2361 C2367 1.428 . S
H2362 C2358 0.930 . S
H2363 C2360 0.929 . S
S2364 N2365 1.613 . S
S2364 N2366 1.610 . S
N2365 S2364 1.613 . S
N2365 C2368 1.350 . S
N2366 S2364 1.610 . S
N2366 C2367 1.351 . S
C2367 C2361 1.428 . S
C2367 N2366 1.351 . S
C2367 C2368 1.434 . S
C2368 C2359 1.429 . S
C2368 N2365 1.350 . S
C2368 C2367 1.434 . S
C2369 C2370 1.369 . S
C2369 C2371 1.419 . S
C2369 H2373 0.930 . S
C2370 C2369 1.369 . S
C2370 C2379 1.429 . S
C2371 C2369 1.419 . S
C2371 C2372 1.363 . S
C2371 H2374 0.929 . S
C2372 C2371 1.363 . S
C2372 C2378 1.428 . S
H2373 C2369 0.930 . S
H2374 C2371 0.929 . S
S2375 N2376 1.613 . S
S2375 N2377 1.610 . S
N2376 S2375 1.613 . S
N2376 C2379 1.350 . S
N2377 S2375 1.610 . S
N2377 C2378 1.351 . S
C2378 C2372 1.428 . S
C2378 N2377 1.351 . S
C2378 C2379 1.434 . S
C2379 C2370 1.429 . S
C2379 N2376 1.350 . S
C2379 C2378 1.434 . S
C2380 C2381 1.369 . S
C2380 C2382 1.419 . S
C2380 H2384 0.930 . S
C2381 C2380 1.369 . S
C2381 C2390 1.429 . S
C2382 C2380 1.419 . S
C2382 C2383 1.363 . S
C2382 H2385 0.929 . S
C2383 C2382 1.363 . S
C2383 C2389 1.428 . S
H2384 C2380 0.930 . S
H2385 C2382 0.929 . S
S2386 N2387 1.613 . S
S2386 N2388 1.610 . S
N2387 S2386 1.613 . S
N2387 C2390 1.350 . S
N2388 S2386 1.610 . S
N2388 C2389 1.351 . S
C2389 C2383 1.428 . S
C2389 N2388 1.351 . S
C2389 C2390 1.434 . S
C2390 C2381 1.429 . S
C2390 N2387 1.350 . S
C2390 C2389 1.434 . S
C2391 C2392 1.369 . S
C2391 C2393 1.419 . S
C2391 H2395 0.930 . S
C2392 C2391 1.369 . S
C2392 C2401 1.429 . S
C2393 C2391 1.419 . S
C2393 C2394 1.363 . S
C2393 H2396 0.929 . S
C2394 C2393 1.363 . S
C2394 C2400 1.428 . S
H2395 C2391 0.930 . S
H2396 C2393 0.929 . S
S2397 N2398 1.613 . S
S2397 N2399 1.610 . S
N2398 S2397 1.613 . S
N2398 C2401 1.350 . S
N2399 S2397 1.610 . S
N2399 C2400 1.351 . S
C2400 C2394 1.428 . S
C2400 N2399 1.351 . S
C2400 C2401 1.434 . S
C2401 C2392 1.429 . S
C2401 N2398 1.350 . S
C2401 C2400 1.434 . S
C2402 C2403 1.369 . S
C2402 C2404 1.419 . S
C2402 H2406 0.930 . S
C2403 C2402 1.369 . S
C2403 C2412 1.429 . S
C2404 C2402 1.419 . S
C2404 C2405 1.363 . S
C2404 H2407 0.929 . S
C2405 C2404 1.363 . S
C2405 C2411 1.428 . S
H2406 C2402 0.930 . S
H2407 C2404 0.929 . S
S2408 N2409 1.613 . S
S2408 N2410 1.610 . S
N2409 S2408 1.613 . S
N2409 C2412 1.350 . S
N2410 S2408 1.610 . S
N2410 C2411 1.351 . S
C2411 C2405 1.428 . S
C2411 N2410 1.351 . S
C2411 C2412 1.434 . S
C2412 C2403 1.429 . S
C2412 N2409 1.350 . S
C2412 C2411 1.434 . S
C2413 C2414 1.369 . S
C2413 C2415 1.419 . S
C2413 H2417 0.930 . S
C2414 C2413 1.369 . S
C2414 C2423 1.429 . S
C2415 C2413 1.419 . S
C2415 C2416 1.363 . S
C2415 H2418 0.929 . S
C2416 C2415 1.363 . S
C2416 C2422 1.428 . S
H2417 C2413 0.930 . S
H2418 C2415 0.929 . S
S2419 N2420 1.613 . S
S2419 N2421 1.610 . S
N2420 S2419 1.613 . S
N2420 C2423 1.350 . S
N2421 S2419 1.610 . S
N2421 C2422 1.351 . S
C2422 C2416 1.428 . S
C2422 N2421 1.351 . S
C2422 C2423 1.434 . S
C2423 C2414 1.429 . S
C2423 N2420 1.350 . S
C2423 C2422 1.434 . S
C2424 C2425 1.369 . S
C2424 C2426 1.419 . S
C2424 H2428 0.930 . S
C2425 C2424 1.369 . S
C2425 C2434 1.429 . S
C2426 C2424 1.419 . S
C2426 C2427 1.363 . S
C2426 H2429 0.929 . S
C2427 C2426 1.363 . S
C2427 C2433 1.428 . S
H2428 C2424 0.930 . S
H2429 C2426 0.929 . S
S2430 N2431 1.613 . S
S2430 N2432 1.610 . S
N2431 S2430 1.613 . S
N2431 C2434 1.350 . S
N2432 S2430 1.610 . S
N2432 C2433 1.351 . S
C2433 C2427 1.428 . S
C2433 N2432 1.351 . S
C2433 C2434 1.434 . S
C2434 C2425 1.429 . S
C2434 N2431 1.350 . S
C2434 C2433 1.434 . S
C2435 C2436 1.369 . S
C2435 C2437 1.419 . S
C2435 H2439 0.930 . S
C2436 C2435 1.369 . S
C2436 C2445 1.429 . S
C2437 C2435 1.419 . S
C2437 C2438 1.363 . S
C2437 H2440 0.929 . S
C2438 C2437 1.363 . S
C2438 C2444 1.428 . S
H2439 C2435 0.930 . S
H2440 C2437 0.929 . S
S2441 N2442 1.613 . S
S2441 N2443 1.610 . S
N2442 S2441 1.613 . S
N2442 C2445 1.350 . S
N2443 S2441 1.610 . S
N2443 C2444 1.351 . S
C2444 C2438 1.428 . S
C2444 N2443 1.351 . S
C2444 C2445 1.434 . S
C2445 C2436 1.429 . S
C2445 N2442 1.350 . S
C2445 C2444 1.434 . S
C2446 C2447 1.369 . S
C2446 C2448 1.419 . S
C2446 H2450 0.930 . S
C2447 C2446 1.369 . S
C2447 C2456 1.429 . S
C2448 C2446 1.419 . S
C2448 C2449 1.363 . S
C2448 H2451 0.929 . S
C2449 C2448 1.363 . S
C2449 C2455 1.428 . S
H2450 C2446 0.930 . S
H2451 C2448 0.929 . S
S2452 N2453 1.613 . S
S2452 N2454 1.610 . S
N2453 S2452 1.613 . S
N2453 C2456 1.350 . S
N2454 S2452 1.610 . S
N2454 C2455 1.351 . S
C2455 C2449 1.428 . S
C2455 N2454 1.351 . S
C2455 C2456 1.434 . S
C2456 C2447 1.429 . S
C2456 N2453 1.350 . S
C2456 C2455 1.434 . S
C2457 C2458 1.369 . S
C2457 C2459 1.419 . S
C2457 H2461 0.930 . S
C2458 C2457 1.369 . S
C2458 C2467 1.429 . S
C2459 C2457 1.419 . S
C2459 C2460 1.363 . S
C2459 H2462 0.929 . S
C2460 C2459 1.363 . S
C2460 C2466 1.428 . S
H2461 C2457 0.930 . S
H2462 C2459 0.929 . S
S2463 N2464 1.613 . S
S2463 N2465 1.610 . S
N2464 S2463 1.613 . S
N2464 C2467 1.350 . S
N2465 S2463 1.610 . S
N2465 C2466 1.351 . S
C2466 C2460 1.428 . S
C2466 N2465 1.351 . S
C2466 C2467 1.434 . S
C2467 C2458 1.429 . S
C2467 N2464 1.350 . S
C2467 C2466 1.434 . S
C2468 C2469 1.369 . S
C2468 C2470 1.419 . S
C2468 H2472 0.930 . S
C2469 C2468 1.369 . S
C2469 C2478 1.429 . S
C2470 C2468 1.419 . S
C2470 C2471 1.363 . S
C2470 H2473 0.929 . S
C2471 C2470 1.363 . S
C2471 C2477 1.428 . S
H2472 C2468 0.930 . S
H2473 C2470 0.929 . S
S2474 N2475 1.613 . S
S2474 N2476 1.610 . S
N2475 S2474 1.613 . S
N2475 C2478 1.350 . S
N2476 S2474 1.610 . S
N2476 C2477 1.351 . S
C2477 C2471 1.428 . S
C2477 N2476 1.351 . S
C2477 C2478 1.434 . S
C2478 C2469 1.429 . S
C2478 N2475 1.350 . S
C2478 C2477 1.434 . S
C2479 C2480 1.369 . S
C2479 C2481 1.419 . S
C2479 H2483 0.930 . S
C2480 C2479 1.369 . S
C2480 C2489 1.429 . S
C2481 C2479 1.419 . S
C2481 C2482 1.363 . S
C2481 H2484 0.929 . S
C2482 C2481 1.363 . S
C2482 C2488 1.428 . S
H2483 C2479 0.930 . S
H2484 C2481 0.929 . S
S2485 N2486 1.613 . S
S2485 N2487 1.610 . S
N2486 S2485 1.613 . S
N2486 C2489 1.350 . S
N2487 S2485 1.610 . S
N2487 C2488 1.351 . S
C2488 C2482 1.428 . S
C2488 N2487 1.351 . S
C2488 C2489 1.434 . S
C2489 C2480 1.429 . S
C2489 N2486 1.350 . S
C2489 C2488 1.434 . S
C2490 C2491 1.369 . S
C2490 C2492 1.419 . S
C2490 H2494 0.930 . S
C2491 C2490 1.369 . S
C2491 C2500 1.429 . S
C2492 C2490 1.419 . S
C2492 C2493 1.363 . S
C2492 H2495 0.929 . S
C2493 C2492 1.363 . S
C2493 C2499 1.428 . S
H2494 C2490 0.930 . S
H2495 C2492 0.929 . S
S2496 N2497 1.613 . S
S2496 N2498 1.610 . S
N2497 S2496 1.613 . S
N2497 C2500 1.350 . S
N2498 S2496 1.610 . S
N2498 C2499 1.351 . S
C2499 C2493 1.428 . S
C2499 N2498 1.351 . S
C2499 C2500 1.434 . S
C2500 C2491 1.429 . S
C2500 N2497 1.350 . S
C2500 C2499 1.434 . S
C2501 C2502 1.369 . S
C2501 C2503 1.419 . S
C2501 H2505 0.930 . S
C2502 C2501 1.369 . S
C2502 C2511 1.429 . S
C2503 C2501 1.419 . S
C2503 C2504 1.363 . S
C2503 H2506 0.929 . S
C2504 C2503 1.363 . S
C2504 C2510 1.428 . S
H2505 C2501 0.930 . S
H2506 C2503 0.929 . S
S2507 N2508 1.613 . S
S2507 N2509 1.610 . S
N2508 S2507 1.613 . S
N2508 C2511 1.350 . S
N2509 S2507 1.610 . S
N2509 C2510 1.351 . S
C2510 C2504 1.428 . S
C2510 N2509 1.351 . S
C2510 C2511 1.434 . S
C2511 C2502 1.429 . S
C2511 N2508 1.350 . S
C2511 C2510 1.434 . S
C2512 C2513 1.369 . S
C2512 C2514 1.419 . S
C2512 H2516 0.930 . S
C2513 C2512 1.369 . S
C2513 C2522 1.429 . S
C2514 C2512 1.419 . S
C2514 C2515 1.363 . S
C2514 H2517 0.929 . S
C2515 C2514 1.363 . S
C2515 C2521 1.428 . S
H2516 C2512 0.930 . S
H2517 C2514 0.929 . S
S2518 N2519 1.613 . S
S2518 N2520 1.610 . S
N2519 S2518 1.613 . S
N2519 C2522 1.350 . S
N2520 S2518 1.610 . S
N2520 C2521 1.351 . S
C2521 C2515 1.428 . S
C2521 N2520 1.351 . S
C2521 C2522 1.434 . S
C2522 C2513 1.429 . S
C2522 N2519 1.350 . S
C2522 C2521 1.434 . S
C2523 C2524 1.369 . S
C2523 C2525 1.419 . S
C2523 H2527 0.930 . S
C2524 C2523 1.369 . S
C2524 C2533 1.429 . S
C2525 C2523 1.419 . S
C2525 C2526 1.363 . S
C2525 H2528 0.929 . S
C2526 C2525 1.363 . S
C2526 C2532 1.428 . S
H2527 C2523 0.930 . S
H2528 C2525 0.929 . S
S2529 N2530 1.613 . S
S2529 N2531 1.610 . S
N2530 S2529 1.613 . S
N2530 C2533 1.350 . S
N2531 S2529 1.610 . S
N2531 C2532 1.351 . S
C2532 C2526 1.428 . S
C2532 N2531 1.351 . S
C2532 C2533 1.434 . S
C2533 C2524 1.429 . S
C2533 N2530 1.350 . S
C2533 C2532 1.434 . S
C2534 C2535 1.369 . S
C2534 C2536 1.419 . S
C2534 H2538 0.930 . S
C2535 C2534 1.369 . S
C2535 C2544 1.429 . S
C2536 C2534 1.419 . S
C2536 C2537 1.363 . S
C2536 H2539 0.929 . S
C2537 C2536 1.363 . S
C2537 C2543 1.428 . S
H2538 C2534 0.930 . S
H2539 C2536 0.929 . S
S2540 N2541 1.613 . S
S2540 N2542 1.610 . S
N2541 S2540 1.613 . S
N2541 C2544 1.350 . S
N2542 S2540 1.610 . S
N2542 C2543 1.351 . S
C2543 C2537 1.428 . S
C2543 N2542 1.351 . S
C2543 C2544 1.434 . S
C2544 C2535 1.429 . S
C2544 N2541 1.350 . S
C2544 C2543 1.434 . S
C2545 C2546 1.369 . S
C2545 C2547 1.419 . S
C2545 H2549 0.930 . S
C2546 C2545 1.369 . S
C2546 C2555 1.429 . S
C2547 C2545 1.419 . S
C2547 C2548 1.363 . S
C2547 H2550 0.929 . S
C2548 C2547 1.363 . S
C2548 C2554 1.428 . S
H2549 C2545 0.930 . S
H2550 C2547 0.929 . S
S2551 N2552 1.613 . S
S2551 N2553 1.610 . S
N2552 S2551 1.613 . S
N2552 C2555 1.350 . S
N2553 S2551 1.610 . S
N2553 C2554 1.351 . S
C2554 C2548 1.428 . S
C2554 N2553 1.351 . S
C2554 C2555 1.434 . S
C2555 C2546 1.429 . S
C2555 N2552 1.350 . S
C2555 C2554 1.434 . S
C2556 C2557 1.369 . S
C2556 C2558 1.419 . S
C2556 H2560 0.930 . S
C2557 C2556 1.369 . S
C2557 C2566 1.429 . S
C2558 C2556 1.419 . S
C2558 C2559 1.363 . S
C2558 H2561 0.929 1_565 S
C2559 C2558 1.363 . S
C2559 C2565 1.428 . S
H2560 C2556 0.930 . S
H2561 C2558 0.929 1_545 S
S2562 N2563 1.613 . S
S2562 N2564 1.610 . S
N2563 S2562 1.613 . S
N2563 C2566 1.350 . S
N2564 S2562 1.610 . S
N2564 C2565 1.351 . S
C2565 C2559 1.428 . S
C2565 N2564 1.351 . S
C2565 C2566 1.434 . S
C2566 C2557 1.429 . S
C2566 N2563 1.350 . S
C2566 C2565 1.434 . S
C2567 C2568 1.369 . S
C2567 C2569 1.419 . S
C2567 H2571 0.930 . S
C2568 C2567 1.369 . S
C2568 C2577 1.429 . S
C2569 C2567 1.419 . S
C2569 C2570 1.363 . S
C2569 H2572 0.929 . S
C2570 C2569 1.363 . S
C2570 C2576 1.428 . S
H2571 C2567 0.930 . S
H2572 C2569 0.929 . S
S2573 N2574 1.613 . S
S2573 N2575 1.610 . S
N2574 S2573 1.613 . S
N2574 C2577 1.350 . S
N2575 S2573 1.610 . S
N2575 C2576 1.351 . S
C2576 C2570 1.428 . S
C2576 N2575 1.351 . S
C2576 C2577 1.434 . S
C2577 C2568 1.429 . S
C2577 N2574 1.350 . S
C2577 C2576 1.434 . S
C2578 C2579 1.369 . S
C2578 C2580 1.419 . S
C2578 H2582 0.930 . S
C2579 C2578 1.369 . S
C2579 C2588 1.429 . S
C2580 C2578 1.419 . S
C2580 C2581 1.363 . S
C2580 H2583 0.929 . S
C2581 C2580 1.363 . S
C2581 C2587 1.428 . S
H2582 C2578 0.930 . S
H2583 C2580 0.929 . S
S2584 N2585 1.613 . S
S2584 N2586 1.610 . S
N2585 S2584 1.613 . S
N2585 C2588 1.350 . S
N2586 S2584 1.610 . S
N2586 C2587 1.351 . S
C2587 C2581 1.428 . S
C2587 N2586 1.351 . S
C2587 C2588 1.434 . S
C2588 C2579 1.429 . S
C2588 N2585 1.350 . S
C2588 C2587 1.434 . S
C2589 C2590 1.369 . S
C2589 C2591 1.419 . S
C2589 H2593 0.930 . S
C2590 C2589 1.369 . S
C2590 C2599 1.429 . S
C2591 C2589 1.419 . S
C2591 C2592 1.363 . S
C2591 H2594 0.929 . S
C2592 C2591 1.363 . S
C2592 C2598 1.428 . S
H2593 C2589 0.930 . S
H2594 C2591 0.929 . S
S2595 N2596 1.613 . S
S2595 N2597 1.610 . S
N2596 S2595 1.613 . S
N2596 C2599 1.350 . S
N2597 S2595 1.610 . S
N2597 C2598 1.351 . S
C2598 C2592 1.428 . S
C2598 N2597 1.351 . S
C2598 C2599 1.434 . S
C2599 C2590 1.429 . S
C2599 N2596 1.350 . S
C2599 C2598 1.434 . S
C2600 C2601 1.369 . S
C2600 C2602 1.419 . S
C2600 H2604 0.930 . S
C2601 C2600 1.369 . S
C2601 C2610 1.429 . S
C2602 C2600 1.419 . S
C2602 C2603 1.363 . S
C2602 H2605 0.929 . S
C2603 C2602 1.363 . S
C2603 C2609 1.428 . S
H2604 C2600 0.930 . S
H2605 C2602 0.929 . S
S2606 N2607 1.613 . S
S2606 N2608 1.610 . S
N2607 S2606 1.613 . S
N2607 C2610 1.350 . S
N2608 S2606 1.610 . S
N2608 C2609 1.351 . S
C2609 C2603 1.428 . S
C2609 N2608 1.351 . S
C2609 C2610 1.434 . S
C2610 C2601 1.429 . S
C2610 N2607 1.350 . S
C2610 C2609 1.434 . S
C2611 C2612 1.369 . S
C2611 C2613 1.419 . S
C2611 H2615 0.930 . S
C2612 C2611 1.369 . S
C2612 C2621 1.429 . S
C2613 C2611 1.419 . S
C2613 C2614 1.363 . S
C2613 H2616 0.929 . S
C2614 C2613 1.363 . S
C2614 C2620 1.428 . S
H2615 C2611 0.930 . S
H2616 C2613 0.929 . S
S2617 N2618 1.613 . S
S2617 N2619 1.610 . S
N2618 S2617 1.613 . S
N2618 C2621 1.350 . S
N2619 S2617 1.610 . S
N2619 C2620 1.351 . S
C2620 C2614 1.428 . S
C2620 N2619 1.351 . S
C2620 C2621 1.434 . S
C2621 C2612 1.429 . S
C2621 N2618 1.350 . S
C2621 C2620 1.434 . S
C2622 C2623 1.369 . S
C2622 C2624 1.419 . S
C2622 H2626 0.930 . S
C2623 C2622 1.369 . S
C2623 C2632 1.429 . S
C2624 C2622 1.419 . S
C2624 C2625 1.363 . S
C2624 H2627 0.929 . S
C2625 C2624 1.363 . S
C2625 C2631 1.428 . S
H2626 C2622 0.930 . S
H2627 C2624 0.929 . S
S2628 N2629 1.613 . S
S2628 N2630 1.610 . S
N2629 S2628 1.613 . S
N2629 C2632 1.350 . S
N2630 S2628 1.610 . S
N2630 C2631 1.351 . S
C2631 C2625 1.428 . S
C2631 N2630 1.351 . S
C2631 C2632 1.434 . S
C2632 C2623 1.429 . S
C2632 N2629 1.350 . S
C2632 C2631 1.434 . S
C2633 C2634 1.369 . S
C2633 C2635 1.419 . S
C2633 H2637 0.930 . S
C2634 C2633 1.369 . S
C2634 C2643 1.429 . S
C2635 C2633 1.419 . S
C2635 C2636 1.363 . S
C2635 H2638 0.929 . S
C2636 C2635 1.363 . S
C2636 C2642 1.428 . S
H2637 C2633 0.930 . S
H2638 C2635 0.929 . S
S2639 N2640 1.613 . S
S2639 N2641 1.610 . S
N2640 S2639 1.613 . S
N2640 C2643 1.350 . S
N2641 S2639 1.610 . S
N2641 C2642 1.351 . S
C2642 C2636 1.428 . S
C2642 N2641 1.351 . S
C2642 C2643 1.434 . S
C2643 C2634 1.429 . S
C2643 N2640 1.350 . S
C2643 C2642 1.434 . S
C2644 C2645 1.369 . S
C2644 C2646 1.419 . S
C2644 H2648 0.930 . S
C2645 C2644 1.369 . S
C2645 C2654 1.429 . S
C2646 C2644 1.419 . S
C2646 C2647 1.363 . S
C2646 H2649 0.929 . S
C2647 C2646 1.363 . S
C2647 C2653 1.428 . S
H2648 C2644 0.930 . S
H2649 C2646 0.929 . S
S2650 N2651 1.613 . S
S2650 N2652 1.610 . S
N2651 S2650 1.613 . S
N2651 C2654 1.350 . S
N2652 S2650 1.610 . S
N2652 C2653 1.351 . S
C2653 C2647 1.428 . S
C2653 N2652 1.351 . S
C2653 C2654 1.434 . S
C2654 C2645 1.429 . S
C2654 N2651 1.350 . S
C2654 C2653 1.434 . S
C2655 C2656 1.369 . S
C2655 C2657 1.419 . S
C2655 H2659 0.930 . S
C2656 C2655 1.369 . S
C2656 C2665 1.429 . S
C2657 C2655 1.419 . S
C2657 C2658 1.363 . S
C2657 H2660 0.929 . S
C2658 C2657 1.363 . S
C2658 C2664 1.428 . S
H2659 C2655 0.930 . S
H2660 C2657 0.929 . S
S2661 N2662 1.613 . S
S2661 N2663 1.610 . S
N2662 S2661 1.613 . S
N2662 C2665 1.350 . S
N2663 S2661 1.610 . S
N2663 C2664 1.351 . S
C2664 C2658 1.428 . S
C2664 N2663 1.351 . S
C2664 C2665 1.434 . S
C2665 C2656 1.429 . S
C2665 N2662 1.350 . S
C2665 C2664 1.434 . S
C2666 C2667 1.369 . S
C2666 C2668 1.419 . S
C2666 H2670 0.930 . S
C2667 C2666 1.369 . S
C2667 C2676 1.429 . S
C2668 C2666 1.419 . S
C2668 C2669 1.363 . S
C2668 H2671 0.929 . S
C2669 C2668 1.363 . S
C2669 C2675 1.428 . S
H2670 C2666 0.930 . S
H2671 C2668 0.929 . S
S2672 N2673 1.613 . S
S2672 N2674 1.610 . S
N2673 S2672 1.613 . S
N2673 C2676 1.350 . S
N2674 S2672 1.610 . S
N2674 C2675 1.351 . S
C2675 C2669 1.428 . S
C2675 N2674 1.351 . S
C2675 C2676 1.434 . S
C2676 C2667 1.429 . S
C2676 N2673 1.350 . S
C2676 C2675 1.434 . S
C2677 C2678 1.369 . S
C2677 C2679 1.419 . S
C2677 H2681 0.930 . S
C2678 C2677 1.369 . S
C2678 C2687 1.429 . S
C2679 C2677 1.419 . S
C2679 C2680 1.363 . S
C2679 H2682 0.929 . S
C2680 C2679 1.363 . S
C2680 C2686 1.428 . S
H2681 C2677 0.930 . S
H2682 C2679 0.929 . S
S2683 N2684 1.613 . S
S2683 N2685 1.610 . S
N2684 S2683 1.613 . S
N2684 C2687 1.350 . S
N2685 S2683 1.610 . S
N2685 C2686 1.351 . S
C2686 C2680 1.428 . S
C2686 N2685 1.351 . S
C2686 C2687 1.434 . S
C2687 C2678 1.429 . S
C2687 N2684 1.350 . S
C2687 C2686 1.434 . S
C2688 C2689 1.369 . S
C2688 C2690 1.419 . S
C2688 H2692 0.930 . S
C2689 C2688 1.369 . S
C2689 C2698 1.429 . S
C2690 C2688 1.419 . S
C2690 C2691 1.363 . S
C2690 H2693 0.929 . S
C2691 C2690 1.363 . S
C2691 C2697 1.428 . S
H2692 C2688 0.930 . S
H2693 C2690 0.929 . S
S2694 N2695 1.613 . S
S2694 N2696 1.610 . S
N2695 S2694 1.613 . S
N2695 C2698 1.350 . S
N2696 S2694 1.610 . S
N2696 C2697 1.351 . S
C2697 C2691 1.428 . S
C2697 N2696 1.351 . S
C2697 C2698 1.434 . S
C2698 C2689 1.429 . S
C2698 N2695 1.350 . S
C2698 C2697 1.434 . S
C2699 C2700 1.369 . S
C2699 C2701 1.419 . S
C2699 H2703 0.930 . S
C2700 C2699 1.369 . S
C2700 C2709 1.429 . S
C2701 C2699 1.419 . S
C2701 C2702 1.363 . S
C2701 H2704 0.929 . S
C2702 C2701 1.363 . S
C2702 C2708 1.428 . S
H2703 C2699 0.930 . S
H2704 C2701 0.929 . S
S2705 N2706 1.613 . S
S2705 N2707 1.610 . S
N2706 S2705 1.613 . S
N2706 C2709 1.350 . S
N2707 S2705 1.610 . S
N2707 C2708 1.351 . S
C2708 C2702 1.428 . S
C2708 N2707 1.351 . S
C2708 C2709 1.434 . S
C2709 C2700 1.429 . S
C2709 N2706 1.350 . S
C2709 C2708 1.434 . S
C2710 C2711 1.369 . S
C2710 C2712 1.419 . S
C2710 H2714 0.930 . S
C2711 C2710 1.369 . S
C2711 C2720 1.429 . S
C2712 C2710 1.419 . S
C2712 C2713 1.363 . S
C2712 H2715 0.929 . S
C2713 C2712 1.363 . S
C2713 C2719 1.428 . S
H2714 C2710 0.930 . S
H2715 C2712 0.929 . S
S2716 N2717 1.613 . S
S2716 N2718 1.610 . S
N2717 S2716 1.613 . S
N2717 C2720 1.350 . S
N2718 S2716 1.610 . S
N2718 C2719 1.351 . S
C2719 C2713 1.428 . S
C2719 N2718 1.351 . S
C2719 C2720 1.434 . S
C2720 C2711 1.429 . S
C2720 N2717 1.350 . S
C2720 C2719 1.434 . S
C2721 C2722 1.369 . S
C2721 C2723 1.419 . S
C2721 H2725 0.930 . S
C2722 C2721 1.369 . S
C2722 C2731 1.429 . S
C2723 C2721 1.419 . S
C2723 C2724 1.363 . S
C2723 H2726 0.929 . S
C2724 C2723 1.363 . S
C2724 C2730 1.428 . S
H2725 C2721 0.930 . S
H2726 C2723 0.929 . S
S2727 N2728 1.613 . S
S2727 N2729 1.610 . S
N2728 S2727 1.613 . S
N2728 C2731 1.350 . S
N2729 S2727 1.610 . S
N2729 C2730 1.351 . S
C2730 C2724 1.428 . S
C2730 N2729 1.351 . S
C2730 C2731 1.434 . S
C2731 C2722 1.429 . S
C2731 N2728 1.350 . S
C2731 C2730 1.434 . S
C2732 C2733 1.369 . S
C2732 C2734 1.419 . S
C2732 H2736 0.930 . S
C2733 C2732 1.369 . S
C2733 C2742 1.429 . S
C2734 C2732 1.419 . S
C2734 C2735 1.363 . S
C2734 H2737 0.929 . S
C2735 C2734 1.363 . S
C2735 C2741 1.428 . S
H2736 C2732 0.930 . S
H2737 C2734 0.929 . S
S2738 N2739 1.613 . S
S2738 N2740 1.610 . S
N2739 S2738 1.613 . S
N2739 C2742 1.350 . S
N2740 S2738 1.610 . S
N2740 C2741 1.351 . S
C2741 C2735 1.428 . S
C2741 N2740 1.351 . S
C2741 C2742 1.434 . S
C2742 C2733 1.429 . S
C2742 N2739 1.350 . S
C2742 C2741 1.434 . S
C2743 C2744 1.369 . S
C2743 C2745 1.419 . S
C2743 H2747 0.930 . S
C2744 C2743 1.369 . S
C2744 C2753 1.429 . S
C2745 C2743 1.419 . S
C2745 C2746 1.363 . S
C2745 H2748 0.929 . S
C2746 C2745 1.363 . S
C2746 C2752 1.428 . S
H2747 C2743 0.930 . S
H2748 C2745 0.929 . S
S2749 N2750 1.613 . S
S2749 N2751 1.610 . S
N2750 S2749 1.613 . S
N2750 C2753 1.350 . S
N2751 S2749 1.610 . S
N2751 C2752 1.351 . S
C2752 C2746 1.428 . S
C2752 N2751 1.351 . S
C2752 C2753 1.434 . S
C2753 C2744 1.429 . S
C2753 N2750 1.350 . S
C2753 C2752 1.434 . S
C2754 C2755 1.369 . S
C2754 C2756 1.419 . S
C2754 H2758 0.930 . S
C2755 C2754 1.369 . S
C2755 C2764 1.429 . S
C2756 C2754 1.419 . S
C2756 C2757 1.363 . S
C2756 H2759 0.929 . S
C2757 C2756 1.363 . S
C2757 C2763 1.428 . S
H2758 C2754 0.930 . S
H2759 C2756 0.929 . S
S2760 N2761 1.613 . S
S2760 N2762 1.610 . S
N2761 S2760 1.613 . S
N2761 C2764 1.350 . S
N2762 S2760 1.610 . S
N2762 C2763 1.351 . S
C2763 C2757 1.428 . S
C2763 N2762 1.351 . S
C2763 C2764 1.434 . S
C2764 C2755 1.429 . S
C2764 N2761 1.350 . S
C2764 C2763 1.434 . S
C2765 C2766 1.369 . S
C2765 C2767 1.419 . S
C2765 H2769 0.930 . S
C2766 C2765 1.369 . S
C2766 C2775 1.429 . S
C2767 C2765 1.419 . S
C2767 C2768 1.363 . S
C2767 H2770 0.929 . S
C2768 C2767 1.363 . S
C2768 C2774 1.428 . S
H2769 C2765 0.930 . S
H2770 C2767 0.929 . S
S2771 N2772 1.613 . S
S2771 N2773 1.610 . S
N2772 S2771 1.613 . S
N2772 C2775 1.350 . S
N2773 S2771 1.610 . S
N2773 C2774 1.351 . S
C2774 C2768 1.428 . S
C2774 N2773 1.351 . S
C2774 C2775 1.434 . S
C2775 C2766 1.429 . S
C2775 N2772 1.350 . S
C2775 C2774 1.434 . S
C2776 C2777 1.369 . S
C2776 C2778 1.419 . S
C2776 H2780 0.930 . S
C2777 C2776 1.369 . S
C2777 C2786 1.429 . S
C2778 C2776 1.419 . S
C2778 C2779 1.363 . S
C2778 H2781 0.929 . S
C2779 C2778 1.363 . S
C2779 C2785 1.428 . S
H2780 C2776 0.930 . S
H2781 C2778 0.929 . S
S2782 N2783 1.613 . S
S2782 N2784 1.610 . S
N2783 S2782 1.613 . S
N2783 C2786 1.350 . S
N2784 S2782 1.610 . S
N2784 C2785 1.351 . S
C2785 C2779 1.428 . S
C2785 N2784 1.351 . S
C2785 C2786 1.434 . S
C2786 C2777 1.429 . S
C2786 N2783 1.350 . S
C2786 C2785 1.434 . S
C2787 C2788 1.369 . S
C2787 C2789 1.419 . S
C2787 H2791 0.930 . S
C2788 C2787 1.369 . S
C2788 C2797 1.429 . S
C2789 C2787 1.419 . S
C2789 C2790 1.363 . S
C2789 H2792 0.929 . S
C2790 C2789 1.363 . S
C2790 C2796 1.428 . S
H2791 C2787 0.930 . S
H2792 C2789 0.929 . S
S2793 N2794 1.613 . S
S2793 N2795 1.610 . S
N2794 S2793 1.613 . S
N2794 C2797 1.350 . S
N2795 S2793 1.610 . S
N2795 C2796 1.351 . S
C2796 C2790 1.428 . S
C2796 N2795 1.351 . S
C2796 C2797 1.434 . S
C2797 C2788 1.429 . S
C2797 N2794 1.350 . S
C2797 C2796 1.434 . S
C2798 C2799 1.369 . S
C2798 C2800 1.419 . S
C2798 H2802 0.930 . S
C2799 C2798 1.369 . S
C2799 C2808 1.429 . S
C2800 C2798 1.419 . S
C2800 C2801 1.363 . S
C2800 H2803 0.929 . S
C2801 C2800 1.363 . S
C2801 C2807 1.428 . S
H2802 C2798 0.930 . S
H2803 C2800 0.929 . S
S2804 N2805 1.613 . S
S2804 N2806 1.610 . S
N2805 S2804 1.613 . S
N2805 C2808 1.350 . S
N2806 S2804 1.610 . S
N2806 C2807 1.351 . S
C2807 C2801 1.428 . S
C2807 N2806 1.351 . S
C2807 C2808 1.434 . S
C2808 C2799 1.429 . S
C2808 N2805 1.350 . S
C2808 C2807 1.434 . S
C2809 C2810 1.369 . S
C2809 C2811 1.419 . S
C2809 H2813 0.930 . S
C2810 C2809 1.369 . S
C2810 C2819 1.429 . S
C2811 C2809 1.419 . S
C2811 C2812 1.363 . S
C2811 H2814 0.929 . S
C2812 C2811 1.363 . S
C2812 C2818 1.428 . S
H2813 C2809 0.930 . S
H2814 C2811 0.929 . S
S2815 N2816 1.613 . S
S2815 N2817 1.610 . S
N2816 S2815 1.613 . S
N2816 C2819 1.350 . S
N2817 S2815 1.610 . S
N2817 C2818 1.351 . S
C2818 C2812 1.428 . S
C2818 N2817 1.351 . S
C2818 C2819 1.434 . S
C2819 C2810 1.429 . S
C2819 N2816 1.350 . S
C2819 C2818 1.434 . S
C2820 C2821 1.369 . S
C2820 C2822 1.419 . S
C2820 H2824 0.930 . S
C2821 C2820 1.369 . S
C2821 C2830 1.429 . S
C2822 C2820 1.419 . S
C2822 C2823 1.363 . S
C2822 H2825 0.929 . S
C2823 C2822 1.363 . S
C2823 C2829 1.428 . S
H2824 C2820 0.930 . S
H2825 C2822 0.929 . S
S2826 N2827 1.613 . S
S2826 N2828 1.610 . S
N2827 S2826 1.613 . S
N2827 C2830 1.350 . S
N2828 S2826 1.610 . S
N2828 C2829 1.351 . S
C2829 C2823 1.428 . S
C2829 N2828 1.351 . S
C2829 C2830 1.434 . S
C2830 C2821 1.429 . S
C2830 N2827 1.350 . S
C2830 C2829 1.434 . S
C2831 C2832 1.369 . S
C2831 C2833 1.419 . S
C2831 H2835 0.930 . S
C2832 C2831 1.369 . S
C2832 C2841 1.429 . S
C2833 C2831 1.419 . S
C2833 C2834 1.363 . S
C2833 H2836 0.929 . S
C2834 C2833 1.363 . S
C2834 C2840 1.428 . S
H2835 C2831 0.930 . S
H2836 C2833 0.929 . S
S2837 N2838 1.613 . S
S2837 N2839 1.610 . S
N2838 S2837 1.613 . S
N2838 C2841 1.350 . S
N2839 S2837 1.610 . S
N2839 C2840 1.351 . S
C2840 C2834 1.428 . S
C2840 N2839 1.351 . S
C2840 C2841 1.434 . S
C2841 C2832 1.429 . S
C2841 N2838 1.350 . S
C2841 C2840 1.434 . S
C2842 C2843 1.369 . S
C2842 C2844 1.419 . S
C2842 H2846 0.930 . S
C2843 C2842 1.369 . S
C2843 C2852 1.429 . S
C2844 C2842 1.419 . S
C2844 C2845 1.363 . S
C2844 H2847 0.929 . S
C2845 C2844 1.363 . S
C2845 C2851 1.428 . S
H2846 C2842 0.930 . S
H2847 C2844 0.929 . S
S2848 N2849 1.613 . S
S2848 N2850 1.610 . S
N2849 S2848 1.613 . S
N2849 C2852 1.350 . S
N2850 S2848 1.610 . S
N2850 C2851 1.351 . S
C2851 C2845 1.428 . S
C2851 N2850 1.351 . S
C2851 C2852 1.434 . S
C2852 C2843 1.429 . S
C2852 N2849 1.350 . S
C2852 C2851 1.434 . S
C2853 C2854 1.369 . S
C2853 C2855 1.419 . S
C2853 H2857 0.930 . S
C2854 C2853 1.369 . S
C2854 C2863 1.429 . S
C2855 C2853 1.419 . S
C2855 C2856 1.363 . S
C2855 H2858 0.929 . S
C2856 C2855 1.363 . S
C2856 C2862 1.428 . S
H2857 C2853 0.930 . S
H2858 C2855 0.929 . S
S2859 N2860 1.613 . S
S2859 N2861 1.610 . S
N2860 S2859 1.613 . S
N2860 C2863 1.350 . S
N2861 S2859 1.610 . S
N2861 C2862 1.351 . S
C2862 C2856 1.428 . S
C2862 N2861 1.351 . S
C2862 C2863 1.434 . S
C2863 C2854 1.429 . S
C2863 N2860 1.350 . S
C2863 C2862 1.434 . S
C2864 C2865 1.369 . S
C2864 C2866 1.419 . S
C2864 H2868 0.930 . S
C2865 C2864 1.369 . S
C2865 C2874 1.429 . S
C2866 C2864 1.419 . S
C2866 C2867 1.363 . S
C2866 H2869 0.929 . S
C2867 C2866 1.363 . S
C2867 C2873 1.428 . S
H2868 C2864 0.930 . S
H2869 C2866 0.929 . S
S2870 N2871 1.613 . S
S2870 N2872 1.610 . S
N2871 S2870 1.613 . S
N2871 C2874 1.350 . S
N2872 S2870 1.610 . S
N2872 C2873 1.351 . S
C2873 C2867 1.428 . S
C2873 N2872 1.351 . S
C2873 C2874 1.434 . S
C2874 C2865 1.429 . S
C2874 N2871 1.350 . S
C2874 C2873 1.434 . S
C2875 C2876 1.369 . S
C2875 C2877 1.419 . S
C2875 H2879 0.930 . S
C2876 C2875 1.369 . S
C2876 C2885 1.429 . S
C2877 C2875 1.419 . S
C2877 C2878 1.363 . S
C2877 H2880 0.929 . S
C2878 C2877 1.363 . S
C2878 C2884 1.428 . S
H2879 C2875 0.930 . S
H2880 C2877 0.929 . S
S2881 N2882 1.613 . S
S2881 N2883 1.610 1_554 S
N2882 S2881 1.613 . S
N2882 C2885 1.350 1_554 S
N2883 S2881 1.610 1_556 S
N2883 C2884 1.351 . S
C2884 C2878 1.428 . S
C2884 N2883 1.351 . S
C2884 C2885 1.434 . S
C2885 C2876 1.429 . S
C2885 N2882 1.350 1_556 S
C2885 C2884 1.434 . S
C2886 C2887 1.369 . S
C2886 C2888 1.419 1_556 S
C2886 H2890 0.930 . S
C2887 C2886 1.369 . S
C2887 C2896 1.429 . S
C2888 C2886 1.419 1_554 S
C2888 C2889 1.363 . S
C2888 H2891 0.929 . S
C2889 C2888 1.363 . S
C2889 C2895 1.428 1_554 S
H2890 C2886 0.930 . S
H2891 C2888 0.929 . S
S2892 N2893 1.613 . S
S2892 N2894 1.610 . S
N2893 S2892 1.613 . S
N2893 C2896 1.350 . S
N2894 S2892 1.610 . S
N2894 C2895 1.351 . S
C2895 C2889 1.428 1_556 S
C2895 N2894 1.351 . S
C2895 C2896 1.434 . S
C2896 C2887 1.429 . S
C2896 N2893 1.350 . S
C2896 C2895 1.434 . S
C2897 C2898 1.369 . S
C2897 C2899 1.419 . S
C2897 H2901 0.930 . S
C2898 C2897 1.369 . S
C2898 C2907 1.429 . S
C2899 C2897 1.419 . S
C2899 C2900 1.363 . S
C2899 H2902 0.929 . S
C2900 C2899 1.363 . S
C2900 C2906 1.428 . S
H2901 C2897 0.930 . S
H2902 C2899 0.929 . S
S2903 N2904 1.613 . S
S2903 N2905 1.610 1_554 S
N2904 S2903 1.613 . S
N2904 C2907 1.350 1_554 S
N2905 S2903 1.610 1_556 S
N2905 C2906 1.351 . S
C2906 C2900 1.428 . S
C2906 N2905 1.351 . S
C2906 C2907 1.434 . S
C2907 C2898 1.429 . S
C2907 N2904 1.350 1_556 S
C2907 C2906 1.434 . S
C2908 C2909 1.369 . S
C2908 C2910 1.419 . S
C2908 H2912 0.930 . S
C2909 C2908 1.369 . S
C2909 C2918 1.429 . S
C2910 C2908 1.419 . S
C2910 C2911 1.363 . S
C2910 H2913 0.929 . S
C2911 C2910 1.363 . S
C2911 C2917 1.428 . S
H2912 C2908 0.930 . S
H2913 C2910 0.929 . S
S2914 N2915 1.613 . S
S2914 N2916 1.610 . S
N2915 S2914 1.613 . S
N2915 C2918 1.350 . S
N2916 S2914 1.610 . S
N2916 C2917 1.351 . S
C2917 C2911 1.428 . S
C2917 N2916 1.351 . S
C2917 C2918 1.434 . S
C2918 C2909 1.429 . S
C2918 N2915 1.350 . S
C2918 C2917 1.434 . S
C2919 C2920 1.369 . S
C2919 C2921 1.419 . S
C2919 H2923 0.930 . S
C2920 C2919 1.369 . S
C2920 C2929 1.429 . S
C2921 C2919 1.419 . S
C2921 C2922 1.363 . S
C2921 H2924 0.929 . S
C2922 C2921 1.363 . S
C2922 C2928 1.428 . S
H2923 C2919 0.930 . S
H2924 C2921 0.929 . S
S2925 N2926 1.613 . S
S2925 N2927 1.610 . S
N2926 S2925 1.613 . S
N2926 C2929 1.350 . S
N2927 S2925 1.610 . S
N2927 C2928 1.351 . S
C2928 C2922 1.428 . S
C2928 N2927 1.351 . S
C2928 C2929 1.434 . S
C2929 C2920 1.429 . S
C2929 N2926 1.350 . S
C2929 C2928 1.434 . S
C2930 C2931 1.369 . S
C2930 C2932 1.419 . S
C2930 H2934 0.930 . S
C2931 C2930 1.369 . S
C2931 C2940 1.429 . S
C2932 C2930 1.419 . S
C2932 C2933 1.363 . S
C2932 H2935 0.929 . S
C2933 C2932 1.363 . S
C2933 C2939 1.428 . S
H2934 C2930 0.930 . S
H2935 C2932 0.929 . S
S2936 N2937 1.613 . S
S2936 N2938 1.610 . S
N2937 S2936 1.613 . S
N2937 C2940 1.350 . S
N2938 S2936 1.610 . S
N2938 C2939 1.351 . S
C2939 C2933 1.428 . S
C2939 N2938 1.351 . S
C2939 C2940 1.434 . S
C2940 C2931 1.429 . S
C2940 N2937 1.350 . S
C2940 C2939 1.434 . S
C2941 C2942 1.369 . S
C2941 C2943 1.419 . S
C2941 H2945 0.930 . S
C2942 C2941 1.369 . S
C2942 C2951 1.429 . S
C2943 C2941 1.419 . S
C2943 C2944 1.363 . S
C2943 H2946 0.929 . S
C2944 C2943 1.363 . S
C2944 C2950 1.428 . S
H2945 C2941 0.930 . S
H2946 C2943 0.929 . S
S2947 N2948 1.613 . S
S2947 N2949 1.610 . S
N2948 S2947 1.613 . S
N2948 C2951 1.350 . S
N2949 S2947 1.610 . S
N2949 C2950 1.351 . S
C2950 C2944 1.428 . S
C2950 N2949 1.351 . S
C2950 C2951 1.434 . S
C2951 C2942 1.429 . S
C2951 N2948 1.350 . S
C2951 C2950 1.434 . S
C1633 C577 0.351 . S
C1635 C33 0.475 . S
C1644 C67 0.590 . S
C1646 C1019 0.621 . S
C1655 C645 1.219 . S
C1657 C101 1.214 . S
C1666 C1087 0.381 . S
C1668 C135 0.333 . S
C1677 C169 0.813 . S
C1679 C441 0.878 . S
C1688 C883 0.746 . S
C1690 C203 0.754 . S
C1699 C509 0.720 . S
C1701 C237 0.719 . S
C1710 C271 0.364 . S
C1712 C951 0.370 . S
C1721 C305 0.419 . S
C1723 C1631 0.403 . S
C1732 C339 0.680 . S
C1734 C1597 0.687 . S
C1743 C373 0.759 . S
C1745 C1563 0.758 . S
C1754 C1529 0.510 . S
C1756 C407 0.479 . S
C1765 C1427 0.686 . S
C1767 C475 0.668 . S
C1776 C543 0.478 . S
C1778 C1495 0.516 . S
C1787 C1291 0.844 . S
C1789 C611 0.849 . S
C1798 C679 0.485 . S
C1800 C1359 0.450 . S
C1809 C713 0.487 . S
C1811 C1223 0.480 . S
C1820 C1189 0.753 . S
C1822 C747 0.758 . S
C1831 C1155 0.734 . S
C1833 C781 0.745 . S
C1842 C815 0.345 . S
C1844 C1121 0.348 . S
C1853 C849 0.495 . S
C1855 C1393 0.399 . S
C1864 C917 1.213 . S
C1866 C1461 1.216 . S
C1875 C985 0.803 . S
C1877 C1257 0.994 . S
C1886 C1053 0.799 . S
C1888 C1325 0.798 . S
C1897 C111 1.630 . S
C1899 C20 1.656 . S
C1908 C36 1.928 . S
C1910 C5 1.714 . S
C1919 C43 1.881 . S
C1921 C70 1.933 1_655 S
C1930 C104 1.790 1_565 S
C1932 C77 1.750 . S
C1941 C156 1.551 . S
C1943 C179 1.532 . S
C1952 C213 1.800 . S
C1954 C172 1.859 . S
C1963 C206 2.051 . S
C1965 C243 1.878 . S
C1974 C258 1.724 . S
C1976 C141 1.514 . S
C1985 C122 1.564 . S
C1987 C281 1.541 . S
C1996 C349 1.740 . S
C1998 C2 1.796 . S
C2007 C379 1.499 . S
C2009 C54 1.631 . S
C2018 C311 1.678 . S
C2020 C88 1.809 . S
C2029 C315 1.742 . S
C2031 C190 1.774 1_565 S
C2040 C277 1.662 . S
C2042 C224 1.836 . S
C2051 C240 1.980 . S
C2053 C345 1.762 . S
C2062 C138 1.880 . S
C2064 C383 1.803 . S
C2073 C9 1.467 . S
C2075 C292 1.491 . S
C2084 C145 1.435 . S
C2086 C326 1.455 . S
C2095 C274 1.989 1_556 S
C2097 C175 1.740 . S
C2106 C209 1.869 . S
C2108 C342 2.099 1_556 S
C2117 C394 1.633 . S
C2119 C247 1.594 . S
C2128 C73 1.947 . S
C2130 C376 2.198 . S
C2139 C308 1.943 . S
C2141 C107 1.773 . S
C2150 C39 1.762 . S
C2152 C360 1.941 . S
C2161 C519 1.589 . S
C2163 C428 1.612 . S
C2172 C413 1.834 . S
C2174 C444 2.066 . S
C2183 C478 1.768 . S
C2185 C451 1.727 . S
C2194 C512 1.945 . S
C2196 C485 1.902 . S
C2205 C564 1.387 . S
C2207 C587 1.372 . S
C2216 C580 1.975 . S
C2218 C621 1.920 . S
C2227 C614 1.965 1_655 S
C2229 C651 1.784 . S
C2238 C549 1.660 . S
C2240 C666 1.826 . S
C2249 C689 1.595 . S
C2251 C530 1.625 . S
C2260 C757 1.577 . S
C2262 C410 1.627 . S
C2271 C462 1.746 . S
C2273 C787 1.607 . S
C2282 C723 1.499 . S
C2284 C496 1.509 . S
C2293 C719 1.802 . S
C2295 C598 2.003 . S
C2304 C632 1.717 . S
C2306 C685 1.567 . S
C2315 C753 1.899 . S
C2317 C648 2.132 . S
C2326 C791 1.704 . S
C2328 C546 1.758 1_655 S
C2337 C700 1.560 . S
C2339 C417 1.544 . S
C2348 C553 1.845 . S
C2350 C716 1.880 . S
C2359 C682 2.031 . S
C2361 C583 1.762 . S
C2370 C750 2.277 . S
C2372 C617 2.037 . S
C2381 C802 1.519 . S
C2383 C655 1.491 . S
C2392 C784 2.157 . S
C2394 C481 1.941 . S
C2403 C515 1.463 . S
C2405 C734 1.594 . S
C2414 C768 1.873 . S
C2416 C447 1.666 . S
C2425 C836 1.724 . S
C2427 C927 1.700 . S
C2436 C852 1.839 . S
C2438 C821 1.639 . S
C2447 C886 2.011 . S
C2449 C859 1.963 . S
C2458 C893 1.701 . S
C2460 C920 1.744 1_565 S
C2469 C972 1.605 . S
C2471 C995 1.583 . S
C2480 C988 1.813 . S
C2482 C1029 1.754 . S
C2491 C1022 2.135 . S
C2493 C1059 1.959 . S
C2502 C957 1.444 . S
C2504 C1074 1.619 . S
C2513 C938 1.518 . S
C2515 C1097 1.496 . S
C2524 C818 1.969 . S
C2526 C1161 1.801 . S
C2535 C1195 1.584 . S
C2537 C870 1.698 1_565 S
C2546 C1127 1.702 . S
C2548 C904 1.871 . S
C2557 C1131 1.640 . S
C2559 C1006 1.666 1_565 S
C2568 C1093 1.586 . S
C2570 C1040 1.776 . S
C2579 C1165 1.801 . S
C2581 C1056 1.854 . S
C2590 C1199 1.827 . S
C2592 C954 1.899 . S
C2601 C1108 1.541 . S
C2603 C825 1.505 . S
C2612 C961 1.426 . S
C2614 C1142 1.446 . S
C2623 C1090 2.032 . S
C2625 C991 1.780 . S
C2634 C1025 1.636 . S
C2636 C1176 1.830 . S
C2645 C1210 1.580 . S
C2647 C1063 1.551 . S
C2656 C1192 2.125 . S
C2658 C889 1.894 . S
C2667 C1124 1.982 . S
C2669 C923 1.826 . S
C2678 C1158 2.230 . S
C2680 C855 2.024 . S
C2689 C1244 1.596 . S
C2691 C1335 1.578 . S
C2700 C1260 2.040 . S
C2702 C1229 1.813 . S
C2711 C1294 1.801 . S
C2713 C1267 1.764 . S
C2722 C1328 1.915 . S
C2724 C1301 1.869 . S
C2733 C1380 1.417 . S
C2735 C1403 1.400 . S
C2744 C1396 1.952 . S
C2746 C1437 1.899 . S
C2755 C1430 1.986 . S
C2757 C1467 1.805 . S
C2766 C1482 1.795 . S
C2768 C1365 1.635 . S
C2777 C1346 1.556 . S
C2779 C1505 1.527 . S
C2788 C1226 1.679 . S
C2790 C1573 1.630 . S
C2799 C1278 1.724 . S
C2801 C1603 1.590 . S
C2810 C1312 1.512 . S
C2812 C1539 1.499 . S
C2821 C1535 1.727 . S
C2823 C1414 1.960 . S
C2832 C1501 1.590 1_556 S
C2834 C1448 1.750 . S
C2843 C1464 2.083 . S
C2845 C1569 1.866 . S
C2854 C1362 1.811 . S
C2856 C1607 1.755 . S
C2865 C1233 1.536 . S
C2867 C1516 1.554 . S
C2876 C1532 1.857 1_556 S
C2878 C1369 1.814 . S
C2887 C1399 1.772 . S
C2889 C1498 2.033 . S
C2898 C1566 2.250 1_556 S
C2900 C1433 2.017 . S
C2909 C1471 1.492 . S
C2911 C1618 1.519 . S
C2920 C1297 1.912 . S
C2922 C1600 2.129 . S
C2931 C1550 1.681 . S
C2933 C1331 1.538 . S
C2942 C1263 1.706 . S
C2944 C1584 1.924 . S
