# Generated by pormake.
# Topology atn, (4)-cn, num edge types: 1
# Building blocks:
#     Node 0, Type 0, BuildingBlock: AZAVOO_clean_sbu_0, # of connection points: 4
#     Node 1, Type 0, BuildingBlock: AZAVOO_clean_sbu_0, # of connection points: 4
#     Node 2, Type 0, BuildingBlock: AZAVOO_clean_sbu_0, # of connection points: 4
#     Node 3, Type 0, BuildingBlock: AZAVOO_clean_sbu_0, # of connection points: 4
#     Node 4, Type 0, BuildingBlock: AZAVOO_clean_sbu_0, # of connection points: 4
#     Node 5, Type 0, BuildingBlock: AZAVOO_clean_sbu_0, # of connection points: 4
#     Node 6, Type 0, BuildingBlock: AZAVOO_clean_sbu_0, # of connection points: 4
#     Node 7, Type 0, BuildingBlock: AZAVOO_clean_sbu_0, # of connection points: 4
#     Node 8, Type 0, BuildingBlock: AZAVOO_clean_sbu_0, # of connection points: 4
#     Node 9, Type 0, BuildingBlock: AZAVOO_clean_sbu_0, # of connection points: 4
#     Node 10, Type 0, BuildingBlock: AZAVOO_clean_sbu_0, # of connection points: 4
#     Node 11, Type 0, BuildingBlock: AZAVOO_clean_sbu_0, # of connection points: 4
#     Node 12, Type 0, BuildingBlock: AZAVOO_clean_sbu_0, # of connection points: 4
#     Node 13, Type 0, BuildingBlock: AZAVOO_clean_sbu_0, # of connection points: 4
#     Node 14, Type 0, BuildingBlock: AZAVOO_clean_sbu_0, # of connection points: 4
#     Node 15, Type 0, BuildingBlock: AZAVOO_clean_sbu_0, # of connection points: 4
#     Edge 16, Type (0, 0), BuildingBlock: ZUJKAS_clean_linker_0, # of connection points: 2
#     Edge 17, Type (0, 0), BuildingBlock: ZUJKAS_clean_linker_0, # of connection points: 2
#     Edge 18, Type (0, 0), BuildingBlock: ZUJKAS_clean_linker_0, # of connection points: 2
#     Edge 19, Type (0, 0), BuildingBlock: ZUJKAS_clean_linker_0, # of connection points: 2
#     Edge 20, Type (0, 0), BuildingBlock: ZUJKAS_clean_linker_0, # of connection points: 2
#     Edge 21, Type (0, 0), BuildingBlock: ZUJKAS_clean_linker_0, # of connection points: 2
#     Edge 22, Type (0, 0), BuildingBlock: ZUJKAS_clean_linker_0, # of connection points: 2
#     Edge 23, Type (0, 0), BuildingBlock: ZUJKAS_clean_linker_0, # of connection points: 2
#     Edge 24, Type (0, 0), BuildingBlock: ZUJKAS_clean_linker_0, # of connection points: 2
#     Edge 25, Type (0, 0), BuildingBlock: ZUJKAS_clean_linker_0, # of connection points: 2
#     Edge 26, Type (0, 0), BuildingBlock: ZUJKAS_clean_linker_0, # of connection points: 2
#     Edge 27, Type (0, 0), BuildingBlock: ZUJKAS_clean_linker_0, # of connection points: 2
#     Edge 28, Type (0, 0), BuildingBlock: ZUJKAS_clean_linker_0, # of connection points: 2
#     Edge 29, Type (0, 0), BuildingBlock: ZUJKAS_clean_linker_0, # of connection points: 2
#     Edge 30, Type (0, 0), BuildingBlock: ZUJKAS_clean_linker_0, # of connection points: 2
#     Edge 31, Type (0, 0), BuildingBlock: ZUJKAS_clean_linker_0, # of connection points: 2
#     Edge 32, Type (0, 0), BuildingBlock: ZUJKAS_clean_linker_0, # of connection points: 2
#     Edge 33, Type (0, 0), BuildingBlock: ZUJKAS_clean_linker_0, # of connection points: 2
#     Edge 34, Type (0, 0), BuildingBlock: ZUJKAS_clean_linker_0, # of connection points: 2
#     Edge 35, Type (0, 0), BuildingBlock: ZUJKAS_clean_linker_0, # of connection points: 2
#     Edge 36, Type (0, 0), BuildingBlock: ZUJKAS_clean_linker_0, # of connection points: 2
#     Edge 37, Type (0, 0), BuildingBlock: ZUJKAS_clean_linker_0, # of connection points: 2
#     Edge 38, Type (0, 0), BuildingBlock: ZUJKAS_clean_linker_0, # of connection points: 2
#     Edge 39, Type (0, 0), BuildingBlock: ZUJKAS_clean_linker_0, # of connection points: 2
#     Edge 40, Type (0, 0), BuildingBlock: ZUJKAS_clean_linker_0, # of connection points: 2
#     Edge 41, Type (0, 0), BuildingBlock: ZUJKAS_clean_linker_0, # of connection points: 2
#     Edge 42, Type (0, 0), BuildingBlock: ZUJKAS_clean_linker_0, # of connection points: 2
#     Edge 43, Type (0, 0), BuildingBlock: ZUJKAS_clean_linker_0, # of connection points: 2
#     Edge 44, Type (0, 0), BuildingBlock: ZUJKAS_clean_linker_0, # of connection points: 2
#     Edge 45, Type (0, 0), BuildingBlock: ZUJKAS_clean_linker_0, # of connection points: 2
#     Edge 46, Type (0, 0), BuildingBlock: ZUJKAS_clean_linker_0, # of connection points: 2
#     Edge 47, Type (0, 0), BuildingBlock: ZUJKAS_clean_linker_0, # of connection points: 2
# Relax obj value: 0.127
# Max RMSD: 0.133
# Mean RMSD: 0.133
data_MOF--net-atn--node1-AZAVOO_clean_sbu_0--edge1-ZUJKAS_clean_linker_0
_symmetry_space_group_name_H-M    P1
_symmetry_Int_Tables_number       1
_symmetry_cell_setting            triclinic
loop_
_symmetry_equiv_pos_as_xyz
'x, y, z'
_cell_length_a     78.794005
_cell_length_b     78.78638
_cell_length_c     34.054481
_cell_angle_alpha  89.981488
_cell_angle_beta   89.949172
_cell_angle_gamma 90.025927
loop_
_atom_site_label
_atom_site_type_symbol
_atom_site_fract_x
_atom_site_fract_y
_atom_site_fract_z
_atom_type_partial_charge
Mg0 Mg 0.18736 0.3826 0.00132 0.0
O1 O 0.20938 0.36513 0.98391 0.0
O2 O 0.21222 0.36576 0.9186 0.0
Mg3 Mg 0.19299 0.38472 0.89463 0.0
C4 C 0.21663 0.36023 0.95232 0.0
C5 C 0.18421 0.38708 0.08988 0.0
O6 O 0.17297 0.39784 0.07602 0.0
O7 O 0.20463 0.40562 0.99298 0.0
O8 O 0.20692 0.4059 0.92751 0.0
O9 O 0.16993 0.36091 0.99109 0.0
O10 O 0.1769 0.37994 0.9459 0.0
C11 C 0.21041 0.4121 0.96122 0.0
C12 C 0.16969 0.3658 0.95481 0.0
O13 O 0.19388 0.37944 0.06584 0.0
Mg14 Mg 0.61181 0.19897 0.0001 0.0
O15 O 0.62741 0.22314 0.99008 0.0
O16 O 0.62501 0.23046 0.92689 0.0
Mg17 Mg 0.60662 0.21207 0.89756 0.0
C18 C 0.63109 0.23282 0.9612 0.0
C19 C 0.61492 0.18618 0.08234 0.0
O20 O 0.60981 0.17324 0.06108 0.0
O21 O 0.5875 0.2147 0.00139 0.0
O22 O 0.58533 0.22155 0.93783 0.0
O23 O 0.63413 0.18398 0.98043 0.0
O24 O 0.61358 0.19291 0.94108 0.0
C25 C 0.57976 0.22203 0.97307 0.0
C26 C 0.62816 0.1858 0.9453 0.0
O27 O 0.61618 0.20062 0.06592 0.0
Mg28 Mg 0.79044 0.61036 -0.00363 0.0
O29 O 0.7685 0.62935 0.9914 0.0
O30 O 0.75622 0.62585 0.93283 0.0
Mg31 Mg 0.77001 0.60462 0.90061 0.0
C32 C 0.75727 0.63332 0.96599 0.0
C33 C 0.80867 0.6176 0.07209 0.0
O34 O 0.82065 0.6139 0.04661 0.0
O35 O 0.77171 0.58885 0.00698 0.0
O36 O 0.76038 0.5858 0.94707 0.0
O37 O 0.80771 0.62893 0.96814 0.0
O38 O 0.79282 0.60969 0.93572 0.0
C39 C 0.7616 0.58146 0.98312 0.0
C40 C 0.80292 0.62253 0.93494 0.0
O41 O 0.79328 0.61657 0.0612 0.0
Mg42 Mg 0.38418 0.79813 -0.00204 0.0
O43 O 0.36577 0.77621 0.98627 0.0
O44 O 0.37098 0.76622 0.92604 0.0
Mg45 Mg 0.39261 0.7816 0.89919 0.0
C46 C 0.36268 0.7659 0.95824 0.0
C47 C 0.37656 0.814 0.07544 0.0
O48 O 0.38231 0.82616 0.0526 0.0
O49 O 0.40553 0.77907 0.00786 0.0
O50 O 0.41067 0.77106 0.94593 0.0
O51 O 0.36599 0.81614 0.97069 0.0
O52 O 0.38624 0.80272 0.93815 0.0
C53 C 0.41404 0.77058 0.98263 0.0
C54 C 0.37318 0.81252 0.93757 0.0
O55 O 0.37635 0.79892 0.06219 0.0
Mg56 Mg 0.20623 0.61229 0.00218 0.0
O57 O 0.2284 0.63106 0.00499 0.0
O58 O 0.24181 0.62659 0.06186 0.0
Mg59 Mg 0.228 0.60586 0.09599 0.0
C60 C 0.24028 0.63444 0.02926 0.0
C61 C 0.18652 0.61669 0.92786 0.0
O62 O 0.17567 0.611 0.95409 0.0
O63 O 0.22452 0.5906 0.98973 0.0
O64 O 0.23543 0.58615 0.04948 0.0
O65 O 0.18939 0.63088 0.03179 0.0
O66 O 0.20484 0.61176 0.06305 0.0
C67 C 0.2339 0.58215 0.01328 0.0
C68 C 0.19466 0.62453 0.06464 0.0
O69 O 0.202 0.61821 0.93767 0.0
Mg70 Mg 0.37346 0.20742 0.00058 0.0
O71 O 0.35539 0.23015 -0.00318 0.0
O72 O 0.35937 0.24584 0.05069 0.0
Mg73 Mg 0.37904 0.23298 0.0896 0.0
C74 C 0.35202 0.24312 0.01791 0.0
C75 C 0.36879 0.18499 0.92962 0.0
O76 O 0.373 0.17461 0.95821 0.0
O77 O 0.39614 0.22433 0.9863 0.0
O78 O 0.39956 0.23796 0.04335 0.0
O79 O 0.35393 0.19243 0.03255 0.0
O80 O 0.37308 0.20862 0.06152 0.0
C81 C 0.4043 0.23464 0.00828 0.0
C82 C 0.36008 0.19882 0.06453 0.0
O83 O 0.36836 0.20083 0.93663 0.0
Mg84 Mg 0.79116 0.38168 0.9871 0.0
O85 O 0.76762 0.36498 -0.00388 0.0
O86 O 0.75898 0.36746 0.05838 0.0
Mg87 Mg 0.77563 0.38735 0.08782 0.0
C88 C 0.75761 0.361 0.02417 0.0
C89 C 0.79103 0.36101 0.91061 0.0
O90 O 0.78944 0.34914 0.93749 0.0
O91 O 0.77414 0.40498 0.98259 0.0
O92 O 0.76514 0.40717 0.04483 0.0
O93 O 0.80717 0.3607 0.01001 0.0
O94 O 0.79613 0.3811 0.04685 0.0
C95 C 0.76529 0.41225 0.00919 0.0
C96 C 0.80438 0.36705 0.04444 0.0
O97 O 0.79087 0.37648 0.92127 0.0
Mg98 Mg 0.61123 0.79498 -0.00405 0.0
O99 O 0.62975 0.7731 0.0072 0.0
O100 O 0.62997 0.76785 0.07172 0.0
Mg101 Mg 0.61111 0.7857 0.10129 0.0
C102 C 0.6352 0.76484 0.03692 0.0
C103 C 0.61038 0.80512 0.9122 0.0
O104 O 0.60526 0.81824 0.9329 0.0
O105 O 0.58888 0.77678 0.00318 0.0
O106 O 0.5895 0.77255 0.06814 0.0
O107 O 0.63231 0.81306 0.00751 0.0
O108 O 0.61439 0.80361 0.05276 0.0
C109 C 0.58289 0.76999 0.0344 0.0
C110 C 0.62779 0.81212 0.04398 0.0
O111 O 0.61328 0.79125 0.93004 0.0
Mg112 Mg 0.6984 0.87152 0.47568 0.0
O113 O 0.72379 0.85767 0.48155 0.0
O114 O 0.7403 0.86529 0.43107 0.0
Mg115 Mg 0.72574 0.88418 0.39329 0.0
C116 C 0.7377 0.85681 0.46243 0.0
C117 C 0.67782 0.85351 0.53873 0.0
O118 O 0.67007 0.84972 0.50575 0.0
O119 O 0.71027 0.89637 0.49669 0.0
O120 O 0.72615 0.90303 0.44428 0.0
O121 O 0.68933 0.85043 0.43765 0.0
O122 O 0.70181 0.87367 0.41531 0.0
C123 C 0.72059 0.90622 0.47874 0.0
C124 C 0.69541 0.85897 0.40841 0.0
O125 O 0.69078 0.86313 0.53748 0.0
Mg126 Mg 0.11098 0.69416 0.48816 0.0
O127 O 0.13019 0.71599 0.48421 0.0
O128 O 0.12734 0.72822 0.42537 0.0
Mg129 Mg 0.10629 0.71467 0.39219 0.0
C130 C 0.1345 0.72715 0.45887 0.0
C131 C 0.11535 0.67623 0.56576 0.0
O132 O 0.11005 0.66438 0.5415 0.0
O133 O 0.08957 0.71301 0.49744 0.0
O134 O 0.08704 0.72447 0.43754 0.0
O135 O 0.12972 0.67675 0.46151 0.0
O136 O 0.11112 0.69178 0.42745 0.0
C137 C 0.08242 0.72319 0.47341 0.0
C138 C 0.12398 0.68168 0.42777 0.0
O139 O 0.11639 0.6914 0.55332 0.0
Mg140 Mg 0.30107 0.10701 0.48412 0.0
O141 O 0.27855 0.12511 0.47708 0.0
O142 O 0.2679 0.12146 0.41676 0.0
Mg143 Mg 0.28422 0.10205 0.38442 0.0
C144 C 0.26771 0.12859 0.45041 0.0
C145 C 0.31638 0.11042 0.56481 0.0
O146 O 0.32876 0.10478 0.54247 0.0
O147 O 0.28273 0.08467 0.48936 0.0
O148 O 0.27478 0.08151 0.42667 0.0
O149 O 0.31826 0.127 0.46125 0.0
O150 O 0.30536 0.108 0.42395 0.0
C151 C 0.27458 0.07677 0.46255 0.0
C152 C 0.31454 0.12148 0.42651 0.0
O153 O 0.30168 0.11197 0.54988 0.0
Mg154 Mg 0.87828 0.29672 0.47151 0.0
O155 O 0.86461 0.27109 0.46985 0.0
O156 O 0.87025 0.25856 0.41237 0.0
Mg157 Mg 0.8875 0.2762 0.37725 0.0
C158 C 0.86303 0.25871 0.44593 0.0
C159 C 0.87011 0.31482 0.5471 0.0
O160 O 0.87292 0.32693 0.52134 0.0
O161 O 0.90367 0.28354 0.4822 0.0
O162 O 0.90829 0.27196 0.42306 0.0
O163 O 0.85589 0.30851 0.44277 0.0
O164 O 0.87801 0.29798 0.41082 0.0
C165 C 0.91276 0.27483 0.45849 0.0
C166 C 0.86316 0.30471 0.40983 0.0
O167 O 0.87215 0.29949 0.53646 0.0
Mg168 Mg 0.69943 0.11905 0.51831 0.0
O169 O 0.72552 0.13184 0.51707 0.0
O170 O 0.73885 0.12623 0.57355 0.0
Mg171 Mg 0.7213 0.10983 0.61105 0.0
C172 C 0.73834 0.13321 0.53975 0.0
C173 C 0.69673 0.13988 0.44188 0.0
O174 O 0.70149 0.15149 0.46725 0.0
O175 O 0.71152 0.09309 0.50763 0.0
O176 O 0.72383 0.0885 0.56596 0.0
O177 O 0.68878 0.142 0.54762 0.0
O178 O 0.69935 0.11978 0.57899 0.0
C179 C 0.7202 0.08384 0.53104 0.0
C180 C 0.69301 0.13479 0.58034 0.0
O181 O 0.6956 0.12453 0.4532 0.0
Mg182 Mg 0.88258 0.69491 0.50974 0.0
O183 O 0.86504 0.71786 0.5185 0.0
O184 O 0.87011 0.72899 0.57777 0.0
Mg185 Mg 0.89084 0.71335 0.60684 0.0
C186 C 0.86216 0.7289 0.54516 0.0
C187 C 0.85993 0.69272 0.43639 0.0
O188 O 0.84869 0.69408 0.46474 0.0
O189 O 0.9049 0.71268 0.49925 0.0
O190 O 0.90926 0.72307 0.55967 0.0
O191 O 0.86341 0.67825 0.53766 0.0
O192 O 0.8838 0.69155 0.57006 0.0
C193 C 0.91297 0.7222 0.52319 0.0
C194 C 0.87033 0.68228 0.57083 0.0
O195 O 0.87562 0.69357 0.44491 0.0
Mg196 Mg 0.28902 0.88013 0.51277 0.0
O197 O 0.26828 0.86003 0.52034 0.0
O198 O 0.25707 0.86305 0.58021 0.0
Mg199 Mg 0.27059 0.88486 0.61109 0.0
C200 C 0.2578 0.85557 0.54703 0.0
C201 C 0.30628 0.87535 0.43546 0.0
O202 O 0.31783 0.88127 0.45967 0.0
O203 O 0.2689 0.90066 0.50446 0.0
O204 O 0.2596 0.90352 0.5662 0.0
O205 O 0.30795 0.8626 0.53922 0.0
O206 O 0.29267 0.88106 0.57297 0.0
C207 C 0.2595 0.90793 0.53007 0.0
C208 C 0.30353 0.86888 0.57281 0.0
O209 O 0.2911 0.87396 0.44773 0.0
Mg210 Mg 0.12323 0.29095 0.52211 0.0
O211 O 0.13807 0.26606 0.518 0.0
O212 O 0.13056 0.24962 0.56866 0.0
Mg213 Mg 0.11108 0.264 0.60536 0.0
C214 C 0.13922 0.2523 0.53759 0.0
C215 C 0.12745 0.31286 0.44853 0.0
O216 O 0.1181 0.32247 0.47149 0.0
O217 O 0.09896 0.27799 0.50131 0.0
O218 O 0.09225 0.26256 0.55436 0.0
O219 O 0.14369 0.30148 0.55989 0.0
O220 O 0.12096 0.28807 0.58228 0.0
C221 C 0.08916 0.26771 0.51951 0.0
C222 C 0.1353 0.29523 0.58925 0.0
O223 O 0.13145 0.29808 0.46021 0.0
H224 H 0.23815 0.57059 0.93776 0.0
H225 H 0.24368 0.54121 0.91807 0.0
H226 H 0.25022 0.52721 0.03961 0.0
H227 H 0.24572 0.55647 0.05923 0.0
H228 H 0.26922 0.50744 0.99416 0.0
H229 H 0.20358 0.51092 0.93403 0.0
H230 H 0.21862 0.5246 0.91033 0.0
H231 H 0.21296 0.5282 0.96088 0.0
C232 C 0.24124 0.56132 0.96014 0.0
C233 C 0.24105 0.56577 0.00012 0.0
C234 C 0.2443 0.54453 0.94888 0.0
C235 C 0.24668 0.53191 0.97751 0.0
C236 C 0.24822 0.53668 0.017 0.0
H237 H 0.2194 0.43091 0.02593 0.0
H238 H 0.23259 0.45907 0.02611 0.0
C239 C 0.24556 0.55347 0.02819 0.0
C240 C 0.24514 0.51365 0.96778 0.0
H241 H 0.21645 0.48434 0.93553 0.0
C242 C 0.25779 0.50239 0.98081 0.0
C243 C 0.23009 0.50706 0.9508 0.0
C244 C 0.21546 0.51827 0.93851 0.0
C245 C 0.25553 0.48474 0.97845 0.0
C246 C 0.24036 0.47829 0.96239 0.0
C247 C 0.2281 0.48946 0.94767 0.0
C248 C 0.23606 0.46008 0.96312 0.0
C249 C 0.26912 0.47306 0.99389 0.0
C250 C 0.23394 0.45133 0.92773 0.0
C251 C 0.2264 0.43533 0.92747 0.0
C252 C 0.22061 0.42788 0.96264 0.0
C253 C 0.22363 0.43631 -0.00165 0.0
C254 C 0.23128 0.45233 -0.00145 0.0
H255 H 0.28136 0.4798 -0.00163 0.0
H256 H 0.26497 0.46772 0.0225 0.0
H257 H 0.27116 0.46229 0.97338 0.0
H258 H 0.23742 0.45723 0.90011 0.0
H259 H 0.22444 0.42917 0.89942 0.0
H260 H 0.42293 0.22477 0.94416 0.0
H261 H 0.4534 0.22913 0.93492 0.0
H262 H 0.45452 0.26243 0.03526 0.0
H263 H 0.42409 0.25842 0.04452 0.0
H264 H 0.47834 0.27104 0.97191 0.0
H265 H 0.48096 0.20399 0.0227 0.0
H266 H 0.4681 0.20763 0.97996 0.0
H267 H 0.46199 0.21671 0.02625 0.0
C268 C 0.42951 0.23347 0.96349 0.0
C269 C 0.42116 0.24089 -0.00429 0.0
C270 C 0.44693 0.23591 0.95821 0.0
C271 C 0.45618 0.24577 0.98501 0.0
C272 C 0.44758 0.25467 0.01449 0.0
H273 H 0.56089 0.22234 0.04093 0.0
H274 H 0.5314 0.23158 0.048 0.0
C275 C 0.43018 0.25228 0.01979 0.0
C276 C 0.47487 0.24466 0.98628 0.0
H277 H 0.50689 0.21676 0.00497 0.0
C278 C 0.48465 0.25921 0.97911 0.0
C279 C 0.48295 0.22931 -0.00311 0.0
C280 C 0.47301 0.21353 0.00727 0.0
C281 C 0.50246 0.25864 0.98102 0.0
C282 C 0.51054 0.24307 0.98998 0.0
C283 C 0.50067 0.22869 -0.00183 0.0
C284 C 0.52917 0.24087 0.98839 0.0
C285 C 0.51242 0.27468 0.97373 0.0
C286 C 0.53779 0.24345 0.9529 0.0
C287 C 0.5546 0.23823 0.94879 0.0
C288 C 0.56307 0.23012 0.97999 0.0
C289 C 0.55473 0.22846 0.01628 0.0
C290 C 0.53789 0.23375 0.02039 0.0
H291 H 0.5047 0.28615 0.98019 0.0
H292 H 0.52413 0.27506 0.99185 0.0
H293 H 0.51616 0.27522 0.94233 0.0
H294 H 0.53124 0.24857 0.92759 0.0
H295 H 0.56065 0.23982 0.92046 0.0
H296 H 0.73592 0.42351 0.04215 0.0
H297 H 0.72357 0.45185 0.03605 0.0
H298 H 0.76261 0.46529 0.95255 0.0
H299 H 0.7743 0.43674 0.95688 0.0
H300 H 0.73724 0.47866 0.0596 0.0
H301 H 0.7247 0.4895 0.90341 0.0
H302 H 0.7286 0.46847 0.92235 0.0
H303 H 0.74602 0.48192 0.90725 0.0
C304 C 0.74149 0.43239 0.02154 0.0
C305 C 0.75606 0.428 -1e-05 0.0
C306 C 0.73444 0.44858 0.01811 0.0
C307 C 0.74201 0.46074 0.99357 0.0
C308 C 0.75614 0.45605 0.97071 0.0
H309 H 0.77205 0.5583 0.03701 0.0
H310 H 0.76143 0.52952 0.04454 0.0
C311 C 0.76293 0.43973 0.97342 0.0
C312 C 0.73695 0.47886 -0.00385 0.0
H313 H 0.7347 0.51464 0.94042 0.0
C314 C 0.73618 0.48646 0.03347 0.0
C315 C 0.73492 0.48912 0.96241 0.0
C316 C 0.7334 0.48172 0.92172 0.0
C317 C 0.7352 0.50412 0.03773 0.0
C318 C 0.73577 0.51448 0.00384 0.0
C319 C 0.73473 0.50681 0.96663 0.0
C320 C 0.73984 0.53287 0.00579 0.0
C321 C 0.73404 0.51143 0.07859 0.0
C322 C 0.73126 0.54453 0.98174 0.0
C323 C 0.73769 0.56089 0.97643 0.0
C324 C 0.75265 0.56595 -0.00438 0.0
C325 C 0.76039 0.55481 0.02223 0.0
C326 C 0.75421 0.53833 0.02678 0.0
H327 H 0.72615 0.50316 0.09772 0.0
H328 H 0.74692 0.51193 0.09172 0.0
H329 H 0.72852 0.52439 0.07856 0.0
H330 H 0.72016 0.54066 0.96527 0.0
H331 H 0.73144 0.5693 0.95584 0.0
H332 H 0.56677 0.75381 0.09482 0.0
H333 H 0.5378 0.743 0.0953 0.0
H334 H 0.53352 0.75316 0.97133 0.0
H335 H 0.56253 0.76415 0.9704 0.0
H336 H 0.51277 0.76737 0.07192 0.0
H337 H 0.5072 0.70733 0.98816 0.0
H338 H 0.52673 0.71409 0.01131 0.0
H339 H 0.5203 0.72322 0.96532 0.0
C340 C 0.55987 0.75338 0.06734 0.0
C341 C 0.56687 0.76019 0.03266 0.0
C342 C 0.54334 0.74707 0.06772 0.0
C343 C 0.5336 0.74721 0.03338 0.0
C344 C 0.54097 0.7527 -0.00197 0.0
H345 H 0.4396 0.75914 0.93602 0.0
H346 H 0.46727 0.74906 0.95646 0.0
C347 C 0.55751 0.75911 -0.00238 0.0
C348 C 0.51502 0.7451 0.03584 0.0
H349 H 0.48175 0.72388 0.99506 0.0
C350 C 0.50589 0.75764 0.05595 0.0
C351 C 0.50626 0.73239 0.01495 0.0
C352 C 0.5156 0.71838 0.99395 0.0
C353 C 0.48821 0.75877 0.05285 0.0
C354 C 0.47939 0.74655 0.03013 0.0
C355 C 0.4885 0.73321 0.01251 0.0
C356 C 0.46145 0.74919 0.01862 0.0
C357 C 0.47946 0.7739 0.0711 0.0
C358 C 0.44861 0.75186 0.04664 0.0
C359 C 0.43278 0.75816 0.03504 0.0
C360 C 0.42944 0.76135 0.99516 0.0
C361 C 0.44176 0.757 0.96703 0.0
C362 C 0.45763 0.75111 0.97867 0.0
H363 H 0.48862 0.78371 0.08111 0.0
H364 H 0.47062 0.77991 0.04988 0.0
H365 H 0.47205 0.76971 0.09706 0.0
H366 H 0.45111 0.74992 0.07756 0.0
H367 H 0.4234 0.76107 0.05732 0.0
H368 H 0.70373 0.06301 0.47946 0.0
H369 H 0.70766 0.03233 0.47267 0.0
H370 H 0.75086 0.03455 0.55025 0.0
H371 H 0.74667 0.06508 0.55817 0.0
H372 H 0.73284 0.01124 0.44931 0.0
H373 H 0.71983 0.00221 0.6082 0.0
H374 H 0.7167 0.02226 0.58371 0.0
H375 H 0.73765 0.01574 0.59828 0.0
C376 C 0.71427 0.05701 0.4944 0.0
C377 C 0.72473 0.06635 0.5198 0.0
C378 C 0.71646 0.03948 0.49066 0.0
C379 C 0.72922 0.03112 0.51198 0.0
C380 C 0.74059 0.04068 0.53461 0.0
H381 H 0.74974 0.92411 0.46875 0.0
H382 H 0.75389 0.95434 0.4818 0.0
C383 C 0.73826 0.05812 0.53882 0.0
C384 C 0.73004 0.01236 0.51209 0.0
H385 H 0.7273 0.9777 0.57208 0.0
C386 C 0.7317 0.00389 0.47613 0.0
C387 C 0.72825 0.00283 0.54716 0.0
C388 C 0.72534 0.01119 0.58649 0.0
C389 C 0.73153 0.98612 0.47415 0.0
C390 C 0.73019 0.97658 0.50932 0.0
C391 C 0.72859 0.98505 0.54531 0.0
C392 C 0.72928 0.95783 0.50883 0.0
C393 C 0.73215 0.97778 0.43424 0.0
C394 C 0.71468 0.94954 0.52279 0.0
C395 C 0.71246 0.93216 0.51627 0.0
C396 C 0.72475 0.92296 0.49534 0.0
C397 C 0.73998 0.931 0.48451 0.0
C398 C 0.74231 0.94827 0.49162 0.0
H399 H 0.72876 0.98679 0.4104 0.0
H400 H 0.74521 0.97315 0.42853 0.0
H401 H 0.72336 0.96678 0.43282 0.0
H402 H 0.70455 0.95669 0.53655 0.0
H403 H 0.70059 0.92627 0.52484 0.0
H404 H 0.93623 0.71081 0.47078 0.0
H405 H 0.96484 0.72184 0.46127 0.0
H406 H 0.95295 0.76493 0.53463 0.0
H407 H 0.92459 0.75318 0.5465 0.0
H408 H 0.98059 0.74839 0.43504 0.0
H409 H 0.99055 0.74558 0.59683 0.0
H410 H 0.97141 0.73789 0.57422 0.0
H411 H 0.97473 0.76033 0.58058 0.0
C412 C 0.93962 0.7228 0.48424 0.0
C413 C 0.92839 0.73101 0.5099 0.0
C414 C 0.95598 0.72912 0.47882 0.0
C415 C 0.96126 0.74394 0.49833 0.0
C416 C 0.9494 0.75313 0.52057 0.0
H417 H 0.07036 0.75356 0.44653 0.0
H418 H 0.04177 0.76501 0.45662 0.0
C419 C 0.93318 0.74652 0.52699 0.0
C420 C 0.97954 0.74848 0.49813 0.0
H421 H 0.0143 0.75021 0.55782 0.0
C422 C 0.98799 0.74903 0.46186 0.0
C423 C 0.98914 0.74939 0.53328 0.0
C424 C 0.98106 0.74815 0.57344 0.0
C425 C 0.00576 0.74877 0.45961 0.0
C426 C 0.01536 0.74889 0.49481 0.0
C427 C 0.0069 0.75006 0.53097 0.0
C428 C 0.03371 0.74468 0.4952 0.0
C429 C 0.01389 0.74686 0.41967 0.0
C430 C 0.03918 0.73039 0.51641 0.0
C431 C 0.05564 0.72423 0.5119 0.0
C432 C 0.06683 0.73207 0.48547 0.0
C433 C 0.06184 0.74714 0.46663 0.0
C434 C 0.04548 0.75359 0.47205 0.0
H435 H 0.00448 0.74366 0.39655 0.0
H436 H 0.02005 0.75899 0.41124 0.0
H437 H 0.02371 0.73676 0.42007 0.0
H438 H 0.03039 0.72333 0.53469 0.0
H439 H 0.05913 0.71259 0.52678 0.0
H440 H 0.26181 0.06667 0.5339 0.0
H441 H 0.24893 0.03913 0.54972 0.0
H442 H 0.25497 0.02345 0.42908 0.0
H443 H 0.26683 0.05104 0.41279 0.0
H444 H 0.22656 0.01082 0.45746 0.0
H445 H 0.27892 -0.00094 0.5638 0.0
H446 H 0.26558 0.01674 0.57578 0.0
H447 H 0.27862 0.01742 0.53237 0.0
C448 C 0.26018 0.05738 0.51077 0.0
C449 C 0.26554 0.0609 0.47226 0.0
C450 C 0.25289 0.04165 0.51983 0.0
C451 C 0.2514 0.02906 0.49079 0.0
C452 C 0.256 0.03292 0.45202 0.0
H453 H 0.26044 0.92549 0.46045 0.0
H454 H 0.25206 0.95507 0.45116 0.0
C455 C 0.26287 0.04871 0.44279 0.0
C456 C 0.24658 0.01138 0.50065 0.0
H457 H 0.26027 0.97673 0.55166 0.0
C458 C 0.23377 0.00342 0.47848 0.0
C459 C 0.25606 0.00168 0.52795 0.0
C460 C 0.27065 0.00908 0.55111 0.0
C461 C 0.23076 0.9859 0.48161 0.0
C462 C 0.24062 0.97625 0.5079 0.0
C463 C 0.25268 0.98432 0.5317 0.0
C464 C 0.24037 0.95754 0.50837 0.0
C465 C 0.21749 0.97769 0.45606 0.0
C466 C 0.23584 0.94901 0.54287 0.0
C467 C 0.24058 0.93212 0.54829 0.0
C468 C 0.25022 0.92361 0.51952 0.0
C469 C 0.25316 0.93169 0.48331 0.0
C470 C 0.24829 0.94858 0.47784 0.0
H471 H 0.20859 0.98717 0.44353 0.0
H472 H 0.22385 0.97099 0.43143 0.0
H473 H 0.21016 0.96813 0.47304 0.0
H474 H 0.22979 0.95578 0.56678 0.0
H475 H 0.23786 0.92622 0.57633 0.0
H476 H 0.06982 0.28686 0.47015 0.0
H477 H 0.03953 0.28309 0.45732 0.0
H478 H 0.04055 0.23498 0.51786 0.0
H479 H 0.07069 0.23903 0.53221 0.0
H480 H 0.01864 0.26056 0.42327 0.0
H481 H 0.00756 0.26138 0.58437 0.0
H482 H 0.02799 0.26593 0.56298 0.0
H483 H 0.0209 0.24432 0.56811 0.0
C484 C 0.06369 0.27528 0.47985 0.0
C485 C 0.07249 0.26337 0.50273 0.0
C486 C 0.04636 0.27317 0.47265 0.0
C487 C 0.03769 0.25903 0.48783 0.0
C488 C 0.04688 0.24627 0.50709 0.0
H489 H 0.92996 0.2472 0.43203 0.0
H490 H 0.96002 0.24083 0.44182 0.0
C491 C 0.06411 0.24852 0.51494 0.0
C492 C 0.01893 0.25843 0.48624 0.0
H493 H 0.98351 0.25796 0.54415 0.0
C494 C 0.01093 0.25989 0.44964 0.0
C495 C 0.00893 0.25786 0.52085 0.0
C496 C 0.01675 0.25745 0.56133 0.0
C497 C 0.99322 0.26106 0.44664 0.0
C498 C 0.98322 0.26017 0.48119 0.0
C499 C 0.9912 0.25844 0.51774 0.0
C500 C 0.96455 0.26224 0.48021 0.0
C501 C 0.9855 0.26401 0.40664 0.0
C502 C 0.95687 0.2756 0.501 0.0
C503 C 0.93958 0.27899 0.4963 0.0
C504 C 0.92982 0.26918 0.47038 0.0
C505 C 0.93728 0.25511 0.45176 0.0
C506 C 0.95447 0.25155 0.45704 0.0
H507 H 0.99502 0.2688 0.38523 0.0
H508 H 0.98043 0.25185 0.39517 0.0
H509 H 0.97492 0.27328 0.40825 0.0
H510 H 0.96441 0.28391 0.51937 0.0
H511 H 0.93415 0.28992 0.51093 0.0
H512 H 0.23659 0.34826 0.89253 0.0
H513 H 0.25946 0.32737 0.89684 0.0
H514 H 0.25109 0.32283 0.02153 0.0
H515 H 0.22817 0.34363 0.01769 0.0
H516 H 0.28937 0.32959 0.94418 0.0
H517 H 0.25007 0.27322 0.98049 0.0
H518 H 0.24123 0.29236 0.95962 0.0
H519 H 0.24616 0.29139 0.01108 0.0
C520 C 0.23955 0.34279 0.9209 0.0
C521 C 0.2305 0.34761 0.95478 0.0
C522 C 0.25262 0.33086 0.92324 0.0
C523 C 0.25676 0.32343 0.95937 0.0
C524 C 0.24785 0.32823 0.99325 0.0
H525 H 0.34459 0.27419 0.04901 0.0
H526 H 0.32192 0.29351 0.02965 0.0
C527 C 0.23483 0.3402 0.99101 0.0
C528 C 0.27079 0.31107 0.96204 0.0
H529 H 0.27997 0.27044 0.98941 0.0
C530 C 0.28733 0.31661 0.95367 0.0
C531 C 0.26801 0.2941 0.9739 0.0
C532 C 0.25039 0.28732 0.98146 0.0
C533 C 0.30128 0.30577 0.9585 0.0
C534 C 0.29857 0.28907 0.97231 0.0
C535 C 0.28198 0.28331 0.97907 0.0
C536 C 0.31284 0.2777 0.98218 0.0
C537 C 0.31883 0.3123 0.94921 0.0
C538 C 0.3151 0.26235 0.96204 0.0
C539 C 0.32809 0.25123 0.973 0.0
C540 C 0.33885 0.25521 0.00466 0.0
C541 C 0.33655 0.2707 0.02452 0.0
C542 C 0.32366 0.28182 0.01337 0.0
H543 H 0.3184 0.32355 0.92955 0.0
H544 H 0.32519 0.31612 0.9769 0.0
H545 H 0.32666 0.30228 0.93509 0.0
H546 H 0.30676 0.25894 0.93804 0.0
H547 H 0.32947 0.23938 0.95719 0.0
H548 H 0.74791 0.34725 0.95381 0.0
H549 H 0.7254 0.32647 0.94223 0.0
H550 H 0.71454 0.32506 0.06634 0.0
H551 H 0.73669 0.34608 0.07818 0.0
H552 H 0.72257 0.29421 0.97013 0.0
H553 H 0.66782 0.3327 0.02044 0.0
H554 H 0.68844 0.34183 0.01107 0.0
H555 H 0.68428 0.33099 0.05659 0.0
C556 C 0.74066 0.3426 0.97864 0.0
C557 C 0.74402 0.34842 0.01691 0.0
C558 C 0.72781 0.33074 0.97195 0.0
C559 C 0.7181 0.32448 0.00333 0.0
C560 C 0.72157 0.33008 0.04158 0.0
H561 H 0.64407 0.24441 0.03082 0.0
H562 H 0.66508 0.26694 0.04024 0.0
C563 C 0.73433 0.34202 0.0483 0.0
C564 C 0.70477 0.31161 -0.00371 0.0
H565 H 0.66268 0.30317 0.01029 0.0
C566 C 0.70945 0.29622 0.9786 0.0
C567 C 0.68766 0.3143 0.00738 0.0
C568 C 0.68169 0.33091 0.02457 0.0
C569 C 0.69753 0.28327 0.97247 0.0
C570 C 0.68053 0.28588 0.98415 0.0
C571 C 0.67579 0.30126 0.0016 0.0
C572 C 0.66748 0.27269 0.9784 0.0
C573 C 0.70321 0.26677 0.95423 0.0
C574 C 0.66178 0.26875 0.94055 0.0
C575 C 0.64974 0.25597 0.93501 0.0
C576 C 0.64325 0.24689 0.96731 0.0
C577 C 0.64885 0.2511 0.00531 0.0
C578 C 0.66082 0.26397 0.01079 0.0
H579 H 0.71726 0.26572 0.95292 0.0
H580 H 0.6981 0.25582 0.97106 0.0
H581 H 0.69819 0.26593 0.92385 0.0
H582 H 0.66671 0.2755 0.91528 0.0
H583 H 0.64572 0.25307 0.90536 0.0
H584 H 0.75739 0.65497 0.02902 0.0
H585 H 0.73686 0.67741 0.04385 0.0
H586 H 0.70893 0.66499 0.93892 0.0
H587 H 0.72929 0.64259 0.92371 0.0
H588 H 0.72737 0.70595 0.99199 0.0
H589 H 0.67354 0.66355 0.03136 0.0
H590 H 0.69535 0.65647 0.03137 0.0
H591 H 0.6841 0.65874 0.98585 0.0
C592 C 0.74686 0.65697 0.00912 0.0
C593 C 0.74497 0.64694 0.97522 0.0
C594 C 0.73518 0.6698 0.01764 0.0
C595 C 0.72135 0.67267 0.99266 0.0
C596 C 0.71944 0.66278 0.95876 0.0
H597 H 0.6523 0.75698 0.96924 0.0
H598 H 0.67372 0.73488 0.95994 0.0
C599 C 0.73114 0.65004 0.95007 0.0
C600 C 0.70897 0.68617 0.00159 0.0
H601 H 0.66736 0.69288 0.02459 0.0
C602 C 0.71427 0.70314 -0.00067 0.0
C603 C 0.69196 0.68237 0.01143 0.0
C604 C 0.68585 0.6643 0.01551 0.0
C605 C 0.70282 0.71648 0.00576 0.0
C606 C 0.68569 0.71267 0.0144 0.0
C607 C 0.6805 0.6957 0.01762 0.0
C608 C 0.67291 0.72615 0.02014 0.0
C609 C 0.7091 0.73455 0.00346 0.0
C610 C 0.66523 0.72831 0.05691 0.0
C611 C 0.653 0.7409 0.06238 0.0
C612 C 0.64811 0.75145 0.031 0.0
C613 C 0.65576 0.7491 0.99404 0.0
C614 C 0.66807 0.73656 0.98869 0.0
H615 H 0.72317 0.73526 0.00492 0.0
H616 H 0.70497 0.74023 0.97522 0.0
H617 H 0.70367 0.74229 0.02764 0.0
H618 H 0.66877 0.72029 0.08143 0.0
H619 H 0.64734 0.7423 0.09119 0.0
H620 H 0.26765 0.64462 0.07255 0.0
H621 H 0.28759 0.66743 0.05769 0.0
H622 H 0.26098 0.67791 0.9498 0.0
H623 H 0.24078 0.65516 0.96447 0.0
H624 H 0.30874 0.67071 0.99087 0.0
H625 H 0.26351 0.72451 0.00593 0.0
H626 H 0.25901 0.70355 0.02477 0.0
H627 H 0.25705 0.70782 0.97318 0.0
C628 C 0.26596 0.65176 0.04565 0.0
C629 C 0.25255 0.64808 0.01977 0.0
C630 C 0.2774 0.66478 0.03723 0.0
C631 C 0.2756 0.67445 0.00294 0.0
C632 C 0.26238 0.67075 0.97676 0.0
H633 H 0.35285 0.74135 0.9061 0.0
H634 H 0.33139 0.71936 0.91565 0.0
C635 C 0.25092 0.65769 0.98511 0.0
C636 C 0.28782 0.6882 0.99448 0.0
H637 H 0.29133 0.73118 0.98472 0.0
C638 C 0.30496 0.68393 0.9894 0.0
C639 C 0.28279 0.70542 0.99305 0.0
C640 C 0.26462 0.7107 -0.00018 0.0
C641 C 0.31727 0.69646 0.98281 0.0
C642 C 0.31222 0.71366 0.9808 0.0
C643 C 0.29509 0.71795 0.98601 0.0
C644 C 0.32466 0.7274 0.97435 0.0
C645 C 0.33562 0.69125 0.97895 0.0
C646 C 0.32763 0.73944 0.00386 0.0
C647 C 0.33986 0.75207 -0.00147 0.0
C648 C 0.34927 0.75292 0.96345 0.0
C649 C 0.34594 0.74103 0.93358 0.0
C650 C 0.33372 0.72841 0.93899 0.0
H651 H 0.33781 0.67813 0.98978 0.0
H652 H 0.33938 0.69174 0.94755 0.0
H653 H 0.34399 0.70006 0.99546 0.0
H654 H 0.32068 0.73888 0.0313 0.0
H655 H 0.34203 0.76105 0.02207 0.0
H656 H 0.83566 0.72808 0.49343 0.0
H657 H 0.81454 0.75026 0.48186 0.0
H658 H 0.83908 0.78215 0.56781 0.0
H659 H 0.85975 0.75977 0.58074 0.0
H660 H 0.80611 0.7834 0.57693 0.0
H661 H 0.82079 0.79263 0.41932 0.0
H662 H 0.81478 0.77118 0.43006 0.0
H663 H 0.8339 0.77984 0.45102 0.0
C664 C 0.83656 0.73984 0.50977 0.0
C665 C 0.84939 0.74223 0.53787 0.0
C666 C 0.82456 0.75255 0.50296 0.0
C667 C 0.82546 0.76801 0.52335 0.0
C668 C 0.83818 0.77034 0.55163 0.0
H669 H 0.77163 0.85818 0.44698 0.0
H670 H 0.79325 0.8374 0.46517 0.0
C671 C 0.84999 0.75754 0.55897 0.0
C672 C 0.813 0.78171 0.51579 0.0
H673 H 0.79565 0.80589 0.44312 0.0
C674 C 0.8039 0.78841 0.5477 0.0
C675 C 0.81034 0.78844 0.47777 0.0
C676 C 0.8206 0.78278 0.44268 0.0
C677 C 0.79205 0.8015 0.54258 0.0
C678 C 0.78879 0.80764 0.50427 0.0
C679 C 0.79804 0.80108 0.47245 0.0
C680 C 0.77587 0.82086 0.49625 0.0
C681 C 0.78348 0.80884 0.57841 0.0
C682 C 0.75893 0.81855 0.50796 0.0
C683 C 0.74662 0.83059 0.49826 0.0
C684 C 0.75095 0.84491 0.47577 0.0
C685 C 0.76792 0.84724 0.46424 0.0
C686 C 0.78027 0.83537 0.47458 0.0
H687 H 0.79125 0.80688 0.60524 0.0
H688 H 0.78108 0.82265 0.57494 0.0
H689 H 0.77115 0.80234 0.58303 0.0
H690 H 0.75512 0.80723 0.52368 0.0
H691 H 0.7336 0.82834 0.5071 0.0
H692 H 0.25625 0.83532 0.48167 0.0
H693 H 0.23592 0.81258 0.46815 0.0
H694 H 0.21231 0.82089 0.58074 0.0
H695 H 0.23246 0.84366 0.59464 0.0
H696 H 0.22858 0.78213 0.51462 0.0
H697 H 0.17344 0.82562 0.49794 0.0
H698 H 0.19514 0.83293 0.49551 0.0
H699 H 0.18563 0.82816 0.54216 0.0
C700 C 0.24676 0.83232 0.50363 0.0
C701 C 0.24592 0.84142 0.53914 0.0
C702 C 0.2352 0.8193 0.49587 0.0
C703 C 0.22257 0.81524 0.5233 0.0
C704 C 0.22187 0.82402 0.55904 0.0
H705 H 0.15371 0.72879 0.52597 0.0
H706 H 0.17568 0.74964 0.54198 0.0
C707 C 0.23344 0.83699 0.56692 0.0
C708 C 0.20987 0.80204 0.51424 0.0
H709 H 0.16771 0.79618 0.49617 0.0
C710 C 0.21526 0.78514 0.51058 0.0
C711 C 0.19259 0.80614 0.50869 0.0
C712 C 0.18629 0.8242 0.51093 0.0
C713 C 0.20369 0.77214 0.50181 0.0
C714 C 0.18636 0.77622 0.4969 0.0
C715 C 0.18102 0.79313 0.50027 0.0
C716 C 0.17356 0.76322 0.48698 0.0
C717 C 0.21011 0.75422 0.49712 0.0
C718 C 0.16501 0.76412 0.45099 0.0
C719 C 0.15246 0.75231 0.44177 0.0
C720 C 0.14811 0.73941 0.46855 0.0
C721 C 0.15676 0.73853 0.50465 0.0
C722 C 0.16937 0.75036 0.51379 0.0
H723 H 0.22413 0.75376 0.49394 0.0
H724 H 0.20655 0.7467 0.52343 0.0
H725 H 0.20425 0.74808 0.47109 0.0
H726 H 0.16806 0.77402 0.43002 0.0
H727 H 0.14608 0.7534 0.41373 0.0
H728 H 0.23664 0.13151 0.41592 0.0
H729 H 0.21475 0.15265 0.42955 0.0
H730 H 0.24731 0.1761 0.51578 0.0
H731 H 0.26894 0.15448 0.50359 0.0
H732 H 0.21662 0.17391 0.54311 0.0
H733 H 0.21273 0.20054 0.39309 0.0
H734 H 0.2085 0.1782 0.39338 0.0
H735 H 0.22916 0.18589 0.40746 0.0
C736 C 0.23915 0.14122 0.43768 0.0
C737 C 0.25452 0.14141 0.45857 0.0
C738 C 0.22668 0.15337 0.44521 0.0
C739 C 0.22954 0.16623 0.47296 0.0
C740 C 0.24485 0.16636 0.49406 0.0
H741 H 0.16779 0.2571 0.49363 0.0
H742 H 0.18974 0.23622 0.47831 0.0
C743 C 0.2572 0.154 0.4871 0.0
C744 C 0.21636 0.17919 0.48103 0.0
H745 H 0.1904 0.20822 0.43718 0.0
C746 C 0.21098 0.1815 0.51996 0.0
C747 C 0.20919 0.18931 0.45093 0.0
C748 C 0.21533 0.1885 0.40897 0.0
C749 C 0.19849 0.19347 0.52961 0.0
C750 C 0.19066 0.2029 0.49924 0.0
C751 C 0.19621 0.20079 0.46037 0.0
C752 C 0.17696 0.21532 0.50726 0.0
C753 C 0.19419 0.19613 0.57239 0.0
C754 C 0.16227 0.21043 0.52772 0.0
C755 C 0.14986 0.22241 0.53711 0.0
C756 C 0.1517 0.23939 0.52525 0.0
C757 C 0.16601 0.2441 0.50311 0.0
C758 C 0.17857 0.23218 0.49439 0.0
H759 H 0.20477 0.19211 0.59181 0.0
H760 H 0.19124 0.20964 0.57861 0.0
H761 H 0.18293 0.18834 0.58008 0.0
H762 H 0.16047 0.19738 0.53676 0.0
H763 H 0.13885 0.21838 0.55374 0.0
H764 H 0.83659 0.25869 0.4976 0.0
H765 H 0.81753 0.23519 0.51308 0.0
H766 H 0.84604 0.20244 0.43575 0.0
H767 H 0.86465 0.22618 0.41868 0.0
H768 H 0.81402 0.19819 0.42332 0.0
H769 H 0.82385 0.19569 0.58369 0.0
H770 H 0.81703 0.21643 0.56903 0.0
H771 H 0.83712 0.20832 0.55192 0.0
C772 C 0.83889 0.24643 0.48421 0.0
C773 C 0.85213 0.24424 0.45702 0.0
C774 C 0.82806 0.23296 0.49331 0.0
C775 C 0.83056 0.21692 0.47629 0.0
C776 C 0.8439 0.21468 0.4494 0.0
H777 H 0.77118 0.13139 0.56482 0.0
H778 H 0.79474 0.15001 0.54656 0.0
C779 C 0.85453 0.22824 0.43968 0.0
C780 C 0.81868 0.20277 0.4848 0.0
H781 H 0.79865 0.18199 0.55948 0.0
C782 C 0.81084 0.19449 0.45312 0.0
C783 C 0.81476 0.19766 0.5236 0.0
C784 C 0.8238 0.20487 0.55892 0.0
C785 C 0.79875 0.18168 0.45918 0.0
C786 C 0.79388 0.17751 0.49801 0.0
C787 C 0.80217 0.18535 0.52967 0.0
C788 C 0.77992 0.16542 0.50662 0.0
C789 C 0.79151 0.17269 0.42383 0.0
C790 C 0.76375 0.16783 0.49018 0.0
C791 C 0.75038 0.15699 0.49995 0.0
C792 C 0.75279 0.14384 0.52724 0.0
C793 C 0.76895 0.14145 0.54376 0.0
C794 C 0.78241 0.15208 0.53336 0.0
H795 H 0.8006 0.17284 0.39887 0.0
H796 H 0.78824 0.1593 0.43062 0.0
H797 H 0.77984 0.17936 0.4141 0.0
H798 H 0.76134 0.17835 0.47051 0.0
H799 H 0.73801 0.15929 0.48716 0.0
H800 H 0.11968 0.34306 0.41365 0.0
H801 H 0.13217 0.35524 0.35431 0.0
H802 H 0.16372 0.3109 0.34073 0.0
H803 H 0.15104 0.29844 0.3997 0.0
H804 H 0.16576 0.3632 0.34051 0.0
H805 H 0.14274 0.31572 0.2323 0.0
H806 H 0.1343 0.31711 0.28148 0.0
H807 H 0.15436 0.30689 0.27277 0.0
C808 C 0.12916 0.3358 0.39786 0.0
C809 C 0.13432 0.31974 0.41132 0.0
C810 C 0.13632 0.34282 0.36402 0.0
C811 C 0.14876 0.33392 0.34291 0.0
C812 C 0.15391 0.31785 0.35615 0.0
H813 H 0.2005 0.36024 0.12444 0.0
H814 H 0.19441 0.34785 0.18884 0.0
C815 C 0.14668 0.31077 0.38992 0.0
C816 C 0.15657 0.34172 0.30764 0.0
H817 H 0.16152 0.33676 0.20874 0.0
C818 C 0.16487 0.35741 0.31169 0.0
C819 C 0.15544 0.3341 0.27013 0.0
C820 C 0.14611 0.31761 0.26367 0.0
C821 C 0.17198 0.36574 0.27916 0.0
C822 C 0.1706 0.35826 0.24161 0.0
C823 C 0.16264 0.34241 0.23767 0.0
C824 C 0.17622 0.36711 0.2055 0.0
C825 C 0.18093 0.38247 0.28523 0.0
C826 C 0.16828 0.38224 0.19395 0.0
C827 C 0.17171 0.38934 0.1572 0.0
C828 C 0.18308 0.38138 0.13123 0.0
C829 C 0.1917 0.36671 0.14375 0.0
C830 C 0.1882 0.35957 0.18048 0.0
H831 H 0.18512 0.38406 0.31615 0.0
H832 H 0.19214 0.38361 0.26564 0.0
H833 H 0.17206 0.39298 0.27821 0.0
H834 H 0.15879 0.38811 0.21254 0.0
H835 H 0.16485 0.40064 0.14848 0.0
H836 H 0.68131 0.11998 0.38643 0.0
H837 H 0.6679 0.12935 0.32537 0.0
H838 H 0.68406 0.1807 0.34803 0.0
H839 H 0.69759 0.17149 0.40898 0.0
H840 H 0.64157 0.15454 0.32285 0.0
H841 H 0.6974 0.17255 0.23186 0.0
H842 H 0.69909 0.15878 0.2741 0.0
H843 H 0.69687 0.18128 0.28062 0.0
C844 C 0.68228 0.13322 0.37812 0.0
C845 C 0.69048 0.145 0.40264 0.0
C846 C 0.67456 0.13855 0.34329 0.0
C847 C 0.67507 0.15569 0.33216 0.0
C848 C 0.68372 0.16738 0.35586 0.0
H849 H 0.6311 0.20879 0.13096 0.0
H850 H 0.64461 0.2026 0.19422 0.0
C851 C 0.69139 0.16209 0.39076 0.0
C852 C 0.66557 0.16151 0.29719 0.0
H853 H 0.67029 0.17909 0.20623 0.0
C854 C 0.64783 0.15989 0.2973 0.0
C855 C 0.67379 0.16866 0.2642 0.0
C856 C 0.69284 0.17034 0.26233 0.0
C857 C 0.63806 0.16521 0.26518 0.0
C858 C 0.64629 0.17202 0.23177 0.0
C859 C 0.66401 0.17391 0.23194 0.0
C860 C 0.63688 0.17625 0.1954 0.0
C861 C 0.61899 0.16366 0.26749 0.0
C862 C 0.62796 0.16353 0.17534 0.0
C863 C 0.6202 0.16702 0.13943 0.0
C864 C 0.62134 0.18329 0.12262 0.0
C865 C 0.62993 0.19616 0.14322 0.0
C866 C 0.63771 0.19263 0.17925 0.0
H867 H 0.61452 0.16337 0.29844 0.0
H868 H 0.61264 0.17432 0.25207 0.0
H869 H 0.61501 0.15161 0.25335 0.0
H870 H 0.62746 0.15072 0.18683 0.0
H871 H 0.61375 0.15679 0.12431 0.0
H872 H 0.87982 0.68393 0.37361 0.0
H873 H 0.87038 0.67238 0.31059 0.0
H874 H 0.81821 0.67843 0.34619 0.0
H875 H 0.82747 0.6901 0.40907 0.0
H876 H 0.85016 0.64262 0.30448 0.0
H877 H 0.81903 0.69805 0.23394 0.0
H878 H 0.83383 0.70022 0.27412 0.0
H879 H 0.81233 0.69375 0.28341 0.0
C880 C 0.86634 0.68311 0.36777 0.0
C881 C 0.8544 0.68788 0.39642 0.0
C882 C 0.86098 0.67646 0.33179 0.0
C883 C 0.84361 0.67466 0.3237 0.0
C884 C 0.83167 0.67996 0.35164 0.0
H885 H 0.78736 0.6291 0.13007 0.0
H886 H 0.79544 0.64215 0.19269 0.0
C887 C 0.837 0.68655 0.38765 0.0
C888 C 0.83801 0.66596 0.28744 0.0
H889 H 0.8152 0.67131 0.20319 0.0
C890 C 0.84259 0.6489 0.28221 0.0
C891 C 0.82798 0.67416 0.25876 0.0
C892 C 0.82309 0.6926 0.26252 0.0
C893 C 0.83728 0.63974 0.24911 0.0
C894 C 0.82742 0.64799 0.22014 0.0
C895 C 0.82272 0.66502 0.22553 0.0
C896 C 0.82246 0.63937 0.18326 0.0
C897 C 0.84205 0.62125 0.2458 0.0
C898 C 0.83497 0.6335 0.15732 0.0
C899 C 0.83042 0.626 0.12175 0.0
C900 C 0.81325 0.62435 0.11121 0.0
C901 C 0.8007 0.63011 0.13741 0.0
C902 C 0.80528 0.63762 0.1731 0.0
H903 H 0.84514 0.61569 0.27493 0.0
H904 H 0.83164 0.61374 0.23236 0.0
H905 H 0.85346 0.62004 0.2269 0.0
H906 H 0.8483 0.63504 0.16422 0.0
H907 H 0.84042 0.62181 0.10218 0.0
H908 H 0.28666 0.8588 0.38078 0.0
H909 H 0.29632 0.84568 0.31931 0.0
H910 H 0.34711 0.86372 0.3412 0.0
H911 H 0.33769 0.87673 0.40236 0.0
H912 H 0.31266 0.86045 0.25303 0.0
H913 H 0.35326 0.81219 0.32491 0.0
H914 H 0.33714 0.82393 0.35108 0.0
H915 H 0.35748 0.83342 0.34142 0.0
C916 C 0.29986 0.86006 0.37234 0.0
C917 C 0.31144 0.8687 0.3966 0.0
C918 C 0.30535 0.85251 0.33733 0.0
C919 C 0.3225 0.85341 0.32627 0.0
C920 C 0.33391 0.86253 0.34973 0.0
H921 H 0.37546 0.84503 0.11038 0.0
H922 H 0.36092 0.85291 0.17087 0.0
C923 C 0.32846 0.87006 0.38456 0.0
C924 C 0.32861 0.84508 0.28999 0.0
H925 H 0.35826 0.81701 0.25633 0.0
C926 C 0.32246 0.85078 0.2537 0.0
C927 C 0.34119 0.83226 0.291 0.0
C928 C 0.34755 0.82495 0.32921 0.0
C929 C 0.32923 0.84467 0.21831 0.0
C930 C 0.34264 0.83273 0.21939 0.0
C931 C 0.34813 0.82633 0.25563 0.0
C932 C 0.3518 0.82758 0.18336 0.0
C933 C 0.32215 0.85122 0.18005 0.0
C934 C 0.35207 0.81056 0.17118 0.0
C935 C 0.3605 0.80595 0.13656 0.0
C936 C 0.36888 0.8183 0.11383 0.0
C937 C 0.36903 0.83521 0.12698 0.0
C938 C 0.36062 0.83978 0.16142 0.0
H939 H 0.30904 0.85618 0.18377 0.0
H940 H 0.33023 0.86178 0.1693 0.0
H941 H 0.32201 0.84112 0.15732 0.0
H942 H 0.34548 0.80092 0.18803 0.0
H943 H 0.36016 0.79281 0.12724 0.0
H944 H 0.13113 0.69665 0.61982 0.0
H945 H 0.14451 0.68782 0.68151 0.0
H946 H 0.12777 0.63641 0.66186 0.0
H947 H 0.11455 0.64501 0.60021 0.0
H948 H 0.13088 0.67191 0.74866 0.0
H949 H 0.17938 0.63163 0.67629 0.0
H950 H 0.16685 0.64702 0.6498 0.0
H951 H 0.15802 0.62663 0.66199 0.0
C952 C 0.13019 0.68349 0.62879 0.0
C953 C 0.12191 0.67149 0.60494 0.0
C954 C 0.13787 0.67847 0.66396 0.0
C955 C 0.13744 0.6614 0.6757 0.0
C956 C 0.12859 0.64957 0.65279 0.0
H957 H 0.15432 0.61468 0.89926 0.0
H958 H 0.14343 0.62641 0.83798 0.0
C959 C 0.12094 0.65454 0.61769 0.0
C960 C 0.14624 0.65586 0.71187 0.0
H961 H 0.17633 0.62832 0.74564 0.0
C962 C 0.14091 0.66249 0.74803 0.0
C963 C 0.15952 0.64379 0.71083 0.0
C964 C 0.16642 0.63696 0.67263 0.0
C965 C 0.14808 0.65686 0.78341 0.0
C966 C 0.1607 0.64409 0.78249 0.0
C967 C 0.16651 0.63796 0.74624 0.0
C968 C 0.1676 0.63653 0.81891 0.0
C969 C 0.14206 0.6646 0.82148 0.0
C970 C 0.18495 0.63775 0.82774 0.0
C971 C 0.19129 0.63093 0.86273 0.0
C972 C 0.18034 0.62271 0.88929 0.0
C973 C 0.16307 0.62105 0.87963 0.0
C974 C 0.15679 0.62785 0.84473 0.0
H975 H 0.13613 0.67722 0.81669 0.0
H976 H 0.13239 0.65617 0.83495 0.0
H977 H 0.15271 0.66604 0.84257 0.0
H978 H 0.19352 0.64427 0.80792 0.0
H979 H 0.20465 0.63239 0.86931 0.0
H980 H 0.29511 0.12745 0.61507 0.0
H981 H 0.30272 0.141 0.67745 0.0
H982 H 0.3537 0.12167 0.66678 0.0
H983 H 0.34632 0.10827 0.60449 0.0
H984 H 0.31607 0.1277 0.74797 0.0
H985 H 0.36052 0.1732 0.67812 0.0
H986 H 0.34532 0.16097 0.65035 0.0
H987 H 0.36488 0.15143 0.66624 0.0
C988 C 0.30789 0.12596 0.6262 0.0
C989 C 0.32016 0.11693 0.60462 0.0
C990 C 0.31222 0.13373 0.66177 0.0
C991 C 0.32887 0.13265 0.67619 0.0
C992 C 0.34089 0.123 0.65564 0.0
H993 H 0.36935 0.15195 0.90596 0.0
H994 H 0.35886 0.14013 0.84439 0.0
C995 C 0.3366 0.11525 0.62016 0.0
C996 C 0.33382 0.14173 0.71249 0.0
H997 H 0.36165 0.1712 0.74795 0.0
C998 C 0.32594 0.1373 0.74799 0.0
C999 C 0.34649 0.15447 0.71226 0.0
C1000 C 0.35469 0.16045 0.67466 0.0
C1001 C 0.33085 0.14484 0.78356 0.0
C1002 C 0.34416 0.15692 0.78359 0.0
C1003 C 0.35159 0.1618 0.74789 0.0
C1004 C 0.35087 0.16428 0.82048 0.0
C1005 C 0.32171 0.13984 0.82076 0.0
C1006 C 0.35046 0.18188 0.82684 0.0
C1007 C 0.35661 0.18874 0.86197 0.0
C1008 C 0.36334 0.17808 0.89122 0.0
C1009 C 0.36413 0.16051 0.88421 0.0
C1010 C 0.35802 0.1537 0.84914 0.0
H1011 H 0.30897 0.13445 0.81444 0.0
H1012 H 0.3292 0.12998 0.83628 0.0
H1013 H 0.3202 0.15088 0.84073 0.0
H1014 H 0.34514 0.19028 0.80487 0.0
H1015 H 0.35584 0.20233 0.86645 0.0
H1016 H 0.80048 0.38212 0.85045 0.0
H1017 H 0.81257 0.37386 0.78705 0.0
H1018 H 0.80534 0.32108 0.81624 0.0
H1019 H 0.79308 0.32918 0.87936 0.0
H1020 H 0.84198 0.35396 0.78022 0.0
H1021 H 0.78768 0.32382 0.70329 0.0
H1022 H 0.78494 0.33761 0.74517 0.0
H1023 H 0.79137 0.31592 0.75202 0.0
C1024 C 0.80111 0.36876 0.84304 0.0
C1025 C 0.79587 0.3563 0.87003 0.0
C1026 C 0.80808 0.36407 0.80687 0.0
C1027 C 0.80976 0.34687 0.79688 0.0
C1028 C 0.80391 0.33443 0.82307 0.0
H1029 H 0.85869 0.29299 0.60415 0.0
H1030 H 0.84483 0.30048 0.66628 0.0
C1031 C 0.79697 0.3391 0.85925 0.0
C1032 C 0.81895 0.34189 0.76072 0.0
H1033 H 0.81495 0.32004 0.67468 0.0
C1034 C 0.83605 0.34663 0.757 0.0
C1035 C 0.81122 0.33218 0.73076 0.0
C1036 C 0.79275 0.32719 0.7327 0.0
C1037 C 0.8457 0.34178 0.72425 0.0
C1038 C 0.83794 0.33218 0.69413 0.0
C1039 C 0.82087 0.32735 0.69793 0.0
C1040 C 0.84714 0.3276 0.65771 0.0
C1041 C 0.86419 0.34673 0.72249 0.0
C1042 C 0.85305 0.34036 0.63247 0.0
C1043 C 0.86097 0.33615 0.59713 0.0
C1044 C 0.86306 0.31906 0.58618 0.0
C1045 C 0.85735 0.30627 0.61181 0.0
C1046 C 0.84938 0.31051 0.64721 0.0
H1047 H 0.86928 0.3498 0.75206 0.0
H1048 H 0.87197 0.33641 0.7095 0.0
H1049 H 0.8656 0.35818 0.70378 0.0
H1050 H 0.85119 0.35362 0.63969 0.0
H1051 H 0.86515 0.34632 0.57803 0.0
H1052 H 0.60667 0.83368 0.86814 0.0
H1053 H 0.61729 0.83889 0.80213 0.0
H1054 H 0.63511 0.78723 0.79506 0.0
H1055 H 0.62481 0.78195 0.86196 0.0
H1056 H 0.65939 0.81006 0.77349 0.0
H1057 H 0.59949 0.82471 0.69613 0.0
H1058 H 0.60203 0.83741 0.7394 0.0
H1059 H 0.59989 0.81473 0.74384 0.0
C1060 C 0.61261 0.8233 0.85244 0.0
C1061 C 0.6149 0.80738 0.87035 0.0
C1062 C 0.61859 0.8263 0.81452 0.0
C1063 C 0.62678 0.8134 0.79344 0.0
C1064 C 0.62873 0.79734 0.81079 0.0
H1065 H 0.65385 0.82901 0.54845 0.0
H1066 H 0.64242 0.81786 0.60979 0.0
C1067 C 0.62279 0.79433 0.84891 0.0
C1068 C 0.6343 0.81717 0.7545 0.0
H1069 H 0.62512 0.83429 0.66502 0.0
C1070 C 0.65188 0.81515 0.74955 0.0
C1071 C 0.62447 0.82364 0.72318 0.0
C1072 C 0.6054 0.82508 0.72573 0.0
C1073 C 0.65998 0.81999 0.71454 0.0
C1074 C 0.65027 0.82739 0.68409 0.0
C1075 C 0.63261 0.82885 0.68858 0.0
C1076 C 0.65806 0.83363 0.64714 0.0
C1077 C 0.67881 0.81701 0.71047 0.0
C1078 C 0.67067 0.84624 0.64769 0.0
C1079 C 0.67737 0.85258 0.61252 0.0
C1080 C 0.67135 0.84658 0.57625 0.0
C1081 C 0.65873 0.83395 0.57588 0.0
C1082 C 0.65218 0.82754 0.61093 0.0
H1083 H 0.68326 0.80686 0.73065 0.0
H1084 H 0.68222 0.81344 0.67993 0.0
H1085 H 0.68569 0.82885 0.7181 0.0
H1086 H 0.67511 0.85143 0.67527 0.0
H1087 H 0.687 0.86238 0.61375 0.0
H1088 H 0.83904 0.66826 0.58251 0.0
H1089 H 0.82642 0.65957 0.64514 0.0
H1090 H 0.87134 0.67624 0.70623 0.0
H1091 H 0.8841 0.6849 0.64391 0.0
H1092 H 0.85928 0.64171 0.72275 0.0
H1093 H 0.80945 0.69143 0.7368 0.0
H1094 H 0.81086 0.68072 0.69023 0.0
H1095 H 0.82798 0.69407 0.70608 0.0
C1096 C 0.84619 0.67015 0.60931 0.0
C1097 C 0.86252 0.67732 0.6084 0.0
C1098 C 0.83893 0.66528 0.64498 0.0
C1099 C 0.84792 0.66748 0.6801 0.0
C1100 C 0.86421 0.6746 0.67931 0.0
H1101 H 0.8199 0.65235 0.92336 0.0
H1102 H 0.83036 0.66377 0.86089 0.0
C1103 C 0.87144 0.67955 0.64373 0.0
C1104 C 0.84069 0.66161 0.71757 0.0
H1105 H 0.80924 0.66935 0.7841 0.0
C1106 C 0.84836 0.64774 0.73625 0.0
C1107 C 0.82653 0.66964 0.73494 0.0
C1108 C 0.81823 0.68488 0.71626 0.0
C1109 C 0.84204 0.6415 0.77187 0.0
C1110 C 0.82773 0.64936 0.78893 0.0
C1111 C 0.82018 0.66337 0.77058 0.0
C1112 C 0.82049 0.64308 0.82599 0.0
C1113 C 0.85071 0.62662 0.79122 0.0
C1114 C 0.81133 0.62785 0.82653 0.0
C1115 C 0.80533 0.62133 0.86197 0.0
C1116 C 0.80845 0.62996 0.89736 0.0
C1117 C 0.81736 0.64541 0.89655 0.0
C1118 C 0.82328 0.65197 0.861 0.0
H1119 H 0.86306 0.62357 0.77717 0.0
H1120 H 0.85288 0.62926 0.82286 0.0
H1121 H 0.84239 0.61528 0.78916 0.0
H1122 H 0.80908 0.6209 0.79959 0.0
H1123 H 0.79858 0.60936 0.86168 0.0
H1124 H 0.32212 0.83994 0.58377 0.0
H1125 H 0.33371 0.82927 0.64589 0.0
H1126 H 0.3117 0.87177 0.70727 0.0
H1127 H 0.30015 0.88255 0.64567 0.0
H1128 H 0.34844 0.86467 0.71979 0.0
H1129 H 0.30542 0.80933 0.74219 0.0
H1130 H 0.31487 0.81194 0.69439 0.0
H1131 H 0.2997 0.82718 0.71159 0.0
C1132 C 0.31968 0.84695 0.61055 0.0
C1133 C 0.31016 0.86202 0.60995 0.0
C1134 C 0.32624 0.84081 0.64591 0.0
C1135 C 0.32339 0.84971 0.68093 0.0
C1136 C 0.31391 0.86472 0.68042 0.0
H1137 H 0.34205 0.82674 0.92493 0.0
H1138 H 0.33004 0.83575 0.86189 0.0
C1139 C 0.30728 0.87081 0.64524 0.0
C1140 C 0.3308 0.8438 0.7181 0.0
H1141 H 0.32724 0.81335 0.78882 0.0
C1142 C 0.34388 0.85343 0.73491 0.0
C1143 C 0.32463 0.82923 0.73758 0.0
C1144 C 0.31031 0.8188 0.72082 0.0
C1145 C 0.35105 0.84878 0.77092 0.0
C1146 C 0.34497 0.83415 0.79028 0.0
C1147 C 0.33184 0.82455 0.7736 0.0
C1148 C 0.35214 0.82863 0.82801 0.0
C1149 C 0.36493 0.8596 0.78836 0.0
C1150 C 0.36846 0.82164 0.82937 0.0
C1151 C 0.37532 0.81646 0.86512 0.0
C1152 C 0.36594 0.81823 0.90001 0.0
C1153 C 0.34958 0.82528 0.89851 0.0
C1154 C 0.34269 0.83037 0.86264 0.0
H1155 H 0.36628 0.87194 0.77284 0.0
H1156 H 0.36236 0.86209 0.81991 0.0
H1157 H 0.37719 0.85273 0.78633 0.0
H1158 H 0.37586 0.82017 0.80275 0.0
H1159 H 0.388 0.81117 0.86542 0.0
H1160 H 0.16823 0.29849 0.61349 0.0
H1161 H 0.17818 0.30281 0.68092 0.0
H1162 H 0.1264 0.30023 0.72233 0.0
H1163 H 0.11669 0.29477 0.65589 0.0
H1164 H 0.17302 0.32815 0.7223 0.0
H1165 H 0.14735 0.2754 0.80887 0.0
H1166 H 0.14761 0.27478 0.7559 0.0
H1167 H 0.13005 0.28433 0.78196 0.0
C1168 C 0.15909 0.29844 0.63727 0.0
C1169 C 0.14172 0.29633 0.62966 0.0
C1170 C 0.16476 0.30086 0.67575 0.0
C1171 C 0.1531 0.30155 0.70702 0.0
C1172 C 0.13577 0.29908 0.69923 0.0
H1173 H 0.15414 0.37397 0.88685 0.0
H1174 H 0.15118 0.35599 0.82882 0.0
C1175 C 0.13018 0.2962 0.66105 0.0
C1176 C 0.15848 0.30738 0.74649 0.0
H1177 H 0.14911 0.30293 0.84383 0.0
C1178 C 0.16814 0.32232 0.74887 0.0
C1179 C 0.1526 0.29966 0.78154 0.0
C1180 C 0.14402 0.28254 0.78182 0.0
C1181 C 0.17084 0.33046 0.7848 0.0
C1182 C 0.16296 0.32395 0.81898 0.0
C1183 C 0.1546 0.30825 0.81732 0.0
C1184 C 0.16251 0.33383 0.85586 0.0
C1185 C 0.18187 0.34614 0.78549 0.0
C1186 C 0.16852 0.32688 0.89118 0.0
C1187 C 0.16962 0.337 0.92481 0.0
C1188 C 0.16488 0.35416 0.9232 0.0
C1189 C 0.15792 0.36076 0.88859 0.0
C1190 C 0.15645 0.35058 0.85539 0.0
H1191 H 0.19164 0.34566 0.76196 0.0
H1192 H 0.17388 0.35749 0.78005 0.0
H1193 H 0.18837 0.34767 0.81418 0.0
H1194 H 0.17306 0.31391 0.89225 0.0
H1195 H 0.1752 0.33173 0.9512 0.0
H1196 H 0.61695 0.17286 0.87692 0.0
H1197 H 0.63323 0.16818 0.81694 0.0
H1198 H 0.67827 0.18726 0.87418 0.0
H1199 H 0.66211 0.19084 0.93528 0.0
H1200 H 0.64809 0.19 0.77202 0.0
H1201 H 0.69721 0.14535 0.82736 0.0
H1202 H 0.67903 0.15127 0.85636 0.0
H1203 H 0.69677 0.16553 0.85171 0.0
C1204 C 0.63041 0.17573 0.8768 0.0
C1205 C 0.63841 0.18194 0.91056 0.0
C1206 C 0.63968 0.17319 0.84253 0.0
C1207 C 0.65703 0.17722 0.84108 0.0
C1208 C 0.66503 0.1836 0.87486 0.0
H1209 H 0.69322 0.16891 0.59574 0.0
H1210 H 0.68842 0.18256 0.65963 0.0
C1211 C 0.65582 0.18568 0.90965 0.0
C1212 C 0.66633 0.17493 0.80363 0.0
H1213 H 0.69839 0.1526 0.76067 0.0
C1214 C 0.65915 0.18187 0.76948 0.0
C1215 C 0.68087 0.1645 0.80055 0.0
C1216 C 0.68887 0.15611 0.83585 0.0
C1217 C 0.66516 0.17752 0.7321 0.0
C1218 C 0.67939 0.16665 0.72892 0.0
C1219 C 0.68746 0.16089 0.76322 0.0
C1220 C 0.68445 0.15894 0.691 0.0
C1221 C 0.65535 0.1836 0.69668 0.0
C1222 C 0.68479 0.14118 0.68788 0.0
C1223 C 0.6881 0.13345 0.652 0.0
C1224 C 0.69077 0.14331 0.61829 0.0
C1225 C 0.6909 0.16108 0.62134 0.0
C1226 C 0.68807 0.16885 0.6577 0.0
H1227 H 0.64266 0.18865 0.70481 0.0
H1228 H 0.6625 0.19397 0.68209 0.0
H1229 H 0.65352 0.17316 0.67521 0.0
H1230 H 0.68201 0.13323 0.71306 0.0
H1231 H 0.68794 0.11971 0.65038 0.0
H1232 H 0.87831 0.31217 0.34093 0.0
H1233 H 0.86474 0.31892 0.27864 0.0
H1234 H 0.81558 0.30923 0.33026 0.0
H1235 H 0.8292 0.30369 0.39377 0.0
H1236 H 0.84672 0.30251 0.22931 0.0
H1237 H 0.80696 0.35495 0.288 0.0
H1238 H 0.82288 0.34459 0.31729 0.0
H1239 H 0.80252 0.33471 0.30972 0.0
C1240 C 0.86459 0.31153 0.33897 0.0
C1241 C 0.85473 0.30768 0.37206 0.0
C1242 C 0.85684 0.31532 0.30334 0.0
C1243 C 0.83909 0.31492 0.29986 0.0
C1244 C 0.82924 0.3102 0.33253 0.0
H1245 H 0.8031 0.33294 0.05738 0.0
H1246 H 0.80913 0.31814 0.11921 0.0
C1247 C 0.837 0.30693 0.36866 0.0
C1248 C 0.83121 0.31999 0.26214 0.0
H1249 H 0.80457 0.34902 0.22083 0.0
C1250 C 0.83747 0.31268 0.22741 0.0
C1251 C 0.81914 0.33326 0.25975 0.0
C1252 C 0.81258 0.34245 0.29561 0.0
C1253 C 0.83286 0.31893 0.19039 0.0
C1254 C 0.82088 0.33228 0.18803 0.0
C1255 C 0.8138 0.33884 0.22271 0.0
C1256 C 0.81673 0.34086 0.15051 0.0
C1257 C 0.8417 0.31187 0.15459 0.0
C1258 C 0.81836 0.35858 0.14794 0.0
C1259 C 0.81433 0.36704 0.1133 0.0
C1260 C 0.80903 0.35788 0.08026 0.0
C1261 C 0.80751 0.34017 0.08244 0.0
C1262 C 0.81102 0.33173 0.11762 0.0
H1263 H 0.85363 0.30516 0.16243 0.0
H1264 H 0.83324 0.30257 0.13993 0.0
H1265 H 0.84483 0.32208 0.13331 0.0
H1266 H 0.82277 0.36593 0.17283 0.0
H1267 H 0.81553 0.38073 0.11219 0.0
H1268 H 0.61772 0.82872 0.10887 0.0
H1269 H 0.63487 0.8357 0.16627 0.0
H1270 H 0.67913 0.81478 0.10912 0.0
H1271 H 0.66205 0.8088 0.05047 0.0
H1272 H 0.64915 0.81328 0.21085 0.0
H1273 H 0.69935 0.85664 0.15543 0.0
H1274 H 0.6809 0.85125 0.12673 0.0
H1275 H 0.69834 0.83661 0.13048 0.0
C1276 C 0.63121 0.82609 0.10827 0.0
C1277 C 0.63869 0.81842 0.07548 0.0
C1278 C 0.64099 0.82997 0.14103 0.0
C1279 C 0.65832 0.82581 0.14199 0.0
C1280 C 0.66591 0.81848 0.10873 0.0
H1281 H 0.69591 0.82586 0.38482 0.0
H1282 H 0.69133 0.81522 0.31799 0.0
C1283 C 0.65617 0.81504 0.07535 0.0
C1284 C 0.66775 0.82792 0.17921 0.0
H1285 H 0.70131 0.84812 0.22177 0.0
C1286 C 0.66058 0.8209 0.21326 0.0
C1287 C 0.68274 0.83772 0.18213 0.0
C1288 C 0.69073 0.84612 0.14683 0.0
C1289 C 0.66723 0.82431 0.25047 0.0
C1290 C 0.68216 0.83423 0.25358 0.0
C1291 C 0.68994 0.84043 0.21929 0.0
C1292 C 0.68848 0.84019 0.29211 0.0
C1293 C 0.65744 0.81818 0.28596 0.0
C1294 C 0.68982 0.8577 0.29905 0.0
C1295 C 0.69308 0.86373 0.33672 0.0
C1296 C 0.69467 0.85237 0.36819 0.0
C1297 C 0.69437 0.83484 0.36099 0.0
C1298 C 0.69166 0.82878 0.32296 0.0
H1299 H 0.64424 0.81446 0.27835 0.0
H1300 H 0.66382 0.80686 0.29844 0.0
H1301 H 0.65682 0.82815 0.30895 0.0
H1302 H 0.6875 0.86676 0.27572 0.0
H1303 H 0.69334 0.87732 0.34157 0.0
H1304 H 0.15244 0.66225 0.41967 0.0
H1305 H 0.16628 0.65364 0.35842 0.0
H1306 H 0.1287 0.68109 0.29193 0.0
H1307 H 0.1146 0.68951 0.35272 0.0
H1308 H 0.14769 0.63564 0.29272 0.0
H1309 H 0.17736 0.69725 0.25124 0.0
H1310 H 0.17181 0.69205 0.30134 0.0
H1311 H 0.15555 0.69776 0.267 0.0
C1312 C 0.14716 0.66652 0.39203 0.0
C1313 C 0.13251 0.6767 0.39103 0.0
C1314 C 0.15509 0.66162 0.35718 0.0
C1315 C 0.14859 0.66697 0.32098 0.0
C1316 C 0.13402 0.67712 0.31979 0.0
H1317 H 0.17298 0.65099 0.07713 0.0
H1318 H 0.1624 0.6614 0.14023 0.0
C1319 C 0.126 0.68191 0.35455 0.0
C1320 C 0.15649 0.66123 0.28419 0.0
H1321 H 0.17874 0.67507 0.2045 0.0
C1322 C 0.15459 0.64418 0.27346 0.0
C1323 C 0.16529 0.67254 0.2593 0.0
C1324 C 0.16778 0.69092 0.27021 0.0
C1325 C 0.16102 0.63814 0.23777 0.0
C1326 C 0.16996 0.64942 0.21286 0.0
C1327 C 0.17193 0.66648 0.22378 0.0
C1328 C 0.17712 0.64376 0.17502 0.0
C1329 C 0.15769 0.6199 0.22655 0.0
C1330 C 0.18918 0.6307 0.1739 0.0
C1331 C 0.19509 0.62462 0.138 0.0
C1332 C 0.18927 0.63171 0.10261 0.0
C1333 C 0.17768 0.64525 0.10389 0.0
C1334 C 0.17164 0.65123 0.13986 0.0
H1335 H 0.14689 0.61445 0.24333 0.0
H1336 H 0.15492 0.61873 0.1947 0.0
H1337 H 0.16912 0.61219 0.23316 0.0
H1338 H 0.19383 0.62504 0.20081 0.0
H1339 H 0.20397 0.61416 0.1381 0.0
H1340 H 0.31019 0.11218 0.35002 0.0
H1341 H 0.3167 0.12885 0.29145 0.0
H1342 H 0.3362 0.16923 0.36389 0.0
H1343 H 0.32945 0.15278 0.42298 0.0
H1344 H 0.30472 0.16605 0.27731 0.0
H1345 H 0.37451 0.15432 0.27999 0.0
H1346 H 0.35965 0.14 0.30318 0.0
H1347 H 0.36401 0.16024 0.32498 0.0
C1348 C 0.31572 0.12465 0.35362 0.0
C1349 C 0.31916 0.13124 0.39114 0.0
C1350 C 0.31945 0.13412 0.32013 0.0
C1351 C 0.32684 0.1502 0.32362 0.0
C1352 C 0.33048 0.1568 0.36087 0.0
H1353 H 0.36971 0.21112 0.13614 0.0
H1354 H 0.35986 0.20186 0.20047 0.0
C1355 C 0.32666 0.14737 0.39447 0.0
C1356 C 0.33093 0.15993 0.28798 0.0
H1357 H 0.36376 0.17034 0.22756 0.0
C1358 C 0.31761 0.16715 0.26644 0.0
C1359 C 0.34777 0.16132 0.27434 0.0
C1360 C 0.36239 0.15353 0.29656 0.0
C1361 C 0.32073 0.17569 0.23102 0.0
C1362 C 0.33754 0.17657 0.21656 0.0
C1363 C 0.35088 0.16966 0.23874 0.0
C1364 C 0.34163 0.18384 0.17769 0.0
C1365 C 0.30603 0.18372 0.2096 0.0
C1366 C 0.33445 0.17696 0.14352 0.0
C1367 C 0.33989 0.18241 0.10658 0.0
C1368 C 0.35281 0.19463 0.10327 0.0
C1369 C 0.35965 0.2018 0.13757 0.0
C1370 C 0.35408 0.19648 0.17443 0.0
H1371 H 0.29546 0.18677 0.23002 0.0
H1372 H 0.30997 0.19552 0.19428 0.0
H1373 H 0.30112 0.17466 0.18739 0.0
H1374 H 0.32513 0.16688 0.14535 0.0
H1375 H 0.33447 0.17655 0.08071 0.0
loop_
_geom_bond_atom_site_label_1
_geom_bond_atom_site_label_2
_geom_bond_distance
_geom_bond_site_symmetry_2
_ccdc_geom_bond_type
Mg0 O1 2.028 . S
Mg0 O7 1.986 . S
Mg0 O9 2.114 1_554 S
Mg0 O10 2.251 1_554 S
Mg0 O13 2.010 . S
O1 Mg0 2.028 . S
O1 C4 1.250 1_554 S
O2 Mg3 2.028 . S
O2 C4 1.248 . S
Mg3 O2 2.028 . S
Mg3 O8 2.032 . S
Mg3 O10 2.079 . S
C4 O1 1.250 1_556 S
C4 O2 1.248 . S
C5 O6 1.264 . S
C5 O13 1.249 . S
O6 C5 1.264 . S
O7 Mg0 1.986 . S
O7 C11 1.246 1_554 S
O8 Mg3 2.032 . S
O8 C11 1.259 . S
O9 Mg0 2.114 1_556 S
O9 C12 1.252 . S
O10 Mg0 2.251 1_556 S
O10 Mg3 2.079 . S
O10 C12 1.273 . S
C11 O7 1.246 1_556 S
C11 O8 1.259 . S
C12 O9 1.252 . S
C12 O10 1.273 . S
O13 Mg0 2.010 . S
O13 C5 1.249 . S
Mg14 O15 2.028 . S
Mg14 O21 1.986 . S
Mg14 O23 2.114 1_554 S
Mg14 O24 2.251 1_554 S
Mg14 O27 2.010 . S
O15 Mg14 2.028 . S
O15 C18 1.250 1_554 S
O16 Mg17 2.028 . S
O16 C18 1.248 . S
Mg17 O16 2.028 . S
Mg17 O22 2.032 . S
Mg17 O24 2.079 . S
C18 O15 1.250 1_556 S
C18 O16 1.248 . S
C19 O20 1.264 . S
C19 O27 1.249 . S
O20 C19 1.264 . S
O21 Mg14 1.986 . S
O21 C25 1.246 1_554 S
O22 Mg17 2.032 . S
O22 C25 1.259 . S
O23 Mg14 2.114 1_556 S
O23 C26 1.252 . S
O24 Mg14 2.251 1_556 S
O24 Mg17 2.079 . S
O24 C26 1.273 . S
C25 O21 1.246 1_556 S
C25 O22 1.259 . S
C26 O23 1.252 . S
C26 O24 1.273 . S
O27 Mg14 2.010 . S
O27 C19 1.249 . S
Mg28 O29 2.028 . S
Mg28 O35 1.986 . S
Mg28 O37 2.114 1_554 S
Mg28 O38 2.251 1_554 S
Mg28 O41 2.010 . S
O29 Mg28 2.028 . S
O29 C32 1.250 1_554 S
O30 Mg31 2.028 . S
O30 C32 1.248 . S
Mg31 O30 2.028 . S
Mg31 O36 2.032 . S
Mg31 O38 2.079 . S
C32 O29 1.250 1_556 S
C32 O30 1.248 . S
C33 O34 1.264 . S
C33 O41 1.249 . S
O34 C33 1.264 . S
O35 Mg28 1.986 . S
O35 C39 1.246 1_554 S
O36 Mg31 2.032 . S
O36 C39 1.259 . S
O37 Mg28 2.114 1_556 S
O37 C40 1.252 . S
O38 Mg28 2.251 1_556 S
O38 Mg31 2.079 . S
O38 C40 1.273 . S
C39 O35 1.246 1_556 S
C39 O36 1.259 . S
C40 O37 1.252 . S
C40 O38 1.273 . S
O41 Mg28 2.010 . S
O41 C33 1.249 . S
Mg42 O43 2.028 . S
Mg42 O49 1.986 . S
Mg42 O51 2.114 1_554 S
Mg42 O52 2.251 1_554 S
Mg42 O55 2.010 . S
O43 Mg42 2.028 . S
O43 C46 1.250 1_554 S
O44 Mg45 2.028 . S
O44 C46 1.248 . S
Mg45 O44 2.028 . S
Mg45 O50 2.032 . S
Mg45 O52 2.079 . S
C46 O43 1.250 1_556 S
C46 O44 1.248 . S
C47 O48 1.264 . S
C47 O55 1.249 . S
O48 C47 1.264 . S
O49 Mg42 1.986 . S
O49 C53 1.246 1_554 S
O50 Mg45 2.032 . S
O50 C53 1.259 . S
O51 Mg42 2.114 1_556 S
O51 C54 1.252 . S
O52 Mg42 2.251 1_556 S
O52 Mg45 2.079 . S
O52 C54 1.273 . S
C53 O49 1.246 1_556 S
C53 O50 1.259 . S
C54 O51 1.252 . S
C54 O52 1.273 . S
O55 Mg42 2.010 . S
O55 C47 1.249 . S
Mg56 O57 2.028 1_554 S
Mg56 O63 1.986 1_554 S
Mg56 O65 2.114 . S
Mg56 O66 2.251 . S
Mg56 O69 2.010 1_554 S
O57 Mg56 2.028 1_556 S
O57 C60 1.250 1_556 S
O58 Mg59 2.028 . S
O58 C60 1.248 . S
Mg59 O58 2.028 . S
Mg59 O64 2.032 . S
Mg59 O66 2.079 . S
C60 O57 1.250 1_554 S
C60 O58 1.248 . S
C61 O62 1.264 . S
C61 O69 1.249 . S
O62 C61 1.264 . S
O63 Mg56 1.986 1_556 S
O63 C67 1.246 1_556 S
O64 Mg59 2.032 . S
O64 C67 1.259 . S
O65 Mg56 2.114 . S
O65 C68 1.252 . S
O66 Mg56 2.251 . S
O66 Mg59 2.079 . S
O66 C68 1.273 . S
C67 O63 1.246 1_554 S
C67 O64 1.259 . S
C68 O65 1.252 . S
C68 O66 1.273 . S
O69 Mg56 2.010 1_556 S
O69 C61 1.249 . S
Mg70 O71 2.028 1_554 S
Mg70 O77 1.986 1_554 S
Mg70 O79 2.114 . S
Mg70 O80 2.251 . S
Mg70 O83 2.010 1_554 S
O71 Mg70 2.028 1_556 S
O71 C74 1.250 1_556 S
O72 Mg73 2.028 . S
O72 C74 1.248 . S
Mg73 O72 2.028 . S
Mg73 O78 2.032 . S
Mg73 O80 2.079 . S
C74 O71 1.250 1_554 S
C74 O72 1.248 . S
C75 O76 1.264 . S
C75 O83 1.249 . S
O76 C75 1.264 . S
O77 Mg70 1.986 1_556 S
O77 C81 1.246 1_556 S
O78 Mg73 2.032 . S
O78 C81 1.259 . S
O79 Mg70 2.114 . S
O79 C82 1.252 . S
O80 Mg70 2.251 . S
O80 Mg73 2.079 . S
O80 C82 1.273 . S
C81 O77 1.246 1_554 S
C81 O78 1.259 . S
C82 O79 1.252 . S
C82 O80 1.273 . S
O83 Mg70 2.010 1_556 S
O83 C75 1.249 . S
Mg84 O85 2.028 1_554 S
Mg84 O91 1.986 1_554 S
Mg84 O93 2.114 . S
Mg84 O94 2.251 . S
Mg84 O97 2.010 1_554 S
O85 Mg84 2.028 1_556 S
O85 C88 1.250 1_556 S
O86 Mg87 2.028 . S
O86 C88 1.248 . S
Mg87 O86 2.028 . S
Mg87 O92 2.032 . S
Mg87 O94 2.079 . S
C88 O85 1.250 1_554 S
C88 O86 1.248 . S
C89 O90 1.264 . S
C89 O97 1.249 . S
O90 C89 1.264 . S
O91 Mg84 1.986 1_556 S
O91 C95 1.246 1_556 S
O92 Mg87 2.032 . S
O92 C95 1.259 . S
O93 Mg84 2.114 . S
O93 C96 1.252 . S
O94 Mg84 2.251 . S
O94 Mg87 2.079 . S
O94 C96 1.273 . S
C95 O91 1.246 1_554 S
C95 O92 1.259 . S
C96 O93 1.252 . S
C96 O94 1.273 . S
O97 Mg84 2.010 1_556 S
O97 C89 1.249 . S
Mg98 O99 2.028 1_554 S
Mg98 O105 1.986 1_554 S
Mg98 O107 2.114 . S
Mg98 O108 2.251 . S
Mg98 O111 2.010 1_554 S
O99 Mg98 2.028 1_556 S
O99 C102 1.250 1_556 S
O100 Mg101 2.028 . S
O100 C102 1.248 . S
Mg101 O100 2.028 . S
Mg101 O106 2.032 . S
Mg101 O108 2.079 . S
C102 O99 1.250 1_554 S
C102 O100 1.248 . S
C103 O104 1.264 . S
C103 O111 1.249 . S
O104 C103 1.264 . S
O105 Mg98 1.986 1_556 S
O105 C109 1.246 1_556 S
O106 Mg101 2.032 . S
O106 C109 1.259 . S
O107 Mg98 2.114 . S
O107 C110 1.252 . S
O108 Mg98 2.251 . S
O108 Mg101 2.079 . S
O108 C110 1.273 . S
C109 O105 1.246 1_554 S
C109 O106 1.259 . S
C110 O107 1.252 . S
C110 O108 1.273 . S
O111 Mg98 2.010 1_556 S
O111 C103 1.249 . S
Mg112 O113 2.028 . S
Mg112 O119 1.986 . S
Mg112 O121 2.114 . S
Mg112 O122 2.251 . S
Mg112 O125 2.010 . S
O113 Mg112 2.028 . S
O113 C116 1.250 . S
O114 Mg115 2.028 . S
O114 C116 1.248 . S
Mg115 O114 2.028 . S
Mg115 O120 2.032 . S
Mg115 O122 2.079 . S
C116 O113 1.250 . S
C116 O114 1.248 . S
C117 O118 1.264 . S
C117 O125 1.249 . S
O118 C117 1.264 . S
O119 Mg112 1.986 . S
O119 C123 1.246 . S
O120 Mg115 2.032 . S
O120 C123 1.259 . S
O121 Mg112 2.114 . S
O121 C124 1.252 . S
O122 Mg112 2.251 . S
O122 Mg115 2.079 . S
O122 C124 1.273 . S
C123 O119 1.246 . S
C123 O120 1.259 . S
C124 O121 1.252 . S
C124 O122 1.273 . S
O125 Mg112 2.010 . S
O125 C117 1.249 . S
Mg126 O127 2.028 . S
Mg126 O133 1.986 . S
Mg126 O135 2.114 . S
Mg126 O136 2.251 . S
Mg126 O139 2.010 . S
O127 Mg126 2.028 . S
O127 C130 1.250 . S
O128 Mg129 2.028 . S
O128 C130 1.248 . S
Mg129 O128 2.028 . S
Mg129 O134 2.032 . S
Mg129 O136 2.079 . S
C130 O127 1.250 . S
C130 O128 1.248 . S
C131 O132 1.264 . S
C131 O139 1.249 . S
O132 C131 1.264 . S
O133 Mg126 1.986 . S
O133 C137 1.246 . S
O134 Mg129 2.032 . S
O134 C137 1.259 . S
O135 Mg126 2.114 . S
O135 C138 1.252 . S
O136 Mg126 2.251 . S
O136 Mg129 2.079 . S
O136 C138 1.273 . S
C137 O133 1.246 . S
C137 O134 1.259 . S
C138 O135 1.252 . S
C138 O136 1.273 . S
O139 Mg126 2.010 . S
O139 C131 1.249 . S
Mg140 O141 2.028 . S
Mg140 O147 1.986 . S
Mg140 O149 2.114 . S
Mg140 O150 2.251 . S
Mg140 O153 2.010 . S
O141 Mg140 2.028 . S
O141 C144 1.250 . S
O142 Mg143 2.028 . S
O142 C144 1.248 . S
Mg143 O142 2.028 . S
Mg143 O148 2.032 . S
Mg143 O150 2.079 . S
C144 O141 1.250 . S
C144 O142 1.248 . S
C145 O146 1.264 . S
C145 O153 1.249 . S
O146 C145 1.264 . S
O147 Mg140 1.986 . S
O147 C151 1.246 . S
O148 Mg143 2.032 . S
O148 C151 1.259 . S
O149 Mg140 2.114 . S
O149 C152 1.252 . S
O150 Mg140 2.251 . S
O150 Mg143 2.079 . S
O150 C152 1.273 . S
C151 O147 1.246 . S
C151 O148 1.259 . S
C152 O149 1.252 . S
C152 O150 1.273 . S
O153 Mg140 2.010 . S
O153 C145 1.249 . S
Mg154 O155 2.028 . S
Mg154 O161 1.986 . S
Mg154 O163 2.114 . S
Mg154 O164 2.251 . S
Mg154 O167 2.010 . S
O155 Mg154 2.028 . S
O155 C158 1.250 . S
O156 Mg157 2.028 . S
O156 C158 1.248 . S
Mg157 O156 2.028 . S
Mg157 O162 2.032 . S
Mg157 O164 2.079 . S
C158 O155 1.250 . S
C158 O156 1.248 . S
C159 O160 1.264 . S
C159 O167 1.249 . S
O160 C159 1.264 . S
O161 Mg154 1.986 . S
O161 C165 1.246 . S
O162 Mg157 2.032 . S
O162 C165 1.259 . S
O163 Mg154 2.114 . S
O163 C166 1.252 . S
O164 Mg154 2.251 . S
O164 Mg157 2.079 . S
O164 C166 1.273 . S
C165 O161 1.246 . S
C165 O162 1.259 . S
C166 O163 1.252 . S
C166 O164 1.273 . S
O167 Mg154 2.010 . S
O167 C159 1.249 . S
Mg168 O169 2.028 . S
Mg168 O175 1.986 . S
Mg168 O177 2.114 . S
Mg168 O178 2.251 . S
Mg168 O181 2.010 . S
O169 Mg168 2.028 . S
O169 C172 1.250 . S
O170 Mg171 2.028 . S
O170 C172 1.248 . S
Mg171 O170 2.028 . S
Mg171 O176 2.032 . S
Mg171 O178 2.079 . S
C172 O169 1.250 . S
C172 O170 1.248 . S
C173 O174 1.264 . S
C173 O181 1.249 . S
O174 C173 1.264 . S
O175 Mg168 1.986 . S
O175 C179 1.246 . S
O176 Mg171 2.032 . S
O176 C179 1.259 . S
O177 Mg168 2.114 . S
O177 C180 1.252 . S
O178 Mg168 2.251 . S
O178 Mg171 2.079 . S
O178 C180 1.273 . S
C179 O175 1.246 . S
C179 O176 1.259 . S
C180 O177 1.252 . S
C180 O178 1.273 . S
O181 Mg168 2.010 . S
O181 C173 1.249 . S
Mg182 O183 2.028 . S
Mg182 O189 1.986 . S
Mg182 O191 2.114 . S
Mg182 O192 2.251 . S
Mg182 O195 2.010 . S
O183 Mg182 2.028 . S
O183 C186 1.250 . S
O184 Mg185 2.028 . S
O184 C186 1.248 . S
Mg185 O184 2.028 . S
Mg185 O190 2.032 . S
Mg185 O192 2.079 . S
C186 O183 1.250 . S
C186 O184 1.248 . S
C187 O188 1.264 . S
C187 O195 1.249 . S
O188 C187 1.264 . S
O189 Mg182 1.986 . S
O189 C193 1.246 . S
O190 Mg185 2.032 . S
O190 C193 1.259 . S
O191 Mg182 2.114 . S
O191 C194 1.252 . S
O192 Mg182 2.251 . S
O192 Mg185 2.079 . S
O192 C194 1.273 . S
C193 O189 1.246 . S
C193 O190 1.259 . S
C194 O191 1.252 . S
C194 O192 1.273 . S
O195 Mg182 2.010 . S
O195 C187 1.249 . S
Mg196 O197 2.028 . S
Mg196 O203 1.986 . S
Mg196 O205 2.114 . S
Mg196 O206 2.251 . S
Mg196 O209 2.010 . S
O197 Mg196 2.028 . S
O197 C200 1.250 . S
O198 Mg199 2.028 . S
O198 C200 1.248 . S
Mg199 O198 2.028 . S
Mg199 O204 2.032 . S
Mg199 O206 2.079 . S
C200 O197 1.250 . S
C200 O198 1.248 . S
C201 O202 1.264 . S
C201 O209 1.249 . S
O202 C201 1.264 . S
O203 Mg196 1.986 . S
O203 C207 1.246 . S
O204 Mg199 2.032 . S
O204 C207 1.259 . S
O205 Mg196 2.114 . S
O205 C208 1.252 . S
O206 Mg196 2.251 . S
O206 Mg199 2.079 . S
O206 C208 1.273 . S
C207 O203 1.246 . S
C207 O204 1.259 . S
C208 O205 1.252 . S
C208 O206 1.273 . S
O209 Mg196 2.010 . S
O209 C201 1.249 . S
Mg210 O211 2.028 . S
Mg210 O217 1.986 . S
Mg210 O219 2.114 . S
Mg210 O220 2.251 . S
Mg210 O223 2.010 . S
O211 Mg210 2.028 . S
O211 C214 1.250 . S
O212 Mg213 2.028 . S
O212 C214 1.248 . S
Mg213 O212 2.028 . S
Mg213 O218 2.032 . S
Mg213 O220 2.079 . S
C214 O211 1.250 . S
C214 O212 1.248 . S
C215 O216 1.264 . S
C215 O223 1.249 . S
O216 C215 1.264 . S
O217 Mg210 1.986 . S
O217 C221 1.246 . S
O218 Mg213 2.032 . S
O218 C221 1.259 . S
O219 Mg210 2.114 . S
O219 C222 1.252 . S
O220 Mg210 2.251 . S
O220 Mg213 2.079 . S
O220 C222 1.273 . S
C221 O217 1.246 . S
C221 O218 1.259 . S
C222 O219 1.252 . S
C222 O220 1.273 . S
O223 Mg210 2.010 . S
O223 C215 1.249 . S
H224 C232 0.929 . S
H225 C234 0.930 . S
H226 C236 0.930 . S
H227 C239 0.929 . S
H228 C242 0.930 . S
H229 C244 0.960 . S
H230 C244 0.960 . S
H231 C244 0.960 . S
C232 H224 0.929 . S
C232 C233 1.377 1_556 S
C232 C234 1.384 . S
C233 C232 1.377 1_554 S
C233 C239 1.390 . S
C234 H225 0.930 . S
C234 C232 1.384 . S
C234 C235 1.372 1_556 S
C235 C234 1.372 1_554 S
C235 C236 1.400 . S
C235 C240 1.490 . S
C236 H226 0.930 . S
C236 C235 1.400 . S
C236 C239 1.386 . S
H237 C253 0.930 . S
H238 C254 0.931 . S
C239 H227 0.929 . S
C239 C233 1.390 . S
C239 C236 1.386 . S
C240 C235 1.490 . S
C240 C242 1.395 . S
C240 C243 1.403 1_554 S
H241 C247 0.930 . S
C242 H228 0.930 . S
C242 C240 1.395 . S
C242 C245 1.403 . S
C243 C240 1.403 1_556 S
C243 C244 1.524 . S
C243 C247 1.400 . S
C244 H229 0.960 . S
C244 H230 0.960 . S
C244 H231 0.960 . S
C244 C243 1.524 . S
C245 C242 1.403 . S
C245 C246 1.392 . S
C245 C249 1.495 . S
C246 C245 1.392 . S
C246 C247 1.385 1_554 S
C246 C248 1.478 . S
C247 H241 0.930 . S
C247 C243 1.400 . S
C247 C246 1.385 1_556 S
C248 C246 1.478 . S
C248 C250 1.381 1_554 S
C248 C254 1.383 . S
C249 C245 1.495 . S
C249 H255 0.959 . S
C249 H256 0.961 . S
C249 H257 0.960 . S
C250 C248 1.381 1_556 S
C250 C251 1.394 . S
C250 H258 0.930 . S
C251 C250 1.394 . S
C251 C252 1.381 1_556 S
C251 H259 0.929 . S
C252 C251 1.381 1_554 S
C252 C253 1.379 . S
C253 H237 0.930 . S
C253 C252 1.379 . S
C253 C254 1.379 . S
C254 H238 0.931 . S
C254 C248 1.383 . S
C254 C253 1.379 . S
H255 C249 0.959 . S
H256 C249 0.961 . S
H257 C249 0.960 . S
H258 C250 0.930 . S
H259 C251 0.929 . S
H260 C268 0.929 . S
H261 C270 0.930 . S
H262 C272 0.930 . S
H263 C275 0.929 . S
H264 C278 0.930 . S
H265 C280 0.960 . S
H266 C280 0.960 . S
H267 C280 0.960 . S
C268 H260 0.929 . S
C268 C269 1.377 1_556 S
C268 C270 1.384 . S
C269 C268 1.377 1_554 S
C269 C275 1.390 . S
C270 H261 0.930 . S
C270 C268 1.384 . S
C270 C271 1.372 1_556 S
C271 C270 1.372 1_554 S
C271 C272 1.400 . S
C271 C276 1.490 . S
C272 H262 0.930 . S
C272 C271 1.400 . S
C272 C275 1.386 . S
H273 C289 0.930 . S
H274 C290 0.931 . S
C275 H263 0.929 . S
C275 C269 1.390 . S
C275 C272 1.386 . S
C276 C271 1.490 . S
C276 C278 1.395 1_554 S
C276 C279 1.402 . S
H277 C283 0.930 . S
C278 H264 0.930 . S
C278 C276 1.395 1_556 S
C278 C281 1.403 . S
C279 C276 1.402 . S
C279 C280 1.524 . S
C279 C283 1.400 . S
C280 H265 0.960 . S
C280 H266 0.960 . S
C280 H267 0.960 . S
C280 C279 1.524 . S
C281 C278 1.403 . S
C281 C282 1.392 . S
C281 C285 1.495 . S
C282 C281 1.392 . S
C282 C283 1.385 1_556 S
C282 C284 1.478 . S
C283 H277 0.930 . S
C283 C279 1.400 . S
C283 C282 1.385 1_554 S
C284 C282 1.478 . S
C284 C286 1.381 . S
C284 C290 1.383 1_556 S
C285 C281 1.495 . S
C285 H291 0.959 . S
C285 H292 0.961 . S
C285 H293 0.960 . S
C286 C284 1.381 . S
C286 C287 1.394 . S
C286 H294 0.930 . S
C287 C286 1.394 . S
C287 C288 1.383 . S
C287 H295 0.929 . S
C288 C287 1.383 . S
C288 C289 1.377 1_556 S
C289 H273 0.930 . S
C289 C288 1.377 1_554 S
C289 C290 1.379 . S
C290 H274 0.931 . S
C290 C284 1.383 1_554 S
C290 C289 1.379 . S
H291 C285 0.959 . S
H292 C285 0.961 . S
H293 C285 0.960 . S
H294 C286 0.930 . S
H295 C287 0.929 . S
H296 C304 0.929 . S
H297 C306 0.930 . S
H298 C308 0.930 . S
H299 C311 0.929 . S
H300 C314 0.930 . S
H301 C316 0.960 . S
H302 C316 0.960 . S
H303 C316 0.960 . S
C304 H296 0.929 . S
C304 C305 1.377 . S
C304 C306 1.384 . S
C305 C304 1.377 . S
C305 C311 1.390 1_554 S
C306 H297 0.930 . S
C306 C304 1.384 . S
C306 C307 1.372 . S
C307 C306 1.372 . S
C307 C308 1.400 1_554 S
C307 C312 1.490 . S
C308 H298 0.930 . S
C308 C307 1.400 1_556 S
C308 C311 1.386 . S
H309 C325 0.929 1_556 S
H310 C326 0.931 . S
C311 H299 0.929 . S
C311 C305 1.390 1_556 S
C311 C308 1.386 . S
C312 C307 1.490 . S
C312 C314 1.395 . S
C312 C315 1.403 1_554 S
H313 C319 0.930 . S
C314 H300 0.930 . S
C314 C312 1.395 . S
C314 C317 1.403 . S
C315 C312 1.403 1_556 S
C315 C316 1.524 . S
C315 C319 1.400 . S
C316 H301 0.960 . S
C316 H302 0.960 . S
C316 H303 0.960 . S
C316 C315 1.524 . S
C317 C314 1.403 . S
C317 C318 1.392 . S
C317 C321 1.495 . S
C318 C317 1.392 . S
C318 C319 1.385 1_554 S
C318 C320 1.478 . S
C319 H313 0.930 . S
C319 C315 1.400 . S
C319 C318 1.385 1_556 S
C320 C318 1.478 . S
C320 C322 1.381 . S
C320 C326 1.383 . S
C321 C317 1.495 . S
C321 H327 0.959 . S
C321 H328 0.961 . S
C321 H329 0.960 . S
C322 C320 1.381 . S
C322 C323 1.394 . S
C322 H330 0.930 . S
C323 C322 1.394 . S
C323 C324 1.383 . S
C323 H331 0.929 . S
C324 C323 1.383 . S
C324 C325 1.377 . S
C325 H309 0.929 1_554 S
C325 C324 1.377 . S
C325 C326 1.380 . S
C326 H310 0.931 . S
C326 C320 1.383 . S
C326 C325 1.380 . S
H327 C321 0.959 . S
H328 C321 0.961 . S
H329 C321 0.960 . S
H330 C322 0.930 . S
H331 C323 0.929 . S
H332 C340 0.929 . S
H333 C342 0.930 . S
H334 C344 0.930 . S
H335 C347 0.929 . S
H336 C350 0.930 . S
H337 C352 0.960 . S
H338 C352 0.960 . S
H339 C352 0.960 . S
C340 H332 0.929 . S
C340 C341 1.377 . S
C340 C342 1.384 . S
C341 C340 1.377 . S
C341 C347 1.390 1_554 S
C342 H333 0.930 . S
C342 C340 1.384 . S
C342 C343 1.372 . S
C343 C342 1.372 . S
C343 C344 1.400 1_554 S
C343 C348 1.490 . S
C344 H334 0.930 . S
C344 C343 1.400 1_556 S
C344 C347 1.386 . S
H345 C361 0.930 . S
H346 C362 0.931 . S
C347 H335 0.929 . S
C347 C341 1.390 1_556 S
C347 C344 1.386 . S
C348 C343 1.490 . S
C348 C350 1.395 . S
C348 C351 1.403 1_554 S
H349 C355 0.930 . S
C350 H336 0.930 . S
C350 C348 1.395 . S
C350 C353 1.403 . S
C351 C348 1.403 1_556 S
C351 C352 1.524 . S
C351 C355 1.400 . S
C352 H337 0.960 . S
C352 H338 0.960 . S
C352 H339 0.960 . S
C352 C351 1.524 . S
C353 C350 1.403 . S
C353 C354 1.392 . S
C353 C357 1.495 . S
C354 C353 1.392 . S
C354 C355 1.385 1_554 S
C354 C356 1.478 . S
C355 H349 0.930 . S
C355 C351 1.400 . S
C355 C354 1.385 1_556 S
C356 C354 1.478 . S
C356 C358 1.381 . S
C356 C362 1.383 1_554 S
C357 C353 1.495 . S
C357 H363 0.959 . S
C357 H364 0.961 . S
C357 H365 0.960 . S
C358 C356 1.381 . S
C358 C359 1.394 . S
C358 H366 0.930 . S
C359 C358 1.394 . S
C359 C360 1.395 . S
C359 H367 0.929 . S
C360 C359 1.395 . S
C360 C361 1.366 1_554 S
C361 H345 0.930 . S
C361 C360 1.366 1_556 S
C361 C362 1.379 . S
C362 H346 0.931 . S
C362 C356 1.383 1_556 S
C362 C361 1.379 . S
H363 C357 0.959 . S
H364 C357 0.961 . S
H365 C357 0.960 . S
H366 C358 0.930 . S
H367 C359 0.929 . S
H368 C376 0.929 . S
H369 C378 0.930 . S
H370 C380 0.930 . S
H371 C383 0.929 . S
H372 C386 0.930 . S
H373 C388 0.960 . S
H374 C388 0.960 . S
H375 C388 0.960 . S
C376 H368 0.929 . S
C376 C377 1.377 . S
C376 C378 1.384 . S
C377 C376 1.377 . S
C377 C383 1.390 . S
C378 H369 0.930 . S
C378 C376 1.384 . S
C378 C379 1.372 . S
C379 C378 1.372 . S
C379 C380 1.400 . S
C379 C384 1.490 . S
C380 H370 0.930 . S
C380 C379 1.400 . S
C380 C383 1.386 . S
H381 C397 0.930 . S
H382 C398 0.931 . S
C383 H371 0.929 . S
C383 C377 1.390 . S
C383 C380 1.386 . S
C384 C379 1.490 . S
C384 C386 1.395 . S
C384 C387 1.403 . S
H385 C391 0.930 . S
C386 H372 0.930 . S
C386 C384 1.395 . S
C386 C389 1.403 1_545 S
C387 C384 1.403 . S
C387 C388 1.524 . S
C387 C391 1.400 1_545 S
C388 H373 0.960 . S
C388 H374 0.960 . S
C388 H375 0.960 . S
C388 C387 1.524 . S
C389 C386 1.403 1_565 S
C389 C390 1.392 . S
C389 C393 1.495 . S
C390 C389 1.392 . S
C390 C391 1.385 . S
C390 C392 1.478 . S
C391 H385 0.930 . S
C391 C387 1.400 1_565 S
C391 C390 1.385 . S
C392 C390 1.478 . S
C392 C394 1.381 . S
C392 C398 1.383 . S
C393 C389 1.495 . S
C393 H399 0.959 . S
C393 H400 0.961 . S
C393 H401 0.960 . S
C394 C392 1.381 . S
C394 C395 1.394 . S
C394 H402 0.930 . S
C395 C394 1.394 . S
C395 C396 1.383 . S
C395 H403 0.929 . S
C396 C395 1.383 . S
C396 C397 1.377 . S
C397 H381 0.930 . S
C397 C396 1.377 . S
C397 C398 1.379 . S
C398 H382 0.931 . S
C398 C392 1.383 . S
C398 C397 1.379 . S
H399 C393 0.959 . S
H400 C393 0.961 . S
H401 C393 0.960 . S
H402 C394 0.930 . S
H403 C395 0.929 . S
H404 C412 0.929 . S
H405 C414 0.930 . S
H406 C416 0.930 . S
H407 C419 0.929 . S
H408 C422 0.930 . S
H409 C424 0.960 . S
H410 C424 0.960 . S
H411 C424 0.960 . S
C412 H404 0.929 . S
C412 C413 1.377 . S
C412 C414 1.384 . S
C413 C412 1.377 . S
C413 C419 1.390 . S
C414 H405 0.930 . S
C414 C412 1.384 . S
C414 C415 1.372 . S
C415 C414 1.372 . S
C415 C416 1.400 . S
C415 C420 1.490 . S
C416 H406 0.930 . S
C416 C415 1.400 . S
C416 C419 1.386 . S
H417 C433 0.930 . S
H418 C434 0.931 . S
C419 H407 0.929 . S
C419 C413 1.390 . S
C419 C416 1.386 . S
C420 C415 1.490 . S
C420 C422 1.395 . S
C420 C423 1.403 . S
H421 C427 0.930 . S
C422 H408 0.930 . S
C422 C420 1.395 . S
C422 C425 1.403 1_655 S
C423 C420 1.403 . S
C423 C424 1.524 . S
C423 C427 1.400 1_655 S
C424 H409 0.960 . S
C424 H410 0.960 . S
C424 H411 0.960 . S
C424 C423 1.524 . S
C425 C422 1.403 1_455 S
C425 C426 1.392 . S
C425 C429 1.495 . S
C426 C425 1.392 . S
C426 C427 1.385 . S
C426 C428 1.478 . S
C427 H421 0.930 . S
C427 C423 1.400 1_455 S
C427 C426 1.385 . S
C428 C426 1.478 . S
C428 C430 1.381 . S
C428 C434 1.383 . S
C429 C425 1.495 . S
C429 H435 0.959 . S
C429 H436 0.961 . S
C429 H437 0.960 . S
C430 C428 1.381 . S
C430 C431 1.394 . S
C430 H438 0.930 . S
C431 C430 1.394 . S
C431 C432 1.383 . S
C431 H439 0.929 . S
C432 C431 1.383 . S
C432 C433 1.377 . S
C433 H417 0.930 . S
C433 C432 1.377 . S
C433 C434 1.379 . S
C434 H418 0.931 . S
C434 C428 1.383 . S
C434 C433 1.379 . S
H435 C429 0.959 . S
H436 C429 0.961 . S
H437 C429 0.960 . S
H438 C430 0.930 . S
H439 C431 0.929 . S
H440 C448 0.929 . S
H441 C450 0.930 . S
H442 C452 0.930 . S
H443 C455 0.929 . S
H444 C458 0.930 . S
H445 C460 0.960 . S
H446 C460 0.960 . S
H447 C460 0.960 . S
C448 H440 0.929 . S
C448 C449 1.377 . S
C448 C450 1.384 . S
C449 C448 1.377 . S
C449 C455 1.390 . S
C450 H441 0.930 . S
C450 C448 1.384 . S
C450 C451 1.372 . S
C451 C450 1.372 . S
C451 C452 1.400 . S
C451 C456 1.490 . S
C452 H442 0.930 . S
C452 C451 1.400 . S
C452 C455 1.386 . S
H453 C469 0.930 . S
H454 C470 0.931 . S
C455 H443 0.929 . S
C455 C449 1.390 . S
C455 C452 1.386 . S
C456 C451 1.490 . S
C456 C458 1.395 . S
C456 C459 1.403 . S
H457 C463 0.930 . S
C458 H444 0.930 . S
C458 C456 1.395 . S
C458 C461 1.403 1_545 S
C459 C456 1.403 . S
C459 C460 1.524 . S
C459 C463 1.400 1_545 S
C460 H445 0.960 . S
C460 H446 0.960 . S
C460 H447 0.960 . S
C460 C459 1.524 . S
C461 C458 1.403 1_565 S
C461 C462 1.392 . S
C461 C465 1.495 . S
C462 C461 1.392 . S
C462 C463 1.385 . S
C462 C464 1.478 . S
C463 H457 0.930 . S
C463 C459 1.400 1_565 S
C463 C462 1.385 . S
C464 C462 1.478 . S
C464 C466 1.381 . S
C464 C470 1.383 . S
C465 C461 1.495 . S
C465 H471 0.959 . S
C465 H472 0.961 . S
C465 H473 0.960 . S
C466 C464 1.381 . S
C466 C467 1.394 . S
C466 H474 0.930 . S
C467 C466 1.394 . S
C467 C468 1.383 . S
C467 H475 0.929 . S
C468 C467 1.383 . S
C468 C469 1.377 . S
C469 H453 0.930 . S
C469 C468 1.377 . S
C469 C470 1.379 . S
C470 H454 0.931 . S
C470 C464 1.383 . S
C470 C469 1.379 . S
H471 C465 0.959 . S
H472 C465 0.961 . S
H473 C465 0.960 . S
H474 C466 0.930 . S
H475 C467 0.929 . S
H476 C484 0.929 . S
H477 C486 0.930 . S
H478 C488 0.930 . S
H479 C491 0.929 . S
H480 C494 0.930 . S
H481 C496 0.960 . S
H482 C496 0.960 . S
H483 C496 0.960 . S
C484 H476 0.929 . S
C484 C485 1.377 . S
C484 C486 1.384 . S
C485 C484 1.377 . S
C485 C491 1.390 . S
C486 H477 0.930 . S
C486 C484 1.384 . S
C486 C487 1.372 . S
C487 C486 1.372 . S
C487 C488 1.400 . S
C487 C492 1.490 . S
C488 H478 0.930 . S
C488 C487 1.400 . S
C488 C491 1.386 . S
H489 C505 0.930 . S
H490 C506 0.931 . S
C491 H479 0.929 . S
C491 C485 1.390 . S
C491 C488 1.386 . S
C492 C487 1.490 . S
C492 C494 1.395 . S
C492 C495 1.403 . S
H493 C499 0.930 . S
C494 H480 0.930 . S
C494 C492 1.395 . S
C494 C497 1.403 1_455 S
C495 C492 1.403 . S
C495 C496 1.524 . S
C495 C499 1.400 1_455 S
C496 H481 0.960 . S
C496 H482 0.960 . S
C496 H483 0.960 . S
C496 C495 1.524 . S
C497 C494 1.403 1_655 S
C497 C498 1.392 . S
C497 C501 1.495 . S
C498 C497 1.392 . S
C498 C499 1.385 . S
C498 C500 1.478 . S
C499 H493 0.930 . S
C499 C495 1.400 1_655 S
C499 C498 1.385 . S
C500 C498 1.478 . S
C500 C502 1.381 . S
C500 C506 1.383 . S
C501 C497 1.495 . S
C501 H507 0.959 . S
C501 H508 0.961 . S
C501 H509 0.960 . S
C502 C500 1.381 . S
C502 C503 1.394 . S
C502 H510 0.930 . S
C503 C502 1.394 . S
C503 C504 1.383 . S
C503 H511 0.929 . S
C504 C503 1.383 . S
C504 C505 1.377 . S
C505 H489 0.930 . S
C505 C504 1.377 . S
C505 C506 1.379 . S
C506 H490 0.931 . S
C506 C500 1.383 . S
C506 C505 1.379 . S
H507 C501 0.959 . S
H508 C501 0.961 . S
H509 C501 0.960 . S
H510 C502 0.930 . S
H511 C503 0.929 . S
H512 C520 0.929 . S
H513 C522 0.930 . S
H514 C524 0.930 . S
H515 C527 0.929 . S
H516 C530 0.930 . S
H517 C532 0.960 . S
H518 C532 0.960 . S
H519 C532 0.960 . S
C520 H512 0.929 . S
C520 C521 1.377 1_556 S
C520 C522 1.384 . S
C521 C520 1.377 1_554 S
C521 C527 1.390 . S
C522 H513 0.930 . S
C522 C520 1.384 . S
C522 C523 1.373 1_556 S
C523 C522 1.373 1_554 S
C523 C524 1.398 . S
C523 C528 1.490 1_554 S
C524 H514 0.930 . S
C524 C523 1.398 . S
C524 C527 1.386 . S
H525 C541 0.930 . S
H526 C542 0.931 . S
C527 H515 0.929 . S
C527 C521 1.390 . S
C527 C524 1.386 . S
C528 C523 1.490 1_556 S
C528 C530 1.395 . S
C528 C531 1.403 1_556 S
H529 C535 0.930 . S
C530 H516 0.930 . S
C530 C528 1.395 . S
C530 C533 1.403 . S
C531 C528 1.403 1_554 S
C531 C532 1.524 . S
C531 C535 1.400 . S
C532 H517 0.960 . S
C532 H518 0.960 . S
C532 H519 0.960 . S
C532 C531 1.524 . S
C533 C530 1.403 . S
C533 C534 1.392 . S
C533 C537 1.495 . S
C534 C533 1.392 . S
C534 C535 1.385 1_556 S
C534 C536 1.478 . S
C535 H529 0.930 . S
C535 C531 1.400 . S
C535 C534 1.385 1_554 S
C536 C534 1.478 . S
C536 C538 1.381 . S
C536 C542 1.383 1_556 S
C537 C533 1.495 . S
C537 H543 0.959 . S
C537 H544 0.961 . S
C537 H545 0.960 . S
C538 C536 1.381 . S
C538 C539 1.394 . S
C538 H546 0.930 . S
C539 C538 1.394 . S
C539 C540 1.373 1_556 S
C539 H547 0.929 . S
C540 C539 1.373 1_554 S
C540 C541 1.386 . S
C541 H525 0.930 . S
C541 C540 1.386 . S
C541 C542 1.379 . S
C542 H526 0.931 . S
C542 C536 1.383 1_554 S
C542 C541 1.379 . S
H543 C537 0.959 . S
H544 C537 0.961 . S
H545 C537 0.960 . S
H546 C538 0.930 . S
H547 C539 0.929 . S
H548 C556 0.929 . S
H549 C558 0.930 . S
H550 C560 0.930 . S
H551 C563 0.929 . S
H552 C566 0.930 . S
H553 C568 0.960 . S
H554 C568 0.960 . S
H555 C568 0.960 . S
C556 H548 0.929 . S
C556 C557 1.377 1_556 S
C556 C558 1.384 . S
C557 C556 1.377 1_554 S
C557 C563 1.390 . S
C558 H549 0.930 . S
C558 C556 1.384 . S
C558 C559 1.372 1_556 S
C559 C558 1.372 1_554 S
C559 C560 1.400 . S
C559 C564 1.490 1_554 S
C560 H550 0.930 . S
C560 C559 1.400 . S
C560 C563 1.386 . S
H561 C577 0.930 . S
H562 C578 0.931 . S
C563 H551 0.929 . S
C563 C557 1.390 . S
C563 C560 1.386 . S
C564 C559 1.490 1_556 S
C564 C566 1.400 . S
C564 C567 1.397 1_556 S
H565 C571 0.930 . S
C566 H552 0.930 . S
C566 C564 1.400 . S
C566 C569 1.403 . S
C567 C564 1.397 1_554 S
C567 C568 1.524 . S
C567 C571 1.400 . S
C568 H553 0.960 . S
C568 H554 0.960 . S
C568 H555 0.960 . S
C568 C567 1.524 . S
C569 C566 1.403 . S
C569 C570 1.392 . S
C569 C573 1.495 . S
C570 C569 1.392 . S
C570 C571 1.385 1_556 S
C570 C572 1.478 . S
C571 H565 0.930 . S
C571 C567 1.400 . S
C571 C570 1.385 1_554 S
C572 C570 1.478 . S
C572 C574 1.381 . S
C572 C578 1.383 1_556 S
C573 C569 1.495 . S
C573 H579 0.959 . S
C573 H580 0.961 . S
C573 H581 0.960 . S
C574 C572 1.381 . S
C574 C575 1.394 . S
C574 H582 0.930 . S
C575 C574 1.394 . S
C575 C576 1.383 . S
C575 H583 0.929 . S
C576 C575 1.383 . S
C576 C577 1.377 1_556 S
C577 H561 0.930 . S
C577 C576 1.377 1_554 S
C577 C578 1.379 . S
C578 H562 0.931 . S
C578 C572 1.383 1_554 S
C578 C577 1.379 . S
H579 C573 0.959 . S
H580 C573 0.961 . S
H581 C573 0.960 . S
H582 C574 0.930 . S
H583 C575 0.929 . S
H584 C592 0.929 . S
H585 C594 0.930 . S
H586 C596 0.930 . S
H587 C599 0.929 . S
H588 C602 0.929 1_556 S
H589 C604 0.960 . S
H590 C604 0.960 . S
H591 C604 0.960 1_556 S
C592 H584 0.929 . S
C592 C593 1.377 . S
C592 C594 1.384 . S
C593 C592 1.377 . S
C593 C599 1.390 1_554 S
C594 H585 0.930 . S
C594 C592 1.384 . S
C594 C595 1.372 . S
C595 C594 1.372 . S
C595 C596 1.400 1_554 S
C595 C600 1.490 . S
C596 H586 0.930 . S
C596 C595 1.400 1_556 S
C596 C599 1.386 . S
H597 C613 0.930 . S
H598 C614 0.931 . S
C599 H587 0.929 . S
C599 C593 1.390 1_556 S
C599 C596 1.386 . S
C600 C595 1.490 . S
C600 C602 1.396 . S
C600 C603 1.403 . S
H601 C607 0.930 . S
C602 H588 0.929 1_554 S
C602 C600 1.396 . S
C602 C605 1.403 1_554 S
C603 C600 1.403 . S
C603 C604 1.524 . S
C603 C607 1.400 . S
C604 H589 0.960 . S
C604 H590 0.960 . S
C604 H591 0.960 1_554 S
C604 C603 1.524 . S
C605 C602 1.403 1_556 S
C605 C606 1.392 1_556 S
C605 C609 1.496 . S
C606 C605 1.392 1_554 S
C606 C607 1.385 . S
C606 C608 1.478 . S
C607 H601 0.930 . S
C607 C603 1.400 . S
C607 C606 1.385 . S
C608 C606 1.478 . S
C608 C610 1.381 . S
C608 C614 1.383 1_554 S
C609 C605 1.496 . S
C609 H615 0.959 . S
C609 H616 0.961 . S
C609 H617 0.960 1_556 S
C610 C608 1.381 . S
C610 C611 1.394 . S
C610 H618 0.930 . S
C611 C610 1.394 . S
C611 C612 1.383 . S
C611 H619 0.929 . S
C612 C611 1.383 . S
C612 C613 1.377 1_554 S
C613 H597 0.930 . S
C613 C612 1.377 1_556 S
C613 C614 1.379 . S
C614 H598 0.931 . S
C614 C608 1.383 1_556 S
C614 C613 1.379 . S
H615 C609 0.959 . S
H616 C609 0.961 . S
H617 C609 0.960 1_554 S
H618 C610 0.930 . S
H619 C611 0.929 . S
H620 C628 0.929 . S
H621 C630 0.930 . S
H622 C632 0.930 . S
H623 C635 0.929 . S
H624 C638 0.930 . S
H625 C640 0.960 . S
H626 C640 0.960 . S
H627 C640 0.960 1_556 S
C628 H620 0.929 . S
C628 C629 1.377 . S
C628 C630 1.384 . S
C629 C628 1.377 . S
C629 C635 1.390 1_554 S
C630 H621 0.930 . S
C630 C628 1.384 . S
C630 C631 1.372 . S
C631 C630 1.372 . S
C631 C632 1.400 1_554 S
C631 C636 1.490 . S
C632 H622 0.930 . S
C632 C631 1.400 1_556 S
C632 C635 1.386 . S
H633 C649 0.930 . S
H634 C650 0.931 . S
C635 H623 0.929 . S
C635 C629 1.390 1_556 S
C635 C632 1.386 . S
C636 C631 1.490 . S
C636 C638 1.395 . S
C636 C639 1.403 . S
H637 C643 0.930 . S
C638 H624 0.930 . S
C638 C636 1.395 . S
C638 C641 1.403 . S
C639 C636 1.403 . S
C639 C640 1.524 . S
C639 C643 1.400 . S
C640 H625 0.960 . S
C640 H626 0.960 . S
C640 H627 0.960 1_554 S
C640 C639 1.524 . S
C641 C638 1.403 . S
C641 C642 1.392 . S
C641 C645 1.495 . S
C642 C641 1.392 . S
C642 C643 1.385 . S
C642 C644 1.478 . S
C643 H637 0.930 . S
C643 C639 1.400 . S
C643 C642 1.385 . S
C644 C642 1.478 . S
C644 C646 1.381 . S
C644 C650 1.383 1_554 S
C645 C641 1.495 . S
C645 H651 0.959 . S
C645 H652 0.961 1_554 S
C645 H653 0.960 . S
C646 C644 1.381 . S
C646 C647 1.394 . S
C646 H654 0.930 . S
C647 C646 1.394 . S
C647 C648 1.383 . S
C647 H655 0.929 . S
C648 C647 1.383 . S
C648 C649 1.377 1_554 S
C649 H633 0.930 . S
C649 C648 1.377 1_556 S
C649 C650 1.379 . S
C650 H634 0.931 . S
C650 C644 1.383 1_556 S
C650 C649 1.379 . S
H651 C645 0.959 . S
H652 C645 0.961 1_556 S
H653 C645 0.960 . S
H654 C646 0.930 . S
H655 C647 0.929 . S
H656 C664 0.929 . S
H657 C666 0.930 . S
H658 C668 0.930 . S
H659 C671 0.929 . S
H660 C674 0.930 . S
H661 C676 0.960 . S
H662 C676 0.960 . S
H663 C676 0.960 . S
C664 H656 0.929 . S
C664 C665 1.377 . S
C664 C666 1.384 . S
C665 C664 1.377 . S
C665 C671 1.390 . S
C666 H657 0.930 . S
C666 C664 1.384 . S
C666 C667 1.372 . S
C667 C666 1.372 . S
C667 C668 1.400 . S
C667 C672 1.490 . S
C668 H658 0.930 . S
C668 C667 1.400 . S
C668 C671 1.386 . S
H669 C685 0.930 . S
H670 C686 0.931 . S
C671 H659 0.929 . S
C671 C665 1.390 . S
C671 C668 1.386 . S
C672 C667 1.490 . S
C672 C674 1.395 . S
C672 C675 1.403 . S
H673 C679 0.930 . S
C674 H660 0.930 . S
C674 C672 1.395 . S
C674 C677 1.403 . S
C675 C672 1.403 . S
C675 C676 1.524 . S
C675 C679 1.400 . S
C676 H661 0.960 . S
C676 H662 0.960 . S
C676 H663 0.960 . S
C676 C675 1.524 . S
C677 C674 1.403 . S
C677 C678 1.392 . S
C677 C681 1.495 . S
C678 C677 1.392 . S
C678 C679 1.385 . S
C678 C680 1.478 . S
C679 H673 0.930 . S
C679 C675 1.400 . S
C679 C678 1.385 . S
C680 C678 1.478 . S
C680 C682 1.381 . S
C680 C686 1.383 . S
C681 C677 1.495 . S
C681 H687 0.959 . S
C681 H688 0.961 . S
C681 H689 0.960 . S
C682 C680 1.381 . S
C682 C683 1.394 . S
C682 H690 0.930 . S
C683 C682 1.394 . S
C683 C684 1.383 . S
C683 H691 0.929 . S
C684 C683 1.383 . S
C684 C685 1.377 . S
C685 H669 0.930 . S
C685 C684 1.377 . S
C685 C686 1.379 . S
C686 H670 0.931 . S
C686 C680 1.383 . S
C686 C685 1.379 . S
H687 C681 0.959 . S
H688 C681 0.961 . S
H689 C681 0.960 . S
H690 C682 0.930 . S
H691 C683 0.929 . S
H692 C700 0.929 . S
H693 C702 0.930 . S
H694 C704 0.930 . S
H695 C707 0.929 . S
H696 C710 0.930 . S
H697 C712 0.960 . S
H698 C712 0.960 . S
H699 C712 0.960 . S
C700 H692 0.929 . S
C700 C701 1.377 . S
C700 C702 1.384 . S
C701 C700 1.377 . S
C701 C707 1.390 . S
C702 H693 0.930 . S
C702 C700 1.384 . S
C702 C703 1.372 . S
C703 C702 1.372 . S
C703 C704 1.400 . S
C703 C708 1.490 . S
C704 H694 0.930 . S
C704 C703 1.400 . S
C704 C707 1.386 . S
H705 C721 0.930 . S
H706 C722 0.931 . S
C707 H695 0.929 . S
C707 C701 1.390 . S
C707 C704 1.386 . S
C708 C703 1.490 . S
C708 C710 1.395 . S
C708 C711 1.403 . S
H709 C715 0.930 . S
C710 H696 0.930 . S
C710 C708 1.395 . S
C710 C713 1.403 . S
C711 C708 1.403 . S
C711 C712 1.524 . S
C711 C715 1.400 . S
C712 H697 0.960 . S
C712 H698 0.960 . S
C712 H699 0.960 . S
C712 C711 1.524 . S
C713 C710 1.403 . S
C713 C714 1.392 . S
C713 C717 1.495 . S
C714 C713 1.392 . S
C714 C715 1.385 . S
C714 C716 1.478 . S
C715 H709 0.930 . S
C715 C711 1.400 . S
C715 C714 1.385 . S
C716 C714 1.478 . S
C716 C718 1.381 . S
C716 C722 1.383 . S
C717 C713 1.495 . S
C717 H723 0.959 . S
C717 H724 0.961 . S
C717 H725 0.960 . S
C718 C716 1.381 . S
C718 C719 1.394 . S
C718 H726 0.930 . S
C719 C718 1.394 . S
C719 C720 1.383 . S
C719 H727 0.929 . S
C720 C719 1.383 . S
C720 C721 1.377 . S
C721 H705 0.930 . S
C721 C720 1.377 . S
C721 C722 1.379 . S
C722 H706 0.931 . S
C722 C716 1.383 . S
C722 C721 1.379 . S
H723 C717 0.959 . S
H724 C717 0.961 . S
H725 C717 0.960 . S
H726 C718 0.930 . S
H727 C719 0.929 . S
H728 C736 0.929 . S
H729 C738 0.930 . S
H730 C740 0.930 . S
H731 C743 0.929 . S
H732 C746 0.930 . S
H733 C748 0.960 . S
H734 C748 0.960 . S
H735 C748 0.960 . S
C736 H728 0.929 . S
C736 C737 1.377 . S
C736 C738 1.384 . S
C737 C736 1.377 . S
C737 C743 1.390 . S
C738 H729 0.930 . S
C738 C736 1.384 . S
C738 C739 1.372 . S
C739 C738 1.372 . S
C739 C740 1.400 . S
C739 C744 1.490 . S
C740 H730 0.930 . S
C740 C739 1.400 . S
C740 C743 1.386 . S
H741 C757 0.930 . S
H742 C758 0.931 . S
C743 H731 0.929 . S
C743 C737 1.390 . S
C743 C740 1.386 . S
C744 C739 1.490 . S
C744 C746 1.395 . S
C744 C747 1.403 . S
H745 C751 0.930 . S
C746 H732 0.930 . S
C746 C744 1.395 . S
C746 C749 1.403 . S
C747 C744 1.403 . S
C747 C748 1.524 . S
C747 C751 1.400 . S
C748 H733 0.960 . S
C748 H734 0.960 . S
C748 H735 0.960 . S
C748 C747 1.524 . S
C749 C746 1.403 . S
C749 C750 1.392 . S
C749 C753 1.495 . S
C750 C749 1.392 . S
C750 C751 1.385 . S
C750 C752 1.478 . S
C751 H745 0.930 . S
C751 C747 1.400 . S
C751 C750 1.385 . S
C752 C750 1.478 . S
C752 C754 1.381 . S
C752 C758 1.383 . S
C753 C749 1.495 . S
C753 H759 0.959 . S
C753 H760 0.961 . S
C753 H761 0.960 . S
C754 C752 1.381 . S
C754 C755 1.394 . S
C754 H762 0.930 . S
C755 C754 1.394 . S
C755 C756 1.383 . S
C755 H763 0.929 . S
C756 C755 1.383 . S
C756 C757 1.377 . S
C757 H741 0.930 . S
C757 C756 1.377 . S
C757 C758 1.379 . S
C758 H742 0.931 . S
C758 C752 1.383 . S
C758 C757 1.379 . S
H759 C753 0.959 . S
H760 C753 0.961 . S
H761 C753 0.960 . S
H762 C754 0.930 . S
H763 C755 0.929 . S
H764 C772 0.929 . S
H765 C774 0.930 . S
H766 C776 0.930 . S
H767 C779 0.929 . S
H768 C782 0.930 . S
H769 C784 0.960 . S
H770 C784 0.960 . S
H771 C784 0.960 . S
C772 H764 0.929 . S
C772 C773 1.377 . S
C772 C774 1.384 . S
C773 C772 1.377 . S
C773 C779 1.390 . S
C774 H765 0.930 . S
C774 C772 1.384 . S
C774 C775 1.372 . S
C775 C774 1.372 . S
C775 C776 1.400 . S
C775 C780 1.490 . S
C776 H766 0.930 . S
C776 C775 1.400 . S
C776 C779 1.386 . S
H777 C793 0.930 . S
H778 C794 0.931 . S
C779 H767 0.929 . S
C779 C773 1.390 . S
C779 C776 1.386 . S
C780 C775 1.490 . S
C780 C782 1.395 . S
C780 C783 1.403 . S
H781 C787 0.930 . S
C782 H768 0.930 . S
C782 C780 1.395 . S
C782 C785 1.403 . S
C783 C780 1.403 . S
C783 C784 1.524 . S
C783 C787 1.400 . S
C784 H769 0.960 . S
C784 H770 0.960 . S
C784 H771 0.960 . S
C784 C783 1.524 . S
C785 C782 1.403 . S
C785 C786 1.392 . S
C785 C789 1.495 . S
C786 C785 1.392 . S
C786 C787 1.385 . S
C786 C788 1.478 . S
C787 H781 0.930 . S
C787 C783 1.400 . S
C787 C786 1.385 . S
C788 C786 1.478 . S
C788 C790 1.381 . S
C788 C794 1.383 . S
C789 C785 1.495 . S
C789 H795 0.959 . S
C789 H796 0.961 . S
C789 H797 0.960 . S
C790 C788 1.381 . S
C790 C791 1.394 . S
C790 H798 0.930 . S
C791 C790 1.394 . S
C791 C792 1.383 . S
C791 H799 0.929 . S
C792 C791 1.383 . S
C792 C793 1.377 . S
C793 H777 0.930 . S
C793 C792 1.377 . S
C793 C794 1.379 . S
C794 H778 0.931 . S
C794 C788 1.383 . S
C794 C793 1.379 . S
H795 C789 0.959 . S
H796 C789 0.961 . S
H797 C789 0.960 . S
H798 C790 0.930 . S
H799 C791 0.929 . S
H800 C808 0.929 . S
H801 C810 0.930 . S
H802 C812 0.930 . S
H803 C815 0.929 . S
H804 C818 0.930 . S
H805 C820 0.960 . S
H806 C820 0.960 . S
H807 C820 0.960 . S
C808 H800 0.929 . S
C808 C809 1.377 . S
C808 C810 1.384 . S
C809 C808 1.377 . S
C809 C815 1.390 . S
C810 H801 0.930 . S
C810 C808 1.384 . S
C810 C811 1.372 . S
C811 C810 1.372 . S
C811 C812 1.400 . S
C811 C816 1.490 . S
C812 H802 0.930 . S
C812 C811 1.400 . S
C812 C815 1.386 . S
H813 C829 0.930 . S
H814 C830 0.931 . S
C815 H803 0.929 . S
C815 C809 1.390 . S
C815 C812 1.386 . S
C816 C811 1.490 . S
C816 C818 1.395 . S
C816 C819 1.403 . S
H817 C823 0.930 . S
C818 H804 0.930 . S
C818 C816 1.395 . S
C818 C821 1.403 . S
C819 C816 1.403 . S
C819 C820 1.524 . S
C819 C823 1.400 . S
C820 H805 0.960 . S
C820 H806 0.960 . S
C820 H807 0.960 . S
C820 C819 1.524 . S
C821 C818 1.403 . S
C821 C822 1.392 . S
C821 C825 1.495 . S
C822 C821 1.392 . S
C822 C823 1.385 . S
C822 C824 1.478 . S
C823 H817 0.930 . S
C823 C819 1.400 . S
C823 C822 1.385 . S
C824 C822 1.478 . S
C824 C826 1.381 . S
C824 C830 1.383 . S
C825 C821 1.495 . S
C825 H831 0.959 . S
C825 H832 0.961 . S
C825 H833 0.960 . S
C826 C824 1.381 . S
C826 C827 1.394 . S
C826 H834 0.930 . S
C827 C826 1.394 . S
C827 C828 1.383 . S
C827 H835 0.929 . S
C828 C827 1.383 . S
C828 C829 1.377 . S
C829 H813 0.930 . S
C829 C828 1.377 . S
C829 C830 1.379 . S
C830 H814 0.931 . S
C830 C824 1.383 . S
C830 C829 1.379 . S
H831 C825 0.959 . S
H832 C825 0.961 . S
H833 C825 0.960 . S
H834 C826 0.930 . S
H835 C827 0.929 . S
H836 C844 0.929 . S
H837 C846 0.930 . S
H838 C848 0.930 . S
H839 C851 0.929 . S
H840 C854 0.930 . S
H841 C856 0.960 . S
H842 C856 0.960 . S
H843 C856 0.960 . S
C844 H836 0.929 . S
C844 C845 1.377 . S
C844 C846 1.384 . S
C845 C844 1.377 . S
C845 C851 1.390 . S
C846 H837 0.930 . S
C846 C844 1.384 . S
C846 C847 1.372 . S
C847 C846 1.372 . S
C847 C848 1.400 . S
C847 C852 1.490 . S
C848 H838 0.930 . S
C848 C847 1.400 . S
C848 C851 1.386 . S
H849 C865 0.930 . S
H850 C866 0.931 . S
C851 H839 0.929 . S
C851 C845 1.390 . S
C851 C848 1.386 . S
C852 C847 1.490 . S
C852 C854 1.395 . S
C852 C855 1.403 . S
H853 C859 0.930 . S
C854 H840 0.930 . S
C854 C852 1.395 . S
C854 C857 1.403 . S
C855 C852 1.403 . S
C855 C856 1.524 . S
C855 C859 1.400 . S
C856 H841 0.960 . S
C856 H842 0.960 . S
C856 H843 0.960 . S
C856 C855 1.524 . S
C857 C854 1.403 . S
C857 C858 1.392 . S
C857 C861 1.495 . S
C858 C857 1.392 . S
C858 C859 1.385 . S
C858 C860 1.478 . S
C859 H853 0.930 . S
C859 C855 1.400 . S
C859 C858 1.385 . S
C860 C858 1.478 . S
C860 C862 1.381 . S
C860 C866 1.383 . S
C861 C857 1.495 . S
C861 H867 0.959 . S
C861 H868 0.961 . S
C861 H869 0.960 . S
C862 C860 1.381 . S
C862 C863 1.394 . S
C862 H870 0.930 . S
C863 C862 1.394 . S
C863 C864 1.383 . S
C863 H871 0.929 . S
C864 C863 1.383 . S
C864 C865 1.377 . S
C865 H849 0.930 . S
C865 C864 1.377 . S
C865 C866 1.379 . S
C866 H850 0.931 . S
C866 C860 1.383 . S
C866 C865 1.379 . S
H867 C861 0.959 . S
H868 C861 0.961 . S
H869 C861 0.960 . S
H870 C862 0.930 . S
H871 C863 0.929 . S
H872 C880 0.929 . S
H873 C882 0.930 . S
H874 C884 0.930 . S
H875 C887 0.929 . S
H876 C890 0.930 . S
H877 C892 0.960 . S
H878 C892 0.960 . S
H879 C892 0.960 . S
C880 H872 0.929 . S
C880 C881 1.377 . S
C880 C882 1.384 . S
C881 C880 1.377 . S
C881 C887 1.390 . S
C882 H873 0.930 . S
C882 C880 1.384 . S
C882 C883 1.372 . S
C883 C882 1.372 . S
C883 C884 1.400 . S
C883 C888 1.490 . S
C884 H874 0.930 . S
C884 C883 1.400 . S
C884 C887 1.386 . S
H885 C901 0.930 . S
H886 C902 0.931 . S
C887 H875 0.929 . S
C887 C881 1.390 . S
C887 C884 1.386 . S
C888 C883 1.490 . S
C888 C890 1.395 . S
C888 C891 1.403 . S
H889 C895 0.930 . S
C890 H876 0.930 . S
C890 C888 1.395 . S
C890 C893 1.403 . S
C891 C888 1.403 . S
C891 C892 1.524 . S
C891 C895 1.400 . S
C892 H877 0.960 . S
C892 H878 0.960 . S
C892 H879 0.960 . S
C892 C891 1.524 . S
C893 C890 1.403 . S
C893 C894 1.392 . S
C893 C897 1.495 . S
C894 C893 1.392 . S
C894 C895 1.385 . S
C894 C896 1.478 . S
C895 H889 0.930 . S
C895 C891 1.400 . S
C895 C894 1.385 . S
C896 C894 1.478 . S
C896 C898 1.381 . S
C896 C902 1.383 . S
C897 C893 1.495 . S
C897 H903 0.959 . S
C897 H904 0.961 . S
C897 H905 0.960 . S
C898 C896 1.381 . S
C898 C899 1.394 . S
C898 H906 0.930 . S
C899 C898 1.394 . S
C899 C900 1.383 . S
C899 H907 0.929 . S
C900 C899 1.383 . S
C900 C901 1.377 . S
C901 H885 0.930 . S
C901 C900 1.377 . S
C901 C902 1.379 . S
C902 H886 0.931 . S
C902 C896 1.383 . S
C902 C901 1.379 . S
H903 C897 0.959 . S
H904 C897 0.961 . S
H905 C897 0.960 . S
H906 C898 0.930 . S
H907 C899 0.929 . S
H908 C916 0.929 . S
H909 C918 0.930 . S
H910 C920 0.930 . S
H911 C923 0.929 . S
H912 C926 0.930 . S
H913 C928 0.960 . S
H914 C928 0.960 . S
H915 C928 0.960 . S
C916 H908 0.929 . S
C916 C917 1.377 . S
C916 C918 1.384 . S
C917 C916 1.377 . S
C917 C923 1.390 . S
C918 H909 0.930 . S
C918 C916 1.384 . S
C918 C919 1.372 . S
C919 C918 1.372 . S
C919 C920 1.400 . S
C919 C924 1.490 . S
C920 H910 0.930 . S
C920 C919 1.400 . S
C920 C923 1.386 . S
H921 C937 0.930 . S
H922 C938 0.931 . S
C923 H911 0.929 . S
C923 C917 1.390 . S
C923 C920 1.386 . S
C924 C919 1.490 . S
C924 C926 1.395 . S
C924 C927 1.403 . S
H925 C931 0.930 . S
C926 H912 0.930 . S
C926 C924 1.395 . S
C926 C929 1.403 . S
C927 C924 1.403 . S
C927 C928 1.524 . S
C927 C931 1.400 . S
C928 H913 0.960 . S
C928 H914 0.960 . S
C928 H915 0.960 . S
C928 C927 1.524 . S
C929 C926 1.403 . S
C929 C930 1.392 . S
C929 C933 1.495 . S
C930 C929 1.392 . S
C930 C931 1.385 . S
C930 C932 1.478 . S
C931 H925 0.930 . S
C931 C927 1.400 . S
C931 C930 1.385 . S
C932 C930 1.478 . S
C932 C934 1.381 . S
C932 C938 1.383 . S
C933 C929 1.495 . S
C933 H939 0.959 . S
C933 H940 0.961 . S
C933 H941 0.960 . S
C934 C932 1.381 . S
C934 C935 1.394 . S
C934 H942 0.930 . S
C935 C934 1.394 . S
C935 C936 1.383 . S
C935 H943 0.929 . S
C936 C935 1.383 . S
C936 C937 1.377 . S
C937 H921 0.930 . S
C937 C936 1.377 . S
C937 C938 1.379 . S
C938 H922 0.931 . S
C938 C932 1.383 . S
C938 C937 1.379 . S
H939 C933 0.959 . S
H940 C933 0.961 . S
H941 C933 0.960 . S
H942 C934 0.930 . S
H943 C935 0.929 . S
H944 C952 0.929 . S
H945 C954 0.930 . S
H946 C956 0.930 . S
H947 C959 0.929 . S
H948 C962 0.930 . S
H949 C964 0.960 . S
H950 C964 0.960 . S
H951 C964 0.960 . S
C952 H944 0.929 . S
C952 C953 1.377 . S
C952 C954 1.384 . S
C953 C952 1.377 . S
C953 C959 1.390 . S
C954 H945 0.930 . S
C954 C952 1.384 . S
C954 C955 1.372 . S
C955 C954 1.372 . S
C955 C956 1.400 . S
C955 C960 1.490 . S
C956 H946 0.930 . S
C956 C955 1.400 . S
C956 C959 1.386 . S
H957 C973 0.930 . S
H958 C974 0.931 . S
C959 H947 0.929 . S
C959 C953 1.390 . S
C959 C956 1.386 . S
C960 C955 1.490 . S
C960 C962 1.395 . S
C960 C963 1.403 . S
H961 C967 0.930 . S
C962 H948 0.930 . S
C962 C960 1.395 . S
C962 C965 1.403 . S
C963 C960 1.403 . S
C963 C964 1.524 . S
C963 C967 1.400 . S
C964 H949 0.960 . S
C964 H950 0.960 . S
C964 H951 0.960 . S
C964 C963 1.524 . S
C965 C962 1.403 . S
C965 C966 1.392 . S
C965 C969 1.495 . S
C966 C965 1.392 . S
C966 C967 1.385 . S
C966 C968 1.478 . S
C967 H961 0.930 . S
C967 C963 1.400 . S
C967 C966 1.385 . S
C968 C966 1.478 . S
C968 C970 1.381 . S
C968 C974 1.383 . S
C969 C965 1.495 . S
C969 H975 0.959 . S
C969 H976 0.961 . S
C969 H977 0.960 . S
C970 C968 1.381 . S
C970 C971 1.394 . S
C970 H978 0.930 . S
C971 C970 1.394 . S
C971 C972 1.383 . S
C971 H979 0.929 . S
C972 C971 1.383 . S
C972 C973 1.377 . S
C973 H957 0.930 . S
C973 C972 1.377 . S
C973 C974 1.379 . S
C974 H958 0.931 . S
C974 C968 1.383 . S
C974 C973 1.379 . S
H975 C969 0.959 . S
H976 C969 0.961 . S
H977 C969 0.960 . S
H978 C970 0.930 . S
H979 C971 0.929 . S
H980 C988 0.929 . S
H981 C990 0.930 . S
H982 C992 0.930 . S
H983 C995 0.929 . S
H984 C998 0.930 . S
H985 C1000 0.960 . S
H986 C1000 0.960 . S
H987 C1000 0.960 . S
C988 H980 0.929 . S
C988 C989 1.377 . S
C988 C990 1.384 . S
C989 C988 1.377 . S
C989 C995 1.390 . S
C990 H981 0.930 . S
C990 C988 1.384 . S
C990 C991 1.372 . S
C991 C990 1.372 . S
C991 C992 1.400 . S
C991 C996 1.490 . S
C992 H982 0.930 . S
C992 C991 1.400 . S
C992 C995 1.386 . S
H993 C1009 0.930 . S
H994 C1010 0.931 . S
C995 H983 0.929 . S
C995 C989 1.390 . S
C995 C992 1.386 . S
C996 C991 1.490 . S
C996 C998 1.395 . S
C996 C999 1.403 . S
H997 C1003 0.930 . S
C998 H984 0.930 . S
C998 C996 1.395 . S
C998 C1001 1.403 . S
C999 C996 1.403 . S
C999 C1000 1.524 . S
C999 C1003 1.400 . S
C1000 H985 0.960 . S
C1000 H986 0.960 . S
C1000 H987 0.960 . S
C1000 C999 1.524 . S
C1001 C998 1.403 . S
C1001 C1002 1.392 . S
C1001 C1005 1.495 . S
C1002 C1001 1.392 . S
C1002 C1003 1.385 . S
C1002 C1004 1.478 . S
C1003 H997 0.930 . S
C1003 C999 1.400 . S
C1003 C1002 1.385 . S
C1004 C1002 1.478 . S
C1004 C1006 1.381 . S
C1004 C1010 1.383 . S
C1005 C1001 1.495 . S
C1005 H1011 0.959 . S
C1005 H1012 0.961 . S
C1005 H1013 0.960 . S
C1006 C1004 1.381 . S
C1006 C1007 1.394 . S
C1006 H1014 0.930 . S
C1007 C1006 1.394 . S
C1007 C1008 1.383 . S
C1007 H1015 0.929 . S
C1008 C1007 1.383 . S
C1008 C1009 1.377 . S
C1009 H993 0.930 . S
C1009 C1008 1.377 . S
C1009 C1010 1.379 . S
C1010 H994 0.931 . S
C1010 C1004 1.383 . S
C1010 C1009 1.379 . S
H1011 C1005 0.959 . S
H1012 C1005 0.961 . S
H1013 C1005 0.960 . S
H1014 C1006 0.930 . S
H1015 C1007 0.929 . S
H1016 C1024 0.929 . S
H1017 C1026 0.930 . S
H1018 C1028 0.930 . S
H1019 C1031 0.929 . S
H1020 C1034 0.930 . S
H1021 C1036 0.960 . S
H1022 C1036 0.960 . S
H1023 C1036 0.960 . S
C1024 H1016 0.929 . S
C1024 C1025 1.377 . S
C1024 C1026 1.384 . S
C1025 C1024 1.377 . S
C1025 C1031 1.390 . S
C1026 H1017 0.930 . S
C1026 C1024 1.384 . S
C1026 C1027 1.372 . S
C1027 C1026 1.372 . S
C1027 C1028 1.400 . S
C1027 C1032 1.490 . S
C1028 H1018 0.930 . S
C1028 C1027 1.400 . S
C1028 C1031 1.386 . S
H1029 C1045 0.930 . S
H1030 C1046 0.931 . S
C1031 H1019 0.929 . S
C1031 C1025 1.390 . S
C1031 C1028 1.386 . S
C1032 C1027 1.490 . S
C1032 C1034 1.395 . S
C1032 C1035 1.403 . S
H1033 C1039 0.930 . S
C1034 H1020 0.930 . S
C1034 C1032 1.395 . S
C1034 C1037 1.403 . S
C1035 C1032 1.403 . S
C1035 C1036 1.524 . S
C1035 C1039 1.400 . S
C1036 H1021 0.960 . S
C1036 H1022 0.960 . S
C1036 H1023 0.960 . S
C1036 C1035 1.524 . S
C1037 C1034 1.403 . S
C1037 C1038 1.392 . S
C1037 C1041 1.495 . S
C1038 C1037 1.392 . S
C1038 C1039 1.385 . S
C1038 C1040 1.478 . S
C1039 H1033 0.930 . S
C1039 C1035 1.400 . S
C1039 C1038 1.385 . S
C1040 C1038 1.478 . S
C1040 C1042 1.381 . S
C1040 C1046 1.383 . S
C1041 C1037 1.495 . S
C1041 H1047 0.959 . S
C1041 H1048 0.961 . S
C1041 H1049 0.960 . S
C1042 C1040 1.381 . S
C1042 C1043 1.394 . S
C1042 H1050 0.930 . S
C1043 C1042 1.394 . S
C1043 C1044 1.383 . S
C1043 H1051 0.929 . S
C1044 C1043 1.383 . S
C1044 C1045 1.377 . S
C1045 H1029 0.930 . S
C1045 C1044 1.377 . S
C1045 C1046 1.379 . S
C1046 H1030 0.931 . S
C1046 C1040 1.383 . S
C1046 C1045 1.379 . S
H1047 C1041 0.959 . S
H1048 C1041 0.961 . S
H1049 C1041 0.960 . S
H1050 C1042 0.930 . S
H1051 C1043 0.929 . S
H1052 C1060 0.929 . S
H1053 C1062 0.930 . S
H1054 C1064 0.930 . S
H1055 C1067 0.929 . S
H1056 C1070 0.930 . S
H1057 C1072 0.960 . S
H1058 C1072 0.960 . S
H1059 C1072 0.960 . S
C1060 H1052 0.929 . S
C1060 C1061 1.377 . S
C1060 C1062 1.384 . S
C1061 C1060 1.377 . S
C1061 C1067 1.390 . S
C1062 H1053 0.930 . S
C1062 C1060 1.384 . S
C1062 C1063 1.372 . S
C1063 C1062 1.372 . S
C1063 C1064 1.400 . S
C1063 C1068 1.490 . S
C1064 H1054 0.930 . S
C1064 C1063 1.400 . S
C1064 C1067 1.386 . S
H1065 C1081 0.930 . S
H1066 C1082 0.931 . S
C1067 H1055 0.929 . S
C1067 C1061 1.390 . S
C1067 C1064 1.386 . S
C1068 C1063 1.490 . S
C1068 C1070 1.395 . S
C1068 C1071 1.403 . S
H1069 C1075 0.930 . S
C1070 H1056 0.930 . S
C1070 C1068 1.395 . S
C1070 C1073 1.403 . S
C1071 C1068 1.403 . S
C1071 C1072 1.524 . S
C1071 C1075 1.400 . S
C1072 H1057 0.960 . S
C1072 H1058 0.960 . S
C1072 H1059 0.960 . S
C1072 C1071 1.524 . S
C1073 C1070 1.403 . S
C1073 C1074 1.392 . S
C1073 C1077 1.495 . S
C1074 C1073 1.392 . S
C1074 C1075 1.385 . S
C1074 C1076 1.478 . S
C1075 H1069 0.930 . S
C1075 C1071 1.400 . S
C1075 C1074 1.385 . S
C1076 C1074 1.478 . S
C1076 C1078 1.381 . S
C1076 C1082 1.383 . S
C1077 C1073 1.495 . S
C1077 H1083 0.959 . S
C1077 H1084 0.961 . S
C1077 H1085 0.960 . S
C1078 C1076 1.381 . S
C1078 C1079 1.394 . S
C1078 H1086 0.930 . S
C1079 C1078 1.394 . S
C1079 C1080 1.383 . S
C1079 H1087 0.929 . S
C1080 C1079 1.383 . S
C1080 C1081 1.377 . S
C1081 H1065 0.930 . S
C1081 C1080 1.377 . S
C1081 C1082 1.379 . S
C1082 H1066 0.931 . S
C1082 C1076 1.383 . S
C1082 C1081 1.379 . S
H1083 C1077 0.959 . S
H1084 C1077 0.961 . S
H1085 C1077 0.960 . S
H1086 C1078 0.930 . S
H1087 C1079 0.929 . S
H1088 C1096 0.929 . S
H1089 C1098 0.930 . S
H1090 C1100 0.930 . S
H1091 C1103 0.929 . S
H1092 C1106 0.930 . S
H1093 C1108 0.960 . S
H1094 C1108 0.960 . S
H1095 C1108 0.960 . S
C1096 H1088 0.929 . S
C1096 C1097 1.377 . S
C1096 C1098 1.384 . S
C1097 C1096 1.377 . S
C1097 C1103 1.390 . S
C1098 H1089 0.930 . S
C1098 C1096 1.384 . S
C1098 C1099 1.372 . S
C1099 C1098 1.372 . S
C1099 C1100 1.400 . S
C1099 C1104 1.490 . S
C1100 H1090 0.930 . S
C1100 C1099 1.400 . S
C1100 C1103 1.386 . S
H1101 C1117 0.930 . S
H1102 C1118 0.931 . S
C1103 H1091 0.929 . S
C1103 C1097 1.390 . S
C1103 C1100 1.386 . S
C1104 C1099 1.490 . S
C1104 C1106 1.395 . S
C1104 C1107 1.403 . S
H1105 C1111 0.930 . S
C1106 H1092 0.930 . S
C1106 C1104 1.395 . S
C1106 C1109 1.403 . S
C1107 C1104 1.403 . S
C1107 C1108 1.524 . S
C1107 C1111 1.400 . S
C1108 H1093 0.960 . S
C1108 H1094 0.960 . S
C1108 H1095 0.960 . S
C1108 C1107 1.524 . S
C1109 C1106 1.403 . S
C1109 C1110 1.392 . S
C1109 C1113 1.495 . S
C1110 C1109 1.392 . S
C1110 C1111 1.385 . S
C1110 C1112 1.478 . S
C1111 H1105 0.930 . S
C1111 C1107 1.400 . S
C1111 C1110 1.385 . S
C1112 C1110 1.478 . S
C1112 C1114 1.381 . S
C1112 C1118 1.383 . S
C1113 C1109 1.495 . S
C1113 H1119 0.959 . S
C1113 H1120 0.961 . S
C1113 H1121 0.960 . S
C1114 C1112 1.381 . S
C1114 C1115 1.394 . S
C1114 H1122 0.930 . S
C1115 C1114 1.394 . S
C1115 C1116 1.383 . S
C1115 H1123 0.929 . S
C1116 C1115 1.383 . S
C1116 C1117 1.377 . S
C1117 H1101 0.930 . S
C1117 C1116 1.377 . S
C1117 C1118 1.379 . S
C1118 H1102 0.931 . S
C1118 C1112 1.383 . S
C1118 C1117 1.379 . S
H1119 C1113 0.959 . S
H1120 C1113 0.961 . S
H1121 C1113 0.960 . S
H1122 C1114 0.930 . S
H1123 C1115 0.929 . S
H1124 C1132 0.929 . S
H1125 C1134 0.930 . S
H1126 C1136 0.930 . S
H1127 C1139 0.929 . S
H1128 C1142 0.930 . S
H1129 C1144 0.960 . S
H1130 C1144 0.960 . S
H1131 C1144 0.960 . S
C1132 H1124 0.929 . S
C1132 C1133 1.377 . S
C1132 C1134 1.384 . S
C1133 C1132 1.377 . S
C1133 C1139 1.390 . S
C1134 H1125 0.930 . S
C1134 C1132 1.384 . S
C1134 C1135 1.372 . S
C1135 C1134 1.372 . S
C1135 C1136 1.400 . S
C1135 C1140 1.490 . S
C1136 H1126 0.930 . S
C1136 C1135 1.400 . S
C1136 C1139 1.386 . S
H1137 C1153 0.930 . S
H1138 C1154 0.931 . S
C1139 H1127 0.929 . S
C1139 C1133 1.390 . S
C1139 C1136 1.386 . S
C1140 C1135 1.490 . S
C1140 C1142 1.395 . S
C1140 C1143 1.403 . S
H1141 C1147 0.930 . S
C1142 H1128 0.930 . S
C1142 C1140 1.395 . S
C1142 C1145 1.403 . S
C1143 C1140 1.403 . S
C1143 C1144 1.524 . S
C1143 C1147 1.400 . S
C1144 H1129 0.960 . S
C1144 H1130 0.960 . S
C1144 H1131 0.960 . S
C1144 C1143 1.524 . S
C1145 C1142 1.403 . S
C1145 C1146 1.392 . S
C1145 C1149 1.495 . S
C1146 C1145 1.392 . S
C1146 C1147 1.385 . S
C1146 C1148 1.478 . S
C1147 H1141 0.930 . S
C1147 C1143 1.400 . S
C1147 C1146 1.385 . S
C1148 C1146 1.478 . S
C1148 C1150 1.381 . S
C1148 C1154 1.383 . S
C1149 C1145 1.495 . S
C1149 H1155 0.959 . S
C1149 H1156 0.961 . S
C1149 H1157 0.960 . S
C1150 C1148 1.381 . S
C1150 C1151 1.394 . S
C1150 H1158 0.930 . S
C1151 C1150 1.394 . S
C1151 C1152 1.383 . S
C1151 H1159 0.929 . S
C1152 C1151 1.383 . S
C1152 C1153 1.377 . S
C1153 H1137 0.930 . S
C1153 C1152 1.377 . S
C1153 C1154 1.379 . S
C1154 H1138 0.931 . S
C1154 C1148 1.383 . S
C1154 C1153 1.379 . S
H1155 C1149 0.959 . S
H1156 C1149 0.961 . S
H1157 C1149 0.960 . S
H1158 C1150 0.930 . S
H1159 C1151 0.929 . S
H1160 C1168 0.929 . S
H1161 C1170 0.930 . S
H1162 C1172 0.930 . S
H1163 C1175 0.929 . S
H1164 C1178 0.930 . S
H1165 C1180 0.960 . S
H1166 C1180 0.960 . S
H1167 C1180 0.960 . S
C1168 H1160 0.929 . S
C1168 C1169 1.377 . S
C1168 C1170 1.384 . S
C1169 C1168 1.377 . S
C1169 C1175 1.390 . S
C1170 H1161 0.930 . S
C1170 C1168 1.384 . S
C1170 C1171 1.372 . S
C1171 C1170 1.372 . S
C1171 C1172 1.400 . S
C1171 C1176 1.490 . S
C1172 H1162 0.930 . S
C1172 C1171 1.400 . S
C1172 C1175 1.386 . S
H1173 C1189 0.930 . S
H1174 C1190 0.931 . S
C1175 H1163 0.929 . S
C1175 C1169 1.390 . S
C1175 C1172 1.386 . S
C1176 C1171 1.490 . S
C1176 C1178 1.395 . S
C1176 C1179 1.403 . S
H1177 C1183 0.930 . S
C1178 H1164 0.930 . S
C1178 C1176 1.395 . S
C1178 C1181 1.403 . S
C1179 C1176 1.403 . S
C1179 C1180 1.524 . S
C1179 C1183 1.400 . S
C1180 H1165 0.960 . S
C1180 H1166 0.960 . S
C1180 H1167 0.960 . S
C1180 C1179 1.524 . S
C1181 C1178 1.403 . S
C1181 C1182 1.392 . S
C1181 C1185 1.495 . S
C1182 C1181 1.392 . S
C1182 C1183 1.385 . S
C1182 C1184 1.478 . S
C1183 H1177 0.930 . S
C1183 C1179 1.400 . S
C1183 C1182 1.385 . S
C1184 C1182 1.478 . S
C1184 C1186 1.381 . S
C1184 C1190 1.383 . S
C1185 C1181 1.495 . S
C1185 H1191 0.959 . S
C1185 H1192 0.961 . S
C1185 H1193 0.960 . S
C1186 C1184 1.381 . S
C1186 C1187 1.394 . S
C1186 H1194 0.930 . S
C1187 C1186 1.394 . S
C1187 C1188 1.383 . S
C1187 H1195 0.929 . S
C1188 C1187 1.383 . S
C1188 C1189 1.377 . S
C1189 H1173 0.930 . S
C1189 C1188 1.377 . S
C1189 C1190 1.379 . S
C1190 H1174 0.931 . S
C1190 C1184 1.383 . S
C1190 C1189 1.379 . S
H1191 C1185 0.959 . S
H1192 C1185 0.961 . S
H1193 C1185 0.960 . S
H1194 C1186 0.930 . S
H1195 C1187 0.929 . S
H1196 C1204 0.929 . S
H1197 C1206 0.930 . S
H1198 C1208 0.930 . S
H1199 C1211 0.929 . S
H1200 C1214 0.930 . S
H1201 C1216 0.960 . S
H1202 C1216 0.960 . S
H1203 C1216 0.960 . S
C1204 H1196 0.929 . S
C1204 C1205 1.377 . S
C1204 C1206 1.384 . S
C1205 C1204 1.377 . S
C1205 C1211 1.390 . S
C1206 H1197 0.930 . S
C1206 C1204 1.384 . S
C1206 C1207 1.372 . S
C1207 C1206 1.372 . S
C1207 C1208 1.400 . S
C1207 C1212 1.490 . S
C1208 H1198 0.930 . S
C1208 C1207 1.400 . S
C1208 C1211 1.386 . S
H1209 C1225 0.930 . S
H1210 C1226 0.931 . S
C1211 H1199 0.929 . S
C1211 C1205 1.390 . S
C1211 C1208 1.386 . S
C1212 C1207 1.490 . S
C1212 C1214 1.395 . S
C1212 C1215 1.403 . S
H1213 C1219 0.930 . S
C1214 H1200 0.930 . S
C1214 C1212 1.395 . S
C1214 C1217 1.403 . S
C1215 C1212 1.403 . S
C1215 C1216 1.524 . S
C1215 C1219 1.400 . S
C1216 H1201 0.960 . S
C1216 H1202 0.960 . S
C1216 H1203 0.960 . S
C1216 C1215 1.524 . S
C1217 C1214 1.403 . S
C1217 C1218 1.392 . S
C1217 C1221 1.495 . S
C1218 C1217 1.392 . S
C1218 C1219 1.385 . S
C1218 C1220 1.478 . S
C1219 H1213 0.930 . S
C1219 C1215 1.400 . S
C1219 C1218 1.385 . S
C1220 C1218 1.478 . S
C1220 C1222 1.381 . S
C1220 C1226 1.383 . S
C1221 C1217 1.495 . S
C1221 H1227 0.959 . S
C1221 H1228 0.961 . S
C1221 H1229 0.960 . S
C1222 C1220 1.381 . S
C1222 C1223 1.394 . S
C1222 H1230 0.930 . S
C1223 C1222 1.394 . S
C1223 C1224 1.383 . S
C1223 H1231 0.929 . S
C1224 C1223 1.383 . S
C1224 C1225 1.377 . S
C1225 H1209 0.930 . S
C1225 C1224 1.377 . S
C1225 C1226 1.379 . S
C1226 H1210 0.931 . S
C1226 C1220 1.383 . S
C1226 C1225 1.379 . S
H1227 C1221 0.959 . S
H1228 C1221 0.961 . S
H1229 C1221 0.960 . S
H1230 C1222 0.930 . S
H1231 C1223 0.929 . S
H1232 C1240 0.929 . S
H1233 C1242 0.930 . S
H1234 C1244 0.930 . S
H1235 C1247 0.929 . S
H1236 C1250 0.930 . S
H1237 C1252 0.960 . S
H1238 C1252 0.960 . S
H1239 C1252 0.960 . S
C1240 H1232 0.929 . S
C1240 C1241 1.377 . S
C1240 C1242 1.384 . S
C1241 C1240 1.377 . S
C1241 C1247 1.390 . S
C1242 H1233 0.930 . S
C1242 C1240 1.384 . S
C1242 C1243 1.372 . S
C1243 C1242 1.372 . S
C1243 C1244 1.400 . S
C1243 C1248 1.490 . S
C1244 H1234 0.930 . S
C1244 C1243 1.400 . S
C1244 C1247 1.386 . S
H1245 C1261 0.930 . S
H1246 C1262 0.931 . S
C1247 H1235 0.929 . S
C1247 C1241 1.390 . S
C1247 C1244 1.386 . S
C1248 C1243 1.490 . S
C1248 C1250 1.395 . S
C1248 C1251 1.403 . S
H1249 C1255 0.930 . S
C1250 H1236 0.930 . S
C1250 C1248 1.395 . S
C1250 C1253 1.403 . S
C1251 C1248 1.403 . S
C1251 C1252 1.524 . S
C1251 C1255 1.400 . S
C1252 H1237 0.960 . S
C1252 H1238 0.960 . S
C1252 H1239 0.960 . S
C1252 C1251 1.524 . S
C1253 C1250 1.403 . S
C1253 C1254 1.392 . S
C1253 C1257 1.495 . S
C1254 C1253 1.392 . S
C1254 C1255 1.385 . S
C1254 C1256 1.478 . S
C1255 H1249 0.930 . S
C1255 C1251 1.400 . S
C1255 C1254 1.385 . S
C1256 C1254 1.478 . S
C1256 C1258 1.381 . S
C1256 C1262 1.383 . S
C1257 C1253 1.495 . S
C1257 H1263 0.959 . S
C1257 H1264 0.961 . S
C1257 H1265 0.960 . S
C1258 C1256 1.381 . S
C1258 C1259 1.394 . S
C1258 H1266 0.930 . S
C1259 C1258 1.394 . S
C1259 C1260 1.383 . S
C1259 H1267 0.929 . S
C1260 C1259 1.383 . S
C1260 C1261 1.377 . S
C1261 H1245 0.930 . S
C1261 C1260 1.377 . S
C1261 C1262 1.379 . S
C1262 H1246 0.931 . S
C1262 C1256 1.383 . S
C1262 C1261 1.379 . S
H1263 C1257 0.959 . S
H1264 C1257 0.961 . S
H1265 C1257 0.960 . S
H1266 C1258 0.930 . S
H1267 C1259 0.929 . S
H1268 C1276 0.929 . S
H1269 C1278 0.930 . S
H1270 C1280 0.930 . S
H1271 C1283 0.929 . S
H1272 C1286 0.930 . S
H1273 C1288 0.960 . S
H1274 C1288 0.960 . S
H1275 C1288 0.960 . S
C1276 H1268 0.929 . S
C1276 C1277 1.377 . S
C1276 C1278 1.384 . S
C1277 C1276 1.377 . S
C1277 C1283 1.390 . S
C1278 H1269 0.930 . S
C1278 C1276 1.384 . S
C1278 C1279 1.372 . S
C1279 C1278 1.372 . S
C1279 C1280 1.400 . S
C1279 C1284 1.490 . S
C1280 H1270 0.930 . S
C1280 C1279 1.400 . S
C1280 C1283 1.386 . S
H1281 C1297 0.930 . S
H1282 C1298 0.931 . S
C1283 H1271 0.929 . S
C1283 C1277 1.390 . S
C1283 C1280 1.386 . S
C1284 C1279 1.490 . S
C1284 C1286 1.395 . S
C1284 C1287 1.403 . S
H1285 C1291 0.930 . S
C1286 H1272 0.930 . S
C1286 C1284 1.395 . S
C1286 C1289 1.403 . S
C1287 C1284 1.403 . S
C1287 C1288 1.524 . S
C1287 C1291 1.400 . S
C1288 H1273 0.960 . S
C1288 H1274 0.960 . S
C1288 H1275 0.960 . S
C1288 C1287 1.524 . S
C1289 C1286 1.403 . S
C1289 C1290 1.392 . S
C1289 C1293 1.495 . S
C1290 C1289 1.392 . S
C1290 C1291 1.385 . S
C1290 C1292 1.478 . S
C1291 H1285 0.930 . S
C1291 C1287 1.400 . S
C1291 C1290 1.385 . S
C1292 C1290 1.478 . S
C1292 C1294 1.381 . S
C1292 C1298 1.383 . S
C1293 C1289 1.495 . S
C1293 H1299 0.959 . S
C1293 H1300 0.961 . S
C1293 H1301 0.960 . S
C1294 C1292 1.381 . S
C1294 C1295 1.394 . S
C1294 H1302 0.930 . S
C1295 C1294 1.394 . S
C1295 C1296 1.383 . S
C1295 H1303 0.929 . S
C1296 C1295 1.383 . S
C1296 C1297 1.377 . S
C1297 H1281 0.930 . S
C1297 C1296 1.377 . S
C1297 C1298 1.379 . S
C1298 H1282 0.931 . S
C1298 C1292 1.383 . S
C1298 C1297 1.379 . S
H1299 C1293 0.959 . S
H1300 C1293 0.961 . S
H1301 C1293 0.960 . S
H1302 C1294 0.930 . S
H1303 C1295 0.929 . S
H1304 C1312 0.929 . S
H1305 C1314 0.930 . S
H1306 C1316 0.930 . S
H1307 C1319 0.929 . S
H1308 C1322 0.930 . S
H1309 C1324 0.960 . S
H1310 C1324 0.960 . S
H1311 C1324 0.960 . S
C1312 H1304 0.929 . S
C1312 C1313 1.377 . S
C1312 C1314 1.384 . S
C1313 C1312 1.377 . S
C1313 C1319 1.390 . S
C1314 H1305 0.930 . S
C1314 C1312 1.384 . S
C1314 C1315 1.372 . S
C1315 C1314 1.372 . S
C1315 C1316 1.400 . S
C1315 C1320 1.490 . S
C1316 H1306 0.930 . S
C1316 C1315 1.400 . S
C1316 C1319 1.386 . S
H1317 C1333 0.930 . S
H1318 C1334 0.931 . S
C1319 H1307 0.929 . S
C1319 C1313 1.390 . S
C1319 C1316 1.386 . S
C1320 C1315 1.490 . S
C1320 C1322 1.395 . S
C1320 C1323 1.403 . S
H1321 C1327 0.930 . S
C1322 H1308 0.930 . S
C1322 C1320 1.395 . S
C1322 C1325 1.403 . S
C1323 C1320 1.403 . S
C1323 C1324 1.524 . S
C1323 C1327 1.400 . S
C1324 H1309 0.960 . S
C1324 H1310 0.960 . S
C1324 H1311 0.960 . S
C1324 C1323 1.524 . S
C1325 C1322 1.403 . S
C1325 C1326 1.392 . S
C1325 C1329 1.495 . S
C1326 C1325 1.392 . S
C1326 C1327 1.385 . S
C1326 C1328 1.478 . S
C1327 H1321 0.930 . S
C1327 C1323 1.400 . S
C1327 C1326 1.385 . S
C1328 C1326 1.478 . S
C1328 C1330 1.381 . S
C1328 C1334 1.383 . S
C1329 C1325 1.495 . S
C1329 H1335 0.959 . S
C1329 H1336 0.961 . S
C1329 H1337 0.960 . S
C1330 C1328 1.381 . S
C1330 C1331 1.394 . S
C1330 H1338 0.930 . S
C1331 C1330 1.394 . S
C1331 C1332 1.383 . S
C1331 H1339 0.929 . S
C1332 C1331 1.383 . S
C1332 C1333 1.377 . S
C1333 H1317 0.930 . S
C1333 C1332 1.377 . S
C1333 C1334 1.379 . S
C1334 H1318 0.931 . S
C1334 C1328 1.383 . S
C1334 C1333 1.379 . S
H1335 C1329 0.959 . S
H1336 C1329 0.961 . S
H1337 C1329 0.960 . S
H1338 C1330 0.930 . S
H1339 C1331 0.929 . S
H1340 C1348 0.929 . S
H1341 C1350 0.930 . S
H1342 C1352 0.930 . S
H1343 C1355 0.929 . S
H1344 C1358 0.930 . S
H1345 C1360 0.960 . S
H1346 C1360 0.960 . S
H1347 C1360 0.960 . S
C1348 H1340 0.929 . S
C1348 C1349 1.377 . S
C1348 C1350 1.384 . S
C1349 C1348 1.377 . S
C1349 C1355 1.390 . S
C1350 H1341 0.930 . S
C1350 C1348 1.384 . S
C1350 C1351 1.372 . S
C1351 C1350 1.372 . S
C1351 C1352 1.400 . S
C1351 C1356 1.490 . S
C1352 H1342 0.930 . S
C1352 C1351 1.400 . S
C1352 C1355 1.386 . S
H1353 C1369 0.930 . S
H1354 C1370 0.931 . S
C1355 H1343 0.929 . S
C1355 C1349 1.390 . S
C1355 C1352 1.386 . S
C1356 C1351 1.490 . S
C1356 C1358 1.395 . S
C1356 C1359 1.403 . S
H1357 C1363 0.930 . S
C1358 H1344 0.930 . S
C1358 C1356 1.395 . S
C1358 C1361 1.403 . S
C1359 C1356 1.403 . S
C1359 C1360 1.524 . S
C1359 C1363 1.400 . S
C1360 H1345 0.960 . S
C1360 H1346 0.960 . S
C1360 H1347 0.960 . S
C1360 C1359 1.524 . S
C1361 C1358 1.403 . S
C1361 C1362 1.392 . S
C1361 C1365 1.495 . S
C1362 C1361 1.392 . S
C1362 C1363 1.385 . S
C1362 C1364 1.478 . S
C1363 H1357 0.930 . S
C1363 C1359 1.400 . S
C1363 C1362 1.385 . S
C1364 C1362 1.478 . S
C1364 C1366 1.381 . S
C1364 C1370 1.383 . S
C1365 C1361 1.495 . S
C1365 H1371 0.959 . S
C1365 H1372 0.961 . S
C1365 H1373 0.960 . S
C1366 C1364 1.381 . S
C1366 C1367 1.394 . S
C1366 H1374 0.930 . S
C1367 C1366 1.394 . S
C1367 C1368 1.383 . S
C1367 H1375 0.929 . S
C1368 C1367 1.383 . S
C1368 C1369 1.377 . S
C1369 H1353 0.930 . S
C1369 C1368 1.377 . S
C1369 C1370 1.379 . S
C1370 H1354 0.931 . S
C1370 C1364 1.383 . S
C1370 C1369 1.379 . S
H1371 C1365 0.959 . S
H1372 C1365 0.961 . S
H1373 C1365 0.960 . S
H1374 C1366 0.930 . S
H1375 C1367 0.929 . S
C233 C67 1.071 . S
C252 C11 1.074 1_554 S
C269 C81 1.068 . S
C288 C25 1.051 . S
C305 C95 1.069 . S
C324 C39 1.082 1_554 S
C341 C109 1.066 . S
C360 C53 1.075 1_554 S
C377 C179 1.064 . S
C396 C123 1.050 . S
C413 C193 1.065 . S
C432 C137 1.048 . S
C449 C151 1.071 . S
C468 C207 1.071 . S
C485 C221 1.066 . S
C504 C165 1.047 . S
C521 C4 0.974 1_554 S
C540 C74 1.006 . S
C557 C88 0.976 . S
C576 C18 0.945 . S
C593 C32 0.982 1_554 S
C612 C102 0.975 . S
C629 C60 0.970 . S
C648 C46 0.977 1_554 S
C665 C186 0.981 . S
C684 C116 0.994 . S
C701 C200 0.982 . S
C720 C130 0.972 . S
C737 C144 0.972 . S
C756 C214 0.951 . S
C773 C158 0.982 . S
C792 C172 0.991 . S
C809 C215 1.175 . S
C828 C5 1.183 . S
C845 C173 1.187 . S
C864 C19 1.133 . S
C881 C187 1.190 . S
C900 C33 1.123 . S
C917 C201 1.190 . S
C936 C47 1.150 . S
C953 C131 1.189 . S
C972 C61 1.161 . S
C989 C145 1.191 . S
C1008 C75 1.146 . S
C1025 C89 1.186 . S
C1044 C159 1.135 . S
C1061 C103 1.170 . S
C1080 C117 1.233 . S
C1097 C194 1.703 . S
C1116 C40 1.705 . S
C1133 C208 1.703 . S
C1152 C54 1.705 . S
C1169 C222 1.703 . S
C1188 C12 1.703 . S
C1205 C26 1.704 . S
C1224 C180 1.698 . S
C1241 C166 1.704 . S
C1260 C96 1.699 . S
C1277 C110 1.704 . S
C1296 C124 1.698 . S
C1313 C138 1.703 . S
C1332 C68 1.705 . S
C1349 C152 1.705 . S
C1368 C82 1.696 . S
